# Generated by pormake.
# Topology rhr-a, (3)-cn, num edge types: 1
# Building blocks:
#     Node 0, Type 0, BuildingBlock: WUSLED_clean_sbu_0, # of connection points: 3
#     Node 1, Type 0, BuildingBlock: WUSLED_clean_sbu_0, # of connection points: 3
#     Node 2, Type 0, BuildingBlock: WUSLED_clean_sbu_0, # of connection points: 3
#     Node 3, Type 0, BuildingBlock: WUSLED_clean_sbu_0, # of connection points: 3
#     Node 4, Type 0, BuildingBlock: WUSLED_clean_sbu_0, # of connection points: 3
#     Node 5, Type 0, BuildingBlock: WUSLED_clean_sbu_0, # of connection points: 3
#     Node 6, Type 0, BuildingBlock: WUSLED_clean_sbu_0, # of connection points: 3
#     Node 7, Type 0, BuildingBlock: WUSLED_clean_sbu_0, # of connection points: 3
#     Node 8, Type 0, BuildingBlock: WUSLED_clean_sbu_0, # of connection points: 3
#     Node 9, Type 0, BuildingBlock: WUSLED_clean_sbu_0, # of connection points: 3
#     Node 10, Type 0, BuildingBlock: WUSLED_clean_sbu_0, # of connection points: 3
#     Node 11, Type 0, BuildingBlock: WUSLED_clean_sbu_0, # of connection points: 3
#     Node 12, Type 0, BuildingBlock: WUSLED_clean_sbu_0, # of connection points: 3
#     Node 13, Type 0, BuildingBlock: WUSLED_clean_sbu_0, # of connection points: 3
#     Node 14, Type 0, BuildingBlock: WUSLED_clean_sbu_0, # of connection points: 3
#     Node 15, Type 0, BuildingBlock: WUSLED_clean_sbu_0, # of connection points: 3
#     Node 16, Type 0, BuildingBlock: WUSLED_clean_sbu_0, # of connection points: 3
#     Node 17, Type 0, BuildingBlock: WUSLED_clean_sbu_0, # of connection points: 3
#     Node 18, Type 0, BuildingBlock: WUSLED_clean_sbu_0, # of connection points: 3
#     Node 19, Type 0, BuildingBlock: WUSLED_clean_sbu_0, # of connection points: 3
#     Node 20, Type 0, BuildingBlock: WUSLED_clean_sbu_0, # of connection points: 3
#     Node 21, Type 0, BuildingBlock: WUSLED_clean_sbu_0, # of connection points: 3
#     Node 22, Type 0, BuildingBlock: WUSLED_clean_sbu_0, # of connection points: 3
#     Node 23, Type 0, BuildingBlock: WUSLED_clean_sbu_0, # of connection points: 3
#     Node 24, Type 0, BuildingBlock: WUSLED_clean_sbu_0, # of connection points: 3
#     Node 25, Type 0, BuildingBlock: WUSLED_clean_sbu_0, # of connection points: 3
#     Node 26, Type 0, BuildingBlock: WUSLED_clean_sbu_0, # of connection points: 3
#     Node 27, Type 0, BuildingBlock: WUSLED_clean_sbu_0, # of connection points: 3
#     Node 28, Type 0, BuildingBlock: WUSLED_clean_sbu_0, # of connection points: 3
#     Node 29, Type 0, BuildingBlock: WUSLED_clean_sbu_0, # of connection points: 3
#     Node 30, Type 0, BuildingBlock: WUSLED_clean_sbu_0, # of connection points: 3
#     Node 31, Type 0, BuildingBlock: WUSLED_clean_sbu_0, # of connection points: 3
#     Node 32, Type 0, BuildingBlock: WUSLED_clean_sbu_0, # of connection points: 3
#     Node 33, Type 0, BuildingBlock: WUSLED_clean_sbu_0, # of connection points: 3
#     Node 34, Type 0, BuildingBlock: WUSLED_clean_sbu_0, # of connection points: 3
#     Node 35, Type 0, BuildingBlock: WUSLED_clean_sbu_0, # of connection points: 3
#     Node 36, Type 0, BuildingBlock: WUSLED_clean_sbu_0, # of connection points: 3
#     Node 37, Type 0, BuildingBlock: WUSLED_clean_sbu_0, # of connection points: 3
#     Node 38, Type 0, BuildingBlock: WUSLED_clean_sbu_0, # of connection points: 3
#     Node 39, Type 0, BuildingBlock: WUSLED_clean_sbu_0, # of connection points: 3
#     Node 40, Type 0, BuildingBlock: WUSLED_clean_sbu_0, # of connection points: 3
#     Node 41, Type 0, BuildingBlock: WUSLED_clean_sbu_0, # of connection points: 3
#     Node 42, Type 0, BuildingBlock: WUSLED_clean_sbu_0, # of connection points: 3
#     Node 43, Type 0, BuildingBlock: WUSLED_clean_sbu_0, # of connection points: 3
#     Node 44, Type 0, BuildingBlock: WUSLED_clean_sbu_0, # of connection points: 3
#     Node 45, Type 0, BuildingBlock: WUSLED_clean_sbu_0, # of connection points: 3
#     Node 46, Type 0, BuildingBlock: WUSLED_clean_sbu_0, # of connection points: 3
#     Node 47, Type 0, BuildingBlock: WUSLED_clean_sbu_0, # of connection points: 3
#     Node 48, Type 0, BuildingBlock: WUSLED_clean_sbu_0, # of connection points: 3
#     Node 49, Type 0, BuildingBlock: WUSLED_clean_sbu_0, # of connection points: 3
#     Node 50, Type 0, BuildingBlock: WUSLED_clean_sbu_0, # of connection points: 3
#     Node 51, Type 0, BuildingBlock: WUSLED_clean_sbu_0, # of connection points: 3
#     Node 52, Type 0, BuildingBlock: WUSLED_clean_sbu_0, # of connection points: 3
#     Node 53, Type 0, BuildingBlock: WUSLED_clean_sbu_0, # of connection points: 3
#     Node 54, Type 0, BuildingBlock: WUSLED_clean_sbu_0, # of connection points: 3
#     Node 55, Type 0, BuildingBlock: WUSLED_clean_sbu_0, # of connection points: 3
#     Node 56, Type 0, BuildingBlock: WUSLED_clean_sbu_0, # of connection points: 3
#     Node 57, Type 0, BuildingBlock: WUSLED_clean_sbu_0, # of connection points: 3
#     Node 58, Type 0, BuildingBlock: WUSLED_clean_sbu_0, # of connection points: 3
#     Node 59, Type 0, BuildingBlock: WUSLED_clean_sbu_0, # of connection points: 3
#     Node 60, Type 0, BuildingBlock: WUSLED_clean_sbu_0, # of connection points: 3
#     Node 61, Type 0, BuildingBlock: WUSLED_clean_sbu_0, # of connection points: 3
#     Node 62, Type 0, BuildingBlock: WUSLED_clean_sbu_0, # of connection points: 3
#     Node 63, Type 0, BuildingBlock: WUSLED_clean_sbu_0, # of connection points: 3
#     Node 64, Type 0, BuildingBlock: WUSLED_clean_sbu_0, # of connection points: 3
#     Node 65, Type 0, BuildingBlock: WUSLED_clean_sbu_0, # of connection points: 3
#     Node 66, Type 0, BuildingBlock: WUSLED_clean_sbu_0, # of connection points: 3
#     Node 67, Type 0, BuildingBlock: WUSLED_clean_sbu_0, # of connection points: 3
#     Node 68, Type 0, BuildingBlock: WUSLED_clean_sbu_0, # of connection points: 3
#     Node 69, Type 0, BuildingBlock: WUSLED_clean_sbu_0, # of connection points: 3
#     Node 70, Type 0, BuildingBlock: WUSLED_clean_sbu_0, # of connection points: 3
#     Node 71, Type 0, BuildingBlock: WUSLED_clean_sbu_0, # of connection points: 3
#     Node 72, Type 0, BuildingBlock: WUSLED_clean_sbu_0, # of connection points: 3
#     Node 73, Type 0, BuildingBlock: WUSLED_clean_sbu_0, # of connection points: 3
#     Node 74, Type 0, BuildingBlock: WUSLED_clean_sbu_0, # of connection points: 3
#     Node 75, Type 0, BuildingBlock: WUSLED_clean_sbu_0, # of connection points: 3
#     Node 76, Type 0, BuildingBlock: WUSLED_clean_sbu_0, # of connection points: 3
#     Node 77, Type 0, BuildingBlock: WUSLED_clean_sbu_0, # of connection points: 3
#     Node 78, Type 0, BuildingBlock: WUSLED_clean_sbu_0, # of connection points: 3
#     Node 79, Type 0, BuildingBlock: WUSLED_clean_sbu_0, # of connection points: 3
#     Node 80, Type 0, BuildingBlock: WUSLED_clean_sbu_0, # of connection points: 3
#     Node 81, Type 0, BuildingBlock: WUSLED_clean_sbu_0, # of connection points: 3
#     Node 82, Type 0, BuildingBlock: WUSLED_clean_sbu_0, # of connection points: 3
#     Node 83, Type 0, BuildingBlock: WUSLED_clean_sbu_0, # of connection points: 3
#     Node 84, Type 0, BuildingBlock: WUSLED_clean_sbu_0, # of connection points: 3
#     Node 85, Type 0, BuildingBlock: WUSLED_clean_sbu_0, # of connection points: 3
#     Node 86, Type 0, BuildingBlock: WUSLED_clean_sbu_0, # of connection points: 3
#     Node 87, Type 0, BuildingBlock: WUSLED_clean_sbu_0, # of connection points: 3
#     Node 88, Type 0, BuildingBlock: WUSLED_clean_sbu_0, # of connection points: 3
#     Node 89, Type 0, BuildingBlock: WUSLED_clean_sbu_0, # of connection points: 3
#     Node 90, Type 0, BuildingBlock: WUSLED_clean_sbu_0, # of connection points: 3
#     Node 91, Type 0, BuildingBlock: WUSLED_clean_sbu_0, # of connection points: 3
#     Node 92, Type 0, BuildingBlock: WUSLED_clean_sbu_0, # of connection points: 3
#     Node 93, Type 0, BuildingBlock: WUSLED_clean_sbu_0, # of connection points: 3
#     Node 94, Type 0, BuildingBlock: WUSLED_clean_sbu_0, # of connection points: 3
#     Node 95, Type 0, BuildingBlock: WUSLED_clean_sbu_0, # of connection points: 3
#     Edge 96, Type (0, 0), BuildingBlock: OJICUG_clean_linker_0, # of connection points: 2
#     Edge 97, Type (0, 0), BuildingBlock: OJICUG_clean_linker_0, # of connection points: 2
#     Edge 98, Type (0, 0), BuildingBlock: OJICUG_clean_linker_0, # of connection points: 2
#     Edge 99, Type (0, 0), BuildingBlock: OJICUG_clean_linker_0, # of connection points: 2
#     Edge 100, Type (0, 0), BuildingBlock: OJICUG_clean_linker_0, # of connection points: 2
#     Edge 101, Type (0, 0), BuildingBlock: OJICUG_clean_linker_0, # of connection points: 2
#     Edge 102, Type (0, 0), BuildingBlock: OJICUG_clean_linker_0, # of connection points: 2
#     Edge 103, Type (0, 0), BuildingBlock: OJICUG_clean_linker_0, # of connection points: 2
#     Edge 104, Type (0, 0), BuildingBlock: OJICUG_clean_linker_0, # of connection points: 2
#     Edge 105, Type (0, 0), BuildingBlock: OJICUG_clean_linker_0, # of connection points: 2
#     Edge 106, Type (0, 0), BuildingBlock: OJICUG_clean_linker_0, # of connection points: 2
#     Edge 107, Type (0, 0), BuildingBlock: OJICUG_clean_linker_0, # of connection points: 2
#     Edge 108, Type (0, 0), BuildingBlock: OJICUG_clean_linker_0, # of connection points: 2
#     Edge 109, Type (0, 0), BuildingBlock: OJICUG_clean_linker_0, # of connection points: 2
#     Edge 110, Type (0, 0), BuildingBlock: OJICUG_clean_linker_0, # of connection points: 2
#     Edge 111, Type (0, 0), BuildingBlock: OJICUG_clean_linker_0, # of connection points: 2
#     Edge 112, Type (0, 0), BuildingBlock: OJICUG_clean_linker_0, # of connection points: 2
#     Edge 113, Type (0, 0), BuildingBlock: OJICUG_clean_linker_0, # of connection points: 2
#     Edge 114, Type (0, 0), BuildingBlock: OJICUG_clean_linker_0, # of connection points: 2
#     Edge 115, Type (0, 0), BuildingBlock: OJICUG_clean_linker_0, # of connection points: 2
#     Edge 116, Type (0, 0), BuildingBlock: OJICUG_clean_linker_0, # of connection points: 2
#     Edge 117, Type (0, 0), BuildingBlock: OJICUG_clean_linker_0, # of connection points: 2
#     Edge 118, Type (0, 0), BuildingBlock: OJICUG_clean_linker_0, # of connection points: 2
#     Edge 119, Type (0, 0), BuildingBlock: OJICUG_clean_linker_0, # of connection points: 2
#     Edge 120, Type (0, 0), BuildingBlock: OJICUG_clean_linker_0, # of connection points: 2
#     Edge 121, Type (0, 0), BuildingBlock: OJICUG_clean_linker_0, # of connection points: 2
#     Edge 122, Type (0, 0), BuildingBlock: OJICUG_clean_linker_0, # of connection points: 2
#     Edge 123, Type (0, 0), BuildingBlock: OJICUG_clean_linker_0, # of connection points: 2
#     Edge 124, Type (0, 0), BuildingBlock: OJICUG_clean_linker_0, # of connection points: 2
#     Edge 125, Type (0, 0), BuildingBlock: OJICUG_clean_linker_0, # of connection points: 2
#     Edge 126, Type (0, 0), BuildingBlock: OJICUG_clean_linker_0, # of connection points: 2
#     Edge 127, Type (0, 0), BuildingBlock: OJICUG_clean_linker_0, # of connection points: 2
#     Edge 128, Type (0, 0), BuildingBlock: OJICUG_clean_linker_0, # of connection points: 2
#     Edge 129, Type (0, 0), BuildingBlock: OJICUG_clean_linker_0, # of connection points: 2
#     Edge 130, Type (0, 0), BuildingBlock: OJICUG_clean_linker_0, # of connection points: 2
#     Edge 131, Type (0, 0), BuildingBlock: OJICUG_clean_linker_0, # of connection points: 2
#     Edge 132, Type (0, 0), BuildingBlock: OJICUG_clean_linker_0, # of connection points: 2
#     Edge 133, Type (0, 0), BuildingBlock: OJICUG_clean_linker_0, # of connection points: 2
#     Edge 134, Type (0, 0), BuildingBlock: OJICUG_clean_linker_0, # of connection points: 2
#     Edge 135, Type (0, 0), BuildingBlock: OJICUG_clean_linker_0, # of connection points: 2
#     Edge 136, Type (0, 0), BuildingBlock: OJICUG_clean_linker_0, # of connection points: 2
#     Edge 137, Type (0, 0), BuildingBlock: OJICUG_clean_linker_0, # of connection points: 2
#     Edge 138, Type (0, 0), BuildingBlock: OJICUG_clean_linker_0, # of connection points: 2
#     Edge 139, Type (0, 0), BuildingBlock: OJICUG_clean_linker_0, # of connection points: 2
#     Edge 140, Type (0, 0), BuildingBlock: OJICUG_clean_linker_0, # of connection points: 2
#     Edge 141, Type (0, 0), BuildingBlock: OJICUG_clean_linker_0, # of connection points: 2
#     Edge 142, Type (0, 0), BuildingBlock: OJICUG_clean_linker_0, # of connection points: 2
#     Edge 143, Type (0, 0), BuildingBlock: OJICUG_clean_linker_0, # of connection points: 2
#     Edge 144, Type (0, 0), BuildingBlock: OJICUG_clean_linker_0, # of connection points: 2
#     Edge 145, Type (0, 0), BuildingBlock: OJICUG_clean_linker_0, # of connection points: 2
#     Edge 146, Type (0, 0), BuildingBlock: OJICUG_clean_linker_0, # of connection points: 2
#     Edge 147, Type (0, 0), BuildingBlock: OJICUG_clean_linker_0, # of connection points: 2
#     Edge 148, Type (0, 0), BuildingBlock: OJICUG_clean_linker_0, # of connection points: 2
#     Edge 149, Type (0, 0), BuildingBlock: OJICUG_clean_linker_0, # of connection points: 2
#     Edge 150, Type (0, 0), BuildingBlock: OJICUG_clean_linker_0, # of connection points: 2
#     Edge 151, Type (0, 0), BuildingBlock: OJICUG_clean_linker_0, # of connection points: 2
#     Edge 152, Type (0, 0), BuildingBlock: OJICUG_clean_linker_0, # of connection points: 2
#     Edge 153, Type (0, 0), BuildingBlock: OJICUG_clean_linker_0, # of connection points: 2
#     Edge 154, Type (0, 0), BuildingBlock: OJICUG_clean_linker_0, # of connection points: 2
#     Edge 155, Type (0, 0), BuildingBlock: OJICUG_clean_linker_0, # of connection points: 2
#     Edge 156, Type (0, 0), BuildingBlock: OJICUG_clean_linker_0, # of connection points: 2
#     Edge 157, Type (0, 0), BuildingBlock: OJICUG_clean_linker_0, # of connection points: 2
#     Edge 158, Type (0, 0), BuildingBlock: OJICUG_clean_linker_0, # of connection points: 2
#     Edge 159, Type (0, 0), BuildingBlock: OJICUG_clean_linker_0, # of connection points: 2
#     Edge 160, Type (0, 0), BuildingBlock: OJICUG_clean_linker_0, # of connection points: 2
#     Edge 161, Type (0, 0), BuildingBlock: OJICUG_clean_linker_0, # of connection points: 2
#     Edge 162, Type (0, 0), BuildingBlock: OJICUG_clean_linker_0, # of connection points: 2
#     Edge 163, Type (0, 0), BuildingBlock: OJICUG_clean_linker_0, # of connection points: 2
#     Edge 164, Type (0, 0), BuildingBlock: OJICUG_clean_linker_0, # of connection points: 2
#     Edge 165, Type (0, 0), BuildingBlock: OJICUG_clean_linker_0, # of connection points: 2
#     Edge 166, Type (0, 0), BuildingBlock: OJICUG_clean_linker_0, # of connection points: 2
#     Edge 167, Type (0, 0), BuildingBlock: OJICUG_clean_linker_0, # of connection points: 2
#     Edge 168, Type (0, 0), BuildingBlock: OJICUG_clean_linker_0, # of connection points: 2
#     Edge 169, Type (0, 0), BuildingBlock: OJICUG_clean_linker_0, # of connection points: 2
#     Edge 170, Type (0, 0), BuildingBlock: OJICUG_clean_linker_0, # of connection points: 2
#     Edge 171, Type (0, 0), BuildingBlock: OJICUG_clean_linker_0, # of connection points: 2
#     Edge 172, Type (0, 0), BuildingBlock: OJICUG_clean_linker_0, # of connection points: 2
#     Edge 173, Type (0, 0), BuildingBlock: OJICUG_clean_linker_0, # of connection points: 2
#     Edge 174, Type (0, 0), BuildingBlock: OJICUG_clean_linker_0, # of connection points: 2
#     Edge 175, Type (0, 0), BuildingBlock: OJICUG_clean_linker_0, # of connection points: 2
#     Edge 176, Type (0, 0), BuildingBlock: OJICUG_clean_linker_0, # of connection points: 2
#     Edge 177, Type (0, 0), BuildingBlock: OJICUG_clean_linker_0, # of connection points: 2
#     Edge 178, Type (0, 0), BuildingBlock: OJICUG_clean_linker_0, # of connection points: 2
#     Edge 179, Type (0, 0), BuildingBlock: OJICUG_clean_linker_0, # of connection points: 2
#     Edge 180, Type (0, 0), BuildingBlock: OJICUG_clean_linker_0, # of connection points: 2
#     Edge 181, Type (0, 0), BuildingBlock: OJICUG_clean_linker_0, # of connection points: 2
#     Edge 182, Type (0, 0), BuildingBlock: OJICUG_clean_linker_0, # of connection points: 2
#     Edge 183, Type (0, 0), BuildingBlock: OJICUG_clean_linker_0, # of connection points: 2
#     Edge 184, Type (0, 0), BuildingBlock: OJICUG_clean_linker_0, # of connection points: 2
#     Edge 185, Type (0, 0), BuildingBlock: OJICUG_clean_linker_0, # of connection points: 2
#     Edge 186, Type (0, 0), BuildingBlock: OJICUG_clean_linker_0, # of connection points: 2
#     Edge 187, Type (0, 0), BuildingBlock: OJICUG_clean_linker_0, # of connection points: 2
#     Edge 188, Type (0, 0), BuildingBlock: OJICUG_clean_linker_0, # of connection points: 2
#     Edge 189, Type (0, 0), BuildingBlock: OJICUG_clean_linker_0, # of connection points: 2
#     Edge 190, Type (0, 0), BuildingBlock: OJICUG_clean_linker_0, # of connection points: 2
#     Edge 191, Type (0, 0), BuildingBlock: OJICUG_clean_linker_0, # of connection points: 2
#     Edge 192, Type (0, 0), BuildingBlock: OJICUG_clean_linker_0, # of connection points: 2
#     Edge 193, Type (0, 0), BuildingBlock: OJICUG_clean_linker_0, # of connection points: 2
#     Edge 194, Type (0, 0), BuildingBlock: OJICUG_clean_linker_0, # of connection points: 2
#     Edge 195, Type (0, 0), BuildingBlock: OJICUG_clean_linker_0, # of connection points: 2
#     Edge 196, Type (0, 0), BuildingBlock: OJICUG_clean_linker_0, # of connection points: 2
#     Edge 197, Type (0, 0), BuildingBlock: OJICUG_clean_linker_0, # of connection points: 2
#     Edge 198, Type (0, 0), BuildingBlock: OJICUG_clean_linker_0, # of connection points: 2
#     Edge 199, Type (0, 0), BuildingBlock: OJICUG_clean_linker_0, # of connection points: 2
#     Edge 200, Type (0, 0), BuildingBlock: OJICUG_clean_linker_0, # of connection points: 2
#     Edge 201, Type (0, 0), BuildingBlock: OJICUG_clean_linker_0, # of connection points: 2
#     Edge 202, Type (0, 0), BuildingBlock: OJICUG_clean_linker_0, # of connection points: 2
#     Edge 203, Type (0, 0), BuildingBlock: OJICUG_clean_linker_0, # of connection points: 2
#     Edge 204, Type (0, 0), BuildingBlock: OJICUG_clean_linker_0, # of connection points: 2
#     Edge 205, Type (0, 0), BuildingBlock: OJICUG_clean_linker_0, # of connection points: 2
#     Edge 206, Type (0, 0), BuildingBlock: OJICUG_clean_linker_0, # of connection points: 2
#     Edge 207, Type (0, 0), BuildingBlock: OJICUG_clean_linker_0, # of connection points: 2
#     Edge 208, Type (0, 0), BuildingBlock: OJICUG_clean_linker_0, # of connection points: 2
#     Edge 209, Type (0, 0), BuildingBlock: OJICUG_clean_linker_0, # of connection points: 2
#     Edge 210, Type (0, 0), BuildingBlock: OJICUG_clean_linker_0, # of connection points: 2
#     Edge 211, Type (0, 0), BuildingBlock: OJICUG_clean_linker_0, # of connection points: 2
#     Edge 212, Type (0, 0), BuildingBlock: OJICUG_clean_linker_0, # of connection points: 2
#     Edge 213, Type (0, 0), BuildingBlock: OJICUG_clean_linker_0, # of connection points: 2
#     Edge 214, Type (0, 0), BuildingBlock: OJICUG_clean_linker_0, # of connection points: 2
#     Edge 215, Type (0, 0), BuildingBlock: OJICUG_clean_linker_0, # of connection points: 2
#     Edge 216, Type (0, 0), BuildingBlock: OJICUG_clean_linker_0, # of connection points: 2
#     Edge 217, Type (0, 0), BuildingBlock: OJICUG_clean_linker_0, # of connection points: 2
#     Edge 218, Type (0, 0), BuildingBlock: OJICUG_clean_linker_0, # of connection points: 2
#     Edge 219, Type (0, 0), BuildingBlock: OJICUG_clean_linker_0, # of connection points: 2
#     Edge 220, Type (0, 0), BuildingBlock: OJICUG_clean_linker_0, # of connection points: 2
#     Edge 221, Type (0, 0), BuildingBlock: OJICUG_clean_linker_0, # of connection points: 2
#     Edge 222, Type (0, 0), BuildingBlock: OJICUG_clean_linker_0, # of connection points: 2
#     Edge 223, Type (0, 0), BuildingBlock: OJICUG_clean_linker_0, # of connection points: 2
#     Edge 224, Type (0, 0), BuildingBlock: OJICUG_clean_linker_0, # of connection points: 2
#     Edge 225, Type (0, 0), BuildingBlock: OJICUG_clean_linker_0, # of connection points: 2
#     Edge 226, Type (0, 0), BuildingBlock: OJICUG_clean_linker_0, # of connection points: 2
#     Edge 227, Type (0, 0), BuildingBlock: OJICUG_clean_linker_0, # of connection points: 2
#     Edge 228, Type (0, 0), BuildingBlock: OJICUG_clean_linker_0, # of connection points: 2
#     Edge 229, Type (0, 0), BuildingBlock: OJICUG_clean_linker_0, # of connection points: 2
#     Edge 230, Type (0, 0), BuildingBlock: OJICUG_clean_linker_0, # of connection points: 2
#     Edge 231, Type (0, 0), BuildingBlock: OJICUG_clean_linker_0, # of connection points: 2
#     Edge 232, Type (0, 0), BuildingBlock: OJICUG_clean_linker_0, # of connection points: 2
#     Edge 233, Type (0, 0), BuildingBlock: OJICUG_clean_linker_0, # of connection points: 2
#     Edge 234, Type (0, 0), BuildingBlock: OJICUG_clean_linker_0, # of connection points: 2
#     Edge 235, Type (0, 0), BuildingBlock: OJICUG_clean_linker_0, # of connection points: 2
#     Edge 236, Type (0, 0), BuildingBlock: OJICUG_clean_linker_0, # of connection points: 2
#     Edge 237, Type (0, 0), BuildingBlock: OJICUG_clean_linker_0, # of connection points: 2
#     Edge 238, Type (0, 0), BuildingBlock: OJICUG_clean_linker_0, # of connection points: 2
#     Edge 239, Type (0, 0), BuildingBlock: OJICUG_clean_linker_0, # of connection points: 2
# Relax obj value: 0.125
# Max RMSD: 0.105
# Mean RMSD: 0.105
data_MOF--net-rhr-a--node1-WUSLED_clean_sbu_0--edge1-OJICUG_clean_linker_0
_symmetry_space_group_name_H-M    P1
_symmetry_Int_Tables_number       1
_symmetry_cell_setting            triclinic
loop_
_symmetry_equiv_pos_as_xyz
'x, y, z'
_cell_length_a     151.60746
_cell_length_b     151.63798
_cell_length_c     151.62873
_cell_angle_alpha  89.995769
_cell_angle_beta   90.000038
_cell_angle_gamma 89.997677
loop_
_atom_site_label
_atom_site_type_symbol
_atom_site_fract_x
_atom_site_fract_y
_atom_site_fract_z
_atom_type_partial_charge
C0 C 0.07814 0.29242 0.34626 0.0
C1 C 0.07046 0.29455 0.34157 0.0
C2 C 0.07859 0.30535 0.33287 0.0
C3 C 0.07068 0.30095 0.33493 0.0
C4 C 0.0863 0.3031 0.33754 0.0
C5 C 0.08606 0.29669 0.34419 0.0
U6 U 0.06468 0.27707 0.36045 0.0
O7 O 0.06727 0.26363 0.36531 0.0
O8 O 0.06493 0.2744 0.37469 0.0
C9 C 0.06719 0.2661 0.37362 0.0
C10 C 0.07781 0.28589 0.35343 0.0
C11 C 0.07466 0.26305 0.37901 0.0
C12 C 0.0897 0.2646 0.38436 0.0
C13 C 0.08281 0.26744 0.37889 0.0
C14 C 0.08042 0.25287 0.38996 0.0
C15 C 0.08857 0.25731 0.39 0.0
C16 C 0.07354 0.25572 0.38452 0.0
C17 C 0.0396 0.27676 0.35538 0.0
C18 C 0.02677 0.27457 0.36479 0.0
C19 C 0.02532 0.27339 0.34893 0.0
C20 C 0.03431 0.27514 0.34797 0.0
C21 C 0.0214 0.27325 0.35734 0.0
C22 C 0.0358 0.27629 0.36383 0.0
C23 C 0.0488 0.2796 0.354 0.0
O24 O 0.07359 0.28851 0.36053 0.0
O25 O 0.07567 0.27785 0.351 0.0
O26 O 0.05427 0.27366 0.35087 0.0
O27 O 0.0523 0.28459 0.36017 0.0
H28 H 0.06427 0.2913 0.34308 0.0
H29 H 0.06465 0.30241 0.33139 0.0
H30 H 0.09248 0.30642 0.33618 0.0
H31 H 0.09205 0.29514 0.34777 0.0
H32 H 0.09592 0.26811 0.38415 0.0
H33 H 0.0838 0.2731 0.37464 0.0
H34 H 0.07926 0.24732 0.3943 0.0
H35 H 0.06728 0.25227 0.38471 0.0
H36 H 0.02397 0.27441 0.37136 0.0
H37 H 0.02137 0.27253 0.34304 0.0
H38 H 0.03709 0.27552 0.3414 0.0
H39 H 0.03975 0.27748 0.36966 0.0
C40 C 0.712 0.07843 0.34595 0.0
C41 C 0.70988 0.07071 0.34131 0.0
C42 C 0.699 0.07873 0.33262 0.0
C43 C 0.70346 0.07086 0.3347 0.0
C44 C 0.70122 0.08648 0.33724 0.0
C45 C 0.70766 0.08632 0.34386 0.0
U46 U 0.72738 0.06498 0.36003 0.0
O47 O 0.74086 0.06749 0.36487 0.0
O48 O 0.73009 0.06508 0.37426 0.0
C49 C 0.73842 0.06726 0.37319 0.0
C50 C 0.71855 0.07815 0.3531 0.0
C51 C 0.74167 0.07447 0.3788 0.0
C52 C 0.7401 0.08904 0.38535 0.0
C53 C 0.73714 0.08252 0.37949 0.0
C54 C 0.75224 0.0796 0.38968 0.0
C55 C 0.74761 0.08759 0.39062 0.0
C56 C 0.74928 0.07311 0.38384 0.0
C57 C 0.72759 0.03987 0.35485 0.0
C58 C 0.72673 0.02596 0.36285 0.0
C59 C 0.73368 0.02645 0.34849 0.0
C60 C 0.73204 0.03551 0.348 0.0
C61 C 0.73085 0.02152 0.35582 0.0
C62 C 0.72511 0.03504 0.36237 0.0
C63 C 0.72477 0.04913 0.35354 0.0
O64 O 0.71597 0.07394 0.36022 0.0
O65 O 0.72659 0.07603 0.35064 0.0
O66 O 0.7307 0.05462 0.35038 0.0
O67 O 0.71978 0.05265 0.3597 0.0
H68 H 0.71318 0.06456 0.34283 0.0
H69 H 0.70202 0.06481 0.33119 0.0
H70 H 0.69786 0.09263 0.33586 0.0
H71 H 0.7092 0.09233 0.34741 0.0
H72 H 0.73635 0.09509 0.38595 0.0
H73 H 0.73124 0.08369 0.37563 0.0
H74 H 0.75813 0.07832 0.39352 0.0
H75 H 0.75288 0.06696 0.38337 0.0
H76 H 0.72438 0.02237 0.36856 0.0
H77 H 0.737 0.02327 0.34302 0.0
H78 H 0.73399 0.03905 0.34211 0.0
H79 H 0.72163 0.03818 0.36776 0.0
C80 C 0.92626 0.7116 0.34649 0.0
C81 C 0.93396 0.70953 0.34179 0.0
C82 C 0.92589 0.69875 0.33302 0.0
C83 C 0.93378 0.70318 0.33511 0.0
C84 C 0.91816 0.70093 0.33769 0.0
C85 C 0.91836 0.7073 0.34438 0.0
U86 U 0.93984 0.72659 0.36085 0.0
O87 O 0.93754 0.74001 0.36587 0.0
O88 O 0.93964 0.72909 0.37514 0.0
C89 C 0.93765 0.73747 0.37416 0.0
C90 C 0.92659 0.71804 0.35373 0.0
C91 C 0.93041 0.74077 0.37971 0.0
C92 C 0.91488 0.74162 0.3836 0.0
C93 C 0.92161 0.7384 0.37814 0.0
C94 C 0.92573 0.74958 0.39222 0.0
C95 C 0.91686 0.74727 0.39071 0.0
C96 C 0.93242 0.74637 0.38677 0.0
C97 C 0.96497 0.72664 0.35577 0.0
C98 C 0.97896 0.72529 0.36356 0.0
C99 C 0.97832 0.73316 0.34969 0.0
C100 C 0.96926 0.73153 0.34918 0.0
C101 C 0.98333 0.72987 0.35678 0.0
C102 C 0.96988 0.72368 0.36306 0.0
C103 C 0.95569 0.7239 0.3544 0.0
O104 O 0.93074 0.71529 0.36083 0.0
O105 O 0.92882 0.72609 0.35141 0.0
O106 O 0.95026 0.7299 0.35128 0.0
O107 O 0.95209 0.71887 0.36048 0.0
H108 H 0.94013 0.7128 0.34333 0.0
H109 H 0.93982 0.70177 0.33157 0.0
H110 H 0.91201 0.69759 0.3363 0.0
H111 H 0.91237 0.7088 0.34797 0.0
H112 H 0.90812 0.73977 0.38221 0.0
H113 H 0.91995 0.73407 0.3727 0.0
H114 H 0.92753 0.75377 0.39772 0.0
H115 H 0.93919 0.74822 0.3881 0.0
H116 H 0.98261 0.72258 0.36907 0.0
H117 H 0.98144 0.73683 0.34442 0.0
H118 H 0.96566 0.73385 0.34346 0.0
H119 H 0.9668 0.71984 0.36824 0.0
C120 C 0.29257 0.92665 0.3464 0.0
C121 C 0.29462 0.93429 0.3416 0.0
C122 C 0.30538 0.92614 0.33289 0.0
C123 C 0.30095 0.93404 0.33491 0.0
C124 C 0.30321 0.91846 0.33765 0.0
C125 C 0.29686 0.91873 0.34436 0.0
U126 U 0.27756 0.9404 0.36056 0.0
O127 O 0.26418 0.93813 0.3657 0.0
O128 O 0.27514 0.94046 0.37488 0.0
C129 C 0.26677 0.93839 0.37397 0.0
C130 C 0.28616 0.92707 0.35366 0.0
C131 C 0.26356 0.93123 0.37967 0.0
C132 C 0.26205 0.91567 0.38328 0.0
C133 C 0.26525 0.92234 0.37773 0.0
C134 C 0.25551 0.92675 0.39277 0.0
C135 C 0.25711 0.9178 0.39086 0.0
C136 C 0.2587 0.93338 0.38722 0.0
C137 C 0.27736 0.96533 0.355 0.0
C138 C 0.27483 0.97814 0.36433 0.0
C139 C 0.27425 0.9796 0.34843 0.0
C140 C 0.27603 0.97061 0.34754 0.0
C141 C 0.27378 0.98352 0.35683 0.0
C142 C 0.27659 0.96911 0.36342 0.0
C143 C 0.28015 0.9561 0.35374 0.0
O144 O 0.28891 0.93136 0.36067 0.0
O145 O 0.27808 0.9292 0.35134 0.0
O146 O 0.27411 0.95061 0.3508 0.0
O147 O 0.28519 0.95268 0.35991 0.0
H148 H 0.29136 0.94048 0.34308 0.0
H149 H 0.30235 0.94004 0.3313 0.0
H150 H 0.30655 0.91229 0.33632 0.0
H151 H 0.29538 0.91278 0.34803 0.0
H152 H 0.26334 0.90886 0.38158 0.0
H153 H 0.26901 0.92057 0.37192 0.0
H154 H 0.2519 0.92866 0.39862 0.0
H155 H 0.25738 0.94021 0.38885 0.0
H156 H 0.27442 0.98094 0.37088 0.0
H157 H 0.2736 0.98355 0.34251 0.0
H158 H 0.27664 0.96782 0.34098 0.0
H159 H 0.27754 0.96515 0.36929 0.0
C160 C 0.07788 0.71157 0.65826 0.0
C161 C 0.07017 0.70944 0.6629 0.0
C162 C 0.07824 0.69864 0.67165 0.0
C163 C 0.07035 0.70305 0.66954 0.0
C164 C 0.08598 0.70088 0.66703 0.0
C165 C 0.08579 0.70729 0.66037 0.0
U166 U 0.06453 0.72696 0.64401 0.0
O167 O 0.06717 0.74039 0.63916 0.0
O168 O 0.06484 0.72962 0.62977 0.0
C169 C 0.06712 0.73792 0.63085 0.0
C170 C 0.0776 0.7181 0.65109 0.0
C171 C 0.0746 0.74096 0.62548 0.0
C172 C 0.08965 0.73939 0.62016 0.0
C173 C 0.08275 0.73656 0.62561 0.0
C174 C 0.08039 0.75113 0.61454 0.0
C175 C 0.08854 0.74668 0.61451 0.0
C176 C 0.0735 0.74829 0.61996 0.0
C177 C 0.03943 0.72735 0.64895 0.0
C178 C 0.02668 0.72959 0.63947 0.0
C179 C 0.02513 0.73079 0.65532 0.0
C180 C 0.03411 0.72899 0.65633 0.0
C181 C 0.02126 0.73094 0.64689 0.0
C182 C 0.03569 0.72783 0.64048 0.0
C183 C 0.04862 0.72447 0.65038 0.0
O184 O 0.07342 0.71549 0.64396 0.0
O185 O 0.07548 0.72615 0.65351 0.0
O186 O 0.05409 0.7304 0.65355 0.0
O187 O 0.05214 0.71947 0.64423 0.0
H188 H 0.064 0.71271 0.66136 0.0
H189 H 0.0643 0.7016 0.67305 0.0
H190 H 0.09214 0.69755 0.66842 0.0
H191 H 0.0918 0.70883 0.65682 0.0
H192 H 0.09587 0.73588 0.62038 0.0
H193 H 0.08373 0.73091 0.62987 0.0
H194 H 0.07925 0.75668 0.61019 0.0
H195 H 0.06725 0.75175 0.61976 0.0
H196 H 0.02392 0.72976 0.63288 0.0
H197 H 0.02115 0.73167 0.66118 0.0
H198 H 0.03685 0.72861 0.66292 0.0
H199 H 0.03967 0.72662 0.63468 0.0
C200 C 0.29237 0.07776 0.6578 0.0
C201 C 0.29431 0.07012 0.66263 0.0
C202 C 0.30517 0.07816 0.67132 0.0
C203 C 0.30063 0.07031 0.66933 0.0
C204 C 0.30311 0.08585 0.66653 0.0
C205 C 0.29677 0.08564 0.6598 0.0
U206 U 0.27719 0.06421 0.64361 0.0
O207 O 0.26389 0.06675 0.63836 0.0
O208 O 0.27486 0.06409 0.6293 0.0
C209 C 0.26653 0.06636 0.63011 0.0
C210 C 0.28597 0.07741 0.65051 0.0
C211 C 0.26357 0.07357 0.62433 0.0
C212 C 0.26372 0.08894 0.61975 0.0
C213 C 0.26644 0.08228 0.62557 0.0
C214 C 0.25519 0.07823 0.61152 0.0
C215 C 0.25814 0.08697 0.6126 0.0
C216 C 0.25789 0.07161 0.61732 0.0
C217 C 0.27664 0.03927 0.64916 0.0
C218 C 0.27424 0.02645 0.6398 0.0
C219 C 0.27336 0.02501 0.65569 0.0
C220 C 0.27515 0.034 0.6566 0.0
C221 C 0.27305 0.02108 0.64729 0.0
C222 C 0.276 0.03547 0.64073 0.0
C223 C 0.2795 0.04847 0.65046 0.0
O224 O 0.28868 0.07305 0.64353 0.0
O225 O 0.27786 0.07541 0.65282 0.0
O226 O 0.2735 0.05403 0.65333 0.0
O227 O 0.28465 0.05183 0.64435 0.0
H228 H 0.29096 0.06397 0.66117 0.0
H229 H 0.30194 0.06431 0.67298 0.0
H230 H 0.30654 0.09197 0.66783 0.0
H231 H 0.29538 0.09159 0.65611 0.0
H232 H 0.26617 0.09558 0.62073 0.0
H233 H 0.27085 0.08389 0.63095 0.0
H234 H 0.25077 0.07651 0.60617 0.0
H235 H 0.25558 0.06492 0.6163 0.0
H236 H 0.27395 0.02365 0.63324 0.0
H237 H 0.2726 0.02107 0.6616 0.0
H238 H 0.27565 0.03679 0.66316 0.0
H239 H 0.27708 0.03942 0.63487 0.0
C240 C 0.92654 0.29241 0.65833 0.0
C241 C 0.93427 0.29454 0.66294 0.0
C242 C 0.92622 0.30533 0.67174 0.0
C243 C 0.93411 0.30093 0.66959 0.0
C244 C 0.91846 0.30308 0.66714 0.0
C245 C 0.91863 0.29667 0.66049 0.0
U246 U 0.93987 0.27704 0.64406 0.0
O247 O 0.93724 0.2636 0.63923 0.0
O248 O 0.93951 0.27436 0.62982 0.0
C249 C 0.93726 0.26606 0.63092 0.0
C250 C 0.9268 0.28588 0.65116 0.0
C251 C 0.92975 0.263 0.62558 0.0
C252 C 0.91465 0.26452 0.62039 0.0
C253 C 0.92159 0.26737 0.62579 0.0
C254 C 0.92393 0.25284 0.61466 0.0
C255 C 0.91576 0.25725 0.61472 0.0
C256 C 0.93085 0.2557 0.62004 0.0
C257 C 0.96498 0.27672 0.64895 0.0
C258 C 0.97776 0.27457 0.63947 0.0
C259 C 0.97929 0.27331 0.65532 0.0
C260 C 0.9703 0.27507 0.65633 0.0
C261 C 0.98317 0.27321 0.6469 0.0
C262 C 0.96874 0.27629 0.64049 0.0
C263 C 0.95579 0.27957 0.65038 0.0
O264 O 0.93096 0.28849 0.64402 0.0
O265 O 0.92894 0.27783 0.65358 0.0
O266 O 0.95034 0.27363 0.65357 0.0
O267 O 0.95225 0.28455 0.64423 0.0
H268 H 0.94044 0.2913 0.66137 0.0
H269 H 0.94017 0.3024 0.67307 0.0
H270 H 0.9123 0.30639 0.66857 0.0
H271 H 0.91261 0.29512 0.65697 0.0
H272 H 0.90842 0.26801 0.62066 0.0
H273 H 0.92061 0.27301 0.63007 0.0
H274 H 0.92506 0.2473 0.61029 0.0
H275 H 0.93711 0.25227 0.61978 0.0
H276 H 0.98053 0.27444 0.63289 0.0
H277 H 0.98326 0.27242 0.66119 0.0
H278 H 0.96755 0.27541 0.66292 0.0
H279 H 0.96476 0.27751 0.63468 0.0
C280 C 0.71175 0.92591 0.65839 0.0
C281 C 0.70975 0.93356 0.6632 0.0
C282 C 0.69882 0.9255 0.67178 0.0
C283 C 0.70336 0.93335 0.66983 0.0
C284 C 0.70094 0.91781 0.66701 0.0
C285 C 0.70735 0.91803 0.66036 0.0
U286 U 0.72708 0.93949 0.64438 0.0
O287 O 0.74048 0.93698 0.63935 0.0
O288 O 0.72964 0.93958 0.63011 0.0
C289 C 0.73796 0.93735 0.63106 0.0
C290 C 0.71825 0.92627 0.65119 0.0
C291 C 0.74108 0.93018 0.62533 0.0
C292 C 0.74019 0.91513 0.61984 0.0
C293 C 0.73736 0.92171 0.62569 0.0
C294 C 0.75056 0.92541 0.61334 0.0
C295 C 0.74675 0.91695 0.61351 0.0
C296 C 0.74774 0.93195 0.61919 0.0
C297 C 0.72747 0.96444 0.64985 0.0
C298 C 0.7301 0.97719 0.64047 0.0
C299 C 0.73055 0.97875 0.65636 0.0
C300 C 0.72874 0.96977 0.65729 0.0
C301 C 0.73109 0.98261 0.64794 0.0
C302 C 0.72832 0.96817 0.64141 0.0
C303 C 0.72461 0.95524 0.65115 0.0
O304 O 0.71562 0.9306 0.64416 0.0
O305 O 0.72632 0.92831 0.65361 0.0
O306 O 0.73058 0.94971 0.65413 0.0
O307 O 0.71956 0.95185 0.64497 0.0
H308 H 0.7131 0.93971 0.66177 0.0
H309 H 0.70199 0.93935 0.67346 0.0
H310 H 0.69751 0.91168 0.66829 0.0
H311 H 0.70879 0.91208 0.65669 0.0
H312 H 0.73708 0.90871 0.6201 0.0
H313 H 0.7322 0.92023 0.63041 0.0
H314 H 0.75572 0.927 0.60867 0.0
H315 H 0.75071 0.93844 0.61884 0.0
H316 H 0.73057 0.97994 0.63389 0.0
H317 H 0.73115 0.98274 0.66225 0.0
H318 H 0.72807 0.96703 0.66386 0.0
H319 H 0.72741 0.96418 0.63556 0.0
C320 C 0.34574 0.07845 0.29283 0.0
C321 C 0.34106 0.07076 0.29495 0.0
C322 C 0.33232 0.07885 0.30575 0.0
C323 C 0.33442 0.07095 0.30133 0.0
C324 C 0.33698 0.08657 0.30351 0.0
C325 C 0.34364 0.08637 0.29712 0.0
U326 U 0.36014 0.06506 0.27761 0.0
O327 O 0.36502 0.06763 0.26417 0.0
O328 O 0.37439 0.06548 0.27499 0.0
C329 C 0.37332 0.06766 0.26667 0.0
C330 C 0.35292 0.07815 0.28633 0.0
C331 C 0.37866 0.07515 0.26356 0.0
C332 C 0.38405 0.09017 0.26511 0.0
C333 C 0.37859 0.08328 0.26797 0.0
C334 C 0.38953 0.0809 0.2533 0.0
C335 C 0.38963 0.08904 0.25777 0.0
C336 C 0.3841 0.07403 0.25618 0.0
C337 C 0.35545 0.03984 0.27741 0.0
C338 C 0.36325 0.02586 0.27893 0.0
C339 C 0.34962 0.02649 0.27066 0.0
C340 C 0.34902 0.03554 0.27232 0.0
C341 C 0.35662 0.02149 0.27413 0.0
C342 C 0.36267 0.03493 0.28057 0.0
C343 C 0.35396 0.04908 0.28021 0.0
O344 O 0.36008 0.07405 0.289 0.0
O345 O 0.35054 0.07593 0.27829 0.0
O346 O 0.35072 0.05451 0.27426 0.0
O347 O 0.36002 0.05274 0.28522 0.0
H348 H 0.3426 0.06458 0.29169 0.0
H349 H 0.33089 0.06492 0.30278 0.0
H350 H 0.3356 0.09274 0.30684 0.0
H351 H 0.34721 0.09236 0.29558 0.0
H352 H 0.38389 0.09638 0.26863 0.0
H353 H 0.37439 0.08427 0.27367 0.0
H354 H 0.39383 0.07975 0.24771 0.0
H355 H 0.38425 0.06779 0.25271 0.0
H356 H 0.36869 0.02222 0.28179 0.0
H357 H 0.34446 0.02337 0.26682 0.0
H358 H 0.34335 0.03913 0.26985 0.0
H359 H 0.36772 0.038 0.28458 0.0
C360 C 0.92681 0.34611 0.29273 0.0
C361 C 0.93446 0.34134 0.2948 0.0
C362 C 0.92633 0.33266 0.3056 0.0
C363 C 0.93422 0.33468 0.30116 0.0
C364 C 0.91864 0.3374 0.30341 0.0
C365 C 0.91889 0.34408 0.29704 0.0
U366 U 0.9405 0.36032 0.2777 0.0
O367 O 0.93823 0.36535 0.26428 0.0
O368 O 0.94044 0.37461 0.27519 0.0
C369 C 0.93841 0.37364 0.26682 0.0
C370 C 0.9272 0.35335 0.28629 0.0
C371 C 0.93119 0.37923 0.26355 0.0
C372 C 0.91564 0.38304 0.26254 0.0
C373 C 0.92236 0.37756 0.26576 0.0
C374 C 0.92654 0.39189 0.25493 0.0
C375 C 0.91765 0.39027 0.25706 0.0
C376 C 0.93323 0.38642 0.25813 0.0
C377 C 0.96549 0.355 0.27758 0.0
C378 C 0.97828 0.3644 0.27521 0.0
C379 C 0.97978 0.34852 0.27433 0.0
C380 C 0.97079 0.34757 0.27611 0.0
C381 C 0.98367 0.35694 0.27401 0.0
C382 C 0.96925 0.36344 0.27696 0.0
C383 C 0.95626 0.35366 0.28036 0.0
O384 O 0.93143 0.3604 0.28902 0.0
O385 O 0.92938 0.351 0.27823 0.0
O386 O 0.95082 0.35063 0.27434 0.0
O387 O 0.95277 0.35982 0.28537 0.0
H388 H 0.94064 0.34282 0.29153 0.0
H389 H 0.94023 0.33108 0.30257 0.0
H390 H 0.91247 0.33607 0.30677 0.0
H391 H 0.91293 0.34773 0.29555 0.0
H392 H 0.90887 0.38155 0.26426 0.0
H393 H 0.92068 0.37202 0.26995 0.0
H394 H 0.92837 0.39748 0.25087 0.0
H395 H 0.94002 0.38784 0.2564 0.0
H396 H 0.98106 0.37097 0.27492 0.0
H397 H 0.98374 0.34263 0.27356 0.0
H398 H 0.96802 0.341 0.2766 0.0
H399 H 0.96528 0.36928 0.27802 0.0
C400 C 0.65874 0.92638 0.2929 0.0
C401 C 0.66349 0.93405 0.29495 0.0
C402 C 0.67216 0.92596 0.3058 0.0
C403 C 0.67014 0.93384 0.30133 0.0
C404 C 0.66743 0.91826 0.30363 0.0
C405 C 0.66077 0.91848 0.29724 0.0
U406 U 0.64447 0.93983 0.2776 0.0
O407 O 0.63957 0.93724 0.26418 0.0
O408 O 0.63022 0.93955 0.27498 0.0
C409 C 0.63127 0.93729 0.26668 0.0
C410 C 0.65155 0.92671 0.2864 0.0
C411 C 0.62588 0.92982 0.26363 0.0
C412 C 0.62052 0.91479 0.26521 0.0
C413 C 0.62598 0.92169 0.26804 0.0
C414 C 0.61495 0.92405 0.25343 0.0
C415 C 0.6149 0.91591 0.25789 0.0
C416 C 0.62039 0.93093 0.25628 0.0
C417 C 0.64946 0.96491 0.27728 0.0
C418 C 0.63999 0.97768 0.27509 0.0
C419 C 0.65585 0.97921 0.2739 0.0
C420 C 0.65684 0.97023 0.27565 0.0
C421 C 0.64742 0.98309 0.27375 0.0
C422 C 0.641 0.96866 0.27681 0.0
C423 C 0.65088 0.95571 0.28012 0.0
O424 O 0.64444 0.9309 0.28904 0.0
O425 O 0.65395 0.92885 0.27834 0.0
O426 O 0.65402 0.95025 0.27417 0.0
O427 O 0.64474 0.95219 0.28513 0.0
H428 H 0.66201 0.94022 0.29165 0.0
H429 H 0.67372 0.93986 0.30273 0.0
H430 H 0.66876 0.91211 0.30701 0.0
H431 H 0.65714 0.91251 0.29575 0.0
H432 H 0.6207 0.90858 0.26873 0.0
H433 H 0.63022 0.9207 0.27371 0.0
H434 H 0.61063 0.9252 0.24787 0.0
H435 H 0.62022 0.93718 0.25281 0.0
H436 H 0.63341 0.98045 0.27492 0.0
H437 H 0.66172 0.98319 0.27302 0.0
H438 H 0.66343 0.96748 0.27603 0.0
H439 H 0.63518 0.96469 0.278 0.0
C440 C 0.07803 0.65796 0.29228 0.0
C441 C 0.07034 0.66261 0.29446 0.0
C442 C 0.0785 0.67136 0.3052 0.0
C443 C 0.07057 0.66926 0.30085 0.0
C444 C 0.08622 0.66673 0.3029 0.0
C445 C 0.08598 0.66007 0.2965 0.0
U446 U 0.06455 0.64375 0.27698 0.0
O447 O 0.06711 0.63888 0.26354 0.0
O448 O 0.06481 0.6295 0.27432 0.0
C449 C 0.06706 0.63058 0.26602 0.0
C450 C 0.0777 0.65079 0.28576 0.0
C451 C 0.07453 0.6252 0.26296 0.0
C452 C 0.08962 0.61995 0.26446 0.0
C453 C 0.08271 0.62539 0.2673 0.0
C454 C 0.08029 0.61422 0.25282 0.0
C455 C 0.08847 0.61426 0.25721 0.0
C456 C 0.0734 0.61963 0.25567 0.0
C457 C 0.03946 0.64881 0.27675 0.0
C458 C 0.02661 0.63943 0.27466 0.0
C459 C 0.02518 0.65529 0.27344 0.0
C460 C 0.03419 0.65623 0.27514 0.0
C461 C 0.02124 0.64689 0.27334 0.0
C462 C 0.03565 0.64038 0.27633 0.0
C463 C 0.04868 0.65018 0.27956 0.0
O464 O 0.0735 0.64368 0.2884 0.0
O465 O 0.07554 0.65321 0.27772 0.0
O466 O 0.05413 0.65332 0.27359 0.0
O467 O 0.0522 0.64401 0.28454 0.0
H468 H 0.06415 0.66107 0.29125 0.0
H469 H 0.06454 0.67277 0.30234 0.0
H470 H 0.09241 0.66812 0.30618 0.0
H471 H 0.09197 0.65652 0.29492 0.0
H472 H 0.09585 0.62022 0.26792 0.0
H473 H 0.08371 0.62969 0.27292 0.0
H474 H 0.07913 0.60983 0.2473 0.0
H475 H 0.06712 0.61939 0.25226 0.0
H476 H 0.0238 0.63286 0.27453 0.0
H477 H 0.02124 0.66118 0.27258 0.0
H478 H 0.03698 0.6628 0.27548 0.0
H479 H 0.0396 0.63454 0.27751 0.0
C480 C 0.34603 0.92633 0.71149 0.0
C481 C 0.34106 0.93395 0.70977 0.0
C482 C 0.3323 0.92596 0.69892 0.0
C483 C 0.33426 0.93376 0.70355 0.0
C484 C 0.33722 0.9183 0.70079 0.0
C485 C 0.34404 0.9185 0.70702 0.0
U486 U 0.36071 0.93978 0.72638 0.0
O487 O 0.36646 0.9371 0.73943 0.0
O488 O 0.37513 0.93981 0.72814 0.0
C489 C 0.3746 0.93731 0.73643 0.0
C490 C 0.35348 0.92668 0.71769 0.0
C491 C 0.38048 0.92998 0.73903 0.0
C492 C 0.38301 0.91525 0.74494 0.0
C493 C 0.3772 0.92192 0.74223 0.0
C494 C 0.39543 0.92456 0.74115 0.0
C495 C 0.39219 0.91651 0.74443 0.0
C496 C 0.38963 0.93122 0.73851 0.0
C497 C 0.35524 0.96476 0.72732 0.0
C498 C 0.36465 0.97759 0.72939 0.0
C499 C 0.3488 0.97901 0.7308 0.0
C500 C 0.34784 0.97001 0.72906 0.0
C501 C 0.3572 0.98295 0.73083 0.0
C502 C 0.36368 0.96856 0.72767 0.0
C503 C 0.35384 0.95557 0.72446 0.0
O504 O 0.36037 0.93106 0.7148 0.0
O505 O 0.35141 0.92864 0.72588 0.0
O506 O 0.35118 0.94997 0.73052 0.0
O507 O 0.35977 0.95224 0.71907 0.0
H508 H 0.34252 0.94006 0.71317 0.0
H509 H 0.33053 0.93974 0.70238 0.0
H510 H 0.33594 0.91221 0.69728 0.0
H511 H 0.34784 0.91258 0.70825 0.0
H512 H 0.38032 0.9091 0.74736 0.0
H513 H 0.37017 0.92076 0.74267 0.0
H514 H 0.40245 0.92579 0.74079 0.0
H515 H 0.39232 0.9374 0.73613 0.0
H516 H 0.37121 0.98041 0.72947 0.0
H517 H 0.34291 0.98294 0.73176 0.0
H518 H 0.34127 0.96722 0.72877 0.0
H519 H 0.3695 0.96463 0.72639 0.0
C520 C 0.0781 0.346 0.71139 0.0
C521 C 0.07038 0.34135 0.70929 0.0
C522 C 0.07842 0.33259 0.69847 0.0
C523 C 0.07054 0.33471 0.7029 0.0
C524 C 0.08617 0.33722 0.70069 0.0
C525 C 0.086 0.34388 0.70709 0.0
U526 U 0.06476 0.36021 0.7268 0.0
O527 O 0.06742 0.36508 0.74023 0.0
O528 O 0.06504 0.37446 0.72946 0.0
C529 C 0.06733 0.37339 0.73775 0.0
C530 C 0.07783 0.35317 0.71791 0.0
C531 C 0.0748 0.3788 0.74079 0.0
C532 C 0.08979 0.38426 0.73915 0.0
C533 C 0.08291 0.37877 0.73633 0.0
C534 C 0.08057 0.38969 0.75102 0.0
C535 C 0.08868 0.38982 0.74651 0.0
C536 C 0.0737 0.38423 0.74818 0.0
C537 C 0.03969 0.35517 0.72725 0.0
C538 C 0.02689 0.3646 0.7295 0.0
C539 C 0.02542 0.34874 0.73069 0.0
C540 C 0.0344 0.34777 0.72889 0.0
C541 C 0.02151 0.35715 0.73085 0.0
C542 C 0.03591 0.36362 0.72774 0.0
C543 C 0.04887 0.35378 0.72435 0.0
O544 O 0.07362 0.36029 0.71531 0.0
O545 O 0.07574 0.35076 0.72597 0.0
O546 O 0.05437 0.35065 0.73027 0.0
O547 O 0.05235 0.35995 0.71935 0.0
H548 H 0.06422 0.3429 0.71256 0.0
H549 H 0.06449 0.33119 0.70147 0.0
H550 H 0.09233 0.33582 0.69735 0.0
H551 H 0.09201 0.34743 0.70861 0.0
H552 H 0.09598 0.38413 0.73559 0.0
H553 H 0.08388 0.37458 0.73062 0.0
H554 H 0.07943 0.39397 0.75662 0.0
H555 H 0.06748 0.38434 0.75169 0.0
H556 H 0.0241 0.37117 0.72968 0.0
H557 H 0.02147 0.34285 0.73157 0.0
H558 H 0.03717 0.34119 0.7285 0.0
H559 H 0.03986 0.36945 0.72653 0.0
C560 C 0.65878 0.07776 0.7112 0.0
C561 C 0.66356 0.0701 0.70922 0.0
C562 C 0.67218 0.07813 0.69828 0.0
C563 C 0.6702 0.07028 0.70283 0.0
C564 C 0.66742 0.08582 0.70038 0.0
C565 C 0.66076 0.08563 0.70679 0.0
U566 U 0.64459 0.06435 0.72658 0.0
O567 O 0.63971 0.06696 0.74001 0.0
O568 O 0.63034 0.06458 0.72923 0.0
C569 C 0.6314 0.06687 0.73753 0.0
C570 C 0.6516 0.07746 0.71772 0.0
C571 C 0.62599 0.07432 0.74057 0.0
C572 C 0.62058 0.08934 0.73899 0.0
C573 C 0.62607 0.08246 0.73616 0.0
C574 C 0.61504 0.08006 0.75076 0.0
C575 C 0.61497 0.0882 0.7463 0.0
C576 C 0.6205 0.0732 0.74791 0.0
C577 C 0.64971 0.03929 0.72696 0.0
C578 C 0.64031 0.02649 0.7293 0.0
C579 C 0.65619 0.025 0.73025 0.0
C580 C 0.65713 0.03399 0.72847 0.0
C581 C 0.64777 0.0211 0.73052 0.0
C582 C 0.64127 0.03551 0.72755 0.0
C583 C 0.65107 0.04848 0.72409 0.0
O584 O 0.6445 0.07323 0.7151 0.0
O585 O 0.65401 0.07536 0.72578 0.0
O586 O 0.65419 0.05398 0.73002 0.0
O587 O 0.64489 0.05196 0.71909 0.0
H588 H 0.66212 0.06396 0.71258 0.0
H589 H 0.67382 0.06427 0.70148 0.0
H590 H 0.6687 0.09195 0.69694 0.0
H591 H 0.6571 0.0916 0.70822 0.0
H592 H 0.62076 0.09555 0.73547 0.0
H593 H 0.6303 0.08345 0.73049 0.0
H594 H 0.61072 0.0789 0.75633 0.0
H595 H 0.62034 0.06695 0.75138 0.0
H596 H 0.63374 0.02371 0.72956 0.0
H597 H 0.66208 0.02105 0.73103 0.0
H598 H 0.66371 0.03676 0.728 0.0
H599 H 0.63542 0.03948 0.72644 0.0
C600 C 0.92646 0.6585 0.71134 0.0
C601 C 0.93417 0.66314 0.70921 0.0
C602 C 0.9261 0.67189 0.69841 0.0
C603 C 0.934 0.66978 0.70282 0.0
C604 C 0.91836 0.66727 0.70065 0.0
C605 C 0.91855 0.66061 0.70705 0.0
U606 U 0.93982 0.64427 0.72673 0.0
O607 O 0.93718 0.63941 0.74016 0.0
O608 O 0.93952 0.63002 0.7294 0.0
C609 C 0.93724 0.63111 0.73769 0.0
C610 C 0.92674 0.65133 0.71787 0.0
C611 C 0.92976 0.62573 0.74074 0.0
C612 C 0.91472 0.62039 0.73915 0.0
C613 C 0.92163 0.62584 0.73632 0.0
C614 C 0.92398 0.6148 0.75092 0.0
C615 C 0.91583 0.61476 0.74646 0.0
C616 C 0.93086 0.62023 0.74808 0.0
C617 C 0.96491 0.64923 0.72713 0.0
C618 C 0.97766 0.63974 0.7294 0.0
C619 C 0.97921 0.65559 0.73055 0.0
C620 C 0.97023 0.6566 0.72875 0.0
C621 C 0.98308 0.64716 0.73073 0.0
C622 C 0.96865 0.64076 0.72763 0.0
C623 C 0.95573 0.65065 0.72424 0.0
O624 O 0.93094 0.64421 0.71526 0.0
O625 O 0.92886 0.65375 0.72592 0.0
O626 O 0.95025 0.65381 0.73017 0.0
O627 O 0.95221 0.6445 0.71924 0.0
H628 H 0.94034 0.6616 0.71247 0.0
H629 H 0.94004 0.67329 0.70136 0.0
H630 H 0.9122 0.66866 0.69732 0.0
H631 H 0.91254 0.65706 0.7086 0.0
H632 H 0.90851 0.62059 0.73563 0.0
H633 H 0.92065 0.63009 0.73066 0.0
H634 H 0.92511 0.61047 0.75648 0.0
H635 H 0.93711 0.62004 0.75155 0.0
H636 H 0.98042 0.63315 0.72959 0.0
H637 H 0.98319 0.66146 0.73142 0.0
H638 H 0.96749 0.66319 0.72835 0.0
H639 H 0.96466 0.63495 0.72644 0.0
C640 C 0.29264 0.34589 0.07778 0.0
C641 C 0.29472 0.34123 0.07006 0.0
C642 C 0.30555 0.33247 0.07807 0.0
C643 C 0.3011 0.33459 0.0702 0.0
C644 C 0.30336 0.3371 0.08582 0.0
C645 C 0.29697 0.34376 0.08566 0.0
U646 U 0.27721 0.36013 0.06449 0.0
O647 O 0.26379 0.36501 0.06718 0.0
O648 O 0.27457 0.37438 0.06478 0.0
C649 C 0.26628 0.37331 0.0671 0.0
C650 C 0.28612 0.35307 0.07753 0.0
C651 C 0.26327 0.37871 0.07458 0.0
C652 C 0.26493 0.38409 0.08959 0.0
C653 C 0.26772 0.37861 0.08269 0.0
C654 C 0.25311 0.38965 0.08038 0.0
C655 C 0.25761 0.38971 0.0885 0.0
C656 C 0.25592 0.3842 0.0735 0.0
C657 C 0.2767 0.35512 0.0394 0.0
C658 C 0.27451 0.36455 0.0266 0.0
C659 C 0.27315 0.3487 0.02516 0.0
C660 C 0.27497 0.34773 0.03414 0.0
C661 C 0.27307 0.35711 0.02124 0.0
C662 C 0.27629 0.36357 0.03561 0.0
C663 C 0.27962 0.35372 0.04858 0.0
O664 O 0.28872 0.36018 0.07332 0.0
O665 O 0.27806 0.35066 0.07545 0.0
O666 O 0.27371 0.35058 0.05409 0.0
O667 O 0.28464 0.35987 0.05206 0.0
H668 H 0.29143 0.34278 0.06391 0.0
H669 H 0.30252 0.33107 0.06415 0.0
H670 H 0.30672 0.33571 0.09196 0.0
H671 H 0.29546 0.34732 0.09168 0.0
H672 H 0.26848 0.3839 0.09579 0.0
H673 H 0.27339 0.37437 0.08365 0.0
H674 H 0.24754 0.39398 0.07926 0.0
H675 H 0.25242 0.38437 0.06727 0.0
H676 H 0.27439 0.37112 0.0238 0.0
H677 H 0.2722 0.34282 0.02122 0.0
H678 H 0.2753 0.34115 0.03691 0.0
H679 H 0.27756 0.36939 0.03955 0.0
C680 C 0.29288 0.65883 0.92621 0.0
C681 C 0.29462 0.66371 0.93387 0.0
C682 C 0.30551 0.67251 0.92597 0.0
C683 C 0.30086 0.67049 0.93375 0.0
C684 C 0.30363 0.66767 0.91827 0.0
C685 C 0.29737 0.66087 0.9184 0.0
U686 U 0.27778 0.6442 0.93948 0.0
O687 O 0.26473 0.63853 0.93666 0.0
O688 O 0.27595 0.62979 0.93945 0.0
C689 C 0.26769 0.63037 0.93687 0.0
C690 C 0.28664 0.65141 0.92648 0.0
C691 C 0.26511 0.62451 0.92951 0.0
C692 C 0.25886 0.62199 0.91492 0.0
C693 C 0.26157 0.62779 0.92159 0.0
C694 C 0.26333 0.60958 0.92392 0.0
C695 C 0.2597 0.61282 0.91602 0.0
C696 C 0.26597 0.61536 0.93059 0.0
C697 C 0.27661 0.64959 0.96445 0.0
C698 C 0.27422 0.64011 0.97717 0.0
C699 C 0.27306 0.65596 0.97871 0.0
C700 C 0.27494 0.65697 0.96975 0.0
C701 C 0.27284 0.64753 0.98258 0.0
C702 C 0.27607 0.64112 0.96818 0.0
C703 C 0.27958 0.65101 0.9553 0.0
O704 O 0.28945 0.64449 0.93087 0.0
O705 O 0.27844 0.65351 0.92836 0.0
O706 O 0.27359 0.65372 0.94965 0.0
O707 O 0.28497 0.64507 0.95201 0.0
H708 H 0.2912 0.66222 0.93997 0.0
H709 H 0.30204 0.67416 0.93976 0.0
H710 H 0.30714 0.66899 0.91219 0.0
H711 H 0.29613 0.65714 0.91244 0.0
H712 H 0.25616 0.62469 0.90888 0.0
H713 H 0.26084 0.63482 0.92056 0.0
H714 H 0.26396 0.60255 0.92503 0.0
H715 H 0.26862 0.61267 0.93666 0.0
H716 H 0.274 0.63352 0.97993 0.0
H717 H 0.27216 0.66183 0.98268 0.0
H718 H 0.27537 0.66356 0.96701 0.0
H719 H 0.27729 0.63531 0.9642 0.0
C720 C 0.34532 0.2921 0.92619 0.0
C721 C 0.34027 0.29365 0.93379 0.0
C722 C 0.33154 0.30462 0.92592 0.0
C723 C 0.33344 0.29984 0.93365 0.0
C724 C 0.33655 0.30292 0.91828 0.0
C725 C 0.3434 0.29672 0.91843 0.0
U726 U 0.36021 0.27733 0.93956 0.0
O727 O 0.36604 0.26432 0.93685 0.0
O728 O 0.37464 0.27568 0.93947 0.0
C729 C 0.37416 0.26739 0.93697 0.0
C730 C 0.35282 0.28595 0.9265 0.0
C731 C 0.38001 0.26482 0.92959 0.0
C732 C 0.38253 0.25825 0.91514 0.0
C733 C 0.37674 0.26094 0.92182 0.0
C734 C 0.39491 0.2634 0.92382 0.0
C735 C 0.39169 0.25944 0.91607 0.0
C736 C 0.38913 0.26603 0.9305 0.0
C737 C 0.35496 0.27638 0.96458 0.0
C738 C 0.3645 0.27437 0.97733 0.0
C739 C 0.34867 0.27287 0.97889 0.0
C740 C 0.34762 0.2746 0.9699 0.0
C741 C 0.35711 0.2729 0.98276 0.0
C742 C 0.36344 0.27608 0.96831 0.0
C743 C 0.35347 0.27922 0.9554 0.0
O744 O 0.35973 0.2889 0.93083 0.0
O745 O 0.35083 0.27775 0.92848 0.0
O746 O 0.3508 0.27313 0.94983 0.0
O747 O 0.35932 0.28465 0.95201 0.0
H748 H 0.34168 0.29014 0.93985 0.0
H749 H 0.32964 0.30087 0.93961 0.0
H750 H 0.33534 0.30655 0.91225 0.0
H751 H 0.34727 0.29563 0.91253 0.0
H752 H 0.37984 0.25528 0.90922 0.0
H753 H 0.36972 0.25993 0.92092 0.0
H754 H 0.40193 0.2643 0.9248 0.0
H755 H 0.39182 0.26894 0.93645 0.0
H756 H 0.37109 0.27434 0.98008 0.0
H757 H 0.34283 0.27189 0.98288 0.0
H758 H 0.34102 0.27485 0.96717 0.0
H759 H 0.36922 0.27738 0.96431 0.0
C760 C 0.71201 0.34587 0.92585 0.0
C761 C 0.70988 0.34124 0.93357 0.0
C762 C 0.69905 0.3325 0.92553 0.0
C763 C 0.70348 0.33461 0.93341 0.0
C764 C 0.7013 0.3371 0.91778 0.0
C765 C 0.70772 0.34375 0.91795 0.0
U766 U 0.72727 0.36007 0.93932 0.0
O767 O 0.74073 0.36497 0.93685 0.0
O768 O 0.72991 0.37432 0.93916 0.0
C769 C 0.73825 0.37328 0.93703 0.0
C770 C 0.71854 0.35304 0.92614 0.0
C771 C 0.7415 0.37888 0.9298 0.0
C772 C 0.74007 0.38516 0.91511 0.0
C773 C 0.73713 0.37932 0.92165 0.0
C774 C 0.75188 0.38996 0.92474 0.0
C775 C 0.74741 0.39065 0.91663 0.0
C776 C 0.74894 0.38414 0.93125 0.0
C777 C 0.7274 0.35506 0.96446 0.0
C778 C 0.72618 0.36297 0.9784 0.0
C779 C 0.7338 0.34896 0.97786 0.0
C780 C 0.73216 0.34841 0.9688 0.0
C781 C 0.73063 0.35614 0.98281 0.0
C782 C 0.72457 0.36244 0.96932 0.0
C783 C 0.72462 0.35367 0.9552 0.0
O784 O 0.7159 0.36017 0.9303 0.0
O785 O 0.72658 0.35063 0.92832 0.0
O786 O 0.73058 0.35051 0.94975 0.0
O787 O 0.71961 0.35977 0.95161 0.0
H788 H 0.71315 0.34279 0.93974 0.0
H789 H 0.70202 0.33112 0.93947 0.0
H790 H 0.69796 0.33571 0.91162 0.0
H791 H 0.70927 0.34729 0.91194 0.0
H792 H 0.73644 0.38556 0.90897 0.0
H793 H 0.73137 0.37528 0.92042 0.0
H794 H 0.75764 0.39397 0.92608 0.0
H795 H 0.75242 0.38385 0.93748 0.0
H796 H 0.72357 0.36855 0.98201 0.0
H797 H 0.73738 0.34364 0.98102 0.0
H798 H 0.73438 0.34263 0.96524 0.0
H799 H 0.72082 0.36767 0.96621 0.0
C800 C 0.65876 0.7115 0.92599 0.0
C801 C 0.66363 0.70975 0.93366 0.0
C802 C 0.67245 0.69889 0.92574 0.0
C803 C 0.67042 0.70351 0.93353 0.0
C804 C 0.66762 0.70079 0.91804 0.0
C805 C 0.66082 0.70704 0.91817 0.0
U806 U 0.64401 0.7265 0.93927 0.0
O807 O 0.63833 0.73955 0.93648 0.0
O808 O 0.6296 0.72831 0.93915 0.0
C809 C 0.63018 0.73657 0.9366 0.0
C810 C 0.65132 0.71773 0.92626 0.0
C811 C 0.62436 0.73916 0.92919 0.0
C812 C 0.62186 0.74606 0.91488 0.0
C813 C 0.62763 0.74333 0.92157 0.0
C814 C 0.6095 0.74038 0.92325 0.0
C815 C 0.61273 0.74462 0.91566 0.0
C816 C 0.61525 0.73772 0.92994 0.0
C817 C 0.64926 0.72752 0.96429 0.0
C818 C 0.63978 0.72959 0.97707 0.0
C819 C 0.65561 0.7311 0.97855 0.0
C820 C 0.65663 0.72932 0.96957 0.0
C821 C 0.6472 0.73109 0.98246 0.0
C822 C 0.6408 0.72784 0.96806 0.0
C823 C 0.65072 0.72462 0.95512 0.0
O824 O 0.64438 0.71488 0.9306 0.0
O825 O 0.6534 0.72592 0.92821 0.0
O826 O 0.65346 0.73065 0.94952 0.0
O827 O 0.64481 0.71924 0.95176 0.0
H828 H 0.66212 0.71315 0.93976 0.0
H829 H 0.67409 0.70232 0.93955 0.0
H830 H 0.66895 0.69729 0.91195 0.0
H831 H 0.65708 0.70828 0.91221 0.0
H832 H 0.62456 0.74924 0.90908 0.0
H833 H 0.63463 0.74454 0.92079 0.0
H834 H 0.6025 0.73929 0.92412 0.0
H835 H 0.61255 0.7346 0.93578 0.0
H836 H 0.6332 0.72964 0.97986 0.0
H837 H 0.66148 0.7321 0.98251 0.0
H838 H 0.66321 0.72906 0.96681 0.0
H839 H 0.635 0.72651 0.9641 0.0
C840 C 0.71186 0.65826 0.07769 0.0
C841 C 0.70978 0.66288 0.06995 0.0
C842 C 0.69899 0.67171 0.07795 0.0
C843 C 0.70341 0.66954 0.07008 0.0
C844 C 0.70118 0.66711 0.08571 0.0
C845 C 0.70756 0.66043 0.08557 0.0
U846 U 0.72725 0.64397 0.06441 0.0
O847 O 0.74067 0.63908 0.0671 0.0
O848 O 0.72988 0.62972 0.06472 0.0
C849 C 0.73817 0.63078 0.06703 0.0
C850 C 0.71836 0.65107 0.07746 0.0
C851 C 0.74118 0.62539 0.07452 0.0
C852 C 0.73953 0.62005 0.08955 0.0
C853 C 0.73674 0.62551 0.08264 0.0
C854 C 0.75132 0.61444 0.08033 0.0
C855 C 0.74684 0.61441 0.08846 0.0
C856 C 0.74851 0.61988 0.07344 0.0
C857 C 0.72774 0.64897 0.03933 0.0
C858 C 0.72995 0.63953 0.02654 0.0
C859 C 0.73123 0.65538 0.02506 0.0
C860 C 0.72942 0.65636 0.03404 0.0
C861 C 0.73135 0.64696 0.02116 0.0
C862 C 0.72818 0.64051 0.03556 0.0
C863 C 0.72483 0.65038 0.04851 0.0
O864 O 0.71575 0.64395 0.07326 0.0
O865 O 0.72643 0.65346 0.07537 0.0
O866 O 0.73076 0.65351 0.05401 0.0
O867 O 0.71981 0.64423 0.052 0.0
H868 H 0.71305 0.66129 0.0638 0.0
H869 H 0.70199 0.67303 0.06401 0.0
H870 H 0.69784 0.66855 0.09186 0.0
H871 H 0.70907 0.6569 0.0916 0.0
H872 H 0.73599 0.62025 0.09575 0.0
H873 H 0.73108 0.62977 0.0836 0.0
H874 H 0.75688 0.6101 0.07921 0.0
H875 H 0.752 0.61969 0.0672 0.0
H876 H 0.7301 0.63295 0.02376 0.0
H877 H 0.73214 0.66125 0.02111 0.0
H878 H 0.72907 0.66294 0.03681 0.0
H879 H 0.72694 0.6347 0.03951 0.0
C880 C 0.34494 0.71104 0.078 0.0
C881 C 0.34003 0.70933 0.07035 0.0
C882 C 0.33121 0.69847 0.07825 0.0
C883 C 0.33322 0.70312 0.07047 0.0
C884 C 0.33608 0.70032 0.08594 0.0
C885 C 0.3429 0.70654 0.08581 0.0
U886 U 0.3598 0.72599 0.06476 0.0
O887 O 0.36551 0.73903 0.0676 0.0
O888 O 0.37421 0.72776 0.06496 0.0
C889 C 0.37365 0.73602 0.06753 0.0
C890 C 0.3524 0.71724 0.07773 0.0
C891 C 0.37943 0.73858 0.07497 0.0
C892 C 0.38196 0.74589 0.08907 0.0
C893 C 0.37621 0.74318 0.08236 0.0
C894 C 0.39421 0.73936 0.08119 0.0
C895 C 0.39104 0.74403 0.08855 0.0
C896 C 0.38848 0.7367 0.07448 0.0
C897 C 0.35473 0.72711 0.03972 0.0
C898 C 0.36434 0.72921 0.02703 0.0
C899 C 0.34853 0.73087 0.02543 0.0
C900 C 0.34743 0.72902 0.03439 0.0
C901 C 0.35698 0.73082 0.0216 0.0
C902 C 0.36323 0.72739 0.03602 0.0
C903 C 0.35318 0.72418 0.04886 0.0
O904 O 0.35934 0.71436 0.07341 0.0
O905 O 0.35035 0.72544 0.07577 0.0
O906 O 0.35042 0.73019 0.05446 0.0
O907 O 0.35905 0.71876 0.05225 0.0
H908 H 0.34153 0.71275 0.06425 0.0
H909 H 0.32953 0.70197 0.06447 0.0
H910 H 0.33476 0.6968 0.09202 0.0
H911 H 0.34666 0.70775 0.09176 0.0
H912 H 0.3793 0.74942 0.09468 0.0
H913 H 0.36926 0.74475 0.08295 0.0
H914 H 0.40118 0.73793 0.08051 0.0
H915 H 0.39116 0.73326 0.06882 0.0
H916 H 0.37094 0.72922 0.0243 0.0
H917 H 0.34271 0.73195 0.02144 0.0
H918 H 0.34082 0.72879 0.0371 0.0
H919 H 0.36898 0.72599 0.04002 0.0
C920 C 0.65809 0.29244 0.07772 0.0
C921 C 0.66275 0.29458 0.07002 0.0
C922 C 0.67152 0.30534 0.07812 0.0
C923 C 0.66941 0.30095 0.07022 0.0
C924 C 0.66689 0.30309 0.08585 0.0
C925 C 0.66022 0.2967 0.08564 0.0
U926 U 0.64385 0.27712 0.0643 0.0
O927 O 0.63897 0.26369 0.0669 0.0
O928 O 0.6296 0.27448 0.06458 0.0
C929 C 0.63066 0.26618 0.06684 0.0
C930 C 0.65091 0.28593 0.07742 0.0
C931 C 0.62528 0.26313 0.07432 0.0
C932 C 0.62 0.26467 0.08938 0.0
C933 C 0.62545 0.2675 0.08247 0.0
C934 C 0.61431 0.25299 0.08009 0.0
C935 C 0.61432 0.2574 0.08825 0.0
C936 C 0.61974 0.25583 0.0732 0.0
C937 C 0.64889 0.27682 0.03921 0.0
C938 C 0.63949 0.27471 0.02638 0.0
C939 C 0.65535 0.27344 0.02494 0.0
C940 C 0.6563 0.27517 0.03394 0.0
C941 C 0.64695 0.27335 0.02101 0.0
C942 C 0.64045 0.27641 0.03541 0.0
C943 C 0.65027 0.27966 0.04842 0.0
O944 O 0.6438 0.28857 0.07322 0.0
O945 O 0.65332 0.27788 0.07528 0.0
O946 O 0.65341 0.2737 0.05388 0.0
O947 O 0.64411 0.28465 0.05193 0.0
H948 H 0.6612 0.29134 0.06384 0.0
H949 H 0.67292 0.30242 0.06418 0.0
H950 H 0.66828 0.30639 0.09203 0.0
H951 H 0.65666 0.29514 0.09164 0.0
H952 H 0.62024 0.26816 0.09561 0.0
H953 H 0.62973 0.27314 0.08347 0.0
H954 H 0.60994 0.24745 0.07894 0.0
H955 H 0.61951 0.25239 0.06694 0.0
H956 H 0.63292 0.27459 0.02357 0.0
H957 H 0.66124 0.27255 0.021 0.0
H958 H 0.66287 0.27551 0.03673 0.0
H959 H 0.63462 0.27762 0.03935 0.0
C960 C 0.92644 0.71183 0.65781 0.0
C961 C 0.93416 0.70972 0.66247 0.0
C962 C 0.92609 0.69895 0.67125 0.0
C963 C 0.93398 0.70335 0.66913 0.0
C964 C 0.91835 0.70117 0.66662 0.0
C965 C 0.91854 0.70755 0.65994 0.0
U966 U 0.93982 0.72719 0.64357 0.0
O967 O 0.93955 0.72983 0.62933 0.0
O968 O 0.93719 0.74062 0.63869 0.0
C969 C 0.93727 0.73813 0.63039 0.0
C970 C 0.92673 0.71834 0.65063 0.0
C971 C 0.9298 0.74116 0.62499 0.0
C972 C 0.91476 0.73957 0.61964 0.0
C973 C 0.92166 0.73675 0.6251 0.0
C974 C 0.92402 0.75133 0.61405 0.0
C975 C 0.91588 0.74688 0.614 0.0
C976 C 0.9309 0.74849 0.61948 0.0
C977 C 0.9649 0.72756 0.64865 0.0
C978 C 0.97775 0.72972 0.63926 0.0
C979 C 0.97917 0.73095 0.65513 0.0
C980 C 0.97017 0.7292 0.65607 0.0
C981 C 0.98311 0.73106 0.64673 0.0
C982 C 0.96871 0.728 0.64021 0.0
C983 C 0.9557 0.7247 0.65002 0.0
O984 O 0.92884 0.7264 0.65303 0.0
O985 O 0.93093 0.71572 0.64352 0.0
O986 O 0.95221 0.7197 0.64385 0.0
O987 O 0.95022 0.73064 0.65314 0.0
H988 H 0.94033 0.71298 0.66091 0.0
H989 H 0.94003 0.70191 0.67264 0.0
H990 H 0.91219 0.69784 0.66802 0.0
H991 H 0.91253 0.70909 0.65639 0.0
H992 H 0.90855 0.73605 0.61983 0.0
H993 H 0.92068 0.73109 0.62935 0.0
H994 H 0.92516 0.75689 0.60971 0.0
H995 H 0.93715 0.75196 0.6193 0.0
H996 H 0.98056 0.72986 0.6327 0.0
H997 H 0.9831 0.73183 0.66102 0.0
H998 H 0.96737 0.72884 0.66263 0.0
H999 H 0.96478 0.7268 0.63437 0.0
C1000 C 0.29217 0.92629 0.6585 0.0
C1001 C 0.29404 0.93393 0.66337 0.0
C1002 C 0.30503 0.92595 0.67197 0.0
C1003 C 0.3004 0.93376 0.67005 0.0
C1004 C 0.30305 0.91828 0.66712 0.0
C1005 C 0.29668 0.91846 0.66043 0.0
U1006 U 0.27691 0.9397 0.6442 0.0
O1007 O 0.27439 0.9395 0.62993 0.0
O1008 O 0.26352 0.93709 0.6392 0.0
C1009 C 0.26608 0.93721 0.63091 0.0
C1010 C 0.28572 0.92659 0.65127 0.0
C1011 C 0.2631 0.92976 0.62546 0.0
C1012 C 0.26479 0.91478 0.61998 0.0
C1013 C 0.26756 0.92165 0.6255 0.0
C1014 C 0.25297 0.92401 0.61446 0.0
C1015 C 0.25748 0.9159 0.61435 0.0
C1016 C 0.25576 0.93087 0.61996 0.0
C1017 C 0.27648 0.96475 0.64936 0.0
C1018 C 0.27416 0.97753 0.63993 0.0
C1019 C 0.27323 0.97905 0.6558 0.0
C1020 C 0.27498 0.97006 0.65677 0.0
C1021 C 0.27296 0.98294 0.64738 0.0
C1022 C 0.27589 0.9685 0.64091 0.0
C1023 C 0.27934 0.95555 0.65073 0.0
O1024 O 0.27764 0.92868 0.65362 0.0
O1025 O 0.28839 0.93083 0.6442 0.0
O1026 O 0.28439 0.95209 0.6446 0.0
O1027 O 0.27337 0.95006 0.65379 0.0
H1028 H 0.29062 0.94004 0.66196 0.0
H1029 H 0.30165 0.93975 0.67373 0.0
H1030 H 0.30655 0.91218 0.66836 0.0
H1031 H 0.29534 0.91251 0.65671 0.0
H1032 H 0.26835 0.9086 0.62013 0.0
H1033 H 0.27323 0.92067 0.62975 0.0
H1034 H 0.2474 0.92515 0.61013 0.0
H1035 H 0.25225 0.93709 0.61983 0.0
H1036 H 0.2739 0.9803 0.63335 0.0
H1037 H 0.27246 0.98303 0.66169 0.0
H1038 H 0.27546 0.96731 0.66335 0.0
H1039 H 0.27698 0.96452 0.63508 0.0
C1040 C 0.07798 0.2926 0.65793 0.0
C1041 C 0.07028 0.29472 0.66259 0.0
C1042 C 0.07836 0.3055 0.67135 0.0
C1043 C 0.07047 0.30109 0.66924 0.0
C1044 C 0.08609 0.30327 0.66671 0.0
C1045 C 0.0859 0.29688 0.66004 0.0
U1046 U 0.0646 0.27723 0.64371 0.0
O1047 O 0.06487 0.27457 0.62946 0.0
O1048 O 0.06723 0.2638 0.63884 0.0
C1049 C 0.06715 0.26627 0.63053 0.0
C1050 C 0.07769 0.28608 0.65075 0.0
C1051 C 0.07461 0.26323 0.62513 0.0
C1052 C 0.08963 0.26482 0.61973 0.0
C1053 C 0.08274 0.26765 0.6252 0.0
C1054 C 0.08038 0.25301 0.61422 0.0
C1055 C 0.08851 0.25749 0.61413 0.0
C1056 C 0.0735 0.25587 0.61966 0.0
C1057 C 0.03952 0.27683 0.64876 0.0
C1058 C 0.02669 0.27464 0.63935 0.0
C1059 C 0.02526 0.27339 0.6552 0.0
C1060 C 0.03424 0.27516 0.65616 0.0
C1061 C 0.02133 0.27327 0.6468 0.0
C1062 C 0.03572 0.27639 0.64031 0.0
C1063 C 0.04871 0.27971 0.65014 0.0
O1064 O 0.07558 0.27803 0.65317 0.0
O1065 O 0.07348 0.2887 0.64364 0.0
O1066 O 0.0522 0.28471 0.64397 0.0
O1067 O 0.0542 0.27378 0.65328 0.0
H1068 H 0.06411 0.29146 0.66105 0.0
H1069 H 0.06442 0.30254 0.67277 0.0
H1070 H 0.09226 0.30659 0.6681 0.0
H1071 H 0.0919 0.29534 0.65648 0.0
H1072 H 0.09584 0.26835 0.61989 0.0
H1073 H 0.08373 0.27333 0.62942 0.0
H1074 H 0.07923 0.24743 0.60992 0.0
H1075 H 0.06726 0.25238 0.61952 0.0
H1076 H 0.02389 0.2745 0.63278 0.0
H1077 H 0.02132 0.27248 0.66109 0.0
H1078 H 0.03703 0.27552 0.66273 0.0
H1079 H 0.03966 0.27762 0.63448 0.0
C1080 C 0.71213 0.07756 0.65769 0.0
C1081 C 0.71016 0.06994 0.66255 0.0
C1082 C 0.69926 0.07804 0.67114 0.0
C1083 C 0.70381 0.07018 0.66922 0.0
C1084 C 0.70135 0.0857 0.66632 0.0
C1085 C 0.70773 0.08545 0.65963 0.0
U1086 U 0.72737 0.0639 0.64367 0.0
O1087 O 0.72979 0.0637 0.62938 0.0
O1088 O 0.74071 0.06638 0.6385 0.0
C1089 C 0.73812 0.06596 0.63024 0.0
C1090 C 0.71857 0.07716 0.65045 0.0
C1091 C 0.74113 0.07314 0.62446 0.0
C1092 C 0.74065 0.0884 0.61952 0.0
C1093 C 0.73791 0.08177 0.62537 0.0
C1094 C 0.74992 0.07783 0.61192 0.0
C1095 C 0.74662 0.08647 0.61267 0.0
C1096 C 0.74719 0.07124 0.61776 0.0
C1097 C 0.72778 0.03899 0.64941 0.0
C1098 C 0.73029 0.02611 0.64017 0.0
C1099 C 0.73079 0.02473 0.65608 0.0
C1100 C 0.72905 0.03374 0.65691 0.0
C1101 C 0.73126 0.02077 0.6477 0.0
C1102 C 0.72858 0.03515 0.64101 0.0
C1103 C 0.72495 0.04821 0.65061 0.0
O1104 O 0.72667 0.07515 0.65282 0.0
O1105 O 0.7159 0.07278 0.64347 0.0
O1106 O 0.71986 0.05154 0.64443 0.0
O1107 O 0.73096 0.05377 0.65348 0.0
H1108 H 0.71351 0.06379 0.66115 0.0
H1109 H 0.70247 0.0642 0.67289 0.0
H1110 H 0.69792 0.09184 0.66757 0.0
H1111 H 0.70914 0.09138 0.65591 0.0
H1112 H 0.73794 0.09497 0.62024 0.0
H1113 H 0.73321 0.08335 0.63051 0.0
H1114 H 0.75463 0.07615 0.60682 0.0
H1115 H 0.74977 0.06462 0.61699 0.0
H1116 H 0.73072 0.02327 0.63363 0.0
H1117 H 0.73138 0.02082 0.66202 0.0
H1118 H 0.72842 0.03656 0.66344 0.0
H1119 H 0.72767 0.03908 0.63512 0.0
C1120 C 0.92658 0.29258 0.34605 0.0
C1121 C 0.93427 0.29464 0.34135 0.0
C1122 C 0.92623 0.30551 0.33266 0.0
C1123 C 0.9341 0.30104 0.33472 0.0
C1124 C 0.9185 0.30333 0.33734 0.0
C1125 C 0.91869 0.29692 0.34399 0.0
U1126 U 0.93996 0.27721 0.36028 0.0
O1127 O 0.93966 0.27454 0.37453 0.0
O1128 O 0.93733 0.26377 0.36514 0.0
C1129 C 0.93739 0.26624 0.37345 0.0
C1130 C 0.92687 0.28605 0.35323 0.0
C1131 C 0.92991 0.2632 0.37883 0.0
C1132 C 0.91485 0.26476 0.38412 0.0
C1133 C 0.92176 0.26759 0.37868 0.0
C1134 C 0.92412 0.25303 0.38976 0.0
C1135 C 0.91596 0.25747 0.38977 0.0
C1136 C 0.93101 0.25588 0.38434 0.0
C1137 C 0.96505 0.27684 0.35528 0.0
C1138 C 0.97784 0.27463 0.36473 0.0
C1139 C 0.97934 0.27344 0.34887 0.0
C1140 C 0.97035 0.27521 0.34789 0.0
C1141 C 0.98324 0.2733 0.35729 0.0
C1142 C 0.96882 0.27637 0.36374 0.0
C1143 C 0.95586 0.27971 0.35388 0.0
O1144 O 0.92899 0.278 0.35081 0.0
O1145 O 0.93106 0.28867 0.36035 0.0
O1146 O 0.95234 0.2847 0.36004 0.0
O1147 O 0.95038 0.27377 0.35073 0.0
H1148 H 0.94043 0.29134 0.34286 0.0
H1149 H 0.94013 0.30245 0.33117 0.0
H1150 H 0.91235 0.3067 0.33599 0.0
H1151 H 0.91269 0.29542 0.34758 0.0
H1152 H 0.90863 0.26827 0.3839 0.0
H1153 H 0.92078 0.27325 0.37442 0.0
H1154 H 0.92525 0.24748 0.39411 0.0
H1155 H 0.93726 0.25242 0.38455 0.0
H1156 H 0.98062 0.27446 0.3713 0.0
H1157 H 0.9833 0.27257 0.34299 0.0
H1158 H 0.96759 0.27559 0.34131 0.0
H1159 H 0.96486 0.27756 0.36956 0.0
C1160 C 0.71209 0.92627 0.34641 0.0
C1161 C 0.71009 0.93393 0.34164 0.0
C1162 C 0.69924 0.92588 0.33294 0.0
C1163 C 0.70374 0.93375 0.33496 0.0
C1164 C 0.70136 0.91818 0.33768 0.0
C1165 C 0.70772 0.91838 0.34438 0.0
U1166 U 0.72729 0.93982 0.36058 0.0
O1167 O 0.72973 0.93988 0.37486 0.0
O1168 O 0.74065 0.93732 0.36571 0.0
C1169 C 0.73806 0.93766 0.37397 0.0
C1170 C 0.71853 0.92661 0.35366 0.0
C1171 C 0.74113 0.93047 0.37971 0.0
C1172 C 0.74004 0.91547 0.3853 0.0
C1173 C 0.73728 0.92205 0.37942 0.0
C1174 C 0.75063 0.92562 0.39165 0.0
C1175 C 0.74668 0.91722 0.39157 0.0
C1176 C 0.74787 0.93217 0.38578 0.0
C1177 C 0.72766 0.96487 0.35511 0.0
C1178 C 0.72678 0.97883 0.36303 0.0
C1179 C 0.73373 0.97825 0.34866 0.0
C1180 C 0.73209 0.96919 0.34823 0.0
C1181 C 0.73088 0.98323 0.35596 0.0
C1182 C 0.72518 0.96975 0.36261 0.0
C1183 C 0.72485 0.9556 0.35386 0.0
O1184 O 0.72662 0.92867 0.35131 0.0
O1185 O 0.71585 0.93091 0.36069 0.0
O1186 O 0.71973 0.95216 0.35996 0.0
O1187 O 0.73083 0.95007 0.35088 0.0
H1188 H 0.71342 0.94009 0.34312 0.0
H1189 H 0.70238 0.93976 0.33136 0.0
H1190 H 0.69796 0.91204 0.33636 0.0
H1191 H 0.70917 0.91241 0.34803 0.0
H1192 H 0.73682 0.9091 0.38511 0.0
H1193 H 0.73205 0.92063 0.37476 0.0
H1194 H 0.75585 0.92715 0.39627 0.0
H1195 H 0.75094 0.93861 0.38606 0.0
H1196 H 0.72443 0.98246 0.36871 0.0
H1197 H 0.73703 0.9814 0.34317 0.0
H1198 H 0.73405 0.96561 0.34236 0.0
H1199 H 0.72171 0.96663 0.36802 0.0
C1200 C 0.07848 0.71127 0.34582 0.0
C1201 C 0.07073 0.70917 0.34122 0.0
C1202 C 0.07873 0.69841 0.33235 0.0
C1203 C 0.07085 0.70282 0.33455 0.0
C1204 C 0.0865 0.70062 0.33693 0.0
C1205 C 0.08637 0.707 0.34362 0.0
U1206 U 0.06518 0.72648 0.36027 0.0
O1207 O 0.06557 0.72904 0.37453 0.0
O1208 O 0.06778 0.73989 0.36521 0.0
C1209 C 0.06778 0.73736 0.3735 0.0
C1210 C 0.07825 0.71775 0.35303 0.0
C1211 C 0.07526 0.74042 0.37887 0.0
C1212 C 0.09025 0.73877 0.38435 0.0
C1213 C 0.08337 0.73594 0.37886 0.0
C1214 C 0.08104 0.75067 0.38973 0.0
C1215 C 0.08914 0.74613 0.3899 0.0
C1216 C 0.07418 0.74783 0.38428 0.0
C1217 C 0.03996 0.72674 0.35552 0.0
C1218 C 0.02603 0.72538 0.36342 0.0
C1219 C 0.02657 0.73326 0.34955 0.0
C1220 C 0.03562 0.73163 0.34897 0.0
C1221 C 0.02161 0.72996 0.35667 0.0
C1222 C 0.03511 0.72377 0.36285 0.0
C1223 C 0.04921 0.72394 0.35405 0.0
O1224 O 0.07606 0.7258 0.35069 0.0
O1225 O 0.07414 0.71507 0.36018 0.0
O1226 O 0.05284 0.71889 0.3601 0.0
O1227 O 0.05465 0.72989 0.35085 0.0
H1228 H 0.06457 0.71242 0.34283 0.0
H1229 H 0.06478 0.70138 0.33108 0.0
H1230 H 0.09266 0.6973 0.33547 0.0
H1231 H 0.0924 0.70852 0.34713 0.0
H1232 H 0.09643 0.73519 0.38424 0.0
H1233 H 0.08433 0.73023 0.37469 0.0
H1234 H 0.07992 0.75628 0.394 0.0
H1235 H 0.06796 0.75135 0.38438 0.0
H1236 H 0.02242 0.72267 0.36895 0.0
H1237 H 0.0234 0.73693 0.3443 0.0
H1238 H 0.03917 0.73395 0.34322 0.0
H1239 H 0.03823 0.71993 0.368 0.0
C1240 C 0.29233 0.07846 0.3463 0.0
C1241 C 0.29442 0.07078 0.34158 0.0
C1242 C 0.30523 0.07887 0.33287 0.0
C1243 C 0.30079 0.07099 0.33493 0.0
C1244 C 0.30303 0.08658 0.33756 0.0
C1245 C 0.29664 0.08637 0.34424 0.0
U1246 U 0.27713 0.06483 0.36037 0.0
O1247 O 0.27457 0.06475 0.37463 0.0
O1248 O 0.26371 0.06724 0.36539 0.0
C1249 C 0.26623 0.06691 0.37368 0.0
C1250 C 0.28585 0.0781 0.35351 0.0
C1251 C 0.26305 0.07408 0.37939 0.0
C1252 C 0.2642 0.08895 0.3853 0.0
C1253 C 0.26708 0.08242 0.37942 0.0
C1254 C 0.25314 0.07892 0.39099 0.0
C1255 C 0.25726 0.08723 0.39124 0.0
C1256 C 0.25602 0.07242 0.38514 0.0
C1257 C 0.27696 0.03987 0.3549 0.0
C1258 C 0.27454 0.02706 0.36426 0.0
C1259 C 0.27396 0.02556 0.34837 0.0
C1260 C 0.27567 0.03456 0.34745 0.0
C1261 C 0.27354 0.02166 0.35678 0.0
C1262 C 0.27621 0.0361 0.36334 0.0
C1263 C 0.27974 0.0491 0.35362 0.0
O1264 O 0.27779 0.076 0.35111 0.0
O1265 O 0.28851 0.07382 0.36056 0.0
O1266 O 0.28475 0.05254 0.3598 0.0
O1267 O 0.27371 0.05458 0.35063 0.0
H1268 H 0.29114 0.06461 0.34308 0.0
H1269 H 0.30221 0.06496 0.33136 0.0
H1270 H 0.30638 0.09274 0.33621 0.0
H1271 H 0.29513 0.09235 0.34784 0.0
H1272 H 0.26756 0.09525 0.38535 0.0
H1273 H 0.27253 0.08381 0.37502 0.0
H1274 H 0.24769 0.07742 0.39536 0.0
H1275 H 0.2528 0.06604 0.38517 0.0
H1276 H 0.27415 0.02428 0.37083 0.0
H1277 H 0.27335 0.02159 0.34246 0.0
H1278 H 0.27626 0.03734 0.34089 0.0
H1279 H 0.27714 0.04008 0.3692 0.0
C1280 C 0.65829 0.92608 0.71181 0.0
C1281 C 0.6631 0.93371 0.70976 0.0
C1282 C 0.67168 0.92559 0.69887 0.0
C1283 C 0.66974 0.93347 0.70338 0.0
C1284 C 0.6669 0.91792 0.70103 0.0
C1285 C 0.66024 0.91818 0.70744 0.0
U1286 U 0.64423 0.93974 0.72704 0.0
O1287 O 0.62998 0.93976 0.72966 0.0
O1288 O 0.63928 0.93733 0.74048 0.0
C1289 C 0.63098 0.93761 0.738 0.0
C1290 C 0.6511 0.92647 0.71831 0.0
C1291 C 0.62531 0.93043 0.74122 0.0
C1292 C 0.61941 0.91555 0.7401 0.0
C1293 C 0.62525 0.92211 0.73717 0.0
C1294 C 0.61384 0.92554 0.75126 0.0
C1295 C 0.61355 0.91724 0.74711 0.0
C1296 C 0.61965 0.93206 0.74833 0.0
C1297 C 0.6496 0.96473 0.72718 0.0
C1298 C 0.64024 0.97757 0.72946 0.0
C1299 C 0.65613 0.97902 0.73034 0.0
C1300 C 0.65704 0.97001 0.72862 0.0
C1301 C 0.64773 0.98295 0.73062 0.0
C1302 C 0.64117 0.96853 0.72778 0.0
C1303 C 0.65091 0.9555 0.72439 0.0
O1304 O 0.65352 0.9286 0.72636 0.0
O1305 O 0.64404 0.93074 0.71566 0.0
O1306 O 0.64472 0.95203 0.71941 0.0
O1307 O 0.65395 0.95004 0.7304 0.0
H1308 H 0.66168 0.93988 0.71309 0.0
H1309 H 0.67337 0.93946 0.70199 0.0
H1310 H 0.66816 0.91177 0.69763 0.0
H1311 H 0.65656 0.91223 0.70891 0.0
H1312 H 0.61932 0.90926 0.73672 0.0
H1313 H 0.62959 0.92074 0.73166 0.0
H1314 H 0.60954 0.92701 0.75676 0.0
H1315 H 0.61965 0.93843 0.75156 0.0
H1316 H 0.63368 0.98038 0.72973 0.0
H1317 H 0.66204 0.98296 0.73107 0.0
H1318 H 0.66361 0.96722 0.72814 0.0
H1319 H 0.63531 0.96458 0.72673 0.0
C1320 C 0.07789 0.65805 0.7116 0.0
C1321 C 0.07018 0.6627 0.70949 0.0
C1322 C 0.07824 0.67148 0.69871 0.0
C1323 C 0.07035 0.66936 0.70312 0.0
C1324 C 0.08598 0.66685 0.70093 0.0
C1325 C 0.0858 0.66017 0.70731 0.0
U1326 U 0.0645 0.64382 0.72695 0.0
O1327 O 0.06475 0.62957 0.72959 0.0
O1328 O 0.06713 0.63892 0.74038 0.0
C1329 C 0.06703 0.63062 0.73789 0.0
C1330 C 0.0776 0.65086 0.7181 0.0
C1331 C 0.07449 0.6252 0.74092 0.0
C1332 C 0.0895 0.61977 0.73931 0.0
C1333 C 0.08262 0.62526 0.73649 0.0
C1334 C 0.08024 0.61427 0.75112 0.0
C1335 C 0.08837 0.61417 0.74664 0.0
C1336 C 0.07338 0.61973 0.74828 0.0
C1337 C 0.03943 0.64892 0.72734 0.0
C1338 C 0.02659 0.63954 0.72952 0.0
C1339 C 0.02517 0.6554 0.73071 0.0
C1340 C 0.03416 0.65634 0.72896 0.0
C1341 C 0.02123 0.647 0.73085 0.0
C1342 C 0.03562 0.64048 0.7278 0.0
C1343 C 0.04863 0.65029 0.72447 0.0
O1344 O 0.0755 0.65326 0.72616 0.0
O1345 O 0.07339 0.64375 0.71548 0.0
O1346 O 0.05211 0.64412 0.71947 0.0
O1347 O 0.05412 0.6534 0.73042 0.0
H1348 H 0.06401 0.66115 0.71275 0.0
H1349 H 0.0643 0.67288 0.70168 0.0
H1350 H 0.09215 0.66825 0.6976 0.0
H1351 H 0.0918 0.65662 0.70884 0.0
H1352 H 0.0957 0.61993 0.73577 0.0
H1353 H 0.0836 0.62948 0.73081 0.0
H1354 H 0.0791 0.60996 0.7567 0.0
H1355 H 0.06714 0.61959 0.75177 0.0
H1356 H 0.02378 0.63297 0.72969 0.0
H1357 H 0.02123 0.6613 0.73158 0.0
H1358 H 0.03695 0.66291 0.72858 0.0
H1359 H 0.03956 0.63464 0.72661 0.0
C1360 C 0.34556 0.07776 0.71148 0.0
C1361 C 0.3408 0.07009 0.70946 0.0
C1362 C 0.33217 0.07814 0.69854 0.0
C1363 C 0.33416 0.07028 0.70306 0.0
C1364 C 0.33691 0.08584 0.70067 0.0
C1365 C 0.34356 0.08564 0.70708 0.0
U1366 U 0.35984 0.06437 0.72681 0.0
O1367 O 0.37409 0.0647 0.72946 0.0
O1368 O 0.36471 0.06699 0.74025 0.0
C1369 C 0.37301 0.06695 0.73777 0.0
C1370 C 0.35274 0.07746 0.71799 0.0
C1371 C 0.37838 0.07443 0.74083 0.0
C1372 C 0.38369 0.08948 0.7393 0.0
C1373 C 0.37825 0.08258 0.73645 0.0
C1374 C 0.38931 0.0802 0.75103 0.0
C1375 C 0.38933 0.08835 0.7466 0.0
C1376 C 0.38389 0.07331 0.74816 0.0
C1377 C 0.35494 0.03927 0.72717 0.0
C1378 C 0.36445 0.02651 0.72932 0.0
C1379 C 0.3486 0.02497 0.73065 0.0
C1380 C 0.34758 0.03395 0.72887 0.0
C1381 C 0.35703 0.0211 0.73073 0.0
C1382 C 0.36341 0.03553 0.72757 0.0
C1383 C 0.35349 0.04846 0.7243 0.0
O1384 O 0.35033 0.07531 0.72604 0.0
O1385 O 0.35987 0.07328 0.71536 0.0
O1386 O 0.35963 0.052 0.7193 0.0
O1387 O 0.35032 0.05392 0.73025 0.0
H1388 H 0.34226 0.06395 0.7128 0.0
H1389 H 0.33056 0.06427 0.70169 0.0
H1390 H 0.33562 0.09198 0.69726 0.0
H1391 H 0.34721 0.09161 0.70854 0.0
H1392 H 0.38348 0.09571 0.7358 0.0
H1393 H 0.374 0.08357 0.73079 0.0
H1394 H 0.39365 0.07905 0.75658 0.0
H1395 H 0.38409 0.06705 0.75161 0.0
H1396 H 0.37103 0.02375 0.72943 0.0
H1397 H 0.34274 0.021 0.73158 0.0
H1398 H 0.34098 0.0367 0.72854 0.0
H1399 H 0.36922 0.03951 0.72633 0.0
C1400 C 0.92667 0.34585 0.71174 0.0
C1401 C 0.93439 0.34121 0.70959 0.0
C1402 C 0.92629 0.33244 0.69883 0.0
C1403 C 0.9342 0.33457 0.70321 0.0
C1404 C 0.91855 0.33705 0.7011 0.0
C1405 C 0.91875 0.34371 0.70749 0.0
U1406 U 0.94007 0.36009 0.72709 0.0
O1407 O 0.93978 0.37433 0.72975 0.0
O1408 O 0.93746 0.36495 0.74052 0.0
C1409 C 0.93751 0.37325 0.73805 0.0
C1410 C 0.92697 0.35302 0.71826 0.0
C1411 C 0.93001 0.37862 0.74109 0.0
C1412 C 0.91493 0.38386 0.73954 0.0
C1413 C 0.92186 0.37843 0.73671 0.0
C1414 C 0.92421 0.38958 0.75122 0.0
C1415 C 0.91605 0.38954 0.7468 0.0
C1416 C 0.93112 0.38417 0.74838 0.0
C1417 C 0.96516 0.3551 0.72742 0.0
C1418 C 0.97795 0.36455 0.72961 0.0
C1419 C 0.97946 0.34869 0.7308 0.0
C1420 C 0.97047 0.34771 0.72904 0.0
C1421 C 0.98335 0.35711 0.73094 0.0
C1422 C 0.96893 0.36355 0.72789 0.0
C1423 C 0.95597 0.35369 0.72457 0.0
O1424 O 0.92911 0.35061 0.72631 0.0
O1425 O 0.93116 0.36014 0.71564 0.0
O1426 O 0.95245 0.35985 0.71958 0.0
O1427 O 0.9505 0.35054 0.73051 0.0
H1428 H 0.94057 0.34277 0.71282 0.0
H1429 H 0.94024 0.33107 0.70173 0.0
H1430 H 0.91237 0.33564 0.6978 0.0
H1431 H 0.91275 0.34725 0.70906 0.0
H1432 H 0.90871 0.3836 0.73605 0.0
H1433 H 0.92088 0.37414 0.73108 0.0
H1434 H 0.92535 0.39395 0.75675 0.0
H1435 H 0.93738 0.38442 0.75182 0.0
H1436 H 0.98073 0.37113 0.72978 0.0
H1437 H 0.98343 0.34282 0.73166 0.0
H1438 H 0.96771 0.34112 0.72867 0.0
H1439 H 0.96496 0.36937 0.7267 0.0
C1440 C 0.65828 0.07802 0.29279 0.0
C1441 C 0.66299 0.07034 0.29492 0.0
C1442 C 0.67174 0.07851 0.30565 0.0
C1443 C 0.66966 0.07059 0.30128 0.0
C1444 C 0.66705 0.08621 0.30341 0.0
C1445 C 0.66037 0.08595 0.29704 0.0
U1446 U 0.64406 0.06451 0.27751 0.0
O1447 O 0.6298 0.06473 0.2749 0.0
O1448 O 0.63914 0.06708 0.26409 0.0
C1449 C 0.63084 0.06699 0.26659 0.0
C1450 C 0.65108 0.07766 0.2863 0.0
C1451 C 0.62541 0.07443 0.26354 0.0
C1452 C 0.61997 0.08943 0.26509 0.0
C1453 C 0.62547 0.08257 0.26793 0.0
C1454 C 0.61445 0.08013 0.25334 0.0
C1455 C 0.61435 0.08827 0.25778 0.0
C1456 C 0.61992 0.07328 0.2562 0.0
C1457 C 0.64919 0.03945 0.2772 0.0
C1458 C 0.63981 0.02661 0.27504 0.0
C1459 C 0.65568 0.02519 0.27383 0.0
C1460 C 0.65661 0.03419 0.27557 0.0
C1461 C 0.64728 0.02125 0.27371 0.0
C1462 C 0.64075 0.03564 0.27675 0.0
C1463 C 0.65055 0.04866 0.28003 0.0
O1464 O 0.65348 0.07553 0.27824 0.0
O1465 O 0.644 0.07344 0.28895 0.0
O1466 O 0.64439 0.05215 0.28504 0.0
O1467 O 0.65365 0.05413 0.27407 0.0
H1468 H 0.66147 0.06415 0.29169 0.0
H1469 H 0.67322 0.06457 0.30274 0.0
H1470 H 0.66842 0.09239 0.30671 0.0
H1471 H 0.65677 0.09193 0.29549 0.0
H1472 H 0.62013 0.09565 0.26861 0.0
H1473 H 0.6297 0.08358 0.2736 0.0
H1474 H 0.61012 0.07896 0.24778 0.0
H1475 H 0.61977 0.06703 0.25274 0.0
H1476 H 0.63325 0.02379 0.27489 0.0
H1477 H 0.66158 0.02126 0.27296 0.0
H1478 H 0.66318 0.03698 0.27593 0.0
H1479 H 0.63491 0.03957 0.27794 0.0
C1480 C 0.92641 0.65829 0.29295 0.0
C1481 C 0.9341 0.66298 0.29506 0.0
C1482 C 0.92599 0.67169 0.30587 0.0
C1483 C 0.93389 0.66962 0.30145 0.0
C1484 C 0.91827 0.66702 0.30364 0.0
C1485 C 0.91849 0.66036 0.29723 0.0
U1486 U 0.93983 0.64406 0.2776 0.0
O1487 O 0.93955 0.62981 0.27495 0.0
O1488 O 0.93721 0.63919 0.26416 0.0
C1489 C 0.93728 0.63088 0.26665 0.0
C1490 C 0.92673 0.65111 0.28643 0.0
C1491 C 0.92981 0.62549 0.26361 0.0
C1492 C 0.91475 0.62018 0.26516 0.0
C1493 C 0.92166 0.62564 0.26799 0.0
C1494 C 0.92404 0.61453 0.25346 0.0
C1495 C 0.91589 0.61452 0.25788 0.0
C1496 C 0.93093 0.61996 0.2563 0.0
C1497 C 0.96491 0.64906 0.2772 0.0
C1498 C 0.97768 0.63959 0.27495 0.0
C1499 C 0.9792 0.65544 0.27375 0.0
C1500 C 0.97022 0.65644 0.27556 0.0
C1501 C 0.98308 0.64702 0.27359 0.0
C1502 C 0.96867 0.64059 0.27672 0.0
C1503 C 0.95573 0.65047 0.28009 0.0
O1504 O 0.92885 0.65353 0.27838 0.0
O1505 O 0.93093 0.644 0.28906 0.0
O1506 O 0.95222 0.64432 0.28509 0.0
O1507 O 0.95025 0.65362 0.27415 0.0
H1508 H 0.94027 0.66147 0.2918 0.0
H1509 H 0.93992 0.67317 0.3029 0.0
H1510 H 0.9121 0.66838 0.30697 0.0
H1511 H 0.9125 0.65678 0.2957 0.0
H1512 H 0.90853 0.6204 0.26866 0.0
H1513 H 0.92066 0.62991 0.27363 0.0
H1514 H 0.9252 0.61017 0.24792 0.0
H1515 H 0.93719 0.61975 0.25285 0.0
H1516 H 0.98045 0.63301 0.27477 0.0
H1517 H 0.98317 0.66131 0.27286 0.0
H1518 H 0.96747 0.66303 0.27594 0.0
H1519 H 0.9647 0.63478 0.27793 0.0
C1520 C 0.34576 0.92628 0.29273 0.0
C1521 C 0.3411 0.93399 0.29481 0.0
C1522 C 0.33238 0.92597 0.30568 0.0
C1523 C 0.33446 0.93384 0.30121 0.0
C1524 C 0.33703 0.91823 0.30348 0.0
C1525 C 0.34367 0.9184 0.29707 0.0
U1526 U 0.36017 0.93961 0.27746 0.0
O1527 O 0.37441 0.93915 0.2748 0.0
O1528 O 0.365 0.93703 0.26401 0.0
C1529 C 0.37331 0.93696 0.26648 0.0
C1530 C 0.35294 0.92655 0.2862 0.0
C1531 C 0.37861 0.92945 0.26338 0.0
C1532 C 0.38386 0.91438 0.26488 0.0
C1533 C 0.37845 0.9213 0.26775 0.0
C1534 C 0.38947 0.92365 0.25314 0.0
C1535 C 0.38948 0.91549 0.25757 0.0
C1536 C 0.38409 0.93055 0.25603 0.0
C1537 C 0.35552 0.96486 0.27729 0.0
C1538 C 0.3633 0.97884 0.27885 0.0
C1539 C 0.34967 0.97821 0.27056 0.0
C1540 C 0.34909 0.96916 0.2722 0.0
C1541 C 0.35666 0.98321 0.27406 0.0
C1542 C 0.36273 0.96977 0.28046 0.0
C1543 C 0.35404 0.95561 0.28008 0.0
O1544 O 0.35054 0.92877 0.27817 0.0
O1545 O 0.36011 0.93063 0.28885 0.0
O1546 O 0.36011 0.95194 0.28507 0.0
O1547 O 0.35077 0.95019 0.27414 0.0
H1548 H 0.34262 0.94015 0.29151 0.0
H1549 H 0.33094 0.93989 0.30263 0.0
H1550 H 0.33566 0.91209 0.30686 0.0
H1551 H 0.34724 0.91239 0.29556 0.0
H1552 H 0.38363 0.90815 0.26838 0.0
H1553 H 0.37422 0.92032 0.27343 0.0
H1554 H 0.3938 0.92478 0.24757 0.0
H1555 H 0.38431 0.93681 0.25258 0.0
H1556 H 0.36873 0.98248 0.28172 0.0
H1557 H 0.34452 0.98134 0.26673 0.0
H1558 H 0.34343 0.96557 0.26972 0.0
H1559 H 0.36778 0.96669 0.28448 0.0
C1560 C 0.07847 0.34595 0.29293 0.0
C1561 C 0.07075 0.34129 0.295 0.0
C1562 C 0.07876 0.33251 0.30582 0.0
C1563 C 0.07089 0.33463 0.30137 0.0
C1564 C 0.08651 0.33715 0.30364 0.0
C1565 C 0.08635 0.34383 0.29725 0.0
U1566 U 0.06508 0.36018 0.27761 0.0
O1567 O 0.0653 0.37443 0.27499 0.0
O1568 O 0.06767 0.36509 0.26418 0.0
C1569 C 0.06756 0.37339 0.26668 0.0
C1570 C 0.0782 0.35315 0.28644 0.0
C1571 C 0.07499 0.37884 0.26363 0.0
C1572 C 0.08996 0.38437 0.26524 0.0
C1573 C 0.08311 0.37885 0.26807 0.0
C1574 C 0.08069 0.38976 0.25339 0.0
C1575 C 0.08881 0.38994 0.25789 0.0
C1576 C 0.07385 0.38427 0.25625 0.0
C1577 C 0.04002 0.35504 0.27728 0.0
C1578 C 0.02721 0.36444 0.275 0.0
C1579 C 0.02573 0.34856 0.27404 0.0
C1580 C 0.03472 0.34762 0.27578 0.0
C1581 C 0.02182 0.35698 0.2738 0.0
C1582 C 0.03624 0.36348 0.27671 0.0
C1583 C 0.04923 0.35369 0.28012 0.0
O1584 O 0.0761 0.35075 0.27837 0.0
O1585 O 0.07399 0.36025 0.28907 0.0
O1586 O 0.05271 0.35985 0.28512 0.0
O1587 O 0.05471 0.35059 0.27416 0.0
H1588 H 0.06459 0.34284 0.29171 0.0
H1589 H 0.06484 0.33111 0.30278 0.0
H1590 H 0.09266 0.33575 0.30699 0.0
H1591 H 0.09237 0.34739 0.29575 0.0
H1592 H 0.09616 0.38427 0.26879 0.0
H1593 H 0.08412 0.37466 0.27377 0.0
H1594 H 0.07952 0.39404 0.24779 0.0
H1595 H 0.06762 0.38436 0.25275 0.0
H1596 H 0.02442 0.37101 0.27476 0.0
H1597 H 0.02177 0.34267 0.27327 0.0
H1598 H 0.0375 0.34105 0.27623 0.0
H1599 H 0.04021 0.36932 0.2778 0.0
C1600 C 0.71243 0.65833 0.92631 0.0
C1601 C 0.71052 0.66318 0.93395 0.0
C1602 C 0.69963 0.67185 0.92591 0.0
C1603 C 0.70419 0.66988 0.93376 0.0
C1604 C 0.70166 0.66703 0.91824 0.0
C1605 C 0.708 0.66031 0.91845 0.0
U1606 U 0.7276 0.64395 0.93975 0.0
O1607 O 0.73008 0.62967 0.93951 0.0
O1608 O 0.74098 0.6389 0.93716 0.0
C1609 C 0.73839 0.63063 0.93724 0.0
C1610 C 0.71886 0.65108 0.92663 0.0
C1611 C 0.74137 0.62519 0.92978 0.0
C1612 C 0.73971 0.61981 0.91476 0.0
C1613 C 0.73694 0.62531 0.92165 0.0
C1614 C 0.75146 0.61418 0.924 0.0
C1615 C 0.74698 0.61414 0.91587 0.0
C1616 C 0.74868 0.61965 0.93088 0.0
C1617 C 0.72799 0.64901 0.96482 0.0
C1618 C 0.73011 0.63955 0.97761 0.0
C1619 C 0.73138 0.6554 0.97912 0.0
C1620 C 0.72964 0.65639 0.97012 0.0
C1621 C 0.73147 0.64698 0.98301 0.0
C1622 C 0.72841 0.64055 0.96859 0.0
C1623 C 0.72516 0.65043 0.95562 0.0
O1624 O 0.72694 0.6534 0.92875 0.0
O1625 O 0.71615 0.64401 0.93084 0.0
O1626 O 0.72009 0.64433 0.95212 0.0
O1627 O 0.73115 0.65348 0.95015 0.0
H1628 H 0.71389 0.66174 0.94009 0.0
H1629 H 0.7029 0.67354 0.93975 0.0
H1630 H 0.69821 0.66831 0.91212 0.0
H1631 H 0.70938 0.65661 0.9125 0.0
H1632 H 0.73617 0.62002 0.90856 0.0
H1633 H 0.7313 0.62959 0.92067 0.0
H1634 H 0.757 0.60981 0.92514 0.0
H1635 H 0.75217 0.61946 0.93711 0.0
H1636 H 0.73024 0.63297 0.98039 0.0
H1637 H 0.73227 0.66128 0.98308 0.0
H1638 H 0.7293 0.66298 0.96736 0.0
H1639 H 0.72719 0.63474 0.96462 0.0
C1640 C 0.71152 0.34588 0.07793 0.0
C1641 C 0.70941 0.34125 0.0702 0.0
C1642 C 0.69863 0.33244 0.07823 0.0
C1643 C 0.70304 0.33459 0.07035 0.0
C1644 C 0.70084 0.33705 0.08599 0.0
C1645 C 0.70723 0.34372 0.08583 0.0
U1646 U 0.72686 0.3602 0.06462 0.0
O1647 O 0.72945 0.37445 0.06494 0.0
O1648 O 0.74027 0.36512 0.06728 0.0
C1649 C 0.73775 0.37341 0.06722 0.0
C1650 C 0.71802 0.35307 0.07767 0.0
C1651 C 0.74077 0.37881 0.0747 0.0
C1652 C 0.73905 0.38428 0.08968 0.0
C1653 C 0.73627 0.37878 0.08279 0.0
C1654 C 0.75095 0.38972 0.08051 0.0
C1655 C 0.74639 0.38986 0.0886 0.0
C1656 C 0.74815 0.38425 0.07364 0.0
C1657 C 0.72728 0.35526 0.03944 0.0
C1658 C 0.7261 0.3631 0.02546 0.0
C1659 C 0.73377 0.34912 0.0261 0.0
C1660 C 0.73209 0.34861 0.03515 0.0
C1661 C 0.73059 0.35626 0.0211 0.0
C1662 C 0.72444 0.3626 0.03453 0.0
C1663 C 0.72442 0.35387 0.04868 0.0
O1664 O 0.72608 0.35069 0.07555 0.0
O1665 O 0.71538 0.3602 0.0735 0.0
O1666 O 0.71936 0.35996 0.05222 0.0
O1667 O 0.73033 0.3507 0.05418 0.0
H1668 H 0.71268 0.34282 0.06404 0.0
H1669 H 0.70161 0.3311 0.06429 0.0
H1670 H 0.69751 0.33563 0.09214 0.0
H1671 H 0.70876 0.34726 0.09184 0.0
H1672 H 0.73545 0.38416 0.09585 0.0
H1673 H 0.73056 0.37458 0.08374 0.0
H1674 H 0.75655 0.39402 0.0794 0.0
H1675 H 0.75169 0.38437 0.06743 0.0
H1676 H 0.72348 0.36865 0.02181 0.0
H1677 H 0.73738 0.3438 0.02299 0.0
H1678 H 0.73431 0.34285 0.03875 0.0
H1679 H 0.72066 0.36782 0.0376 0.0
C1680 C 0.65858 0.71184 0.07731 0.0
C1681 C 0.66323 0.70967 0.06961 0.0
C1682 C 0.67196 0.6989 0.07775 0.0
C1683 C 0.66986 0.70327 0.06983 0.0
C1684 C 0.66732 0.70118 0.08547 0.0
C1685 C 0.66068 0.70759 0.08524 0.0
U1686 U 0.64435 0.7272 0.06389 0.0
O1687 O 0.63011 0.72989 0.06422 0.0
O1688 O 0.63952 0.74065 0.06651 0.0
C1689 C 0.6312 0.73819 0.06648 0.0
C1690 C 0.65142 0.71838 0.07699 0.0
C1691 C 0.62587 0.74124 0.07399 0.0
C1692 C 0.6207 0.73972 0.08909 0.0
C1693 C 0.6261 0.73689 0.08215 0.0
C1694 C 0.61492 0.75138 0.07981 0.0
C1695 C 0.615 0.74698 0.08799 0.0
C1696 C 0.6203 0.74853 0.07289 0.0
C1697 C 0.64926 0.72753 0.03879 0.0
C1698 C 0.63978 0.72962 0.026 0.0
C1699 C 0.65563 0.73104 0.02451 0.0
C1700 C 0.65663 0.72927 0.0335 0.0
C1701 C 0.64721 0.73107 0.02061 0.0
C1702 C 0.64079 0.72789 0.03502 0.0
C1703 C 0.65069 0.72467 0.04798 0.0
O1704 O 0.65385 0.72641 0.07484 0.0
O1705 O 0.64429 0.71576 0.07281 0.0
O1706 O 0.64454 0.71968 0.05152 0.0
O1707 O 0.65387 0.7306 0.05344 0.0
H1708 H 0.6617 0.7129 0.06343 0.0
H1709 H 0.67338 0.70178 0.06379 0.0
H1710 H 0.6687 0.69788 0.09165 0.0
H1711 H 0.65712 0.70917 0.09123 0.0
H1712 H 0.62099 0.73624 0.09533 0.0
H1713 H 0.6304 0.73126 0.08313 0.0
H1714 H 0.61053 0.7569 0.07868 0.0
H1715 H 0.62002 0.75195 0.06662 0.0
H1716 H 0.63321 0.7297 0.02322 0.0
H1717 H 0.66149 0.732 0.02055 0.0
H1718 H 0.66321 0.72898 0.03626 0.0
H1719 H 0.63499 0.72661 0.03898 0.0
C1720 C 0.29108 0.65806 0.07759 0.0
C1721 C 0.29297 0.66298 0.06999 0.0
C1722 C 0.30392 0.67154 0.07805 0.0
C1723 C 0.29931 0.66966 0.07022 0.0
C1724 C 0.30192 0.66665 0.08569 0.0
C1725 C 0.29555 0.65995 0.08545 0.0
U1726 U 0.276 0.64386 0.06393 0.0
O1727 O 0.27358 0.62957 0.06387 0.0
O1728 O 0.26263 0.63872 0.06635 0.0
C1729 C 0.26523 0.63045 0.06604 0.0
C1730 C 0.28466 0.6508 0.0772 0.0
C1731 C 0.26213 0.62474 0.07324 0.0
C1732 C 0.26333 0.61896 0.08816 0.0
C1733 C 0.26614 0.62483 0.08159 0.0
C1734 C 0.25239 0.61302 0.07815 0.0
C1735 C 0.25649 0.6129 0.08647 0.0
C1736 C 0.25519 0.61888 0.07161 0.0
C1737 C 0.27579 0.64928 0.03895 0.0
C1738 C 0.27364 0.63991 0.0261 0.0
C1739 C 0.27261 0.65579 0.02466 0.0
C1740 C 0.27428 0.65671 0.03367 0.0
C1741 C 0.27243 0.64739 0.02072 0.0
C1742 C 0.27528 0.64085 0.03514 0.0
C1743 C 0.27855 0.65061 0.04818 0.0
O1744 O 0.27658 0.65313 0.07509 0.0
O1745 O 0.28739 0.64378 0.07292 0.0
O1746 O 0.28362 0.64448 0.05164 0.0
O1747 O 0.2725 0.65355 0.05365 0.0
H1748 H 0.28957 0.66161 0.06385 0.0
H1749 H 0.30059 0.67338 0.06425 0.0
H1750 H 0.3054 0.66785 0.09181 0.0
H1751 H 0.2942 0.65618 0.09137 0.0
H1752 H 0.26668 0.619 0.09447 0.0
H1753 H 0.27152 0.62933 0.08296 0.0
H1754 H 0.247 0.60857 0.07668 0.0
H1755 H 0.25199 0.61875 0.06522 0.0
H1756 H 0.27345 0.63335 0.02328 0.0
H1757 H 0.27183 0.66169 0.02071 0.0
H1758 H 0.27469 0.66328 0.03647 0.0
H1759 H 0.27638 0.635 0.03909 0.0
C1760 C 0.34613 0.29251 0.07754 0.0
C1761 C 0.34145 0.29461 0.06985 0.0
C1762 C 0.33269 0.30539 0.07795 0.0
C1763 C 0.33478 0.30098 0.07005 0.0
C1764 C 0.33736 0.30318 0.08567 0.0
C1765 C 0.34404 0.29679 0.08546 0.0
U1766 U 0.36037 0.27715 0.06415 0.0
O1767 O 0.37463 0.27453 0.06441 0.0
O1768 O 0.36529 0.26374 0.0668 0.0
C1769 C 0.37359 0.26624 0.06671 0.0
C1770 C 0.35333 0.28601 0.07724 0.0
C1771 C 0.379 0.26323 0.07418 0.0
C1772 C 0.38442 0.26489 0.08918 0.0
C1773 C 0.37894 0.26768 0.08229 0.0
C1774 C 0.38995 0.25306 0.07996 0.0
C1775 C 0.39004 0.25757 0.08808 0.0
C1776 C 0.38449 0.25588 0.07309 0.0
C1777 C 0.35532 0.27668 0.03908 0.0
C1778 C 0.36473 0.27455 0.02625 0.0
C1779 C 0.34888 0.27312 0.02485 0.0
C1780 C 0.34792 0.27492 0.03383 0.0
C1781 C 0.35728 0.27308 0.02091 0.0
C1782 C 0.36376 0.27632 0.03527 0.0
C1783 C 0.35392 0.27958 0.04827 0.0
O1784 O 0.35092 0.27795 0.07514 0.0
O1785 O 0.36042 0.28863 0.07301 0.0
O1786 O 0.36007 0.28461 0.05175 0.0
O1787 O 0.3508 0.27365 0.05377 0.0
H1788 H 0.34297 0.29135 0.06368 0.0
H1789 H 0.33124 0.30242 0.06402 0.0
H1790 H 0.33598 0.3065 0.09183 0.0
H1791 H 0.34762 0.29527 0.09145 0.0
H1792 H 0.38426 0.26844 0.09537 0.0
H1793 H 0.3747 0.27336 0.08326 0.0
H1794 H 0.39427 0.24749 0.07883 0.0
H1795 H 0.38464 0.25237 0.06686 0.0
H1796 H 0.37129 0.27447 0.02344 0.0
H1797 H 0.34299 0.27214 0.02092 0.0
H1798 H 0.34135 0.27521 0.03662 0.0
H1799 H 0.36959 0.27761 0.0392 0.0
C1800 C 0.29193 0.34552 0.92642 0.0
C1801 C 0.29351 0.34043 0.93398 0.0
C1802 C 0.30444 0.33173 0.92603 0.0
C1803 C 0.29969 0.3336 0.93379 0.0
C1804 C 0.30272 0.33678 0.91842 0.0
C1805 C 0.29652 0.34363 0.91863 0.0
U1806 U 0.27722 0.36032 0.93992 0.0
O1807 O 0.27557 0.37475 0.93994 0.0
O1808 O 0.2642 0.36617 0.9373 0.0
C1809 C 0.26727 0.37428 0.93749 0.0
C1810 C 0.28579 0.35302 0.92679 0.0
C1811 C 0.26466 0.38017 0.93018 0.0
C1812 C 0.25905 0.3827 0.91534 0.0
C1813 C 0.26174 0.3769 0.92201 0.0
C1814 C 0.2623 0.39511 0.92485 0.0
C1815 C 0.2593 0.39188 0.91669 0.0
C1816 C 0.26493 0.38932 0.93151 0.0
C1817 C 0.27635 0.35493 0.9649 0.0
C1818 C 0.2743 0.36443 0.97767 0.0
C1819 C 0.27291 0.34859 0.97921 0.0
C1820 C 0.27463 0.34757 0.97022 0.0
C1821 C 0.27288 0.35702 0.98309 0.0
C1822 C 0.27599 0.3634 0.96865 0.0
C1823 C 0.27916 0.35347 0.95571 0.0
O1824 O 0.27759 0.35102 0.92878 0.0
O1825 O 0.28876 0.35989 0.93115 0.0
O1826 O 0.28459 0.35934 0.95234 0.0
O1827 O 0.27306 0.35084 0.95015 0.0
H1828 H 0.29002 0.34181 0.94006 0.0
H1829 H 0.30075 0.32977 0.93972 0.0
H1830 H 0.30632 0.33559 0.91237 0.0
H1831 H 0.29542 0.34753 0.91274 0.0
H1832 H 0.25684 0.38002 0.9091 0.0
H1833 H 0.26151 0.36986 0.92078 0.0
H1834 H 0.26246 0.40213 0.92615 0.0
H1835 H 0.26711 0.39199 0.93777 0.0
H1836 H 0.27423 0.37101 0.98044 0.0
H1837 H 0.27197 0.34273 0.98318 0.0
H1838 H 0.27491 0.34098 0.96747 0.0
H1839 H 0.27725 0.36919 0.96466 0.0
C1840 C 0.6584 0.29261 0.92614 0.0
C1841 C 0.66307 0.29476 0.93383 0.0
C1842 C 0.67185 0.30549 0.92569 0.0
C1843 C 0.66973 0.30113 0.93361 0.0
C1844 C 0.6672 0.30323 0.91797 0.0
C1845 C 0.66052 0.29685 0.9182 0.0
U1846 U 0.64412 0.27733 0.93959 0.0
O1847 O 0.62987 0.2747 0.9393 0.0
O1848 O 0.63924 0.2639 0.93701 0.0
C1849 C 0.63093 0.26639 0.93706 0.0
C1850 C 0.65121 0.28611 0.92647 0.0
C1851 C 0.62554 0.26332 0.9296 0.0
C1852 C 0.62019 0.26484 0.91456 0.0
C1853 C 0.62565 0.2677 0.92145 0.0
C1854 C 0.61462 0.2531 0.92386 0.0
C1855 C 0.61457 0.25753 0.9157 0.0
C1856 C 0.62005 0.25598 0.93073 0.0
C1857 C 0.6491 0.27702 0.96467 0.0
C1858 C 0.63963 0.27484 0.97745 0.0
C1859 C 0.65548 0.2736 0.97897 0.0
C1860 C 0.65648 0.27537 0.96999 0.0
C1861 C 0.64706 0.27347 0.98286 0.0
C1862 C 0.64064 0.27658 0.96843 0.0
C1863 C 0.65052 0.27987 0.95548 0.0
O1864 O 0.65361 0.27807 0.92862 0.0
O1865 O 0.6441 0.28876 0.93065 0.0
O1866 O 0.64438 0.28487 0.95195 0.0
O1867 O 0.65367 0.27391 0.95002 0.0
H1868 H 0.66152 0.29154 0.94002 0.0
H1869 H 0.67326 0.3026 0.93964 0.0
H1870 H 0.66859 0.30652 0.91179 0.0
H1871 H 0.65695 0.29529 0.91221 0.0
H1872 H 0.62038 0.26834 0.90834 0.0
H1873 H 0.62988 0.27337 0.92045 0.0
H1874 H 0.6103 0.24754 0.92502 0.0
H1875 H 0.61988 0.25253 0.93699 0.0
H1876 H 0.63305 0.27469 0.98022 0.0
H1877 H 0.66135 0.2727 0.98294 0.0
H1878 H 0.66307 0.27572 0.96723 0.0
H1879 H 0.63482 0.27779 0.96446 0.0
C1880 C 0.34604 0.71251 0.92664 0.0
C1881 C 0.34118 0.71058 0.93427 0.0
C1882 C 0.33254 0.69969 0.9262 0.0
C1883 C 0.33449 0.70424 0.93406 0.0
C1884 C 0.33738 0.70173 0.91854 0.0
C1885 C 0.34408 0.70809 0.91877 0.0
U1886 U 0.36042 0.72766 0.94011 0.0
O1887 O 0.37469 0.73019 0.93983 0.0
O1888 O 0.3654 0.74107 0.93756 0.0
C1889 C 0.37369 0.73851 0.93759 0.0
C1890 C 0.35327 0.71896 0.92697 0.0
C1891 C 0.37908 0.74154 0.93012 0.0
C1892 C 0.38438 0.73997 0.91506 0.0
C1893 C 0.37892 0.73715 0.92197 0.0
C1894 C 0.39004 0.75169 0.92433 0.0
C1895 C 0.39004 0.74725 0.91617 0.0
C1896 C 0.38462 0.74885 0.93122 0.0
C1897 C 0.35539 0.72791 0.96521 0.0
C1898 C 0.36477 0.72974 0.97811 0.0
C1899 C 0.34893 0.73136 0.97947 0.0
C1900 C 0.34799 0.7297 0.97046 0.0
C1901 C 0.35732 0.73124 0.98345 0.0
C1902 C 0.36382 0.72811 0.96906 0.0
C1903 C 0.35399 0.72513 0.95599 0.0
O1904 O 0.35094 0.72702 0.92914 0.0
O1905 O 0.36036 0.71625 0.93116 0.0
O1906 O 0.3601 0.7201 0.95245 0.0
O1907 O 0.35089 0.73113 0.95055 0.0
H1908 H 0.34261 0.71394 0.94041 0.0
H1909 H 0.33082 0.70294 0.94004 0.0
H1910 H 0.33612 0.69829 0.91241 0.0
H1911 H 0.34779 0.70948 0.91282 0.0
H1912 H 0.38414 0.73646 0.90884 0.0
H1913 H 0.37465 0.73151 0.92099 0.0
H1914 H 0.3944 0.75723 0.92546 0.0
H1915 H 0.38483 0.75231 0.93747 0.0
H1916 H 0.37132 0.7297 0.98095 0.0
H1917 H 0.34304 0.73237 0.98338 0.0
H1918 H 0.34143 0.72953 0.96763 0.0
H1919 H 0.36964 0.72678 0.96515 0.0
C1920 C 0.57796 0.79296 0.84612 0.0
C1921 C 0.57038 0.79493 0.84121 0.0
C1922 C 0.57855 0.80581 0.83265 0.0
C1923 C 0.57067 0.80127 0.83453 0.0
C1924 C 0.58618 0.80371 0.83753 0.0
C1925 C 0.58587 0.79735 0.84423 0.0
U1926 U 0.56417 0.77801 0.86035 0.0
O1927 O 0.5664 0.76461 0.86544 0.0
O1928 O 0.56419 0.77556 0.87465 0.0
C1929 C 0.5662 0.76718 0.87372 0.0
C1930 C 0.57751 0.78654 0.85338 0.0
C1931 C 0.57339 0.76391 0.87936 0.0
C1932 C 0.58894 0.7626 0.88306 0.0
C1933 C 0.58226 0.76584 0.87755 0.0
C1934 C 0.57792 0.75551 0.89221 0.0
C1935 C 0.58685 0.75736 0.89045 0.0
C1936 C 0.57128 0.75874 0.88671 0.0
C1937 C 0.53919 0.77793 0.85499 0.0
C1938 C 0.52639 0.77561 0.86439 0.0
C1939 C 0.5249 0.77468 0.84851 0.0
C1940 C 0.53389 0.77645 0.84756 0.0
C1941 C 0.52099 0.7744 0.85692 0.0
C1942 C 0.53541 0.77734 0.86343 0.0
C1943 C 0.54842 0.78068 0.85365 0.0
O1944 O 0.57326 0.78931 0.86041 0.0
O1945 O 0.57531 0.77848 0.85105 0.0
O1946 O 0.55386 0.77463 0.85065 0.0
O1947 O 0.55191 0.78571 0.85979 0.0
H1948 H 0.56421 0.79159 0.84258 0.0
H1949 H 0.56471 0.80261 0.83082 0.0
H1950 H 0.59233 0.80714 0.83632 0.0
H1951 H 0.59178 0.79593 0.84799 0.0
H1952 H 0.59574 0.7641 0.88147 0.0
H1953 H 0.584 0.76983 0.87189 0.0
H1954 H 0.57604 0.75166 0.89792 0.0
H1955 H 0.56446 0.75722 0.88823 0.0
H1956 H 0.5236 0.77533 0.87096 0.0
H1957 H 0.52093 0.77391 0.84262 0.0
H1958 H 0.53666 0.77691 0.84099 0.0
H1959 H 0.53938 0.77841 0.86927 0.0
C1960 C 0.2114 0.57809 0.84627 0.0
C1961 C 0.20944 0.57044 0.84146 0.0
C1962 C 0.19857 0.57849 0.83278 0.0
C1963 C 0.2031 0.57064 0.83477 0.0
C1964 C 0.20065 0.58618 0.83756 0.0
C1965 C 0.20701 0.58597 0.84427 0.0
U1966 U 0.22637 0.56441 0.86052 0.0
O1967 O 0.23975 0.56666 0.86567 0.0
O1968 O 0.22877 0.56439 0.87484 0.0
C1969 C 0.23715 0.56643 0.87394 0.0
C1970 C 0.2178 0.57772 0.85355 0.0
C1971 C 0.24039 0.57358 0.87963 0.0
C1972 C 0.24225 0.58914 0.88307 0.0
C1973 C 0.239 0.58249 0.87753 0.0
C1974 C 0.24823 0.57801 0.89286 0.0
C1975 C 0.24694 0.58697 0.8908 0.0
C1976 C 0.24499 0.5714 0.88733 0.0
C1977 C 0.22649 0.53945 0.85506 0.0
C1978 C 0.2289 0.52665 0.86443 0.0
C1979 C 0.22958 0.52515 0.84854 0.0
C1980 C 0.22784 0.53415 0.84762 0.0
C1981 C 0.22997 0.52125 0.85695 0.0
C1982 C 0.2272 0.53568 0.8635 0.0
C1983 C 0.22374 0.54869 0.85376 0.0
O1984 O 0.21504 0.57347 0.86058 0.0
O1985 O 0.22588 0.57557 0.85125 0.0
O1986 O 0.2298 0.55414 0.85081 0.0
O1987 O 0.2187 0.55215 0.8599 0.0
H1988 H 0.21278 0.56429 0.84292 0.0
H1989 H 0.20177 0.56463 0.83114 0.0
H1990 H 0.19723 0.59231 0.83626 0.0
H1991 H 0.20842 0.59193 0.84795 0.0
H1992 H 0.24119 0.59596 0.88125 0.0
H1993 H 0.23544 0.58429 0.8716 0.0
H1994 H 0.25165 0.57609 0.89883 0.0
H1995 H 0.24608 0.56456 0.88908 0.0
H1996 H 0.22926 0.52386 0.871 0.0
H1997 H 0.23024 0.52119 0.84264 0.0
H1998 H 0.22729 0.53692 0.84105 0.0
H1999 H 0.22622 0.53966 0.86935 0.0
C2000 C 0.42659 0.21135 0.84641 0.0
C2001 C 0.43424 0.20927 0.84164 0.0
C2002 C 0.42607 0.19855 0.8329 0.0
C2003 C 0.43399 0.20295 0.83494 0.0
C2004 C 0.41839 0.20074 0.83763 0.0
C2005 C 0.41865 0.20708 0.84435 0.0
U2006 U 0.44031 0.22632 0.86065 0.0
O2007 O 0.43803 0.2397 0.86578 0.0
O2008 O 0.4403 0.22874 0.87497 0.0
C2009 C 0.43825 0.23711 0.87405 0.0
C2010 C 0.42699 0.21775 0.85368 0.0
C2011 C 0.43107 0.24034 0.87972 0.0
C2012 C 0.4155 0.24183 0.8833 0.0
C2013 C 0.42218 0.23862 0.87777 0.0
C2014 C 0.42655 0.24845 0.89275 0.0
C2015 C 0.4176 0.24682 0.89085 0.0
C2016 C 0.43319 0.24525 0.88724 0.0
C2017 C 0.46528 0.2265 0.85525 0.0
C2018 C 0.4781 0.22882 0.86462 0.0
C2019 C 0.47955 0.22978 0.84874 0.0
C2020 C 0.47056 0.22801 0.84781 0.0
C2021 C 0.48347 0.23006 0.85714 0.0
C2022 C 0.46907 0.22708 0.86368 0.0
C2023 C 0.45605 0.22372 0.85392 0.0
O2024 O 0.43125 0.21499 0.8607 0.0
O2025 O 0.42916 0.22583 0.85137 0.0
O2026 O 0.45059 0.22976 0.85095 0.0
O2027 O 0.45259 0.21867 0.86006 0.0
H2028 H 0.44043 0.21251 0.84314 0.0
H2029 H 0.43999 0.20153 0.83135 0.0
H2030 H 0.41221 0.19742 0.83628 0.0
H2031 H 0.41269 0.20858 0.84799 0.0
H2032 H 0.40869 0.24051 0.8816 0.0
H2033 H 0.42043 0.23482 0.87198 0.0
H2034 H 0.42843 0.25211 0.89859 0.0
H2035 H 0.44002 0.2466 0.88887 0.0
H2036 H 0.4809 0.22909 0.87118 0.0
H2037 H 0.48349 0.23057 0.84284 0.0
H2038 H 0.46777 0.22755 0.84125 0.0
H2039 H 0.46512 0.22599 0.86953 0.0
C2040 C 0.79235 0.42627 0.84596 0.0
C2041 C 0.79435 0.43391 0.84114 0.0
C2042 C 0.80519 0.42581 0.83248 0.0
C2043 C 0.8007 0.43369 0.83446 0.0
C2044 C 0.80306 0.41813 0.83726 0.0
C2045 C 0.7967 0.41837 0.84396 0.0
U2046 U 0.77718 0.4399 0.86011 0.0
O2047 O 0.76386 0.4374 0.86532 0.0
O2048 O 0.77482 0.44001 0.87442 0.0
C2049 C 0.76649 0.43777 0.87358 0.0
C2050 C 0.78593 0.42666 0.85322 0.0
C2051 C 0.76349 0.43057 0.87934 0.0
C2052 C 0.76365 0.4152 0.88394 0.0
C2053 C 0.76638 0.42186 0.87813 0.0
C2054 C 0.75505 0.4259 0.89212 0.0
C2055 C 0.75802 0.41717 0.89106 0.0
C2056 C 0.75776 0.43252 0.88631 0.0
C2057 C 0.77674 0.46484 0.85462 0.0
C2058 C 0.77431 0.47761 0.86402 0.0
C2059 C 0.77356 0.47914 0.84814 0.0
C2060 C 0.77533 0.47015 0.84719 0.0
C2061 C 0.77319 0.48302 0.85656 0.0
C2062 C 0.77605 0.46859 0.86306 0.0
C2063 C 0.77958 0.45563 0.85329 0.0
O2064 O 0.78863 0.43099 0.86021 0.0
O2065 O 0.77783 0.4287 0.85088 0.0
O2066 O 0.77356 0.4501 0.8504 0.0
O2067 O 0.7847 0.45224 0.85941 0.0
H2068 H 0.79104 0.44008 0.8426 0.0
H2069 H 0.80206 0.43968 0.83083 0.0
H2070 H 0.80646 0.41198 0.83596 0.0
H2071 H 0.79526 0.41242 0.84764 0.0
H2072 H 0.76611 0.40856 0.88298 0.0
H2073 H 0.77083 0.42024 0.87277 0.0
H2074 H 0.7506 0.42763 0.89744 0.0
H2075 H 0.75544 0.4392 0.88732 0.0
H2076 H 0.77398 0.48038 0.8706 0.0
H2077 H 0.77285 0.48311 0.84225 0.0
H2078 H 0.77587 0.46739 0.84062 0.0
H2079 H 0.77707 0.46461 0.86891 0.0
C2080 C 0.57792 0.21139 0.1582 0.0
C2081 C 0.57021 0.20929 0.16286 0.0
C2082 C 0.57826 0.19849 0.17162 0.0
C2083 C 0.57037 0.20291 0.16951 0.0
C2084 C 0.586 0.2007 0.16699 0.0
C2085 C 0.58582 0.20709 0.16032 0.0
U2086 U 0.56458 0.22678 0.14397 0.0
O2087 O 0.56724 0.24021 0.13908 0.0
O2088 O 0.56485 0.22942 0.12972 0.0
C2089 C 0.56715 0.23772 0.13078 0.0
C2090 C 0.57765 0.21791 0.15102 0.0
C2091 C 0.57461 0.24075 0.12536 0.0
C2092 C 0.58959 0.23909 0.11988 0.0
C2093 C 0.58271 0.23628 0.12537 0.0
C2094 C 0.58037 0.25097 0.11446 0.0
C2095 C 0.58848 0.24645 0.11431 0.0
C2096 C 0.57351 0.24814 0.11993 0.0
C2097 C 0.5395 0.22724 0.14898 0.0
C2098 C 0.52673 0.22952 0.13952 0.0
C2099 C 0.52521 0.23067 0.15538 0.0
C2100 C 0.53419 0.22886 0.15637 0.0
C2101 C 0.52133 0.23085 0.14695 0.0
C2102 C 0.53575 0.22775 0.14052 0.0
C2103 C 0.54868 0.22434 0.15039 0.0
O2104 O 0.57344 0.2153 0.14391 0.0
O2105 O 0.57555 0.22597 0.15343 0.0
O2106 O 0.55418 0.23027 0.15353 0.0
O2107 O 0.55217 0.21932 0.14424 0.0
H2108 H 0.56404 0.21257 0.16131 0.0
H2109 H 0.56432 0.20148 0.17303 0.0
H2110 H 0.59216 0.19736 0.16838 0.0
H2111 H 0.59183 0.20862 0.15677 0.0
H2112 H 0.59577 0.23552 0.11999 0.0
H2113 H 0.58368 0.23057 0.12957 0.0
H2114 H 0.57924 0.25658 0.11018 0.0
H2115 H 0.56729 0.25166 0.11983 0.0
H2116 H 0.52397 0.22972 0.13294 0.0
H2117 H 0.52124 0.23154 0.16125 0.0
H2118 H 0.53694 0.22846 0.16296 0.0
H2119 H 0.53972 0.22656 0.1347 0.0
C2120 C 0.79266 0.57788 0.15838 0.0
C2121 C 0.79478 0.57015 0.16302 0.0
C2122 C 0.80554 0.57821 0.17183 0.0
C2123 C 0.80115 0.57032 0.16968 0.0
C2124 C 0.8033 0.58596 0.16722 0.0
C2125 C 0.79692 0.58578 0.16054 0.0
U2126 U 0.77726 0.56454 0.14414 0.0
O2127 O 0.76385 0.56722 0.13924 0.0
O2128 O 0.77464 0.56482 0.12989 0.0
C2129 C 0.76634 0.56712 0.13094 0.0
C2130 C 0.78615 0.57761 0.1512 0.0
C2131 C 0.76333 0.57459 0.12553 0.0
C2132 C 0.76498 0.5896 0.12012 0.0
C2133 C 0.76778 0.58271 0.12561 0.0
C2134 C 0.75318 0.58037 0.11457 0.0
C2135 C 0.75767 0.58849 0.11449 0.0
C2136 C 0.75599 0.57349 0.12003 0.0
C2137 C 0.77676 0.53948 0.14918 0.0
C2138 C 0.7745 0.52669 0.13973 0.0
C2139 C 0.77325 0.52522 0.15559 0.0
C2140 C 0.77508 0.53419 0.15657 0.0
C2141 C 0.77311 0.52132 0.14717 0.0
C2142 C 0.7763 0.5357 0.14072 0.0
C2143 C 0.77968 0.54865 0.15058 0.0
O2144 O 0.78876 0.57339 0.14409 0.0
O2145 O 0.77808 0.57552 0.1536 0.0
O2146 O 0.77376 0.55416 0.1537 0.0
O2147 O 0.78471 0.55213 0.14443 0.0
H2148 H 0.79153 0.56398 0.16144 0.0
H2149 H 0.8026 0.56426 0.17317 0.0
H2150 H 0.80662 0.59212 0.16864 0.0
H2151 H 0.79538 0.5918 0.15701 0.0
H2152 H 0.76853 0.59579 0.12029 0.0
H2153 H 0.77344 0.58368 0.12985 0.0
H2154 H 0.74761 0.57923 0.11023 0.0
H2155 H 0.7525 0.56726 0.11987 0.0
H2156 H 0.77434 0.52391 0.13316 0.0
H2157 H 0.77233 0.52127 0.16147 0.0
H2158 H 0.77545 0.53696 0.16315 0.0
H2159 H 0.77754 0.53965 0.1349 0.0
C2160 C 0.42639 0.79237 0.15786 0.0
C2161 C 0.43409 0.79452 0.16252 0.0
C2162 C 0.42596 0.80521 0.17134 0.0
C2163 C 0.43388 0.80086 0.1692 0.0
C2164 C 0.41823 0.80294 0.16672 0.0
C2165 C 0.41846 0.79658 0.16002 0.0
U2166 U 0.44001 0.77743 0.14347 0.0
O2167 O 0.43775 0.76401 0.13846 0.0
O2168 O 0.43978 0.77494 0.12918 0.0
C2169 C 0.43782 0.76655 0.13017 0.0
C2170 C 0.42675 0.78593 0.15062 0.0
C2171 C 0.43058 0.76323 0.12464 0.0
C2172 C 0.41502 0.76231 0.12082 0.0
C2173 C 0.42176 0.76556 0.12626 0.0
C2174 C 0.42587 0.75443 0.11213 0.0
C2175 C 0.417 0.75669 0.11369 0.0
C2176 C 0.43257 0.75766 0.11756 0.0
C2177 C 0.46516 0.77746 0.14847 0.0
C2178 C 0.47913 0.7789 0.14067 0.0
C2179 C 0.47853 0.7709 0.15447 0.0
C2180 C 0.46947 0.77252 0.15501 0.0
C2181 C 0.48352 0.77426 0.14741 0.0
C2182 C 0.47006 0.7805 0.1412 0.0
C2183 C 0.45587 0.78018 0.14988 0.0
O2184 O 0.43087 0.7887 0.14351 0.0
O2185 O 0.42902 0.77789 0.15294 0.0
O2186 O 0.45047 0.77416 0.15301 0.0
O2187 O 0.45224 0.78519 0.1438 0.0
H2188 H 0.44029 0.79132 0.16095 0.0
H2189 H 0.43992 0.80234 0.17271 0.0
H2190 H 0.41205 0.80622 0.16813 0.0
H2191 H 0.41246 0.79503 0.15646 0.0
H2192 H 0.40827 0.76413 0.12225 0.0
H2193 H 0.42011 0.76986 0.13172 0.0
H2194 H 0.42766 0.75026 0.10662 0.0
H2195 H 0.43934 0.75584 0.11618 0.0
H2196 H 0.48278 0.78166 0.13519 0.0
H2197 H 0.48166 0.76719 0.1597 0.0
H2198 H 0.46588 0.77015 0.16072 0.0
H2199 H 0.46697 0.78439 0.13607 0.0
C2200 C 0.21171 0.42623 0.15831 0.0
C2201 C 0.20962 0.43394 0.16296 0.0
C2202 C 0.19878 0.42592 0.17171 0.0
C2203 C 0.20323 0.43379 0.1696 0.0
C2204 C 0.20098 0.41818 0.16708 0.0
C2205 C 0.20739 0.41834 0.16042 0.0
U2206 U 0.22714 0.43957 0.14414 0.0
O2207 O 0.24057 0.43691 0.13926 0.0
O2208 O 0.2298 0.43934 0.12989 0.0
C2209 C 0.23809 0.43702 0.13095 0.0
C2210 C 0.21823 0.42649 0.15114 0.0
C2211 C 0.24111 0.42956 0.12554 0.0
C2212 C 0.23947 0.41454 0.12014 0.0
C2213 C 0.23667 0.42143 0.12563 0.0
C2214 C 0.25125 0.42379 0.11456 0.0
C2215 C 0.24677 0.41566 0.1145 0.0
C2216 C 0.24843 0.43066 0.12002 0.0
C2217 C 0.22758 0.46462 0.14928 0.0
C2218 C 0.22999 0.47741 0.13987 0.0
C2219 C 0.23083 0.47891 0.15575 0.0
C2220 C 0.22905 0.46993 0.1567 0.0
C2221 C 0.23115 0.48281 0.14734 0.0
C2222 C 0.22824 0.46838 0.14083 0.0
C2223 C 0.2247 0.45543 0.15062 0.0
O2224 O 0.21564 0.43072 0.14403 0.0
O2225 O 0.2263 0.42856 0.15356 0.0
O2226 O 0.23062 0.44992 0.15374 0.0
O2227 O 0.2197 0.45198 0.14444 0.0
H2228 H 0.21291 0.4401 0.16142 0.0
H2229 H 0.20181 0.43984 0.17312 0.0
H2230 H 0.19762 0.41203 0.16847 0.0
H2231 H 0.2089 0.41233 0.15687 0.0
H2232 H 0.23593 0.40834 0.12033 0.0
H2233 H 0.23102 0.42045 0.12989 0.0
H2234 H 0.2568 0.42493 0.11022 0.0
H2235 H 0.25192 0.4369 0.11985 0.0
H2236 H 0.2303 0.48018 0.1333 0.0
H2237 H 0.23156 0.48288 0.16165 0.0
H2238 H 0.22852 0.46717 0.16327 0.0
H2239 H 0.22718 0.46441 0.13499 0.0
C2240 C 0.84603 0.57805 0.79246 0.0
C2241 C 0.84141 0.57032 0.79458 0.0
C2242 C 0.8326 0.57834 0.80536 0.0
C2243 C 0.83476 0.57046 0.80096 0.0
C2244 C 0.8372 0.5861 0.80314 0.0
C2245 C 0.84387 0.58594 0.79674 0.0
U2246 U 0.86045 0.56474 0.7772 0.0
O2247 O 0.86532 0.56735 0.76376 0.0
O2248 O 0.8747 0.56518 0.77458 0.0
C2249 C 0.87362 0.56739 0.76626 0.0
C2250 C 0.85322 0.5778 0.78595 0.0
C2251 C 0.87894 0.57489 0.76318 0.0
C2252 C 0.88428 0.58993 0.76476 0.0
C2253 C 0.87884 0.58302 0.7676 0.0
C2254 C 0.88981 0.5807 0.75295 0.0
C2255 C 0.88988 0.58883 0.75743 0.0
C2256 C 0.8844 0.57381 0.75581 0.0
C2257 C 0.85577 0.53951 0.77698 0.0
C2258 C 0.86353 0.52552 0.77852 0.0
C2259 C 0.84991 0.52617 0.77023 0.0
C2260 C 0.84933 0.53522 0.77188 0.0
C2261 C 0.85689 0.52116 0.77372 0.0
C2262 C 0.86297 0.53459 0.78014 0.0
C2263 C 0.85428 0.54875 0.77978 0.0
O2264 O 0.86038 0.5737 0.78861 0.0
O2265 O 0.85084 0.57559 0.77791 0.0
O2266 O 0.85104 0.55418 0.77384 0.0
O2267 O 0.86035 0.5524 0.78479 0.0
H2268 H 0.84299 0.56415 0.79132 0.0
H2269 H 0.83127 0.5644 0.80241 0.0
H2270 H 0.83577 0.59226 0.80646 0.0
H2271 H 0.84739 0.59197 0.7952 0.0
H2272 H 0.88409 0.59613 0.76829 0.0
H2273 H 0.87462 0.58398 0.77329 0.0
H2274 H 0.89412 0.57957 0.74737 0.0
H2275 H 0.88458 0.56756 0.75233 0.0
H2276 H 0.86896 0.52186 0.78138 0.0
H2277 H 0.84475 0.52305 0.7664 0.0
H2278 H 0.84367 0.53882 0.7694 0.0
H2279 H 0.86802 0.53765 0.78416 0.0
C2280 C 0.4266 0.84659 0.79259 0.0
C2281 C 0.43419 0.84169 0.79457 0.0
C2282 C 0.42603 0.83311 0.80543 0.0
C2283 C 0.43391 0.83501 0.80091 0.0
C2284 C 0.41839 0.83797 0.80333 0.0
C2285 C 0.41869 0.84467 0.79697 0.0
U2286 U 0.44041 0.86072 0.7776 0.0
O2287 O 0.43815 0.86591 0.76425 0.0
O2288 O 0.44054 0.87505 0.77523 0.0
C2289 C 0.43845 0.87417 0.76686 0.0
C2290 C 0.42705 0.85386 0.78619 0.0
C2291 C 0.43132 0.87993 0.76366 0.0
C2292 C 0.41578 0.8833 0.76152 0.0
C2293 C 0.4224 0.87771 0.76475 0.0
C2294 C 0.42696 0.89339 0.75618 0.0
C2295 C 0.41799 0.8912 0.75715 0.0
C2296 C 0.43354 0.88781 0.75939 0.0
C2297 C 0.46532 0.85507 0.7774 0.0
C2298 C 0.47816 0.86437 0.77488 0.0
C2299 C 0.4796 0.84847 0.77433 0.0
C2300 C 0.4706 0.8476 0.7761 0.0
C2301 C 0.48353 0.85686 0.77385 0.0
C2302 C 0.46913 0.86349 0.77662 0.0
C2303 C 0.45609 0.85383 0.78017 0.0
O2304 O 0.43138 0.86084 0.78895 0.0
O2305 O 0.42917 0.85154 0.77811 0.0
O2306 O 0.45059 0.85094 0.77412 0.0
O2307 O 0.45269 0.86 0.78524 0.0
H2308 H 0.44036 0.84308 0.79124 0.0
H2309 H 0.43987 0.83132 0.80226 0.0
H2310 H 0.41224 0.83674 0.80675 0.0
H2311 H 0.41277 0.84842 0.79555 0.0
H2312 H 0.40895 0.88138 0.76233 0.0
H2313 H 0.42057 0.87165 0.76806 0.0
H2314 H 0.42891 0.89949 0.75302 0.0
H2315 H 0.4404 0.88965 0.75854 0.0
H2316 H 0.48097 0.87092 0.77446 0.0
H2317 H 0.48354 0.84255 0.7737 0.0
H2318 H 0.4678 0.84105 0.77671 0.0
H2319 H 0.46518 0.86937 0.77755 0.0
C2320 C 0.15833 0.42624 0.7926 0.0
C2321 C 0.16313 0.43389 0.79462 0.0
C2322 C 0.1717 0.42582 0.80556 0.0
C2323 C 0.16975 0.43368 0.80102 0.0
C2324 C 0.16693 0.41814 0.80343 0.0
C2325 C 0.16029 0.41836 0.79701 0.0
U2326 U 0.14412 0.4397 0.77727 0.0
O2327 O 0.13925 0.43712 0.76383 0.0
O2328 O 0.12988 0.43944 0.77462 0.0
C2329 C 0.13094 0.43719 0.76631 0.0
C2330 C 0.15116 0.42657 0.78608 0.0
C2331 C 0.12555 0.42972 0.76325 0.0
C2332 C 0.12023 0.41467 0.76478 0.0
C2333 C 0.12569 0.42157 0.76762 0.0
C2334 C 0.11459 0.42398 0.75309 0.0
C2335 C 0.11457 0.41582 0.7575 0.0
C2336 C 0.12002 0.43086 0.75594 0.0
C2337 C 0.14917 0.46478 0.77698 0.0
C2338 C 0.13974 0.47759 0.77479 0.0
C2339 C 0.1556 0.47907 0.77364 0.0
C2340 C 0.15657 0.47008 0.77538 0.0
C2341 C 0.14719 0.48298 0.77349 0.0
C2342 C 0.14072 0.46856 0.7765 0.0
C2343 C 0.15055 0.45558 0.77981 0.0
O2344 O 0.14405 0.43078 0.78871 0.0
O2345 O 0.15358 0.42872 0.77804 0.0
O2346 O 0.15369 0.45012 0.77386 0.0
O2347 O 0.14439 0.45207 0.7848 0.0
H2348 H 0.1617 0.44004 0.79127 0.0
H2349 H 0.17338 0.43968 0.80239 0.0
H2350 H 0.1682 0.412 0.80686 0.0
H2351 H 0.15663 0.4124 0.79555 0.0
H2352 H 0.12045 0.40844 0.76827 0.0
H2353 H 0.12996 0.42056 0.77326 0.0
H2354 H 0.11023 0.42514 0.74755 0.0
H2355 H 0.11982 0.43712 0.75251 0.0
H2356 H 0.13316 0.48038 0.77461 0.0
H2357 H 0.16149 0.48303 0.7728 0.0
H2358 H 0.16315 0.46731 0.77577 0.0
H2359 H 0.13489 0.4646 0.77767 0.0
C2360 C 0.57822 0.15792 0.79236 0.0
C2361 C 0.57049 0.16251 0.79455 0.0
C2362 C 0.57858 0.17134 0.80526 0.0
C2363 C 0.57067 0.16916 0.80092 0.0
C2364 C 0.58634 0.16677 0.80297 0.0
C2365 C 0.58615 0.1601 0.79658 0.0
U2366 U 0.56487 0.14347 0.77715 0.0
O2367 O 0.56745 0.1386 0.76371 0.0
O2368 O 0.56534 0.12923 0.77453 0.0
C2369 C 0.56752 0.1303 0.76621 0.0
C2370 C 0.57794 0.15073 0.78586 0.0
C2371 C 0.57503 0.125 0.76311 0.0
C2372 C 0.59009 0.11969 0.76466 0.0
C2373 C 0.58317 0.12511 0.76752 0.0
C2374 C 0.58084 0.11415 0.75286 0.0
C2375 C 0.58898 0.11409 0.75732 0.0
C2376 C 0.57394 0.11954 0.75573 0.0
C2377 C 0.53962 0.14809 0.77699 0.0
C2378 C 0.52562 0.14036 0.77865 0.0
C2379 C 0.52627 0.15388 0.77019 0.0
C2380 C 0.53533 0.15446 0.77182 0.0
C2381 C 0.52126 0.14694 0.77378 0.0
C2382 C 0.53469 0.14093 0.78026 0.0
C2383 C 0.54887 0.1496 0.77977 0.0
O2384 O 0.57387 0.14356 0.78853 0.0
O2385 O 0.5757 0.15311 0.77783 0.0
O2386 O 0.55428 0.15285 0.77381 0.0
O2387 O 0.55255 0.14354 0.78477 0.0
H2388 H 0.5643 0.16091 0.79134 0.0
H2389 H 0.5646 0.17263 0.80242 0.0
H2390 H 0.59252 0.16821 0.80625 0.0
H2391 H 0.59217 0.1566 0.79499 0.0
H2392 H 0.59629 0.11988 0.76818 0.0
H2393 H 0.58414 0.12932 0.77321 0.0
H2394 H 0.57971 0.10984 0.74727 0.0
H2395 H 0.5677 0.11936 0.75227 0.0
H2396 H 0.52196 0.13498 0.78159 0.0
H2397 H 0.52315 0.15899 0.76629 0.0
H2398 H 0.53892 0.16009 0.76927 0.0
H2399 H 0.53776 0.13594 0.78434 0.0
C2400 C 0.8455 0.42602 0.21163 0.0
C2401 C 0.84066 0.43371 0.20987 0.0
C2402 C 0.83174 0.42581 0.19907 0.0
C2403 C 0.83384 0.4336 0.20366 0.0
C2404 C 0.83654 0.41808 0.20098 0.0
C2405 C 0.84337 0.4182 0.20719 0.0
U2406 U 0.86046 0.43924 0.22647 0.0
O2407 O 0.86622 0.43644 0.23949 0.0
O2408 O 0.87488 0.439 0.22816 0.0
C2409 C 0.87435 0.43648 0.23644 0.0
C2410 C 0.85297 0.42627 0.21781 0.0
C2411 C 0.88013 0.42904 0.23901 0.0
C2412 C 0.88263 0.41486 0.24616 0.0
C2413 C 0.87688 0.42157 0.24345 0.0
C2414 C 0.89493 0.4229 0.23992 0.0
C2415 C 0.89173 0.41546 0.24444 0.0
C2416 C 0.8892 0.42962 0.23728 0.0
C2417 C 0.85546 0.46439 0.22745 0.0
C2418 C 0.86338 0.47832 0.22614 0.0
C2419 C 0.84957 0.47774 0.23413 0.0
C2420 C 0.84896 0.4687 0.23244 0.0
C2421 C 0.85666 0.48271 0.2308 0.0
C2422 C 0.86279 0.46926 0.22448 0.0
C2423 C 0.85394 0.45518 0.22459 0.0
O2424 O 0.85992 0.43053 0.21489 0.0
O2425 O 0.85095 0.42827 0.226 0.0
O2426 O 0.85115 0.44961 0.23063 0.0
O2427 O 0.85972 0.45171 0.21915 0.0
H2428 H 0.84222 0.43981 0.21324 0.0
H2429 H 0.8302 0.43963 0.20246 0.0
H2430 H 0.83516 0.41199 0.1975 0.0
H2431 H 0.84707 0.41222 0.20844 0.0
H2432 H 0.87995 0.40918 0.24957 0.0
H2433 H 0.86991 0.42092 0.2449 0.0
H2434 H 0.90191 0.42364 0.2386 0.0
H2435 H 0.89189 0.43534 0.23394 0.0
H2436 H 0.86889 0.48194 0.22341 0.0
H2437 H 0.84435 0.48089 0.23786 0.0
H2438 H 0.84323 0.46513 0.23477 0.0
H2439 H 0.8679 0.46616 0.22057 0.0
C2440 C 0.57835 0.8461 0.21189 0.0
C2441 C 0.57063 0.8415 0.20968 0.0
C2442 C 0.57876 0.83267 0.19899 0.0
C2443 C 0.57083 0.83485 0.2033 0.0
C2444 C 0.58651 0.83725 0.20131 0.0
C2445 C 0.58629 0.84391 0.2077 0.0
U2446 U 0.56494 0.86052 0.22708 0.0
O2447 O 0.5675 0.8654 0.24052 0.0
O2448 O 0.56536 0.87476 0.22969 0.0
C2449 C 0.56755 0.8737 0.23801 0.0
C2450 C 0.57805 0.85329 0.21839 0.0
C2451 C 0.57504 0.87903 0.24111 0.0
C2452 C 0.59009 0.88436 0.23956 0.0
C2453 C 0.58318 0.87892 0.23671 0.0
C2454 C 0.58083 0.8899 0.25135 0.0
C2455 C 0.58897 0.88996 0.24689 0.0
C2456 C 0.57394 0.88449 0.24847 0.0
C2457 C 0.53971 0.85582 0.22721 0.0
C2458 C 0.52571 0.86355 0.22558 0.0
C2459 C 0.52636 0.84998 0.23396 0.0
C2460 C 0.53542 0.84941 0.23234 0.0
C2461 C 0.52134 0.85693 0.23041 0.0
C2462 C 0.53478 0.86299 0.22398 0.0
C2463 C 0.54897 0.85434 0.22445 0.0
O2464 O 0.57396 0.86044 0.21571 0.0
O2465 O 0.57581 0.85091 0.22642 0.0
O2466 O 0.55438 0.85111 0.23041 0.0
O2467 O 0.55263 0.8604 0.21944 0.0
H2468 H 0.56443 0.8431 0.21286 0.0
H2469 H 0.56478 0.83138 0.20178 0.0
H2470 H 0.5927 0.83581 0.19806 0.0
H2471 H 0.59231 0.84742 0.20931 0.0
H2472 H 0.5963 0.88418 0.23604 0.0
H2473 H 0.58416 0.8747 0.23102 0.0
H2474 H 0.57969 0.89421 0.25692 0.0
H2475 H 0.56769 0.88467 0.25194 0.0
H2476 H 0.52205 0.86894 0.22266 0.0
H2477 H 0.52324 0.84484 0.23782 0.0
H2478 H 0.53902 0.84378 0.23487 0.0
H2479 H 0.53785 0.86802 0.21994 0.0
C2480 C 0.15856 0.57799 0.21122 0.0
C2481 C 0.16333 0.57032 0.20925 0.0
C2482 C 0.17198 0.57832 0.19832 0.0
C2483 C 0.16998 0.57048 0.20287 0.0
C2484 C 0.16723 0.58602 0.2004 0.0
C2485 C 0.16056 0.58585 0.2068 0.0
U2486 U 0.1443 0.56463 0.22658 0.0
O2487 O 0.13938 0.56727 0.23999 0.0
O2488 O 0.13004 0.56488 0.22919 0.0
C2489 C 0.13108 0.56717 0.23749 0.0
C2490 C 0.15136 0.57771 0.21772 0.0
C2491 C 0.12565 0.57462 0.24052 0.0
C2492 C 0.12011 0.58958 0.23885 0.0
C2493 C 0.12562 0.58271 0.23603 0.0
C2494 C 0.11476 0.58037 0.25076 0.0
C2495 C 0.11457 0.58847 0.24622 0.0
C2496 C 0.12024 0.57352 0.24792 0.0
C2497 C 0.14934 0.53956 0.22703 0.0
C2498 C 0.13988 0.52679 0.2293 0.0
C2499 C 0.15574 0.52527 0.23045 0.0
C2500 C 0.15673 0.53425 0.22865 0.0
C2501 C 0.14731 0.52139 0.23064 0.0
C2502 C 0.14088 0.53581 0.22753 0.0
C2503 C 0.15074 0.54874 0.22414 0.0
O2504 O 0.14426 0.57349 0.21509 0.0
O2505 O 0.15375 0.57561 0.22579 0.0
O2506 O 0.15386 0.55423 0.23007 0.0
O2507 O 0.1446 0.55223 0.21911 0.0
H2508 H 0.16187 0.56418 0.21262 0.0
H2509 H 0.17359 0.56446 0.20154 0.0
H2510 H 0.16853 0.59214 0.19696 0.0
H2511 H 0.15691 0.59183 0.20822 0.0
H2512 H 0.12019 0.59575 0.23526 0.0
H2513 H 0.12979 0.58369 0.23031 0.0
H2514 H 0.1105 0.57923 0.25638 0.0
H2515 H 0.12017 0.56731 0.25146 0.0
H2516 H 0.13329 0.52402 0.2295 0.0
H2517 H 0.16161 0.5213 0.23133 0.0
H2518 H 0.16331 0.537 0.22825 0.0
H2519 H 0.13506 0.53978 0.22635 0.0
C2520 C 0.4264 0.1585 0.21153 0.0
C2521 C 0.43412 0.16313 0.2094 0.0
C2522 C 0.42607 0.17188 0.19859 0.0
C2523 C 0.43396 0.16976 0.203 0.0
C2524 C 0.41832 0.16727 0.20083 0.0
C2525 C 0.4185 0.16062 0.20724 0.0
U2526 U 0.43974 0.14425 0.22692 0.0
O2527 O 0.4371 0.13942 0.24037 0.0
O2528 O 0.4394 0.13001 0.22961 0.0
C2529 C 0.43713 0.13111 0.23791 0.0
C2530 C 0.42667 0.15133 0.21807 0.0
C2531 C 0.42964 0.12576 0.24097 0.0
C2532 C 0.41458 0.12047 0.23941 0.0
C2533 C 0.4215 0.1259 0.23656 0.0
C2534 C 0.42382 0.11487 0.25117 0.0
C2535 C 0.41568 0.11485 0.24672 0.0
C2536 C 0.43073 0.12027 0.24831 0.0
C2537 C 0.46485 0.14915 0.22729 0.0
C2538 C 0.4776 0.13966 0.22951 0.0
C2539 C 0.47915 0.15551 0.23071 0.0
C2540 C 0.47017 0.15653 0.22893 0.0
C2541 C 0.48302 0.14708 0.23085 0.0
C2542 C 0.46858 0.14068 0.22776 0.0
C2543 C 0.45566 0.15059 0.22441 0.0
O2544 O 0.43084 0.1442 0.21546 0.0
O2545 O 0.4288 0.15376 0.22611 0.0
O2546 O 0.4502 0.15377 0.23034 0.0
O2547 O 0.45213 0.14444 0.21943 0.0
H2548 H 0.44029 0.16158 0.21267 0.0
H2549 H 0.44001 0.17326 0.20155 0.0
H2550 H 0.41216 0.16866 0.19749 0.0
H2551 H 0.41249 0.15708 0.20879 0.0
H2552 H 0.40836 0.12069 0.23589 0.0
H2553 H 0.42053 0.13014 0.23089 0.0
H2554 H 0.42495 0.11055 0.25674 0.0
H2555 H 0.43698 0.12007 0.25178 0.0
H2556 H 0.48036 0.13307 0.22967 0.0
H2557 H 0.48313 0.16138 0.23159 0.0
H2558 H 0.46743 0.16312 0.22855 0.0
H2559 H 0.4646 0.13488 0.22656 0.0
C2560 C 0.7923 0.84609 0.57824 0.0
C2561 C 0.79429 0.84133 0.57056 0.0
C2562 C 0.80524 0.8327 0.57855 0.0
C2563 C 0.80068 0.8347 0.57071 0.0
C2564 C 0.80313 0.83743 0.58627 0.0
C2565 C 0.79672 0.84408 0.5861 0.0
U2566 U 0.77687 0.86008 0.56476 0.0
O2567 O 0.76349 0.8651 0.56734 0.0
O2568 O 0.7743 0.87435 0.56467 0.0
C2569 C 0.76599 0.87339 0.56695 0.0
C2570 C 0.7858 0.85328 0.57794 0.0
C2571 C 0.76291 0.87912 0.57414 0.0
C2572 C 0.76378 0.88453 0.58921 0.0
C2573 C 0.76658 0.87868 0.58262 0.0
C2574 C 0.75352 0.89117 0.57892 0.0
C2575 C 0.75729 0.89093 0.5874 0.0
C2576 C 0.75631 0.88534 0.57236 0.0
C2577 C 0.77636 0.85455 0.53982 0.0
C2578 C 0.77373 0.86388 0.52703 0.0
C2579 C 0.77318 0.84799 0.52556 0.0
C2580 C 0.77502 0.84709 0.53454 0.0
C2581 C 0.77267 0.85639 0.52166 0.0
C2582 C 0.77554 0.86298 0.53605 0.0
C2583 C 0.77927 0.85329 0.54902 0.0
O2584 O 0.78839 0.86032 0.57359 0.0
O2585 O 0.77771 0.85086 0.57595 0.0
O2586 O 0.77333 0.85031 0.55458 0.0
O2587 O 0.78433 0.85949 0.55237 0.0
H2588 H 0.79092 0.84279 0.56443 0.0
H2589 H 0.80203 0.83111 0.56469 0.0
H2590 H 0.80657 0.83612 0.59239 0.0
H2591 H 0.79529 0.84772 0.59208 0.0
H2592 H 0.76686 0.88421 0.59565 0.0
H2593 H 0.7717 0.87391 0.58409 0.0
H2594 H 0.7484 0.8959 0.57734 0.0
H2595 H 0.75338 0.88574 0.56586 0.0
H2596 H 0.77328 0.87044 0.52424 0.0
H2597 H 0.77252 0.84207 0.52161 0.0
H2598 H 0.77566 0.84054 0.53732 0.0
H2599 H 0.7765 0.86885 0.54001 0.0
C2600 C 0.79253 0.15808 0.42646 0.0
C2601 C 0.7945 0.16291 0.43409 0.0
C2602 C 0.80535 0.17157 0.426 0.0
C2603 C 0.80084 0.1696 0.43387 0.0
C2604 C 0.80325 0.16678 0.41833 0.0
C2605 C 0.7969 0.16008 0.41856 0.0
U2606 U 0.77733 0.14395 0.44006 0.0
O2607 O 0.76403 0.13871 0.43753 0.0
O2608 O 0.77499 0.12964 0.4402 0.0
C2609 C 0.76666 0.13046 0.43792 0.0
C2610 C 0.78612 0.15081 0.42683 0.0
C2611 C 0.76371 0.12469 0.43071 0.0
C2612 C 0.76366 0.1203 0.41528 0.0
C2613 C 0.76637 0.1261 0.42196 0.0
C2614 C 0.75556 0.11172 0.42606 0.0
C2615 C 0.75828 0.11299 0.41728 0.0
C2616 C 0.75825 0.11751 0.4327 0.0
C2617 C 0.7768 0.14953 0.46498 0.0
C2618 C 0.77424 0.14017 0.47777 0.0
C2619 C 0.77368 0.15606 0.47928 0.0
C2620 C 0.77547 0.15698 0.47029 0.0
C2621 C 0.7732 0.14765 0.48317 0.0
C2622 C 0.77601 0.1411 0.46874 0.0
C2623 C 0.77966 0.15082 0.45578 0.0
O2624 O 0.78882 0.14383 0.4312 0.0
O2625 O 0.77801 0.15314 0.42884 0.0
O2626 O 0.77366 0.15369 0.45022 0.0
O2627 O 0.7848 0.14469 0.45243 0.0
H2628 H 0.79118 0.16146 0.44025 0.0
H2629 H 0.80219 0.17324 0.43987 0.0
H2630 H 0.80666 0.16807 0.41219 0.0
H2631 H 0.79548 0.15638 0.41262 0.0
H2632 H 0.76593 0.12143 0.4086 0.0
H2633 H 0.77061 0.13161 0.42032 0.0
H2634 H 0.75131 0.10625 0.4278 0.0
H2635 H 0.75611 0.11634 0.43941 0.0
H2636 H 0.77382 0.1336 0.48054 0.0
H2637 H 0.77304 0.16196 0.48325 0.0
H2638 H 0.7761 0.16354 0.46753 0.0
H2639 H 0.77696 0.13524 0.46476 0.0
C2640 C 0.84495 0.7929 0.42636 0.0
C2641 C 0.84 0.7946 0.43399 0.0
C2642 C 0.83124 0.80549 0.42606 0.0
C2643 C 0.8332 0.80082 0.43384 0.0
C2644 C 0.83615 0.80366 0.41839 0.0
C2645 C 0.84296 0.79742 0.41855 0.0
U2646 U 0.85978 0.778 0.43968 0.0
O2647 O 0.86547 0.76495 0.43693 0.0
O2648 O 0.87419 0.77622 0.43951 0.0
C2649 C 0.87362 0.76795 0.43698 0.0
C2650 C 0.8524 0.7867 0.42666 0.0
C2651 C 0.87939 0.76535 0.42954 0.0
C2652 C 0.88189 0.75799 0.41546 0.0
C2653 C 0.87615 0.76072 0.42217 0.0
C2654 C 0.89415 0.7646 0.42327 0.0
C2655 C 0.89096 0.7599 0.41594 0.0
C2656 C 0.88844 0.76726 0.42999 0.0
C2657 C 0.85464 0.77707 0.46473 0.0
C2658 C 0.86419 0.77507 0.47748 0.0
C2659 C 0.84837 0.77351 0.47904 0.0
C2660 C 0.84731 0.77526 0.47006 0.0
C2661 C 0.8568 0.77356 0.48291 0.0
C2662 C 0.86312 0.77679 0.46847 0.0
C2663 C 0.85314 0.77993 0.45556 0.0
O2664 O 0.85934 0.78959 0.43097 0.0
O2665 O 0.85034 0.77851 0.42866 0.0
O2666 O 0.85038 0.77388 0.45 0.0
O2667 O 0.85902 0.78531 0.45215 0.0
H2668 H 0.84146 0.79116 0.44009 0.0
H2669 H 0.82947 0.80197 0.43982 0.0
H2670 H 0.83488 0.8072 0.41232 0.0
H2671 H 0.84675 0.79622 0.41262 0.0
H2672 H 0.87922 0.75444 0.40987 0.0
H2673 H 0.86921 0.75913 0.42162 0.0
H2674 H 0.90111 0.76606 0.42392 0.0
H2675 H 0.89112 0.77074 0.43563 0.0
H2676 H 0.87078 0.77505 0.48024 0.0
H2677 H 0.84253 0.7725 0.48303 0.0
H2678 H 0.84071 0.77549 0.46732 0.0
H2679 H 0.8689 0.77813 0.46448 0.0
C2680 C 0.21175 0.84574 0.42635 0.0
C2681 C 0.21001 0.84084 0.434 0.0
C2682 C 0.1992 0.83199 0.42606 0.0
C2683 C 0.20381 0.83403 0.43386 0.0
C2684 C 0.20108 0.83684 0.41837 0.0
C2685 C 0.2073 0.84367 0.41852 0.0
U2686 U 0.22663 0.86053 0.43969 0.0
O2687 O 0.23966 0.8663 0.43694 0.0
O2688 O 0.22835 0.87495 0.43962 0.0
C2689 C 0.23663 0.87443 0.43709 0.0
C2690 C 0.21793 0.85321 0.42665 0.0
C2691 C 0.23919 0.88028 0.42971 0.0
C2692 C 0.2457 0.88278 0.41522 0.0
C2693 C 0.24302 0.877 0.42191 0.0
C2694 C 0.24065 0.89517 0.42394 0.0
C2695 C 0.24455 0.89194 0.41617 0.0
C2696 C 0.23803 0.88941 0.43063 0.0
C2697 C 0.22764 0.85523 0.4647 0.0
C2698 C 0.22972 0.86474 0.47746 0.0
C2699 C 0.23118 0.8489 0.47898 0.0
C2700 C 0.22941 0.84788 0.47 0.0
C2701 C 0.23119 0.85733 0.48287 0.0
C2702 C 0.22798 0.8637 0.46844 0.0
C2703 C 0.22476 0.85377 0.45552 0.0
O2704 O 0.21503 0.86012 0.431 0.0
O2705 O 0.22613 0.85117 0.4286 0.0
O2706 O 0.23082 0.85108 0.44993 0.0
O2707 O 0.21935 0.85966 0.45217 0.0
H2708 H 0.21339 0.84236 0.44012 0.0
H2709 H 0.20262 0.83035 0.43987 0.0
H2710 H 0.1976 0.83551 0.41228 0.0
H2711 H 0.20853 0.84743 0.41257 0.0
H2712 H 0.24862 0.88009 0.40929 0.0
H2713 H 0.24399 0.86998 0.421 0.0
H2714 H 0.23978 0.90219 0.42493 0.0
H2715 H 0.23516 0.8921 0.4366 0.0
H2716 H 0.22978 0.87132 0.48023 0.0
H2717 H 0.23215 0.84305 0.48295 0.0
H2718 H 0.22913 0.84129 0.46725 0.0
H2719 H 0.22668 0.86949 0.46447 0.0
C2720 C 0.1585 0.21132 0.42634 0.0
C2721 C 0.16327 0.20933 0.43401 0.0
C2722 C 0.17193 0.19843 0.42597 0.0
C2723 C 0.16993 0.20295 0.43383 0.0
C2724 C 0.16718 0.20054 0.41827 0.0
C2725 C 0.16051 0.20693 0.41846 0.0
U2726 U 0.14424 0.22664 0.43975 0.0
O2727 O 0.13932 0.24006 0.43714 0.0
O2728 O 0.12998 0.22925 0.43949 0.0
C2729 C 0.13102 0.23755 0.43722 0.0
C2730 C 0.1513 0.21782 0.42664 0.0
C2731 C 0.1256 0.24059 0.42976 0.0
C2732 C 0.12016 0.23898 0.41476 0.0
C2733 C 0.12565 0.23616 0.42164 0.0
C2734 C 0.11468 0.2508 0.42401 0.0
C2735 C 0.11457 0.24632 0.41589 0.0
C2736 C 0.12014 0.24796 0.43088 0.0
C2737 C 0.14929 0.22701 0.46482 0.0
C2738 C 0.13985 0.22921 0.47762 0.0
C2739 C 0.15571 0.23038 0.47911 0.0
C2740 C 0.15669 0.22862 0.47012 0.0
C2741 C 0.1473 0.23053 0.48301 0.0
C2742 C 0.14083 0.22748 0.4686 0.0
C2743 C 0.15068 0.22415 0.45563 0.0
O2744 O 0.1442 0.21518 0.43085 0.0
O2745 O 0.15369 0.22588 0.42876 0.0
O2746 O 0.1538 0.2301 0.45015 0.0
O2747 O 0.14453 0.21914 0.45213 0.0
H2748 H 0.16181 0.21267 0.44015 0.0
H2749 H 0.17353 0.2016 0.43984 0.0
H2750 H 0.16849 0.19712 0.41214 0.0
H2751 H 0.15686 0.20837 0.41249 0.0
H2752 H 0.12031 0.23544 0.40856 0.0
H2753 H 0.12987 0.23047 0.42065 0.0
H2754 H 0.11038 0.25638 0.42516 0.0
H2755 H 0.12001 0.25145 0.43711 0.0
H2756 H 0.13328 0.22937 0.48041 0.0
H2757 H 0.1616 0.23125 0.48307 0.0
H2758 H 0.16327 0.22824 0.46735 0.0
H2759 H 0.13501 0.22629 0.46464 0.0
C2760 C 0.21203 0.15818 0.57811 0.0
C2761 C 0.20994 0.16289 0.57042 0.0
C2762 C 0.19903 0.17151 0.57848 0.0
C2763 C 0.20352 0.16949 0.57061 0.0
C2764 C 0.20123 0.16683 0.5862 0.0
C2765 C 0.20767 0.1602 0.586 0.0
U2766 U 0.22745 0.14424 0.56457 0.0
O2767 O 0.24091 0.13937 0.56707 0.0
O2768 O 0.23015 0.13001 0.56452 0.0
C2769 C 0.23847 0.13105 0.56674 0.0
C2770 C 0.21858 0.15103 0.57778 0.0
C2771 C 0.24167 0.12537 0.57393 0.0
C2772 C 0.24021 0.11903 0.58859 0.0
C2773 C 0.23729 0.1249 0.58207 0.0
C2774 C 0.25202 0.11424 0.57896 0.0
C2775 C 0.24754 0.11353 0.58705 0.0
C2776 C 0.24911 0.12009 0.57247 0.0
C2777 C 0.22773 0.14969 0.5396 0.0
C2778 C 0.2303 0.14035 0.5268 0.0
C2779 C 0.23076 0.15625 0.5253 0.0
C2780 C 0.22899 0.15715 0.5343 0.0
C2781 C 0.23128 0.14785 0.5214 0.0
C2782 C 0.22856 0.14126 0.53583 0.0
C2783 C 0.22488 0.15095 0.54881 0.0
O2784 O 0.21601 0.14395 0.57349 0.0
O2785 O 0.22663 0.1535 0.57572 0.0
O2786 O 0.23083 0.15401 0.55432 0.0
O2787 O 0.2199 0.14472 0.55222 0.0
H2788 H 0.21325 0.16141 0.56427 0.0
H2789 H 0.20209 0.17305 0.56458 0.0
H2790 H 0.19785 0.16815 0.59235 0.0
H2791 H 0.20919 0.1566 0.59199 0.0
H2792 H 0.23657 0.1186 0.59472 0.0
H2793 H 0.23153 0.12895 0.58332 0.0
H2794 H 0.25777 0.11022 0.57761 0.0
H2795 H 0.2526 0.12041 0.56624 0.0
H2796 H 0.23076 0.13379 0.52402 0.0
H2797 H 0.23135 0.16216 0.52134 0.0
H2798 H 0.22833 0.16371 0.53706 0.0
H2799 H 0.22766 0.1354 0.53981 0.0
C2800 C 0.84563 0.21118 0.57835 0.0
C2801 C 0.84096 0.2091 0.57064 0.0
C2802 C 0.8322 0.19829 0.57867 0.0
C2803 C 0.83431 0.20273 0.5708 0.0
C2804 C 0.83684 0.20048 0.58641 0.0
C2805 C 0.84351 0.20687 0.58624 0.0
U2806 U 0.86005 0.22643 0.56502 0.0
O2807 O 0.86494 0.23987 0.56763 0.0
O2808 O 0.87431 0.22904 0.56544 0.0
C2809 C 0.87324 0.23736 0.56765 0.0
C2810 C 0.85282 0.21768 0.57808 0.0
C2811 C 0.8786 0.24045 0.57513 0.0
C2812 C 0.88408 0.23885 0.59011 0.0
C2813 C 0.8786 0.23599 0.58324 0.0
C2814 C 0.88944 0.25074 0.58089 0.0
C2815 C 0.88961 0.24622 0.589 0.0
C2816 C 0.88399 0.24787 0.57403 0.0
C2817 C 0.85538 0.22671 0.53979 0.0
C2818 C 0.86322 0.22528 0.52584 0.0
C2819 C 0.84953 0.23347 0.52645 0.0
C2820 C 0.84893 0.23178 0.53549 0.0
C2821 C 0.85657 0.23004 0.52146 0.0
C2822 C 0.86263 0.22362 0.5349 0.0
C2823 C 0.85388 0.22389 0.54903 0.0
O2824 O 0.85998 0.21502 0.57398 0.0
O2825 O 0.85045 0.22573 0.57588 0.0
O2826 O 0.85064 0.22982 0.55447 0.0
O2827 O 0.85993 0.21886 0.55267 0.0
H2828 H 0.8425 0.21238 0.56448 0.0
H2829 H 0.83078 0.20131 0.56475 0.0
H2830 H 0.83546 0.19713 0.59257 0.0
H2831 H 0.84708 0.20838 0.59225 0.0
H2832 H 0.88398 0.23528 0.5963 0.0
H2833 H 0.87444 0.23026 0.58421 0.0
H2834 H 0.8937 0.25636 0.57975 0.0
H2835 H 0.88409 0.25137 0.5678 0.0
H2836 H 0.86868 0.22246 0.5222 0.0
H2837 H 0.84436 0.23728 0.52332 0.0
H2838 H 0.84323 0.23421 0.53907 0.0
H2839 H 0.86769 0.21963 0.53798 0.0
C2840 C 0.15838 0.79272 0.57798 0.0
C2841 C 0.16302 0.7948 0.57025 0.0
C2842 C 0.1718 0.80563 0.57825 0.0
C2843 C 0.16967 0.80119 0.57039 0.0
C2844 C 0.16717 0.80344 0.58601 0.0
C2845 C 0.16051 0.79705 0.58586 0.0
U2846 U 0.14416 0.77729 0.56468 0.0
O2847 O 0.1393 0.76386 0.56736 0.0
O2848 O 0.12992 0.77462 0.56495 0.0
C2849 C 0.13099 0.76634 0.56726 0.0
C2850 C 0.1512 0.78621 0.57773 0.0
C2851 C 0.12558 0.76331 0.57473 0.0
C2852 C 0.12015 0.76495 0.58973 0.0
C2853 C 0.12563 0.76777 0.58284 0.0
C2854 C 0.11466 0.75312 0.5805 0.0
C2855 C 0.11455 0.75762 0.58862 0.0
C2856 C 0.12012 0.75595 0.57363 0.0
C2857 C 0.14922 0.77679 0.53961 0.0
C2858 C 0.13981 0.77453 0.5268 0.0
C2859 C 0.15567 0.77328 0.52537 0.0
C2860 C 0.15663 0.7751 0.53434 0.0
C2861 C 0.14726 0.77313 0.52144 0.0
C2862 C 0.14078 0.77632 0.53582 0.0
C2863 C 0.1506 0.7797 0.54879 0.0
O2864 O 0.14409 0.7888 0.57351 0.0
O2865 O 0.15362 0.77814 0.57566 0.0
O2866 O 0.15374 0.7738 0.5543 0.0
O2867 O 0.14443 0.78472 0.55225 0.0
H2868 H 0.16147 0.79151 0.5641 0.0
H2869 H 0.17318 0.8026 0.56433 0.0
H2870 H 0.16857 0.8068 0.59215 0.0
H2871 H 0.15696 0.79554 0.59188 0.0
H2872 H 0.12029 0.76851 0.59592 0.0
H2873 H 0.12985 0.77346 0.58381 0.0
H2874 H 0.11036 0.74753 0.57937 0.0
H2875 H 0.11998 0.75244 0.56741 0.0
H2876 H 0.13324 0.77437 0.524 0.0
H2877 H 0.16156 0.77236 0.52143 0.0
H2878 H 0.1632 0.77547 0.53713 0.0
H2879 H 0.13494 0.77756 0.53975 0.0
C2880 C 0.4265 0.21178 0.15795 0.0
C2881 C 0.4342 0.20967 0.16262 0.0
C2882 C 0.42612 0.19891 0.17141 0.0
C2883 C 0.43402 0.20331 0.16928 0.0
C2884 C 0.41839 0.20113 0.16676 0.0
C2885 C 0.41859 0.20751 0.16008 0.0
U2886 U 0.43991 0.2271 0.14371 0.0
O2887 O 0.43967 0.22971 0.12945 0.0
O2888 O 0.43729 0.24052 0.13879 0.0
C2889 C 0.43738 0.23801 0.13049 0.0
C2890 C 0.4268 0.21827 0.15076 0.0
C2891 C 0.42992 0.24103 0.12507 0.0
C2892 C 0.41489 0.23942 0.1197 0.0
C2893 C 0.42178 0.23662 0.12518 0.0
C2894 C 0.42416 0.25116 0.11408 0.0
C2895 C 0.41602 0.2467 0.11404 0.0
C2896 C 0.43104 0.24834 0.11954 0.0
C2897 C 0.46498 0.22748 0.14881 0.0
C2898 C 0.4778 0.22968 0.1394 0.0
C2899 C 0.47925 0.23084 0.15527 0.0
C2900 C 0.47026 0.22909 0.15622 0.0
C2901 C 0.48318 0.23099 0.14686 0.0
C2902 C 0.46877 0.22796 0.14036 0.0
C2903 C 0.45578 0.22463 0.15018 0.0
O2904 O 0.42891 0.22633 0.15315 0.0
O2905 O 0.43102 0.21564 0.14366 0.0
O2906 O 0.45229 0.21961 0.14403 0.0
O2907 O 0.45029 0.23058 0.15328 0.0
H2908 H 0.44038 0.21292 0.16107 0.0
H2909 H 0.44006 0.20186 0.17281 0.0
H2910 H 0.41222 0.19782 0.16816 0.0
H2911 H 0.41258 0.20904 0.15652 0.0
H2912 H 0.40868 0.2359 0.1199 0.0
H2913 H 0.42079 0.23097 0.12945 0.0
H2914 H 0.42531 0.2567 0.10973 0.0
H2915 H 0.43728 0.25181 0.11936 0.0
H2916 H 0.4806 0.22984 0.13283 0.0
H2917 H 0.4832 0.23169 0.16116 0.0
H2918 H 0.46748 0.22871 0.16279 0.0
H2919 H 0.46482 0.22678 0.13453 0.0
C2920 C 0.79171 0.42643 0.15858 0.0
C2921 C 0.79366 0.43408 0.1634 0.0
C2922 C 0.80452 0.42602 0.17209 0.0
C2923 C 0.79999 0.43388 0.17009 0.0
C2924 C 0.80245 0.41834 0.16729 0.0
C2925 C 0.79611 0.41856 0.16058 0.0
U2926 U 0.77657 0.43989 0.14418 0.0
O2927 O 0.77408 0.43963 0.1299 0.0
O2928 O 0.76318 0.43733 0.13915 0.0
C2929 C 0.76577 0.43738 0.13087 0.0
C2930 C 0.78528 0.42676 0.15133 0.0
C2931 C 0.76277 0.42991 0.12546 0.0
C2932 C 0.76438 0.41485 0.12019 0.0
C2933 C 0.76716 0.42176 0.12566 0.0
C2934 C 0.75272 0.42412 0.11442 0.0
C2935 C 0.75715 0.41596 0.11447 0.0
C2936 C 0.75551 0.43102 0.11986 0.0
C2937 C 0.77626 0.46497 0.14922 0.0
C2938 C 0.77418 0.47777 0.13976 0.0
C2939 C 0.77292 0.47928 0.15561 0.0
C2940 C 0.77462 0.47028 0.1566 0.0
C2941 C 0.77284 0.48317 0.14719 0.0
C2942 C 0.77586 0.46874 0.14076 0.0
C2943 C 0.77906 0.45576 0.15064 0.0
O2944 O 0.7772 0.42891 0.15365 0.0
O2945 O 0.788 0.43095 0.14425 0.0
O2946 O 0.78412 0.45224 0.14453 0.0
O2947 O 0.77306 0.45031 0.1537 0.0
H2948 H 0.79031 0.44023 0.16194 0.0
H2949 H 0.80131 0.43988 0.17374 0.0
H2950 H 0.80588 0.41221 0.16858 0.0
H2951 H 0.7947 0.4126 0.15689 0.0
H2952 H 0.76788 0.40863 0.12046 0.0
H2953 H 0.77276 0.42077 0.12999 0.0
H2954 H 0.74721 0.42526 0.11002 0.0
H2955 H 0.75206 0.43727 0.11961 0.0
H2956 H 0.77407 0.48055 0.13318 0.0
H2957 H 0.77204 0.48324 0.16148 0.0
H2958 H 0.77495 0.46752 0.16319 0.0
H2959 H 0.77706 0.46477 0.13495 0.0
C2960 C 0.57868 0.79281 0.15833 0.0
C2961 C 0.57092 0.79494 0.16289 0.0
C2962 C 0.57893 0.80564 0.17182 0.0
C2963 C 0.57105 0.80128 0.16958 0.0
C2964 C 0.58672 0.80339 0.16727 0.0
C2965 C 0.58658 0.79704 0.16057 0.0
U2966 U 0.56538 0.77763 0.14384 0.0
O2967 O 0.56578 0.77509 0.12958 0.0
O2968 O 0.56797 0.76422 0.13889 0.0
C2969 C 0.56798 0.76676 0.1306 0.0
C2970 C 0.57845 0.78634 0.1511 0.0
C2971 C 0.57545 0.76369 0.12523 0.0
C2972 C 0.59042 0.76532 0.11971 0.0
C2973 C 0.58355 0.76816 0.12521 0.0
C2974 C 0.5812 0.75342 0.11437 0.0
C2975 C 0.5893 0.75795 0.11418 0.0
C2976 C 0.57435 0.75627 0.11983 0.0
C2977 C 0.54016 0.7774 0.14858 0.0
C2978 C 0.52621 0.77882 0.14072 0.0
C2979 C 0.52677 0.77081 0.15452 0.0
C2980 C 0.53583 0.77244 0.1551 0.0
C2981 C 0.5218 0.77418 0.14744 0.0
C2982 C 0.53528 0.78043 0.14129 0.0
C2983 C 0.54941 0.78018 0.15006 0.0
O2984 O 0.57625 0.77829 0.15344 0.0
O2985 O 0.57435 0.78903 0.14395 0.0
O2986 O 0.55305 0.78523 0.14401 0.0
O2987 O 0.55484 0.77422 0.15325 0.0
H2988 H 0.56476 0.79172 0.16125 0.0
H2989 H 0.56496 0.80274 0.17302 0.0
H2990 H 0.59288 0.80668 0.16876 0.0
H2991 H 0.59263 0.79549 0.15708 0.0
H2992 H 0.5966 0.7689 0.1198 0.0
H2993 H 0.58453 0.77388 0.12937 0.0
H2994 H 0.58006 0.7478 0.11011 0.0
H2995 H 0.56813 0.75276 0.11975 0.0
H2996 H 0.52259 0.78159 0.13523 0.0
H2997 H 0.52362 0.76709 0.15974 0.0
H2998 H 0.53939 0.77007 0.16082 0.0
H2999 H 0.53839 0.78433 0.13618 0.0
C3000 C 0.21186 0.5777 0.15766 0.0
C3001 C 0.20991 0.57008 0.16252 0.0
C3002 C 0.19904 0.57819 0.17116 0.0
C3003 C 0.20357 0.57032 0.16921 0.0
C3004 C 0.20112 0.58584 0.16632 0.0
C3005 C 0.20747 0.58559 0.15962 0.0
U3006 U 0.22705 0.56406 0.14354 0.0
O3007 O 0.22941 0.5639 0.12924 0.0
O3008 O 0.24037 0.56657 0.13833 0.0
C3009 C 0.23774 0.56616 0.13007 0.0
C3010 C 0.21828 0.57731 0.15039 0.0
C3011 C 0.24074 0.57334 0.12428 0.0
C3012 C 0.24006 0.58853 0.11916 0.0
C3013 C 0.23734 0.58192 0.12503 0.0
C3014 C 0.24967 0.57806 0.11186 0.0
C3015 C 0.24618 0.58664 0.11244 0.0
C3016 C 0.24697 0.57149 0.11773 0.0
C3017 C 0.22753 0.53914 0.14914 0.0
C3018 C 0.22998 0.52633 0.13979 0.0
C3019 C 0.23074 0.52487 0.15568 0.0
C3020 C 0.22895 0.53386 0.15659 0.0
C3021 C 0.23111 0.52095 0.14728 0.0
C3022 C 0.22823 0.53535 0.14071 0.0
C3023 C 0.22468 0.54835 0.15042 0.0
O3024 O 0.22638 0.57529 0.15273 0.0
O3025 O 0.21557 0.57294 0.14341 0.0
O3026 O 0.21955 0.55171 0.14429 0.0
O3027 O 0.23069 0.5539 0.1533 0.0
H3028 H 0.21325 0.56393 0.1611 0.0
H3029 H 0.20224 0.56434 0.17288 0.0
H3030 H 0.19769 0.59198 0.16759 0.0
H3031 H 0.20888 0.59153 0.1559 0.0
H3032 H 0.23719 0.59505 0.11974 0.0
H3033 H 0.23251 0.58346 0.13007 0.0
H3034 H 0.25451 0.57641 0.10687 0.0
H3035 H 0.24969 0.56491 0.11708 0.0
H3036 H 0.23032 0.52353 0.13323 0.0
H3037 H 0.23145 0.52093 0.16159 0.0
H3038 H 0.22841 0.53665 0.16315 0.0
H3039 H 0.2272 0.53931 0.13485 0.0
C3040 C 0.42612 0.79312 0.84598 0.0
C3041 C 0.43379 0.79507 0.84119 0.0
C3042 C 0.4258 0.80601 0.83255 0.0
C3043 C 0.43364 0.80144 0.83453 0.0
C3044 C 0.4181 0.80395 0.83731 0.0
C3045 C 0.41827 0.79756 0.84399 0.0
U3046 U 0.43955 0.77785 0.86025 0.0
O3047 O 0.43934 0.77527 0.87451 0.0
O3048 O 0.43697 0.76444 0.8652 0.0
C3049 C 0.43708 0.76696 0.87349 0.0
C3050 C 0.42641 0.78664 0.8532 0.0
C3051 C 0.42964 0.76392 0.87894 0.0
C3052 C 0.41467 0.76554 0.88446 0.0
C3053 C 0.42152 0.76836 0.87893 0.0
C3054 C 0.42395 0.75371 0.88989 0.0
C3055 C 0.41582 0.75821 0.89005 0.0
C3056 C 0.43078 0.75655 0.8844 0.0
C3057 C 0.46461 0.77755 0.85508 0.0
C3058 C 0.47746 0.77535 0.86446 0.0
C3059 C 0.47891 0.77433 0.84859 0.0
C3060 C 0.4699 0.77603 0.84766 0.0
C3061 C 0.48284 0.77413 0.85699 0.0
C3062 C 0.46841 0.77702 0.86352 0.0
C3063 C 0.4554 0.78036 0.85374 0.0
O3064 O 0.42853 0.77858 0.85082 0.0
O3065 O 0.43063 0.7893 0.86029 0.0
O3066 O 0.45191 0.78537 0.8599 0.0
O3067 O 0.44993 0.77438 0.85066 0.0
H3068 H 0.43992 0.79169 0.84265 0.0
H3069 H 0.43965 0.80275 0.83091 0.0
H3070 H 0.41198 0.8074 0.83601 0.0
H3071 H 0.4123 0.79616 0.84765 0.0
H3072 H 0.40847 0.76909 0.88435 0.0
H3073 H 0.42052 0.77404 0.87472 0.0
H3074 H 0.42511 0.74813 0.89419 0.0
H3075 H 0.43701 0.75306 0.8845 0.0
H3076 H 0.48026 0.77514 0.87103 0.0
H3077 H 0.48285 0.77355 0.84269 0.0
H3078 H 0.46711 0.77645 0.84109 0.0
H3079 H 0.46446 0.77813 0.86937 0.0
C3080 C 0.21141 0.42625 0.84639 0.0
C3081 C 0.2095 0.43387 0.84151 0.0
C3082 C 0.19865 0.4258 0.83283 0.0
C3083 C 0.2032 0.43365 0.83479 0.0
C3084 C 0.20069 0.41813 0.83766 0.0
C3085 C 0.20701 0.41836 0.8444 0.0
U3086 U 0.22628 0.43999 0.86068 0.0
O3087 O 0.22854 0.44009 0.87503 0.0
O3088 O 0.2396 0.43774 0.86597 0.0
C3089 C 0.23692 0.43803 0.87422 0.0
C3090 C 0.21775 0.42665 0.85372 0.0
C3091 C 0.2401 0.43091 0.88 0.0
C3092 C 0.24248 0.41539 0.88329 0.0
C3093 C 0.23925 0.42199 0.87767 0.0
C3094 C 0.24732 0.42658 0.89361 0.0
C3095 C 0.24661 0.41762 0.89132 0.0
C3096 C 0.24412 0.43315 0.888 0.0
C3097 C 0.22648 0.46491 0.8551 0.0
C3098 C 0.22889 0.47772 0.86446 0.0
C3099 C 0.22957 0.4792 0.84856 0.0
C3100 C 0.22783 0.4702 0.84765 0.0
C3101 C 0.22996 0.48311 0.85697 0.0
C3102 C 0.22718 0.46869 0.86353 0.0
C3103 C 0.22373 0.45567 0.85381 0.0
O3104 O 0.22585 0.42878 0.85147 0.0
O3105 O 0.21494 0.43094 0.8607 0.0
O3106 O 0.21863 0.45225 0.85993 0.0
O3107 O 0.22982 0.4502 0.85095 0.0
H3108 H 0.21284 0.44002 0.84296 0.0
H3109 H 0.2019 0.43963 0.83112 0.0
H3110 H 0.19726 0.412 0.83638 0.0
H3111 H 0.20838 0.41243 0.84814 0.0
H3112 H 0.24187 0.40856 0.88129 0.0
H3113 H 0.23614 0.42014 0.87151 0.0
H3114 H 0.25029 0.42855 0.89981 0.0
H3115 H 0.24478 0.44 0.88993 0.0
H3116 H 0.22925 0.48051 0.87102 0.0
H3117 H 0.23024 0.48316 0.84266 0.0
H3118 H 0.22728 0.46742 0.84109 0.0
H3119 H 0.22621 0.46472 0.86939 0.0
C3120 C 0.5783 0.2113 0.84584 0.0
C3121 C 0.57057 0.20915 0.84124 0.0
C3122 C 0.57863 0.19842 0.8324 0.0
C3123 C 0.57073 0.20278 0.83458 0.0
C3124 C 0.58639 0.20068 0.83698 0.0
C3125 C 0.58622 0.20706 0.84365 0.0
U3126 U 0.56491 0.22659 0.86011 0.0
O3127 O 0.56518 0.22923 0.87436 0.0
O3128 O 0.56748 0.24003 0.86499 0.0
C3129 C 0.56741 0.23754 0.8733 0.0
C3130 C 0.57803 0.2178 0.85303 0.0
C3131 C 0.57486 0.24062 0.8787 0.0
C3132 C 0.58987 0.23907 0.88414 0.0
C3133 C 0.583 0.23621 0.87866 0.0
C3134 C 0.58057 0.25087 0.8896 0.0
C3135 C 0.58872 0.24641 0.88972 0.0
C3136 C 0.57372 0.24799 0.88415 0.0
C3137 C 0.53982 0.22685 0.85507 0.0
C3138 C 0.52703 0.22906 0.86451 0.0
C3139 C 0.52551 0.23008 0.84864 0.0
C3140 C 0.5345 0.22837 0.84767 0.0
C3141 C 0.52162 0.23029 0.85707 0.0
C3142 C 0.53607 0.22738 0.86353 0.0
C3143 C 0.54903 0.22403 0.85368 0.0
O3144 O 0.57588 0.22585 0.85063 0.0
O3145 O 0.57385 0.21517 0.86015 0.0
O3146 O 0.55256 0.21905 0.85984 0.0
O3147 O 0.55448 0.23 0.85055 0.0
H3148 H 0.56439 0.21238 0.84283 0.0
H3149 H 0.56467 0.20131 0.8311 0.0
H3150 H 0.59256 0.19739 0.83553 0.0
H3151 H 0.59224 0.20863 0.84717 0.0
H3152 H 0.59608 0.23555 0.884 0.0
H3153 H 0.58401 0.23052 0.87446 0.0
H3154 H 0.57941 0.25645 0.8939 0.0
H3155 H 0.56747 0.25146 0.88428 0.0
H3156 H 0.52426 0.22928 0.87109 0.0
H3157 H 0.52153 0.23087 0.84276 0.0
H3158 H 0.53726 0.22794 0.84109 0.0
H3159 H 0.54005 0.22627 0.86935 0.0
C3160 C 0.79263 0.57782 0.84593 0.0
C3161 C 0.79476 0.57012 0.84126 0.0
C3162 C 0.80552 0.57823 0.83249 0.0
C3163 C 0.80113 0.57032 0.8346 0.0
C3164 C 0.80328 0.58595 0.83714 0.0
C3165 C 0.79689 0.58574 0.84382 0.0
U3166 U 0.77724 0.56438 0.86007 0.0
O3167 O 0.77462 0.56454 0.87432 0.0
O3168 O 0.76382 0.56702 0.86499 0.0
C3169 C 0.76632 0.56687 0.87329 0.0
C3170 C 0.78612 0.5775 0.85311 0.0
C3171 C 0.76334 0.57432 0.87875 0.0
C3172 C 0.76503 0.5893 0.8842 0.0
C3173 C 0.7678 0.58243 0.87868 0.0
C3174 C 0.75323 0.58007 0.88975 0.0
C3175 C 0.75773 0.58819 0.88984 0.0
C3176 C 0.75602 0.57321 0.88426 0.0
C3177 C 0.77677 0.53936 0.8548 0.0
C3178 C 0.77436 0.52654 0.86415 0.0
C3179 C 0.77352 0.5251 0.84826 0.0
C3180 C 0.77531 0.53408 0.84735 0.0
C3181 C 0.77319 0.52117 0.85666 0.0
C3182 C 0.77612 0.53556 0.86323 0.0
C3183 C 0.77966 0.54855 0.85349 0.0
O3184 O 0.77806 0.57544 0.8507 0.0
O3185 O 0.78874 0.57323 0.86019 0.0
O3186 O 0.78468 0.55197 0.85968 0.0
O3187 O 0.77373 0.55408 0.85042 0.0
H3188 H 0.79151 0.56394 0.84279 0.0
H3189 H 0.80258 0.56429 0.83107 0.0
H3190 H 0.80659 0.59213 0.83575 0.0
H3191 H 0.79535 0.59173 0.84738 0.0
H3192 H 0.76858 0.59549 0.88403 0.0
H3193 H 0.77345 0.58341 0.87442 0.0
H3194 H 0.74767 0.57893 0.8941 0.0
H3195 H 0.75251 0.56699 0.88441 0.0
H3196 H 0.77405 0.52373 0.87071 0.0
H3197 H 0.77278 0.52116 0.84235 0.0
H3198 H 0.77583 0.53687 0.84079 0.0
H3199 H 0.77718 0.53951 0.86909 0.0
C3200 C 0.15826 0.4265 0.21172 0.0
C3201 C 0.16294 0.43419 0.20959 0.0
C3202 C 0.17166 0.42607 0.19881 0.0
C3203 C 0.16959 0.43397 0.20321 0.0
C3204 C 0.167 0.41835 0.20105 0.0
C3205 C 0.16034 0.41858 0.20745 0.0
U3206 U 0.14406 0.43996 0.22706 0.0
O3207 O 0.12981 0.4397 0.22973 0.0
O3208 O 0.1392 0.43738 0.2405 0.0
C3209 C 0.13089 0.43745 0.23803 0.0
C3210 C 0.15108 0.42683 0.21825 0.0
C3211 C 0.12551 0.42997 0.24109 0.0
C3212 C 0.12023 0.41491 0.23957 0.0
C3213 C 0.12567 0.42181 0.23672 0.0
C3214 C 0.11456 0.42421 0.25126 0.0
C3215 C 0.11457 0.41604 0.24685 0.0
C3216 C 0.11997 0.4311 0.2484 0.0
C3217 C 0.14914 0.46503 0.22734 0.0
C3218 C 0.13974 0.47787 0.2295 0.0
C3219 C 0.15561 0.47931 0.23067 0.0
C3220 C 0.15655 0.47031 0.22894 0.0
C3221 C 0.1472 0.48324 0.23081 0.0
C3222 C 0.14069 0.46884 0.2278 0.0
C3223 C 0.1505 0.45583 0.22451 0.0
O3224 O 0.15351 0.42897 0.22629 0.0
O3225 O 0.14397 0.43103 0.21562 0.0
O3226 O 0.14433 0.45232 0.21953 0.0
O3227 O 0.15364 0.45036 0.23046 0.0
H3228 H 0.16142 0.44037 0.21284 0.0
H3229 H 0.17313 0.44 0.20175 0.0
H3230 H 0.16837 0.41218 0.19773 0.0
H3231 H 0.15676 0.41259 0.209 0.0
H3232 H 0.12047 0.40868 0.23608 0.0
H3233 H 0.12994 0.42082 0.23108 0.0
H3234 H 0.1102 0.42536 0.2568 0.0
H3235 H 0.11975 0.43736 0.25183 0.0
H3236 H 0.13317 0.48068 0.22966 0.0
H3237 H 0.1615 0.48325 0.23152 0.0
H3238 H 0.16312 0.46752 0.22857 0.0
H3239 H 0.13486 0.46489 0.22663 0.0
C3240 C 0.57784 0.15795 0.21163 0.0
C3241 C 0.57014 0.16262 0.20952 0.0
C3242 C 0.57821 0.17137 0.19873 0.0
C3243 C 0.57032 0.16927 0.20314 0.0
C3244 C 0.58595 0.16673 0.20095 0.0
C3245 C 0.58575 0.16006 0.20734 0.0
U3246 U 0.56446 0.14374 0.22701 0.0
O3247 O 0.56472 0.12949 0.22967 0.0
O3248 O 0.56708 0.13887 0.24044 0.0
C3249 C 0.567 0.13056 0.23796 0.0
C3250 C 0.57755 0.15077 0.21815 0.0
C3251 C 0.57446 0.12516 0.24101 0.0
C3252 C 0.58948 0.11976 0.23942 0.0
C3253 C 0.58259 0.12523 0.23659 0.0
C3254 C 0.58022 0.11424 0.25122 0.0
C3255 C 0.58836 0.11416 0.24675 0.0
C3256 C 0.57335 0.11968 0.24836 0.0
C3257 C 0.53938 0.14883 0.22739 0.0
C3258 C 0.52653 0.13944 0.22957 0.0
C3259 C 0.52512 0.15531 0.23079 0.0
C3260 C 0.53411 0.15624 0.22903 0.0
C3261 C 0.52118 0.14691 0.23091 0.0
C3262 C 0.53556 0.14039 0.22784 0.0
C3263 C 0.54857 0.15019 0.22452 0.0
O3264 O 0.57545 0.15319 0.2262 0.0
O3265 O 0.57334 0.14366 0.21554 0.0
O3266 O 0.55206 0.14402 0.21953 0.0
O3267 O 0.55406 0.15332 0.23046 0.0
H3268 H 0.56397 0.16108 0.21278 0.0
H3269 H 0.56428 0.17279 0.2017 0.0
H3270 H 0.59211 0.16811 0.19762 0.0
H3271 H 0.59175 0.1565 0.20888 0.0
H3272 H 0.59569 0.11993 0.23589 0.0
H3273 H 0.58358 0.12946 0.23091 0.0
H3274 H 0.57908 0.10993 0.25679 0.0
H3275 H 0.56711 0.11953 0.25184 0.0
H3276 H 0.52372 0.13288 0.22972 0.0
H3277 H 0.52119 0.1612 0.23167 0.0
H3278 H 0.53691 0.16281 0.22867 0.0
H3279 H 0.5395 0.13455 0.22663 0.0
C3280 C 0.84604 0.57787 0.21187 0.0
C3281 C 0.84143 0.57014 0.20973 0.0
C3282 C 0.83262 0.5782 0.19897 0.0
C3283 C 0.83478 0.57031 0.20335 0.0
C3284 C 0.83722 0.58595 0.20122 0.0
C3285 C 0.84388 0.58578 0.20761 0.0
U3286 U 0.86042 0.56455 0.22718 0.0
O3287 O 0.87466 0.56496 0.22982 0.0
O3288 O 0.86528 0.56719 0.24062 0.0
C3289 C 0.87358 0.5672 0.23813 0.0
C3290 C 0.85323 0.5776 0.21838 0.0
C3291 C 0.87893 0.57469 0.24119 0.0
C3292 C 0.88432 0.58971 0.23957 0.0
C3293 C 0.87887 0.5828 0.23674 0.0
C3294 C 0.88978 0.5805 0.25144 0.0
C3295 C 0.88989 0.58861 0.24693 0.0
C3296 C 0.88436 0.57362 0.24859 0.0
C3297 C 0.85566 0.53934 0.2275 0.0
C3298 C 0.86347 0.52536 0.22613 0.0
C3299 C 0.84969 0.526 0.23416 0.0
C3300 C 0.84913 0.53505 0.23248 0.0
C3301 C 0.85675 0.521 0.2308 0.0
C3302 C 0.86293 0.53443 0.22448 0.0
C3303 C 0.8542 0.54858 0.22466 0.0
O3304 O 0.85083 0.57543 0.22643 0.0
O3305 O 0.86038 0.57348 0.21575 0.0
O3306 O 0.86028 0.55219 0.21964 0.0
O3307 O 0.85097 0.55404 0.23058 0.0
H3308 H 0.84301 0.56397 0.21297 0.0
H3309 H 0.83129 0.56425 0.20188 0.0
H3310 H 0.83579 0.59212 0.19791 0.0
H3311 H 0.84741 0.5918 0.20917 0.0
H3312 H 0.88418 0.59589 0.23601 0.0
H3313 H 0.87468 0.58376 0.23103 0.0
H3314 H 0.89407 0.57938 0.25704 0.0
H3315 H 0.8845 0.56739 0.25209 0.0
H3316 H 0.86896 0.52171 0.22337 0.0
H3317 H 0.84446 0.52288 0.23789 0.0
H3318 H 0.84343 0.53864 0.23485 0.0
H3319 H 0.86805 0.5375 0.22056 0.0
C3320 C 0.42618 0.84568 0.21141 0.0
C3321 C 0.43391 0.84109 0.20926 0.0
C3322 C 0.42587 0.83226 0.1985 0.0
C3323 C 0.43376 0.83444 0.20288 0.0
C3324 C 0.4181 0.83683 0.20077 0.0
C3325 C 0.41826 0.8435 0.20716 0.0
U3326 U 0.43948 0.86013 0.22666 0.0
O3327 O 0.43899 0.87438 0.22929 0.0
O3328 O 0.43686 0.86499 0.2401 0.0
C3329 C 0.4368 0.87329 0.23761 0.0
C3330 C 0.42643 0.85287 0.21792 0.0
C3331 C 0.42929 0.8786 0.24071 0.0
C3332 C 0.41425 0.88395 0.23914 0.0
C3333 C 0.42116 0.87852 0.23628 0.0
C3334 C 0.42348 0.88943 0.25098 0.0
C3335 C 0.41535 0.88952 0.2465 0.0
C3336 C 0.43038 0.88403 0.2481 0.0
C3337 C 0.46472 0.85556 0.2269 0.0
C3338 C 0.47868 0.86338 0.22538 0.0
C3339 C 0.47806 0.8498 0.23375 0.0
C3340 C 0.46902 0.84917 0.23206 0.0
C3341 C 0.48306 0.85679 0.23024 0.0
C3342 C 0.46962 0.86276 0.22371 0.0
C3343 C 0.45549 0.85403 0.22409 0.0
O3344 O 0.42865 0.85049 0.22596 0.0
O3345 O 0.4305 0.86004 0.21526 0.0
O3346 O 0.45182 0.86007 0.21907 0.0
O3347 O 0.45006 0.85076 0.23002 0.0
H3348 H 0.44009 0.84269 0.21249 0.0
H3349 H 0.43983 0.83097 0.2014 0.0
H3350 H 0.41193 0.83539 0.19747 0.0
H3351 H 0.41224 0.847 0.20873 0.0
H3352 H 0.40805 0.88379 0.2356 0.0
H3353 H 0.4202 0.87434 0.23057 0.0
H3354 H 0.42461 0.89371 0.25658 0.0
H3355 H 0.43662 0.88418 0.25158 0.0
H3356 H 0.48233 0.8688 0.22249 0.0
H3357 H 0.48119 0.84468 0.23763 0.0
H3358 H 0.46544 0.84351 0.23456 0.0
H3359 H 0.46655 0.86777 0.21965 0.0
C3360 C 0.15813 0.5779 0.79268 0.0
C3361 C 0.16292 0.57025 0.79473 0.0
C3362 C 0.17153 0.57837 0.80561 0.0
C3363 C 0.16956 0.57048 0.80112 0.0
C3364 C 0.16676 0.58604 0.80345 0.0
C3365 C 0.16011 0.5858 0.79704 0.0
U3366 U 0.14395 0.5644 0.77736 0.0
O3367 O 0.1297 0.56462 0.77471 0.0
O3368 O 0.13906 0.56698 0.76392 0.0
C3369 C 0.13075 0.56689 0.76641 0.0
C3370 C 0.15095 0.57754 0.78617 0.0
C3371 C 0.12533 0.57434 0.76336 0.0
C3372 C 0.11995 0.58936 0.76493 0.0
C3373 C 0.12543 0.58248 0.76776 0.0
C3374 C 0.11437 0.58007 0.75318 0.0
C3375 C 0.11431 0.58822 0.75763 0.0
C3376 C 0.11983 0.57321 0.75603 0.0
C3377 C 0.14907 0.53934 0.77703 0.0
C3378 C 0.13967 0.52651 0.77483 0.0
C3379 C 0.15554 0.52507 0.77368 0.0
C3380 C 0.15649 0.53406 0.77543 0.0
C3381 C 0.14714 0.52114 0.77352 0.0
C3382 C 0.14063 0.53554 0.77655 0.0
C3383 C 0.15043 0.54854 0.77988 0.0
O3384 O 0.15337 0.57541 0.77812 0.0
O3385 O 0.14386 0.57332 0.7888 0.0
O3386 O 0.14426 0.55203 0.78487 0.0
O3387 O 0.15355 0.55402 0.77393 0.0
H3388 H 0.16148 0.56409 0.79141 0.0
H3389 H 0.17318 0.56449 0.80251 0.0
H3390 H 0.16804 0.5922 0.80684 0.0
H3391 H 0.15645 0.59175 0.79556 0.0
H3392 H 0.12013 0.59558 0.76844 0.0
H3393 H 0.12968 0.58348 0.77342 0.0
H3394 H 0.11004 0.57891 0.74763 0.0
H3395 H 0.11966 0.56695 0.75257 0.0
H3396 H 0.13311 0.52371 0.77465 0.0
H3397 H 0.16144 0.52112 0.77283 0.0
H3398 H 0.16306 0.53685 0.77582 0.0
H3399 H 0.13479 0.53948 0.77772 0.0
C3400 C 0.42612 0.15814 0.79276 0.0
C3401 C 0.43385 0.16278 0.79484 0.0
C3402 C 0.42585 0.17154 0.80569 0.0
C3403 C 0.43372 0.16942 0.80123 0.0
C3404 C 0.41809 0.16692 0.8035 0.0
C3405 C 0.41824 0.16027 0.79709 0.0
U3406 U 0.43938 0.14368 0.77748 0.0
O3407 O 0.43888 0.12944 0.77485 0.0
O3408 O 0.43675 0.13883 0.76404 0.0
C3409 C 0.43668 0.13053 0.76653 0.0
C3410 C 0.42635 0.15096 0.78625 0.0
C3411 C 0.42917 0.12523 0.76343 0.0
C3412 C 0.41414 0.11987 0.76501 0.0
C3413 C 0.42105 0.1253 0.76787 0.0
C3414 C 0.42336 0.11441 0.75315 0.0
C3415 C 0.41523 0.11431 0.75764 0.0
C3416 C 0.43025 0.11981 0.75603 0.0
C3417 C 0.46464 0.14824 0.77723 0.0
C3418 C 0.47861 0.14046 0.7788 0.0
C3419 C 0.47796 0.15398 0.77035 0.0
C3420 C 0.46892 0.1546 0.77203 0.0
C3421 C 0.48297 0.14702 0.7739 0.0
C3422 C 0.46955 0.14107 0.78046 0.0
C3423 C 0.4554 0.14977 0.78005 0.0
O3424 O 0.42856 0.15334 0.77821 0.0
O3425 O 0.43042 0.14378 0.7889 0.0
O3426 O 0.45173 0.14373 0.78506 0.0
O3427 O 0.44997 0.15305 0.77412 0.0
H3428 H 0.44 0.16122 0.79155 0.0
H3429 H 0.43978 0.17292 0.80265 0.0
H3430 H 0.41195 0.16832 0.80686 0.0
H3431 H 0.41221 0.15673 0.79558 0.0
H3432 H 0.40794 0.12002 0.76856 0.0
H3433 H 0.42009 0.12948 0.77359 0.0
H3434 H 0.42448 0.11013 0.74755 0.0
H3435 H 0.43649 0.11966 0.75254 0.0
H3436 H 0.48227 0.13506 0.78172 0.0
H3437 H 0.48108 0.15908 0.76644 0.0
H3438 H 0.46533 0.16024 0.76951 0.0
H3439 H 0.46649 0.13608 0.78456 0.0
C3440 C 0.84581 0.42599 0.79256 0.0
C3441 C 0.84109 0.43369 0.79456 0.0
C3442 C 0.83233 0.42569 0.8054 0.0
C3443 C 0.83441 0.43354 0.80091 0.0
C3444 C 0.83704 0.41796 0.80329 0.0
C3445 C 0.84373 0.41812 0.79692 0.0
U3446 U 0.86031 0.43932 0.77738 0.0
O3447 O 0.87458 0.43891 0.77485 0.0
O3448 O 0.86527 0.43672 0.76397 0.0
C3449 C 0.87355 0.4367 0.76652 0.0
C3450 C 0.85304 0.42626 0.78609 0.0
C3451 C 0.87892 0.42922 0.76346 0.0
C3452 C 0.88438 0.41423 0.7651 0.0
C3453 C 0.8789 0.42111 0.76793 0.0
C3454 C 0.88979 0.42344 0.75322 0.0
C3455 C 0.88994 0.41534 0.75774 0.0
C3456 C 0.88434 0.43031 0.75606 0.0
C3457 C 0.85562 0.46454 0.7771 0.0
C3458 C 0.86344 0.47851 0.77859 0.0
C3459 C 0.8498 0.47789 0.77033 0.0
C3460 C 0.84919 0.46884 0.772 0.0
C3461 C 0.85681 0.48288 0.77379 0.0
C3462 C 0.86285 0.46944 0.78024 0.0
C3463 C 0.85411 0.4553 0.77991 0.0
O3464 O 0.85071 0.42846 0.77804 0.0
O3465 O 0.86018 0.43036 0.78879 0.0
O3466 O 0.86014 0.45166 0.78497 0.0
O3467 O 0.85091 0.44987 0.77395 0.0
H3468 H 0.84261 0.43983 0.79124 0.0
H3469 H 0.83084 0.43958 0.80227 0.0
H3470 H 0.83568 0.41182 0.80669 0.0
H3471 H 0.84734 0.41213 0.79548 0.0
H3472 H 0.88426 0.40805 0.76867 0.0
H3473 H 0.87472 0.42015 0.77364 0.0
H3474 H 0.89407 0.42457 0.74761 0.0
H3475 H 0.88446 0.43653 0.75255 0.0
H3476 H 0.86888 0.48215 0.78144 0.0
H3477 H 0.84465 0.48102 0.76649 0.0
H3478 H 0.84352 0.46526 0.76954 0.0
H3479 H 0.86789 0.46637 0.78426 0.0
C3480 C 0.57845 0.84632 0.79262 0.0
C3481 C 0.57081 0.84146 0.79452 0.0
C3482 C 0.57881 0.83288 0.80551 0.0
C3483 C 0.57099 0.8348 0.80088 0.0
C3484 C 0.58649 0.8377 0.80349 0.0
C3485 C 0.5863 0.84438 0.7971 0.0
U3486 U 0.56485 0.86044 0.77743 0.0
O3487 O 0.56473 0.87473 0.775 0.0
O3488 O 0.56731 0.86558 0.76407 0.0
C3489 C 0.56693 0.87385 0.76666 0.0
C3490 C 0.57811 0.85357 0.78618 0.0
C3491 C 0.57409 0.87962 0.76356 0.0
C3492 C 0.58932 0.88463 0.76395 0.0
C3493 C 0.58273 0.87878 0.76677 0.0
C3494 C 0.5787 0.89207 0.75463 0.0
C3495 C 0.58735 0.89141 0.75792 0.0
C3496 C 0.57214 0.88624 0.75743 0.0
C3497 C 0.5399 0.85491 0.77713 0.0
C3498 C 0.52709 0.86426 0.77467 0.0
C3499 C 0.52559 0.84837 0.77412 0.0
C3500 C 0.53459 0.84746 0.77584 0.0
C3501 C 0.52169 0.85678 0.77368 0.0
C3502 C 0.53613 0.86334 0.77636 0.0
C3503 C 0.54913 0.85362 0.77992 0.0
O3504 O 0.57605 0.85122 0.77809 0.0
O3505 O 0.57379 0.86058 0.78886 0.0
O3506 O 0.55253 0.85978 0.785 0.0
O3507 O 0.55463 0.8507 0.7739 0.0
H3508 H 0.56469 0.84286 0.79111 0.0
H3509 H 0.56499 0.83113 0.80216 0.0
H3510 H 0.59259 0.83646 0.80698 0.0
H3511 H 0.59225 0.8481 0.79574 0.0
H3512 H 0.5959 0.88398 0.76666 0.0
H3513 H 0.58434 0.8737 0.77153 0.0
H3514 H 0.57698 0.89711 0.74987 0.0
H3515 H 0.56551 0.88695 0.75486 0.0
H3516 H 0.52431 0.87083 0.77427 0.0
H3517 H 0.52162 0.84246 0.77351 0.0
H3518 H 0.53736 0.8409 0.77644 0.0
H3519 H 0.54011 0.8692 0.77729 0.0
C3520 C 0.21197 0.15793 0.4265 0.0
C3521 C 0.20998 0.16276 0.43413 0.0
C3522 C 0.19907 0.17135 0.42604 0.0
C3523 C 0.20361 0.16942 0.4339 0.0
C3524 C 0.20119 0.16655 0.41837 0.0
C3525 C 0.20758 0.15988 0.41861 0.0
U3526 U 0.22725 0.14393 0.44014 0.0
O3527 O 0.22973 0.12965 0.44032 0.0
O3528 O 0.24062 0.13882 0.43765 0.0
C3529 C 0.23805 0.13054 0.43806 0.0
C3530 C 0.21844 0.15071 0.42689 0.0
C3531 C 0.2411 0.12478 0.43088 0.0
C3532 C 0.24057 0.11976 0.41566 0.0
C3533 C 0.2378 0.1256 0.42227 0.0
C3534 C 0.25004 0.11235 0.42619 0.0
C3535 C 0.24666 0.113 0.41757 0.0
C3536 C 0.24728 0.11818 0.43277 0.0
C3537 C 0.22768 0.14958 0.46506 0.0
C3538 C 0.23027 0.14028 0.47788 0.0
C3539 C 0.23073 0.15618 0.47933 0.0
C3540 C 0.22895 0.15706 0.47034 0.0
C3541 C 0.23125 0.14779 0.48325 0.0
C3542 C 0.22852 0.14117 0.46885 0.0
C3543 C 0.22482 0.15082 0.45584 0.0
O3544 O 0.22652 0.1531 0.42891 0.0
O3545 O 0.21578 0.14371 0.43126 0.0
O3546 O 0.21975 0.14464 0.4525 0.0
O3547 O 0.23081 0.15373 0.45029 0.0
H3548 H 0.21332 0.16135 0.44029 0.0
H3549 H 0.20225 0.17306 0.43989 0.0
H3550 H 0.19777 0.16782 0.41223 0.0
H3551 H 0.20901 0.15618 0.41267 0.0
H3552 H 0.23779 0.1204 0.40911 0.0
H3553 H 0.23301 0.13066 0.42071 0.0
H3554 H 0.25483 0.10733 0.42786 0.0
H3555 H 0.24992 0.11748 0.43938 0.0
H3556 H 0.23073 0.13373 0.48068 0.0
H3557 H 0.23133 0.16211 0.48328 0.0
H3558 H 0.22829 0.16361 0.46755 0.0
H3559 H 0.2276 0.13529 0.46489 0.0
C3560 C 0.21179 0.84618 0.57768 0.0
C3561 C 0.20968 0.84149 0.56999 0.0
C3562 C 0.1989 0.83275 0.5781 0.0
C3563 C 0.2033 0.83484 0.5702 0.0
C3564 C 0.20113 0.83741 0.58582 0.0
C3565 C 0.20752 0.84408 0.5856 0.0
U3566 U 0.22714 0.86042 0.56428 0.0
O3567 O 0.22975 0.87468 0.56455 0.0
O3568 O 0.24056 0.86533 0.56692 0.0
C3569 C 0.23805 0.87363 0.56684 0.0
C3570 C 0.2183 0.85336 0.57737 0.0
C3571 C 0.24106 0.87903 0.57433 0.0
C3572 C 0.23942 0.88435 0.58937 0.0
C3573 C 0.23663 0.87888 0.58246 0.0
C3574 C 0.25117 0.89001 0.58013 0.0
C3575 C 0.2467 0.89002 0.58827 0.0
C3576 C 0.24836 0.88457 0.57324 0.0
C3577 C 0.22757 0.85541 0.5392 0.0
C3578 C 0.2297 0.86484 0.52639 0.0
C3579 C 0.23108 0.849 0.52494 0.0
C3580 C 0.2293 0.84802 0.53392 0.0
C3581 C 0.23114 0.85741 0.52102 0.0
C3582 C 0.22795 0.86386 0.53541 0.0
C3583 C 0.22469 0.854 0.54839 0.0
O3584 O 0.22636 0.85096 0.57526 0.0
O3585 O 0.21566 0.86046 0.57315 0.0
O3586 O 0.21966 0.86014 0.55188 0.0
O3587 O 0.23063 0.85087 0.55387 0.0
H3588 H 0.21293 0.84302 0.56381 0.0
H3589 H 0.20185 0.8313 0.56416 0.0
H3590 H 0.19781 0.83603 0.59199 0.0
H3591 H 0.20906 0.84766 0.59159 0.0
H3592 H 0.23589 0.88412 0.59557 0.0
H3593 H 0.23099 0.8746 0.58342 0.0
H3594 H 0.25671 0.89437 0.579 0.0
H3595 H 0.25184 0.88478 0.567 0.0
H3596 H 0.22979 0.87141 0.52359 0.0
H3597 H 0.23204 0.84312 0.52099 0.0
H3598 H 0.22899 0.84144 0.5367 0.0
H3599 H 0.22668 0.86967 0.53935 0.0
C3600 C 0.15837 0.21139 0.57791 0.0
C3601 C 0.16309 0.20929 0.57024 0.0
C3602 C 0.17181 0.1985 0.57836 0.0
C3603 C 0.16975 0.20292 0.57046 0.0
C3604 C 0.1671 0.20071 0.58606 0.0
C3605 C 0.16042 0.20709 0.58583 0.0
U3606 U 0.14414 0.22669 0.56444 0.0
O3607 O 0.12989 0.22932 0.56467 0.0
O3608 O 0.13924 0.24012 0.56701 0.0
C3609 C 0.13094 0.23763 0.56693 0.0
C3610 C 0.15118 0.21789 0.57757 0.0
C3611 C 0.12552 0.24069 0.57437 0.0
C3612 C 0.12011 0.23914 0.58939 0.0
C3613 C 0.12559 0.23629 0.58252 0.0
C3614 C 0.11456 0.25088 0.58008 0.0
C3615 C 0.11448 0.24644 0.58824 0.0
C3616 C 0.12003 0.24802 0.57323 0.0
C3617 C 0.14923 0.22702 0.53937 0.0
C3618 C 0.13981 0.22921 0.52655 0.0
C3619 C 0.15568 0.23039 0.52509 0.0
C3620 C 0.15663 0.22863 0.53408 0.0
C3621 C 0.14727 0.23053 0.52117 0.0
C3622 C 0.14078 0.22749 0.53558 0.0
C3623 C 0.15061 0.22417 0.54857 0.0
O3624 O 0.15358 0.22594 0.57544 0.0
O3625 O 0.14408 0.21525 0.57335 0.0
O3626 O 0.14444 0.21917 0.55207 0.0
O3627 O 0.15372 0.23013 0.55404 0.0
H3628 H 0.16159 0.21256 0.56406 0.0
H3629 H 0.17333 0.2015 0.56444 0.0
H3630 H 0.16845 0.19737 0.59223 0.0
H3631 H 0.15681 0.20861 0.5918 0.0
H3632 H 0.12028 0.23563 0.59561 0.0
H3633 H 0.12983 0.23063 0.58353 0.0
H3634 H 0.11024 0.25645 0.57891 0.0
H3635 H 0.11987 0.25148 0.56698 0.0
H3636 H 0.13324 0.22938 0.52375 0.0
H3637 H 0.16157 0.23125 0.52114 0.0
H3638 H 0.16321 0.22825 0.53686 0.0
H3639 H 0.13495 0.22631 0.53953 0.0
C3640 C 0.79217 0.15777 0.5781 0.0
C3641 C 0.79426 0.16252 0.57044 0.0
C3642 C 0.80508 0.17119 0.57857 0.0
C3643 C 0.80064 0.16916 0.57067 0.0
C3644 C 0.80287 0.16647 0.58626 0.0
C3645 C 0.79648 0.15981 0.58602 0.0
U3646 U 0.77688 0.14378 0.56448 0.0
O3647 O 0.77431 0.12952 0.56436 0.0
O3648 O 0.76347 0.13876 0.56694 0.0
C3649 C 0.76598 0.13047 0.56658 0.0
C3650 C 0.78568 0.15057 0.57773 0.0
C3651 C 0.76284 0.12474 0.57375 0.0
C3652 C 0.76411 0.11874 0.58858 0.0
C3653 C 0.76697 0.12463 0.58204 0.0
C3654 C 0.75289 0.1132 0.57865 0.0
C3655 C 0.75711 0.11287 0.58691 0.0
C3656 C 0.75574 0.11907 0.57214 0.0
C3657 C 0.77659 0.14933 0.53953 0.0
C3658 C 0.7741 0.14004 0.52669 0.0
C3659 C 0.77354 0.15594 0.52525 0.0
C3660 C 0.77529 0.15681 0.53425 0.0
C3661 C 0.77309 0.14755 0.52132 0.0
C3662 C 0.77582 0.14092 0.53572 0.0
C3663 C 0.77941 0.15058 0.54875 0.0
O3664 O 0.77761 0.15299 0.57567 0.0
O3665 O 0.78831 0.14354 0.5734 0.0
O3666 O 0.78444 0.14438 0.55214 0.0
O3667 O 0.77342 0.15355 0.55427 0.0
H3668 H 0.79098 0.16103 0.56426 0.0
H3669 H 0.80207 0.17274 0.56466 0.0
H3670 H 0.80622 0.16781 0.59243 0.0
H3671 H 0.79496 0.15618 0.59199 0.0
H3672 H 0.76755 0.11862 0.59484 0.0
H3673 H 0.77247 0.12898 0.58339 0.0
H3674 H 0.74739 0.10888 0.57719 0.0
H3675 H 0.75245 0.1191 0.5658 0.0
H3676 H 0.7737 0.13348 0.52388 0.0
H3677 H 0.77292 0.16186 0.52131 0.0
H3678 H 0.7759 0.16336 0.53705 0.0
H3679 H 0.77675 0.13504 0.53968 0.0
C3680 C 0.84588 0.7928 0.57782 0.0
C3681 C 0.84109 0.79485 0.57018 0.0
C3682 C 0.83243 0.80567 0.57832 0.0
C3683 C 0.83443 0.80121 0.57042 0.0
C3684 C 0.8372 0.80351 0.58599 0.0
C3685 C 0.84388 0.79713 0.58574 0.0
U3686 U 0.86013 0.77752 0.56433 0.0
O3687 O 0.87438 0.77492 0.56457 0.0
O3688 O 0.86506 0.7641 0.56692 0.0
C3689 C 0.87335 0.76661 0.56683 0.0
C3690 C 0.85308 0.78631 0.57747 0.0
C3691 C 0.87878 0.76357 0.57428 0.0
C3692 C 0.88424 0.76517 0.58927 0.0
C3693 C 0.87874 0.768 0.58241 0.0
C3694 C 0.88973 0.75337 0.58 0.0
C3695 C 0.88984 0.75785 0.58813 0.0
C3696 C 0.88426 0.75622 0.57315 0.0
C3697 C 0.85505 0.77715 0.53926 0.0
C3698 C 0.86445 0.7751 0.52641 0.0
C3699 C 0.84861 0.77362 0.52502 0.0
C3700 C 0.84765 0.77538 0.53401 0.0
C3701 C 0.857 0.77362 0.52106 0.0
C3702 C 0.86349 0.77683 0.53543 0.0
C3703 C 0.85366 0.78 0.54846 0.0
O3704 O 0.85069 0.77825 0.57534 0.0
O3705 O 0.86017 0.78897 0.57324 0.0
O3706 O 0.8598 0.78503 0.55196 0.0
O3707 O 0.85055 0.77405 0.55394 0.0
H3708 H 0.84255 0.79156 0.56401 0.0
H3709 H 0.83081 0.80261 0.56443 0.0
H3710 H 0.8359 0.80687 0.59216 0.0
H3711 H 0.84753 0.79564 0.59169 0.0
H3712 H 0.88409 0.76871 0.59548 0.0
H3713 H 0.87451 0.77367 0.5834 0.0
H3714 H 0.89404 0.7478 0.57885 0.0
H3715 H 0.88439 0.75273 0.56691 0.0
H3716 H 0.87101 0.77505 0.52358 0.0
H3717 H 0.84272 0.77263 0.5211 0.0
H3718 H 0.84108 0.77564 0.53681 0.0
H3719 H 0.86932 0.77813 0.53936 0.0
C3720 C 0.79119 0.84598 0.42667 0.0
C3721 C 0.79302 0.84101 0.43426 0.0
C3722 C 0.804 0.83247 0.42621 0.0
C3723 C 0.79935 0.83432 0.43403 0.0
C3724 C 0.80205 0.83741 0.41858 0.0
C3725 C 0.7957 0.84412 0.41882 0.0
U3726 U 0.77611 0.86014 0.44036 0.0
O3727 O 0.77375 0.87444 0.44051 0.0
O3728 O 0.76277 0.86536 0.43793 0.0
C3729 C 0.76541 0.87361 0.43829 0.0
C3730 C 0.78479 0.85326 0.42707 0.0
C3731 C 0.76239 0.87938 0.4311 0.0
C3732 C 0.76325 0.88467 0.41599 0.0
C3733 C 0.76599 0.87881 0.42259 0.0
C3734 C 0.75322 0.89159 0.42631 0.0
C3735 C 0.75691 0.89121 0.41781 0.0
C3736 C 0.75594 0.88574 0.43289 0.0
C3737 C 0.77579 0.85453 0.46529 0.0
C3738 C 0.77336 0.86387 0.47811 0.0
C3739 C 0.7728 0.84798 0.4796 0.0
C3740 C 0.77451 0.84708 0.47059 0.0
C3741 C 0.77237 0.85638 0.48351 0.0
C3742 C 0.77504 0.86296 0.46907 0.0
C3743 C 0.77857 0.85326 0.45606 0.0
O3744 O 0.77669 0.85095 0.42914 0.0
O3745 O 0.78753 0.86024 0.43141 0.0
O3746 O 0.78368 0.85939 0.45267 0.0
O3747 O 0.77252 0.85039 0.45055 0.0
H3748 H 0.78959 0.84236 0.44038 0.0
H3749 H 0.80059 0.83057 0.43998 0.0
H3750 H 0.80556 0.83622 0.41248 0.0
H3751 H 0.79439 0.84792 0.41292 0.0
H3752 H 0.76627 0.88423 0.40953 0.0
H3753 H 0.77099 0.87392 0.42111 0.0
H3754 H 0.74821 0.89643 0.42791 0.0
H3755 H 0.75307 0.88624 0.43941 0.0
H3756 H 0.77297 0.87043 0.4809 0.0
H3757 H 0.7722 0.84207 0.48356 0.0
H3758 H 0.7751 0.84052 0.46781 0.0
H3759 H 0.77596 0.86882 0.46509 0.0
C3760 C 0.15884 0.79182 0.42657 0.0
C3761 C 0.16367 0.79376 0.43422 0.0
C3762 C 0.17229 0.80469 0.42618 0.0
C3763 C 0.17034 0.80012 0.43403 0.0
C3764 C 0.16748 0.80264 0.41851 0.0
C3765 C 0.1608 0.79626 0.41871 0.0
U3766 U 0.14448 0.77663 0.44001 0.0
O3767 O 0.13021 0.77407 0.43972 0.0
O3768 O 0.13952 0.76322 0.43745 0.0
C3769 C 0.13123 0.76576 0.43748 0.0
C3770 C 0.15161 0.78536 0.42688 0.0
C3771 C 0.12585 0.76273 0.43 0.0
C3772 C 0.12064 0.76428 0.41491 0.0
C3773 C 0.12607 0.76709 0.42183 0.0
C3774 C 0.11486 0.75263 0.4242 0.0
C3775 C 0.11492 0.75704 0.41603 0.0
C3776 C 0.12027 0.75546 0.43111 0.0
C3777 C 0.14945 0.77636 0.4651 0.0
C3778 C 0.13996 0.77425 0.47788 0.0
C3779 C 0.15581 0.77301 0.47942 0.0
C3780 C 0.15682 0.77473 0.47043 0.0
C3781 C 0.14738 0.77291 0.4833 0.0
C3782 C 0.14098 0.77593 0.46885 0.0
C3783 C 0.15089 0.77916 0.4559 0.0
O3784 O 0.15397 0.7773 0.42905 0.0
O3785 O 0.14451 0.78805 0.43106 0.0
O3786 O 0.14477 0.78419 0.45236 0.0
O3787 O 0.154 0.77318 0.45046 0.0
H3788 H 0.16224 0.79038 0.44035 0.0
H3789 H 0.17399 0.80143 0.44002 0.0
H3790 H 0.16874 0.80609 0.41239 0.0
H3791 H 0.1571 0.79487 0.41275 0.0
H3792 H 0.12092 0.76776 0.40868 0.0
H3793 H 0.13039 0.7727 0.42085 0.0
H3794 H 0.11046 0.74712 0.42534 0.0
H3795 H 0.12001 0.75203 0.43737 0.0
H3796 H 0.13337 0.77412 0.48064 0.0
H3797 H 0.16168 0.77214 0.4834 0.0
H3798 H 0.16341 0.77507 0.46768 0.0
H3799 H 0.13517 0.77713 0.46486 0.0
C3800 C 0.8459 0.21157 0.42624 0.0
C3801 C 0.84116 0.20956 0.43393 0.0
C3802 C 0.83245 0.19869 0.42591 0.0
C3803 C 0.8345 0.2032 0.43376 0.0
C3804 C 0.83717 0.20081 0.41819 0.0
C3805 C 0.84385 0.20719 0.41836 0.0
U3806 U 0.86035 0.22676 0.4396 0.0
O3807 O 0.87461 0.22933 0.43919 0.0
O3808 O 0.86527 0.24019 0.43701 0.0
C3809 C 0.87357 0.23766 0.43699 0.0
C3810 C 0.85311 0.21805 0.42651 0.0
C3811 C 0.87893 0.24073 0.42951 0.0
C3812 C 0.88434 0.23914 0.4145 0.0
C3813 C 0.87887 0.2363 0.42139 0.0
C3814 C 0.88981 0.25097 0.42374 0.0
C3815 C 0.88992 0.24649 0.41562 0.0
C3816 C 0.88437 0.24812 0.43061 0.0
C3817 C 0.8556 0.22698 0.46482 0.0
C3818 C 0.86336 0.22545 0.47881 0.0
C3819 C 0.84969 0.23366 0.47817 0.0
C3820 C 0.84913 0.23203 0.46911 0.0
C3821 C 0.85669 0.23019 0.48318 0.0
C3822 C 0.86282 0.22385 0.46973 0.0
C3823 C 0.85413 0.2242 0.45556 0.0
O3824 O 0.85076 0.2261 0.42872 0.0
O3825 O 0.86026 0.21536 0.43062 0.0
O3826 O 0.86019 0.21917 0.45193 0.0
O3827 O 0.85093 0.23015 0.45013 0.0
H3828 H 0.84266 0.21289 0.44007 0.0
H3829 H 0.83092 0.20184 0.43979 0.0
H3830 H 0.83583 0.19741 0.41206 0.0
H3831 H 0.84747 0.20864 0.41238 0.0
H3832 H 0.88419 0.2356 0.4083 0.0
H3833 H 0.87467 0.2306 0.42041 0.0
H3834 H 0.8941 0.25657 0.42488 0.0
H3835 H 0.88451 0.2516 0.43685 0.0
H3836 H 0.8688 0.22261 0.48246 0.0
H3837 H 0.8445 0.23745 0.48129 0.0
H3838 H 0.84346 0.23448 0.46552 0.0
H3839 H 0.86789 0.21987 0.46666 0.0
C3840 C 0.09737 0.24549 0.39766 0.0
C3841 C 0.09571 0.25449 0.39614 0.0
H3842 H 0.10456 0.23586 0.40507 0.0
C3843 C 0.10066 0.26078 0.40082 0.0
H3844 H 0.09375 0.24047 0.39408 0.0
C3845 C 0.10692 0.25813 0.40707 0.0
C3846 C 0.1084 0.24913 0.40877 0.0
H3847 H 0.09951 0.26776 0.39987 0.0
H3848 H 0.11054 0.26315 0.41063 0.0
C3849 C 0.10364 0.24284 0.40389 0.0
C3850 C 0.75297 0.1094 0.40191 0.0
C3851 C 0.75567 0.10656 0.41033 0.0
H3852 H 0.74831 0.10566 0.38908 0.0
C3853 C 0.75579 0.09746 0.41213 0.0
H3854 H 0.75275 0.11636 0.40033 0.0
C3855 C 0.75321 0.09136 0.40573 0.0
C3856 C 0.75044 0.09418 0.39734 0.0
H3857 H 0.75794 0.09503 0.41849 0.0
H3858 H 0.75326 0.08442 0.40742 0.0
C3859 C 0.75034 0.10327 0.3955 0.0
C3860 C 0.91017 0.75937 0.39988 0.0
C3861 C 0.9098 0.75068 0.39665 0.0
H3862 H 0.90447 0.76912 0.40835 0.0
C3863 C 0.90285 0.7452 0.39945 0.0
H3864 H 0.9153 0.76384 0.39772 0.0
C3865 C 0.8966 0.74825 0.40553 0.0
C3866 C 0.89717 0.75684 0.40897 0.0
H3867 H 0.90241 0.73844 0.39717 0.0
H3868 H 0.8915 0.74377 0.40776 0.0
C3869 C 0.90395 0.76241 0.40596 0.0
C3870 C 0.25579 0.89715 0.4051 0.0
C3871 C 0.24753 0.89818 0.40919 0.0
H3872 H 0.26536 0.90257 0.39621 0.0
C3873 C 0.24227 0.90544 0.40684 0.0
H3874 H 0.26004 0.89167 0.40682 0.0
C3875 C 0.24529 0.91165 0.40074 0.0
C3876 C 0.25367 0.9108 0.39686 0.0
H3877 H 0.23581 0.90634 0.40975 0.0
H3878 H 0.24105 0.91716 0.3991 0.0
C3879 C 0.25884 0.90339 0.39901 0.0
C3880 C 0.10064 0.74319 0.60371 0.0
C3881 C 0.09569 0.74949 0.60838 0.0
H3882 H 0.11053 0.7408 0.59391 0.0
C3883 C 0.09735 0.75849 0.60685 0.0
H3884 H 0.09949 0.73621 0.60467 0.0
C3885 C 0.10363 0.76112 0.60062 0.0
C3886 C 0.10839 0.75482 0.59575 0.0
H3887 H 0.09374 0.76351 0.61041 0.0
H3888 H 0.10456 0.7681 0.59943 0.0
C3889 C 0.1069 0.74582 0.59746 0.0
C3890 C 0.25049 0.10879 0.60275 0.0
C3891 C 0.25033 0.10682 0.59368 0.0
H3892 H 0.25308 0.10408 0.61584 0.0
C3893 C 0.25282 0.09833 0.59093 0.0
H3894 H 0.24867 0.11529 0.60508 0.0
C3895 C 0.25538 0.09195 0.59706 0.0
C3896 C 0.25553 0.09388 0.60613 0.0
H3897 H 0.25267 0.09654 0.58401 0.0
H3898 H 0.25732 0.0855 0.59467 0.0
C3899 C 0.25309 0.1024 0.6089 0.0
C3900 C 0.90062 0.24276 0.60092 0.0
C3901 C 0.8958 0.24904 0.59609 0.0
H3902 H 0.9106 0.2404 0.61063 0.0
C3903 C 0.89725 0.25804 0.59781 0.0
H3904 H 0.89973 0.23578 0.59972 0.0
C3905 C 0.90355 0.2607 0.60402 0.0
C3906 C 0.90857 0.25442 0.60864 0.0
H3907 H 0.89357 0.26306 0.5943 0.0
H3908 H 0.90467 0.26768 0.60499 0.0
C3909 C 0.90693 0.24541 0.60711 0.0
C3910 C 0.75334 0.90639 0.59179 0.0
C3911 C 0.75461 0.89752 0.59418 0.0
H3912 H 0.74979 0.91938 0.59593 0.0
C3913 C 0.75329 0.89506 0.60303 0.0
H3914 H 0.75441 0.90854 0.58506 0.0
C3915 C 0.75069 0.90132 0.60931 0.0
C3916 C 0.74944 0.9102 0.6069 0.0
H3917 H 0.75415 0.88827 0.60507 0.0
H3918 H 0.74976 0.89924 0.61608 0.0
C3919 C 0.75079 0.91263 0.59805 0.0
C3920 C 0.40055 0.10105 0.26122 0.0
C3921 C 0.39579 0.09616 0.25494 0.0
H3922 H 0.41045 0.11084 0.26357 0.0
C3923 C 0.39728 0.09783 0.24593 0.0
H3924 H 0.39962 0.09989 0.2682 0.0
C3925 C 0.40355 0.10406 0.24327 0.0
C3926 C 0.40851 0.10875 0.24955 0.0
H3927 H 0.39365 0.09426 0.24092 0.0
H3928 H 0.40471 0.10499 0.23629 0.0
C3929 C 0.40684 0.10726 0.25856 0.0
C3930 C 0.91108 0.39958 0.24502 0.0
C3931 C 0.9106 0.39621 0.25364 0.0
H3932 H 0.90546 0.40817 0.23532 0.0
C3933 C 0.90353 0.39883 0.25905 0.0
H3934 H 0.91631 0.39756 0.2406 0.0
C3935 C 0.89727 0.4049 0.256 0.0
C3936 C 0.89794 0.40849 0.24747 0.0
H3937 H 0.903 0.39643 0.26576 0.0
H3938 H 0.89207 0.407 0.26042 0.0
C3939 C 0.90485 0.40566 0.24198 0.0
C3940 C 0.60726 0.9071 0.24607 0.0
C3941 C 0.60876 0.90877 0.25508 0.0
H3942 H 0.59986 0.8999 0.23644 0.0
C3943 C 0.60404 0.90385 0.26136 0.0
H3944 H 0.61086 0.91069 0.24106 0.0
C3945 C 0.59778 0.8976 0.25871 0.0
C3946 C 0.59611 0.89611 0.24971 0.0
H3947 H 0.60498 0.90501 0.26835 0.0
H3948 H 0.5942 0.894 0.26373 0.0
C3949 C 0.60102 0.90083 0.24342 0.0
C3950 C 0.10065 0.60353 0.26067 0.0
C3951 C 0.09563 0.60815 0.25438 0.0
H3952 H 0.11062 0.59381 0.26304 0.0
C3953 C 0.09724 0.60658 0.24538 0.0
H3954 H 0.09955 0.60453 0.26765 0.0
C3955 C 0.10354 0.60037 0.24273 0.0
C3956 C 0.10837 0.59556 0.24903 0.0
H3957 H 0.09358 0.61009 0.24036 0.0
H3958 H 0.10443 0.59915 0.23575 0.0
C3959 C 0.10693 0.59731 0.25802 0.0
C3960 C 0.41227 0.90159 0.74555 0.0
C3961 C 0.41104 0.89721 0.75364 0.0
H3962 H 0.40727 0.91096 0.73626 0.0
C3963 C 0.40327 0.89888 0.75845 0.0
H3964 H 0.41806 0.90032 0.74156 0.0
C3965 C 0.39704 0.90497 0.75536 0.0
C3966 C 0.39844 0.90955 0.74742 0.0
H3967 H 0.40214 0.8957 0.76474 0.0
H3968 H 0.39127 0.90631 0.75935 0.0
C3969 C 0.40607 0.90768 0.74249 0.0
C3970 C 0.10066 0.40077 0.74303 0.0
C3971 C 0.0958 0.39599 0.74932 0.0
H3972 H 0.11044 0.41068 0.74066 0.0
C3973 C 0.09752 0.39745 0.75832 0.0
H3974 H 0.09946 0.39987 0.73605 0.0
C3975 C 0.10377 0.4037 0.76097 0.0
C3976 C 0.10843 0.40868 0.75468 0.0
H3977 H 0.09398 0.3938 0.76334 0.0
H3978 H 0.10474 0.40483 0.76795 0.0
C3979 C 0.10689 0.40704 0.74568 0.0
C3980 C 0.59782 0.10648 0.7455 0.0
C3981 C 0.59613 0.10797 0.7545 0.0
H3982 H 0.60503 0.0991 0.73586 0.0
C3983 C 0.60105 0.10324 0.76078 0.0
H3984 H 0.59423 0.11008 0.74048 0.0
C3985 C 0.60731 0.09699 0.75813 0.0
C3986 C 0.60881 0.09533 0.74913 0.0
H3987 H 0.59989 0.10417 0.76777 0.0
H3988 H 0.61091 0.0934 0.76314 0.0
C3989 C 0.60409 0.10025 0.74284 0.0
C3990 C 0.90376 0.60393 0.74298 0.0
C3991 C 0.90869 0.60863 0.74927 0.0
H3992 H 0.8939 0.59409 0.7406 0.0
C3993 C 0.90701 0.60711 0.75827 0.0
H3994 H 0.90492 0.60487 0.73599 0.0
C3995 C 0.90075 0.60088 0.76091 0.0
C3996 C 0.89601 0.59597 0.75462 0.0
H3997 H 0.91061 0.6107 0.76329 0.0
H3998 H 0.89981 0.5997 0.76789 0.0
C3999 C 0.89751 0.59767 0.74562 0.0
C4000 C 0.26115 0.40057 0.10054 0.0
C4001 C 0.25484 0.39586 0.09565 0.0
H4002 H 0.26358 0.41041 0.11038 0.0
C4003 C 0.24584 0.39738 0.09736 0.0
H4004 H 0.26813 0.39963 0.09935 0.0
C4005 C 0.24323 0.40362 0.10364 0.0
C4006 C 0.24955 0.40853 0.10833 0.0
H4007 H 0.2408 0.39379 0.0938 0.0
H4008 H 0.23625 0.4048 0.1046 0.0
C4009 C 0.25854 0.40683 0.10679 0.0
C4010 C 0.26178 0.59913 0.90694 0.0
C4011 C 0.25669 0.60657 0.90906 0.0
H4012 H 0.26282 0.58726 0.8994 0.0
C4013 C 0.24856 0.60779 0.90476 0.0
H4014 H 0.26815 0.59808 0.91001 0.0
C4015 C 0.24547 0.60155 0.89869 0.0
C4016 C 0.25045 0.59396 0.89677 0.0
H4017 H 0.24445 0.61343 0.90631 0.0
H4018 H 0.23904 0.60253 0.89573 0.0
C4019 C 0.25871 0.59291 0.90086 0.0
C4020 C 0.40518 0.26171 0.90673 0.0
C4021 C 0.39793 0.25644 0.90911 0.0
H4022 H 0.4169 0.26293 0.89898 0.0
C4023 C 0.39693 0.24816 0.90506 0.0
H4024 H 0.40605 0.2682 0.9096 0.0
C4025 C 0.40319 0.2451 0.89899 0.0
C4026 C 0.41058 0.25027 0.89682 0.0
H4027 H 0.39146 0.2439 0.90681 0.0
H4028 H 0.40239 0.23856 0.89623 0.0
C4029 C 0.4114 0.25868 0.90065 0.0
C4030 C 0.75267 0.40585 0.91274 0.0
C4031 C 0.7502 0.39734 0.91 0.0
H4032 H 0.75715 0.41867 0.90898 0.0
C4033 C 0.75039 0.39536 0.90094 0.0
H4034 H 0.75251 0.40765 0.91965 0.0
C4035 C 0.753 0.40174 0.89478 0.0
C4036 C 0.75541 0.41026 0.89754 0.0
H4037 H 0.74859 0.38885 0.89861 0.0
H4038 H 0.753 0.40004 0.88784 0.0
C4039 C 0.75524 0.41221 0.9066 0.0
C4040 C 0.60113 0.75917 0.89881 0.0
C4041 C 0.59387 0.7539 0.89641 0.0
H4042 H 0.61273 0.7604 0.90681 0.0
C4043 C 0.59318 0.74538 0.90001 0.0
H4044 H 0.60182 0.76579 0.89624 0.0
C4045 C 0.5994 0.74232 0.90609 0.0
C4046 C 0.6065 0.74767 0.9087 0.0
H4047 H 0.5878 0.74106 0.89817 0.0
H4048 H 0.59863 0.73574 0.90878 0.0
C4049 C 0.60738 0.75608 0.90488 0.0
C4050 C 0.7459 0.59733 0.10679 0.0
C4051 C 0.7549 0.59562 0.10832 0.0
H4052 H 0.73631 0.60454 0.09934 0.0
C4053 C 0.76122 0.6005 0.1036 0.0
H4054 H 0.74086 0.59376 0.11038 0.0
C4055 C 0.7586 0.60674 0.09732 0.0
C4056 C 0.74961 0.60827 0.09561 0.0
H4057 H 0.76819 0.59932 0.10456 0.0
H4058 H 0.76365 0.61031 0.09374 0.0
C4059 C 0.74329 0.60358 0.10052 0.0
C4060 C 0.41031 0.74459 0.10453 0.0
C4061 C 0.40992 0.75327 0.10777 0.0
H4062 H 0.40462 0.73484 0.09605 0.0
C4063 C 0.40294 0.75873 0.10503 0.0
H4064 H 0.41548 0.74013 0.10664 0.0
C4065 C 0.39667 0.75567 0.09897 0.0
C4066 C 0.39726 0.74708 0.09551 0.0
H4067 H 0.40248 0.76548 0.10732 0.0
H4068 H 0.39154 0.76013 0.09677 0.0
C4069 C 0.40408 0.74154 0.09846 0.0
C4070 C 0.60356 0.26089 0.10039 0.0
C4071 C 0.6082 0.25459 0.09541 0.0
H4072 H 0.5938 0.26327 0.11032 0.0
C4073 C 0.60665 0.24559 0.09705 0.0
H4074 H 0.60454 0.26787 0.09927 0.0
C4075 C 0.60043 0.24296 0.10334 0.0
C4076 C 0.59559 0.24925 0.10813 0.0
H4077 H 0.61019 0.24057 0.09341 0.0
H4078 H 0.59922 0.23597 0.10425 0.0
C4079 C 0.59733 0.25825 0.10667 0.0
C4080 C 0.89753 0.74604 0.59693 0.0
C4081 C 0.89602 0.75504 0.59524 0.0
H4082 H 0.90495 0.73641 0.60412 0.0
C4083 C 0.90077 0.76133 0.60013 0.0
H4084 H 0.89391 0.74102 0.59337 0.0
C4085 C 0.90705 0.75869 0.60635 0.0
C4086 C 0.90873 0.74969 0.60787 0.0
H4087 H 0.89983 0.76831 0.59896 0.0
H4088 H 0.91066 0.76371 0.60993 0.0
C4089 C 0.90379 0.7434 0.60317 0.0
C4090 C 0.26105 0.90394 0.60342 0.0
C4091 C 0.25472 0.90879 0.60815 0.0
H4092 H 0.2635 0.89416 0.59352 0.0
C4093 C 0.24573 0.90706 0.60663 0.0
H4094 H 0.26803 0.90514 0.60437 0.0
C4095 C 0.24314 0.90082 0.60035 0.0
C4096 C 0.24946 0.89616 0.59542 0.0
H4097 H 0.24068 0.9106 0.61024 0.0
H4098 H 0.23616 0.89984 0.59918 0.0
C4099 C 0.25845 0.89771 0.59712 0.0
C4100 C 0.09733 0.24566 0.60651 0.0
C4101 C 0.09565 0.25466 0.60799 0.0
H4102 H 0.10455 0.23601 0.59914 0.0
C4103 C 0.10056 0.26094 0.60325 0.0
H4104 H 0.09375 0.24064 0.61013 0.0
C4105 C 0.10681 0.25828 0.597 0.0
C4106 C 0.10832 0.24927 0.59535 0.0
H4107 H 0.09939 0.26792 0.60417 0.0
H4108 H 0.11041 0.26329 0.5934 0.0
C4109 C 0.1036 0.243 0.60028 0.0
C4110 C 0.74985 0.09119 0.59714 0.0
C4111 C 0.74924 0.09333 0.60614 0.0
H4112 H 0.75289 0.09559 0.5841 0.0
C4113 C 0.7512 0.102 0.6088 0.0
H4114 H 0.74828 0.08462 0.59484 0.0
C4115 C 0.75378 0.10836 0.60259 0.0
C4116 C 0.75439 0.10619 0.59359 0.0
H4117 H 0.75086 0.10385 0.61569 0.0
H4118 H 0.75522 0.11498 0.60483 0.0
C4119 C 0.75239 0.09753 0.59095 0.0
C4120 C 0.90714 0.24565 0.39741 0.0
C4121 C 0.9088 0.25466 0.39589 0.0
H4122 H 0.89993 0.23603 0.40481 0.0
C4123 C 0.90384 0.26094 0.40056 0.0
H4124 H 0.91076 0.24064 0.39385 0.0
C4125 C 0.89757 0.2583 0.40679 0.0
C4126 C 0.89609 0.2493 0.4085 0.0
H4127 H 0.90499 0.26793 0.39961 0.0
H4128 H 0.89394 0.26332 0.41035 0.0
C4129 C 0.90086 0.24301 0.40363 0.0
C4130 C 0.75075 0.91295 0.40703 0.0
C4131 C 0.7493 0.91047 0.39821 0.0
H4132 H 0.75438 0.90889 0.42003 0.0
C4133 C 0.75036 0.90156 0.39586 0.0
H4134 H 0.74989 0.91973 0.4091 0.0
C4135 C 0.75288 0.8953 0.40218 0.0
C4136 C 0.75431 0.8978 0.411 0.0
H4137 H 0.74935 0.89944 0.38911 0.0
H4138 H 0.75359 0.88848 0.40018 0.0
C4139 C 0.75323 0.90671 0.41333 0.0
C4140 C 0.10725 0.74524 0.40722 0.0
C4141 C 0.10882 0.75424 0.40885 0.0
H4142 H 0.09983 0.73564 0.40001 0.0
C4143 C 0.10422 0.76054 0.40384 0.0
H4144 H 0.11076 0.74021 0.41088 0.0
C4145 C 0.098 0.75791 0.39755 0.0
C4146 C 0.09625 0.74892 0.39609 0.0
H4147 H 0.10521 0.76752 0.40497 0.0
H4148 H 0.0945 0.76294 0.39388 0.0
C4149 C 0.10105 0.74261 0.40091 0.0
C4150 C 0.25377 0.1029 0.39569 0.0
C4151 C 0.25451 0.09391 0.3979 0.0
H4152 H 0.25071 0.11598 0.40014 0.0
C4153 C 0.25263 0.09131 0.4066 0.0
H4154 H 0.25512 0.10512 0.38903 0.0
C4155 C 0.25006 0.09749 0.41291 0.0
C4156 C 0.24931 0.10647 0.41073 0.0
H4157 H 0.25323 0.08447 0.40857 0.0
H4158 H 0.24858 0.09521 0.41952 0.0
C4159 C 0.25116 0.1091 0.40202 0.0
C4160 C 0.60915 0.90156 0.7506 0.0
C4161 C 0.60693 0.91054 0.74992 0.0
H4162 H 0.60474 0.88846 0.75366 0.0
C4163 C 0.59825 0.91314 0.75192 0.0
H4164 H 0.61579 0.89935 0.74917 0.0
C4165 C 0.59197 0.90694 0.75453 0.0
C4166 C 0.59416 0.89796 0.75522 0.0
H4167 H 0.59627 0.91998 0.75136 0.0
H4168 H 0.58537 0.90921 0.7561 0.0
C4169 C 0.60285 0.89534 0.75326 0.0
C4170 C 0.10345 0.60028 0.7611 0.0
C4171 C 0.10815 0.59534 0.75481 0.0
H4172 H 0.09362 0.61014 0.76347 0.0
C4173 C 0.10663 0.59701 0.74581 0.0
H4174 H 0.1044 0.59913 0.76808 0.0
C4175 C 0.10039 0.60327 0.74316 0.0
C4176 C 0.0955 0.60801 0.74945 0.0
H4177 H 0.11022 0.5934 0.74079 0.0
H4178 H 0.09922 0.60419 0.73618 0.0
C4179 C 0.09719 0.60652 0.75845 0.0
C4180 C 0.40639 0.10672 0.74581 0.0
C4181 C 0.40809 0.10818 0.75482 0.0
H4182 H 0.39918 0.09934 0.73617 0.0
C4183 C 0.40321 0.10341 0.7611 0.0
H4184 H 0.40995 0.11035 0.7408 0.0
C4185 C 0.39698 0.09714 0.75844 0.0
C4186 C 0.39545 0.0955 0.74943 0.0
H4187 H 0.40439 0.10431 0.76808 0.0
H4188 H 0.3934 0.09352 0.76345 0.0
C4189 C 0.40014 0.10047 0.74315 0.0
C4190 C 0.89759 0.40649 0.74595 0.0
C4191 C 0.89613 0.40823 0.75494 0.0
H4192 H 0.90501 0.39929 0.73633 0.0
C4193 C 0.90093 0.4034 0.76124 0.0
H4194 H 0.89393 0.41001 0.74092 0.0
C4195 C 0.90723 0.3972 0.75861 0.0
C4196 C 0.90887 0.39564 0.74961 0.0
H4197 H 0.90002 0.40461 0.76822 0.0
H4198 H 0.91088 0.39367 0.76363 0.0
C4199 C 0.90388 0.40027 0.74331 0.0
C4200 C 0.60041 0.10328 0.24329 0.0
C4201 C 0.59549 0.10802 0.24957 0.0
H4202 H 0.61027 0.09345 0.24094 0.0
C4203 C 0.59718 0.10653 0.25858 0.0
H4204 H 0.59925 0.10421 0.23631 0.0
C4205 C 0.60345 0.1003 0.26124 0.0
C4206 C 0.60818 0.09538 0.25496 0.0
H4207 H 0.59359 0.11014 0.26359 0.0
H4208 H 0.60439 0.09916 0.26822 0.0
C4209 C 0.60667 0.09704 0.24595 0.0
C4210 C 0.90377 0.60372 0.26137 0.0
C4211 C 0.90874 0.60839 0.25507 0.0
H4212 H 0.89388 0.59393 0.26375 0.0
C4213 C 0.90709 0.60684 0.24607 0.0
H4214 H 0.90491 0.6047 0.26835 0.0
C4215 C 0.90082 0.60061 0.24344 0.0
C4216 C 0.89605 0.59575 0.24973 0.0
H4217 H 0.91072 0.61039 0.24105 0.0
H4218 H 0.89991 0.59941 0.23645 0.0
C4219 C 0.89751 0.59747 0.25873 0.0
C4220 C 0.40652 0.89711 0.25834 0.0
C4221 C 0.40821 0.89565 0.24933 0.0
H4222 H 0.39933 0.9045 0.26799 0.0
C4223 C 0.40332 0.90042 0.24306 0.0
H4224 H 0.41009 0.89348 0.26335 0.0
C4225 C 0.39709 0.90668 0.24572 0.0
C4226 C 0.39559 0.90833 0.25473 0.0
H4227 H 0.4045 0.89951 0.23607 0.0
H4228 H 0.39352 0.91031 0.24071 0.0
C4229 C 0.40028 0.90336 0.261 0.0
C4230 C 0.10693 0.40724 0.25868 0.0
C4231 C 0.10846 0.40888 0.24968 0.0
H4232 H 0.09955 0.40004 0.26833 0.0
C4233 C 0.10381 0.40389 0.2434 0.0
H4234 H 0.11048 0.41089 0.26369 0.0
C4235 C 0.09759 0.3976 0.24606 0.0
C4236 C 0.09589 0.39614 0.25506 0.0
H4237 H 0.10477 0.40501 0.23641 0.0
H4238 H 0.09406 0.39394 0.24105 0.0
C4239 C 0.10074 0.40094 0.26134 0.0
C4240 C 0.7434 0.6033 0.90383 0.0
C4241 C 0.74974 0.60797 0.90873 0.0
H4242 H 0.74094 0.59349 0.89398 0.0
C4243 C 0.75872 0.60642 0.90703 0.0
H4244 H 0.73643 0.60428 0.90502 0.0
C4245 C 0.76131 0.60017 0.90075 0.0
C4246 C 0.75498 0.59531 0.89603 0.0
H4247 H 0.76378 0.60998 0.9106 0.0
H4248 H 0.76829 0.59897 0.89978 0.0
C4249 C 0.74599 0.59704 0.89757 0.0
C4250 C 0.75813 0.39754 0.09749 0.0
C4251 C 0.74914 0.39606 0.09571 0.0
H4252 H 0.7677 0.40497 0.10475 0.0
C4253 C 0.74281 0.40084 0.10051 0.0
H4254 H 0.76318 0.3939 0.09399 0.0
C4255 C 0.7454 0.40714 0.10673 0.0
C4256 C 0.75439 0.4088 0.10833 0.0
H4257 H 0.73583 0.39991 0.09927 0.0
H4258 H 0.74035 0.41077 0.11024 0.0
C4259 C 0.76072 0.40383 0.10373 0.0
C4260 C 0.60119 0.76144 0.10314 0.0
C4261 C 0.59639 0.75514 0.10797 0.0
H4262 H 0.61088 0.76381 0.09314 0.0
C4263 C 0.59813 0.74615 0.10652 0.0
H4264 H 0.59998 0.76842 0.10403 0.0
C4265 C 0.60433 0.7435 0.10021 0.0
C4266 C 0.60893 0.74979 0.09518 0.0
H4267 H 0.59463 0.74113 0.1102 0.0
H4268 H 0.60531 0.73652 0.09909 0.0
C4269 C 0.60737 0.75879 0.09681 0.0
C4270 C 0.24957 0.59121 0.0969 0.0
C4271 C 0.24877 0.59346 0.10586 0.0
H4272 H 0.25272 0.5955 0.08384 0.0
C4273 C 0.25049 0.60221 0.10842 0.0
H4274 H 0.24819 0.58457 0.09466 0.0
C4275 C 0.25303 0.60853 0.10217 0.0
C4276 C 0.25383 0.60626 0.0932 0.0
H4277 H 0.25 0.60415 0.11528 0.0
H4278 H 0.25428 0.61522 0.10434 0.0
C4279 C 0.25207 0.59752 0.09066 0.0
C4280 C 0.40721 0.25848 0.10633 0.0
C4281 C 0.40888 0.24949 0.10788 0.0
H4282 H 0.4 0.26808 0.09889 0.0
C4283 C 0.40396 0.24318 0.1032 0.0
H4284 H 0.4108 0.26352 0.1099 0.0
C4285 C 0.39771 0.24579 0.09693 0.0
C4286 C 0.3962 0.25479 0.09521 0.0
H4287 H 0.40512 0.2362 0.10417 0.0
H4288 H 0.3941 0.24076 0.09338 0.0
C4289 C 0.40094 0.2611 0.10008 0.0
C4290 C 0.25808 0.41206 0.90193 0.0
C4291 C 0.25013 0.41069 0.89735 0.0
H4292 H 0.26725 0.40718 0.91148 0.0
C4293 C 0.24546 0.40281 0.89883 0.0
H4294 H 0.26196 0.41795 0.90081 0.0
C4295 C 0.24854 0.39659 0.90493 0.0
C4296 C 0.25634 0.39813 0.90971 0.0
H4297 H 0.23927 0.40156 0.89549 0.0
H4298 H 0.24465 0.39071 0.90613 0.0
C4299 C 0.26113 0.40588 0.90804 0.0
C4300 C 0.59749 0.25827 0.89736 0.0
C4301 C 0.59583 0.24926 0.89589 0.0
H4302 H 0.60466 0.26794 0.90474 0.0
C4303 C 0.60073 0.24299 0.90065 0.0
H4304 H 0.59391 0.26327 0.89372 0.0
C4305 C 0.60695 0.24567 0.90692 0.0
C4306 C 0.60844 0.25468 0.90857 0.0
H4307 H 0.59958 0.23601 0.89974 0.0
H4308 H 0.61054 0.24067 0.91054 0.0
C4309 C 0.60373 0.26095 0.90361 0.0
C4310 C 0.40703 0.7464 0.89775 0.0
C4311 C 0.40874 0.7554 0.89626 0.0
H4312 H 0.39985 0.73678 0.90519 0.0
C4313 C 0.40388 0.7617 0.90104 0.0
H4314 H 0.41057 0.74138 0.89411 0.0
C4315 C 0.39768 0.75906 0.90734 0.0
C4316 C 0.39616 0.75006 0.90901 0.0
H4317 H 0.40507 0.76868 0.90011 0.0
H4318 H 0.39413 0.76408 0.91097 0.0
C4319 C 0.40081 0.74377 0.90404 0.0
C4320 C 0.08579 0.31301 0.31999 0.0
C4321 C 0.07873 0.31234 0.32597 0.0
H4322 H 0.09129 0.31979 0.30887 0.0
C4323 C 0.07175 0.31842 0.32532 0.0
H4324 H 0.09122 0.30837 0.32024 0.0
C4325 C 0.0718 0.32495 0.31882 0.0
C4326 C 0.07882 0.32559 0.31279 0.0
H4327 H 0.06629 0.31822 0.32992 0.0
H4328 H 0.06637 0.32959 0.31859 0.0
C4329 C 0.08583 0.31956 0.31347 0.0
C4330 C 0.68466 0.08574 0.31322 0.0
C4331 C 0.67868 0.07867 0.31261 0.0
H4332 H 0.69583 0.09125 0.31992 0.0
C4333 C 0.67938 0.07171 0.31869 0.0
H4334 H 0.68438 0.09115 0.30858 0.0
C4335 C 0.68593 0.07176 0.32518 0.0
C4336 C 0.69196 0.07878 0.32576 0.0
H4337 H 0.67478 0.06624 0.31853 0.0
H4338 H 0.68619 0.06634 0.32982 0.0
C4339 C 0.69123 0.08579 0.31972 0.0
C4340 C 0.91878 0.69109 0.32009 0.0
C4341 C 0.92581 0.69178 0.3261 0.0
H4342 H 0.91336 0.68432 0.30892 0.0
C4343 C 0.93283 0.68574 0.32545 0.0
H4344 H 0.91332 0.69569 0.32033 0.0
C4345 C 0.93285 0.67924 0.31892 0.0
C4346 C 0.92586 0.67859 0.31286 0.0
H4347 H 0.93827 0.68596 0.33007 0.0
H4348 H 0.93831 0.67464 0.3187 0.0
C4349 C 0.9188 0.68457 0.31354 0.0
C4350 C 0.31951 0.91887 0.31345 0.0
C4351 C 0.3255 0.92591 0.31269 0.0
H4352 H 0.3084 0.91346 0.32031 0.0
C4353 C 0.32488 0.93295 0.3187 0.0
H4354 H 0.31974 0.91339 0.30887 0.0
C4355 C 0.31839 0.93299 0.32524 0.0
C4356 C 0.31234 0.92599 0.32596 0.0
H4357 H 0.32949 0.9384 0.31843 0.0
H4358 H 0.31818 0.93846 0.32982 0.0
C4359 C 0.31301 0.9189 0.32001 0.0
C4360 C 0.08536 0.69098 0.68458 0.0
C4361 C 0.07833 0.69165 0.67856 0.0
H4362 H 0.09079 0.6842 0.69572 0.0
C4363 C 0.07134 0.68558 0.67918 0.0
H4364 H 0.09079 0.69561 0.68436 0.0
C4365 C 0.07135 0.67905 0.68568 0.0
C4366 C 0.07833 0.67841 0.69175 0.0
H4367 H 0.06591 0.68579 0.67455 0.0
H4368 H 0.06591 0.67442 0.68588 0.0
C4369 C 0.08536 0.68444 0.6911 0.0
C4370 C 0.31288 0.08536 0.68418 0.0
C4371 C 0.31212 0.07825 0.67827 0.0
H4372 H 0.31968 0.09086 0.69528 0.0
C4373 C 0.31806 0.07118 0.67904 0.0
H4374 H 0.30834 0.09087 0.68383 0.0
C4375 C 0.32456 0.07117 0.68558 0.0
C4376 C 0.32528 0.07824 0.69154 0.0
H4377 H 0.31779 0.06567 0.67449 0.0
H4378 H 0.32909 0.06566 0.68588 0.0
C4379 C 0.31938 0.08536 0.69074 0.0
C4380 C 0.93314 0.32491 0.68575 0.0
C4381 C 0.92618 0.32552 0.69186 0.0
H4382 H 0.93853 0.3182 0.67458 0.0
C4383 C 0.91916 0.31948 0.69123 0.0
H4384 H 0.93856 0.32955 0.68593 0.0
C4385 C 0.91915 0.31295 0.6847 0.0
C4386 C 0.92614 0.31231 0.67865 0.0
H4387 H 0.91375 0.3197 0.69589 0.0
H4388 H 0.91372 0.30831 0.6845 0.0
C4389 C 0.93312 0.31839 0.67924 0.0
C4390 C 0.691 0.91829 0.68458 0.0
C4391 C 0.6918 0.9254 0.67867 0.0
H4392 H 0.68414 0.91282 0.69566 0.0
C4393 C 0.68585 0.93247 0.67939 0.0
H4394 H 0.69554 0.91278 0.68427 0.0
C4395 C 0.67933 0.93249 0.6859 0.0
C4396 C 0.67857 0.92544 0.69187 0.0
H4397 H 0.68615 0.93797 0.67484 0.0
H4398 H 0.6748 0.93801 0.68618 0.0
C4399 C 0.68447 0.91831 0.69111 0.0
C4400 C 0.31826 0.07197 0.32531 0.0
C4401 C 0.31222 0.07898 0.32597 0.0
H4402 H 0.32938 0.06651 0.31857 0.0
C4403 C 0.3129 0.08602 0.31997 0.0
H4404 H 0.31804 0.06652 0.32993 0.0
C4405 C 0.31943 0.08601 0.31343 0.0
C4406 C 0.32542 0.07896 0.31274 0.0
H4407 H 0.30829 0.09147 0.32022 0.0
H4408 H 0.31967 0.09145 0.30881 0.0
C4409 C 0.32477 0.07196 0.31879 0.0
C4410 C 0.91909 0.31325 0.31979 0.0
C4411 C 0.92614 0.31251 0.32577 0.0
H4412 H 0.91365 0.32008 0.30867 0.0
C4413 C 0.93318 0.31852 0.32512 0.0
H4414 H 0.91361 0.30867 0.32004 0.0
C4415 C 0.9332 0.32505 0.31861 0.0
C4416 C 0.92619 0.32575 0.31258 0.0
H4417 H 0.93864 0.31826 0.32972 0.0
H4418 H 0.93868 0.32963 0.31839 0.0
C4419 C 0.91911 0.3198 0.31327 0.0
C4420 C 0.685 0.91875 0.31353 0.0
C4421 C 0.67906 0.92584 0.31279 0.0
H4422 H 0.69608 0.91324 0.32037 0.0
C4423 C 0.67977 0.93287 0.3188 0.0
H4424 H 0.6847 0.91327 0.30895 0.0
C4425 C 0.68628 0.93285 0.32532 0.0
C4426 C 0.69226 0.9258 0.32603 0.0
H4427 H 0.67521 0.93836 0.31854 0.0
H4428 H 0.68654 0.93833 0.3299 0.0
C4429 C 0.69152 0.91872 0.32007 0.0
C4430 C 0.07171 0.67889 0.31831 0.0
C4431 C 0.07865 0.67827 0.31218 0.0
H4432 H 0.06637 0.68558 0.32951 0.0
C4433 C 0.08568 0.68429 0.3128 0.0
H4434 H 0.06627 0.67426 0.31814 0.0
C4435 C 0.08573 0.6908 0.31934 0.0
C4436 C 0.07876 0.69145 0.32542 0.0
H4437 H 0.09107 0.68406 0.30812 0.0
H4438 H 0.09117 0.69543 0.31953 0.0
C4439 C 0.07176 0.68539 0.32484 0.0
C4440 C 0.31292 0.91871 0.68469 0.0
C4441 C 0.31201 0.92588 0.67888 0.0
H4442 H 0.31992 0.91315 0.69565 0.0
C4443 C 0.31786 0.93304 0.6797 0.0
H4444 H 0.30846 0.91314 0.68432 0.0
C4445 C 0.32441 0.93304 0.68619 0.0
C4446 C 0.3253 0.9259 0.69203 0.0
H4447 H 0.31747 0.9386 0.67523 0.0
H4448 H 0.32888 0.93861 0.68653 0.0
C4449 C 0.31948 0.91871 0.69119 0.0
C4450 C 0.08552 0.31965 0.69081 0.0
C4451 C 0.0785 0.32568 0.69149 0.0
H4452 H 0.09094 0.30849 0.68404 0.0
C4453 C 0.0715 0.32505 0.68544 0.0
H4454 H 0.09096 0.31988 0.69543 0.0
C4455 C 0.07148 0.31854 0.67892 0.0
C4456 C 0.07847 0.31247 0.67827 0.0
H4457 H 0.06606 0.32968 0.68566 0.0
H4458 H 0.06604 0.31834 0.6743 0.0
C4459 C 0.08551 0.31313 0.68428 0.0
C4460 C 0.67982 0.07112 0.68535 0.0
C4461 C 0.67908 0.07821 0.69128 0.0
H4462 H 0.68662 0.06558 0.67431 0.0
C4463 C 0.68498 0.08533 0.69047 0.0
H4464 H 0.67528 0.06561 0.68567 0.0
C4465 C 0.6915 0.08531 0.68393 0.0
C4466 C 0.69228 0.07817 0.67805 0.0
H4467 H 0.68466 0.09085 0.69499 0.0
H4468 H 0.69604 0.09082 0.68358 0.0
C4469 C 0.68633 0.0711 0.67883 0.0
C4470 C 0.91898 0.68482 0.69075 0.0
C4471 C 0.92601 0.67879 0.69142 0.0
H4472 H 0.91355 0.69596 0.68397 0.0
C4473 C 0.93299 0.67941 0.68535 0.0
H4474 H 0.91355 0.6846 0.69538 0.0
C4475 C 0.93299 0.68591 0.67882 0.0
C4476 C 0.926 0.69198 0.67818 0.0
H4477 H 0.93843 0.67478 0.68556 0.0
H4478 H 0.93842 0.68611 0.67418 0.0
C4479 C 0.91898 0.69133 0.68421 0.0
C4480 C 0.32509 0.31842 0.07108 0.0
C4481 C 0.32576 0.31236 0.07806 0.0
H4482 H 0.31833 0.32956 0.06567 0.0
C4483 C 0.31977 0.31301 0.08512 0.0
H4484 H 0.3297 0.31822 0.06562 0.0
C4485 C 0.31324 0.31954 0.08515 0.0
C4486 C 0.31254 0.32556 0.07812 0.0
H4487 H 0.32003 0.30839 0.09055 0.0
H4488 H 0.30863 0.31976 0.0906 0.0
C4489 C 0.31857 0.32493 0.07111 0.0
C4490 C 0.32477 0.68682 0.93318 0.0
C4491 C 0.3256 0.69273 0.92608 0.0
H4492 H 0.31791 0.67578 0.93865 0.0
C4493 C 0.31979 0.69191 0.9189 0.0
H4494 H 0.32924 0.68714 0.93874 0.0
C4495 C 0.31327 0.68537 0.91885 0.0
C4496 C 0.31242 0.67949 0.92597 0.0
H4497 H 0.32017 0.69642 0.91338 0.0
H4498 H 0.30881 0.685 0.91328 0.0
C4499 C 0.31826 0.68029 0.93313 0.0
C4500 C 0.31883 0.31252 0.91867 0.0
C4501 C 0.32453 0.3115 0.92592 0.0
H4502 H 0.30795 0.31958 0.91306 0.0
C4503 C 0.32355 0.31719 0.93318 0.0
H4504 H 0.31934 0.30818 0.91301 0.0
C4505 C 0.31704 0.32371 0.9332 0.0
C4506 C 0.31133 0.32472 0.92597 0.0
H4507 H 0.32793 0.31671 0.9388 0.0
H4508 H 0.31659 0.32806 0.93885 0.0
C4509 C 0.31231 0.31905 0.91869 0.0
C4510 C 0.68598 0.32504 0.93246 0.0
C4511 C 0.69204 0.32562 0.92547 0.0
H4512 H 0.67482 0.31839 0.93795 0.0
C4513 C 0.69135 0.31957 0.91847 0.0
H4514 H 0.6862 0.3297 0.93788 0.0
C4515 C 0.68479 0.31306 0.91851 0.0
C4516 C 0.67878 0.31245 0.92555 0.0
H4517 H 0.69597 0.31976 0.91303 0.0
H4518 H 0.68454 0.30841 0.9131 0.0
C4519 C 0.67944 0.31855 0.9325 0.0
C4520 C 0.68677 0.67962 0.93291 0.0
C4521 C 0.69268 0.6788 0.92581 0.0
H4522 H 0.67573 0.68647 0.9384 0.0
C4523 C 0.69186 0.68463 0.91864 0.0
H4524 H 0.6871 0.67514 0.93847 0.0
C4525 C 0.68532 0.69115 0.9186 0.0
C4526 C 0.67944 0.69199 0.92573 0.0
H4527 H 0.69637 0.68426 0.91312 0.0
H4528 H 0.68495 0.69562 0.91305 0.0
C4529 C 0.68025 0.68613 0.93288 0.0
C4530 C 0.67948 0.68579 0.07093 0.0
C4531 C 0.67885 0.6919 0.07789 0.0
H4532 H 0.68618 0.6746 0.06557 0.0
C4533 C 0.68486 0.69126 0.08493 0.0
H4534 H 0.67486 0.68598 0.06549 0.0
C4535 C 0.69137 0.68471 0.08498 0.0
C4536 C 0.69203 0.67865 0.07799 0.0
H4537 H 0.68464 0.69592 0.09033 0.0
H4538 H 0.69599 0.68449 0.09042 0.0
C4539 C 0.68597 0.67926 0.07098 0.0
C4540 C 0.31678 0.67929 0.07105 0.0
C4541 C 0.31091 0.67845 0.07817 0.0
H4542 H 0.32783 0.68613 0.06555 0.0
C4543 C 0.31179 0.68423 0.08538 0.0
H4544 H 0.31642 0.67485 0.06547 0.0
C4545 C 0.31835 0.69072 0.08542 0.0
C4546 C 0.3242 0.69159 0.07826 0.0
H4547 H 0.30731 0.68383 0.09092 0.0
H4548 H 0.31877 0.69516 0.091 0.0
C4549 C 0.32334 0.68577 0.07109 0.0
C4550 C 0.68446 0.31295 0.08527 0.0
C4551 C 0.67844 0.31231 0.07824 0.0
H4552 H 0.69562 0.31969 0.09073 0.0
C4553 C 0.67907 0.3184 0.07127 0.0
H4554 H 0.68423 0.3083 0.09069 0.0
C4555 C 0.68559 0.32492 0.0713 0.0
C4556 C 0.69165 0.32552 0.07829 0.0
H4557 H 0.67445 0.31822 0.06584 0.0
H4558 H 0.6858 0.32957 0.06588 0.0
C4559 C 0.69099 0.31948 0.0853 0.0
C4560 C 0.58599 0.82012 0.8134 0.0
C4561 C 0.57886 0.82599 0.81251 0.0
H4562 H 0.59144 0.80907 0.82033 0.0
C4563 C 0.57172 0.82524 0.81838 0.0
H4564 H 0.59155 0.82046 0.80893 0.0
C4565 C 0.57165 0.81873 0.82491 0.0
C4566 C 0.57873 0.81279 0.82574 0.0
H4567 H 0.5662 0.82976 0.81801 0.0
H4568 H 0.56609 0.81842 0.82937 0.0
C4569 C 0.58592 0.81359 0.81994 0.0
C4570 C 0.18431 0.58563 0.81338 0.0
C4571 C 0.17841 0.57851 0.81262 0.0
H4572 H 0.19536 0.59117 0.82025 0.0
C4573 C 0.17915 0.57146 0.8186 0.0
H4574 H 0.184 0.59112 0.80882 0.0
C4575 C 0.18564 0.57149 0.82514 0.0
C4576 C 0.19159 0.57857 0.82586 0.0
H4577 H 0.17461 0.56595 0.81832 0.0
H4578 H 0.18593 0.566 0.8297 0.0
C4579 C 0.19082 0.58566 0.81993 0.0
C4580 C 0.43285 0.17904 0.81871 0.0
C4581 C 0.42581 0.17843 0.81269 0.0
H4582 H 0.43837 0.18571 0.82984 0.0
C4583 C 0.41879 0.18445 0.81343 0.0
H4584 H 0.43828 0.17441 0.81845 0.0
C4585 C 0.41884 0.19095 0.81999 0.0
C4586 C 0.42592 0.19159 0.82596 0.0
H4587 H 0.41332 0.18424 0.80885 0.0
H4588 H 0.41341 0.19558 0.82029 0.0
C4589 C 0.4329 0.18553 0.82525 0.0
C4590 C 0.81817 0.43272 0.82484 0.0
C4591 C 0.81217 0.42569 0.82557 0.0
H4592 H 0.82927 0.43817 0.81806 0.0
C4593 C 0.81291 0.41858 0.81965 0.0
H4594 H 0.81791 0.43822 0.82939 0.0
C4595 C 0.81945 0.41855 0.81313 0.0
C4596 C 0.8254 0.42563 0.81237 0.0
H4597 H 0.80834 0.4131 0.81996 0.0
H4598 H 0.81974 0.41305 0.80858 0.0
C4599 C 0.8247 0.43269 0.81833 0.0
C4600 C 0.57133 0.17894 0.18569 0.0
C4601 C 0.57831 0.17829 0.19175 0.0
H4602 H 0.5659 0.18567 0.17454 0.0
C4603 C 0.58535 0.1843 0.19109 0.0
H4604 H 0.56588 0.17432 0.18589 0.0
C4605 C 0.58536 0.19083 0.18456 0.0
C4606 C 0.57833 0.19151 0.17854 0.0
H4607 H 0.59079 0.18406 0.19571 0.0
H4608 H 0.59081 0.19545 0.18433 0.0
C4609 C 0.57134 0.18545 0.17917 0.0
C4610 C 0.81859 0.57132 0.17937 0.0
C4611 C 0.8125 0.57829 0.17876 0.0
H4612 H 0.82975 0.5659 0.18609 0.0
C4613 C 0.81313 0.5853 0.18481 0.0
H4614 H 0.81841 0.5659 0.17473 0.0
C4615 C 0.81966 0.58529 0.19135 0.0
C4616 C 0.8257 0.57829 0.19199 0.0
H4617 H 0.80849 0.59072 0.18459 0.0
H4618 H 0.81986 0.59071 0.19599 0.0
C4619 C 0.8251 0.57132 0.1859 0.0
C4620 C 0.43277 0.82479 0.18542 0.0
C4621 C 0.4258 0.82536 0.19151 0.0
H4622 H 0.43821 0.81813 0.17424 0.0
C4623 C 0.41881 0.81929 0.19086 0.0
H4624 H 0.43817 0.82946 0.18561 0.0
C4625 C 0.41883 0.81277 0.18432 0.0
C4626 C 0.42584 0.81217 0.17827 0.0
H4627 H 0.41339 0.81947 0.19551 0.0
H4628 H 0.41343 0.80811 0.1841 0.0
C4629 C 0.43279 0.81829 0.17889 0.0
C4630 C 0.18457 0.41888 0.19117 0.0
C4631 C 0.17858 0.42593 0.19183 0.0
H4632 H 0.19571 0.41339 0.18442 0.0
C4633 C 0.17924 0.43291 0.18575 0.0
H4634 H 0.18431 0.41345 0.19581 0.0
C4635 C 0.18575 0.43287 0.17924 0.0
C4636 C 0.19179 0.42586 0.17862 0.0
H4637 H 0.17463 0.43836 0.18595 0.0
H4638 H 0.18598 0.4383 0.1746 0.0
C4639 C 0.1911 0.41884 0.18465 0.0
C4640 C 0.81964 0.58541 0.81301 0.0
C4641 C 0.82569 0.5784 0.81235 0.0
H4642 H 0.80847 0.5908 0.81979 0.0
C4643 C 0.82509 0.57141 0.81841 0.0
H4644 H 0.81985 0.59084 0.80839 0.0
C4645 C 0.81858 0.57138 0.82493 0.0
C4646 C 0.81249 0.57835 0.82557 0.0
H4647 H 0.82974 0.56599 0.8182 0.0
H4648 H 0.8184 0.56595 0.82956 0.0
C4649 C 0.81312 0.58538 0.81955 0.0
C4650 C 0.4187 0.82037 0.8132 0.0
C4651 C 0.42586 0.82621 0.81242 0.0
H4652 H 0.41311 0.80934 0.82005 0.0
C4653 C 0.43292 0.82541 0.81838 0.0
H4654 H 0.4132 0.82073 0.80866 0.0
C4655 C 0.43287 0.8189 0.8249 0.0
C4656 C 0.42575 0.813 0.82564 0.0
H4657 H 0.43846 0.82991 0.81809 0.0
H4658 H 0.43837 0.81857 0.82944 0.0
C4659 C 0.41864 0.81383 0.81973 0.0
C4660 C 0.19094 0.41857 0.81999 0.0
C4661 C 0.19171 0.42569 0.82588 0.0
H4662 H 0.18414 0.41307 0.80888 0.0
C4663 C 0.18578 0.43278 0.82509 0.0
H4664 H 0.19546 0.41305 0.82035 0.0
C4665 C 0.1793 0.43279 0.81853 0.0
C4666 C 0.17857 0.42571 0.81259 0.0
H4667 H 0.18606 0.43829 0.82962 0.0
H4668 H 0.17477 0.43831 0.81821 0.0
C4669 C 0.18445 0.41858 0.81342 0.0
C4670 C 0.57175 0.18534 0.82489 0.0
C4671 C 0.57871 0.19145 0.82547 0.0
H4672 H 0.56633 0.17417 0.8182 0.0
C4673 C 0.58569 0.19084 0.81939 0.0
H4674 H 0.56635 0.18551 0.82957 0.0
C4675 C 0.58567 0.18432 0.81285 0.0
C4676 C 0.57868 0.17825 0.81224 0.0
H4677 H 0.5911 0.1955 0.81958 0.0
H4678 H 0.59107 0.18413 0.80818 0.0
C4679 C 0.57174 0.17883 0.81837 0.0
C4680 C 0.81226 0.41877 0.18488 0.0
C4681 C 0.81147 0.42592 0.17902 0.0
H4682 H 0.81916 0.41317 0.19588 0.0
C4683 C 0.81742 0.43299 0.17981 0.0
H4684 H 0.80773 0.41326 0.18453 0.0
C4685 C 0.82396 0.43294 0.18631 0.0
C4686 C 0.82473 0.42582 0.19219 0.0
H4687 H 0.81711 0.43853 0.17531 0.0
H4688 H 0.8285 0.43844 0.18662 0.0
C4689 C 0.81882 0.41872 0.19139 0.0
C4690 C 0.58593 0.81319 0.18487 0.0
C4691 C 0.57897 0.81259 0.17876 0.0
H4692 H 0.59126 0.81988 0.19612 0.0
C4693 C 0.57201 0.81869 0.17932 0.0
H4694 H 0.59134 0.80853 0.1847 0.0
C4695 C 0.57197 0.82519 0.18585 0.0
C4696 C 0.57889 0.82576 0.19201 0.0
H4697 H 0.56664 0.81854 0.17462 0.0
H4698 H 0.56656 0.82985 0.186 0.0
C4699 C 0.58588 0.8197 0.19142 0.0
C4700 C 0.1913 0.58546 0.18395 0.0
C4701 C 0.19207 0.57832 0.17808 0.0
H4702 H 0.18448 0.59101 0.19501 0.0
C4703 C 0.18612 0.57125 0.17887 0.0
H4704 H 0.19584 0.59096 0.1836 0.0
C4705 C 0.17961 0.57128 0.1854 0.0
C4706 C 0.17888 0.57838 0.19132 0.0
H4707 H 0.1864 0.56573 0.17435 0.0
H4708 H 0.17507 0.56578 0.18572 0.0
C4709 C 0.18479 0.58549 0.1905 0.0
C4710 C 0.41897 0.1848 0.19091 0.0
C4711 C 0.42599 0.17877 0.19159 0.0
H4712 H 0.41356 0.19595 0.18412 0.0
C4713 C 0.43298 0.17938 0.18552 0.0
H4714 H 0.41354 0.1846 0.19554 0.0
C4715 C 0.43299 0.18588 0.17899 0.0
C4716 C 0.42602 0.19195 0.17834 0.0
H4717 H 0.43841 0.17474 0.18574 0.0
H4718 H 0.43843 0.18606 0.17436 0.0
C4719 C 0.41899 0.19132 0.18436 0.0
C4720 C 0.82473 0.81864 0.57145 0.0
C4721 C 0.8255 0.81264 0.57848 0.0
H4722 H 0.81788 0.82972 0.56604 0.0
C4723 C 0.81961 0.81335 0.58561 0.0
H4724 H 0.82926 0.8184 0.56594 0.0
C4725 C 0.81306 0.81987 0.58567 0.0
C4726 C 0.81225 0.82582 0.5786 0.0
H4727 H 0.81994 0.80877 0.59108 0.0
H4728 H 0.80852 0.82014 0.59118 0.0
C4729 C 0.8182 0.82514 0.57151 0.0
C4730 C 0.8196 0.19094 0.41875 0.0
C4731 C 0.82553 0.19172 0.42584 0.0
H4732 H 0.80851 0.18408 0.41329 0.0
C4733 C 0.82482 0.18576 0.43291 0.0
H4734 H 0.81989 0.19548 0.41325 0.0
C4735 C 0.81831 0.17924 0.43294 0.0
C4736 C 0.81232 0.17849 0.42589 0.0
H4737 H 0.82938 0.18604 0.4384 0.0
H4738 H 0.81804 0.17469 0.43844 0.0
C4739 C 0.81307 0.1844 0.41877 0.0
C4740 C 0.81844 0.81329 0.41885 0.0
C4741 C 0.82424 0.8124 0.42603 0.0
H4742 H 0.80744 0.82023 0.41331 0.0
C4743 C 0.82336 0.81819 0.43322 0.0
H4744 H 0.81888 0.80888 0.41325 0.0
C4745 C 0.81682 0.82468 0.43325 0.0
C4746 C 0.81098 0.82556 0.4261 0.0
H4747 H 0.82782 0.81781 0.43879 0.0
H4748 H 0.81643 0.82911 0.43884 0.0
C4749 C 0.81189 0.8198 0.41888 0.0
C4750 C 0.18646 0.82414 0.43317 0.0
C4751 C 0.19233 0.82497 0.42604 0.0
H4752 H 0.17549 0.81724 0.43874 0.0
C4753 C 0.19152 0.8191 0.4189 0.0
H4754 H 0.18677 0.82866 0.4387 0.0
C4755 C 0.18504 0.81252 0.41893 0.0
C4756 C 0.1792 0.81168 0.42609 0.0
H4757 H 0.196 0.81949 0.41335 0.0
H4758 H 0.18469 0.80802 0.4134 0.0
C4759 C 0.17998 0.81758 0.4332 0.0
C4760 C 0.18476 0.19067 0.41877 0.0
C4761 C 0.17885 0.19145 0.42588 0.0
H4762 H 0.19584 0.18382 0.41329 0.0
C4763 C 0.17959 0.1855 0.43296 0.0
H4764 H 0.18444 0.1952 0.41327 0.0
C4765 C 0.18611 0.17899 0.43297 0.0
C4766 C 0.19207 0.17825 0.42591 0.0
H4767 H 0.17504 0.18579 0.43846 0.0
H4768 H 0.1864 0.17446 0.43849 0.0
C4769 C 0.1913 0.18414 0.41879 0.0
C4770 C 0.19125 0.18436 0.58561 0.0
C4771 C 0.192 0.17837 0.57856 0.0
H4772 H 0.1844 0.19547 0.59103 0.0
C4773 C 0.18599 0.179 0.57153 0.0
H4774 H 0.19584 0.18412 0.59108 0.0
C4775 C 0.17944 0.18549 0.5715 0.0
C4776 C 0.17873 0.19154 0.5785 0.0
H4777 H 0.18626 0.1744 0.56608 0.0
H4778 H 0.17486 0.1857 0.56603 0.0
C4779 C 0.18469 0.19086 0.58558 0.0
C4780 C 0.81812 0.17877 0.5717 0.0
C4781 C 0.81207 0.17809 0.5787 0.0
H4782 H 0.82925 0.18552 0.56628 0.0
C4783 C 0.81275 0.18406 0.58577 0.0
H4784 H 0.8179 0.17417 0.56624 0.0
C4785 C 0.81928 0.19059 0.58579 0.0
C4786 C 0.82528 0.1913 0.57875 0.0
H4787 H 0.80814 0.18379 0.59121 0.0
H4788 H 0.81953 0.19519 0.59125 0.0
C4789 C 0.82463 0.18528 0.57172 0.0
C4790 C 0.18585 0.82516 0.57125 0.0
C4791 C 0.19193 0.82583 0.57823 0.0
H4792 H 0.1747 0.81842 0.56586 0.0
C4793 C 0.19128 0.81983 0.58528 0.0
H4794 H 0.18605 0.82977 0.56579 0.0
C4795 C 0.18474 0.8133 0.58532 0.0
C4796 C 0.17871 0.81261 0.5783 0.0
H4797 H 0.19591 0.82009 0.59071 0.0
H4798 H 0.18452 0.8087 0.59077 0.0
C4799 C 0.17933 0.81865 0.57129 0.0
C4800 C 0.9977 0.26657 0.35272 0.0
C4801 C 0.99298 0.27239 0.35817 0.0
H4802 H 0.01036 0.26211 0.34831 0.0
C4803 C 0.9977 0.27789 0.36396 0.0
H4804 H 0.99427 0.26213 0.34829 0.0
C4805 C 0.00693 0.27788 0.36397 0.0
C4806 C 0.01165 0.27237 0.35819 0.0
H4807 H 0.99428 0.28253 0.36817 0.0
H4808 H 0.01035 0.28252 0.36819 0.0
C4809 C 0.00693 0.26655 0.35273 0.0
C4810 C 0.73358 0.99778 0.36359 0.0
C4811 C 0.73155 0.99303 0.35588 0.0
H4812 H 0.73513 0.01049 0.3696 0.0
C4813 C 0.72969 0.99774 0.34811 0.0
H4814 H 0.73514 0.99436 0.36966 0.0
C4815 C 0.72968 0.00695 0.34808 0.0
C4816 C 0.73154 0.01172 0.35581 0.0
H4817 H 0.72792 0.99433 0.3421 0.0
H4818 H 0.7279 0.01032 0.34204 0.0
C4819 C 0.73357 0.00702 0.36355 0.0
C4820 C 0.00705 0.7293 0.34884 0.0
C4821 C 0.01181 0.73066 0.35668 0.0
H4822 H 0.99443 0.72788 0.34275 0.0
C4823 C 0.00711 0.73218 0.36454 0.0
H4824 H 0.01044 0.72793 0.3427 0.0
C4825 C 0.99787 0.73215 0.36456 0.0
C4826 C 0.99312 0.73061 0.35674 0.0
H4827 H 0.01057 0.73334 0.37068 0.0
H4828 H 0.99444 0.7333 0.37072 0.0
C4829 C 0.99785 0.72928 0.34887 0.0
C4830 C 0.26709 0.00715 0.35197 0.0
C4831 C 0.27268 0.01192 0.35762 0.0
H4832 H 0.26289 0.99446 0.34741 0.0
C4833 C 0.27801 0.00724 0.36361 0.0
H4834 H 0.26279 0.01055 0.34739 0.0
C4835 C 0.27807 0.99801 0.36362 0.0
C4836 C 0.2728 0.99325 0.35765 0.0
H4837 H 0.28247 0.01069 0.36799 0.0
H4838 H 0.28257 0.99462 0.36801 0.0
C4839 C 0.26715 0.99793 0.35198 0.0
C4840 C 0.99759 0.72639 0.64014 0.0
C4841 C 0.99286 0.73192 0.64589 0.0
H4842 H 0.01024 0.72171 0.63599 0.0
C4843 C 0.99758 0.73774 0.65136 0.0
H4844 H 0.99417 0.72176 0.63592 0.0
C4845 C 0.0068 0.73771 0.6514 0.0
C4846 C 0.01153 0.73186 0.64597 0.0
H4847 H 0.99413 0.7422 0.65575 0.0
H4848 H 0.01023 0.74215 0.65582 0.0
C4849 C 0.00681 0.72637 0.64018 0.0
C4850 C 0.26638 0.00665 0.65202 0.0
C4851 C 0.27212 0.01135 0.64646 0.0
H4852 H 0.26198 0.99401 0.65654 0.0
C4853 C 0.27751 0.0066 0.64059 0.0
H4854 H 0.26202 0.01011 0.65651 0.0
C4855 C 0.27749 0.99737 0.64061 0.0
C4856 C 0.27207 0.99268 0.6465 0.0
H4857 H 0.28209 0.01 0.63629 0.0
H4858 H 0.28205 0.99393 0.63633 0.0
C4859 C 0.26635 0.99743 0.65204 0.0
C4860 C 0.99766 0.26649 0.65141 0.0
C4861 C 0.99291 0.27233 0.646 0.0
H4862 H 0.01034 0.26205 0.65578 0.0
C4863 C 0.99761 0.27787 0.64023 0.0
H4864 H 0.99424 0.26203 0.65582 0.0
C4865 C 0.00684 0.27789 0.6402 0.0
C4866 C 0.01159 0.27236 0.64595 0.0
H4867 H 0.99417 0.28253 0.63604 0.0
H4868 H 0.01024 0.28255 0.636 0.0
C4869 C 0.00688 0.2665 0.65139 0.0
C4870 C 0.72687 0.00628 0.64095 0.0
C4871 C 0.73214 0.01102 0.64694 0.0
H4872 H 0.72236 0.99363 0.63661 0.0
C4873 C 0.73769 0.0063 0.65268 0.0
H4874 H 0.72244 0.00969 0.63651 0.0
C4875 C 0.73765 0.99708 0.65274 0.0
C4876 C 0.73205 0.99235 0.64706 0.0
H4877 H 0.74195 0.00974 0.65726 0.0
H4878 H 0.74187 0.99365 0.65737 0.0
C4879 C 0.72683 0.99706 0.64101 0.0
C4880 C 0.34875 0.99774 0.27444 0.0
C4881 C 0.35665 0.99301 0.27334 0.0
H4882 H 0.34257 0.01033 0.27566 0.0
C4883 C 0.36453 0.99774 0.27205 0.0
H4884 H 0.34259 0.99433 0.27563 0.0
C4885 C 0.36452 0.00698 0.27206 0.0
C4886 C 0.35663 0.0117 0.27337 0.0
H4887 H 0.37072 0.99431 0.27107 0.0
H4888 H 0.3707 0.01043 0.2711 0.0
C4889 C 0.34874 0.00695 0.27446 0.0
C4890 C 0.99815 0.36368 0.27844 0.0
C4891 C 0.9934 0.35781 0.27306 0.0
H4892 H 0.01082 0.36798 0.28295 0.0
C4893 C 0.9981 0.35227 0.26728 0.0
H4894 H 0.99475 0.36796 0.28304 0.0
C4895 C 0.00732 0.35228 0.26723 0.0
C4896 C 0.01207 0.35783 0.27294 0.0
H4897 H 0.99464 0.34779 0.26293 0.0
H4898 H 0.01074 0.34781 0.26283 0.0
C4899 C 0.00738 0.36369 0.27839 0.0
C4900 C 0.64072 0.99754 0.27836 0.0
C4901 C 0.64652 0.99283 0.27285 0.0
H4902 H 0.63646 0.01017 0.28299 0.0
C4903 C 0.65195 0.99757 0.26702 0.0
H4904 H 0.63652 0.99411 0.283 0.0
C4905 C 0.65192 0.00679 0.26701 0.0
C4906 C 0.64645 0.0115 0.27283 0.0
H4907 H 0.65638 0.99414 0.26258 0.0
H4908 H 0.65632 0.01024 0.26256 0.0
C4909 C 0.64068 0.00676 0.27835 0.0
C4910 C 0.99752 0.65155 0.26678 0.0
C4911 C 0.99282 0.64612 0.27264 0.0
H4912 H 0.01017 0.65591 0.26224 0.0
C4913 C 0.99756 0.64032 0.27812 0.0
H4914 H 0.99407 0.65597 0.26235 0.0
C4915 C 0.00678 0.64029 0.27806 0.0
C4916 C 0.01149 0.64605 0.27251 0.0
H4917 H 0.99415 0.63612 0.28279 0.0
H4918 H 0.01022 0.63607 0.28268 0.0
C4919 C 0.00675 0.65152 0.26671 0.0
C4920 C 0.36374 0.99743 0.72611 0.0
C4921 C 0.35804 0.9927 0.73169 0.0
H4922 H 0.36785 0.01008 0.72139 0.0
C4923 C 0.35263 0.99741 0.73756 0.0
H4924 H 0.36792 0.99402 0.72143 0.0
C4925 C 0.35258 0.00664 0.73753 0.0
C4926 C 0.35796 0.01137 0.73164 0.0
H4927 H 0.34827 0.99397 0.74206 0.0
H4928 H 0.3482 0.01007 0.74201 0.0
C4929 C 0.3637 0.00666 0.72609 0.0
C4930 C 0.00703 0.36379 0.72628 0.0
C4931 C 0.01177 0.35802 0.73177 0.0
H4932 H 0.99436 0.368 0.72166 0.0
C4933 C 0.00706 0.35256 0.73761 0.0
H4934 H 0.01043 0.36801 0.72163 0.0
C4935 C 0.99784 0.35255 0.73763 0.0
C4936 C 0.99309 0.358 0.73182 0.0
H4937 H 0.01051 0.34814 0.74204 0.0
H4938 H 0.99442 0.34813 0.74208 0.0
C4939 C 0.9978 0.36378 0.7263 0.0
C4940 C 0.65246 0.00664 0.73719 0.0
C4941 C 0.64691 0.01136 0.73144 0.0
H4942 H 0.65694 0.99399 0.74158 0.0
C4943 C 0.64103 0.00663 0.72605 0.0
H4944 H 0.65695 0.01008 0.74154 0.0
C4945 C 0.64102 0.99741 0.72607 0.0
C4946 C 0.64689 0.99269 0.73149 0.0
H4947 H 0.63674 0.01005 0.72147 0.0
H4948 H 0.63672 0.99398 0.72151 0.0
C4949 C 0.65245 0.99742 0.73721 0.0
C4950 C 0.00676 0.65164 0.73753 0.0
C4951 C 0.01148 0.64616 0.73172 0.0
H4952 H 0.99411 0.65612 0.74192 0.0
C4953 C 0.00675 0.6404 0.7262 0.0
H4954 H 0.0102 0.65605 0.74198 0.0
C4955 C 0.99753 0.64044 0.72618 0.0
C4956 C 0.99281 0.64624 0.73166 0.0
H4957 H 0.01017 0.63616 0.72158 0.0
H4958 H 0.9941 0.63623 0.72153 0.0
C4959 C 0.99754 0.65168 0.7375 0.0
C4960 C 0.27763 0.36366 0.99751 0.0
C4961 C 0.27204 0.35793 0.99283 0.0
H4962 H 0.28239 0.36785 0.01012 0.0
C4963 C 0.26617 0.35255 0.9976 0.0
H4964 H 0.28231 0.36781 0.99406 0.0
C4965 C 0.26622 0.35258 0.00682 0.0
C4966 C 0.27213 0.35797 0.0115 0.0
H4967 H 0.26166 0.34818 0.99419 0.0
H4968 H 0.26174 0.34822 0.01029 0.0
C4969 C 0.27768 0.36368 0.00674 0.0
C4970 C 0.27716 0.64076 0.00629 0.0
C4971 C 0.27164 0.64656 0.01097 0.0
H4972 H 0.28191 0.63657 0.99368 0.0
C4973 C 0.26589 0.65206 0.00621 0.0
H4974 H 0.28174 0.63651 0.00974 0.0
C4975 C 0.26599 0.6521 0.99698 0.0
C4976 C 0.27184 0.64663 0.9923 0.0
H4977 H 0.26144 0.65649 0.00961 0.0
H4978 H 0.26161 0.65655 0.99352 0.0
C4979 C 0.27726 0.6408 0.99706 0.0
C4980 C 0.35275 0.26621 0.00649 0.0
C4981 C 0.35813 0.27215 0.01117 0.0
H4982 H 0.34836 0.26163 0.99388 0.0
C4983 C 0.36379 0.27773 0.00639 0.0
H4984 H 0.34842 0.26171 0.00997 0.0
C4985 C 0.36375 0.27769 0.99717 0.0
C4986 C 0.35805 0.27206 0.9925 0.0
H4987 H 0.36795 0.28246 0.00977 0.0
H4988 H 0.36787 0.28238 0.99371 0.0
C4989 C 0.35271 0.26616 0.99727 0.0
C4990 C 0.73299 0.364 0.00655 0.0
C4991 C 0.73133 0.3562 0.0113 0.0
H4992 H 0.73426 0.37009 0.99385 0.0
C4993 C 0.72987 0.34835 0.00658 0.0
H4994 H 0.73424 0.37014 0.00998 0.0
C4995 C 0.72988 0.34832 0.99738 0.0
C4996 C 0.73135 0.35614 0.99261 0.0
H4997 H 0.72839 0.34226 0.01 0.0
H4998 H 0.7284 0.34221 0.994 0.0
C4999 C 0.733 0.36397 0.99731 0.0
C5000 C 0.64062 0.72637 0.99692 0.0
C5001 C 0.64631 0.73197 0.9922 0.0
H5002 H 0.63648 0.72165 0.00957 0.0
C5003 C 0.65166 0.73789 0.99693 0.0
H5004 H 0.63648 0.72166 0.99351 0.0
C5005 C 0.65167 0.73788 0.00615 0.0
C5006 C 0.64631 0.73196 0.01087 0.0
H5007 H 0.656 0.7424 0.99349 0.0
H5008 H 0.65602 0.74239 0.00959 0.0
C5009 C 0.64062 0.72637 0.00615 0.0
C5010 C 0.73818 0.65152 0.9975 0.0
C5011 C 0.73233 0.6461 0.99275 0.0
H5012 H 0.7426 0.6559 0.01018 0.0
C5013 C 0.72678 0.64034 0.99745 0.0
H5014 H 0.74265 0.65591 0.99408 0.0
C5015 C 0.72675 0.64034 0.00668 0.0
C5016 C 0.73227 0.64609 0.01142 0.0
H5017 H 0.72213 0.63615 0.99402 0.0
H5018 H 0.72207 0.63615 0.01008 0.0
C5019 C 0.73815 0.65151 0.00672 0.0
C5020 C 0.36372 0.72629 0.99792 0.0
C5021 C 0.35813 0.732 0.9932 0.0
H5022 H 0.36769 0.72139 0.01054 0.0
C5023 C 0.35279 0.73792 0.99795 0.0
H5024 H 0.36783 0.72157 0.99448 0.0
C5025 C 0.35271 0.73782 0.00717 0.0
C5026 C 0.35796 0.7318 0.01187 0.0
H5027 H 0.34853 0.74252 0.99452 0.0
H5028 H 0.34839 0.74234 0.01062 0.0
C5029 C 0.36363 0.72619 0.00714 0.0
C5030 C 0.64038 0.27807 0.99731 0.0
C5031 C 0.64616 0.27256 0.99259 0.0
H5032 H 0.63615 0.28269 0.00996 0.0
C5033 C 0.65158 0.26669 0.99731 0.0
H5034 H 0.6362 0.28274 0.9939 0.0
C5035 C 0.65155 0.26666 0.00654 0.0
C5036 C 0.6461 0.2725 0.01126 0.0
H5037 H 0.65598 0.26225 0.99388 0.0
H5038 H 0.65593 0.26219 0.00997 0.0
C5039 C 0.64036 0.27804 0.00654 0.0
C5040 C 0.50657 0.76765 0.85227 0.0
C5041 C 0.51126 0.77344 0.85779 0.0
H5042 H 0.49393 0.76317 0.84783 0.0
C5043 C 0.50651 0.77884 0.86365 0.0
H5044 H 0.51003 0.7633 0.84779 0.0
C5045 C 0.49728 0.77877 0.86367 0.0
C5046 C 0.49259 0.77331 0.85783 0.0
H5047 H 0.50991 0.78344 0.86792 0.0
H5048 H 0.49384 0.78333 0.86795 0.0
C5049 C 0.49734 0.76759 0.85229 0.0
C5050 C 0.23654 0.50679 0.85218 0.0
C5051 C 0.23088 0.51151 0.8578 0.0
H5052 H 0.24085 0.49413 0.84764 0.0
C5053 C 0.22554 0.5068 0.86374 0.0
H5054 H 0.24085 0.51022 0.84763 0.0
C5055 C 0.22554 0.49757 0.86375 0.0
C5056 C 0.23087 0.49285 0.85781 0.0
H5057 H 0.22103 0.51022 0.86809 0.0
H5058 H 0.22103 0.49415 0.8681 0.0
C5059 C 0.23654 0.49757 0.85218 0.0
C5060 C 0.49788 0.23681 0.85246 0.0
C5061 C 0.4932 0.23101 0.85798 0.0
H5062 H 0.5105 0.24128 0.84797 0.0
C5063 C 0.49797 0.2256 0.86382 0.0
H5064 H 0.49441 0.24118 0.848 0.0
C5065 C 0.5072 0.22566 0.8638 0.0
C5066 C 0.51187 0.23113 0.85795 0.0
H5067 H 0.49459 0.22099 0.86809 0.0
H5068 H 0.51065 0.22109 0.86806 0.0
C5069 C 0.5071 0.23687 0.85244 0.0
C5070 C 0.77764 0.50669 0.86339 0.0
C5071 C 0.77227 0.51143 0.85749 0.0
H5072 H 0.78218 0.49403 0.86768 0.0
C5073 C 0.76658 0.50672 0.85188 0.0
H5074 H 0.78218 0.51009 0.86772 0.0
C5075 C 0.76658 0.4975 0.85185 0.0
C5076 C 0.77228 0.49276 0.85743 0.0
H5077 H 0.76224 0.51017 0.84737 0.0
H5078 H 0.76225 0.49407 0.84732 0.0
C5079 C 0.77764 0.49746 0.86336 0.0
C5080 C 0.49764 0.22634 0.14023 0.0
C5081 C 0.49292 0.23185 0.14601 0.0
H5082 H 0.51028 0.22166 0.13604 0.0
C5083 C 0.49765 0.23765 0.15149 0.0
H5084 H 0.49422 0.22172 0.136 0.0
C5085 C 0.50688 0.23762 0.15151 0.0
C5086 C 0.5116 0.23179 0.14606 0.0
H5087 H 0.49422 0.2421 0.1559 0.0
H5088 H 0.51032 0.24204 0.15594 0.0
C5089 C 0.50687 0.22631 0.14025 0.0
C5090 C 0.76626 0.5069 0.15172 0.0
C5091 C 0.77215 0.51158 0.1463 0.0
H5092 H 0.7617 0.49428 0.15612 0.0
C5093 C 0.77765 0.50682 0.14055 0.0
H5094 H 0.76182 0.51037 0.15612 0.0
C5095 C 0.77758 0.4976 0.14055 0.0
C5096 C 0.77201 0.49292 0.14631 0.0
H5097 H 0.78233 0.51021 0.13635 0.0
H5098 H 0.78222 0.49414 0.13636 0.0
C5099 C 0.76619 0.49768 0.15173 0.0
C5100 C 0.50726 0.77476 0.15531 0.0
C5101 C 0.512 0.77348 0.14744 0.0
H5102 H 0.49465 0.77612 0.16143 0.0
C5103 C 0.50728 0.77203 0.13958 0.0
H5104 H 0.51065 0.77608 0.16145 0.0
C5105 C 0.49804 0.77206 0.13958 0.0
C5106 C 0.49332 0.77353 0.14742 0.0
H5107 H 0.51073 0.77092 0.13343 0.0
H5108 H 0.4946 0.77096 0.13341 0.0
C5109 C 0.49805 0.77479 0.1553 0.0
C5110 C 0.23773 0.50651 0.15205 0.0
C5111 C 0.23203 0.51121 0.14644 0.0
H5112 H 0.24208 0.49386 0.15658 0.0
C5113 C 0.22667 0.50648 0.14054 0.0
H5114 H 0.24206 0.50995 0.15656 0.0
C5115 C 0.22669 0.49725 0.14055 0.0
C5116 C 0.23206 0.49255 0.14647 0.0
H5117 H 0.22213 0.50989 0.1362 0.0
H5118 H 0.22215 0.49382 0.13623 0.0
C5119 C 0.23775 0.49728 0.15206 0.0
C5120 C 0.86474 0.50662 0.7717 0.0
C5121 C 0.85687 0.51136 0.77299 0.0
H5122 H 0.8709 0.49392 0.77075 0.0
C5123 C 0.84896 0.50664 0.7741 0.0
H5124 H 0.87093 0.51005 0.77072 0.0
C5125 C 0.84894 0.49743 0.77412 0.0
C5126 C 0.85683 0.49268 0.77303 0.0
H5127 H 0.8428 0.51005 0.77529 0.0
H5128 H 0.84277 0.49405 0.77532 0.0
C5129 C 0.86472 0.49738 0.77171 0.0
C5130 C 0.49803 0.86364 0.77816 0.0
C5131 C 0.49327 0.85767 0.7729 0.0
H5132 H 0.51071 0.86801 0.78257 0.0
C5133 C 0.49796 0.85198 0.76727 0.0
H5134 H 0.49464 0.86805 0.78264 0.0
C5135 C 0.50718 0.85196 0.76722 0.0
C5136 C 0.51194 0.85763 0.77281 0.0
H5137 H 0.49449 0.8474 0.76302 0.0
H5138 H 0.51059 0.84737 0.76294 0.0
C5139 C 0.50726 0.86362 0.77811 0.0
C5140 C 0.14051 0.49743 0.7781 0.0
C5141 C 0.14631 0.49272 0.77261 0.0
H5142 H 0.13626 0.51007 0.78274 0.0
C5143 C 0.15178 0.49746 0.76681 0.0
H5144 H 0.13628 0.49401 0.78273 0.0
C5145 C 0.15177 0.50668 0.76681 0.0
C5146 C 0.14629 0.5114 0.77263 0.0
H5147 H 0.15622 0.49403 0.76238 0.0
H5148 H 0.1562 0.51013 0.76239 0.0
C5149 C 0.1405 0.50666 0.77811 0.0
C5150 C 0.49753 0.15489 0.77409 0.0
C5151 C 0.49277 0.14699 0.77311 0.0
H5152 H 0.51015 0.16105 0.77516 0.0
C5153 C 0.49747 0.13909 0.7719 0.0
H5154 H 0.49415 0.16108 0.77521 0.0
C5155 C 0.50671 0.13907 0.77187 0.0
C5156 C 0.51146 0.14695 0.77305 0.0
H5157 H 0.49401 0.1329 0.77102 0.0
H5158 H 0.51014 0.13287 0.77097 0.0
C5159 C 0.50674 0.15487 0.77405 0.0
C5160 C 0.84881 0.49727 0.23028 0.0
C5161 C 0.85667 0.49251 0.23154 0.0
H5162 H 0.8427 0.50989 0.22896 0.0
C5163 C 0.86454 0.49722 0.23299 0.0
H5164 H 0.84266 0.49389 0.22896 0.0
C5165 C 0.86456 0.50646 0.23299 0.0
C5166 C 0.85672 0.5112 0.23154 0.0
H5167 H 0.87069 0.49376 0.23409 0.0
H5168 H 0.87073 0.50989 0.23409 0.0
C5169 C 0.84883 0.50648 0.23029 0.0
C5170 C 0.50678 0.86477 0.23234 0.0
C5171 C 0.51154 0.8569 0.23111 0.0
H5172 H 0.49407 0.87091 0.23321 0.0
C5173 C 0.50684 0.84898 0.23005 0.0
H5174 H 0.5102 0.87097 0.23328 0.0
C5175 C 0.49763 0.84894 0.23001 0.0
C5176 C 0.49285 0.85683 0.23103 0.0
H5177 H 0.51026 0.84282 0.22891 0.0
H5178 H 0.49426 0.84276 0.22884 0.0
C5179 C 0.49754 0.86474 0.2323 0.0
C5180 C 0.14061 0.50693 0.2261 0.0
C5181 C 0.14641 0.51166 0.23158 0.0
H5182 H 0.13635 0.49428 0.22152 0.0
C5183 C 0.15187 0.50694 0.23741 0.0
H5184 H 0.13639 0.51034 0.22145 0.0
C5185 C 0.15184 0.49772 0.23745 0.0
C5186 C 0.14636 0.49299 0.23166 0.0
H5187 H 0.1563 0.51039 0.24183 0.0
H5188 H 0.15626 0.49429 0.2419 0.0
C5189 C 0.14058 0.4977 0.22614 0.0
C5190 C 0.4975 0.15159 0.23761 0.0
C5191 C 0.49276 0.14616 0.23176 0.0
H5192 H 0.51017 0.15594 0.24207 0.0
C5193 C 0.49746 0.14037 0.22626 0.0
H5194 H 0.49407 0.15601 0.24205 0.0
C5195 C 0.50669 0.14033 0.22627 0.0
C5196 C 0.51143 0.14608 0.23179 0.0
H5197 H 0.49403 0.13617 0.22161 0.0
H5198 H 0.5101 0.1361 0.22163 0.0
C5199 C 0.50672 0.15154 0.23762 0.0
C5200 C 0.77692 0.86321 0.50716 0.0
C5201 C 0.77168 0.85722 0.51192 0.0
H5202 H 0.78129 0.8676 0.49448 0.0
C5203 C 0.76603 0.85154 0.50724 0.0
H5204 H 0.78142 0.8676 0.51054 0.0
C5205 C 0.76595 0.85154 0.49802 0.0
C5206 C 0.77153 0.85722 0.49325 0.0
H5207 H 0.76179 0.84696 0.51072 0.0
H5208 H 0.76166 0.84696 0.49462 0.0
C5209 C 0.77685 0.86321 0.49793 0.0
C5210 C 0.7666 0.15243 0.50685 0.0
C5211 C 0.7722 0.14674 0.51157 0.0
H5212 H 0.76237 0.15705 0.49419 0.0
C5213 C 0.7775 0.14076 0.50685 0.0
H5214 H 0.76233 0.157 0.51028 0.0
C5215 C 0.77752 0.14079 0.49762 0.0
C5216 C 0.77226 0.14679 0.4929 0.0
H5217 H 0.78196 0.13636 0.51027 0.0
H5218 H 0.78201 0.13641 0.49421 0.0
C5219 C 0.76663 0.15246 0.49762 0.0
C5220 C 0.85243 0.76677 0.49741 0.0
C5221 C 0.85774 0.7727 0.49265 0.0
H5222 H 0.84816 0.76227 0.5101 0.0
C5223 C 0.86344 0.77832 0.49733 0.0
H5224 H 0.84808 0.76224 0.494 0.0
C5225 C 0.86349 0.77834 0.50656 0.0
C5226 C 0.85784 0.77273 0.51132 0.0
H5227 H 0.86755 0.78304 0.49389 0.0
H5228 H 0.86763 0.78307 0.50995 0.0
C5229 C 0.85247 0.76679 0.50663 0.0
C5230 C 0.22646 0.86397 0.50654 0.0
C5231 C 0.23204 0.85828 0.51128 0.0
H5232 H 0.22177 0.8681 0.49388 0.0
C5233 C 0.23795 0.85289 0.50657 0.0
H5234 H 0.22175 0.86813 0.50994 0.0
C5235 C 0.23796 0.85288 0.49735 0.0
C5236 C 0.23206 0.85824 0.49261 0.0
H5237 H 0.24244 0.84854 0.51002 0.0
H5238 H 0.24247 0.84852 0.49393 0.0
C5239 C 0.22647 0.86395 0.49731 0.0
C5240 C 0.15187 0.23724 0.50671 0.0
C5241 C 0.14641 0.23142 0.51143 0.0
H5242 H 0.1563 0.24168 0.49405 0.0
C5243 C 0.14062 0.22592 0.5067 0.0
H5244 H 0.15629 0.24168 0.51015 0.0
C5245 C 0.14063 0.22592 0.49747 0.0
C5246 C 0.14642 0.23142 0.49276 0.0
H5247 H 0.1364 0.22129 0.51012 0.0
H5248 H 0.13641 0.22129 0.49405 0.0
C5249 C 0.15188 0.23724 0.49748 0.0
C5250 C 0.23777 0.15271 0.50693 0.0
C5251 C 0.23219 0.14701 0.51166 0.0
H5252 H 0.242 0.1573 0.49426 0.0
C5253 C 0.22695 0.14098 0.50696 0.0
H5254 H 0.24201 0.15732 0.51035 0.0
C5255 C 0.22694 0.14096 0.49773 0.0
C5256 C 0.23218 0.14698 0.493 0.0
H5257 H 0.2225 0.13656 0.51039 0.0
H5258 H 0.22249 0.13654 0.49432 0.0
C5259 C 0.23776 0.1527 0.49771 0.0
C5260 C 0.86452 0.23223 0.49773 0.0
C5261 C 0.85666 0.2309 0.49298 0.0
H5262 H 0.87065 0.23318 0.51044 0.0
C5263 C 0.84875 0.22974 0.49769 0.0
H5264 H 0.8707 0.23324 0.49431 0.0
C5265 C 0.84872 0.2297 0.5069 0.0
C5266 C 0.8566 0.23082 0.51167 0.0
H5267 H 0.8426 0.22852 0.49427 0.0
H5268 H 0.84255 0.22845 0.51027 0.0
C5269 C 0.86449 0.23219 0.50697 0.0
C5270 C 0.15189 0.76625 0.49781 0.0
C5271 C 0.14647 0.77208 0.49304 0.0
H5272 H 0.15625 0.76187 0.51051 0.0
C5273 C 0.14069 0.77763 0.49771 0.0
H5274 H 0.15629 0.76178 0.49441 0.0
C5275 C 0.14067 0.77768 0.50693 0.0
C5276 C 0.14641 0.77218 0.51171 0.0
H5277 H 0.13651 0.78227 0.49425 0.0
H5278 H 0.13646 0.78236 0.51031 0.0
C5279 C 0.15186 0.76631 0.50703 0.0
loop_
_geom_bond_atom_site_label_1
_geom_bond_atom_site_label_2
_geom_bond_distance
_geom_bond_site_symmetry_2
_ccdc_geom_bond_type
C0 C1 1.264 . S
C0 C5 1.479 . S
C0 C10 1.465 . S
C1 C0 1.264 . S
C1 C3 1.339 . S
C1 H28 0.931 . S
C2 C3 1.395 . S
C2 C4 1.320 . S
C3 C1 1.339 . S
C3 C2 1.395 . S
C3 H29 0.929 . S
C4 C2 1.320 . S
C4 C5 1.405 . S
C4 H30 0.930 . S
C5 C0 1.479 . S
C5 C4 1.405 . S
C5 H31 0.931 . S
U6 O7 2.454 . S
U6 O8 2.458 . S
U6 C9 2.984 . S
U6 C10 2.847 . S
U6 C23 2.882 . S
U6 O24 2.441 . S
U6 O25 2.420 . S
U6 O26 2.455 . S
U6 O27 2.449 . S
O7 U6 2.454 . S
O7 C9 1.353 . S
O8 U6 2.458 . S
O8 C9 1.286 . S
C9 U6 2.984 . S
C9 O7 1.353 . S
C9 O8 1.286 . S
C9 C11 1.363 . S
C10 C0 1.465 . S
C10 U6 2.847 . S
C10 O24 1.249 . S
C10 O25 1.202 . S
C11 C9 1.363 . S
C11 C13 1.408 . S
C11 C16 1.342 . S
C12 C13 1.310 . S
C12 C15 1.461 . S
C12 H32 0.932 . S
C13 C11 1.408 . S
C13 C12 1.310 . S
C13 H33 0.930 . S
C14 C15 1.474 . S
C14 C16 1.285 . S
C14 H34 0.929 . S
C15 C12 1.461 . S
C15 C14 1.474 . S
C16 C11 1.342 . S
C16 C14 1.285 . S
C16 H35 0.930 . S
C17 C20 1.424 . S
C17 C22 1.245 . S
C17 C23 1.428 . S
C18 C21 1.260 . S
C18 C22 1.477 . S
C18 H36 0.932 . S
C19 C20 1.384 . S
C19 C21 1.479 . S
C19 H37 0.929 . S
C20 C17 1.424 . S
C20 C19 1.384 . S
C20 H38 0.928 . S
C21 C18 1.260 . S
C21 C19 1.479 . S
C22 C17 1.245 . S
C22 C18 1.477 . S
C22 H39 0.932 . S
C23 U6 2.882 . S
C23 C17 1.428 . S
C23 O26 1.301 . S
C23 O27 1.282 . S
O24 U6 2.441 . S
O24 C10 1.249 . S
O25 U6 2.420 . S
O25 C10 1.202 . S
O26 U6 2.455 . S
O26 C23 1.301 . S
O27 U6 2.449 . S
O27 C23 1.282 . S
H28 C1 0.931 . S
H29 C3 0.929 . S
H30 C4 0.930 . S
H31 C5 0.931 . S
H32 C12 0.932 . S
H33 C13 0.930 . S
H34 C14 0.929 . S
H35 C16 0.930 . S
H36 C18 0.932 . S
H37 C19 0.929 . S
H38 C20 0.928 . S
H39 C22 0.932 . S
C40 C41 1.264 . S
C40 C45 1.479 . S
C40 C50 1.465 . S
C41 C40 1.264 . S
C41 C43 1.339 . S
C41 H68 0.931 . S
C42 C43 1.395 . S
C42 C44 1.320 . S
C43 C41 1.339 . S
C43 C42 1.395 . S
C43 H69 0.929 . S
C44 C42 1.320 . S
C44 C45 1.405 . S
C44 H70 0.930 . S
C45 C40 1.479 . S
C45 C44 1.405 . S
C45 H71 0.931 . S
U46 O47 2.454 . S
U46 O48 2.458 . S
U46 C49 2.984 . S
U46 C50 2.847 . S
U46 C63 2.882 . S
U46 O64 2.441 . S
U46 O65 2.420 . S
U46 O66 2.455 . S
U46 O67 2.449 . S
O47 U46 2.454 . S
O47 C49 1.353 . S
O48 U46 2.458 . S
O48 C49 1.286 . S
C49 U46 2.984 . S
C49 O47 1.353 . S
C49 O48 1.286 . S
C49 C51 1.363 . S
C50 C40 1.465 . S
C50 U46 2.847 . S
C50 O64 1.249 . S
C50 O65 1.202 . S
C51 C49 1.363 . S
C51 C53 1.408 . S
C51 C56 1.342 . S
C52 C53 1.310 . S
C52 C55 1.461 . S
C52 H72 0.932 . S
C53 C51 1.408 . S
C53 C52 1.310 . S
C53 H73 0.930 . S
C54 C55 1.474 . S
C54 C56 1.285 . S
C54 H74 0.929 . S
C55 C52 1.461 . S
C55 C54 1.474 . S
C56 C51 1.342 . S
C56 C54 1.285 . S
C56 H75 0.930 . S
C57 C60 1.424 . S
C57 C62 1.245 . S
C57 C63 1.428 . S
C58 C61 1.260 . S
C58 C62 1.477 . S
C58 H76 0.932 . S
C59 C60 1.384 . S
C59 C61 1.479 . S
C59 H77 0.929 . S
C60 C57 1.424 . S
C60 C59 1.384 . S
C60 H78 0.928 . S
C61 C58 1.260 . S
C61 C59 1.479 . S
C62 C57 1.245 . S
C62 C58 1.477 . S
C62 H79 0.932 . S
C63 U46 2.882 . S
C63 C57 1.428 . S
C63 O66 1.301 . S
C63 O67 1.282 . S
O64 U46 2.441 . S
O64 C50 1.249 . S
O65 U46 2.420 . S
O65 C50 1.202 . S
O66 U46 2.455 . S
O66 C63 1.301 . S
O67 U46 2.449 . S
O67 C63 1.282 . S
H68 C41 0.931 . S
H69 C43 0.929 . S
H70 C44 0.930 . S
H71 C45 0.931 . S
H72 C52 0.932 . S
H73 C53 0.930 . S
H74 C54 0.929 . S
H75 C56 0.930 . S
H76 C58 0.932 . S
H77 C59 0.929 . S
H78 C60 0.928 . S
H79 C62 0.932 . S
C80 C81 1.264 . S
C80 C85 1.479 . S
C80 C90 1.465 . S
C81 C80 1.264 . S
C81 C83 1.339 . S
C81 H108 0.931 . S
C82 C83 1.395 . S
C82 C84 1.320 . S
C83 C81 1.339 . S
C83 C82 1.395 . S
C83 H109 0.929 . S
C84 C82 1.320 . S
C84 C85 1.405 . S
C84 H110 0.930 . S
C85 C80 1.479 . S
C85 C84 1.405 . S
C85 H111 0.931 . S
U86 O87 2.454 . S
U86 O88 2.458 . S
U86 C89 2.984 . S
U86 C90 2.847 . S
U86 C103 2.882 . S
U86 O104 2.441 . S
U86 O105 2.420 . S
U86 O106 2.455 . S
U86 O107 2.449 . S
O87 U86 2.454 . S
O87 C89 1.353 . S
O88 U86 2.458 . S
O88 C89 1.286 . S
C89 U86 2.984 . S
C89 O87 1.353 . S
C89 O88 1.286 . S
C89 C91 1.363 . S
C90 C80 1.465 . S
C90 U86 2.847 . S
C90 O104 1.249 . S
C90 O105 1.202 . S
C91 C89 1.363 . S
C91 C93 1.408 . S
C91 C96 1.342 . S
C92 C93 1.310 . S
C92 C95 1.461 . S
C92 H112 0.932 . S
C93 C91 1.408 . S
C93 C92 1.310 . S
C93 H113 0.930 . S
C94 C95 1.474 . S
C94 C96 1.285 . S
C94 H114 0.929 . S
C95 C92 1.461 . S
C95 C94 1.474 . S
C96 C91 1.342 . S
C96 C94 1.285 . S
C96 H115 0.930 . S
C97 C100 1.424 . S
C97 C102 1.245 . S
C97 C103 1.428 . S
C98 C101 1.260 . S
C98 C102 1.477 . S
C98 H116 0.932 . S
C99 C100 1.384 . S
C99 C101 1.479 . S
C99 H117 0.929 . S
C100 C97 1.424 . S
C100 C99 1.384 . S
C100 H118 0.928 . S
C101 C98 1.260 . S
C101 C99 1.479 . S
C102 C97 1.245 . S
C102 C98 1.477 . S
C102 H119 0.932 . S
C103 U86 2.882 . S
C103 C97 1.428 . S
C103 O106 1.301 . S
C103 O107 1.282 . S
O104 U86 2.441 . S
O104 C90 1.249 . S
O105 U86 2.420 . S
O105 C90 1.202 . S
O106 U86 2.455 . S
O106 C103 1.301 . S
O107 U86 2.449 . S
O107 C103 1.282 . S
H108 C81 0.931 . S
H109 C83 0.929 . S
H110 C84 0.930 . S
H111 C85 0.931 . S
H112 C92 0.932 . S
H113 C93 0.930 . S
H114 C94 0.929 . S
H115 C96 0.930 . S
H116 C98 0.932 . S
H117 C99 0.929 . S
H118 C100 0.928 . S
H119 C102 0.932 . S
C120 C121 1.264 . S
C120 C125 1.479 . S
C120 C130 1.465 . S
C121 C120 1.264 . S
C121 C123 1.339 . S
C121 H148 0.931 . S
C122 C123 1.395 . S
C122 C124 1.320 . S
C123 C121 1.339 . S
C123 C122 1.395 . S
C123 H149 0.929 . S
C124 C122 1.320 . S
C124 C125 1.405 . S
C124 H150 0.930 . S
C125 C120 1.479 . S
C125 C124 1.405 . S
C125 H151 0.931 . S
U126 O127 2.454 . S
U126 O128 2.458 . S
U126 C129 2.984 . S
U126 C130 2.847 . S
U126 C143 2.882 . S
U126 O144 2.441 . S
U126 O145 2.420 . S
U126 O146 2.455 . S
U126 O147 2.449 . S
O127 U126 2.454 . S
O127 C129 1.353 . S
O128 U126 2.458 . S
O128 C129 1.286 . S
C129 U126 2.984 . S
C129 O127 1.353 . S
C129 O128 1.286 . S
C129 C131 1.363 . S
C130 C120 1.465 . S
C130 U126 2.847 . S
C130 O144 1.249 . S
C130 O145 1.202 . S
C131 C129 1.363 . S
C131 C133 1.408 . S
C131 C136 1.342 . S
C132 C133 1.310 . S
C132 C135 1.461 . S
C132 H152 0.932 . S
C133 C131 1.408 . S
C133 C132 1.310 . S
C133 H153 0.930 . S
C134 C135 1.474 . S
C134 C136 1.285 . S
C134 H154 0.929 . S
C135 C132 1.461 . S
C135 C134 1.474 . S
C136 C131 1.342 . S
C136 C134 1.285 . S
C136 H155 0.930 . S
C137 C140 1.424 . S
C137 C142 1.245 . S
C137 C143 1.428 . S
C138 C141 1.260 . S
C138 C142 1.477 . S
C138 H156 0.932 . S
C139 C140 1.384 . S
C139 C141 1.479 . S
C139 H157 0.929 . S
C140 C137 1.424 . S
C140 C139 1.384 . S
C140 H158 0.928 . S
C141 C138 1.260 . S
C141 C139 1.479 . S
C142 C137 1.245 . S
C142 C138 1.477 . S
C142 H159 0.932 . S
C143 U126 2.882 . S
C143 C137 1.428 . S
C143 O146 1.301 . S
C143 O147 1.282 . S
O144 U126 2.441 . S
O144 C130 1.249 . S
O145 U126 2.420 . S
O145 C130 1.202 . S
O146 U126 2.455 . S
O146 C143 1.301 . S
O147 U126 2.449 . S
O147 C143 1.282 . S
H148 C121 0.931 . S
H149 C123 0.929 . S
H150 C124 0.930 . S
H151 C125 0.931 . S
H152 C132 0.932 . S
H153 C133 0.930 . S
H154 C134 0.929 . S
H155 C136 0.930 . S
H156 C138 0.932 . S
H157 C139 0.929 . S
H158 C140 0.928 . S
H159 C142 0.932 . S
C160 C161 1.264 . S
C160 C165 1.479 . S
C160 C170 1.465 . S
C161 C160 1.264 . S
C161 C163 1.339 . S
C161 H188 0.931 . S
C162 C163 1.395 . S
C162 C164 1.320 . S
C163 C161 1.339 . S
C163 C162 1.395 . S
C163 H189 0.929 . S
C164 C162 1.320 . S
C164 C165 1.405 . S
C164 H190 0.930 . S
C165 C160 1.479 . S
C165 C164 1.405 . S
C165 H191 0.931 . S
U166 O167 2.454 . S
U166 O168 2.458 . S
U166 C169 2.984 . S
U166 C170 2.847 . S
U166 C183 2.882 . S
U166 O184 2.441 . S
U166 O185 2.420 . S
U166 O186 2.455 . S
U166 O187 2.449 . S
O167 U166 2.454 . S
O167 C169 1.353 . S
O168 U166 2.458 . S
O168 C169 1.286 . S
C169 U166 2.984 . S
C169 O167 1.353 . S
C169 O168 1.286 . S
C169 C171 1.363 . S
C170 C160 1.465 . S
C170 U166 2.847 . S
C170 O184 1.249 . S
C170 O185 1.202 . S
C171 C169 1.363 . S
C171 C173 1.408 . S
C171 C176 1.342 . S
C172 C173 1.310 . S
C172 C175 1.461 . S
C172 H192 0.932 . S
C173 C171 1.408 . S
C173 C172 1.310 . S
C173 H193 0.930 . S
C174 C175 1.474 . S
C174 C176 1.285 . S
C174 H194 0.929 . S
C175 C172 1.461 . S
C175 C174 1.474 . S
C176 C171 1.342 . S
C176 C174 1.285 . S
C176 H195 0.930 . S
C177 C180 1.424 . S
C177 C182 1.245 . S
C177 C183 1.428 . S
C178 C181 1.260 . S
C178 C182 1.477 . S
C178 H196 0.932 . S
C179 C180 1.384 . S
C179 C181 1.479 . S
C179 H197 0.929 . S
C180 C177 1.424 . S
C180 C179 1.384 . S
C180 H198 0.928 . S
C181 C178 1.260 . S
C181 C179 1.479 . S
C182 C177 1.245 . S
C182 C178 1.477 . S
C182 H199 0.932 . S
C183 U166 2.882 . S
C183 C177 1.428 . S
C183 O186 1.301 . S
C183 O187 1.282 . S
O184 U166 2.441 . S
O184 C170 1.249 . S
O185 U166 2.420 . S
O185 C170 1.202 . S
O186 U166 2.455 . S
O186 C183 1.301 . S
O187 U166 2.449 . S
O187 C183 1.282 . S
H188 C161 0.931 . S
H189 C163 0.929 . S
H190 C164 0.930 . S
H191 C165 0.931 . S
H192 C172 0.932 . S
H193 C173 0.930 . S
H194 C174 0.929 . S
H195 C176 0.930 . S
H196 C178 0.932 . S
H197 C179 0.929 . S
H198 C180 0.928 . S
H199 C182 0.932 . S
C200 C201 1.264 . S
C200 C205 1.479 . S
C200 C210 1.465 . S
C201 C200 1.264 . S
C201 C203 1.339 . S
C201 H228 0.931 . S
C202 C203 1.395 . S
C202 C204 1.320 . S
C203 C201 1.339 . S
C203 C202 1.395 . S
C203 H229 0.929 . S
C204 C202 1.320 . S
C204 C205 1.405 . S
C204 H230 0.930 . S
C205 C200 1.479 . S
C205 C204 1.405 . S
C205 H231 0.931 . S
U206 O207 2.454 . S
U206 O208 2.458 . S
U206 C209 2.984 . S
U206 C210 2.847 . S
U206 C223 2.882 . S
U206 O224 2.441 . S
U206 O225 2.420 . S
U206 O226 2.455 . S
U206 O227 2.449 . S
O207 U206 2.454 . S
O207 C209 1.353 . S
O208 U206 2.458 . S
O208 C209 1.286 . S
C209 U206 2.984 . S
C209 O207 1.353 . S
C209 O208 1.286 . S
C209 C211 1.363 . S
C210 C200 1.465 . S
C210 U206 2.847 . S
C210 O224 1.249 . S
C210 O225 1.202 . S
C211 C209 1.363 . S
C211 C213 1.408 . S
C211 C216 1.342 . S
C212 C213 1.310 . S
C212 C215 1.461 . S
C212 H232 0.932 . S
C213 C211 1.408 . S
C213 C212 1.310 . S
C213 H233 0.930 . S
C214 C215 1.474 . S
C214 C216 1.285 . S
C214 H234 0.929 . S
C215 C212 1.461 . S
C215 C214 1.474 . S
C216 C211 1.342 . S
C216 C214 1.285 . S
C216 H235 0.930 . S
C217 C220 1.424 . S
C217 C222 1.245 . S
C217 C223 1.428 . S
C218 C221 1.260 . S
C218 C222 1.477 . S
C218 H236 0.932 . S
C219 C220 1.384 . S
C219 C221 1.479 . S
C219 H237 0.929 . S
C220 C217 1.424 . S
C220 C219 1.384 . S
C220 H238 0.928 . S
C221 C218 1.260 . S
C221 C219 1.479 . S
C222 C217 1.245 . S
C222 C218 1.477 . S
C222 H239 0.932 . S
C223 U206 2.882 . S
C223 C217 1.428 . S
C223 O226 1.301 . S
C223 O227 1.282 . S
O224 U206 2.441 . S
O224 C210 1.249 . S
O225 U206 2.420 . S
O225 C210 1.202 . S
O226 U206 2.455 . S
O226 C223 1.301 . S
O227 U206 2.449 . S
O227 C223 1.282 . S
H228 C201 0.931 . S
H229 C203 0.929 . S
H230 C204 0.930 . S
H231 C205 0.931 . S
H232 C212 0.932 . S
H233 C213 0.930 . S
H234 C214 0.929 . S
H235 C216 0.930 . S
H236 C218 0.932 . S
H237 C219 0.929 . S
H238 C220 0.928 . S
H239 C222 0.932 . S
C240 C241 1.264 . S
C240 C245 1.479 . S
C240 C250 1.465 . S
C241 C240 1.264 . S
C241 C243 1.339 . S
C241 H268 0.931 . S
C242 C243 1.395 . S
C242 C244 1.320 . S
C243 C241 1.339 . S
C243 C242 1.395 . S
C243 H269 0.929 . S
C244 C242 1.320 . S
C244 C245 1.405 . S
C244 H270 0.930 . S
C245 C240 1.479 . S
C245 C244 1.405 . S
C245 H271 0.931 . S
U246 O247 2.454 . S
U246 O248 2.458 . S
U246 C249 2.984 . S
U246 C250 2.847 . S
U246 C263 2.882 . S
U246 O264 2.441 . S
U246 O265 2.420 . S
U246 O266 2.455 . S
U246 O267 2.449 . S
O247 U246 2.454 . S
O247 C249 1.353 . S
O248 U246 2.458 . S
O248 C249 1.286 . S
C249 U246 2.984 . S
C249 O247 1.353 . S
C249 O248 1.286 . S
C249 C251 1.363 . S
C250 C240 1.465 . S
C250 U246 2.847 . S
C250 O264 1.249 . S
C250 O265 1.202 . S
C251 C249 1.363 . S
C251 C253 1.408 . S
C251 C256 1.342 . S
C252 C253 1.310 . S
C252 C255 1.461 . S
C252 H272 0.932 . S
C253 C251 1.408 . S
C253 C252 1.310 . S
C253 H273 0.930 . S
C254 C255 1.474 . S
C254 C256 1.285 . S
C254 H274 0.929 . S
C255 C252 1.461 . S
C255 C254 1.474 . S
C256 C251 1.342 . S
C256 C254 1.285 . S
C256 H275 0.930 . S
C257 C260 1.424 . S
C257 C262 1.245 . S
C257 C263 1.428 . S
C258 C261 1.260 . S
C258 C262 1.477 . S
C258 H276 0.932 . S
C259 C260 1.384 . S
C259 C261 1.479 . S
C259 H277 0.929 . S
C260 C257 1.424 . S
C260 C259 1.384 . S
C260 H278 0.928 . S
C261 C258 1.260 . S
C261 C259 1.479 . S
C262 C257 1.245 . S
C262 C258 1.477 . S
C262 H279 0.932 . S
C263 U246 2.882 . S
C263 C257 1.428 . S
C263 O266 1.301 . S
C263 O267 1.282 . S
O264 U246 2.441 . S
O264 C250 1.249 . S
O265 U246 2.420 . S
O265 C250 1.202 . S
O266 U246 2.455 . S
O266 C263 1.301 . S
O267 U246 2.449 . S
O267 C263 1.282 . S
H268 C241 0.931 . S
H269 C243 0.929 . S
H270 C244 0.930 . S
H271 C245 0.931 . S
H272 C252 0.932 . S
H273 C253 0.930 . S
H274 C254 0.929 . S
H275 C256 0.930 . S
H276 C258 0.932 . S
H277 C259 0.929 . S
H278 C260 0.928 . S
H279 C262 0.932 . S
C280 C281 1.264 . S
C280 C285 1.479 . S
C280 C290 1.465 . S
C281 C280 1.264 . S
C281 C283 1.339 . S
C281 H308 0.931 . S
C282 C283 1.395 . S
C282 C284 1.320 . S
C283 C281 1.339 . S
C283 C282 1.395 . S
C283 H309 0.929 . S
C284 C282 1.320 . S
C284 C285 1.405 . S
C284 H310 0.930 . S
C285 C280 1.479 . S
C285 C284 1.405 . S
C285 H311 0.931 . S
U286 O287 2.454 . S
U286 O288 2.458 . S
U286 C289 2.984 . S
U286 C290 2.847 . S
U286 C303 2.882 . S
U286 O304 2.441 . S
U286 O305 2.420 . S
U286 O306 2.455 . S
U286 O307 2.449 . S
O287 U286 2.454 . S
O287 C289 1.353 . S
O288 U286 2.458 . S
O288 C289 1.286 . S
C289 U286 2.984 . S
C289 O287 1.353 . S
C289 O288 1.286 . S
C289 C291 1.363 . S
C290 C280 1.465 . S
C290 U286 2.847 . S
C290 O304 1.249 . S
C290 O305 1.202 . S
C291 C289 1.363 . S
C291 C293 1.408 . S
C291 C296 1.342 . S
C292 C293 1.310 . S
C292 C295 1.461 . S
C292 H312 0.932 . S
C293 C291 1.408 . S
C293 C292 1.310 . S
C293 H313 0.930 . S
C294 C295 1.474 . S
C294 C296 1.285 . S
C294 H314 0.929 . S
C295 C292 1.461 . S
C295 C294 1.474 . S
C296 C291 1.342 . S
C296 C294 1.285 . S
C296 H315 0.930 . S
C297 C300 1.424 . S
C297 C302 1.245 . S
C297 C303 1.428 . S
C298 C301 1.260 . S
C298 C302 1.477 . S
C298 H316 0.932 . S
C299 C300 1.384 . S
C299 C301 1.479 . S
C299 H317 0.929 . S
C300 C297 1.424 . S
C300 C299 1.384 . S
C300 H318 0.928 . S
C301 C298 1.260 . S
C301 C299 1.479 . S
C302 C297 1.245 . S
C302 C298 1.477 . S
C302 H319 0.932 . S
C303 U286 2.882 . S
C303 C297 1.428 . S
C303 O306 1.301 . S
C303 O307 1.282 . S
O304 U286 2.441 . S
O304 C290 1.249 . S
O305 U286 2.420 . S
O305 C290 1.202 . S
O306 U286 2.455 . S
O306 C303 1.301 . S
O307 U286 2.449 . S
O307 C303 1.282 . S
H308 C281 0.931 . S
H309 C283 0.929 . S
H310 C284 0.930 . S
H311 C285 0.931 . S
H312 C292 0.932 . S
H313 C293 0.930 . S
H314 C294 0.929 . S
H315 C296 0.930 . S
H316 C298 0.932 . S
H317 C299 0.929 . S
H318 C300 0.928 . S
H319 C302 0.932 . S
C320 C321 1.264 . S
C320 C325 1.479 . S
C320 C330 1.465 . S
C321 C320 1.264 . S
C321 C323 1.339 . S
C321 H348 0.931 . S
C322 C323 1.395 . S
C322 C324 1.320 . S
C323 C321 1.339 . S
C323 C322 1.395 . S
C323 H349 0.929 . S
C324 C322 1.320 . S
C324 C325 1.405 . S
C324 H350 0.930 . S
C325 C320 1.479 . S
C325 C324 1.405 . S
C325 H351 0.931 . S
U326 O327 2.454 . S
U326 O328 2.458 . S
U326 C329 2.984 . S
U326 C330 2.847 . S
U326 C343 2.882 . S
U326 O344 2.441 . S
U326 O345 2.420 . S
U326 O346 2.455 . S
U326 O347 2.449 . S
O327 U326 2.454 . S
O327 C329 1.353 . S
O328 U326 2.458 . S
O328 C329 1.286 . S
C329 U326 2.984 . S
C329 O327 1.353 . S
C329 O328 1.286 . S
C329 C331 1.363 . S
C330 C320 1.465 . S
C330 U326 2.847 . S
C330 O344 1.249 . S
C330 O345 1.202 . S
C331 C329 1.363 . S
C331 C333 1.408 . S
C331 C336 1.342 . S
C332 C333 1.310 . S
C332 C335 1.461 . S
C332 H352 0.932 . S
C333 C331 1.408 . S
C333 C332 1.310 . S
C333 H353 0.930 . S
C334 C335 1.474 . S
C334 C336 1.285 . S
C334 H354 0.929 . S
C335 C332 1.461 . S
C335 C334 1.474 . S
C336 C331 1.342 . S
C336 C334 1.285 . S
C336 H355 0.930 . S
C337 C340 1.424 . S
C337 C342 1.245 . S
C337 C343 1.428 . S
C338 C341 1.260 . S
C338 C342 1.477 . S
C338 H356 0.932 . S
C339 C340 1.384 . S
C339 C341 1.479 . S
C339 H357 0.929 . S
C340 C337 1.424 . S
C340 C339 1.384 . S
C340 H358 0.928 . S
C341 C338 1.260 . S
C341 C339 1.479 . S
C342 C337 1.245 . S
C342 C338 1.477 . S
C342 H359 0.932 . S
C343 U326 2.882 . S
C343 C337 1.428 . S
C343 O346 1.301 . S
C343 O347 1.282 . S
O344 U326 2.441 . S
O344 C330 1.249 . S
O345 U326 2.420 . S
O345 C330 1.202 . S
O346 U326 2.455 . S
O346 C343 1.301 . S
O347 U326 2.449 . S
O347 C343 1.282 . S
H348 C321 0.931 . S
H349 C323 0.929 . S
H350 C324 0.930 . S
H351 C325 0.931 . S
H352 C332 0.932 . S
H353 C333 0.930 . S
H354 C334 0.929 . S
H355 C336 0.930 . S
H356 C338 0.932 . S
H357 C339 0.929 . S
H358 C340 0.928 . S
H359 C342 0.932 . S
C360 C361 1.264 . S
C360 C365 1.479 . S
C360 C370 1.465 . S
C361 C360 1.264 . S
C361 C363 1.339 . S
C361 H388 0.931 . S
C362 C363 1.395 . S
C362 C364 1.320 . S
C363 C361 1.339 . S
C363 C362 1.395 . S
C363 H389 0.929 . S
C364 C362 1.320 . S
C364 C365 1.405 . S
C364 H390 0.930 . S
C365 C360 1.479 . S
C365 C364 1.405 . S
C365 H391 0.931 . S
U366 O367 2.454 . S
U366 O368 2.458 . S
U366 C369 2.984 . S
U366 C370 2.847 . S
U366 C383 2.882 . S
U366 O384 2.441 . S
U366 O385 2.420 . S
U366 O386 2.455 . S
U366 O387 2.449 . S
O367 U366 2.454 . S
O367 C369 1.353 . S
O368 U366 2.458 . S
O368 C369 1.286 . S
C369 U366 2.984 . S
C369 O367 1.353 . S
C369 O368 1.286 . S
C369 C371 1.363 . S
C370 C360 1.465 . S
C370 U366 2.847 . S
C370 O384 1.249 . S
C370 O385 1.202 . S
C371 C369 1.363 . S
C371 C373 1.408 . S
C371 C376 1.342 . S
C372 C373 1.310 . S
C372 C375 1.461 . S
C372 H392 0.932 . S
C373 C371 1.408 . S
C373 C372 1.310 . S
C373 H393 0.930 . S
C374 C375 1.474 . S
C374 C376 1.285 . S
C374 H394 0.929 . S
C375 C372 1.461 . S
C375 C374 1.474 . S
C376 C371 1.342 . S
C376 C374 1.285 . S
C376 H395 0.930 . S
C377 C380 1.424 . S
C377 C382 1.245 . S
C377 C383 1.428 . S
C378 C381 1.260 . S
C378 C382 1.477 . S
C378 H396 0.932 . S
C379 C380 1.384 . S
C379 C381 1.479 . S
C379 H397 0.929 . S
C380 C377 1.424 . S
C380 C379 1.384 . S
C380 H398 0.928 . S
C381 C378 1.260 . S
C381 C379 1.479 . S
C382 C377 1.245 . S
C382 C378 1.477 . S
C382 H399 0.932 . S
C383 U366 2.882 . S
C383 C377 1.428 . S
C383 O386 1.301 . S
C383 O387 1.282 . S
O384 U366 2.441 . S
O384 C370 1.249 . S
O385 U366 2.420 . S
O385 C370 1.202 . S
O386 U366 2.455 . S
O386 C383 1.301 . S
O387 U366 2.449 . S
O387 C383 1.282 . S
H388 C361 0.931 . S
H389 C363 0.929 . S
H390 C364 0.930 . S
H391 C365 0.931 . S
H392 C372 0.932 . S
H393 C373 0.930 . S
H394 C374 0.929 . S
H395 C376 0.930 . S
H396 C378 0.932 . S
H397 C379 0.929 . S
H398 C380 0.928 . S
H399 C382 0.932 . S
C400 C401 1.264 . S
C400 C405 1.479 . S
C400 C410 1.465 . S
C401 C400 1.264 . S
C401 C403 1.339 . S
C401 H428 0.931 . S
C402 C403 1.395 . S
C402 C404 1.320 . S
C403 C401 1.339 . S
C403 C402 1.395 . S
C403 H429 0.929 . S
C404 C402 1.320 . S
C404 C405 1.405 . S
C404 H430 0.930 . S
C405 C400 1.479 . S
C405 C404 1.405 . S
C405 H431 0.931 . S
U406 O407 2.454 . S
U406 O408 2.458 . S
U406 C409 2.984 . S
U406 C410 2.847 . S
U406 C423 2.882 . S
U406 O424 2.441 . S
U406 O425 2.420 . S
U406 O426 2.455 . S
U406 O427 2.449 . S
O407 U406 2.454 . S
O407 C409 1.353 . S
O408 U406 2.458 . S
O408 C409 1.286 . S
C409 U406 2.984 . S
C409 O407 1.353 . S
C409 O408 1.286 . S
C409 C411 1.363 . S
C410 C400 1.465 . S
C410 U406 2.847 . S
C410 O424 1.249 . S
C410 O425 1.202 . S
C411 C409 1.363 . S
C411 C413 1.408 . S
C411 C416 1.342 . S
C412 C413 1.310 . S
C412 C415 1.461 . S
C412 H432 0.932 . S
C413 C411 1.408 . S
C413 C412 1.310 . S
C413 H433 0.930 . S
C414 C415 1.474 . S
C414 C416 1.285 . S
C414 H434 0.929 . S
C415 C412 1.461 . S
C415 C414 1.474 . S
C416 C411 1.342 . S
C416 C414 1.285 . S
C416 H435 0.930 . S
C417 C420 1.424 . S
C417 C422 1.245 . S
C417 C423 1.428 . S
C418 C421 1.260 . S
C418 C422 1.477 . S
C418 H436 0.932 . S
C419 C420 1.384 . S
C419 C421 1.479 . S
C419 H437 0.929 . S
C420 C417 1.424 . S
C420 C419 1.384 . S
C420 H438 0.928 . S
C421 C418 1.260 . S
C421 C419 1.479 . S
C422 C417 1.245 . S
C422 C418 1.477 . S
C422 H439 0.932 . S
C423 U406 2.882 . S
C423 C417 1.428 . S
C423 O426 1.301 . S
C423 O427 1.282 . S
O424 U406 2.441 . S
O424 C410 1.249 . S
O425 U406 2.420 . S
O425 C410 1.202 . S
O426 U406 2.455 . S
O426 C423 1.301 . S
O427 U406 2.449 . S
O427 C423 1.282 . S
H428 C401 0.931 . S
H429 C403 0.929 . S
H430 C404 0.930 . S
H431 C405 0.931 . S
H432 C412 0.932 . S
H433 C413 0.930 . S
H434 C414 0.929 . S
H435 C416 0.930 . S
H436 C418 0.932 . S
H437 C419 0.929 . S
H438 C420 0.928 . S
H439 C422 0.932 . S
C440 C441 1.264 . S
C440 C445 1.479 . S
C440 C450 1.465 . S
C441 C440 1.264 . S
C441 C443 1.339 . S
C441 H468 0.931 . S
C442 C443 1.395 . S
C442 C444 1.320 . S
C443 C441 1.339 . S
C443 C442 1.395 . S
C443 H469 0.929 . S
C444 C442 1.320 . S
C444 C445 1.405 . S
C444 H470 0.930 . S
C445 C440 1.479 . S
C445 C444 1.405 . S
C445 H471 0.931 . S
U446 O447 2.454 . S
U446 O448 2.458 . S
U446 C449 2.984 . S
U446 C450 2.847 . S
U446 C463 2.882 . S
U446 O464 2.441 . S
U446 O465 2.420 . S
U446 O466 2.455 . S
U446 O467 2.449 . S
O447 U446 2.454 . S
O447 C449 1.353 . S
O448 U446 2.458 . S
O448 C449 1.286 . S
C449 U446 2.984 . S
C449 O447 1.353 . S
C449 O448 1.286 . S
C449 C451 1.363 . S
C450 C440 1.465 . S
C450 U446 2.847 . S
C450 O464 1.249 . S
C450 O465 1.202 . S
C451 C449 1.363 . S
C451 C453 1.408 . S
C451 C456 1.342 . S
C452 C453 1.310 . S
C452 C455 1.461 . S
C452 H472 0.932 . S
C453 C451 1.408 . S
C453 C452 1.310 . S
C453 H473 0.930 . S
C454 C455 1.474 . S
C454 C456 1.285 . S
C454 H474 0.929 . S
C455 C452 1.461 . S
C455 C454 1.474 . S
C456 C451 1.342 . S
C456 C454 1.285 . S
C456 H475 0.930 . S
C457 C460 1.424 . S
C457 C462 1.245 . S
C457 C463 1.428 . S
C458 C461 1.260 . S
C458 C462 1.477 . S
C458 H476 0.932 . S
C459 C460 1.384 . S
C459 C461 1.479 . S
C459 H477 0.929 . S
C460 C457 1.424 . S
C460 C459 1.384 . S
C460 H478 0.928 . S
C461 C458 1.260 . S
C461 C459 1.479 . S
C462 C457 1.245 . S
C462 C458 1.477 . S
C462 H479 0.932 . S
C463 U446 2.882 . S
C463 C457 1.428 . S
C463 O466 1.301 . S
C463 O467 1.282 . S
O464 U446 2.441 . S
O464 C450 1.249 . S
O465 U446 2.420 . S
O465 C450 1.202 . S
O466 U446 2.455 . S
O466 C463 1.301 . S
O467 U446 2.449 . S
O467 C463 1.282 . S
H468 C441 0.931 . S
H469 C443 0.929 . S
H470 C444 0.930 . S
H471 C445 0.931 . S
H472 C452 0.932 . S
H473 C453 0.930 . S
H474 C454 0.929 . S
H475 C456 0.930 . S
H476 C458 0.932 . S
H477 C459 0.929 . S
H478 C460 0.928 . S
H479 C462 0.932 . S
C480 C481 1.264 . S
C480 C485 1.479 . S
C480 C490 1.465 . S
C481 C480 1.264 . S
C481 C483 1.339 . S
C481 H508 0.931 . S
C482 C483 1.395 . S
C482 C484 1.320 . S
C483 C481 1.339 . S
C483 C482 1.395 . S
C483 H509 0.929 . S
C484 C482 1.320 . S
C484 C485 1.405 . S
C484 H510 0.930 . S
C485 C480 1.479 . S
C485 C484 1.405 . S
C485 H511 0.931 . S
U486 O487 2.454 . S
U486 O488 2.458 . S
U486 C489 2.984 . S
U486 C490 2.847 . S
U486 C503 2.882 . S
U486 O504 2.441 . S
U486 O505 2.420 . S
U486 O506 2.455 . S
U486 O507 2.449 . S
O487 U486 2.454 . S
O487 C489 1.353 . S
O488 U486 2.458 . S
O488 C489 1.286 . S
C489 U486 2.984 . S
C489 O487 1.353 . S
C489 O488 1.286 . S
C489 C491 1.363 . S
C490 C480 1.465 . S
C490 U486 2.847 . S
C490 O504 1.249 . S
C490 O505 1.202 . S
C491 C489 1.363 . S
C491 C493 1.408 . S
C491 C496 1.342 . S
C492 C493 1.310 . S
C492 C495 1.461 . S
C492 H512 0.932 . S
C493 C491 1.408 . S
C493 C492 1.310 . S
C493 H513 0.930 . S
C494 C495 1.474 . S
C494 C496 1.285 . S
C494 H514 0.929 . S
C495 C492 1.461 . S
C495 C494 1.474 . S
C496 C491 1.342 . S
C496 C494 1.285 . S
C496 H515 0.930 . S
C497 C500 1.424 . S
C497 C502 1.245 . S
C497 C503 1.428 . S
C498 C501 1.260 . S
C498 C502 1.477 . S
C498 H516 0.932 . S
C499 C500 1.384 . S
C499 C501 1.479 . S
C499 H517 0.929 . S
C500 C497 1.424 . S
C500 C499 1.384 . S
C500 H518 0.928 . S
C501 C498 1.260 . S
C501 C499 1.479 . S
C502 C497 1.245 . S
C502 C498 1.477 . S
C502 H519 0.932 . S
C503 U486 2.882 . S
C503 C497 1.428 . S
C503 O506 1.301 . S
C503 O507 1.282 . S
O504 U486 2.441 . S
O504 C490 1.249 . S
O505 U486 2.420 . S
O505 C490 1.202 . S
O506 U486 2.455 . S
O506 C503 1.301 . S
O507 U486 2.449 . S
O507 C503 1.282 . S
H508 C481 0.931 . S
H509 C483 0.929 . S
H510 C484 0.930 . S
H511 C485 0.931 . S
H512 C492 0.932 . S
H513 C493 0.930 . S
H514 C494 0.929 . S
H515 C496 0.930 . S
H516 C498 0.932 . S
H517 C499 0.929 . S
H518 C500 0.928 . S
H519 C502 0.932 . S
C520 C521 1.264 . S
C520 C525 1.479 . S
C520 C530 1.465 . S
C521 C520 1.264 . S
C521 C523 1.339 . S
C521 H548 0.931 . S
C522 C523 1.395 . S
C522 C524 1.320 . S
C523 C521 1.339 . S
C523 C522 1.395 . S
C523 H549 0.929 . S
C524 C522 1.320 . S
C524 C525 1.405 . S
C524 H550 0.930 . S
C525 C520 1.479 . S
C525 C524 1.405 . S
C525 H551 0.931 . S
U526 O527 2.454 . S
U526 O528 2.458 . S
U526 C529 2.984 . S
U526 C530 2.847 . S
U526 C543 2.882 . S
U526 O544 2.441 . S
U526 O545 2.420 . S
U526 O546 2.455 . S
U526 O547 2.449 . S
O527 U526 2.454 . S
O527 C529 1.353 . S
O528 U526 2.458 . S
O528 C529 1.286 . S
C529 U526 2.984 . S
C529 O527 1.353 . S
C529 O528 1.286 . S
C529 C531 1.363 . S
C530 C520 1.465 . S
C530 U526 2.847 . S
C530 O544 1.249 . S
C530 O545 1.202 . S
C531 C529 1.363 . S
C531 C533 1.408 . S
C531 C536 1.342 . S
C532 C533 1.310 . S
C532 C535 1.461 . S
C532 H552 0.932 . S
C533 C531 1.408 . S
C533 C532 1.310 . S
C533 H553 0.930 . S
C534 C535 1.474 . S
C534 C536 1.285 . S
C534 H554 0.929 . S
C535 C532 1.461 . S
C535 C534 1.474 . S
C536 C531 1.342 . S
C536 C534 1.285 . S
C536 H555 0.930 . S
C537 C540 1.424 . S
C537 C542 1.245 . S
C537 C543 1.428 . S
C538 C541 1.260 . S
C538 C542 1.477 . S
C538 H556 0.932 . S
C539 C540 1.384 . S
C539 C541 1.479 . S
C539 H557 0.929 . S
C540 C537 1.424 . S
C540 C539 1.384 . S
C540 H558 0.928 . S
C541 C538 1.260 . S
C541 C539 1.479 . S
C542 C537 1.245 . S
C542 C538 1.477 . S
C542 H559 0.932 . S
C543 U526 2.882 . S
C543 C537 1.428 . S
C543 O546 1.301 . S
C543 O547 1.282 . S
O544 U526 2.441 . S
O544 C530 1.249 . S
O545 U526 2.420 . S
O545 C530 1.202 . S
O546 U526 2.455 . S
O546 C543 1.301 . S
O547 U526 2.449 . S
O547 C543 1.282 . S
H548 C521 0.931 . S
H549 C523 0.929 . S
H550 C524 0.930 . S
H551 C525 0.931 . S
H552 C532 0.932 . S
H553 C533 0.930 . S
H554 C534 0.929 . S
H555 C536 0.930 . S
H556 C538 0.932 . S
H557 C539 0.929 . S
H558 C540 0.928 . S
H559 C542 0.932 . S
C560 C561 1.264 . S
C560 C565 1.479 . S
C560 C570 1.465 . S
C561 C560 1.264 . S
C561 C563 1.339 . S
C561 H588 0.931 . S
C562 C563 1.395 . S
C562 C564 1.320 . S
C563 C561 1.339 . S
C563 C562 1.395 . S
C563 H589 0.929 . S
C564 C562 1.320 . S
C564 C565 1.405 . S
C564 H590 0.930 . S
C565 C560 1.479 . S
C565 C564 1.405 . S
C565 H591 0.931 . S
U566 O567 2.454 . S
U566 O568 2.458 . S
U566 C569 2.984 . S
U566 C570 2.847 . S
U566 C583 2.882 . S
U566 O584 2.441 . S
U566 O585 2.420 . S
U566 O586 2.455 . S
U566 O587 2.449 . S
O567 U566 2.454 . S
O567 C569 1.353 . S
O568 U566 2.458 . S
O568 C569 1.286 . S
C569 U566 2.984 . S
C569 O567 1.353 . S
C569 O568 1.286 . S
C569 C571 1.363 . S
C570 C560 1.465 . S
C570 U566 2.847 . S
C570 O584 1.249 . S
C570 O585 1.202 . S
C571 C569 1.363 . S
C571 C573 1.408 . S
C571 C576 1.342 . S
C572 C573 1.310 . S
C572 C575 1.461 . S
C572 H592 0.932 . S
C573 C571 1.408 . S
C573 C572 1.310 . S
C573 H593 0.930 . S
C574 C575 1.474 . S
C574 C576 1.285 . S
C574 H594 0.929 . S
C575 C572 1.461 . S
C575 C574 1.474 . S
C576 C571 1.342 . S
C576 C574 1.285 . S
C576 H595 0.930 . S
C577 C580 1.424 . S
C577 C582 1.245 . S
C577 C583 1.428 . S
C578 C581 1.260 . S
C578 C582 1.477 . S
C578 H596 0.932 . S
C579 C580 1.384 . S
C579 C581 1.479 . S
C579 H597 0.929 . S
C580 C577 1.424 . S
C580 C579 1.384 . S
C580 H598 0.928 . S
C581 C578 1.260 . S
C581 C579 1.479 . S
C582 C577 1.245 . S
C582 C578 1.477 . S
C582 H599 0.932 . S
C583 U566 2.882 . S
C583 C577 1.428 . S
C583 O586 1.301 . S
C583 O587 1.282 . S
O584 U566 2.441 . S
O584 C570 1.249 . S
O585 U566 2.420 . S
O585 C570 1.202 . S
O586 U566 2.455 . S
O586 C583 1.301 . S
O587 U566 2.449 . S
O587 C583 1.282 . S
H588 C561 0.931 . S
H589 C563 0.929 . S
H590 C564 0.930 . S
H591 C565 0.931 . S
H592 C572 0.932 . S
H593 C573 0.930 . S
H594 C574 0.929 . S
H595 C576 0.930 . S
H596 C578 0.932 . S
H597 C579 0.929 . S
H598 C580 0.928 . S
H599 C582 0.932 . S
C600 C601 1.264 . S
C600 C605 1.479 . S
C600 C610 1.465 . S
C601 C600 1.264 . S
C601 C603 1.339 . S
C601 H628 0.931 . S
C602 C603 1.395 . S
C602 C604 1.320 . S
C603 C601 1.339 . S
C603 C602 1.395 . S
C603 H629 0.929 . S
C604 C602 1.320 . S
C604 C605 1.405 . S
C604 H630 0.930 . S
C605 C600 1.479 . S
C605 C604 1.405 . S
C605 H631 0.931 . S
U606 O607 2.454 . S
U606 O608 2.458 . S
U606 C609 2.984 . S
U606 C610 2.847 . S
U606 C623 2.882 . S
U606 O624 2.441 . S
U606 O625 2.420 . S
U606 O626 2.455 . S
U606 O627 2.449 . S
O607 U606 2.454 . S
O607 C609 1.353 . S
O608 U606 2.458 . S
O608 C609 1.286 . S
C609 U606 2.984 . S
C609 O607 1.353 . S
C609 O608 1.286 . S
C609 C611 1.363 . S
C610 C600 1.465 . S
C610 U606 2.847 . S
C610 O624 1.249 . S
C610 O625 1.202 . S
C611 C609 1.363 . S
C611 C613 1.408 . S
C611 C616 1.342 . S
C612 C613 1.310 . S
C612 C615 1.461 . S
C612 H632 0.932 . S
C613 C611 1.408 . S
C613 C612 1.310 . S
C613 H633 0.930 . S
C614 C615 1.474 . S
C614 C616 1.285 . S
C614 H634 0.929 . S
C615 C612 1.461 . S
C615 C614 1.474 . S
C616 C611 1.342 . S
C616 C614 1.285 . S
C616 H635 0.930 . S
C617 C620 1.424 . S
C617 C622 1.245 . S
C617 C623 1.428 . S
C618 C621 1.260 . S
C618 C622 1.477 . S
C618 H636 0.932 . S
C619 C620 1.384 . S
C619 C621 1.479 . S
C619 H637 0.929 . S
C620 C617 1.424 . S
C620 C619 1.384 . S
C620 H638 0.928 . S
C621 C618 1.260 . S
C621 C619 1.479 . S
C622 C617 1.245 . S
C622 C618 1.477 . S
C622 H639 0.932 . S
C623 U606 2.882 . S
C623 C617 1.428 . S
C623 O626 1.301 . S
C623 O627 1.282 . S
O624 U606 2.441 . S
O624 C610 1.249 . S
O625 U606 2.420 . S
O625 C610 1.202 . S
O626 U606 2.455 . S
O626 C623 1.301 . S
O627 U606 2.449 . S
O627 C623 1.282 . S
H628 C601 0.931 . S
H629 C603 0.929 . S
H630 C604 0.930 . S
H631 C605 0.931 . S
H632 C612 0.932 . S
H633 C613 0.930 . S
H634 C614 0.929 . S
H635 C616 0.930 . S
H636 C618 0.932 . S
H637 C619 0.929 . S
H638 C620 0.928 . S
H639 C622 0.932 . S
C640 C641 1.264 . S
C640 C645 1.479 . S
C640 C650 1.465 . S
C641 C640 1.264 . S
C641 C643 1.339 . S
C641 H668 0.931 . S
C642 C643 1.395 . S
C642 C644 1.320 . S
C643 C641 1.339 . S
C643 C642 1.395 . S
C643 H669 0.929 . S
C644 C642 1.320 . S
C644 C645 1.405 . S
C644 H670 0.930 . S
C645 C640 1.479 . S
C645 C644 1.405 . S
C645 H671 0.931 . S
U646 O647 2.454 . S
U646 O648 2.458 . S
U646 C649 2.984 . S
U646 C650 2.847 . S
U646 C663 2.882 . S
U646 O664 2.441 . S
U646 O665 2.420 . S
U646 O666 2.455 . S
U646 O667 2.449 . S
O647 U646 2.454 . S
O647 C649 1.353 . S
O648 U646 2.458 . S
O648 C649 1.286 . S
C649 U646 2.984 . S
C649 O647 1.353 . S
C649 O648 1.286 . S
C649 C651 1.363 . S
C650 C640 1.465 . S
C650 U646 2.847 . S
C650 O664 1.249 . S
C650 O665 1.202 . S
C651 C649 1.363 . S
C651 C653 1.408 . S
C651 C656 1.342 . S
C652 C653 1.310 . S
C652 C655 1.461 . S
C652 H672 0.932 . S
C653 C651 1.408 . S
C653 C652 1.310 . S
C653 H673 0.930 . S
C654 C655 1.474 . S
C654 C656 1.285 . S
C654 H674 0.929 . S
C655 C652 1.461 . S
C655 C654 1.474 . S
C656 C651 1.342 . S
C656 C654 1.285 . S
C656 H675 0.930 . S
C657 C660 1.424 . S
C657 C662 1.245 . S
C657 C663 1.428 . S
C658 C661 1.260 . S
C658 C662 1.477 . S
C658 H676 0.932 . S
C659 C660 1.384 . S
C659 C661 1.479 . S
C659 H677 0.929 . S
C660 C657 1.424 . S
C660 C659 1.384 . S
C660 H678 0.928 . S
C661 C658 1.260 . S
C661 C659 1.479 . S
C662 C657 1.245 . S
C662 C658 1.477 . S
C662 H679 0.932 . S
C663 U646 2.882 . S
C663 C657 1.428 . S
C663 O666 1.301 . S
C663 O667 1.282 . S
O664 U646 2.441 . S
O664 C650 1.249 . S
O665 U646 2.420 . S
O665 C650 1.202 . S
O666 U646 2.455 . S
O666 C663 1.301 . S
O667 U646 2.449 . S
O667 C663 1.282 . S
H668 C641 0.931 . S
H669 C643 0.929 . S
H670 C644 0.930 . S
H671 C645 0.931 . S
H672 C652 0.932 . S
H673 C653 0.930 . S
H674 C654 0.929 . S
H675 C656 0.930 . S
H676 C658 0.932 . S
H677 C659 0.929 . S
H678 C660 0.928 . S
H679 C662 0.932 . S
C680 C681 1.264 . S
C680 C685 1.479 . S
C680 C690 1.465 . S
C681 C680 1.264 . S
C681 C683 1.339 . S
C681 H708 0.931 . S
C682 C683 1.395 . S
C682 C684 1.320 . S
C683 C681 1.339 . S
C683 C682 1.395 . S
C683 H709 0.929 . S
C684 C682 1.320 . S
C684 C685 1.405 . S
C684 H710 0.930 . S
C685 C680 1.479 . S
C685 C684 1.405 . S
C685 H711 0.931 . S
U686 O687 2.454 . S
U686 O688 2.458 . S
U686 C689 2.984 . S
U686 C690 2.847 . S
U686 C703 2.882 . S
U686 O704 2.441 . S
U686 O705 2.420 . S
U686 O706 2.455 . S
U686 O707 2.449 . S
O687 U686 2.454 . S
O687 C689 1.353 . S
O688 U686 2.458 . S
O688 C689 1.286 . S
C689 U686 2.984 . S
C689 O687 1.353 . S
C689 O688 1.286 . S
C689 C691 1.363 . S
C690 C680 1.465 . S
C690 U686 2.847 . S
C690 O704 1.249 . S
C690 O705 1.202 . S
C691 C689 1.363 . S
C691 C693 1.408 . S
C691 C696 1.342 . S
C692 C693 1.310 . S
C692 C695 1.461 . S
C692 H712 0.932 . S
C693 C691 1.408 . S
C693 C692 1.310 . S
C693 H713 0.930 . S
C694 C695 1.474 . S
C694 C696 1.285 . S
C694 H714 0.929 . S
C695 C692 1.461 . S
C695 C694 1.474 . S
C696 C691 1.342 . S
C696 C694 1.285 . S
C696 H715 0.930 . S
C697 C700 1.424 . S
C697 C702 1.245 . S
C697 C703 1.428 . S
C698 C701 1.260 . S
C698 C702 1.477 . S
C698 H716 0.932 . S
C699 C700 1.384 . S
C699 C701 1.479 . S
C699 H717 0.929 . S
C700 C697 1.424 . S
C700 C699 1.384 . S
C700 H718 0.928 . S
C701 C698 1.260 . S
C701 C699 1.479 . S
C702 C697 1.245 . S
C702 C698 1.477 . S
C702 H719 0.932 . S
C703 U686 2.882 . S
C703 C697 1.428 . S
C703 O706 1.301 . S
C703 O707 1.282 . S
O704 U686 2.441 . S
O704 C690 1.249 . S
O705 U686 2.420 . S
O705 C690 1.202 . S
O706 U686 2.455 . S
O706 C703 1.301 . S
O707 U686 2.449 . S
O707 C703 1.282 . S
H708 C681 0.931 . S
H709 C683 0.929 . S
H710 C684 0.930 . S
H711 C685 0.931 . S
H712 C692 0.932 . S
H713 C693 0.930 . S
H714 C694 0.929 . S
H715 C696 0.930 . S
H716 C698 0.932 . S
H717 C699 0.929 . S
H718 C700 0.928 . S
H719 C702 0.932 . S
C720 C721 1.264 . S
C720 C725 1.479 . S
C720 C730 1.465 . S
C721 C720 1.264 . S
C721 C723 1.339 . S
C721 H748 0.931 . S
C722 C723 1.395 . S
C722 C724 1.320 . S
C723 C721 1.339 . S
C723 C722 1.395 . S
C723 H749 0.929 . S
C724 C722 1.320 . S
C724 C725 1.405 . S
C724 H750 0.930 . S
C725 C720 1.479 . S
C725 C724 1.405 . S
C725 H751 0.931 . S
U726 O727 2.454 . S
U726 O728 2.458 . S
U726 C729 2.984 . S
U726 C730 2.847 . S
U726 C743 2.882 . S
U726 O744 2.441 . S
U726 O745 2.420 . S
U726 O746 2.455 . S
U726 O747 2.449 . S
O727 U726 2.454 . S
O727 C729 1.353 . S
O728 U726 2.458 . S
O728 C729 1.286 . S
C729 U726 2.984 . S
C729 O727 1.353 . S
C729 O728 1.286 . S
C729 C731 1.363 . S
C730 C720 1.465 . S
C730 U726 2.847 . S
C730 O744 1.249 . S
C730 O745 1.202 . S
C731 C729 1.363 . S
C731 C733 1.408 . S
C731 C736 1.342 . S
C732 C733 1.310 . S
C732 C735 1.461 . S
C732 H752 0.932 . S
C733 C731 1.408 . S
C733 C732 1.310 . S
C733 H753 0.930 . S
C734 C735 1.474 . S
C734 C736 1.285 . S
C734 H754 0.929 . S
C735 C732 1.461 . S
C735 C734 1.474 . S
C736 C731 1.342 . S
C736 C734 1.285 . S
C736 H755 0.930 . S
C737 C740 1.424 . S
C737 C742 1.245 . S
C737 C743 1.428 . S
C738 C741 1.260 . S
C738 C742 1.477 . S
C738 H756 0.932 . S
C739 C740 1.384 . S
C739 C741 1.479 . S
C739 H757 0.929 . S
C740 C737 1.424 . S
C740 C739 1.384 . S
C740 H758 0.928 . S
C741 C738 1.260 . S
C741 C739 1.479 . S
C742 C737 1.245 . S
C742 C738 1.477 . S
C742 H759 0.932 . S
C743 U726 2.882 . S
C743 C737 1.428 . S
C743 O746 1.301 . S
C743 O747 1.282 . S
O744 U726 2.441 . S
O744 C730 1.249 . S
O745 U726 2.420 . S
O745 C730 1.202 . S
O746 U726 2.455 . S
O746 C743 1.301 . S
O747 U726 2.449 . S
O747 C743 1.282 . S
H748 C721 0.931 . S
H749 C723 0.929 . S
H750 C724 0.930 . S
H751 C725 0.931 . S
H752 C732 0.932 . S
H753 C733 0.930 . S
H754 C734 0.929 . S
H755 C736 0.930 . S
H756 C738 0.932 . S
H757 C739 0.929 . S
H758 C740 0.928 . S
H759 C742 0.932 . S
C760 C761 1.264 . S
C760 C765 1.479 . S
C760 C770 1.465 . S
C761 C760 1.264 . S
C761 C763 1.339 . S
C761 H788 0.931 . S
C762 C763 1.395 . S
C762 C764 1.320 . S
C763 C761 1.339 . S
C763 C762 1.395 . S
C763 H789 0.929 . S
C764 C762 1.320 . S
C764 C765 1.405 . S
C764 H790 0.930 . S
C765 C760 1.479 . S
C765 C764 1.405 . S
C765 H791 0.931 . S
U766 O767 2.454 . S
U766 O768 2.458 . S
U766 C769 2.984 . S
U766 C770 2.847 . S
U766 C783 2.882 . S
U766 O784 2.441 . S
U766 O785 2.420 . S
U766 O786 2.455 . S
U766 O787 2.449 . S
O767 U766 2.454 . S
O767 C769 1.353 . S
O768 U766 2.458 . S
O768 C769 1.286 . S
C769 U766 2.984 . S
C769 O767 1.353 . S
C769 O768 1.286 . S
C769 C771 1.363 . S
C770 C760 1.465 . S
C770 U766 2.847 . S
C770 O784 1.249 . S
C770 O785 1.202 . S
C771 C769 1.363 . S
C771 C773 1.408 . S
C771 C776 1.342 . S
C772 C773 1.310 . S
C772 C775 1.461 . S
C772 H792 0.932 . S
C773 C771 1.408 . S
C773 C772 1.310 . S
C773 H793 0.930 . S
C774 C775 1.474 . S
C774 C776 1.285 . S
C774 H794 0.929 . S
C775 C772 1.461 . S
C775 C774 1.474 . S
C776 C771 1.342 . S
C776 C774 1.285 . S
C776 H795 0.930 . S
C777 C780 1.424 . S
C777 C782 1.245 . S
C777 C783 1.428 . S
C778 C781 1.260 . S
C778 C782 1.477 . S
C778 H796 0.932 . S
C779 C780 1.384 . S
C779 C781 1.479 . S
C779 H797 0.929 . S
C780 C777 1.424 . S
C780 C779 1.384 . S
C780 H798 0.928 . S
C781 C778 1.260 . S
C781 C779 1.479 . S
C782 C777 1.245 . S
C782 C778 1.477 . S
C782 H799 0.932 . S
C783 U766 2.882 . S
C783 C777 1.428 . S
C783 O786 1.301 . S
C783 O787 1.282 . S
O784 U766 2.441 . S
O784 C770 1.249 . S
O785 U766 2.420 . S
O785 C770 1.202 . S
O786 U766 2.455 . S
O786 C783 1.301 . S
O787 U766 2.449 . S
O787 C783 1.282 . S
H788 C761 0.931 . S
H789 C763 0.929 . S
H790 C764 0.930 . S
H791 C765 0.931 . S
H792 C772 0.932 . S
H793 C773 0.930 . S
H794 C774 0.929 . S
H795 C776 0.930 . S
H796 C778 0.932 . S
H797 C779 0.929 . S
H798 C780 0.928 . S
H799 C782 0.932 . S
C800 C801 1.264 . S
C800 C805 1.479 . S
C800 C810 1.465 . S
C801 C800 1.264 . S
C801 C803 1.339 . S
C801 H828 0.931 . S
C802 C803 1.395 . S
C802 C804 1.320 . S
C803 C801 1.339 . S
C803 C802 1.395 . S
C803 H829 0.929 . S
C804 C802 1.320 . S
C804 C805 1.405 . S
C804 H830 0.930 . S
C805 C800 1.479 . S
C805 C804 1.405 . S
C805 H831 0.931 . S
U806 O807 2.454 . S
U806 O808 2.458 . S
U806 C809 2.984 . S
U806 C810 2.847 . S
U806 C823 2.882 . S
U806 O824 2.441 . S
U806 O825 2.420 . S
U806 O826 2.455 . S
U806 O827 2.449 . S
O807 U806 2.454 . S
O807 C809 1.353 . S
O808 U806 2.458 . S
O808 C809 1.286 . S
C809 U806 2.984 . S
C809 O807 1.353 . S
C809 O808 1.286 . S
C809 C811 1.363 . S
C810 C800 1.465 . S
C810 U806 2.847 . S
C810 O824 1.249 . S
C810 O825 1.202 . S
C811 C809 1.363 . S
C811 C813 1.408 . S
C811 C816 1.342 . S
C812 C813 1.310 . S
C812 C815 1.461 . S
C812 H832 0.932 . S
C813 C811 1.408 . S
C813 C812 1.310 . S
C813 H833 0.930 . S
C814 C815 1.474 . S
C814 C816 1.285 . S
C814 H834 0.929 . S
C815 C812 1.461 . S
C815 C814 1.474 . S
C816 C811 1.342 . S
C816 C814 1.285 . S
C816 H835 0.930 . S
C817 C820 1.424 . S
C817 C822 1.245 . S
C817 C823 1.428 . S
C818 C821 1.260 . S
C818 C822 1.477 . S
C818 H836 0.932 . S
C819 C820 1.384 . S
C819 C821 1.479 . S
C819 H837 0.929 . S
C820 C817 1.424 . S
C820 C819 1.384 . S
C820 H838 0.928 . S
C821 C818 1.260 . S
C821 C819 1.479 . S
C822 C817 1.245 . S
C822 C818 1.477 . S
C822 H839 0.932 . S
C823 U806 2.882 . S
C823 C817 1.428 . S
C823 O826 1.301 . S
C823 O827 1.282 . S
O824 U806 2.441 . S
O824 C810 1.249 . S
O825 U806 2.420 . S
O825 C810 1.202 . S
O826 U806 2.455 . S
O826 C823 1.301 . S
O827 U806 2.449 . S
O827 C823 1.282 . S
H828 C801 0.931 . S
H829 C803 0.929 . S
H830 C804 0.930 . S
H831 C805 0.931 . S
H832 C812 0.932 . S
H833 C813 0.930 . S
H834 C814 0.929 . S
H835 C816 0.930 . S
H836 C818 0.932 . S
H837 C819 0.929 . S
H838 C820 0.928 . S
H839 C822 0.932 . S
C840 C841 1.264 . S
C840 C845 1.479 . S
C840 C850 1.465 . S
C841 C840 1.264 . S
C841 C843 1.339 . S
C841 H868 0.931 . S
C842 C843 1.395 . S
C842 C844 1.320 . S
C843 C841 1.339 . S
C843 C842 1.395 . S
C843 H869 0.929 . S
C844 C842 1.320 . S
C844 C845 1.405 . S
C844 H870 0.930 . S
C845 C840 1.479 . S
C845 C844 1.405 . S
C845 H871 0.931 . S
U846 O847 2.454 . S
U846 O848 2.458 . S
U846 C849 2.984 . S
U846 C850 2.847 . S
U846 C863 2.882 . S
U846 O864 2.441 . S
U846 O865 2.420 . S
U846 O866 2.455 . S
U846 O867 2.449 . S
O847 U846 2.454 . S
O847 C849 1.353 . S
O848 U846 2.458 . S
O848 C849 1.286 . S
C849 U846 2.984 . S
C849 O847 1.353 . S
C849 O848 1.286 . S
C849 C851 1.363 . S
C850 C840 1.465 . S
C850 U846 2.847 . S
C850 O864 1.249 . S
C850 O865 1.202 . S
C851 C849 1.363 . S
C851 C853 1.408 . S
C851 C856 1.342 . S
C852 C853 1.310 . S
C852 C855 1.461 . S
C852 H872 0.932 . S
C853 C851 1.408 . S
C853 C852 1.310 . S
C853 H873 0.930 . S
C854 C855 1.474 . S
C854 C856 1.285 . S
C854 H874 0.929 . S
C855 C852 1.461 . S
C855 C854 1.474 . S
C856 C851 1.342 . S
C856 C854 1.285 . S
C856 H875 0.930 . S
C857 C860 1.424 . S
C857 C862 1.245 . S
C857 C863 1.428 . S
C858 C861 1.260 . S
C858 C862 1.477 . S
C858 H876 0.932 . S
C859 C860 1.384 . S
C859 C861 1.479 . S
C859 H877 0.929 . S
C860 C857 1.424 . S
C860 C859 1.384 . S
C860 H878 0.928 . S
C861 C858 1.260 . S
C861 C859 1.479 . S
C862 C857 1.245 . S
C862 C858 1.477 . S
C862 H879 0.932 . S
C863 U846 2.882 . S
C863 C857 1.428 . S
C863 O866 1.301 . S
C863 O867 1.282 . S
O864 U846 2.441 . S
O864 C850 1.249 . S
O865 U846 2.420 . S
O865 C850 1.202 . S
O866 U846 2.455 . S
O866 C863 1.301 . S
O867 U846 2.449 . S
O867 C863 1.282 . S
H868 C841 0.931 . S
H869 C843 0.929 . S
H870 C844 0.930 . S
H871 C845 0.931 . S
H872 C852 0.932 . S
H873 C853 0.930 . S
H874 C854 0.929 . S
H875 C856 0.930 . S
H876 C858 0.932 . S
H877 C859 0.929 . S
H878 C860 0.928 . S
H879 C862 0.932 . S
C880 C881 1.264 . S
C880 C885 1.479 . S
C880 C890 1.465 . S
C881 C880 1.264 . S
C881 C883 1.339 . S
C881 H908 0.931 . S
C882 C883 1.395 . S
C882 C884 1.320 . S
C883 C881 1.339 . S
C883 C882 1.395 . S
C883 H909 0.929 . S
C884 C882 1.320 . S
C884 C885 1.405 . S
C884 H910 0.930 . S
C885 C880 1.479 . S
C885 C884 1.405 . S
C885 H911 0.931 . S
U886 O887 2.454 . S
U886 O888 2.458 . S
U886 C889 2.984 . S
U886 C890 2.847 . S
U886 C903 2.882 . S
U886 O904 2.441 . S
U886 O905 2.420 . S
U886 O906 2.455 . S
U886 O907 2.449 . S
O887 U886 2.454 . S
O887 C889 1.353 . S
O888 U886 2.458 . S
O888 C889 1.286 . S
C889 U886 2.984 . S
C889 O887 1.353 . S
C889 O888 1.286 . S
C889 C891 1.363 . S
C890 C880 1.465 . S
C890 U886 2.847 . S
C890 O904 1.249 . S
C890 O905 1.202 . S
C891 C889 1.363 . S
C891 C893 1.408 . S
C891 C896 1.342 . S
C892 C893 1.310 . S
C892 C895 1.461 . S
C892 H912 0.932 . S
C893 C891 1.408 . S
C893 C892 1.310 . S
C893 H913 0.930 . S
C894 C895 1.474 . S
C894 C896 1.285 . S
C894 H914 0.929 . S
C895 C892 1.461 . S
C895 C894 1.474 . S
C896 C891 1.342 . S
C896 C894 1.285 . S
C896 H915 0.930 . S
C897 C900 1.424 . S
C897 C902 1.245 . S
C897 C903 1.428 . S
C898 C901 1.260 . S
C898 C902 1.477 . S
C898 H916 0.932 . S
C899 C900 1.384 . S
C899 C901 1.479 . S
C899 H917 0.929 . S
C900 C897 1.424 . S
C900 C899 1.384 . S
C900 H918 0.928 . S
C901 C898 1.260 . S
C901 C899 1.479 . S
C902 C897 1.245 . S
C902 C898 1.477 . S
C902 H919 0.932 . S
C903 U886 2.882 . S
C903 C897 1.428 . S
C903 O906 1.301 . S
C903 O907 1.282 . S
O904 U886 2.441 . S
O904 C890 1.249 . S
O905 U886 2.420 . S
O905 C890 1.202 . S
O906 U886 2.455 . S
O906 C903 1.301 . S
O907 U886 2.449 . S
O907 C903 1.282 . S
H908 C881 0.931 . S
H909 C883 0.929 . S
H910 C884 0.930 . S
H911 C885 0.931 . S
H912 C892 0.932 . S
H913 C893 0.930 . S
H914 C894 0.929 . S
H915 C896 0.930 . S
H916 C898 0.932 . S
H917 C899 0.929 . S
H918 C900 0.928 . S
H919 C902 0.932 . S
C920 C921 1.264 . S
C920 C925 1.479 . S
C920 C930 1.465 . S
C921 C920 1.264 . S
C921 C923 1.339 . S
C921 H948 0.931 . S
C922 C923 1.395 . S
C922 C924 1.320 . S
C923 C921 1.339 . S
C923 C922 1.395 . S
C923 H949 0.929 . S
C924 C922 1.320 . S
C924 C925 1.405 . S
C924 H950 0.930 . S
C925 C920 1.479 . S
C925 C924 1.405 . S
C925 H951 0.931 . S
U926 O927 2.454 . S
U926 O928 2.458 . S
U926 C929 2.984 . S
U926 C930 2.847 . S
U926 C943 2.882 . S
U926 O944 2.441 . S
U926 O945 2.420 . S
U926 O946 2.455 . S
U926 O947 2.449 . S
O927 U926 2.454 . S
O927 C929 1.353 . S
O928 U926 2.458 . S
O928 C929 1.286 . S
C929 U926 2.984 . S
C929 O927 1.353 . S
C929 O928 1.286 . S
C929 C931 1.363 . S
C930 C920 1.465 . S
C930 U926 2.847 . S
C930 O944 1.249 . S
C930 O945 1.202 . S
C931 C929 1.363 . S
C931 C933 1.408 . S
C931 C936 1.342 . S
C932 C933 1.310 . S
C932 C935 1.461 . S
C932 H952 0.932 . S
C933 C931 1.408 . S
C933 C932 1.310 . S
C933 H953 0.930 . S
C934 C935 1.474 . S
C934 C936 1.285 . S
C934 H954 0.929 . S
C935 C932 1.461 . S
C935 C934 1.474 . S
C936 C931 1.342 . S
C936 C934 1.285 . S
C936 H955 0.930 . S
C937 C940 1.424 . S
C937 C942 1.245 . S
C937 C943 1.428 . S
C938 C941 1.260 . S
C938 C942 1.477 . S
C938 H956 0.932 . S
C939 C940 1.384 . S
C939 C941 1.479 . S
C939 H957 0.929 . S
C940 C937 1.424 . S
C940 C939 1.384 . S
C940 H958 0.928 . S
C941 C938 1.260 . S
C941 C939 1.479 . S
C942 C937 1.245 . S
C942 C938 1.477 . S
C942 H959 0.932 . S
C943 U926 2.882 . S
C943 C937 1.428 . S
C943 O946 1.301 . S
C943 O947 1.282 . S
O944 U926 2.441 . S
O944 C930 1.249 . S
O945 U926 2.420 . S
O945 C930 1.202 . S
O946 U926 2.455 . S
O946 C943 1.301 . S
O947 U926 2.449 . S
O947 C943 1.282 . S
H948 C921 0.931 . S
H949 C923 0.929 . S
H950 C924 0.930 . S
H951 C925 0.931 . S
H952 C932 0.932 . S
H953 C933 0.930 . S
H954 C934 0.929 . S
H955 C936 0.930 . S
H956 C938 0.932 . S
H957 C939 0.929 . S
H958 C940 0.928 . S
H959 C942 0.932 . S
C960 C961 1.264 . S
C960 C965 1.479 . S
C960 C970 1.465 . S
C961 C960 1.264 . S
C961 C963 1.339 . S
C961 H988 0.931 . S
C962 C963 1.395 . S
C962 C964 1.320 . S
C963 C961 1.339 . S
C963 C962 1.395 . S
C963 H989 0.929 . S
C964 C962 1.320 . S
C964 C965 1.405 . S
C964 H990 0.930 . S
C965 C960 1.479 . S
C965 C964 1.405 . S
C965 H991 0.931 . S
U966 O967 2.454 . S
U966 O968 2.458 . S
U966 C969 2.984 . S
U966 C970 2.847 . S
U966 C983 2.882 . S
U966 O984 2.441 . S
U966 O985 2.420 . S
U966 O986 2.455 . S
U966 O987 2.449 . S
O967 U966 2.454 . S
O967 C969 1.353 . S
O968 U966 2.458 . S
O968 C969 1.286 . S
C969 U966 2.984 . S
C969 O967 1.353 . S
C969 O968 1.286 . S
C969 C971 1.363 . S
C970 C960 1.465 . S
C970 U966 2.847 . S
C970 O984 1.249 . S
C970 O985 1.202 . S
C971 C969 1.363 . S
C971 C973 1.408 . S
C971 C976 1.342 . S
C972 C973 1.310 . S
C972 C975 1.461 . S
C972 H992 0.932 . S
C973 C971 1.408 . S
C973 C972 1.310 . S
C973 H993 0.930 . S
C974 C975 1.474 . S
C974 C976 1.285 . S
C974 H994 0.929 . S
C975 C972 1.461 . S
C975 C974 1.474 . S
C976 C971 1.342 . S
C976 C974 1.285 . S
C976 H995 0.930 . S
C977 C980 1.424 . S
C977 C982 1.245 . S
C977 C983 1.428 . S
C978 C981 1.260 . S
C978 C982 1.477 . S
C978 H996 0.932 . S
C979 C980 1.384 . S
C979 C981 1.479 . S
C979 H997 0.929 . S
C980 C977 1.424 . S
C980 C979 1.384 . S
C980 H998 0.928 . S
C981 C978 1.260 . S
C981 C979 1.479 . S
C982 C977 1.245 . S
C982 C978 1.477 . S
C982 H999 0.932 . S
C983 U966 2.882 . S
C983 C977 1.428 . S
C983 O986 1.301 . S
C983 O987 1.282 . S
O984 U966 2.441 . S
O984 C970 1.249 . S
O985 U966 2.420 . S
O985 C970 1.202 . S
O986 U966 2.455 . S
O986 C983 1.301 . S
O987 U966 2.449 . S
O987 C983 1.282 . S
H988 C961 0.931 . S
H989 C963 0.929 . S
H990 C964 0.930 . S
H991 C965 0.931 . S
H992 C972 0.932 . S
H993 C973 0.930 . S
H994 C974 0.929 . S
H995 C976 0.930 . S
H996 C978 0.932 . S
H997 C979 0.929 . S
H998 C980 0.928 . S
H999 C982 0.932 . S
C1000 C1001 1.264 . S
C1000 C1005 1.479 . S
C1000 C1010 1.465 . S
C1001 C1000 1.264 . S
C1001 C1003 1.339 . S
C1001 H1028 0.931 . S
C1002 C1003 1.395 . S
C1002 C1004 1.320 . S
C1003 C1001 1.339 . S
C1003 C1002 1.395 . S
C1003 H1029 0.929 . S
C1004 C1002 1.320 . S
C1004 C1005 1.405 . S
C1004 H1030 0.930 . S
C1005 C1000 1.479 . S
C1005 C1004 1.405 . S
C1005 H1031 0.931 . S
U1006 O1007 2.454 . S
U1006 O1008 2.458 . S
U1006 C1009 2.984 . S
U1006 C1010 2.847 . S
U1006 C1023 2.882 . S
U1006 O1024 2.441 . S
U1006 O1025 2.420 . S
U1006 O1026 2.455 . S
U1006 O1027 2.449 . S
O1007 U1006 2.454 . S
O1007 C1009 1.353 . S
O1008 U1006 2.458 . S
O1008 C1009 1.286 . S
C1009 U1006 2.984 . S
C1009 O1007 1.353 . S
C1009 O1008 1.286 . S
C1009 C1011 1.363 . S
C1010 C1000 1.465 . S
C1010 U1006 2.847 . S
C1010 O1024 1.249 . S
C1010 O1025 1.202 . S
C1011 C1009 1.363 . S
C1011 C1013 1.408 . S
C1011 C1016 1.342 . S
C1012 C1013 1.310 . S
C1012 C1015 1.461 . S
C1012 H1032 0.932 . S
C1013 C1011 1.408 . S
C1013 C1012 1.310 . S
C1013 H1033 0.930 . S
C1014 C1015 1.474 . S
C1014 C1016 1.285 . S
C1014 H1034 0.929 . S
C1015 C1012 1.461 . S
C1015 C1014 1.474 . S
C1016 C1011 1.342 . S
C1016 C1014 1.285 . S
C1016 H1035 0.930 . S
C1017 C1020 1.424 . S
C1017 C1022 1.245 . S
C1017 C1023 1.428 . S
C1018 C1021 1.260 . S
C1018 C1022 1.477 . S
C1018 H1036 0.932 . S
C1019 C1020 1.384 . S
C1019 C1021 1.479 . S
C1019 H1037 0.929 . S
C1020 C1017 1.424 . S
C1020 C1019 1.384 . S
C1020 H1038 0.928 . S
C1021 C1018 1.260 . S
C1021 C1019 1.479 . S
C1022 C1017 1.245 . S
C1022 C1018 1.477 . S
C1022 H1039 0.932 . S
C1023 U1006 2.882 . S
C1023 C1017 1.428 . S
C1023 O1026 1.301 . S
C1023 O1027 1.282 . S
O1024 U1006 2.441 . S
O1024 C1010 1.249 . S
O1025 U1006 2.420 . S
O1025 C1010 1.202 . S
O1026 U1006 2.455 . S
O1026 C1023 1.301 . S
O1027 U1006 2.449 . S
O1027 C1023 1.282 . S
H1028 C1001 0.931 . S
H1029 C1003 0.929 . S
H1030 C1004 0.930 . S
H1031 C1005 0.931 . S
H1032 C1012 0.932 . S
H1033 C1013 0.930 . S
H1034 C1014 0.929 . S
H1035 C1016 0.930 . S
H1036 C1018 0.932 . S
H1037 C1019 0.929 . S
H1038 C1020 0.928 . S
H1039 C1022 0.932 . S
C1040 C1041 1.264 . S
C1040 C1045 1.479 . S
C1040 C1050 1.465 . S
C1041 C1040 1.264 . S
C1041 C1043 1.339 . S
C1041 H1068 0.931 . S
C1042 C1043 1.395 . S
C1042 C1044 1.320 . S
C1043 C1041 1.339 . S
C1043 C1042 1.395 . S
C1043 H1069 0.929 . S
C1044 C1042 1.320 . S
C1044 C1045 1.405 . S
C1044 H1070 0.930 . S
C1045 C1040 1.479 . S
C1045 C1044 1.405 . S
C1045 H1071 0.931 . S
U1046 O1047 2.454 . S
U1046 O1048 2.458 . S
U1046 C1049 2.984 . S
U1046 C1050 2.847 . S
U1046 C1063 2.882 . S
U1046 O1064 2.441 . S
U1046 O1065 2.420 . S
U1046 O1066 2.455 . S
U1046 O1067 2.449 . S
O1047 U1046 2.454 . S
O1047 C1049 1.353 . S
O1048 U1046 2.458 . S
O1048 C1049 1.286 . S
C1049 U1046 2.984 . S
C1049 O1047 1.353 . S
C1049 O1048 1.286 . S
C1049 C1051 1.363 . S
C1050 C1040 1.465 . S
C1050 U1046 2.847 . S
C1050 O1064 1.249 . S
C1050 O1065 1.202 . S
C1051 C1049 1.363 . S
C1051 C1053 1.408 . S
C1051 C1056 1.342 . S
C1052 C1053 1.310 . S
C1052 C1055 1.461 . S
C1052 H1072 0.932 . S
C1053 C1051 1.408 . S
C1053 C1052 1.310 . S
C1053 H1073 0.930 . S
C1054 C1055 1.474 . S
C1054 C1056 1.285 . S
C1054 H1074 0.929 . S
C1055 C1052 1.461 . S
C1055 C1054 1.474 . S
C1056 C1051 1.342 . S
C1056 C1054 1.285 . S
C1056 H1075 0.930 . S
C1057 C1060 1.424 . S
C1057 C1062 1.245 . S
C1057 C1063 1.428 . S
C1058 C1061 1.260 . S
C1058 C1062 1.477 . S
C1058 H1076 0.932 . S
C1059 C1060 1.384 . S
C1059 C1061 1.479 . S
C1059 H1077 0.929 . S
C1060 C1057 1.424 . S
C1060 C1059 1.384 . S
C1060 H1078 0.928 . S
C1061 C1058 1.260 . S
C1061 C1059 1.479 . S
C1062 C1057 1.245 . S
C1062 C1058 1.477 . S
C1062 H1079 0.932 . S
C1063 U1046 2.882 . S
C1063 C1057 1.428 . S
C1063 O1066 1.301 . S
C1063 O1067 1.282 . S
O1064 U1046 2.441 . S
O1064 C1050 1.249 . S
O1065 U1046 2.420 . S
O1065 C1050 1.202 . S
O1066 U1046 2.455 . S
O1066 C1063 1.301 . S
O1067 U1046 2.449 . S
O1067 C1063 1.282 . S
H1068 C1041 0.931 . S
H1069 C1043 0.929 . S
H1070 C1044 0.930 . S
H1071 C1045 0.931 . S
H1072 C1052 0.932 . S
H1073 C1053 0.930 . S
H1074 C1054 0.929 . S
H1075 C1056 0.930 . S
H1076 C1058 0.932 . S
H1077 C1059 0.929 . S
H1078 C1060 0.928 . S
H1079 C1062 0.932 . S
C1080 C1081 1.264 . S
C1080 C1085 1.479 . S
C1080 C1090 1.465 . S
C1081 C1080 1.264 . S
C1081 C1083 1.339 . S
C1081 H1108 0.931 . S
C1082 C1083 1.395 . S
C1082 C1084 1.320 . S
C1083 C1081 1.339 . S
C1083 C1082 1.395 . S
C1083 H1109 0.929 . S
C1084 C1082 1.320 . S
C1084 C1085 1.405 . S
C1084 H1110 0.930 . S
C1085 C1080 1.479 . S
C1085 C1084 1.405 . S
C1085 H1111 0.931 . S
U1086 O1087 2.454 . S
U1086 O1088 2.458 . S
U1086 C1089 2.984 . S
U1086 C1090 2.847 . S
U1086 C1103 2.882 . S
U1086 O1104 2.441 . S
U1086 O1105 2.420 . S
U1086 O1106 2.455 . S
U1086 O1107 2.449 . S
O1087 U1086 2.454 . S
O1087 C1089 1.353 . S
O1088 U1086 2.458 . S
O1088 C1089 1.286 . S
C1089 U1086 2.984 . S
C1089 O1087 1.353 . S
C1089 O1088 1.286 . S
C1089 C1091 1.363 . S
C1090 C1080 1.465 . S
C1090 U1086 2.847 . S
C1090 O1104 1.249 . S
C1090 O1105 1.202 . S
C1091 C1089 1.363 . S
C1091 C1093 1.408 . S
C1091 C1096 1.342 . S
C1092 C1093 1.310 . S
C1092 C1095 1.461 . S
C1092 H1112 0.932 . S
C1093 C1091 1.408 . S
C1093 C1092 1.310 . S
C1093 H1113 0.930 . S
C1094 C1095 1.474 . S
C1094 C1096 1.285 . S
C1094 H1114 0.929 . S
C1095 C1092 1.461 . S
C1095 C1094 1.474 . S
C1096 C1091 1.342 . S
C1096 C1094 1.285 . S
C1096 H1115 0.930 . S
C1097 C1100 1.424 . S
C1097 C1102 1.245 . S
C1097 C1103 1.428 . S
C1098 C1101 1.260 . S
C1098 C1102 1.477 . S
C1098 H1116 0.932 . S
C1099 C1100 1.384 . S
C1099 C1101 1.479 . S
C1099 H1117 0.929 . S
C1100 C1097 1.424 . S
C1100 C1099 1.384 . S
C1100 H1118 0.928 . S
C1101 C1098 1.260 . S
C1101 C1099 1.479 . S
C1102 C1097 1.245 . S
C1102 C1098 1.477 . S
C1102 H1119 0.932 . S
C1103 U1086 2.882 . S
C1103 C1097 1.428 . S
C1103 O1106 1.301 . S
C1103 O1107 1.282 . S
O1104 U1086 2.441 . S
O1104 C1090 1.249 . S
O1105 U1086 2.420 . S
O1105 C1090 1.202 . S
O1106 U1086 2.455 . S
O1106 C1103 1.301 . S
O1107 U1086 2.449 . S
O1107 C1103 1.282 . S
H1108 C1081 0.931 . S
H1109 C1083 0.929 . S
H1110 C1084 0.930 . S
H1111 C1085 0.931 . S
H1112 C1092 0.932 . S
H1113 C1093 0.930 . S
H1114 C1094 0.929 . S
H1115 C1096 0.930 . S
H1116 C1098 0.932 . S
H1117 C1099 0.929 . S
H1118 C1100 0.928 . S
H1119 C1102 0.932 . S
C1120 C1121 1.264 . S
C1120 C1125 1.479 . S
C1120 C1130 1.465 . S
C1121 C1120 1.264 . S
C1121 C1123 1.339 . S
C1121 H1148 0.931 . S
C1122 C1123 1.395 . S
C1122 C1124 1.320 . S
C1123 C1121 1.339 . S
C1123 C1122 1.395 . S
C1123 H1149 0.929 . S
C1124 C1122 1.320 . S
C1124 C1125 1.405 . S
C1124 H1150 0.930 . S
C1125 C1120 1.479 . S
C1125 C1124 1.405 . S
C1125 H1151 0.931 . S
U1126 O1127 2.454 . S
U1126 O1128 2.458 . S
U1126 C1129 2.984 . S
U1126 C1130 2.847 . S
U1126 C1143 2.882 . S
U1126 O1144 2.441 . S
U1126 O1145 2.420 . S
U1126 O1146 2.455 . S
U1126 O1147 2.449 . S
O1127 U1126 2.454 . S
O1127 C1129 1.353 . S
O1128 U1126 2.458 . S
O1128 C1129 1.286 . S
C1129 U1126 2.984 . S
C1129 O1127 1.353 . S
C1129 O1128 1.286 . S
C1129 C1131 1.363 . S
C1130 C1120 1.465 . S
C1130 U1126 2.847 . S
C1130 O1144 1.249 . S
C1130 O1145 1.202 . S
C1131 C1129 1.363 . S
C1131 C1133 1.408 . S
C1131 C1136 1.342 . S
C1132 C1133 1.310 . S
C1132 C1135 1.461 . S
C1132 H1152 0.932 . S
C1133 C1131 1.408 . S
C1133 C1132 1.310 . S
C1133 H1153 0.930 . S
C1134 C1135 1.474 . S
C1134 C1136 1.285 . S
C1134 H1154 0.929 . S
C1135 C1132 1.461 . S
C1135 C1134 1.474 . S
C1136 C1131 1.342 . S
C1136 C1134 1.285 . S
C1136 H1155 0.930 . S
C1137 C1140 1.424 . S
C1137 C1142 1.245 . S
C1137 C1143 1.428 . S
C1138 C1141 1.260 . S
C1138 C1142 1.477 . S
C1138 H1156 0.932 . S
C1139 C1140 1.384 . S
C1139 C1141 1.479 . S
C1139 H1157 0.929 . S
C1140 C1137 1.424 . S
C1140 C1139 1.384 . S
C1140 H1158 0.928 . S
C1141 C1138 1.260 . S
C1141 C1139 1.479 . S
C1142 C1137 1.245 . S
C1142 C1138 1.477 . S
C1142 H1159 0.932 . S
C1143 U1126 2.882 . S
C1143 C1137 1.428 . S
C1143 O1146 1.301 . S
C1143 O1147 1.282 . S
O1144 U1126 2.441 . S
O1144 C1130 1.249 . S
O1145 U1126 2.420 . S
O1145 C1130 1.202 . S
O1146 U1126 2.455 . S
O1146 C1143 1.301 . S
O1147 U1126 2.449 . S
O1147 C1143 1.282 . S
H1148 C1121 0.931 . S
H1149 C1123 0.929 . S
H1150 C1124 0.930 . S
H1151 C1125 0.931 . S
H1152 C1132 0.932 . S
H1153 C1133 0.930 . S
H1154 C1134 0.929 . S
H1155 C1136 0.930 . S
H1156 C1138 0.932 . S
H1157 C1139 0.929 . S
H1158 C1140 0.928 . S
H1159 C1142 0.932 . S
C1160 C1161 1.264 . S
C1160 C1165 1.479 . S
C1160 C1170 1.465 . S
C1161 C1160 1.264 . S
C1161 C1163 1.339 . S
C1161 H1188 0.931 . S
C1162 C1163 1.395 . S
C1162 C1164 1.320 . S
C1163 C1161 1.339 . S
C1163 C1162 1.395 . S
C1163 H1189 0.929 . S
C1164 C1162 1.320 . S
C1164 C1165 1.405 . S
C1164 H1190 0.930 . S
C1165 C1160 1.479 . S
C1165 C1164 1.405 . S
C1165 H1191 0.931 . S
U1166 O1167 2.454 . S
U1166 O1168 2.458 . S
U1166 C1169 2.984 . S
U1166 C1170 2.847 . S
U1166 C1183 2.882 . S
U1166 O1184 2.441 . S
U1166 O1185 2.420 . S
U1166 O1186 2.455 . S
U1166 O1187 2.449 . S
O1167 U1166 2.454 . S
O1167 C1169 1.353 . S
O1168 U1166 2.458 . S
O1168 C1169 1.286 . S
C1169 U1166 2.984 . S
C1169 O1167 1.353 . S
C1169 O1168 1.286 . S
C1169 C1171 1.363 . S
C1170 C1160 1.465 . S
C1170 U1166 2.847 . S
C1170 O1184 1.249 . S
C1170 O1185 1.202 . S
C1171 C1169 1.363 . S
C1171 C1173 1.408 . S
C1171 C1176 1.342 . S
C1172 C1173 1.310 . S
C1172 C1175 1.461 . S
C1172 H1192 0.932 . S
C1173 C1171 1.408 . S
C1173 C1172 1.310 . S
C1173 H1193 0.930 . S
C1174 C1175 1.474 . S
C1174 C1176 1.285 . S
C1174 H1194 0.929 . S
C1175 C1172 1.461 . S
C1175 C1174 1.474 . S
C1176 C1171 1.342 . S
C1176 C1174 1.285 . S
C1176 H1195 0.930 . S
C1177 C1180 1.424 . S
C1177 C1182 1.245 . S
C1177 C1183 1.428 . S
C1178 C1181 1.260 . S
C1178 C1182 1.477 . S
C1178 H1196 0.932 . S
C1179 C1180 1.384 . S
C1179 C1181 1.479 . S
C1179 H1197 0.929 . S
C1180 C1177 1.424 . S
C1180 C1179 1.384 . S
C1180 H1198 0.928 . S
C1181 C1178 1.260 . S
C1181 C1179 1.479 . S
C1182 C1177 1.245 . S
C1182 C1178 1.477 . S
C1182 H1199 0.932 . S
C1183 U1166 2.882 . S
C1183 C1177 1.428 . S
C1183 O1186 1.301 . S
C1183 O1187 1.282 . S
O1184 U1166 2.441 . S
O1184 C1170 1.249 . S
O1185 U1166 2.420 . S
O1185 C1170 1.202 . S
O1186 U1166 2.455 . S
O1186 C1183 1.301 . S
O1187 U1166 2.449 . S
O1187 C1183 1.282 . S
H1188 C1161 0.931 . S
H1189 C1163 0.929 . S
H1190 C1164 0.930 . S
H1191 C1165 0.931 . S
H1192 C1172 0.932 . S
H1193 C1173 0.930 . S
H1194 C1174 0.929 . S
H1195 C1176 0.930 . S
H1196 C1178 0.932 . S
H1197 C1179 0.929 . S
H1198 C1180 0.928 . S
H1199 C1182 0.932 . S
C1200 C1201 1.264 . S
C1200 C1205 1.479 . S
C1200 C1210 1.465 . S
C1201 C1200 1.264 . S
C1201 C1203 1.339 . S
C1201 H1228 0.931 . S
C1202 C1203 1.395 . S
C1202 C1204 1.320 . S
C1203 C1201 1.339 . S
C1203 C1202 1.395 . S
C1203 H1229 0.929 . S
C1204 C1202 1.320 . S
C1204 C1205 1.405 . S
C1204 H1230 0.930 . S
C1205 C1200 1.479 . S
C1205 C1204 1.405 . S
C1205 H1231 0.931 . S
U1206 O1207 2.454 . S
U1206 O1208 2.458 . S
U1206 C1209 2.984 . S
U1206 C1210 2.847 . S
U1206 C1223 2.882 . S
U1206 O1224 2.441 . S
U1206 O1225 2.420 . S
U1206 O1226 2.455 . S
U1206 O1227 2.449 . S
O1207 U1206 2.454 . S
O1207 C1209 1.353 . S
O1208 U1206 2.458 . S
O1208 C1209 1.286 . S
C1209 U1206 2.984 . S
C1209 O1207 1.353 . S
C1209 O1208 1.286 . S
C1209 C1211 1.363 . S
C1210 C1200 1.465 . S
C1210 U1206 2.847 . S
C1210 O1224 1.249 . S
C1210 O1225 1.202 . S
C1211 C1209 1.363 . S
C1211 C1213 1.408 . S
C1211 C1216 1.342 . S
C1212 C1213 1.310 . S
C1212 C1215 1.461 . S
C1212 H1232 0.932 . S
C1213 C1211 1.408 . S
C1213 C1212 1.310 . S
C1213 H1233 0.930 . S
C1214 C1215 1.474 . S
C1214 C1216 1.285 . S
C1214 H1234 0.929 . S
C1215 C1212 1.461 . S
C1215 C1214 1.474 . S
C1216 C1211 1.342 . S
C1216 C1214 1.285 . S
C1216 H1235 0.930 . S
C1217 C1220 1.424 . S
C1217 C1222 1.245 . S
C1217 C1223 1.428 . S
C1218 C1221 1.260 . S
C1218 C1222 1.477 . S
C1218 H1236 0.932 . S
C1219 C1220 1.384 . S
C1219 C1221 1.479 . S
C1219 H1237 0.929 . S
C1220 C1217 1.424 . S
C1220 C1219 1.384 . S
C1220 H1238 0.928 . S
C1221 C1218 1.260 . S
C1221 C1219 1.479 . S
C1222 C1217 1.245 . S
C1222 C1218 1.477 . S
C1222 H1239 0.932 . S
C1223 U1206 2.882 . S
C1223 C1217 1.428 . S
C1223 O1226 1.301 . S
C1223 O1227 1.282 . S
O1224 U1206 2.441 . S
O1224 C1210 1.249 . S
O1225 U1206 2.420 . S
O1225 C1210 1.202 . S
O1226 U1206 2.455 . S
O1226 C1223 1.301 . S
O1227 U1206 2.449 . S
O1227 C1223 1.282 . S
H1228 C1201 0.931 . S
H1229 C1203 0.929 . S
H1230 C1204 0.930 . S
H1231 C1205 0.931 . S
H1232 C1212 0.932 . S
H1233 C1213 0.930 . S
H1234 C1214 0.929 . S
H1235 C1216 0.930 . S
H1236 C1218 0.932 . S
H1237 C1219 0.929 . S
H1238 C1220 0.928 . S
H1239 C1222 0.932 . S
C1240 C1241 1.264 . S
C1240 C1245 1.479 . S
C1240 C1250 1.465 . S
C1241 C1240 1.264 . S
C1241 C1243 1.339 . S
C1241 H1268 0.931 . S
C1242 C1243 1.395 . S
C1242 C1244 1.320 . S
C1243 C1241 1.339 . S
C1243 C1242 1.395 . S
C1243 H1269 0.929 . S
C1244 C1242 1.320 . S
C1244 C1245 1.405 . S
C1244 H1270 0.930 . S
C1245 C1240 1.479 . S
C1245 C1244 1.405 . S
C1245 H1271 0.931 . S
U1246 O1247 2.454 . S
U1246 O1248 2.458 . S
U1246 C1249 2.984 . S
U1246 C1250 2.847 . S
U1246 C1263 2.882 . S
U1246 O1264 2.441 . S
U1246 O1265 2.420 . S
U1246 O1266 2.455 . S
U1246 O1267 2.449 . S
O1247 U1246 2.454 . S
O1247 C1249 1.353 . S
O1248 U1246 2.458 . S
O1248 C1249 1.286 . S
C1249 U1246 2.984 . S
C1249 O1247 1.353 . S
C1249 O1248 1.286 . S
C1249 C1251 1.363 . S
C1250 C1240 1.465 . S
C1250 U1246 2.847 . S
C1250 O1264 1.249 . S
C1250 O1265 1.202 . S
C1251 C1249 1.363 . S
C1251 C1253 1.408 . S
C1251 C1256 1.342 . S
C1252 C1253 1.310 . S
C1252 C1255 1.461 . S
C1252 H1272 0.932 . S
C1253 C1251 1.408 . S
C1253 C1252 1.310 . S
C1253 H1273 0.930 . S
C1254 C1255 1.474 . S
C1254 C1256 1.285 . S
C1254 H1274 0.929 . S
C1255 C1252 1.461 . S
C1255 C1254 1.474 . S
C1256 C1251 1.342 . S
C1256 C1254 1.285 . S
C1256 H1275 0.930 . S
C1257 C1260 1.424 . S
C1257 C1262 1.245 . S
C1257 C1263 1.428 . S
C1258 C1261 1.260 . S
C1258 C1262 1.477 . S
C1258 H1276 0.932 . S
C1259 C1260 1.384 . S
C1259 C1261 1.479 . S
C1259 H1277 0.929 . S
C1260 C1257 1.424 . S
C1260 C1259 1.384 . S
C1260 H1278 0.928 . S
C1261 C1258 1.260 . S
C1261 C1259 1.479 . S
C1262 C1257 1.245 . S
C1262 C1258 1.477 . S
C1262 H1279 0.932 . S
C1263 U1246 2.882 . S
C1263 C1257 1.428 . S
C1263 O1266 1.301 . S
C1263 O1267 1.282 . S
O1264 U1246 2.441 . S
O1264 C1250 1.249 . S
O1265 U1246 2.420 . S
O1265 C1250 1.202 . S
O1266 U1246 2.455 . S
O1266 C1263 1.301 . S
O1267 U1246 2.449 . S
O1267 C1263 1.282 . S
H1268 C1241 0.931 . S
H1269 C1243 0.929 . S
H1270 C1244 0.930 . S
H1271 C1245 0.931 . S
H1272 C1252 0.932 . S
H1273 C1253 0.930 . S
H1274 C1254 0.929 . S
H1275 C1256 0.930 . S
H1276 C1258 0.932 . S
H1277 C1259 0.929 . S
H1278 C1260 0.928 . S
H1279 C1262 0.932 . S
C1280 C1281 1.264 . S
C1280 C1285 1.479 . S
C1280 C1290 1.465 . S
C1281 C1280 1.264 . S
C1281 C1283 1.339 . S
C1281 H1308 0.931 . S
C1282 C1283 1.395 . S
C1282 C1284 1.320 . S
C1283 C1281 1.339 . S
C1283 C1282 1.395 . S
C1283 H1309 0.929 . S
C1284 C1282 1.320 . S
C1284 C1285 1.405 . S
C1284 H1310 0.930 . S
C1285 C1280 1.479 . S
C1285 C1284 1.405 . S
C1285 H1311 0.931 . S
U1286 O1287 2.454 . S
U1286 O1288 2.458 . S
U1286 C1289 2.984 . S
U1286 C1290 2.847 . S
U1286 C1303 2.882 . S
U1286 O1304 2.441 . S
U1286 O1305 2.420 . S
U1286 O1306 2.455 . S
U1286 O1307 2.449 . S
O1287 U1286 2.454 . S
O1287 C1289 1.353 . S
O1288 U1286 2.458 . S
O1288 C1289 1.286 . S
C1289 U1286 2.984 . S
C1289 O1287 1.353 . S
C1289 O1288 1.286 . S
C1289 C1291 1.363 . S
C1290 C1280 1.465 . S
C1290 U1286 2.847 . S
C1290 O1304 1.249 . S
C1290 O1305 1.202 . S
C1291 C1289 1.363 . S
C1291 C1293 1.408 . S
C1291 C1296 1.342 . S
C1292 C1293 1.310 . S
C1292 C1295 1.461 . S
C1292 H1312 0.932 . S
C1293 C1291 1.408 . S
C1293 C1292 1.310 . S
C1293 H1313 0.930 . S
C1294 C1295 1.474 . S
C1294 C1296 1.285 . S
C1294 H1314 0.929 . S
C1295 C1292 1.461 . S
C1295 C1294 1.474 . S
C1296 C1291 1.342 . S
C1296 C1294 1.285 . S
C1296 H1315 0.930 . S
C1297 C1300 1.424 . S
C1297 C1302 1.245 . S
C1297 C1303 1.428 . S
C1298 C1301 1.260 . S
C1298 C1302 1.477 . S
C1298 H1316 0.932 . S
C1299 C1300 1.384 . S
C1299 C1301 1.479 . S
C1299 H1317 0.929 . S
C1300 C1297 1.424 . S
C1300 C1299 1.384 . S
C1300 H1318 0.928 . S
C1301 C1298 1.260 . S
C1301 C1299 1.479 . S
C1302 C1297 1.245 . S
C1302 C1298 1.477 . S
C1302 H1319 0.932 . S
C1303 U1286 2.882 . S
C1303 C1297 1.428 . S
C1303 O1306 1.301 . S
C1303 O1307 1.282 . S
O1304 U1286 2.441 . S
O1304 C1290 1.249 . S
O1305 U1286 2.420 . S
O1305 C1290 1.202 . S
O1306 U1286 2.455 . S
O1306 C1303 1.301 . S
O1307 U1286 2.449 . S
O1307 C1303 1.282 . S
H1308 C1281 0.931 . S
H1309 C1283 0.929 . S
H1310 C1284 0.930 . S
H1311 C1285 0.931 . S
H1312 C1292 0.932 . S
H1313 C1293 0.930 . S
H1314 C1294 0.929 . S
H1315 C1296 0.930 . S
H1316 C1298 0.932 . S
H1317 C1299 0.929 . S
H1318 C1300 0.928 . S
H1319 C1302 0.932 . S
C1320 C1321 1.264 . S
C1320 C1325 1.479 . S
C1320 C1330 1.465 . S
C1321 C1320 1.264 . S
C1321 C1323 1.339 . S
C1321 H1348 0.931 . S
C1322 C1323 1.395 . S
C1322 C1324 1.320 . S
C1323 C1321 1.339 . S
C1323 C1322 1.395 . S
C1323 H1349 0.929 . S
C1324 C1322 1.320 . S
C1324 C1325 1.405 . S
C1324 H1350 0.930 . S
C1325 C1320 1.479 . S
C1325 C1324 1.405 . S
C1325 H1351 0.931 . S
U1326 O1327 2.454 . S
U1326 O1328 2.458 . S
U1326 C1329 2.984 . S
U1326 C1330 2.847 . S
U1326 C1343 2.882 . S
U1326 O1344 2.441 . S
U1326 O1345 2.420 . S
U1326 O1346 2.455 . S
U1326 O1347 2.449 . S
O1327 U1326 2.454 . S
O1327 C1329 1.353 . S
O1328 U1326 2.458 . S
O1328 C1329 1.286 . S
C1329 U1326 2.984 . S
C1329 O1327 1.353 . S
C1329 O1328 1.286 . S
C1329 C1331 1.363 . S
C1330 C1320 1.465 . S
C1330 U1326 2.847 . S
C1330 O1344 1.249 . S
C1330 O1345 1.202 . S
C1331 C1329 1.363 . S
C1331 C1333 1.408 . S
C1331 C1336 1.342 . S
C1332 C1333 1.310 . S
C1332 C1335 1.461 . S
C1332 H1352 0.932 . S
C1333 C1331 1.408 . S
C1333 C1332 1.310 . S
C1333 H1353 0.930 . S
C1334 C1335 1.474 . S
C1334 C1336 1.285 . S
C1334 H1354 0.929 . S
C1335 C1332 1.461 . S
C1335 C1334 1.474 . S
C1336 C1331 1.342 . S
C1336 C1334 1.285 . S
C1336 H1355 0.930 . S
C1337 C1340 1.424 . S
C1337 C1342 1.245 . S
C1337 C1343 1.428 . S
C1338 C1341 1.260 . S
C1338 C1342 1.477 . S
C1338 H1356 0.932 . S
C1339 C1340 1.384 . S
C1339 C1341 1.479 . S
C1339 H1357 0.929 . S
C1340 C1337 1.424 . S
C1340 C1339 1.384 . S
C1340 H1358 0.928 . S
C1341 C1338 1.260 . S
C1341 C1339 1.479 . S
C1342 C1337 1.245 . S
C1342 C1338 1.477 . S
C1342 H1359 0.932 . S
C1343 U1326 2.882 . S
C1343 C1337 1.428 . S
C1343 O1346 1.301 . S
C1343 O1347 1.282 . S
O1344 U1326 2.441 . S
O1344 C1330 1.249 . S
O1345 U1326 2.420 . S
O1345 C1330 1.202 . S
O1346 U1326 2.455 . S
O1346 C1343 1.301 . S
O1347 U1326 2.449 . S
O1347 C1343 1.282 . S
H1348 C1321 0.931 . S
H1349 C1323 0.929 . S
H1350 C1324 0.930 . S
H1351 C1325 0.931 . S
H1352 C1332 0.932 . S
H1353 C1333 0.930 . S
H1354 C1334 0.929 . S
H1355 C1336 0.930 . S
H1356 C1338 0.932 . S
H1357 C1339 0.929 . S
H1358 C1340 0.928 . S
H1359 C1342 0.932 . S
C1360 C1361 1.264 . S
C1360 C1365 1.479 . S
C1360 C1370 1.465 . S
C1361 C1360 1.264 . S
C1361 C1363 1.339 . S
C1361 H1388 0.931 . S
C1362 C1363 1.395 . S
C1362 C1364 1.320 . S
C1363 C1361 1.339 . S
C1363 C1362 1.395 . S
C1363 H1389 0.929 . S
C1364 C1362 1.320 . S
C1364 C1365 1.405 . S
C1364 H1390 0.930 . S
C1365 C1360 1.479 . S
C1365 C1364 1.405 . S
C1365 H1391 0.931 . S
U1366 O1367 2.454 . S
U1366 O1368 2.458 . S
U1366 C1369 2.984 . S
U1366 C1370 2.847 . S
U1366 C1383 2.882 . S
U1366 O1384 2.441 . S
U1366 O1385 2.420 . S
U1366 O1386 2.455 . S
U1366 O1387 2.449 . S
O1367 U1366 2.454 . S
O1367 C1369 1.353 . S
O1368 U1366 2.458 . S
O1368 C1369 1.286 . S
C1369 U1366 2.984 . S
C1369 O1367 1.353 . S
C1369 O1368 1.286 . S
C1369 C1371 1.363 . S
C1370 C1360 1.465 . S
C1370 U1366 2.847 . S
C1370 O1384 1.249 . S
C1370 O1385 1.202 . S
C1371 C1369 1.363 . S
C1371 C1373 1.408 . S
C1371 C1376 1.342 . S
C1372 C1373 1.310 . S
C1372 C1375 1.461 . S
C1372 H1392 0.932 . S
C1373 C1371 1.408 . S
C1373 C1372 1.310 . S
C1373 H1393 0.930 . S
C1374 C1375 1.474 . S
C1374 C1376 1.285 . S
C1374 H1394 0.929 . S
C1375 C1372 1.461 . S
C1375 C1374 1.474 . S
C1376 C1371 1.342 . S
C1376 C1374 1.285 . S
C1376 H1395 0.930 . S
C1377 C1380 1.424 . S
C1377 C1382 1.245 . S
C1377 C1383 1.428 . S
C1378 C1381 1.260 . S
C1378 C1382 1.477 . S
C1378 H1396 0.932 . S
C1379 C1380 1.384 . S
C1379 C1381 1.479 . S
C1379 H1397 0.929 . S
C1380 C1377 1.424 . S
C1380 C1379 1.384 . S
C1380 H1398 0.928 . S
C1381 C1378 1.260 . S
C1381 C1379 1.479 . S
C1382 C1377 1.245 . S
C1382 C1378 1.477 . S
C1382 H1399 0.932 . S
C1383 U1366 2.882 . S
C1383 C1377 1.428 . S
C1383 O1386 1.301 . S
C1383 O1387 1.282 . S
O1384 U1366 2.441 . S
O1384 C1370 1.249 . S
O1385 U1366 2.420 . S
O1385 C1370 1.202 . S
O1386 U1366 2.455 . S
O1386 C1383 1.301 . S
O1387 U1366 2.449 . S
O1387 C1383 1.282 . S
H1388 C1361 0.931 . S
H1389 C1363 0.929 . S
H1390 C1364 0.930 . S
H1391 C1365 0.931 . S
H1392 C1372 0.932 . S
H1393 C1373 0.930 . S
H1394 C1374 0.929 . S
H1395 C1376 0.930 . S
H1396 C1378 0.932 . S
H1397 C1379 0.929 . S
H1398 C1380 0.928 . S
H1399 C1382 0.932 . S
C1400 C1401 1.264 . S
C1400 C1405 1.479 . S
C1400 C1410 1.465 . S
C1401 C1400 1.264 . S
C1401 C1403 1.339 . S
C1401 H1428 0.931 . S
C1402 C1403 1.395 . S
C1402 C1404 1.320 . S
C1403 C1401 1.339 . S
C1403 C1402 1.395 . S
C1403 H1429 0.929 . S
C1404 C1402 1.320 . S
C1404 C1405 1.405 . S
C1404 H1430 0.930 . S
C1405 C1400 1.479 . S
C1405 C1404 1.405 . S
C1405 H1431 0.931 . S
U1406 O1407 2.454 . S
U1406 O1408 2.458 . S
U1406 C1409 2.984 . S
U1406 C1410 2.847 . S
U1406 C1423 2.882 . S
U1406 O1424 2.441 . S
U1406 O1425 2.420 . S
U1406 O1426 2.455 . S
U1406 O1427 2.449 . S
O1407 U1406 2.454 . S
O1407 C1409 1.353 . S
O1408 U1406 2.458 . S
O1408 C1409 1.286 . S
C1409 U1406 2.984 . S
C1409 O1407 1.353 . S
C1409 O1408 1.286 . S
C1409 C1411 1.363 . S
C1410 C1400 1.465 . S
C1410 U1406 2.847 . S
C1410 O1424 1.249 . S
C1410 O1425 1.202 . S
C1411 C1409 1.363 . S
C1411 C1413 1.408 . S
C1411 C1416 1.342 . S
C1412 C1413 1.310 . S
C1412 C1415 1.461 . S
C1412 H1432 0.932 . S
C1413 C1411 1.408 . S
C1413 C1412 1.310 . S
C1413 H1433 0.930 . S
C1414 C1415 1.474 . S
C1414 C1416 1.285 . S
C1414 H1434 0.929 . S
C1415 C1412 1.461 . S
C1415 C1414 1.474 . S
C1416 C1411 1.342 . S
C1416 C1414 1.285 . S
C1416 H1435 0.930 . S
C1417 C1420 1.424 . S
C1417 C1422 1.245 . S
C1417 C1423 1.428 . S
C1418 C1421 1.260 . S
C1418 C1422 1.477 . S
C1418 H1436 0.932 . S
C1419 C1420 1.384 . S
C1419 C1421 1.479 . S
C1419 H1437 0.929 . S
C1420 C1417 1.424 . S
C1420 C1419 1.384 . S
C1420 H1438 0.928 . S
C1421 C1418 1.260 . S
C1421 C1419 1.479 . S
C1422 C1417 1.245 . S
C1422 C1418 1.477 . S
C1422 H1439 0.932 . S
C1423 U1406 2.882 . S
C1423 C1417 1.428 . S
C1423 O1426 1.301 . S
C1423 O1427 1.282 . S
O1424 U1406 2.441 . S
O1424 C1410 1.249 . S
O1425 U1406 2.420 . S
O1425 C1410 1.202 . S
O1426 U1406 2.455 . S
O1426 C1423 1.301 . S
O1427 U1406 2.449 . S
O1427 C1423 1.282 . S
H1428 C1401 0.931 . S
H1429 C1403 0.929 . S
H1430 C1404 0.930 . S
H1431 C1405 0.931 . S
H1432 C1412 0.932 . S
H1433 C1413 0.930 . S
H1434 C1414 0.929 . S
H1435 C1416 0.930 . S
H1436 C1418 0.932 . S
H1437 C1419 0.929 . S
H1438 C1420 0.928 . S
H1439 C1422 0.932 . S
C1440 C1441 1.264 . S
C1440 C1445 1.479 . S
C1440 C1450 1.465 . S
C1441 C1440 1.264 . S
C1441 C1443 1.339 . S
C1441 H1468 0.931 . S
C1442 C1443 1.395 . S
C1442 C1444 1.320 . S
C1443 C1441 1.339 . S
C1443 C1442 1.395 . S
C1443 H1469 0.929 . S
C1444 C1442 1.320 . S
C1444 C1445 1.405 . S
C1444 H1470 0.930 . S
C1445 C1440 1.479 . S
C1445 C1444 1.405 . S
C1445 H1471 0.931 . S
U1446 O1447 2.454 . S
U1446 O1448 2.458 . S
U1446 C1449 2.984 . S
U1446 C1450 2.847 . S
U1446 C1463 2.882 . S
U1446 O1464 2.441 . S
U1446 O1465 2.420 . S
U1446 O1466 2.455 . S
U1446 O1467 2.449 . S
O1447 U1446 2.454 . S
O1447 C1449 1.353 . S
O1448 U1446 2.458 . S
O1448 C1449 1.286 . S
C1449 U1446 2.984 . S
C1449 O1447 1.353 . S
C1449 O1448 1.286 . S
C1449 C1451 1.363 . S
C1450 C1440 1.465 . S
C1450 U1446 2.847 . S
C1450 O1464 1.249 . S
C1450 O1465 1.202 . S
C1451 C1449 1.363 . S
C1451 C1453 1.408 . S
C1451 C1456 1.342 . S
C1452 C1453 1.310 . S
C1452 C1455 1.461 . S
C1452 H1472 0.932 . S
C1453 C1451 1.408 . S
C1453 C1452 1.310 . S
C1453 H1473 0.930 . S
C1454 C1455 1.474 . S
C1454 C1456 1.285 . S
C1454 H1474 0.929 . S
C1455 C1452 1.461 . S
C1455 C1454 1.474 . S
C1456 C1451 1.342 . S
C1456 C1454 1.285 . S
C1456 H1475 0.930 . S
C1457 C1460 1.424 . S
C1457 C1462 1.245 . S
C1457 C1463 1.428 . S
C1458 C1461 1.260 . S
C1458 C1462 1.477 . S
C1458 H1476 0.932 . S
C1459 C1460 1.384 . S
C1459 C1461 1.479 . S
C1459 H1477 0.929 . S
C1460 C1457 1.424 . S
C1460 C1459 1.384 . S
C1460 H1478 0.928 . S
C1461 C1458 1.260 . S
C1461 C1459 1.479 . S
C1462 C1457 1.245 . S
C1462 C1458 1.477 . S
C1462 H1479 0.932 . S
C1463 U1446 2.882 . S
C1463 C1457 1.428 . S
C1463 O1466 1.301 . S
C1463 O1467 1.282 . S
O1464 U1446 2.441 . S
O1464 C1450 1.249 . S
O1465 U1446 2.420 . S
O1465 C1450 1.202 . S
O1466 U1446 2.455 . S
O1466 C1463 1.301 . S
O1467 U1446 2.449 . S
O1467 C1463 1.282 . S
H1468 C1441 0.931 . S
H1469 C1443 0.929 . S
H1470 C1444 0.930 . S
H1471 C1445 0.931 . S
H1472 C1452 0.932 . S
H1473 C1453 0.930 . S
H1474 C1454 0.929 . S
H1475 C1456 0.930 . S
H1476 C1458 0.932 . S
H1477 C1459 0.929 . S
H1478 C1460 0.928 . S
H1479 C1462 0.932 . S
C1480 C1481 1.264 . S
C1480 C1485 1.479 . S
C1480 C1490 1.465 . S
C1481 C1480 1.264 . S
C1481 C1483 1.339 . S
C1481 H1508 0.931 . S
C1482 C1483 1.395 . S
C1482 C1484 1.320 . S
C1483 C1481 1.339 . S
C1483 C1482 1.395 . S
C1483 H1509 0.929 . S
C1484 C1482 1.320 . S
C1484 C1485 1.405 . S
C1484 H1510 0.930 . S
C1485 C1480 1.479 . S
C1485 C1484 1.405 . S
C1485 H1511 0.931 . S
U1486 O1487 2.454 . S
U1486 O1488 2.458 . S
U1486 C1489 2.984 . S
U1486 C1490 2.847 . S
U1486 C1503 2.882 . S
U1486 O1504 2.441 . S
U1486 O1505 2.420 . S
U1486 O1506 2.455 . S
U1486 O1507 2.449 . S
O1487 U1486 2.454 . S
O1487 C1489 1.353 . S
O1488 U1486 2.458 . S
O1488 C1489 1.286 . S
C1489 U1486 2.984 . S
C1489 O1487 1.353 . S
C1489 O1488 1.286 . S
C1489 C1491 1.363 . S
C1490 C1480 1.465 . S
C1490 U1486 2.847 . S
C1490 O1504 1.249 . S
C1490 O1505 1.202 . S
C1491 C1489 1.363 . S
C1491 C1493 1.408 . S
C1491 C1496 1.342 . S
C1492 C1493 1.310 . S
C1492 C1495 1.461 . S
C1492 H1512 0.932 . S
C1493 C1491 1.408 . S
C1493 C1492 1.310 . S
C1493 H1513 0.930 . S
C1494 C1495 1.474 . S
C1494 C1496 1.285 . S
C1494 H1514 0.929 . S
C1495 C1492 1.461 . S
C1495 C1494 1.474 . S
C1496 C1491 1.342 . S
C1496 C1494 1.285 . S
C1496 H1515 0.930 . S
C1497 C1500 1.424 . S
C1497 C1502 1.245 . S
C1497 C1503 1.428 . S
C1498 C1501 1.260 . S
C1498 C1502 1.477 . S
C1498 H1516 0.932 . S
C1499 C1500 1.384 . S
C1499 C1501 1.479 . S
C1499 H1517 0.929 . S
C1500 C1497 1.424 . S
C1500 C1499 1.384 . S
C1500 H1518 0.928 . S
C1501 C1498 1.260 . S
C1501 C1499 1.479 . S
C1502 C1497 1.245 . S
C1502 C1498 1.477 . S
C1502 H1519 0.932 . S
C1503 U1486 2.882 . S
C1503 C1497 1.428 . S
C1503 O1506 1.301 . S
C1503 O1507 1.282 . S
O1504 U1486 2.441 . S
O1504 C1490 1.249 . S
O1505 U1486 2.420 . S
O1505 C1490 1.202 . S
O1506 U1486 2.455 . S
O1506 C1503 1.301 . S
O1507 U1486 2.449 . S
O1507 C1503 1.282 . S
H1508 C1481 0.931 . S
H1509 C1483 0.929 . S
H1510 C1484 0.930 . S
H1511 C1485 0.931 . S
H1512 C1492 0.932 . S
H1513 C1493 0.930 . S
H1514 C1494 0.929 . S
H1515 C1496 0.930 . S
H1516 C1498 0.932 . S
H1517 C1499 0.929 . S
H1518 C1500 0.928 . S
H1519 C1502 0.932 . S
C1520 C1521 1.264 . S
C1520 C1525 1.479 . S
C1520 C1530 1.465 . S
C1521 C1520 1.264 . S
C1521 C1523 1.339 . S
C1521 H1548 0.931 . S
C1522 C1523 1.395 . S
C1522 C1524 1.320 . S
C1523 C1521 1.339 . S
C1523 C1522 1.395 . S
C1523 H1549 0.929 . S
C1524 C1522 1.320 . S
C1524 C1525 1.405 . S
C1524 H1550 0.930 . S
C1525 C1520 1.479 . S
C1525 C1524 1.405 . S
C1525 H1551 0.931 . S
U1526 O1527 2.454 . S
U1526 O1528 2.458 . S
U1526 C1529 2.984 . S
U1526 C1530 2.847 . S
U1526 C1543 2.882 . S
U1526 O1544 2.441 . S
U1526 O1545 2.420 . S
U1526 O1546 2.455 . S
U1526 O1547 2.449 . S
O1527 U1526 2.454 . S
O1527 C1529 1.353 . S
O1528 U1526 2.458 . S
O1528 C1529 1.286 . S
C1529 U1526 2.984 . S
C1529 O1527 1.353 . S
C1529 O1528 1.286 . S
C1529 C1531 1.363 . S
C1530 C1520 1.465 . S
C1530 U1526 2.847 . S
C1530 O1544 1.249 . S
C1530 O1545 1.202 . S
C1531 C1529 1.363 . S
C1531 C1533 1.408 . S
C1531 C1536 1.342 . S
C1532 C1533 1.310 . S
C1532 C1535 1.461 . S
C1532 H1552 0.932 . S
C1533 C1531 1.408 . S
C1533 C1532 1.310 . S
C1533 H1553 0.930 . S
C1534 C1535 1.474 . S
C1534 C1536 1.285 . S
C1534 H1554 0.929 . S
C1535 C1532 1.461 . S
C1535 C1534 1.474 . S
C1536 C1531 1.342 . S
C1536 C1534 1.285 . S
C1536 H1555 0.930 . S
C1537 C1540 1.424 . S
C1537 C1542 1.245 . S
C1537 C1543 1.428 . S
C1538 C1541 1.260 . S
C1538 C1542 1.477 . S
C1538 H1556 0.932 . S
C1539 C1540 1.384 . S
C1539 C1541 1.479 . S
C1539 H1557 0.929 . S
C1540 C1537 1.424 . S
C1540 C1539 1.384 . S
C1540 H1558 0.928 . S
C1541 C1538 1.260 . S
C1541 C1539 1.479 . S
C1542 C1537 1.245 . S
C1542 C1538 1.477 . S
C1542 H1559 0.932 . S
C1543 U1526 2.882 . S
C1543 C1537 1.428 . S
C1543 O1546 1.301 . S
C1543 O1547 1.282 . S
O1544 U1526 2.441 . S
O1544 C1530 1.249 . S
O1545 U1526 2.420 . S
O1545 C1530 1.202 . S
O1546 U1526 2.455 . S
O1546 C1543 1.301 . S
O1547 U1526 2.449 . S
O1547 C1543 1.282 . S
H1548 C1521 0.931 . S
H1549 C1523 0.929 . S
H1550 C1524 0.930 . S
H1551 C1525 0.931 . S
H1552 C1532 0.932 . S
H1553 C1533 0.930 . S
H1554 C1534 0.929 . S
H1555 C1536 0.930 . S
H1556 C1538 0.932 . S
H1557 C1539 0.929 . S
H1558 C1540 0.928 . S
H1559 C1542 0.932 . S
C1560 C1561 1.264 . S
C1560 C1565 1.479 . S
C1560 C1570 1.465 . S
C1561 C1560 1.264 . S
C1561 C1563 1.339 . S
C1561 H1588 0.931 . S
C1562 C1563 1.395 . S
C1562 C1564 1.320 . S
C1563 C1561 1.339 . S
C1563 C1562 1.395 . S
C1563 H1589 0.929 . S
C1564 C1562 1.320 . S
C1564 C1565 1.405 . S
C1564 H1590 0.930 . S
C1565 C1560 1.479 . S
C1565 C1564 1.405 . S
C1565 H1591 0.931 . S
U1566 O1567 2.454 . S
U1566 O1568 2.458 . S
U1566 C1569 2.984 . S
U1566 C1570 2.847 . S
U1566 C1583 2.882 . S
U1566 O1584 2.441 . S
U1566 O1585 2.420 . S
U1566 O1586 2.455 . S
U1566 O1587 2.449 . S
O1567 U1566 2.454 . S
O1567 C1569 1.353 . S
O1568 U1566 2.458 . S
O1568 C1569 1.286 . S
C1569 U1566 2.984 . S
C1569 O1567 1.353 . S
C1569 O1568 1.286 . S
C1569 C1571 1.363 . S
C1570 C1560 1.465 . S
C1570 U1566 2.847 . S
C1570 O1584 1.249 . S
C1570 O1585 1.202 . S
C1571 C1569 1.363 . S
C1571 C1573 1.408 . S
C1571 C1576 1.342 . S
C1572 C1573 1.310 . S
C1572 C1575 1.461 . S
C1572 H1592 0.932 . S
C1573 C1571 1.408 . S
C1573 C1572 1.310 . S
C1573 H1593 0.930 . S
C1574 C1575 1.474 . S
C1574 C1576 1.285 . S
C1574 H1594 0.929 . S
C1575 C1572 1.461 . S
C1575 C1574 1.474 . S
C1576 C1571 1.342 . S
C1576 C1574 1.285 . S
C1576 H1595 0.930 . S
C1577 C1580 1.424 . S
C1577 C1582 1.245 . S
C1577 C1583 1.428 . S
C1578 C1581 1.260 . S
C1578 C1582 1.477 . S
C1578 H1596 0.932 . S
C1579 C1580 1.384 . S
C1579 C1581 1.479 . S
C1579 H1597 0.929 . S
C1580 C1577 1.424 . S
C1580 C1579 1.384 . S
C1580 H1598 0.928 . S
C1581 C1578 1.260 . S
C1581 C1579 1.479 . S
C1582 C1577 1.245 . S
C1582 C1578 1.477 . S
C1582 H1599 0.932 . S
C1583 U1566 2.882 . S
C1583 C1577 1.428 . S
C1583 O1586 1.301 . S
C1583 O1587 1.282 . S
O1584 U1566 2.441 . S
O1584 C1570 1.249 . S
O1585 U1566 2.420 . S
O1585 C1570 1.202 . S
O1586 U1566 2.455 . S
O1586 C1583 1.301 . S
O1587 U1566 2.449 . S
O1587 C1583 1.282 . S
H1588 C1561 0.931 . S
H1589 C1563 0.929 . S
H1590 C1564 0.930 . S
H1591 C1565 0.931 . S
H1592 C1572 0.932 . S
H1593 C1573 0.930 . S
H1594 C1574 0.929 . S
H1595 C1576 0.930 . S
H1596 C1578 0.932 . S
H1597 C1579 0.929 . S
H1598 C1580 0.928 . S
H1599 C1582 0.932 . S
C1600 C1601 1.264 . S
C1600 C1605 1.479 . S
C1600 C1610 1.465 . S
C1601 C1600 1.264 . S
C1601 C1603 1.339 . S
C1601 H1628 0.931 . S
C1602 C1603 1.395 . S
C1602 C1604 1.320 . S
C1603 C1601 1.339 . S
C1603 C1602 1.395 . S
C1603 H1629 0.929 . S
C1604 C1602 1.320 . S
C1604 C1605 1.405 . S
C1604 H1630 0.930 . S
C1605 C1600 1.479 . S
C1605 C1604 1.405 . S
C1605 H1631 0.931 . S
U1606 O1607 2.454 . S
U1606 O1608 2.458 . S
U1606 C1609 2.984 . S
U1606 C1610 2.847 . S
U1606 C1623 2.882 . S
U1606 O1624 2.441 . S
U1606 O1625 2.420 . S
U1606 O1626 2.455 . S
U1606 O1627 2.449 . S
O1607 U1606 2.454 . S
O1607 C1609 1.353 . S
O1608 U1606 2.458 . S
O1608 C1609 1.286 . S
C1609 U1606 2.984 . S
C1609 O1607 1.353 . S
C1609 O1608 1.286 . S
C1609 C1611 1.363 . S
C1610 C1600 1.465 . S
C1610 U1606 2.847 . S
C1610 O1624 1.249 . S
C1610 O1625 1.202 . S
C1611 C1609 1.363 . S
C1611 C1613 1.408 . S
C1611 C1616 1.342 . S
C1612 C1613 1.310 . S
C1612 C1615 1.461 . S
C1612 H1632 0.932 . S
C1613 C1611 1.408 . S
C1613 C1612 1.310 . S
C1613 H1633 0.930 . S
C1614 C1615 1.474 . S
C1614 C1616 1.285 . S
C1614 H1634 0.929 . S
C1615 C1612 1.461 . S
C1615 C1614 1.474 . S
C1616 C1611 1.342 . S
C1616 C1614 1.285 . S
C1616 H1635 0.930 . S
C1617 C1620 1.424 . S
C1617 C1622 1.245 . S
C1617 C1623 1.428 . S
C1618 C1621 1.260 . S
C1618 C1622 1.477 . S
C1618 H1636 0.932 . S
C1619 C1620 1.384 . S
C1619 C1621 1.479 . S
C1619 H1637 0.929 . S
C1620 C1617 1.424 . S
C1620 C1619 1.384 . S
C1620 H1638 0.928 . S
C1621 C1618 1.260 . S
C1621 C1619 1.479 . S
C1622 C1617 1.245 . S
C1622 C1618 1.477 . S
C1622 H1639 0.932 . S
C1623 U1606 2.882 . S
C1623 C1617 1.428 . S
C1623 O1626 1.301 . S
C1623 O1627 1.282 . S
O1624 U1606 2.441 . S
O1624 C1610 1.249 . S
O1625 U1606 2.420 . S
O1625 C1610 1.202 . S
O1626 U1606 2.455 . S
O1626 C1623 1.301 . S
O1627 U1606 2.449 . S
O1627 C1623 1.282 . S
H1628 C1601 0.931 . S
H1629 C1603 0.929 . S
H1630 C1604 0.930 . S
H1631 C1605 0.931 . S
H1632 C1612 0.932 . S
H1633 C1613 0.930 . S
H1634 C1614 0.929 . S
H1635 C1616 0.930 . S
H1636 C1618 0.932 . S
H1637 C1619 0.929 . S
H1638 C1620 0.928 . S
H1639 C1622 0.932 . S
C1640 C1641 1.264 . S
C1640 C1645 1.479 . S
C1640 C1650 1.465 . S
C1641 C1640 1.264 . S
C1641 C1643 1.339 . S
C1641 H1668 0.931 . S
C1642 C1643 1.395 . S
C1642 C1644 1.320 . S
C1643 C1641 1.339 . S
C1643 C1642 1.395 . S
C1643 H1669 0.929 . S
C1644 C1642 1.320 . S
C1644 C1645 1.405 . S
C1644 H1670 0.930 . S
C1645 C1640 1.479 . S
C1645 C1644 1.405 . S
C1645 H1671 0.931 . S
U1646 O1647 2.454 . S
U1646 O1648 2.458 . S
U1646 C1649 2.984 . S
U1646 C1650 2.847 . S
U1646 C1663 2.882 . S
U1646 O1664 2.441 . S
U1646 O1665 2.420 . S
U1646 O1666 2.455 . S
U1646 O1667 2.449 . S
O1647 U1646 2.454 . S
O1647 C1649 1.353 . S
O1648 U1646 2.458 . S
O1648 C1649 1.286 . S
C1649 U1646 2.984 . S
C1649 O1647 1.353 . S
C1649 O1648 1.286 . S
C1649 C1651 1.363 . S
C1650 C1640 1.465 . S
C1650 U1646 2.847 . S
C1650 O1664 1.249 . S
C1650 O1665 1.202 . S
C1651 C1649 1.363 . S
C1651 C1653 1.408 . S
C1651 C1656 1.342 . S
C1652 C1653 1.310 . S
C1652 C1655 1.461 . S
C1652 H1672 0.932 . S
C1653 C1651 1.408 . S
C1653 C1652 1.310 . S
C1653 H1673 0.930 . S
C1654 C1655 1.474 . S
C1654 C1656 1.285 . S
C1654 H1674 0.929 . S
C1655 C1652 1.461 . S
C1655 C1654 1.474 . S
C1656 C1651 1.342 . S
C1656 C1654 1.285 . S
C1656 H1675 0.930 . S
C1657 C1660 1.424 . S
C1657 C1662 1.245 . S
C1657 C1663 1.428 . S
C1658 C1661 1.260 . S
C1658 C1662 1.477 . S
C1658 H1676 0.932 . S
C1659 C1660 1.384 . S
C1659 C1661 1.479 . S
C1659 H1677 0.929 . S
C1660 C1657 1.424 . S
C1660 C1659 1.384 . S
C1660 H1678 0.928 . S
C1661 C1658 1.260 . S
C1661 C1659 1.479 . S
C1662 C1657 1.245 . S
C1662 C1658 1.477 . S
C1662 H1679 0.932 . S
C1663 U1646 2.882 . S
C1663 C1657 1.428 . S
C1663 O1666 1.301 . S
C1663 O1667 1.282 . S
O1664 U1646 2.441 . S
O1664 C1650 1.249 . S
O1665 U1646 2.420 . S
O1665 C1650 1.202 . S
O1666 U1646 2.455 . S
O1666 C1663 1.301 . S
O1667 U1646 2.449 . S
O1667 C1663 1.282 . S
H1668 C1641 0.931 . S
H1669 C1643 0.929 . S
H1670 C1644 0.930 . S
H1671 C1645 0.931 . S
H1672 C1652 0.932 . S
H1673 C1653 0.930 . S
H1674 C1654 0.929 . S
H1675 C1656 0.930 . S
H1676 C1658 0.932 . S
H1677 C1659 0.929 . S
H1678 C1660 0.928 . S
H1679 C1662 0.932 . S
C1680 C1681 1.264 . S
C1680 C1685 1.479 . S
C1680 C1690 1.465 . S
C1681 C1680 1.264 . S
C1681 C1683 1.339 . S
C1681 H1708 0.931 . S
C1682 C1683 1.395 . S
C1682 C1684 1.320 . S
C1683 C1681 1.339 . S
C1683 C1682 1.395 . S
C1683 H1709 0.929 . S
C1684 C1682 1.320 . S
C1684 C1685 1.405 . S
C1684 H1710 0.930 . S
C1685 C1680 1.479 . S
C1685 C1684 1.405 . S
C1685 H1711 0.931 . S
U1686 O1687 2.454 . S
U1686 O1688 2.458 . S
U1686 C1689 2.984 . S
U1686 C1690 2.847 . S
U1686 C1703 2.882 . S
U1686 O1704 2.441 . S
U1686 O1705 2.420 . S
U1686 O1706 2.455 . S
U1686 O1707 2.449 . S
O1687 U1686 2.454 . S
O1687 C1689 1.353 . S
O1688 U1686 2.458 . S
O1688 C1689 1.286 . S
C1689 U1686 2.984 . S
C1689 O1687 1.353 . S
C1689 O1688 1.286 . S
C1689 C1691 1.363 . S
C1690 C1680 1.465 . S
C1690 U1686 2.847 . S
C1690 O1704 1.249 . S
C1690 O1705 1.202 . S
C1691 C1689 1.363 . S
C1691 C1693 1.408 . S
C1691 C1696 1.342 . S
C1692 C1693 1.310 . S
C1692 C1695 1.461 . S
C1692 H1712 0.932 . S
C1693 C1691 1.408 . S
C1693 C1692 1.310 . S
C1693 H1713 0.930 . S
C1694 C1695 1.474 . S
C1694 C1696 1.285 . S
C1694 H1714 0.929 . S
C1695 C1692 1.461 . S
C1695 C1694 1.474 . S
C1696 C1691 1.342 . S
C1696 C1694 1.285 . S
C1696 H1715 0.930 . S
C1697 C1700 1.424 . S
C1697 C1702 1.245 . S
C1697 C1703 1.428 . S
C1698 C1701 1.260 . S
C1698 C1702 1.477 . S
C1698 H1716 0.932 . S
C1699 C1700 1.384 . S
C1699 C1701 1.479 . S
C1699 H1717 0.929 . S
C1700 C1697 1.424 . S
C1700 C1699 1.384 . S
C1700 H1718 0.928 . S
C1701 C1698 1.260 . S
C1701 C1699 1.479 . S
C1702 C1697 1.245 . S
C1702 C1698 1.477 . S
C1702 H1719 0.932 . S
C1703 U1686 2.882 . S
C1703 C1697 1.428 . S
C1703 O1706 1.301 . S
C1703 O1707 1.282 . S
O1704 U1686 2.441 . S
O1704 C1690 1.249 . S
O1705 U1686 2.420 . S
O1705 C1690 1.202 . S
O1706 U1686 2.455 . S
O1706 C1703 1.301 . S
O1707 U1686 2.449 . S
O1707 C1703 1.282 . S
H1708 C1681 0.931 . S
H1709 C1683 0.929 . S
H1710 C1684 0.930 . S
H1711 C1685 0.931 . S
H1712 C1692 0.932 . S
H1713 C1693 0.930 . S
H1714 C1694 0.929 . S
H1715 C1696 0.930 . S
H1716 C1698 0.932 . S
H1717 C1699 0.929 . S
H1718 C1700 0.928 . S
H1719 C1702 0.932 . S
C1720 C1721 1.264 . S
C1720 C1725 1.479 . S
C1720 C1730 1.465 . S
C1721 C1720 1.264 . S
C1721 C1723 1.339 . S
C1721 H1748 0.931 . S
C1722 C1723 1.395 . S
C1722 C1724 1.320 . S
C1723 C1721 1.339 . S
C1723 C1722 1.395 . S
C1723 H1749 0.929 . S
C1724 C1722 1.320 . S
C1724 C1725 1.405 . S
C1724 H1750 0.930 . S
C1725 C1720 1.479 . S
C1725 C1724 1.405 . S
C1725 H1751 0.931 . S
U1726 O1727 2.454 . S
U1726 O1728 2.458 . S
U1726 C1729 2.984 . S
U1726 C1730 2.847 . S
U1726 C1743 2.882 . S
U1726 O1744 2.441 . S
U1726 O1745 2.420 . S
U1726 O1746 2.455 . S
U1726 O1747 2.449 . S
O1727 U1726 2.454 . S
O1727 C1729 1.353 . S
O1728 U1726 2.458 . S
O1728 C1729 1.286 . S
C1729 U1726 2.984 . S
C1729 O1727 1.353 . S
C1729 O1728 1.286 . S
C1729 C1731 1.363 . S
C1730 C1720 1.465 . S
C1730 U1726 2.847 . S
C1730 O1744 1.249 . S
C1730 O1745 1.202 . S
C1731 C1729 1.363 . S
C1731 C1733 1.408 . S
C1731 C1736 1.342 . S
C1732 C1733 1.310 . S
C1732 C1735 1.461 . S
C1732 H1752 0.932 . S
C1733 C1731 1.408 . S
C1733 C1732 1.310 . S
C1733 H1753 0.930 . S
C1734 C1735 1.474 . S
C1734 C1736 1.285 . S
C1734 H1754 0.929 . S
C1735 C1732 1.461 . S
C1735 C1734 1.474 . S
C1736 C1731 1.342 . S
C1736 C1734 1.285 . S
C1736 H1755 0.930 . S
C1737 C1740 1.424 . S
C1737 C1742 1.245 . S
C1737 C1743 1.428 . S
C1738 C1741 1.260 . S
C1738 C1742 1.477 . S
C1738 H1756 0.932 . S
C1739 C1740 1.384 . S
C1739 C1741 1.479 . S
C1739 H1757 0.929 . S
C1740 C1737 1.424 . S
C1740 C1739 1.384 . S
C1740 H1758 0.928 . S
C1741 C1738 1.260 . S
C1741 C1739 1.479 . S
C1742 C1737 1.245 . S
C1742 C1738 1.477 . S
C1742 H1759 0.932 . S
C1743 U1726 2.882 . S
C1743 C1737 1.428 . S
C1743 O1746 1.301 . S
C1743 O1747 1.282 . S
O1744 U1726 2.441 . S
O1744 C1730 1.249 . S
O1745 U1726 2.420 . S
O1745 C1730 1.202 . S
O1746 U1726 2.455 . S
O1746 C1743 1.301 . S
O1747 U1726 2.449 . S
O1747 C1743 1.282 . S
H1748 C1721 0.931 . S
H1749 C1723 0.929 . S
H1750 C1724 0.930 . S
H1751 C1725 0.931 . S
H1752 C1732 0.932 . S
H1753 C1733 0.930 . S
H1754 C1734 0.929 . S
H1755 C1736 0.930 . S
H1756 C1738 0.932 . S
H1757 C1739 0.929 . S
H1758 C1740 0.928 . S
H1759 C1742 0.932 . S
C1760 C1761 1.264 . S
C1760 C1765 1.479 . S
C1760 C1770 1.465 . S
C1761 C1760 1.264 . S
C1761 C1763 1.339 . S
C1761 H1788 0.931 . S
C1762 C1763 1.395 . S
C1762 C1764 1.320 . S
C1763 C1761 1.339 . S
C1763 C1762 1.395 . S
C1763 H1789 0.929 . S
C1764 C1762 1.320 . S
C1764 C1765 1.405 . S
C1764 H1790 0.930 . S
C1765 C1760 1.479 . S
C1765 C1764 1.405 . S
C1765 H1791 0.931 . S
U1766 O1767 2.454 . S
U1766 O1768 2.458 . S
U1766 C1769 2.984 . S
U1766 C1770 2.847 . S
U1766 C1783 2.882 . S
U1766 O1784 2.441 . S
U1766 O1785 2.420 . S
U1766 O1786 2.455 . S
U1766 O1787 2.449 . S
O1767 U1766 2.454 . S
O1767 C1769 1.353 . S
O1768 U1766 2.458 . S
O1768 C1769 1.286 . S
C1769 U1766 2.984 . S
C1769 O1767 1.353 . S
C1769 O1768 1.286 . S
C1769 C1771 1.363 . S
C1770 C1760 1.465 . S
C1770 U1766 2.847 . S
C1770 O1784 1.249 . S
C1770 O1785 1.202 . S
C1771 C1769 1.363 . S
C1771 C1773 1.408 . S
C1771 C1776 1.342 . S
C1772 C1773 1.310 . S
C1772 C1775 1.461 . S
C1772 H1792 0.932 . S
C1773 C1771 1.408 . S
C1773 C1772 1.310 . S
C1773 H1793 0.930 . S
C1774 C1775 1.474 . S
C1774 C1776 1.285 . S
C1774 H1794 0.929 . S
C1775 C1772 1.461 . S
C1775 C1774 1.474 . S
C1776 C1771 1.342 . S
C1776 C1774 1.285 . S
C1776 H1795 0.930 . S
C1777 C1780 1.424 . S
C1777 C1782 1.245 . S
C1777 C1783 1.428 . S
C1778 C1781 1.260 . S
C1778 C1782 1.477 . S
C1778 H1796 0.932 . S
C1779 C1780 1.384 . S
C1779 C1781 1.479 . S
C1779 H1797 0.929 . S
C1780 C1777 1.424 . S
C1780 C1779 1.384 . S
C1780 H1798 0.928 . S
C1781 C1778 1.260 . S
C1781 C1779 1.479 . S
C1782 C1777 1.245 . S
C1782 C1778 1.477 . S
C1782 H1799 0.932 . S
C1783 U1766 2.882 . S
C1783 C1777 1.428 . S
C1783 O1786 1.301 . S
C1783 O1787 1.282 . S
O1784 U1766 2.441 . S
O1784 C1770 1.249 . S
O1785 U1766 2.420 . S
O1785 C1770 1.202 . S
O1786 U1766 2.455 . S
O1786 C1783 1.301 . S
O1787 U1766 2.449 . S
O1787 C1783 1.282 . S
H1788 C1761 0.931 . S
H1789 C1763 0.929 . S
H1790 C1764 0.930 . S
H1791 C1765 0.931 . S
H1792 C1772 0.932 . S
H1793 C1773 0.930 . S
H1794 C1774 0.929 . S
H1795 C1776 0.930 . S
H1796 C1778 0.932 . S
H1797 C1779 0.929 . S
H1798 C1780 0.928 . S
H1799 C1782 0.932 . S
C1800 C1801 1.264 . S
C1800 C1805 1.479 . S
C1800 C1810 1.465 . S
C1801 C1800 1.264 . S
C1801 C1803 1.339 . S
C1801 H1828 0.931 . S
C1802 C1803 1.395 . S
C1802 C1804 1.320 . S
C1803 C1801 1.339 . S
C1803 C1802 1.395 . S
C1803 H1829 0.929 . S
C1804 C1802 1.320 . S
C1804 C1805 1.405 . S
C1804 H1830 0.930 . S
C1805 C1800 1.479 . S
C1805 C1804 1.405 . S
C1805 H1831 0.931 . S
U1806 O1807 2.454 . S
U1806 O1808 2.458 . S
U1806 C1809 2.984 . S
U1806 C1810 2.847 . S
U1806 C1823 2.882 . S
U1806 O1824 2.441 . S
U1806 O1825 2.420 . S
U1806 O1826 2.455 . S
U1806 O1827 2.449 . S
O1807 U1806 2.454 . S
O1807 C1809 1.353 . S
O1808 U1806 2.458 . S
O1808 C1809 1.286 . S
C1809 U1806 2.984 . S
C1809 O1807 1.353 . S
C1809 O1808 1.286 . S
C1809 C1811 1.363 . S
C1810 C1800 1.465 . S
C1810 U1806 2.847 . S
C1810 O1824 1.249 . S
C1810 O1825 1.202 . S
C1811 C1809 1.363 . S
C1811 C1813 1.408 . S
C1811 C1816 1.342 . S
C1812 C1813 1.310 . S
C1812 C1815 1.461 . S
C1812 H1832 0.932 . S
C1813 C1811 1.408 . S
C1813 C1812 1.310 . S
C1813 H1833 0.930 . S
C1814 C1815 1.474 . S
C1814 C1816 1.285 . S
C1814 H1834 0.929 . S
C1815 C1812 1.461 . S
C1815 C1814 1.474 . S
C1816 C1811 1.342 . S
C1816 C1814 1.285 . S
C1816 H1835 0.930 . S
C1817 C1820 1.424 . S
C1817 C1822 1.245 . S
C1817 C1823 1.428 . S
C1818 C1821 1.260 . S
C1818 C1822 1.477 . S
C1818 H1836 0.932 . S
C1819 C1820 1.384 . S
C1819 C1821 1.479 . S
C1819 H1837 0.929 . S
C1820 C1817 1.424 . S
C1820 C1819 1.384 . S
C1820 H1838 0.928 . S
C1821 C1818 1.260 . S
C1821 C1819 1.479 . S
C1822 C1817 1.245 . S
C1822 C1818 1.477 . S
C1822 H1839 0.932 . S
C1823 U1806 2.882 . S
C1823 C1817 1.428 . S
C1823 O1826 1.301 . S
C1823 O1827 1.282 . S
O1824 U1806 2.441 . S
O1824 C1810 1.249 . S
O1825 U1806 2.420 . S
O1825 C1810 1.202 . S
O1826 U1806 2.455 . S
O1826 C1823 1.301 . S
O1827 U1806 2.449 . S
O1827 C1823 1.282 . S
H1828 C1801 0.931 . S
H1829 C1803 0.929 . S
H1830 C1804 0.930 . S
H1831 C1805 0.931 . S
H1832 C1812 0.932 . S
H1833 C1813 0.930 . S
H1834 C1814 0.929 . S
H1835 C1816 0.930 . S
H1836 C1818 0.932 . S
H1837 C1819 0.929 . S
H1838 C1820 0.928 . S
H1839 C1822 0.932 . S
C1840 C1841 1.264 . S
C1840 C1845 1.479 . S
C1840 C1850 1.465 . S
C1841 C1840 1.264 . S
C1841 C1843 1.339 . S
C1841 H1868 0.931 . S
C1842 C1843 1.395 . S
C1842 C1844 1.320 . S
C1843 C1841 1.339 . S
C1843 C1842 1.395 . S
C1843 H1869 0.929 . S
C1844 C1842 1.320 . S
C1844 C1845 1.405 . S
C1844 H1870 0.930 . S
C1845 C1840 1.479 . S
C1845 C1844 1.405 . S
C1845 H1871 0.931 . S
U1846 O1847 2.454 . S
U1846 O1848 2.458 . S
U1846 C1849 2.984 . S
U1846 C1850 2.847 . S
U1846 C1863 2.882 . S
U1846 O1864 2.441 . S
U1846 O1865 2.420 . S
U1846 O1866 2.455 . S
U1846 O1867 2.449 . S
O1847 U1846 2.454 . S
O1847 C1849 1.353 . S
O1848 U1846 2.458 . S
O1848 C1849 1.286 . S
C1849 U1846 2.984 . S
C1849 O1847 1.353 . S
C1849 O1848 1.286 . S
C1849 C1851 1.363 . S
C1850 C1840 1.465 . S
C1850 U1846 2.847 . S
C1850 O1864 1.249 . S
C1850 O1865 1.202 . S
C1851 C1849 1.363 . S
C1851 C1853 1.408 . S
C1851 C1856 1.342 . S
C1852 C1853 1.310 . S
C1852 C1855 1.461 . S
C1852 H1872 0.932 . S
C1853 C1851 1.408 . S
C1853 C1852 1.310 . S
C1853 H1873 0.930 . S
C1854 C1855 1.474 . S
C1854 C1856 1.285 . S
C1854 H1874 0.929 . S
C1855 C1852 1.461 . S
C1855 C1854 1.474 . S
C1856 C1851 1.342 . S
C1856 C1854 1.285 . S
C1856 H1875 0.930 . S
C1857 C1860 1.424 . S
C1857 C1862 1.245 . S
C1857 C1863 1.428 . S
C1858 C1861 1.260 . S
C1858 C1862 1.477 . S
C1858 H1876 0.932 . S
C1859 C1860 1.384 . S
C1859 C1861 1.479 . S
C1859 H1877 0.929 . S
C1860 C1857 1.424 . S
C1860 C1859 1.384 . S
C1860 H1878 0.928 . S
C1861 C1858 1.260 . S
C1861 C1859 1.479 . S
C1862 C1857 1.245 . S
C1862 C1858 1.477 . S
C1862 H1879 0.932 . S
C1863 U1846 2.882 . S
C1863 C1857 1.428 . S
C1863 O1866 1.301 . S
C1863 O1867 1.282 . S
O1864 U1846 2.441 . S
O1864 C1850 1.249 . S
O1865 U1846 2.420 . S
O1865 C1850 1.202 . S
O1866 U1846 2.455 . S
O1866 C1863 1.301 . S
O1867 U1846 2.449 . S
O1867 C1863 1.282 . S
H1868 C1841 0.931 . S
H1869 C1843 0.929 . S
H1870 C1844 0.930 . S
H1871 C1845 0.931 . S
H1872 C1852 0.932 . S
H1873 C1853 0.930 . S
H1874 C1854 0.929 . S
H1875 C1856 0.930 . S
H1876 C1858 0.932 . S
H1877 C1859 0.929 . S
H1878 C1860 0.928 . S
H1879 C1862 0.932 . S
C1880 C1881 1.264 . S
C1880 C1885 1.479 . S
C1880 C1890 1.465 . S
C1881 C1880 1.264 . S
C1881 C1883 1.339 . S
C1881 H1908 0.931 . S
C1882 C1883 1.395 . S
C1882 C1884 1.320 . S
C1883 C1881 1.339 . S
C1883 C1882 1.395 . S
C1883 H1909 0.929 . S
C1884 C1882 1.320 . S
C1884 C1885 1.405 . S
C1884 H1910 0.930 . S
C1885 C1880 1.479 . S
C1885 C1884 1.405 . S
C1885 H1911 0.931 . S
U1886 O1887 2.454 . S
U1886 O1888 2.458 . S
U1886 C1889 2.984 . S
U1886 C1890 2.847 . S
U1886 C1903 2.882 . S
U1886 O1904 2.441 . S
U1886 O1905 2.420 . S
U1886 O1906 2.455 . S
U1886 O1907 2.449 . S
O1887 U1886 2.454 . S
O1887 C1889 1.353 . S
O1888 U1886 2.458 . S
O1888 C1889 1.286 . S
C1889 U1886 2.984 . S
C1889 O1887 1.353 . S
C1889 O1888 1.286 . S
C1889 C1891 1.363 . S
C1890 C1880 1.465 . S
C1890 U1886 2.847 . S
C1890 O1904 1.249 . S
C1890 O1905 1.202 . S
C1891 C1889 1.363 . S
C1891 C1893 1.408 . S
C1891 C1896 1.342 . S
C1892 C1893 1.310 . S
C1892 C1895 1.461 . S
C1892 H1912 0.932 . S
C1893 C1891 1.408 . S
C1893 C1892 1.310 . S
C1893 H1913 0.930 . S
C1894 C1895 1.474 . S
C1894 C1896 1.285 . S
C1894 H1914 0.929 . S
C1895 C1892 1.461 . S
C1895 C1894 1.474 . S
C1896 C1891 1.342 . S
C1896 C1894 1.285 . S
C1896 H1915 0.930 . S
C1897 C1900 1.424 . S
C1897 C1902 1.245 . S
C1897 C1903 1.428 . S
C1898 C1901 1.260 . S
C1898 C1902 1.477 . S
C1898 H1916 0.932 . S
C1899 C1900 1.384 . S
C1899 C1901 1.479 . S
C1899 H1917 0.929 . S
C1900 C1897 1.424 . S
C1900 C1899 1.384 . S
C1900 H1918 0.928 . S
C1901 C1898 1.260 . S
C1901 C1899 1.479 . S
C1902 C1897 1.245 . S
C1902 C1898 1.477 . S
C1902 H1919 0.932 . S
C1903 U1886 2.882 . S
C1903 C1897 1.428 . S
C1903 O1906 1.301 . S
C1903 O1907 1.282 . S
O1904 U1886 2.441 . S
O1904 C1890 1.249 . S
O1905 U1886 2.420 . S
O1905 C1890 1.202 . S
O1906 U1886 2.455 . S
O1906 C1903 1.301 . S
O1907 U1886 2.449 . S
O1907 C1903 1.282 . S
H1908 C1881 0.931 . S
H1909 C1883 0.929 . S
H1910 C1884 0.930 . S
H1911 C1885 0.931 . S
H1912 C1892 0.932 . S
H1913 C1893 0.930 . S
H1914 C1894 0.929 . S
H1915 C1896 0.930 . S
H1916 C1898 0.932 . S
H1917 C1899 0.929 . S
H1918 C1900 0.928 . S
H1919 C1902 0.932 . S
C1920 C1921 1.264 . S
C1920 C1925 1.479 . S
C1920 C1930 1.465 . S
C1921 C1920 1.264 . S
C1921 C1923 1.339 . S
C1921 H1948 0.931 . S
C1922 C1923 1.395 . S
C1922 C1924 1.320 . S
C1923 C1921 1.339 . S
C1923 C1922 1.395 . S
C1923 H1949 0.929 . S
C1924 C1922 1.320 . S
C1924 C1925 1.405 . S
C1924 H1950 0.930 . S
C1925 C1920 1.479 . S
C1925 C1924 1.405 . S
C1925 H1951 0.931 . S
U1926 O1927 2.454 . S
U1926 O1928 2.458 . S
U1926 C1929 2.984 . S
U1926 C1930 2.847 . S
U1926 C1943 2.882 . S
U1926 O1944 2.441 . S
U1926 O1945 2.420 . S
U1926 O1946 2.455 . S
U1926 O1947 2.449 . S
O1927 U1926 2.454 . S
O1927 C1929 1.353 . S
O1928 U1926 2.458 . S
O1928 C1929 1.286 . S
C1929 U1926 2.984 . S
C1929 O1927 1.353 . S
C1929 O1928 1.286 . S
C1929 C1931 1.363 . S
C1930 C1920 1.465 . S
C1930 U1926 2.847 . S
C1930 O1944 1.249 . S
C1930 O1945 1.202 . S
C1931 C1929 1.363 . S
C1931 C1933 1.408 . S
C1931 C1936 1.342 . S
C1932 C1933 1.310 . S
C1932 C1935 1.461 . S
C1932 H1952 0.932 . S
C1933 C1931 1.408 . S
C1933 C1932 1.310 . S
C1933 H1953 0.930 . S
C1934 C1935 1.474 . S
C1934 C1936 1.285 . S
C1934 H1954 0.929 . S
C1935 C1932 1.461 . S
C1935 C1934 1.474 . S
C1936 C1931 1.342 . S
C1936 C1934 1.285 . S
C1936 H1955 0.930 . S
C1937 C1940 1.424 . S
C1937 C1942 1.245 . S
C1937 C1943 1.428 . S
C1938 C1941 1.260 . S
C1938 C1942 1.477 . S
C1938 H1956 0.932 . S
C1939 C1940 1.384 . S
C1939 C1941 1.479 . S
C1939 H1957 0.929 . S
C1940 C1937 1.424 . S
C1940 C1939 1.384 . S
C1940 H1958 0.928 . S
C1941 C1938 1.260 . S
C1941 C1939 1.479 . S
C1942 C1937 1.245 . S
C1942 C1938 1.477 . S
C1942 H1959 0.932 . S
C1943 U1926 2.882 . S
C1943 C1937 1.428 . S
C1943 O1946 1.301 . S
C1943 O1947 1.282 . S
O1944 U1926 2.441 . S
O1944 C1930 1.249 . S
O1945 U1926 2.420 . S
O1945 C1930 1.202 . S
O1946 U1926 2.455 . S
O1946 C1943 1.301 . S
O1947 U1926 2.449 . S
O1947 C1943 1.282 . S
H1948 C1921 0.931 . S
H1949 C1923 0.929 . S
H1950 C1924 0.930 . S
H1951 C1925 0.931 . S
H1952 C1932 0.932 . S
H1953 C1933 0.930 . S
H1954 C1934 0.929 . S
H1955 C1936 0.930 . S
H1956 C1938 0.932 . S
H1957 C1939 0.929 . S
H1958 C1940 0.928 . S
H1959 C1942 0.932 . S
C1960 C1961 1.264 . S
C1960 C1965 1.479 . S
C1960 C1970 1.465 . S
C1961 C1960 1.264 . S
C1961 C1963 1.339 . S
C1961 H1988 0.931 . S
C1962 C1963 1.395 . S
C1962 C1964 1.320 . S
C1963 C1961 1.339 . S
C1963 C1962 1.395 . S
C1963 H1989 0.929 . S
C1964 C1962 1.320 . S
C1964 C1965 1.405 . S
C1964 H1990 0.930 . S
C1965 C1960 1.479 . S
C1965 C1964 1.405 . S
C1965 H1991 0.931 . S
U1966 O1967 2.454 . S
U1966 O1968 2.458 . S
U1966 C1969 2.984 . S
U1966 C1970 2.847 . S
U1966 C1983 2.882 . S
U1966 O1984 2.441 . S
U1966 O1985 2.420 . S
U1966 O1986 2.455 . S
U1966 O1987 2.449 . S
O1967 U1966 2.454 . S
O1967 C1969 1.353 . S
O1968 U1966 2.458 . S
O1968 C1969 1.286 . S
C1969 U1966 2.984 . S
C1969 O1967 1.353 . S
C1969 O1968 1.286 . S
C1969 C1971 1.363 . S
C1970 C1960 1.465 . S
C1970 U1966 2.847 . S
C1970 O1984 1.249 . S
C1970 O1985 1.202 . S
C1971 C1969 1.363 . S
C1971 C1973 1.408 . S
C1971 C1976 1.342 . S
C1972 C1973 1.310 . S
C1972 C1975 1.461 . S
C1972 H1992 0.932 . S
C1973 C1971 1.408 . S
C1973 C1972 1.310 . S
C1973 H1993 0.930 . S
C1974 C1975 1.474 . S
C1974 C1976 1.285 . S
C1974 H1994 0.929 . S
C1975 C1972 1.461 . S
C1975 C1974 1.474 . S
C1976 C1971 1.342 . S
C1976 C1974 1.285 . S
C1976 H1995 0.930 . S
C1977 C1980 1.424 . S
C1977 C1982 1.245 . S
C1977 C1983 1.428 . S
C1978 C1981 1.260 . S
C1978 C1982 1.477 . S
C1978 H1996 0.932 . S
C1979 C1980 1.384 . S
C1979 C1981 1.479 . S
C1979 H1997 0.929 . S
C1980 C1977 1.424 . S
C1980 C1979 1.384 . S
C1980 H1998 0.928 . S
C1981 C1978 1.260 . S
C1981 C1979 1.479 . S
C1982 C1977 1.245 . S
C1982 C1978 1.477 . S
C1982 H1999 0.932 . S
C1983 U1966 2.882 . S
C1983 C1977 1.428 . S
C1983 O1986 1.301 . S
C1983 O1987 1.282 . S
O1984 U1966 2.441 . S
O1984 C1970 1.249 . S
O1985 U1966 2.420 . S
O1985 C1970 1.202 . S
O1986 U1966 2.455 . S
O1986 C1983 1.301 . S
O1987 U1966 2.449 . S
O1987 C1983 1.282 . S
H1988 C1961 0.931 . S
H1989 C1963 0.929 . S
H1990 C1964 0.930 . S
H1991 C1965 0.931 . S
H1992 C1972 0.932 . S
H1993 C1973 0.930 . S
H1994 C1974 0.929 . S
H1995 C1976 0.930 . S
H1996 C1978 0.932 . S
H1997 C1979 0.929 . S
H1998 C1980 0.928 . S
H1999 C1982 0.932 . S
C2000 C2001 1.264 . S
C2000 C2005 1.479 . S
C2000 C2010 1.465 . S
C2001 C2000 1.264 . S
C2001 C2003 1.339 . S
C2001 H2028 0.931 . S
C2002 C2003 1.395 . S
C2002 C2004 1.320 . S
C2003 C2001 1.339 . S
C2003 C2002 1.395 . S
C2003 H2029 0.929 . S
C2004 C2002 1.320 . S
C2004 C2005 1.405 . S
C2004 H2030 0.930 . S
C2005 C2000 1.479 . S
C2005 C2004 1.405 . S
C2005 H2031 0.931 . S
U2006 O2007 2.454 . S
U2006 O2008 2.458 . S
U2006 C2009 2.984 . S
U2006 C2010 2.847 . S
U2006 C2023 2.882 . S
U2006 O2024 2.441 . S
U2006 O2025 2.420 . S
U2006 O2026 2.455 . S
U2006 O2027 2.449 . S
O2007 U2006 2.454 . S
O2007 C2009 1.353 . S
O2008 U2006 2.458 . S
O2008 C2009 1.286 . S
C2009 U2006 2.984 . S
C2009 O2007 1.353 . S
C2009 O2008 1.286 . S
C2009 C2011 1.363 . S
C2010 C2000 1.465 . S
C2010 U2006 2.847 . S
C2010 O2024 1.249 . S
C2010 O2025 1.202 . S
C2011 C2009 1.363 . S
C2011 C2013 1.408 . S
C2011 C2016 1.342 . S
C2012 C2013 1.310 . S
C2012 C2015 1.461 . S
C2012 H2032 0.932 . S
C2013 C2011 1.408 . S
C2013 C2012 1.310 . S
C2013 H2033 0.930 . S
C2014 C2015 1.474 . S
C2014 C2016 1.285 . S
C2014 H2034 0.929 . S
C2015 C2012 1.461 . S
C2015 C2014 1.474 . S
C2016 C2011 1.342 . S
C2016 C2014 1.285 . S
C2016 H2035 0.930 . S
C2017 C2020 1.424 . S
C2017 C2022 1.245 . S
C2017 C2023 1.428 . S
C2018 C2021 1.260 . S
C2018 C2022 1.477 . S
C2018 H2036 0.932 . S
C2019 C2020 1.384 . S
C2019 C2021 1.479 . S
C2019 H2037 0.929 . S
C2020 C2017 1.424 . S
C2020 C2019 1.384 . S
C2020 H2038 0.928 . S
C2021 C2018 1.260 . S
C2021 C2019 1.479 . S
C2022 C2017 1.245 . S
C2022 C2018 1.477 . S
C2022 H2039 0.932 . S
C2023 U2006 2.882 . S
C2023 C2017 1.428 . S
C2023 O2026 1.301 . S
C2023 O2027 1.282 . S
O2024 U2006 2.441 . S
O2024 C2010 1.249 . S
O2025 U2006 2.420 . S
O2025 C2010 1.202 . S
O2026 U2006 2.455 . S
O2026 C2023 1.301 . S
O2027 U2006 2.449 . S
O2027 C2023 1.282 . S
H2028 C2001 0.931 . S
H2029 C2003 0.929 . S
H2030 C2004 0.930 . S
H2031 C2005 0.931 . S
H2032 C2012 0.932 . S
H2033 C2013 0.930 . S
H2034 C2014 0.929 . S
H2035 C2016 0.930 . S
H2036 C2018 0.932 . S
H2037 C2019 0.929 . S
H2038 C2020 0.928 . S
H2039 C2022 0.932 . S
C2040 C2041 1.264 . S
C2040 C2045 1.479 . S
C2040 C2050 1.465 . S
C2041 C2040 1.264 . S
C2041 C2043 1.339 . S
C2041 H2068 0.931 . S
C2042 C2043 1.395 . S
C2042 C2044 1.320 . S
C2043 C2041 1.339 . S
C2043 C2042 1.395 . S
C2043 H2069 0.929 . S
C2044 C2042 1.320 . S
C2044 C2045 1.405 . S
C2044 H2070 0.930 . S
C2045 C2040 1.479 . S
C2045 C2044 1.405 . S
C2045 H2071 0.931 . S
U2046 O2047 2.454 . S
U2046 O2048 2.458 . S
U2046 C2049 2.984 . S
U2046 C2050 2.847 . S
U2046 C2063 2.882 . S
U2046 O2064 2.441 . S
U2046 O2065 2.420 . S
U2046 O2066 2.455 . S
U2046 O2067 2.449 . S
O2047 U2046 2.454 . S
O2047 C2049 1.353 . S
O2048 U2046 2.458 . S
O2048 C2049 1.286 . S
C2049 U2046 2.984 . S
C2049 O2047 1.353 . S
C2049 O2048 1.286 . S
C2049 C2051 1.363 . S
C2050 C2040 1.465 . S
C2050 U2046 2.847 . S
C2050 O2064 1.249 . S
C2050 O2065 1.202 . S
C2051 C2049 1.363 . S
C2051 C2053 1.408 . S
C2051 C2056 1.342 . S
C2052 C2053 1.310 . S
C2052 C2055 1.461 . S
C2052 H2072 0.932 . S
C2053 C2051 1.408 . S
C2053 C2052 1.310 . S
C2053 H2073 0.930 . S
C2054 C2055 1.474 . S
C2054 C2056 1.285 . S
C2054 H2074 0.929 . S
C2055 C2052 1.461 . S
C2055 C2054 1.474 . S
C2056 C2051 1.342 . S
C2056 C2054 1.285 . S
C2056 H2075 0.930 . S
C2057 C2060 1.424 . S
C2057 C2062 1.245 . S
C2057 C2063 1.428 . S
C2058 C2061 1.260 . S
C2058 C2062 1.477 . S
C2058 H2076 0.932 . S
C2059 C2060 1.384 . S
C2059 C2061 1.479 . S
C2059 H2077 0.929 . S
C2060 C2057 1.424 . S
C2060 C2059 1.384 . S
C2060 H2078 0.928 . S
C2061 C2058 1.260 . S
C2061 C2059 1.479 . S
C2062 C2057 1.245 . S
C2062 C2058 1.477 . S
C2062 H2079 0.932 . S
C2063 U2046 2.882 . S
C2063 C2057 1.428 . S
C2063 O2066 1.301 . S
C2063 O2067 1.282 . S
O2064 U2046 2.441 . S
O2064 C2050 1.249 . S
O2065 U2046 2.420 . S
O2065 C2050 1.202 . S
O2066 U2046 2.455 . S
O2066 C2063 1.301 . S
O2067 U2046 2.449 . S
O2067 C2063 1.282 . S
H2068 C2041 0.931 . S
H2069 C2043 0.929 . S
H2070 C2044 0.930 . S
H2071 C2045 0.931 . S
H2072 C2052 0.932 . S
H2073 C2053 0.930 . S
H2074 C2054 0.929 . S
H2075 C2056 0.930 . S
H2076 C2058 0.932 . S
H2077 C2059 0.929 . S
H2078 C2060 0.928 . S
H2079 C2062 0.932 . S
C2080 C2081 1.264 . S
C2080 C2085 1.479 . S
C2080 C2090 1.465 . S
C2081 C2080 1.264 . S
C2081 C2083 1.339 . S
C2081 H2108 0.931 . S
C2082 C2083 1.395 . S
C2082 C2084 1.320 . S
C2083 C2081 1.339 . S
C2083 C2082 1.395 . S
C2083 H2109 0.929 . S
C2084 C2082 1.320 . S
C2084 C2085 1.405 . S
C2084 H2110 0.930 . S
C2085 C2080 1.479 . S
C2085 C2084 1.405 . S
C2085 H2111 0.931 . S
U2086 O2087 2.454 . S
U2086 O2088 2.458 . S
U2086 C2089 2.984 . S
U2086 C2090 2.847 . S
U2086 C2103 2.882 . S
U2086 O2104 2.441 . S
U2086 O2105 2.420 . S
U2086 O2106 2.455 . S
U2086 O2107 2.449 . S
O2087 U2086 2.454 . S
O2087 C2089 1.353 . S
O2088 U2086 2.458 . S
O2088 C2089 1.286 . S
C2089 U2086 2.984 . S
C2089 O2087 1.353 . S
C2089 O2088 1.286 . S
C2089 C2091 1.363 . S
C2090 C2080 1.465 . S
C2090 U2086 2.847 . S
C2090 O2104 1.249 . S
C2090 O2105 1.202 . S
C2091 C2089 1.363 . S
C2091 C2093 1.408 . S
C2091 C2096 1.342 . S
C2092 C2093 1.310 . S
C2092 C2095 1.461 . S
C2092 H2112 0.932 . S
C2093 C2091 1.408 . S
C2093 C2092 1.310 . S
C2093 H2113 0.930 . S
C2094 C2095 1.474 . S
C2094 C2096 1.285 . S
C2094 H2114 0.929 . S
C2095 C2092 1.461 . S
C2095 C2094 1.474 . S
C2096 C2091 1.342 . S
C2096 C2094 1.285 . S
C2096 H2115 0.930 . S
C2097 C2100 1.424 . S
C2097 C2102 1.245 . S
C2097 C2103 1.428 . S
C2098 C2101 1.260 . S
C2098 C2102 1.477 . S
C2098 H2116 0.932 . S
C2099 C2100 1.384 . S
C2099 C2101 1.479 . S
C2099 H2117 0.929 . S
C2100 C2097 1.424 . S
C2100 C2099 1.384 . S
C2100 H2118 0.928 . S
C2101 C2098 1.260 . S
C2101 C2099 1.479 . S
C2102 C2097 1.245 . S
C2102 C2098 1.477 . S
C2102 H2119 0.932 . S
C2103 U2086 2.882 . S
C2103 C2097 1.428 . S
C2103 O2106 1.301 . S
C2103 O2107 1.282 . S
O2104 U2086 2.441 . S
O2104 C2090 1.249 . S
O2105 U2086 2.420 . S
O2105 C2090 1.202 . S
O2106 U2086 2.455 . S
O2106 C2103 1.301 . S
O2107 U2086 2.449 . S
O2107 C2103 1.282 . S
H2108 C2081 0.931 . S
H2109 C2083 0.929 . S
H2110 C2084 0.930 . S
H2111 C2085 0.931 . S
H2112 C2092 0.932 . S
H2113 C2093 0.930 . S
H2114 C2094 0.929 . S
H2115 C2096 0.930 . S
H2116 C2098 0.932 . S
H2117 C2099 0.929 . S
H2118 C2100 0.928 . S
H2119 C2102 0.932 . S
C2120 C2121 1.264 . S
C2120 C2125 1.479 . S
C2120 C2130 1.465 . S
C2121 C2120 1.264 . S
C2121 C2123 1.339 . S
C2121 H2148 0.931 . S
C2122 C2123 1.395 . S
C2122 C2124 1.320 . S
C2123 C2121 1.339 . S
C2123 C2122 1.395 . S
C2123 H2149 0.929 . S
C2124 C2122 1.320 . S
C2124 C2125 1.405 . S
C2124 H2150 0.930 . S
C2125 C2120 1.479 . S
C2125 C2124 1.405 . S
C2125 H2151 0.931 . S
U2126 O2127 2.454 . S
U2126 O2128 2.458 . S
U2126 C2129 2.984 . S
U2126 C2130 2.847 . S
U2126 C2143 2.882 . S
U2126 O2144 2.441 . S
U2126 O2145 2.420 . S
U2126 O2146 2.455 . S
U2126 O2147 2.449 . S
O2127 U2126 2.454 . S
O2127 C2129 1.353 . S
O2128 U2126 2.458 . S
O2128 C2129 1.286 . S
C2129 U2126 2.984 . S
C2129 O2127 1.353 . S
C2129 O2128 1.286 . S
C2129 C2131 1.363 . S
C2130 C2120 1.465 . S
C2130 U2126 2.847 . S
C2130 O2144 1.249 . S
C2130 O2145 1.202 . S
C2131 C2129 1.363 . S
C2131 C2133 1.408 . S
C2131 C2136 1.342 . S
C2132 C2133 1.310 . S
C2132 C2135 1.461 . S
C2132 H2152 0.932 . S
C2133 C2131 1.408 . S
C2133 C2132 1.310 . S
C2133 H2153 0.930 . S
C2134 C2135 1.474 . S
C2134 C2136 1.285 . S
C2134 H2154 0.929 . S
C2135 C2132 1.461 . S
C2135 C2134 1.474 . S
C2136 C2131 1.342 . S
C2136 C2134 1.285 . S
C2136 H2155 0.930 . S
C2137 C2140 1.424 . S
C2137 C2142 1.245 . S
C2137 C2143 1.428 . S
C2138 C2141 1.260 . S
C2138 C2142 1.477 . S
C2138 H2156 0.932 . S
C2139 C2140 1.384 . S
C2139 C2141 1.479 . S
C2139 H2157 0.929 . S
C2140 C2137 1.424 . S
C2140 C2139 1.384 . S
C2140 H2158 0.928 . S
C2141 C2138 1.260 . S
C2141 C2139 1.479 . S
C2142 C2137 1.245 . S
C2142 C2138 1.477 . S
C2142 H2159 0.932 . S
C2143 U2126 2.882 . S
C2143 C2137 1.428 . S
C2143 O2146 1.301 . S
C2143 O2147 1.282 . S
O2144 U2126 2.441 . S
O2144 C2130 1.249 . S
O2145 U2126 2.420 . S
O2145 C2130 1.202 . S
O2146 U2126 2.455 . S
O2146 C2143 1.301 . S
O2147 U2126 2.449 . S
O2147 C2143 1.282 . S
H2148 C2121 0.931 . S
H2149 C2123 0.929 . S
H2150 C2124 0.930 . S
H2151 C2125 0.931 . S
H2152 C2132 0.932 . S
H2153 C2133 0.930 . S
H2154 C2134 0.929 . S
H2155 C2136 0.930 . S
H2156 C2138 0.932 . S
H2157 C2139 0.929 . S
H2158 C2140 0.928 . S
H2159 C2142 0.932 . S
C2160 C2161 1.264 . S
C2160 C2165 1.479 . S
C2160 C2170 1.465 . S
C2161 C2160 1.264 . S
C2161 C2163 1.339 . S
C2161 H2188 0.931 . S
C2162 C2163 1.395 . S
C2162 C2164 1.320 . S
C2163 C2161 1.339 . S
C2163 C2162 1.395 . S
C2163 H2189 0.929 . S
C2164 C2162 1.320 . S
C2164 C2165 1.405 . S
C2164 H2190 0.930 . S
C2165 C2160 1.479 . S
C2165 C2164 1.405 . S
C2165 H2191 0.931 . S
U2166 O2167 2.454 . S
U2166 O2168 2.458 . S
U2166 C2169 2.984 . S
U2166 C2170 2.847 . S
U2166 C2183 2.882 . S
U2166 O2184 2.441 . S
U2166 O2185 2.420 . S
U2166 O2186 2.455 . S
U2166 O2187 2.449 . S
O2167 U2166 2.454 . S
O2167 C2169 1.353 . S
O2168 U2166 2.458 . S
O2168 C2169 1.286 . S
C2169 U2166 2.984 . S
C2169 O2167 1.353 . S
C2169 O2168 1.286 . S
C2169 C2171 1.363 . S
C2170 C2160 1.465 . S
C2170 U2166 2.847 . S
C2170 O2184 1.249 . S
C2170 O2185 1.202 . S
C2171 C2169 1.363 . S
C2171 C2173 1.408 . S
C2171 C2176 1.342 . S
C2172 C2173 1.310 . S
C2172 C2175 1.461 . S
C2172 H2192 0.932 . S
C2173 C2171 1.408 . S
C2173 C2172 1.310 . S
C2173 H2193 0.930 . S
C2174 C2175 1.474 . S
C2174 C2176 1.285 . S
C2174 H2194 0.929 . S
C2175 C2172 1.461 . S
C2175 C2174 1.474 . S
C2176 C2171 1.342 . S
C2176 C2174 1.285 . S
C2176 H2195 0.930 . S
C2177 C2180 1.424 . S
C2177 C2182 1.245 . S
C2177 C2183 1.428 . S
C2178 C2181 1.260 . S
C2178 C2182 1.477 . S
C2178 H2196 0.932 . S
C2179 C2180 1.384 . S
C2179 C2181 1.479 . S
C2179 H2197 0.929 . S
C2180 C2177 1.424 . S
C2180 C2179 1.384 . S
C2180 H2198 0.928 . S
C2181 C2178 1.260 . S
C2181 C2179 1.479 . S
C2182 C2177 1.245 . S
C2182 C2178 1.477 . S
C2182 H2199 0.932 . S
C2183 U2166 2.882 . S
C2183 C2177 1.428 . S
C2183 O2186 1.301 . S
C2183 O2187 1.282 . S
O2184 U2166 2.441 . S
O2184 C2170 1.249 . S
O2185 U2166 2.420 . S
O2185 C2170 1.202 . S
O2186 U2166 2.455 . S
O2186 C2183 1.301 . S
O2187 U2166 2.449 . S
O2187 C2183 1.282 . S
H2188 C2161 0.931 . S
H2189 C2163 0.929 . S
H2190 C2164 0.930 . S
H2191 C2165 0.931 . S
H2192 C2172 0.932 . S
H2193 C2173 0.930 . S
H2194 C2174 0.929 . S
H2195 C2176 0.930 . S
H2196 C2178 0.932 . S
H2197 C2179 0.929 . S
H2198 C2180 0.928 . S
H2199 C2182 0.932 . S
C2200 C2201 1.264 . S
C2200 C2205 1.479 . S
C2200 C2210 1.465 . S
C2201 C2200 1.264 . S
C2201 C2203 1.339 . S
C2201 H2228 0.931 . S
C2202 C2203 1.395 . S
C2202 C2204 1.320 . S
C2203 C2201 1.339 . S
C2203 C2202 1.395 . S
C2203 H2229 0.929 . S
C2204 C2202 1.320 . S
C2204 C2205 1.405 . S
C2204 H2230 0.930 . S
C2205 C2200 1.479 . S
C2205 C2204 1.405 . S
C2205 H2231 0.931 . S
U2206 O2207 2.454 . S
U2206 O2208 2.458 . S
U2206 C2209 2.984 . S
U2206 C2210 2.847 . S
U2206 C2223 2.882 . S
U2206 O2224 2.441 . S
U2206 O2225 2.420 . S
U2206 O2226 2.455 . S
U2206 O2227 2.449 . S
O2207 U2206 2.454 . S
O2207 C2209 1.353 . S
O2208 U2206 2.458 . S
O2208 C2209 1.286 . S
C2209 U2206 2.984 . S
C2209 O2207 1.353 . S
C2209 O2208 1.286 . S
C2209 C2211 1.363 . S
C2210 C2200 1.465 . S
C2210 U2206 2.847 . S
C2210 O2224 1.249 . S
C2210 O2225 1.202 . S
C2211 C2209 1.363 . S
C2211 C2213 1.408 . S
C2211 C2216 1.342 . S
C2212 C2213 1.310 . S
C2212 C2215 1.461 . S
C2212 H2232 0.932 . S
C2213 C2211 1.408 . S
C2213 C2212 1.310 . S
C2213 H2233 0.930 . S
C2214 C2215 1.474 . S
C2214 C2216 1.285 . S
C2214 H2234 0.929 . S
C2215 C2212 1.461 . S
C2215 C2214 1.474 . S
C2216 C2211 1.342 . S
C2216 C2214 1.285 . S
C2216 H2235 0.930 . S
C2217 C2220 1.424 . S
C2217 C2222 1.245 . S
C2217 C2223 1.428 . S
C2218 C2221 1.260 . S
C2218 C2222 1.477 . S
C2218 H2236 0.932 . S
C2219 C2220 1.384 . S
C2219 C2221 1.479 . S
C2219 H2237 0.929 . S
C2220 C2217 1.424 . S
C2220 C2219 1.384 . S
C2220 H2238 0.928 . S
C2221 C2218 1.260 . S
C2221 C2219 1.479 . S
C2222 C2217 1.245 . S
C2222 C2218 1.477 . S
C2222 H2239 0.932 . S
C2223 U2206 2.882 . S
C2223 C2217 1.428 . S
C2223 O2226 1.301 . S
C2223 O2227 1.282 . S
O2224 U2206 2.441 . S
O2224 C2210 1.249 . S
O2225 U2206 2.420 . S
O2225 C2210 1.202 . S
O2226 U2206 2.455 . S
O2226 C2223 1.301 . S
O2227 U2206 2.449 . S
O2227 C2223 1.282 . S
H2228 C2201 0.931 . S
H2229 C2203 0.929 . S
H2230 C2204 0.930 . S
H2231 C2205 0.931 . S
H2232 C2212 0.932 . S
H2233 C2213 0.930 . S
H2234 C2214 0.929 . S
H2235 C2216 0.930 . S
H2236 C2218 0.932 . S
H2237 C2219 0.929 . S
H2238 C2220 0.928 . S
H2239 C2222 0.932 . S
C2240 C2241 1.264 . S
C2240 C2245 1.479 . S
C2240 C2250 1.465 . S
C2241 C2240 1.264 . S
C2241 C2243 1.339 . S
C2241 H2268 0.931 . S
C2242 C2243 1.395 . S
C2242 C2244 1.320 . S
C2243 C2241 1.339 . S
C2243 C2242 1.395 . S
C2243 H2269 0.929 . S
C2244 C2242 1.320 . S
C2244 C2245 1.405 . S
C2244 H2270 0.930 . S
C2245 C2240 1.479 . S
C2245 C2244 1.405 . S
C2245 H2271 0.931 . S
U2246 O2247 2.454 . S
U2246 O2248 2.458 . S
U2246 C2249 2.984 . S
U2246 C2250 2.847 . S
U2246 C2263 2.882 . S
U2246 O2264 2.441 . S
U2246 O2265 2.420 . S
U2246 O2266 2.455 . S
U2246 O2267 2.449 . S
O2247 U2246 2.454 . S
O2247 C2249 1.353 . S
O2248 U2246 2.458 . S
O2248 C2249 1.286 . S
C2249 U2246 2.984 . S
C2249 O2247 1.353 . S
C2249 O2248 1.286 . S
C2249 C2251 1.363 . S
C2250 C2240 1.465 . S
C2250 U2246 2.847 . S
C2250 O2264 1.249 . S
C2250 O2265 1.202 . S
C2251 C2249 1.363 . S
C2251 C2253 1.408 . S
C2251 C2256 1.342 . S
C2252 C2253 1.310 . S
C2252 C2255 1.461 . S
C2252 H2272 0.932 . S
C2253 C2251 1.408 . S
C2253 C2252 1.310 . S
C2253 H2273 0.930 . S
C2254 C2255 1.474 . S
C2254 C2256 1.285 . S
C2254 H2274 0.929 . S
C2255 C2252 1.461 . S
C2255 C2254 1.474 . S
C2256 C2251 1.342 . S
C2256 C2254 1.285 . S
C2256 H2275 0.930 . S
C2257 C2260 1.424 . S
C2257 C2262 1.245 . S
C2257 C2263 1.428 . S
C2258 C2261 1.260 . S
C2258 C2262 1.477 . S
C2258 H2276 0.932 . S
C2259 C2260 1.384 . S
C2259 C2261 1.479 . S
C2259 H2277 0.929 . S
C2260 C2257 1.424 . S
C2260 C2259 1.384 . S
C2260 H2278 0.928 . S
C2261 C2258 1.260 . S
C2261 C2259 1.479 . S
C2262 C2257 1.245 . S
C2262 C2258 1.477 . S
C2262 H2279 0.932 . S
C2263 U2246 2.882 . S
C2263 C2257 1.428 . S
C2263 O2266 1.301 . S
C2263 O2267 1.282 . S
O2264 U2246 2.441 . S
O2264 C2250 1.249 . S
O2265 U2246 2.420 . S
O2265 C2250 1.202 . S
O2266 U2246 2.455 . S
O2266 C2263 1.301 . S
O2267 U2246 2.449 . S
O2267 C2263 1.282 . S
H2268 C2241 0.931 . S
H2269 C2243 0.929 . S
H2270 C2244 0.930 . S
H2271 C2245 0.931 . S
H2272 C2252 0.932 . S
H2273 C2253 0.930 . S
H2274 C2254 0.929 . S
H2275 C2256 0.930 . S
H2276 C2258 0.932 . S
H2277 C2259 0.929 . S
H2278 C2260 0.928 . S
H2279 C2262 0.932 . S
C2280 C2281 1.264 . S
C2280 C2285 1.479 . S
C2280 C2290 1.465 . S
C2281 C2280 1.264 . S
C2281 C2283 1.339 . S
C2281 H2308 0.931 . S
C2282 C2283 1.395 . S
C2282 C2284 1.320 . S
C2283 C2281 1.339 . S
C2283 C2282 1.395 . S
C2283 H2309 0.929 . S
C2284 C2282 1.320 . S
C2284 C2285 1.405 . S
C2284 H2310 0.930 . S
C2285 C2280 1.479 . S
C2285 C2284 1.405 . S
C2285 H2311 0.931 . S
U2286 O2287 2.454 . S
U2286 O2288 2.458 . S
U2286 C2289 2.984 . S
U2286 C2290 2.847 . S
U2286 C2303 2.882 . S
U2286 O2304 2.441 . S
U2286 O2305 2.420 . S
U2286 O2306 2.455 . S
U2286 O2307 2.449 . S
O2287 U2286 2.454 . S
O2287 C2289 1.353 . S
O2288 U2286 2.458 . S
O2288 C2289 1.286 . S
C2289 U2286 2.984 . S
C2289 O2287 1.353 . S
C2289 O2288 1.286 . S
C2289 C2291 1.363 . S
C2290 C2280 1.465 . S
C2290 U2286 2.847 . S
C2290 O2304 1.249 . S
C2290 O2305 1.202 . S
C2291 C2289 1.363 . S
C2291 C2293 1.408 . S
C2291 C2296 1.342 . S
C2292 C2293 1.310 . S
C2292 C2295 1.461 . S
C2292 H2312 0.932 . S
C2293 C2291 1.408 . S
C2293 C2292 1.310 . S
C2293 H2313 0.930 . S
C2294 C2295 1.474 . S
C2294 C2296 1.285 . S
C2294 H2314 0.929 . S
C2295 C2292 1.461 . S
C2295 C2294 1.474 . S
C2296 C2291 1.342 . S
C2296 C2294 1.285 . S
C2296 H2315 0.930 . S
C2297 C2300 1.424 . S
C2297 C2302 1.245 . S
C2297 C2303 1.428 . S
C2298 C2301 1.260 . S
C2298 C2302 1.477 . S
C2298 H2316 0.932 . S
C2299 C2300 1.384 . S
C2299 C2301 1.479 . S
C2299 H2317 0.929 . S
C2300 C2297 1.424 . S
C2300 C2299 1.384 . S
C2300 H2318 0.928 . S
C2301 C2298 1.260 . S
C2301 C2299 1.479 . S
C2302 C2297 1.245 . S
C2302 C2298 1.477 . S
C2302 H2319 0.932 . S
C2303 U2286 2.882 . S
C2303 C2297 1.428 . S
C2303 O2306 1.301 . S
C2303 O2307 1.282 . S
O2304 U2286 2.441 . S
O2304 C2290 1.249 . S
O2305 U2286 2.420 . S
O2305 C2290 1.202 . S
O2306 U2286 2.455 . S
O2306 C2303 1.301 . S
O2307 U2286 2.449 . S
O2307 C2303 1.282 . S
H2308 C2281 0.931 . S
H2309 C2283 0.929 . S
H2310 C2284 0.930 . S
H2311 C2285 0.931 . S
H2312 C2292 0.932 . S
H2313 C2293 0.930 . S
H2314 C2294 0.929 . S
H2315 C2296 0.930 . S
H2316 C2298 0.932 . S
H2317 C2299 0.929 . S
H2318 C2300 0.928 . S
H2319 C2302 0.932 . S
C2320 C2321 1.264 . S
C2320 C2325 1.479 . S
C2320 C2330 1.465 . S
C2321 C2320 1.264 . S
C2321 C2323 1.339 . S
C2321 H2348 0.931 . S
C2322 C2323 1.395 . S
C2322 C2324 1.320 . S
C2323 C2321 1.339 . S
C2323 C2322 1.395 . S
C2323 H2349 0.929 . S
C2324 C2322 1.320 . S
C2324 C2325 1.405 . S
C2324 H2350 0.930 . S
C2325 C2320 1.479 . S
C2325 C2324 1.405 . S
C2325 H2351 0.931 . S
U2326 O2327 2.454 . S
U2326 O2328 2.458 . S
U2326 C2329 2.984 . S
U2326 C2330 2.847 . S
U2326 C2343 2.882 . S
U2326 O2344 2.441 . S
U2326 O2345 2.420 . S
U2326 O2346 2.455 . S
U2326 O2347 2.449 . S
O2327 U2326 2.454 . S
O2327 C2329 1.353 . S
O2328 U2326 2.458 . S
O2328 C2329 1.286 . S
C2329 U2326 2.984 . S
C2329 O2327 1.353 . S
C2329 O2328 1.286 . S
C2329 C2331 1.363 . S
C2330 C2320 1.465 . S
C2330 U2326 2.847 . S
C2330 O2344 1.249 . S
C2330 O2345 1.202 . S
C2331 C2329 1.363 . S
C2331 C2333 1.408 . S
C2331 C2336 1.342 . S
C2332 C2333 1.310 . S
C2332 C2335 1.461 . S
C2332 H2352 0.932 . S
C2333 C2331 1.408 . S
C2333 C2332 1.310 . S
C2333 H2353 0.930 . S
C2334 C2335 1.474 . S
C2334 C2336 1.285 . S
C2334 H2354 0.929 . S
C2335 C2332 1.461 . S
C2335 C2334 1.474 . S
C2336 C2331 1.342 . S
C2336 C2334 1.285 . S
C2336 H2355 0.930 . S
C2337 C2340 1.424 . S
C2337 C2342 1.245 . S
C2337 C2343 1.428 . S
C2338 C2341 1.260 . S
C2338 C2342 1.477 . S
C2338 H2356 0.932 . S
C2339 C2340 1.384 . S
C2339 C2341 1.479 . S
C2339 H2357 0.929 . S
C2340 C2337 1.424 . S
C2340 C2339 1.384 . S
C2340 H2358 0.928 . S
C2341 C2338 1.260 . S
C2341 C2339 1.479 . S
C2342 C2337 1.245 . S
C2342 C2338 1.477 . S
C2342 H2359 0.932 . S
C2343 U2326 2.882 . S
C2343 C2337 1.428 . S
C2343 O2346 1.301 . S
C2343 O2347 1.282 . S
O2344 U2326 2.441 . S
O2344 C2330 1.249 . S
O2345 U2326 2.420 . S
O2345 C2330 1.202 . S
O2346 U2326 2.455 . S
O2346 C2343 1.301 . S
O2347 U2326 2.449 . S
O2347 C2343 1.282 . S
H2348 C2321 0.931 . S
H2349 C2323 0.929 . S
H2350 C2324 0.930 . S
H2351 C2325 0.931 . S
H2352 C2332 0.932 . S
H2353 C2333 0.930 . S
H2354 C2334 0.929 . S
H2355 C2336 0.930 . S
H2356 C2338 0.932 . S
H2357 C2339 0.929 . S
H2358 C2340 0.928 . S
H2359 C2342 0.932 . S
C2360 C2361 1.264 . S
C2360 C2365 1.479 . S
C2360 C2370 1.465 . S
C2361 C2360 1.264 . S
C2361 C2363 1.339 . S
C2361 H2388 0.931 . S
C2362 C2363 1.395 . S
C2362 C2364 1.320 . S
C2363 C2361 1.339 . S
C2363 C2362 1.395 . S
C2363 H2389 0.929 . S
C2364 C2362 1.320 . S
C2364 C2365 1.405 . S
C2364 H2390 0.930 . S
C2365 C2360 1.479 . S
C2365 C2364 1.405 . S
C2365 H2391 0.931 . S
U2366 O2367 2.454 . S
U2366 O2368 2.458 . S
U2366 C2369 2.984 . S
U2366 C2370 2.847 . S
U2366 C2383 2.882 . S
U2366 O2384 2.441 . S
U2366 O2385 2.420 . S
U2366 O2386 2.455 . S
U2366 O2387 2.449 . S
O2367 U2366 2.454 . S
O2367 C2369 1.353 . S
O2368 U2366 2.458 . S
O2368 C2369 1.286 . S
C2369 U2366 2.984 . S
C2369 O2367 1.353 . S
C2369 O2368 1.286 . S
C2369 C2371 1.363 . S
C2370 C2360 1.465 . S
C2370 U2366 2.847 . S
C2370 O2384 1.249 . S
C2370 O2385 1.202 . S
C2371 C2369 1.363 . S
C2371 C2373 1.408 . S
C2371 C2376 1.342 . S
C2372 C2373 1.310 . S
C2372 C2375 1.461 . S
C2372 H2392 0.932 . S
C2373 C2371 1.408 . S
C2373 C2372 1.310 . S
C2373 H2393 0.930 . S
C2374 C2375 1.474 . S
C2374 C2376 1.285 . S
C2374 H2394 0.929 . S
C2375 C2372 1.461 . S
C2375 C2374 1.474 . S
C2376 C2371 1.342 . S
C2376 C2374 1.285 . S
C2376 H2395 0.930 . S
C2377 C2380 1.424 . S
C2377 C2382 1.245 . S
C2377 C2383 1.428 . S
C2378 C2381 1.260 . S
C2378 C2382 1.477 . S
C2378 H2396 0.932 . S
C2379 C2380 1.384 . S
C2379 C2381 1.479 . S
C2379 H2397 0.929 . S
C2380 C2377 1.424 . S
C2380 C2379 1.384 . S
C2380 H2398 0.928 . S
C2381 C2378 1.260 . S
C2381 C2379 1.479 . S
C2382 C2377 1.245 . S
C2382 C2378 1.477 . S
C2382 H2399 0.932 . S
C2383 U2366 2.882 . S
C2383 C2377 1.428 . S
C2383 O2386 1.301 . S
C2383 O2387 1.282 . S
O2384 U2366 2.441 . S
O2384 C2370 1.249 . S
O2385 U2366 2.420 . S
O2385 C2370 1.202 . S
O2386 U2366 2.455 . S
O2386 C2383 1.301 . S
O2387 U2366 2.449 . S
O2387 C2383 1.282 . S
H2388 C2361 0.931 . S
H2389 C2363 0.929 . S
H2390 C2364 0.930 . S
H2391 C2365 0.931 . S
H2392 C2372 0.932 . S
H2393 C2373 0.930 . S
H2394 C2374 0.929 . S
H2395 C2376 0.930 . S
H2396 C2378 0.932 . S
H2397 C2379 0.929 . S
H2398 C2380 0.928 . S
H2399 C2382 0.932 . S
C2400 C2401 1.264 . S
C2400 C2405 1.479 . S
C2400 C2410 1.465 . S
C2401 C2400 1.264 . S
C2401 C2403 1.339 . S
C2401 H2428 0.931 . S
C2402 C2403 1.395 . S
C2402 C2404 1.320 . S
C2403 C2401 1.339 . S
C2403 C2402 1.395 . S
C2403 H2429 0.929 . S
C2404 C2402 1.320 . S
C2404 C2405 1.405 . S
C2404 H2430 0.930 . S
C2405 C2400 1.479 . S
C2405 C2404 1.405 . S
C2405 H2431 0.931 . S
U2406 O2407 2.454 . S
U2406 O2408 2.458 . S
U2406 C2409 2.984 . S
U2406 C2410 2.847 . S
U2406 C2423 2.882 . S
U2406 O2424 2.441 . S
U2406 O2425 2.420 . S
U2406 O2426 2.455 . S
U2406 O2427 2.449 . S
O2407 U2406 2.454 . S
O2407 C2409 1.353 . S
O2408 U2406 2.458 . S
O2408 C2409 1.286 . S
C2409 U2406 2.984 . S
C2409 O2407 1.353 . S
C2409 O2408 1.286 . S
C2409 C2411 1.363 . S
C2410 C2400 1.465 . S
C2410 U2406 2.847 . S
C2410 O2424 1.249 . S
C2410 O2425 1.202 . S
C2411 C2409 1.363 . S
C2411 C2413 1.408 . S
C2411 C2416 1.342 . S
C2412 C2413 1.310 . S
C2412 C2415 1.461 . S
C2412 H2432 0.932 . S
C2413 C2411 1.408 . S
C2413 C2412 1.310 . S
C2413 H2433 0.930 . S
C2414 C2415 1.474 . S
C2414 C2416 1.285 . S
C2414 H2434 0.929 . S
C2415 C2412 1.461 . S
C2415 C2414 1.474 . S
C2416 C2411 1.342 . S
C2416 C2414 1.285 . S
C2416 H2435 0.930 . S
C2417 C2420 1.424 . S
C2417 C2422 1.245 . S
C2417 C2423 1.428 . S
C2418 C2421 1.260 . S
C2418 C2422 1.477 . S
C2418 H2436 0.932 . S
C2419 C2420 1.384 . S
C2419 C2421 1.479 . S
C2419 H2437 0.929 . S
C2420 C2417 1.424 . S
C2420 C2419 1.384 . S
C2420 H2438 0.928 . S
C2421 C2418 1.260 . S
C2421 C2419 1.479 . S
C2422 C2417 1.245 . S
C2422 C2418 1.477 . S
C2422 H2439 0.932 . S
C2423 U2406 2.882 . S
C2423 C2417 1.428 . S
C2423 O2426 1.301 . S
C2423 O2427 1.282 . S
O2424 U2406 2.441 . S
O2424 C2410 1.249 . S
O2425 U2406 2.420 . S
O2425 C2410 1.202 . S
O2426 U2406 2.455 . S
O2426 C2423 1.301 . S
O2427 U2406 2.449 . S
O2427 C2423 1.282 . S
H2428 C2401 0.931 . S
H2429 C2403 0.929 . S
H2430 C2404 0.930 . S
H2431 C2405 0.931 . S
H2432 C2412 0.932 . S
H2433 C2413 0.930 . S
H2434 C2414 0.929 . S
H2435 C2416 0.930 . S
H2436 C2418 0.932 . S
H2437 C2419 0.929 . S
H2438 C2420 0.928 . S
H2439 C2422 0.932 . S
C2440 C2441 1.264 . S
C2440 C2445 1.479 . S
C2440 C2450 1.465 . S
C2441 C2440 1.264 . S
C2441 C2443 1.339 . S
C2441 H2468 0.931 . S
C2442 C2443 1.395 . S
C2442 C2444 1.320 . S
C2443 C2441 1.339 . S
C2443 C2442 1.395 . S
C2443 H2469 0.929 . S
C2444 C2442 1.320 . S
C2444 C2445 1.405 . S
C2444 H2470 0.930 . S
C2445 C2440 1.479 . S
C2445 C2444 1.405 . S
C2445 H2471 0.931 . S
U2446 O2447 2.454 . S
U2446 O2448 2.458 . S
U2446 C2449 2.984 . S
U2446 C2450 2.847 . S
U2446 C2463 2.882 . S
U2446 O2464 2.441 . S
U2446 O2465 2.420 . S
U2446 O2466 2.455 . S
U2446 O2467 2.449 . S
O2447 U2446 2.454 . S
O2447 C2449 1.353 . S
O2448 U2446 2.458 . S
O2448 C2449 1.286 . S
C2449 U2446 2.984 . S
C2449 O2447 1.353 . S
C2449 O2448 1.286 . S
C2449 C2451 1.363 . S
C2450 C2440 1.465 . S
C2450 U2446 2.847 . S
C2450 O2464 1.249 . S
C2450 O2465 1.202 . S
C2451 C2449 1.363 . S
C2451 C2453 1.408 . S
C2451 C2456 1.342 . S
C2452 C2453 1.310 . S
C2452 C2455 1.461 . S
C2452 H2472 0.932 . S
C2453 C2451 1.408 . S
C2453 C2452 1.310 . S
C2453 H2473 0.930 . S
C2454 C2455 1.474 . S
C2454 C2456 1.285 . S
C2454 H2474 0.929 . S
C2455 C2452 1.461 . S
C2455 C2454 1.474 . S
C2456 C2451 1.342 . S
C2456 C2454 1.285 . S
C2456 H2475 0.930 . S
C2457 C2460 1.424 . S
C2457 C2462 1.245 . S
C2457 C2463 1.428 . S
C2458 C2461 1.260 . S
C2458 C2462 1.477 . S
C2458 H2476 0.932 . S
C2459 C2460 1.384 . S
C2459 C2461 1.479 . S
C2459 H2477 0.929 . S
C2460 C2457 1.424 . S
C2460 C2459 1.384 . S
C2460 H2478 0.928 . S
C2461 C2458 1.260 . S
C2461 C2459 1.479 . S
C2462 C2457 1.245 . S
C2462 C2458 1.477 . S
C2462 H2479 0.932 . S
C2463 U2446 2.882 . S
C2463 C2457 1.428 . S
C2463 O2466 1.301 . S
C2463 O2467 1.282 . S
O2464 U2446 2.441 . S
O2464 C2450 1.249 . S
O2465 U2446 2.420 . S
O2465 C2450 1.202 . S
O2466 U2446 2.455 . S
O2466 C2463 1.301 . S
O2467 U2446 2.449 . S
O2467 C2463 1.282 . S
H2468 C2441 0.931 . S
H2469 C2443 0.929 . S
H2470 C2444 0.930 . S
H2471 C2445 0.931 . S
H2472 C2452 0.932 . S
H2473 C2453 0.930 . S
H2474 C2454 0.929 . S
H2475 C2456 0.930 . S
H2476 C2458 0.932 . S
H2477 C2459 0.929 . S
H2478 C2460 0.928 . S
H2479 C2462 0.932 . S
C2480 C2481 1.264 . S
C2480 C2485 1.479 . S
C2480 C2490 1.465 . S
C2481 C2480 1.264 . S
C2481 C2483 1.339 . S
C2481 H2508 0.931 . S
C2482 C2483 1.395 . S
C2482 C2484 1.320 . S
C2483 C2481 1.339 . S
C2483 C2482 1.395 . S
C2483 H2509 0.929 . S
C2484 C2482 1.320 . S
C2484 C2485 1.405 . S
C2484 H2510 0.930 . S
C2485 C2480 1.479 . S
C2485 C2484 1.405 . S
C2485 H2511 0.931 . S
U2486 O2487 2.454 . S
U2486 O2488 2.458 . S
U2486 C2489 2.984 . S
U2486 C2490 2.847 . S
U2486 C2503 2.882 . S
U2486 O2504 2.441 . S
U2486 O2505 2.420 . S
U2486 O2506 2.455 . S
U2486 O2507 2.449 . S
O2487 U2486 2.454 . S
O2487 C2489 1.353 . S
O2488 U2486 2.458 . S
O2488 C2489 1.286 . S
C2489 U2486 2.984 . S
C2489 O2487 1.353 . S
C2489 O2488 1.286 . S
C2489 C2491 1.363 . S
C2490 C2480 1.465 . S
C2490 U2486 2.847 . S
C2490 O2504 1.249 . S
C2490 O2505 1.202 . S
C2491 C2489 1.363 . S
C2491 C2493 1.408 . S
C2491 C2496 1.342 . S
C2492 C2493 1.310 . S
C2492 C2495 1.461 . S
C2492 H2512 0.932 . S
C2493 C2491 1.408 . S
C2493 C2492 1.310 . S
C2493 H2513 0.930 . S
C2494 C2495 1.474 . S
C2494 C2496 1.285 . S
C2494 H2514 0.929 . S
C2495 C2492 1.461 . S
C2495 C2494 1.474 . S
C2496 C2491 1.342 . S
C2496 C2494 1.285 . S
C2496 H2515 0.930 . S
C2497 C2500 1.424 . S
C2497 C2502 1.245 . S
C2497 C2503 1.428 . S
C2498 C2501 1.260 . S
C2498 C2502 1.477 . S
C2498 H2516 0.932 . S
C2499 C2500 1.384 . S
C2499 C2501 1.479 . S
C2499 H2517 0.929 . S
C2500 C2497 1.424 . S
C2500 C2499 1.384 . S
C2500 H2518 0.928 . S
C2501 C2498 1.260 . S
C2501 C2499 1.479 . S
C2502 C2497 1.245 . S
C2502 C2498 1.477 . S
C2502 H2519 0.932 . S
C2503 U2486 2.882 . S
C2503 C2497 1.428 . S
C2503 O2506 1.301 . S
C2503 O2507 1.282 . S
O2504 U2486 2.441 . S
O2504 C2490 1.249 . S
O2505 U2486 2.420 . S
O2505 C2490 1.202 . S
O2506 U2486 2.455 . S
O2506 C2503 1.301 . S
O2507 U2486 2.449 . S
O2507 C2503 1.282 . S
H2508 C2481 0.931 . S
H2509 C2483 0.929 . S
H2510 C2484 0.930 . S
H2511 C2485 0.931 . S
H2512 C2492 0.932 . S
H2513 C2493 0.930 . S
H2514 C2494 0.929 . S
H2515 C2496 0.930 . S
H2516 C2498 0.932 . S
H2517 C2499 0.929 . S
H2518 C2500 0.928 . S
H2519 C2502 0.932 . S
C2520 C2521 1.264 . S
C2520 C2525 1.479 . S
C2520 C2530 1.465 . S
C2521 C2520 1.264 . S
C2521 C2523 1.339 . S
C2521 H2548 0.931 . S
C2522 C2523 1.395 . S
C2522 C2524 1.320 . S
C2523 C2521 1.339 . S
C2523 C2522 1.395 . S
C2523 H2549 0.929 . S
C2524 C2522 1.320 . S
C2524 C2525 1.405 . S
C2524 H2550 0.930 . S
C2525 C2520 1.479 . S
C2525 C2524 1.405 . S
C2525 H2551 0.931 . S
U2526 O2527 2.454 . S
U2526 O2528 2.458 . S
U2526 C2529 2.984 . S
U2526 C2530 2.847 . S
U2526 C2543 2.882 . S
U2526 O2544 2.441 . S
U2526 O2545 2.420 . S
U2526 O2546 2.455 . S
U2526 O2547 2.449 . S
O2527 U2526 2.454 . S
O2527 C2529 1.353 . S
O2528 U2526 2.458 . S
O2528 C2529 1.286 . S
C2529 U2526 2.984 . S
C2529 O2527 1.353 . S
C2529 O2528 1.286 . S
C2529 C2531 1.363 . S
C2530 C2520 1.465 . S
C2530 U2526 2.847 . S
C2530 O2544 1.249 . S
C2530 O2545 1.202 . S
C2531 C2529 1.363 . S
C2531 C2533 1.408 . S
C2531 C2536 1.342 . S
C2532 C2533 1.310 . S
C2532 C2535 1.461 . S
C2532 H2552 0.932 . S
C2533 C2531 1.408 . S
C2533 C2532 1.310 . S
C2533 H2553 0.930 . S
C2534 C2535 1.474 . S
C2534 C2536 1.285 . S
C2534 H2554 0.929 . S
C2535 C2532 1.461 . S
C2535 C2534 1.474 . S
C2536 C2531 1.342 . S
C2536 C2534 1.285 . S
C2536 H2555 0.930 . S
C2537 C2540 1.424 . S
C2537 C2542 1.245 . S
C2537 C2543 1.428 . S
C2538 C2541 1.260 . S
C2538 C2542 1.477 . S
C2538 H2556 0.932 . S
C2539 C2540 1.384 . S
C2539 C2541 1.479 . S
C2539 H2557 0.929 . S
C2540 C2537 1.424 . S
C2540 C2539 1.384 . S
C2540 H2558 0.928 . S
C2541 C2538 1.260 . S
C2541 C2539 1.479 . S
C2542 C2537 1.245 . S
C2542 C2538 1.477 . S
C2542 H2559 0.932 . S
C2543 U2526 2.882 . S
C2543 C2537 1.428 . S
C2543 O2546 1.301 . S
C2543 O2547 1.282 . S
O2544 U2526 2.441 . S
O2544 C2530 1.249 . S
O2545 U2526 2.420 . S
O2545 C2530 1.202 . S
O2546 U2526 2.455 . S
O2546 C2543 1.301 . S
O2547 U2526 2.449 . S
O2547 C2543 1.282 . S
H2548 C2521 0.931 . S
H2549 C2523 0.929 . S
H2550 C2524 0.930 . S
H2551 C2525 0.931 . S
H2552 C2532 0.932 . S
H2553 C2533 0.930 . S
H2554 C2534 0.929 . S
H2555 C2536 0.930 . S
H2556 C2538 0.932 . S
H2557 C2539 0.929 . S
H2558 C2540 0.928 . S
H2559 C2542 0.932 . S
C2560 C2561 1.264 . S
C2560 C2565 1.479 . S
C2560 C2570 1.465 . S
C2561 C2560 1.264 . S
C2561 C2563 1.339 . S
C2561 H2588 0.931 . S
C2562 C2563 1.395 . S
C2562 C2564 1.320 . S
C2563 C2561 1.339 . S
C2563 C2562 1.395 . S
C2563 H2589 0.929 . S
C2564 C2562 1.320 . S
C2564 C2565 1.405 . S
C2564 H2590 0.930 . S
C2565 C2560 1.479 . S
C2565 C2564 1.405 . S
C2565 H2591 0.931 . S
U2566 O2567 2.454 . S
U2566 O2568 2.458 . S
U2566 C2569 2.984 . S
U2566 C2570 2.847 . S
U2566 C2583 2.882 . S
U2566 O2584 2.441 . S
U2566 O2585 2.420 . S
U2566 O2586 2.455 . S
U2566 O2587 2.449 . S
O2567 U2566 2.454 . S
O2567 C2569 1.353 . S
O2568 U2566 2.458 . S
O2568 C2569 1.286 . S
C2569 U2566 2.984 . S
C2569 O2567 1.353 . S
C2569 O2568 1.286 . S
C2569 C2571 1.363 . S
C2570 C2560 1.465 . S
C2570 U2566 2.847 . S
C2570 O2584 1.249 . S
C2570 O2585 1.202 . S
C2571 C2569 1.363 . S
C2571 C2573 1.408 . S
C2571 C2576 1.342 . S
C2572 C2573 1.310 . S
C2572 C2575 1.461 . S
C2572 H2592 0.932 . S
C2573 C2571 1.408 . S
C2573 C2572 1.310 . S
C2573 H2593 0.930 . S
C2574 C2575 1.474 . S
C2574 C2576 1.285 . S
C2574 H2594 0.929 . S
C2575 C2572 1.461 . S
C2575 C2574 1.474 . S
C2576 C2571 1.342 . S
C2576 C2574 1.285 . S
C2576 H2595 0.930 . S
C2577 C2580 1.424 . S
C2577 C2582 1.245 . S
C2577 C2583 1.428 . S
C2578 C2581 1.260 . S
C2578 C2582 1.477 . S
C2578 H2596 0.932 . S
C2579 C2580 1.384 . S
C2579 C2581 1.479 . S
C2579 H2597 0.929 . S
C2580 C2577 1.424 . S
C2580 C2579 1.384 . S
C2580 H2598 0.928 . S
C2581 C2578 1.260 . S
C2581 C2579 1.479 . S
C2582 C2577 1.245 . S
C2582 C2578 1.477 . S
C2582 H2599 0.932 . S
C2583 U2566 2.882 . S
C2583 C2577 1.428 . S
C2583 O2586 1.301 . S
C2583 O2587 1.282 . S
O2584 U2566 2.441 . S
O2584 C2570 1.249 . S
O2585 U2566 2.420 . S
O2585 C2570 1.202 . S
O2586 U2566 2.455 . S
O2586 C2583 1.301 . S
O2587 U2566 2.449 . S
O2587 C2583 1.282 . S
H2588 C2561 0.931 . S
H2589 C2563 0.929 . S
H2590 C2564 0.930 . S
H2591 C2565 0.931 . S
H2592 C2572 0.932 . S
H2593 C2573 0.930 . S
H2594 C2574 0.929 . S
H2595 C2576 0.930 . S
H2596 C2578 0.932 . S
H2597 C2579 0.929 . S
H2598 C2580 0.928 . S
H2599 C2582 0.932 . S
C2600 C2601 1.264 . S
C2600 C2605 1.479 . S
C2600 C2610 1.465 . S
C2601 C2600 1.264 . S
C2601 C2603 1.339 . S
C2601 H2628 0.931 . S
C2602 C2603 1.395 . S
C2602 C2604 1.320 . S
C2603 C2601 1.339 . S
C2603 C2602 1.395 . S
C2603 H2629 0.929 . S
C2604 C2602 1.320 . S
C2604 C2605 1.405 . S
C2604 H2630 0.930 . S
C2605 C2600 1.479 . S
C2605 C2604 1.405 . S
C2605 H2631 0.931 . S
U2606 O2607 2.454 . S
U2606 O2608 2.458 . S
U2606 C2609 2.984 . S
U2606 C2610 2.847 . S
U2606 C2623 2.882 . S
U2606 O2624 2.441 . S
U2606 O2625 2.420 . S
U2606 O2626 2.455 . S
U2606 O2627 2.449 . S
O2607 U2606 2.454 . S
O2607 C2609 1.353 . S
O2608 U2606 2.458 . S
O2608 C2609 1.286 . S
C2609 U2606 2.984 . S
C2609 O2607 1.353 . S
C2609 O2608 1.286 . S
C2609 C2611 1.363 . S
C2610 C2600 1.465 . S
C2610 U2606 2.847 . S
C2610 O2624 1.249 . S
C2610 O2625 1.202 . S
C2611 C2609 1.363 . S
C2611 C2613 1.408 . S
C2611 C2616 1.342 . S
C2612 C2613 1.310 . S
C2612 C2615 1.461 . S
C2612 H2632 0.932 . S
C2613 C2611 1.408 . S
C2613 C2612 1.310 . S
C2613 H2633 0.930 . S
C2614 C2615 1.474 . S
C2614 C2616 1.285 . S
C2614 H2634 0.929 . S
C2615 C2612 1.461 . S
C2615 C2614 1.474 . S
C2616 C2611 1.342 . S
C2616 C2614 1.285 . S
C2616 H2635 0.930 . S
C2617 C2620 1.424 . S
C2617 C2622 1.245 . S
C2617 C2623 1.428 . S
C2618 C2621 1.260 . S
C2618 C2622 1.477 . S
C2618 H2636 0.932 . S
C2619 C2620 1.384 . S
C2619 C2621 1.479 . S
C2619 H2637 0.929 . S
C2620 C2617 1.424 . S
C2620 C2619 1.384 . S
C2620 H2638 0.928 . S
C2621 C2618 1.260 . S
C2621 C2619 1.479 . S
C2622 C2617 1.245 . S
C2622 C2618 1.477 . S
C2622 H2639 0.932 . S
C2623 U2606 2.882 . S
C2623 C2617 1.428 . S
C2623 O2626 1.301 . S
C2623 O2627 1.282 . S
O2624 U2606 2.441 . S
O2624 C2610 1.249 . S
O2625 U2606 2.420 . S
O2625 C2610 1.202 . S
O2626 U2606 2.455 . S
O2626 C2623 1.301 . S
O2627 U2606 2.449 . S
O2627 C2623 1.282 . S
H2628 C2601 0.931 . S
H2629 C2603 0.929 . S
H2630 C2604 0.930 . S
H2631 C2605 0.931 . S
H2632 C2612 0.932 . S
H2633 C2613 0.930 . S
H2634 C2614 0.929 . S
H2635 C2616 0.930 . S
H2636 C2618 0.932 . S
H2637 C2619 0.929 . S
H2638 C2620 0.928 . S
H2639 C2622 0.932 . S
C2640 C2641 1.264 . S
C2640 C2645 1.479 . S
C2640 C2650 1.465 . S
C2641 C2640 1.264 . S
C2641 C2643 1.339 . S
C2641 H2668 0.931 . S
C2642 C2643 1.395 . S
C2642 C2644 1.320 . S
C2643 C2641 1.339 . S
C2643 C2642 1.395 . S
C2643 H2669 0.929 . S
C2644 C2642 1.320 . S
C2644 C2645 1.405 . S
C2644 H2670 0.930 . S
C2645 C2640 1.479 . S
C2645 C2644 1.405 . S
C2645 H2671 0.931 . S
U2646 O2647 2.454 . S
U2646 O2648 2.458 . S
U2646 C2649 2.984 . S
U2646 C2650 2.847 . S
U2646 C2663 2.882 . S
U2646 O2664 2.441 . S
U2646 O2665 2.420 . S
U2646 O2666 2.455 . S
U2646 O2667 2.449 . S
O2647 U2646 2.454 . S
O2647 C2649 1.353 . S
O2648 U2646 2.458 . S
O2648 C2649 1.286 . S
C2649 U2646 2.984 . S
C2649 O2647 1.353 . S
C2649 O2648 1.286 . S
C2649 C2651 1.363 . S
C2650 C2640 1.465 . S
C2650 U2646 2.847 . S
C2650 O2664 1.249 . S
C2650 O2665 1.202 . S
C2651 C2649 1.363 . S
C2651 C2653 1.408 . S
C2651 C2656 1.342 . S
C2652 C2653 1.310 . S
C2652 C2655 1.461 . S
C2652 H2672 0.932 . S
C2653 C2651 1.408 . S
C2653 C2652 1.310 . S
C2653 H2673 0.930 . S
C2654 C2655 1.474 . S
C2654 C2656 1.285 . S
C2654 H2674 0.929 . S
C2655 C2652 1.461 . S
C2655 C2654 1.474 . S
C2656 C2651 1.342 . S
C2656 C2654 1.285 . S
C2656 H2675 0.930 . S
C2657 C2660 1.424 . S
C2657 C2662 1.245 . S
C2657 C2663 1.428 . S
C2658 C2661 1.260 . S
C2658 C2662 1.477 . S
C2658 H2676 0.932 . S
C2659 C2660 1.384 . S
C2659 C2661 1.479 . S
C2659 H2677 0.929 . S
C2660 C2657 1.424 . S
C2660 C2659 1.384 . S
C2660 H2678 0.928 . S
C2661 C2658 1.260 . S
C2661 C2659 1.479 . S
C2662 C2657 1.245 . S
C2662 C2658 1.477 . S
C2662 H2679 0.932 . S
C2663 U2646 2.882 . S
C2663 C2657 1.428 . S
C2663 O2666 1.301 . S
C2663 O2667 1.282 . S
O2664 U2646 2.441 . S
O2664 C2650 1.249 . S
O2665 U2646 2.420 . S
O2665 C2650 1.202 . S
O2666 U2646 2.455 . S
O2666 C2663 1.301 . S
O2667 U2646 2.449 . S
O2667 C2663 1.282 . S
H2668 C2641 0.931 . S
H2669 C2643 0.929 . S
H2670 C2644 0.930 . S
H2671 C2645 0.931 . S
H2672 C2652 0.932 . S
H2673 C2653 0.930 . S
H2674 C2654 0.929 . S
H2675 C2656 0.930 . S
H2676 C2658 0.932 . S
H2677 C2659 0.929 . S
H2678 C2660 0.928 . S
H2679 C2662 0.932 . S
C2680 C2681 1.264 . S
C2680 C2685 1.479 . S
C2680 C2690 1.465 . S
C2681 C2680 1.264 . S
C2681 C2683 1.339 . S
C2681 H2708 0.931 . S
C2682 C2683 1.395 . S
C2682 C2684 1.320 . S
C2683 C2681 1.339 . S
C2683 C2682 1.395 . S
C2683 H2709 0.929 . S
C2684 C2682 1.320 . S
C2684 C2685 1.405 . S
C2684 H2710 0.930 . S
C2685 C2680 1.479 . S
C2685 C2684 1.405 . S
C2685 H2711 0.931 . S
U2686 O2687 2.454 . S
U2686 O2688 2.458 . S
U2686 C2689 2.984 . S
U2686 C2690 2.847 . S
U2686 C2703 2.882 . S
U2686 O2704 2.441 . S
U2686 O2705 2.420 . S
U2686 O2706 2.455 . S
U2686 O2707 2.449 . S
O2687 U2686 2.454 . S
O2687 C2689 1.353 . S
O2688 U2686 2.458 . S
O2688 C2689 1.286 . S
C2689 U2686 2.984 . S
C2689 O2687 1.353 . S
C2689 O2688 1.286 . S
C2689 C2691 1.363 . S
C2690 C2680 1.465 . S
C2690 U2686 2.847 . S
C2690 O2704 1.249 . S
C2690 O2705 1.202 . S
C2691 C2689 1.363 . S
C2691 C2693 1.408 . S
C2691 C2696 1.342 . S
C2692 C2693 1.310 . S
C2692 C2695 1.461 . S
C2692 H2712 0.932 . S
C2693 C2691 1.408 . S
C2693 C2692 1.310 . S
C2693 H2713 0.930 . S
C2694 C2695 1.474 . S
C2694 C2696 1.285 . S
C2694 H2714 0.929 . S
C2695 C2692 1.461 . S
C2695 C2694 1.474 . S
C2696 C2691 1.342 . S
C2696 C2694 1.285 . S
C2696 H2715 0.930 . S
C2697 C2700 1.424 . S
C2697 C2702 1.245 . S
C2697 C2703 1.428 . S
C2698 C2701 1.260 . S
C2698 C2702 1.477 . S
C2698 H2716 0.932 . S
C2699 C2700 1.384 . S
C2699 C2701 1.479 . S
C2699 H2717 0.929 . S
C2700 C2697 1.424 . S
C2700 C2699 1.384 . S
C2700 H2718 0.928 . S
C2701 C2698 1.260 . S
C2701 C2699 1.479 . S
C2702 C2697 1.245 . S
C2702 C2698 1.477 . S
C2702 H2719 0.932 . S
C2703 U2686 2.882 . S
C2703 C2697 1.428 . S
C2703 O2706 1.301 . S
C2703 O2707 1.282 . S
O2704 U2686 2.441 . S
O2704 C2690 1.249 . S
O2705 U2686 2.420 . S
O2705 C2690 1.202 . S
O2706 U2686 2.455 . S
O2706 C2703 1.301 . S
O2707 U2686 2.449 . S
O2707 C2703 1.282 . S
H2708 C2681 0.931 . S
H2709 C2683 0.929 . S
H2710 C2684 0.930 . S
H2711 C2685 0.931 . S
H2712 C2692 0.932 . S
H2713 C2693 0.930 . S
H2714 C2694 0.929 . S
H2715 C2696 0.930 . S
H2716 C2698 0.932 . S
H2717 C2699 0.929 . S
H2718 C2700 0.928 . S
H2719 C2702 0.932 . S
C2720 C2721 1.264 . S
C2720 C2725 1.479 . S
C2720 C2730 1.465 . S
C2721 C2720 1.264 . S
C2721 C2723 1.339 . S
C2721 H2748 0.931 . S
C2722 C2723 1.395 . S
C2722 C2724 1.320 . S
C2723 C2721 1.339 . S
C2723 C2722 1.395 . S
C2723 H2749 0.929 . S
C2724 C2722 1.320 . S
C2724 C2725 1.405 . S
C2724 H2750 0.930 . S
C2725 C2720 1.479 . S
C2725 C2724 1.405 . S
C2725 H2751 0.931 . S
U2726 O2727 2.454 . S
U2726 O2728 2.458 . S
U2726 C2729 2.984 . S
U2726 C2730 2.847 . S
U2726 C2743 2.882 . S
U2726 O2744 2.441 . S
U2726 O2745 2.420 . S
U2726 O2746 2.455 . S
U2726 O2747 2.449 . S
O2727 U2726 2.454 . S
O2727 C2729 1.353 . S
O2728 U2726 2.458 . S
O2728 C2729 1.286 . S
C2729 U2726 2.984 . S
C2729 O2727 1.353 . S
C2729 O2728 1.286 . S
C2729 C2731 1.363 . S
C2730 C2720 1.465 . S
C2730 U2726 2.847 . S
C2730 O2744 1.249 . S
C2730 O2745 1.202 . S
C2731 C2729 1.363 . S
C2731 C2733 1.408 . S
C2731 C2736 1.342 . S
C2732 C2733 1.310 . S
C2732 C2735 1.461 . S
C2732 H2752 0.932 . S
C2733 C2731 1.408 . S
C2733 C2732 1.310 . S
C2733 H2753 0.930 . S
C2734 C2735 1.474 . S
C2734 C2736 1.285 . S
C2734 H2754 0.929 . S
C2735 C2732 1.461 . S
C2735 C2734 1.474 . S
C2736 C2731 1.342 . S
C2736 C2734 1.285 . S
C2736 H2755 0.930 . S
C2737 C2740 1.424 . S
C2737 C2742 1.245 . S
C2737 C2743 1.428 . S
C2738 C2741 1.260 . S
C2738 C2742 1.477 . S
C2738 H2756 0.932 . S
C2739 C2740 1.384 . S
C2739 C2741 1.479 . S
C2739 H2757 0.929 . S
C2740 C2737 1.424 . S
C2740 C2739 1.384 . S
C2740 H2758 0.928 . S
C2741 C2738 1.260 . S
C2741 C2739 1.479 . S
C2742 C2737 1.245 . S
C2742 C2738 1.477 . S
C2742 H2759 0.932 . S
C2743 U2726 2.882 . S
C2743 C2737 1.428 . S
C2743 O2746 1.301 . S
C2743 O2747 1.282 . S
O2744 U2726 2.441 . S
O2744 C2730 1.249 . S
O2745 U2726 2.420 . S
O2745 C2730 1.202 . S
O2746 U2726 2.455 . S
O2746 C2743 1.301 . S
O2747 U2726 2.449 . S
O2747 C2743 1.282 . S
H2748 C2721 0.931 . S
H2749 C2723 0.929 . S
H2750 C2724 0.930 . S
H2751 C2725 0.931 . S
H2752 C2732 0.932 . S
H2753 C2733 0.930 . S
H2754 C2734 0.929 . S
H2755 C2736 0.930 . S
H2756 C2738 0.932 . S
H2757 C2739 0.929 . S
H2758 C2740 0.928 . S
H2759 C2742 0.932 . S
C2760 C2761 1.264 . S
C2760 C2765 1.479 . S
C2760 C2770 1.465 . S
C2761 C2760 1.264 . S
C2761 C2763 1.339 . S
C2761 H2788 0.931 . S
C2762 C2763 1.395 . S
C2762 C2764 1.320 . S
C2763 C2761 1.339 . S
C2763 C2762 1.395 . S
C2763 H2789 0.929 . S
C2764 C2762 1.320 . S
C2764 C2765 1.405 . S
C2764 H2790 0.930 . S
C2765 C2760 1.479 . S
C2765 C2764 1.405 . S
C2765 H2791 0.931 . S
U2766 O2767 2.454 . S
U2766 O2768 2.458 . S
U2766 C2769 2.984 . S
U2766 C2770 2.847 . S
U2766 C2783 2.882 . S
U2766 O2784 2.441 . S
U2766 O2785 2.420 . S
U2766 O2786 2.455 . S
U2766 O2787 2.449 . S
O2767 U2766 2.454 . S
O2767 C2769 1.353 . S
O2768 U2766 2.458 . S
O2768 C2769 1.286 . S
C2769 U2766 2.984 . S
C2769 O2767 1.353 . S
C2769 O2768 1.286 . S
C2769 C2771 1.363 . S
C2770 C2760 1.465 . S
C2770 U2766 2.847 . S
C2770 O2784 1.249 . S
C2770 O2785 1.202 . S
C2771 C2769 1.363 . S
C2771 C2773 1.408 . S
C2771 C2776 1.342 . S
C2772 C2773 1.310 . S
C2772 C2775 1.461 . S
C2772 H2792 0.932 . S
C2773 C2771 1.408 . S
C2773 C2772 1.310 . S
C2773 H2793 0.930 . S
C2774 C2775 1.474 . S
C2774 C2776 1.285 . S
C2774 H2794 0.929 . S
C2775 C2772 1.461 . S
C2775 C2774 1.474 . S
C2776 C2771 1.342 . S
C2776 C2774 1.285 . S
C2776 H2795 0.930 . S
C2777 C2780 1.424 . S
C2777 C2782 1.245 . S
C2777 C2783 1.428 . S
C2778 C2781 1.260 . S
C2778 C2782 1.477 . S
C2778 H2796 0.932 . S
C2779 C2780 1.384 . S
C2779 C2781 1.479 . S
C2779 H2797 0.929 . S
C2780 C2777 1.424 . S
C2780 C2779 1.384 . S
C2780 H2798 0.928 . S
C2781 C2778 1.260 . S
C2781 C2779 1.479 . S
C2782 C2777 1.245 . S
C2782 C2778 1.477 . S
C2782 H2799 0.932 . S
C2783 U2766 2.882 . S
C2783 C2777 1.428 . S
C2783 O2786 1.301 . S
C2783 O2787 1.282 . S
O2784 U2766 2.441 . S
O2784 C2770 1.249 . S
O2785 U2766 2.420 . S
O2785 C2770 1.202 . S
O2786 U2766 2.455 . S
O2786 C2783 1.301 . S
O2787 U2766 2.449 . S
O2787 C2783 1.282 . S
H2788 C2761 0.931 . S
H2789 C2763 0.929 . S
H2790 C2764 0.930 . S
H2791 C2765 0.931 . S
H2792 C2772 0.932 . S
H2793 C2773 0.930 . S
H2794 C2774 0.929 . S
H2795 C2776 0.930 . S
H2796 C2778 0.932 . S
H2797 C2779 0.929 . S
H2798 C2780 0.928 . S
H2799 C2782 0.932 . S
C2800 C2801 1.264 . S
C2800 C2805 1.479 . S
C2800 C2810 1.465 . S
C2801 C2800 1.264 . S
C2801 C2803 1.339 . S
C2801 H2828 0.931 . S
C2802 C2803 1.395 . S
C2802 C2804 1.320 . S
C2803 C2801 1.339 . S
C2803 C2802 1.395 . S
C2803 H2829 0.929 . S
C2804 C2802 1.320 . S
C2804 C2805 1.405 . S
C2804 H2830 0.930 . S
C2805 C2800 1.479 . S
C2805 C2804 1.405 . S
C2805 H2831 0.931 . S
U2806 O2807 2.454 . S
U2806 O2808 2.458 . S
U2806 C2809 2.984 . S
U2806 C2810 2.847 . S
U2806 C2823 2.882 . S
U2806 O2824 2.441 . S
U2806 O2825 2.420 . S
U2806 O2826 2.455 . S
U2806 O2827 2.449 . S
O2807 U2806 2.454 . S
O2807 C2809 1.353 . S
O2808 U2806 2.458 . S
O2808 C2809 1.286 . S
C2809 U2806 2.984 . S
C2809 O2807 1.353 . S
C2809 O2808 1.286 . S
C2809 C2811 1.363 . S
C2810 C2800 1.465 . S
C2810 U2806 2.847 . S
C2810 O2824 1.249 . S
C2810 O2825 1.202 . S
C2811 C2809 1.363 . S
C2811 C2813 1.408 . S
C2811 C2816 1.342 . S
C2812 C2813 1.310 . S
C2812 C2815 1.461 . S
C2812 H2832 0.932 . S
C2813 C2811 1.408 . S
C2813 C2812 1.310 . S
C2813 H2833 0.930 . S
C2814 C2815 1.474 . S
C2814 C2816 1.285 . S
C2814 H2834 0.929 . S
C2815 C2812 1.461 . S
C2815 C2814 1.474 . S
C2816 C2811 1.342 . S
C2816 C2814 1.285 . S
C2816 H2835 0.930 . S
C2817 C2820 1.424 . S
C2817 C2822 1.245 . S
C2817 C2823 1.428 . S
C2818 C2821 1.260 . S
C2818 C2822 1.477 . S
C2818 H2836 0.932 . S
C2819 C2820 1.384 . S
C2819 C2821 1.479 . S
C2819 H2837 0.929 . S
C2820 C2817 1.424 . S
C2820 C2819 1.384 . S
C2820 H2838 0.928 . S
C2821 C2818 1.260 . S
C2821 C2819 1.479 . S
C2822 C2817 1.245 . S
C2822 C2818 1.477 . S
C2822 H2839 0.932 . S
C2823 U2806 2.882 . S
C2823 C2817 1.428 . S
C2823 O2826 1.301 . S
C2823 O2827 1.282 . S
O2824 U2806 2.441 . S
O2824 C2810 1.249 . S
O2825 U2806 2.420 . S
O2825 C2810 1.202 . S
O2826 U2806 2.455 . S
O2826 C2823 1.301 . S
O2827 U2806 2.449 . S
O2827 C2823 1.282 . S
H2828 C2801 0.931 . S
H2829 C2803 0.929 . S
H2830 C2804 0.930 . S
H2831 C2805 0.931 . S
H2832 C2812 0.932 . S
H2833 C2813 0.930 . S
H2834 C2814 0.929 . S
H2835 C2816 0.930 . S
H2836 C2818 0.932 . S
H2837 C2819 0.929 . S
H2838 C2820 0.928 . S
H2839 C2822 0.932 . S
C2840 C2841 1.264 . S
C2840 C2845 1.479 . S
C2840 C2850 1.465 . S
C2841 C2840 1.264 . S
C2841 C2843 1.339 . S
C2841 H2868 0.931 . S
C2842 C2843 1.395 . S
C2842 C2844 1.320 . S
C2843 C2841 1.339 . S
C2843 C2842 1.395 . S
C2843 H2869 0.929 . S
C2844 C2842 1.320 . S
C2844 C2845 1.405 . S
C2844 H2870 0.930 . S
C2845 C2840 1.479 . S
C2845 C2844 1.405 . S
C2845 H2871 0.931 . S
U2846 O2847 2.454 . S
U2846 O2848 2.458 . S
U2846 C2849 2.984 . S
U2846 C2850 2.847 . S
U2846 C2863 2.882 . S
U2846 O2864 2.441 . S
U2846 O2865 2.420 . S
U2846 O2866 2.455 . S
U2846 O2867 2.449 . S
O2847 U2846 2.454 . S
O2847 C2849 1.353 . S
O2848 U2846 2.458 . S
O2848 C2849 1.286 . S
C2849 U2846 2.984 . S
C2849 O2847 1.353 . S
C2849 O2848 1.286 . S
C2849 C2851 1.363 . S
C2850 C2840 1.465 . S
C2850 U2846 2.847 . S
C2850 O2864 1.249 . S
C2850 O2865 1.202 . S
C2851 C2849 1.363 . S
C2851 C2853 1.408 . S
C2851 C2856 1.342 . S
C2852 C2853 1.310 . S
C2852 C2855 1.461 . S
C2852 H2872 0.932 . S
C2853 C2851 1.408 . S
C2853 C2852 1.310 . S
C2853 H2873 0.930 . S
C2854 C2855 1.474 . S
C2854 C2856 1.285 . S
C2854 H2874 0.929 . S
C2855 C2852 1.461 . S
C2855 C2854 1.474 . S
C2856 C2851 1.342 . S
C2856 C2854 1.285 . S
C2856 H2875 0.930 . S
C2857 C2860 1.424 . S
C2857 C2862 1.245 . S
C2857 C2863 1.428 . S
C2858 C2861 1.260 . S
C2858 C2862 1.477 . S
C2858 H2876 0.932 . S
C2859 C2860 1.384 . S
C2859 C2861 1.479 . S
C2859 H2877 0.929 . S
C2860 C2857 1.424 . S
C2860 C2859 1.384 . S
C2860 H2878 0.928 . S
C2861 C2858 1.260 . S
C2861 C2859 1.479 . S
C2862 C2857 1.245 . S
C2862 C2858 1.477 . S
C2862 H2879 0.932 . S
C2863 U2846 2.882 . S
C2863 C2857 1.428 . S
C2863 O2866 1.301 . S
C2863 O2867 1.282 . S
O2864 U2846 2.441 . S
O2864 C2850 1.249 . S
O2865 U2846 2.420 . S
O2865 C2850 1.202 . S
O2866 U2846 2.455 . S
O2866 C2863 1.301 . S
O2867 U2846 2.449 . S
O2867 C2863 1.282 . S
H2868 C2841 0.931 . S
H2869 C2843 0.929 . S
H2870 C2844 0.930 . S
H2871 C2845 0.931 . S
H2872 C2852 0.932 . S
H2873 C2853 0.930 . S
H2874 C2854 0.929 . S
H2875 C2856 0.930 . S
H2876 C2858 0.932 . S
H2877 C2859 0.929 . S
H2878 C2860 0.928 . S
H2879 C2862 0.932 . S
C2880 C2881 1.264 . S
C2880 C2885 1.479 . S
C2880 C2890 1.465 . S
C2881 C2880 1.264 . S
C2881 C2883 1.339 . S
C2881 H2908 0.931 . S
C2882 C2883 1.395 . S
C2882 C2884 1.320 . S
C2883 C2881 1.339 . S
C2883 C2882 1.395 . S
C2883 H2909 0.929 . S
C2884 C2882 1.320 . S
C2884 C2885 1.405 . S
C2884 H2910 0.930 . S
C2885 C2880 1.479 . S
C2885 C2884 1.405 . S
C2885 H2911 0.931 . S
U2886 O2887 2.454 . S
U2886 O2888 2.458 . S
U2886 C2889 2.984 . S
U2886 C2890 2.847 . S
U2886 C2903 2.882 . S
U2886 O2904 2.441 . S
U2886 O2905 2.420 . S
U2886 O2906 2.455 . S
U2886 O2907 2.449 . S
O2887 U2886 2.454 . S
O2887 C2889 1.353 . S
O2888 U2886 2.458 . S
O2888 C2889 1.286 . S
C2889 U2886 2.984 . S
C2889 O2887 1.353 . S
C2889 O2888 1.286 . S
C2889 C2891 1.363 . S
C2890 C2880 1.465 . S
C2890 U2886 2.847 . S
C2890 O2904 1.249 . S
C2890 O2905 1.202 . S
C2891 C2889 1.363 . S
C2891 C2893 1.408 . S
C2891 C2896 1.342 . S
C2892 C2893 1.310 . S
C2892 C2895 1.461 . S
C2892 H2912 0.932 . S
C2893 C2891 1.408 . S
C2893 C2892 1.310 . S
C2893 H2913 0.930 . S
C2894 C2895 1.474 . S
C2894 C2896 1.285 . S
C2894 H2914 0.929 . S
C2895 C2892 1.461 . S
C2895 C2894 1.474 . S
C2896 C2891 1.342 . S
C2896 C2894 1.285 . S
C2896 H2915 0.930 . S
C2897 C2900 1.424 . S
C2897 C2902 1.245 . S
C2897 C2903 1.428 . S
C2898 C2901 1.260 . S
C2898 C2902 1.477 . S
C2898 H2916 0.932 . S
C2899 C2900 1.384 . S
C2899 C2901 1.479 . S
C2899 H2917 0.929 . S
C2900 C2897 1.424 . S
C2900 C2899 1.384 . S
C2900 H2918 0.928 . S
C2901 C2898 1.260 . S
C2901 C2899 1.479 . S
C2902 C2897 1.245 . S
C2902 C2898 1.477 . S
C2902 H2919 0.932 . S
C2903 U2886 2.882 . S
C2903 C2897 1.428 . S
C2903 O2906 1.301 . S
C2903 O2907 1.282 . S
O2904 U2886 2.441 . S
O2904 C2890 1.249 . S
O2905 U2886 2.420 . S
O2905 C2890 1.202 . S
O2906 U2886 2.455 . S
O2906 C2903 1.301 . S
O2907 U2886 2.449 . S
O2907 C2903 1.282 . S
H2908 C2881 0.931 . S
H2909 C2883 0.929 . S
H2910 C2884 0.930 . S
H2911 C2885 0.931 . S
H2912 C2892 0.932 . S
H2913 C2893 0.930 . S
H2914 C2894 0.929 . S
H2915 C2896 0.930 . S
H2916 C2898 0.932 . S
H2917 C2899 0.929 . S
H2918 C2900 0.928 . S
H2919 C2902 0.932 . S
C2920 C2921 1.264 . S
C2920 C2925 1.479 . S
C2920 C2930 1.465 . S
C2921 C2920 1.264 . S
C2921 C2923 1.339 . S
C2921 H2948 0.931 . S
C2922 C2923 1.395 . S
C2922 C2924 1.320 . S
C2923 C2921 1.339 . S
C2923 C2922 1.395 . S
C2923 H2949 0.929 . S
C2924 C2922 1.320 . S
C2924 C2925 1.405 . S
C2924 H2950 0.930 . S
C2925 C2920 1.479 . S
C2925 C2924 1.405 . S
C2925 H2951 0.931 . S
U2926 O2927 2.454 . S
U2926 O2928 2.458 . S
U2926 C2929 2.984 . S
U2926 C2930 2.847 . S
U2926 C2943 2.882 . S
U2926 O2944 2.441 . S
U2926 O2945 2.420 . S
U2926 O2946 2.455 . S
U2926 O2947 2.449 . S
O2927 U2926 2.454 . S
O2927 C2929 1.353 . S
O2928 U2926 2.458 . S
O2928 C2929 1.286 . S
C2929 U2926 2.984 . S
C2929 O2927 1.353 . S
C2929 O2928 1.286 . S
C2929 C2931 1.363 . S
C2930 C2920 1.465 . S
C2930 U2926 2.847 . S
C2930 O2944 1.249 . S
C2930 O2945 1.202 . S
C2931 C2929 1.363 . S
C2931 C2933 1.408 . S
C2931 C2936 1.342 . S
C2932 C2933 1.310 . S
C2932 C2935 1.461 . S
C2932 H2952 0.932 . S
C2933 C2931 1.408 . S
C2933 C2932 1.310 . S
C2933 H2953 0.930 . S
C2934 C2935 1.474 . S
C2934 C2936 1.285 . S
C2934 H2954 0.929 . S
C2935 C2932 1.461 . S
C2935 C2934 1.474 . S
C2936 C2931 1.342 . S
C2936 C2934 1.285 . S
C2936 H2955 0.930 . S
C2937 C2940 1.424 . S
C2937 C2942 1.245 . S
C2937 C2943 1.428 . S
C2938 C2941 1.260 . S
C2938 C2942 1.477 . S
C2938 H2956 0.932 . S
C2939 C2940 1.384 . S
C2939 C2941 1.479 . S
C2939 H2957 0.929 . S
C2940 C2937 1.424 . S
C2940 C2939 1.384 . S
C2940 H2958 0.928 . S
C2941 C2938 1.260 . S
C2941 C2939 1.479 . S
C2942 C2937 1.245 . S
C2942 C2938 1.477 . S
C2942 H2959 0.932 . S
C2943 U2926 2.882 . S
C2943 C2937 1.428 . S
C2943 O2946 1.301 . S
C2943 O2947 1.282 . S
O2944 U2926 2.441 . S
O2944 C2930 1.249 . S
O2945 U2926 2.420 . S
O2945 C2930 1.202 . S
O2946 U2926 2.455 . S
O2946 C2943 1.301 . S
O2947 U2926 2.449 . S
O2947 C2943 1.282 . S
H2948 C2921 0.931 . S
H2949 C2923 0.929 . S
H2950 C2924 0.930 . S
H2951 C2925 0.931 . S
H2952 C2932 0.932 . S
H2953 C2933 0.930 . S
H2954 C2934 0.929 . S
H2955 C2936 0.930 . S
H2956 C2938 0.932 . S
H2957 C2939 0.929 . S
H2958 C2940 0.928 . S
H2959 C2942 0.932 . S
C2960 C2961 1.264 . S
C2960 C2965 1.479 . S
C2960 C2970 1.465 . S
C2961 C2960 1.264 . S
C2961 C2963 1.339 . S
C2961 H2988 0.931 . S
C2962 C2963 1.395 . S
C2962 C2964 1.320 . S
C2963 C2961 1.339 . S
C2963 C2962 1.395 . S
C2963 H2989 0.929 . S
C2964 C2962 1.320 . S
C2964 C2965 1.405 . S
C2964 H2990 0.930 . S
C2965 C2960 1.479 . S
C2965 C2964 1.405 . S
C2965 H2991 0.931 . S
U2966 O2967 2.454 . S
U2966 O2968 2.458 . S
U2966 C2969 2.984 . S
U2966 C2970 2.847 . S
U2966 C2983 2.882 . S
U2966 O2984 2.441 . S
U2966 O2985 2.420 . S
U2966 O2986 2.455 . S
U2966 O2987 2.449 . S
O2967 U2966 2.454 . S
O2967 C2969 1.353 . S
O2968 U2966 2.458 . S
O2968 C2969 1.286 . S
C2969 U2966 2.984 . S
C2969 O2967 1.353 . S
C2969 O2968 1.286 . S
C2969 C2971 1.363 . S
C2970 C2960 1.465 . S
C2970 U2966 2.847 . S
C2970 O2984 1.249 . S
C2970 O2985 1.202 . S
C2971 C2969 1.363 . S
C2971 C2973 1.408 . S
C2971 C2976 1.342 . S
C2972 C2973 1.310 . S
C2972 C2975 1.461 . S
C2972 H2992 0.932 . S
C2973 C2971 1.408 . S
C2973 C2972 1.310 . S
C2973 H2993 0.930 . S
C2974 C2975 1.474 . S
C2974 C2976 1.285 . S
C2974 H2994 0.929 . S
C2975 C2972 1.461 . S
C2975 C2974 1.474 . S
C2976 C2971 1.342 . S
C2976 C2974 1.285 . S
C2976 H2995 0.930 . S
C2977 C2980 1.424 . S
C2977 C2982 1.245 . S
C2977 C2983 1.428 . S
C2978 C2981 1.260 . S
C2978 C2982 1.477 . S
C2978 H2996 0.932 . S
C2979 C2980 1.384 . S
C2979 C2981 1.479 . S
C2979 H2997 0.929 . S
C2980 C2977 1.424 . S
C2980 C2979 1.384 . S
C2980 H2998 0.928 . S
C2981 C2978 1.260 . S
C2981 C2979 1.479 . S
C2982 C2977 1.245 . S
C2982 C2978 1.477 . S
C2982 H2999 0.932 . S
C2983 U2966 2.882 . S
C2983 C2977 1.428 . S
C2983 O2986 1.301 . S
C2983 O2987 1.282 . S
O2984 U2966 2.441 . S
O2984 C2970 1.249 . S
O2985 U2966 2.420 . S
O2985 C2970 1.202 . S
O2986 U2966 2.455 . S
O2986 C2983 1.301 . S
O2987 U2966 2.449 . S
O2987 C2983 1.282 . S
H2988 C2961 0.931 . S
H2989 C2963 0.929 . S
H2990 C2964 0.930 . S
H2991 C2965 0.931 . S
H2992 C2972 0.932 . S
H2993 C2973 0.930 . S
H2994 C2974 0.929 . S
H2995 C2976 0.930 . S
H2996 C2978 0.932 . S
H2997 C2979 0.929 . S
H2998 C2980 0.928 . S
H2999 C2982 0.932 . S
C3000 C3001 1.264 . S
C3000 C3005 1.479 . S
C3000 C3010 1.465 . S
C3001 C3000 1.264 . S
C3001 C3003 1.339 . S
C3001 H3028 0.931 . S
C3002 C3003 1.395 . S
C3002 C3004 1.320 . S
C3003 C3001 1.339 . S
C3003 C3002 1.395 . S
C3003 H3029 0.929 . S
C3004 C3002 1.320 . S
C3004 C3005 1.405 . S
C3004 H3030 0.930 . S
C3005 C3000 1.479 . S
C3005 C3004 1.405 . S
C3005 H3031 0.931 . S
U3006 O3007 2.454 . S
U3006 O3008 2.458 . S
U3006 C3009 2.984 . S
U3006 C3010 2.847 . S
U3006 C3023 2.882 . S
U3006 O3024 2.441 . S
U3006 O3025 2.420 . S
U3006 O3026 2.455 . S
U3006 O3027 2.449 . S
O3007 U3006 2.454 . S
O3007 C3009 1.353 . S
O3008 U3006 2.458 . S
O3008 C3009 1.286 . S
C3009 U3006 2.984 . S
C3009 O3007 1.353 . S
C3009 O3008 1.286 . S
C3009 C3011 1.363 . S
C3010 C3000 1.465 . S
C3010 U3006 2.847 . S
C3010 O3024 1.249 . S
C3010 O3025 1.202 . S
C3011 C3009 1.363 . S
C3011 C3013 1.408 . S
C3011 C3016 1.342 . S
C3012 C3013 1.310 . S
C3012 C3015 1.461 . S
C3012 H3032 0.932 . S
C3013 C3011 1.408 . S
C3013 C3012 1.310 . S
C3013 H3033 0.930 . S
C3014 C3015 1.474 . S
C3014 C3016 1.285 . S
C3014 H3034 0.929 . S
C3015 C3012 1.461 . S
C3015 C3014 1.474 . S
C3016 C3011 1.342 . S
C3016 C3014 1.285 . S
C3016 H3035 0.930 . S
C3017 C3020 1.424 . S
C3017 C3022 1.245 . S
C3017 C3023 1.428 . S
C3018 C3021 1.260 . S
C3018 C3022 1.477 . S
C3018 H3036 0.932 . S
C3019 C3020 1.384 . S
C3019 C3021 1.479 . S
C3019 H3037 0.929 . S
C3020 C3017 1.424 . S
C3020 C3019 1.384 . S
C3020 H3038 0.928 . S
C3021 C3018 1.260 . S
C3021 C3019 1.479 . S
C3022 C3017 1.245 . S
C3022 C3018 1.477 . S
C3022 H3039 0.932 . S
C3023 U3006 2.882 . S
C3023 C3017 1.428 . S
C3023 O3026 1.301 . S
C3023 O3027 1.282 . S
O3024 U3006 2.441 . S
O3024 C3010 1.249 . S
O3025 U3006 2.420 . S
O3025 C3010 1.202 . S
O3026 U3006 2.455 . S
O3026 C3023 1.301 . S
O3027 U3006 2.449 . S
O3027 C3023 1.282 . S
H3028 C3001 0.931 . S
H3029 C3003 0.929 . S
H3030 C3004 0.930 . S
H3031 C3005 0.931 . S
H3032 C3012 0.932 . S
H3033 C3013 0.930 . S
H3034 C3014 0.929 . S
H3035 C3016 0.930 . S
H3036 C3018 0.932 . S
H3037 C3019 0.929 . S
H3038 C3020 0.928 . S
H3039 C3022 0.932 . S
C3040 C3041 1.264 . S
C3040 C3045 1.479 . S
C3040 C3050 1.465 . S
C3041 C3040 1.264 . S
C3041 C3043 1.339 . S
C3041 H3068 0.931 . S
C3042 C3043 1.395 . S
C3042 C3044 1.320 . S
C3043 C3041 1.339 . S
C3043 C3042 1.395 . S
C3043 H3069 0.929 . S
C3044 C3042 1.320 . S
C3044 C3045 1.405 . S
C3044 H3070 0.930 . S
C3045 C3040 1.479 . S
C3045 C3044 1.405 . S
C3045 H3071 0.931 . S
U3046 O3047 2.454 . S
U3046 O3048 2.458 . S
U3046 C3049 2.984 . S
U3046 C3050 2.847 . S
U3046 C3063 2.882 . S
U3046 O3064 2.441 . S
U3046 O3065 2.420 . S
U3046 O3066 2.455 . S
U3046 O3067 2.449 . S
O3047 U3046 2.454 . S
O3047 C3049 1.353 . S
O3048 U3046 2.458 . S
O3048 C3049 1.286 . S
C3049 U3046 2.984 . S
C3049 O3047 1.353 . S
C3049 O3048 1.286 . S
C3049 C3051 1.363 . S
C3050 C3040 1.465 . S
C3050 U3046 2.847 . S
C3050 O3064 1.249 . S
C3050 O3065 1.202 . S
C3051 C3049 1.363 . S
C3051 C3053 1.408 . S
C3051 C3056 1.342 . S
C3052 C3053 1.310 . S
C3052 C3055 1.461 . S
C3052 H3072 0.932 . S
C3053 C3051 1.408 . S
C3053 C3052 1.310 . S
C3053 H3073 0.930 . S
C3054 C3055 1.474 . S
C3054 C3056 1.285 . S
C3054 H3074 0.929 . S
C3055 C3052 1.461 . S
C3055 C3054 1.474 . S
C3056 C3051 1.342 . S
C3056 C3054 1.285 . S
C3056 H3075 0.930 . S
C3057 C3060 1.424 . S
C3057 C3062 1.245 . S
C3057 C3063 1.428 . S
C3058 C3061 1.260 . S
C3058 C3062 1.477 . S
C3058 H3076 0.932 . S
C3059 C3060 1.384 . S
C3059 C3061 1.479 . S
C3059 H3077 0.929 . S
C3060 C3057 1.424 . S
C3060 C3059 1.384 . S
C3060 H3078 0.928 . S
C3061 C3058 1.260 . S
C3061 C3059 1.479 . S
C3062 C3057 1.245 . S
C3062 C3058 1.477 . S
C3062 H3079 0.932 . S
C3063 U3046 2.882 . S
C3063 C3057 1.428 . S
C3063 O3066 1.301 . S
C3063 O3067 1.282 . S
O3064 U3046 2.441 . S
O3064 C3050 1.249 . S
O3065 U3046 2.420 . S
O3065 C3050 1.202 . S
O3066 U3046 2.455 . S
O3066 C3063 1.301 . S
O3067 U3046 2.449 . S
O3067 C3063 1.282 . S
H3068 C3041 0.931 . S
H3069 C3043 0.929 . S
H3070 C3044 0.930 . S
H3071 C3045 0.931 . S
H3072 C3052 0.932 . S
H3073 C3053 0.930 . S
H3074 C3054 0.929 . S
H3075 C3056 0.930 . S
H3076 C3058 0.932 . S
H3077 C3059 0.929 . S
H3078 C3060 0.928 . S
H3079 C3062 0.932 . S
C3080 C3081 1.264 . S
C3080 C3085 1.479 . S
C3080 C3090 1.465 . S
C3081 C3080 1.264 . S
C3081 C3083 1.339 . S
C3081 H3108 0.931 . S
C3082 C3083 1.395 . S
C3082 C3084 1.320 . S
C3083 C3081 1.339 . S
C3083 C3082 1.395 . S
C3083 H3109 0.929 . S
C3084 C3082 1.320 . S
C3084 C3085 1.405 . S
C3084 H3110 0.930 . S
C3085 C3080 1.479 . S
C3085 C3084 1.405 . S
C3085 H3111 0.931 . S
U3086 O3087 2.454 . S
U3086 O3088 2.458 . S
U3086 C3089 2.984 . S
U3086 C3090 2.847 . S
U3086 C3103 2.882 . S
U3086 O3104 2.441 . S
U3086 O3105 2.420 . S
U3086 O3106 2.455 . S
U3086 O3107 2.449 . S
O3087 U3086 2.454 . S
O3087 C3089 1.353 . S
O3088 U3086 2.458 . S
O3088 C3089 1.286 . S
C3089 U3086 2.984 . S
C3089 O3087 1.353 . S
C3089 O3088 1.286 . S
C3089 C3091 1.363 . S
C3090 C3080 1.465 . S
C3090 U3086 2.847 . S
C3090 O3104 1.249 . S
C3090 O3105 1.202 . S
C3091 C3089 1.363 . S
C3091 C3093 1.408 . S
C3091 C3096 1.342 . S
C3092 C3093 1.310 . S
C3092 C3095 1.461 . S
C3092 H3112 0.932 . S
C3093 C3091 1.408 . S
C3093 C3092 1.310 . S
C3093 H3113 0.930 . S
C3094 C3095 1.474 . S
C3094 C3096 1.285 . S
C3094 H3114 0.929 . S
C3095 C3092 1.461 . S
C3095 C3094 1.474 . S
C3096 C3091 1.342 . S
C3096 C3094 1.285 . S
C3096 H3115 0.930 . S
C3097 C3100 1.424 . S
C3097 C3102 1.245 . S
C3097 C3103 1.428 . S
C3098 C3101 1.260 . S
C3098 C3102 1.477 . S
C3098 H3116 0.932 . S
C3099 C3100 1.384 . S
C3099 C3101 1.479 . S
C3099 H3117 0.929 . S
C3100 C3097 1.424 . S
C3100 C3099 1.384 . S
C3100 H3118 0.928 . S
C3101 C3098 1.260 . S
C3101 C3099 1.479 . S
C3102 C3097 1.245 . S
C3102 C3098 1.477 . S
C3102 H3119 0.932 . S
C3103 U3086 2.882 . S
C3103 C3097 1.428 . S
C3103 O3106 1.301 . S
C3103 O3107 1.282 . S
O3104 U3086 2.441 . S
O3104 C3090 1.249 . S
O3105 U3086 2.420 . S
O3105 C3090 1.202 . S
O3106 U3086 2.455 . S
O3106 C3103 1.301 . S
O3107 U3086 2.449 . S
O3107 C3103 1.282 . S
H3108 C3081 0.931 . S
H3109 C3083 0.929 . S
H3110 C3084 0.930 . S
H3111 C3085 0.931 . S
H3112 C3092 0.932 . S
H3113 C3093 0.930 . S
H3114 C3094 0.929 . S
H3115 C3096 0.930 . S
H3116 C3098 0.932 . S
H3117 C3099 0.929 . S
H3118 C3100 0.928 . S
H3119 C3102 0.932 . S
C3120 C3121 1.264 . S
C3120 C3125 1.479 . S
C3120 C3130 1.465 . S
C3121 C3120 1.264 . S
C3121 C3123 1.339 . S
C3121 H3148 0.931 . S
C3122 C3123 1.395 . S
C3122 C3124 1.320 . S
C3123 C3121 1.339 . S
C3123 C3122 1.395 . S
C3123 H3149 0.929 . S
C3124 C3122 1.320 . S
C3124 C3125 1.405 . S
C3124 H3150 0.930 . S
C3125 C3120 1.479 . S
C3125 C3124 1.405 . S
C3125 H3151 0.931 . S
U3126 O3127 2.454 . S
U3126 O3128 2.458 . S
U3126 C3129 2.984 . S
U3126 C3130 2.847 . S
U3126 C3143 2.882 . S
U3126 O3144 2.441 . S
U3126 O3145 2.420 . S
U3126 O3146 2.455 . S
U3126 O3147 2.449 . S
O3127 U3126 2.454 . S
O3127 C3129 1.353 . S
O3128 U3126 2.458 . S
O3128 C3129 1.286 . S
C3129 U3126 2.984 . S
C3129 O3127 1.353 . S
C3129 O3128 1.286 . S
C3129 C3131 1.363 . S
C3130 C3120 1.465 . S
C3130 U3126 2.847 . S
C3130 O3144 1.249 . S
C3130 O3145 1.202 . S
C3131 C3129 1.363 . S
C3131 C3133 1.408 . S
C3131 C3136 1.342 . S
C3132 C3133 1.310 . S
C3132 C3135 1.461 . S
C3132 H3152 0.932 . S
C3133 C3131 1.408 . S
C3133 C3132 1.310 . S
C3133 H3153 0.930 . S
C3134 C3135 1.474 . S
C3134 C3136 1.285 . S
C3134 H3154 0.929 . S
C3135 C3132 1.461 . S
C3135 C3134 1.474 . S
C3136 C3131 1.342 . S
C3136 C3134 1.285 . S
C3136 H3155 0.930 . S
C3137 C3140 1.424 . S
C3137 C3142 1.245 . S
C3137 C3143 1.428 . S
C3138 C3141 1.260 . S
C3138 C3142 1.477 . S
C3138 H3156 0.932 . S
C3139 C3140 1.384 . S
C3139 C3141 1.479 . S
C3139 H3157 0.929 . S
C3140 C3137 1.424 . S
C3140 C3139 1.384 . S
C3140 H3158 0.928 . S
C3141 C3138 1.260 . S
C3141 C3139 1.479 . S
C3142 C3137 1.245 . S
C3142 C3138 1.477 . S
C3142 H3159 0.932 . S
C3143 U3126 2.882 . S
C3143 C3137 1.428 . S
C3143 O3146 1.301 . S
C3143 O3147 1.282 . S
O3144 U3126 2.441 . S
O3144 C3130 1.249 . S
O3145 U3126 2.420 . S
O3145 C3130 1.202 . S
O3146 U3126 2.455 . S
O3146 C3143 1.301 . S
O3147 U3126 2.449 . S
O3147 C3143 1.282 . S
H3148 C3121 0.931 . S
H3149 C3123 0.929 . S
H3150 C3124 0.930 . S
H3151 C3125 0.931 . S
H3152 C3132 0.932 . S
H3153 C3133 0.930 . S
H3154 C3134 0.929 . S
H3155 C3136 0.930 . S
H3156 C3138 0.932 . S
H3157 C3139 0.929 . S
H3158 C3140 0.928 . S
H3159 C3142 0.932 . S
C3160 C3161 1.264 . S
C3160 C3165 1.479 . S
C3160 C3170 1.465 . S
C3161 C3160 1.264 . S
C3161 C3163 1.339 . S
C3161 H3188 0.931 . S
C3162 C3163 1.395 . S
C3162 C3164 1.320 . S
C3163 C3161 1.339 . S
C3163 C3162 1.395 . S
C3163 H3189 0.929 . S
C3164 C3162 1.320 . S
C3164 C3165 1.405 . S
C3164 H3190 0.930 . S
C3165 C3160 1.479 . S
C3165 C3164 1.405 . S
C3165 H3191 0.931 . S
U3166 O3167 2.454 . S
U3166 O3168 2.458 . S
U3166 C3169 2.984 . S
U3166 C3170 2.847 . S
U3166 C3183 2.882 . S
U3166 O3184 2.441 . S
U3166 O3185 2.420 . S
U3166 O3186 2.455 . S
U3166 O3187 2.449 . S
O3167 U3166 2.454 . S
O3167 C3169 1.353 . S
O3168 U3166 2.458 . S
O3168 C3169 1.286 . S
C3169 U3166 2.984 . S
C3169 O3167 1.353 . S
C3169 O3168 1.286 . S
C3169 C3171 1.363 . S
C3170 C3160 1.465 . S
C3170 U3166 2.847 . S
C3170 O3184 1.249 . S
C3170 O3185 1.202 . S
C3171 C3169 1.363 . S
C3171 C3173 1.408 . S
C3171 C3176 1.342 . S
C3172 C3173 1.310 . S
C3172 C3175 1.461 . S
C3172 H3192 0.932 . S
C3173 C3171 1.408 . S
C3173 C3172 1.310 . S
C3173 H3193 0.930 . S
C3174 C3175 1.474 . S
C3174 C3176 1.285 . S
C3174 H3194 0.929 . S
C3175 C3172 1.461 . S
C3175 C3174 1.474 . S
C3176 C3171 1.342 . S
C3176 C3174 1.285 . S
C3176 H3195 0.930 . S
C3177 C3180 1.424 . S
C3177 C3182 1.245 . S
C3177 C3183 1.428 . S
C3178 C3181 1.260 . S
C3178 C3182 1.477 . S
C3178 H3196 0.932 . S
C3179 C3180 1.384 . S
C3179 C3181 1.479 . S
C3179 H3197 0.929 . S
C3180 C3177 1.424 . S
C3180 C3179 1.384 . S
C3180 H3198 0.928 . S
C3181 C3178 1.260 . S
C3181 C3179 1.479 . S
C3182 C3177 1.245 . S
C3182 C3178 1.477 . S
C3182 H3199 0.932 . S
C3183 U3166 2.882 . S
C3183 C3177 1.428 . S
C3183 O3186 1.301 . S
C3183 O3187 1.282 . S
O3184 U3166 2.441 . S
O3184 C3170 1.249 . S
O3185 U3166 2.420 . S
O3185 C3170 1.202 . S
O3186 U3166 2.455 . S
O3186 C3183 1.301 . S
O3187 U3166 2.449 . S
O3187 C3183 1.282 . S
H3188 C3161 0.931 . S
H3189 C3163 0.929 . S
H3190 C3164 0.930 . S
H3191 C3165 0.931 . S
H3192 C3172 0.932 . S
H3193 C3173 0.930 . S
H3194 C3174 0.929 . S
H3195 C3176 0.930 . S
H3196 C3178 0.932 . S
H3197 C3179 0.929 . S
H3198 C3180 0.928 . S
H3199 C3182 0.932 . S
C3200 C3201 1.264 . S
C3200 C3205 1.479 . S
C3200 C3210 1.465 . S
C3201 C3200 1.264 . S
C3201 C3203 1.339 . S
C3201 H3228 0.931 . S
C3202 C3203 1.395 . S
C3202 C3204 1.320 . S
C3203 C3201 1.339 . S
C3203 C3202 1.395 . S
C3203 H3229 0.929 . S
C3204 C3202 1.320 . S
C3204 C3205 1.405 . S
C3204 H3230 0.930 . S
C3205 C3200 1.479 . S
C3205 C3204 1.405 . S
C3205 H3231 0.931 . S
U3206 O3207 2.454 . S
U3206 O3208 2.458 . S
U3206 C3209 2.984 . S
U3206 C3210 2.847 . S
U3206 C3223 2.882 . S
U3206 O3224 2.441 . S
U3206 O3225 2.420 . S
U3206 O3226 2.455 . S
U3206 O3227 2.449 . S
O3207 U3206 2.454 . S
O3207 C3209 1.353 . S
O3208 U3206 2.458 . S
O3208 C3209 1.286 . S
C3209 U3206 2.984 . S
C3209 O3207 1.353 . S
C3209 O3208 1.286 . S
C3209 C3211 1.363 . S
C3210 C3200 1.465 . S
C3210 U3206 2.847 . S
C3210 O3224 1.249 . S
C3210 O3225 1.202 . S
C3211 C3209 1.363 . S
C3211 C3213 1.408 . S
C3211 C3216 1.342 . S
C3212 C3213 1.310 . S
C3212 C3215 1.461 . S
C3212 H3232 0.932 . S
C3213 C3211 1.408 . S
C3213 C3212 1.310 . S
C3213 H3233 0.930 . S
C3214 C3215 1.474 . S
C3214 C3216 1.285 . S
C3214 H3234 0.929 . S
C3215 C3212 1.461 . S
C3215 C3214 1.474 . S
C3216 C3211 1.342 . S
C3216 C3214 1.285 . S
C3216 H3235 0.930 . S
C3217 C3220 1.424 . S
C3217 C3222 1.245 . S
C3217 C3223 1.428 . S
C3218 C3221 1.260 . S
C3218 C3222 1.477 . S
C3218 H3236 0.932 . S
C3219 C3220 1.384 . S
C3219 C3221 1.479 . S
C3219 H3237 0.929 . S
C3220 C3217 1.424 . S
C3220 C3219 1.384 . S
C3220 H3238 0.928 . S
C3221 C3218 1.260 . S
C3221 C3219 1.479 . S
C3222 C3217 1.245 . S
C3222 C3218 1.477 . S
C3222 H3239 0.932 . S
C3223 U3206 2.882 . S
C3223 C3217 1.428 . S
C3223 O3226 1.301 . S
C3223 O3227 1.282 . S
O3224 U3206 2.441 . S
O3224 C3210 1.249 . S
O3225 U3206 2.420 . S
O3225 C3210 1.202 . S
O3226 U3206 2.455 . S
O3226 C3223 1.301 . S
O3227 U3206 2.449 . S
O3227 C3223 1.282 . S
H3228 C3201 0.931 . S
H3229 C3203 0.929 . S
H3230 C3204 0.930 . S
H3231 C3205 0.931 . S
H3232 C3212 0.932 . S
H3233 C3213 0.930 . S
H3234 C3214 0.929 . S
H3235 C3216 0.930 . S
H3236 C3218 0.932 . S
H3237 C3219 0.929 . S
H3238 C3220 0.928 . S
H3239 C3222 0.932 . S
C3240 C3241 1.264 . S
C3240 C3245 1.479 . S
C3240 C3250 1.465 . S
C3241 C3240 1.264 . S
C3241 C3243 1.339 . S
C3241 H3268 0.931 . S
C3242 C3243 1.395 . S
C3242 C3244 1.320 . S
C3243 C3241 1.339 . S
C3243 C3242 1.395 . S
C3243 H3269 0.929 . S
C3244 C3242 1.320 . S
C3244 C3245 1.405 . S
C3244 H3270 0.930 . S
C3245 C3240 1.479 . S
C3245 C3244 1.405 . S
C3245 H3271 0.931 . S
U3246 O3247 2.454 . S
U3246 O3248 2.458 . S
U3246 C3249 2.984 . S
U3246 C3250 2.847 . S
U3246 C3263 2.882 . S
U3246 O3264 2.441 . S
U3246 O3265 2.420 . S
U3246 O3266 2.455 . S
U3246 O3267 2.449 . S
O3247 U3246 2.454 . S
O3247 C3249 1.353 . S
O3248 U3246 2.458 . S
O3248 C3249 1.286 . S
C3249 U3246 2.984 . S
C3249 O3247 1.353 . S
C3249 O3248 1.286 . S
C3249 C3251 1.363 . S
C3250 C3240 1.465 . S
C3250 U3246 2.847 . S
C3250 O3264 1.249 . S
C3250 O3265 1.202 . S
C3251 C3249 1.363 . S
C3251 C3253 1.408 . S
C3251 C3256 1.342 . S
C3252 C3253 1.310 . S
C3252 C3255 1.461 . S
C3252 H3272 0.932 . S
C3253 C3251 1.408 . S
C3253 C3252 1.310 . S
C3253 H3273 0.930 . S
C3254 C3255 1.474 . S
C3254 C3256 1.285 . S
C3254 H3274 0.929 . S
C3255 C3252 1.461 . S
C3255 C3254 1.474 . S
C3256 C3251 1.342 . S
C3256 C3254 1.285 . S
C3256 H3275 0.930 . S
C3257 C3260 1.424 . S
C3257 C3262 1.245 . S
C3257 C3263 1.428 . S
C3258 C3261 1.260 . S
C3258 C3262 1.477 . S
C3258 H3276 0.932 . S
C3259 C3260 1.384 . S
C3259 C3261 1.479 . S
C3259 H3277 0.929 . S
C3260 C3257 1.424 . S
C3260 C3259 1.384 . S
C3260 H3278 0.928 . S
C3261 C3258 1.260 . S
C3261 C3259 1.479 . S
C3262 C3257 1.245 . S
C3262 C3258 1.477 . S
C3262 H3279 0.932 . S
C3263 U3246 2.882 . S
C3263 C3257 1.428 . S
C3263 O3266 1.301 . S
C3263 O3267 1.282 . S
O3264 U3246 2.441 . S
O3264 C3250 1.249 . S
O3265 U3246 2.420 . S
O3265 C3250 1.202 . S
O3266 U3246 2.455 . S
O3266 C3263 1.301 . S
O3267 U3246 2.449 . S
O3267 C3263 1.282 . S
H3268 C3241 0.931 . S
H3269 C3243 0.929 . S
H3270 C3244 0.930 . S
H3271 C3245 0.931 . S
H3272 C3252 0.932 . S
H3273 C3253 0.930 . S
H3274 C3254 0.929 . S
H3275 C3256 0.930 . S
H3276 C3258 0.932 . S
H3277 C3259 0.929 . S
H3278 C3260 0.928 . S
H3279 C3262 0.932 . S
C3280 C3281 1.264 . S
C3280 C3285 1.479 . S
C3280 C3290 1.465 . S
C3281 C3280 1.264 . S
C3281 C3283 1.339 . S
C3281 H3308 0.931 . S
C3282 C3283 1.395 . S
C3282 C3284 1.320 . S
C3283 C3281 1.339 . S
C3283 C3282 1.395 . S
C3283 H3309 0.929 . S
C3284 C3282 1.320 . S
C3284 C3285 1.405 . S
C3284 H3310 0.930 . S
C3285 C3280 1.479 . S
C3285 C3284 1.405 . S
C3285 H3311 0.931 . S
U3286 O3287 2.454 . S
U3286 O3288 2.458 . S
U3286 C3289 2.984 . S
U3286 C3290 2.847 . S
U3286 C3303 2.882 . S
U3286 O3304 2.441 . S
U3286 O3305 2.420 . S
U3286 O3306 2.455 . S
U3286 O3307 2.449 . S
O3287 U3286 2.454 . S
O3287 C3289 1.353 . S
O3288 U3286 2.458 . S
O3288 C3289 1.286 . S
C3289 U3286 2.984 . S
C3289 O3287 1.353 . S
C3289 O3288 1.286 . S
C3289 C3291 1.363 . S
C3290 C3280 1.465 . S
C3290 U3286 2.847 . S
C3290 O3304 1.249 . S
C3290 O3305 1.202 . S
C3291 C3289 1.363 . S
C3291 C3293 1.408 . S
C3291 C3296 1.342 . S
C3292 C3293 1.310 . S
C3292 C3295 1.461 . S
C3292 H3312 0.932 . S
C3293 C3291 1.408 . S
C3293 C3292 1.310 . S
C3293 H3313 0.930 . S
C3294 C3295 1.474 . S
C3294 C3296 1.285 . S
C3294 H3314 0.929 . S
C3295 C3292 1.461 . S
C3295 C3294 1.474 . S
C3296 C3291 1.342 . S
C3296 C3294 1.285 . S
C3296 H3315 0.930 . S
C3297 C3300 1.424 . S
C3297 C3302 1.245 . S
C3297 C3303 1.428 . S
C3298 C3301 1.260 . S
C3298 C3302 1.477 . S
C3298 H3316 0.932 . S
C3299 C3300 1.384 . S
C3299 C3301 1.479 . S
C3299 H3317 0.929 . S
C3300 C3297 1.424 . S
C3300 C3299 1.384 . S
C3300 H3318 0.928 . S
C3301 C3298 1.260 . S
C3301 C3299 1.479 . S
C3302 C3297 1.245 . S
C3302 C3298 1.477 . S
C3302 H3319 0.932 . S
C3303 U3286 2.882 . S
C3303 C3297 1.428 . S
C3303 O3306 1.301 . S
C3303 O3307 1.282 . S
O3304 U3286 2.441 . S
O3304 C3290 1.249 . S
O3305 U3286 2.420 . S
O3305 C3290 1.202 . S
O3306 U3286 2.455 . S
O3306 C3303 1.301 . S
O3307 U3286 2.449 . S
O3307 C3303 1.282 . S
H3308 C3281 0.931 . S
H3309 C3283 0.929 . S
H3310 C3284 0.930 . S
H3311 C3285 0.931 . S
H3312 C3292 0.932 . S
H3313 C3293 0.930 . S
H3314 C3294 0.929 . S
H3315 C3296 0.930 . S
H3316 C3298 0.932 . S
H3317 C3299 0.929 . S
H3318 C3300 0.928 . S
H3319 C3302 0.932 . S
C3320 C3321 1.264 . S
C3320 C3325 1.479 . S
C3320 C3330 1.465 . S
C3321 C3320 1.264 . S
C3321 C3323 1.339 . S
C3321 H3348 0.931 . S
C3322 C3323 1.395 . S
C3322 C3324 1.320 . S
C3323 C3321 1.339 . S
C3323 C3322 1.395 . S
C3323 H3349 0.929 . S
C3324 C3322 1.320 . S
C3324 C3325 1.405 . S
C3324 H3350 0.930 . S
C3325 C3320 1.479 . S
C3325 C3324 1.405 . S
C3325 H3351 0.931 . S
U3326 O3327 2.454 . S
U3326 O3328 2.458 . S
U3326 C3329 2.984 . S
U3326 C3330 2.847 . S
U3326 C3343 2.882 . S
U3326 O3344 2.441 . S
U3326 O3345 2.420 . S
U3326 O3346 2.455 . S
U3326 O3347 2.449 . S
O3327 U3326 2.454 . S
O3327 C3329 1.353 . S
O3328 U3326 2.458 . S
O3328 C3329 1.286 . S
C3329 U3326 2.984 . S
C3329 O3327 1.353 . S
C3329 O3328 1.286 . S
C3329 C3331 1.363 . S
C3330 C3320 1.465 . S
C3330 U3326 2.847 . S
C3330 O3344 1.249 . S
C3330 O3345 1.202 . S
C3331 C3329 1.363 . S
C3331 C3333 1.408 . S
C3331 C3336 1.342 . S
C3332 C3333 1.310 . S
C3332 C3335 1.461 . S
C3332 H3352 0.932 . S
C3333 C3331 1.408 . S
C3333 C3332 1.310 . S
C3333 H3353 0.930 . S
C3334 C3335 1.474 . S
C3334 C3336 1.285 . S
C3334 H3354 0.929 . S
C3335 C3332 1.461 . S
C3335 C3334 1.474 . S
C3336 C3331 1.342 . S
C3336 C3334 1.285 . S
C3336 H3355 0.930 . S
C3337 C3340 1.424 . S
C3337 C3342 1.245 . S
C3337 C3343 1.428 . S
C3338 C3341 1.260 . S
C3338 C3342 1.477 . S
C3338 H3356 0.932 . S
C3339 C3340 1.384 . S
C3339 C3341 1.479 . S
C3339 H3357 0.929 . S
C3340 C3337 1.424 . S
C3340 C3339 1.384 . S
C3340 H3358 0.928 . S
C3341 C3338 1.260 . S
C3341 C3339 1.479 . S
C3342 C3337 1.245 . S
C3342 C3338 1.477 . S
C3342 H3359 0.932 . S
C3343 U3326 2.882 . S
C3343 C3337 1.428 . S
C3343 O3346 1.301 . S
C3343 O3347 1.282 . S
O3344 U3326 2.441 . S
O3344 C3330 1.249 . S
O3345 U3326 2.420 . S
O3345 C3330 1.202 . S
O3346 U3326 2.455 . S
O3346 C3343 1.301 . S
O3347 U3326 2.449 . S
O3347 C3343 1.282 . S
H3348 C3321 0.931 . S
H3349 C3323 0.929 . S
H3350 C3324 0.930 . S
H3351 C3325 0.931 . S
H3352 C3332 0.932 . S
H3353 C3333 0.930 . S
H3354 C3334 0.929 . S
H3355 C3336 0.930 . S
H3356 C3338 0.932 . S
H3357 C3339 0.929 . S
H3358 C3340 0.928 . S
H3359 C3342 0.932 . S
C3360 C3361 1.264 . S
C3360 C3365 1.479 . S
C3360 C3370 1.465 . S
C3361 C3360 1.264 . S
C3361 C3363 1.339 . S
C3361 H3388 0.931 . S
C3362 C3363 1.395 . S
C3362 C3364 1.320 . S
C3363 C3361 1.339 . S
C3363 C3362 1.395 . S
C3363 H3389 0.929 . S
C3364 C3362 1.320 . S
C3364 C3365 1.405 . S
C3364 H3390 0.930 . S
C3365 C3360 1.479 . S
C3365 C3364 1.405 . S
C3365 H3391 0.931 . S
U3366 O3367 2.454 . S
U3366 O3368 2.458 . S
U3366 C3369 2.984 . S
U3366 C3370 2.847 . S
U3366 C3383 2.882 . S
U3366 O3384 2.441 . S
U3366 O3385 2.420 . S
U3366 O3386 2.455 . S
U3366 O3387 2.449 . S
O3367 U3366 2.454 . S
O3367 C3369 1.353 . S
O3368 U3366 2.458 . S
O3368 C3369 1.286 . S
C3369 U3366 2.984 . S
C3369 O3367 1.353 . S
C3369 O3368 1.286 . S
C3369 C3371 1.363 . S
C3370 C3360 1.465 . S
C3370 U3366 2.847 . S
C3370 O3384 1.249 . S
C3370 O3385 1.202 . S
C3371 C3369 1.363 . S
C3371 C3373 1.408 . S
C3371 C3376 1.342 . S
C3372 C3373 1.310 . S
C3372 C3375 1.461 . S
C3372 H3392 0.932 . S
C3373 C3371 1.408 . S
C3373 C3372 1.310 . S
C3373 H3393 0.930 . S
C3374 C3375 1.474 . S
C3374 C3376 1.285 . S
C3374 H3394 0.929 . S
C3375 C3372 1.461 . S
C3375 C3374 1.474 . S
C3376 C3371 1.342 . S
C3376 C3374 1.285 . S
C3376 H3395 0.930 . S
C3377 C3380 1.424 . S
C3377 C3382 1.245 . S
C3377 C3383 1.428 . S
C3378 C3381 1.260 . S
C3378 C3382 1.477 . S
C3378 H3396 0.932 . S
C3379 C3380 1.384 . S
C3379 C3381 1.479 . S
C3379 H3397 0.929 . S
C3380 C3377 1.424 . S
C3380 C3379 1.384 . S
C3380 H3398 0.928 . S
C3381 C3378 1.260 . S
C3381 C3379 1.479 . S
C3382 C3377 1.245 . S
C3382 C3378 1.477 . S
C3382 H3399 0.932 . S
C3383 U3366 2.882 . S
C3383 C3377 1.428 . S
C3383 O3386 1.301 . S
C3383 O3387 1.282 . S
O3384 U3366 2.441 . S
O3384 C3370 1.249 . S
O3385 U3366 2.420 . S
O3385 C3370 1.202 . S
O3386 U3366 2.455 . S
O3386 C3383 1.301 . S
O3387 U3366 2.449 . S
O3387 C3383 1.282 . S
H3388 C3361 0.931 . S
H3389 C3363 0.929 . S
H3390 C3364 0.930 . S
H3391 C3365 0.931 . S
H3392 C3372 0.932 . S
H3393 C3373 0.930 . S
H3394 C3374 0.929 . S
H3395 C3376 0.930 . S
H3396 C3378 0.932 . S
H3397 C3379 0.929 . S
H3398 C3380 0.928 . S
H3399 C3382 0.932 . S
C3400 C3401 1.264 . S
C3400 C3405 1.479 . S
C3400 C3410 1.465 . S
C3401 C3400 1.264 . S
C3401 C3403 1.339 . S
C3401 H3428 0.931 . S
C3402 C3403 1.395 . S
C3402 C3404 1.320 . S
C3403 C3401 1.339 . S
C3403 C3402 1.395 . S
C3403 H3429 0.929 . S
C3404 C3402 1.320 . S
C3404 C3405 1.405 . S
C3404 H3430 0.930 . S
C3405 C3400 1.479 . S
C3405 C3404 1.405 . S
C3405 H3431 0.931 . S
U3406 O3407 2.454 . S
U3406 O3408 2.458 . S
U3406 C3409 2.984 . S
U3406 C3410 2.847 . S
U3406 C3423 2.882 . S
U3406 O3424 2.441 . S
U3406 O3425 2.420 . S
U3406 O3426 2.455 . S
U3406 O3427 2.449 . S
O3407 U3406 2.454 . S
O3407 C3409 1.353 . S
O3408 U3406 2.458 . S
O3408 C3409 1.286 . S
C3409 U3406 2.984 . S
C3409 O3407 1.353 . S
C3409 O3408 1.286 . S
C3409 C3411 1.363 . S
C3410 C3400 1.465 . S
C3410 U3406 2.847 . S
C3410 O3424 1.249 . S
C3410 O3425 1.202 . S
C3411 C3409 1.363 . S
C3411 C3413 1.408 . S
C3411 C3416 1.342 . S
C3412 C3413 1.310 . S
C3412 C3415 1.461 . S
C3412 H3432 0.932 . S
C3413 C3411 1.408 . S
C3413 C3412 1.310 . S
C3413 H3433 0.930 . S
C3414 C3415 1.474 . S
C3414 C3416 1.285 . S
C3414 H3434 0.929 . S
C3415 C3412 1.461 . S
C3415 C3414 1.474 . S
C3416 C3411 1.342 . S
C3416 C3414 1.285 . S
C3416 H3435 0.930 . S
C3417 C3420 1.424 . S
C3417 C3422 1.245 . S
C3417 C3423 1.428 . S
C3418 C3421 1.260 . S
C3418 C3422 1.477 . S
C3418 H3436 0.932 . S
C3419 C3420 1.384 . S
C3419 C3421 1.479 . S
C3419 H3437 0.929 . S
C3420 C3417 1.424 . S
C3420 C3419 1.384 . S
C3420 H3438 0.928 . S
C3421 C3418 1.260 . S
C3421 C3419 1.479 . S
C3422 C3417 1.245 . S
C3422 C3418 1.477 . S
C3422 H3439 0.932 . S
C3423 U3406 2.882 . S
C3423 C3417 1.428 . S
C3423 O3426 1.301 . S
C3423 O3427 1.282 . S
O3424 U3406 2.441 . S
O3424 C3410 1.249 . S
O3425 U3406 2.420 . S
O3425 C3410 1.202 . S
O3426 U3406 2.455 . S
O3426 C3423 1.301 . S
O3427 U3406 2.449 . S
O3427 C3423 1.282 . S
H3428 C3401 0.931 . S
H3429 C3403 0.929 . S
H3430 C3404 0.930 . S
H3431 C3405 0.931 . S
H3432 C3412 0.932 . S
H3433 C3413 0.930 . S
H3434 C3414 0.929 . S
H3435 C3416 0.930 . S
H3436 C3418 0.932 . S
H3437 C3419 0.929 . S
H3438 C3420 0.928 . S
H3439 C3422 0.932 . S
C3440 C3441 1.264 . S
C3440 C3445 1.479 . S
C3440 C3450 1.465 . S
C3441 C3440 1.264 . S
C3441 C3443 1.339 . S
C3441 H3468 0.931 . S
C3442 C3443 1.395 . S
C3442 C3444 1.320 . S
C3443 C3441 1.339 . S
C3443 C3442 1.395 . S
C3443 H3469 0.929 . S
C3444 C3442 1.320 . S
C3444 C3445 1.405 . S
C3444 H3470 0.930 . S
C3445 C3440 1.479 . S
C3445 C3444 1.405 . S
C3445 H3471 0.931 . S
U3446 O3447 2.454 . S
U3446 O3448 2.458 . S
U3446 C3449 2.984 . S
U3446 C3450 2.847 . S
U3446 C3463 2.882 . S
U3446 O3464 2.441 . S
U3446 O3465 2.420 . S
U3446 O3466 2.455 . S
U3446 O3467 2.449 . S
O3447 U3446 2.454 . S
O3447 C3449 1.353 . S
O3448 U3446 2.458 . S
O3448 C3449 1.286 . S
C3449 U3446 2.984 . S
C3449 O3447 1.353 . S
C3449 O3448 1.286 . S
C3449 C3451 1.363 . S
C3450 C3440 1.465 . S
C3450 U3446 2.847 . S
C3450 O3464 1.249 . S
C3450 O3465 1.202 . S
C3451 C3449 1.363 . S
C3451 C3453 1.408 . S
C3451 C3456 1.342 . S
C3452 C3453 1.310 . S
C3452 C3455 1.461 . S
C3452 H3472 0.932 . S
C3453 C3451 1.408 . S
C3453 C3452 1.310 . S
C3453 H3473 0.930 . S
C3454 C3455 1.474 . S
C3454 C3456 1.285 . S
C3454 H3474 0.929 . S
C3455 C3452 1.461 . S
C3455 C3454 1.474 . S
C3456 C3451 1.342 . S
C3456 C3454 1.285 . S
C3456 H3475 0.930 . S
C3457 C3460 1.424 . S
C3457 C3462 1.245 . S
C3457 C3463 1.428 . S
C3458 C3461 1.260 . S
C3458 C3462 1.477 . S
C3458 H3476 0.932 . S
C3459 C3460 1.384 . S
C3459 C3461 1.479 . S
C3459 H3477 0.929 . S
C3460 C3457 1.424 . S
C3460 C3459 1.384 . S
C3460 H3478 0.928 . S
C3461 C3458 1.260 . S
C3461 C3459 1.479 . S
C3462 C3457 1.245 . S
C3462 C3458 1.477 . S
C3462 H3479 0.932 . S
C3463 U3446 2.882 . S
C3463 C3457 1.428 . S
C3463 O3466 1.301 . S
C3463 O3467 1.282 . S
O3464 U3446 2.441 . S
O3464 C3450 1.249 . S
O3465 U3446 2.420 . S
O3465 C3450 1.202 . S
O3466 U3446 2.455 . S
O3466 C3463 1.301 . S
O3467 U3446 2.449 . S
O3467 C3463 1.282 . S
H3468 C3441 0.931 . S
H3469 C3443 0.929 . S
H3470 C3444 0.930 . S
H3471 C3445 0.931 . S
H3472 C3452 0.932 . S
H3473 C3453 0.930 . S
H3474 C3454 0.929 . S
H3475 C3456 0.930 . S
H3476 C3458 0.932 . S
H3477 C3459 0.929 . S
H3478 C3460 0.928 . S
H3479 C3462 0.932 . S
C3480 C3481 1.264 . S
C3480 C3485 1.479 . S
C3480 C3490 1.465 . S
C3481 C3480 1.264 . S
C3481 C3483 1.339 . S
C3481 H3508 0.931 . S
C3482 C3483 1.395 . S
C3482 C3484 1.320 . S
C3483 C3481 1.339 . S
C3483 C3482 1.395 . S
C3483 H3509 0.929 . S
C3484 C3482 1.320 . S
C3484 C3485 1.405 . S
C3484 H3510 0.930 . S
C3485 C3480 1.479 . S
C3485 C3484 1.405 . S
C3485 H3511 0.931 . S
U3486 O3487 2.454 . S
U3486 O3488 2.458 . S
U3486 C3489 2.984 . S
U3486 C3490 2.847 . S
U3486 C3503 2.882 . S
U3486 O3504 2.441 . S
U3486 O3505 2.420 . S
U3486 O3506 2.455 . S
U3486 O3507 2.449 . S
O3487 U3486 2.454 . S
O3487 C3489 1.353 . S
O3488 U3486 2.458 . S
O3488 C3489 1.286 . S
C3489 U3486 2.984 . S
C3489 O3487 1.353 . S
C3489 O3488 1.286 . S
C3489 C3491 1.363 . S
C3490 C3480 1.465 . S
C3490 U3486 2.847 . S
C3490 O3504 1.249 . S
C3490 O3505 1.202 . S
C3491 C3489 1.363 . S
C3491 C3493 1.408 . S
C3491 C3496 1.342 . S
C3492 C3493 1.310 . S
C3492 C3495 1.461 . S
C3492 H3512 0.932 . S
C3493 C3491 1.408 . S
C3493 C3492 1.310 . S
C3493 H3513 0.930 . S
C3494 C3495 1.474 . S
C3494 C3496 1.285 . S
C3494 H3514 0.929 . S
C3495 C3492 1.461 . S
C3495 C3494 1.474 . S
C3496 C3491 1.342 . S
C3496 C3494 1.285 . S
C3496 H3515 0.930 . S
C3497 C3500 1.424 . S
C3497 C3502 1.245 . S
C3497 C3503 1.428 . S
C3498 C3501 1.260 . S
C3498 C3502 1.477 . S
C3498 H3516 0.932 . S
C3499 C3500 1.384 . S
C3499 C3501 1.479 . S
C3499 H3517 0.929 . S
C3500 C3497 1.424 . S
C3500 C3499 1.384 . S
C3500 H3518 0.928 . S
C3501 C3498 1.260 . S
C3501 C3499 1.479 . S
C3502 C3497 1.245 . S
C3502 C3498 1.477 . S
C3502 H3519 0.932 . S
C3503 U3486 2.882 . S
C3503 C3497 1.428 . S
C3503 O3506 1.301 . S
C3503 O3507 1.282 . S
O3504 U3486 2.441 . S
O3504 C3490 1.249 . S
O3505 U3486 2.420 . S
O3505 C3490 1.202 . S
O3506 U3486 2.455 . S
O3506 C3503 1.301 . S
O3507 U3486 2.449 . S
O3507 C3503 1.282 . S
H3508 C3481 0.931 . S
H3509 C3483 0.929 . S
H3510 C3484 0.930 . S
H3511 C3485 0.931 . S
H3512 C3492 0.932 . S
H3513 C3493 0.930 . S
H3514 C3494 0.929 . S
H3515 C3496 0.930 . S
H3516 C3498 0.932 . S
H3517 C3499 0.929 . S
H3518 C3500 0.928 . S
H3519 C3502 0.932 . S
C3520 C3521 1.264 . S
C3520 C3525 1.479 . S
C3520 C3530 1.465 . S
C3521 C3520 1.264 . S
C3521 C3523 1.339 . S
C3521 H3548 0.931 . S
C3522 C3523 1.395 . S
C3522 C3524 1.320 . S
C3523 C3521 1.339 . S
C3523 C3522 1.395 . S
C3523 H3549 0.929 . S
C3524 C3522 1.320 . S
C3524 C3525 1.405 . S
C3524 H3550 0.930 . S
C3525 C3520 1.479 . S
C3525 C3524 1.405 . S
C3525 H3551 0.931 . S
U3526 O3527 2.454 . S
U3526 O3528 2.458 . S
U3526 C3529 2.984 . S
U3526 C3530 2.847 . S
U3526 C3543 2.882 . S
U3526 O3544 2.441 . S
U3526 O3545 2.420 . S
U3526 O3546 2.455 . S
U3526 O3547 2.449 . S
O3527 U3526 2.454 . S
O3527 C3529 1.353 . S
O3528 U3526 2.458 . S
O3528 C3529 1.286 . S
C3529 U3526 2.984 . S
C3529 O3527 1.353 . S
C3529 O3528 1.286 . S
C3529 C3531 1.363 . S
C3530 C3520 1.465 . S
C3530 U3526 2.847 . S
C3530 O3544 1.249 . S
C3530 O3545 1.202 . S
C3531 C3529 1.363 . S
C3531 C3533 1.408 . S
C3531 C3536 1.342 . S
C3532 C3533 1.310 . S
C3532 C3535 1.461 . S
C3532 H3552 0.932 . S
C3533 C3531 1.408 . S
C3533 C3532 1.310 . S
C3533 H3553 0.930 . S
C3534 C3535 1.474 . S
C3534 C3536 1.285 . S
C3534 H3554 0.929 . S
C3535 C3532 1.461 . S
C3535 C3534 1.474 . S
C3536 C3531 1.342 . S
C3536 C3534 1.285 . S
C3536 H3555 0.930 . S
C3537 C3540 1.424 . S
C3537 C3542 1.245 . S
C3537 C3543 1.428 . S
C3538 C3541 1.260 . S
C3538 C3542 1.477 . S
C3538 H3556 0.932 . S
C3539 C3540 1.384 . S
C3539 C3541 1.479 . S
C3539 H3557 0.929 . S
C3540 C3537 1.424 . S
C3540 C3539 1.384 . S
C3540 H3558 0.928 . S
C3541 C3538 1.260 . S
C3541 C3539 1.479 . S
C3542 C3537 1.245 . S
C3542 C3538 1.477 . S
C3542 H3559 0.932 . S
C3543 U3526 2.882 . S
C3543 C3537 1.428 . S
C3543 O3546 1.301 . S
C3543 O3547 1.282 . S
O3544 U3526 2.441 . S
O3544 C3530 1.249 . S
O3545 U3526 2.420 . S
O3545 C3530 1.202 . S
O3546 U3526 2.455 . S
O3546 C3543 1.301 . S
O3547 U3526 2.449 . S
O3547 C3543 1.282 . S
H3548 C3521 0.931 . S
H3549 C3523 0.929 . S
H3550 C3524 0.930 . S
H3551 C3525 0.931 . S
H3552 C3532 0.932 . S
H3553 C3533 0.930 . S
H3554 C3534 0.929 . S
H3555 C3536 0.930 . S
H3556 C3538 0.932 . S
H3557 C3539 0.929 . S
H3558 C3540 0.928 . S
H3559 C3542 0.932 . S
C3560 C3561 1.264 . S
C3560 C3565 1.479 . S
C3560 C3570 1.465 . S
C3561 C3560 1.264 . S
C3561 C3563 1.339 . S
C3561 H3588 0.931 . S
C3562 C3563 1.395 . S
C3562 C3564 1.320 . S
C3563 C3561 1.339 . S
C3563 C3562 1.395 . S
C3563 H3589 0.929 . S
C3564 C3562 1.320 . S
C3564 C3565 1.405 . S
C3564 H3590 0.930 . S
C3565 C3560 1.479 . S
C3565 C3564 1.405 . S
C3565 H3591 0.931 . S
U3566 O3567 2.454 . S
U3566 O3568 2.458 . S
U3566 C3569 2.984 . S
U3566 C3570 2.847 . S
U3566 C3583 2.882 . S
U3566 O3584 2.441 . S
U3566 O3585 2.420 . S
U3566 O3586 2.455 . S
U3566 O3587 2.449 . S
O3567 U3566 2.454 . S
O3567 C3569 1.353 . S
O3568 U3566 2.458 . S
O3568 C3569 1.286 . S
C3569 U3566 2.984 . S
C3569 O3567 1.353 . S
C3569 O3568 1.286 . S
C3569 C3571 1.363 . S
C3570 C3560 1.465 . S
C3570 U3566 2.847 . S
C3570 O3584 1.249 . S
C3570 O3585 1.202 . S
C3571 C3569 1.363 . S
C3571 C3573 1.408 . S
C3571 C3576 1.342 . S
C3572 C3573 1.310 . S
C3572 C3575 1.461 . S
C3572 H3592 0.932 . S
C3573 C3571 1.408 . S
C3573 C3572 1.310 . S
C3573 H3593 0.930 . S
C3574 C3575 1.474 . S
C3574 C3576 1.285 . S
C3574 H3594 0.929 . S
C3575 C3572 1.461 . S
C3575 C3574 1.474 . S
C3576 C3571 1.342 . S
C3576 C3574 1.285 . S
C3576 H3595 0.930 . S
C3577 C3580 1.424 . S
C3577 C3582 1.245 . S
C3577 C3583 1.428 . S
C3578 C3581 1.260 . S
C3578 C3582 1.477 . S
C3578 H3596 0.932 . S
C3579 C3580 1.384 . S
C3579 C3581 1.479 . S
C3579 H3597 0.929 . S
C3580 C3577 1.424 . S
C3580 C3579 1.384 . S
C3580 H3598 0.928 . S
C3581 C3578 1.260 . S
C3581 C3579 1.479 . S
C3582 C3577 1.245 . S
C3582 C3578 1.477 . S
C3582 H3599 0.932 . S
C3583 U3566 2.882 . S
C3583 C3577 1.428 . S
C3583 O3586 1.301 . S
C3583 O3587 1.282 . S
O3584 U3566 2.441 . S
O3584 C3570 1.249 . S
O3585 U3566 2.420 . S
O3585 C3570 1.202 . S
O3586 U3566 2.455 . S
O3586 C3583 1.301 . S
O3587 U3566 2.449 . S
O3587 C3583 1.282 . S
H3588 C3561 0.931 . S
H3589 C3563 0.929 . S
H3590 C3564 0.930 . S
H3591 C3565 0.931 . S
H3592 C3572 0.932 . S
H3593 C3573 0.930 . S
H3594 C3574 0.929 . S
H3595 C3576 0.930 . S
H3596 C3578 0.932 . S
H3597 C3579 0.929 . S
H3598 C3580 0.928 . S
H3599 C3582 0.932 . S
C3600 C3601 1.264 . S
C3600 C3605 1.479 . S
C3600 C3610 1.465 . S
C3601 C3600 1.264 . S
C3601 C3603 1.339 . S
C3601 H3628 0.931 . S
C3602 C3603 1.395 . S
C3602 C3604 1.320 . S
C3603 C3601 1.339 . S
C3603 C3602 1.395 . S
C3603 H3629 0.929 . S
C3604 C3602 1.320 . S
C3604 C3605 1.405 . S
C3604 H3630 0.930 . S
C3605 C3600 1.479 . S
C3605 C3604 1.405 . S
C3605 H3631 0.931 . S
U3606 O3607 2.454 . S
U3606 O3608 2.458 . S
U3606 C3609 2.984 . S
U3606 C3610 2.847 . S
U3606 C3623 2.882 . S
U3606 O3624 2.441 . S
U3606 O3625 2.420 . S
U3606 O3626 2.455 . S
U3606 O3627 2.449 . S
O3607 U3606 2.454 . S
O3607 C3609 1.353 . S
O3608 U3606 2.458 . S
O3608 C3609 1.286 . S
C3609 U3606 2.984 . S
C3609 O3607 1.353 . S
C3609 O3608 1.286 . S
C3609 C3611 1.363 . S
C3610 C3600 1.465 . S
C3610 U3606 2.847 . S
C3610 O3624 1.249 . S
C3610 O3625 1.202 . S
C3611 C3609 1.363 . S
C3611 C3613 1.408 . S
C3611 C3616 1.342 . S
C3612 C3613 1.310 . S
C3612 C3615 1.461 . S
C3612 H3632 0.932 . S
C3613 C3611 1.408 . S
C3613 C3612 1.310 . S
C3613 H3633 0.930 . S
C3614 C3615 1.474 . S
C3614 C3616 1.285 . S
C3614 H3634 0.929 . S
C3615 C3612 1.461 . S
C3615 C3614 1.474 . S
C3616 C3611 1.342 . S
C3616 C3614 1.285 . S
C3616 H3635 0.930 . S
C3617 C3620 1.424 . S
C3617 C3622 1.245 . S
C3617 C3623 1.428 . S
C3618 C3621 1.260 . S
C3618 C3622 1.477 . S
C3618 H3636 0.932 . S
C3619 C3620 1.384 . S
C3619 C3621 1.479 . S
C3619 H3637 0.929 . S
C3620 C3617 1.424 . S
C3620 C3619 1.384 . S
C3620 H3638 0.928 . S
C3621 C3618 1.260 . S
C3621 C3619 1.479 . S
C3622 C3617 1.245 . S
C3622 C3618 1.477 . S
C3622 H3639 0.932 . S
C3623 U3606 2.882 . S
C3623 C3617 1.428 . S
C3623 O3626 1.301 . S
C3623 O3627 1.282 . S
O3624 U3606 2.441 . S
O3624 C3610 1.249 . S
O3625 U3606 2.420 . S
O3625 C3610 1.202 . S
O3626 U3606 2.455 . S
O3626 C3623 1.301 . S
O3627 U3606 2.449 . S
O3627 C3623 1.282 . S
H3628 C3601 0.931 . S
H3629 C3603 0.929 . S
H3630 C3604 0.930 . S
H3631 C3605 0.931 . S
H3632 C3612 0.932 . S
H3633 C3613 0.930 . S
H3634 C3614 0.929 . S
H3635 C3616 0.930 . S
H3636 C3618 0.932 . S
H3637 C3619 0.929 . S
H3638 C3620 0.928 . S
H3639 C3622 0.932 . S
C3640 C3641 1.264 . S
C3640 C3645 1.479 . S
C3640 C3650 1.465 . S
C3641 C3640 1.264 . S
C3641 C3643 1.339 . S
C3641 H3668 0.931 . S
C3642 C3643 1.395 . S
C3642 C3644 1.320 . S
C3643 C3641 1.339 . S
C3643 C3642 1.395 . S
C3643 H3669 0.929 . S
C3644 C3642 1.320 . S
C3644 C3645 1.405 . S
C3644 H3670 0.930 . S
C3645 C3640 1.479 . S
C3645 C3644 1.405 . S
C3645 H3671 0.931 . S
U3646 O3647 2.454 . S
U3646 O3648 2.458 . S
U3646 C3649 2.984 . S
U3646 C3650 2.847 . S
U3646 C3663 2.882 . S
U3646 O3664 2.441 . S
U3646 O3665 2.420 . S
U3646 O3666 2.455 . S
U3646 O3667 2.449 . S
O3647 U3646 2.454 . S
O3647 C3649 1.353 . S
O3648 U3646 2.458 . S
O3648 C3649 1.286 . S
C3649 U3646 2.984 . S
C3649 O3647 1.353 . S
C3649 O3648 1.286 . S
C3649 C3651 1.363 . S
C3650 C3640 1.465 . S
C3650 U3646 2.847 . S
C3650 O3664 1.249 . S
C3650 O3665 1.202 . S
C3651 C3649 1.363 . S
C3651 C3653 1.408 . S
C3651 C3656 1.342 . S
C3652 C3653 1.310 . S
C3652 C3655 1.461 . S
C3652 H3672 0.932 . S
C3653 C3651 1.408 . S
C3653 C3652 1.310 . S
C3653 H3673 0.930 . S
C3654 C3655 1.474 . S
C3654 C3656 1.285 . S
C3654 H3674 0.929 . S
C3655 C3652 1.461 . S
C3655 C3654 1.474 . S
C3656 C3651 1.342 . S
C3656 C3654 1.285 . S
C3656 H3675 0.930 . S
C3657 C3660 1.424 . S
C3657 C3662 1.245 . S
C3657 C3663 1.428 . S
C3658 C3661 1.260 . S
C3658 C3662 1.477 . S
C3658 H3676 0.932 . S
C3659 C3660 1.384 . S
C3659 C3661 1.479 . S
C3659 H3677 0.929 . S
C3660 C3657 1.424 . S
C3660 C3659 1.384 . S
C3660 H3678 0.928 . S
C3661 C3658 1.260 . S
C3661 C3659 1.479 . S
C3662 C3657 1.245 . S
C3662 C3658 1.477 . S
C3662 H3679 0.932 . S
C3663 U3646 2.882 . S
C3663 C3657 1.428 . S
C3663 O3666 1.301 . S
C3663 O3667 1.282 . S
O3664 U3646 2.441 . S
O3664 C3650 1.249 . S
O3665 U3646 2.420 . S
O3665 C3650 1.202 . S
O3666 U3646 2.455 . S
O3666 C3663 1.301 . S
O3667 U3646 2.449 . S
O3667 C3663 1.282 . S
H3668 C3641 0.931 . S
H3669 C3643 0.929 . S
H3670 C3644 0.930 . S
H3671 C3645 0.931 . S
H3672 C3652 0.932 . S
H3673 C3653 0.930 . S
H3674 C3654 0.929 . S
H3675 C3656 0.930 . S
H3676 C3658 0.932 . S
H3677 C3659 0.929 . S
H3678 C3660 0.928 . S
H3679 C3662 0.932 . S
C3680 C3681 1.264 . S
C3680 C3685 1.479 . S
C3680 C3690 1.465 . S
C3681 C3680 1.264 . S
C3681 C3683 1.339 . S
C3681 H3708 0.931 . S
C3682 C3683 1.395 . S
C3682 C3684 1.320 . S
C3683 C3681 1.339 . S
C3683 C3682 1.395 . S
C3683 H3709 0.929 . S
C3684 C3682 1.320 . S
C3684 C3685 1.405 . S
C3684 H3710 0.930 . S
C3685 C3680 1.479 . S
C3685 C3684 1.405 . S
C3685 H3711 0.931 . S
U3686 O3687 2.454 . S
U3686 O3688 2.458 . S
U3686 C3689 2.984 . S
U3686 C3690 2.847 . S
U3686 C3703 2.882 . S
U3686 O3704 2.441 . S
U3686 O3705 2.420 . S
U3686 O3706 2.455 . S
U3686 O3707 2.449 . S
O3687 U3686 2.454 . S
O3687 C3689 1.353 . S
O3688 U3686 2.458 . S
O3688 C3689 1.286 . S
C3689 U3686 2.984 . S
C3689 O3687 1.353 . S
C3689 O3688 1.286 . S
C3689 C3691 1.363 . S
C3690 C3680 1.465 . S
C3690 U3686 2.847 . S
C3690 O3704 1.249 . S
C3690 O3705 1.202 . S
C3691 C3689 1.363 . S
C3691 C3693 1.408 . S
C3691 C3696 1.342 . S
C3692 C3693 1.310 . S
C3692 C3695 1.461 . S
C3692 H3712 0.932 . S
C3693 C3691 1.408 . S
C3693 C3692 1.310 . S
C3693 H3713 0.930 . S
C3694 C3695 1.474 . S
C3694 C3696 1.285 . S
C3694 H3714 0.929 . S
C3695 C3692 1.461 . S
C3695 C3694 1.474 . S
C3696 C3691 1.342 . S
C3696 C3694 1.285 . S
C3696 H3715 0.930 . S
C3697 C3700 1.424 . S
C3697 C3702 1.245 . S
C3697 C3703 1.428 . S
C3698 C3701 1.260 . S
C3698 C3702 1.477 . S
C3698 H3716 0.932 . S
C3699 C3700 1.384 . S
C3699 C3701 1.479 . S
C3699 H3717 0.929 . S
C3700 C3697 1.424 . S
C3700 C3699 1.384 . S
C3700 H3718 0.928 . S
C3701 C3698 1.260 . S
C3701 C3699 1.479 . S
C3702 C3697 1.245 . S
C3702 C3698 1.477 . S
C3702 H3719 0.932 . S
C3703 U3686 2.882 . S
C3703 C3697 1.428 . S
C3703 O3706 1.301 . S
C3703 O3707 1.282 . S
O3704 U3686 2.441 . S
O3704 C3690 1.249 . S
O3705 U3686 2.420 . S
O3705 C3690 1.202 . S
O3706 U3686 2.455 . S
O3706 C3703 1.301 . S
O3707 U3686 2.449 . S
O3707 C3703 1.282 . S
H3708 C3681 0.931 . S
H3709 C3683 0.929 . S
H3710 C3684 0.930 . S
H3711 C3685 0.931 . S
H3712 C3692 0.932 . S
H3713 C3693 0.930 . S
H3714 C3694 0.929 . S
H3715 C3696 0.930 . S
H3716 C3698 0.932 . S
H3717 C3699 0.929 . S
H3718 C3700 0.928 . S
H3719 C3702 0.932 . S
C3720 C3721 1.264 . S
C3720 C3725 1.479 . S
C3720 C3730 1.465 . S
C3721 C3720 1.264 . S
C3721 C3723 1.339 . S
C3721 H3748 0.931 . S
C3722 C3723 1.395 . S
C3722 C3724 1.320 . S
C3723 C3721 1.339 . S
C3723 C3722 1.395 . S
C3723 H3749 0.929 . S
C3724 C3722 1.320 . S
C3724 C3725 1.405 . S
C3724 H3750 0.930 . S
C3725 C3720 1.479 . S
C3725 C3724 1.405 . S
C3725 H3751 0.931 . S
U3726 O3727 2.454 . S
U3726 O3728 2.458 . S
U3726 C3729 2.984 . S
U3726 C3730 2.847 . S
U3726 C3743 2.882 . S
U3726 O3744 2.441 . S
U3726 O3745 2.420 . S
U3726 O3746 2.455 . S
U3726 O3747 2.449 . S
O3727 U3726 2.454 . S
O3727 C3729 1.353 . S
O3728 U3726 2.458 . S
O3728 C3729 1.286 . S
C3729 U3726 2.984 . S
C3729 O3727 1.353 . S
C3729 O3728 1.286 . S
C3729 C3731 1.363 . S
C3730 C3720 1.465 . S
C3730 U3726 2.847 . S
C3730 O3744 1.249 . S
C3730 O3745 1.202 . S
C3731 C3729 1.363 . S
C3731 C3733 1.408 . S
C3731 C3736 1.342 . S
C3732 C3733 1.310 . S
C3732 C3735 1.461 . S
C3732 H3752 0.932 . S
C3733 C3731 1.408 . S
C3733 C3732 1.310 . S
C3733 H3753 0.930 . S
C3734 C3735 1.474 . S
C3734 C3736 1.285 . S
C3734 H3754 0.929 . S
C3735 C3732 1.461 . S
C3735 C3734 1.474 . S
C3736 C3731 1.342 . S
C3736 C3734 1.285 . S
C3736 H3755 0.930 . S
C3737 C3740 1.424 . S
C3737 C3742 1.245 . S
C3737 C3743 1.428 . S
C3738 C3741 1.260 . S
C3738 C3742 1.477 . S
C3738 H3756 0.932 . S
C3739 C3740 1.384 . S
C3739 C3741 1.479 . S
C3739 H3757 0.929 . S
C3740 C3737 1.424 . S
C3740 C3739 1.384 . S
C3740 H3758 0.928 . S
C3741 C3738 1.260 . S
C3741 C3739 1.479 . S
C3742 C3737 1.245 . S
C3742 C3738 1.477 . S
C3742 H3759 0.932 . S
C3743 U3726 2.882 . S
C3743 C3737 1.428 . S
C3743 O3746 1.301 . S
C3743 O3747 1.282 . S
O3744 U3726 2.441 . S
O3744 C3730 1.249 . S
O3745 U3726 2.420 . S
O3745 C3730 1.202 . S
O3746 U3726 2.455 . S
O3746 C3743 1.301 . S
O3747 U3726 2.449 . S
O3747 C3743 1.282 . S
H3748 C3721 0.931 . S
H3749 C3723 0.929 . S
H3750 C3724 0.930 . S
H3751 C3725 0.931 . S
H3752 C3732 0.932 . S
H3753 C3733 0.930 . S
H3754 C3734 0.929 . S
H3755 C3736 0.930 . S
H3756 C3738 0.932 . S
H3757 C3739 0.929 . S
H3758 C3740 0.928 . S
H3759 C3742 0.932 . S
C3760 C3761 1.264 . S
C3760 C3765 1.479 . S
C3760 C3770 1.465 . S
C3761 C3760 1.264 . S
C3761 C3763 1.339 . S
C3761 H3788 0.931 . S
C3762 C3763 1.395 . S
C3762 C3764 1.320 . S
C3763 C3761 1.339 . S
C3763 C3762 1.395 . S
C3763 H3789 0.929 . S
C3764 C3762 1.320 . S
C3764 C3765 1.405 . S
C3764 H3790 0.930 . S
C3765 C3760 1.479 . S
C3765 C3764 1.405 . S
C3765 H3791 0.931 . S
U3766 O3767 2.454 . S
U3766 O3768 2.458 . S
U3766 C3769 2.984 . S
U3766 C3770 2.847 . S
U3766 C3783 2.882 . S
U3766 O3784 2.441 . S
U3766 O3785 2.420 . S
U3766 O3786 2.455 . S
U3766 O3787 2.449 . S
O3767 U3766 2.454 . S
O3767 C3769 1.353 . S
O3768 U3766 2.458 . S
O3768 C3769 1.286 . S
C3769 U3766 2.984 . S
C3769 O3767 1.353 . S
C3769 O3768 1.286 . S
C3769 C3771 1.363 . S
C3770 C3760 1.465 . S
C3770 U3766 2.847 . S
C3770 O3784 1.249 . S
C3770 O3785 1.202 . S
C3771 C3769 1.363 . S
C3771 C3773 1.408 . S
C3771 C3776 1.342 . S
C3772 C3773 1.310 . S
C3772 C3775 1.461 . S
C3772 H3792 0.932 . S
C3773 C3771 1.408 . S
C3773 C3772 1.310 . S
C3773 H3793 0.930 . S
C3774 C3775 1.474 . S
C3774 C3776 1.285 . S
C3774 H3794 0.929 . S
C3775 C3772 1.461 . S
C3775 C3774 1.474 . S
C3776 C3771 1.342 . S
C3776 C3774 1.285 . S
C3776 H3795 0.930 . S
C3777 C3780 1.424 . S
C3777 C3782 1.245 . S
C3777 C3783 1.428 . S
C3778 C3781 1.260 . S
C3778 C3782 1.477 . S
C3778 H3796 0.932 . S
C3779 C3780 1.384 . S
C3779 C3781 1.479 . S
C3779 H3797 0.929 . S
C3780 C3777 1.424 . S
C3780 C3779 1.384 . S
C3780 H3798 0.928 . S
C3781 C3778 1.260 . S
C3781 C3779 1.479 . S
C3782 C3777 1.245 . S
C3782 C3778 1.477 . S
C3782 H3799 0.932 . S
C3783 U3766 2.882 . S
C3783 C3777 1.428 . S
C3783 O3786 1.301 . S
C3783 O3787 1.282 . S
O3784 U3766 2.441 . S
O3784 C3770 1.249 . S
O3785 U3766 2.420 . S
O3785 C3770 1.202 . S
O3786 U3766 2.455 . S
O3786 C3783 1.301 . S
O3787 U3766 2.449 . S
O3787 C3783 1.282 . S
H3788 C3761 0.931 . S
H3789 C3763 0.929 . S
H3790 C3764 0.930 . S
H3791 C3765 0.931 . S
H3792 C3772 0.932 . S
H3793 C3773 0.930 . S
H3794 C3774 0.929 . S
H3795 C3776 0.930 . S
H3796 C3778 0.932 . S
H3797 C3779 0.929 . S
H3798 C3780 0.928 . S
H3799 C3782 0.932 . S
C3800 C3801 1.264 . S
C3800 C3805 1.479 . S
C3800 C3810 1.465 . S
C3801 C3800 1.264 . S
C3801 C3803 1.339 . S
C3801 H3828 0.931 . S
C3802 C3803 1.395 . S
C3802 C3804 1.320 . S
C3803 C3801 1.339 . S
C3803 C3802 1.395 . S
C3803 H3829 0.929 . S
C3804 C3802 1.320 . S
C3804 C3805 1.405 . S
C3804 H3830 0.930 . S
C3805 C3800 1.479 . S
C3805 C3804 1.405 . S
C3805 H3831 0.931 . S
U3806 O3807 2.454 . S
U3806 O3808 2.458 . S
U3806 C3809 2.984 . S
U3806 C3810 2.847 . S
U3806 C3823 2.882 . S
U3806 O3824 2.441 . S
U3806 O3825 2.420 . S
U3806 O3826 2.455 . S
U3806 O3827 2.449 . S
O3807 U3806 2.454 . S
O3807 C3809 1.353 . S
O3808 U3806 2.458 . S
O3808 C3809 1.286 . S
C3809 U3806 2.984 . S
C3809 O3807 1.353 . S
C3809 O3808 1.286 . S
C3809 C3811 1.363 . S
C3810 C3800 1.465 . S
C3810 U3806 2.847 . S
C3810 O3824 1.249 . S
C3810 O3825 1.202 . S
C3811 C3809 1.363 . S
C3811 C3813 1.408 . S
C3811 C3816 1.342 . S
C3812 C3813 1.310 . S
C3812 C3815 1.461 . S
C3812 H3832 0.932 . S
C3813 C3811 1.408 . S
C3813 C3812 1.310 . S
C3813 H3833 0.930 . S
C3814 C3815 1.474 . S
C3814 C3816 1.285 . S
C3814 H3834 0.929 . S
C3815 C3812 1.461 . S
C3815 C3814 1.474 . S
C3816 C3811 1.342 . S
C3816 C3814 1.285 . S
C3816 H3835 0.930 . S
C3817 C3820 1.424 . S
C3817 C3822 1.245 . S
C3817 C3823 1.428 . S
C3818 C3821 1.260 . S
C3818 C3822 1.477 . S
C3818 H3836 0.932 . S
C3819 C3820 1.384 . S
C3819 C3821 1.479 . S
C3819 H3837 0.929 . S
C3820 C3817 1.424 . S
C3820 C3819 1.384 . S
C3820 H3838 0.928 . S
C3821 C3818 1.260 . S
C3821 C3819 1.479 . S
C3822 C3817 1.245 . S
C3822 C3818 1.477 . S
C3822 H3839 0.932 . S
C3823 U3806 2.882 . S
C3823 C3817 1.428 . S
C3823 O3826 1.301 . S
C3823 O3827 1.282 . S
O3824 U3806 2.441 . S
O3824 C3810 1.249 . S
O3825 U3806 2.420 . S
O3825 C3810 1.202 . S
O3826 U3806 2.455 . S
O3826 C3823 1.301 . S
O3827 U3806 2.449 . S
O3827 C3823 1.282 . S
H3828 C3801 0.931 . S
H3829 C3803 0.929 . S
H3830 C3804 0.930 . S
H3831 C3805 0.931 . S
H3832 C3812 0.932 . S
H3833 C3813 0.930 . S
H3834 C3814 0.929 . S
H3835 C3816 0.930 . S
H3836 C3818 0.932 . S
H3837 C3819 0.929 . S
H3838 C3820 0.928 . S
H3839 C3822 0.932 . S
C3840 C3841 1.387 . S
C3840 H3844 0.950 . S
C3840 C3849 1.390 . S
C3841 C3840 1.387 . S
C3841 C3843 1.387 . S
H3842 C3849 0.950 . S
C3843 C3841 1.387 . S
C3843 C3845 1.390 . S
C3843 H3847 0.950 . S
H3844 C3840 0.950 . S
C3845 C3843 1.390 . S
C3845 C3846 1.387 . S
C3845 H3848 0.950 . S
C3846 C3845 1.387 . S
C3846 C3849 1.387 . S
H3847 C3843 0.950 . S
H3848 C3845 0.950 . S
C3849 C3840 1.390 . S
C3849 H3842 0.950 . S
C3849 C3846 1.387 . S
C3850 C3851 1.387 . S
C3850 H3854 0.950 . S
C3850 C3859 1.390 . S
C3851 C3850 1.387 . S
C3851 C3853 1.387 . S
H3852 C3859 0.950 . S
C3853 C3851 1.387 . S
C3853 C3855 1.390 . S
C3853 H3857 0.950 . S
H3854 C3850 0.950 . S
C3855 C3853 1.390 . S
C3855 C3856 1.387 . S
C3855 H3858 0.950 . S
C3856 C3855 1.387 . S
C3856 C3859 1.387 . S
H3857 C3853 0.950 . S
H3858 C3855 0.950 . S
C3859 C3850 1.390 . S
C3859 H3852 0.950 . S
C3859 C3856 1.387 . S
C3860 C3861 1.387 . S
C3860 H3864 0.950 . S
C3860 C3869 1.390 . S
C3861 C3860 1.387 . S
C3861 C3863 1.387 . S
H3862 C3869 0.950 . S
C3863 C3861 1.387 . S
C3863 C3865 1.390 . S
C3863 H3867 0.950 . S
H3864 C3860 0.950 . S
C3865 C3863 1.390 . S
C3865 C3866 1.387 . S
C3865 H3868 0.950 . S
C3866 C3865 1.387 . S
C3866 C3869 1.387 . S
H3867 C3863 0.950 . S
H3868 C3865 0.950 . S
C3869 C3860 1.390 . S
C3869 H3862 0.950 . S
C3869 C3866 1.387 . S
C3870 C3871 1.387 . S
C3870 H3874 0.950 . S
C3870 C3879 1.390 . S
C3871 C3870 1.387 . S
C3871 C3873 1.387 . S
H3872 C3879 0.950 . S
C3873 C3871 1.387 . S
C3873 C3875 1.390 . S
C3873 H3877 0.950 . S
H3874 C3870 0.950 . S
C3875 C3873 1.390 . S
C3875 C3876 1.387 . S
C3875 H3878 0.950 . S
C3876 C3875 1.387 . S
C3876 C3879 1.387 . S
H3877 C3873 0.950 . S
H3878 C3875 0.950 . S
C3879 C3870 1.390 . S
C3879 H3872 0.950 . S
C3879 C3876 1.387 . S
C3880 C3881 1.387 . S
C3880 H3884 0.950 . S
C3880 C3889 1.390 . S
C3881 C3880 1.387 . S
C3881 C3883 1.387 . S
H3882 C3889 0.950 . S
C3883 C3881 1.387 . S
C3883 C3885 1.390 . S
C3883 H3887 0.950 . S
H3884 C3880 0.950 . S
C3885 C3883 1.390 . S
C3885 C3886 1.387 . S
C3885 H3888 0.950 . S
C3886 C3885 1.387 . S
C3886 C3889 1.387 . S
H3887 C3883 0.950 . S
H3888 C3885 0.950 . S
C3889 C3880 1.390 . S
C3889 H3882 0.950 . S
C3889 C3886 1.387 . S
C3890 C3891 1.387 . S
C3890 H3894 0.950 . S
C3890 C3899 1.390 . S
C3891 C3890 1.387 . S
C3891 C3893 1.387 . S
H3892 C3899 0.950 . S
C3893 C3891 1.387 . S
C3893 C3895 1.390 . S
C3893 H3897 0.950 . S
H3894 C3890 0.950 . S
C3895 C3893 1.390 . S
C3895 C3896 1.387 . S
C3895 H3898 0.950 . S
C3896 C3895 1.387 . S
C3896 C3899 1.387 . S
H3897 C3893 0.950 . S
H3898 C3895 0.950 . S
C3899 C3890 1.390 . S
C3899 H3892 0.950 . S
C3899 C3896 1.387 . S
C3900 C3901 1.387 . S
C3900 H3904 0.950 . S
C3900 C3909 1.390 . S
C3901 C3900 1.387 . S
C3901 C3903 1.387 . S
H3902 C3909 0.950 . S
C3903 C3901 1.387 . S
C3903 C3905 1.390 . S
C3903 H3907 0.950 . S
H3904 C3900 0.950 . S
C3905 C3903 1.390 . S
C3905 C3906 1.387 . S
C3905 H3908 0.950 . S
C3906 C3905 1.387 . S
C3906 C3909 1.387 . S
H3907 C3903 0.950 . S
H3908 C3905 0.950 . S
C3909 C3900 1.390 . S
C3909 H3902 0.950 . S
C3909 C3906 1.387 . S
C3910 C3911 1.387 . S
C3910 H3914 0.950 . S
C3910 C3919 1.390 . S
C3911 C3910 1.387 . S
C3911 C3913 1.387 . S
H3912 C3919 0.950 . S
C3913 C3911 1.387 . S
C3913 C3915 1.390 . S
C3913 H3917 0.950 . S
H3914 C3910 0.950 . S
C3915 C3913 1.390 . S
C3915 C3916 1.387 . S
C3915 H3918 0.950 . S
C3916 C3915 1.387 . S
C3916 C3919 1.387 . S
H3917 C3913 0.950 . S
H3918 C3915 0.950 . S
C3919 C3910 1.390 . S
C3919 H3912 0.950 . S
C3919 C3916 1.387 . S
C3920 C3921 1.387 . S
C3920 H3924 0.950 . S
C3920 C3929 1.390 . S
C3921 C3920 1.387 . S
C3921 C3923 1.387 . S
H3922 C3929 0.950 . S
C3923 C3921 1.387 . S
C3923 C3925 1.390 . S
C3923 H3927 0.950 . S
H3924 C3920 0.950 . S
C3925 C3923 1.390 . S
C3925 C3926 1.387 . S
C3925 H3928 0.950 . S
C3926 C3925 1.387 . S
C3926 C3929 1.387 . S
H3927 C3923 0.950 . S
H3928 C3925 0.950 . S
C3929 C3920 1.390 . S
C3929 H3922 0.950 . S
C3929 C3926 1.387 . S
C3930 C3931 1.387 . S
C3930 H3934 0.950 . S
C3930 C3939 1.390 . S
C3931 C3930 1.387 . S
C3931 C3933 1.387 . S
H3932 C3939 0.950 . S
C3933 C3931 1.387 . S
C3933 C3935 1.390 . S
C3933 H3937 0.950 . S
H3934 C3930 0.950 . S
C3935 C3933 1.390 . S
C3935 C3936 1.387 . S
C3935 H3938 0.950 . S
C3936 C3935 1.387 . S
C3936 C3939 1.387 . S
H3937 C3933 0.950 . S
H3938 C3935 0.950 . S
C3939 C3930 1.390 . S
C3939 H3932 0.950 . S
C3939 C3936 1.387 . S
C3940 C3941 1.387 . S
C3940 H3944 0.950 . S
C3940 C3949 1.390 . S
C3941 C3940 1.387 . S
C3941 C3943 1.387 . S
H3942 C3949 0.950 . S
C3943 C3941 1.387 . S
C3943 C3945 1.390 . S
C3943 H3947 0.950 . S
H3944 C3940 0.950 . S
C3945 C3943 1.390 . S
C3945 C3946 1.387 . S
C3945 H3948 0.950 . S
C3946 C3945 1.387 . S
C3946 C3949 1.387 . S
H3947 C3943 0.950 . S
H3948 C3945 0.950 . S
C3949 C3940 1.390 . S
C3949 H3942 0.950 . S
C3949 C3946 1.387 . S
C3950 C3951 1.387 . S
C3950 H3954 0.950 . S
C3950 C3959 1.390 . S
C3951 C3950 1.387 . S
C3951 C3953 1.387 . S
H3952 C3959 0.950 . S
C3953 C3951 1.387 . S
C3953 C3955 1.390 . S
C3953 H3957 0.950 . S
H3954 C3950 0.950 . S
C3955 C3953 1.390 . S
C3955 C3956 1.387 . S
C3955 H3958 0.950 . S
C3956 C3955 1.387 . S
C3956 C3959 1.387 . S
H3957 C3953 0.950 . S
H3958 C3955 0.950 . S
C3959 C3950 1.390 . S
C3959 H3952 0.950 . S
C3959 C3956 1.387 . S
C3960 C3961 1.387 . S
C3960 H3964 0.950 . S
C3960 C3969 1.390 . S
C3961 C3960 1.387 . S
C3961 C3963 1.387 . S
H3962 C3969 0.950 . S
C3963 C3961 1.387 . S
C3963 C3965 1.390 . S
C3963 H3967 0.950 . S
H3964 C3960 0.950 . S
C3965 C3963 1.390 . S
C3965 C3966 1.387 . S
C3965 H3968 0.950 . S
C3966 C3965 1.387 . S
C3966 C3969 1.387 . S
H3967 C3963 0.950 . S
H3968 C3965 0.950 . S
C3969 C3960 1.390 . S
C3969 H3962 0.950 . S
C3969 C3966 1.387 . S
C3970 C3971 1.387 . S
C3970 H3974 0.950 . S
C3970 C3979 1.390 . S
C3971 C3970 1.387 . S
C3971 C3973 1.387 . S
H3972 C3979 0.950 . S
C3973 C3971 1.387 . S
C3973 C3975 1.390 . S
C3973 H3977 0.950 . S
H3974 C3970 0.950 . S
C3975 C3973 1.390 . S
C3975 C3976 1.387 . S
C3975 H3978 0.950 . S
C3976 C3975 1.387 . S
C3976 C3979 1.387 . S
H3977 C3973 0.950 . S
H3978 C3975 0.950 . S
C3979 C3970 1.390 . S
C3979 H3972 0.950 . S
C3979 C3976 1.387 . S
C3980 C3981 1.387 . S
C3980 H3984 0.950 . S
C3980 C3989 1.390 . S
C3981 C3980 1.387 . S
C3981 C3983 1.387 . S
H3982 C3989 0.950 . S
C3983 C3981 1.387 . S
C3983 C3985 1.390 . S
C3983 H3987 0.950 . S
H3984 C3980 0.950 . S
C3985 C3983 1.390 . S
C3985 C3986 1.387 . S
C3985 H3988 0.950 . S
C3986 C3985 1.387 . S
C3986 C3989 1.387 . S
H3987 C3983 0.950 . S
H3988 C3985 0.950 . S
C3989 C3980 1.390 . S
C3989 H3982 0.950 . S
C3989 C3986 1.387 . S
C3990 C3991 1.387 . S
C3990 H3994 0.950 . S
C3990 C3999 1.390 . S
C3991 C3990 1.387 . S
C3991 C3993 1.387 . S
H3992 C3999 0.950 . S
C3993 C3991 1.387 . S
C3993 C3995 1.390 . S
C3993 H3997 0.950 . S
H3994 C3990 0.950 . S
C3995 C3993 1.390 . S
C3995 C3996 1.387 . S
C3995 H3998 0.950 . S
C3996 C3995 1.387 . S
C3996 C3999 1.387 . S
H3997 C3993 0.950 . S
H3998 C3995 0.950 . S
C3999 C3990 1.390 . S
C3999 H3992 0.950 . S
C3999 C3996 1.387 . S
C4000 C4001 1.387 . S
C4000 H4004 0.950 . S
C4000 C4009 1.390 . S
C4001 C4000 1.387 . S
C4001 C4003 1.387 . S
H4002 C4009 0.950 . S
C4003 C4001 1.387 . S
C4003 C4005 1.390 . S
C4003 H4007 0.950 . S
H4004 C4000 0.950 . S
C4005 C4003 1.390 . S
C4005 C4006 1.387 . S
C4005 H4008 0.950 . S
C4006 C4005 1.387 . S
C4006 C4009 1.387 . S
H4007 C4003 0.950 . S
H4008 C4005 0.950 . S
C4009 C4000 1.390 . S
C4009 H4002 0.950 . S
C4009 C4006 1.387 . S
C4010 C4011 1.387 . S
C4010 H4014 0.950 . S
C4010 C4019 1.390 . S
C4011 C4010 1.387 . S
C4011 C4013 1.387 . S
H4012 C4019 0.950 . S
C4013 C4011 1.387 . S
C4013 C4015 1.390 . S
C4013 H4017 0.950 . S
H4014 C4010 0.950 . S
C4015 C4013 1.390 . S
C4015 C4016 1.387 . S
C4015 H4018 0.950 . S
C4016 C4015 1.387 . S
C4016 C4019 1.387 . S
H4017 C4013 0.950 . S
H4018 C4015 0.950 . S
C4019 C4010 1.390 . S
C4019 H4012 0.950 . S
C4019 C4016 1.387 . S
C4020 C4021 1.387 . S
C4020 H4024 0.950 . S
C4020 C4029 1.390 . S
C4021 C4020 1.387 . S
C4021 C4023 1.387 . S
H4022 C4029 0.950 . S
C4023 C4021 1.387 . S
C4023 C4025 1.390 . S
C4023 H4027 0.950 . S
H4024 C4020 0.950 . S
C4025 C4023 1.390 . S
C4025 C4026 1.387 . S
C4025 H4028 0.950 . S
C4026 C4025 1.387 . S
C4026 C4029 1.387 . S
H4027 C4023 0.950 . S
H4028 C4025 0.950 . S
C4029 C4020 1.390 . S
C4029 H4022 0.950 . S
C4029 C4026 1.387 . S
C4030 C4031 1.387 . S
C4030 H4034 0.950 . S
C4030 C4039 1.390 . S
C4031 C4030 1.387 . S
C4031 C4033 1.387 . S
H4032 C4039 0.950 . S
C4033 C4031 1.387 . S
C4033 C4035 1.390 . S
C4033 H4037 0.950 . S
H4034 C4030 0.950 . S
C4035 C4033 1.390 . S
C4035 C4036 1.387 . S
C4035 H4038 0.950 . S
C4036 C4035 1.387 . S
C4036 C4039 1.387 . S
H4037 C4033 0.950 . S
H4038 C4035 0.950 . S
C4039 C4030 1.390 . S
C4039 H4032 0.950 . S
C4039 C4036 1.387 . S
C4040 C4041 1.387 . S
C4040 H4044 0.950 . S
C4040 C4049 1.390 . S
C4041 C4040 1.387 . S
C4041 C4043 1.387 . S
H4042 C4049 0.950 . S
C4043 C4041 1.387 . S
C4043 C4045 1.390 . S
C4043 H4047 0.950 . S
H4044 C4040 0.950 . S
C4045 C4043 1.390 . S
C4045 C4046 1.387 . S
C4045 H4048 0.950 . S
C4046 C4045 1.387 . S
C4046 C4049 1.387 . S
H4047 C4043 0.950 . S
H4048 C4045 0.950 . S
C4049 C4040 1.390 . S
C4049 H4042 0.950 . S
C4049 C4046 1.387 . S
C4050 C4051 1.387 . S
C4050 H4054 0.950 . S
C4050 C4059 1.390 . S
C4051 C4050 1.387 . S
C4051 C4053 1.387 . S
H4052 C4059 0.950 . S
C4053 C4051 1.387 . S
C4053 C4055 1.390 . S
C4053 H4057 0.950 . S
H4054 C4050 0.950 . S
C4055 C4053 1.390 . S
C4055 C4056 1.387 . S
C4055 H4058 0.950 . S
C4056 C4055 1.387 . S
C4056 C4059 1.387 . S
H4057 C4053 0.950 . S
H4058 C4055 0.950 . S
C4059 C4050 1.390 . S
C4059 H4052 0.950 . S
C4059 C4056 1.387 . S
C4060 C4061 1.387 . S
C4060 H4064 0.950 . S
C4060 C4069 1.390 . S
C4061 C4060 1.387 . S
C4061 C4063 1.387 . S
H4062 C4069 0.950 . S
C4063 C4061 1.387 . S
C4063 C4065 1.390 . S
C4063 H4067 0.950 . S
H4064 C4060 0.950 . S
C4065 C4063 1.390 . S
C4065 C4066 1.387 . S
C4065 H4068 0.950 . S
C4066 C4065 1.387 . S
C4066 C4069 1.387 . S
H4067 C4063 0.950 . S
H4068 C4065 0.950 . S
C4069 C4060 1.390 . S
C4069 H4062 0.950 . S
C4069 C4066 1.387 . S
C4070 C4071 1.387 . S
C4070 H4074 0.950 . S
C4070 C4079 1.390 . S
C4071 C4070 1.387 . S
C4071 C4073 1.387 . S
H4072 C4079 0.950 . S
C4073 C4071 1.387 . S
C4073 C4075 1.390 . S
C4073 H4077 0.950 . S
H4074 C4070 0.950 . S
C4075 C4073 1.390 . S
C4075 C4076 1.387 . S
C4075 H4078 0.950 . S
C4076 C4075 1.387 . S
C4076 C4079 1.387 . S
H4077 C4073 0.950 . S
H4078 C4075 0.950 . S
C4079 C4070 1.390 . S
C4079 H4072 0.950 . S
C4079 C4076 1.387 . S
C4080 C4081 1.387 . S
C4080 H4084 0.950 . S
C4080 C4089 1.390 . S
C4081 C4080 1.387 . S
C4081 C4083 1.387 . S
H4082 C4089 0.950 . S
C4083 C4081 1.387 . S
C4083 C4085 1.390 . S
C4083 H4087 0.950 . S
H4084 C4080 0.950 . S
C4085 C4083 1.390 . S
C4085 C4086 1.387 . S
C4085 H4088 0.950 . S
C4086 C4085 1.387 . S
C4086 C4089 1.387 . S
H4087 C4083 0.950 . S
H4088 C4085 0.950 . S
C4089 C4080 1.390 . S
C4089 H4082 0.950 . S
C4089 C4086 1.387 . S
C4090 C4091 1.387 . S
C4090 H4094 0.950 . S
C4090 C4099 1.390 . S
C4091 C4090 1.387 . S
C4091 C4093 1.387 . S
H4092 C4099 0.950 . S
C4093 C4091 1.387 . S
C4093 C4095 1.390 . S
C4093 H4097 0.950 . S
H4094 C4090 0.950 . S
C4095 C4093 1.390 . S
C4095 C4096 1.387 . S
C4095 H4098 0.950 . S
C4096 C4095 1.387 . S
C4096 C4099 1.387 . S
H4097 C4093 0.950 . S
H4098 C4095 0.950 . S
C4099 C4090 1.390 . S
C4099 H4092 0.950 . S
C4099 C4096 1.387 . S
C4100 C4101 1.387 . S
C4100 H4104 0.950 . S
C4100 C4109 1.390 . S
C4101 C4100 1.387 . S
C4101 C4103 1.387 . S
H4102 C4109 0.950 . S
C4103 C4101 1.387 . S
C4103 C4105 1.390 . S
C4103 H4107 0.950 . S
H4104 C4100 0.950 . S
C4105 C4103 1.390 . S
C4105 C4106 1.387 . S
C4105 H4108 0.950 . S
C4106 C4105 1.387 . S
C4106 C4109 1.387 . S
H4107 C4103 0.950 . S
H4108 C4105 0.950 . S
C4109 C4100 1.390 . S
C4109 H4102 0.950 . S
C4109 C4106 1.387 . S
C4110 C4111 1.387 . S
C4110 H4114 0.950 . S
C4110 C4119 1.390 . S
C4111 C4110 1.387 . S
C4111 C4113 1.387 . S
H4112 C4119 0.950 . S
C4113 C4111 1.387 . S
C4113 C4115 1.390 . S
C4113 H4117 0.950 . S
H4114 C4110 0.950 . S
C4115 C4113 1.390 . S
C4115 C4116 1.387 . S
C4115 H4118 0.950 . S
C4116 C4115 1.387 . S
C4116 C4119 1.387 . S
H4117 C4113 0.950 . S
H4118 C4115 0.950 . S
C4119 C4110 1.390 . S
C4119 H4112 0.950 . S
C4119 C4116 1.387 . S
C4120 C4121 1.387 . S
C4120 H4124 0.950 . S
C4120 C4129 1.390 . S
C4121 C4120 1.387 . S
C4121 C4123 1.387 . S
H4122 C4129 0.950 . S
C4123 C4121 1.387 . S
C4123 C4125 1.390 . S
C4123 H4127 0.950 . S
H4124 C4120 0.950 . S
C4125 C4123 1.390 . S
C4125 C4126 1.387 . S
C4125 H4128 0.950 . S
C4126 C4125 1.387 . S
C4126 C4129 1.387 . S
H4127 C4123 0.950 . S
H4128 C4125 0.950 . S
C4129 C4120 1.390 . S
C4129 H4122 0.950 . S
C4129 C4126 1.387 . S
C4130 C4131 1.387 . S
C4130 H4134 0.950 . S
C4130 C4139 1.390 . S
C4131 C4130 1.387 . S
C4131 C4133 1.387 . S
H4132 C4139 0.950 . S
C4133 C4131 1.387 . S
C4133 C4135 1.390 . S
C4133 H4137 0.950 . S
H4134 C4130 0.950 . S
C4135 C4133 1.390 . S
C4135 C4136 1.387 . S
C4135 H4138 0.950 . S
C4136 C4135 1.387 . S
C4136 C4139 1.387 . S
H4137 C4133 0.950 . S
H4138 C4135 0.950 . S
C4139 C4130 1.390 . S
C4139 H4132 0.950 . S
C4139 C4136 1.387 . S
C4140 C4141 1.387 . S
C4140 H4144 0.950 . S
C4140 C4149 1.390 . S
C4141 C4140 1.387 . S
C4141 C4143 1.387 . S
H4142 C4149 0.950 . S
C4143 C4141 1.387 . S
C4143 C4145 1.390 . S
C4143 H4147 0.950 . S
H4144 C4140 0.950 . S
C4145 C4143 1.390 . S
C4145 C4146 1.387 . S
C4145 H4148 0.950 . S
C4146 C4145 1.387 . S
C4146 C4149 1.387 . S
H4147 C4143 0.950 . S
H4148 C4145 0.950 . S
C4149 C4140 1.390 . S
C4149 H4142 0.950 . S
C4149 C4146 1.387 . S
C4150 C4151 1.387 . S
C4150 H4154 0.950 . S
C4150 C4159 1.390 . S
C4151 C4150 1.387 . S
C4151 C4153 1.387 . S
H4152 C4159 0.950 . S
C4153 C4151 1.387 . S
C4153 C4155 1.390 . S
C4153 H4157 0.950 . S
H4154 C4150 0.950 . S
C4155 C4153 1.390 . S
C4155 C4156 1.387 . S
C4155 H4158 0.950 . S
C4156 C4155 1.387 . S
C4156 C4159 1.387 . S
H4157 C4153 0.950 . S
H4158 C4155 0.950 . S
C4159 C4150 1.390 . S
C4159 H4152 0.950 . S
C4159 C4156 1.387 . S
C4160 C4161 1.387 . S
C4160 H4164 0.950 . S
C4160 C4169 1.390 . S
C4161 C4160 1.387 . S
C4161 C4163 1.387 . S
H4162 C4169 0.950 . S
C4163 C4161 1.387 . S
C4163 C4165 1.390 . S
C4163 H4167 0.950 . S
H4164 C4160 0.950 . S
C4165 C4163 1.390 . S
C4165 C4166 1.387 . S
C4165 H4168 0.950 . S
C4166 C4165 1.387 . S
C4166 C4169 1.387 . S
H4167 C4163 0.950 . S
H4168 C4165 0.950 . S
C4169 C4160 1.390 . S
C4169 H4162 0.950 . S
C4169 C4166 1.387 . S
C4170 C4171 1.387 . S
C4170 H4174 0.950 . S
C4170 C4179 1.390 . S
C4171 C4170 1.387 . S
C4171 C4173 1.387 . S
H4172 C4179 0.950 . S
C4173 C4171 1.387 . S
C4173 C4175 1.390 . S
C4173 H4177 0.950 . S
H4174 C4170 0.950 . S
C4175 C4173 1.390 . S
C4175 C4176 1.387 . S
C4175 H4178 0.950 . S
C4176 C4175 1.387 . S
C4176 C4179 1.387 . S
H4177 C4173 0.950 . S
H4178 C4175 0.950 . S
C4179 C4170 1.390 . S
C4179 H4172 0.950 . S
C4179 C4176 1.387 . S
C4180 C4181 1.387 . S
C4180 H4184 0.950 . S
C4180 C4189 1.390 . S
C4181 C4180 1.387 . S
C4181 C4183 1.387 . S
H4182 C4189 0.950 . S
C4183 C4181 1.387 . S
C4183 C4185 1.390 . S
C4183 H4187 0.950 . S
H4184 C4180 0.950 . S
C4185 C4183 1.390 . S
C4185 C4186 1.387 . S
C4185 H4188 0.950 . S
C4186 C4185 1.387 . S
C4186 C4189 1.387 . S
H4187 C4183 0.950 . S
H4188 C4185 0.950 . S
C4189 C4180 1.390 . S
C4189 H4182 0.950 . S
C4189 C4186 1.387 . S
C4190 C4191 1.387 . S
C4190 H4194 0.950 . S
C4190 C4199 1.390 . S
C4191 C4190 1.387 . S
C4191 C4193 1.387 . S
H4192 C4199 0.950 . S
C4193 C4191 1.387 . S
C4193 C4195 1.390 . S
C4193 H4197 0.950 . S
H4194 C4190 0.950 . S
C4195 C4193 1.390 . S
C4195 C4196 1.387 . S
C4195 H4198 0.950 . S
C4196 C4195 1.387 . S
C4196 C4199 1.387 . S
H4197 C4193 0.950 . S
H4198 C4195 0.950 . S
C4199 C4190 1.390 . S
C4199 H4192 0.950 . S
C4199 C4196 1.387 . S
C4200 C4201 1.387 . S
C4200 H4204 0.950 . S
C4200 C4209 1.390 . S
C4201 C4200 1.387 . S
C4201 C4203 1.387 . S
H4202 C4209 0.950 . S
C4203 C4201 1.387 . S
C4203 C4205 1.390 . S
C4203 H4207 0.950 . S
H4204 C4200 0.950 . S
C4205 C4203 1.390 . S
C4205 C4206 1.387 . S
C4205 H4208 0.950 . S
C4206 C4205 1.387 . S
C4206 C4209 1.387 . S
H4207 C4203 0.950 . S
H4208 C4205 0.950 . S
C4209 C4200 1.390 . S
C4209 H4202 0.950 . S
C4209 C4206 1.387 . S
C4210 C4211 1.387 . S
C4210 H4214 0.950 . S
C4210 C4219 1.390 . S
C4211 C4210 1.387 . S
C4211 C4213 1.387 . S
H4212 C4219 0.950 . S
C4213 C4211 1.387 . S
C4213 C4215 1.390 . S
C4213 H4217 0.950 . S
H4214 C4210 0.950 . S
C4215 C4213 1.390 . S
C4215 C4216 1.387 . S
C4215 H4218 0.950 . S
C4216 C4215 1.387 . S
C4216 C4219 1.387 . S
H4217 C4213 0.950 . S
H4218 C4215 0.950 . S
C4219 C4210 1.390 . S
C4219 H4212 0.950 . S
C4219 C4216 1.387 . S
C4220 C4221 1.387 . S
C4220 H4224 0.950 . S
C4220 C4229 1.390 . S
C4221 C4220 1.387 . S
C4221 C4223 1.387 . S
H4222 C4229 0.950 . S
C4223 C4221 1.387 . S
C4223 C4225 1.390 . S
C4223 H4227 0.950 . S
H4224 C4220 0.950 . S
C4225 C4223 1.390 . S
C4225 C4226 1.387 . S
C4225 H4228 0.950 . S
C4226 C4225 1.387 . S
C4226 C4229 1.387 . S
H4227 C4223 0.950 . S
H4228 C4225 0.950 . S
C4229 C4220 1.390 . S
C4229 H4222 0.950 . S
C4229 C4226 1.387 . S
C4230 C4231 1.387 . S
C4230 H4234 0.950 . S
C4230 C4239 1.390 . S
C4231 C4230 1.387 . S
C4231 C4233 1.387 . S
H4232 C4239 0.950 . S
C4233 C4231 1.387 . S
C4233 C4235 1.390 . S
C4233 H4237 0.950 . S
H4234 C4230 0.950 . S
C4235 C4233 1.390 . S
C4235 C4236 1.387 . S
C4235 H4238 0.950 . S
C4236 C4235 1.387 . S
C4236 C4239 1.387 . S
H4237 C4233 0.950 . S
H4238 C4235 0.950 . S
C4239 C4230 1.390 . S
C4239 H4232 0.950 . S
C4239 C4236 1.387 . S
C4240 C4241 1.387 . S
C4240 H4244 0.950 . S
C4240 C4249 1.390 . S
C4241 C4240 1.387 . S
C4241 C4243 1.387 . S
H4242 C4249 0.950 . S
C4243 C4241 1.387 . S
C4243 C4245 1.390 . S
C4243 H4247 0.950 . S
H4244 C4240 0.950 . S
C4245 C4243 1.390 . S
C4245 C4246 1.387 . S
C4245 H4248 0.950 . S
C4246 C4245 1.387 . S
C4246 C4249 1.387 . S
H4247 C4243 0.950 . S
H4248 C4245 0.950 . S
C4249 C4240 1.390 . S
C4249 H4242 0.950 . S
C4249 C4246 1.387 . S
C4250 C4251 1.387 . S
C4250 H4254 0.950 . S
C4250 C4259 1.390 . S
C4251 C4250 1.387 . S
C4251 C4253 1.387 . S
H4252 C4259 0.950 . S
C4253 C4251 1.387 . S
C4253 C4255 1.390 . S
C4253 H4257 0.950 . S
H4254 C4250 0.950 . S
C4255 C4253 1.390 . S
C4255 C4256 1.387 . S
C4255 H4258 0.950 . S
C4256 C4255 1.387 . S
C4256 C4259 1.387 . S
H4257 C4253 0.950 . S
H4258 C4255 0.950 . S
C4259 C4250 1.390 . S
C4259 H4252 0.950 . S
C4259 C4256 1.387 . S
C4260 C4261 1.387 . S
C4260 H4264 0.950 . S
C4260 C4269 1.390 . S
C4261 C4260 1.387 . S
C4261 C4263 1.387 . S
H4262 C4269 0.950 . S
C4263 C4261 1.387 . S
C4263 C4265 1.390 . S
C4263 H4267 0.950 . S
H4264 C4260 0.950 . S
C4265 C4263 1.390 . S
C4265 C4266 1.387 . S
C4265 H4268 0.950 . S
C4266 C4265 1.387 . S
C4266 C4269 1.387 . S
H4267 C4263 0.950 . S
H4268 C4265 0.950 . S
C4269 C4260 1.390 . S
C4269 H4262 0.950 . S
C4269 C4266 1.387 . S
C4270 C4271 1.387 . S
C4270 H4274 0.950 . S
C4270 C4279 1.390 . S
C4271 C4270 1.387 . S
C4271 C4273 1.387 . S
H4272 C4279 0.950 . S
C4273 C4271 1.387 . S
C4273 C4275 1.390 . S
C4273 H4277 0.950 . S
H4274 C4270 0.950 . S
C4275 C4273 1.390 . S
C4275 C4276 1.387 . S
C4275 H4278 0.950 . S
C4276 C4275 1.387 . S
C4276 C4279 1.387 . S
H4277 C4273 0.950 . S
H4278 C4275 0.950 . S
C4279 C4270 1.390 . S
C4279 H4272 0.950 . S
C4279 C4276 1.387 . S
C4280 C4281 1.387 . S
C4280 H4284 0.950 . S
C4280 C4289 1.390 . S
C4281 C4280 1.387 . S
C4281 C4283 1.387 . S
H4282 C4289 0.950 . S
C4283 C4281 1.387 . S
C4283 C4285 1.390 . S
C4283 H4287 0.950 . S
H4284 C4280 0.950 . S
C4285 C4283 1.390 . S
C4285 C4286 1.387 . S
C4285 H4288 0.950 . S
C4286 C4285 1.387 . S
C4286 C4289 1.387 . S
H4287 C4283 0.950 . S
H4288 C4285 0.950 . S
C4289 C4280 1.390 . S
C4289 H4282 0.950 . S
C4289 C4286 1.387 . S
C4290 C4291 1.387 . S
C4290 H4294 0.950 . S
C4290 C4299 1.390 . S
C4291 C4290 1.387 . S
C4291 C4293 1.387 . S
H4292 C4299 0.950 . S
C4293 C4291 1.387 . S
C4293 C4295 1.390 . S
C4293 H4297 0.950 . S
H4294 C4290 0.950 . S
C4295 C4293 1.390 . S
C4295 C4296 1.387 . S
C4295 H4298 0.950 . S
C4296 C4295 1.387 . S
C4296 C4299 1.387 . S
H4297 C4293 0.950 . S
H4298 C4295 0.950 . S
C4299 C4290 1.390 . S
C4299 H4292 0.950 . S
C4299 C4296 1.387 . S
C4300 C4301 1.387 . S
C4300 H4304 0.950 . S
C4300 C4309 1.390 . S
C4301 C4300 1.387 . S
C4301 C4303 1.387 . S
H4302 C4309 0.950 . S
C4303 C4301 1.387 . S
C4303 C4305 1.390 . S
C4303 H4307 0.950 . S
H4304 C4300 0.950 . S
C4305 C4303 1.390 . S
C4305 C4306 1.387 . S
C4305 H4308 0.950 . S
C4306 C4305 1.387 . S
C4306 C4309 1.387 . S
H4307 C4303 0.950 . S
H4308 C4305 0.950 . S
C4309 C4300 1.390 . S
C4309 H4302 0.950 . S
C4309 C4306 1.387 . S
C4310 C4311 1.387 . S
C4310 H4314 0.950 . S
C4310 C4319 1.390 . S
C4311 C4310 1.387 . S
C4311 C4313 1.387 . S
H4312 C4319 0.950 . S
C4313 C4311 1.387 . S
C4313 C4315 1.390 . S
C4313 H4317 0.950 . S
H4314 C4310 0.950 . S
C4315 C4313 1.390 . S
C4315 C4316 1.387 . S
C4315 H4318 0.950 . S
C4316 C4315 1.387 . S
C4316 C4319 1.387 . S
H4317 C4313 0.950 . S
H4318 C4315 0.950 . S
C4319 C4310 1.390 . S
C4319 H4312 0.950 . S
C4319 C4316 1.387 . S
C4320 C4321 1.387 . S
C4320 H4324 0.950 . S
C4320 C4329 1.390 . S
C4321 C4320 1.387 . S
C4321 C4323 1.387 . S
H4322 C4329 0.950 . S
C4323 C4321 1.387 . S
C4323 C4325 1.390 . S
C4323 H4327 0.950 . S
H4324 C4320 0.950 . S
C4325 C4323 1.390 . S
C4325 C4326 1.387 . S
C4325 H4328 0.950 . S
C4326 C4325 1.387 . S
C4326 C4329 1.387 . S
H4327 C4323 0.950 . S
H4328 C4325 0.950 . S
C4329 C4320 1.390 . S
C4329 H4322 0.950 . S
C4329 C4326 1.387 . S
C4330 C4331 1.387 . S
C4330 H4334 0.950 . S
C4330 C4339 1.390 . S
C4331 C4330 1.387 . S
C4331 C4333 1.387 . S
H4332 C4339 0.950 . S
C4333 C4331 1.387 . S
C4333 C4335 1.390 . S
C4333 H4337 0.950 . S
H4334 C4330 0.950 . S
C4335 C4333 1.390 . S
C4335 C4336 1.387 . S
C4335 H4338 0.950 . S
C4336 C4335 1.387 . S
C4336 C4339 1.387 . S
H4337 C4333 0.950 . S
H4338 C4335 0.950 . S
C4339 C4330 1.390 . S
C4339 H4332 0.950 . S
C4339 C4336 1.387 . S
C4340 C4341 1.387 . S
C4340 H4344 0.950 . S
C4340 C4349 1.390 . S
C4341 C4340 1.387 . S
C4341 C4343 1.387 . S
H4342 C4349 0.950 . S
C4343 C4341 1.387 . S
C4343 C4345 1.390 . S
C4343 H4347 0.950 . S
H4344 C4340 0.950 . S
C4345 C4343 1.390 . S
C4345 C4346 1.387 . S
C4345 H4348 0.950 . S
C4346 C4345 1.387 . S
C4346 C4349 1.387 . S
H4347 C4343 0.950 . S
H4348 C4345 0.950 . S
C4349 C4340 1.390 . S
C4349 H4342 0.950 . S
C4349 C4346 1.387 . S
C4350 C4351 1.387 . S
C4350 H4354 0.950 . S
C4350 C4359 1.390 . S
C4351 C4350 1.387 . S
C4351 C4353 1.387 . S
H4352 C4359 0.950 . S
C4353 C4351 1.387 . S
C4353 C4355 1.390 . S
C4353 H4357 0.950 . S
H4354 C4350 0.950 . S
C4355 C4353 1.390 . S
C4355 C4356 1.387 . S
C4355 H4358 0.950 . S
C4356 C4355 1.387 . S
C4356 C4359 1.387 . S
H4357 C4353 0.950 . S
H4358 C4355 0.950 . S
C4359 C4350 1.390 . S
C4359 H4352 0.950 . S
C4359 C4356 1.387 . S
C4360 C4361 1.387 . S
C4360 H4364 0.950 . S
C4360 C4369 1.390 . S
C4361 C4360 1.387 . S
C4361 C4363 1.387 . S
H4362 C4369 0.950 . S
C4363 C4361 1.387 . S
C4363 C4365 1.390 . S
C4363 H4367 0.950 . S
H4364 C4360 0.950 . S
C4365 C4363 1.390 . S
C4365 C4366 1.387 . S
C4365 H4368 0.950 . S
C4366 C4365 1.387 . S
C4366 C4369 1.387 . S
H4367 C4363 0.950 . S
H4368 C4365 0.950 . S
C4369 C4360 1.390 . S
C4369 H4362 0.950 . S
C4369 C4366 1.387 . S
C4370 C4371 1.387 . S
C4370 H4374 0.950 . S
C4370 C4379 1.390 . S
C4371 C4370 1.387 . S
C4371 C4373 1.387 . S
H4372 C4379 0.950 . S
C4373 C4371 1.387 . S
C4373 C4375 1.390 . S
C4373 H4377 0.950 . S
H4374 C4370 0.950 . S
C4375 C4373 1.390 . S
C4375 C4376 1.387 . S
C4375 H4378 0.950 . S
C4376 C4375 1.387 . S
C4376 C4379 1.387 . S
H4377 C4373 0.950 . S
H4378 C4375 0.950 . S
C4379 C4370 1.390 . S
C4379 H4372 0.950 . S
C4379 C4376 1.387 . S
C4380 C4381 1.387 . S
C4380 H4384 0.950 . S
C4380 C4389 1.390 . S
C4381 C4380 1.387 . S
C4381 C4383 1.387 . S
H4382 C4389 0.950 . S
C4383 C4381 1.387 . S
C4383 C4385 1.390 . S
C4383 H4387 0.950 . S
H4384 C4380 0.950 . S
C4385 C4383 1.390 . S
C4385 C4386 1.387 . S
C4385 H4388 0.950 . S
C4386 C4385 1.387 . S
C4386 C4389 1.387 . S
H4387 C4383 0.950 . S
H4388 C4385 0.950 . S
C4389 C4380 1.390 . S
C4389 H4382 0.950 . S
C4389 C4386 1.387 . S
C4390 C4391 1.387 . S
C4390 H4394 0.950 . S
C4390 C4399 1.390 . S
C4391 C4390 1.387 . S
C4391 C4393 1.387 . S
H4392 C4399 0.950 . S
C4393 C4391 1.387 . S
C4393 C4395 1.390 . S
C4393 H4397 0.950 . S
H4394 C4390 0.950 . S
C4395 C4393 1.390 . S
C4395 C4396 1.387 . S
C4395 H4398 0.950 . S
C4396 C4395 1.387 . S
C4396 C4399 1.387 . S
H4397 C4393 0.950 . S
H4398 C4395 0.950 . S
C4399 C4390 1.390 . S
C4399 H4392 0.950 . S
C4399 C4396 1.387 . S
C4400 C4401 1.387 . S
C4400 H4404 0.950 . S
C4400 C4409 1.390 . S
C4401 C4400 1.387 . S
C4401 C4403 1.387 . S
H4402 C4409 0.950 . S
C4403 C4401 1.387 . S
C4403 C4405 1.390 . S
C4403 H4407 0.950 . S
H4404 C4400 0.950 . S
C4405 C4403 1.390 . S
C4405 C4406 1.387 . S
C4405 H4408 0.950 . S
C4406 C4405 1.387 . S
C4406 C4409 1.387 . S
H4407 C4403 0.950 . S
H4408 C4405 0.950 . S
C4409 C4400 1.390 . S
C4409 H4402 0.950 . S
C4409 C4406 1.387 . S
C4410 C4411 1.387 . S
C4410 H4414 0.950 . S
C4410 C4419 1.390 . S
C4411 C4410 1.387 . S
C4411 C4413 1.387 . S
H4412 C4419 0.950 . S
C4413 C4411 1.387 . S
C4413 C4415 1.390 . S
C4413 H4417 0.950 . S
H4414 C4410 0.950 . S
C4415 C4413 1.390 . S
C4415 C4416 1.387 . S
C4415 H4418 0.950 . S
C4416 C4415 1.387 . S
C4416 C4419 1.387 . S
H4417 C4413 0.950 . S
H4418 C4415 0.950 . S
C4419 C4410 1.390 . S
C4419 H4412 0.950 . S
C4419 C4416 1.387 . S
C4420 C4421 1.387 . S
C4420 H4424 0.950 . S
C4420 C4429 1.390 . S
C4421 C4420 1.387 . S
C4421 C4423 1.387 . S
H4422 C4429 0.950 . S
C4423 C4421 1.387 . S
C4423 C4425 1.390 . S
C4423 H4427 0.950 . S
H4424 C4420 0.950 . S
C4425 C4423 1.390 . S
C4425 C4426 1.387 . S
C4425 H4428 0.950 . S
C4426 C4425 1.387 . S
C4426 C4429 1.387 . S
H4427 C4423 0.950 . S
H4428 C4425 0.950 . S
C4429 C4420 1.390 . S
C4429 H4422 0.950 . S
C4429 C4426 1.387 . S
C4430 C4431 1.387 . S
C4430 H4434 0.950 . S
C4430 C4439 1.390 . S
C4431 C4430 1.387 . S
C4431 C4433 1.387 . S
H4432 C4439 0.950 . S
C4433 C4431 1.387 . S
C4433 C4435 1.390 . S
C4433 H4437 0.950 . S
H4434 C4430 0.950 . S
C4435 C4433 1.390 . S
C4435 C4436 1.387 . S
C4435 H4438 0.950 . S
C4436 C4435 1.387 . S
C4436 C4439 1.387 . S
H4437 C4433 0.950 . S
H4438 C4435 0.950 . S
C4439 C4430 1.390 . S
C4439 H4432 0.950 . S
C4439 C4436 1.387 . S
C4440 C4441 1.387 . S
C4440 H4444 0.950 . S
C4440 C4449 1.390 . S
C4441 C4440 1.387 . S
C4441 C4443 1.387 . S
H4442 C4449 0.950 . S
C4443 C4441 1.387 . S
C4443 C4445 1.390 . S
C4443 H4447 0.950 . S
H4444 C4440 0.950 . S
C4445 C4443 1.390 . S
C4445 C4446 1.387 . S
C4445 H4448 0.950 . S
C4446 C4445 1.387 . S
C4446 C4449 1.387 . S
H4447 C4443 0.950 . S
H4448 C4445 0.950 . S
C4449 C4440 1.390 . S
C4449 H4442 0.950 . S
C4449 C4446 1.387 . S
C4450 C4451 1.387 . S
C4450 H4454 0.950 . S
C4450 C4459 1.390 . S
C4451 C4450 1.387 . S
C4451 C4453 1.387 . S
H4452 C4459 0.950 . S
C4453 C4451 1.387 . S
C4453 C4455 1.390 . S
C4453 H4457 0.950 . S
H4454 C4450 0.950 . S
C4455 C4453 1.390 . S
C4455 C4456 1.387 . S
C4455 H4458 0.950 . S
C4456 C4455 1.387 . S
C4456 C4459 1.387 . S
H4457 C4453 0.950 . S
H4458 C4455 0.950 . S
C4459 C4450 1.390 . S
C4459 H4452 0.950 . S
C4459 C4456 1.387 . S
C4460 C4461 1.387 . S
C4460 H4464 0.950 . S
C4460 C4469 1.390 . S
C4461 C4460 1.387 . S
C4461 C4463 1.387 . S
H4462 C4469 0.950 . S
C4463 C4461 1.387 . S
C4463 C4465 1.390 . S
C4463 H4467 0.950 . S
H4464 C4460 0.950 . S
C4465 C4463 1.390 . S
C4465 C4466 1.387 . S
C4465 H4468 0.950 . S
C4466 C4465 1.387 . S
C4466 C4469 1.387 . S
H4467 C4463 0.950 . S
H4468 C4465 0.950 . S
C4469 C4460 1.390 . S
C4469 H4462 0.950 . S
C4469 C4466 1.387 . S
C4470 C4471 1.387 . S
C4470 H4474 0.950 . S
C4470 C4479 1.390 . S
C4471 C4470 1.387 . S
C4471 C4473 1.387 . S
H4472 C4479 0.950 . S
C4473 C4471 1.387 . S
C4473 C4475 1.390 . S
C4473 H4477 0.950 . S
H4474 C4470 0.950 . S
C4475 C4473 1.390 . S
C4475 C4476 1.387 . S
C4475 H4478 0.950 . S
C4476 C4475 1.387 . S
C4476 C4479 1.387 . S
H4477 C4473 0.950 . S
H4478 C4475 0.950 . S
C4479 C4470 1.390 . S
C4479 H4472 0.950 . S
C4479 C4476 1.387 . S
C4480 C4481 1.387 . S
C4480 H4484 0.950 . S
C4480 C4489 1.390 . S
C4481 C4480 1.387 . S
C4481 C4483 1.387 . S
H4482 C4489 0.950 . S
C4483 C4481 1.387 . S
C4483 C4485 1.390 . S
C4483 H4487 0.950 . S
H4484 C4480 0.950 . S
C4485 C4483 1.390 . S
C4485 C4486 1.387 . S
C4485 H4488 0.950 . S
C4486 C4485 1.387 . S
C4486 C4489 1.387 . S
H4487 C4483 0.950 . S
H4488 C4485 0.950 . S
C4489 C4480 1.390 . S
C4489 H4482 0.950 . S
C4489 C4486 1.387 . S
C4490 C4491 1.387 . S
C4490 H4494 0.950 . S
C4490 C4499 1.390 . S
C4491 C4490 1.387 . S
C4491 C4493 1.387 . S
H4492 C4499 0.950 . S
C4493 C4491 1.387 . S
C4493 C4495 1.390 . S
C4493 H4497 0.950 . S
H4494 C4490 0.950 . S
C4495 C4493 1.390 . S
C4495 C4496 1.387 . S
C4495 H4498 0.950 . S
C4496 C4495 1.387 . S
C4496 C4499 1.387 . S
H4497 C4493 0.950 . S
H4498 C4495 0.950 . S
C4499 C4490 1.390 . S
C4499 H4492 0.950 . S
C4499 C4496 1.387 . S
C4500 C4501 1.387 . S
C4500 H4504 0.950 . S
C4500 C4509 1.390 . S
C4501 C4500 1.387 . S
C4501 C4503 1.387 . S
H4502 C4509 0.950 . S
C4503 C4501 1.387 . S
C4503 C4505 1.390 . S
C4503 H4507 0.950 . S
H4504 C4500 0.950 . S
C4505 C4503 1.390 . S
C4505 C4506 1.387 . S
C4505 H4508 0.950 . S
C4506 C4505 1.387 . S
C4506 C4509 1.387 . S
H4507 C4503 0.950 . S
H4508 C4505 0.950 . S
C4509 C4500 1.390 . S
C4509 H4502 0.950 . S
C4509 C4506 1.387 . S
C4510 C4511 1.387 . S
C4510 H4514 0.950 . S
C4510 C4519 1.390 . S
C4511 C4510 1.387 . S
C4511 C4513 1.387 . S
H4512 C4519 0.950 . S
C4513 C4511 1.387 . S
C4513 C4515 1.390 . S
C4513 H4517 0.950 . S
H4514 C4510 0.950 . S
C4515 C4513 1.390 . S
C4515 C4516 1.387 . S
C4515 H4518 0.950 . S
C4516 C4515 1.387 . S
C4516 C4519 1.387 . S
H4517 C4513 0.950 . S
H4518 C4515 0.950 . S
C4519 C4510 1.390 . S
C4519 H4512 0.950 . S
C4519 C4516 1.387 . S
C4520 C4521 1.387 . S
C4520 H4524 0.950 . S
C4520 C4529 1.390 . S
C4521 C4520 1.387 . S
C4521 C4523 1.387 . S
H4522 C4529 0.950 . S
C4523 C4521 1.387 . S
C4523 C4525 1.390 . S
C4523 H4527 0.950 . S
H4524 C4520 0.950 . S
C4525 C4523 1.390 . S
C4525 C4526 1.387 . S
C4525 H4528 0.950 . S
C4526 C4525 1.387 . S
C4526 C4529 1.387 . S
H4527 C4523 0.950 . S
H4528 C4525 0.950 . S
C4529 C4520 1.390 . S
C4529 H4522 0.950 . S
C4529 C4526 1.387 . S
C4530 C4531 1.387 . S
C4530 H4534 0.950 . S
C4530 C4539 1.390 . S
C4531 C4530 1.387 . S
C4531 C4533 1.387 . S
H4532 C4539 0.950 . S
C4533 C4531 1.387 . S
C4533 C4535 1.390 . S
C4533 H4537 0.950 . S
H4534 C4530 0.950 . S
C4535 C4533 1.390 . S
C4535 C4536 1.387 . S
C4535 H4538 0.950 . S
C4536 C4535 1.387 . S
C4536 C4539 1.387 . S
H4537 C4533 0.950 . S
H4538 C4535 0.950 . S
C4539 C4530 1.390 . S
C4539 H4532 0.950 . S
C4539 C4536 1.387 . S
C4540 C4541 1.387 . S
C4540 H4544 0.950 . S
C4540 C4549 1.390 . S
C4541 C4540 1.387 . S
C4541 C4543 1.387 . S
H4542 C4549 0.950 . S
C4543 C4541 1.387 . S
C4543 C4545 1.390 . S
C4543 H4547 0.950 . S
H4544 C4540 0.950 . S
C4545 C4543 1.390 . S
C4545 C4546 1.387 . S
C4545 H4548 0.950 . S
C4546 C4545 1.387 . S
C4546 C4549 1.387 . S
H4547 C4543 0.950 . S
H4548 C4545 0.950 . S
C4549 C4540 1.390 . S
C4549 H4542 0.950 . S
C4549 C4546 1.387 . S
C4550 C4551 1.387 . S
C4550 H4554 0.950 . S
C4550 C4559 1.390 . S
C4551 C4550 1.387 . S
C4551 C4553 1.387 . S
H4552 C4559 0.950 . S
C4553 C4551 1.387 . S
C4553 C4555 1.390 . S
C4553 H4557 0.950 . S
H4554 C4550 0.950 . S
C4555 C4553 1.390 . S
C4555 C4556 1.387 . S
C4555 H4558 0.950 . S
C4556 C4555 1.387 . S
C4556 C4559 1.387 . S
H4557 C4553 0.950 . S
H4558 C4555 0.950 . S
C4559 C4550 1.390 . S
C4559 H4552 0.950 . S
C4559 C4556 1.387 . S
C4560 C4561 1.387 . S
C4560 H4564 0.950 . S
C4560 C4569 1.390 . S
C4561 C4560 1.387 . S
C4561 C4563 1.387 . S
H4562 C4569 0.950 . S
C4563 C4561 1.387 . S
C4563 C4565 1.390 . S
C4563 H4567 0.950 . S
H4564 C4560 0.950 . S
C4565 C4563 1.390 . S
C4565 C4566 1.387 . S
C4565 H4568 0.950 . S
C4566 C4565 1.387 . S
C4566 C4569 1.387 . S
H4567 C4563 0.950 . S
H4568 C4565 0.950 . S
C4569 C4560 1.390 . S
C4569 H4562 0.950 . S
C4569 C4566 1.387 . S
C4570 C4571 1.387 . S
C4570 H4574 0.950 . S
C4570 C4579 1.390 . S
C4571 C4570 1.387 . S
C4571 C4573 1.387 . S
H4572 C4579 0.950 . S
C4573 C4571 1.387 . S
C4573 C4575 1.390 . S
C4573 H4577 0.950 . S
H4574 C4570 0.950 . S
C4575 C4573 1.390 . S
C4575 C4576 1.387 . S
C4575 H4578 0.950 . S
C4576 C4575 1.387 . S
C4576 C4579 1.387 . S
H4577 C4573 0.950 . S
H4578 C4575 0.950 . S
C4579 C4570 1.390 . S
C4579 H4572 0.950 . S
C4579 C4576 1.387 . S
C4580 C4581 1.387 . S
C4580 H4584 0.950 . S
C4580 C4589 1.390 . S
C4581 C4580 1.387 . S
C4581 C4583 1.387 . S
H4582 C4589 0.950 . S
C4583 C4581 1.387 . S
C4583 C4585 1.390 . S
C4583 H4587 0.950 . S
H4584 C4580 0.950 . S
C4585 C4583 1.390 . S
C4585 C4586 1.387 . S
C4585 H4588 0.950 . S
C4586 C4585 1.387 . S
C4586 C4589 1.387 . S
H4587 C4583 0.950 . S
H4588 C4585 0.950 . S
C4589 C4580 1.390 . S
C4589 H4582 0.950 . S
C4589 C4586 1.387 . S
C4590 C4591 1.387 . S
C4590 H4594 0.950 . S
C4590 C4599 1.390 . S
C4591 C4590 1.387 . S
C4591 C4593 1.387 . S
H4592 C4599 0.950 . S
C4593 C4591 1.387 . S
C4593 C4595 1.390 . S
C4593 H4597 0.950 . S
H4594 C4590 0.950 . S
C4595 C4593 1.390 . S
C4595 C4596 1.387 . S
C4595 H4598 0.950 . S
C4596 C4595 1.387 . S
C4596 C4599 1.387 . S
H4597 C4593 0.950 . S
H4598 C4595 0.950 . S
C4599 C4590 1.390 . S
C4599 H4592 0.950 . S
C4599 C4596 1.387 . S
C4600 C4601 1.387 . S
C4600 H4604 0.950 . S
C4600 C4609 1.390 . S
C4601 C4600 1.387 . S
C4601 C4603 1.387 . S
H4602 C4609 0.950 . S
C4603 C4601 1.387 . S
C4603 C4605 1.390 . S
C4603 H4607 0.950 . S
H4604 C4600 0.950 . S
C4605 C4603 1.390 . S
C4605 C4606 1.387 . S
C4605 H4608 0.950 . S
C4606 C4605 1.387 . S
C4606 C4609 1.387 . S
H4607 C4603 0.950 . S
H4608 C4605 0.950 . S
C4609 C4600 1.390 . S
C4609 H4602 0.950 . S
C4609 C4606 1.387 . S
C4610 C4611 1.387 . S
C4610 H4614 0.950 . S
C4610 C4619 1.390 . S
C4611 C4610 1.387 . S
C4611 C4613 1.387 . S
H4612 C4619 0.950 . S
C4613 C4611 1.387 . S
C4613 C4615 1.390 . S
C4613 H4617 0.950 . S
H4614 C4610 0.950 . S
C4615 C4613 1.390 . S
C4615 C4616 1.387 . S
C4615 H4618 0.950 . S
C4616 C4615 1.387 . S
C4616 C4619 1.387 . S
H4617 C4613 0.950 . S
H4618 C4615 0.950 . S
C4619 C4610 1.390 . S
C4619 H4612 0.950 . S
C4619 C4616 1.387 . S
C4620 C4621 1.387 . S
C4620 H4624 0.950 . S
C4620 C4629 1.390 . S
C4621 C4620 1.387 . S
C4621 C4623 1.387 . S
H4622 C4629 0.950 . S
C4623 C4621 1.387 . S
C4623 C4625 1.390 . S
C4623 H4627 0.950 . S
H4624 C4620 0.950 . S
C4625 C4623 1.390 . S
C4625 C4626 1.387 . S
C4625 H4628 0.950 . S
C4626 C4625 1.387 . S
C4626 C4629 1.387 . S
H4627 C4623 0.950 . S
H4628 C4625 0.950 . S
C4629 C4620 1.390 . S
C4629 H4622 0.950 . S
C4629 C4626 1.387 . S
C4630 C4631 1.387 . S
C4630 H4634 0.950 . S
C4630 C4639 1.390 . S
C4631 C4630 1.387 . S
C4631 C4633 1.387 . S
H4632 C4639 0.950 . S
C4633 C4631 1.387 . S
C4633 C4635 1.390 . S
C4633 H4637 0.950 . S
H4634 C4630 0.950 . S
C4635 C4633 1.390 . S
C4635 C4636 1.387 . S
C4635 H4638 0.950 . S
C4636 C4635 1.387 . S
C4636 C4639 1.387 . S
H4637 C4633 0.950 . S
H4638 C4635 0.950 . S
C4639 C4630 1.390 . S
C4639 H4632 0.950 . S
C4639 C4636 1.387 . S
C4640 C4641 1.387 . S
C4640 H4644 0.950 . S
C4640 C4649 1.390 . S
C4641 C4640 1.387 . S
C4641 C4643 1.387 . S
H4642 C4649 0.950 . S
C4643 C4641 1.387 . S
C4643 C4645 1.390 . S
C4643 H4647 0.950 . S
H4644 C4640 0.950 . S
C4645 C4643 1.390 . S
C4645 C4646 1.387 . S
C4645 H4648 0.950 . S
C4646 C4645 1.387 . S
C4646 C4649 1.387 . S
H4647 C4643 0.950 . S
H4648 C4645 0.950 . S
C4649 C4640 1.390 . S
C4649 H4642 0.950 . S
C4649 C4646 1.387 . S
C4650 C4651 1.387 . S
C4650 H4654 0.950 . S
C4650 C4659 1.390 . S
C4651 C4650 1.387 . S
C4651 C4653 1.387 . S
H4652 C4659 0.950 . S
C4653 C4651 1.387 . S
C4653 C4655 1.390 . S
C4653 H4657 0.950 . S
H4654 C4650 0.950 . S
C4655 C4653 1.390 . S
C4655 C4656 1.387 . S
C4655 H4658 0.950 . S
C4656 C4655 1.387 . S
C4656 C4659 1.387 . S
H4657 C4653 0.950 . S
H4658 C4655 0.950 . S
C4659 C4650 1.390 . S
C4659 H4652 0.950 . S
C4659 C4656 1.387 . S
C4660 C4661 1.387 . S
C4660 H4664 0.950 . S
C4660 C4669 1.390 . S
C4661 C4660 1.387 . S
C4661 C4663 1.387 . S
H4662 C4669 0.950 . S
C4663 C4661 1.387 . S
C4663 C4665 1.390 . S
C4663 H4667 0.950 . S
H4664 C4660 0.950 . S
C4665 C4663 1.390 . S
C4665 C4666 1.387 . S
C4665 H4668 0.950 . S
C4666 C4665 1.387 . S
C4666 C4669 1.387 . S
H4667 C4663 0.950 . S
H4668 C4665 0.950 . S
C4669 C4660 1.390 . S
C4669 H4662 0.950 . S
C4669 C4666 1.387 . S
C4670 C4671 1.387 . S
C4670 H4674 0.950 . S
C4670 C4679 1.390 . S
C4671 C4670 1.387 . S
C4671 C4673 1.387 . S
H4672 C4679 0.950 . S
C4673 C4671 1.387 . S
C4673 C4675 1.390 . S
C4673 H4677 0.950 . S
H4674 C4670 0.950 . S
C4675 C4673 1.390 . S
C4675 C4676 1.387 . S
C4675 H4678 0.950 . S
C4676 C4675 1.387 . S
C4676 C4679 1.387 . S
H4677 C4673 0.950 . S
H4678 C4675 0.950 . S
C4679 C4670 1.390 . S
C4679 H4672 0.950 . S
C4679 C4676 1.387 . S
C4680 C4681 1.387 . S
C4680 H4684 0.950 . S
C4680 C4689 1.390 . S
C4681 C4680 1.387 . S
C4681 C4683 1.387 . S
H4682 C4689 0.950 . S
C4683 C4681 1.387 . S
C4683 C4685 1.390 . S
C4683 H4687 0.950 . S
H4684 C4680 0.950 . S
C4685 C4683 1.390 . S
C4685 C4686 1.387 . S
C4685 H4688 0.950 . S
C4686 C4685 1.387 . S
C4686 C4689 1.387 . S
H4687 C4683 0.950 . S
H4688 C4685 0.950 . S
C4689 C4680 1.390 . S
C4689 H4682 0.950 . S
C4689 C4686 1.387 . S
C4690 C4691 1.387 . S
C4690 H4694 0.950 . S
C4690 C4699 1.390 . S
C4691 C4690 1.387 . S
C4691 C4693 1.387 . S
H4692 C4699 0.950 . S
C4693 C4691 1.387 . S
C4693 C4695 1.390 . S
C4693 H4697 0.950 . S
H4694 C4690 0.950 . S
C4695 C4693 1.390 . S
C4695 C4696 1.387 . S
C4695 H4698 0.950 . S
C4696 C4695 1.387 . S
C4696 C4699 1.387 . S
H4697 C4693 0.950 . S
H4698 C4695 0.950 . S
C4699 C4690 1.390 . S
C4699 H4692 0.950 . S
C4699 C4696 1.387 . S
C4700 C4701 1.387 . S
C4700 H4704 0.950 . S
C4700 C4709 1.390 . S
C4701 C4700 1.387 . S
C4701 C4703 1.387 . S
H4702 C4709 0.950 . S
C4703 C4701 1.387 . S
C4703 C4705 1.390 . S
C4703 H4707 0.950 . S
H4704 C4700 0.950 . S
C4705 C4703 1.390 . S
C4705 C4706 1.387 . S
C4705 H4708 0.950 . S
C4706 C4705 1.387 . S
C4706 C4709 1.387 . S
H4707 C4703 0.950 . S
H4708 C4705 0.950 . S
C4709 C4700 1.390 . S
C4709 H4702 0.950 . S
C4709 C4706 1.387 . S
C4710 C4711 1.387 . S
C4710 H4714 0.950 . S
C4710 C4719 1.390 . S
C4711 C4710 1.387 . S
C4711 C4713 1.387 . S
H4712 C4719 0.950 . S
C4713 C4711 1.387 . S
C4713 C4715 1.390 . S
C4713 H4717 0.950 . S
H4714 C4710 0.950 . S
C4715 C4713 1.390 . S
C4715 C4716 1.387 . S
C4715 H4718 0.950 . S
C4716 C4715 1.387 . S
C4716 C4719 1.387 . S
H4717 C4713 0.950 . S
H4718 C4715 0.950 . S
C4719 C4710 1.390 . S
C4719 H4712 0.950 . S
C4719 C4716 1.387 . S
C4720 C4721 1.387 . S
C4720 H4724 0.950 . S
C4720 C4729 1.390 . S
C4721 C4720 1.387 . S
C4721 C4723 1.387 . S
H4722 C4729 0.950 . S
C4723 C4721 1.387 . S
C4723 C4725 1.390 . S
C4723 H4727 0.950 . S
H4724 C4720 0.950 . S
C4725 C4723 1.390 . S
C4725 C4726 1.387 . S
C4725 H4728 0.950 . S
C4726 C4725 1.387 . S
C4726 C4729 1.387 . S
H4727 C4723 0.950 . S
H4728 C4725 0.950 . S
C4729 C4720 1.390 . S
C4729 H4722 0.950 . S
C4729 C4726 1.387 . S
C4730 C4731 1.387 . S
C4730 H4734 0.950 . S
C4730 C4739 1.390 . S
C4731 C4730 1.387 . S
C4731 C4733 1.387 . S
H4732 C4739 0.950 . S
C4733 C4731 1.387 . S
C4733 C4735 1.390 . S
C4733 H4737 0.950 . S
H4734 C4730 0.950 . S
C4735 C4733 1.390 . S
C4735 C4736 1.387 . S
C4735 H4738 0.950 . S
C4736 C4735 1.387 . S
C4736 C4739 1.387 . S
H4737 C4733 0.950 . S
H4738 C4735 0.950 . S
C4739 C4730 1.390 . S
C4739 H4732 0.950 . S
C4739 C4736 1.387 . S
C4740 C4741 1.387 . S
C4740 H4744 0.950 . S
C4740 C4749 1.390 . S
C4741 C4740 1.387 . S
C4741 C4743 1.387 . S
H4742 C4749 0.950 . S
C4743 C4741 1.387 . S
C4743 C4745 1.390 . S
C4743 H4747 0.950 . S
H4744 C4740 0.950 . S
C4745 C4743 1.390 . S
C4745 C4746 1.387 . S
C4745 H4748 0.950 . S
C4746 C4745 1.387 . S
C4746 C4749 1.387 . S
H4747 C4743 0.950 . S
H4748 C4745 0.950 . S
C4749 C4740 1.390 . S
C4749 H4742 0.950 . S
C4749 C4746 1.387 . S
C4750 C4751 1.387 . S
C4750 H4754 0.950 . S
C4750 C4759 1.390 . S
C4751 C4750 1.387 . S
C4751 C4753 1.387 . S
H4752 C4759 0.950 . S
C4753 C4751 1.387 . S
C4753 C4755 1.390 . S
C4753 H4757 0.950 . S
H4754 C4750 0.950 . S
C4755 C4753 1.390 . S
C4755 C4756 1.387 . S
C4755 H4758 0.950 . S
C4756 C4755 1.387 . S
C4756 C4759 1.387 . S
H4757 C4753 0.950 . S
H4758 C4755 0.950 . S
C4759 C4750 1.390 . S
C4759 H4752 0.950 . S
C4759 C4756 1.387 . S
C4760 C4761 1.387 . S
C4760 H4764 0.950 . S
C4760 C4769 1.390 . S
C4761 C4760 1.387 . S
C4761 C4763 1.387 . S
H4762 C4769 0.950 . S
C4763 C4761 1.387 . S
C4763 C4765 1.390 . S
C4763 H4767 0.950 . S
H4764 C4760 0.950 . S
C4765 C4763 1.390 . S
C4765 C4766 1.387 . S
C4765 H4768 0.950 . S
C4766 C4765 1.387 . S
C4766 C4769 1.387 . S
H4767 C4763 0.950 . S
H4768 C4765 0.950 . S
C4769 C4760 1.390 . S
C4769 H4762 0.950 . S
C4769 C4766 1.387 . S
C4770 C4771 1.387 . S
C4770 H4774 0.950 . S
C4770 C4779 1.390 . S
C4771 C4770 1.387 . S
C4771 C4773 1.387 . S
H4772 C4779 0.950 . S
C4773 C4771 1.387 . S
C4773 C4775 1.390 . S
C4773 H4777 0.950 . S
H4774 C4770 0.950 . S
C4775 C4773 1.390 . S
C4775 C4776 1.387 . S
C4775 H4778 0.950 . S
C4776 C4775 1.387 . S
C4776 C4779 1.387 . S
H4777 C4773 0.950 . S
H4778 C4775 0.950 . S
C4779 C4770 1.390 . S
C4779 H4772 0.950 . S
C4779 C4776 1.387 . S
C4780 C4781 1.387 . S
C4780 H4784 0.950 . S
C4780 C4789 1.390 . S
C4781 C4780 1.387 . S
C4781 C4783 1.387 . S
H4782 C4789 0.950 . S
C4783 C4781 1.387 . S
C4783 C4785 1.390 . S
C4783 H4787 0.950 . S
H4784 C4780 0.950 . S
C4785 C4783 1.390 . S
C4785 C4786 1.387 . S
C4785 H4788 0.950 . S
C4786 C4785 1.387 . S
C4786 C4789 1.387 . S
H4787 C4783 0.950 . S
H4788 C4785 0.950 . S
C4789 C4780 1.390 . S
C4789 H4782 0.950 . S
C4789 C4786 1.387 . S
C4790 C4791 1.387 . S
C4790 H4794 0.950 . S
C4790 C4799 1.390 . S
C4791 C4790 1.387 . S
C4791 C4793 1.387 . S
H4792 C4799 0.950 . S
C4793 C4791 1.387 . S
C4793 C4795 1.390 . S
C4793 H4797 0.950 . S
H4794 C4790 0.950 . S
C4795 C4793 1.390 . S
C4795 C4796 1.387 . S
C4795 H4798 0.950 . S
C4796 C4795 1.387 . S
C4796 C4799 1.387 . S
H4797 C4793 0.950 . S
H4798 C4795 0.950 . S
C4799 C4790 1.390 . S
C4799 H4792 0.950 . S
C4799 C4796 1.387 . S
C4800 C4801 1.387 . S
C4800 H4804 0.950 . S
C4800 C4809 1.390 1_655 S
C4801 C4800 1.387 . S
C4801 C4803 1.387 . S
H4802 C4809 0.950 . S
C4803 C4801 1.387 . S
C4803 C4805 1.390 1_655 S
C4803 H4807 0.950 . S
H4804 C4800 0.950 . S
C4805 C4803 1.390 1_455 S
C4805 C4806 1.387 . S
C4805 H4808 0.950 . S
C4806 C4805 1.387 . S
C4806 C4809 1.387 . S
H4807 C4803 0.950 . S
H4808 C4805 0.950 . S
C4809 C4800 1.390 1_455 S
C4809 H4802 0.950 . S
C4809 C4806 1.387 . S
C4810 C4811 1.387 . S
C4810 H4814 0.950 . S
C4810 C4819 1.390 1_565 S
C4811 C4810 1.387 . S
C4811 C4813 1.387 . S
H4812 C4819 0.950 . S
C4813 C4811 1.387 . S
C4813 C4815 1.390 1_565 S
C4813 H4817 0.950 . S
H4814 C4810 0.950 . S
C4815 C4813 1.390 1_545 S
C4815 C4816 1.387 . S
C4815 H4818 0.950 . S
C4816 C4815 1.387 . S
C4816 C4819 1.387 . S
H4817 C4813 0.950 . S
H4818 C4815 0.950 . S
C4819 C4810 1.390 1_545 S
C4819 H4812 0.950 . S
C4819 C4816 1.387 . S
C4820 C4821 1.387 . S
C4820 H4824 0.950 . S
C4820 C4829 1.390 1_455 S
C4821 C4820 1.387 . S
C4821 C4823 1.387 . S
H4822 C4829 0.950 . S
C4823 C4821 1.387 . S
C4823 C4825 1.390 1_455 S
C4823 H4827 0.950 . S
H4824 C4820 0.950 . S
C4825 C4823 1.390 1_655 S
C4825 C4826 1.387 . S
C4825 H4828 0.950 . S
C4826 C4825 1.387 . S
C4826 C4829 1.387 . S
H4827 C4823 0.950 . S
H4828 C4825 0.950 . S
C4829 C4820 1.390 1_655 S
C4829 H4822 0.950 . S
C4829 C4826 1.387 . S
C4830 C4831 1.387 . S
C4830 H4834 0.950 . S
C4830 C4839 1.390 1_545 S
C4831 C4830 1.387 . S
C4831 C4833 1.387 . S
H4832 C4839 0.950 . S
C4833 C4831 1.387 . S
C4833 C4835 1.390 1_545 S
C4833 H4837 0.950 . S
H4834 C4830 0.950 . S
C4835 C4833 1.390 1_565 S
C4835 C4836 1.387 . S
C4835 H4838 0.950 . S
C4836 C4835 1.387 . S
C4836 C4839 1.387 . S
H4837 C4833 0.950 . S
H4838 C4835 0.950 . S
C4839 C4830 1.390 1_565 S
C4839 H4832 0.950 . S
C4839 C4836 1.387 . S
C4840 C4841 1.387 . S
C4840 H4844 0.950 . S
C4840 C4849 1.390 1_655 S
C4841 C4840 1.387 . S
C4841 C4843 1.387 . S
H4842 C4849 0.950 . S
C4843 C4841 1.387 . S
C4843 C4845 1.390 1_655 S
C4843 H4847 0.950 . S
H4844 C4840 0.950 . S
C4845 C4843 1.390 1_455 S
C4845 C4846 1.387 . S
C4845 H4848 0.950 . S
C4846 C4845 1.387 . S
C4846 C4849 1.387 . S
H4847 C4843 0.950 . S
H4848 C4845 0.950 . S
C4849 C4840 1.390 1_455 S
C4849 H4842 0.950 . S
C4849 C4846 1.387 . S
C4850 C4851 1.387 . S
C4850 H4854 0.950 . S
C4850 C4859 1.390 1_545 S
C4851 C4850 1.387 . S
C4851 C4853 1.387 . S
H4852 C4859 0.950 . S
C4853 C4851 1.387 . S
C4853 C4855 1.390 1_545 S
C4853 H4857 0.950 . S
H4854 C4850 0.950 . S
C4855 C4853 1.390 1_565 S
C4855 C4856 1.387 . S
C4855 H4858 0.950 . S
C4856 C4855 1.387 . S
C4856 C4859 1.387 . S
H4857 C4853 0.950 . S
H4858 C4855 0.950 . S
C4859 C4850 1.390 1_565 S
C4859 H4852 0.950 . S
C4859 C4856 1.387 . S
C4860 C4861 1.387 . S
C4860 H4864 0.950 . S
C4860 C4869 1.390 1_655 S
C4861 C4860 1.387 . S
C4861 C4863 1.387 . S
H4862 C4869 0.950 . S
C4863 C4861 1.387 . S
C4863 C4865 1.390 1_655 S
C4863 H4867 0.950 . S
H4864 C4860 0.950 . S
C4865 C4863 1.390 1_455 S
C4865 C4866 1.387 . S
C4865 H4868 0.950 . S
C4866 C4865 1.387 . S
C4866 C4869 1.387 . S
H4867 C4863 0.950 . S
H4868 C4865 0.950 . S
C4869 C4860 1.390 1_455 S
C4869 H4862 0.950 . S
C4869 C4866 1.387 . S
C4870 C4871 1.387 . S
C4870 H4874 0.950 . S
C4870 C4879 1.390 1_545 S
C4871 C4870 1.387 . S
C4871 C4873 1.387 . S
H4872 C4879 0.950 . S
C4873 C4871 1.387 . S
C4873 C4875 1.390 1_545 S
C4873 H4877 0.950 . S
H4874 C4870 0.950 . S
C4875 C4873 1.390 1_565 S
C4875 C4876 1.387 . S
C4875 H4878 0.950 . S
C4876 C4875 1.387 . S
C4876 C4879 1.387 . S
H4877 C4873 0.950 . S
H4878 C4875 0.950 . S
C4879 C4870 1.390 1_565 S
C4879 H4872 0.950 . S
C4879 C4876 1.387 . S
C4880 C4881 1.387 . S
C4880 H4884 0.950 . S
C4880 C4889 1.390 1_565 S
C4881 C4880 1.387 . S
C4881 C4883 1.387 . S
H4882 C4889 0.950 . S
C4883 C4881 1.387 . S
C4883 C4885 1.390 1_565 S
C4883 H4887 0.950 . S
H4884 C4880 0.950 . S
C4885 C4883 1.390 1_545 S
C4885 C4886 1.387 . S
C4885 H4888 0.950 . S
C4886 C4885 1.387 . S
C4886 C4889 1.387 . S
H4887 C4883 0.950 . S
H4888 C4885 0.950 . S
C4889 C4880 1.390 1_545 S
C4889 H4882 0.950 . S
C4889 C4886 1.387 . S
C4890 C4891 1.387 . S
C4890 H4894 0.950 . S
C4890 C4899 1.390 1_655 S
C4891 C4890 1.387 . S
C4891 C4893 1.387 . S
H4892 C4899 0.950 . S
C4893 C4891 1.387 . S
C4893 C4895 1.390 1_655 S
C4893 H4897 0.950 . S
H4894 C4890 0.950 . S
C4895 C4893 1.390 1_455 S
C4895 C4896 1.387 . S
C4895 H4898 0.950 . S
C4896 C4895 1.387 . S
C4896 C4899 1.387 . S
H4897 C4893 0.950 . S
H4898 C4895 0.950 . S
C4899 C4890 1.390 1_455 S
C4899 H4892 0.950 . S
C4899 C4896 1.387 . S
C4900 C4901 1.387 . S
C4900 H4904 0.950 . S
C4900 C4909 1.390 1_565 S
C4901 C4900 1.387 . S
C4901 C4903 1.387 . S
H4902 C4909 0.950 . S
C4903 C4901 1.387 . S
C4903 C4905 1.390 1_565 S
C4903 H4907 0.950 . S
H4904 C4900 0.950 . S
C4905 C4903 1.390 1_545 S
C4905 C4906 1.387 . S
C4905 H4908 0.950 . S
C4906 C4905 1.387 . S
C4906 C4909 1.387 . S
H4907 C4903 0.950 . S
H4908 C4905 0.950 . S
C4909 C4900 1.390 1_545 S
C4909 H4902 0.950 . S
C4909 C4906 1.387 . S
C4910 C4911 1.387 . S
C4910 H4914 0.950 . S
C4910 C4919 1.390 1_655 S
C4911 C4910 1.387 . S
C4911 C4913 1.387 . S
H4912 C4919 0.950 . S
C4913 C4911 1.387 . S
C4913 C4915 1.390 1_655 S
C4913 H4917 0.950 . S
H4914 C4910 0.950 . S
C4915 C4913 1.390 1_455 S
C4915 C4916 1.387 . S
C4915 H4918 0.950 . S
C4916 C4915 1.387 . S
C4916 C4919 1.387 . S
H4917 C4913 0.950 . S
H4918 C4915 0.950 . S
C4919 C4910 1.390 1_455 S
C4919 H4912 0.950 . S
C4919 C4916 1.387 . S
C4920 C4921 1.387 . S
C4920 H4924 0.950 . S
C4920 C4929 1.390 1_565 S
C4921 C4920 1.387 . S
C4921 C4923 1.387 . S
H4922 C4929 0.950 . S
C4923 C4921 1.387 . S
C4923 C4925 1.390 1_565 S
C4923 H4927 0.950 . S
H4924 C4920 0.950 . S
C4925 C4923 1.390 1_545 S
C4925 C4926 1.387 . S
C4925 H4928 0.950 . S
C4926 C4925 1.387 . S
C4926 C4929 1.387 . S
H4927 C4923 0.950 . S
H4928 C4925 0.950 . S
C4929 C4920 1.390 1_545 S
C4929 H4922 0.950 . S
C4929 C4926 1.387 . S
C4930 C4931 1.387 . S
C4930 H4934 0.950 . S
C4930 C4939 1.390 1_455 S
C4931 C4930 1.387 . S
C4931 C4933 1.387 . S
H4932 C4939 0.950 . S
C4933 C4931 1.387 . S
C4933 C4935 1.390 1_455 S
C4933 H4937 0.950 . S
H4934 C4930 0.950 . S
C4935 C4933 1.390 1_655 S
C4935 C4936 1.387 . S
C4935 H4938 0.950 . S
C4936 C4935 1.387 . S
C4936 C4939 1.387 . S
H4937 C4933 0.950 . S
H4938 C4935 0.950 . S
C4939 C4930 1.390 1_655 S
C4939 H4932 0.950 . S
C4939 C4936 1.387 . S
C4940 C4941 1.387 . S
C4940 H4944 0.950 . S
C4940 C4949 1.390 1_545 S
C4941 C4940 1.387 . S
C4941 C4943 1.387 . S
H4942 C4949 0.950 . S
C4943 C4941 1.387 . S
C4943 C4945 1.390 1_545 S
C4943 H4947 0.950 . S
H4944 C4940 0.950 . S
C4945 C4943 1.390 1_565 S
C4945 C4946 1.387 . S
C4945 H4948 0.950 . S
C4946 C4945 1.387 . S
C4946 C4949 1.387 . S
H4947 C4943 0.950 . S
H4948 C4945 0.950 . S
C4949 C4940 1.390 1_565 S
C4949 H4942 0.950 . S
C4949 C4946 1.387 . S
C4950 C4951 1.387 . S
C4950 H4954 0.950 . S
C4950 C4959 1.390 1_455 S
C4951 C4950 1.387 . S
C4951 C4953 1.387 . S
H4952 C4959 0.950 . S
C4953 C4951 1.387 . S
C4953 C4955 1.390 1_455 S
C4953 H4957 0.950 . S
H4954 C4950 0.950 . S
C4955 C4953 1.390 1_655 S
C4955 C4956 1.387 . S
C4955 H4958 0.950 . S
C4956 C4955 1.387 . S
C4956 C4959 1.387 . S
H4957 C4953 0.950 . S
H4958 C4955 0.950 . S
C4959 C4950 1.390 1_655 S
C4959 H4952 0.950 . S
C4959 C4956 1.387 . S
C4960 C4961 1.387 . S
C4960 H4964 0.950 . S
C4960 C4969 1.390 1_556 S
C4961 C4960 1.387 . S
C4961 C4963 1.387 . S
H4962 C4969 0.950 . S
C4963 C4961 1.387 . S
C4963 C4965 1.390 1_556 S
C4963 H4967 0.950 . S
H4964 C4960 0.950 . S
C4965 C4963 1.390 1_554 S
C4965 C4966 1.387 . S
C4965 H4968 0.950 . S
C4966 C4965 1.387 . S
C4966 C4969 1.387 . S
H4967 C4963 0.950 . S
H4968 C4965 0.950 . S
C4969 C4960 1.390 1_554 S
C4969 H4962 0.950 . S
C4969 C4966 1.387 . S
C4970 C4971 1.387 . S
C4970 H4974 0.950 . S
C4970 C4979 1.390 1_554 S
C4971 C4970 1.387 . S
C4971 C4973 1.387 . S
H4972 C4979 0.950 . S
C4973 C4971 1.387 . S
C4973 C4975 1.390 1_554 S
C4973 H4977 0.950 . S
H4974 C4970 0.950 . S
C4975 C4973 1.390 1_556 S
C4975 C4976 1.387 . S
C4975 H4978 0.950 . S
C4976 C4975 1.387 . S
C4976 C4979 1.387 . S
H4977 C4973 0.950 . S
H4978 C4975 0.950 . S
C4979 C4970 1.390 1_556 S
C4979 H4972 0.950 . S
C4979 C4976 1.387 . S
C4980 C4981 1.387 . S
C4980 H4984 0.950 . S
C4980 C4989 1.390 1_554 S
C4981 C4980 1.387 . S
C4981 C4983 1.387 . S
H4982 C4989 0.950 . S
C4983 C4981 1.387 . S
C4983 C4985 1.390 1_554 S
C4983 H4987 0.950 . S
H4984 C4980 0.950 . S
C4985 C4983 1.390 1_556 S
C4985 C4986 1.387 . S
C4985 H4988 0.950 . S
C4986 C4985 1.387 . S
C4986 C4989 1.387 . S
H4987 C4983 0.950 . S
H4988 C4985 0.950 . S
C4989 C4980 1.390 1_556 S
C4989 H4982 0.950 . S
C4989 C4986 1.387 . S
C4990 C4991 1.387 . S
C4990 H4994 0.950 . S
C4990 C4999 1.390 1_554 S
C4991 C4990 1.387 . S
C4991 C4993 1.387 . S
H4992 C4999 0.950 . S
C4993 C4991 1.387 . S
C4993 C4995 1.390 1_554 S
C4993 H4997 0.950 . S
H4994 C4990 0.950 . S
C4995 C4993 1.390 1_556 S
C4995 C4996 1.387 . S
C4995 H4998 0.950 . S
C4996 C4995 1.387 . S
C4996 C4999 1.387 . S
H4997 C4993 0.950 . S
H4998 C4995 0.950 . S
C4999 C4990 1.390 1_556 S
C4999 H4992 0.950 . S
C4999 C4996 1.387 . S
C5000 C5001 1.387 . S
C5000 H5004 0.950 . S
C5000 C5009 1.390 1_556 S
C5001 C5000 1.387 . S
C5001 C5003 1.387 . S
H5002 C5009 0.950 . S
C5003 C5001 1.387 . S
C5003 C5005 1.390 1_556 S
C5003 H5007 0.950 . S
H5004 C5000 0.950 . S
C5005 C5003 1.390 1_554 S
C5005 C5006 1.387 . S
C5005 H5008 0.950 . S
C5006 C5005 1.387 . S
C5006 C5009 1.387 . S
H5007 C5003 0.950 . S
H5008 C5005 0.950 . S
C5009 C5000 1.390 1_554 S
C5009 H5002 0.950 . S
C5009 C5006 1.387 . S
C5010 C5011 1.387 . S
C5010 H5014 0.950 . S
C5010 C5019 1.390 1_556 S
C5011 C5010 1.387 . S
C5011 C5013 1.387 . S
H5012 C5019 0.950 . S
C5013 C5011 1.387 . S
C5013 C5015 1.390 1_556 S
C5013 H5017 0.950 . S
H5014 C5010 0.950 . S
C5015 C5013 1.390 1_554 S
C5015 C5016 1.387 . S
C5015 H5018 0.950 . S
C5016 C5015 1.387 . S
C5016 C5019 1.387 . S
H5017 C5013 0.950 . S
H5018 C5015 0.950 . S
C5019 C5010 1.390 1_554 S
C5019 H5012 0.950 . S
C5019 C5016 1.387 . S
C5020 C5021 1.387 . S
C5020 H5024 0.950 . S
C5020 C5029 1.390 1_556 S
C5021 C5020 1.387 . S
C5021 C5023 1.387 . S
H5022 C5029 0.950 . S
C5023 C5021 1.387 . S
C5023 C5025 1.390 1_556 S
C5023 H5027 0.950 . S
H5024 C5020 0.950 . S
C5025 C5023 1.390 1_554 S
C5025 C5026 1.387 . S
C5025 H5028 0.950 . S
C5026 C5025 1.387 . S
C5026 C5029 1.387 . S
H5027 C5023 0.950 . S
H5028 C5025 0.950 . S
C5029 C5020 1.390 1_554 S
C5029 H5022 0.950 . S
C5029 C5026 1.387 . S
C5030 C5031 1.387 . S
C5030 H5034 0.950 . S
C5030 C5039 1.390 1_556 S
C5031 C5030 1.387 . S
C5031 C5033 1.387 . S
H5032 C5039 0.950 . S
C5033 C5031 1.387 . S
C5033 C5035 1.390 1_556 S
C5033 H5037 0.950 . S
H5034 C5030 0.950 . S
C5035 C5033 1.390 1_554 S
C5035 C5036 1.387 . S
C5035 H5038 0.950 . S
C5036 C5035 1.387 . S
C5036 C5039 1.387 . S
H5037 C5033 0.950 . S
H5038 C5035 0.950 . S
C5039 C5030 1.390 1_554 S
C5039 H5032 0.950 . S
C5039 C5036 1.387 . S
C5040 C5041 1.387 . S
C5040 H5044 0.950 . S
C5040 C5049 1.390 . S
C5041 C5040 1.387 . S
C5041 C5043 1.387 . S
H5042 C5049 0.950 . S
C5043 C5041 1.387 . S
C5043 C5045 1.390 . S
C5043 H5047 0.950 . S
H5044 C5040 0.950 . S
C5045 C5043 1.390 . S
C5045 C5046 1.387 . S
C5045 H5048 0.950 . S
C5046 C5045 1.387 . S
C5046 C5049 1.387 . S
H5047 C5043 0.950 . S
H5048 C5045 0.950 . S
C5049 C5040 1.390 . S
C5049 H5042 0.950 . S
C5049 C5046 1.387 . S
C5050 C5051 1.387 . S
C5050 H5054 0.950 . S
C5050 C5059 1.390 . S
C5051 C5050 1.387 . S
C5051 C5053 1.387 . S
H5052 C5059 0.950 . S
C5053 C5051 1.387 . S
C5053 C5055 1.390 . S
C5053 H5057 0.950 . S
H5054 C5050 0.950 . S
C5055 C5053 1.390 . S
C5055 C5056 1.387 . S
C5055 H5058 0.950 . S
C5056 C5055 1.387 . S
C5056 C5059 1.387 . S
H5057 C5053 0.950 . S
H5058 C5055 0.950 . S
C5059 C5050 1.390 . S
C5059 H5052 0.950 . S
C5059 C5056 1.387 . S
C5060 C5061 1.387 . S
C5060 H5064 0.950 . S
C5060 C5069 1.390 . S
C5061 C5060 1.387 . S
C5061 C5063 1.387 . S
H5062 C5069 0.950 . S
C5063 C5061 1.387 . S
C5063 C5065 1.390 . S
C5063 H5067 0.950 . S
H5064 C5060 0.950 . S
C5065 C5063 1.390 . S
C5065 C5066 1.387 . S
C5065 H5068 0.950 . S
C5066 C5065 1.387 . S
C5066 C5069 1.387 . S
H5067 C5063 0.950 . S
H5068 C5065 0.950 . S
C5069 C5060 1.390 . S
C5069 H5062 0.950 . S
C5069 C5066 1.387 . S
C5070 C5071 1.387 . S
C5070 H5074 0.950 . S
C5070 C5079 1.390 . S
C5071 C5070 1.387 . S
C5071 C5073 1.387 . S
H5072 C5079 0.950 . S
C5073 C5071 1.387 . S
C5073 C5075 1.390 . S
C5073 H5077 0.950 . S
H5074 C5070 0.950 . S
C5075 C5073 1.390 . S
C5075 C5076 1.387 . S
C5075 H5078 0.950 . S
C5076 C5075 1.387 . S
C5076 C5079 1.387 . S
H5077 C5073 0.950 . S
H5078 C5075 0.950 . S
C5079 C5070 1.390 . S
C5079 H5072 0.950 . S
C5079 C5076 1.387 . S
C5080 C5081 1.387 . S
C5080 H5084 0.950 . S
C5080 C5089 1.390 . S
C5081 C5080 1.387 . S
C5081 C5083 1.387 . S
H5082 C5089 0.950 . S
C5083 C5081 1.387 . S
C5083 C5085 1.390 . S
C5083 H5087 0.950 . S
H5084 C5080 0.950 . S
C5085 C5083 1.390 . S
C5085 C5086 1.387 . S
C5085 H5088 0.950 . S
C5086 C5085 1.387 . S
C5086 C5089 1.387 . S
H5087 C5083 0.950 . S
H5088 C5085 0.950 . S
C5089 C5080 1.390 . S
C5089 H5082 0.950 . S
C5089 C5086 1.387 . S
C5090 C5091 1.387 . S
C5090 H5094 0.950 . S
C5090 C5099 1.390 . S
C5091 C5090 1.387 . S
C5091 C5093 1.387 . S
H5092 C5099 0.950 . S
C5093 C5091 1.387 . S
C5093 C5095 1.390 . S
C5093 H5097 0.950 . S
H5094 C5090 0.950 . S
C5095 C5093 1.390 . S
C5095 C5096 1.387 . S
C5095 H5098 0.950 . S
C5096 C5095 1.387 . S
C5096 C5099 1.387 . S
H5097 C5093 0.950 . S
H5098 C5095 0.950 . S
C5099 C5090 1.390 . S
C5099 H5092 0.950 . S
C5099 C5096 1.387 . S
C5100 C5101 1.387 . S
C5100 H5104 0.950 . S
C5100 C5109 1.390 . S
C5101 C5100 1.387 . S
C5101 C5103 1.387 . S
H5102 C5109 0.950 . S
C5103 C5101 1.387 . S
C5103 C5105 1.390 . S
C5103 H5107 0.950 . S
H5104 C5100 0.950 . S
C5105 C5103 1.390 . S
C5105 C5106 1.387 . S
C5105 H5108 0.950 . S
C5106 C5105 1.387 . S
C5106 C5109 1.387 . S
H5107 C5103 0.950 . S
H5108 C5105 0.950 . S
C5109 C5100 1.390 . S
C5109 H5102 0.950 . S
C5109 C5106 1.387 . S
C5110 C5111 1.387 . S
C5110 H5114 0.950 . S
C5110 C5119 1.390 . S
C5111 C5110 1.387 . S
C5111 C5113 1.387 . S
H5112 C5119 0.950 . S
C5113 C5111 1.387 . S
C5113 C5115 1.390 . S
C5113 H5117 0.950 . S
H5114 C5110 0.950 . S
C5115 C5113 1.390 . S
C5115 C5116 1.387 . S
C5115 H5118 0.950 . S
C5116 C5115 1.387 . S
C5116 C5119 1.387 . S
H5117 C5113 0.950 . S
H5118 C5115 0.950 . S
C5119 C5110 1.390 . S
C5119 H5112 0.950 . S
C5119 C5116 1.387 . S
C5120 C5121 1.387 . S
C5120 H5124 0.950 . S
C5120 C5129 1.390 . S
C5121 C5120 1.387 . S
C5121 C5123 1.387 . S
H5122 C5129 0.950 . S
C5123 C5121 1.387 . S
C5123 C5125 1.390 . S
C5123 H5127 0.950 . S
H5124 C5120 0.950 . S
C5125 C5123 1.390 . S
C5125 C5126 1.387 . S
C5125 H5128 0.950 . S
C5126 C5125 1.387 . S
C5126 C5129 1.387 . S
H5127 C5123 0.950 . S
H5128 C5125 0.950 . S
C5129 C5120 1.390 . S
C5129 H5122 0.950 . S
C5129 C5126 1.387 . S
C5130 C5131 1.387 . S
C5130 H5134 0.950 . S
C5130 C5139 1.390 . S
C5131 C5130 1.387 . S
C5131 C5133 1.387 . S
H5132 C5139 0.950 . S
C5133 C5131 1.387 . S
C5133 C5135 1.390 . S
C5133 H5137 0.950 . S
H5134 C5130 0.950 . S
C5135 C5133 1.390 . S
C5135 C5136 1.387 . S
C5135 H5138 0.950 . S
C5136 C5135 1.387 . S
C5136 C5139 1.387 . S
H5137 C5133 0.950 . S
H5138 C5135 0.950 . S
C5139 C5130 1.390 . S
C5139 H5132 0.950 . S
C5139 C5136 1.387 . S
C5140 C5141 1.387 . S
C5140 H5144 0.950 . S
C5140 C5149 1.390 . S
C5141 C5140 1.387 . S
C5141 C5143 1.387 . S
H5142 C5149 0.950 . S
C5143 C5141 1.387 . S
C5143 C5145 1.390 . S
C5143 H5147 0.950 . S
H5144 C5140 0.950 . S
C5145 C5143 1.390 . S
C5145 C5146 1.387 . S
C5145 H5148 0.950 . S
C5146 C5145 1.387 . S
C5146 C5149 1.387 . S
H5147 C5143 0.950 . S
H5148 C5145 0.950 . S
C5149 C5140 1.390 . S
C5149 H5142 0.950 . S
C5149 C5146 1.387 . S
C5150 C5151 1.387 . S
C5150 H5154 0.950 . S
C5150 C5159 1.390 . S
C5151 C5150 1.387 . S
C5151 C5153 1.387 . S
H5152 C5159 0.950 . S
C5153 C5151 1.387 . S
C5153 C5155 1.390 . S
C5153 H5157 0.950 . S
H5154 C5150 0.950 . S
C5155 C5153 1.390 . S
C5155 C5156 1.387 . S
C5155 H5158 0.950 . S
C5156 C5155 1.387 . S
C5156 C5159 1.387 . S
H5157 C5153 0.950 . S
H5158 C5155 0.950 . S
C5159 C5150 1.390 . S
C5159 H5152 0.950 . S
C5159 C5156 1.387 . S
C5160 C5161 1.387 . S
C5160 H5164 0.950 . S
C5160 C5169 1.390 . S
C5161 C5160 1.387 . S
C5161 C5163 1.387 . S
H5162 C5169 0.950 . S
C5163 C5161 1.387 . S
C5163 C5165 1.390 . S
C5163 H5167 0.950 . S
H5164 C5160 0.950 . S
C5165 C5163 1.390 . S
C5165 C5166 1.387 . S
C5165 H5168 0.950 . S
C5166 C5165 1.387 . S
C5166 C5169 1.387 . S
H5167 C5163 0.950 . S
H5168 C5165 0.950 . S
C5169 C5160 1.390 . S
C5169 H5162 0.950 . S
C5169 C5166 1.387 . S
C5170 C5171 1.387 . S
C5170 H5174 0.950 . S
C5170 C5179 1.390 . S
C5171 C5170 1.387 . S
C5171 C5173 1.387 . S
H5172 C5179 0.950 . S
C5173 C5171 1.387 . S
C5173 C5175 1.390 . S
C5173 H5177 0.950 . S
H5174 C5170 0.950 . S
C5175 C5173 1.390 . S
C5175 C5176 1.387 . S
C5175 H5178 0.950 . S
C5176 C5175 1.387 . S
C5176 C5179 1.387 . S
H5177 C5173 0.950 . S
H5178 C5175 0.950 . S
C5179 C5170 1.390 . S
C5179 H5172 0.950 . S
C5179 C5176 1.387 . S
C5180 C5181 1.387 . S
C5180 H5184 0.950 . S
C5180 C5189 1.390 . S
C5181 C5180 1.387 . S
C5181 C5183 1.387 . S
H5182 C5189 0.950 . S
C5183 C5181 1.387 . S
C5183 C5185 1.390 . S
C5183 H5187 0.950 . S
H5184 C5180 0.950 . S
C5185 C5183 1.390 . S
C5185 C5186 1.387 . S
C5185 H5188 0.950 . S
C5186 C5185 1.387 . S
C5186 C5189 1.387 . S
H5187 C5183 0.950 . S
H5188 C5185 0.950 . S
C5189 C5180 1.390 . S
C5189 H5182 0.950 . S
C5189 C5186 1.387 . S
C5190 C5191 1.387 . S
C5190 H5194 0.950 . S
C5190 C5199 1.390 . S
C5191 C5190 1.387 . S
C5191 C5193 1.387 . S
H5192 C5199 0.950 . S
C5193 C5191 1.387 . S
C5193 C5195 1.390 . S
C5193 H5197 0.950 . S
H5194 C5190 0.950 . S
C5195 C5193 1.390 . S
C5195 C5196 1.387 . S
C5195 H5198 0.950 . S
C5196 C5195 1.387 . S
C5196 C5199 1.387 . S
H5197 C5193 0.950 . S
H5198 C5195 0.950 . S
C5199 C5190 1.390 . S
C5199 H5192 0.950 . S
C5199 C5196 1.387 . S
C5200 C5201 1.387 . S
C5200 H5204 0.950 . S
C5200 C5209 1.390 . S
C5201 C5200 1.387 . S
C5201 C5203 1.387 . S
H5202 C5209 0.950 . S
C5203 C5201 1.387 . S
C5203 C5205 1.390 . S
C5203 H5207 0.950 . S
H5204 C5200 0.950 . S
C5205 C5203 1.390 . S
C5205 C5206 1.387 . S
C5205 H5208 0.950 . S
C5206 C5205 1.387 . S
C5206 C5209 1.387 . S
H5207 C5203 0.950 . S
H5208 C5205 0.950 . S
C5209 C5200 1.390 . S
C5209 H5202 0.950 . S
C5209 C5206 1.387 . S
C5210 C5211 1.387 . S
C5210 H5214 0.950 . S
C5210 C5219 1.390 . S
C5211 C5210 1.387 . S
C5211 C5213 1.387 . S
H5212 C5219 0.950 . S
C5213 C5211 1.387 . S
C5213 C5215 1.390 . S
C5213 H5217 0.950 . S
H5214 C5210 0.950 . S
C5215 C5213 1.390 . S
C5215 C5216 1.387 . S
C5215 H5218 0.950 . S
C5216 C5215 1.387 . S
C5216 C5219 1.387 . S
H5217 C5213 0.950 . S
H5218 C5215 0.950 . S
C5219 C5210 1.390 . S
C5219 H5212 0.950 . S
C5219 C5216 1.387 . S
C5220 C5221 1.387 . S
C5220 H5224 0.950 . S
C5220 C5229 1.390 . S
C5221 C5220 1.387 . S
C5221 C5223 1.387 . S
H5222 C5229 0.950 . S
C5223 C5221 1.387 . S
C5223 C5225 1.390 . S
C5223 H5227 0.950 . S
H5224 C5220 0.950 . S
C5225 C5223 1.390 . S
C5225 C5226 1.387 . S
C5225 H5228 0.950 . S
C5226 C5225 1.387 . S
C5226 C5229 1.387 . S
H5227 C5223 0.950 . S
H5228 C5225 0.950 . S
C5229 C5220 1.390 . S
C5229 H5222 0.950 . S
C5229 C5226 1.387 . S
C5230 C5231 1.387 . S
C5230 H5234 0.950 . S
C5230 C5239 1.390 . S
C5231 C5230 1.387 . S
C5231 C5233 1.387 . S
H5232 C5239 0.950 . S
C5233 C5231 1.387 . S
C5233 C5235 1.390 . S
C5233 H5237 0.950 . S
H5234 C5230 0.950 . S
C5235 C5233 1.390 . S
C5235 C5236 1.387 . S
C5235 H5238 0.950 . S
C5236 C5235 1.387 . S
C5236 C5239 1.387 . S
H5237 C5233 0.950 . S
H5238 C5235 0.950 . S
C5239 C5230 1.390 . S
C5239 H5232 0.950 . S
C5239 C5236 1.387 . S
C5240 C5241 1.387 . S
C5240 H5244 0.950 . S
C5240 C5249 1.390 . S
C5241 C5240 1.387 . S
C5241 C5243 1.387 . S
H5242 C5249 0.950 . S
C5243 C5241 1.387 . S
C5243 C5245 1.390 . S
C5243 H5247 0.950 . S
H5244 C5240 0.950 . S
C5245 C5243 1.390 . S
C5245 C5246 1.387 . S
C5245 H5248 0.950 . S
C5246 C5245 1.387 . S
C5246 C5249 1.387 . S
H5247 C5243 0.950 . S
H5248 C5245 0.950 . S
C5249 C5240 1.390 . S
C5249 H5242 0.950 . S
C5249 C5246 1.387 . S
C5250 C5251 1.387 . S
C5250 H5254 0.950 . S
C5250 C5259 1.390 . S
C5251 C5250 1.387 . S
C5251 C5253 1.387 . S
H5252 C5259 0.950 . S
C5253 C5251 1.387 . S
C5253 C5255 1.390 . S
C5253 H5257 0.950 . S
H5254 C5250 0.950 . S
C5255 C5253 1.390 . S
C5255 C5256 1.387 . S
C5255 H5258 0.950 . S
C5256 C5255 1.387 . S
C5256 C5259 1.387 . S
H5257 C5253 0.950 . S
H5258 C5255 0.950 . S
C5259 C5250 1.390 . S
C5259 H5252 0.950 . S
C5259 C5256 1.387 . S
C5260 C5261 1.387 . S
C5260 H5264 0.950 . S
C5260 C5269 1.390 . S
C5261 C5260 1.387 . S
C5261 C5263 1.387 . S
H5262 C5269 0.950 . S
C5263 C5261 1.387 . S
C5263 C5265 1.390 . S
C5263 H5267 0.950 . S
H5264 C5260 0.950 . S
C5265 C5263 1.390 . S
C5265 C5266 1.387 . S
C5265 H5268 0.950 . S
C5266 C5265 1.387 . S
C5266 C5269 1.387 . S
H5267 C5263 0.950 . S
H5268 C5265 0.950 . S
C5269 C5260 1.390 . S
C5269 H5262 0.950 . S
C5269 C5266 1.387 . S
C5270 C5271 1.387 . S
C5270 H5274 0.950 . S
C5270 C5279 1.390 . S
C5271 C5270 1.387 . S
C5271 C5273 1.387 . S
H5272 C5279 0.950 . S
C5273 C5271 1.387 . S
C5273 C5275 1.390 . S
C5273 H5277 0.950 . S
H5274 C5270 0.950 . S
C5275 C5273 1.390 . S
C5275 C5276 1.387 . S
C5275 H5278 0.950 . S
C5276 C5275 1.387 . S
C5276 C5279 1.387 . S
H5277 C5273 0.950 . S
H5278 C5275 0.950 . S
C5279 C5270 1.390 . S
C5279 H5272 0.950 . S
C5279 C5276 1.387 . S
C3841 C15 1.730 . S
C3846 C2735 1.730 . S
C3851 C2615 1.731 . S
C3856 C55 1.731 . S
C3861 C95 1.728 . S
C3866 C2655 1.728 . S
C3871 C2695 1.731 . S
C3876 C135 1.731 . S
C3881 C175 1.730 . S
C3886 C2855 1.730 . S
C3891 C2775 1.731 . S
C3896 C215 1.731 . S
C3901 C2815 1.729 . S
C3906 C255 1.729 . S
C3911 C2575 1.727 . S
C3916 C295 1.727 . S
C3921 C335 1.730 . S
C3926 C2535 1.730 . S
C3931 C375 1.728 . S
C3936 C2415 1.728 . S
C3941 C415 1.730 . S
C3946 C2455 1.730 . S
C3951 C455 1.730 . S
C3956 C2495 1.730 . S
C3961 C2295 1.728 . S
C3966 C495 1.728 . S
C3971 C535 1.729 . S
C3976 C2335 1.729 . S
C3981 C2375 1.729 . S
C3986 C575 1.729 . S
C3991 C615 1.729 . S
C3996 C2255 1.729 . S
C4001 C655 1.730 . S
C4006 C2215 1.730 . S
C4011 C695 1.728 . S
C4016 C1975 1.728 . S
C4021 C735 1.728 . S
C4026 C2015 1.728 . S
C4031 C775 1.727 . S
C4036 C2055 1.727 . S
C4041 C1935 1.730 . S
C4046 C815 1.730 . S
C4051 C2135 1.730 . S
C4056 C855 1.730 . S
C4061 C2175 1.728 . S
C4066 C895 1.728 . S
C4071 C935 1.730 . S
C4076 C2095 1.729 . S
C4081 C3695 1.715 . S
C4086 C975 1.715 . S
C4091 C1015 1.717 . S
C4096 C3575 1.717 . S
C4101 C1055 1.716 . S
C4106 C3615 1.716 . S
C4111 C1095 1.717 . S
C4116 C3655 1.717 . S
C4121 C1135 1.715 . S
C4126 C3815 1.715 . S
C4131 C1175 1.718 . S
C4136 C3735 1.718 . S
C4141 C3775 1.715 . S
C4146 C1215 1.715 . S
C4151 C1255 1.714 . S
C4156 C3535 1.714 . S
C4161 C1295 1.714 . S
C4166 C3495 1.714 . S
C4171 C3375 1.716 . S
C4176 C1335 1.716 . S
C4181 C3415 1.715 . S
C4186 C1375 1.715 . S
C4191 C3455 1.715 . S
C4196 C1415 1.715 . S
C4201 C3255 1.714 . S
C4206 C1455 1.714 . S
C4211 C1495 1.716 . S
C4216 C3295 1.716 . S
C4221 C3335 1.715 . S
C4226 C1535 1.715 . S
C4231 C3215 1.715 . S
C4236 C1575 1.715 . S
C4241 C1615 1.716 . S
C4246 C3175 1.716 . S
C4251 C1655 1.717 . S
C4256 C2935 1.716 . S
C4261 C2975 1.717 . S
C4266 C1695 1.717 . S
C4271 C3015 1.717 . S
C4276 C1735 1.717 . S
C4281 C2895 1.716 . S
C4286 C1775 1.716 . S
C4291 C3095 1.717 . S
C4296 C1815 1.717 . S
C4301 C3135 1.716 . S
C4306 C1855 1.715 . S
C4311 C3055 1.716 . S
C4316 C1895 1.716 . S
C4321 C2 1.732 . S
C4326 C1562 1.698 . S
C4331 C1442 1.698 . S
C4336 C42 1.732 . S
C4341 C82 1.732 . S
C4346 C1482 1.698 . S
C4351 C1522 1.698 . S
C4356 C122 1.732 . S
C4361 C162 1.732 . S
C4366 C1322 1.698 . S
C4371 C202 1.732 . S
C4376 C1362 1.698 . S
C4381 C1402 1.696 . S
C4386 C242 1.732 . S
C4391 C282 1.732 . S
C4396 C1282 1.698 . S
C4401 C1242 1.696 . S
C4406 C322 1.732 . S
C4411 C1122 1.698 . S
C4416 C362 1.732 . S
C4421 C402 1.732 . S
C4426 C1162 1.698 . S
C4431 C442 1.732 . S
C4436 C1202 1.696 . S
C4441 C1002 1.698 . S
C4446 C482 1.732 . S
C4451 C522 1.732 . S
C4456 C1042 1.698 . S
C4461 C562 1.732 . S
C4466 C1082 1.696 . S
C4471 C602 1.732 . S
C4476 C962 1.698 . S
C4481 C1762 1.696 . S
C4486 C642 1.732 . S
C4491 C1882 1.696 . S
C4496 C682 1.732 . S
C4501 C722 1.732 . S
C4506 C1802 1.698 . S
C4511 C762 1.732 . S
C4516 C1842 1.696 . S
C4521 C1602 1.696 . S
C4526 C802 1.732 . S
C4531 C1682 1.696 . S
C4536 C842 1.732 . S
C4541 C1722 1.696 . S
C4546 C882 1.732 . S
C4551 C922 1.732 . S
C4556 C1642 1.698 . S
C4561 C3482 1.698 . S
C4566 C1922 1.732 . S
C4571 C3362 1.698 . S
C4576 C1962 1.732 . S
C4581 C3402 1.696 . S
C4586 C2002 1.732 . S
C4591 C2042 1.732 . S
C4596 C3442 1.696 . S
C4601 C3242 1.696 . S
C4606 C2082 1.732 . S
C4611 C2122 1.732 . S
C4616 C3282 1.696 . S
C4621 C3322 1.696 . S
C4626 C2162 1.732 . S
C4631 C3202 1.698 . S
C4636 C2202 1.732 . S
C4641 C2242 1.732 . S
C4646 C3162 1.698 . S
C4651 C2282 1.732 . S
C4656 C3042 1.698 . S
C4661 C3082 1.698 . S
C4666 C2322 1.732 . S
C4671 C3122 1.696 . S
C4676 C2362 1.732 . S
C4681 C2922 1.698 . S
C4686 C2402 1.732 . S
C4691 C2962 1.698 . S
C4696 C2442 1.732 . S
C4701 C3002 1.698 . S
C4706 C2482 1.732 . S
C4711 C2522 1.732 . S
C4716 C2882 1.698 . S
C4721 C3682 1.696 . S
C4726 C2562 1.732 . S
C4731 C3802 1.698 . S
C4736 C2602 1.732 . S
C4741 C2642 1.732 . S
C4746 C3722 1.698 . S
C4751 C2682 1.732 . S
C4756 C3762 1.696 . S
C4761 C2722 1.732 . S
C4766 C3522 1.698 . S
C4771 C2762 1.732 . S
C4776 C3602 1.698 . S
C4781 C3642 1.696 . S
C4786 C2802 1.732 . S
C4791 C3562 1.696 . S
C4796 C2842 1.732 . S
C4801 C1141 1.557 . S
C4806 C21 1.593 . S
C4811 C1181 1.555 . S
C4816 C61 1.593 . S
C4821 C1221 1.556 . S
C4826 C101 1.594 . S
C4831 C1261 1.557 . S
C4836 C141 1.593 . S
C4841 C981 1.554 . S
C4846 C181 1.594 . S
C4851 C221 1.593 . S
C4856 C1021 1.556 . S
C4861 C261 1.593 . S
C4866 C1061 1.556 . S
C4871 C1101 1.554 . S
C4876 C301 1.594 . S
C4881 C1541 1.556 . S
C4886 C341 1.594 . S
C4891 C381 1.594 . S
C4896 C1581 1.554 . S
C4901 C421 1.594 . S
C4906 C1461 1.555 . S
C4911 C1501 1.556 . S
C4916 C461 1.593 . S
C4921 C501 1.594 . S
C4926 C1381 1.556 . S
C4931 C541 1.594 . S
C4936 C1421 1.555 . S
C4941 C581 1.593 . S
C4946 C1301 1.556 . S
C4951 C1341 1.557 . S
C4956 C621 1.593 . S
C4961 C1821 1.554 . S
C4966 C661 1.594 . S
C4971 C1741 1.554 . S
C4976 C701 1.594 . S
C4981 C1781 1.557 . S
C4986 C741 1.593 . S
C4991 C1661 1.555 . S
C4996 C781 1.593 . S
C5001 C821 1.594 . S
C5006 C1701 1.554 . S
C5011 C1621 1.557 . S
C5016 C861 1.593 . S
C5021 C1901 1.556 . S
C5026 C901 1.594 . S
C5031 C1861 1.556 . S
C5036 C941 1.594 . S
C5041 C1941 1.593 . S
C5046 C3061 1.557 . S
C5051 C1981 1.593 . S
C5056 C3101 1.556 . S
C5061 C2021 1.593 . S
C5066 C3141 1.556 . S
C5071 C3181 1.554 . S
C5076 C2061 1.594 . S
C5081 C2901 1.554 . S
C5086 C2101 1.594 . S
C5091 C2141 1.593 . S
C5096 C2941 1.557 . S
C5101 C2981 1.556 . S
C5106 C2181 1.594 . S
C5111 C3021 1.557 . S
C5116 C2221 1.593 . S
C5121 C2261 1.593 . S
C5126 C3461 1.555 . S
C5131 C2301 1.594 . S
C5136 C3501 1.555 . S
C5141 C2341 1.594 . S
C5146 C3381 1.555 . S
C5151 C3421 1.557 . S
C5156 C2381 1.594 . S
C5161 C2421 1.594 . S
C5166 C3301 1.556 . S
C5171 C2461 1.593 . S
C5176 C3341 1.555 . S
C5181 C2501 1.594 . S
C5186 C3221 1.555 . S
C5191 C2541 1.593 . S
C5196 C3261 1.557 . S
C5201 C2581 1.594 . S
C5206 C3741 1.554 . S
C5211 C3661 1.556 . S
C5216 C2621 1.593 . S
C5221 C2661 1.593 . S
C5226 C3701 1.557 . S
C5231 C3581 1.555 . S
C5236 C2701 1.594 . S
C5241 C3621 1.557 . S
C5246 C2741 1.593 . S
C5251 C2781 1.593 . S
C5256 C3541 1.557 . S
C5261 C3821 1.555 . S
C5266 C2821 1.593 . S
C5271 C3781 1.556 . S
C5276 C2861 1.593 . S
