# Generated by pormake.
# Topology smk, (6)-cn, num edge types: 1
# Building blocks:
#     Node 0, Type 0, BuildingBlock: MIDCAF_clean_sbu_0, # of connection points: 6
#     Node 1, Type 0, BuildingBlock: MIDCAF_clean_sbu_0, # of connection points: 6
#     Node 2, Type 0, BuildingBlock: MIDCAF_clean_sbu_0, # of connection points: 6
#     Node 3, Type 0, BuildingBlock: MIDCAF_clean_sbu_0, # of connection points: 6
#     Node 4, Type 0, BuildingBlock: MIDCAF_clean_sbu_0, # of connection points: 6
#     Node 5, Type 0, BuildingBlock: MIDCAF_clean_sbu_0, # of connection points: 6
#     Edge 6, Type (0, 0), BuildingBlock: UVAHIK_clean_linker_0, # of connection points: 2
#     Edge 7, Type (0, 0), BuildingBlock: UVAHIK_clean_linker_0, # of connection points: 2
#     Edge 8, Type (0, 0), BuildingBlock: UVAHIK_clean_linker_0, # of connection points: 2
#     Edge 9, Type (0, 0), BuildingBlock: UVAHIK_clean_linker_0, # of connection points: 2
#     Edge 10, Type (0, 0), BuildingBlock: UVAHIK_clean_linker_0, # of connection points: 2
#     Edge 11, Type (0, 0), BuildingBlock: UVAHIK_clean_linker_0, # of connection points: 2
#     Edge 12, Type (0, 0), BuildingBlock: UVAHIK_clean_linker_0, # of connection points: 2
#     Edge 13, Type (0, 0), BuildingBlock: UVAHIK_clean_linker_0, # of connection points: 2
#     Edge 14, Type (0, 0), BuildingBlock: UVAHIK_clean_linker_0, # of connection points: 2
#     Edge 15, Type (0, 0), BuildingBlock: UVAHIK_clean_linker_0, # of connection points: 2
#     Edge 16, Type (0, 0), BuildingBlock: UVAHIK_clean_linker_0, # of connection points: 2
#     Edge 17, Type (0, 0), BuildingBlock: UVAHIK_clean_linker_0, # of connection points: 2
#     Edge 18, Type (0, 0), BuildingBlock: UVAHIK_clean_linker_0, # of connection points: 2
#     Edge 19, Type (0, 0), BuildingBlock: UVAHIK_clean_linker_0, # of connection points: 2
#     Edge 20, Type (0, 0), BuildingBlock: UVAHIK_clean_linker_0, # of connection points: 2
#     Edge 21, Type (0, 0), BuildingBlock: UVAHIK_clean_linker_0, # of connection points: 2
#     Edge 22, Type (0, 0), BuildingBlock: UVAHIK_clean_linker_0, # of connection points: 2
#     Edge 23, Type (0, 0), BuildingBlock: UVAHIK_clean_linker_0, # of connection points: 2
# Relax obj value: 0.124
# Max RMSD: 0.126
# Mean RMSD: 0.126
data_MOF--net-smk--node1-MIDCAF_clean_sbu_0--edge1-UVAHIK_clean_linker_0
_symmetry_space_group_name_H-M    P1
_symmetry_Int_Tables_number       1
_symmetry_cell_setting            triclinic
loop_
_symmetry_equiv_pos_as_xyz
'x, y, z'
_cell_length_a     53.27776
_cell_length_b     53.39405
_cell_length_c     19.017555
_cell_angle_alpha  89.735912
_cell_angle_beta   90.33596
_cell_angle_gamma 120.21042
loop_
_atom_site_label
_atom_site_type_symbol
_atom_site_fract_x
_atom_site_fract_y
_atom_site_fract_z
_atom_type_partial_charge
Zn0 Zn 0.44049 0.26306 0.48805 0.0
Zn1 Zn 0.43779 0.19166 0.63764 0.0
Zn2 Zn 0.43659 0.22561 0.56326 0.0
C3 C 0.39879 0.2018 0.70035 0.0
C4 C 0.49182 0.23535 0.65264 0.0
O5 O 0.41275 0.20345 0.46542 0.0
O6 O 0.4064 0.23889 0.42751 0.0
C7 C 0.41856 0.27249 0.60406 0.0
O8 O 0.41287 0.22423 0.66067 0.0
O9 O 0.40155 0.17996 0.69055 0.0
O10 O 0.4742 0.21504 0.69171 0.0
O11 O 0.48263 0.2408 0.59491 0.0
O12 O 0.43554 0.28807 0.55596 0.0
O13 O 0.41437 0.24676 0.61387 0.0
O14 O 0.48342 0.25498 0.53511 0.0
O15 O 0.47883 0.27764 0.44308 0.0
C16 C 0.49459 0.27189 0.48158 0.0
O17 O 0.41315 0.18198 0.5129 0.0
O18 O 0.43621 0.16331 0.56849 0.0
C19 C 0.4011 0.21316 0.42171 0.0
C20 C 0.41832 0.16104 0.52165 0.0
Zn21 Zn 0.19599 0.45065 0.63601 0.0
Zn22 Zn 0.24716 0.43148 0.80997 0.0
Zn23 Zn 0.22008 0.43854 0.72419 0.0
C24 C 0.19907 0.41906 0.88008 0.0
C25 C 0.28303 0.48669 0.78012 0.0
O26 O 0.22191 0.41813 0.62427 0.0
O27 O 0.21447 0.44583 0.55093 0.0
C28 C 0.1518 0.40798 0.716 0.0
O29 O 0.19081 0.41642 0.81536 0.0
O30 O 0.22573 0.43085 0.89445 0.0
O31 O 0.28625 0.46577 0.79855 0.0
O32 O 0.25811 0.48149 0.75621 0.0
O33 O 0.15621 0.41894 0.65526 0.0
O34 O 0.17364 0.41518 0.75744 0.0
O35 O 0.23979 0.48711 0.71498 0.0
O36 O 0.20483 0.48999 0.6596 0.0
C37 C 0.22883 0.50231 0.6915 0.0
O38 O 0.23565 0.41037 0.67852 0.0
O39 O 0.24151 0.39362 0.77949 0.0
C40 C 0.22074 0.42625 0.56109 0.0
C41 C 0.24025 0.3923 0.71335 0.0
Zn42 Zn 0.74885 0.18179 0.83095 0.0
Zn43 Zn 0.8148 0.24984 0.00925 0.0
Zn44 Zn 0.78399 0.21337 0.92019 0.0
C45 C 0.78737 0.19759 0.07987 0.0
C46 C 0.78175 0.27126 0.97072 0.0
O47 O 0.80992 0.21729 0.82529 0.0
O48 O 0.77399 0.198 0.74799 0.0
C49 C 0.75158 0.14438 0.92729 0.0
O50 O 0.78095 0.18822 0.01626 0.0
O51 O 0.79948 0.22437 0.09238 0.0
O52 O 0.80619 0.2815 0.00015 0.0
O53 O 0.76972 0.24588 0.94218 0.0
O54 O 0.74377 0.14479 0.86481 0.0
O55 O 0.76505 0.16819 0.96248 0.0
O56 O 0.7501 0.2256 0.89493 0.0
O57 O 0.71559 0.18799 0.83774 0.0
C58 C 0.72473 0.21244 0.86562 0.0
O59 O 0.82946 0.23374 0.87967 0.0
O60 O 0.85265 0.25696 0.97591 0.0
C61 C 0.80081 0.21081 0.76139 0.0
C62 C 0.85335 0.24862 0.91441 0.0
Zn63 Zn 0.55972 0.69194 0.08485 0.0
Zn64 Zn 0.59553 0.81108 0.20551 0.0
Zn65 Zn 0.57624 0.77825 0.11179 0.0
C66 C 0.56634 0.76139 0.26891 0.0
C67 C 0.5369 0.79661 0.18901 0.0
O68 O 0.56877 0.75279 0.01402 0.0
O69 O 0.56277 0.70873 0.98734 0.0
C70 C 0.60409 0.74668 0.14805 0.0
O71 O 0.55316 0.75987 0.21142 0.0
O72 O 0.59256 0.78119 0.27629 0.0
O73 O 0.56074 0.81908 0.20512 0.0
O74 O 0.53785 0.77472 0.16375 0.0
O75 O 0.57703 0.7287 0.14454 0.0
O76 O 0.61162 0.77328 0.14779 0.0
O77 O 0.52966 0.74714 0.12564 0.0
O78 O 0.54557 0.71718 0.12904 0.0
C79 C 0.5243 0.72114 0.11621 0.0
O80 O 0.59611 0.8233 0.07582 0.0
O81 O 0.63152 0.83792 0.1524 0.0
C82 C 0.56484 0.73292 0.9695 0.0
C83 C 0.62131 0.84279 0.09721 0.0
Zn84 Zn 0.83406 0.56862 0.15035 0.0
Zn85 Zn 0.75152 0.57925 0.2638 0.0
Zn86 Zn 0.79419 0.57657 0.20593 0.0
C87 C 0.80104 0.60956 0.3499 0.0
C88 C 0.73288 0.52129 0.2613 0.0
O89 O 0.80273 0.59849 0.10418 0.0
O90 O 0.84017 0.59464 0.06883 0.0
C91 C 0.85924 0.59886 0.27029 0.0
O92 O 0.81194 0.59978 0.30496 0.0
O93 O 0.77534 0.60456 0.34257 0.0
O94 O 0.72407 0.5379 0.28228 0.0
O95 O 0.75784 0.53191 0.23108 0.0
O96 O 0.86345 0.58423 0.22496 0.0
O97 O 0.83519 0.5992 0.27053 0.0
O98 O 0.77734 0.52925 0.18759 0.0
O99 O 0.81301 0.52634 0.13653 0.0
C100 C 0.78738 0.51413 0.15945 0.0
O101 O 0.78143 0.60277 0.13694 0.0
O102 O 0.74204 0.59802 0.18797 0.0
C103 C 0.82294 0.60414 0.05946 0.0
C104 C 0.76022 0.60791 0.1387 0.0
Zn105 Zn 0.256 0.83326 0.35915 0.0
Zn106 Zn 0.18861 0.75439 0.50716 0.0
Zn107 Zn 0.22209 0.79557 0.43503 0.0
C108 C 0.1968 0.8031 0.57799 0.0
C109 C 0.23612 0.7489 0.50819 0.0
O110 O 0.19835 0.79479 0.33783 0.0
O111 O 0.22866 0.83887 0.29962 0.0
C112 C 0.26296 0.86159 0.48057 0.0
O113 O 0.21764 0.81501 0.53322 0.0
O114 O 0.17833 0.77646 0.57305 0.0
O115 O 0.21358 0.73995 0.54486 0.0
O116 O 0.24198 0.76813 0.45992 0.0
O117 O 0.27848 0.86379 0.42854 0.0
O118 O 0.23876 0.83787 0.49067 0.0
O119 O 0.25804 0.7871 0.40673 0.0
O120 O 0.27642 0.81533 0.31391 0.0
C121 C 0.27559 0.79606 0.35394 0.0
O122 O 0.17816 0.77184 0.38313 0.0
O123 O 0.15816 0.73 0.43897 0.0
C124 C 0.20458 0.8157 0.29439 0.0
C125 C 0.15672 0.74579 0.39148 0.0
C126 C 0.36403 0.20233 0.32948 0.0
C127 C 0.3856 0.19737 0.35755 0.0
C128 C 0.35635 0.19714 0.25852 0.0
C129 C 0.36709 0.21208 0.10438 0.0
H130 H 0.36686 0.15289 0.9871 0.0
C131 C 0.39639 0.22711 0.80816 0.0
C132 C 0.3841 0.20232 0.76554 0.0
C133 C 0.38935 0.22477 0.87979 0.0
C134 C 0.36639 0.1694 0.019 0.0
H135 H 0.41407 0.18049 0.33528 0.0
H136 H 0.4008 0.17144 0.21077 0.0
H137 H 0.36657 0.14806 0.11461 0.0
H138 H 0.35229 0.15648 0.76183 0.0
H139 H 0.33927 0.15261 0.88554 0.0
H140 H 0.36731 0.23362 0.0088 0.0
C141 C 0.38965 0.17924 0.24362 0.0
C142 C 0.36657 0.16675 0.09223 0.0
C143 C 0.39716 0.18422 0.31513 0.0
C144 C 0.36228 0.17592 0.7937 0.0
C145 C 0.3551 0.17362 0.86483 0.0
C146 C 0.36698 0.21477 0.03116 0.0
C147 C 0.3703 0.18713 0.21377 0.0
C148 C 0.36727 0.18822 0.13593 0.0
C149 C 0.36973 0.19763 0.90962 0.0
C150 C 0.36699 0.19365 0.98747 0.0
H151 H 0.3547 0.21239 0.36121 0.0
H152 H 0.34074 0.20263 0.23784 0.0
H153 H 0.36811 0.22933 0.13624 0.0
H154 H 0.41344 0.24767 0.78798 0.0
H155 H 0.40101 0.24376 0.91266 0.0
C156 C 0.19509 0.38184 0.48988 0.0
C157 C 0.21976 0.4093 0.49958 0.0
C158 C 0.18649 0.37049 0.42209 0.0
C159 C 0.20621 0.37551 0.237 0.0
H160 H 0.13829 0.38199 0.19472 0.0
C161 C 0.1766 0.42066 0.99154 0.0
C162 C 0.17902 0.40401 0.9381 0.0
C163 C 0.17104 0.41032 0.06071 0.0
C164 C 0.15681 0.37939 0.20598 0.0
H165 H 0.25627 0.44519 0.44798 0.0
H166 H 0.24236 0.42452 0.32996 0.0
H167 H 0.15312 0.38264 0.31737 0.0
H168 H 0.17499 0.36268 0.91301 0.0
H169 H 0.16578 0.34475 0.03421 0.0
H170 H 0.21066 0.3735 0.12565 0.0
C171 C 0.22943 0.41197 0.37437 0.0
C172 C 0.16525 0.37967 0.27593 0.0
C173 C 0.23753 0.4237 0.44182 0.0
C174 C 0.17256 0.37562 0.95321 0.0
C175 C 0.16768 0.36551 0.0226 0.0
C176 C 0.19736 0.37451 0.1672 0.0
C177 C 0.20299 0.38612 0.3636 0.0
C178 C 0.19061 0.37878 0.2918 0.0
C179 C 0.16853 0.38347 0.07736 0.0
C180 C 0.1732 0.3775 0.15096 0.0
H181 H 0.1807 0.37071 0.53355 0.0
H182 H 0.16599 0.35058 0.41488 0.0
H183 H 0.22597 0.37509 0.24803 0.0
H184 H 0.18223 0.44287 0.98135 0.0
H185 H 0.17201 0.42467 0.10206 0.0
C186 C 0.76618 0.17376 0.19307 0.0
C187 C 0.78588 0.17905 0.13862 0.0
C188 C 0.77254 0.16908 0.26169 0.0
C189 C 0.79247 0.15651 0.40442 0.0
H190 H 0.86249 0.22883 0.45032 0.0
C191 C 0.82332 0.18926 0.69022 0.0
C192 C 0.81985 0.21319 0.70333 0.0
C193 C 0.82787 0.18307 0.62167 0.0
C194 C 0.84329 0.20828 0.43817 0.0
H195 H 0.82638 0.18146 0.11129 0.0
H196 H 0.83776 0.17371 0.2315 0.0
H197 H 0.84932 0.21523 0.32703 0.0
H198 H 0.82126 0.25096 0.65741 0.0
H199 H 0.83082 0.24111 0.53808 0.0
H200 H 0.7858 0.15014 0.51553 0.0
C201 C 0.81724 0.17268 0.2211 0.0
C202 C 0.83579 0.20041 0.3678 0.0
C203 C 0.81054 0.17671 0.15228 0.0
C204 C 0.82459 0.2328 0.64873 0.0
C205 C 0.82978 0.22697 0.58041 0.0
C206 C 0.80031 0.16405 0.47478 0.0
C207 C 0.79903 0.17036 0.27683 0.0
C208 C 0.8098 0.17495 0.35033 0.0
C209 C 0.82956 0.20108 0.56568 0.0
C210 C 0.82526 0.19048 0.49226 0.0
H211 H 0.74745 0.17624 0.18398 0.0
H212 H 0.75823 0.16755 0.30382 0.0
H213 H 0.77226 0.1369 0.39225 0.0
H214 H 0.81904 0.17349 0.73133 0.0
H215 H 0.82768 0.16302 0.6116 0.0
C216 C 0.56371 0.73422 0.37669 0.0
C217 C 0.55032 0.74425 0.33 0.0
C218 C 0.55159 0.72368 0.44244 0.0
C219 C 0.5224 0.74529 0.57429 0.0
H220 H 0.51911 0.6808 0.67673 0.0
C221 C 0.54085 0.74669 0.87648 0.0
C222 C 0.55915 0.7359 0.89543 0.0
C223 C 0.53027 0.74333 0.80758 0.0
C224 C 0.51979 0.69888 0.64886 0.0
H225 H 0.51309 0.74962 0.31222 0.0
H226 H 0.49257 0.7325 0.42964 0.0
H227 H 0.51398 0.67828 0.54893 0.0
H228 H 0.58215 0.71481 0.85772 0.0
H229 H 0.5649 0.71015 0.73742 0.0
H230 H 0.53125 0.76718 0.67311 0.0
C231 C 0.51189 0.73203 0.41443 0.0
C232 C 0.51647 0.69721 0.57605 0.0
C233 C 0.5236 0.74177 0.34763 0.0
C234 C 0.56797 0.7232 0.8442 0.0
C235 C 0.55767 0.72009 0.77571 0.0
C236 C 0.52616 0.74715 0.64713 0.0
C237 C 0.52637 0.72382 0.46291 0.0
C238 C 0.51928 0.72101 0.53809 0.0
C239 C 0.53798 0.72924 0.75714 0.0
C240 C 0.52659 0.72461 0.68439 0.0
H241 H 0.58433 0.73599 0.36376 0.0
H242 H 0.56329 0.71778 0.47946 0.0
H243 H 0.52489 0.76401 0.54571 0.0
H244 H 0.53341 0.75611 0.91567 0.0
H245 H 0.51529 0.75078 0.79449 0.0
C246 C 0.83226 0.61434 0.4528 0.0
C247 C 0.81704 0.62475 0.41372 0.0
C248 C 0.84061 0.62359 0.52207 0.0
C249 C 0.8157 0.65144 0.66712 0.0
H250 H 0.87421 0.64337 0.76958 0.0
C251 C 0.8535 0.6391 0.96742 0.0
C252 C 0.82576 0.62039 -0.00538 0.0
C253 C 0.85672 0.64994 0.89921 0.0
C254 C 0.8581 0.64644 0.74219 0.0
H255 H 0.80161 0.6553 0.41215 0.0
H256 H 0.81766 0.67276 0.53129 0.0
H257 H 0.87596 0.64571 0.64242 0.0
H258 H 0.7796 0.5998 0.97452 0.0
H259 H 0.78499 0.6175 0.85411 0.0
H260 H 0.79809 0.65261 0.76691 0.0
C261 C 0.82193 0.65644 0.51041 0.0
C262 C 0.85886 0.64729 0.66882 0.0
C263 C 0.813 0.64669 0.44192 0.0
C264 C 0.8012 0.61433 0.95459 0.0
C265 C 0.8044 0.62461 0.88556 0.0
C266 C 0.81524 0.65112 0.74051 0.0
C267 C 0.83433 0.64382 0.55278 0.0
C268 C 0.83702 0.64865 0.63021 0.0
C269 C 0.83227 0.64161 0.85606 0.0
C270 C 0.83576 0.64748 0.77902 0.0
H271 H 0.83547 0.59728 0.43214 0.0
H272 H 0.84996 0.61318 0.55284 0.0
H273 H 0.79828 0.65227 0.63963 0.0
H274 H 0.87277 0.64437 -0.00203 0.0
H275 H 0.87847 0.66376 0.87931 0.0
C276 C 0.18834 0.83623 0.19916 0.0
C277 C 0.18729 0.8118 0.23035 0.0
C278 C 0.18233 0.8363 0.12763 0.0
C279 C 0.19617 0.80734 0.97297 0.0
H280 H 0.15897 0.84264 0.86928 0.0
C281 C 0.16886 0.81051 0.67101 0.0
C282 C 0.19597 0.81813 0.64185 0.0
C283 C 0.16657 0.81555 0.742 0.0
C284 C 0.16961 0.83295 0.89785 0.0
H285 H 0.17586 0.76721 0.21368 0.0
H286 H 0.16555 0.76737 0.08807 0.0
H287 H 0.15119 0.8347 -0.00329 0.0
H288 H 0.24225 0.83964 0.66158 0.0
H289 H 0.23827 0.84822 0.78648 0.0
H290 H 0.2149 0.80584 0.87511 0.0
C291 C 0.17118 0.78649 0.11897 0.0
C292 C 0.16502 0.82825 0.9704 0.0
C293 C 0.17675 0.78628 0.19094 0.0
C294 C 0.22113 0.83372 0.68278 0.0
C295 C 0.2188 0.83832 0.75429 0.0
C296 C 0.20114 0.81249 0.90105 0.0
C297 C 0.17554 0.81205 0.08604 0.0
C298 C 0.1781 0.81516 0.00849 0.0
C299 C 0.19133 0.82789 0.78519 0.0
C300 C 0.18793 0.82531 0.86266 0.0
H301 H 0.19639 0.85617 0.22861 0.0
H302 H 0.18579 0.85625 0.10375 0.0
H303 H 0.20702 0.79777 0.00118 0.0
H304 H 0.14913 0.79842 0.64034 0.0
H305 H 0.14516 0.8073 0.76431 0.0
C306 C 0.36921 0.12082 0.48639 0.0
C307 C 0.39933 0.13192 0.49185 0.0
C308 C 0.35 0.09074 0.4863 0.0
C309 C 0.34883 0.02797 0.5642 0.0
H310 H 0.28151 0.97973 0.44847 0.0
C311 C 0.30077 0.90614 0.53763 0.0
C312 C 0.27138 0.88825 0.52025 0.0
C313 C 0.31217 0.93573 0.54835 0.0
C314 C 0.29982 0.99302 0.48244 0.0
H315 H 0.43309 0.12063 0.49198 0.0
H316 H 0.39981 0.0685 0.49029 0.0
H317 H 0.30997 0.03201 0.42611 0.0
H318 H 0.23022 0.88655 0.50632 0.0
H319 H 0.25011 0.93858 0.52595 0.0
H320 H 0.33913 0.98936 0.62027 0.0
C321 C 0.39092 0.08282 0.48821 0.0
C322 C 0.31623 0.02289 0.46909 0.0
C323 C 0.40998 0.11267 0.48829 0.0
C324 C 0.2529 0.89988 0.52073 0.0
C325 C 0.2644 0.92973 0.53068 0.0
C326 C 0.33237 0.99832 0.57794 0.0
C327 C 0.3608 0.07158 0.49149 0.0
C328 C 0.34145 0.04044 0.50841 0.0
C329 C 0.29445 0.94817 0.54124 0.0
C330 C 0.30821 0.98027 0.53583 0.0
H331 H 0.36039 0.13517 0.48952 0.0
H332 H 0.32684 0.08259 0.48811 0.0
H333 H 0.36774 0.04115 0.59665 0.0
H334 H 0.31549 0.89769 0.53657 0.0
H335 H 0.3354 0.94916 0.55593 0.0
C336 C 0.37202 0.26228 0.6619 0.0
C337 C 0.39987 0.28233 0.63684 0.0
C338 C 0.3513 0.27079 0.67206 0.0
C339 C 0.33208 0.32064 0.59354 0.0
H340 H 0.28636 0.31173 0.75908 0.0
C341 C 0.27126 0.3834 0.6319 0.0
C342 C 0.24809 0.3725 0.67935 0.0
C343 C 0.28567 0.368 0.61919 0.0
C344 C 0.29835 0.31378 0.71159 0.0
H345 H 0.42876 0.32757 0.6104 0.0
H346 H 0.39271 0.34213 0.6277 0.0
H347 H 0.3203 0.2937 0.7604 0.0
H348 H 0.21966 0.3359 0.74474 0.0
H349 H 0.24334 0.30811 0.71897 0.0
H350 H 0.31016 0.34031 0.54396 0.0
C351 C 0.38673 0.31984 0.63821 0.0
C352 C 0.31798 0.30361 0.71284 0.0
C353 C 0.4074 0.3115 0.62887 0.0
C354 C 0.23756 0.34472 0.7079 0.0
C355 C 0.2515 0.32906 0.69409 0.0
C356 C 0.31214 0.33035 0.59177 0.0
C357 C 0.35818 0.29935 0.65681 0.0
C358 C 0.33549 0.30759 0.6544 0.0
C359 C 0.27678 0.34121 0.65287 0.0
C360 C 0.29542 0.32766 0.65129 0.0
H361 H 0.36553 0.23965 0.66829 0.0
H362 H 0.32942 0.25467 0.6871 0.0
H363 H 0.34507 0.32352 0.54732 0.0
H364 H 0.28001 0.40498 0.61012 0.0
H365 H 0.30508 0.37823 0.5873 0.0
C366 C 0.88842 0.26148 0.81353 0.0
C367 C 0.88213 0.25649 0.88551 0.0
C368 C 0.91715 0.27318 0.79009 0.0
C369 C 0.99139 0.28975 0.8474 0.0
H370 H 0.01726 0.35428 0.71806 0.0
C371 C 0.11317 0.3775 0.80561 0.0
C372 C 0.1214 0.38688 0.736 0.0
C373 C 0.08381 0.35862 0.82209 0.0
C374 C 0.01037 0.3361 0.75366 0.0
H375 H 0.90049 0.25796 0.98865 0.0
H376 H 0.94996 0.27836 0.94837 0.0
H377 H 0.96584 0.32473 0.74492 0.0
H378 H 0.10528 0.38259 0.62878 0.0
H379 H 0.05492 0.35 0.65739 0.0
H380 H 0.03622 0.30173 0.85723 0.0
C381 C 0.9331 0.27328 0.90958 0.0
C382 C 0.98081 0.31903 0.7687 0.0
C383 C 0.90467 0.2618 0.9328 0.0
C384 C 0.09983 0.3763 0.68328 0.0
C385 C 0.07079 0.35759 0.6996 0.0
C386 C 0.02104 0.30694 0.83252 0.0
C387 C 0.93992 0.27983 0.83826 0.0
C388 C 0.97094 0.2958 0.81628 0.0
C389 C 0.06228 0.34887 0.7692 0.0
C390 C 0.03087 0.33042 0.78574 0.0
H391 H 0.87154 0.25773 0.77601 0.0
H392 H 0.92164 0.27768 0.73457 0.0
H393 H 0.98451 0.27182 0.88375 0.0
H394 H 0.12918 0.3852 0.84735 0.0
H395 H 0.07788 0.35231 0.87638 0.0
C396 C 0.62144 0.88364 0.0301 0.0
C397 C 0.63646 0.87266 0.06835 0.0
C398 C 0.63469 0.91341 0.01559 0.0
C399 C 0.69347 0.98402 0.0827 0.0
H400 H 0.68473 0.01383 0.90385 0.0
C401 C 0.73348 0.10656 0.02339 0.0
C402 C 0.7451 0.11599 0.95594 0.0
C403 C 0.72134 0.07716 0.04192 0.0
C404 C 0.68748 0.00586 0.95411 0.0
H405 H 0.67776 0.88401 0.11723 0.0
H406 H 0.70082 0.93546 0.09089 0.0
H407 H 0.66104 0.96164 0.92211 0.0
H408 H 0.75565 0.10305 0.85771 0.0
H409 H 0.73538 0.05255 0.89034 0.0
H410 H 0.72038 0.02842 0.11406 0.0
C411 C 0.67862 0.92136 0.07378 0.0
C412 C 0.67364 0.97592 0.96474 0.0
C413 C 0.66546 0.89177 0.08818 0.0
C414 C 0.74644 0.09626 0.90975 0.0
C415 C 0.73458 0.06724 0.92817 0.0
C416 C 0.70724 0.01404 0.07214 0.0
C417 C 0.66318 0.93271 0.03908 0.0
C418 C 0.67678 0.9646 0.02879 0.0
C419 C 0.7208 0.05704 0.9932 0.0
C420 C 0.7048 0.02529 0.00726 0.0
H421 H 0.59902 0.86954 0.01462 0.0
H422 H 0.6222 0.92146 0.98864 0.0
H423 H 0.69592 0.976 0.13317 0.0
H424 H 0.73209 0.12136 0.05978 0.0
H425 H 0.71103 0.06994 0.0927 0.0
C426 C 0.73683 0.61985 0.04173 0.0
C427 C 0.75885 0.62932 0.09259 0.0
C428 C 0.72544 0.63749 0.02211 0.0
C429 C 0.72952 0.70884 0.06507 0.0
H430 H 0.64583 0.66014 0.05696 0.0
C431 C 0.6515 0.75492 0.09919 0.0
C432 C 0.62517 0.73699 0.13397 0.0
C433 C 0.66988 0.74429 0.08062 0.0
C434 C 0.66916 0.67415 0.06006 0.0
H435 H 0.7881 0.66533 0.15815 0.0
H436 H 0.76794 0.69561 0.12669 0.0
H437 H 0.67582 0.6387 0.04145 0.0
H438 H 0.59806 0.69448 0.17941 0.0
H439 H 0.63042 0.67642 0.15055 0.0
H440 H 0.72242 0.74389 0.08968 0.0
C441 C 0.75963 0.67513 0.0997 0.0
C442 C 0.6866 0.66188 0.04933 0.0
C443 C 0.77147 0.65779 0.11768 0.0
C444 C 0.61806 0.70867 0.15188 0.0
C445 C 0.63655 0.69823 0.13448 0.0
C446 C 0.71198 0.72105 0.0772 0.0
C447 C 0.73513 0.66446 0.0552 0.0
C448 C 0.7171 0.67883 0.05349 0.0
C449 C 0.66249 0.71563 0.09733 0.0
C450 C 0.68149 0.70367 0.07694 0.0
H451 H 0.72653 0.59781 0.02226 0.0
H452 H 0.70745 0.62888 0.98533 0.0
H453 H 0.75286 0.72289 0.06712 0.0
H454 H 0.65745 0.77681 0.08426 0.0
H455 H 0.6895 0.75834 0.05171 0.0
C456 C 0.89568 0.64833 0.31146 0.0
C457 C 0.88422 0.61823 0.31483 0.0
C458 C 0.92488 0.66731 0.32921 0.0
C459 C 0.99082 0.6701 0.40757 0.0
H460 H 0.03215 0.72448 0.25674 0.0
C461 C 0.1084 0.70556 0.35506 0.0
C462 C 0.12813 0.73551 0.35746 0.0
C463 C 0.07871 0.69505 0.34747 0.0
C464 C 0.02087 0.70964 0.29957 0.0
H465 H 0.89302 0.58435 0.34558 0.0
H466 H 0.94325 0.61704 0.37836 0.0
H467 H 0.97901 0.70023 0.26182 0.0
H468 H 0.13252 0.77795 0.34602 0.0
H469 H 0.08021 0.75936 0.33116 0.0
H470 H 0.03245 0.67841 0.44339 0.0
C471 C 0.9302 0.62634 0.36181 0.0
C472 C 0.99047 0.6959 0.30294 0.0
C473 C 0.9013 0.6075 0.34331 0.0
C474 C 0.11785 0.75474 0.34405 0.0
C475 C 0.0879 0.74413 0.33621 0.0
C476 C 0.02102 0.68356 0.40379 0.0
C477 C 0.94281 0.65641 0.35155 0.0
C478 C 0.97502 0.67527 0.35584 0.0
C479 C 0.06802 0.71423 0.34175 0.0
C480 C 0.0363 0.70276 0.3486 0.0
H481 H 0.88302 0.65708 0.28868 0.0
H482 H 0.93383 0.69038 0.32171 0.0
H483 H 0.97974 0.65482 0.44978 0.0
H484 H 0.11569 0.6902 0.36463 0.0
H485 H 0.06392 0.67186 0.35004 0.0
C486 C 0.54655 0.3065 0.51002 0.0
C487 C 0.52565 0.28567 0.46488 0.0
C488 C 0.57457 0.32571 0.48516 0.0
C489 C 0.60696 0.35801 0.31426 0.0
H490 H 0.67625 0.40368 0.42644 0.0
C491 C 0.72477 0.47188 0.29228 0.0
C492 C 0.71378 0.48977 0.27105 0.0
C493 C 0.70572 0.44269 0.30944 0.0
C494 C 0.65729 0.39078 0.39396 0.0
H495 H 0.51798 0.26627 0.36173 0.0
H496 H 0.56715 0.29845 0.31951 0.0
H497 H 0.63668 0.35816 0.47366 0.0
H498 H 0.6746 0.49118 0.24882 0.0
H499 H 0.64159 0.44061 0.2776 0.0
H500 H 0.62709 0.39089 0.23559 0.0
C501 C 0.5619 0.301 0.37296 0.0
C502 C 0.63447 0.36488 0.42129 0.0
C503 C 0.53383 0.28232 0.39727 0.0
C504 C 0.68364 0.47785 0.26491 0.0
C505 C 0.66475 0.44882 0.28101 0.0
C506 C 0.62966 0.38373 0.28715 0.0
C507 C 0.5821 0.32409 0.415 0.0
C508 C 0.6086 0.34864 0.3826 0.0
C509 C 0.67548 0.43099 0.30453 0.0
C510 C 0.65459 0.40095 0.32762 0.0
H511 H 0.54054 0.30954 0.56227 0.0
H512 H 0.58941 0.34319 0.51918 0.0
H513 H 0.58739 0.34651 0.2829 0.0
H514 H 0.74794 0.48073 0.29848 0.0
H515 H 0.71456 0.42941 0.32739 0.0
C516 C 0.2283 0.54729 0.71796 0.0
C517 C 0.24407 0.53412 0.69686 0.0
C518 C 0.23931 0.57684 0.70709 0.0
C519 C 0.26928 0.64172 0.69451 0.0
H520 H 0.29302 0.66471 0.50149 0.0
C521 C 0.26874 0.74074 0.58599 0.0
C522 C 0.25453 0.73611 0.52105 0.0
C523 C 0.27922 0.72269 0.60812 0.0
C524 C 0.28653 0.65873 0.55565 0.0
H525 H 0.28418 0.54144 0.65028 0.0
H526 H 0.30372 0.5936 0.63094 0.0
H527 H 0.28896 0.61998 0.54698 0.0
H528 H 0.2415 0.71041 0.42625 0.0
H529 H 0.25881 0.6781 0.46534 0.0
H530 H 0.26453 0.6789 0.70222 0.0
C531 C 0.28283 0.581 0.65625 0.0
C532 C 0.28459 0.63325 0.58206 0.0
C533 C 0.27185 0.5513 0.66797 0.0
C534 C 0.25276 0.71453 0.47622 0.0
C535 C 0.26277 0.69607 0.49883 0.0
C536 C 0.27105 0.66701 0.66814 0.0
C537 C 0.26624 0.5939 0.67384 0.0
C538 C 0.27482 0.62388 0.651 0.0
C539 C 0.27488 0.69905 0.5666 0.0
C540 C 0.27869 0.67537 0.59755 0.0
H541 H 0.20666 0.53436 0.73943 0.0
H542 H 0.22571 0.58583 0.72044 0.0
H543 H 0.26208 0.63535 0.74815 0.0
H544 H 0.27019 0.75726 0.62144 0.0
H545 H 0.28916 0.72624 0.65967 0.0
C546 C 0.71778 0.25475 0.84132 0.0
C547 C 0.7063 0.2257 0.86175 0.0
C548 C 0.69924 0.26572 0.82735 0.0
C549 C 0.6234 0.24955 0.85142 0.0
H550 H 0.63291 0.28673 0.67008 0.0
C551 C 0.54381 0.25187 0.62766 0.0
C552 C 0.52268 0.251 0.67282 0.0
C553 C 0.57127 0.25912 0.65405 0.0
C554 C 0.62997 0.27646 0.72097 0.0
H555 H 0.66684 0.18555 0.88518 0.0
H556 H 0.63458 0.20445 0.86128 0.0
H557 H 0.67124 0.27863 0.7159 0.0
H558 H 0.51426 0.26005 0.77804 0.0
H559 H 0.56253 0.27444 0.82312 0.0
H560 H 0.58152 0.24526 0.85504 0.0
C561 C 0.65778 0.21902 0.85681 0.0
C562 C 0.6521 0.27215 0.74762 0.0
C563 C 0.67621 0.2081 0.87016 0.0
C564 C 0.53024 0.26035 0.74248 0.0
C565 C 0.55779 0.26826 0.76838 0.0
C566 C 0.60131 0.25369 0.82482 0.0
C567 C 0.66897 0.24777 0.83392 0.0
C568 C 0.64856 0.2577 0.81204 0.0
C569 C 0.57807 0.26601 0.72577 0.0
C570 C 0.60386 0.26642 0.75825 0.0
H571 H 0.7409 0.26855 0.83305 0.0
H572 H 0.70848 0.28798 0.81 0.0
H573 H 0.62017 0.2387 0.90164 0.0
H574 H 0.53831 0.24455 0.57376 0.0
H575 H 0.5862 0.25706 0.61948 0.0
C576 C 0.47751 0.70722 0.0533 0.0
C577 C 0.49823 0.69997 0.07626 0.0
C578 C 0.4537 0.68785 0.01232 0.0
C579 C 0.43079 0.62912 0.8869 0.0
H580 H 0.35196 0.60125 0.94967 0.0
C581 C 0.33594 0.52126 0.79294 0.0
C582 C 0.3075 0.51647 0.79156 0.0
C583 C 0.35904 0.54765 0.81571 0.0
C584 C 0.37375 0.60926 0.93015 0.0
H585 H 0.50954 0.66622 0.07558 0.0
H586 H 0.46872 0.63303 0.00197 0.0
H587 H 0.39265 0.63976 0.0148 0.0
H588 H 0.28108 0.53592 0.81127 0.0
H589 H 0.32175 0.58278 0.84837 0.0
H590 H 0.41229 0.599 0.80217 0.0
C591 C 0.47099 0.65374 0.01578 0.0
C592 C 0.39704 0.6312 0.96789 0.0
C593 C 0.4944 0.6728 0.05793 0.0
C594 C 0.30284 0.53921 0.81026 0.0
C595 C 0.32611 0.56587 0.83275 0.0
C596 C 0.40756 0.60759 0.84848 0.0
C597 C 0.45049 0.66112 0.99239 0.0
C598 C 0.42577 0.64064 0.9478 0.0
C599 C 0.35444 0.57015 0.83756 0.0
C600 C 0.37873 0.59661 0.87094 0.0
H601 H 0.47984 0.72802 0.06613 0.0
H602 H 0.43815 0.69401 -0.00507 0.0
H603 H 0.45277 0.63643 0.86969 0.0
H604 H 0.34021 0.50409 0.77911 0.0
H605 H 0.38028 0.54972 0.81963 0.0
C606 C 0.74508 0.46931 0.11047 0.0
C607 C 0.76975 0.4824 0.15398 0.0
C608 C 0.73287 0.44009 0.09142 0.0
C609 C 0.73296 0.37193 0.12958 0.0
H610 H 0.74175 0.36797 0.9283 0.0
C611 C 0.73989 0.27743 0.00435 0.0
C612 C 0.76713 0.28843 0.9723 0.0
C613 C 0.72904 0.2959 0.01935 0.0
C614 C 0.73857 0.36847 0.98438 0.0
H615 H 0.79969 0.47528 0.2162 0.0
H616 H 0.77788 0.4242 0.18538 0.0
H617 H 0.74145 0.40991 0.97839 0.0
H618 H 0.80358 0.32648 0.92699 0.0
H619 H 0.78435 0.35851 0.95096 0.0
H620 H 0.7319 0.33133 0.13598 0.0
C621 C 0.76798 0.43625 0.16535 0.0
C622 C 0.73821 0.39238 0.01304 0.0
C623 C 0.78055 0.46548 0.18284 0.0
C624 C 0.78243 0.31754 0.95129 0.0
C625 C 0.77134 0.33579 0.96477 0.0
C626 C 0.73288 0.34781 0.1008 0.0
C627 C 0.74482 0.42356 0.1171 0.0
C628 C 0.7368 0.39498 0.08624 0.0
C629 C 0.74506 0.32544 0.0012 0.0
C630 C 0.73708 0.34654 0.0283 0.0
H631 H 0.7366 0.48213 0.08724 0.0
H632 H 0.71503 0.4308 0.05413 0.0
H633 H 0.73179 0.37338 0.18615 0.0
H634 H 0.72789 0.25504 0.02154 0.0
H635 H 0.70874 0.28741 0.04753 0.0
C636 C 0.50691 0.81722 0.23531 0.0
C637 C 0.50864 0.79356 0.20915 0.0
C638 C 0.48013 0.81382 0.25565 0.0
C639 C 0.42316 0.7969 0.33024 0.0
H640 H 0.3558 0.75054 0.21245 0.0
C641 C 0.31027 0.7807 0.39834 0.0
C642 C 0.29659 0.78616 0.34186 0.0
C643 C 0.33403 0.77681 0.38639 0.0
C644 C 0.37438 0.7635 0.24603 0.0
H645 H 0.48354 0.7476 0.18558 0.0
H646 H 0.43717 0.74174 0.22078 0.0
H647 H 0.40234 0.75516 0.18245 0.0
H648 H 0.29604 0.79049 0.22863 0.0
H649 H 0.33719 0.78369 0.2077 0.0
H650 H 0.39534 0.80609 0.3923 0.0
C651 C 0.45634 0.76305 0.2245 0.0
C652 C 0.40104 0.76598 0.22914 0.0
C653 C 0.48302 0.76645 0.20416 0.0
C654 C 0.30611 0.7862 0.27315 0.0
C655 C 0.32964 0.78216 0.26116 0.0
C656 C 0.39644 0.79437 0.34721 0.0
C657 C 0.4545 0.78667 0.25036 0.0
C658 C 0.42587 0.78304 0.27045 0.0
C659 C 0.34442 0.77821 0.3177 0.0
C660 C 0.37184 0.77801 0.30465 0.0
H661 H 0.52622 0.83839 0.2399 0.0
H662 H 0.47945 0.83257 0.27452 0.0
H663 H 0.44174 0.80987 0.36376 0.0
H664 H 0.30381 0.78122 0.4519 0.0
H665 H 0.34481 0.77356 0.43102 0.0
loop_
_geom_bond_atom_site_label_1
_geom_bond_atom_site_label_2
_geom_bond_distance
_geom_bond_site_symmetry_2
_ccdc_geom_bond_type
Zn0 O6 1.920 . S
Zn0 O12 1.898 . S
Zn0 O15 1.905 . S
Zn1 O9 1.905 . S
Zn1 O10 1.898 . S
Zn1 O18 1.920 . S
Zn2 O5 2.080 . S
Zn2 O8 2.114 . S
Zn2 O11 2.120 . S
Zn2 O13 2.120 . S
Zn2 O14 2.114 . S
Zn2 O17 2.080 . S
C3 O8 1.166 . S
C3 O9 1.182 . S
C4 O10 1.167 . S
C4 O11 1.299 . S
O5 Zn2 2.080 . S
O5 C19 1.305 . S
O6 Zn0 1.920 . S
O6 C19 1.234 . S
C7 O12 1.167 . S
C7 O13 1.299 . S
O8 Zn2 2.114 . S
O8 C3 1.166 . S
O9 Zn1 1.905 . S
O9 C3 1.182 . S
O10 Zn1 1.898 . S
O10 C4 1.167 . S
O11 Zn2 2.120 . S
O11 C4 1.299 . S
O12 Zn0 1.898 . S
O12 C7 1.167 . S
O13 Zn2 2.120 . S
O13 C7 1.299 . S
O14 Zn2 2.114 . S
O14 C16 1.166 . S
O15 Zn0 1.905 . S
O15 C16 1.182 . S
C16 O14 1.166 . S
C16 O15 1.182 . S
O17 Zn2 2.080 . S
O17 C20 1.305 . S
O18 Zn1 1.920 . S
O18 C20 1.234 . S
C19 O5 1.305 . S
C19 O6 1.234 . S
C20 O17 1.305 . S
C20 O18 1.234 . S
Zn21 O27 1.920 . S
Zn21 O33 1.898 . S
Zn21 O36 1.905 . S
Zn22 O30 1.905 . S
Zn22 O31 1.898 . S
Zn22 O39 1.920 . S
Zn23 O26 2.080 . S
Zn23 O29 2.114 . S
Zn23 O32 2.120 . S
Zn23 O34 2.120 . S
Zn23 O35 2.114 . S
Zn23 O38 2.080 . S
C24 O29 1.166 . S
C24 O30 1.182 . S
C25 O31 1.167 . S
C25 O32 1.299 . S
O26 Zn23 2.080 . S
O26 C40 1.305 . S
O27 Zn21 1.920 . S
O27 C40 1.234 . S
C28 O33 1.167 . S
C28 O34 1.299 . S
O29 Zn23 2.114 . S
O29 C24 1.166 . S
O30 Zn22 1.905 . S
O30 C24 1.182 . S
O31 Zn22 1.898 . S
O31 C25 1.167 . S
O32 Zn23 2.120 . S
O32 C25 1.299 . S
O33 Zn21 1.898 . S
O33 C28 1.167 . S
O34 Zn23 2.120 . S
O34 C28 1.299 . S
O35 Zn23 2.114 . S
O35 C37 1.166 . S
O36 Zn21 1.905 . S
O36 C37 1.182 . S
C37 O35 1.166 . S
C37 O36 1.182 . S
O38 Zn23 2.080 . S
O38 C41 1.305 . S
O39 Zn22 1.920 . S
O39 C41 1.234 . S
C40 O26 1.305 . S
C40 O27 1.234 . S
C41 O38 1.305 . S
C41 O39 1.234 . S
Zn42 O48 1.920 . S
Zn42 O54 1.898 . S
Zn42 O57 1.905 . S
Zn43 O51 1.905 . S
Zn43 O52 1.898 . S
Zn43 O60 1.920 1_554 S
Zn44 O47 2.080 . S
Zn44 O50 2.114 1_556 S
Zn44 O53 2.120 . S
Zn44 O55 2.120 . S
Zn44 O56 2.114 . S
Zn44 O59 2.080 . S
C45 O50 1.166 . S
C45 O51 1.182 . S
C46 O52 1.167 1_556 S
C46 O53 1.299 . S
O47 Zn44 2.080 . S
O47 C61 1.305 . S
O48 Zn42 1.920 . S
O48 C61 1.234 . S
C49 O54 1.167 . S
C49 O55 1.299 . S
O50 Zn44 2.114 1_554 S
O50 C45 1.166 . S
O51 Zn43 1.905 . S
O51 C45 1.182 . S
O52 Zn43 1.898 . S
O52 C46 1.167 1_554 S
O53 Zn44 2.120 . S
O53 C46 1.299 . S
O54 Zn42 1.898 . S
O54 C49 1.167 . S
O55 Zn44 2.120 . S
O55 C49 1.299 . S
O56 Zn44 2.114 . S
O56 C58 1.166 . S
O57 Zn42 1.905 . S
O57 C58 1.182 . S
C58 O56 1.166 . S
C58 O57 1.182 . S
O59 Zn44 2.080 . S
O59 C62 1.305 . S
O60 Zn43 1.920 1_556 S
O60 C62 1.234 . S
C61 O47 1.305 . S
C61 O48 1.234 . S
C62 O59 1.305 . S
C62 O60 1.234 . S
Zn63 O69 1.920 . S
Zn63 O75 1.898 1_556 S
Zn63 O78 1.905 . S
Zn64 O72 1.905 . S
Zn64 O73 1.898 . S
Zn64 O81 1.920 . S
Zn65 O68 2.080 1_554 S
Zn65 O71 2.114 . S
Zn65 O74 2.120 . S
Zn65 O76 2.120 . S
Zn65 O77 2.114 . S
Zn65 O80 2.080 . S
C66 O71 1.166 . S
C66 O72 1.182 . S
C67 O73 1.167 . S
C67 O74 1.299 . S
O68 Zn65 2.080 1_556 S
O68 C82 1.305 . S
O69 Zn63 1.920 . S
O69 C82 1.234 . S
C70 O75 1.167 . S
C70 O76 1.299 . S
O71 Zn65 2.114 . S
O71 C66 1.166 . S
O72 Zn64 1.905 . S
O72 C66 1.182 . S
O73 Zn64 1.898 . S
O73 C67 1.167 . S
O74 Zn65 2.120 . S
O74 C67 1.299 . S
O75 Zn63 1.898 1_554 S
O75 C70 1.167 . S
O76 Zn65 2.120 . S
O76 C70 1.299 . S
O77 Zn65 2.114 . S
O77 C79 1.166 . S
O78 Zn63 1.905 . S
O78 C79 1.182 1_556 S
C79 O77 1.166 . S
C79 O78 1.182 1_554 S
O80 Zn65 2.080 . S
O80 C83 1.305 . S
O81 Zn64 1.920 . S
O81 C83 1.234 . S
C82 O68 1.305 . S
C82 O69 1.234 . S
C83 O80 1.305 . S
C83 O81 1.234 . S
Zn84 O90 1.920 . S
Zn84 O96 1.898 . S
Zn84 O99 1.905 . S
Zn85 O93 1.905 . S
Zn85 O94 1.898 . S
Zn85 O102 1.920 . S
Zn86 O89 2.080 . S
Zn86 O92 2.114 . S
Zn86 O95 2.120 . S
Zn86 O97 2.120 . S
Zn86 O98 2.114 . S
Zn86 O101 2.080 . S
C87 O92 1.166 . S
C87 O93 1.182 . S
C88 O94 1.167 . S
C88 O95 1.299 . S
O89 Zn86 2.080 . S
O89 C103 1.305 . S
O90 Zn84 1.920 . S
O90 C103 1.234 . S
C91 O96 1.167 . S
C91 O97 1.299 . S
O92 Zn86 2.114 . S
O92 C87 1.166 . S
O93 Zn85 1.905 . S
O93 C87 1.182 . S
O94 Zn85 1.898 . S
O94 C88 1.167 . S
O95 Zn86 2.120 . S
O95 C88 1.299 . S
O96 Zn84 1.898 . S
O96 C91 1.167 . S
O97 Zn86 2.120 . S
O97 C91 1.299 . S
O98 Zn86 2.114 . S
O98 C100 1.166 . S
O99 Zn84 1.905 . S
O99 C100 1.182 . S
C100 O98 1.166 . S
C100 O99 1.182 . S
O101 Zn86 2.080 . S
O101 C104 1.305 . S
O102 Zn85 1.920 . S
O102 C104 1.234 . S
C103 O89 1.305 . S
C103 O90 1.234 . S
C104 O101 1.305 . S
C104 O102 1.234 . S
Zn105 O111 1.920 . S
Zn105 O117 1.898 . S
Zn105 O120 1.905 . S
Zn106 O114 1.905 . S
Zn106 O115 1.898 . S
Zn106 O123 1.920 . S
Zn107 O110 2.080 . S
Zn107 O113 2.114 . S
Zn107 O116 2.120 . S
Zn107 O118 2.120 . S
Zn107 O119 2.114 . S
Zn107 O122 2.080 . S
C108 O113 1.166 . S
C108 O114 1.182 . S
C109 O115 1.167 . S
C109 O116 1.299 . S
O110 Zn107 2.080 . S
O110 C124 1.305 . S
O111 Zn105 1.920 . S
O111 C124 1.234 . S
C112 O117 1.167 . S
C112 O118 1.299 . S
O113 Zn107 2.114 . S
O113 C108 1.166 . S
O114 Zn106 1.905 . S
O114 C108 1.182 . S
O115 Zn106 1.898 . S
O115 C109 1.167 . S
O116 Zn107 2.120 . S
O116 C109 1.299 . S
O117 Zn105 1.898 . S
O117 C112 1.167 . S
O118 Zn107 2.120 . S
O118 C112 1.299 . S
O119 Zn107 2.114 . S
O119 C121 1.166 . S
O120 Zn105 1.905 . S
O120 C121 1.182 . S
C121 O119 1.166 . S
C121 O120 1.182 . S
O122 Zn107 2.080 . S
O122 C125 1.305 . S
O123 Zn106 1.920 . S
O123 C125 1.234 . S
C124 O110 1.305 . S
C124 O111 1.234 . S
C125 O122 1.305 . S
C125 O123 1.234 . S
C126 C127 1.349 . S
C126 C128 1.327 . S
C126 H151 0.950 . S
C127 C126 1.349 . S
C127 C143 1.349 . S
C128 C126 1.327 . S
C128 C147 1.429 . S
C128 H152 0.950 . S
C129 C146 1.574 . S
C129 C148 1.368 . S
C129 H153 0.949 . S
H130 C134 0.949 . S
C131 C132 1.349 . S
C131 C133 1.327 . S
C131 H154 0.950 . S
C132 C131 1.349 . S
C132 C144 1.349 . S
C133 C131 1.327 . S
C133 C149 1.429 . S
C133 H155 0.950 . S
C134 H130 0.949 . S
C134 C142 1.574 . S
C134 C150 1.368 . S
H135 C143 0.950 . S
H136 C141 0.950 . S
H137 C142 0.949 . S
H138 C144 0.950 . S
H139 C145 0.950 . S
H140 C146 0.949 . S
C141 H136 0.950 . S
C141 C143 1.327 . S
C141 C147 1.429 . S
C142 C134 1.574 . S
C142 H137 0.949 . S
C142 C148 1.368 . S
C143 C127 1.349 . S
C143 H135 0.950 . S
C143 C141 1.327 . S
C144 C132 1.349 . S
C144 H138 0.950 . S
C144 C145 1.327 . S
C145 H139 0.950 . S
C145 C144 1.327 . S
C145 C149 1.429 . S
C146 C129 1.574 . S
C146 H140 0.949 . S
C146 C150 1.368 . S
C147 C128 1.429 . S
C147 C141 1.429 . S
C147 C148 1.523 . S
C148 C129 1.368 . S
C148 C142 1.368 . S
C148 C147 1.523 . S
C149 C133 1.429 . S
C149 C145 1.429 . S
C149 C150 1.523 1_556 S
C150 C134 1.368 . S
C150 C146 1.368 . S
C150 C149 1.523 1_554 S
H151 C126 0.950 . S
H152 C128 0.950 . S
H153 C129 0.949 . S
H154 C131 0.950 . S
H155 C133 0.950 . S
C156 C157 1.349 . S
C156 C158 1.327 . S
C156 H181 0.950 . S
C157 C156 1.349 . S
C157 C173 1.349 . S
C158 C156 1.327 . S
C158 C177 1.429 . S
C158 H182 0.950 . S
C159 C176 1.574 . S
C159 C178 1.368 . S
C159 H183 0.949 . S
H160 C164 0.949 . S
C161 C162 1.349 . S
C161 C163 1.327 1_556 S
C161 H184 0.950 . S
C162 C161 1.349 . S
C162 C174 1.349 . S
C163 C161 1.327 1_554 S
C163 C179 1.429 . S
C163 H185 0.950 . S
C164 H160 0.949 . S
C164 C172 1.574 . S
C164 C180 1.368 . S
H165 C173 0.950 . S
H166 C171 0.950 . S
H167 C172 0.949 . S
H168 C174 0.950 . S
H169 C175 0.950 . S
H170 C176 0.949 . S
C171 H166 0.950 . S
C171 C173 1.327 . S
C171 C177 1.429 . S
C172 C164 1.574 . S
C172 H167 0.949 . S
C172 C178 1.368 . S
C173 C157 1.349 . S
C173 H165 0.950 . S
C173 C171 1.327 . S
C174 C162 1.349 . S
C174 H168 0.950 . S
C174 C175 1.327 1_556 S
C175 H169 0.950 . S
C175 C174 1.327 1_554 S
C175 C179 1.429 . S
C176 C159 1.574 . S
C176 H170 0.949 . S
C176 C180 1.368 . S
C177 C158 1.429 . S
C177 C171 1.429 . S
C177 C178 1.523 . S
C178 C159 1.368 . S
C178 C172 1.368 . S
C178 C177 1.523 . S
C179 C163 1.429 . S
C179 C175 1.429 . S
C179 C180 1.523 . S
C180 C164 1.368 . S
C180 C176 1.368 . S
C180 C179 1.523 . S
H181 C156 0.950 . S
H182 C158 0.950 . S
H183 C159 0.949 . S
H184 C161 0.950 . S
H185 C163 0.950 . S
C186 C187 1.349 . S
C186 C188 1.327 . S
C186 H211 0.950 . S
C187 C186 1.349 . S
C187 C203 1.349 . S
C188 C186 1.327 . S
C188 C207 1.429 . S
C188 H212 0.950 . S
C189 C206 1.574 . S
C189 C208 1.368 . S
C189 H213 0.949 . S
H190 C194 0.949 . S
C191 C192 1.349 . S
C191 C193 1.327 . S
C191 H214 0.950 . S
C192 C191 1.349 . S
C192 C204 1.349 . S
C193 C191 1.327 . S
C193 C209 1.429 . S
C193 H215 0.950 . S
C194 H190 0.949 . S
C194 C202 1.574 . S
C194 C210 1.368 . S
H195 C203 0.950 . S
H196 C201 0.950 . S
H197 C202 0.949 . S
H198 C204 0.950 . S
H199 C205 0.950 . S
H200 C206 0.949 . S
C201 H196 0.950 . S
C201 C203 1.327 . S
C201 C207 1.429 . S
C202 C194 1.574 . S
C202 H197 0.949 . S
C202 C208 1.368 . S
C203 C187 1.349 . S
C203 H195 0.950 . S
C203 C201 1.327 . S
C204 C192 1.349 . S
C204 H198 0.950 . S
C204 C205 1.327 . S
C205 H199 0.950 . S
C205 C204 1.327 . S
C205 C209 1.429 . S
C206 C189 1.574 . S
C206 H200 0.949 . S
C206 C210 1.368 . S
C207 C188 1.429 . S
C207 C201 1.429 . S
C207 C208 1.523 . S
C208 C189 1.368 . S
C208 C202 1.368 . S
C208 C207 1.523 . S
C209 C193 1.429 . S
C209 C205 1.429 . S
C209 C210 1.523 . S
C210 C194 1.368 . S
C210 C206 1.368 . S
C210 C209 1.523 . S
H211 C186 0.950 . S
H212 C188 0.950 . S
H213 C189 0.949 . S
H214 C191 0.950 . S
H215 C193 0.950 . S
C216 C217 1.349 . S
C216 C218 1.327 . S
C216 H241 0.950 . S
C217 C216 1.349 . S
C217 C233 1.349 . S
C218 C216 1.327 . S
C218 C237 1.429 . S
C218 H242 0.950 . S
C219 C236 1.574 . S
C219 C238 1.368 . S
C219 H243 0.949 . S
H220 C224 0.949 . S
C221 C222 1.349 . S
C221 C223 1.327 . S
C221 H244 0.950 . S
C222 C221 1.349 . S
C222 C234 1.349 . S
C223 C221 1.327 . S
C223 C239 1.429 . S
C223 H245 0.950 . S
C224 H220 0.949 . S
C224 C232 1.574 . S
C224 C240 1.368 . S
H225 C233 0.950 . S
H226 C231 0.950 . S
H227 C232 0.949 . S
H228 C234 0.950 . S
H229 C235 0.950 . S
H230 C236 0.949 . S
C231 H226 0.950 . S
C231 C233 1.327 . S
C231 C237 1.429 . S
C232 C224 1.574 . S
C232 H227 0.949 . S
C232 C238 1.368 . S
C233 C217 1.349 . S
C233 H225 0.950 . S
C233 C231 1.327 . S
C234 C222 1.349 . S
C234 H228 0.950 . S
C234 C235 1.327 . S
C235 H229 0.950 . S
C235 C234 1.327 . S
C235 C239 1.429 . S
C236 C219 1.574 . S
C236 H230 0.949 . S
C236 C240 1.368 . S
C237 C218 1.429 . S
C237 C231 1.429 . S
C237 C238 1.523 . S
C238 C219 1.368 . S
C238 C232 1.368 . S
C238 C237 1.523 . S
C239 C223 1.429 . S
C239 C235 1.429 . S
C239 C240 1.523 . S
C240 C224 1.368 . S
C240 C236 1.368 . S
C240 C239 1.523 . S
H241 C216 0.950 . S
H242 C218 0.950 . S
H243 C219 0.949 . S
H244 C221 0.950 . S
H245 C223 0.950 . S
C246 C247 1.349 . S
C246 C248 1.327 . S
C246 H271 0.950 . S
C247 C246 1.349 . S
C247 C263 1.349 . S
C248 C246 1.327 . S
C248 C267 1.429 . S
C248 H272 0.950 . S
C249 C266 1.574 . S
C249 C268 1.368 . S
C249 H273 0.949 . S
H250 C254 0.949 . S
C251 C252 1.349 . S
C251 C253 1.327 1_554 S
C251 H274 0.950 . S
C252 C251 1.349 . S
C252 C264 1.349 . S
C253 C251 1.327 1_556 S
C253 C269 1.429 . S
C253 H275 0.950 . S
C254 H250 0.949 . S
C254 C262 1.574 . S
C254 C270 1.368 . S
H255 C263 0.950 . S
H256 C261 0.950 . S
H257 C262 0.949 . S
H258 C264 0.950 . S
H259 C265 0.950 . S
H260 C266 0.949 . S
C261 H256 0.950 . S
C261 C263 1.327 . S
C261 C267 1.429 . S
C262 C254 1.574 . S
C262 H257 0.949 . S
C262 C268 1.368 . S
C263 C247 1.349 . S
C263 H255 0.950 . S
C263 C261 1.327 . S
C264 C252 1.349 . S
C264 H258 0.950 . S
C264 C265 1.327 1_554 S
C265 H259 0.950 . S
C265 C264 1.327 1_556 S
C265 C269 1.429 . S
C266 C249 1.574 . S
C266 H260 0.949 . S
C266 C270 1.368 . S
C267 C248 1.429 . S
C267 C261 1.429 . S
C267 C268 1.523 . S
C268 C249 1.368 . S
C268 C262 1.368 . S
C268 C267 1.523 . S
C269 C253 1.429 . S
C269 C265 1.429 . S
C269 C270 1.523 . S
C270 C254 1.368 . S
C270 C266 1.368 . S
C270 C269 1.523 . S
H271 C246 0.950 . S
H272 C248 0.950 . S
H273 C249 0.949 . S
H274 C251 0.950 . S
H275 C253 0.950 . S
C276 C277 1.349 . S
C276 C278 1.327 . S
C276 H301 0.950 . S
C277 C276 1.349 . S
C277 C293 1.349 . S
C278 C276 1.327 . S
C278 C297 1.429 . S
C278 H302 0.950 . S
C279 C296 1.574 . S
C279 C298 1.368 . S
C279 H303 0.949 . S
H280 C284 0.949 . S
C281 C282 1.349 . S
C281 C283 1.327 . S
C281 H304 0.950 . S
C282 C281 1.349 . S
C282 C294 1.349 . S
C283 C281 1.327 . S
C283 C299 1.429 . S
C283 H305 0.950 . S
C284 H280 0.949 . S
C284 C292 1.574 . S
C284 C300 1.368 . S
H285 C293 0.950 . S
H286 C291 0.950 . S
H287 C292 0.949 . S
H288 C294 0.950 . S
H289 C295 0.950 . S
H290 C296 0.949 . S
C291 H286 0.950 . S
C291 C293 1.327 . S
C291 C297 1.429 . S
C292 C284 1.574 . S
C292 H287 0.949 . S
C292 C298 1.368 . S
C293 C277 1.349 . S
C293 H285 0.950 . S
C293 C291 1.327 . S
C294 C282 1.349 . S
C294 H288 0.950 . S
C294 C295 1.327 . S
C295 H289 0.950 . S
C295 C294 1.327 . S
C295 C299 1.429 . S
C296 C279 1.574 . S
C296 H290 0.949 . S
C296 C300 1.368 . S
C297 C278 1.429 . S
C297 C291 1.429 . S
C297 C298 1.523 1_554 S
C298 C279 1.368 . S
C298 C292 1.368 . S
C298 C297 1.523 1_556 S
C299 C283 1.429 . S
C299 C295 1.429 . S
C299 C300 1.523 . S
C300 C284 1.368 . S
C300 C296 1.368 . S
C300 C299 1.523 . S
H301 C276 0.950 . S
H302 C278 0.950 . S
H303 C279 0.949 . S
H304 C281 0.950 . S
H305 C283 0.950 . S
C306 C307 1.349 . S
C306 C308 1.327 . S
C306 H331 0.950 . S
C307 C306 1.349 . S
C307 C323 1.349 . S
C308 C306 1.327 . S
C308 C327 1.429 . S
C308 H332 0.950 . S
C309 C326 1.574 1_545 S
C309 C328 1.368 . S
C309 H333 0.949 . S
H310 C314 0.949 . S
C311 C312 1.349 . S
C311 C313 1.327 . S
C311 H334 0.950 . S
C312 C311 1.349 . S
C312 C324 1.349 . S
C313 C311 1.327 . S
C313 C329 1.429 . S
C313 H335 0.950 . S
C314 H310 0.949 . S
C314 C322 1.574 1_565 S
C314 C330 1.368 . S
H315 C323 0.950 . S
H316 C321 0.950 . S
H317 C322 0.949 . S
H318 C324 0.950 . S
H319 C325 0.950 . S
H320 C326 0.949 . S
C321 H316 0.950 . S
C321 C323 1.327 . S
C321 C327 1.429 . S
C322 C314 1.574 1_545 S
C322 H317 0.949 . S
C322 C328 1.368 . S
C323 C307 1.349 . S
C323 H315 0.950 . S
C323 C321 1.327 . S
C324 C312 1.349 . S
C324 H318 0.950 . S
C324 C325 1.327 . S
C325 H319 0.950 . S
C325 C324 1.327 . S
C325 C329 1.429 . S
C326 C309 1.574 1_565 S
C326 H320 0.949 . S
C326 C330 1.368 . S
C327 C308 1.429 . S
C327 C321 1.429 . S
C327 C328 1.523 . S
C328 C309 1.368 . S
C328 C322 1.368 . S
C328 C327 1.523 . S
C329 C313 1.429 . S
C329 C325 1.429 . S
C329 C330 1.523 . S
C330 C314 1.368 . S
C330 C326 1.368 . S
C330 C329 1.523 . S
H331 C306 0.950 . S
H332 C308 0.950 . S
H333 C309 0.949 . S
H334 C311 0.950 . S
H335 C313 0.950 . S
C336 C337 1.349 . S
C336 C338 1.327 . S
C336 H361 0.950 . S
C337 C336 1.349 . S
C337 C353 1.349 . S
C338 C336 1.327 . S
C338 C357 1.429 . S
C338 H362 0.950 . S
C339 C356 1.574 . S
C339 C358 1.368 . S
C339 H363 0.949 . S
H340 C344 0.949 . S
C341 C342 1.349 . S
C341 C343 1.327 . S
C341 H364 0.950 . S
C342 C341 1.349 . S
C342 C354 1.349 . S
C343 C341 1.327 . S
C343 C359 1.429 . S
C343 H365 0.950 . S
C344 H340 0.949 . S
C344 C352 1.574 . S
C344 C360 1.368 . S
H345 C353 0.950 . S
H346 C351 0.950 . S
H347 C352 0.949 . S
H348 C354 0.950 . S
H349 C355 0.950 . S
H350 C356 0.949 . S
C351 H346 0.950 . S
C351 C353 1.327 . S
C351 C357 1.429 . S
C352 C344 1.574 . S
C352 H347 0.949 . S
C352 C358 1.368 . S
C353 C337 1.349 . S
C353 H345 0.950 . S
C353 C351 1.327 . S
C354 C342 1.349 . S
C354 H348 0.950 . S
C354 C355 1.327 . S
C355 H349 0.950 . S
C355 C354 1.327 . S
C355 C359 1.429 . S
C356 C339 1.574 . S
C356 H350 0.949 . S
C356 C360 1.368 . S
C357 C338 1.429 . S
C357 C351 1.429 . S
C357 C358 1.523 . S
C358 C339 1.368 . S
C358 C352 1.368 . S
C358 C357 1.523 . S
C359 C343 1.429 . S
C359 C355 1.429 . S
C359 C360 1.523 . S
C360 C344 1.368 . S
C360 C356 1.368 . S
C360 C359 1.523 . S
H361 C336 0.950 . S
H362 C338 0.950 . S
H363 C339 0.949 . S
H364 C341 0.950 . S
H365 C343 0.950 . S
C366 C367 1.349 . S
C366 C368 1.327 . S
C366 H391 0.950 . S
C367 C366 1.349 . S
C367 C383 1.349 . S
C368 C366 1.327 . S
C368 C387 1.429 . S
C368 H392 0.950 . S
C369 C386 1.574 1_655 S
C369 C388 1.368 . S
C369 H393 0.949 . S
H370 C374 0.949 . S
C371 C372 1.349 . S
C371 C373 1.327 . S
C371 H394 0.950 . S
C372 C371 1.349 . S
C372 C384 1.349 . S
C373 C371 1.327 . S
C373 C389 1.429 . S
C373 H395 0.950 . S
C374 H370 0.949 . S
C374 C382 1.574 1_455 S
C374 C390 1.368 . S
H375 C383 0.950 . S
H376 C381 0.950 . S
H377 C382 0.949 . S
H378 C384 0.950 . S
H379 C385 0.950 . S
H380 C386 0.949 . S
C381 H376 0.950 . S
C381 C383 1.327 . S
C381 C387 1.429 . S
C382 C374 1.574 1_655 S
C382 H377 0.949 . S
C382 C388 1.368 . S
C383 C367 1.349 . S
C383 H375 0.950 . S
C383 C381 1.327 . S
C384 C372 1.349 . S
C384 H378 0.950 . S
C384 C385 1.327 . S
C385 H379 0.950 . S
C385 C384 1.327 . S
C385 C389 1.429 . S
C386 C369 1.574 1_455 S
C386 H380 0.949 . S
C386 C390 1.368 . S
C387 C368 1.429 . S
C387 C381 1.429 . S
C387 C388 1.523 . S
C388 C369 1.368 . S
C388 C382 1.368 . S
C388 C387 1.523 . S
C389 C373 1.429 . S
C389 C385 1.429 . S
C389 C390 1.523 . S
C390 C374 1.368 . S
C390 C386 1.368 . S
C390 C389 1.523 . S
H391 C366 0.950 . S
H392 C368 0.950 . S
H393 C369 0.949 . S
H394 C371 0.950 . S
H395 C373 0.950 . S
C396 C397 1.349 1_556 S
C396 C398 1.327 . S
C396 H421 0.950 . S
C397 C396 1.349 1_554 S
C397 C413 1.349 . S
C398 C396 1.327 . S
C398 C417 1.429 1_556 S
C398 H422 0.950 . S
C399 C416 1.574 1_565 S
C399 C418 1.368 . S
C399 H423 0.949 . S
H400 C404 0.949 . S
C401 C402 1.349 1_554 S
C401 C403 1.327 . S
C401 H424 0.950 . S
C402 C401 1.349 1_556 S
C402 C414 1.349 . S
C403 C401 1.327 . S
C403 C419 1.429 1_554 S
C403 H425 0.950 . S
C404 H400 0.949 . S
C404 C412 1.574 1_545 S
C404 C420 1.368 . S
H405 C413 0.950 . S
H406 C411 0.950 . S
H407 C412 0.949 . S
H408 C414 0.950 . S
H409 C415 0.950 . S
H410 C416 0.949 . S
C411 H406 0.950 . S
C411 C413 1.327 . S
C411 C417 1.429 . S
C412 C404 1.574 1_565 S
C412 H407 0.949 . S
C412 C418 1.368 1_556 S
C413 C397 1.349 . S
C413 H405 0.950 . S
C413 C411 1.327 . S
C414 C402 1.349 . S
C414 H408 0.950 . S
C414 C415 1.327 . S
C415 H409 0.950 . S
C415 C414 1.327 . S
C415 C419 1.429 . S
C416 C399 1.574 1_545 S
C416 H410 0.949 . S
C416 C420 1.368 1_554 S
C417 C398 1.429 1_554 S
C417 C411 1.429 . S
C417 C418 1.523 . S
C418 C399 1.368 . S
C418 C412 1.368 1_554 S
C418 C417 1.523 . S
C419 C403 1.429 1_556 S
C419 C415 1.429 . S
C419 C420 1.523 . S
C420 C404 1.368 . S
C420 C416 1.368 1_556 S
C420 C419 1.523 . S
H421 C396 0.950 . S
H422 C398 0.950 . S
H423 C399 0.949 . S
H424 C401 0.950 . S
H425 C403 0.950 . S
C426 C427 1.349 . S
C426 C428 1.327 . S
C426 H451 0.950 . S
C427 C426 1.349 . S
C427 C443 1.349 . S
C428 C426 1.327 . S
C428 C447 1.429 . S
C428 H452 0.950 . S
C429 C446 1.574 . S
C429 C448 1.368 . S
C429 H453 0.949 . S
H430 C434 0.949 . S
C431 C432 1.349 . S
C431 C433 1.327 . S
C431 H454 0.950 . S
C432 C431 1.349 . S
C432 C444 1.349 . S
C433 C431 1.327 . S
C433 C449 1.429 . S
C433 H455 0.950 . S
C434 H430 0.949 . S
C434 C442 1.574 . S
C434 C450 1.368 . S
H435 C443 0.950 . S
H436 C441 0.950 . S
H437 C442 0.949 . S
H438 C444 0.950 . S
H439 C445 0.950 . S
H440 C446 0.949 . S
C441 H436 0.950 . S
C441 C443 1.327 . S
C441 C447 1.429 . S
C442 C434 1.574 . S
C442 H437 0.949 . S
C442 C448 1.368 . S
C443 C427 1.349 . S
C443 H435 0.950 . S
C443 C441 1.327 . S
C444 C432 1.349 . S
C444 H438 0.950 . S
C444 C445 1.327 . S
C445 H439 0.950 . S
C445 C444 1.327 . S
C445 C449 1.429 . S
C446 C429 1.574 . S
C446 H440 0.949 . S
C446 C450 1.368 . S
C447 C428 1.429 . S
C447 C441 1.429 . S
C447 C448 1.523 . S
C448 C429 1.368 . S
C448 C442 1.368 . S
C448 C447 1.523 . S
C449 C433 1.429 . S
C449 C445 1.429 . S
C449 C450 1.523 . S
C450 C434 1.368 . S
C450 C446 1.368 . S
C450 C449 1.523 . S
H451 C426 0.950 . S
H452 C428 0.950 . S
H453 C429 0.949 . S
H454 C431 0.950 . S
H455 C433 0.950 . S
C456 C457 1.349 . S
C456 C458 1.327 . S
C456 H481 0.950 . S
C457 C456 1.349 . S
C457 C473 1.349 . S
C458 C456 1.327 . S
C458 C477 1.429 . S
C458 H482 0.950 . S
C459 C476 1.574 1_655 S
C459 C478 1.368 . S
C459 H483 0.949 . S
H460 C464 0.949 . S
C461 C462 1.349 . S
C461 C463 1.327 . S
C461 H484 0.950 . S
C462 C461 1.349 . S
C462 C474 1.349 . S
C463 C461 1.327 . S
C463 C479 1.429 . S
C463 H485 0.950 . S
C464 H460 0.949 . S
C464 C472 1.574 1_455 S
C464 C480 1.368 . S
H465 C473 0.950 . S
H466 C471 0.950 . S
H467 C472 0.949 . S
H468 C474 0.950 . S
H469 C475 0.950 . S
H470 C476 0.949 . S
C471 H466 0.950 . S
C471 C473 1.327 . S
C471 C477 1.429 . S
C472 C464 1.574 1_655 S
C472 H467 0.949 . S
C472 C478 1.368 . S
C473 C457 1.349 . S
C473 H465 0.950 . S
C473 C471 1.327 . S
C474 C462 1.349 . S
C474 H468 0.950 . S
C474 C475 1.327 . S
C475 H469 0.950 . S
C475 C474 1.327 . S
C475 C479 1.429 . S
C476 C459 1.574 1_455 S
C476 H470 0.949 . S
C476 C480 1.368 . S
C477 C458 1.429 . S
C477 C471 1.429 . S
C477 C478 1.523 . S
C478 C459 1.368 . S
C478 C472 1.368 . S
C478 C477 1.523 . S
C479 C463 1.429 . S
C479 C475 1.429 . S
C479 C480 1.523 . S
C480 C464 1.368 . S
C480 C476 1.368 . S
C480 C479 1.523 . S
H481 C456 0.950 . S
H482 C458 0.950 . S
H483 C459 0.949 . S
H484 C461 0.950 . S
H485 C463 0.950 . S
C486 C487 1.349 . S
C486 C488 1.327 . S
C486 H511 0.950 . S
C487 C486 1.349 . S
C487 C503 1.349 . S
C488 C486 1.327 . S
C488 C507 1.429 . S
C488 H512 0.950 . S
C489 C506 1.574 . S
C489 C508 1.368 . S
C489 H513 0.949 . S
H490 C494 0.949 . S
C491 C492 1.349 . S
C491 C493 1.327 . S
C491 H514 0.950 . S
C492 C491 1.349 . S
C492 C504 1.349 . S
C493 C491 1.327 . S
C493 C509 1.429 . S
C493 H515 0.950 . S
C494 H490 0.949 . S
C494 C502 1.574 . S
C494 C510 1.368 . S
H495 C503 0.950 . S
H496 C501 0.950 . S
H497 C502 0.949 . S
H498 C504 0.950 . S
H499 C505 0.950 . S
H500 C506 0.949 . S
C501 H496 0.950 . S
C501 C503 1.327 . S
C501 C507 1.429 . S
C502 C494 1.574 . S
C502 H497 0.949 . S
C502 C508 1.368 . S
C503 C487 1.349 . S
C503 H495 0.950 . S
C503 C501 1.327 . S
C504 C492 1.349 . S
C504 H498 0.950 . S
C504 C505 1.327 . S
C505 H499 0.950 . S
C505 C504 1.327 . S
C505 C509 1.429 . S
C506 C489 1.574 . S
C506 H500 0.949 . S
C506 C510 1.368 . S
C507 C488 1.429 . S
C507 C501 1.429 . S
C507 C508 1.523 . S
C508 C489 1.368 . S
C508 C502 1.368 . S
C508 C507 1.523 . S
C509 C493 1.429 . S
C509 C505 1.429 . S
C509 C510 1.523 . S
C510 C494 1.368 . S
C510 C506 1.368 . S
C510 C509 1.523 . S
H511 C486 0.950 . S
H512 C488 0.950 . S
H513 C489 0.949 . S
H514 C491 0.950 . S
H515 C493 0.950 . S
C516 C517 1.349 . S
C516 C518 1.327 . S
C516 H541 0.950 . S
C517 C516 1.349 . S
C517 C533 1.349 . S
C518 C516 1.327 . S
C518 C537 1.429 . S
C518 H542 0.950 . S
C519 C536 1.574 . S
C519 C538 1.368 . S
C519 H543 0.949 . S
H520 C524 0.949 . S
C521 C522 1.349 . S
C521 C523 1.327 . S
C521 H544 0.950 . S
C522 C521 1.349 . S
C522 C534 1.349 . S
C523 C521 1.327 . S
C523 C539 1.429 . S
C523 H545 0.950 . S
C524 H520 0.949 . S
C524 C532 1.574 . S
C524 C540 1.368 . S
H525 C533 0.950 . S
H526 C531 0.950 . S
H527 C532 0.949 . S
H528 C534 0.950 . S
H529 C535 0.950 . S
H530 C536 0.949 . S
C531 H526 0.950 . S
C531 C533 1.327 . S
C531 C537 1.429 . S
C532 C524 1.574 . S
C532 H527 0.949 . S
C532 C538 1.368 . S
C533 C517 1.349 . S
C533 H525 0.950 . S
C533 C531 1.327 . S
C534 C522 1.349 . S
C534 H528 0.950 . S
C534 C535 1.327 . S
C535 H529 0.950 . S
C535 C534 1.327 . S
C535 C539 1.429 . S
C536 C519 1.574 . S
C536 H530 0.949 . S
C536 C540 1.368 . S
C537 C518 1.429 . S
C537 C531 1.429 . S
C537 C538 1.523 . S
C538 C519 1.368 . S
C538 C532 1.368 . S
C538 C537 1.523 . S
C539 C523 1.429 . S
C539 C535 1.429 . S
C539 C540 1.523 . S
C540 C524 1.368 . S
C540 C536 1.368 . S
C540 C539 1.523 . S
H541 C516 0.950 . S
H542 C518 0.950 . S
H543 C519 0.949 . S
H544 C521 0.950 . S
H545 C523 0.950 . S
C546 C547 1.349 . S
C546 C548 1.327 . S
C546 H571 0.950 . S
C547 C546 1.349 . S
C547 C563 1.349 . S
C548 C546 1.327 . S
C548 C567 1.429 . S
C548 H572 0.950 . S
C549 C566 1.574 . S
C549 C568 1.368 . S
C549 H573 0.949 . S
H550 C554 0.949 . S
C551 C552 1.349 . S
C551 C553 1.327 . S
C551 H574 0.950 . S
C552 C551 1.349 . S
C552 C564 1.349 . S
C553 C551 1.327 . S
C553 C569 1.429 . S
C553 H575 0.950 . S
C554 H550 0.949 . S
C554 C562 1.574 . S
C554 C570 1.368 . S
H555 C563 0.950 . S
H556 C561 0.950 . S
H557 C562 0.949 . S
H558 C564 0.950 . S
H559 C565 0.950 . S
H560 C566 0.949 . S
C561 H556 0.950 . S
C561 C563 1.327 . S
C561 C567 1.429 . S
C562 C554 1.574 . S
C562 H557 0.949 . S
C562 C568 1.368 . S
C563 C547 1.349 . S
C563 H555 0.950 . S
C563 C561 1.327 . S
C564 C552 1.349 . S
C564 H558 0.950 . S
C564 C565 1.327 . S
C565 H559 0.950 . S
C565 C564 1.327 . S
C565 C569 1.429 . S
C566 C549 1.574 . S
C566 H560 0.949 . S
C566 C570 1.368 . S
C567 C548 1.429 . S
C567 C561 1.429 . S
C567 C568 1.523 . S
C568 C549 1.368 . S
C568 C562 1.368 . S
C568 C567 1.523 . S
C569 C553 1.429 . S
C569 C565 1.429 . S
C569 C570 1.523 . S
C570 C554 1.368 . S
C570 C566 1.368 . S
C570 C569 1.523 . S
H571 C546 0.950 . S
H572 C548 0.950 . S
H573 C549 0.949 . S
H574 C551 0.950 . S
H575 C553 0.950 . S
C576 C577 1.349 . S
C576 C578 1.327 . S
C576 H601 0.950 . S
C577 C576 1.349 . S
C577 C593 1.349 1_554 S
C578 C576 1.327 . S
C578 C597 1.429 1_554 S
C578 H602 0.950 . S
C579 C596 1.574 . S
C579 C598 1.368 . S
C579 H603 0.949 . S
H580 C584 0.949 . S
C581 C582 1.349 . S
C581 C583 1.327 . S
C581 H604 0.950 . S
C582 C581 1.349 . S
C582 C594 1.349 . S
C583 C581 1.327 . S
C583 C599 1.429 . S
C583 H605 0.950 . S
C584 H580 0.949 . S
C584 C592 1.574 . S
C584 C600 1.368 . S
H585 C593 0.950 . S
H586 C591 0.950 . S
H587 C592 0.949 1_554 S
H588 C594 0.950 . S
H589 C595 0.950 . S
H590 C596 0.949 . S
C591 H586 0.950 . S
C591 C593 1.327 . S
C591 C597 1.429 . S
C592 C584 1.574 . S
C592 H587 0.949 1_556 S
C592 C598 1.368 . S
C593 C577 1.349 1_556 S
C593 H585 0.950 . S
C593 C591 1.327 . S
C594 C582 1.349 . S
C594 H588 0.950 . S
C594 C595 1.327 . S
C595 H589 0.950 . S
C595 C594 1.327 . S
C595 C599 1.429 . S
C596 C579 1.574 . S
C596 H590 0.949 . S
C596 C600 1.368 . S
C597 C578 1.429 1_556 S
C597 C591 1.429 . S
C597 C598 1.523 . S
C598 C579 1.368 . S
C598 C592 1.368 . S
C598 C597 1.523 . S
C599 C583 1.429 . S
C599 C595 1.429 . S
C599 C600 1.523 . S
C600 C584 1.368 . S
C600 C596 1.368 . S
C600 C599 1.523 . S
H601 C576 0.950 . S
H602 C578 0.950 . S
H603 C579 0.949 . S
H604 C581 0.950 . S
H605 C583 0.950 . S
C606 C607 1.349 . S
C606 C608 1.327 . S
C606 H631 0.950 . S
C607 C606 1.349 . S
C607 C623 1.349 . S
C608 C606 1.327 . S
C608 C627 1.429 . S
C608 H632 0.950 . S
C609 C626 1.574 . S
C609 C628 1.368 . S
C609 H633 0.949 . S
H610 C614 0.949 1_556 S
C611 C612 1.349 1_554 S
C611 C613 1.327 . S
C611 H634 0.950 . S
C612 C611 1.349 1_556 S
C612 C624 1.349 . S
C613 C611 1.327 . S
C613 C629 1.429 . S
C613 H635 0.950 . S
C614 H610 0.949 1_554 S
C614 C622 1.574 . S
C614 C630 1.368 . S
H615 C623 0.950 . S
H616 C621 0.950 . S
H617 C622 0.949 . S
H618 C624 0.950 . S
H619 C625 0.950 . S
H620 C626 0.949 . S
C621 H616 0.950 . S
C621 C623 1.327 . S
C621 C627 1.429 . S
C622 C614 1.574 . S
C622 H617 0.949 . S
C622 C628 1.368 . S
C623 C607 1.349 . S
C623 H615 0.950 . S
C623 C621 1.327 . S
C624 C612 1.349 . S
C624 H618 0.950 . S
C624 C625 1.327 . S
C625 H619 0.950 . S
C625 C624 1.327 . S
C625 C629 1.429 1_556 S
C626 C609 1.574 . S
C626 H620 0.949 . S
C626 C630 1.368 . S
C627 C608 1.429 . S
C627 C621 1.429 . S
C627 C628 1.523 . S
C628 C609 1.368 . S
C628 C622 1.368 . S
C628 C627 1.523 . S
C629 C613 1.429 . S
C629 C625 1.429 1_554 S
C629 C630 1.523 . S
C630 C614 1.368 . S
C630 C626 1.368 . S
C630 C629 1.523 . S
H631 C606 0.950 . S
H632 C608 0.950 . S
H633 C609 0.949 . S
H634 C611 0.950 . S
H635 C613 0.950 . S
C636 C637 1.349 . S
C636 C638 1.327 . S
C636 H661 0.950 . S
C637 C636 1.349 . S
C637 C653 1.349 . S
C638 C636 1.327 . S
C638 C657 1.429 . S
C638 H662 0.950 . S
C639 C656 1.574 . S
C639 C658 1.368 . S
C639 H663 0.949 . S
H640 C644 0.949 . S
C641 C642 1.349 . S
C641 C643 1.327 . S
C641 H664 0.950 . S
C642 C641 1.349 . S
C642 C654 1.349 . S
C643 C641 1.327 . S
C643 C659 1.429 . S
C643 H665 0.950 . S
C644 H640 0.949 . S
C644 C652 1.574 . S
C644 C660 1.368 . S
H645 C653 0.950 . S
H646 C651 0.950 . S
H647 C652 0.949 . S
H648 C654 0.950 . S
H649 C655 0.950 . S
H650 C656 0.949 . S
C651 H646 0.950 . S
C651 C653 1.327 . S
C651 C657 1.429 . S
C652 C644 1.574 . S
C652 H647 0.949 . S
C652 C658 1.368 . S
C653 C637 1.349 . S
C653 H645 0.950 . S
C653 C651 1.327 . S
C654 C642 1.349 . S
C654 H648 0.950 . S
C654 C655 1.327 . S
C655 H649 0.950 . S
C655 C654 1.327 . S
C655 C659 1.429 . S
C656 C639 1.574 . S
C656 H650 0.949 . S
C656 C660 1.368 . S
C657 C638 1.429 . S
C657 C651 1.429 . S
C657 C658 1.523 . S
C658 C639 1.368 . S
C658 C652 1.368 . S
C658 C657 1.523 . S
C659 C643 1.429 . S
C659 C655 1.429 . S
C659 C660 1.523 . S
C660 C644 1.368 . S
C660 C656 1.368 . S
C660 C659 1.523 . S
H661 C636 0.950 . S
H662 C638 0.950 . S
H663 C639 0.949 . S
H664 C641 0.950 . S
H665 C643 0.950 . S
C127 C19 0.934 . S
C132 C3 0.936 . S
C157 C40 0.934 . S
C162 C24 0.936 . S
C187 C45 0.936 . S
C192 C61 0.934 . S
C217 C66 0.936 . S
C222 C82 0.934 . S
C247 C87 0.936 . S
C252 C103 0.934 . S
C277 C124 0.934 . S
C282 C108 0.936 . S
C307 C20 1.402 . S
C312 C112 1.395 . S
C337 C7 1.395 . S
C342 C41 1.402 . S
C367 C62 1.402 . S
C372 C28 1.395 . S
C397 C83 1.402 . S
C402 C49 1.395 . S
C427 C104 1.402 . S
C432 C70 1.395 . S
C457 C91 1.395 . S
C462 C125 1.402 . S
C487 C16 1.595 . S
C492 C88 1.587 . S
C517 C37 1.595 . S
C522 C109 1.587 . S
C547 C58 1.595 . S
C552 C4 1.587 . S
C577 C79 1.595 . S
C582 C25 1.587 . S
C607 C100 1.595 . S
C612 C46 1.587 . S
C637 C67 1.587 . S
C642 C121 1.595 . S
