# Generated by pormake.
# Topology noy, (5)-cn, num edge types: 1
# Building blocks:
#     Node 0, Type 0, BuildingBlock: XOMCOT_clean_sbu_1, # of connection points: 5
#     Node 1, Type 0, BuildingBlock: XOMCOT_clean_sbu_1, # of connection points: 5
#     Node 2, Type 0, BuildingBlock: XOMCOT_clean_sbu_1, # of connection points: 5
#     Node 3, Type 0, BuildingBlock: XOMCOT_clean_sbu_1, # of connection points: 5
#     Node 4, Type 0, BuildingBlock: XOMCOT_clean_sbu_1, # of connection points: 5
#     Node 5, Type 0, BuildingBlock: XOMCOT_clean_sbu_1, # of connection points: 5
#     Node 6, Type 0, BuildingBlock: XOMCOT_clean_sbu_1, # of connection points: 5
#     Node 7, Type 0, BuildingBlock: XOMCOT_clean_sbu_1, # of connection points: 5
#     Edge 8, Type (0, 0), BuildingBlock: EZIPEK_clean_linker_0, # of connection points: 2
#     Edge 9, Type (0, 0), BuildingBlock: EZIPEK_clean_linker_0, # of connection points: 2
#     Edge 10, Type (0, 0), BuildingBlock: EZIPEK_clean_linker_0, # of connection points: 2
#     Edge 11, Type (0, 0), BuildingBlock: EZIPEK_clean_linker_0, # of connection points: 2
#     Edge 12, Type (0, 0), BuildingBlock: EZIPEK_clean_linker_0, # of connection points: 2
#     Edge 13, Type (0, 0), BuildingBlock: EZIPEK_clean_linker_0, # of connection points: 2
#     Edge 14, Type (0, 0), BuildingBlock: EZIPEK_clean_linker_0, # of connection points: 2
#     Edge 15, Type (0, 0), BuildingBlock: EZIPEK_clean_linker_0, # of connection points: 2
#     Edge 16, Type (0, 0), BuildingBlock: EZIPEK_clean_linker_0, # of connection points: 2
#     Edge 17, Type (0, 0), BuildingBlock: EZIPEK_clean_linker_0, # of connection points: 2
#     Edge 18, Type (0, 0), BuildingBlock: EZIPEK_clean_linker_0, # of connection points: 2
#     Edge 19, Type (0, 0), BuildingBlock: EZIPEK_clean_linker_0, # of connection points: 2
#     Edge 20, Type (0, 0), BuildingBlock: EZIPEK_clean_linker_0, # of connection points: 2
#     Edge 21, Type (0, 0), BuildingBlock: EZIPEK_clean_linker_0, # of connection points: 2
#     Edge 22, Type (0, 0), BuildingBlock: EZIPEK_clean_linker_0, # of connection points: 2
#     Edge 23, Type (0, 0), BuildingBlock: EZIPEK_clean_linker_0, # of connection points: 2
#     Edge 24, Type (0, 0), BuildingBlock: EZIPEK_clean_linker_0, # of connection points: 2
#     Edge 25, Type (0, 0), BuildingBlock: EZIPEK_clean_linker_0, # of connection points: 2
#     Edge 26, Type (0, 0), BuildingBlock: EZIPEK_clean_linker_0, # of connection points: 2
#     Edge 27, Type (0, 0), BuildingBlock: EZIPEK_clean_linker_0, # of connection points: 2
# Relax obj value: 0.159
# Max RMSD: 0.178
# Mean RMSD: 0.178
data_MOF--net-noy--node1-XOMCOT_clean_sbu_1--edge1-EZIPEK_clean_linker_0
_symmetry_space_group_name_H-M    P1
_symmetry_Int_Tables_number       1
_symmetry_cell_setting            triclinic
loop_
_symmetry_equiv_pos_as_xyz
'x, y, z'
_cell_length_a     38.417915
_cell_length_b     34.326035
_cell_length_c     15.552541
_cell_angle_alpha  89.851936
_cell_angle_beta   88.985315
_cell_angle_gamma 89.75594
loop_
_atom_site_label
_atom_site_type_symbol
_atom_site_fract_x
_atom_site_fract_y
_atom_site_fract_z
_atom_type_partial_charge
C0 C 0.34453 0.41457 0.16379 0.0
C1 C 0.34577 0.44021 0.09559 0.0
N2 N 0.32232 0.46878 0.11089 0.0
N3 N 0.32026 0.42677 0.22136 0.0
C4 C 0.30669 0.45941 0.18643 0.0
H5 H 0.36064 0.38894 0.17167 0.0
Co6 Co 0.30877 0.40207 0.32456 0.0
C7 C 0.29342 0.46497 0.44864 0.0
O8 O 0.31231 0.44475 0.50259 0.0
N9 N 0.29551 0.37576 0.42847 0.0
C10 C 0.25716 0.35437 0.52695 0.0
C11 C 0.26279 0.38003 0.46066 0.0
C12 C 0.30918 0.34649 0.4767 0.0
N13 N 0.28617 0.3331 0.53686 0.0
O14 O 0.26565 0.38643 0.27374 0.0
H15 H 0.24338 0.39935 0.43431 0.0
H16 H 0.33421 0.33304 0.46459 0.0
O17 O 0.28859 0.45168 0.3725 0.0
C18 C 0.27068 0.35166 0.24684 0.0
O19 O 0.29942 0.33374 0.26954 0.0
N20 N 0.35371 0.41415 0.36407 0.0
C21 C 0.42547 0.42601 0.35084 0.0
C22 C 0.40266 0.45776 0.3563 0.0
C23 C 0.3668 0.45123 0.36191 0.0
C24 C 0.37592 0.38304 0.36173 0.0
C25 C 0.41194 0.38831 0.35654 0.0
H26 H 0.3499 0.476 0.35433 0.0
H27 H 0.36576 0.35409 0.35305 0.0
H28 H 0.28557 0.47597 0.21512 0.0
H29 H 0.36355 0.43901 0.04085 0.0
H30 H 0.23284 0.34988 0.56176 0.0
H31 H 0.4123 0.48722 0.34908 0.0
H32 H 0.42889 0.36318 0.34933 0.0
C33 C 0.68134 0.66289 0.64164 0.0
C34 C 0.68301 0.63756 0.57332 0.0
N35 N 0.69879 0.60474 0.59978 0.0
N36 N 0.69546 0.64583 0.71118 0.0
C37 C 0.70686 0.61079 0.68274 0.0
H38 H 0.66853 0.691 0.64222 0.0
Co39 Co 0.69126 0.66709 0.82114 0.0
C40 C 0.69599 0.59856 0.94429 0.0
O41 O 0.67162 0.61466 0.99254 0.0
N42 N 0.68602 0.69098 0.93273 0.0
C43 C 0.6613 0.71905 0.04869 0.0
C44 C 0.65623 0.6946 0.98059 0.0
C45 C 0.70901 0.71338 0.97554 0.0
N46 N 0.6944 0.73104 0.04505 0.0
O47 O 0.73872 0.68559 0.80854 0.0
H48 H 0.63166 0.68094 0.96736 0.0
H49 H 0.73568 0.71783 0.9552 0.0
O50 O 0.7065 0.61607 0.87519 0.0
C51 C 0.73699 0.71948 0.77397 0.0
O52 O 0.70627 0.7361 0.76818 0.0
N53 N 0.64421 0.65356 0.8212 0.0
C54 C 0.57393 0.64604 0.78686 0.0
C55 C 0.59365 0.6133 0.80921 0.0
C56 C 0.62907 0.61767 0.8256 0.0
C57 C 0.62517 0.68544 0.79833 0.0
C58 C 0.58987 0.68244 0.78185 0.0
H59 H 0.64402 0.59207 0.83879 0.0
H60 H 0.63781 0.7134 0.79172 0.0
H61 H 0.71973 0.58949 0.72219 0.0
H62 H 0.67133 0.6417 0.5111 0.0
H63 H 0.64196 0.72832 0.09588 0.0
H64 H 0.58193 0.58467 0.812 0.0
H65 H 0.57527 0.70815 0.76367 0.0
C66 C 0.32567 0.67144 0.88658 0.0
C67 C 0.32548 0.64579 0.9544 0.0
N68 N 0.30955 0.61307 0.92941 0.0
N69 N 0.31029 0.6551 0.81805 0.0
C70 C 0.29918 0.6201 0.84831 0.0
H71 H 0.33725 0.70003 0.88695 0.0
Co72 Co 0.30961 0.68123 0.71037 0.0
C73 C 0.29882 0.59758 0.646 0.0
O74 O 0.32159 0.58193 0.69796 0.0
N75 N 0.30959 0.7095 0.60417 0.0
C76 C 0.32389 0.73188 0.47288 0.0
C77 C 0.33221 0.70589 0.5366 0.0
C78 C 0.28793 0.73853 0.57903 0.0
N79 N 0.29614 0.75241 0.50006 0.0
O80 O 0.26191 0.69653 0.73641 0.0
H81 H 0.35336 0.68535 0.53155 0.0
H82 H 0.26612 0.74915 0.61643 0.0
O83 O 0.29299 0.63443 0.64709 0.0
C84 C 0.26231 0.72781 0.78067 0.0
O85 O 0.2923 0.74518 0.79153 0.0
N86 N 0.3574 0.66936 0.69343 0.0
C87 C 0.42875 0.65829 0.70834 0.0
C88 C 0.40912 0.6325 0.65973 0.0
C89 C 0.37346 0.63909 0.65136 0.0
C90 C 0.37693 0.69651 0.7341 0.0
C91 C 0.41265 0.69137 0.74322 0.0
H92 H 0.35959 0.6205 0.60874 0.0
H93 H 0.36438 0.7218 0.76218 0.0
H94 H 0.28388 0.59975 0.8127 0.0
H95 H 0.33816 0.64976 1.01537 0.0
H96 H 0.33645 0.73465 0.41031 0.0
H97 H 0.42125 0.6075 0.62895 0.0
H98 H 0.4274 0.7124 0.77931 0.0
C99 C 0.68771 0.39615 0.40314 0.0
C100 C 0.69049 0.42406 0.46597 0.0
N101 N 0.69384 0.45884 0.42692 0.0
N102 N 0.68987 0.41324 0.32493 0.0
C103 C 0.69295 0.45169 0.34181 0.0
H104 H 0.6839 0.36535 0.41396 0.0
Co105 Co 0.68582 0.38672 0.22094 0.0
C106 C 0.69904 0.44572 0.08149 0.0
O107 O 0.67449 0.4286 0.0379 0.0
N108 N 0.68133 0.35791 0.11537 0.0
C109 C 0.65967 0.32621 1.00258 0.0
C110 C 0.65191 0.34954 0.07205 0.0
C111 C 0.7067 0.33908 0.06943 0.0
N112 N 0.69406 0.31955 1.00135 0.0
O113 O 0.73145 0.36423 0.23871 0.0
H114 H 0.62605 0.35976 0.08818 0.0
H115 H 0.73394 0.33913 0.08579 0.0
O116 O 0.70601 0.43246 0.15656 0.0
C117 C 0.728 0.33141 0.2772 0.0
O118 O 0.69662 0.31662 0.28523 0.0
N119 N 0.64004 0.40533 0.21566 0.0
C120 C 0.57057 0.42328 0.25218 0.0
C121 C 0.59332 0.45211 0.22082 0.0
C122 C 0.62829 0.44255 0.20325 0.0
C123 C 0.61829 0.37756 0.2486 0.0
C124 C 0.58334 0.38565 0.26553 0.0
H125 H 0.64595 0.4655 0.18439 0.0
H126 H 0.62848 0.34889 0.2629 0.0
H127 H 0.69304 0.47423 0.29343 0.0
H128 H 0.68928 0.41944 0.53484 0.0
H129 H 0.64148 0.31459 0.95699 0.0
H130 H 0.58431 0.48177 0.21212 0.0
H131 H 0.56659 0.36298 0.29135 0.0
C132 C 0.83157 0.89849 0.15053 0.0
C133 C 0.83332 0.92403 0.08217 0.0
N134 N 0.81295 0.95501 0.10101 0.0
N135 N 0.81027 0.91336 0.2121 0.0
C136 C 0.79839 0.94712 0.17862 0.0
H137 H 0.8461 0.87161 0.15675 0.0
Co138 Co 0.80272 0.89114 0.3206 0.0
C139 C 0.79527 0.95697 0.44178 0.0
O140 O 0.81675 0.93651 0.48907 0.0
N141 N 0.79336 0.86693 0.42966 0.0
C142 C 0.75838 0.84954 0.53916 0.0
C143 C 0.76268 0.87423 0.47065 0.0
C144 C 0.80706 0.83664 0.47495 0.0
N145 N 0.78604 0.82563 0.54175 0.0
O146 O 0.75771 0.87507 0.28405 0.0
H147 H 0.74356 0.89521 0.4495 0.0
H148 H 0.83075 0.8214 0.45737 0.0
O149 O 0.78552 0.94273 0.36942 0.0
C150 C 0.76346 0.84105 0.25341 0.0
O151 O 0.79473 0.82586 0.26026 0.0
N152 N 0.84928 0.90314 0.34636 0.0
C153 C 0.91988 0.91407 0.31042 0.0
C154 C 0.89748 0.94602 0.31711 0.0
C155 C 0.86221 0.93994 0.33412 0.0
C156 C 0.87128 0.87185 0.34325 0.0
C157 C 0.90688 0.8767 0.32649 0.0
H158 H 0.84515 0.96457 0.32715 0.0
H159 H 0.86082 0.84275 0.34317 0.0
H160 H 0.7795 0.96572 0.21015 0.0
H161 H 0.85 0.92138 0.02564 0.0
H162 H 0.7359 0.8481 0.58205 0.0
H163 H 0.90672 0.97514 0.30272 0.0
H164 H 0.92356 0.85135 0.31934 0.0
C165 C 0.23526 0.11985 0.72415 0.0
C166 C 0.23293 0.09143 0.66291 0.0
N167 N 0.19946 0.08878 0.64042 0.0
N168 N 0.20348 0.13567 0.73972 0.0
C169 C 0.18206 0.11595 0.68712 0.0
H170 H 0.25863 0.12729 0.75797 0.0
Co171 Co 0.19491 0.17006 0.8318 0.0
C172 C 0.23388 0.12258 0.96463 0.0
O173 O 0.25662 0.1492 0.98557 0.0
N174 N 0.18732 0.20298 0.92771 0.0
C175 C 0.17795 0.2191 0.0649 0.0
C176 C 0.1727 0.1913 1.00311 0.0
C177 C 0.20024 0.23873 0.94489 0.0
N178 N 0.19559 0.24879 0.02853 0.0
O179 O 0.24036 0.19334 0.80991 0.0
H180 H 0.16142 0.1629 1.01449 0.0
H181 H 0.21556 0.25562 0.89949 0.0
O182 O 0.21147 0.1294 0.90726 0.0
C183 C 0.23493 0.21742 0.74827 0.0
O184 O 0.20278 0.22211 0.7225 0.0
N185 N 0.14957 0.15148 0.84356 0.0
C186 C 0.08 0.13206 0.82716 0.0
C187 C 0.10369 0.10461 0.85903 0.0
C188 C 0.13877 0.11495 0.86676 0.0
C189 C 0.12653 0.17855 0.81489 0.0
C190 C 0.09157 0.16948 0.80635 0.0
H191 H 0.15727 0.09318 0.88728 0.0
H192 H 0.13575 0.20706 0.79572 0.0
H193 H 0.15408 0.1196 0.68646 0.0
H194 H 0.25373 0.07243 0.6405 0.0
H195 H 0.17172 0.21641 0.13282 0.0
H196 H 0.09535 0.07534 0.875 0.0
H197 H 0.07381 0.19118 0.78139 0.0
C198 C 0.8347 0.16103 0.89507 0.0
C199 C 0.83241 0.13431 0.96096 0.0
N200 N 0.81442 0.10339 0.93297 0.0
N201 N 0.81825 0.14708 0.82579 0.0
C202 C 0.80519 0.11245 0.852 0.0
H203 H 0.84926 0.18792 0.8958 0.0
Co204 Co 0.82086 0.17091 0.7177 0.0
C205 C 0.8102 0.10691 0.59025 0.0
O206 O 0.83601 0.12186 0.54495 0.0
N207 N 0.82398 0.19725 0.60756 0.0
C208 C 0.84458 0.22503 0.48642 0.0
C209 C 0.85256 0.20222 0.55608 0.0
C210 C 0.79882 0.21762 0.56602 0.0
N211 N 0.81086 0.23481 0.49291 0.0
O212 O 0.77528 0.19287 0.73951 0.0
H213 H 0.87796 0.18979 0.56647 0.0
H214 H 0.7722 0.22034 0.58898 0.0
O215 O 0.80084 0.12322 0.66142 0.0
C216 C 0.77915 0.2249 0.78014 0.0
O217 O 0.81075 0.23874 0.7881 0.0
N218 N 0.86709 0.15272 0.70831 0.0
C219 C 0.93626 0.13432 0.74186 0.0
C220 C 0.91263 0.10493 0.72215 0.0
C221 C 0.87793 0.11472 0.70664 0.0
C222 C 0.88993 0.18146 0.72866 0.0
C223 C 0.92476 0.17299 0.74433 0.0
H224 H 0.85982 0.09148 0.69853 0.0
H225 H 0.88063 0.2111 0.73543 0.0
H226 H 0.78949 0.09394 0.81288 0.0
H227 H 0.84528 0.13601 0.02221 0.0
H228 H 0.86221 0.23407 0.43515 0.0
H229 H 0.92064 0.07464 0.72229 0.0
H230 H 0.94232 0.19626 0.76123 0.0
C231 C 0.13725 0.91389 0.36026 0.0
C232 C 0.13501 0.93791 0.43091 0.0
N233 N 0.16071 0.9642 0.4239 0.0
N234 N 0.16391 0.92549 0.30873 0.0
C235 C 0.17813 0.95584 0.35025 0.0
H236 H 0.1203 0.88967 0.34684 0.0
Co237 Co 0.1775 0.90284 0.20424 0.0
C238 C 0.19483 0.97161 0.0931 0.0
O239 O 0.17475 0.95633 0.03462 0.0
N240 N 0.19272 0.87898 0.0997 0.0
C241 C 0.23179 0.86292 0.99767 0.0
C242 C 0.22414 0.88769 0.06426 0.0
C243 C 0.18261 0.84698 0.05525 0.0
N244 N 0.20577 0.83723 0.99209 0.0
O245 O 0.21965 0.88504 0.25598 0.0
H246 H 0.24186 0.90906 0.08925 0.0
H247 H 0.1605 0.82913 0.07246 0.0
O248 O 0.19873 0.95363 0.16506 0.0
C249 C 0.21106 0.85469 0.29928 0.0
O250 O 0.17819 0.84424 0.30109 0.0
N251 N 0.13331 0.91569 0.16126 0.0
C252 C 0.06137 0.9239 0.18077 0.0
C253 C 0.0826 0.95686 0.17477 0.0
C254 C 0.1187 0.95212 0.16639 0.0
C255 C 0.11244 0.88365 0.16051 0.0
C256 C 0.07638 0.88711 0.16931 0.0
H257 H 0.13459 0.97743 0.17498 0.0
H258 H 0.12379 0.85504 0.16621 0.0
H259 H 0.20092 0.97145 0.32756 0.0
H260 H 0.116 0.93644 0.48302 0.0
H261 H 0.25596 0.86171 0.96086 0.0
H262 H 0.07173 0.98567 0.18526 0.0
H263 H 0.0607 0.86106 0.17566 0.0
C264 C 0.48803 0.4376 0.38822 0.0
C265 C 0.46255 0.43179 0.32477 0.0
C266 C 0.50803 0.43122 0.21144 0.0
C267 C 0.53366 0.43199 0.2759 0.0
N268 N 0.54931 0.43705 0.42474 0.0
N269 N 0.44702 0.4242 0.17618 0.0
C270 C 0.52397 0.436 0.3641 0.0
C271 C 0.4722 0.42943 0.23619 0.0
N272 N 0.47768 0.44487 0.47125 0.0
N273 N 0.51811 0.43213 0.12664 0.0
H274 H 0.42048 0.42494 0.19122 0.0
H275 H 0.45207 0.41757 0.11196 0.0
H276 H 0.54413 0.43227 0.10646 0.0
H277 H 0.50103 0.43541 0.07597 0.0
H278 H 0.49448 0.45292 0.51974 0.0
H279 H 0.45157 0.44541 0.49087 0.0
H280 H 0.5445 0.43544 0.49067 0.0
H281 H 0.57577 0.43817 0.40883 0.0
C282 C 0.52683 0.6467 0.67848 0.0
C283 C 0.53673 0.64272 0.76546 0.0
C284 C 0.47556 0.64012 0.81084 0.0
C285 C 0.46585 0.65021 0.72595 0.0
N286 N 0.48208 0.66684 0.57982 0.0
N287 N 0.52122 0.63873 0.91619 0.0
C288 C 0.4914 0.65413 0.65959 0.0
C289 C 0.5113 0.63986 0.83221 0.0
N290 N 0.55133 0.64299 0.61416 0.0
N291 N 0.45059 0.63015 0.87054 0.0
H292 H 0.5472 0.63786 0.93447 0.0
H293 H 0.50381 0.64138 0.96794 0.0
H294 H 0.42412 0.6301 0.85703 0.0
H295 H 0.45621 0.61862 0.93074 0.0
H296 H 0.54525 0.64182 0.54923 0.0
H297 H 0.57753 0.63736 0.62612 0.0
H298 H 0.50003 0.67439 0.53172 0.0
H299 H 0.45639 0.67286 0.56357 0.0
C300 C 0.01773 0.93012 0.30245 0.0
C301 C 0.0247 0.92681 0.21255 0.0
C302 C 0.9627 0.9162 0.18668 0.0
C303 C 0.95586 0.9195 0.27656 0.0
N304 N 0.97487 0.93644 0.41824 0.0
N305 N 0.00407 0.92407 0.06771 0.0
C306 C 0.98281 0.92863 0.3339 0.0
C307 C 0.99717 0.92208 0.15418 0.0
N308 N 0.04469 0.93317 0.35814 0.0
N309 N 0.93628 0.90668 0.13284 0.0
H310 H 0.02911 0.9284 0.04245 0.0
H311 H 0.985 0.92456 0.02108 0.0
H312 H 0.91048 0.90383 0.15369 0.0
H313 H 0.93995 0.89959 0.06833 0.0
H314 H 0.04203 0.93023 0.42454 0.0
H315 H 0.07034 0.93688 0.33762 0.0
H316 H 0.99257 0.94772 0.46142 0.0
H317 H 0.94973 0.93422 0.44417 0.0
C318 C 0.03359 0.11352 0.72503 0.0
C319 C 0.04321 0.12214 0.81048 0.0
C320 C 0.98175 0.12664 0.85393 0.0
C321 C 0.97254 0.12491 0.76605 0.0
N322 N 0.98897 0.11709 0.61676 0.0
N323 N 0.0274 0.13678 0.95737 0.0
C324 C 0.99821 0.11776 0.70125 0.0
C325 C 0.01752 0.12802 0.87568 0.0
N326 N 0.05848 0.10152 0.66689 0.0
N327 N 0.9562 0.1268 0.91627 0.0
H328 H 0.05336 0.13648 0.97601 0.0
H329 H 0.0102 0.14615 1.00554 0.0
H330 H 0.92977 0.12606 0.90214 0.0
H331 H 0.96107 0.12433 0.98169 0.0
H332 H 0.05294 0.09141 0.60563 0.0
H333 H 0.08463 0.09839 0.68278 0.0
H334 H 0.00685 0.11657 0.56571 0.0
H335 H 0.96322 0.11937 0.59714 0.0
C336 C 0.34544 0.56028 0.99019 0.0
C337 C 0.31214 0.57552 0.97105 0.0
C338 C 0.28553 0.51679 0.03324 0.0
C339 C 0.31856 0.5048 0.06358 0.0
N340 N 0.37841 0.52155 0.08968 0.0
N341 N 0.24986 0.57069 0.98343 0.0
C342 C 0.34815 0.52835 0.04732 0.0
C343 C 0.28189 0.55438 0.99497 0.0
N344 N 0.37446 0.57532 0.95096 0.0
N345 N 0.25807 0.49176 0.03816 0.0
H346 H 0.24666 0.59833 0.95656 0.0
H347 H 0.22689 0.55826 1.00689 0.0
H348 H 0.26039 0.46359 0.06277 0.0
H349 H 0.23411 0.49756 1.01045 0.0
H350 H 0.39918 0.56315 0.95775 0.0
H351 H 0.37306 0.5967 0.90343 0.0
H352 H 0.39982 0.54004 0.08473 0.0
H353 H 0.38065 0.5004 0.1375 0.0
C354 C 0.66457 0.51141 0.50831 0.0
C355 C 0.69506 0.49624 0.46835 0.0
C356 C 0.72775 0.55404 0.51145 0.0
C357 C 0.69789 0.56773 0.55667 0.0
N358 N 0.63935 0.55772 0.60942 0.0
N359 N 0.75643 0.49999 0.43777 0.0
C360 C 0.66665 0.54587 0.55827 0.0
C361 C 0.72692 0.51681 0.47125 0.0
N362 N 0.63344 0.49339 0.49569 0.0
N363 N 0.75653 0.57716 0.50609 0.0
H364 H 0.75631 0.47278 0.408 0.0
H365 H 0.78122 0.5116 0.44408 0.0
H366 H 0.75768 0.60414 0.5367 0.0
H367 H 0.77828 0.5709 0.46768 0.0
H368 H 0.60955 0.50484 0.51593 0.0
H369 H 0.63129 0.46838 0.45824 0.0
H370 H 0.61708 0.54115 0.62047 0.0
H371 H 0.64006 0.58299 0.64637 0.0
C372 C 0.70598 0.52561 0.91909 0.0
C373 C 0.70932 0.55916 0.97188 0.0
C374 C 0.72233 0.51599 0.09543 0.0
C375 C 0.71387 0.48316 0.04447 0.0
N376 N 0.71803 0.45665 0.9023 0.0
N377 N 0.73066 0.58646 0.10307 0.0
C378 C 0.71252 0.48812 0.9543 0.0
C379 C 0.72076 0.5543 0.05808 0.0
N380 N 0.6939 0.52871 0.83754 0.0
N381 N 0.73265 0.51052 0.178 0.0
H382 H 0.73115 0.61426 0.07569 0.0
H383 H 0.74049 0.58579 0.16489 0.0
H384 H 0.74107 0.48347 0.20004 0.0
H385 H 0.73473 0.53261 0.2232 0.0
H386 H 0.68699 0.50477 0.80058 0.0
H387 H 0.68812 0.55515 0.80919 0.0
H388 H 0.72024 0.45864 0.83554 0.0
H389 H 0.72486 0.42953 0.92756 0.0
C390 C 0.26219 0.50542 0.55913 0.0
C391 C 0.28033 0.50379 0.4788 0.0
C392 C 0.2972 0.57231 0.49445 0.0
C393 C 0.28366 0.57176 0.57984 0.0
N394 N 0.24358 0.54434 0.68263 0.0
N395 N 0.30393 0.53929 0.35751 0.0
C396 C 0.26267 0.54038 0.60823 0.0
C397 C 0.29391 0.53859 0.44198 0.0
N398 N 0.2458 0.47281 0.58949 0.0
N399 N 0.31505 0.60419 0.46556 0.0
H400 H 0.30139 0.51528 0.31804 0.0
H401 H 0.3115 0.56431 0.32438 0.0
H402 H 0.31529 0.63018 0.49967 0.0
H403 H 0.33009 0.60485 0.40928 0.0
H404 H 0.2354 0.46996 0.65138 0.0
H405 H 0.24304 0.448 0.55174 0.0
H406 H 0.2261 0.52367 0.70611 0.0
H407 H 0.24314 0.57037 0.71723 0.0
C408 C 0.78133 0.04723 0.99336 0.0
C409 C 0.81351 0.06521 0.97221 0.0
C410 C 0.8446 1.01249 0.0443 0.0
C411 C 0.81287 0.99222 0.05736 0.0
N412 N 0.75151 0.9872 0.03182 0.0
N413 N 0.87575 0.05875 0.955 0.0
C414 C 0.78126 1.00874 0.02831 0.0
C415 C 0.84519 0.04597 0.99098 0.0
N416 N 0.75104 0.0674 0.98253 0.0
N417 N 0.87385 1.00103 0.08626 0.0
H418 H 0.8768 0.08153 0.91059 0.0
H419 H 0.89923 0.04376 0.96122 0.0
H420 H 0.87389 0.97843 0.13114 0.0
H421 H 0.8969 1.01695 0.08422 0.0
H422 H 0.72689 0.05731 1.00413 0.0
H423 H 0.75055 0.09574 0.9582 0.0
H424 H 0.72823 0.99625 1.00468 0.0
H425 H 0.75103 0.95869 0.05525 0.0
C426 C 0.17158 0.06581 0.50799 0.0
C427 C 0.18513 0.05782 0.59019 0.0
C428 C 0.18221 0.98773 0.56275 0.0
C429 C 0.16757 0.99568 0.48177 0.0
N430 N 0.14083 0.04089 0.38484 0.0
N431 N 0.19535 1.0122 0.70466 0.0
C432 C 0.15993 0.03441 0.45667 0.0
C433 C 0.18791 1.01896 0.62036 0.0
N434 N 0.17138 0.10317 0.47774 0.0
N435 N 0.19195 0.95055 0.5828 0.0
H436 H 0.19852 0.03476 0.74867 0.0
H437 H 0.195 0.98462 0.73267 0.0
H438 H 0.18841 0.92721 0.54106 0.0
H439 H 0.20597 0.94337 0.63735 0.0
H440 H 0.16524 0.11047 0.41475 0.0
H441 H 0.17978 0.12665 0.51428 0.0
H442 H 0.13162 0.06827 0.36706 0.0
H443 H 0.13169 1.01819 0.34696 0.0
C444 C 0.24238 0.0503 0.96238 0.0
C445 C 0.23257 0.08406 1.00886 0.0
C446 C 0.20609 0.04348 0.1229 0.0
C447 C 0.21271 1.00951 0.07225 0.0
N448 N 0.23848 0.98033 0.94485 0.0
N449 N 0.21319 0.11349 0.14131 0.0
C450 C 0.23168 1.01291 0.99277 0.0
C451 C 0.21716 0.08078 0.09198 0.0
N452 N 0.26313 0.05425 0.89051 0.0
N453 N 0.1867 0.04065 0.19707 0.0
H454 H 0.22026 0.14115 0.11962 0.0
H455 H 0.20562 0.11322 0.20584 0.0
H456 H 0.17878 1.0143 0.22333 0.0
H457 H 0.17676 0.06441 0.23092 0.0
H458 H 0.27371 1.03117 0.85553 0.0
H459 H 0.27249 0.08123 0.86984 0.0
H460 H 0.2475 0.98073 0.88142 0.0
H461 H 0.23409 0.95228 0.96774 0.0
C462 C 0.79085 0.03549 0.60609 0.0
C463 C 0.79401 0.07025 0.5566 0.0
C464 C 0.78858 1.03148 0.42506 0.0
C465 C 0.78532 0.99675 0.47492 0.0
N466 N 0.76791 0.96994 0.61225 0.0
N467 N 0.78102 0.10164 0.42242 0.0
C468 C 0.78065 1.00049 0.5652 0.0
C469 C 0.78754 0.06825 0.46723 0.0
N470 N 0.80102 0.03426 0.68937 0.0
N471 N 0.79557 1.02999 0.33911 0.0
H472 H 0.7789 0.12859 0.45298 0.0
H473 H 0.77372 0.10172 0.35817 0.0
H474 H 0.79802 1.00407 0.30617 0.0
H475 H 0.80197 0.05449 0.30244 0.0
H476 H 0.80199 1.00859 0.72526 0.0
H477 H 0.81267 0.05768 0.71854 0.0
H478 H 0.7619 0.97208 0.67773 0.0
H479 H 0.75977 0.9442 0.58334 0.0
C480 C 0.26657 0.31272 0.11276 0.0
C481 C 0.24887 0.33269 0.18044 0.0
C482 C 0.1941 0.30461 0.13036 0.0
C483 C 0.21324 0.27904 0.07533 0.0
N484 N 0.26947 0.25258 0.03441 0.0
N485 N 0.19495 0.34533 0.25782 0.0
C486 C 0.24997 0.28156 0.07129 0.0
C487 C 0.21221 0.32849 0.18997 0.0
N488 N 0.29934 0.32356 0.0876 0.0
N489 N 0.15873 0.30617 0.125 0.0
H490 H 0.20723 0.36278 0.30271 0.0
H491 H 0.16892 0.33972 0.27285 0.0
H492 H 0.14515 0.28944 0.08091 0.0
H493 H 0.14343 0.32651 0.15808 0.0
H494 H 0.31212 0.3116 0.03406 0.0
H495 H 0.31173 0.34761 0.11368 0.0
H496 H 0.29657 0.25187 0.03686 0.0
H497 H 0.25871 0.227 1.01114 0.0
C498 C 0.77351 0.72649 0.64089 0.0
C499 C 0.76644 0.73856 0.72652 0.0
C500 C 0.79038 0.80301 0.691 0.0
C501 C 0.78906 0.7938 0.60251 0.0
N502 N 0.78099 0.74617 0.49159 0.0
N503 N 0.77196 0.7867 0.83699 0.0
C504 C 0.78207 0.75499 0.57697 0.0
C505 C 0.77693 0.77615 0.75312 0.0
N506 N 0.77098 0.68797 0.62071 0.0
N507 N 0.8035 0.83824 0.71434 0.0
H508 H 0.76395 0.7667 0.88372 0.0
H509 H 0.77497 0.81494 0.85978 0.0
H510 H 0.81318 0.85797 0.66867 0.0
H511 H 0.80741 0.84652 0.77774 0.0
H512 H 0.77784 0.67659 0.56077 0.0
H513 H 0.7655 0.66691 0.66737 0.0
H514 H 0.77178 0.71985 0.4681 0.0
H515 H 0.78789 0.76606 0.44367 0.0
C516 C 0.19806 0.80207 0.85553 0.0
C517 C 0.20814 0.80177 0.94274 0.0
C518 C 0.23449 0.73745 0.92204 0.0
C519 C 0.23207 0.74223 0.83237 0.0
N520 N 0.20487 0.77302 0.71294 0.0
N521 N 0.23808 0.77038 0.05858 0.0
C522 C 0.21112 0.77246 0.79892 0.0
C523 C 0.22613 0.76923 0.97663 0.0
N524 N 0.17717 0.83153 0.82736 0.0
N525 N 0.24607 0.70281 0.95388 0.0
H526 H 0.2342 0.79449 0.09805 0.0
H527 H 0.25435 0.74916 0.08435 0.0
H528 H 0.25112 0.67924 0.91325 0.0
H529 H 0.24671 0.69634 1.01932 0.0
H530 H 0.16772 0.83357 0.76527 0.0
H531 H 0.16789 0.85326 0.86878 0.0
H532 H 0.19242 0.79567 0.68109 0.0
H533 H 0.21176 0.74943 0.67394 0.0
C534 C 0.76253 0.2705 0.29821 0.0
C535 C 0.7571 0.31026 0.31982 0.0
C536 C 0.79105 0.30085 0.45136 0.0
C537 C 0.79259 0.26031 0.43471 0.0
N538 N 0.78144 0.20591 0.34319 0.0
N539 N 0.76827 0.36463 0.41303 0.0
C540 C 0.77904 0.24505 0.35777 0.0
C541 C 0.77247 0.32599 0.39469 0.0
N542 N 0.75233 0.25756 0.21952 0.0
N543 N 0.80804 0.31513 0.52093 0.0
H544 H 0.75827 0.38447 0.36912 0.0
H545 H 0.77434 0.37725 0.47157 0.0
H546 H 0.82098 0.29712 0.56418 0.0
H547 H 0.81101 0.34461 0.53397 0.0
H548 H 0.75721 0.22971 0.19594 0.0
H549 H 0.74123 0.2761 0.17424 0.0
H550 H 0.76944 0.19159 0.29295 0.0
H551 H 0.79452 0.1872 0.38459 0.0
C552 C 0.71457 0.79864 0.06642 0.0
C553 C 0.70913 0.76051 0.09912 0.0
C554 C 0.72701 0.78199 0.2418 0.0
C555 C 0.73735 0.81825 0.20623 0.0
N556 N 0.74218 0.86147 0.08435 0.0
N557 N 0.71191 0.7145 0.21529 0.0
C558 C 0.73103 0.82693 0.11858 0.0
C559 C 0.71549 0.75192 0.18651 0.0
N560 N 0.70311 0.80792 0.98627 0.0
N561 N 0.72818 0.77665 0.32879 0.0
H562 H 0.70406 0.69187 0.17546 0.0
H563 H 0.71927 0.70523 0.27613 0.0
H564 H 0.73592 0.79874 0.37025 0.0
H565 H 0.71852 0.75208 0.36034 0.0
H566 H 0.70324 0.83609 0.96135 0.0
H567 H 0.69083 0.78781 0.94697 0.0
H568 H 0.74266 0.86756 1.01872 0.0
H569 H 0.75238 0.88365 0.12182 0.0
C570 C 0.27953 0.27055 0.73436 0.0
C571 C 0.26283 0.23798 0.69792 0.0
C572 C 0.27821 0.26227 0.55301 0.0
C573 C 0.28756 0.29837 0.5894 0.0
N574 N 0.30047 0.33685 0.71277 0.0
N575 N 0.24941 0.20008 0.57285 0.0
C576 C 0.28997 0.30212 0.67981 0.0
C577 C 0.26406 0.23259 0.60718 0.0
N578 N 0.28455 0.27143 0.82089 0.0
N579 N 0.28161 0.25714 0.46621 0.0
H580 H 0.24033 0.17725 0.61097 0.0
H581 H 0.24512 0.19609 0.50762 0.0
H582 H 0.29073 0.27892 0.42502 0.0
H583 H 0.2781 0.23062 0.43541 0.0
H584 H 0.29798 0.29336 0.85215 0.0
H585 H 0.27795 0.24788 0.8602 0.0
H586 H 0.29957 0.34362 0.77795 0.0
H587 H 0.3092 0.35955 0.6732 0.0
C588 C 0.73628 0.22996 0.90425 0.0
C589 C 0.75019 0.24563 0.82616 0.0
C590 C 0.7253 0.30984 0.86262 0.0
C591 C 0.71269 0.29451 0.94175 0.0
N592 N 0.70023 0.2397 0.03283 0.0
N593 N 0.7531 0.29788 0.72314 0.0
C594 C 0.71636 0.25436 0.96081 0.0
C595 C 0.74307 0.28488 0.80296 0.0
N596 N 0.74354 0.19226 0.92615 0.0
N597 N 0.72064 0.34858 0.84598 0.0
H598 H 0.76551 0.27985 0.67813 0.0
H599 H 0.74722 0.3253 0.69871 0.0
H600 H 0.70651 0.36673 0.88754 0.0
H601 H 0.73154 0.36321 0.79352 0.0
H602 H 0.7386 0.18034 0.98669 0.0
H603 H 0.75544 0.17278 0.88371 0.0
H604 H 0.69864 0.21015 0.04733 0.0
H605 H 0.68648 0.25726 0.07643 0.0
C606 C 0.23472 0.78844 0.33234 0.0
C607 C 0.23645 0.82952 0.34486 0.0
C608 C 0.2803 0.81934 0.45602 0.0
C609 C 0.27587 0.77861 0.44857 0.0
N610 N 0.24594 0.72391 0.38969 0.0
N611 N 0.25691 0.88384 0.42841 0.0
C612 C 0.25231 0.76306 0.3893 0.0
C613 C 0.25846 0.84507 0.40881 0.0
N614 N 0.21683 0.77361 0.26468 0.0
N615 N 0.30566 0.83322 0.50795 0.0
H616 H 0.2409 0.90355 0.39671 0.0
H617 H 0.2694 0.89602 0.4807 0.0
H618 H 0.32125 0.81482 0.54462 0.0
H619 H 0.31289 0.86241 0.50996 0.0
H620 H 0.21795 0.74447 0.24644 0.0
H621 H 0.20319 0.79087 0.22153 0.0
H622 H 0.22607 0.71099 0.35532 0.0
H623 H 0.25873 0.70452 0.43022 0.0
loop_
_geom_bond_atom_site_label_1
_geom_bond_atom_site_label_2
_geom_bond_distance
_geom_bond_site_symmetry_2
_ccdc_geom_bond_type
C0 C1 1.351 . S
C0 N3 1.368 . S
C0 H5 0.931 . S
C1 C0 1.351 . S
C1 N2 1.373 . S
C1 H29 0.930 1_554 S
N2 C1 1.373 . S
N2 C4 1.340 . S
N3 C0 1.368 . S
N3 C4 1.321 . S
N3 Co6 2.135 . S
C4 N2 1.340 . S
C4 N3 1.321 . S
C4 H28 0.930 . S
H5 C0 0.931 . S
Co6 N3 2.135 . S
Co6 N9 2.121 . S
Co6 O14 2.055 . S
Co6 O17 2.039 . S
Co6 N20 2.140 . S
C7 O8 1.227 . S
C7 O17 1.265 . S
O8 C7 1.227 . S
N9 Co6 2.121 . S
N9 C11 1.375 . S
N9 C12 1.313 . S
C10 C11 1.338 . S
C10 N13 1.377 . S
C10 H30 0.930 . S
C11 N9 1.375 . S
C11 C10 1.338 . S
C11 H15 0.931 . S
C12 N9 1.313 . S
C12 N13 1.344 . S
C12 H16 0.930 . S
N13 C10 1.377 . S
N13 C12 1.344 . S
O14 Co6 2.055 . S
O14 C18 1.253 . S
H15 C11 0.931 . S
H16 C12 0.930 . S
O17 Co6 2.039 . S
O17 C7 1.265 . S
C18 O14 1.253 . S
C18 O19 1.227 . S
O19 C18 1.227 . S
N20 Co6 2.140 . S
N20 C23 1.346 . S
N20 C24 1.345 . S
C21 C22 1.387 . S
C21 C25 1.391 . S
C22 C21 1.387 . S
C22 C23 1.369 . S
C22 H31 0.929 . S
C23 N20 1.346 . S
C23 C22 1.369 . S
C23 H26 0.928 . S
C24 N20 1.345 . S
C24 C25 1.371 . S
C24 H27 0.931 . S
C25 C21 1.391 . S
C25 C24 1.371 . S
C25 H32 0.930 . S
H26 C23 0.928 . S
H27 C24 0.931 . S
H28 C4 0.930 . S
H29 C1 0.930 1_556 S
H30 C10 0.930 . S
H31 C22 0.929 . S
H32 C25 0.930 . S
C33 C34 1.351 . S
C33 N36 1.368 . S
C33 H38 0.931 . S
C34 C33 1.351 . S
C34 N35 1.373 . S
C34 H62 0.930 . S
N35 C34 1.373 . S
N35 C37 1.340 . S
N36 C33 1.368 . S
N36 C37 1.321 . S
N36 Co39 2.135 . S
C37 N35 1.340 . S
C37 N36 1.321 . S
C37 H61 0.930 . S
H38 C33 0.931 . S
Co39 N36 2.135 . S
Co39 N42 2.121 . S
Co39 O47 2.055 . S
Co39 O50 2.039 . S
Co39 N53 2.140 . S
C40 O41 1.227 . S
C40 O50 1.265 . S
O41 C40 1.227 . S
N42 Co39 2.121 . S
N42 C44 1.375 . S
N42 C45 1.313 . S
C43 C44 1.338 1_554 S
C43 N46 1.377 1_554 S
C43 H63 0.930 . S
C44 N42 1.375 . S
C44 C43 1.338 1_556 S
C44 H48 0.931 . S
C45 N42 1.313 . S
C45 N46 1.344 . S
C45 H49 0.930 . S
N46 C43 1.377 1_556 S
N46 C45 1.344 . S
O47 Co39 2.055 . S
O47 C51 1.253 . S
H48 C44 0.931 . S
H49 C45 0.930 . S
O50 Co39 2.039 . S
O50 C40 1.265 . S
C51 O47 1.253 . S
C51 O52 1.227 . S
O52 C51 1.227 . S
N53 Co39 2.140 . S
N53 C56 1.346 . S
N53 C57 1.345 . S
C54 C55 1.387 . S
C54 C58 1.391 . S
C55 C54 1.387 . S
C55 C56 1.369 . S
C55 H64 0.929 . S
C56 N53 1.346 . S
C56 C55 1.369 . S
C56 H59 0.928 . S
C57 N53 1.345 . S
C57 C58 1.371 . S
C57 H60 0.931 . S
C58 C54 1.391 . S
C58 C57 1.371 . S
C58 H65 0.930 . S
H59 C56 0.928 . S
H60 C57 0.931 . S
H61 C37 0.930 . S
H62 C34 0.930 . S
H63 C43 0.930 . S
H64 C55 0.929 . S
H65 C58 0.930 . S
C66 C67 1.351 . S
C66 N69 1.368 . S
C66 H71 0.931 . S
C67 C66 1.351 . S
C67 N68 1.373 . S
C67 H95 0.930 1_556 S
N68 C67 1.373 . S
N68 C70 1.340 . S
N69 C66 1.368 . S
N69 C70 1.321 . S
N69 Co72 2.135 . S
C70 N68 1.340 . S
C70 N69 1.321 . S
C70 H94 0.930 . S
H71 C66 0.931 . S
Co72 N69 2.135 . S
Co72 N75 2.121 . S
Co72 O80 2.055 . S
Co72 O83 2.039 . S
Co72 N86 2.140 . S
C73 O74 1.227 . S
C73 O83 1.265 . S
O74 C73 1.227 . S
N75 Co72 2.121 . S
N75 C77 1.375 . S
N75 C78 1.313 . S
C76 C77 1.338 . S
C76 N79 1.377 . S
C76 H96 0.930 . S
C77 N75 1.375 . S
C77 C76 1.338 . S
C77 H81 0.931 . S
C78 N75 1.313 . S
C78 N79 1.344 . S
C78 H82 0.930 . S
N79 C76 1.377 . S
N79 C78 1.344 . S
O80 Co72 2.055 . S
O80 C84 1.253 . S
H81 C77 0.931 . S
H82 C78 0.930 . S
O83 Co72 2.039 . S
O83 C73 1.265 . S
C84 O80 1.253 . S
C84 O85 1.227 . S
O85 C84 1.227 . S
N86 Co72 2.140 . S
N86 C89 1.346 . S
N86 C90 1.345 . S
C87 C88 1.387 . S
C87 C91 1.391 . S
C88 C87 1.387 . S
C88 C89 1.369 . S
C88 H97 0.929 . S
C89 N86 1.346 . S
C89 C88 1.369 . S
C89 H92 0.928 . S
C90 N86 1.345 . S
C90 C91 1.371 . S
C90 H93 0.931 . S
C91 C87 1.391 . S
C91 C90 1.371 . S
C91 H98 0.930 . S
H92 C89 0.928 . S
H93 C90 0.931 . S
H94 C70 0.930 . S
H95 C67 0.930 1_554 S
H96 C76 0.930 . S
H97 C88 0.929 . S
H98 C91 0.930 . S
C99 C100 1.351 . S
C99 N102 1.368 . S
C99 H104 0.931 . S
C100 C99 1.351 . S
C100 N101 1.373 . S
C100 H128 0.930 . S
N101 C100 1.373 . S
N101 C103 1.340 . S
N102 C99 1.368 . S
N102 C103 1.321 . S
N102 Co105 2.135 . S
C103 N101 1.340 . S
C103 N102 1.321 . S
C103 H127 0.930 . S
H104 C99 0.931 . S
Co105 N102 2.135 . S
Co105 N108 2.121 . S
Co105 O113 2.055 . S
Co105 O116 2.039 . S
Co105 N119 2.140 . S
C106 O107 1.227 . S
C106 O116 1.265 . S
O107 C106 1.227 . S
N108 Co105 2.121 . S
N108 C110 1.375 . S
N108 C111 1.313 . S
C109 C110 1.338 1_556 S
C109 N112 1.377 1_556 S
C109 H129 0.930 . S
C110 N108 1.375 . S
C110 C109 1.338 1_554 S
C110 H114 0.931 . S
C111 N108 1.313 . S
C111 N112 1.344 . S
C111 H115 0.930 . S
N112 C109 1.377 1_554 S
N112 C111 1.344 . S
O113 Co105 2.055 . S
O113 C117 1.253 . S
H114 C110 0.931 . S
H115 C111 0.930 . S
O116 Co105 2.039 . S
O116 C106 1.265 . S
C117 O113 1.253 . S
C117 O118 1.227 . S
O118 C117 1.227 . S
N119 Co105 2.140 . S
N119 C122 1.346 . S
N119 C123 1.345 . S
C120 C121 1.387 . S
C120 C124 1.391 . S
C121 C120 1.387 . S
C121 C122 1.369 . S
C121 H130 0.929 . S
C122 N119 1.346 . S
C122 C121 1.369 . S
C122 H125 0.928 . S
C123 N119 1.345 . S
C123 C124 1.371 . S
C123 H126 0.931 . S
C124 C120 1.391 . S
C124 C123 1.371 . S
C124 H131 0.930 . S
H125 C122 0.928 . S
H126 C123 0.931 . S
H127 C103 0.930 . S
H128 C100 0.930 . S
H129 C109 0.930 . S
H130 C121 0.929 . S
H131 C124 0.930 . S
C132 C133 1.351 . S
C132 N135 1.368 . S
C132 H137 0.931 . S
C133 C132 1.351 . S
C133 N134 1.373 . S
C133 H161 0.930 1_554 S
N134 C133 1.373 . S
N134 C136 1.340 . S
N135 C132 1.368 . S
N135 C136 1.321 . S
N135 Co138 2.135 . S
C136 N134 1.340 . S
C136 N135 1.321 . S
C136 H160 0.930 . S
H137 C132 0.931 . S
Co138 N135 2.135 . S
Co138 N141 2.121 . S
Co138 O146 2.055 . S
Co138 O149 2.039 . S
Co138 N152 2.140 . S
C139 O140 1.227 . S
C139 O149 1.265 . S
O140 C139 1.227 . S
N141 Co138 2.121 . S
N141 C143 1.375 . S
N141 C144 1.313 . S
C142 C143 1.338 . S
C142 N145 1.377 . S
C142 H162 0.930 . S
C143 N141 1.375 . S
C143 C142 1.338 . S
C143 H147 0.931 . S
C144 N141 1.313 . S
C144 N145 1.344 . S
C144 H148 0.930 . S
N145 C142 1.377 . S
N145 C144 1.344 . S
O146 Co138 2.055 . S
O146 C150 1.253 . S
H147 C143 0.931 . S
H148 C144 0.930 . S
O149 Co138 2.039 . S
O149 C139 1.265 . S
C150 O146 1.253 . S
C150 O151 1.227 . S
O151 C150 1.227 . S
N152 Co138 2.140 . S
N152 C155 1.346 . S
N152 C156 1.345 . S
C153 C154 1.387 . S
C153 C157 1.391 . S
C154 C153 1.387 . S
C154 C155 1.369 . S
C154 H163 0.929 . S
C155 N152 1.346 . S
C155 C154 1.369 . S
C155 H158 0.928 . S
C156 N152 1.345 . S
C156 C157 1.371 . S
C156 H159 0.931 . S
C157 C153 1.391 . S
C157 C156 1.371 . S
C157 H164 0.930 . S
H158 C155 0.928 . S
H159 C156 0.931 . S
H160 C136 0.930 . S
H161 C133 0.930 1_556 S
H162 C142 0.930 . S
H163 C154 0.929 . S
H164 C157 0.930 . S
C165 C166 1.351 . S
C165 N168 1.368 . S
C165 H170 0.931 . S
C166 C165 1.351 . S
C166 N167 1.373 . S
C166 H194 0.930 . S
N167 C166 1.373 . S
N167 C169 1.340 . S
N168 C165 1.368 . S
N168 C169 1.321 . S
N168 Co171 2.135 . S
C169 N167 1.340 . S
C169 N168 1.321 . S
C169 H193 0.930 . S
H170 C165 0.931 . S
Co171 N168 2.135 . S
Co171 N174 2.121 . S
Co171 O179 2.055 . S
Co171 O182 2.039 . S
Co171 N185 2.140 . S
C172 O173 1.227 . S
C172 O182 1.265 . S
O173 C172 1.227 . S
N174 Co171 2.121 . S
N174 C176 1.375 . S
N174 C177 1.313 . S
C175 C176 1.338 1_554 S
C175 N178 1.377 1_554 S
C175 H195 0.930 . S
C176 N174 1.375 . S
C176 C175 1.338 1_556 S
C176 H180 0.931 . S
C177 N174 1.313 . S
C177 N178 1.344 . S
C177 H181 0.930 . S
N178 C175 1.377 1_556 S
N178 C177 1.344 . S
O179 Co171 2.055 . S
O179 C183 1.253 . S
H180 C176 0.931 . S
H181 C177 0.930 . S
O182 Co171 2.039 . S
O182 C172 1.265 . S
C183 O179 1.253 . S
C183 O184 1.227 . S
O184 C183 1.227 . S
N185 Co171 2.140 . S
N185 C188 1.346 . S
N185 C189 1.345 . S
C186 C187 1.387 . S
C186 C190 1.391 . S
C187 C186 1.387 . S
C187 C188 1.369 . S
C187 H196 0.929 . S
C188 N185 1.346 . S
C188 C187 1.369 . S
C188 H191 0.928 . S
C189 N185 1.345 . S
C189 C190 1.371 . S
C189 H192 0.931 . S
C190 C186 1.391 . S
C190 C189 1.371 . S
C190 H197 0.930 . S
H191 C188 0.928 . S
H192 C189 0.931 . S
H193 C169 0.930 . S
H194 C166 0.930 . S
H195 C175 0.930 . S
H196 C187 0.929 . S
H197 C190 0.930 . S
C198 C199 1.351 . S
C198 N201 1.368 . S
C198 H203 0.931 . S
C199 C198 1.351 . S
C199 N200 1.373 . S
C199 H227 0.930 1_556 S
N200 C199 1.373 . S
N200 C202 1.340 . S
N201 C198 1.368 . S
N201 C202 1.321 . S
N201 Co204 2.135 . S
C202 N200 1.340 . S
C202 N201 1.321 . S
C202 H226 0.930 . S
H203 C198 0.931 . S
Co204 N201 2.135 . S
Co204 N207 2.121 . S
Co204 O212 2.055 . S
Co204 O215 2.039 . S
Co204 N218 2.140 . S
C205 O206 1.227 . S
C205 O215 1.265 . S
O206 C205 1.227 . S
N207 Co204 2.121 . S
N207 C209 1.375 . S
N207 C210 1.313 . S
C208 C209 1.338 . S
C208 N211 1.377 . S
C208 H228 0.930 . S
C209 N207 1.375 . S
C209 C208 1.338 . S
C209 H213 0.931 . S
C210 N207 1.313 . S
C210 N211 1.344 . S
C210 H214 0.930 . S
N211 C208 1.377 . S
N211 C210 1.344 . S
O212 Co204 2.055 . S
O212 C216 1.253 . S
H213 C209 0.931 . S
H214 C210 0.930 . S
O215 Co204 2.039 . S
O215 C205 1.265 . S
C216 O212 1.253 . S
C216 O217 1.227 . S
O217 C216 1.227 . S
N218 Co204 2.140 . S
N218 C221 1.346 . S
N218 C222 1.345 . S
C219 C220 1.387 . S
C219 C223 1.391 . S
C220 C219 1.387 . S
C220 C221 1.369 . S
C220 H229 0.929 . S
C221 N218 1.346 . S
C221 C220 1.369 . S
C221 H224 0.928 . S
C222 N218 1.345 . S
C222 C223 1.371 . S
C222 H225 0.931 . S
C223 C219 1.391 . S
C223 C222 1.371 . S
C223 H230 0.930 . S
H224 C221 0.928 . S
H225 C222 0.931 . S
H226 C202 0.930 . S
H227 C199 0.930 1_554 S
H228 C208 0.930 . S
H229 C220 0.929 . S
H230 C223 0.930 . S
C231 C232 1.351 . S
C231 N234 1.368 . S
C231 H236 0.931 . S
C232 C231 1.351 . S
C232 N233 1.373 . S
C232 H260 0.930 . S
N233 C232 1.373 . S
N233 C235 1.340 . S
N234 C231 1.368 . S
N234 C235 1.321 . S
N234 Co237 2.135 . S
C235 N233 1.340 . S
C235 N234 1.321 . S
C235 H259 0.930 . S
H236 C231 0.931 . S
Co237 N234 2.135 . S
Co237 N240 2.121 . S
Co237 O245 2.055 . S
Co237 O248 2.039 . S
Co237 N251 2.140 . S
C238 O239 1.227 . S
C238 O248 1.265 . S
O239 C238 1.227 . S
N240 Co237 2.121 . S
N240 C242 1.375 . S
N240 C243 1.313 . S
C241 C242 1.338 1_556 S
C241 N244 1.377 1_556 S
C241 H261 0.930 . S
C242 N240 1.375 . S
C242 C241 1.338 1_554 S
C242 H246 0.931 . S
C243 N240 1.313 . S
C243 N244 1.344 . S
C243 H247 0.930 . S
N244 C241 1.377 1_554 S
N244 C243 1.344 . S
O245 Co237 2.055 . S
O245 C249 1.253 . S
H246 C242 0.931 . S
H247 C243 0.930 . S
O248 Co237 2.039 . S
O248 C238 1.265 . S
C249 O245 1.253 . S
C249 O250 1.227 . S
O250 C249 1.227 . S
N251 Co237 2.140 . S
N251 C254 1.346 . S
N251 C255 1.345 . S
C252 C253 1.387 . S
C252 C256 1.391 . S
C253 C252 1.387 . S
C253 C254 1.369 . S
C253 H262 0.929 . S
C254 N251 1.346 . S
C254 C253 1.369 . S
C254 H257 0.928 . S
C255 N251 1.345 . S
C255 C256 1.371 . S
C255 H258 0.931 . S
C256 C252 1.391 . S
C256 C255 1.371 . S
C256 H263 0.930 . S
H257 C254 0.928 . S
H258 C255 0.931 . S
H259 C235 0.930 . S
H260 C232 0.930 . S
H261 C241 0.930 . S
H262 C253 0.929 . S
H263 C256 0.930 . S
C264 C265 1.363 . S
C264 C270 1.379 . S
C264 N272 1.356 . S
C265 C264 1.363 . S
C265 C271 1.363 . S
C266 C267 1.363 . S
C266 C271 1.379 . S
C266 N273 1.356 . S
C267 C266 1.363 . S
C267 C270 1.363 . S
N268 C270 1.356 . S
N268 H280 0.984 . S
N268 H281 0.985 . S
N269 C271 1.356 . S
N269 H274 0.984 . S
N269 H275 0.985 . S
C270 C264 1.379 . S
C270 C267 1.363 . S
C270 N268 1.356 . S
C271 C265 1.363 . S
C271 C266 1.379 . S
C271 N269 1.356 . S
N272 C264 1.356 . S
N272 H278 0.984 . S
N272 H279 0.984 . S
N273 C266 1.356 . S
N273 H276 0.984 . S
N273 H277 0.985 . S
H274 N269 0.984 . S
H275 N269 0.985 . S
H276 N273 0.984 . S
H277 N273 0.985 . S
H278 N272 0.984 . S
H279 N272 0.984 . S
H280 N268 0.984 . S
H281 N268 0.985 . S
C282 C283 1.363 . S
C282 C288 1.379 . S
C282 N290 1.356 . S
C283 C282 1.363 . S
C283 C289 1.363 . S
C284 C285 1.363 . S
C284 C289 1.379 . S
C284 N291 1.356 . S
C285 C284 1.363 . S
C285 C288 1.363 . S
N286 C288 1.356 . S
N286 H298 0.984 . S
N286 H299 0.985 . S
N287 C289 1.356 . S
N287 H292 0.984 . S
N287 H293 0.985 . S
C288 C282 1.379 . S
C288 C285 1.363 . S
C288 N286 1.356 . S
C289 C283 1.363 . S
C289 C284 1.379 . S
C289 N287 1.356 . S
N290 C282 1.356 . S
N290 H296 0.984 . S
N290 H297 0.984 . S
N291 C284 1.356 . S
N291 H294 0.984 . S
N291 H295 0.985 . S
H292 N287 0.984 . S
H293 N287 0.985 . S
H294 N291 0.984 . S
H295 N291 0.985 . S
H296 N290 0.984 . S
H297 N290 0.984 . S
H298 N286 0.984 . S
H299 N286 0.985 . S
C300 C301 1.363 . S
C300 C306 1.379 1_455 S
C300 N308 1.356 . S
C301 C300 1.363 . S
C301 C307 1.363 . S
C302 C303 1.363 . S
C302 C307 1.379 1_655 S
C302 N309 1.356 . S
C303 C302 1.363 . S
C303 C306 1.363 . S
N304 C306 1.356 . S
N304 H316 0.984 . S
N304 H317 0.985 . S
N305 C307 1.356 . S
N305 H310 0.984 . S
N305 H311 0.985 . S
C306 C300 1.379 1_655 S
C306 C303 1.363 . S
C306 N304 1.356 . S
C307 C301 1.363 . S
C307 C302 1.379 1_455 S
C307 N305 1.356 . S
N308 C300 1.356 . S
N308 H314 0.984 . S
N308 H315 0.984 . S
N309 C302 1.356 . S
N309 H312 0.984 . S
N309 H313 0.985 . S
H310 N305 0.984 . S
H311 N305 0.985 . S
H312 N309 0.984 . S
H313 N309 0.985 . S
H314 N308 0.984 . S
H315 N308 0.984 . S
H316 N304 0.984 . S
H317 N304 0.985 . S
C318 C319 1.363 . S
C318 C324 1.379 1_455 S
C318 N326 1.356 . S
C319 C318 1.363 . S
C319 C325 1.363 . S
C320 C321 1.363 . S
C320 C325 1.379 1_655 S
C320 N327 1.356 . S
C321 C320 1.363 . S
C321 C324 1.363 . S
N322 C324 1.356 . S
N322 H334 0.984 . S
N322 H335 0.985 . S
N323 C325 1.356 . S
N323 H328 0.984 . S
N323 H329 0.985 . S
C324 C318 1.379 1_655 S
C324 C321 1.363 . S
C324 N322 1.356 . S
C325 C319 1.363 . S
C325 C320 1.379 1_455 S
C325 N323 1.356 . S
N326 C318 1.356 . S
N326 H332 0.984 . S
N326 H333 0.984 . S
N327 C320 1.356 . S
N327 H330 0.984 . S
N327 H331 0.985 . S
H328 N323 0.984 . S
H329 N323 0.985 . S
H330 N327 0.984 . S
H331 N327 0.985 . S
H332 N326 0.984 . S
H333 N326 0.984 . S
H334 N322 0.984 . S
H335 N322 0.985 . S
C336 C337 1.363 1_554 S
C336 C342 1.379 . S
C336 N344 1.356 . S
C337 C336 1.363 1_556 S
C337 C343 1.363 . S
C338 C339 1.363 1_556 S
C338 C343 1.379 . S
C338 N345 1.356 . S
C339 C338 1.363 1_554 S
C339 C342 1.363 . S
N340 C342 1.356 . S
N340 H352 0.984 . S
N340 H353 0.985 . S
N341 C343 1.356 . S
N341 H346 0.984 . S
N341 H347 0.985 . S
C342 C336 1.379 . S
C342 C339 1.363 . S
C342 N340 1.356 . S
C343 C337 1.363 . S
C343 C338 1.379 . S
C343 N341 1.356 . S
N344 C336 1.356 . S
N344 H350 0.984 . S
N344 H351 0.984 1_554 S
N345 C338 1.356 . S
N345 H348 0.984 1_556 S
N345 H349 0.985 . S
H346 N341 0.984 . S
H347 N341 0.985 . S
H348 N345 0.984 1_554 S
H349 N345 0.985 . S
H350 N344 0.984 . S
H351 N344 0.984 1_556 S
H352 N340 0.984 . S
H353 N340 0.985 . S
C354 C355 1.363 . S
C354 C360 1.379 . S
C354 N362 1.356 . S
C355 C354 1.363 . S
C355 C361 1.363 . S
C356 C357 1.363 . S
C356 C361 1.379 . S
C356 N363 1.356 . S
C357 C356 1.363 . S
C357 C360 1.363 . S
N358 C360 1.356 . S
N358 H370 0.984 . S
N358 H371 0.985 . S
N359 C361 1.356 . S
N359 H364 0.984 . S
N359 H365 0.985 . S
C360 C354 1.379 . S
C360 C357 1.363 . S
C360 N358 1.356 . S
C361 C355 1.363 . S
C361 C356 1.379 . S
C361 N359 1.356 . S
N362 C354 1.356 . S
N362 H368 0.984 . S
N362 H369 0.984 . S
N363 C356 1.356 . S
N363 H366 0.984 . S
N363 H367 0.985 . S
H364 N359 0.984 . S
H365 N359 0.985 . S
H366 N363 0.984 . S
H367 N363 0.985 . S
H368 N362 0.984 . S
H369 N362 0.984 . S
H370 N358 0.984 . S
H371 N358 0.985 . S
C372 C373 1.363 . S
C372 C378 1.379 . S
C372 N380 1.356 . S
C373 C372 1.363 . S
C373 C379 1.363 1_556 S
C374 C375 1.363 . S
C374 C379 1.379 . S
C374 N381 1.356 . S
C375 C374 1.363 . S
C375 C378 1.363 1_554 S
N376 C378 1.356 . S
N376 H388 0.984 . S
N376 H389 0.985 1_556 S
N377 C379 1.356 . S
N377 H382 0.984 1_554 S
N377 H383 0.985 . S
C378 C372 1.379 . S
C378 C375 1.363 1_556 S
C378 N376 1.356 . S
C379 C373 1.363 1_554 S
C379 C374 1.379 . S
C379 N377 1.356 . S
N380 C372 1.356 . S
N380 H386 0.984 . S
N380 H387 0.984 . S
N381 C374 1.356 . S
N381 H384 0.984 . S
N381 H385 0.985 . S
H382 N377 0.984 1_556 S
H383 N377 0.985 . S
H384 N381 0.984 . S
H385 N381 0.985 . S
H386 N380 0.984 . S
H387 N380 0.984 . S
H388 N376 0.984 . S
H389 N376 0.985 1_554 S
C390 C391 1.363 . S
C390 C396 1.379 . S
C390 N398 1.356 . S
C391 C390 1.363 . S
C391 C397 1.363 . S
C392 C393 1.363 . S
C392 C397 1.379 . S
C392 N399 1.356 . S
C393 C392 1.363 . S
C393 C396 1.363 . S
N394 C396 1.356 . S
N394 H406 0.984 . S
N394 H407 0.985 . S
N395 C397 1.356 . S
N395 H400 0.984 . S
N395 H401 0.985 . S
C396 C390 1.379 . S
C396 C393 1.363 . S
C396 N394 1.356 . S
C397 C391 1.363 . S
C397 C392 1.379 . S
C397 N395 1.356 . S
N398 C390 1.356 . S
N398 H404 0.984 . S
N398 H405 0.984 . S
N399 C392 1.356 . S
N399 H402 0.984 . S
N399 H403 0.985 . S
H400 N395 0.984 . S
H401 N395 0.985 . S
H402 N399 0.984 . S
H403 N399 0.985 . S
H404 N398 0.984 . S
H405 N398 0.984 . S
H406 N394 0.984 . S
H407 N394 0.985 . S
C408 C409 1.363 1_565 S
C408 C414 1.379 . S
C408 N416 1.356 . S
C409 C408 1.363 1_545 S
C409 C415 1.363 1_556 S
C410 C411 1.363 1_545 S
C410 C415 1.379 . S
C410 N417 1.356 . S
C411 C410 1.363 1_565 S
C411 C414 1.363 1_554 S
N412 C414 1.356 . S
N412 H424 0.984 . S
N412 H425 0.985 1_556 S
N413 C415 1.356 . S
N413 H418 0.984 1_554 S
N413 H419 0.985 . S
C414 C408 1.379 . S
C414 C411 1.363 1_556 S
C414 N412 1.356 . S
C415 C409 1.363 1_554 S
C415 C410 1.379 . S
C415 N413 1.356 . S
N416 C408 1.356 . S
N416 H422 0.984 . S
N416 H423 0.984 1_565 S
N417 C410 1.356 . S
N417 H420 0.984 1_545 S
N417 H421 0.985 . S
H418 N413 0.984 1_556 S
H419 N413 0.985 . S
H420 N417 0.984 1_565 S
H421 N417 0.985 . S
H422 N416 0.984 . S
H423 N416 0.984 1_545 S
H424 N412 0.984 . S
H425 N412 0.985 1_554 S
C426 C427 1.363 . S
C426 C432 1.379 . S
C426 N434 1.356 . S
C427 C426 1.363 . S
C427 C433 1.363 1_545 S
C428 C429 1.363 . S
C428 C433 1.379 . S
C428 N435 1.356 . S
C429 C428 1.363 . S
C429 C432 1.363 1_565 S
N430 C432 1.356 . S
N430 H442 0.984 . S
N430 H443 0.985 1_545 S
N431 C433 1.356 . S
N431 H436 0.984 1_565 S
N431 H437 0.985 . S
C432 C426 1.379 . S
C432 C429 1.363 1_545 S
C432 N430 1.356 . S
C433 C427 1.363 1_565 S
C433 C428 1.379 . S
C433 N431 1.356 . S
N434 C426 1.356 . S
N434 H440 0.984 . S
N434 H441 0.984 . S
N435 C428 1.356 . S
N435 H438 0.984 . S
N435 H439 0.985 . S
H436 N431 0.984 1_545 S
H437 N431 0.985 . S
H438 N435 0.984 . S
H439 N435 0.985 . S
H440 N434 0.984 . S
H441 N434 0.984 . S
H442 N430 0.984 . S
H443 N430 0.985 1_565 S
C444 C445 1.363 . S
C444 C450 1.379 1_545 S
C444 N452 1.356 . S
C445 C444 1.363 . S
C445 C451 1.363 1_556 S
C446 C447 1.363 . S
C446 C451 1.379 1_565 S
C446 N453 1.356 . S
C447 C446 1.363 . S
C447 C450 1.363 1_554 S
N448 C450 1.356 . S
N448 H460 0.984 . S
N448 H461 0.985 1_556 S
N449 C451 1.356 . S
N449 H454 0.984 1_554 S
N449 H455 0.985 . S
C450 C444 1.379 1_565 S
C450 C447 1.363 1_556 S
C450 N448 1.356 . S
C451 C445 1.363 1_554 S
C451 C446 1.379 1_545 S
C451 N449 1.356 . S
N452 C444 1.356 . S
N452 H458 0.984 1_545 S
N452 H459 0.984 . S
N453 C446 1.356 . S
N453 H456 0.984 . S
N453 H457 0.985 1_565 S
H454 N449 0.984 1_556 S
H455 N449 0.985 . S
H456 N453 0.984 . S
H457 N453 0.985 1_545 S
H458 N452 0.984 1_565 S
H459 N452 0.984 . S
H460 N448 0.984 . S
H461 N448 0.985 1_554 S
C462 C463 1.363 . S
C462 C468 1.379 1_545 S
C462 N470 1.356 . S
C463 C462 1.363 . S
C463 C469 1.363 . S
C464 C465 1.363 . S
C464 C469 1.379 1_565 S
C464 N471 1.356 . S
C465 C464 1.363 . S
C465 C468 1.363 . S
N466 C468 1.356 . S
N466 H478 0.984 . S
N466 H479 0.985 . S
N467 C469 1.356 . S
N467 H472 0.984 . S
N467 H473 0.985 . S
C468 C462 1.379 1_565 S
C468 C465 1.363 . S
C468 N466 1.356 . S
C469 C463 1.363 . S
C469 C464 1.379 1_545 S
C469 N467 1.356 . S
N470 C462 1.356 . S
N470 H476 0.984 . S
N470 H477 0.984 . S
N471 C464 1.356 . S
N471 H474 0.984 . S
N471 H475 0.985 . S
H472 N467 0.984 . S
H473 N467 0.985 . S
H474 N471 0.984 . S
H475 N471 0.985 . S
H476 N470 0.984 . S
H477 N470 0.984 . S
H478 N466 0.984 . S
H479 N466 0.985 . S
C480 C481 1.363 . S
C480 C486 1.379 . S
C480 N488 1.356 . S
C481 C480 1.363 . S
C481 C487 1.363 . S
C482 C483 1.363 . S
C482 C487 1.379 . S
C482 N489 1.356 . S
C483 C482 1.363 . S
C483 C486 1.363 . S
N484 C486 1.356 1_556 S
N484 H496 0.984 . S
N484 H497 0.985 . S
N485 C487 1.356 . S
N485 H490 0.984 . S
N485 H491 0.985 . S
C486 C480 1.379 . S
C486 C483 1.363 . S
C486 N484 1.356 1_554 S
C487 C481 1.363 . S
C487 C482 1.379 . S
C487 N485 1.356 . S
N488 C480 1.356 . S
N488 H494 0.984 . S
N488 H495 0.984 . S
N489 C482 1.356 . S
N489 H492 0.984 . S
N489 H493 0.985 . S
H490 N485 0.984 . S
H491 N485 0.985 . S
H492 N489 0.984 . S
H493 N489 0.985 . S
H494 N488 0.984 . S
H495 N488 0.984 . S
H496 N484 0.984 . S
H497 N484 0.985 . S
C498 C499 1.363 . S
C498 C504 1.379 . S
C498 N506 1.356 . S
C499 C498 1.363 . S
C499 C505 1.363 . S
C500 C501 1.363 . S
C500 C505 1.379 . S
C500 N507 1.356 . S
C501 C500 1.363 . S
C501 C504 1.363 . S
N502 C504 1.356 . S
N502 H514 0.984 . S
N502 H515 0.985 . S
N503 C505 1.356 . S
N503 H508 0.984 . S
N503 H509 0.985 . S
C504 C498 1.379 . S
C504 C501 1.363 . S
C504 N502 1.356 . S
C505 C499 1.363 . S
C505 C500 1.379 . S
C505 N503 1.356 . S
N506 C498 1.356 . S
N506 H512 0.984 . S
N506 H513 0.984 . S
N507 C500 1.356 . S
N507 H510 0.984 . S
N507 H511 0.985 . S
H508 N503 0.984 . S
H509 N503 0.985 . S
H510 N507 0.984 . S
H511 N507 0.985 . S
H512 N506 0.984 . S
H513 N506 0.984 . S
H514 N502 0.984 . S
H515 N502 0.985 . S
C516 C517 1.363 . S
C516 C522 1.379 . S
C516 N524 1.356 . S
C517 C516 1.363 . S
C517 C523 1.363 . S
C518 C519 1.363 . S
C518 C523 1.379 . S
C518 N525 1.356 . S
C519 C518 1.363 . S
C519 C522 1.363 . S
N520 C522 1.356 . S
N520 H532 0.984 . S
N520 H533 0.985 . S
N521 C523 1.356 1_554 S
N521 H526 0.984 . S
N521 H527 0.985 . S
C522 C516 1.379 . S
C522 C519 1.363 . S
C522 N520 1.356 . S
C523 C517 1.363 . S
C523 C518 1.379 . S
C523 N521 1.356 1_556 S
N524 C516 1.356 . S
N524 H530 0.984 . S
N524 H531 0.984 . S
N525 C518 1.356 . S
N525 H528 0.984 . S
N525 H529 0.985 . S
H526 N521 0.984 . S
H527 N521 0.985 . S
H528 N525 0.984 . S
H529 N525 0.985 . S
H530 N524 0.984 . S
H531 N524 0.984 . S
H532 N520 0.984 . S
H533 N520 0.985 . S
C534 C535 1.363 . S
C534 C540 1.379 . S
C534 N542 1.356 . S
C535 C534 1.363 . S
C535 C541 1.363 . S
C536 C537 1.363 . S
C536 C541 1.379 . S
C536 N543 1.356 . S
C537 C536 1.363 . S
C537 C540 1.363 . S
N538 C540 1.356 . S
N538 H550 0.984 . S
N538 H551 0.985 . S
N539 C541 1.356 . S
N539 H544 0.984 . S
N539 H545 0.985 . S
C540 C534 1.379 . S
C540 C537 1.363 . S
C540 N538 1.356 . S
C541 C535 1.363 . S
C541 C536 1.379 . S
C541 N539 1.356 . S
N542 C534 1.356 . S
N542 H548 0.984 . S
N542 H549 0.984 . S
N543 C536 1.356 . S
N543 H546 0.984 . S
N543 H547 0.985 . S
H544 N539 0.984 . S
H545 N539 0.985 . S
H546 N543 0.984 . S
H547 N543 0.985 . S
H548 N542 0.984 . S
H549 N542 0.984 . S
H550 N538 0.984 . S
H551 N538 0.985 . S
C552 C553 1.363 . S
C552 C558 1.379 . S
C552 N560 1.356 1_554 S
C553 C552 1.363 . S
C553 C559 1.363 . S
C554 C555 1.363 . S
C554 C559 1.379 . S
C554 N561 1.356 . S
C555 C554 1.363 . S
C555 C558 1.363 . S
N556 C558 1.356 . S
N556 H568 0.984 . S
N556 H569 0.985 . S
N557 C559 1.356 . S
N557 H562 0.984 . S
N557 H563 0.985 . S
C558 C552 1.379 . S
C558 C555 1.363 . S
C558 N556 1.356 . S
C559 C553 1.363 . S
C559 C554 1.379 . S
C559 N557 1.356 . S
N560 C552 1.356 1_556 S
N560 H566 0.984 . S
N560 H567 0.984 . S
N561 C554 1.356 . S
N561 H564 0.984 . S
N561 H565 0.985 . S
H562 N557 0.984 . S
H563 N557 0.985 . S
H564 N561 0.984 . S
H565 N561 0.985 . S
H566 N560 0.984 . S
H567 N560 0.984 . S
H568 N556 0.984 . S
H569 N556 0.985 . S
C570 C571 1.363 . S
C570 C576 1.379 . S
C570 N578 1.356 . S
C571 C570 1.363 . S
C571 C577 1.363 . S
C572 C573 1.363 . S
C572 C577 1.379 . S
C572 N579 1.356 . S
C573 C572 1.363 . S
C573 C576 1.363 . S
N574 C576 1.356 . S
N574 H586 0.984 . S
N574 H587 0.985 . S
N575 C577 1.356 . S
N575 H580 0.984 . S
N575 H581 0.985 . S
C576 C570 1.379 . S
C576 C573 1.363 . S
C576 N574 1.356 . S
C577 C571 1.363 . S
C577 C572 1.379 . S
C577 N575 1.356 . S
N578 C570 1.356 . S
N578 H584 0.984 . S
N578 H585 0.984 . S
N579 C572 1.356 . S
N579 H582 0.984 . S
N579 H583 0.985 . S
H580 N575 0.984 . S
H581 N575 0.985 . S
H582 N579 0.984 . S
H583 N579 0.985 . S
H584 N578 0.984 . S
H585 N578 0.984 . S
H586 N574 0.984 . S
H587 N574 0.985 . S
C588 C589 1.363 . S
C588 C594 1.379 . S
C588 N596 1.356 . S
C589 C588 1.363 . S
C589 C595 1.363 . S
C590 C591 1.363 . S
C590 C595 1.379 . S
C590 N597 1.356 . S
C591 C590 1.363 . S
C591 C594 1.363 . S
N592 C594 1.356 1_554 S
N592 H604 0.984 . S
N592 H605 0.985 . S
N593 C595 1.356 . S
N593 H598 0.984 . S
N593 H599 0.985 . S
C594 C588 1.379 . S
C594 C591 1.363 . S
C594 N592 1.356 1_556 S
C595 C589 1.363 . S
C595 C590 1.379 . S
C595 N593 1.356 . S
N596 C588 1.356 . S
N596 H602 0.984 . S
N596 H603 0.984 . S
N597 C590 1.356 . S
N597 H600 0.984 . S
N597 H601 0.985 . S
H598 N593 0.984 . S
H599 N593 0.985 . S
H600 N597 0.984 . S
H601 N597 0.985 . S
H602 N596 0.984 . S
H603 N596 0.984 . S
H604 N592 0.984 . S
H605 N592 0.985 . S
C606 C607 1.363 . S
C606 C612 1.379 . S
C606 N614 1.356 . S
C607 C606 1.363 . S
C607 C613 1.363 . S
C608 C609 1.363 . S
C608 C613 1.379 . S
C608 N615 1.356 . S
C609 C608 1.363 . S
C609 C612 1.363 . S
N610 C612 1.356 . S
N610 H622 0.984 . S
N610 H623 0.985 . S
N611 C613 1.356 . S
N611 H616 0.984 . S
N611 H617 0.985 . S
C612 C606 1.379 . S
C612 C609 1.363 . S
C612 N610 1.356 . S
C613 C607 1.363 . S
C613 C608 1.379 . S
C613 N611 1.356 . S
N614 C606 1.356 . S
N614 H620 0.984 . S
N614 H621 0.984 . S
N615 C608 1.356 . S
N615 H618 0.984 . S
N615 H619 0.985 . S
H616 N611 0.984 . S
H617 N611 0.985 . S
H618 N615 0.984 . S
H619 N615 0.985 . S
H620 N614 0.984 . S
H621 N614 0.984 . S
H622 N610 0.984 . S
H623 N610 0.985 . S
C265 C21 1.541 . S
C267 C120 1.541 . S
C283 C54 1.541 . S
C285 C87 1.541 . S
C301 C252 1.541 . S
C303 C153 1.541 . S
C319 C186 1.541 . S
C321 C219 1.541 . S
C337 N68 1.120 . S
C339 N2 1.120 . S
C355 N101 1.120 . S
C357 N35 1.120 . S
C373 C40 1.669 . S
C375 C106 1.669 . S
C391 C7 1.669 . S
C393 C73 1.669 . S
C409 N200 1.120 . S
C411 N134 1.120 . S
C427 N167 1.120 . S
C429 N233 1.120 . S
C445 C172 1.669 . S
C447 C238 1.669 . S
C463 C205 1.669 . S
C465 C139 1.669 . S
C481 C18 1.447 . S
C483 N178 1.429 1_554 S
C499 C51 1.447 . S
C501 N145 1.429 . S
C517 N244 1.429 1_556 S
C519 C84 1.447 . S
C535 C117 1.447 . S
C537 N211 1.429 . S
C553 N46 1.429 1_554 S
C555 C150 1.447 . S
C571 C183 1.447 . S
C573 N13 1.429 . S
C589 C216 1.447 . S
C591 N112 1.429 1_556 S
C607 C249 1.447 . S
C609 N79 1.429 . S
