# Generated by pormake.
# Topology wiu, (6)-cn, num edge types: 1
# Building blocks:
#     Node 0, Type 0, BuildingBlock: JUFBIX_clean_sbu_0, # of connection points: 6
#     Node 1, Type 0, BuildingBlock: JUFBIX_clean_sbu_0, # of connection points: 6
#     Node 2, Type 0, BuildingBlock: JUFBIX_clean_sbu_0, # of connection points: 6
#     Node 3, Type 0, BuildingBlock: JUFBIX_clean_sbu_0, # of connection points: 6
#     Node 4, Type 0, BuildingBlock: JUFBIX_clean_sbu_0, # of connection points: 6
#     Node 5, Type 0, BuildingBlock: JUFBIX_clean_sbu_0, # of connection points: 6
#     Node 6, Type 0, BuildingBlock: JUFBIX_clean_sbu_0, # of connection points: 6
#     Node 7, Type 0, BuildingBlock: JUFBIX_clean_sbu_0, # of connection points: 6
#     Node 8, Type 0, BuildingBlock: JUFBIX_clean_sbu_0, # of connection points: 6
#     Node 9, Type 0, BuildingBlock: JUFBIX_clean_sbu_0, # of connection points: 6
#     Node 10, Type 0, BuildingBlock: JUFBIX_clean_sbu_0, # of connection points: 6
#     Node 11, Type 0, BuildingBlock: JUFBIX_clean_sbu_0, # of connection points: 6
#     Node 12, Type 0, BuildingBlock: JUFBIX_clean_sbu_0, # of connection points: 6
#     Node 13, Type 0, BuildingBlock: JUFBIX_clean_sbu_0, # of connection points: 6
#     Node 14, Type 0, BuildingBlock: JUFBIX_clean_sbu_0, # of connection points: 6
#     Node 15, Type 0, BuildingBlock: JUFBIX_clean_sbu_0, # of connection points: 6
#     Edge 16, Type (0, 0), BuildingBlock: XUDNAN_clean_linker_2, # of connection points: 2
#     Edge 17, Type (0, 0), BuildingBlock: XUDNAN_clean_linker_2, # of connection points: 2
#     Edge 18, Type (0, 0), BuildingBlock: XUDNAN_clean_linker_2, # of connection points: 2
#     Edge 19, Type (0, 0), BuildingBlock: XUDNAN_clean_linker_2, # of connection points: 2
#     Edge 20, Type (0, 0), BuildingBlock: XUDNAN_clean_linker_2, # of connection points: 2
#     Edge 21, Type (0, 0), BuildingBlock: XUDNAN_clean_linker_2, # of connection points: 2
#     Edge 22, Type (0, 0), BuildingBlock: XUDNAN_clean_linker_2, # of connection points: 2
#     Edge 23, Type (0, 0), BuildingBlock: XUDNAN_clean_linker_2, # of connection points: 2
#     Edge 24, Type (0, 0), BuildingBlock: XUDNAN_clean_linker_2, # of connection points: 2
#     Edge 25, Type (0, 0), BuildingBlock: XUDNAN_clean_linker_2, # of connection points: 2
#     Edge 26, Type (0, 0), BuildingBlock: XUDNAN_clean_linker_2, # of connection points: 2
#     Edge 27, Type (0, 0), BuildingBlock: XUDNAN_clean_linker_2, # of connection points: 2
#     Edge 28, Type (0, 0), BuildingBlock: XUDNAN_clean_linker_2, # of connection points: 2
#     Edge 29, Type (0, 0), BuildingBlock: XUDNAN_clean_linker_2, # of connection points: 2
#     Edge 30, Type (0, 0), BuildingBlock: XUDNAN_clean_linker_2, # of connection points: 2
#     Edge 31, Type (0, 0), BuildingBlock: XUDNAN_clean_linker_2, # of connection points: 2
#     Edge 32, Type (0, 0), BuildingBlock: XUDNAN_clean_linker_2, # of connection points: 2
#     Edge 33, Type (0, 0), BuildingBlock: XUDNAN_clean_linker_2, # of connection points: 2
#     Edge 34, Type (0, 0), BuildingBlock: XUDNAN_clean_linker_2, # of connection points: 2
#     Edge 35, Type (0, 0), BuildingBlock: XUDNAN_clean_linker_2, # of connection points: 2
#     Edge 36, Type (0, 0), BuildingBlock: XUDNAN_clean_linker_2, # of connection points: 2
#     Edge 37, Type (0, 0), BuildingBlock: XUDNAN_clean_linker_2, # of connection points: 2
#     Edge 38, Type (0, 0), BuildingBlock: XUDNAN_clean_linker_2, # of connection points: 2
#     Edge 39, Type (0, 0), BuildingBlock: XUDNAN_clean_linker_2, # of connection points: 2
#     Edge 40, Type (0, 0), BuildingBlock: XUDNAN_clean_linker_2, # of connection points: 2
#     Edge 41, Type (0, 0), BuildingBlock: XUDNAN_clean_linker_2, # of connection points: 2
#     Edge 42, Type (0, 0), BuildingBlock: XUDNAN_clean_linker_2, # of connection points: 2
#     Edge 43, Type (0, 0), BuildingBlock: XUDNAN_clean_linker_2, # of connection points: 2
#     Edge 44, Type (0, 0), BuildingBlock: XUDNAN_clean_linker_2, # of connection points: 2
#     Edge 45, Type (0, 0), BuildingBlock: XUDNAN_clean_linker_2, # of connection points: 2
#     Edge 46, Type (0, 0), BuildingBlock: XUDNAN_clean_linker_2, # of connection points: 2
#     Edge 47, Type (0, 0), BuildingBlock: XUDNAN_clean_linker_2, # of connection points: 2
#     Edge 48, Type (0, 0), BuildingBlock: XUDNAN_clean_linker_2, # of connection points: 2
#     Edge 49, Type (0, 0), BuildingBlock: XUDNAN_clean_linker_2, # of connection points: 2
#     Edge 50, Type (0, 0), BuildingBlock: XUDNAN_clean_linker_2, # of connection points: 2
#     Edge 51, Type (0, 0), BuildingBlock: XUDNAN_clean_linker_2, # of connection points: 2
#     Edge 52, Type (0, 0), BuildingBlock: XUDNAN_clean_linker_2, # of connection points: 2
#     Edge 53, Type (0, 0), BuildingBlock: XUDNAN_clean_linker_2, # of connection points: 2
#     Edge 54, Type (0, 0), BuildingBlock: XUDNAN_clean_linker_2, # of connection points: 2
#     Edge 55, Type (0, 0), BuildingBlock: XUDNAN_clean_linker_2, # of connection points: 2
#     Edge 56, Type (0, 0), BuildingBlock: XUDNAN_clean_linker_2, # of connection points: 2
#     Edge 57, Type (0, 0), BuildingBlock: XUDNAN_clean_linker_2, # of connection points: 2
#     Edge 58, Type (0, 0), BuildingBlock: XUDNAN_clean_linker_2, # of connection points: 2
#     Edge 59, Type (0, 0), BuildingBlock: XUDNAN_clean_linker_2, # of connection points: 2
#     Edge 60, Type (0, 0), BuildingBlock: XUDNAN_clean_linker_2, # of connection points: 2
#     Edge 61, Type (0, 0), BuildingBlock: XUDNAN_clean_linker_2, # of connection points: 2
#     Edge 62, Type (0, 0), BuildingBlock: XUDNAN_clean_linker_2, # of connection points: 2
#     Edge 63, Type (0, 0), BuildingBlock: XUDNAN_clean_linker_2, # of connection points: 2
# Relax obj value: 0.357
# Max RMSD: 0.261
# Mean RMSD: 0.249
data_MOF--net-wiu--node1-JUFBIX_clean_sbu_0--edge1-XUDNAN_clean_linker_2
_symmetry_space_group_name_H-M    P1
_symmetry_Int_Tables_number       1
_symmetry_cell_setting            triclinic
loop_
_symmetry_equiv_pos_as_xyz
'x, y, z'
_cell_length_a     28.903597
_cell_length_b     29.570202
_cell_length_c     66.780571
_cell_angle_alpha  95.759097
_cell_angle_beta   83.872623
_cell_angle_gamma 95.247011
loop_
_atom_site_label
_atom_site_type_symbol
_atom_site_fract_x
_atom_site_fract_y
_atom_site_fract_z
_atom_type_partial_charge
Co0 Co 0.32076 0.14782 0.0669 0.0
C1 C 0.26906 0.09392 0.09719 0.0
Co2 Co 0.35517 0.14303 0.09406 0.0
C3 C 0.29665 0.15765 0.02657 0.0
C4 C 0.23726 0.14943 0.04839 0.0
N5 N 0.28434 0.15086 0.04617 0.0
N6 N 0.25895 0.16004 0.01657 0.0
C7 C 0.22158 0.15472 0.0302 0.0
H8 H 0.33241 0.16121 0.01983 0.0
H9 H 0.21559 0.14608 0.06248 0.0
C10 C 0.40324 0.19566 0.06449 0.0
N11 N 0.39088 0.14035 0.11498 0.0
C12 C 0.37705 0.14195 0.13491 0.0
C13 C 0.4373 0.13668 0.11346 0.0
N14 N 0.41304 0.13933 0.14595 0.0
C15 C 0.45105 0.13612 0.13246 0.0
C16 C 0.38577 0.08066 0.06008 0.0
O17 O 0.36736 0.18787 0.05501 0.0
O18 O 0.40347 0.18053 0.08158 0.0
O19 O 0.38588 0.09067 0.07922 0.0
O20 O 0.35456 0.09744 0.05146 0.0
O21 O 0.30427 0.10466 0.10713 0.0
H22 H 0.4597 0.13422 0.09942 0.0
H23 H 0.34106 0.14385 0.14111 0.0
O24 O 0.27164 0.1062 0.07931 0.0
O25 O 0.29177 0.20079 0.08146 0.0
O26 O 0.32826 0.19712 0.10815 0.0
C27 C 0.30178 0.21823 0.09892 0.0
H28 H 0.18559 0.15628 0.02737 0.0
H29 H 0.48629 0.1334 0.13601 0.0
Co30 Co 0.63186 0.56621 0.30839 0.0
C31 C 0.68797 0.53647 0.33621 0.0
Co32 Co 0.63462 0.60968 0.33709 0.0
C33 C 0.62906 0.52602 0.26621 0.0
C34 C 0.62121 0.47798 0.28853 0.0
N35 N 0.62796 0.52302 0.28635 0.0
N36 N 0.62269 0.48441 0.25592 0.0
C37 C 0.61801 0.45432 0.27 0.0
H38 H 0.6336 0.55794 0.25931 0.0
H39 H 0.61868 0.46313 0.30281 0.0
C40 C 0.57589 0.63335 0.3101 0.0
N41 N 0.63863 0.65092 0.35979 0.0
C42 C 0.67395 0.65701 0.37171 0.0
C43 C 0.60611 0.67783 0.36912 0.0
N44 N 0.6646 0.68576 0.38836 0.0
C45 C 0.62193 0.69925 0.38667 0.0
C46 C 0.69835 0.64136 0.30379 0.0
O47 O 0.58962 0.59963 0.29862 0.0
O48 O 0.59191 0.64401 0.3271 0.0
O49 O 0.68546 0.64612 0.32278 0.0
O50 O 0.68277 0.60469 0.29382 0.0
O51 O 0.67617 0.572 0.34714 0.0
H52 H 0.57224 0.68026 0.36398 0.0
H53 H 0.70492 0.63855 0.36881 0.0
O54 O 0.67534 0.5299 0.31844 0.0
O55 O 0.57787 0.53217 0.32309 0.0
O56 O 0.5829 0.57632 0.35114 0.0
C57 C 0.56132 0.54349 0.34131 0.0
H58 H 0.61335 0.41759 0.26709 0.0
H59 H 0.60264 0.72167 0.39765 0.0
Co60 Co 0.27149 0.87591 0.58553 0.0
C61 C 0.19245 0.85919 0.56638 0.0
Co62 Co 0.24185 0.94079 0.5788 0.0
C63 C 0.30432 0.79877 0.60661 0.0
C64 C 0.30476 0.78915 0.57442 0.0
N65 N 0.2967 0.82053 0.59022 0.0
N66 N 0.31751 0.75565 0.60123 0.0
C67 C 0.3173 0.75021 0.58098 0.0
H68 H 0.29975 0.81386 0.62207 0.0
H69 H 0.29967 0.7932 0.55893 0.0
C70 C 0.32464 0.95747 0.59785 0.0
N71 N 0.20765 0.98929 0.57119 0.0
C72 C 0.18678 0.98564 0.55353 0.0
C73 C 0.18376 0.02077 0.583 0.0
N74 N 0.15001 1.01188 0.55397 0.0
C75 C 0.14904 0.03466 0.57259 0.0
C76 C 0.2106 0.91077 0.61664 0.0
O77 O 0.3203 0.91386 0.59738 0.0
O78 O 0.29433 0.97839 0.59012 0.0
O79 O 0.20862 0.94223 0.60507 0.0
O80 O 0.23556 0.87756 0.61092 0.0
O81 O 0.19385 0.90211 0.56821 0.0
H82 H 0.18786 0.02971 0.59886 0.0
H83 H 0.19584 0.96044 0.54121 0.0
O84 O 0.22299 0.83956 0.57367 0.0
O85 O 0.30633 0.87632 0.55932 0.0
O86 O 0.2752 0.93792 0.55318 0.0
C87 C 0.30111 0.90582 0.54724 0.0
H88 H 0.32451 0.71936 0.57142 0.0
H89 H 0.12291 0.05733 0.57902 0.0
Co90 Co 0.87933 0.47536 0.82316 0.0
C91 C 0.81338 0.52891 0.84635 0.0
Co92 Co 0.83807 0.43834 0.84691 0.0
C93 C 0.91668 0.49221 0.78259 0.0
C94 C 0.93871 0.54559 0.80449 0.0
N95 N 0.91224 0.50564 0.80257 0.0
N96 N 0.94512 0.52197 0.77207 0.0
C97 C 0.95919 0.55559 0.78573 0.0
H98 H 0.89992 0.46098 0.77586 0.0
H99 H 0.94277 0.56626 0.81859 0.0
C100 C 0.90391 0.38905 0.82409 0.0
N101 N 0.80715 0.40814 0.86832 0.0
C102 C 0.80909 0.4235 0.88797 0.0
C103 C 0.79144 0.36379 0.86862 0.0
N104 N 0.79778 0.39029 0.9005 0.0
C105 C 0.78562 0.35274 0.88842 0.0
C106 C 0.80394 0.41424 0.80903 0.0
O107 O 0.91391 0.42531 0.81541 0.0
O108 O 0.87288 0.38809 0.83901 0.0
O109 O 0.79344 0.40897 0.82787 0.0
O110 O 0.83449 0.44687 0.80463 0.0
O111 O 0.80274 0.49254 0.85532 0.0
H112 H 0.78913 0.33999 0.85529 0.0
H113 H 0.8227 0.45765 0.89289 0.0
O114 O 0.84383 0.52746 0.83107 0.0
O115 O 0.92601 0.50006 0.84135 0.0
O116 O 0.88518 0.4627 0.86455 0.0
C117 C 0.92176 0.48739 0.85913 0.0
H118 H 0.98162 0.58576 0.7823 0.0
H119 H 0.77783 0.31879 0.89328 0.0
Co120 Co 0.68052 0.91069 0.92782 0.0
C121 C 0.6305 0.8506 0.95319 0.0
Co122 Co 0.71757 0.89007 0.95182 0.0
C123 C 0.64205 0.96161 0.89966 0.0
C124 C 0.61875 0.89063 0.89731 0.0
N125 N 0.64583 0.9222 0.90766 0.0
N126 N 0.61376 0.95582 0.88457 0.0
C127 C 0.59911 0.91106 0.88315 0.0
H128 H 0.66043 0.99361 0.90463 0.0
H129 H 0.61453 0.85471 0.89957 0.0
C130 C 0.7711 0.95122 0.92574 0.0
N131 N 0.75179 0.87669 0.97174 0.0
C132 C 0.73774 0.87516 0.99154 0.0
C133 C 0.79624 0.86522 0.96952 0.0
N134 N 0.77165 0.86313 1.00184 0.0
C135 C 0.80858 0.85683 0.98803 0.0
C136 C 0.72985 0.83088 0.91631 0.0
O137 O 0.73347 0.95025 0.91726 0.0
O138 O 0.77014 0.9299 0.94148 0.0
O139 O 0.74135 0.83823 0.93431 0.0
O140 O 0.70531 0.85956 0.91023 0.0
O141 O 0.66738 0.85135 0.96185 0.0
H142 H 0.81825 0.86322 0.95535 0.0
H143 H 0.70304 0.88224 0.9982 0.0
O144 O 0.63057 0.87226 0.93779 0.0
O145 O 0.65183 0.96004 0.94617 0.0
O146 O 0.68976 0.93999 0.97 0.0
C147 C 0.65767 0.96272 0.96501 0.0
H148 H 0.57767 0.89353 0.87199 0.0
H149 H 0.8424 0.84782 0.99113 0.0
Co150 Co 0.39621 0.42033 0.68279 0.0
C151 C 0.45613 0.40295 0.71014 0.0
Co152 Co 0.39986 0.47008 0.70944 0.0
C153 C 0.38685 0.38266 0.64191 0.0
C154 C 0.3908 0.33081 0.66167 0.0
N155 N 0.3936 0.37648 0.66107 0.0
N156 N 0.37886 0.34281 0.63067 0.0
C157 C 0.38137 0.30999 0.64301 0.0
H158 H 0.38452 0.41571 0.63665 0.0
H159 H 0.39281 0.3138 0.67512 0.0
C160 C 0.34534 0.49406 0.67994 0.0
N161 N 0.40139 0.51348 0.73149 0.0
C162 C 0.39772 0.50624 0.75126 0.0
C163 C 0.40456 0.55922 0.73129 0.0
N164 N 0.39819 0.5456 0.76344 0.0
C165 C 0.40241 0.57905 0.75091 0.0
C166 C 0.46827 0.48856 0.67626 0.0
O167 O 0.35349 0.45435 0.67187 0.0
O168 O 0.35768 0.50571 0.6976 0.0
O169 O 0.45432 0.50391 0.69438 0.0
O170 O 0.44596 0.4534 0.66842 0.0
O171 O 0.44191 0.43804 0.72043 0.0
H172 H 0.40775 0.57698 0.71775 0.0
H173 H 0.3937 0.47261 0.75662 0.0
O174 O 0.44014 0.38902 0.69343 0.0
O175 O 0.3471 0.3849 0.69708 0.0
O176 O 0.34765 0.43162 0.72443 0.0
C177 C 0.333 0.39304 0.71565 0.0
H178 H 0.37501 0.27372 0.63904 0.0
H179 H 0.40412 0.61525 0.75557 0.0
Co180 Co 0.79283 0.10269 0.44719 0.0
C181 C 0.70706 0.08192 0.43076 0.0
Co182 Co 0.76482 0.16442 0.43664 0.0
C183 C 0.86001 0.06298 0.47039 0.0
C184 C 0.82373 1.01148 0.45177 0.0
N185 N 0.8249 0.05639 0.45772 0.0
N186 N 0.88134 0.02448 0.47209 0.0
C187 C 0.85776 0.99211 0.46043 0.0
H188 H 0.8717 0.09602 0.47742 0.0
H189 H 0.80115 0.9942 0.441 0.0
C190 C 0.84702 0.1859 0.45231 0.0
N191 N 0.73887 0.2142 0.42729 0.0
C192 C 0.7567 0.2436 0.41345 0.0
C193 C 0.69666 0.22881 0.43407 0.0
N194 N 0.72744 0.27613 0.4116 0.0
C195 C 0.6897 0.26662 0.42462 0.0
C196 C 0.74037 0.15137 0.4773 0.0
O197 O 0.84374 0.1434 0.45377 0.0
O198 O 0.81567 0.20372 0.44461 0.0
O199 O 0.73377 0.17668 0.46362 0.0
O200 O 0.76345 0.11666 0.47273 0.0
O201 O 0.71352 0.1245 0.42874 0.0
H202 H 0.67228 0.21297 0.44524 0.0
H203 H 0.79081 0.24161 0.40512 0.0
O204 O 0.73708 0.06275 0.43944 0.0
O205 O 0.82276 0.08983 0.42137 0.0
O206 O 0.79768 0.1503 0.41044 0.0
C207 C 0.82103 0.11514 0.4072 0.0
H208 H 0.86536 0.95673 0.45775 0.0
H209 H 0.65871 0.28522 0.42692 0.0
Co210 Co 0.1948 0.61164 0.17487 0.0
C211 C 0.12697 0.64656 0.20225 0.0
Co212 Co 0.16302 0.56406 0.19675 0.0
C213 C 0.211 0.64051 0.13478 0.0
C214 C 0.23883 0.69233 0.1559 0.0
N215 N 0.21768 0.64961 0.15458 0.0
N216 N 0.2261 0.67569 0.12384 0.0
C217 C 0.24412 0.70845 0.13694 0.0
H218 H 0.19393 0.60905 0.12842 0.0
H219 H 0.24781 0.71134 0.16984 0.0
C220 C 0.23045 0.52438 0.1684 0.0
N221 N 0.13879 0.52408 0.2155 0.0
C222 C 0.13157 0.52992 0.23587 0.0
C223 C 0.12262 0.48053 0.21054 0.0
N224 N 0.11083 0.49184 0.24362 0.0
C225 C 0.10513 0.46078 0.22776 0.0
C226 C 0.11392 0.55651 0.16268 0.0
O227 O 0.23377 0.56387 0.16183 0.0
O228 O 0.20478 0.5187 0.18478 0.0
O229 O 0.11576 0.53781 0.17887 0.0
O230 O 0.14554 0.58763 0.15835 0.0
O231 O 0.12196 0.60695 0.20824 0.0
H232 H 0.12333 0.46413 0.19529 0.0
H233 H 0.14036 0.56156 0.24479 0.0
O234 O 0.15637 0.65594 0.18741 0.0
O235 O 0.24152 0.63982 0.19298 0.0
O236 O 0.20803 0.59481 0.21536 0.0
C237 C 0.23467 0.6309 0.21152 0.0
H238 H 0.25762 0.74234 0.13331 0.0
H239 H 0.08985 0.42612 0.22864 0.0
Co240 Co 0.82154 0.65058 0.57139 0.0
C241 C 0.77066 0.59181 0.60008 0.0
Co242 Co 0.85768 0.63704 0.59708 0.0
C243 C 0.79615 0.66339 0.53141 0.0
C244 C 0.73766 0.65785 0.55379 0.0
N245 N 0.78442 0.65678 0.55109 0.0
N246 N 0.75841 0.66864 0.52173 0.0
C247 C 0.7216 0.66478 0.53586 0.0
H248 H 0.83181 0.66535 0.52453 0.0
H249 H 0.71649 0.65434 0.568 0.0
C250 C 0.90419 0.69541 0.56881 0.0
N251 N 0.89481 0.63213 0.6175 0.0
C252 C 0.90004 0.59628 0.62786 0.0
C253 C 0.92521 0.66583 0.62458 0.0
N254 N 0.93313 0.60635 0.6408 0.0
C255 C 0.94894 0.65002 0.63878 0.0
C256 C 0.88604 0.58034 0.56191 0.0
O257 O 0.86676 0.69206 0.56047 0.0
O258 O 0.90628 0.67509 0.58451 0.0
O259 O 0.8862 0.58601 0.58116 0.0
O260 O 0.85595 0.60118 0.55422 0.0
O261 O 0.80665 0.59851 0.60982 0.0
H262 H 0.92982 0.69993 0.61975 0.0
H263 H 0.88038 0.56346 0.62585 0.0
O264 O 0.77311 0.60767 0.58289 0.0
O265 O 0.79243 0.70225 0.58811 0.0
O266 O 0.83236 0.68917 0.61257 0.0
C267 C 0.80474 0.71381 0.60587 0.0
H268 H 0.68537 0.66654 0.53355 0.0
H269 H 0.9749 0.66948 0.6474 0.0
Co270 Co 0.12679 0.06199 0.80909 0.0
C271 C 0.191 0.03717 0.83484 0.0
Co272 Co 0.14484 0.11423 0.83332 0.0
C273 C 0.11844 1.01482 0.76903 0.0
C274 C 0.10387 0.97111 0.79298 0.0
N275 N 0.11518 1.01494 0.78936 0.0
N276 N 0.10979 0.97243 0.75978 0.0
C277 C 0.10062 0.94502 0.77495 0.0
H278 H 0.12761 0.04524 0.76126 0.0
H279 H 0.09965 0.95863 0.8078 0.0
C280 C 0.07783 0.13383 0.80912 0.0
N281 N 0.15701 0.16031 0.85309 0.0
C282 C 0.1655 0.15501 0.87207 0.0
C283 C 0.16527 0.20546 0.85126 0.0
N284 N 0.17955 0.19481 0.88211 0.0
C285 C 0.17955 0.22681 0.86913 0.0
C286 C 0.19744 0.13112 0.79632 0.0
O287 O 0.0852 0.09606 0.79926 0.0
O288 O 0.0995 0.14766 0.82446 0.0
O289 O 0.19167 0.14466 0.81502 0.0
O290 O 0.17692 0.09221 0.79065 0.0
O291 O 0.1898 0.07823 0.8426 0.0
H292 H 0.16307 0.22148 0.83756 0.0
H293 H 0.16409 0.12211 0.87802 0.0
O294 O 0.16876 0.025 0.8195 0.0
O295 O 0.07479 0.03608 0.82743 0.0
O296 O 0.09682 0.08633 0.85156 0.0
C297 C 0.0684 0.0534 0.84573 0.0
H298 H 0.09386 0.90833 0.77327 0.0
H299 H 0.19022 0.26269 0.87216 0.0
Co300 Co 0.77359 0.37176 0.08349 0.0
C301 C 0.69638 0.35139 0.06413 0.0
Co302 Co 0.74555 0.43574 0.07468 0.0
C303 C 0.78327 0.29299 0.10686 0.0
C304 C 0.83927 0.30231 0.08367 0.0
N305 N 0.79958 0.32033 0.09194 0.0
N306 N 0.81097 0.2587 0.10803 0.0
C307 C 0.84615 0.26473 0.09336 0.0
H308 H 0.75131 0.29775 0.11656 0.0
H309 H 0.86217 0.31567 0.07139 0.0
C310 C 0.82726 0.45546 0.09379 0.0
N311 N 0.71314 0.48352 0.06527 0.0
C312 C 0.66966 0.47944 0.05833 0.0
C313 C 0.72889 0.52694 0.0624 0.0
N314 N 0.65809 0.51799 0.0512 0.0
C315 C 0.69549 0.548 0.05401 0.0
C316 C 0.71223 0.4134 0.11312 0.0
O317 O 0.82253 0.41211 0.09399 0.0
O318 O 0.79709 0.47554 0.08566 0.0
O319 O 0.71046 0.44203 0.10027 0.0
O320 O 0.73722 0.37977 0.10884 0.0
O321 O 0.69906 0.39436 0.06431 0.0
H322 H 0.76288 0.5423 0.06583 0.0
H323 H 0.64613 0.44893 0.05869 0.0
O324 O 0.72531 0.33265 0.07294 0.0
O325 O 0.80834 0.36583 0.05717 0.0
O326 O 0.78072 0.42863 0.04958 0.0
C327 C 0.80532 0.39505 0.04461 0.0
H328 H 0.87553 0.24402 0.09011 0.0
H329 H 0.699 0.58276 0.04994 0.0
Co330 Co 0.37612 0.9695 0.32537 0.0
C331 C 0.30989 0.02411 0.34878 0.0
Co332 Co 0.3366 0.9356 0.35014 0.0
C333 C 0.39082 0.02285 0.29152 0.0
C334 C 0.45508 1.00504 0.30069 0.0
N335 N 0.40835 0.99992 0.305 0.0
N336 N 0.4248 0.04207 0.2789 0.0
C337 C 0.46532 0.03086 0.28456 0.0
H338 H 0.35381 0.02467 0.29079 0.0
H339 H 0.48005 0.99094 0.30878 0.0
C340 C 0.40232 0.88534 0.32703 0.0
N341 N 0.30586 0.90415 0.37105 0.0
C342 C 0.30828 0.91481 0.39107 0.0
C343 C 0.28673 0.86072 0.36945 0.0
N344 N 0.29294 0.87938 0.40192 0.0
C345 C 0.27894 0.84536 0.3884 0.0
C346 C 0.3009 0.9068 0.31245 0.0
O347 O 0.41311 0.92146 0.31841 0.0
O348 O 0.37075 0.88476 0.34173 0.0
O349 O 0.2909 0.90793 0.33168 0.0
O350 O 0.33306 0.93628 0.3061 0.0
O351 O 0.30199 0.98952 0.35906 0.0
H352 H 0.28263 0.84016 0.35533 0.0
H353 H 0.32515 0.94641 0.39742 0.0
O354 O 0.33763 0.02056 0.33261 0.0
O355 O 0.42155 0.99792 0.34397 0.0
O356 O 0.38407 0.95912 0.36752 0.0
C357 C 0.41928 0.98526 0.36178 0.0
H358 H 0.49983 0.04076 0.2776 0.0
H359 H 0.26674 0.811 0.39181 0.0
Co360 Co 0.17006 0.40401 0.42848 0.0
C361 C 0.13436 0.34596 0.45772 0.0
Co362 Co 0.21809 0.39284 0.45052 0.0
C363 C 0.13363 0.41698 0.39082 0.0
C364 C 0.08066 0.413 0.41571 0.0
N365 N 0.12695 0.41087 0.4107 0.0
N366 N 0.09324 0.42269 0.38327 0.0
C367 C 0.05986 0.42006 0.39889 0.0
H368 H 0.16739 0.41725 0.38207 0.0
H369 H 0.06319 0.41047 0.43076 0.0
C370 C 0.25761 0.45006 0.41969 0.0
N371 N 0.26102 0.38651 0.46855 0.0
C372 C 0.25309 0.37781 0.48814 0.0
C373 C 0.30793 0.38877 0.46451 0.0
N374 N 0.29315 0.37487 0.4964 0.0
C375 C 0.32777 0.38199 0.48166 0.0
C376 C 0.22368 0.32798 0.41628 0.0
O377 O 0.21637 0.44417 0.41419 0.0
O378 O 0.26461 0.4339 0.436 0.0
O379 O 0.24113 0.34022 0.43298 0.0
O380 O 0.19343 0.35233 0.41109 0.0
O381 O 0.17409 0.35275 0.46425 0.0
H382 H 0.32664 0.39426 0.44993 0.0
H383 H 0.21867 0.37373 0.49622 0.0
O384 O 0.12633 0.36409 0.44218 0.0
O385 O 0.14355 0.45405 0.44661 0.0
O386 O 0.19052 0.44336 0.46887 0.0
C387 C 0.15441 0.46171 0.46473 0.0
H388 H 0.02321 0.4242 0.39832 0.0
H389 H 0.36463 0.38097 0.48305 0.0
Co390 Co 0.892 0.92347 0.18737 0.0
C391 C 0.95538 0.8963 0.21095 0.0
Co392 Co 0.91195 0.97352 0.21214 0.0
C393 C 0.86118 0.89049 0.14906 0.0
C394 C 0.87625 0.8352 0.16497 0.0
N395 N 0.87784 0.88121 0.16613 0.0
N396 N 0.84835 0.85247 0.13757 0.0
C397 C 0.85822 0.81736 0.14726 0.0
H398 H 0.85709 0.92453 0.14527 0.0
H399 H 0.88546 0.81582 0.17666 0.0
C400 C 0.84904 1.00475 0.1882 0.0
N401 N 0.92503 1.01621 0.23333 0.0
C402 C 0.92221 1.00996 0.25315 0.0
C403 C 0.93396 0.06162 0.23249 0.0
N404 N 0.92826 0.0497 0.26473 0.0
C405 C 0.93565 0.08236 0.25182 0.0
C406 C 0.97133 0.98413 0.17622 0.0
O407 O 0.85151 0.96531 0.17883 0.0
O408 O 0.86981 1.01377 0.20411 0.0
O409 O 0.96371 1.00183 0.19442 0.0
O410 O 0.9434 0.95075 0.17026 0.0
O411 O 0.95336 0.93578 0.22004 0.0
H412 H 0.93703 0.0787 0.21876 0.0
H413 H 0.91337 0.97715 0.25906 0.0
O414 O 0.93225 0.88445 0.19587 0.0
O415 O 0.84188 0.89327 0.20464 0.0
O416 O 0.86187 0.94115 0.22988 0.0
C417 C 0.83853 0.90424 0.22366 0.0
H418 H 0.85055 0.78164 0.14244 0.0
H419 H 0.94079 0.11862 0.2561 0.0
Co420 Co 0.28708 0.60263 0.94877 0.0
C421 C 0.20424 0.5795 0.93127 0.0
Co422 Co 0.25937 0.66402 0.93753 0.0
C423 C 0.34559 0.56717 0.97637 0.0
C424 C 0.3369 0.51915 0.9508 0.0
N425 N 0.32047 0.55806 0.95994 0.0
N426 N 0.37795 0.53676 0.97755 0.0
C427 C 0.37154 0.50609 0.96146 0.0
H428 H 0.34202 0.5976 0.98661 0.0
H429 H 0.3274 0.50331 0.93633 0.0
C430 C 0.33846 0.68761 0.95478 0.0
N431 N 0.23258 0.71232 0.92704 0.0
C432 C 0.25313 0.74871 0.91745 0.0
C433 C 0.18646 0.71519 0.92633 0.0
N434 N 0.22157 0.77348 0.91063 0.0
C435 C 0.17969 0.75217 0.91626 0.0
C436 C 0.23109 0.65076 0.97803 0.0
O437 O 0.33554 0.64512 0.95632 0.0
O438 O 0.30862 0.70463 0.94582 0.0
O439 O 0.2263 0.67614 0.96407 0.0
O440 O 0.25484 0.61627 0.97414 0.0
O441 O 0.21011 0.62213 0.92938 0.0
H442 H 0.15925 0.69144 0.9325 0.0
H443 H 0.29056 0.75618 0.91501 0.0
O444 O 0.23387 0.56072 0.94029 0.0
O445 O 0.31956 0.59056 0.92288 0.0
O446 O 0.29339 0.65023 0.91179 0.0
C447 C 0.31722 0.61549 0.90858 0.0
H448 H 0.39258 0.47778 0.95672 0.0
H449 H 0.1463 0.76279 0.91342 0.0
Co450 Co 0.6988 0.1056 0.67412 0.0
C451 C 0.63728 0.15961 0.69712 0.0
Co452 Co 0.66098 0.07412 0.70002 0.0
C453 C 0.7106 0.14654 0.6363 0.0
C454 C 0.77599 0.14105 0.64777 0.0
N455 N 0.72957 0.1328 0.65206 0.0
N456 N 0.74328 0.16237 0.62213 0.0
C457 C 0.78453 0.15922 0.62943 0.0
H458 H 0.67354 0.14318 0.63484 0.0
H459 H 0.80204 0.13324 0.6571 0.0
C460 C 0.72284 1.01601 0.67659 0.0
N461 N 0.6301 0.04807 0.722 0.0
C462 C 0.62521 0.06822 0.74102 0.0
C463 C 0.60994 1.0054 0.7232 0.0
N464 N 0.60358 0.03975 0.75422 0.0
C465 C 0.59363 1.00013 0.74304 0.0
C466 C 0.61399 0.05648 0.6649 0.0
O467 O 0.73122 0.05011 0.66606 0.0
O468 O 0.69633 0.0209 0.69309 0.0
O469 O 0.61252 0.04604 0.68305 0.0
O470 O 0.6496 0.08074 0.65798 0.0
O471 O 0.62688 0.12451 0.70655 0.0
H472 H 0.60869 0.97942 0.7106 0.0
H473 H 0.63831 0.10299 0.74516 0.0
O474 O 0.66688 0.15822 0.68166 0.0
O475 O 0.74629 0.13443 0.69124 0.0
O476 O 0.70737 0.10665 0.7176 0.0
C477 C 0.73854 0.13592 0.71052 0.0
H478 H 0.81864 0.16838 0.6219 0.0
H479 H 0.57808 0.96881 0.7489 0.0
H480 H 0.48814 0.17149 0.06867 0.0
H481 H 0.41622 0.26327 0.03857 0.0
H482 H 0.49249 0.3018 0.02651 0.0
H483 H 0.55947 0.24707 0.08995 0.0
H484 H 0.61013 0.21484 0.08756 0.0
H485 H 0.55316 0.18556 0.08766 0.0
H486 H 0.57711 0.14146 0.05311 0.0
H487 H 0.63477 0.1706 0.05297 0.0
H488 H 0.60093 0.17242 0.03194 0.0
H489 H 0.57141 0.34077 0.02549 0.0
H490 H 0.64427 0.37941 0.03673 0.0
H491 H 0.66451 0.26325 0.06868 0.0
C492 C 0.48864 0.19907 0.05913 0.0
C493 C 0.44698 0.21537 0.05479 0.0
C494 C 0.44826 0.25077 0.04204 0.0
C495 C 0.49131 0.27233 0.03499 0.0
C496 C 0.5321 0.25695 0.04049 0.0
C497 C 0.53101 0.22058 0.05208 0.0
C498 C 0.57797 0.21565 0.05921 0.0
C499 C 0.57495 0.21588 0.08245 0.0
C500 C 0.59894 0.17248 0.04867 0.0
C501 C 0.60449 0.2581 0.05185 0.0
C502 C 0.57821 0.28022 0.04023 0.0
C503 C 0.59265 0.32332 0.03415 0.0
C504 C 0.63371 0.34528 0.0409 0.0
C505 C 0.6591 0.32446 0.05397 0.0
C506 C 0.64569 0.27956 0.0586 0.0
H507 H 0.49882 0.65323 0.33347 0.0
H508 H 0.57325 0.67028 0.27467 0.0
H509 H 0.52029 0.72794 0.26907 0.0
H510 H 0.37704 0.68465 0.31966 0.0
H511 H 0.36671 0.71263 0.34479 0.0
H512 H 0.39775 0.66176 0.34077 0.0
H513 H 0.46591 0.70529 0.35873 0.0
H514 H 0.43619 0.75638 0.36226 0.0
H515 H 0.49399 0.75682 0.34908 0.0
H516 H 0.48024 0.79765 0.27484 0.0
H517 H 0.44844 0.86938 0.28957 0.0
H518 H 0.39793 0.80632 0.34456 0.0
C519 C 0.50219 0.66784 0.31909 0.0
C520 C 0.53946 0.65848 0.30452 0.0
C521 C 0.54423 0.67755 0.28585 0.0
C522 C 0.51421 0.7099 0.28255 0.0
C523 C 0.4794 0.7212 0.29791 0.0
C524 C 0.47226 0.69962 0.3156 0.0
C525 C 0.43873 0.72318 0.33123 0.0
C526 C 0.3923 0.6938 0.33428 0.0
C527 C 0.46004 0.7362 0.35148 0.0
C528 C 0.4329 0.76449 0.32059 0.0
C529 C 0.45522 0.76204 0.30115 0.0
C530 C 0.46111 0.79933 0.28969 0.0
C531 C 0.44381 0.84011 0.29834 0.0
C532 C 0.42126 0.84303 0.31824 0.0
C533 C 0.4148 0.80458 0.32925 0.0
H534 H 0.16592 0.76915 0.56769 0.0
H535 H 0.13351 0.89126 0.54298 0.0
H536 H 0.06118 0.85148 0.53183 0.0
H537 H 0.09823 0.68171 0.53043 0.0
H538 H 0.0796 0.64713 0.55101 0.0
H539 H 0.13666 0.67766 0.54962 0.0
H540 H 0.11744 0.71578 0.58585 0.0
H541 H 0.06058 0.68617 0.58728 0.0
H542 H 0.06647 0.74756 0.59129 0.0
H543 H 0.98491 0.80913 0.53269 0.0
H544 H 0.91152 0.76709 0.54548 0.0
H545 H 0.99149 0.67334 0.57061 0.0
C546 C 0.14453 0.78662 0.55909 0.0
C547 C 0.15475 0.83304 0.5563 0.0
C548 C 0.12591 0.85557 0.54537 0.0
C549 C 0.08504 0.83306 0.53873 0.0
C550 C 0.07389 0.78803 0.54301 0.0
C551 C 0.10326 0.76467 0.55266 0.0
C552 C 0.07916 0.72055 0.55946 0.0
C553 C 0.09963 0.67933 0.54687 0.0
C554 C 0.081 0.71744 0.58231 0.0
C555 C 0.03042 0.72573 0.55443 0.0
C556 C 0.02844 0.76353 0.54402 0.0
C557 C 0.98609 0.77862 0.54026 0.0
C558 C 0.9447 0.75503 0.54774 0.0
C559 C 0.94653 0.71787 0.55925 0.0
C560 C 0.98964 0.70214 0.56198 0.0
H561 H 1.00083 0.15622 0.83209 0.0
H562 H 0.07935 0.17292 0.77409 0.0
H563 H 0.02932 0.23299 0.76822 0.0
H564 H 0.88209 0.18929 0.81669 0.0
H565 H 0.86983 0.21704 0.84173 0.0
H566 H 0.90096 0.16622 0.83817 0.0
H567 H 0.96761 0.20978 0.85715 0.0
H568 H 0.93768 0.2608 0.86028 0.0
H569 H 0.99629 0.2615 0.84792 0.0
H570 H 0.98886 0.30313 0.77339 0.0
H571 H 0.9539 0.37398 0.78734 0.0
H572 H 0.89953 0.31005 0.8417 0.0
C573 C 1.00568 0.1713 0.8178 0.0
C574 C 0.04304 0.16084 0.80347 0.0
C575 C 0.05005 0.18088 0.78501 0.0
C576 C 0.02177 0.21464 0.78157 0.0
C577 C 0.98641 0.22642 0.79657 0.0
C578 C 0.97733 0.20436 0.8141 0.0
C579 C 0.94268 0.2278 0.82922 0.0
C580 C 0.89613 0.19833 0.83158 0.0
C581 C 0.9623 0.24075 0.84983 0.0
C582 C 0.93781 0.26921 0.81846 0.0
C583 C 0.96211 0.26722 0.79942 0.0
C584 C 0.9683 0.30448 0.78793 0.0
C585 C 0.94908 0.34474 0.79612 0.0
C586 C 0.92441 0.34719 0.81562 0.0
C587 C 0.91795 0.30875 0.82668 0.0
H588 H 0.54514 0.86916 0.94565 0.0
H589 H 0.61659 0.78617 0.98055 0.0
H590 H 0.54058 0.74768 0.99258 0.0
H591 H 0.43118 0.87201 0.98076 0.0
H592 H 0.39798 0.86824 0.9592 0.0
H593 H 0.45507 0.89859 0.95835 0.0
H594 H 0.48178 0.8489 0.92583 0.0
H595 H 0.42524 0.8186 0.92634 0.0
H596 H 0.47634 0.78766 0.92591 0.0
H597 H 0.46346 0.70675 0.99347 0.0
H598 H 0.39211 0.66472 0.98252 0.0
H599 H 0.36996 0.77412 0.94696 0.0
C600 C 0.5447 0.84355 0.9562 0.0
C601 C 0.5863 0.82981 0.96198 0.0
C602 C 0.58474 0.79672 0.97591 0.0
C603 C 0.5418 0.77525 0.98299 0.0
C604 C 0.50129 0.78829 0.97628 0.0
C605 C 0.50242 0.82212 0.96334 0.0
C606 C 0.45585 0.82437 0.95535 0.0
C607 C 0.4337 0.86842 0.96395 0.0
C608 C 0.46011 0.81953 0.932 0.0
C609 C 0.42963 0.78332 0.96408 0.0
C610 C 0.45575 0.76417 0.9768 0.0
C611 C 0.44211 0.72211 0.98408 0.0
C612 C 0.40185 0.6982 0.97756 0.0
C613 C 0.37615 0.71622 0.96377 0.0
C614 C 0.38892 0.76008 0.95771 0.0
H615 H 0.64163 0.23756 0.6787 0.0
H616 H 0.59417 0.17858 0.73494 0.0
H617 H 0.56156 0.25037 0.74879 0.0
H618 H 0.65854 0.36329 0.70219 0.0
H619 H 0.63676 0.38251 0.68047 0.0
H620 H 0.67075 0.33362 0.67753 0.0
H621 H 0.60415 0.28506 0.66028 0.0
H622 H 0.57056 0.33351 0.663 0.0
H623 H 0.54613 0.28144 0.67331 0.0
H624 H 0.51779 0.3174 0.75327 0.0
H625 H 0.46096 0.37024 0.74642 0.0
H626 H 0.53463 0.38564 0.68733 0.0
C627 C 0.62552 0.24042 0.69413 0.0
C628 C 0.61972 0.20281 0.70566 0.0
C629 C 0.59821 0.2071 0.72573 0.0
C630 C 0.58049 0.24801 0.73389 0.0
C631 C 0.585 0.28422 0.72183 0.0
C632 C 0.60725 0.28087 0.70235 0.0
C633 C 0.59897 0.3204 0.69097 0.0
C634 C 0.64393 0.35182 0.6876 0.0
C635 C 0.57869 0.30408 0.67074 0.0
C636 C 0.5639 0.34312 0.70613 0.0
C637 C 0.55838 0.32353 0.72431 0.0
C638 C 0.52273 0.33411 0.73941 0.0
C639 C 0.49051 0.36372 0.73542 0.0
C640 C 0.49411 0.38089 0.71635 0.0
C641 C 0.5321 0.37249 0.70202 0.0
H642 H 0.11003 0.25577 0.45872 0.0
H643 H 0.06895 0.38991 0.4811 0.0
H644 H 0.98876 0.35791 0.48996 0.0
H645 H 0.02666 0.22395 0.43305 0.0
H646 H 1.01416 0.16504 0.43803 0.0
H647 H 0.07101 0.19267 0.44116 0.0
H648 H 0.0648 0.1732 0.4783 0.0
H649 H 1.008 0.14404 0.4753 0.0
H650 H 1.01509 0.18872 0.49544 0.0
H651 H 0.91311 0.31972 0.48394 0.0
H652 H 0.84672 0.27305 0.46992 0.0
H653 H 0.93433 0.16121 0.45326 0.0
C654 C 0.08464 0.27737 0.46685 0.0
C655 C 0.09498 0.32472 0.46966 0.0
C656 C 0.06122 0.35326 0.47934 0.0
C657 C 1.01567 0.33534 0.4844 0.0
C658 C 1.00504 0.28881 0.47991 0.0
C659 C 0.03891 0.25967 0.47208 0.0
C660 C 0.01702 0.2129 0.46534 0.0
C661 C 0.03316 0.19786 0.44309 0.0
C662 C 0.0268 0.17763 0.47943 0.0
C663 C 0.96613 0.22224 0.46812 0.0
C664 C 0.95979 0.26579 0.47701 0.0
C665 C 0.91713 0.28485 0.47783 0.0
C666 C 0.87994 0.25856 0.46951 0.0
C667 C 0.8859 0.21385 0.46065 0.0
C668 C 0.92906 0.1952 0.46034 0.0
H669 H 0.03452 0.65384 0.20638 0.0
H670 H 0.16647 0.72071 0.22247 0.0
H671 H 0.12754 0.78911 0.23674 0.0
H672 H 1.00467 0.73664 0.18486 0.0
H673 H 0.94262 0.73273 0.19211 0.0
H674 H 0.97432 0.68336 0.19155 0.0
H675 H 0.94477 0.67416 0.22903 0.0
H676 H 0.91243 0.72374 0.2297 0.0
H677 H 0.9535 0.72123 0.24797 0.0
H678 H 0.08197 0.85453 0.2399 0.0
H679 H 0.03455 0.91266 0.23017 0.0
H680 H 0.93303 0.80592 0.2095 0.0
C681 C 0.05423 0.6823 0.2139 0.0
C682 C 0.10271 0.68278 0.21373 0.0
C683 C 0.1289 0.72041 0.22278 0.0
C684 C 0.10698 0.759 0.23111 0.0
C685 C 0.05915 0.75915 0.22996 0.0
C686 C 0.03287 0.72156 0.22167 0.0
C687 C 0.98547 0.73381 0.2175 0.0
C688 C 0.97634 0.72093 0.19519 0.0
C689 C 0.94676 0.71193 0.23192 0.0
C690 C 0.9914 0.78475 0.22248 0.0
C691 C 0.03292 0.79842 0.23072 0.0
C692 C 0.04875 0.84429 0.23403 0.0
C693 C 0.02203 0.87697 0.22828 0.0
C694 C 0.98103 0.86311 0.21883 0.0
C695 C 0.96473 0.81685 0.21656 0.0
H696 H 0.41031 0.06348 0.01729 0.0
H697 H 0.4595 0.04764 0.07514 0.0
H698 H 0.53239 0.02043 0.05759 0.0
H699 H 0.46187 0.96103 0.99016 0.0
H700 H 0.4774 0.98692 0.96679 0.0
H701 H 0.42812 1.00478 0.98364 0.0
H702 H 0.46414 0.0881 0.98461 0.0
H703 H 0.51374 0.07048 0.9679 0.0
H704 H 0.52234 0.10158 0.99203 0.0
H705 H 0.60356 0.99667 0.03375 0.0
H706 H 0.6623 0.97275 1.00616 0.0
H707 H 0.57046 0.99963 0.96219 0.0
C708 C 0.43593 0.05346 0.02632 0.0
C709 C 0.42747 0.05764 0.04803 0.0
C710 C 0.46344 0.04469 0.05876 0.0
C711 C 0.50571 0.02927 0.04881 0.0
C712 C 0.51304 0.02612 0.02767 0.0
C713 C 0.47888 0.03727 0.01646 0.0
C714 C 0.49615 0.03007 0.99379 0.0
C715 C 0.46395 0.99354 0.98295 0.0
C716 C 0.49926 0.07525 0.984 0.0
C717 C 0.54511 1.01342 0.99404 0.0
C718 C 0.554 1.01181 0.01387 0.0
C719 C 0.59656 0.99784 0.01822 0.0
C720 C 0.63027 0.9844 1.00223 0.0
C721 C 0.62259 0.9844 0.98153 0.0
C722 C 0.57879 0.99964 0.97761 0.0
H723 H 0.71648 0.66019 0.26211 0.0
H724 H 0.74084 0.71776 0.32282 0.0
H725 H 0.7752 0.78897 0.30935 0.0
H726 H 0.82558 0.71486 0.23717 0.0
H727 H 0.79966 0.72558 0.2149 0.0
H728 H 0.7771 0.67772 0.22878 0.0
H729 H 0.69487 0.70663 0.23283 0.0
H730 H 0.71671 0.75461 0.21892 0.0
H731 H 0.68671 0.76386 0.24389 0.0
H732 H 0.80436 0.85772 0.2897 0.0
H733 H 0.83217 0.91407 0.26534 0.0
H734 H 0.79362 0.81536 0.21614 0.0
C735 C 0.72986 0.68737 0.27257 0.0
C736 C 0.72565 0.68196 0.29385 0.0
C737 C 0.74327 0.71966 0.30662 0.0
C738 C 0.76292 0.76091 0.29905 0.0
C739 C 0.76566 0.76543 0.27832 0.0
C740 C 0.75025 0.72946 0.26514 0.0
C741 C 0.75799 0.74396 0.24343 0.0
C742 C 0.7921 0.71373 0.23028 0.0
C743 C 0.71128 0.74214 0.23422 0.0
C744 C 0.77958 0.79346 0.24656 0.0
C745 C 0.78333 0.80501 0.26691 0.0
C746 C 0.80161 0.84869 0.27374 0.0
C747 C 0.8172 0.88096 0.25965 0.0
C748 C 0.81507 0.87048 0.23851 0.0
C749 C 0.7955 0.82556 0.23207 0.0
H750 H 0.07303 0.06367 0.55474 0.0
H751 H 0.1452 0.95599 0.51857 0.0
H752 H 0.08585 0.94941 0.49471 0.0
H753 H 0.95513 1.01653 0.54732 0.0
H754 H 0.93275 0.07063 0.54524 0.0
H755 H 0.98107 0.06792 0.55993 0.0
H756 H 0.0299 0.12696 0.53883 0.0
H757 H 0.98227 0.12954 0.52372 0.0
H758 H 0.03878 0.11572 0.51174 0.0
H759 H 0.01695 0.95156 0.47457 0.0
H760 H 0.94625 0.96435 0.45926 0.0
H761 H 0.91566 0.07217 0.50659 0.0
C762 C 0.07674 0.03861 0.54186 0.0
C763 C 0.11502 1.01009 0.53916 0.0
C764 C 0.1173 0.97835 0.52165 0.0
C765 C 0.08324 0.97424 0.50775 0.0
C766 C 0.04626 1.00226 0.51101 0.0
C767 C 0.04282 0.03416 0.52755 0.0
C768 C 0.99933 0.06028 0.52715 0.0
C769 C 0.96504 0.05343 0.54604 0.0
C770 C 1.01339 0.11117 0.52525 0.0
C771 C 0.9787 0.03767 0.50799 0.0
C772 C 1.00662 1.0042 0.49904 0.0
C773 C 0.99501 0.97773 0.48151 0.0
C774 C 0.95415 0.98515 0.47293 0.0
C775 C 0.92417 1.01904 0.48153 0.0
C776 C 0.93735 0.04605 0.49937 0.0
H777 H 0.75807 0.32398 0.81054 0.0
H778 H 0.82204 0.41892 0.76816 0.0
H779 H 0.81588 0.35864 0.74024 0.0
H780 H 0.8105 0.22391 0.78639 0.0
H781 H 0.75957 0.18457 0.79017 0.0
H782 H 0.76733 0.23497 0.80745 0.0
H783 H 0.68701 0.25929 0.80088 0.0
H784 H 0.67882 0.20855 0.78385 0.0
H785 H 0.67475 0.2638 0.77527 0.0
H786 H 0.80886 0.28623 0.71632 0.0
H787 H 0.79063 0.21176 0.69778 0.0
H788 H 0.72428 0.16026 0.75333 0.0
C789 C 0.76974 0.33253 0.79534 0.0
C790 C 0.79051 0.37762 0.79202 0.0
C791 C 0.80591 0.38576 0.77164 0.0
C792 C 0.80277 0.35122 0.75545 0.0
C793 C 0.78345 0.30746 0.75926 0.0
C794 C 0.76609 0.29806 0.77863 0.0
C795 C 0.74614 0.24777 0.77812 0.0
C796 C 0.77245 0.22123 0.79132 0.0
C797 C 0.69355 0.24468 0.78494 0.0
C798 C 0.7553 0.23059 0.75558 0.0
C799 C 0.77754 0.26579 0.74516 0.0
C800 C 0.79104 0.25873 0.72442 0.0
C801 C 0.78072 0.21559 0.71392 0.0
C802 C 0.75616 0.17864 0.72368 0.0
C803 C 0.74359 0.18682 0.74509 0.0
H804 H 0.31961 0.37399 0.75745 0.0
H805 H 0.28398 0.3201 0.69767 0.0
H806 H 0.25006 0.249 0.71121 0.0
H807 H 0.3497 0.2685 0.77328 0.0
H808 H 0.32365 0.27689 0.79899 0.0
H809 H 0.3442 0.32544 0.78524 0.0
H810 H 0.26266 0.3563 0.79201 0.0
H811 H 0.24204 0.30813 0.80601 0.0
H812 H 0.21209 0.3202 0.78506 0.0
H813 H 0.2238 0.17941 0.73045 0.0
H814 H 0.19855 0.12214 0.75473 0.0
H815 H 0.24534 0.21814 0.80336 0.0
C816 C 0.30361 0.34777 0.74729 0.0
C817 C 0.30475 0.354 0.72621 0.0
C818 C 0.28398 0.31746 0.71373 0.0
C819 C 0.26457 0.27627 0.72132 0.0
C820 C 0.26513 0.27072 0.74178 0.0
C821 C 0.28324 0.30574 0.75477 0.0
C822 C 0.27862 0.29014 0.77624 0.0
C823 C 0.32692 0.29027 0.78389 0.0
C824 C 0.24697 0.32051 0.79069 0.0
C825 C 0.25564 0.24119 0.77316 0.0
C826 C 0.24868 0.23073 0.75304 0.0
C827 C 0.22892 0.18758 0.74626 0.0
C828 C 0.21491 0.15476 0.76026 0.0
C829 C 0.21996 0.16442 0.78121 0.0
C830 C 0.24113 0.2087 0.78754 0.0
H831 H 0.32093 0.88124 0.26976 0.0
H832 H 0.24179 0.83354 0.32361 0.0
H833 H 0.22165 0.7601 0.30459 0.0
H834 H 0.23725 0.82351 0.23417 0.0
H835 H 0.28245 0.81 0.21428 0.0
H836 H 0.29096 0.85964 0.23193 0.0
H837 H 0.36708 0.83004 0.24068 0.0
H838 H 0.35839 0.77998 0.2233 0.0
H839 H 0.36537 0.7741 0.2494 0.0
H840 H 0.21345 0.68753 0.28029 0.0
H841 H 0.20813 0.62762 0.25212 0.0
H842 H 0.28554 0.71944 0.21144 0.0
C843 C 0.29854 0.85579 0.27752 0.0
C844 C 0.2831 0.86479 0.29868 0.0
C845 C 0.25439 0.82912 0.30774 0.0
C846 C 0.24278 0.78654 0.29694 0.0
C847 C 0.25909 0.77861 0.2765 0.0
C848 C 0.2855 0.81261 0.26667 0.0
C849 C 0.29706 0.79484 0.2443 0.0
C850 C 0.27567 0.82374 0.23034 0.0
C851 C 0.35014 0.79475 0.23911 0.0
C852 C 0.27361 0.74569 0.24321 0.0
C853 C 0.25248 0.7372 0.26217 0.0
C854 C 0.22963 0.69434 0.2654 0.0
C855 C 0.22711 0.65989 0.24908 0.0
C856 C 0.24658 0.66719 0.22905 0.0
C857 C 0.27056 0.71142 0.22634 0.0
H858 H 0.06784 0.49976 0.46264 0.0
H859 H 0.16034 0.47057 0.50591 0.0
H860 H 0.10213 0.49424 0.53385 0.0
H861 H 0.02225 0.60181 0.49307 0.0
H862 H 0.96387 0.58971 0.4857 0.0
H863 H 1.01298 0.57142 0.46885 0.0
H864 H 0.97528 0.48867 0.46735 0.0
H865 H 0.92633 0.50657 0.4844 0.0
H866 H 0.95954 0.46195 0.49049 0.0
H867 H 0.03107 0.51689 0.55793 0.0
H868 H 0.95902 0.54437 0.57593 0.0
H869 H 0.90972 0.5654 0.51866 0.0
C870 C 0.07644 0.4992 0.47799 0.0
C871 C 0.12023 0.4834 0.48162 0.0
C872 C 0.12836 0.48277 0.50222 0.0
C873 C 0.09492 0.49598 0.51839 0.0
C874 C 0.05237 0.51056 0.51429 0.0
C875 C 0.04323 0.51305 0.49457 0.0
C876 C 0.99455 0.53065 0.4946 0.0
C877 C 0.99866 0.5761 0.48498 0.0
C878 C 0.96199 0.49483 0.48354 0.0
C879 C 0.97769 0.53745 0.51732 0.0
C880 C 1.01176 0.525 0.52827 0.0
C881 C 1.00458 0.52694 0.54936 0.0
C882 C 0.96272 0.54258 0.55957 0.0
C883 C 0.92699 0.5573 0.54918 0.0
C884 C 0.93519 0.55426 0.52746 0.0
H885 H 0.60262 0.45987 0.02635 0.0
H886 H 0.61489 0.5965 0.05662 0.0
H887 H 0.54421 0.61434 0.04222 0.0
H888 H 0.56519 0.49363 0.98018 0.0
H889 H 0.5251 0.44404 0.97595 0.0
H890 H 0.57523 0.44051 0.98944 0.0
H891 H 0.52141 0.41111 0.01963 0.0
H892 H 0.47109 0.41448 1.00622 0.0
H893 H 0.47434 0.44397 0.03106 0.0
H894 H 0.47062 0.618 0.02475 0.0
H895 H 0.40471 0.60937 1.00407 0.0
H896 H 0.43945 0.47183 0.98254 0.0
C897 C 0.59014 0.49338 0.03012 0.0
C898 C 0.6149 0.52673 0.04291 0.0
C899 C 0.59728 0.57033 0.04696 0.0
C900 C 0.55676 0.58077 0.03885 0.0
C901 C 0.53352 0.5476 0.02627 0.0
C902 C 0.54972 0.50481 0.02174 0.0
C903 C 0.51894 0.47632 1.00699 0.0
C904 C 0.54784 0.46283 0.98695 0.0
C905 C 0.49503 0.43395 0.01655 0.0
C906 C 0.4831 0.50969 1.00398 0.0
C907 C 0.49208 0.55041 0.01548 0.0
C908 C 0.46369 0.58627 0.01559 0.0
C909 C 0.42579 0.58093 1.00359 0.0
C910 C 0.41589 0.54017 0.99101 0.0
C911 C 0.4454 0.5039 0.99155 0.0
H912 H 0.28584 0.25874 0.13893 0.0
H913 H 0.29075 0.28732 0.07626 0.0
H914 H 0.27862 0.36789 0.08721 0.0
H915 H 0.19174 0.33365 0.15677 0.0
H916 H 0.21431 0.35145 0.18071 0.0
H917 H 0.22508 0.2961 0.16808 0.0
H918 H 0.31385 0.31551 0.16936 0.0
H919 H 0.30337 0.37113 0.18178 0.0
H920 H 0.34149 0.36594 0.15862 0.0
H921 H 0.27096 0.44764 0.10481 0.0
H922 H 0.25425 0.51666 0.12746 0.0
H923 H 0.24493 0.43775 0.17933 0.0
C924 C 0.284 0.28191 0.12752 0.0
C925 C 0.28939 0.26604 0.10657 0.0
C926 C 0.28643 0.29791 0.09231 0.0
C927 C 0.2799 0.34413 0.09842 0.0
C928 C 0.27521 0.35874 0.11902 0.0
C929 C 0.27591 0.32838 0.13342 0.0
C930 C 0.26704 0.35291 0.15462 0.0
C931 C 0.22186 0.3323 0.1657 0.0
C932 C 0.30893 0.35126 0.16682 0.0
C933 C 0.26184 0.40168 0.14985 0.0
C934 C 0.26765 0.40429 0.12919 0.0
C935 C 0.26593 0.44574 0.12101 0.0
C936 C 0.25679 0.48513 0.13409 0.0
C937 C 0.24839 0.48345 0.15535 0.0
C938 C 0.25138 0.44076 0.16323 0.0
H939 H 0.52646 0.53525 0.38175 0.0
H940 H 0.48722 0.50931 0.32052 0.0
H941 H 0.40617 0.48702 0.33393 0.0
H942 H 0.45245 0.43715 0.40103 0.0
H943 H 0.43835 0.4666 0.42558 0.0
H944 H 0.49318 0.48108 0.41122 0.0
H945 H 0.47388 0.5653 0.414 0.0
H946 H 0.41872 0.55098 0.42813 0.0
H947 H 0.42038 0.5792 0.40533 0.0
H948 H 0.32678 0.47319 0.35422 0.0
H949 H 0.25946 0.45585 0.37895 0.0
H950 H 0.34936 0.48212 0.42757 0.0
C951 C 0.50094 0.52429 0.37114 0.0
C952 C 0.51386 0.52404 0.3499 0.0
C953 C 0.47894 0.50943 0.33673 0.0
C954 C 0.43244 0.49705 0.34427 0.0
C955 C 0.42077 0.4983 0.36518 0.0
C956 C 0.45431 0.5104 0.37846 0.0
C957 C 0.43267 0.50672 0.40024 0.0
C958 C 0.45553 0.47075 0.4101 0.0
C959 C 0.43666 0.55333 0.41266 0.0
C960 C 0.3817 0.4913 0.39718 0.0
C961 C 0.3756 0.48751 0.37681 0.0
C962 C 0.33151 0.47557 0.37016 0.0
C963 C 0.2931 0.4661 0.38446 0.0
C964 C 0.29829 0.46756 0.40544 0.0
C965 C 0.34364 0.4807 0.41176 0.0
H966 H 0.28135 0.7318 0.63973 0.0
H967 H 0.38429 0.69885 0.58935 0.0
H968 H 0.39747 0.62895 0.6038 0.0
H969 H 0.35004 0.6876 0.67785 0.0
H970 H 0.29861 0.66611 0.6928 0.0
H971 H 0.29655 0.71512 0.67898 0.0
H972 H 0.22706 0.67407 0.66124 0.0
H973 H 0.22941 0.62466 0.67475 0.0
H974 H 0.23333 0.61893 0.64751 0.0
H975 H 0.39206 0.5581 0.61979 0.0
H976 H 0.38543 0.49665 0.64196 0.0
H977 H 0.29658 0.57471 0.68659 0.0
C978 C 0.30739 0.71036 0.63206 0.0
C979 C 0.33078 0.72059 0.61291 0.0
C980 C 0.36477 0.69144 0.60356 0.0
C981 C 0.37264 0.65144 0.61168 0.0
C982 C 0.34752 0.64096 0.62976 0.0
C983 C 0.31699 0.67009 0.64041 0.0
C984 C 0.29686 0.65009 0.66016 0.0
C985 C 0.31138 0.68161 0.67854 0.0
C986 C 0.24348 0.64144 0.66096 0.0
C987 C 0.3201 0.60504 0.65843 0.0
C988 C 0.3482 0.60065 0.6404 0.0
C989 C 0.37095 0.56148 0.63417 0.0
C990 C 0.36639 0.52626 0.64688 0.0
C991 C 0.34035 0.5301 0.66613 0.0
C992 C 0.31671 0.5704 0.672 0.0
H993 H 0.99847 0.55231 0.85774 0.0
H994 H 0.93511 0.43965 0.89071 0.0
H995 H 1.00087 0.44781 0.91185 0.0
H996 H 0.11805 0.5269 0.8576 0.0
H997 H 0.14056 0.58568 0.86141 0.0
H998 H 0.08846 0.57107 0.84878 0.0
H999 H 0.04322 0.62608 0.87477 0.0
H1000 H 0.09532 0.64116 0.88736 0.0
H1001 H 0.04241 0.61993 0.9014 0.0
H1002 H 0.07734 0.46684 0.92908 0.0
H1003 H 0.15116 0.50073 0.94255 0.0
H1004 H 0.16268 0.60209 0.89927 0.0
C1005 C 0.99826 0.52956 0.86949 0.0
C1006 C 0.96089 0.4956 0.87259 0.0
C1007 C 0.96249 0.46655 0.88818 0.0
C1008 C 1.00016 0.4706 0.9002 0.0
C1009 C 0.0365 0.50415 0.8967 0.0
C1010 C 0.0355 0.53354 0.88188 0.0
C1011 C 0.07825 0.56757 0.88159 0.0
C1012 C 0.10809 0.56249 0.86113 0.0
C1013 C 0.06394 0.61658 0.88658 0.0
C1014 C 0.10338 0.55267 0.89843 0.0
C1015 C 0.0792 0.5157 0.90688 0.0
C1016 C 0.09635 0.49599 0.92258 0.0
C1017 C 0.13855 0.5152 0.93009 0.0
C1018 C 0.16296 0.55418 0.92212 0.0
C1019 C 0.14498 0.57243 0.90588 0.0
H1020 H 0.79628 0.56848 0.88615 0.0
H1021 H 0.79003 0.59346 0.82369 0.0
H1022 H 0.76781 0.67144 0.83474 0.0
H1023 H 0.69991 0.63723 0.90864 0.0
H1024 H 0.72915 0.65916 0.93055 0.0
H1025 H 0.74076 0.60391 0.91801 0.0
H1026 H 0.82894 0.62949 0.91375 0.0
H1027 H 0.81757 0.68494 0.92612 0.0
H1028 H 0.84862 0.68001 0.90122 0.0
H1029 H 0.74708 0.7481 0.85241 0.0
H1030 H 0.73125 0.81732 0.87509 0.0
H1031 H 0.75544 0.7473 0.9266 0.0
C1032 C 0.78905 0.59001 0.87486 0.0
C1033 C 0.79391 0.57394 0.85393 0.0
C1034 C 0.78588 0.60423 0.83972 0.0
C1035 C 0.77336 0.64888 0.8459 0.0
C1036 C 0.76959 0.66391 0.86647 0.0
C1037 C 0.77733 0.63548 0.88079 0.0
C1038 C 0.77335 0.66139 0.90187 0.0
C1039 C 0.73341 0.63909 0.91558 0.0
C1040 C 0.81989 0.6641 0.91129 0.0
C1041 C 0.7621 0.70857 0.89715 0.0
C1042 C 0.75977 0.70896 0.87661 0.0
C1043 C 0.74903 0.74806 0.8685 0.0
C1044 C 0.74011 0.78749 0.88158 0.0
C1045 C 0.74241 0.78862 0.90275 0.0
C1046 C 0.75395 0.74825 0.91052 0.0
H1047 H 0.55865 0.52375 0.68616 0.0
H1048 H 0.47179 0.49807 0.63646 0.0
H1049 H 0.53906 0.51905 0.61258 0.0
H1050 H 0.63289 0.62174 0.66556 0.0
H1051 H 0.68577 0.60556 0.67395 0.0
H1052 H 0.63019 0.59126 0.68778 0.0
H1053 H 0.64749 0.50639 0.68389 0.0
H1054 H 0.70282 0.52035 0.6698 0.0
H1055 H 0.66104 0.47842 0.65898 0.0
H1056 H 0.61533 0.53819 0.59328 0.0
H1057 H 0.69537 0.56159 0.57983 0.0
H1058 H 0.73837 0.57682 0.64067 0.0
C1059 C 0.55362 0.52385 0.67033 0.0
C1060 C 0.50905 0.50981 0.66337 0.0
C1061 C 0.50486 0.50907 0.64236 0.0
C1062 C 0.54318 0.52073 0.62856 0.0
C1063 C 0.58655 0.5331 0.63569 0.0
C1064 C 0.59223 0.53535 0.65607 0.0
C1065 C 0.64363 0.54909 0.65923 0.0
C1066 C 0.6484 0.59462 0.67242 0.0
C1067 C 0.665 0.51132 0.66853 0.0
C1068 C 0.66549 0.5541 0.63751 0.0
C1069 C 0.63153 0.54433 0.62429 0.0
C1070 C 0.64215 0.54614 0.60351 0.0
C1071 C 0.68814 0.55938 0.59597 0.0
C1072 C 0.72404 0.57102 0.60896 0.0
C1073 C 0.71231 0.56766 0.63014 0.0
H1074 H 0.69385 0.36018 0.41902 0.0
H1075 H 0.77388 0.27547 0.37385 0.0
H1076 H 0.77821 0.3356 0.3502 0.0
H1077 H 0.6258 0.40499 0.38595 0.0
H1078 H 0.62629 0.46124 0.39916 0.0
H1079 H 0.632 0.4127 0.41269 0.0
H1080 H 0.7093 0.45116 0.42508 0.0
H1081 H 0.70386 0.49982 0.41151 0.0
H1082 H 0.75597 0.46968 0.40684 0.0
H1083 H 0.76597 0.40266 0.33015 0.0
H1084 H 0.74274 0.47129 0.31655 0.0
H1085 H 0.67531 0.51452 0.37557 0.0
C1086 C 0.71259 0.35434 0.4042 0.0
C1087 C 0.73347 0.31278 0.39833 0.0
C1088 C 0.75799 0.30696 0.37882 0.0
C1089 C 0.76043 0.34096 0.36525 0.0
C1090 C 0.73887 0.3812 0.37144 0.0
C1091 C 0.71595 0.38821 0.3906 0.0
C1092 C 0.69504 0.43407 0.39353 0.0
C1093 C 0.64163 0.42786 0.3981 0.0
C1094 C 0.71738 0.46554 0.41023 0.0
C1095 C 0.70879 0.45149 0.3729 0.0
C1096 C 0.73393 0.42046 0.36031 0.0
C1097 C 0.74719 0.42752 0.34005 0.0
C1098 C 0.73396 0.46674 0.33243 0.0
C1099 C 0.70832 0.49911 0.34506 0.0
C1100 C 0.69632 0.4914 0.36566 0.0
H1101 H 0.87599 0.42872 0.12321 0.0
H1102 H 0.87353 0.53853 0.08501 0.0
H1103 H 0.94669 0.57495 0.098 0.0
H1104 H 0.91914 0.50048 0.16633 0.0
H1105 H 0.95386 0.45759 0.17292 0.0
H1106 H 0.90145 0.44089 0.16073 0.0
H1107 H 0.94903 0.39342 0.13244 0.0
H1108 H 1.00166 0.41031 0.14442 0.0
H1109 H 0.9989 0.42067 0.11845 0.0
H1110 H 0.02392 0.59641 0.11369 0.0
H1111 H 0.09225 0.60657 0.13325 0.0
H1112 H 0.04261 0.48521 0.16324 0.0
C1113 C 0.89058 0.46067 0.11764 0.0
C1114 C 0.86874 0.48063 0.10293 0.0
C1115 C 0.88912 0.5226 0.09627 0.0
C1116 C 0.93094 0.54336 0.10352 0.0
C1117 C 0.95186 0.52228 0.11773 0.0
C1118 C 0.9318 0.48223 0.12499 0.0
C1119 C 0.96058 0.46696 0.14059 0.0
C1120 C 0.93206 0.46646 0.16137 0.0
C1121 C 0.9786 0.42005 0.13355 0.0
C1122 C 1.00056 0.50427 0.14083 0.0
C1123 C 0.995 0.53558 0.12736 0.0
C1124 C 0.02811 0.57226 0.12439 0.0
C1125 C 0.0672 0.57757 0.13558 0.0
C1126 C 0.07337 0.54682 0.14996 0.0
C1127 C 0.03927 0.5095 0.15248 0.0
H1128 H 0.7838 0.79933 0.59513 0.0
H1129 H 0.79168 0.72372 0.64689 0.0
H1130 H 0.77354 0.79172 0.66982 0.0
H1131 H 0.83881 0.90534 0.61669 0.0
H1132 H 0.80281 0.94182 0.6062 0.0
H1133 H 0.81366 0.88664 0.59339 0.0
H1134 H 0.72483 0.86483 0.59419 0.0
H1135 H 0.71373 0.92011 0.60683 0.0
H1136 H 0.68898 0.8692 0.618 0.0
H1137 H 0.75444 0.86805 0.68776 0.0
H1138 H 0.73603 0.94696 0.6992 0.0
H1139 H 0.74405 0.97795 0.63675 0.0
C1140 C 0.78086 0.79691 0.61129 0.0
C1141 C 0.78873 0.75532 0.61907 0.0
C1142 C 0.78565 0.75453 0.64039 0.0
C1143 C 0.77539 0.79326 0.65363 0.0
C1144 C 0.76865 0.83367 0.6456 0.0
C1145 C 0.77125 0.83598 0.62492 0.0
C1146 C 0.76389 0.88454 0.62049 0.0
C1147 C 0.80739 0.90584 0.60847 0.0
C1148 C 0.72026 0.88467 0.6092 0.0
C1149 C 0.75671 0.90885 0.64183 0.0
C1150 C 0.75937 0.87853 0.65603 0.0
C1151 C 0.75261 0.89207 0.67672 0.0
C1152 C 0.74227 0.93727 0.68313 0.0
C1153 C 0.73925 0.96953 0.66906 0.0
C1154 C 0.74709 0.9548 0.64803 0.0
H1155 H 0.80245 0.96285 0.8852 0.0
H1156 H 0.8455 0.98623 0.94589 0.0
H1157 H 0.9244 1.01382 0.93199 0.0
H1158 H 0.90992 0.92036 0.86204 0.0
H1159 H 0.91025 0.94638 0.83874 0.0
H1160 H 0.85566 0.93161 0.85321 0.0
H1161 H 0.8338 1.01486 0.85464 0.0
H1162 H 0.88813 0.02976 0.83999 0.0
H1163 H 0.87343 0.06069 0.86415 0.0
H1164 H 0.99961 0.03837 0.91175 0.0
H1165 H 0.0657 0.05759 0.88672 0.0
H1166 H 0.9785 1.01497 0.83812 0.0
C1167 C 0.82822 0.97473 0.89558 0.0
C1168 C 0.81702 0.97298 0.91683 0.0
C1169 C 0.85256 0.98758 0.92969 0.0
C1170 C 0.89775 1.00325 0.92188 0.0
C1171 C 0.90788 1.00381 0.90099 0.0
C1172 C 0.87422 0.98994 0.88794 0.0
C1173 C 0.8954 0.99234 0.86602 0.0
C1174 C 0.89263 0.94484 0.85431 0.0
C1175 C 0.87125 0.02644 0.85558 0.0
C1176 C 0.94606 1.0096 0.86881 0.0
C1177 C 0.95213 1.01626 0.88918 0.0
C1178 C 0.99517 0.03305 0.89578 0.0
C1179 C 0.03273 0.04385 0.88136 0.0
C1180 C 0.02803 0.03743 0.86031 0.0
C1181 C 0.98383 1.01957 0.85402 0.0
H1182 H 0.8558 0.02109 0.14807 0.0
H1183 H 0.8031 0.07614 0.20785 0.0
H1184 H 0.78202 0.1446 0.19341 0.0
H1185 H 0.91064 0.12553 0.13332 0.0
H1186 H 0.89905 0.11533 0.10719 0.0
H1187 H 0.90366 0.06798 0.12163 0.0
H1188 H 0.82165 0.03375 0.1131 0.0
H1189 H 0.81691 0.08086 0.09848 0.0
H1190 H 0.7726 0.06803 0.11869 0.0
H1191 H 0.76978 0.20962 0.17226 0.0
H1192 H 0.77271 0.26642 0.14719 0.0
H1193 H 0.8389 0.17185 0.10158 0.0
C1194 C 0.83836 0.04686 0.15801 0.0
C1195 C 0.82975 0.04243 0.17908 0.0
C1196 C 0.80904 0.07814 0.19166 0.0
C1197 C 0.79707 0.11729 0.18356 0.0
C1198 C 0.8068 0.12102 0.1628 0.0
C1199 C 0.82728 0.08679 0.15021 0.0
C1200 C 0.83822 0.101 0.12881 0.0
C1201 C 0.89102 0.10255 0.12237 0.0
C1202 C 0.8107 0.069 0.11389 0.0
C1203 C 0.82101 0.1486 0.1313 0.0
C1204 C 0.8023 0.15926 0.15094 0.0
C1205 C 0.78431 0.20142 0.15685 0.0
C1206 C 0.7859 0.23354 0.14245 0.0
C1207 C 0.80608 0.22401 0.12234 0.0
C1208 C 0.82353 0.18059 0.11681 0.0
H1209 H 0.66485 0.10161 0.39819 0.0
H1210 H 0.65181 1.00662 0.44425 0.0
H1211 H 0.57658 0.97307 0.43207 0.0
H1212 H 0.54528 0.12205 0.39984 0.0
H1213 H 0.54561 0.12408 0.37294 0.0
H1214 H 0.59843 0.13964 0.38496 0.0
H1215 H 0.6413 0.07972 0.36071 0.0
H1216 H 0.58877 0.06431 0.34845 0.0
H1217 H 0.61712 0.02124 0.35871 0.0
H1218 H 0.49868 0.95421 0.41605 0.0
H1219 H 0.43188 0.94433 0.39554 0.0
H1220 H 0.49796 0.04839 0.35807 0.0
C1221 C 0.64646 0.07339 0.40566 0.0
C1222 C 0.66456 0.05688 0.42233 0.0
C1223 C 0.63922 1.01975 0.43145 0.0
C1224 C 0.59618 1.00074 0.42467 0.0
C1225 C 0.57904 1.01858 0.40847 0.0
C1226 C 0.60404 0.05355 0.39883 0.0
C1227 C 0.57875 0.06611 0.38149 0.0
C1228 C 0.56629 0.11593 0.38503 0.0
C1229 C 0.60824 0.05731 0.36113 0.0
C1230 C 0.53505 0.03321 0.38292 0.0
C1231 C 0.53569 1.00645 0.39875 0.0
C1232 C 0.49839 0.97472 0.40353 0.0
C1233 C 0.46021 0.96957 0.39175 0.0
C1234 C 0.45905 0.99543 0.37499 0.0
C1235 C 0.49734 0.02789 0.37066 0.0
H1236 H 0.25351 0.24656 0.42713 0.0
H1237 H 0.22159 0.31133 0.37537 0.0
H1238 H 0.23808 0.24147 0.35322 0.0
H1239 H 0.34688 0.18055 0.40126 0.0
H1240 H 0.32979 0.13078 0.41467 0.0
H1241 H 0.31749 0.18648 0.42648 0.0
H1242 H 0.23001 0.15895 0.43243 0.0
H1243 H 0.24203 0.10325 0.42051 0.0
H1244 H 0.19932 0.13458 0.41126 0.0
H1245 H 0.26064 0.16466 0.33602 0.0
H1246 H 0.28399 0.08674 0.32559 0.0
H1247 H 0.2957 0.06665 0.3882 0.0
C1248 C 0.25053 0.24622 0.41109 0.0
C1249 C 0.23668 0.28534 0.40308 0.0
C1250 C 0.2323 0.2825 0.38201 0.0
C1251 C 0.24161 0.24269 0.36924 0.0
C1252 C 0.25468 0.20481 0.37757 0.0
C1253 C 0.25883 0.20601 0.39805 0.0
C1254 C 0.27192 0.15969 0.4031 0.0
C1255 C 0.31934 0.16468 0.4119 0.0
C1256 C 0.23353 0.13783 0.41769 0.0
C1257 C 0.27489 0.13253 0.3823 0.0
C1258 C 0.26514 0.15955 0.36779 0.0
C1259 C 0.26772 0.14317 0.34735 0.0
C1260 C 0.28093 0.09857 0.34153 0.0
C1261 C 0.29074 0.0696 0.35597 0.0
C1262 C 0.28719 0.08711 0.37674 0.0
H1263 H 0.05792 0.03174 0.1843 0.0
H1264 H 0.979 0.972 0.13507 0.0
H1265 H 0.04581 0.99163 0.11055 0.0
H1266 H 0.12001 0.12574 0.15755 0.0
H1267 H 0.17432 0.12263 0.16814 0.0
H1268 H 0.1198 0.1055 0.18215 0.0
H1269 H 0.1494 0.0267 0.18498 0.0
H1270 H 0.20387 0.0435 0.17085 0.0
H1271 H 0.1694 0.9927 0.16232 0.0
H1272 H 0.12109 1.01731 0.09073 0.0
H1273 H 0.19896 0.04805 0.07713 0.0
H1274 H 0.23413 0.09001 0.13817 0.0
C1275 C 0.05452 0.02331 0.16834 0.0
C1276 C 1.01234 1.0003 0.16181 0.0
C1277 C 1.01028 0.98946 0.1407 0.0
C1278 C 0.04834 1.0005 0.12654 0.0
C1279 C 0.08933 0.02234 0.13341 0.0
C1280 C 0.09287 0.03375 0.1538 0.0
C1281 C 0.14177 0.05649 0.15689 0.0
C1282 C 0.13879 0.1055 0.16677 0.0
C1283 C 0.16764 0.02816 0.16951 0.0
C1284 C 0.16484 0.05614 0.13511 0.0
C1285 C 0.13361 0.03628 0.12188 0.0
C1286 C 0.1458 0.03271 0.10101 0.0
C1287 C 0.19049 0.05026 0.09338 0.0
C1288 C 0.22364 0.07112 0.10638 0.0
C1289 C 0.21036 0.07359 0.12768 0.0
H1290 H 0.15921 0.94712 0.83516 0.0
H1291 H 0.26126 0.04697 0.86056 0.0
H1292 H 0.28455 0.98874 0.88108 0.0
H1293 H 0.1211 0.89995 0.88125 0.0
H1294 H 0.1104 0.84257 0.86986 0.0
H1295 H 0.10629 0.89024 0.85554 0.0
H1296 H 0.16671 0.85804 0.82754 0.0
H1297 H 0.17093 0.81012 0.84174 0.0
H1298 H 0.22275 0.84537 0.83409 0.0
H1299 H 0.29544 0.91725 0.89956 0.0
H1300 H 0.28722 0.84482 0.91604 0.0
H1301 H 0.17312 0.79514 0.88052 0.0
C1302 C 0.1874 0.95654 0.84461 0.0
C1303 C 0.20937 1.00155 0.84572 0.0
C1304 C 0.24457 1.01266 0.85906 0.0
C1305 C 0.25794 0.97968 0.87082 0.0
C1306 C 0.23515 0.93574 0.86948 0.0
C1307 C 0.20021 0.92446 0.85681 0.0
C1308 C 0.17798 0.8765 0.85936 0.0
C1309 C 0.12586 0.87739 0.86696 0.0
C1310 C 0.18503 0.84569 0.8395 0.0
C1311 C 0.20578 0.86221 0.8754 0.0
C1312 C 0.23918 0.89644 0.88087 0.0
C1313 C 0.26923 0.89047 0.89534 0.0
C1314 C 0.26453 0.84907 0.90459 0.0
C1315 C 0.22944 0.81419 0.89971 0.0
C1316 C 0.20007 0.82114 0.88475 0.0
H1317 H 0.54013 0.98773 0.66744 0.0
H1318 H 0.59328 0.1041 0.63464 0.0
H1319 H 0.52432 0.09426 0.61552 0.0
H1320 H 0.49467 0.92065 0.62374 0.0
H1321 H 0.44432 0.89557 0.63822 0.0
H1322 H 0.49722 0.91258 0.64999 0.0
H1323 H 0.45103 0.96297 0.67765 0.0
H1324 H 0.39807 0.94641 0.66584 0.0
H1325 H 0.41735 1.00593 0.67035 0.0
H1326 H 0.44651 0.07425 0.60065 0.0
H1327 H 0.3726 0.03872 0.58816 0.0
H1328 H 0.37197 0.93154 0.62801 0.0
C1329 C 0.53731 1.011 0.65618 0.0
C1330 C 0.57267 0.04681 0.65268 0.0
C1331 C 0.56732 0.0762 0.63765 0.0
C1332 C 0.52786 0.07111 0.62672 0.0
C1333 C 0.49363 0.03588 0.63058 0.0
C1334 C 0.49832 1.00572 0.64467 0.0
C1335 C 0.45737 0.96936 0.64505 0.0
C1336 C 0.47442 0.92172 0.63888 0.0
C1337 C 0.4293 0.9713 0.66597 0.0
C1338 C 0.42906 0.98397 0.62913 0.0
C1339 C 0.45018 0.02292 0.62121 0.0
C1340 C 0.42992 0.04349 0.60666 0.0
C1341 C 0.38766 0.02326 0.59971 0.0
C1342 C 0.36625 0.98224 0.60696 0.0
C1343 C 0.3874 0.96278 0.62202 0.0
H1344 H 0.19587 0.12356 0.99155 0.0
H1345 H 0.3188 0.21821 0.99549 0.0
H1346 H 0.31098 0.23995 0.96114 0.0
H1347 H 0.21906 0.08595 0.93838 0.0
H1348 H 0.15814 0.08101 0.93422 0.0
H1349 H 0.17512 0.07265 0.95866 0.0
H1350 H 0.12193 0.13509 0.97514 0.0
H1351 H 0.10534 0.14409 0.95071 0.0
H1352 H 0.13025 0.19129 0.96641 0.0
H1353 H 0.28617 0.25378 0.927 0.0
H1354 H 0.25191 0.25219 0.89442 0.0
H1355 H 0.14595 0.1479 0.9137 0.0
C1356 C 0.22122 0.1487 0.9851 0.0
C1357 C 0.25776 0.16945 0.99602 0.0
C1358 C 0.2908 0.20177 0.98715 0.0
C1359 C 0.28638 0.21451 0.9678 0.0
C1360 C 0.24905 0.19413 0.95762 0.0
C1361 C 0.21752 0.16138 0.96588 0.0
C1362 C 0.18078 0.1441 0.95191 0.0
C1363 C 0.18347 0.0929 0.94541 0.0
C1364 C 0.13168 0.15427 0.96163 0.0
C1365 C 0.19617 0.17257 0.93453 0.0
C1366 C 0.23539 0.20147 0.93807 0.0
C1367 C 0.25557 0.23118 0.92405 0.0
C1368 C 0.2357 0.23038 0.90572 0.0
C1369 C 0.19646 0.19984 0.90167 0.0
C1370 C 0.1762 0.17125 0.91641 0.0
H1371 H 0.7223 0.487 0.14057 0.0
H1372 H 0.64795 0.35385 0.13112 0.0
H1373 H 0.60863 0.36323 0.16594 0.0
H1374 H 0.74704 0.47246 0.18974 0.0
H1375 H 0.74228 0.53109 0.19954 0.0
H1376 H 0.75868 0.51728 0.17303 0.0
H1377 H 0.69002 0.55973 0.16421 0.0
H1378 H 0.67329 0.57353 0.19075 0.0
H1379 H 0.63147 0.54394 0.17484 0.0
H1380 H 0.58118 0.38482 0.20177 0.0
H1381 H 0.57357 0.41247 0.23786 0.0
H1382 H 0.67076 0.5293 0.2254 0.0
C1383 C 0.6968 0.46048 0.14579 0.0
C1384 C 0.68703 0.42014 0.13327 0.0
C1385 C 0.65511 0.38515 0.14058 0.0
C1386 C 0.63257 0.39034 0.16022 0.0
C1387 C 0.64314 0.43039 0.17235 0.0
C1388 C 0.67495 0.46465 0.16555 0.0
C1389 C 0.68437 0.50157 0.18245 0.0
C1390 C 0.73615 0.50582 0.18642 0.0
C1391 C 0.66884 0.54741 0.17778 0.0
C1392 C 0.65337 0.48237 0.19988 0.0
C1393 C 0.62925 0.44178 0.19355 0.0
C1394 C 0.59984 0.41655 0.20692 0.0
C1395 C 0.596 0.43241 0.22741 0.0
C1396 C 0.62198 0.47277 0.23448 0.0
C1397 C 0.65009 0.49867 0.22041 0.0
H1398 H 0.29513 0.96293 0.51812 0.0
H1399 H 0.33957 0.83062 0.52695 0.0
H1400 H 0.34665 0.81098 0.48999 0.0
H1401 H 0.2233 0.92546 0.48154 0.0
H1402 H 0.23636 0.97337 0.4666 0.0
H1403 H 0.24246 0.98057 0.49328 0.0
H1404 H 0.32885 1.0118 0.48636 0.0
H1405 H 0.32279 1.00577 0.45962 0.0
H1406 H 0.36832 0.97895 0.46926 0.0
H1407 H 0.33673 0.80138 0.4528 0.0
H1408 H 0.32027 0.80616 0.41754 0.0
H1409 H 0.28291 0.94487 0.43306 0.0
C1410 C 0.30795 0.93041 0.51229 0.0
C1411 C 0.31692 0.89835 0.52545 0.0
C1412 C 0.3329 0.8559 0.51718 0.0
C1413 C 0.33678 0.84435 0.4962 0.0
C1414 C 0.32514 0.87585 0.48375 0.0
C1415 C 0.31202 0.91841 0.49146 0.0
C1416 C 0.29818 0.94488 0.47506 0.0
C1417 C 0.24706 0.95674 0.47939 0.0
C1418 C 0.33154 0.9879 0.47242 0.0
C1419 C 0.30433 0.91008 0.45698 0.0
C1420 C 0.31989 0.87049 0.46229 0.0
C1421 C 0.3253 0.83247 0.4484 0.0
C1422 C 0.31533 0.8353 0.42849 0.0
C1423 C 0.30029 0.87589 0.42265 0.0
C1424 C 0.29483 0.91367 0.43712 0.0
H1425 H 0.87574 0.55309 0.66494 0.0
H1426 H 0.02028 0.60067 0.65033 0.0
H1427 H 0.04182 0.56854 0.68041 0.0
H1428 H 0.87093 0.58545 0.71401 0.0
H1429 H 0.83381 0.53815 0.72331 0.0
H1430 H 0.83116 0.55262 0.69802 0.0
H1431 H 0.84868 0.47063 0.68374 0.0
H1432 H 0.85087 0.45557 0.70911 0.0
H1433 H 0.89959 0.44674 0.69034 0.0
H1434 H 0.04464 0.54972 0.71515 0.0
H1435 H 0.02902 0.54087 0.75174 0.0
H1436 H 0.88327 0.50302 0.74433 0.0
C1437 C 0.91214 0.55449 0.66761 0.0
C1438 C 0.94653 0.57884 0.65537 0.0
C1439 C 0.99366 0.58191 0.6596 0.0
C1440 C 1.00617 0.56356 0.67655 0.0
C1441 C 0.97112 0.54189 0.68903 0.0
C1442 C 0.92509 0.53652 0.68463 0.0
C1443 C 0.89328 0.51815 0.70203 0.0
C1444 C 0.85509 0.55055 0.70979 0.0
C1445 C 0.87185 0.46989 0.69594 0.0
C1446 C 0.92812 0.51721 0.71737 0.0
C1447 C 0.97297 0.53014 0.7094 0.0
C1448 C 1.01003 0.53804 0.7214 0.0
C1449 C 1.0009 0.53331 0.74213 0.0
C1450 C 0.95522 0.52064 0.75057 0.0
C1451 C 0.91871 0.5113 0.73797 0.0
H1452 H 0.86628 0.80268 0.10187 0.0
H1453 H 0.77576 0.90047 0.13394 0.0
H1454 H 0.73859 0.90606 0.10276 0.0
H1455 H 0.89006 0.85837 0.05881 0.0
H1456 H 0.89122 0.80842 0.04097 0.0
H1457 H 0.90465 0.80504 0.06642 0.0
H1458 H 0.83975 0.73929 0.0709 0.0
H1459 H 0.82634 0.74217 0.04532 0.0
H1460 H 0.78105 0.74729 0.06598 0.0
H1461 H 0.71857 0.90867 0.06795 0.0
H1462 H 0.71773 0.9095 0.03118 0.0
H1463 H 0.82189 0.81063 0.02106 0.0
C1464 C 0.83757 0.82396 0.10232 0.0
C1465 C 0.82338 0.85089 0.12011 0.0
C1466 C 0.7868 0.87964 0.12029 0.0
C1467 C 0.76538 0.88277 0.10276 0.0
C1468 C 0.78104 0.85687 0.08521 0.0
C1469 C 0.81619 0.82788 0.08481 0.0
C1470 C 0.83013 0.80805 0.06346 0.0
C1471 C 0.88208 0.82076 0.05705 0.0
C1472 C 0.81861 0.75611 0.06129 0.0
C1473 C 0.79872 0.83192 0.05193 0.0
C1474 C 0.77003 0.85914 0.06481 0.0
C1475 C 0.74014 0.88679 0.05768 0.0
C1476 C 0.73985 0.88696 0.03676 0.0
C1477 C 0.76962 0.86 0.02325 0.0
C1478 C 0.79887 0.83169 0.03101 0.0
H1479 H 0.31177 0.65486 0.8733 0.0
H1480 H 0.37132 0.5443 0.89722 0.0
H1481 H 0.40149 0.51652 0.86269 0.0
H1482 H 0.2737 0.59111 0.82989 0.0
H1483 H 0.28742 0.63623 0.81343 0.0
H1484 H 0.2736 0.64987 0.84015 0.0
H1485 H 0.35213 0.69917 0.84195 0.0
H1486 H 0.36615 0.68593 0.81518 0.0
H1487 H 0.40592 0.67434 0.8327 0.0
H1488 H 0.41991 0.49704 0.82546 0.0
H1489 H 0.42855 0.48958 0.78809 0.0
H1490 H 0.35788 0.61285 0.78825 0.0
C1491 C 0.33186 0.62528 0.87133 0.0
C1492 C 0.33924 0.60187 0.88803 0.0
C1493 C 0.36526 0.56295 0.88472 0.0
C1494 C 0.38256 0.54684 0.86514 0.0
C1495 C 0.37385 0.57013 0.84899 0.0
C1496 C 0.34948 0.60874 0.85186 0.0
C1497 C 0.34347 0.62638 0.83183 0.0
C1498 C 0.29146 0.62584 0.82865 0.0
C1499 C 0.36842 0.6743 0.83033 0.0
C1500 C 0.36762 0.59124 0.81726 0.0
C1501 C 0.38493 0.55913 0.82748 0.0
C1502 C 0.40689 0.52223 0.81728 0.0
C1503 C 0.41135 0.51807 0.79607 0.0
C1504 C 0.39408 0.55068 0.78524 0.0
C1505 C 0.37216 0.58783 0.79608 0.0
H1506 H 0.80492 0.15738 0.58852 0.0
H1507 H 0.66408 0.19076 0.6101 0.0
H1508 H 0.64895 0.20018 0.57507 0.0
H1509 H 0.82435 0.23569 0.54775 0.0
H1510 H 0.85716 0.19533 0.53132 0.0
H1511 H 0.85823 0.19742 0.55833 0.0
H1512 H 0.83106 0.11124 0.55712 0.0
H1513 H 0.82971 0.10899 0.53022 0.0
H1514 H 0.77812 0.0907 0.54593 0.0
H1515 H 0.64759 0.19856 0.53644 0.0
H1516 H 0.66048 0.18359 0.4989 0.0
H1517 H 0.80175 0.15193 0.50436 0.0
C1518 C 0.77134 0.1681 0.58612 0.0
C1519 C 0.73581 0.17336 0.60219 0.0
C1520 C 0.69185 0.1861 0.59806 0.0
C1521 C 0.68302 0.19191 0.57821 0.0
C1522 C 0.71862 0.1853 0.56265 0.0
C1523 C 0.76204 0.174 0.56651 0.0
C1524 C 0.79345 0.16502 0.54724 0.0
C1525 C 0.83579 0.20049 0.5461 0.0
C1526 C 0.80894 0.11609 0.54501 0.0
C1527 C 0.76045 0.17132 0.53189 0.0
C1528 C 0.71765 0.18382 0.54086 0.0
C1529 C 0.68119 0.18926 0.52929 0.0
C1530 C 0.68866 0.1808 0.50805 0.0
C1531 C 0.73185 0.1663 0.49895 0.0
C1532 C 0.7682 0.16266 0.51104 0.0
H1533 H 0.15457 0.46843 0.3571 0.0
H1534 H 0.01705 0.3961 0.36355 0.0
H1535 H 1.00457 0.41149 0.32899 0.0
H1536 H 0.12337 0.55631 0.3277 0.0
H1537 H 0.17794 0.55793 0.31186 0.0
H1538 H 0.17576 0.54273 0.33743 0.0
H1539 H 0.21173 0.46687 0.32439 0.0
H1540 H 0.21438 0.48198 0.29882 0.0
H1541 H 0.18416 0.42876 0.30556 0.0
H1542 H 1.00862 0.43018 0.29345 0.0
H1543 H 0.02928 0.45137 0.25854 0.0
H1544 H 0.16289 0.51396 0.27508 0.0
C1545 C 0.12195 0.45574 0.35119 0.0
C1546 C 0.08669 0.43114 0.36298 0.0
C1547 C 0.04423 0.41548 0.35483 0.0
C1548 C 0.03687 0.42398 0.33523 0.0
C1549 C 0.07217 0.44855 0.32406 0.0
C1550 C 0.11384 0.46433 0.33169 0.0
C1551 C 0.14638 0.48904 0.31627 0.0
C1552 C 0.15644 0.5395 0.32377 0.0
C1553 C 0.19184 0.46522 0.31094 0.0
C1554 C 0.11676 0.48384 0.29866 0.0
C1555 C 0.07404 0.46046 0.30355 0.0
C1556 C 0.04168 0.44899 0.28949 0.0
C1557 C 0.05364 0.46104 0.26977 0.0
C1558 C 0.09731 0.48457 0.26438 0.0
C1559 C 0.1289 0.49686 0.27908 0.0
H1560 H 0.63147 0.71032 0.42729 0.0
H1561 H 0.75717 0.67578 0.38937 0.0
H1562 H 0.79794 0.67408 0.41982 0.0
H1563 H 0.69278 0.7829 0.46727 0.0
H1564 H 0.65011 0.76345 0.48692 0.0
H1565 H 0.63314 0.7678 0.46202 0.0
H1566 H 0.6007 0.68298 0.46034 0.0
H1567 H 0.61818 0.67809 0.48501 0.0
H1568 H 0.63867 0.63989 0.46383 0.0
H1569 H 0.82115 0.66518 0.45452 0.0
H1570 H 0.8262 0.65497 0.49039 0.0
H1571 H 0.68695 0.70071 0.5052 0.0
C1572 C 0.66798 0.70393 0.42524 0.0
C1573 C 0.69076 0.69271 0.40582 0.0
C1574 C 0.73849 0.68366 0.40404 0.0
C1575 C 0.76216 0.68296 0.42127 0.0
C1576 C 0.73796 0.69231 0.44018 0.0
C1577 C 0.69219 0.70351 0.44223 0.0
C1578 C 0.67302 0.70929 0.46422 0.0
C1579 C 0.66161 0.75881 0.47047 0.0
C1580 C 0.63013 0.67554 0.46859 0.0
C1581 C 0.71448 0.6977 0.47417 0.0
C1582 C 0.75177 0.68836 0.46012 0.0
C1583 C 0.79253 0.67345 0.46571 0.0
C1584 C 0.79507 0.66778 0.48619 0.0
C1585 C 0.75702 0.67695 0.50085 0.0
C1586 C 0.71666 0.69287 0.49459 0.0
H1587 H 0.20828 0.9848 0.64436 0.0
H1588 H 0.15862 0.84228 0.63478 0.0
H1589 H 0.11997 0.84546 0.66977 0.0
H1590 H 0.23886 0.97709 0.6935 0.0
H1591 H 0.22337 0.03329 0.70336 0.0
H1592 H 0.24116 0.02174 0.67682 0.0
H1593 H 0.16397 0.04982 0.66812 0.0
H1594 H 0.14592 0.0614 0.69468 0.0
H1595 H 0.10895 0.02446 0.67884 0.0
H1596 H 0.08924 0.86343 0.70576 0.0
H1597 H 0.07545 0.89148 0.74152 0.0
H1598 H 0.15231 0.02052 0.72884 0.0
C1599 C 0.18829 0.95468 0.64957 0.0
C1600 C 0.18541 0.91351 0.63695 0.0
C1601 C 0.16061 0.87416 0.64431 0.0
C1602 C 0.13847 0.87575 0.66406 0.0
C1603 C 0.14231 0.91676 0.67628 0.0
C1604 C 0.1671 0.95537 0.66943 0.0
C1605 C 0.1703 0.99348 0.68632 0.0
C1606 C 0.22145 1.00718 0.69023 0.0
C1607 C 0.14581 0.03473 0.68171 0.0
C1608 C 0.1438 0.9701 0.70376 0.0
C1609 C 0.12722 0.92623 0.69751 0.0
C1610 C 0.1023 0.89765 0.71087 0.0
C1611 C 0.09501 0.91392 0.73128 0.0
C1612 C 0.11342 0.95812 0.73835 0.0
C1613 C 0.13742 0.98674 0.72417 0.0
H1614 H 0.75232 0.34354 0.93097 0.0
H1615 H 0.87023 0.44046 0.91667 0.0
H1616 H 0.89189 0.4428 0.95134 0.0
H1617 H 0.72115 0.39644 0.98007 0.0
H1618 H 0.70364 0.34389 0.99134 0.0
H1619 H 0.69993 0.34668 0.96478 0.0
H1620 H 0.75128 0.27844 0.95665 0.0
H1621 H 0.75569 0.27605 0.98324 0.0
H1622 H 0.80786 0.28194 0.96601 0.0
H1623 H 0.89749 0.44017 0.98807 0.0
H1624 H 0.88236 0.43662 0.02513 0.0
H1625 H 0.76241 0.3407 0.01621 0.0
C1626 C 0.78294 0.36479 0.93515 0.0
C1627 C 0.80949 0.39182 0.92105 0.0
C1628 C 0.84898 0.41979 0.92716 0.0
C1629 C 0.86194 0.421 0.94682 0.0
C1630 C 0.83508 0.39407 0.96034 0.0
C1631 C 0.79614 0.36677 0.95488 0.0
C1632 C 0.77118 0.3442 0.97289 0.0
C1633 C 0.72103 0.35868 0.97755 0.0
C1634 C 0.77155 0.29205 0.96949 0.0
C1635 C 0.80176 0.36373 0.98931 0.0
C1636 C 0.83879 0.392 0.98168 0.0
C1637 C 0.86935 0.41727 0.9942 0.0
C1638 C 0.86086 0.41482 0.01516 0.0
C1639 C 0.82256 0.38696 0.02325 0.0
C1640 C 0.7933 0.36042 1.01017 0.0
H1641 H 0.48015 0.04279 0.24373 0.0
H1642 H 0.3552 0.09583 0.27577 0.0
H1643 H 0.34203 0.13332 0.24561 0.0
H1644 H 0.51764 0.14151 0.21453 0.0
H1645 H 0.53754 0.10561 0.19245 0.0
H1646 H 0.53964 0.0876 0.21731 0.0
H1647 H 0.4907 1.01239 0.20722 0.0
H1648 H 0.48837 0.03016 0.1824 0.0
H1649 H 0.43503 1.01499 0.19769 0.0
H1650 H 0.33966 0.15973 0.21108 0.0
H1651 H 0.34716 0.17152 0.17475 0.0
H1652 H 0.47294 0.0992 0.16579 0.0
C1653 C 0.45074 0.06331 0.24459 0.0
C1654 C 0.41883 0.06671 0.26205 0.0
C1655 C 0.37988 0.09268 0.26243 0.0
C1656 C 0.37236 0.11433 0.24547 0.0
C1657 C 0.40422 0.10966 0.22835 0.0
C1658 C 0.44267 0.08483 0.22782 0.0
C1659 C 0.46958 0.08179 0.20715 0.0
C1660 C 0.51903 0.10556 0.20791 0.0
C1661 C 0.47096 0.03188 0.19809 0.0
C1662 C 0.43969 0.10794 0.19596 0.0
C1663 C 0.40248 0.12425 0.20846 0.0
C1664 C 0.36889 0.14745 0.20118 0.0
C1665 C 0.37324 0.15364 0.1805 0.0
C1666 C 0.41066 0.13629 0.16739 0.0
C1667 C 0.44449 0.11374 0.1754 0.0
H1668 H 0.40868 0.39374 0.59971 0.0
H1669 H 0.3117 0.28072 0.61729 0.0
H1670 H 0.27845 0.27665 0.58446 0.0
H1671 H 0.33152 0.44853 0.57407 0.0
H1672 H 0.37499 0.46518 0.55417 0.0
H1673 H 0.39206 0.45819 0.57876 0.0
H1674 H 0.45042 0.40015 0.56263 0.0
H1675 H 0.43385 0.40726 0.53796 0.0
H1676 H 0.4299 0.35117 0.54669 0.0
H1677 H 0.25197 0.28914 0.55084 0.0
H1678 H 0.24045 0.31128 0.51699 0.0
H1679 H 0.35734 0.41338 0.52081 0.0
C1680 C 0.38072 0.36794 0.5965 0.0
C1681 C 0.36271 0.33748 0.61091 0.0
C1682 C 0.32629 0.30394 0.60629 0.0
C1683 C 0.30699 0.30164 0.58779 0.0
C1684 C 0.32502 0.33276 0.57403 0.0
C1685 C 0.36159 0.36477 0.57803 0.0
C1686 C 0.3749 0.39399 0.56064 0.0
C1687 C 0.36793 0.44445 0.56732 0.0
C1688 C 0.42525 0.38774 0.55144 0.0
C1689 C 0.3398 0.37368 0.5463 0.0
C1690 C 0.31097 0.33876 0.55439 0.0
C1691 C 0.27464 0.31608 0.54425 0.0
C1692 C 0.26814 0.329 0.52517 0.0
C1693 C 0.29823 0.36372 0.51641 0.0
C1694 C 0.33434 0.38634 0.52716 0.0
H1695 H 0.82164 0.15616 0.37175 0.0
H1696 H 0.87574 0.0445 0.39726 0.0
H1697 H 0.91352 1.01923 0.36385 0.0
H1698 H 0.79502 0.09447 0.32587 0.0
H1699 H 0.8123 0.14076 0.31033 0.0
H1700 H 0.79216 0.1527 0.33661 0.0
H1701 H 0.86883 0.20277 0.34222 0.0
H1702 H 0.88928 0.19101 0.31591 0.0
H1703 H 0.92414 0.17892 0.33527 0.0
H1704 H 0.93984 1.00164 0.32764 0.0
H1705 H 0.95512 0.99456 0.29036 0.0
H1706 H 0.88643 0.11794 0.28797 0.0
C1707 C 0.84195 0.12679 0.37033 0.0
C1708 C 0.84564 0.10236 0.38715 0.0
C1709 C 0.87227 0.06384 0.38464 0.0
C1710 C 0.89405 0.04918 0.36571 0.0
C1711 C 0.88926 0.07354 0.34941 0.0
C1712 C 0.86418 0.11166 0.35147 0.0
C1713 C 0.86306 0.13036 0.33123 0.0
C1714 C 0.81264 0.12949 0.32569 0.0
C1715 C 0.88781 0.17863 0.33116 0.0
C1716 C 0.89056 0.09616 0.31751 0.0
C1717 C 0.90543 0.06379 0.32836 0.0
C1718 C 0.929 0.02711 0.31897 0.0
C1719 C 0.93733 0.02321 0.29785 0.0
C1720 C 0.92237 0.0559 0.28642 0.0
C1721 C 0.89918 0.0931 0.29642 0.0
H1722 H 0.28929 0.69322 0.09199 0.0
H1723 H 0.14198 0.66424 0.10953 0.0
H1724 H 0.12521 0.6644 0.07391 0.0
H1725 H 0.27849 0.76473 0.05039 0.0
H1726 H 0.32615 0.74052 0.03452 0.0
H1727 H 0.32576 0.74448 0.06166 0.0
H1728 H 0.33388 0.65754 0.06002 0.0
H1729 H 0.33451 0.65353 0.03294 0.0
H1730 H 0.29214 0.61841 0.04758 0.0
H1731 H 0.12527 0.66252 0.03587 0.0
H1732 H 0.14338 0.65211 0.99851 0.0
H1733 H 0.29075 0.67832 1.00579 0.0
C1734 C 0.25353 0.68808 0.08826 0.0
C1735 C 0.21673 0.67946 0.10337 0.0
C1736 C 0.1704 0.67129 0.09805 0.0
C1737 C 0.16062 0.67152 0.07792 0.0
C1738 C 0.19769 0.67954 0.06322 0.0
C1739 C 0.24332 0.68731 0.06812 0.0
C1740 C 0.27722 0.69024 0.04926 0.0
C1741 C 0.30345 0.73783 0.04895 0.0
C1742 C 0.31143 0.6527 0.04734 0.0
C1743 C 0.24369 0.68212 0.03306 0.0
C1744 C 0.19786 0.67689 0.04136 0.0
C1745 C 0.16099 0.66712 0.02921 0.0
C1746 C 0.1714 0.66151 1.00805 0.0
C1747 C 0.21822 0.6652 0.99947 0.0
C1748 C 0.25456 0.67624 0.01211 0.0
H1749 H 0.54462 0.94992 0.85973 0.0
H1750 H 0.66763 0.0341 0.87693 0.0
H1751 H 0.66499 0.0787 0.84807 0.0
H1752 H 0.58245 0.93287 0.81163 0.0
H1753 H 0.52757 0.93304 0.80111 0.0
H1754 H 0.52823 0.91811 0.82642 0.0
H1755 H 0.47375 0.98156 0.83996 0.0
H1756 H 0.47245 0.9965 0.81451 0.0
H1757 H 0.48984 0.03939 0.83401 0.0
H1758 H 0.66172 0.10112 0.81375 0.0
H1759 H 0.65932 0.09825 0.77704 0.0
H1760 H 0.54082 0.99717 0.78063 0.0
C1761 C 0.57032 0.97847 0.8578 0.0
C1762 C 0.60655 0.98803 0.87059 0.0
C1763 C 0.63917 0.0261 0.86757 0.0
C1764 C 0.63791 0.05181 0.85115 0.0
C1765 C 0.60365 0.03931 0.83799 0.0
C1766 C 0.57005 1.00374 0.84127 0.0
C1767 C 0.54258 0.99146 0.82314 0.0
C1768 C 0.54545 0.94092 0.81511 0.0
C1769 C 0.49163 1.00294 0.82822 0.0
C1770 C 0.56857 0.02302 0.80855 0.0
C1771 C 0.60245 0.05158 0.81765 0.0
C1772 C 0.63446 0.07992 0.80661 0.0
C1773 C 0.63278 0.07801 0.78568 0.0
C1774 C 0.59975 0.0474 0.77593 0.0
C1775 C 0.56633 0.02088 0.78768 0.0
loop_
_geom_bond_atom_site_label_1
_geom_bond_atom_site_label_2
_geom_bond_distance
_geom_bond_site_symmetry_2
_ccdc_geom_bond_type
Co0 N5 2.057 . S
Co0 O17 2.021 . S
Co0 O20 2.062 . S
Co0 O24 2.117 . S
Co0 O25 2.020 . S
C1 O21 1.259 . S
C1 O24 1.258 . S
Co2 N11 2.057 . S
Co2 O18 2.117 . S
Co2 O19 2.020 . S
Co2 O21 2.021 . S
Co2 O26 2.062 . S
C3 N5 1.316 . S
C3 N6 1.347 . S
C3 H8 0.931 . S
C4 N5 1.375 . S
C4 C7 1.350 . S
C4 H9 0.930 . S
N5 Co0 2.057 . S
N5 C3 1.316 . S
N5 C4 1.375 . S
N6 C3 1.347 . S
N6 C7 1.373 . S
C7 C4 1.350 . S
C7 N6 1.373 . S
C7 H28 0.931 . S
H8 C3 0.931 . S
H9 C4 0.930 . S
C10 O17 1.259 . S
C10 O18 1.258 . S
N11 Co2 2.057 . S
N11 C12 1.316 . S
N11 C13 1.375 . S
C12 N11 1.316 . S
C12 N14 1.347 . S
C12 H23 0.931 . S
C13 N11 1.375 . S
C13 C15 1.350 . S
C13 H22 0.930 . S
N14 C12 1.347 . S
N14 C15 1.373 . S
C15 C13 1.350 . S
C15 N14 1.373 . S
C15 H29 0.931 . S
C16 O19 1.256 . S
C16 O20 1.255 . S
O17 Co0 2.021 . S
O17 C10 1.259 . S
O18 Co2 2.117 . S
O18 C10 1.258 . S
O19 Co2 2.020 . S
O19 C16 1.256 . S
O20 Co0 2.062 . S
O20 C16 1.255 . S
O21 C1 1.259 . S
O21 Co2 2.021 . S
H22 C13 0.930 . S
H23 C12 0.931 . S
O24 Co0 2.117 . S
O24 C1 1.258 . S
O25 Co0 2.020 . S
O25 C27 1.256 . S
O26 Co2 2.062 . S
O26 C27 1.255 . S
C27 O25 1.256 . S
C27 O26 1.255 . S
H28 C7 0.931 . S
H29 C15 0.931 . S
Co30 N35 2.057 . S
Co30 O47 2.021 . S
Co30 O50 2.062 . S
Co30 O54 2.117 . S
Co30 O55 2.020 . S
C31 O51 1.259 . S
C31 O54 1.258 . S
Co32 N41 2.057 . S
Co32 O48 2.117 . S
Co32 O49 2.020 . S
Co32 O51 2.021 . S
Co32 O56 2.062 . S
C33 N35 1.316 . S
C33 N36 1.347 . S
C33 H38 0.931 . S
C34 N35 1.375 . S
C34 C37 1.350 . S
C34 H39 0.930 . S
N35 Co30 2.057 . S
N35 C33 1.316 . S
N35 C34 1.375 . S
N36 C33 1.347 . S
N36 C37 1.373 . S
C37 C34 1.350 . S
C37 N36 1.373 . S
C37 H58 0.931 . S
H38 C33 0.931 . S
H39 C34 0.930 . S
C40 O47 1.259 . S
C40 O48 1.258 . S
N41 Co32 2.057 . S
N41 C42 1.316 . S
N41 C43 1.375 . S
C42 N41 1.316 . S
C42 N44 1.347 . S
C42 H53 0.931 . S
C43 N41 1.375 . S
C43 C45 1.350 . S
C43 H52 0.930 . S
N44 C42 1.347 . S
N44 C45 1.373 . S
C45 C43 1.350 . S
C45 N44 1.373 . S
C45 H59 0.931 . S
C46 O49 1.256 . S
C46 O50 1.255 . S
O47 Co30 2.021 . S
O47 C40 1.259 . S
O48 Co32 2.117 . S
O48 C40 1.258 . S
O49 Co32 2.020 . S
O49 C46 1.256 . S
O50 Co30 2.062 . S
O50 C46 1.255 . S
O51 C31 1.259 . S
O51 Co32 2.021 . S
H52 C43 0.930 . S
H53 C42 0.931 . S
O54 Co30 2.117 . S
O54 C31 1.258 . S
O55 Co30 2.020 . S
O55 C57 1.256 . S
O56 Co32 2.062 . S
O56 C57 1.255 . S
C57 O55 1.256 . S
C57 O56 1.255 . S
H58 C37 0.931 . S
H59 C45 0.931 . S
Co60 N65 2.057 . S
Co60 O77 2.021 . S
Co60 O80 2.062 . S
Co60 O84 2.117 . S
Co60 O85 2.020 . S
C61 O81 1.259 . S
C61 O84 1.258 . S
Co62 N71 2.057 . S
Co62 O78 2.117 . S
Co62 O79 2.020 . S
Co62 O81 2.021 . S
Co62 O86 2.062 . S
C63 N65 1.316 . S
C63 N66 1.347 . S
C63 H68 0.931 . S
C64 N65 1.375 . S
C64 C67 1.350 . S
C64 H69 0.930 . S
N65 Co60 2.057 . S
N65 C63 1.316 . S
N65 C64 1.375 . S
N66 C63 1.347 . S
N66 C67 1.373 . S
C67 C64 1.350 . S
C67 N66 1.373 . S
C67 H88 0.931 . S
H68 C63 0.931 . S
H69 C64 0.930 . S
C70 O77 1.259 . S
C70 O78 1.258 . S
N71 Co62 2.057 . S
N71 C72 1.316 . S
N71 C73 1.375 . S
C72 N71 1.316 . S
C72 N74 1.347 . S
C72 H83 0.931 . S
C73 N71 1.375 . S
C73 C75 1.362 . S
C73 H82 0.930 . S
N74 C72 1.347 . S
N74 C75 1.379 . S
C75 C73 1.362 . S
C75 N74 1.379 . S
C75 H89 0.916 1_565 S
C76 O79 1.256 . S
C76 O80 1.255 . S
O77 Co60 2.021 . S
O77 C70 1.259 . S
O78 Co62 2.117 . S
O78 C70 1.258 . S
O79 Co62 2.020 . S
O79 C76 1.256 . S
O80 Co60 2.062 . S
O80 C76 1.255 . S
O81 C61 1.259 . S
O81 Co62 2.021 . S
H82 C73 0.930 . S
H83 C72 0.931 . S
O84 Co60 2.117 . S
O84 C61 1.258 . S
O85 Co60 2.020 . S
O85 C87 1.256 . S
O86 Co62 2.062 . S
O86 C87 1.255 . S
C87 O85 1.256 . S
C87 O86 1.255 . S
H88 C67 0.931 . S
H89 C75 0.916 1_545 S
Co90 N95 2.057 . S
Co90 O107 2.021 . S
Co90 O110 2.062 . S
Co90 O114 2.117 . S
Co90 O115 2.020 . S
C91 O111 1.259 . S
C91 O114 1.258 . S
Co92 N101 2.057 . S
Co92 O108 2.117 . S
Co92 O109 2.020 . S
Co92 O111 2.021 . S
Co92 O116 2.062 . S
C93 N95 1.316 . S
C93 N96 1.347 . S
C93 H98 0.931 . S
C94 N95 1.375 . S
C94 C97 1.350 . S
C94 H99 0.930 . S
N95 Co90 2.057 . S
N95 C93 1.316 . S
N95 C94 1.375 . S
N96 C93 1.347 . S
N96 C97 1.373 . S
C97 C94 1.350 . S
C97 N96 1.373 . S
C97 H118 0.931 . S
H98 C93 0.931 . S
H99 C94 0.930 . S
C100 O107 1.259 . S
C100 O108 1.258 . S
N101 Co92 2.057 . S
N101 C102 1.316 . S
N101 C103 1.375 . S
C102 N101 1.316 . S
C102 N104 1.347 . S
C102 H113 0.931 . S
C103 N101 1.375 . S
C103 C105 1.350 . S
C103 H112 0.930 . S
N104 C102 1.347 . S
N104 C105 1.373 . S
C105 C103 1.350 . S
C105 N104 1.373 . S
C105 H119 0.931 . S
C106 O109 1.256 . S
C106 O110 1.255 . S
O107 Co90 2.021 . S
O107 C100 1.259 . S
O108 Co92 2.117 . S
O108 C100 1.258 . S
O109 Co92 2.020 . S
O109 C106 1.256 . S
O110 Co90 2.062 . S
O110 C106 1.255 . S
O111 C91 1.259 . S
O111 Co92 2.021 . S
H112 C103 0.930 . S
H113 C102 0.931 . S
O114 Co90 2.117 . S
O114 C91 1.258 . S
O115 Co90 2.020 . S
O115 C117 1.256 . S
O116 Co92 2.062 . S
O116 C117 1.255 . S
C117 O115 1.256 . S
C117 O116 1.255 . S
H118 C97 0.931 . S
H119 C105 0.931 . S
Co120 N125 2.057 . S
Co120 O137 2.021 . S
Co120 O140 2.062 . S
Co120 O144 2.117 . S
Co120 O145 2.020 . S
C121 O141 1.259 . S
C121 O144 1.258 . S
Co122 N131 2.057 . S
Co122 O138 2.117 . S
Co122 O139 2.020 . S
Co122 O141 2.021 . S
Co122 O146 2.062 . S
C123 N125 1.316 . S
C123 N126 1.347 . S
C123 H128 0.931 . S
C124 N125 1.375 . S
C124 C127 1.350 . S
C124 H129 0.930 . S
N125 Co120 2.057 . S
N125 C123 1.316 . S
N125 C124 1.375 . S
N126 C123 1.347 . S
N126 C127 1.373 . S
C127 C124 1.350 . S
C127 N126 1.373 . S
C127 H148 0.931 . S
H128 C123 0.931 . S
H129 C124 0.930 . S
C130 O137 1.259 . S
C130 O138 1.258 . S
N131 Co122 2.057 . S
N131 C132 1.316 . S
N131 C133 1.375 . S
C132 N131 1.316 . S
C132 N134 1.347 . S
C132 H143 0.931 . S
C133 N131 1.375 . S
C133 C135 1.350 . S
C133 H142 0.930 . S
N134 C132 1.347 . S
N134 C135 1.373 . S
C135 C133 1.350 . S
C135 N134 1.373 . S
C135 H149 0.931 . S
C136 O139 1.256 . S
C136 O140 1.255 . S
O137 Co120 2.021 . S
O137 C130 1.259 . S
O138 Co122 2.117 . S
O138 C130 1.258 . S
O139 Co122 2.020 . S
O139 C136 1.256 . S
O140 Co120 2.062 . S
O140 C136 1.255 . S
O141 C121 1.259 . S
O141 Co122 2.021 . S
H142 C133 0.930 . S
H143 C132 0.931 . S
O144 Co120 2.117 . S
O144 C121 1.258 . S
O145 Co120 2.020 . S
O145 C147 1.256 . S
O146 Co122 2.062 . S
O146 C147 1.255 . S
C147 O145 1.256 . S
C147 O146 1.255 . S
H148 C127 0.931 . S
H149 C135 0.931 . S
Co150 N155 2.057 . S
Co150 O167 2.021 . S
Co150 O170 2.062 . S
Co150 O174 2.117 . S
Co150 O175 2.020 . S
C151 O171 1.259 . S
C151 O174 1.258 . S
Co152 N161 2.057 . S
Co152 O168 2.117 . S
Co152 O169 2.020 . S
Co152 O171 2.021 . S
Co152 O176 2.062 . S
C153 N155 1.316 . S
C153 N156 1.347 . S
C153 H158 0.931 . S
C154 N155 1.375 . S
C154 C157 1.350 . S
C154 H159 0.930 . S
N155 Co150 2.057 . S
N155 C153 1.316 . S
N155 C154 1.375 . S
N156 C153 1.347 . S
N156 C157 1.373 . S
C157 C154 1.350 . S
C157 N156 1.373 . S
C157 H178 0.931 . S
H158 C153 0.931 . S
H159 C154 0.930 . S
C160 O167 1.259 . S
C160 O168 1.258 . S
N161 Co152 2.057 . S
N161 C162 1.316 . S
N161 C163 1.375 . S
C162 N161 1.316 . S
C162 N164 1.347 . S
C162 H173 0.931 . S
C163 N161 1.375 . S
C163 C165 1.350 . S
C163 H172 0.930 . S
N164 C162 1.347 . S
N164 C165 1.373 . S
C165 C163 1.350 . S
C165 N164 1.373 . S
C165 H179 0.931 . S
C166 O169 1.256 . S
C166 O170 1.255 . S
O167 Co150 2.021 . S
O167 C160 1.259 . S
O168 Co152 2.117 . S
O168 C160 1.258 . S
O169 Co152 2.020 . S
O169 C166 1.256 . S
O170 Co150 2.062 . S
O170 C166 1.255 . S
O171 C151 1.259 . S
O171 Co152 2.021 . S
H172 C163 0.930 . S
H173 C162 0.931 . S
O174 Co150 2.117 . S
O174 C151 1.258 . S
O175 Co150 2.020 . S
O175 C177 1.256 . S
O176 Co152 2.062 . S
O176 C177 1.255 . S
C177 O175 1.256 . S
C177 O176 1.255 . S
H178 C157 0.931 . S
H179 C165 0.931 . S
Co180 N185 2.057 . S
Co180 O197 2.021 . S
Co180 O200 2.062 . S
Co180 O204 2.117 . S
Co180 O205 2.020 . S
C181 O201 1.259 . S
C181 O204 1.258 . S
Co182 N191 2.057 . S
Co182 O198 2.117 . S
Co182 O199 2.020 . S
Co182 O201 2.021 . S
Co182 O206 2.062 . S
C183 N185 1.316 . S
C183 N186 1.347 . S
C183 H188 0.931 . S
C184 N185 1.375 . S
C184 C187 1.362 . S
C184 H189 0.930 . S
N185 Co180 2.057 . S
N185 C183 1.316 . S
N185 C184 1.375 . S
N186 C183 1.347 . S
N186 C187 1.379 . S
C187 C184 1.362 . S
C187 N186 1.379 . S
C187 H208 0.916 1_545 S
H188 C183 0.931 . S
H189 C184 0.930 . S
C190 O197 1.259 . S
C190 O198 1.258 . S
N191 Co182 2.057 . S
N191 C192 1.316 . S
N191 C193 1.375 . S
C192 N191 1.316 . S
C192 N194 1.347 . S
C192 H203 0.931 . S
C193 N191 1.375 . S
C193 C195 1.350 . S
C193 H202 0.930 . S
N194 C192 1.347 . S
N194 C195 1.373 . S
C195 C193 1.350 . S
C195 N194 1.373 . S
C195 H209 0.931 . S
C196 O199 1.256 . S
C196 O200 1.255 . S
O197 Co180 2.021 . S
O197 C190 1.259 . S
O198 Co182 2.117 . S
O198 C190 1.258 . S
O199 Co182 2.020 . S
O199 C196 1.256 . S
O200 Co180 2.062 . S
O200 C196 1.255 . S
O201 C181 1.259 . S
O201 Co182 2.021 . S
H202 C193 0.930 . S
H203 C192 0.931 . S
O204 Co180 2.117 . S
O204 C181 1.258 . S
O205 Co180 2.020 . S
O205 C207 1.256 . S
O206 Co182 2.062 . S
O206 C207 1.255 . S
C207 O205 1.256 . S
C207 O206 1.255 . S
H208 C187 0.916 1_565 S
H209 C195 0.931 . S
Co210 N215 2.057 . S
Co210 O227 2.021 . S
Co210 O230 2.062 . S
Co210 O234 2.117 . S
Co210 O235 2.020 . S
C211 O231 1.259 . S
C211 O234 1.258 . S
Co212 N221 2.057 . S
Co212 O228 2.117 . S
Co212 O229 2.020 . S
Co212 O231 2.021 . S
Co212 O236 2.062 . S
C213 N215 1.316 . S
C213 N216 1.347 . S
C213 H218 0.931 . S
C214 N215 1.375 . S
C214 C217 1.350 . S
C214 H219 0.930 . S
N215 Co210 2.057 . S
N215 C213 1.316 . S
N215 C214 1.375 . S
N216 C213 1.347 . S
N216 C217 1.373 . S
C217 C214 1.350 . S
C217 N216 1.373 . S
C217 H238 0.931 . S
H218 C213 0.931 . S
H219 C214 0.930 . S
C220 O227 1.259 . S
C220 O228 1.258 . S
N221 Co212 2.057 . S
N221 C222 1.316 . S
N221 C223 1.375 . S
C222 N221 1.316 . S
C222 N224 1.347 . S
C222 H233 0.931 . S
C223 N221 1.375 . S
C223 C225 1.350 . S
C223 H232 0.930 . S
N224 C222 1.347 . S
N224 C225 1.373 . S
C225 C223 1.350 . S
C225 N224 1.373 . S
C225 H239 0.931 . S
C226 O229 1.256 . S
C226 O230 1.255 . S
O227 Co210 2.021 . S
O227 C220 1.259 . S
O228 Co212 2.117 . S
O228 C220 1.258 . S
O229 Co212 2.020 . S
O229 C226 1.256 . S
O230 Co210 2.062 . S
O230 C226 1.255 . S
O231 C211 1.259 . S
O231 Co212 2.021 . S
H232 C223 0.930 . S
H233 C222 0.931 . S
O234 Co210 2.117 . S
O234 C211 1.258 . S
O235 Co210 2.020 . S
O235 C237 1.256 . S
O236 Co212 2.062 . S
O236 C237 1.255 . S
C237 O235 1.256 . S
C237 O236 1.255 . S
H238 C217 0.931 . S
H239 C225 0.931 . S
Co240 N245 2.057 . S
Co240 O257 2.021 . S
Co240 O260 2.062 . S
Co240 O264 2.117 . S
Co240 O265 2.020 . S
C241 O261 1.259 . S
C241 O264 1.258 . S
Co242 N251 2.057 . S
Co242 O258 2.117 . S
Co242 O259 2.020 . S
Co242 O261 2.021 . S
Co242 O266 2.062 . S
C243 N245 1.316 . S
C243 N246 1.347 . S
C243 H248 0.931 . S
C244 N245 1.375 . S
C244 C247 1.350 . S
C244 H249 0.930 . S
N245 Co240 2.057 . S
N245 C243 1.316 . S
N245 C244 1.375 . S
N246 C243 1.347 . S
N246 C247 1.373 . S
C247 C244 1.350 . S
C247 N246 1.373 . S
C247 H268 0.931 . S
H248 C243 0.931 . S
H249 C244 0.930 . S
C250 O257 1.259 . S
C250 O258 1.258 . S
N251 Co242 2.057 . S
N251 C252 1.316 . S
N251 C253 1.375 . S
C252 N251 1.316 . S
C252 N254 1.347 . S
C252 H263 0.931 . S
C253 N251 1.375 . S
C253 C255 1.350 . S
C253 H262 0.930 . S
N254 C252 1.347 . S
N254 C255 1.373 . S
C255 C253 1.350 . S
C255 N254 1.373 . S
C255 H269 0.931 . S
C256 O259 1.256 . S
C256 O260 1.255 . S
O257 Co240 2.021 . S
O257 C250 1.259 . S
O258 Co242 2.117 . S
O258 C250 1.258 . S
O259 Co242 2.020 . S
O259 C256 1.256 . S
O260 Co240 2.062 . S
O260 C256 1.255 . S
O261 C241 1.259 . S
O261 Co242 2.021 . S
H262 C253 0.930 . S
H263 C252 0.931 . S
O264 Co240 2.117 . S
O264 C241 1.258 . S
O265 Co240 2.020 . S
O265 C267 1.256 . S
O266 Co242 2.062 . S
O266 C267 1.255 . S
C267 O265 1.256 . S
C267 O266 1.255 . S
H268 C247 0.931 . S
H269 C255 0.931 . S
Co270 N275 2.057 . S
Co270 O287 2.021 . S
Co270 O290 2.062 . S
Co270 O294 2.117 . S
Co270 O295 2.020 . S
C271 O291 1.259 . S
C271 O294 1.258 . S
Co272 N281 2.057 . S
Co272 O288 2.117 . S
Co272 O289 2.020 . S
Co272 O291 2.021 . S
Co272 O296 2.062 . S
C273 N275 1.316 . S
C273 N276 1.347 . S
C273 H278 0.931 . S
C274 N275 1.375 1_565 S
C274 C277 1.350 . S
C274 H279 0.930 . S
N275 Co270 2.057 . S
N275 C273 1.316 . S
N275 C274 1.375 1_545 S
N276 C273 1.347 . S
N276 C277 1.373 1_545 S
C277 C274 1.350 . S
C277 N276 1.373 1_565 S
C277 H298 0.931 . S
H278 C273 0.931 . S
H279 C274 0.930 . S
C280 O287 1.259 . S
C280 O288 1.258 . S
N281 Co272 2.057 . S
N281 C282 1.316 . S
N281 C283 1.375 . S
C282 N281 1.316 . S
C282 N284 1.347 . S
C282 H293 0.931 . S
C283 N281 1.375 . S
C283 C285 1.350 . S
C283 H292 0.930 . S
N284 C282 1.347 . S
N284 C285 1.373 . S
C285 C283 1.350 . S
C285 N284 1.373 . S
C285 H299 0.931 . S
C286 O289 1.256 . S
C286 O290 1.255 . S
O287 Co270 2.021 . S
O287 C280 1.259 . S
O288 Co272 2.117 . S
O288 C280 1.258 . S
O289 Co272 2.020 . S
O289 C286 1.256 . S
O290 Co270 2.062 . S
O290 C286 1.255 . S
O291 C271 1.259 . S
O291 Co272 2.021 . S
H292 C283 0.930 . S
H293 C282 0.931 . S
O294 Co270 2.117 . S
O294 C271 1.258 . S
O295 Co270 2.020 . S
O295 C297 1.256 . S
O296 Co272 2.062 . S
O296 C297 1.255 . S
C297 O295 1.256 . S
C297 O296 1.255 . S
H298 C277 0.931 . S
H299 C285 0.931 . S
Co300 N305 2.057 . S
Co300 O317 2.021 . S
Co300 O320 2.062 . S
Co300 O324 2.117 . S
Co300 O325 2.020 . S
C301 O321 1.259 . S
C301 O324 1.258 . S
Co302 N311 2.057 . S
Co302 O318 2.117 . S
Co302 O319 2.020 . S
Co302 O321 2.021 . S
Co302 O326 2.062 . S
C303 N305 1.316 . S
C303 N306 1.347 . S
C303 H308 0.931 . S
C304 N305 1.375 . S
C304 C307 1.350 . S
C304 H309 0.930 . S
N305 Co300 2.057 . S
N305 C303 1.316 . S
N305 C304 1.375 . S
N306 C303 1.347 . S
N306 C307 1.373 . S
C307 C304 1.350 . S
C307 N306 1.373 . S
C307 H328 0.931 . S
H308 C303 0.931 . S
H309 C304 0.930 . S
C310 O317 1.259 . S
C310 O318 1.258 . S
N311 Co302 2.057 . S
N311 C312 1.316 . S
N311 C313 1.375 . S
C312 N311 1.316 . S
C312 N314 1.347 . S
C312 H323 0.931 . S
C313 N311 1.375 . S
C313 C315 1.350 . S
C313 H322 0.930 . S
N314 C312 1.347 . S
N314 C315 1.373 . S
C315 C313 1.350 . S
C315 N314 1.373 . S
C315 H329 0.931 . S
C316 O319 1.256 . S
C316 O320 1.255 . S
O317 Co300 2.021 . S
O317 C310 1.259 . S
O318 Co302 2.117 . S
O318 C310 1.258 . S
O319 Co302 2.020 . S
O319 C316 1.256 . S
O320 Co300 2.062 . S
O320 C316 1.255 . S
O321 C301 1.259 . S
O321 Co302 2.021 . S
H322 C313 0.930 . S
H323 C312 0.931 . S
O324 Co300 2.117 . S
O324 C301 1.258 . S
O325 Co300 2.020 . S
O325 C327 1.256 . S
O326 Co302 2.062 . S
O326 C327 1.255 . S
C327 O325 1.256 . S
C327 O326 1.255 . S
H328 C307 0.931 . S
H329 C315 0.931 . S
Co330 N335 2.057 . S
Co330 O347 2.021 . S
Co330 O350 2.062 . S
Co330 O354 2.117 . S
Co330 O355 2.020 . S
C331 O351 1.259 . S
C331 O354 1.258 . S
Co332 N341 2.057 . S
Co332 O348 2.117 . S
Co332 O349 2.020 . S
Co332 O351 2.021 . S
Co332 O356 2.062 . S
C333 N335 1.316 . S
C333 N336 1.347 . S
C333 H338 0.931 . S
C334 N335 1.375 1_545 S
C334 C337 1.350 . S
C334 H339 0.930 . S
N335 Co330 2.057 . S
N335 C333 1.316 . S
N335 C334 1.375 1_565 S
N336 C333 1.347 . S
N336 C337 1.373 1_565 S
C337 C334 1.350 . S
C337 N336 1.373 1_545 S
C337 H358 0.931 . S
H338 C333 0.931 . S
H339 C334 0.930 . S
C340 O347 1.259 . S
C340 O348 1.258 . S
N341 Co332 2.057 . S
N341 C342 1.316 . S
N341 C343 1.375 . S
C342 N341 1.316 . S
C342 N344 1.347 . S
C342 H353 0.931 . S
C343 N341 1.375 . S
C343 C345 1.350 . S
C343 H352 0.930 . S
N344 C342 1.347 . S
N344 C345 1.373 . S
C345 C343 1.350 . S
C345 N344 1.373 . S
C345 H359 0.931 . S
C346 O349 1.256 . S
C346 O350 1.255 . S
O347 Co330 2.021 . S
O347 C340 1.259 . S
O348 Co332 2.117 . S
O348 C340 1.258 . S
O349 Co332 2.020 . S
O349 C346 1.256 . S
O350 Co330 2.062 . S
O350 C346 1.255 . S
O351 C331 1.259 . S
O351 Co332 2.021 . S
H352 C343 0.930 . S
H353 C342 0.931 . S
O354 Co330 2.117 . S
O354 C331 1.258 . S
O355 Co330 2.020 . S
O355 C357 1.256 . S
O356 Co332 2.062 . S
O356 C357 1.255 . S
C357 O355 1.256 . S
C357 O356 1.255 . S
H358 C337 0.931 . S
H359 C345 0.931 . S
Co360 N365 2.057 . S
Co360 O377 2.021 . S
Co360 O380 2.062 . S
Co360 O384 2.117 . S
Co360 O385 2.020 . S
C361 O381 1.259 . S
C361 O384 1.258 . S
Co362 N371 2.057 . S
Co362 O378 2.117 . S
Co362 O379 2.020 . S
Co362 O381 2.021 . S
Co362 O386 2.062 . S
C363 N365 1.316 . S
C363 N366 1.347 . S
C363 H368 0.931 . S
C364 N365 1.375 . S
C364 C367 1.350 . S
C364 H369 0.930 . S
N365 Co360 2.057 . S
N365 C363 1.316 . S
N365 C364 1.375 . S
N366 C363 1.347 . S
N366 C367 1.373 . S
C367 C364 1.350 . S
C367 N366 1.373 . S
C367 H388 0.931 . S
H368 C363 0.931 . S
H369 C364 0.930 . S
C370 O377 1.259 . S
C370 O378 1.258 . S
N371 Co362 2.057 . S
N371 C372 1.316 . S
N371 C373 1.375 . S
C372 N371 1.316 . S
C372 N374 1.347 . S
C372 H383 0.931 . S
C373 N371 1.375 . S
C373 C375 1.350 . S
C373 H382 0.930 . S
N374 C372 1.347 . S
N374 C375 1.373 . S
C375 C373 1.350 . S
C375 N374 1.373 . S
C375 H389 0.931 . S
C376 O379 1.256 . S
C376 O380 1.255 . S
O377 Co360 2.021 . S
O377 C370 1.259 . S
O378 Co362 2.117 . S
O378 C370 1.258 . S
O379 Co362 2.020 . S
O379 C376 1.256 . S
O380 Co360 2.062 . S
O380 C376 1.255 . S
O381 C361 1.259 . S
O381 Co362 2.021 . S
H382 C373 0.930 . S
H383 C372 0.931 . S
O384 Co360 2.117 . S
O384 C361 1.258 . S
O385 Co360 2.020 . S
O385 C387 1.256 . S
O386 Co362 2.062 . S
O386 C387 1.255 . S
C387 O385 1.256 . S
C387 O386 1.255 . S
H388 C367 0.931 . S
H389 C375 0.931 . S
Co390 N395 2.057 . S
Co390 O407 2.021 . S
Co390 O410 2.062 . S
Co390 O414 2.117 . S
Co390 O415 2.020 . S
C391 O411 1.259 . S
C391 O414 1.258 . S
Co392 N401 2.057 . S
Co392 O408 2.117 . S
Co392 O409 2.020 . S
Co392 O411 2.021 . S
Co392 O416 2.062 . S
C393 N395 1.316 . S
C393 N396 1.347 . S
C393 H398 0.931 . S
C394 N395 1.375 . S
C394 C397 1.350 . S
C394 H399 0.930 . S
N395 Co390 2.057 . S
N395 C393 1.316 . S
N395 C394 1.375 . S
N396 C393 1.347 . S
N396 C397 1.373 . S
C397 C394 1.350 . S
C397 N396 1.373 . S
C397 H418 0.931 . S
H398 C393 0.931 . S
H399 C394 0.930 . S
C400 O407 1.259 . S
C400 O408 1.258 . S
N401 Co392 2.057 . S
N401 C402 1.316 . S
N401 C403 1.375 1_565 S
C402 N401 1.316 . S
C402 N404 1.347 . S
C402 H413 0.931 . S
C403 N401 1.375 1_545 S
C403 C405 1.350 . S
C403 H412 0.930 . S
N404 C402 1.347 . S
N404 C405 1.373 1_565 S
C405 C403 1.350 . S
C405 N404 1.373 1_545 S
C405 H419 0.931 . S
C406 O409 1.256 . S
C406 O410 1.255 . S
O407 Co390 2.021 . S
O407 C400 1.259 . S
O408 Co392 2.117 . S
O408 C400 1.258 . S
O409 Co392 2.020 . S
O409 C406 1.256 . S
O410 Co390 2.062 . S
O410 C406 1.255 . S
O411 C391 1.259 . S
O411 Co392 2.021 . S
H412 C403 0.930 . S
H413 C402 0.931 . S
O414 Co390 2.117 . S
O414 C391 1.258 . S
O415 Co390 2.020 . S
O415 C417 1.256 . S
O416 Co392 2.062 . S
O416 C417 1.255 . S
C417 O415 1.256 . S
C417 O416 1.255 . S
H418 C397 0.931 . S
H419 C405 0.931 . S
Co420 N425 2.057 . S
Co420 O437 2.021 . S
Co420 O440 2.062 . S
Co420 O444 2.117 . S
Co420 O445 2.020 . S
C421 O441 1.259 . S
C421 O444 1.258 . S
Co422 N431 2.057 . S
Co422 O438 2.117 . S
Co422 O439 2.020 . S
Co422 O441 2.021 . S
Co422 O446 2.062 . S
C423 N425 1.316 . S
C423 N426 1.347 . S
C423 H428 0.931 . S
C424 N425 1.375 . S
C424 C427 1.350 . S
C424 H429 0.930 . S
N425 Co420 2.057 . S
N425 C423 1.316 . S
N425 C424 1.375 . S
N426 C423 1.347 . S
N426 C427 1.373 . S
C427 C424 1.350 . S
C427 N426 1.373 . S
C427 H448 0.931 . S
H428 C423 0.931 . S
H429 C424 0.930 . S
C430 O437 1.259 . S
C430 O438 1.258 . S
N431 Co422 2.057 . S
N431 C432 1.316 . S
N431 C433 1.375 . S
C432 N431 1.316 . S
C432 N434 1.347 . S
C432 H443 0.931 . S
C433 N431 1.375 . S
C433 C435 1.350 . S
C433 H442 0.930 . S
N434 C432 1.347 . S
N434 C435 1.373 . S
C435 C433 1.350 . S
C435 N434 1.373 . S
C435 H449 0.931 . S
C436 O439 1.256 . S
C436 O440 1.255 . S
O437 Co420 2.021 . S
O437 C430 1.259 . S
O438 Co422 2.117 . S
O438 C430 1.258 . S
O439 Co422 2.020 . S
O439 C436 1.256 . S
O440 Co420 2.062 . S
O440 C436 1.255 . S
O441 C421 1.259 . S
O441 Co422 2.021 . S
H442 C433 0.930 . S
H443 C432 0.931 . S
O444 Co420 2.117 . S
O444 C421 1.258 . S
O445 Co420 2.020 . S
O445 C447 1.256 . S
O446 Co422 2.062 . S
O446 C447 1.255 . S
C447 O445 1.256 . S
C447 O446 1.255 . S
H448 C427 0.931 . S
H449 C435 0.931 . S
Co450 N455 2.057 . S
Co450 O467 2.021 . S
Co450 O470 2.062 . S
Co450 O474 2.117 . S
Co450 O475 2.020 . S
C451 O471 1.259 . S
C451 O474 1.258 . S
Co452 N461 2.057 . S
Co452 O468 2.117 . S
Co452 O469 2.020 . S
Co452 O471 2.021 . S
Co452 O476 2.062 . S
C453 N455 1.316 . S
C453 N456 1.347 . S
C453 H458 0.931 . S
C454 N455 1.375 . S
C454 C457 1.350 . S
C454 H459 0.930 . S
N455 Co450 2.057 . S
N455 C453 1.316 . S
N455 C454 1.375 . S
N456 C453 1.347 . S
N456 C457 1.373 . S
C457 C454 1.350 . S
C457 N456 1.373 . S
C457 H478 0.931 . S
H458 C453 0.931 . S
H459 C454 0.930 . S
C460 O467 1.259 . S
C460 O468 1.258 . S
N461 Co452 2.057 . S
N461 C462 1.316 . S
N461 C463 1.375 1_545 S
C462 N461 1.316 . S
C462 N464 1.347 . S
C462 H473 0.931 . S
C463 N461 1.375 1_565 S
C463 C465 1.350 . S
C463 H472 0.930 . S
N464 C462 1.347 . S
N464 C465 1.373 1_545 S
C465 C463 1.350 . S
C465 N464 1.373 1_565 S
C465 H479 0.931 . S
C466 O469 1.256 . S
C466 O470 1.255 . S
O467 Co450 2.021 . S
O467 C460 1.259 . S
O468 Co452 2.117 . S
O468 C460 1.258 . S
O469 Co452 2.020 . S
O469 C466 1.256 . S
O470 Co450 2.062 . S
O470 C466 1.255 . S
O471 C451 1.259 . S
O471 Co452 2.021 . S
H472 C463 0.930 . S
H473 C462 0.931 . S
O474 Co450 2.117 . S
O474 C451 1.258 . S
O475 Co450 2.020 . S
O475 C477 1.256 . S
O476 Co452 2.062 . S
O476 C477 1.255 . S
C477 O475 1.256 . S
C477 O476 1.255 . S
H478 C457 0.931 . S
H479 C465 0.931 . S
H480 C492 0.930 . S
H481 C494 0.930 . S
H482 C495 0.930 . S
H483 C499 0.959 . S
H484 C499 0.959 . S
H485 C499 0.961 . S
H486 C500 0.960 . S
H487 C500 0.961 . S
H488 C500 0.959 . S
H489 C503 0.929 . S
H490 C504 0.931 . S
H491 C506 0.930 . S
C492 H480 0.930 . S
C492 C493 1.399 . S
C492 C497 1.399 . S
C493 C492 1.399 . S
C493 C494 1.376 . S
C494 H481 0.930 . S
C494 C493 1.376 . S
C494 C495 1.388 . S
C495 H482 0.930 . S
C495 C494 1.388 . S
C495 C496 1.390 . S
C496 C495 1.390 . S
C496 C497 1.394 . S
C496 C502 1.465 . S
C497 C492 1.399 . S
C497 C496 1.394 . S
C497 C498 1.516 . S
C498 C497 1.516 . S
C498 C499 1.502 . S
C498 C500 1.561 . S
C498 C501 1.526 . S
C499 H483 0.959 . S
C499 H484 0.959 . S
C499 H485 0.961 . S
C499 C498 1.502 . S
C500 H486 0.960 . S
C500 H487 0.961 . S
C500 H488 0.959 . S
C500 C498 1.561 . S
C501 C498 1.526 . S
C501 C502 1.396 . S
C501 C506 1.390 . S
C502 C496 1.465 . S
C502 C501 1.396 . S
C502 C503 1.399 . S
C503 H489 0.929 . S
C503 C502 1.399 . S
C503 C504 1.385 . S
C504 H490 0.931 . S
C504 C503 1.385 . S
C504 C505 1.389 . S
C505 C504 1.389 . S
C505 C506 1.387 . S
C506 H491 0.930 . S
C506 C501 1.390 . S
C506 C505 1.387 . S
H507 C519 0.930 . S
H508 C521 0.930 . S
H509 C522 0.930 . S
H510 C526 0.959 . S
H511 C526 0.959 . S
H512 C526 0.961 . S
H513 C527 0.960 . S
H514 C527 0.961 . S
H515 C527 0.959 . S
H516 C530 0.929 . S
H517 C531 0.931 . S
H518 C533 0.930 . S
C519 H507 0.930 . S
C519 C520 1.399 . S
C519 C524 1.399 . S
C520 C519 1.399 . S
C520 C521 1.376 . S
C521 H508 0.930 . S
C521 C520 1.376 . S
C521 C522 1.388 . S
C522 H509 0.930 . S
C522 C521 1.388 . S
C522 C523 1.390 . S
C523 C522 1.390 . S
C523 C524 1.394 . S
C523 C529 1.465 . S
C524 C519 1.399 . S
C524 C523 1.394 . S
C524 C525 1.516 . S
C525 C524 1.516 . S
C525 C526 1.502 . S
C525 C527 1.561 . S
C525 C528 1.526 . S
C526 H510 0.959 . S
C526 H511 0.959 . S
C526 H512 0.961 . S
C526 C525 1.502 . S
C527 H513 0.960 . S
C527 H514 0.961 . S
C527 H515 0.959 . S
C527 C525 1.561 . S
C528 C525 1.526 . S
C528 C529 1.396 . S
C528 C533 1.390 . S
C529 C523 1.465 . S
C529 C528 1.396 . S
C529 C530 1.399 . S
C530 H516 0.929 . S
C530 C529 1.399 . S
C530 C531 1.385 . S
C531 H517 0.931 . S
C531 C530 1.385 . S
C531 C532 1.389 . S
C532 C531 1.389 . S
C532 C533 1.387 . S
C533 H518 0.930 . S
C533 C528 1.390 . S
C533 C532 1.387 . S
H534 C546 0.930 . S
H535 C548 0.930 . S
H536 C549 0.930 . S
H537 C553 0.959 . S
H538 C553 0.959 . S
H539 C553 0.961 . S
H540 C554 0.960 . S
H541 C554 0.961 1_655 S
H542 C554 0.959 1_655 S
H543 C557 0.929 . S
H544 C558 0.931 . S
H545 C560 0.930 . S
C546 H534 0.930 . S
C546 C547 1.399 . S
C546 C551 1.399 . S
C547 C546 1.399 . S
C547 C548 1.376 . S
C548 H535 0.930 . S
C548 C547 1.376 . S
C548 C549 1.388 . S
C549 H536 0.930 . S
C549 C548 1.388 . S
C549 C550 1.390 . S
C550 C549 1.390 . S
C550 C551 1.394 . S
C550 C556 1.465 1_455 S
C551 C546 1.399 . S
C551 C550 1.394 . S
C551 C552 1.516 . S
C552 C551 1.516 . S
C552 C553 1.502 . S
C552 C554 1.561 . S
C552 C555 1.526 1_455 S
C553 H537 0.959 . S
C553 H538 0.959 . S
C553 H539 0.961 . S
C553 C552 1.502 . S
C554 H540 0.960 . S
C554 H541 0.961 1_455 S
C554 H542 0.959 1_455 S
C554 C552 1.561 . S
C555 C552 1.526 1_655 S
C555 C556 1.396 . S
C555 C560 1.390 . S
C556 C550 1.465 1_655 S
C556 C555 1.396 . S
C556 C557 1.399 . S
C557 H543 0.929 . S
C557 C556 1.399 . S
C557 C558 1.385 . S
C558 H544 0.931 . S
C558 C557 1.385 . S
C558 C559 1.389 . S
C559 C558 1.389 . S
C559 C560 1.387 . S
C560 H545 0.930 . S
C560 C555 1.390 . S
C560 C559 1.387 . S
H561 C573 0.930 . S
H562 C575 0.930 . S
H563 C576 0.930 . S
H564 C580 0.959 . S
H565 C580 0.959 . S
H566 C580 0.961 . S
H567 C581 0.960 . S
H568 C581 0.961 . S
H569 C581 0.959 . S
H570 C584 0.929 . S
H571 C585 0.931 . S
H572 C587 0.930 . S
C573 H561 0.930 . S
C573 C574 1.399 . S
C573 C578 1.399 . S
C574 C573 1.399 . S
C574 C575 1.376 . S
C575 H562 0.930 . S
C575 C574 1.376 . S
C575 C576 1.388 . S
C576 H563 0.930 . S
C576 C575 1.388 . S
C576 C577 1.390 . S
C577 C576 1.390 . S
C577 C578 1.394 . S
C577 C583 1.465 1_455 S
C578 C573 1.399 . S
C578 C577 1.394 . S
C578 C579 1.516 1_455 S
C579 C578 1.516 1_655 S
C579 C580 1.502 . S
C579 C581 1.561 1_655 S
C579 C582 1.526 . S
C580 H564 0.959 . S
C580 H565 0.959 . S
C580 H566 0.961 . S
C580 C579 1.502 . S
C581 H567 0.960 . S
C581 H568 0.961 . S
C581 H569 0.959 . S
C581 C579 1.561 1_455 S
C582 C579 1.526 . S
C582 C583 1.396 . S
C582 C587 1.390 . S
C583 C577 1.465 1_655 S
C583 C582 1.396 . S
C583 C584 1.399 . S
C584 H570 0.929 . S
C584 C583 1.399 . S
C584 C585 1.385 . S
C585 H571 0.931 . S
C585 C584 1.385 . S
C585 C586 1.389 . S
C586 C585 1.389 . S
C586 C587 1.387 . S
C587 H572 0.930 . S
C587 C582 1.390 . S
C587 C586 1.387 . S
H588 C600 0.930 . S
H589 C602 0.930 . S
H590 C603 0.930 . S
H591 C607 0.959 . S
H592 C607 0.959 . S
H593 C607 0.961 . S
H594 C608 0.960 . S
H595 C608 0.961 . S
H596 C608 0.959 . S
H597 C611 0.929 . S
H598 C612 0.931 . S
H599 C614 0.930 . S
C600 H588 0.930 . S
C600 C601 1.399 . S
C600 C605 1.399 . S
C601 C600 1.399 . S
C601 C602 1.376 . S
C602 H589 0.930 . S
C602 C601 1.376 . S
C602 C603 1.388 . S
C603 H590 0.930 . S
C603 C602 1.388 . S
C603 C604 1.390 . S
C604 C603 1.390 . S
C604 C605 1.394 . S
C604 C610 1.465 . S
C605 C600 1.399 . S
C605 C604 1.394 . S
C605 C606 1.516 . S
C606 C605 1.516 . S
C606 C607 1.502 . S
C606 C608 1.561 . S
C606 C609 1.526 . S
C607 H591 0.959 . S
C607 H592 0.959 . S
C607 H593 0.961 . S
C607 C606 1.502 . S
C608 H594 0.960 . S
C608 H595 0.961 . S
C608 H596 0.959 . S
C608 C606 1.561 . S
C609 C606 1.526 . S
C609 C610 1.396 . S
C609 C614 1.390 . S
C610 C604 1.465 . S
C610 C609 1.396 . S
C610 C611 1.399 . S
C611 H597 0.929 . S
C611 C610 1.399 . S
C611 C612 1.385 . S
C612 H598 0.931 . S
C612 C611 1.385 . S
C612 C613 1.389 . S
C613 C612 1.389 . S
C613 C614 1.387 . S
C614 H599 0.930 . S
C614 C609 1.390 . S
C614 C613 1.387 . S
H615 C627 0.930 . S
H616 C629 0.930 . S
H617 C630 0.930 . S
H618 C634 0.959 . S
H619 C634 0.959 . S
H620 C634 0.961 . S
H621 C635 0.960 . S
H622 C635 0.961 . S
H623 C635 0.959 . S
H624 C638 0.929 . S
H625 C639 0.931 . S
H626 C641 0.930 . S
C627 H615 0.930 . S
C627 C628 1.399 . S
C627 C632 1.399 . S
C628 C627 1.399 . S
C628 C629 1.376 . S
C629 H616 0.930 . S
C629 C628 1.376 . S
C629 C630 1.388 . S
C630 H617 0.930 . S
C630 C629 1.388 . S
C630 C631 1.390 . S
C631 C630 1.390 . S
C631 C632 1.394 . S
C631 C637 1.465 . S
C632 C627 1.399 . S
C632 C631 1.394 . S
C632 C633 1.516 . S
C633 C632 1.516 . S
C633 C634 1.502 . S
C633 C635 1.561 . S
C633 C636 1.526 . S
C634 H618 0.959 . S
C634 H619 0.959 . S
C634 H620 0.961 . S
C634 C633 1.502 . S
C635 H621 0.960 . S
C635 H622 0.961 . S
C635 H623 0.959 . S
C635 C633 1.561 . S
C636 C633 1.526 . S
C636 C637 1.396 . S
C636 C641 1.390 . S
C637 C631 1.465 . S
C637 C636 1.396 . S
C637 C638 1.399 . S
C638 H624 0.929 . S
C638 C637 1.399 . S
C638 C639 1.385 . S
C639 H625 0.931 . S
C639 C638 1.385 . S
C639 C640 1.389 . S
C640 C639 1.389 . S
C640 C641 1.387 . S
C641 H626 0.930 . S
C641 C636 1.390 . S
C641 C640 1.387 . S
H642 C654 0.930 . S
H643 C656 0.930 . S
H644 C657 0.930 . S
H645 C661 0.959 . S
H646 C661 0.959 1_655 S
H647 C661 0.961 . S
H648 C662 0.960 1_455 S
H649 C662 0.961 . S
H650 C662 0.959 . S
H651 C665 0.929 . S
H652 C666 0.931 . S
H653 C668 0.930 . S
C654 H642 0.930 . S
C654 C655 1.399 . S
C654 C659 1.399 . S
C655 C654 1.399 . S
C655 C656 1.376 . S
C656 H643 0.930 . S
C656 C655 1.376 . S
C656 C657 1.388 . S
C657 H644 0.930 . S
C657 C656 1.388 . S
C657 C658 1.390 . S
C658 C657 1.390 . S
C658 C659 1.394 . S
C658 C664 1.465 1_455 S
C659 C654 1.399 . S
C659 C658 1.394 . S
C659 C660 1.516 1_455 S
C660 C659 1.516 1_655 S
C660 C661 1.502 1_655 S
C660 C662 1.561 . S
C660 C663 1.526 . S
C661 H645 0.959 . S
C661 H646 0.959 1_455 S
C661 H647 0.961 . S
C661 C660 1.502 1_455 S
C662 H648 0.960 1_655 S
C662 H649 0.961 . S
C662 H650 0.959 . S
C662 C660 1.561 . S
C663 C660 1.526 . S
C663 C664 1.396 . S
C663 C668 1.390 . S
C664 C658 1.465 1_655 S
C664 C663 1.396 . S
C664 C665 1.399 . S
C665 H651 0.929 . S
C665 C664 1.399 . S
C665 C666 1.385 . S
C666 H652 0.931 . S
C666 C665 1.385 . S
C666 C667 1.389 . S
C667 C666 1.389 . S
C667 C668 1.387 . S
C668 H653 0.930 . S
C668 C663 1.390 . S
C668 C667 1.387 . S
H669 C681 0.930 . S
H670 C683 0.930 . S
H671 C684 0.930 . S
H672 C688 0.959 . S
H673 C688 0.959 . S
H674 C688 0.961 . S
H675 C689 0.960 . S
H676 C689 0.961 . S
H677 C689 0.959 . S
H678 C692 0.929 . S
H679 C693 0.931 . S
H680 C695 0.930 . S
C681 H669 0.930 . S
C681 C682 1.399 . S
C681 C686 1.399 . S
C682 C681 1.399 . S
C682 C683 1.376 . S
C683 H670 0.930 . S
C683 C682 1.376 . S
C683 C684 1.388 . S
C684 H671 0.930 . S
C684 C683 1.388 . S
C684 C685 1.390 . S
C685 C684 1.390 . S
C685 C686 1.394 . S
C685 C691 1.465 . S
C686 C681 1.399 . S
C686 C685 1.394 . S
C686 C687 1.516 1_455 S
C687 C686 1.516 1_655 S
C687 C688 1.502 . S
C687 C689 1.561 1_655 S
C687 C690 1.526 . S
C688 H672 0.959 . S
C688 H673 0.959 . S
C688 H674 0.961 . S
C688 C687 1.502 . S
C689 H675 0.960 . S
C689 H676 0.961 . S
C689 H677 0.959 . S
C689 C687 1.561 1_455 S
C690 C687 1.526 . S
C690 C691 1.396 1_655 S
C690 C695 1.390 . S
C691 C685 1.465 . S
C691 C690 1.396 1_455 S
C691 C692 1.399 . S
C692 H678 0.929 . S
C692 C691 1.399 . S
C692 C693 1.385 1_455 S
C693 H679 0.931 . S
C693 C692 1.385 1_655 S
C693 C694 1.389 . S
C694 C693 1.389 . S
C694 C695 1.387 . S
C695 H680 0.930 . S
C695 C690 1.390 . S
C695 C694 1.387 . S
H696 C708 0.930 . S
H697 C710 0.930 . S
H698 C711 0.930 . S
H699 C715 0.959 . S
H700 C715 0.959 . S
H701 C715 0.961 . S
H702 C716 0.960 . S
H703 C716 0.961 . S
H704 C716 0.959 . S
H705 C719 0.929 . S
H706 C720 0.931 . S
H707 C722 0.930 . S
C708 H696 0.930 . S
C708 C709 1.399 . S
C708 C713 1.399 . S
C709 C708 1.399 . S
C709 C710 1.376 . S
C710 H697 0.930 . S
C710 C709 1.376 . S
C710 C711 1.388 . S
C711 H698 0.930 . S
C711 C710 1.388 . S
C711 C712 1.390 . S
C712 C711 1.390 . S
C712 C713 1.394 . S
C712 C718 1.451 1_544 S
C713 C708 1.399 . S
C713 C712 1.394 . S
C713 C714 1.516 1_554 S
C714 C713 1.516 1_556 S
C714 C715 1.502 1_545 S
C714 C716 1.561 . S
C714 C717 1.526 1_545 S
C715 H699 0.959 . S
C715 H700 0.959 . S
C715 H701 0.961 . S
C715 C714 1.502 1_565 S
C716 H702 0.960 . S
C716 H703 0.961 . S
C716 H704 0.959 . S
C716 C714 1.561 . S
C717 C714 1.526 1_565 S
C717 C718 1.418 . S
C717 C722 1.390 . S
C718 C712 1.451 1_566 S
C718 C717 1.418 . S
C718 C719 1.394 1_556 S
C719 H705 0.929 . S
C719 C718 1.394 1_554 S
C719 C720 1.385 1_554 S
C720 H706 0.931 . S
C720 C719 1.385 1_556 S
C720 C721 1.389 . S
C721 C720 1.389 . S
C721 C722 1.387 . S
C722 H707 0.930 . S
C722 C717 1.390 . S
C722 C721 1.387 . S
H723 C735 0.930 . S
H724 C737 0.930 . S
H725 C738 0.930 . S
H726 C742 0.959 . S
H727 C742 0.959 . S
H728 C742 0.961 . S
H729 C743 0.960 . S
H730 C743 0.961 . S
H731 C743 0.959 . S
H732 C746 0.929 . S
H733 C747 0.931 . S
H734 C749 0.930 . S
C735 H723 0.930 . S
C735 C736 1.399 . S
C735 C740 1.399 . S
C736 C735 1.399 . S
C736 C737 1.376 . S
C737 H724 0.930 . S
C737 C736 1.376 . S
C737 C738 1.388 . S
C738 H725 0.930 . S
C738 C737 1.388 . S
C738 C739 1.390 . S
C739 C738 1.390 . S
C739 C740 1.394 . S
C739 C745 1.465 . S
C740 C735 1.399 . S
C740 C739 1.394 . S
C740 C741 1.516 . S
C741 C740 1.516 . S
C741 C742 1.502 . S
C741 C743 1.561 . S
C741 C744 1.526 . S
C742 H726 0.959 . S
C742 H727 0.959 . S
C742 H728 0.961 . S
C742 C741 1.502 . S
C743 H729 0.960 . S
C743 H730 0.961 . S
C743 H731 0.959 . S
C743 C741 1.561 . S
C744 C741 1.526 . S
C744 C745 1.396 . S
C744 C749 1.390 . S
C745 C739 1.465 . S
C745 C744 1.396 . S
C745 C746 1.399 . S
C746 H732 0.929 . S
C746 C745 1.399 . S
C746 C747 1.385 . S
C747 H733 0.931 . S
C747 C746 1.385 . S
C747 C748 1.389 . S
C748 C747 1.389 . S
C748 C749 1.387 . S
C749 H734 0.930 . S
C749 C744 1.390 . S
C749 C748 1.387 . S
H750 C762 0.930 . S
H751 C764 0.930 . S
H752 C765 0.930 . S
H753 C769 0.959 . S
H754 C769 0.959 . S
H755 C769 0.961 . S
H756 C770 0.960 . S
H757 C770 0.961 . S
H758 C770 0.959 . S
H759 C773 0.929 . S
H760 C774 0.931 . S
H761 C776 0.930 . S
C762 H750 0.930 . S
C762 C763 1.399 1_545 S
C762 C767 1.399 . S
C763 C762 1.399 1_565 S
C763 C764 1.376 . S
C764 H751 0.930 . S
C764 C763 1.376 . S
C764 C765 1.388 . S
C765 H752 0.930 . S
C765 C764 1.388 . S
C765 C766 1.390 . S
C766 C765 1.390 . S
C766 C767 1.394 1_565 S
C766 C772 1.465 1_455 S
C767 C762 1.399 . S
C767 C766 1.394 1_545 S
C767 C768 1.516 1_455 S
C768 C767 1.516 1_655 S
C768 C769 1.502 . S
C768 C770 1.561 1_655 S
C768 C771 1.526 . S
C769 H753 0.959 . S
C769 H754 0.959 . S
C769 H755 0.961 . S
C769 C768 1.502 . S
C770 H756 0.960 . S
C770 H757 0.961 . S
C770 H758 0.959 . S
C770 C768 1.561 1_455 S
C771 C768 1.526 . S
C771 C772 1.396 1_545 S
C771 C776 1.390 . S
C772 C766 1.465 1_655 S
C772 C771 1.396 1_565 S
C772 C773 1.399 . S
C773 H759 0.929 . S
C773 C772 1.399 . S
C773 C774 1.385 . S
C774 H760 0.931 . S
C774 C773 1.385 . S
C774 C775 1.389 1_565 S
C775 C774 1.389 1_545 S
C775 C776 1.387 . S
C776 H761 0.930 . S
C776 C771 1.390 . S
C776 C775 1.387 . S
H777 C789 0.930 . S
H778 C791 0.930 . S
H779 C792 0.930 . S
H780 C796 0.959 . S
H781 C796 0.959 . S
H782 C796 0.961 . S
H783 C797 0.960 . S
H784 C797 0.961 . S
H785 C797 0.959 . S
H786 C800 0.929 . S
H787 C801 0.931 . S
H788 C803 0.930 . S
C789 H777 0.930 . S
C789 C790 1.399 . S
C789 C794 1.399 . S
C790 C789 1.399 . S
C790 C791 1.376 . S
C791 H778 0.930 . S
C791 C790 1.376 . S
C791 C792 1.388 . S
C792 H779 0.930 . S
C792 C791 1.388 . S
C792 C793 1.390 . S
C793 C792 1.390 . S
C793 C794 1.394 . S
C793 C799 1.465 . S
C794 C789 1.399 . S
C794 C793 1.394 . S
C794 C795 1.516 . S
C795 C794 1.516 . S
C795 C796 1.502 . S
C795 C797 1.561 . S
C795 C798 1.526 . S
C796 H780 0.959 . S
C796 H781 0.959 . S
C796 H782 0.961 . S
C796 C795 1.502 . S
C797 H783 0.960 . S
C797 H784 0.961 . S
C797 H785 0.959 . S
C797 C795 1.561 . S
C798 C795 1.526 . S
C798 C799 1.396 . S
C798 C803 1.390 . S
C799 C793 1.465 . S
C799 C798 1.396 . S
C799 C800 1.399 . S
C800 H786 0.929 . S
C800 C799 1.399 . S
C800 C801 1.385 . S
C801 H787 0.931 . S
C801 C800 1.385 . S
C801 C802 1.389 . S
C802 C801 1.389 . S
C802 C803 1.387 . S
C803 H788 0.930 . S
C803 C798 1.390 . S
C803 C802 1.387 . S
H804 C816 0.930 . S
H805 C818 0.930 . S
H806 C819 0.930 . S
H807 C823 0.959 . S
H808 C823 0.959 . S
H809 C823 0.961 . S
H810 C824 0.960 . S
H811 C824 0.961 . S
H812 C824 0.959 . S
H813 C827 0.929 . S
H814 C828 0.931 . S
H815 C830 0.930 . S
C816 H804 0.930 . S
C816 C817 1.399 . S
C816 C821 1.399 . S
C817 C816 1.399 . S
C817 C818 1.376 . S
C818 H805 0.930 . S
C818 C817 1.376 . S
C818 C819 1.388 . S
C819 H806 0.930 . S
C819 C818 1.388 . S
C819 C820 1.390 . S
C820 C819 1.390 . S
C820 C821 1.394 . S
C820 C826 1.465 . S
C821 C816 1.399 . S
C821 C820 1.394 . S
C821 C822 1.516 . S
C822 C821 1.516 . S
C822 C823 1.502 . S
C822 C824 1.561 . S
C822 C825 1.526 . S
C823 H807 0.959 . S
C823 H808 0.959 . S
C823 H809 0.961 . S
C823 C822 1.502 . S
C824 H810 0.960 . S
C824 H811 0.961 . S
C824 H812 0.959 . S
C824 C822 1.561 . S
C825 C822 1.526 . S
C825 C826 1.396 . S
C825 C830 1.390 . S
C826 C820 1.465 . S
C826 C825 1.396 . S
C826 C827 1.399 . S
C827 H813 0.929 . S
C827 C826 1.399 . S
C827 C828 1.385 . S
C828 H814 0.931 . S
C828 C827 1.385 . S
C828 C829 1.389 . S
C829 C828 1.389 . S
C829 C830 1.387 . S
C830 H815 0.930 . S
C830 C825 1.390 . S
C830 C829 1.387 . S
H831 C843 0.930 . S
H832 C845 0.930 . S
H833 C846 0.930 . S
H834 C850 0.959 . S
H835 C850 0.959 . S
H836 C850 0.961 . S
H837 C851 0.960 . S
H838 C851 0.961 . S
H839 C851 0.959 . S
H840 C854 0.929 . S
H841 C855 0.931 . S
H842 C857 0.930 . S
C843 H831 0.930 . S
C843 C844 1.399 . S
C843 C848 1.399 . S
C844 C843 1.399 . S
C844 C845 1.376 . S
C845 H832 0.930 . S
C845 C844 1.376 . S
C845 C846 1.388 . S
C846 H833 0.930 . S
C846 C845 1.388 . S
C846 C847 1.390 . S
C847 C846 1.390 . S
C847 C848 1.394 . S
C847 C853 1.465 . S
C848 C843 1.399 . S
C848 C847 1.394 . S
C848 C849 1.516 . S
C849 C848 1.516 . S
C849 C850 1.502 . S
C849 C851 1.561 . S
C849 C852 1.526 . S
C850 H834 0.959 . S
C850 H835 0.959 . S
C850 H836 0.961 . S
C850 C849 1.502 . S
C851 H837 0.960 . S
C851 H838 0.961 . S
C851 H839 0.959 . S
C851 C849 1.561 . S
C852 C849 1.526 . S
C852 C853 1.396 . S
C852 C857 1.390 . S
C853 C847 1.465 . S
C853 C852 1.396 . S
C853 C854 1.399 . S
C854 H840 0.929 . S
C854 C853 1.399 . S
C854 C855 1.385 . S
C855 H841 0.931 . S
C855 C854 1.385 . S
C855 C856 1.389 . S
C856 C855 1.389 . S
C856 C857 1.387 . S
C857 H842 0.930 . S
C857 C852 1.390 . S
C857 C856 1.387 . S
H858 C870 0.930 . S
H859 C872 0.930 . S
H860 C873 0.930 . S
H861 C877 0.942 1_455 S
H862 C877 0.978 . S
H863 C877 0.953 1_455 S
H864 C878 0.960 . S
H865 C878 0.961 . S
H866 C878 0.959 . S
H867 C881 0.929 . S
H868 C882 0.931 . S
H869 C884 0.930 . S
C870 H858 0.930 . S
C870 C871 1.399 . S
C870 C875 1.399 . S
C871 C870 1.399 . S
C871 C872 1.376 . S
C872 H859 0.930 . S
C872 C871 1.376 . S
C872 C873 1.388 . S
C873 H860 0.930 . S
C873 C872 1.388 . S
C873 C874 1.390 . S
C874 C873 1.390 . S
C874 C875 1.394 . S
C874 C880 1.465 1_455 S
C875 C870 1.399 . S
C875 C874 1.394 . S
C875 C876 1.516 1_455 S
C876 C875 1.516 1_655 S
C876 C877 1.507 . S
C876 C878 1.561 . S
C876 C879 1.526 . S
C877 H861 0.942 1_655 S
C877 H862 0.978 . S
C877 H863 0.953 1_655 S
C877 C876 1.507 . S
C878 H864 0.960 . S
C878 H865 0.961 . S
C878 H866 0.959 . S
C878 C876 1.561 . S
C879 C876 1.526 . S
C879 C880 1.396 . S
C879 C884 1.390 . S
C880 C874 1.465 1_655 S
C880 C879 1.396 . S
C880 C881 1.399 . S
C881 H867 0.929 . S
C881 C880 1.399 . S
C881 C882 1.385 . S
C882 H868 0.931 . S
C882 C881 1.385 . S
C882 C883 1.389 . S
C883 C882 1.389 . S
C883 C884 1.387 . S
C884 H869 0.930 . S
C884 C879 1.390 . S
C884 C883 1.387 . S
H885 C897 0.930 . S
H886 C899 0.930 . S
H887 C900 0.930 . S
H888 C904 0.959 . S
H889 C904 0.959 . S
H890 C904 0.961 . S
H891 C905 0.960 . S
H892 C905 0.961 . S
H893 C905 0.959 . S
H894 C908 0.929 . S
H895 C909 0.931 . S
H896 C911 0.930 . S
C897 H885 0.930 . S
C897 C898 1.399 . S
C897 C902 1.399 . S
C898 C897 1.399 . S
C898 C899 1.376 . S
C899 H886 0.930 . S
C899 C898 1.376 . S
C899 C900 1.388 . S
C900 H887 0.930 . S
C900 C899 1.388 . S
C900 C901 1.390 . S
C901 C900 1.390 . S
C901 C902 1.394 . S
C901 C907 1.482 . S
C902 C897 1.399 . S
C902 C901 1.394 . S
C902 C903 1.516 1_554 S
C903 C902 1.516 1_556 S
C903 C904 1.502 . S
C903 C905 1.561 . S
C903 C906 1.526 . S
C904 H888 0.959 . S
C904 H889 0.959 . S
C904 H890 0.961 . S
C904 C903 1.502 . S
C905 H891 0.960 . S
C905 H892 0.961 . S
C905 H893 0.959 . S
C905 C903 1.561 . S
C906 C903 1.526 . S
C906 C907 1.377 1_556 S
C906 C911 1.390 . S
C907 C901 1.482 . S
C907 C906 1.377 1_554 S
C907 C908 1.399 . S
C908 H894 0.929 . S
C908 C907 1.399 . S
C908 C909 1.385 1_554 S
C909 H895 0.931 . S
C909 C908 1.385 1_556 S
C909 C910 1.389 . S
C910 C909 1.389 . S
C910 C911 1.387 . S
C911 H896 0.930 . S
C911 C906 1.390 . S
C911 C910 1.387 . S
H912 C924 0.930 . S
H913 C926 0.930 . S
H914 C927 0.930 . S
H915 C931 0.959 . S
H916 C931 0.959 . S
H917 C931 0.961 . S
H918 C932 0.960 . S
H919 C932 0.961 . S
H920 C932 0.959 . S
H921 C935 0.929 . S
H922 C936 0.931 . S
H923 C938 0.930 . S
C924 H912 0.930 . S
C924 C925 1.399 . S
C924 C929 1.399 . S
C925 C924 1.399 . S
C925 C926 1.376 . S
C926 H913 0.930 . S
C926 C925 1.376 . S
C926 C927 1.388 . S
C927 H914 0.930 . S
C927 C926 1.388 . S
C927 C928 1.390 . S
C928 C927 1.390 . S
C928 C929 1.394 . S
C928 C934 1.465 . S
C929 C924 1.399 . S
C929 C928 1.394 . S
C929 C930 1.516 . S
C930 C929 1.516 . S
C930 C931 1.502 . S
C930 C932 1.561 . S
C930 C933 1.526 . S
C931 H915 0.959 . S
C931 H916 0.959 . S
C931 H917 0.961 . S
C931 C930 1.502 . S
C932 H918 0.960 . S
C932 H919 0.961 . S
C932 H920 0.959 . S
C932 C930 1.561 . S
C933 C930 1.526 . S
C933 C934 1.396 . S
C933 C938 1.390 . S
C934 C928 1.465 . S
C934 C933 1.396 . S
C934 C935 1.399 . S
C935 H921 0.929 . S
C935 C934 1.399 . S
C935 C936 1.385 . S
C936 H922 0.931 . S
C936 C935 1.385 . S
C936 C937 1.389 . S
C937 C936 1.389 . S
C937 C938 1.387 . S
C938 H923 0.930 . S
C938 C933 1.390 . S
C938 C937 1.387 . S
H939 C951 0.930 . S
H940 C953 0.930 . S
H941 C954 0.930 . S
H942 C958 0.959 . S
H943 C958 0.959 . S
H944 C958 0.961 . S
H945 C959 0.960 . S
H946 C959 0.961 . S
H947 C959 0.959 . S
H948 C962 0.929 . S
H949 C963 0.931 . S
H950 C965 0.930 . S
C951 H939 0.930 . S
C951 C952 1.399 . S
C951 C956 1.399 . S
C952 C951 1.399 . S
C952 C953 1.376 . S
C953 H940 0.930 . S
C953 C952 1.376 . S
C953 C954 1.388 . S
C954 H941 0.930 . S
C954 C953 1.388 . S
C954 C955 1.390 . S
C955 C954 1.390 . S
C955 C956 1.394 . S
C955 C961 1.465 . S
C956 C951 1.399 . S
C956 C955 1.394 . S
C956 C957 1.516 . S
C957 C956 1.516 . S
C957 C958 1.502 . S
C957 C959 1.561 . S
C957 C960 1.526 . S
C958 H942 0.959 . S
C958 H943 0.959 . S
C958 H944 0.961 . S
C958 C957 1.502 . S
C959 H945 0.960 . S
C959 H946 0.961 . S
C959 H947 0.959 . S
C959 C957 1.561 . S
C960 C957 1.526 . S
C960 C961 1.396 . S
C960 C965 1.390 . S
C961 C955 1.465 . S
C961 C960 1.396 . S
C961 C962 1.399 . S
C962 H948 0.929 . S
C962 C961 1.399 . S
C962 C963 1.385 . S
C963 H949 0.931 . S
C963 C962 1.385 . S
C963 C964 1.389 . S
C964 C963 1.389 . S
C964 C965 1.387 . S
C965 H950 0.930 . S
C965 C960 1.390 . S
C965 C964 1.387 . S
H966 C978 0.930 . S
H967 C980 0.930 . S
H968 C981 0.930 . S
H969 C985 0.959 . S
H970 C985 0.959 . S
H971 C985 0.961 . S
H972 C986 0.960 . S
H973 C986 0.961 . S
H974 C986 0.959 . S
H975 C989 0.929 . S
H976 C990 0.931 . S
H977 C992 0.930 . S
C978 H966 0.930 . S
C978 C979 1.399 . S
C978 C983 1.399 . S
C979 C978 1.399 . S
C979 C980 1.376 . S
C980 H967 0.930 . S
C980 C979 1.376 . S
C980 C981 1.388 . S
C981 H968 0.930 . S
C981 C980 1.388 . S
C981 C982 1.390 . S
C982 C981 1.390 . S
C982 C983 1.394 . S
C982 C988 1.465 . S
C983 C978 1.399 . S
C983 C982 1.394 . S
C983 C984 1.516 . S
C984 C983 1.516 . S
C984 C985 1.502 . S
C984 C986 1.561 . S
C984 C987 1.526 . S
C985 H969 0.959 . S
C985 H970 0.959 . S
C985 H971 0.961 . S
C985 C984 1.502 . S
C986 H972 0.960 . S
C986 H973 0.961 . S
C986 H974 0.959 . S
C986 C984 1.561 . S
C987 C984 1.526 . S
C987 C988 1.396 . S
C987 C992 1.390 . S
C988 C982 1.465 . S
C988 C987 1.396 . S
C988 C989 1.399 . S
C989 H975 0.929 . S
C989 C988 1.399 . S
C989 C990 1.385 . S
C990 H976 0.931 . S
C990 C989 1.385 . S
C990 C991 1.389 . S
C991 C990 1.389 . S
C991 C992 1.387 . S
C992 H977 0.930 . S
C992 C987 1.390 . S
C992 C991 1.387 . S
H993 C1005 0.930 . S
H994 C1007 0.930 1_655 S
H995 C1008 0.930 . S
H996 C1012 0.959 . S
H997 C1012 0.959 . S
H998 C1012 0.961 . S
H999 C1013 0.960 . S
H1000 C1013 0.961 . S
H1001 C1013 0.959 . S
H1002 C1016 0.929 . S
H1003 C1017 0.931 . S
H1004 C1019 0.930 . S
C1005 H993 0.930 . S
C1005 C1006 1.399 . S
C1005 C1010 1.399 . S
C1006 C1005 1.399 . S
C1006 C1007 1.376 . S
C1007 H994 0.930 1_455 S
C1007 C1006 1.376 . S
C1007 C1008 1.388 . S
C1008 H995 0.930 . S
C1008 C1007 1.388 . S
C1008 C1009 1.390 . S
C1009 C1008 1.390 . S
C1009 C1010 1.394 . S
C1009 C1015 1.465 . S
C1010 C1005 1.399 . S
C1010 C1009 1.394 . S
C1010 C1011 1.516 . S
C1011 C1010 1.516 . S
C1011 C1012 1.502 . S
C1011 C1013 1.561 . S
C1011 C1014 1.526 . S
C1012 H996 0.959 . S
C1012 H997 0.959 . S
C1012 H998 0.961 . S
C1012 C1011 1.502 . S
C1013 H999 0.960 . S
C1013 H1000 0.961 . S
C1013 H1001 0.959 . S
C1013 C1011 1.561 . S
C1014 C1011 1.526 . S
C1014 C1015 1.396 . S
C1014 C1019 1.390 . S
C1015 C1009 1.465 . S
C1015 C1014 1.396 . S
C1015 C1016 1.399 . S
C1016 H1002 0.929 . S
C1016 C1015 1.399 . S
C1016 C1017 1.385 . S
C1017 H1003 0.931 . S
C1017 C1016 1.385 . S
C1017 C1018 1.389 . S
C1018 C1017 1.389 . S
C1018 C1019 1.387 . S
C1019 H1004 0.930 . S
C1019 C1014 1.390 . S
C1019 C1018 1.387 . S
H1020 C1032 0.930 . S
H1021 C1034 0.930 . S
H1022 C1035 0.930 . S
H1023 C1039 0.959 . S
H1024 C1039 0.959 . S
H1025 C1039 0.961 . S
H1026 C1040 0.960 . S
H1027 C1040 0.961 . S
H1028 C1040 0.959 . S
H1029 C1043 0.929 . S
H1030 C1044 0.931 . S
H1031 C1046 0.930 . S
C1032 H1020 0.930 . S
C1032 C1033 1.399 . S
C1032 C1037 1.399 . S
C1033 C1032 1.399 . S
C1033 C1034 1.376 . S
C1034 H1021 0.930 . S
C1034 C1033 1.376 . S
C1034 C1035 1.388 . S
C1035 H1022 0.930 . S
C1035 C1034 1.388 . S
C1035 C1036 1.390 . S
C1036 C1035 1.390 . S
C1036 C1037 1.394 . S
C1036 C1042 1.465 . S
C1037 C1032 1.399 . S
C1037 C1036 1.394 . S
C1037 C1038 1.516 . S
C1038 C1037 1.516 . S
C1038 C1039 1.502 . S
C1038 C1040 1.561 . S
C1038 C1041 1.526 . S
C1039 H1023 0.959 . S
C1039 H1024 0.959 . S
C1039 H1025 0.961 . S
C1039 C1038 1.502 . S
C1040 H1026 0.960 . S
C1040 H1027 0.961 . S
C1040 H1028 0.959 . S
C1040 C1038 1.561 . S
C1041 C1038 1.526 . S
C1041 C1042 1.396 . S
C1041 C1046 1.390 . S
C1042 C1036 1.465 . S
C1042 C1041 1.396 . S
C1042 C1043 1.399 . S
C1043 H1029 0.929 . S
C1043 C1042 1.399 . S
C1043 C1044 1.385 . S
C1044 H1030 0.931 . S
C1044 C1043 1.385 . S
C1044 C1045 1.389 . S
C1045 C1044 1.389 . S
C1045 C1046 1.387 . S
C1046 H1031 0.930 . S
C1046 C1041 1.390 . S
C1046 C1045 1.387 . S
H1047 C1059 0.930 . S
H1048 C1061 0.930 . S
H1049 C1062 0.930 . S
H1050 C1066 0.959 . S
H1051 C1066 0.959 . S
H1052 C1066 0.961 . S
H1053 C1067 0.960 . S
H1054 C1067 0.961 . S
H1055 C1067 0.959 . S
H1056 C1070 0.929 . S
H1057 C1071 0.931 . S
H1058 C1073 0.930 . S
C1059 H1047 0.930 . S
C1059 C1060 1.399 . S
C1059 C1064 1.399 . S
C1060 C1059 1.399 . S
C1060 C1061 1.376 . S
C1061 H1048 0.930 . S
C1061 C1060 1.376 . S
C1061 C1062 1.388 . S
C1062 H1049 0.930 . S
C1062 C1061 1.388 . S
C1062 C1063 1.390 . S
C1063 C1062 1.390 . S
C1063 C1064 1.394 . S
C1063 C1069 1.465 . S
C1064 C1059 1.399 . S
C1064 C1063 1.394 . S
C1064 C1065 1.516 . S
C1065 C1064 1.516 . S
C1065 C1066 1.502 . S
C1065 C1067 1.561 . S
C1065 C1068 1.526 . S
C1066 H1050 0.959 . S
C1066 H1051 0.959 . S
C1066 H1052 0.961 . S
C1066 C1065 1.502 . S
C1067 H1053 0.960 . S
C1067 H1054 0.961 . S
C1067 H1055 0.959 . S
C1067 C1065 1.561 . S
C1068 C1065 1.526 . S
C1068 C1069 1.396 . S
C1068 C1073 1.390 . S
C1069 C1063 1.465 . S
C1069 C1068 1.396 . S
C1069 C1070 1.399 . S
C1070 H1056 0.929 . S
C1070 C1069 1.399 . S
C1070 C1071 1.385 . S
C1071 H1057 0.931 . S
C1071 C1070 1.385 . S
C1071 C1072 1.389 . S
C1072 C1071 1.389 . S
C1072 C1073 1.387 . S
C1073 H1058 0.930 . S
C1073 C1068 1.390 . S
C1073 C1072 1.387 . S
H1074 C1086 0.930 . S
H1075 C1088 0.930 . S
H1076 C1089 0.930 . S
H1077 C1093 0.959 . S
H1078 C1093 0.959 . S
H1079 C1093 0.961 . S
H1080 C1094 0.960 . S
H1081 C1094 0.961 . S
H1082 C1094 0.959 . S
H1083 C1097 0.929 . S
H1084 C1098 0.931 . S
H1085 C1100 0.930 . S
C1086 H1074 0.930 . S
C1086 C1087 1.399 . S
C1086 C1091 1.399 . S
C1087 C1086 1.399 . S
C1087 C1088 1.376 . S
C1088 H1075 0.930 . S
C1088 C1087 1.376 . S
C1088 C1089 1.388 . S
C1089 H1076 0.930 . S
C1089 C1088 1.388 . S
C1089 C1090 1.390 . S
C1090 C1089 1.390 . S
C1090 C1091 1.394 . S
C1090 C1096 1.465 . S
C1091 C1086 1.399 . S
C1091 C1090 1.394 . S
C1091 C1092 1.516 . S
C1092 C1091 1.516 . S
C1092 C1093 1.502 . S
C1092 C1094 1.561 . S
C1092 C1095 1.526 . S
C1093 H1077 0.959 . S
C1093 H1078 0.959 . S
C1093 H1079 0.961 . S
C1093 C1092 1.502 . S
C1094 H1080 0.960 . S
C1094 H1081 0.961 . S
C1094 H1082 0.959 . S
C1094 C1092 1.561 . S
C1095 C1092 1.526 . S
C1095 C1096 1.396 . S
C1095 C1100 1.390 . S
C1096 C1090 1.465 . S
C1096 C1095 1.396 . S
C1096 C1097 1.399 . S
C1097 H1083 0.929 . S
C1097 C1096 1.399 . S
C1097 C1098 1.385 . S
C1098 H1084 0.931 . S
C1098 C1097 1.385 . S
C1098 C1099 1.389 . S
C1099 C1098 1.389 . S
C1099 C1100 1.387 . S
C1100 H1085 0.930 . S
C1100 C1095 1.390 . S
C1100 C1099 1.387 . S
H1101 C1113 0.930 . S
H1102 C1115 0.930 . S
H1103 C1116 0.930 . S
H1104 C1120 0.959 . S
H1105 C1120 0.959 . S
H1106 C1120 0.961 . S
H1107 C1121 0.960 . S
H1108 C1121 0.961 . S
H1109 C1121 0.959 . S
H1110 C1124 0.929 . S
H1111 C1125 0.931 1_455 S
H1112 C1127 0.930 . S
C1113 H1101 0.930 . S
C1113 C1114 1.399 . S
C1113 C1118 1.399 . S
C1114 C1113 1.399 . S
C1114 C1115 1.376 . S
C1115 H1102 0.930 . S
C1115 C1114 1.376 . S
C1115 C1116 1.388 . S
C1116 H1103 0.930 . S
C1116 C1115 1.388 . S
C1116 C1117 1.390 . S
C1117 C1116 1.390 . S
C1117 C1118 1.394 . S
C1117 C1123 1.465 . S
C1118 C1113 1.399 . S
C1118 C1117 1.394 . S
C1118 C1119 1.516 . S
C1119 C1118 1.516 . S
C1119 C1120 1.502 . S
C1119 C1121 1.561 . S
C1119 C1122 1.526 . S
C1120 H1104 0.959 . S
C1120 H1105 0.959 . S
C1120 H1106 0.961 . S
C1120 C1119 1.502 . S
C1121 H1107 0.960 . S
C1121 H1108 0.961 . S
C1121 H1109 0.959 . S
C1121 C1119 1.561 . S
C1122 C1119 1.526 . S
C1122 C1123 1.396 . S
C1122 C1127 1.390 . S
C1123 C1117 1.465 . S
C1123 C1122 1.396 . S
C1123 C1124 1.399 . S
C1124 H1110 0.929 . S
C1124 C1123 1.399 . S
C1124 C1125 1.385 . S
C1125 H1111 0.931 1_655 S
C1125 C1124 1.385 . S
C1125 C1126 1.389 . S
C1126 C1125 1.389 . S
C1126 C1127 1.387 . S
C1127 H1112 0.930 . S
C1127 C1122 1.390 . S
C1127 C1126 1.387 . S
H1128 C1140 0.930 . S
H1129 C1142 0.930 . S
H1130 C1143 0.930 . S
H1131 C1147 0.959 . S
H1132 C1147 0.959 . S
H1133 C1147 0.961 . S
H1134 C1148 0.960 . S
H1135 C1148 0.961 . S
H1136 C1148 0.959 . S
H1137 C1151 0.929 . S
H1138 C1152 0.931 . S
H1139 C1154 0.930 . S
C1140 H1128 0.930 . S
C1140 C1141 1.399 . S
C1140 C1145 1.399 . S
C1141 C1140 1.399 . S
C1141 C1142 1.376 . S
C1142 H1129 0.930 . S
C1142 C1141 1.376 . S
C1142 C1143 1.388 . S
C1143 H1130 0.930 . S
C1143 C1142 1.388 . S
C1143 C1144 1.390 . S
C1144 C1143 1.390 . S
C1144 C1145 1.394 . S
C1144 C1150 1.465 . S
C1145 C1140 1.399 . S
C1145 C1144 1.394 . S
C1145 C1146 1.516 . S
C1146 C1145 1.516 . S
C1146 C1147 1.502 . S
C1146 C1148 1.561 . S
C1146 C1149 1.526 . S
C1147 H1131 0.959 . S
C1147 H1132 0.959 . S
C1147 H1133 0.961 . S
C1147 C1146 1.502 . S
C1148 H1134 0.960 . S
C1148 H1135 0.961 . S
C1148 H1136 0.959 . S
C1148 C1146 1.561 . S
C1149 C1146 1.526 . S
C1149 C1150 1.396 . S
C1149 C1154 1.390 . S
C1150 C1144 1.465 . S
C1150 C1149 1.396 . S
C1150 C1151 1.399 . S
C1151 H1137 0.929 . S
C1151 C1150 1.399 . S
C1151 C1152 1.385 . S
C1152 H1138 0.931 . S
C1152 C1151 1.385 . S
C1152 C1153 1.389 . S
C1153 C1152 1.389 . S
C1153 C1154 1.387 . S
C1154 H1139 0.930 . S
C1154 C1149 1.390 . S
C1154 C1153 1.387 . S
H1155 C1167 0.930 . S
H1156 C1169 0.930 . S
H1157 C1170 0.930 1_545 S
H1158 C1174 0.959 . S
H1159 C1174 0.959 . S
H1160 C1174 0.961 . S
H1161 C1175 0.960 . S
H1162 C1175 0.961 . S
H1163 C1175 0.959 . S
H1164 C1178 0.929 . S
H1165 C1179 0.931 . S
H1166 C1181 0.930 . S
C1167 H1155 0.930 . S
C1167 C1168 1.399 . S
C1167 C1172 1.399 . S
C1168 C1167 1.399 . S
C1168 C1169 1.376 . S
C1169 H1156 0.930 . S
C1169 C1168 1.376 . S
C1169 C1170 1.388 . S
C1170 H1157 0.930 1_565 S
C1170 C1169 1.388 . S
C1170 C1171 1.390 . S
C1171 C1170 1.390 . S
C1171 C1172 1.394 . S
C1171 C1177 1.470 . S
C1172 C1167 1.399 . S
C1172 C1171 1.394 . S
C1172 C1173 1.516 . S
C1173 C1172 1.516 . S
C1173 C1174 1.502 . S
C1173 C1175 1.561 . S
C1173 C1176 1.526 . S
C1174 H1158 0.959 . S
C1174 H1159 0.959 . S
C1174 H1160 0.961 . S
C1174 C1173 1.502 . S
C1175 H1161 0.960 . S
C1175 H1162 0.961 . S
C1175 H1163 0.959 . S
C1175 C1173 1.561 . S
C1176 C1173 1.526 . S
C1176 C1177 1.405 . S
C1176 C1181 1.390 . S
C1177 C1171 1.470 . S
C1177 C1176 1.405 . S
C1177 C1178 1.387 1_565 S
C1178 H1164 0.929 . S
C1178 C1177 1.387 1_545 S
C1178 C1179 1.385 . S
C1179 H1165 0.931 . S
C1179 C1178 1.385 . S
C1179 C1180 1.389 . S
C1180 C1179 1.389 . S
C1180 C1181 1.387 1_545 S
C1181 H1166 0.930 . S
C1181 C1176 1.390 . S
C1181 C1180 1.387 1_565 S
H1182 C1194 0.930 1_565 S
H1183 C1196 0.930 . S
H1184 C1197 0.930 . S
H1185 C1201 0.959 . S
H1186 C1201 0.959 . S
H1187 C1201 0.961 . S
H1188 C1202 0.960 . S
H1189 C1202 0.961 . S
H1190 C1202 0.959 . S
H1191 C1205 0.929 . S
H1192 C1206 0.931 . S
H1193 C1208 0.930 . S
C1194 H1182 0.930 1_545 S
C1194 C1195 1.399 . S
C1194 C1199 1.399 . S
C1195 C1194 1.399 . S
C1195 C1196 1.376 . S
C1196 H1183 0.930 . S
C1196 C1195 1.376 . S
C1196 C1197 1.388 . S
C1197 H1184 0.930 . S
C1197 C1196 1.388 . S
C1197 C1198 1.390 . S
C1198 C1197 1.390 . S
C1198 C1199 1.394 . S
C1198 C1204 1.465 . S
C1199 C1194 1.399 . S
C1199 C1198 1.394 . S
C1199 C1200 1.516 . S
C1200 C1199 1.516 . S
C1200 C1201 1.502 . S
C1200 C1202 1.561 . S
C1200 C1203 1.526 . S
C1201 H1185 0.959 . S
C1201 H1186 0.959 . S
C1201 H1187 0.961 . S
C1201 C1200 1.502 . S
C1202 H1188 0.960 . S
C1202 H1189 0.961 . S
C1202 H1190 0.959 . S
C1202 C1200 1.561 . S
C1203 C1200 1.526 . S
C1203 C1204 1.396 . S
C1203 C1208 1.390 . S
C1204 C1198 1.465 . S
C1204 C1203 1.396 . S
C1204 C1205 1.399 . S
C1205 H1191 0.929 . S
C1205 C1204 1.399 . S
C1205 C1206 1.385 . S
C1206 H1192 0.931 . S
C1206 C1205 1.385 . S
C1206 C1207 1.389 . S
C1207 C1206 1.389 . S
C1207 C1208 1.387 . S
C1208 H1193 0.930 . S
C1208 C1203 1.390 . S
C1208 C1207 1.387 . S
H1209 C1221 0.930 . S
H1210 C1223 0.930 . S
H1211 C1224 0.930 . S
H1212 C1228 0.959 . S
H1213 C1228 0.959 . S
H1214 C1228 0.961 . S
H1215 C1229 0.960 . S
H1216 C1229 0.961 . S
H1217 C1229 0.959 1_565 S
H1218 C1232 0.929 . S
H1219 C1233 0.931 . S
H1220 C1235 0.930 . S
C1221 H1209 0.930 . S
C1221 C1222 1.399 . S
C1221 C1226 1.399 . S
C1222 C1221 1.399 . S
C1222 C1223 1.376 . S
C1223 H1210 0.930 . S
C1223 C1222 1.376 . S
C1223 C1224 1.388 . S
C1224 H1211 0.930 . S
C1224 C1223 1.388 . S
C1224 C1225 1.390 . S
C1225 C1224 1.390 . S
C1225 C1226 1.394 . S
C1225 C1231 1.465 . S
C1226 C1221 1.399 . S
C1226 C1225 1.394 . S
C1226 C1227 1.516 . S
C1227 C1226 1.516 . S
C1227 C1228 1.502 . S
C1227 C1229 1.561 . S
C1227 C1230 1.526 . S
C1228 H1212 0.959 . S
C1228 H1213 0.959 . S
C1228 H1214 0.961 . S
C1228 C1227 1.502 . S
C1229 H1215 0.960 . S
C1229 H1216 0.961 . S
C1229 H1217 0.959 1_545 S
C1229 C1227 1.561 . S
C1230 C1227 1.526 . S
C1230 C1231 1.396 . S
C1230 C1235 1.390 . S
C1231 C1225 1.465 . S
C1231 C1230 1.396 . S
C1231 C1232 1.399 1_545 S
C1232 H1218 0.929 . S
C1232 C1231 1.399 1_565 S
C1232 C1233 1.385 . S
C1233 H1219 0.931 . S
C1233 C1232 1.385 . S
C1233 C1234 1.389 . S
C1234 C1233 1.389 . S
C1234 C1235 1.387 1_565 S
C1235 H1220 0.930 . S
C1235 C1230 1.390 . S
C1235 C1234 1.387 1_545 S
H1236 C1248 0.930 . S
H1237 C1250 0.930 . S
H1238 C1251 0.930 . S
H1239 C1255 0.959 . S
H1240 C1255 0.959 . S
H1241 C1255 0.961 . S
H1242 C1256 0.960 . S
H1243 C1256 0.961 . S
H1244 C1256 0.959 . S
H1245 C1259 0.929 . S
H1246 C1260 0.931 . S
H1247 C1262 0.930 . S
C1248 H1236 0.930 . S
C1248 C1249 1.399 . S
C1248 C1253 1.399 . S
C1249 C1248 1.399 . S
C1249 C1250 1.376 . S
C1250 H1237 0.930 . S
C1250 C1249 1.376 . S
C1250 C1251 1.388 . S
C1251 H1238 0.930 . S
C1251 C1250 1.388 . S
C1251 C1252 1.390 . S
C1252 C1251 1.390 . S
C1252 C1253 1.394 . S
C1252 C1258 1.465 . S
C1253 C1248 1.399 . S
C1253 C1252 1.394 . S
C1253 C1254 1.516 . S
C1254 C1253 1.516 . S
C1254 C1255 1.502 . S
C1254 C1256 1.561 . S
C1254 C1257 1.526 . S
C1255 H1239 0.959 . S
C1255 H1240 0.959 . S
C1255 H1241 0.961 . S
C1255 C1254 1.502 . S
C1256 H1242 0.960 . S
C1256 H1243 0.961 . S
C1256 H1244 0.959 . S
C1256 C1254 1.561 . S
C1257 C1254 1.526 . S
C1257 C1258 1.396 . S
C1257 C1262 1.390 . S
C1258 C1252 1.465 . S
C1258 C1257 1.396 . S
C1258 C1259 1.399 . S
C1259 H1245 0.929 . S
C1259 C1258 1.399 . S
C1259 C1260 1.385 . S
C1260 H1246 0.931 . S
C1260 C1259 1.385 . S
C1260 C1261 1.389 . S
C1261 C1260 1.389 . S
C1261 C1262 1.387 . S
C1262 H1247 0.930 . S
C1262 C1257 1.390 . S
C1262 C1261 1.387 . S
H1263 C1275 0.930 . S
H1264 C1277 0.930 . S
H1265 C1278 0.930 . S
H1266 C1282 0.959 . S
H1267 C1282 0.959 . S
H1268 C1282 0.961 . S
H1269 C1283 0.960 . S
H1270 C1283 0.961 . S
H1271 C1283 0.959 . S
H1272 C1286 0.929 1_565 S
H1273 C1287 0.931 . S
H1274 C1289 0.930 . S
C1275 H1263 0.930 . S
C1275 C1276 1.399 1_545 S
C1275 C1280 1.399 . S
C1276 C1275 1.399 1_565 S
C1276 C1277 1.376 . S
C1277 H1264 0.930 . S
C1277 C1276 1.376 . S
C1277 C1278 1.388 . S
C1278 H1265 0.930 . S
C1278 C1277 1.388 . S
C1278 C1279 1.381 1_565 S
C1279 C1278 1.381 1_545 S
C1279 C1280 1.400 . S
C1279 C1285 1.470 . S
C1280 C1275 1.399 . S
C1280 C1279 1.400 . S
C1280 C1281 1.516 . S
C1281 C1280 1.516 . S
C1281 C1282 1.502 . S
C1281 C1283 1.561 . S
C1281 C1284 1.526 . S
C1282 H1266 0.959 . S
C1282 H1267 0.959 . S
C1282 H1268 0.961 . S
C1282 C1281 1.502 . S
C1283 H1269 0.960 . S
C1283 H1270 0.961 . S
C1283 H1271 0.959 . S
C1283 C1281 1.561 . S
C1284 C1281 1.526 . S
C1284 C1285 1.396 . S
C1284 C1289 1.390 . S
C1285 C1279 1.470 . S
C1285 C1284 1.396 . S
C1285 C1286 1.399 . S
C1286 H1272 0.929 1_545 S
C1286 C1285 1.399 . S
C1286 C1287 1.385 . S
C1287 H1273 0.931 . S
C1287 C1286 1.385 . S
C1287 C1288 1.389 . S
C1288 C1287 1.389 . S
C1288 C1289 1.387 . S
C1289 H1274 0.930 . S
C1289 C1284 1.390 . S
C1289 C1288 1.387 . S
H1290 C1302 0.930 . S
H1291 C1304 0.930 1_545 S
H1292 C1305 0.930 . S
H1293 C1309 0.959 . S
H1294 C1309 0.959 . S
H1295 C1309 0.961 . S
H1296 C1310 0.960 . S
H1297 C1310 0.961 . S
H1298 C1310 0.959 . S
H1299 C1313 0.929 . S
H1300 C1314 0.931 . S
H1301 C1316 0.930 . S
C1302 H1290 0.930 . S
C1302 C1303 1.399 . S
C1302 C1307 1.399 . S
C1303 C1302 1.399 . S
C1303 C1304 1.376 . S
C1304 H1291 0.930 1_565 S
C1304 C1303 1.376 . S
C1304 C1305 1.388 . S
C1305 H1292 0.930 . S
C1305 C1304 1.388 . S
C1305 C1306 1.390 . S
C1306 C1305 1.390 . S
C1306 C1307 1.394 . S
C1306 C1312 1.465 . S
C1307 C1302 1.399 . S
C1307 C1306 1.394 . S
C1307 C1308 1.516 . S
C1308 C1307 1.516 . S
C1308 C1309 1.502 . S
C1308 C1310 1.561 . S
C1308 C1311 1.526 . S
C1309 H1293 0.959 . S
C1309 H1294 0.959 . S
C1309 H1295 0.961 . S
C1309 C1308 1.502 . S
C1310 H1296 0.960 . S
C1310 H1297 0.961 . S
C1310 H1298 0.959 . S
C1310 C1308 1.561 . S
C1311 C1308 1.526 . S
C1311 C1312 1.396 . S
C1311 C1316 1.390 . S
C1312 C1306 1.465 . S
C1312 C1311 1.396 . S
C1312 C1313 1.399 . S
C1313 H1299 0.929 . S
C1313 C1312 1.399 . S
C1313 C1314 1.385 . S
C1314 H1300 0.931 . S
C1314 C1313 1.385 . S
C1314 C1315 1.389 . S
C1315 C1314 1.389 . S
C1315 C1316 1.387 . S
C1316 H1301 0.930 . S
C1316 C1311 1.390 . S
C1316 C1315 1.387 . S
H1317 C1329 0.930 . S
H1318 C1331 0.930 . S
H1319 C1332 0.930 . S
H1320 C1336 0.959 . S
H1321 C1336 0.959 . S
H1322 C1336 0.961 1_545 S
H1323 C1337 0.960 . S
H1324 C1337 0.961 . S
H1325 C1337 0.959 . S
H1326 C1340 0.929 . S
H1327 C1341 0.931 . S
H1328 C1343 0.930 . S
C1329 H1317 0.930 . S
C1329 C1330 1.399 . S
C1329 C1334 1.399 1_545 S
C1330 C1329 1.399 . S
C1330 C1331 1.376 1_545 S
C1331 H1318 0.930 . S
C1331 C1330 1.376 1_565 S
C1331 C1332 1.388 . S
C1332 H1319 0.930 . S
C1332 C1331 1.388 . S
C1332 C1333 1.390 . S
C1333 C1332 1.390 . S
C1333 C1334 1.394 . S
C1333 C1339 1.465 . S
C1334 C1329 1.399 1_565 S
C1334 C1333 1.394 . S
C1334 C1335 1.516 . S
C1335 C1334 1.516 . S
C1335 C1336 1.502 . S
C1335 C1337 1.561 1_565 S
C1335 C1338 1.526 . S
C1336 H1320 0.959 . S
C1336 H1321 0.959 . S
C1336 H1322 0.961 1_565 S
C1336 C1335 1.502 . S
C1337 H1323 0.960 . S
C1337 H1324 0.961 . S
C1337 H1325 0.959 . S
C1337 C1335 1.561 1_545 S
C1338 C1335 1.526 . S
C1338 C1339 1.396 . S
C1338 C1343 1.390 . S
C1339 C1333 1.465 . S
C1339 C1338 1.396 . S
C1339 C1340 1.399 . S
C1340 H1326 0.929 . S
C1340 C1339 1.399 . S
C1340 C1341 1.385 . S
C1341 H1327 0.931 . S
C1341 C1340 1.385 . S
C1341 C1342 1.389 . S
C1342 C1341 1.389 . S
C1342 C1343 1.387 . S
C1343 H1328 0.930 . S
C1343 C1338 1.390 . S
C1343 C1342 1.387 . S
H1344 C1356 0.930 . S
H1345 C1358 0.930 . S
H1346 C1359 0.930 . S
H1347 C1363 0.959 . S
H1348 C1363 0.959 . S
H1349 C1363 0.961 . S
H1350 C1364 0.960 . S
H1351 C1364 0.961 . S
H1352 C1364 0.959 . S
H1353 C1367 0.929 . S
H1354 C1368 0.931 . S
H1355 C1370 0.930 . S
C1356 H1344 0.930 . S
C1356 C1357 1.399 . S
C1356 C1361 1.399 . S
C1357 C1356 1.399 . S
C1357 C1358 1.376 . S
C1358 H1345 0.930 . S
C1358 C1357 1.376 . S
C1358 C1359 1.388 . S
C1359 H1346 0.930 . S
C1359 C1358 1.388 . S
C1359 C1360 1.390 . S
C1360 C1359 1.390 . S
C1360 C1361 1.394 . S
C1360 C1366 1.465 . S
C1361 C1356 1.399 . S
C1361 C1360 1.394 . S
C1361 C1362 1.516 . S
C1362 C1361 1.516 . S
C1362 C1363 1.502 . S
C1362 C1364 1.561 . S
C1362 C1365 1.526 . S
C1363 H1347 0.959 . S
C1363 H1348 0.959 . S
C1363 H1349 0.961 . S
C1363 C1362 1.502 . S
C1364 H1350 0.960 . S
C1364 H1351 0.961 . S
C1364 H1352 0.959 . S
C1364 C1362 1.561 . S
C1365 C1362 1.526 . S
C1365 C1366 1.396 . S
C1365 C1370 1.390 . S
C1366 C1360 1.465 . S
C1366 C1365 1.396 . S
C1366 C1367 1.399 . S
C1367 H1353 0.929 . S
C1367 C1366 1.399 . S
C1367 C1368 1.385 . S
C1368 H1354 0.931 . S
C1368 C1367 1.385 . S
C1368 C1369 1.389 . S
C1369 C1368 1.389 . S
C1369 C1370 1.387 . S
C1370 H1355 0.930 . S
C1370 C1365 1.390 . S
C1370 C1369 1.387 . S
H1371 C1383 0.930 . S
H1372 C1385 0.930 . S
H1373 C1386 0.930 . S
H1374 C1390 0.959 . S
H1375 C1390 0.959 . S
H1376 C1390 0.961 . S
H1377 C1391 0.960 . S
H1378 C1391 0.961 . S
H1379 C1391 0.959 . S
H1380 C1394 0.929 . S
H1381 C1395 0.931 . S
H1382 C1397 0.930 . S
C1383 H1371 0.930 . S
C1383 C1384 1.399 . S
C1383 C1388 1.399 . S
C1384 C1383 1.399 . S
C1384 C1385 1.376 . S
C1385 H1372 0.930 . S
C1385 C1384 1.376 . S
C1385 C1386 1.388 . S
C1386 H1373 0.930 . S
C1386 C1385 1.388 . S
C1386 C1387 1.390 . S
C1387 C1386 1.390 . S
C1387 C1388 1.394 . S
C1387 C1393 1.465 . S
C1388 C1383 1.399 . S
C1388 C1387 1.394 . S
C1388 C1389 1.516 . S
C1389 C1388 1.516 . S
C1389 C1390 1.502 . S
C1389 C1391 1.561 . S
C1389 C1392 1.526 . S
C1390 H1374 0.959 . S
C1390 H1375 0.959 . S
C1390 H1376 0.961 . S
C1390 C1389 1.502 . S
C1391 H1377 0.960 . S
C1391 H1378 0.961 . S
C1391 H1379 0.959 . S
C1391 C1389 1.561 . S
C1392 C1389 1.526 . S
C1392 C1393 1.396 . S
C1392 C1397 1.390 . S
C1393 C1387 1.465 . S
C1393 C1392 1.396 . S
C1393 C1394 1.399 . S
C1394 H1380 0.929 . S
C1394 C1393 1.399 . S
C1394 C1395 1.385 . S
C1395 H1381 0.931 . S
C1395 C1394 1.385 . S
C1395 C1396 1.389 . S
C1396 C1395 1.389 . S
C1396 C1397 1.387 . S
C1397 H1382 0.930 . S
C1397 C1392 1.390 . S
C1397 C1396 1.387 . S
H1398 C1410 0.930 . S
H1399 C1412 0.930 . S
H1400 C1413 0.930 . S
H1401 C1417 0.959 . S
H1402 C1417 0.959 . S
H1403 C1417 0.961 . S
H1404 C1418 0.960 . S
H1405 C1418 0.961 . S
H1406 C1418 0.959 . S
H1407 C1421 0.929 . S
H1408 C1422 0.931 . S
H1409 C1424 0.930 . S
C1410 H1398 0.930 . S
C1410 C1411 1.399 . S
C1410 C1415 1.399 . S
C1411 C1410 1.399 . S
C1411 C1412 1.376 . S
C1412 H1399 0.930 . S
C1412 C1411 1.376 . S
C1412 C1413 1.388 . S
C1413 H1400 0.930 . S
C1413 C1412 1.388 . S
C1413 C1414 1.390 . S
C1414 C1413 1.390 . S
C1414 C1415 1.394 . S
C1414 C1420 1.465 . S
C1415 C1410 1.399 . S
C1415 C1414 1.394 . S
C1415 C1416 1.516 . S
C1416 C1415 1.516 . S
C1416 C1417 1.502 . S
C1416 C1418 1.561 . S
C1416 C1419 1.526 . S
C1417 H1401 0.959 . S
C1417 H1402 0.959 . S
C1417 H1403 0.961 . S
C1417 C1416 1.502 . S
C1418 H1404 0.960 . S
C1418 H1405 0.961 . S
C1418 H1406 0.959 . S
C1418 C1416 1.561 . S
C1419 C1416 1.526 . S
C1419 C1420 1.396 . S
C1419 C1424 1.390 . S
C1420 C1414 1.465 . S
C1420 C1419 1.396 . S
C1420 C1421 1.399 . S
C1421 H1407 0.929 . S
C1421 C1420 1.399 . S
C1421 C1422 1.385 . S
C1422 H1408 0.931 . S
C1422 C1421 1.385 . S
C1422 C1423 1.389 . S
C1423 C1422 1.389 . S
C1423 C1424 1.387 . S
C1424 H1409 0.930 . S
C1424 C1419 1.390 . S
C1424 C1423 1.387 . S
H1425 C1437 0.930 . S
H1426 C1439 0.930 . S
H1427 C1440 0.930 . S
H1428 C1444 0.959 . S
H1429 C1444 0.959 . S
H1430 C1444 0.961 . S
H1431 C1445 0.960 . S
H1432 C1445 0.961 . S
H1433 C1445 0.959 . S
H1434 C1448 0.929 . S
H1435 C1449 0.931 . S
H1436 C1451 0.930 . S
C1437 H1425 0.930 . S
C1437 C1438 1.399 . S
C1437 C1442 1.399 . S
C1438 C1437 1.399 . S
C1438 C1439 1.376 . S
C1439 H1426 0.930 . S
C1439 C1438 1.376 . S
C1439 C1440 1.388 . S
C1440 H1427 0.930 . S
C1440 C1439 1.388 . S
C1440 C1441 1.390 . S
C1441 C1440 1.390 . S
C1441 C1442 1.394 . S
C1441 C1447 1.465 . S
C1442 C1437 1.399 . S
C1442 C1441 1.394 . S
C1442 C1443 1.516 . S
C1443 C1442 1.516 . S
C1443 C1444 1.502 . S
C1443 C1445 1.561 . S
C1443 C1446 1.526 . S
C1444 H1428 0.959 . S
C1444 H1429 0.959 . S
C1444 H1430 0.961 . S
C1444 C1443 1.502 . S
C1445 H1431 0.960 . S
C1445 H1432 0.961 . S
C1445 H1433 0.959 . S
C1445 C1443 1.561 . S
C1446 C1443 1.526 . S
C1446 C1447 1.396 . S
C1446 C1451 1.390 . S
C1447 C1441 1.465 . S
C1447 C1446 1.396 . S
C1447 C1448 1.399 . S
C1448 H1434 0.929 . S
C1448 C1447 1.399 . S
C1448 C1449 1.385 . S
C1449 H1435 0.931 . S
C1449 C1448 1.385 . S
C1449 C1450 1.389 . S
C1450 C1449 1.389 . S
C1450 C1451 1.387 . S
C1451 H1436 0.930 . S
C1451 C1446 1.390 . S
C1451 C1450 1.387 . S
H1452 C1464 0.930 . S
H1453 C1466 0.930 . S
H1454 C1467 0.930 . S
H1455 C1471 0.959 . S
H1456 C1471 0.959 . S
H1457 C1471 0.961 . S
H1458 C1472 0.960 . S
H1459 C1472 0.961 . S
H1460 C1472 0.959 . S
H1461 C1475 0.929 . S
H1462 C1476 0.931 . S
H1463 C1478 0.930 . S
C1464 H1452 0.930 . S
C1464 C1465 1.399 . S
C1464 C1469 1.399 . S
C1465 C1464 1.399 . S
C1465 C1466 1.376 . S
C1466 H1453 0.930 . S
C1466 C1465 1.376 . S
C1466 C1467 1.388 . S
C1467 H1454 0.930 . S
C1467 C1466 1.388 . S
C1467 C1468 1.390 . S
C1468 C1467 1.390 . S
C1468 C1469 1.394 . S
C1468 C1474 1.465 . S
C1469 C1464 1.399 . S
C1469 C1468 1.394 . S
C1469 C1470 1.516 . S
C1470 C1469 1.516 . S
C1470 C1471 1.502 . S
C1470 C1472 1.561 . S
C1470 C1473 1.526 . S
C1471 H1455 0.959 . S
C1471 H1456 0.959 . S
C1471 H1457 0.961 . S
C1471 C1470 1.502 . S
C1472 H1458 0.960 . S
C1472 H1459 0.961 . S
C1472 H1460 0.959 . S
C1472 C1470 1.561 . S
C1473 C1470 1.526 . S
C1473 C1474 1.396 . S
C1473 C1478 1.390 . S
C1474 C1468 1.465 . S
C1474 C1473 1.396 . S
C1474 C1475 1.399 . S
C1475 H1461 0.929 . S
C1475 C1474 1.399 . S
C1475 C1476 1.385 . S
C1476 H1462 0.931 . S
C1476 C1475 1.385 . S
C1476 C1477 1.389 . S
C1477 C1476 1.389 . S
C1477 C1478 1.387 . S
C1478 H1463 0.930 . S
C1478 C1473 1.390 . S
C1478 C1477 1.387 . S
H1479 C1491 0.930 . S
H1480 C1493 0.930 . S
H1481 C1494 0.930 . S
H1482 C1498 0.959 . S
H1483 C1498 0.959 . S
H1484 C1498 0.961 . S
H1485 C1499 0.960 . S
H1486 C1499 0.961 . S
H1487 C1499 0.959 . S
H1488 C1502 0.929 . S
H1489 C1503 0.931 . S
H1490 C1505 0.930 . S
C1491 H1479 0.930 . S
C1491 C1492 1.399 . S
C1491 C1496 1.399 . S
C1492 C1491 1.399 . S
C1492 C1493 1.376 . S
C1493 H1480 0.930 . S
C1493 C1492 1.376 . S
C1493 C1494 1.388 . S
C1494 H1481 0.930 . S
C1494 C1493 1.388 . S
C1494 C1495 1.390 . S
C1495 C1494 1.390 . S
C1495 C1496 1.394 . S
C1495 C1501 1.465 . S
C1496 C1491 1.399 . S
C1496 C1495 1.394 . S
C1496 C1497 1.516 . S
C1497 C1496 1.516 . S
C1497 C1498 1.502 . S
C1497 C1499 1.561 . S
C1497 C1500 1.526 . S
C1498 H1482 0.959 . S
C1498 H1483 0.959 . S
C1498 H1484 0.961 . S
C1498 C1497 1.502 . S
C1499 H1485 0.960 . S
C1499 H1486 0.961 . S
C1499 H1487 0.959 . S
C1499 C1497 1.561 . S
C1500 C1497 1.526 . S
C1500 C1501 1.396 . S
C1500 C1505 1.390 . S
C1501 C1495 1.465 . S
C1501 C1500 1.396 . S
C1501 C1502 1.399 . S
C1502 H1488 0.929 . S
C1502 C1501 1.399 . S
C1502 C1503 1.385 . S
C1503 H1489 0.931 . S
C1503 C1502 1.385 . S
C1503 C1504 1.389 . S
C1504 C1503 1.389 . S
C1504 C1505 1.387 . S
C1505 H1490 0.930 . S
C1505 C1500 1.390 . S
C1505 C1504 1.387 . S
H1506 C1518 0.930 . S
H1507 C1520 0.930 . S
H1508 C1521 0.930 . S
H1509 C1525 0.959 . S
H1510 C1525 0.959 . S
H1511 C1525 0.961 . S
H1512 C1526 0.960 . S
H1513 C1526 0.961 . S
H1514 C1526 0.959 . S
H1515 C1529 0.929 . S
H1516 C1530 0.931 . S
H1517 C1532 0.930 . S
C1518 H1506 0.930 . S
C1518 C1519 1.399 . S
C1518 C1523 1.399 . S
C1519 C1518 1.399 . S
C1519 C1520 1.376 . S
C1520 H1507 0.930 . S
C1520 C1519 1.376 . S
C1520 C1521 1.388 . S
C1521 H1508 0.930 . S
C1521 C1520 1.388 . S
C1521 C1522 1.390 . S
C1522 C1521 1.390 . S
C1522 C1523 1.394 . S
C1522 C1528 1.465 . S
C1523 C1518 1.399 . S
C1523 C1522 1.394 . S
C1523 C1524 1.516 . S
C1524 C1523 1.516 . S
C1524 C1525 1.502 . S
C1524 C1526 1.561 . S
C1524 C1527 1.526 . S
C1525 H1509 0.959 . S
C1525 H1510 0.959 . S
C1525 H1511 0.961 . S
C1525 C1524 1.502 . S
C1526 H1512 0.960 . S
C1526 H1513 0.961 . S
C1526 H1514 0.959 . S
C1526 C1524 1.561 . S
C1527 C1524 1.526 . S
C1527 C1528 1.396 . S
C1527 C1532 1.390 . S
C1528 C1522 1.465 . S
C1528 C1527 1.396 . S
C1528 C1529 1.399 . S
C1529 H1515 0.929 . S
C1529 C1528 1.399 . S
C1529 C1530 1.385 . S
C1530 H1516 0.931 . S
C1530 C1529 1.385 . S
C1530 C1531 1.389 . S
C1531 C1530 1.389 . S
C1531 C1532 1.387 . S
C1532 H1517 0.930 . S
C1532 C1527 1.390 . S
C1532 C1531 1.387 . S
H1533 C1545 0.930 . S
H1534 C1547 0.930 . S
H1535 C1548 0.930 . S
H1536 C1552 0.959 . S
H1537 C1552 0.959 . S
H1538 C1552 0.961 . S
H1539 C1553 0.960 . S
H1540 C1553 0.961 . S
H1541 C1553 0.959 . S
H1542 C1556 0.929 . S
H1543 C1557 0.931 . S
H1544 C1559 0.930 . S
C1545 H1533 0.930 . S
C1545 C1546 1.399 . S
C1545 C1550 1.399 . S
C1546 C1545 1.399 . S
C1546 C1547 1.376 . S
C1547 H1534 0.930 . S
C1547 C1546 1.376 . S
C1547 C1548 1.388 . S
C1548 H1535 0.930 . S
C1548 C1547 1.388 . S
C1548 C1549 1.390 . S
C1549 C1548 1.390 . S
C1549 C1550 1.394 . S
C1549 C1555 1.465 . S
C1550 C1545 1.399 . S
C1550 C1549 1.394 . S
C1550 C1551 1.516 . S
C1551 C1550 1.516 . S
C1551 C1552 1.502 . S
C1551 C1553 1.561 . S
C1551 C1554 1.526 . S
C1552 H1536 0.959 . S
C1552 H1537 0.959 . S
C1552 H1538 0.961 . S
C1552 C1551 1.502 . S
C1553 H1539 0.960 . S
C1553 H1540 0.961 . S
C1553 H1541 0.959 . S
C1553 C1551 1.561 . S
C1554 C1551 1.526 . S
C1554 C1555 1.396 . S
C1554 C1559 1.390 . S
C1555 C1549 1.465 . S
C1555 C1554 1.396 . S
C1555 C1556 1.399 . S
C1556 H1542 0.929 . S
C1556 C1555 1.399 . S
C1556 C1557 1.385 . S
C1557 H1543 0.931 . S
C1557 C1556 1.385 . S
C1557 C1558 1.389 . S
C1558 C1557 1.389 . S
C1558 C1559 1.387 . S
C1559 H1544 0.930 . S
C1559 C1554 1.390 . S
C1559 C1558 1.387 . S
H1560 C1572 0.930 . S
H1561 C1574 0.930 . S
H1562 C1575 0.930 . S
H1563 C1579 0.959 . S
H1564 C1579 0.959 . S
H1565 C1579 0.961 . S
H1566 C1580 0.960 . S
H1567 C1580 0.961 . S
H1568 C1580 0.959 . S
H1569 C1583 0.929 . S
H1570 C1584 0.931 . S
H1571 C1586 0.930 . S
C1572 H1560 0.930 . S
C1572 C1573 1.399 . S
C1572 C1577 1.399 . S
C1573 C1572 1.399 . S
C1573 C1574 1.376 . S
C1574 H1561 0.930 . S
C1574 C1573 1.376 . S
C1574 C1575 1.388 . S
C1575 H1562 0.930 . S
C1575 C1574 1.388 . S
C1575 C1576 1.390 . S
C1576 C1575 1.390 . S
C1576 C1577 1.394 . S
C1576 C1582 1.465 . S
C1577 C1572 1.399 . S
C1577 C1576 1.394 . S
C1577 C1578 1.516 . S
C1578 C1577 1.516 . S
C1578 C1579 1.502 . S
C1578 C1580 1.561 . S
C1578 C1581 1.526 . S
C1579 H1563 0.959 . S
C1579 H1564 0.959 . S
C1579 H1565 0.961 . S
C1579 C1578 1.502 . S
C1580 H1566 0.960 . S
C1580 H1567 0.961 . S
C1580 H1568 0.959 . S
C1580 C1578 1.561 . S
C1581 C1578 1.526 . S
C1581 C1582 1.396 . S
C1581 C1586 1.390 . S
C1582 C1576 1.465 . S
C1582 C1581 1.396 . S
C1582 C1583 1.399 . S
C1583 H1569 0.929 . S
C1583 C1582 1.399 . S
C1583 C1584 1.385 . S
C1584 H1570 0.931 . S
C1584 C1583 1.385 . S
C1584 C1585 1.389 . S
C1585 C1584 1.389 . S
C1585 C1586 1.387 . S
C1586 H1571 0.930 . S
C1586 C1581 1.390 . S
C1586 C1585 1.387 . S
H1587 C1599 0.930 . S
H1588 C1601 0.930 . S
H1589 C1602 0.930 . S
H1590 C1606 0.959 . S
H1591 C1606 0.959 1_545 S
H1592 C1606 0.961 . S
H1593 C1607 0.960 . S
H1594 C1607 0.961 . S
H1595 C1607 0.959 . S
H1596 C1610 0.929 . S
H1597 C1611 0.931 . S
H1598 C1613 0.930 . S
C1599 H1587 0.930 . S
C1599 C1600 1.399 . S
C1599 C1604 1.399 . S
C1600 C1599 1.399 . S
C1600 C1601 1.376 . S
C1601 H1588 0.930 . S
C1601 C1600 1.376 . S
C1601 C1602 1.388 . S
C1602 H1589 0.930 . S
C1602 C1601 1.388 . S
C1602 C1603 1.390 . S
C1603 C1602 1.390 . S
C1603 C1604 1.394 . S
C1603 C1609 1.465 . S
C1604 C1599 1.399 . S
C1604 C1603 1.394 . S
C1604 C1605 1.516 . S
C1605 C1604 1.516 . S
C1605 C1606 1.502 . S
C1605 C1607 1.561 1_565 S
C1605 C1608 1.526 . S
C1606 H1590 0.959 . S
C1606 H1591 0.959 1_565 S
C1606 H1592 0.961 . S
C1606 C1605 1.502 . S
C1607 H1593 0.960 . S
C1607 H1594 0.961 . S
C1607 H1595 0.959 . S
C1607 C1605 1.561 1_545 S
C1608 C1605 1.526 . S
C1608 C1609 1.396 . S
C1608 C1613 1.390 1_565 S
C1609 C1603 1.465 . S
C1609 C1608 1.396 . S
C1609 C1610 1.399 . S
C1610 H1596 0.929 . S
C1610 C1609 1.399 . S
C1610 C1611 1.385 . S
C1611 H1597 0.931 . S
C1611 C1610 1.385 . S
C1611 C1612 1.389 1_565 S
C1612 C1611 1.389 1_545 S
C1612 C1613 1.387 . S
C1613 H1598 0.930 . S
C1613 C1608 1.390 1_545 S
C1613 C1612 1.387 . S
H1614 C1626 0.930 . S
H1615 C1628 0.930 . S
H1616 C1629 0.930 . S
H1617 C1633 0.959 . S
H1618 C1633 0.959 . S
H1619 C1633 0.961 . S
H1620 C1634 0.960 . S
H1621 C1634 0.961 . S
H1622 C1634 0.959 . S
H1623 C1637 0.929 . S
H1624 C1638 0.931 . S
H1625 C1640 0.930 . S
C1626 H1614 0.930 . S
C1626 C1627 1.399 . S
C1626 C1631 1.399 . S
C1627 C1626 1.399 . S
C1627 C1628 1.376 . S
C1628 H1615 0.930 . S
C1628 C1627 1.376 . S
C1628 C1629 1.388 . S
C1629 H1616 0.930 . S
C1629 C1628 1.388 . S
C1629 C1630 1.390 . S
C1630 C1629 1.390 . S
C1630 C1631 1.394 . S
C1630 C1636 1.465 . S
C1631 C1626 1.399 . S
C1631 C1630 1.394 . S
C1631 C1632 1.516 . S
C1632 C1631 1.516 . S
C1632 C1633 1.502 . S
C1632 C1634 1.561 . S
C1632 C1635 1.526 . S
C1633 H1617 0.959 . S
C1633 H1618 0.959 . S
C1633 H1619 0.961 . S
C1633 C1632 1.502 . S
C1634 H1620 0.960 . S
C1634 H1621 0.961 . S
C1634 H1622 0.959 . S
C1634 C1632 1.561 . S
C1635 C1632 1.526 . S
C1635 C1636 1.396 . S
C1635 C1640 1.390 1_556 S
C1636 C1630 1.465 . S
C1636 C1635 1.396 . S
C1636 C1637 1.399 1_556 S
C1637 H1623 0.929 . S
C1637 C1636 1.399 1_554 S
C1637 C1638 1.385 . S
C1638 H1624 0.931 . S
C1638 C1637 1.385 . S
C1638 C1639 1.389 . S
C1639 C1638 1.389 . S
C1639 C1640 1.387 . S
C1640 H1625 0.930 . S
C1640 C1635 1.390 1_554 S
C1640 C1639 1.387 . S
H1641 C1653 0.930 . S
H1642 C1655 0.930 . S
H1643 C1656 0.930 . S
H1644 C1660 0.959 . S
H1645 C1660 0.959 . S
H1646 C1660 0.961 1_565 S
H1647 C1661 0.960 . S
H1648 C1661 0.961 . S
H1649 C1661 0.959 . S
H1650 C1664 0.929 . S
H1651 C1665 0.931 . S
H1652 C1667 0.930 . S
C1653 H1641 0.930 . S
C1653 C1654 1.399 . S
C1653 C1658 1.399 1_565 S
C1654 C1653 1.399 . S
C1654 C1655 1.376 1_565 S
C1655 H1642 0.930 . S
C1655 C1654 1.376 1_545 S
C1655 C1656 1.388 . S
C1656 H1643 0.930 . S
C1656 C1655 1.388 . S
C1656 C1657 1.390 . S
C1657 C1656 1.390 . S
C1657 C1658 1.394 . S
C1657 C1663 1.465 . S
C1658 C1653 1.399 1_545 S
C1658 C1657 1.394 . S
C1658 C1659 1.516 . S
C1659 C1658 1.516 . S
C1659 C1660 1.502 . S
C1659 C1661 1.561 1_545 S
C1659 C1662 1.526 . S
C1660 H1644 0.959 . S
C1660 H1645 0.959 . S
C1660 H1646 0.961 1_545 S
C1660 C1659 1.502 . S
C1661 H1647 0.960 . S
C1661 H1648 0.961 . S
C1661 H1649 0.959 . S
C1661 C1659 1.561 1_565 S
C1662 C1659 1.526 . S
C1662 C1663 1.396 . S
C1662 C1667 1.390 . S
C1663 C1657 1.465 . S
C1663 C1662 1.396 . S
C1663 C1664 1.399 . S
C1664 H1650 0.929 . S
C1664 C1663 1.399 . S
C1664 C1665 1.385 . S
C1665 H1651 0.931 . S
C1665 C1664 1.385 . S
C1665 C1666 1.389 . S
C1666 C1665 1.389 . S
C1666 C1667 1.387 . S
C1667 H1652 0.930 . S
C1667 C1662 1.390 . S
C1667 C1666 1.387 . S
H1668 C1680 0.930 . S
H1669 C1682 0.930 . S
H1670 C1683 0.930 . S
H1671 C1687 0.959 . S
H1672 C1687 0.959 . S
H1673 C1687 0.961 . S
H1674 C1688 0.960 . S
H1675 C1688 0.961 . S
H1676 C1688 0.959 . S
H1677 C1691 0.929 . S
H1678 C1692 0.931 . S
H1679 C1694 0.930 . S
C1680 H1668 0.930 . S
C1680 C1681 1.399 . S
C1680 C1685 1.399 . S
C1681 C1680 1.399 . S
C1681 C1682 1.376 . S
C1682 H1669 0.930 . S
C1682 C1681 1.376 . S
C1682 C1683 1.388 . S
C1683 H1670 0.930 . S
C1683 C1682 1.388 . S
C1683 C1684 1.390 . S
C1684 C1683 1.390 . S
C1684 C1685 1.394 . S
C1684 C1690 1.465 . S
C1685 C1680 1.399 . S
C1685 C1684 1.394 . S
C1685 C1686 1.516 . S
C1686 C1685 1.516 . S
C1686 C1687 1.502 . S
C1686 C1688 1.561 . S
C1686 C1689 1.526 . S
C1687 H1671 0.959 . S
C1687 H1672 0.959 . S
C1687 H1673 0.961 . S
C1687 C1686 1.502 . S
C1688 H1674 0.960 . S
C1688 H1675 0.961 . S
C1688 H1676 0.959 . S
C1688 C1686 1.561 . S
C1689 C1686 1.526 . S
C1689 C1690 1.396 . S
C1689 C1694 1.390 . S
C1690 C1684 1.465 . S
C1690 C1689 1.396 . S
C1690 C1691 1.399 . S
C1691 H1677 0.929 . S
C1691 C1690 1.399 . S
C1691 C1692 1.385 . S
C1692 H1678 0.931 . S
C1692 C1691 1.385 . S
C1692 C1693 1.389 . S
C1693 C1692 1.389 . S
C1693 C1694 1.387 . S
C1694 H1679 0.930 . S
C1694 C1689 1.390 . S
C1694 C1693 1.387 . S
H1695 C1707 0.930 . S
H1696 C1709 0.930 . S
H1697 C1710 0.930 . S
H1698 C1714 0.959 . S
H1699 C1714 0.959 . S
H1700 C1714 0.961 . S
H1701 C1715 0.960 . S
H1702 C1715 0.961 1_455 S
H1703 C1715 0.959 . S
H1704 C1718 0.929 . S
H1705 C1719 0.931 . S
H1706 C1721 0.930 . S
C1707 H1695 0.930 . S
C1707 C1708 1.399 . S
C1707 C1712 1.399 . S
C1708 C1707 1.399 . S
C1708 C1709 1.376 . S
C1709 H1696 0.930 . S
C1709 C1708 1.376 . S
C1709 C1710 1.388 . S
C1710 H1697 0.930 . S
C1710 C1709 1.388 . S
C1710 C1711 1.390 . S
C1711 C1710 1.390 . S
C1711 C1712 1.394 . S
C1711 C1717 1.465 . S
C1712 C1707 1.399 . S
C1712 C1711 1.394 . S
C1712 C1713 1.516 . S
C1713 C1712 1.516 . S
C1713 C1714 1.502 . S
C1713 C1715 1.561 . S
C1713 C1716 1.526 . S
C1714 H1698 0.959 . S
C1714 H1699 0.959 . S
C1714 H1700 0.961 . S
C1714 C1713 1.502 . S
C1715 H1701 0.960 . S
C1715 H1702 0.961 1_655 S
C1715 H1703 0.959 . S
C1715 C1713 1.561 . S
C1716 C1713 1.526 . S
C1716 C1717 1.396 . S
C1716 C1721 1.390 . S
C1717 C1711 1.465 . S
C1717 C1716 1.396 . S
C1717 C1718 1.399 1_545 S
C1718 H1704 0.929 . S
C1718 C1717 1.399 1_565 S
C1718 C1719 1.385 . S
C1719 H1705 0.931 . S
C1719 C1718 1.385 . S
C1719 C1720 1.389 . S
C1720 C1719 1.389 . S
C1720 C1721 1.387 1_565 S
C1721 H1706 0.930 . S
C1721 C1716 1.390 . S
C1721 C1720 1.387 1_545 S
H1722 C1734 0.930 . S
H1723 C1736 0.930 . S
H1724 C1737 0.930 . S
H1725 C1741 0.959 . S
H1726 C1741 0.959 . S
H1727 C1741 0.961 . S
H1728 C1742 0.960 . S
H1729 C1742 0.961 . S
H1730 C1742 0.959 . S
H1731 C1745 0.919 1_554 S
H1732 C1746 0.931 . S
H1733 C1748 0.930 . S
C1734 H1722 0.930 . S
C1734 C1735 1.399 . S
C1734 C1739 1.399 . S
C1735 C1734 1.399 . S
C1735 C1736 1.376 . S
C1736 H1723 0.930 . S
C1736 C1735 1.376 . S
C1736 C1737 1.388 . S
C1737 H1724 0.930 . S
C1737 C1736 1.388 . S
C1737 C1738 1.390 . S
C1738 C1737 1.390 . S
C1738 C1739 1.394 . S
C1738 C1744 1.465 . S
C1739 C1734 1.399 . S
C1739 C1738 1.394 . S
C1739 C1740 1.516 . S
C1740 C1739 1.516 . S
C1740 C1741 1.502 . S
C1740 C1742 1.561 . S
C1740 C1743 1.526 . S
C1741 H1725 0.959 . S
C1741 H1726 0.959 . S
C1741 H1727 0.961 . S
C1741 C1740 1.502 . S
C1742 H1728 0.960 . S
C1742 H1729 0.961 . S
C1742 H1730 0.959 . S
C1742 C1740 1.561 . S
C1743 C1740 1.526 . S
C1743 C1744 1.396 . S
C1743 C1748 1.390 1_554 S
C1744 C1738 1.465 . S
C1744 C1743 1.396 . S
C1744 C1745 1.379 1_554 S
C1745 H1731 0.919 1_556 S
C1745 C1744 1.379 1_556 S
C1745 C1746 1.416 . S
C1746 H1732 0.931 . S
C1746 C1745 1.416 . S
C1746 C1747 1.389 . S
C1747 C1746 1.389 . S
C1747 C1748 1.387 . S
C1748 H1733 0.930 . S
C1748 C1743 1.390 1_556 S
C1748 C1747 1.387 . S
H1749 C1761 0.930 . S
H1750 C1763 0.930 . S
H1751 C1764 0.930 . S
H1752 C1768 0.959 . S
H1753 C1768 0.959 . S
H1754 C1768 0.961 . S
H1755 C1769 0.960 . S
H1756 C1769 0.961 . S
H1757 C1769 0.959 . S
H1758 C1772 0.929 . S
H1759 C1773 0.931 . S
H1760 C1775 0.930 . S
C1761 H1749 0.930 . S
C1761 C1762 1.399 . S
C1761 C1766 1.399 . S
C1762 C1761 1.399 . S
C1762 C1763 1.376 . S
C1763 H1750 0.930 . S
C1763 C1762 1.376 . S
C1763 C1764 1.388 . S
C1764 H1751 0.930 . S
C1764 C1763 1.388 . S
C1764 C1765 1.390 . S
C1765 C1764 1.390 . S
C1765 C1766 1.394 . S
C1765 C1771 1.465 . S
C1766 C1761 1.399 . S
C1766 C1765 1.394 . S
C1766 C1767 1.516 . S
C1767 C1766 1.516 . S
C1767 C1768 1.502 . S
C1767 C1769 1.561 . S
C1767 C1770 1.526 . S
C1768 H1752 0.959 . S
C1768 H1753 0.959 . S
C1768 H1754 0.961 . S
C1768 C1767 1.502 . S
C1769 H1755 0.960 . S
C1769 H1756 0.961 . S
C1769 H1757 0.959 . S
C1769 C1767 1.561 . S
C1770 C1767 1.526 . S
C1770 C1771 1.396 . S
C1770 C1775 1.390 . S
C1771 C1765 1.465 . S
C1771 C1770 1.396 . S
C1771 C1772 1.399 1_565 S
C1772 H1758 0.929 . S
C1772 C1771 1.399 1_545 S
C1772 C1773 1.385 . S
C1773 H1759 0.931 . S
C1773 C1772 1.385 . S
C1773 C1774 1.389 . S
C1774 C1773 1.389 . S
C1774 C1775 1.387 1_545 S
C1775 H1760 0.930 . S
C1775 C1770 1.390 . S
C1775 C1774 1.387 1_565 S
C493 C10 0.380 . S
C505 C301 0.478 . S
C520 C40 0.263 . S
C532 C340 0.204 . S
C547 C61 0.364 . S
C559 C250 0.411 . S
C574 C280 0.255 . S
C586 C100 0.210 . S
C601 C121 0.409 . S
C613 C430 0.396 . S
C628 C451 0.215 . S
C640 C151 0.251 . S
C655 C361 0.271 . S
C667 C190 0.534 . S
C682 C211 0.143 . S
C694 C391 0.136 . S
C709 C16 2.492 . S
C721 C147 2.497 . S
C736 C46 2.168 . S
C748 C417 2.198 . S
C763 N74 1.761 . S
C775 N186 1.786 . S
C790 C106 2.678 . S
C802 C477 2.678 . S
C817 C177 2.208 . S
C829 C286 2.164 . S
C844 C346 2.681 . S
C856 C237 2.663 . S
C871 C387 2.479 . S
C883 C256 2.512 . S
C898 N314 1.767 . S
C910 N426 1.771 . S
C925 C27 1.913 . S
C937 C220 1.908 . S
C952 C57 1.781 . S
C964 C370 1.712 . S
C979 N66 1.228 . S
C991 C160 1.219 . S
C1006 C117 1.736 1_455 S
C1018 C421 1.726 . S
C1033 C91 1.922 . S
C1045 C136 1.932 . S
C1060 C166 1.771 . S
C1072 C241 1.760 . S
C1087 N194 1.254 . S
C1099 C31 1.217 . S
C1114 C310 1.720 . S
C1126 C226 1.735 1_655 S
C1141 C267 1.927 . S
C1153 C460 1.920 1_565 S
C1168 C130 1.725 . S
C1180 C297 1.773 1_655 S
C1195 C400 1.298 1_545 S
C1207 N306 1.285 . S
C1222 C181 1.727 . S
C1234 C357 1.736 . S
C1249 C376 1.925 . S
C1261 C331 1.929 1_545 S
C1276 C406 1.771 1_455 S
C1288 C1 1.750 . S
C1303 C271 1.289 1_565 S
C1315 N434 1.238 . S
C1330 C466 1.739 . S
C1342 C70 1.704 . S
C1357 N6 1.202 1_556 S
C1369 N284 1.268 . S
C1384 C316 1.559 . S
C1396 N36 1.413 . S
C1411 C87 1.506 . S
C1423 N344 1.455 . S
C1438 N254 1.238 . S
C1450 N96 1.159 . S
C1465 N396 1.260 . S
C1477 N134 1.227 1_554 S
C1492 C447 1.536 . S
C1504 N164 1.477 . S
C1519 N456 1.482 . S
C1531 C196 1.465 . S
C1546 N366 1.302 . S
C1558 N224 1.104 . S
C1573 N44 1.314 . S
C1585 N246 1.177 . S
C1600 C76 1.554 . S
C1612 N276 1.424 . S
C1627 N104 1.504 . S
C1639 C327 1.458 . S
C1654 N336 1.108 . S
C1666 N14 1.301 . S
C1681 N156 1.284 . S
C1693 N374 1.219 . S
C1708 C207 1.521 . S
C1720 N404 1.450 . S
C1735 N216 1.486 . S
C1747 C436 1.462 . S
C1762 N126 1.216 . S
C1774 N464 1.219 . S
