# Generated by pormake.
# Topology sml, (6)-cn, num edge types: 1
# Building blocks:
#     Node 0, Type 0, BuildingBlock: NUHQIS_clean_sbu_0, # of connection points: 6
#     Node 1, Type 0, BuildingBlock: NUHQIS_clean_sbu_0, # of connection points: 6
#     Node 2, Type 0, BuildingBlock: NUHQIS_clean_sbu_0, # of connection points: 6
#     Node 3, Type 0, BuildingBlock: NUHQIS_clean_sbu_0, # of connection points: 6
#     Node 4, Type 0, BuildingBlock: NUHQIS_clean_sbu_0, # of connection points: 6
#     Node 5, Type 0, BuildingBlock: NUHQIS_clean_sbu_0, # of connection points: 6
#     Edge 6, Type (0, 0), BuildingBlock: EZIPEK_clean_linker_0, # of connection points: 2
#     Edge 7, Type (0, 0), BuildingBlock: EZIPEK_clean_linker_0, # of connection points: 2
#     Edge 8, Type (0, 0), BuildingBlock: EZIPEK_clean_linker_0, # of connection points: 2
#     Edge 9, Type (0, 0), BuildingBlock: EZIPEK_clean_linker_0, # of connection points: 2
#     Edge 10, Type (0, 0), BuildingBlock: EZIPEK_clean_linker_0, # of connection points: 2
#     Edge 11, Type (0, 0), BuildingBlock: EZIPEK_clean_linker_0, # of connection points: 2
#     Edge 12, Type (0, 0), BuildingBlock: EZIPEK_clean_linker_0, # of connection points: 2
#     Edge 13, Type (0, 0), BuildingBlock: EZIPEK_clean_linker_0, # of connection points: 2
#     Edge 14, Type (0, 0), BuildingBlock: EZIPEK_clean_linker_0, # of connection points: 2
#     Edge 15, Type (0, 0), BuildingBlock: EZIPEK_clean_linker_0, # of connection points: 2
#     Edge 16, Type (0, 0), BuildingBlock: EZIPEK_clean_linker_0, # of connection points: 2
#     Edge 17, Type (0, 0), BuildingBlock: EZIPEK_clean_linker_0, # of connection points: 2
#     Edge 18, Type (0, 0), BuildingBlock: EZIPEK_clean_linker_0, # of connection points: 2
#     Edge 19, Type (0, 0), BuildingBlock: EZIPEK_clean_linker_0, # of connection points: 2
#     Edge 20, Type (0, 0), BuildingBlock: EZIPEK_clean_linker_0, # of connection points: 2
#     Edge 21, Type (0, 0), BuildingBlock: EZIPEK_clean_linker_0, # of connection points: 2
#     Edge 22, Type (0, 0), BuildingBlock: EZIPEK_clean_linker_0, # of connection points: 2
#     Edge 23, Type (0, 0), BuildingBlock: EZIPEK_clean_linker_0, # of connection points: 2
# Relax obj value: 0.239
# Max RMSD: 0.270
# Mean RMSD: 0.270
data_MOF--net-sml--node1-NUHQIS_clean_sbu_0--edge1-EZIPEK_clean_linker_0
_symmetry_space_group_name_H-M    P1
_symmetry_Int_Tables_number       1
_symmetry_cell_setting            triclinic
loop_
_symmetry_equiv_pos_as_xyz
'x, y, z'
_cell_length_a     22.511274
_cell_length_b     22.211684
_cell_length_c     19.98267
_cell_angle_alpha  89.983234
_cell_angle_beta   89.908738
_cell_angle_gamma 119.91991
loop_
_atom_site_label
_atom_site_type_symbol
_atom_site_fract_x
_atom_site_fract_y
_atom_site_fract_z
_atom_type_partial_charge
Tb0 Tb 0.21495 0.41781 0.24266 0.0
Eu1 Eu 0.10332 0.40042 0.12441 0.0
C2 C 0.16643 0.3017 0.13761 0.0
C3 C 0.26568 0.4823 0.10233 0.0
C4 C 0.27451 0.4401 0.41495 0.0
C5 C 0.27681 0.41483 0.53323 0.0
C6 C 0.29714 0.41402 0.46698 0.0
C7 C 0.23318 0.46923 0.43053 0.0
C8 C 0.213 0.47014 0.49666 0.0
C9 C 0.2334 0.44156 0.54828 0.0
C10 C 0.28624 0.42883 0.34434 0.0
O11 O 0.21356 0.51472 0.23498 0.0
O12 O 0.105 0.4777 0.19759 0.0
O13 O 0.03911 0.33297 0.21091 0.0
O14 O 0.12034 0.39194 0.29188 0.0
C15 C 0.16059 0.52406 0.2285 0.0
O16 O 0.07016 0.44933 0.04961 0.0
O17 O 0.02519 0.33727 0.05088 0.0
O18 O 0.15339 0.339 0.09617 0.0
O19 O 0.17048 0.31345 0.20199 0.0
O20 O 0.27606 0.44893 0.1512 0.0
O21 O 0.20857 0.48386 0.09644 0.0
C22 C 0.05768 0.34661 0.27421 0.0
O23 O 0.24007 0.36966 0.31947 0.0
O24 O 0.3009 0.4797 0.30284 0.0
C25 C 0.06018 0.39494 0.94528 0.0
C26 C 0.11734 0.41046 0.81557 0.0
C27 C 0.09329 0.45463 0.83746 0.0
C28 C 0.06564 0.44736 0.90191 0.0
C29 C 0.08399 0.35052 0.92296 0.0
C30 C 0.11248 0.35843 0.85896 0.0
C31 C 0.03682 0.39176 1.01556 0.0
H32 H 0.29274 0.39218 0.57237 0.0
H33 H 0.32827 0.39056 0.45605 0.0
H34 H 0.21433 0.48889 0.39121 0.0
H35 H 0.17961 0.49102 0.50728 0.0
H36 H 0.09668 0.49524 0.80489 0.0
H37 H 0.04906 0.48318 0.91818 0.0
H38 H 0.08202 0.31048 0.95538 0.0
H39 H 0.13095 0.32399 0.84324 0.0
Tb40 Tb 0.73634 0.15392 0.51924 0.0
Eu41 Eu 0.82412 0.26214 0.64147 0.0
C42 C 0.78912 0.10301 0.63761 0.0
C43 C 0.66262 0.15435 0.65464 0.0
C44 C 0.70752 0.11116 0.34552 0.0
C45 C 0.68916 0.11054 0.22573 0.0
C46 C 0.66494 0.08282 0.28959 0.0
C47 C 0.77457 0.16694 0.33678 0.0
C48 C 0.79879 0.19427 0.27329 0.0
C49 C 0.75608 0.1667 0.21751 0.0
C50 C 0.68172 0.08792 0.41384 0.0
O51 O 0.77556 0.25869 0.48219 0.0
O52 O 0.78294 0.31702 0.57883 0.0
O53 O 0.89413 0.29106 0.55249 0.0
O54 O 0.84315 0.18306 0.50676 0.0
C55 C 0.77771 0.31119 0.51372 0.0
O56 O 0.83285 0.33778 0.71612 0.0
O57 O 0.91151 0.30933 0.70906 0.0
O58 O 0.83526 0.16734 0.65149 0.0
O59 O 0.73711 0.0878 0.59779 0.0
O60 O 0.65743 0.14392 0.58944 0.0
O61 O 0.72191 0.18754 0.68495 0.0
C62 C 0.89607 0.24591 0.51145 0.0
O63 O 0.72094 0.07474 0.45193 0.0
O64 O 0.66145 0.12632 0.44466 0.0
C65 C 0.8739 0.31853 0.81609 0.0
C66 C 0.84379 0.2775 0.95071 0.0
C67 C 0.88649 0.34792 0.93409 0.0
C68 C 0.90069 0.3684 0.86696 0.0
C69 C 0.83173 0.24821 0.83273 0.0
C70 C 0.81652 0.2279 0.89943 0.0
C71 C 0.88511 0.33894 0.74539 0.0
H72 H 0.65564 0.08881 0.18291 0.0
H73 H 0.61286 0.04039 0.29545 0.0
H74 H 0.80779 0.19043 0.37937 0.0
H75 H 0.85037 0.23776 0.26775 0.0
H76 H 0.90759 0.38696 0.97301 0.0
H77 H 0.93192 0.42298 0.85471 0.0
H78 H 0.80961 0.2091 0.79393 0.0
H79 H 0.78325 0.17343 0.91111 0.0
Tb80 Tb 0.56145 0.81152 0.88966 0.0
Eu81 Eu 0.54378 0.70091 0.76972 0.0
C82 C 0.66233 0.8605 0.76952 0.0
C83 C 0.47919 0.79679 0.75883 0.0
C84 C 0.57133 0.85653 0.06289 0.0
C85 C 0.54341 0.85141 0.18123 0.0
C86 C 0.54763 0.87905 0.11704 0.0
C87 C 0.5908 0.80622 0.07395 0.0
C88 C 0.58694 0.77897 0.13781 0.0
C89 C 0.56274 0.80091 0.19179 0.0
C90 C 0.56885 0.87861 0.9937 0.0
O91 O 0.50763 0.7081 0.9306 0.0
O92 O 0.4516 0.6473 0.83722 0.0
O93 O 0.59109 0.67672 0.85652 0.0
O94 O 0.64133 0.7849 0.90302 0.0
C95 C 0.45633 0.65457 0.90231 0.0
O96 O 0.47517 0.62566 0.69634 0.0
O97 O 0.58176 0.65341 0.69853 0.0
O98 O 0.64802 0.79614 0.76091 0.0
O99 O 0.62442 0.87617 0.80802 0.0
O100 O 0.47936 0.80213 0.82435 0.0
O101 O 0.51848 0.7781 0.72829 0.0
C102 C 0.63713 0.7241 0.89637 0.0
O103 O 0.62179 0.89296 0.95605 0.0
O104 O 0.51159 0.83887 0.96251 0.0
C105 C 0.53154 0.64582 0.59347 0.0
C106 C 0.54067 0.68875 0.45921 0.0
C107 C 0.52322 0.61995 0.4746 0.0
C108 C 0.51803 0.59845 0.54143 0.0
C109 C 0.54906 0.71439 0.57803 0.0
C110 C 0.55294 0.73547 0.51169 0.0
C111 C 0.52505 0.62457 0.66408 0.0
H112 H 0.52449 0.86881 0.22248 0.0
H113 H 0.53115 0.91678 0.10944 0.0
H114 H 0.60751 0.78671 1.03276 0.0
H115 H 0.60158 0.73977 0.14497 0.0
H116 H 0.51299 0.58286 0.4349 0.0
H117 H 0.50358 0.5451 0.55244 0.0
H118 H 0.55945 0.75171 0.61742 0.0
H119 H 0.56619 0.78861 0.5012 0.0
Tb120 Tb 0.7905 0.55407 0.1684 0.0
Eu121 Eu 0.69612 0.58269 0.28381 0.0
C122 C 0.8566 0.6699 0.27403 0.0
C123 C 0.76709 0.48614 0.31061 0.0
C124 C 0.83691 0.55449 0.99295 0.0
C125 C 0.87251 0.61974 0.88797 0.0
C126 C 0.88693 0.60878 0.95378 0.0
C127 C 0.77202 0.51098 0.96437 0.0
C128 C 0.75738 0.52245 0.89888 0.0
C129 C 0.80726 0.57728 0.86017 0.0
C130 C 0.85106 0.54755 0.06466 0.0
O131 O 0.68539 0.47502 0.15232 0.0
O132 O 0.61727 0.48464 0.23426 0.0
O133 O 0.66411 0.6065 0.1845 0.0
O134 O 0.7649 0.63084 0.13397 0.0
C135 C 0.626 0.45463 0.18152 0.0
O136 O 0.62014 0.54752 0.36413 0.0
O137 O 0.68987 0.65742 0.35135 0.0
O138 O 0.80117 0.67466 0.26957 0.0
O139 O 0.86051 0.61855 0.24614 0.0
O140 O 0.78481 0.48472 0.24801 0.0
O141 O 0.74245 0.52501 0.332 0.0
C142 C 0.70416 0.62487 0.13146 0.0
O143 O 0.8733 0.6035 0.10093 0.0
O144 O 0.80503 0.49294 0.09687 0.0
C145 C 0.66865 0.61226 0.4638 0.0
C146 C 0.71798 0.61204 0.5951 0.0
C147 C 0.65962 0.55313 0.56994 0.0
C148 C 0.63569 0.55303 0.50511 0.0
C149 C 0.72457 0.67258 0.49057 0.0
C150 C 0.74954 0.67211 0.55493 0.0
C151 C 0.64756 0.60866 0.39209 0.0
H152 H 0.91161 0.66261 0.85929 0.0
H153 H 0.93679 0.64381 0.97483 0.0
H154 H 0.73187 0.46894 0.99303 0.0
H155 H 0.70677 0.48886 0.87857 0.0
H156 H 0.63382 0.50623 0.5998 0.0
H157 H 0.59196 0.50584 0.48683 0.0
H158 H 0.75124 0.71934 0.46068 0.0
H159 H 0.7943 0.71841 0.57306 0.0
Tb160 Tb 0.13602 0.75912 0.56558 0.0
Eu161 Eu 0.24258 0.85279 0.44397 0.0
C162 C 0.08225 0.80683 0.44341 0.0
C163 C 0.14531 0.69234 0.43227 0.0
C164 C 0.08889 0.70542 0.73887 0.0
C165 C 0.06053 0.68457 0.85699 0.0
C166 C 0.04039 0.67201 0.78976 0.0
C167 C 0.15783 0.75002 0.75602 0.0
C168 C 0.17791 0.76207 0.82287 0.0
C169 C 0.12921 0.73043 0.87376 0.0
C170 C 0.06832 0.69481 0.66804 0.0
O171 O 0.23901 0.80408 0.60361 0.0
O172 O 0.29365 0.80685 0.5068 0.0
O173 O 0.27036 0.92494 0.53151 0.0
O174 O 0.16203 0.86698 0.57424 0.0
C175 C 0.29026 0.80498 0.57227 0.0
O176 O 0.31686 0.85538 0.37224 0.0
O177 O 0.2872 0.93439 0.368 0.0
O178 O 0.14507 0.85686 0.43073 0.0
O179 O 0.06944 0.75661 0.48637 0.0
O180 O 0.14414 0.68656 0.49764 0.0
O181 O 0.16378 0.75144 0.40344 0.0
C182 C 0.22469 0.92008 0.57539 0.0
O183 O 0.06355 0.7451 0.63967 0.0
O184 O 0.10158 0.67371 0.63035 0.0
C185 C 0.2864 0.87753 0.26789 0.0
C186 C 0.22988 0.82079 0.1423 0.0
C187 C 0.30136 0.85718 0.15125 0.0
C188 C 0.32943 0.88421 0.2142 0.0
C189 C 0.21505 0.83913 0.25908 0.0
C190 C 0.18696 0.81038 0.19711 0.0
C191 C 0.3137 0.90217 0.33543 0.0
H192 H 0.02274 0.65933 0.89596 0.0
H193 H -0.01292 0.63705 0.77755 0.0
H194 H 0.19621 0.77638 0.71796 0.0
H195 H 0.23112 0.79744 0.83501 0.0
H196 H 0.3352 0.86447 0.10963 0.0
H197 H 0.38447 0.91045 0.22088 0.0
H198 H 0.18097 0.83042 0.30064 0.0
H199 H 0.13179 0.78109 0.19151 0.0
Tb200 Tb 0.36699 0.20023 0.85529 0.0
Eu201 Eu 0.35853 0.08719 0.97222 0.0
C202 C 0.27174 0.16491 0.97957 0.0
C203 C 0.45101 0.25753 0.98858 0.0
C204 C 0.35497 0.24393 0.68116 0.0
C205 C 0.37744 0.27332 0.56275 0.0
C206 C 0.38055 0.29383 0.6298 0.0
C207 C 0.32531 0.17342 0.66428 0.0
C208 C 0.3235 0.15312 0.59784 0.0
C209 C 0.34995 0.20269 0.54637 0.0
C210 C 0.36327 0.26477 0.75242 0.0
O211 O 0.4481 0.17822 0.83102 0.0
O212 O 0.42641 0.08094 0.89214 0.0
O213 O 0.31291 0.02096 0.88289 0.0
O214 O 0.28411 0.09543 0.83275 0.0
C215 C 0.45767 0.12559 0.8432 0.0
O216 O 0.41032 0.06251 0.05117 0.0
O217 O 0.29976 0.00222 1.04166 0.0
O218 O 0.26889 0.10473 0.9843 0.0
O219 O 0.31407 0.21395 0.93893 0.0
O220 O 0.43263 0.27305 0.9315 0.0
O221 O 0.43109 0.19394 1.00765 0.0
C222 C 0.28224 0.03534 0.83534 0.0
O223 O 0.31055 0.22799 0.79107 0.0
O224 O 0.41981 0.27485 0.78024 0.0
C225 C 0.34583 0.03964 0.15069 0.0
C226 C 0.34423 0.09306 0.27926 0.0
C227 C 0.39145 0.071 0.2638 0.0
C228 C 0.39351 0.04657 0.19962 0.0
C229 C 0.29694 0.05919 0.16697 0.0
C230 C 0.29732 0.08721 0.22979 0.0
C231 C 0.35243 0.02045 0.08098 0.0
H232 H 0.39763 0.31252 0.52382 0.0
H233 H 0.40373 0.34857 0.64161 0.0
H234 H 0.30503 0.13399 0.70279 0.0
H235 H 0.30205 0.09857 0.58642 0.0
H236 H 0.4282 0.07473 0.30087 0.0
H237 H 0.43284 0.03365 0.18799 0.0
H238 H 0.26002 0.05563 0.13022 0.0
H239 H 0.2609 0.10452 0.23978 0.0
C240 C 0.26955 0.21579 0.08896 0.0
C241 C 0.23498 0.18296 1.02922 0.0
C242 C 0.14331 0.20695 0.05724 0.0
C243 C 0.185 0.25204 0.109 0.0
N244 N 0.29357 0.3062 0.16861 0.0
N245 N 0.13922 0.14629 0.95478 0.0
C246 C 0.24912 0.25741 0.12456 0.0
C247 C 0.1714 0.17749 1.01312 0.0
N248 N 0.32291 0.20833 0.11095 0.0
N249 N 0.07692 0.19217 0.05084 0.0
H250 H 0.15742 0.12172 0.92305 0.0
H251 H 0.09679 0.14786 0.93629 0.0
H252 H 0.05455 0.21159 0.08382 0.0
H253 H 0.04235 0.15569 1.0173 0.0
H254 H 0.34633 0.22614 0.1573 0.0
H255 H 0.33858 0.17749 0.0861 0.0
H256 H 0.34412 0.31765 0.17457 0.0
H257 H 0.28329 0.3402 0.19507 0.0
C258 C 0.01328 0.36464 0.38066 0.0
C259 C 0.00825 0.31715 0.33044 0.0
C260 C 0.94802 0.22127 0.41008 0.0
C261 C 0.94993 0.26941 0.45819 0.0
N262 N 0.01843 0.38606 0.49941 0.0
N263 N 0.96712 0.1991 0.29507 0.0
C264 C -0.00711 0.34112 0.44677 0.0
C265 C -0.0256 0.24488 0.34437 0.0
N266 N 0.03666 0.43243 0.36433 0.0
N267 N 0.92708 0.15466 0.42962 0.0
H268 H -0.01284 0.21469 0.24713 0.0
H269 H 0.93677 0.14547 0.29972 0.0
H270 H 0.91709 0.13941 0.47969 0.0
H271 H 0.9279 0.11724 0.39898 0.0
H272 H 0.04055 0.46977 0.39824 0.0
H273 H 0.04479 0.44892 0.31472 0.0
H274 H 0.05355 0.43878 0.49388 0.0
H275 H 0.01229 0.36869 0.54881 0.0
C276 C 0.80166 0.04353 0.73895 0.0
C277 C 0.79204 0.04424 0.66913 0.0
C278 C 0.73272 0.91747 0.66598 0.0
C279 C 0.72289 0.91813 0.73632 0.0
N280 N 0.76277 0.97686 0.8419 0.0
N281 N 0.77414 -0.01359 0.56377 0.0
C282 C 0.76321 0.97976 0.77358 0.0
C283 C 0.76675 0.98215 0.63183 0.0
N284 N 0.84779 0.10269 0.7713 0.0
N285 N 0.70877 0.85619 0.63216 0.0
H286 H 0.80361 0.0341 0.53968 0.0
H287 H 0.75269 0.94434 0.53125 0.0
H288 H 0.6887 0.80824 0.65554 0.0
H289 H 0.71357 0.85219 0.58087 0.0
H290 H 0.85871 0.10508 0.82211 0.0
H291 H 0.88179 0.14785 0.74584 0.0
H292 H 0.78349 0.02031 0.87281 0.0
H293 H 0.74015 0.92972 0.86774 0.0
C294 C 0.71092 0.75009 0.99957 0.0
C295 C 0.67391 0.70431 0.94616 0.0
C296 C 0.6636 0.60738 1.01202 0.0
C297 C 0.68791 0.65074 0.06983 0.0
N298 N 0.74106 0.76654 0.11618 0.0
N299 N 0.64146 0.59411 0.89399 0.0
C300 C 0.71299 0.72287 0.06287 0.0
C301 C 0.65846 0.63455 0.95008 0.0
N302 N 0.74868 0.82003 0.99051 0.0
N303 N 0.64577 0.53943 1.01344 0.0
H304 H 0.64797 0.61461 0.84586 0.0
H305 H 0.62707 0.54158 0.89531 0.0
H306 H 0.64824 0.51401 0.05591 0.0
H307 H 0.64824 0.51401 0.05591 0.0
H308 H 0.7577 0.84408 0.94379 0.0
H309 H 0.7577 0.84408 0.94379 0.0
H310 H 0.75956 0.81989 0.11252 0.0
H311 H 0.74348 0.74908 0.16404 0.0
C312 C 0.03109 0.81194 0.33198 0.0
C313 C 0.02386 0.79846 0.40185 0.0
C314 C 0.90271 0.71513 0.38781 0.0
C315 C 0.91247 0.71931 0.31735 0.0
N316 N -0.01582 0.7725 0.22086 0.0
N317 N 0.9486 0.76501 0.49637 0.0
C318 C -0.02396 0.7686 0.28885 0.0
C319 C 0.95795 0.75897 0.42967 0.0
N320 N 0.08792 0.86885 0.30768 0.0
N321 N 0.84256 0.66546 0.41523 0.0
H322 H -0.01124 0.79974 0.52693 0.0
H323 H 0.90072 0.74169 0.51938 0.0
H324 H 0.79855 0.63601 0.3873 0.0
H325 H 0.83781 0.65091 0.46538 0.0
H326 H 0.09469 0.88433 0.25777 0.0
H327 H 0.12427 0.90593 0.33918 0.0
H328 H 0.03131 0.80144 0.19706 0.0
H329 H 0.94383 0.7438 0.18792 0.0
C330 C 0.2933 0.96296 0.74688 0.0
C331 C 0.25352 -0.01105 0.77631 0.0
C332 C 0.19726 0.97757 0.66803 0.0
C333 C 0.245 0.9617 0.63777 0.0
N334 N 0.35496 0.96783 0.64727 0.0
N335 N 0.15832 0.00893 0.76926 0.0
C336 C 0.29801 0.96286 0.67666 0.0
C337 C 0.20218 -0.00774 0.73794 0.0
N338 N 0.32605 0.9376 0.78517 0.0
N339 N 0.14861 0.97988 0.629 0.0
H340 H 0.1574 0.01281 0.82131 0.0
H341 H 0.12243 0.01757 0.74501 0.0
H342 H 0.14885 0.97593 0.57693 0.0
H343 H 0.10903 -0.01334 0.64707 0.0
H344 H 0.35257 0.91473 0.76439 0.0
H345 H 0.31733 0.92883 0.83636 0.0
H346 H 0.39644 0.97282 0.67491 0.0
H347 H 0.36612 0.97975 0.59685 0.0
C348 C 0.11064 0.36776 0.69714 0.0
C349 C 0.14755 0.41843 0.74708 0.0
C350 C 0.2393 0.4864 0.66563 0.0
C351 C 0.20415 0.43388 0.61695 0.0
N352 N 0.11059 0.32106 0.58708 0.0
N353 N 0.2519 0.5196 0.78281 0.0
C354 C 0.14098 0.37349 0.63301 0.0
C355 C 0.21321 0.4762 0.73233 0.0
N356 N 0.04568 0.31511 0.71056 0.0
N357 N 0.29704 0.54659 0.64765 0.0
H358 H 0.23481 0.51363 0.83222 0.0
H359 H 0.30299 0.55799 0.77723 0.0
H360 H 0.31848 0.55496 0.59984 0.0
H361 H 0.32118 0.59008 0.67838 0.0
H362 H 0.01302 0.28039 0.67481 0.0
H363 H 0.02198 0.30864 0.75696 0.0
H364 H 0.06877 0.27241 0.59751 0.0
H365 H 0.12968 0.3244 0.5388 0.0
C366 C 0.81918 0.17543 0.11108 0.0
C367 C 0.78159 0.19797 0.15056 0.0
C368 C 0.78693 0.27538 0.06034 0.0
C369 C 0.82663 0.25459 1.02158 0.0
N370 N 0.89479 0.19854 1.01615 0.0
N371 N 0.74322 0.28026 0.17005 0.0
C372 C 0.84699 0.20858 0.04882 0.0
C373 C 0.76987 0.25157 0.12749 0.0
N374 N 0.82716 0.12142 0.13255 0.0
N375 N 0.76267 0.31501 1.03211 0.0
H376 H 0.72789 0.26254 0.21886 0.0
H377 H 0.74179 0.32534 0.15907 0.0
H378 H 0.77114 0.33097 0.98228 0.0
H379 H 0.7298 0.32809 0.05644 0.0
H380 H 0.84725 0.09742 0.10271 0.0
H381 H 0.80915 0.09713 0.17876 0.0
H382 H 0.91696 0.17129 1.0366 0.0
H383 H 0.91768 0.22347 0.97131 0.0
C384 C 0.61086 0.76884 0.36568 0.0
C385 C 0.5471 0.71326 0.3885 0.0
C386 C 0.49654 0.70876 0.27833 0.0
C387 C 0.55739 0.77024 0.25933 0.0
N388 N 0.67071 0.86303 0.28647 0.0
N389 N 0.42671 0.63439 0.36914 0.0
C390 C 0.6141 0.80145 0.30348 0.0
C391 C 0.48927 0.68381 0.3453 0.0
N392 N 0.66896 0.78863 0.40234 0.0
N393 N 0.44593 0.67415 0.23218 0.0
H394 H 0.41803 0.61764 0.41874 0.0
H395 H 0.38187 0.61315 0.34131 0.0
H396 H 0.44858 0.69234 0.18352 0.0
H397 H 0.404 0.62486 0.24015 0.0
H398 H 0.718 0.82368 0.38513 0.0
H399 H 0.669 0.76485 0.44731 0.0
H400 H 0.71027 0.89251 0.31975 0.0
H401 H 0.67592 0.88748 0.24049 0.0
C402 C 0.78631 0.5469 0.73703 0.0
C403 C 0.79045 0.59059 0.79091 0.0
C404 C 0.75127 0.65207 0.71597 0.0
C405 C 0.74766 0.60871 0.66177 0.0
N406 N 0.78001 0.52835 0.61687 0.0
N407 N 0.78972 0.69321 0.82908 0.0
C408 C 0.77038 0.55988 0.67131 0.0
C409 C 0.77737 0.6461 0.77933 0.0
N410 N 0.79725 0.49253 0.74871 0.0
N411 N 0.72673 0.69683 0.70801 0.0
H412 H 0.80397 0.68813 0.87743 0.0
H413 H 0.78964 0.73957 0.82178 0.0
H414 H 0.70783 0.7035 0.6628 0.0
H415 H 0.72016 0.72377 0.74724 0.0
H416 H 0.78644 0.45349 0.71394 0.0
H417 H 0.81358 0.48406 0.79479 0.0
H418 H 0.80268 0.49743 0.61933 0.0
H419 H 0.77178 0.53866 0.56788 0.0
C420 C 0.16784 0.70867 0.98471 0.0
C421 C 0.14992 0.7499 0.94447 0.0
C422 C 0.17463 0.83105 1.03735 0.0
C423 C 0.19967 0.79433 0.07522 0.0
N424 N 0.21863 0.69734 0.0881 0.0
N425 N 0.14194 0.8534 0.92881 0.0
C426 C 0.19569 0.73265 0.04979 0.0
C427 C 0.15452 0.81172 0.96992 0.0
N428 N 0.15781 0.64665 0.96046 0.0
N429 N 0.16845 0.88347 0.06631 0.0
H430 H 0.1238 0.83977 0.87999 0.0
H431 H 0.1538 0.90368 0.94137 0.0
H432 H 0.18582 0.90212 0.11436 0.0
H433 H 0.1423 0.90598 0.04428 0.0
H434 H 0.1643 0.61079 0.98826 0.0
H435 H 0.13925 0.62883 0.91245 0.0
H436 H 0.22228 0.65498 0.07152 0.0
H437 H 0.23607 0.71158 0.13705 0.0
C438 C 0.28488 0.13153 0.4461 0.0
C439 C 0.34839 0.17938 0.47577 0.0
C440 C 0.40684 0.18006 0.37173 0.0
C441 C 0.34505 0.12382 0.34651 0.0
N442 N 0.22735 0.03657 0.36847 0.0
N443 N 0.47196 0.23624 0.47092 0.0
C444 C 0.28446 0.09703 0.38602 0.0
C445 C 0.41008 0.20027 0.43974 0.0
N446 N 0.22478 0.1198 0.47455 0.0
N447 N 0.4618 0.21634 0.33035 0.0
H448 H 0.47723 0.25135 0.52094 0.0
H449 H 0.51707 0.24375 0.4487 0.0
H450 H 0.46036 0.20637 0.2792 0.0
H451 H 0.50583 0.26132 0.34542 0.0
H452 H 0.17731 0.09022 0.45155 0.0
H453 H 0.22307 0.14561 0.51749 0.0
H454 H 0.18447 0.01155 0.39942 0.0
H455 H 0.2258 0.0076 0.32688 0.0
C456 C 0.21278 0.61411 0.31738 0.0
C457 C 0.15958 0.57943 0.27031 0.0
C458 C 0.09087 0.6177 0.33368 0.0
C459 C 0.1387 0.6374 0.38715 0.0
N460 N 0.24066 0.64324 0.43313 0.0
N461 N 0.05473 0.56557 0.22364 0.0
C462 C 0.19741 0.63061 0.38048 0.0
C463 C 0.10025 0.58635 0.27533 0.0
N464 N 0.27928 0.63805 0.2995 0.0
N465 N 0.03867 0.63222 0.33793 0.0
H466 H 0.06725 0.55642 0.17588 0.0
H467 H 0.00606 0.55987 0.22723 0.0
H468 H 0.02794 0.65033 0.38194 0.0
H469 H 0.00747 0.62851 0.29795 0.0
H470 H 0.32011 0.67082 0.33029 0.0
H471 H 0.29318 0.63499 0.25045 0.0
H472 H 0.28217 0.63467 0.43026 0.0
H473 H 0.23103 0.655 0.48096 0.0
C474 C 0.54706 0.14315 0.6791 0.0
C475 C 0.60038 0.1299 0.69726 0.0
C476 C 0.55521 0.1032 0.81229 0.0
C477 C 0.50125 0.11518 0.79341 0.0
N478 N 0.43245 0.11911 0.70271 0.0
N479 N 0.63925 0.07292 0.77409 0.0
C480 C 0.49276 0.12579 0.72473 0.0
C481 C 0.59909 0.10172 0.76164 0.0
N482 N 0.54983 0.17699 0.621 0.0
N483 N 0.56775 0.09767 0.87817 0.0
H484 H 0.66944 0.0682 0.73708 0.0
H485 H 0.63636 0.04675 0.81836 0.0
H486 H 0.53831 0.10037 0.91704 0.0
H487 H 0.61111 0.09642 0.89435 0.0
H488 H 0.51597 0.19493 0.61055 0.0
H489 H 0.58898 0.19337 0.58596 0.0
H490 H 0.42154 0.11933 0.65208 0.0
H491 H 0.39056 0.10451 0.73419 0.0
C492 C 0.33988 0.59615 0.04982 0.0
C493 C 0.32026 0.52507 0.05446 0.0
C494 C 0.38858 0.53641 0.95489 0.0
C495 C 0.40195 0.60552 0.94709 0.0
N496 N 0.37469 0.69427 0.97642 0.0
N497 N 0.31447 0.42347 1.00412 0.0
C498 C 0.37275 0.63326 0.99137 0.0
C499 C 0.34144 0.4938 1.00504 0.0
N500 N 0.3282 0.62854 0.10201 0.0
N501 N 0.42253 0.51233 0.91649 0.0
H502 H 0.28135 0.39084 1.04106 0.0
H503 H 0.32179 0.39734 0.9645 0.0
H504 H 0.45675 0.54184 0.87869 0.0
H505 H 0.42024 0.46498 0.92541 0.0
H506 H 0.34761 0.68204 0.10387 0.0
H507 H 0.30537 0.60273 0.14637 0.0
H508 H 0.34877 0.71372 1.00423 0.0
H509 H 0.39577 0.72122 0.93196 0.0
C510 C 0.83923 0.41304 0.43826 0.0
C511 C 0.77847 0.36636 0.47242 0.0
C512 C 0.71106 0.3973 0.39981 0.0
C513 C 0.77124 0.4406 0.36193 0.0
N514 N 0.89244 0.48817 0.34264 0.0
N515 N 0.66235 0.33067 0.50156 0.0
C516 C 0.83546 0.44831 0.38052 0.0
C517 C 0.71599 0.3636 0.45803 0.0
N518 N 0.9008 0.42753 0.46466 0.0
N519 N 0.64861 0.38543 0.37776 0.0
H520 H 0.66576 0.30658 0.54502 0.0
H521 H 0.61815 0.33441 0.49927 0.0
H522 H 0.64196 0.40494 0.33266 0.0
H523 H 0.60246 0.35175 0.40104 0.0
H524 H 0.94752 0.46815 0.44819 0.0
H525 H 0.90427 0.40472 0.50898 0.0
H526 H 0.93844 0.48831 0.34855 0.0
H527 H 0.8928 0.518 0.30228 0.0
C528 C 0.41135 0.8558 0.61472 0.0
C529 C 0.34222 0.80086 0.61412 0.0
C530 C 0.36059 0.75267 0.71719 0.0
C531 C 0.43044 0.80548 0.71645 0.0
N532 N 0.52485 0.90499 0.66393 0.0
N533 N 0.25623 0.68801 0.65329 0.0
C534 C 0.45655 0.8564 0.66486 0.0
C535 C 0.31832 0.74686 0.66232 0.0
N536 N 0.43307 0.90848 0.56901 0.0
N537 N 0.33457 0.70754 0.76992 0.0
H538 H 0.2258 0.68049 0.61131 0.0
H539 H 0.23817 0.64378 0.68301 0.0
H540 H 0.36419 0.70757 0.80986 0.0
H541 H 0.28239 0.6735 0.77691 0.0
H542 H 0.48015 0.95415 0.57132 0.0
H543 H 0.40235 0.90869 0.53022 0.0
H544 H 0.54953 0.93835 0.62399 0.0
H545 H 0.55795 0.91062 0.70299 0.0
C546 C 0.51855 0.40847 0.11275 0.0
C547 C 0.56711 0.39692 0.14723 0.0
C548 C 0.54623 0.30336 0.07052 0.0
C549 C 0.49499 0.31175 1.03745 0.0
N550 N 0.4205 0.36138 1.03935 0.0
N551 N 0.60913 0.31942 0.17325 0.0
C552 C 0.47757 0.36116 0.06191 0.0
C553 C 0.57424 0.33909 0.13102 0.0
N554 N 0.51375 0.46625 0.12577 0.0
N555 N 0.57023 0.26336 0.04262 0.0
H556 H 0.63006 0.34538 0.21818 0.0
H557 H 0.61039 0.27346 0.16729 0.0
H558 H 0.55542 0.24118 0.99519 0.0
H559 H 0.60979 0.25806 0.06329 0.0
H560 H 0.48681 0.48245 0.0953 0.0
H561 H 0.53945 0.50004 0.16502 0.0
H562 H 0.40128 0.39022 0.06227 0.0
H563 H 0.38876 0.32844 1.00214 0.0
loop_
_geom_bond_atom_site_label_1
_geom_bond_atom_site_label_2
_geom_bond_distance
_geom_bond_site_symmetry_2
_ccdc_geom_bond_type
Tb0 C10 2.825 . S
Tb0 O11 2.347 . S
Tb0 O14 2.366 . S
Tb0 O19 2.418 . S
Tb0 O20 2.384 . S
Tb0 O23 2.479 . S
Tb0 O24 2.471 . S
Eu1 O12 2.418 . S
Eu1 O13 2.384 . S
Eu1 O16 2.479 1_554 S
Eu1 O17 2.471 1_554 S
Eu1 O18 2.347 . S
Eu1 O21 2.366 . S
Eu1 C31 2.825 1_554 S
C2 O18 1.259 . S
C2 O19 1.265 . S
C3 O20 1.255 . S
C3 O21 1.265 . S
C4 C6 1.380 . S
C4 C7 1.374 . S
C4 C10 1.507 . S
C5 C6 1.384 . S
C5 C9 1.387 . S
C5 H32 0.930 . S
C6 C4 1.380 . S
C6 C5 1.384 . S
C6 H33 0.931 . S
C7 C4 1.374 . S
C7 C8 1.390 . S
C7 H34 0.930 . S
C8 C7 1.390 . S
C8 C9 1.391 . S
C8 H35 0.930 . S
C9 C5 1.387 . S
C9 C8 1.391 . S
C10 Tb0 2.825 . S
C10 C4 1.507 . S
C10 O23 1.238 . S
C10 O24 1.247 . S
O11 Tb0 2.347 . S
O11 C15 1.259 . S
O12 Eu1 2.418 . S
O12 C15 1.265 . S
O13 Eu1 2.384 . S
O13 C22 1.255 . S
O14 Tb0 2.366 . S
O14 C22 1.265 . S
C15 O11 1.259 . S
C15 O12 1.265 . S
O16 Eu1 2.479 1_556 S
O16 C31 1.238 . S
O17 Eu1 2.471 1_556 S
O17 C31 1.247 . S
O18 Eu1 2.347 . S
O18 C2 1.259 . S
O19 Tb0 2.418 . S
O19 C2 1.265 . S
O20 Tb0 2.384 . S
O20 C3 1.255 . S
O21 Eu1 2.366 . S
O21 C3 1.265 . S
C22 O13 1.255 . S
C22 O14 1.265 . S
O23 Tb0 2.479 . S
O23 C10 1.238 . S
O24 Tb0 2.471 . S
O24 C10 1.247 . S
C25 C28 1.380 . S
C25 C29 1.374 . S
C25 C31 1.507 . S
C26 C27 1.387 . S
C26 C30 1.391 . S
C27 C26 1.387 . S
C27 C28 1.384 . S
C27 H36 0.930 . S
C28 C25 1.380 . S
C28 C27 1.384 . S
C28 H37 0.931 . S
C29 C25 1.374 . S
C29 C30 1.390 . S
C29 H38 0.930 . S
C30 C26 1.391 . S
C30 C29 1.390 . S
C30 H39 0.930 . S
C31 Eu1 2.825 1_556 S
C31 O16 1.238 . S
C31 O17 1.247 . S
C31 C25 1.507 . S
H32 C5 0.930 . S
H33 C6 0.931 . S
H34 C7 0.930 . S
H35 C8 0.930 . S
H36 C27 0.930 . S
H37 C28 0.931 . S
H38 C29 0.930 . S
H39 C30 0.930 . S
Tb40 C50 2.825 . S
Tb40 O51 2.347 . S
Tb40 O54 2.366 . S
Tb40 O59 2.418 . S
Tb40 O60 2.384 . S
Tb40 O63 2.479 . S
Tb40 O64 2.471 . S
Eu41 O52 2.418 . S
Eu41 O53 2.384 . S
Eu41 O56 2.479 . S
Eu41 O57 2.471 . S
Eu41 O58 2.347 . S
Eu41 O61 2.366 . S
Eu41 C71 2.825 . S
C42 O58 1.259 . S
C42 O59 1.265 . S
C43 O60 1.255 . S
C43 O61 1.265 . S
C44 C46 1.380 . S
C44 C47 1.374 . S
C44 C50 1.507 . S
C45 C46 1.384 . S
C45 C49 1.387 . S
C45 H72 0.930 . S
C46 C44 1.380 . S
C46 C45 1.384 . S
C46 H73 0.931 . S
C47 C44 1.374 . S
C47 C48 1.390 . S
C47 H74 0.930 . S
C48 C47 1.390 . S
C48 C49 1.391 . S
C48 H75 0.930 . S
C49 C45 1.387 . S
C49 C48 1.391 . S
C50 Tb40 2.825 . S
C50 C44 1.507 . S
C50 O63 1.238 . S
C50 O64 1.247 . S
O51 Tb40 2.347 . S
O51 C55 1.259 . S
O52 Eu41 2.418 . S
O52 C55 1.265 . S
O53 Eu41 2.384 . S
O53 C62 1.255 . S
O54 Tb40 2.366 . S
O54 C62 1.265 . S
C55 O51 1.259 . S
C55 O52 1.265 . S
O56 Eu41 2.479 . S
O56 C71 1.238 . S
O57 Eu41 2.471 . S
O57 C71 1.247 . S
O58 Eu41 2.347 . S
O58 C42 1.259 . S
O59 Tb40 2.418 . S
O59 C42 1.265 . S
O60 Tb40 2.384 . S
O60 C43 1.255 . S
O61 Eu41 2.366 . S
O61 C43 1.265 . S
C62 O53 1.255 . S
C62 O54 1.265 . S
O63 Tb40 2.479 . S
O63 C50 1.238 . S
O64 Tb40 2.471 . S
O64 C50 1.247 . S
C65 C68 1.380 . S
C65 C69 1.374 . S
C65 C71 1.507 . S
C66 C67 1.387 . S
C66 C70 1.391 . S
C67 C66 1.387 . S
C67 C68 1.384 . S
C67 H76 0.930 . S
C68 C65 1.380 . S
C68 C67 1.384 . S
C68 H77 0.931 . S
C69 C65 1.374 . S
C69 C70 1.390 . S
C69 H78 0.930 . S
C70 C66 1.391 . S
C70 C69 1.390 . S
C70 H79 0.930 . S
C71 Eu41 2.825 . S
C71 O56 1.238 . S
C71 O57 1.247 . S
C71 C65 1.507 . S
H72 C45 0.930 . S
H73 C46 0.931 . S
H74 C47 0.930 . S
H75 C48 0.930 . S
H76 C67 0.930 . S
H77 C68 0.931 . S
H78 C69 0.930 . S
H79 C70 0.930 . S
Tb80 C90 2.825 . S
Tb80 O91 2.347 . S
Tb80 O94 2.366 . S
Tb80 O99 2.418 . S
Tb80 O100 2.384 . S
Tb80 O103 2.479 . S
Tb80 O104 2.471 . S
Eu81 O92 2.418 . S
Eu81 O93 2.384 . S
Eu81 O96 2.479 . S
Eu81 O97 2.471 . S
Eu81 O98 2.347 . S
Eu81 O101 2.366 . S
Eu81 C111 2.825 . S
C82 O98 1.259 . S
C82 O99 1.265 . S
C83 O100 1.255 . S
C83 O101 1.265 . S
C84 C86 1.380 . S
C84 C87 1.374 . S
C84 C90 1.507 1_554 S
C85 C86 1.384 . S
C85 C89 1.387 . S
C85 H112 0.930 . S
C86 C84 1.380 . S
C86 C85 1.384 . S
C86 H113 0.931 . S
C87 C84 1.374 . S
C87 C88 1.390 . S
C87 H114 0.930 . S
C88 C87 1.390 . S
C88 C89 1.391 . S
C88 H115 0.930 . S
C89 C85 1.387 . S
C89 C88 1.391 . S
C90 Tb80 2.825 . S
C90 C84 1.507 1_556 S
C90 O103 1.238 . S
C90 O104 1.247 . S
O91 Tb80 2.347 . S
O91 C95 1.259 . S
O92 Eu81 2.418 . S
O92 C95 1.265 . S
O93 Eu81 2.384 . S
O93 C102 1.255 . S
O94 Tb80 2.366 . S
O94 C102 1.265 . S
C95 O91 1.259 . S
C95 O92 1.265 . S
O96 Eu81 2.479 . S
O96 C111 1.238 . S
O97 Eu81 2.471 . S
O97 C111 1.247 . S
O98 Eu81 2.347 . S
O98 C82 1.259 . S
O99 Tb80 2.418 . S
O99 C82 1.265 . S
O100 Tb80 2.384 . S
O100 C83 1.255 . S
O101 Eu81 2.366 . S
O101 C83 1.265 . S
C102 O93 1.255 . S
C102 O94 1.265 . S
O103 Tb80 2.479 . S
O103 C90 1.238 . S
O104 Tb80 2.471 . S
O104 C90 1.247 . S
C105 C108 1.380 . S
C105 C109 1.374 . S
C105 C111 1.507 . S
C106 C107 1.387 . S
C106 C110 1.391 . S
C107 C106 1.387 . S
C107 C108 1.384 . S
C107 H116 0.930 . S
C108 C105 1.380 . S
C108 C107 1.384 . S
C108 H117 0.931 . S
C109 C105 1.374 . S
C109 C110 1.390 . S
C109 H118 0.930 . S
C110 C106 1.391 . S
C110 C109 1.390 . S
C110 H119 0.930 . S
C111 Eu81 2.825 . S
C111 O96 1.238 . S
C111 O97 1.247 . S
C111 C105 1.507 . S
H112 C85 0.930 . S
H113 C86 0.931 . S
H114 C87 0.930 . S
H115 C88 0.930 . S
H116 C107 0.930 . S
H117 C108 0.931 . S
H118 C109 0.930 . S
H119 C110 0.930 . S
Tb120 C130 2.825 . S
Tb120 O131 2.347 . S
Tb120 O134 2.366 . S
Tb120 O139 2.418 . S
Tb120 O140 2.384 . S
Tb120 O143 2.479 . S
Tb120 O144 2.471 . S
Eu121 O132 2.418 . S
Eu121 O133 2.384 . S
Eu121 O136 2.479 . S
Eu121 O137 2.471 . S
Eu121 O138 2.347 . S
Eu121 O141 2.366 . S
Eu121 C151 2.825 . S
C122 O138 1.259 . S
C122 O139 1.265 . S
C123 O140 1.255 . S
C123 O141 1.265 . S
C124 C126 1.380 . S
C124 C127 1.374 . S
C124 C130 1.507 1_556 S
C125 C126 1.384 . S
C125 C129 1.387 . S
C125 H152 0.930 . S
C126 C124 1.380 . S
C126 C125 1.384 . S
C126 H153 0.931 . S
C127 C124 1.374 . S
C127 C128 1.390 . S
C127 H154 0.930 . S
C128 C127 1.390 . S
C128 C129 1.391 . S
C128 H155 0.930 . S
C129 C125 1.387 . S
C129 C128 1.391 . S
C130 Tb120 2.825 . S
C130 C124 1.507 1_554 S
C130 O143 1.238 . S
C130 O144 1.247 . S
O131 Tb120 2.347 . S
O131 C135 1.259 . S
O132 Eu121 2.418 . S
O132 C135 1.265 . S
O133 Eu121 2.384 . S
O133 C142 1.255 . S
O134 Tb120 2.366 . S
O134 C142 1.265 . S
C135 O131 1.259 . S
C135 O132 1.265 . S
O136 Eu121 2.479 . S
O136 C151 1.238 . S
O137 Eu121 2.471 . S
O137 C151 1.247 . S
O138 Eu121 2.347 . S
O138 C122 1.259 . S
O139 Tb120 2.418 . S
O139 C122 1.265 . S
O140 Tb120 2.384 . S
O140 C123 1.255 . S
O141 Eu121 2.366 . S
O141 C123 1.265 . S
C142 O133 1.255 . S
C142 O134 1.265 . S
O143 Tb120 2.479 . S
O143 C130 1.238 . S
O144 Tb120 2.471 . S
O144 C130 1.247 . S
C145 C148 1.380 . S
C145 C149 1.374 . S
C145 C151 1.507 . S
C146 C147 1.387 . S
C146 C150 1.391 . S
C147 C146 1.387 . S
C147 C148 1.384 . S
C147 H156 0.930 . S
C148 C145 1.380 . S
C148 C147 1.384 . S
C148 H157 0.931 . S
C149 C145 1.374 . S
C149 C150 1.390 . S
C149 H158 0.930 . S
C150 C146 1.391 . S
C150 C149 1.390 . S
C150 H159 0.930 . S
C151 Eu121 2.825 . S
C151 O136 1.238 . S
C151 O137 1.247 . S
C151 C145 1.507 . S
H152 C125 0.930 . S
H153 C126 0.931 . S
H154 C127 0.930 . S
H155 C128 0.930 . S
H156 C147 0.930 . S
H157 C148 0.931 . S
H158 C149 0.930 . S
H159 C150 0.930 . S
Tb160 C170 2.825 . S
Tb160 O171 2.347 . S
Tb160 O174 2.366 . S
Tb160 O179 2.418 . S
Tb160 O180 2.384 . S
Tb160 O183 2.479 . S
Tb160 O184 2.471 . S
Eu161 O172 2.418 . S
Eu161 O173 2.384 . S
Eu161 O176 2.479 . S
Eu161 O177 2.471 . S
Eu161 O178 2.347 . S
Eu161 O181 2.366 . S
Eu161 C191 2.825 . S
C162 O178 1.259 . S
C162 O179 1.265 . S
C163 O180 1.255 . S
C163 O181 1.265 . S
C164 C166 1.380 . S
C164 C167 1.374 . S
C164 C170 1.507 . S
C165 C166 1.384 . S
C165 C169 1.387 . S
C165 H192 0.930 . S
C166 C164 1.380 . S
C166 C165 1.384 . S
C166 H193 0.931 . S
C167 C164 1.374 . S
C167 C168 1.390 . S
C167 H194 0.930 . S
C168 C167 1.390 . S
C168 C169 1.391 . S
C168 H195 0.930 . S
C169 C165 1.387 . S
C169 C168 1.391 . S
C170 Tb160 2.825 . S
C170 C164 1.507 . S
C170 O183 1.238 . S
C170 O184 1.247 . S
O171 Tb160 2.347 . S
O171 C175 1.259 . S
O172 Eu161 2.418 . S
O172 C175 1.265 . S
O173 Eu161 2.384 . S
O173 C182 1.255 . S
O174 Tb160 2.366 . S
O174 C182 1.265 . S
C175 O171 1.259 . S
C175 O172 1.265 . S
O176 Eu161 2.479 . S
O176 C191 1.238 . S
O177 Eu161 2.471 . S
O177 C191 1.247 . S
O178 Eu161 2.347 . S
O178 C162 1.259 . S
O179 Tb160 2.418 . S
O179 C162 1.265 . S
O180 Tb160 2.384 . S
O180 C163 1.255 . S
O181 Eu161 2.366 . S
O181 C163 1.265 . S
C182 O173 1.255 . S
C182 O174 1.265 . S
O183 Tb160 2.479 . S
O183 C170 1.238 . S
O184 Tb160 2.471 . S
O184 C170 1.247 . S
C185 C188 1.380 . S
C185 C189 1.374 . S
C185 C191 1.507 . S
C186 C187 1.387 . S
C186 C190 1.391 . S
C187 C186 1.387 . S
C187 C188 1.384 . S
C187 H196 0.930 . S
C188 C185 1.380 . S
C188 C187 1.384 . S
C188 H197 0.931 . S
C189 C185 1.374 . S
C189 C190 1.390 . S
C189 H198 0.930 . S
C190 C186 1.391 . S
C190 C189 1.390 . S
C190 H199 0.930 . S
C191 Eu161 2.825 . S
C191 O176 1.238 . S
C191 O177 1.247 . S
C191 C185 1.507 . S
H192 C165 0.930 . S
H193 C166 0.931 . S
H194 C167 0.930 . S
H195 C168 0.930 . S
H196 C187 0.930 . S
H197 C188 0.931 . S
H198 C189 0.930 . S
H199 C190 0.930 . S
Tb200 C210 2.825 . S
Tb200 O211 2.347 . S
Tb200 O214 2.366 . S
Tb200 O219 2.418 . S
Tb200 O220 2.384 . S
Tb200 O223 2.479 . S
Tb200 O224 2.471 . S
Eu201 O212 2.418 . S
Eu201 O213 2.384 . S
Eu201 O216 2.479 1_556 S
Eu201 O217 2.471 1_556 S
Eu201 O218 2.347 . S
Eu201 O221 2.366 . S
Eu201 C231 2.825 1_556 S
C202 O218 1.259 . S
C202 O219 1.265 . S
C203 O220 1.255 . S
C203 O221 1.265 . S
C204 C206 1.380 . S
C204 C207 1.374 . S
C204 C210 1.507 . S
C205 C206 1.384 . S
C205 C209 1.387 . S
C205 H232 0.930 . S
C206 C204 1.380 . S
C206 C205 1.384 . S
C206 H233 0.931 . S
C207 C204 1.374 . S
C207 C208 1.390 . S
C207 H234 0.930 . S
C208 C207 1.390 . S
C208 C209 1.391 . S
C208 H235 0.930 . S
C209 C205 1.387 . S
C209 C208 1.391 . S
C210 Tb200 2.825 . S
C210 C204 1.507 . S
C210 O223 1.238 . S
C210 O224 1.247 . S
O211 Tb200 2.347 . S
O211 C215 1.259 . S
O212 Eu201 2.418 . S
O212 C215 1.265 . S
O213 Eu201 2.384 . S
O213 C222 1.255 . S
O214 Tb200 2.366 . S
O214 C222 1.265 . S
C215 O211 1.259 . S
C215 O212 1.265 . S
O216 Eu201 2.479 1_554 S
O216 C231 1.238 . S
O217 Eu201 2.471 1_554 S
O217 C231 1.247 . S
O218 Eu201 2.347 . S
O218 C202 1.259 . S
O219 Tb200 2.418 . S
O219 C202 1.265 . S
O220 Tb200 2.384 . S
O220 C203 1.255 . S
O221 Eu201 2.366 . S
O221 C203 1.265 . S
C222 O213 1.255 . S
C222 O214 1.265 . S
O223 Tb200 2.479 . S
O223 C210 1.238 . S
O224 Tb200 2.471 . S
O224 C210 1.247 . S
C225 C228 1.380 . S
C225 C229 1.374 . S
C225 C231 1.507 . S
C226 C227 1.387 . S
C226 C230 1.391 . S
C227 C226 1.387 . S
C227 C228 1.384 . S
C227 H236 0.930 . S
C228 C225 1.380 . S
C228 C227 1.384 . S
C228 H237 0.931 . S
C229 C225 1.374 . S
C229 C230 1.390 . S
C229 H238 0.930 . S
C230 C226 1.391 . S
C230 C229 1.390 . S
C230 H239 0.930 . S
C231 Eu201 2.825 1_554 S
C231 O216 1.238 . S
C231 O217 1.247 . S
C231 C225 1.507 . S
H232 C205 0.930 . S
H233 C206 0.931 . S
H234 C207 0.930 . S
H235 C208 0.930 . S
H236 C227 0.930 . S
H237 C228 0.931 . S
H238 C229 0.930 . S
H239 C230 0.930 . S
C240 C241 1.363 . S
C240 C246 1.379 1_556 S
C240 N248 1.356 . S
C241 C240 1.363 . S
C241 C247 1.363 . S
C242 C243 1.363 1_556 S
C242 C247 1.379 . S
C242 N249 1.356 1_556 S
C243 C242 1.363 1_554 S
C243 C246 1.363 . S
N244 C246 1.356 . S
N244 H256 0.984 . S
N244 H257 0.985 . S
N245 C247 1.356 . S
N245 H250 0.984 . S
N245 H251 0.985 . S
C246 C240 1.379 1_554 S
C246 C243 1.363 . S
C246 N244 1.356 . S
C247 C241 1.363 . S
C247 C242 1.379 . S
C247 N245 1.356 . S
N248 C240 1.356 . S
N248 H254 0.984 1_556 S
N248 H255 0.984 . S
N249 C242 1.356 1_554 S
N249 H252 0.984 . S
N249 H253 0.985 1_554 S
H250 N245 0.984 . S
H251 N245 0.985 . S
H252 N249 0.984 . S
H253 N249 0.985 1_556 S
H254 N248 0.984 1_554 S
H255 N248 0.984 . S
H256 N244 0.984 . S
H257 N244 0.985 . S
C258 C259 1.363 . S
C258 C264 1.379 . S
C258 N266 1.356 . S
C259 C258 1.363 . S
C259 C265 1.363 1_455 S
C260 C261 1.363 . S
C260 C265 1.379 . S
C260 N267 1.356 . S
C261 C260 1.363 . S
C261 C264 1.363 1_655 S
N262 C264 1.356 . S
N262 H274 0.984 . S
N262 H275 0.985 . S
N263 C265 1.356 . S
N263 H268 0.984 . S
N263 H269 0.985 . S
C264 C258 1.379 . S
C264 C261 1.363 1_455 S
C264 N262 1.356 . S
C265 C259 1.363 1_655 S
C265 C260 1.379 . S
C265 N263 1.356 . S
N266 C258 1.356 . S
N266 H272 0.984 . S
N266 H273 0.984 . S
N267 C260 1.356 . S
N267 H270 0.984 . S
N267 H271 0.985 . S
H268 N263 0.984 . S
H269 N263 0.985 . S
H270 N267 0.984 . S
H271 N267 0.985 . S
H272 N266 0.984 . S
H273 N266 0.984 . S
H274 N262 0.984 . S
H275 N262 0.985 . S
C276 C277 1.363 . S
C276 C282 1.379 . S
C276 N284 1.356 . S
C277 C276 1.363 . S
C277 C283 1.363 1_545 S
C278 C279 1.363 . S
C278 C283 1.379 . S
C278 N285 1.356 . S
C279 C278 1.363 . S
C279 C282 1.363 1_565 S
N280 C282 1.356 1_565 S
N280 H292 0.984 1_565 S
N280 H293 0.985 . S
N281 C283 1.356 1_545 S
N281 H286 0.984 . S
N281 H287 0.985 1_545 S
C282 C276 1.379 . S
C282 C279 1.363 1_545 S
C282 N280 1.356 1_545 S
C283 C277 1.363 1_565 S
C283 C278 1.379 . S
C283 N281 1.356 1_565 S
N284 C276 1.356 . S
N284 H290 0.984 . S
N284 H291 0.984 . S
N285 C278 1.356 . S
N285 H288 0.984 . S
N285 H289 0.985 . S
H286 N281 0.984 . S
H287 N281 0.985 1_565 S
H288 N285 0.984 . S
H289 N285 0.985 . S
H290 N284 0.984 . S
H291 N284 0.984 . S
H292 N280 0.984 1_545 S
H293 N280 0.985 . S
C294 C295 1.363 . S
C294 C300 1.379 1_556 S
C294 N302 1.356 . S
C295 C294 1.363 . S
C295 C301 1.363 . S
C296 C297 1.363 . S
C296 C301 1.379 1_554 S
C296 N303 1.356 . S
C297 C296 1.363 . S
C297 C300 1.363 . S
N298 C300 1.356 . S
N298 H310 0.984 . S
N298 H311 0.985 . S
N299 C301 1.356 . S
N299 H304 0.984 . S
N299 H305 0.985 . S
C300 C294 1.379 1_554 S
C300 C297 1.363 . S
C300 N298 1.356 . S
C301 C295 1.363 . S
C301 C296 1.379 1_556 S
C301 N299 1.356 . S
N302 C294 1.356 . S
N302 H308 0.984 . S
N302 H309 0.984 . S
N303 C296 1.356 . S
N303 H306 0.984 . S
N303 H307 0.985 . S
H304 N299 0.984 . S
H305 N299 0.985 . S
H306 N303 0.984 . S
H307 N303 0.985 . S
H308 N302 0.984 . S
H309 N302 0.984 . S
H310 N298 0.984 . S
H311 N298 0.985 . S
C312 C313 1.363 . S
C312 C318 1.379 . S
C312 N320 1.356 . S
C313 C312 1.363 . S
C313 C319 1.363 1_455 S
C314 C315 1.363 . S
C314 C319 1.379 . S
C314 N321 1.356 . S
C315 C314 1.363 . S
C315 C318 1.363 1_655 S
N316 C318 1.356 1_655 S
N316 H328 0.984 1_655 S
N316 H329 0.985 . S
N317 C319 1.356 1_455 S
N317 H322 0.984 . S
N317 H323 0.985 1_455 S
C318 C312 1.379 . S
C318 C315 1.363 1_455 S
C318 N316 1.356 1_455 S
C319 C313 1.363 1_655 S
C319 C314 1.379 . S
C319 N317 1.356 1_655 S
N320 C312 1.356 . S
N320 H326 0.984 . S
N320 H327 0.984 . S
N321 C314 1.356 . S
N321 H324 0.984 . S
N321 H325 0.985 . S
H322 N317 0.984 . S
H323 N317 0.985 1_655 S
H324 N321 0.984 . S
H325 N321 0.985 . S
H326 N320 0.984 . S
H327 N320 0.984 . S
H328 N316 0.984 1_455 S
H329 N316 0.985 . S
C330 C331 1.363 1_565 S
C330 C336 1.379 . S
C330 N338 1.356 . S
C331 C330 1.363 1_545 S
C331 C337 1.363 . S
C332 C333 1.363 1_545 S
C332 C337 1.379 . S
C332 N339 1.356 . S
C333 C332 1.363 1_565 S
C333 C336 1.363 . S
N334 C336 1.356 . S
N334 H346 0.984 . S
N334 H347 0.985 . S
N335 C337 1.356 . S
N335 H340 0.984 . S
N335 H341 0.985 . S
C336 C330 1.379 . S
C336 C333 1.363 . S
C336 N334 1.356 . S
C337 C331 1.363 . S
C337 C332 1.379 . S
C337 N335 1.356 . S
N338 C330 1.356 . S
N338 H344 0.984 . S
N338 H345 0.984 . S
N339 C332 1.356 . S
N339 H342 0.984 . S
N339 H343 0.985 . S
H340 N335 0.984 . S
H341 N335 0.985 . S
H342 N339 0.984 . S
H343 N339 0.985 . S
H344 N338 0.984 . S
H345 N338 0.984 . S
H346 N334 0.984 . S
H347 N334 0.985 . S
C348 C349 1.363 . S
C348 C354 1.379 . S
C348 N356 1.356 . S
C349 C348 1.363 . S
C349 C355 1.363 . S
C350 C351 1.363 . S
C350 C355 1.379 . S
C350 N357 1.356 . S
C351 C350 1.363 . S
C351 C354 1.363 . S
N352 C354 1.356 . S
N352 H364 0.984 . S
N352 H365 0.985 . S
N353 C355 1.356 . S
N353 H358 0.984 . S
N353 H359 0.985 . S
C354 C348 1.379 . S
C354 C351 1.363 . S
C354 N352 1.356 . S
C355 C349 1.363 . S
C355 C350 1.379 . S
C355 N353 1.356 . S
N356 C348 1.356 . S
N356 H362 0.984 . S
N356 H363 0.984 . S
N357 C350 1.356 . S
N357 H360 0.984 . S
N357 H361 0.985 . S
H358 N353 0.984 . S
H359 N353 0.985 . S
H360 N357 0.984 . S
H361 N357 0.985 . S
H362 N356 0.984 . S
H363 N356 0.984 . S
H364 N352 0.984 . S
H365 N352 0.985 . S
C366 C367 1.363 . S
C366 C372 1.379 . S
C366 N374 1.356 . S
C367 C366 1.363 . S
C367 C373 1.363 . S
C368 C369 1.363 . S
C368 C373 1.379 . S
C368 N375 1.356 . S
C369 C368 1.363 . S
C369 C372 1.363 . S
N370 C372 1.356 1_556 S
N370 H382 0.984 . S
N370 H383 0.985 . S
N371 C373 1.356 . S
N371 H376 0.984 . S
N371 H377 0.985 . S
C372 C366 1.379 . S
C372 C369 1.363 . S
C372 N370 1.356 1_554 S
C373 C367 1.363 . S
C373 C368 1.379 . S
C373 N371 1.356 . S
N374 C366 1.356 . S
N374 H380 0.984 . S
N374 H381 0.984 . S
N375 C368 1.356 . S
N375 H378 0.984 . S
N375 H379 0.985 . S
H376 N371 0.984 . S
H377 N371 0.985 . S
H378 N375 0.984 . S
H379 N375 0.985 . S
H380 N374 0.984 . S
H381 N374 0.984 . S
H382 N370 0.984 . S
H383 N370 0.985 . S
C384 C385 1.363 . S
C384 C390 1.379 . S
C384 N392 1.356 . S
C385 C384 1.363 . S
C385 C391 1.363 . S
C386 C387 1.363 . S
C386 C391 1.379 . S
C386 N393 1.356 . S
C387 C386 1.363 . S
C387 C390 1.363 . S
N388 C390 1.356 . S
N388 H400 0.984 . S
N388 H401 0.985 . S
N389 C391 1.356 . S
N389 H394 0.984 . S
N389 H395 0.985 . S
C390 C384 1.379 . S
C390 C387 1.363 . S
C390 N388 1.356 . S
C391 C385 1.363 . S
C391 C386 1.379 . S
C391 N389 1.356 . S
N392 C384 1.356 . S
N392 H398 0.984 . S
N392 H399 0.984 . S
N393 C386 1.356 . S
N393 H396 0.984 . S
N393 H397 0.985 . S
H394 N389 0.984 . S
H395 N389 0.985 . S
H396 N393 0.984 . S
H397 N393 0.985 . S
H398 N392 0.984 . S
H399 N392 0.984 . S
H400 N388 0.984 . S
H401 N388 0.985 . S
C402 C403 1.363 . S
C402 C408 1.379 . S
C402 N410 1.356 . S
C403 C402 1.363 . S
C403 C409 1.363 . S
C404 C405 1.363 . S
C404 C409 1.379 . S
C404 N411 1.356 . S
C405 C404 1.363 . S
C405 C408 1.363 . S
N406 C408 1.356 . S
N406 H418 0.984 . S
N406 H419 0.985 . S
N407 C409 1.356 . S
N407 H412 0.984 . S
N407 H413 0.985 . S
C408 C402 1.379 . S
C408 C405 1.363 . S
C408 N406 1.356 . S
C409 C403 1.363 . S
C409 C404 1.379 . S
C409 N407 1.356 . S
N410 C402 1.356 . S
N410 H416 0.984 . S
N410 H417 0.984 . S
N411 C404 1.356 . S
N411 H414 0.984 . S
N411 H415 0.985 . S
H412 N407 0.984 . S
H413 N407 0.985 . S
H414 N411 0.984 . S
H415 N411 0.985 . S
H416 N410 0.984 . S
H417 N410 0.984 . S
H418 N406 0.984 . S
H419 N406 0.985 . S
C420 C421 1.363 . S
C420 C426 1.379 . S
C420 N428 1.356 . S
C421 C420 1.363 . S
C421 C427 1.363 . S
C422 C423 1.363 . S
C422 C427 1.379 . S
C422 N429 1.356 1_556 S
C423 C422 1.363 . S
C423 C426 1.363 . S
N424 C426 1.356 . S
N424 H436 0.984 . S
N424 H437 0.985 . S
N425 C427 1.356 . S
N425 H430 0.984 . S
N425 H431 0.985 . S
C426 C420 1.379 . S
C426 C423 1.363 . S
C426 N424 1.356 . S
C427 C421 1.363 . S
C427 C422 1.379 . S
C427 N425 1.356 . S
N428 C420 1.356 . S
N428 H434 0.984 . S
N428 H435 0.984 . S
N429 C422 1.356 1_554 S
N429 H432 0.984 . S
N429 H433 0.985 . S
H430 N425 0.984 . S
H431 N425 0.985 . S
H432 N429 0.984 . S
H433 N429 0.985 . S
H434 N428 0.984 . S
H435 N428 0.984 . S
H436 N424 0.984 . S
H437 N424 0.985 . S
C438 C439 1.363 . S
C438 C444 1.379 . S
C438 N446 1.356 . S
C439 C438 1.363 . S
C439 C445 1.363 . S
C440 C441 1.363 . S
C440 C445 1.379 . S
C440 N447 1.356 . S
C441 C440 1.363 . S
C441 C444 1.363 . S
N442 C444 1.356 . S
N442 H454 0.984 . S
N442 H455 0.985 . S
N443 C445 1.356 . S
N443 H448 0.984 . S
N443 H449 0.985 . S
C444 C438 1.379 . S
C444 C441 1.363 . S
C444 N442 1.356 . S
C445 C439 1.363 . S
C445 C440 1.379 . S
C445 N443 1.356 . S
N446 C438 1.356 . S
N446 H452 0.984 . S
N446 H453 0.984 . S
N447 C440 1.356 . S
N447 H450 0.984 . S
N447 H451 0.985 . S
H448 N443 0.984 . S
H449 N443 0.985 . S
H450 N447 0.984 . S
H451 N447 0.985 . S
H452 N446 0.984 . S
H453 N446 0.984 . S
H454 N442 0.984 . S
H455 N442 0.985 . S
C456 C457 1.363 . S
C456 C462 1.379 . S
C456 N464 1.356 . S
C457 C456 1.363 . S
C457 C463 1.363 . S
C458 C459 1.363 . S
C458 C463 1.379 . S
C458 N465 1.356 . S
C459 C458 1.363 . S
C459 C462 1.363 . S
N460 C462 1.356 . S
N460 H472 0.984 . S
N460 H473 0.985 . S
N461 C463 1.356 . S
N461 H466 0.984 . S
N461 H467 0.985 . S
C462 C456 1.379 . S
C462 C459 1.363 . S
C462 N460 1.356 . S
C463 C457 1.363 . S
C463 C458 1.379 . S
C463 N461 1.356 . S
N464 C456 1.356 . S
N464 H470 0.984 . S
N464 H471 0.984 . S
N465 C458 1.356 . S
N465 H468 0.984 . S
N465 H469 0.985 . S
H466 N461 0.984 . S
H467 N461 0.985 . S
H468 N465 0.984 . S
H469 N465 0.985 . S
H470 N464 0.984 . S
H471 N464 0.984 . S
H472 N460 0.984 . S
H473 N460 0.985 . S
C474 C475 1.363 . S
C474 C480 1.379 . S
C474 N482 1.356 . S
C475 C474 1.363 . S
C475 C481 1.363 . S
C476 C477 1.363 . S
C476 C481 1.379 . S
C476 N483 1.356 . S
C477 C476 1.363 . S
C477 C480 1.363 . S
N478 C480 1.356 . S
N478 H490 0.984 . S
N478 H491 0.985 . S
N479 C481 1.356 . S
N479 H484 0.984 . S
N479 H485 0.985 . S
C480 C474 1.379 . S
C480 C477 1.363 . S
C480 N478 1.356 . S
C481 C475 1.363 . S
C481 C476 1.379 . S
C481 N479 1.356 . S
N482 C474 1.356 . S
N482 H488 0.984 . S
N482 H489 0.984 . S
N483 C476 1.356 . S
N483 H486 0.984 . S
N483 H487 0.985 . S
H484 N479 0.984 . S
H485 N479 0.985 . S
H486 N483 0.984 . S
H487 N483 0.985 . S
H488 N482 0.984 . S
H489 N482 0.984 . S
H490 N478 0.984 . S
H491 N478 0.985 . S
C492 C493 1.363 . S
C492 C498 1.379 . S
C492 N500 1.356 . S
C493 C492 1.363 . S
C493 C499 1.363 . S
C494 C495 1.363 . S
C494 C499 1.379 . S
C494 N501 1.356 . S
C495 C494 1.363 . S
C495 C498 1.363 . S
N496 C498 1.356 . S
N496 H508 0.984 . S
N496 H509 0.985 . S
N497 C499 1.356 . S
N497 H502 0.984 . S
N497 H503 0.985 . S
C498 C492 1.379 . S
C498 C495 1.363 . S
C498 N496 1.356 . S
C499 C493 1.363 . S
C499 C494 1.379 . S
C499 N497 1.356 . S
N500 C492 1.356 . S
N500 H506 0.984 . S
N500 H507 0.984 1_556 S
N501 C494 1.356 . S
N501 H504 0.984 . S
N501 H505 0.985 . S
H502 N497 0.984 . S
H503 N497 0.985 . S
H504 N501 0.984 . S
H505 N501 0.985 . S
H506 N500 0.984 . S
H507 N500 0.984 1_554 S
H508 N496 0.984 . S
H509 N496 0.985 . S
C510 C511 1.363 . S
C510 C516 1.379 . S
C510 N518 1.356 . S
C511 C510 1.363 . S
C511 C517 1.363 . S
C512 C513 1.363 . S
C512 C517 1.379 . S
C512 N519 1.356 . S
C513 C512 1.363 . S
C513 C516 1.363 . S
N514 C516 1.356 . S
N514 H526 0.984 . S
N514 H527 0.985 . S
N515 C517 1.356 . S
N515 H520 0.984 . S
N515 H521 0.985 . S
C516 C510 1.379 . S
C516 C513 1.363 . S
C516 N514 1.356 . S
C517 C511 1.363 . S
C517 C512 1.379 . S
C517 N515 1.356 . S
N518 C510 1.356 . S
N518 H524 0.984 . S
N518 H525 0.984 . S
N519 C512 1.356 . S
N519 H522 0.984 . S
N519 H523 0.985 . S
H520 N515 0.984 . S
H521 N515 0.985 . S
H522 N519 0.984 . S
H523 N519 0.985 . S
H524 N518 0.984 . S
H525 N518 0.984 . S
H526 N514 0.984 . S
H527 N514 0.985 . S
C528 C529 1.363 . S
C528 C534 1.379 . S
C528 N536 1.356 . S
C529 C528 1.363 . S
C529 C535 1.363 . S
C530 C531 1.363 . S
C530 C535 1.379 . S
C530 N537 1.356 . S
C531 C530 1.363 . S
C531 C534 1.363 . S
N532 C534 1.356 . S
N532 H544 0.984 . S
N532 H545 0.985 . S
N533 C535 1.356 . S
N533 H538 0.984 . S
N533 H539 0.985 . S
C534 C528 1.379 . S
C534 C531 1.363 . S
C534 N532 1.356 . S
C535 C529 1.363 . S
C535 C530 1.379 . S
C535 N533 1.356 . S
N536 C528 1.356 . S
N536 H542 0.984 . S
N536 H543 0.984 . S
N537 C530 1.356 . S
N537 H540 0.984 . S
N537 H541 0.985 . S
H538 N533 0.984 . S
H539 N533 0.985 . S
H540 N537 0.984 . S
H541 N537 0.985 . S
H542 N536 0.984 . S
H543 N536 0.984 . S
H544 N532 0.984 . S
H545 N532 0.985 . S
C546 C547 1.363 . S
C546 C552 1.379 . S
C546 N554 1.356 . S
C547 C546 1.363 . S
C547 C553 1.363 . S
C548 C549 1.363 . S
C548 C553 1.379 . S
C548 N555 1.356 . S
C549 C548 1.363 . S
C549 C552 1.363 . S
N550 C552 1.356 1_556 S
N550 H562 0.984 . S
N550 H563 0.985 . S
N551 C553 1.356 . S
N551 H556 0.984 . S
N551 H557 0.985 . S
C552 C546 1.379 . S
C552 C549 1.363 . S
C552 N550 1.356 1_554 S
C553 C547 1.363 . S
C553 C548 1.379 . S
C553 N551 1.356 . S
N554 C546 1.356 . S
N554 H560 0.984 . S
N554 H561 0.984 . S
N555 C548 1.356 . S
N555 H558 0.984 . S
N555 H559 0.985 . S
H556 N551 0.984 . S
H557 N551 0.985 . S
H558 N555 0.984 . S
H559 N555 0.985 . S
H560 N554 0.984 . S
H561 N554 0.984 . S
H562 N550 0.984 . S
H563 N550 0.985 . S
C241 C202 1.454 . S
C243 C2 1.453 . S
C259 C22 1.920 . S
C261 C62 1.920 . S
C277 C42 1.453 . S
C279 C82 1.453 . S
C295 C102 1.920 . S
C297 C142 1.920 . S
C313 C162 1.454 . S
C315 C122 1.454 . S
C331 C222 1.920 . S
C333 C182 1.920 . S
C349 C26 1.722 . S
C351 C9 1.722 . S
C367 C49 1.722 . S
C369 C66 1.722 1_554 S
C385 C106 1.722 . S
C387 C89 1.722 . S
C403 C129 1.722 . S
C405 C146 1.722 . S
C421 C169 1.722 . S
C423 C186 1.722 1_556 S
C439 C209 1.722 . S
C441 C226 1.722 . S
C457 C15 1.953 . S
C459 C163 1.957 . S
C475 C43 1.957 . S
C477 C215 1.953 . S
C493 C3 1.957 1_556 S
C495 C95 1.953 . S
C511 C55 1.952 . S
C513 C123 1.957 . S
C529 C175 1.953 . S
C531 C83 1.957 . S
C547 C135 1.953 . S
C549 C203 1.957 1_554 S
