# Generated by pormake.
# Topology ukt, (4)-cn, num edge types: 1
# Building blocks:
#     Node 0, Type 0, BuildingBlock: UXUYUI_clean_sbu_0, # of connection points: 4
#     Node 1, Type 0, BuildingBlock: UXUYUI_clean_sbu_0, # of connection points: 4
#     Node 2, Type 0, BuildingBlock: UXUYUI_clean_sbu_0, # of connection points: 4
#     Node 3, Type 0, BuildingBlock: UXUYUI_clean_sbu_0, # of connection points: 4
#     Node 4, Type 0, BuildingBlock: UXUYUI_clean_sbu_0, # of connection points: 4
#     Node 5, Type 0, BuildingBlock: UXUYUI_clean_sbu_0, # of connection points: 4
#     Node 6, Type 0, BuildingBlock: UXUYUI_clean_sbu_0, # of connection points: 4
#     Node 7, Type 0, BuildingBlock: UXUYUI_clean_sbu_0, # of connection points: 4
#     Node 8, Type 0, BuildingBlock: UXUYUI_clean_sbu_0, # of connection points: 4
#     Node 9, Type 0, BuildingBlock: UXUYUI_clean_sbu_0, # of connection points: 4
#     Node 10, Type 0, BuildingBlock: UXUYUI_clean_sbu_0, # of connection points: 4
#     Node 11, Type 0, BuildingBlock: UXUYUI_clean_sbu_0, # of connection points: 4
#     Node 12, Type 0, BuildingBlock: UXUYUI_clean_sbu_0, # of connection points: 4
#     Node 13, Type 0, BuildingBlock: UXUYUI_clean_sbu_0, # of connection points: 4
#     Node 14, Type 0, BuildingBlock: UXUYUI_clean_sbu_0, # of connection points: 4
#     Node 15, Type 0, BuildingBlock: UXUYUI_clean_sbu_0, # of connection points: 4
#     Edge 16, Type (0, 0), BuildingBlock: MIFKUJ_clean_linker_0, # of connection points: 2
#     Edge 17, Type (0, 0), BuildingBlock: MIFKUJ_clean_linker_0, # of connection points: 2
#     Edge 18, Type (0, 0), BuildingBlock: MIFKUJ_clean_linker_0, # of connection points: 2
#     Edge 19, Type (0, 0), BuildingBlock: MIFKUJ_clean_linker_0, # of connection points: 2
#     Edge 20, Type (0, 0), BuildingBlock: MIFKUJ_clean_linker_0, # of connection points: 2
#     Edge 21, Type (0, 0), BuildingBlock: MIFKUJ_clean_linker_0, # of connection points: 2
#     Edge 22, Type (0, 0), BuildingBlock: MIFKUJ_clean_linker_0, # of connection points: 2
#     Edge 23, Type (0, 0), BuildingBlock: MIFKUJ_clean_linker_0, # of connection points: 2
#     Edge 24, Type (0, 0), BuildingBlock: MIFKUJ_clean_linker_0, # of connection points: 2
#     Edge 25, Type (0, 0), BuildingBlock: MIFKUJ_clean_linker_0, # of connection points: 2
#     Edge 26, Type (0, 0), BuildingBlock: MIFKUJ_clean_linker_0, # of connection points: 2
#     Edge 27, Type (0, 0), BuildingBlock: MIFKUJ_clean_linker_0, # of connection points: 2
#     Edge 28, Type (0, 0), BuildingBlock: MIFKUJ_clean_linker_0, # of connection points: 2
#     Edge 29, Type (0, 0), BuildingBlock: MIFKUJ_clean_linker_0, # of connection points: 2
#     Edge 30, Type (0, 0), BuildingBlock: MIFKUJ_clean_linker_0, # of connection points: 2
#     Edge 31, Type (0, 0), BuildingBlock: MIFKUJ_clean_linker_0, # of connection points: 2
#     Edge 32, Type (0, 0), BuildingBlock: MIFKUJ_clean_linker_0, # of connection points: 2
#     Edge 33, Type (0, 0), BuildingBlock: MIFKUJ_clean_linker_0, # of connection points: 2
#     Edge 34, Type (0, 0), BuildingBlock: MIFKUJ_clean_linker_0, # of connection points: 2
#     Edge 35, Type (0, 0), BuildingBlock: MIFKUJ_clean_linker_0, # of connection points: 2
#     Edge 36, Type (0, 0), BuildingBlock: MIFKUJ_clean_linker_0, # of connection points: 2
#     Edge 37, Type (0, 0), BuildingBlock: MIFKUJ_clean_linker_0, # of connection points: 2
#     Edge 38, Type (0, 0), BuildingBlock: MIFKUJ_clean_linker_0, # of connection points: 2
#     Edge 39, Type (0, 0), BuildingBlock: MIFKUJ_clean_linker_0, # of connection points: 2
#     Edge 40, Type (0, 0), BuildingBlock: MIFKUJ_clean_linker_0, # of connection points: 2
#     Edge 41, Type (0, 0), BuildingBlock: MIFKUJ_clean_linker_0, # of connection points: 2
#     Edge 42, Type (0, 0), BuildingBlock: MIFKUJ_clean_linker_0, # of connection points: 2
#     Edge 43, Type (0, 0), BuildingBlock: MIFKUJ_clean_linker_0, # of connection points: 2
#     Edge 44, Type (0, 0), BuildingBlock: MIFKUJ_clean_linker_0, # of connection points: 2
#     Edge 45, Type (0, 0), BuildingBlock: MIFKUJ_clean_linker_0, # of connection points: 2
#     Edge 46, Type (0, 0), BuildingBlock: MIFKUJ_clean_linker_0, # of connection points: 2
#     Edge 47, Type (0, 0), BuildingBlock: MIFKUJ_clean_linker_0, # of connection points: 2
# Relax obj value: 0.433
# Max RMSD: 0.238
# Mean RMSD: 0.238
data_MOF--net-ukt--node1-UXUYUI_clean_sbu_0--edge1-MIFKUJ_clean_linker_0
_symmetry_space_group_name_H-M    P1
_symmetry_Int_Tables_number       1
_symmetry_cell_setting            triclinic
loop_
_symmetry_equiv_pos_as_xyz
'x, y, z'
_cell_length_a     72.485945
_cell_length_b     72.488885
_cell_length_c     65.440764
_cell_angle_alpha  89.99726
_cell_angle_beta   89.997309
_cell_angle_gamma 89.98268
loop_
_atom_site_label
_atom_site_type_symbol
_atom_site_fract_x
_atom_site_fract_y
_atom_site_fract_z
_atom_type_partial_charge
Li0 Li 0.5717 0.13927 0.11907 0.0
Li1 Li 0.55877 0.11314 0.09679 0.0
Li2 Li 0.59177 0.11805 0.10098 0.0
Li3 Li 0.57439 0.13938 0.08164 0.0
C4 C 0.58479 0.10166 0.13517 0.0
N5 N 0.60874 0.08108 0.15878 0.0
C6 C 0.58638 0.08266 0.13202 0.0
C7 C 0.59532 0.1102 0.15035 0.0
C8 C 0.5986 0.0725 0.14411 0.0
C9 C 0.60735 0.09954 0.16214 0.0
C10 C 0.54104 0.15153 0.0867 0.0
C11 C 0.52169 0.15775 0.05752 0.0
N12 N 0.52177 0.176 0.06235 0.0
C13 C 0.54086 0.17032 0.09144 0.0
C14 C 0.53135 0.14516 0.06963 0.0
C15 C 0.53106 0.18248 0.07892 0.0
C16 C 0.57243 0.17276 0.13919 0.0
N17 N 0.56813 0.15469 0.14188 0.0
C18 C 0.5589 0.16034 0.17634 0.0
C19 C 0.56146 0.14825 0.15994 0.0
C20 C 0.56301 0.17915 0.17389 0.0
C21 C 0.56985 0.18532 0.15504 0.0
H22 H 0.57782 0.17739 0.12466 0.0
H23 H 0.55815 0.13378 0.16156 0.0
C24 C 0.54638 0.07819 0.08767 0.0
N25 N 0.54031 0.09528 0.09284 0.0
C26 C 0.53415 0.06527 0.07969 0.0
C27 C 0.50944 0.08744 0.08361 0.0
C28 C 0.52217 0.09993 0.09172 0.0
C29 C 0.51556 0.07009 0.07685 0.0
H30 H 0.56097 0.07512 0.08826 0.0
H31 H 0.5178 0.11369 0.09586 0.0
C32 C 0.6111 0.15035 0.10179 0.0
N33 N 0.64783 0.1604 0.10082 0.0
C34 C 0.62121 0.14863 0.08371 0.0
C35 C 0.61956 0.15742 0.1193 0.0
C36 C 0.6398 0.15371 0.08356 0.0
C37 C 0.63818 0.16237 0.11851 0.0
C38 C 0.57804 0.11 0.05526 0.0
C39 C 0.5943 0.11226 0.04406 0.0
C40 C 0.56195 0.10428 0.04529 0.0
C41 C 0.59416 0.10897 0.02302 0.0
C42 C 0.56238 0.10112 0.02424 0.0
N43 N 0.57833 0.10353 0.01363 0.0
C44 C 0.61668 0.09155 0.08728 0.0
C45 C 0.6292 0.11017 0.11358 0.0
C46 C 0.63384 0.08353 0.08368 0.0
N47 N 0.61483 0.10515 0.10141 0.0
C48 C 0.64668 0.10256 0.11046 0.0
C49 C 0.64927 0.08949 0.09486 0.0
H50 H 0.60498 0.0875 0.0781 0.0
H51 H 0.62731 0.12062 0.12514 0.0
C52 C 0.58341 0.17291 0.06402 0.0
N53 N 0.57515 0.15661 0.0594 0.0
C54 C 0.58532 0.18655 0.04921 0.0
C55 C 0.56944 0.16684 0.02521 0.0
C56 C 0.56789 0.1535 0.04053 0.0
C57 C 0.5785 0.18352 0.02943 0.0
H58 H 0.58848 0.17537 0.0793 0.0
H59 H 0.56075 0.1408 0.03732 0.0
O60 O 0.57325 0.11194 0.12319 0.0
O61 O 0.55099 0.13948 0.09844 0.0
O62 O 0.59293 0.14531 0.10232 0.0
O63 O 0.57801 0.1128 0.07595 0.0
H64 H 0.57838 0.07587 0.12028 0.0
H65 H 0.59442 0.12493 0.15281 0.0
H66 H 0.60004 0.05779 0.14179 0.0
H67 H 0.61566 0.10597 0.17388 0.0
H68 H 0.51424 0.15303 0.04418 0.0
H69 H 0.54831 0.1755 0.10454 0.0
H70 H 0.53156 0.13071 0.06555 0.0
H71 H 0.53088 0.19708 0.08235 0.0
H72 H 0.55355 0.15511 0.19067 0.0
H73 H 0.57343 0.19968 0.15267 0.0
H74 H 0.53952 0.05219 0.07431 0.0
H75 H 0.4952 0.09162 0.08172 0.0
H76 H 0.61477 0.14342 0.06999 0.0
H77 H 0.61189 0.15886 0.1334 0.0
H78 H 0.64783 0.15234 0.06971 0.0
H79 H 0.64496 0.16774 0.13198 0.0
H80 H 0.60694 0.11638 0.05154 0.0
H81 H 0.5492 0.10251 0.05359 0.0
H82 H 0.60664 0.1107 0.01418 0.0
H83 H 0.55 0.09684 0.01635 0.0
H84 H 0.63519 0.0736 0.07141 0.0
H85 H 0.65816 0.10731 0.11965 0.0
H86 H 0.59194 0.19943 0.05328 0.0
H87 H 0.56386 0.16403 0.01017 0.0
Li88 Li 0.3594 0.56802 0.11803 0.0
Li89 Li 0.38773 0.55728 0.09844 0.0
Li90 Li 0.37694 0.58884 0.09638 0.0
Li91 Li 0.35914 0.56462 0.0811 0.0
C92 C 0.39272 0.59042 0.1317 0.0
N93 N 0.40642 0.6215 0.1508 0.0
C94 C 0.41157 0.59437 0.13087 0.0
C95 C 0.38084 0.60221 0.1423 0.0
C96 C 0.41823 0.61017 0.14061 0.0
C97 C 0.38804 0.61786 0.15186 0.0
C98 C 0.35309 0.52993 0.09655 0.0
C99 C 0.34605 0.5052 0.07313 0.0
N100 N 0.33194 0.49981 0.08545 0.0
C101 C 0.33863 0.52401 0.10908 0.0
C102 C 0.35695 0.52033 0.07852 0.0
C103 C 0.32806 0.50881 0.10317 0.0
C104 C 0.32584 0.56669 0.13688 0.0
N105 N 0.34414 0.56566 0.14106 0.0
C106 C 0.33801 0.56158 0.17662 0.0
C107 C 0.35049 0.56314 0.1604 0.0
C108 C 0.31896 0.56273 0.17272 0.0
C109 C 0.31295 0.56523 0.15252 0.0
H110 H 0.32128 0.56841 0.12126 0.0
H111 H 0.36518 0.5624 0.1632 0.0
C112 C 0.4247 0.55162 0.0924 0.0
N113 N 0.40893 0.54253 0.09722 0.0
C114 C 0.44006 0.54186 0.08564 0.0
C115 C 0.42293 0.51347 0.09005 0.0
C116 C 0.40788 0.52382 0.09686 0.0
C117 C 0.43902 0.5226 0.08362 0.0
H118 H 0.42482 0.56653 0.09216 0.0
H119 H 0.39496 0.51705 0.10037 0.0
C120 C 0.34037 0.59779 0.08572 0.0
N121 N 0.3207 0.62174 0.0611 0.0
C122 C 0.34768 0.60361 0.06704 0.0
C123 C 0.32305 0.60419 0.0919 0.0
C124 C 0.33753 0.6157 0.05481 0.0
C125 C 0.31332 0.61629 0.07923 0.0
C126 C 0.39177 0.56916 0.05527 0.0
C127 C 0.3952 0.58375 0.04179 0.0
C128 C 0.39641 0.55119 0.04949 0.0
C129 C 0.40315 0.58008 0.02277 0.0
C130 C 0.40441 0.54809 0.03037 0.0
N131 N 0.40757 0.56248 0.01751 0.0
C132 C 0.40261 0.61456 0.08348 0.0
C133 C 0.37591 0.62843 0.09775 0.0
C134 C 0.40934 0.63171 0.07748 0.0
N135 N 0.38592 0.61321 0.09278 0.0
C136 C 0.38224 0.64595 0.09222 0.0
C137 C 0.39888 0.6476 0.08139 0.0
H138 H 0.41036 0.6022 0.08003 0.0
H139 H 0.36273 0.62692 0.10532 0.0
C140 C 0.32541 0.55303 0.06562 0.0
N141 N 0.34225 0.55913 0.05955 0.0
C142 C 0.31111 0.55118 0.05156 0.0
C143 C 0.33157 0.5623 0.02516 0.0
C144 C 0.34565 0.56347 0.03969 0.0
C145 C 0.31386 0.55648 0.03112 0.0
H146 H 0.32282 0.55031 0.0816 0.0
H147 H 0.35891 0.56888 0.03526 0.0
O148 O 0.3858 0.57537 0.12171 0.0
O149 O 0.3635 0.54487 0.1021 0.0
O150 O 0.34985 0.5856 0.09777 0.0
O151 O 0.38436 0.57263 0.07416 0.0
H152 H 0.42093 0.5854 0.12269 0.0
H153 H 0.36618 0.59944 0.1429 0.0
H154 H 0.43278 0.61345 0.14003 0.0
H155 H 0.379 0.62717 0.16002 0.0
H156 H 0.3488 0.49775 0.05913 0.0
H157 H 0.33561 0.53103 0.12326 0.0
H158 H 0.36806 0.52462 0.06865 0.0
H159 H 0.31679 0.50415 0.1127 0.0
H160 H 0.34318 0.55975 0.19201 0.0
H161 H 0.2984 0.56579 0.14879 0.0
H162 H 0.45202 0.54947 0.0804 0.0
H163 H 0.42163 0.49864 0.08867 0.0
H164 H 0.361 0.59877 0.06197 0.0
H165 H 0.31717 0.59985 0.10631 0.0
H166 H 0.34302 0.62026 0.04029 0.0
H167 H 0.29989 0.62133 0.08381 0.0
H168 H 0.3917 0.59777 0.0459 0.0
H169 H 0.39408 0.53974 0.05966 0.0
H170 H 0.40583 0.59124 0.01221 0.0
H171 H 0.40814 0.53424 0.02579 0.0
H172 H 0.42233 0.63251 0.06935 0.0
H173 H 0.3738 0.65794 0.09542 0.0
H174 H 0.29785 0.5463 0.0569 0.0
H175 H 0.33434 0.5669 0.00973 0.0
Li176 Li 0.94051 0.38889 0.09604 0.0
Li177 Li 0.93133 0.36183 0.11914 0.0
Li178 Li 0.92825 0.36026 0.08194 0.0
Li179 Li 0.90844 0.37987 0.10113 0.0
C180 C 0.96336 0.35396 0.08573 0.0
N181 N 0.98614 0.3339 0.06018 0.0
C182 C 0.9681 0.33581 0.09066 0.0
C183 C 0.97025 0.36193 0.06784 0.0
C184 C 0.97962 0.32589 0.07753 0.0
C185 C 0.98175 0.35156 0.05512 0.0
C186 C 0.9135 0.39802 0.13419 0.0
C187 C 0.88866 0.39766 0.15869 0.0
N188 N 0.88666 0.4162 0.15638 0.0
C189 C 0.91127 0.41708 0.13212 0.0
C190 C 0.90217 0.38822 0.14763 0.0
C191 C 0.8976 0.42602 0.14346 0.0
C192 C 0.94627 0.42476 0.08503 0.0
N193 N 0.95565 0.40924 0.0902 0.0
C194 C 0.98392 0.42218 0.07825 0.0
C195 C 0.97421 0.40786 0.08769 0.0
C196 C 0.97435 0.43796 0.07166 0.0
C197 C 0.95542 0.43944 0.07583 0.0
H198 H 0.93143 0.42518 0.08671 0.0
H199 H 0.98125 0.39524 0.09179 0.0
C200 C 0.93704 0.32881 0.13854 0.0
N201 N 0.9368 0.34726 0.14209 0.0
C202 C 0.94034 0.31653 0.15446 0.0
C203 C 0.94283 0.34249 0.17756 0.0
C204 C 0.93968 0.35433 0.16106 0.0
C205 C 0.94319 0.32333 0.17429 0.0
H206 H 0.93434 0.32366 0.12332 0.0
H207 H 0.93928 0.3691 0.16339 0.0
C208 C 0.91621 0.38802 0.05591 0.0
N209 N 0.90581 0.39285 0.01566 0.0
C210 C 0.89916 0.38146 0.04911 0.0
C211 C 0.9279 0.39721 0.04232 0.0
C212 C 0.89417 0.38399 0.02868 0.0
C213 C 0.92242 0.39946 0.022 0.0
C214 C 0.89412 0.34426 0.10567 0.0
C215 C 0.8827 0.3408 0.0889 0.0
C216 C 0.88863 0.33859 0.12517 0.0
C217 C 0.86576 0.33203 0.09196 0.0
C218 C 0.8716 0.32982 0.12759 0.0
N219 N 0.86061 0.32679 0.11109 0.0
C220 C 0.92346 0.32579 0.06434 0.0
C221 C 0.93493 0.34769 0.04064 0.0
C222 C 0.92246 0.3124 0.04912 0.0
N223 N 0.92922 0.34314 0.0598 0.0
C224 C 0.93431 0.33465 0.02494 0.0
C225 C 0.92767 0.31686 0.02907 0.0
H226 H 0.91943 0.32239 0.07979 0.0
H227 H 0.93991 0.36141 0.03747 0.0
C228 C 0.88376 0.40667 0.08949 0.0
N229 N 0.88444 0.3909 0.10069 0.0
C230 C 0.86686 0.41427 0.08394 0.0
C231 C 0.85155 0.39038 0.10331 0.0
C232 C 0.86884 0.38322 0.10853 0.0
C233 C 0.85047 0.4056 0.09008 0.0
H234 H 0.89639 0.41278 0.08389 0.0
H235 H 0.86966 0.37109 0.11799 0.0
O236 O 0.95177 0.36377 0.09814 0.0
O237 O 0.92637 0.3889 0.12275 0.0
O238 O 0.92133 0.3858 0.07587 0.0
O239 O 0.9108 0.35271 0.10298 0.0
H240 H 0.96294 0.32943 0.10445 0.0
H241 H 0.96643 0.37583 0.06357 0.0
H242 H 0.98337 0.31181 0.08113 0.0
H243 H 0.98706 0.35752 0.04116 0.0
H244 H 0.87972 0.39023 0.16906 0.0
H245 H 0.91993 0.42487 0.1218 0.0
H246 H 0.90366 0.37345 0.14931 0.0
H247 H 0.89566 0.44075 0.14195 0.0
H248 H 0.99854 0.42059 0.0753 0.0
H249 H 0.94749 0.45121 0.07065 0.0
H250 H 0.94016 0.30185 0.1514 0.0
H251 H 0.94497 0.34821 0.19267 0.0
H252 H 0.88984 0.37458 0.05951 0.0
H253 H 0.94114 0.40239 0.04735 0.0
H254 H 0.88103 0.37896 0.0232 0.0
H255 H 0.93137 0.40644 0.01128 0.0
H256 H 0.88689 0.34477 0.07366 0.0
H257 H 0.89737 0.34099 0.1383 0.0
H258 H 0.85675 0.32935 0.07913 0.0
H259 H 0.86713 0.32545 0.1426 0.0
H260 H 0.91761 0.2987 0.05299 0.0
H261 H 0.93851 0.33857 0.00967 0.0
H262 H 0.86661 0.42628 0.07408 0.0
H263 H 0.83922 0.38334 0.10846 0.0
Li264 Li 0.11257 0.93724 0.09509 0.0
Li265 Li 0.14127 0.9299 0.11578 0.0
Li266 Li 0.14094 0.9278 0.07895 0.0
Li267 Li 0.12384 0.90584 0.09858 0.0
C268 C 0.14786 0.96283 0.08603 0.0
N269 N 0.17071 0.98712 0.06555 0.0
C270 C 0.16462 0.96826 0.09471 0.0
C271 C 0.14261 0.96998 0.06706 0.0
C272 C 0.17601 0.9805 0.08409 0.0
C273 C 0.15439 0.98217 0.05691 0.0
C274 C 0.10926 0.90925 0.13441 0.0
C275 C 0.11608 0.88518 0.15871 0.0
N276 N 0.09777 0.88129 0.16011 0.0
C277 C 0.09051 0.90506 0.13613 0.0
C278 C 0.12217 0.89927 0.14581 0.0
C279 C 0.08498 0.89086 0.1492 0.0
C280 C 0.07502 0.94127 0.09076 0.0
N281 N 0.09093 0.95109 0.09157 0.0
C282 C 0.07628 0.97735 0.07683 0.0
C283 C 0.09171 0.96904 0.08569 0.0
C284 C 0.05998 0.96705 0.07425 0.0
C285 C 0.05919 0.94913 0.08243 0.0
H286 H 0.07502 0.92688 0.09506 0.0
H287 H 0.1047 0.97634 0.08617 0.0
C288 C 0.1748 0.93247 0.13487 0.0
N289 N 0.15655 0.9354 0.1382 0.0
C290 C 0.18752 0.93541 0.15043 0.0
C291 C 0.16243 0.94449 0.17267 0.0
C292 C 0.15013 0.94136 0.15656 0.0
C293 C 0.18139 0.94133 0.1697 0.0
H294 H 0.17945 0.9279 0.12001 0.0
H295 H 0.13548 0.94345 0.15874 0.0
C296 C 0.10837 0.91834 0.05474 0.0
N297 N 0.09249 0.91768 0.0163 0.0
C298 C 0.10601 0.9016 0.04444 0.0
C299 C 0.10258 0.93473 0.04545 0.0
C300 C 0.09801 0.90156 0.02501 0.0
C301 C 0.09458 0.93411 0.02604 0.0
C302 C 0.16006 0.89553 0.0896 0.0
C303 C 0.15382 0.88841 0.071 0.0
C304 C 0.17591 0.88819 0.09864 0.0
C305 C 0.16355 0.87404 0.06173 0.0
C306 C 0.18526 0.87381 0.08889 0.0
N307 N 0.17894 0.86709 0.07079 0.0
C308 C 0.17551 0.93187 0.06238 0.0
C309 C 0.15292 0.92904 0.0364 0.0
C310 C 0.18961 0.93145 0.04796 0.0
N311 N 0.15761 0.93034 0.05648 0.0
C312 C 0.16664 0.92853 0.02139 0.0
C313 C 0.18529 0.92925 0.0272 0.0
H314 H 0.17886 0.93276 0.07846 0.0
H315 H 0.13866 0.92769 0.03198 0.0
C316 C 0.09834 0.87781 0.09182 0.0
N317 N 0.11541 0.88106 0.09959 0.0
C318 C 0.09217 0.85977 0.08909 0.0
C319 C 0.12085 0.84879 0.10356 0.0
C320 C 0.12641 0.86707 0.10615 0.0
C321 C 0.10376 0.84499 0.09437 0.0
H322 H 0.08987 0.88927 0.08688 0.0
H323 H 0.13977 0.87007 0.11268 0.0
O324 O 0.13669 0.95057 0.09604 0.0
O325 O 0.11506 0.92267 0.12121 0.0
O326 O 0.11582 0.91854 0.07399 0.0
O327 O 0.15086 0.90972 0.09894 0.0
H328 H 0.16882 0.96307 0.10947 0.0
H329 H 0.1297 0.96601 0.06012 0.0
H330 H 0.18906 0.98473 0.09059 0.0
H331 H 0.15056 0.98767 0.04214 0.0
H332 H 0.12592 0.87727 0.16752 0.0
H333 H 0.08034 0.91262 0.12743 0.0
H334 H 0.13676 0.90218 0.14445 0.0
H335 H 0.07051 0.88742 0.15064 0.0
H336 H 0.07765 0.9911 0.07058 0.0
H337 H 0.04684 0.94081 0.08117 0.0
H338 H 0.20203 0.93316 0.14736 0.0
H339 H 0.15716 0.94894 0.18734 0.0
H340 H 0.1103 0.88874 0.05135 0.0
H341 H 0.10425 0.9478 0.05306 0.0
H342 H 0.09614 0.8887 0.01689 0.0
H343 H 0.09004 0.9467 0.01872 0.0
H344 H 0.14166 0.89395 0.06375 0.0
H345 H 0.18092 0.89351 0.11306 0.0
H346 H 0.15887 0.86843 0.04732 0.0
H347 H 0.19754 0.86799 0.09572 0.0
H348 H 0.2038 0.93231 0.05308 0.0
H349 H 0.16274 0.92667 0.00555 0.0
H350 H 0.07897 0.85743 0.08179 0.0
H351 H 0.13006 0.83774 0.10805 0.0
Li352 Li 0.59681 0.371 0.40447 0.0
Li353 Li 0.57542 0.35445 0.42533 0.0
Li354 Li 0.57157 0.35408 0.38851 0.0
Li355 Li 0.56577 0.38322 0.40965 0.0
C356 C 0.60667 0.33372 0.41069 0.0
N357 N 0.63627 0.31257 0.42324 0.0
C358 C 0.61502 0.3371 0.42955 0.0
C359 C 0.61328 0.31953 0.39824 0.0
C360 C 0.62998 0.32627 0.43562 0.0
C361 C 0.62829 0.309 0.40484 0.0
C362 C 0.58862 0.38607 0.44871 0.0
C363 C 0.57839 0.4019 0.47912 0.0
N364 N 0.59563 0.4003 0.48713 0.0
C365 C 0.60627 0.38474 0.45719 0.0
C366 C 0.57459 0.39486 0.45971 0.0
C367 C 0.60952 0.39194 0.47666 0.0
C368 C 0.62495 0.39645 0.40957 0.0
N369 N 0.62166 0.37917 0.40243 0.0
C370 C 0.65387 0.37399 0.39746 0.0
C371 C 0.63559 0.36815 0.39574 0.0
C372 C 0.65775 0.39137 0.40594 0.0
C373 C 0.64299 0.40289 0.41144 0.0
H374 H 0.61356 0.40494 0.41464 0.0
H375 H 0.63258 0.35463 0.38966 0.0
C376 C 0.57251 0.32007 0.44364 0.0
N377 N 0.57302 0.33832 0.44835 0.0
C378 C 0.57122 0.30687 0.45905 0.0
C379 C 0.57053 0.33145 0.48398 0.0
C380 C 0.5719 0.3442 0.46805 0.0
C381 C 0.57032 0.31248 0.47957 0.0
H382 H 0.57327 0.31578 0.42784 0.0
H383 H 0.57195 0.35873 0.47149 0.0
C384 C 0.59218 0.3864 0.36928 0.0
N385 N 0.61933 0.39868 0.34296 0.0
C386 C 0.59551 0.40528 0.36713 0.0
C387 C 0.60259 0.37375 0.35799 0.0
C388 C 0.60932 0.41122 0.35376 0.0
C389 C 0.61626 0.38024 0.34478 0.0
C390 C 0.53997 0.34999 0.42199 0.0
C391 C 0.53299 0.33282 0.41612 0.0
C392 C 0.53489 0.35748 0.44086 0.0
C393 C 0.52123 0.32331 0.42935 0.0
C394 C 0.52311 0.34754 0.45367 0.0
N395 N 0.5166 0.33079 0.44771 0.0
C396 C 0.56413 0.3205 0.37093 0.0
C397 C 0.56312 0.34503 0.34698 0.0
C398 C 0.56133 0.3076 0.35549 0.0
N399 N 0.56508 0.33875 0.36642 0.0
C400 C 0.56057 0.33253 0.33094 0.0
C401 C 0.55995 0.31348 0.33508 0.0
H402 H 0.566 0.31595 0.38654 0.0
H403 H 0.5642 0.35964 0.34385 0.0
C404 C 0.56307 0.42088 0.41499 0.0
N405 N 0.55273 0.40529 0.41421 0.0
C406 C 0.55585 0.43691 0.42359 0.0
C407 C 0.52724 0.42067 0.42972 0.0
C408 C 0.5349 0.40505 0.42057 0.0
C409 C 0.53802 0.4367 0.43205 0.0
H410 H 0.57736 0.42047 0.41028 0.0
H411 H 0.52709 0.39236 0.41997 0.0
O412 O 0.59206 0.34418 0.40432 0.0
O413 O 0.58526 0.37939 0.42949 0.0
O414 O 0.57913 0.38023 0.38273 0.0
O415 O 0.55191 0.35929 0.40949 0.0
H416 H 0.60993 0.34788 0.43943 0.0
H417 H 0.60693 0.31674 0.38358 0.0
H418 H 0.63659 0.32874 0.45019 0.0
H419 H 0.6336 0.29801 0.39534 0.0
H420 H 0.56764 0.40865 0.48781 0.0
H421 H 0.61742 0.37832 0.44882 0.0
H422 H 0.56087 0.39612 0.45345 0.0
H423 H 0.62311 0.39095 0.48341 0.0
H424 H 0.66488 0.36481 0.39278 0.0
H425 H 0.64537 0.41632 0.41821 0.0
H426 H 0.57137 0.29241 0.4549 0.0
H427 H 0.56958 0.3364 0.49955 0.0
H428 H 0.58757 0.41525 0.37572 0.0
H429 H 0.60034 0.35907 0.35969 0.0
H430 H 0.61209 0.42579 0.35198 0.0
H431 H 0.62451 0.37061 0.33605 0.0
H432 H 0.53662 0.32688 0.40152 0.0
H433 H 0.54027 0.37066 0.44575 0.0
H434 H 0.5158 0.30997 0.42503 0.0
H435 H 0.51922 0.3531 0.46839 0.0
H436 H 0.56059 0.29313 0.35951 0.0
H437 H 0.55983 0.33771 0.31544 0.0
H438 H 0.56455 0.44901 0.42457 0.0
H439 H 0.51352 0.4197 0.43616 0.0
Li440 Li 0.11536 0.58672 0.39472 0.0
Li441 Li 0.13623 0.56782 0.41352 0.0
Li442 Li 0.13589 0.56434 0.37723 0.0
Li443 Li 0.10863 0.55392 0.3993 0.0
C444 C 0.15531 0.59731 0.40228 0.0
N445 N 0.18151 0.61745 0.42333 0.0
C446 C 0.15009 0.60848 0.4187 0.0
C447 C 0.17382 0.5966 0.39637 0.0
C448 C 0.16354 0.61849 0.4292 0.0
C449 C 0.18687 0.60683 0.40725 0.0
C450 C 0.10283 0.5761 0.43857 0.0
C451 C 0.08795 0.56443 0.46894 0.0
N452 N 0.08659 0.58193 0.47628 0.0
C453 C 0.10125 0.59397 0.44644 0.0
C454 C 0.09612 0.5612 0.44995 0.0
C455 C 0.09304 0.59662 0.46552 0.0
C456 C 0.08551 0.61001 0.40103 0.0
N457 N 0.10319 0.60982 0.39415 0.0
C458 C 0.10405 0.64272 0.39334 0.0
C459 C 0.11236 0.62565 0.38962 0.0
C460 C 0.08631 0.6433 0.40195 0.0
C461 C 0.07677 0.62672 0.40515 0.0
H462 H 0.07864 0.59714 0.40451 0.0
H463 H 0.12644 0.62502 0.38421 0.0
C464 C 0.1709 0.56222 0.43085 0.0
N465 N 0.15345 0.56745 0.43574 0.0
C466 C 0.18492 0.56304 0.44537 0.0
C467 C 0.16277 0.57441 0.46992 0.0
C468 C 0.14912 0.57326 0.45491 0.0
C469 C 0.18102 0.56953 0.46512 0.0
H470 H 0.17404 0.55788 0.41543 0.0
H471 H 0.13528 0.57759 0.45847 0.0
C472 C 0.09898 0.57989 0.36051 0.0
N473 N 0.07979 0.60488 0.33677 0.0
C474 C 0.07973 0.57928 0.35977 0.0
C475 C 0.10849 0.59313 0.34912 0.0
C476 C 0.07027 0.59206 0.34768 0.0
C477 C 0.09854 0.60566 0.33722 0.0
C478 C 0.14353 0.53153 0.40956 0.0
C479 C 0.15896 0.52238 0.40173 0.0
C480 C 0.13755 0.52767 0.42941 0.0
C481 C 0.16834 0.50972 0.41403 0.0
C482 C 0.1473 0.51493 0.44124 0.0
N483 N 0.16237 0.5063 0.43337 0.0
C484 C 0.16902 0.55592 0.35905 0.0
C485 C 0.14473 0.55919 0.33504 0.0
C486 C 0.1817 0.55287 0.34345 0.0
N487 N 0.15102 0.55915 0.3546 0.0
C488 C 0.15699 0.55627 0.31887 0.0
C489 C 0.17578 0.55319 0.32303 0.0
H490 H 0.17356 0.55601 0.37479 0.0
H491 H 0.13029 0.5617 0.33199 0.0
C492 C 0.07269 0.54561 0.4079 0.0
N493 N 0.08927 0.53747 0.40454 0.0
C494 C 0.05869 0.53591 0.4177 0.0
C495 C 0.07874 0.50923 0.41913 0.0
C496 C 0.09237 0.51947 0.40918 0.0
C497 C 0.06194 0.51774 0.42423 0.0
H498 H 0.07093 0.56013 0.40465 0.0
H499 H 0.10583 0.51348 0.40655 0.0
O500 O 0.14238 0.58693 0.39227 0.0
O501 O 0.11042 0.57328 0.41964 0.0
O502 O 0.10849 0.5679 0.37272 0.0
O503 O 0.13431 0.54417 0.39783 0.0
H504 H 0.13585 0.60918 0.42347 0.0
H505 H 0.17811 0.5882 0.38358 0.0
H506 H 0.15971 0.62704 0.44207 0.0
H507 H 0.20127 0.60631 0.40293 0.0
H508 H 0.08263 0.55302 0.47783 0.0
H509 H 0.10628 0.60572 0.43793 0.0
H510 H 0.09704 0.54727 0.44418 0.0
H511 H 0.09174 0.61039 0.47176 0.0
H512 H 0.11188 0.65525 0.39085 0.0
H513 H 0.06304 0.62667 0.41169 0.0
H514 H 0.19873 0.55888 0.44105 0.0
H515 H 0.15918 0.57971 0.48487 0.0
H516 H 0.07216 0.56911 0.36848 0.0
H517 H 0.1234 0.59389 0.34971 0.0
H518 H 0.05536 0.5918 0.347 0.0
H519 H 0.10571 0.61606 0.32842 0.0
H520 H 0.16364 0.52498 0.38631 0.0
H521 H 0.12567 0.53463 0.4357 0.0
H522 H 0.18034 0.50258 0.40819 0.0
H523 H 0.1429 0.51194 0.45668 0.0
H524 H 0.19609 0.55084 0.34732 0.0
H525 H 0.15187 0.55648 0.30333 0.0
H526 H 0.04612 0.54313 0.42169 0.0
H527 H 0.08171 0.49522 0.42385 0.0
Li528 Li 0.92965 0.14257 0.41998 0.0
Li529 Li 0.9069 0.12414 0.40307 0.0
Li530 Li 0.93912 0.11469 0.40274 0.0
Li531 Li 0.92806 0.14292 0.38297 0.0
C532 C 0.92411 0.10923 0.44491 0.0
N533 N 0.92733 0.09286 0.48292 0.0
C534 C 0.90839 0.10581 0.45672 0.0
C535 C 0.94146 0.10424 0.45246 0.0
C536 C 0.91032 0.09757 0.4759 0.0
C537 C 0.9428 0.09598 0.47169 0.0
C538 C 0.89637 0.16075 0.41345 0.0
C539 C 0.87686 0.18735 0.41822 0.0
N540 N 0.87109 0.18036 0.43641 0.0
C541 C 0.89025 0.15383 0.4322 0.0
C542 C 0.88965 0.17765 0.40639 0.0
C543 C 0.87747 0.16394 0.44358 0.0
C544 C 0.93597 0.17711 0.43609 0.0
N545 N 0.9334 0.15935 0.44205 0.0
C546 C 0.93198 0.16857 0.47708 0.0
C547 C 0.93168 0.15481 0.46212 0.0
C548 C 0.93406 0.18713 0.47127 0.0
C549 C 0.93656 0.19123 0.45048 0.0
H550 H 0.93693 0.18037 0.42 0.0
H551 H 0.92929 0.14069 0.46656 0.0
C552 C 0.88133 0.09669 0.41207 0.0
N553 N 0.88267 0.11428 0.40512 0.0
C554 C 0.86415 0.08924 0.41691 0.0
C555 C 0.84994 0.11787 0.40633 0.0
C556 C 0.86742 0.12469 0.40148 0.0
C557 C 0.8482 0.1001 0.41477 0.0
H558 H 0.89373 0.08869 0.4146 0.0
H559 H 0.86886 0.13856 0.39564 0.0
C560 C 0.96406 0.1506 0.40844 0.0
N561 N 0.99089 0.17307 0.42521 0.0
C562 C 0.96943 0.16675 0.39841 0.0
C563 C 0.97257 0.14573 0.42683 0.0
C564 C 0.98296 0.17797 0.40717 0.0
C565 C 0.98602 0.15731 0.43512 0.0
C566 C 0.90792 0.10856 0.36755 0.0
C567 C 0.90548 0.08945 0.36731 0.0
C568 C 0.89556 0.11991 0.35703 0.0
C569 C 0.89058 0.08197 0.35659 0.0
C570 C 0.88083 0.1119 0.34649 0.0
N571 N 0.87867 0.09326 0.34651 0.0
C572 C 0.94671 0.07781 0.40867 0.0
C573 C 0.97346 0.09657 0.40625 0.0
C574 C 0.95717 0.06306 0.41584 0.0
N575 N 0.95491 0.09425 0.40466 0.0
C576 C 0.98445 0.08218 0.41353 0.0
C577 C 0.97617 0.0654 0.41913 0.0
H578 H 0.93185 0.07665 0.4079 0.0
H579 H 0.97949 0.10995 0.40331 0.0
C580 C 0.92956 0.17678 0.36454 0.0
N581 N 0.93079 0.15851 0.36024 0.0
C582 C 0.93134 0.1898 0.34905 0.0
C583 C 0.9355 0.16491 0.32484 0.0
C584 C 0.9337 0.15232 0.34091 0.0
C585 C 0.93428 0.18394 0.32886 0.0
H586 H 0.92741 0.18122 0.38014 0.0
H587 H 0.93454 0.13765 0.338 0.0
O588 O 0.92239 0.11698 0.42591 0.0
O589 O 0.90925 0.15131 0.40228 0.0
O590 O 0.95068 0.13955 0.40018 0.0
O591 O 0.92205 0.11622 0.37847 0.0
H592 H 0.89483 0.10947 0.45115 0.0
H593 H 0.95377 0.10658 0.44359 0.0
H594 H 0.89827 0.09488 0.48519 0.0
H595 H 0.95615 0.09201 0.47766 0.0
H596 H 0.87154 0.20046 0.41294 0.0
H597 H 0.8954 0.14086 0.43796 0.0
H598 H 0.89427 0.18323 0.39193 0.0
H599 H 0.87265 0.15875 0.45813 0.0
H600 H 0.92974 0.16478 0.49289 0.0
H601 H 0.93849 0.20528 0.44529 0.0
H602 H 0.86346 0.07533 0.42289 0.0
H603 H 0.83808 0.1268 0.4045 0.0
H604 H 0.96326 0.1706 0.384 0.0
H605 H 0.96869 0.13326 0.43475 0.0
H606 H 0.98717 0.19055 0.39962 0.0
H607 H 0.99259 0.15378 0.44944 0.0
H608 H 0.91492 0.08049 0.37541 0.0
H609 H 0.89717 0.13475 0.35724 0.0
H610 H 0.88847 0.0672 0.35633 0.0
H611 H 0.87109 0.12051 0.33838 0.0
H612 H 0.95019 0.05049 0.42036 0.0
H613 H 0.99907 0.08448 0.41586 0.0
H614 H 0.93067 0.20431 0.35293 0.0
H615 H 0.93759 0.15982 0.30946 0.0
Li616 Li 0.35874 0.93913 0.41494 0.0
Li617 Li 0.37536 0.91493 0.39808 0.0
Li618 Li 0.38838 0.9461 0.39957 0.0
Li619 Li 0.35936 0.93946 0.37841 0.0
C620 C 0.39003 0.92706 0.44093 0.0
N621 N 0.40477 0.92283 0.47963 0.0
C622 C 0.38941 0.9099 0.45068 0.0
C623 C 0.39826 0.94203 0.45087 0.0
C624 C 0.39691 0.90805 0.47025 0.0
C625 C 0.4056 0.93962 0.47041 0.0
C626 C 0.33453 0.91289 0.40721 0.0
C627 C 0.30208 0.91104 0.41518 0.0
N628 N 0.30604 0.90003 0.43143 0.0
C629 C 0.33825 0.90143 0.4239 0.0
C630 C 0.31628 0.91762 0.40271 0.0
C631 C 0.32367 0.89511 0.43598 0.0
C632 C 0.32665 0.954 0.43239 0.0
N633 N 0.34215 0.94431 0.43703 0.0
C634 C 0.33031 0.93728 0.4702 0.0
C635 C 0.3444 0.93642 0.4557 0.0
C636 C 0.31377 0.94646 0.46547 0.0
C637 C 0.31237 0.95552 0.44654 0.0
H638 H 0.32491 0.95969 0.41725 0.0
H639 H 0.35652 0.92834 0.45894 0.0
C640 C 0.40101 0.88751 0.40572 0.0
N641 N 0.38328 0.89006 0.39962 0.0
C642 C 0.40732 0.86993 0.41067 0.0
C643 C 0.37735 0.85771 0.40167 0.0
C644 C 0.37159 0.87561 0.3969 0.0
C645 C 0.39524 0.85484 0.40933 0.0
H646 H 0.40995 0.89932 0.40771 0.0
H647 H 0.35756 0.87808 0.39198 0.0
C648 C 0.35857 0.97617 0.40603 0.0
N649 N 0.34526 0.00781 0.42443 0.0
C650 C 0.34609 0.98753 0.39568 0.0
C651 C 0.36441 0.98102 0.42566 0.0
C652 C 0.33949 0.00344 0.40526 0.0
C653 C 0.35748 0.99703 0.43473 0.0
C654 C 0.39269 0.91614 0.36333 0.0
C655 C 0.41177 0.91355 0.3623 0.0
C656 C 0.38092 0.90386 0.35327 0.0
C657 C 0.41878 0.89859 0.3513 0.0
C658 C 0.38847 0.88907 0.34244 0.0
N659 N 0.40708 0.88675 0.34169 0.0
C660 C 0.42522 0.94744 0.40821 0.0
C661 C 0.41131 0.97706 0.40695 0.0
C662 C 0.44067 0.95462 0.41801 0.0
N663 N 0.41073 0.95857 0.40366 0.0
C664 C 0.42651 0.98484 0.41682 0.0
C665 C 0.44102 0.97338 0.42333 0.0
H666 H 0.42402 0.9327 0.40603 0.0
H667 H 0.39941 0.98548 0.40346 0.0
C668 C 0.32814 0.95213 0.35881 0.0
N669 N 0.34533 0.94547 0.35515 0.0
C670 C 0.31613 0.95561 0.34266 0.0
C671 C 0.33996 0.9458 0.31917 0.0
C672 C 0.35155 0.94252 0.33584 0.0
C673 C 0.32189 0.9522 0.32252 0.0
H674 H 0.32366 0.95439 0.37437 0.0
H675 H 0.36536 0.93733 0.3334 0.0
O676 O 0.38301 0.92903 0.42162 0.0
O677 O 0.34872 0.91979 0.39569 0.0
O678 O 0.36506 0.96047 0.39692 0.0
O679 O 0.38552 0.93038 0.37449 0.0
H680 H 0.38313 0.89813 0.4433 0.0
H681 H 0.39915 0.95535 0.44358 0.0
H682 H 0.39647 0.89487 0.47797 0.0
H683 H 0.41199 0.95112 0.47821 0.0
H684 H 0.28791 0.91471 0.41196 0.0
H685 H 0.35228 0.89777 0.42773 0.0
H686 H 0.3131 0.92638 0.38982 0.0
H687 H 0.32638 0.88639 0.44905 0.0
H688 H 0.33194 0.92976 0.48438 0.0
H689 H 0.30002 0.96298 0.44228 0.0
H690 H 0.42129 0.86825 0.41625 0.0
H691 H 0.36759 0.84645 0.40055 0.0
H692 H 0.3416 0.98414 0.38038 0.0
H693 H 0.37398 0.97239 0.4339 0.0
H694 H 0.32979 0.01232 0.39744 0.0
H695 H 0.3618 0.00087 0.44997 0.0
H696 H 0.42106 0.92295 0.36996 0.0
H697 H 0.3661 0.9056 0.35409 0.0
H698 H 0.43351 0.89637 0.35042 0.0
H699 H 0.37952 0.87939 0.33469 0.0
H700 H 0.45137 0.94523 0.42306 0.0
H701 H 0.42635 -0.0006 0.42055 0.0
H702 H 0.30226 0.9603 0.34598 0.0
H703 H 0.34501 0.94319 0.30386 0.0
Li704 Li 0.4403 0.88507 0.90508 0.0
Li705 Li 0.40992 0.87178 0.9047 0.0
Li706 Li 0.43727 0.85539 0.91966 0.0
Li707 Li 0.43463 0.85886 0.88226 0.0
C708 C 0.42683 0.89247 0.94213 0.0
N709 N 0.43149 0.92255 0.96762 0.0
C710 C 0.41372 0.90662 0.94244 0.0
C711 C 0.44214 0.89349 0.95508 0.0
C712 C 0.41636 0.92174 0.95538 0.0
C713 C 0.4443 0.90885 0.96776 0.0
C714 C 0.4114 0.88528 0.86479 0.0
C715 C 0.3872 0.8726 0.84375 0.0
N716 N 0.38859 0.88738 0.83104 0.0
C717 C 0.41254 0.90037 0.85157 0.0
C718 C 0.39859 0.8713 0.86091 0.0
C719 C 0.40091 0.90117 0.83457 0.0
C720 C 0.46969 0.90844 0.91589 0.0
N721 N 0.45214 0.908 0.90867 0.0
C722 C 0.44783 0.93984 0.91642 0.0
C723 C 0.44154 0.92342 0.90777 0.0
C724 C 0.46522 0.94024 0.92589 0.0
C725 C 0.4766 0.92458 0.92455 0.0
H726 H 0.4778 0.89596 0.91633 0.0
H727 H 0.42755 0.92252 0.90208 0.0
C728 C 0.37335 0.86364 0.91674 0.0
N729 N 0.38423 0.87655 0.90778 0.0
C730 C 0.355 0.86759 0.9213 0.0
C731 C 0.35919 0.89805 0.90703 0.0
C732 C 0.37746 0.8934 0.90251 0.0
C733 C 0.34781 0.88517 0.91698 0.0
H734 H 0.37901 0.85047 0.921 0.0
H735 H 0.38649 0.90351 0.89559 0.0
C736 C 0.47201 0.85425 0.9057 0.0
N737 N 0.50295 0.83482 0.9179 0.0
C738 C 0.48041 0.84173 0.89238 0.0
C739 C 0.47961 0.85716 0.92507 0.0
C740 C 0.49598 0.83197 0.89887 0.0
C741 C 0.49517 0.84712 0.931 0.0
C742 C 0.40775 0.83021 0.90251 0.0
C743 C 0.40361 0.82283 0.92172 0.0
C744 C 0.40137 0.82127 0.88493 0.0
C745 C 0.39331 0.80659 0.92303 0.0
C746 C 0.3911 0.80506 0.88688 0.0
N747 N 0.38733 0.7981 0.90572 0.0
C748 C 0.43805 0.84107 0.95964 0.0
C749 C 0.45105 0.82158 0.93436 0.0
C750 C 0.43898 0.82694 0.9741 0.0
N751 N 0.4436 0.83797 0.94011 0.0
C752 C 0.45258 0.8072 0.94841 0.0
C753 C 0.44581 0.80952 0.9684 0.0
H754 H 0.43171 0.85408 0.96364 0.0
H755 H 0.45497 0.81938 0.9186 0.0
C756 C 0.43817 0.8531 0.83879 0.0
N757 N 0.43909 0.84563 0.85782 0.0
C758 C 0.44007 0.84182 0.82158 0.0
C759 C 0.44463 0.81568 0.844 0.0
C760 C 0.44247 0.82739 0.86068 0.0
C761 C 0.44318 0.82282 0.82414 0.0
H762 H 0.43564 0.86769 0.83692 0.0
H763 H 0.44311 0.82188 0.87603 0.0
O764 O 0.42471 0.87776 0.92919 0.0
O765 O 0.42278 0.88435 0.88144 0.0
O766 O 0.4567 0.86387 0.89962 0.0
O767 O 0.41822 0.8459 0.90087 0.0
H768 H 0.40175 0.90607 0.93263 0.0
H769 H 0.4523 0.88259 0.95528 0.0
H770 H 0.40641 0.93286 0.95563 0.0
H771 H 0.45619 0.90989 0.9777 0.0
H772 H 0.37724 0.86187 0.84056 0.0
H773 H 0.42236 0.91133 0.85441 0.0
H774 H 0.39738 0.85963 0.87105 0.0
H775 H 0.40167 0.91275 0.82418 0.0
H776 H 0.43854 0.95151 0.91726 0.0
H777 H 0.49023 0.92444 0.93134 0.0
H778 H 0.34667 0.85709 0.9286 0.0
H779 H 0.35433 0.91183 0.90361 0.0
H780 H 0.47511 0.83967 0.87713 0.0
H781 H 0.47343 0.86688 0.93551 0.0
H782 H 0.50255 0.82218 0.88873 0.0
H783 H 0.50105 0.84912 0.94603 0.0
H784 H 0.40798 0.82973 0.93552 0.0
H785 H 0.40429 0.82676 0.86991 0.0
H786 H 0.39001 0.80077 0.93781 0.0
H787 H 0.38612 0.79801 0.87339 0.0
H788 H 0.43328 0.82936 0.98915 0.0
H789 H 0.45827 0.79417 0.94337 0.0
H790 H 0.439 0.84784 0.80648 0.0
H791 H 0.44675 0.80109 0.84665 0.0
Li792 Li 0.62441 0.40702 0.89933 0.0
Li793 Li 0.6155 0.43861 0.90271 0.0
Li794 Li 0.63989 0.42953 0.87773 0.0
Li795 Li 0.6453 0.42935 0.91533 0.0
C796 C 0.60488 0.41247 0.86294 0.0
N797 N 0.58819 0.39177 0.83264 0.0
C798 C 0.58574 0.41008 0.86287 0.0
C799 C 0.6155 0.40441 0.84749 0.0
C800 C 0.57757 0.39954 0.84746 0.0
C801 C 0.60682 0.39399 0.83233 0.0
C802 C 0.60808 0.42421 0.93925 0.0
C803 C 0.59564 0.44304 0.96635 0.0
N804 N 0.58068 0.43177 0.9674 0.0
C805 C 0.59263 0.41274 0.94069 0.0
C806 C 0.60968 0.4394 0.9523 0.0
C807 C 0.57892 0.41681 0.95502 0.0
C808 C 0.62121 0.3756 0.92182 0.0
N809 N 0.61686 0.38193 0.90288 0.0
C810 C 0.60484 0.35235 0.89356 0.0
C811 C 0.60879 0.37074 0.88875 0.0
C812 C 0.60955 0.34548 0.91291 0.0
C813 C 0.61773 0.35737 0.92716 0.0
H814 H 0.62765 0.38474 0.93276 0.0
H815 H 0.60562 0.37585 0.87372 0.0
C816 C 0.59795 0.47184 0.91456 0.0
N817 N 0.5952 0.45411 0.90862 0.0
C818 C 0.58392 0.48144 0.92459 0.0
C819 C 0.56417 0.4548 0.92061 0.0
C820 C 0.57849 0.44583 0.91051 0.0
C821 C 0.56707 0.47256 0.92862 0.0
H822 H 0.61137 0.4781 0.91275 0.0
H823 H 0.57684 0.43161 0.90596 0.0
C824 C 0.65773 0.3926 0.89639 0.0
N825 N 0.66878 0.35628 0.90036 0.0
C826 C 0.66567 0.38645 0.91463 0.0
C827 C 0.65558 0.3803 0.88011 0.0
C828 C 0.67114 0.36803 0.91635 0.0
C829 C 0.66119 0.36198 0.88244 0.0
C830 C 0.65222 0.46372 0.90301 0.0
C831 C 0.66717 0.46775 0.89027 0.0
C832 C 0.65056 0.47272 0.92181 0.0
C833 C 0.6803 0.48063 0.89665 0.0
C834 C 0.664 0.48549 0.92766 0.0
N835 N 0.67847 0.48914 0.91506 0.0
C836 C 0.64682 0.44872 0.84048 0.0
C837 C 0.66635 0.42334 0.848 0.0
C838 C 0.65686 0.45253 0.82272 0.0
N839 N 0.65181 0.43436 0.85266 0.0
C840 C 0.67654 0.42645 0.83034 0.0
C841 C 0.6719 0.44125 0.81752 0.0
H842 H 0.63529 0.45737 0.84478 0.0
H843 H 0.67022 0.41227 0.85818 0.0
C844 C 0.65956 0.42755 0.95545 0.0
N845 N 0.66364 0.43214 0.93583 0.0
C846 C 0.6733 0.42769 0.97039 0.0
C847 C 0.69509 0.43771 0.94473 0.0
C848 C 0.681 0.43707 0.93024 0.0
C849 C 0.69144 0.43264 0.96508 0.0
H850 H 0.64579 0.42308 0.95936 0.0
H851 H 0.684 0.4401 0.91442 0.0
O852 O 0.61305 0.42297 0.87779 0.0
O853 O 0.62142 0.42075 0.92494 0.0
O854 O 0.65175 0.41045 0.89463 0.0
O855 O 0.63928 0.45105 0.8971 0.0
H856 H 0.57725 0.41628 0.87457 0.0
H857 H 0.63028 0.40601 0.84725 0.0
H858 H 0.56278 0.39754 0.84727 0.0
H859 H 0.61489 0.38762 0.82035 0.0
H860 H 0.59661 0.45487 0.97638 0.0
H861 H 0.59107 0.401 0.93062 0.0
H862 H 0.62154 0.4484 0.95142 0.0
H863 H 0.56681 0.40815 0.95619 0.0
H864 H 0.59854 0.34351 0.88218 0.0
H865 H 0.62131 0.35266 0.94236 0.0
H866 H 0.58661 0.49526 0.93011 0.0
H867 H 0.55157 0.44725 0.92357 0.0
H868 H 0.66739 0.3957 0.92743 0.0
H869 H 0.64939 0.38476 0.86591 0.0
H870 H 0.67718 0.36307 0.93042 0.0
H871 H 0.65946 0.35229 0.87002 0.0
H872 H 0.66874 0.46093 0.8757 0.0
H873 H 0.63914 0.46976 0.9319 0.0
H874 H 0.69198 0.48383 0.88698 0.0
H875 H 0.66294 0.49246 0.94222 0.0
H876 H 0.65294 0.46409 0.81317 0.0
H877 H 0.68826 0.41767 0.82702 0.0
H878 H 0.66987 0.42326 0.98572 0.0
H879 H 0.70876 0.44185 0.9399 0.0
Li880 Li 0.07426 0.64339 0.8815 0.0
Li881 Li 0.0718 0.64555 0.91886 0.0
Li882 Li 0.09332 0.62356 0.90314 0.0
Li883 Li 0.06068 0.61837 0.90225 0.0
C884 C 0.11074 0.65621 0.90671 0.0
N885 N 0.14621 0.66579 0.91814 0.0
C886 C 0.11508 0.65888 0.92733 0.0
C887 C 0.12447 0.65852 0.89192 0.0
C888 C 0.13308 0.66369 0.93279 0.0
C889 C 0.14231 0.66333 0.898 0.0
C890 C 0.04036 0.6577 0.90549 0.0
C891 C 0.019 0.66982 0.93039 0.0
N892 N 0.0192 0.68636 0.92058 0.0
C893 C 0.0403 0.6748 0.89562 0.0
C894 C 0.02957 0.65515 0.92298 0.0
C895 C 0.02952 0.68912 0.90349 0.0
C896 C 0.0593 0.6547 0.84346 0.0
N897 N 0.07234 0.65816 0.85787 0.0
C898 C 0.08043 0.68654 0.84182 0.0
C899 C 0.08297 0.67356 0.85723 0.0
C900 C 0.06661 0.68377 0.82709 0.0
C901 C 0.05621 0.66741 0.82775 0.0
H902 H 0.05084 0.64246 0.84465 0.0
H903 H 0.09299 0.67609 0.86912 0.0
C904 C 0.06496 0.6582 0.95967 0.0
N905 N 0.069 0.66318 0.94015 0.0
C906 C 0.06446 0.6715 0.97511 0.0
C907 C 0.07238 0.69469 0.95002 0.0
C908 C 0.07246 0.68102 0.93505 0.0
C909 C 0.06855 0.68992 0.97036 0.0
H910 H 0.06264 0.64389 0.96339 0.0
H911 H 0.07578 0.68451 0.91941 0.0
C912 C 0.08882 0.61052 0.86278 0.0
N913 N 0.1099 0.59927 0.82987 0.0
C914 C 0.08755 0.59241 0.85559 0.0
C915 C 0.10074 0.62292 0.85317 0.0
C916 C 0.09835 0.58698 0.83896 0.0
C917 C 0.1113 0.61698 0.83656 0.0
C918 C 0.07128 0.60532 0.93828 0.0
C919 C 0.0815 0.58895 0.93809 0.0
C920 C 0.05511 0.60631 0.9499 0.0
C921 C 0.07539 0.57388 0.94955 0.0
C922 C 0.04945 0.59092 0.96112 0.0
N923 N 0.05962 0.57516 0.96072 0.0
C924 C 0.12227 0.61435 0.92783 0.0
C925 C 0.12769 0.60365 0.89416 0.0
C926 C 0.13902 0.60714 0.9344 0.0
N927 N 0.11692 0.6126 0.90804 0.0
C928 C 0.14461 0.59605 0.90014 0.0
C929 C 0.15041 0.59769 0.92056 0.0
H930 H 0.1134 0.62133 0.93862 0.0
H931 H 0.12321 0.60219 0.87855 0.0
C932 C 0.02561 0.60234 0.91005 0.0
N933 N 0.04317 0.59909 0.9038 0.0
C934 C 0.01497 0.5879 0.91779 0.0
C935 C 0.04009 0.56695 0.91051 0.0
C936 C 0.05013 0.58173 0.90271 0.0
C937 C 0.02267 0.57013 0.91928 0.0
H938 H 0.02041 0.6163 0.91058 0.0
H939 H 0.06423 0.57967 0.89784 0.0
O940 O 0.09323 0.65122 0.90106 0.0
O941 O 0.05116 0.64363 0.8983 0.0
O942 O 0.07821 0.61602 0.87896 0.0
O943 O 0.07692 0.62018 0.92694 0.0
H944 H 0.10481 0.65687 0.93908 0.0
H945 H 0.12146 0.65664 0.87589 0.0
H946 H 0.13662 0.66566 0.9487 0.0
H947 H 0.15305 0.66511 0.8867 0.0
H948 H 0.01071 0.66808 0.94399 0.0
H949 H 0.04857 0.67709 0.88212 0.0
H950 H 0.0296 0.64211 0.93097 0.0
H951 H 0.0294 0.70244 0.89604 0.0
H952 H 0.08896 0.6988 0.84168 0.0
H953 H 0.04533 0.66481 0.81679 0.0
H954 H 0.06167 0.66732 0.9907 0.0
H955 H 0.07553 0.70879 0.94581 0.0
H956 H 0.07831 0.58264 0.86279 0.0
H957 H 0.10195 0.63692 0.85855 0.0
H958 H 0.09753 0.57299 0.83326 0.0
H959 H 0.12063 0.62644 0.82903 0.0
H960 H 0.09387 0.58775 0.92896 0.0
H961 H 0.04679 0.61868 0.94993 0.0
H962 H 0.08312 0.56112 0.94946 0.0
H963 H 0.03689 0.59147 0.97003 0.0
H964 H 0.14303 0.60912 0.95018 0.0
H965 H 0.15289 0.58876 0.889 0.0
H966 H 0.00141 0.59088 0.9239 0.0
H967 H 0.04673 0.5536 0.91144 0.0
Li968 Li 0.87312 0.09523 0.90279 0.0
Li969 Li 0.88112 0.06334 0.90413 0.0
Li970 Li 0.8564 0.07317 0.88108 0.0
Li971 Li 0.85226 0.07225 0.9182 0.0
C972 C 0.88688 0.09036 0.86296 0.0
N973 N 0.89399 0.11064 0.82807 0.0
C974 C 0.9041 0.08921 0.85345 0.0
C975 C 0.87325 0.10177 0.85467 0.0
C976 C 0.90745 0.09961 0.83585 0.0
C977 C 0.8771 0.11191 0.83703 0.0
C978 C 0.89141 0.07631 0.93978 0.0
C979 C 0.90642 0.05717 0.96497 0.0
N980 N 0.92182 0.06781 0.9635 0.0
C981 C 0.90738 0.08707 0.93855 0.0
C982 C 0.89091 0.06126 0.95314 0.0
C983 C 0.9226 0.08254 0.95066 0.0
C984 C 0.87863 0.12638 0.92598 0.0
N985 N 0.88165 0.11999 0.90675 0.0
C986 C 0.89546 0.14871 0.89718 0.0
C987 C 0.89019 0.13065 0.89247 0.0
C988 C 0.89193 0.15578 0.91676 0.0
C989 C 0.88355 0.14429 0.93131 0.0
H990 H 0.87241 0.11747 0.93728 0.0
H991 H 0.89303 0.12531 0.87745 0.0
C992 C 0.90028 0.03122 0.91679 0.0
N993 N 0.9019 0.04793 0.9076 0.0
C994 C 0.91591 0.02239 0.92447 0.0
C995 C 0.9346 0.04733 0.91125 0.0
C996 C 0.91862 0.05568 0.9039 0.0
C997 C 0.93324 0.03091 0.92255 0.0
H998 H 0.88678 0.02546 0.9196 0.0
H999 H 0.9194 0.06909 0.8967 0.0
C1000 C 0.83757 0.10858 0.90414 0.0
N1001 N 0.82108 0.1416 0.91486 0.0
C1002 C 0.83541 0.1133 0.92472 0.0
C1003 C 0.83121 0.12065 0.88902 0.0
C1004 C 0.82709 0.13006 0.92983 0.0
C1005 C 0.82295 0.13727 0.89475 0.0
C1006 C 0.84393 0.03902 0.90549 0.0
C1007 C 0.82839 0.0358 0.89335 0.0
C1008 C 0.84563 0.03004 0.92431 0.0
C1009 C 0.81471 0.02378 0.90035 0.0
C1010 C 0.83163 0.01816 0.93079 0.0
N1011 N 0.81659 0.01531 0.91878 0.0
C1012 C 0.85141 0.06015 0.84041 0.0
C1013 C 0.82666 0.07714 0.85489 0.0
C1014 C 0.84153 0.0578 0.82225 0.0
N1015 N 0.84382 0.06972 0.85617 0.0
C1016 C 0.81639 0.07525 0.83705 0.0
C1017 C 0.82381 0.0655 0.82045 0.0
H1018 H 0.8651 0.05439 0.84197 0.0
H1019 H 0.8209 0.0844 0.86783 0.0
C1020 C 0.83793 0.0683 0.95869 0.0
N1021 N 0.83372 0.06876 0.93846 0.0
C1022 C 0.82391 0.06693 0.97325 0.0
C1023 C 0.80155 0.06649 0.94583 0.0
C1024 C 0.81598 0.06788 0.93184 0.0
C1025 C 0.80541 0.0662 0.96687 0.0
H1026 H 0.85211 0.06953 0.96356 0.0
H1027 H 0.81306 0.06854 0.91565 0.0
O1028 O 0.88332 0.07991 0.87992 0.0
O1029 O 0.87648 0.0803 0.92773 0.0
O1030 O 0.84584 0.09228 0.89879 0.0
O1031 O 0.85734 0.05096 0.89904 0.0
H1032 H 0.91477 0.08034 0.85957 0.0
H1033 H 0.85992 0.10291 0.86186 0.0
H1034 H 0.92072 0.09887 0.82835 0.0
H1035 H 0.86668 0.12082 0.8305 0.0
H1036 H 0.90626 0.04548 0.97522 0.0
H1037 H 0.90813 0.09863 0.92813 0.0
H1038 H 0.87881 0.05259 0.95408 0.0
H1039 H 0.93508 0.09068 0.94976 0.0
H1040 H 0.90197 0.15712 0.88556 0.0
H1041 H 0.88101 0.14904 0.94675 0.0
H1042 H 0.91422 0.00983 0.93324 0.0
H1043 H 0.94773 0.05422 0.90925 0.0
H1044 H 0.84043 0.10433 0.93667 0.0
H1045 H 0.83259 0.11724 0.87301 0.0
H1046 H 0.82547 0.13391 0.9457 0.0
H1047 H 0.818 0.14673 0.8832 0.0
H1048 H 0.82686 0.04253 0.87871 0.0
H1049 H 0.85745 0.0325 0.93401 0.0
H1050 H 0.80258 0.02122 0.89115 0.0
H1051 H 0.83269 0.01127 0.9454 0.0
H1052 H 0.8477 0.05023 0.80973 0.0
H1053 H 0.80265 0.08109 0.83639 0.0
H1054 H 0.82747 0.06708 0.98932 0.0
H1055 H 0.78751 0.0658 0.94024 0.0
Li1056 Li 0.4226 0.64397 0.61354 0.0
Li1057 Li 0.42412 0.64604 0.57515 0.0
Li1058 Li 0.40272 0.62533 0.59277 0.0
Li1059 Li 0.43413 0.61838 0.59312 0.0
C1060 C 0.38587 0.65777 0.5958 0.0
N1061 N 0.349 0.66695 0.59909 0.0
C1062 C 0.37497 0.6593 0.57827 0.0
C1063 C 0.37807 0.66103 0.615 0.0
C1064 C 0.35633 0.66389 0.58026 0.0
C1065 C 0.35939 0.66565 0.61634 0.0
C1066 C 0.46046 0.6439 0.6068 0.0
C1067 C 0.49055 0.65623 0.61467 0.0
N1068 N 0.49179 0.64456 0.63088 0.0
C1069 C 0.46209 0.63197 0.6235 0.0
C1070 C 0.47483 0.6561 0.60231 0.0
C1071 C 0.47801 0.63254 0.6355 0.0
C1072 C 0.43057 0.6532 0.65537 0.0
N1073 N 0.42558 0.65936 0.63655 0.0
C1074 C 0.42462 0.69046 0.64839 0.0
C1075 C 0.4228 0.67756 0.63277 0.0
C1076 C 0.42944 0.68457 0.66812 0.0
C1077 C 0.43256 0.66567 0.67153 0.0
H1078 H 0.43296 0.63864 0.65785 0.0
H1079 H 0.41916 0.68204 0.61752 0.0
C1080 C 0.4149 0.66186 0.53738 0.0
N1081 N 0.42708 0.66256 0.55313 0.0
C1082 C 0.41525 0.67537 0.52218 0.0
C1083 C 0.44137 0.68937 0.53913 0.0
C1084 C 0.44036 0.67572 0.55412 0.0
C1085 C 0.42837 0.68963 0.52316 0.0
H1086 H 0.40449 0.65117 0.53704 0.0
H1087 H 0.44979 0.67595 0.5669 0.0
C1088 C 0.40446 0.60743 0.62753 0.0
N1089 N 0.3782 0.58743 0.64866 0.0
C1090 C 0.39876 0.59019 0.6203 0.0
C1091 C 0.3968 0.61448 0.64551 0.0
C1092 C 0.38545 0.58031 0.63119 0.0
C1093 C 0.38355 0.60415 0.65598 0.0
C1094 C 0.42584 0.60828 0.55538 0.0
C1095 C 0.42134 0.58956 0.55641 0.0
C1096 C 0.43876 0.61437 0.54102 0.0
C1097 C 0.43001 0.57717 0.54317 0.0
C1098 C 0.44714 0.60153 0.52806 0.0
N1099 N 0.44264 0.58335 0.52941 0.0
C1100 C 0.37455 0.60831 0.57085 0.0
C1101 C 0.36486 0.61702 0.60404 0.0
C1102 C 0.35701 0.60168 0.5663 0.0
N1103 N 0.3782 0.61575 0.58946 0.0
C1104 C 0.34705 0.61053 0.60014 0.0
C1105 C 0.34295 0.60275 0.58101 0.0
H1106 H 0.38515 0.6079 0.55928 0.0
H1107 H 0.36791 0.62329 0.61861 0.0
C1108 C 0.44775 0.58199 0.59755 0.0
N1109 N 0.45183 0.59921 0.59071 0.0
C1110 C 0.45783 0.56687 0.59055 0.0
C1111 C 0.47733 0.58777 0.57148 0.0
C1112 C 0.46679 0.60247 0.57873 0.0
C1113 C 0.47229 0.56966 0.57661 0.0
H1114 H 0.43588 0.57984 0.60718 0.0
H1115 H 0.46956 0.61631 0.57337 0.0
O1116 O 0.40405 0.65294 0.5942 0.0
O1117 O 0.44496 0.64368 0.59483 0.0
O1118 O 0.41761 0.61726 0.6172 0.0
O1119 O 0.4178 0.62057 0.56853 0.0
H1120 H 0.38077 0.65673 0.56332 0.0
H1121 H 0.38627 0.65974 0.62874 0.0
H1122 H 0.34769 0.66498 0.56683 0.0
H1123 H 0.35314 0.66811 0.6311 0.0
H1124 H 0.50175 0.66562 0.61137 0.0
H1125 H 0.45121 0.62236 0.62723 0.0
H1126 H 0.47388 0.66537 0.58941 0.0
H1127 H 0.47941 0.62341 0.64849 0.0
H1128 H 0.42247 0.70492 0.64497 0.0
H1129 H 0.43625 0.66056 0.68653 0.0
H1130 H 0.4048 0.67509 0.51037 0.0
H1131 H 0.45194 0.69987 0.54035 0.0
H1132 H 0.40424 0.58467 0.6062 0.0
H1133 H 0.40086 0.62786 0.65123 0.0
H1134 H 0.38082 0.56702 0.62569 0.0
H1135 H 0.37747 0.60946 0.66988 0.0
H1136 H 0.41141 0.58461 0.56748 0.0
H1137 H 0.44247 0.62879 0.54008 0.0
H1138 H 0.42675 0.56262 0.54388 0.0
H1139 H 0.45727 0.60601 0.51699 0.0
H1140 H 0.35437 0.59629 0.55114 0.0
H1141 H 0.33661 0.61166 0.61191 0.0
H1142 H 0.45368 0.55309 0.595 0.0
H1143 H 0.48826 0.59047 0.56059 0.0
Li1144 Li 0.87644 0.40868 0.59701 0.0
Li1145 Li 0.88229 0.44122 0.59709 0.0
Li1146 Li 0.85616 0.42914 0.61688 0.0
Li1147 Li 0.85573 0.43029 0.57944 0.0
C1148 C 0.88682 0.41382 0.6381 0.0
N1149 N 0.89392 0.39351 0.67298 0.0
C1150 C 0.90415 0.4147 0.64741 0.0
C1151 C 0.87309 0.40265 0.64657 0.0
C1152 C 0.90748 0.4043 0.66501 0.0
C1153 C 0.87694 0.3925 0.6642 0.0
C1154 C 0.89687 0.42944 0.56246 0.0
C1155 C 0.91271 0.44995 0.53929 0.0
N1156 N 0.92848 0.44009 0.54194 0.0
C1157 C 0.91327 0.41953 0.56496 0.0
C1158 C 0.8966 0.44481 0.54953 0.0
C1159 C 0.92908 0.42511 0.55445 0.0
C1160 C 0.8884 0.37937 0.57368 0.0
N1161 N 0.88654 0.38438 0.5936 0.0
C1162 C 0.89758 0.35483 0.60446 0.0
C1163 C 0.891 0.37252 0.60896 0.0
C1164 C 0.89976 0.34946 0.584 0.0
C1165 C 0.89509 0.36199 0.56852 0.0
H1166 H 0.88451 0.38887 0.56172 0.0
H1167 H 0.88938 0.37656 0.62467 0.0
C1168 C 0.89914 0.47559 0.58846 0.0
N1169 N 0.90193 0.45837 0.59602 0.0
C1170 C 0.91403 0.48571 0.58091 0.0
C1171 C 0.93438 0.46093 0.5911 0.0
C1172 C 0.91915 0.45145 0.59873 0.0
C1173 C 0.93176 0.4778 0.58088 0.0
H1174 H 0.88528 0.48081 0.58671 0.0
H1175 H 0.92086 0.43765 0.60475 0.0
C1176 C 0.84332 0.39243 0.59197 0.0
N1177 N 0.83275 0.35734 0.58034 0.0
C1178 C 0.84391 0.38726 0.5714 0.0
C1179 C 0.83731 0.37975 0.60662 0.0
C1180 C 0.83852 0.36946 0.56583 0.0
C1181 C 0.83203 0.36208 0.60043 0.0
C1182 C 0.84376 0.46241 0.59062 0.0
C1183 C 0.82639 0.46376 0.59979 0.0
C1184 C 0.84726 0.47195 0.57246 0.0
C1185 C 0.81275 0.4745 0.59051 0.0
C1186 C 0.83324 0.48252 0.56365 0.0
N1187 N 0.81642 0.48356 0.57277 0.0
C1188 C 0.845 0.44235 0.65606 0.0
C1189 C 0.82366 0.42363 0.63803 0.0
C1190 C 0.83221 0.44511 0.67176 0.0
N1191 N 0.84042 0.43184 0.63964 0.0
C1192 C 0.81052 0.426 0.65329 0.0
C1193 C 0.81465 0.43695 0.67038 0.0
H1194 H 0.85844 0.44881 0.65678 0.0
H1195 H 0.82032 0.41567 0.62456 0.0
C1196 C 0.84436 0.43557 0.53777 0.0
N1197 N 0.83886 0.43231 0.55731 0.0
C1198 C 0.83149 0.43534 0.52188 0.0
C1199 C 0.80766 0.4283 0.54655 0.0
C1200 C 0.8209 0.42896 0.56196 0.0
C1201 C 0.81298 0.4313 0.52622 0.0
H1202 H 0.85875 0.43781 0.53442 0.0
H1203 H 0.81699 0.42628 0.57764 0.0
O1204 O 0.88329 0.42431 0.62117 0.0
O1205 O 0.88128 0.42432 0.57286 0.0
O1206 O 0.8489 0.40969 0.5978 0.0
O1207 O 0.85718 0.45161 0.59922 0.0
H1208 H 0.9149 0.42337 0.64113 0.0
H1209 H 0.85973 0.40155 0.63943 0.0
H1210 H 0.92084 0.40483 0.67235 0.0
H1211 H 0.86646 0.38374 0.67085 0.0
H1212 H 0.9127 0.46187 0.52934 0.0
H1213 H 0.91394 0.40789 0.57525 0.0
H1214 H 0.88421 0.45293 0.54772 0.0
H1215 H 0.94188 0.41764 0.5564 0.0
H1216 H 0.90104 0.34551 0.61682 0.0
H1217 H 0.89622 0.35825 0.55254 0.0
H1218 H 0.91143 0.49893 0.57376 0.0
H1219 H 0.94769 0.45416 0.5914 0.0
H1220 H 0.8488 0.39676 0.55987 0.0
H1221 H 0.83671 0.38348 0.62261 0.0
H1222 H 0.83902 0.36526 0.54998 0.0
H1223 H 0.82737 0.35212 0.61161 0.0
H1224 H 0.82342 0.45657 0.61386 0.0
H1225 H 0.86054 0.47094 0.56503 0.0
H1226 H 0.79923 0.47561 0.59741 0.0
H1227 H 0.83572 0.48983 0.5495 0.0
H1228 H 0.83596 0.45356 0.68476 0.0
H1229 H 0.79705 0.41977 0.65138 0.0
H1230 H 0.83606 0.43753 0.50631 0.0
H1231 H 0.79346 0.4252 0.55043 0.0
Li1232 Li 0.09141 0.86837 0.58687 0.0
Li1233 Li 0.0597 0.87761 0.58615 0.0
Li1234 Li 0.06929 0.85257 0.60921 0.0
Li1235 Li 0.0674 0.84824 0.57197 0.0
C1236 C 0.08757 0.88315 0.62656 0.0
N1237 N 0.10891 0.89092 0.66047 0.0
C1238 C 0.08694 0.90065 0.63548 0.0
C1239 C 0.099 0.86959 0.63492 0.0
C1240 C 0.09786 0.90432 0.6526 0.0
C1241 C 0.10969 0.87378 0.65206 0.0
C1242 C 0.0724 0.88654 0.54949 0.0
C1243 C 0.05318 0.90101 0.524 0.0
N1244 N 0.0644 0.91603 0.52422 0.0
C1245 C 0.08381 0.90209 0.54937 0.0
C1246 C 0.05704 0.88593 0.53659 0.0
C1247 C 0.07953 0.91686 0.53649 0.0
C1248 C 0.12224 0.87205 0.56297 0.0
N1249 N 0.11608 0.87652 0.58193 0.0
C1250 C 0.14362 0.89375 0.58846 0.0
C1251 C 0.12638 0.88715 0.59473 0.0
C1252 C 0.1502 0.88945 0.56882 0.0
C1253 C 0.13936 0.87816 0.55618 0.0
H1254 H 0.11355 0.86416 0.55281 0.0
H1255 H 0.12111 0.89107 0.6095 0.0
C1256 C 0.02733 0.89698 0.57511 0.0
N1257 N 0.0448 0.89869 0.58234 0.0
C1258 C 0.01845 0.91219 0.56652 0.0
C1259 C 0.04513 0.93083 0.57471 0.0
C1260 C 0.0534 0.9153 0.5833 0.0
C1261 C 0.02779 0.92916 0.56527 0.0
H1262 H 0.02082 0.8836 0.57465 0.0
H1263 H 0.06738 0.91612 0.58901 0.0
C1264 C 0.10347 0.8319 0.58641 0.0
N1265 N 0.13555 0.81296 0.57725 0.0
C1266 C 0.1082 0.82831 0.56609 0.0
C1267 C 0.11498 0.82561 0.60209 0.0
C1268 C 0.1245 0.8188 0.56176 0.0
C1269 C 0.13116 0.81612 0.59715 0.0
C1270 C 0.03338 0.84202 0.58603 0.0
C1271 C 0.02853 0.82749 0.59902 0.0
C1272 C 0.02433 0.84403 0.5673 0.0
C1273 C 0.01488 0.81506 0.5929 0.0
C1274 C 0.01077 0.83129 0.56172 0.0
N1275 N 0.00638 0.81719 0.57452 0.0
C1276 C 0.05748 0.84727 0.65054 0.0
C1277 C 0.07107 0.82173 0.63359 0.0
C1278 C 0.05423 0.8365 0.66792 0.0
N1279 N 0.0657 0.83967 0.63388 0.0
C1280 C 0.06817 0.81054 0.65054 0.0
C1281 C 0.05946 0.81781 0.66794 0.0
H1282 H 0.05322 0.86157 0.6502 0.0
H1283 H 0.07736 0.81604 0.62001 0.0
C1284 C 0.06582 0.8344 0.53152 0.0
N1285 N 0.06283 0.83024 0.55149 0.0
C1286 C 0.064 0.82081 0.51654 0.0
C1287 C 0.05542 0.79911 0.54293 0.0
C1288 C 0.05784 0.81299 0.55741 0.0
C1289 C 0.05885 0.80279 0.52215 0.0
H1290 H 0.07028 0.8481 0.5273 0.0
H1291 H 0.05595 0.80997 0.57345 0.0
O1292 O 0.07683 0.87936 0.60991 0.0
O1293 O 0.07611 0.87211 0.56236 0.0
O1294 O 0.08753 0.8412 0.59098 0.0
O1295 O 0.04682 0.85425 0.5917 0.0
H1296 H 0.0781 0.91129 0.62922 0.0
H1297 H 0.09966 0.85604 0.62819 0.0
H1298 H 0.09753 0.91782 0.65965 0.0
H1299 H 0.11862 0.86341 0.65865 0.0
H1300 H 0.04123 0.9008 0.5141 0.0
H1301 H 0.09569 0.90289 0.55934 0.0
H1302 H 0.04804 0.87403 0.53649 0.0
H1303 H 0.08815 0.92904 0.53635 0.0
H1304 H 0.15139 0.90263 0.5986 0.0
H1305 H 0.14392 0.87426 0.54103 0.0
H1306 H 0.00492 0.91041 0.55981 0.0
H1307 H 0.05293 0.94354 0.57395 0.0
H1308 H 0.09956 0.83306 0.55373 0.0
H1309 H 0.11146 0.82789 0.61794 0.0
H1310 H 0.12837 0.81608 0.54608 0.0
H1311 H 0.14019 0.81123 0.60914 0.0
H1312 H 0.03522 0.8258 0.61365 0.0
H1313 H 0.02794 0.85512 0.55701 0.0
H1314 H 0.01105 0.80372 0.60277 0.0
H1315 H 0.00379 0.8326 0.54718 0.0
H1316 H 0.04738 0.84261 0.68097 0.0
H1317 H 0.07274 0.79632 0.65 0.0
H1318 H 0.06722 0.82429 0.50086 0.0
H1319 H 0.05111 0.78559 0.54807 0.0
Li1320 Li 0.64066 0.06894 0.58123 0.0
Li1321 Li 0.64025 0.068 0.6178 0.0
Li1322 Li 0.61215 0.05909 0.59952 0.0
Li1323 Li 0.62246 0.09113 0.6019 0.0
C1324 C 0.63568 0.03084 0.58756 0.0
N1325 N 0.63245 0.9986 0.56532 0.0
C1326 C 0.64316 0.01442 0.59507 0.0
C1327 C 0.62659 0.03087 0.56872 0.0
C1328 C 0.64139 0.99826 0.58359 0.0
C1329 C 0.62508 0.01444 0.55772 0.0
C1330 C 0.66604 0.09181 0.60881 0.0
C1331 C 0.68443 0.10619 0.63508 0.0
N1332 N 0.69969 0.0976 0.6276 0.0
C1333 C 0.68192 0.08321 0.60131 0.0
C1334 C 0.6673 0.10349 0.62575 0.0
C1335 C 0.6988 0.0863 0.61104 0.0
C1336 C 0.65893 0.08191 0.54612 0.0
N1337 N 0.6562 0.06656 0.55767 0.0
C1338 C 0.6791 0.05021 0.53854 0.0
C1339 C 0.66604 0.05088 0.55419 0.0
C1340 C 0.68239 0.06596 0.5266 0.0
C1341 C 0.67188 0.08188 0.53034 0.0
H1342 H 0.65177 0.09451 0.54984 0.0
H1343 H 0.66449 0.03909 0.56408 0.0
C1344 C 0.65407 0.07039 0.65837 0.0
N1345 N 0.65603 0.06218 0.63985 0.0
C1346 C 0.66757 0.06804 0.67334 0.0
C1347 C 0.68429 0.04811 0.65017 0.0
C1348 C 0.67049 0.05086 0.63567 0.0
C1349 C 0.68313 0.05711 0.66913 0.0
H1350 H 0.64241 0.0793 0.66124 0.0
H1351 H 0.67172 0.04468 0.62068 0.0
C1352 C 0.60979 0.08395 0.55875 0.0
N1353 N 0.59944 0.09799 0.52117 0.0
C1354 C 0.61527 0.10167 0.55291 0.0
C1355 C 0.59891 0.07343 0.54549 0.0
C1356 C 0.60993 0.10851 0.53385 0.0
C1357 C 0.59387 0.08075 0.52655 0.0
C1358 C 0.60286 0.08595 0.635 0.0
C1359 C 0.58383 0.08285 0.6349 0.0
C1360 C 0.60999 0.10111 0.64559 0.0
C1361 C 0.57221 0.09516 0.64512 0.0
C1362 C 0.59792 0.11311 0.65559 0.0
N1363 N 0.57944 0.10992 0.65514 0.0
C1364 C 0.59102 0.02575 0.60059 0.0
C1365 C 0.57616 0.05281 0.58855 0.0
C1366 C 0.57625 0.01489 0.59401 0.0
N1367 N 0.59097 0.04421 0.59695 0.0
C1368 C 0.56105 0.04258 0.58201 0.0
C1369 C 0.56131 0.0233 0.584 0.0
H1370 H 0.60294 0.0193 0.60747 0.0
H1371 H 0.5766 0.06753 0.58585 0.0
C1372 C 0.62478 0.13018 0.60244 0.0
N1373 N 0.61308 0.11557 0.60153 0.0
C1374 C 0.61815 0.14803 0.59926 0.0
C1375 C 0.5875 0.13545 0.59495 0.0
C1376 C 0.59473 0.11786 0.59811 0.0
C1377 C 0.59934 0.1508 0.59502 0.0
H1378 H 0.63937 0.1279 0.60468 0.0
H1379 H 0.58584 0.10591 0.59711 0.0
O1380 O 0.63701 0.04666 0.59888 0.0
O1381 O 0.64929 0.08852 0.59986 0.0
O1382 O 0.61458 0.07711 0.57754 0.0
O1383 O 0.61444 0.07418 0.62486 0.0
H1384 H 0.65019 0.01415 0.60967 0.0
H1385 H 0.62083 0.04344 0.56265 0.0
H1386 H 0.64709 0.98544 0.58923 0.0
H1387 H 0.61806 0.01427 0.54314 0.0
H1388 H 0.68557 0.11505 0.64831 0.0
H1389 H 0.68121 0.07406 0.58829 0.0
H1390 H 0.65515 0.11019 0.63183 0.0
H1391 H 0.71117 0.07964 0.60548 0.0
H1392 H 0.68694 0.03766 0.53624 0.0
H1393 H 0.67432 0.09451 0.52192 0.0
H1394 H 0.66606 0.07503 0.68788 0.0
H1395 H 0.69615 0.03975 0.64622 0.0
H1396 H 0.62372 0.11002 0.56288 0.0
H1397 H 0.59435 0.05975 0.54975 0.0
H1398 H 0.61415 0.12218 0.52914 0.0
H1399 H 0.58551 0.07274 0.51613 0.0
H1400 H 0.57809 0.07108 0.62702 0.0
H1401 H 0.62466 0.10377 0.64576 0.0
H1402 H 0.55745 0.09297 0.64508 0.0
H1403 H 0.60324 0.125 0.66366 0.0
H1404 H 0.57688 5e-05 0.59582 0.0
H1405 H 0.54995 0.04956 0.57408 0.0
H1406 H 0.62784 0.1594 0.59906 0.0
H1407 H 0.57289 0.13696 0.5919 0.0
H1408 H 0.55313 0.19583 0.00144 0.0
H1409 H 0.55683 0.2213 0.97707 0.0
H1410 H 0.61299 0.22882 0.99723 0.0
H1411 H 0.60944 0.20347 0.02141 0.0
H1412 H 0.59364 0.2606 0.99812 0.0
H1413 H 0.60339 0.21028 0.95092 0.0
H1414 H 0.59501 0.18155 0.93302 0.0
H1415 H 0.54703 0.20791 0.90794 0.0
H1416 H 0.55499 0.23675 0.92594 0.0
H1417 H 0.63343 0.32152 0.93067 0.0
H1418 H 0.6262 0.29158 0.94577 0.0
H1419 H 0.57032 0.29574 0.92361 0.0
H1420 H 0.57753 0.32588 0.90833 0.0
H1421 H 0.58564 0.25866 0.92281 0.0
H1422 H 0.5764 0.30918 0.96894 0.0
H1423 H 0.585 0.3381 0.98631 0.0
H1424 H 0.63163 0.31117 0.01367 0.0
H1425 H 0.62349 0.28216 0.99616 0.0
C1426 C 0.56635 0.20274 0.0004 0.0
C1427 C 0.58095 0.19781 0.01347 0.0
C1428 C 0.56843 0.21727 0.9865 0.0
C1429 C 0.58518 0.22694 0.98539 0.0
C1430 C 0.59992 0.22161 0.99796 0.0
C1431 C 0.59784 0.20718 0.01181 0.0
C1432 C 0.58718 0.24342 0.97222 0.0
C1433 C 0.59204 0.2601 0.98164 0.0
C1434 C 0.58444 0.24292 0.95081 0.0
C1435 C 0.57967 0.2256 0.93997 0.0
C1436 C 0.59096 0.2099 0.94174 0.0
C1437 C 0.58631 0.19361 0.93155 0.0
C1438 C 0.57047 0.19289 0.9194 0.0
C1439 C 0.55928 0.20848 0.91738 0.0
C1440 C 0.56386 0.2248 0.92757 0.0
C1441 C 0.61968 0.31591 0.92873 0.0
C1442 C 0.60593 0.3261 0.91868 0.0
C1443 C 0.6156 0.29881 0.93727 0.0
C1444 C 0.59766 0.29165 0.93606 0.0
C1445 C 0.58423 0.3011 0.9247 0.0
C1446 C 0.58835 0.31827 0.91602 0.0
C1447 C 0.59265 0.27554 0.94874 0.0
C1448 C 0.58709 0.25909 0.9393 0.0
C1449 C 0.59466 0.27619 0.97022 0.0
C1450 C 0.59941 0.29353 0.9811 0.0
C1451 C 0.58856 0.30945 0.97855 0.0
C1452 C 0.59335 0.32586 0.98843 0.0
C1453 C 0.60888 0.32648 0.00106 0.0
C1454 C 0.61962 0.31068 0.00387 0.0
C1455 C 0.61491 0.29424 0.99398 0.0
H1456 H 0.61257 0.3392 0.00869 0.0
H1457 H 0.56689 0.18026 0.91152 0.0
H1458 H 0.18375 0.5971 0.90043 0.0
H1459 H 0.21366 0.58713 0.91418 0.0
H1460 H 0.18738 0.57143 0.97061 0.0
H1461 H 0.15746 0.58047 0.95685 0.0
H1462 H 0.22038 0.60178 0.96748 0.0
H1463 H 0.19845 0.53867 0.95273 0.0
H1464 H 0.18754 0.51471 0.92887 0.0
H1465 H 0.2367 0.5211 0.89293 0.0
H1466 H 0.24775 0.54532 0.91646 0.0
H1467 H 0.27821 0.56591 0.04009 0.0
H1468 H 0.25265 0.57007 0.01676 0.0
H1469 H 0.28769 0.55589 0.96586 0.0
H1470 H 0.31331 0.55024 0.98946 0.0
H1471 H 0.25374 0.54233 0.96009 0.0
H1472 H 0.27857 0.60096 0.97667 0.0
H1473 H 0.29057 0.62553 -0.00093 0.0
H1474 H 0.23782 0.62985 0.02854 0.0
H1475 H 0.22558 0.60509 0.00655 0.0
C1476 C 0.18426 0.59106 0.91556 0.0
C1477 C 0.16823 0.58984 0.92765 0.0
C1478 C 0.20135 0.58545 0.92338 0.0
C1479 C 0.20259 0.5786 0.94335 0.0
C1480 C 0.1866 0.57671 0.95514 0.0
C1481 C 0.16956 0.58205 0.9473 0.0
C1482 C 0.22065 0.57517 0.95297 0.0
C1483 C 0.22771 0.5888 0.96593 0.0
C1484 C 0.23043 0.55852 0.95022 0.0
C1485 C 0.22378 0.54398 0.93616 0.0
C1486 C 0.20681 0.53513 0.9396 0.0
C1487 C 0.20064 0.52146 0.92618 0.0
C1488 C 0.21139 0.51644 0.90934 0.0
C1489 C 0.22837 0.52503 0.90594 0.0
C1490 C 0.23459 0.53873 0.91932 0.0
C1491 C 0.28051 0.5631 0.02405 0.0
C1492 C 0.29797 0.55772 0.01675 0.0
C1493 C 0.26587 0.56581 0.01064 0.0
C1494 C 0.26838 0.56378 0.98951 0.0
C1495 C 0.28551 0.55773 0.98211 0.0
C1496 C 0.30019 0.5547 0.99562 0.0
C1497 C 0.25315 0.56869 0.9754 0.0
C1498 C 0.24665 0.55546 0.96146 0.0
C1499 C 0.244 0.58591 0.97697 0.0
C1500 C 0.25118 0.60108 0.99001 0.0
C1501 C 0.26955 0.60709 0.98799 0.0
C1502 C 0.2764 0.62105 0.00062 0.0
C1503 C 0.26497 0.62923 0.01523 0.0
C1504 C 0.24666 0.6235 0.01721 0.0
C1505 C 0.23975 0.60952 0.00464 0.0
H1506 H 0.27031 0.64002 0.02501 0.0
H1507 H 0.20659 0.50584 0.89897 0.0
H1508 H 0.87115 0.18054 0.9379 0.0
H1509 H 0.88014 0.21112 0.94967 0.0
H1510 H 0.9328 0.2053 0.91959 0.0
H1511 H 0.92401 0.17427 0.90817 0.0
H1512 H 0.93689 0.21689 0.95821 0.0
H1513 H 0.9015 0.23613 0.90137 0.0
H1514 H 0.87504 0.2369 0.87772 0.0
H1515 H 0.83977 0.25541 0.92628 0.0
H1516 H 0.86594 0.25449 0.95032 0.0
H1517 H 0.95265 0.3076 -0.00066 0.0
H1518 H 0.94936 0.28353 0.97314 0.0
H1519 H 0.89479 0.27113 0.99562 0.0
H1520 H 0.89793 0.29514 0.02155 0.0
H1521 H 0.89647 0.27197 0.95335 0.0
H1522 H 0.93074 0.24583 0.01068 0.0
H1523 H 0.95702 0.24449 0.03458 0.0
H1524 H 0.99451 0.23894 0.98413 0.0
H1525 H 0.96843 0.2405 0.95992 0.0
C1526 C 0.88463 0.18578 0.93372 0.0
C1527 C 0.89692 0.17497 0.92224 0.0
C1528 C 0.88967 0.20336 0.94025 0.0
C1529 C 0.90706 0.21059 0.93529 0.0
C1530 C 0.91927 0.20001 0.92346 0.0
C1531 C 0.9142 0.18236 0.91687 0.0
C1532 C 0.91277 0.2286 0.94394 0.0
C1533 C 0.92834 0.2291 0.95668 0.0
C1534 C 0.90153 0.24448 0.9421 0.0
C1535 C 0.88571 0.24517 0.92768 0.0
C1536 C 0.88808 0.24025 0.90705 0.0
C1537 C 0.87313 0.24073 0.89357 0.0
C1538 C 0.85573 0.24619 0.9005 0.0
C1539 C 0.85326 0.2512 0.92093 0.0
C1540 C 0.86816 0.25074 0.93449 0.0
C1541 C 0.9399 0.29985 0.99848 0.0
C1542 C 0.9256 0.30306 0.01256 0.0
C1543 C 0.93806 0.28611 0.98359 0.0
C1544 C 0.92187 0.27553 0.98255 0.0
C1545 C 0.90739 0.27917 0.99617 0.0
C1546 C 0.90926 0.29275 0.01109 0.0
C1547 C 0.92011 0.25992 0.96811 0.0
C1548 C 0.9053 0.25991 0.95433 0.0
C1549 C 0.93206 0.24451 0.96895 0.0
C1550 C 0.94769 0.24353 0.9835 0.0
C1551 C 0.94461 0.24449 0.00469 0.0
C1552 C 0.95946 0.24366 0.01829 0.0
C1553 C 0.97743 0.2417 0.01088 0.0
C1554 C 0.98058 0.24051 0.98985 0.0
C1555 C 0.96578 0.24136 0.97618 0.0
H1556 H 0.98891 0.24105 0.02143 0.0
H1557 H 0.84418 0.24654 0.89004 0.0
H1558 H 0.32179 0.90673 0.89761 0.0
H1559 H 0.29129 0.91569 0.91058 0.0
H1560 H 0.30109 0.88425 0.96546 0.0
H1561 H 0.3315 0.87568 0.95303 0.0
H1562 H 0.26671 0.87778 0.94907 0.0
H1563 H 0.30641 0.92996 0.96547 0.0
H1564 H 0.32739 0.95556 0.95678 0.0
H1565 H 0.28559 0.97971 0.91875 0.0
H1566 H 0.26443 0.95409 0.92701 0.0
H1567 H 0.21548 0.90742 0.03167 0.0
H1568 H 0.23992 0.90153 0.00704 0.0
H1569 H 0.21324 0.93741 0.96353 0.0
H1570 H 0.18868 0.94376 0.98852 0.0
H1571 H 0.2517 0.94279 0.96611 0.0
H1572 H 0.21005 0.89315 0.95539 0.0
H1573 H 0.18918 0.86785 0.96533 0.0
H1574 H 0.23448 0.83887 0.99285 0.0
H1575 H 0.25559 0.86412 0.98336 0.0
C1576 C 0.31746 0.9018 0.91248 0.0
C1577 C 0.32906 0.89034 0.92419 0.0
C1578 C 0.30003 0.90688 0.91981 0.0
C1579 C 0.29395 0.90058 0.93894 0.0
C1580 C 0.30544 0.88909 0.95055 0.0
C1581 C 0.32281 0.88412 0.94334 0.0
C1582 C 0.27581 0.90601 0.94739 0.0
C1583 C 0.26339 0.89199 0.95276 0.0
C1584 C 0.27124 0.92462 0.95155 0.0
C1585 C 0.28394 0.93999 0.94662 0.0
C1586 C 0.30176 0.94064 0.9551 0.0
C1587 C 0.31367 0.95517 0.95029 0.0
C1588 C 0.30785 0.96922 0.93716 0.0
C1589 C 0.29009 0.9688 0.92887 0.0
C1590 C 0.27814 0.95428 0.93361 0.0
C1591 C 0.21488 0.91428 0.01698 0.0
C1592 C 0.2002 0.92614 0.01207 0.0
C1593 C 0.22877 0.91074 0.00283 0.0
C1594 C 0.22825 0.91885 0.98339 0.0
C1595 C 0.2138 0.93095 0.97844 0.0
C1596 C 0.19978 0.93447 0.99265 0.0
C1597 C 0.24299 0.91446 0.96851 0.0
C1598 C 0.25474 0.92864 0.9619 0.0
C1599 C 0.24699 0.89597 0.96318 0.0
C1600 C 0.2344 0.88059 0.96871 0.0
C1601 C 0.21555 0.88143 0.96366 0.0
C1602 C 0.20368 0.86709 0.96921 0.0
C1603 C 0.2105 0.85177 0.97973 0.0
C1604 C 0.22922 0.85074 0.98469 0.0
C1605 C 0.24115 0.86505 0.97919 0.0
H1606 H 0.20128 0.84068 0.98403 0.0
H1607 H 0.31709 0.98046 0.93346 0.0
H1608 H 0.55128 0.27987 0.48039 0.0
H1609 H 0.55331 0.25546 0.50591 0.0
H1610 H 0.58971 0.28922 0.54227 0.0
H1611 H 0.58847 0.31339 0.51628 0.0
H1612 H 0.60369 0.25628 0.5378 0.0
H1613 H 0.54491 0.27912 0.55796 0.0
H1614 H 0.51286 0.28974 0.55342 0.0
H1615 H 0.49751 0.23641 0.53049 0.0
H1616 H 0.52953 0.22554 0.53461 0.0
H1617 H 0.60853 0.18457 0.61108 0.0
H1618 H 0.6004 0.21498 0.59748 0.0
H1619 H 0.5668 0.1892 0.55119 0.0
H1620 H 0.575 0.15887 0.56444 0.0
H1621 H 0.55087 0.22103 0.56607 0.0
H1622 H 0.61033 0.20048 0.54068 0.0
H1623 H 0.6424 0.18966 0.54456 0.0
H1624 H 0.65618 0.23918 0.57719 0.0
H1625 H 0.62409 0.25017 0.57374 0.0
C1626 C 0.5597 0.28213 0.49383 0.0
C1627 C 0.56983 0.29854 0.4962 0.0
C1628 C 0.56064 0.26825 0.50857 0.0
C1629 C 0.57151 0.27057 0.52614 0.0
C1630 C 0.58117 0.28716 0.52888 0.0
C1631 C 0.58033 0.30103 0.51407 0.0
C1632 C 0.57408 0.25501 0.54061 0.0
C1633 C 0.59213 0.24888 0.5444 0.0
C1634 C 0.559 0.2451 0.5489 0.0
C1635 C 0.53967 0.25155 0.54649 0.0
C1636 C 0.53473 0.26969 0.55182 0.0
C1637 C 0.51656 0.27575 0.54934 0.0
C1638 C 0.50316 0.26377 0.54165 0.0
C1639 C 0.5079 0.24568 0.53645 0.0
C1640 C 0.52606 0.23955 0.53889 0.0
C1641 C 0.59928 0.1854 0.59812 0.0
C1642 C 0.59253 0.16928 0.58876 0.0
C1643 C 0.59459 0.20277 0.59043 0.0
C1644 C 0.58315 0.2043 0.57321 0.0
C1645 C 0.57558 0.18831 0.56455 0.0
C1646 C 0.58026 0.17097 0.5722 0.0
C1647 C 0.5804 0.22229 0.56293 0.0
C1648 C 0.56237 0.22878 0.55985 0.0
C1649 C 0.59547 0.23256 0.55525 0.0
C1650 C 0.61478 0.22604 0.55717 0.0
C1651 C 0.62017 0.20899 0.54881 0.0
C1652 C 0.63835 0.20284 0.55092 0.0
C1653 C 0.65131 0.2137 0.56117 0.0
C1654 C 0.64612 0.23077 0.56929 0.0
C1655 C 0.62794 0.23696 0.56727 0.0
H1656 H 0.66538 0.20892 0.56278 0.0
H1657 H 0.4891 0.26849 0.53974 0.0
H1658 H 0.33263 0.57217 0.55945 0.0
H1659 H 0.30222 0.56549 0.54532 0.0
H1660 H 0.27972 0.61258 0.57703 0.0
H1661 H 0.31034 0.61988 0.59046 0.0
H1662 H 0.26801 0.5582 0.55749 0.0
H1663 H 0.25047 0.63473 0.54473 0.0
H1664 H 0.26629 0.66479 0.54204 0.0
H1665 H 0.3151 0.63781 0.51988 0.0
H1666 H 0.29948 0.60765 0.52216 0.0
H1667 H 0.18043 0.56252 0.5064 0.0
H1668 H 0.20535 0.5676 0.53106 0.0
H1669 H 0.24061 0.58691 0.48243 0.0
H1670 H 0.21565 0.58271 0.45799 0.0
H1671 H 0.24362 0.60871 0.514 0.0
H1672 H 0.24437 0.54298 0.50262 0.0
H1673 H 0.23117 0.51163 0.50188 0.0
H1674 H 0.22001 0.51477 0.56624 0.0
H1675 H 0.23294 0.54626 0.56729 0.0
C1676 C 0.32119 0.58104 0.56353 0.0
C1677 C 0.32397 0.59678 0.57571 0.0
C1678 C 0.30376 0.57707 0.55564 0.0
C1679 C 0.28878 0.58872 0.55984 0.0
C1680 C 0.29118 0.60357 0.57337 0.0
C1681 C 0.30866 0.60764 0.58115 0.0
C1682 C 0.27142 0.58649 0.54815 0.0
C1683 C 0.26252 0.5693 0.54817 0.0
C1684 C 0.26447 0.60087 0.53568 0.0
C1685 C 0.27388 0.61895 0.53387 0.0
C1686 C 0.26456 0.63524 0.53923 0.0
C1687 C 0.27349 0.65229 0.53777 0.0
C1688 C 0.29172 0.6532 0.53087 0.0
C1689 C 0.30101 0.63708 0.52529 0.0
C1690 C 0.29213 0.62001 0.52667 0.0
C1691 C 0.19346 0.56799 0.50102 0.0
C1692 C 0.1961 0.57209 0.4802 0.0
C1693 C 0.20772 0.57073 0.51509 0.0
C1694 C 0.22489 0.5775 0.50855 0.0
C1695 C 0.22748 0.58167 0.48782 0.0
C1696 C 0.21326 0.57904 0.47381 0.0
C1697 C 0.24029 0.58034 0.52312 0.0
C1698 C 0.24882 0.5977 0.52365 0.0
C1699 C 0.24718 0.56595 0.5356 0.0
C1700 C 0.2394 0.54704 0.53498 0.0
C1701 C 0.23896 0.53704 0.51658 0.0
C1702 C 0.23155 0.51924 0.51611 0.0
C1703 C 0.2247 0.51124 0.53399 0.0
C1704 C 0.22528 0.52101 0.55239 0.0
C1705 C 0.23265 0.53882 0.55293 0.0
H1706 H 0.21898 0.49745 0.5336 0.0
H1707 H 0.29862 0.66641 0.5298 0.0
H1708 H 0.88815 0.31647 0.5996 0.0
H1709 H 0.8963 0.28552 0.58743 0.0
H1710 H 0.93368 0.30945 0.5435 0.0
H1711 H 0.92579 0.34028 0.55576 0.0
H1712 H 0.88976 0.27303 0.54951 0.0
H1713 H 0.96867 0.28003 0.53368 0.0
H1714 H 0.99591 0.29444 0.54965 0.0
H1715 H 0.96915 0.29296 0.60816 0.0
H1716 H 0.94187 0.27829 0.59263 0.0
H1717 H 0.91661 0.2202 0.46637 0.0
H1718 H 0.91288 0.2448 0.49127 0.0
H1719 H 0.94255 0.21274 0.53604 0.0
H1720 H 0.9472 0.18823 0.51072 0.0
H1721 H 0.95273 0.24847 0.53736 0.0
H1722 H 0.89586 0.21549 0.53842 0.0
H1723 H 0.86863 0.2003 0.52336 0.0
H1724 H 0.85096 0.25191 0.49777 0.0
H1725 H 0.87822 0.26737 0.51243 0.0
C1726 C 0.89843 0.31506 0.58769 0.0
C1727 C 0.90628 0.33074 0.57853 0.0
C1728 C 0.90299 0.29741 0.58069 0.0
C1729 C 0.91566 0.29518 0.56464 0.0
C1730 C 0.92406 0.31082 0.55608 0.0
C1731 C 0.91942 0.32843 0.56296 0.0
C1732 C 0.91877 0.27682 0.55531 0.0
C1733 C 0.90351 0.26754 0.54707 0.0
C1734 C 0.93669 0.26952 0.55243 0.0
C1735 C 0.95316 0.27815 0.56194 0.0
C1736 C 0.96863 0.28267 0.54998 0.0
C1737 C 0.98407 0.29091 0.55895 0.0
C1738 C 0.98424 0.29465 0.57989 0.0
C1739 C 0.96898 0.29011 0.59192 0.0
C1740 C 0.95351 0.28186 0.58304 0.0
C1741 C 0.92267 0.21844 0.48137 0.0
C1742 C 0.93227 0.20223 0.4865 0.0
C1743 C 0.92029 0.23244 0.4957 0.0
C1744 C 0.92714 0.23045 0.51562 0.0
C1745 C 0.93704 0.21448 0.52078 0.0
C1746 C 0.93955 0.20045 0.50635 0.0
C1747 C 0.92379 0.24517 0.5309 0.0
C1748 C 0.93897 0.25377 0.54018 0.0
C1749 C 0.90577 0.25175 0.53498 0.0
C1750 C 0.88913 0.24257 0.52648 0.0
C1751 C 0.8862 0.22359 0.52952 0.0
C1752 C 0.87076 0.21493 0.52105 0.0
C1753 C 0.85808 0.22513 0.5096 0.0
C1754 C 0.86079 0.24403 0.50665 0.0
C1755 C 0.87622 0.25275 0.51507 0.0
H1756 H 0.84615 0.2184 0.50303 0.0
H1757 H 0.99621 0.30104 0.5868 0.0
H1758 H 0.18288 0.89431 0.58958 0.0
H1759 H 0.21216 0.90594 0.57581 0.0
H1760 H 0.18668 0.91328 0.51684 0.0
H1761 H 0.15741 0.90236 0.53048 0.0
H1762 H 0.21992 0.893 0.51599 0.0
H1763 H 0.19482 0.94955 0.54463 0.0
H1764 H 0.18279 0.96894 0.57257 0.0
H1765 H 0.23355 0.96216 0.60558 0.0
H1766 H 0.24578 0.94249 0.57793 0.0
H1767 H 0.27775 0.94247 0.454 0.0
H1768 H 0.25146 0.93539 0.47552 0.0
H1769 H 0.28613 0.9374 0.52903 0.0
H1770 H 0.31258 0.94572 0.5076 0.0
H1771 H 0.25129 0.95088 0.53687 0.0
H1772 H 0.27779 0.89693 0.50755 0.0
H1773 H 0.29062 0.8781 0.47957 0.0
H1774 H 0.2382 0.87885 0.44903 0.0
H1775 H 0.22515 0.89802 0.47662 0.0
C1776 C 0.18346 0.89865 0.57376 0.0
C1777 C 0.16785 0.89716 0.56107 0.0
C1778 C 0.20019 0.90522 0.56593 0.0
C1779 C 0.20154 0.91034 0.54531 0.0
C1780 C 0.18593 0.90921 0.53275 0.0
C1781 C 0.16924 0.90283 0.54056 0.0
C1782 C 0.21926 0.91634 0.53633 0.0
C1783 C 0.22674 0.90569 0.52048 0.0
C1784 C 0.22847 0.93254 0.54275 0.0
C1785 C 0.22112 0.94436 0.55934 0.0
C1786 C 0.20334 0.95204 0.55794 0.0
C1787 C 0.1965 0.96312 0.5737 0.0
C1788 C 0.20737 0.96673 0.59087 0.0
C1789 C 0.22513 0.95932 0.59229 0.0
C1790 C 0.23202 0.94821 0.57657 0.0
C1791 C 0.2798 0.94208 0.47038 0.0
C1792 C 0.2974 0.94459 0.47901 0.0
C1793 C 0.26473 0.93778 0.48267 0.0
C1794 C 0.26695 0.93543 0.50379 0.0
C1795 C 0.28418 0.93898 0.51271 0.0
C1796 C 0.2993 0.94355 0.50041 0.0
C1797 C 0.25155 0.92785 0.51605 0.0
C1798 C 0.24461 0.93807 0.53256 0.0
C1799 C 0.2429 0.91109 0.51043 0.0
C1800 C 0.25052 0.89901 0.49412 0.0
C1801 C 0.26901 0.89314 0.49483 0.0
C1802 C 0.27633 0.88242 0.47903 0.0
C1803 C 0.26524 0.8773 0.46252 0.0
C1804 C 0.24678 0.88283 0.46183 0.0
C1805 C 0.23941 0.89361 0.47756 0.0
H1806 H 0.27094 0.86904 0.45028 0.0
H1807 H 0.20206 0.97532 0.60306 0.0
H1808 H 0.43746 0.77391 0.95812 0.0
H1809 H 0.43099 0.74827 0.9808 0.0
H1810 H 0.44141 0.78289 0.03314 0.0
H1811 H 0.44925 0.80854 0.01039 0.0
H1812 H 0.45373 0.74867 0.04004 0.0
H1813 H 0.39742 0.77507 0.0173 0.0
H1814 H 0.37529 0.78753 0.99224 0.0
H1815 H 0.37203 0.73461 0.96299 0.0
H1816 H 0.39439 0.7219 0.98766 0.0
H1817 H 0.40205 0.68113 0.1005 0.0
H1818 H 0.41089 0.71072 0.08475 0.0
H1819 H 0.4165 0.68366 0.02638 0.0
H1820 H 0.40801 0.65422 0.04199 0.0
H1821 H 0.39401 0.71722 0.02723 0.0
H1822 H 0.45347 0.69268 0.04907 0.0
H1823 H 0.47535 0.68112 0.07492 0.0
H1824 H 0.47098 0.73214 0.10792 0.0
H1825 H 0.44884 0.7439 0.08238 0.0
C1826 C 0.43897 0.77606 0.9744 0.0
C1827 C 0.44383 0.79343 0.98236 0.0
C1828 C 0.43495 0.76139 0.9874 0.0
C1829 C 0.43521 0.76381 0.00866 0.0
C1830 C 0.44091 0.78079 0.01676 0.0
C1831 C 0.44522 0.79548 0.00372 0.0
C1832 C 0.42873 0.74873 0.02218 0.0
C1833 C 0.44052 0.74202 0.0375 0.0
C1834 C 0.41145 0.74008 0.01893 0.0
C1835 C 0.39769 0.74755 0.00428 0.0
C1836 C 0.39206 0.7661 0.00546 0.0
C1837 C 0.37948 0.77321 0.99132 0.0
C1838 C 0.37228 0.76188 0.97601 0.0
C1839 C 0.37762 0.74338 0.97485 0.0
C1840 C 0.39024 0.73621 0.98893 0.0
C1841 C 0.40525 0.68158 0.08434 0.0
C1842 C 0.4045 0.66546 0.07244 0.0
C1843 C 0.41031 0.69839 0.07541 0.0
C1844 C 0.41434 0.69926 0.05445 0.0
C1845 C 0.41344 0.6832 0.04258 0.0
C1846 C 0.40871 0.66642 0.05152 0.0
C1847 C 0.41925 0.71688 0.04452 0.0
C1848 C 0.40708 0.7241 0.02995 0.0
C1849 C 0.43599 0.72612 0.04869 0.0
C1850 C 0.44932 0.71907 0.06398 0.0
C1851 C 0.45703 0.70135 0.06195 0.0
C1852 C 0.46951 0.69478 0.07652 0.0
C1853 C 0.4745 0.70586 0.09309 0.0
C1854 C 0.46707 0.72356 0.0951 0.0
C1855 C 0.45456 0.73018 0.08058 0.0
H1856 H 0.48418 0.70075 0.10435 0.0
H1857 H 0.36256 0.76741 0.96506 0.0
H1858 H 0.69033 0.44055 0.00625 0.0
H1859 H 0.715 0.43649 0.03131 0.0
H1860 H 0.75182 0.41875 0.98336 0.0
H1861 H 0.72704 0.42148 0.95857 0.0
H1862 H 0.75532 0.39693 0.01402 0.0
H1863 H 0.7532 0.46315 0.0061 0.0
H1864 H 0.73856 0.49387 0.00657 0.0
H1865 H 0.72579 0.48732 0.07023 0.0
H1866 H 0.74015 0.45644 0.07007 0.0
H1867 H 0.84419 0.41247 0.04997 0.0
H1868 H 0.81476 0.41828 0.0332 0.0
H1869 H 0.78691 0.4159 0.09135 0.0
H1870 H 0.8166 0.41004 0.10847 0.0
H1871 H 0.77607 0.44658 0.0609 0.0
H1872 H 0.78216 0.38066 0.0681 0.0
H1873 H 0.79923 0.35128 0.06608 0.0
H1874 H 0.8065 0.35877 0.0015 0.0
H1875 H 0.78975 0.38836 0.00319 0.0
C1876 C 0.70363 0.43563 0.00105 0.0
C1877 C 0.70665 0.4314 0.98031 0.0
C1878 C 0.7178 0.43354 0.01539 0.0
C1879 C 0.73534 0.42748 0.00921 0.0
C1880 C 0.73841 0.42345 0.98852 0.0
C1881 C 0.72424 0.42528 0.97427 0.0
C1882 C 0.75051 0.42483 0.02417 0.0
C1883 C 0.75984 0.40785 0.02419 0.0
C1884 C 0.75617 0.43887 0.03789 0.0
C1885 C 0.74754 0.45741 0.03801 0.0
C1886 C 0.74713 0.4682 0.02015 0.0
C1887 C 0.73891 0.48565 0.02037 0.0
C1888 C 0.73119 0.49251 0.0384 0.0
C1889 C 0.73173 0.48197 0.05627 0.0
C1890 C 0.73992 0.4645 0.05612 0.0
C1891 C 0.8319 0.41358 0.05931 0.0
C1892 C 0.8327 0.4109 0.08057 0.0
C1893 C 0.81509 0.4168 0.04967 0.0
C1894 C 0.79875 0.41745 0.06106 0.0
C1895 C 0.79946 0.41547 0.08237 0.0
C1896 C 0.81635 0.41204 0.09207 0.0
C1897 C 0.78097 0.41896 0.05019 0.0
C1898 C 0.77121 0.43563 0.05096 0.0
C1899 C 0.77503 0.40477 0.03695 0.0
C1900 C 0.7848 0.38679 0.03581 0.0
C1901 C 0.78751 0.3761 0.05349 0.0
C1902 C 0.79712 0.35941 0.0524 0.0
C1903 C 0.80397 0.35318 0.03368 0.0
C1904 C 0.80119 0.36361 0.01599 0.0
C1905 C 0.79162 0.38034 0.017 0.0
H1906 H 0.81141 0.34025 0.03287 0.0
H1907 H 0.72484 0.50603 0.03854 0.0
H1908 H 0.09712 0.71322 0.9772 0.0
H1909 H 0.10003 0.73635 0.00422 0.0
H1910 H 0.04632 0.72145 0.02729 0.0
H1911 H 0.04343 0.69797 0.00029 0.0
H1912 H 0.05365 0.76128 0.02086 0.0
H1913 H 0.07852 0.70834 0.05483 0.0
H1914 H 0.09815 0.6807 0.05787 0.0
H1915 H 0.14663 0.71406 0.05053 0.0
H1916 H 0.12728 0.74189 0.04712 0.0
H1917 H 0.07055 0.82726 0.09857 0.0
H1918 H 0.06168 0.79755 0.08361 0.0
H1919 H 0.11695 0.79073 0.06022 0.0
H1920 H 0.12591 0.82005 0.07545 0.0
H1921 H 0.10429 0.7587 0.07183 0.0
H1922 H 0.08115 0.80948 0.03123 0.0
H1923 H 0.06317 0.83784 0.02513 0.0
H1924 H 0.01334 0.80952 0.04173 0.0
H1925 H 0.03109 0.78104 0.0482 0.0
C1926 C 0.08592 0.71492 0.988 0.0
C1927 C 0.07003 0.70392 0.98668 0.0
C1928 C 0.08764 0.72802 0.00347 0.0
C1929 C 0.07344 0.73047 0.01776 0.0
C1930 C 0.05744 0.71965 0.0164 0.0
C1931 C 0.05583 0.70628 0.00108 0.0
C1932 C 0.07539 0.74473 0.03372 0.0
C1933 C 0.06439 0.76058 0.03239 0.0
C1934 C 0.08971 0.74387 0.04834 0.0
C1935 C 0.10143 0.72719 0.0506 0.0
C1936 C 0.09336 0.70977 0.05371 0.0
C1937 C 0.10444 0.69407 0.05553 0.0
C1938 C 0.12362 0.69562 0.05437 0.0
C1939 C 0.13177 0.71289 0.05143 0.0
C1940 C 0.12075 0.72863 0.04959 0.0
C1941 C 0.08084 0.81924 0.0905 0.0
C1942 C 0.09889 0.82598 0.0881 0.0
C1943 C 0.07576 0.80231 0.08193 0.0
C1944 C 0.08857 0.79206 0.07049 0.0
C1945 C 0.10683 0.79835 0.06901 0.0
C1946 C 0.11195 0.81512 0.07776 0.0
C1947 C 0.08285 0.77554 0.05869 0.0
C1948 C 0.0932 0.75927 0.06072 0.0
C1949 C 0.06815 0.77615 0.04442 0.0
C1950 C 0.05746 0.79322 0.04046 0.0
C1951 C 0.06637 0.80935 0.03373 0.0
C1952 C 0.05623 0.82543 0.03018 0.0
C1953 C 0.03713 0.8255 0.03311 0.0
C1954 C 0.02814 0.80946 0.03952 0.0
C1955 C 0.03823 0.79334 0.04313 0.0
H1956 H 0.02929 0.83796 0.03035 0.0
H1957 H 0.13218 0.68344 0.05577 0.0
H1958 H 0.67984 0.11115 0.09106 0.0
H1959 H 0.70861 0.10336 0.07376 0.0
H1960 H 0.68989 0.04731 0.0661 0.0
H1961 H 0.66101 0.05498 0.08356 0.0
H1962 H 0.73732 0.07875 0.07634 0.0
H1963 H 0.69864 0.03563 0.01628 0.0
H1964 H 0.66699 0.03163 0.00305 0.0
H1965 H 0.65418 0.08769 0.01884 0.0
H1966 H 0.68582 0.0921 0.03182 0.0
H1967 H 0.80308 0.04646 0.00257 0.0
H1968 H 0.7781 0.04712 0.02781 0.0
H1969 H 0.74857 0.08647 0.99069 0.0
H1970 H 0.77338 0.0859 0.96554 0.0
H1971 H 0.72581 0.06068 0.0043 0.0
H1972 H 0.77297 0.09988 0.03286 0.0
H1973 H 0.80422 0.10724 0.04533 0.0
H1974 H 0.79973 0.06485 0.0909 0.0
H1975 H 0.76852 0.05707 0.0785 0.0
C1976 C 0.68207 0.097 0.08634 0.0
C1977 C 0.66805 0.08373 0.08845 0.0
C1978 C 0.69853 0.09258 0.07641 0.0
C1979 C 0.70124 0.07485 0.06837 0.0
C1980 C 0.68794 0.06115 0.07196 0.0
C1981 C 0.67144 0.06557 0.08187 0.0
C1982 C 0.71671 0.0715 0.05405 0.0
C1983 C 0.73486 0.07458 0.06066 0.0
C1984 C 0.71343 0.06645 0.03348 0.0
C1985 C 0.69451 0.0641 0.02524 0.0
C1986 C 0.68908 0.04711 0.01684 0.0
C1987 C 0.67115 0.04478 0.00939 0.0
C1988 C 0.65857 0.05937 0.01018 0.0
C1989 C 0.66392 0.07637 0.0183 0.0
C1990 C 0.68184 0.0788 0.02571 0.0
C1991 C 0.79128 0.05529 -0.00015 0.0
C1992 C 0.79018 0.0661 0.98204 0.0
C1993 C 0.77702 0.05564 0.01426 0.0
C1994 C 0.76152 0.06692 0.01117 0.0
C1995 C 0.76035 0.07757 0.99332 0.0
C1996 C 0.77452 0.07719 0.97892 0.0
C1997 C 0.74651 0.06793 0.02653 0.0
C1998 C 0.72837 0.06446 0.02009 0.0
C1999 C 0.7498 0.07304 0.0471 0.0
C2000 C 0.76851 0.07775 0.05461 0.0
C2001 C 0.77871 0.09203 0.04543 0.0
C2002 C 0.7964 0.0963 0.05251 0.0
C2003 C 0.80397 0.08648 0.06886 0.0
C2004 C 0.79385 0.07242 0.07821 0.0
C2005 C 0.77616 0.06808 0.07117 0.0
H2006 H 0.81767 0.08981 0.07432 0.0
H2007 H 0.64468 0.05752 0.00445 0.0
H2008 H 0.43464 0.72606 0.53151 0.0
H2009 H 0.43054 0.75235 0.50893 0.0
H2010 H 0.41473 0.71592 0.45986 0.0
H2011 H 0.41983 0.68925 0.48214 0.0
H2012 H 0.43537 0.74435 0.44571 0.0
H2013 H 0.38195 0.73744 0.48753 0.0
H2014 H 0.36458 0.73336 0.51961 0.0
H2015 H 0.38547 0.78497 0.54197 0.0
H2016 H 0.4032 0.78924 0.51014 0.0
H2017 H 0.38962 0.82028 0.3932 0.0
H2018 H 0.39651 0.7905 0.40951 0.0
H2019 H 0.41942 0.81902 0.46148 0.0
H2020 H 0.41251 0.8486 0.44549 0.0
H2021 H 0.3929 0.79271 0.4716 0.0
H2022 H 0.44749 0.79838 0.42951 0.0
H2023 H 0.46422 0.80204 0.39695 0.0
H2024 H 0.43951 0.7523 0.37414 0.0
H2025 H 0.42243 0.74849 0.40648 0.0
C2026 C 0.43077 0.72349 0.51579 0.0
C2027 C 0.42748 0.70547 0.50872 0.0
C2028 C 0.4282 0.73861 0.50295 0.0
C2029 C 0.42193 0.73611 0.48286 0.0
C2030 C 0.41942 0.71815 0.47538 0.0
C2031 C 0.42217 0.70295 0.4882 0.0
C2032 C 0.41715 0.75237 0.47017 0.0
C2033 C 0.42587 0.7548 0.4512 0.0
C2034 C 0.40479 0.76602 0.47738 0.0
C2035 C 0.39401 0.76359 0.4965 0.0
C2036 C 0.38294 0.74787 0.49934 0.0
C2037 C 0.37302 0.74552 0.51748 0.0
C2038 C 0.37395 0.75888 0.53284 0.0
C2039 C 0.38477 0.77463 0.53007 0.0
C2040 C 0.39475 0.77703 0.51197 0.0
C2041 C 0.39625 0.82013 0.40803 0.0
C2042 C 0.40062 0.83674 0.41803 0.0
C2043 C 0.40025 0.80316 0.41726 0.0
C2044 C 0.40851 0.80262 0.43666 0.0
C2045 C 0.41309 0.81917 0.44648 0.0
C2046 C 0.40926 0.83606 0.43724 0.0
C2047 C 0.4115 0.78494 0.44744 0.0
C2048 C 0.40231 0.7822 0.46603 0.0
C2049 C 0.42325 0.77099 0.43975 0.0
C2050 C 0.43351 0.77328 0.42032 0.0
C2051 C 0.44548 0.78833 0.41748 0.0
C2052 C 0.45506 0.7904 0.39908 0.0
C2053 C 0.45288 0.77744 0.38346 0.0
C2054 C 0.44116 0.76235 0.38623 0.0
C2055 C 0.43153 0.76022 0.4046 0.0
H2056 H 0.46032 0.77907 0.36923 0.0
H2057 H 0.36626 0.75704 0.54687 0.0
H2058 H 0.80477 0.45549 0.49544 0.0
H2059 H 0.78143 0.45157 0.46845 0.0
H2060 H 0.7679 0.39784 0.49249 0.0
H2061 H 0.79087 0.40182 0.51954 0.0
H2062 H 0.7725 0.39988 0.44823 0.0
H2063 H 0.74154 0.43063 0.50527 0.0
H2064 H 0.73766 0.45609 0.5299 0.0
H2065 H 0.73252 0.4947 0.48045 0.0
H2066 H 0.73664 0.46946 0.45552 0.0
H2067 H 0.68387 0.37002 0.42404 0.0
H2068 H 0.71366 0.37968 0.43736 0.0
H2069 H 0.70478 0.43452 0.41359 0.0
H2070 H 0.67458 0.42491 0.40047 0.0
H2071 H 0.71489 0.43675 0.45134 0.0
H2072 H 0.7394 0.40561 0.39411 0.0
H2073 H 0.74342 0.38071 0.36884 0.0
H2074 H 0.76159 0.34399 0.41623 0.0
H2075 H 0.75742 0.36857 0.44185 0.0
C2076 C 0.79683 0.44285 0.49482 0.0
C2077 C 0.79943 0.429 0.50957 0.0
C2078 C 0.78357 0.44063 0.47947 0.0
C2079 C 0.77303 0.42441 0.47854 0.0
C2080 C 0.77598 0.41041 0.49295 0.0
C2081 C 0.78896 0.41275 0.50844 0.0
C2082 C 0.75826 0.42212 0.46321 0.0
C2083 C 0.75987 0.4079 0.4488 0.0
C2084 C 0.74216 0.4331 0.46357 0.0
C2085 C 0.73966 0.44822 0.47856 0.0
C2086 C 0.73977 0.44458 0.49966 0.0
C2087 C 0.73749 0.45896 0.51367 0.0
C2088 C 0.73492 0.47701 0.50675 0.0
C2089 C 0.73457 0.48071 0.48579 0.0
C2090 C 0.73687 0.46638 0.47172 0.0
C2091 C 0.68846 0.384 0.42112 0.0
C2092 C 0.67691 0.3967 0.41116 0.0
C2093 C 0.70554 0.38952 0.42874 0.0
C2094 C 0.71162 0.40778 0.42626 0.0
C2095 C 0.7004 0.42035 0.41565 0.0
C2096 C 0.68318 0.41486 0.40818 0.0
C2097 C 0.72876 0.41399 0.43662 0.0
C2098 C 0.72764 0.42897 0.45019 0.0
C2099 C 0.74541 0.40382 0.43529 0.0
C2100 C 0.74802 0.38895 0.41993 0.0
C2101 C 0.74414 0.39219 0.39918 0.0
C2102 C 0.74646 0.37814 0.38478 0.0
C2103 C 0.75274 0.36078 0.39093 0.0
C2104 C 0.75674 0.35745 0.41149 0.0
C2105 C 0.75443 0.37146 0.42595 0.0
H2106 H 0.75452 0.34991 0.37976 0.0
H2107 H 0.73314 0.48812 0.51762 0.0
H2108 H 0.08348 0.67679 0.38265 0.0
H2109 H 0.07372 0.70618 0.39788 0.0
H2110 H 0.06399 0.6785 0.45533 0.0
H2111 H 0.07292 0.64924 0.43996 0.0
H2112 H 0.03895 0.70276 0.45089 0.0
H2113 H 0.10533 0.70278 0.44313 0.0
H2114 H 0.1346 0.70098 0.42401 0.0
H2115 H 0.11867 0.74792 0.38805 0.0
H2116 H 0.08917 0.74983 0.40681 0.0
H2117 H 0.06778 0.76628 0.52727 0.0
H2118 H 0.06698 0.74174 0.50194 0.0
H2119 H 0.04883 0.78034 0.4561 0.0
H2120 H 0.04835 0.805 0.48168 0.0
H2121 H 0.08381 0.75443 0.44915 0.0
H2122 H 0.01861 0.75598 0.46415 0.0
H2123 H 0.99182 0.75687 0.48735 0.0
H2124 H 0.00862 0.70547 0.51413 0.0
H2125 H 0.03569 0.70441 0.49131 0.0
C2126 C 0.07898 0.67704 0.39843 0.0
C2127 C 0.07889 0.6608 0.41014 0.0
C2128 C 0.07349 0.6938 0.40715 0.0
C2129 C 0.06837 0.69463 0.42786 0.0
C2130 C 0.06777 0.67826 0.43931 0.0
C2131 C 0.07288 0.66152 0.43052 0.0
C2132 C 0.06464 0.7125 0.43821 0.0
C2133 C 0.04877 0.71405 0.45042 0.0
C2134 C 0.07726 0.72742 0.43743 0.0
C2135 C 0.09497 0.72629 0.42617 0.0
C2136 C 0.10802 0.71262 0.43104 0.0
C2137 C 0.12465 0.7116 0.42029 0.0
C2138 C 0.12846 0.72429 0.40478 0.0
C2139 C 0.11567 0.73807 0.40003 0.0
C2140 C 0.099 0.73913 0.41071 0.0
C2141 C 0.06312 0.76961 0.51199 0.0
C2142 C 0.058 0.78773 0.50667 0.0
C2143 C 0.06286 0.75554 0.49748 0.0
C2144 C 0.05781 0.7593 0.47727 0.0
C2145 C 0.05279 0.77727 0.4717 0.0
C2146 C 0.05266 0.79134 0.48633 0.0
C2147 C 0.05845 0.74433 0.46202 0.0
C2148 C 0.07378 0.74331 0.44905 0.0
C2149 C 0.04562 0.7297 0.46251 0.0
C2150 C 0.02925 0.7302 0.47611 0.0
C2151 C 0.01668 0.74495 0.47511 0.0
C2152 C 0.00142 0.74546 0.48816 0.0
C2153 C 0.99853 0.73125 0.50223 0.0
C2154 C 0.01088 0.71647 0.50323 0.0
C2155 C 0.02616 0.71589 0.49022 0.0
H2156 H 0.98672 0.73168 0.51233 0.0
H2157 H 0.14135 0.72348 0.39647 0.0
H2158 H 0.71687 0.05155 0.53153 0.0
H2159 H 0.74346 0.05516 0.50911 0.0
H2160 H 0.71019 0.08574 0.46625 0.0
H2161 H 0.68321 0.08178 0.48847 0.0
H2162 H 0.73586 0.06127 0.44737 0.0
H2163 H 0.73474 0.10933 0.49791 0.0
H2164 H 0.73243 0.12178 0.53288 0.0
H2165 H 0.78095 0.09165 0.55032 0.0
H2166 H 0.78337 0.07878 0.51552 0.0
H2167 H 0.81337 0.10549 0.399 0.0
H2168 H 0.7839 0.0978 0.41514 0.0
H2169 H 0.81291 0.07215 0.46521 0.0
H2170 H 0.84226 0.08053 0.4498 0.0
H2171 H 0.78797 0.09525 0.47902 0.0
H2172 H 0.78917 0.04678 0.42883 0.0
H2173 H 0.79132 0.03368 0.39414 0.0
H2174 H 0.74313 0.06402 0.37603 0.0
H2175 H 0.74083 0.0775 0.41056 0.0
C2176 C 0.71503 0.05863 0.51711 0.0
C2177 C 0.69792 0.06644 0.51182 0.0
C2178 C 0.73029 0.0608 0.50438 0.0
C2179 C 0.72881 0.0709 0.48618 0.0
C2180 C 0.71159 0.07793 0.48028 0.0
C2181 C 0.69626 0.07579 0.49306 0.0
C2182 C 0.7456 0.0753 0.47428 0.0
C2183 C 0.7472 0.0689 0.45413 0.0
C2184 C 0.76042 0.08505 0.48327 0.0
C2185 C 0.75914 0.09297 0.50415 0.0
C2186 C 0.74484 0.10526 0.50924 0.0
C2187 C 0.74352 0.1124 0.52903 0.0
C2188 C 0.75651 0.10748 0.54382 0.0
C2189 C 0.77088 0.09544 0.53885 0.0
C2190 C 0.77225 0.08822 0.51909 0.0
C2191 C 0.81347 0.09817 0.41342 0.0
C2192 C 0.83022 0.09365 0.42307 0.0
C2193 C 0.7966 0.09362 0.42252 0.0
C2194 C 0.7962 0.08432 0.44134 0.0
C2195 C 0.81289 0.07932 0.45068 0.0
C2196 C 0.82969 0.08395 0.44169 0.0
C2197 C 0.77855 0.08086 0.45215 0.0
C2198 C 0.7767 0.0876 0.47214 0.0
C2199 C 0.76359 0.0714 0.44297 0.0
C2200 C 0.76495 0.06331 0.42222 0.0
C2201 C 0.77912 0.05079 0.4174 0.0
C2202 C 0.78035 0.04326 0.39778 0.0
C2203 C 0.76741 0.04806 0.38287 0.0
C2204 C 0.75317 0.06034 0.38758 0.0
C2205 C 0.75189 0.06792 0.40718 0.0
H2206 H 0.76838 0.04221 0.36769 0.0
H2207 H 0.75547 0.11302 0.55914 0.0
H2208 H 0.48077 0.93769 0.96358 0.0
H2209 H 0.48544 0.96224 0.98836 0.0
H2210 H 0.46435 0.00206 0.94532 0.0
H2211 H 0.4601 0.97746 0.91995 0.0
H2212 H 0.49504 0.01463 0.96708 0.0
H2213 H 0.43655 0.98742 0.98112 0.0
H2214 H 0.41517 0.96142 0.98651 0.0
H2215 H 0.44551 0.94508 0.03988 0.0
H2216 H 0.46729 0.97079 0.03461 0.0
H2217 H 0.49306 0.08056 0.04558 0.0
H2218 H 0.47915 0.06052 0.01982 0.0
H2219 H 0.49805 0.01263 0.0529 0.0
H2220 H 0.51168 0.03261 0.07897 0.0
H2221 H 0.46412 0.00694 0.03428 0.0
H2222 H 0.52463 0.031 0.01734 0.0
H2223 H 0.54739 0.05566 0.01114 0.0
H2224 H 0.51373 0.07719 0.96269 0.0
H2225 H 0.49059 0.05285 0.96888 0.0
C2226 C 0.47757 0.95171 0.9591 0.0
C2227 C 0.47013 0.95564 0.93974 0.0
C2228 C 0.48002 0.96569 0.97341 0.0
C2229 C 0.4749 0.98386 0.96877 0.0
C2230 C 0.46823 0.98806 0.94919 0.0
C2231 C 0.46576 0.97402 0.93479 0.0
C2232 C 0.47612 0.99822 0.98474 0.0
C2233 C 0.48796 0.01321 0.98161 0.0
C2234 C 0.46704 0.99614 0.00376 0.0
C2235 C 0.45362 0.981 0.0074 0.0
C2236 C 0.43871 0.97824 0.99397 0.0
C2237 C 0.42653 0.96355 0.997 0.0
C2238 C 0.429 0.9516 0.01351 0.0
C2239 C 0.44362 0.95436 0.02709 0.0
C2240 C 0.45588 0.96901 0.0241 0.0
C2241 C 0.49366 0.06577 0.04778 0.0
C2242 C 0.5036 0.05812 0.06418 0.0
C2243 C 0.48584 0.05435 0.03296 0.0
C2244 C 0.4879 0.03514 0.0343 0.0
C2245 C 0.4964 0.02744 0.05156 0.0
C2246 C 0.50426 0.03885 0.06637 0.0
C2247 C 0.48328 0.02319 0.01673 0.0
C2248 C 0.47086 0.0086 0.01959 0.0
C2249 C 0.49185 0.02562 0.99745 0.0
C2250 C 0.50577 0.04025 0.99374 0.0
C2251 C 0.522 0.04109 0.0055 0.0
C2252 C 0.53498 0.055 0.00196 0.0
C2253 C 0.53199 0.06799 0.98654 0.0
C2254 C 0.51601 0.06713 0.97464 0.0
C2255 C 0.50295 0.05329 0.97817 0.0
H2256 H 0.54209 0.0787 0.98376 0.0
H2257 H 0.41957 0.9402 0.0158 0.0
H2258 H 0.4765 0.52626 0.08661 0.0
H2259 H 0.49929 0.51611 0.0614 0.0
H2260 H 0.45668 0.48738 0.02818 0.0
H2261 H 0.43386 0.4975 0.0532 0.0
H2262 H 0.48977 0.46897 0.02662 0.0
H2263 H 0.46638 0.52988 0.01519 0.0
H2264 H 0.45869 0.56185 0.02483 0.0
H2265 H 0.51599 0.57324 0.03575 0.0
H2266 H 0.52398 0.5412 0.02655 0.0
H2267 H 0.52921 0.47072 0.92751 0.0
H2268 H 0.50788 0.47857 0.95514 0.0
H2269 H 0.55304 0.5002 0.99066 0.0
H2270 H 0.57459 0.4917 0.96365 0.0
H2271 H 0.519 0.52202 0.99111 0.0
H2272 H 0.54162 0.45986 0.00194 0.0
H2273 H 0.54802 0.42784 0.99136 0.0
H2274 H 0.49043 0.41923 0.97941 0.0
H2275 H 0.48369 0.45126 0.98981 0.0
C2276 C 0.4721 0.51741 0.07419 0.0
C2277 C 0.45339 0.51282 0.07175 0.0
C2278 C 0.4851 0.51165 0.05982 0.0
C2279 C 0.47954 0.50134 0.04275 0.0
C2280 C 0.4612 0.49537 0.04124 0.0
C2281 C 0.4482 0.5011 0.05563 0.0
C2282 C 0.49228 0.49856 0.02538 0.0
C2283 C 0.49606 0.48055 0.01877 0.0
C2284 C 0.50047 0.51372 0.01517 0.0
C2285 C 0.49576 0.53309 0.0204 0.0
C2286 C 0.47733 0.53916 0.0198 0.0
C2287 C 0.47291 0.5573 0.02517 0.0
C2288 C 0.48684 0.56956 0.03094 0.0
C2289 C 0.50521 0.56372 0.0313 0.0
C2290 C 0.5097 0.54557 0.02601 0.0
C2291 C 0.53461 0.47726 0.94113 0.0
C2292 C 0.55365 0.48045 0.94338 0.0
C2293 C 0.5224 0.48179 0.95683 0.0
C2294 C 0.529 0.48976 0.97492 0.0
C2295 C 0.54775 0.49407 0.97674 0.0
C2296 C 0.56001 0.48933 0.96118 0.0
C2297 C 0.51656 0.49246 0.99251 0.0
C2298 C 0.51278 0.51045 -0.00093 0.0
C2299 C 0.50819 0.47731 0.00249 0.0
C2300 C 0.51218 0.458 0.99645 0.0
C2301 C 0.53034 0.45118 0.99691 0.0
C2302 C 0.53403 0.43302 0.99096 0.0
C2303 C 0.51966 0.42154 0.98461 0.0
C2304 C 0.50155 0.42815 0.98429 0.0
C2305 C 0.49778 0.44629 0.99025 0.0
H2306 H 0.52255 0.40749 0.97999 0.0
H2307 H 0.4834 0.5836 0.03509 0.0
H2308 H 0.02219 0.53242 0.91426 0.0
H2309 H 0.01441 0.50942 0.94011 0.0
H2310 H 0.99621 0.55264 0.98073 0.0
H2311 H 0.00498 0.57569 0.95561 0.0
H2312 H 0.01887 0.53095 -9e-05 0.0
H2313 H 0.9658 0.52167 0.95732 0.0
H2314 H 0.94901 0.51548 0.92527 0.0
H2315 H 0.97601 0.46297 0.91995 0.0
H2316 H 0.99316 0.46895 0.95184 0.0
H2317 H 0.97208 0.47555 0.07373 0.0
H2318 H 0.98174 0.49761 0.0475 0.0
H2319 H 0.00555 0.45327 0.01232 0.0
H2320 H 0.99577 0.43112 0.03837 0.0
H2321 H 0.9812 0.47455 0.99013 0.0
H2322 H 0.03329 0.48391 0.03402 0.0
H2323 H 0.04917 0.49036 0.06655 0.0
H2324 H 0.02272 0.54328 0.06992 0.0
H2325 H 0.00646 0.53704 0.03753 0.0
C2326 C 0.01637 0.53702 0.92862 0.0
C2327 C 0.01431 0.55595 0.93282 0.0
C2328 C 0.01177 0.52383 0.94333 0.0
C2329 C 0.00472 0.52931 0.96238 0.0
C2330 C 0.0017 0.5481 0.96617 0.0
C2331 C 0.00647 0.56128 0.9516 0.0
C2332 C 0.00176 0.51566 0.97893 0.0
C2333 C 0.0104 0.51875 0.99784 0.0
C2334 C 0.99119 0.49947 0.97605 0.0
C2335 C 0.9809 0.49585 0.95686 0.0
C2336 C 0.96828 0.50887 0.94923 0.0
C2337 C 0.95867 0.50539 0.93111 0.0
C2338 C 0.96148 0.48887 0.92055 0.0
C2339 C 0.97387 0.47577 0.92813 0.0
C2340 C 0.98352 0.4792 0.94623 0.0
C2341 C 0.97969 0.47058 0.06058 0.0
C2342 C 0.9832 0.45165 0.05807 0.0
C2343 C 0.98523 0.48318 0.04566 0.0
C2344 C 0.99433 0.47703 0.028 0.0
C2345 C 0.99854 0.45824 0.02587 0.0
C2346 C 0.99312 0.44566 0.04085 0.0
C2347 C 0.99813 0.49 0.01108 0.0
C2348 C 0.98968 0.48675 0.99212 0.0
C2349 C 0.00874 0.50613 0.01396 0.0
C2350 C 0.01853 0.50993 0.03343 0.0
C2351 C 0.03073 0.49686 0.04178 0.0
C2352 C 0.03983 0.50049 0.06018 0.0
C2353 C 0.03692 0.5172 0.07032 0.0
C2354 C 0.02494 0.53033 0.06206 0.0
C2355 C 0.0158 0.52676 0.04367 0.0
H2356 H 0.04398 0.51999 0.08456 0.0
H2357 H 0.95403 0.4862 0.90653 0.0
H2358 H 0.03963 0.94692 0.04711 0.0
H2359 H 0.01804 0.9582 0.02169 0.0
H2360 H 0.02601 0.01387 0.04322 0.0
H2361 H 0.04692 0.00253 0.06979 0.0
H2362 H 0.99062 0.00798 0.03268 0.0
H2363 H 0.04979 0.99778 0.00217 0.0
H2364 H 0.07771 0.97968 0.99434 0.0
H2365 H 0.04487 0.93962 0.96255 0.0
H2366 H 0.01668 0.95732 0.9705 0.0
H2367 H 0.95711 0.0517 0.94487 0.0
H2368 H 0.97992 0.04093 0.96947 0.0
H2369 H 0.96741 0.98452 0.95379 0.0
H2370 H 0.94467 0.99523 0.92867 0.0
H2371 H 0.00572 0.99156 0.9609 0.0
H2372 H 0.94654 0.00139 0.99305 0.0
H2373 H 0.9188 0.0198 0.0008 0.0
H2374 H 0.95242 0.06137 0.02903 0.0
H2375 H 0.98041 0.04327 0.02123 0.0
C2376 C 0.03641 0.96151 0.047 0.0
C2377 C 0.04509 0.97382 0.06057 0.0
C2378 C 0.02424 0.96796 0.03217 0.0
C2379 C 0.02081 0.9869 0.03024 0.0
C2380 C 0.02865 0.99919 0.04435 0.0
C2381 C 0.0407 0.99271 0.05941 0.0
C2382 C 0.00971 0.99385 0.01289 0.0
C2383 C 0.99407 0.00461 0.01699 0.0
C2384 C 0.01411 0.98921 0.9924 0.0
C2385 C 0.0311 0.97881 0.98707 0.0
C2386 C 0.0485 0.98507 0.99358 0.0
C2387 C 0.06438 0.97488 0.98914 0.0
C2388 C 0.06306 0.95849 0.978 0.0
C2389 C 0.04586 0.95231 0.9712 0.0
C2390 C 0.02993 0.96242 0.97565 0.0
C2391 C 0.95957 0.03701 0.94615 0.0
C2392 C 0.94906 0.02428 0.93485 0.0
C2393 C 0.97251 0.03089 0.96035 0.0
C2394 C 0.97511 0.01196 0.96359 0.0
C2395 C 0.9655 0.9992 0.9515 0.0
C2396 C 0.95247 0.00532 0.93728 0.0
C2397 C 0.98666 0.00557 0.98077 0.0
C2398 C 0.00236 0.99495 0.97661 0.0
C2399 C 0.9824 0.01041 0.00118 0.0
C2400 C 0.96557 0.02106 0.00641 0.0
C2401 C 0.94802 0.0145 0.00083 0.0
C2402 C 0.93225 0.02487 0.00523 0.0
C2403 C 0.93385 0.04177 0.01534 0.0
C2404 C 0.95121 0.04828 0.02117 0.0
C2405 C 0.96703 0.03796 0.0168 0.0
H2406 H 0.92163 0.04981 0.01867 0.0
H2407 H 0.07536 0.95059 0.97461 0.0
H2408 H 0.50858 0.56258 0.56795 0.0
H2409 H 0.52057 0.53929 0.54427 0.0
H2410 H 0.46529 0.51899 0.53447 0.0
H2411 H 0.45341 0.54177 0.5585 0.0
H2412 H 0.48801 0.49128 0.53456 0.0
H2413 H 0.48597 0.55022 0.5017 0.0
H2414 H 0.4926 0.58339 0.49777 0.0
H2415 H 0.55068 0.57186 0.49551 0.0
H2416 H 0.54441 0.53862 0.49978 0.0
H2417 H 0.50267 0.45008 0.43678 0.0
H2418 H 0.49199 0.47263 0.46197 0.0
H2419 H 0.54796 0.48121 0.48201 0.0
H2420 H 0.55872 0.45808 0.45786 0.0
H2421 H 0.52519 0.51468 0.47635 0.0
H2422 H 0.52543 0.45465 0.50921 0.0
H2423 H 0.51701 0.42176 0.51163 0.0
H2424 H 0.45954 0.43619 0.51156 0.0
H2425 H 0.46764 0.46916 0.50879 0.0
C2426 C 0.49909 0.55291 0.56099 0.0
C2427 C 0.48009 0.55398 0.56501 0.0
C2428 C 0.5059 0.5397 0.5474 0.0
C2429 C 0.49376 0.52767 0.53726 0.0
C2430 C 0.47492 0.52813 0.54208 0.0
C2431 C 0.46814 0.54113 0.55587 0.0
C2432 C 0.50045 0.51528 0.52081 0.0
C2433 C 0.49598 0.49646 0.52176 0.0
C2434 C 0.51092 0.522 0.5041 0.0
C2435 C 0.51473 0.54195 0.50127 0.0
C2436 C 0.50017 0.55477 0.5005 0.0
C2437 C 0.50385 0.57358 0.4982 0.0
C2438 C 0.52205 0.57973 0.49643 0.0
C2439 C 0.53659 0.56708 0.49691 0.0
C2440 C 0.53298 0.54825 0.49926 0.0
C2441 C 0.51274 0.45673 0.44653 0.0
C2442 C 0.53158 0.45215 0.44523 0.0
C2443 C 0.5066 0.46969 0.4608 0.0
C2444 C 0.51922 0.47846 0.47382 0.0
C2445 C 0.53806 0.47463 0.47197 0.0
C2446 C 0.54418 0.46147 0.45798 0.0
C2447 C 0.51273 0.49083 0.49022 0.0
C2448 C 0.51722 0.5096 0.48921 0.0
C2449 C 0.502 0.48414 0.50666 0.0
C2450 C 0.49714 0.46435 0.50857 0.0
C2451 C 0.511 0.45079 0.50953 0.0
C2452 C 0.50628 0.43214 0.51099 0.0
C2453 C 0.48775 0.42688 0.51169 0.0
C2454 C 0.47389 0.44028 0.51099 0.0
C2455 C 0.47854 0.45895 0.50948 0.0
H2456 H 0.48413 0.41244 0.51283 0.0
H2457 H 0.52488 0.5943 0.49465 0.0
H2458 H 0.02421 0.51731 0.42292 0.0
H2459 H 0.00342 0.50963 0.45111 0.0
H2460 H 0.04978 0.49157 0.48726 0.0
H2461 H 0.07067 0.4994 0.45929 0.0
H2462 H 0.01846 0.46993 0.49318 0.0
H2463 H 0.03578 0.5334 0.49366 0.0
H2464 H 0.04056 0.56419 0.47858 0.0
H2465 H 0.98246 0.56883 0.46676 0.0
H2466 H 0.97738 0.53787 0.4814 0.0
H2467 H 0.96938 0.47787 0.58724 0.0
H2468 H 0.9933 0.48438 0.56183 0.0
H2469 H 0.95158 0.50087 0.5186 0.0
H2470 H 0.92764 0.49381 0.54335 0.0
H2471 H 0.98305 0.5239 0.51866 0.0
H2472 H 0.96726 0.4585 0.51374 0.0
H2473 H 0.96319 0.42696 0.52718 0.0
H2474 H 0.01915 0.42682 0.54865 0.0
H2475 H 0.02365 0.45826 0.53497 0.0
C2476 C 0.02992 0.51137 0.43673 0.0
C2477 C 0.04907 0.50912 0.43897 0.0
C2478 C 0.01806 0.50701 0.45279 0.0
C2479 C 0.02517 0.50041 0.47135 0.0
C2480 C 0.04408 0.49672 0.47306 0.0
C2481 C 0.05597 0.5011 0.457 0.0
C2482 C 0.0131 0.49896 0.48946 0.0
C2483 C 0.01093 0.48177 0.49895 0.0
C2484 C 0.0033 0.51445 0.49693 0.0
C2485 C 0.00622 0.53324 0.48847 0.0
C2486 C 0.02403 0.54093 0.48771 0.0
C2487 C 0.0268 0.55841 0.47925 0.0
C2488 C 0.01182 0.56845 0.47169 0.0
C2489 C 0.99405 0.56103 0.47261 0.0
C2490 C 0.99122 0.54351 0.481 0.0
C2491 C 0.96528 0.48303 0.57239 0.0
C2492 C 0.94651 0.4852 0.56739 0.0
C2493 C 0.97897 0.48677 0.55793 0.0
C2494 C 0.97412 0.4929 0.53833 0.0
C2495 C 0.95556 0.49619 0.53369 0.0
C2496 C 0.94188 0.49228 0.54801 0.0
C2497 C 0.98816 0.49481 0.52211 0.0
C2498 C 0.99074 0.51212 0.51301 0.0
C2499 C 0.99846 0.47949 0.51511 0.0
C2500 C 0.99572 0.46075 0.52356 0.0
C2501 C 0.97864 0.45177 0.52146 0.0
C2502 C 0.97627 0.43392 0.52908 0.0
C2503 C 0.99083 0.42497 0.53896 0.0
C2504 C 0.00786 0.43379 0.54106 0.0
C2505 C 0.01036 0.45159 0.53329 0.0
H2506 H 0.98894 0.41115 0.54488 0.0
H2507 H 0.01399 0.58199 0.46514 0.0
H2508 H 0.01136 0.92531 0.52804 0.0
H2509 H 0.00395 0.94942 0.50355 0.0
H2510 H 0.02259 0.99079 0.54619 0.0
H2511 H 0.02926 0.96667 0.57135 0.0
H2512 H 0.99241 0.00224 0.52565 0.0
H2513 H 0.05101 0.97651 0.50856 0.0
H2514 H 0.07306 0.95138 0.5016 0.0
H2515 H 0.0409 0.93446 0.44979 0.0
H2516 H 0.01854 0.9594 0.45656 0.0
H2517 H 0.99905 0.07173 0.45132 0.0
H2518 H 0.01069 0.04903 0.4757 0.0
H2519 H 0.98722 0.00516 0.43958 0.0
H2520 H 0.97572 0.02783 0.41488 0.0
H2521 H 0.02189 0.99626 0.45745 0.0
H2522 H 0.96265 0.02222 0.47632 0.0
H2523 H 0.9414 0.04789 0.48393 0.0
H2524 H 0.97624 0.06516 0.53342 0.0
H2525 H 0.99791 0.0398 0.52583 0.0
C2526 C 0.01338 0.93954 0.53254 0.0
C2527 C 0.02093 0.94405 0.5517 0.0
C2528 C 0.00939 0.9533 0.51836 0.0
C2529 C 0.01314 0.97183 0.52289 0.0
C2530 C 0.01977 0.97653 0.54234 0.0
C2531 C 0.02366 0.96274 0.55665 0.0
C2532 C 0.0108 0.98612 0.50695 0.0
C2533 C 0.99908 0.00109 0.51086 0.0
C2534 C 0.01941 0.98451 0.48759 0.0
C2535 C 0.03303 0.96974 0.48316 0.0
C2536 C 0.0486 0.96738 0.49574 0.0
C2537 C 0.06115 0.95318 0.49182 0.0
C2538 C 0.05835 0.94129 0.4753 0.0
C2539 C 0.04304 0.94366 0.46259 0.0
C2540 C 0.03044 0.95786 0.46644 0.0
C2541 C 0.99691 0.05722 0.44817 0.0
C2542 C 0.9864 0.05153 0.43124 0.0
C2543 C 0.00344 0.0443 0.46221 0.0
C2544 C -0.00047 0.02551 0.45955 0.0
C2545 C 0.99028 0.01964 0.44189 0.0
C2546 C 0.98367 0.03258 0.42787 0.0
C2547 C 0.00339 0.01223 0.47613 0.0
C2548 C 0.01537 0.99746 0.47231 0.0
C2549 C 0.99516 0.01413 0.49565 0.0
C2550 C 0.982 0.02922 0.50037 0.0
C2551 C 0.96586 0.03157 0.48872 0.0
C2552 C 0.95373 0.04606 0.49304 0.0
C2553 C 0.95748 0.05815 0.50914 0.0
C2554 C 0.97336 0.05579 0.52094 0.0
C2555 C 0.98557 0.04137 0.51664 0.0
H2556 H 0.94806 0.06933 0.5125 0.0
H2557 H 0.06806 0.93027 0.47234 0.0
H2558 H 0.56804 0.99441 0.55867 0.0
H2559 H 0.54702 0.98203 0.53293 0.0
H2560 H 0.50292 0.01547 0.55712 0.0
H2561 H 0.52388 0.02785 0.58308 0.0
H2562 H 0.49156 0.97987 0.54108 0.0
H2563 H 0.5271 0.03406 0.52293 0.0
H2564 H 0.55631 0.05125 0.51983 0.0
H2565 H 0.57712 0.01036 0.47831 0.0
H2566 H 0.54815 0.9927 0.48154 0.0
H2567 H 0.43456 0.99486 0.45666 0.0
H2568 H 0.45556 0.00108 0.48492 0.0
H2569 H 0.49902 0.97198 0.45347 0.0
H2570 H 0.47814 0.96608 0.42473 0.0
H2571 H 0.51165 0.003 0.47317 0.0
H2572 H 0.47514 0.94997 0.48893 0.0
H2573 H 0.44657 0.93192 0.49314 0.0
H2574 H 0.42783 0.96973 0.53919 0.0
H2575 H 0.45619 0.98818 0.53504 0.0
C2576 C 0.55368 0.99854 0.55907 0.0
C2577 C 0.54759 0.01222 0.57271 0.0
C2578 C 0.54173 0.99154 0.54428 0.0
C2579 C 0.52357 0.9981 0.54299 0.0
C2580 C 0.51693 0.01031 0.55789 0.0
C2581 C 0.52891 0.01742 0.57262 0.0
C2582 C 0.51251 0.99458 0.52448 0.0
C2583 C 0.49583 0.98499 0.52624 0.0
C2584 C 0.51837 0.00106 0.50514 0.0
C2585 C 0.53555 0.01196 0.50264 0.0
C2586 C 0.53795 0.02867 0.51324 0.0
C2587 C 0.55447 0.0385 0.51147 0.0
C2588 C 0.56859 0.03188 0.49892 0.0
C2589 C 0.56619 0.01545 0.48806 0.0
C2590 C 0.54972 0.00552 0.48986 0.0
C2591 C 0.44874 0.99027 0.45542 0.0
C2592 C 0.45471 0.97997 0.43846 0.0
C2593 C 0.46064 0.99361 0.47173 0.0
C2594 C 0.47868 0.98663 0.47144 0.0
C2595 C 0.48507 0.97733 0.45402 0.0
C2596 C 0.47315 0.97395 0.43767 0.0
C2597 C 0.49053 0.98836 0.48971 0.0
C2598 C 0.50738 0.99769 0.48793 0.0
C2599 C 0.48483 0.98159 0.50903 0.0
C2600 C 0.46773 0.97055 0.51155 0.0
C2601 C 0.46486 0.95453 0.49984 0.0
C2602 C 0.44873 0.9442 0.50225 0.0
C2603 C 0.4354 0.94968 0.51643 0.0
C2604 C 0.43818 0.9655 0.52822 0.0
C2605 C 0.45429 0.97589 0.52586 0.0
H2606 H 0.42291 0.94166 0.51828 0.0
H2607 H 0.58137 0.0395 0.49758 0.0
H2608 H 0.57749 0.28013 0.33272 0.0
H2609 H 0.57605 0.25755 0.30535 0.0
H2610 H 0.53982 0.29328 0.27114 0.0
H2611 H 0.54022 0.31561 0.2992 0.0
H2612 H 0.52854 0.25882 0.26799 0.0
H2613 H 0.58612 0.28953 0.25935 0.0
H2614 H 0.61637 0.30205 0.26955 0.0
H2615 H 0.63515 0.24756 0.2847 0.0
H2616 H 0.60491 0.23472 0.27486 0.0
H2617 H 0.54618 0.21277 0.17265 0.0
H2618 H 0.54391 0.2355 0.20025 0.0
H2619 H 0.57215 0.19813 0.24092 0.0
H2620 H 0.57444 0.17532 0.21336 0.0
H2621 H 0.58707 0.23427 0.23953 0.0
H2622 H 0.52816 0.20421 0.24759 0.0
H2623 H 0.49794 0.19277 0.23583 0.0
H2624 H 0.48196 0.24784 0.21937 0.0
H2625 H 0.5122 0.25958 0.23077 0.0
C2626 C 0.56891 0.28313 0.31959 0.0
C2627 C 0.55891 0.29973 0.31825 0.0
C2628 C 0.56833 0.27027 0.30378 0.0
C2629 C 0.55811 0.27386 0.28602 0.0
C2630 C 0.5479 0.29028 0.28467 0.0
C2631 C 0.54829 0.30311 0.30064 0.0
C2632 C 0.55823 0.26043 0.26892 0.0
C2633 C 0.54134 0.25367 0.26156 0.0
C2634 C 0.57493 0.25353 0.26068 0.0
C2635 C 0.59318 0.26118 0.26653 0.0
C2636 C 0.59665 0.28023 0.265 0.0
C2637 C 0.6138 0.28738 0.27069 0.0
C2638 C 0.62766 0.27561 0.27781 0.0
C2639 C 0.6244 0.25666 0.2792 0.0
C2640 C 0.60726 0.24943 0.27355 0.0
C2641 C 0.55181 0.20939 0.18752 0.0
C2642 C 0.56052 0.19233 0.19091 0.0
C2643 C 0.55042 0.22232 0.20326 0.0
C2644 C 0.55782 0.21843 0.22259 0.0
C2645 C 0.56633 0.20133 0.22609 0.0
C2646 C 0.56754 0.18831 0.21042 0.0
C2647 C 0.55744 0.23254 0.23888 0.0
C2648 C 0.5743 0.23948 0.24599 0.0
C2649 C 0.54073 0.23978 0.24663 0.0
C2650 C 0.52252 0.23274 0.23984 0.0
C2651 C 0.51827 0.21386 0.2413 0.0
C2652 C 0.50112 0.20733 0.23473 0.0
C2653 C 0.48806 0.21957 0.2268 0.0
C2654 C 0.4921 0.23838 0.22548 0.0
C2655 C 0.50923 0.24498 0.23201 0.0
H2656 H 0.47479 0.21448 0.22173 0.0
H2657 H 0.64093 0.28118 0.28221 0.0
H2658 H 0.20444 0.52877 0.32044 0.0
H2659 H 0.22889 0.52803 0.29469 0.0
H2660 H 0.2025 0.57264 0.26227 0.0
H2661 H 0.17803 0.57349 0.28797 0.0
H2662 H 0.21567 0.54665 0.2363 0.0
H2663 H 0.23802 0.58107 0.29426 0.0
H2664 H 0.24543 0.58588 0.33065 0.0
H2665 H 0.28312 0.54019 0.32901 0.0
H2666 H 0.27572 0.53494 0.29266 0.0
H2667 H 0.28812 0.58362 0.17834 0.0
H2668 H 0.26404 0.5795 0.204 0.0
H2669 H 0.29463 0.53446 0.23063 0.0
H2670 H 0.31882 0.53841 0.20479 0.0
H2671 H 0.27988 0.55782 0.25962 0.0
H2672 H 0.25899 0.52494 0.20062 0.0
H2673 H 0.25171 0.52077 0.16411 0.0
H2674 H 0.21133 0.56401 0.16756 0.0
H2675 H 0.21857 0.56864 0.20403 0.0
C2676 C 0.20382 0.53836 0.30777 0.0
C2677 C 0.18941 0.5513 0.3063 0.0
C2678 C 0.21777 0.53791 0.29309 0.0
C2679 C 0.21764 0.55048 0.27678 0.0
C2680 C 0.20285 0.56284 0.27477 0.0
C2681 C 0.18886 0.56327 0.28942 0.0
C2682 C 0.23328 0.55132 0.26229 0.0
C2683 C 0.22969 0.54923 0.24137 0.0
C2684 C 0.25162 0.55427 0.269 0.0
C2685 C 0.25616 0.55748 0.29081 0.0
C2686 C 0.24778 0.57196 0.3017 0.0
C2687 C 0.25199 0.57478 0.32231 0.0
C2688 C 0.26469 0.56332 0.33215 0.0
C2689 C 0.27325 0.54904 0.32138 0.0
C2690 C 0.26906 0.54614 0.30077 0.0
C2691 C 0.28971 0.5728 0.18962 0.0
C2692 C 0.30524 0.56118 0.18941 0.0
C2693 C 0.27596 0.57048 0.20427 0.0
C2694 C 0.27743 0.55646 0.21894 0.0
C2695 C 0.29324 0.5453 0.21934 0.0
C2696 C 0.30706 0.54762 0.20464 0.0
C2697 C 0.26222 0.55338 0.23362 0.0
C2698 C 0.26589 0.55505 0.25457 0.0
C2699 C 0.24395 0.5501 0.22693 0.0
C2700 C 0.23943 0.54723 0.20503 0.0
C2701 C 0.24865 0.53365 0.19356 0.0
C2702 C 0.24452 0.53119 0.17288 0.0
C2703 C 0.23109 0.54214 0.16351 0.0
C2704 C 0.22173 0.55555 0.17483 0.0
C2705 C 0.22583 0.55808 0.19552 0.0
H2706 H 0.22791 0.54021 0.14749 0.0
H2707 H 0.26794 0.56553 0.34811 0.0
H2708 H 0.92584 0.32377 0.21124 0.0
H2709 H 0.92729 0.30027 0.23798 0.0
H2710 H 0.96744 0.26991 0.20271 0.0
H2711 H 0.96574 0.29324 0.17575 0.0
H2712 H 0.94142 0.24769 0.21515 0.0
H2713 H 0.97923 0.29301 0.2474 0.0
H2714 H 0.98772 0.32384 0.26025 0.0
H2715 H 0.94136 0.3231 0.30109 0.0
H2716 H 0.93243 0.29237 0.28828 0.0
H2717 H 0.9585 0.18369 0.29666 0.0
H2718 H 0.96232 0.20739 0.27032 0.0
H2719 H 0.91841 0.23921 0.29749 0.0
H2720 H 0.91428 0.21552 0.32358 0.0
H2721 H 0.94919 0.26017 0.28918 0.0
H2722 H 0.91062 0.21556 0.2548 0.0
H2723 H 0.90255 0.18464 0.24189 0.0
H2724 H 0.95155 0.18405 0.20502 0.0
H2725 H 0.96004 0.21489 0.21794 0.0
C2726 C 0.93523 0.31226 0.2094 0.0
C2727 C 0.94566 0.31028 0.19145 0.0
C2728 C 0.93607 0.29885 0.22468 0.0
C2729 C 0.94759 0.28338 0.22242 0.0
C2730 C 0.95843 0.28169 0.20475 0.0
C2731 C 0.95746 0.29501 0.18939 0.0
C2732 C 0.94739 0.26842 0.23786 0.0
C2733 C 0.94348 0.25039 0.2313 0.0
C2734 C 0.94973 0.27196 0.25897 0.0
C2735 C 0.95508 0.29044 0.26675 0.0
C2736 C 0.97076 0.29948 0.25901 0.0
C2737 C 0.97567 0.31693 0.2663 0.0
C2738 C 0.96507 0.32544 0.28144 0.0
C2739 C 0.94956 0.3165 0.28935 0.0
C2740 C 0.94458 0.29906 0.2821 0.0
C2741 C 0.94949 0.19561 0.29685 0.0
C2742 C 0.93613 0.19776 0.31226 0.0
C2743 C 0.95175 0.20916 0.28186 0.0
C2744 C 0.94065 0.22503 0.28202 0.0
C2745 C 0.92721 0.22712 0.29724 0.0
C2746 C 0.92491 0.21359 0.31215 0.0
C2747 C 0.94305 0.23961 0.26643 0.0
C2748 C 0.94735 0.25753 0.27299 0.0
C2749 C 0.94118 0.23595 0.24532 0.0
C2750 C 0.93607 0.21743 0.23752 0.0
C2751 C 0.91976 0.20877 0.24408 0.0
C2752 C 0.91509 0.19127 0.23674 0.0
C2753 C 0.92656 0.18236 0.2227 0.0
C2754 C 0.9427 0.19096 0.21593 0.0
C2755 C 0.94744 0.20845 0.22325 0.0
H2756 H 0.92292 0.16882 0.21702 0.0
H2757 H 0.96889 0.33895 0.28707 0.0
H2758 H 0.29662 0.97977 0.31637 0.0
H2759 H 0.2727 0.98117 0.29002 0.0
H2760 H 0.2933 0.93062 0.26373 0.0
H2761 H 0.31711 0.92904 0.29006 0.0
H2762 H 0.28428 0.95563 0.23452 0.0
H2763 H 0.25668 0.93011 0.29548 0.0
H2764 H 0.248 0.93004 0.33192 0.0
H2765 H 0.21638 0.97951 0.32313 0.0
H2766 H 0.2251 0.98001 0.28668 0.0
H2767 H 0.21011 0.91891 0.17987 0.0
H2768 H 0.23382 0.92425 0.20563 0.0
H2769 H 0.20691 0.97482 0.22348 0.0
H2770 H 0.18307 0.96964 0.19746 0.0
H2771 H 0.21876 0.95403 0.25657 0.0
H2772 H 0.24406 0.97753 0.19443 0.0
H2773 H 0.25245 0.97678 0.15792 0.0
H2774 H 0.28828 0.93064 0.16883 0.0
H2775 H 0.27989 0.93093 0.20536 0.0
C2776 C 0.29608 0.96898 0.30493 0.0
C2777 C 0.30868 0.95422 0.30537 0.0
C2778 C 0.28244 0.96982 0.28989 0.0
C2779 C 0.28111 0.95587 0.27511 0.0
C2780 C 0.29412 0.94154 0.275 0.0
C2781 C 0.30776 0.9407 0.29001 0.0
C2782 C 0.26574 0.95567 0.26023 0.0
C2783 C 0.26996 0.95518 0.23933 0.0
C2784 C 0.24705 0.95556 0.26654 0.0
C2785 C 0.24172 0.95522 0.28842 0.0
C2786 C 0.248 0.94105 0.30136 0.0
C2787 C 0.24305 0.94092 0.322 0.0
C2788 C 0.23169 0.95479 0.32985 0.0
C2789 C 0.22521 0.96879 0.31704 0.0
C2790 C 0.23015 0.96901 0.29639 0.0
C2791 C 0.20926 0.93122 0.1892 0.0
C2792 C 0.19487 0.944 0.18646 0.0
C2793 C 0.22279 0.93423 0.20393 0.0
C2794 C 0.22228 0.9501 0.21616 0.0
C2795 C 0.20757 0.96255 0.21407 0.0
C2796 C 0.19396 0.95954 0.19928 0.0
C2797 C 0.23734 0.95363 0.2309 0.0
C2798 C 0.23307 0.95476 0.25175 0.0
C2799 C 0.256 0.95428 0.22455 0.0
C2800 C 0.26124 0.95418 0.20262 0.0
C2801 C 0.25364 0.96715 0.18902 0.0
C2802 C 0.2584 0.96681 0.16833 0.0
C2803 C 0.27087 0.95365 0.16105 0.0
C2804 C 0.27862 0.94082 0.17448 0.0
C2805 C 0.27388 0.94108 0.19519 0.0
H2806 H 0.27454 0.95341 0.14503 0.0
H2807 H 0.22787 0.95466 0.34584 0.0
H2808 H 0.46746 0.79465 0.8173 0.0
H2809 H 0.46622 0.77154 0.79009 0.0
H2810 H 0.41913 0.79917 0.76383 0.0
H2811 H 0.42011 0.82217 0.79121 0.0
H2812 H 0.4134 0.76214 0.76919 0.0
H2813 H 0.46014 0.80127 0.74037 0.0
H2814 H 0.48934 0.81871 0.74018 0.0
H2815 H 0.51966 0.76866 0.75043 0.0
H2816 H 0.4906 0.75095 0.75097 0.0
H2817 H 0.40687 0.71384 0.67609 0.0
H2818 H 0.41046 0.73729 0.7025 0.0
H2819 H 0.45903 0.70947 0.72497 0.0
H2820 H 0.4559 0.68623 0.69799 0.0
H2821 H 0.46462 0.74605 0.72216 0.0
H2822 H 0.41852 0.70676 0.75085 0.0
H2823 H 0.38958 0.68892 0.75165 0.0
H2824 H 0.35836 0.73862 0.74265 0.0
H2825 H 0.38715 0.75674 0.74151 0.0
C2826 C 0.45694 0.79587 0.80562 0.0
C2827 C 0.44385 0.81017 0.80638 0.0
C2828 C 0.45632 0.78274 0.79004 0.0
C2829 C 0.44261 0.78369 0.77494 0.0
C2830 C 0.42982 0.79823 0.77535 0.0
C2831 C 0.4305 0.81142 0.79088 0.0
C2832 C 0.44095 0.76894 0.75943 0.0
C2833 C 0.42449 0.75879 0.75869 0.0
C2834 C 0.45568 0.76419 0.74627 0.0
C2835 C 0.47317 0.77481 0.74592 0.0
C2836 C 0.47302 0.79401 0.74277 0.0
C2837 C 0.48954 0.80394 0.74256 0.0
C2838 C 0.50634 0.79481 0.74535 0.0
C2839 C 0.50664 0.77572 0.7483 0.0
C2840 C 0.49014 0.76572 0.74854 0.0
C2841 C 0.41839 0.71275 0.68657 0.0
C2842 C 0.43114 0.69821 0.68491 0.0
C2843 C 0.42031 0.72607 0.70178 0.0
C2844 C 0.4349 0.72502 0.71582 0.0
C2845 C 0.44764 0.71049 0.7143 0.0
C2846 C 0.44574 0.69714 0.69902 0.0
C2847 C 0.43699 0.73936 0.73178 0.0
C2848 C 0.45354 0.74938 0.73267 0.0
C2849 C 0.42237 0.74393 0.74519 0.0
C2850 C 0.40501 0.73308 0.74591 0.0
C2851 C 0.4055 0.71387 0.74888 0.0
C2852 C 0.38911 0.70371 0.74942 0.0
C2853 C 0.37214 0.71262 0.74715 0.0
C2854 C 0.37152 0.73173 0.74438 0.0
C2855 C 0.38786 0.74195 0.74381 0.0
H2856 H 0.35948 0.70473 0.74758 0.0
H2857 H 0.51912 0.80252 0.74518 0.0
H2858 H 0.80619 0.46942 0.68975 0.0
H2859 H 0.78072 0.47511 0.71358 0.0
H2860 H 0.76515 0.41777 0.70997 0.0
H2861 H 0.79067 0.41191 0.68654 0.0
H2862 H 0.73581 0.44141 0.70381 0.0
H2863 H 0.78673 0.43377 0.75125 0.0
H2864 H 0.81717 0.44132 0.76584 0.0
H2865 H 0.79897 0.4966 0.77814 0.0
H2866 H 0.76847 0.48942 0.76335 0.0
H2867 H 0.68282 0.41677 0.78857 0.0
H2868 H 0.70523 0.42175 0.76131 0.0
H2869 H 0.7095 0.47913 0.77823 0.0
H2870 H 0.68709 0.4741 0.80584 0.0
H2871 H 0.74315 0.46248 0.77547 0.0
H2872 H 0.69047 0.46841 0.73322 0.0
H2873 H 0.6599 0.46062 0.71914 0.0
H2874 H 0.68101 0.409 0.69702 0.0
H2875 H 0.71165 0.41634 0.71123 0.0
C2876 C 0.79753 0.45797 0.69433 0.0
C2877 C 0.80036 0.44023 0.68618 0.0
C2878 C 0.78294 0.46127 0.70783 0.0
C2879 C 0.77102 0.44687 0.71339 0.0
C2880 C 0.7741 0.4291 0.70567 0.0
C2881 C 0.78866 0.42578 0.69227 0.0
C2882 C 0.75504 0.45017 0.72694 0.0
C2883 C 0.73738 0.44595 0.71951 0.0
C2884 C 0.75709 0.45682 0.74712 0.0
C2885 C 0.77542 0.46114 0.75595 0.0
C2886 C 0.78928 0.44759 0.75688 0.0
C2887 C 0.80653 0.45179 0.76523 0.0
C2888 C 0.81002 0.46945 0.77284 0.0
C2889 C 0.79626 0.48294 0.77218 0.0
C2890 C 0.77899 0.47881 0.76383 0.0
C2891 C 0.68834 0.4305 0.78628 0.0
C2892 C 0.68331 0.44504 0.7993 0.0
C2893 C 0.70104 0.43337 0.77063 0.0
C2894 C 0.70893 0.45084 0.76767 0.0
C2895 C 0.70349 0.46557 0.78023 0.0
C2896 C 0.69064 0.46272 0.79587 0.0
C2897 C 0.72396 0.45305 0.75258 0.0
C2898 C 0.74146 0.45834 0.75965 0.0
C2899 C 0.72177 0.44741 0.73204 0.0
C2900 C 0.70336 0.44291 0.7234 0.0
C2901 C 0.68857 0.45534 0.72548 0.0
C2902 C 0.67123 0.45101 0.71746 0.0
C2903 C 0.66851 0.43432 0.70722 0.0
C2904 C 0.68314 0.42193 0.70496 0.0
C2905 C 0.70051 0.42618 0.71296 0.0
H2906 H 0.65508 0.431 0.70101 0.0
H2907 H 0.82338 0.47267 0.77931 0.0
H2908 H 0.0477 0.78203 0.66783 0.0
H2909 H 0.04532 0.76113 0.69681 0.0
H2910 H 0.06007 0.80542 0.73773 0.0
H2911 H 0.06341 0.82628 0.70855 0.0
H2912 H 0.08 0.77627 0.74557 0.0
H2913 H 0.01573 0.78684 0.73652 0.0
H2914 H 0.98633 0.78938 0.7178 0.0
H2915 H 0.98954 0.73212 0.70139 0.0
H2916 H 0.0191 0.72928 0.71978 0.0
H2917 H 0.06537 0.72099 0.83313 0.0
H2918 H 0.06071 0.74509 0.8076 0.0
H2919 H 0.05376 0.70368 0.76092 0.0
H2920 H 0.05873 0.67937 0.78637 0.0
H2921 H 0.02819 0.73301 0.75823 0.0
H2922 H 0.09397 0.72387 0.76504 0.0
H2923 H 0.12314 0.72163 0.78426 0.0
H2924 H 0.1163 0.77724 0.80557 0.0
H2925 H 0.08693 0.77971 0.7867 0.0
C2926 C 0.05045 0.78736 0.68299 0.0
C2927 C 0.05596 0.80578 0.68586 0.0
C2928 C 0.04881 0.77543 0.69959 0.0
C2929 C 0.05233 0.78174 0.71948 0.0
C2930 C 0.05723 0.80028 0.7225 0.0
C2931 C 0.05901 0.81222 0.70584 0.0
C2932 C 0.05239 0.76854 0.73679 0.0
C2933 C 0.06849 0.76711 0.7486 0.0
C2934 C 0.03755 0.75627 0.74046 0.0
C2935 C 0.01972 0.75789 0.72942 0.0
C2936 C 0.01025 0.77482 0.7288 0.0
C2937 C 0.99353 0.77631 0.71827 0.0
C2938 C 0.98609 0.76093 0.70838 0.0
C2939 C 0.99532 0.74402 0.70905 0.0
C2940 C 0.01205 0.74246 0.71955 0.0
C2941 C 0.06297 0.71698 0.81741 0.0
C2942 C 0.06272 0.69827 0.81169 0.0
C2943 C 0.06018 0.73077 0.80289 0.0
C2944 C 0.05709 0.72613 0.78239 0.0
C2945 C 0.05612 0.70749 0.77671 0.0
C2946 C 0.05896 0.69365 0.79125 0.0
C2947 C 0.05579 0.74077 0.76673 0.0
C2948 C 0.03954 0.7424 0.75527 0.0
C2949 C 0.07043 0.75332 0.76343 0.0
C2950 C 0.08816 0.7519 0.77464 0.0
C2951 C 0.09862 0.73557 0.77395 0.0
C2952 C 0.1152 0.73426 0.78477 0.0
C2953 C 0.12155 0.74926 0.79618 0.0
C2954 C 0.11135 0.76562 0.79675 0.0
C2955 C 0.09474 0.76698 0.78599 0.0
H2956 H 0.13439 0.74823 0.80454 0.0
H2957 H 0.97315 0.76212 0.70024 0.0
H2958 H 0.70335 0.02671 0.68005 0.0
H2959 H 0.73001 0.02563 0.70303 0.0
H2960 H 0.7245 0.08402 0.71427 0.0
H2961 H 0.69825 0.08531 0.69094 0.0
H2962 H 0.76 0.07442 0.70681 0.0
H2963 H 0.70965 0.05272 0.74896 0.0
H2964 H 0.68366 0.03226 0.75779 0.0
H2965 H 0.7199 0.98539 0.7568 0.0
H2966 H 0.74607 0.00557 0.74768 0.0
H2967 H 0.80423 0.09184 0.80027 0.0
H2968 H 0.78342 0.08758 0.77134 0.0
H2969 H 0.79766 0.02981 0.769 0.0
H2970 H 0.81834 0.03396 0.79833 0.0
H2971 H 0.76059 0.03523 0.76896 0.0
H2972 H 0.81189 0.05796 0.73138 0.0
H2973 H 0.83775 0.07877 0.72323 0.0
H2974 H 0.79996 0.12391 0.71589 0.0
H2975 H 0.77387 0.10343 0.72429 0.0
C2976 C 0.70786 0.03931 0.6874 0.0
C2977 C 0.69864 0.05607 0.68382 0.0
C2978 C 0.72302 0.03865 0.70058 0.0
C2979 C 0.72914 0.05473 0.71041 0.0
C2980 C 0.71997 0.07146 0.70682 0.0
C2981 C 0.70485 0.07213 0.69369 0.0
C2982 C 0.7451 0.05428 0.72449 0.0
C2983 C 0.76011 0.06594 0.72047 0.0
C2984 C 0.74547 0.04273 0.74191 0.0
C2985 C 0.72975 0.03061 0.74739 0.0
C2986 C 0.71204 0.03803 0.75045 0.0
C2987 C 0.69728 0.02649 0.75554 0.0
C2988 C 0.70011 0.00753 0.75779 0.0
C2989 C 0.71772 8e-05 0.755 0.0
C2990 C 0.73251 0.01155 0.74989 0.0
C2991 C 0.80302 0.07826 0.7935 0.0
C2992 C 0.81281 0.0632 0.80158 0.0
C2993 C 0.79126 0.07587 0.77687 0.0
C2994 C 0.78912 0.05841 0.76794 0.0
C2995 C 0.7992 0.04341 0.77564 0.0
C2996 C 0.81107 0.04581 0.79228 0.0
C2997 C 0.7753 0.05575 0.75156 0.0
C2998 C 0.76067 0.04348 0.75512 0.0
C2999 C 0.77527 0.06677 0.73373 0.0
C3000 C 0.79092 0.07916 0.7286 0.0
C3001 C 0.80909 0.07235 0.72818 0.0
C3002 C 0.8238 0.08409 0.72348 0.0
C3003 C 0.8205 0.10266 0.71907 0.0
C3004 C 0.80249 0.10952 0.71931 0.0
C3005 C 0.78773 0.09785 0.72401 0.0
H3006 H 0.8319 0.11172 0.71544 0.0
H3007 H 0.68868 0.99862 0.76174 0.0
loop_
_geom_bond_atom_site_label_1
_geom_bond_atom_site_label_2
_geom_bond_distance
_geom_bond_site_symmetry_2
_ccdc_geom_bond_type
Li0 N17 1.990 . S
Li0 O60 1.956 . S
Li0 O61 1.970 . S
Li0 O62 1.961 . S
Li1 N25 1.990 . S
Li1 O60 1.970 . S
Li1 O61 1.956 . S
Li1 O63 1.961 . S
Li2 N47 1.990 . S
Li2 O60 1.961 . S
Li2 O62 1.956 . S
Li2 O63 1.970 . S
Li3 N53 1.990 . S
Li3 O61 1.961 . S
Li3 O62 1.970 . S
Li3 O63 1.956 . S
C4 C6 1.348 . S
C4 C7 1.356 . S
C4 O60 1.325 . S
N5 C8 1.314 . S
N5 C9 1.279 . S
C6 C4 1.348 . S
C6 C8 1.353 . S
C6 H64 0.929 . S
C7 C4 1.356 . S
C7 C9 1.358 . S
C7 H65 0.930 . S
C8 N5 1.314 . S
C8 C6 1.353 . S
C8 H66 0.930 . S
C9 N5 1.279 . S
C9 C7 1.358 . S
C9 H67 0.930 . S
C10 C13 1.348 . S
C10 C14 1.356 . S
C10 O61 1.325 . S
C11 N12 1.279 . S
C11 C14 1.358 . S
C11 H68 0.930 . S
N12 C11 1.279 . S
N12 C15 1.314 . S
C13 C10 1.348 . S
C13 C15 1.353 . S
C13 H69 0.929 . S
C14 C10 1.356 . S
C14 C11 1.358 . S
C14 H70 0.930 . S
C15 N12 1.314 . S
C15 C13 1.353 . S
C15 H71 0.930 . S
C16 N17 1.314 . S
C16 C21 1.353 . S
C16 H22 0.930 . S
N17 Li0 1.990 . S
N17 C16 1.314 . S
N17 C19 1.279 . S
C18 C19 1.358 . S
C18 C20 1.356 . S
C18 H72 0.930 . S
C19 N17 1.279 . S
C19 C18 1.358 . S
C19 H23 0.930 . S
C20 C18 1.356 . S
C20 C21 1.348 . S
C21 C16 1.353 . S
C21 C20 1.348 . S
C21 H73 0.929 . S
H22 C16 0.930 . S
H23 C19 0.930 . S
C24 N25 1.314 . S
C24 C26 1.353 . S
C24 H30 0.930 . S
N25 Li1 1.990 . S
N25 C24 1.314 . S
N25 C28 1.279 . S
C26 C24 1.353 . S
C26 C29 1.348 . S
C26 H74 0.929 . S
C27 C28 1.358 . S
C27 C29 1.356 . S
C27 H75 0.930 . S
C28 N25 1.279 . S
C28 C27 1.358 . S
C28 H31 0.930 . S
C29 C26 1.348 . S
C29 C27 1.356 . S
H30 C24 0.930 . S
H31 C28 0.930 . S
C32 C34 1.348 . S
C32 C35 1.356 . S
C32 O62 1.325 . S
N33 C36 1.314 . S
N33 C37 1.279 . S
C34 C32 1.348 . S
C34 C36 1.353 . S
C34 H76 0.929 . S
C35 C32 1.356 . S
C35 C37 1.358 . S
C35 H77 0.930 . S
C36 N33 1.314 . S
C36 C34 1.353 . S
C36 H78 0.930 . S
C37 N33 1.279 . S
C37 C35 1.358 . S
C37 H79 0.930 . S
C38 C39 1.348 . S
C38 C40 1.356 . S
C38 O63 1.325 . S
C39 C38 1.348 . S
C39 C41 1.353 . S
C39 H80 0.929 . S
C40 C38 1.356 . S
C40 C42 1.358 . S
C40 H81 0.930 . S
C41 C39 1.353 . S
C41 N43 1.314 1_554 S
C41 H82 0.930 1_554 S
C42 C40 1.358 . S
C42 N43 1.279 1_554 S
C42 H83 0.930 1_554 S
N43 C41 1.314 1_556 S
N43 C42 1.279 1_556 S
C44 C46 1.353 . S
C44 N47 1.314 . S
C44 H50 0.930 . S
C45 N47 1.279 . S
C45 C48 1.358 . S
C45 H51 0.930 . S
C46 C44 1.353 . S
C46 C49 1.348 . S
C46 H84 0.929 . S
N47 Li2 1.990 . S
N47 C44 1.314 . S
N47 C45 1.279 . S
C48 C45 1.358 . S
C48 C49 1.356 . S
C48 H85 0.930 . S
C49 C46 1.348 . S
C49 C48 1.356 . S
H50 C44 0.930 . S
H51 C45 0.930 . S
C52 N53 1.314 . S
C52 C54 1.353 . S
C52 H58 0.930 . S
N53 Li3 1.990 . S
N53 C52 1.314 . S
N53 C56 1.279 . S
C54 C52 1.353 . S
C54 C57 1.348 . S
C54 H86 0.929 . S
C55 C56 1.358 . S
C55 C57 1.356 . S
C55 H87 0.930 . S
C56 N53 1.279 . S
C56 C55 1.358 . S
C56 H59 0.930 . S
C57 C54 1.348 . S
C57 C55 1.356 . S
H58 C52 0.930 . S
H59 C56 0.930 . S
O60 Li0 1.956 . S
O60 Li1 1.970 . S
O60 Li2 1.961 . S
O60 C4 1.325 . S
O61 Li0 1.970 . S
O61 Li1 1.956 . S
O61 Li3 1.961 . S
O61 C10 1.325 . S
O62 Li0 1.961 . S
O62 Li2 1.956 . S
O62 Li3 1.970 . S
O62 C32 1.325 . S
O63 Li1 1.961 . S
O63 Li2 1.970 . S
O63 Li3 1.956 . S
O63 C38 1.325 . S
H64 C6 0.929 . S
H65 C7 0.930 . S
H66 C8 0.930 . S
H67 C9 0.930 . S
H68 C11 0.930 . S
H69 C13 0.929 . S
H70 C14 0.930 . S
H71 C15 0.930 . S
H72 C18 0.930 . S
H73 C21 0.929 . S
H74 C26 0.929 . S
H75 C27 0.930 . S
H76 C34 0.929 . S
H77 C35 0.930 . S
H78 C36 0.930 . S
H79 C37 0.930 . S
H80 C39 0.929 . S
H81 C40 0.930 . S
H82 C41 0.930 1_556 S
H83 C42 0.930 1_556 S
H84 C46 0.929 . S
H85 C48 0.930 . S
H86 C54 0.929 . S
H87 C55 0.930 . S
Li88 N105 1.990 . S
Li88 O148 1.956 . S
Li88 O149 1.970 . S
Li88 O150 1.961 . S
Li89 N113 1.990 . S
Li89 O148 1.970 . S
Li89 O149 1.956 . S
Li89 O151 1.961 . S
Li90 N135 1.990 . S
Li90 O148 1.961 . S
Li90 O150 1.956 . S
Li90 O151 1.970 . S
Li91 N141 1.990 . S
Li91 O149 1.961 . S
Li91 O150 1.970 . S
Li91 O151 1.956 . S
C92 C94 1.348 . S
C92 C95 1.356 . S
C92 O148 1.325 . S
N93 C96 1.314 . S
N93 C97 1.279 . S
C94 C92 1.348 . S
C94 C96 1.353 . S
C94 H152 0.929 . S
C95 C92 1.356 . S
C95 C97 1.358 . S
C95 H153 0.930 . S
C96 N93 1.314 . S
C96 C94 1.353 . S
C96 H154 0.930 . S
C97 N93 1.279 . S
C97 C95 1.358 . S
C97 H155 0.930 . S
C98 C101 1.348 . S
C98 C102 1.356 . S
C98 O149 1.325 . S
C99 N100 1.279 . S
C99 C102 1.358 . S
C99 H156 0.930 . S
N100 C99 1.279 . S
N100 C103 1.314 . S
C101 C98 1.348 . S
C101 C103 1.353 . S
C101 H157 0.929 . S
C102 C98 1.356 . S
C102 C99 1.358 . S
C102 H158 0.930 . S
C103 N100 1.314 . S
C103 C101 1.353 . S
C103 H159 0.930 . S
C104 N105 1.314 . S
C104 C109 1.353 . S
C104 H110 0.930 . S
N105 Li88 1.990 . S
N105 C104 1.314 . S
N105 C107 1.279 . S
C106 C107 1.358 . S
C106 C108 1.356 . S
C106 H160 0.930 . S
C107 N105 1.279 . S
C107 C106 1.358 . S
C107 H111 0.930 . S
C108 C106 1.356 . S
C108 C109 1.348 . S
C109 C104 1.353 . S
C109 C108 1.348 . S
C109 H161 0.929 . S
H110 C104 0.930 . S
H111 C107 0.930 . S
C112 N113 1.314 . S
C112 C114 1.353 . S
C112 H118 0.930 . S
N113 Li89 1.990 . S
N113 C112 1.314 . S
N113 C116 1.279 . S
C114 C112 1.353 . S
C114 C117 1.348 . S
C114 H162 0.929 . S
C115 C116 1.358 . S
C115 C117 1.356 . S
C115 H163 0.930 . S
C116 N113 1.279 . S
C116 C115 1.358 . S
C116 H119 0.930 . S
C117 C114 1.348 . S
C117 C115 1.356 . S
H118 C112 0.930 . S
H119 C116 0.930 . S
C120 C122 1.348 . S
C120 C123 1.356 . S
C120 O150 1.325 . S
N121 C124 1.314 . S
N121 C125 1.279 . S
C122 C120 1.348 . S
C122 C124 1.353 . S
C122 H164 0.929 . S
C123 C120 1.356 . S
C123 C125 1.358 . S
C123 H165 0.930 . S
C124 N121 1.314 . S
C124 C122 1.353 . S
C124 H166 0.930 . S
C125 N121 1.279 . S
C125 C123 1.358 . S
C125 H167 0.930 . S
C126 C127 1.348 . S
C126 C128 1.356 . S
C126 O151 1.325 . S
C127 C126 1.348 . S
C127 C129 1.353 . S
C127 H168 0.929 . S
C128 C126 1.356 . S
C128 C130 1.358 . S
C128 H169 0.930 . S
C129 C127 1.353 . S
C129 N131 1.314 1_554 S
C129 H170 0.930 1_554 S
C130 C128 1.358 . S
C130 N131 1.279 1_554 S
C130 H171 0.930 1_554 S
N131 C129 1.314 1_556 S
N131 C130 1.279 1_556 S
C132 C134 1.353 . S
C132 N135 1.314 . S
C132 H138 0.930 . S
C133 N135 1.279 . S
C133 C136 1.358 . S
C133 H139 0.930 . S
C134 C132 1.353 . S
C134 C137 1.348 . S
C134 H172 0.929 . S
N135 Li90 1.990 . S
N135 C132 1.314 . S
N135 C133 1.279 . S
C136 C133 1.358 . S
C136 C137 1.356 . S
C136 H173 0.930 . S
C137 C134 1.348 . S
C137 C136 1.356 . S
H138 C132 0.930 . S
H139 C133 0.930 . S
C140 N141 1.314 . S
C140 C142 1.353 . S
C140 H146 0.930 . S
N141 Li91 1.990 . S
N141 C140 1.314 . S
N141 C144 1.279 . S
C142 C140 1.353 . S
C142 C145 1.348 . S
C142 H174 0.929 . S
C143 C144 1.358 . S
C143 C145 1.356 . S
C143 H175 0.930 . S
C144 N141 1.279 . S
C144 C143 1.358 . S
C144 H147 0.930 . S
C145 C142 1.348 . S
C145 C143 1.356 . S
H146 C140 0.930 . S
H147 C144 0.930 . S
O148 Li88 1.956 . S
O148 Li89 1.970 . S
O148 Li90 1.961 . S
O148 C92 1.325 . S
O149 Li88 1.970 . S
O149 Li89 1.956 . S
O149 Li91 1.961 . S
O149 C98 1.325 . S
O150 Li88 1.961 . S
O150 Li90 1.956 . S
O150 Li91 1.970 . S
O150 C120 1.325 . S
O151 Li89 1.961 . S
O151 Li90 1.970 . S
O151 Li91 1.956 . S
O151 C126 1.325 . S
H152 C94 0.929 . S
H153 C95 0.930 . S
H154 C96 0.930 . S
H155 C97 0.930 . S
H156 C99 0.930 . S
H157 C101 0.929 . S
H158 C102 0.930 . S
H159 C103 0.930 . S
H160 C106 0.930 . S
H161 C109 0.929 . S
H162 C114 0.929 . S
H163 C115 0.930 . S
H164 C122 0.929 . S
H165 C123 0.930 . S
H166 C124 0.930 . S
H167 C125 0.930 . S
H168 C127 0.929 . S
H169 C128 0.930 . S
H170 C129 0.930 1_556 S
H171 C130 0.930 1_556 S
H172 C134 0.929 . S
H173 C136 0.930 . S
H174 C142 0.929 . S
H175 C143 0.930 . S
Li176 N193 1.990 . S
Li176 O236 1.956 . S
Li176 O237 1.970 . S
Li176 O238 1.961 . S
Li177 N201 1.990 . S
Li177 O236 1.970 . S
Li177 O237 1.956 . S
Li177 O239 1.961 . S
Li178 N223 1.990 . S
Li178 O236 1.961 . S
Li178 O238 1.956 . S
Li178 O239 1.970 . S
Li179 N229 1.990 . S
Li179 O237 1.961 . S
Li179 O238 1.970 . S
Li179 O239 1.956 . S
C180 C182 1.348 . S
C180 C183 1.356 . S
C180 O236 1.325 . S
N181 C184 1.314 . S
N181 C185 1.279 . S
C182 C180 1.348 . S
C182 C184 1.353 . S
C182 H240 0.929 . S
C183 C180 1.356 . S
C183 C185 1.358 . S
C183 H241 0.930 . S
C184 N181 1.314 . S
C184 C182 1.353 . S
C184 H242 0.930 . S
C185 N181 1.279 . S
C185 C183 1.358 . S
C185 H243 0.930 . S
C186 C189 1.348 . S
C186 C190 1.356 . S
C186 O237 1.325 . S
C187 N188 1.279 . S
C187 C190 1.358 . S
C187 H244 0.930 . S
N188 C187 1.279 . S
N188 C191 1.314 . S
C189 C186 1.348 . S
C189 C191 1.353 . S
C189 H245 0.929 . S
C190 C186 1.356 . S
C190 C187 1.358 . S
C190 H246 0.930 . S
C191 N188 1.314 . S
C191 C189 1.353 . S
C191 H247 0.930 . S
C192 N193 1.314 . S
C192 C197 1.353 . S
C192 H198 0.930 . S
N193 Li176 1.990 . S
N193 C192 1.314 . S
N193 C195 1.279 . S
C194 C195 1.358 . S
C194 C196 1.356 . S
C194 H248 0.930 . S
C195 N193 1.279 . S
C195 C194 1.358 . S
C195 H199 0.930 . S
C196 C194 1.356 . S
C196 C197 1.348 . S
C197 C192 1.353 . S
C197 C196 1.348 . S
C197 H249 0.929 . S
H198 C192 0.930 . S
H199 C195 0.930 . S
C200 N201 1.314 . S
C200 C202 1.353 . S
C200 H206 0.930 . S
N201 Li177 1.990 . S
N201 C200 1.314 . S
N201 C204 1.279 . S
C202 C200 1.353 . S
C202 C205 1.348 . S
C202 H250 0.929 . S
C203 C204 1.358 . S
C203 C205 1.356 . S
C203 H251 0.930 . S
C204 N201 1.279 . S
C204 C203 1.358 . S
C204 H207 0.930 . S
C205 C202 1.348 . S
C205 C203 1.356 . S
H206 C200 0.930 . S
H207 C204 0.930 . S
C208 C210 1.348 . S
C208 C211 1.356 . S
C208 O238 1.325 . S
N209 C212 1.314 1_556 S
N209 C213 1.279 1_556 S
C210 C208 1.348 . S
C210 C212 1.353 . S
C210 H252 0.929 . S
C211 C208 1.356 . S
C211 C213 1.358 . S
C211 H253 0.930 . S
C212 N209 1.314 1_554 S
C212 C210 1.353 . S
C212 H254 0.930 1_554 S
C213 N209 1.279 1_554 S
C213 C211 1.358 . S
C213 H255 0.930 1_554 S
C214 C215 1.348 . S
C214 C216 1.356 . S
C214 O239 1.325 . S
C215 C214 1.348 . S
C215 C217 1.353 . S
C215 H256 0.929 . S
C216 C214 1.356 . S
C216 C218 1.358 . S
C216 H257 0.930 . S
C217 C215 1.353 . S
C217 N219 1.314 . S
C217 H258 0.930 . S
C218 C216 1.358 . S
C218 N219 1.279 . S
C218 H259 0.930 . S
N219 C217 1.314 . S
N219 C218 1.279 . S
C220 C222 1.353 . S
C220 N223 1.314 . S
C220 H226 0.930 . S
C221 N223 1.279 . S
C221 C224 1.358 . S
C221 H227 0.930 . S
C222 C220 1.353 . S
C222 C225 1.348 . S
C222 H260 0.929 . S
N223 Li178 1.990 . S
N223 C220 1.314 . S
N223 C221 1.279 . S
C224 C221 1.358 . S
C224 C225 1.356 . S
C224 H261 0.930 . S
C225 C222 1.348 . S
C225 C224 1.356 . S
H226 C220 0.930 . S
H227 C221 0.930 . S
C228 N229 1.314 . S
C228 C230 1.353 . S
C228 H234 0.930 . S
N229 Li179 1.990 . S
N229 C228 1.314 . S
N229 C232 1.279 . S
C230 C228 1.353 . S
C230 C233 1.348 . S
C230 H262 0.929 . S
C231 C232 1.358 . S
C231 C233 1.356 . S
C231 H263 0.930 . S
C232 N229 1.279 . S
C232 C231 1.358 . S
C232 H235 0.930 . S
C233 C230 1.348 . S
C233 C231 1.356 . S
H234 C228 0.930 . S
H235 C232 0.930 . S
O236 Li176 1.956 . S
O236 Li177 1.970 . S
O236 Li178 1.961 . S
O236 C180 1.325 . S
O237 Li176 1.970 . S
O237 Li177 1.956 . S
O237 Li179 1.961 . S
O237 C186 1.325 . S
O238 Li176 1.961 . S
O238 Li178 1.956 . S
O238 Li179 1.970 . S
O238 C208 1.325 . S
O239 Li177 1.961 . S
O239 Li178 1.970 . S
O239 Li179 1.956 . S
O239 C214 1.325 . S
H240 C182 0.929 . S
H241 C183 0.930 . S
H242 C184 0.930 . S
H243 C185 0.930 . S
H244 C187 0.930 . S
H245 C189 0.929 . S
H246 C190 0.930 . S
H247 C191 0.930 . S
H248 C194 0.930 . S
H249 C197 0.929 . S
H250 C202 0.929 . S
H251 C203 0.930 . S
H252 C210 0.929 . S
H253 C211 0.930 . S
H254 C212 0.930 1_556 S
H255 C213 0.930 1_556 S
H256 C215 0.929 . S
H257 C216 0.930 . S
H258 C217 0.930 . S
H259 C218 0.930 . S
H260 C222 0.929 . S
H261 C224 0.930 . S
H262 C230 0.929 . S
H263 C231 0.930 . S
Li264 N281 1.990 . S
Li264 O324 1.956 . S
Li264 O325 1.970 . S
Li264 O326 1.961 . S
Li265 N289 1.990 . S
Li265 O324 1.970 . S
Li265 O325 1.956 . S
Li265 O327 1.961 . S
Li266 N311 1.990 . S
Li266 O324 1.961 . S
Li266 O326 1.956 . S
Li266 O327 1.970 . S
Li267 N317 1.990 . S
Li267 O325 1.961 . S
Li267 O326 1.970 . S
Li267 O327 1.956 . S
C268 C270 1.348 . S
C268 C271 1.356 . S
C268 O324 1.325 . S
N269 C272 1.314 . S
N269 C273 1.279 . S
C270 C268 1.348 . S
C270 C272 1.353 . S
C270 H328 0.929 . S
C271 C268 1.356 . S
C271 C273 1.358 . S
C271 H329 0.930 . S
C272 N269 1.314 . S
C272 C270 1.353 . S
C272 H330 0.930 . S
C273 N269 1.279 . S
C273 C271 1.358 . S
C273 H331 0.930 . S
C274 C277 1.348 . S
C274 C278 1.356 . S
C274 O325 1.325 . S
C275 N276 1.279 . S
C275 C278 1.358 . S
C275 H332 0.930 . S
N276 C275 1.279 . S
N276 C279 1.314 . S
C277 C274 1.348 . S
C277 C279 1.353 . S
C277 H333 0.929 . S
C278 C274 1.356 . S
C278 C275 1.358 . S
C278 H334 0.930 . S
C279 N276 1.314 . S
C279 C277 1.353 . S
C279 H335 0.930 . S
C280 N281 1.314 . S
C280 C285 1.353 . S
C280 H286 0.930 . S
N281 Li264 1.990 . S
N281 C280 1.314 . S
N281 C283 1.279 . S
C282 C283 1.358 . S
C282 C284 1.356 . S
C282 H336 0.930 . S
C283 N281 1.279 . S
C283 C282 1.358 . S
C283 H287 0.930 . S
C284 C282 1.356 . S
C284 C285 1.348 . S
C285 C280 1.353 . S
C285 C284 1.348 . S
C285 H337 0.929 . S
H286 C280 0.930 . S
H287 C283 0.930 . S
C288 N289 1.314 . S
C288 C290 1.353 . S
C288 H294 0.930 . S
N289 Li265 1.990 . S
N289 C288 1.314 . S
N289 C292 1.279 . S
C290 C288 1.353 . S
C290 C293 1.348 . S
C290 H338 0.929 . S
C291 C292 1.358 . S
C291 C293 1.356 . S
C291 H339 0.930 . S
C292 N289 1.279 . S
C292 C291 1.358 . S
C292 H295 0.930 . S
C293 C290 1.348 . S
C293 C291 1.356 . S
H294 C288 0.930 . S
H295 C292 0.930 . S
C296 C298 1.348 . S
C296 C299 1.356 . S
C296 O326 1.325 . S
N297 C300 1.314 1_556 S
N297 C301 1.279 1_556 S
C298 C296 1.348 . S
C298 C300 1.353 . S
C298 H340 0.929 . S
C299 C296 1.356 . S
C299 C301 1.358 . S
C299 H341 0.930 . S
C300 N297 1.314 1_554 S
C300 C298 1.353 . S
C300 H342 0.930 1_554 S
C301 N297 1.279 1_554 S
C301 C299 1.358 . S
C301 H343 0.930 1_554 S
C302 C303 1.348 . S
C302 C304 1.356 . S
C302 O327 1.325 . S
C303 C302 1.348 . S
C303 C305 1.353 . S
C303 H344 0.929 . S
C304 C302 1.356 . S
C304 C306 1.358 . S
C304 H345 0.930 . S
C305 C303 1.353 . S
C305 N307 1.314 . S
C305 H346 0.930 . S
C306 C304 1.358 . S
C306 N307 1.279 . S
C306 H347 0.930 . S
N307 C305 1.314 . S
N307 C306 1.279 . S
C308 C310 1.353 . S
C308 N311 1.314 . S
C308 H314 0.930 . S
C309 N311 1.279 . S
C309 C312 1.358 . S
C309 H315 0.930 . S
C310 C308 1.353 . S
C310 C313 1.348 . S
C310 H348 0.929 . S
N311 Li266 1.990 . S
N311 C308 1.314 . S
N311 C309 1.279 . S
C312 C309 1.358 . S
C312 C313 1.356 . S
C312 H349 0.930 . S
C313 C310 1.348 . S
C313 C312 1.356 . S
H314 C308 0.930 . S
H315 C309 0.930 . S
C316 N317 1.314 . S
C316 C318 1.353 . S
C316 H322 0.930 . S
N317 Li267 1.990 . S
N317 C316 1.314 . S
N317 C320 1.279 . S
C318 C316 1.353 . S
C318 C321 1.348 . S
C318 H350 0.929 . S
C319 C320 1.358 . S
C319 C321 1.356 . S
C319 H351 0.930 . S
C320 N317 1.279 . S
C320 C319 1.358 . S
C320 H323 0.930 . S
C321 C318 1.348 . S
C321 C319 1.356 . S
H322 C316 0.930 . S
H323 C320 0.930 . S
O324 Li264 1.956 . S
O324 Li265 1.970 . S
O324 Li266 1.961 . S
O324 C268 1.325 . S
O325 Li264 1.970 . S
O325 Li265 1.956 . S
O325 Li267 1.961 . S
O325 C274 1.325 . S
O326 Li264 1.961 . S
O326 Li266 1.956 . S
O326 Li267 1.970 . S
O326 C296 1.325 . S
O327 Li265 1.961 . S
O327 Li266 1.970 . S
O327 Li267 1.956 . S
O327 C302 1.325 . S
H328 C270 0.929 . S
H329 C271 0.930 . S
H330 C272 0.930 . S
H331 C273 0.930 . S
H332 C275 0.930 . S
H333 C277 0.929 . S
H334 C278 0.930 . S
H335 C279 0.930 . S
H336 C282 0.930 . S
H337 C285 0.929 . S
H338 C290 0.929 . S
H339 C291 0.930 . S
H340 C298 0.929 . S
H341 C299 0.930 . S
H342 C300 0.930 1_556 S
H343 C301 0.930 1_556 S
H344 C303 0.929 . S
H345 C304 0.930 . S
H346 C305 0.930 . S
H347 C306 0.930 . S
H348 C310 0.929 . S
H349 C312 0.930 . S
H350 C318 0.929 . S
H351 C319 0.930 . S
Li352 N369 1.990 . S
Li352 O412 1.956 . S
Li352 O413 1.970 . S
Li352 O414 1.961 . S
Li353 N377 1.990 . S
Li353 O412 1.970 . S
Li353 O413 1.956 . S
Li353 O415 1.961 . S
Li354 N399 1.990 . S
Li354 O412 1.961 . S
Li354 O414 1.956 . S
Li354 O415 1.970 . S
Li355 N405 1.990 . S
Li355 O413 1.961 . S
Li355 O414 1.970 . S
Li355 O415 1.956 . S
C356 C358 1.348 . S
C356 C359 1.356 . S
C356 O412 1.325 . S
N357 C360 1.314 . S
N357 C361 1.279 . S
C358 C356 1.348 . S
C358 C360 1.353 . S
C358 H416 0.929 . S
C359 C356 1.356 . S
C359 C361 1.358 . S
C359 H417 0.930 . S
C360 N357 1.314 . S
C360 C358 1.353 . S
C360 H418 0.930 . S
C361 N357 1.279 . S
C361 C359 1.358 . S
C361 H419 0.930 . S
C362 C365 1.348 . S
C362 C366 1.356 . S
C362 O413 1.325 . S
C363 N364 1.279 . S
C363 C366 1.358 . S
C363 H420 0.930 . S
N364 C363 1.279 . S
N364 C367 1.314 . S
C365 C362 1.348 . S
C365 C367 1.353 . S
C365 H421 0.929 . S
C366 C362 1.356 . S
C366 C363 1.358 . S
C366 H422 0.930 . S
C367 N364 1.314 . S
C367 C365 1.353 . S
C367 H423 0.930 . S
C368 N369 1.314 . S
C368 C373 1.353 . S
C368 H374 0.930 . S
N369 Li352 1.990 . S
N369 C368 1.314 . S
N369 C371 1.279 . S
C370 C371 1.358 . S
C370 C372 1.356 . S
C370 H424 0.930 . S
C371 N369 1.279 . S
C371 C370 1.358 . S
C371 H375 0.930 . S
C372 C370 1.356 . S
C372 C373 1.348 . S
C373 C368 1.353 . S
C373 C372 1.348 . S
C373 H425 0.929 . S
H374 C368 0.930 . S
H375 C371 0.930 . S
C376 N377 1.314 . S
C376 C378 1.353 . S
C376 H382 0.930 . S
N377 Li353 1.990 . S
N377 C376 1.314 . S
N377 C380 1.279 . S
C378 C376 1.353 . S
C378 C381 1.348 . S
C378 H426 0.929 . S
C379 C380 1.358 . S
C379 C381 1.356 . S
C379 H427 0.930 . S
C380 N377 1.279 . S
C380 C379 1.358 . S
C380 H383 0.930 . S
C381 C378 1.348 . S
C381 C379 1.356 . S
H382 C376 0.930 . S
H383 C380 0.930 . S
C384 C386 1.348 . S
C384 C387 1.356 . S
C384 O414 1.325 . S
N385 C388 1.314 . S
N385 C389 1.279 . S
C386 C384 1.348 . S
C386 C388 1.353 . S
C386 H428 0.929 . S
C387 C384 1.356 . S
C387 C389 1.358 . S
C387 H429 0.930 . S
C388 N385 1.314 . S
C388 C386 1.353 . S
C388 H430 0.930 . S
C389 N385 1.279 . S
C389 C387 1.358 . S
C389 H431 0.930 . S
C390 C391 1.348 . S
C390 C392 1.356 . S
C390 O415 1.325 . S
C391 C390 1.348 . S
C391 C393 1.353 . S
C391 H432 0.929 . S
C392 C390 1.356 . S
C392 C394 1.358 . S
C392 H433 0.930 . S
C393 C391 1.353 . S
C393 N395 1.314 . S
C393 H434 0.930 . S
C394 C392 1.358 . S
C394 N395 1.279 . S
C394 H435 0.930 . S
N395 C393 1.314 . S
N395 C394 1.279 . S
C396 C398 1.353 . S
C396 N399 1.314 . S
C396 H402 0.930 . S
C397 N399 1.279 . S
C397 C400 1.358 . S
C397 H403 0.930 . S
C398 C396 1.353 . S
C398 C401 1.348 . S
C398 H436 0.929 . S
N399 Li354 1.990 . S
N399 C396 1.314 . S
N399 C397 1.279 . S
C400 C397 1.358 . S
C400 C401 1.356 . S
C400 H437 0.930 . S
C401 C398 1.348 . S
C401 C400 1.356 . S
H402 C396 0.930 . S
H403 C397 0.930 . S
C404 N405 1.314 . S
C404 C406 1.353 . S
C404 H410 0.930 . S
N405 Li355 1.990 . S
N405 C404 1.314 . S
N405 C408 1.279 . S
C406 C404 1.353 . S
C406 C409 1.348 . S
C406 H438 0.929 . S
C407 C408 1.358 . S
C407 C409 1.356 . S
C407 H439 0.930 . S
C408 N405 1.279 . S
C408 C407 1.358 . S
C408 H411 0.930 . S
C409 C406 1.348 . S
C409 C407 1.356 . S
H410 C404 0.930 . S
H411 C408 0.930 . S
O412 Li352 1.956 . S
O412 Li353 1.970 . S
O412 Li354 1.961 . S
O412 C356 1.325 . S
O413 Li352 1.970 . S
O413 Li353 1.956 . S
O413 Li355 1.961 . S
O413 C362 1.325 . S
O414 Li352 1.961 . S
O414 Li354 1.956 . S
O414 Li355 1.970 . S
O414 C384 1.325 . S
O415 Li353 1.961 . S
O415 Li354 1.970 . S
O415 Li355 1.956 . S
O415 C390 1.325 . S
H416 C358 0.929 . S
H417 C359 0.930 . S
H418 C360 0.930 . S
H419 C361 0.930 . S
H420 C363 0.930 . S
H421 C365 0.929 . S
H422 C366 0.930 . S
H423 C367 0.930 . S
H424 C370 0.930 . S
H425 C373 0.929 . S
H426 C378 0.929 . S
H427 C379 0.930 . S
H428 C386 0.929 . S
H429 C387 0.930 . S
H430 C388 0.930 . S
H431 C389 0.930 . S
H432 C391 0.929 . S
H433 C392 0.930 . S
H434 C393 0.930 . S
H435 C394 0.930 . S
H436 C398 0.929 . S
H437 C400 0.930 . S
H438 C406 0.929 . S
H439 C407 0.930 . S
Li440 N457 1.990 . S
Li440 O500 1.956 . S
Li440 O501 1.970 . S
Li440 O502 1.961 . S
Li441 N465 1.990 . S
Li441 O500 1.970 . S
Li441 O501 1.956 . S
Li441 O503 1.961 . S
Li442 N487 1.990 . S
Li442 O500 1.961 . S
Li442 O502 1.956 . S
Li442 O503 1.970 . S
Li443 N493 1.990 . S
Li443 O501 1.961 . S
Li443 O502 1.970 . S
Li443 O503 1.956 . S
C444 C446 1.348 . S
C444 C447 1.356 . S
C444 O500 1.325 . S
N445 C448 1.314 . S
N445 C449 1.279 . S
C446 C444 1.348 . S
C446 C448 1.353 . S
C446 H504 0.929 . S
C447 C444 1.356 . S
C447 C449 1.358 . S
C447 H505 0.930 . S
C448 N445 1.314 . S
C448 C446 1.353 . S
C448 H506 0.930 . S
C449 N445 1.279 . S
C449 C447 1.358 . S
C449 H507 0.930 . S
C450 C453 1.348 . S
C450 C454 1.356 . S
C450 O501 1.325 . S
C451 N452 1.279 . S
C451 C454 1.358 . S
C451 H508 0.930 . S
N452 C451 1.279 . S
N452 C455 1.314 . S
C453 C450 1.348 . S
C453 C455 1.353 . S
C453 H509 0.929 . S
C454 C450 1.356 . S
C454 C451 1.358 . S
C454 H510 0.930 . S
C455 N452 1.314 . S
C455 C453 1.353 . S
C455 H511 0.930 . S
C456 N457 1.314 . S
C456 C461 1.353 . S
C456 H462 0.930 . S
N457 Li440 1.990 . S
N457 C456 1.314 . S
N457 C459 1.279 . S
C458 C459 1.358 . S
C458 C460 1.356 . S
C458 H512 0.930 . S
C459 N457 1.279 . S
C459 C458 1.358 . S
C459 H463 0.930 . S
C460 C458 1.356 . S
C460 C461 1.348 . S
C461 C456 1.353 . S
C461 C460 1.348 . S
C461 H513 0.929 . S
H462 C456 0.930 . S
H463 C459 0.930 . S
C464 N465 1.314 . S
C464 C466 1.353 . S
C464 H470 0.930 . S
N465 Li441 1.990 . S
N465 C464 1.314 . S
N465 C468 1.279 . S
C466 C464 1.353 . S
C466 C469 1.348 . S
C466 H514 0.929 . S
C467 C468 1.358 . S
C467 C469 1.356 . S
C467 H515 0.930 . S
C468 N465 1.279 . S
C468 C467 1.358 . S
C468 H471 0.930 . S
C469 C466 1.348 . S
C469 C467 1.356 . S
H470 C464 0.930 . S
H471 C468 0.930 . S
C472 C474 1.348 . S
C472 C475 1.356 . S
C472 O502 1.325 . S
N473 C476 1.314 . S
N473 C477 1.279 . S
C474 C472 1.348 . S
C474 C476 1.353 . S
C474 H516 0.929 . S
C475 C472 1.356 . S
C475 C477 1.358 . S
C475 H517 0.930 . S
C476 N473 1.314 . S
C476 C474 1.353 . S
C476 H518 0.930 . S
C477 N473 1.279 . S
C477 C475 1.358 . S
C477 H519 0.930 . S
C478 C479 1.348 . S
C478 C480 1.356 . S
C478 O503 1.325 . S
C479 C478 1.348 . S
C479 C481 1.353 . S
C479 H520 0.929 . S
C480 C478 1.356 . S
C480 C482 1.358 . S
C480 H521 0.930 . S
C481 C479 1.353 . S
C481 N483 1.314 . S
C481 H522 0.930 . S
C482 C480 1.358 . S
C482 N483 1.279 . S
C482 H523 0.930 . S
N483 C481 1.314 . S
N483 C482 1.279 . S
C484 C486 1.353 . S
C484 N487 1.314 . S
C484 H490 0.930 . S
C485 N487 1.279 . S
C485 C488 1.358 . S
C485 H491 0.930 . S
C486 C484 1.353 . S
C486 C489 1.348 . S
C486 H524 0.929 . S
N487 Li442 1.990 . S
N487 C484 1.314 . S
N487 C485 1.279 . S
C488 C485 1.358 . S
C488 C489 1.356 . S
C488 H525 0.930 . S
C489 C486 1.348 . S
C489 C488 1.356 . S
H490 C484 0.930 . S
H491 C485 0.930 . S
C492 N493 1.314 . S
C492 C494 1.353 . S
C492 H498 0.930 . S
N493 Li443 1.990 . S
N493 C492 1.314 . S
N493 C496 1.279 . S
C494 C492 1.353 . S
C494 C497 1.348 . S
C494 H526 0.929 . S
C495 C496 1.358 . S
C495 C497 1.356 . S
C495 H527 0.930 . S
C496 N493 1.279 . S
C496 C495 1.358 . S
C496 H499 0.930 . S
C497 C494 1.348 . S
C497 C495 1.356 . S
H498 C492 0.930 . S
H499 C496 0.930 . S
O500 Li440 1.956 . S
O500 Li441 1.970 . S
O500 Li442 1.961 . S
O500 C444 1.325 . S
O501 Li440 1.970 . S
O501 Li441 1.956 . S
O501 Li443 1.961 . S
O501 C450 1.325 . S
O502 Li440 1.961 . S
O502 Li442 1.956 . S
O502 Li443 1.970 . S
O502 C472 1.325 . S
O503 Li441 1.961 . S
O503 Li442 1.970 . S
O503 Li443 1.956 . S
O503 C478 1.325 . S
H504 C446 0.929 . S
H505 C447 0.930 . S
H506 C448 0.930 . S
H507 C449 0.930 . S
H508 C451 0.930 . S
H509 C453 0.929 . S
H510 C454 0.930 . S
H511 C455 0.930 . S
H512 C458 0.930 . S
H513 C461 0.929 . S
H514 C466 0.929 . S
H515 C467 0.930 . S
H516 C474 0.929 . S
H517 C475 0.930 . S
H518 C476 0.930 . S
H519 C477 0.930 . S
H520 C479 0.929 . S
H521 C480 0.930 . S
H522 C481 0.930 . S
H523 C482 0.930 . S
H524 C486 0.929 . S
H525 C488 0.930 . S
H526 C494 0.929 . S
H527 C495 0.930 . S
Li528 N545 1.990 . S
Li528 O588 1.956 . S
Li528 O589 1.970 . S
Li528 O590 1.961 . S
Li529 N553 1.990 . S
Li529 O588 1.970 . S
Li529 O589 1.956 . S
Li529 O591 1.961 . S
Li530 N575 1.990 . S
Li530 O588 1.961 . S
Li530 O590 1.956 . S
Li530 O591 1.970 . S
Li531 N581 1.990 . S
Li531 O589 1.961 . S
Li531 O590 1.970 . S
Li531 O591 1.956 . S
C532 C534 1.348 . S
C532 C535 1.356 . S
C532 O588 1.325 . S
N533 C536 1.314 . S
N533 C537 1.279 . S
C534 C532 1.348 . S
C534 C536 1.353 . S
C534 H592 0.929 . S
C535 C532 1.356 . S
C535 C537 1.358 . S
C535 H593 0.930 . S
C536 N533 1.314 . S
C536 C534 1.353 . S
C536 H594 0.930 . S
C537 N533 1.279 . S
C537 C535 1.358 . S
C537 H595 0.930 . S
C538 C541 1.348 . S
C538 C542 1.356 . S
C538 O589 1.325 . S
C539 N540 1.279 . S
C539 C542 1.358 . S
C539 H596 0.930 . S
N540 C539 1.279 . S
N540 C543 1.314 . S
C541 C538 1.348 . S
C541 C543 1.353 . S
C541 H597 0.929 . S
C542 C538 1.356 . S
C542 C539 1.358 . S
C542 H598 0.930 . S
C543 N540 1.314 . S
C543 C541 1.353 . S
C543 H599 0.930 . S
C544 N545 1.314 . S
C544 C549 1.353 . S
C544 H550 0.930 . S
N545 Li528 1.990 . S
N545 C544 1.314 . S
N545 C547 1.279 . S
C546 C547 1.358 . S
C546 C548 1.356 . S
C546 H600 0.930 . S
C547 N545 1.279 . S
C547 C546 1.358 . S
C547 H551 0.930 . S
C548 C546 1.356 . S
C548 C549 1.348 . S
C549 C544 1.353 . S
C549 C548 1.348 . S
C549 H601 0.929 . S
H550 C544 0.930 . S
H551 C547 0.930 . S
C552 N553 1.314 . S
C552 C554 1.353 . S
C552 H558 0.930 . S
N553 Li529 1.990 . S
N553 C552 1.314 . S
N553 C556 1.279 . S
C554 C552 1.353 . S
C554 C557 1.348 . S
C554 H602 0.929 . S
C555 C556 1.358 . S
C555 C557 1.356 . S
C555 H603 0.930 . S
C556 N553 1.279 . S
C556 C555 1.358 . S
C556 H559 0.930 . S
C557 C554 1.348 . S
C557 C555 1.356 . S
H558 C552 0.930 . S
H559 C556 0.930 . S
C560 C562 1.348 . S
C560 C563 1.356 . S
C560 O590 1.325 . S
N561 C564 1.314 . S
N561 C565 1.279 . S
C562 C560 1.348 . S
C562 C564 1.353 . S
C562 H604 0.929 . S
C563 C560 1.356 . S
C563 C565 1.358 . S
C563 H605 0.930 . S
C564 N561 1.314 . S
C564 C562 1.353 . S
C564 H606 0.930 . S
C565 N561 1.279 . S
C565 C563 1.358 . S
C565 H607 0.930 . S
C566 C567 1.348 . S
C566 C568 1.356 . S
C566 O591 1.325 . S
C567 C566 1.348 . S
C567 C569 1.353 . S
C567 H608 0.929 . S
C568 C566 1.356 . S
C568 C570 1.358 . S
C568 H609 0.930 . S
C569 C567 1.353 . S
C569 N571 1.314 . S
C569 H610 0.930 . S
C570 C568 1.358 . S
C570 N571 1.279 . S
C570 H611 0.930 . S
N571 C569 1.314 . S
N571 C570 1.279 . S
C572 C574 1.353 . S
C572 N575 1.314 . S
C572 H578 0.930 . S
C573 N575 1.279 . S
C573 C576 1.358 . S
C573 H579 0.930 . S
C574 C572 1.353 . S
C574 C577 1.348 . S
C574 H612 0.929 . S
N575 Li530 1.990 . S
N575 C572 1.314 . S
N575 C573 1.279 . S
C576 C573 1.358 . S
C576 C577 1.356 . S
C576 H613 0.930 . S
C577 C574 1.348 . S
C577 C576 1.356 . S
H578 C572 0.930 . S
H579 C573 0.930 . S
C580 N581 1.314 . S
C580 C582 1.353 . S
C580 H586 0.930 . S
N581 Li531 1.990 . S
N581 C580 1.314 . S
N581 C584 1.279 . S
C582 C580 1.353 . S
C582 C585 1.348 . S
C582 H614 0.929 . S
C583 C584 1.358 . S
C583 C585 1.356 . S
C583 H615 0.930 . S
C584 N581 1.279 . S
C584 C583 1.358 . S
C584 H587 0.930 . S
C585 C582 1.348 . S
C585 C583 1.356 . S
H586 C580 0.930 . S
H587 C584 0.930 . S
O588 Li528 1.956 . S
O588 Li529 1.970 . S
O588 Li530 1.961 . S
O588 C532 1.325 . S
O589 Li528 1.970 . S
O589 Li529 1.956 . S
O589 Li531 1.961 . S
O589 C538 1.325 . S
O590 Li528 1.961 . S
O590 Li530 1.956 . S
O590 Li531 1.970 . S
O590 C560 1.325 . S
O591 Li529 1.961 . S
O591 Li530 1.970 . S
O591 Li531 1.956 . S
O591 C566 1.325 . S
H592 C534 0.929 . S
H593 C535 0.930 . S
H594 C536 0.930 . S
H595 C537 0.930 . S
H596 C539 0.930 . S
H597 C541 0.929 . S
H598 C542 0.930 . S
H599 C543 0.930 . S
H600 C546 0.930 . S
H601 C549 0.929 . S
H602 C554 0.929 . S
H603 C555 0.930 . S
H604 C562 0.929 . S
H605 C563 0.930 . S
H606 C564 0.930 . S
H607 C565 0.930 . S
H608 C567 0.929 . S
H609 C568 0.930 . S
H610 C569 0.930 . S
H611 C570 0.930 . S
H612 C574 0.929 . S
H613 C576 0.930 . S
H614 C582 0.929 . S
H615 C583 0.930 . S
Li616 N633 1.990 . S
Li616 O676 1.956 . S
Li616 O677 1.970 . S
Li616 O678 1.961 . S
Li617 N641 1.990 . S
Li617 O676 1.970 . S
Li617 O677 1.956 . S
Li617 O679 1.961 . S
Li618 N663 1.990 . S
Li618 O676 1.961 . S
Li618 O678 1.956 . S
Li618 O679 1.970 . S
Li619 N669 1.990 . S
Li619 O677 1.961 . S
Li619 O678 1.970 . S
Li619 O679 1.956 . S
C620 C622 1.348 . S
C620 C623 1.356 . S
C620 O676 1.325 . S
N621 C624 1.314 . S
N621 C625 1.279 . S
C622 C620 1.348 . S
C622 C624 1.353 . S
C622 H680 0.929 . S
C623 C620 1.356 . S
C623 C625 1.358 . S
C623 H681 0.930 . S
C624 N621 1.314 . S
C624 C622 1.353 . S
C624 H682 0.930 . S
C625 N621 1.279 . S
C625 C623 1.358 . S
C625 H683 0.930 . S
C626 C629 1.348 . S
C626 C630 1.356 . S
C626 O677 1.325 . S
C627 N628 1.279 . S
C627 C630 1.358 . S
C627 H684 0.930 . S
N628 C627 1.279 . S
N628 C631 1.314 . S
C629 C626 1.348 . S
C629 C631 1.353 . S
C629 H685 0.929 . S
C630 C626 1.356 . S
C630 C627 1.358 . S
C630 H686 0.930 . S
C631 N628 1.314 . S
C631 C629 1.353 . S
C631 H687 0.930 . S
C632 N633 1.314 . S
C632 C637 1.353 . S
C632 H638 0.930 . S
N633 Li616 1.990 . S
N633 C632 1.314 . S
N633 C635 1.279 . S
C634 C635 1.358 . S
C634 C636 1.356 . S
C634 H688 0.930 . S
C635 N633 1.279 . S
C635 C634 1.358 . S
C635 H639 0.930 . S
C636 C634 1.356 . S
C636 C637 1.348 . S
C637 C632 1.353 . S
C637 C636 1.348 . S
C637 H689 0.929 . S
H638 C632 0.930 . S
H639 C635 0.930 . S
C640 N641 1.314 . S
C640 C642 1.353 . S
C640 H646 0.930 . S
N641 Li617 1.990 . S
N641 C640 1.314 . S
N641 C644 1.279 . S
C642 C640 1.353 . S
C642 C645 1.348 . S
C642 H690 0.929 . S
C643 C644 1.358 . S
C643 C645 1.356 . S
C643 H691 0.930 . S
C644 N641 1.279 . S
C644 C643 1.358 . S
C644 H647 0.930 . S
C645 C642 1.348 . S
C645 C643 1.356 . S
H646 C640 0.930 . S
H647 C644 0.930 . S
C648 C650 1.348 . S
C648 C651 1.356 . S
C648 O678 1.325 . S
N649 C652 1.314 . S
N649 C653 1.279 . S
C650 C648 1.348 . S
C650 C652 1.353 . S
C650 H692 0.929 . S
C651 C648 1.356 . S
C651 C653 1.358 . S
C651 H693 0.930 . S
C652 N649 1.314 . S
C652 C650 1.353 . S
C652 H694 0.930 . S
C653 N649 1.279 . S
C653 C651 1.358 . S
C653 H695 0.930 . S
C654 C655 1.348 . S
C654 C656 1.356 . S
C654 O679 1.325 . S
C655 C654 1.348 . S
C655 C657 1.353 . S
C655 H696 0.929 . S
C656 C654 1.356 . S
C656 C658 1.358 . S
C656 H697 0.930 . S
C657 C655 1.353 . S
C657 N659 1.314 . S
C657 H698 0.930 . S
C658 C656 1.358 . S
C658 N659 1.279 . S
C658 H699 0.930 . S
N659 C657 1.314 . S
N659 C658 1.279 . S
C660 C662 1.353 . S
C660 N663 1.314 . S
C660 H666 0.930 . S
C661 N663 1.279 . S
C661 C664 1.358 . S
C661 H667 0.930 . S
C662 C660 1.353 . S
C662 C665 1.348 . S
C662 H700 0.929 . S
N663 Li618 1.990 . S
N663 C660 1.314 . S
N663 C661 1.279 . S
C664 C661 1.358 . S
C664 C665 1.356 . S
C664 H701 0.930 . S
C665 C662 1.348 . S
C665 C664 1.356 . S
H666 C660 0.930 . S
H667 C661 0.930 . S
C668 N669 1.314 . S
C668 C670 1.353 . S
C668 H674 0.930 . S
N669 Li619 1.990 . S
N669 C668 1.314 . S
N669 C672 1.279 . S
C670 C668 1.353 . S
C670 C673 1.348 . S
C670 H702 0.929 . S
C671 C672 1.358 . S
C671 C673 1.356 . S
C671 H703 0.930 . S
C672 N669 1.279 . S
C672 C671 1.358 . S
C672 H675 0.930 . S
C673 C670 1.348 . S
C673 C671 1.356 . S
H674 C668 0.930 . S
H675 C672 0.930 . S
O676 Li616 1.956 . S
O676 Li617 1.970 . S
O676 Li618 1.961 . S
O676 C620 1.325 . S
O677 Li616 1.970 . S
O677 Li617 1.956 . S
O677 Li619 1.961 . S
O677 C626 1.325 . S
O678 Li616 1.961 . S
O678 Li618 1.956 . S
O678 Li619 1.970 . S
O678 C648 1.325 . S
O679 Li617 1.961 . S
O679 Li618 1.970 . S
O679 Li619 1.956 . S
O679 C654 1.325 . S
H680 C622 0.929 . S
H681 C623 0.930 . S
H682 C624 0.930 . S
H683 C625 0.930 . S
H684 C627 0.930 . S
H685 C629 0.929 . S
H686 C630 0.930 . S
H687 C631 0.930 . S
H688 C634 0.930 . S
H689 C637 0.929 . S
H690 C642 0.929 . S
H691 C643 0.930 . S
H692 C650 0.929 . S
H693 C651 0.930 . S
H694 C652 0.930 . S
H695 C653 0.930 . S
H696 C655 0.929 . S
H697 C656 0.930 . S
H698 C657 0.930 . S
H699 C658 0.930 . S
H700 C662 0.929 . S
H701 C664 0.930 . S
H702 C670 0.929 . S
H703 C671 0.930 . S
Li704 N721 1.990 . S
Li704 O764 1.956 . S
Li704 O765 1.970 . S
Li704 O766 1.961 . S
Li705 N729 1.990 . S
Li705 O764 1.970 . S
Li705 O765 1.956 . S
Li705 O767 1.961 . S
Li706 N751 1.990 . S
Li706 O764 1.961 . S
Li706 O766 1.956 . S
Li706 O767 1.970 . S
Li707 N757 1.990 . S
Li707 O765 1.961 . S
Li707 O766 1.970 . S
Li707 O767 1.956 . S
C708 C710 1.348 . S
C708 C711 1.356 . S
C708 O764 1.325 . S
N709 C712 1.314 1_554 S
N709 C713 1.271 1_554 S
C710 C708 1.348 . S
C710 C712 1.353 . S
C710 H768 0.929 . S
C711 C708 1.356 . S
C711 C713 1.379 . S
C711 H769 0.930 . S
C712 N709 1.314 1_556 S
C712 C710 1.353 . S
C712 H770 0.930 . S
C713 N709 1.271 1_556 S
C713 C711 1.379 . S
C713 H771 0.917 1_556 S
C714 C717 1.348 . S
C714 C718 1.356 . S
C714 O765 1.325 . S
C715 N716 1.279 . S
C715 C718 1.358 . S
C715 H772 0.930 . S
N716 C715 1.279 . S
N716 C719 1.314 . S
C717 C714 1.348 . S
C717 C719 1.353 . S
C717 H773 0.929 . S
C718 C714 1.356 . S
C718 C715 1.358 . S
C718 H774 0.930 . S
C719 N716 1.314 . S
C719 C717 1.353 . S
C719 H775 0.930 . S
C720 N721 1.314 . S
C720 C725 1.353 . S
C720 H726 0.930 . S
N721 Li704 1.990 . S
N721 C720 1.314 . S
N721 C723 1.279 . S
C722 C723 1.358 . S
C722 C724 1.356 . S
C722 H776 0.930 . S
C723 N721 1.279 . S
C723 C722 1.358 . S
C723 H727 0.930 . S
C724 C722 1.356 . S
C724 C725 1.348 . S
C725 C720 1.353 . S
C725 C724 1.348 . S
C725 H777 0.929 . S
H726 C720 0.930 . S
H727 C723 0.930 . S
C728 N729 1.314 . S
C728 C730 1.353 . S
C728 H734 0.930 . S
N729 Li705 1.990 . S
N729 C728 1.314 . S
N729 C732 1.279 . S
C730 C728 1.353 . S
C730 C733 1.348 . S
C730 H778 0.929 . S
C731 C732 1.358 . S
C731 C733 1.356 . S
C731 H779 0.930 . S
C732 N729 1.279 . S
C732 C731 1.358 . S
C732 H735 0.930 . S
C733 C730 1.348 . S
C733 C731 1.356 . S
H734 C728 0.930 . S
H735 C732 0.930 . S
C736 C738 1.348 . S
C736 C739 1.356 . S
C736 O766 1.325 . S
N737 C740 1.314 . S
N737 C741 1.279 . S
C738 C736 1.348 . S
C738 C740 1.353 . S
C738 H780 0.929 . S
C739 C736 1.356 . S
C739 C741 1.358 . S
C739 H781 0.930 . S
C740 N737 1.314 . S
C740 C738 1.353 . S
C740 H782 0.930 . S
C741 N737 1.279 . S
C741 C739 1.358 . S
C741 H783 0.930 . S
C742 C743 1.348 . S
C742 C744 1.356 . S
C742 O767 1.325 . S
C743 C742 1.348 . S
C743 C745 1.353 . S
C743 H784 0.929 . S
C744 C742 1.356 . S
C744 C746 1.358 . S
C744 H785 0.930 . S
C745 C743 1.353 . S
C745 N747 1.314 . S
C745 H786 0.930 . S
C746 C744 1.358 . S
C746 N747 1.279 . S
C746 H787 0.930 . S
N747 C745 1.314 . S
N747 C746 1.279 . S
C748 C750 1.353 . S
C748 N751 1.314 . S
C748 H754 0.930 . S
C749 N751 1.279 . S
C749 C752 1.358 . S
C749 H755 0.930 . S
C750 C748 1.353 . S
C750 C753 1.348 . S
C750 H788 0.929 . S
N751 Li706 1.990 . S
N751 C748 1.314 . S
N751 C749 1.279 . S
C752 C749 1.358 . S
C752 C753 1.356 . S
C752 H789 0.930 . S
C753 C750 1.348 . S
C753 C752 1.356 . S
H754 C748 0.930 . S
H755 C749 0.930 . S
C756 N757 1.314 . S
C756 C758 1.353 . S
C756 H762 0.930 . S
N757 Li707 1.990 . S
N757 C756 1.314 . S
N757 C760 1.279 . S
C758 C756 1.353 . S
C758 C761 1.348 . S
C758 H790 0.929 . S
C759 C760 1.358 . S
C759 C761 1.356 . S
C759 H791 0.930 . S
C760 N757 1.279 . S
C760 C759 1.358 . S
C760 H763 0.930 . S
C761 C758 1.348 . S
C761 C759 1.356 . S
H762 C756 0.930 . S
H763 C760 0.930 . S
O764 Li704 1.956 . S
O764 Li705 1.970 . S
O764 Li706 1.961 . S
O764 C708 1.325 . S
O765 Li704 1.970 . S
O765 Li705 1.956 . S
O765 Li707 1.961 . S
O765 C714 1.325 . S
O766 Li704 1.961 . S
O766 Li706 1.956 . S
O766 Li707 1.970 . S
O766 C736 1.325 . S
O767 Li705 1.961 . S
O767 Li706 1.970 . S
O767 Li707 1.956 . S
O767 C742 1.325 . S
H768 C710 0.929 . S
H769 C711 0.930 . S
H770 C712 0.930 . S
H771 C713 0.917 1_554 S
H772 C715 0.930 . S
H773 C717 0.929 . S
H774 C718 0.930 . S
H775 C719 0.930 . S
H776 C722 0.930 . S
H777 C725 0.929 . S
H778 C730 0.929 . S
H779 C731 0.930 . S
H780 C738 0.929 . S
H781 C739 0.930 . S
H782 C740 0.930 . S
H783 C741 0.930 . S
H784 C743 0.929 . S
H785 C744 0.930 . S
H786 C745 0.930 . S
H787 C746 0.930 . S
H788 C750 0.929 . S
H789 C752 0.930 . S
H790 C758 0.929 . S
H791 C759 0.930 . S
Li792 N809 1.990 . S
Li792 O852 1.956 . S
Li792 O853 1.970 . S
Li792 O854 1.961 . S
Li793 N817 1.990 . S
Li793 O852 1.970 . S
Li793 O853 1.956 . S
Li793 O855 1.961 . S
Li794 N839 1.990 . S
Li794 O852 1.961 . S
Li794 O854 1.956 . S
Li794 O855 1.970 . S
Li795 N845 1.990 . S
Li795 O853 1.961 . S
Li795 O854 1.970 . S
Li795 O855 1.956 . S
C796 C798 1.348 . S
C796 C799 1.356 . S
C796 O852 1.325 . S
N797 C800 1.314 . S
N797 C801 1.279 . S
C798 C796 1.348 . S
C798 C800 1.353 . S
C798 H856 0.929 . S
C799 C796 1.356 . S
C799 C801 1.358 . S
C799 H857 0.930 . S
C800 N797 1.314 . S
C800 C798 1.353 . S
C800 H858 0.930 . S
C801 N797 1.279 . S
C801 C799 1.358 . S
C801 H859 0.930 . S
C802 C805 1.348 . S
C802 C806 1.356 . S
C802 O853 1.325 . S
C803 N804 1.271 1_556 S
C803 C806 1.379 . S
C803 H860 0.917 1_556 S
N804 C803 1.271 1_554 S
N804 C807 1.314 1_554 S
C805 C802 1.348 . S
C805 C807 1.353 . S
C805 H861 0.929 . S
C806 C802 1.356 . S
C806 C803 1.379 . S
C806 H862 0.930 . S
C807 N804 1.314 1_556 S
C807 C805 1.353 . S
C807 H863 0.930 . S
C808 N809 1.314 . S
C808 C813 1.353 . S
C808 H814 0.930 . S
N809 Li792 1.990 . S
N809 C808 1.314 . S
N809 C811 1.279 . S
C810 C811 1.358 . S
C810 C812 1.356 . S
C810 H864 0.930 . S
C811 N809 1.279 . S
C811 C810 1.358 . S
C811 H815 0.930 . S
C812 C810 1.356 . S
C812 C813 1.348 . S
C813 C808 1.353 . S
C813 C812 1.348 . S
C813 H865 0.929 . S
H814 C808 0.930 . S
H815 C811 0.930 . S
C816 N817 1.314 . S
C816 C818 1.353 . S
C816 H822 0.930 . S
N817 Li793 1.990 . S
N817 C816 1.314 . S
N817 C820 1.279 . S
C818 C816 1.353 . S
C818 C821 1.348 . S
C818 H866 0.929 . S
C819 C820 1.358 . S
C819 C821 1.356 . S
C819 H867 0.930 . S
C820 N817 1.279 . S
C820 C819 1.358 . S
C820 H823 0.930 . S
C821 C818 1.348 . S
C821 C819 1.356 . S
H822 C816 0.930 . S
H823 C820 0.930 . S
C824 C826 1.348 . S
C824 C827 1.356 . S
C824 O854 1.325 . S
N825 C828 1.314 . S
N825 C829 1.279 . S
C826 C824 1.348 . S
C826 C828 1.353 . S
C826 H868 0.929 . S
C827 C824 1.356 . S
C827 C829 1.358 . S
C827 H869 0.930 . S
C828 N825 1.314 . S
C828 C826 1.353 . S
C828 H870 0.930 . S
C829 N825 1.279 . S
C829 C827 1.358 . S
C829 H871 0.930 . S
C830 C831 1.348 . S
C830 C832 1.356 . S
C830 O855 1.325 . S
C831 C830 1.348 . S
C831 C833 1.353 . S
C831 H872 0.929 . S
C832 C830 1.356 . S
C832 C834 1.358 . S
C832 H873 0.930 . S
C833 C831 1.353 . S
C833 N835 1.314 . S
C833 H874 0.930 . S
C834 C832 1.358 . S
C834 N835 1.279 . S
C834 H875 0.930 . S
N835 C833 1.314 . S
N835 C834 1.279 . S
C836 C838 1.353 . S
C836 N839 1.314 . S
C836 H842 0.930 . S
C837 N839 1.279 . S
C837 C840 1.358 . S
C837 H843 0.930 . S
C838 C836 1.353 . S
C838 C841 1.348 . S
C838 H876 0.929 . S
N839 Li794 1.990 . S
N839 C836 1.314 . S
N839 C837 1.279 . S
C840 C837 1.358 . S
C840 C841 1.356 . S
C840 H877 0.930 . S
C841 C838 1.348 . S
C841 C840 1.356 . S
H842 C836 0.930 . S
H843 C837 0.930 . S
C844 N845 1.314 . S
C844 C846 1.353 . S
C844 H850 0.930 . S
N845 Li795 1.990 . S
N845 C844 1.314 . S
N845 C848 1.279 . S
C846 C844 1.353 . S
C846 C849 1.348 . S
C846 H878 0.929 . S
C847 C848 1.358 . S
C847 C849 1.356 . S
C847 H879 0.930 . S
C848 N845 1.279 . S
C848 C847 1.358 . S
C848 H851 0.930 . S
C849 C846 1.348 . S
C849 C847 1.356 . S
H850 C844 0.930 . S
H851 C848 0.930 . S
O852 Li792 1.956 . S
O852 Li793 1.970 . S
O852 Li794 1.961 . S
O852 C796 1.325 . S
O853 Li792 1.970 . S
O853 Li793 1.956 . S
O853 Li795 1.961 . S
O853 C802 1.325 . S
O854 Li792 1.961 . S
O854 Li794 1.956 . S
O854 Li795 1.970 . S
O854 C824 1.325 . S
O855 Li793 1.961 . S
O855 Li794 1.970 . S
O855 Li795 1.956 . S
O855 C830 1.325 . S
H856 C798 0.929 . S
H857 C799 0.930 . S
H858 C800 0.930 . S
H859 C801 0.930 . S
H860 C803 0.917 1_554 S
H861 C805 0.929 . S
H862 C806 0.930 . S
H863 C807 0.930 . S
H864 C810 0.930 . S
H865 C813 0.929 . S
H866 C818 0.929 . S
H867 C819 0.930 . S
H868 C826 0.929 . S
H869 C827 0.930 . S
H870 C828 0.930 . S
H871 C829 0.930 . S
H872 C831 0.929 . S
H873 C832 0.930 . S
H874 C833 0.930 . S
H875 C834 0.930 . S
H876 C838 0.929 . S
H877 C840 0.930 . S
H878 C846 0.929 . S
H879 C847 0.930 . S
Li880 N897 1.990 . S
Li880 O940 1.956 . S
Li880 O941 1.970 . S
Li880 O942 1.961 . S
Li881 N905 1.990 . S
Li881 O940 1.970 . S
Li881 O941 1.956 . S
Li881 O943 1.961 . S
Li882 N927 1.990 . S
Li882 O940 1.961 . S
Li882 O942 1.956 . S
Li882 O943 1.970 . S
Li883 N933 1.990 . S
Li883 O941 1.961 . S
Li883 O942 1.970 . S
Li883 O943 1.956 . S
C884 C886 1.348 . S
C884 C887 1.356 . S
C884 O940 1.325 . S
N885 C888 1.314 . S
N885 C889 1.279 . S
C886 C884 1.348 . S
C886 C888 1.353 . S
C886 H944 0.929 . S
C887 C884 1.356 . S
C887 C889 1.358 . S
C887 H945 0.930 . S
C888 N885 1.314 . S
C888 C886 1.353 . S
C888 H946 0.930 . S
C889 N885 1.279 . S
C889 C887 1.358 . S
C889 H947 0.930 . S
C890 C893 1.348 . S
C890 C894 1.356 . S
C890 O941 1.325 . S
C891 N892 1.279 . S
C891 C894 1.358 . S
C891 H948 0.930 . S
N892 C891 1.279 . S
N892 C895 1.314 . S
C893 C890 1.348 . S
C893 C895 1.353 . S
C893 H949 0.929 . S
C894 C890 1.356 . S
C894 C891 1.358 . S
C894 H950 0.930 . S
C895 N892 1.314 . S
C895 C893 1.353 . S
C895 H951 0.930 . S
C896 N897 1.314 . S
C896 C901 1.353 . S
C896 H902 0.930 . S
N897 Li880 1.990 . S
N897 C896 1.314 . S
N897 C899 1.279 . S
C898 C899 1.358 . S
C898 C900 1.356 . S
C898 H952 0.930 . S
C899 N897 1.279 . S
C899 C898 1.358 . S
C899 H903 0.930 . S
C900 C898 1.356 . S
C900 C901 1.348 . S
C901 C896 1.353 . S
C901 C900 1.348 . S
C901 H953 0.929 . S
H902 C896 0.930 . S
H903 C899 0.930 . S
C904 N905 1.314 . S
C904 C906 1.353 . S
C904 H910 0.930 . S
N905 Li881 1.990 . S
N905 C904 1.314 . S
N905 C908 1.279 . S
C906 C904 1.353 . S
C906 C909 1.348 . S
C906 H954 0.929 . S
C907 C908 1.358 . S
C907 C909 1.356 . S
C907 H955 0.930 . S
C908 N905 1.279 . S
C908 C907 1.358 . S
C908 H911 0.930 . S
C909 C906 1.348 . S
C909 C907 1.356 . S
H910 C904 0.930 . S
H911 C908 0.930 . S
C912 C914 1.348 . S
C912 C915 1.356 . S
C912 O942 1.325 . S
N913 C916 1.314 . S
N913 C917 1.279 . S
C914 C912 1.348 . S
C914 C916 1.353 . S
C914 H956 0.929 . S
C915 C912 1.356 . S
C915 C917 1.358 . S
C915 H957 0.930 . S
C916 N913 1.314 . S
C916 C914 1.353 . S
C916 H958 0.930 . S
C917 N913 1.279 . S
C917 C915 1.358 . S
C917 H959 0.930 . S
C918 C919 1.348 . S
C918 C920 1.356 . S
C918 O943 1.325 . S
C919 C918 1.348 . S
C919 C921 1.353 . S
C919 H960 0.929 . S
C920 C918 1.356 . S
C920 C922 1.379 . S
C920 H961 0.930 . S
C921 C919 1.353 . S
C921 N923 1.314 1_556 S
C921 H962 0.930 . S
C922 C920 1.379 . S
C922 N923 1.271 1_556 S
C922 H963 0.917 1_556 S
N923 C921 1.314 1_554 S
N923 C922 1.271 1_554 S
C924 C926 1.353 . S
C924 N927 1.314 . S
C924 H930 0.930 . S
C925 N927 1.279 . S
C925 C928 1.358 . S
C925 H931 0.930 . S
C926 C924 1.353 . S
C926 C929 1.348 . S
C926 H964 0.929 . S
N927 Li882 1.990 . S
N927 C924 1.314 . S
N927 C925 1.279 . S
C928 C925 1.358 . S
C928 C929 1.356 . S
C928 H965 0.930 . S
C929 C926 1.348 . S
C929 C928 1.356 . S
H930 C924 0.930 . S
H931 C925 0.930 . S
C932 N933 1.314 . S
C932 C934 1.353 . S
C932 H938 0.930 . S
N933 Li883 1.990 . S
N933 C932 1.314 . S
N933 C936 1.279 . S
C934 C932 1.353 . S
C934 C937 1.348 . S
C934 H966 0.929 . S
C935 C936 1.358 . S
C935 C937 1.356 . S
C935 H967 0.930 . S
C936 N933 1.279 . S
C936 C935 1.358 . S
C936 H939 0.930 . S
C937 C934 1.348 . S
C937 C935 1.356 . S
H938 C932 0.930 . S
H939 C936 0.930 . S
O940 Li880 1.956 . S
O940 Li881 1.970 . S
O940 Li882 1.961 . S
O940 C884 1.325 . S
O941 Li880 1.970 . S
O941 Li881 1.956 . S
O941 Li883 1.961 . S
O941 C890 1.325 . S
O942 Li880 1.961 . S
O942 Li882 1.956 . S
O942 Li883 1.970 . S
O942 C912 1.325 . S
O943 Li881 1.961 . S
O943 Li882 1.970 . S
O943 Li883 1.956 . S
O943 C918 1.325 . S
H944 C886 0.929 . S
H945 C887 0.930 . S
H946 C888 0.930 . S
H947 C889 0.930 . S
H948 C891 0.930 . S
H949 C893 0.929 . S
H950 C894 0.930 . S
H951 C895 0.930 . S
H952 C898 0.930 . S
H953 C901 0.929 . S
H954 C906 0.929 . S
H955 C907 0.930 . S
H956 C914 0.929 . S
H957 C915 0.930 . S
H958 C916 0.930 . S
H959 C917 0.930 . S
H960 C919 0.929 . S
H961 C920 0.930 . S
H962 C921 0.930 . S
H963 C922 0.917 1_554 S
H964 C926 0.929 . S
H965 C928 0.930 . S
H966 C934 0.929 . S
H967 C935 0.930 . S
Li968 N985 1.990 . S
Li968 O1028 1.956 . S
Li968 O1029 1.970 . S
Li968 O1030 1.961 . S
Li969 N993 1.990 . S
Li969 O1028 1.970 . S
Li969 O1029 1.956 . S
Li969 O1031 1.961 . S
Li970 N1015 1.990 . S
Li970 O1028 1.961 . S
Li970 O1030 1.956 . S
Li970 O1031 1.970 . S
Li971 N1021 1.990 . S
Li971 O1029 1.961 . S
Li971 O1030 1.970 . S
Li971 O1031 1.956 . S
C972 C974 1.348 . S
C972 C975 1.356 . S
C972 O1028 1.325 . S
N973 C976 1.314 . S
N973 C977 1.279 . S
C974 C972 1.348 . S
C974 C976 1.353 . S
C974 H1032 0.929 . S
C975 C972 1.356 . S
C975 C977 1.358 . S
C975 H1033 0.930 . S
C976 N973 1.314 . S
C976 C974 1.353 . S
C976 H1034 0.930 . S
C977 N973 1.279 . S
C977 C975 1.358 . S
C977 H1035 0.930 . S
C978 C981 1.348 . S
C978 C982 1.356 . S
C978 O1029 1.325 . S
C979 N980 1.271 1_556 S
C979 C982 1.379 . S
C979 H1036 0.917 1_556 S
N980 C979 1.271 1_554 S
N980 C983 1.314 1_554 S
C981 C978 1.348 . S
C981 C983 1.353 . S
C981 H1037 0.929 . S
C982 C978 1.356 . S
C982 C979 1.379 . S
C982 H1038 0.930 . S
C983 N980 1.314 1_556 S
C983 C981 1.353 . S
C983 H1039 0.930 . S
C984 N985 1.314 . S
C984 C989 1.353 . S
C984 H990 0.930 . S
N985 Li968 1.990 . S
N985 C984 1.314 . S
N985 C987 1.279 . S
C986 C987 1.358 . S
C986 C988 1.356 . S
C986 H1040 0.930 . S
C987 N985 1.279 . S
C987 C986 1.358 . S
C987 H991 0.930 . S
C988 C986 1.356 . S
C988 C989 1.348 . S
C989 C984 1.353 . S
C989 C988 1.348 . S
C989 H1041 0.929 . S
H990 C984 0.930 . S
H991 C987 0.930 . S
C992 N993 1.314 . S
C992 C994 1.353 . S
C992 H998 0.930 . S
N993 Li969 1.990 . S
N993 C992 1.314 . S
N993 C996 1.279 . S
C994 C992 1.353 . S
C994 C997 1.348 . S
C994 H1042 0.929 . S
C995 C996 1.358 . S
C995 C997 1.356 . S
C995 H1043 0.930 . S
C996 N993 1.279 . S
C996 C995 1.358 . S
C996 H999 0.930 . S
C997 C994 1.348 . S
C997 C995 1.356 . S
H998 C992 0.930 . S
H999 C996 0.930 . S
C1000 C1002 1.348 . S
C1000 C1003 1.356 . S
C1000 O1030 1.325 . S
N1001 C1004 1.314 . S
N1001 C1005 1.279 . S
C1002 C1000 1.348 . S
C1002 C1004 1.353 . S
C1002 H1044 0.929 . S
C1003 C1000 1.356 . S
C1003 C1005 1.358 . S
C1003 H1045 0.930 . S
C1004 N1001 1.314 . S
C1004 C1002 1.353 . S
C1004 H1046 0.930 . S
C1005 N1001 1.279 . S
C1005 C1003 1.358 . S
C1005 H1047 0.930 . S
C1006 C1007 1.348 . S
C1006 C1008 1.356 . S
C1006 O1031 1.325 . S
C1007 C1006 1.348 . S
C1007 C1009 1.353 . S
C1007 H1048 0.929 . S
C1008 C1006 1.356 . S
C1008 C1010 1.358 . S
C1008 H1049 0.930 . S
C1009 C1007 1.353 . S
C1009 N1011 1.314 . S
C1009 H1050 0.930 . S
C1010 C1008 1.358 . S
C1010 N1011 1.279 . S
C1010 H1051 0.930 . S
N1011 C1009 1.314 . S
N1011 C1010 1.279 . S
C1012 C1014 1.353 . S
C1012 N1015 1.314 . S
C1012 H1018 0.930 . S
C1013 N1015 1.279 . S
C1013 C1016 1.358 . S
C1013 H1019 0.930 . S
C1014 C1012 1.353 . S
C1014 C1017 1.348 . S
C1014 H1052 0.929 . S
N1015 Li970 1.990 . S
N1015 C1012 1.314 . S
N1015 C1013 1.279 . S
C1016 C1013 1.358 . S
C1016 C1017 1.356 . S
C1016 H1053 0.930 . S
C1017 C1014 1.348 . S
C1017 C1016 1.356 . S
H1018 C1012 0.930 . S
H1019 C1013 0.930 . S
C1020 N1021 1.314 . S
C1020 C1022 1.353 . S
C1020 H1026 0.930 . S
N1021 Li971 1.990 . S
N1021 C1020 1.314 . S
N1021 C1024 1.279 . S
C1022 C1020 1.353 . S
C1022 C1025 1.348 . S
C1022 H1054 0.929 . S
C1023 C1024 1.358 . S
C1023 C1025 1.356 . S
C1023 H1055 0.930 . S
C1024 N1021 1.279 . S
C1024 C1023 1.358 . S
C1024 H1027 0.930 . S
C1025 C1022 1.348 . S
C1025 C1023 1.356 . S
H1026 C1020 0.930 . S
H1027 C1024 0.930 . S
O1028 Li968 1.956 . S
O1028 Li969 1.970 . S
O1028 Li970 1.961 . S
O1028 C972 1.325 . S
O1029 Li968 1.970 . S
O1029 Li969 1.956 . S
O1029 Li971 1.961 . S
O1029 C978 1.325 . S
O1030 Li968 1.961 . S
O1030 Li970 1.956 . S
O1030 Li971 1.970 . S
O1030 C1000 1.325 . S
O1031 Li969 1.961 . S
O1031 Li970 1.970 . S
O1031 Li971 1.956 . S
O1031 C1006 1.325 . S
H1032 C974 0.929 . S
H1033 C975 0.930 . S
H1034 C976 0.930 . S
H1035 C977 0.930 . S
H1036 C979 0.917 1_554 S
H1037 C981 0.929 . S
H1038 C982 0.930 . S
H1039 C983 0.930 . S
H1040 C986 0.930 . S
H1041 C989 0.929 . S
H1042 C994 0.929 . S
H1043 C995 0.930 . S
H1044 C1002 0.929 . S
H1045 C1003 0.930 . S
H1046 C1004 0.930 . S
H1047 C1005 0.930 . S
H1048 C1007 0.929 . S
H1049 C1008 0.930 . S
H1050 C1009 0.930 . S
H1051 C1010 0.930 . S
H1052 C1014 0.929 . S
H1053 C1016 0.930 . S
H1054 C1022 0.929 . S
H1055 C1023 0.930 . S
Li1056 N1073 1.990 . S
Li1056 O1116 1.956 . S
Li1056 O1117 1.970 . S
Li1056 O1118 1.961 . S
Li1057 N1081 1.990 . S
Li1057 O1116 1.970 . S
Li1057 O1117 1.956 . S
Li1057 O1119 1.961 . S
Li1058 N1103 1.990 . S
Li1058 O1116 1.961 . S
Li1058 O1118 1.956 . S
Li1058 O1119 1.970 . S
Li1059 N1109 1.990 . S
Li1059 O1117 1.961 . S
Li1059 O1118 1.970 . S
Li1059 O1119 1.956 . S
C1060 C1062 1.348 . S
C1060 C1063 1.356 . S
C1060 O1116 1.325 . S
N1061 C1064 1.314 . S
N1061 C1065 1.279 . S
C1062 C1060 1.348 . S
C1062 C1064 1.353 . S
C1062 H1120 0.929 . S
C1063 C1060 1.356 . S
C1063 C1065 1.358 . S
C1063 H1121 0.930 . S
C1064 N1061 1.314 . S
C1064 C1062 1.353 . S
C1064 H1122 0.930 . S
C1065 N1061 1.279 . S
C1065 C1063 1.358 . S
C1065 H1123 0.930 . S
C1066 C1069 1.348 . S
C1066 C1070 1.356 . S
C1066 O1117 1.325 . S
C1067 N1068 1.279 . S
C1067 C1070 1.358 . S
C1067 H1124 0.930 . S
N1068 C1067 1.279 . S
N1068 C1071 1.314 . S
C1069 C1066 1.348 . S
C1069 C1071 1.353 . S
C1069 H1125 0.929 . S
C1070 C1066 1.356 . S
C1070 C1067 1.358 . S
C1070 H1126 0.930 . S
C1071 N1068 1.314 . S
C1071 C1069 1.353 . S
C1071 H1127 0.930 . S
C1072 N1073 1.314 . S
C1072 C1077 1.353 . S
C1072 H1078 0.930 . S
N1073 Li1056 1.990 . S
N1073 C1072 1.314 . S
N1073 C1075 1.279 . S
C1074 C1075 1.358 . S
C1074 C1076 1.356 . S
C1074 H1128 0.930 . S
C1075 N1073 1.279 . S
C1075 C1074 1.358 . S
C1075 H1079 0.930 . S
C1076 C1074 1.356 . S
C1076 C1077 1.348 . S
C1077 C1072 1.353 . S
C1077 C1076 1.348 . S
C1077 H1129 0.929 . S
H1078 C1072 0.930 . S
H1079 C1075 0.930 . S
C1080 N1081 1.314 . S
C1080 C1082 1.353 . S
C1080 H1086 0.930 . S
N1081 Li1057 1.990 . S
N1081 C1080 1.314 . S
N1081 C1084 1.279 . S
C1082 C1080 1.353 . S
C1082 C1085 1.348 . S
C1082 H1130 0.929 . S
C1083 C1084 1.358 . S
C1083 C1085 1.356 . S
C1083 H1131 0.930 . S
C1084 N1081 1.279 . S
C1084 C1083 1.358 . S
C1084 H1087 0.930 . S
C1085 C1082 1.348 . S
C1085 C1083 1.356 . S
H1086 C1080 0.930 . S
H1087 C1084 0.930 . S
C1088 C1090 1.348 . S
C1088 C1091 1.356 . S
C1088 O1118 1.325 . S
N1089 C1092 1.314 . S
N1089 C1093 1.279 . S
C1090 C1088 1.348 . S
C1090 C1092 1.353 . S
C1090 H1132 0.929 . S
C1091 C1088 1.356 . S
C1091 C1093 1.358 . S
C1091 H1133 0.930 . S
C1092 N1089 1.314 . S
C1092 C1090 1.353 . S
C1092 H1134 0.930 . S
C1093 N1089 1.279 . S
C1093 C1091 1.358 . S
C1093 H1135 0.930 . S
C1094 C1095 1.348 . S
C1094 C1096 1.356 . S
C1094 O1119 1.325 . S
C1095 C1094 1.348 . S
C1095 C1097 1.353 . S
C1095 H1136 0.929 . S
C1096 C1094 1.356 . S
C1096 C1098 1.358 . S
C1096 H1137 0.930 . S
C1097 C1095 1.353 . S
C1097 N1099 1.314 . S
C1097 H1138 0.930 . S
C1098 C1096 1.358 . S
C1098 N1099 1.279 . S
C1098 H1139 0.930 . S
N1099 C1097 1.314 . S
N1099 C1098 1.279 . S
C1100 C1102 1.353 . S
C1100 N1103 1.314 . S
C1100 H1106 0.930 . S
C1101 N1103 1.279 . S
C1101 C1104 1.358 . S
C1101 H1107 0.930 . S
C1102 C1100 1.353 . S
C1102 C1105 1.348 . S
C1102 H1140 0.929 . S
N1103 Li1058 1.990 . S
N1103 C1100 1.314 . S
N1103 C1101 1.279 . S
C1104 C1101 1.358 . S
C1104 C1105 1.356 . S
C1104 H1141 0.930 . S
C1105 C1102 1.348 . S
C1105 C1104 1.356 . S
H1106 C1100 0.930 . S
H1107 C1101 0.930 . S
C1108 N1109 1.314 . S
C1108 C1110 1.353 . S
C1108 H1114 0.930 . S
N1109 Li1059 1.990 . S
N1109 C1108 1.314 . S
N1109 C1112 1.279 . S
C1110 C1108 1.353 . S
C1110 C1113 1.348 . S
C1110 H1142 0.929 . S
C1111 C1112 1.358 . S
C1111 C1113 1.356 . S
C1111 H1143 0.930 . S
C1112 N1109 1.279 . S
C1112 C1111 1.358 . S
C1112 H1115 0.930 . S
C1113 C1110 1.348 . S
C1113 C1111 1.356 . S
H1114 C1108 0.930 . S
H1115 C1112 0.930 . S
O1116 Li1056 1.956 . S
O1116 Li1057 1.970 . S
O1116 Li1058 1.961 . S
O1116 C1060 1.325 . S
O1117 Li1056 1.970 . S
O1117 Li1057 1.956 . S
O1117 Li1059 1.961 . S
O1117 C1066 1.325 . S
O1118 Li1056 1.961 . S
O1118 Li1058 1.956 . S
O1118 Li1059 1.970 . S
O1118 C1088 1.325 . S
O1119 Li1057 1.961 . S
O1119 Li1058 1.970 . S
O1119 Li1059 1.956 . S
O1119 C1094 1.325 . S
H1120 C1062 0.929 . S
H1121 C1063 0.930 . S
H1122 C1064 0.930 . S
H1123 C1065 0.930 . S
H1124 C1067 0.930 . S
H1125 C1069 0.929 . S
H1126 C1070 0.930 . S
H1127 C1071 0.930 . S
H1128 C1074 0.930 . S
H1129 C1077 0.929 . S
H1130 C1082 0.929 . S
H1131 C1083 0.930 . S
H1132 C1090 0.929 . S
H1133 C1091 0.930 . S
H1134 C1092 0.930 . S
H1135 C1093 0.930 . S
H1136 C1095 0.929 . S
H1137 C1096 0.930 . S
H1138 C1097 0.930 . S
H1139 C1098 0.930 . S
H1140 C1102 0.929 . S
H1141 C1104 0.930 . S
H1142 C1110 0.929 . S
H1143 C1111 0.930 . S
Li1144 N1161 1.990 . S
Li1144 O1204 1.956 . S
Li1144 O1205 1.970 . S
Li1144 O1206 1.961 . S
Li1145 N1169 1.990 . S
Li1145 O1204 1.970 . S
Li1145 O1205 1.956 . S
Li1145 O1207 1.961 . S
Li1146 N1191 1.990 . S
Li1146 O1204 1.961 . S
Li1146 O1206 1.956 . S
Li1146 O1207 1.970 . S
Li1147 N1197 1.990 . S
Li1147 O1205 1.961 . S
Li1147 O1206 1.970 . S
Li1147 O1207 1.956 . S
C1148 C1150 1.348 . S
C1148 C1151 1.356 . S
C1148 O1204 1.325 . S
N1149 C1152 1.314 . S
N1149 C1153 1.279 . S
C1150 C1148 1.348 . S
C1150 C1152 1.353 . S
C1150 H1208 0.929 . S
C1151 C1148 1.356 . S
C1151 C1153 1.358 . S
C1151 H1209 0.930 . S
C1152 N1149 1.314 . S
C1152 C1150 1.353 . S
C1152 H1210 0.930 . S
C1153 N1149 1.279 . S
C1153 C1151 1.358 . S
C1153 H1211 0.930 . S
C1154 C1157 1.348 . S
C1154 C1158 1.356 . S
C1154 O1205 1.325 . S
C1155 N1156 1.279 . S
C1155 C1158 1.358 . S
C1155 H1212 0.930 . S
N1156 C1155 1.279 . S
N1156 C1159 1.314 . S
C1157 C1154 1.348 . S
C1157 C1159 1.353 . S
C1157 H1213 0.929 . S
C1158 C1154 1.356 . S
C1158 C1155 1.358 . S
C1158 H1214 0.930 . S
C1159 N1156 1.314 . S
C1159 C1157 1.353 . S
C1159 H1215 0.930 . S
C1160 N1161 1.314 . S
C1160 C1165 1.353 . S
C1160 H1166 0.930 . S
N1161 Li1144 1.990 . S
N1161 C1160 1.314 . S
N1161 C1163 1.279 . S
C1162 C1163 1.358 . S
C1162 C1164 1.356 . S
C1162 H1216 0.930 . S
C1163 N1161 1.279 . S
C1163 C1162 1.358 . S
C1163 H1167 0.930 . S
C1164 C1162 1.356 . S
C1164 C1165 1.348 . S
C1165 C1160 1.353 . S
C1165 C1164 1.348 . S
C1165 H1217 0.929 . S
H1166 C1160 0.930 . S
H1167 C1163 0.930 . S
C1168 N1169 1.314 . S
C1168 C1170 1.353 . S
C1168 H1174 0.930 . S
N1169 Li1145 1.990 . S
N1169 C1168 1.314 . S
N1169 C1172 1.279 . S
C1170 C1168 1.353 . S
C1170 C1173 1.348 . S
C1170 H1218 0.929 . S
C1171 C1172 1.358 . S
C1171 C1173 1.356 . S
C1171 H1219 0.930 . S
C1172 N1169 1.279 . S
C1172 C1171 1.358 . S
C1172 H1175 0.930 . S
C1173 C1170 1.348 . S
C1173 C1171 1.356 . S
H1174 C1168 0.930 . S
H1175 C1172 0.930 . S
C1176 C1178 1.348 . S
C1176 C1179 1.356 . S
C1176 O1206 1.325 . S
N1177 C1180 1.314 . S
N1177 C1181 1.279 . S
C1178 C1176 1.348 . S
C1178 C1180 1.353 . S
C1178 H1220 0.929 . S
C1179 C1176 1.356 . S
C1179 C1181 1.358 . S
C1179 H1221 0.930 . S
C1180 N1177 1.314 . S
C1180 C1178 1.353 . S
C1180 H1222 0.930 . S
C1181 N1177 1.279 . S
C1181 C1179 1.358 . S
C1181 H1223 0.930 . S
C1182 C1183 1.348 . S
C1182 C1184 1.356 . S
C1182 O1207 1.325 . S
C1183 C1182 1.348 . S
C1183 C1185 1.353 . S
C1183 H1224 0.929 . S
C1184 C1182 1.356 . S
C1184 C1186 1.358 . S
C1184 H1225 0.930 . S
C1185 C1183 1.353 . S
C1185 N1187 1.314 . S
C1185 H1226 0.930 . S
C1186 C1184 1.358 . S
C1186 N1187 1.279 . S
C1186 H1227 0.930 . S
N1187 C1185 1.314 . S
N1187 C1186 1.279 . S
C1188 C1190 1.353 . S
C1188 N1191 1.314 . S
C1188 H1194 0.930 . S
C1189 N1191 1.279 . S
C1189 C1192 1.358 . S
C1189 H1195 0.930 . S
C1190 C1188 1.353 . S
C1190 C1193 1.348 . S
C1190 H1228 0.929 . S
N1191 Li1146 1.990 . S
N1191 C1188 1.314 . S
N1191 C1189 1.279 . S
C1192 C1189 1.358 . S
C1192 C1193 1.356 . S
C1192 H1229 0.930 . S
C1193 C1190 1.348 . S
C1193 C1192 1.356 . S
H1194 C1188 0.930 . S
H1195 C1189 0.930 . S
C1196 N1197 1.314 . S
C1196 C1198 1.353 . S
C1196 H1202 0.930 . S
N1197 Li1147 1.990 . S
N1197 C1196 1.314 . S
N1197 C1200 1.279 . S
C1198 C1196 1.353 . S
C1198 C1201 1.348 . S
C1198 H1230 0.929 . S
C1199 C1200 1.358 . S
C1199 C1201 1.356 . S
C1199 H1231 0.930 . S
C1200 N1197 1.279 . S
C1200 C1199 1.358 . S
C1200 H1203 0.930 . S
C1201 C1198 1.348 . S
C1201 C1199 1.356 . S
H1202 C1196 0.930 . S
H1203 C1200 0.930 . S
O1204 Li1144 1.956 . S
O1204 Li1145 1.970 . S
O1204 Li1146 1.961 . S
O1204 C1148 1.325 . S
O1205 Li1144 1.970 . S
O1205 Li1145 1.956 . S
O1205 Li1147 1.961 . S
O1205 C1154 1.325 . S
O1206 Li1144 1.961 . S
O1206 Li1146 1.956 . S
O1206 Li1147 1.970 . S
O1206 C1176 1.325 . S
O1207 Li1145 1.961 . S
O1207 Li1146 1.970 . S
O1207 Li1147 1.956 . S
O1207 C1182 1.325 . S
H1208 C1150 0.929 . S
H1209 C1151 0.930 . S
H1210 C1152 0.930 . S
H1211 C1153 0.930 . S
H1212 C1155 0.930 . S
H1213 C1157 0.929 . S
H1214 C1158 0.930 . S
H1215 C1159 0.930 . S
H1216 C1162 0.930 . S
H1217 C1165 0.929 . S
H1218 C1170 0.929 . S
H1219 C1171 0.930 . S
H1220 C1178 0.929 . S
H1221 C1179 0.930 . S
H1222 C1180 0.930 . S
H1223 C1181 0.930 . S
H1224 C1183 0.929 . S
H1225 C1184 0.930 . S
H1226 C1185 0.930 . S
H1227 C1186 0.930 . S
H1228 C1190 0.929 . S
H1229 C1192 0.930 . S
H1230 C1198 0.929 . S
H1231 C1199 0.930 . S
Li1232 N1249 1.990 . S
Li1232 O1292 1.956 . S
Li1232 O1293 1.970 . S
Li1232 O1294 1.961 . S
Li1233 N1257 1.990 . S
Li1233 O1292 1.970 . S
Li1233 O1293 1.956 . S
Li1233 O1295 1.961 . S
Li1234 N1279 1.990 . S
Li1234 O1292 1.961 . S
Li1234 O1294 1.956 . S
Li1234 O1295 1.970 . S
Li1235 N1285 1.990 . S
Li1235 O1293 1.961 . S
Li1235 O1294 1.970 . S
Li1235 O1295 1.956 . S
C1236 C1238 1.348 . S
C1236 C1239 1.356 . S
C1236 O1292 1.325 . S
N1237 C1240 1.314 . S
N1237 C1241 1.279 . S
C1238 C1236 1.348 . S
C1238 C1240 1.353 . S
C1238 H1296 0.929 . S
C1239 C1236 1.356 . S
C1239 C1241 1.358 . S
C1239 H1297 0.930 . S
C1240 N1237 1.314 . S
C1240 C1238 1.353 . S
C1240 H1298 0.930 . S
C1241 N1237 1.279 . S
C1241 C1239 1.358 . S
C1241 H1299 0.930 . S
C1242 C1245 1.348 . S
C1242 C1246 1.356 . S
C1242 O1293 1.325 . S
C1243 N1244 1.279 . S
C1243 C1246 1.358 . S
C1243 H1300 0.930 . S
N1244 C1243 1.279 . S
N1244 C1247 1.314 . S
C1245 C1242 1.348 . S
C1245 C1247 1.353 . S
C1245 H1301 0.929 . S
C1246 C1242 1.356 . S
C1246 C1243 1.358 . S
C1246 H1302 0.930 . S
C1247 N1244 1.314 . S
C1247 C1245 1.353 . S
C1247 H1303 0.930 . S
C1248 N1249 1.314 . S
C1248 C1253 1.353 . S
C1248 H1254 0.930 . S
N1249 Li1232 1.990 . S
N1249 C1248 1.314 . S
N1249 C1251 1.279 . S
C1250 C1251 1.358 . S
C1250 C1252 1.356 . S
C1250 H1304 0.930 . S
C1251 N1249 1.279 . S
C1251 C1250 1.358 . S
C1251 H1255 0.930 . S
C1252 C1250 1.356 . S
C1252 C1253 1.348 . S
C1253 C1248 1.353 . S
C1253 C1252 1.348 . S
C1253 H1305 0.929 . S
H1254 C1248 0.930 . S
H1255 C1251 0.930 . S
C1256 N1257 1.314 . S
C1256 C1258 1.353 . S
C1256 H1262 0.930 . S
N1257 Li1233 1.990 . S
N1257 C1256 1.314 . S
N1257 C1260 1.279 . S
C1258 C1256 1.353 . S
C1258 C1261 1.348 . S
C1258 H1306 0.929 . S
C1259 C1260 1.358 . S
C1259 C1261 1.356 . S
C1259 H1307 0.930 . S
C1260 N1257 1.279 . S
C1260 C1259 1.358 . S
C1260 H1263 0.930 . S
C1261 C1258 1.348 . S
C1261 C1259 1.356 . S
H1262 C1256 0.930 . S
H1263 C1260 0.930 . S
C1264 C1266 1.348 . S
C1264 C1267 1.356 . S
C1264 O1294 1.325 . S
N1265 C1268 1.314 . S
N1265 C1269 1.279 . S
C1266 C1264 1.348 . S
C1266 C1268 1.353 . S
C1266 H1308 0.929 . S
C1267 C1264 1.356 . S
C1267 C1269 1.358 . S
C1267 H1309 0.930 . S
C1268 N1265 1.314 . S
C1268 C1266 1.353 . S
C1268 H1310 0.930 . S
C1269 N1265 1.279 . S
C1269 C1267 1.358 . S
C1269 H1311 0.930 . S
C1270 C1271 1.348 . S
C1270 C1272 1.356 . S
C1270 O1295 1.325 . S
C1271 C1270 1.348 . S
C1271 C1273 1.353 . S
C1271 H1312 0.929 . S
C1272 C1270 1.356 . S
C1272 C1274 1.358 . S
C1272 H1313 0.930 . S
C1273 C1271 1.353 . S
C1273 N1275 1.314 . S
C1273 H1314 0.930 . S
C1274 C1272 1.358 . S
C1274 N1275 1.279 . S
C1274 H1315 0.930 . S
N1275 C1273 1.314 . S
N1275 C1274 1.279 . S
C1276 C1278 1.353 . S
C1276 N1279 1.314 . S
C1276 H1282 0.930 . S
C1277 N1279 1.279 . S
C1277 C1280 1.358 . S
C1277 H1283 0.930 . S
C1278 C1276 1.353 . S
C1278 C1281 1.348 . S
C1278 H1316 0.929 . S
N1279 Li1234 1.990 . S
N1279 C1276 1.314 . S
N1279 C1277 1.279 . S
C1280 C1277 1.358 . S
C1280 C1281 1.356 . S
C1280 H1317 0.930 . S
C1281 C1278 1.348 . S
C1281 C1280 1.356 . S
H1282 C1276 0.930 . S
H1283 C1277 0.930 . S
C1284 N1285 1.314 . S
C1284 C1286 1.353 . S
C1284 H1290 0.930 . S
N1285 Li1235 1.990 . S
N1285 C1284 1.314 . S
N1285 C1288 1.279 . S
C1286 C1284 1.353 . S
C1286 C1289 1.348 . S
C1286 H1318 0.929 . S
C1287 C1288 1.358 . S
C1287 C1289 1.356 . S
C1287 H1319 0.930 . S
C1288 N1285 1.279 . S
C1288 C1287 1.358 . S
C1288 H1291 0.930 . S
C1289 C1286 1.348 . S
C1289 C1287 1.356 . S
H1290 C1284 0.930 . S
H1291 C1288 0.930 . S
O1292 Li1232 1.956 . S
O1292 Li1233 1.970 . S
O1292 Li1234 1.961 . S
O1292 C1236 1.325 . S
O1293 Li1232 1.970 . S
O1293 Li1233 1.956 . S
O1293 Li1235 1.961 . S
O1293 C1242 1.325 . S
O1294 Li1232 1.961 . S
O1294 Li1234 1.956 . S
O1294 Li1235 1.970 . S
O1294 C1264 1.325 . S
O1295 Li1233 1.961 . S
O1295 Li1234 1.970 . S
O1295 Li1235 1.956 . S
O1295 C1270 1.325 . S
H1296 C1238 0.929 . S
H1297 C1239 0.930 . S
H1298 C1240 0.930 . S
H1299 C1241 0.930 . S
H1300 C1243 0.930 . S
H1301 C1245 0.929 . S
H1302 C1246 0.930 . S
H1303 C1247 0.930 . S
H1304 C1250 0.930 . S
H1305 C1253 0.929 . S
H1306 C1258 0.929 . S
H1307 C1259 0.930 . S
H1308 C1266 0.929 . S
H1309 C1267 0.930 . S
H1310 C1268 0.930 . S
H1311 C1269 0.930 . S
H1312 C1271 0.929 . S
H1313 C1272 0.930 . S
H1314 C1273 0.930 . S
H1315 C1274 0.930 . S
H1316 C1278 0.929 . S
H1317 C1280 0.930 . S
H1318 C1286 0.929 . S
H1319 C1287 0.930 . S
Li1320 N1337 1.990 . S
Li1320 O1380 1.956 . S
Li1320 O1381 1.970 . S
Li1320 O1382 1.961 . S
Li1321 N1345 1.990 . S
Li1321 O1380 1.970 . S
Li1321 O1381 1.956 . S
Li1321 O1383 1.961 . S
Li1322 N1367 1.990 . S
Li1322 O1380 1.961 . S
Li1322 O1382 1.956 . S
Li1322 O1383 1.970 . S
Li1323 N1373 1.990 . S
Li1323 O1381 1.961 . S
Li1323 O1382 1.970 . S
Li1323 O1383 1.956 . S
C1324 C1326 1.348 . S
C1324 C1327 1.356 . S
C1324 O1380 1.325 . S
N1325 C1328 1.314 . S
N1325 C1329 1.279 . S
C1326 C1324 1.348 . S
C1326 C1328 1.353 . S
C1326 H1384 0.929 . S
C1327 C1324 1.356 . S
C1327 C1329 1.358 . S
C1327 H1385 0.930 . S
C1328 N1325 1.314 . S
C1328 C1326 1.353 . S
C1328 H1386 0.930 . S
C1329 N1325 1.279 . S
C1329 C1327 1.358 . S
C1329 H1387 0.930 . S
C1330 C1333 1.348 . S
C1330 C1334 1.356 . S
C1330 O1381 1.325 . S
C1331 N1332 1.279 . S
C1331 C1334 1.358 . S
C1331 H1388 0.930 . S
N1332 C1331 1.279 . S
N1332 C1335 1.314 . S
C1333 C1330 1.348 . S
C1333 C1335 1.353 . S
C1333 H1389 0.929 . S
C1334 C1330 1.356 . S
C1334 C1331 1.358 . S
C1334 H1390 0.930 . S
C1335 N1332 1.314 . S
C1335 C1333 1.353 . S
C1335 H1391 0.930 . S
C1336 N1337 1.314 . S
C1336 C1341 1.353 . S
C1336 H1342 0.930 . S
N1337 Li1320 1.990 . S
N1337 C1336 1.314 . S
N1337 C1339 1.279 . S
C1338 C1339 1.358 . S
C1338 C1340 1.356 . S
C1338 H1392 0.930 . S
C1339 N1337 1.279 . S
C1339 C1338 1.358 . S
C1339 H1343 0.930 . S
C1340 C1338 1.356 . S
C1340 C1341 1.348 . S
C1341 C1336 1.353 . S
C1341 C1340 1.348 . S
C1341 H1393 0.929 . S
H1342 C1336 0.930 . S
H1343 C1339 0.930 . S
C1344 N1345 1.314 . S
C1344 C1346 1.353 . S
C1344 H1350 0.930 . S
N1345 Li1321 1.990 . S
N1345 C1344 1.314 . S
N1345 C1348 1.279 . S
C1346 C1344 1.353 . S
C1346 C1349 1.348 . S
C1346 H1394 0.929 . S
C1347 C1348 1.358 . S
C1347 C1349 1.356 . S
C1347 H1395 0.930 . S
C1348 N1345 1.279 . S
C1348 C1347 1.358 . S
C1348 H1351 0.930 . S
C1349 C1346 1.348 . S
C1349 C1347 1.356 . S
H1350 C1344 0.930 . S
H1351 C1348 0.930 . S
C1352 C1354 1.348 . S
C1352 C1355 1.356 . S
C1352 O1382 1.325 . S
N1353 C1356 1.314 . S
N1353 C1357 1.279 . S
C1354 C1352 1.348 . S
C1354 C1356 1.353 . S
C1354 H1396 0.929 . S
C1355 C1352 1.356 . S
C1355 C1357 1.358 . S
C1355 H1397 0.930 . S
C1356 N1353 1.314 . S
C1356 C1354 1.353 . S
C1356 H1398 0.930 . S
C1357 N1353 1.279 . S
C1357 C1355 1.358 . S
C1357 H1399 0.930 . S
C1358 C1359 1.348 . S
C1358 C1360 1.356 . S
C1358 O1383 1.325 . S
C1359 C1358 1.348 . S
C1359 C1361 1.353 . S
C1359 H1400 0.929 . S
C1360 C1358 1.356 . S
C1360 C1362 1.358 . S
C1360 H1401 0.930 . S
C1361 C1359 1.353 . S
C1361 N1363 1.314 . S
C1361 H1402 0.930 . S
C1362 C1360 1.358 . S
C1362 N1363 1.279 . S
C1362 H1403 0.930 . S
N1363 C1361 1.314 . S
N1363 C1362 1.279 . S
C1364 C1366 1.353 . S
C1364 N1367 1.314 . S
C1364 H1370 0.930 . S
C1365 N1367 1.279 . S
C1365 C1368 1.358 . S
C1365 H1371 0.930 . S
C1366 C1364 1.353 . S
C1366 C1369 1.348 . S
C1366 H1404 0.929 . S
N1367 Li1322 1.990 . S
N1367 C1364 1.314 . S
N1367 C1365 1.279 . S
C1368 C1365 1.358 . S
C1368 C1369 1.356 . S
C1368 H1405 0.930 . S
C1369 C1366 1.348 . S
C1369 C1368 1.356 . S
H1370 C1364 0.930 . S
H1371 C1365 0.930 . S
C1372 N1373 1.314 . S
C1372 C1374 1.353 . S
C1372 H1378 0.930 . S
N1373 Li1323 1.990 . S
N1373 C1372 1.314 . S
N1373 C1376 1.279 . S
C1374 C1372 1.353 . S
C1374 C1377 1.348 . S
C1374 H1406 0.929 . S
C1375 C1376 1.358 . S
C1375 C1377 1.356 . S
C1375 H1407 0.930 . S
C1376 N1373 1.279 . S
C1376 C1375 1.358 . S
C1376 H1379 0.930 . S
C1377 C1374 1.348 . S
C1377 C1375 1.356 . S
H1378 C1372 0.930 . S
H1379 C1376 0.930 . S
O1380 Li1320 1.956 . S
O1380 Li1321 1.970 . S
O1380 Li1322 1.961 . S
O1380 C1324 1.325 . S
O1381 Li1320 1.970 . S
O1381 Li1321 1.956 . S
O1381 Li1323 1.961 . S
O1381 C1330 1.325 . S
O1382 Li1320 1.961 . S
O1382 Li1322 1.956 . S
O1382 Li1323 1.970 . S
O1382 C1352 1.325 . S
O1383 Li1321 1.961 . S
O1383 Li1322 1.970 . S
O1383 Li1323 1.956 . S
O1383 C1358 1.325 . S
H1384 C1326 0.929 . S
H1385 C1327 0.930 . S
H1386 C1328 0.930 . S
H1387 C1329 0.930 . S
H1388 C1331 0.930 . S
H1389 C1333 0.929 . S
H1390 C1334 0.930 . S
H1391 C1335 0.930 . S
H1392 C1338 0.930 . S
H1393 C1341 0.929 . S
H1394 C1346 0.929 . S
H1395 C1347 0.930 . S
H1396 C1354 0.929 . S
H1397 C1355 0.930 . S
H1398 C1356 0.930 . S
H1399 C1357 0.930 . S
H1400 C1359 0.929 . S
H1401 C1360 0.930 . S
H1402 C1361 0.930 . S
H1403 C1362 0.930 . S
H1404 C1366 0.929 . S
H1405 C1368 0.930 . S
H1406 C1374 0.929 . S
H1407 C1375 0.930 . S
H1408 C1426 0.951 . S
H1409 C1428 0.935 1_556 S
H1410 C1430 0.950 . S
H1411 C1431 0.950 . S
H1412 C1433 0.917 1_554 S
H1413 C1436 0.950 . S
H1414 C1437 0.950 . S
H1415 C1439 0.950 . S
H1416 C1440 0.950 . S
H1417 C1441 0.951 . S
H1418 C1443 0.951 . S
H1419 C1445 0.950 . S
H1420 C1446 0.950 . S
H1421 C1448 0.950 . S
H1422 C1451 0.950 1_556 S
H1423 C1452 0.950 . S
H1424 C1454 0.950 . S
H1425 C1455 0.950 . S
C1426 H1408 0.951 . S
C1426 C1427 1.366 . S
C1426 C1428 1.388 . S
C1427 C1426 1.366 . S
C1427 C1431 1.385 . S
C1428 H1409 0.935 1_554 S
C1428 C1426 1.388 . S
C1428 C1429 1.366 . S
C1429 C1428 1.366 . S
C1429 C1430 1.414 . S
C1429 C1432 1.499 1_554 S
C1430 H1410 0.950 . S
C1430 C1429 1.414 . S
C1430 C1431 1.374 . S
C1431 H1411 0.950 . S
C1431 C1427 1.385 . S
C1431 C1430 1.374 . S
C1432 C1429 1.499 1_556 S
C1432 C1433 1.388 . S
C1432 C1434 1.389 . S
C1433 H1412 0.917 1_556 S
C1433 C1432 1.388 . S
C1433 C1449 1.395 . S
C1434 C1432 1.389 . S
C1434 C1435 1.524 . S
C1434 C1448 1.377 . S
C1435 C1434 1.524 . S
C1435 C1436 1.397 . S
C1435 C1440 1.363 . S
C1436 H1413 0.950 . S
C1436 C1435 1.397 . S
C1436 C1437 1.334 . S
C1437 H1414 0.950 . S
C1437 C1436 1.334 . S
C1437 C1438 1.287 . S
C1438 C1437 1.287 . S
C1438 C1439 1.524 . S
C1438 H1457 0.913 . S
C1439 H1415 0.950 . S
C1439 C1438 1.524 . S
C1439 C1440 1.415 . S
C1440 H1416 0.950 . S
C1440 C1435 1.363 . S
C1440 C1439 1.415 . S
C1441 H1417 0.951 . S
C1441 C1442 1.366 . S
C1441 C1443 1.388 . S
C1442 C1441 1.366 . S
C1442 C1446 1.385 . S
C1443 H1418 0.951 . S
C1443 C1441 1.388 . S
C1443 C1444 1.366 . S
C1444 C1443 1.366 . S
C1444 C1445 1.414 . S
C1444 C1447 1.499 . S
C1445 H1419 0.950 . S
C1445 C1444 1.414 . S
C1445 C1446 1.374 . S
C1446 H1420 0.950 . S
C1446 C1442 1.385 . S
C1446 C1445 1.374 . S
C1447 C1444 1.499 . S
C1447 C1448 1.373 . S
C1447 C1449 1.389 . S
C1448 H1421 0.950 . S
C1448 C1434 1.377 . S
C1448 C1447 1.373 . S
C1449 C1433 1.395 . S
C1449 C1447 1.389 . S
C1449 C1450 1.518 1_556 S
C1450 C1449 1.518 1_554 S
C1450 C1451 1.398 . S
C1450 C1455 1.369 . S
C1451 H1422 0.950 1_554 S
C1451 C1450 1.398 . S
C1451 C1452 1.334 . S
C1452 H1423 0.950 . S
C1452 C1451 1.334 . S
C1452 C1453 1.287 . S
C1453 C1452 1.287 . S
C1453 C1454 1.524 . S
C1453 H1456 0.999 . S
C1454 H1424 0.950 . S
C1454 C1453 1.524 . S
C1454 C1455 1.415 . S
C1455 H1425 0.950 . S
C1455 C1450 1.369 . S
C1455 C1454 1.415 . S
H1456 C1453 0.999 . S
H1457 C1438 0.913 . S
H1458 C1476 0.951 . S
H1459 C1478 0.951 . S
H1460 C1480 0.950 . S
H1461 C1481 0.950 . S
H1462 C1483 0.950 . S
H1463 C1486 0.950 . S
H1464 C1487 0.950 . S
H1465 C1489 0.950 . S
H1466 C1490 0.950 . S
H1467 C1491 0.951 . S
H1468 C1493 0.951 . S
H1469 C1495 0.950 . S
H1470 C1496 0.949 . S
H1471 C1498 0.950 . S
H1472 C1501 0.950 . S
H1473 C1502 0.950 . S
H1474 C1504 0.950 . S
H1475 C1505 0.950 . S
C1476 H1458 0.951 . S
C1476 C1477 1.366 . S
C1476 C1478 1.388 . S
C1477 C1476 1.366 . S
C1477 C1481 1.385 . S
C1478 H1459 0.951 . S
C1478 C1476 1.388 . S
C1478 C1479 1.366 . S
C1479 C1478 1.366 . S
C1479 C1480 1.414 . S
C1479 C1482 1.499 . S
C1480 H1460 0.950 . S
C1480 C1479 1.414 . S
C1480 C1481 1.374 . S
C1481 H1461 0.950 . S
C1481 C1477 1.385 . S
C1481 C1480 1.374 . S
C1482 C1479 1.499 . S
C1482 C1483 1.373 . S
C1482 C1484 1.389 . S
C1483 H1462 0.950 . S
C1483 C1482 1.373 . S
C1483 C1499 1.377 . S
C1484 C1482 1.389 . S
C1484 C1485 1.524 . S
C1484 C1498 1.377 . S
C1485 C1484 1.524 . S
C1485 C1486 1.397 . S
C1485 C1490 1.363 . S
C1486 H1463 0.950 . S
C1486 C1485 1.397 . S
C1486 C1487 1.334 . S
C1487 H1464 0.950 . S
C1487 C1486 1.334 . S
C1487 C1488 1.287 . S
C1488 C1487 1.287 . S
C1488 C1489 1.524 . S
C1488 H1507 0.913 . S
C1489 H1465 0.950 . S
C1489 C1488 1.524 . S
C1489 C1490 1.415 . S
C1490 H1466 0.950 . S
C1490 C1485 1.363 . S
C1490 C1489 1.415 . S
C1491 H1467 0.951 . S
C1491 C1492 1.366 . S
C1491 C1493 1.388 . S
C1492 C1491 1.366 . S
C1492 C1496 1.385 . S
C1493 H1468 0.951 . S
C1493 C1491 1.388 . S
C1493 C1494 1.366 . S
C1494 C1493 1.366 . S
C1494 C1495 1.414 1_554 S
C1494 C1497 1.499 1_554 S
C1495 H1469 0.950 . S
C1495 C1494 1.414 1_556 S
C1495 C1496 1.374 1_556 S
C1496 H1470 0.949 . S
C1496 C1492 1.385 . S
C1496 C1495 1.374 1_554 S
C1497 C1494 1.499 1_556 S
C1497 C1498 1.373 . S
C1497 C1499 1.389 . S
C1498 H1471 0.950 . S
C1498 C1484 1.377 . S
C1498 C1497 1.373 . S
C1499 C1483 1.377 . S
C1499 C1497 1.389 . S
C1499 C1500 1.524 1_556 S
C1500 C1499 1.524 1_554 S
C1500 C1501 1.397 . S
C1500 C1505 1.363 . S
C1501 H1472 0.950 . S
C1501 C1500 1.397 . S
C1501 C1502 1.334 . S
C1502 H1473 0.950 . S
C1502 C1501 1.334 . S
C1502 C1503 1.287 . S
C1503 C1502 1.287 . S
C1503 C1504 1.524 . S
C1503 H1506 0.999 . S
C1504 H1474 0.950 . S
C1504 C1503 1.524 . S
C1504 C1505 1.415 . S
C1505 H1475 0.950 . S
C1505 C1500 1.363 . S
C1505 C1504 1.415 . S
H1506 C1503 0.999 . S
H1507 C1488 0.913 . S
H1508 C1526 0.951 . S
H1509 C1528 0.951 . S
H1510 C1530 0.950 . S
H1511 C1531 0.950 . S
H1512 C1533 0.950 . S
H1513 C1536 0.950 . S
H1514 C1537 0.950 . S
H1515 C1539 0.950 . S
H1516 C1540 0.950 . S
H1517 C1541 0.951 . S
H1518 C1543 0.941 1_556 S
H1519 C1545 0.950 . S
H1520 C1546 0.950 . S
H1521 C1548 0.950 . S
H1522 C1551 0.950 . S
H1523 C1552 0.950 . S
H1524 C1554 0.950 . S
H1525 C1555 0.950 1_556 S
C1526 H1508 0.951 . S
C1526 C1527 1.366 . S
C1526 C1528 1.388 . S
C1527 C1526 1.366 . S
C1527 C1531 1.385 . S
C1528 H1509 0.951 . S
C1528 C1526 1.388 . S
C1528 C1529 1.366 . S
C1529 C1528 1.366 . S
C1529 C1530 1.414 . S
C1529 C1532 1.499 . S
C1530 H1510 0.950 . S
C1530 C1529 1.414 . S
C1530 C1531 1.374 . S
C1531 H1511 0.950 . S
C1531 C1527 1.385 . S
C1531 C1530 1.374 . S
C1532 C1529 1.499 . S
C1532 C1533 1.373 . S
C1532 C1534 1.389 . S
C1533 H1512 0.950 . S
C1533 C1532 1.373 . S
C1533 C1549 1.377 . S
C1534 C1532 1.389 . S
C1534 C1535 1.524 . S
C1534 C1548 1.377 . S
C1535 C1534 1.524 . S
C1535 C1536 1.397 . S
C1535 C1540 1.363 . S
C1536 H1513 0.950 . S
C1536 C1535 1.397 . S
C1536 C1537 1.334 . S
C1537 H1514 0.950 . S
C1537 C1536 1.334 . S
C1537 C1538 1.287 . S
C1538 C1537 1.287 . S
C1538 C1539 1.524 . S
C1538 H1557 0.913 . S
C1539 H1515 0.950 . S
C1539 C1538 1.524 . S
C1539 C1540 1.415 . S
C1540 H1516 0.950 . S
C1540 C1535 1.363 . S
C1540 C1539 1.415 . S
C1541 H1517 0.951 . S
C1541 C1542 1.366 . S
C1541 C1543 1.388 . S
C1542 C1541 1.366 . S
C1542 C1546 1.385 . S
C1543 H1518 0.941 1_554 S
C1543 C1541 1.388 . S
C1543 C1544 1.366 . S
C1544 C1543 1.366 . S
C1544 C1545 1.414 . S
C1544 C1547 1.499 1_554 S
C1545 H1519 0.950 . S
C1545 C1544 1.414 . S
C1545 C1546 1.374 . S
C1546 H1520 0.950 . S
C1546 C1542 1.385 . S
C1546 C1545 1.374 . S
C1547 C1544 1.499 1_556 S
C1547 C1548 1.373 . S
C1547 C1549 1.389 . S
C1548 H1521 0.950 . S
C1548 C1534 1.377 . S
C1548 C1547 1.373 . S
C1549 C1533 1.377 . S
C1549 C1547 1.389 . S
C1549 C1550 1.524 1_556 S
C1550 C1549 1.524 1_554 S
C1550 C1551 1.397 . S
C1550 C1555 1.363 . S
C1551 H1522 0.950 . S
C1551 C1550 1.397 . S
C1551 C1552 1.334 . S
C1552 H1523 0.950 . S
C1552 C1551 1.334 . S
C1552 C1553 1.287 . S
C1553 C1552 1.287 . S
C1553 C1554 1.524 . S
C1553 H1556 0.999 . S
C1554 H1524 0.950 . S
C1554 C1553 1.524 . S
C1554 C1555 1.415 . S
C1555 H1525 0.950 1_554 S
C1555 C1550 1.363 . S
C1555 C1554 1.415 . S
H1556 C1553 0.999 . S
H1557 C1538 0.913 . S
H1558 C1576 0.951 . S
H1559 C1578 0.951 . S
H1560 C1580 0.950 . S
H1561 C1581 0.950 . S
H1562 C1583 0.950 . S
H1563 C1586 0.950 . S
H1564 C1587 0.950 . S
H1565 C1589 0.950 . S
H1566 C1590 0.950 . S
H1567 C1591 0.951 . S
H1568 C1593 0.951 . S
H1569 C1595 0.950 . S
H1570 C1596 0.950 . S
H1571 C1598 0.950 . S
H1572 C1601 0.950 . S
H1573 C1602 0.950 . S
H1574 C1604 0.950 . S
H1575 C1605 0.950 1_554 S
C1576 H1558 0.951 . S
C1576 C1577 1.366 . S
C1576 C1578 1.388 . S
C1577 C1576 1.366 . S
C1577 C1581 1.385 . S
C1578 H1559 0.951 . S
C1578 C1576 1.388 . S
C1578 C1579 1.366 . S
C1579 C1578 1.366 . S
C1579 C1580 1.414 . S
C1579 C1582 1.499 . S
C1580 H1560 0.950 . S
C1580 C1579 1.414 . S
C1580 C1581 1.374 . S
C1581 H1561 0.950 . S
C1581 C1577 1.385 . S
C1581 C1580 1.374 . S
C1582 C1579 1.499 . S
C1582 C1583 1.373 . S
C1582 C1584 1.389 . S
C1583 H1562 0.950 . S
C1583 C1582 1.373 . S
C1583 C1599 1.377 . S
C1584 C1582 1.389 . S
C1584 C1585 1.524 . S
C1584 C1598 1.377 . S
C1585 C1584 1.524 . S
C1585 C1586 1.397 . S
C1585 C1590 1.363 . S
C1586 H1563 0.950 . S
C1586 C1585 1.397 . S
C1586 C1587 1.334 . S
C1587 H1564 0.950 . S
C1587 C1586 1.334 . S
C1587 C1588 1.287 . S
C1588 C1587 1.287 . S
C1588 C1589 1.524 . S
C1588 H1607 0.913 . S
C1589 H1565 0.950 . S
C1589 C1588 1.524 . S
C1589 C1590 1.415 . S
C1590 H1566 0.950 . S
C1590 C1585 1.363 . S
C1590 C1589 1.415 . S
C1591 H1567 0.951 . S
C1591 C1592 1.366 . S
C1591 C1593 1.388 . S
C1592 C1591 1.366 . S
C1592 C1596 1.385 . S
C1593 H1568 0.951 . S
C1593 C1591 1.388 . S
C1593 C1594 1.366 . S
C1594 C1593 1.366 . S
C1594 C1595 1.414 1_554 S
C1594 C1597 1.499 1_554 S
C1595 H1569 0.950 . S
C1595 C1594 1.414 1_556 S
C1595 C1596 1.374 1_556 S
C1596 H1570 0.950 . S
C1596 C1592 1.385 . S
C1596 C1595 1.374 1_554 S
C1597 C1594 1.499 1_556 S
C1597 C1598 1.373 . S
C1597 C1599 1.389 . S
C1598 H1571 0.950 . S
C1598 C1584 1.377 . S
C1598 C1597 1.373 . S
C1599 C1583 1.377 . S
C1599 C1597 1.389 . S
C1599 C1600 1.524 . S
C1600 C1599 1.524 . S
C1600 C1601 1.397 . S
C1600 C1605 1.363 . S
C1601 H1572 0.950 . S
C1601 C1600 1.397 . S
C1601 C1602 1.334 . S
C1602 H1573 0.950 . S
C1602 C1601 1.334 . S
C1602 C1603 1.287 . S
C1603 C1602 1.287 . S
C1603 C1604 1.524 1_556 S
C1603 H1606 0.999 . S
C1604 H1574 0.950 . S
C1604 C1603 1.524 1_554 S
C1604 C1605 1.415 1_554 S
C1605 H1575 0.950 1_556 S
C1605 C1600 1.363 . S
C1605 C1604 1.415 1_556 S
H1606 C1603 0.999 . S
H1607 C1588 0.913 . S
H1608 C1626 0.951 . S
H1609 C1628 0.951 . S
H1610 C1630 0.950 . S
H1611 C1631 0.950 . S
H1612 C1633 0.950 . S
H1613 C1636 0.950 . S
H1614 C1637 0.950 . S
H1615 C1639 0.950 . S
H1616 C1640 0.950 . S
H1617 C1641 0.951 . S
H1618 C1643 0.951 . S
H1619 C1645 0.950 . S
H1620 C1646 0.950 . S
H1621 C1648 0.950 . S
H1622 C1651 0.950 . S
H1623 C1652 0.950 . S
H1624 C1654 0.950 . S
H1625 C1655 0.950 . S
C1626 H1608 0.951 . S
C1626 C1627 1.366 . S
C1626 C1628 1.388 . S
C1627 C1626 1.366 . S
C1627 C1631 1.385 . S
C1628 H1609 0.951 . S
C1628 C1626 1.388 . S
C1628 C1629 1.366 . S
C1629 C1628 1.366 . S
C1629 C1630 1.414 . S
C1629 C1632 1.499 . S
C1630 H1610 0.950 . S
C1630 C1629 1.414 . S
C1630 C1631 1.374 . S
C1631 H1611 0.950 . S
C1631 C1627 1.385 . S
C1631 C1630 1.374 . S
C1632 C1629 1.499 . S
C1632 C1633 1.373 . S
C1632 C1634 1.389 . S
C1633 H1612 0.950 . S
C1633 C1632 1.373 . S
C1633 C1649 1.377 . S
C1634 C1632 1.389 . S
C1634 C1635 1.524 . S
C1634 C1648 1.377 . S
C1635 C1634 1.524 . S
C1635 C1636 1.397 . S
C1635 C1640 1.363 . S
C1636 H1613 0.950 . S
C1636 C1635 1.397 . S
C1636 C1637 1.334 . S
C1637 H1614 0.950 . S
C1637 C1636 1.334 . S
C1637 C1638 1.287 . S
C1638 C1637 1.287 . S
C1638 C1639 1.524 . S
C1638 H1657 0.913 . S
C1639 H1615 0.950 . S
C1639 C1638 1.524 . S
C1639 C1640 1.415 . S
C1640 H1616 0.950 . S
C1640 C1635 1.363 . S
C1640 C1639 1.415 . S
C1641 H1617 0.951 . S
C1641 C1642 1.366 . S
C1641 C1643 1.388 . S
C1642 C1641 1.366 . S
C1642 C1646 1.385 . S
C1643 H1618 0.951 . S
C1643 C1641 1.388 . S
C1643 C1644 1.366 . S
C1644 C1643 1.366 . S
C1644 C1645 1.414 . S
C1644 C1647 1.499 . S
C1645 H1619 0.950 . S
C1645 C1644 1.414 . S
C1645 C1646 1.374 . S
C1646 H1620 0.950 . S
C1646 C1642 1.385 . S
C1646 C1645 1.374 . S
C1647 C1644 1.499 . S
C1647 C1648 1.373 . S
C1647 C1649 1.389 . S
C1648 H1621 0.950 . S
C1648 C1634 1.377 . S
C1648 C1647 1.373 . S
C1649 C1633 1.377 . S
C1649 C1647 1.389 . S
C1649 C1650 1.524 . S
C1650 C1649 1.524 . S
C1650 C1651 1.397 . S
C1650 C1655 1.363 . S
C1651 H1622 0.950 . S
C1651 C1650 1.397 . S
C1651 C1652 1.334 . S
C1652 H1623 0.950 . S
C1652 C1651 1.334 . S
C1652 C1653 1.287 . S
C1653 C1652 1.287 . S
C1653 C1654 1.524 . S
C1653 H1656 0.999 . S
C1654 H1624 0.950 . S
C1654 C1653 1.524 . S
C1654 C1655 1.415 . S
C1655 H1625 0.950 . S
C1655 C1650 1.363 . S
C1655 C1654 1.415 . S
H1656 C1653 0.999 . S
H1657 C1638 0.913 . S
H1658 C1676 0.951 . S
H1659 C1678 0.951 . S
H1660 C1680 0.950 . S
H1661 C1681 0.950 . S
H1662 C1683 0.950 . S
H1663 C1686 0.950 . S
H1664 C1687 0.950 . S
H1665 C1689 0.950 . S
H1666 C1690 0.950 . S
H1667 C1691 0.951 . S
H1668 C1693 0.951 . S
H1669 C1695 0.950 . S
H1670 C1696 0.950 . S
H1671 C1698 0.950 . S
H1672 C1701 0.950 . S
H1673 C1702 0.950 . S
H1674 C1704 0.950 . S
H1675 C1705 0.950 . S
C1676 H1658 0.951 . S
C1676 C1677 1.366 . S
C1676 C1678 1.388 . S
C1677 C1676 1.366 . S
C1677 C1681 1.385 . S
C1678 H1659 0.951 . S
C1678 C1676 1.388 . S
C1678 C1679 1.366 . S
C1679 C1678 1.366 . S
C1679 C1680 1.414 . S
C1679 C1682 1.499 . S
C1680 H1660 0.950 . S
C1680 C1679 1.414 . S
C1680 C1681 1.374 . S
C1681 H1661 0.950 . S
C1681 C1677 1.385 . S
C1681 C1680 1.374 . S
C1682 C1679 1.499 . S
C1682 C1683 1.373 . S
C1682 C1684 1.389 . S
C1683 H1662 0.950 . S
C1683 C1682 1.373 . S
C1683 C1699 1.377 . S
C1684 C1682 1.389 . S
C1684 C1685 1.524 . S
C1684 C1698 1.377 . S
C1685 C1684 1.524 . S
C1685 C1686 1.397 . S
C1685 C1690 1.363 . S
C1686 H1663 0.950 . S
C1686 C1685 1.397 . S
C1686 C1687 1.334 . S
C1687 H1664 0.950 . S
C1687 C1686 1.334 . S
C1687 C1688 1.287 . S
C1688 C1687 1.287 . S
C1688 C1689 1.524 . S
C1688 H1707 0.913 . S
C1689 H1665 0.950 . S
C1689 C1688 1.524 . S
C1689 C1690 1.415 . S
C1690 H1666 0.950 . S
C1690 C1685 1.363 . S
C1690 C1689 1.415 . S
C1691 H1667 0.951 . S
C1691 C1692 1.366 . S
C1691 C1693 1.388 . S
C1692 C1691 1.366 . S
C1692 C1696 1.385 . S
C1693 H1668 0.951 . S
C1693 C1691 1.388 . S
C1693 C1694 1.366 . S
C1694 C1693 1.366 . S
C1694 C1695 1.414 . S
C1694 C1697 1.499 . S
C1695 H1669 0.950 . S
C1695 C1694 1.414 . S
C1695 C1696 1.374 . S
C1696 H1670 0.950 . S
C1696 C1692 1.385 . S
C1696 C1695 1.374 . S
C1697 C1694 1.499 . S
C1697 C1698 1.373 . S
C1697 C1699 1.389 . S
C1698 H1671 0.950 . S
C1698 C1684 1.377 . S
C1698 C1697 1.373 . S
C1699 C1683 1.377 . S
C1699 C1697 1.389 . S
C1699 C1700 1.524 . S
C1700 C1699 1.524 . S
C1700 C1701 1.397 . S
C1700 C1705 1.363 . S
C1701 H1672 0.950 . S
C1701 C1700 1.397 . S
C1701 C1702 1.334 . S
C1702 H1673 0.950 . S
C1702 C1701 1.334 . S
C1702 C1703 1.287 . S
C1703 C1702 1.287 . S
C1703 C1704 1.524 . S
C1703 H1706 0.999 . S
C1704 H1674 0.950 . S
C1704 C1703 1.524 . S
C1704 C1705 1.415 . S
C1705 H1675 0.950 . S
C1705 C1700 1.363 . S
C1705 C1704 1.415 . S
H1706 C1703 0.999 . S
H1707 C1688 0.913 . S
H1708 C1726 0.951 . S
H1709 C1728 0.951 . S
H1710 C1730 0.950 . S
H1711 C1731 0.950 . S
H1712 C1733 0.950 . S
H1713 C1736 0.950 . S
H1714 C1737 0.950 . S
H1715 C1739 0.950 . S
H1716 C1740 0.950 . S
H1717 C1741 0.951 . S
H1718 C1743 0.951 . S
H1719 C1745 0.950 . S
H1720 C1746 0.950 . S
H1721 C1748 0.950 . S
H1722 C1751 0.950 . S
H1723 C1752 0.950 . S
H1724 C1754 0.950 . S
H1725 C1755 0.950 . S
C1726 H1708 0.951 . S
C1726 C1727 1.366 . S
C1726 C1728 1.388 . S
C1727 C1726 1.366 . S
C1727 C1731 1.385 . S
C1728 H1709 0.951 . S
C1728 C1726 1.388 . S
C1728 C1729 1.366 . S
C1729 C1728 1.366 . S
C1729 C1730 1.414 . S
C1729 C1732 1.499 . S
C1730 H1710 0.950 . S
C1730 C1729 1.414 . S
C1730 C1731 1.374 . S
C1731 H1711 0.950 . S
C1731 C1727 1.385 . S
C1731 C1730 1.374 . S
C1732 C1729 1.499 . S
C1732 C1733 1.373 . S
C1732 C1734 1.389 . S
C1733 H1712 0.950 . S
C1733 C1732 1.373 . S
C1733 C1749 1.377 . S
C1734 C1732 1.389 . S
C1734 C1735 1.524 . S
C1734 C1748 1.377 . S
C1735 C1734 1.524 . S
C1735 C1736 1.397 . S
C1735 C1740 1.363 . S
C1736 H1713 0.950 . S
C1736 C1735 1.397 . S
C1736 C1737 1.334 . S
C1737 H1714 0.950 . S
C1737 C1736 1.334 . S
C1737 C1738 1.287 . S
C1738 C1737 1.287 . S
C1738 C1739 1.524 . S
C1738 H1757 0.913 . S
C1739 H1715 0.950 . S
C1739 C1738 1.524 . S
C1739 C1740 1.415 . S
C1740 H1716 0.950 . S
C1740 C1735 1.363 . S
C1740 C1739 1.415 . S
C1741 H1717 0.951 . S
C1741 C1742 1.366 . S
C1741 C1743 1.388 . S
C1742 C1741 1.366 . S
C1742 C1746 1.385 . S
C1743 H1718 0.951 . S
C1743 C1741 1.388 . S
C1743 C1744 1.366 . S
C1744 C1743 1.366 . S
C1744 C1745 1.414 . S
C1744 C1747 1.499 . S
C1745 H1719 0.950 . S
C1745 C1744 1.414 . S
C1745 C1746 1.374 . S
C1746 H1720 0.950 . S
C1746 C1742 1.385 . S
C1746 C1745 1.374 . S
C1747 C1744 1.499 . S
C1747 C1748 1.373 . S
C1747 C1749 1.389 . S
C1748 H1721 0.950 . S
C1748 C1734 1.377 . S
C1748 C1747 1.373 . S
C1749 C1733 1.377 . S
C1749 C1747 1.389 . S
C1749 C1750 1.524 . S
C1750 C1749 1.524 . S
C1750 C1751 1.397 . S
C1750 C1755 1.363 . S
C1751 H1722 0.950 . S
C1751 C1750 1.397 . S
C1751 C1752 1.334 . S
C1752 H1723 0.950 . S
C1752 C1751 1.334 . S
C1752 C1753 1.287 . S
C1753 C1752 1.287 . S
C1753 C1754 1.524 . S
C1753 H1756 0.999 . S
C1754 H1724 0.950 . S
C1754 C1753 1.524 . S
C1754 C1755 1.415 . S
C1755 H1725 0.950 . S
C1755 C1750 1.363 . S
C1755 C1754 1.415 . S
H1756 C1753 0.999 . S
H1757 C1738 0.913 . S
H1758 C1776 0.951 . S
H1759 C1778 0.951 . S
H1760 C1780 0.950 . S
H1761 C1781 0.950 . S
H1762 C1783 0.950 . S
H1763 C1786 0.950 . S
H1764 C1787 0.950 . S
H1765 C1789 0.950 . S
H1766 C1790 0.950 . S
H1767 C1791 0.951 . S
H1768 C1793 0.951 . S
H1769 C1795 0.950 . S
H1770 C1796 0.950 . S
H1771 C1798 0.950 . S
H1772 C1801 0.950 . S
H1773 C1802 0.950 . S
H1774 C1804 0.950 . S
H1775 C1805 0.950 . S
C1776 H1758 0.951 . S
C1776 C1777 1.366 . S
C1776 C1778 1.388 . S
C1777 C1776 1.366 . S
C1777 C1781 1.385 . S
C1778 H1759 0.951 . S
C1778 C1776 1.388 . S
C1778 C1779 1.366 . S
C1779 C1778 1.366 . S
C1779 C1780 1.414 . S
C1779 C1782 1.499 . S
C1780 H1760 0.950 . S
C1780 C1779 1.414 . S
C1780 C1781 1.374 . S
C1781 H1761 0.950 . S
C1781 C1777 1.385 . S
C1781 C1780 1.374 . S
C1782 C1779 1.499 . S
C1782 C1783 1.373 . S
C1782 C1784 1.389 . S
C1783 H1762 0.950 . S
C1783 C1782 1.373 . S
C1783 C1799 1.377 . S
C1784 C1782 1.389 . S
C1784 C1785 1.524 . S
C1784 C1798 1.377 . S
C1785 C1784 1.524 . S
C1785 C1786 1.397 . S
C1785 C1790 1.363 . S
C1786 H1763 0.950 . S
C1786 C1785 1.397 . S
C1786 C1787 1.334 . S
C1787 H1764 0.950 . S
C1787 C1786 1.334 . S
C1787 C1788 1.287 . S
C1788 C1787 1.287 . S
C1788 C1789 1.524 . S
C1788 H1807 0.913 . S
C1789 H1765 0.950 . S
C1789 C1788 1.524 . S
C1789 C1790 1.415 . S
C1790 H1766 0.950 . S
C1790 C1785 1.363 . S
C1790 C1789 1.415 . S
C1791 H1767 0.951 . S
C1791 C1792 1.366 . S
C1791 C1793 1.388 . S
C1792 C1791 1.366 . S
C1792 C1796 1.385 . S
C1793 H1768 0.951 . S
C1793 C1791 1.388 . S
C1793 C1794 1.366 . S
C1794 C1793 1.366 . S
C1794 C1795 1.414 . S
C1794 C1797 1.499 . S
C1795 H1769 0.950 . S
C1795 C1794 1.414 . S
C1795 C1796 1.374 . S
C1796 H1770 0.950 . S
C1796 C1792 1.385 . S
C1796 C1795 1.374 . S
C1797 C1794 1.499 . S
C1797 C1798 1.373 . S
C1797 C1799 1.389 . S
C1798 H1771 0.950 . S
C1798 C1784 1.377 . S
C1798 C1797 1.373 . S
C1799 C1783 1.377 . S
C1799 C1797 1.389 . S
C1799 C1800 1.524 . S
C1800 C1799 1.524 . S
C1800 C1801 1.397 . S
C1800 C1805 1.363 . S
C1801 H1772 0.950 . S
C1801 C1800 1.397 . S
C1801 C1802 1.334 . S
C1802 H1773 0.950 . S
C1802 C1801 1.334 . S
C1802 C1803 1.287 . S
C1803 C1802 1.287 . S
C1803 C1804 1.524 . S
C1803 H1806 0.999 . S
C1804 H1774 0.950 . S
C1804 C1803 1.524 . S
C1804 C1805 1.415 . S
C1805 H1775 0.950 . S
C1805 C1800 1.363 . S
C1805 C1804 1.415 . S
H1806 C1803 0.999 . S
H1807 C1788 0.913 . S
H1808 C1826 0.951 . S
H1809 C1828 0.951 . S
H1810 C1830 0.950 . S
H1811 C1831 0.966 . S
H1812 C1833 0.950 . S
H1813 C1836 0.950 . S
H1814 C1837 0.950 . S
H1815 C1839 0.950 . S
H1816 C1840 0.950 . S
H1817 C1841 0.951 . S
H1818 C1843 0.951 . S
H1819 C1845 0.950 . S
H1820 C1846 0.950 . S
H1821 C1848 0.950 . S
H1822 C1851 0.950 . S
H1823 C1852 0.950 . S
H1824 C1854 0.950 . S
H1825 C1855 0.950 . S
C1826 H1808 0.951 . S
C1826 C1827 1.366 . S
C1826 C1828 1.388 . S
C1827 C1826 1.366 . S
C1827 C1831 1.385 . S
C1828 H1809 0.951 . S
C1828 C1826 1.388 . S
C1828 C1829 1.366 . S
C1829 C1828 1.366 . S
C1829 C1830 1.414 1_556 S
C1829 C1832 1.499 1_556 S
C1830 H1810 0.950 . S
C1830 C1829 1.414 1_554 S
C1830 C1831 1.374 1_554 S
C1831 H1811 0.966 . S
C1831 C1827 1.385 . S
C1831 C1830 1.374 1_556 S
C1832 C1829 1.499 1_554 S
C1832 C1833 1.373 . S
C1832 C1834 1.389 . S
C1833 H1812 0.950 . S
C1833 C1832 1.373 . S
C1833 C1849 1.377 . S
C1834 C1832 1.389 . S
C1834 C1835 1.524 1_554 S
C1834 C1848 1.377 . S
C1835 C1834 1.524 1_556 S
C1835 C1836 1.397 1_556 S
C1835 C1840 1.363 . S
C1836 H1813 0.950 . S
C1836 C1835 1.397 1_554 S
C1836 C1837 1.334 1_554 S
C1837 H1814 0.950 . S
C1837 C1836 1.334 1_556 S
C1837 C1838 1.287 . S
C1838 C1837 1.287 . S
C1838 C1839 1.524 . S
C1838 H1857 0.913 . S
C1839 H1815 0.950 . S
C1839 C1838 1.524 . S
C1839 C1840 1.415 . S
C1840 H1816 0.950 . S
C1840 C1835 1.363 . S
C1840 C1839 1.415 . S
C1841 H1817 0.951 . S
C1841 C1842 1.366 . S
C1841 C1843 1.388 . S
C1842 C1841 1.366 . S
C1842 C1846 1.385 . S
C1843 H1818 0.951 . S
C1843 C1841 1.388 . S
C1843 C1844 1.366 . S
C1844 C1843 1.366 . S
C1844 C1845 1.414 . S
C1844 C1847 1.499 . S
C1845 H1819 0.950 . S
C1845 C1844 1.414 . S
C1845 C1846 1.374 . S
C1846 H1820 0.950 . S
C1846 C1842 1.385 . S
C1846 C1845 1.374 . S
C1847 C1844 1.499 . S
C1847 C1848 1.373 . S
C1847 C1849 1.389 . S
C1848 H1821 0.950 . S
C1848 C1834 1.377 . S
C1848 C1847 1.373 . S
C1849 C1833 1.377 . S
C1849 C1847 1.389 . S
C1849 C1850 1.524 . S
C1850 C1849 1.524 . S
C1850 C1851 1.397 . S
C1850 C1855 1.363 . S
C1851 H1822 0.950 . S
C1851 C1850 1.397 . S
C1851 C1852 1.334 . S
C1852 H1823 0.950 . S
C1852 C1851 1.334 . S
C1852 C1853 1.287 . S
C1853 C1852 1.287 . S
C1853 C1854 1.524 . S
C1853 H1856 0.999 . S
C1854 H1824 0.950 . S
C1854 C1853 1.524 . S
C1854 C1855 1.415 . S
C1855 H1825 0.950 . S
C1855 C1850 1.363 . S
C1855 C1854 1.415 . S
H1856 C1853 0.999 . S
H1857 C1838 0.913 . S
H1858 C1876 0.973 . S
H1859 C1878 0.951 . S
H1860 C1880 0.950 . S
H1861 C1881 0.950 . S
H1862 C1883 0.909 1_556 S
H1863 C1886 0.950 . S
H1864 C1887 0.950 . S
H1865 C1889 0.950 . S
H1866 C1890 0.950 . S
H1867 C1891 0.951 . S
H1868 C1893 0.951 . S
H1869 C1895 0.950 . S
H1870 C1896 0.950 . S
H1871 C1898 0.950 . S
H1872 C1901 0.950 . S
H1873 C1902 0.950 . S
H1874 C1904 0.950 . S
H1875 C1905 0.950 . S
C1876 H1858 0.973 . S
C1876 C1877 1.366 . S
C1876 C1878 1.388 1_556 S
C1877 C1876 1.366 . S
C1877 C1881 1.385 . S
C1878 H1859 0.951 . S
C1878 C1876 1.388 1_554 S
C1878 C1879 1.366 1_554 S
C1879 C1878 1.366 1_556 S
C1879 C1880 1.414 . S
C1879 C1882 1.499 1_556 S
C1880 H1860 0.950 . S
C1880 C1879 1.414 . S
C1880 C1881 1.374 . S
C1881 H1861 0.950 . S
C1881 C1877 1.385 . S
C1881 C1880 1.374 . S
C1882 C1879 1.499 1_554 S
C1882 C1883 1.390 . S
C1882 C1884 1.389 . S
C1883 H1862 0.909 1_554 S
C1883 C1882 1.390 . S
C1883 C1899 1.402 . S
C1884 C1882 1.389 . S
C1884 C1885 1.524 . S
C1884 C1898 1.377 . S
C1885 C1884 1.524 . S
C1885 C1886 1.397 . S
C1885 C1890 1.363 . S
C1886 H1863 0.950 . S
C1886 C1885 1.397 . S
C1886 C1887 1.334 . S
C1887 H1864 0.950 . S
C1887 C1886 1.334 . S
C1887 C1888 1.287 . S
C1888 C1887 1.287 . S
C1888 C1889 1.524 . S
C1888 H1907 0.913 . S
C1889 H1865 0.950 . S
C1889 C1888 1.524 . S
C1889 C1890 1.415 . S
C1890 H1866 0.950 . S
C1890 C1885 1.363 . S
C1890 C1889 1.415 . S
C1891 H1867 0.951 . S
C1891 C1892 1.366 . S
C1891 C1893 1.388 . S
C1892 C1891 1.366 . S
C1892 C1896 1.385 . S
C1893 H1868 0.951 . S
C1893 C1891 1.388 . S
C1893 C1894 1.366 . S
C1894 C1893 1.366 . S
C1894 C1895 1.414 . S
C1894 C1897 1.499 . S
C1895 H1869 0.950 . S
C1895 C1894 1.414 . S
C1895 C1896 1.374 . S
C1896 H1870 0.950 . S
C1896 C1892 1.385 . S
C1896 C1895 1.374 . S
C1897 C1894 1.499 . S
C1897 C1898 1.373 . S
C1897 C1899 1.389 . S
C1898 H1871 0.950 . S
C1898 C1884 1.377 . S
C1898 C1897 1.373 . S
C1899 C1883 1.402 . S
C1899 C1897 1.389 . S
C1899 C1900 1.524 . S
C1900 C1899 1.524 . S
C1900 C1901 1.397 . S
C1900 C1905 1.363 1_554 S
C1901 H1872 0.950 . S
C1901 C1900 1.397 . S
C1901 C1902 1.334 . S
C1902 H1873 0.950 . S
C1902 C1901 1.334 . S
C1902 C1903 1.287 1_554 S
C1903 C1902 1.287 1_556 S
C1903 C1904 1.524 . S
C1903 H1906 0.999 . S
C1904 H1874 0.950 . S
C1904 C1903 1.524 . S
C1904 C1905 1.415 . S
C1905 H1875 0.950 . S
C1905 C1900 1.363 1_556 S
C1905 C1904 1.415 . S
H1906 C1903 0.999 . S
H1907 C1888 0.913 . S
H1908 C1926 0.951 . S
H1909 C1928 0.951 . S
H1910 C1930 0.950 . S
H1911 C1931 0.950 . S
H1912 C1933 0.950 . S
H1913 C1936 0.950 . S
H1914 C1937 0.950 . S
H1915 C1939 0.955 . S
H1916 C1940 0.950 1_556 S
H1917 C1941 0.951 . S
H1918 C1943 0.951 . S
H1919 C1945 0.950 . S
H1920 C1946 0.950 . S
H1921 C1948 0.950 . S
H1922 C1951 0.950 . S
H1923 C1952 0.950 . S
H1924 C1954 0.950 . S
H1925 C1955 0.950 . S
C1926 H1908 0.951 . S
C1926 C1927 1.366 . S
C1926 C1928 1.388 . S
C1927 C1926 1.366 . S
C1927 C1931 1.385 . S
C1928 H1909 0.951 . S
C1928 C1926 1.388 . S
C1928 C1929 1.366 . S
C1929 C1928 1.366 . S
C1929 C1930 1.414 1_556 S
C1929 C1932 1.499 1_556 S
C1930 H1910 0.950 . S
C1930 C1929 1.414 1_554 S
C1930 C1931 1.374 1_554 S
C1931 H1911 0.950 . S
C1931 C1927 1.385 . S
C1931 C1930 1.374 1_556 S
C1932 C1929 1.499 1_554 S
C1932 C1933 1.373 . S
C1932 C1934 1.389 . S
C1933 H1912 0.950 . S
C1933 C1932 1.373 . S
C1933 C1949 1.377 . S
C1934 C1932 1.389 . S
C1934 C1935 1.524 . S
C1934 C1948 1.377 . S
C1935 C1934 1.524 . S
C1935 C1936 1.397 . S
C1935 C1940 1.363 . S
C1936 H1913 0.950 . S
C1936 C1935 1.397 . S
C1936 C1937 1.334 . S
C1937 H1914 0.950 . S
C1937 C1936 1.334 . S
C1937 C1938 1.287 . S
C1938 C1937 1.287 . S
C1938 C1939 1.519 1_554 S
C1938 H1957 0.913 . S
C1939 H1915 0.955 . S
C1939 C1938 1.519 1_556 S
C1939 C1940 1.413 1_556 S
C1940 H1916 0.950 1_554 S
C1940 C1935 1.363 . S
C1940 C1939 1.413 1_554 S
C1941 H1917 0.951 . S
C1941 C1942 1.366 . S
C1941 C1943 1.388 . S
C1942 C1941 1.366 . S
C1942 C1946 1.385 . S
C1943 H1918 0.951 . S
C1943 C1941 1.388 . S
C1943 C1944 1.366 . S
C1944 C1943 1.366 . S
C1944 C1945 1.414 . S
C1944 C1947 1.499 . S
C1945 H1919 0.950 . S
C1945 C1944 1.414 . S
C1945 C1946 1.374 . S
C1946 H1920 0.950 . S
C1946 C1942 1.385 . S
C1946 C1945 1.374 . S
C1947 C1944 1.499 . S
C1947 C1948 1.373 . S
C1947 C1949 1.389 . S
C1948 H1921 0.950 . S
C1948 C1934 1.377 . S
C1948 C1947 1.373 . S
C1949 C1933 1.377 . S
C1949 C1947 1.389 . S
C1949 C1950 1.524 . S
C1950 C1949 1.524 . S
C1950 C1951 1.397 . S
C1950 C1955 1.363 . S
C1951 H1922 0.950 . S
C1951 C1950 1.397 . S
C1951 C1952 1.334 . S
C1952 H1923 0.950 . S
C1952 C1951 1.334 . S
C1952 C1953 1.287 . S
C1953 C1952 1.287 . S
C1953 C1954 1.524 . S
C1953 H1956 0.999 . S
C1954 H1924 0.950 . S
C1954 C1953 1.524 . S
C1954 C1955 1.415 . S
C1955 H1925 0.950 . S
C1955 C1950 1.363 . S
C1955 C1954 1.415 . S
H1956 C1953 0.999 . S
H1957 C1938 0.913 . S
H1958 C1976 0.951 . S
H1959 C1978 0.951 . S
H1960 C1980 0.950 . S
H1961 C1981 0.950 . S
H1962 C1983 0.950 . S
H1963 C1986 0.950 . S
H1964 C1987 0.928 1_554 S
H1965 C1989 0.950 . S
H1966 C1990 0.950 . S
H1967 C1991 0.951 . S
H1968 C1993 0.951 . S
H1969 C1995 0.950 . S
H1970 C1996 0.950 . S
H1971 C1998 0.988 . S
H1972 C2001 0.950 . S
H1973 C2002 0.950 . S
H1974 C2004 0.950 . S
H1975 C2005 0.950 . S
C1976 H1958 0.951 . S
C1976 C1977 1.366 . S
C1976 C1978 1.388 . S
C1977 C1976 1.366 . S
C1977 C1981 1.385 . S
C1978 H1959 0.951 . S
C1978 C1976 1.388 . S
C1978 C1979 1.366 . S
C1979 C1978 1.366 . S
C1979 C1980 1.414 . S
C1979 C1982 1.499 . S
C1980 H1960 0.950 . S
C1980 C1979 1.414 . S
C1980 C1981 1.374 . S
C1981 H1961 0.950 . S
C1981 C1977 1.385 . S
C1981 C1980 1.374 . S
C1982 C1979 1.499 . S
C1982 C1983 1.373 . S
C1982 C1984 1.389 . S
C1983 H1962 0.950 . S
C1983 C1982 1.373 . S
C1983 C1999 1.377 . S
C1984 C1982 1.389 . S
C1984 C1985 1.513 1_554 S
C1984 C1998 1.356 1_554 S
C1985 C1984 1.513 1_556 S
C1985 C1986 1.387 1_556 S
C1985 C1990 1.385 . S
C1986 H1963 0.950 . S
C1986 C1985 1.387 1_554 S
C1986 C1987 1.311 1_554 S
C1987 H1964 0.928 1_556 S
C1987 C1986 1.311 1_556 S
C1987 C1988 1.336 . S
C1988 C1987 1.336 . S
C1988 C1989 1.524 . S
C1988 H2007 0.913 . S
C1989 H1965 0.950 . S
C1989 C1988 1.524 . S
C1989 C1990 1.415 . S
C1990 H1966 0.950 . S
C1990 C1985 1.385 . S
C1990 C1989 1.415 . S
C1991 H1967 0.951 . S
C1991 C1992 1.366 . S
C1991 C1993 1.388 1_556 S
C1992 C1991 1.366 . S
C1992 C1996 1.385 . S
C1993 H1968 0.951 . S
C1993 C1991 1.388 1_554 S
C1993 C1994 1.366 1_554 S
C1994 C1993 1.366 1_556 S
C1994 C1995 1.414 . S
C1994 C1997 1.499 1_556 S
C1995 H1969 0.950 . S
C1995 C1994 1.414 . S
C1995 C1996 1.374 . S
C1996 H1970 0.950 . S
C1996 C1992 1.385 . S
C1996 C1995 1.374 . S
C1997 C1994 1.499 1_554 S
C1997 C1998 1.357 1_554 S
C1997 C1999 1.389 . S
C1998 H1971 0.988 . S
C1998 C1984 1.356 1_556 S
C1998 C1997 1.357 1_556 S
C1999 C1983 1.377 . S
C1999 C1997 1.389 . S
C1999 C2000 1.524 . S
C2000 C1999 1.524 . S
C2000 C2001 1.397 . S
C2000 C2005 1.363 . S
C2001 H1972 0.950 . S
C2001 C2000 1.397 . S
C2001 C2002 1.334 . S
C2002 H1973 0.950 . S
C2002 C2001 1.334 . S
C2002 C2003 1.287 . S
C2003 C2002 1.287 . S
C2003 C2004 1.524 . S
C2003 H2006 0.999 . S
C2004 H1974 0.950 . S
C2004 C2003 1.524 . S
C2004 C2005 1.415 . S
C2005 H1975 0.950 . S
C2005 C2000 1.363 . S
C2005 C2004 1.415 . S
H2006 C2003 0.999 . S
H2007 C1988 0.913 . S
H2008 C2026 0.951 . S
H2009 C2028 0.951 . S
H2010 C2030 0.950 . S
H2011 C2031 0.950 . S
H2012 C2033 0.950 . S
H2013 C2036 0.950 . S
H2014 C2037 0.950 . S
H2015 C2039 0.950 . S
H2016 C2040 0.950 . S
H2017 C2041 0.951 . S
H2018 C2043 0.951 . S
H2019 C2045 0.950 . S
H2020 C2046 0.950 . S
H2021 C2048 0.950 . S
H2022 C2051 0.950 . S
H2023 C2052 0.950 . S
H2024 C2054 0.950 . S
H2025 C2055 0.950 . S
C2026 H2008 0.951 . S
C2026 C2027 1.366 . S
C2026 C2028 1.388 . S
C2027 C2026 1.366 . S
C2027 C2031 1.385 . S
C2028 H2009 0.951 . S
C2028 C2026 1.388 . S
C2028 C2029 1.366 . S
C2029 C2028 1.366 . S
C2029 C2030 1.414 . S
C2029 C2032 1.499 . S
C2030 H2010 0.950 . S
C2030 C2029 1.414 . S
C2030 C2031 1.374 . S
C2031 H2011 0.950 . S
C2031 C2027 1.385 . S
C2031 C2030 1.374 . S
C2032 C2029 1.499 . S
C2032 C2033 1.373 . S
C2032 C2034 1.389 . S
C2033 H2012 0.950 . S
C2033 C2032 1.373 . S
C2033 C2049 1.377 . S
C2034 C2032 1.389 . S
C2034 C2035 1.524 . S
C2034 C2048 1.377 . S
C2035 C2034 1.524 . S
C2035 C2036 1.397 . S
C2035 C2040 1.363 . S
C2036 H2013 0.950 . S
C2036 C2035 1.397 . S
C2036 C2037 1.334 . S
C2037 H2014 0.950 . S
C2037 C2036 1.334 . S
C2037 C2038 1.287 . S
C2038 C2037 1.287 . S
C2038 C2039 1.524 . S
C2038 H2057 0.913 . S
C2039 H2015 0.950 . S
C2039 C2038 1.524 . S
C2039 C2040 1.415 . S
C2040 H2016 0.950 . S
C2040 C2035 1.363 . S
C2040 C2039 1.415 . S
C2041 H2017 0.951 . S
C2041 C2042 1.366 . S
C2041 C2043 1.388 . S
C2042 C2041 1.366 . S
C2042 C2046 1.385 . S
C2043 H2018 0.951 . S
C2043 C2041 1.388 . S
C2043 C2044 1.366 . S
C2044 C2043 1.366 . S
C2044 C2045 1.414 . S
C2044 C2047 1.499 . S
C2045 H2019 0.950 . S
C2045 C2044 1.414 . S
C2045 C2046 1.374 . S
C2046 H2020 0.950 . S
C2046 C2042 1.385 . S
C2046 C2045 1.374 . S
C2047 C2044 1.499 . S
C2047 C2048 1.373 . S
C2047 C2049 1.389 . S
C2048 H2021 0.950 . S
C2048 C2034 1.377 . S
C2048 C2047 1.373 . S
C2049 C2033 1.377 . S
C2049 C2047 1.389 . S
C2049 C2050 1.524 . S
C2050 C2049 1.524 . S
C2050 C2051 1.397 . S
C2050 C2055 1.363 . S
C2051 H2022 0.950 . S
C2051 C2050 1.397 . S
C2051 C2052 1.334 . S
C2052 H2023 0.950 . S
C2052 C2051 1.334 . S
C2052 C2053 1.287 . S
C2053 C2052 1.287 . S
C2053 C2054 1.524 . S
C2053 H2056 0.999 . S
C2054 H2024 0.950 . S
C2054 C2053 1.524 . S
C2054 C2055 1.415 . S
C2055 H2025 0.950 . S
C2055 C2050 1.363 . S
C2055 C2054 1.415 . S
H2056 C2053 0.999 . S
H2057 C2038 0.913 . S
H2058 C2076 0.951 . S
H2059 C2078 0.951 . S
H2060 C2080 0.950 . S
H2061 C2081 0.950 . S
H2062 C2083 0.950 . S
H2063 C2086 0.950 . S
H2064 C2087 0.950 . S
H2065 C2089 0.950 . S
H2066 C2090 0.950 . S
H2067 C2091 0.951 . S
H2068 C2093 0.951 . S
H2069 C2095 0.950 . S
H2070 C2096 0.950 . S
H2071 C2098 0.950 . S
H2072 C2101 0.950 . S
H2073 C2102 0.950 . S
H2074 C2104 0.950 . S
H2075 C2105 0.950 . S
C2076 H2058 0.951 . S
C2076 C2077 1.366 . S
C2076 C2078 1.388 . S
C2077 C2076 1.366 . S
C2077 C2081 1.385 . S
C2078 H2059 0.951 . S
C2078 C2076 1.388 . S
C2078 C2079 1.366 . S
C2079 C2078 1.366 . S
C2079 C2080 1.414 . S
C2079 C2082 1.499 . S
C2080 H2060 0.950 . S
C2080 C2079 1.414 . S
C2080 C2081 1.374 . S
C2081 H2061 0.950 . S
C2081 C2077 1.385 . S
C2081 C2080 1.374 . S
C2082 C2079 1.499 . S
C2082 C2083 1.373 . S
C2082 C2084 1.389 . S
C2083 H2062 0.950 . S
C2083 C2082 1.373 . S
C2083 C2099 1.377 . S
C2084 C2082 1.389 . S
C2084 C2085 1.524 . S
C2084 C2098 1.377 . S
C2085 C2084 1.524 . S
C2085 C2086 1.397 . S
C2085 C2090 1.363 . S
C2086 H2063 0.950 . S
C2086 C2085 1.397 . S
C2086 C2087 1.334 . S
C2087 H2064 0.950 . S
C2087 C2086 1.334 . S
C2087 C2088 1.287 . S
C2088 C2087 1.287 . S
C2088 C2089 1.524 . S
C2088 H2107 0.913 . S
C2089 H2065 0.950 . S
C2089 C2088 1.524 . S
C2089 C2090 1.415 . S
C2090 H2066 0.950 . S
C2090 C2085 1.363 . S
C2090 C2089 1.415 . S
C2091 H2067 0.951 . S
C2091 C2092 1.366 . S
C2091 C2093 1.388 . S
C2092 C2091 1.366 . S
C2092 C2096 1.385 . S
C2093 H2068 0.951 . S
C2093 C2091 1.388 . S
C2093 C2094 1.366 . S
C2094 C2093 1.366 . S
C2094 C2095 1.414 . S
C2094 C2097 1.499 . S
C2095 H2069 0.950 . S
C2095 C2094 1.414 . S
C2095 C2096 1.374 . S
C2096 H2070 0.950 . S
C2096 C2092 1.385 . S
C2096 C2095 1.374 . S
C2097 C2094 1.499 . S
C2097 C2098 1.373 . S
C2097 C2099 1.389 . S
C2098 H2071 0.950 . S
C2098 C2084 1.377 . S
C2098 C2097 1.373 . S
C2099 C2083 1.377 . S
C2099 C2097 1.389 . S
C2099 C2100 1.524 . S
C2100 C2099 1.524 . S
C2100 C2101 1.397 . S
C2100 C2105 1.363 . S
C2101 H2072 0.950 . S
C2101 C2100 1.397 . S
C2101 C2102 1.334 . S
C2102 H2073 0.950 . S
C2102 C2101 1.334 . S
C2102 C2103 1.287 . S
C2103 C2102 1.287 . S
C2103 C2104 1.524 . S
C2103 H2106 0.999 . S
C2104 H2074 0.950 . S
C2104 C2103 1.524 . S
C2104 C2105 1.415 . S
C2105 H2075 0.950 . S
C2105 C2100 1.363 . S
C2105 C2104 1.415 . S
H2106 C2103 0.999 . S
H2107 C2088 0.913 . S
H2108 C2126 0.951 . S
H2109 C2128 0.951 . S
H2110 C2130 0.950 . S
H2111 C2131 0.950 . S
H2112 C2133 0.950 . S
H2113 C2136 0.950 . S
H2114 C2137 0.950 . S
H2115 C2139 0.950 . S
H2116 C2140 0.950 . S
H2117 C2141 0.951 . S
H2118 C2143 0.951 . S
H2119 C2145 0.950 . S
H2120 C2146 0.950 . S
H2121 C2148 0.950 . S
H2122 C2151 0.950 . S
H2123 C2152 0.950 . S
H2124 C2154 0.950 . S
H2125 C2155 0.950 . S
C2126 H2108 0.951 . S
C2126 C2127 1.366 . S
C2126 C2128 1.388 . S
C2127 C2126 1.366 . S
C2127 C2131 1.385 . S
C2128 H2109 0.951 . S
C2128 C2126 1.388 . S
C2128 C2129 1.366 . S
C2129 C2128 1.366 . S
C2129 C2130 1.414 . S
C2129 C2132 1.499 . S
C2130 H2110 0.950 . S
C2130 C2129 1.414 . S
C2130 C2131 1.374 . S
C2131 H2111 0.950 . S
C2131 C2127 1.385 . S
C2131 C2130 1.374 . S
C2132 C2129 1.499 . S
C2132 C2133 1.373 . S
C2132 C2134 1.389 . S
C2133 H2112 0.950 . S
C2133 C2132 1.373 . S
C2133 C2149 1.377 . S
C2134 C2132 1.389 . S
C2134 C2135 1.524 . S
C2134 C2148 1.377 . S
C2135 C2134 1.524 . S
C2135 C2136 1.397 . S
C2135 C2140 1.363 . S
C2136 H2113 0.950 . S
C2136 C2135 1.397 . S
C2136 C2137 1.334 . S
C2137 H2114 0.950 . S
C2137 C2136 1.334 . S
C2137 C2138 1.287 . S
C2138 C2137 1.287 . S
C2138 C2139 1.524 . S
C2138 H2157 0.913 . S
C2139 H2115 0.950 . S
C2139 C2138 1.524 . S
C2139 C2140 1.415 . S
C2140 H2116 0.950 . S
C2140 C2135 1.363 . S
C2140 C2139 1.415 . S
C2141 H2117 0.951 . S
C2141 C2142 1.366 . S
C2141 C2143 1.388 . S
C2142 C2141 1.366 . S
C2142 C2146 1.385 . S
C2143 H2118 0.951 . S
C2143 C2141 1.388 . S
C2143 C2144 1.366 . S
C2144 C2143 1.366 . S
C2144 C2145 1.414 . S
C2144 C2147 1.499 . S
C2145 H2119 0.950 . S
C2145 C2144 1.414 . S
C2145 C2146 1.374 . S
C2146 H2120 0.950 . S
C2146 C2142 1.385 . S
C2146 C2145 1.374 . S
C2147 C2144 1.499 . S
C2147 C2148 1.373 . S
C2147 C2149 1.389 . S
C2148 H2121 0.950 . S
C2148 C2134 1.377 . S
C2148 C2147 1.373 . S
C2149 C2133 1.377 . S
C2149 C2147 1.389 . S
C2149 C2150 1.524 . S
C2150 C2149 1.524 . S
C2150 C2151 1.397 . S
C2150 C2155 1.363 . S
C2151 H2122 0.950 . S
C2151 C2150 1.397 . S
C2151 C2152 1.334 . S
C2152 H2123 0.950 . S
C2152 C2151 1.334 . S
C2152 C2153 1.287 . S
C2153 C2152 1.287 . S
C2153 C2154 1.524 . S
C2153 H2156 0.999 . S
C2154 H2124 0.950 . S
C2154 C2153 1.524 . S
C2154 C2155 1.415 . S
C2155 H2125 0.950 . S
C2155 C2150 1.363 . S
C2155 C2154 1.415 . S
H2156 C2153 0.999 . S
H2157 C2138 0.913 . S
H2158 C2176 0.951 . S
H2159 C2178 0.951 . S
H2160 C2180 0.950 . S
H2161 C2181 0.950 . S
H2162 C2183 0.950 . S
H2163 C2186 0.950 . S
H2164 C2187 0.950 . S
H2165 C2189 0.950 . S
H2166 C2190 0.950 . S
H2167 C2191 0.951 . S
H2168 C2193 0.951 . S
H2169 C2195 0.950 . S
H2170 C2196 0.950 . S
H2171 C2198 0.950 . S
H2172 C2201 0.950 . S
H2173 C2202 0.950 . S
H2174 C2204 0.950 . S
H2175 C2205 0.950 . S
C2176 H2158 0.951 . S
C2176 C2177 1.366 . S
C2176 C2178 1.388 . S
C2177 C2176 1.366 . S
C2177 C2181 1.385 . S
C2178 H2159 0.951 . S
C2178 C2176 1.388 . S
C2178 C2179 1.366 . S
C2179 C2178 1.366 . S
C2179 C2180 1.414 . S
C2179 C2182 1.499 . S
C2180 H2160 0.950 . S
C2180 C2179 1.414 . S
C2180 C2181 1.374 . S
C2181 H2161 0.950 . S
C2181 C2177 1.385 . S
C2181 C2180 1.374 . S
C2182 C2179 1.499 . S
C2182 C2183 1.373 . S
C2182 C2184 1.389 . S
C2183 H2162 0.950 . S
C2183 C2182 1.373 . S
C2183 C2199 1.377 . S
C2184 C2182 1.389 . S
C2184 C2185 1.524 . S
C2184 C2198 1.377 . S
C2185 C2184 1.524 . S
C2185 C2186 1.397 . S
C2185 C2190 1.363 . S
C2186 H2163 0.950 . S
C2186 C2185 1.397 . S
C2186 C2187 1.334 . S
C2187 H2164 0.950 . S
C2187 C2186 1.334 . S
C2187 C2188 1.287 . S
C2188 C2187 1.287 . S
C2188 C2189 1.524 . S
C2188 H2207 0.913 . S
C2189 H2165 0.950 . S
C2189 C2188 1.524 . S
C2189 C2190 1.415 . S
C2190 H2166 0.950 . S
C2190 C2185 1.363 . S
C2190 C2189 1.415 . S
C2191 H2167 0.951 . S
C2191 C2192 1.366 . S
C2191 C2193 1.388 . S
C2192 C2191 1.366 . S
C2192 C2196 1.385 . S
C2193 H2168 0.951 . S
C2193 C2191 1.388 . S
C2193 C2194 1.366 . S
C2194 C2193 1.366 . S
C2194 C2195 1.414 . S
C2194 C2197 1.499 . S
C2195 H2169 0.950 . S
C2195 C2194 1.414 . S
C2195 C2196 1.374 . S
C2196 H2170 0.950 . S
C2196 C2192 1.385 . S
C2196 C2195 1.374 . S
C2197 C2194 1.499 . S
C2197 C2198 1.373 . S
C2197 C2199 1.389 . S
C2198 H2171 0.950 . S
C2198 C2184 1.377 . S
C2198 C2197 1.373 . S
C2199 C2183 1.377 . S
C2199 C2197 1.389 . S
C2199 C2200 1.524 . S
C2200 C2199 1.524 . S
C2200 C2201 1.397 . S
C2200 C2205 1.363 . S
C2201 H2172 0.950 . S
C2201 C2200 1.397 . S
C2201 C2202 1.334 . S
C2202 H2173 0.950 . S
C2202 C2201 1.334 . S
C2202 C2203 1.287 . S
C2203 C2202 1.287 . S
C2203 C2204 1.524 . S
C2203 H2206 0.999 . S
C2204 H2174 0.950 . S
C2204 C2203 1.524 . S
C2204 C2205 1.415 . S
C2205 H2175 0.950 . S
C2205 C2200 1.363 . S
C2205 C2204 1.415 . S
H2206 C2203 0.999 . S
H2207 C2188 0.913 . S
H2208 C2226 0.951 . S
H2209 C2228 0.951 . S
H2210 C2230 0.950 . S
H2211 C2231 0.950 . S
H2212 C2233 0.950 . S
H2213 C2236 0.950 . S
H2214 C2237 0.950 . S
H2215 C2239 0.950 . S
H2216 C2240 0.950 . S
H2217 C2241 0.951 . S
H2218 C2243 0.951 . S
H2219 C2245 0.950 . S
H2220 C2246 0.950 . S
H2221 C2248 0.950 . S
H2222 C2251 0.950 . S
H2223 C2252 0.950 . S
H2224 C2254 0.950 . S
H2225 C2255 0.950 . S
C2226 H2208 0.951 . S
C2226 C2227 1.366 . S
C2226 C2228 1.388 . S
C2227 C2226 1.366 . S
C2227 C2231 1.385 . S
C2228 H2209 0.951 . S
C2228 C2226 1.388 . S
C2228 C2229 1.366 . S
C2229 C2228 1.366 . S
C2229 C2230 1.414 . S
C2229 C2232 1.499 . S
C2230 H2210 0.950 . S
C2230 C2229 1.414 . S
C2230 C2231 1.374 . S
C2231 H2211 0.950 . S
C2231 C2227 1.385 . S
C2231 C2230 1.374 . S
C2232 C2229 1.499 . S
C2232 C2233 1.373 . S
C2232 C2234 1.389 . S
C2233 H2212 0.950 . S
C2233 C2232 1.373 . S
C2233 C2249 1.377 1_566 S
C2234 C2232 1.389 . S
C2234 C2235 1.524 . S
C2234 C2248 1.377 1_566 S
C2235 C2234 1.524 . S
C2235 C2236 1.397 . S
C2235 C2240 1.363 1_556 S
C2236 H2213 0.950 . S
C2236 C2235 1.397 . S
C2236 C2237 1.334 . S
C2237 H2214 0.950 . S
C2237 C2236 1.334 . S
C2237 C2238 1.287 . S
C2238 C2237 1.287 . S
C2238 C2239 1.524 1_556 S
C2238 H2257 0.913 . S
C2239 H2215 0.950 . S
C2239 C2238 1.524 1_554 S
C2239 C2240 1.415 . S
C2240 H2216 0.950 . S
C2240 C2235 1.363 1_554 S
C2240 C2239 1.415 . S
C2241 H2217 0.951 . S
C2241 C2242 1.366 . S
C2241 C2243 1.388 . S
C2242 C2241 1.366 . S
C2242 C2246 1.385 . S
C2243 H2218 0.951 . S
C2243 C2241 1.388 . S
C2243 C2244 1.366 . S
C2244 C2243 1.366 . S
C2244 C2245 1.414 . S
C2244 C2247 1.499 . S
C2245 H2219 0.950 . S
C2245 C2244 1.414 . S
C2245 C2246 1.374 . S
C2246 H2220 0.950 . S
C2246 C2242 1.385 . S
C2246 C2245 1.374 . S
C2247 C2244 1.499 . S
C2247 C2248 1.373 . S
C2247 C2249 1.389 . S
C2248 H2221 0.950 . S
C2248 C2234 1.377 1_544 S
C2248 C2247 1.373 . S
C2249 C2233 1.377 1_544 S
C2249 C2247 1.389 . S
C2249 C2250 1.524 . S
C2250 C2249 1.524 . S
C2250 C2251 1.397 . S
C2250 C2255 1.363 1_554 S
C2251 H2222 0.950 . S
C2251 C2250 1.397 . S
C2251 C2252 1.334 . S
C2252 H2223 0.950 . S
C2252 C2251 1.334 . S
C2252 C2253 1.287 . S
C2253 C2252 1.287 . S
C2253 C2254 1.524 1_554 S
C2253 H2256 0.999 . S
C2254 H2224 0.950 . S
C2254 C2253 1.524 1_556 S
C2254 C2255 1.415 . S
C2255 H2225 0.950 . S
C2255 C2250 1.363 1_556 S
C2255 C2254 1.415 . S
H2256 C2253 0.999 . S
H2257 C2238 0.913 . S
H2258 C2276 0.951 . S
H2259 C2278 0.951 . S
H2260 C2280 0.950 . S
H2261 C2281 0.950 . S
H2262 C2283 0.950 . S
H2263 C2286 0.950 . S
H2264 C2287 0.950 . S
H2265 C2289 0.950 . S
H2266 C2290 0.950 . S
H2267 C2291 0.951 . S
H2268 C2293 0.951 . S
H2269 C2295 0.950 . S
H2270 C2296 0.950 . S
H2271 C2298 0.950 . S
H2272 C2301 0.950 . S
H2273 C2302 0.950 . S
H2274 C2304 0.950 . S
H2275 C2305 0.950 . S
C2276 H2258 0.951 . S
C2276 C2277 1.366 . S
C2276 C2278 1.388 . S
C2277 C2276 1.366 . S
C2277 C2281 1.385 . S
C2278 H2259 0.951 . S
C2278 C2276 1.388 . S
C2278 C2279 1.366 . S
C2279 C2278 1.366 . S
C2279 C2280 1.414 . S
C2279 C2282 1.499 . S
C2280 H2260 0.950 . S
C2280 C2279 1.414 . S
C2280 C2281 1.374 . S
C2281 H2261 0.950 . S
C2281 C2277 1.385 . S
C2281 C2280 1.374 . S
C2282 C2279 1.499 . S
C2282 C2283 1.373 . S
C2282 C2284 1.389 1_554 S
C2283 H2262 0.950 . S
C2283 C2282 1.373 . S
C2283 C2299 1.377 . S
C2284 C2282 1.389 1_556 S
C2284 C2285 1.524 . S
C2284 C2298 1.377 . S
C2285 C2284 1.524 . S
C2285 C2286 1.397 . S
C2285 C2290 1.363 . S
C2286 H2263 0.950 . S
C2286 C2285 1.397 . S
C2286 C2287 1.334 . S
C2287 H2264 0.950 . S
C2287 C2286 1.334 . S
C2287 C2288 1.287 . S
C2288 C2287 1.287 . S
C2288 C2289 1.524 . S
C2288 H2307 0.913 . S
C2289 H2265 0.950 . S
C2289 C2288 1.524 . S
C2289 C2290 1.415 . S
C2290 H2266 0.950 . S
C2290 C2285 1.363 . S
C2290 C2289 1.415 . S
C2291 H2267 0.951 . S
C2291 C2292 1.366 . S
C2291 C2293 1.388 . S
C2292 C2291 1.366 . S
C2292 C2296 1.385 . S
C2293 H2268 0.951 . S
C2293 C2291 1.388 . S
C2293 C2294 1.366 . S
C2294 C2293 1.366 . S
C2294 C2295 1.414 . S
C2294 C2297 1.499 . S
C2295 H2269 0.950 . S
C2295 C2294 1.414 . S
C2295 C2296 1.374 . S
C2296 H2270 0.950 . S
C2296 C2292 1.385 . S
C2296 C2295 1.374 . S
C2297 C2294 1.499 . S
C2297 C2298 1.373 . S
C2297 C2299 1.389 1_556 S
C2298 H2271 0.950 . S
C2298 C2284 1.377 . S
C2298 C2297 1.373 . S
C2299 C2283 1.377 . S
C2299 C2297 1.389 1_554 S
C2299 C2300 1.524 . S
C2300 C2299 1.524 . S
C2300 C2301 1.397 . S
C2300 C2305 1.363 . S
C2301 H2272 0.950 . S
C2301 C2300 1.397 . S
C2301 C2302 1.334 . S
C2302 H2273 0.950 . S
C2302 C2301 1.334 . S
C2302 C2303 1.287 . S
C2303 C2302 1.287 . S
C2303 C2304 1.524 . S
C2303 H2306 0.999 . S
C2304 H2274 0.950 . S
C2304 C2303 1.524 . S
C2304 C2305 1.415 . S
C2305 H2275 0.950 . S
C2305 C2300 1.363 . S
C2305 C2304 1.415 . S
H2306 C2303 0.999 . S
H2307 C2288 0.913 . S
H2308 C2326 0.951 . S
H2309 C2328 0.951 . S
H2310 C2330 0.950 . S
H2311 C2331 0.934 1_655 S
H2312 C2333 0.950 . S
H2313 C2336 0.950 . S
H2314 C2337 0.950 . S
H2315 C2339 0.950 . S
H2316 C2340 0.950 1_455 S
H2317 C2341 0.951 . S
H2318 C2343 0.951 . S
H2319 C2345 0.950 . S
H2320 C2346 0.950 1_455 S
H2321 C2348 0.950 . S
H2322 C2351 0.950 . S
H2323 C2352 0.950 . S
H2324 C2354 0.950 . S
H2325 C2355 0.950 1_655 S
C2326 H2308 0.951 . S
C2326 C2327 1.366 . S
C2326 C2328 1.388 . S
C2327 C2326 1.366 . S
C2327 C2331 1.409 . S
C2328 H2309 0.951 . S
C2328 C2326 1.388 . S
C2328 C2329 1.366 . S
C2329 C2328 1.366 . S
C2329 C2330 1.414 1_455 S
C2329 C2332 1.499 . S
C2330 H2310 0.950 . S
C2330 C2329 1.414 1_655 S
C2330 C2331 1.367 1_655 S
C2331 H2311 0.934 1_455 S
C2331 C2327 1.409 . S
C2331 C2330 1.367 1_455 S
C2332 C2329 1.499 . S
C2332 C2333 1.373 1_556 S
C2332 C2334 1.389 1_455 S
C2333 H2312 0.950 . S
C2333 C2332 1.373 1_554 S
C2333 C2349 1.377 . S
C2334 C2332 1.389 1_655 S
C2334 C2335 1.524 . S
C2334 C2348 1.377 . S
C2335 C2334 1.524 . S
C2335 C2336 1.397 . S
C2335 C2340 1.363 . S
C2336 H2313 0.950 . S
C2336 C2335 1.397 . S
C2336 C2337 1.334 . S
C2337 H2314 0.950 . S
C2337 C2336 1.334 . S
C2337 C2338 1.287 . S
C2338 C2337 1.287 . S
C2338 C2339 1.524 . S
C2338 H2357 0.913 . S
C2339 H2315 0.950 . S
C2339 C2338 1.524 . S
C2339 C2340 1.415 . S
C2340 H2316 0.950 1_655 S
C2340 C2335 1.363 . S
C2340 C2339 1.415 . S
C2341 H2317 0.951 . S
C2341 C2342 1.366 . S
C2341 C2343 1.388 . S
C2342 C2341 1.366 . S
C2342 C2346 1.385 . S
C2343 H2318 0.951 . S
C2343 C2341 1.388 . S
C2343 C2344 1.366 . S
C2344 C2343 1.366 . S
C2344 C2345 1.414 1_655 S
C2344 C2347 1.499 . S
C2345 H2319 0.950 . S
C2345 C2344 1.414 1_455 S
C2345 C2346 1.374 1_455 S
C2346 H2320 0.950 1_655 S
C2346 C2342 1.385 . S
C2346 C2345 1.374 1_655 S
C2347 C2344 1.499 . S
C2347 C2348 1.373 1_554 S
C2347 C2349 1.389 1_655 S
C2348 H2321 0.950 . S
C2348 C2334 1.377 . S
C2348 C2347 1.373 1_556 S
C2349 C2333 1.377 . S
C2349 C2347 1.389 1_455 S
C2349 C2350 1.524 . S
C2350 C2349 1.524 . S
C2350 C2351 1.397 . S
C2350 C2355 1.363 . S
C2351 H2322 0.950 . S
C2351 C2350 1.397 . S
C2351 C2352 1.334 . S
C2352 H2323 0.950 . S
C2352 C2351 1.334 . S
C2352 C2353 1.287 . S
C2353 C2352 1.287 . S
C2353 C2354 1.524 . S
C2353 H2356 0.999 . S
C2354 H2324 0.950 . S
C2354 C2353 1.524 . S
C2354 C2355 1.415 . S
C2355 H2325 0.950 1_455 S
C2355 C2350 1.363 . S
C2355 C2354 1.415 . S
H2356 C2353 0.999 . S
H2357 C2338 0.913 . S
H2358 C2376 0.951 . S
H2359 C2378 0.951 . S
H2360 C2380 0.950 . S
H2361 C2381 0.978 . S
H2362 C2383 0.954 . S
H2363 C2386 0.950 . S
H2364 C2387 0.950 . S
H2365 C2389 0.950 . S
H2366 C2390 0.950 . S
H2367 C2391 0.951 . S
H2368 C2393 0.951 . S
H2369 C2395 0.950 . S
H2370 C2396 0.950 . S
H2371 C2398 0.954 . S
H2372 C2401 0.950 . S
H2373 C2402 0.950 . S
H2374 C2404 0.950 . S
H2375 C2405 0.950 . S
C2376 H2358 0.951 . S
C2376 C2377 1.366 . S
C2376 C2378 1.388 . S
C2377 C2376 1.366 . S
C2377 C2381 1.349 1_565 S
C2378 H2359 0.951 . S
C2378 C2376 1.388 . S
C2378 C2379 1.366 . S
C2379 C2378 1.366 . S
C2379 C2380 1.414 1_565 S
C2379 C2382 1.499 . S
C2380 H2360 0.950 . S
C2380 C2379 1.414 1_545 S
C2380 C2381 1.383 . S
C2381 H2361 0.978 . S
C2381 C2377 1.349 1_545 S
C2381 C2380 1.383 . S
C2382 C2379 1.499 . S
C2382 C2383 1.334 1_455 S
C2382 C2384 1.389 1_554 S
C2383 H2362 0.954 . S
C2383 C2382 1.334 1_655 S
C2383 C2399 1.419 . S
C2384 C2382 1.389 1_556 S
C2384 C2385 1.524 1_565 S
C2384 C2398 1.414 1_565 S
C2385 C2384 1.524 1_545 S
C2385 C2386 1.397 . S
C2385 C2390 1.363 1_545 S
C2386 H2363 0.950 . S
C2386 C2385 1.397 . S
C2386 C2387 1.334 . S
C2387 H2364 0.950 . S
C2387 C2386 1.334 . S
C2387 C2388 1.287 . S
C2388 C2387 1.287 . S
C2388 C2389 1.524 1_545 S
C2388 H2407 0.913 . S
C2389 H2365 0.950 . S
C2389 C2388 1.524 1_565 S
C2389 C2390 1.415 . S
C2390 H2366 0.950 . S
C2390 C2385 1.363 1_565 S
C2390 C2389 1.415 . S
C2391 H2367 0.951 . S
C2391 C2392 1.366 . S
C2391 C2393 1.388 . S
C2392 C2391 1.366 . S
C2392 C2396 1.385 1_545 S
C2393 H2368 0.951 . S
C2393 C2391 1.388 . S
C2393 C2394 1.366 . S
C2394 C2393 1.366 . S
C2394 C2395 1.414 1_545 S
C2394 C2397 1.499 . S
C2395 H2369 0.950 . S
C2395 C2394 1.414 1_565 S
C2395 C2396 1.374 . S
C2396 H2370 0.950 . S
C2396 C2392 1.385 1_565 S
C2396 C2395 1.374 . S
C2397 C2394 1.499 . S
C2397 C2398 1.334 1_655 S
C2397 C2399 1.385 1_546 S
C2398 H2371 0.954 . S
C2398 C2384 1.414 1_545 S
C2398 C2397 1.334 1_455 S
C2399 C2383 1.419 . S
C2399 C2397 1.385 1_564 S
C2399 C2400 1.530 . S
C2400 C2399 1.530 . S
C2400 C2401 1.397 . S
C2400 C2405 1.363 1_565 S
C2401 H2372 0.950 . S
C2401 C2400 1.397 . S
C2401 C2402 1.334 . S
C2402 H2373 0.950 . S
C2402 C2401 1.334 . S
C2402 C2403 1.287 . S
C2403 C2402 1.287 . S
C2403 C2404 1.524 1_565 S
C2403 H2406 0.999 . S
C2404 H2374 0.950 . S
C2404 C2403 1.524 1_545 S
C2404 C2405 1.415 . S
C2405 H2375 0.950 . S
C2405 C2400 1.363 1_545 S
C2405 C2404 1.415 . S
H2406 C2403 0.999 . S
H2407 C2388 0.913 . S
H2408 C2426 0.951 . S
H2409 C2428 0.951 . S
H2410 C2430 0.950 . S
H2411 C2431 0.950 . S
H2412 C2433 0.950 . S
H2413 C2436 0.950 . S
H2414 C2437 0.950 . S
H2415 C2439 0.950 . S
H2416 C2440 0.950 . S
H2417 C2441 0.951 . S
H2418 C2443 0.951 . S
H2419 C2445 0.950 . S
H2420 C2446 0.950 . S
H2421 C2448 0.950 . S
H2422 C2451 0.950 . S
H2423 C2452 0.950 . S
H2424 C2454 0.950 . S
H2425 C2455 0.950 . S
C2426 H2408 0.951 . S
C2426 C2427 1.366 . S
C2426 C2428 1.388 . S
C2427 C2426 1.366 . S
C2427 C2431 1.385 . S
C2428 H2409 0.951 . S
C2428 C2426 1.388 . S
C2428 C2429 1.366 . S
C2429 C2428 1.366 . S
C2429 C2430 1.414 . S
C2429 C2432 1.499 . S
C2430 H2410 0.950 . S
C2430 C2429 1.414 . S
C2430 C2431 1.374 . S
C2431 H2411 0.950 . S
C2431 C2427 1.385 . S
C2431 C2430 1.374 . S
C2432 C2429 1.499 . S
C2432 C2433 1.373 . S
C2432 C2434 1.389 . S
C2433 H2412 0.950 . S
C2433 C2432 1.373 . S
C2433 C2449 1.377 . S
C2434 C2432 1.389 . S
C2434 C2435 1.524 . S
C2434 C2448 1.377 . S
C2435 C2434 1.524 . S
C2435 C2436 1.397 . S
C2435 C2440 1.363 . S
C2436 H2413 0.950 . S
C2436 C2435 1.397 . S
C2436 C2437 1.334 . S
C2437 H2414 0.950 . S
C2437 C2436 1.334 . S
C2437 C2438 1.287 . S
C2438 C2437 1.287 . S
C2438 C2439 1.524 . S
C2438 H2457 0.913 . S
C2439 H2415 0.950 . S
C2439 C2438 1.524 . S
C2439 C2440 1.415 . S
C2440 H2416 0.950 . S
C2440 C2435 1.363 . S
C2440 C2439 1.415 . S
C2441 H2417 0.951 . S
C2441 C2442 1.366 . S
C2441 C2443 1.388 . S
C2442 C2441 1.366 . S
C2442 C2446 1.385 . S
C2443 H2418 0.951 . S
C2443 C2441 1.388 . S
C2443 C2444 1.366 . S
C2444 C2443 1.366 . S
C2444 C2445 1.414 . S
C2444 C2447 1.499 . S
C2445 H2419 0.950 . S
C2445 C2444 1.414 . S
C2445 C2446 1.374 . S
C2446 H2420 0.950 . S
C2446 C2442 1.385 . S
C2446 C2445 1.374 . S
C2447 C2444 1.499 . S
C2447 C2448 1.373 . S
C2447 C2449 1.389 . S
C2448 H2421 0.950 . S
C2448 C2434 1.377 . S
C2448 C2447 1.373 . S
C2449 C2433 1.377 . S
C2449 C2447 1.389 . S
C2449 C2450 1.524 . S
C2450 C2449 1.524 . S
C2450 C2451 1.397 . S
C2450 C2455 1.363 . S
C2451 H2422 0.950 . S
C2451 C2450 1.397 . S
C2451 C2452 1.334 . S
C2452 H2423 0.950 . S
C2452 C2451 1.334 . S
C2452 C2453 1.287 . S
C2453 C2452 1.287 . S
C2453 C2454 1.524 . S
C2453 H2456 0.999 . S
C2454 H2424 0.950 . S
C2454 C2453 1.524 . S
C2454 C2455 1.415 . S
C2455 H2425 0.950 . S
C2455 C2450 1.363 . S
C2455 C2454 1.415 . S
H2456 C2453 0.999 . S
H2457 C2438 0.913 . S
H2458 C2476 0.951 . S
H2459 C2478 0.951 . S
H2460 C2480 0.950 . S
H2461 C2481 0.950 . S
H2462 C2483 0.950 . S
H2463 C2486 0.950 . S
H2464 C2487 0.950 . S
H2465 C2489 0.950 . S
H2466 C2490 0.950 . S
H2467 C2491 0.951 . S
H2468 C2493 0.951 . S
H2469 C2495 0.950 . S
H2470 C2496 0.950 . S
H2471 C2498 0.950 . S
H2472 C2501 0.950 . S
H2473 C2502 0.950 . S
H2474 C2504 0.950 . S
H2475 C2505 0.950 . S
C2476 H2458 0.951 . S
C2476 C2477 1.366 . S
C2476 C2478 1.388 . S
C2477 C2476 1.366 . S
C2477 C2481 1.385 . S
C2478 H2459 0.951 . S
C2478 C2476 1.388 . S
C2478 C2479 1.366 . S
C2479 C2478 1.366 . S
C2479 C2480 1.414 . S
C2479 C2482 1.499 . S
C2480 H2460 0.950 . S
C2480 C2479 1.414 . S
C2480 C2481 1.374 . S
C2481 H2461 0.950 . S
C2481 C2477 1.385 . S
C2481 C2480 1.374 . S
C2482 C2479 1.499 . S
C2482 C2483 1.373 . S
C2482 C2484 1.389 . S
C2483 H2462 0.950 . S
C2483 C2482 1.373 . S
C2483 C2499 1.377 1_455 S
C2484 C2482 1.389 . S
C2484 C2485 1.524 . S
C2484 C2498 1.377 1_455 S
C2485 C2484 1.524 . S
C2485 C2486 1.397 . S
C2485 C2490 1.363 1_455 S
C2486 H2463 0.950 . S
C2486 C2485 1.397 . S
C2486 C2487 1.334 . S
C2487 H2464 0.950 . S
C2487 C2486 1.334 . S
C2487 C2488 1.287 . S
C2488 C2487 1.287 . S
C2488 C2489 1.524 1_455 S
C2488 H2507 0.913 . S
C2489 H2465 0.950 . S
C2489 C2488 1.524 1_655 S
C2489 C2490 1.415 . S
C2490 H2466 0.950 . S
C2490 C2485 1.363 1_655 S
C2490 C2489 1.415 . S
C2491 H2467 0.951 . S
C2491 C2492 1.366 . S
C2491 C2493 1.388 . S
C2492 C2491 1.366 . S
C2492 C2496 1.385 . S
C2493 H2468 0.951 . S
C2493 C2491 1.388 . S
C2493 C2494 1.366 . S
C2494 C2493 1.366 . S
C2494 C2495 1.414 . S
C2494 C2497 1.499 . S
C2495 H2469 0.950 . S
C2495 C2494 1.414 . S
C2495 C2496 1.374 . S
C2496 H2470 0.950 . S
C2496 C2492 1.385 . S
C2496 C2495 1.374 . S
C2497 C2494 1.499 . S
C2497 C2498 1.373 . S
C2497 C2499 1.389 . S
C2498 H2471 0.950 . S
C2498 C2484 1.377 1_655 S
C2498 C2497 1.373 . S
C2499 C2483 1.377 1_655 S
C2499 C2497 1.389 . S
C2499 C2500 1.524 . S
C2500 C2499 1.524 . S
C2500 C2501 1.397 . S
C2500 C2505 1.363 1_655 S
C2501 H2472 0.950 . S
C2501 C2500 1.397 . S
C2501 C2502 1.334 . S
C2502 H2473 0.950 . S
C2502 C2501 1.334 . S
C2502 C2503 1.287 . S
C2503 C2502 1.287 . S
C2503 C2504 1.524 1_655 S
C2503 H2506 0.999 . S
C2504 H2474 0.950 . S
C2504 C2503 1.524 1_455 S
C2504 C2505 1.415 . S
C2505 H2475 0.950 . S
C2505 C2500 1.363 1_455 S
C2505 C2504 1.415 . S
H2506 C2503 0.999 . S
H2507 C2488 0.913 . S
H2508 C2526 0.951 . S
H2509 C2528 0.951 . S
H2510 C2530 0.950 . S
H2511 C2531 0.950 . S
H2512 C2533 0.955 . S
H2513 C2536 0.950 . S
H2514 C2537 0.950 . S
H2515 C2539 0.950 . S
H2516 C2540 0.950 . S
H2517 C2541 0.951 . S
H2518 C2543 0.951 . S
H2519 C2545 0.950 . S
H2520 C2546 0.950 . S
H2521 C2548 0.954 . S
H2522 C2551 0.950 . S
H2523 C2552 0.950 . S
H2524 C2554 0.950 . S
H2525 C2555 0.950 . S
C2526 H2508 0.951 . S
C2526 C2527 1.366 1_655 S
C2526 C2528 1.388 . S
C2527 C2526 1.366 1_455 S
C2527 C2531 1.385 . S
C2528 H2509 0.951 . S
C2528 C2526 1.388 . S
C2528 C2529 1.366 1_655 S
C2529 C2528 1.366 1_455 S
C2529 C2530 1.414 . S
C2529 C2532 1.499 . S
C2530 H2510 0.950 . S
C2530 C2529 1.414 . S
C2530 C2531 1.374 . S
C2531 H2511 0.950 . S
C2531 C2527 1.385 . S
C2531 C2530 1.374 . S
C2532 C2529 1.499 . S
C2532 C2533 1.329 1_565 S
C2532 C2534 1.399 . S
C2533 H2512 0.955 . S
C2533 C2532 1.329 1_545 S
C2533 C2549 1.418 1_455 S
C2534 C2532 1.399 . S
C2534 C2535 1.533 . S
C2534 C2548 1.406 1_455 S
C2535 C2534 1.533 . S
C2535 C2536 1.397 . S
C2535 C2540 1.363 1_455 S
C2536 H2513 0.950 . S
C2536 C2535 1.397 . S
C2536 C2537 1.334 . S
C2537 H2514 0.950 . S
C2537 C2536 1.334 . S
C2537 C2538 1.287 . S
C2538 C2537 1.287 . S
C2538 C2539 1.524 1_455 S
C2538 H2557 0.913 . S
C2539 H2515 0.950 . S
C2539 C2538 1.524 1_655 S
C2539 C2540 1.415 . S
C2540 H2516 0.950 . S
C2540 C2535 1.363 1_655 S
C2540 C2539 1.415 . S
C2541 H2517 0.951 . S
C2541 C2542 1.366 1_455 S
C2541 C2543 1.388 . S
C2542 C2541 1.366 1_655 S
C2542 C2546 1.385 . S
C2543 H2518 0.951 . S
C2543 C2541 1.388 . S
C2543 C2544 1.366 1_455 S
C2544 C2543 1.366 1_655 S
C2544 C2545 1.414 . S
C2544 C2547 1.499 . S
C2545 H2519 0.950 . S
C2545 C2544 1.414 . S
C2545 C2546 1.374 . S
C2546 H2520 0.950 . S
C2546 C2542 1.385 . S
C2546 C2545 1.374 . S
C2547 C2544 1.499 . S
C2547 C2548 1.330 1_545 S
C2547 C2549 1.389 . S
C2548 H2521 0.954 . S
C2548 C2534 1.406 1_655 S
C2548 C2547 1.330 1_565 S
C2549 C2533 1.418 1_655 S
C2549 C2547 1.389 . S
C2549 C2550 1.524 . S
C2550 C2549 1.524 . S
C2550 C2551 1.397 . S
C2550 C2555 1.363 1_655 S
C2551 H2522 0.950 . S
C2551 C2550 1.397 . S
C2551 C2552 1.334 . S
C2552 H2523 0.950 . S
C2552 C2551 1.334 . S
C2552 C2553 1.287 . S
C2553 C2552 1.287 . S
C2553 C2554 1.524 1_655 S
C2553 H2556 0.999 . S
C2554 H2524 0.950 . S
C2554 C2553 1.524 1_455 S
C2554 C2555 1.415 . S
C2555 H2525 0.950 . S
C2555 C2550 1.363 1_455 S
C2555 C2554 1.415 . S
H2556 C2553 0.999 . S
H2557 C2538 0.913 . S
H2558 C2576 0.967 . S
H2559 C2578 0.951 1_565 S
H2560 C2580 0.950 . S
H2561 C2581 0.950 . S
H2562 C2583 0.950 . S
H2563 C2586 0.950 . S
H2564 C2587 0.950 . S
H2565 C2589 0.950 . S
H2566 C2590 0.950 . S
H2567 C2591 0.951 . S
H2568 C2593 0.951 1_545 S
H2569 C2595 0.950 . S
H2570 C2596 0.950 . S
H2571 C2598 0.950 . S
H2572 C2601 0.950 . S
H2573 C2602 0.950 . S
H2574 C2604 0.950 . S
H2575 C2605 0.950 . S
C2576 H2558 0.967 . S
C2576 C2577 1.366 . S
C2576 C2578 1.388 . S
C2577 C2576 1.366 . S
C2577 C2581 1.385 . S
C2578 H2559 0.951 1_545 S
C2578 C2576 1.388 . S
C2578 C2579 1.366 . S
C2579 C2578 1.366 . S
C2579 C2580 1.414 . S
C2579 C2582 1.499 . S
C2580 H2560 0.950 . S
C2580 C2579 1.414 . S
C2580 C2581 1.374 . S
C2581 H2561 0.950 . S
C2581 C2577 1.385 . S
C2581 C2580 1.374 . S
C2582 C2579 1.499 . S
C2582 C2583 1.373 1_545 S
C2582 C2584 1.389 . S
C2583 H2562 0.950 . S
C2583 C2582 1.373 1_565 S
C2583 C2599 1.377 . S
C2584 C2582 1.389 . S
C2584 C2585 1.524 . S
C2584 C2598 1.377 . S
C2585 C2584 1.524 . S
C2585 C2586 1.397 . S
C2585 C2590 1.363 . S
C2586 H2563 0.950 . S
C2586 C2585 1.397 . S
C2586 C2587 1.334 . S
C2587 H2564 0.950 . S
C2587 C2586 1.334 . S
C2587 C2588 1.287 . S
C2588 C2587 1.287 . S
C2588 C2589 1.524 . S
C2588 H2607 0.913 . S
C2589 H2565 0.950 . S
C2589 C2588 1.524 . S
C2589 C2590 1.415 . S
C2590 H2566 0.950 . S
C2590 C2585 1.363 . S
C2590 C2589 1.415 . S
C2591 H2567 0.951 . S
C2591 C2592 1.366 . S
C2591 C2593 1.388 . S
C2592 C2591 1.366 . S
C2592 C2596 1.385 . S
C2593 H2568 0.951 1_565 S
C2593 C2591 1.388 . S
C2593 C2594 1.366 . S
C2594 C2593 1.366 . S
C2594 C2595 1.414 . S
C2594 C2597 1.499 . S
C2595 H2569 0.950 . S
C2595 C2594 1.414 . S
C2595 C2596 1.374 . S
C2596 H2570 0.950 . S
C2596 C2592 1.385 . S
C2596 C2595 1.374 . S
C2597 C2594 1.499 . S
C2597 C2598 1.373 1_565 S
C2597 C2599 1.389 . S
C2598 H2571 0.950 . S
C2598 C2584 1.377 . S
C2598 C2597 1.373 1_545 S
C2599 C2583 1.377 . S
C2599 C2597 1.389 . S
C2599 C2600 1.524 . S
C2600 C2599 1.524 . S
C2600 C2601 1.397 . S
C2600 C2605 1.363 . S
C2601 H2572 0.950 . S
C2601 C2600 1.397 . S
C2601 C2602 1.334 . S
C2602 H2573 0.950 . S
C2602 C2601 1.334 . S
C2602 C2603 1.287 . S
C2603 C2602 1.287 . S
C2603 C2604 1.524 . S
C2603 H2606 0.999 . S
C2604 H2574 0.950 . S
C2604 C2603 1.524 . S
C2604 C2605 1.415 . S
C2605 H2575 0.950 . S
C2605 C2600 1.363 . S
C2605 C2604 1.415 . S
H2606 C2603 0.999 . S
H2607 C2588 0.913 . S
H2608 C2626 0.951 . S
H2609 C2628 0.951 . S
H2610 C2630 0.950 . S
H2611 C2631 0.950 . S
H2612 C2633 0.950 . S
H2613 C2636 0.950 . S
H2614 C2637 0.950 . S
H2615 C2639 0.950 . S
H2616 C2640 0.950 . S
H2617 C2641 0.951 . S
H2618 C2643 0.951 . S
H2619 C2645 0.950 . S
H2620 C2646 0.950 . S
H2621 C2648 0.950 . S
H2622 C2651 0.950 . S
H2623 C2652 0.950 . S
H2624 C2654 0.950 . S
H2625 C2655 0.950 . S
C2626 H2608 0.951 . S
C2626 C2627 1.366 . S
C2626 C2628 1.388 . S
C2627 C2626 1.366 . S
C2627 C2631 1.385 . S
C2628 H2609 0.951 . S
C2628 C2626 1.388 . S
C2628 C2629 1.366 . S
C2629 C2628 1.366 . S
C2629 C2630 1.414 . S
C2629 C2632 1.499 . S
C2630 H2610 0.950 . S
C2630 C2629 1.414 . S
C2630 C2631 1.374 . S
C2631 H2611 0.950 . S
C2631 C2627 1.385 . S
C2631 C2630 1.374 . S
C2632 C2629 1.499 . S
C2632 C2633 1.373 . S
C2632 C2634 1.389 . S
C2633 H2612 0.950 . S
C2633 C2632 1.373 . S
C2633 C2649 1.377 . S
C2634 C2632 1.389 . S
C2634 C2635 1.524 . S
C2634 C2648 1.377 . S
C2635 C2634 1.524 . S
C2635 C2636 1.397 . S
C2635 C2640 1.363 . S
C2636 H2613 0.950 . S
C2636 C2635 1.397 . S
C2636 C2637 1.334 . S
C2637 H2614 0.950 . S
C2637 C2636 1.334 . S
C2637 C2638 1.287 . S
C2638 C2637 1.287 . S
C2638 C2639 1.524 . S
C2638 H2657 0.913 . S
C2639 H2615 0.950 . S
C2639 C2638 1.524 . S
C2639 C2640 1.415 . S
C2640 H2616 0.950 . S
C2640 C2635 1.363 . S
C2640 C2639 1.415 . S
C2641 H2617 0.951 . S
C2641 C2642 1.366 . S
C2641 C2643 1.388 . S
C2642 C2641 1.366 . S
C2642 C2646 1.385 . S
C2643 H2618 0.951 . S
C2643 C2641 1.388 . S
C2643 C2644 1.366 . S
C2644 C2643 1.366 . S
C2644 C2645 1.414 . S
C2644 C2647 1.499 . S
C2645 H2619 0.950 . S
C2645 C2644 1.414 . S
C2645 C2646 1.374 . S
C2646 H2620 0.950 . S
C2646 C2642 1.385 . S
C2646 C2645 1.374 . S
C2647 C2644 1.499 . S
C2647 C2648 1.373 . S
C2647 C2649 1.389 . S
C2648 H2621 0.950 . S
C2648 C2634 1.377 . S
C2648 C2647 1.373 . S
C2649 C2633 1.377 . S
C2649 C2647 1.389 . S
C2649 C2650 1.524 . S
C2650 C2649 1.524 . S
C2650 C2651 1.397 . S
C2650 C2655 1.363 . S
C2651 H2622 0.950 . S
C2651 C2650 1.397 . S
C2651 C2652 1.334 . S
C2652 H2623 0.950 . S
C2652 C2651 1.334 . S
C2652 C2653 1.287 . S
C2653 C2652 1.287 . S
C2653 C2654 1.524 . S
C2653 H2656 0.999 . S
C2654 H2624 0.950 . S
C2654 C2653 1.524 . S
C2654 C2655 1.415 . S
C2655 H2625 0.950 . S
C2655 C2650 1.363 . S
C2655 C2654 1.415 . S
H2656 C2653 0.999 . S
H2657 C2638 0.913 . S
H2658 C2676 0.951 . S
H2659 C2678 0.951 . S
H2660 C2680 0.950 . S
H2661 C2681 0.950 . S
H2662 C2683 0.950 . S
H2663 C2686 0.950 . S
H2664 C2687 0.950 . S
H2665 C2689 0.950 . S
H2666 C2690 0.950 . S
H2667 C2691 0.951 . S
H2668 C2693 0.951 . S
H2669 C2695 0.950 . S
H2670 C2696 0.950 . S
H2671 C2698 0.950 . S
H2672 C2701 0.950 . S
H2673 C2702 0.950 . S
H2674 C2704 0.950 . S
H2675 C2705 0.950 . S
C2676 H2658 0.951 . S
C2676 C2677 1.366 . S
C2676 C2678 1.388 . S
C2677 C2676 1.366 . S
C2677 C2681 1.385 . S
C2678 H2659 0.951 . S
C2678 C2676 1.388 . S
C2678 C2679 1.366 . S
C2679 C2678 1.366 . S
C2679 C2680 1.414 . S
C2679 C2682 1.499 . S
C2680 H2660 0.950 . S
C2680 C2679 1.414 . S
C2680 C2681 1.374 . S
C2681 H2661 0.950 . S
C2681 C2677 1.385 . S
C2681 C2680 1.374 . S
C2682 C2679 1.499 . S
C2682 C2683 1.373 . S
C2682 C2684 1.389 . S
C2683 H2662 0.950 . S
C2683 C2682 1.373 . S
C2683 C2699 1.377 . S
C2684 C2682 1.389 . S
C2684 C2685 1.524 . S
C2684 C2698 1.377 . S
C2685 C2684 1.524 . S
C2685 C2686 1.397 . S
C2685 C2690 1.363 . S
C2686 H2663 0.950 . S
C2686 C2685 1.397 . S
C2686 C2687 1.334 . S
C2687 H2664 0.950 . S
C2687 C2686 1.334 . S
C2687 C2688 1.287 . S
C2688 C2687 1.287 . S
C2688 C2689 1.524 . S
C2688 H2707 0.913 . S
C2689 H2665 0.950 . S
C2689 C2688 1.524 . S
C2689 C2690 1.415 . S
C2690 H2666 0.950 . S
C2690 C2685 1.363 . S
C2690 C2689 1.415 . S
C2691 H2667 0.951 . S
C2691 C2692 1.366 . S
C2691 C2693 1.388 . S
C2692 C2691 1.366 . S
C2692 C2696 1.385 . S
C2693 H2668 0.951 . S
C2693 C2691 1.388 . S
C2693 C2694 1.366 . S
C2694 C2693 1.366 . S
C2694 C2695 1.414 . S
C2694 C2697 1.499 . S
C2695 H2669 0.950 . S
C2695 C2694 1.414 . S
C2695 C2696 1.374 . S
C2696 H2670 0.950 . S
C2696 C2692 1.385 . S
C2696 C2695 1.374 . S
C2697 C2694 1.499 . S
C2697 C2698 1.373 . S
C2697 C2699 1.389 . S
C2698 H2671 0.950 . S
C2698 C2684 1.377 . S
C2698 C2697 1.373 . S
C2699 C2683 1.377 . S
C2699 C2697 1.389 . S
C2699 C2700 1.524 . S
C2700 C2699 1.524 . S
C2700 C2701 1.397 . S
C2700 C2705 1.363 . S
C2701 H2672 0.950 . S
C2701 C2700 1.397 . S
C2701 C2702 1.334 . S
C2702 H2673 0.950 . S
C2702 C2701 1.334 . S
C2702 C2703 1.287 . S
C2703 C2702 1.287 . S
C2703 C2704 1.524 . S
C2703 H2706 0.999 . S
C2704 H2674 0.950 . S
C2704 C2703 1.524 . S
C2704 C2705 1.415 . S
C2705 H2675 0.950 . S
C2705 C2700 1.363 . S
C2705 C2704 1.415 . S
H2706 C2703 0.999 . S
H2707 C2688 0.913 . S
H2708 C2726 0.951 . S
H2709 C2728 0.951 . S
H2710 C2730 0.950 . S
H2711 C2731 0.950 . S
H2712 C2733 0.950 . S
H2713 C2736 0.950 . S
H2714 C2737 0.950 . S
H2715 C2739 0.950 . S
H2716 C2740 0.950 . S
H2717 C2741 0.951 . S
H2718 C2743 0.951 . S
H2719 C2745 0.950 . S
H2720 C2746 0.950 . S
H2721 C2748 0.950 . S
H2722 C2751 0.950 . S
H2723 C2752 0.950 . S
H2724 C2754 0.950 . S
H2725 C2755 0.950 . S
C2726 H2708 0.951 . S
C2726 C2727 1.366 . S
C2726 C2728 1.388 . S
C2727 C2726 1.366 . S
C2727 C2731 1.385 . S
C2728 H2709 0.951 . S
C2728 C2726 1.388 . S
C2728 C2729 1.366 . S
C2729 C2728 1.366 . S
C2729 C2730 1.414 . S
C2729 C2732 1.499 . S
C2730 H2710 0.950 . S
C2730 C2729 1.414 . S
C2730 C2731 1.374 . S
C2731 H2711 0.950 . S
C2731 C2727 1.385 . S
C2731 C2730 1.374 . S
C2732 C2729 1.499 . S
C2732 C2733 1.373 . S
C2732 C2734 1.389 . S
C2733 H2712 0.950 . S
C2733 C2732 1.373 . S
C2733 C2749 1.377 . S
C2734 C2732 1.389 . S
C2734 C2735 1.524 . S
C2734 C2748 1.377 . S
C2735 C2734 1.524 . S
C2735 C2736 1.397 . S
C2735 C2740 1.363 . S
C2736 H2713 0.950 . S
C2736 C2735 1.397 . S
C2736 C2737 1.334 . S
C2737 H2714 0.950 . S
C2737 C2736 1.334 . S
C2737 C2738 1.287 . S
C2738 C2737 1.287 . S
C2738 C2739 1.524 . S
C2738 H2757 0.913 . S
C2739 H2715 0.950 . S
C2739 C2738 1.524 . S
C2739 C2740 1.415 . S
C2740 H2716 0.950 . S
C2740 C2735 1.363 . S
C2740 C2739 1.415 . S
C2741 H2717 0.951 . S
C2741 C2742 1.366 . S
C2741 C2743 1.388 . S
C2742 C2741 1.366 . S
C2742 C2746 1.385 . S
C2743 H2718 0.951 . S
C2743 C2741 1.388 . S
C2743 C2744 1.366 . S
C2744 C2743 1.366 . S
C2744 C2745 1.414 . S
C2744 C2747 1.499 . S
C2745 H2719 0.950 . S
C2745 C2744 1.414 . S
C2745 C2746 1.374 . S
C2746 H2720 0.950 . S
C2746 C2742 1.385 . S
C2746 C2745 1.374 . S
C2747 C2744 1.499 . S
C2747 C2748 1.373 . S
C2747 C2749 1.389 . S
C2748 H2721 0.950 . S
C2748 C2734 1.377 . S
C2748 C2747 1.373 . S
C2749 C2733 1.377 . S
C2749 C2747 1.389 . S
C2749 C2750 1.524 . S
C2750 C2749 1.524 . S
C2750 C2751 1.397 . S
C2750 C2755 1.363 . S
C2751 H2722 0.950 . S
C2751 C2750 1.397 . S
C2751 C2752 1.334 . S
C2752 H2723 0.950 . S
C2752 C2751 1.334 . S
C2752 C2753 1.287 . S
C2753 C2752 1.287 . S
C2753 C2754 1.524 . S
C2753 H2756 0.999 . S
C2754 H2724 0.950 . S
C2754 C2753 1.524 . S
C2754 C2755 1.415 . S
C2755 H2725 0.950 . S
C2755 C2750 1.363 . S
C2755 C2754 1.415 . S
H2756 C2753 0.999 . S
H2757 C2738 0.913 . S
H2758 C2776 0.951 . S
H2759 C2778 0.951 . S
H2760 C2780 0.950 . S
H2761 C2781 0.950 . S
H2762 C2783 0.950 . S
H2763 C2786 0.950 . S
H2764 C2787 0.950 . S
H2765 C2789 0.950 . S
H2766 C2790 0.950 . S
H2767 C2791 0.951 . S
H2768 C2793 0.951 . S
H2769 C2795 0.950 . S
H2770 C2796 0.950 . S
H2771 C2798 0.950 . S
H2772 C2801 0.950 . S
H2773 C2802 0.950 . S
H2774 C2804 0.950 . S
H2775 C2805 0.950 . S
C2776 H2758 0.951 . S
C2776 C2777 1.366 . S
C2776 C2778 1.388 . S
C2777 C2776 1.366 . S
C2777 C2781 1.385 . S
C2778 H2759 0.951 . S
C2778 C2776 1.388 . S
C2778 C2779 1.366 . S
C2779 C2778 1.366 . S
C2779 C2780 1.414 . S
C2779 C2782 1.499 . S
C2780 H2760 0.950 . S
C2780 C2779 1.414 . S
C2780 C2781 1.374 . S
C2781 H2761 0.950 . S
C2781 C2777 1.385 . S
C2781 C2780 1.374 . S
C2782 C2779 1.499 . S
C2782 C2783 1.373 . S
C2782 C2784 1.389 . S
C2783 H2762 0.950 . S
C2783 C2782 1.373 . S
C2783 C2799 1.377 . S
C2784 C2782 1.389 . S
C2784 C2785 1.524 . S
C2784 C2798 1.377 . S
C2785 C2784 1.524 . S
C2785 C2786 1.397 . S
C2785 C2790 1.363 . S
C2786 H2763 0.950 . S
C2786 C2785 1.397 . S
C2786 C2787 1.334 . S
C2787 H2764 0.950 . S
C2787 C2786 1.334 . S
C2787 C2788 1.287 . S
C2788 C2787 1.287 . S
C2788 C2789 1.524 . S
C2788 H2807 0.913 . S
C2789 H2765 0.950 . S
C2789 C2788 1.524 . S
C2789 C2790 1.415 . S
C2790 H2766 0.950 . S
C2790 C2785 1.363 . S
C2790 C2789 1.415 . S
C2791 H2767 0.951 . S
C2791 C2792 1.366 . S
C2791 C2793 1.388 . S
C2792 C2791 1.366 . S
C2792 C2796 1.385 . S
C2793 H2768 0.951 . S
C2793 C2791 1.388 . S
C2793 C2794 1.366 . S
C2794 C2793 1.366 . S
C2794 C2795 1.414 . S
C2794 C2797 1.499 . S
C2795 H2769 0.950 . S
C2795 C2794 1.414 . S
C2795 C2796 1.374 . S
C2796 H2770 0.950 . S
C2796 C2792 1.385 . S
C2796 C2795 1.374 . S
C2797 C2794 1.499 . S
C2797 C2798 1.373 . S
C2797 C2799 1.389 . S
C2798 H2771 0.950 . S
C2798 C2784 1.377 . S
C2798 C2797 1.373 . S
C2799 C2783 1.377 . S
C2799 C2797 1.389 . S
C2799 C2800 1.524 . S
C2800 C2799 1.524 . S
C2800 C2801 1.397 . S
C2800 C2805 1.363 . S
C2801 H2772 0.950 . S
C2801 C2800 1.397 . S
C2801 C2802 1.334 . S
C2802 H2773 0.950 . S
C2802 C2801 1.334 . S
C2802 C2803 1.287 . S
C2803 C2802 1.287 . S
C2803 C2804 1.524 . S
C2803 H2806 0.999 . S
C2804 H2774 0.950 . S
C2804 C2803 1.524 . S
C2804 C2805 1.415 . S
C2805 H2775 0.950 . S
C2805 C2800 1.363 . S
C2805 C2804 1.415 . S
H2806 C2803 0.999 . S
H2807 C2788 0.913 . S
H2808 C2826 0.951 . S
H2809 C2828 0.951 . S
H2810 C2830 0.950 . S
H2811 C2831 0.950 . S
H2812 C2833 0.950 . S
H2813 C2836 0.950 . S
H2814 C2837 0.950 . S
H2815 C2839 0.950 . S
H2816 C2840 0.950 . S
H2817 C2841 0.951 . S
H2818 C2843 0.951 . S
H2819 C2845 0.950 . S
H2820 C2846 0.950 . S
H2821 C2848 0.950 . S
H2822 C2851 0.950 . S
H2823 C2852 0.950 . S
H2824 C2854 0.950 . S
H2825 C2855 0.950 . S
C2826 H2808 0.951 . S
C2826 C2827 1.366 . S
C2826 C2828 1.388 . S
C2827 C2826 1.366 . S
C2827 C2831 1.385 . S
C2828 H2809 0.951 . S
C2828 C2826 1.388 . S
C2828 C2829 1.366 . S
C2829 C2828 1.366 . S
C2829 C2830 1.414 . S
C2829 C2832 1.499 . S
C2830 H2810 0.950 . S
C2830 C2829 1.414 . S
C2830 C2831 1.374 . S
C2831 H2811 0.950 . S
C2831 C2827 1.385 . S
C2831 C2830 1.374 . S
C2832 C2829 1.499 . S
C2832 C2833 1.373 . S
C2832 C2834 1.389 . S
C2833 H2812 0.950 . S
C2833 C2832 1.373 . S
C2833 C2849 1.377 . S
C2834 C2832 1.389 . S
C2834 C2835 1.524 . S
C2834 C2848 1.377 . S
C2835 C2834 1.524 . S
C2835 C2836 1.397 . S
C2835 C2840 1.363 . S
C2836 H2813 0.950 . S
C2836 C2835 1.397 . S
C2836 C2837 1.334 . S
C2837 H2814 0.950 . S
C2837 C2836 1.334 . S
C2837 C2838 1.287 . S
C2838 C2837 1.287 . S
C2838 C2839 1.524 . S
C2838 H2857 0.913 . S
C2839 H2815 0.950 . S
C2839 C2838 1.524 . S
C2839 C2840 1.415 . S
C2840 H2816 0.950 . S
C2840 C2835 1.363 . S
C2840 C2839 1.415 . S
C2841 H2817 0.951 . S
C2841 C2842 1.366 . S
C2841 C2843 1.388 . S
C2842 C2841 1.366 . S
C2842 C2846 1.385 . S
C2843 H2818 0.951 . S
C2843 C2841 1.388 . S
C2843 C2844 1.366 . S
C2844 C2843 1.366 . S
C2844 C2845 1.414 . S
C2844 C2847 1.499 . S
C2845 H2819 0.950 . S
C2845 C2844 1.414 . S
C2845 C2846 1.374 . S
C2846 H2820 0.950 . S
C2846 C2842 1.385 . S
C2846 C2845 1.374 . S
C2847 C2844 1.499 . S
C2847 C2848 1.373 . S
C2847 C2849 1.389 . S
C2848 H2821 0.950 . S
C2848 C2834 1.377 . S
C2848 C2847 1.373 . S
C2849 C2833 1.377 . S
C2849 C2847 1.389 . S
C2849 C2850 1.524 . S
C2850 C2849 1.524 . S
C2850 C2851 1.397 . S
C2850 C2855 1.363 . S
C2851 H2822 0.950 . S
C2851 C2850 1.397 . S
C2851 C2852 1.334 . S
C2852 H2823 0.950 . S
C2852 C2851 1.334 . S
C2852 C2853 1.287 . S
C2853 C2852 1.287 . S
C2853 C2854 1.524 . S
C2853 H2856 0.999 . S
C2854 H2824 0.950 . S
C2854 C2853 1.524 . S
C2854 C2855 1.415 . S
C2855 H2825 0.950 . S
C2855 C2850 1.363 . S
C2855 C2854 1.415 . S
H2856 C2853 0.999 . S
H2857 C2838 0.913 . S
H2858 C2876 0.951 . S
H2859 C2878 0.951 . S
H2860 C2880 0.950 . S
H2861 C2881 0.950 . S
H2862 C2883 0.950 . S
H2863 C2886 0.950 . S
H2864 C2887 0.950 . S
H2865 C2889 0.950 . S
H2866 C2890 0.950 . S
H2867 C2891 0.951 . S
H2868 C2893 0.951 . S
H2869 C2895 0.950 . S
H2870 C2896 0.950 . S
H2871 C2898 0.950 . S
H2872 C2901 0.950 . S
H2873 C2902 0.950 . S
H2874 C2904 0.950 . S
H2875 C2905 0.950 . S
C2876 H2858 0.951 . S
C2876 C2877 1.366 . S
C2876 C2878 1.388 . S
C2877 C2876 1.366 . S
C2877 C2881 1.385 . S
C2878 H2859 0.951 . S
C2878 C2876 1.388 . S
C2878 C2879 1.366 . S
C2879 C2878 1.366 . S
C2879 C2880 1.414 . S
C2879 C2882 1.499 . S
C2880 H2860 0.950 . S
C2880 C2879 1.414 . S
C2880 C2881 1.374 . S
C2881 H2861 0.950 . S
C2881 C2877 1.385 . S
C2881 C2880 1.374 . S
C2882 C2879 1.499 . S
C2882 C2883 1.373 . S
C2882 C2884 1.389 . S
C2883 H2862 0.950 . S
C2883 C2882 1.373 . S
C2883 C2899 1.377 . S
C2884 C2882 1.389 . S
C2884 C2885 1.524 . S
C2884 C2898 1.377 . S
C2885 C2884 1.524 . S
C2885 C2886 1.397 . S
C2885 C2890 1.363 . S
C2886 H2863 0.950 . S
C2886 C2885 1.397 . S
C2886 C2887 1.334 . S
C2887 H2864 0.950 . S
C2887 C2886 1.334 . S
C2887 C2888 1.287 . S
C2888 C2887 1.287 . S
C2888 C2889 1.524 . S
C2888 H2907 0.913 . S
C2889 H2865 0.950 . S
C2889 C2888 1.524 . S
C2889 C2890 1.415 . S
C2890 H2866 0.950 . S
C2890 C2885 1.363 . S
C2890 C2889 1.415 . S
C2891 H2867 0.951 . S
C2891 C2892 1.366 . S
C2891 C2893 1.388 . S
C2892 C2891 1.366 . S
C2892 C2896 1.385 . S
C2893 H2868 0.951 . S
C2893 C2891 1.388 . S
C2893 C2894 1.366 . S
C2894 C2893 1.366 . S
C2894 C2895 1.414 . S
C2894 C2897 1.499 . S
C2895 H2869 0.950 . S
C2895 C2894 1.414 . S
C2895 C2896 1.374 . S
C2896 H2870 0.950 . S
C2896 C2892 1.385 . S
C2896 C2895 1.374 . S
C2897 C2894 1.499 . S
C2897 C2898 1.373 . S
C2897 C2899 1.389 . S
C2898 H2871 0.950 . S
C2898 C2884 1.377 . S
C2898 C2897 1.373 . S
C2899 C2883 1.377 . S
C2899 C2897 1.389 . S
C2899 C2900 1.524 . S
C2900 C2899 1.524 . S
C2900 C2901 1.397 . S
C2900 C2905 1.363 . S
C2901 H2872 0.950 . S
C2901 C2900 1.397 . S
C2901 C2902 1.334 . S
C2902 H2873 0.950 . S
C2902 C2901 1.334 . S
C2902 C2903 1.287 . S
C2903 C2902 1.287 . S
C2903 C2904 1.524 . S
C2903 H2906 0.999 . S
C2904 H2874 0.950 . S
C2904 C2903 1.524 . S
C2904 C2905 1.415 . S
C2905 H2875 0.950 . S
C2905 C2900 1.363 . S
C2905 C2904 1.415 . S
H2906 C2903 0.999 . S
H2907 C2888 0.913 . S
H2908 C2926 0.951 . S
H2909 C2928 0.951 . S
H2910 C2930 0.950 . S
H2911 C2931 0.950 . S
H2912 C2933 0.950 . S
H2913 C2936 0.950 . S
H2914 C2937 0.950 . S
H2915 C2939 0.950 . S
H2916 C2940 0.950 . S
H2917 C2941 0.951 . S
H2918 C2943 0.951 . S
H2919 C2945 0.950 . S
H2920 C2946 0.950 . S
H2921 C2948 0.950 . S
H2922 C2951 0.950 . S
H2923 C2952 0.950 . S
H2924 C2954 0.950 . S
H2925 C2955 0.950 . S
C2926 H2908 0.951 . S
C2926 C2927 1.366 . S
C2926 C2928 1.388 . S
C2927 C2926 1.366 . S
C2927 C2931 1.385 . S
C2928 H2909 0.951 . S
C2928 C2926 1.388 . S
C2928 C2929 1.366 . S
C2929 C2928 1.366 . S
C2929 C2930 1.414 . S
C2929 C2932 1.499 . S
C2930 H2910 0.950 . S
C2930 C2929 1.414 . S
C2930 C2931 1.374 . S
C2931 H2911 0.950 . S
C2931 C2927 1.385 . S
C2931 C2930 1.374 . S
C2932 C2929 1.499 . S
C2932 C2933 1.373 . S
C2932 C2934 1.389 . S
C2933 H2912 0.950 . S
C2933 C2932 1.373 . S
C2933 C2949 1.377 . S
C2934 C2932 1.389 . S
C2934 C2935 1.524 . S
C2934 C2948 1.377 . S
C2935 C2934 1.524 . S
C2935 C2936 1.397 . S
C2935 C2940 1.363 . S
C2936 H2913 0.950 . S
C2936 C2935 1.397 . S
C2936 C2937 1.334 . S
C2937 H2914 0.950 . S
C2937 C2936 1.334 . S
C2937 C2938 1.287 . S
C2938 C2937 1.287 . S
C2938 C2939 1.524 . S
C2938 H2957 0.916 . S
C2939 H2915 0.950 . S
C2939 C2938 1.524 . S
C2939 C2940 1.415 . S
C2940 H2916 0.950 . S
C2940 C2935 1.363 . S
C2940 C2939 1.415 . S
C2941 H2917 0.951 . S
C2941 C2942 1.366 . S
C2941 C2943 1.388 . S
C2942 C2941 1.366 . S
C2942 C2946 1.385 . S
C2943 H2918 0.951 . S
C2943 C2941 1.388 . S
C2943 C2944 1.366 . S
C2944 C2943 1.366 . S
C2944 C2945 1.414 . S
C2944 C2947 1.499 . S
C2945 H2919 0.950 . S
C2945 C2944 1.414 . S
C2945 C2946 1.374 . S
C2946 H2920 0.950 . S
C2946 C2942 1.385 . S
C2946 C2945 1.374 . S
C2947 C2944 1.499 . S
C2947 C2948 1.373 . S
C2947 C2949 1.389 . S
C2948 H2921 0.950 . S
C2948 C2934 1.377 . S
C2948 C2947 1.373 . S
C2949 C2933 1.377 . S
C2949 C2947 1.389 . S
C2949 C2950 1.524 . S
C2950 C2949 1.524 . S
C2950 C2951 1.397 . S
C2950 C2955 1.363 . S
C2951 H2922 0.950 . S
C2951 C2950 1.397 . S
C2951 C2952 1.334 . S
C2952 H2923 0.950 . S
C2952 C2951 1.334 . S
C2952 C2953 1.287 . S
C2953 C2952 1.287 . S
C2953 C2954 1.524 . S
C2953 H2956 0.999 . S
C2954 H2924 0.950 . S
C2954 C2953 1.524 . S
C2954 C2955 1.415 . S
C2955 H2925 0.950 . S
C2955 C2950 1.363 . S
C2955 C2954 1.415 . S
H2956 C2953 0.999 . S
H2957 C2938 0.916 . S
H2958 C2976 0.951 . S
H2959 C2978 0.951 . S
H2960 C2980 0.950 . S
H2961 C2981 0.950 . S
H2962 C2983 0.950 . S
H2963 C2986 0.950 . S
H2964 C2987 0.950 . S
H2965 C2989 0.950 . S
H2966 C2990 0.950 . S
H2967 C2991 0.951 . S
H2968 C2993 0.951 . S
H2969 C2995 0.950 . S
H2970 C2996 0.950 . S
H2971 C2998 0.950 . S
H2972 C3001 0.950 . S
H2973 C3002 0.950 . S
H2974 C3004 0.950 . S
H2975 C3005 0.950 . S
C2976 H2958 0.951 . S
C2976 C2977 1.366 . S
C2976 C2978 1.388 . S
C2977 C2976 1.366 . S
C2977 C2981 1.385 . S
C2978 H2959 0.951 . S
C2978 C2976 1.388 . S
C2978 C2979 1.366 . S
C2979 C2978 1.366 . S
C2979 C2980 1.414 . S
C2979 C2982 1.499 . S
C2980 H2960 0.950 . S
C2980 C2979 1.414 . S
C2980 C2981 1.374 . S
C2981 H2961 0.950 . S
C2981 C2977 1.385 . S
C2981 C2980 1.374 . S
C2982 C2979 1.499 . S
C2982 C2983 1.373 . S
C2982 C2984 1.389 . S
C2983 H2962 0.950 . S
C2983 C2982 1.373 . S
C2983 C2999 1.377 . S
C2984 C2982 1.389 . S
C2984 C2985 1.524 . S
C2984 C2998 1.377 . S
C2985 C2984 1.524 . S
C2985 C2986 1.397 . S
C2985 C2990 1.363 . S
C2986 H2963 0.950 . S
C2986 C2985 1.397 . S
C2986 C2987 1.334 . S
C2987 H2964 0.950 . S
C2987 C2986 1.334 . S
C2987 C2988 1.287 . S
C2988 C2987 1.287 . S
C2988 C2989 1.524 . S
C2988 H3007 0.913 . S
C2989 H2965 0.950 . S
C2989 C2988 1.524 . S
C2989 C2990 1.415 . S
C2990 H2966 0.950 . S
C2990 C2985 1.363 . S
C2990 C2989 1.415 . S
C2991 H2967 0.951 . S
C2991 C2992 1.366 . S
C2991 C2993 1.388 . S
C2992 C2991 1.366 . S
C2992 C2996 1.385 . S
C2993 H2968 0.951 . S
C2993 C2991 1.388 . S
C2993 C2994 1.366 . S
C2994 C2993 1.366 . S
C2994 C2995 1.414 . S
C2994 C2997 1.499 . S
C2995 H2969 0.950 . S
C2995 C2994 1.414 . S
C2995 C2996 1.374 . S
C2996 H2970 0.950 . S
C2996 C2992 1.385 . S
C2996 C2995 1.374 . S
C2997 C2994 1.499 . S
C2997 C2998 1.373 . S
C2997 C2999 1.389 . S
C2998 H2971 0.950 . S
C2998 C2984 1.377 . S
C2998 C2997 1.373 . S
C2999 C2983 1.377 . S
C2999 C2997 1.389 . S
C2999 C3000 1.524 . S
C3000 C2999 1.524 . S
C3000 C3001 1.397 . S
C3000 C3005 1.363 . S
C3001 H2972 0.950 . S
C3001 C3000 1.397 . S
C3001 C3002 1.334 . S
C3002 H2973 0.950 . S
C3002 C3001 1.334 . S
C3002 C3003 1.287 . S
C3003 C3002 1.287 . S
C3003 C3004 1.524 . S
C3003 H3006 0.999 . S
C3004 H2974 0.950 . S
C3004 C3003 1.524 . S
C3004 C3005 1.415 . S
C3005 H2975 0.950 . S
C3005 C3000 1.363 . S
C3005 C3004 1.415 . S
H3006 C3003 0.999 . S
H3007 C2988 0.913 . S
C1427 C57 0.401 . S
C1442 C812 0.355 . S
C1477 C929 0.352 . S
C1492 C145 0.403 . S
C1527 C988 0.352 . S
C1542 C225 0.401 . S
C1577 C733 0.354 . S
C1592 C313 0.403 . S
C1627 C381 0.400 . S
C1642 C1377 0.354 . S
C1677 C1105 0.354 . S
C1692 C469 0.400 . S
C1727 C1164 0.352 . S
C1742 C548 0.403 . S
C1777 C1252 0.352 . S
C1792 C636 0.403 . S
C1827 C753 0.404 . S
C1842 C137 0.369 . S
C1877 C849 0.401 . S
C1892 C233 0.370 . S
C1927 C909 0.404 . S
C1942 C321 0.369 . S
C1977 C49 0.370 . S
C1992 C1025 0.403 . S
C2027 C1085 0.403 . S
C2042 C645 0.367 . S
C2077 C1201 0.402 . S
C2092 C372 0.368 . S
C2127 C460 0.368 . S
C2142 C1289 0.401 . S
C2177 C1340 0.404 . S
C2192 C557 0.368 . S
C2227 C724 1.551 . S
C2242 C29 1.558 . S
C2277 C117 1.558 . S
C2292 C821 1.551 . S
C2327 C937 1.550 . S
C2342 C196 1.557 . S
C2377 C284 1.558 . S
C2392 C997 1.551 . S
C2427 C1113 1.550 . S
C2442 C409 1.557 . S
C2477 C497 1.558 . S
C2492 C1173 1.551 . S
C2527 C1261 1.551 . S
C2542 C577 1.558 . S
C2577 C1369 1.551 . S
C2592 C665 1.558 . S
C2627 C401 2.275 . S
C2642 C20 2.275 . S
C2677 C489 2.275 . S
C2692 C108 2.275 . S
C2727 C205 2.274 . S
C2742 C585 2.274 . S
C2777 C673 2.275 . S
C2792 C293 2.275 . S
C2827 C761 2.273 . S
C2842 C1076 2.274 . S
C2877 C1193 2.273 . S
C2892 C841 2.273 . S
C2927 C1281 2.274 . S
C2942 C900 2.274 . S
C2977 C1349 2.273 . S
C2992 C1017 2.273 . S
