# Generated by pormake.
# Topology uop, (4)-cn, num edge types: 1
# Building blocks:
#     Node 0, Type 0, BuildingBlock: NAWXER_clean_sbu_0, # of connection points: 4
#     Node 1, Type 0, BuildingBlock: NAWXER_clean_sbu_0, # of connection points: 4
#     Node 2, Type 0, BuildingBlock: NAWXER_clean_sbu_0, # of connection points: 4
#     Node 3, Type 0, BuildingBlock: NAWXER_clean_sbu_0, # of connection points: 4
#     Node 4, Type 0, BuildingBlock: NAWXER_clean_sbu_0, # of connection points: 4
#     Node 5, Type 0, BuildingBlock: NAWXER_clean_sbu_0, # of connection points: 4
#     Node 6, Type 0, BuildingBlock: NAWXER_clean_sbu_0, # of connection points: 4
#     Node 7, Type 0, BuildingBlock: NAWXER_clean_sbu_0, # of connection points: 4
#     Node 8, Type 0, BuildingBlock: NAWXER_clean_sbu_0, # of connection points: 4
#     Node 9, Type 0, BuildingBlock: NAWXER_clean_sbu_0, # of connection points: 4
#     Node 10, Type 0, BuildingBlock: NAWXER_clean_sbu_0, # of connection points: 4
#     Node 11, Type 0, BuildingBlock: NAWXER_clean_sbu_0, # of connection points: 4
#     Edge 12, Type (0, 0), BuildingBlock: AJUNOK_clean_linker_0, # of connection points: 2
#     Edge 13, Type (0, 0), BuildingBlock: AJUNOK_clean_linker_0, # of connection points: 2
#     Edge 14, Type (0, 0), BuildingBlock: AJUNOK_clean_linker_0, # of connection points: 2
#     Edge 15, Type (0, 0), BuildingBlock: AJUNOK_clean_linker_0, # of connection points: 2
#     Edge 16, Type (0, 0), BuildingBlock: AJUNOK_clean_linker_0, # of connection points: 2
#     Edge 17, Type (0, 0), BuildingBlock: AJUNOK_clean_linker_0, # of connection points: 2
#     Edge 18, Type (0, 0), BuildingBlock: AJUNOK_clean_linker_0, # of connection points: 2
#     Edge 19, Type (0, 0), BuildingBlock: AJUNOK_clean_linker_0, # of connection points: 2
#     Edge 20, Type (0, 0), BuildingBlock: AJUNOK_clean_linker_0, # of connection points: 2
#     Edge 21, Type (0, 0), BuildingBlock: AJUNOK_clean_linker_0, # of connection points: 2
#     Edge 22, Type (0, 0), BuildingBlock: AJUNOK_clean_linker_0, # of connection points: 2
#     Edge 23, Type (0, 0), BuildingBlock: AJUNOK_clean_linker_0, # of connection points: 2
#     Edge 24, Type (0, 0), BuildingBlock: AJUNOK_clean_linker_0, # of connection points: 2
#     Edge 25, Type (0, 0), BuildingBlock: AJUNOK_clean_linker_0, # of connection points: 2
#     Edge 26, Type (0, 0), BuildingBlock: AJUNOK_clean_linker_0, # of connection points: 2
#     Edge 27, Type (0, 0), BuildingBlock: AJUNOK_clean_linker_0, # of connection points: 2
#     Edge 28, Type (0, 0), BuildingBlock: AJUNOK_clean_linker_0, # of connection points: 2
#     Edge 29, Type (0, 0), BuildingBlock: AJUNOK_clean_linker_0, # of connection points: 2
#     Edge 30, Type (0, 0), BuildingBlock: AJUNOK_clean_linker_0, # of connection points: 2
#     Edge 31, Type (0, 0), BuildingBlock: AJUNOK_clean_linker_0, # of connection points: 2
#     Edge 32, Type (0, 0), BuildingBlock: AJUNOK_clean_linker_0, # of connection points: 2
#     Edge 33, Type (0, 0), BuildingBlock: AJUNOK_clean_linker_0, # of connection points: 2
#     Edge 34, Type (0, 0), BuildingBlock: AJUNOK_clean_linker_0, # of connection points: 2
#     Edge 35, Type (0, 0), BuildingBlock: AJUNOK_clean_linker_0, # of connection points: 2
# Relax obj value: 0.102
# Max RMSD: 0.272
# Mean RMSD: 0.272
data_MOF--net-uop--node1-NAWXER_clean_sbu_0--edge1-AJUNOK_clean_linker_0
_symmetry_space_group_name_H-M    P1
_symmetry_Int_Tables_number       1
_symmetry_cell_setting            triclinic
loop_
_symmetry_equiv_pos_as_xyz
'x, y, z'
_cell_length_a     24.481604
_cell_length_b     24.472603
_cell_length_c     34.258035
_cell_angle_alpha  90.044375
_cell_angle_beta   90.013746
_cell_angle_gamma 119.92058
loop_
_atom_site_label
_atom_site_type_symbol
_atom_site_fract_x
_atom_site_fract_y
_atom_site_fract_z
_atom_type_partial_charge
C0 C 0.26028 0.35291 0.26816 0.0
C1 C 0.25059 0.51284 0.19015 0.0
O2 O 0.26091 0.34212 0.23154 0.0
Zn3 Zn 0.2553 0.38472 0.17744 0.0
O4 O 0.25355 0.39875 0.27912 0.0
Zn5 Zn 0.25183 0.43018 0.22849 0.0
O6 O 0.16125 0.36106 0.20639 0.0
O7 O 0.17836 0.32182 0.1529 0.0
O8 O 0.24861 0.50634 0.22695 0.0
O9 O 0.25334 0.47143 0.16848 0.0
O10 O 0.33379 0.40241 0.15373 0.0
O11 O 0.34559 0.4593 0.20658 0.0
C12 C 0.14004 0.32329 0.17722 0.0
C13 C 0.3695 0.44413 0.17813 0.0
C14 C 0.81809 0.1458 0.51617 0.0
C15 C 0.92461 0.37558 0.52331 0.0
O16 O 0.80215 0.16472 0.54674 0.0
Zn17 Zn 0.82331 0.25357 0.57198 0.0
O18 O 0.85657 0.18603 0.49215 0.0
Zn19 Zn 0.87049 0.26098 0.51958 0.0
O20 O 0.92083 0.26316 0.57259 0.0
O21 O 0.85717 0.25131 0.62144 0.0
O22 O 0.92822 0.34145 0.4966 0.0
O23 O 0.88769 0.3489 0.5524 0.0
O24 O 0.74373 0.25039 0.57297 0.0
O25 O 0.7812 0.25834 0.51356 0.0
C26 C 0.9095 0.25886 0.60944 0.0
C27 C 0.73788 0.25441 0.53649 0.0
C28 C 0.66273 0.90629 0.9413 0.0
C29 C 0.4945 0.73728 0.86768 0.0
O30 O 0.66974 0.91803 0.90452 0.0
Zn31 Zn 0.62213 0.86858 0.85126 0.0
O32 O 0.61842 0.8536 0.95312 0.0
Zn33 Zn 0.58121 0.82129 0.90357 0.0
O34 O 0.64464 0.79567 0.87754 0.0
O35 O 0.68369 0.85384 0.82488 0.0
O36 O 0.5034 0.74388 0.90424 0.0
O37 O 0.53477 0.77983 0.84475 0.0
O38 O 0.6007 0.92782 0.82831 0.0
O39 O 0.55479 0.8894 0.8851 0.0
C40 C 0.68066 0.81144 0.8476 0.0
C41 C 0.56582 0.9267 0.85613 0.0
C42 C 0.75293 0.65942 0.27115 0.0
C43 C 0.76158 0.49483 0.19774 0.0
O44 O 0.75075 0.66777 0.23432 0.0
Zn45 Zn 0.75505 0.6215 0.18139 0.0
O46 O 0.76008 0.61432 0.28298 0.0
Zn47 Zn 0.76034 0.57968 0.23318 0.0
O48 O 0.85047 0.64671 0.20895 0.0
O49 O 0.83036 0.68296 0.15529 0.0
O50 O 0.7642 0.50413 0.23427 0.0
O51 O 0.75797 0.53436 0.17468 0.0
O52 O 0.67635 0.6017 0.15738 0.0
O53 O 0.66563 0.54724 0.2111 0.0
C54 C 0.87012 0.68237 0.17876 0.0
C55 C 0.64109 0.56034 0.182 0.0
C56 C 0.10459 0.76202 0.60263 0.0
C57 C 0.27992 0.76718 0.53368 0.0
O58 O 0.09575 0.75851 0.5655 0.0
Zn59 Zn 0.14896 0.7615 0.51368 0.0
O60 O 0.15682 0.77115 0.61612 0.0
Zn61 Zn 0.19308 0.76874 0.56756 0.0
O62 O 0.21518 0.85752 0.54228 0.0
O63 O 0.16434 0.83693 0.48629 0.0
O64 O 0.27234 0.77071 0.57 0.0
O65 O 0.23779 0.76374 0.50991 0.0
O66 O 0.09211 0.6809 0.49004 0.0
O67 O 0.12689 0.6738 0.54834 0.0
C68 C 0.20102 0.87682 0.51118 0.0
C69 C 0.09176 0.64742 0.51848 0.0
C70 C 0.36332 0.11306 0.94692 0.0
C71 C 0.52515 0.28213 0.86985 0.0
O72 O 0.35461 0.10032 0.91024 0.0
Zn73 Zn 0.40004 0.14796 0.85606 0.0
O74 O 0.40841 0.16597 0.95787 0.0
Zn75 Zn 0.44171 0.1976 0.90753 0.0
O76 O 0.37197 0.21644 0.88304 0.0
O77 O 0.33711 0.15962 0.82937 0.0
O78 O 0.51721 0.2777 0.90651 0.0
O79 O 0.48532 0.2374 0.8479 0.0
O80 O 0.42252 0.08952 0.83353 0.0
O81 O 0.47214 0.13239 0.88859 0.0
C82 C 0.33573 0.19878 0.85309 0.0
C83 C 0.46086 0.09411 0.86007 0.0
C84 C 0.49991 0.76697 0.46861 0.0
C85 C 0.65994 0.76246 0.38797 0.0
O86 O 0.54131 0.76325 0.48974 0.0
Zn87 Zn 0.6283 0.76181 0.47928 0.0
O88 O 0.50648 0.7707 0.43181 0.0
Zn89 Zn 0.58277 0.76817 0.42947 0.0
O90 O 0.55329 0.67283 0.44932 0.0
O91 O 0.61094 0.68255 0.50133 0.0
O92 O 0.61406 0.76981 0.37826 0.0
O93 O 0.67082 0.75918 0.42432 0.0
O94 O 0.69094 0.8368 0.50535 0.0
O95 O 0.65084 0.85794 0.45389 0.0
C96 C 0.56887 0.64769 0.47687 0.0
C97 C 0.68836 0.87699 0.48326 0.0
C98 C 0.90444 0.65654 0.71618 0.0
C99 C 0.74131 0.49641 0.79773 0.0
O100 O 0.91893 0.66668 0.75254 0.0
Zn101 Zn 0.87519 0.62379 0.80757 0.0
O102 O 0.85128 0.61063 0.70638 0.0
Zn103 Zn 0.82244 0.578 0.75749 0.0
O104 O 0.80044 0.64502 0.78297 0.0
O105 O 0.86397 0.68744 0.83352 0.0
O106 O 0.74385 0.50071 0.76078 0.0
O107 O 0.78668 0.53863 0.81821 0.0
O108 O 0.93524 0.60304 0.82958 0.0
O109 O 0.8899 0.55045 0.77569 0.0
C110 C 0.82028 0.68362 0.81175 0.0
C111 C 0.92972 0.56364 0.80351 0.0
C112 C 0.24941 0.73334 0.1268 0.0
C113 C 0.25593 0.90966 0.05841 0.0
O114 O 0.25246 0.77507 0.1508 0.0
Zn115 Zn 0.25488 0.86409 0.14729 0.0
O116 O 0.24649 0.74157 0.09052 0.0
Zn117 Zn 0.24851 0.82074 0.09328 0.0
O118 O 0.34312 0.88656 0.11325 0.0
O119 O 0.33489 0.92054 0.17158 0.0
O120 O 0.24701 0.85758 0.04475 0.0
O121 O 0.25878 0.91801 0.09558 0.0
O122 O 0.17925 0.84864 0.17432 0.0
O123 O 0.15936 0.79835 0.11814 0.0
C124 C 0.36891 0.92126 0.14336 0.0
C125 C 0.13968 0.81224 0.1492 0.0
C126 C 0.52061 0.25606 0.46805 0.0
C127 C 0.36147 0.26022 0.3862 0.0
O128 O 0.47874 0.25973 0.48871 0.0
Zn129 Zn 0.39209 0.26137 0.47761 0.0
O130 O 0.51492 0.25251 0.43119 0.0
Zn131 Zn 0.4388 0.25543 0.42809 0.0
O132 O 0.46821 0.35043 0.44829 0.0
O133 O 0.40918 0.34075 0.49957 0.0
O134 O 0.40816 0.25406 0.37672 0.0
O135 O 0.35008 0.2633 0.42246 0.0
O136 O 0.32906 0.18614 0.50318 0.0
O137 O 0.3701 0.16564 0.4519 0.0
C138 C 0.45228 0.3755 0.47571 0.0
C139 C 0.33195 0.14623 0.48091 0.0
C140 C 0.10927 0.35206 0.72356 0.0
C141 C 0.27772 0.51647 0.8006 0.0
O142 O 0.09695 0.34484 0.76026 0.0
Zn143 Zn 0.14418 0.39093 0.81412 0.0
O144 O 0.16283 0.39563 0.71221 0.0
Zn145 Zn 0.19495 0.43137 0.76244 0.0
O146 O 0.21475 0.36365 0.78894 0.0
O147 O 0.1562 0.32919 0.8419 0.0
O148 O 0.27473 0.50839 0.76389 0.0
O149 O 0.2326 0.47635 0.82204 0.0
O150 O 0.08576 0.41446 0.83558 0.0
O151 O 0.12881 0.46129 0.77974 0.0
C152 C 0.19704 0.32856 0.81939 0.0
C153 C 0.09029 0.45106 0.8079 0.0
C154 C 0.76364 0.27594 0.13195 0.0
C155 C 0.75741 0.10595 0.05537 0.0
O156 O 0.75901 0.2311 0.15363 0.0
Zn157 Zn 0.7552 0.14192 0.14579 0.0
O158 O 0.76743 0.27199 0.09522 0.0
Zn159 Zn 0.7635 0.19168 0.0941 0.0
O160 O 0.66799 0.12691 0.11295 0.0
O161 O 0.67418 0.08359 0.16791 0.0
O162 O 0.76542 0.15877 0.04388 0.0
O163 O 0.75342 0.09416 0.09211 0.0
O164 O 0.82944 0.15365 0.17275 0.0
O165 O 0.85185 0.21088 0.11928 0.0
C166 C 0.64069 0.08862 0.14136 0.0
C167 C 0.87016 0.19339 0.14946 0.0
C168 C 0.24905 0.66676 0.18217 0.0
C169 C 0.24943 0.67637 0.14166 0.0
C170 C 0.24929 0.61383 0.19736 0.0
C171 C 0.25004 0.56812 0.17275 0.0
H172 H 0.24851 0.70036 0.20254 0.0
H173 H 0.24902 0.609 0.22879 0.0
S174 S 0.25139 0.57079 0.0643 0.0
N175 N 0.25063 0.63547 0.07701 0.0
N176 N 0.25113 0.53598 0.1056 0.0
C177 C 0.25041 0.57698 0.13211 0.0
C178 C 0.25007 0.63101 0.11658 0.0
C179 C 0.6733 0.253 0.47958 0.0
C180 C 0.68186 0.25483 0.52026 0.0
C181 C 0.62116 0.25342 0.46318 0.0
C182 C 0.57527 0.25586 0.4867 0.0
H183 H 0.70704 0.25101 0.46003 0.0
H184 H 0.61703 0.25183 0.43166 0.0
S185 S 0.57576 0.2622 0.59505 0.0
N186 N 0.64006 0.25973 0.58387 0.0
N187 N 0.54209 0.2606 0.553 0.0
C188 C 0.58322 0.25793 0.52749 0.0
C189 C 0.63641 0.25737 0.54425 0.0
C190 C 0.43018 0.67287 0.81083 0.0
C191 C 0.43864 0.68065 0.85152 0.0
C192 C 0.37829 0.61966 0.79469 0.0
C193 C 0.33253 0.57201 0.81855 0.0
H194 H 0.46394 0.7081 0.79111 0.0
H195 H 0.37402 0.61614 0.7632 0.0
S196 S 0.33277 0.56903 0.92703 0.0
N197 N 0.39674 0.6356 0.91541 0.0
N198 N 0.29946 0.53583 0.88514 0.0
C199 C 0.34038 0.57906 0.85933 0.0
C200 C 0.3933 0.63324 0.87577 0.0
C201 C 0.76111 0.4295 0.14125 0.0
C202 C 0.76256 0.43882 0.18186 0.0
C203 C 0.76183 0.37702 0.12544 0.0
C204 C 0.76384 0.3315 0.14957 0.0
H205 H 0.75935 0.46295 0.12133 0.0
H206 H 0.76041 0.37206 0.09398 0.0
S207 S 0.76908 0.334 0.258 0.0
N208 N 0.76669 0.39804 0.246 0.0
N209 N 0.76802 0.29969 0.21632 0.0
C210 C 0.76553 0.34029 0.19027 0.0
C211 C 0.76491 0.39381 0.20639 0.0
C212 C 0.39765 0.76576 0.46229 0.0
C213 C 0.44462 0.76683 0.48653 0.0
C214 C 0.34488 0.76579 0.47789 0.0
C215 C 0.33665 0.76706 0.51846 0.0
H216 H 0.40137 0.76476 0.43083 0.0
H217 H 0.31032 0.76493 0.45777 0.0
S218 S 0.44597 0.77038 0.59494 0.0
N219 N 0.47951 0.76929 0.55338 0.0
N220 N 0.38026 0.76941 0.58276 0.0
C221 C 0.38323 0.76816 0.54318 0.0
C222 C 0.43713 0.768 0.52722 0.0
C223 C 0.59205 0.33887 0.81212 0.0
C224 C 0.58016 0.33793 0.85239 0.0
C225 C 0.644 0.39033 0.79477 0.0
C226 C 0.68641 0.44299 0.81696 0.0
H227 H 0.56123 0.29934 0.79372 0.0
H228 H 0.65118 0.38841 0.76371 0.0
S229 S 0.67507 0.46581 0.92324 0.0
N230 N 0.61421 0.39555 0.91382 0.0
N231 N 0.71182 0.49211 0.8812 0.0
C232 C 0.67482 0.44313 0.8572 0.0
C233 C 0.62176 0.39071 0.87489 0.0
C234 C 0.54296 0.56595 0.17276 0.0
C235 C 0.572 0.52935 0.17827 0.0
C236 C 0.47703 0.53792 0.17221 0.0
C237 C 0.43834 0.4723 0.17572 0.0
H238 H 0.57135 0.61675 0.17024 0.0
H239 H 0.45616 0.56769 0.16924 0.0
S240 S 0.49126 0.3557 0.18916 0.0
N241 N 0.55727 0.42435 0.18698 0.0
N242 N 0.43335 0.37139 0.18404 0.0
C243 C 0.46679 0.43509 0.18005 0.0
C244 C 0.53374 0.46374 0.18183 0.0
C245 C 0.04146 0.5408 0.48695 0.0
C246 C 0.04738 0.57891 0.51914 0.0
C247 C 1.00124 0.47513 0.48838 0.0
C248 C 0.96454 0.44549 0.52176 0.0
H249 H 0.06925 0.56166 0.46091 0.0
H250 H 0.99927 0.44745 0.46318 0.0
S251 S 0.95819 0.52695 0.61191 0.0
N252 N 0.0107 0.58394 0.58407 0.0
N253 N 0.93396 0.46127 0.58673 0.0
C254 C 0.96849 0.48399 0.55355 0.0
C255 C 0.01022 0.55048 0.55224 0.0
C256 C 0.49202 0.02419 0.82412 0.0
C257 C 0.49025 0.05364 0.85913 0.0
C258 C 0.51777 0.98411 0.82295 0.0
C259 C 0.54121 0.97091 0.85693 0.0
H260 H 0.47342 0.03215 0.79738 0.0
H261 H 0.518 0.96221 0.7955 0.0
S262 S 0.55081 0.03785 0.95549 0.0
N263 N 0.51701 0.06834 0.92831 0.0
N264 N 0.56396 0.9923 0.92603 0.0
C265 C 0.54051 1.00049 0.89193 0.0
C266 C 0.51545 0.04206 0.89305 0.0
C267 C 0.47413 0.53992 0.47467 0.0
C268 C 0.53971 0.57847 0.47892 0.0
C269 C 0.44579 0.47392 0.47506 0.0
C270 C 0.48244 0.4446 0.47836 0.0
H271 H 0.44457 0.56094 0.47114 0.0
H272 H 0.39514 0.44568 0.4716 0.0
S273 S 0.65586 0.52421 0.48947 0.0
N274 N 0.64031 0.58253 0.48703 0.0
N275 N 0.5872 0.45849 0.48583 0.0
C276 C 0.54793 0.4825 0.48241 0.0
C277 C 0.57657 0.54954 0.48323 0.0
C278 C 0.99395 0.52619 0.83993 0.0
C279 C 0.97012 0.53438 0.80433 0.0
C280 C 0.03213 0.49832 0.84111 0.0
C281 C 0.04915 0.47929 0.80665 0.0
H282 H 0.98243 0.54073 0.86711 0.0
H283 H 0.04926 0.49258 0.8691 0.0
S284 S 0.99917 0.48992 0.70607 0.0
N285 N 0.96598 0.5204 0.73383 0.0
N286 N 0.03852 0.46941 0.7361 0.0
C287 C 0.02585 0.48739 0.77093 0.0
C288 C 0.98612 0.51455 0.76975 0.0
C289 C 0.47452 0.97182 0.17613 0.0
C290 C 0.43743 0.96555 0.14333 0.0
C291 C 0.54018 0.01212 0.1754 0.0
C292 C 0.5708 0.04859 0.14214 0.0
H293 H 0.45287 0.94428 0.20214 0.0
H294 H 0.56709 0.01442 0.20107 0.0
S295 S 0.49228 0.05362 0.05033 0.0
N296 N 0.43443 1.00149 0.07783 0.0
N297 N 0.55711 0.07825 0.07643 0.0
C298 C 0.53334 0.0442 0.10968 0.0
C299 C 0.46686 1.0024 0.11028 0.0
C300 C 0.26717 0.32494 0.33735 0.0
C301 C 0.27528 0.31771 0.29738 0.0
C302 C 0.29155 0.30225 0.366 0.0
C303 C 0.32557 0.27199 0.35579 0.0
H304 H 0.24415 0.35074 0.34669 0.0
H305 H 0.28671 0.31181 0.3963 0.0
S306 S 0.35211 0.23294 0.25539 0.0
N307 N 0.31361 0.27167 0.24914 0.0
N308 N 0.35978 0.22942 0.30305 0.0
C309 C 0.33013 0.26041 0.31602 0.0
C310 C 0.30482 0.28309 0.2868 0.0
C311 C 0.02329 0.30525 0.62661 0.0
C312 C 0.9597 0.27062 0.63795 0.0
C313 C 0.07181 0.3279 0.65436 0.0
C314 C 0.05864 0.31647 0.69451 0.0
H315 H 0.03573 0.3183 0.59634 0.0
H316 H 0.11978 0.35728 0.6443 0.0
S317 S 0.9001 0.21843 0.7385 0.0
N318 N 0.88636 0.21887 0.69137 0.0
N319 N 0.97731 0.26097 0.74354 0.0
C320 C 0.99543 0.27732 0.70585 0.0
C321 C 0.94603 0.2546 0.67758 0.0
C322 C 0.7242 0.02035 0.95852 0.0
C323 C 0.69904 0.95708 0.96985 0.0
C324 C 0.74661 0.06878 0.98629 0.0
C325 C 0.74512 0.05589 0.02646 0.0
H326 H 0.72296 0.03236 0.92823 0.0
H327 H 0.76232 0.11628 0.9762 0.0
S328 S 0.69399 0.89894 0.07052 0.0
N329 N 0.68125 0.88479 0.02331 0.0
N330 N 0.72382 0.97572 0.0756 0.0
C331 C 0.72493 0.99334 0.03785 0.0
C332 C 0.70172 0.94397 0.00953 0.0
C333 C 0.72677 0.71657 0.3683 0.0
C334 C 0.69455 0.74849 0.35774 0.0
C335 C 0.74888 0.69115 0.33994 0.0
C336 C 0.74015 0.69706 0.29986 0.0
H337 H 0.73179 0.70778 0.39871 0.0
H338 H 0.77053 0.66425 0.34965 0.0
S339 S 0.66785 0.78535 0.25681 0.0
N340 N 0.66174 0.79131 0.30442 0.0
N341 N 0.70357 0.7438 0.25105 0.0
C342 C 0.71258 0.73331 0.28885 0.0
C343 C 0.68965 0.75889 0.3178 0.0
C344 C 0.06416 0.75867 0.66991 0.0
C345 C 0.05173 0.74616 0.62983 0.0
C346 C 0.01554 0.7329 0.69746 0.0
C347 C 0.95253 0.69306 0.68608 0.0
H348 H 0.1122 0.78624 0.68035 0.0
H349 H 0.02814 0.74162 0.72806 0.0
S350 S 0.89384 0.6523 0.58421 0.0
N351 N 0.97096 0.69679 0.57973 0.0
N352 N 0.87957 0.64796 0.63152 0.0
C353 C 0.93888 0.68389 0.64587 0.0
C354 C 0.98846 0.7106 0.61774 0.0
C355 C 0.26209 0.95134 0.99108 0.0
C356 C 0.27223 0.96292 0.03142 0.0
C357 C 0.28829 1.00071 0.96402 0.0
C358 C 0.32614 0.06365 0.97618 0.0
H359 H 0.23608 0.90347 0.98012 0.0
H360 H 0.28154 0.98888 0.93326 0.0
S361 S 0.36024 0.1201 0.0788 0.0
N362 N 0.31729 0.0427 0.08243 0.0
N363 N 0.36667 0.13546 0.0316 0.0
C364 C 0.33288 0.07632 0.01656 0.0
C365 C 0.30583 0.02598 0.04417 0.0
C366 C 0.98158 0.2438 0.12611 0.0
C367 C 0.93845 0.22133 0.15732 0.0
C368 C 0.04678 0.27432 0.13273 0.0
C369 C 0.07127 0.28486 0.17085 0.0
H370 H 0.96487 0.23827 0.09629 0.0
H371 H 0.07823 0.29188 0.10786 0.0
S372 S 0.97874 0.23315 0.26258 0.0
N373 N 0.92503 0.2093 0.22772 0.0
N374 N 0.04761 0.26826 0.24016 0.0
C375 C 0.02878 0.26159 0.20228 0.0
C376 C 0.96236 0.22933 0.19552 0.0
C377 C 0.77662 0.05474 0.46975 0.0
C378 C 0.78948 0.07744 0.50833 0.0
C379 C 0.74456 0.98978 0.46186 0.0
C380 C 0.72571 0.94524 0.49219 0.0
H381 H 0.7895 0.0873 0.44553 0.0
H382 H 0.73417 0.97434 0.43176 0.0
S383 S 0.75139 0.9806 0.59816 0.0
N384 N 0.78266 0.05047 0.57711 0.0
N385 N 0.72407 0.92859 0.56227 0.0
C386 C 0.74023 0.96744 0.53082 0.0
C387 C 0.77162 0.03348 0.53889 0.0
C388 C 0.80435 0.77644 0.80612 0.0
C389 C 0.7867 0.71717 0.82217 0.0
C390 C 0.76992 0.8069 0.81452 0.0
C391 C 0.71697 0.77902 0.83934 0.0
H392 H 0.84457 0.79902 0.78674 0.0
H393 H 0.78499 0.85259 0.80155 0.0
S394 S 0.65077 0.62211 0.88688 0.0
N395 N 0.7128 0.63059 0.86264 0.0
N396 N 0.64794 0.68718 0.87877 0.0
C397 C 0.69911 0.71937 0.85539 0.0
C398 C 0.73401 0.68856 0.84666 0.0
C399 C 0.9822 0.73792 0.20153 0.0
C400 C 0.93859 0.71991 0.17066 0.0
C401 C 0.04733 0.76991 0.19447 0.0
C402 C 0.07118 0.78372 0.1562 0.0
H403 H 0.96591 0.72682 0.23142 0.0
H404 H 0.0791 0.782 0.21909 0.0
S405 S 0.97722 0.74876 0.06522 0.0
N406 N 0.92416 0.72044 0.10042 0.0
N407 N 0.04638 0.77918 0.08714 0.0
C408 C 0.0282 0.76697 0.12512 0.0
C409 C 0.96197 0.7355 0.13234 0.0
C410 C 0.24454 0.96887 0.46562 0.0
C411 C 0.22962 0.94528 0.5039 0.0
C412 C 0.27688 0.03398 0.4584 0.0
C413 C 0.29404 0.07782 0.4891 0.0
H414 H 0.23312 0.93689 0.44115 0.0
H415 H 0.28891 0.05011 0.42854 0.0
S416 S 0.26228 0.03995 0.59444 0.0
N417 N 0.23235 0.9706 0.57276 0.0
N418 N 0.29159 0.0928 0.55914 0.0
C419 C 0.27732 0.05472 0.52739 0.0
C420 C 0.24558 0.9885 0.5348 0.0
C421 C 0.24981 0.26836 0.79859 0.0
C422 C 0.22684 0.29035 0.82883 0.0
C423 C 0.28273 0.23638 0.80669 0.0
C424 C 0.29528 0.22666 0.84534 0.0
H425 H 0.24285 0.27646 0.76837 0.0
H426 H 0.30048 0.22128 0.78247 0.0
S427 S 0.2436 0.27308 0.93506 0.0
N428 N 0.21681 0.29793 0.89897 0.0
N429 N 0.28011 0.23935 0.91419 0.0
C430 C 0.27155 0.24733 0.87586 0.0
C431 C 0.2369 0.27871 0.86761 0.0
loop_
_geom_bond_atom_site_label_1
_geom_bond_atom_site_label_2
_geom_bond_distance
_geom_bond_site_symmetry_2
_ccdc_geom_bond_type
C0 O2 1.247 . S
C0 O4 1.258 . S
C1 O8 1.247 . S
C1 O9 1.258 . S
O2 C0 1.247 . S
O2 Zn3 2.028 . S
Zn3 O2 2.028 . S
Zn3 O7 2.035 . S
Zn3 O9 2.035 . S
Zn3 O10 2.028 . S
O4 C0 1.258 . S
O4 Zn5 2.035 . S
Zn5 O4 2.035 . S
Zn5 O6 2.028 . S
Zn5 O8 2.028 . S
Zn5 O11 2.035 . S
O6 Zn5 2.028 . S
O6 C12 1.247 . S
O7 Zn3 2.035 . S
O7 C12 1.258 . S
O8 C1 1.247 . S
O8 Zn5 2.028 . S
O9 C1 1.258 . S
O9 Zn3 2.035 . S
O10 Zn3 2.028 . S
O10 C13 1.247 . S
O11 Zn5 2.035 . S
O11 C13 1.258 . S
C12 O6 1.247 . S
C12 O7 1.258 . S
C13 O10 1.247 . S
C13 O11 1.258 . S
C14 O16 1.247 . S
C14 O18 1.258 . S
C15 O22 1.247 . S
C15 O23 1.258 . S
O16 C14 1.247 . S
O16 Zn17 2.028 . S
Zn17 O16 2.028 . S
Zn17 O21 2.035 . S
Zn17 O23 2.035 . S
Zn17 O24 2.028 . S
O18 C14 1.258 . S
O18 Zn19 2.035 . S
Zn19 O18 2.035 . S
Zn19 O20 2.028 . S
Zn19 O22 2.028 . S
Zn19 O25 2.035 . S
O20 Zn19 2.028 . S
O20 C26 1.247 . S
O21 Zn17 2.035 . S
O21 C26 1.258 . S
O22 C15 1.247 . S
O22 Zn19 2.028 . S
O23 C15 1.258 . S
O23 Zn17 2.035 . S
O24 Zn17 2.028 . S
O24 C27 1.247 . S
O25 Zn19 2.035 . S
O25 C27 1.258 . S
C26 O20 1.247 . S
C26 O21 1.258 . S
C27 O24 1.247 . S
C27 O25 1.258 . S
C28 O30 1.247 . S
C28 O32 1.258 . S
C29 O36 1.247 . S
C29 O37 1.258 . S
O30 C28 1.247 . S
O30 Zn31 2.028 . S
Zn31 O30 2.028 . S
Zn31 O35 2.035 . S
Zn31 O37 2.035 . S
Zn31 O38 2.028 . S
O32 C28 1.258 . S
O32 Zn33 2.035 . S
Zn33 O32 2.035 . S
Zn33 O34 2.028 . S
Zn33 O36 2.028 . S
Zn33 O39 2.035 . S
O34 Zn33 2.028 . S
O34 C40 1.247 . S
O35 Zn31 2.035 . S
O35 C40 1.258 . S
O36 C29 1.247 . S
O36 Zn33 2.028 . S
O37 C29 1.258 . S
O37 Zn31 2.035 . S
O38 Zn31 2.028 . S
O38 C41 1.247 . S
O39 Zn33 2.035 . S
O39 C41 1.258 . S
C40 O34 1.247 . S
C40 O35 1.258 . S
C41 O38 1.247 . S
C41 O39 1.258 . S
C42 O44 1.247 . S
C42 O46 1.258 . S
C43 O50 1.247 . S
C43 O51 1.258 . S
O44 C42 1.247 . S
O44 Zn45 2.028 . S
Zn45 O44 2.028 . S
Zn45 O49 2.035 . S
Zn45 O51 2.035 . S
Zn45 O52 2.028 . S
O46 C42 1.258 . S
O46 Zn47 2.035 . S
Zn47 O46 2.035 . S
Zn47 O48 2.028 . S
Zn47 O50 2.028 . S
Zn47 O53 2.035 . S
O48 Zn47 2.028 . S
O48 C54 1.247 . S
O49 Zn45 2.035 . S
O49 C54 1.258 . S
O50 C43 1.247 . S
O50 Zn47 2.028 . S
O51 C43 1.258 . S
O51 Zn45 2.035 . S
O52 Zn45 2.028 . S
O52 C55 1.247 . S
O53 Zn47 2.035 . S
O53 C55 1.258 . S
C54 O48 1.247 . S
C54 O49 1.258 . S
C55 O52 1.247 . S
C55 O53 1.258 . S
C56 O58 1.247 . S
C56 O60 1.258 . S
C57 O64 1.247 . S
C57 O65 1.258 . S
O58 C56 1.247 . S
O58 Zn59 2.028 . S
Zn59 O58 2.028 . S
Zn59 O63 2.035 . S
Zn59 O65 2.035 . S
Zn59 O66 2.028 . S
O60 C56 1.258 . S
O60 Zn61 2.035 . S
Zn61 O60 2.035 . S
Zn61 O62 2.028 . S
Zn61 O64 2.028 . S
Zn61 O67 2.035 . S
O62 Zn61 2.028 . S
O62 C68 1.247 . S
O63 Zn59 2.035 . S
O63 C68 1.258 . S
O64 C57 1.247 . S
O64 Zn61 2.028 . S
O65 C57 1.258 . S
O65 Zn59 2.035 . S
O66 Zn59 2.028 . S
O66 C69 1.247 . S
O67 Zn61 2.035 . S
O67 C69 1.258 . S
C68 O62 1.247 . S
C68 O63 1.258 . S
C69 O66 1.247 . S
C69 O67 1.258 . S
C70 O72 1.247 . S
C70 O74 1.258 . S
C71 O78 1.247 . S
C71 O79 1.258 . S
O72 C70 1.247 . S
O72 Zn73 2.028 . S
Zn73 O72 2.028 . S
Zn73 O77 2.035 . S
Zn73 O79 2.035 . S
Zn73 O80 2.028 . S
O74 C70 1.258 . S
O74 Zn75 2.035 . S
Zn75 O74 2.035 . S
Zn75 O76 2.028 . S
Zn75 O78 2.028 . S
Zn75 O81 2.035 . S
O76 Zn75 2.028 . S
O76 C82 1.247 . S
O77 Zn73 2.035 . S
O77 C82 1.258 . S
O78 C71 1.247 . S
O78 Zn75 2.028 . S
O79 C71 1.258 . S
O79 Zn73 2.035 . S
O80 Zn73 2.028 . S
O80 C83 1.247 . S
O81 Zn75 2.035 . S
O81 C83 1.258 . S
C82 O76 1.247 . S
C82 O77 1.258 . S
C83 O80 1.247 . S
C83 O81 1.258 . S
C84 O86 1.247 . S
C84 O88 1.258 . S
C85 O92 1.247 . S
C85 O93 1.258 . S
O86 C84 1.247 . S
O86 Zn87 2.028 . S
Zn87 O86 2.028 . S
Zn87 O91 2.035 . S
Zn87 O93 2.035 . S
Zn87 O94 2.028 . S
O88 C84 1.258 . S
O88 Zn89 2.035 . S
Zn89 O88 2.035 . S
Zn89 O90 2.028 . S
Zn89 O92 2.028 . S
Zn89 O95 2.035 . S
O90 Zn89 2.028 . S
O90 C96 1.247 . S
O91 Zn87 2.035 . S
O91 C96 1.258 . S
O92 C85 1.247 . S
O92 Zn89 2.028 . S
O93 C85 1.258 . S
O93 Zn87 2.035 . S
O94 Zn87 2.028 . S
O94 C97 1.247 . S
O95 Zn89 2.035 . S
O95 C97 1.258 . S
C96 O90 1.247 . S
C96 O91 1.258 . S
C97 O94 1.247 . S
C97 O95 1.258 . S
C98 O100 1.247 . S
C98 O102 1.258 . S
C99 O106 1.247 . S
C99 O107 1.258 . S
O100 C98 1.247 . S
O100 Zn101 2.028 . S
Zn101 O100 2.028 . S
Zn101 O105 2.035 . S
Zn101 O107 2.035 . S
Zn101 O108 2.028 . S
O102 C98 1.258 . S
O102 Zn103 2.035 . S
Zn103 O102 2.035 . S
Zn103 O104 2.028 . S
Zn103 O106 2.028 . S
Zn103 O109 2.035 . S
O104 Zn103 2.028 . S
O104 C110 1.247 . S
O105 Zn101 2.035 . S
O105 C110 1.258 . S
O106 C99 1.247 . S
O106 Zn103 2.028 . S
O107 C99 1.258 . S
O107 Zn101 2.035 . S
O108 Zn101 2.028 . S
O108 C111 1.247 . S
O109 Zn103 2.035 . S
O109 C111 1.258 . S
C110 O104 1.247 . S
C110 O105 1.258 . S
C111 O108 1.247 . S
C111 O109 1.258 . S
C112 O114 1.247 . S
C112 O116 1.258 . S
C113 O120 1.247 . S
C113 O121 1.258 . S
O114 C112 1.247 . S
O114 Zn115 2.028 . S
Zn115 O114 2.028 . S
Zn115 O119 2.035 . S
Zn115 O121 2.035 . S
Zn115 O122 2.028 . S
O116 C112 1.258 . S
O116 Zn117 2.035 . S
Zn117 O116 2.035 . S
Zn117 O118 2.028 . S
Zn117 O120 2.028 . S
Zn117 O123 2.035 . S
O118 Zn117 2.028 . S
O118 C124 1.247 . S
O119 Zn115 2.035 . S
O119 C124 1.258 . S
O120 C113 1.247 . S
O120 Zn117 2.028 . S
O121 C113 1.258 . S
O121 Zn115 2.035 . S
O122 Zn115 2.028 . S
O122 C125 1.247 . S
O123 Zn117 2.035 . S
O123 C125 1.258 . S
C124 O118 1.247 . S
C124 O119 1.258 . S
C125 O122 1.247 . S
C125 O123 1.258 . S
C126 O128 1.247 . S
C126 O130 1.258 . S
C127 O134 1.247 . S
C127 O135 1.258 . S
O128 C126 1.247 . S
O128 Zn129 2.028 . S
Zn129 O128 2.028 . S
Zn129 O133 2.035 . S
Zn129 O135 2.035 . S
Zn129 O136 2.028 . S
O130 C126 1.258 . S
O130 Zn131 2.035 . S
Zn131 O130 2.035 . S
Zn131 O132 2.028 . S
Zn131 O134 2.028 . S
Zn131 O137 2.035 . S
O132 Zn131 2.028 . S
O132 C138 1.247 . S
O133 Zn129 2.035 . S
O133 C138 1.258 . S
O134 C127 1.247 . S
O134 Zn131 2.028 . S
O135 C127 1.258 . S
O135 Zn129 2.035 . S
O136 Zn129 2.028 . S
O136 C139 1.247 . S
O137 Zn131 2.035 . S
O137 C139 1.258 . S
C138 O132 1.247 . S
C138 O133 1.258 . S
C139 O136 1.247 . S
C139 O137 1.258 . S
C140 O142 1.247 . S
C140 O144 1.258 . S
C141 O148 1.247 . S
C141 O149 1.258 . S
O142 C140 1.247 . S
O142 Zn143 2.028 . S
Zn143 O142 2.028 . S
Zn143 O147 2.035 . S
Zn143 O149 2.035 . S
Zn143 O150 2.028 . S
O144 C140 1.258 . S
O144 Zn145 2.035 . S
Zn145 O144 2.035 . S
Zn145 O146 2.028 . S
Zn145 O148 2.028 . S
Zn145 O151 2.035 . S
O146 Zn145 2.028 . S
O146 C152 1.247 . S
O147 Zn143 2.035 . S
O147 C152 1.258 . S
O148 C141 1.247 . S
O148 Zn145 2.028 . S
O149 C141 1.258 . S
O149 Zn143 2.035 . S
O150 Zn143 2.028 . S
O150 C153 1.247 . S
O151 Zn145 2.035 . S
O151 C153 1.258 . S
C152 O146 1.247 . S
C152 O147 1.258 . S
C153 O150 1.247 . S
C153 O151 1.258 . S
C154 O156 1.247 . S
C154 O158 1.258 . S
C155 O162 1.247 . S
C155 O163 1.258 . S
O156 C154 1.247 . S
O156 Zn157 2.028 . S
Zn157 O156 2.028 . S
Zn157 O161 2.035 . S
Zn157 O163 2.035 . S
Zn157 O164 2.028 . S
O158 C154 1.258 . S
O158 Zn159 2.035 . S
Zn159 O158 2.035 . S
Zn159 O160 2.028 . S
Zn159 O162 2.028 . S
Zn159 O165 2.035 . S
O160 Zn159 2.028 . S
O160 C166 1.247 . S
O161 Zn157 2.035 . S
O161 C166 1.258 . S
O162 C155 1.247 . S
O162 Zn159 2.028 . S
O163 C155 1.258 . S
O163 Zn157 2.035 . S
O164 Zn157 2.028 . S
O164 C167 1.247 . S
O165 Zn159 2.035 . S
O165 C167 1.258 . S
C166 O160 1.247 . S
C166 O161 1.258 . S
C167 O164 1.247 . S
C167 O165 1.258 . S
C168 C169 1.369 . S
C168 C170 1.419 . S
C168 H172 0.930 . S
C169 C168 1.369 . S
C169 C178 1.429 . S
C170 C168 1.419 . S
C170 C171 1.363 . S
C170 H173 0.929 . S
C171 C170 1.363 . S
C171 C177 1.428 . S
H172 C168 0.930 . S
H173 C170 0.929 . S
S174 N175 1.613 . S
S174 N176 1.610 . S
N175 S174 1.613 . S
N175 C178 1.350 . S
N176 S174 1.610 . S
N176 C177 1.351 . S
C177 C171 1.428 . S
C177 N176 1.351 . S
C177 C178 1.434 . S
C178 C169 1.429 . S
C178 N175 1.350 . S
C178 C177 1.434 . S
C179 C180 1.369 . S
C179 C181 1.419 . S
C179 H183 0.930 . S
C180 C179 1.369 . S
C180 C189 1.429 . S
C181 C179 1.419 . S
C181 C182 1.363 . S
C181 H184 0.929 . S
C182 C181 1.363 . S
C182 C188 1.428 . S
H183 C179 0.930 . S
H184 C181 0.929 . S
S185 N186 1.613 . S
S185 N187 1.610 . S
N186 S185 1.613 . S
N186 C189 1.350 . S
N187 S185 1.610 . S
N187 C188 1.351 . S
C188 C182 1.428 . S
C188 N187 1.351 . S
C188 C189 1.434 . S
C189 C180 1.429 . S
C189 N186 1.350 . S
C189 C188 1.434 . S
C190 C191 1.369 . S
C190 C192 1.419 . S
C190 H194 0.930 . S
C191 C190 1.369 . S
C191 C200 1.429 . S
C192 C190 1.419 . S
C192 C193 1.363 . S
C192 H195 0.929 . S
C193 C192 1.363 . S
C193 C199 1.428 . S
H194 C190 0.930 . S
H195 C192 0.929 . S
S196 N197 1.613 . S
S196 N198 1.610 . S
N197 S196 1.613 . S
N197 C200 1.350 . S
N198 S196 1.610 . S
N198 C199 1.351 . S
C199 C193 1.428 . S
C199 N198 1.351 . S
C199 C200 1.434 . S
C200 C191 1.429 . S
C200 N197 1.350 . S
C200 C199 1.434 . S
C201 C202 1.369 . S
C201 C203 1.419 . S
C201 H205 0.930 . S
C202 C201 1.369 . S
C202 C211 1.429 . S
C203 C201 1.419 . S
C203 C204 1.363 . S
C203 H206 0.929 . S
C204 C203 1.363 . S
C204 C210 1.428 . S
H205 C201 0.930 . S
H206 C203 0.929 . S
S207 N208 1.613 . S
S207 N209 1.610 . S
N208 S207 1.613 . S
N208 C211 1.350 . S
N209 S207 1.610 . S
N209 C210 1.351 . S
C210 C204 1.428 . S
C210 N209 1.351 . S
C210 C211 1.434 . S
C211 C202 1.429 . S
C211 N208 1.350 . S
C211 C210 1.434 . S
C212 C213 1.369 . S
C212 C214 1.419 . S
C212 H216 0.930 . S
C213 C212 1.369 . S
C213 C222 1.429 . S
C214 C212 1.419 . S
C214 C215 1.363 . S
C214 H217 0.929 . S
C215 C214 1.363 . S
C215 C221 1.428 . S
H216 C212 0.930 . S
H217 C214 0.929 . S
S218 N219 1.613 . S
S218 N220 1.610 . S
N219 S218 1.613 . S
N219 C222 1.350 . S
N220 S218 1.610 . S
N220 C221 1.351 . S
C221 C215 1.428 . S
C221 N220 1.351 . S
C221 C222 1.434 . S
C222 C213 1.429 . S
C222 N219 1.350 . S
C222 C221 1.434 . S
C223 C224 1.369 . S
C223 C225 1.419 . S
C223 H227 0.930 . S
C224 C223 1.369 . S
C224 C233 1.429 . S
C225 C223 1.419 . S
C225 C226 1.363 . S
C225 H228 0.929 . S
C226 C225 1.363 . S
C226 C232 1.428 . S
H227 C223 0.930 . S
H228 C225 0.929 . S
S229 N230 1.613 . S
S229 N231 1.610 . S
N230 S229 1.613 . S
N230 C233 1.350 . S
N231 S229 1.610 . S
N231 C232 1.351 . S
C232 C226 1.428 . S
C232 N231 1.351 . S
C232 C233 1.434 . S
C233 C224 1.429 . S
C233 N230 1.350 . S
C233 C232 1.434 . S
C234 C235 1.369 . S
C234 C236 1.419 . S
C234 H238 0.930 . S
C235 C234 1.369 . S
C235 C244 1.429 . S
C236 C234 1.419 . S
C236 C237 1.363 . S
C236 H239 0.929 . S
C237 C236 1.363 . S
C237 C243 1.428 . S
H238 C234 0.930 . S
H239 C236 0.929 . S
S240 N241 1.613 . S
S240 N242 1.610 . S
N241 S240 1.613 . S
N241 C244 1.350 . S
N242 S240 1.610 . S
N242 C243 1.351 . S
C243 C237 1.428 . S
C243 N242 1.351 . S
C243 C244 1.434 . S
C244 C235 1.429 . S
C244 N241 1.350 . S
C244 C243 1.434 . S
C245 C246 1.369 . S
C245 C247 1.419 . S
C245 H249 0.930 . S
C246 C245 1.369 . S
C246 C255 1.429 1_455 S
C247 C245 1.419 . S
C247 C248 1.363 1_455 S
C247 H250 0.929 . S
C248 C247 1.363 1_655 S
C248 C254 1.428 . S
H249 C245 0.930 . S
H250 C247 0.929 . S
S251 N252 1.613 . S
S251 N253 1.610 . S
N252 S251 1.613 . S
N252 C255 1.350 . S
N253 S251 1.610 . S
N253 C254 1.351 . S
C254 C248 1.428 . S
C254 N253 1.351 . S
C254 C255 1.434 . S
C255 C246 1.429 1_655 S
C255 N252 1.350 . S
C255 C254 1.434 . S
C256 C257 1.369 1_565 S
C256 C258 1.419 . S
C256 H260 0.930 . S
C257 C256 1.369 1_545 S
C257 C266 1.429 . S
C258 C256 1.419 . S
C258 C259 1.363 . S
C258 H261 0.929 . S
C259 C258 1.363 . S
C259 C265 1.428 1_565 S
H260 C256 0.930 . S
H261 C258 0.929 . S
S262 N263 1.613 . S
S262 N264 1.610 . S
N263 S262 1.613 . S
N263 C266 1.350 . S
N264 S262 1.610 . S
N264 C265 1.351 . S
C265 C259 1.428 1_545 S
C265 N264 1.351 . S
C265 C266 1.434 . S
C266 C257 1.429 . S
C266 N263 1.350 . S
C266 C265 1.434 . S
C267 C268 1.369 . S
C267 C269 1.419 . S
C267 H271 0.930 . S
C268 C267 1.369 . S
C268 C277 1.429 . S
C269 C267 1.419 . S
C269 C270 1.363 . S
C269 H272 0.929 . S
C270 C269 1.363 . S
C270 C276 1.428 . S
H271 C267 0.930 . S
H272 C269 0.929 . S
S273 N274 1.613 . S
S273 N275 1.610 . S
N274 S273 1.613 . S
N274 C277 1.350 . S
N275 S273 1.610 . S
N275 C276 1.351 . S
C276 C270 1.428 . S
C276 N275 1.351 . S
C276 C277 1.434 . S
C277 C268 1.429 . S
C277 N274 1.350 . S
C277 C276 1.434 . S
C278 C279 1.369 . S
C278 C280 1.419 1_655 S
C278 H282 0.930 . S
C279 C278 1.369 . S
C279 C288 1.429 . S
C280 C278 1.419 1_455 S
C280 C281 1.363 . S
C280 H283 0.929 . S
C281 C280 1.363 . S
C281 C287 1.428 . S
H282 C278 0.930 . S
H283 C280 0.929 . S
S284 N285 1.613 1_455 S
S284 N286 1.610 . S
N285 S284 1.613 1_655 S
N285 C288 1.350 . S
N286 S284 1.610 . S
N286 C287 1.351 . S
C287 C281 1.428 . S
C287 N286 1.351 . S
C287 C288 1.434 1_455 S
C288 C279 1.429 . S
C288 N285 1.350 . S
C288 C287 1.434 1_655 S
C289 C290 1.369 . S
C289 C291 1.419 . S
C289 H293 0.930 . S
C290 C289 1.369 . S
C290 C299 1.429 1_565 S
C291 C289 1.419 . S
C291 C292 1.363 1_565 S
C291 H294 0.929 . S
C292 C291 1.363 1_545 S
C292 C298 1.428 . S
H293 C289 0.930 . S
H294 C291 0.929 . S
S295 N296 1.613 . S
S295 N297 1.610 . S
N296 S295 1.613 . S
N296 C299 1.350 . S
N297 S295 1.610 . S
N297 C298 1.351 . S
C298 C292 1.428 . S
C298 N297 1.351 . S
C298 C299 1.434 . S
C299 C290 1.429 1_545 S
C299 N296 1.350 . S
C299 C298 1.434 . S
C300 C301 1.369 . S
C300 C302 1.419 . S
C300 H304 0.930 . S
C301 C300 1.369 . S
C301 C310 1.429 . S
C302 C300 1.419 . S
C302 C303 1.363 . S
C302 H305 0.929 . S
C303 C302 1.363 . S
C303 C309 1.428 . S
H304 C300 0.930 . S
H305 C302 0.929 . S
S306 N307 1.613 . S
S306 N308 1.610 . S
N307 S306 1.613 . S
N307 C310 1.350 . S
N308 S306 1.610 . S
N308 C309 1.351 . S
C309 C303 1.428 . S
C309 N308 1.351 . S
C309 C310 1.434 . S
C310 C301 1.429 . S
C310 N307 1.350 . S
C310 C309 1.434 . S
C311 C312 1.369 1_455 S
C311 C313 1.419 . S
C311 H315 0.930 . S
C312 C311 1.369 1_655 S
C312 C321 1.429 . S
C313 C311 1.419 . S
C313 C314 1.363 . S
C313 H316 0.929 . S
C314 C313 1.363 . S
C314 C320 1.428 1_455 S
H315 C311 0.930 . S
H316 C313 0.929 . S
S317 N318 1.613 . S
S317 N319 1.610 . S
N318 S317 1.613 . S
N318 C321 1.350 . S
N319 S317 1.610 . S
N319 C320 1.351 . S
C320 C314 1.428 1_655 S
C320 N319 1.351 . S
C320 C321 1.434 . S
C321 C312 1.429 . S
C321 N318 1.350 . S
C321 C320 1.434 . S
C322 C323 1.369 . S
C322 C324 1.421 1_556 S
C322 H326 0.930 . S
C323 C322 1.369 . S
C323 C332 1.429 1_565 S
C324 C322 1.421 1_554 S
C324 C325 1.355 1_565 S
C324 H327 0.935 . S
C325 C324 1.355 1_545 S
C325 C331 1.428 . S
H326 C322 0.930 . S
H327 C324 0.935 . S
S328 N329 1.613 . S
S328 N330 1.610 1_556 S
N329 S328 1.613 . S
N329 C332 1.350 . S
N330 S328 1.610 1_554 S
N330 C331 1.351 . S
C331 C325 1.428 . S
C331 N330 1.351 . S
C331 C332 1.434 1_554 S
C332 C323 1.429 1_545 S
C332 N329 1.350 . S
C332 C331 1.434 1_556 S
C333 C334 1.369 . S
C333 C335 1.419 . S
C333 H337 0.930 . S
C334 C333 1.369 . S
C334 C343 1.429 . S
C335 C333 1.419 . S
C335 C336 1.363 . S
C335 H338 0.929 . S
C336 C335 1.363 . S
C336 C342 1.428 . S
H337 C333 0.930 . S
H338 C335 0.929 . S
S339 N340 1.613 . S
S339 N341 1.610 . S
N340 S339 1.613 . S
N340 C343 1.350 . S
N341 S339 1.610 . S
N341 C342 1.351 . S
C342 C336 1.428 . S
C342 N341 1.351 . S
C342 C343 1.434 . S
C343 C334 1.429 . S
C343 N340 1.350 . S
C343 C342 1.434 . S
C344 C345 1.369 . S
C344 C346 1.419 . S
C344 H348 0.930 . S
C345 C344 1.369 . S
C345 C354 1.429 1_455 S
C346 C344 1.419 . S
C346 C347 1.363 1_455 S
C346 H349 0.929 . S
C347 C346 1.363 1_655 S
C347 C353 1.428 . S
H348 C344 0.930 . S
H349 C346 0.929 . S
S350 N351 1.613 . S
S350 N352 1.610 . S
N351 S350 1.613 . S
N351 C354 1.350 . S
N352 S350 1.610 . S
N352 C353 1.351 . S
C353 C347 1.428 . S
C353 N352 1.351 . S
C353 C354 1.434 . S
C354 C345 1.429 1_655 S
C354 N351 1.350 . S
C354 C353 1.434 . S
C355 C356 1.369 . S
C355 C357 1.419 1_564 S
C355 H359 0.930 . S
C356 C355 1.369 . S
C356 C365 1.429 . S
C357 C355 1.419 1_546 S
C357 C358 1.363 . S
C357 H360 0.929 . S
C358 C357 1.363 . S
C358 C364 1.428 . S
H359 C355 0.930 . S
H360 C357 0.929 . S
S361 N362 1.613 1_545 S
S361 N363 1.610 1_554 S
N362 S361 1.613 1_565 S
N362 C365 1.350 . S
N363 S361 1.610 1_556 S
N363 C364 1.351 . S
C364 C358 1.428 . S
C364 N363 1.351 . S
C364 C365 1.434 1_546 S
C365 C356 1.429 . S
C365 N362 1.350 . S
C365 C364 1.434 1_564 S
C366 C367 1.369 . S
C366 C368 1.419 1_655 S
C366 H370 0.930 . S
C367 C366 1.369 . S
C367 C376 1.429 . S
C368 C366 1.419 1_455 S
C368 C369 1.363 . S
C368 H371 0.929 . S
C369 C368 1.363 . S
C369 C375 1.428 . S
H370 C366 0.930 . S
H371 C368 0.929 . S
S372 N373 1.613 . S
S372 N374 1.610 1_655 S
N373 S372 1.613 . S
N373 C376 1.350 . S
N374 S372 1.610 1_455 S
N374 C375 1.351 . S
C375 C369 1.428 . S
C375 N374 1.351 . S
C375 C376 1.434 1_455 S
C376 C367 1.429 . S
C376 N373 1.350 . S
C376 C375 1.434 1_655 S
C377 C378 1.369 . S
C377 C379 1.419 1_545 S
C377 H381 0.930 . S
C378 C377 1.369 . S
C378 C387 1.429 . S
C379 C377 1.419 1_565 S
C379 C380 1.363 . S
C379 H382 0.929 . S
C380 C379 1.363 . S
C380 C386 1.428 . S
H381 C377 0.930 . S
H382 C379 0.929 . S
S383 N384 1.613 1_565 S
S383 N385 1.610 . S
N384 S383 1.613 1_545 S
N384 C387 1.350 . S
N385 S383 1.610 . S
N385 C386 1.351 . S
C386 C380 1.428 . S
C386 N385 1.351 . S
C386 C387 1.434 1_565 S
C387 C378 1.429 . S
C387 N384 1.350 . S
C387 C386 1.434 1_545 S
C388 C389 1.369 . S
C388 C390 1.419 . S
C388 H392 0.930 . S
C389 C388 1.369 . S
C389 C398 1.429 . S
C390 C388 1.419 . S
C390 C391 1.363 . S
C390 H393 0.929 . S
C391 C390 1.363 . S
C391 C397 1.428 . S
H392 C388 0.930 . S
H393 C390 0.929 . S
S394 N395 1.613 . S
S394 N396 1.610 . S
N395 S394 1.613 . S
N395 C398 1.350 . S
N396 S394 1.610 . S
N396 C397 1.351 . S
C397 C391 1.428 . S
C397 N396 1.351 . S
C397 C398 1.434 . S
C398 C389 1.429 . S
C398 N395 1.350 . S
C398 C397 1.434 . S
C399 C400 1.369 . S
C399 C401 1.419 1_655 S
C399 H403 0.930 . S
C400 C399 1.369 . S
C400 C409 1.429 . S
C401 C399 1.419 1_455 S
C401 C402 1.363 . S
C401 H404 0.929 . S
C402 C401 1.363 . S
C402 C408 1.428 . S
H403 C399 0.930 . S
H404 C401 0.929 . S
S405 N406 1.613 . S
S405 N407 1.610 1_655 S
N406 S405 1.613 . S
N406 C409 1.350 . S
N407 S405 1.610 1_455 S
N407 C408 1.351 . S
C408 C402 1.428 . S
C408 N407 1.351 . S
C408 C409 1.434 1_455 S
C409 C400 1.429 . S
C409 N406 1.350 . S
C409 C408 1.434 1_655 S
C410 C411 1.369 . S
C410 C412 1.419 1_565 S
C410 H414 0.930 . S
C411 C410 1.369 . S
C411 C420 1.429 . S
C412 C410 1.419 1_545 S
C412 C413 1.363 . S
C412 H415 0.929 . S
C413 C412 1.363 . S
C413 C419 1.428 . S
H414 C410 0.930 . S
H415 C412 0.929 . S
S416 N417 1.613 1_545 S
S416 N418 1.610 . S
N417 S416 1.613 1_565 S
N417 C420 1.350 . S
N418 S416 1.610 . S
N418 C419 1.351 . S
C419 C413 1.428 . S
C419 N418 1.351 . S
C419 C420 1.434 1_545 S
C420 C411 1.429 . S
C420 N417 1.350 . S
C420 C419 1.434 1_565 S
C421 C422 1.369 . S
C421 C423 1.419 . S
C421 H425 0.930 . S
C422 C421 1.369 . S
C422 C431 1.429 . S
C423 C421 1.419 . S
C423 C424 1.363 . S
C423 H426 0.929 . S
C424 C423 1.363 . S
C424 C430 1.428 . S
H425 C421 0.930 . S
H426 C423 0.929 . S
S427 N428 1.613 . S
S427 N429 1.610 . S
N428 S427 1.613 . S
N428 C431 1.350 . S
N429 S427 1.610 . S
N429 C430 1.351 . S
C430 C424 1.428 . S
C430 N429 1.351 . S
C430 C431 1.434 . S
C431 C422 1.429 . S
C431 N428 1.350 . S
C431 C430 1.434 . S
C169 C112 2.131 . S
C171 C1 2.127 . S
C180 C27 2.122 . S
C182 C126 2.131 . S
C191 C29 2.123 . S
C193 C141 2.129 . S
C202 C43 2.126 . S
C204 C154 2.132 . S
C213 C84 2.134 . S
C215 C57 2.124 . S
C224 C71 2.123 . S
C226 C99 2.129 . S
C235 C55 1.488 . S
C237 C13 1.486 . S
C246 C69 1.488 . S
C248 C15 1.489 . S
C257 C83 1.489 . S
C259 C41 1.487 . S
C268 C96 1.487 . S
C270 C138 1.489 . S
C279 C111 1.489 . S
C281 C153 1.488 . S
C290 C124 1.488 . S
C292 C166 1.490 . S
C301 C0 1.906 . S
C303 C127 1.896 . S
C312 C26 1.903 . S
C314 C140 1.903 . S
C323 C28 1.905 . S
C325 C155 1.897 . S
C334 C85 1.897 . S
C336 C42 1.904 . S
C345 C56 1.907 . S
C347 C98 1.901 . S
C356 C113 1.900 . S
C358 C70 1.906 . S
C367 C167 1.480 . S
C369 C12 1.485 . S
C378 C14 1.488 . S
C380 C97 1.481 . S
C389 C110 1.485 . S
C391 C40 1.485 . S
C400 C54 1.481 . S
C402 C125 1.485 . S
C411 C68 1.486 . S
C413 C139 1.481 . S
C422 C152 1.483 . S
C424 C82 1.487 . S
