# Generated by pormake.
# Topology sod, (4)-cn, num edge types: 1
# Building blocks:
#     Node 0, Type 0, BuildingBlock: NAHDIM_clean_sbu_0, # of connection points: 4
#     Node 1, Type 0, BuildingBlock: NAHDIM_clean_sbu_0, # of connection points: 4
#     Node 2, Type 0, BuildingBlock: NAHDIM_clean_sbu_0, # of connection points: 4
#     Node 3, Type 0, BuildingBlock: NAHDIM_clean_sbu_0, # of connection points: 4
#     Node 4, Type 0, BuildingBlock: NAHDIM_clean_sbu_0, # of connection points: 4
#     Node 5, Type 0, BuildingBlock: NAHDIM_clean_sbu_0, # of connection points: 4
#     Node 6, Type 0, BuildingBlock: NAHDIM_clean_sbu_0, # of connection points: 4
#     Node 7, Type 0, BuildingBlock: NAHDIM_clean_sbu_0, # of connection points: 4
#     Node 8, Type 0, BuildingBlock: NAHDIM_clean_sbu_0, # of connection points: 4
#     Node 9, Type 0, BuildingBlock: NAHDIM_clean_sbu_0, # of connection points: 4
#     Node 10, Type 0, BuildingBlock: NAHDIM_clean_sbu_0, # of connection points: 4
#     Node 11, Type 0, BuildingBlock: NAHDIM_clean_sbu_0, # of connection points: 4
#     Edge 12, Type (0, 0), BuildingBlock: MIFKUJ_clean_linker_0, # of connection points: 2
#     Edge 13, Type (0, 0), BuildingBlock: MIFKUJ_clean_linker_0, # of connection points: 2
#     Edge 14, Type (0, 0), BuildingBlock: MIFKUJ_clean_linker_0, # of connection points: 2
#     Edge 15, Type (0, 0), BuildingBlock: MIFKUJ_clean_linker_0, # of connection points: 2
#     Edge 16, Type (0, 0), BuildingBlock: MIFKUJ_clean_linker_0, # of connection points: 2
#     Edge 17, Type (0, 0), BuildingBlock: MIFKUJ_clean_linker_0, # of connection points: 2
#     Edge 18, Type (0, 0), BuildingBlock: MIFKUJ_clean_linker_0, # of connection points: 2
#     Edge 19, Type (0, 0), BuildingBlock: MIFKUJ_clean_linker_0, # of connection points: 2
#     Edge 20, Type (0, 0), BuildingBlock: MIFKUJ_clean_linker_0, # of connection points: 2
#     Edge 21, Type (0, 0), BuildingBlock: MIFKUJ_clean_linker_0, # of connection points: 2
#     Edge 22, Type (0, 0), BuildingBlock: MIFKUJ_clean_linker_0, # of connection points: 2
#     Edge 23, Type (0, 0), BuildingBlock: MIFKUJ_clean_linker_0, # of connection points: 2
#     Edge 24, Type (0, 0), BuildingBlock: MIFKUJ_clean_linker_0, # of connection points: 2
#     Edge 25, Type (0, 0), BuildingBlock: MIFKUJ_clean_linker_0, # of connection points: 2
#     Edge 26, Type (0, 0), BuildingBlock: MIFKUJ_clean_linker_0, # of connection points: 2
#     Edge 27, Type (0, 0), BuildingBlock: MIFKUJ_clean_linker_0, # of connection points: 2
#     Edge 28, Type (0, 0), BuildingBlock: MIFKUJ_clean_linker_0, # of connection points: 2
#     Edge 29, Type (0, 0), BuildingBlock: MIFKUJ_clean_linker_0, # of connection points: 2
#     Edge 30, Type (0, 0), BuildingBlock: MIFKUJ_clean_linker_0, # of connection points: 2
#     Edge 31, Type (0, 0), BuildingBlock: MIFKUJ_clean_linker_0, # of connection points: 2
#     Edge 32, Type (0, 0), BuildingBlock: MIFKUJ_clean_linker_0, # of connection points: 2
#     Edge 33, Type (0, 0), BuildingBlock: MIFKUJ_clean_linker_0, # of connection points: 2
#     Edge 34, Type (0, 0), BuildingBlock: MIFKUJ_clean_linker_0, # of connection points: 2
#     Edge 35, Type (0, 0), BuildingBlock: MIFKUJ_clean_linker_0, # of connection points: 2
# Relax obj value: 0.090
# Max RMSD: 0.133
# Mean RMSD: 0.129
data_MOF--net-sod--node1-NAHDIM_clean_sbu_0--edge1-MIFKUJ_clean_linker_0
_symmetry_space_group_name_H-M    P1
_symmetry_Int_Tables_number       1
_symmetry_cell_setting            triclinic
loop_
_symmetry_equiv_pos_as_xyz
'x, y, z'
_cell_length_a     54.925743
_cell_length_b     54.7722
_cell_length_c     54.468027
_cell_angle_alpha  90.588363
_cell_angle_beta   91.049971
_cell_angle_gamma 93.45436
loop_
_atom_site_label
_atom_site_type_symbol
_atom_site_fract_x
_atom_site_fract_y
_atom_site_fract_z
_atom_type_partial_charge
C0 C 0.03778 0.21699 0.53819 0.0
O1 O 0.01697 0.21227 0.54921 0.0
O2 O 0.01808 0.27745 0.4897 0.0
Zn3 Zn 0.0129 0.2581 0.5206 0.0
O4 O 0.98103 0.23785 0.51776 0.0
C5 C 0.00232 0.30128 0.54763 0.0
O6 O 0.99117 0.30622 0.5269 0.0
O7 O 0.04033 0.23586 0.5249 0.0
C8 C 0.96229 0.24166 0.53027 0.0
O9 O 0.9633 0.2594 0.54671 0.0
C10 C 0.00022 0.28254 0.47589 0.0
O11 O 0.97804 0.27455 0.48163 0.0
O12 O 0.01298 0.2814 0.54943 0.0
C13 C 0.80838 0.99097 0.49201 0.0
O14 O 0.81552 0.01405 0.49573 0.0
O15 O 0.74664 0.00881 0.52574 0.0
Zn16 Zn 0.7607 0.01005 0.49211 0.0
O17 O 0.77647 0.0435 0.48652 0.0
C18 C 0.71354 0.01158 0.46919 0.0
O19 O 0.70984 0.02575 0.48819 0.0
O20 O 0.78573 0.98495 0.48979 0.0
C21 C 0.76796 0.06298 0.49471 0.0
O22 O 0.7473 0.06167 0.50652 0.0
C23 C 0.75834 0.01764 0.54446 0.0
O24 O 0.78045 0.02772 0.54185 0.0
O25 O 0.73417 0.00257 0.46693 0.0
C26 C 0.98661 0.8101 0.47994 0.0
O27 O 0.00887 0.81677 0.47326 0.0
O28 O 0.00616 0.74559 0.45313 0.0
Zn29 Zn 0.00803 0.7642 0.48495 0.0
O30 O 0.0404 0.78283 0.48903 0.0
C31 C 0.01598 0.7209 0.51096 0.0
O32 O 0.02874 0.71698 0.4913 0.0
O33 O 0.98156 0.78799 0.4858 0.0
C34 C 0.06033 0.77751 0.47943 0.0
O35 O 0.06098 0.75776 0.46562 0.0
C36 C 0.01167 0.75473 0.43248 0.0
O37 O 0.01868 0.77804 0.43122 0.0
O38 O 0.00471 0.74042 0.51256 0.0
C39 C 0.22321 0.04331 0.54571 0.0
O40 O 0.21881 0.02222 0.55656 0.0
O41 O 0.28478 0.01504 0.55825 0.0
Zn42 Zn 0.26341 0.01823 0.52819 0.0
O43 O 0.24161 0.98766 0.52242 0.0
C44 C 0.30477 0.01408 0.49738 0.0
O45 O 0.31182 0.00043 0.51556 0.0
O46 O 0.24202 0.0463 0.53259 0.0
C47 C 0.2464 0.97051 0.50769 0.0
O48 O 0.26678 0.97212 0.49544 0.0
C49 C 0.28835 0.99446 0.56782 0.0
O50 O 0.27699 0.9746 0.55849 0.0
O51 O 0.28458 0.02416 0.49879 0.0
C52 C 0.44088 0.0117 0.27576 0.0
O53 O 0.44361 0.03145 0.26237 0.0
O54 O 0.48765 0.03132 0.23601 0.0
Zn55 Zn 0.48646 -0.00055 0.25411 0.0
O56 O 0.51447 -0.00069 0.27827 0.0
C57 C 0.50727 0.97317 0.21588 0.0
O58 O 0.52401 0.99111 0.21923 0.0
O59 O 0.45616 0.99529 0.27399 0.0
C60 C 0.52683 0.98084 0.28229 0.0
O61 O 0.52175 0.96045 0.26983 0.0
C62 C 0.50672 0.04567 0.23592 0.0
O63 O 0.52612 0.03997 0.24857 0.0
O64 O 0.48854 0.97237 0.22928 0.0
C65 C 0.07886 0.51135 0.22171 0.0
O66 O 0.05801 0.51678 0.21157 0.0
O67 O 0.04701 0.53797 0.28165 0.0
Zn68 Zn 0.04866 0.50598 0.26365 0.0
O69 O 0.01961 0.50126 0.24056 0.0
C70 C 0.02741 0.4717 0.29716 0.0
O71 O 0.00788 0.48323 0.29126 0.0
O72 O 0.07956 0.50597 0.24434 0.0
C73 C 0.00089 0.51369 0.24226 0.0
O74 O -9e-05 0.52997 0.26003 0.0
C75 C 0.05262 0.55827 0.27149 0.0
O76 O 0.06069 0.55837 0.24894 0.0
O77 O 0.04766 0.47844 0.2877 0.0
C78 C 0.59153 0.02583 0.73758 0.0
O79 O 0.59281 0.03698 0.75907 0.0
O80 O 0.53973 0.04094 0.77326 0.0
Zn81 Zn 0.54156 0.01199 0.75085 0.0
O82 O 0.51192 0.01019 0.7287 0.0
C83 C 0.5222 0.97378 0.78145 0.0
O84 O 0.50238 0.98586 0.77876 0.0
O85 O 0.57167 0.01454 0.73062 0.0
C86 C 0.50406 0.99026 0.7184 0.0
O87 O 0.516 0.97045 0.72177 0.0
C88 C 0.53696 0.06221 0.76498 0.0
O89 O 0.53618 0.06545 0.74112 0.0
O90 O 0.54165 0.98167 0.77115 0.0
C91 C 0.01456 0.5518 0.71076 0.0
O92 O 0.02445 0.53064 0.7087 0.0
O93 O 0.96931 0.53724 0.77595 0.0
Zn94 Zn 0.99768 0.53013 0.75494 0.0
O95 O 0.99144 0.49819 0.73691 0.0
C96 C 0.02604 0.52534 0.79917 0.0
O97 O 0.00427 0.52232 0.80867 0.0
O98 O 0.00238 0.55622 0.72974 0.0
C99 C 0.0015 0.47864 0.74238 0.0
O100 O 0.01631 0.47844 0.76157 0.0
C101 C 0.94934 0.52428 0.77559 0.0
O102 O 0.94624 0.50597 0.75986 0.0
O103 O 0.0279 0.52907 0.77627 0.0
C104 C 0.31227 0.47316 0.9969 0.0
O105 O 0.32246 0.49295 0.00754 0.0
O106 O 0.25464 0.50351 0.0226 0.0
Zn107 Zn 0.2729 0.50444 0.99106 0.0
O108 O 0.29654 0.5338 0.99157 0.0
C109 C 0.22892 0.517 0.96731 0.0
O110 O 0.22533 0.52596 0.98931 0.0
O111 O 0.29082 0.47371 0.98787 0.0
C112 C 0.29122 0.5539 0.00134 0.0
O113 O 0.2695 0.55572 0.01066 0.0
C114 C 0.26414 0.50313 0.04401 0.0
O115 O 0.28791 0.50254 0.04668 0.0
O116 O 0.24867 0.50686 0.96314 0.0
C117 C 0.46279 0.26942 0.99713 0.0
O118 O 0.45772 0.24768 0.98726 0.0
O119 O 0.50882 0.2305 0.97591 0.0
Zn120 Zn 0.51114 0.25196 0.00593 0.0
O121 O 0.54262 0.27245 0.00583 0.0
C122 C 0.52609 0.23025 0.05192 0.0
O123 O 0.54651 0.24354 0.04893 0.0
O124 O 0.48403 0.27474 0.00598 0.0
C125 C 0.56224 0.2653 0.99697 0.0
O126 O 0.56251 0.24317 0.98749 0.0
C127 C 0.50878 0.23953 0.95452 0.0
O128 O 0.50985 0.26341 0.95211 0.0
O129 O 0.50894 0.23111 0.03602 0.0
C130 C 0.73009 0.52417 0.01402 0.0
O131 O 0.72507 0.50355 0.00191 0.0
O132 O 0.79536 0.50154 0.05495 0.0
Zn133 Zn 0.77234 0.49929 0.02595 0.0
O134 O 0.75234 0.46741 0.02599 0.0
C135 C 0.80683 0.51982 0.99232 0.0
O136 O 0.81028 0.53609 0.01013 0.0
O137 O 0.74987 0.52684 0.02649 0.0
C138 C 0.75804 0.44856 0.01412 0.0
O139 O 0.77846 0.44928 0.00189 0.0
C140 C 0.81325 0.48789 0.05523 0.0
O141 O 0.8158 0.4727 0.03677 0.0
O142 O 0.79133 0.50194 0.995 0.0
C143 C 0.56102 0.71244 0.98615 0.0
O144 O 0.5407 0.7069 0.97367 0.0
O145 O 0.53668 0.77186 0.96144 0.0
Zn146 Zn 0.53599 0.75518 0.9942 0.0
O147 O 0.50496 0.73401 0.99749 0.0
C148 C 0.52765 0.80038 0.01829 0.0
O149 O 0.51537 0.80357 0.99778 0.0
O150 O 0.56386 0.73321 0.99677 0.0
C151 C 0.48621 0.73948 0.00922 0.0
O152 O 0.48597 0.76083 0.02035 0.0
C153 C 0.51736 0.77469 0.94884 0.0
O154 O 0.49634 0.76563 0.95688 0.0
O155 O 0.53853 0.78074 0.02113 0.0
H156 H 0.96561 0.30349 0.4479 0.0
H157 H 0.97208 0.3332 0.41527 0.0
H158 H 0.04996 0.32845 0.42333 0.0
H159 H 0.04364 0.29917 0.45653 0.0
H160 H 0.03931 0.3743 0.42175 0.0
H161 H 0.01732 0.30325 0.37286 0.0
H162 H 0.99238 0.26633 0.35971 0.0
H163 H 0.93176 0.31002 0.3441 0.0
H164 H 0.95622 0.34719 0.35748 0.0
H165 H 0.06456 0.44572 0.31549 0.0
H166 H 0.06144 0.4114 0.34389 0.0
H167 H 0.98343 0.41642 0.34587 0.0
H168 H 0.98632 0.45062 0.31742 0.0
H169 H 0.9966 0.36893 0.34065 0.0
H170 H 0.01831 0.43935 0.3923 0.0
H171 H 0.04355 0.47611 0.4054 0.0
H172 H 0.10549 0.43274 0.41533 0.0
H173 H 0.08067 0.39576 0.40195 0.0
C174 C 0.98412 0.30856 0.44258 0.0
C175 C 0.00412 0.29901 0.45483 0.0
C176 C 0.98779 0.32547 0.42381 0.0
C177 C 0.01151 0.33286 0.41665 0.0
C178 C 0.0315 0.323 0.42855 0.0
C179 C 0.02785 0.30624 0.44748 0.0
C180 C 0.01542 0.35189 0.39773 0.0
C181 C 0.03033 0.37288 0.40384 0.0
C182 C 0.00332 0.3503 0.37454 0.0
C183 C 0.98856 0.32799 0.36637 0.0
C184 C -0.00139 0.30497 0.36679 0.0
C185 C 0.98457 0.284 0.35927 0.0
C186 C 0.96048 0.28582 0.35112 0.0
C187 C 0.95041 0.30864 0.35043 0.0
C188 C 0.96437 0.32967 0.35795 0.0
C189 C 0.04674 0.43951 0.32196 0.0
C190 C 0.02569 0.45095 0.31429 0.0
C191 C 0.045 0.41994 0.3382 0.0
C192 C 0.02222 0.41151 0.34706 0.0
C193 C 0.00117 0.42266 0.33919 0.0
C194 C 0.00288 0.44227 0.32303 0.0
C195 C 0.02028 0.39126 0.36482 0.0
C196 C 0.00574 0.37013 0.35849 0.0
C197 C 0.0328 0.39265 0.38776 0.0
C198 C 0.04771 0.41485 0.39587 0.0
C199 C 0.03736 0.43769 0.39707 0.0
C200 C 0.05158 0.45856 0.40459 0.0
C201 C 0.07613 0.45677 0.41112 0.0
C202 C 0.08648 0.4341 0.41022 0.0
C203 C 0.07235 0.41319 0.40269 0.0
H204 H 0.0871 0.47295 0.41694 0.0
H205 H 0.94964 0.26956 0.34531 0.0
H206 H 0.71293 0.9785 0.43126 0.0
H207 H 0.68108 0.97078 0.39979 0.0
H208 H 0.63871 0.02582 0.4328 0.0
H209 H 0.67018 0.03317 0.46474 0.0
H210 H 0.61009 0.98731 0.4199 0.0
H211 H 0.67261 0.03727 0.38085 0.0
H212 H 0.7143 0.04876 0.36731 0.0
H213 H 0.7145 0.98258 0.32438 0.0
H214 H 0.6729 0.97054 0.33794 0.0
H215 H 0.53393 0.01498 0.31882 0.0
H216 H 0.56576 0.01714 0.35081 0.0
H217 H 0.59565 0.95242 0.3209 0.0
H218 H 0.56358 0.94988 0.28888 0.0
H219 H 0.63058 0.99305 0.33169 0.0
H220 H 0.56669 0.94446 0.37001 0.0
H221 H 0.52452 0.93451 0.38299 0.0
H222 H 0.52645 0.00041 0.42654 0.0
H223 H 0.56861 0.01089 0.41361 0.0
C224 C 0.69681 0.98893 0.43185 0.0
C225 C 0.69412 0.00655 0.4504 0.0
C226 C 0.67866 0.98456 0.4138 0.0
C227 C 0.65769 0.99799 0.41374 0.0
C228 C 0.65477 0.01527 0.43249 0.0
C229 C 0.6728 0.0195 0.45069 0.0
C230 C 0.63886 0.99422 0.39401 0.0
C231 C 0.61456 0.98882 0.40064 0.0
C232 C 0.64476 0.99567 0.36884 0.0
C233 C 0.66975 0.00288 0.36062 0.0
C234 C 0.68162 0.02508 0.36868 0.0
C235 C 0.70522 0.0317 0.36098 0.0
C236 C 0.71707 0.01637 0.34506 0.0
C237 C 0.70531 0.99441 0.33675 0.0
C238 C 0.68172 0.98769 0.34442 0.0
C239 C 0.54728 0.0012 0.319 0.0
C240 C 0.54627 0.98223 0.30137 0.0
C241 C 0.56537 0.00243 0.33733 0.0
C242 C 0.58288 0.98486 0.33821 0.0
C243 C 0.5822 0.96609 0.32047 0.0
C244 C 0.56387 0.96464 0.30228 0.0
C245 C 0.60197 0.98635 0.35768 0.0
C246 C 0.62624 0.99137 0.35098 0.0
C247 C 0.59604 0.98479 0.38276 0.0
C248 C 0.57074 0.97854 0.39069 0.0
C249 C 0.55807 0.95693 0.38221 0.0
C250 C 0.53419 0.95117 0.38959 0.0
C251 C 0.52282 0.96682 0.40557 0.0
C252 C 0.53531 0.98829 0.41419 0.0
C253 C 0.55921 0.99413 0.40687 0.0
H254 H 0.50438 0.96225 0.41133 0.0
H255 H 0.73534 0.02154 0.33911 0.0
H256 H 0.03011 0.56408 0.31516 0.0
H257 H 0.02143 0.60231 0.33559 0.0
H258 H 0.05645 0.64326 0.27746 0.0
H259 H 0.06531 0.60491 0.25675 0.0
H260 H 0.07008 0.66068 0.32448 0.0
H261 H 0.99705 0.64125 0.27833 0.0
H262 H 0.96232 0.61482 0.26228 0.0
H263 H 0.93629 0.60429 0.33549 0.0
H264 H 0.97109 0.63032 0.35204 0.0
H265 H 0.02957 0.76577 0.38695 0.0
H266 H 0.03422 0.73728 0.35256 0.0
H267 H 0.00035 0.67872 0.39475 0.0
H268 H 0.99539 0.70691 0.42886 0.0
H269 H 0.98521 0.67603 0.34723 0.0
H270 H 0.06198 0.68804 0.3932 0.0
H271 H 0.09723 0.71309 0.41029 0.0
H272 H 0.11625 0.7367 0.33781 0.0
H273 H 0.08088 0.71202 0.32033 0.0
C274 C 0.03606 0.58118 0.3067 0.0
C275 C 0.04835 0.58147 0.28429 0.0
C276 C 0.03095 0.60301 0.31833 0.0
C277 C 0.03799 0.62555 0.30781 0.0
C278 C 0.05075 0.626 0.28574 0.0
C279 C 0.05576 0.6041 0.27397 0.0
C280 C 0.03219 0.6485 0.32033 0.0
C281 C 0.05149 0.66441 0.32896 0.0
C282 C 0.00794 0.65314 0.32631 0.0
C283 C 0.98678 0.63766 0.31644 0.0
C284 C 0.98401 0.63317 0.29103 0.0
C285 C 0.9643 0.61827 0.28184 0.0
C286 C 0.94712 0.60786 0.29786 0.0
C287 C 0.9496 0.61237 0.3231 0.0
C288 C 0.96931 0.62723 0.3324 0.0
C289 C 0.0228 0.7469 0.38873 0.0
C290 C 0.01233 0.73853 0.4107 0.0
C291 C 0.02553 0.73066 0.36911 0.0
C292 C 0.01786 0.70586 0.37125 0.0
C293 C 0.00638 0.69779 0.39272 0.0
C294 C 0.00368 0.71393 0.41227 0.0
C295 C 0.02315 0.6877 0.35208 0.0
C296 C 0.00374 0.67268 0.34219 0.0
C297 C 0.0473 0.6838 0.34503 0.0
C298 C 0.06864 0.69846 0.35551 0.0
C299 C 0.07359 0.69872 0.38094 0.0
C300 C 0.09359 0.71283 0.39069 0.0
C301 C 0.10893 0.72654 0.37515 0.0
C302 C 0.10432 0.72612 0.34982 0.0
C303 C 0.0843 0.71208 0.33999 0.0
H304 H 0.12441 0.73746 0.38273 0.0
H305 H 0.93188 0.59632 0.29071 0.0
H306 H 0.29938 0.04517 0.45894 0.0
H307 H 0.32126 0.04573 0.42023 0.0
H308 H 0.36282 0.98598 0.4451 0.0
H309 H 0.34171 0.98594 0.4841 0.0
H310 H 0.39145 0.01735 0.42306 0.0
H311 H 0.31287 0.97797 0.40401 0.0
H312 H 0.26792 0.97399 0.40198 0.0
H313 H 0.26691 0.03747 0.35645 0.0
H314 H 0.31188 0.04203 0.35849 0.0
H315 H 0.43477 0.9763 0.31042 0.0
H316 H 0.40954 0.97731 0.34677 0.0
H317 H 0.38121 0.04501 0.32282 0.0
H318 H 0.40646 0.04423 0.28626 0.0
H319 H 0.34574 0.01143 0.34356 0.0
H320 H 0.42625 0.0481 0.36184 0.0
H321 H 0.4712 0.04914 0.36365 0.0
H322 H 0.46823 0.98697 0.41111 0.0
H323 H 0.4233 0.98517 0.40909 0.0
C324 C 0.31329 0.03226 0.45619 0.0
C325 C 0.31877 0.01545 0.47451 0.0
C326 C 0.32567 0.03249 0.434 0.0
C327 C 0.34337 0.01559 0.42956 0.0
C328 C 0.34921 -0.00083 0.44808 0.0
C329 C 0.3371 -0.00085 0.47037 0.0
C330 C 0.35582 0.01485 0.40565 0.0
C331 C 0.38141 0.01577 0.40572 0.0
C332 C 0.34275 0.01324 0.38295 0.0
C333 C 0.31572 0.01049 0.38162 0.0
C334 C 0.30305 0.99119 0.39372 0.0
C335 C 0.27757 0.98881 0.39254 0.0
C336 C 0.26456 0.00551 0.37915 0.0
C337 C 0.27701 0.02458 0.36685 0.0
C338 C 0.30249 0.02706 0.36799 0.0
C339 C 0.4229 0.99123 0.31262 0.0
C340 C 0.42284 0.01036 0.29558 0.0
C341 C 0.40856 0.99179 0.33345 0.0
C342 C 0.39388 0.01144 0.3376 0.0
C343 C 0.39256 0.02977 0.31993 0.0
C344 C 0.40702 0.0293 0.2991 0.0
C345 C 0.38121 0.0136 0.36115 0.0
C346 C 0.35567 0.01305 0.36097 0.0
C347 C 0.39429 0.01516 0.38379 0.0
C348 C 0.42138 0.01635 0.3851 0.0
C349 C 0.43518 0.03449 0.37246 0.0
C350 C 0.46067 0.03522 0.37352 0.0
C351 C 0.47259 0.01805 0.38739 0.0
C352 C 0.45902 0.00018 0.40027 0.0
C353 C 0.43353 -0.0007 0.39917 0.0
H354 H 0.49232 0.01865 0.38821 0.0
H355 H 0.24484 0.00363 0.37826 0.0
H356 H 0.99752 0.59762 0.70988 0.0
H357 H -0.00157 0.62616 0.67572 0.0
H358 H 0.03584 0.57477 0.63176 0.0
H359 H 0.03531 0.54618 0.66597 0.0
H360 H 0.05536 0.62116 0.62694 0.0
H361 H 0.97555 0.58033 0.62318 0.0
H362 H 0.93578 0.56559 0.63945 0.0
H363 H 0.91858 0.63954 0.65507 0.0
H364 H 0.95842 0.6547 0.6392 0.0
H365 H 0.03536 0.67617 0.51178 0.0
H366 H 0.03544 0.64734 0.54567 0.0
H367 H 0.99604 0.69682 0.59 0.0
H368 H 0.99543 0.72556 0.556 0.0
H369 H 0.97767 0.6509 0.59436 0.0
H370 H 0.05764 0.69174 0.59833 0.0
H371 H 0.09747 0.70643 0.58217 0.0
H372 H 0.11443 0.63249 0.56618 0.0
H373 H 0.07454 0.61738 0.58195 0.0
C374 C 0.00605 0.59241 0.69299 0.0
C375 C 0.01624 0.56959 0.69058 0.0
C376 C 0.00647 0.60871 0.67347 0.0
C377 C 0.01689 0.60241 0.65112 0.0
C378 C 0.02766 0.57993 0.64886 0.0
C379 C 0.0273 0.56362 0.66841 0.0
C380 C 0.01626 0.61917 0.63002 0.0
C381 C 0.03837 0.62742 0.61958 0.0
C382 C 0.99409 0.62769 0.6208 0.0
C383 C 0.97006 0.61863 0.63021 0.0
C384 C 0.96336 0.59343 0.63025 0.0
C385 C 0.9408 0.58501 0.63937 0.0
C386 C 0.92469 0.60161 0.64834 0.0
C387 C 0.93109 0.62669 0.64814 0.0
C388 C 0.95365 0.63521 0.63907 0.0
C389 C 0.02667 0.68092 0.52872 0.0
C390 C 0.01548 0.7032 0.53125 0.0
C391 C 0.02683 0.66446 0.54811 0.0
C392 C 0.01607 0.67011 0.57047 0.0
C393 C 0.00451 0.69214 0.57291 0.0
C394 C 0.00422 0.70856 0.55348 0.0
C395 C 0.01679 0.65301 0.59132 0.0
C396 C 0.99468 0.64465 0.6017 0.0
C397 C 0.03896 0.64441 0.60048 0.0
C398 C 0.063 0.65345 0.5911 0.0
C399 C 0.06979 0.67863 0.5912 0.0
C400 C 0.09239 0.68703 0.58214 0.0
C401 C 0.10844 0.67041 0.5731 0.0
C402 C 0.10196 0.64535 0.57316 0.0
C403 C 0.07937 0.63685 0.58218 0.0
H404 H 0.12593 0.67695 0.56609 0.0
H405 H 0.90723 0.59505 0.6554 0.0
H406 H 0.47739 0.02847 0.70467 0.0
H407 H 0.43883 0.02675 0.6816 0.0
H408 H 0.4397 0.94813 0.67662 0.0
H409 H 0.47867 0.94974 0.69926 0.0
H410 H 0.42679 0.96649 0.63381 0.0
H411 H 0.40222 0.97579 0.71688 0.0
H412 H 0.40277 0.99439 0.75832 0.0
H413 H 0.38172 0.06218 0.72793 0.0
H414 H 0.38139 0.0441 0.68625 0.0
H415 H 0.30525 0.95293 0.58771 0.0
H416 H 0.33972 0.95003 0.61637 0.0
H417 H 0.34898 0.02875 0.62017 0.0
H418 H 0.31448 0.03187 0.59165 0.0
H419 H 0.35515 0.00715 0.66546 0.0
H420 H 0.383 0.99834 0.58232 0.0
H421 H 0.38241 0.9796 0.54093 0.0
H422 H 0.39708 0.91019 0.57214 0.0
H423 H 0.39738 0.92847 0.61376 0.0
C424 C 0.46941 0.0108 0.69866 0.0
C425 C 0.48104 0.98922 0.70386 0.0
C426 C 0.44728 0.00984 0.6856 0.0
C427 C 0.43617 0.98727 0.67779 0.0
C428 C 0.44792 0.96573 0.6826 0.0
C429 C 0.47017 0.96668 0.69553 0.0
C430 C 0.4125 0.9863 0.66419 0.0
C431 C 0.41099 0.97499 0.64095 0.0
C432 C 0.39201 0.99774 0.67334 0.0
C433 C 0.39197 0.00863 0.69841 0.0
C434 C 0.39787 0.99472 0.71901 0.0
C435 C 0.39812 0.00516 0.74255 0.0
C436 C 0.39233 0.02947 0.74575 0.0
C437 C 0.38622 0.04336 0.72542 0.0
C438 C 0.38596 0.03301 0.70184 0.0
C439 C 0.3144 0.96964 0.59489 0.0
C440 C 0.30729 0.99264 0.58722 0.0
C441 C 0.33412 0.96793 0.6112 0.0
C442 C 0.34705 0.98918 0.62009 0.0
C443 C 0.33924 0.01215 0.61345 0.0
C444 C 0.31958 0.01388 0.59708 0.0
C445 C 0.36961 0.98757 0.63509 0.0
C446 C 0.37089 0.99842 0.65853 0.0
C447 C 0.38988 0.97565 0.62618 0.0
C448 C 0.38995 0.96471 0.60116 0.0
C449 C 0.38592 0.97904 0.58036 0.0
C450 C 0.38566 0.96851 0.55686 0.0
C451 C 0.38964 0.9437 0.55391 0.0
C452 C 0.39396 0.92939 0.57446 0.0
C453 C 0.39418 0.93983 0.598 0.0
H454 H 0.38943 0.93558 0.53571 0.0
H455 H 0.39255 0.03753 0.76399 0.0
H456 H 0.02638 0.29858 0.59187 0.0
H457 H 0.02548 0.32703 0.62668 0.0
H458 H 0.97589 0.37054 0.58622 0.0
H459 H 0.97713 0.34254 0.55118 0.0
H460 H 0.01065 0.39889 0.60787 0.0
H461 H 0.95623 0.33194 0.63245 0.0
H462 H 0.94411 0.28884 0.64106 0.0
H463 H 0.00068 0.28739 0.6964 0.0
H464 H 0.01336 0.33041 0.68787 0.0
H465 H 0.97098 0.47286 0.70244 0.0
H466 H 0.97001 0.44029 0.67151 0.0
H467 H 0.02479 0.40392 0.71262 0.0
H468 H 0.02573 0.43638 0.74394 0.0
H469 H 0.98871 0.37152 0.69164 0.0
H470 H 0.0424 0.43916 0.66704 0.0
H471 H 0.053 0.48272 0.65909 0.0
H472 H 0.99644 0.48293 0.60364 0.0
H473 H 0.98522 0.43946 0.61155 0.0
C474 C 0.01526 0.3142 0.5904 0.0
C475 C 0.0018 0.31831 0.56879 0.0
C476 C 0.01468 0.33037 0.61035 0.0
C477 C 0.00039 0.35075 0.60914 0.0
C478 C 0.98704 0.35493 0.58754 0.0
C479 C 0.98774 0.33888 0.56755 0.0
C480 C -0.00037 0.36802 0.63018 0.0
C481 C 0.00556 0.39291 0.6261 0.0
C482 C 0.99356 0.36015 0.65412 0.0
C483 C 0.9859 0.33432 0.65934 0.0
C484 C 0.96621 0.32237 0.64632 0.0
C485 C 0.95921 0.29797 0.65121 0.0
C486 C 0.97166 0.28536 0.66922 0.0
C487 C 0.99108 0.29716 0.68243 0.0
C488 C 0.99817 0.32156 0.67759 0.0
C489 C 0.98262 0.45779 0.70512 0.0
C490 C -0.00131 0.45736 0.72547 0.0
C491 C 0.98204 0.43922 0.6874 0.0
C492 C 0.99766 0.41999 0.68961 0.0
C493 C 0.0127 0.4187 0.71058 0.0
C494 C 0.01324 0.43729 0.72841 0.0
C495 C -0.00058 0.40227 0.66916 0.0
C496 C 0.99381 0.37738 0.67338 0.0
C497 C 0.00569 0.41012 0.6453 0.0
C498 C 0.01284 0.4361 0.64004 0.0
C499 C 0.03214 0.44853 0.65324 0.0
C500 C 0.03826 0.47321 0.64874 0.0
C501 C 0.02536 0.48561 0.63092 0.0
C502 C 0.00639 0.47331 0.61747 0.0
C503 C 0.00016 0.44865 0.62194 0.0
H504 H 0.0301 0.50473 0.6275 0.0
H505 H 0.96622 0.26647 0.67298 0.0
H506 H 0.59543 0.00134 0.69422 0.0
H507 H 0.6308 0.00055 0.66805 0.0
H508 H 0.67194 0.04911 0.71842 0.0
H509 H 0.63632 0.05013 0.74492 0.0
H510 H 0.67746 0.06253 0.66984 0.0
H511 H 0.68561 0.99143 0.71713 0.0
H512 H 0.67248 0.953 0.7375 0.0
H513 H 0.6534 0.91973 0.6675 0.0
H514 H 0.66606 0.95808 0.64671 0.0
H515 H 0.77471 0.04106 0.58691 0.0
H516 H 0.75351 0.04262 0.62608 0.0
H517 H 0.69425 0.99598 0.59546 0.0
H518 H 0.71522 0.99417 0.55654 0.0
H519 H 0.70686 0.98298 0.64236 0.0
H520 H 0.69091 0.05753 0.5973 0.0
H521 H 0.70448 0.09588 0.57694 0.0
H522 H 0.73963 0.12233 0.64394 0.0
H523 H 0.72648 0.08398 0.66461 0.0
C524 C 0.61196 0.01186 0.69984 0.0
C525 C 0.61308 0.02573 0.72172 0.0
C526 C 0.63222 0.01128 0.6849 0.0
C527 C 0.65408 0.02446 0.69151 0.0
C528 C 0.65525 0.03868 0.71312 0.0
C529 C 0.63493 0.0392 0.72822 0.0
C530 C 0.6753 0.02354 0.67525 0.0
C531 C 0.68437 0.04522 0.66427 0.0
C532 C 0.68425 0.00093 0.66799 0.0
C533 C 0.6767 0.97771 0.68036 0.0
C534 C 0.67846 0.97598 0.70608 0.0
C535 C 0.67112 0.9542 0.7177 0.0
C536 C 0.66209 0.93395 0.70381 0.0
C537 C 0.66041 0.93543 0.67824 0.0
C538 C 0.66771 0.95719 0.66652 0.0
C539 C 0.75727 0.03095 0.58863 0.0
C540 C 0.74656 0.01759 0.5686 0.0
C541 C 0.74519 0.03191 0.61098 0.0
C542 C 0.72228 0.01952 0.61358 0.0
C543 C 0.71196 0.00561 0.59384 0.0
C544 C 0.72392 0.00471 0.57156 0.0
C545 C 0.70813 0.02179 0.63625 0.0
C546 C 0.70044 0.00035 0.64844 0.0
C547 C 0.70057 0.0446 0.64468 0.0
C548 C 0.70796 0.06782 0.63241 0.0
C549 C 0.70164 0.07149 0.60764 0.0
C550 C 0.70924 0.09322 0.59605 0.0
C551 C 0.72298 0.1115 0.60911 0.0
C552 C 0.72903 0.10814 0.63383 0.0
C553 C 0.7215 0.08642 0.6455 0.0
H554 H 0.72889 0.12829 0.6001 0.0
H555 H 0.65642 0.9171 0.71284 0.0
H556 H 0.41668 0.26614 0.97668 0.0
H557 H 0.38681 0.29763 0.97676 0.0
H558 H 0.43734 0.34582 0.01855 0.0
H559 H 0.46708 0.31457 0.01876 0.0
H560 H 0.39148 0.34599 0.03625 0.0
H561 H 0.43054 0.35222 0.95728 0.0
H562 H 0.44306 0.33646 0.91716 0.0
H563 H 0.36807 0.31898 0.89686 0.0
H564 H 0.35513 0.33435 0.93704 0.0
H565 H 0.35683 0.46538 0.0172 0.0
H566 H 0.37798 0.42749 0.01724 0.0
H567 H 0.31847 0.39129 0.97563 0.0
H568 H 0.29714 0.4293 0.97533 0.0
H569 H 0.36311 0.38092 0.9578 0.0
H570 H 0.32385 0.37951 0.03506 0.0
H571 H 0.31153 0.39583 0.07501 0.0
H572 H 0.38659 0.40428 0.09868 0.0
H573 H 0.3994 0.38835 0.05872 0.0
C574 C 0.42137 0.28341 0.98597 0.0
C575 C 0.44429 0.2879 0.99761 0.0
C576 C 0.40432 0.30138 0.98594 0.0
C577 C 0.40997 0.32408 0.99752 0.0
C578 C 0.43262 0.32839 0.00954 0.0
C579 C 0.44964 0.31053 0.00954 0.0
C580 C 0.39267 0.34377 0.9968 0.0
C581 C 0.38535 0.35372 0.01912 0.0
C582 C 0.38413 0.35331 0.97441 0.0
C583 C 0.39189 0.34414 0.95026 0.0
C584 C 0.41674 0.34482 0.94434 0.0
C585 C 0.4239 0.336 0.92158 0.0
C586 C 0.40637 0.32665 0.9045 0.0
C587 C 0.38163 0.32617 0.91013 0.0
C588 C 0.37437 0.33495 0.93288 0.0
C589 C 0.34821 0.44941 0.00802 0.0
C590 C 0.32527 0.45033 0.99633 0.0
C591 C 0.36027 0.42773 0.00817 0.0
C592 C 0.34961 0.40653 0.99674 0.0
C593 C 0.32692 0.40745 0.98465 0.0
C594 C 0.31478 0.42916 0.98454 0.0
C595 C 0.36246 0.38356 0.99728 0.0
C596 C 0.3689 0.37296 0.97495 0.0
C597 C 0.37021 0.37341 0.01967 0.0
C598 C 0.36259 0.38289 0.04381 0.0
C599 C 0.33775 0.38502 0.04871 0.0
C600 C 0.33068 0.39417 0.07137 0.0
C601 C 0.34827 0.40113 0.08936 0.0
C602 C 0.37298 0.39889 0.08473 0.0
C603 C 0.38016 0.38977 0.06209 0.0
H604 H 0.34276 0.40821 0.10689 0.0
H605 H 0.41196 0.31983 0.88688 0.0
H606 H 0.3382 0.55511 0.98579 0.0
H607 H 0.3693 0.58862 0.99022 0.0
H608 H 0.31765 0.63289 0.02577 0.0
H609 H 0.28618 0.59943 0.02119 0.0
H610 H 0.34462 0.65874 0.99198 0.0
H611 H 0.35977 0.60751 0.05998 0.0
H612 H 0.36628 0.56884 0.08121 0.0
H613 H 0.43083 0.55979 0.03959 0.0
H614 H 0.42451 0.59824 0.01783 0.0
H615 H 0.44161 0.74609 0.02919 0.0
H616 H 0.40656 0.71631 0.03066 0.0
H617 H 0.44772 0.66316 0.99311 0.0
H618 H 0.48274 0.69261 0.99164 0.0
H619 H 0.42379 0.64393 0.03287 0.0
H620 H 0.40594 0.69345 0.96239 0.0
H621 H 0.39911 0.73212 0.94127 0.0
H622 H 0.33933 0.74463 0.9886 0.0
H623 H 0.34604 0.70616 0.01023 0.0
C624 C 0.33337 0.57198 0.99449 0.0
C625 C 0.30974 0.57458 0.00324 0.0
C626 C 0.35121 0.59108 0.99711 0.0
C627 C 0.34585 0.61308 0.00865 0.0
C628 C 0.32215 0.61599 0.01691 0.0
C629 C 0.30424 0.59685 0.01431 0.0
C630 C 0.36515 0.63292 0.01201 0.0
C631 C 0.36177 0.65569 0.00132 0.0
C632 C 0.38758 0.62878 0.024 0.0
C633 C 0.39155 0.60568 0.03713 0.0
C634 C 0.37525 0.59719 0.05522 0.0
C635 C 0.37893 0.57532 0.06737 0.0
C636 C 0.39893 0.56184 0.06171 0.0
C637 C 0.41533 0.57024 0.04394 0.0
C638 C 0.41173 0.59209 0.03171 0.0
C639 C 0.44319 0.72806 0.02126 0.0
C640 C 0.46493 0.72172 0.01025 0.0
C641 C 0.42314 0.71111 0.02206 0.0
C642 C 0.42456 0.68761 0.01188 0.0
C643 C 0.4463 0.6812 0.0011 0.0
C644 C 0.46626 0.69811 0.0002 0.0
C645 C 0.40348 0.66951 0.0123 0.0
C646 C 0.40652 0.64708 0.02379 0.0
C647 C 0.38075 0.67401 0.00114 0.0
C648 C 0.37668 0.69709 0.98811 0.0
C649 C 0.39148 0.70455 0.96843 0.0
C650 C 0.3876 0.72641 0.95634 0.0
C651 C 0.36885 0.74087 0.96364 0.0
C652 C 0.35388 0.73344 0.983 0.0
C653 C 0.3577 0.71161 0.99517 0.0
H654 H 0.36587 0.75778 0.95425 0.0
H655 H 0.40174 0.54491 0.07114 0.0
H656 H 0.60747 0.25664 0.97941 0.0
H657 H 0.64379 0.28496 0.97976 0.0
H658 H 0.60337 0.33967 0.01586 0.0
H659 H 0.56714 0.31178 0.01537 0.0
H660 H 0.62874 0.35853 0.97799 0.0
H661 H 0.6437 0.30661 0.04745 0.0
H662 H 0.6492 0.26723 0.06775 0.0
H663 H 0.70977 0.25461 0.0215 0.0
H664 H 0.70442 0.29381 0.0007 0.0
H665 H 0.71228 0.44371 0.03263 0.0
H666 H 0.68228 0.4094 0.02696 0.0
H667 H 0.73411 0.37003 0.98604 0.0
H668 H 0.76448 0.40446 0.9916 0.0
H669 H 0.70636 0.34089 0.02044 0.0
H670 H 0.69379 0.39531 0.95407 0.0
H671 H 0.68855 0.4353 0.93494 0.0
H672 H 0.62336 0.44337 0.97582 0.0
H673 H 0.62841 0.40358 0.9955 0.0
C674 C 0.60636 0.27469 0.98745 0.0
C675 C 0.58443 0.28197 0.99736 0.0
C676 C 0.62713 0.29081 0.98769 0.0
C677 C 0.62626 0.31436 0.99792 0.0
C678 C 0.60439 0.3216 0.0078 0.0
C679 C 0.58371 0.30558 0.00757 0.0
C680 C 0.6479 0.33183 -0.00173 0.0
C681 C 0.64566 0.3547 0.98737 0.0
C682 C 0.67024 0.32651 0.00982 0.0
C683 C 0.67347 0.30298 0.02232 0.0
C684 C 0.65805 0.29533 0.04146 0.0
C685 C 0.66117 0.27307 0.05309 0.0
C686 C 0.67977 0.25839 0.04586 0.0
C687 C 0.69534 0.26598 0.02704 0.0
C688 C 0.69228 0.28822 0.01534 0.0
C689 C 0.71746 0.4277 0.0226 0.0
C690 C 0.74071 0.42688 0.01239 0.0
C691 C 0.70025 0.40815 0.01934 0.0
C692 C 0.70594 0.38739 0.00583 0.0
C693 C 0.72942 0.38599 0.99645 0.0
C694 C 0.74668 0.40568 -0.00041 0.0
C695 C 0.68681 0.36774 0.00085 0.0
C696 C 0.68955 0.34452 0.01074 0.0
C697 C 0.66487 0.37269 0.9884 0.0
C698 C 0.66159 0.39652 0.97639 0.0
C699 C 0.67843 0.40569 0.95912 0.0
C700 C 0.67548 0.42831 0.94816 0.0
C701 C 0.65566 0.44189 0.9542 0.0
C702 C 0.63871 0.43284 0.97117 0.0
C703 C 0.64159 0.41023 0.98221 0.0
H704 H 0.65342 0.45941 0.9457 0.0
H705 H 0.68216 0.24116 0.05489 0.0
H706 H 0.73845 0.57172 0.02936 0.0
H707 H 0.71111 0.60508 0.02488 0.0
H708 H 0.65643 0.55514 0.99092 0.0
H709 H 0.68387 0.5219 0.99473 0.0
H710 H 0.66096 0.59579 0.96574 0.0
H711 H 0.6525 0.57605 0.05142 0.0
H712 H 0.66723 0.56947 0.09374 0.0
H713 H 0.69783 0.64345 0.09762 0.0
H714 H 0.68353 0.65038 0.05519 0.0
H715 H 0.55696 0.6644 0.97232 0.0
H716 H 0.58721 0.63399 0.97735 0.0
H717 H 0.63777 0.68881 0.01015 0.0
H718 H 0.60722 0.71932 0.0058 0.0
H719 H 0.63757 0.64778 0.03554 0.0
H720 H 0.64423 0.66805 0.95043 0.0
H721 H 0.62915 0.67459 0.90822 0.0
H722 H 0.60188 0.59953 0.90324 0.0
H723 H 0.61651 0.59262 0.94554 0.0
C724 C 0.72055 0.56783 0.02107 0.0
C725 C 0.7133 0.54418 0.0124 0.0
C726 C 0.70491 0.58689 0.01859 0.0
C727 C 0.68163 0.58256 0.00778 0.0
C728 C 0.67433 0.55891 -0.00071 0.0
C729 C 0.69002 0.53992 0.00153 0.0
C730 C 0.66501 0.60269 0.00466 0.0
C731 C 0.65562 0.60698 0.98106 0.0
C732 C 0.65865 0.61778 0.02451 0.0
C733 C 0.66716 0.61365 0.05005 0.0
C734 C 0.66252 0.59086 0.06123 0.0
C735 C 0.67077 0.58707 0.08525 0.0
C736 C 0.68352 0.60601 0.09833 0.0
C737 C 0.68798 0.62879 0.08745 0.0
C738 C 0.6798 0.63266 0.06343 0.0
C739 C 0.57455 0.67006 0.98049 0.0
C740 C 0.57974 0.6943 0.98856 0.0
C741 C 0.59187 0.65265 0.98327 0.0
C742 C 0.6149 0.6592 0.99377 0.0
C743 C 0.62013 0.68338 0.00193 0.0
C744 C 0.60269 0.70079 -0.00063 0.0
C745 C 0.63325 0.64062 0.99668 0.0
C746 C 0.64301 0.63668 0.0202 0.0
C747 C 0.63996 0.62581 0.97676 0.0
C748 C 0.63131 0.62988 0.95123 0.0
C749 C 0.63488 0.65298 0.94039 0.0
C750 C 0.62644 0.65674 0.91644 0.0
C751 C 0.61453 0.6375 0.90307 0.0
C752 C 0.6111 0.61443 0.91361 0.0
C753 C 0.61949 0.61057 0.93756 0.0
H754 H 0.60799 0.64045 0.88454 0.0
H755 H 0.68989 0.60304 0.11693 0.0
H756 H 0.47895 0.79296 0.92399 0.0
H757 H 0.48064 0.82367 0.89185 0.0
H758 H 0.55922 0.82354 0.89255 0.0
H759 H 0.5577 0.79328 0.92521 0.0
H760 H 0.54576 0.8683 0.89566 0.0
H761 H 0.52338 0.79965 0.84346 0.0
H762 H 0.49924 0.76248 0.82959 0.0
H763 H 0.43542 0.80362 0.82238 0.0
H764 H 0.4591 0.84099 0.83653 0.0
H765 H 0.5608 0.94686 0.7938 0.0
H766 H 0.56037 0.91021 0.81904 0.0
H767 H 0.48268 0.91306 0.82761 0.0
H768 H 0.48289 0.94972 0.80231 0.0
H769 H 0.49698 0.86593 0.81801 0.0
H770 H 0.51921 0.9337 0.87268 0.0
H771 H 0.54351 0.97082 0.88644 0.0
H772 H 0.6082 0.93054 0.88863 0.0
H773 H 0.58432 0.89325 0.87453 0.0
C774 C 0.49658 0.79917 0.91705 0.0
C775 C 0.5182 0.7908 0.92725 0.0
C776 C 0.49751 0.81666 0.89857 0.0
C777 C 0.52006 0.82581 0.88967 0.0
C778 C 0.54162 0.81677 0.89918 0.0
C779 C 0.54072 0.79945 0.91781 0.0
C780 C 0.52123 0.84622 0.87197 0.0
C781 C 0.53545 0.86755 0.87845 0.0
C782 C 0.50728 0.84553 0.84982 0.0
C783 C 0.49298 0.82309 0.84126 0.0
C784 C 0.50415 0.80074 0.8391 0.0
C785 C 0.49056 0.77964 0.83115 0.0
C786 C 0.4658 0.78067 0.82516 0.0
C787 C 0.4546 0.80283 0.82705 0.0
C788 C 0.4681 0.82399 0.835 0.0
C789 C 0.5436 0.93967 0.80098 0.0
C790 C 0.52189 0.95129 0.79621 0.0
C791 C 0.5434 0.91874 0.8154 0.0
C792 C 0.52152 0.90908 0.8253 0.0
C793 C 0.49974 0.92027 0.8201 0.0
C794 C 0.49993 0.94127 0.80576 0.0
C795 C 0.5215 0.88779 0.84178 0.0
C796 C 0.50744 0.86644 0.83511 0.0
C797 C 0.53565 0.88838 0.86374 0.0
C798 C 0.55002 0.91076 0.87229 0.0
C799 C 0.53865 0.93281 0.87589 0.0
C800 C 0.55234 0.95387 0.88379 0.0
C801 C 0.5774 0.95306 0.88834 0.0
C802 C 0.5888 0.93116 0.88506 0.0
C803 C 0.57519 0.91005 0.87713 0.0
H804 H 0.58797 0.96938 0.89446 0.0
H805 H 0.45531 0.76432 0.81901 0.0
H806 H 0.18167 0.5277 0.97341 0.0
H807 H 0.1492 0.52758 0.94221 0.0
H808 H 0.19977 0.50807 0.88671 0.0
H809 H 0.23252 0.50786 0.91798 0.0
H810 H 0.16837 0.5474 0.87411 0.0
H811 H 0.16374 0.46506 0.90366 0.0
H812 H 0.16188 0.43322 0.93535 0.0
H813 H 0.09479 0.45945 0.96135 0.0
H814 H 0.09643 0.4917 0.93003 0.0
H815 H 0.07327 0.52244 0.78487 0.0
H816 H 0.10948 0.51976 0.81126 0.0
H817 H 0.06479 0.5233 0.87542 0.0
H818 H 0.02848 0.52521 0.84919 0.0
H819 H 0.09581 0.48954 0.88112 0.0
H820 H 0.10117 0.5733 0.85488 0.0
H821 H 0.10274 0.60675 0.82488 0.0
H822 H 0.16766 0.57986 0.79439 0.0
H823 H 0.16628 0.54605 0.82402 0.0
C824 C 0.18597 0.52347 0.95457 0.0
C825 C 0.20963 0.51771 0.94814 0.0
C826 C 0.16738 0.52334 0.9368 0.0
C827 C 0.17213 0.51765 0.91228 0.0
C828 C 0.19582 0.51245 0.90561 0.0
C829 C 0.21443 0.51227 0.92347 0.0
C830 C 0.15208 0.51692 0.89381 0.0
C831 C 0.15266 0.53449 0.87528 0.0
C832 C 0.13146 0.50041 0.89585 0.0
C833 C 0.13033 0.48093 0.91462 0.0
C834 C 0.14869 0.46417 0.91626 0.0
C835 C 0.14766 0.44602 0.93414 0.0
C836 C 0.12826 0.44435 0.95039 0.0
C837 C 0.10981 0.46078 0.94876 0.0
C838 C 0.11078 0.47898 0.93093 0.0
C839 C 0.07119 0.5227 0.80461 0.0
C840 C 0.04805 0.52411 0.81497 0.0
C841 C 0.0919 0.52126 0.81966 0.0
C842 C 0.08989 0.52163 0.84533 0.0
C843 C 0.06678 0.52296 0.85567 0.0
C844 C 0.04605 0.52412 0.84064 0.0
C845 C 0.11175 0.52037 0.86154 0.0
C846 C 0.11155 0.50235 0.87969 0.0
C847 C 0.1326 0.53667 0.85929 0.0
C848 C 0.13346 0.55699 0.84148 0.0
C849 C 0.11566 0.5744 0.84165 0.0
C850 C 0.11654 0.59345 0.82474 0.0
C851 C 0.13525 0.59539 0.80769 0.0
C852 C 0.15315 0.57831 0.80757 0.0
C853 C 0.15234 0.55922 0.82443 0.0
H854 H 0.1359 0.61015 0.79462 0.0
H855 H 0.12749 0.43028 0.96422 0.0
H856 H 0.53364 0.06026 0.8148 0.0
H857 H 0.52584 0.09349 0.84313 0.0
H858 H 0.52397 0.1437 0.78273 0.0
H859 H 0.53189 0.11041 0.75405 0.0
H860 H 0.55096 0.16253 0.82316 0.0
H861 H 0.47182 0.12488 0.80653 0.0
H862 H 0.44076 0.09067 0.8017 0.0
H863 H 0.45033 0.07242 0.87761 0.0
H864 H 0.48172 0.1063 0.88281 0.0
H865 H 0.50908 0.25243 0.90604 0.0
H866 H 0.51068 0.22519 0.87024 0.0
H867 H 0.51023 0.1628 0.91799 0.0
H868 H 0.50823 0.18972 0.9537 0.0
H869 H 0.48058 0.15386 0.87892 0.0
H870 H 0.5632 0.18767 0.89389 0.0
H871 H 0.59506 0.22114 0.89893 0.0
H872 H 0.5792 0.24615 0.82624 0.0
H873 H 0.547 0.213 0.8209 0.0
C874 C 0.53165 0.07836 0.80747 0.0
C875 C 0.53328 0.08268 0.78214 0.0
C876 C 0.52708 0.0973 0.82369 0.0
C877 C 0.52398 0.12093 0.81495 0.0
C878 C 0.52618 0.12552 0.78977 0.0
C879 C 0.53067 0.1065 0.77345 0.0
C880 C 0.51857 0.14069 0.83236 0.0
C881 C 0.5353 0.16094 0.83502 0.0
C882 C 0.49829 0.13837 0.84799 0.0
C883 C 0.47926 0.11806 0.84501 0.0
C884 C 0.46743 0.11347 0.82215 0.0
C885 C 0.44974 0.09415 0.81936 0.0
C886 C 0.4436 0.07936 0.83933 0.0
C887 C 0.45511 0.08389 0.86215 0.0
C888 C 0.47283 0.10318 0.86504 0.0
C889 C 0.50918 0.2329 0.90889 0.0
C890 C 0.50866 0.22324 0.93272 0.0
C891 C 0.51016 0.21738 0.88843 0.0
C892 C 0.51083 0.19201 0.89149 0.0
C893 C 0.50971 0.18233 0.91521 0.0
C894 C 0.50866 0.19777 0.93562 0.0
C895 C 0.51335 0.17537 0.87021 0.0
C896 C 0.49602 0.15569 0.86679 0.0
C897 C 0.53311 0.1782 0.85394 0.0
C898 C 0.55252 0.19805 0.85711 0.0
C899 C 0.56639 0.20043 0.87906 0.0
C900 C 0.58452 0.21931 0.88196 0.0
C901 C 0.5891 0.23581 0.86295 0.0
C902 C 0.5756 0.2334 0.84097 0.0
C903 C 0.55741 0.21456 0.83799 0.0
H904 H 0.60315 0.25042 0.86523 0.0
H905 H 0.42991 0.0644 0.83712 0.0
H906 H 0.95035 0.56051 0.81044 0.0
H907 H 0.92381 0.56321 0.84568 0.0
H908 H 0.88149 0.49869 0.82021 0.0
H909 H 0.90776 0.49601 0.78463 0.0
H910 H 0.85279 0.53315 0.83991 0.0
H911 H 0.92591 0.49344 0.86184 0.0
H912 H 0.97046 0.49027 0.86485 0.0
H913 H 0.97705 0.55467 0.91069 0.0
H914 H 0.93255 0.55846 0.90759 0.0
H915 H 0.80194 0.49081 0.95124 0.0
H916 H 0.82452 0.49508 0.91318 0.0
H917 H 0.86515 0.55875 0.94309 0.0
H918 H 0.84276 0.55453 0.98139 0.0
H919 H 0.89453 0.52719 0.92106 0.0
H920 H 0.82089 0.56558 0.90098 0.0
H921 H 0.77641 0.56892 0.8974 0.0
H922 H 0.77066 0.50701 0.84819 0.0
H923 H 0.81509 0.50307 0.85176 0.0
C924 C 0.93518 0.54709 0.8121 0.0
C925 C 0.93134 0.52784 0.79492 0.0
C926 C 0.92007 0.54865 0.83228 0.0
C927 C 0.90101 0.53089 0.83574 0.0
C928 C 0.8962 0.51251 0.81788 0.0
C929 C 0.91127 0.51097 0.79761 0.0
C930 C 0.88725 0.53043 0.85883 0.0
C931 C 0.86184 0.53163 0.85765 0.0
C932 C 0.89922 0.52893 0.88196 0.0
C933 C 0.92593 0.52638 0.88427 0.0
C934 C 0.93687 0.50702 0.87243 0.0
C935 C 0.96211 0.5051 0.87416 0.0
C936 C 0.97659 0.5223 0.88789 0.0
C937 C 0.96582 0.54139 0.90002 0.0
C938 C 0.94059 0.54342 0.89829 0.0
C939 C 0.81565 0.50575 0.94975 0.0
C940 C 0.82053 0.52238 0.96932 0.0
C941 C 0.82845 0.50823 0.92793 0.0
C942 C 0.84628 0.5274 0.92524 0.0
C943 C 0.85138 0.54389 0.94481 0.0
C944 C 0.83854 0.54147 0.96664 0.0
C945 C 0.85999 0.52984 0.90218 0.0
C946 C 0.88544 0.52892 0.90336 0.0
C947 C 0.84803 0.53155 0.87907 0.0
C948 C 0.82131 0.5339 0.87682 0.0
C949 C 0.81012 0.55255 0.88955 0.0
C950 C 0.78492 0.55458 0.8875 0.0
C951 C 0.77071 0.53815 0.87262 0.0
C952 C 0.78169 0.5197 0.85973 0.0
C953 C 0.80688 0.51758 0.86174 0.0
H954 H 0.7512 0.53975 0.87105 0.0
H955 H 0.99613 0.5208 0.88918 0.0
H956 H 0.46955 0.06335 0.20867 0.0
H957 H 0.47202 0.09727 0.17991 0.0
H958 H 0.54843 0.11086 0.19815 0.0
H959 H 0.54606 0.07719 0.2273 0.0
H960 H 0.52565 0.15325 0.19328 0.0
H961 H 0.53065 0.07815 0.14711 0.0
H962 H 0.517 0.03658 0.13283 0.0
H963 H 0.45061 0.0636 0.10402 0.0
H964 H 0.46369 0.10525 0.11846 0.0
H965 H 0.56071 0.21973 0.08633 0.0
H966 H 0.55636 0.19087 0.12013 0.0
H967 H 0.48075 0.17515 0.09957 0.0
H968 H 0.48506 0.20354 0.06547 0.0
H969 H 0.50284 0.13436 0.10629 0.0
H970 H 0.49781 0.20952 0.15127 0.0
H971 H 0.51116 0.25128 0.16513 0.0
H972 H 0.57695 0.22475 0.19588 0.0
H973 H 0.56415 0.18287 0.18191 0.0
C974 C 0.48685 0.07367 0.20673 0.0
C975 C 0.50768 0.06742 0.22008 0.0
C976 C 0.48823 0.09301 0.19024 0.0
C977 C 0.51051 0.10628 0.18661 0.0
C978 C 0.53109 0.10076 0.20063 0.0
C979 C 0.52971 0.08148 0.21722 0.0
C980 C 0.51257 0.12522 0.16745 0.0
C981 C 0.52091 0.14912 0.17421 0.0
C982 C 0.50593 0.11987 0.14267 0.0
C983 C 0.49805 0.09478 0.13407 0.0
C984 C 0.51305 0.07519 0.13791 0.0
C985 C 0.50543 0.05162 0.12976 0.0
C986 C 0.48293 0.04747 0.11756 0.0
C987 C 0.46801 0.06685 0.11349 0.0
C988 C 0.47552 0.09044 0.12165 0.0
C989 C 0.54311 0.21026 0.08911 0.0
C990 C 0.52325 0.21384 0.07317 0.0
C991 C 0.54062 0.19387 0.10852 0.0
C992 C 0.51817 0.18102 0.11249 0.0
C993 C 0.49824 0.18487 0.09683 0.0
C994 C 0.50074 0.20112 0.07735 0.0
C995 C 0.51574 0.16252 0.13209 0.0
C996 C 0.50745 0.13861 0.12538 0.0
C997 C 0.52239 0.16792 0.15687 0.0
C998 C 0.53012 0.19309 0.16533 0.0
C999 C 0.51522 0.21262 0.16081 0.0
C1000 C 0.52267 0.23631 0.16872 0.0
C1001 C 0.54492 0.24067 0.18132 0.0
C1002 C 0.55974 0.22135 0.18609 0.0
C1003 C 0.55238 0.19762 0.1782 0.0
H1004 H 0.55065 0.25903 0.18743 0.0
H1005 H 0.47705 0.02926 0.1112 0.0
H1006 H 0.95892 0.53805 0.23969 0.0
H1007 H 0.9261 0.53292 0.20883 0.0
H1008 H 0.96414 0.47624 0.17303 0.0
H1009 H 0.9972 0.48147 0.20357 0.0
H1010 H 0.94816 0.50836 0.14053 0.0
H1011 H 0.91436 0.46224 0.20772 0.0
H1012 H 0.90178 0.45551 0.25046 0.0
H1013 H 0.85203 0.51278 0.24429 0.0
H1014 H 0.86457 0.52009 0.20159 0.0
H1015 H 0.85337 0.46131 0.06119 0.0
H1016 H 0.88424 0.46525 0.09404 0.0
H1017 H 0.84548 0.5225 0.12797 0.0
H1018 H 0.81427 0.51847 0.09532 0.0
H1019 H 0.86144 0.49059 0.16165 0.0
H1020 H 0.89514 0.53679 0.09469 0.0
H1021 H 0.90763 0.54372 0.05194 0.0
H1022 H 0.95763 0.48665 0.05782 0.0
H1023 H 0.94518 0.47913 0.10051 0.0
C1024 C 0.96026 0.52442 0.22532 0.0
C1025 C 0.98065 0.51015 0.22409 0.0
C1026 C 0.94144 0.52145 0.20775 0.0
C1027 C 0.9426 0.50404 0.18878 0.0
C1028 C 0.96291 0.48976 0.18754 0.0
C1029 C 0.98174 0.49274 0.20505 0.0
C1030 C 0.92297 0.50114 0.1698 0.0
C1031 C 0.92925 0.50413 0.14512 0.0
C1032 C 0.89822 0.49629 0.17589 0.0
C1033 C 0.89059 0.49187 0.20153 0.0
C1034 C 0.90088 0.47354 0.21554 0.0
C1035 C 0.89373 0.46959 0.23974 0.0
C1036 C 0.87616 0.48375 0.25011 0.0
C1037 C 0.86566 0.50185 0.23625 0.0
C1038 C 0.87277 0.50588 0.21204 0.0
C1039 C 0.85133 0.47469 0.07567 0.0
C1040 C 0.83145 0.48969 0.07557 0.0
C1041 C 0.86904 0.47697 0.09438 0.0
C1042 C 0.86729 0.49439 0.11324 0.0
C1043 C 0.84717 0.50898 0.11354 0.0
C1044 C 0.82941 0.5067 0.09484 0.0
C1045 C 0.88669 0.49764 0.13241 0.0
C1046 C 0.88037 0.49479 0.15709 0.0
C1047 C 0.91142 0.50266 0.12635 0.0
C1048 C 0.91905 0.50724 0.10072 0.0
C1049 C 0.90866 0.52559 0.08681 0.0
C1050 C 0.91576 0.52964 0.0626 0.0
C1051 C 0.93337 0.51559 0.05215 0.0
C1052 C 0.94397 0.4975 0.06592 0.0
C1053 C 0.93691 0.49335 0.09013 0.0
H1054 H 0.93884 0.51876 0.03341 0.0
H1055 H 0.87065 0.48067 0.26885 0.0
H1056 H 0.55454 0.80226 0.06117 0.0
H1057 H 0.55224 0.83163 0.09507 0.0
H1058 H 0.4968 0.86833 0.05516 0.0
H1059 H 0.49953 0.83959 0.02099 0.0
H1060 H 0.52692 0.90076 0.076 0.0
H1061 H 0.48264 0.82783 0.10202 0.0
H1062 H 0.47642 0.78387 0.11096 0.0
H1063 H 0.53442 0.7901 0.16501 0.0
H1064 H 0.54121 0.83405 0.15615 0.0
H1065 H 0.47523 0.93491 0.20258 0.0
H1066 H 0.47951 0.90511 0.16941 0.0
H1067 H 0.55019 0.93897 0.1529 0.0
H1068 H 0.54592 0.96903 0.18568 0.0
H1069 H 0.51134 0.87116 0.16042 0.0
H1070 H 0.55725 0.93876 0.09143 0.0
H1071 H 0.5578 0.98272 0.08175 0.0
H1072 H 0.48647 0.9868 0.11199 0.0
H1073 H 0.4854 0.94293 0.12151 0.0
C1074 C 0.54196 0.81667 0.05959 0.0
C1075 C 0.52714 0.81856 0.03846 0.0
C1076 C 0.54059 0.83337 0.07901 0.0
C1077 C 0.52409 0.85196 0.0778 0.0
C1078 C 0.50966 0.85414 0.0565 0.0
C1079 C 0.51121 0.83765 0.037 0.0
C1080 C 0.52154 0.86901 0.09878 0.0
C1081 C 0.52361 0.89426 0.09446 0.0
C1082 C 0.51669 0.86056 0.12279 0.0
C1083 C 0.51259 0.83417 0.12824 0.0
C1084 C 0.49418 0.81978 0.11569 0.0
C1085 C 0.49054 0.79488 0.12076 0.0
C1086 C 0.50506 0.78418 0.1385 0.0
C1087 C 0.52321 0.7984 0.15125 0.0
C1088 C 0.52695 0.82331 0.14622 0.0
C1089 C 0.49172 0.93597 0.19193 0.0
C1090 C 0.51015 0.95445 0.19662 0.0
C1091 C 0.49417 0.91887 0.17306 0.0
C1092 C 0.51505 0.92001 0.15855 0.0
C1093 C 0.53377 0.93801 0.16365 0.0
C1094 C 0.5313 0.95514 0.18243 0.0
C1095 C 0.51697 0.90282 0.13762 0.0
C1096 C 0.51482 0.87759 0.14196 0.0
C1097 C 0.52098 0.91126 0.11348 0.0
C1098 C 0.52138 0.93763 0.10743 0.0
C1099 C 0.54167 0.94905 0.09592 0.0
C1100 C 0.54207 0.97397 0.09047 0.0
C1101 C 0.52223 0.98761 0.09633 0.0
C1102 C 0.5019 0.97632 0.10754 0.0
C1103 C 0.50139 0.95143 0.113 0.0
H1104 H 0.52257 0.00689 0.09211 0.0
H1105 H 0.50221 0.7649 0.1424 0.0
H1106 H 0.27679 0.49853 0.09268 0.0
H1107 H 0.25015 0.50181 0.12813 0.0
H1108 H 0.18957 0.51451 0.07935 0.0
H1109 H 0.21579 0.51126 0.04408 0.0
H1110 H 0.19418 0.54745 0.1185 0.0
H1111 H 0.19479 0.45955 0.10337 0.0
H1112 H 0.21491 0.42067 0.09949 0.0
H1113 H 0.24326 0.42924 0.17328 0.0
H1114 H 0.22353 0.46836 0.17747 0.0
H1115 H 0.08265 0.52094 0.17297 0.0
H1116 H 0.11915 0.52171 0.14826 0.0
H1117 H 0.16216 0.50389 0.21195 0.0
H1118 H 0.12542 0.5027 0.23693 0.0
H1119 H 0.17338 0.47699 0.17235 0.0
H1120 H 0.16705 0.56124 0.19003 0.0
H1121 H 0.14693 0.60005 0.19435 0.0
H1122 H 0.13042 0.59937 0.11698 0.0
H1123 H 0.15011 0.56036 0.11224 0.0
C1124 C 0.25779 0.50199 0.08956 0.0
C1125 C 0.24838 0.50459 0.06559 0.0
C1126 C 0.24263 0.50383 0.10979 0.0
C1127 C 0.21794 0.50841 0.10628 0.0
C1128 C 0.20861 0.51108 0.08241 0.0
C1129 C 0.22362 0.50909 0.06227 0.0
C1130 C 0.20142 0.51031 0.12723 0.0
C1131 C 0.18957 0.53207 0.13029 0.0
C1132 C 0.1962 0.49052 0.14314 0.0
C1133 C 0.20797 0.46701 0.14062 0.0
C1134 C 0.2055 0.45324 0.11868 0.0
C1135 C 0.21679 0.43115 0.11644 0.0
C1136 C 0.23043 0.42254 0.13609 0.0
C1137 C 0.23274 0.43597 0.15805 0.0
C1138 C 0.2215 0.45809 0.16037 0.0
C1139 C 0.09984 0.51725 0.18181 0.0
C1140 C 0.10115 0.51185 0.20693 0.0
C1141 C 0.12074 0.51782 0.16767 0.0
C1142 C 0.14343 0.51327 0.17837 0.0
C1143 C 0.14483 0.50761 0.2034 0.0
C1144 C 0.12385 0.50697 0.21761 0.0
C1145 C 0.16537 0.51384 0.16297 0.0
C1146 C 0.17832 0.49261 0.16099 0.0
C1147 C 0.17174 0.53419 0.14812 0.0
C1148 C 0.15998 0.55778 0.15081 0.0
C1149 C 0.159 0.56928 0.17396 0.0
C1150 C 0.14768 0.59133 0.17648 0.0
C1151 C 0.13738 0.60216 0.15596 0.0
C1152 C 0.13841 0.59097 0.13286 0.0
C1153 C 0.14969 0.5689 0.13024 0.0
H1154 H 0.12862 0.61923 0.15795 0.0
H1155 H 0.23916 0.40542 0.13432 0.0
H1156 H 0.79973 0.94131 0.49038 0.0
H1157 H 0.82982 0.91026 0.48823 0.0
H1158 H 0.88789 0.96689 0.48809 0.0
H1159 H 0.85795 0.99811 0.49026 0.0
H1160 H 0.89287 0.93067 0.45259 0.0
H1161 H 0.87742 0.93671 0.53909 0.0
H1162 H 0.85167 0.93656 0.57571 0.0
H1163 H 0.82532 0.86271 0.55922 0.0
H1164 H 0.85066 0.86254 0.52228 0.0
H1165 H 0.99338 0.85962 0.47621 0.0
H1166 H 0.96255 0.88978 0.47804 0.0
H1167 H 0.90657 0.83199 0.48705 0.0
H1168 H 0.93749 0.80168 0.48598 0.0
H1169 H 0.89967 0.86838 0.5175 0.0
H1170 H 0.91486 0.86154 0.43151 0.0
H1171 H 0.93991 0.86121 0.39441 0.0
H1172 H 0.96564 0.93563 0.40889 0.0
H1173 H 0.94099 0.93631 0.44628 0.0
C1174 C 0.8189 0.94717 0.48988 0.0
C1175 C 0.82648 0.97216 0.49055 0.0
C1176 C 0.83605 0.92941 0.48873 0.0
C1177 C 0.86103 0.93633 0.48818 0.0
C1178 C 0.86866 0.96123 0.48853 0.0
C1179 C 0.85154 0.97901 0.48985 0.0
C1180 C 0.87924 0.91757 0.48716 0.0
C1181 C 0.89461 0.91721 0.4669 0.0
C1182 C 0.88093 0.89967 0.50553 0.0
C1183 C 0.86575 0.8997 0.52778 0.0
C1184 C 0.86598 0.92051 0.54315 0.0
C1185 C 0.85149 0.92047 0.56399 0.0
C1186 C 0.83682 0.89966 0.56975 0.0
C1187 C 0.83666 0.87883 0.55471 0.0
C1188 C 0.8511 0.87878 0.53384 0.0
C1189 C 0.9745 0.8533 0.47853 0.0
C1190 C 0.96784 0.82826 0.48085 0.0
C1191 C 0.95688 0.87056 0.47946 0.0
C1192 C 0.9322 0.86311 0.48227 0.0
C1193 C 0.92551 0.83813 0.4848 0.0
C1194 C 0.94318 0.82084 0.48413 0.0
C1195 C 0.91344 0.88144 0.48292 0.0
C1196 C 0.89794 0.88175 0.50311 0.0
C1197 C 0.9115 0.8992 0.46437 0.0
C1198 C 0.92623 0.8989 0.44181 0.0
C1199 C 0.92599 0.87778 0.42687 0.0
C1200 C 0.94009 0.87754 0.40578 0.0
C1201 C 0.9544 0.89836 0.39933 0.0
C1202 C 0.95457 0.91951 0.41392 0.0
C1203 C 0.94051 0.91984 0.43505 0.0
H1204 H 0.96531 0.89814 0.38299 0.0
H1205 H 0.82561 0.89967 0.58589 0.0
H1206 H 0.95486 0.2022 0.49947 0.0
H1207 H 0.91697 0.17766 0.49164 0.0
H1208 H 0.87971 0.22274 0.54244 0.0
H1209 H 0.91779 0.24721 0.55079 0.0
H1210 H 0.8678 0.17564 0.54967 0.0
H1211 H 0.87012 0.22793 0.48067 0.0
H1212 H 0.88805 0.24934 0.4451 0.0
H1213 H 0.89778 0.18045 0.40939 0.0
H1214 H 0.88024 0.15859 0.44491 0.0
H1215 H 0.75863 0.10698 0.5158 0.0
H1216 H 0.7864 0.14358 0.51908 0.0
H1217 H 0.83896 0.108 0.47547 0.0
H1218 H 0.81132 0.07158 0.47181 0.0
H1219 H 0.83757 0.15673 0.46475 0.0
H1220 H 0.84164 0.10555 0.53745 0.0
H1221 H 0.82288 0.08421 0.57271 0.0
H1222 H 0.80012 0.15245 0.60109 0.0
H1223 H 0.81848 0.17414 0.56579 0.0
C1224 C 0.93862 0.20696 0.50897 0.0
C1225 C 0.93933 0.22669 0.52572 0.0
C1226 C 0.91692 0.193 0.50435 0.0
C1227 C 0.89541 0.19865 0.51613 0.0
C1228 C 0.89608 0.21818 0.53305 0.0
C1229 C 0.91785 0.23212 0.53778 0.0
C1230 C 0.87253 0.18349 0.51128 0.0
C1231 C 0.86087 0.17195 0.53114 0.0
C1232 C 0.86357 0.17855 0.48709 0.0
C1233 C 0.87398 0.19161 0.46556 0.0
C1234 C 0.87623 0.21733 0.46531 0.0
C1235 C 0.88631 0.22955 0.44514 0.0
C1236 C 0.89408 0.21626 0.42501 0.0
C1237 C 0.89175 0.19072 0.425 0.0
C1238 C 0.8817 0.1784 0.44513 0.0
C1239 C 0.77591 0.10712 0.50653 0.0
C1240 C 0.78293 0.08627 0.49383 0.0
C1241 C 0.79175 0.12802 0.50846 0.0
C1242 C 0.81485 0.12831 0.49782 0.0
C1243 C 0.82122 0.10812 0.48384 0.0
C1244 C 0.80544 0.08726 0.48188 0.0
C1245 C 0.83341 0.14848 0.50304 0.0
C1246 C 0.84424 0.16091 0.48328 0.0
C1247 C 0.84156 0.15434 0.52731 0.0
C1248 C 0.8312 0.14141 0.54889 0.0
C1249 C 0.83255 0.11597 0.55117 0.0
C1250 C 0.82199 0.10382 0.57115 0.0
C1251 C 0.81026 0.11696 0.58909 0.0
C1252 C 0.80918 0.1423 0.58716 0.0
C1253 C 0.81967 0.15453 0.56718 0.0
H1254 H 0.80204 0.10752 0.60451 0.0
H1255 H 0.90189 0.22576 0.40942 0.0
H1256 H 0.06545 0.81729 0.50979 0.0
H1257 H 0.09962 0.84766 0.51269 0.0
H1258 H 0.13841 0.80742 0.45902 0.0
H1259 H 0.10419 0.7765 0.45617 0.0
H1260 H 0.1684 0.82593 0.49754 0.0
H1261 H 0.11031 0.85552 0.44053 0.0
H1262 H 0.06935 0.86543 0.42593 0.0
H1263 H 0.06494 0.91733 0.48506 0.0
H1264 H 0.10574 0.90745 0.50025 0.0
H1265 H 0.2511 0.93037 0.4782 0.0
H1266 H 0.22162 0.89549 0.47179 0.0
H1267 H 0.17303 0.92729 0.52281 0.0
H1268 H 0.2022 0.96227 0.52917 0.0
H1269 H 0.14954 0.91176 0.48083 0.0
H1270 H 0.20629 0.87992 0.53938 0.0
H1271 H 0.24685 0.86935 0.55458 0.0
H1272 H 0.25379 0.82166 0.49236 0.0
H1273 H 0.21339 0.83222 0.47661 0.0
C1274 C 0.08129 0.81472 0.49869 0.0
C1275 C 0.08201 0.79461 0.48253 0.0
C1276 C 0.10078 0.83214 0.50036 0.0
C1277 C 0.12129 0.82999 0.48573 0.0
C1278 C 0.12263 0.80942 0.47035 0.0
C1279 C 0.10308 0.79184 0.46872 0.0
C1280 C 0.14075 0.84985 0.48603 0.0
C1281 C 0.16445 0.84465 0.49347 0.0
C1282 C 0.13541 0.87427 0.48097 0.0
C1283 C 0.11103 0.88061 0.47162 0.0
C1284 C 0.10056 0.86894 0.45051 0.0
C1285 C 0.07737 0.87456 0.44212 0.0
C1286 C 0.06453 0.89196 0.45459 0.0
C1287 C 0.0749 0.90384 0.47543 0.0
C1288 C 0.09807 0.89826 0.48391 0.0
C1289 C 0.23417 0.9299 0.48811 0.0
C1290 C 0.22897 0.94909 0.50418 0.0
C1291 C 0.2174 0.90992 0.48449 0.0
C1292 C 0.19523 0.90877 0.49694 0.0
C1293 C 0.19004 0.92787 0.51301 0.0
C1294 C 0.20677 0.94781 0.51666 0.0
C1295 C 0.17709 0.88797 0.49295 0.0
C1296 C 0.15361 0.89302 0.48468 0.0
C1297 C 0.18268 0.86346 0.49719 0.0
C1298 C 0.20694 0.85708 0.50667 0.0
C1299 C 0.21656 0.86734 0.52883 0.0
C1300 C 0.2395 0.86132 0.53756 0.0
C1301 C 0.25292 0.8449 0.5244 0.0
C1302 C 0.2434 0.83441 0.50251 0.0
C1303 C 0.22047 0.8404 0.49368 0.0
H1304 H 0.27068 0.84026 0.5312 0.0
H1305 H 0.04656 0.89627 0.44809 0.0
H1306 H 0.08414 0.22342 0.52102 0.0
H1307 H 0.11686 0.19528 0.52427 0.0
H1308 H 0.06946 0.14449 0.56382 0.0
H1309 H 0.03676 0.17278 0.56112 0.0
H1310 H 0.1142 0.14801 0.5843 0.0
H1311 H 0.08042 0.13588 0.50266 0.0
H1312 H 0.06723 0.14853 0.46143 0.0
H1313 H 0.14023 0.17616 0.44656 0.0
H1314 H 0.1538 0.16396 0.48784 0.0
H1315 H 0.17894 0.0408 0.5679 0.0
H1316 H 0.14894 0.0719 0.56855 0.0
H1317 H 0.1978 0.12081 0.52845 0.0
H1318 H 0.22774 0.08958 0.52726 0.0
H1319 H 0.15325 0.11929 0.50872 0.0
H1320 H 0.18735 0.12983 0.59009 0.0
H1321 H 0.20034 0.11673 0.63122 0.0
H1322 H 0.12668 0.09163 0.64661 0.0
H1323 H 0.1133 0.10428 0.60543 0.0
C1324 C 0.08067 0.20629 0.53047 0.0
C1325 C 0.0578 0.20026 0.54069 0.0
C1326 C 0.09938 0.19019 0.53223 0.0
C1327 C 0.09548 0.16764 0.54397 0.0
C1328 C 0.07283 0.16179 0.55464 0.0
C1329 C 0.05415 0.17795 0.55302 0.0
C1330 C 0.1149 0.15 0.54485 0.0
C1331 C 0.12257 0.1415 0.56777 0.0
C1332 C 0.12618 0.14196 0.5233 0.0
C1333 C 0.11807 0.14923 0.49843 0.0
C1334 C 0.09362 0.14482 0.49067 0.0
C1335 C 0.08608 0.15188 0.46728 0.0
C1336 C 0.10286 0.1632 0.45141 0.0
C1337 C 0.12724 0.16742 0.45888 0.0
C1338 C 0.13487 0.16042 0.48226 0.0
C1339 C 0.18341 0.05824 0.55939 0.0
C1340 C 0.20572 0.06271 0.5475 0.0
C1341 C 0.16627 0.07605 0.55988 0.0
C1342 C 0.17122 0.09878 0.54875 0.0
C1343 C 0.19361 0.1034 0.53716 0.0
C1344 C 0.21072 0.08555 0.53655 0.0
C1345 C 0.15259 0.11726 0.54819 0.0
C1346 C 0.14501 0.12589 0.52529 0.0
C1347 C 0.14138 0.12536 0.56976 0.0
C1348 C 0.14937 0.11782 0.59458 0.0
C1349 C 0.17395 0.12135 0.60217 0.0
C1350 C 0.18138 0.11404 0.62551 0.0
C1351 C 0.16436 0.1033 0.6415 0.0
C1352 C 0.13986 0.09992 0.6342 0.0
C1353 C 0.13233 0.10719 0.61087 0.0
H1354 H 0.17015 0.09765 0.65956 0.0
H1355 H 0.09699 0.16866 0.43331 0.0
loop_
_geom_bond_atom_site_label_1
_geom_bond_atom_site_label_2
_geom_bond_distance
_geom_bond_site_symmetry_2
_ccdc_geom_bond_type
C0 O1 1.160 . S
C0 O7 1.185 . S
O1 C0 1.160 . S
O2 Zn3 1.899 . S
O2 C10 1.284 . S
Zn3 O2 1.899 . S
Zn3 O4 2.032 1_455 S
Zn3 O7 2.086 . S
Zn3 O12 1.977 . S
O4 Zn3 2.032 1_655 S
O4 C8 1.278 . S
C5 O6 1.189 1_455 S
C5 O12 1.267 . S
O6 C5 1.189 1_655 S
O7 C0 1.185 . S
O7 Zn3 2.086 . S
C8 O4 1.278 . S
C8 O9 1.211 . S
O9 C8 1.211 . S
C10 O2 1.284 . S
C10 O11 1.273 1_455 S
O11 C10 1.273 1_655 S
O12 Zn3 1.977 . S
O12 C5 1.267 . S
C13 O14 1.160 . S
C13 O20 1.185 . S
O14 C13 1.160 . S
O15 Zn16 1.900 1_565 S
O15 C23 1.287 1_565 S
Zn16 O15 1.900 1_545 S
Zn16 O17 2.032 . S
Zn16 O20 2.086 1_545 S
Zn16 O25 1.977 . S
O17 Zn16 2.032 . S
O17 C21 1.278 . S
C18 O19 1.203 . S
C18 O25 1.267 . S
O19 C18 1.203 . S
O20 C13 1.185 . S
O20 Zn16 2.086 1_565 S
C21 O17 1.278 . S
C21 O22 1.211 . S
O22 C21 1.211 . S
C23 O15 1.287 1_545 S
C23 O24 1.273 . S
O24 C23 1.273 . S
O25 Zn16 1.977 . S
O25 C18 1.267 . S
C26 O27 1.160 . S
C26 O33 1.185 . S
O27 C26 1.160 . S
O28 Zn29 1.899 . S
O28 C36 1.284 . S
Zn29 O28 1.899 . S
Zn29 O30 2.032 . S
Zn29 O33 2.086 1_455 S
Zn29 O38 1.977 . S
O30 Zn29 2.032 . S
O30 C34 1.278 . S
C31 O32 1.203 . S
C31 O38 1.267 . S
O32 C31 1.203 . S
O33 C26 1.185 . S
O33 Zn29 2.086 1_655 S
C34 O30 1.278 . S
C34 O35 1.211 . S
O35 C34 1.211 . S
C36 O28 1.284 . S
C36 O37 1.273 . S
O37 C36 1.273 . S
O38 Zn29 1.977 . S
O38 C31 1.267 . S
C39 O40 1.160 . S
C39 O46 1.185 . S
O40 C39 1.160 . S
O41 Zn42 1.899 . S
O41 C49 1.284 . S
Zn42 O41 1.899 . S
Zn42 O43 2.032 1_545 S
Zn42 O46 2.086 . S
Zn42 O51 1.977 . S
O43 Zn42 2.032 1_565 S
O43 C47 1.278 . S
C44 O45 1.203 1_545 S
C44 O51 1.267 . S
O45 C44 1.203 1_565 S
O46 C39 1.185 . S
O46 Zn42 2.086 . S
C47 O43 1.278 . S
C47 O48 1.211 . S
O48 C47 1.211 . S
C49 O41 1.284 . S
C49 O50 1.273 1_545 S
O50 C49 1.273 1_565 S
O51 Zn42 1.977 . S
O51 C44 1.267 . S
C52 O53 1.160 . S
C52 O59 1.221 . S
O53 C52 1.160 . S
O54 Zn55 1.899 . S
O54 C62 1.284 . S
Zn55 O54 1.899 . S
Zn55 O56 2.032 . S
Zn55 O59 2.095 . S
Zn55 O64 1.977 1_545 S
O56 Zn55 2.032 . S
O56 C60 1.278 . S
C57 O58 1.203 . S
C57 O64 1.267 . S
O58 C57 1.203 . S
O59 C52 1.221 . S
O59 Zn55 2.095 . S
C60 O56 1.278 . S
C60 O61 1.209 1_545 S
O61 C60 1.209 1_565 S
C62 O54 1.284 . S
C62 O63 1.273 . S
O63 C62 1.273 . S
O64 Zn55 1.977 1_565 S
O64 C57 1.267 . S
C65 O66 1.160 . S
C65 O72 1.185 . S
O66 C65 1.160 . S
O67 Zn68 1.899 . S
O67 C75 1.284 . S
Zn68 O67 1.899 . S
Zn68 O69 2.032 . S
Zn68 O72 2.086 . S
Zn68 O77 1.977 . S
O69 Zn68 2.032 . S
O69 C73 1.278 1_455 S
C70 O71 1.203 . S
C70 O77 1.267 . S
O71 C70 1.203 . S
O72 C65 1.185 . S
O72 Zn68 2.086 . S
C73 O69 1.278 1_655 S
C73 O74 1.211 . S
O74 C73 1.211 . S
C75 O67 1.284 . S
C75 O76 1.259 1_455 S
O76 C75 1.259 1_655 S
O77 Zn68 1.977 . S
O77 C70 1.267 . S
C78 O79 1.160 . S
C78 O85 1.159 1_545 S
O79 C78 1.160 . S
O80 Zn81 1.899 . S
O80 C88 1.284 . S
Zn81 O80 1.899 . S
Zn81 O82 2.032 . S
Zn81 O85 2.079 1_545 S
Zn81 O90 1.977 1_545 S
O82 Zn81 2.032 . S
O82 C86 1.278 . S
C83 O84 1.203 . S
C83 O90 1.267 . S
O84 C83 1.203 . S
O85 C78 1.159 1_565 S
O85 Zn81 2.079 1_565 S
C86 O82 1.278 . S
C86 O87 1.211 1_545 S
O87 C86 1.211 1_565 S
C88 O80 1.284 . S
C88 O89 1.273 . S
O89 C88 1.273 . S
O90 Zn81 1.977 1_565 S
O90 C83 1.267 . S
C91 O92 1.160 1_455 S
C91 O98 1.185 . S
O92 C91 1.160 1_655 S
O93 Zn94 1.899 1_655 S
O93 C101 1.284 . S
Zn94 O93 1.899 1_455 S
Zn94 O95 2.032 . S
Zn94 O98 2.086 . S
Zn94 O103 1.977 . S
O95 Zn94 2.032 . S
O95 C99 1.278 . S
C96 O97 1.203 . S
C96 O103 1.267 . S
O97 C96 1.203 . S
O98 C91 1.185 . S
O98 Zn94 2.086 . S
C99 O95 1.278 . S
C99 O100 1.211 . S
O100 C99 1.211 . S
C101 O93 1.284 . S
C101 O102 1.273 . S
O102 C101 1.273 . S
O103 Zn94 1.977 . S
O103 C96 1.267 . S
C104 O105 1.160 . S
C104 O111 1.185 1_554 S
O105 C104 1.160 . S
O106 Zn107 1.899 . S
O106 C114 1.284 . S
Zn107 O106 1.899 . S
Zn107 O108 2.032 . S
Zn107 O111 2.086 1_554 S
Zn107 O116 1.977 1_554 S
O108 Zn107 2.032 . S
O108 C112 1.277 . S
C109 O110 1.203 . S
C109 O116 1.267 . S
O110 C109 1.203 . S
O111 C104 1.185 1_556 S
O111 Zn107 2.086 1_556 S
C112 O108 1.277 . S
C112 O113 1.212 1_554 S
O113 C112 1.212 1_556 S
C114 O106 1.284 . S
C114 O115 1.273 . S
O115 C114 1.273 . S
O116 Zn107 1.977 1_556 S
O116 C109 1.267 . S
C117 O118 1.190 . S
C117 O124 1.161 1_556 S
O118 C117 1.190 . S
O119 Zn120 1.899 1_556 S
O119 C127 1.284 . S
Zn120 O119 1.899 1_554 S
Zn120 O121 2.032 . S
Zn120 O124 2.086 . S
Zn120 O129 1.977 . S
O121 Zn120 2.032 . S
O121 C125 1.278 . S
C122 O123 1.203 . S
C122 O129 1.267 . S
O123 C122 1.203 . S
O124 C117 1.161 1_554 S
O124 Zn120 2.086 . S
C125 O121 1.278 . S
C125 O126 1.211 . S
O126 C125 1.211 . S
C127 O119 1.284 . S
C127 O128 1.273 . S
O128 C127 1.273 . S
O129 Zn120 1.977 . S
O129 C122 1.267 . S
C130 O131 1.160 . S
C130 O137 1.185 1_554 S
O131 C130 1.160 . S
O132 Zn133 1.899 . S
O132 C140 1.284 . S
Zn133 O132 1.899 . S
Zn133 O134 2.032 . S
Zn133 O137 2.086 1_554 S
Zn133 O142 1.977 1_554 S
O134 Zn133 2.032 . S
O134 C138 1.278 . S
C135 O136 1.203 . S
C135 O142 1.267 . S
O136 C135 1.203 . S
O137 C130 1.185 1_556 S
O137 Zn133 2.086 1_556 S
C138 O134 1.278 . S
C138 O139 1.211 1_554 S
O139 C138 1.211 1_556 S
C140 O132 1.284 . S
C140 O141 1.273 . S
O141 C140 1.273 . S
O142 Zn133 1.977 1_556 S
O142 C135 1.267 . S
C143 O144 1.160 1_554 S
C143 O150 1.185 . S
O144 C143 1.160 1_556 S
O145 Zn146 1.899 1_556 S
O145 C153 1.284 . S
Zn146 O145 1.899 1_554 S
Zn146 O147 2.032 . S
Zn146 O150 2.086 . S
Zn146 O155 1.977 . S
O147 Zn146 2.032 . S
O147 C151 1.278 . S
C148 O149 1.203 . S
C148 O155 1.267 . S
O149 C148 1.203 . S
O150 C143 1.185 . S
O150 Zn146 2.086 . S
C151 O147 1.278 . S
C151 O152 1.211 . S
O152 C151 1.211 . S
C153 O145 1.284 . S
C153 O154 1.273 . S
O154 C153 1.273 . S
O155 Zn146 1.977 . S
O155 C148 1.267 . S
H156 C174 0.951 . S
H157 C176 0.951 . S
H158 C178 0.950 . S
H159 C179 0.950 . S
H160 C181 0.950 . S
H161 C184 0.950 1_455 S
H162 C185 0.950 . S
H163 C187 0.950 . S
H164 C188 0.950 . S
H165 C189 0.951 . S
H166 C191 0.951 . S
H167 C193 0.950 . S
H168 C194 0.950 . S
H169 C196 0.950 . S
H170 C199 0.950 . S
H171 C200 0.950 . S
H172 C202 0.950 . S
H173 C203 0.950 . S
C174 H156 0.951 . S
C174 C175 1.366 1_655 S
C174 C176 1.388 . S
C175 C174 1.366 1_455 S
C175 C179 1.385 . S
C176 H157 0.951 . S
C176 C174 1.388 . S
C176 C177 1.366 1_655 S
C177 C176 1.366 1_455 S
C177 C178 1.414 . S
C177 C180 1.499 . S
C178 H158 0.950 . S
C178 C177 1.414 . S
C178 C179 1.374 . S
C179 H159 0.950 . S
C179 C175 1.385 . S
C179 C178 1.374 . S
C180 C177 1.499 . S
C180 C181 1.373 . S
C180 C182 1.389 1_455 S
C181 H160 0.950 . S
C181 C180 1.373 . S
C181 C197 1.377 . S
C182 C180 1.389 1_655 S
C182 C183 1.524 . S
C182 C196 1.377 . S
C183 C182 1.524 . S
C183 C184 1.397 . S
C183 C188 1.363 . S
C184 H161 0.950 1_655 S
C184 C183 1.397 . S
C184 C185 1.334 . S
C185 H162 0.950 . S
C185 C184 1.334 . S
C185 C186 1.287 . S
C186 C185 1.287 . S
C186 C187 1.524 . S
C186 H205 0.913 . S
C187 H163 0.950 . S
C187 C186 1.524 . S
C187 C188 1.415 . S
C188 H164 0.950 . S
C188 C183 1.363 . S
C188 C187 1.415 . S
C189 H165 0.951 . S
C189 C190 1.366 . S
C189 C191 1.388 . S
C190 C189 1.366 . S
C190 C194 1.385 1_455 S
C191 H166 0.951 . S
C191 C189 1.388 . S
C191 C192 1.366 . S
C192 C191 1.366 . S
C192 C193 1.414 1_455 S
C192 C195 1.499 . S
C193 H167 0.950 . S
C193 C192 1.414 1_655 S
C193 C194 1.374 . S
C194 H168 0.950 . S
C194 C190 1.385 1_655 S
C194 C193 1.374 . S
C195 C192 1.499 . S
C195 C196 1.373 1_455 S
C195 C197 1.389 . S
C196 H169 0.950 . S
C196 C182 1.377 . S
C196 C195 1.373 1_655 S
C197 C181 1.377 . S
C197 C195 1.389 . S
C197 C198 1.524 . S
C198 C197 1.524 . S
C198 C199 1.397 . S
C198 C203 1.363 . S
C199 H170 0.950 . S
C199 C198 1.397 . S
C199 C200 1.334 . S
C200 H171 0.950 . S
C200 C199 1.334 . S
C200 C201 1.287 . S
C201 C200 1.287 . S
C201 C202 1.524 . S
C201 H204 0.999 . S
C202 H172 0.950 . S
C202 C201 1.524 . S
C202 C203 1.415 . S
C203 H173 0.950 . S
C203 C198 1.363 . S
C203 C202 1.415 . S
H204 C201 0.999 . S
H205 C186 0.913 . S
H206 C224 0.951 1_565 S
H207 C226 0.951 1_565 S
H208 C228 0.950 . S
H209 C229 0.950 . S
H210 C231 0.950 . S
H211 C234 0.950 . S
H212 C235 0.950 . S
H213 C237 0.950 . S
H214 C238 0.950 . S
H215 C239 0.951 . S
H216 C241 0.951 . S
H217 C243 0.950 1_565 S
H218 C244 0.950 1_565 S
H219 C246 0.950 . S
H220 C249 0.950 . S
H221 C250 0.950 . S
H222 C252 0.957 . S
H223 C253 0.950 . S
C224 H206 0.951 1_545 S
C224 C225 1.366 . S
C224 C226 1.388 . S
C225 C224 1.366 . S
C225 C229 1.385 . S
C226 H207 0.951 1_545 S
C226 C224 1.388 . S
C226 C227 1.366 . S
C227 C226 1.366 . S
C227 C228 1.414 . S
C227 C230 1.499 . S
C228 H208 0.950 . S
C228 C227 1.414 . S
C228 C229 1.374 . S
C229 H209 0.950 . S
C229 C225 1.385 . S
C229 C228 1.374 . S
C230 C227 1.499 . S
C230 C231 1.373 . S
C230 C232 1.389 . S
C231 H210 0.950 . S
C231 C230 1.373 . S
C231 C247 1.377 . S
C232 C230 1.389 . S
C232 C233 1.524 . S
C232 C246 1.377 . S
C233 C232 1.524 . S
C233 C234 1.397 . S
C233 C238 1.363 . S
C234 H211 0.950 . S
C234 C233 1.397 . S
C234 C235 1.334 . S
C235 H212 0.950 . S
C235 C234 1.334 . S
C235 C236 1.287 . S
C236 C235 1.287 . S
C236 C237 1.524 . S
C236 H255 0.913 . S
C237 H213 0.950 . S
C237 C236 1.524 . S
C237 C238 1.415 . S
C238 H214 0.950 . S
C238 C233 1.363 . S
C238 C237 1.415 . S
C239 H215 0.951 . S
C239 C240 1.366 . S
C239 C241 1.388 . S
C240 C239 1.366 . S
C240 C244 1.385 . S
C241 H216 0.951 . S
C241 C239 1.388 . S
C241 C242 1.366 . S
C242 C241 1.366 . S
C242 C243 1.414 . S
C242 C245 1.499 . S
C243 H217 0.950 1_545 S
C243 C242 1.414 . S
C243 C244 1.374 . S
C244 H218 0.950 1_545 S
C244 C240 1.385 . S
C244 C243 1.374 . S
C245 C242 1.499 . S
C245 C246 1.373 . S
C245 C247 1.389 . S
C246 H219 0.950 . S
C246 C232 1.377 . S
C246 C245 1.373 . S
C247 C231 1.377 . S
C247 C245 1.389 . S
C247 C248 1.519 1_545 S
C248 C247 1.519 1_565 S
C248 C249 1.411 . S
C248 C253 1.355 1_565 S
C249 H220 0.950 . S
C249 C248 1.411 . S
C249 C250 1.334 . S
C250 H221 0.950 . S
C250 C249 1.334 . S
C250 C251 1.287 . S
C251 C250 1.287 . S
C251 C252 1.510 1_565 S
C251 H254 0.999 . S
C252 H222 0.957 . S
C252 C251 1.510 1_545 S
C252 C253 1.421 . S
C253 H223 0.950 . S
C253 C248 1.355 1_545 S
C253 C252 1.421 . S
H254 C251 0.999 . S
H255 C236 0.913 . S
H256 C274 0.951 . S
H257 C276 0.951 . S
H258 C278 0.950 . S
H259 C279 0.950 . S
H260 C281 0.950 . S
H261 C284 0.950 . S
H262 C285 0.950 . S
H263 C287 0.950 . S
H264 C288 0.950 . S
H265 C289 0.951 . S
H266 C291 0.951 . S
H267 C293 0.950 . S
H268 C294 0.950 . S
H269 C296 0.937 1_655 S
H270 C299 0.950 . S
H271 C300 0.950 . S
H272 C302 0.950 . S
H273 C303 0.950 . S
C274 H256 0.951 . S
C274 C275 1.366 . S
C274 C276 1.388 . S
C275 C274 1.366 . S
C275 C279 1.385 . S
C276 H257 0.951 . S
C276 C274 1.388 . S
C276 C277 1.366 . S
C277 C276 1.366 . S
C277 C278 1.414 . S
C277 C280 1.499 . S
C278 H258 0.950 . S
C278 C277 1.414 . S
C278 C279 1.374 . S
C279 H259 0.950 . S
C279 C275 1.385 . S
C279 C278 1.374 . S
C280 C277 1.499 . S
C280 C281 1.373 . S
C280 C282 1.398 . S
C281 H260 0.950 . S
C281 C280 1.373 . S
C281 C297 1.377 . S
C282 C280 1.398 . S
C282 C283 1.516 1_455 S
C282 C296 1.377 . S
C283 C282 1.516 1_655 S
C283 C284 1.397 . S
C283 C288 1.363 . S
C284 H261 0.950 . S
C284 C283 1.397 . S
C284 C285 1.334 . S
C285 H262 0.950 . S
C285 C284 1.334 . S
C285 C286 1.287 . S
C286 C285 1.287 . S
C286 C287 1.524 . S
C286 H305 0.913 . S
C287 H263 0.950 . S
C287 C286 1.524 . S
C287 C288 1.415 . S
C288 H264 0.950 . S
C288 C283 1.363 . S
C288 C287 1.415 . S
C289 H265 0.951 . S
C289 C290 1.366 . S
C289 C291 1.388 . S
C290 C289 1.366 . S
C290 C294 1.385 . S
C291 H266 0.951 . S
C291 C289 1.388 . S
C291 C292 1.366 . S
C292 C291 1.366 . S
C292 C293 1.414 . S
C292 C295 1.499 . S
C293 H267 0.950 . S
C293 C292 1.414 . S
C293 C294 1.374 . S
C294 H268 0.950 . S
C294 C290 1.385 . S
C294 C293 1.374 . S
C295 C292 1.499 . S
C295 C296 1.386 . S
C295 C297 1.389 . S
C296 H269 0.937 1_455 S
C296 C282 1.377 . S
C296 C295 1.386 . S
C297 C281 1.377 . S
C297 C295 1.389 . S
C297 C298 1.524 . S
C298 C297 1.524 . S
C298 C299 1.397 . S
C298 C303 1.363 . S
C299 H270 0.950 . S
C299 C298 1.397 . S
C299 C300 1.334 . S
C300 H271 0.950 . S
C300 C299 1.334 . S
C300 C301 1.287 . S
C301 C300 1.287 . S
C301 C302 1.524 . S
C301 H304 0.999 . S
C302 H272 0.950 . S
C302 C301 1.524 . S
C302 C303 1.415 . S
C303 H273 0.950 . S
C303 C298 1.363 . S
C303 C302 1.415 . S
H304 C301 0.999 . S
H305 C286 0.913 . S
H306 C324 0.951 . S
H307 C326 0.951 . S
H308 C328 0.950 . S
H309 C329 0.950 . S
H310 C331 0.950 1_565 S
H311 C334 0.950 1_565 S
H312 C335 0.950 1_565 S
H313 C337 0.950 . S
H314 C338 0.950 . S
H315 C339 0.951 . S
H316 C341 0.951 . S
H317 C343 0.950 . S
H318 C344 0.950 . S
H319 C346 0.950 . S
H320 C349 0.950 . S
H321 C350 0.950 . S
H322 C352 0.950 . S
H323 C353 0.950 . S
C324 H306 0.951 . S
C324 C325 1.366 . S
C324 C326 1.388 . S
C325 C324 1.366 . S
C325 C329 1.385 1_545 S
C326 H307 0.951 . S
C326 C324 1.388 . S
C326 C327 1.366 . S
C327 C326 1.366 . S
C327 C328 1.414 1_545 S
C327 C330 1.499 . S
C328 H308 0.950 . S
C328 C327 1.414 1_565 S
C328 C329 1.374 . S
C329 H309 0.950 . S
C329 C325 1.385 1_565 S
C329 C328 1.374 . S
C330 C327 1.499 . S
C330 C331 1.373 . S
C330 C332 1.389 . S
C331 H310 0.950 1_545 S
C331 C330 1.373 . S
C331 C347 1.377 . S
C332 C330 1.389 . S
C332 C333 1.524 . S
C332 C346 1.377 . S
C333 C332 1.524 . S
C333 C334 1.397 . S
C333 C338 1.363 . S
C334 H311 0.950 1_545 S
C334 C333 1.397 . S
C334 C335 1.334 . S
C335 H312 0.950 1_545 S
C335 C334 1.334 . S
C335 C336 1.287 . S
C336 C335 1.287 . S
C336 C337 1.524 . S
C336 H355 0.913 . S
C337 H313 0.950 . S
C337 C336 1.524 . S
C337 C338 1.415 . S
C338 H314 0.950 . S
C338 C333 1.363 . S
C338 C337 1.415 . S
C339 H315 0.951 . S
C339 C340 1.366 1_565 S
C339 C341 1.388 . S
C340 C339 1.366 1_545 S
C340 C344 1.385 . S
C341 H316 0.951 . S
C341 C339 1.388 . S
C341 C342 1.366 1_565 S
C342 C341 1.366 1_545 S
C342 C343 1.414 . S
C342 C345 1.499 . S
C343 H317 0.950 . S
C343 C342 1.414 . S
C343 C344 1.374 . S
C344 H318 0.950 . S
C344 C340 1.385 . S
C344 C343 1.374 . S
C345 C342 1.499 . S
C345 C346 1.373 . S
C345 C347 1.389 . S
C346 H319 0.950 . S
C346 C332 1.377 . S
C346 C345 1.373 . S
C347 C331 1.377 . S
C347 C345 1.389 . S
C347 C348 1.524 1_545 S
C348 C347 1.524 1_565 S
C348 C349 1.397 1_565 S
C348 C353 1.363 . S
C349 H320 0.950 . S
C349 C348 1.397 1_545 S
C349 C350 1.334 . S
C350 H321 0.950 . S
C350 C349 1.334 . S
C350 C351 1.287 1_545 S
C351 C350 1.287 1_565 S
C351 C352 1.524 . S
C351 H354 0.999 . S
C352 H322 0.950 . S
C352 C351 1.524 . S
C352 C353 1.415 . S
C353 H323 0.950 . S
C353 C348 1.363 . S
C353 C352 1.415 . S
H354 C351 0.999 . S
H355 C336 0.913 . S
H356 C374 0.951 . S
H357 C376 0.951 . S
H358 C378 0.950 . S
H359 C379 0.950 . S
H360 C381 0.950 . S
H361 C384 0.950 . S
H362 C385 0.950 . S
H363 C387 0.950 . S
H364 C388 0.950 . S
H365 C389 0.951 . S
H366 C391 0.951 . S
H367 C393 0.950 . S
H368 C394 0.950 . S
H369 C396 0.952 1_655 S
H370 C399 0.950 . S
H371 C400 0.950 . S
H372 C402 0.950 . S
H373 C403 0.950 . S
C374 H356 0.951 . S
C374 C375 1.366 . S
C374 C376 1.388 . S
C375 C374 1.366 . S
C375 C379 1.385 . S
C376 H357 0.951 . S
C376 C374 1.388 . S
C376 C377 1.366 . S
C377 C376 1.366 . S
C377 C378 1.414 . S
C377 C380 1.499 . S
C378 H358 0.950 . S
C378 C377 1.414 . S
C378 C379 1.374 . S
C379 H359 0.950 . S
C379 C375 1.385 . S
C379 C378 1.374 . S
C380 C377 1.499 . S
C380 C381 1.373 . S
C380 C382 1.389 1_455 S
C381 H360 0.950 . S
C381 C380 1.373 . S
C381 C397 1.377 . S
C382 C380 1.389 1_655 S
C382 C383 1.524 . S
C382 C396 1.377 1_655 S
C383 C382 1.524 . S
C383 C384 1.397 . S
C383 C388 1.363 . S
C384 H361 0.950 . S
C384 C383 1.397 . S
C384 C385 1.334 . S
C385 H362 0.950 . S
C385 C384 1.334 . S
C385 C386 1.287 . S
C386 C385 1.287 . S
C386 C387 1.524 . S
C386 H405 0.913 . S
C387 H363 0.950 . S
C387 C386 1.524 . S
C387 C388 1.415 . S
C388 H364 0.950 . S
C388 C383 1.363 . S
C388 C387 1.415 . S
C389 H365 0.951 . S
C389 C390 1.366 . S
C389 C391 1.388 . S
C390 C389 1.366 . S
C390 C394 1.385 . S
C391 H366 0.951 . S
C391 C389 1.388 . S
C391 C392 1.366 . S
C392 C391 1.366 . S
C392 C393 1.414 . S
C392 C395 1.499 . S
C393 H367 0.950 . S
C393 C392 1.414 . S
C393 C394 1.374 . S
C394 H368 0.950 . S
C394 C390 1.385 . S
C394 C393 1.374 . S
C395 C392 1.499 . S
C395 C396 1.372 . S
C395 C397 1.389 . S
C396 H369 0.952 1_455 S
C396 C382 1.377 1_455 S
C396 C395 1.372 . S
C397 C381 1.377 . S
C397 C395 1.389 . S
C397 C398 1.524 . S
C398 C397 1.524 . S
C398 C399 1.397 . S
C398 C403 1.363 . S
C399 H370 0.950 . S
C399 C398 1.397 . S
C399 C400 1.334 . S
C400 H371 0.950 . S
C400 C399 1.334 . S
C400 C401 1.287 . S
C401 C400 1.287 . S
C401 C402 1.524 . S
C401 H404 0.999 . S
C402 H372 0.950 . S
C402 C401 1.524 . S
C402 C403 1.415 . S
C403 H373 0.950 . S
C403 C398 1.363 . S
C403 C402 1.415 . S
H404 C401 0.999 . S
H405 C386 0.913 . S
H406 C424 0.951 . S
H407 C426 0.951 . S
H408 C428 0.950 . S
H409 C429 0.950 . S
H410 C431 0.950 . S
H411 C434 0.950 . S
H412 C435 0.950 . S
H413 C437 0.950 . S
H414 C438 0.950 . S
H415 C439 0.951 . S
H416 C441 0.951 . S
H417 C443 0.950 . S
H418 C444 0.950 . S
H419 C446 0.950 . S
H420 C449 0.950 . S
H421 C450 0.950 . S
H422 C452 0.950 . S
H423 C453 0.950 . S
C424 H406 0.951 . S
C424 C425 1.366 . S
C424 C426 1.388 . S
C425 C424 1.366 . S
C425 C429 1.385 1_545 S
C426 H407 0.951 . S
C426 C424 1.388 . S
C426 C427 1.366 . S
C427 C426 1.366 . S
C427 C428 1.414 1_545 S
C427 C430 1.499 . S
C428 H408 0.950 . S
C428 C427 1.414 1_565 S
C428 C429 1.374 . S
C429 H409 0.950 . S
C429 C425 1.385 1_565 S
C429 C428 1.374 . S
C430 C427 1.499 . S
C430 C431 1.373 1_545 S
C430 C432 1.389 . S
C431 H410 0.950 . S
C431 C430 1.373 1_565 S
C431 C447 1.377 . S
C432 C430 1.389 . S
C432 C433 1.524 . S
C432 C446 1.377 . S
C433 C432 1.524 . S
C433 C434 1.397 . S
C433 C438 1.363 . S
C434 H411 0.950 . S
C434 C433 1.397 . S
C434 C435 1.334 . S
C435 H412 0.950 . S
C435 C434 1.334 . S
C435 C436 1.287 . S
C436 C435 1.287 . S
C436 C437 1.524 . S
C436 H455 0.913 . S
C437 H413 0.950 . S
C437 C436 1.524 . S
C437 C438 1.415 . S
C438 H414 0.950 . S
C438 C433 1.363 . S
C438 C437 1.415 . S
C439 H415 0.951 . S
C439 C440 1.366 1_565 S
C439 C441 1.388 . S
C440 C439 1.366 1_545 S
C440 C444 1.385 . S
C441 H416 0.951 . S
C441 C439 1.388 . S
C441 C442 1.366 1_565 S
C442 C441 1.366 1_545 S
C442 C443 1.414 . S
C442 C445 1.499 . S
C443 H417 0.950 . S
C443 C442 1.414 . S
C443 C444 1.374 . S
C444 H418 0.950 . S
C444 C440 1.385 . S
C444 C443 1.374 . S
C445 C442 1.499 . S
C445 C446 1.373 . S
C445 C447 1.389 1_545 S
C446 H419 0.950 . S
C446 C432 1.377 . S
C446 C445 1.373 . S
C447 C431 1.377 . S
C447 C445 1.389 1_565 S
C447 C448 1.524 . S
C448 C447 1.524 . S
C448 C449 1.397 . S
C448 C453 1.363 . S
C449 H420 0.950 . S
C449 C448 1.397 . S
C449 C450 1.334 . S
C450 H421 0.950 . S
C450 C449 1.334 . S
C450 C451 1.287 . S
C451 C450 1.287 . S
C451 C452 1.524 . S
C451 H454 0.999 . S
C452 H422 0.950 . S
C452 C451 1.524 . S
C452 C453 1.415 . S
C453 H423 0.950 . S
C453 C448 1.363 . S
C453 C452 1.415 . S
H454 C451 0.999 . S
H455 C436 0.913 . S
H456 C474 0.951 . S
H457 C476 0.951 . S
H458 C478 0.950 . S
H459 C479 0.950 . S
H460 C481 0.950 . S
H461 C484 0.950 . S
H462 C485 0.950 . S
H463 C487 0.950 . S
H464 C488 0.950 . S
H465 C489 0.951 . S
H466 C491 0.951 . S
H467 C493 0.950 . S
H468 C494 0.950 . S
H469 C496 0.950 . S
H470 C499 0.950 . S
H471 C500 0.950 . S
H472 C502 0.950 1_655 S
H473 C503 0.929 1_655 S
C474 H456 0.951 . S
C474 C475 1.366 . S
C474 C476 1.388 . S
C475 C474 1.366 . S
C475 C479 1.385 1_455 S
C476 H457 0.951 . S
C476 C474 1.388 . S
C476 C477 1.366 . S
C477 C476 1.366 . S
C477 C478 1.414 1_455 S
C477 C480 1.499 . S
C478 H458 0.950 . S
C478 C477 1.414 1_655 S
C478 C479 1.374 . S
C479 H459 0.950 . S
C479 C475 1.385 1_655 S
C479 C478 1.374 . S
C480 C477 1.499 . S
C480 C481 1.373 . S
C480 C482 1.389 . S
C481 H460 0.950 . S
C481 C480 1.373 . S
C481 C497 1.377 . S
C482 C480 1.389 . S
C482 C483 1.524 . S
C482 C496 1.377 . S
C483 C482 1.524 . S
C483 C484 1.397 1_455 S
C483 C488 1.363 . S
C484 H461 0.950 . S
C484 C483 1.397 1_655 S
C484 C485 1.334 . S
C485 H462 0.950 . S
C485 C484 1.334 . S
C485 C486 1.315 . S
C486 C485 1.315 . S
C486 C487 1.489 1_655 S
C486 H505 0.919 . S
C487 H463 0.950 . S
C487 C486 1.489 1_455 S
C487 C488 1.415 . S
C488 H464 0.950 . S
C488 C483 1.363 . S
C488 C487 1.415 . S
C489 H465 0.951 . S
C489 C490 1.366 1_655 S
C489 C491 1.388 . S
C490 C489 1.366 1_455 S
C490 C494 1.385 . S
C491 H466 0.951 . S
C491 C489 1.388 . S
C491 C492 1.366 1_655 S
C492 C491 1.366 1_455 S
C492 C493 1.414 . S
C492 C495 1.499 . S
C493 H467 0.950 . S
C493 C492 1.414 . S
C493 C494 1.374 . S
C494 H468 0.950 . S
C494 C490 1.385 . S
C494 C493 1.374 . S
C495 C492 1.499 . S
C495 C496 1.373 . S
C495 C497 1.389 . S
C496 H469 0.950 . S
C496 C482 1.377 . S
C496 C495 1.373 . S
C497 C481 1.377 . S
C497 C495 1.389 . S
C497 C498 1.524 . S
C498 C497 1.524 . S
C498 C499 1.397 . S
C498 C503 1.382 . S
C499 H470 0.950 . S
C499 C498 1.397 . S
C499 C500 1.334 . S
C500 H471 0.950 . S
C500 C499 1.334 . S
C500 C501 1.287 . S
C501 C500 1.287 . S
C501 C502 1.524 . S
C501 H504 0.999 . S
C502 H472 0.950 1_455 S
C502 C501 1.524 . S
C502 C503 1.417 . S
C503 H473 0.929 1_455 S
C503 C498 1.382 . S
C503 C502 1.417 . S
H504 C501 0.999 . S
H505 C486 0.919 . S
H506 C524 0.951 . S
H507 C526 0.951 . S
H508 C528 0.950 . S
H509 C529 0.950 . S
H510 C531 0.950 . S
H511 C534 0.950 . S
H512 C535 0.950 . S
H513 C537 0.950 . S
H514 C538 0.950 . S
H515 C539 0.951 . S
H516 C541 0.951 . S
H517 C543 0.950 . S
H518 C544 0.950 . S
H519 C546 0.950 . S
H520 C549 0.950 . S
H521 C550 0.950 . S
H522 C552 0.950 . S
H523 C553 0.950 . S
C524 H506 0.951 . S
C524 C525 1.366 1_565 S
C524 C526 1.388 . S
C525 C524 1.366 1_545 S
C525 C529 1.385 . S
C526 H507 0.951 . S
C526 C524 1.388 . S
C526 C527 1.366 1_565 S
C527 C526 1.366 1_545 S
C527 C528 1.414 . S
C527 C530 1.499 . S
C528 H508 0.950 . S
C528 C527 1.414 . S
C528 C529 1.374 . S
C529 H509 0.950 . S
C529 C525 1.385 . S
C529 C528 1.374 . S
C530 C527 1.499 . S
C530 C531 1.373 . S
C530 C532 1.389 1_545 S
C531 H510 0.950 . S
C531 C530 1.373 . S
C531 C547 1.377 . S
C532 C530 1.389 1_565 S
C532 C533 1.524 . S
C532 C546 1.377 . S
C533 C532 1.524 . S
C533 C534 1.397 . S
C533 C538 1.363 . S
C534 H511 0.950 . S
C534 C533 1.397 . S
C534 C535 1.334 . S
C535 H512 0.950 . S
C535 C534 1.334 . S
C535 C536 1.287 . S
C536 C535 1.287 . S
C536 C537 1.524 . S
C536 H555 0.913 . S
C537 H513 0.950 . S
C537 C536 1.524 . S
C537 C538 1.415 . S
C538 H514 0.950 . S
C538 C533 1.363 . S
C538 C537 1.415 . S
C539 H515 0.951 . S
C539 C540 1.366 . S
C539 C541 1.388 . S
C540 C539 1.366 . S
C540 C544 1.385 1_545 S
C541 H516 0.951 . S
C541 C539 1.388 . S
C541 C542 1.366 . S
C542 C541 1.366 . S
C542 C543 1.414 1_545 S
C542 C545 1.499 . S
C543 H517 0.950 . S
C543 C542 1.414 1_565 S
C543 C544 1.374 . S
C544 H518 0.950 . S
C544 C540 1.385 1_565 S
C544 C543 1.374 . S
C545 C542 1.499 . S
C545 C546 1.373 1_545 S
C545 C547 1.389 . S
C546 H519 0.950 . S
C546 C532 1.377 . S
C546 C545 1.373 1_565 S
C547 C531 1.377 . S
C547 C545 1.389 . S
C547 C548 1.524 . S
C548 C547 1.524 . S
C548 C549 1.397 . S
C548 C553 1.363 . S
C549 H520 0.950 . S
C549 C548 1.397 . S
C549 C550 1.334 . S
C550 H521 0.950 . S
C550 C549 1.334 . S
C550 C551 1.287 . S
C551 C550 1.287 . S
C551 C552 1.524 . S
C551 H554 0.999 . S
C552 H522 0.950 . S
C552 C551 1.524 . S
C552 C553 1.415 . S
C553 H523 0.950 . S
C553 C548 1.363 . S
C553 C552 1.415 . S
H554 C551 0.999 . S
H555 C536 0.913 . S
H556 C574 0.951 . S
H557 C576 0.951 . S
H558 C578 0.950 . S
H559 C579 0.950 . S
H560 C581 0.950 . S
H561 C584 0.950 . S
H562 C585 0.950 . S
H563 C587 0.950 . S
H564 C588 0.950 . S
H565 C589 0.951 . S
H566 C591 0.951 . S
H567 C593 0.950 . S
H568 C594 0.950 . S
H569 C596 0.950 . S
H570 C599 0.950 . S
H571 C600 0.950 . S
H572 C602 0.950 . S
H573 C603 0.950 . S
C574 H556 0.951 . S
C574 C575 1.366 1_556 S
C574 C576 1.388 . S
C575 C574 1.366 1_554 S
C575 C579 1.385 . S
C576 H557 0.951 . S
C576 C574 1.388 . S
C576 C577 1.366 1_556 S
C577 C576 1.366 1_554 S
C577 C578 1.414 . S
C577 C580 1.499 . S
C578 H558 0.950 . S
C578 C577 1.414 . S
C578 C579 1.374 . S
C579 H559 0.950 . S
C579 C575 1.385 . S
C579 C578 1.374 . S
C580 C577 1.499 . S
C580 C581 1.373 . S
C580 C582 1.389 1_554 S
C581 H560 0.950 . S
C581 C580 1.373 . S
C581 C597 1.377 . S
C582 C580 1.389 1_556 S
C582 C583 1.524 . S
C582 C596 1.377 . S
C583 C582 1.524 . S
C583 C584 1.397 . S
C583 C588 1.363 . S
C584 H561 0.950 . S
C584 C583 1.397 . S
C584 C585 1.334 . S
C585 H562 0.950 . S
C585 C584 1.334 . S
C585 C586 1.287 . S
C586 C585 1.287 . S
C586 C587 1.524 . S
C586 H605 0.913 . S
C587 H563 0.950 . S
C587 C586 1.524 . S
C587 C588 1.415 . S
C588 H564 0.950 . S
C588 C583 1.363 . S
C588 C587 1.415 . S
C589 H565 0.951 . S
C589 C590 1.366 . S
C589 C591 1.388 . S
C590 C589 1.366 . S
C590 C594 1.385 1_554 S
C591 H566 0.951 . S
C591 C589 1.388 . S
C591 C592 1.366 . S
C592 C591 1.366 . S
C592 C593 1.414 1_554 S
C592 C595 1.499 . S
C593 H567 0.950 . S
C593 C592 1.414 1_556 S
C593 C594 1.374 . S
C594 H568 0.950 . S
C594 C590 1.385 1_556 S
C594 C593 1.374 . S
C595 C592 1.499 . S
C595 C596 1.373 1_554 S
C595 C597 1.389 . S
C596 H569 0.950 . S
C596 C582 1.377 . S
C596 C595 1.373 1_556 S
C597 C581 1.377 . S
C597 C595 1.389 . S
C597 C598 1.524 . S
C598 C597 1.524 . S
C598 C599 1.397 . S
C598 C603 1.363 . S
C599 H570 0.950 . S
C599 C598 1.397 . S
C599 C600 1.334 . S
C600 H571 0.950 . S
C600 C599 1.334 . S
C600 C601 1.287 . S
C601 C600 1.287 . S
C601 C602 1.524 . S
C601 H604 0.999 . S
C602 H572 0.950 . S
C602 C601 1.524 . S
C602 C603 1.415 . S
C603 H573 0.950 . S
C603 C598 1.363 . S
C603 C602 1.415 . S
H604 C601 0.999 . S
H605 C586 0.913 . S
H606 C624 0.951 . S
H607 C626 0.964 . S
H608 C628 0.950 . S
H609 C629 0.950 . S
H610 C631 0.950 . S
H611 C634 0.950 . S
H612 C635 0.950 . S
H613 C637 0.950 . S
H614 C638 0.950 . S
H615 C639 0.951 . S
H616 C641 0.951 . S
H617 C643 0.960 . S
H618 C644 0.949 . S
H619 C646 0.950 . S
H620 C649 0.950 . S
H621 C650 0.950 . S
H622 C652 0.950 . S
H623 C653 0.950 . S
C624 H606 0.951 . S
C624 C625 1.366 1_556 S
C624 C626 1.389 . S
C625 C624 1.366 1_554 S
C625 C629 1.385 . S
C626 H607 0.964 . S
C626 C624 1.389 . S
C626 C627 1.354 1_556 S
C627 C626 1.354 1_554 S
C627 C628 1.414 . S
C627 C630 1.499 . S
C628 H608 0.950 . S
C628 C627 1.414 . S
C628 C629 1.374 . S
C629 H609 0.950 . S
C629 C625 1.385 . S
C629 C628 1.374 . S
C630 C627 1.499 . S
C630 C631 1.373 1_554 S
C630 C632 1.389 . S
C631 H610 0.950 . S
C631 C630 1.373 1_556 S
C631 C647 1.377 . S
C632 C630 1.389 . S
C632 C633 1.524 . S
C632 C646 1.377 . S
C633 C632 1.524 . S
C633 C634 1.397 . S
C633 C638 1.363 . S
C634 H611 0.950 . S
C634 C633 1.397 . S
C634 C635 1.334 . S
C635 H612 0.950 . S
C635 C634 1.334 . S
C635 C636 1.287 . S
C636 C635 1.287 . S
C636 C637 1.524 . S
C636 H655 0.913 . S
C637 H613 0.950 . S
C637 C636 1.524 . S
C637 C638 1.415 . S
C638 H614 0.950 . S
C638 C633 1.363 . S
C638 C637 1.415 . S
C639 H615 0.951 . S
C639 C640 1.366 . S
C639 C641 1.388 . S
C640 C639 1.366 . S
C640 C644 1.385 1_554 S
C641 H616 0.951 . S
C641 C639 1.388 . S
C641 C642 1.366 . S
C642 C641 1.366 . S
C642 C643 1.406 1_554 S
C642 C645 1.499 . S
C643 H617 0.960 . S
C643 C642 1.406 1_556 S
C643 C644 1.374 . S
C644 H618 0.949 . S
C644 C640 1.385 1_556 S
C644 C643 1.374 . S
C645 C642 1.499 . S
C645 C646 1.373 . S
C645 C647 1.389 1_554 S
C646 H619 0.950 . S
C646 C632 1.377 . S
C646 C645 1.373 . S
C647 C631 1.377 . S
C647 C645 1.389 1_556 S
C647 C648 1.524 . S
C648 C647 1.524 . S
C648 C649 1.397 . S
C648 C653 1.363 . S
C649 H620 0.950 . S
C649 C648 1.397 . S
C649 C650 1.334 . S
C650 H621 0.950 . S
C650 C649 1.334 . S
C650 C651 1.287 . S
C651 C650 1.287 . S
C651 C652 1.524 . S
C651 H654 0.999 . S
C652 H622 0.950 . S
C652 C651 1.524 . S
C652 C653 1.415 . S
C653 H623 0.950 . S
C653 C648 1.363 . S
C653 C652 1.415 . S
H654 C651 0.999 . S
H655 C636 0.913 . S
H656 C674 0.951 . S
H657 C676 0.951 . S
H658 C678 0.950 . S
H659 C679 0.950 . S
H660 C681 0.950 . S
H661 C684 0.950 . S
H662 C685 0.950 . S
H663 C687 0.950 . S
H664 C688 0.950 . S
H665 C689 0.951 . S
H666 C691 0.951 . S
H667 C693 0.950 . S
H668 C694 0.950 . S
H669 C696 0.950 . S
H670 C699 0.950 . S
H671 C700 0.950 . S
H672 C702 0.950 . S
H673 C703 0.950 . S
C674 H656 0.951 . S
C674 C675 1.366 . S
C674 C676 1.388 . S
C675 C674 1.366 . S
C675 C679 1.385 . S
C676 H657 0.951 . S
C676 C674 1.388 . S
C676 C677 1.366 . S
C677 C676 1.366 . S
C677 C678 1.414 . S
C677 C680 1.499 . S
C678 H658 0.950 . S
C678 C677 1.414 . S
C678 C679 1.374 . S
C679 H659 0.950 . S
C679 C675 1.385 . S
C679 C678 1.374 . S
C680 C677 1.499 . S
C680 C681 1.373 1_554 S
C680 C682 1.389 . S
C681 H660 0.950 . S
C681 C680 1.373 1_556 S
C681 C697 1.377 . S
C682 C680 1.389 . S
C682 C683 1.524 . S
C682 C696 1.377 . S
C683 C682 1.524 . S
C683 C684 1.397 . S
C683 C688 1.363 . S
C684 H661 0.950 . S
C684 C683 1.397 . S
C684 C685 1.334 . S
C685 H662 0.950 . S
C685 C684 1.334 . S
C685 C686 1.287 . S
C686 C685 1.287 . S
C686 C687 1.524 . S
C686 H705 0.913 . S
C687 H663 0.950 . S
C687 C686 1.524 . S
C687 C688 1.415 . S
C688 H664 0.950 . S
C688 C683 1.363 . S
C688 C687 1.415 . S
C689 H665 0.951 . S
C689 C690 1.366 . S
C689 C691 1.388 . S
C690 C689 1.366 . S
C690 C694 1.385 . S
C691 H666 0.951 . S
C691 C689 1.388 . S
C691 C692 1.366 . S
C692 C691 1.366 . S
C692 C693 1.414 . S
C692 C695 1.499 . S
C693 H667 0.950 . S
C693 C692 1.414 . S
C693 C694 1.374 . S
C694 H668 0.950 . S
C694 C690 1.385 . S
C694 C693 1.374 . S
C695 C692 1.499 . S
C695 C696 1.373 . S
C695 C697 1.389 1_554 S
C696 H669 0.950 . S
C696 C682 1.377 . S
C696 C695 1.373 . S
C697 C681 1.377 . S
C697 C695 1.389 1_556 S
C697 C698 1.524 . S
C698 C697 1.524 . S
C698 C699 1.397 . S
C698 C703 1.363 . S
C699 H670 0.950 . S
C699 C698 1.397 . S
C699 C700 1.334 . S
C700 H671 0.950 . S
C700 C699 1.334 . S
C700 C701 1.287 . S
C701 C700 1.287 . S
C701 C702 1.524 . S
C701 H704 0.999 . S
C702 H672 0.950 . S
C702 C701 1.524 . S
C702 C703 1.415 . S
C703 H673 0.950 . S
C703 C698 1.363 . S
C703 C702 1.415 . S
H704 C701 0.999 . S
H705 C686 0.913 . S
H706 C724 0.951 . S
H707 C726 0.951 . S
H708 C728 0.950 . S
H709 C729 0.950 . S
H710 C731 0.950 . S
H711 C734 0.950 . S
H712 C735 0.950 . S
H713 C737 0.950 . S
H714 C738 0.950 . S
H715 C739 0.951 . S
H716 C741 0.951 . S
H717 C743 0.954 . S
H718 C744 0.947 1_556 S
H719 C746 0.950 . S
H720 C749 0.950 . S
H721 C750 0.950 . S
H722 C752 0.950 . S
H723 C753 0.950 . S
C724 H706 0.951 . S
C724 C725 1.366 . S
C724 C726 1.388 . S
C725 C724 1.366 . S
C725 C729 1.385 . S
C726 H707 0.951 . S
C726 C724 1.388 . S
C726 C727 1.366 . S
C727 C726 1.366 . S
C727 C728 1.414 . S
C727 C730 1.499 . S
C728 H708 0.950 . S
C728 C727 1.414 . S
C728 C729 1.374 . S
C729 H709 0.950 . S
C729 C725 1.385 . S
C729 C728 1.374 . S
C730 C727 1.499 . S
C730 C731 1.373 1_554 S
C730 C732 1.389 . S
C731 H710 0.950 . S
C731 C730 1.373 1_556 S
C731 C747 1.377 . S
C732 C730 1.389 . S
C732 C733 1.524 . S
C732 C746 1.377 . S
C733 C732 1.524 . S
C733 C734 1.397 . S
C733 C738 1.363 . S
C734 H711 0.950 . S
C734 C733 1.397 . S
C734 C735 1.334 . S
C735 H712 0.950 . S
C735 C734 1.334 . S
C735 C736 1.287 . S
C736 C735 1.287 . S
C736 C737 1.524 . S
C736 H755 0.913 . S
C737 H713 0.950 . S
C737 C736 1.524 . S
C737 C738 1.415 . S
C738 H714 0.950 . S
C738 C733 1.363 . S
C738 C737 1.415 . S
C739 H715 0.951 . S
C739 C740 1.366 . S
C739 C741 1.388 . S
C740 C739 1.366 . S
C740 C744 1.385 . S
C741 H716 0.951 . S
C741 C739 1.388 . S
C741 C742 1.366 . S
C742 C741 1.366 . S
C742 C743 1.414 . S
C742 C745 1.499 . S
C743 H717 0.954 . S
C743 C742 1.414 . S
C743 C744 1.374 . S
C744 H718 0.947 1_554 S
C744 C740 1.385 . S
C744 C743 1.374 . S
C745 C742 1.499 . S
C745 C746 1.373 . S
C745 C747 1.389 1_554 S
C746 H719 0.950 . S
C746 C732 1.377 . S
C746 C745 1.373 . S
C747 C731 1.377 . S
C747 C745 1.389 1_556 S
C747 C748 1.524 . S
C748 C747 1.524 . S
C748 C749 1.397 . S
C748 C753 1.363 . S
C749 H720 0.950 . S
C749 C748 1.397 . S
C749 C750 1.334 . S
C750 H721 0.950 . S
C750 C749 1.334 . S
C750 C751 1.287 . S
C751 C750 1.287 . S
C751 C752 1.524 . S
C751 H754 0.999 . S
C752 H722 0.950 . S
C752 C751 1.524 . S
C752 C753 1.415 . S
C753 H723 0.950 . S
C753 C748 1.363 . S
C753 C752 1.415 . S
H754 C751 0.999 . S
H755 C736 0.913 . S
H756 C774 0.951 . S
H757 C776 0.951 . S
H758 C778 0.950 . S
H759 C779 0.950 . S
H760 C781 0.950 . S
H761 C784 0.950 . S
H762 C785 0.950 . S
H763 C787 0.950 . S
H764 C788 0.950 . S
H765 C789 0.951 . S
H766 C791 0.951 . S
H767 C793 0.950 . S
H768 C794 0.950 . S
H769 C796 0.950 . S
H770 C799 0.950 . S
H771 C800 0.950 . S
H772 C802 0.950 . S
H773 C803 0.950 . S
C774 H756 0.951 . S
C774 C775 1.366 . S
C774 C776 1.388 . S
C775 C774 1.366 . S
C775 C779 1.385 . S
C776 H757 0.951 . S
C776 C774 1.388 . S
C776 C777 1.366 . S
C777 C776 1.366 . S
C777 C778 1.414 . S
C777 C780 1.499 . S
C778 H758 0.950 . S
C778 C777 1.414 . S
C778 C779 1.374 . S
C779 H759 0.950 . S
C779 C775 1.385 . S
C779 C778 1.374 . S
C780 C777 1.499 . S
C780 C781 1.373 . S
C780 C782 1.389 . S
C781 H760 0.950 . S
C781 C780 1.373 . S
C781 C797 1.377 . S
C782 C780 1.389 . S
C782 C783 1.524 . S
C782 C796 1.377 . S
C783 C782 1.524 . S
C783 C784 1.397 . S
C783 C788 1.363 . S
C784 H761 0.950 . S
C784 C783 1.397 . S
C784 C785 1.334 . S
C785 H762 0.950 . S
C785 C784 1.334 . S
C785 C786 1.287 . S
C786 C785 1.287 . S
C786 C787 1.524 . S
C786 H805 0.913 . S
C787 H763 0.950 . S
C787 C786 1.524 . S
C787 C788 1.415 . S
C788 H764 0.950 . S
C788 C783 1.363 . S
C788 C787 1.415 . S
C789 H765 0.951 . S
C789 C790 1.366 . S
C789 C791 1.388 . S
C790 C789 1.366 . S
C790 C794 1.385 . S
C791 H766 0.951 . S
C791 C789 1.388 . S
C791 C792 1.366 . S
C792 C791 1.366 . S
C792 C793 1.414 . S
C792 C795 1.499 . S
C793 H767 0.950 . S
C793 C792 1.414 . S
C793 C794 1.374 . S
C794 H768 0.950 . S
C794 C790 1.385 . S
C794 C793 1.374 . S
C795 C792 1.499 . S
C795 C796 1.373 . S
C795 C797 1.389 . S
C796 H769 0.950 . S
C796 C782 1.377 . S
C796 C795 1.373 . S
C797 C781 1.377 . S
C797 C795 1.389 . S
C797 C798 1.524 . S
C798 C797 1.524 . S
C798 C799 1.397 . S
C798 C803 1.363 . S
C799 H770 0.950 . S
C799 C798 1.397 . S
C799 C800 1.334 . S
C800 H771 0.950 . S
C800 C799 1.334 . S
C800 C801 1.287 . S
C801 C800 1.287 . S
C801 C802 1.524 . S
C801 H804 0.999 . S
C802 H772 0.950 . S
C802 C801 1.524 . S
C802 C803 1.415 . S
C803 H773 0.950 . S
C803 C798 1.363 . S
C803 C802 1.415 . S
H804 C801 0.999 . S
H805 C786 0.913 . S
H806 C824 0.951 . S
H807 C826 0.951 . S
H808 C828 0.950 . S
H809 C829 0.950 . S
H810 C831 0.950 . S
H811 C834 0.950 . S
H812 C835 0.950 . S
H813 C837 0.950 . S
H814 C838 0.950 . S
H815 C839 0.951 . S
H816 C841 0.951 . S
H817 C843 0.950 . S
H818 C844 0.950 . S
H819 C846 0.950 . S
H820 C849 0.950 . S
H821 C850 0.950 . S
H822 C852 0.950 . S
H823 C853 0.950 . S
C824 H806 0.951 . S
C824 C825 1.366 . S
C824 C826 1.388 . S
C825 C824 1.366 . S
C825 C829 1.385 . S
C826 H807 0.951 . S
C826 C824 1.388 . S
C826 C827 1.366 . S
C827 C826 1.366 . S
C827 C828 1.414 . S
C827 C830 1.499 . S
C828 H808 0.950 . S
C828 C827 1.414 . S
C828 C829 1.374 . S
C829 H809 0.950 . S
C829 C825 1.385 . S
C829 C828 1.374 . S
C830 C827 1.499 . S
C830 C831 1.373 . S
C830 C832 1.389 . S
C831 H810 0.950 . S
C831 C830 1.373 . S
C831 C847 1.377 . S
C832 C830 1.389 . S
C832 C833 1.524 . S
C832 C846 1.377 . S
C833 C832 1.524 . S
C833 C834 1.397 . S
C833 C838 1.363 . S
C834 H811 0.950 . S
C834 C833 1.397 . S
C834 C835 1.334 . S
C835 H812 0.950 . S
C835 C834 1.334 . S
C835 C836 1.287 . S
C836 C835 1.287 . S
C836 C837 1.524 . S
C836 H855 0.913 . S
C837 H813 0.950 . S
C837 C836 1.524 . S
C837 C838 1.415 . S
C838 H814 0.950 . S
C838 C833 1.363 . S
C838 C837 1.415 . S
C839 H815 0.951 . S
C839 C840 1.366 . S
C839 C841 1.388 . S
C840 C839 1.366 . S
C840 C844 1.385 . S
C841 H816 0.951 . S
C841 C839 1.388 . S
C841 C842 1.366 . S
C842 C841 1.366 . S
C842 C843 1.414 . S
C842 C845 1.499 . S
C843 H817 0.950 . S
C843 C842 1.414 . S
C843 C844 1.374 . S
C844 H818 0.950 . S
C844 C840 1.385 . S
C844 C843 1.374 . S
C845 C842 1.499 . S
C845 C846 1.373 . S
C845 C847 1.389 . S
C846 H819 0.950 . S
C846 C832 1.377 . S
C846 C845 1.373 . S
C847 C831 1.377 . S
C847 C845 1.389 . S
C847 C848 1.524 . S
C848 C847 1.524 . S
C848 C849 1.397 . S
C848 C853 1.363 . S
C849 H820 0.950 . S
C849 C848 1.397 . S
C849 C850 1.334 . S
C850 H821 0.950 . S
C850 C849 1.334 . S
C850 C851 1.287 . S
C851 C850 1.287 . S
C851 C852 1.524 . S
C851 H854 0.999 . S
C852 H822 0.950 . S
C852 C851 1.524 . S
C852 C853 1.415 . S
C853 H823 0.950 . S
C853 C848 1.363 . S
C853 C852 1.415 . S
H854 C851 0.999 . S
H855 C836 0.913 . S
H856 C874 0.951 . S
H857 C876 0.951 . S
H858 C878 0.950 . S
H859 C879 0.950 . S
H860 C881 0.950 . S
H861 C884 0.950 . S
H862 C885 0.950 . S
H863 C887 0.950 . S
H864 C888 0.950 . S
H865 C889 0.951 . S
H866 C891 0.951 . S
H867 C893 0.950 . S
H868 C894 0.950 . S
H869 C896 0.950 . S
H870 C899 0.950 . S
H871 C900 0.950 . S
H872 C902 0.950 . S
H873 C903 0.950 . S
C874 H856 0.951 . S
C874 C875 1.366 . S
C874 C876 1.388 . S
C875 C874 1.366 . S
C875 C879 1.385 . S
C876 H857 0.951 . S
C876 C874 1.388 . S
C876 C877 1.366 . S
C877 C876 1.366 . S
C877 C878 1.414 . S
C877 C880 1.499 . S
C878 H858 0.950 . S
C878 C877 1.414 . S
C878 C879 1.374 . S
C879 H859 0.950 . S
C879 C875 1.385 . S
C879 C878 1.374 . S
C880 C877 1.499 . S
C880 C881 1.373 . S
C880 C882 1.389 . S
C881 H860 0.950 . S
C881 C880 1.373 . S
C881 C897 1.377 . S
C882 C880 1.389 . S
C882 C883 1.524 . S
C882 C896 1.377 . S
C883 C882 1.524 . S
C883 C884 1.397 . S
C883 C888 1.363 . S
C884 H861 0.950 . S
C884 C883 1.397 . S
C884 C885 1.334 . S
C885 H862 0.950 . S
C885 C884 1.334 . S
C885 C886 1.287 . S
C886 C885 1.287 . S
C886 C887 1.524 . S
C886 H905 0.913 . S
C887 H863 0.950 . S
C887 C886 1.524 . S
C887 C888 1.415 . S
C888 H864 0.950 . S
C888 C883 1.363 . S
C888 C887 1.415 . S
C889 H865 0.951 . S
C889 C890 1.366 . S
C889 C891 1.388 . S
C890 C889 1.366 . S
C890 C894 1.385 . S
C891 H866 0.951 . S
C891 C889 1.388 . S
C891 C892 1.366 . S
C892 C891 1.366 . S
C892 C893 1.414 . S
C892 C895 1.499 . S
C893 H867 0.950 . S
C893 C892 1.414 . S
C893 C894 1.374 . S
C894 H868 0.950 . S
C894 C890 1.385 . S
C894 C893 1.374 . S
C895 C892 1.499 . S
C895 C896 1.373 . S
C895 C897 1.389 . S
C896 H869 0.950 . S
C896 C882 1.377 . S
C896 C895 1.373 . S
C897 C881 1.377 . S
C897 C895 1.389 . S
C897 C898 1.524 . S
C898 C897 1.524 . S
C898 C899 1.397 . S
C898 C903 1.363 . S
C899 H870 0.950 . S
C899 C898 1.397 . S
C899 C900 1.334 . S
C900 H871 0.950 . S
C900 C899 1.334 . S
C900 C901 1.287 . S
C901 C900 1.287 . S
C901 C902 1.524 . S
C901 H904 0.999 . S
C902 H872 0.950 . S
C902 C901 1.524 . S
C902 C903 1.415 . S
C903 H873 0.950 . S
C903 C898 1.363 . S
C903 C902 1.415 . S
H904 C901 0.999 . S
H905 C886 0.913 . S
H906 C924 0.951 . S
H907 C926 0.951 . S
H908 C928 0.950 . S
H909 C929 0.950 . S
H910 C931 0.950 . S
H911 C934 0.950 . S
H912 C935 0.950 . S
H913 C937 0.950 . S
H914 C938 0.950 . S
H915 C939 0.951 . S
H916 C941 0.951 . S
H917 C943 0.950 . S
H918 C944 0.950 . S
H919 C946 0.950 . S
H920 C949 0.950 . S
H921 C950 0.950 . S
H922 C952 0.950 . S
H923 C953 0.950 . S
C924 H906 0.951 . S
C924 C925 1.366 . S
C924 C926 1.388 . S
C925 C924 1.366 . S
C925 C929 1.385 . S
C926 H907 0.951 . S
C926 C924 1.388 . S
C926 C927 1.366 . S
C927 C926 1.366 . S
C927 C928 1.414 . S
C927 C930 1.499 . S
C928 H908 0.950 . S
C928 C927 1.414 . S
C928 C929 1.374 . S
C929 H909 0.950 . S
C929 C925 1.385 . S
C929 C928 1.374 . S
C930 C927 1.499 . S
C930 C931 1.373 . S
C930 C932 1.389 . S
C931 H910 0.950 . S
C931 C930 1.373 . S
C931 C947 1.377 . S
C932 C930 1.389 . S
C932 C933 1.524 . S
C932 C946 1.377 . S
C933 C932 1.524 . S
C933 C934 1.397 . S
C933 C938 1.363 . S
C934 H911 0.950 . S
C934 C933 1.397 . S
C934 C935 1.334 . S
C935 H912 0.950 . S
C935 C934 1.334 . S
C935 C936 1.287 . S
C936 C935 1.287 . S
C936 C937 1.524 . S
C936 H955 0.913 . S
C937 H913 0.950 . S
C937 C936 1.524 . S
C937 C938 1.415 . S
C938 H914 0.950 . S
C938 C933 1.363 . S
C938 C937 1.415 . S
C939 H915 0.951 . S
C939 C940 1.366 . S
C939 C941 1.388 . S
C940 C939 1.366 . S
C940 C944 1.385 . S
C941 H916 0.951 . S
C941 C939 1.388 . S
C941 C942 1.366 . S
C942 C941 1.366 . S
C942 C943 1.414 . S
C942 C945 1.499 . S
C943 H917 0.950 . S
C943 C942 1.414 . S
C943 C944 1.374 . S
C944 H918 0.950 . S
C944 C940 1.385 . S
C944 C943 1.374 . S
C945 C942 1.499 . S
C945 C946 1.373 . S
C945 C947 1.389 . S
C946 H919 0.950 . S
C946 C932 1.377 . S
C946 C945 1.373 . S
C947 C931 1.377 . S
C947 C945 1.389 . S
C947 C948 1.524 . S
C948 C947 1.524 . S
C948 C949 1.397 . S
C948 C953 1.363 . S
C949 H920 0.950 . S
C949 C948 1.397 . S
C949 C950 1.334 . S
C950 H921 0.950 . S
C950 C949 1.334 . S
C950 C951 1.287 . S
C951 C950 1.287 . S
C951 C952 1.524 . S
C951 H954 0.999 . S
C952 H922 0.950 . S
C952 C951 1.524 . S
C952 C953 1.415 . S
C953 H923 0.950 . S
C953 C948 1.363 . S
C953 C952 1.415 . S
H954 C951 0.999 . S
H955 C936 0.913 . S
H956 C974 0.951 . S
H957 C976 0.951 . S
H958 C978 0.950 . S
H959 C979 0.950 . S
H960 C981 0.950 . S
H961 C984 0.950 . S
H962 C985 0.950 . S
H963 C987 0.950 . S
H964 C988 0.950 . S
H965 C989 0.951 . S
H966 C991 0.951 . S
H967 C993 0.950 . S
H968 C994 0.950 . S
H969 C996 0.950 . S
H970 C999 0.950 . S
H971 C1000 0.950 . S
H972 C1002 0.950 . S
H973 C1003 0.950 . S
C974 H956 0.951 . S
C974 C975 1.366 . S
C974 C976 1.388 . S
C975 C974 1.366 . S
C975 C979 1.385 . S
C976 H957 0.951 . S
C976 C974 1.388 . S
C976 C977 1.366 . S
C977 C976 1.366 . S
C977 C978 1.414 . S
C977 C980 1.499 . S
C978 H958 0.950 . S
C978 C977 1.414 . S
C978 C979 1.374 . S
C979 H959 0.950 . S
C979 C975 1.385 . S
C979 C978 1.374 . S
C980 C977 1.499 . S
C980 C981 1.373 . S
C980 C982 1.389 . S
C981 H960 0.950 . S
C981 C980 1.373 . S
C981 C997 1.377 . S
C982 C980 1.389 . S
C982 C983 1.524 . S
C982 C996 1.377 . S
C983 C982 1.524 . S
C983 C984 1.397 . S
C983 C988 1.363 . S
C984 H961 0.950 . S
C984 C983 1.397 . S
C984 C985 1.334 . S
C985 H962 0.950 . S
C985 C984 1.334 . S
C985 C986 1.287 . S
C986 C985 1.287 . S
C986 C987 1.524 . S
C986 H1005 0.913 . S
C987 H963 0.950 . S
C987 C986 1.524 . S
C987 C988 1.415 . S
C988 H964 0.950 . S
C988 C983 1.363 . S
C988 C987 1.415 . S
C989 H965 0.951 . S
C989 C990 1.366 . S
C989 C991 1.388 . S
C990 C989 1.366 . S
C990 C994 1.385 . S
C991 H966 0.951 . S
C991 C989 1.388 . S
C991 C992 1.366 . S
C992 C991 1.366 . S
C992 C993 1.414 . S
C992 C995 1.499 . S
C993 H967 0.950 . S
C993 C992 1.414 . S
C993 C994 1.374 . S
C994 H968 0.950 . S
C994 C990 1.385 . S
C994 C993 1.374 . S
C995 C992 1.499 . S
C995 C996 1.373 . S
C995 C997 1.389 . S
C996 H969 0.950 . S
C996 C982 1.377 . S
C996 C995 1.373 . S
C997 C981 1.377 . S
C997 C995 1.389 . S
C997 C998 1.524 . S
C998 C997 1.524 . S
C998 C999 1.397 . S
C998 C1003 1.363 . S
C999 H970 0.950 . S
C999 C998 1.397 . S
C999 C1000 1.334 . S
C1000 H971 0.950 . S
C1000 C999 1.334 . S
C1000 C1001 1.287 . S
C1001 C1000 1.287 . S
C1001 C1002 1.524 . S
C1001 H1004 0.999 . S
C1002 H972 0.950 . S
C1002 C1001 1.524 . S
C1002 C1003 1.415 . S
C1003 H973 0.950 . S
C1003 C998 1.363 . S
C1003 C1002 1.415 . S
H1004 C1001 0.999 . S
H1005 C986 0.913 . S
H1006 C1024 0.951 . S
H1007 C1026 0.951 . S
H1008 C1028 0.950 . S
H1009 C1029 0.950 . S
H1010 C1031 0.950 . S
H1011 C1034 0.950 . S
H1012 C1035 0.950 . S
H1013 C1037 0.950 . S
H1014 C1038 0.950 . S
H1015 C1039 0.951 . S
H1016 C1041 0.951 . S
H1017 C1043 0.950 . S
H1018 C1044 0.950 . S
H1019 C1046 0.950 . S
H1020 C1049 0.950 . S
H1021 C1050 0.950 . S
H1022 C1052 0.950 . S
H1023 C1053 0.950 . S
C1024 H1006 0.951 . S
C1024 C1025 1.366 . S
C1024 C1026 1.388 . S
C1025 C1024 1.366 . S
C1025 C1029 1.385 . S
C1026 H1007 0.951 . S
C1026 C1024 1.388 . S
C1026 C1027 1.366 . S
C1027 C1026 1.366 . S
C1027 C1028 1.414 . S
C1027 C1030 1.499 . S
C1028 H1008 0.950 . S
C1028 C1027 1.414 . S
C1028 C1029 1.374 . S
C1029 H1009 0.950 . S
C1029 C1025 1.385 . S
C1029 C1028 1.374 . S
C1030 C1027 1.499 . S
C1030 C1031 1.373 . S
C1030 C1032 1.389 . S
C1031 H1010 0.950 . S
C1031 C1030 1.373 . S
C1031 C1047 1.377 . S
C1032 C1030 1.389 . S
C1032 C1033 1.524 . S
C1032 C1046 1.377 . S
C1033 C1032 1.524 . S
C1033 C1034 1.397 . S
C1033 C1038 1.363 . S
C1034 H1011 0.950 . S
C1034 C1033 1.397 . S
C1034 C1035 1.334 . S
C1035 H1012 0.950 . S
C1035 C1034 1.334 . S
C1035 C1036 1.287 . S
C1036 C1035 1.287 . S
C1036 C1037 1.524 . S
C1036 H1055 0.913 . S
C1037 H1013 0.950 . S
C1037 C1036 1.524 . S
C1037 C1038 1.415 . S
C1038 H1014 0.950 . S
C1038 C1033 1.363 . S
C1038 C1037 1.415 . S
C1039 H1015 0.951 . S
C1039 C1040 1.366 . S
C1039 C1041 1.388 . S
C1040 C1039 1.366 . S
C1040 C1044 1.385 . S
C1041 H1016 0.951 . S
C1041 C1039 1.388 . S
C1041 C1042 1.366 . S
C1042 C1041 1.366 . S
C1042 C1043 1.414 . S
C1042 C1045 1.499 . S
C1043 H1017 0.950 . S
C1043 C1042 1.414 . S
C1043 C1044 1.374 . S
C1044 H1018 0.950 . S
C1044 C1040 1.385 . S
C1044 C1043 1.374 . S
C1045 C1042 1.499 . S
C1045 C1046 1.373 . S
C1045 C1047 1.389 . S
C1046 H1019 0.950 . S
C1046 C1032 1.377 . S
C1046 C1045 1.373 . S
C1047 C1031 1.377 . S
C1047 C1045 1.389 . S
C1047 C1048 1.524 . S
C1048 C1047 1.524 . S
C1048 C1049 1.397 . S
C1048 C1053 1.363 . S
C1049 H1020 0.950 . S
C1049 C1048 1.397 . S
C1049 C1050 1.334 . S
C1050 H1021 0.950 . S
C1050 C1049 1.334 . S
C1050 C1051 1.287 . S
C1051 C1050 1.287 . S
C1051 C1052 1.524 . S
C1051 H1054 0.999 . S
C1052 H1022 0.950 . S
C1052 C1051 1.524 . S
C1052 C1053 1.415 . S
C1053 H1023 0.950 . S
C1053 C1048 1.363 . S
C1053 C1052 1.415 . S
H1054 C1051 0.999 . S
H1055 C1036 0.913 . S
H1056 C1074 0.951 . S
H1057 C1076 0.951 . S
H1058 C1078 0.950 . S
H1059 C1079 0.950 . S
H1060 C1081 0.950 . S
H1061 C1084 0.950 . S
H1062 C1085 0.950 . S
H1063 C1087 0.950 . S
H1064 C1088 0.950 . S
H1065 C1089 0.951 . S
H1066 C1091 0.951 . S
H1067 C1093 0.950 . S
H1068 C1094 0.950 . S
H1069 C1096 0.950 . S
H1070 C1099 0.950 . S
H1071 C1100 0.950 . S
H1072 C1102 0.950 . S
H1073 C1103 0.950 . S
C1074 H1056 0.951 . S
C1074 C1075 1.366 . S
C1074 C1076 1.388 . S
C1075 C1074 1.366 . S
C1075 C1079 1.385 . S
C1076 H1057 0.951 . S
C1076 C1074 1.388 . S
C1076 C1077 1.366 . S
C1077 C1076 1.366 . S
C1077 C1078 1.414 . S
C1077 C1080 1.499 . S
C1078 H1058 0.950 . S
C1078 C1077 1.414 . S
C1078 C1079 1.374 . S
C1079 H1059 0.950 . S
C1079 C1075 1.385 . S
C1079 C1078 1.374 . S
C1080 C1077 1.499 . S
C1080 C1081 1.373 . S
C1080 C1082 1.389 . S
C1081 H1060 0.950 . S
C1081 C1080 1.373 . S
C1081 C1097 1.377 . S
C1082 C1080 1.389 . S
C1082 C1083 1.524 . S
C1082 C1096 1.377 . S
C1083 C1082 1.524 . S
C1083 C1084 1.397 . S
C1083 C1088 1.363 . S
C1084 H1061 0.950 . S
C1084 C1083 1.397 . S
C1084 C1085 1.334 . S
C1085 H1062 0.950 . S
C1085 C1084 1.334 . S
C1085 C1086 1.287 . S
C1086 C1085 1.287 . S
C1086 C1087 1.524 . S
C1086 H1105 0.913 . S
C1087 H1063 0.950 . S
C1087 C1086 1.524 . S
C1087 C1088 1.415 . S
C1088 H1064 0.950 . S
C1088 C1083 1.363 . S
C1088 C1087 1.415 . S
C1089 H1065 0.951 . S
C1089 C1090 1.366 . S
C1089 C1091 1.388 . S
C1090 C1089 1.366 . S
C1090 C1094 1.385 . S
C1091 H1066 0.951 . S
C1091 C1089 1.388 . S
C1091 C1092 1.366 . S
C1092 C1091 1.366 . S
C1092 C1093 1.414 . S
C1092 C1095 1.499 . S
C1093 H1067 0.950 . S
C1093 C1092 1.414 . S
C1093 C1094 1.374 . S
C1094 H1068 0.950 . S
C1094 C1090 1.385 . S
C1094 C1093 1.374 . S
C1095 C1092 1.499 . S
C1095 C1096 1.373 . S
C1095 C1097 1.389 . S
C1096 H1069 0.950 . S
C1096 C1082 1.377 . S
C1096 C1095 1.373 . S
C1097 C1081 1.377 . S
C1097 C1095 1.389 . S
C1097 C1098 1.524 . S
C1098 C1097 1.524 . S
C1098 C1099 1.397 . S
C1098 C1103 1.363 . S
C1099 H1070 0.950 . S
C1099 C1098 1.397 . S
C1099 C1100 1.334 . S
C1100 H1071 0.950 . S
C1100 C1099 1.334 . S
C1100 C1101 1.287 . S
C1101 C1100 1.287 . S
C1101 C1102 1.524 . S
C1101 H1104 0.999 . S
C1102 H1072 0.950 . S
C1102 C1101 1.524 . S
C1102 C1103 1.415 . S
C1103 H1073 0.950 . S
C1103 C1098 1.363 . S
C1103 C1102 1.415 . S
H1104 C1101 0.999 . S
H1105 C1086 0.913 . S
H1106 C1124 0.951 . S
H1107 C1126 0.951 . S
H1108 C1128 0.950 . S
H1109 C1129 0.950 . S
H1110 C1131 0.950 . S
H1111 C1134 0.950 . S
H1112 C1135 0.950 . S
H1113 C1137 0.950 . S
H1114 C1138 0.950 . S
H1115 C1139 0.951 . S
H1116 C1141 0.951 . S
H1117 C1143 0.950 . S
H1118 C1144 0.950 . S
H1119 C1146 0.950 . S
H1120 C1149 0.950 . S
H1121 C1150 0.950 . S
H1122 C1152 0.950 . S
H1123 C1153 0.950 . S
C1124 H1106 0.951 . S
C1124 C1125 1.366 . S
C1124 C1126 1.388 . S
C1125 C1124 1.366 . S
C1125 C1129 1.385 . S
C1126 H1107 0.951 . S
C1126 C1124 1.388 . S
C1126 C1127 1.366 . S
C1127 C1126 1.366 . S
C1127 C1128 1.414 . S
C1127 C1130 1.499 . S
C1128 H1108 0.950 . S
C1128 C1127 1.414 . S
C1128 C1129 1.374 . S
C1129 H1109 0.950 . S
C1129 C1125 1.385 . S
C1129 C1128 1.374 . S
C1130 C1127 1.499 . S
C1130 C1131 1.373 . S
C1130 C1132 1.389 . S
C1131 H1110 0.950 . S
C1131 C1130 1.373 . S
C1131 C1147 1.377 . S
C1132 C1130 1.389 . S
C1132 C1133 1.524 . S
C1132 C1146 1.377 . S
C1133 C1132 1.524 . S
C1133 C1134 1.397 . S
C1133 C1138 1.363 . S
C1134 H1111 0.950 . S
C1134 C1133 1.397 . S
C1134 C1135 1.334 . S
C1135 H1112 0.950 . S
C1135 C1134 1.334 . S
C1135 C1136 1.287 . S
C1136 C1135 1.287 . S
C1136 C1137 1.524 . S
C1136 H1155 0.913 . S
C1137 H1113 0.950 . S
C1137 C1136 1.524 . S
C1137 C1138 1.415 . S
C1138 H1114 0.950 . S
C1138 C1133 1.363 . S
C1138 C1137 1.415 . S
C1139 H1115 0.951 . S
C1139 C1140 1.366 . S
C1139 C1141 1.388 . S
C1140 C1139 1.366 . S
C1140 C1144 1.385 . S
C1141 H1116 0.951 . S
C1141 C1139 1.388 . S
C1141 C1142 1.366 . S
C1142 C1141 1.366 . S
C1142 C1143 1.414 . S
C1142 C1145 1.499 . S
C1143 H1117 0.950 . S
C1143 C1142 1.414 . S
C1143 C1144 1.374 . S
C1144 H1118 0.950 . S
C1144 C1140 1.385 . S
C1144 C1143 1.374 . S
C1145 C1142 1.499 . S
C1145 C1146 1.373 . S
C1145 C1147 1.389 . S
C1146 H1119 0.950 . S
C1146 C1132 1.377 . S
C1146 C1145 1.373 . S
C1147 C1131 1.377 . S
C1147 C1145 1.389 . S
C1147 C1148 1.524 . S
C1148 C1147 1.524 . S
C1148 C1149 1.397 . S
C1148 C1153 1.363 . S
C1149 H1120 0.950 . S
C1149 C1148 1.397 . S
C1149 C1150 1.334 . S
C1150 H1121 0.950 . S
C1150 C1149 1.334 . S
C1150 C1151 1.287 . S
C1151 C1150 1.287 . S
C1151 C1152 1.524 . S
C1151 H1154 0.999 . S
C1152 H1122 0.950 . S
C1152 C1151 1.524 . S
C1152 C1153 1.415 . S
C1153 H1123 0.950 . S
C1153 C1148 1.363 . S
C1153 C1152 1.415 . S
H1154 C1151 0.999 . S
H1155 C1136 0.913 . S
H1156 C1174 0.951 . S
H1157 C1176 0.951 . S
H1158 C1178 0.950 . S
H1159 C1179 0.950 . S
H1160 C1181 0.950 . S
H1161 C1184 0.950 . S
H1162 C1185 0.950 . S
H1163 C1187 0.950 . S
H1164 C1188 0.950 . S
H1165 C1189 0.951 . S
H1166 C1191 0.951 . S
H1167 C1193 0.950 . S
H1168 C1194 0.950 . S
H1169 C1196 0.950 . S
H1170 C1199 0.950 . S
H1171 C1200 0.950 . S
H1172 C1202 0.950 . S
H1173 C1203 0.950 . S
C1174 H1156 0.951 . S
C1174 C1175 1.366 . S
C1174 C1176 1.388 . S
C1175 C1174 1.366 . S
C1175 C1179 1.385 . S
C1176 H1157 0.951 . S
C1176 C1174 1.388 . S
C1176 C1177 1.366 . S
C1177 C1176 1.366 . S
C1177 C1178 1.414 . S
C1177 C1180 1.499 . S
C1178 H1158 0.950 . S
C1178 C1177 1.414 . S
C1178 C1179 1.374 . S
C1179 H1159 0.950 . S
C1179 C1175 1.385 . S
C1179 C1178 1.374 . S
C1180 C1177 1.499 . S
C1180 C1181 1.373 . S
C1180 C1182 1.389 . S
C1181 H1160 0.950 . S
C1181 C1180 1.373 . S
C1181 C1197 1.377 . S
C1182 C1180 1.389 . S
C1182 C1183 1.524 . S
C1182 C1196 1.377 . S
C1183 C1182 1.524 . S
C1183 C1184 1.397 . S
C1183 C1188 1.363 . S
C1184 H1161 0.950 . S
C1184 C1183 1.397 . S
C1184 C1185 1.334 . S
C1185 H1162 0.950 . S
C1185 C1184 1.334 . S
C1185 C1186 1.287 . S
C1186 C1185 1.287 . S
C1186 C1187 1.524 . S
C1186 H1205 0.913 . S
C1187 H1163 0.950 . S
C1187 C1186 1.524 . S
C1187 C1188 1.415 . S
C1188 H1164 0.950 . S
C1188 C1183 1.363 . S
C1188 C1187 1.415 . S
C1189 H1165 0.951 . S
C1189 C1190 1.366 . S
C1189 C1191 1.388 . S
C1190 C1189 1.366 . S
C1190 C1194 1.385 . S
C1191 H1166 0.951 . S
C1191 C1189 1.388 . S
C1191 C1192 1.366 . S
C1192 C1191 1.366 . S
C1192 C1193 1.414 . S
C1192 C1195 1.499 . S
C1193 H1167 0.950 . S
C1193 C1192 1.414 . S
C1193 C1194 1.374 . S
C1194 H1168 0.950 . S
C1194 C1190 1.385 . S
C1194 C1193 1.374 . S
C1195 C1192 1.499 . S
C1195 C1196 1.373 . S
C1195 C1197 1.389 . S
C1196 H1169 0.950 . S
C1196 C1182 1.377 . S
C1196 C1195 1.373 . S
C1197 C1181 1.377 . S
C1197 C1195 1.389 . S
C1197 C1198 1.524 . S
C1198 C1197 1.524 . S
C1198 C1199 1.397 . S
C1198 C1203 1.363 . S
C1199 H1170 0.950 . S
C1199 C1198 1.397 . S
C1199 C1200 1.334 . S
C1200 H1171 0.950 . S
C1200 C1199 1.334 . S
C1200 C1201 1.287 . S
C1201 C1200 1.287 . S
C1201 C1202 1.524 . S
C1201 H1204 0.999 . S
C1202 H1172 0.950 . S
C1202 C1201 1.524 . S
C1202 C1203 1.415 . S
C1203 H1173 0.950 . S
C1203 C1198 1.363 . S
C1203 C1202 1.415 . S
H1204 C1201 0.999 . S
H1205 C1186 0.913 . S
H1206 C1224 0.951 . S
H1207 C1226 0.951 . S
H1208 C1228 0.950 . S
H1209 C1229 0.950 . S
H1210 C1231 0.950 . S
H1211 C1234 0.950 . S
H1212 C1235 0.950 . S
H1213 C1237 0.950 . S
H1214 C1238 0.950 . S
H1215 C1239 0.951 . S
H1216 C1241 0.951 . S
H1217 C1243 0.950 . S
H1218 C1244 0.950 . S
H1219 C1246 0.950 . S
H1220 C1249 0.950 . S
H1221 C1250 0.950 . S
H1222 C1252 0.950 . S
H1223 C1253 0.950 . S
C1224 H1206 0.951 . S
C1224 C1225 1.366 . S
C1224 C1226 1.388 . S
C1225 C1224 1.366 . S
C1225 C1229 1.385 . S
C1226 H1207 0.951 . S
C1226 C1224 1.388 . S
C1226 C1227 1.366 . S
C1227 C1226 1.366 . S
C1227 C1228 1.414 . S
C1227 C1230 1.499 . S
C1228 H1208 0.950 . S
C1228 C1227 1.414 . S
C1228 C1229 1.374 . S
C1229 H1209 0.950 . S
C1229 C1225 1.385 . S
C1229 C1228 1.374 . S
C1230 C1227 1.499 . S
C1230 C1231 1.373 . S
C1230 C1232 1.389 . S
C1231 H1210 0.950 . S
C1231 C1230 1.373 . S
C1231 C1247 1.377 . S
C1232 C1230 1.389 . S
C1232 C1233 1.524 . S
C1232 C1246 1.377 . S
C1233 C1232 1.524 . S
C1233 C1234 1.397 . S
C1233 C1238 1.363 . S
C1234 H1211 0.950 . S
C1234 C1233 1.397 . S
C1234 C1235 1.334 . S
C1235 H1212 0.950 . S
C1235 C1234 1.334 . S
C1235 C1236 1.287 . S
C1236 C1235 1.287 . S
C1236 C1237 1.524 . S
C1236 H1255 0.913 . S
C1237 H1213 0.950 . S
C1237 C1236 1.524 . S
C1237 C1238 1.415 . S
C1238 H1214 0.950 . S
C1238 C1233 1.363 . S
C1238 C1237 1.415 . S
C1239 H1215 0.951 . S
C1239 C1240 1.366 . S
C1239 C1241 1.388 . S
C1240 C1239 1.366 . S
C1240 C1244 1.385 . S
C1241 H1216 0.951 . S
C1241 C1239 1.388 . S
C1241 C1242 1.366 . S
C1242 C1241 1.366 . S
C1242 C1243 1.414 . S
C1242 C1245 1.499 . S
C1243 H1217 0.950 . S
C1243 C1242 1.414 . S
C1243 C1244 1.374 . S
C1244 H1218 0.950 . S
C1244 C1240 1.385 . S
C1244 C1243 1.374 . S
C1245 C1242 1.499 . S
C1245 C1246 1.373 . S
C1245 C1247 1.389 . S
C1246 H1219 0.950 . S
C1246 C1232 1.377 . S
C1246 C1245 1.373 . S
C1247 C1231 1.377 . S
C1247 C1245 1.389 . S
C1247 C1248 1.524 . S
C1248 C1247 1.524 . S
C1248 C1249 1.397 . S
C1248 C1253 1.363 . S
C1249 H1220 0.950 . S
C1249 C1248 1.397 . S
C1249 C1250 1.334 . S
C1250 H1221 0.950 . S
C1250 C1249 1.334 . S
C1250 C1251 1.287 . S
C1251 C1250 1.287 . S
C1251 C1252 1.524 . S
C1251 H1254 0.999 . S
C1252 H1222 0.950 . S
C1252 C1251 1.524 . S
C1252 C1253 1.415 . S
C1253 H1223 0.950 . S
C1253 C1248 1.363 . S
C1253 C1252 1.415 . S
H1254 C1251 0.999 . S
H1255 C1236 0.913 . S
H1256 C1274 0.951 . S
H1257 C1276 0.951 . S
H1258 C1278 0.950 . S
H1259 C1279 0.950 . S
H1260 C1281 0.950 . S
H1261 C1284 0.950 . S
H1262 C1285 0.950 . S
H1263 C1287 0.950 . S
H1264 C1288 0.950 . S
H1265 C1289 0.951 . S
H1266 C1291 0.951 . S
H1267 C1293 0.950 . S
H1268 C1294 0.950 . S
H1269 C1296 0.950 . S
H1270 C1299 0.950 . S
H1271 C1300 0.950 . S
H1272 C1302 0.950 . S
H1273 C1303 0.950 . S
C1274 H1256 0.951 . S
C1274 C1275 1.366 . S
C1274 C1276 1.388 . S
C1275 C1274 1.366 . S
C1275 C1279 1.385 . S
C1276 H1257 0.951 . S
C1276 C1274 1.388 . S
C1276 C1277 1.366 . S
C1277 C1276 1.366 . S
C1277 C1278 1.414 . S
C1277 C1280 1.499 . S
C1278 H1258 0.950 . S
C1278 C1277 1.414 . S
C1278 C1279 1.374 . S
C1279 H1259 0.950 . S
C1279 C1275 1.385 . S
C1279 C1278 1.374 . S
C1280 C1277 1.499 . S
C1280 C1281 1.373 . S
C1280 C1282 1.389 . S
C1281 H1260 0.950 . S
C1281 C1280 1.373 . S
C1281 C1297 1.377 . S
C1282 C1280 1.389 . S
C1282 C1283 1.524 . S
C1282 C1296 1.377 . S
C1283 C1282 1.524 . S
C1283 C1284 1.397 . S
C1283 C1288 1.363 . S
C1284 H1261 0.950 . S
C1284 C1283 1.397 . S
C1284 C1285 1.334 . S
C1285 H1262 0.950 . S
C1285 C1284 1.334 . S
C1285 C1286 1.287 . S
C1286 C1285 1.287 . S
C1286 C1287 1.524 . S
C1286 H1305 0.913 . S
C1287 H1263 0.950 . S
C1287 C1286 1.524 . S
C1287 C1288 1.415 . S
C1288 H1264 0.950 . S
C1288 C1283 1.363 . S
C1288 C1287 1.415 . S
C1289 H1265 0.951 . S
C1289 C1290 1.366 . S
C1289 C1291 1.388 . S
C1290 C1289 1.366 . S
C1290 C1294 1.385 . S
C1291 H1266 0.951 . S
C1291 C1289 1.388 . S
C1291 C1292 1.366 . S
C1292 C1291 1.366 . S
C1292 C1293 1.414 . S
C1292 C1295 1.499 . S
C1293 H1267 0.950 . S
C1293 C1292 1.414 . S
C1293 C1294 1.374 . S
C1294 H1268 0.950 . S
C1294 C1290 1.385 . S
C1294 C1293 1.374 . S
C1295 C1292 1.499 . S
C1295 C1296 1.373 . S
C1295 C1297 1.389 . S
C1296 H1269 0.950 . S
C1296 C1282 1.377 . S
C1296 C1295 1.373 . S
C1297 C1281 1.377 . S
C1297 C1295 1.389 . S
C1297 C1298 1.524 . S
C1298 C1297 1.524 . S
C1298 C1299 1.397 . S
C1298 C1303 1.363 . S
C1299 H1270 0.950 . S
C1299 C1298 1.397 . S
C1299 C1300 1.334 . S
C1300 H1271 0.950 . S
C1300 C1299 1.334 . S
C1300 C1301 1.287 . S
C1301 C1300 1.287 . S
C1301 C1302 1.524 . S
C1301 H1304 0.999 . S
C1302 H1272 0.950 . S
C1302 C1301 1.524 . S
C1302 C1303 1.415 . S
C1303 H1273 0.950 . S
C1303 C1298 1.363 . S
C1303 C1302 1.415 . S
H1304 C1301 0.999 . S
H1305 C1286 0.913 . S
H1306 C1324 0.951 . S
H1307 C1326 0.951 . S
H1308 C1328 0.950 . S
H1309 C1329 0.950 . S
H1310 C1331 0.950 . S
H1311 C1334 0.950 . S
H1312 C1335 0.950 . S
H1313 C1337 0.950 . S
H1314 C1338 0.950 . S
H1315 C1339 0.951 . S
H1316 C1341 0.951 . S
H1317 C1343 0.950 . S
H1318 C1344 0.950 . S
H1319 C1346 0.950 . S
H1320 C1349 0.950 . S
H1321 C1350 0.950 . S
H1322 C1352 0.950 . S
H1323 C1353 0.950 . S
C1324 H1306 0.951 . S
C1324 C1325 1.366 . S
C1324 C1326 1.388 . S
C1325 C1324 1.366 . S
C1325 C1329 1.385 . S
C1326 H1307 0.951 . S
C1326 C1324 1.388 . S
C1326 C1327 1.366 . S
C1327 C1326 1.366 . S
C1327 C1328 1.414 . S
C1327 C1330 1.499 . S
C1328 H1308 0.950 . S
C1328 C1327 1.414 . S
C1328 C1329 1.374 . S
C1329 H1309 0.950 . S
C1329 C1325 1.385 . S
C1329 C1328 1.374 . S
C1330 C1327 1.499 . S
C1330 C1331 1.373 . S
C1330 C1332 1.389 . S
C1331 H1310 0.950 . S
C1331 C1330 1.373 . S
C1331 C1347 1.377 . S
C1332 C1330 1.389 . S
C1332 C1333 1.524 . S
C1332 C1346 1.377 . S
C1333 C1332 1.524 . S
C1333 C1334 1.397 . S
C1333 C1338 1.363 . S
C1334 H1311 0.950 . S
C1334 C1333 1.397 . S
C1334 C1335 1.334 . S
C1335 H1312 0.950 . S
C1335 C1334 1.334 . S
C1335 C1336 1.287 . S
C1336 C1335 1.287 . S
C1336 C1337 1.524 . S
C1336 H1355 0.913 . S
C1337 H1313 0.950 . S
C1337 C1336 1.524 . S
C1337 C1338 1.415 . S
C1338 H1314 0.950 . S
C1338 C1333 1.363 . S
C1338 C1337 1.415 . S
C1339 H1315 0.951 . S
C1339 C1340 1.366 . S
C1339 C1341 1.388 . S
C1340 C1339 1.366 . S
C1340 C1344 1.385 . S
C1341 H1316 0.951 . S
C1341 C1339 1.388 . S
C1341 C1342 1.366 . S
C1342 C1341 1.366 . S
C1342 C1343 1.414 . S
C1342 C1345 1.499 . S
C1343 H1317 0.950 . S
C1343 C1342 1.414 . S
C1343 C1344 1.374 . S
C1344 H1318 0.950 . S
C1344 C1340 1.385 . S
C1344 C1343 1.374 . S
C1345 C1342 1.499 . S
C1345 C1346 1.373 . S
C1345 C1347 1.389 . S
C1346 H1319 0.950 . S
C1346 C1332 1.377 . S
C1346 C1345 1.373 . S
C1347 C1331 1.377 . S
C1347 C1345 1.389 . S
C1347 C1348 1.524 . S
C1348 C1347 1.524 . S
C1348 C1349 1.397 . S
C1348 C1353 1.363 . S
C1349 H1320 0.950 . S
C1349 C1348 1.397 . S
C1349 C1350 1.334 . S
C1350 H1321 0.950 . S
C1350 C1349 1.334 . S
C1350 C1351 1.287 . S
C1351 C1350 1.287 . S
C1351 C1352 1.524 . S
C1351 H1354 0.999 . S
C1352 H1322 0.950 . S
C1352 C1351 1.524 . S
C1352 C1353 1.415 . S
C1353 H1323 0.950 . S
C1353 C1348 1.363 . S
C1353 C1352 1.415 . S
H1354 C1351 0.999 . S
H1355 C1336 0.913 . S
C175 C10 1.393 . S
C190 C70 1.369 . S
C225 C18 1.132 . S
C240 C60 1.149 . S
C275 C75 1.330 . S
C290 C36 1.332 . S
C325 C44 1.225 . S
C340 C52 1.240 . S
C375 C91 1.187 . S
C390 C31 1.172 . S
C425 C86 1.333 . S
C440 C49 1.332 . S
C475 C5 1.149 . S
C490 C99 1.164 . S
C525 C78 1.351 . S
C540 C23 1.354 . S
C575 C117 1.326 1_554 S
C590 C104 1.329 . S
C625 C112 1.185 . S
C640 C151 1.185 . S
C675 C125 1.251 . S
C690 C138 1.250 . S
C725 C130 1.367 . S
C740 C143 1.365 . S
C775 C153 1.339 . S
C790 C83 1.318 . S
C825 C109 1.139 . S
C840 C96 1.143 . S
C875 C88 1.364 . S
C890 C127 1.366 . S
C925 C101 1.299 . S
C940 C135 1.279 . S
C975 C62 1.244 . S
C990 C122 1.226 . S
C1025 C73 1.366 . S
C1040 C140 1.367 . S
C1075 C148 1.155 . S
C1090 C57 1.156 . S
C1125 C114 1.300 . S
C1140 C65 1.299 . S
C1175 C13 1.306 . S
C1190 C26 1.310 . S
C1225 C8 1.173 . S
C1240 C21 1.173 . S
C1275 C34 1.215 . S
C1290 C47 1.214 . S
C1325 C0 1.342 . S
C1340 C39 1.346 . S
