# Generated by pormake.
# Topology und, (4)-cn, num edge types: 1
# Building blocks:
#     Node 0, Type 0, BuildingBlock: GALJAG_clean_sbu_0, # of connection points: 4
#     Node 1, Type 0, BuildingBlock: GALJAG_clean_sbu_0, # of connection points: 4
#     Node 2, Type 0, BuildingBlock: GALJAG_clean_sbu_0, # of connection points: 4
#     Node 3, Type 0, BuildingBlock: GALJAG_clean_sbu_0, # of connection points: 4
#     Node 4, Type 0, BuildingBlock: GALJAG_clean_sbu_0, # of connection points: 4
#     Node 5, Type 0, BuildingBlock: GALJAG_clean_sbu_0, # of connection points: 4
#     Node 6, Type 0, BuildingBlock: GALJAG_clean_sbu_0, # of connection points: 4
#     Node 7, Type 0, BuildingBlock: GALJAG_clean_sbu_0, # of connection points: 4
#     Node 8, Type 0, BuildingBlock: GALJAG_clean_sbu_0, # of connection points: 4
#     Node 9, Type 0, BuildingBlock: GALJAG_clean_sbu_0, # of connection points: 4
#     Node 10, Type 0, BuildingBlock: GALJAG_clean_sbu_0, # of connection points: 4
#     Node 11, Type 0, BuildingBlock: GALJAG_clean_sbu_0, # of connection points: 4
#     Node 12, Type 0, BuildingBlock: GALJAG_clean_sbu_0, # of connection points: 4
#     Node 13, Type 0, BuildingBlock: GALJAG_clean_sbu_0, # of connection points: 4
#     Node 14, Type 0, BuildingBlock: GALJAG_clean_sbu_0, # of connection points: 4
#     Node 15, Type 0, BuildingBlock: GALJAG_clean_sbu_0, # of connection points: 4
#     Edge 16, Type (0, 0), BuildingBlock: KIFKEQ_clean_linker_1, # of connection points: 2
#     Edge 17, Type (0, 0), BuildingBlock: KIFKEQ_clean_linker_1, # of connection points: 2
#     Edge 18, Type (0, 0), BuildingBlock: KIFKEQ_clean_linker_1, # of connection points: 2
#     Edge 19, Type (0, 0), BuildingBlock: KIFKEQ_clean_linker_1, # of connection points: 2
#     Edge 20, Type (0, 0), BuildingBlock: KIFKEQ_clean_linker_1, # of connection points: 2
#     Edge 21, Type (0, 0), BuildingBlock: KIFKEQ_clean_linker_1, # of connection points: 2
#     Edge 22, Type (0, 0), BuildingBlock: KIFKEQ_clean_linker_1, # of connection points: 2
#     Edge 23, Type (0, 0), BuildingBlock: KIFKEQ_clean_linker_1, # of connection points: 2
#     Edge 24, Type (0, 0), BuildingBlock: KIFKEQ_clean_linker_1, # of connection points: 2
#     Edge 25, Type (0, 0), BuildingBlock: KIFKEQ_clean_linker_1, # of connection points: 2
#     Edge 26, Type (0, 0), BuildingBlock: KIFKEQ_clean_linker_1, # of connection points: 2
#     Edge 27, Type (0, 0), BuildingBlock: KIFKEQ_clean_linker_1, # of connection points: 2
#     Edge 28, Type (0, 0), BuildingBlock: KIFKEQ_clean_linker_1, # of connection points: 2
#     Edge 29, Type (0, 0), BuildingBlock: KIFKEQ_clean_linker_1, # of connection points: 2
#     Edge 30, Type (0, 0), BuildingBlock: KIFKEQ_clean_linker_1, # of connection points: 2
#     Edge 31, Type (0, 0), BuildingBlock: KIFKEQ_clean_linker_1, # of connection points: 2
#     Edge 32, Type (0, 0), BuildingBlock: KIFKEQ_clean_linker_1, # of connection points: 2
#     Edge 33, Type (0, 0), BuildingBlock: KIFKEQ_clean_linker_1, # of connection points: 2
#     Edge 34, Type (0, 0), BuildingBlock: KIFKEQ_clean_linker_1, # of connection points: 2
#     Edge 35, Type (0, 0), BuildingBlock: KIFKEQ_clean_linker_1, # of connection points: 2
#     Edge 36, Type (0, 0), BuildingBlock: KIFKEQ_clean_linker_1, # of connection points: 2
#     Edge 37, Type (0, 0), BuildingBlock: KIFKEQ_clean_linker_1, # of connection points: 2
#     Edge 38, Type (0, 0), BuildingBlock: KIFKEQ_clean_linker_1, # of connection points: 2
#     Edge 39, Type (0, 0), BuildingBlock: KIFKEQ_clean_linker_1, # of connection points: 2
#     Edge 40, Type (0, 0), BuildingBlock: KIFKEQ_clean_linker_1, # of connection points: 2
#     Edge 41, Type (0, 0), BuildingBlock: KIFKEQ_clean_linker_1, # of connection points: 2
#     Edge 42, Type (0, 0), BuildingBlock: KIFKEQ_clean_linker_1, # of connection points: 2
#     Edge 43, Type (0, 0), BuildingBlock: KIFKEQ_clean_linker_1, # of connection points: 2
#     Edge 44, Type (0, 0), BuildingBlock: KIFKEQ_clean_linker_1, # of connection points: 2
#     Edge 45, Type (0, 0), BuildingBlock: KIFKEQ_clean_linker_1, # of connection points: 2
#     Edge 46, Type (0, 0), BuildingBlock: KIFKEQ_clean_linker_1, # of connection points: 2
#     Edge 47, Type (0, 0), BuildingBlock: KIFKEQ_clean_linker_1, # of connection points: 2
# Relax obj value: 0.013
# Max RMSD: 0.034
# Mean RMSD: 0.034
data_MOF--net-und--node1-GALJAG_clean_sbu_0--edge1-KIFKEQ_clean_linker_1
_symmetry_space_group_name_H-M    P1
_symmetry_Int_Tables_number       1
_symmetry_cell_setting            triclinic
loop_
_symmetry_equiv_pos_as_xyz
'x, y, z'
_cell_length_a     64.114033
_cell_length_b     64.111373
_cell_length_c     20.665843
_cell_angle_alpha  90.002024
_cell_angle_beta   89.997893
_cell_angle_gamma 90.005684
loop_
_atom_site_label
_atom_site_type_symbol
_atom_site_fract_x
_atom_site_fract_y
_atom_site_fract_z
_atom_type_partial_charge
In0 In 0.25173 0.34056 -0.00155 0.0
O1 O 0.22037 0.35726 0.98555 0.0
O2 O 0.23887 0.36468 0.06796 0.0
C3 C 0.25188 0.31041 0.908 0.0
C4 C 0.28153 0.36681 0.95495 0.0
C5 C 0.25145 0.31332 0.09736 0.0
O6 O 0.23675 0.32299 0.9136 0.0
O7 O 0.26681 0.31357 0.94645 0.0
O8 O 0.26769 0.32334 0.08161 0.0
O9 O 0.2354 0.31762 0.06464 0.0
C10 C 0.2222 0.36781 0.03698 0.0
O11 O 0.28242 0.35844 0.01027 0.0
O12 O 0.26565 0.36198 0.92215 0.0
In13 In 0.91228 0.00179 0.24287 0.0
O14 O 0.89812 0.03462 0.24745 0.0
O15 O 0.88493 0.01256 0.18215 0.0
C16 C 0.94245 1.00157 0.33325 0.0
C17 C 0.88652 0.97212 0.28928 0.0
C18 C 0.93866 1.00167 0.14165 0.0
O19 O 0.92906 0.01607 0.33053 0.0
O20 O 0.94013 0.98732 0.29187 0.0
O21 O 0.9291 0.98542 0.15964 0.0
O22 O 0.93423 0.01795 0.17306 0.0
C23 C 0.88452 0.03085 0.20461 0.0
O24 O 0.89462 0.971 0.23358 0.0
O25 O 0.89144 0.98817 0.32125 0.0
In26 In 0.25235 0.66249 0.49561 0.0
O27 O 0.28319 0.6449 0.48618 0.0
O28 O 0.26595 0.64148 0.5736 0.0
C29 C 0.25256 0.6888 0.3942 0.0
C30 C 0.22332 0.63473 0.45712 0.0
C31 C 0.2522 0.6927 0.58605 0.0
O32 O 0.26889 0.67954 0.41311 0.0
O33 O 0.2362 0.68409 0.42477 0.0
O34 O 0.23788 0.67911 0.58335 0.0
O35 O 0.26648 0.69053 0.54471 0.0
C36 C 0.28202 0.63664 0.54162 0.0
O37 O 0.21951 0.64835 0.49985 0.0
O38 O 0.24164 0.63512 0.43483 0.0
In39 In 0.59108 0.00247 0.74372 0.0
O40 O 0.60777 0.03387 0.73139 0.0
O41 O 0.6143 0.0158 0.81537 0.0
C42 C 0.56241 1.00076 0.64905 0.0
C43 C 0.61762 0.97251 0.70351 0.0
C44 C 0.56238 0.00425 0.83829 0.0
O45 O 0.57478 0.01607 0.65464 0.0
O46 O 0.56503 0.98636 0.68986 0.0
O47 O 0.57438 0.9887 0.83178 0.0
O48 O 0.5654 0.01888 0.79854 0.0
C49 C 0.61775 0.03232 0.78399 0.0
O50 O 0.60785 0.97115 0.75652 0.0
O51 O 0.61404 0.98892 0.6717 0.0
In52 In 0.7516 0.66261 0.99367 0.0
O53 O 0.72067 0.64522 0.98326 0.0
O54 O 0.73756 0.64177 0.07131 0.0
C55 C 0.75157 0.68852 0.8912 0.0
C56 C 0.78083 0.6347 0.95773 0.0
C57 C 0.75176 0.69273 0.08445 0.0
O58 O 0.7352 0.67944 0.91049 0.0
O59 O 0.7679 0.68386 0.92197 0.0
O60 O 0.7659 0.67897 0.08212 0.0
O61 O 0.73766 0.69084 0.04239 0.0
C62 C 0.72158 0.63701 0.03882 0.0
O63 O 0.78457 0.64887 -0.00127 0.0
O64 O 0.76247 0.63463 0.93575 0.0
In65 In 0.09068 1.00065 0.74286 0.0
O66 O 0.10492 0.03334 0.7452 0.0
O67 O 0.11723 0.01119 0.67835 0.0
C68 C 0.06105 1.00059 0.83519 0.0
C69 C 0.11718 0.9717 0.7895 0.0
C70 C 0.0643 1.00087 0.64173 0.0
O71 O 0.07417 0.01528 0.8306 0.0
O72 O 0.06344 0.98605 0.79489 0.0
O73 O 0.07444 0.98472 0.65753 0.0
O74 O 0.0681 0.01683 0.67542 0.0
C75 C 0.11797 0.0295 0.7008 0.0
O76 O 0.10596 0.96841 0.74019 0.0
O77 O 0.11496 0.98947 0.81492 0.0
In78 In 0.75146 0.34148 0.49983 0.0
O79 O 0.71942 0.35717 0.5028 0.0
O80 O 0.74011 0.36508 0.42592 0.0
C81 C 0.75157 0.31562 0.60236 0.0
C82 C 0.78063 0.36893 0.53884 0.0
C83 C 0.75106 0.31148 0.40866 0.0
O84 O 0.73548 0.32576 0.58606 0.0
O85 O 0.76754 0.31921 0.56854 0.0
O86 O 0.76582 0.32454 0.41251 0.0
O87 O 0.73663 0.31407 0.4492 0.0
C88 C 0.72253 0.36779 0.45211 0.0
O89 O 0.78438 0.35517 0.49648 0.0
O90 O 0.76227 0.3688 0.56094 0.0
In91 In 0.41241 0.002 0.24305 0.0
O92 O 0.39785 0.96945 0.2496 0.0
O93 O 0.38532 0.9909 0.18119 0.0
C94 C 0.44103 1.00086 0.33846 0.0
C95 C 0.38566 0.0312 0.28661 0.0
C96 C 0.43971 0.00362 0.14372 0.0
O97 O 0.43036 0.98501 0.32327 0.0
O98 O 0.43682 0.01712 0.30682 0.0
O99 O 0.43075 0.01973 0.16525 0.0
O100 O 0.43428 0.98685 0.1706 0.0
C101 C 0.38456 0.97288 0.20568 0.0
O102 O 0.39443 0.03251 0.23192 0.0
O103 O 0.39037 0.01515 0.31893 0.0
In104 In 0.75163 0.84115 0.49476 0.0
O105 O 0.72092 0.85898 0.48291 0.0
O106 O 0.73769 0.86256 0.57102 0.0
C107 C 0.7519 0.81393 0.39581 0.0
C108 C 0.78111 0.86845 0.45635 0.0
C109 C 0.75152 0.81097 0.58512 0.0
O110 O 0.73566 0.82393 0.41165 0.0
O111 O 0.76797 0.81824 0.42847 0.0
O112 O 0.76666 0.82354 0.57945 0.0
O113 O 0.73656 0.81416 0.54681 0.0
C114 C 0.72181 0.86736 0.53822 0.0
O115 O 0.78292 0.85794 0.50788 0.0
O116 O 0.76449 0.86524 0.4252 0.0
In117 In 0.41264 0.50179 0.75067 0.0
O118 O 0.39473 0.53242 0.76343 0.0
O119 O 0.39039 0.51536 0.67617 0.0
C120 C 0.44025 0.50162 0.84853 0.0
C121 C 0.3858 0.472 0.79004 0.0
C122 C 0.44244 0.50244 0.65898 0.0
O123 O 0.42991 0.51774 0.8337 0.0
O124 O 0.43611 0.48562 0.81539 0.0
O125 O 0.43029 0.48701 0.66557 0.0
O126 O 0.439 0.51743 0.69698 0.0
C127 C 0.3858 0.53131 0.70899 0.0
O128 O 0.39597 0.47042 0.73778 0.0
O129 O 0.38913 0.48854 0.82147 0.0
In130 In 0.75098 0.16318 -6e-05 0.0
O131 O 0.78385 0.14912 0.99537 0.0
O132 O 0.76166 0.13547 0.05934 0.0
C133 C 0.75109 0.19362 0.91032 0.0
C134 C 0.72118 0.13764 0.95307 0.0
C135 C 0.75091 0.18914 0.10219 0.0
O136 O 0.76537 0.17999 0.91248 0.0
O137 O 0.73687 0.1914 0.95186 0.0
O138 O 0.73457 0.1799 0.08333 0.0
O139 O 0.76721 0.1846 0.0711 0.0
C140 C 0.78002 0.13526 0.03734 0.0
O141 O 0.72013 0.14561 0.00897 0.0
O142 O 0.73722 0.14259 0.92112 0.0
In143 In 0.09118 0.50109 0.25166 0.0
O144 O 0.10888 0.47031 0.26095 0.0
O145 O 0.11171 0.48727 0.1728 0.0
C146 C 0.06494 0.50081 0.35326 0.0
C147 C 0.119 0.53015 0.2896 0.0
C148 C 0.06094 0.50135 0.16148 0.0
O149 O 0.07415 0.48449 0.33407 0.0
O150 O 0.06968 0.5172 0.32293 0.0
O151 O 0.07468 0.51553 0.16373 0.0
O152 O 0.06295 0.48717 0.20323 0.0
C153 C 0.11676 0.47129 0.20493 0.0
O154 O 0.10517 0.534 0.24758 0.0
O155 O 0.11881 0.51177 0.31142 0.0
In156 In 0.25176 0.16199 0.4995 0.0
O157 O 0.28256 0.14437 0.50983 0.0
O158 O 0.26567 0.14113 0.4217 0.0
C159 C 0.25187 0.18799 0.60174 0.0
C160 C 0.22259 0.13409 0.5359 0.0
C161 C 0.2516 0.1921 0.40871 0.0
O162 O 0.26823 0.17892 0.58235 0.0
O163 O 0.23551 0.18327 0.57117 0.0
O164 O 0.23738 0.17841 0.41132 0.0
O165 O 0.26578 0.19013 0.45048 0.0
C166 C 0.2816 0.1362 0.45422 0.0
O167 O 0.21884 0.14812 0.49443 0.0
O168 O 0.24091 0.13417 0.55815 0.0
In169 In 0.59123 0.50269 0.25181 0.0
O170 O 0.60431 0.46946 0.24716 0.0
O171 O 0.61972 0.49164 0.30713 0.0
C172 C 0.56118 0.5024 0.1608 0.0
C173 C 0.61685 0.53276 0.20693 0.0
C174 C 0.56543 0.503 0.35469 0.0
O175 O 0.57517 0.48848 0.16271 0.0
O176 O 0.56279 0.51634 0.20345 0.0
O177 O 0.57421 0.51937 0.33419 0.0
O178 O 0.57039 0.48654 0.32506 0.0
C179 C 0.61905 0.47317 0.28619 0.0
O180 O 0.609 0.53339 0.26304 0.0
O181 O 0.61171 0.51703 0.17379 0.0
In182 In 0.25166 0.84093 0.99599 0.0
O183 O 0.21871 0.85456 -0.00049 0.0
O184 O 0.24065 0.86794 0.93396 0.0
C185 C 0.25238 0.81137 0.08854 0.0
C186 C 0.28058 0.86762 0.04175 0.0
C187 C 0.25143 0.8147 0.89432 0.0
O188 O 0.23748 0.82424 0.08407 0.0
O189 O 0.26679 0.81396 0.04795 0.0
O190 O 0.26747 0.82509 0.90966 0.0
O191 O 0.23556 0.81821 0.92864 0.0
C192 C 0.22234 0.86814 0.95653 0.0
O193 O 0.28377 0.85645 0.99226 0.0
O194 O 0.26293 0.86526 0.06781 0.0
In195 In 0.91277 0.50125 0.75123 0.0
O196 O 0.89844 0.53392 0.74835 0.0
O197 O 0.88657 0.512 0.81675 0.0
C198 C 0.94215 0.50068 0.6582 0.0
C199 C 0.88595 0.47245 0.70552 0.0
C200 C 0.93943 0.50155 0.85161 0.0
O201 O 0.92944 0.5157 0.66351 0.0
O202 O 0.93946 0.48608 0.69812 0.0
O203 O 0.92894 0.48551 0.83699 0.0
O204 O 0.93587 0.51737 0.81708 0.0
C205 C 0.88565 0.53021 0.7936 0.0
O206 O 0.89736 0.46908 0.75435 0.0
O207 O 0.88813 0.49023 0.68011 0.0
H208 H 0.2178 0.2933 0.14841 0.0
H209 H 0.28507 0.29532 0.15595 0.0
H210 H 0.2177 0.26413 0.22396 0.0
H211 H 0.28511 0.26562 0.22958 0.0
H212 H 0.27729 0.22572 0.40908 0.0
H213 H 0.27693 0.2555 0.33654 0.0
H214 H 0.22582 0.2279 0.23015 0.0
H215 H 0.22571 0.19834 0.30488 0.0
C216 C 0.23258 0.2875 0.16635 0.0
C217 C 0.25145 0.29662 0.14653 0.0
C218 C 0.23254 0.27063 0.20915 0.0
C219 C 0.25139 0.26238 0.23266 0.0
C220 C 0.27027 0.27172 0.21325 0.0
C221 C 0.27028 0.28873 0.17092 0.0
C222 C 0.26599 0.22597 0.3701 0.0
C223 C 0.25153 0.20968 0.36256 0.0
C224 C 0.26586 0.24303 0.32822 0.0
C225 C 0.2514 0.24414 0.27725 0.0
C226 C 0.23699 0.22773 0.26945 0.0
C227 C 0.237 0.21071 0.31189 0.0
H228 H 0.94958 0.02768 0.43598 0.0
H229 H 0.97548 0.97514 0.33279 0.0
H230 H 0.97945 0.02728 0.50952 0.0
H231 H 0.00557 0.9752 0.40407 0.0
H232 H 0.04602 0.96724 0.5839 0.0
H233 H 0.01619 0.96735 0.51073 0.0
H234 H 0.01577 0.03479 0.51355 0.0
H235 H 0.04503 0.03457 0.58866 0.0
C236 C 0.96169 0.01612 0.42894 0.0
C237 C 0.96017 1.00141 0.37889 0.0
C238 C 0.97889 0.01596 0.47067 0.0
C239 C 0.99499 1.00121 0.46272 0.0
C240 C 0.99336 0.98655 0.41245 0.0
C241 C 0.97612 0.98659 0.3713 0.0
C242 C 0.03965 0.98206 0.56829 0.0
C243 C 0.04782 1.00088 0.59191 0.0
C244 C 0.02256 0.98216 0.52627 0.0
C245 C 0.01344 1.0011 0.50643 0.0
C246 C 0.02207 0.01992 0.52883 0.0
C247 C 0.039 0.0198 0.57134 0.0
H248 H 0.27777 0.7264 0.58426 0.0
H249 H 0.22632 0.69929 0.68972 0.0
H250 H 0.27727 0.75654 0.65533 0.0
H251 H 0.22631 0.72921 0.76309 0.0
H252 H 0.21792 0.79456 0.84309 0.0
H253 H 0.21799 0.7653 0.76796 0.0
H254 H 0.28537 0.76743 0.76134 0.0
H255 H 0.28515 0.79726 0.83451 0.0
C256 C 0.26648 0.72678 0.62324 0.0
C257 C 0.25209 0.71047 0.63153 0.0
C258 C 0.26626 0.74405 0.66428 0.0
C259 C 0.25179 0.74536 0.71517 0.0
C260 C 0.23747 0.7289 0.72378 0.0
C261 C 0.23755 0.71167 0.68214 0.0
C262 C 0.23273 0.78891 0.82491 0.0
C263 C 0.25153 0.79822 0.84443 0.0
C264 C 0.23278 0.77198 0.78239 0.0
C265 C 0.25168 0.76382 0.75889 0.0
C266 C 0.27049 0.77343 0.7777 0.0
C267 C 0.27041 0.79052 0.81974 0.0
H268 H 0.45745 0.9708 0.08106 0.0
H269 H 0.46042 0.03786 0.09836 0.0
H270 H 0.4872 0.97135 0.00788 0.0
H271 H 0.49073 0.03842 0.02699 0.0
H272 H 0.53175 0.03342 0.84699 0.0
H273 H 0.50164 0.03344 0.91846 0.0
H274 H 0.52391 0.97681 0.00864 0.0
H275 H 0.55371 0.97641 0.93504 0.0
C276 C 0.46446 0.98568 0.06904 0.0
C277 C 0.4566 0.0043 0.09524 0.0
C278 C 0.48167 0.98598 0.02764 0.0
C279 C 0.49155 0.0049 0.01197 0.0
C280 C 0.4834 0.02358 0.03739 0.0
C281 C 0.46604 0.02328 0.07838 0.0
C282 C 0.53028 0.02103 0.88234 0.0
C283 C 0.54507 0.00488 0.88539 0.0
C284 C 0.51304 0.0211 0.92358 0.0
C285 C 0.51025 0.0051 0.96927 0.0
C286 C 0.52534 0.98917 0.97321 0.0
C287 C 0.54252 0.98902 0.93148 0.0
H288 H 0.28019 0.77952 0.09244 0.0
H289 H 0.22514 0.80328 0.18773 0.0
H290 H 0.28009 0.74931 0.16322 0.0
H291 H 0.22546 0.7733 0.26083 0.0
H292 H 0.21911 0.70706 0.33622 0.0
H293 H 0.21912 0.73667 0.26231 0.0
H294 H 0.28649 0.73865 0.27079 0.0
H295 H 0.28641 0.70852 0.34269 0.0
C296 C 0.26819 0.7784 0.12919 0.0
C297 C 0.25266 0.79377 0.13461 0.0
C298 C 0.26819 0.7611 0.17005 0.0
C299 C 0.25278 0.75881 0.21785 0.0
C300 C 0.23738 0.77437 0.22385 0.0
C301 C 0.23727 0.79164 0.18241 0.0
C302 C 0.23392 0.71369 0.3216 0.0
C303 C 0.25277 0.70545 0.34495 0.0
C304 C 0.23392 0.73081 0.27982 0.0
C305 C 0.25279 0.74021 0.26094 0.0
C306 C 0.27167 0.73168 0.28358 0.0
C307 C 0.27165 0.71441 0.32487 0.0
H308 H 0.45972 0.9667 0.39231 0.0
H309 H 0.46094 0.03403 0.39208 0.0
H310 H 0.48977 0.9662 0.46477 0.0
H311 H 0.49034 0.03366 0.46649 0.0
H312 H 0.5557 0.0269 0.54646 0.0
H313 H 0.52643 0.02632 0.47091 0.0
H314 H 0.50059 0.97314 0.57167 0.0
H315 H 0.53023 0.97323 0.64494 0.0
C316 C 0.46623 0.98138 0.40859 0.0
C317 C 0.45803 1.00039 0.38656 0.0
C318 C 0.48343 0.98113 0.45024 0.0
C319 C 0.49262 0.9999 0.4713 0.0
C320 C 0.48402 0.0189 0.45021 0.0
C321 C 0.46701 0.01913 0.40805 0.0
C322 C 0.54382 0.01502 0.55195 0.0
C323 C 0.54526 1.00011 0.60143 0.0
C324 C 0.52694 0.01476 0.50907 0.0
C325 C 0.51102 0.99974 0.5153 0.0
C326 C 0.51266 0.98473 0.56462 0.0
C327 C 0.52963 0.98485 0.60692 0.0
H328 H 0.28564 0.20767 0.6538 0.0
H329 H 0.21835 0.20587 0.66065 0.0
H330 H 0.28563 0.23755 0.72664 0.0
H331 H 0.21828 0.23522 0.73557 0.0
H332 H 0.2242 0.30191 0.81043 0.0
H333 H 0.22438 0.27182 0.73781 0.0
H334 H 0.27936 0.24812 0.83418 0.0
H335 H 0.27961 0.27848 0.90443 0.0
C336 C 0.27087 0.21343 0.67192 0.0
C337 C 0.25201 0.20446 0.65162 0.0
C338 C 0.27083 0.23054 0.71379 0.0
C339 C 0.25193 0.23892 0.73682 0.0
C340 C 0.2331 0.22949 0.7178 0.0
C341 C 0.23314 0.21252 0.67541 0.0
C342 C 0.23636 0.29029 0.81564 0.0
C343 C 0.25194 0.29258 0.86279 0.0
C344 C 0.23639 0.27296 0.77447 0.0
C345 C 0.25188 0.25747 0.78014 0.0
C346 C 0.2674 0.25986 0.82755 0.0
C347 C 0.26749 0.27725 0.8681 0.0
H348 H 0.02827 0.97389 0.83712 0.0
H349 H 0.05379 0.02749 0.93592 0.0
H350 H 0.99811 0.97444 0.90805 0.0
H351 H 0.02385 0.02757 0.00926 0.0
H352 H 0.9579 0.03511 0.08655 0.0
H353 H 0.98743 0.03491 0.01233 0.0
H354 H 0.98747 0.96746 0.0151 0.0
H355 H 0.95743 0.96776 0.08727 0.0
C356 C 0.02755 0.98566 0.87468 0.0
C357 C 0.04341 1.00064 0.88109 0.0
C358 C 0.01027 0.98591 0.91563 0.0
C359 C 0.0085 1.00101 0.96457 0.0
C360 C 0.02453 0.01591 0.97143 0.0
C361 C 0.04177 0.01578 0.92985 0.0
C362 C 0.96409 0.02025 0.07061 0.0
C363 C 0.95532 1.00144 0.09241 0.0
C364 C 0.98117 0.02013 0.02864 0.0
C365 C 0.98999 1.00118 0.00801 0.0
C366 C 0.98095 0.98236 0.02921 0.0
C367 C 0.96373 0.9825 0.07067 0.0
H368 H 0.7851 0.70639 0.83231 0.0
H369 H 0.71781 0.70817 0.83903 0.0
H370 H 0.78518 0.73574 0.75737 0.0
H371 H 0.71783 0.73805 0.76621 0.0
H372 H 0.72381 0.77902 0.58863 0.0
H373 H 0.72409 0.74864 0.65874 0.0
H374 H 0.77908 0.77233 0.75509 0.0
H375 H 0.77923 0.80245 0.68257 0.0
C376 C 0.77031 0.71304 0.81751 0.0
C377 C 0.75144 0.70497 0.84127 0.0
C378 C 0.77036 0.73001 0.77511 0.0
C379 C 0.75153 0.73943 0.75606 0.0
C380 C 0.73262 0.73105 0.77907 0.0
C381 C 0.73258 0.71393 0.82092 0.0
C382 C 0.73594 0.77779 0.62492 0.0
C383 C 0.75149 0.79313 0.63026 0.0
C384 C 0.73604 0.76038 0.6654 0.0
C385 C 0.75158 0.75798 0.71277 0.0
C386 C 0.76707 0.77348 0.71846 0.0
C387 C 0.76708 0.79083 0.67735 0.0
H388 H 0.72378 0.27916 0.40658 0.0
H389 H 0.77806 0.30359 0.30872 0.0
H390 H 0.72396 0.2489 0.33597 0.0
H391 H 0.77781 0.27356 0.23584 0.0
H392 H 0.78446 0.20753 0.15928 0.0
H393 H 0.78452 0.23697 0.23386 0.0
H394 H 0.71711 0.23833 0.22846 0.0
H395 H 0.71713 0.20838 0.15582 0.0
C396 C 0.73563 0.27817 0.36935 0.0
C397 C 0.75091 0.29376 0.36308 0.0
C398 C 0.73567 0.26083 0.32859 0.0
C399 C 0.75087 0.25874 0.28007 0.0
C400 C 0.76606 0.27449 0.27337 0.0
C401 C 0.76613 0.29179 0.31469 0.0
C402 C 0.76966 0.21399 0.17472 0.0
C403 C 0.75078 0.20564 0.15196 0.0
C404 C 0.76969 0.23101 0.2169 0.0
C405 C 0.75084 0.24018 0.23681 0.0
C406 C 0.73193 0.23152 0.21485 0.0
C407 C 0.73191 0.21436 0.17313 0.0
H408 H 0.72519 0.22708 0.91191 0.0
H409 H 0.77714 0.20057 0.80734 0.0
H410 H 0.72558 0.25729 0.8411 0.0
H411 H 0.77706 0.23057 0.73433 0.0
H412 H 0.78511 0.29603 0.65533 0.0
H413 H 0.78508 0.2668 0.73059 0.0
H414 H 0.71766 0.26812 0.73458 0.0
H415 H 0.71781 0.2979 0.6612 0.0
C416 C 0.73658 0.22762 0.87321 0.0
C417 C 0.75114 0.21144 0.86508 0.0
C418 C 0.73673 0.24493 0.83234 0.0
C419 C 0.75132 0.24642 0.78183 0.0
C420 C 0.76581 0.23011 0.77338 0.0
C421 C 0.76578 0.21284 0.81481 0.0
C422 C 0.7703 0.29021 0.67297 0.0
C423 C 0.75146 0.29926 0.6526 0.0
C424 C 0.77027 0.27331 0.71556 0.0
C425 C 0.75137 0.26492 0.73829 0.0
C426 C 0.73253 0.2743 0.71876 0.0
C427 C 0.73258 0.29136 0.67662 0.0
H428 H 0.77766 0.69899 0.18823 0.0
H429 H 0.72603 0.72632 0.08423 0.0
H430 H 0.77755 0.72855 0.26298 0.0
H431 H 0.72638 0.75609 0.15681 0.0
H432 H 0.71827 0.79585 0.33755 0.0
H433 H 0.71823 0.76615 0.26393 0.0
H434 H 0.78564 0.76481 0.26893 0.0
H435 H 0.78555 0.794 0.34447 0.0
C436 C 0.76636 0.71134 0.18127 0.0
C437 C 0.75181 0.7103 0.13064 0.0
C438 C 0.76637 0.72836 0.22372 0.0
C439 C 0.75194 0.74475 0.21597 0.0
C440 C 0.73746 0.74363 0.16507 0.0
C441 C 0.73734 0.72658 0.12316 0.0
C442 C 0.73306 0.78929 0.32245 0.0
C443 C 0.7519 0.79723 0.34665 0.0
C444 C 0.73307 0.77229 0.28013 0.0
C445 C 0.75195 0.76299 0.26056 0.0
C446 C 0.77081 0.77129 0.28388 0.0
C447 C 0.77077 0.78816 0.32667 0.0
H448 H 0.55567 0.47705 0.05533 0.0
H449 H 0.52704 0.52738 0.16209 0.0
H450 H 0.52626 0.47703 0.98002 0.0
H451 H 0.49743 0.52688 0.08892 0.0
H452 H 0.4577 0.53529 0.90848 0.0
H453 H 0.48738 0.53551 0.98213 0.0
H454 H 0.49019 0.46818 0.97304 0.0
H455 H 0.46101 0.46811 0.8975 0.0
C456 C 0.54306 0.48803 0.06278 0.0
C457 C 0.54369 0.50226 0.11435 0.0
C458 C 0.52613 0.48795 0.02 0.0
C459 C 0.50942 0.50197 0.02835 0.0
C460 C 0.51014 0.51613 0.0802 0.0
C461 C 0.5271 0.51633 0.12244 0.0
C462 C 0.46458 0.52055 0.92265 0.0
C463 C 0.45704 0.5017 0.89737 0.0
C464 C 0.48158 0.52065 0.965 0.0
C465 C 0.49126 0.50185 0.98349 0.0
C466 C 0.4834 0.48297 0.95896 0.0
C467 C 0.46654 0.4829 0.91616 0.0
H468 H 0.0468 0.5342 0.41204 0.0
H469 H 0.04499 0.46693 0.40365 0.0
H470 H 0.01711 0.53412 0.48566 0.0
H471 H 0.01478 0.46679 0.47517 0.0
H472 H 0.97379 0.47266 0.65321 0.0
H473 H 0.00403 0.47285 0.58263 0.0
H474 H 0.98047 0.52803 0.48704 0.0
H475 H 0.95045 0.52826 0.56004 0.0
C476 C 0.04007 0.51938 0.42618 0.0
C477 C 0.04825 0.50056 0.4024 0.0
C478 C 0.0229 0.51934 0.46779 0.0
C479 C 0.01339 0.50047 0.48603 0.0
C480 C 0.02185 0.48162 0.46291 0.0
C481 C 0.03916 0.48166 0.42184 0.0
C482 C 0.975 0.4848 0.61694 0.0
C483 C 0.95974 0.50045 0.61208 0.0
C484 C 0.99233 0.48485 0.57618 0.0
C485 C 0.99475 0.50044 0.529 0.0
C486 C 0.97929 0.51597 0.52354 0.0
C487 C 0.962 0.51603 0.56491 0.0
H488 H 0.05479 0.52679 0.05653 0.0
H489 H 0.02695 0.47619 0.16414 0.0
H490 H 0.02504 0.52666 0.9825 0.0
H491 H 0.99699 0.47657 0.09236 0.0
H492 H 0.95669 0.46799 0.91271 0.0
H493 H 0.98642 0.46793 0.98627 0.0
H494 H 0.98899 0.53526 0.97664 0.0
H495 H 0.95982 0.53516 0.90118 0.0
C496 C 0.04228 0.51572 0.06445 0.0
C497 C 0.04323 0.50145 0.11583 0.0
C498 C 0.02515 0.51573 0.02242 0.0
C499 C 0.00856 0.5016 0.03141 0.0
C500 C 0.0096 0.48741 0.08312 0.0
C501 C 0.02676 0.48727 0.12456 0.0
C502 C 0.96352 0.48276 0.92686 0.0
C503 C 0.95596 0.50156 0.9013 0.0
C504 C 0.98054 0.48276 0.96912 0.0
C505 C 0.99022 0.5016 0.98725 0.0
C506 C 0.98224 0.52044 0.96276 0.0
C507 C 0.96537 0.5204 0.92004 0.0
H508 H 0.47331 0.53132 0.65229 0.0
H509 H 0.45189 0.47416 0.56389 0.0
H510 H 0.50376 0.53132 0.58248 0.0
H511 H 0.48206 0.47456 0.49165 0.0
H512 H 0.54836 0.46964 0.41675 0.0
H513 H 0.51879 0.46954 0.49083 0.0
H514 H 0.51463 0.53667 0.47489 0.0
H515 H 0.54474 0.53674 0.40298 0.0
C516 C 0.47499 0.51887 0.61724 0.0
C517 C 0.4602 0.50274 0.61348 0.0
C518 C 0.49244 0.51892 0.57692 0.0
C519 C 0.49545 0.50296 0.53128 0.0
C520 C 0.48046 0.48693 0.52698 0.0
C521 C 0.46306 0.48677 0.56791 0.0
C522 C 0.54126 0.48439 0.42984 0.0
C523 C 0.54889 0.50321 0.40435 0.0
C524 C 0.52416 0.48432 0.47172 0.0
C525 C 0.51414 0.50307 0.4885 0.0
C526 C 0.52208 0.52195 0.4638 0.0
C527 C 0.53934 0.52202 0.42248 0.0
H528 H 0.13337 0.43793 0.26898 0.0
H529 H 0.1326 0.46849 0.08271 0.0
H530 H 0.15806 0.4122 0.22725 0.0
H531 H 0.15735 0.44282 0.04111 0.0
H532 H 0.1866 0.38043 0.97486 0.0
H533 H 0.16011 0.40477 0.01486 0.0
H534 H 0.1951 0.41256 0.1918 0.0
H535 H 0.22141 0.38831 0.15215 0.0
C536 C 0.13842 0.4391 0.21909 0.0
C537 C 0.13112 0.45526 0.1792 0.0
C538 C 0.15262 0.42443 0.19528 0.0
C539 C 0.15969 0.42553 0.13094 0.0
C540 C 0.15205 0.44145 0.0907 0.0
C541 C 0.13798 0.45622 0.11466 0.0
C542 C 0.18858 0.38735 0.02228 0.0
C543 C 0.20608 0.38249 0.06034 0.0
C544 C 0.17348 0.40132 0.04507 0.0
C545 C 0.1755 0.41052 0.10658 0.0
C546 C 0.19296 0.40553 0.1446 0.0
C547 C 0.20811 0.39174 0.12166 0.0
H548 H 0.81647 0.88141 0.51912 0.0
H549 H 0.78208 0.88873 0.34083 0.0
H550 H 0.84291 0.90585 0.47935 0.0
H551 H 0.80834 0.91307 0.30139 0.0
H552 H 0.87024 0.93856 0.22544 0.0
H553 H 0.84552 0.91281 0.26698 0.0
H554 H 0.84546 0.9439 0.45239 0.0
H555 H 0.87023 0.96958 0.41099 0.0
C556 C 0.81457 0.88823 0.47152 0.0
C557 C 0.79721 0.88318 0.43312 0.0
C558 C 0.82964 0.90226 0.44887 0.0
C559 C 0.82773 0.91132 0.38715 0.0
C560 C 0.8104 0.90615 0.34878 0.0
C561 C 0.79528 0.89231 0.37159 0.0
C562 C 0.86501 0.93983 0.27513 0.0
C563 C 0.8721 0.95612 0.31488 0.0
C564 C 0.8508 0.92516 0.29882 0.0
C565 C 0.84351 0.92637 0.36291 0.0
C566 C 0.85093 0.94244 0.40301 0.0
C567 C 0.86501 0.95721 0.37916 0.0
H568 H 0.31611 0.62116 0.47845 0.0
H569 H 0.28388 0.61922 0.66188 0.0
H570 H 0.34186 0.59639 0.51958 0.0
H571 H 0.30949 0.59434 0.70278 0.0
H572 H 0.37124 0.56569 0.77315 0.0
H573 H 0.34681 0.59198 0.73298 0.0
H574 H 0.34274 0.55922 0.55077 0.0
H575 H 0.36723 0.53312 0.59061 0.0
C576 C 0.31456 0.61548 0.52757 0.0
C577 C 0.29796 0.6221 0.56689 0.0
C578 C 0.32923 0.60122 0.55102 0.0
C579 C 0.32768 0.59337 0.61441 0.0
C580 C 0.31124 0.60025 0.65399 0.0
C581 C 0.2965 0.61441 0.63042 0.0
C582 C 0.36514 0.56416 0.7245 0.0
C583 C 0.37113 0.54735 0.68505 0.0
C584 C 0.35109 0.57914 0.7016 0.0
C585 C 0.34287 0.57769 0.63865 0.0
C586 C 0.349 0.56093 0.59917 0.0
C587 C 0.36292 0.54591 0.62217 0.0
H588 H 0.68748 0.12148 0.01656 0.0
H589 H 0.71868 0.1214 0.8313 0.0
H590 H 0.66169 0.09687 0.97473 0.0
H591 H 0.69297 0.09672 0.78963 0.0
H592 H 0.63088 0.06766 0.7215 0.0
H593 H 0.65516 0.09414 0.76188 0.0
H594 H 0.66164 0.0598 0.94055 0.0
H595 H 0.63742 0.03351 0.90054 0.0
C596 C 0.68879 0.11626 0.96687 0.0
C597 C 0.70514 0.12331 0.92728 0.0
C598 C 0.67408 0.1021 0.94301 0.0
C599 C 0.67533 0.09482 0.87892 0.0
C600 C 0.69147 0.10219 0.839 0.0
C601 C 0.70626 0.11623 0.863 0.0
C602 C 0.63748 0.06583 0.76941 0.0
C603 C 0.63227 0.04852 0.80782 0.0
C604 C 0.65143 0.08092 0.79242 0.0
C605 C 0.66026 0.07907 0.85448 0.0
C606 C 0.6549 0.06181 0.8929 0.0
C607 C 0.64112 0.04668 0.86977 0.0
H608 H 0.11745 0.5726 0.27493 0.0
H609 H 0.15456 0.52309 0.35759 0.0
H610 H 0.1423 0.59839 0.31695 0.0
H611 H 0.17938 0.54874 0.39858 0.0
H612 H 0.23041 0.59962 0.38695 0.0
H613 H 0.20484 0.57474 0.34588 0.0
H614 H 0.1552 0.61088 0.43152 0.0
H615 H 0.18092 0.63579 0.47361 0.0
C616 C 0.13094 0.56725 0.30175 0.0
C617 C 0.13411 0.54586 0.31289 0.0
C618 C 0.14505 0.58198 0.32611 0.0
C619 C 0.16273 0.57552 0.36095 0.0
C620 C 0.16595 0.55413 0.37153 0.0
C621 C 0.15171 0.53947 0.34819 0.0
C622 C 0.21405 0.60225 0.39721 0.0
C623 C 0.20765 0.6196 0.43367 0.0
C624 C 0.19944 0.58798 0.37382 0.0
C625 C 0.17807 0.59091 0.38552 0.0
C626 C 0.17159 0.60836 0.4215 0.0
C627 C 0.18628 0.6225 0.44589 0.0
H628 H 0.63693 0.97097 0.58641 0.0
H629 H 0.63103 0.93745 0.7668 0.0
H630 H 0.66129 0.94473 0.54687 0.0
H631 H 0.65541 0.91102 0.72691 0.0
H632 H 0.71911 0.88428 0.65889 0.0
H633 H 0.69314 0.90886 0.69926 0.0
H634 H 0.66199 0.90755 0.51398 0.0
H635 H 0.68809 0.88302 0.47338 0.0
C636 C 0.64079 0.95794 0.61756 0.0
C637 C 0.63211 0.95628 0.67979 0.0
C638 C 0.65464 0.94283 0.5947 0.0
C639 C 0.66024 0.92578 0.63369 0.0
C640 C 0.65151 0.92408 0.69594 0.0
C641 C 0.63751 0.93915 0.71868 0.0
C642 C 0.70668 0.88919 0.62682 0.0
C643 C 0.70567 0.88179 0.56287 0.0
C644 C 0.69173 0.90316 0.65011 0.0
C645 C 0.67553 0.91016 0.60981 0.0
C646 C 0.67442 0.9026 0.54599 0.0
C647 C 0.6893 0.8885 0.52282 0.0
H648 H 0.3726 0.4368 0.72694 0.0
H649 H 0.36609 0.47066 0.90651 0.0
H650 H 0.34816 0.41039 0.76666 0.0
H651 H 0.3417 0.44443 0.9459 0.0
H652 H 0.31512 0.38266 0.01995 0.0
H653 H 0.3412 0.40723 0.97936 0.0
H654 H 0.3103 0.40819 0.79369 0.0
H655 H 0.28433 0.38358 0.83407 0.0
C656 C 0.36598 0.43858 0.77484 0.0
C657 C 0.37122 0.45581 0.81355 0.0
C658 C 0.35194 0.42352 0.79747 0.0
C659 C 0.34305 0.42531 0.85948 0.0
C660 C 0.34848 0.44246 0.89827 0.0
C661 C 0.36235 0.45757 0.87549 0.0
C662 C 0.31396 0.38807 0.97043 0.0
C663 C 0.29765 0.38126 0.93028 0.0
C664 C 0.32883 0.40219 0.94727 0.0
C665 C 0.32778 0.40966 0.88334 0.0
C666 C 0.31165 0.40256 0.84293 0.0
C667 C 0.29671 0.38857 0.86622 0.0
H668 H 0.77295 0.09963 0.10494 0.0
H669 H 0.82248 0.13684 0.02276 0.0
H670 H 0.79858 0.07479 0.14587 0.0
H671 H 0.84825 0.11197 0.06474 0.0
H672 H 0.88555 0.07325 0.22152 0.0
H673 H 0.86066 0.09899 0.17942 0.0
H674 H 0.82463 0.0494 0.09304 0.0
H675 H 0.84948 0.0238 0.13411 0.0
C676 C 0.78933 0.10249 0.09562 0.0
C677 C 0.79572 0.12013 0.06047 0.0
C678 C 0.80398 0.08825 0.11893 0.0
C679 C 0.82537 0.09149 0.10848 0.0
C680 C 0.83184 0.1092 0.07378 0.0
C681 C 0.81712 0.12332 0.04944 0.0
C682 C 0.87228 0.0679 0.19363 0.0
C683 C 0.86941 0.04654 0.18121 0.0
C684 C 0.85816 0.08261 0.16924 0.0
C685 C 0.84075 0.07614 0.13305 0.0
C686 C 0.83784 0.05478 0.12114 0.0
C687 C 0.85209 0.04016 0.14454 0.0
H688 H 0.82327 0.63695 0.97099 0.0
H689 H 0.77397 0.59823 0.89433 0.0
H690 H 0.84924 0.61195 0.93092 0.0
H691 H 0.79982 0.57324 0.85543 0.0
H692 H 0.85169 0.52324 0.86926 0.0
H693 H 0.82676 0.5488 0.91033 0.0
H694 H 0.86101 0.59813 0.81594 0.0
H695 H 0.88592 0.57244 0.7738 0.0
C696 C 0.818 0.62307 0.94597 0.0
C697 C 0.79663 0.6195 0.93582 0.0
C698 C 0.83283 0.60887 0.92276 0.0
C699 C 0.82649 0.5907 0.89018 0.0
C700 C 0.80511 0.58706 0.88076 0.0
C701 C 0.79035 0.60139 0.90286 0.0
C702 C 0.85391 0.53953 0.85721 0.0
C703 C 0.8707 0.54586 0.81816 0.0
C704 C 0.83962 0.55413 0.88059 0.0
C705 C 0.842 0.5754 0.86628 0.0
C706 C 0.85893 0.58182 0.82797 0.0
C707 C 0.87307 0.56714 0.8036 0.0
H708 H 0.22952 0.09804 0.60147 0.0
H709 H 0.18018 0.13584 0.52086 0.0
H710 H 0.20377 0.073 0.64062 0.0
H711 H 0.15429 0.11078 0.56112 0.0
H712 H 0.11722 0.07181 0.71823 0.0
H713 H 0.1421 0.0975 0.67593 0.0
H714 H 0.17736 0.04796 0.58633 0.0
H715 H 0.15246 0.02239 0.62757 0.0
C716 C 0.21316 0.10099 0.59212 0.0
C717 C 0.20684 0.11885 0.55799 0.0
C718 C 0.19845 0.08663 0.61436 0.0
C719 C 0.17708 0.08999 0.60388 0.0
C720 C 0.17069 0.10792 0.57012 0.0
C721 C 0.18547 0.12215 0.54681 0.0
C722 C 0.13029 0.06646 0.68947 0.0
C723 C 0.13295 0.04512 0.67628 0.0
C724 C 0.14441 0.08114 0.66499 0.0
C725 C 0.16162 0.07467 0.62795 0.0
C726 C 0.16429 0.05333 0.61507 0.0
C727 C 0.15002 0.03873 0.63854 0.0
H728 H 0.68083 0.37 0.47937 0.0
H729 H 0.7293 0.39888 0.36512 0.0
H730 H 0.65542 0.39492 0.43574 0.0
H731 H 0.70402 0.42393 0.32274 0.0
H732 H 0.65701 0.47964 0.34098 0.0
H733 H 0.68186 0.45346 0.37894 0.0
H734 H 0.63996 0.40446 0.31888 0.0
H735 H 0.61515 0.43072 0.27945 0.0
C736 C 0.68603 0.38166 0.44503 0.0
C737 C 0.70702 0.38255 0.42569 0.0
C738 C 0.6715 0.3958 0.41987 0.0
C739 C 0.67782 0.4113 0.376 0.0
C740 C 0.69879 0.41217 0.35672 0.0
C741 C 0.71321 0.39781 0.38085 0.0
C742 C 0.65314 0.46328 0.33556 0.0
C743 C 0.63418 0.45718 0.30718 0.0
C744 C 0.66737 0.44833 0.3571 0.0
C745 C 0.66277 0.42699 0.35184 0.0
C746 C 0.64379 0.42084 0.32371 0.0
C747 C 0.62969 0.43583 0.3009 0.0
H748 H 0.38655 0.93056 0.22097 0.0
H749 H 0.34838 0.97961 0.14039 0.0
H750 H 0.36162 0.90447 0.18118 0.0
H751 H 0.32331 0.95361 0.10223 0.0
H752 H 0.27354 0.90051 0.12186 0.0
H753 H 0.29895 0.92575 0.16268 0.0
H754 H 0.3481 0.8935 0.06109 0.0
H755 H 0.32258 0.86844 0.01874 0.0
C756 C 0.37279 0.93574 0.19518 0.0
C757 C 0.36937 0.95708 0.18373 0.0
C758 C 0.35863 0.92085 0.17221 0.0
C759 C 0.34061 0.9271 0.13877 0.0
C760 C 0.33706 0.94843 0.12816 0.0
C761 C 0.35141 0.96327 0.14982 0.0
C762 C 0.28977 0.8988 0.10826 0.0
C763 C 0.2961 0.88257 0.06702 0.0
C764 C 0.30425 0.91325 0.13147 0.0
C765 C 0.32542 0.9115 0.11501 0.0
C766 C 0.33186 0.89508 0.07468 0.0
C767 C 0.31728 0.88085 0.05028 0.0
H768 H 0.77384 0.40541 0.6025 0.0
H769 H 0.82305 0.36635 0.527 0.0
H770 H 0.79982 0.4303 0.64169 0.0
H771 H 0.8491 0.39116 0.56763 0.0
H772 H 0.88501 0.43044 0.72829 0.0
H773 H 0.85993 0.405 0.68569 0.0
H774 H 0.82785 0.45429 0.58419 0.0
H775 H 0.85307 0.47962 0.62542 0.0
C776 C 0.79021 0.40214 0.59439 0.0
C777 C 0.79645 0.38398 0.56161 0.0
C778 C 0.80504 0.4164 0.61664 0.0
C779 C 0.8264 0.41259 0.60766 0.0
C780 C 0.8327 0.39436 0.57538 0.0
C781 C 0.81782 0.38027 0.55191 0.0
C782 C 0.87263 0.43579 0.69675 0.0
C783 C 0.87096 0.45698 0.68017 0.0
C784 C 0.85838 0.42125 0.67219 0.0
C785 C 0.842 0.42775 0.63179 0.0
C786 C 0.8403 0.44893 0.61549 0.0
C787 C 0.85475 0.46338 0.63892 0.0
H788 H 0.28369 0.11879 0.33405 0.0
H789 H 0.31555 0.12067 0.51812 0.0
H790 H 0.30935 0.09392 0.29358 0.0
H791 H 0.34138 0.0959 0.47737 0.0
H792 H 0.36718 0.03276 0.40533 0.0
H793 H 0.34262 0.05876 0.44565 0.0
H794 H 0.34661 0.09182 0.26394 0.0
H795 H 0.37106 0.06567 0.22333 0.0
C796 C 0.29625 0.11397 0.36575 0.0
C797 C 0.29759 0.12165 0.42931 0.0
C798 C 0.31102 0.09982 0.34243 0.0
C799 C 0.32739 0.09293 0.38227 0.0
C800 C 0.32881 0.10074 0.44573 0.0
C801 C 0.31409 0.115 0.46895 0.0
C802 C 0.36283 0.04559 0.37402 0.0
C803 C 0.37101 0.04716 0.31111 0.0
C804 C 0.34887 0.06056 0.39728 0.0
C805 C 0.34268 0.07736 0.35802 0.0
C806 C 0.35091 0.07894 0.29512 0.0
C807 C 0.36498 0.06403 0.27198 0.0
H808 H 0.63403 0.5352 0.08653 0.0
H809 H 0.63225 0.5667 0.27121 0.0
H810 H 0.65866 0.5611 0.04615 0.0
H811 H 0.65674 0.59281 0.2305 0.0
H812 H 0.71969 0.61903 0.15822 0.0
H813 H 0.69367 0.59455 0.19872 0.0
H814 H 0.66078 0.59819 0.01664 0.0
H815 H 0.68699 0.62253 0.9758 0.0
C816 C 0.63882 0.54774 0.11838 0.0
C817 C 0.63125 0.5489 0.1821 0.0
C818 C 0.65283 0.56265 0.0951 0.0
C819 C 0.65966 0.57902 0.1351 0.0
C820 C 0.65195 0.58026 0.19872 0.0
C821 C 0.63785 0.56538 0.22193 0.0
C822 C 0.70687 0.61466 0.1269 0.0
C823 C 0.7054 0.62266 0.06376 0.0
C824 C 0.69189 0.60073 0.15026 0.0
C825 C 0.67515 0.59442 0.11092 0.0
C826 C 0.67361 0.60257 0.04789 0.0
C827 C 0.68856 0.61658 0.02461 0.0
H828 H 0.17993 0.86549 0.96856 0.0
H829 H 0.22905 0.9046 0.89277 0.0
H830 H 0.15382 0.89028 0.92805 0.0
H831 H 0.20303 0.92948 0.85381 0.0
H832 H 0.14974 0.97873 0.87092 0.0
H833 H 0.17487 0.95336 0.9124 0.0
H834 H 0.14312 0.90421 0.8092 0.0
H835 H 0.11814 0.92971 0.7663 0.0
C836 C 0.18512 0.87942 0.94361 0.0
C837 C 0.20648 0.88315 0.93377 0.0
C838 C 0.17022 0.89349 0.92023 0.0
C839 C 0.17648 0.91174 0.88796 0.0
C840 C 0.19783 0.91557 0.87884 0.0
C841 C 0.21268 0.90131 0.90096 0.0
C842 C 0.1481 0.96252 0.85711 0.0
C843 C 0.13204 0.95618 0.81525 0.0
C844 C 0.1625 0.94804 0.8807 0.0
C845 C 0.16087 0.92689 0.86395 0.0
C846 C 0.1446 0.92044 0.82304 0.0
C847 C 0.13042 0.93501 0.79831 0.0
loop_
_geom_bond_atom_site_label_1
_geom_bond_atom_site_label_2
_geom_bond_distance
_geom_bond_site_symmetry_2
_ccdc_geom_bond_type
In0 O1 2.294 1_554 S
In0 O2 2.326 . S
In0 O6 2.266 1_554 S
In0 O7 2.326 1_554 S
In0 O8 2.266 . S
In0 O9 2.326 . S
In0 O11 2.294 . S
In0 O12 2.326 1_554 S
O1 In0 2.294 1_556 S
O1 C10 1.240 1_556 S
O2 In0 2.326 . S
O2 C10 1.252 . S
C3 O6 1.252 . S
C3 O7 1.260 . S
C4 O11 1.240 1_556 S
C4 O12 1.252 . S
C5 O8 1.252 . S
C5 O9 1.260 . S
O6 In0 2.266 1_556 S
O6 C3 1.252 . S
O7 In0 2.326 1_556 S
O7 C3 1.260 . S
O8 In0 2.266 . S
O8 C5 1.252 . S
O9 In0 2.326 . S
O9 C5 1.260 . S
C10 O1 1.240 1_554 S
C10 O2 1.252 . S
O11 In0 2.294 . S
O11 C4 1.240 1_554 S
O12 In0 2.326 1_556 S
O12 C4 1.252 . S
In13 O14 2.294 . S
In13 O15 2.326 . S
In13 O19 2.266 . S
In13 O20 2.326 1_545 S
In13 O21 2.266 1_545 S
In13 O22 2.326 . S
In13 O24 2.294 1_545 S
In13 O25 2.326 1_545 S
O14 In13 2.294 . S
O14 C23 1.240 . S
O15 In13 2.326 . S
O15 C23 1.252 . S
C16 O19 1.253 . S
C16 O20 1.259 1_545 S
C17 O24 1.240 . S
C17 O25 1.252 . S
C18 O21 1.253 1_545 S
C18 O22 1.259 . S
O19 In13 2.266 . S
O19 C16 1.253 . S
O20 In13 2.326 1_565 S
O20 C16 1.259 1_565 S
O21 In13 2.266 1_565 S
O21 C18 1.253 1_565 S
O22 In13 2.326 . S
O22 C18 1.259 . S
C23 O14 1.240 . S
C23 O15 1.252 . S
O24 In13 2.294 1_565 S
O24 C17 1.240 . S
O25 In13 2.326 1_565 S
O25 C17 1.252 . S
In26 O27 2.294 . S
In26 O28 2.326 . S
In26 O32 2.266 . S
In26 O33 2.326 . S
In26 O34 2.266 . S
In26 O35 2.326 . S
In26 O37 2.294 . S
In26 O38 2.326 . S
O27 In26 2.294 . S
O27 C36 1.240 . S
O28 In26 2.326 . S
O28 C36 1.252 . S
C29 O32 1.252 . S
C29 O33 1.260 . S
C30 O37 1.240 . S
C30 O38 1.252 . S
C31 O34 1.252 . S
C31 O35 1.260 . S
O32 In26 2.266 . S
O32 C29 1.252 . S
O33 In26 2.326 . S
O33 C29 1.260 . S
O34 In26 2.266 . S
O34 C31 1.252 . S
O35 In26 2.326 . S
O35 C31 1.260 . S
C36 O27 1.240 . S
C36 O28 1.252 . S
O37 In26 2.294 . S
O37 C30 1.240 . S
O38 In26 2.326 . S
O38 C30 1.252 . S
In39 O40 2.294 . S
In39 O41 2.326 . S
In39 O45 2.266 . S
In39 O46 2.326 1_545 S
In39 O47 2.266 1_545 S
In39 O48 2.326 . S
In39 O50 2.294 1_545 S
In39 O51 2.326 1_545 S
O40 In39 2.294 . S
O40 C49 1.240 . S
O41 In39 2.326 . S
O41 C49 1.252 . S
C42 O45 1.253 . S
C42 O46 1.259 1_545 S
C43 O50 1.240 . S
C43 O51 1.252 . S
C44 O47 1.253 1_545 S
C44 O48 1.259 . S
O45 In39 2.266 . S
O45 C42 1.253 . S
O46 In39 2.326 1_565 S
O46 C42 1.259 1_565 S
O47 In39 2.266 1_565 S
O47 C44 1.253 1_565 S
O48 In39 2.326 . S
O48 C44 1.259 . S
C49 O40 1.240 . S
C49 O41 1.252 . S
O50 In39 2.294 1_565 S
O50 C43 1.240 . S
O51 In39 2.326 1_565 S
O51 C43 1.252 . S
In52 O53 2.294 1_554 S
In52 O54 2.326 . S
In52 O58 2.266 1_554 S
In52 O59 2.326 1_554 S
In52 O60 2.266 . S
In52 O61 2.326 . S
In52 O63 2.294 . S
In52 O64 2.326 1_554 S
O53 In52 2.294 1_556 S
O53 C62 1.240 1_556 S
O54 In52 2.326 . S
O54 C62 1.252 . S
C55 O58 1.252 . S
C55 O59 1.260 . S
C56 O63 1.240 1_556 S
C56 O64 1.252 . S
C57 O60 1.252 . S
C57 O61 1.260 . S
O58 In52 2.266 1_556 S
O58 C55 1.252 . S
O59 In52 2.326 1_556 S
O59 C55 1.260 . S
O60 In52 2.266 . S
O60 C57 1.252 . S
O61 In52 2.326 . S
O61 C57 1.260 . S
C62 O53 1.240 1_554 S
C62 O54 1.252 . S
O63 In52 2.294 . S
O63 C56 1.240 1_554 S
O64 In52 2.326 1_556 S
O64 C56 1.252 . S
In65 O66 2.294 . S
In65 O67 2.326 . S
In65 O71 2.266 . S
In65 O72 2.326 1_545 S
In65 O73 2.266 1_545 S
In65 O74 2.326 . S
In65 O76 2.294 1_545 S
In65 O77 2.326 1_545 S
O66 In65 2.294 . S
O66 C75 1.240 . S
O67 In65 2.326 . S
O67 C75 1.252 . S
C68 O71 1.253 . S
C68 O72 1.259 1_545 S
C69 O76 1.240 . S
C69 O77 1.252 . S
C70 O73 1.253 1_545 S
C70 O74 1.259 . S
O71 In65 2.266 . S
O71 C68 1.253 . S
O72 In65 2.326 1_565 S
O72 C68 1.259 1_565 S
O73 In65 2.266 1_565 S
O73 C70 1.253 1_565 S
O74 In65 2.326 . S
O74 C70 1.259 . S
C75 O66 1.240 . S
C75 O67 1.252 . S
O76 In65 2.294 1_565 S
O76 C69 1.240 . S
O77 In65 2.326 1_565 S
O77 C69 1.252 . S
In78 O79 2.294 . S
In78 O80 2.326 . S
In78 O84 2.266 . S
In78 O85 2.326 . S
In78 O86 2.266 . S
In78 O87 2.326 . S
In78 O89 2.294 . S
In78 O90 2.326 . S
O79 In78 2.294 . S
O79 C88 1.240 . S
O80 In78 2.326 . S
O80 C88 1.252 . S
C81 O84 1.252 . S
C81 O85 1.260 . S
C82 O89 1.240 . S
C82 O90 1.252 . S
C83 O86 1.252 . S
C83 O87 1.260 . S
O84 In78 2.266 . S
O84 C81 1.252 . S
O85 In78 2.326 . S
O85 C81 1.260 . S
O86 In78 2.266 . S
O86 C83 1.252 . S
O87 In78 2.326 . S
O87 C83 1.260 . S
C88 O79 1.240 . S
C88 O80 1.252 . S
O89 In78 2.294 . S
O89 C82 1.240 . S
O90 In78 2.326 . S
O90 C82 1.252 . S
In91 O92 2.294 1_545 S
In91 O93 2.326 1_545 S
In91 O97 2.266 1_545 S
In91 O98 2.326 . S
In91 O99 2.266 . S
In91 O100 2.326 1_545 S
In91 O102 2.294 . S
In91 O103 2.326 . S
O92 In91 2.294 1_565 S
O92 C101 1.240 . S
O93 In91 2.326 1_565 S
O93 C101 1.252 . S
C94 O97 1.253 1_545 S
C94 O98 1.259 . S
C95 O102 1.240 . S
C95 O103 1.252 . S
C96 O99 1.253 . S
C96 O100 1.259 1_545 S
O97 In91 2.266 1_565 S
O97 C94 1.253 1_565 S
O98 In91 2.326 . S
O98 C94 1.259 . S
O99 In91 2.266 . S
O99 C96 1.253 . S
O100 In91 2.326 1_565 S
O100 C96 1.259 1_565 S
C101 O92 1.240 . S
C101 O93 1.252 . S
O102 In91 2.294 . S
O102 C95 1.240 . S
O103 In91 2.326 . S
O103 C95 1.252 . S
In104 O105 2.294 . S
In104 O106 2.326 . S
In104 O110 2.266 . S
In104 O111 2.326 . S
In104 O112 2.266 . S
In104 O113 2.326 . S
In104 O115 2.294 . S
In104 O116 2.326 . S
O105 In104 2.294 . S
O105 C114 1.240 . S
O106 In104 2.326 . S
O106 C114 1.252 . S
C107 O110 1.252 . S
C107 O111 1.260 . S
C108 O115 1.240 . S
C108 O116 1.252 . S
C109 O112 1.252 . S
C109 O113 1.260 . S
O110 In104 2.266 . S
O110 C107 1.252 . S
O111 In104 2.326 . S
O111 C107 1.260 . S
O112 In104 2.266 . S
O112 C109 1.252 . S
O113 In104 2.326 . S
O113 C109 1.260 . S
C114 O105 1.240 . S
C114 O106 1.252 . S
O115 In104 2.294 . S
O115 C108 1.240 . S
O116 In104 2.326 . S
O116 C108 1.252 . S
In117 O118 2.294 . S
In117 O119 2.326 . S
In117 O123 2.266 . S
In117 O124 2.326 . S
In117 O125 2.266 . S
In117 O126 2.326 . S
In117 O128 2.294 . S
In117 O129 2.326 . S
O118 In117 2.294 . S
O118 C127 1.240 . S
O119 In117 2.326 . S
O119 C127 1.252 . S
C120 O123 1.252 . S
C120 O124 1.260 . S
C121 O128 1.240 . S
C121 O129 1.252 . S
C122 O125 1.252 . S
C122 O126 1.260 . S
O123 In117 2.266 . S
O123 C120 1.252 . S
O124 In117 2.326 . S
O124 C120 1.260 . S
O125 In117 2.266 . S
O125 C122 1.252 . S
O126 In117 2.326 . S
O126 C122 1.260 . S
C127 O118 1.240 . S
C127 O119 1.252 . S
O128 In117 2.294 . S
O128 C121 1.240 . S
O129 In117 2.326 . S
O129 C121 1.252 . S
In130 O131 2.294 1_554 S
In130 O132 2.326 . S
In130 O136 2.266 1_554 S
In130 O137 2.326 1_554 S
In130 O138 2.266 . S
In130 O139 2.326 . S
In130 O141 2.294 . S
In130 O142 2.326 1_554 S
O131 In130 2.294 1_556 S
O131 C140 1.240 1_556 S
O132 In130 2.326 . S
O132 C140 1.252 . S
C133 O136 1.252 . S
C133 O137 1.260 . S
C134 O141 1.240 1_556 S
C134 O142 1.252 . S
C135 O138 1.252 . S
C135 O139 1.260 . S
O136 In130 2.266 1_556 S
O136 C133 1.252 . S
O137 In130 2.326 1_556 S
O137 C133 1.260 . S
O138 In130 2.266 . S
O138 C135 1.252 . S
O139 In130 2.326 . S
O139 C135 1.260 . S
C140 O131 1.240 1_554 S
C140 O132 1.252 . S
O141 In130 2.294 . S
O141 C134 1.240 1_554 S
O142 In130 2.326 1_556 S
O142 C134 1.252 . S
In143 O144 2.294 . S
In143 O145 2.326 . S
In143 O149 2.266 . S
In143 O150 2.326 . S
In143 O151 2.266 . S
In143 O152 2.326 . S
In143 O154 2.294 . S
In143 O155 2.326 . S
O144 In143 2.294 . S
O144 C153 1.240 . S
O145 In143 2.326 . S
O145 C153 1.252 . S
C146 O149 1.252 . S
C146 O150 1.260 . S
C147 O154 1.240 . S
C147 O155 1.252 . S
C148 O151 1.252 . S
C148 O152 1.260 . S
O149 In143 2.266 . S
O149 C146 1.252 . S
O150 In143 2.326 . S
O150 C146 1.260 . S
O151 In143 2.266 . S
O151 C148 1.252 . S
O152 In143 2.326 . S
O152 C148 1.260 . S
C153 O144 1.240 . S
C153 O145 1.252 . S
O154 In143 2.294 . S
O154 C147 1.240 . S
O155 In143 2.326 . S
O155 C147 1.252 . S
In156 O157 2.294 . S
In156 O158 2.326 . S
In156 O162 2.266 . S
In156 O163 2.326 . S
In156 O164 2.266 . S
In156 O165 2.326 . S
In156 O167 2.294 . S
In156 O168 2.326 . S
O157 In156 2.294 . S
O157 C166 1.240 . S
O158 In156 2.326 . S
O158 C166 1.252 . S
C159 O162 1.252 . S
C159 O163 1.260 . S
C160 O167 1.240 . S
C160 O168 1.252 . S
C161 O164 1.252 . S
C161 O165 1.260 . S
O162 In156 2.266 . S
O162 C159 1.252 . S
O163 In156 2.326 . S
O163 C159 1.260 . S
O164 In156 2.266 . S
O164 C161 1.252 . S
O165 In156 2.326 . S
O165 C161 1.260 . S
C166 O157 1.240 . S
C166 O158 1.252 . S
O167 In156 2.294 . S
O167 C160 1.240 . S
O168 In156 2.326 . S
O168 C160 1.252 . S
In169 O170 2.294 . S
In169 O171 2.326 . S
In169 O175 2.266 . S
In169 O176 2.326 . S
In169 O177 2.266 . S
In169 O178 2.326 . S
In169 O180 2.294 . S
In169 O181 2.326 . S
O170 In169 2.294 . S
O170 C179 1.240 . S
O171 In169 2.326 . S
O171 C179 1.252 . S
C172 O175 1.252 . S
C172 O176 1.260 . S
C173 O180 1.240 . S
C173 O181 1.252 . S
C174 O177 1.252 . S
C174 O178 1.260 . S
O175 In169 2.266 . S
O175 C172 1.252 . S
O176 In169 2.326 . S
O176 C172 1.260 . S
O177 In169 2.266 . S
O177 C174 1.252 . S
O178 In169 2.326 . S
O178 C174 1.260 . S
C179 O170 1.240 . S
C179 O171 1.252 . S
O180 In169 2.294 . S
O180 C173 1.240 . S
O181 In169 2.326 . S
O181 C173 1.252 . S
In182 O183 2.294 . S
In182 O184 2.326 1_554 S
In182 O188 2.266 . S
In182 O189 2.326 . S
In182 O190 2.266 1_554 S
In182 O191 2.326 1_554 S
In182 O193 2.294 1_554 S
In182 O194 2.326 . S
O183 In182 2.294 . S
O183 C192 1.240 1_554 S
O184 In182 2.326 1_556 S
O184 C192 1.252 . S
C185 O188 1.252 . S
C185 O189 1.260 . S
C186 O193 1.240 1_554 S
C186 O194 1.252 . S
C187 O190 1.252 . S
C187 O191 1.260 . S
O188 In182 2.266 . S
O188 C185 1.252 . S
O189 In182 2.326 . S
O189 C185 1.260 . S
O190 In182 2.266 1_556 S
O190 C187 1.252 . S
O191 In182 2.326 1_556 S
O191 C187 1.260 . S
C192 O183 1.240 1_556 S
C192 O184 1.252 . S
O193 In182 2.294 1_556 S
O193 C186 1.240 1_556 S
O194 In182 2.326 . S
O194 C186 1.252 . S
In195 O196 2.294 . S
In195 O197 2.326 . S
In195 O201 2.266 . S
In195 O202 2.326 . S
In195 O203 2.266 . S
In195 O204 2.326 . S
In195 O206 2.294 . S
In195 O207 2.326 . S
O196 In195 2.294 . S
O196 C205 1.240 . S
O197 In195 2.326 . S
O197 C205 1.252 . S
C198 O201 1.252 . S
C198 O202 1.260 . S
C199 O206 1.240 . S
C199 O207 1.252 . S
C200 O203 1.252 . S
C200 O204 1.260 . S
O201 In195 2.266 . S
O201 C198 1.252 . S
O202 In195 2.326 . S
O202 C198 1.260 . S
O203 In195 2.266 . S
O203 C200 1.252 . S
O204 In195 2.326 . S
O204 C200 1.260 . S
C205 O196 1.240 . S
C205 O197 1.252 . S
O206 In195 2.294 . S
O206 C199 1.240 . S
O207 In195 2.326 . S
O207 C199 1.252 . S
H208 C216 0.950 . S
H209 C221 0.950 . S
H210 C218 0.950 . S
H211 C220 0.950 . S
H212 C222 0.950 . S
H213 C224 0.950 . S
H214 C226 0.950 . S
H215 C227 0.950 . S
C216 H208 0.950 . S
C216 C217 1.386 . S
C216 C218 1.391 . S
C217 C216 1.386 . S
C217 C221 1.393 . S
C218 H210 0.950 . S
C218 C216 1.391 . S
C218 C219 1.400 . S
C219 C218 1.400 . S
C219 C220 1.398 . S
C219 C225 1.491 . S
C220 H211 0.950 . S
C220 C219 1.398 . S
C220 C221 1.391 . S
C221 H209 0.950 . S
C221 C217 1.393 . S
C221 C220 1.391 . S
C222 H212 0.950 . S
C222 C223 1.386 . S
C222 C224 1.391 . S
C223 C222 1.386 . S
C223 C227 1.393 . S
C224 H213 0.950 . S
C224 C222 1.391 . S
C224 C225 1.400 . S
C225 C219 1.491 . S
C225 C224 1.400 . S
C225 C226 1.398 . S
C226 H214 0.950 . S
C226 C225 1.398 . S
C226 C227 1.391 . S
C227 H215 0.950 . S
C227 C223 1.393 . S
C227 C226 1.391 . S
H228 C236 0.950 . S
H229 C241 0.950 . S
H230 C238 0.938 1_455 S
H231 C240 0.950 . S
H232 C242 0.950 . S
H233 C244 0.938 1_655 S
H234 C246 0.950 . S
H235 C247 0.950 . S
C236 H228 0.950 . S
C236 C237 1.421 . S
C236 C238 1.391 . S
C237 C236 1.421 . S
C237 C241 1.359 1_545 S
C238 H230 0.938 1_655 S
C238 C236 1.391 . S
C238 C239 1.413 . S
C239 C238 1.413 . S
C239 C240 1.386 1_545 S
C239 C245 1.490 1_645 S
C240 H231 0.950 . S
C240 C239 1.386 1_565 S
C240 C241 1.391 . S
C241 H229 0.950 . S
C241 C237 1.359 1_565 S
C241 C240 1.391 . S
C242 H232 0.950 . S
C242 C243 1.412 . S
C242 C244 1.391 . S
C243 C242 1.412 . S
C243 C247 1.367 1_565 S
C244 H233 0.938 1_455 S
C244 C242 1.391 . S
C244 C245 1.404 . S
C245 C239 1.490 1_465 S
C245 C244 1.404 . S
C245 C246 1.394 1_565 S
C246 H234 0.950 . S
C246 C245 1.394 1_545 S
C246 C247 1.391 . S
C247 H235 0.950 . S
C247 C243 1.367 1_545 S
C247 C246 1.391 . S
H248 C256 0.950 . S
H249 C261 0.950 . S
H250 C258 0.950 . S
H251 C260 0.950 . S
H252 C262 0.950 . S
H253 C264 0.950 . S
H254 C266 0.950 . S
H255 C267 0.950 . S
C256 H248 0.950 . S
C256 C257 1.386 . S
C256 C258 1.391 . S
C257 C256 1.386 . S
C257 C261 1.393 . S
C258 H250 0.950 . S
C258 C256 1.391 . S
C258 C259 1.400 . S
C259 C258 1.400 . S
C259 C260 1.398 . S
C259 C265 1.491 . S
C260 H251 0.950 . S
C260 C259 1.398 . S
C260 C261 1.391 . S
C261 H249 0.950 . S
C261 C257 1.393 . S
C261 C260 1.391 . S
C262 H252 0.950 . S
C262 C263 1.386 . S
C262 C264 1.391 . S
C263 C262 1.386 . S
C263 C267 1.393 . S
C264 H253 0.950 . S
C264 C262 1.391 . S
C264 C265 1.400 . S
C265 C259 1.491 . S
C265 C264 1.400 . S
C265 C266 1.398 . S
C266 H254 0.950 . S
C266 C265 1.398 . S
C266 C267 1.391 . S
C267 H255 0.950 . S
C267 C263 1.393 . S
C267 C266 1.391 . S
H268 C276 0.950 . S
H269 C281 0.950 . S
H270 C278 0.950 . S
H271 C280 0.950 1_556 S
H272 C282 0.950 . S
H273 C284 0.950 . S
H274 C286 0.950 1_554 S
H275 C287 0.950 . S
C276 H268 0.950 . S
C276 C277 1.385 1_565 S
C276 C278 1.391 . S
C277 C276 1.385 1_545 S
C277 C281 1.393 . S
C278 H270 0.950 . S
C278 C276 1.391 . S
C278 C279 1.397 . S
C279 C278 1.397 . S
C279 C280 1.401 1_565 S
C279 C285 1.491 1_564 S
C280 H271 0.950 1_554 S
C280 C279 1.401 1_545 S
C280 C281 1.391 . S
C281 H269 0.950 . S
C281 C277 1.393 . S
C281 C280 1.391 . S
C282 H272 0.950 . S
C282 C283 1.385 . S
C282 C284 1.391 . S
C283 C282 1.385 . S
C283 C287 1.393 1_545 S
C284 H273 0.950 . S
C284 C282 1.391 . S
C284 C285 1.406 . S
C285 C279 1.491 1_546 S
C285 C284 1.406 . S
C285 C286 1.393 1_545 S
C286 H274 0.950 1_556 S
C286 C285 1.393 1_565 S
C286 C287 1.391 . S
C287 H275 0.950 . S
C287 C283 1.393 1_565 S
C287 C286 1.391 . S
H288 C296 0.950 . S
H289 C301 0.950 . S
H290 C298 0.950 . S
H291 C300 0.950 . S
H292 C302 0.950 . S
H293 C304 0.950 . S
H294 C306 0.950 . S
H295 C307 0.950 . S
C296 H288 0.950 . S
C296 C297 1.386 . S
C296 C298 1.391 . S
C297 C296 1.386 . S
C297 C301 1.393 . S
C298 H290 0.950 . S
C298 C296 1.391 . S
C298 C299 1.400 . S
C299 C298 1.400 . S
C299 C300 1.398 . S
C299 C305 1.491 . S
C300 H291 0.950 . S
C300 C299 1.398 . S
C300 C301 1.391 . S
C301 H289 0.950 . S
C301 C297 1.393 . S
C301 C300 1.391 . S
C302 H292 0.950 . S
C302 C303 1.386 . S
C302 C304 1.391 . S
C303 C302 1.386 . S
C303 C307 1.393 . S
C304 H293 0.950 . S
C304 C302 1.391 . S
C304 C305 1.400 . S
C305 C299 1.491 . S
C305 C304 1.400 . S
C305 C306 1.398 . S
C306 H294 0.950 . S
C306 C305 1.398 . S
C306 C307 1.391 . S
C307 H295 0.950 . S
C307 C303 1.393 . S
C307 C306 1.391 . S
H308 C316 0.950 . S
H309 C321 0.950 . S
H310 C318 0.950 . S
H311 C320 0.950 . S
H312 C322 0.950 . S
H313 C324 0.950 . S
H314 C326 0.950 . S
H315 C327 0.950 . S
C316 H308 0.950 . S
C316 C317 1.386 . S
C316 C318 1.392 . S
C317 C316 1.386 . S
C317 C321 1.393 . S
C318 H310 0.950 . S
C318 C316 1.392 . S
C318 C319 1.400 . S
C319 C318 1.400 . S
C319 C320 1.399 . S
C319 C325 1.489 1_565 S
C320 H311 0.950 . S
C320 C319 1.399 . S
C320 C321 1.391 . S
C321 H309 0.950 . S
C321 C317 1.393 . S
C321 C320 1.391 . S
C322 H312 0.950 . S
C322 C323 1.386 . S
C322 C324 1.393 . S
C323 C322 1.386 . S
C323 C327 1.393 . S
C324 H313 0.950 . S
C324 C322 1.393 . S
C324 C325 1.400 . S
C325 C319 1.489 1_545 S
C325 C324 1.400 . S
C325 C326 1.400 . S
C326 H314 0.950 . S
C326 C325 1.400 . S
C326 C327 1.391 . S
C327 H315 0.950 . S
C327 C323 1.393 . S
C327 C326 1.391 . S
H328 C336 0.950 . S
H329 C341 0.950 . S
H330 C338 0.950 . S
H331 C340 0.950 . S
H332 C342 0.950 . S
H333 C344 0.950 . S
H334 C346 0.950 . S
H335 C347 0.950 . S
C336 H328 0.950 . S
C336 C337 1.386 . S
C336 C338 1.391 . S
C337 C336 1.386 . S
C337 C341 1.393 . S
C338 H330 0.950 . S
C338 C336 1.391 . S
C338 C339 1.400 . S
C339 C338 1.400 . S
C339 C340 1.398 . S
C339 C345 1.491 . S
C340 H331 0.950 . S
C340 C339 1.398 . S
C340 C341 1.391 . S
C341 H329 0.950 . S
C341 C337 1.393 . S
C341 C340 1.391 . S
C342 H332 0.950 . S
C342 C343 1.386 . S
C342 C344 1.391 . S
C343 C342 1.386 . S
C343 C347 1.393 . S
C344 H333 0.950 . S
C344 C342 1.391 . S
C344 C345 1.400 . S
C345 C339 1.491 . S
C345 C344 1.400 . S
C345 C346 1.398 . S
C346 H334 0.950 . S
C346 C345 1.398 . S
C346 C347 1.391 . S
C347 H335 0.950 . S
C347 C343 1.393 . S
C347 C346 1.391 . S
H348 C356 0.950 . S
H349 C361 0.950 . S
H350 C358 0.950 1_655 S
H351 C360 0.950 1_554 S
H352 C362 0.950 . S
H353 C364 0.950 1_455 S
H354 C366 0.950 1_556 S
H355 C367 0.950 . S
C356 H348 0.950 . S
C356 C357 1.387 . S
C356 C358 1.391 . S
C357 C356 1.387 . S
C357 C361 1.391 1_565 S
C358 H350 0.950 1_455 S
C358 C356 1.391 . S
C358 C359 1.401 . S
C359 C358 1.401 . S
C359 C360 1.397 1_565 S
C359 C365 1.490 1_466 S
C360 H351 0.950 1_556 S
C360 C359 1.397 1_545 S
C360 C361 1.391 . S
C361 H349 0.950 . S
C361 C357 1.391 1_545 S
C361 C360 1.391 . S
C362 H352 0.950 . S
C362 C363 1.390 . S
C362 C364 1.391 . S
C363 C362 1.390 . S
C363 C367 1.389 1_545 S
C364 H353 0.950 1_655 S
C364 C362 1.391 . S
C364 C365 1.405 . S
C365 C359 1.490 1_644 S
C365 C364 1.405 . S
C365 C366 1.395 1_545 S
C366 H354 0.950 1_554 S
C366 C365 1.395 1_565 S
C366 C367 1.391 . S
C367 H355 0.950 . S
C367 C363 1.389 1_565 S
C367 C366 1.391 . S
H368 C376 0.950 . S
H369 C381 0.950 . S
H370 C378 0.950 . S
H371 C380 0.950 . S
H372 C382 0.950 . S
H373 C384 0.950 . S
H374 C386 0.950 . S
H375 C387 0.950 . S
C376 H368 0.950 . S
C376 C377 1.386 . S
C376 C378 1.391 . S
C377 C376 1.386 . S
C377 C381 1.393 . S
C378 H370 0.950 . S
C378 C376 1.391 . S
C378 C379 1.400 . S
C379 C378 1.400 . S
C379 C380 1.398 . S
C379 C385 1.491 . S
C380 H371 0.950 . S
C380 C379 1.398 . S
C380 C381 1.391 . S
C381 H369 0.950 . S
C381 C377 1.393 . S
C381 C380 1.391 . S
C382 H372 0.950 . S
C382 C383 1.386 . S
C382 C384 1.391 . S
C383 C382 1.386 . S
C383 C387 1.393 . S
C384 H373 0.950 . S
C384 C382 1.391 . S
C384 C385 1.400 . S
C385 C379 1.491 . S
C385 C384 1.400 . S
C385 C386 1.398 . S
C386 H374 0.950 . S
C386 C385 1.398 . S
C386 C387 1.391 . S
C387 H375 0.950 . S
C387 C383 1.393 . S
C387 C386 1.391 . S
H388 C396 0.950 . S
H389 C401 0.950 . S
H390 C398 0.950 . S
H391 C400 0.950 . S
H392 C402 0.950 . S
H393 C404 0.950 . S
H394 C406 0.950 . S
H395 C407 0.950 . S
C396 H388 0.950 . S
C396 C397 1.386 . S
C396 C398 1.391 . S
C397 C396 1.386 . S
C397 C401 1.393 . S
C398 H390 0.950 . S
C398 C396 1.391 . S
C398 C399 1.400 . S
C399 C398 1.400 . S
C399 C400 1.398 . S
C399 C405 1.491 . S
C400 H391 0.950 . S
C400 C399 1.398 . S
C400 C401 1.391 . S
C401 H389 0.950 . S
C401 C397 1.393 . S
C401 C400 1.391 . S
C402 H392 0.950 . S
C402 C403 1.386 . S
C402 C404 1.391 . S
C403 C402 1.386 . S
C403 C407 1.393 . S
C404 H393 0.950 . S
C404 C402 1.391 . S
C404 C405 1.400 . S
C405 C399 1.491 . S
C405 C404 1.400 . S
C405 C406 1.398 . S
C406 H394 0.950 . S
C406 C405 1.398 . S
C406 C407 1.391 . S
C407 H395 0.950 . S
C407 C403 1.393 . S
C407 C406 1.391 . S
H408 C416 0.950 . S
H409 C421 0.950 . S
H410 C418 0.950 . S
H411 C420 0.950 . S
H412 C422 0.950 . S
H413 C424 0.950 . S
H414 C426 0.950 . S
H415 C427 0.950 . S
C416 H408 0.950 . S
C416 C417 1.386 . S
C416 C418 1.391 . S
C417 C416 1.386 . S
C417 C421 1.393 . S
C418 H410 0.950 . S
C418 C416 1.391 . S
C418 C419 1.400 . S
C419 C418 1.400 . S
C419 C420 1.398 . S
C419 C425 1.491 . S
C420 H411 0.950 . S
C420 C419 1.398 . S
C420 C421 1.391 . S
C421 H409 0.950 . S
C421 C417 1.393 . S
C421 C420 1.391 . S
C422 H412 0.950 . S
C422 C423 1.386 . S
C422 C424 1.391 . S
C423 C422 1.386 . S
C423 C427 1.393 . S
C424 H413 0.950 . S
C424 C422 1.391 . S
C424 C425 1.400 . S
C425 C419 1.491 . S
C425 C424 1.400 . S
C425 C426 1.398 . S
C426 H414 0.950 . S
C426 C425 1.398 . S
C426 C427 1.391 . S
C427 H415 0.950 . S
C427 C423 1.393 . S
C427 C426 1.391 . S
H428 C436 0.950 . S
H429 C441 0.950 . S
H430 C438 0.950 . S
H431 C440 0.950 . S
H432 C442 0.950 . S
H433 C444 0.950 . S
H434 C446 0.950 . S
H435 C447 0.950 . S
C436 H428 0.950 . S
C436 C437 1.386 . S
C436 C438 1.391 . S
C437 C436 1.386 . S
C437 C441 1.393 . S
C438 H430 0.950 . S
C438 C436 1.391 . S
C438 C439 1.400 . S
C439 C438 1.400 . S
C439 C440 1.398 . S
C439 C445 1.491 . S
C440 H431 0.950 . S
C440 C439 1.398 . S
C440 C441 1.391 . S
C441 H429 0.950 . S
C441 C437 1.393 . S
C441 C440 1.391 . S
C442 H432 0.950 . S
C442 C443 1.386 . S
C442 C444 1.391 . S
C443 C442 1.386 . S
C443 C447 1.393 . S
C444 H433 0.950 . S
C444 C442 1.391 . S
C444 C445 1.400 . S
C445 C439 1.491 . S
C445 C444 1.400 . S
C445 C446 1.398 . S
C446 H434 0.950 . S
C446 C445 1.398 . S
C446 C447 1.391 . S
C447 H435 0.950 . S
C447 C443 1.393 . S
C447 C446 1.391 . S
H448 C456 0.950 . S
H449 C461 0.950 . S
H450 C458 0.950 . S
H451 C460 0.950 . S
H452 C462 0.950 . S
H453 C464 0.950 . S
H454 C466 0.950 . S
H455 C467 0.950 . S
C456 H448 0.950 . S
C456 C457 1.386 . S
C456 C458 1.391 . S
C457 C456 1.386 . S
C457 C461 1.393 . S
C458 H450 0.950 . S
C458 C456 1.391 . S
C458 C459 1.400 . S
C459 C458 1.400 . S
C459 C460 1.398 . S
C459 C465 1.491 1_554 S
C460 H451 0.950 . S
C460 C459 1.398 . S
C460 C461 1.391 . S
C461 H449 0.950 . S
C461 C457 1.393 . S
C461 C460 1.391 . S
C462 H452 0.950 . S
C462 C463 1.386 . S
C462 C464 1.391 . S
C463 C462 1.386 . S
C463 C467 1.393 . S
C464 H453 0.950 . S
C464 C462 1.391 . S
C464 C465 1.400 . S
C465 C459 1.491 1_556 S
C465 C464 1.400 . S
C465 C466 1.398 . S
C466 H454 0.950 . S
C466 C465 1.398 . S
C466 C467 1.391 . S
C467 H455 0.950 . S
C467 C463 1.393 . S
C467 C466 1.391 . S
H468 C476 0.950 . S
H469 C481 0.950 . S
H470 C478 0.950 . S
H471 C480 0.944 1_655 S
H472 C482 0.950 . S
H473 C484 0.950 . S
H474 C486 0.944 1_455 S
H475 C487 0.950 . S
C476 H468 0.950 . S
C476 C477 1.386 . S
C476 C478 1.391 . S
C477 C476 1.386 . S
C477 C481 1.393 . S
C478 H470 0.950 . S
C478 C476 1.391 . S
C478 C479 1.400 . S
C479 C478 1.400 . S
C479 C480 1.398 . S
C479 C485 1.491 1_455 S
C480 H471 0.944 1_455 S
C480 C479 1.398 . S
C480 C481 1.391 . S
C481 H469 0.950 . S
C481 C477 1.393 . S
C481 C480 1.391 . S
C482 H472 0.950 . S
C482 C483 1.386 . S
C482 C484 1.391 . S
C483 C482 1.386 . S
C483 C487 1.393 . S
C484 H473 0.950 . S
C484 C482 1.391 . S
C484 C485 1.400 . S
C485 C479 1.491 1_655 S
C485 C484 1.400 . S
C485 C486 1.398 . S
C486 H474 0.944 1_655 S
C486 C485 1.398 . S
C486 C487 1.391 . S
C487 H475 0.950 . S
C487 C483 1.393 . S
C487 C486 1.391 . S
H488 C496 0.950 . S
H489 C501 0.950 . S
H490 C498 0.950 1_556 S
H491 C500 0.950 . S
H492 C502 0.950 . S
H493 C504 0.950 1_554 S
H494 C506 0.950 . S
H495 C507 0.950 . S
C496 H488 0.950 . S
C496 C497 1.386 . S
C496 C498 1.391 . S
C497 C496 1.386 . S
C497 C501 1.393 . S
C498 H490 0.950 1_554 S
C498 C496 1.391 . S
C498 C499 1.400 . S
C499 C498 1.400 . S
C499 C500 1.398 . S
C499 C505 1.491 1_454 S
C500 H491 0.950 . S
C500 C499 1.398 . S
C500 C501 1.391 . S
C501 H489 0.950 . S
C501 C497 1.393 . S
C501 C500 1.391 . S
C502 H492 0.950 . S
C502 C503 1.386 . S
C502 C504 1.391 . S
C503 C502 1.386 . S
C503 C507 1.393 . S
C504 H493 0.950 1_556 S
C504 C502 1.391 . S
C504 C505 1.400 . S
C505 C499 1.491 1_656 S
C505 C504 1.400 . S
C505 C506 1.398 . S
C506 H494 0.950 . S
C506 C505 1.398 . S
C506 C507 1.391 . S
C507 H495 0.950 . S
C507 C503 1.393 . S
C507 C506 1.391 . S
H508 C516 0.950 . S
H509 C521 0.950 . S
H510 C518 0.950 . S
H511 C520 0.950 . S
H512 C522 0.950 . S
H513 C524 0.950 . S
H514 C526 0.950 . S
H515 C527 0.950 . S
C516 H508 0.950 . S
C516 C517 1.386 . S
C516 C518 1.391 . S
C517 C516 1.386 . S
C517 C521 1.393 . S
C518 H510 0.950 . S
C518 C516 1.391 . S
C518 C519 1.400 . S
C519 C518 1.400 . S
C519 C520 1.398 . S
C519 C525 1.491 . S
C520 H511 0.950 . S
C520 C519 1.398 . S
C520 C521 1.391 . S
C521 H509 0.950 . S
C521 C517 1.393 . S
C521 C520 1.391 . S
C522 H512 0.950 . S
C522 C523 1.386 . S
C522 C524 1.391 . S
C523 C522 1.386 . S
C523 C527 1.393 . S
C524 H513 0.950 . S
C524 C522 1.391 . S
C524 C525 1.400 . S
C525 C519 1.491 . S
C525 C524 1.400 . S
C525 C526 1.398 . S
C526 H514 0.950 . S
C526 C525 1.398 . S
C526 C527 1.391 . S
C527 H515 0.950 . S
C527 C523 1.393 . S
C527 C526 1.391 . S
H528 C536 0.950 . S
H529 C541 0.950 . S
H530 C538 0.950 . S
H531 C540 0.950 . S
H532 C542 0.950 1_556 S
H533 C544 0.950 . S
H534 C546 0.950 . S
H535 C547 0.950 . S
C536 H528 0.950 . S
C536 C537 1.386 . S
C536 C538 1.391 . S
C537 C536 1.386 . S
C537 C541 1.393 . S
C538 H530 0.950 . S
C538 C536 1.391 . S
C538 C539 1.400 . S
C539 C538 1.400 . S
C539 C540 1.398 . S
C539 C545 1.491 . S
C540 H531 0.950 . S
C540 C539 1.398 . S
C540 C541 1.391 . S
C541 H529 0.950 . S
C541 C537 1.393 . S
C541 C540 1.391 . S
C542 H532 0.950 1_554 S
C542 C543 1.386 . S
C542 C544 1.391 . S
C543 C542 1.386 . S
C543 C547 1.393 . S
C544 H533 0.950 . S
C544 C542 1.391 . S
C544 C545 1.400 . S
C545 C539 1.491 . S
C545 C544 1.400 . S
C545 C546 1.398 . S
C546 H534 0.950 . S
C546 C545 1.398 . S
C546 C547 1.391 . S
C547 H535 0.950 . S
C547 C543 1.393 . S
C547 C546 1.391 . S
H548 C556 0.950 . S
H549 C561 0.950 . S
H550 C558 0.950 . S
H551 C560 0.950 . S
H552 C562 0.950 . S
H553 C564 0.950 . S
H554 C566 0.950 . S
H555 C567 0.950 . S
C556 H548 0.950 . S
C556 C557 1.386 . S
C556 C558 1.391 . S
C557 C556 1.386 . S
C557 C561 1.393 . S
C558 H550 0.950 . S
C558 C556 1.391 . S
C558 C559 1.400 . S
C559 C558 1.400 . S
C559 C560 1.398 . S
C559 C565 1.491 . S
C560 H551 0.950 . S
C560 C559 1.398 . S
C560 C561 1.391 . S
C561 H549 0.950 . S
C561 C557 1.393 . S
C561 C560 1.391 . S
C562 H552 0.950 . S
C562 C563 1.386 . S
C562 C564 1.391 . S
C563 C562 1.386 . S
C563 C567 1.393 . S
C564 H553 0.950 . S
C564 C562 1.391 . S
C564 C565 1.400 . S
C565 C559 1.491 . S
C565 C564 1.400 . S
C565 C566 1.398 . S
C566 H554 0.950 . S
C566 C565 1.398 . S
C566 C567 1.391 . S
C567 H555 0.950 . S
C567 C563 1.393 . S
C567 C566 1.391 . S
H568 C576 0.950 . S
H569 C581 0.950 . S
H570 C578 0.950 . S
H571 C580 0.950 . S
H572 C582 0.950 . S
H573 C584 0.950 . S
H574 C586 0.950 . S
H575 C587 0.950 . S
C576 H568 0.950 . S
C576 C577 1.386 . S
C576 C578 1.391 . S
C577 C576 1.386 . S
C577 C581 1.393 . S
C578 H570 0.950 . S
C578 C576 1.391 . S
C578 C579 1.400 . S
C579 C578 1.400 . S
C579 C580 1.398 . S
C579 C585 1.491 . S
C580 H571 0.950 . S
C580 C579 1.398 . S
C580 C581 1.391 . S
C581 H569 0.950 . S
C581 C577 1.393 . S
C581 C580 1.391 . S
C582 H572 0.950 . S
C582 C583 1.386 . S
C582 C584 1.391 . S
C583 C582 1.386 . S
C583 C587 1.393 . S
C584 H573 0.950 . S
C584 C582 1.391 . S
C584 C585 1.400 . S
C585 C579 1.491 . S
C585 C584 1.400 . S
C585 C586 1.398 . S
C586 H574 0.950 . S
C586 C585 1.398 . S
C586 C587 1.391 . S
C587 H575 0.950 . S
C587 C583 1.393 . S
C587 C586 1.391 . S
H588 C596 0.950 1_554 S
H589 C601 0.950 . S
H590 C598 0.950 . S
H591 C600 0.950 . S
H592 C602 0.950 . S
H593 C604 0.950 . S
H594 C606 0.950 . S
H595 C607 0.950 . S
C596 H588 0.950 1_556 S
C596 C597 1.386 . S
C596 C598 1.391 . S
C597 C596 1.386 . S
C597 C601 1.393 . S
C598 H590 0.950 . S
C598 C596 1.391 . S
C598 C599 1.400 . S
C599 C598 1.400 . S
C599 C600 1.398 . S
C599 C605 1.491 . S
C600 H591 0.950 . S
C600 C599 1.398 . S
C600 C601 1.391 . S
C601 H589 0.950 . S
C601 C597 1.393 . S
C601 C600 1.391 . S
C602 H592 0.950 . S
C602 C603 1.386 . S
C602 C604 1.391 . S
C603 C602 1.386 . S
C603 C607 1.393 . S
C604 H593 0.950 . S
C604 C602 1.391 . S
C604 C605 1.400 . S
C605 C599 1.491 . S
C605 C604 1.400 . S
C605 C606 1.398 . S
C606 H594 0.950 . S
C606 C605 1.398 . S
C606 C607 1.391 . S
C607 H595 0.950 . S
C607 C603 1.393 . S
C607 C606 1.391 . S
H608 C616 0.950 . S
H609 C621 0.950 . S
H610 C618 0.950 . S
H611 C620 0.950 . S
H612 C622 0.950 . S
H613 C624 0.950 . S
H614 C626 0.950 . S
H615 C627 0.950 . S
C616 H608 0.950 . S
C616 C617 1.386 . S
C616 C618 1.391 . S
C617 C616 1.386 . S
C617 C621 1.393 . S
C618 H610 0.950 . S
C618 C616 1.391 . S
C618 C619 1.400 . S
C619 C618 1.400 . S
C619 C620 1.398 . S
C619 C625 1.491 . S
C620 H611 0.950 . S
C620 C619 1.398 . S
C620 C621 1.391 . S
C621 H609 0.950 . S
C621 C617 1.393 . S
C621 C620 1.391 . S
C622 H612 0.950 . S
C622 C623 1.386 . S
C622 C624 1.391 . S
C623 C622 1.386 . S
C623 C627 1.393 . S
C624 H613 0.950 . S
C624 C622 1.391 . S
C624 C625 1.400 . S
C625 C619 1.491 . S
C625 C624 1.400 . S
C625 C626 1.398 . S
C626 H614 0.950 . S
C626 C625 1.398 . S
C626 C627 1.391 . S
C627 H615 0.950 . S
C627 C623 1.393 . S
C627 C626 1.391 . S
H628 C636 0.950 . S
H629 C641 0.950 . S
H630 C638 0.950 . S
H631 C640 0.950 . S
H632 C642 0.950 . S
H633 C644 0.950 . S
H634 C646 0.950 . S
H635 C647 0.950 . S
C636 H628 0.950 . S
C636 C637 1.386 . S
C636 C638 1.391 . S
C637 C636 1.386 . S
C637 C641 1.393 . S
C638 H630 0.950 . S
C638 C636 1.391 . S
C638 C639 1.400 . S
C639 C638 1.400 . S
C639 C640 1.398 . S
C639 C645 1.491 . S
C640 H631 0.950 . S
C640 C639 1.398 . S
C640 C641 1.391 . S
C641 H629 0.950 . S
C641 C637 1.393 . S
C641 C640 1.391 . S
C642 H632 0.950 . S
C642 C643 1.386 . S
C642 C644 1.391 . S
C643 C642 1.386 . S
C643 C647 1.393 . S
C644 H633 0.950 . S
C644 C642 1.391 . S
C644 C645 1.400 . S
C645 C639 1.491 . S
C645 C644 1.400 . S
C645 C646 1.398 . S
C646 H634 0.950 . S
C646 C645 1.398 . S
C646 C647 1.391 . S
C647 H635 0.950 . S
C647 C643 1.393 . S
C647 C646 1.391 . S
H648 C656 0.950 . S
H649 C661 0.950 . S
H650 C658 0.950 . S
H651 C660 0.950 . S
H652 C662 0.950 1_554 S
H653 C664 0.950 . S
H654 C666 0.950 . S
H655 C667 0.950 . S
C656 H648 0.950 . S
C656 C657 1.386 . S
C656 C658 1.391 . S
C657 C656 1.386 . S
C657 C661 1.393 . S
C658 H650 0.950 . S
C658 C656 1.391 . S
C658 C659 1.400 . S
C659 C658 1.400 . S
C659 C660 1.398 . S
C659 C665 1.491 . S
C660 H651 0.950 . S
C660 C659 1.398 . S
C660 C661 1.391 . S
C661 H649 0.950 . S
C661 C657 1.393 . S
C661 C660 1.391 . S
C662 H652 0.950 1_556 S
C662 C663 1.386 . S
C662 C664 1.391 . S
C663 C662 1.386 . S
C663 C667 1.393 . S
C664 H653 0.950 . S
C664 C662 1.391 . S
C664 C665 1.400 . S
C665 C659 1.491 . S
C665 C664 1.400 . S
C665 C666 1.398 . S
C666 H654 0.950 . S
C666 C665 1.398 . S
C666 C667 1.391 . S
C667 H655 0.950 . S
C667 C663 1.393 . S
C667 C666 1.391 . S
H668 C676 0.950 . S
H669 C681 0.950 . S
H670 C678 0.950 . S
H671 C680 0.950 . S
H672 C682 0.950 . S
H673 C684 0.950 . S
H674 C686 0.950 . S
H675 C687 0.950 . S
C676 H668 0.950 . S
C676 C677 1.386 . S
C676 C678 1.391 . S
C677 C676 1.386 . S
C677 C681 1.393 . S
C678 H670 0.950 . S
C678 C676 1.391 . S
C678 C679 1.400 . S
C679 C678 1.400 . S
C679 C680 1.398 . S
C679 C685 1.491 . S
C680 H671 0.950 . S
C680 C679 1.398 . S
C680 C681 1.391 . S
C681 H669 0.950 . S
C681 C677 1.393 . S
C681 C680 1.391 . S
C682 H672 0.950 . S
C682 C683 1.386 . S
C682 C684 1.391 . S
C683 C682 1.386 . S
C683 C687 1.393 . S
C684 H673 0.950 . S
C684 C682 1.391 . S
C684 C685 1.400 . S
C685 C679 1.491 . S
C685 C684 1.400 . S
C685 C686 1.398 . S
C686 H674 0.950 . S
C686 C685 1.398 . S
C686 C687 1.391 . S
C687 H675 0.950 . S
C687 C683 1.393 . S
C687 C686 1.391 . S
H688 C696 0.950 . S
H689 C701 0.950 . S
H690 C698 0.950 . S
H691 C700 0.950 . S
H692 C702 0.950 . S
H693 C704 0.950 . S
H694 C706 0.950 . S
H695 C707 0.950 . S
C696 H688 0.950 . S
C696 C697 1.386 . S
C696 C698 1.391 . S
C697 C696 1.386 . S
C697 C701 1.393 . S
C698 H690 0.950 . S
C698 C696 1.391 . S
C698 C699 1.400 . S
C699 C698 1.400 . S
C699 C700 1.398 . S
C699 C705 1.491 . S
C700 H691 0.950 . S
C700 C699 1.398 . S
C700 C701 1.391 . S
C701 H689 0.950 . S
C701 C697 1.393 . S
C701 C700 1.391 . S
C702 H692 0.950 . S
C702 C703 1.386 . S
C702 C704 1.391 . S
C703 C702 1.386 . S
C703 C707 1.393 . S
C704 H693 0.950 . S
C704 C702 1.391 . S
C704 C705 1.400 . S
C705 C699 1.491 . S
C705 C704 1.400 . S
C705 C706 1.398 . S
C706 H694 0.950 . S
C706 C705 1.398 . S
C706 C707 1.391 . S
C707 H695 0.950 . S
C707 C703 1.393 . S
C707 C706 1.391 . S
H708 C716 0.950 . S
H709 C721 0.950 . S
H710 C718 0.950 . S
H711 C720 0.950 . S
H712 C722 0.950 . S
H713 C724 0.950 . S
H714 C726 0.950 . S
H715 C727 0.950 . S
C716 H708 0.950 . S
C716 C717 1.386 . S
C716 C718 1.391 . S
C717 C716 1.386 . S
C717 C721 1.393 . S
C718 H710 0.950 . S
C718 C716 1.391 . S
C718 C719 1.400 . S
C719 C718 1.400 . S
C719 C720 1.398 . S
C719 C725 1.491 . S
C720 H711 0.950 . S
C720 C719 1.398 . S
C720 C721 1.391 . S
C721 H709 0.950 . S
C721 C717 1.393 . S
C721 C720 1.391 . S
C722 H712 0.950 . S
C722 C723 1.386 . S
C722 C724 1.391 . S
C723 C722 1.386 . S
C723 C727 1.393 . S
C724 H713 0.950 . S
C724 C722 1.391 . S
C724 C725 1.400 . S
C725 C719 1.491 . S
C725 C724 1.400 . S
C725 C726 1.398 . S
C726 H714 0.950 . S
C726 C725 1.398 . S
C726 C727 1.391 . S
C727 H715 0.950 . S
C727 C723 1.393 . S
C727 C726 1.391 . S
H728 C736 0.950 . S
H729 C741 0.950 . S
H730 C738 0.950 . S
H731 C740 0.950 . S
H732 C742 0.950 . S
H733 C744 0.950 . S
H734 C746 0.950 . S
H735 C747 0.950 . S
C736 H728 0.950 . S
C736 C737 1.386 . S
C736 C738 1.391 . S
C737 C736 1.386 . S
C737 C741 1.393 . S
C738 H730 0.950 . S
C738 C736 1.391 . S
C738 C739 1.400 . S
C739 C738 1.400 . S
C739 C740 1.398 . S
C739 C745 1.491 . S
C740 H731 0.950 . S
C740 C739 1.398 . S
C740 C741 1.391 . S
C741 H729 0.950 . S
C741 C737 1.393 . S
C741 C740 1.391 . S
C742 H732 0.950 . S
C742 C743 1.386 . S
C742 C744 1.391 . S
C743 C742 1.386 . S
C743 C747 1.393 . S
C744 H733 0.950 . S
C744 C742 1.391 . S
C744 C745 1.400 . S
C745 C739 1.491 . S
C745 C744 1.400 . S
C745 C746 1.398 . S
C746 H734 0.950 . S
C746 C745 1.398 . S
C746 C747 1.391 . S
C747 H735 0.950 . S
C747 C743 1.393 . S
C747 C746 1.391 . S
H748 C756 0.950 . S
H749 C761 0.950 . S
H750 C758 0.950 . S
H751 C760 0.950 . S
H752 C762 0.950 . S
H753 C764 0.950 . S
H754 C766 0.950 . S
H755 C767 0.950 . S
C756 H748 0.950 . S
C756 C757 1.386 . S
C756 C758 1.391 . S
C757 C756 1.386 . S
C757 C761 1.393 . S
C758 H750 0.950 . S
C758 C756 1.391 . S
C758 C759 1.400 . S
C759 C758 1.400 . S
C759 C760 1.398 . S
C759 C765 1.491 . S
C760 H751 0.950 . S
C760 C759 1.398 . S
C760 C761 1.391 . S
C761 H749 0.950 . S
C761 C757 1.393 . S
C761 C760 1.391 . S
C762 H752 0.950 . S
C762 C763 1.386 . S
C762 C764 1.391 . S
C763 C762 1.386 . S
C763 C767 1.393 . S
C764 H753 0.950 . S
C764 C762 1.391 . S
C764 C765 1.400 . S
C765 C759 1.491 . S
C765 C764 1.400 . S
C765 C766 1.398 . S
C766 H754 0.950 . S
C766 C765 1.398 . S
C766 C767 1.391 . S
C767 H755 0.950 . S
C767 C763 1.393 . S
C767 C766 1.391 . S
H768 C776 0.950 . S
H769 C781 0.950 . S
H770 C778 0.950 . S
H771 C780 0.950 . S
H772 C782 0.950 . S
H773 C784 0.950 . S
H774 C786 0.950 . S
H775 C787 0.950 . S
C776 H768 0.950 . S
C776 C777 1.386 . S
C776 C778 1.391 . S
C777 C776 1.386 . S
C777 C781 1.393 . S
C778 H770 0.950 . S
C778 C776 1.391 . S
C778 C779 1.400 . S
C779 C778 1.400 . S
C779 C780 1.398 . S
C779 C785 1.491 . S
C780 H771 0.950 . S
C780 C779 1.398 . S
C780 C781 1.391 . S
C781 H769 0.950 . S
C781 C777 1.393 . S
C781 C780 1.391 . S
C782 H772 0.950 . S
C782 C783 1.386 . S
C782 C784 1.391 . S
C783 C782 1.386 . S
C783 C787 1.393 . S
C784 H773 0.950 . S
C784 C782 1.391 . S
C784 C785 1.400 . S
C785 C779 1.491 . S
C785 C784 1.400 . S
C785 C786 1.398 . S
C786 H774 0.950 . S
C786 C785 1.398 . S
C786 C787 1.391 . S
C787 H775 0.950 . S
C787 C783 1.393 . S
C787 C786 1.391 . S
H788 C796 0.950 . S
H789 C801 0.950 . S
H790 C798 0.950 . S
H791 C800 0.950 . S
H792 C802 0.950 . S
H793 C804 0.950 . S
H794 C806 0.950 . S
H795 C807 0.950 . S
C796 H788 0.950 . S
C796 C797 1.386 . S
C796 C798 1.391 . S
C797 C796 1.386 . S
C797 C801 1.393 . S
C798 H790 0.950 . S
C798 C796 1.391 . S
C798 C799 1.400 . S
C799 C798 1.400 . S
C799 C800 1.398 . S
C799 C805 1.491 . S
C800 H791 0.950 . S
C800 C799 1.398 . S
C800 C801 1.391 . S
C801 H789 0.950 . S
C801 C797 1.393 . S
C801 C800 1.391 . S
C802 H792 0.950 . S
C802 C803 1.386 . S
C802 C804 1.391 . S
C803 C802 1.386 . S
C803 C807 1.393 . S
C804 H793 0.950 . S
C804 C802 1.391 . S
C804 C805 1.400 . S
C805 C799 1.491 . S
C805 C804 1.400 . S
C805 C806 1.398 . S
C806 H794 0.950 . S
C806 C805 1.398 . S
C806 C807 1.391 . S
C807 H795 0.950 . S
C807 C803 1.393 . S
C807 C806 1.391 . S
H808 C816 0.950 . S
H809 C821 0.950 . S
H810 C818 0.950 . S
H811 C820 0.950 . S
H812 C822 0.950 . S
H813 C824 0.950 . S
H814 C826 0.950 . S
H815 C827 0.950 1_556 S
C816 H808 0.950 . S
C816 C817 1.386 . S
C816 C818 1.391 . S
C817 C816 1.386 . S
C817 C821 1.393 . S
C818 H810 0.950 . S
C818 C816 1.391 . S
C818 C819 1.400 . S
C819 C818 1.400 . S
C819 C820 1.398 . S
C819 C825 1.491 . S
C820 H811 0.950 . S
C820 C819 1.398 . S
C820 C821 1.391 . S
C821 H809 0.950 . S
C821 C817 1.393 . S
C821 C820 1.391 . S
C822 H812 0.950 . S
C822 C823 1.386 . S
C822 C824 1.391 . S
C823 C822 1.386 . S
C823 C827 1.393 . S
C824 H813 0.950 . S
C824 C822 1.391 . S
C824 C825 1.400 . S
C825 C819 1.491 . S
C825 C824 1.400 . S
C825 C826 1.398 . S
C826 H814 0.950 . S
C826 C825 1.398 . S
C826 C827 1.391 . S
C827 H815 0.950 1_554 S
C827 C823 1.393 . S
C827 C826 1.391 . S
H828 C836 0.950 . S
H829 C841 0.950 . S
H830 C838 0.950 . S
H831 C840 0.950 . S
H832 C842 0.950 . S
H833 C844 0.950 . S
H834 C846 0.950 . S
H835 C847 0.950 . S
C836 H828 0.950 . S
C836 C837 1.386 . S
C836 C838 1.391 . S
C837 C836 1.386 . S
C837 C841 1.393 . S
C838 H830 0.950 . S
C838 C836 1.391 . S
C838 C839 1.400 . S
C839 C838 1.400 . S
C839 C840 1.398 . S
C839 C845 1.491 . S
C840 H831 0.950 . S
C840 C839 1.398 . S
C840 C841 1.391 . S
C841 H829 0.950 . S
C841 C837 1.393 . S
C841 C840 1.391 . S
C842 H832 0.950 . S
C842 C843 1.386 . S
C842 C844 1.391 . S
C843 C842 1.386 . S
C843 C847 1.393 . S
C844 H833 0.950 . S
C844 C842 1.391 . S
C844 C845 1.400 . S
C845 C839 1.491 . S
C845 C844 1.400 . S
C845 C846 1.398 . S
C846 H834 0.950 . S
C846 C845 1.398 . S
C846 C847 1.391 . S
C847 H835 0.950 . S
C847 C843 1.393 . S
C847 C846 1.391 . S
C217 C5 1.461 . S
C223 C161 1.460 . S
C237 C16 1.464 . S
C243 C70 1.464 1_565 S
C257 C31 1.461 . S
C263 C187 1.463 . S
C277 C96 1.464 . S
C283 C44 1.464 . S
C297 C185 1.465 . S
C303 C29 1.463 . S
C317 C94 1.463 1_565 S
C323 C42 1.463 . S
C337 C159 1.461 . S
C343 C3 1.462 . S
C357 C68 1.462 1_565 S
C363 C18 1.462 . S
C377 C55 1.465 . S
C383 C109 1.466 . S
C397 C83 1.464 . S
C403 C135 1.463 . S
C417 C133 1.460 . S
C423 C81 1.461 . S
C437 C57 1.460 . S
C443 C107 1.459 . S
C457 C172 1.461 . S
C463 C120 1.461 . S
C477 C146 1.460 . S
C483 C198 1.460 . S
C497 C148 1.463 . S
C503 C200 1.463 . S
C517 C122 1.461 . S
C523 C174 1.461 . S
C537 C153 1.554 . S
C543 C10 1.554 . S
C557 C108 1.554 . S
C563 C17 1.559 . S
C577 C36 1.555 . S
C583 C127 1.555 . S
C597 C134 1.555 . S
C603 C49 1.552 . S
C617 C147 1.554 . S
C623 C30 1.554 . S
C637 C43 1.555 . S
C643 C114 1.559 . S
C657 C121 1.554 . S
C663 C4 1.556 . S
C677 C140 1.555 . S
C683 C23 1.551 . S
C697 C56 1.555 . S
C703 C205 1.556 . S
C717 C160 1.554 . S
C723 C75 1.550 . S
C737 C88 1.555 . S
C743 C179 1.555 . S
C757 C101 1.555 . S
C763 C186 1.559 . S
C777 C82 1.554 . S
C783 C199 1.554 . S
C797 C166 1.555 . S
C803 C95 1.551 . S
C817 C173 1.554 . S
C823 C62 1.554 . S
C837 C192 1.555 . S
C843 C69 1.560 . S
