# Generated by pormake.
# Topology tzs, (4)-cn, num edge types: 1
# Building blocks:
#     Node 0, Type 0, BuildingBlock: GALJAG_clean_sbu_0, # of connection points: 4
#     Node 1, Type 0, BuildingBlock: GALJAG_clean_sbu_0, # of connection points: 4
#     Node 2, Type 0, BuildingBlock: GALJAG_clean_sbu_0, # of connection points: 4
#     Node 3, Type 0, BuildingBlock: GALJAG_clean_sbu_0, # of connection points: 4
#     Node 4, Type 0, BuildingBlock: GALJAG_clean_sbu_0, # of connection points: 4
#     Node 5, Type 0, BuildingBlock: GALJAG_clean_sbu_0, # of connection points: 4
#     Node 6, Type 0, BuildingBlock: GALJAG_clean_sbu_0, # of connection points: 4
#     Node 7, Type 0, BuildingBlock: GALJAG_clean_sbu_0, # of connection points: 4
#     Node 8, Type 0, BuildingBlock: GALJAG_clean_sbu_0, # of connection points: 4
#     Node 9, Type 0, BuildingBlock: GALJAG_clean_sbu_0, # of connection points: 4
#     Node 10, Type 0, BuildingBlock: GALJAG_clean_sbu_0, # of connection points: 4
#     Node 11, Type 0, BuildingBlock: GALJAG_clean_sbu_0, # of connection points: 4
#     Node 12, Type 0, BuildingBlock: GALJAG_clean_sbu_0, # of connection points: 4
#     Node 13, Type 0, BuildingBlock: GALJAG_clean_sbu_0, # of connection points: 4
#     Node 14, Type 0, BuildingBlock: GALJAG_clean_sbu_0, # of connection points: 4
#     Node 15, Type 0, BuildingBlock: GALJAG_clean_sbu_0, # of connection points: 4
#     Edge 16, Type (0, 0), BuildingBlock: ZUJKAS_clean_linker_0, # of connection points: 2
#     Edge 17, Type (0, 0), BuildingBlock: ZUJKAS_clean_linker_0, # of connection points: 2
#     Edge 18, Type (0, 0), BuildingBlock: ZUJKAS_clean_linker_0, # of connection points: 2
#     Edge 19, Type (0, 0), BuildingBlock: ZUJKAS_clean_linker_0, # of connection points: 2
#     Edge 20, Type (0, 0), BuildingBlock: ZUJKAS_clean_linker_0, # of connection points: 2
#     Edge 21, Type (0, 0), BuildingBlock: ZUJKAS_clean_linker_0, # of connection points: 2
#     Edge 22, Type (0, 0), BuildingBlock: ZUJKAS_clean_linker_0, # of connection points: 2
#     Edge 23, Type (0, 0), BuildingBlock: ZUJKAS_clean_linker_0, # of connection points: 2
#     Edge 24, Type (0, 0), BuildingBlock: ZUJKAS_clean_linker_0, # of connection points: 2
#     Edge 25, Type (0, 0), BuildingBlock: ZUJKAS_clean_linker_0, # of connection points: 2
#     Edge 26, Type (0, 0), BuildingBlock: ZUJKAS_clean_linker_0, # of connection points: 2
#     Edge 27, Type (0, 0), BuildingBlock: ZUJKAS_clean_linker_0, # of connection points: 2
#     Edge 28, Type (0, 0), BuildingBlock: ZUJKAS_clean_linker_0, # of connection points: 2
#     Edge 29, Type (0, 0), BuildingBlock: ZUJKAS_clean_linker_0, # of connection points: 2
#     Edge 30, Type (0, 0), BuildingBlock: ZUJKAS_clean_linker_0, # of connection points: 2
#     Edge 31, Type (0, 0), BuildingBlock: ZUJKAS_clean_linker_0, # of connection points: 2
#     Edge 32, Type (0, 0), BuildingBlock: ZUJKAS_clean_linker_0, # of connection points: 2
#     Edge 33, Type (0, 0), BuildingBlock: ZUJKAS_clean_linker_0, # of connection points: 2
#     Edge 34, Type (0, 0), BuildingBlock: ZUJKAS_clean_linker_0, # of connection points: 2
#     Edge 35, Type (0, 0), BuildingBlock: ZUJKAS_clean_linker_0, # of connection points: 2
#     Edge 36, Type (0, 0), BuildingBlock: ZUJKAS_clean_linker_0, # of connection points: 2
#     Edge 37, Type (0, 0), BuildingBlock: ZUJKAS_clean_linker_0, # of connection points: 2
#     Edge 38, Type (0, 0), BuildingBlock: ZUJKAS_clean_linker_0, # of connection points: 2
#     Edge 39, Type (0, 0), BuildingBlock: ZUJKAS_clean_linker_0, # of connection points: 2
#     Edge 40, Type (0, 0), BuildingBlock: ZUJKAS_clean_linker_0, # of connection points: 2
#     Edge 41, Type (0, 0), BuildingBlock: ZUJKAS_clean_linker_0, # of connection points: 2
#     Edge 42, Type (0, 0), BuildingBlock: ZUJKAS_clean_linker_0, # of connection points: 2
#     Edge 43, Type (0, 0), BuildingBlock: ZUJKAS_clean_linker_0, # of connection points: 2
#     Edge 44, Type (0, 0), BuildingBlock: ZUJKAS_clean_linker_0, # of connection points: 2
#     Edge 45, Type (0, 0), BuildingBlock: ZUJKAS_clean_linker_0, # of connection points: 2
#     Edge 46, Type (0, 0), BuildingBlock: ZUJKAS_clean_linker_0, # of connection points: 2
#     Edge 47, Type (0, 0), BuildingBlock: ZUJKAS_clean_linker_0, # of connection points: 2
# Relax obj value: 0.153
# Max RMSD: 0.154
# Mean RMSD: 0.154
data_MOF--net-tzs--node1-GALJAG_clean_sbu_0--edge1-ZUJKAS_clean_linker_0
_symmetry_space_group_name_H-M    P1
_symmetry_Int_Tables_number       1
_symmetry_cell_setting            triclinic
loop_
_symmetry_equiv_pos_as_xyz
'x, y, z'
_cell_length_a     63.412165
_cell_length_b     63.430113
_cell_length_c     52.306892
_cell_angle_alpha  90.005092
_cell_angle_beta   90.014529
_cell_angle_gamma 90.01337
loop_
_atom_site_label
_atom_site_type_symbol
_atom_site_fract_x
_atom_site_fract_y
_atom_site_fract_z
_atom_type_partial_charge
In0 In 0.14568 0.35292 0.18962 0.0
O1 O 0.17853 0.34276 0.20244 0.0
O2 O 0.15486 0.31921 0.20038 0.0
C3 C 0.15116 0.39315 0.20554 0.0
C4 C 0.14859 0.35317 0.13817 0.0
C5 C 0.10717 0.34219 0.20752 0.0
O6 O 0.15388 0.37748 0.21998 0.0
O7 O 0.14582 0.38856 0.18301 0.0
O8 O 0.11361 0.33694 0.18562 0.0
O9 O 0.12029 0.35254 0.22059 0.0
C10 C 0.1738 0.32362 0.20535 0.0
O11 O 0.13132 0.35519 0.14988 0.0
O12 O 0.16454 0.35127 0.15243 0.0
In13 In 0.64786 0.14315 0.18872 0.0
O14 O 0.66282 0.1342 0.15061 0.0
O15 O 0.64017 0.15884 0.15058 0.0
C16 C 0.65313 0.10231 0.20174 0.0
C17 C 0.67529 0.17223 0.20698 0.0
C18 C 0.60822 0.1484 0.20649 0.0
O19 O 0.64268 0.10802 0.18243 0.0
O20 O 0.66097 0.11723 0.21459 0.0
O21 O 0.61292 0.15026 0.18317 0.0
O22 O 0.62355 0.14403 0.22094 0.0
C23 C 0.65261 0.14752 0.13771 0.0
O24 O 0.65562 0.17488 0.20729 0.0
O25 O 0.68114 0.15491 0.19762 0.0
In26 In 0.85649 0.64734 0.18499 0.0
O27 O 0.8648 0.65962 0.14534 0.0
O28 O 0.84178 0.63541 0.14775 0.0
C29 C 0.89544 0.65856 0.20073 0.0
C30 C 0.82899 0.67597 0.2038 0.0
C31 C 0.85135 0.6071 0.2011 0.0
O32 O 0.89213 0.64832 0.18044 0.0
O33 O 0.87904 0.6633 0.21314 0.0
O34 O 0.836 0.61863 0.19481 0.0
O35 O 0.86911 0.61583 0.19921 0.0
C36 C 0.85223 0.64766 0.13359 0.0
O37 O 0.83437 0.65975 0.21612 0.0
O38 O 0.83754 0.67777 0.18218 0.0
In39 In 0.35321 0.85413 0.18763 0.0
O40 O 0.3356 0.85631 0.14978 0.0
O41 O 0.36855 0.85014 0.14848 0.0
C42 C 0.33969 0.89348 0.19848 0.0
C43 C 0.32766 0.82395 0.20689 0.0
C44 C 0.39226 0.84856 0.2077 0.0
O45 O 0.353 0.88961 0.18121 0.0
O46 O 0.33286 0.87743 0.21009 0.0
O47 O 0.38241 0.8339 0.19665 0.0
O48 O 0.38243 0.86576 0.20865 0.0
C49 C 0.35167 0.85297 0.13614 0.0
O50 O 0.33502 0.83868 0.22039 0.0
O51 O 0.33339 0.8243 0.18383 0.0
In52 In 0.14375 0.64723 0.3102 0.0
O53 O 0.12983 0.64818 0.35017 0.0
O54 O 0.16257 0.64147 0.3468 0.0
C55 C 0.10685 0.66074 0.28998 0.0
C56 C 0.17153 0.67661 0.29366 0.0
C57 C 0.14884 0.60623 0.29765 0.0
O58 O 0.11313 0.66622 0.31184 0.0
O59 O 0.11935 0.64882 0.27811 0.0
O60 O 0.16266 0.62002 0.29309 0.0
O61 O 0.13262 0.61306 0.30887 0.0
C62 C 0.14697 0.64418 0.36143 0.0
O63 O 0.1662 0.66095 0.28034 0.0
O64 O 0.16271 0.67759 0.3152 0.0
In65 In 0.3534 0.14234 0.30788 0.0
O66 O 0.35846 0.12907 0.34794 0.0
O67 O 0.34523 0.15971 0.34481 0.0
C68 C 0.34285 0.10413 0.28887 0.0
C69 C 0.32523 0.17045 0.28968 0.0
C70 C 0.39393 0.14953 0.2942 0.0
O71 O 0.33542 0.11113 0.30955 0.0
O72 O 0.35546 0.11643 0.27774 0.0
O73 O 0.37856 0.1535 0.27968 0.0
O74 O 0.38886 0.14218 0.31573 0.0
C75 C 0.35122 0.14503 0.35934 0.0
O76 O 0.34378 0.17554 0.29587 0.0
O77 O 0.32092 0.15119 0.29261 0.0
In78 In 0.85479 0.35403 0.30888 0.0
O79 O 0.85535 0.33546 0.34631 0.0
O80 O 0.84941 0.36831 0.34842 0.0
C81 C 0.89365 0.34344 0.29231 0.0
C82 C 0.82518 0.32713 0.29117 0.0
C83 C 0.85041 0.39396 0.29136 0.0
O84 O 0.88924 0.34559 0.31569 0.0
O85 O 0.87838 0.34643 0.27724 0.0
O86 O 0.83654 0.38001 0.28781 0.0
O87 O 0.86633 0.38776 0.30364 0.0
C88 C 0.85167 0.35119 0.36033 0.0
O89 O 0.82063 0.34323 0.30421 0.0
O90 O 0.8446 0.32473 0.2869 0.0
In91 In 0.64581 0.85187 0.31178 0.0
O92 O 0.65081 0.86557 0.35145 0.0
O93 O 0.64052 0.83375 0.34908 0.0
C94 C 0.65606 0.88871 0.2889 0.0
C95 C 0.6759 0.82534 0.29405 0.0
C96 C 0.6043 0.84656 0.30197 0.0
O97 O 0.6601 0.88488 0.31203 0.0
O98 O 0.64724 0.87378 0.2771 0.0
O99 O 0.61755 0.83187 0.29949 0.0
O100 O 0.61193 0.86373 0.30986 0.0
C101 C 0.64575 0.84899 0.36325 0.0
O102 O 0.65835 0.8277 0.28314 0.0
O103 O 0.67835 0.83642 0.3138 0.0
In104 In 0.85204 0.64349 0.80908 0.0
O105 O 0.83488 0.63707 0.84659 0.0
O106 O 0.86084 0.65817 0.84749 0.0
C107 C 0.84531 0.60362 0.79279 0.0
C108 C 0.82463 0.67266 0.79151 0.0
C109 C 0.89219 0.64777 0.79253 0.0
O110 O 0.85206 0.60794 0.81484 0.0
O111 O 0.84182 0.61946 0.77882 0.0
O112 O 0.87665 0.65494 0.78025 0.0
O113 O 0.88748 0.63858 0.81311 0.0
C114 C 0.84657 0.64884 0.85988 0.0
O115 O 0.84342 0.67705 0.79742 0.0
O116 O 0.81966 0.65356 0.79447 0.0
In117 In 0.35297 0.8535 0.81016 0.0
O118 O 0.32018 0.8437 0.79672 0.0
O119 O 0.34335 0.81976 0.79997 0.0
C120 C 0.34701 0.89372 0.79464 0.0
C121 C 0.35087 0.85404 0.86171 0.0
C122 C 0.39111 0.84308 0.79083 0.0
O123 O 0.34305 0.87803 0.78064 0.0
O124 O 0.35388 0.88916 0.81658 0.0
O125 O 0.38458 0.83633 0.81207 0.0
O126 O 0.37823 0.85471 0.77908 0.0
C127 C 0.32461 0.82445 0.79431 0.0
O128 O 0.36795 0.85577 0.84957 0.0
O129 O 0.33467 0.85224 0.84784 0.0
In130 In 0.14554 0.35318 0.81252 0.0
O131 O 0.16409 0.35458 0.84995 0.0
O132 O 0.13137 0.34793 0.85212 0.0
C133 C 0.15506 0.39198 0.79496 0.0
C134 C 0.17307 0.32419 0.79477 0.0
C135 C 0.10565 0.34785 0.79527 0.0
O136 O 0.15377 0.38781 0.8185 0.0
O137 O 0.1518 0.37652 0.7803 0.0
O138 O 0.1198 0.33412 0.79208 0.0
O139 O 0.1116 0.36404 0.80719 0.0
C140 C 0.14843 0.35069 0.86401 0.0
O141 O 0.15728 0.3193 0.80819 0.0
O142 O 0.17486 0.34363 0.79022 0.0
In143 In 0.64309 0.14645 0.81244 0.0
O144 O 0.66591 0.15823 0.78166 0.0
O145 O 0.66059 0.17788 0.81379 0.0
C146 C 0.64787 0.10533 0.8 0.0
C147 C 0.64815 0.148 0.86367 0.0
C148 C 0.60429 0.15644 0.79491 0.0
O149 O 0.66323 0.11794 0.8012 0.0
O150 O 0.63025 0.11342 0.80527 0.0
O151 O 0.60786 0.15127 0.81776 0.0
O152 O 0.62038 0.15676 0.78073 0.0
C153 C 0.67008 0.17532 0.79287 0.0
O154 O 0.63543 0.15967 0.85175 0.0
O155 O 0.65856 0.13553 0.84973 0.0
In156 In 0.85309 0.35194 0.6862 0.0
O157 O 0.85364 0.36679 0.64656 0.0
O158 O 0.85231 0.33343 0.64859 0.0
C159 C 0.84297 0.38957 0.70699 0.0
C160 C 0.82327 0.32431 0.70188 0.0
C161 C 0.89354 0.34598 0.70097 0.0
O162 O 0.83671 0.38387 0.68517 0.0
O163 O 0.85394 0.37605 0.71869 0.0
O164 O 0.8781 0.33815 0.71281 0.0
O165 O 0.88862 0.35677 0.68163 0.0
C166 C 0.85282 0.34959 0.63457 0.0
O167 O 0.84209 0.31903 0.69761 0.0
O168 O 0.8194 0.34358 0.69827 0.0
In169 In 0.64441 0.85338 0.68854 0.0
O170 O 0.67854 0.84409 0.69688 0.0
O171 O 0.65465 0.82124 0.70347 0.0
C172 C 0.64946 0.89289 0.70705 0.0
C173 C 0.64849 0.849 0.63741 0.0
C174 C 0.60469 0.84593 0.70497 0.0
O175 O 0.65671 0.87685 0.71827 0.0
O176 O 0.63979 0.88899 0.68653 0.0
O177 O 0.60882 0.85234 0.68272 0.0
O178 O 0.62061 0.84325 0.71905 0.0
C179 C 0.67404 0.82564 0.70409 0.0
O180 O 0.639 0.83571 0.65114 0.0
O181 O 0.65619 0.8644 0.6495 0.0
In182 In 0.14663 0.6432 0.68681 0.0
O183 O 0.16508 0.64151 0.64931 0.0
O184 O 0.13284 0.65016 0.64736 0.0
C185 C 0.15624 0.60434 0.70403 0.0
C186 C 0.17365 0.67227 0.70564 0.0
C187 C 0.1064 0.64705 0.70327 0.0
O188 O 0.15556 0.60886 0.68055 0.0
O189 O 0.15231 0.61953 0.7189 0.0
O190 O 0.12009 0.66113 0.70713 0.0
O191 O 0.11299 0.63121 0.69113 0.0
C192 C 0.14969 0.64658 0.63538 0.0
O193 O 0.15709 0.67722 0.69371 0.0
O194 O 0.17649 0.65272 0.70817 0.0
In195 In 0.35298 0.14598 0.68472 0.0
O196 O 0.36669 0.1524 0.64523 0.0
O197 O 0.33426 0.1444 0.64735 0.0
C198 C 0.39298 0.15318 0.70001 0.0
C199 C 0.3248 0.17407 0.70312 0.0
C200 C 0.34621 0.10658 0.70256 0.0
O201 O 0.38801 0.13847 0.68496 0.0
O202 O 0.37774 0.16446 0.70736 0.0
O203 O 0.35162 0.12168 0.7168 0.0
O204 O 0.34391 0.11139 0.67933 0.0
C205 C 0.34972 0.14917 0.63334 0.0
O206 O 0.32341 0.15454 0.70723 0.0
O207 O 0.34048 0.17949 0.68981 0.0
H208 H 0.33098 0.21259 0.28183 0.0
H209 H 0.30479 0.23828 0.2672 0.0
H210 H 0.25829 0.18888 0.26147 0.0
H211 H 0.2843 0.16313 0.2763 0.0
H212 H 0.28134 0.23824 0.22087 0.0
H213 H 0.22946 0.23391 0.30633 0.0
H214 H 0.25611 0.22391 0.30627 0.0
H215 H 0.23528 0.20898 0.29162 0.0
C216 C 0.31516 0.20722 0.27748 0.0
C217 C 0.30963 0.18589 0.28031 0.0
C218 C 0.30025 0.22189 0.26912 0.0
C219 C 0.27956 0.2155 0.26363 0.0
C220 C 0.27408 0.19417 0.26607 0.0
H221 H 0.16723 0.28151 0.21262 0.0
H222 H 0.19312 0.25505 0.22601 0.0
C223 C 0.28898 0.17948 0.27441 0.0
C224 C 0.26379 0.23113 0.25502 0.0
H225 H 0.21698 0.25403 0.27131 0.0
C226 C 0.26729 0.24177 0.2319 0.0
C227 C 0.24549 0.2356 0.26948 0.0
C228 C 0.24136 0.22516 0.29492 0.0
C229 C 0.25278 0.25661 0.22264 0.0
C230 C 0.23453 0.26116 0.23716 0.0
C231 C 0.23099 0.25046 0.26024 0.0
C232 C 0.219 0.27716 0.22888 0.0
C233 C 0.25691 0.26701 0.19718 0.0
C234 C 0.22495 0.29837 0.22641 0.0
C235 C 0.21024 0.31348 0.21877 0.0
C236 C 0.18928 0.30765 0.21363 0.0
C237 C 0.18329 0.28644 0.2164 0.0
C238 C 0.19803 0.27133 0.22404 0.0
H239 H 0.26842 0.25793 0.18555 0.0
H240 H 0.24209 0.26876 0.18607 0.0
H241 H 0.26356 0.28297 0.20045 0.0
H242 H 0.24096 0.30325 0.23058 0.0
H243 H 0.21527 0.32973 0.21693 0.0
H244 H 0.83175 0.29072 0.26467 0.0
H245 H 0.8053 0.2651 0.25066 0.0
H246 H 0.7561 0.30342 0.28348 0.0
H247 H 0.78246 0.32922 0.29747 0.0
H248 H 0.7761 0.24306 0.28286 0.0
H249 H 0.73587 0.292 0.20935 0.0
H250 H 0.76176 0.29831 0.22155 0.0
H251 H 0.73874 0.30393 0.24034 0.0
C252 C 0.81529 0.29376 0.26877 0.0
C253 C 0.80915 0.31199 0.2821 0.0
C254 C 0.80022 0.27911 0.26078 0.0
C255 C 0.77877 0.2825 0.26581 0.0
C256 C 0.77257 0.3007 0.27907 0.0
H257 H 0.66618 0.20973 0.23011 0.0
H258 H 0.69116 0.2363 0.24558 0.0
C259 C 0.78764 0.31536 0.28713 0.0
C260 C 0.763 0.26662 0.25786 0.0
H261 H 0.72088 0.2587 0.21839 0.0
C262 C 0.76403 0.24643 0.26874 0.0
C263 C 0.74724 0.27117 0.23956 0.0
C264 C 0.74583 0.29246 0.22681 0.0
C265 C 0.74958 0.23065 0.26193 0.0
C266 C 0.734 0.23509 0.24332 0.0
C267 C 0.73285 0.25536 0.23263 0.0
C268 C 0.71896 0.21881 0.23436 0.0
C269 C 0.75091 0.20951 0.27506 0.0
C270 C 0.72632 0.2003 0.2227 0.0
C271 C 0.71212 0.18507 0.21399 0.0
C272 C 0.69029 0.18821 0.21653 0.0
C273 C 0.68293 0.20686 0.22797 0.0
C274 C 0.69716 0.22205 0.23678 0.0
H275 H 0.75941 0.2106 0.29359 0.0
H276 H 0.73496 0.20288 0.27859 0.0
H277 H 0.75969 0.19836 0.26266 0.0
H278 H 0.74307 0.19771 0.2201 0.0
H279 H 0.71824 0.17093 0.20506 0.0
H280 H 0.80894 0.67583 0.25004 0.0
H281 H 0.78323 0.70152 0.26591 0.0
H282 H 0.78873 0.7367 0.19566 0.0
H283 H 0.81463 0.71129 0.17983 0.0
H284 H 0.79005 0.76196 0.239 0.0
H285 H 0.72197 0.70692 0.2419 0.0
H286 H 0.74467 0.69809 0.25942 0.0
H287 H 0.74614 0.70081 0.22526 0.0
C288 C 0.80465 0.68904 0.23799 0.0
C289 C 0.8137 0.69152 0.21366 0.0
C290 C 0.78989 0.70362 0.24702 0.0
C291 C 0.78386 0.72081 0.23178 0.0
C292 C 0.79312 0.72348 0.20765 0.0
H293 H 0.67458 0.80116 0.25095 0.0
H294 H 0.70132 0.77633 0.23575 0.0
C295 C 0.80788 0.70894 0.19864 0.0
C296 C 0.76802 0.73617 0.24101 0.0
H297 H 0.7167 0.74084 0.25984 0.0
C298 C 0.774 0.75737 0.24355 0.0
C299 C 0.74704 0.73016 0.24657 0.0
C300 C 0.73945 0.7078 0.24295 0.0
C301 C 0.75959 0.77273 0.25177 0.0
C302 C 0.73877 0.76661 0.25802 0.0
C303 C 0.73274 0.74544 0.25523 0.0
C304 C 0.72287 0.78196 0.26712 0.0
C305 C 0.76667 0.79542 0.25319 0.0
C306 C 0.72607 0.79323 0.28988 0.0
C307 C 0.71087 0.80749 0.29854 0.0
C308 C 0.69213 0.81056 0.28468 0.0
C309 C 0.68889 0.79915 0.26199 0.0
C310 C 0.70413 0.78495 0.25331 0.0
H311 H 0.78103 0.79824 0.24151 0.0
H312 H 0.75403 0.80623 0.24657 0.0
H313 H 0.77048 0.79941 0.27333 0.0
H314 H 0.74022 0.79082 0.3011 0.0
H315 H 0.71372 0.81595 0.31619 0.0
H316 H 0.31117 0.82147 0.25502 0.0
H317 H 0.28534 0.79588 0.27094 0.0
H318 H 0.2846 0.76531 0.1973 0.0
H319 H 0.31047 0.79069 0.1813 0.0
H320 H 0.2444 0.78862 0.25021 0.0
H321 H 0.2939 0.71641 0.24813 0.0
H322 H 0.30498 0.74263 0.24712 0.0
H323 H 0.29367 0.7312 0.21884 0.0
C324 C 0.30564 0.80917 0.24231 0.0
C325 C 0.31286 0.80802 0.21695 0.0
C326 C 0.29089 0.79461 0.25141 0.0
C327 C 0.28329 0.77859 0.23537 0.0
C328 C 0.29057 0.77734 0.2101 0.0
H329 H 0.19141 0.67837 0.24747 0.0
H330 H 0.21812 0.7038 0.23362 0.0
C331 C 0.30527 0.7919 0.20097 0.0
C332 C 0.26703 0.76374 0.24467 0.0
H333 H 0.25724 0.71157 0.25526 0.0
C334 C 0.24721 0.77178 0.25151 0.0
C335 C 0.27078 0.74181 0.24619 0.0
C336 C 0.29203 0.73245 0.2399 0.0
C337 C 0.23081 0.75838 0.25929 0.0
C338 C 0.23454 0.73642 0.26074 0.0
C339 C 0.25443 0.72841 0.25406 0.0
C340 C 0.218 0.72143 0.26904 0.0
C341 C 0.20951 0.76778 0.2652 0.0
C342 C 0.2092 0.72287 0.29359 0.0
C343 C 0.19387 0.70845 0.30149 0.0
C344 C 0.18726 0.69222 0.28504 0.0
C345 C 0.19616 0.69075 0.26052 0.0
C346 C 0.21143 0.70522 0.2526 0.0
H347 H 0.2077 0.78374 0.25671 0.0
H348 H 0.1966 0.75756 0.25798 0.0
H349 H 0.20772 0.7693 0.28622 0.0
H350 H 0.21438 0.73498 0.30677 0.0
H351 H 0.1874 0.70986 0.32057 0.0
H352 H 0.66802 0.78463 0.71782 0.0
H353 H 0.69464 0.75932 0.7322 0.0
H354 H 0.74296 0.80667 0.72391 0.0
H355 H 0.71641 0.83214 0.70956 0.0
H356 H 0.73216 0.74626 0.70485 0.0
H357 H 0.74993 0.78422 0.7983 0.0
H358 H 0.72627 0.78994 0.78037 0.0
H359 H 0.75104 0.80109 0.77071 0.0
C360 C 0.68431 0.78967 0.71912 0.0
C361 C 0.69014 0.81038 0.71267 0.0
C362 C 0.69947 0.7752 0.72729 0.0
C363 C 0.72068 0.78123 0.72937 0.0
C364 C 0.7266 0.80184 0.72278 0.0
H365 H 0.8324 0.71418 0.78149 0.0
H366 H 0.80755 0.74054 0.7653 0.0
C367 C 0.71145 0.81632 0.71449 0.0
C368 C 0.73661 0.76579 0.73807 0.0
H369 H 0.77055 0.75469 0.78689 0.0
C370 C 0.74056 0.74805 0.72279 0.0
C371 C 0.74757 0.7683 0.7614 0.0
C372 C 0.74346 0.78681 0.77882 0.0
C373 C 0.75536 0.73277 0.73015 0.0
C374 C 0.76609 0.73508 0.7537 0.0
C375 C 0.76227 0.75295 0.76886 0.0
C376 C 0.78114 0.71901 0.76317 0.0
C377 C 0.75962 0.71449 0.71242 0.0
C378 C 0.77444 0.69823 0.76762 0.0
C379 C 0.78861 0.68314 0.77676 0.0
C380 C 0.80967 0.68862 0.78185 0.0
C381 C 0.81627 0.70949 0.77768 0.0
C382 C 0.80211 0.72456 0.76845 0.0
H383 H 0.75486 0.71813 0.69246 0.0
H384 H 0.77658 0.71013 0.71255 0.0
H385 H 0.75036 0.70061 0.71884 0.0
H386 H 0.7582 0.69373 0.76424 0.0
H387 H 0.78303 0.66722 0.77996 0.0
H388 H 0.21146 0.66497 0.7288 0.0
H389 H 0.23675 0.69112 0.74448 0.0
H390 H 0.19534 0.74122 0.72033 0.0
H391 H 0.16991 0.71516 0.70459 0.0
H392 H 0.25599 0.72453 0.71428 0.0
H393 H 0.20939 0.75455 0.79668 0.0
H394 H 0.20397 0.72949 0.78162 0.0
H395 H 0.19586 0.75356 0.76648 0.0
C396 C 0.20769 0.68155 0.72694 0.0
C397 C 0.1887 0.68805 0.71554 0.0
C398 C 0.22215 0.69644 0.73587 0.0
C399 C 0.21777 0.71804 0.73377 0.0
C400 C 0.19883 0.72459 0.72243 0.0
H401 H 0.28461 0.83166 0.77732 0.0
H402 H 0.25903 0.80566 0.76205 0.0
C403 C 0.18439 0.70971 0.71337 0.0
C404 C 0.23334 0.73371 0.74281 0.0
H405 H 0.24122 0.77233 0.78719 0.0
C406 C 0.25284 0.73496 0.73027 0.0
C407 C 0.22905 0.74729 0.76357 0.0
C408 C 0.20851 0.74615 0.77807 0.0
C409 C 0.26813 0.74973 0.73771 0.0
C410 C 0.26394 0.76322 0.75865 0.0
C411 C 0.24439 0.76195 0.77117 0.0
C412 C 0.27957 0.77884 0.76783 0.0
C413 C 0.28839 0.75109 0.72266 0.0
C414 C 0.29951 0.77234 0.77644 0.0
C415 C 0.31421 0.78717 0.78501 0.0
C416 C 0.30909 0.80872 0.78541 0.0
C417 C 0.289 0.81515 0.77718 0.0
C418 C 0.27437 0.80034 0.76848 0.0
H419 H 0.28668 0.74407 0.7033 0.0
H420 H 0.29364 0.7677 0.72057 0.0
H421 H 0.30091 0.74224 0.73288 0.0
H422 H 0.30366 0.75579 0.77669 0.0
H423 H 0.32951 0.78175 0.79143 0.0
H424 H 0.17279 0.2816 0.80254 0.0
H425 H 0.19879 0.25583 0.78755 0.0
H426 H 0.23375 0.30556 0.7506 0.0
H427 H 0.20801 0.33142 0.76573 0.0
H428 H 0.21096 0.24666 0.73684 0.0
H429 H 0.27847 0.27582 0.79449 0.0
H430 H 0.25153 0.28323 0.80111 0.0
H431 H 0.26575 0.29569 0.77551 0.0
C432 C 0.18605 0.28703 0.79127 0.0
C433 C 0.18844 0.30852 0.78541 0.0
C434 C 0.20085 0.27231 0.78272 0.0
C435 C 0.21834 0.27886 0.76833 0.0
C436 C 0.22059 0.30026 0.76214 0.0
H437 H 0.32429 0.21673 0.69616 0.0
H438 H 0.29799 0.24186 0.71188 0.0
C439 C 0.20581 0.31498 0.77067 0.0
C440 C 0.23403 0.26327 0.75934 0.0
H441 H 0.28615 0.25014 0.7628 0.0
C442 C 0.22738 0.24731 0.74261 0.0
C443 C 0.25542 0.26424 0.76691 0.0
C444 C 0.26324 0.28054 0.78567 0.0
C445 C 0.24169 0.23252 0.73277 0.0
C446 C 0.2631 0.23355 0.74025 0.0
C447 C 0.26972 0.24946 0.75707 0.0
C448 C 0.27892 0.21827 0.7308 0.0
C449 C 0.23387 0.21623 0.71398 0.0
C450 C 0.27702 0.19675 0.73656 0.0
C451 C 0.29198 0.18238 0.7276 0.0
C452 C 0.30916 0.18932 0.71287 0.0
C453 C 0.31119 0.21092 0.70742 0.0
C454 C 0.2962 0.22528 0.71638 0.0
H455 H 0.2185 0.2208 0.70542 0.0
H456 H 0.24547 0.21378 0.69836 0.0
H457 H 0.23167 0.20099 0.72405 0.0
H458 H 0.26401 0.19109 0.7481 0.0
H459 H 0.29008 0.16584 0.73222 0.0
H460 H 0.69268 0.17306 0.74849 0.0
H461 H 0.71854 0.19854 0.73244 0.0
H462 H 0.70717 0.2383 0.79788 0.0
H463 H 0.68149 0.21285 0.81419 0.0
H464 H 0.71336 0.24174 0.72045 0.0
H465 H 0.77152 0.22959 0.79847 0.0
H466 H 0.75005 0.21154 0.79254 0.0
H467 H 0.74536 0.23588 0.80918 0.0
C468 C 0.6957 0.18724 0.75945 0.0
C469 C 0.68518 0.19092 0.78267 0.0
C470 C 0.71044 0.20177 0.75024 0.0
C471 C 0.71496 0.22013 0.76417 0.0
C472 C 0.70417 0.22404 0.7871 0.0
H473 H 0.7818 0.33203 0.71256 0.0
H474 H 0.75521 0.30669 0.72708 0.0
C475 C 0.68945 0.20953 0.79631 0.0
C476 C 0.73098 0.23521 0.75473 0.0
H477 H 0.77818 0.25786 0.76989 0.0
C478 C 0.72756 0.24526 0.73119 0.0
C479 C 0.74958 0.23954 0.76869 0.0
C480 C 0.75452 0.22846 0.79352 0.0
C481 C 0.74216 0.25981 0.7214 0.0
C482 C 0.76047 0.26458 0.73572 0.0
C483 C 0.76402 0.25429 0.75908 0.0
C484 C 0.77639 0.27993 0.72665 0.0
C485 C 0.73805 0.26969 0.69564 0.0
C486 C 0.79717 0.27335 0.72212 0.0
C487 C 0.81239 0.28779 0.714 0.0
C488 C 0.8071 0.3091 0.71038 0.0
C489 C 0.7863 0.31569 0.71507 0.0
C490 C 0.77107 0.30122 0.72321 0.0
H491 H 0.72623 0.2606 0.68446 0.0
H492 H 0.73182 0.28587 0.69842 0.0
H493 H 0.75281 0.27082 0.68432 0.0
H494 H 0.8016 0.257 0.7248 0.0
H495 H 0.8283 0.28226 0.71058 0.0
H496 H 0.11621 0.34584 0.89797 0.0
H497 H 0.11833 0.34585 0.94466 0.0
H498 H 0.18585 0.35339 0.94033 0.0
H499 H 0.18379 0.35386 0.89358 0.0
H500 H 0.13963 0.31917 0.97706 0.0
H501 H 0.16886 0.40129 0.98772 0.0
H502 H 0.15833 0.39136 0.95802 0.0
H503 H 0.18481 0.38492 0.96747 0.0
C504 C 0.1315 0.34753 0.90696 0.0
C505 C 0.14982 0.34998 0.89216 0.0
C506 C 0.13269 0.34752 0.93362 0.0
C507 C 0.1522 0.34997 0.94594 0.0
C508 C 0.17058 0.35197 0.9312 0.0
H509 H 0.18405 0.35189 0.10849 0.0
H510 H 0.18585 0.35045 0.06166 0.0
C511 C 0.1694 0.35209 0.90452 0.0
C512 C 0.1532 0.35022 0.97423 0.0
H513 H 0.16677 0.38077 0.02545 0.0
C514 C 0.14556 0.33264 0.98764 0.0
C515 C 0.16098 0.36781 0.98796 0.0
C516 C 0.16854 0.38751 0.97461 0.0
C517 C 0.14547 0.33218 0.01445 0.0
C518 C 0.15305 0.34983 0.02812 0.0
C519 C 0.16103 0.36726 0.01479 0.0
C520 C 0.15203 0.35079 0.05632 0.0
C521 C 0.13735 0.31281 0.02798 0.0
C522 C 0.13243 0.35178 0.06864 0.0
C523 C 0.13135 0.35273 0.09526 0.0
C524 C 0.14987 0.35268 0.11001 0.0
C525 C 0.16952 0.35189 0.0976 0.0
C526 C 0.17058 0.35108 0.07091 0.0
H527 H 0.13657 0.29895 0.01501 0.0
H528 H 0.14751 0.30882 0.04459 0.0
H529 H 0.12121 0.31596 0.03525 0.0
H530 H 0.11796 0.35187 0.05762 0.0
H531 H 0.11599 0.35337 0.10429 0.0
H532 H 0.6741 0.12421 0.8939 0.0
H533 H 0.67629 0.12456 0.94073 0.0
H534 H 0.62932 0.17366 0.94349 0.0
H535 H 0.6269 0.1733 0.89686 0.0
H536 H 0.6859 0.15875 0.97462 0.0
H537 H 0.6053 0.12695 0.99003 0.0
H538 H 0.61859 0.12545 0.95956 0.0
H539 H 0.60639 0.14966 0.96956 0.0
C540 C 0.66427 0.13509 0.90451 0.0
C541 C 0.65023 0.14863 0.89177 0.0
C542 C 0.66556 0.13528 0.93121 0.0
C543 C 0.65273 0.14891 0.94551 0.0
C544 C 0.63906 0.16276 0.93279 0.0
H545 H 0.63056 0.17342 0.10577 0.0
H546 H 0.63194 0.17436 0.05901 0.0
C547 C 0.63778 0.1626 0.90616 0.0
C548 C 0.6535 0.14864 0.97376 0.0
H549 H 0.62331 0.1397 0.02666 0.0
C550 C 0.67228 0.15448 0.98605 0.0
C551 C 0.63568 0.14303 0.98853 0.0
C552 C 0.61539 0.13573 0.97631 0.0
C553 C 0.67356 0.15536 0.01284 0.0
C554 C 0.65567 0.14996 0.02757 0.0
C555 C 0.63695 0.14395 0.01526 0.0
C556 C 0.65596 0.15027 0.05585 0.0
C557 C 0.69386 0.16251 0.02514 0.0
C558 C 0.66902 0.13642 0.06948 0.0
C559 C 0.66826 0.13583 0.09617 0.0
C560 C 0.65434 0.14904 0.10963 0.0
C561 C 0.64148 0.1631 0.09592 0.0
C562 C 0.64222 0.16364 0.06924 0.0
H563 H 0.70425 0.17084 0.01134 0.0
H564 H 0.69065 0.17315 0.04155 0.0
H565 H 0.70251 0.14855 0.03246 0.0
H566 H 0.67944 0.12571 0.05947 0.0
H567 H 0.67829 0.12478 0.10623 0.0
H568 H 0.81854 0.62834 0.89065 0.0
H569 H 0.81667 0.62938 0.93739 0.0
H570 H 0.86812 0.67383 0.9391 0.0
H571 H 0.87001 0.67299 0.89238 0.0
H572 H 0.85001 0.61828 0.97053 0.0
H573 H 0.8238 0.70072 0.98655 0.0
H574 H 0.82118 0.68762 0.95605 0.0
H575 H 0.84623 0.69816 0.96581 0.0
C576 C 0.82928 0.63854 0.90097 0.0
C577 C 0.84442 0.65061 0.88789 0.0
C578 C 0.82819 0.63909 0.92764 0.0
C579 C 0.84209 0.65186 0.94163 0.0
C580 C 0.857 0.66418 0.92861 0.0
H581 H 0.87443 0.67146 0.09961 0.0
H582 H 0.87096 0.67194 0.05305 0.0
C583 C 0.85813 0.6636 0.90194 0.0
C584 C 0.84195 0.65124 0.9699 0.0
H585 H 0.83612 0.68193 0.02302 0.0
C586 C 0.84677 0.63213 0.98206 0.0
C587 C 0.8378 0.66937 0.98478 0.0
C588 C 0.83177 0.6901 0.97269 0.0
C589 C 0.8482 0.63078 0.00877 0.0
C590 C 0.84426 0.64897 0.02367 0.0
C591 C 0.83914 0.66802 0.01151 0.0
C592 C 0.84599 0.6487 0.05189 0.0
C593 C 0.8546 0.6101 0.02073 0.0
C594 C 0.83292 0.63564 0.06667 0.0
C595 C 0.83494 0.63525 0.09327 0.0
C596 C 0.84994 0.64806 0.10552 0.0
C597 C 0.86277 0.66137 0.0907 0.0
C598 C 0.86078 0.66169 0.06412 0.0
H599 H 0.86203 0.59933 0.0066 0.0
H600 H 0.86583 0.61266 0.03673 0.0
H601 H 0.8404 0.60213 0.02849 0.0
H602 H 0.82111 0.62581 0.05762 0.0
H603 H 0.82474 0.62496 0.10424 0.0
H604 H 0.38452 0.84886 0.10282 0.0
H605 H 0.38306 0.84907 0.05606 0.0
H606 H 0.31543 0.85601 0.05906 0.0
H607 H 0.31682 0.85625 0.10581 0.0
H608 H 0.36228 0.8221 0.02332 0.0
H609 H 0.33262 0.90392 0.01178 0.0
H610 H 0.34294 0.89417 0.04168 0.0
H611 H 0.31653 0.88765 0.03197 0.0
C612 C 0.36935 0.8505 0.09351 0.0
C613 C 0.3508 0.85267 0.10794 0.0
C614 C 0.36854 0.8506 0.06682 0.0
C615 C 0.34918 0.85291 0.05411 0.0
C616 C 0.33059 0.85471 0.06848 0.0
H617 H 0.31592 0.85317 0.8923 0.0
H618 H 0.31492 0.85233 0.93919 0.0
C619 C 0.33139 0.85471 0.09518 0.0
C620 C 0.34847 0.85305 0.02581 0.0
H621 H 0.33437 0.88297 0.97427 0.0
C622 C 0.35622 0.83542 0.01259 0.0
C623 C 0.34052 0.87046 0.01188 0.0
C624 C 0.33285 0.89021 0.025 0.0
C625 C 0.35613 0.83468 0.98579 0.0
C626 C 0.34827 0.85209 0.97191 0.0
C627 C 0.34031 0.86963 0.98506 0.0
C628 C 0.34883 0.85266 0.94368 0.0
C629 C 0.36428 0.8152 0.97249 0.0
C630 C 0.36822 0.85343 0.93085 0.0
C631 C 0.36884 0.85401 0.90418 0.0
C632 C 0.35006 0.85384 0.88991 0.0
C633 C 0.33063 0.85326 0.90282 0.0
C634 C 0.33003 0.85279 0.92954 0.0
H635 H 0.36528 0.80152 0.98569 0.0
H636 H 0.35399 0.81094 0.9561 0.0
H637 H 0.38032 0.81839 0.96495 0.0
H638 H 0.38288 0.85365 0.94148 0.0
H639 H 0.38404 0.8545 0.89476 0.0
H640 H 0.18406 0.63858 0.60546 0.0
H641 H 0.18587 0.63905 0.55866 0.0
H642 H 0.12023 0.65662 0.5551 0.0
H643 H 0.11835 0.65643 0.60178 0.0
H644 H 0.16217 0.61473 0.52451 0.0
H645 H 0.14861 0.7001 0.50867 0.0
H646 H 0.15584 0.68944 0.53946 0.0
H647 H 0.12899 0.68792 0.52852 0.0
C648 C 0.17007 0.64273 0.59468 0.0
C649 C 0.15108 0.64757 0.60724 0.0
C650 C 0.17113 0.64296 0.56799 0.0
C651 C 0.15327 0.64816 0.55347 0.0
C652 C 0.13431 0.65299 0.56598 0.0
H653 H 0.11566 0.65089 0.39608 0.0
H654 H 0.11854 0.65119 0.44268 0.0
C655 C 0.13323 0.65277 0.59263 0.0
C656 C 0.15416 0.64771 0.5252 0.0
H657 H 0.14558 0.67779 0.47213 0.0
C658 C 0.15877 0.62855 0.51301 0.0
C659 C 0.14975 0.6658 0.51033 0.0
C660 C 0.14571 0.68703 0.52238 0.0
C661 C 0.15834 0.6268 0.48626 0.0
C662 C 0.15342 0.64477 0.47143 0.0
C663 C 0.14924 0.66403 0.48362 0.0
C664 C 0.15184 0.64383 0.44325 0.0
C665 C 0.16242 0.60563 0.47409 0.0
C666 C 0.16966 0.63962 0.42819 0.0
C667 C 0.16807 0.63942 0.40152 0.0
C668 C 0.14864 0.64352 0.38957 0.0
C669 C 0.13083 0.64763 0.40475 0.0
C670 C 0.13245 0.64785 0.43135 0.0
H671 H 0.16171 0.59259 0.48824 0.0
H672 H 0.1508 0.60246 0.45868 0.0
H673 H 0.17838 0.60564 0.46538 0.0
H674 H 0.18484 0.63679 0.43705 0.0
H675 H 0.18208 0.63631 0.39029 0.0
H676 H 0.38191 0.15453 0.59954 0.0
H677 H 0.37981 0.15551 0.55294 0.0
H678 H 0.31227 0.14799 0.55695 0.0
H679 H 0.31433 0.14643 0.6037 0.0
H680 H 0.32945 0.12199 0.52214 0.0
H681 H 0.36022 0.20268 0.50713 0.0
H682 H 0.37795 0.1868 0.52563 0.0
H683 H 0.35228 0.19314 0.53818 0.0
C684 C 0.36659 0.15324 0.59051 0.0
C685 C 0.34827 0.15048 0.60523 0.0
C686 C 0.3654 0.15395 0.56388 0.0
C687 C 0.34584 0.15225 0.55148 0.0
C688 C 0.32751 0.14949 0.56615 0.0
H689 H 0.33237 0.1758 0.38774 0.0
H690 H 0.32937 0.17755 0.43436 0.0
C691 C 0.3287 0.14861 0.59282 0.0
C692 C 0.34471 0.15233 0.52318 0.0
H693 H 0.35962 0.18014 0.47034 0.0
C694 C 0.33585 0.1348 0.5108 0.0
C695 C 0.35275 0.1692 0.50841 0.0
C696 C 0.36113 0.18911 0.52052 0.0
C697 C 0.33545 0.13337 0.48405 0.0
C698 C 0.34465 0.14966 0.46931 0.0
C699 C 0.35285 0.16752 0.48167 0.0
C700 C 0.34619 0.14838 0.44109 0.0
C701 C 0.32503 0.11448 0.47186 0.0
C702 C 0.35689 0.13156 0.42944 0.0
C703 C 0.35848 0.13044 0.40284 0.0
C704 C 0.34968 0.14631 0.38745 0.0
C705 C 0.33929 0.16333 0.39914 0.0
C706 C 0.33756 0.16436 0.42574 0.0
H707 H 0.3133 0.10715 0.4849 0.0
H708 H 0.31697 0.11885 0.45377 0.0
H709 H 0.33719 0.10245 0.46748 0.0
H710 H 0.36417 0.11936 0.44092 0.0
H711 H 0.36673 0.11723 0.39436 0.0
H712 H 0.84705 0.38345 0.39431 0.0
H713 H 0.84671 0.38127 0.44101 0.0
H714 H 0.85321 0.31367 0.43658 0.0
H715 H 0.854 0.31577 0.38985 0.0
H716 H 0.8194 0.36007 0.47314 0.0
H717 H 0.90121 0.33011 0.48437 0.0
H718 H 0.89157 0.3409 0.45466 0.0
H719 H 0.88481 0.31444 0.46382 0.0
C720 C 0.84843 0.36812 0.40329 0.0
C721 C 0.85069 0.34979 0.38847 0.0
C722 C 0.84822 0.3669 0.42995 0.0
C723 C 0.85029 0.34735 0.44224 0.0
C724 C 0.85208 0.32896 0.42748 0.0
H725 H 0.8527 0.31442 0.60433 0.0
H726 H 0.85128 0.31305 0.55748 0.0
C727 C 0.85239 0.33018 0.4008 0.0
C728 C 0.85036 0.34629 0.47052 0.0
H729 H 0.88048 0.33223 0.52191 0.0
C730 C 0.83275 0.35399 0.48381 0.0
C731 C 0.8678 0.33831 0.48436 0.0
C732 C 0.88751 0.33063 0.47113 0.0
C733 C 0.83209 0.3539 0.51061 0.0
C734 C 0.8496 0.34613 0.52442 0.0
C735 C 0.86708 0.33813 0.51118 0.0
C736 C 0.85039 0.34691 0.55265 0.0
C737 C 0.81262 0.362 0.52397 0.0
C738 C 0.85067 0.3664 0.56529 0.0
C739 C 0.85156 0.36724 0.59194 0.0
C740 C 0.85222 0.34857 0.60639 0.0
C741 C 0.85215 0.32905 0.59367 0.0
C742 C 0.85134 0.32824 0.56697 0.0
H743 H 0.79878 0.36245 0.51094 0.0
H744 H 0.80868 0.35203 0.54076 0.0
H745 H 0.81559 0.37827 0.53089 0.0
H746 H 0.85031 0.38099 0.55452 0.0
H747 H 0.85167 0.38251 0.6012 0.0
H748 H 0.66482 0.87744 0.60364 0.0
H749 H 0.66469 0.87527 0.55692 0.0
H750 H 0.635 0.81418 0.56103 0.0
H751 H 0.63467 0.81642 0.60774 0.0
H752 H 0.68263 0.84603 0.52417 0.0
H753 H 0.5954 0.84673 0.51411 0.0
H754 H 0.6085 0.8533 0.54369 0.0
H755 H 0.6054 0.82619 0.53437 0.0
C756 C 0.6583 0.86353 0.59459 0.0
C757 C 0.64961 0.84716 0.60931 0.0
C758 C 0.65825 0.86231 0.56792 0.0
C759 C 0.64949 0.84474 0.55553 0.0
C760 C 0.64139 0.82809 0.57021 0.0
H761 H 0.63395 0.81573 0.39332 0.0
H762 H 0.63544 0.81357 0.44013 0.0
C763 C 0.64134 0.82934 0.59688 0.0
C764 C 0.64883 0.84394 0.52724 0.0
H765 H 0.61521 0.84155 0.47629 0.0
C766 C 0.6679 0.84505 0.51369 0.0
C767 C 0.62956 0.84264 0.51364 0.0
C768 C 0.60853 0.84234 0.52714 0.0
C769 C 0.66823 0.84485 0.48688 0.0
C770 C 0.64897 0.84375 0.47332 0.0
C771 C 0.62993 0.84232 0.48682 0.0
C772 C 0.64822 0.84493 0.4451 0.0
C773 C 0.68917 0.8457 0.47323 0.0
C774 C 0.65462 0.86338 0.43255 0.0
C775 C 0.65371 0.86469 0.40594 0.0
C776 C 0.64634 0.84757 0.39141 0.0
C777 C 0.63975 0.82915 0.40404 0.0
C778 C 0.64059 0.82789 0.43072 0.0
H779 H 0.70242 0.84122 0.48604 0.0
H780 H 0.68921 0.83507 0.45635 0.0
H781 H 0.69202 0.86201 0.46641 0.0
H782 H 0.6602 0.87684 0.44338 0.0
H783 H 0.65883 0.87912 0.39676 0.0
H784 H 0.17979 0.58906 0.26795 0.0
H785 H 0.18178 0.55288 0.25176 0.0
H786 H 0.12496 0.53717 0.2929 0.0
H787 H 0.1226 0.57341 0.30863 0.0
H788 H 0.18474 0.51477 0.27592 0.0
H789 H 0.11035 0.51944 0.22053 0.0
H790 H 0.12295 0.54241 0.23398 0.0
H791 H 0.10692 0.5256 0.25375 0.0
C792 C 0.16776 0.57787 0.27359 0.0
C793 C 0.15093 0.58408 0.28936 0.0
C794 C 0.16892 0.55722 0.26434 0.0
C795 C 0.15328 0.54247 0.27071 0.0
C796 C 0.13689 0.54845 0.28722 0.0
H797 H 0.15791 0.4067 0.25435 0.0
H798 H 0.15968 0.44311 0.26956 0.0
C799 C 0.13564 0.56911 0.29633 0.0
C800 C 0.15402 0.52086 0.25997 0.0
H801 H 0.12553 0.48535 0.22518 0.0
C802 C 0.17185 0.50834 0.26471 0.0
C803 C 0.13736 0.51267 0.24495 0.0
C804 C 0.11841 0.52579 0.23776 0.0
C805 C 0.17325 0.48764 0.25534 0.0
C806 C 0.15615 0.47913 0.24134 0.0
C807 C 0.13854 0.49183 0.23612 0.0
C808 C 0.15603 0.45705 0.23203 0.0
C809 C 0.19314 0.47523 0.26022 0.0
C810 C 0.15292 0.45277 0.20596 0.0
C811 C 0.15161 0.43198 0.19728 0.0
C812 C 0.15338 0.4151 0.21453 0.0
C813 C 0.15666 0.41939 0.24059 0.0
C814 C 0.15782 0.44019 0.24928 0.0
H815 H 0.20676 0.48578 0.26413 0.0
H816 H 0.19083 0.46506 0.27725 0.0
H817 H 0.19709 0.46498 0.24369 0.0
H818 H 0.15138 0.46555 0.19234 0.0
H819 H 0.14905 0.42914 0.1771 0.0
H820 H 0.59364 0.14095 0.25477 0.0
H821 H 0.55712 0.14301 0.26982 0.0
H822 H 0.53719 0.16339 0.19494 0.0
H823 H 0.57355 0.16091 0.17962 0.0
H824 H 0.52909 0.17648 0.27147 0.0
H825 H 0.49906 0.11301 0.20808 0.0
H826 H 0.52685 0.11763 0.21297 0.0
H827 H 0.51208 0.13401 0.19136 0.0
C828 C 0.58146 0.14588 0.24153 0.0
C829 C 0.5864 0.15059 0.21597 0.0
C830 C 0.56063 0.14707 0.25015 0.0
C831 C 0.54441 0.15298 0.23337 0.0
C832 C 0.5494 0.1583 0.20804 0.0
H833 H 0.40846 0.16381 0.24826 0.0
H834 H 0.44519 0.16625 0.23411 0.0
C835 C 0.57019 0.15699 0.19936 0.0
C836 C 0.52225 0.15347 0.24234 0.0
H837 H 0.47356 0.13229 0.23151 0.0
C838 C 0.51694 0.16679 0.2628 0.0
C839 C 0.50645 0.14078 0.231 0.0
C840 C 0.51138 0.1254 0.2098 0.0
C841 C 0.49616 0.16798 0.27198 0.0
C842 C 0.48039 0.15532 0.26057 0.0
C843 C 0.48569 0.14206 0.2401 0.0
C844 C 0.45834 0.15521 0.26985 0.0
C845 C 0.49119 0.18299 0.29352 0.0
C846 C 0.4536 0.1482 0.29464 0.0
C847 C 0.43265 0.14679 0.30277 0.0
C848 C 0.41609 0.15226 0.28618 0.0
C849 C 0.42089 0.15953 0.26148 0.0
C850 C 0.44184 0.16092 0.25336 0.0
H851 H 0.50355 0.19529 0.29566 0.0
H852 H 0.47575 0.19083 0.2904 0.0
H853 H 0.49031 0.17404 0.31172 0.0
H854 H 0.46608 0.14332 0.30748 0.0
H855 H 0.42942 0.14103 0.32186 0.0
H856 H 0.88207 0.581 0.21887 0.0
H857 H 0.87822 0.54478 0.23416 0.0
H858 H 0.81141 0.54731 0.21915 0.0
H859 H 0.8151 0.58372 0.20381 0.0
H860 H 0.84931 0.53104 0.27584 0.0
H861 H 0.83432 0.49267 0.18171 0.0
H862 H 0.8471 0.51804 0.18431 0.0
H863 H 0.81926 0.51583 0.18965 0.0
C864 C 0.86655 0.57385 0.21875 0.0
C865 C 0.84888 0.58517 0.21011 0.0
C866 C 0.86439 0.55318 0.22751 0.0
C867 C 0.84458 0.54339 0.22757 0.0
C868 C 0.82687 0.55458 0.21897 0.0
H869 H 0.81622 0.41226 0.26834 0.0
H870 H 0.81288 0.44889 0.25379 0.0
C871 C 0.82899 0.57536 0.21032 0.0
C872 C 0.8426 0.52156 0.23718 0.0
H873 H 0.83559 0.47064 0.21787 0.0
C874 C 0.84618 0.51782 0.26323 0.0
C875 C 0.83832 0.50446 0.22067 0.0
C876 C 0.83462 0.50777 0.19247 0.0
C877 C 0.8459 0.4973 0.27322 0.0
C878 C 0.84251 0.48005 0.25654 0.0
C879 C 0.83828 0.48387 0.23059 0.0
C880 C 0.84437 0.45793 0.26541 0.0
C881 C 0.84916 0.49433 0.30158 0.0
C882 C 0.86328 0.4508 0.27633 0.0
C883 C 0.86518 0.43002 0.28476 0.0
C884 C 0.84828 0.41585 0.28211 0.0
C885 C 0.82948 0.42286 0.27069 0.0
C886 C 0.82755 0.44375 0.26238 0.0
H887 H 0.84471 0.50871 0.31244 0.0
H888 H 0.83981 0.48083 0.30894 0.0
H889 H 0.86609 0.49117 0.30532 0.0
H890 H 0.87666 0.4613 0.27821 0.0
H891 H 0.87994 0.42503 0.29325 0.0
H892 H 0.57374 0.87668 0.30369 0.0
H893 H 0.53737 0.87389 0.28854 0.0
H894 H 0.54795 0.80889 0.26804 0.0
H895 H 0.5844 0.81151 0.28335 0.0
H896 H 0.52613 0.863 0.23743 0.0
H897 H 0.49172 0.8076 0.30861 0.0
H898 H 0.51583 0.822 0.31449 0.0
H899 H 0.51596 0.79946 0.29374 0.0
C900 C 0.56826 0.86171 0.29627 0.0
C901 C 0.5819 0.84431 0.29471 0.0
C902 C 0.5475 0.86015 0.28759 0.0
C903 C 0.53995 0.84115 0.27738 0.0
C904 C 0.55339 0.8236 0.27624 0.0
H905 H 0.41721 0.81327 0.20769 0.0
H906 H 0.45346 0.8102 0.22388 0.0
C907 C 0.57421 0.82515 0.28488 0.0
C908 C 0.51842 0.84023 0.26649 0.0
H909 H 0.46973 0.81816 0.27444 0.0
C910 C 0.51379 0.85318 0.24549 0.0
C911 C 0.50248 0.82723 0.27692 0.0
C912 C 0.50659 0.81336 0.2998 0.0
C913 C 0.49355 0.85366 0.23475 0.0
C914 C 0.47742 0.84114 0.24563 0.0
C915 C 0.48215 0.82777 0.26622 0.0
C916 C 0.45535 0.8426 0.23659 0.0
C917 C 0.4896 0.86752 0.21179 0.0
C918 C 0.44437 0.86169 0.23888 0.0
C919 C 0.4238 0.86348 0.22971 0.0
C920 C 0.41376 0.84617 0.21817 0.0
C921 C 0.4246 0.82689 0.21641 0.0
C922 C 0.44525 0.8251 0.22565 0.0
H923 H 0.50449 0.87141 0.20163 0.0
H924 H 0.47865 0.8598 0.19812 0.0
H925 H 0.48232 0.88252 0.21819 0.0
H926 H 0.45178 0.87526 0.2477 0.0
H927 H 0.41582 0.87851 0.23149 0.0
H928 H 0.85511 0.56755 0.81838 0.0
H929 H 0.85141 0.53125 0.80331 0.0
H930 H 0.82439 0.55378 0.73273 0.0
H931 H 0.8285 0.59023 0.74746 0.0
H932 H 0.81643 0.50852 0.78878 0.0
H933 H 0.87247 0.51681 0.70776 0.0
H934 H 0.87023 0.53635 0.73267 0.0
H935 H 0.85109 0.53535 0.70733 0.0
C936 C 0.84838 0.56478 0.79964 0.0
C937 C 0.84225 0.58171 0.78399 0.0
C938 C 0.84624 0.54404 0.79109 0.0
C939 C 0.83794 0.53984 0.76675 0.0
C940 C 0.83127 0.5567 0.75135 0.0
H941 H 0.82274 0.42206 0.68328 0.0
H942 H 0.81922 0.45841 0.69839 0.0
C943 C 0.83352 0.57749 0.75983 0.0
C944 C 0.83653 0.51779 0.75754 0.0
H945 H 0.85443 0.48435 0.71124 0.0
C946 C 0.82471 0.50322 0.77181 0.0
C947 C 0.8474 0.51093 0.73543 0.0
C948 C 0.86118 0.5256 0.72001 0.0
C949 C 0.82342 0.48196 0.7645 0.0
C950 C 0.8344 0.47512 0.74251 0.0
C951 C 0.84597 0.48972 0.72804 0.0
C952 C 0.83477 0.45274 0.73455 0.0
C953 C 0.81025 0.467 0.78023 0.0
C954 C 0.84458 0.43753 0.74998 0.0
C955 C 0.84667 0.41677 0.74137 0.0
C956 C 0.83903 0.41093 0.71717 0.0
C957 C 0.82874 0.42608 0.70204 0.0
C958 C 0.82673 0.44684 0.71062 0.0
H959 H 0.79884 0.47554 0.79258 0.0
H960 H 0.80144 0.45591 0.76774 0.0
H961 H 0.82077 0.45759 0.79277 0.0
H962 H 0.8512 0.44187 0.76833 0.0
H963 H 0.85475 0.40545 0.75339 0.0
H964 H 0.59194 0.83056 0.75125 0.0
H965 H 0.55567 0.82525 0.76609 0.0
H966 H 0.53216 0.84813 0.69384 0.0
H967 H 0.56827 0.85305 0.67873 0.0
H968 H 0.52528 0.85509 0.77184 0.0
H969 H 0.49811 0.79466 0.70288 0.0
H970 H 0.52562 0.80112 0.70711 0.0
H971 H 0.50901 0.81743 0.68743 0.0
C972 C 0.57902 0.83425 0.73846 0.0
C973 C 0.58291 0.84216 0.71382 0.0
C974 C 0.55834 0.8312 0.74695 0.0
C975 C 0.54123 0.83593 0.7309 0.0
C976 C 0.54511 0.84384 0.70629 0.0
H977 H 0.40815 0.85525 0.74529 0.0
H978 H 0.44481 0.85131 0.73138 0.0
C979 C 0.56576 0.84681 0.69777 0.0
C980 C 0.51931 0.83397 0.74042 0.0
H981 H 0.47114 0.81279 0.72639 0.0
C982 C 0.5135 0.8456 0.76213 0.0
C983 C 0.50399 0.82158 0.72769 0.0
C984 C 0.50953 0.80782 0.70514 0.0
C985 C 0.49261 0.84582 0.77089 0.0
C986 C 0.4772 0.83392 0.75773 0.0
C987 C 0.48304 0.82193 0.73635 0.0
C988 C 0.45476 0.83455 0.76531 0.0
C989 C 0.48698 0.85935 0.79363 0.0
C990 C 0.44821 0.82595 0.78869 0.0
C991 C 0.42729 0.82812 0.79666 0.0
C992 C 0.41264 0.83895 0.78134 0.0
C993 C 0.41911 0.84688 0.75751 0.0
C994 C 0.44 0.84463 0.74953 0.0
H995 H 0.49992 0.87034 0.79888 0.0
H996 H 0.47253 0.86868 0.78965 0.0
H997 H 0.48371 0.84906 0.81032 0.0
H998 H 0.45937 0.81792 0.80097 0.0
H999 H 0.42273 0.8218 0.81508 0.0
H1000 H 0.15839 0.42824 0.82273 0.0
H1001 H 0.16186 0.46424 0.80638 0.0
H1002 H 0.16437 0.44027 0.72927 0.0
H1003 H 0.16046 0.40427 0.74543 0.0
H1004 H 0.19258 0.48384 0.77633 0.0
H1005 H 0.11507 0.48158 0.72687 0.0
H1006 H 0.12295 0.46188 0.74984 0.0
H1007 H 0.13281 0.46089 0.71763 0.0
C1008 C 0.15979 0.43064 0.8023 0.0
C1009 C 0.15893 0.41349 0.78532 0.0
C1010 C 0.16181 0.45119 0.79301 0.0
C1011 C 0.16299 0.45491 0.76661 0.0
C1012 C 0.16302 0.43775 0.74968 0.0
H1013 H 0.16314 0.56912 0.67538 0.0
H1014 H 0.16699 0.53285 0.69058 0.0
C1015 C 0.16089 0.4172 0.75894 0.0
C1016 C 0.16352 0.47678 0.75679 0.0
H1017 H 0.13612 0.51183 0.7201 0.0
C1018 C 0.18025 0.48999 0.76404 0.0
C1019 C 0.14734 0.48475 0.74086 0.0
C1020 C 0.12842 0.47163 0.7335 0.0
C1021 C 0.18136 0.51095 0.75549 0.0
C1022 C 0.1652 0.51886 0.73955 0.0
C1023 C 0.14854 0.50562 0.73222 0.0
C1024 C 0.16485 0.54098 0.73066 0.0
C1025 C 0.19991 0.52438 0.76329 0.0
C1026 C 0.16245 0.55754 0.74822 0.0
C1027 C 0.16019 0.57827 0.7396 0.0
C1028 C 0.16022 0.58273 0.71328 0.0
C1029 C 0.16308 0.56616 0.69578 0.0
C1030 C 0.16528 0.54545 0.70441 0.0
H1031 H 0.21333 0.51466 0.77016 0.0
H1032 H 0.20536 0.53431 0.7471 0.0
H1033 H 0.19506 0.53502 0.77907 0.0
H1034 H 0.16168 0.55435 0.76854 0.0
H1035 H 0.15794 0.59072 0.75351 0.0
H1036 H 0.42768 0.13042 0.6868 0.0
H1037 H 0.46361 0.1344 0.70304 0.0
H1038 H 0.44377 0.18696 0.74945 0.0
H1039 H 0.40768 0.18319 0.73312 0.0
H1040 H 0.48344 0.19272 0.7224 0.0
H1041 H 0.47968 0.1179 0.77739 0.0
H1042 H 0.47268 0.11547 0.74423 0.0
H1043 H 0.45645 0.13094 0.76522 0.0
C1044 C 0.43096 0.1429 0.70037 0.0
C1045 C 0.41485 0.1564 0.70886 0.0
C1046 C 0.45147 0.14511 0.70966 0.0
C1047 C 0.45621 0.16078 0.72767 0.0
C1048 C 0.44035 0.17472 0.73561 0.0
H1049 H 0.56811 0.15826 0.82277 0.0
H1050 H 0.53207 0.16196 0.80683 0.0
C1051 C 0.41977 0.17252 0.72633 0.0
C1052 C 0.47763 0.16211 0.73873 0.0
H1053 H 0.51321 0.13422 0.77402 0.0
C1054 C 0.48997 0.18002 0.73381 0.0
C1055 C 0.48591 0.14561 0.75386 0.0
C1056 C 0.47297 0.12646 0.76073 0.0
C1057 C 0.51069 0.18161 0.74316 0.0
C1058 C 0.51923 0.16474 0.7575 0.0
C1059 C 0.50667 0.14708 0.76287 0.0
C1060 C 0.54119 0.16486 0.76712 0.0
C1061 C 0.52316 0.20138 0.73783 0.0
C1062 C 0.55828 0.16546 0.75008 0.0
C1063 C 0.57893 0.16341 0.75915 0.0
C1064 C 0.58276 0.16053 0.78539 0.0
C1065 C 0.56564 0.16043 0.80244 0.0
C1066 C 0.54505 0.16255 0.79338 0.0
H1067 H 0.51272 0.21482 0.7328 0.0
H1068 H 0.53292 0.20587 0.7546 0.0
H1069 H 0.53388 0.19851 0.72142 0.0
H1070 H 0.55563 0.16679 0.72969 0.0
H1071 H 0.59182 0.16344 0.74557 0.0
H1072 H 0.61666 0.07615 0.79463 0.0
H1073 H 0.62011 0.03951 0.78088 0.0
H1074 H 0.6875 0.04722 0.77477 0.0
H1075 H 0.68413 0.08412 0.78816 0.0
H1076 H 0.67027 0.02802 0.73265 0.0
H1077 H 0.64194 0.98915 0.82099 0.0
H1078 H 0.62376 0.00847 0.80909 0.0
H1079 H 0.6494 0.01661 0.82004 0.0
C1080 C 0.63224 0.07002 0.79055 0.0
C1081 C 0.65015 0.08298 0.79255 0.0
C1082 C 0.6342 0.04903 0.78285 0.0
C1083 C 0.6541 0.04053 0.77724 0.0
C1084 C 0.67202 0.05344 0.7792 0.0
H1085 H 0.67089 0.90539 0.7498 0.0
H1086 H 0.67418 0.94124 0.76683 0.0
C1087 C 0.67007 0.07448 0.78686 0.0
C1088 C 0.65598 0.01847 0.76817 0.0
H1089 H 0.64309 0.96773 0.7833 0.0
C1090 C 0.66454 0.0148 0.74383 0.0
C1091 C 0.6488 0.00121 0.78292 0.0
C1092 C 0.64066 0.004 0.80982 0.0
C1093 C 0.66536 0.99441 0.73344 0.0
C1094 C 0.65703 0.97732 0.7476 0.0
C1095 C 0.64923 0.98088 0.77234 0.0
C1096 C 0.65567 0.95574 0.73683 0.0
C1097 C 0.67518 0.99138 0.70742 0.0
C1098 C 0.64402 0.95198 0.71447 0.0
C1099 C 0.64219 0.93157 0.70468 0.0
C1100 C 0.6518 0.9145 0.71722 0.0
C1101 C 0.66336 0.91825 0.7397 0.0
C1102 C 0.66524 0.9387 0.74944 0.0
H1103 H 0.68634 0.00433 0.70278 0.0
H1104 H 0.68372 0.97613 0.70623 0.0
H1105 H 0.66258 0.99142 0.6927 0.0
H1106 H 0.63606 0.96479 0.70478 0.0
H1107 H 0.63305 0.92915 0.68743 0.0
H1108 H 0.90693 0.67128 0.75256 0.0
H1109 H 0.94334 0.67371 0.73719 0.0
H1110 H 0.96319 0.6304 0.79608 0.0
H1111 H 0.92701 0.62846 0.81201 0.0
H1112 H 0.99015 0.66282 0.79174 0.0
H1113 H 0.97357 0.62958 0.69569 0.0
H1114 H 0.9584 0.65269 0.70293 0.0
H1115 H 0.95449 0.62899 0.72123 0.0
C1116 C 0.91908 0.6623 0.76221 0.0
C1117 C 0.91414 0.64958 0.78338 0.0
C1118 C 0.93984 0.66359 0.75332 0.0
C1119 C 0.95592 0.65192 0.76518 0.0
C1120 C 0.95103 0.63949 0.78657 0.0
H1121 H 0.07651 0.61629 0.70341 0.0
H1122 H 0.04024 0.61869 0.71885 0.0
C1123 C 0.93035 0.63837 0.79563 0.0
C1124 C 0.97788 0.65256 0.75543 0.0
H1125 H 0.0081 0.64248 0.70283 0.0
C1126 C 0.99409 0.65839 0.7723 0.0
C1127 C 0.98301 0.64652 0.73013 0.0
C1128 C 0.9665 0.63889 0.7115 0.0
C1129 C 0.01531 0.65823 0.76464 0.0
C1130 C 0.02039 0.65263 0.73919 0.0
C1131 C 0.00416 0.64694 0.72227 0.0
C1132 C 0.0425 0.65149 0.73 0.0
C1133 C 0.03208 0.66334 0.78417 0.0
C1134 C 0.0558 0.66918 0.73092 0.0
C1135 C 0.07667 0.66777 0.72238 0.0
C1136 C 0.08442 0.64874 0.71237 0.0
C1137 C 0.07097 0.63117 0.71104 0.0
C1138 C 0.05023 0.63253 0.71982 0.0
H1139 H 0.02608 0.66166 0.80402 0.0
H1140 H 0.04605 0.65296 0.78185 0.0
H1141 H 0.03725 0.67992 0.78158 0.0
H1142 H 0.05003 0.68412 0.7381 0.0
H1143 H 0.08665 0.68161 0.72341 0.0
H1144 H 0.35266 0.09238 0.75114 0.0
H1145 H 0.35065 0.05598 0.76646 0.0
H1146 H 0.33185 0.03537 0.69125 0.0
H1147 H 0.33415 0.0717 0.67567 0.0
H1148 H 0.3171 0.02727 0.76692 0.0
H1149 H 0.38333 0.99861 0.70671 0.0
H1150 H 0.37806 0.02628 0.71152 0.0
H1151 H 0.3625 0.0113 0.68926 0.0
C1152 C 0.34803 0.0801 0.73789 0.0
C1153 C 0.34371 0.08484 0.71216 0.0
C1154 C 0.34688 0.05933 0.74667 0.0
C1155 C 0.34145 0.04296 0.72988 0.0
C1156 C 0.33649 0.04773 0.70437 0.0
H1157 H 0.33412 0.90701 0.74759 0.0
H1158 H 0.3313 0.94336 0.73223 0.0
C1159 C 0.3377 0.06849 0.69555 0.0
C1160 C 0.34125 0.02088 0.73904 0.0
H1161 H 0.36457 0.97292 0.73032 0.0
C1162 C 0.32748 0.01537 0.75896 0.0
C1163 C 0.35486 0.00544 0.72862 0.0
C1164 C 0.37067 0.01067 0.70801 0.0
C1165 C 0.32678 0.99471 0.76855 0.0
C1166 C 0.34041 0.97931 0.75816 0.0
C1167 C 0.35409 0.98479 0.73816 0.0
C1168 C 0.34105 0.95745 0.768 0.0
C1169 C 0.31127 0.98946 0.78947 0.0
C1170 C 0.34754 0.95338 0.79317 0.0
C1171 C 0.34919 0.93264 0.80198 0.0
C1172 C 0.34446 0.91565 0.78572 0.0
C1173 C 0.33782 0.91979 0.76057 0.0
C1174 C 0.33622 0.94052 0.75177 0.0
H1175 H 0.2985 0.0014 0.79082 0.0
H1176 H 0.30405 0.97373 0.78626 0.0
H1177 H 0.31966 0.98907 0.80808 0.0
H1178 H 0.35173 0.96622 0.80583 0.0
H1179 H 0.35443 0.92992 0.82142 0.0
H1180 H 0.07429 0.3771 0.796 0.0
H1181 H 0.03834 0.37341 0.77994 0.0
H1182 H 0.05161 0.3094 0.75718 0.0
H1183 H 0.08792 0.31318 0.77271 0.0
H1184 H 0.03066 0.33093 0.72023 0.0
H1185 H 0.99022 0.34186 0.81299 0.0
H1186 H 0.00768 0.36329 0.80582 0.0
H1187 H 0.01823 0.33724 0.81066 0.0
C1188 C 0.06954 0.3622 0.78768 0.0
C1189 C 0.08387 0.34538 0.78574 0.0
C1190 C 0.04894 0.36007 0.77866 0.0
C1191 C 0.04215 0.34098 0.76786 0.0
C1192 C 0.05648 0.32421 0.76564 0.0
H1193 H 0.90813 0.32007 0.73866 0.0
H1194 H 0.94447 0.31646 0.7538 0.0
C1195 C 0.07719 0.32638 0.77453 0.0
C1196 C 0.02026 0.33887 0.75823 0.0
H1197 H 0.9688 0.34545 0.77551 0.0
C1198 C 0.01711 0.33388 0.73236 0.0
C1199 C 0.00258 0.34233 0.77418 0.0
C1200 C 0.00481 0.34625 0.80251 0.0
C1201 C 0.99677 0.33305 0.72179 0.0
C1202 C 0.97917 0.33784 0.73739 0.0
C1203 C 0.9823 0.34205 0.76347 0.0
C1204 C 0.95742 0.33906 0.72705 0.0
C1205 C 0.99437 0.32692 0.69406 0.0
C1206 C 0.95259 0.35301 0.70703 0.0
C1207 C 0.93188 0.35494 0.6982 0.0
C1208 C 0.91556 0.34323 0.70952 0.0
C1209 C 0.92039 0.32929 0.72956 0.0
C1210 C 0.94114 0.32722 0.73823 0.0
H1211 H 0.00795 0.31731 0.6874 0.0
H1212 H 0.97964 0.31784 0.69083 0.0
H1213 H 0.99379 0.3414 0.68218 0.0
H1214 H 0.96476 0.36275 0.69859 0.0
H1215 H 0.92859 0.36594 0.68287 0.0
H1216 H 0.31658 0.07471 0.30989 0.0
H1217 H 0.30975 0.0389 0.29433 0.0
H1218 H 0.3509 0.04995 0.23009 0.0
H1219 H 0.35761 0.0858 0.2453 0.0
H1220 H 0.31236 0.02901 0.21758 0.0
H1221 H 0.35418 0.99161 0.29945 0.0
H1222 H 0.33335 0.00961 0.30759 0.0
H1223 H 0.35671 0.01929 0.29215 0.0
C1224 C 0.32407 0.06953 0.29237 0.0
C1225 C 0.33776 0.08297 0.2789 0.0
C1226 C 0.32021 0.04908 0.28358 0.0
C1227 C 0.33005 0.04174 0.26127 0.0
C1228 C 0.3432 0.05534 0.24738 0.0
H1229 H 0.35247 0.92999 0.17593 0.0
H1230 H 0.34633 0.96593 0.19087 0.0
C1231 C 0.34706 0.07577 0.25614 0.0
C1232 C 0.32735 0.01967 0.25274 0.0
H1233 H 0.33979 0.96898 0.26848 0.0
C1234 C 0.3182 0.01584 0.22876 0.0
C1235 C 0.33493 0.00257 0.26746 0.0
C1236 C 0.3455 0.00586 0.29301 0.0
C1237 C 0.31672 0.99531 0.21889 0.0
C1238 C 0.32494 0.9783 0.23323 0.0
C1239 C 0.33345 0.98207 0.25757 0.0
C1240 C 0.3265 0.95672 0.22264 0.0
C1241 C 0.30647 0.99204 0.19317 0.0
C1242 C 0.31747 0.93959 0.23563 0.0
C1243 C 0.32106 0.91898 0.2272 0.0
C1244 C 0.33391 0.9152 0.2058 0.0
C1245 C 0.34244 0.93242 0.19243 0.0
C1246 C 0.33882 0.95298 0.20083 0.0
H1247 H 0.29533 0.00502 0.18856 0.0
H1248 H 0.31884 0.99181 0.17817 0.0
H1249 H 0.29782 0.97683 0.19245 0.0
H1250 H 0.30805 0.94215 0.25262 0.0
H1251 H 0.31433 0.906 0.23791 0.0
H1252 H 0.90638 0.33507 0.2435 0.0
H1253 H 0.94249 0.32953 0.22834 0.0
H1254 H 0.96565 0.33672 0.30542 0.0
H1255 H 0.92961 0.34166 0.32075 0.0
H1256 H 0.97413 0.3573 0.23073 0.0
H1257 H 0.99759 0.28517 0.28303 0.0
H1258 H 0.9705 0.29369 0.28077 0.0
H1259 H 0.98791 0.30528 0.30406 0.0
C1260 C 0.91915 0.33515 0.25724 0.0
C1261 C 0.9152 0.33876 0.2833 0.0
C1262 C 0.93976 0.33198 0.24857 0.0
C1263 C 0.95674 0.33237 0.2658 0.0
C1264 C 0.95277 0.33576 0.29187 0.0
H1265 H 0.09049 0.35034 0.25458 0.0
H1266 H 0.05376 0.34583 0.26808 0.0
C1267 C 0.93217 0.33876 0.30058 0.0
C1268 C 0.97872 0.33104 0.25626 0.0
H1269 H 0.02575 0.30573 0.26497 0.0
C1270 C 0.98532 0.34582 0.23795 0.0
C1271 C 0.99333 0.31606 0.26573 0.0
C1272 C 0.98692 0.29902 0.28429 0.0
C1273 C 0.00628 0.34647 0.22947 0.0
C1274 C 0.02096 0.33193 0.2395 0.0
C1275 C 0.01438 0.3169 0.25745 0.0
C1276 C 0.0434 0.33268 0.23206 0.0
C1277 C 0.01279 0.3631 0.2104 0.0
C1278 C 0.04968 0.32634 0.20754 0.0
C1279 C 0.07063 0.32881 0.19981 0.0
C1280 C 0.08555 0.33775 0.21648 0.0
C1281 C 0.07932 0.34346 0.24132 0.0
C1282 C 0.05839 0.34086 0.24907 0.0
H1283 H 0.00016 0.37491 0.20704 0.0
H1284 H 0.02718 0.37141 0.21713 0.0
H1285 H 0.01663 0.35545 0.1919 0.0
H1286 H 0.03827 0.31991 0.19423 0.0
H1287 H 0.07499 0.32425 0.18057 0.0
H1288 H 0.64514 0.90173 0.24096 0.0
H1289 H 0.64786 0.93743 0.22343 0.0
H1290 H 0.67735 0.9586 0.29317 0.0
H1291 H 0.6748 0.92296 0.31077 0.0
H1292 H 0.62854 0.97278 0.24658 0.0
H1293 H 0.71499 0.98412 0.23677 0.0
H1294 H 0.70302 0.95837 0.23964 0.0
H1295 H 0.70659 0.97459 0.26747 0.0
C1296 C 0.65254 0.91391 0.25238 0.0
C1297 C 0.65975 0.90958 0.27724 0.0
C1298 C 0.65406 0.93427 0.24235 0.0
C1299 C 0.66299 0.95057 0.25691 0.0
C1300 C 0.67075 0.94615 0.28145 0.0
H1301 H 0.67214 0.08627 0.24439 0.0
H1302 H 0.67482 0.04914 0.25694 0.0
C1303 C 0.66918 0.92581 0.29152 0.0
C1304 C 0.66248 0.97253 0.2474 0.0
H1305 H 0.69356 0.01471 0.23245 0.0
C1306 C 0.64274 0.98191 0.24325 0.0
C1307 C 0.68105 0.98439 0.24333 0.0
C1308 C 0.70264 0.97485 0.24681 0.0
C1309 C 0.64103 0.00304 0.23566 0.0
C1310 C 0.6596 0.01495 0.23156 0.0
C1311 C 0.67936 0.00553 0.23558 0.0
C1312 C 0.65876 0.03728 0.22338 0.0
C1313 C 0.61935 0.01259 0.23285 0.0
C1314 C 0.6492 0.04284 0.20014 0.0
C1315 C 0.64753 0.06399 0.19303 0.0
C1316 C 0.65559 0.07994 0.20892 0.0
C1317 C 0.66571 0.07431 0.23183 0.0
C1318 C 0.66729 0.05313 0.23899 0.0
H1319 H 0.60718 0.00323 0.24308 0.0
H1320 H 0.61902 0.02899 0.24028 0.0
H1321 H 0.61501 0.013 0.21231 0.0
H1322 H 0.64292 0.03081 0.18757 0.0
H1323 H 0.63982 0.06784 0.17515 0.0
H1324 H 0.09028 0.6508 0.24343 0.0
H1325 H 0.0542 0.65678 0.22865 0.0
H1326 H 0.03973 0.68904 0.29907 0.0
H1327 H 0.07583 0.683 0.3141 0.0
H1328 H 0.01181 0.65645 0.2869 0.0
H1329 H 0.02303 0.7097 0.20404 0.0
H1330 H 0.03971 0.68684 0.20324 0.0
H1331 H 0.04297 0.70598 0.2283 0.0
C1332 C 0.07953 0.65949 0.25559 0.0
C1333 C 0.08585 0.66641 0.27993 0.0
C1334 C 0.05896 0.66301 0.24705 0.0
C1335 C 0.04439 0.67359 0.26264 0.0
C1336 C 0.05081 0.68099 0.28669 0.0
H1337 H 0.90674 0.68026 0.2438 0.0
H1338 H 0.94254 0.68671 0.25973 0.0
C1339 C 0.07141 0.67753 0.29523 0.0
C1340 C 0.02201 0.67504 0.25478 0.0
H1341 H 0.98981 0.69179 0.20661 0.0
C1342 C 0.00689 0.66446 0.26957 0.0
C1343 C 0.01574 0.68545 0.23214 0.0
C1344 C 0.03118 0.69781 0.21612 0.0
C1345 C 0.98579 0.66315 0.26169 0.0
C1346 C 0.97961 0.67306 0.23864 0.0
C1347 C 0.99461 0.6842 0.22426 0.0
C1348 C 0.958 0.67078 0.2283 0.0
C1349 C 0.97053 0.65031 0.27745 0.0
C1350 C 0.9549 0.66035 0.20495 0.0
C1351 C 0.93455 0.65679 0.19575 0.0
C1352 C 0.91692 0.66364 0.20973 0.0
C1353 C 0.92005 0.67468 0.23272 0.0
C1354 C 0.94045 0.67829 0.24189 0.0
H1355 H 0.97877 0.64007 0.2915 0.0
H1356 H 0.95999 0.6611 0.28819 0.0
H1357 H 0.96056 0.64021 0.26499 0.0
H1358 H 0.96825 0.65449 0.19415 0.0
H1359 H 0.93264 0.64831 0.17793 0.0
loop_
_geom_bond_atom_site_label_1
_geom_bond_atom_site_label_2
_geom_bond_distance
_geom_bond_site_symmetry_2
_ccdc_geom_bond_type
In0 O1 2.294 . S
In0 O2 2.326 . S
In0 O6 2.266 . S
In0 O7 2.326 . S
In0 O8 2.266 . S
In0 O9 2.326 . S
In0 O11 2.294 . S
In0 O12 2.326 . S
O1 In0 2.294 . S
O1 C10 1.240 . S
O2 In0 2.326 . S
O2 C10 1.252 . S
C3 O6 1.252 . S
C3 O7 1.260 . S
C4 O11 1.240 . S
C4 O12 1.252 . S
C5 O8 1.252 . S
C5 O9 1.260 . S
O6 In0 2.266 . S
O6 C3 1.252 . S
O7 In0 2.326 . S
O7 C3 1.260 . S
O8 In0 2.266 . S
O8 C5 1.252 . S
O9 In0 2.326 . S
O9 C5 1.260 . S
C10 O1 1.240 . S
C10 O2 1.252 . S
O11 In0 2.294 . S
O11 C4 1.240 . S
O12 In0 2.326 . S
O12 C4 1.252 . S
In13 O14 2.294 . S
In13 O15 2.326 . S
In13 O19 2.266 . S
In13 O20 2.326 . S
In13 O21 2.266 . S
In13 O22 2.326 . S
In13 O24 2.294 . S
In13 O25 2.326 . S
O14 In13 2.294 . S
O14 C23 1.240 . S
O15 In13 2.326 . S
O15 C23 1.252 . S
C16 O19 1.252 . S
C16 O20 1.260 . S
C17 O24 1.240 . S
C17 O25 1.252 . S
C18 O21 1.252 . S
C18 O22 1.260 . S
O19 In13 2.266 . S
O19 C16 1.252 . S
O20 In13 2.326 . S
O20 C16 1.260 . S
O21 In13 2.266 . S
O21 C18 1.252 . S
O22 In13 2.326 . S
O22 C18 1.260 . S
C23 O14 1.240 . S
C23 O15 1.252 . S
O24 In13 2.294 . S
O24 C17 1.240 . S
O25 In13 2.326 . S
O25 C17 1.252 . S
In26 O27 2.294 . S
In26 O28 2.326 . S
In26 O32 2.266 . S
In26 O33 2.326 . S
In26 O34 2.266 . S
In26 O35 2.326 . S
In26 O37 2.294 . S
In26 O38 2.326 . S
O27 In26 2.294 . S
O27 C36 1.240 . S
O28 In26 2.326 . S
O28 C36 1.252 . S
C29 O32 1.252 . S
C29 O33 1.260 . S
C30 O37 1.240 . S
C30 O38 1.252 . S
C31 O34 1.252 . S
C31 O35 1.260 . S
O32 In26 2.266 . S
O32 C29 1.252 . S
O33 In26 2.326 . S
O33 C29 1.260 . S
O34 In26 2.266 . S
O34 C31 1.252 . S
O35 In26 2.326 . S
O35 C31 1.260 . S
C36 O27 1.240 . S
C36 O28 1.252 . S
O37 In26 2.294 . S
O37 C30 1.240 . S
O38 In26 2.326 . S
O38 C30 1.252 . S
In39 O40 2.294 . S
In39 O41 2.326 . S
In39 O45 2.266 . S
In39 O46 2.326 . S
In39 O47 2.266 . S
In39 O48 2.326 . S
In39 O50 2.294 . S
In39 O51 2.326 . S
O40 In39 2.294 . S
O40 C49 1.240 . S
O41 In39 2.326 . S
O41 C49 1.252 . S
C42 O45 1.252 . S
C42 O46 1.260 . S
C43 O50 1.240 . S
C43 O51 1.252 . S
C44 O47 1.252 . S
C44 O48 1.260 . S
O45 In39 2.266 . S
O45 C42 1.252 . S
O46 In39 2.326 . S
O46 C42 1.260 . S
O47 In39 2.266 . S
O47 C44 1.252 . S
O48 In39 2.326 . S
O48 C44 1.260 . S
C49 O40 1.240 . S
C49 O41 1.252 . S
O50 In39 2.294 . S
O50 C43 1.240 . S
O51 In39 2.326 . S
O51 C43 1.252 . S
In52 O53 2.294 . S
In52 O54 2.326 . S
In52 O58 2.266 . S
In52 O59 2.326 . S
In52 O60 2.266 . S
In52 O61 2.326 . S
In52 O63 2.294 . S
In52 O64 2.326 . S
O53 In52 2.294 . S
O53 C62 1.240 . S
O54 In52 2.326 . S
O54 C62 1.252 . S
C55 O58 1.252 . S
C55 O59 1.260 . S
C56 O63 1.240 . S
C56 O64 1.252 . S
C57 O60 1.252 . S
C57 O61 1.260 . S
O58 In52 2.266 . S
O58 C55 1.252 . S
O59 In52 2.326 . S
O59 C55 1.260 . S
O60 In52 2.266 . S
O60 C57 1.252 . S
O61 In52 2.326 . S
O61 C57 1.260 . S
C62 O53 1.240 . S
C62 O54 1.252 . S
O63 In52 2.294 . S
O63 C56 1.240 . S
O64 In52 2.326 . S
O64 C56 1.252 . S
In65 O66 2.294 . S
In65 O67 2.326 . S
In65 O71 2.266 . S
In65 O72 2.326 . S
In65 O73 2.266 . S
In65 O74 2.326 . S
In65 O76 2.294 . S
In65 O77 2.326 . S
O66 In65 2.294 . S
O66 C75 1.240 . S
O67 In65 2.326 . S
O67 C75 1.252 . S
C68 O71 1.252 . S
C68 O72 1.260 . S
C69 O76 1.240 . S
C69 O77 1.252 . S
C70 O73 1.252 . S
C70 O74 1.260 . S
O71 In65 2.266 . S
O71 C68 1.252 . S
O72 In65 2.326 . S
O72 C68 1.260 . S
O73 In65 2.266 . S
O73 C70 1.252 . S
O74 In65 2.326 . S
O74 C70 1.260 . S
C75 O66 1.240 . S
C75 O67 1.252 . S
O76 In65 2.294 . S
O76 C69 1.240 . S
O77 In65 2.326 . S
O77 C69 1.252 . S
In78 O79 2.294 . S
In78 O80 2.326 . S
In78 O84 2.266 . S
In78 O85 2.326 . S
In78 O86 2.266 . S
In78 O87 2.326 . S
In78 O89 2.294 . S
In78 O90 2.326 . S
O79 In78 2.294 . S
O79 C88 1.240 . S
O80 In78 2.326 . S
O80 C88 1.252 . S
C81 O84 1.252 . S
C81 O85 1.260 . S
C82 O89 1.240 . S
C82 O90 1.252 . S
C83 O86 1.252 . S
C83 O87 1.260 . S
O84 In78 2.266 . S
O84 C81 1.252 . S
O85 In78 2.326 . S
O85 C81 1.260 . S
O86 In78 2.266 . S
O86 C83 1.252 . S
O87 In78 2.326 . S
O87 C83 1.260 . S
C88 O79 1.240 . S
C88 O80 1.252 . S
O89 In78 2.294 . S
O89 C82 1.240 . S
O90 In78 2.326 . S
O90 C82 1.252 . S
In91 O92 2.294 . S
In91 O93 2.326 . S
In91 O97 2.266 . S
In91 O98 2.326 . S
In91 O99 2.266 . S
In91 O100 2.326 . S
In91 O102 2.294 . S
In91 O103 2.326 . S
O92 In91 2.294 . S
O92 C101 1.240 . S
O93 In91 2.326 . S
O93 C101 1.252 . S
C94 O97 1.252 . S
C94 O98 1.260 . S
C95 O102 1.240 . S
C95 O103 1.252 . S
C96 O99 1.252 . S
C96 O100 1.260 . S
O97 In91 2.266 . S
O97 C94 1.252 . S
O98 In91 2.326 . S
O98 C94 1.260 . S
O99 In91 2.266 . S
O99 C96 1.252 . S
O100 In91 2.326 . S
O100 C96 1.260 . S
C101 O92 1.240 . S
C101 O93 1.252 . S
O102 In91 2.294 . S
O102 C95 1.240 . S
O103 In91 2.326 . S
O103 C95 1.252 . S
In104 O105 2.294 . S
In104 O106 2.326 . S
In104 O110 2.266 . S
In104 O111 2.326 . S
In104 O112 2.266 . S
In104 O113 2.326 . S
In104 O115 2.294 . S
In104 O116 2.326 . S
O105 In104 2.294 . S
O105 C114 1.240 . S
O106 In104 2.326 . S
O106 C114 1.252 . S
C107 O110 1.252 . S
C107 O111 1.260 . S
C108 O115 1.240 . S
C108 O116 1.252 . S
C109 O112 1.252 . S
C109 O113 1.260 . S
O110 In104 2.266 . S
O110 C107 1.252 . S
O111 In104 2.326 . S
O111 C107 1.260 . S
O112 In104 2.266 . S
O112 C109 1.252 . S
O113 In104 2.326 . S
O113 C109 1.260 . S
C114 O105 1.240 . S
C114 O106 1.252 . S
O115 In104 2.294 . S
O115 C108 1.240 . S
O116 In104 2.326 . S
O116 C108 1.252 . S
In117 O118 2.294 . S
In117 O119 2.326 . S
In117 O123 2.266 . S
In117 O124 2.326 . S
In117 O125 2.266 . S
In117 O126 2.326 . S
In117 O128 2.294 . S
In117 O129 2.326 . S
O118 In117 2.294 . S
O118 C127 1.240 . S
O119 In117 2.326 . S
O119 C127 1.252 . S
C120 O123 1.252 . S
C120 O124 1.260 . S
C121 O128 1.240 . S
C121 O129 1.252 . S
C122 O125 1.252 . S
C122 O126 1.260 . S
O123 In117 2.266 . S
O123 C120 1.252 . S
O124 In117 2.326 . S
O124 C120 1.260 . S
O125 In117 2.266 . S
O125 C122 1.252 . S
O126 In117 2.326 . S
O126 C122 1.260 . S
C127 O118 1.240 . S
C127 O119 1.252 . S
O128 In117 2.294 . S
O128 C121 1.240 . S
O129 In117 2.326 . S
O129 C121 1.252 . S
In130 O131 2.294 . S
In130 O132 2.326 . S
In130 O136 2.266 . S
In130 O137 2.326 . S
In130 O138 2.266 . S
In130 O139 2.326 . S
In130 O141 2.294 . S
In130 O142 2.326 . S
O131 In130 2.294 . S
O131 C140 1.240 . S
O132 In130 2.326 . S
O132 C140 1.252 . S
C133 O136 1.252 . S
C133 O137 1.260 . S
C134 O141 1.240 . S
C134 O142 1.252 . S
C135 O138 1.252 . S
C135 O139 1.260 . S
O136 In130 2.266 . S
O136 C133 1.252 . S
O137 In130 2.326 . S
O137 C133 1.260 . S
O138 In130 2.266 . S
O138 C135 1.252 . S
O139 In130 2.326 . S
O139 C135 1.260 . S
C140 O131 1.240 . S
C140 O132 1.252 . S
O141 In130 2.294 . S
O141 C134 1.240 . S
O142 In130 2.326 . S
O142 C134 1.252 . S
In143 O144 2.294 . S
In143 O145 2.326 . S
In143 O149 2.266 . S
In143 O150 2.326 . S
In143 O151 2.266 . S
In143 O152 2.326 . S
In143 O154 2.294 . S
In143 O155 2.326 . S
O144 In143 2.294 . S
O144 C153 1.240 . S
O145 In143 2.326 . S
O145 C153 1.252 . S
C146 O149 1.252 . S
C146 O150 1.260 . S
C147 O154 1.240 . S
C147 O155 1.252 . S
C148 O151 1.252 . S
C148 O152 1.260 . S
O149 In143 2.266 . S
O149 C146 1.252 . S
O150 In143 2.326 . S
O150 C146 1.260 . S
O151 In143 2.266 . S
O151 C148 1.252 . S
O152 In143 2.326 . S
O152 C148 1.260 . S
C153 O144 1.240 . S
C153 O145 1.252 . S
O154 In143 2.294 . S
O154 C147 1.240 . S
O155 In143 2.326 . S
O155 C147 1.252 . S
In156 O157 2.294 . S
In156 O158 2.326 . S
In156 O162 2.266 . S
In156 O163 2.326 . S
In156 O164 2.266 . S
In156 O165 2.326 . S
In156 O167 2.294 . S
In156 O168 2.326 . S
O157 In156 2.294 . S
O157 C166 1.240 . S
O158 In156 2.326 . S
O158 C166 1.252 . S
C159 O162 1.252 . S
C159 O163 1.260 . S
C160 O167 1.240 . S
C160 O168 1.252 . S
C161 O164 1.252 . S
C161 O165 1.260 . S
O162 In156 2.266 . S
O162 C159 1.252 . S
O163 In156 2.326 . S
O163 C159 1.260 . S
O164 In156 2.266 . S
O164 C161 1.252 . S
O165 In156 2.326 . S
O165 C161 1.260 . S
C166 O157 1.240 . S
C166 O158 1.252 . S
O167 In156 2.294 . S
O167 C160 1.240 . S
O168 In156 2.326 . S
O168 C160 1.252 . S
In169 O170 2.294 . S
In169 O171 2.326 . S
In169 O175 2.266 . S
In169 O176 2.326 . S
In169 O177 2.266 . S
In169 O178 2.326 . S
In169 O180 2.294 . S
In169 O181 2.326 . S
O170 In169 2.294 . S
O170 C179 1.240 . S
O171 In169 2.326 . S
O171 C179 1.252 . S
C172 O175 1.252 . S
C172 O176 1.260 . S
C173 O180 1.240 . S
C173 O181 1.252 . S
C174 O177 1.252 . S
C174 O178 1.260 . S
O175 In169 2.266 . S
O175 C172 1.252 . S
O176 In169 2.326 . S
O176 C172 1.260 . S
O177 In169 2.266 . S
O177 C174 1.252 . S
O178 In169 2.326 . S
O178 C174 1.260 . S
C179 O170 1.240 . S
C179 O171 1.252 . S
O180 In169 2.294 . S
O180 C173 1.240 . S
O181 In169 2.326 . S
O181 C173 1.252 . S
In182 O183 2.294 . S
In182 O184 2.326 . S
In182 O188 2.266 . S
In182 O189 2.326 . S
In182 O190 2.266 . S
In182 O191 2.326 . S
In182 O193 2.294 . S
In182 O194 2.326 . S
O183 In182 2.294 . S
O183 C192 1.240 . S
O184 In182 2.326 . S
O184 C192 1.252 . S
C185 O188 1.252 . S
C185 O189 1.260 . S
C186 O193 1.240 . S
C186 O194 1.252 . S
C187 O190 1.252 . S
C187 O191 1.260 . S
O188 In182 2.266 . S
O188 C185 1.252 . S
O189 In182 2.326 . S
O189 C185 1.260 . S
O190 In182 2.266 . S
O190 C187 1.252 . S
O191 In182 2.326 . S
O191 C187 1.260 . S
C192 O183 1.240 . S
C192 O184 1.252 . S
O193 In182 2.294 . S
O193 C186 1.240 . S
O194 In182 2.326 . S
O194 C186 1.252 . S
In195 O196 2.294 . S
In195 O197 2.326 . S
In195 O201 2.266 . S
In195 O202 2.326 . S
In195 O203 2.266 . S
In195 O204 2.326 . S
In195 O206 2.294 . S
In195 O207 2.326 . S
O196 In195 2.294 . S
O196 C205 1.240 . S
O197 In195 2.326 . S
O197 C205 1.252 . S
C198 O201 1.252 . S
C198 O202 1.260 . S
C199 O206 1.240 . S
C199 O207 1.252 . S
C200 O203 1.252 . S
C200 O204 1.260 . S
O201 In195 2.266 . S
O201 C198 1.252 . S
O202 In195 2.326 . S
O202 C198 1.260 . S
O203 In195 2.266 . S
O203 C200 1.252 . S
O204 In195 2.326 . S
O204 C200 1.260 . S
C205 O196 1.240 . S
C205 O197 1.252 . S
O206 In195 2.294 . S
O206 C199 1.240 . S
O207 In195 2.326 . S
O207 C199 1.252 . S
H208 C216 0.929 . S
H209 C218 0.930 . S
H210 C220 0.930 . S
H211 C223 0.929 . S
H212 C226 0.930 . S
H213 C228 0.960 . S
H214 C228 0.960 . S
H215 C228 0.960 . S
C216 H208 0.929 . S
C216 C217 1.377 . S
C216 C218 1.384 . S
C217 C216 1.377 . S
C217 C223 1.390 . S
C218 H209 0.930 . S
C218 C216 1.384 . S
C218 C219 1.372 . S
C219 C218 1.372 . S
C219 C220 1.400 . S
C219 C224 1.490 . S
C220 H210 0.930 . S
C220 C219 1.400 . S
C220 C223 1.386 . S
H221 C237 0.930 . S
H222 C238 0.931 . S
C223 H211 0.929 . S
C223 C217 1.390 . S
C223 C220 1.386 . S
C224 C219 1.490 . S
C224 C226 1.395 . S
C224 C227 1.403 . S
H225 C231 0.930 . S
C226 H212 0.930 . S
C226 C224 1.395 . S
C226 C229 1.403 . S
C227 C224 1.403 . S
C227 C228 1.524 . S
C227 C231 1.400 . S
C228 H213 0.960 . S
C228 H214 0.960 . S
C228 H215 0.960 . S
C228 C227 1.524 . S
C229 C226 1.403 . S
C229 C230 1.392 . S
C229 C233 1.495 . S
C230 C229 1.392 . S
C230 C231 1.385 . S
C230 C232 1.478 . S
C231 H225 0.930 . S
C231 C227 1.400 . S
C231 C230 1.385 . S
C232 C230 1.478 . S
C232 C234 1.381 . S
C232 C238 1.383 . S
C233 C229 1.495 . S
C233 H239 0.959 . S
C233 H240 0.961 . S
C233 H241 0.960 . S
C234 C232 1.381 . S
C234 C235 1.394 . S
C234 H242 0.930 . S
C235 C234 1.394 . S
C235 C236 1.383 . S
C235 H243 0.929 . S
C236 C235 1.383 . S
C236 C237 1.377 . S
C237 H221 0.930 . S
C237 C236 1.377 . S
C237 C238 1.379 . S
C238 H222 0.931 . S
C238 C232 1.383 . S
C238 C237 1.379 . S
H239 C233 0.959 . S
H240 C233 0.961 . S
H241 C233 0.960 . S
H242 C234 0.930 . S
H243 C235 0.929 . S
H244 C252 0.929 . S
H245 C254 0.930 . S
H246 C256 0.930 . S
H247 C259 0.929 . S
H248 C262 0.930 . S
H249 C264 0.960 . S
H250 C264 0.960 . S
H251 C264 0.960 . S
C252 H244 0.929 . S
C252 C253 1.377 . S
C252 C254 1.384 . S
C253 C252 1.377 . S
C253 C259 1.390 . S
C254 H245 0.930 . S
C254 C252 1.384 . S
C254 C255 1.372 . S
C255 C254 1.372 . S
C255 C256 1.400 . S
C255 C260 1.490 . S
C256 H246 0.930 . S
C256 C255 1.400 . S
C256 C259 1.386 . S
H257 C273 0.930 . S
H258 C274 0.931 . S
C259 H247 0.929 . S
C259 C253 1.390 . S
C259 C256 1.386 . S
C260 C255 1.490 . S
C260 C262 1.395 . S
C260 C263 1.403 . S
H261 C267 0.930 . S
C262 H248 0.930 . S
C262 C260 1.395 . S
C262 C265 1.403 . S
C263 C260 1.403 . S
C263 C264 1.524 . S
C263 C267 1.400 . S
C264 H249 0.960 . S
C264 H250 0.960 . S
C264 H251 0.960 . S
C264 C263 1.524 . S
C265 C262 1.403 . S
C265 C266 1.392 . S
C265 C269 1.495 . S
C266 C265 1.392 . S
C266 C267 1.385 . S
C266 C268 1.478 . S
C267 H261 0.930 . S
C267 C263 1.400 . S
C267 C266 1.385 . S
C268 C266 1.478 . S
C268 C270 1.381 . S
C268 C274 1.383 . S
C269 C265 1.495 . S
C269 H275 0.959 . S
C269 H276 0.961 . S
C269 H277 0.960 . S
C270 C268 1.381 . S
C270 C271 1.394 . S
C270 H278 0.930 . S
C271 C270 1.394 . S
C271 C272 1.383 . S
C271 H279 0.929 . S
C272 C271 1.383 . S
C272 C273 1.377 . S
C273 H257 0.930 . S
C273 C272 1.377 . S
C273 C274 1.379 . S
C274 H258 0.931 . S
C274 C268 1.383 . S
C274 C273 1.379 . S
H275 C269 0.959 . S
H276 C269 0.961 . S
H277 C269 0.960 . S
H278 C270 0.930 . S
H279 C271 0.929 . S
H280 C288 0.929 . S
H281 C290 0.930 . S
H282 C292 0.930 . S
H283 C295 0.929 . S
H284 C298 0.930 . S
H285 C300 0.960 . S
H286 C300 0.960 . S
H287 C300 0.960 . S
C288 H280 0.929 . S
C288 C289 1.377 . S
C288 C290 1.384 . S
C289 C288 1.377 . S
C289 C295 1.390 . S
C290 H281 0.930 . S
C290 C288 1.384 . S
C290 C291 1.372 . S
C291 C290 1.372 . S
C291 C292 1.400 . S
C291 C296 1.490 . S
C292 H282 0.930 . S
C292 C291 1.400 . S
C292 C295 1.386 . S
H293 C309 0.930 . S
H294 C310 0.931 . S
C295 H283 0.929 . S
C295 C289 1.390 . S
C295 C292 1.386 . S
C296 C291 1.490 . S
C296 C298 1.395 . S
C296 C299 1.403 . S
H297 C303 0.930 . S
C298 H284 0.930 . S
C298 C296 1.395 . S
C298 C301 1.403 . S
C299 C296 1.403 . S
C299 C300 1.524 . S
C299 C303 1.400 . S
C300 H285 0.960 . S
C300 H286 0.960 . S
C300 H287 0.960 . S
C300 C299 1.524 . S
C301 C298 1.403 . S
C301 C302 1.392 . S
C301 C305 1.495 . S
C302 C301 1.392 . S
C302 C303 1.385 . S
C302 C304 1.478 . S
C303 H297 0.930 . S
C303 C299 1.400 . S
C303 C302 1.385 . S
C304 C302 1.478 . S
C304 C306 1.381 . S
C304 C310 1.383 . S
C305 C301 1.495 . S
C305 H311 0.959 . S
C305 H312 0.961 . S
C305 H313 0.960 . S
C306 C304 1.381 . S
C306 C307 1.394 . S
C306 H314 0.930 . S
C307 C306 1.394 . S
C307 C308 1.383 . S
C307 H315 0.929 . S
C308 C307 1.383 . S
C308 C309 1.377 . S
C309 H293 0.930 . S
C309 C308 1.377 . S
C309 C310 1.379 . S
C310 H294 0.931 . S
C310 C304 1.383 . S
C310 C309 1.379 . S
H311 C305 0.959 . S
H312 C305 0.961 . S
H313 C305 0.960 . S
H314 C306 0.930 . S
H315 C307 0.929 . S
H316 C324 0.929 . S
H317 C326 0.930 . S
H318 C328 0.930 . S
H319 C331 0.929 . S
H320 C334 0.930 . S
H321 C336 0.960 . S
H322 C336 0.960 . S
H323 C336 0.960 . S
C324 H316 0.929 . S
C324 C325 1.377 . S
C324 C326 1.384 . S
C325 C324 1.377 . S
C325 C331 1.390 . S
C326 H317 0.930 . S
C326 C324 1.384 . S
C326 C327 1.372 . S
C327 C326 1.372 . S
C327 C328 1.400 . S
C327 C332 1.490 . S
C328 H318 0.930 . S
C328 C327 1.400 . S
C328 C331 1.386 . S
H329 C345 0.930 . S
H330 C346 0.931 . S
C331 H319 0.929 . S
C331 C325 1.390 . S
C331 C328 1.386 . S
C332 C327 1.490 . S
C332 C334 1.395 . S
C332 C335 1.403 . S
H333 C339 0.930 . S
C334 H320 0.930 . S
C334 C332 1.395 . S
C334 C337 1.403 . S
C335 C332 1.403 . S
C335 C336 1.524 . S
C335 C339 1.400 . S
C336 H321 0.960 . S
C336 H322 0.960 . S
C336 H323 0.960 . S
C336 C335 1.524 . S
C337 C334 1.403 . S
C337 C338 1.392 . S
C337 C341 1.495 . S
C338 C337 1.392 . S
C338 C339 1.385 . S
C338 C340 1.478 . S
C339 H333 0.930 . S
C339 C335 1.400 . S
C339 C338 1.385 . S
C340 C338 1.478 . S
C340 C342 1.381 . S
C340 C346 1.383 . S
C341 C337 1.495 . S
C341 H347 0.959 . S
C341 H348 0.961 . S
C341 H349 0.960 . S
C342 C340 1.381 . S
C342 C343 1.394 . S
C342 H350 0.930 . S
C343 C342 1.394 . S
C343 C344 1.383 . S
C343 H351 0.929 . S
C344 C343 1.383 . S
C344 C345 1.377 . S
C345 H329 0.930 . S
C345 C344 1.377 . S
C345 C346 1.379 . S
C346 H330 0.931 . S
C346 C340 1.383 . S
C346 C345 1.379 . S
H347 C341 0.959 . S
H348 C341 0.961 . S
H349 C341 0.960 . S
H350 C342 0.930 . S
H351 C343 0.929 . S
H352 C360 0.929 . S
H353 C362 0.930 . S
H354 C364 0.930 . S
H355 C367 0.929 . S
H356 C370 0.930 . S
H357 C372 0.960 . S
H358 C372 0.960 . S
H359 C372 0.960 . S
C360 H352 0.929 . S
C360 C361 1.377 . S
C360 C362 1.384 . S
C361 C360 1.377 . S
C361 C367 1.390 . S
C362 H353 0.930 . S
C362 C360 1.384 . S
C362 C363 1.372 . S
C363 C362 1.372 . S
C363 C364 1.400 . S
C363 C368 1.490 . S
C364 H354 0.930 . S
C364 C363 1.400 . S
C364 C367 1.386 . S
H365 C381 0.930 . S
H366 C382 0.931 . S
C367 H355 0.929 . S
C367 C361 1.390 . S
C367 C364 1.386 . S
C368 C363 1.490 . S
C368 C370 1.395 . S
C368 C371 1.403 . S
H369 C375 0.930 . S
C370 H356 0.930 . S
C370 C368 1.395 . S
C370 C373 1.403 . S
C371 C368 1.403 . S
C371 C372 1.524 . S
C371 C375 1.400 . S
C372 H357 0.960 . S
C372 H358 0.960 . S
C372 H359 0.960 . S
C372 C371 1.524 . S
C373 C370 1.403 . S
C373 C374 1.392 . S
C373 C377 1.495 . S
C374 C373 1.392 . S
C374 C375 1.385 . S
C374 C376 1.478 . S
C375 H369 0.930 . S
C375 C371 1.400 . S
C375 C374 1.385 . S
C376 C374 1.478 . S
C376 C378 1.381 . S
C376 C382 1.383 . S
C377 C373 1.495 . S
C377 H383 0.959 . S
C377 H384 0.961 . S
C377 H385 0.960 . S
C378 C376 1.381 . S
C378 C379 1.394 . S
C378 H386 0.930 . S
C379 C378 1.394 . S
C379 C380 1.383 . S
C379 H387 0.929 . S
C380 C379 1.383 . S
C380 C381 1.377 . S
C381 H365 0.930 . S
C381 C380 1.377 . S
C381 C382 1.379 . S
C382 H366 0.931 . S
C382 C376 1.383 . S
C382 C381 1.379 . S
H383 C377 0.959 . S
H384 C377 0.961 . S
H385 C377 0.960 . S
H386 C378 0.930 . S
H387 C379 0.929 . S
H388 C396 0.929 . S
H389 C398 0.930 . S
H390 C400 0.930 . S
H391 C403 0.929 . S
H392 C406 0.930 . S
H393 C408 0.960 . S
H394 C408 0.960 . S
H395 C408 0.960 . S
C396 H388 0.929 . S
C396 C397 1.377 . S
C396 C398 1.384 . S
C397 C396 1.377 . S
C397 C403 1.390 . S
C398 H389 0.930 . S
C398 C396 1.384 . S
C398 C399 1.372 . S
C399 C398 1.372 . S
C399 C400 1.400 . S
C399 C404 1.490 . S
C400 H390 0.930 . S
C400 C399 1.400 . S
C400 C403 1.386 . S
H401 C417 0.930 . S
H402 C418 0.931 . S
C403 H391 0.929 . S
C403 C397 1.390 . S
C403 C400 1.386 . S
C404 C399 1.490 . S
C404 C406 1.395 . S
C404 C407 1.403 . S
H405 C411 0.930 . S
C406 H392 0.930 . S
C406 C404 1.395 . S
C406 C409 1.403 . S
C407 C404 1.403 . S
C407 C408 1.524 . S
C407 C411 1.400 . S
C408 H393 0.960 . S
C408 H394 0.960 . S
C408 H395 0.960 . S
C408 C407 1.524 . S
C409 C406 1.403 . S
C409 C410 1.392 . S
C409 C413 1.495 . S
C410 C409 1.392 . S
C410 C411 1.385 . S
C410 C412 1.478 . S
C411 H405 0.930 . S
C411 C407 1.400 . S
C411 C410 1.385 . S
C412 C410 1.478 . S
C412 C414 1.381 . S
C412 C418 1.383 . S
C413 C409 1.495 . S
C413 H419 0.959 . S
C413 H420 0.961 . S
C413 H421 0.960 . S
C414 C412 1.381 . S
C414 C415 1.394 . S
C414 H422 0.930 . S
C415 C414 1.394 . S
C415 C416 1.383 . S
C415 H423 0.929 . S
C416 C415 1.383 . S
C416 C417 1.377 . S
C417 H401 0.930 . S
C417 C416 1.377 . S
C417 C418 1.379 . S
C418 H402 0.931 . S
C418 C412 1.383 . S
C418 C417 1.379 . S
H419 C413 0.959 . S
H420 C413 0.961 . S
H421 C413 0.960 . S
H422 C414 0.930 . S
H423 C415 0.929 . S
H424 C432 0.929 . S
H425 C434 0.930 . S
H426 C436 0.930 . S
H427 C439 0.929 . S
H428 C442 0.930 . S
H429 C444 0.960 . S
H430 C444 0.960 . S
H431 C444 0.960 . S
C432 H424 0.929 . S
C432 C433 1.377 . S
C432 C434 1.384 . S
C433 C432 1.377 . S
C433 C439 1.390 . S
C434 H425 0.930 . S
C434 C432 1.384 . S
C434 C435 1.372 . S
C435 C434 1.372 . S
C435 C436 1.400 . S
C435 C440 1.490 . S
C436 H426 0.930 . S
C436 C435 1.400 . S
C436 C439 1.386 . S
H437 C453 0.930 . S
H438 C454 0.931 . S
C439 H427 0.929 . S
C439 C433 1.390 . S
C439 C436 1.386 . S
C440 C435 1.490 . S
C440 C442 1.395 . S
C440 C443 1.403 . S
H441 C447 0.930 . S
C442 H428 0.930 . S
C442 C440 1.395 . S
C442 C445 1.403 . S
C443 C440 1.403 . S
C443 C444 1.524 . S
C443 C447 1.400 . S
C444 H429 0.960 . S
C444 H430 0.960 . S
C444 H431 0.960 . S
C444 C443 1.524 . S
C445 C442 1.403 . S
C445 C446 1.392 . S
C445 C449 1.495 . S
C446 C445 1.392 . S
C446 C447 1.385 . S
C446 C448 1.478 . S
C447 H441 0.930 . S
C447 C443 1.400 . S
C447 C446 1.385 . S
C448 C446 1.478 . S
C448 C450 1.381 . S
C448 C454 1.383 . S
C449 C445 1.495 . S
C449 H455 0.959 . S
C449 H456 0.961 . S
C449 H457 0.960 . S
C450 C448 1.381 . S
C450 C451 1.394 . S
C450 H458 0.930 . S
C451 C450 1.394 . S
C451 C452 1.383 . S
C451 H459 0.929 . S
C452 C451 1.383 . S
C452 C453 1.377 . S
C453 H437 0.930 . S
C453 C452 1.377 . S
C453 C454 1.379 . S
C454 H438 0.931 . S
C454 C448 1.383 . S
C454 C453 1.379 . S
H455 C449 0.959 . S
H456 C449 0.961 . S
H457 C449 0.960 . S
H458 C450 0.930 . S
H459 C451 0.929 . S
H460 C468 0.929 . S
H461 C470 0.930 . S
H462 C472 0.930 . S
H463 C475 0.929 . S
H464 C478 0.930 . S
H465 C480 0.960 . S
H466 C480 0.960 . S
H467 C480 0.960 . S
C468 H460 0.929 . S
C468 C469 1.377 . S
C468 C470 1.384 . S
C469 C468 1.377 . S
C469 C475 1.390 . S
C470 H461 0.930 . S
C470 C468 1.384 . S
C470 C471 1.372 . S
C471 C470 1.372 . S
C471 C472 1.400 . S
C471 C476 1.490 . S
C472 H462 0.930 . S
C472 C471 1.400 . S
C472 C475 1.386 . S
H473 C489 0.930 . S
H474 C490 0.931 . S
C475 H463 0.929 . S
C475 C469 1.390 . S
C475 C472 1.386 . S
C476 C471 1.490 . S
C476 C478 1.395 . S
C476 C479 1.403 . S
H477 C483 0.930 . S
C478 H464 0.930 . S
C478 C476 1.395 . S
C478 C481 1.403 . S
C479 C476 1.403 . S
C479 C480 1.524 . S
C479 C483 1.400 . S
C480 H465 0.960 . S
C480 H466 0.960 . S
C480 H467 0.960 . S
C480 C479 1.524 . S
C481 C478 1.403 . S
C481 C482 1.392 . S
C481 C485 1.495 . S
C482 C481 1.392 . S
C482 C483 1.385 . S
C482 C484 1.478 . S
C483 H477 0.930 . S
C483 C479 1.400 . S
C483 C482 1.385 . S
C484 C482 1.478 . S
C484 C486 1.381 . S
C484 C490 1.383 . S
C485 C481 1.495 . S
C485 H491 0.959 . S
C485 H492 0.961 . S
C485 H493 0.960 . S
C486 C484 1.381 . S
C486 C487 1.394 . S
C486 H494 0.930 . S
C487 C486 1.394 . S
C487 C488 1.383 . S
C487 H495 0.929 . S
C488 C487 1.383 . S
C488 C489 1.377 . S
C489 H473 0.930 . S
C489 C488 1.377 . S
C489 C490 1.379 . S
C490 H474 0.931 . S
C490 C484 1.383 . S
C490 C489 1.379 . S
H491 C485 0.959 . S
H492 C485 0.961 . S
H493 C485 0.960 . S
H494 C486 0.930 . S
H495 C487 0.929 . S
H496 C504 0.929 . S
H497 C506 0.930 . S
H498 C508 0.930 . S
H499 C511 0.929 . S
H500 C514 0.930 . S
H501 C516 0.960 . S
H502 C516 0.960 . S
H503 C516 0.960 . S
C504 H496 0.929 . S
C504 C505 1.377 . S
C504 C506 1.384 . S
C505 C504 1.377 . S
C505 C511 1.390 . S
C506 H497 0.930 . S
C506 C504 1.384 . S
C506 C507 1.372 . S
C507 C506 1.372 . S
C507 C508 1.400 . S
C507 C512 1.490 . S
C508 H498 0.930 . S
C508 C507 1.400 . S
C508 C511 1.386 . S
H509 C525 0.930 . S
H510 C526 0.931 . S
C511 H499 0.929 . S
C511 C505 1.390 . S
C511 C508 1.386 . S
C512 C507 1.490 . S
C512 C514 1.395 . S
C512 C515 1.403 . S
H513 C519 0.930 . S
C514 H500 0.930 . S
C514 C512 1.395 . S
C514 C517 1.403 1_556 S
C515 C512 1.403 . S
C515 C516 1.524 . S
C515 C519 1.400 1_556 S
C516 H501 0.960 . S
C516 H502 0.960 . S
C516 H503 0.960 . S
C516 C515 1.524 . S
C517 C514 1.403 1_554 S
C517 C518 1.392 . S
C517 C521 1.495 . S
C518 C517 1.392 . S
C518 C519 1.385 . S
C518 C520 1.478 . S
C519 H513 0.930 . S
C519 C515 1.400 1_554 S
C519 C518 1.385 . S
C520 C518 1.478 . S
C520 C522 1.381 . S
C520 C526 1.383 . S
C521 C517 1.495 . S
C521 H527 0.959 . S
C521 H528 0.961 . S
C521 H529 0.960 . S
C522 C520 1.381 . S
C522 C523 1.394 . S
C522 H530 0.930 . S
C523 C522 1.394 . S
C523 C524 1.383 . S
C523 H531 0.929 . S
C524 C523 1.383 . S
C524 C525 1.377 . S
C525 H509 0.930 . S
C525 C524 1.377 . S
C525 C526 1.379 . S
C526 H510 0.931 . S
C526 C520 1.383 . S
C526 C525 1.379 . S
H527 C521 0.959 . S
H528 C521 0.961 . S
H529 C521 0.960 . S
H530 C522 0.930 . S
H531 C523 0.929 . S
H532 C540 0.929 . S
H533 C542 0.930 . S
H534 C544 0.930 . S
H535 C547 0.929 . S
H536 C550 0.930 . S
H537 C552 0.960 . S
H538 C552 0.960 . S
H539 C552 0.960 . S
C540 H532 0.929 . S
C540 C541 1.377 . S
C540 C542 1.384 . S
C541 C540 1.377 . S
C541 C547 1.390 . S
C542 H533 0.930 . S
C542 C540 1.384 . S
C542 C543 1.372 . S
C543 C542 1.372 . S
C543 C544 1.400 . S
C543 C548 1.490 . S
C544 H534 0.930 . S
C544 C543 1.400 . S
C544 C547 1.386 . S
H545 C561 0.930 . S
H546 C562 0.931 . S
C547 H535 0.929 . S
C547 C541 1.390 . S
C547 C544 1.386 . S
C548 C543 1.490 . S
C548 C550 1.395 . S
C548 C551 1.403 . S
H549 C555 0.930 . S
C550 H536 0.930 . S
C550 C548 1.395 . S
C550 C553 1.403 1_556 S
C551 C548 1.403 . S
C551 C552 1.524 . S
C551 C555 1.400 1_556 S
C552 H537 0.960 . S
C552 H538 0.960 . S
C552 H539 0.960 . S
C552 C551 1.524 . S
C553 C550 1.403 1_554 S
C553 C554 1.392 . S
C553 C557 1.495 . S
C554 C553 1.392 . S
C554 C555 1.385 . S
C554 C556 1.478 . S
C555 H549 0.930 . S
C555 C551 1.400 1_554 S
C555 C554 1.385 . S
C556 C554 1.478 . S
C556 C558 1.381 . S
C556 C562 1.383 . S
C557 C553 1.495 . S
C557 H563 0.959 . S
C557 H564 0.961 . S
C557 H565 0.960 . S
C558 C556 1.381 . S
C558 C559 1.394 . S
C558 H566 0.930 . S
C559 C558 1.394 . S
C559 C560 1.383 . S
C559 H567 0.929 . S
C560 C559 1.383 . S
C560 C561 1.377 . S
C561 H545 0.930 . S
C561 C560 1.377 . S
C561 C562 1.379 . S
C562 H546 0.931 . S
C562 C556 1.383 . S
C562 C561 1.379 . S
H563 C557 0.959 . S
H564 C557 0.961 . S
H565 C557 0.960 . S
H566 C558 0.930 . S
H567 C559 0.929 . S
H568 C576 0.929 . S
H569 C578 0.930 . S
H570 C580 0.930 . S
H571 C583 0.929 . S
H572 C586 0.930 . S
H573 C588 0.960 . S
H574 C588 0.960 . S
H575 C588 0.960 . S
C576 H568 0.929 . S
C576 C577 1.377 . S
C576 C578 1.384 . S
C577 C576 1.377 . S
C577 C583 1.390 . S
C578 H569 0.930 . S
C578 C576 1.384 . S
C578 C579 1.372 . S
C579 C578 1.372 . S
C579 C580 1.400 . S
C579 C584 1.490 . S
C580 H570 0.930 . S
C580 C579 1.400 . S
C580 C583 1.386 . S
H581 C597 0.930 . S
H582 C598 0.931 . S
C583 H571 0.929 . S
C583 C577 1.390 . S
C583 C580 1.386 . S
C584 C579 1.490 . S
C584 C586 1.395 . S
C584 C587 1.403 . S
H585 C591 0.930 . S
C586 H572 0.930 . S
C586 C584 1.395 . S
C586 C589 1.403 1_556 S
C587 C584 1.403 . S
C587 C588 1.524 . S
C587 C591 1.400 1_556 S
C588 H573 0.960 . S
C588 H574 0.960 . S
C588 H575 0.960 . S
C588 C587 1.524 . S
C589 C586 1.403 1_554 S
C589 C590 1.392 . S
C589 C593 1.495 . S
C590 C589 1.392 . S
C590 C591 1.385 . S
C590 C592 1.478 . S
C591 H585 0.930 . S
C591 C587 1.400 1_554 S
C591 C590 1.385 . S
C592 C590 1.478 . S
C592 C594 1.381 . S
C592 C598 1.383 . S
C593 C589 1.495 . S
C593 H599 0.959 . S
C593 H600 0.961 . S
C593 H601 0.960 . S
C594 C592 1.381 . S
C594 C595 1.394 . S
C594 H602 0.930 . S
C595 C594 1.394 . S
C595 C596 1.383 . S
C595 H603 0.929 . S
C596 C595 1.383 . S
C596 C597 1.377 . S
C597 H581 0.930 . S
C597 C596 1.377 . S
C597 C598 1.379 . S
C598 H582 0.931 . S
C598 C592 1.383 . S
C598 C597 1.379 . S
H599 C593 0.959 . S
H600 C593 0.961 . S
H601 C593 0.960 . S
H602 C594 0.930 . S
H603 C595 0.929 . S
H604 C612 0.929 . S
H605 C614 0.930 . S
H606 C616 0.930 . S
H607 C619 0.929 . S
H608 C622 0.930 . S
H609 C624 0.960 . S
H610 C624 0.960 . S
H611 C624 0.960 . S
C612 H604 0.929 . S
C612 C613 1.377 . S
C612 C614 1.384 . S
C613 C612 1.377 . S
C613 C619 1.390 . S
C614 H605 0.930 . S
C614 C612 1.384 . S
C614 C615 1.372 . S
C615 C614 1.372 . S
C615 C616 1.400 . S
C615 C620 1.490 . S
C616 H606 0.930 . S
C616 C615 1.400 . S
C616 C619 1.386 . S
H617 C633 0.930 . S
H618 C634 0.931 . S
C619 H607 0.929 . S
C619 C613 1.390 . S
C619 C616 1.386 . S
C620 C615 1.490 . S
C620 C622 1.395 . S
C620 C623 1.403 . S
H621 C627 0.930 . S
C622 H608 0.930 . S
C622 C620 1.395 . S
C622 C625 1.403 1_554 S
C623 C620 1.403 . S
C623 C624 1.524 . S
C623 C627 1.400 1_554 S
C624 H609 0.960 . S
C624 H610 0.960 . S
C624 H611 0.960 . S
C624 C623 1.524 . S
C625 C622 1.403 1_556 S
C625 C626 1.392 . S
C625 C629 1.495 . S
C626 C625 1.392 . S
C626 C627 1.385 . S
C626 C628 1.478 . S
C627 H621 0.930 . S
C627 C623 1.400 1_556 S
C627 C626 1.385 . S
C628 C626 1.478 . S
C628 C630 1.381 . S
C628 C634 1.383 . S
C629 C625 1.495 . S
C629 H635 0.959 . S
C629 H636 0.961 . S
C629 H637 0.960 . S
C630 C628 1.381 . S
C630 C631 1.394 . S
C630 H638 0.930 . S
C631 C630 1.394 . S
C631 C632 1.383 . S
C631 H639 0.929 . S
C632 C631 1.383 . S
C632 C633 1.377 . S
C633 H617 0.930 . S
C633 C632 1.377 . S
C633 C634 1.379 . S
C634 H618 0.931 . S
C634 C628 1.383 . S
C634 C633 1.379 . S
H635 C629 0.959 . S
H636 C629 0.961 . S
H637 C629 0.960 . S
H638 C630 0.930 . S
H639 C631 0.929 . S
H640 C648 0.929 . S
H641 C650 0.930 . S
H642 C652 0.930 . S
H643 C655 0.929 . S
H644 C658 0.930 . S
H645 C660 0.960 . S
H646 C660 0.960 . S
H647 C660 0.960 . S
C648 H640 0.929 . S
C648 C649 1.377 . S
C648 C650 1.384 . S
C649 C648 1.377 . S
C649 C655 1.390 . S
C650 H641 0.930 . S
C650 C648 1.384 . S
C650 C651 1.372 . S
C651 C650 1.372 . S
C651 C652 1.400 . S
C651 C656 1.490 . S
C652 H642 0.930 . S
C652 C651 1.400 . S
C652 C655 1.386 . S
H653 C669 0.930 . S
H654 C670 0.931 . S
C655 H643 0.929 . S
C655 C649 1.390 . S
C655 C652 1.386 . S
C656 C651 1.490 . S
C656 C658 1.395 . S
C656 C659 1.403 . S
H657 C663 0.930 . S
C658 H644 0.930 . S
C658 C656 1.395 . S
C658 C661 1.403 . S
C659 C656 1.403 . S
C659 C660 1.524 . S
C659 C663 1.400 . S
C660 H645 0.960 . S
C660 H646 0.960 . S
C660 H647 0.960 . S
C660 C659 1.524 . S
C661 C658 1.403 . S
C661 C662 1.392 . S
C661 C665 1.495 . S
C662 C661 1.392 . S
C662 C663 1.385 . S
C662 C664 1.478 . S
C663 H657 0.930 . S
C663 C659 1.400 . S
C663 C662 1.385 . S
C664 C662 1.478 . S
C664 C666 1.381 . S
C664 C670 1.383 . S
C665 C661 1.495 . S
C665 H671 0.959 . S
C665 H672 0.961 . S
C665 H673 0.960 . S
C666 C664 1.381 . S
C666 C667 1.394 . S
C666 H674 0.930 . S
C667 C666 1.394 . S
C667 C668 1.383 . S
C667 H675 0.929 . S
C668 C667 1.383 . S
C668 C669 1.377 . S
C669 H653 0.930 . S
C669 C668 1.377 . S
C669 C670 1.379 . S
C670 H654 0.931 . S
C670 C664 1.383 . S
C670 C669 1.379 . S
H671 C665 0.959 . S
H672 C665 0.961 . S
H673 C665 0.960 . S
H674 C666 0.930 . S
H675 C667 0.929 . S
H676 C684 0.929 . S
H677 C686 0.930 . S
H678 C688 0.930 . S
H679 C691 0.929 . S
H680 C694 0.930 . S
H681 C696 0.960 . S
H682 C696 0.960 . S
H683 C696 0.960 . S
C684 H676 0.929 . S
C684 C685 1.377 . S
C684 C686 1.384 . S
C685 C684 1.377 . S
C685 C691 1.390 . S
C686 H677 0.930 . S
C686 C684 1.384 . S
C686 C687 1.372 . S
C687 C686 1.372 . S
C687 C688 1.400 . S
C687 C692 1.490 . S
C688 H678 0.930 . S
C688 C687 1.400 . S
C688 C691 1.386 . S
H689 C705 0.930 . S
H690 C706 0.931 . S
C691 H679 0.929 . S
C691 C685 1.390 . S
C691 C688 1.386 . S
C692 C687 1.490 . S
C692 C694 1.395 . S
C692 C695 1.403 . S
H693 C699 0.930 . S
C694 H680 0.930 . S
C694 C692 1.395 . S
C694 C697 1.403 . S
C695 C692 1.403 . S
C695 C696 1.524 . S
C695 C699 1.400 . S
C696 H681 0.960 . S
C696 H682 0.960 . S
C696 H683 0.960 . S
C696 C695 1.524 . S
C697 C694 1.403 . S
C697 C698 1.392 . S
C697 C701 1.495 . S
C698 C697 1.392 . S
C698 C699 1.385 . S
C698 C700 1.478 . S
C699 H693 0.930 . S
C699 C695 1.400 . S
C699 C698 1.385 . S
C700 C698 1.478 . S
C700 C702 1.381 . S
C700 C706 1.383 . S
C701 C697 1.495 . S
C701 H707 0.959 . S
C701 H708 0.961 . S
C701 H709 0.960 . S
C702 C700 1.381 . S
C702 C703 1.394 . S
C702 H710 0.930 . S
C703 C702 1.394 . S
C703 C704 1.383 . S
C703 H711 0.929 . S
C704 C703 1.383 . S
C704 C705 1.377 . S
C705 H689 0.930 . S
C705 C704 1.377 . S
C705 C706 1.379 . S
C706 H690 0.931 . S
C706 C700 1.383 . S
C706 C705 1.379 . S
H707 C701 0.959 . S
H708 C701 0.961 . S
H709 C701 0.960 . S
H710 C702 0.930 . S
H711 C703 0.929 . S
H712 C720 0.929 . S
H713 C722 0.930 . S
H714 C724 0.930 . S
H715 C727 0.929 . S
H716 C730 0.930 . S
H717 C732 0.960 . S
H718 C732 0.960 . S
H719 C732 0.960 . S
C720 H712 0.929 . S
C720 C721 1.377 . S
C720 C722 1.384 . S
C721 C720 1.377 . S
C721 C727 1.390 . S
C722 H713 0.930 . S
C722 C720 1.384 . S
C722 C723 1.372 . S
C723 C722 1.372 . S
C723 C724 1.400 . S
C723 C728 1.490 . S
C724 H714 0.930 . S
C724 C723 1.400 . S
C724 C727 1.386 . S
H725 C741 0.930 . S
H726 C742 0.931 . S
C727 H715 0.929 . S
C727 C721 1.390 . S
C727 C724 1.386 . S
C728 C723 1.490 . S
C728 C730 1.395 . S
C728 C731 1.403 . S
H729 C735 0.930 . S
C730 H716 0.930 . S
C730 C728 1.395 . S
C730 C733 1.403 . S
C731 C728 1.403 . S
C731 C732 1.524 . S
C731 C735 1.400 . S
C732 H717 0.960 . S
C732 H718 0.960 . S
C732 H719 0.960 . S
C732 C731 1.524 . S
C733 C730 1.403 . S
C733 C734 1.392 . S
C733 C737 1.495 . S
C734 C733 1.392 . S
C734 C735 1.385 . S
C734 C736 1.478 . S
C735 H729 0.930 . S
C735 C731 1.400 . S
C735 C734 1.385 . S
C736 C734 1.478 . S
C736 C738 1.381 . S
C736 C742 1.383 . S
C737 C733 1.495 . S
C737 H743 0.959 . S
C737 H744 0.961 . S
C737 H745 0.960 . S
C738 C736 1.381 . S
C738 C739 1.394 . S
C738 H746 0.930 . S
C739 C738 1.394 . S
C739 C740 1.383 . S
C739 H747 0.929 . S
C740 C739 1.383 . S
C740 C741 1.377 . S
C741 H725 0.930 . S
C741 C740 1.377 . S
C741 C742 1.379 . S
C742 H726 0.931 . S
C742 C736 1.383 . S
C742 C741 1.379 . S
H743 C737 0.959 . S
H744 C737 0.961 . S
H745 C737 0.960 . S
H746 C738 0.930 . S
H747 C739 0.929 . S
H748 C756 0.929 . S
H749 C758 0.930 . S
H750 C760 0.930 . S
H751 C763 0.929 . S
H752 C766 0.930 . S
H753 C768 0.960 . S
H754 C768 0.960 . S
H755 C768 0.960 . S
C756 H748 0.929 . S
C756 C757 1.377 . S
C756 C758 1.384 . S
C757 C756 1.377 . S
C757 C763 1.390 . S
C758 H749 0.930 . S
C758 C756 1.384 . S
C758 C759 1.372 . S
C759 C758 1.372 . S
C759 C760 1.400 . S
C759 C764 1.490 . S
C760 H750 0.930 . S
C760 C759 1.400 . S
C760 C763 1.386 . S
H761 C777 0.930 . S
H762 C778 0.931 . S
C763 H751 0.929 . S
C763 C757 1.390 . S
C763 C760 1.386 . S
C764 C759 1.490 . S
C764 C766 1.395 . S
C764 C767 1.403 . S
H765 C771 0.930 . S
C766 H752 0.930 . S
C766 C764 1.395 . S
C766 C769 1.403 . S
C767 C764 1.403 . S
C767 C768 1.524 . S
C767 C771 1.400 . S
C768 H753 0.960 . S
C768 H754 0.960 . S
C768 H755 0.960 . S
C768 C767 1.524 . S
C769 C766 1.403 . S
C769 C770 1.392 . S
C769 C773 1.495 . S
C770 C769 1.392 . S
C770 C771 1.385 . S
C770 C772 1.478 . S
C771 H765 0.930 . S
C771 C767 1.400 . S
C771 C770 1.385 . S
C772 C770 1.478 . S
C772 C774 1.381 . S
C772 C778 1.383 . S
C773 C769 1.495 . S
C773 H779 0.959 . S
C773 H780 0.961 . S
C773 H781 0.960 . S
C774 C772 1.381 . S
C774 C775 1.394 . S
C774 H782 0.930 . S
C775 C774 1.394 . S
C775 C776 1.383 . S
C775 H783 0.929 . S
C776 C775 1.383 . S
C776 C777 1.377 . S
C777 H761 0.930 . S
C777 C776 1.377 . S
C777 C778 1.379 . S
C778 H762 0.931 . S
C778 C772 1.383 . S
C778 C777 1.379 . S
H779 C773 0.959 . S
H780 C773 0.961 . S
H781 C773 0.960 . S
H782 C774 0.930 . S
H783 C775 0.929 . S
H784 C792 0.929 . S
H785 C794 0.930 . S
H786 C796 0.930 . S
H787 C799 0.929 . S
H788 C802 0.930 . S
H789 C804 0.960 . S
H790 C804 0.960 . S
H791 C804 0.960 . S
C792 H784 0.929 . S
C792 C793 1.377 . S
C792 C794 1.384 . S
C793 C792 1.377 . S
C793 C799 1.390 . S
C794 H785 0.930 . S
C794 C792 1.384 . S
C794 C795 1.372 . S
C795 C794 1.372 . S
C795 C796 1.400 . S
C795 C800 1.490 . S
C796 H786 0.930 . S
C796 C795 1.400 . S
C796 C799 1.386 . S
H797 C813 0.930 . S
H798 C814 0.931 . S
C799 H787 0.929 . S
C799 C793 1.390 . S
C799 C796 1.386 . S
C800 C795 1.490 . S
C800 C802 1.395 . S
C800 C803 1.403 . S
H801 C807 0.930 . S
C802 H788 0.930 . S
C802 C800 1.395 . S
C802 C805 1.403 . S
C803 C800 1.403 . S
C803 C804 1.524 . S
C803 C807 1.400 . S
C804 H789 0.960 . S
C804 H790 0.960 . S
C804 H791 0.960 . S
C804 C803 1.524 . S
C805 C802 1.403 . S
C805 C806 1.392 . S
C805 C809 1.495 . S
C806 C805 1.392 . S
C806 C807 1.385 . S
C806 C808 1.478 . S
C807 H801 0.930 . S
C807 C803 1.400 . S
C807 C806 1.385 . S
C808 C806 1.478 . S
C808 C810 1.381 . S
C808 C814 1.383 . S
C809 C805 1.495 . S
C809 H815 0.959 . S
C809 H816 0.961 . S
C809 H817 0.960 . S
C810 C808 1.381 . S
C810 C811 1.394 . S
C810 H818 0.930 . S
C811 C810 1.394 . S
C811 C812 1.383 . S
C811 H819 0.929 . S
C812 C811 1.383 . S
C812 C813 1.377 . S
C813 H797 0.930 . S
C813 C812 1.377 . S
C813 C814 1.379 . S
C814 H798 0.931 . S
C814 C808 1.383 . S
C814 C813 1.379 . S
H815 C809 0.959 . S
H816 C809 0.961 . S
H817 C809 0.960 . S
H818 C810 0.930 . S
H819 C811 0.929 . S
H820 C828 0.929 . S
H821 C830 0.930 . S
H822 C832 0.930 . S
H823 C835 0.929 . S
H824 C838 0.930 . S
H825 C840 0.960 . S
H826 C840 0.960 . S
H827 C840 0.960 . S
C828 H820 0.929 . S
C828 C829 1.377 . S
C828 C830 1.384 . S
C829 C828 1.377 . S
C829 C835 1.390 . S
C830 H821 0.930 . S
C830 C828 1.384 . S
C830 C831 1.372 . S
C831 C830 1.372 . S
C831 C832 1.400 . S
C831 C836 1.490 . S
C832 H822 0.930 . S
C832 C831 1.400 . S
C832 C835 1.386 . S
H833 C849 0.930 . S
H834 C850 0.931 . S
C835 H823 0.929 . S
C835 C829 1.390 . S
C835 C832 1.386 . S
C836 C831 1.490 . S
C836 C838 1.395 . S
C836 C839 1.403 . S
H837 C843 0.930 . S
C838 H824 0.930 . S
C838 C836 1.395 . S
C838 C841 1.403 . S
C839 C836 1.403 . S
C839 C840 1.524 . S
C839 C843 1.400 . S
C840 H825 0.960 . S
C840 H826 0.960 . S
C840 H827 0.960 . S
C840 C839 1.524 . S
C841 C838 1.403 . S
C841 C842 1.392 . S
C841 C845 1.495 . S
C842 C841 1.392 . S
C842 C843 1.385 . S
C842 C844 1.478 . S
C843 H837 0.930 . S
C843 C839 1.400 . S
C843 C842 1.385 . S
C844 C842 1.478 . S
C844 C846 1.381 . S
C844 C850 1.383 . S
C845 C841 1.495 . S
C845 H851 0.959 . S
C845 H852 0.961 . S
C845 H853 0.960 . S
C846 C844 1.381 . S
C846 C847 1.394 . S
C846 H854 0.930 . S
C847 C846 1.394 . S
C847 C848 1.383 . S
C847 H855 0.929 . S
C848 C847 1.383 . S
C848 C849 1.377 . S
C849 H833 0.930 . S
C849 C848 1.377 . S
C849 C850 1.379 . S
C850 H834 0.931 . S
C850 C844 1.383 . S
C850 C849 1.379 . S
H851 C845 0.959 . S
H852 C845 0.961 . S
H853 C845 0.960 . S
H854 C846 0.930 . S
H855 C847 0.929 . S
H856 C864 0.929 . S
H857 C866 0.930 . S
H858 C868 0.930 . S
H859 C871 0.929 . S
H860 C874 0.930 . S
H861 C876 0.960 . S
H862 C876 0.960 . S
H863 C876 0.960 . S
C864 H856 0.929 . S
C864 C865 1.377 . S
C864 C866 1.384 . S
C865 C864 1.377 . S
C865 C871 1.390 . S
C866 H857 0.930 . S
C866 C864 1.384 . S
C866 C867 1.372 . S
C867 C866 1.372 . S
C867 C868 1.400 . S
C867 C872 1.490 . S
C868 H858 0.930 . S
C868 C867 1.400 . S
C868 C871 1.386 . S
H869 C885 0.930 . S
H870 C886 0.931 . S
C871 H859 0.929 . S
C871 C865 1.390 . S
C871 C868 1.386 . S
C872 C867 1.490 . S
C872 C874 1.395 . S
C872 C875 1.403 . S
H873 C879 0.930 . S
C874 H860 0.930 . S
C874 C872 1.395 . S
C874 C877 1.403 . S
C875 C872 1.403 . S
C875 C876 1.524 . S
C875 C879 1.400 . S
C876 H861 0.960 . S
C876 H862 0.960 . S
C876 H863 0.960 . S
C876 C875 1.524 . S
C877 C874 1.403 . S
C877 C878 1.392 . S
C877 C881 1.495 . S
C878 C877 1.392 . S
C878 C879 1.385 . S
C878 C880 1.478 . S
C879 H873 0.930 . S
C879 C875 1.400 . S
C879 C878 1.385 . S
C880 C878 1.478 . S
C880 C882 1.381 . S
C880 C886 1.383 . S
C881 C877 1.495 . S
C881 H887 0.959 . S
C881 H888 0.961 . S
C881 H889 0.960 . S
C882 C880 1.381 . S
C882 C883 1.394 . S
C882 H890 0.930 . S
C883 C882 1.394 . S
C883 C884 1.383 . S
C883 H891 0.929 . S
C884 C883 1.383 . S
C884 C885 1.377 . S
C885 H869 0.930 . S
C885 C884 1.377 . S
C885 C886 1.379 . S
C886 H870 0.931 . S
C886 C880 1.383 . S
C886 C885 1.379 . S
H887 C881 0.959 . S
H888 C881 0.961 . S
H889 C881 0.960 . S
H890 C882 0.930 . S
H891 C883 0.929 . S
H892 C900 0.929 . S
H893 C902 0.930 . S
H894 C904 0.930 . S
H895 C907 0.929 . S
H896 C910 0.930 . S
H897 C912 0.960 . S
H898 C912 0.960 . S
H899 C912 0.960 . S
C900 H892 0.929 . S
C900 C901 1.377 . S
C900 C902 1.384 . S
C901 C900 1.377 . S
C901 C907 1.390 . S
C902 H893 0.930 . S
C902 C900 1.384 . S
C902 C903 1.372 . S
C903 C902 1.372 . S
C903 C904 1.400 . S
C903 C908 1.490 . S
C904 H894 0.930 . S
C904 C903 1.400 . S
C904 C907 1.386 . S
H905 C921 0.930 . S
H906 C922 0.931 . S
C907 H895 0.929 . S
C907 C901 1.390 . S
C907 C904 1.386 . S
C908 C903 1.490 . S
C908 C910 1.395 . S
C908 C911 1.403 . S
H909 C915 0.930 . S
C910 H896 0.930 . S
C910 C908 1.395 . S
C910 C913 1.403 . S
C911 C908 1.403 . S
C911 C912 1.524 . S
C911 C915 1.400 . S
C912 H897 0.960 . S
C912 H898 0.960 . S
C912 H899 0.960 . S
C912 C911 1.524 . S
C913 C910 1.403 . S
C913 C914 1.392 . S
C913 C917 1.495 . S
C914 C913 1.392 . S
C914 C915 1.385 . S
C914 C916 1.478 . S
C915 H909 0.930 . S
C915 C911 1.400 . S
C915 C914 1.385 . S
C916 C914 1.478 . S
C916 C918 1.381 . S
C916 C922 1.383 . S
C917 C913 1.495 . S
C917 H923 0.959 . S
C917 H924 0.961 . S
C917 H925 0.960 . S
C918 C916 1.381 . S
C918 C919 1.394 . S
C918 H926 0.930 . S
C919 C918 1.394 . S
C919 C920 1.383 . S
C919 H927 0.929 . S
C920 C919 1.383 . S
C920 C921 1.377 . S
C921 H905 0.930 . S
C921 C920 1.377 . S
C921 C922 1.379 . S
C922 H906 0.931 . S
C922 C916 1.383 . S
C922 C921 1.379 . S
H923 C917 0.959 . S
H924 C917 0.961 . S
H925 C917 0.960 . S
H926 C918 0.930 . S
H927 C919 0.929 . S
H928 C936 0.929 . S
H929 C938 0.930 . S
H930 C940 0.930 . S
H931 C943 0.929 . S
H932 C946 0.930 . S
H933 C948 0.960 . S
H934 C948 0.960 . S
H935 C948 0.960 . S
C936 H928 0.929 . S
C936 C937 1.377 . S
C936 C938 1.384 . S
C937 C936 1.377 . S
C937 C943 1.390 . S
C938 H929 0.930 . S
C938 C936 1.384 . S
C938 C939 1.372 . S
C939 C938 1.372 . S
C939 C940 1.400 . S
C939 C944 1.490 . S
C940 H930 0.930 . S
C940 C939 1.400 . S
C940 C943 1.386 . S
H941 C957 0.930 . S
H942 C958 0.931 . S
C943 H931 0.929 . S
C943 C937 1.390 . S
C943 C940 1.386 . S
C944 C939 1.490 . S
C944 C946 1.395 . S
C944 C947 1.403 . S
H945 C951 0.930 . S
C946 H932 0.930 . S
C946 C944 1.395 . S
C946 C949 1.403 . S
C947 C944 1.403 . S
C947 C948 1.524 . S
C947 C951 1.400 . S
C948 H933 0.960 . S
C948 H934 0.960 . S
C948 H935 0.960 . S
C948 C947 1.524 . S
C949 C946 1.403 . S
C949 C950 1.392 . S
C949 C953 1.495 . S
C950 C949 1.392 . S
C950 C951 1.385 . S
C950 C952 1.478 . S
C951 H945 0.930 . S
C951 C947 1.400 . S
C951 C950 1.385 . S
C952 C950 1.478 . S
C952 C954 1.381 . S
C952 C958 1.383 . S
C953 C949 1.495 . S
C953 H959 0.959 . S
C953 H960 0.961 . S
C953 H961 0.960 . S
C954 C952 1.381 . S
C954 C955 1.394 . S
C954 H962 0.930 . S
C955 C954 1.394 . S
C955 C956 1.383 . S
C955 H963 0.929 . S
C956 C955 1.383 . S
C956 C957 1.377 . S
C957 H941 0.930 . S
C957 C956 1.377 . S
C957 C958 1.379 . S
C958 H942 0.931 . S
C958 C952 1.383 . S
C958 C957 1.379 . S
H959 C953 0.959 . S
H960 C953 0.961 . S
H961 C953 0.960 . S
H962 C954 0.930 . S
H963 C955 0.929 . S
H964 C972 0.929 . S
H965 C974 0.930 . S
H966 C976 0.930 . S
H967 C979 0.929 . S
H968 C982 0.930 . S
H969 C984 0.960 . S
H970 C984 0.960 . S
H971 C984 0.960 . S
C972 H964 0.929 . S
C972 C973 1.377 . S
C972 C974 1.384 . S
C973 C972 1.377 . S
C973 C979 1.390 . S
C974 H965 0.930 . S
C974 C972 1.384 . S
C974 C975 1.372 . S
C975 C974 1.372 . S
C975 C976 1.400 . S
C975 C980 1.490 . S
C976 H966 0.930 . S
C976 C975 1.400 . S
C976 C979 1.386 . S
H977 C993 0.930 . S
H978 C994 0.931 . S
C979 H967 0.929 . S
C979 C973 1.390 . S
C979 C976 1.386 . S
C980 C975 1.490 . S
C980 C982 1.395 . S
C980 C983 1.403 . S
H981 C987 0.930 . S
C982 H968 0.930 . S
C982 C980 1.395 . S
C982 C985 1.403 . S
C983 C980 1.403 . S
C983 C984 1.524 . S
C983 C987 1.400 . S
C984 H969 0.960 . S
C984 H970 0.960 . S
C984 H971 0.960 . S
C984 C983 1.524 . S
C985 C982 1.403 . S
C985 C986 1.392 . S
C985 C989 1.495 . S
C986 C985 1.392 . S
C986 C987 1.385 . S
C986 C988 1.478 . S
C987 H981 0.930 . S
C987 C983 1.400 . S
C987 C986 1.385 . S
C988 C986 1.478 . S
C988 C990 1.381 . S
C988 C994 1.383 . S
C989 C985 1.495 . S
C989 H995 0.959 . S
C989 H996 0.961 . S
C989 H997 0.960 . S
C990 C988 1.381 . S
C990 C991 1.394 . S
C990 H998 0.930 . S
C991 C990 1.394 . S
C991 C992 1.383 . S
C991 H999 0.929 . S
C992 C991 1.383 . S
C992 C993 1.377 . S
C993 H977 0.930 . S
C993 C992 1.377 . S
C993 C994 1.379 . S
C994 H978 0.931 . S
C994 C988 1.383 . S
C994 C993 1.379 . S
H995 C989 0.959 . S
H996 C989 0.961 . S
H997 C989 0.960 . S
H998 C990 0.930 . S
H999 C991 0.929 . S
H1000 C1008 0.929 . S
H1001 C1010 0.930 . S
H1002 C1012 0.930 . S
H1003 C1015 0.929 . S
H1004 C1018 0.930 . S
H1005 C1020 0.960 . S
H1006 C1020 0.960 . S
H1007 C1020 0.960 . S
C1008 H1000 0.929 . S
C1008 C1009 1.377 . S
C1008 C1010 1.384 . S
C1009 C1008 1.377 . S
C1009 C1015 1.390 . S
C1010 H1001 0.930 . S
C1010 C1008 1.384 . S
C1010 C1011 1.372 . S
C1011 C1010 1.372 . S
C1011 C1012 1.400 . S
C1011 C1016 1.490 . S
C1012 H1002 0.930 . S
C1012 C1011 1.400 . S
C1012 C1015 1.386 . S
H1013 C1029 0.930 . S
H1014 C1030 0.931 . S
C1015 H1003 0.929 . S
C1015 C1009 1.390 . S
C1015 C1012 1.386 . S
C1016 C1011 1.490 . S
C1016 C1018 1.395 . S
C1016 C1019 1.403 . S
H1017 C1023 0.930 . S
C1018 H1004 0.930 . S
C1018 C1016 1.395 . S
C1018 C1021 1.403 . S
C1019 C1016 1.403 . S
C1019 C1020 1.524 . S
C1019 C1023 1.400 . S
C1020 H1005 0.960 . S
C1020 H1006 0.960 . S
C1020 H1007 0.960 . S
C1020 C1019 1.524 . S
C1021 C1018 1.403 . S
C1021 C1022 1.392 . S
C1021 C1025 1.495 . S
C1022 C1021 1.392 . S
C1022 C1023 1.385 . S
C1022 C1024 1.478 . S
C1023 H1017 0.930 . S
C1023 C1019 1.400 . S
C1023 C1022 1.385 . S
C1024 C1022 1.478 . S
C1024 C1026 1.381 . S
C1024 C1030 1.383 . S
C1025 C1021 1.495 . S
C1025 H1031 0.959 . S
C1025 H1032 0.961 . S
C1025 H1033 0.960 . S
C1026 C1024 1.381 . S
C1026 C1027 1.394 . S
C1026 H1034 0.930 . S
C1027 C1026 1.394 . S
C1027 C1028 1.383 . S
C1027 H1035 0.929 . S
C1028 C1027 1.383 . S
C1028 C1029 1.377 . S
C1029 H1013 0.930 . S
C1029 C1028 1.377 . S
C1029 C1030 1.379 . S
C1030 H1014 0.931 . S
C1030 C1024 1.383 . S
C1030 C1029 1.379 . S
H1031 C1025 0.959 . S
H1032 C1025 0.961 . S
H1033 C1025 0.960 . S
H1034 C1026 0.930 . S
H1035 C1027 0.929 . S
H1036 C1044 0.929 . S
H1037 C1046 0.930 . S
H1038 C1048 0.930 . S
H1039 C1051 0.929 . S
H1040 C1054 0.930 . S
H1041 C1056 0.960 . S
H1042 C1056 0.960 . S
H1043 C1056 0.960 . S
C1044 H1036 0.929 . S
C1044 C1045 1.377 . S
C1044 C1046 1.384 . S
C1045 C1044 1.377 . S
C1045 C1051 1.390 . S
C1046 H1037 0.930 . S
C1046 C1044 1.384 . S
C1046 C1047 1.372 . S
C1047 C1046 1.372 . S
C1047 C1048 1.400 . S
C1047 C1052 1.490 . S
C1048 H1038 0.930 . S
C1048 C1047 1.400 . S
C1048 C1051 1.386 . S
H1049 C1065 0.930 . S
H1050 C1066 0.931 . S
C1051 H1039 0.929 . S
C1051 C1045 1.390 . S
C1051 C1048 1.386 . S
C1052 C1047 1.490 . S
C1052 C1054 1.395 . S
C1052 C1055 1.403 . S
H1053 C1059 0.930 . S
C1054 H1040 0.930 . S
C1054 C1052 1.395 . S
C1054 C1057 1.403 . S
C1055 C1052 1.403 . S
C1055 C1056 1.524 . S
C1055 C1059 1.400 . S
C1056 H1041 0.960 . S
C1056 H1042 0.960 . S
C1056 H1043 0.960 . S
C1056 C1055 1.524 . S
C1057 C1054 1.403 . S
C1057 C1058 1.392 . S
C1057 C1061 1.495 . S
C1058 C1057 1.392 . S
C1058 C1059 1.385 . S
C1058 C1060 1.478 . S
C1059 H1053 0.930 . S
C1059 C1055 1.400 . S
C1059 C1058 1.385 . S
C1060 C1058 1.478 . S
C1060 C1062 1.381 . S
C1060 C1066 1.383 . S
C1061 C1057 1.495 . S
C1061 H1067 0.959 . S
C1061 H1068 0.961 . S
C1061 H1069 0.960 . S
C1062 C1060 1.381 . S
C1062 C1063 1.394 . S
C1062 H1070 0.930 . S
C1063 C1062 1.394 . S
C1063 C1064 1.383 . S
C1063 H1071 0.929 . S
C1064 C1063 1.383 . S
C1064 C1065 1.377 . S
C1065 H1049 0.930 . S
C1065 C1064 1.377 . S
C1065 C1066 1.379 . S
C1066 H1050 0.931 . S
C1066 C1060 1.383 . S
C1066 C1065 1.379 . S
H1067 C1061 0.959 . S
H1068 C1061 0.961 . S
H1069 C1061 0.960 . S
H1070 C1062 0.930 . S
H1071 C1063 0.929 . S
H1072 C1080 0.929 . S
H1073 C1082 0.930 . S
H1074 C1084 0.930 . S
H1075 C1087 0.929 . S
H1076 C1090 0.930 . S
H1077 C1092 0.960 1_565 S
H1078 C1092 0.960 . S
H1079 C1092 0.960 . S
C1080 H1072 0.929 . S
C1080 C1081 1.377 . S
C1080 C1082 1.384 . S
C1081 C1080 1.377 . S
C1081 C1087 1.390 . S
C1082 H1073 0.930 . S
C1082 C1080 1.384 . S
C1082 C1083 1.372 . S
C1083 C1082 1.372 . S
C1083 C1084 1.400 . S
C1083 C1088 1.490 . S
C1084 H1074 0.930 . S
C1084 C1083 1.400 . S
C1084 C1087 1.386 . S
H1085 C1101 0.930 . S
H1086 C1102 0.931 . S
C1087 H1075 0.929 . S
C1087 C1081 1.390 . S
C1087 C1084 1.386 . S
C1088 C1083 1.490 . S
C1088 C1090 1.395 . S
C1088 C1091 1.403 . S
H1089 C1095 0.930 . S
C1090 H1076 0.930 . S
C1090 C1088 1.395 . S
C1090 C1093 1.403 1_545 S
C1091 C1088 1.403 . S
C1091 C1092 1.524 . S
C1091 C1095 1.400 1_545 S
C1092 H1077 0.960 1_545 S
C1092 H1078 0.960 . S
C1092 H1079 0.960 . S
C1092 C1091 1.524 . S
C1093 C1090 1.403 1_565 S
C1093 C1094 1.392 . S
C1093 C1097 1.495 . S
C1094 C1093 1.392 . S
C1094 C1095 1.385 . S
C1094 C1096 1.478 . S
C1095 H1089 0.930 . S
C1095 C1091 1.400 1_565 S
C1095 C1094 1.385 . S
C1096 C1094 1.478 . S
C1096 C1098 1.381 . S
C1096 C1102 1.383 . S
C1097 C1093 1.495 . S
C1097 H1103 0.959 1_565 S
C1097 H1104 0.961 . S
C1097 H1105 0.960 . S
C1098 C1096 1.381 . S
C1098 C1099 1.394 . S
C1098 H1106 0.930 . S
C1099 C1098 1.394 . S
C1099 C1100 1.383 . S
C1099 H1107 0.929 . S
C1100 C1099 1.383 . S
C1100 C1101 1.377 . S
C1101 H1085 0.930 . S
C1101 C1100 1.377 . S
C1101 C1102 1.379 . S
C1102 H1086 0.931 . S
C1102 C1096 1.383 . S
C1102 C1101 1.379 . S
H1103 C1097 0.959 1_545 S
H1104 C1097 0.961 . S
H1105 C1097 0.960 . S
H1106 C1098 0.930 . S
H1107 C1099 0.929 . S
H1108 C1116 0.929 . S
H1109 C1118 0.930 . S
H1110 C1120 0.930 . S
H1111 C1123 0.929 . S
H1112 C1126 0.930 . S
H1113 C1128 0.960 . S
H1114 C1128 0.960 . S
H1115 C1128 0.960 . S
C1116 H1108 0.929 . S
C1116 C1117 1.377 . S
C1116 C1118 1.384 . S
C1117 C1116 1.377 . S
C1117 C1123 1.390 . S
C1118 H1109 0.930 . S
C1118 C1116 1.384 . S
C1118 C1119 1.372 . S
C1119 C1118 1.372 . S
C1119 C1120 1.400 . S
C1119 C1124 1.490 . S
C1120 H1110 0.930 . S
C1120 C1119 1.400 . S
C1120 C1123 1.386 . S
H1121 C1137 0.930 . S
H1122 C1138 0.931 . S
C1123 H1111 0.929 . S
C1123 C1117 1.390 . S
C1123 C1120 1.386 . S
C1124 C1119 1.490 . S
C1124 C1126 1.395 . S
C1124 C1127 1.403 . S
H1125 C1131 0.930 . S
C1126 H1112 0.930 . S
C1126 C1124 1.395 . S
C1126 C1129 1.403 1_655 S
C1127 C1124 1.403 . S
C1127 C1128 1.524 . S
C1127 C1131 1.400 1_655 S
C1128 H1113 0.960 . S
C1128 H1114 0.960 . S
C1128 H1115 0.960 . S
C1128 C1127 1.524 . S
C1129 C1126 1.403 1_455 S
C1129 C1130 1.392 . S
C1129 C1133 1.495 . S
C1130 C1129 1.392 . S
C1130 C1131 1.385 . S
C1130 C1132 1.478 . S
C1131 H1125 0.930 . S
C1131 C1127 1.400 1_455 S
C1131 C1130 1.385 . S
C1132 C1130 1.478 . S
C1132 C1134 1.381 . S
C1132 C1138 1.383 . S
C1133 C1129 1.495 . S
C1133 H1139 0.959 . S
C1133 H1140 0.961 . S
C1133 H1141 0.960 . S
C1134 C1132 1.381 . S
C1134 C1135 1.394 . S
C1134 H1142 0.930 . S
C1135 C1134 1.394 . S
C1135 C1136 1.383 . S
C1135 H1143 0.929 . S
C1136 C1135 1.383 . S
C1136 C1137 1.377 . S
C1137 H1121 0.930 . S
C1137 C1136 1.377 . S
C1137 C1138 1.379 . S
C1138 H1122 0.931 . S
C1138 C1132 1.383 . S
C1138 C1137 1.379 . S
H1139 C1133 0.959 . S
H1140 C1133 0.961 . S
H1141 C1133 0.960 . S
H1142 C1134 0.930 . S
H1143 C1135 0.929 . S
H1144 C1152 0.929 . S
H1145 C1154 0.930 . S
H1146 C1156 0.930 . S
H1147 C1159 0.929 . S
H1148 C1162 0.930 . S
H1149 C1164 1.003 . S
H1150 C1164 0.960 . S
H1151 C1164 0.960 . S
C1152 H1144 0.929 . S
C1152 C1153 1.377 . S
C1152 C1154 1.384 . S
C1153 C1152 1.377 . S
C1153 C1159 1.390 . S
C1154 H1145 0.930 . S
C1154 C1152 1.384 . S
C1154 C1155 1.372 . S
C1155 C1154 1.372 . S
C1155 C1156 1.400 . S
C1155 C1160 1.490 . S
C1156 H1146 0.930 . S
C1156 C1155 1.400 . S
C1156 C1159 1.386 . S
H1157 C1173 0.930 . S
H1158 C1174 0.931 . S
C1159 H1147 0.929 . S
C1159 C1153 1.390 . S
C1159 C1156 1.386 . S
C1160 C1155 1.490 . S
C1160 C1162 1.395 . S
C1160 C1163 1.403 . S
H1161 C1167 0.930 . S
C1162 H1148 0.930 . S
C1162 C1160 1.395 . S
C1162 C1165 1.403 1_545 S
C1163 C1160 1.403 . S
C1163 C1164 1.524 . S
C1163 C1167 1.400 1_545 S
C1164 H1149 1.003 . S
C1164 H1150 0.960 . S
C1164 H1151 0.960 . S
C1164 C1163 1.524 . S
C1165 C1162 1.403 1_565 S
C1165 C1166 1.392 . S
C1165 C1169 1.495 . S
C1166 C1165 1.392 . S
C1166 C1167 1.385 . S
C1166 C1168 1.478 . S
C1167 H1161 0.930 . S
C1167 C1163 1.400 1_565 S
C1167 C1166 1.385 . S
C1168 C1166 1.478 . S
C1168 C1170 1.381 . S
C1168 C1174 1.383 . S
C1169 C1165 1.495 . S
C1169 H1175 0.967 . S
C1169 H1176 0.961 . S
C1169 H1177 0.960 . S
C1170 C1168 1.381 . S
C1170 C1171 1.394 . S
C1170 H1178 0.930 . S
C1171 C1170 1.394 . S
C1171 C1172 1.383 . S
C1171 H1179 0.929 . S
C1172 C1171 1.383 . S
C1172 C1173 1.377 . S
C1173 H1157 0.930 . S
C1173 C1172 1.377 . S
C1173 C1174 1.379 . S
C1174 H1158 0.931 . S
C1174 C1168 1.383 . S
C1174 C1173 1.379 . S
H1175 C1169 0.967 . S
H1176 C1169 0.961 . S
H1177 C1169 0.960 . S
H1178 C1170 0.930 . S
H1179 C1171 0.929 . S
H1180 C1188 0.929 . S
H1181 C1190 0.930 . S
H1182 C1192 0.930 . S
H1183 C1195 0.929 . S
H1184 C1198 0.930 . S
H1185 C1200 0.960 1_655 S
H1186 C1200 0.960 . S
H1187 C1200 0.960 . S
C1188 H1180 0.929 . S
C1188 C1189 1.377 . S
C1188 C1190 1.384 . S
C1189 C1188 1.377 . S
C1189 C1195 1.390 . S
C1190 H1181 0.930 . S
C1190 C1188 1.384 . S
C1190 C1191 1.372 . S
C1191 C1190 1.372 . S
C1191 C1192 1.400 . S
C1191 C1196 1.490 . S
C1192 H1182 0.930 . S
C1192 C1191 1.400 . S
C1192 C1195 1.386 . S
H1193 C1209 0.930 . S
H1194 C1210 0.931 . S
C1195 H1183 0.929 . S
C1195 C1189 1.390 . S
C1195 C1192 1.386 . S
C1196 C1191 1.490 . S
C1196 C1198 1.395 . S
C1196 C1199 1.403 . S
H1197 C1203 0.930 . S
C1198 H1184 0.930 . S
C1198 C1196 1.395 . S
C1198 C1201 1.403 1_455 S
C1199 C1196 1.403 . S
C1199 C1200 1.524 . S
C1199 C1203 1.400 1_455 S
C1200 H1185 0.960 1_455 S
C1200 H1186 0.960 . S
C1200 H1187 0.960 . S
C1200 C1199 1.524 . S
C1201 C1198 1.403 1_655 S
C1201 C1202 1.392 . S
C1201 C1205 1.495 . S
C1202 C1201 1.392 . S
C1202 C1203 1.385 . S
C1202 C1204 1.478 . S
C1203 H1197 0.930 . S
C1203 C1199 1.400 1_655 S
C1203 C1202 1.385 . S
C1204 C1202 1.478 . S
C1204 C1206 1.381 . S
C1204 C1210 1.383 . S
C1205 C1201 1.495 . S
C1205 H1211 0.959 1_655 S
C1205 H1212 0.961 . S
C1205 H1213 0.960 . S
C1206 C1204 1.381 . S
C1206 C1207 1.394 . S
C1206 H1214 0.930 . S
C1207 C1206 1.394 . S
C1207 C1208 1.383 . S
C1207 H1215 0.929 . S
C1208 C1207 1.383 . S
C1208 C1209 1.377 . S
C1209 H1193 0.930 . S
C1209 C1208 1.377 . S
C1209 C1210 1.379 . S
C1210 H1194 0.931 . S
C1210 C1204 1.383 . S
C1210 C1209 1.379 . S
H1211 C1205 0.959 1_455 S
H1212 C1205 0.961 . S
H1213 C1205 0.960 . S
H1214 C1206 0.930 . S
H1215 C1207 0.929 . S
H1216 C1224 0.929 . S
H1217 C1226 0.930 . S
H1218 C1228 0.930 . S
H1219 C1231 0.929 . S
H1220 C1234 0.930 . S
H1221 C1236 0.960 1_565 S
H1222 C1236 0.960 . S
H1223 C1236 0.960 . S
C1224 H1216 0.929 . S
C1224 C1225 1.377 . S
C1224 C1226 1.384 . S
C1225 C1224 1.377 . S
C1225 C1231 1.390 . S
C1226 H1217 0.930 . S
C1226 C1224 1.384 . S
C1226 C1227 1.372 . S
C1227 C1226 1.372 . S
C1227 C1228 1.400 . S
C1227 C1232 1.490 . S
C1228 H1218 0.930 . S
C1228 C1227 1.400 . S
C1228 C1231 1.386 . S
H1229 C1245 0.930 . S
H1230 C1246 0.931 . S
C1231 H1219 0.929 . S
C1231 C1225 1.390 . S
C1231 C1228 1.386 . S
C1232 C1227 1.490 . S
C1232 C1234 1.395 . S
C1232 C1235 1.403 . S
H1233 C1239 0.930 . S
C1234 H1220 0.930 . S
C1234 C1232 1.395 . S
C1234 C1237 1.403 1_545 S
C1235 C1232 1.403 . S
C1235 C1236 1.524 . S
C1235 C1239 1.400 1_545 S
C1236 H1221 0.960 1_545 S
C1236 H1222 0.960 . S
C1236 H1223 0.960 . S
C1236 C1235 1.524 . S
C1237 C1234 1.403 1_565 S
C1237 C1238 1.392 . S
C1237 C1241 1.495 . S
C1238 C1237 1.392 . S
C1238 C1239 1.385 . S
C1238 C1240 1.478 . S
C1239 H1233 0.930 . S
C1239 C1235 1.400 1_565 S
C1239 C1238 1.385 . S
C1240 C1238 1.478 . S
C1240 C1242 1.381 . S
C1240 C1246 1.383 . S
C1241 C1237 1.495 . S
C1241 H1247 0.959 1_565 S
C1241 H1248 0.961 . S
C1241 H1249 0.960 . S
C1242 C1240 1.381 . S
C1242 C1243 1.394 . S
C1242 H1250 0.930 . S
C1243 C1242 1.394 . S
C1243 C1244 1.383 . S
C1243 H1251 0.929 . S
C1244 C1243 1.383 . S
C1244 C1245 1.377 . S
C1245 H1229 0.930 . S
C1245 C1244 1.377 . S
C1245 C1246 1.379 . S
C1246 H1230 0.931 . S
C1246 C1240 1.383 . S
C1246 C1245 1.379 . S
H1247 C1241 0.959 1_545 S
H1248 C1241 0.961 . S
H1249 C1241 0.960 . S
H1250 C1242 0.930 . S
H1251 C1243 0.929 . S
H1252 C1260 0.929 . S
H1253 C1262 0.930 . S
H1254 C1264 0.930 . S
H1255 C1267 0.929 . S
H1256 C1270 0.930 . S
H1257 C1272 0.960 1_455 S
H1258 C1272 0.960 . S
H1259 C1272 0.960 . S
C1260 H1252 0.929 . S
C1260 C1261 1.377 . S
C1260 C1262 1.384 . S
C1261 C1260 1.377 . S
C1261 C1267 1.390 . S
C1262 H1253 0.930 . S
C1262 C1260 1.384 . S
C1262 C1263 1.372 . S
C1263 C1262 1.372 . S
C1263 C1264 1.400 . S
C1263 C1268 1.490 . S
C1264 H1254 0.930 . S
C1264 C1263 1.400 . S
C1264 C1267 1.386 . S
H1265 C1281 0.930 . S
H1266 C1282 0.931 . S
C1267 H1255 0.929 . S
C1267 C1261 1.390 . S
C1267 C1264 1.386 . S
C1268 C1263 1.490 . S
C1268 C1270 1.395 . S
C1268 C1271 1.403 . S
H1269 C1275 0.930 . S
C1270 H1256 0.930 . S
C1270 C1268 1.395 . S
C1270 C1273 1.403 1_655 S
C1271 C1268 1.403 . S
C1271 C1272 1.524 . S
C1271 C1275 1.400 1_655 S
C1272 H1257 0.960 1_655 S
C1272 H1258 0.960 . S
C1272 H1259 0.960 . S
C1272 C1271 1.524 . S
C1273 C1270 1.403 1_455 S
C1273 C1274 1.392 . S
C1273 C1277 1.495 . S
C1274 C1273 1.392 . S
C1274 C1275 1.385 . S
C1274 C1276 1.478 . S
C1275 H1269 0.930 . S
C1275 C1271 1.400 1_455 S
C1275 C1274 1.385 . S
C1276 C1274 1.478 . S
C1276 C1278 1.381 . S
C1276 C1282 1.383 . S
C1277 C1273 1.495 . S
C1277 H1283 0.959 1_455 S
C1277 H1284 0.961 . S
C1277 H1285 0.960 . S
C1278 C1276 1.381 . S
C1278 C1279 1.394 . S
C1278 H1286 0.930 . S
C1279 C1278 1.394 . S
C1279 C1280 1.383 . S
C1279 H1287 0.929 . S
C1280 C1279 1.383 . S
C1280 C1281 1.377 . S
C1281 H1265 0.930 . S
C1281 C1280 1.377 . S
C1281 C1282 1.379 . S
C1282 H1266 0.931 . S
C1282 C1276 1.383 . S
C1282 C1281 1.379 . S
H1283 C1277 0.959 1_655 S
H1284 C1277 0.961 . S
H1285 C1277 0.960 . S
H1286 C1278 0.930 . S
H1287 C1279 0.929 . S
H1288 C1296 0.929 . S
H1289 C1298 0.930 . S
H1290 C1300 0.930 . S
H1291 C1303 0.929 . S
H1292 C1306 0.930 . S
H1293 C1308 0.960 . S
H1294 C1308 0.960 . S
H1295 C1308 0.960 . S
C1296 H1288 0.929 . S
C1296 C1297 1.377 . S
C1296 C1298 1.384 . S
C1297 C1296 1.377 . S
C1297 C1303 1.390 . S
C1298 H1289 0.930 . S
C1298 C1296 1.384 . S
C1298 C1299 1.372 . S
C1299 C1298 1.372 . S
C1299 C1300 1.400 . S
C1299 C1304 1.490 . S
C1300 H1290 0.930 . S
C1300 C1299 1.400 . S
C1300 C1303 1.386 . S
H1301 C1317 0.930 . S
H1302 C1318 0.931 . S
C1303 H1291 0.929 . S
C1303 C1297 1.390 . S
C1303 C1300 1.386 . S
C1304 C1299 1.490 . S
C1304 C1306 1.395 . S
C1304 C1307 1.403 . S
H1305 C1311 0.930 . S
C1306 H1292 0.930 . S
C1306 C1304 1.395 . S
C1306 C1309 1.403 1_565 S
C1307 C1304 1.403 . S
C1307 C1308 1.524 . S
C1307 C1311 1.400 1_565 S
C1308 H1293 0.960 . S
C1308 H1294 0.960 . S
C1308 H1295 0.960 . S
C1308 C1307 1.524 . S
C1309 C1306 1.403 1_545 S
C1309 C1310 1.392 . S
C1309 C1313 1.495 . S
C1310 C1309 1.392 . S
C1310 C1311 1.385 . S
C1310 C1312 1.478 . S
C1311 H1305 0.930 . S
C1311 C1307 1.400 1_545 S
C1311 C1310 1.385 . S
C1312 C1310 1.478 . S
C1312 C1314 1.381 . S
C1312 C1318 1.383 . S
C1313 C1309 1.495 . S
C1313 H1319 0.959 . S
C1313 H1320 0.961 . S
C1313 H1321 0.960 . S
C1314 C1312 1.381 . S
C1314 C1315 1.394 . S
C1314 H1322 0.930 . S
C1315 C1314 1.394 . S
C1315 C1316 1.383 . S
C1315 H1323 0.929 . S
C1316 C1315 1.383 . S
C1316 C1317 1.377 . S
C1317 H1301 0.930 . S
C1317 C1316 1.377 . S
C1317 C1318 1.379 . S
C1318 H1302 0.931 . S
C1318 C1312 1.383 . S
C1318 C1317 1.379 . S
H1319 C1313 0.959 . S
H1320 C1313 0.961 . S
H1321 C1313 0.960 . S
H1322 C1314 0.930 . S
H1323 C1315 0.929 . S
H1324 C1332 0.929 . S
H1325 C1334 0.930 . S
H1326 C1336 0.930 . S
H1327 C1339 0.929 . S
H1328 C1342 0.930 . S
H1329 C1344 0.960 . S
H1330 C1344 0.960 . S
H1331 C1344 0.960 . S
C1332 H1324 0.929 . S
C1332 C1333 1.377 . S
C1332 C1334 1.384 . S
C1333 C1332 1.377 . S
C1333 C1339 1.390 . S
C1334 H1325 0.930 . S
C1334 C1332 1.384 . S
C1334 C1335 1.372 . S
C1335 C1334 1.372 . S
C1335 C1336 1.400 . S
C1335 C1340 1.490 . S
C1336 H1326 0.930 . S
C1336 C1335 1.400 . S
C1336 C1339 1.386 . S
H1337 C1353 0.930 . S
H1338 C1354 0.931 . S
C1339 H1327 0.929 . S
C1339 C1333 1.390 . S
C1339 C1336 1.386 . S
C1340 C1335 1.490 . S
C1340 C1342 1.395 . S
C1340 C1343 1.403 . S
H1341 C1347 0.930 . S
C1342 H1328 0.930 . S
C1342 C1340 1.395 . S
C1342 C1345 1.403 1_455 S
C1343 C1340 1.403 . S
C1343 C1344 1.524 . S
C1343 C1347 1.400 1_455 S
C1344 H1329 0.960 . S
C1344 H1330 0.960 . S
C1344 H1331 0.960 . S
C1344 C1343 1.524 . S
C1345 C1342 1.403 1_655 S
C1345 C1346 1.392 . S
C1345 C1349 1.495 . S
C1346 C1345 1.392 . S
C1346 C1347 1.385 . S
C1346 C1348 1.478 . S
C1347 H1341 0.930 . S
C1347 C1343 1.400 1_655 S
C1347 C1346 1.385 . S
C1348 C1346 1.478 . S
C1348 C1350 1.381 . S
C1348 C1354 1.383 . S
C1349 C1345 1.495 . S
C1349 H1355 0.959 . S
C1349 H1356 0.961 . S
C1349 H1357 0.960 . S
C1350 C1348 1.381 . S
C1350 C1351 1.394 . S
C1350 H1358 0.930 . S
C1351 C1350 1.394 . S
C1351 C1352 1.383 . S
C1351 H1359 0.929 . S
C1352 C1351 1.383 . S
C1352 C1353 1.377 . S
C1353 H1337 0.930 . S
C1353 C1352 1.377 . S
C1353 C1354 1.379 . S
C1354 H1338 0.931 . S
C1354 C1348 1.383 . S
C1354 C1353 1.379 . S
H1355 C1349 0.959 . S
H1356 C1349 0.961 . S
H1357 C1349 0.960 . S
H1358 C1350 0.930 . S
H1359 C1351 0.929 . S
C217 C69 1.592 . S
C236 C10 1.598 . S
C253 C82 1.592 . S
C272 C17 1.589 . S
C289 C30 1.591 . S
C308 C95 1.600 . S
C325 C43 1.591 . S
C344 C56 1.598 . S
C361 C179 1.593 . S
C380 C108 1.585 . S
C397 C186 1.591 . S
C416 C127 1.593 . S
C433 C134 1.595 . S
C452 C199 1.583 . S
C469 C153 1.591 . S
C488 C160 1.600 . S
C505 C140 1.631 . S
C524 C4 1.628 . S
C541 C147 1.633 . S
C560 C23 1.638 . S
C577 C114 1.634 . S
C596 C36 1.626 . S
C613 C49 1.631 . S
C632 C121 1.626 . S
C649 C192 1.633 . S
C668 C62 1.622 . S
C685 C205 1.631 . S
C704 C75 1.619 . S
C721 C88 1.630 . S
C740 C166 1.622 . S
C757 C173 1.631 . S
C776 C101 1.626 . S
C793 C57 2.041 . S
C812 C3 2.037 . S
C829 C18 2.041 . S
C848 C70 2.039 . S
C865 C31 2.042 . S
C884 C83 2.039 . S
C901 C96 2.042 . S
C920 C44 2.039 . S
C937 C107 0.981 . S
C956 C159 1.003 . S
C973 C174 0.984 . S
C992 C122 0.964 . S
C1009 C133 0.982 . S
C1028 C185 1.003 . S
C1045 C198 0.979 . S
C1064 C148 0.999 . S
C1081 C146 2.041 . S
C1100 C172 2.039 . S
C1117 C109 2.041 . S
C1136 C187 2.036 . S
C1153 C200 2.041 . S
C1172 C120 2.038 . S
C1189 C135 2.042 . S
C1208 C161 2.039 . S
C1225 C68 0.982 . S
C1244 C42 0.970 . S
C1261 C81 0.987 . S
C1280 C5 0.961 . S
C1297 C94 0.988 . S
C1316 C16 0.973 . S
C1333 C55 0.986 . S
C1352 C29 0.990 . S
