# Generated by pormake.
# Topology nfc, (4)-cn, num edge types: 1
# Building blocks:
#     Node 0, Type 0, BuildingBlock: ESEHIV_clean_sbu_0, # of connection points: 4
#     Node 1, Type 0, BuildingBlock: ESEHIV_clean_sbu_0, # of connection points: 4
#     Node 2, Type 0, BuildingBlock: ESEHIV_clean_sbu_0, # of connection points: 4
#     Node 3, Type 0, BuildingBlock: ESEHIV_clean_sbu_0, # of connection points: 4
#     Node 4, Type 0, BuildingBlock: ESEHIV_clean_sbu_0, # of connection points: 4
#     Node 5, Type 0, BuildingBlock: ESEHIV_clean_sbu_0, # of connection points: 4
#     Node 6, Type 0, BuildingBlock: ESEHIV_clean_sbu_0, # of connection points: 4
#     Node 7, Type 0, BuildingBlock: ESEHIV_clean_sbu_0, # of connection points: 4
#     Node 8, Type 0, BuildingBlock: ESEHIV_clean_sbu_0, # of connection points: 4
#     Node 9, Type 0, BuildingBlock: ESEHIV_clean_sbu_0, # of connection points: 4
#     Node 10, Type 0, BuildingBlock: ESEHIV_clean_sbu_0, # of connection points: 4
#     Node 11, Type 0, BuildingBlock: ESEHIV_clean_sbu_0, # of connection points: 4
#     Node 12, Type 0, BuildingBlock: ESEHIV_clean_sbu_0, # of connection points: 4
#     Node 13, Type 0, BuildingBlock: ESEHIV_clean_sbu_0, # of connection points: 4
#     Node 14, Type 0, BuildingBlock: ESEHIV_clean_sbu_0, # of connection points: 4
#     Node 15, Type 0, BuildingBlock: ESEHIV_clean_sbu_0, # of connection points: 4
#     Edge 16, Type (0, 0), BuildingBlock: KIFKEQ_clean_linker_1, # of connection points: 2
#     Edge 17, Type (0, 0), BuildingBlock: KIFKEQ_clean_linker_1, # of connection points: 2
#     Edge 18, Type (0, 0), BuildingBlock: KIFKEQ_clean_linker_1, # of connection points: 2
#     Edge 19, Type (0, 0), BuildingBlock: KIFKEQ_clean_linker_1, # of connection points: 2
#     Edge 20, Type (0, 0), BuildingBlock: KIFKEQ_clean_linker_1, # of connection points: 2
#     Edge 21, Type (0, 0), BuildingBlock: KIFKEQ_clean_linker_1, # of connection points: 2
#     Edge 22, Type (0, 0), BuildingBlock: KIFKEQ_clean_linker_1, # of connection points: 2
#     Edge 23, Type (0, 0), BuildingBlock: KIFKEQ_clean_linker_1, # of connection points: 2
#     Edge 24, Type (0, 0), BuildingBlock: KIFKEQ_clean_linker_1, # of connection points: 2
#     Edge 25, Type (0, 0), BuildingBlock: KIFKEQ_clean_linker_1, # of connection points: 2
#     Edge 26, Type (0, 0), BuildingBlock: KIFKEQ_clean_linker_1, # of connection points: 2
#     Edge 27, Type (0, 0), BuildingBlock: KIFKEQ_clean_linker_1, # of connection points: 2
#     Edge 28, Type (0, 0), BuildingBlock: KIFKEQ_clean_linker_1, # of connection points: 2
#     Edge 29, Type (0, 0), BuildingBlock: KIFKEQ_clean_linker_1, # of connection points: 2
#     Edge 30, Type (0, 0), BuildingBlock: KIFKEQ_clean_linker_1, # of connection points: 2
#     Edge 31, Type (0, 0), BuildingBlock: KIFKEQ_clean_linker_1, # of connection points: 2
#     Edge 32, Type (0, 0), BuildingBlock: KIFKEQ_clean_linker_1, # of connection points: 2
#     Edge 33, Type (0, 0), BuildingBlock: KIFKEQ_clean_linker_1, # of connection points: 2
#     Edge 34, Type (0, 0), BuildingBlock: KIFKEQ_clean_linker_1, # of connection points: 2
#     Edge 35, Type (0, 0), BuildingBlock: KIFKEQ_clean_linker_1, # of connection points: 2
#     Edge 36, Type (0, 0), BuildingBlock: KIFKEQ_clean_linker_1, # of connection points: 2
#     Edge 37, Type (0, 0), BuildingBlock: KIFKEQ_clean_linker_1, # of connection points: 2
#     Edge 38, Type (0, 0), BuildingBlock: KIFKEQ_clean_linker_1, # of connection points: 2
#     Edge 39, Type (0, 0), BuildingBlock: KIFKEQ_clean_linker_1, # of connection points: 2
#     Edge 40, Type (0, 0), BuildingBlock: KIFKEQ_clean_linker_1, # of connection points: 2
#     Edge 41, Type (0, 0), BuildingBlock: KIFKEQ_clean_linker_1, # of connection points: 2
#     Edge 42, Type (0, 0), BuildingBlock: KIFKEQ_clean_linker_1, # of connection points: 2
#     Edge 43, Type (0, 0), BuildingBlock: KIFKEQ_clean_linker_1, # of connection points: 2
#     Edge 44, Type (0, 0), BuildingBlock: KIFKEQ_clean_linker_1, # of connection points: 2
#     Edge 45, Type (0, 0), BuildingBlock: KIFKEQ_clean_linker_1, # of connection points: 2
#     Edge 46, Type (0, 0), BuildingBlock: KIFKEQ_clean_linker_1, # of connection points: 2
#     Edge 47, Type (0, 0), BuildingBlock: KIFKEQ_clean_linker_1, # of connection points: 2
# Relax obj value: 0.068
# Max RMSD: 0.217
# Mean RMSD: 0.158
data_MOF--net-nfc--node1-ESEHIV_clean_sbu_0--edge1-KIFKEQ_clean_linker_1
_symmetry_space_group_name_H-M    P1
_symmetry_Int_Tables_number       1
_symmetry_cell_setting            triclinic
loop_
_symmetry_equiv_pos_as_xyz
'x, y, z'
_cell_length_a     39.889527
_cell_length_b     39.859301
_cell_length_c     31.194237
_cell_angle_alpha  88.467479
_cell_angle_beta   88.552926
_cell_angle_gamma 80.185174
loop_
_atom_site_label
_atom_site_type_symbol
_atom_site_fract_x
_atom_site_fract_y
_atom_site_fract_z
_atom_type_partial_charge
Cu0 Cu 0.01778 0.02235 0.04667 0.0
N1 N 0.97439 0.01619 0.02975 0.0
N2 N 0.93453 0.99281 0.99751 0.0
C3 C 0.96764 0.99655 0.99746 0.0
C4 C 0.91995 1.01099 0.03106 0.0
C5 C 0.94454 0.02528 0.05086 0.0
O6 O 0.04876 1.00909 0.99834 0.0
C7 C 0.05768 0.99039 0.11517 0.0
O8 O 0.08364 0.99758 0.09209 0.0
H9 H 0.98703 0.98369 0.97586 0.0
H10 H 0.9412 0.04003 0.07972 0.0
N11 N 0.01966 0.06734 0.06241 0.0
N12 N 0.04066 0.11085 0.08982 0.0
C13 C 0.04748 0.07822 0.07691 0.0
C14 C 0.99427 0.09412 0.06601 0.0
C15 C 1.0071 0.12094 0.08289 0.0
C16 C 0.05433 0.0319 0.97095 0.0
O17 O 0.04143 0.06387 0.97806 0.0
H18 H 0.07209 0.06213 0.07919 0.0
H19 H 0.96811 0.09397 0.05783 0.0
O20 O 0.02831 0.99542 0.09884 0.0
H21 H 0.89352 1.01324 0.04118 0.0
H22 H 0.99272 0.14584 0.08974 0.0
Cu23 Cu 0.34679 0.79596 0.28805 0.0
N24 N 0.31575 0.7889 0.2465 0.0
N25 N 0.29267 0.78724 0.18199 0.0
C26 C 0.31822 0.7964 0.20423 0.0
C27 C 0.27348 0.77336 0.21159 0.0
C28 C 0.28785 0.77427 0.25123 0.0
O29 O 0.39098 0.78723 0.25743 0.0
C30 C 0.30383 0.84664 0.33019 0.0
O31 O 0.2853 0.8224 0.32956 0.0
H32 H 0.33828 0.80857 0.19021 0.0
H33 H 0.27877 0.76465 0.28131 0.0
N34 N 0.34497 0.76564 0.33508 0.0
N35 N 0.3357 0.74837 0.4028 0.0
C36 C 0.3423 0.77424 0.37677 0.0
C37 C 0.34059 0.73294 0.33473 0.0
C38 C 0.33485 0.72223 0.37635 0.0
C39 C 0.41619 0.76478 0.2686 0.0
O40 O 0.41567 0.75013 0.30676 0.0
H41 H 0.34293 0.79971 0.38746 0.0
H42 H 0.33997 0.71843 0.30603 0.0
O43 O 0.33292 0.84183 0.31112 0.0
H44 H 0.25096 0.76275 0.20505 0.0
H45 H 0.32939 0.69744 0.38611 0.0
Cu46 Cu 0.49079 0.08114 0.5353 0.0
N47 N 0.49595 0.12654 0.52282 0.0
N48 N 0.51655 0.17024 0.49051 0.0
C49 C 0.51949 0.13595 0.49523 0.0
C50 C 0.48995 0.18278 0.51651 0.0
C51 C 0.47735 0.15585 0.53626 0.0
O52 O 0.50965 0.05703 0.4838 0.0
C53 C 0.50153 0.07746 0.6237 0.0
O54 O 0.47465 0.10163 0.62215 0.0
H55 H 0.5384 0.11772 0.47892 0.0
H56 H 0.45588 0.15751 0.55839 0.0
N57 N 0.44473 0.07633 0.54305 0.0
N58 N 0.39855 0.05562 0.56695 0.0
C59 C 0.43188 0.05645 0.57286 0.0
C60 C 0.41855 0.08856 0.5175 0.0
C61 C 0.39016 0.07568 0.53197 0.0
C62 C 0.49652 0.03506 0.46395 0.0
O63 O 0.47081 0.0228 0.48169 0.0
H64 H 0.44703 0.04165 0.59728 0.0
H65 H 0.4203 0.1048 0.48948 0.0
O66 O 0.51438 0.06492 0.58849 0.0
H67 H 0.47966 0.20947 0.52035 0.0
H68 H 0.36535 0.08038 0.51755 0.0
Cu69 Cu 0.30853 0.17441 0.75996 0.0
N70 N 0.33946 0.17009 0.71316 0.0
N71 N 0.35938 0.16586 0.64532 0.0
C72 C 0.33207 0.16585 0.6719 0.0
C73 C 0.38507 0.16982 0.6711 0.0
C74 C 0.37273 0.17235 0.71286 0.0
O75 O 0.2635 0.19656 0.73903 0.0
C76 C 0.33239 0.10379 0.78222 0.0
O77 O 0.34895 0.10211 0.74521 0.0
H78 H 0.30671 0.16435 0.66144 0.0
H79 H 0.38685 0.17621 0.74094 0.0
N80 N 0.32184 0.20141 0.8025 0.0
N81 N 0.33152 0.21646 0.86932 0.0
C82 C 0.3177 0.19516 0.84478 0.0
C83 C 0.33881 0.22781 0.79981 0.0
C84 C 0.34483 0.23716 0.84099 0.0
C85 C 0.26282 0.22209 0.71308 0.0
O86 O 0.29155 0.23249 0.7028 0.0
H87 H 0.30554 0.17455 0.85713 0.0
H88 H 0.3468 0.23903 0.77013 0.0
O89 O 0.31057 0.13032 0.79053 0.0
H90 H 0.41087 0.17121 0.66055 0.0
H91 H 0.35808 0.25756 0.84922 0.0
Cu92 Cu 0.10275 0.04217 0.53918 0.0
N93 N 0.07537 0.02713 0.49851 0.0
N94 N 0.06033 1.01083 0.43461 0.0
C95 C 0.08189 0.02681 0.45596 0.0
C96 C 0.03939 1.00069 0.46524 0.0
C97 C 0.04887 1.01058 0.5046 0.0
O98 O 0.14785 0.03571 0.51094 0.0
C99 C 0.05228 0.09973 0.5581 0.0
O100 O 0.03219 0.08062 0.54203 0.0
H101 H 0.10314 0.0368 0.44135 0.0
H102 H 0.03782 1.00534 0.53557 0.0
N103 N 0.10353 1.01426 0.5883 0.0
N104 N 0.10215 0.99913 0.65778 0.0
C105 C 0.10075 0.02515 0.62886 0.0
C106 C 0.10681 0.98013 0.59141 0.0
C107 C 0.10608 0.97068 0.63431 0.0
C108 C 0.17429 0.01729 0.52642 0.0
O109 O 0.17399 1.00795 0.5671 0.0
H110 H 0.09807 0.05174 0.63688 0.0
H111 H 0.10947 0.96337 0.56437 0.0
O112 O 0.08436 0.08894 0.5575 0.0
H113 H 0.0189 0.98678 0.45983 0.0
H114 H 0.10762 0.94497 0.64711 0.0
Cu115 Cu 0.23258 0.82314 0.78209 0.0
N116 N 0.23264 0.86878 0.76448 0.0
N117 N 0.25127 0.91405 0.73389 0.0
C118 C 0.25676 0.87976 0.73916 0.0
C119 C 0.22241 0.92507 0.75662 0.0
C120 C 0.21089 0.89714 0.77522 0.0
O121 O 0.2559 0.79588 0.73529 0.0
C122 C 0.23982 0.83134 0.86868 0.0
O123 O 0.21204 0.8533 0.86081 0.0
H124 H 0.27845 0.86294 0.72576 0.0
H125 H 0.18844 0.89757 0.79549 0.0
N126 N 0.18833 0.81296 0.79178 0.0
N127 N 0.1458 0.78851 0.82036 0.0
C128 C 0.17956 0.7896 0.82032 0.0
C129 C 0.159 0.82737 0.77347 0.0
C130 C 0.13286 0.81222 0.79074 0.0
C131 C 0.24035 0.79669 0.69992 0.0
O132 O 0.20899 0.81322 0.69802 0.0
H133 H 0.19767 0.77363 0.84058 0.0
H134 H 0.15672 0.84769 0.74948 0.0
O135 O 0.25513 0.81479 0.83737 0.0
H136 H 0.21039 0.95142 0.75945 0.0
H137 H 0.10625 0.81872 0.78278 0.0
Cu138 Cu 0.54517 0.95413 0.03337 0.0
N139 N 0.57003 0.96808 0.98623 0.0
N140 N 0.57742 0.98655 0.91858 0.0
C141 C 0.55613 0.98774 0.95314 0.0
C142 C 0.60606 0.96559 0.93065 0.0
C143 C 0.60142 0.95423 0.97231 0.0
O144 O 0.50037 0.95471 1.00815 0.0
C145 C 0.59231 0.90836 0.08203 0.0
O146 O 0.60128 0.93718 0.09263 0.0
H147 H 0.52988 1.00039 0.95318 0.0
H148 H 0.61875 0.93533 0.99001 0.0
N149 N 0.54256 0.98518 0.0783 0.0
N150 N 0.53914 1.00534 0.145 0.0
C151 C 0.53283 0.98028 0.11951 0.0
C152 C 0.55507 1.01448 0.07769 0.0
C153 C 0.55305 0.02692 0.1187 0.0
C154 C 0.47477 0.97806 0.01505 0.0
O155 O 0.4753 0.99848 0.04726 0.0
H156 H 0.52322 0.9578 0.13099 0.0
H157 H 0.56622 0.02525 0.0497 0.0
O158 O 0.5683 0.90914 0.05533 0.0
H159 H 0.62821 0.95779 0.91022 0.0
H160 H 0.56178 0.04974 0.12857 0.0
Cu161 Cu 0.29928 0.24927 0.26729 0.0
N162 N 0.25259 0.25143 0.25722 0.0
N163 N 0.20412 0.2378 0.23309 0.0
C164 C 0.23838 0.22906 0.2349 0.0
C165 C 0.19654 0.26685 0.25531 0.0
C166 C 0.22638 0.2751 0.27019 0.0
O167 O 0.32282 0.2397 0.2122 0.0
C168 C 0.34135 0.20585 0.32737 0.0
O169 O 0.36749 0.21335 0.30488 0.0
H170 H 0.25293 0.20701 0.2198 0.0
H171 H 0.22875 0.2968 0.28927 0.0
N172 N 0.30855 0.29133 0.28565 0.0
N173 N 0.33382 0.32987 0.318 0.0
C174 C 0.33182 0.29648 0.31445 0.0
C175 C 0.29526 0.32255 0.27054 0.0
C176 C 0.31066 0.34629 0.2904 0.0
C177 C 0.32587 0.21152 0.193 0.0
O178 O 0.31742 0.1849 0.21358 0.0
H179 H 0.34773 0.27607 0.33153 0.0
H180 H 0.2761 0.32764 0.24619 0.0
O181 O 0.3114 0.21628 0.31398 0.0
H182 H 0.17122 0.28094 0.26103 0.0
H183 H 0.30518 0.37355 0.28472 0.0
Cu184 Cu 0.84246 0.2938 0.76953 0.0
N185 N 0.81154 0.29067 0.72679 0.0
N186 N 0.79177 0.27998 0.66315 0.0
C187 C 0.81967 0.27999 0.68674 0.0
C188 C 0.76507 0.29106 0.68957 0.0
C189 C 0.77734 0.29761 0.72877 0.0
O190 O 0.88694 0.28891 0.73935 0.0
C191 C 0.79959 0.33538 0.82673 0.0
O192 O 0.78693 0.30709 0.83045 0.0
H193 H 0.84562 0.2729 0.67508 0.0
H194 H 0.76223 0.30679 0.75658 0.0
N195 N 0.84293 0.2556 0.8056 0.0
N196 N 0.83899 0.22406 0.86514 0.0
C197 C 0.84428 0.25442 0.84861 0.0
C198 C 0.83768 0.22463 0.79425 0.0
C199 C 0.83509 0.20511 0.83096 0.0
C200 C 0.91304 0.26838 0.75244 0.0
O201 O 0.91302 0.25647 0.7921 0.0
H202 H 0.84619 0.2764 0.86746 0.0
H203 H 0.83419 0.2174 0.7617 0.0
O204 O 0.82533 0.33604 0.8015 0.0
H205 H 0.73851 0.29402 0.6814 0.0
H206 H 0.82911 0.17962 0.83237 0.0
Cu207 Cu 0.8166 0.68218 0.25627 0.0
N208 N 0.84711 0.67885 0.20915 0.0
N209 N 0.86661 0.6748 0.14111 0.0
C210 C 0.83988 0.67325 0.16825 0.0
C211 C 0.89179 0.68109 0.16637 0.0
C212 C 0.87966 0.68368 0.20817 0.0
O213 O 0.77115 0.70363 0.23545 0.0
C214 C 0.845 0.6136 0.28086 0.0
O215 O 0.86557 0.61576 0.24778 0.0
H216 H 0.81488 0.66979 0.15857 0.0
H217 H 0.89339 0.68928 0.23584 0.0
N218 N 0.82981 0.71022 0.2976 0.0
N219 N 0.84237 0.72698 0.36235 0.0
C220 C 0.83665 0.70072 0.33869 0.0
C221 C 0.83148 0.74365 0.29499 0.0
C222 C 0.83912 0.75409 0.33494 0.0
C223 C 0.76988 0.72825 0.20794 0.0
O224 O 0.79832 0.73841 0.19569 0.0
H225 H 0.83594 0.67533 0.35146 0.0
H226 H 0.8266 0.75952 0.26643 0.0
O227 O 0.81969 0.6376 0.28666 0.0
H228 H 0.91712 0.68409 0.15558 0.0
H229 H 0.84165 0.77971 0.34328 0.0
Cu230 Cu 0.72282 0.31215 0.25783 0.0
N231 N 0.71748 0.29322 0.20487 0.0
N232 N 0.72827 0.26499 0.14378 0.0
C233 C 0.73938 0.26982 0.18335 0.0
C234 C 0.69786 0.28581 0.14087 0.0
C235 C 0.69132 0.30311 0.17855 0.0
O236 O 0.73827 0.35642 0.24611 0.0
C237 C 0.66962 0.28272 0.29154 0.0
O238 O 0.68612 0.25836 0.2677 0.0
H239 H 0.76348 0.25754 0.1959 0.0
H240 H 0.66968 0.32262 0.18568 0.0
N241 N 0.75618 0.28439 0.28967 0.0
N242 N 0.78014 0.25963 0.34897 0.0
C243 C 0.75185 0.27755 0.33161 0.0
C244 C 0.78851 0.27013 0.27995 0.0
C245 C 0.80346 0.25497 0.31669 0.0
C246 C 0.76467 0.35479 0.22147 0.0
O247 O 0.77793 0.32509 0.20595 0.0
H248 H 0.72888 0.28727 0.34966 0.0
H249 H 0.8009 0.27148 0.24893 0.0
O250 O 0.68036 0.31124 0.29177 0.0
H251 H 0.68233 0.28991 0.11266 0.0
H252 H 0.82958 0.24232 0.31967 0.0
Cu253 Cu 0.81576 0.75237 0.75991 0.0
N254 N 0.77301 0.7387 0.75579 0.0
N255 N 0.73256 0.70964 0.73587 0.0
C256 C 0.765 0.71488 0.72966 0.0
C257 C 0.71966 0.73132 0.76708 0.0
C258 C 0.74458 0.74913 0.77923 0.0
O259 O 0.83745 0.74861 0.70318 0.0
C260 C 0.83496 0.69976 0.82393 0.0
O261 O 0.81147 0.68449 0.80814 0.0
H262 H 0.78291 0.70099 0.70731 0.0
H263 H 0.74227 0.7681 0.80378 0.0
N264 N 0.81158 0.79799 0.7761 0.0
N265 N 0.8238 0.84422 0.80785 0.0
C266 C 0.8291 0.80978 0.80729 0.0
C267 C 0.79446 0.8259 0.75636 0.0
C268 C 0.80195 0.85441 0.77582 0.0
C269 C 0.84784 0.72054 0.68472 0.0
O270 O 0.848 0.6918 0.70642 0.0
H271 H 0.84663 0.79342 0.82787 0.0
H272 H 0.77853 0.82554 0.72888 0.0
O273 O 0.84212 0.72648 0.80517 0.0
H274 H 0.69401 0.73427 0.7803 0.0
H275 H 0.79234 0.88062 0.76671 0.0
Cu276 Cu 0.53481 0.51838 0.5272 0.0
N277 N 0.52262 0.47522 0.52129 0.0
N278 N 0.49479 0.43578 0.49573 0.0
C279 C 0.49892 0.46879 0.49399 0.0
C280 C 0.51703 0.42087 0.52538 0.0
C281 C 0.53411 0.44523 0.54111 0.0
O282 O 0.53573 0.53709 0.46917 0.0
C283 C 0.48636 0.5331 0.59467 0.0
O284 O 0.48157 0.50158 0.59043 0.0
H285 H 0.48526 0.4881 0.47288 0.0
H286 H 0.55328 0.44139 0.56548 0.0
N287 N 0.57715 0.51827 0.55232 0.0
N288 N 0.61684 0.53975 0.58748 0.0
C289 C 0.58534 0.54586 0.57096 0.0
C290 C 0.60444 0.4936 0.55722 0.0
C291 C 0.62903 0.50683 0.57872 0.0
C292 C 0.56024 0.52323 0.44518 0.0
O293 O 0.58395 0.50008 0.46205 0.0
H294 H 0.56844 0.57015 0.57187 0.0
H295 H 0.60637 0.46789 0.54603 0.0
O296 O 0.50369 0.54633 0.56606 0.0
H297 H 0.52041 0.39437 0.5356 0.0
H298 H 0.65371 0.49307 0.58774 0.0
Cu299 Cu 0.9782 0.56197 0.05094 0.0
N300 N 0.98544 0.60693 0.0385 0.0
N301 N 1.00795 0.65011 1.00817 0.0
C302 C 1.00725 0.61625 0.00831 0.0
C303 C 0.98556 0.66254 0.03941 0.0
C304 C 0.97168 0.63597 0.05785 0.0
O305 O 0.98796 0.53797 0.99702 0.0
C306 C 1.00305 0.5585 0.13342 0.0
O307 O 0.98085 0.58685 0.13497 0.0
H308 H 0.02288 0.59837 0.98749 0.0
H309 H 0.9531 0.63769 0.08387 0.0
N310 N 0.9333 0.55929 0.06957 0.0
N311 N 0.88973 0.53791 0.10083 0.0
C312 C 0.92359 0.53272 0.09148 0.0
C313 C 0.90466 0.58223 0.06489 0.0
C314 C 0.87781 0.56915 0.08397 0.0
C315 C 0.96939 0.55011 0.96568 0.0
O316 O 0.94429 0.57541 0.97296 0.0
H317 H 0.94112 0.5098 0.09981 0.0
H318 H 0.9034 0.60669 0.04864 0.0
O319 O 1.00733 0.54258 0.09821 0.0
H320 H 0.97943 0.68901 0.04816 0.0
H321 H 0.85161 0.58189 0.08557 0.0
Cu322 Cu 0.57479 0.55795 1.00709 0.0
N323 N 0.54009 0.55887 0.9673 0.0
N324 N 0.51255 0.56328 0.90513 0.0
C325 C 0.54169 0.56626 0.92495 0.0
C326 C 0.49196 0.55365 0.93647 0.0
C327 C 0.50894 0.55096 0.97456 0.0
O328 O 0.61849 0.53735 0.97965 0.0
C329 C 0.54227 0.61435 0.04992 0.0
O330 O 0.51799 0.59609 0.04741 0.0
H331 H 0.56395 0.57341 0.90914 0.0
H332 H 0.49931 0.54333 1.00535 0.0
N333 N 0.56716 0.53047 0.05463 0.0
N334 N 0.56104 0.51738 0.12418 0.0
C335 C 0.57357 0.53788 0.0951 0.0
C336 C 0.55053 0.5038 0.05801 0.0
C337 C 0.54662 0.49572 0.10098 0.0
C338 C 0.61828 0.50809 0.96386 0.0
O339 O 0.58975 0.49579 0.96669 0.0
H340 H 0.58547 0.55929 0.10305 0.0
H341 H 0.54068 0.49198 0.03134 0.0
O342 O 0.57113 0.6035 0.03191 0.0
H343 H 0.46675 0.54786 0.93216 0.0
H344 H 0.53357 0.47594 0.11407 0.0
Cu345 Cu 0.03874 0.45078 0.54411 0.0
N346 N 0.0646 0.46334 0.49727 0.0
N347 N 0.07608 0.47811 0.42931 0.0
C348 C 0.05374 0.46625 0.45654 0.0
C349 C 0.1022 0.48276 0.45399 0.0
C350 C 0.09511 0.47347 0.49587 0.0
O351 O 0.99264 0.45635 0.52008 0.0
C352 C 0.08392 0.40231 0.5912 0.0
O353 O 0.09442 0.43025 0.60232 0.0
H354 H 0.02921 0.461 0.44735 0.0
H355 H 0.11068 0.47481 0.52347 0.0
N356 N 0.0388 0.48083 0.58968 0.0
N357 N 0.0318 0.5031 0.65517 0.0
C358 C 0.02786 0.47669 0.6305 0.0
C359 C 0.05014 0.51077 0.58856 0.0
C360 C 0.04574 0.52459 0.62876 0.0
C361 C 0.97391 0.48582 0.5206 0.0
O362 O 0.98312 0.50936 0.54412 0.0
H363 H 0.01699 0.45487 0.64172 0.0
H364 H 0.06073 0.52185 0.5604 0.0
O365 O 0.05944 0.4046 0.56488 0.0
H366 H 0.12466 0.49247 0.44271 0.0
H367 H 0.05267 0.54846 0.63792 0.0
H368 H 1.00838 0.97786 0.17329 0.0
H369 H 0.11368 0.99094 0.16394 0.0
H370 H 1.01037 0.97952 0.25123 0.0
H371 H 0.11571 0.99217 0.24193 0.0
H372 H 0.08861 0.04528 0.37082 0.0
H373 H 0.09034 0.03446 0.29452 0.0
H374 H 0.03487 0.95148 0.3175 0.0
H375 H 0.03344 0.96197 0.39424 0.0
C376 C 0.03219 0.98034 0.18784 0.0
C377 C 0.06079 0.98459 0.16224 0.0
C378 C 0.03333 0.98122 0.2326 0.0
C379 C 0.06305 0.98648 0.2528 0.0
C380 C 0.09222 0.98873 0.22731 0.0
C381 C 0.09113 0.98771 0.18257 0.0
C382 C 0.07714 0.02441 0.35993 0.0
C383 C 0.06095 1.0045 0.38909 0.0
C384 C 0.0782 0.01816 0.316 0.0
C385 C 0.06296 0.99193 0.29987 0.0
C386 C 0.04666 0.97204 0.32885 0.0
C387 C 0.04574 0.97818 0.37291 0.0
H388 H 0.35514 0.79016 0.46146 0.0
H389 H 0.29472 0.71114 0.44721 0.0
H390 H 0.33499 0.79716 0.53587 0.0
H391 H 0.2752 0.71768 0.52163 0.0
H392 H 0.21047 0.7785 0.62894 0.0
H393 H 0.2367 0.763 0.55942 0.0
H394 H 0.33546 0.76895 0.60925 0.0
H395 H 0.30894 0.78457 0.67949 0.0
C396 C 0.33782 0.77406 0.47422 0.0
C397 C 0.32644 0.75023 0.44802 0.0
C398 C 0.32654 0.77784 0.51707 0.0
C399 C 0.30336 0.75807 0.53474 0.0
C400 C 0.29282 0.73353 0.50896 0.0
C401 C 0.30429 0.72957 0.46628 0.0
C402 C 0.23786 0.77602 0.62537 0.0
C403 C 0.2576 0.78275 0.65982 0.0
C404 C 0.25294 0.76697 0.58547 0.0
C405 C 0.28821 0.76476 0.57863 0.0
C406 C 0.30819 0.77065 0.61338 0.0
C407 C 0.29307 0.77927 0.6537 0.0
H408 H 0.53626 0.0458 0.8985 0.0
H409 H 0.59928 0.95878 0.8421 0.0
H410 H 0.52012 0.06846 0.82731 0.0
H411 H 0.58208 0.98036 0.77074 0.0
H412 H 0.56428 0.04002 0.64357 0.0
H413 H 0.58461 0.01941 0.71447 0.0
H414 H 0.48676 0.06197 0.77034 0.0
H415 H 0.46753 0.08388 0.70043 0.0
C416 C 0.54652 0.03142 0.87079 0.0
C417 C 0.56909 1.00053 0.87609 0.0
C418 C 0.53708 0.04424 0.82975 0.0
C419 C 0.54939 0.02622 0.79263 0.0
C420 C 0.57235 0.99543 0.7981 0.0
C421 C 0.58222 0.9829 0.83919 0.0
C422 C 0.54728 0.04503 0.67114 0.0
C423 C 0.5144 0.06387 0.66627 0.0
C424 C 0.55882 0.03303 0.71192 0.0
C425 C 0.53756 0.03909 0.74881 0.0
C426 C 0.50445 0.05747 0.7434 0.0
C427 C 0.49321 0.06989 0.70295 0.0
H428 H 0.29063 0.1883 0.92592 0.0
H429 H 0.37509 0.24339 0.91929 0.0
H430 H 0.29349 0.1857 1.00352 0.0
H431 H 0.37762 0.24104 0.99745 0.0
H432 H 0.34137 0.2628 0.13951 0.0
H433 H 0.34488 0.26359 0.06129 0.0
H434 H 0.3295 0.15896 0.0612 0.0
H435 H 0.32554 0.15825 0.13934 0.0
C436 C 0.31008 0.19961 0.94078 0.0
C437 C 0.33276 0.21589 0.9158 0.0
C438 C 0.31173 0.19806 0.98555 0.0
C439 C 0.33598 0.21288 1.0069 0.0
C440 C 0.35845 0.22953 0.98213 0.0
C441 C 0.35693 0.23095 0.93719 0.0
C442 C 0.33921 0.23978 0.12288 0.0
C443 C 0.33295 0.21051 0.14589 0.0
C444 C 0.34131 0.24023 0.07794 0.0
C445 C 0.33707 0.21147 0.0548 0.0
C446 C 0.33225 0.18178 0.0779 0.0
C447 C 0.33028 0.18128 0.12281 0.0
H448 H 0.06932 0.05263 0.70237 0.0
H449 H 0.12721 0.95127 0.71806 0.0
H450 H 0.06383 0.05764 0.77955 0.0
H451 H 0.12152 0.9563 0.79612 0.0
H452 H 0.08267 0.07311 0.91553 0.0
H453 H 0.09894 0.06286 0.84076 0.0
H454 H 0.07684 0.96068 0.85441 0.0
H455 H 0.06113 0.97079 0.93 0.0
C456 C 0.08131 0.03153 0.72226 0.0
C457 C 0.09894 1.00166 0.70385 0.0
C458 C 0.07817 0.03442 0.76667 0.0
C459 C 0.09259 1.00753 0.79408 0.0
C460 C 0.11 0.97742 0.77586 0.0
C461 C 0.11319 0.97453 0.73117 0.0
C462 C 0.08186 0.04823 0.90285 0.0
C463 C 0.07023 0.0229 0.9285 0.0
C464 C 0.09099 0.04242 0.8599 0.0
C465 C 0.08844 1.01123 0.84136 0.0
C466 C 0.07909 0.98499 0.86774 0.0
C467 C 0.0701 0.99077 0.91103 0.0
H468 H 0.83729 0.26029 0.39377 0.0
H469 H 0.73352 0.24312 0.40596 0.0
H470 H 0.84129 0.25936 0.47187 0.0
H471 H 0.73746 0.2419 0.48388 0.0
H472 H 0.84052 0.23911 0.61709 0.0
H473 H 0.83962 0.22685 0.54092 0.0
H474 H 0.73997 0.2889 0.53225 0.0
H475 H 0.74093 0.30143 0.60778 0.0
C476 C 0.81571 0.25532 0.41316 0.0
C477 C 0.78492 0.25234 0.39396 0.0
C478 C 0.81795 0.25482 0.45785 0.0
C479 C 0.78946 0.2512 0.48394 0.0
C480 C 0.75957 0.24555 0.46458 0.0
C481 C 0.75732 0.24616 0.42006 0.0
C482 C 0.81846 0.25021 0.59893 0.0
C483 C 0.79079 0.27134 0.61868 0.0
C484 C 0.81793 0.24306 0.55534 0.0
C485 C 0.78965 0.25671 0.53071 0.0
C486 C 0.76185 0.27738 0.55058 0.0
C487 C 0.76241 0.28462 0.59398 0.0
H488 H 0.58032 0.02863 0.20061 0.0
H489 H 0.48821 0.98629 0.19392 0.0
H490 H 0.57301 0.03267 0.27807 0.0
H491 H 0.47959 0.99178 0.27136 0.0
H492 H 0.48319 0.98236 0.41595 0.0
H493 H 0.4955 0.97282 0.33987 0.0
H494 H 0.54268 0.06284 0.33225 0.0
H495 H 0.532 0.07106 0.40852 0.0
C496 C 0.55821 0.02056 0.21576 0.0
C497 C 0.53473 1.00733 0.19108 0.0
C498 C 0.55386 0.02299 0.26034 0.0
C499 C 0.52549 1.01285 0.28162 0.0
C500 C 0.5021 0.99936 0.25671 0.0
C501 C 0.50685 0.99636 0.21213 0.0
C502 C 0.49664 0.9998 0.39807 0.0
C503 C 0.50672 0.02737 0.41851 0.0
C504 C 0.50341 0.99458 0.35416 0.0
C505 C 0.51995 0.01713 0.32919 0.0
C506 C 0.53048 0.04442 0.35005 0.0
C507 C 0.52422 0.04928 0.39405 0.0
H508 H 0.91169 0.69714 0.08453 0.0
H509 H 0.82216 0.64938 0.09121 0.0
H510 H 0.91077 0.69694 1.0069 0.0
H511 H 0.8197 0.65163 0.01369 0.0
H512 H 0.82957 0.64212 0.8718 0.0
H513 H 0.84255 0.63129 0.94744 0.0
H514 H 0.88 0.72676 0.95128 0.0
H515 H 0.8686 0.73661 0.87563 0.0
C516 C 0.89184 0.68643 0.06969 0.0
C517 C 0.86693 0.67337 0.09471 0.0
C518 C 0.89106 0.68674 0.02486 0.0
C519 C 0.86497 0.67459 1.00362 0.0
C520 C 0.84047 0.66088 0.02859 0.0
C521 C 0.84154 0.66013 0.07341 0.0
C522 C 0.84123 0.66042 0.88865 0.0
C523 C 0.84779 0.69034 0.86766 0.0
C524 C 0.84837 0.65439 0.9322 0.0
C525 C 0.86183 0.67838 0.95598 0.0
C526 C 0.87 0.70743 0.93425 0.0
C527 C 0.86329 0.71321 0.89066 0.0
H528 H 0.44653 0.5155 0.66106 0.0
H529 H 0.51632 0.58403 0.62624 0.0
H530 H 0.4497 0.52979 0.73616 0.0
H531 H 0.51949 0.59824 0.70146 0.0
H532 H 0.55843 0.56109 0.83862 0.0
H533 H 0.54663 0.56239 0.76248 0.0
H534 H 0.43894 0.57456 0.79157 0.0
H535 H 0.45053 0.57401 0.86788 0.0
C536 C 0.46179 0.53433 0.66927 0.0
C537 C 0.48139 0.54834 0.63767 0.0
C538 C 0.46359 0.54256 0.71234 0.0
C539 C 0.48524 0.56477 0.7248 0.0
C540 C 0.50296 0.58067 0.69287 0.0
C541 C 0.50086 0.57274 0.6497 0.0
C542 C 0.53217 0.56478 0.82903 0.0
C543 C 0.50551 0.567 0.8598 0.0
C544 C 0.5254 0.56558 0.7852 0.0
C545 C 0.49184 0.56844 0.77099 0.0
C546 C 0.4651 0.5719 0.80155 0.0
C547 C 0.47182 0.57138 0.84537 0.0
H548 H 0.86281 0.2506 0.93462 0.0
H549 H 0.7962 0.18253 0.89627 0.0
H550 H 0.83907 0.25045 1.00698 0.0
H551 H 0.77355 0.18091 0.96936 0.0
H552 H 0.70305 0.24305 0.07166 0.0
H553 H 0.7352 0.22289 1.00768 0.0
H554 H 0.82914 0.22304 0.07366 0.0
H555 H 0.79702 0.24517 0.13683 0.0
C556 C 0.84367 0.23493 0.94194 0.0
C557 C 0.83086 0.21727 0.90944 0.0
C558 C 0.8303 0.23446 0.98363 0.0
C559 C 0.80396 0.21605 0.9939 0.0
C560 C 0.79334 0.19589 0.96229 0.0
C561 C 0.80663 0.19651 0.92045 0.0
C562 C 0.73054 0.23865 0.07269 0.0
C563 C 0.74728 0.24671 0.10918 0.0
C564 C 0.74907 0.2265 0.03611 0.0
C565 C 0.78483 0.22178 0.03528 0.0
C566 C 0.80161 0.22706 0.07296 0.0
C567 C 0.78307 0.23949 0.10944 0.0
H568 H 0.03117 0.49223 0.15458 0.0
H569 H 1.0134 0.59428 0.20319 0.0
H570 H 0.05348 0.47034 0.22449 0.0
H571 H 0.03562 0.57263 0.27232 0.0
H572 H 0.10082 0.52743 0.38287 0.0
H573 H 0.0886 0.54475 0.30836 0.0
H574 H 0.02747 0.46582 0.29899 0.0
H575 H 0.04005 0.44823 0.3733 0.0
C576 C 0.03257 0.51001 0.17987 0.0
C577 C 0.02047 0.54497 0.17336 0.0
C578 C 0.0451 0.49748 0.21996 0.0
C579 C 0.04632 0.51975 0.25401 0.0
C580 C 0.0354 0.5548 0.24676 0.0
C581 C 0.02248 0.56719 0.20711 0.0
C582 C 0.08527 0.51339 0.36474 0.0
C583 C 0.07124 0.48657 0.38424 0.0
C584 C 0.07806 0.52347 0.3221 0.0
C585 C 0.05696 0.50674 0.29774 0.0
C586 C 0.04402 0.47908 0.3167 0.0
C587 C 0.05094 0.46923 0.35946 0.0
H588 H 0.85932 0.77351 0.63182 0.0
H589 H 0.84896 0.66748 0.63063 0.0
H590 H 0.86259 0.77499 0.55371 0.0
H591 H 0.8506 0.66922 0.55265 0.0
H592 H 0.87477 0.67456 0.41088 0.0
H593 H 0.8814 0.67264 0.48845 0.0
H594 H 0.82714 0.77606 0.49507 0.0
H595 H 0.82175 0.77811 0.4175 0.0
C596 C 0.85793 0.75044 0.61486 0.0
C597 C 0.85385 0.7204 0.63753 0.0
C598 C 0.85946 0.75134 0.56995 0.0
C599 C 0.85644 0.72235 0.54643 0.0
C600 C 0.85348 0.692 0.56932 0.0
C601 C 0.85242 0.69099 0.61424 0.0
C602 C 0.86442 0.69689 0.429 0.0
C603 C 0.84772 0.72647 0.40801 0.0
C604 C 0.86808 0.69579 0.47358 0.0
C605 C 0.85472 0.72414 0.49849 0.0
C606 C 0.83842 0.7539 0.47721 0.0
C607 C 0.83517 0.7551 0.43259 0.0
H608 H 0.51376 0.50051 0.18123 0.0
H609 H 0.60692 0.542 0.17153 0.0
H610 H 0.51284 0.50664 0.259 0.0
H611 H 0.60555 0.5489 0.24897 0.0
H612 H 0.61396 0.50862 0.38982 0.0
H613 H 0.61335 0.50986 0.31186 0.0
H614 H 0.50595 0.55115 0.31559 0.0
H615 H 0.50652 0.5497 0.3942 0.0
C616 C 0.53408 0.51083 0.19566 0.0
C617 C 0.56054 0.52054 0.17017 0.0
C618 C 0.53328 0.51482 0.24014 0.0
C619 C 0.55907 0.52835 0.2601 0.0
C620 C 0.5854 0.53822 0.23457 0.0
C621 C 0.58609 0.53443 0.19016 0.0
C622 C 0.59028 0.51843 0.37407 0.0
C623 C 0.56027 0.52899 0.39815 0.0
C624 C 0.58997 0.51926 0.32935 0.0
C625 C 0.55957 0.53042 0.30756 0.0
C626 C 0.5297 0.54208 0.33156 0.0
C627 C 0.53008 0.54157 0.37649 0.0
H628 H 0.23212 0.79417 0.14237 0.0
H629 H 0.33966 0.79066 0.11783 0.0
H630 H 0.22157 0.80317 0.0661 0.0
H631 H 0.32893 0.8005 0.04119 0.0
H632 H 0.29432 0.78578 0.90038 0.0
H633 H 0.30869 0.77372 0.97604 0.0
H634 H 0.22386 0.85017 0.01429 0.0
H635 H 0.20952 0.86202 0.93977 0.0
C636 C 0.25358 0.7951 0.12073 0.0
C637 C 0.28672 0.79183 0.13645 0.0
C638 C 0.24749 0.80059 0.07694 0.0
C639 C 0.27438 0.80284 0.0475 0.0
C640 C 0.30767 0.79878 0.06296 0.0
C641 C 0.31376 0.79351 0.10696 0.0
C642 C 0.27893 0.80009 0.925 0.0
C643 C 0.25066 0.82474 0.91387 0.0
C644 C 0.28719 0.79325 0.96831 0.0
C645 C 0.26716 0.81071 1.00126 0.0
C646 C 0.23944 0.83577 0.98987 0.0
C647 C 0.23136 0.84271 0.94692 0.0
H648 H 0.02188 0.50146 0.9355 0.0
H649 H 0.9352 0.5743 0.89385 0.0
H650 H 0.0369 0.48805 0.86032 0.0
H651 H 0.95013 0.56093 0.8196 0.0
H652 H 1.01178 0.56296 0.69473 0.0
H653 H 0.99694 0.57161 0.77029 0.0
H654 H 0.01592 0.46285 0.79365 0.0
H655 H 0.03132 0.45419 0.7176 0.0
C656 C 1.00586 0.51433 0.91048 0.0
C657 C 0.97746 0.53912 0.92083 0.0
C658 C 1.01441 0.50659 0.86744 0.0
C659 C 0.99492 0.52372 0.83394 0.0
C660 C 0.96603 0.5477 0.84452 0.0
C661 C 0.95738 0.55522 0.88727 0.0
C662 C 1.01304 0.54086 0.71593 0.0
C663 C 0.02273 0.50789 0.70003 0.0
C664 C 1.00422 0.5458 0.75924 0.0
C665 C 1.00507 0.51791 0.78802 0.0
C666 C 1.01514 0.48487 0.77235 0.0
C667 C 0.02364 0.4799 0.72874 0.0
H668 H 0.29197 0.19509 0.3861 0.0
H669 H 0.40107 0.18513 0.37003 0.0
H670 H 0.29852 0.18093 0.4619 0.0
H671 H 0.40778 0.1697 0.44599 0.0
H672 H 0.40105 0.19427 0.59045 0.0
H673 H 0.39879 0.19776 0.51264 0.0
H674 H 0.31633 0.14002 0.51652 0.0
H675 H 0.31868 0.13666 0.59455 0.0
C676 C 0.31747 0.18913 0.39851 0.0
C677 C 0.34597 0.19157 0.37184 0.0
C678 C 0.32126 0.18079 0.44217 0.0
C679 C 0.35369 0.17442 0.46047 0.0
C680 C 0.38235 0.17512 0.43332 0.0
C681 C 0.37853 0.18366 0.38959 0.0
C682 C 0.38284 0.18178 0.57473 0.0
C683 C 0.35987 0.16541 0.59894 0.0
C684 C 0.38154 0.18374 0.52991 0.0
C685 C 0.3572 0.16938 0.50797 0.0
C686 C 0.33493 0.15207 0.53219 0.0
C687 C 0.33628 0.15008 0.57703 0.0
H688 H 0.02517 0.16342 0.14478 0.0
H689 H 0.10945 0.10179 0.07917 0.0
H690 H 0.06457 0.19419 0.17911 0.0
H691 H 0.14887 0.13276 0.11308 0.0
H692 H 0.21301 0.17035 0.21528 0.0
H693 H 0.1735 0.1402 0.18023 0.0
H694 H 0.10215 0.23425 0.16723 0.0
H695 H 0.14158 0.26429 0.20272 0.0
C696 C 0.05206 0.15665 0.13722 0.0
C697 C 0.06399 0.12995 0.10916 0.0
C698 C 0.07476 0.17438 0.15696 0.0
C699 C 0.11011 0.16604 0.14912 0.0
C700 C 0.12197 0.13957 0.12067 0.0
C701 C 0.09928 0.12177 0.10107 0.0
C702 C 0.18905 0.18471 0.20467 0.0
C703 C 0.18064 0.21988 0.21198 0.0
C704 C 0.16629 0.16737 0.18443 0.0
C705 C 0.13446 0.18466 0.17069 0.0
C706 C 0.12611 0.21985 0.17791 0.0
C707 C 0.14882 0.23718 0.1983 0.0
H708 H 0.17844 0.02166 0.4382 0.0
H709 H 0.23174 0.97275 0.54812 0.0
H710 H 0.21655 0.98398 0.39072 0.0
H711 H 0.26955 0.93525 0.50065 0.0
H712 H 0.27801 0.8423 0.41015 0.0
H713 H 0.25344 0.88818 0.45714 0.0
H714 H 0.27868 0.96211 0.36345 0.0
H715 H 0.30417 0.91542 0.31616 0.0
C716 C 0.19879 1.00355 0.45224 0.0
C717 C 0.20163 1.00001 0.49714 0.0
C718 C 0.22071 0.98199 0.42494 0.0
C719 C 0.2458 0.95631 0.44193 0.0
C720 C 0.25018 0.95447 0.48658 0.0
C721 C 0.2285 0.97609 0.51381 0.0
C722 C 0.2788 0.86833 0.39976 0.0
C723 C 0.29293 0.87532 0.35948 0.0
C724 C 0.2649 0.89465 0.42684 0.0
C725 C 0.26413 0.92885 0.41415 0.0
C726 C 0.27889 0.93599 0.37409 0.0
C727 C 0.29362 0.90937 0.34718 0.0
H728 H 0.28632 0.8984 0.65948 0.0
H729 H 0.26397 0.97636 0.75418 0.0
H730 H 0.32179 0.93324 0.61898 0.0
H731 H 0.2998 1.01105 0.71408 0.0
H732 H 0.39931 0.04177 0.65255 0.0
H733 H 0.36321 1.00776 0.6935 0.0
H734 H 0.31315 0.99029 0.57713 0.0
H735 H 0.34895 0.02455 0.53644 0.0
C736 C 0.28913 0.92291 0.67173 0.0
C737 C 0.27228 0.93461 0.71002 0.0
C738 C 0.30926 0.94297 0.64842 0.0
C739 C 0.31366 0.97495 0.66328 0.0
C740 C 0.2971 0.98649 0.70184 0.0
C741 C 0.27639 0.96673 0.72466 0.0
C742 C 0.38062 0.0306 0.63578 0.0
C743 C 0.37704 0.03583 0.59123 0.0
C744 C 0.3598 1.01131 0.65924 0.0
C745 C 0.33535 0.99618 0.63857 0.0
C746 C 0.33188 1.00135 0.59399 0.0
C747 C 0.35222 0.02119 0.57071 0.0
H748 H 0.3278 0.11376 0.86878 0.0
H749 H 0.36754 0.03872 0.7752 0.0
H750 H 0.35869 0.0791 0.92457 0.0
H751 H 0.39679 1.00243 0.83157 0.0
H752 H 0.4818 0.96934 0.92835 0.0
H753 H 0.44355 0.99582 0.87314 0.0
H754 H 0.36923 0.03433 0.97115 0.0
H755 H 0.40898 1.00997 0.02617 0.0
C756 C 0.34227 0.08925 0.86031 0.0
C757 C 0.34525 0.0792 0.81734 0.0
C758 C 0.36009 0.06904 0.89259 0.0
C759 C 0.38092 0.03766 0.88317 0.0
C760 C 0.38202 0.0267 0.84041 0.0
C761 C 0.36479 0.04734 0.80795 0.0
C762 C 0.45703 0.98297 0.93805 0.0
C763 C 0.44854 0.98764 0.98174 0.0
C764 C 0.43481 0.99821 0.9062 0.0
C765 C 0.40299 0.01793 0.91707 0.0
C766 C 0.39372 0.02046 0.96099 0.0
C767 C 0.41636 1.00601 0.99279 0.0
H768 H 0.95062 0.97804 0.91424 0.0
H769 H 0.88264 0.95894 0.01838 0.0
H770 H 0.92401 0.94179 0.868 0.0
H771 H 0.85604 0.92287 0.97229 0.0
H772 H 0.8441 0.8306 0.88981 0.0
H773 H 0.87134 0.86651 0.93567 0.0
H774 H 0.86721 0.94219 0.83351 0.0
H775 H 0.84008 0.90626 0.7877 0.0
C776 C 0.93007 0.96606 0.92729 0.0
C777 C 0.91873 0.97154 0.97001 0.0
C778 C 0.91465 0.94547 0.90072 0.0
C779 C 0.88787 0.92938 0.91642 0.0
C780 C 0.87674 0.93465 0.95924 0.0
C781 C 0.89179 0.95562 0.98556 0.0
C782 C 0.84912 0.85483 0.8771 0.0
C783 C 0.83979 0.86554 0.83507 0.0
C784 C 0.86452 0.87554 0.90348 0.0
C785 C 0.87149 0.90727 0.8883 0.0
C786 C 0.86244 0.91783 0.84614 0.0
C787 C 0.84658 0.89736 0.82 0.0
H788 H 0.97156 0.22381 0.7698 0.0
H789 H 0.91395 0.27441 0.66422 0.0
H790 H 1.00861 0.18832 0.71961 0.0
H791 H 0.95152 0.23926 0.6138 0.0
H792 H 0.98777 0.13468 0.5507 0.0
H793 H 0.95858 0.18043 0.59469 0.0
H794 H 0.05142 0.18204 0.66235 0.0
H795 H 0.08072 0.13546 0.61827 0.0
C796 C 0.96723 0.22798 0.73579 0.0
C797 C 0.93945 0.2519 0.72126 0.0
C798 C 0.98869 0.20762 0.70686 0.0
C799 C 0.98298 0.21049 0.66247 0.0
C800 C 0.95641 0.23584 0.64776 0.0
C801 C 0.93499 0.25629 0.67673 0.0
C802 C 1.00222 0.14506 0.5745 0.0
C803 C 0.03664 0.13119 0.58095 0.0
C804 C 0.98544 0.1716 0.59966 0.0
C805 C 1.00246 0.18509 0.63237 0.0
C806 C 0.03732 0.17212 0.6378 0.0
C807 C 0.05426 0.1456 0.61226 0.0
H808 H 0.65244 0.30167 0.37507 0.0
H809 H 0.62383 0.24331 0.2718 0.0
H810 H 0.61376 0.27656 0.42416 0.0
H811 H 0.58477 0.21923 0.31971 0.0
H812 H 0.55645 0.14663 0.42183 0.0
H813 H 0.59051 0.17762 0.37538 0.0
H814 H 0.55633 0.26903 0.4465 0.0
H815 H 0.52313 0.23738 0.49469 0.0
C816 C 0.6371 0.28436 0.36257 0.0
C817 C 0.64123 0.27445 0.31956 0.0
C818 C 0.61502 0.26978 0.39071 0.0
C819 C 0.59655 0.24512 0.37631 0.0
C820 C 0.59922 0.2372 0.33253 0.0
C821 C 0.62137 0.25138 0.3048 0.0
C822 C 0.55627 0.17319 0.42818 0.0
C823 C 0.53677 0.18919 0.46248 0.0
C824 C 0.5756 0.19127 0.4009 0.0
C825 C 0.57605 0.22616 0.40657 0.0
C826 C 0.55682 0.24223 0.44106 0.0
C827 C 0.53742 0.22405 0.46854 0.0
H828 H 0.76025 0.74992 0.12557 0.0
H829 H 0.70729 0.74838 0.24763 0.0
H830 H 0.71161 0.788 0.09559 0.0
H831 H 0.65845 0.78741 0.21773 0.0
H832 H 0.61686 0.89941 0.16243 0.0
H833 H 0.65395 0.85009 0.19308 0.0
H834 H 0.64824 0.79537 0.07673 0.0
H835 H 0.61019 0.84495 0.04618 0.0
C836 C 0.73783 0.75722 0.14578 0.0
C837 C 0.73761 0.74611 0.18898 0.0
C838 C 0.70986 0.77896 0.1285 0.0
C839 C 0.68109 0.7909 0.1542 0.0
C840 C 0.68026 0.77873 0.19707 0.0
C841 C 0.70809 0.75622 0.21416 0.0
C842 C 0.62293 0.87662 0.14363 0.0
C843 C 0.61062 0.87615 0.10179 0.0
C844 C 0.64406 0.84823 0.16136 0.0
C845 C 0.65417 0.81871 0.13744 0.0
C846 C 0.64097 0.81774 0.09601 0.0
C847 C 0.61906 0.84603 0.07856 0.0
H848 H 0.6849 0.53907 0.59325 0.0
H849 H 0.58697 0.59473 0.63258 0.0
H850 H 0.71297 0.57971 0.62985 0.0
H851 H 0.61491 0.63588 0.66797 0.0
H852 H 0.67704 0.68333 0.76434 0.0
H853 H 0.64935 0.64196 0.72914 0.0
H854 H 0.72206 0.63843 0.62379 0.0
H855 H 0.74971 0.67992 0.65881 0.0
C856 C 0.66932 0.55988 0.60976 0.0
C857 C 0.6336 0.56356 0.6097 0.0
C858 C 0.68543 0.58346 0.6304 0.0
C859 C 0.66628 0.61128 0.65183 0.0
C860 C 0.63057 0.6147 0.65216 0.0
C861 C 0.61448 0.59124 0.63137 0.0
C862 C 0.68703 0.67409 0.7335 0.0
C863 C 0.71579 0.68523 0.71466 0.0
C864 C 0.67108 0.65023 0.71325 0.0
C865 C 0.68341 0.63668 0.67354 0.0
C866 C 0.71213 0.6478 0.65465 0.0
C867 C 0.72804 0.67173 0.67484 0.0
H868 H 0.68263 0.52401 0.94412 0.0
H869 H 0.62344 0.44309 0.9379 0.0
H870 H 0.73201 0.48597 0.91243 0.0
H871 H 0.67179 0.40606 0.90716 0.0
H872 H 0.76824 0.33383 0.90406 0.0
H873 H 0.72874 0.37891 0.93821 0.0
H874 H 0.74972 0.45012 0.83867 0.0
H875 H 0.79011 0.40433 0.80407 0.0
C876 C 0.68006 0.49832 0.93607 0.0
C877 C 0.64895 0.4867 0.94397 0.0
C878 C 0.70826 0.47663 0.91776 0.0
C879 C 0.70597 0.44281 0.90772 0.0
C880 C 0.67472 0.43169 0.91508 0.0
C881 C 0.6468 0.45318 0.9327 0.0
C882 C 0.7651 0.35923 0.88975 0.0
C883 C 0.7821 0.36533 0.85103 0.0
C884 C 0.74233 0.3851 0.90935 0.0
C885 C 0.73554 0.41801 0.89082 0.0
C886 C 0.75441 0.42503 0.85378 0.0
C887 C 0.77756 0.39885 0.83401 0.0
H888 H 0.829 0.35237 0.19076 0.0
H889 H 0.73937 0.42444 0.22492 0.0
H890 H 0.8574 0.39834 0.16575 0.0
H891 H 0.7685 0.47141 0.19975 0.0
H892 H 0.82154 0.53671 0.09692 0.0
H893 H 0.79011 0.49542 0.1313 0.0
H894 H 0.88234 0.44502 0.19065 0.0
H895 H 0.91366 0.48611 0.15653 0.0
C896 C 0.81531 0.37818 0.19331 0.0
C897 C 0.78171 0.38453 0.20989 0.0
C898 C 0.83187 0.40472 0.17915 0.0
C899 C 0.81549 0.43879 0.1808 0.0
C900 C 0.78189 0.44546 0.19779 0.0
C901 C 0.76525 0.4186 0.21252 0.0
C902 C 0.83511 0.51712 0.11771 0.0
C903 C 0.87047 0.51467 0.12322 0.0
C904 C 0.81696 0.49342 0.1376 0.0
C905 C 0.83363 0.46654 0.1635 0.0
C906 C 0.86867 0.46489 0.17025 0.0
C907 C 0.88677 0.48851 0.15046 0.0
H908 H 0.96135 0.45489 0.4457 0.0
H909 H 0.92505 0.54233 0.52307 0.0
H910 H 0.92377 0.47987 0.38809 0.0
H911 H 0.88875 0.56771 0.46565 0.0
H912 H 0.81739 0.60773 0.36225 0.0
H913 H 0.84174 0.57068 0.42126 0.0
H914 H 0.92292 0.52435 0.3365 0.0
H915 H 0.8979 0.5602 0.27761 0.0
C916 C 0.94483 0.47904 0.45084 0.0
C917 C 0.94642 0.49661 0.48904 0.0
C918 C 0.92354 0.49366 0.41756 0.0
C919 C 0.90329 0.5262 0.42165 0.0
C920 C 0.90346 0.54258 0.46103 0.0
C921 C 0.9246 0.52802 0.49411 0.0
C922 C 0.83993 0.58903 0.35598 0.0
C923 C 0.85572 0.58727 0.31509 0.0
C924 C 0.8542 0.56794 0.39001 0.0
C925 C 0.88476 0.54462 0.38417 0.0
C926 C 0.8993 0.54156 0.34257 0.0
C927 C 0.88497 0.56246 0.30861 0.0
H928 H 0.36574 0.30276 0.39045 0.0
H929 H 0.35483 0.39092 0.30517 0.0
H930 H 0.40455 0.32784 0.43402 0.0
H931 H 0.39352 0.41586 0.34855 0.0
H932 H 0.43614 0.46694 0.45889 0.0
H933 H 0.39733 0.44103 0.4168 0.0
H934 H 0.4609 0.34272 0.43431 0.0
H935 H 0.49981 0.36873 0.47664 0.0
C936 C 0.37172 0.32735 0.38071 0.0
C937 C 0.35685 0.34474 0.34414 0.0
C938 C 0.39408 0.34177 0.40578 0.0
C939 C 0.40223 0.37402 0.39505 0.0
C940 C 0.38744 0.39131 0.35841 0.0
C941 C 0.36513 0.37692 0.3334 0.0
C942 C 0.44213 0.43986 0.45356 0.0
C943 C 0.47141 0.42009 0.47118 0.0
C944 C 0.41976 0.42492 0.4293 0.0
C945 C 0.42591 0.38971 0.42181 0.0
C946 C 0.455 0.36983 0.43977 0.0
C947 C 0.47742 0.3848 0.4641 0.0
H948 H 0.54098 0.6055 0.13551 0.0
H949 H 0.52842 0.68361 0.03635 0.0
H950 H 0.5163 0.64669 0.1882 0.0
H951 H 0.50431 0.72586 0.08954 0.0
H952 H 0.41411 0.77173 0.1808 0.0
H953 H 0.4522 0.7398 0.12834 0.0
H954 H 0.51692 0.69386 0.23057 0.0
H955 H 0.47794 0.72473 0.28302 0.0
C956 C 0.53432 0.63197 0.1254 0.0
C957 C 0.53735 0.64149 0.08202 0.0
C958 C 0.51999 0.65578 0.1557 0.0
C959 C 0.50797 0.68991 0.14348 0.0
C960 C 0.5128 0.69981 0.10024 0.0
C961 C 0.52718 0.67579 0.06979 0.0
C962 C 0.43682 0.75532 0.19206 0.0
C963 C 0.44269 0.75057 0.23628 0.0
C964 C 0.45888 0.737 0.16182 0.0
C965 C 0.48764 0.71365 0.17492 0.0
C966 C 0.49467 0.71082 0.21907 0.0
C967 C 0.4724 0.72878 0.24928 0.0
H968 H 0.15942 0.76567 0.90202 0.0
H969 H 0.08961 0.76313 0.79927 0.0
H970 H 0.1268 0.73121 0.94753 0.0
H971 H 0.05706 0.72865 0.84463 0.0
H972 H 0.02896 0.63737 0.92573 0.0
H973 H 0.0633 0.66991 0.87989 0.0
H974 H 0.06842 0.73836 0.98346 0.0
H975 H 0.03409 0.70592 0.0291 0.0
C976 C 0.13728 0.75754 0.88901 0.0
C977 C 0.12715 0.76725 0.84695 0.0
C978 C 0.11841 0.738 0.91521 0.0
C979 C 0.08923 0.72713 0.89981 0.0
C980 C 0.07948 0.73635 0.85748 0.0
C981 C 0.098 0.75636 0.83157 0.0
C982 C 0.03758 0.65924 0.93876 0.0
C983 C 0.02867 0.66901 0.98113 0.0
C984 C 0.05706 0.67806 0.9124 0.0
C985 C 0.0687 0.70679 0.92794 0.0
C986 C 0.06015 0.71626 0.97049 0.0
C987 C 0.0402 0.69782 0.99658 0.0
H988 H 0.10372 0.38963 0.67314 0.0
H989 H 0.10521 0.34131 0.55093 0.0
H990 H 0.14157 0.34006 0.70214 0.0
H991 H 0.14407 0.29161 0.57979 0.0
H992 H 0.25552 0.24996 0.63303 0.0
H993 H 0.20639 0.2875 0.60336 0.0
H994 H 0.14903 0.27547 0.72023 0.0
H995 H 0.19838 0.23694 0.74973 0.0
C996 C 0.1116 0.368 0.65272 0.0
C997 C 0.1014 0.36935 0.60976 0.0
C998 C 0.13322 0.33951 0.66943 0.0
C999 C 0.14597 0.31183 0.64334 0.0
C1000 C 0.13472 0.31254 0.60074 0.0
C1001 C 0.1123 0.34086 0.58425 0.0
C1002 C 0.23219 0.25472 0.65212 0.0
C1003 C 0.23089 0.24052 0.6938 0.0
C1004 C 0.20394 0.27611 0.63496 0.0
C1005 C 0.17372 0.28457 0.65935 0.0
C1006 C 0.17195 0.26947 0.7006 0.0
C1007 C 0.20011 0.24729 0.71745 0.0
loop_
_geom_bond_atom_site_label_1
_geom_bond_atom_site_label_2
_geom_bond_distance
_geom_bond_site_symmetry_2
_ccdc_geom_bond_type
Cu0 N1 1.999 1_545 S
Cu0 O6 1.974 1_554 S
Cu0 N11 1.985 1_655 S
Cu0 O20 1.959 . S
N1 Cu0 1.999 1_565 S
N1 C3 1.263 1_554 S
N1 C5 1.389 . S
N2 C3 1.358 . S
N2 C4 1.400 1_556 S
C3 N1 1.263 1_556 S
C3 N2 1.358 . S
C3 H9 0.930 . S
C4 N2 1.400 1_554 S
C4 C5 1.351 . S
C4 H21 0.930 . S
C5 N1 1.389 . S
C5 C4 1.351 . S
C5 H10 0.930 1_565 S
O6 Cu0 1.974 1_556 S
O6 C16 1.282 1_655 S
C7 O8 1.261 . S
C7 O20 1.251 1_465 S
O8 C7 1.261 . S
H9 C3 0.930 . S
H10 C5 0.930 1_545 S
N11 Cu0 1.985 1_455 S
N11 C13 1.335 . S
N11 C14 1.382 1_554 S
N12 C13 1.345 . S
N12 C15 1.336 . S
C13 N11 1.335 . S
C13 N12 1.345 . S
C13 H18 0.930 . S
C14 N11 1.382 1_556 S
C14 C15 1.341 1_556 S
C14 H19 0.941 . S
C15 N12 1.336 . S
C15 C14 1.341 1_554 S
C15 H22 0.929 . S
C16 O6 1.282 1_455 S
C16 O17 1.216 1_545 S
O17 C16 1.216 1_565 S
H18 C13 0.930 . S
H19 C14 0.941 . S
O20 Cu0 1.959 . S
O20 C7 1.251 1_645 S
H21 C4 0.930 . S
H22 C15 0.929 . S
Cu23 N24 1.999 . S
Cu23 O29 1.974 . S
Cu23 N34 1.985 . S
Cu23 O43 1.959 . S
N24 Cu23 1.999 . S
N24 C26 1.263 . S
N24 C28 1.389 . S
N25 C26 1.358 . S
N25 C27 1.400 . S
C26 N24 1.263 . S
C26 N25 1.358 . S
C26 H32 0.930 . S
C27 N25 1.400 . S
C27 C28 1.351 . S
C27 H44 0.930 . S
C28 N24 1.389 . S
C28 C27 1.351 . S
C28 H33 0.930 . S
O29 Cu23 1.974 . S
O29 C39 1.282 . S
C30 O31 1.261 . S
C30 O43 1.251 . S
O31 C30 1.261 . S
H32 C26 0.930 . S
H33 C28 0.930 . S
N34 Cu23 1.985 . S
N34 C36 1.335 . S
N34 C37 1.390 . S
N35 C36 1.345 . S
N35 C38 1.336 . S
C36 N34 1.335 . S
C36 N35 1.345 . S
C36 H41 0.930 . S
C37 N34 1.390 . S
C37 C38 1.346 . S
C37 H42 0.930 . S
C38 N35 1.336 . S
C38 C37 1.346 . S
C38 H45 0.929 . S
C39 O29 1.282 . S
C39 O40 1.216 . S
O40 C39 1.216 . S
H41 C36 0.930 . S
H42 C37 0.930 . S
O43 Cu23 1.959 . S
O43 C30 1.251 . S
H44 C27 0.930 . S
H45 C38 0.929 . S
Cu46 N47 1.999 1_565 S
Cu46 O52 1.974 . S
Cu46 N57 1.985 . S
Cu46 O66 1.961 . S
N47 Cu46 1.999 1_545 S
N47 C49 1.263 . S
N47 C51 1.389 . S
N48 C49 1.358 . S
N48 C50 1.400 . S
C49 N47 1.263 . S
C49 N48 1.358 . S
C49 H55 0.930 . S
C50 N48 1.400 . S
C50 C51 1.351 . S
C50 H67 0.930 . S
C51 N47 1.389 . S
C51 C50 1.351 . S
C51 H56 0.930 . S
O52 Cu46 1.974 . S
O52 C62 1.282 1_565 S
C53 O54 1.261 . S
C53 O66 1.241 1_545 S
O54 C53 1.261 . S
H55 C49 0.930 . S
H56 C51 0.930 . S
N57 Cu46 1.985 . S
N57 C59 1.335 . S
N57 C60 1.390 . S
N58 C59 1.345 . S
N58 C61 1.336 . S
C59 N57 1.335 . S
C59 N58 1.345 . S
C59 H64 0.930 . S
C60 N57 1.390 . S
C60 C61 1.346 . S
C60 H65 0.930 . S
C61 N58 1.336 . S
C61 C60 1.346 . S
C61 H68 0.929 . S
C62 O52 1.282 1_545 S
C62 O63 1.216 . S
O63 C62 1.216 . S
H64 C59 0.930 . S
H65 C60 0.930 . S
O66 Cu46 1.961 . S
O66 C53 1.241 1_565 S
H67 C50 0.930 . S
H68 C61 0.929 . S
Cu69 N70 1.999 . S
Cu69 O75 1.974 . S
Cu69 N80 1.985 . S
Cu69 O89 1.959 . S
N70 Cu69 1.999 . S
N70 C72 1.263 . S
N70 C74 1.389 . S
N71 C72 1.358 . S
N71 C73 1.400 . S
C72 N70 1.263 . S
C72 N71 1.358 . S
C72 H78 0.930 . S
C73 N71 1.400 . S
C73 C74 1.351 . S
C73 H90 0.930 . S
C74 N70 1.389 . S
C74 C73 1.351 . S
C74 H79 0.930 . S
O75 Cu69 1.974 . S
O75 C85 1.282 . S
C76 O77 1.261 . S
C76 O89 1.251 . S
O77 C76 1.261 . S
H78 C72 0.930 . S
H79 C74 0.930 . S
N80 Cu69 1.985 . S
N80 C82 1.335 . S
N80 C83 1.390 . S
N81 C82 1.345 . S
N81 C84 1.336 . S
C82 N80 1.335 . S
C82 N81 1.345 . S
C82 H87 0.930 . S
C83 N80 1.390 . S
C83 C84 1.346 . S
C83 H88 0.930 . S
C84 N81 1.336 . S
C84 C83 1.346 . S
C84 H91 0.929 . S
C85 O75 1.282 . S
C85 O86 1.216 . S
O86 C85 1.216 . S
H87 C82 0.930 . S
H88 C83 0.930 . S
O89 Cu69 1.959 . S
O89 C76 1.251 . S
H90 C73 0.930 . S
H91 C84 0.929 . S
Cu92 N93 2.005 . S
Cu92 O98 1.974 1_545 S
Cu92 N103 1.985 1_545 S
Cu92 O112 1.959 1_455 S
N93 Cu92 2.005 . S
N93 C95 1.261 . S
N93 C97 1.385 1_455 S
N94 C95 1.358 1_655 S
N94 C96 1.400 . S
C95 N93 1.261 . S
C95 N94 1.358 1_455 S
C95 H101 0.930 1_545 S
C96 N94 1.400 . S
C96 C97 1.351 . S
C96 H113 0.930 . S
C97 N93 1.385 1_655 S
C97 C96 1.351 . S
C97 H102 0.930 . S
O98 Cu92 1.974 1_565 S
O98 C108 1.282 . S
C99 O100 1.261 . S
C99 O112 1.251 . S
O100 C99 1.261 . S
H101 C95 0.930 1_565 S
H102 C97 0.930 . S
N103 Cu92 1.985 1_565 S
N103 C105 1.335 1_565 S
N103 C106 1.390 . S
N104 C105 1.345 1_565 S
N104 C107 1.336 . S
C105 N103 1.335 1_545 S
C105 N104 1.345 1_545 S
C105 H110 0.930 . S
C106 N103 1.390 . S
C106 C107 1.346 . S
C106 H111 0.930 . S
C107 N104 1.336 . S
C107 C106 1.346 . S
C107 H114 0.929 . S
C108 O98 1.282 . S
C108 O109 1.216 . S
O109 C108 1.216 . S
H110 C105 0.930 . S
H111 C106 0.930 . S
O112 Cu92 1.959 1_655 S
O112 C99 1.251 . S
H113 C96 0.930 . S
H114 C107 0.929 . S
Cu115 N116 1.999 . S
Cu115 O121 1.974 . S
Cu115 N126 1.985 . S
Cu115 O135 1.959 . S
N116 Cu115 1.999 . S
N116 C118 1.263 . S
N116 C120 1.389 . S
N117 C118 1.358 . S
N117 C119 1.400 . S
C118 N116 1.263 . S
C118 N117 1.358 . S
C118 H124 0.930 . S
C119 N117 1.400 . S
C119 C120 1.351 . S
C119 H136 0.930 . S
C120 N116 1.389 . S
C120 C119 1.351 . S
C120 H125 0.930 . S
O121 Cu115 1.974 . S
O121 C131 1.282 . S
C122 O123 1.261 . S
C122 O135 1.251 . S
O123 C122 1.261 . S
H124 C118 0.930 . S
H125 C120 0.930 . S
N126 Cu115 1.985 . S
N126 C128 1.335 . S
N126 C129 1.390 . S
N127 C128 1.345 . S
N127 C130 1.336 . S
C128 N126 1.335 . S
C128 N127 1.345 . S
C128 H133 0.930 . S
C129 N126 1.390 . S
C129 C130 1.346 . S
C129 H134 0.930 . S
C130 N127 1.336 . S
C130 C129 1.346 . S
C130 H137 0.929 . S
C131 O121 1.282 . S
C131 O132 1.216 . S
O132 C131 1.216 . S
H133 C128 0.930 . S
H134 C129 0.930 . S
O135 Cu115 1.959 . S
O135 C122 1.251 . S
H136 C119 0.930 . S
H137 C130 0.929 . S
Cu138 N139 1.999 1_544 S
Cu138 O144 1.974 1_554 S
Cu138 N149 1.985 . S
Cu138 O158 1.959 1_545 S
N139 Cu138 1.999 1_566 S
N139 C141 1.263 1_565 S
N139 C143 1.389 . S
N140 C141 1.358 1_565 S
N140 C142 1.400 . S
C141 N139 1.263 1_545 S
C141 N140 1.358 1_545 S
C141 H147 0.930 . S
C142 N140 1.400 . S
C142 C143 1.351 . S
C142 H159 0.930 . S
C143 N139 1.389 . S
C143 C142 1.351 . S
C143 H148 0.930 . S
O144 Cu138 1.974 1_556 S
O144 C154 1.282 . S
C145 O146 1.247 1_565 S
C145 O158 1.251 . S
O146 C145 1.247 1_545 S
H147 C141 0.930 . S
H148 C143 0.930 . S
N149 Cu138 1.985 . S
N149 C151 1.335 . S
N149 C152 1.390 . S
N150 C151 1.345 . S
N150 C153 1.336 . S
C151 N149 1.335 . S
C151 N150 1.345 . S
C151 H156 0.930 1_545 S
C152 N149 1.390 . S
C152 C153 1.346 . S
C152 H157 0.930 . S
C153 N150 1.336 . S
C153 C152 1.346 . S
C153 H160 0.929 . S
C154 O144 1.282 . S
C154 O155 1.216 . S
O155 C154 1.216 . S
H156 C151 0.930 1_565 S
H157 C152 0.930 . S
O158 Cu138 1.959 1_565 S
O158 C145 1.251 . S
H159 C142 0.930 . S
H160 C153 0.929 . S
Cu161 N162 1.999 . S
Cu161 O167 1.974 . S
Cu161 N172 1.985 . S
Cu161 O181 1.959 . S
N162 Cu161 1.999 . S
N162 C164 1.263 . S
N162 C166 1.389 . S
N163 C164 1.358 . S
N163 C165 1.400 . S
C164 N162 1.263 . S
C164 N163 1.358 . S
C164 H170 0.930 . S
C165 N163 1.400 . S
C165 C166 1.351 . S
C165 H182 0.930 . S
C166 N162 1.389 . S
C166 C165 1.351 . S
C166 H171 0.930 . S
O167 Cu161 1.974 . S
O167 C177 1.282 . S
C168 O169 1.261 . S
C168 O181 1.251 . S
O169 C168 1.261 . S
H170 C164 0.930 . S
H171 C166 0.930 . S
N172 Cu161 1.985 . S
N172 C174 1.335 . S
N172 C175 1.390 . S
N173 C174 1.345 . S
N173 C176 1.336 . S
C174 N172 1.335 . S
C174 N173 1.345 . S
C174 H179 0.930 . S
C175 N172 1.390 . S
C175 C176 1.346 . S
C175 H180 0.930 . S
C176 N173 1.336 . S
C176 C175 1.346 . S
C176 H183 0.929 . S
C177 O167 1.282 . S
C177 O178 1.216 . S
O178 C177 1.216 . S
H179 C174 0.930 . S
H180 C175 0.930 . S
O181 Cu161 1.959 . S
O181 C168 1.251 . S
H182 C165 0.930 . S
H183 C176 0.929 . S
Cu184 N185 1.999 . S
Cu184 O190 1.974 . S
Cu184 N195 1.985 . S
Cu184 O204 1.959 . S
N185 Cu184 1.999 . S
N185 C187 1.263 . S
N185 C189 1.389 . S
N186 C187 1.358 . S
N186 C188 1.400 . S
C187 N185 1.263 . S
C187 N186 1.358 . S
C187 H193 0.930 . S
C188 N186 1.400 . S
C188 C189 1.351 . S
C188 H205 0.930 . S
C189 N185 1.389 . S
C189 C188 1.351 . S
C189 H194 0.930 . S
O190 Cu184 1.974 . S
O190 C200 1.282 . S
C191 O192 1.261 . S
C191 O204 1.251 . S
O192 C191 1.261 . S
H193 C187 0.930 . S
H194 C189 0.930 . S
N195 Cu184 1.985 . S
N195 C197 1.335 . S
N195 C198 1.390 . S
N196 C197 1.345 . S
N196 C199 1.336 . S
C197 N195 1.335 . S
C197 N196 1.345 . S
C197 H202 0.930 . S
C198 N195 1.390 . S
C198 C199 1.346 . S
C198 H203 0.930 . S
C199 N196 1.336 . S
C199 C198 1.346 . S
C199 H206 0.929 . S
C200 O190 1.282 . S
C200 O201 1.216 . S
O201 C200 1.216 . S
H202 C197 0.930 . S
H203 C198 0.930 . S
O204 Cu184 1.959 . S
O204 C191 1.251 . S
H205 C188 0.930 . S
H206 C199 0.929 . S
Cu207 N208 1.999 . S
Cu207 O213 1.974 . S
Cu207 N218 1.985 . S
Cu207 O227 1.959 . S
N208 Cu207 1.999 . S
N208 C210 1.263 . S
N208 C212 1.389 . S
N209 C210 1.358 . S
N209 C211 1.400 . S
C210 N208 1.263 . S
C210 N209 1.358 . S
C210 H216 0.930 . S
C211 N209 1.400 . S
C211 C212 1.351 . S
C211 H228 0.930 . S
C212 N208 1.389 . S
C212 C211 1.351 . S
C212 H217 0.930 . S
O213 Cu207 1.974 . S
O213 C223 1.282 . S
C214 O215 1.261 . S
C214 O227 1.251 . S
O215 C214 1.261 . S
H216 C210 0.930 . S
H217 C212 0.930 . S
N218 Cu207 1.985 . S
N218 C220 1.335 . S
N218 C221 1.390 . S
N219 C220 1.345 . S
N219 C222 1.336 . S
C220 N218 1.335 . S
C220 N219 1.345 . S
C220 H225 0.930 . S
C221 N218 1.390 . S
C221 C222 1.346 . S
C221 H226 0.930 . S
C222 N219 1.336 . S
C222 C221 1.346 . S
C222 H229 0.929 . S
C223 O213 1.282 . S
C223 O224 1.216 . S
O224 C223 1.216 . S
H225 C220 0.930 . S
H226 C221 0.930 . S
O227 Cu207 1.959 . S
O227 C214 1.251 . S
H228 C211 0.930 . S
H229 C222 0.929 . S
Cu230 N231 1.999 . S
Cu230 O236 1.974 . S
Cu230 N241 1.985 . S
Cu230 O250 1.959 . S
N231 Cu230 1.999 . S
N231 C233 1.263 . S
N231 C235 1.389 . S
N232 C233 1.358 . S
N232 C234 1.400 . S
C233 N231 1.263 . S
C233 N232 1.358 . S
C233 H239 0.930 . S
C234 N232 1.400 . S
C234 C235 1.351 . S
C234 H251 0.930 . S
C235 N231 1.389 . S
C235 C234 1.351 . S
C235 H240 0.930 . S
O236 Cu230 1.974 . S
O236 C246 1.282 . S
C237 O238 1.261 . S
C237 O250 1.251 . S
O238 C237 1.261 . S
H239 C233 0.930 . S
H240 C235 0.930 . S
N241 Cu230 1.985 . S
N241 C243 1.335 . S
N241 C244 1.390 . S
N242 C243 1.345 . S
N242 C245 1.336 . S
C243 N241 1.335 . S
C243 N242 1.345 . S
C243 H248 0.930 . S
C244 N241 1.390 . S
C244 C245 1.346 . S
C244 H249 0.930 . S
C245 N242 1.336 . S
C245 C244 1.346 . S
C245 H252 0.929 . S
C246 O236 1.282 . S
C246 O247 1.216 . S
O247 C246 1.216 . S
H248 C243 0.930 . S
H249 C244 0.930 . S
O250 Cu230 1.959 . S
O250 C237 1.251 . S
H251 C234 0.930 . S
H252 C245 0.929 . S
Cu253 N254 1.999 . S
Cu253 O259 1.974 . S
Cu253 N264 1.985 . S
Cu253 O273 1.959 . S
N254 Cu253 1.999 . S
N254 C256 1.263 . S
N254 C258 1.389 . S
N255 C256 1.358 . S
N255 C257 1.400 . S
C256 N254 1.263 . S
C256 N255 1.358 . S
C256 H262 0.930 . S
C257 N255 1.400 . S
C257 C258 1.351 . S
C257 H274 0.930 . S
C258 N254 1.389 . S
C258 C257 1.351 . S
C258 H263 0.930 . S
O259 Cu253 1.974 . S
O259 C269 1.282 . S
C260 O261 1.261 . S
C260 O273 1.251 . S
O261 C260 1.261 . S
H262 C256 0.930 . S
H263 C258 0.930 . S
N264 Cu253 1.985 . S
N264 C266 1.335 . S
N264 C267 1.390 . S
N265 C266 1.345 . S
N265 C268 1.336 . S
C266 N264 1.335 . S
C266 N265 1.345 . S
C266 H271 0.930 . S
C267 N264 1.390 . S
C267 C268 1.346 . S
C267 H272 0.930 . S
C268 N265 1.336 . S
C268 C267 1.346 . S
C268 H275 0.929 . S
C269 O259 1.282 . S
C269 O270 1.216 . S
O270 C269 1.216 . S
H271 C266 0.930 . S
H272 C267 0.930 . S
O273 Cu253 1.959 . S
O273 C260 1.251 . S
H274 C257 0.930 . S
H275 C268 0.929 . S
Cu276 N277 1.999 . S
Cu276 O282 1.974 . S
Cu276 N287 1.985 . S
Cu276 O296 1.959 . S
N277 Cu276 1.999 . S
N277 C279 1.263 . S
N277 C281 1.389 . S
N278 C279 1.358 . S
N278 C280 1.400 . S
C279 N277 1.263 . S
C279 N278 1.358 . S
C279 H285 0.930 . S
C280 N278 1.400 . S
C280 C281 1.351 . S
C280 H297 0.930 . S
C281 N277 1.389 . S
C281 C280 1.351 . S
C281 H286 0.930 . S
O282 Cu276 1.974 . S
O282 C292 1.282 . S
C283 O284 1.261 . S
C283 O296 1.251 . S
O284 C283 1.261 . S
H285 C279 0.930 . S
H286 C281 0.930 . S
N287 Cu276 1.985 . S
N287 C289 1.335 . S
N287 C290 1.390 . S
N288 C289 1.345 . S
N288 C291 1.336 . S
C289 N287 1.335 . S
C289 N288 1.345 . S
C289 H294 0.930 . S
C290 N287 1.390 . S
C290 C291 1.346 . S
C290 H295 0.930 . S
C291 N288 1.336 . S
C291 C290 1.346 . S
C291 H298 0.929 . S
C292 O282 1.282 . S
C292 O293 1.216 . S
O293 C292 1.216 . S
H294 C289 0.930 . S
H295 C290 0.930 . S
O296 Cu276 1.959 . S
O296 C283 1.251 . S
H297 C280 0.930 . S
H298 C291 0.929 . S
Cu299 N300 1.999 . S
Cu299 O305 1.974 1_554 S
Cu299 N310 1.985 . S
Cu299 O319 1.959 . S
N300 Cu299 1.999 . S
N300 C302 1.263 1_554 S
N300 C304 1.389 . S
N301 C302 1.358 . S
N301 C303 1.400 1_556 S
C302 N300 1.263 1_556 S
C302 N301 1.358 . S
C302 H308 0.930 . S
C303 N301 1.400 1_554 S
C303 C304 1.351 . S
C303 H320 0.930 . S
C304 N300 1.389 . S
C304 C303 1.351 . S
C304 H309 0.930 . S
O305 Cu299 1.974 1_556 S
O305 C315 1.282 . S
C306 O307 1.261 . S
C306 O319 1.251 . S
O307 C306 1.261 . S
H308 C302 0.930 . S
H309 C304 0.930 . S
N310 Cu299 1.985 . S
N310 C312 1.335 . S
N310 C313 1.390 1_455 S
N311 C312 1.345 1_655 S
N311 C314 1.336 . S
C312 N310 1.335 . S
C312 N311 1.345 1_455 S
C312 H317 0.930 . S
C313 N310 1.390 1_655 S
C313 C314 1.346 . S
C313 H318 0.930 1_554 S
C314 N311 1.336 . S
C314 C313 1.346 . S
C314 H321 0.929 . S
C315 O305 1.282 . S
C315 O316 1.213 1_455 S
O316 C315 1.213 1_655 S
H317 C312 0.930 . S
H318 C313 0.930 1_556 S
O319 Cu299 1.959 . S
O319 C306 1.251 . S
H320 C303 0.930 . S
H321 C314 0.929 . S
Cu322 N323 1.999 1_554 S
Cu322 O328 1.969 1_554 S
Cu322 N333 1.985 . S
Cu322 O342 1.959 . S
N323 Cu322 1.999 1_556 S
N323 C325 1.263 . S
N323 C327 1.389 . S
N324 C325 1.358 . S
N324 C326 1.400 . S
C325 N323 1.263 . S
C325 N324 1.358 . S
C325 H331 0.930 . S
C326 N324 1.400 . S
C326 C327 1.351 . S
C326 H343 0.930 . S
C327 N323 1.389 . S
C327 C326 1.351 . S
C327 H332 0.930 . S
O328 Cu322 1.969 1_556 S
O328 C338 1.285 . S
C329 O330 1.261 . S
C329 O342 1.251 . S
O330 C329 1.261 . S
H331 C325 0.930 . S
H332 C327 0.930 . S
N333 Cu322 1.985 . S
N333 C335 1.335 . S
N333 C336 1.390 . S
N334 C335 1.345 . S
N334 C337 1.336 . S
C335 N333 1.335 . S
C335 N334 1.345 . S
C335 H340 0.930 . S
C336 N333 1.390 . S
C336 C337 1.346 . S
C336 H341 0.930 . S
C337 N334 1.336 . S
C337 C336 1.346 . S
C337 H344 0.929 . S
C338 O328 1.285 . S
C338 O339 1.216 . S
O339 C338 1.216 . S
H340 C335 0.930 . S
H341 C336 0.930 . S
O342 Cu322 1.959 . S
O342 C329 1.251 . S
H343 C326 0.930 . S
H344 C337 0.929 . S
Cu345 N346 1.999 . S
Cu345 O351 1.974 1_455 S
Cu345 N356 1.985 . S
Cu345 O365 1.959 . S
N346 Cu345 1.999 . S
N346 C348 1.263 . S
N346 C350 1.389 . S
N347 C348 1.358 . S
N347 C349 1.400 . S
C348 N346 1.263 . S
C348 N347 1.358 . S
C348 H354 0.930 . S
C349 N347 1.400 . S
C349 C350 1.351 . S
C349 H366 0.930 . S
C350 N346 1.389 . S
C350 C349 1.351 . S
C350 H355 0.930 . S
O351 Cu345 1.974 1_655 S
O351 C361 1.282 . S
C352 O353 1.261 . S
C352 O365 1.251 . S
O353 C352 1.261 . S
H354 C348 0.930 . S
H355 C350 0.930 . S
N356 Cu345 1.985 . S
N356 C358 1.335 . S
N356 C359 1.390 . S
N357 C358 1.345 . S
N357 C360 1.336 . S
C358 N356 1.335 . S
C358 N357 1.345 . S
C358 H363 0.930 . S
C359 N356 1.390 . S
C359 C360 1.346 . S
C359 H364 0.930 1_455 S
C360 N357 1.336 . S
C360 C359 1.346 . S
C360 H367 0.929 1_455 S
C361 O351 1.282 . S
C361 O362 1.216 1_655 S
O362 C361 1.216 1_455 S
H363 C358 0.930 . S
H364 C359 0.930 1_655 S
O365 Cu345 1.959 . S
O365 C352 1.251 . S
H366 C349 0.930 . S
H367 C360 0.929 1_655 S
H368 C376 0.950 . S
H369 C381 0.950 . S
H370 C378 0.950 . S
H371 C380 0.950 . S
H372 C382 0.950 . S
H373 C384 0.950 . S
H374 C386 0.950 . S
H375 C387 0.950 . S
C376 H368 0.950 . S
C376 C377 1.392 1_545 S
C376 C378 1.391 . S
C377 C376 1.392 1_565 S
C377 C381 1.387 1_655 S
C378 H370 0.950 . S
C378 C376 1.391 . S
C378 C379 1.400 . S
C379 C378 1.400 . S
C379 C380 1.398 1_645 S
C379 C385 1.491 . S
C380 H371 0.950 . S
C380 C379 1.398 1_465 S
C380 C381 1.391 . S
C381 H369 0.950 . S
C381 C377 1.387 1_455 S
C381 C380 1.391 . S
C382 H372 0.950 . S
C382 C383 1.386 1_465 S
C382 C384 1.391 . S
C383 C382 1.386 1_645 S
C383 C387 1.393 . S
C384 H373 0.950 . S
C384 C382 1.391 . S
C384 C385 1.400 1_465 S
C385 C379 1.491 . S
C385 C384 1.400 1_645 S
C385 C386 1.398 . S
C386 H374 0.950 . S
C386 C385 1.398 . S
C386 C387 1.391 . S
C387 H375 0.950 . S
C387 C383 1.393 . S
C387 C386 1.391 . S
H388 C396 0.950 . S
H389 C401 0.950 . S
H390 C398 0.950 . S
H391 C400 0.950 . S
H392 C402 0.950 . S
H393 C404 0.950 . S
H394 C406 0.950 . S
H395 C407 0.950 . S
C396 H388 0.950 . S
C396 C397 1.386 . S
C396 C398 1.391 . S
C397 C396 1.386 . S
C397 C401 1.393 . S
C398 H390 0.950 . S
C398 C396 1.391 . S
C398 C399 1.400 . S
C399 C398 1.400 . S
C399 C400 1.398 . S
C399 C405 1.491 . S
C400 H391 0.950 . S
C400 C399 1.398 . S
C400 C401 1.391 . S
C401 H389 0.950 . S
C401 C397 1.393 . S
C401 C400 1.391 . S
C402 H392 0.950 . S
C402 C403 1.386 . S
C402 C404 1.391 . S
C403 C402 1.386 . S
C403 C407 1.393 . S
C404 H393 0.950 . S
C404 C402 1.391 . S
C404 C405 1.400 . S
C405 C399 1.491 . S
C405 C404 1.400 . S
C405 C406 1.398 . S
C406 H394 0.950 . S
C406 C405 1.398 . S
C406 C407 1.391 . S
C407 H395 0.950 . S
C407 C403 1.393 . S
C407 C406 1.391 . S
H408 C416 0.950 . S
H409 C421 0.950 . S
H410 C418 0.950 . S
H411 C420 0.950 . S
H412 C422 0.950 . S
H413 C424 0.950 . S
H414 C426 0.950 . S
H415 C427 0.950 . S
C416 H408 0.950 . S
C416 C417 1.386 1_545 S
C416 C418 1.391 . S
C417 C416 1.386 1_565 S
C417 C421 1.393 . S
C418 H410 0.950 . S
C418 C416 1.391 . S
C418 C419 1.400 . S
C419 C418 1.400 . S
C419 C420 1.398 1_545 S
C419 C425 1.491 . S
C420 H411 0.950 . S
C420 C419 1.398 1_565 S
C420 C421 1.391 . S
C421 H409 0.950 . S
C421 C417 1.393 . S
C421 C420 1.391 . S
C422 H412 0.950 . S
C422 C423 1.386 1_565 S
C422 C424 1.391 . S
C423 C422 1.386 1_545 S
C423 C427 1.393 . S
C424 H413 0.950 . S
C424 C422 1.391 . S
C424 C425 1.400 1_565 S
C425 C419 1.491 . S
C425 C424 1.400 1_545 S
C425 C426 1.398 . S
C426 H414 0.950 . S
C426 C425 1.398 . S
C426 C427 1.391 . S
C427 H415 0.950 . S
C427 C423 1.393 . S
C427 C426 1.391 . S
H428 C436 0.950 . S
H429 C441 0.950 . S
H430 C438 0.959 . S
H431 C440 0.950 1_554 S
H432 C442 0.950 . S
H433 C444 0.950 . S
H434 C446 0.950 . S
H435 C447 0.950 . S
C436 H428 0.950 . S
C436 C437 1.386 . S
C436 C438 1.375 1_556 S
C437 C436 1.386 . S
C437 C441 1.393 . S
C438 H430 0.959 . S
C438 C436 1.375 1_554 S
C438 C439 1.407 . S
C439 C438 1.407 . S
C439 C440 1.398 1_554 S
C439 C445 1.491 . S
C440 H431 0.950 1_556 S
C440 C439 1.398 1_556 S
C440 C441 1.391 . S
C441 H429 0.950 . S
C441 C437 1.393 . S
C441 C440 1.391 . S
C442 H432 0.950 . S
C442 C443 1.386 . S
C442 C444 1.391 . S
C443 C442 1.386 . S
C443 C447 1.393 . S
C444 H433 0.950 . S
C444 C442 1.391 . S
C444 C445 1.400 . S
C445 C439 1.491 . S
C445 C444 1.400 . S
C445 C446 1.398 . S
C446 H434 0.950 . S
C446 C445 1.398 . S
C446 C447 1.391 . S
C447 H435 0.950 . S
C447 C443 1.393 . S
C447 C446 1.391 . S
H448 C456 0.950 . S
H449 C461 0.950 . S
H450 C458 0.950 . S
H451 C460 0.950 . S
H452 C462 0.950 . S
H453 C464 0.950 . S
H454 C466 0.950 . S
H455 C467 0.950 . S
C456 H448 0.950 . S
C456 C457 1.386 1_645 S
C456 C458 1.391 . S
C457 C456 1.386 1_465 S
C457 C461 1.393 . S
C458 H450 0.950 . S
C458 C456 1.391 . S
C458 C459 1.400 1_645 S
C459 C458 1.400 1_465 S
C459 C460 1.398 . S
C459 C465 1.488 1_565 S
C460 H451 0.950 . S
C460 C459 1.398 . S
C460 C461 1.391 . S
C461 H449 0.950 . S
C461 C457 1.393 . S
C461 C460 1.391 . S
C462 H452 0.950 . S
C462 C463 1.386 1_565 S
C462 C464 1.391 . S
C463 C462 1.386 1_545 S
C463 C467 1.393 1_455 S
C464 H453 0.950 . S
C464 C462 1.391 . S
C464 C465 1.397 1_565 S
C465 C459 1.488 1_545 S
C465 C464 1.397 1_545 S
C465 C466 1.406 1_455 S
C466 H454 0.950 . S
C466 C465 1.406 1_655 S
C466 C467 1.391 . S
C467 H455 0.950 . S
C467 C463 1.393 1_655 S
C467 C466 1.391 . S
H468 C476 0.950 . S
H469 C481 0.950 . S
H470 C478 0.950 . S
H471 C480 0.950 . S
H472 C482 0.950 . S
H473 C484 0.950 . S
H474 C486 0.950 . S
H475 C487 0.950 . S
C476 H468 0.950 . S
C476 C477 1.386 . S
C476 C478 1.391 . S
C477 C476 1.386 . S
C477 C481 1.393 . S
C478 H470 0.950 . S
C478 C476 1.391 . S
C478 C479 1.400 . S
C479 C478 1.400 . S
C479 C480 1.398 . S
C479 C485 1.491 . S
C480 H471 0.950 . S
C480 C479 1.398 . S
C480 C481 1.391 . S
C481 H469 0.950 . S
C481 C477 1.393 . S
C481 C480 1.391 . S
C482 H472 0.950 . S
C482 C483 1.386 . S
C482 C484 1.391 . S
C483 C482 1.386 . S
C483 C487 1.393 . S
C484 H473 0.950 . S
C484 C482 1.391 . S
C484 C485 1.400 . S
C485 C479 1.491 . S
C485 C484 1.400 . S
C485 C486 1.398 . S
C486 H474 0.950 . S
C486 C485 1.398 . S
C486 C487 1.391 . S
C487 H475 0.950 . S
C487 C483 1.393 . S
C487 C486 1.391 . S
H488 C496 0.950 . S
H489 C501 0.950 . S
H490 C498 0.950 . S
H491 C500 0.950 . S
H492 C502 0.950 . S
H493 C504 0.950 . S
H494 C506 0.950 . S
H495 C507 0.950 . S
C496 H488 0.950 . S
C496 C497 1.386 . S
C496 C498 1.391 . S
C497 C496 1.386 . S
C497 C501 1.393 . S
C498 H490 0.950 . S
C498 C496 1.391 . S
C498 C499 1.400 . S
C499 C498 1.400 . S
C499 C500 1.398 . S
C499 C505 1.491 . S
C500 H491 0.950 . S
C500 C499 1.398 . S
C500 C501 1.391 . S
C501 H489 0.950 . S
C501 C497 1.393 . S
C501 C500 1.391 . S
C502 H492 0.950 . S
C502 C503 1.386 . S
C502 C504 1.391 . S
C503 C502 1.386 . S
C503 C507 1.393 . S
C504 H493 0.950 . S
C504 C502 1.391 . S
C504 C505 1.400 . S
C505 C499 1.491 . S
C505 C504 1.400 . S
C505 C506 1.398 . S
C506 H494 0.950 . S
C506 C505 1.398 . S
C506 C507 1.391 . S
C507 H495 0.950 . S
C507 C503 1.393 . S
C507 C506 1.391 . S
H508 C516 0.950 . S
H509 C521 0.950 . S
H510 C518 0.950 . S
H511 C520 0.950 . S
H512 C522 0.950 . S
H513 C524 0.950 . S
H514 C526 0.950 . S
H515 C527 0.950 . S
C516 H508 0.950 . S
C516 C517 1.386 . S
C516 C518 1.391 . S
C517 C516 1.386 . S
C517 C521 1.393 . S
C518 H510 0.950 . S
C518 C516 1.391 . S
C518 C519 1.400 . S
C519 C518 1.400 . S
C519 C520 1.398 . S
C519 C525 1.491 1_554 S
C520 H511 0.950 . S
C520 C519 1.398 . S
C520 C521 1.391 . S
C521 H509 0.950 . S
C521 C517 1.393 . S
C521 C520 1.391 . S
C522 H512 0.950 . S
C522 C523 1.386 . S
C522 C524 1.391 . S
C523 C522 1.386 . S
C523 C527 1.393 . S
C524 H513 0.950 . S
C524 C522 1.391 . S
C524 C525 1.400 . S
C525 C519 1.491 1_556 S
C525 C524 1.400 . S
C525 C526 1.398 . S
C526 H514 0.950 . S
C526 C525 1.398 . S
C526 C527 1.391 . S
C527 H515 0.950 . S
C527 C523 1.393 . S
C527 C526 1.391 . S
H528 C536 0.950 . S
H529 C541 0.950 . S
H530 C538 0.950 . S
H531 C540 0.950 . S
H532 C542 0.950 . S
H533 C544 0.950 . S
H534 C546 0.950 . S
H535 C547 0.950 . S
C536 H528 0.950 . S
C536 C537 1.386 . S
C536 C538 1.391 . S
C537 C536 1.386 . S
C537 C541 1.393 . S
C538 H530 0.950 . S
C538 C536 1.391 . S
C538 C539 1.400 . S
C539 C538 1.400 . S
C539 C540 1.398 . S
C539 C545 1.491 . S
C540 H531 0.950 . S
C540 C539 1.398 . S
C540 C541 1.391 . S
C541 H529 0.950 . S
C541 C537 1.393 . S
C541 C540 1.391 . S
C542 H532 0.950 . S
C542 C543 1.386 . S
C542 C544 1.391 . S
C543 C542 1.386 . S
C543 C547 1.393 . S
C544 H533 0.950 . S
C544 C542 1.391 . S
C544 C545 1.400 . S
C545 C539 1.491 . S
C545 C544 1.400 . S
C545 C546 1.398 . S
C546 H534 0.950 . S
C546 C545 1.398 . S
C546 C547 1.391 . S
C547 H535 0.950 . S
C547 C543 1.393 . S
C547 C546 1.391 . S
H548 C556 0.950 . S
H549 C561 0.950 . S
H550 C558 0.950 1_554 S
H551 C560 0.950 . S
H552 C562 0.950 . S
H553 C564 0.950 . S
H554 C566 0.950 . S
H555 C567 0.950 . S
C556 H548 0.950 . S
C556 C557 1.386 . S
C556 C558 1.391 . S
C557 C556 1.386 . S
C557 C561 1.393 . S
C558 H550 0.950 1_556 S
C558 C556 1.391 . S
C558 C559 1.399 1_556 S
C559 C558 1.399 1_554 S
C559 C560 1.396 1_554 S
C559 C565 1.494 . S
C560 H551 0.950 . S
C560 C559 1.396 1_556 S
C560 C561 1.391 . S
C561 H549 0.950 . S
C561 C557 1.393 . S
C561 C560 1.391 . S
C562 H552 0.950 . S
C562 C563 1.386 . S
C562 C564 1.391 . S
C563 C562 1.386 . S
C563 C567 1.393 . S
C564 H553 0.950 . S
C564 C562 1.391 . S
C564 C565 1.400 . S
C565 C559 1.494 . S
C565 C564 1.400 . S
C565 C566 1.398 . S
C566 H554 0.950 . S
C566 C565 1.398 . S
C566 C567 1.391 . S
C567 H555 0.950 . S
C567 C563 1.393 . S
C567 C566 1.391 . S
H568 C576 0.950 1_655 S
H569 C581 0.950 . S
H570 C578 0.950 1_655 S
H571 C580 0.950 . S
H572 C582 0.950 . S
H573 C584 0.950 . S
H574 C586 0.950 1_655 S
H575 C587 0.950 1_655 S
C576 H568 0.950 1_455 S
C576 C577 1.386 . S
C576 C578 1.391 . S
C577 C576 1.386 . S
C577 C581 1.393 . S
C578 H570 0.950 1_455 S
C578 C576 1.391 . S
C578 C579 1.400 . S
C579 C578 1.400 . S
C579 C580 1.398 . S
C579 C585 1.491 . S
C580 H571 0.950 . S
C580 C579 1.398 . S
C580 C581 1.391 . S
C581 H569 0.950 . S
C581 C577 1.393 . S
C581 C580 1.391 . S
C582 H572 0.950 . S
C582 C583 1.386 . S
C582 C584 1.391 . S
C583 C582 1.386 . S
C583 C587 1.393 . S
C584 H573 0.950 . S
C584 C582 1.391 . S
C584 C585 1.400 . S
C585 C579 1.491 . S
C585 C584 1.400 . S
C585 C586 1.398 . S
C586 H574 0.950 1_455 S
C586 C585 1.398 . S
C586 C587 1.391 . S
C587 H575 0.950 1_455 S
C587 C583 1.393 . S
C587 C586 1.391 . S
H588 C596 0.950 . S
H589 C601 0.950 . S
H590 C598 0.950 . S
H591 C600 0.950 . S
H592 C602 0.950 . S
H593 C604 0.950 . S
H594 C606 0.950 . S
H595 C607 0.950 . S
C596 H588 0.950 . S
C596 C597 1.386 . S
C596 C598 1.391 . S
C597 C596 1.386 . S
C597 C601 1.393 . S
C598 H590 0.950 . S
C598 C596 1.391 . S
C598 C599 1.400 . S
C599 C598 1.400 . S
C599 C600 1.398 . S
C599 C605 1.491 . S
C600 H591 0.950 . S
C600 C599 1.398 . S
C600 C601 1.391 . S
C601 H589 0.950 . S
C601 C597 1.393 . S
C601 C600 1.391 . S
C602 H592 0.950 . S
C602 C603 1.386 . S
C602 C604 1.391 . S
C603 C602 1.386 . S
C603 C607 1.393 . S
C604 H593 0.950 . S
C604 C602 1.391 . S
C604 C605 1.400 . S
C605 C599 1.491 . S
C605 C604 1.400 . S
C605 C606 1.398 . S
C606 H594 0.950 . S
C606 C605 1.398 . S
C606 C607 1.391 . S
C607 H595 0.950 . S
C607 C603 1.393 . S
C607 C606 1.391 . S
H608 C616 0.950 . S
H609 C621 0.950 . S
H610 C618 0.950 . S
H611 C620 0.950 . S
H612 C622 0.950 . S
H613 C624 0.950 . S
H614 C626 0.950 . S
H615 C627 0.950 . S
C616 H608 0.950 . S
C616 C617 1.386 . S
C616 C618 1.391 . S
C617 C616 1.386 . S
C617 C621 1.393 . S
C618 H610 0.950 . S
C618 C616 1.391 . S
C618 C619 1.400 . S
C619 C618 1.400 . S
C619 C620 1.398 . S
C619 C625 1.491 . S
C620 H611 0.950 . S
C620 C619 1.398 . S
C620 C621 1.391 . S
C621 H609 0.950 . S
C621 C617 1.393 . S
C621 C620 1.391 . S
C622 H612 0.950 . S
C622 C623 1.386 . S
C622 C624 1.391 . S
C623 C622 1.386 . S
C623 C627 1.393 . S
C624 H613 0.950 . S
C624 C622 1.391 . S
C624 C625 1.400 . S
C625 C619 1.491 . S
C625 C624 1.400 . S
C625 C626 1.398 . S
C626 H614 0.950 . S
C626 C625 1.398 . S
C626 C627 1.391 . S
C627 H615 0.950 . S
C627 C623 1.393 . S
C627 C626 1.391 . S
H628 C636 0.950 . S
H629 C641 0.950 . S
H630 C638 0.950 . S
H631 C640 0.950 . S
H632 C642 0.950 . S
H633 C644 0.950 . S
H634 C646 0.950 . S
H635 C647 0.950 . S
C636 H628 0.950 . S
C636 C637 1.386 . S
C636 C638 1.391 . S
C637 C636 1.386 . S
C637 C641 1.393 . S
C638 H630 0.950 . S
C638 C636 1.391 . S
C638 C639 1.400 . S
C639 C638 1.400 . S
C639 C640 1.398 . S
C639 C645 1.491 1_554 S
C640 H631 0.950 . S
C640 C639 1.398 . S
C640 C641 1.391 . S
C641 H629 0.950 . S
C641 C637 1.393 . S
C641 C640 1.391 . S
C642 H632 0.950 . S
C642 C643 1.386 . S
C642 C644 1.391 . S
C643 C642 1.386 . S
C643 C647 1.393 . S
C644 H633 0.950 . S
C644 C642 1.391 . S
C644 C645 1.400 . S
C645 C639 1.491 1_556 S
C645 C644 1.400 . S
C645 C646 1.398 . S
C646 H634 0.950 . S
C646 C645 1.398 . S
C646 C647 1.391 . S
C647 H635 0.950 . S
C647 C643 1.393 . S
C647 C646 1.391 . S
H648 C656 0.950 . S
H649 C661 0.950 1_655 S
H650 C658 0.950 . S
H651 C660 0.950 1_655 S
H652 C662 0.950 1_655 S
H653 C664 0.950 1_655 S
H654 C666 0.950 . S
H655 C667 0.950 . S
C656 H648 0.950 . S
C656 C657 1.386 . S
C656 C658 1.391 . S
C657 C656 1.386 . S
C657 C661 1.393 . S
C658 H650 0.950 . S
C658 C656 1.391 . S
C658 C659 1.400 . S
C659 C658 1.400 . S
C659 C660 1.398 . S
C659 C665 1.491 . S
C660 H651 0.950 1_455 S
C660 C659 1.398 . S
C660 C661 1.391 . S
C661 H649 0.950 1_455 S
C661 C657 1.393 . S
C661 C660 1.391 . S
C662 H652 0.950 1_455 S
C662 C663 1.386 . S
C662 C664 1.391 . S
C663 C662 1.386 . S
C663 C667 1.393 . S
C664 H653 0.950 1_455 S
C664 C662 1.391 . S
C664 C665 1.400 . S
C665 C659 1.491 . S
C665 C664 1.400 . S
C665 C666 1.398 . S
C666 H654 0.950 . S
C666 C665 1.398 . S
C666 C667 1.391 . S
C667 H655 0.950 . S
C667 C663 1.393 . S
C667 C666 1.391 . S
H668 C676 0.950 . S
H669 C681 0.950 . S
H670 C678 0.950 . S
H671 C680 0.950 . S
H672 C682 0.950 . S
H673 C684 0.950 . S
H674 C686 0.950 . S
H675 C687 0.950 . S
C676 H668 0.950 . S
C676 C677 1.386 . S
C676 C678 1.391 . S
C677 C676 1.386 . S
C677 C681 1.393 . S
C678 H670 0.950 . S
C678 C676 1.391 . S
C678 C679 1.400 . S
C679 C678 1.400 . S
C679 C680 1.398 . S
C679 C685 1.491 . S
C680 H671 0.950 . S
C680 C679 1.398 . S
C680 C681 1.391 . S
C681 H669 0.950 . S
C681 C677 1.393 . S
C681 C680 1.391 . S
C682 H672 0.950 . S
C682 C683 1.386 . S
C682 C684 1.391 . S
C683 C682 1.386 . S
C683 C687 1.393 . S
C684 H673 0.950 . S
C684 C682 1.391 . S
C684 C685 1.400 . S
C685 C679 1.491 . S
C685 C684 1.400 . S
C685 C686 1.398 . S
C686 H674 0.950 . S
C686 C685 1.398 . S
C686 C687 1.391 . S
C687 H675 0.950 . S
C687 C683 1.393 . S
C687 C686 1.391 . S
H688 C696 0.950 . S
H689 C701 0.950 . S
H690 C698 0.950 . S
H691 C700 0.950 . S
H692 C702 0.950 . S
H693 C704 0.950 . S
H694 C706 0.950 . S
H695 C707 0.950 . S
C696 H688 0.950 . S
C696 C697 1.386 . S
C696 C698 1.391 . S
C697 C696 1.386 . S
C697 C701 1.393 . S
C698 H690 0.950 . S
C698 C696 1.391 . S
C698 C699 1.400 . S
C699 C698 1.400 . S
C699 C700 1.398 . S
C699 C705 1.491 . S
C700 H691 0.950 . S
C700 C699 1.398 . S
C700 C701 1.391 . S
C701 H689 0.950 . S
C701 C697 1.393 . S
C701 C700 1.391 . S
C702 H692 0.950 . S
C702 C703 1.386 . S
C702 C704 1.391 . S
C703 C702 1.386 . S
C703 C707 1.393 . S
C704 H693 0.950 . S
C704 C702 1.391 . S
C704 C705 1.400 . S
C705 C699 1.491 . S
C705 C704 1.400 . S
C705 C706 1.398 . S
C706 H694 0.950 . S
C706 C705 1.398 . S
C706 C707 1.391 . S
C707 H695 0.950 . S
C707 C703 1.393 . S
C707 C706 1.391 . S
H708 C716 0.950 . S
H709 C721 0.950 . S
H710 C718 0.950 . S
H711 C720 0.950 . S
H712 C722 0.950 . S
H713 C724 0.950 . S
H714 C726 0.950 . S
H715 C727 0.950 . S
C716 H708 0.950 . S
C716 C717 1.386 . S
C716 C718 1.391 . S
C717 C716 1.386 . S
C717 C721 1.393 . S
C718 H710 0.950 . S
C718 C716 1.391 . S
C718 C719 1.400 . S
C719 C718 1.400 . S
C719 C720 1.398 . S
C719 C725 1.491 . S
C720 H711 0.950 . S
C720 C719 1.398 . S
C720 C721 1.391 . S
C721 H709 0.950 . S
C721 C717 1.393 . S
C721 C720 1.391 . S
C722 H712 0.950 . S
C722 C723 1.386 . S
C722 C724 1.391 . S
C723 C722 1.386 . S
C723 C727 1.393 . S
C724 H713 0.950 . S
C724 C722 1.391 . S
C724 C725 1.400 . S
C725 C719 1.491 . S
C725 C724 1.400 . S
C725 C726 1.398 . S
C726 H714 0.950 . S
C726 C725 1.398 . S
C726 C727 1.391 . S
C727 H715 0.950 . S
C727 C723 1.393 . S
C727 C726 1.391 . S
H728 C736 0.950 . S
H729 C741 0.950 . S
H730 C738 0.950 . S
H731 C740 0.950 . S
H732 C742 0.950 . S
H733 C744 0.950 . S
H734 C746 0.950 . S
H735 C747 0.950 . S
C736 H728 0.950 . S
C736 C737 1.386 . S
C736 C738 1.391 . S
C737 C736 1.386 . S
C737 C741 1.393 . S
C738 H730 0.950 . S
C738 C736 1.391 . S
C738 C739 1.400 . S
C739 C738 1.400 . S
C739 C740 1.398 . S
C739 C745 1.491 . S
C740 H731 0.950 . S
C740 C739 1.398 . S
C740 C741 1.391 . S
C741 H729 0.950 . S
C741 C737 1.393 . S
C741 C740 1.391 . S
C742 H732 0.950 . S
C742 C743 1.386 . S
C742 C744 1.391 . S
C743 C742 1.386 . S
C743 C747 1.393 . S
C744 H733 0.950 . S
C744 C742 1.391 . S
C744 C745 1.400 . S
C745 C739 1.491 . S
C745 C744 1.400 . S
C745 C746 1.398 . S
C746 H734 0.950 . S
C746 C745 1.398 . S
C746 C747 1.391 . S
C747 H735 0.950 . S
C747 C743 1.393 . S
C747 C746 1.391 . S
H748 C756 0.950 . S
H749 C761 0.950 . S
H750 C758 0.950 . S
H751 C760 0.950 . S
H752 C762 0.950 . S
H753 C764 0.950 . S
H754 C766 0.950 . S
H755 C767 0.950 . S
C756 H748 0.950 . S
C756 C757 1.386 . S
C756 C758 1.391 . S
C757 C756 1.386 . S
C757 C761 1.393 . S
C758 H750 0.950 . S
C758 C756 1.391 . S
C758 C759 1.400 . S
C759 C758 1.400 . S
C759 C760 1.398 . S
C759 C765 1.491 . S
C760 H751 0.950 . S
C760 C759 1.398 . S
C760 C761 1.391 . S
C761 H749 0.950 . S
C761 C757 1.393 . S
C761 C760 1.391 . S
C762 H752 0.950 . S
C762 C763 1.386 . S
C762 C764 1.391 . S
C763 C762 1.386 . S
C763 C767 1.393 . S
C764 H753 0.950 . S
C764 C762 1.391 . S
C764 C765 1.400 . S
C765 C759 1.491 . S
C765 C764 1.400 . S
C765 C766 1.398 . S
C766 H754 0.950 . S
C766 C765 1.398 . S
C766 C767 1.391 . S
C767 H755 0.950 . S
C767 C763 1.393 . S
C767 C766 1.391 . S
H768 C776 0.950 . S
H769 C781 0.950 . S
H770 C778 0.950 . S
H771 C780 0.950 . S
H772 C782 0.950 . S
H773 C784 0.950 . S
H774 C786 0.950 . S
H775 C787 0.950 . S
C776 H768 0.950 . S
C776 C777 1.386 . S
C776 C778 1.391 . S
C777 C776 1.386 . S
C777 C781 1.393 . S
C778 H770 0.950 . S
C778 C776 1.391 . S
C778 C779 1.400 . S
C779 C778 1.400 . S
C779 C780 1.398 . S
C779 C785 1.491 . S
C780 H771 0.950 . S
C780 C779 1.398 . S
C780 C781 1.391 . S
C781 H769 0.950 . S
C781 C777 1.393 . S
C781 C780 1.391 . S
C782 H772 0.950 . S
C782 C783 1.386 . S
C782 C784 1.391 . S
C783 C782 1.386 . S
C783 C787 1.393 . S
C784 H773 0.950 . S
C784 C782 1.391 . S
C784 C785 1.400 . S
C785 C779 1.491 . S
C785 C784 1.400 . S
C785 C786 1.398 . S
C786 H774 0.950 . S
C786 C785 1.398 . S
C786 C787 1.391 . S
C787 H775 0.950 . S
C787 C783 1.393 . S
C787 C786 1.391 . S
H788 C796 0.950 . S
H789 C801 0.950 . S
H790 C798 0.950 . S
H791 C800 0.950 . S
H792 C802 0.950 . S
H793 C804 0.950 . S
H794 C806 0.950 . S
H795 C807 0.950 . S
C796 H788 0.950 . S
C796 C797 1.386 . S
C796 C798 1.391 . S
C797 C796 1.386 . S
C797 C801 1.393 . S
C798 H790 0.950 . S
C798 C796 1.391 . S
C798 C799 1.400 . S
C799 C798 1.400 . S
C799 C800 1.398 . S
C799 C805 1.491 . S
C800 H791 0.950 . S
C800 C799 1.398 . S
C800 C801 1.391 . S
C801 H789 0.950 . S
C801 C797 1.393 . S
C801 C800 1.391 . S
C802 H792 0.950 . S
C802 C803 1.386 . S
C802 C804 1.391 . S
C803 C802 1.386 . S
C803 C807 1.393 . S
C804 H793 0.950 . S
C804 C802 1.391 . S
C804 C805 1.400 . S
C805 C799 1.491 . S
C805 C804 1.400 . S
C805 C806 1.398 . S
C806 H794 0.950 . S
C806 C805 1.398 . S
C806 C807 1.391 . S
C807 H795 0.950 . S
C807 C803 1.393 . S
C807 C806 1.391 . S
H808 C816 0.950 . S
H809 C821 0.950 . S
H810 C818 0.950 . S
H811 C820 0.950 . S
H812 C822 0.950 . S
H813 C824 0.950 . S
H814 C826 0.950 . S
H815 C827 0.950 . S
C816 H808 0.950 . S
C816 C817 1.386 . S
C816 C818 1.391 . S
C817 C816 1.386 . S
C817 C821 1.393 . S
C818 H810 0.950 . S
C818 C816 1.391 . S
C818 C819 1.400 . S
C819 C818 1.400 . S
C819 C820 1.398 . S
C819 C825 1.491 . S
C820 H811 0.950 . S
C820 C819 1.398 . S
C820 C821 1.391 . S
C821 H809 0.950 . S
C821 C817 1.393 . S
C821 C820 1.391 . S
C822 H812 0.950 . S
C822 C823 1.386 . S
C822 C824 1.391 . S
C823 C822 1.386 . S
C823 C827 1.393 . S
C824 H813 0.950 . S
C824 C822 1.391 . S
C824 C825 1.400 . S
C825 C819 1.491 . S
C825 C824 1.400 . S
C825 C826 1.398 . S
C826 H814 0.950 . S
C826 C825 1.398 . S
C826 C827 1.391 . S
C827 H815 0.950 . S
C827 C823 1.393 . S
C827 C826 1.391 . S
H828 C836 0.950 . S
H829 C841 0.950 . S
H830 C838 0.950 . S
H831 C840 0.950 . S
H832 C842 0.950 . S
H833 C844 0.950 . S
H834 C846 0.950 . S
H835 C847 0.950 . S
C836 H828 0.950 . S
C836 C837 1.386 . S
C836 C838 1.391 . S
C837 C836 1.386 . S
C837 C841 1.393 . S
C838 H830 0.950 . S
C838 C836 1.391 . S
C838 C839 1.400 . S
C839 C838 1.400 . S
C839 C840 1.398 . S
C839 C845 1.491 . S
C840 H831 0.950 . S
C840 C839 1.398 . S
C840 C841 1.391 . S
C841 H829 0.950 . S
C841 C837 1.393 . S
C841 C840 1.391 . S
C842 H832 0.950 . S
C842 C843 1.386 . S
C842 C844 1.391 . S
C843 C842 1.386 . S
C843 C847 1.393 . S
C844 H833 0.950 . S
C844 C842 1.391 . S
C844 C845 1.400 . S
C845 C839 1.491 . S
C845 C844 1.400 . S
C845 C846 1.398 . S
C846 H834 0.950 . S
C846 C845 1.398 . S
C846 C847 1.391 . S
C847 H835 0.950 . S
C847 C843 1.393 . S
C847 C846 1.391 . S
H848 C856 0.950 . S
H849 C861 0.950 . S
H850 C858 0.950 . S
H851 C860 0.950 . S
H852 C862 0.950 . S
H853 C864 0.950 . S
H854 C866 0.950 . S
H855 C867 0.950 . S
C856 H848 0.950 . S
C856 C857 1.386 . S
C856 C858 1.391 . S
C857 C856 1.386 . S
C857 C861 1.393 . S
C858 H850 0.950 . S
C858 C856 1.391 . S
C858 C859 1.400 . S
C859 C858 1.400 . S
C859 C860 1.398 . S
C859 C865 1.491 . S
C860 H851 0.950 . S
C860 C859 1.398 . S
C860 C861 1.391 . S
C861 H849 0.950 . S
C861 C857 1.393 . S
C861 C860 1.391 . S
C862 H852 0.950 . S
C862 C863 1.386 . S
C862 C864 1.391 . S
C863 C862 1.386 . S
C863 C867 1.393 . S
C864 H853 0.950 . S
C864 C862 1.391 . S
C864 C865 1.400 . S
C865 C859 1.491 . S
C865 C864 1.400 . S
C865 C866 1.398 . S
C866 H854 0.950 . S
C866 C865 1.398 . S
C866 C867 1.391 . S
C867 H855 0.950 . S
C867 C863 1.393 . S
C867 C866 1.391 . S
H868 C876 0.950 . S
H869 C881 0.950 . S
H870 C878 0.950 . S
H871 C880 0.950 . S
H872 C882 0.950 . S
H873 C884 0.950 . S
H874 C886 0.950 . S
H875 C887 0.950 . S
C876 H868 0.950 . S
C876 C877 1.386 . S
C876 C878 1.391 . S
C877 C876 1.386 . S
C877 C881 1.393 . S
C878 H870 0.950 . S
C878 C876 1.391 . S
C878 C879 1.400 . S
C879 C878 1.400 . S
C879 C880 1.398 . S
C879 C885 1.491 . S
C880 H871 0.950 . S
C880 C879 1.398 . S
C880 C881 1.391 . S
C881 H869 0.950 . S
C881 C877 1.393 . S
C881 C880 1.391 . S
C882 H872 0.950 . S
C882 C883 1.386 . S
C882 C884 1.391 . S
C883 C882 1.386 . S
C883 C887 1.393 . S
C884 H873 0.950 . S
C884 C882 1.391 . S
C884 C885 1.400 . S
C885 C879 1.491 . S
C885 C884 1.400 . S
C885 C886 1.398 . S
C886 H874 0.950 . S
C886 C885 1.398 . S
C886 C887 1.391 . S
C887 H875 0.950 . S
C887 C883 1.393 . S
C887 C886 1.391 . S
H888 C896 0.950 . S
H889 C901 0.950 . S
H890 C898 0.950 . S
H891 C900 0.950 . S
H892 C902 0.950 . S
H893 C904 0.950 . S
H894 C906 0.950 . S
H895 C907 0.950 . S
C896 H888 0.950 . S
C896 C897 1.386 . S
C896 C898 1.391 . S
C897 C896 1.386 . S
C897 C901 1.393 . S
C898 H890 0.950 . S
C898 C896 1.391 . S
C898 C899 1.400 . S
C899 C898 1.400 . S
C899 C900 1.398 . S
C899 C905 1.491 . S
C900 H891 0.950 . S
C900 C899 1.398 . S
C900 C901 1.391 . S
C901 H889 0.950 . S
C901 C897 1.393 . S
C901 C900 1.391 . S
C902 H892 0.950 . S
C902 C903 1.386 . S
C902 C904 1.391 . S
C903 C902 1.386 . S
C903 C907 1.393 . S
C904 H893 0.950 . S
C904 C902 1.391 . S
C904 C905 1.400 . S
C905 C899 1.491 . S
C905 C904 1.400 . S
C905 C906 1.398 . S
C906 H894 0.950 . S
C906 C905 1.398 . S
C906 C907 1.391 . S
C907 H895 0.950 . S
C907 C903 1.393 . S
C907 C906 1.391 . S
H908 C916 0.950 . S
H909 C921 0.950 . S
H910 C918 0.950 . S
H911 C920 0.950 . S
H912 C922 0.950 . S
H913 C924 0.950 . S
H914 C926 0.950 . S
H915 C927 0.950 . S
C916 H908 0.950 . S
C916 C917 1.386 . S
C916 C918 1.391 . S
C917 C916 1.386 . S
C917 C921 1.393 . S
C918 H910 0.950 . S
C918 C916 1.391 . S
C918 C919 1.400 . S
C919 C918 1.400 . S
C919 C920 1.398 . S
C919 C925 1.491 . S
C920 H911 0.950 . S
C920 C919 1.398 . S
C920 C921 1.391 . S
C921 H909 0.950 . S
C921 C917 1.393 . S
C921 C920 1.391 . S
C922 H912 0.950 . S
C922 C923 1.386 . S
C922 C924 1.391 . S
C923 C922 1.386 . S
C923 C927 1.393 . S
C924 H913 0.950 . S
C924 C922 1.391 . S
C924 C925 1.400 . S
C925 C919 1.491 . S
C925 C924 1.400 . S
C925 C926 1.398 . S
C926 H914 0.950 . S
C926 C925 1.398 . S
C926 C927 1.391 . S
C927 H915 0.950 . S
C927 C923 1.393 . S
C927 C926 1.391 . S
H928 C936 0.950 . S
H929 C941 0.950 . S
H930 C938 0.950 . S
H931 C940 0.950 . S
H932 C942 0.950 . S
H933 C944 0.950 . S
H934 C946 0.950 . S
H935 C947 0.950 . S
C936 H928 0.950 . S
C936 C937 1.386 . S
C936 C938 1.391 . S
C937 C936 1.386 . S
C937 C941 1.393 . S
C938 H930 0.950 . S
C938 C936 1.391 . S
C938 C939 1.400 . S
C939 C938 1.400 . S
C939 C940 1.398 . S
C939 C945 1.491 . S
C940 H931 0.950 . S
C940 C939 1.398 . S
C940 C941 1.391 . S
C941 H929 0.950 . S
C941 C937 1.393 . S
C941 C940 1.391 . S
C942 H932 0.950 . S
C942 C943 1.386 . S
C942 C944 1.391 . S
C943 C942 1.386 . S
C943 C947 1.393 . S
C944 H933 0.950 . S
C944 C942 1.391 . S
C944 C945 1.400 . S
C945 C939 1.491 . S
C945 C944 1.400 . S
C945 C946 1.398 . S
C946 H934 0.950 . S
C946 C945 1.398 . S
C946 C947 1.391 . S
C947 H935 0.950 . S
C947 C943 1.393 . S
C947 C946 1.391 . S
H948 C956 0.950 . S
H949 C961 0.950 . S
H950 C958 0.950 . S
H951 C960 0.950 . S
H952 C962 0.950 . S
H953 C964 0.950 . S
H954 C966 0.950 . S
H955 C967 0.950 . S
C956 H948 0.950 . S
C956 C957 1.386 . S
C956 C958 1.391 . S
C957 C956 1.386 . S
C957 C961 1.393 . S
C958 H950 0.950 . S
C958 C956 1.391 . S
C958 C959 1.400 . S
C959 C958 1.400 . S
C959 C960 1.398 . S
C959 C965 1.491 . S
C960 H951 0.950 . S
C960 C959 1.398 . S
C960 C961 1.391 . S
C961 H949 0.950 . S
C961 C957 1.393 . S
C961 C960 1.391 . S
C962 H952 0.950 . S
C962 C963 1.386 . S
C962 C964 1.391 . S
C963 C962 1.386 . S
C963 C967 1.393 . S
C964 H953 0.950 . S
C964 C962 1.391 . S
C964 C965 1.400 . S
C965 C959 1.491 . S
C965 C964 1.400 . S
C965 C966 1.398 . S
C966 H954 0.950 . S
C966 C965 1.398 . S
C966 C967 1.391 . S
C967 H955 0.950 . S
C967 C963 1.393 . S
C967 C966 1.391 . S
H968 C976 0.950 . S
H969 C981 0.950 . S
H970 C978 0.950 . S
H971 C980 0.950 . S
H972 C982 0.950 . S
H973 C984 0.950 . S
H974 C986 0.950 . S
H975 C987 0.950 1_554 S
C976 H968 0.950 . S
C976 C977 1.386 . S
C976 C978 1.391 . S
C977 C976 1.386 . S
C977 C981 1.393 . S
C978 H970 0.950 . S
C978 C976 1.391 . S
C978 C979 1.400 . S
C979 C978 1.400 . S
C979 C980 1.398 . S
C979 C985 1.491 . S
C980 H971 0.950 . S
C980 C979 1.398 . S
C980 C981 1.391 . S
C981 H969 0.950 . S
C981 C977 1.393 . S
C981 C980 1.391 . S
C982 H972 0.950 . S
C982 C983 1.386 . S
C982 C984 1.391 . S
C983 C982 1.386 . S
C983 C987 1.393 . S
C984 H973 0.950 . S
C984 C982 1.391 . S
C984 C985 1.400 . S
C985 C979 1.491 . S
C985 C984 1.400 . S
C985 C986 1.398 . S
C986 H974 0.950 . S
C986 C985 1.398 . S
C986 C987 1.391 . S
C987 H975 0.950 1_556 S
C987 C983 1.393 . S
C987 C986 1.391 . S
H988 C996 0.950 . S
H989 C1001 0.950 . S
H990 C998 0.950 . S
H991 C1000 0.950 . S
H992 C1002 0.950 . S
H993 C1004 0.950 . S
H994 C1006 0.950 . S
H995 C1007 0.950 . S
C996 H988 0.950 . S
C996 C997 1.386 . S
C996 C998 1.391 . S
C997 C996 1.386 . S
C997 C1001 1.393 . S
C998 H990 0.950 . S
C998 C996 1.391 . S
C998 C999 1.400 . S
C999 C998 1.400 . S
C999 C1000 1.398 . S
C999 C1005 1.491 . S
C1000 H991 0.950 . S
C1000 C999 1.398 . S
C1000 C1001 1.391 . S
C1001 H989 0.950 . S
C1001 C997 1.393 . S
C1001 C1000 1.391 . S
C1002 H992 0.950 . S
C1002 C1003 1.386 . S
C1002 C1004 1.391 . S
C1003 C1002 1.386 . S
C1003 C1007 1.393 . S
C1004 H993 0.950 . S
C1004 C1002 1.391 . S
C1004 C1005 1.400 . S
C1005 C999 1.491 . S
C1005 C1004 1.400 . S
C1005 C1006 1.398 . S
C1006 H994 0.950 . S
C1006 C1005 1.398 . S
C1006 C1007 1.391 . S
C1007 H995 0.950 . S
C1007 C1003 1.393 . S
C1007 C1006 1.391 . S
C377 C7 1.104 1_655 S
C383 N94 1.091 . S
C397 N35 1.114 . S
C403 C131 1.116 . S
C417 N140 1.110 . S
C423 C53 1.114 . S
C437 N81 1.131 . S
C443 C177 1.136 . S
C457 N104 1.060 . S
C463 C16 1.073 . S
C477 N242 0.387 . S
C483 N186 0.375 . S
C497 N150 1.039 . S
C503 C62 1.056 . S
C517 N209 1.044 . S
C523 C260 1.063 . S
C537 C283 1.120 . S
C543 N324 1.102 . S
C557 N196 0.485 . S
C563 N232 0.461 . S
C577 C306 1.088 . S
C583 N347 1.095 . S
C597 C269 1.140 . S
C603 N219 1.134 . S
C617 N334 1.045 . S
C623 C292 1.050 . S
C637 N25 1.068 . S
C643 C122 1.068 . S
C657 C315 1.064 . S
C663 N357 1.066 . S
C677 C168 1.062 . S
C683 N71 1.060 . S
C697 N12 1.504 . S
C703 N163 1.476 . S
C717 C108 1.606 . S
C723 C30 1.599 . S
C737 N117 1.611 . S
C743 N58 1.628 . S
C757 C76 1.624 . S
C763 C154 1.630 . S
C777 N2 1.513 . S
C783 N265 1.511 . S
C797 C200 1.562 . S
C803 C99 1.574 . S
C817 C237 1.682 . S
C823 N48 1.678 . S
C837 C223 1.624 . S
C843 C145 1.635 . S
C857 N288 1.495 . S
C863 N255 1.478 . S
C877 C338 1.596 . S
C883 C191 1.593 . S
C897 C246 1.648 . S
C903 N311 1.653 . S
C917 C361 1.562 . S
C923 C214 1.551 . S
C937 N173 1.515 . S
C943 N278 1.519 . S
C957 C329 1.582 . S
C963 C39 1.560 . S
C977 N127 1.643 . S
C983 N301 1.639 . S
C997 C352 1.562 . S
C1003 C85 1.539 . S
