# Generated by pormake.
# Topology umx, (4)-cn, num edge types: 1
# Building blocks:
#     Node 0, Type 0, BuildingBlock: ICAMEG_clean_sbu_1, # of connection points: 4
#     Node 1, Type 0, BuildingBlock: ICAMEG_clean_sbu_1, # of connection points: 4
#     Node 2, Type 0, BuildingBlock: ICAMEG_clean_sbu_1, # of connection points: 4
#     Node 3, Type 0, BuildingBlock: ICAMEG_clean_sbu_1, # of connection points: 4
#     Node 4, Type 0, BuildingBlock: ICAMEG_clean_sbu_1, # of connection points: 4
#     Node 5, Type 0, BuildingBlock: ICAMEG_clean_sbu_1, # of connection points: 4
#     Node 6, Type 0, BuildingBlock: ICAMEG_clean_sbu_1, # of connection points: 4
#     Node 7, Type 0, BuildingBlock: ICAMEG_clean_sbu_1, # of connection points: 4
#     Edge 8, Type (0, 0), BuildingBlock: EZIPEK_clean_linker_0, # of connection points: 2
#     Edge 9, Type (0, 0), BuildingBlock: EZIPEK_clean_linker_0, # of connection points: 2
#     Edge 10, Type (0, 0), BuildingBlock: EZIPEK_clean_linker_0, # of connection points: 2
#     Edge 11, Type (0, 0), BuildingBlock: EZIPEK_clean_linker_0, # of connection points: 2
#     Edge 12, Type (0, 0), BuildingBlock: EZIPEK_clean_linker_0, # of connection points: 2
#     Edge 13, Type (0, 0), BuildingBlock: EZIPEK_clean_linker_0, # of connection points: 2
#     Edge 14, Type (0, 0), BuildingBlock: EZIPEK_clean_linker_0, # of connection points: 2
#     Edge 15, Type (0, 0), BuildingBlock: EZIPEK_clean_linker_0, # of connection points: 2
#     Edge 16, Type (0, 0), BuildingBlock: EZIPEK_clean_linker_0, # of connection points: 2
#     Edge 17, Type (0, 0), BuildingBlock: EZIPEK_clean_linker_0, # of connection points: 2
#     Edge 18, Type (0, 0), BuildingBlock: EZIPEK_clean_linker_0, # of connection points: 2
#     Edge 19, Type (0, 0), BuildingBlock: EZIPEK_clean_linker_0, # of connection points: 2
#     Edge 20, Type (0, 0), BuildingBlock: EZIPEK_clean_linker_0, # of connection points: 2
#     Edge 21, Type (0, 0), BuildingBlock: EZIPEK_clean_linker_0, # of connection points: 2
#     Edge 22, Type (0, 0), BuildingBlock: EZIPEK_clean_linker_0, # of connection points: 2
#     Edge 23, Type (0, 0), BuildingBlock: EZIPEK_clean_linker_0, # of connection points: 2
# Relax obj value: 0.036
# Max RMSD: 0.110
# Mean RMSD: 0.110
data_MOF--net-umx--node1-ICAMEG_clean_sbu_1--edge1-EZIPEK_clean_linker_0
_symmetry_space_group_name_H-M    P1
_symmetry_Int_Tables_number       1
_symmetry_cell_setting            triclinic
loop_
_symmetry_equiv_pos_as_xyz
'x, y, z'
_cell_length_a     31.186202
_cell_length_b     31.175955
_cell_length_c     22.701335
_cell_angle_alpha  89.918516
_cell_angle_beta   90.042633
_cell_angle_gamma 89.839618
loop_
_atom_site_label
_atom_site_type_symbol
_atom_site_fract_x
_atom_site_fract_y
_atom_site_fract_z
_atom_type_partial_charge
Co0 Co 0.18439 0.50542 0.02852 0.0
Co1 Co 0.15802 0.40025 0.06395 0.0
O2 O 0.18727 0.44347 0.01652 0.0
C3 C 0.15903 0.48991 0.90542 0.0
O4 O 0.13556 0.45824 0.92503 0.0
C5 C 0.25095 0.37686 0.0634 0.0
O6 O 0.25973 0.41663 0.07764 0.0
O7 O 0.17814 0.42801 0.1388 0.0
O8 O 0.18826 0.49789 0.11639 0.0
H9 H 0.0561 0.34196 0.21743 0.0
H10 H 0.24949 0.47138 0.94532 0.0
O11 O 0.18044 0.51318 0.9408 0.0
H12 H 0.33159 0.54795 0.09776 0.0
H13 H 0.21611 0.65824 0.97186 0.0
H14 H 0.14595 0.56478 0.11746 0.0
H15 H 0.25262 0.54575 0.10159 0.0
H16 H 0.21948 0.5797 0.96167 0.0
O17 O 0.21212 0.36428 0.05964 0.0
H18 H 0.08936 0.39799 0.15734 0.0
H19 H 0.16392 0.30483 0.06739 0.0
H20 H 0.14177 0.643 0.12949 0.0
H21 H 0.32839 0.47276 0.9395 0.0
H22 H 0.17701 0.69048 0.05624 0.0
H23 H 0.37004 0.51117 0.01632 0.0
O24 O 0.12046 0.50332 0.03342 0.0
H25 H 0.17207 0.33896 0.8597 0.0
H26 H 0.07319 0.36758 0.02437 0.0
H27 H 0.04579 0.33312 0.93435 0.0
H28 H 0.09533 0.31872 0.85099 0.0
H29 H 0.19774 0.37333 0.9507 0.0
H30 H 0.13127 0.24758 0.12651 0.0
H31 H 0.077 0.26585 0.20248 0.0
O32 O 0.104 0.43668 0.0659 0.0
C33 C 0.18665 0.46682 0.15318 0.0
C34 C 0.08027 0.33362 0.1852 0.0
C35 C 0.12242 0.2807 0.13421 0.0
N36 N 0.13038 0.35553 0.1106 0.0
C37 C 0.09975 0.36554 0.15138 0.0
C38 C 0.14122 0.3135 0.10126 0.0
C39 C 0.09191 0.29094 0.1767 0.0
C40 C 0.26735 0.4881 0.97879 0.0
N41 N 0.24647 0.50788 0.02412 0.0
C42 C 0.31205 0.48882 0.97531 0.0
C43 C 0.33539 0.51035 0.01842 0.0
C44 C 0.31384 0.53096 0.06415 0.0
C45 C 0.26911 0.52947 0.0662 0.0
C46 C 0.20029 0.63792 0.0038 0.0
C47 C 0.16081 0.58494 0.08503 0.0
C48 C 0.2018 0.59334 0.99805 0.0
N49 N 0.18195 0.56737 0.03822 0.0
C50 C 0.1586 0.62938 0.09223 0.0
C51 C 0.17841 0.65599 0.05118 0.0
C52 C 0.09361 0.47506 0.05079 0.0
C53 C 0.15009 0.34514 0.8956 0.0
C54 C 0.095 0.36146 0.98836 0.0
C55 C 0.07927 0.34188 0.93747 0.0
C56 C 0.10706 0.3338 0.89075 0.0
N57 N 0.13716 0.373 0.99255 0.0
C58 C 0.1646 0.36462 0.94723 0.0
Co59 Co 0.4957 0.18341 0.52885 0.0
Co60 Co 0.59569 0.16285 0.58786 0.0
O61 O 0.55804 0.18961 0.52942 0.0
C62 C 0.52593 0.17881 0.40237 0.0
O63 O 0.56556 0.18491 0.41927 0.0
C64 C 0.62549 0.25349 0.57412 0.0
O65 O 0.58542 0.26638 0.57594 0.0
O66 O 0.56166 0.18991 0.65257 0.0
O67 O 0.49411 0.18593 0.61754 0.0
H68 H 0.63022 0.08989 0.77984 0.0
H69 H 0.53283 0.25439 0.4559 0.0
O70 O 0.49518 0.17913 0.43964 0.0
H71 H 0.43687 0.32519 0.59784 0.0
H72 H 0.34656 0.21294 0.45365 0.0
H73 H 0.43325 0.12914 0.59422 0.0
H74 H 0.44459 0.24659 0.59754 0.0
H75 H 0.42501 0.22168 0.4576 0.0
O76 O 0.63484 0.21413 0.58279 0.0
H77 H 0.58287 0.12132 0.70423 0.0
H78 H 0.69059 0.15371 0.59926 0.0
H79 H 0.35495 0.11965 0.59247 0.0
H80 H 0.52581 0.33286 0.45408 0.0
H81 H 0.31093 0.16178 0.52171 0.0
H82 H 0.47754 0.36898 0.5256 0.0
O83 O 0.50215 0.12006 0.53216 0.0
H84 H 0.67745 0.15998 0.3965 0.0
H85 H 0.62428 0.07315 0.56255 0.0
H86 H 0.6627 0.0378 0.48132 0.0
H87 H 0.68962 0.08123 0.39741 0.0
H88 H 0.63805 0.19399 0.47789 0.0
H89 H 0.73927 0.12307 0.674 0.0
H90 H 0.70913 0.09059 0.76492 0.0
O91 O 0.55849 0.10986 0.59244 0.0
C92 C 0.52097 0.191 0.65966 0.0
C93 C 0.64374 0.10345 0.74007 0.0
C94 C 0.70493 0.12215 0.68073 0.0
N95 N 0.63376 0.13802 0.64646 0.0
C96 C 0.61701 0.12092 0.69683 0.0
C97 C 0.67718 0.13934 0.63847 0.0
C98 C 0.688 0.10396 0.73175 0.0
C99 C 0.51167 0.26953 0.48683 0.0
N100 N 0.4893 0.24557 0.5266 0.0
C101 C 0.50783 0.31417 0.48574 0.0
C102 C 0.48082 0.33441 0.5259 0.0
C103 C 0.45804 0.30987 0.56646 0.0
C104 C 0.46273 0.2653 0.5662 0.0
C105 C 0.36533 0.1946 0.48498 0.0
C106 C 0.41442 0.14806 0.56412 0.0
C107 C 0.40981 0.19942 0.48743 0.0
N108 N 0.43377 0.17663 0.52714 0.0
C109 C 0.37003 0.14234 0.56295 0.0
C110 C 0.34537 0.16591 0.52316 0.0
C111 C 0.52591 0.09598 0.56401 0.0
C112 C 0.66577 0.14067 0.43273 0.0
C113 C 0.63526 0.09235 0.52591 0.0
C114 C 0.65735 0.07211 0.48019 0.0
C115 C 0.67253 0.09649 0.43321 0.0
N116 N 0.62809 0.13566 0.52474 0.0
C117 C 0.64352 0.15981 0.4792 0.0
Co118 Co 0.82307 0.49949 0.02801 0.0
Co119 Co 0.84945 0.59929 0.0847 0.0
O120 O 0.82052 0.56234 0.02748 0.0
C121 C 0.83014 0.52798 0.90081 0.0
O122 O 0.82643 0.56807 0.91667 0.0
C123 C 0.75966 0.63323 0.07258 0.0
O124 O 0.74674 0.59331 0.06941 0.0
O125 O 0.8229 0.56624 0.15121 0.0
O126 O 0.8199 0.49859 0.11642 0.0
H127 H 0.9275 0.63059 0.27372 0.0
H128 H 0.75511 0.54366 0.95605 0.0
O129 O 0.82795 0.49778 0.93887 0.0
H130 H 0.67743 0.44939 0.09329 0.0
H131 H 0.78587 0.35192 0.95422 0.0
H132 H 0.87169 0.43405 0.0968 0.0
H133 H 0.75632 0.45213 0.09469 0.0
H134 H 0.78186 0.43085 0.95656 0.0
O135 O 0.79916 0.64088 0.08272 0.0
H136 H 0.89196 0.58488 0.20018 0.0
H137 H 0.86382 0.69379 0.09465 0.0
H138 H 0.8764 0.35524 0.09665 0.0
H139 H 0.67648 0.54118 0.95224 0.0
H140 H 0.83324 0.31352 0.02488 0.0
H141 H 0.6369 0.49391 0.02139 0.0
O142 O 0.88671 0.50142 0.03255 0.0
H143 H 0.85106 0.67655 0.88976 0.0
H144 H 0.93899 0.62673 0.05703 0.0
H145 H 0.97371 0.66372 0.97396 0.0
H146 H 0.92969 0.68906 0.88951 0.0
H147 H 0.81781 0.63857 0.97323 0.0
H148 H 0.89848 0.74092 0.16742 0.0
H149 H 0.931 0.70933 0.25756 0.0
O150 O 0.90129 0.56034 0.08585 0.0
C151 C 0.81808 0.5258 0.15844 0.0
C152 C 0.91395 0.64471 0.23427 0.0
C153 C 0.89756 0.70661 0.1747 0.0
N154 N 0.87707 0.63631 0.14209 0.0
C155 C 0.89414 0.61886 0.19213 0.0
C156 C 0.87799 0.67972 0.13357 0.0
C157 C 0.91579 0.68888 0.22526 0.0
C158 C 0.73853 0.52227 0.98537 0.0
N159 N 0.7607 0.49745 0.02465 0.0
C160 C 0.69377 0.52132 0.98342 0.0
C161 C 0.67158 0.4949 0.02234 0.0
C162 C 0.69429 0.46996 0.06269 0.0
C163 C 0.73903 0.47174 0.06333 0.0
C164 C 0.80468 0.36971 0.9859 0.0
C165 C 0.85245 0.41627 0.06607 0.0
C166 C 0.80259 0.41445 0.98739 0.0
N167 N 0.82602 0.43719 0.02753 0.0
C168 C 0.85541 0.37156 0.06589 0.0
C169 C 0.83125 0.34818 0.02555 0.0
C170 C 0.91296 0.52591 0.05954 0.0
C171 C 0.87062 0.66577 0.92633 0.0
C172 C 0.91954 0.6373 0.02032 0.0
C173 C 0.93942 0.65844 0.97348 0.0
C174 C 0.91472 0.6727 0.92617 0.0
N175 N 0.87621 0.63046 0.02014 0.0
C176 C 0.8519 0.64445 0.97392 0.0
Co177 Co 0.507 0.83156 0.52997 0.0
Co178 Co 0.40283 0.84741 0.5754 0.0
O179 O 0.4452 0.82232 0.52161 0.0
C180 C 0.48701 0.85035 0.40596 0.0
O181 O 0.45288 0.87046 0.42483 0.0
C182 C 0.37429 0.75667 0.55137 0.0
O183 O 0.41452 0.7457 0.5441 0.0
O184 O 0.43362 0.82083 0.64397 0.0
O185 O 0.50269 0.82986 0.6181 0.0
H186 H 0.35485 0.91756 0.76352 0.0
H187 H 0.47917 0.7605 0.4518 0.0
O188 O 0.51301 0.833 0.44206 0.0
H189 H 0.56569 0.69178 0.60758 0.0
H190 H 0.66233 0.81153 0.47585 0.0
H191 H 0.56067 0.88648 0.60659 0.0
H192 H 0.55475 0.77007 0.60696 0.0
H193 H 0.58456 0.79845 0.46776 0.0
O194 O 0.36489 0.79483 0.5672 0.0
H195 H 0.40731 0.88767 0.69357 0.0
H196 H 0.30723 0.85499 0.57529 0.0
H197 H 0.63816 0.90028 0.6165 0.0
H198 H 0.49016 0.68219 0.44999 0.0
H199 H 0.68959 0.86265 0.55079 0.0
H200 H 0.53342 0.64726 0.52856 0.0
O201 O 0.49771 0.89483 0.53042 0.0
H202 H 0.3422 0.84984 0.37002 0.0
H203 H 0.36843 0.93501 0.54924 0.0
H204 H 0.33432 0.96932 0.46324 0.0
H205 H 0.32075 0.92662 0.37286 0.0
H206 H 0.3769 0.81707 0.45674 0.0
H207 H 0.25351 0.88403 0.64421 0.0
H208 H 0.27723 0.91595 0.73895 0.0
O209 O 0.43763 0.90202 0.58379 0.0
C210 C 0.47372 0.82124 0.65598 0.0
C211 C 0.34412 0.90423 0.72206 0.0
C212 C 0.28726 0.88534 0.65517 0.0
N213 N 0.36061 0.87091 0.62946 0.0
C214 C 0.37377 0.8876 0.68202 0.0
C215 C 0.31787 0.86899 0.61624 0.0
C216 C 0.30058 0.90322 0.70832 0.0
C217 C 0.49854 0.74567 0.48567 0.0
N218 N 0.51614 0.76992 0.52951 0.0
C219 C 0.50444 0.70125 0.48462 0.0
C220 C 0.52864 0.68166 0.52877 0.0
C221 C 0.54669 0.70661 0.57317 0.0
C222 C 0.54016 0.75094 0.57276 0.0
C223 C 0.64025 0.82803 0.50483 0.0
C224 C 0.58286 0.86975 0.57815 0.0
C225 C 0.59618 0.82079 0.50041 0.0
N226 N 0.56815 0.84137 0.53708 0.0
C227 C 0.6267 0.8778 0.58382 0.0
C228 C 0.65552 0.85671 0.5469 0.0
C229 C 0.47085 0.91784 0.55878 0.0
C230 C 0.34759 0.86873 0.40929 0.0
C231 C 0.36268 0.91615 0.51012 0.0
C232 C 0.34329 0.93578 0.46155 0.0
C233 C 0.33568 0.91182 0.41086 0.0
N234 N 0.37401 0.87375 0.50844 0.0
C235 C 0.36697 0.85024 0.45868 0.0
Co236 Co 0.18372 0.49237 0.52827 0.0
Co237 Co 0.16276 0.59468 0.47548 0.0
O238 O 0.19041 0.55477 0.53019 0.0
C239 C 0.17865 0.52022 0.65564 0.0
O240 O 0.18523 0.56002 0.63996 0.0
C241 C 0.25467 0.62203 0.4837 0.0
O242 O 0.26677 0.58176 0.48006 0.0
O243 O 0.18605 0.56135 0.40712 0.0
O244 O 0.1864 0.4929 0.43982 0.0
H245 H 0.08357 0.63644 0.29094 0.0
H246 H 0.25456 0.52757 0.60337 0.0
O247 O 0.179 0.49003 0.61749 0.0
H248 H 0.32546 0.43456 0.45784 0.0
H249 H 0.21223 0.34162 0.59811 0.0
H250 H 0.13067 0.43138 0.45866 0.0
H251 H 0.24694 0.44284 0.45772 0.0
H252 H 0.22093 0.42015 0.59763 0.0
O253 O 0.21526 0.63217 0.47788 0.0
H254 H 0.11696 0.58627 0.36135 0.0
H255 H 0.15583 0.69008 0.46938 0.0
H256 H 0.12124 0.35302 0.45694 0.0
H257 H 0.33292 0.51975 0.60577 0.0
H258 H 0.16224 0.30747 0.52713 0.0
H259 H 0.36909 0.47302 0.53242 0.0
O260 O 0.12034 0.49857 0.52467 0.0
H261 H 0.17096 0.67323 0.6691 0.0
H262 H 0.07522 0.62518 0.50962 0.0
H263 H 0.04484 0.66334 0.59473 0.0
H264 H 0.09277 0.68773 0.67533 0.0
H265 H 0.19998 0.63394 0.5841 0.0
H266 H 0.12345 0.74157 0.39976 0.0
H267 H 0.08665 0.71482 0.30999 0.0
O268 O 0.10854 0.55944 0.47406 0.0
C269 C 0.18918 0.52086 0.39867 0.0
C270 C 0.09896 0.64849 0.33032 0.0
C271 C 0.12142 0.70747 0.39132 0.0
N272 N 0.13685 0.63498 0.42061 0.0
C273 C 0.1175 0.62013 0.3707 0.0
C274 C 0.13959 0.67812 0.43069 0.0
C275 C 0.10082 0.69246 0.34094 0.0
C276 C 0.26969 0.50697 0.5717 0.0
N277 N 0.24582 0.48576 0.53068 0.0
C278 C 0.31428 0.50272 0.5731 0.0
C279 C 0.33456 0.47658 0.53191 0.0
C280 C 0.31011 0.45504 0.49004 0.0
C281 C 0.26559 0.46006 0.49006 0.0
C282 C 0.19434 0.36107 0.56709 0.0
C283 C 0.149 0.41189 0.48866 0.0
C284 C 0.19911 0.4056 0.56665 0.0
N285 N 0.17687 0.43043 0.52735 0.0
C286 C 0.14336 0.36747 0.48781 0.0
C287 C 0.1663 0.34194 0.52726 0.0
C288 C 0.09526 0.52513 0.49906 0.0
C289 C 0.14971 0.66267 0.63434 0.0
C290 C 0.09637 0.63494 0.54483 0.0
C291 C 0.07894 0.65694 0.59275 0.0
C292 C 0.10584 0.67073 0.63786 0.0
N293 N 0.13941 0.62651 0.542 0.0
C294 C 0.16601 0.64057 0.58574 0.0
Co295 Co 0.50898 0.18572 0.02914 0.0
Co296 Co 0.40374 0.15785 0.99654 0.0
O297 O 0.44717 0.18768 0.04287 0.0
C298 C 0.49559 0.15976 0.15247 0.0
O299 O 0.46408 0.13581 0.13355 0.0
C300 C 0.3791 0.25047 0.99757 0.0
O301 O 0.41861 0.25984 0.9827 0.0
O302 O 0.43027 0.17833 0.92105 0.0
O303 O 0.50018 0.18985 0.94159 0.0
H304 H 0.34524 0.0554 0.84412 0.0
H305 H 0.47484 0.2502 0.11319 0.0
O306 O 0.51802 0.18166 0.11661 0.0
H307 H 0.54884 0.33371 0.95966 0.0
H308 H 0.66216 0.21916 0.08163 0.0
H309 H 0.56746 0.14855 0.93813 0.0
H310 H 0.54764 0.2547 0.95556 0.0
H311 H 0.58379 0.22145 0.09417 0.0
O312 O 0.36711 0.21146 1.00151 0.0
H313 H 0.40148 0.08964 0.90279 0.0
H314 H 0.30823 0.16221 0.99558 0.0
H315 H 0.64549 0.14547 0.92375 0.0
H316 H 0.47524 0.32912 0.11931 0.0
H317 H 0.6936 0.18095 0.99593 0.0
H318 H 0.51235 0.37148 0.04194 0.0
O319 O 0.50772 0.12172 0.02395 0.0
H320 H 0.34508 0.17154 0.20227 0.0
H321 H 0.37195 0.07278 0.03694 0.0
H322 H 0.33867 0.04523 0.12779 0.0
H323 H 0.32519 0.09471 0.21149 0.0
H324 H 0.37817 0.19737 0.11039 0.0
H325 H 0.2508 0.12861 0.93789 0.0
H326 H 0.269 0.07482 0.86126 0.0
O327 O 0.44079 0.1042 0.99389 0.0
C328 C 0.46865 0.18777 0.90569 0.0
C329 C 0.3369 0.07932 0.87671 0.0
C330 C 0.28394 0.12037 0.92929 0.0
N331 N 0.35889 0.1296 0.95096 0.0
C332 C 0.36891 0.09931 0.90974 0.0
C333 C 0.31683 0.13971 0.96143 0.0
C334 C 0.29415 0.09014 0.88642 0.0
C335 C 0.49102 0.26836 0.07951 0.0
N336 N 0.51066 0.24784 0.03377 0.0
C337 C 0.49118 0.31307 0.08315 0.0
C338 C 0.51198 0.33681 0.03972 0.0
C339 C 0.53242 0.31564 0.99353 0.0
C340 C 0.53152 0.27089 0.99134 0.0
C341 C 0.64157 0.20324 0.05015 0.0
C342 C 0.58791 0.16349 0.97012 0.0
C343 C 0.59709 0.20412 0.05724 0.0
N344 N 0.57079 0.18414 0.01766 0.0
C345 C 0.63223 0.16191 0.96158 0.0
C346 C 0.65919 0.18185 1.00203 0.0
C347 C 0.4796 0.09439 0.00761 0.0
C348 C 0.35088 0.14959 0.16623 0.0
C349 C 0.36619 0.09457 0.07308 0.0
C350 C 0.34729 0.07875 0.12445 0.0
C351 C 0.33974 0.10651 0.17137 0.0
N352 N 0.37757 0.13677 0.06863 0.0
C353 C 0.36967 0.16418 0.11413 0.0
Co354 Co 0.82152 0.50849 0.52756 0.0
Co355 Co 0.85157 0.40364 0.49322 0.0
O356 O 0.82009 0.44634 0.53965 0.0
C357 C 0.84678 0.49471 0.65134 0.0
O358 O 0.87182 0.46401 0.63243 0.0
C359 C 0.76035 0.37237 0.50474 0.0
O360 O 0.74732 0.41236 0.50545 0.0
O361 O 0.83092 0.43075 0.41775 0.0
O362 O 0.81841 0.50043 0.43983 0.0
H363 H 0.95669 0.35126 0.3398 0.0
H364 H 0.75634 0.47325 0.60996 0.0
O365 O 0.82445 0.51676 0.61536 0.0
H366 H 0.67405 0.54949 0.45666 0.0
H367 H 0.7861 0.66103 0.58225 0.0
H368 H 0.85864 0.56811 0.43806 0.0
H369 H 0.75302 0.54737 0.45312 0.0
H370 H 0.78441 0.58251 0.59336 0.0
O371 O 0.79987 0.36396 0.49551 0.0
H372 H 0.91947 0.40515 0.39935 0.0
H373 H 0.85268 0.30755 0.49124 0.0
H374 H 0.86113 0.64634 0.42512 0.0
H375 H 0.67746 0.47517 0.61596 0.0
H376 H 0.8247 0.69355 0.49767 0.0
H377 H 0.6357 0.51327 0.53861 0.0
O378 O 0.88568 0.50794 0.52369 0.0
H379 H 0.83799 0.35263 0.70271 0.0
H380 H 0.93603 0.36938 0.53405 0.0
H381 H 0.96304 0.33767 0.62641 0.0
H382 H 0.91393 0.32926 0.71173 0.0
H383 H 0.81223 0.38357 0.60912 0.0
H384 H 0.88923 0.25243 0.43273 0.0
H385 H 0.94168 0.27398 0.35605 0.0
O386 O 0.90403 0.44164 0.49238 0.0
C387 C 0.82104 0.46938 0.40322 0.0
C388 C 0.93339 0.34143 0.37243 0.0
C389 C 0.89557 0.28603 0.42452 0.0
N390 N 0.88217 0.36025 0.4473 0.0
C391 C 0.91171 0.3721 0.40599 0.0
C392 C 0.87449 0.31762 0.45718 0.0
C393 C 0.92505 0.29811 0.38163 0.0
C394 C 0.73848 0.49026 0.5766 0.0
N395 N 0.75933 0.50987 0.5311 0.0
C396 C 0.69377 0.49107 0.58001 0.0
C397 C 0.67037 0.5124 0.53657 0.0
C398 C 0.69185 0.53267 0.49054 0.0
C399 C 0.73659 0.53118 0.48862 0.0
C400 C 0.80246 0.64084 0.55064 0.0
C401 C 0.8433 0.58817 0.47023 0.0
C402 C 0.80192 0.59626 0.55693 0.0
N403 N 0.82248 0.57046 0.5172 0.0
C404 C 0.84454 0.6326 0.46249 0.0
C405 C 0.82406 0.65906 0.50315 0.0
C406 C 0.9134 0.48017 0.50711 0.0
C407 C 0.85971 0.35601 0.66584 0.0
C408 C 0.91424 0.36525 0.5706 0.0
C409 C 0.92982 0.3475 0.62296 0.0
C410 C 0.90229 0.34288 0.67085 0.0
N411 N 0.87236 0.37793 0.5659 0.0
C412 C 0.8453 0.37362 0.61277 0.0
Co413 Co 0.49566 0.82542 0.02901 0.0
Co414 Co 0.59907 0.84448 0.98044 0.0
O415 O 0.55791 0.81776 0.034 0.0
C416 C 0.52069 0.82999 0.15748 0.0
O417 O 0.56063 0.82208 0.14367 0.0
C418 C 0.62706 0.75249 0.99331 0.0
O419 O 0.58712 0.73994 0.98766 0.0
O420 O 0.56719 0.82009 0.91135 0.0
O421 O 0.49814 0.82216 0.94087 0.0
H422 H 0.64484 0.91952 0.79472 0.0
H423 H 0.52861 0.754 0.10573 0.0
O424 O 0.49135 0.83056 0.11801 0.0
H425 H 0.4374 0.68455 0.95709 0.0
H426 H 0.34265 0.8022 0.09174 0.0
H427 H 0.43799 0.87756 0.95312 0.0
H428 H 0.44645 0.76294 0.9572 0.0
H429 H 0.42095 0.79143 0.09609 0.0
O430 O 0.63676 0.7919 0.98646 0.0
H431 H 0.5932 0.88767 0.86404 0.0
H432 H 0.69453 0.85141 0.97874 0.0
H433 H 0.35988 0.88902 0.94675 0.0
H434 H 0.52007 0.67577 0.10784 0.0
H435 H 0.3116 0.85118 0.01646 0.0
H436 H 0.47423 0.6403 0.03294 0.0
O437 O 0.5026 0.88863 0.0252 0.0
H438 H 0.67267 0.83922 0.17813 0.0
H439 H 0.6291 0.93241 0.01295 0.0
H440 H 0.6652 0.96404 0.09882 0.0
H441 H 0.68733 0.9174 0.1823 0.0
H442 H 0.63552 0.80895 0.09222 0.0
H443 H 0.74746 0.8823 0.9103 0.0
H444 H 0.7227 0.91702 0.81772 0.0
O445 O 0.56397 0.89915 0.9759 0.0
C446 C 0.52685 0.81755 0.90127 0.0
C447 C 0.65601 0.90508 0.83533 0.0
C448 C 0.71359 0.88411 0.90013 0.0
N449 N 0.64054 0.86929 0.92658 0.0
C450 C 0.62681 0.88742 0.8751 0.0
C451 C 0.68342 0.86681 0.93884 0.0
C452 C 0.69969 0.90354 0.84818 0.0
C453 C 0.50842 0.73921 0.07337 0.0
N454 N 0.48814 0.76343 0.03164 0.0
C455 C 0.50375 0.69467 0.07462 0.0
C456 C 0.4781 0.67479 0.03256 0.0
C457 C 0.45747 0.69959 0.99 0.0
C458 C 0.46288 0.74404 0.99021 0.0
C459 C 0.36333 0.8188 0.06104 0.0
C460 C 0.41722 0.86075 0.98327 0.0
C461 C 0.40771 0.8129 0.06339 0.0
N462 N 0.43403 0.83356 0.02456 0.0
C463 C 0.373 0.86747 0.97961 0.0
C464 C 0.34593 0.84627 0.01878 0.0
C465 C 0.52952 0.91323 0.99983 0.0
C466 C 0.66307 0.85991 0.14212 0.0
C467 C 0.63786 0.91183 0.04938 0.0
C468 C 0.6587 0.92996 0.09775 0.0
C469 C 0.67122 0.90377 0.14448 0.0
N470 N 0.62933 0.86881 0.04766 0.0
C471 C 0.64215 0.8429 0.09304 0.0
C472 C 0.15165 0.4748 0.25229 0.0
C473 C 0.18913 0.47779 0.21719 0.0
C474 C 0.22723 0.51071 0.30087 0.0
C475 C 0.19036 0.50491 0.33673 0.0
N476 N 0.12002 0.47371 0.34897 0.0
N477 N 0.26487 0.49132 0.21078 0.0
C478 C 0.1536 0.48422 0.31326 0.0
C479 C 0.22764 0.49385 0.24223 0.0
N480 N 0.11314 0.46588 0.2266 0.0
N481 N 0.26181 0.53224 0.32284 0.0
H482 H 0.26619 0.47768 0.1689 0.0
H483 H 0.29485 0.49896 0.22789 0.0
H484 H 0.2634 0.54283 0.36635 0.0
H485 H 0.2878 0.54173 0.29725 0.0
H486 H 0.08379 0.46835 0.24822 0.0
H487 H 0.11005 0.46076 0.18169 0.0
H488 H 0.09537 0.45321 0.33619 0.0
H489 H 0.11794 0.48312 0.39269 0.0
C490 C 0.48338 0.15584 0.74494 0.0
C491 C 0.50403 0.19257 0.72118 0.0
C492 C 0.49396 0.22946 0.8162 0.0
C493 C 0.47862 0.19071 0.84146 0.0
N494 N 0.4677 0.11457 0.83182 0.0
N495 N 0.53103 0.26421 0.73483 0.0
C496 C 0.4753 0.15342 0.80618 0.0
C497 C 0.51007 0.22937 0.75714 0.0
N498 N 0.47178 0.12258 0.70944 0.0
N499 N 0.49153 0.26657 0.84791 0.0
H500 H 0.54066 0.26623 0.69091 0.0
H501 H 0.54078 0.2901 0.76041 0.0
H502 H 0.47842 0.26762 0.89013 0.0
H503 H 0.49869 0.29668 0.83076 0.0
H504 H 0.45098 0.09834 0.72286 0.0
H505 H 0.48085 0.12023 0.66567 0.0
H506 H 0.47005 0.08544 0.80956 0.0
H507 H 0.464 0.111 0.87696 0.0
C508 C 0.77945 0.49619 0.31416 0.0
C509 C 0.81826 0.48056 0.33922 0.0
C510 C 0.85345 0.4877 0.24318 0.0
C511 C 0.81664 0.50867 0.21991 0.0
N512 N 0.74495 0.53553 0.23424 0.0
N513 N 0.89472 0.47167 0.32998 0.0
C514 C 0.77969 0.51385 0.25583 0.0
C515 C 0.85582 0.47875 0.30422 0.0
N516 N 0.74219 0.49264 0.34532 0.0
N517 N 0.88663 0.47631 0.20728 0.0
H518 H 0.89811 0.46785 0.37515 0.0
H519 H 0.92383 0.47481 0.30788 0.0
H520 H 0.88795 0.48443 0.163 0.0
H521 H 0.91148 0.4561 0.22069 0.0
H522 H 0.71213 0.50012 0.32813 0.0
H523 H 0.74106 0.47832 0.38685 0.0
H524 H 0.71877 0.54438 0.25997 0.0
H525 H 0.74345 0.54688 0.19101 0.0
C526 C 0.50887 0.7776 0.80693 0.0
C527 C 0.51199 0.8166 0.83896 0.0
C528 C 0.4953 0.85708 0.7497 0.0
C529 C 0.48731 0.81857 0.71873 0.0
N530 N 0.48295 0.74149 0.71853 0.0
N531 N 0.49423 0.89195 0.84385 0.0
C532 C 0.49292 0.77846 0.74763 0.0
C533 C 0.50096 0.85583 0.81131 0.0
N534 N 0.52122 0.74007 0.83306 0.0
N535 N 0.49925 0.89503 0.7203 0.0
H536 H 0.49672 0.89241 0.88949 0.0
H537 H 0.48172 0.92016 0.82593 0.0
H538 H 0.49673 0.89742 0.67476 0.0
H539 H 0.50981 0.92306 0.74066 0.0
H540 H 0.52358 0.71103 0.81074 0.0
H541 H 0.53152 0.73858 0.87678 0.0
H542 H 0.48263 0.71141 0.73845 0.0
H543 H 0.4724 0.74134 0.67489 0.0
C544 C 0.81397 0.47816 0.74919 0.0
C545 C 0.84322 0.50255 0.71523 0.0
C546 C 0.86794 0.53917 0.80428 0.0
C547 C 0.83537 0.5181 0.83728 0.0
N548 N 0.77142 0.47442 0.83782 0.0
N549 N 0.89462 0.55982 0.70793 0.0
C550 C 0.8069 0.48921 0.80899 0.0
C551 C 0.86917 0.53419 0.74204 0.0
N552 N 0.79309 0.44419 0.72449 0.0
N553 N 0.89879 0.56252 0.83254 0.0
H554 H 0.89742 0.55608 0.66242 0.0
H555 H 0.91047 0.58674 0.72399 0.0
H556 H 0.8996 0.56667 0.87805 0.0
H557 H 0.92587 0.57465 0.8116 0.0
H558 H 0.77535 0.42215 0.74885 0.0
H559 H 0.79645 0.4359 0.68035 0.0
H560 H 0.74721 0.45701 0.81726 0.0
H561 H 0.76365 0.48327 0.88065 0.0
C562 C 0.47887 0.81062 0.24851 0.0
C563 C 0.51004 0.83677 0.22043 0.0
C564 C 0.52767 0.87025 0.31531 0.0
C565 C 0.49446 0.8463 0.34214 0.0
N566 N 0.43441 0.79803 0.33418 0.0
N567 N 0.5596 0.89626 0.22496 0.0
C568 C 0.46859 0.81811 0.30855 0.0
C569 C 0.5333 0.86788 0.25328 0.0
N570 N 0.46131 0.7766 0.21929 0.0
N571 N 0.55411 0.89501 0.34924 0.0
H572 H 0.56509 0.89567 0.17974 0.0
H573 H 0.57343 0.92273 0.24531 0.0
H574 H 0.5495 0.89957 0.39431 0.0
H575 H 0.58223 0.90888 0.33366 0.0
H576 H 0.44224 0.7535 0.23948 0.0
H577 H 0.46896 0.76878 0.17606 0.0
H578 H 0.41105 0.7817 0.31035 0.0
H579 H 0.42772 0.79992 0.37906 0.0
C580 C 0.19094 0.47016 0.80819 0.0
C581 C 0.16303 0.49673 0.84137 0.0
C582 C 0.14113 0.53439 0.75154 0.0
C583 C 0.17227 0.51071 0.71911 0.0
N584 N 0.23289 0.46215 0.71949 0.0
N585 N 0.11526 0.5574 0.84724 0.0
C586 C 0.19861 0.47992 0.74803 0.0
C587 C 0.13925 0.52988 0.81381 0.0
N588 N 0.21033 0.43563 0.83419 0.0
N589 N 0.11219 0.55995 0.72269 0.0
H590 H 0.11171 0.55399 0.89271 0.0
H591 H 0.10135 0.58533 0.83071 0.0
H592 H 0.11204 0.56418 0.67718 0.0
H593 H 0.08586 0.57413 0.74313 0.0
H594 H 0.22668 0.41202 0.8107 0.0
H595 H 0.20746 0.4288 0.8789 0.0
H596 H 0.25594 0.44326 0.74035 0.0
H597 H 0.24104 0.46966 0.6763 0.0
C598 C 0.48642 0.19962 0.30975 0.0
C599 C 0.5171 0.17311 0.33858 0.0
C600 C 0.53616 0.14032 0.24371 0.0
C601 C 0.50286 0.16401 0.21638 0.0
N602 N 0.44163 0.2111 0.22413 0.0
N603 N 0.56602 0.11279 0.33465 0.0
C604 C 0.47641 0.1919 0.24974 0.0
C605 C 0.5407 0.14201 0.30598 0.0
N606 N 0.46888 0.23401 0.3383 0.0
N607 N 0.56371 0.11651 0.2101 0.0
H608 H 0.56996 0.11236 0.38018 0.0
H609 H 0.58015 0.08652 0.31402 0.0
H610 H 0.56033 0.11319 0.16459 0.0
H611 H 0.59166 0.1026 0.22655 0.0
H612 H 0.45002 0.25711 0.31747 0.0
H613 H 0.47666 0.24223 0.38135 0.0
H614 H 0.41817 0.22745 0.24788 0.0
H615 H 0.43443 0.20796 0.17959 0.0
C616 C 0.97775 0.49724 0.00496 0.0
C617 C 0.95984 0.51435 0.05772 0.0
C618 C 0.0319 0.51202 0.10204 0.0
C619 C 0.0475 0.48803 0.05352 0.0
N620 N 0.03266 0.45272 0.96132 0.0
N621 N 0.97078 0.5309 0.16115 0.0
C622 C 0.01951 0.47881 0.00599 0.0
C623 C 0.98718 0.51997 0.10754 0.0
N624 N 0.95638 0.50129 0.95264 0.0
N625 N 0.05976 0.52819 0.14258 0.0
H626 H 0.93847 0.53604 0.16855 0.0
H627 H 0.98881 0.5304 0.19983 0.0
H628 H 0.09258 0.5229 0.14025 0.0
H629 H 0.05073 0.55003 0.17504 0.0
H630 H 0.96983 0.4929 0.91225 0.0
H631 H 0.92769 0.51816 0.94836 0.0
H632 H 0.01196 0.44126 0.92891 0.0
H633 H 0.06326 0.43957 0.9597 0.0
C634 C 0.49003 0.98703 0.5078 0.0
C635 C 0.47926 0.96539 0.56088 0.0
C636 C 0.50517 0.02728 0.61747 0.0
C637 C 0.51562 0.04909 0.56446 0.0
N638 N 0.52837 0.04505 0.46016 0.0
N639 N 0.46031 0.97434 0.66341 0.0
C640 C 0.51076 0.02761 0.50981 0.0
C641 C 0.48222 0.98802 0.61502 0.0
N642 N 0.47658 0.97044 0.4554 0.0
N643 N 0.51882 0.04257 0.67049 0.0
H644 H 0.43985 0.94828 0.66271 0.0
H645 H 0.45782 0.99224 0.70201 0.0
H646 H 0.53702 0.07013 0.67472 0.0
H647 H 0.51621 0.02524 0.70963 0.0
H648 H 0.48004 0.98583 0.41498 0.0
H649 H 0.45632 0.94406 0.45377 0.0
H650 H 0.53005 0.02924 0.41987 0.0
H651 H 0.54572 0.07358 0.46098 0.0
C652 C 0.02958 0.49951 0.55389 0.0
C653 C 0.04792 0.51617 0.5012 0.0
C654 C 0.97574 0.51693 0.45713 0.0
C655 C 0.95946 0.49329 0.50558 0.0
N656 N 0.97361 0.45652 0.59718 0.0
N657 N 0.03752 0.53373 0.39801 0.0
C658 C 0.98727 0.48272 0.55292 0.0
C659 C 0.02072 0.52327 0.45158 0.0
N660 N 0.05138 0.50204 0.60602 0.0
N661 N 0.94834 0.53394 0.41645 0.0
H662 H 0.07006 0.53727 0.39065 0.0
H663 H 0.01948 0.53437 0.35935 0.0
H664 H 0.9154 0.52958 0.41873 0.0
H665 H 0.95795 0.55547 0.3839 0.0
H666 H 0.03777 0.49404 0.64647 0.0
H667 H 0.0809 0.51724 0.61006 0.0
H668 H 0.99409 0.44406 0.62927 0.0
H669 H 0.94277 0.44419 0.59864 0.0
C670 C 0.52789 0.98852 0.9526 0.0
C671 C 0.52062 0.96084 1.00177 0.0
C672 C 0.48381 0.0203 0.05251 0.0
C673 C 0.49317 0.04835 0.00506 0.0
N674 N 0.53384 0.06133 0.91666 0.0
N675 N 0.50548 0.95698 0.10613 0.0
C676 C 0.51827 0.03312 0.95731 0.0
C677 C 0.50241 0.97862 0.05389 0.0
N678 N 0.54227 0.97263 0.90027 0.0
N679 N 0.4573 0.03329 0.0968 0.0
H680 H 0.52221 0.92821 0.11044 0.0
H681 H 0.49646 0.97015 0.14643 0.0
H682 H 0.44436 0.06397 0.09862 0.0
H683 H 0.44543 0.01251 0.12885 0.0
H684 H 0.54207 0.99023 0.86121 0.0
H685 H 0.55129 0.94106 0.89416 0.0
H686 H 0.55675 0.05318 0.88519 0.0
H687 H 0.52659 0.09382 0.91764 0.0
C688 C 0.30891 0.32404 0.09094 0.0
C689 C 0.28635 0.34708 0.04689 0.0
C690 C 0.32515 0.30733 0.97003 0.0
C691 C 0.34885 0.28546 0.01406 0.0
N692 N 0.37274 0.28321 0.115 0.0
N693 N 0.28315 0.37033 0.94568 0.0
C694 C 0.34351 0.29676 0.07423 0.0
C695 C 0.29739 0.34156 0.98665 0.0
N696 N 0.29706 0.32779 0.14863 0.0
N697 N 0.32871 0.29517 0.91245 0.0
H698 H 0.26515 0.39719 0.9572 0.0
H699 H 0.29309 0.37025 0.90189 0.0
H700 H 0.34967 0.27109 0.89853 0.0
H701 H 0.30871 0.30686 0.8793 0.0
H702 H 0.30931 0.30822 0.1819 0.0
H703 H 0.27271 0.34843 0.16257 0.0
H704 H 0.37273 0.29336 0.1587 0.0
H705 H 0.39985 0.26562 0.10336 0.0
C706 C 0.68907 0.33643 0.48501 0.0
C707 C 0.72842 0.33734 0.5167 0.0
C708 C 0.69832 0.28644 0.58856 0.0
C709 C 0.66015 0.28348 0.55509 0.0
N710 N 0.62506 0.29604 0.46187 0.0
N711 N 0.77422 0.29982 0.58634 0.0
C712 C 0.65696 0.30598 0.50069 0.0
C713 C 0.73431 0.30833 0.56471 0.0
N714 N 0.68266 0.36379 0.43873 0.0
N715 N 0.70007 0.26933 0.64398 0.0
H716 H 0.80194 0.31077 0.56639 0.0
H717 H 0.7802 0.27656 0.61834 0.0
H718 H 0.67414 0.25381 0.6636 0.0
H719 H 0.72564 0.27454 0.67266 0.0
H720 H 0.65275 0.36866 0.41932 0.0
H721 H 0.70694 0.38282 0.42107 0.0
H722 H 0.62326 0.30842 0.4193 0.0
H723 H 0.60329 0.27147 0.46961 0.0
C724 C 0.73668 0.70078 0.01699 0.0
C725 C 0.72799 0.66879 0.06029 0.0
C726 C 0.65437 0.69738 0.06712 0.0
C727 C 0.66096 0.72222 0.01524 0.0
N728 N 0.70792 0.74126 0.93499 0.0
N729 N 0.67722 0.63782 0.12835 0.0
C730 C 0.70198 0.722 0.98846 0.0
C731 C 0.68621 0.66716 0.08538 0.0
N732 N 0.77766 0.71313 0.00504 0.0
N733 N 0.61941 0.70498 0.10176 0.0
H734 H 0.70079 0.61935 0.14899 0.0
H735 H 0.64611 0.63113 0.14226 0.0
H736 H 0.59774 0.72957 0.09305 0.0
H737 H 0.61479 0.6907 0.14276 0.0
H738 H 0.78495 0.73823 0.9764 0.0
H739 H 0.80365 0.70366 0.03046 0.0
H740 H 0.73636 0.73841 0.91118 0.0
H741 H 0.6831 0.75597 0.91158 0.0
C742 C 0.34199 0.68327 0.56793 0.0
C743 C 0.33998 0.72403 0.53987 0.0
C744 C 0.28616 0.6957 0.47103 0.0
C745 C 0.28568 0.6561 0.50167 0.0
N746 N 0.30394 0.61785 0.59083 0.0
N747 N 0.29741 0.77181 0.47886 0.0
C748 C 0.31126 0.65122 0.55321 0.0
C749 C 0.30825 0.73122 0.49572 0.0
N750 N 0.37231 0.67543 0.61009 0.0
N751 N 0.26636 0.69935 0.41752 0.0
H752 H 0.30841 0.7988 0.50063 0.0
H753 H 0.2724 0.77849 0.44976 0.0
H754 H 0.25093 0.67375 0.39701 0.0
H755 H 0.26937 0.72638 0.39078 0.0
H756 H 0.37884 0.64479 0.62626 0.0
H757 H 0.39212 0.69924 0.62727 0.0
H758 H 0.31885 0.61473 0.63169 0.0
H759 H 0.27908 0.59618 0.58458 0.0
loop_
_geom_bond_atom_site_label_1
_geom_bond_atom_site_label_2
_geom_bond_distance
_geom_bond_site_symmetry_2
_ccdc_geom_bond_type
Co0 O2 2.143 . S
Co0 O8 2.074 . S
Co0 O11 2.093 1_554 S
Co0 O24 2.097 . S
Co0 N41 2.151 . S
Co0 N49 2.214 . S
Co1 O2 2.160 . S
Co1 O7 2.058 . S
Co1 O17 2.057 . S
Co1 O32 2.037 . S
Co1 N36 2.145 . S
Co1 N57 2.256 . S
O2 Co0 2.143 . S
O2 Co1 2.160 . S
C3 O4 1.278 . S
C3 O11 1.224 . S
O4 C3 1.278 . S
C5 O6 1.245 . S
C5 O17 1.232 . S
O6 C5 1.245 . S
O7 Co1 2.058 . S
O7 C33 1.269 . S
O8 Co0 2.074 . S
O8 C33 1.257 . S
H9 C34 0.930 . S
H10 C40 0.930 . S
O11 Co0 2.093 1_556 S
O11 C3 1.224 . S
H12 C44 0.929 . S
H13 C46 0.926 1_556 S
H14 C47 0.930 . S
H15 C45 0.929 . S
H16 C48 0.928 1_556 S
O17 Co1 2.057 . S
O17 C5 1.232 . S
H18 C37 0.929 . S
H19 C38 0.929 . S
H20 C50 0.931 . S
H21 C42 0.929 . S
H22 C51 0.930 . S
H23 C43 0.931 . S
O24 Co0 2.097 . S
O24 C52 1.214 . S
H25 C53 0.929 . S
H26 C54 0.929 1_554 S
H27 C55 0.930 . S
H28 C56 0.929 . S
H29 C58 0.930 . S
H30 C35 0.930 . S
H31 C39 0.930 . S
O32 Co1 2.037 . S
O32 C52 1.234 . S
C33 O7 1.269 . S
C33 O8 1.257 . S
C34 H9 0.930 . S
C34 C37 1.388 . S
C34 C39 1.418 . S
C35 H30 0.930 . S
C35 C38 1.404 . S
C35 C39 1.353 . S
N36 Co1 2.145 . S
N36 C37 1.397 . S
N36 C38 1.334 . S
C37 H18 0.929 . S
C37 C34 1.388 . S
C37 N36 1.397 . S
C38 H19 0.929 . S
C38 C35 1.404 . S
C38 N36 1.334 . S
C39 H31 0.930 . S
C39 C34 1.418 . S
C39 C35 1.353 . S
C40 H10 0.930 . S
C40 N41 1.330 1_556 S
C40 C42 1.446 . S
N41 Co0 2.151 . S
N41 C40 1.330 1_554 S
N41 C45 1.418 . S
C42 H21 0.929 . S
C42 C40 1.446 . S
C42 C43 1.332 1_556 S
C43 H23 0.931 . S
C43 C42 1.332 1_554 S
C43 C44 1.267 . S
C44 H12 0.929 . S
C44 C43 1.267 . S
C44 C45 1.251 . S
C45 H15 0.929 . S
C45 N41 1.418 . S
C45 C44 1.251 . S
C46 H13 0.926 1_554 S
C46 C48 1.406 . S
C46 C51 1.261 . S
C47 H14 0.930 . S
C47 N49 1.325 . S
C47 C50 1.357 . S
C48 H16 0.928 1_554 S
C48 C46 1.406 . S
C48 N49 1.261 . S
N49 Co0 2.214 . S
N49 C47 1.325 . S
N49 C48 1.261 . S
C50 H20 0.931 . S
C50 C47 1.357 . S
C50 C51 1.312 . S
C51 H22 0.930 . S
C51 C46 1.261 . S
C51 C50 1.312 . S
C52 O24 1.214 . S
C52 O32 1.234 . S
C53 H25 0.929 . S
C53 C56 1.391 . S
C53 C58 1.391 . S
C54 H26 0.929 1_556 S
C54 C55 1.390 . S
C54 N57 1.391 1_556 S
C55 H27 0.930 . S
C55 C54 1.390 . S
C55 C56 1.392 . S
C56 H28 0.929 . S
C56 C53 1.391 . S
C56 C55 1.392 . S
N57 Co1 2.256 . S
N57 C54 1.391 1_554 S
N57 C58 1.390 1_554 S
C58 H29 0.930 . S
C58 C53 1.391 . S
C58 N57 1.390 1_556 S
Co59 O61 2.143 . S
Co59 O67 2.074 . S
Co59 O70 2.093 . S
Co59 O83 2.097 . S
Co59 N100 2.151 . S
Co59 N108 2.214 . S
Co60 O61 2.160 . S
Co60 O66 2.058 . S
Co60 O76 2.057 . S
Co60 O91 2.037 . S
Co60 N95 2.145 . S
Co60 N116 2.257 . S
O61 Co59 2.143 . S
O61 Co60 2.160 . S
C62 O63 1.278 . S
C62 O70 1.224 . S
O63 C62 1.278 . S
C64 O65 1.245 . S
C64 O76 1.232 . S
O65 C64 1.245 . S
O66 Co60 2.058 . S
O66 C92 1.269 . S
O67 Co59 2.074 . S
O67 C92 1.257 . S
H68 C93 0.930 . S
H69 C99 0.930 . S
O70 Co59 2.093 . S
O70 C62 1.224 . S
H71 C103 0.929 . S
H72 C105 0.930 . S
H73 C106 0.930 . S
H74 C104 0.929 . S
H75 C107 0.928 . S
O76 Co60 2.057 . S
O76 C64 1.232 . S
H77 C96 0.929 . S
H78 C97 0.929 . S
H79 C109 0.931 . S
H80 C101 0.929 . S
H81 C110 0.930 . S
H82 C102 0.931 . S
O83 Co59 2.097 . S
O83 C111 1.214 . S
H84 C112 0.929 . S
H85 C113 0.929 . S
H86 C114 0.930 . S
H87 C115 0.929 . S
H88 C117 0.930 . S
H89 C94 0.930 . S
H90 C98 0.930 . S
O91 Co60 2.037 . S
O91 C111 1.234 . S
C92 O66 1.269 . S
C92 O67 1.257 . S
C93 H68 0.930 . S
C93 C96 1.388 . S
C93 C98 1.418 . S
C94 H89 0.930 . S
C94 C97 1.404 . S
C94 C98 1.353 . S
N95 Co60 2.145 . S
N95 C96 1.397 . S
N95 C97 1.334 . S
C96 H77 0.929 . S
C96 C93 1.388 . S
C96 N95 1.397 . S
C97 H78 0.929 . S
C97 C94 1.404 . S
C97 N95 1.334 . S
C98 H90 0.930 . S
C98 C93 1.418 . S
C98 C94 1.353 . S
C99 H69 0.930 . S
C99 N100 1.330 . S
C99 C101 1.446 . S
N100 Co59 2.151 . S
N100 C99 1.330 . S
N100 C104 1.418 . S
C101 H80 0.929 . S
C101 C99 1.446 . S
C101 C102 1.332 . S
C102 H82 0.931 . S
C102 C101 1.332 . S
C102 C103 1.267 . S
C103 H71 0.929 . S
C103 C102 1.267 . S
C103 C104 1.251 . S
C104 H74 0.929 . S
C104 N100 1.418 . S
C104 C103 1.251 . S
C105 H72 0.930 . S
C105 C107 1.406 . S
C105 C110 1.261 . S
C106 H73 0.930 . S
C106 N108 1.325 . S
C106 C109 1.357 . S
C107 H75 0.928 . S
C107 C105 1.406 . S
C107 N108 1.261 . S
N108 Co59 2.214 . S
N108 C106 1.325 . S
N108 C107 1.261 . S
C109 H79 0.931 . S
C109 C106 1.357 . S
C109 C110 1.312 . S
C110 H81 0.930 . S
C110 C105 1.261 . S
C110 C109 1.312 . S
C111 O83 1.214 . S
C111 O91 1.234 . S
C112 H84 0.929 . S
C112 C115 1.391 . S
C112 C117 1.391 . S
C113 H85 0.929 . S
C113 C114 1.390 . S
C113 N116 1.391 . S
C114 H86 0.930 . S
C114 C113 1.390 . S
C114 C115 1.392 . S
C115 H87 0.929 . S
C115 C112 1.391 . S
C115 C114 1.392 . S
N116 Co60 2.257 . S
N116 C113 1.391 . S
N116 C117 1.388 . S
C117 H88 0.930 . S
C117 C112 1.391 . S
C117 N116 1.388 . S
Co118 O120 2.143 . S
Co118 O126 2.074 . S
Co118 O129 2.093 1_554 S
Co118 O142 2.097 . S
Co118 N159 2.151 . S
Co118 N167 2.214 . S
Co119 O120 2.160 . S
Co119 O125 2.058 . S
Co119 O135 2.057 . S
Co119 O150 2.037 . S
Co119 N154 2.145 . S
Co119 N175 2.256 . S
O120 Co118 2.143 . S
O120 Co119 2.160 . S
C121 O122 1.278 . S
C121 O129 1.224 . S
O122 C121 1.278 . S
C123 O124 1.245 . S
C123 O135 1.232 . S
O124 C123 1.245 . S
O125 Co119 2.058 . S
O125 C151 1.269 . S
O126 Co118 2.074 . S
O126 C151 1.257 . S
H127 C152 0.930 . S
H128 C158 0.930 . S
O129 Co118 2.093 1_556 S
O129 C121 1.224 . S
H130 C162 0.929 . S
H131 C164 0.926 1_556 S
H132 C165 0.930 . S
H133 C163 0.929 . S
H134 C166 0.928 1_556 S
O135 Co119 2.057 . S
O135 C123 1.232 . S
H136 C155 0.929 . S
H137 C156 0.929 . S
H138 C168 0.931 . S
H139 C160 0.929 . S
H140 C169 0.930 . S
H141 C161 0.931 . S
O142 Co118 2.097 . S
O142 C170 1.214 . S
H143 C171 0.929 . S
H144 C172 0.929 1_554 S
H145 C173 0.930 . S
H146 C174 0.929 . S
H147 C176 0.930 . S
H148 C153 0.930 . S
H149 C157 0.930 . S
O150 Co119 2.037 . S
O150 C170 1.234 . S
C151 O125 1.269 . S
C151 O126 1.257 . S
C152 H127 0.930 . S
C152 C155 1.388 . S
C152 C157 1.418 . S
C153 H148 0.930 . S
C153 C156 1.404 . S
C153 C157 1.353 . S
N154 Co119 2.145 . S
N154 C155 1.397 . S
N154 C156 1.334 . S
C155 H136 0.929 . S
C155 C152 1.388 . S
C155 N154 1.397 . S
C156 H137 0.929 . S
C156 C153 1.404 . S
C156 N154 1.334 . S
C157 H149 0.930 . S
C157 C152 1.418 . S
C157 C153 1.353 . S
C158 H128 0.930 . S
C158 N159 1.330 1_556 S
C158 C160 1.446 . S
N159 Co118 2.151 . S
N159 C158 1.330 1_554 S
N159 C163 1.418 . S
C160 H139 0.929 . S
C160 C158 1.446 . S
C160 C161 1.332 1_556 S
C161 H141 0.931 . S
C161 C160 1.332 1_554 S
C161 C162 1.267 . S
C162 H130 0.929 . S
C162 C161 1.267 . S
C162 C163 1.251 . S
C163 H133 0.929 . S
C163 N159 1.418 . S
C163 C162 1.251 . S
C164 H131 0.926 1_554 S
C164 C166 1.406 . S
C164 C169 1.261 . S
C165 H132 0.930 . S
C165 N167 1.325 . S
C165 C168 1.357 . S
C166 H134 0.928 1_554 S
C166 C164 1.406 . S
C166 N167 1.261 . S
N167 Co118 2.214 . S
N167 C165 1.325 . S
N167 C166 1.261 . S
C168 H138 0.931 . S
C168 C165 1.357 . S
C168 C169 1.312 . S
C169 H140 0.930 . S
C169 C164 1.261 . S
C169 C168 1.312 . S
C170 O142 1.214 . S
C170 O150 1.234 . S
C171 H143 0.929 . S
C171 C174 1.391 . S
C171 C176 1.391 . S
C172 H144 0.929 1_556 S
C172 C173 1.390 . S
C172 N175 1.391 1_556 S
C173 H145 0.930 . S
C173 C172 1.390 . S
C173 C174 1.392 . S
C174 H146 0.929 . S
C174 C171 1.391 . S
C174 C173 1.392 . S
N175 Co119 2.256 . S
N175 C172 1.391 1_554 S
N175 C176 1.390 1_554 S
C176 H147 0.930 . S
C176 C171 1.391 . S
C176 N175 1.390 1_556 S
Co177 O179 2.143 . S
Co177 O185 2.074 . S
Co177 O188 2.093 . S
Co177 O201 2.097 . S
Co177 N218 2.151 . S
Co177 N226 2.214 . S
Co178 O179 2.160 . S
Co178 O184 2.058 . S
Co178 O194 2.057 . S
Co178 O209 2.037 . S
Co178 N213 2.145 . S
Co178 N234 2.257 . S
O179 Co177 2.143 . S
O179 Co178 2.160 . S
C180 O181 1.278 . S
C180 O188 1.224 . S
O181 C180 1.278 . S
C182 O183 1.245 . S
C182 O194 1.232 . S
O183 C182 1.245 . S
O184 Co178 2.058 . S
O184 C210 1.269 . S
O185 Co177 2.074 . S
O185 C210 1.257 . S
H186 C211 0.930 . S
H187 C217 0.930 . S
O188 Co177 2.093 . S
O188 C180 1.224 . S
H189 C221 0.929 . S
H190 C223 0.930 . S
H191 C224 0.930 . S
H192 C222 0.929 . S
H193 C225 0.928 . S
O194 Co178 2.057 . S
O194 C182 1.232 . S
H195 C214 0.929 . S
H196 C215 0.929 . S
H197 C227 0.931 . S
H198 C219 0.929 . S
H199 C228 0.930 . S
H200 C220 0.931 . S
O201 Co177 2.097 . S
O201 C229 1.214 . S
H202 C230 0.929 . S
H203 C231 0.929 . S
H204 C232 0.930 . S
H205 C233 0.929 . S
H206 C235 0.930 . S
H207 C212 0.930 . S
H208 C216 0.930 . S
O209 Co178 2.037 . S
O209 C229 1.234 . S
C210 O184 1.269 . S
C210 O185 1.257 . S
C211 H186 0.930 . S
C211 C214 1.388 . S
C211 C216 1.418 . S
C212 H207 0.930 . S
C212 C215 1.404 . S
C212 C216 1.353 . S
N213 Co178 2.145 . S
N213 C214 1.397 . S
N213 C215 1.334 . S
C214 H195 0.929 . S
C214 C211 1.388 . S
C214 N213 1.397 . S
C215 H196 0.929 . S
C215 C212 1.404 . S
C215 N213 1.334 . S
C216 H208 0.930 . S
C216 C211 1.418 . S
C216 C212 1.353 . S
C217 H187 0.930 . S
C217 N218 1.330 . S
C217 C219 1.446 . S
N218 Co177 2.151 . S
N218 C217 1.330 . S
N218 C222 1.418 . S
C219 H198 0.929 . S
C219 C217 1.446 . S
C219 C220 1.332 . S
C220 H200 0.931 . S
C220 C219 1.332 . S
C220 C221 1.267 . S
C221 H189 0.929 . S
C221 C220 1.267 . S
C221 C222 1.251 . S
C222 H192 0.929 . S
C222 N218 1.418 . S
C222 C221 1.251 . S
C223 H190 0.930 . S
C223 C225 1.406 . S
C223 C228 1.261 . S
C224 H191 0.930 . S
C224 N226 1.325 . S
C224 C227 1.357 . S
C225 H193 0.928 . S
C225 C223 1.406 . S
C225 N226 1.261 . S
N226 Co177 2.214 . S
N226 C224 1.325 . S
N226 C225 1.261 . S
C227 H197 0.931 . S
C227 C224 1.357 . S
C227 C228 1.312 . S
C228 H199 0.930 . S
C228 C223 1.261 . S
C228 C227 1.312 . S
C229 O201 1.214 . S
C229 O209 1.234 . S
C230 H202 0.929 . S
C230 C233 1.391 . S
C230 C235 1.391 . S
C231 H203 0.929 . S
C231 C232 1.390 . S
C231 N234 1.391 . S
C232 H204 0.930 . S
C232 C231 1.390 . S
C232 C233 1.392 . S
C233 H205 0.929 . S
C233 C230 1.391 . S
C233 C232 1.392 . S
N234 Co178 2.257 . S
N234 C231 1.391 . S
N234 C235 1.388 . S
C235 H206 0.930 . S
C235 C230 1.391 . S
C235 N234 1.388 . S
Co236 O238 2.143 . S
Co236 O244 2.074 . S
Co236 O247 2.093 . S
Co236 O260 2.097 . S
Co236 N277 2.151 . S
Co236 N285 2.214 . S
Co237 O238 2.160 . S
Co237 O243 2.058 . S
Co237 O253 2.057 . S
Co237 O268 2.037 . S
Co237 N272 2.145 . S
Co237 N293 2.257 . S
O238 Co236 2.143 . S
O238 Co237 2.160 . S
C239 O240 1.278 . S
C239 O247 1.224 . S
O240 C239 1.278 . S
C241 O242 1.245 . S
C241 O253 1.232 . S
O242 C241 1.245 . S
O243 Co237 2.058 . S
O243 C269 1.269 . S
O244 Co236 2.074 . S
O244 C269 1.257 . S
H245 C270 0.930 . S
H246 C276 0.930 . S
O247 Co236 2.093 . S
O247 C239 1.224 . S
H248 C280 0.929 . S
H249 C282 0.930 . S
H250 C283 0.930 . S
H251 C281 0.929 . S
H252 C284 0.928 . S
O253 Co237 2.057 . S
O253 C241 1.232 . S
H254 C273 0.929 . S
H255 C274 0.929 . S
H256 C286 0.931 . S
H257 C278 0.929 . S
H258 C287 0.930 . S
H259 C279 0.931 . S
O260 Co236 2.097 . S
O260 C288 1.214 . S
H261 C289 0.929 . S
H262 C290 0.929 . S
H263 C291 0.930 . S
H264 C292 0.929 . S
H265 C294 0.930 . S
H266 C271 0.930 . S
H267 C275 0.930 . S
O268 Co237 2.037 . S
O268 C288 1.234 . S
C269 O243 1.269 . S
C269 O244 1.257 . S
C270 H245 0.930 . S
C270 C273 1.388 . S
C270 C275 1.418 . S
C271 H266 0.930 . S
C271 C274 1.404 . S
C271 C275 1.353 . S
N272 Co237 2.145 . S
N272 C273 1.397 . S
N272 C274 1.334 . S
C273 H254 0.929 . S
C273 C270 1.388 . S
C273 N272 1.397 . S
C274 H255 0.929 . S
C274 C271 1.404 . S
C274 N272 1.334 . S
C275 H267 0.930 . S
C275 C270 1.418 . S
C275 C271 1.353 . S
C276 H246 0.930 . S
C276 N277 1.330 . S
C276 C278 1.446 . S
N277 Co236 2.151 . S
N277 C276 1.330 . S
N277 C281 1.418 . S
C278 H257 0.929 . S
C278 C276 1.446 . S
C278 C279 1.332 . S
C279 H259 0.931 . S
C279 C278 1.332 . S
C279 C280 1.267 . S
C280 H248 0.929 . S
C280 C279 1.267 . S
C280 C281 1.251 . S
C281 H251 0.929 . S
C281 N277 1.418 . S
C281 C280 1.251 . S
C282 H249 0.930 . S
C282 C284 1.406 . S
C282 C287 1.261 . S
C283 H250 0.930 . S
C283 N285 1.325 . S
C283 C286 1.357 . S
C284 H252 0.928 . S
C284 C282 1.406 . S
C284 N285 1.261 . S
N285 Co236 2.214 . S
N285 C283 1.325 . S
N285 C284 1.261 . S
C286 H256 0.931 . S
C286 C283 1.357 . S
C286 C287 1.312 . S
C287 H258 0.930 . S
C287 C282 1.261 . S
C287 C286 1.312 . S
C288 O260 1.214 . S
C288 O268 1.234 . S
C289 H261 0.929 . S
C289 C292 1.391 . S
C289 C294 1.391 . S
C290 H262 0.929 . S
C290 C291 1.390 . S
C290 N293 1.391 . S
C291 H263 0.930 . S
C291 C290 1.390 . S
C291 C292 1.392 . S
C292 H264 0.929 . S
C292 C289 1.391 . S
C292 C291 1.392 . S
N293 Co237 2.257 . S
N293 C290 1.391 . S
N293 C294 1.388 . S
C294 H265 0.930 . S
C294 C289 1.391 . S
C294 N293 1.388 . S
Co295 O297 2.143 . S
Co295 O303 2.074 1_554 S
Co295 O306 2.093 . S
Co295 O319 2.097 . S
Co295 N336 2.151 . S
Co295 N344 2.214 . S
Co296 O297 2.160 1_556 S
Co296 O302 2.058 . S
Co296 O312 2.057 . S
Co296 O327 2.037 . S
Co296 N331 2.145 . S
Co296 N352 2.257 1_556 S
O297 Co295 2.143 . S
O297 Co296 2.160 1_554 S
C298 O299 1.278 . S
C298 O306 1.224 . S
O299 C298 1.278 . S
C300 O301 1.245 . S
C300 O312 1.232 1_554 S
O301 C300 1.245 . S
O302 Co296 2.058 . S
O302 C328 1.269 . S
O303 Co295 2.074 1_556 S
O303 C328 1.257 . S
H304 C329 0.930 . S
H305 C335 0.930 . S
O306 Co295 2.093 . S
O306 C298 1.224 . S
H307 C339 0.929 . S
H308 C341 0.930 . S
H309 C342 0.930 . S
H310 C340 0.929 . S
H311 C343 0.928 . S
O312 Co296 2.057 . S
O312 C300 1.232 1_556 S
H313 C332 0.929 . S
H314 C333 0.929 . S
H315 C345 0.931 . S
H316 C337 0.929 . S
H317 C346 0.930 . S
H318 C338 0.931 . S
O319 Co295 2.097 . S
O319 C347 1.214 . S
H320 C348 0.929 . S
H321 C349 0.929 . S
H322 C350 0.930 . S
H323 C351 0.929 . S
H324 C353 0.930 . S
H325 C330 0.930 . S
H326 C334 0.930 . S
O327 Co296 2.037 . S
O327 C347 1.234 1_556 S
C328 O302 1.269 . S
C328 O303 1.257 . S
C329 H304 0.930 . S
C329 C332 1.388 . S
C329 C334 1.418 . S
C330 H325 0.930 . S
C330 C333 1.404 . S
C330 C334 1.353 . S
N331 Co296 2.145 . S
N331 C332 1.397 . S
N331 C333 1.334 . S
C332 H313 0.929 . S
C332 C329 1.388 . S
C332 N331 1.397 . S
C333 H314 0.929 . S
C333 C330 1.404 . S
C333 N331 1.334 . S
C334 H326 0.930 . S
C334 C329 1.418 . S
C334 C330 1.353 . S
C335 H305 0.930 . S
C335 N336 1.330 . S
C335 C337 1.446 . S
N336 Co295 2.151 . S
N336 C335 1.330 . S
N336 C340 1.418 1_554 S
C337 H316 0.929 . S
C337 C335 1.446 . S
C337 C338 1.332 . S
C338 H318 0.931 . S
C338 C337 1.332 . S
C338 C339 1.267 1_554 S
C339 H307 0.929 . S
C339 C338 1.267 1_556 S
C339 C340 1.251 . S
C340 H310 0.929 . S
C340 N336 1.418 1_556 S
C340 C339 1.251 . S
C341 H308 0.930 . S
C341 C343 1.406 . S
C341 C346 1.261 1_554 S
C342 H309 0.930 . S
C342 N344 1.325 1_556 S
C342 C345 1.357 . S
C343 H311 0.928 . S
C343 C341 1.406 . S
C343 N344 1.261 . S
N344 Co295 2.214 . S
N344 C342 1.325 1_554 S
N344 C343 1.261 . S
C345 H315 0.931 . S
C345 C342 1.357 . S
C345 C346 1.312 . S
C346 H317 0.930 . S
C346 C341 1.261 1_556 S
C346 C345 1.312 . S
C347 O319 1.214 . S
C347 O327 1.234 1_554 S
C348 H320 0.929 . S
C348 C351 1.391 . S
C348 C353 1.391 . S
C349 H321 0.929 . S
C349 C350 1.390 . S
C349 N352 1.391 . S
C350 H322 0.930 . S
C350 C349 1.390 . S
C350 C351 1.392 . S
C351 H323 0.929 . S
C351 C348 1.391 . S
C351 C350 1.392 . S
N352 Co296 2.257 1_554 S
N352 C349 1.391 . S
N352 C353 1.388 . S
C353 H324 0.930 . S
C353 C348 1.391 . S
C353 N352 1.388 . S
Co354 O356 2.143 . S
Co354 O362 2.074 . S
Co354 O365 2.093 . S
Co354 O378 2.097 . S
Co354 N395 2.151 . S
Co354 N403 2.214 . S
Co355 O356 2.160 . S
Co355 O361 2.058 . S
Co355 O371 2.057 . S
Co355 O386 2.037 . S
Co355 N390 2.145 . S
Co355 N411 2.257 . S
O356 Co354 2.143 . S
O356 Co355 2.160 . S
C357 O358 1.278 . S
C357 O365 1.224 . S
O358 C357 1.278 . S
C359 O360 1.245 . S
C359 O371 1.232 . S
O360 C359 1.245 . S
O361 Co355 2.058 . S
O361 C387 1.269 . S
O362 Co354 2.074 . S
O362 C387 1.257 . S
H363 C388 0.930 . S
H364 C394 0.930 . S
O365 Co354 2.093 . S
O365 C357 1.224 . S
H366 C398 0.929 . S
H367 C400 0.930 . S
H368 C401 0.930 . S
H369 C399 0.929 . S
H370 C402 0.928 . S
O371 Co355 2.057 . S
O371 C359 1.232 . S
H372 C391 0.929 . S
H373 C392 0.929 . S
H374 C404 0.931 . S
H375 C396 0.929 . S
H376 C405 0.930 . S
H377 C397 0.931 . S
O378 Co354 2.097 . S
O378 C406 1.214 . S
H379 C407 0.929 . S
H380 C408 0.929 . S
H381 C409 0.930 . S
H382 C410 0.929 . S
H383 C412 0.930 . S
H384 C389 0.930 . S
H385 C393 0.930 . S
O386 Co355 2.037 . S
O386 C406 1.234 . S
C387 O361 1.269 . S
C387 O362 1.257 . S
C388 H363 0.930 . S
C388 C391 1.388 . S
C388 C393 1.418 . S
C389 H384 0.930 . S
C389 C392 1.404 . S
C389 C393 1.353 . S
N390 Co355 2.145 . S
N390 C391 1.397 . S
N390 C392 1.334 . S
C391 H372 0.929 . S
C391 C388 1.388 . S
C391 N390 1.397 . S
C392 H373 0.929 . S
C392 C389 1.404 . S
C392 N390 1.334 . S
C393 H385 0.930 . S
C393 C388 1.418 . S
C393 C389 1.353 . S
C394 H364 0.930 . S
C394 N395 1.330 . S
C394 C396 1.446 . S
N395 Co354 2.151 . S
N395 C394 1.330 . S
N395 C399 1.418 . S
C396 H375 0.929 . S
C396 C394 1.446 . S
C396 C397 1.332 . S
C397 H377 0.931 . S
C397 C396 1.332 . S
C397 C398 1.267 . S
C398 H366 0.929 . S
C398 C397 1.267 . S
C398 C399 1.251 . S
C399 H369 0.929 . S
C399 N395 1.418 . S
C399 C398 1.251 . S
C400 H367 0.930 . S
C400 C402 1.406 . S
C400 C405 1.261 . S
C401 H368 0.930 . S
C401 N403 1.325 . S
C401 C404 1.357 . S
C402 H370 0.928 . S
C402 C400 1.406 . S
C402 N403 1.261 . S
N403 Co354 2.214 . S
N403 C401 1.325 . S
N403 C402 1.261 . S
C404 H374 0.931 . S
C404 C401 1.357 . S
C404 C405 1.312 . S
C405 H376 0.930 . S
C405 C400 1.261 . S
C405 C404 1.312 . S
C406 O378 1.214 . S
C406 O386 1.234 . S
C407 H379 0.929 . S
C407 C410 1.391 . S
C407 C412 1.391 . S
C408 H380 0.929 . S
C408 C409 1.390 . S
C408 N411 1.391 . S
C409 H381 0.930 . S
C409 C408 1.390 . S
C409 C410 1.392 . S
C410 H382 0.929 . S
C410 C407 1.391 . S
C410 C409 1.392 . S
N411 Co355 2.257 . S
N411 C408 1.391 . S
N411 C412 1.388 . S
C412 H383 0.930 . S
C412 C407 1.391 . S
C412 N411 1.388 . S
Co413 O415 2.143 . S
Co413 O421 2.074 1_554 S
Co413 O424 2.093 . S
Co413 O437 2.097 . S
Co413 N454 2.151 . S
Co413 N462 2.214 . S
Co414 O415 2.160 1_556 S
Co414 O420 2.058 . S
Co414 O430 2.057 . S
Co414 O445 2.037 . S
Co414 N449 2.145 . S
Co414 N470 2.257 1_556 S
O415 Co413 2.143 . S
O415 Co414 2.160 1_554 S
C416 O417 1.278 . S
C416 O424 1.224 . S
O417 C416 1.278 . S
C418 O419 1.245 . S
C418 O430 1.232 1_554 S
O419 C418 1.245 . S
O420 Co414 2.058 . S
O420 C446 1.269 . S
O421 Co413 2.074 1_556 S
O421 C446 1.257 . S
H422 C447 0.930 . S
H423 C453 0.930 . S
O424 Co413 2.093 . S
O424 C416 1.224 . S
H425 C457 0.929 . S
H426 C459 0.930 . S
H427 C460 0.930 . S
H428 C458 0.929 . S
H429 C461 0.928 . S
O430 Co414 2.057 . S
O430 C418 1.232 1_556 S
H431 C450 0.929 . S
H432 C451 0.929 . S
H433 C463 0.931 . S
H434 C455 0.929 . S
H435 C464 0.930 . S
H436 C456 0.931 . S
O437 Co413 2.097 . S
O437 C465 1.214 . S
H438 C466 0.929 . S
H439 C467 0.929 . S
H440 C468 0.930 . S
H441 C469 0.929 . S
H442 C471 0.930 . S
H443 C448 0.930 . S
H444 C452 0.930 . S
O445 Co414 2.037 . S
O445 C465 1.234 1_556 S
C446 O420 1.269 . S
C446 O421 1.257 . S
C447 H422 0.930 . S
C447 C450 1.388 . S
C447 C452 1.418 . S
C448 H443 0.930 . S
C448 C451 1.404 . S
C448 C452 1.353 . S
N449 Co414 2.145 . S
N449 C450 1.397 . S
N449 C451 1.334 . S
C450 H431 0.929 . S
C450 C447 1.388 . S
C450 N449 1.397 . S
C451 H432 0.929 . S
C451 C448 1.404 . S
C451 N449 1.334 . S
C452 H444 0.930 . S
C452 C447 1.418 . S
C452 C448 1.353 . S
C453 H423 0.930 . S
C453 N454 1.330 . S
C453 C455 1.446 . S
N454 Co413 2.151 . S
N454 C453 1.330 . S
N454 C458 1.418 1_554 S
C455 H434 0.929 . S
C455 C453 1.446 . S
C455 C456 1.332 . S
C456 H436 0.931 . S
C456 C455 1.332 . S
C456 C457 1.267 1_554 S
C457 H425 0.929 . S
C457 C456 1.267 1_556 S
C457 C458 1.251 . S
C458 H428 0.929 . S
C458 N454 1.418 1_556 S
C458 C457 1.251 . S
C459 H426 0.930 . S
C459 C461 1.406 . S
C459 C464 1.261 1_554 S
C460 H427 0.930 . S
C460 N462 1.325 1_556 S
C460 C463 1.357 . S
C461 H429 0.928 . S
C461 C459 1.406 . S
C461 N462 1.261 . S
N462 Co413 2.214 . S
N462 C460 1.325 1_554 S
N462 C461 1.261 . S
C463 H433 0.931 . S
C463 C460 1.357 . S
C463 C464 1.312 . S
C464 H435 0.930 . S
C464 C459 1.261 1_556 S
C464 C463 1.312 . S
C465 O437 1.214 . S
C465 O445 1.234 1_554 S
C466 H438 0.929 . S
C466 C469 1.391 . S
C466 C471 1.391 . S
C467 H439 0.929 . S
C467 C468 1.390 . S
C467 N470 1.391 . S
C468 H440 0.930 . S
C468 C467 1.390 . S
C468 C469 1.392 . S
C469 H441 0.929 . S
C469 C466 1.391 . S
C469 C468 1.392 . S
N470 Co414 2.257 1_554 S
N470 C467 1.391 . S
N470 C471 1.388 . S
C471 H442 0.930 . S
C471 C466 1.391 . S
C471 N470 1.388 . S
C472 C473 1.363 . S
C472 C478 1.379 . S
C472 N480 1.356 . S
C473 C472 1.363 . S
C473 C479 1.363 . S
C474 C475 1.363 . S
C474 C479 1.379 . S
C474 N481 1.356 . S
C475 C474 1.363 . S
C475 C478 1.363 . S
N476 C478 1.356 . S
N476 H488 0.984 . S
N476 H489 0.985 . S
N477 C479 1.356 . S
N477 H482 0.984 . S
N477 H483 0.985 . S
C478 C472 1.379 . S
C478 C475 1.363 . S
C478 N476 1.356 . S
C479 C473 1.363 . S
C479 C474 1.379 . S
C479 N477 1.356 . S
N480 C472 1.356 . S
N480 H486 0.984 . S
N480 H487 0.984 . S
N481 C474 1.356 . S
N481 H484 0.984 . S
N481 H485 0.985 . S
H482 N477 0.984 . S
H483 N477 0.985 . S
H484 N481 0.984 . S
H485 N481 0.985 . S
H486 N480 0.984 . S
H487 N480 0.984 . S
H488 N476 0.984 . S
H489 N476 0.985 . S
C490 C491 1.363 . S
C490 C496 1.379 . S
C490 N498 1.356 . S
C491 C490 1.363 . S
C491 C497 1.363 . S
C492 C493 1.363 . S
C492 C497 1.379 . S
C492 N499 1.356 . S
C493 C492 1.363 . S
C493 C496 1.363 . S
N494 C496 1.356 . S
N494 H506 0.984 . S
N494 H507 0.985 . S
N495 C497 1.356 . S
N495 H500 0.984 . S
N495 H501 0.985 . S
C496 C490 1.379 . S
C496 C493 1.363 . S
C496 N494 1.356 . S
C497 C491 1.363 . S
C497 C492 1.379 . S
C497 N495 1.356 . S
N498 C490 1.356 . S
N498 H504 0.984 . S
N498 H505 0.984 . S
N499 C492 1.356 . S
N499 H502 0.984 . S
N499 H503 0.985 . S
H500 N495 0.984 . S
H501 N495 0.985 . S
H502 N499 0.984 . S
H503 N499 0.985 . S
H504 N498 0.984 . S
H505 N498 0.984 . S
H506 N494 0.984 . S
H507 N494 0.985 . S
C508 C509 1.363 . S
C508 C514 1.379 . S
C508 N516 1.356 . S
C509 C508 1.363 . S
C509 C515 1.363 . S
C510 C511 1.363 . S
C510 C515 1.379 . S
C510 N517 1.356 . S
C511 C510 1.363 . S
C511 C514 1.363 . S
N512 C514 1.356 . S
N512 H524 0.984 . S
N512 H525 0.985 . S
N513 C515 1.356 . S
N513 H518 0.984 . S
N513 H519 0.985 . S
C514 C508 1.379 . S
C514 C511 1.363 . S
C514 N512 1.356 . S
C515 C509 1.363 . S
C515 C510 1.379 . S
C515 N513 1.356 . S
N516 C508 1.356 . S
N516 H522 0.984 . S
N516 H523 0.984 . S
N517 C510 1.356 . S
N517 H520 0.984 . S
N517 H521 0.985 . S
H518 N513 0.984 . S
H519 N513 0.985 . S
H520 N517 0.984 . S
H521 N517 0.985 . S
H522 N516 0.984 . S
H523 N516 0.984 . S
H524 N512 0.984 . S
H525 N512 0.985 . S
C526 C527 1.363 . S
C526 C532 1.379 . S
C526 N534 1.356 . S
C527 C526 1.363 . S
C527 C533 1.363 . S
C528 C529 1.363 . S
C528 C533 1.379 . S
C528 N535 1.356 . S
C529 C528 1.363 . S
C529 C532 1.363 . S
N530 C532 1.356 . S
N530 H542 0.984 . S
N530 H543 0.985 . S
N531 C533 1.356 . S
N531 H536 0.984 . S
N531 H537 0.985 . S
C532 C526 1.379 . S
C532 C529 1.363 . S
C532 N530 1.356 . S
C533 C527 1.363 . S
C533 C528 1.379 . S
C533 N531 1.356 . S
N534 C526 1.356 . S
N534 H540 0.984 . S
N534 H541 0.984 . S
N535 C528 1.356 . S
N535 H538 0.984 . S
N535 H539 0.985 . S
H536 N531 0.984 . S
H537 N531 0.985 . S
H538 N535 0.984 . S
H539 N535 0.985 . S
H540 N534 0.984 . S
H541 N534 0.984 . S
H542 N530 0.984 . S
H543 N530 0.985 . S
C544 C545 1.363 . S
C544 C550 1.379 . S
C544 N552 1.356 . S
C545 C544 1.363 . S
C545 C551 1.363 . S
C546 C547 1.363 . S
C546 C551 1.379 . S
C546 N553 1.356 . S
C547 C546 1.363 . S
C547 C550 1.363 . S
N548 C550 1.356 . S
N548 H560 0.984 . S
N548 H561 0.985 . S
N549 C551 1.356 . S
N549 H554 0.984 . S
N549 H555 0.985 . S
C550 C544 1.379 . S
C550 C547 1.363 . S
C550 N548 1.356 . S
C551 C545 1.363 . S
C551 C546 1.379 . S
C551 N549 1.356 . S
N552 C544 1.356 . S
N552 H558 0.984 . S
N552 H559 0.984 . S
N553 C546 1.356 . S
N553 H556 0.984 . S
N553 H557 0.985 . S
H554 N549 0.984 . S
H555 N549 0.985 . S
H556 N553 0.984 . S
H557 N553 0.985 . S
H558 N552 0.984 . S
H559 N552 0.984 . S
H560 N548 0.984 . S
H561 N548 0.985 . S
C562 C563 1.363 . S
C562 C568 1.379 . S
C562 N570 1.356 . S
C563 C562 1.363 . S
C563 C569 1.363 . S
C564 C565 1.363 . S
C564 C569 1.379 . S
C564 N571 1.356 . S
C565 C564 1.363 . S
C565 C568 1.363 . S
N566 C568 1.356 . S
N566 H578 0.984 . S
N566 H579 0.985 . S
N567 C569 1.356 . S
N567 H572 0.984 . S
N567 H573 0.985 . S
C568 C562 1.379 . S
C568 C565 1.363 . S
C568 N566 1.356 . S
C569 C563 1.363 . S
C569 C564 1.379 . S
C569 N567 1.356 . S
N570 C562 1.356 . S
N570 H576 0.984 . S
N570 H577 0.984 . S
N571 C564 1.356 . S
N571 H574 0.984 . S
N571 H575 0.985 . S
H572 N567 0.984 . S
H573 N567 0.985 . S
H574 N571 0.984 . S
H575 N571 0.985 . S
H576 N570 0.984 . S
H577 N570 0.984 . S
H578 N566 0.984 . S
H579 N566 0.985 . S
C580 C581 1.363 . S
C580 C586 1.379 . S
C580 N588 1.356 . S
C581 C580 1.363 . S
C581 C587 1.363 . S
C582 C583 1.363 . S
C582 C587 1.379 . S
C582 N589 1.356 . S
C583 C582 1.363 . S
C583 C586 1.363 . S
N584 C586 1.356 . S
N584 H596 0.984 . S
N584 H597 0.985 . S
N585 C587 1.356 . S
N585 H590 0.984 . S
N585 H591 0.985 . S
C586 C580 1.379 . S
C586 C583 1.363 . S
C586 N584 1.356 . S
C587 C581 1.363 . S
C587 C582 1.379 . S
C587 N585 1.356 . S
N588 C580 1.356 . S
N588 H594 0.984 . S
N588 H595 0.984 . S
N589 C582 1.356 . S
N589 H592 0.984 . S
N589 H593 0.985 . S
H590 N585 0.984 . S
H591 N585 0.985 . S
H592 N589 0.984 . S
H593 N589 0.985 . S
H594 N588 0.984 . S
H595 N588 0.984 . S
H596 N584 0.984 . S
H597 N584 0.985 . S
C598 C599 1.363 . S
C598 C604 1.379 . S
C598 N606 1.356 . S
C599 C598 1.363 . S
C599 C605 1.363 . S
C600 C601 1.363 . S
C600 C605 1.379 . S
C600 N607 1.356 . S
C601 C600 1.363 . S
C601 C604 1.363 . S
N602 C604 1.356 . S
N602 H614 0.984 . S
N602 H615 0.985 . S
N603 C605 1.356 . S
N603 H608 0.984 . S
N603 H609 0.985 . S
C604 C598 1.379 . S
C604 C601 1.363 . S
C604 N602 1.356 . S
C605 C599 1.363 . S
C605 C600 1.379 . S
C605 N603 1.356 . S
N606 C598 1.356 . S
N606 H612 0.984 . S
N606 H613 0.984 . S
N607 C600 1.356 . S
N607 H610 0.984 . S
N607 H611 0.985 . S
H608 N603 0.984 . S
H609 N603 0.985 . S
H610 N607 0.984 . S
H611 N607 0.985 . S
H612 N606 0.984 . S
H613 N606 0.984 . S
H614 N602 0.984 . S
H615 N602 0.985 . S
C616 C617 1.363 . S
C616 C622 1.379 1_655 S
C616 N624 1.356 1_554 S
C617 C616 1.363 . S
C617 C623 1.363 . S
C618 C619 1.363 . S
C618 C623 1.379 1_455 S
C618 N625 1.356 . S
C619 C618 1.363 . S
C619 C622 1.363 . S
N620 C622 1.356 1_556 S
N620 H632 0.984 . S
N620 H633 0.985 . S
N621 C623 1.356 . S
N621 H626 0.984 . S
N621 H627 0.985 . S
C622 C616 1.379 1_455 S
C622 C619 1.363 . S
C622 N620 1.356 1_554 S
C623 C617 1.363 . S
C623 C618 1.379 1_655 S
C623 N621 1.356 . S
N624 C616 1.356 1_556 S
N624 H630 0.984 . S
N624 H631 0.984 . S
N625 C618 1.356 . S
N625 H628 0.984 . S
N625 H629 0.985 . S
H626 N621 0.984 . S
H627 N621 0.985 . S
H628 N625 0.984 . S
H629 N625 0.985 . S
H630 N624 0.984 . S
H631 N624 0.984 . S
H632 N620 0.984 . S
H633 N620 0.985 . S
C634 C635 1.363 . S
C634 C640 1.379 1_565 S
C634 N642 1.356 . S
C635 C634 1.363 . S
C635 C641 1.363 . S
C636 C637 1.363 . S
C636 C641 1.379 1_545 S
C636 N643 1.356 . S
C637 C636 1.363 . S
C637 C640 1.363 . S
N638 C640 1.356 . S
N638 H650 0.984 . S
N638 H651 0.985 . S
N639 C641 1.356 . S
N639 H644 0.984 . S
N639 H645 0.985 . S
C640 C634 1.379 1_545 S
C640 C637 1.363 . S
C640 N638 1.356 . S
C641 C635 1.363 . S
C641 C636 1.379 1_565 S
C641 N639 1.356 . S
N642 C634 1.356 . S
N642 H648 0.984 . S
N642 H649 0.984 . S
N643 C636 1.356 . S
N643 H646 0.984 . S
N643 H647 0.985 . S
H644 N639 0.984 . S
H645 N639 0.985 . S
H646 N643 0.984 . S
H647 N643 0.985 . S
H648 N642 0.984 . S
H649 N642 0.984 . S
H650 N638 0.984 . S
H651 N638 0.985 . S
C652 C653 1.363 . S
C652 C658 1.379 1_455 S
C652 N660 1.356 . S
C653 C652 1.363 . S
C653 C659 1.363 . S
C654 C655 1.363 . S
C654 C659 1.379 1_655 S
C654 N661 1.356 . S
C655 C654 1.363 . S
C655 C658 1.363 . S
N656 C658 1.356 . S
N656 H668 0.984 . S
N656 H669 0.985 . S
N657 C659 1.356 . S
N657 H662 0.984 . S
N657 H663 0.985 . S
C658 C652 1.379 1_655 S
C658 C655 1.363 . S
C658 N656 1.356 . S
C659 C653 1.363 . S
C659 C654 1.379 1_455 S
C659 N657 1.356 . S
N660 C652 1.356 . S
N660 H666 0.984 . S
N660 H667 0.984 . S
N661 C654 1.356 . S
N661 H664 0.984 . S
N661 H665 0.985 . S
H662 N657 0.984 . S
H663 N657 0.985 . S
H664 N661 0.984 . S
H665 N661 0.985 . S
H666 N660 0.984 . S
H667 N660 0.984 . S
H668 N656 0.984 . S
H669 N656 0.985 . S
C670 C671 1.363 1_556 S
C670 C676 1.379 1_565 S
C670 N678 1.356 . S
C671 C670 1.363 1_554 S
C671 C677 1.363 . S
C672 C673 1.363 . S
C672 C677 1.379 1_545 S
C672 N679 1.356 . S
C673 C672 1.363 . S
C673 C676 1.363 1_554 S
N674 C676 1.356 . S
N674 H686 0.984 . S
N674 H687 0.985 . S
N675 C677 1.356 . S
N675 H680 0.984 . S
N675 H681 0.985 . S
C676 C670 1.379 1_545 S
C676 C673 1.363 1_556 S
C676 N674 1.356 . S
C677 C671 1.363 . S
C677 C672 1.379 1_565 S
C677 N675 1.356 . S
N678 C670 1.356 . S
N678 H684 0.984 . S
N678 H685 0.984 . S
N679 C672 1.356 . S
N679 H682 0.984 . S
N679 H683 0.985 . S
H680 N675 0.984 . S
H681 N675 0.985 . S
H682 N679 0.984 . S
H683 N679 0.985 . S
H684 N678 0.984 . S
H685 N678 0.984 . S
H686 N674 0.984 . S
H687 N674 0.985 . S
C688 C689 1.363 . S
C688 C694 1.379 . S
C688 N696 1.356 . S
C689 C688 1.363 . S
C689 C695 1.363 1_554 S
C690 C691 1.363 1_556 S
C690 C695 1.379 . S
C690 N697 1.356 . S
C691 C690 1.363 1_554 S
C691 C694 1.363 . S
N692 C694 1.356 . S
N692 H704 0.984 . S
N692 H705 0.985 . S
N693 C695 1.356 . S
N693 H698 0.984 . S
N693 H699 0.985 . S
C694 C688 1.379 . S
C694 C691 1.363 . S
C694 N692 1.356 . S
C695 C689 1.363 1_556 S
C695 C690 1.379 . S
C695 N693 1.356 . S
N696 C688 1.356 . S
N696 H702 0.984 . S
N696 H703 0.984 . S
N697 C690 1.356 . S
N697 H700 0.984 . S
N697 H701 0.985 . S
H698 N693 0.984 . S
H699 N693 0.985 . S
H700 N697 0.984 . S
H701 N697 0.985 . S
H702 N696 0.984 . S
H703 N696 0.984 . S
H704 N692 0.984 . S
H705 N692 0.985 . S
C706 C707 1.363 . S
C706 C712 1.379 . S
C706 N714 1.356 . S
C707 C706 1.363 . S
C707 C713 1.363 . S
C708 C709 1.363 . S
C708 C713 1.379 . S
C708 N715 1.356 . S
C709 C708 1.363 . S
C709 C712 1.363 . S
N710 C712 1.356 . S
N710 H722 0.984 . S
N710 H723 0.985 . S
N711 C713 1.356 . S
N711 H716 0.984 . S
N711 H717 0.985 . S
C712 C706 1.379 . S
C712 C709 1.363 . S
C712 N710 1.356 . S
C713 C707 1.363 . S
C713 C708 1.379 . S
C713 N711 1.356 . S
N714 C706 1.356 . S
N714 H720 0.984 . S
N714 H721 0.984 . S
N715 C708 1.356 . S
N715 H718 0.984 . S
N715 H719 0.985 . S
H716 N711 0.984 . S
H717 N711 0.985 . S
H718 N715 0.984 . S
H719 N715 0.985 . S
H720 N714 0.984 . S
H721 N714 0.984 . S
H722 N710 0.984 . S
H723 N710 0.985 . S
C724 C725 1.363 1_556 S
C724 C730 1.379 . S
C724 N732 1.356 . S
C725 C724 1.363 1_554 S
C725 C731 1.363 . S
C726 C727 1.363 . S
C726 C731 1.379 . S
C726 N733 1.356 . S
C727 C726 1.363 . S
C727 C730 1.363 1_554 S
N728 C730 1.356 . S
N728 H740 0.984 . S
N728 H741 0.985 . S
N729 C731 1.356 . S
N729 H734 0.984 . S
N729 H735 0.985 . S
C730 C724 1.379 . S
C730 C727 1.363 1_556 S
C730 N728 1.356 . S
C731 C725 1.363 . S
C731 C726 1.379 . S
C731 N729 1.356 . S
N732 C724 1.356 . S
N732 H738 0.984 . S
N732 H739 0.984 . S
N733 C726 1.356 . S
N733 H736 0.984 . S
N733 H737 0.985 . S
H734 N729 0.984 . S
H735 N729 0.985 . S
H736 N733 0.984 . S
H737 N733 0.985 . S
H738 N732 0.984 . S
H739 N732 0.984 . S
H740 N728 0.984 . S
H741 N728 0.985 . S
C742 C743 1.363 . S
C742 C748 1.379 . S
C742 N750 1.356 . S
C743 C742 1.363 . S
C743 C749 1.363 . S
C744 C745 1.363 . S
C744 C749 1.379 . S
C744 N751 1.356 . S
C745 C744 1.363 . S
C745 C748 1.363 . S
N746 C748 1.356 . S
N746 H758 0.984 . S
N746 H759 0.985 . S
N747 C749 1.356 . S
N747 H752 0.984 . S
N747 H753 0.985 . S
C748 C742 1.379 . S
C748 C745 1.363 . S
C748 N746 1.356 . S
C749 C743 1.363 . S
C749 C744 1.379 . S
C749 N747 1.356 . S
N750 C742 1.356 . S
N750 H756 0.984 . S
N750 H757 0.984 . S
N751 C744 1.356 . S
N751 H754 0.984 . S
N751 H755 0.985 . S
H752 N747 0.984 . S
H753 N747 0.985 . S
H754 N751 0.984 . S
H755 N751 0.985 . S
H756 N750 0.984 . S
H757 N750 0.984 . S
H758 N746 0.984 . S
H759 N746 0.985 . S
C473 C33 1.531 . S
C475 C269 1.531 . S
C491 C92 1.531 . S
C493 C328 1.531 . S
C509 C387 1.531 . S
C511 C151 1.531 . S
C527 C446 1.531 . S
C529 C210 1.531 . S
C545 C357 1.323 . S
C547 C121 1.323 . S
C563 C416 1.323 . S
C565 C180 1.323 . S
C581 C3 1.323 . S
C583 C239 1.323 . S
C599 C62 1.323 . S
C601 C298 1.323 . S
C617 C170 1.447 . S
C619 C52 1.447 . S
C635 C229 1.447 . S
C637 C111 1.447 . S
C653 C288 1.447 . S
C655 C406 1.447 . S
C671 C465 1.447 . S
C673 C347 1.447 . S
C689 C5 1.483 . S
C691 C300 1.483 . S
C707 C359 1.483 . S
C709 C64 1.483 . S
C725 C123 1.483 . S
C727 C418 1.483 . S
C743 C182 1.483 . S
C745 C241 1.483 . S
