# Generated by pormake.
# Topology ukd, (4)-cn, num edge types: 1
# Building blocks:
#     Node 0, Type 0, BuildingBlock: CEKHIL_clean_sbu_0, # of connection points: 4
#     Node 1, Type 0, BuildingBlock: CEKHIL_clean_sbu_0, # of connection points: 4
#     Node 2, Type 0, BuildingBlock: CEKHIL_clean_sbu_0, # of connection points: 4
#     Node 3, Type 0, BuildingBlock: CEKHIL_clean_sbu_0, # of connection points: 4
#     Node 4, Type 0, BuildingBlock: CEKHIL_clean_sbu_0, # of connection points: 4
#     Node 5, Type 0, BuildingBlock: CEKHIL_clean_sbu_0, # of connection points: 4
#     Node 6, Type 0, BuildingBlock: CEKHIL_clean_sbu_0, # of connection points: 4
#     Node 7, Type 0, BuildingBlock: CEKHIL_clean_sbu_0, # of connection points: 4
#     Node 8, Type 0, BuildingBlock: CEKHIL_clean_sbu_0, # of connection points: 4
#     Node 9, Type 0, BuildingBlock: CEKHIL_clean_sbu_0, # of connection points: 4
#     Node 10, Type 0, BuildingBlock: CEKHIL_clean_sbu_0, # of connection points: 4
#     Node 11, Type 0, BuildingBlock: CEKHIL_clean_sbu_0, # of connection points: 4
#     Node 12, Type 0, BuildingBlock: CEKHIL_clean_sbu_0, # of connection points: 4
#     Node 13, Type 0, BuildingBlock: CEKHIL_clean_sbu_0, # of connection points: 4
#     Node 14, Type 0, BuildingBlock: CEKHIL_clean_sbu_0, # of connection points: 4
#     Node 15, Type 0, BuildingBlock: CEKHIL_clean_sbu_0, # of connection points: 4
#     Node 16, Type 0, BuildingBlock: CEKHIL_clean_sbu_0, # of connection points: 4
#     Node 17, Type 0, BuildingBlock: CEKHIL_clean_sbu_0, # of connection points: 4
#     Node 18, Type 0, BuildingBlock: CEKHIL_clean_sbu_0, # of connection points: 4
#     Node 19, Type 0, BuildingBlock: CEKHIL_clean_sbu_0, # of connection points: 4
#     Node 20, Type 0, BuildingBlock: CEKHIL_clean_sbu_0, # of connection points: 4
#     Node 21, Type 0, BuildingBlock: CEKHIL_clean_sbu_0, # of connection points: 4
#     Node 22, Type 0, BuildingBlock: CEKHIL_clean_sbu_0, # of connection points: 4
#     Node 23, Type 0, BuildingBlock: CEKHIL_clean_sbu_0, # of connection points: 4
#     Node 24, Type 0, BuildingBlock: CEKHIL_clean_sbu_0, # of connection points: 4
#     Node 25, Type 0, BuildingBlock: CEKHIL_clean_sbu_0, # of connection points: 4
#     Node 26, Type 0, BuildingBlock: CEKHIL_clean_sbu_0, # of connection points: 4
#     Node 27, Type 0, BuildingBlock: CEKHIL_clean_sbu_0, # of connection points: 4
#     Node 28, Type 0, BuildingBlock: CEKHIL_clean_sbu_0, # of connection points: 4
#     Node 29, Type 0, BuildingBlock: CEKHIL_clean_sbu_0, # of connection points: 4
#     Node 30, Type 0, BuildingBlock: CEKHIL_clean_sbu_0, # of connection points: 4
#     Node 31, Type 0, BuildingBlock: CEKHIL_clean_sbu_0, # of connection points: 4
#     Edge 32, Type (0, 0), BuildingBlock: TEMPAE_clean_linker_10, # of connection points: 2
#     Edge 33, Type (0, 0), BuildingBlock: TEMPAE_clean_linker_10, # of connection points: 2
#     Edge 34, Type (0, 0), BuildingBlock: TEMPAE_clean_linker_10, # of connection points: 2
#     Edge 35, Type (0, 0), BuildingBlock: TEMPAE_clean_linker_10, # of connection points: 2
#     Edge 36, Type (0, 0), BuildingBlock: TEMPAE_clean_linker_10, # of connection points: 2
#     Edge 37, Type (0, 0), BuildingBlock: TEMPAE_clean_linker_10, # of connection points: 2
#     Edge 38, Type (0, 0), BuildingBlock: TEMPAE_clean_linker_10, # of connection points: 2
#     Edge 39, Type (0, 0), BuildingBlock: TEMPAE_clean_linker_10, # of connection points: 2
#     Edge 40, Type (0, 0), BuildingBlock: TEMPAE_clean_linker_10, # of connection points: 2
#     Edge 41, Type (0, 0), BuildingBlock: TEMPAE_clean_linker_10, # of connection points: 2
#     Edge 42, Type (0, 0), BuildingBlock: TEMPAE_clean_linker_10, # of connection points: 2
#     Edge 43, Type (0, 0), BuildingBlock: TEMPAE_clean_linker_10, # of connection points: 2
#     Edge 44, Type (0, 0), BuildingBlock: TEMPAE_clean_linker_10, # of connection points: 2
#     Edge 45, Type (0, 0), BuildingBlock: TEMPAE_clean_linker_10, # of connection points: 2
#     Edge 46, Type (0, 0), BuildingBlock: TEMPAE_clean_linker_10, # of connection points: 2
#     Edge 47, Type (0, 0), BuildingBlock: TEMPAE_clean_linker_10, # of connection points: 2
#     Edge 48, Type (0, 0), BuildingBlock: TEMPAE_clean_linker_10, # of connection points: 2
#     Edge 49, Type (0, 0), BuildingBlock: TEMPAE_clean_linker_10, # of connection points: 2
#     Edge 50, Type (0, 0), BuildingBlock: TEMPAE_clean_linker_10, # of connection points: 2
#     Edge 51, Type (0, 0), BuildingBlock: TEMPAE_clean_linker_10, # of connection points: 2
#     Edge 52, Type (0, 0), BuildingBlock: TEMPAE_clean_linker_10, # of connection points: 2
#     Edge 53, Type (0, 0), BuildingBlock: TEMPAE_clean_linker_10, # of connection points: 2
#     Edge 54, Type (0, 0), BuildingBlock: TEMPAE_clean_linker_10, # of connection points: 2
#     Edge 55, Type (0, 0), BuildingBlock: TEMPAE_clean_linker_10, # of connection points: 2
#     Edge 56, Type (0, 0), BuildingBlock: TEMPAE_clean_linker_10, # of connection points: 2
#     Edge 57, Type (0, 0), BuildingBlock: TEMPAE_clean_linker_10, # of connection points: 2
#     Edge 58, Type (0, 0), BuildingBlock: TEMPAE_clean_linker_10, # of connection points: 2
#     Edge 59, Type (0, 0), BuildingBlock: TEMPAE_clean_linker_10, # of connection points: 2
#     Edge 60, Type (0, 0), BuildingBlock: TEMPAE_clean_linker_10, # of connection points: 2
#     Edge 61, Type (0, 0), BuildingBlock: TEMPAE_clean_linker_10, # of connection points: 2
#     Edge 62, Type (0, 0), BuildingBlock: TEMPAE_clean_linker_10, # of connection points: 2
#     Edge 63, Type (0, 0), BuildingBlock: TEMPAE_clean_linker_10, # of connection points: 2
#     Edge 64, Type (0, 0), BuildingBlock: TEMPAE_clean_linker_10, # of connection points: 2
#     Edge 65, Type (0, 0), BuildingBlock: TEMPAE_clean_linker_10, # of connection points: 2
#     Edge 66, Type (0, 0), BuildingBlock: TEMPAE_clean_linker_10, # of connection points: 2
#     Edge 67, Type (0, 0), BuildingBlock: TEMPAE_clean_linker_10, # of connection points: 2
#     Edge 68, Type (0, 0), BuildingBlock: TEMPAE_clean_linker_10, # of connection points: 2
#     Edge 69, Type (0, 0), BuildingBlock: TEMPAE_clean_linker_10, # of connection points: 2
#     Edge 70, Type (0, 0), BuildingBlock: TEMPAE_clean_linker_10, # of connection points: 2
#     Edge 71, Type (0, 0), BuildingBlock: TEMPAE_clean_linker_10, # of connection points: 2
#     Edge 72, Type (0, 0), BuildingBlock: TEMPAE_clean_linker_10, # of connection points: 2
#     Edge 73, Type (0, 0), BuildingBlock: TEMPAE_clean_linker_10, # of connection points: 2
#     Edge 74, Type (0, 0), BuildingBlock: TEMPAE_clean_linker_10, # of connection points: 2
#     Edge 75, Type (0, 0), BuildingBlock: TEMPAE_clean_linker_10, # of connection points: 2
#     Edge 76, Type (0, 0), BuildingBlock: TEMPAE_clean_linker_10, # of connection points: 2
#     Edge 77, Type (0, 0), BuildingBlock: TEMPAE_clean_linker_10, # of connection points: 2
#     Edge 78, Type (0, 0), BuildingBlock: TEMPAE_clean_linker_10, # of connection points: 2
#     Edge 79, Type (0, 0), BuildingBlock: TEMPAE_clean_linker_10, # of connection points: 2
#     Edge 80, Type (0, 0), BuildingBlock: TEMPAE_clean_linker_10, # of connection points: 2
#     Edge 81, Type (0, 0), BuildingBlock: TEMPAE_clean_linker_10, # of connection points: 2
#     Edge 82, Type (0, 0), BuildingBlock: TEMPAE_clean_linker_10, # of connection points: 2
#     Edge 83, Type (0, 0), BuildingBlock: TEMPAE_clean_linker_10, # of connection points: 2
#     Edge 84, Type (0, 0), BuildingBlock: TEMPAE_clean_linker_10, # of connection points: 2
#     Edge 85, Type (0, 0), BuildingBlock: TEMPAE_clean_linker_10, # of connection points: 2
#     Edge 86, Type (0, 0), BuildingBlock: TEMPAE_clean_linker_10, # of connection points: 2
#     Edge 87, Type (0, 0), BuildingBlock: TEMPAE_clean_linker_10, # of connection points: 2
#     Edge 88, Type (0, 0), BuildingBlock: TEMPAE_clean_linker_10, # of connection points: 2
#     Edge 89, Type (0, 0), BuildingBlock: TEMPAE_clean_linker_10, # of connection points: 2
#     Edge 90, Type (0, 0), BuildingBlock: TEMPAE_clean_linker_10, # of connection points: 2
#     Edge 91, Type (0, 0), BuildingBlock: TEMPAE_clean_linker_10, # of connection points: 2
#     Edge 92, Type (0, 0), BuildingBlock: TEMPAE_clean_linker_10, # of connection points: 2
#     Edge 93, Type (0, 0), BuildingBlock: TEMPAE_clean_linker_10, # of connection points: 2
#     Edge 94, Type (0, 0), BuildingBlock: TEMPAE_clean_linker_10, # of connection points: 2
#     Edge 95, Type (0, 0), BuildingBlock: TEMPAE_clean_linker_10, # of connection points: 2
# Relax obj value: 0.048
# Max RMSD: 0.075
# Mean RMSD: 0.075
data_MOF--net-ukd--node1-CEKHIL_clean_sbu_0--edge1-TEMPAE_clean_linker_10
_symmetry_space_group_name_H-M    P1
_symmetry_Int_Tables_number       1
_symmetry_cell_setting            triclinic
loop_
_symmetry_equiv_pos_as_xyz
'x, y, z'
_cell_length_a     45.561056
_cell_length_b     45.561215
_cell_length_c     70.947479
_cell_angle_alpha  90.001138
_cell_angle_beta   90.000134
_cell_angle_gamma 90.007098
loop_
_atom_site_label
_atom_site_type_symbol
_atom_site_fract_x
_atom_site_fract_y
_atom_site_fract_z
_atom_type_partial_charge
Co0 Co 0.21042 0.17164 0.33495 0.0
O1 O 0.23048 0.13498 0.33084 0.0
O2 O 0.23049 0.15937 0.35777 0.0
C3 C 0.226 0.1937 0.30837 0.0
O4 O 0.19345 0.21069 0.34421 0.0
Co5 Co 0.16201 0.19246 0.30729 0.0
O6 O 0.16429 0.22966 0.3217 0.0
C7 C 0.1477 0.14731 0.33572 0.0
C8 C 0.23948 0.13677 0.34814 0.0
C9 C 0.17731 0.23153 0.33755 0.0
O10 O 0.17355 0.14999 0.34292 0.0
O11 O 0.13967 0.16083 0.32076 0.0
O12 O 0.2426 0.19324 0.32322 0.0
O13 O 0.20202 0.17868 0.30938 0.0
Co14 Co 0.08378 0.96155 0.58656 0.0
O15 O 0.12099 0.98091 0.5827 0.0
O16 O 0.09643 0.98051 0.6096 0.0
C17 C 0.06208 0.9787 0.56018 0.0
O18 O 0.04467 0.94514 0.5959 0.0
Co19 Co 0.05948 0.91527 0.55869 0.0
O20 O 0.02171 0.92252 0.5719 0.0
C21 C 0.10463 0.89782 0.5867 0.0
C22 C 0.11922 0.98939 0.60013 0.0
C23 C 0.02182 0.9332 0.58848 0.0
O24 O 0.10436 0.92384 0.59384 0.0
O25 O 0.08954 0.89068 0.57215 0.0
O26 O 0.06292 0.99465 0.57533 0.0
O27 O 0.07621 0.95414 0.56089 0.0
Co28 Co 0.29455 0.83558 0.8337 0.0
O29 O 0.2763 0.87357 0.83069 0.0
O30 O 0.27425 0.8467 0.85661 0.0
C31 C 0.27906 0.81606 0.80613 0.0
O32 O 0.30953 0.7951 0.8419 0.0
Co33 Co 0.34326 0.81474 0.80602 0.0
O34 O 0.33871 0.77671 0.81921 0.0
C35 C 0.35818 0.85725 0.83597 0.0
C36 C 0.26661 0.87053 0.84779 0.0
C37 C 0.32513 0.77415 0.83484 0.0
O38 O 0.33209 0.85487 0.84285 0.0
O39 O 0.36619 0.8446 0.82069 0.0
O40 O 0.26171 0.81684 0.82064 0.0
O41 O 0.30372 0.82971 0.80812 0.0
Co42 Co 0.42051 0.04328 0.08628 0.0
O43 O 0.38346 0.02369 0.08219 0.0
O44 O 0.40767 0.02404 0.1092 0.0
C45 C 0.4428 0.02677 0.05991 0.0
O46 O 0.45944 0.05982 0.09588 0.0
Co47 Co 0.4443 0.09035 0.05869 0.0
O48 O 0.48167 0.08515 0.0727 0.0
C49 C 0.39845 0.10666 0.08642 0.0
C50 C 0.38496 0.01524 0.09964 0.0
C51 C 0.48179 0.07333 0.08895 0.0
O52 O 0.39946 0.08071 0.09364 0.0
O53 O 0.41331 0.11412 0.07185 0.0
O54 O 0.44184 0.01053 0.07494 0.0
O55 O 0.42834 0.05111 0.06069 0.0
Co56 Co 0.21013 0.83467 0.16557 0.0
O57 O 0.22809 0.87272 0.16907 0.0
O58 O 0.23044 0.84656 0.14284 0.0
C59 C 0.22563 0.81442 0.19291 0.0
O60 O 0.19549 0.79442 0.15677 0.0
Co61 Co 0.16143 0.81268 0.19302 0.0
O62 O 0.16335 0.7762 0.17791 0.0
C63 C 0.14643 0.85605 0.16363 0.0
C64 C 0.2379 0.87018 0.15196 0.0
C65 C 0.17817 0.77404 0.16274 0.0
O66 O 0.17244 0.85386 0.15659 0.0
O67 O 0.13868 0.84322 0.17889 0.0
O68 O 0.24307 0.81578 0.17847 0.0
O69 O 0.20088 0.82791 0.19104 0.0
Co70 Co 0.42047 0.96349 0.41471 0.0
O71 O 0.3829 0.98251 0.4174 0.0
O72 O 0.40963 0.98269 0.39133 0.0
C73 C 0.44033 0.98052 0.44168 0.0
O74 O 0.46055 0.94732 0.40685 0.0
Co75 Co 0.44097 0.91676 0.44358 0.0
O76 O 0.4794 0.92099 0.43074 0.0
C77 C 0.39821 0.90006 0.41411 0.0
C78 C 0.38601 0.99114 0.40009 0.0
C79 C 0.48177 0.93292 0.41456 0.0
O80 O 0.40047 0.92577 0.40663 0.0
O81 O 0.41108 0.89296 0.4295 0.0
O82 O 0.44037 0.99659 0.42659 0.0
O83 O 0.42593 0.95615 0.44059 0.0
Co84 Co 0.29175 0.17079 0.66744 0.0
O85 O 0.27169 0.13389 0.67074 0.0
O86 O 0.27253 0.15933 0.64418 0.0
C87 C 0.2753 0.19227 0.69404 0.0
O88 O 0.30905 0.21007 0.65892 0.0
Co89 Co 0.33914 0.19086 0.69602 0.0
O90 O 0.33697 0.22862 0.68219 0.0
C91 C 0.35443 0.14648 0.66732 0.0
C92 C 0.26347 0.13626 0.6533 0.0
C93 C 0.32469 0.23085 0.66611 0.0
O94 O 0.32886 0.14939 0.65978 0.0
O95 O 0.36199 0.15962 0.68252 0.0
O96 O 0.25921 0.19211 0.67894 0.0
O97 O 0.29922 0.17711 0.69321 0.0
Co98 Co 0.08575 0.04271 0.91648 0.0
O99 O 0.12355 0.02417 0.91961 0.0
O100 O 0.09724 0.02298 0.89343 0.0
C101 C 0.06558 0.02664 0.9437 0.0
O102 O 0.04551 0.05818 0.90814 0.0
Co103 Co 0.06475 0.09076 0.94463 0.0
O104 O 0.02704 0.08714 0.93093 0.0
C105 C 0.10833 0.10604 0.91543 0.0
C106 C 0.12085 0.01499 0.90238 0.0
C107 C 0.02463 0.07392 0.91518 0.0
O108 O 0.10545 0.08038 0.90797 0.0
O109 O 0.09569 0.11349 0.93083 0.0
O110 O 0.06651 0.00963 0.92903 0.0
O111 O 0.07946 0.05122 0.94206 0.0
Co112 Co 0.78791 0.83429 0.6652 0.0
O113 O 0.76946 0.87214 0.66778 0.0
O114 O 0.76657 0.84414 0.64238 0.0
C115 C 0.77391 0.81586 0.69336 0.0
O116 O 0.80345 0.79378 0.65778 0.0
Co117 Co 0.83852 0.81755 0.6927 0.0
O118 O 0.83582 0.77894 0.6798 0.0
C119 C 0.84973 0.85973 0.6623 0.0
C120 C 0.75927 0.86839 0.65088 0.0
C121 C 0.82104 0.77444 0.66479 0.0
O122 O 0.8247 0.85337 0.65494 0.0
O123 O 0.85809 0.85029 0.67842 0.0
O124 O 0.75588 0.81573 0.67919 0.0
O125 O 0.79813 0.83 0.69067 0.0
Co126 Co 0.92216 0.03893 0.41693 0.0
O127 O 0.88452 0.02021 0.42009 0.0
O128 O 0.91194 0.01701 0.39444 0.0
C129 C 0.94134 0.02567 0.44504 0.0
O130 O 0.96236 0.05452 0.40884 0.0
Co131 Co 0.93977 0.09019 0.4437 0.0
O132 O 0.9779 0.08756 0.43023 0.0
C133 C 0.89642 0.10055 0.41382 0.0
C134 C 0.88799 0.00964 0.40325 0.0
C135 C 0.98186 0.07242 0.41531 0.0
O136 O 0.90251 0.07537 0.40659 0.0
O137 O 0.90659 0.10938 0.42965 0.0
O138 O 0.94129 0.00736 0.43101 0.0
O139 O 0.92708 0.04979 0.44226 0.0
Co140 Co 0.71389 0.17362 0.16652 0.0
O141 O 0.73439 0.13697 0.16974 0.0
O142 O 0.73553 0.16383 0.14378 0.0
C143 C 0.7272 0.19404 0.1942 0.0
O144 O 0.69635 0.21286 0.15836 0.0
Co145 Co 0.66307 0.18958 0.1937 0.0
O146 O 0.66424 0.22798 0.18041 0.0
C147 C 0.6529 0.14586 0.16399 0.0
C148 C 0.7441 0.14036 0.1527 0.0
C149 C 0.67851 0.23211 0.16516 0.0
O150 O 0.67808 0.15212 0.15678 0.0
O151 O 0.64402 0.15618 0.17977 0.0
O152 O 0.74475 0.19498 0.17979 0.0
O153 O 0.70391 0.17821 0.1921 0.0
Co154 Co 0.5847 0.96232 0.91801 0.0
O155 O 0.62275 0.98059 0.92089 0.0
O156 O 0.59572 0.98264 0.89505 0.0
C157 C 0.56541 0.97778 0.94571 0.0
O158 O 0.54422 0.94726 0.90989 0.0
Co159 Co 0.56399 0.9137 0.94585 0.0
O160 O 0.52611 0.91748 0.93235 0.0
C161 C 0.60664 0.89881 0.91596 0.0
C162 C 0.61964 0.99025 0.90379 0.0
C163 C 0.52349 0.93117 0.91678 0.0
O164 O 0.60382 0.92471 0.90881 0.0
O165 O 0.59442 0.89116 0.93145 0.0
O166 O 0.56603 0.99517 0.93121 0.0
O167 O 0.57902 0.95315 0.94359 0.0
Co168 Co 0.79371 0.16915 0.83437 0.0
O169 O 0.77492 0.13139 0.83125 0.0
O170 O 0.77359 0.15789 0.85734 0.0
C171 C 0.77811 0.18929 0.80698 0.0
O172 O 0.80928 0.20932 0.84277 0.0
Co173 Co 0.84221 0.18998 0.80644 0.0
O174 O 0.83927 0.22749 0.82041 0.0
C175 C 0.85711 0.14675 0.83597 0.0
C176 C 0.76551 0.13428 0.84842 0.0
C177 C 0.82563 0.22995 0.83602 0.0
O178 O 0.83122 0.14933 0.84315 0.0
O179 O 0.86485 0.15944 0.82065 0.0
O180 O 0.7609 0.18849 0.82156 0.0
O181 O 0.80261 0.17534 0.80879 0.0
Co182 Co 0.58116 0.04486 0.58392 0.0
O183 O 0.61898 0.02652 0.58036 0.0
O184 O 0.59256 0.02381 0.60646 0.0
C185 C 0.5612 0.03024 0.55631 0.0
O186 O 0.54094 0.05966 0.59271 0.0
Co187 Co 0.55939 0.09433 0.55707 0.0
O188 O 0.52182 0.08967 0.57073 0.0
C189 C 0.60192 0.10861 0.58719 0.0
C190 C 0.61612 0.01623 0.59733 0.0
C191 C 0.51984 0.07563 0.58621 0.0
O192 O 0.6007 0.08204 0.5934 0.0
O193 O 0.58838 0.1173 0.57239 0.0
O194 O 0.56212 0.01249 0.57061 0.0
O195 O 0.57483 0.05488 0.5585 0.0
Co196 Co 0.71122 0.83323 0.33462 0.0
O197 O 0.7316 0.87003 0.3316 0.0
O198 O 0.73106 0.84381 0.35784 0.0
C199 C 0.72702 0.81246 0.30761 0.0
O200 O 0.69383 0.79385 0.34283 0.0
Co201 Co 0.66327 0.81392 0.30611 0.0
O202 O 0.66524 0.77596 0.31967 0.0
C203 C 0.64828 0.85669 0.33595 0.0
C204 C 0.74031 0.86698 0.3489 0.0
C205 C 0.67782 0.77338 0.33563 0.0
O206 O 0.67435 0.85458 0.34289 0.0
O207 O 0.64022 0.84355 0.32086 0.0
O208 O 0.74338 0.81205 0.32258 0.0
O209 O 0.70319 0.82769 0.30882 0.0
Co210 Co 0.91896 0.9626 0.08341 0.0
O211 O 0.88241 0.98344 0.08035 0.0
O212 O 0.90833 0.98221 0.1067 0.0
C213 C 0.94023 0.97863 0.05663 0.0
O214 O 0.9581 0.94472 0.09169 0.0
Co215 Co 0.93821 0.91495 0.05473 0.0
O216 O 0.97628 0.91705 0.06819 0.0
C217 C 0.89445 0.9 0.08398 0.0
C218 C 0.8854 0.99191 0.09771 0.0
C219 C 0.97876 0.92914 0.08431 0.0
O220 O 0.89706 0.9258 0.09127 0.0
O221 O 0.90764 0.89216 0.06886 0.0
O222 O 0.94063 0.99474 0.07172 0.0
O223 O 0.92474 0.95494 0.05759 0.0
Co224 Co 0.71203 0.67128 0.83452 0.0
O225 O 0.73295 0.63493 0.83101 0.0
O226 O 0.73143 0.65982 0.85775 0.0
C227 C 0.72802 0.69357 0.80806 0.0
O228 O 0.69383 0.71004 0.84322 0.0
Co229 Co 0.66413 0.69018 0.80598 0.0
O230 O 0.66419 0.72746 0.82044 0.0
C231 C 0.6503 0.64449 0.83405 0.0
C232 C 0.74103 0.6371 0.84848 0.0
C233 C 0.67697 0.73009 0.83633 0.0
O234 O 0.67537 0.6489 0.84202 0.0
O235 O 0.64279 0.65708 0.81867 0.0
O236 O 0.7441 0.69356 0.82317 0.0
O237 O 0.7045 0.67779 0.80878 0.0
Co238 Co 0.58302 0.4628 0.08431 0.0
O239 O 0.62025 0.48236 0.08127 0.0
O240 O 0.59405 0.48258 0.1075 0.0
C241 C 0.56258 0.47883 0.05722 0.0
O242 O 0.54328 0.44614 0.09251 0.0
Co243 Co 0.56322 0.41498 0.05592 0.0
O244 O 0.52509 0.41798 0.06925 0.0
C245 C 0.60617 0.3997 0.08556 0.0
C246 C 0.61747 0.49117 0.09856 0.0
C247 C 0.52254 0.43056 0.08522 0.0
O248 O 0.60364 0.4256 0.09269 0.0
O249 O 0.59339 0.39196 0.07026 0.0
O250 O 0.56246 0.4953 0.07216 0.0
O251 O 0.5774 0.45476 0.05853 0.0
Co252 Co 0.79199 0.33335 0.3373 0.0
O253 O 0.77437 0.37143 0.33303 0.0
O254 O 0.7722 0.34672 0.35983 0.0
C255 C 0.7758 0.31211 0.3104 0.0
O256 O 0.80617 0.29359 0.34713 0.0
Co257 Co 0.83941 0.30709 0.31074 0.0
O258 O 0.83065 0.2699 0.32419 0.0
C259 C 0.85626 0.35253 0.33868 0.0
C260 C 0.76475 0.36987 0.35025 0.0
C261 C 0.81852 0.27045 0.34034 0.0
O262 O 0.83005 0.3524 0.34556 0.0
O263 O 0.86364 0.33745 0.32419 0.0
O264 O 0.75863 0.31431 0.32493 0.0
O265 O 0.80097 0.32494 0.31197 0.0
Co266 Co 0.92031 0.54398 0.58498 0.0
O267 O 0.88254 0.52548 0.58142 0.0
O268 O 0.90869 0.5233 0.60765 0.0
C269 C 0.94064 0.52899 0.55755 0.0
O270 O 0.96043 0.55914 0.59377 0.0
Co271 Co 0.9417 0.59314 0.55774 0.0
O272 O 0.97901 0.58971 0.57189 0.0
C273 C 0.89788 0.60729 0.58706 0.0
C274 C 0.88518 0.51558 0.5985 0.0
C275 C 0.98121 0.57561 0.58734 0.0
O276 O 0.90049 0.58128 0.59405 0.0
O277 O 0.91077 0.61537 0.57188 0.0
O278 O 0.93965 0.51144 0.57195 0.0
O279 O 0.92683 0.55354 0.55954 0.0
Co280 Co 0.71289 0.3343 0.66666 0.0
O281 O 0.73236 0.37162 0.66967 0.0
O282 O 0.73196 0.34572 0.64331 0.0
C283 C 0.72977 0.31363 0.69346 0.0
O284 O 0.69627 0.29458 0.6584 0.0
Co285 Co 0.66608 0.31337 0.69538 0.0
O286 O 0.67051 0.27513 0.68234 0.0
C287 C 0.64943 0.35647 0.66609 0.0
C288 C 0.74072 0.36907 0.65227 0.0
C289 C 0.68209 0.27314 0.66603 0.0
O290 O 0.67532 0.3548 0.65883 0.0
O291 O 0.64209 0.34301 0.68123 0.0
O292 O 0.74584 0.31378 0.67835 0.0
O293 O 0.70555 0.32826 0.6925 0.0
Co294 Co 0.91829 0.46158 0.91723 0.0
O295 O 0.88042 0.48009 0.92008 0.0
O296 O 0.90738 0.48152 0.89415 0.0
C297 C 0.93785 0.47764 0.94464 0.0
O298 O 0.95868 0.44626 0.90918 0.0
Co299 Co 0.93916 0.41358 0.94535 0.0
O300 O 0.9774 0.41839 0.93241 0.0
C301 C 0.89631 0.39806 0.9157 0.0
C302 C 0.88365 0.48955 0.90295 0.0
C303 C 0.97983 0.43129 0.91654 0.0
O304 O 0.89887 0.42389 0.90844 0.0
O305 O 0.90891 0.39055 0.9311 0.0
O306 O 0.93721 0.49462 0.92995 0.0
O307 O 0.92407 0.453 0.94288 0.0
Co308 Co 0.79137 0.67211 0.16526 0.0
O309 O 0.77382 0.63386 0.16858 0.0
O310 O 0.771 0.66031 0.14251 0.0
C311 C 0.77574 0.69154 0.19282 0.0
O312 O 0.80553 0.71276 0.15678 0.0
Co313 Co 0.83973 0.69447 0.19277 0.0
O314 O 0.83422 0.73219 0.17936 0.0
C315 C 0.85537 0.65176 0.16304 0.0
C316 C 0.76377 0.63653 0.15154 0.0
C317 C 0.82064 0.73418 0.16371 0.0
O318 O 0.82925 0.65347 0.15611 0.0
O319 O 0.86302 0.66473 0.17829 0.0
O320 O 0.75827 0.69037 0.17838 0.0
O321 O 0.80065 0.67843 0.19075 0.0
Co322 Co 0.58236 0.54267 0.41627 0.0
O323 O 0.62036 0.52457 0.41953 0.0
O324 O 0.59408 0.5227 0.39335 0.0
C325 C 0.56236 0.52688 0.44361 0.0
O326 O 0.54206 0.55769 0.40776 0.0
Co327 Co 0.56096 0.59106 0.44408 0.0
O328 O 0.5236 0.58777 0.42995 0.0
C329 C 0.60458 0.60607 0.41485 0.0
C330 C 0.6178 0.51517 0.40234 0.0
C331 C 0.5213 0.57397 0.41439 0.0
O332 O 0.6017 0.58033 0.4075 0.0
O333 O 0.592 0.61364 0.43024 0.0
O334 O 0.56344 0.50962 0.42907 0.0
O335 O 0.57596 0.55158 0.44179 0.0
Co336 Co 0.29232 0.33471 0.16657 0.0
O337 O 0.27347 0.37229 0.16987 0.0
O338 O 0.27214 0.34605 0.14365 0.0
C339 C 0.27654 0.31451 0.19387 0.0
O340 O 0.30804 0.2947 0.1581 0.0
Co341 Co 0.34057 0.31374 0.19448 0.0
O342 O 0.3367 0.27593 0.18093 0.0
C343 C 0.35575 0.35686 0.16489 0.0
C344 C 0.26395 0.36949 0.15273 0.0
C345 C 0.32367 0.27373 0.16509 0.0
O346 O 0.32973 0.35467 0.15787 0.0
O347 O 0.36356 0.34388 0.1801 0.0
O348 O 0.25959 0.31513 0.17917 0.0
O349 O 0.30103 0.32857 0.19218 0.0
Co350 Co 0.42044 0.54337 0.91537 0.0
O351 O 0.38262 0.52508 0.91918 0.0
O352 O 0.40814 0.52311 0.8927 0.0
C353 C 0.44137 0.52792 0.94251 0.0
O354 O 0.46042 0.55837 0.90625 0.0
Co355 Co 0.44265 0.59211 0.94272 0.0
O356 O 0.47903 0.59003 0.92753 0.0
C357 C 0.3985 0.60691 0.91376 0.0
C358 C 0.38478 0.51544 0.90201 0.0
C359 C 0.48095 0.57552 0.91223 0.0
O360 O 0.40069 0.58094 0.90666 0.0
O361 O 0.41172 0.61475 0.92887 0.0
O362 O 0.43987 0.51052 0.92805 0.0
O363 O 0.42765 0.55256 0.94078 0.0
Co364 Co 0.21209 0.66954 0.66666 0.0
O365 O 0.2325 0.63287 0.67016 0.0
O366 O 0.23133 0.65782 0.64343 0.0
C367 C 0.22865 0.69159 0.69309 0.0
O368 O 0.19442 0.70855 0.65792 0.0
Co369 Co 0.16486 0.68976 0.69531 0.0
O370 O 0.16655 0.72726 0.68115 0.0
C371 C 0.14948 0.6449 0.66691 0.0
C372 C 0.24074 0.63504 0.65272 0.0
C373 C 0.17865 0.72931 0.665 0.0
O374 O 0.17498 0.64779 0.65924 0.0
O375 O 0.14211 0.65817 0.6821 0.0
O376 O 0.24458 0.69131 0.67792 0.0
O377 O 0.20483 0.67625 0.69244 0.0
Co378 Co 0.08446 0.46321 0.41681 0.0
O379 O 0.12122 0.48365 0.41985 0.0
O380 O 0.0956 0.48226 0.39339 0.0
C381 C 0.06316 0.48003 0.44343 0.0
O382 O 0.04524 0.44538 0.40858 0.0
Co383 Co 0.06508 0.41632 0.44599 0.0
O384 O 0.02735 0.41748 0.43209 0.0
C385 C 0.10901 0.40059 0.41705 0.0
C386 C 0.11861 0.49175 0.4024 0.0
C387 C 0.02482 0.42943 0.41592 0.0
O388 O 0.10597 0.42602 0.4093 0.0
O389 O 0.09622 0.39343 0.43245 0.0
O390 O 0.06299 0.49581 0.4282 0.0
O391 O 0.07847 0.45621 0.44268 0.0
Co392 Co 0.2925 0.67135 0.3339 0.0
O393 O 0.27208 0.63463 0.33055 0.0
O394 O 0.27289 0.66007 0.35709 0.0
C395 C 0.27638 0.69289 0.30719 0.0
O396 O 0.3101 0.71051 0.34246 0.0
Co397 Co 0.34021 0.69097 0.3054 0.0
O398 O 0.33875 0.7286 0.3194 0.0
C399 C 0.35506 0.64661 0.33423 0.0
C400 C 0.2636 0.63713 0.34793 0.0
C401 C 0.32626 0.73101 0.3354 0.0
O402 O 0.32944 0.64964 0.34171 0.0
O403 O 0.36273 0.65964 0.31901 0.0
O404 O 0.26022 0.69293 0.32226 0.0
O405 O 0.30018 0.67756 0.30812 0.0
Co406 Co 0.08347 0.54253 0.08465 0.0
O407 O 0.11991 0.52166 0.08155 0.0
O408 O 0.09417 0.52296 0.10798 0.0
C409 C 0.06205 0.52664 0.05792 0.0
O410 O 0.04445 0.5608 0.0928 0.0
Co411 Co 0.06569 0.59052 0.05586 0.0
O412 O 0.0275 0.58927 0.06929 0.0
C413 C 0.11036 0.60417 0.08465 0.0
C414 C 0.11718 0.51345 0.09896 0.0
C415 C 0.02434 0.57699 0.08532 0.0
O416 O 0.10561 0.5791 0.0925 0.0
O417 O 0.09833 0.61181 0.06909 0.0
O418 O 0.06155 0.51051 0.073 0.0
O419 O 0.07785 0.55013 0.05884 0.0
Co420 Co 0.21018 0.33544 0.83503 0.0
O421 O 0.22825 0.37351 0.83198 0.0
O422 O 0.23046 0.3467 0.85793 0.0
C423 C 0.22572 0.31598 0.80747 0.0
O424 O 0.19538 0.29491 0.84328 0.0
Co425 Co 0.16159 0.31422 0.80729 0.0
O426 O 0.16583 0.27645 0.82079 0.0
C427 C 0.14634 0.35628 0.83743 0.0
C428 C 0.23797 0.37055 0.84908 0.0
C429 C 0.17953 0.27402 0.83637 0.0
O430 O 0.17257 0.35453 0.84417 0.0
O431 O 0.1383 0.34337 0.82225 0.0
O432 O 0.2431 0.31685 0.82196 0.0
O433 O 0.201 0.32949 0.80947 0.0
Co434 Co 0.42106 0.46095 0.58542 0.0
O435 O 0.38392 0.48062 0.58214 0.0
O436 O 0.40973 0.48072 0.60854 0.0
C437 C 0.44189 0.47705 0.55848 0.0
O438 O 0.46064 0.44424 0.5939 0.0
Co439 Co 0.44151 0.41328 0.55711 0.0
O440 O 0.47943 0.4164 0.57068 0.0
C441 C 0.39796 0.39783 0.58637 0.0
C442 C 0.38651 0.48946 0.59943 0.0
C443 C 0.48161 0.42885 0.58671 0.0
O444 O 0.40022 0.42372 0.59358 0.0
O445 O 0.41113 0.39017 0.5712 0.0
O446 O 0.44186 0.49345 0.57344 0.0
O447 O 0.42708 0.45296 0.55966 0.0
C448 C 0.14297 0.38391 0.39109 0.0
C449 C 0.12567 0.37732 0.40691 0.0
C450 C 0.15572 0.36142 0.3802 0.0
C451 C 0.15055 0.33167 0.38502 0.0
C452 C 0.13421 0.32497 0.40142 0.0
C453 C 0.12225 0.3478 0.41223 0.0
C454 C 0.17362 0.36949 0.36307 0.0
C455 C 0.12771 0.2936 0.40694 0.0
C456 C 0.14626 0.27463 0.34615 0.0
C457 C 0.17189 0.25816 0.34911 0.0
C458 C 0.13949 0.29892 0.35747 0.0
C459 C 0.15913 0.30753 0.37191 0.0
C460 C 0.1856 0.29171 0.37455 0.0
C461 C 0.1915 0.26694 0.36328 0.0
C462 C 0.11072 0.31471 0.35439 0.0
C463 C 0.20742 0.30064 0.38949 0.0
H464 H 0.14599 0.4066 0.38693 0.0
H465 H 0.10895 0.34231 0.42439 0.0
H466 H 0.19421 0.35649 0.36263 0.0
H467 H 0.16101 0.36424 0.35013 0.0
H468 H 0.17926 0.39321 0.36281 0.0
H469 H 0.11649 0.29205 0.42081 0.0
H470 H 0.11342 0.28335 0.39612 0.0
H471 H 0.14825 0.2806 0.40757 0.0
H472 H 0.13086 0.26794 0.33532 0.0
H473 H 0.21147 0.25449 0.36553 0.0
H474 H 0.11468 0.33839 0.35183 0.0
H475 H 0.09693 0.31293 0.36724 0.0
H476 H 0.09818 0.30567 0.34228 0.0
H477 H 0.21254 0.32438 0.38824 0.0
H478 H 0.22818 0.28796 0.38853 0.0
H479 H 0.19779 0.29713 0.40367 0.0
C480 C 0.96871 0.94013 0.59579 0.0
C481 C 0.99594 0.92782 0.60036 0.0
C482 C 0.9434 0.93279 0.60612 0.0
C483 C 0.9453 0.91169 0.62076 0.0
C484 C 0.97297 0.89945 0.62546 0.0
C485 C 0.99804 0.90809 0.61539 0.0
C486 C 0.91458 0.94717 0.60115 0.0
C487 C 0.9759 0.8762 0.64052 0.0
C488 C 0.88704 0.89945 0.65835 0.0
C489 C 0.87139 0.87576 0.65079 0.0
C490 C 0.90998 0.91269 0.64817 0.0
C491 C 0.91832 0.90095 0.63046 0.0
C492 C 0.90215 0.87729 0.62268 0.0
C493 C 0.87849 0.86537 0.63279 0.0
C494 C 0.92583 0.93864 0.65661 0.0
C495 C 0.91088 0.86341 0.60417 0.0
H496 H 0.96725 0.95538 0.58409 0.0
H497 H 0.01915 0.89835 0.61868 0.0
H498 H 0.89959 0.93076 0.59479 0.0
H499 H 0.90376 0.95569 0.61406 0.0
H500 H 0.91744 0.96554 0.59102 0.0
H501 H 0.99898 0.86891 0.64244 0.0
H502 H 0.96763 0.88461 0.65418 0.0
H503 H 0.96234 0.85683 0.63673 0.0
H504 H 0.88145 0.90747 0.67229 0.0
H505 H 0.86659 0.84676 0.6271 0.0
H506 H 0.92824 0.95635 0.64598 0.0
H507 H 0.94821 0.93199 0.66101 0.0
H508 H 0.91416 0.9476 0.6691 0.0
H509 H 0.91149 0.88016 0.59285 0.0
H510 H 0.89563 0.84561 0.59987 0.0
H511 H 0.93332 0.85409 0.60539 0.0
C512 C 0.36026 0.62257 0.89011 0.0
C513 C 0.38203 0.62986 0.9033 0.0
C514 C 0.34627 0.64448 0.87935 0.0
C515 C 0.3549 0.6742 0.88145 0.0
C516 C 0.37638 0.68166 0.89504 0.0
C517 C 0.38937 0.65951 0.90591 0.0
C518 C 0.32291 0.63573 0.86536 0.0
C519 C 0.3868 0.71293 0.89747 0.0
C520 C 0.352 0.72702 0.84025 0.0
C521 C 0.32984 0.74667 0.84579 0.0
C522 C 0.35942 0.70265 0.85132 0.0
C523 C 0.34398 0.69728 0.86828 0.0
C524 C 0.32043 0.71595 0.87344 0.0
C525 C 0.31382 0.74062 0.86224 0.0
C526 C 0.385 0.68365 0.84539 0.0
C527 C 0.30298 0.71052 0.89118 0.0
H528 H 0.3543 0.59974 0.88811 0.0
H529 H 0.40631 0.66541 0.91595 0.0
H530 H 0.30344 0.6502 0.86677 0.0
H531 H 0.33143 0.6384 0.85082 0.0
H532 H 0.31588 0.61257 0.86723 0.0
H533 H 0.40279 0.71525 0.9092 0.0
H534 H 0.39742 0.72055 0.88427 0.0
H535 H 0.36793 0.72767 0.90024 0.0
H536 H 0.36457 0.73129 0.82757 0.0
H537 H 0.29647 0.75544 0.86657 0.0
H538 H 0.37845 0.66022 0.84511 0.0
H539 H 0.40306 0.68586 0.85579 0.0
H540 H 0.39358 0.68971 0.83126 0.0
H541 H 0.29657 0.68707 0.89216 0.0
H542 H 0.28287 0.72428 0.89179 0.0
H543 H 0.3167 0.71561 0.90367 0.0
C544 C 0.5066 0.10265 0.11357 0.0
C545 C 0.50731 0.07892 0.1011 0.0
C546 C 0.53161 0.11065 0.12391 0.0
C547 C 0.55782 0.09416 0.12191 0.0
C548 C 0.55826 0.06947 0.10973 0.0
C549 C 0.53301 0.06236 0.09924 0.0
C550 C 0.53026 0.13742 0.13644 0.0
C551 C 0.5855 0.05096 0.10754 0.0
C552 C 0.62795 0.13562 0.13347 0.0
C553 C 0.63165 0.12893 0.1526 0.0
C554 C 0.60452 0.1237 0.12312 0.0
C555 C 0.58494 0.10381 0.13195 0.0
C556 C 0.58985 0.09545 0.15092 0.0
C557 C 0.61279 0.10861 0.16115 0.0
C558 C 0.59962 0.13392 0.10311 0.0
C559 C 0.57018 0.07353 0.16065 0.0
H560 H 0.48667 0.11554 0.11477 0.0
H561 H 0.53342 0.04409 0.08944 0.0
H562 H 0.53605 0.13142 0.15113 0.0
H563 H 0.54654 0.15391 0.13162 0.0
H564 H 0.50818 0.14775 0.13647 0.0
H565 H 0.58147 0.03107 0.09885 0.0
H566 H 0.6031 0.06405 0.10076 0.0
H567 H 0.59374 0.04406 0.12158 0.0
H568 H 0.6423 0.15163 0.12691 0.0
H569 H 0.6157 0.10337 0.17594 0.0
H570 H 0.57876 0.14643 0.1023 0.0
H571 H 0.59754 0.11485 0.0935 0.0
H572 H 0.6177 0.14819 0.09797 0.0
H573 H 0.54834 0.08352 0.16321 0.0
H574 H 0.57935 0.06627 0.17439 0.0
H575 H 0.56678 0.05398 0.15158 0.0
C576 C 0.19559 0.73369 0.14126 0.0
C577 C 0.17279 0.74793 0.15086 0.0
C578 C 0.18996 0.70853 0.13026 0.0
C579 C 0.16075 0.69816 0.12837 0.0
C580 C 0.13769 0.71287 0.13785 0.0
C581 C 0.14407 0.73724 0.14917 0.0
C582 C 0.21518 0.69296 0.12079 0.0
C583 C 0.10613 0.70315 0.13583 0.0
C584 C 0.1335 0.65405 0.08661 0.0
C585 C 0.12827 0.62647 0.09482 0.0
C586 C 0.14599 0.67708 0.09702 0.0
C587 C 0.15364 0.6725 0.11613 0.0
C588 C 0.15048 0.64416 0.12411 0.0
C589 C 0.1378 0.6215 0.11338 0.0
C590 C 0.1489 0.70692 0.08794 0.0
C591 C 0.15873 0.63824 0.14436 0.0
H592 H 0.21783 0.74187 0.14266 0.0
H593 H 0.12635 0.74843 0.15641 0.0
H594 H 0.21584 0.66969 0.12539 0.0
H595 H 0.212 0.69295 0.10529 0.0
H596 H 0.23666 0.70333 0.12403 0.0
H597 H 0.09075 0.71731 0.1439 0.0
H598 H 0.09961 0.70359 0.12077 0.0
H599 H 0.10365 0.68023 0.14085 0.0
H600 H 0.12661 0.65816 0.07223 0.0
H601 H 0.13415 0.60027 0.11987 0.0
H602 H 0.17087 0.71643 0.09077 0.0
H603 H 0.13237 0.72204 0.09409 0.0
H604 H 0.14548 0.70604 0.07245 0.0
H605 H 0.18052 0.64786 0.14763 0.0
H606 H 0.15929 0.61438 0.14755 0.0
H607 H 0.14247 0.64877 0.15383 0.0
C608 C 0.53041 0.90799 0.41063 0.0
C609 C 0.50931 0.92777 0.40374 0.0
C610 C 0.55483 0.89992 0.39976 0.0
C611 C 0.55863 0.9122 0.3816 0.0
C612 C 0.53847 0.93355 0.37501 0.0
C613 C 0.51393 0.94093 0.3861 0.0
C614 C 0.57553 0.87681 0.40727 0.0
C615 C 0.5421 0.94761 0.3559 0.0
C616 C 0.63251 0.89665 0.3583 0.0
C617 C 0.62546 0.87275 0.34669 0.0
C618 C 0.61073 0.91074 0.36912 0.0
C619 C 0.58153 0.89997 0.36878 0.0
C620 C 0.57437 0.87597 0.35698 0.0
C621 C 0.59628 0.86297 0.34592 0.0
C622 C 0.61902 0.93678 0.38113 0.0
C623 C 0.54375 0.86321 0.35655 0.0
H624 H 0.52728 0.89774 0.42426 0.0
H625 H 0.498 0.95647 0.3807 0.0
H626 H 0.57349 0.85655 0.39868 0.0
H627 H 0.5986 0.88436 0.40616 0.0
H628 H 0.57093 0.87119 0.42222 0.0
H629 H 0.5272 0.96668 0.35397 0.0
H630 H 0.56509 0.95501 0.35386 0.0
H631 H 0.53724 0.93126 0.34474 0.0
H632 H 0.655 0.90436 0.35888 0.0
H633 H 0.59073 0.84428 0.33715 0.0
H634 H 0.61692 0.93102 0.39626 0.0
H635 H 0.60385 0.95535 0.37838 0.0
H636 H 0.64188 0.94418 0.37846 0.0
H637 H 0.53772 0.85512 0.37079 0.0
H638 H 0.54172 0.84474 0.34641 0.0
H639 H 0.52763 0.88039 0.35264 0.0
C640 C 0.35455 0.27575 0.65949 0.0
C641 C 0.33057 0.25777 0.65486 0.0
C642 C 0.36223 0.29991 0.64828 0.0
C643 C 0.34522 0.30676 0.63217 0.0
C644 C 0.32016 0.28957 0.62788 0.0
C645 C 0.31331 0.26506 0.63916 0.0
C646 C 0.38943 0.31727 0.65321 0.0
C647 C 0.3011 0.29656 0.61108 0.0
C648 C 0.36158 0.38201 0.61117 0.0
C649 C 0.38154 0.37478 0.59683 0.0
C650 C 0.34819 0.35999 0.62214 0.0
C651 C 0.35549 0.33015 0.619 0.0
C652 C 0.37494 0.32273 0.6042 0.0
C653 C 0.38744 0.34505 0.59321 0.0
C654 C 0.32699 0.36873 0.63749 0.0
C655 C 0.38382 0.29128 0.60057 0.0
H656 H 0.36812 0.27034 0.67154 0.0
H657 H 0.29458 0.25149 0.63557 0.0
H658 H 0.40593 0.3149 0.6418 0.0
H659 H 0.38411 0.34095 0.65438 0.0
H660 H 0.39952 0.30994 0.66666 0.0
H661 H 0.28058 0.28339 0.61096 0.0
H662 H 0.29527 0.32021 0.611 0.0
H663 H 0.31337 0.29201 0.5979 0.0
H664 H 0.35672 0.40488 0.61399 0.0
H665 H 0.40292 0.33913 0.58225 0.0
H666 H 0.33715 0.3648 0.65147 0.0
H667 H 0.30683 0.35512 0.63674 0.0
H668 H 0.32072 0.39225 0.63656 0.0
H669 H 0.39588 0.2826 0.61297 0.0
H670 H 0.39808 0.28905 0.58795 0.0
H671 H 0.36411 0.27734 0.59857 0.0
C672 C 0.99051 0.06217 0.88815 0.0
C673 C 0.99737 0.07908 0.90409 0.0
C674 C 0.96581 0.06878 0.87696 0.0
C675 C 0.94799 0.09325 0.88159 0.0
C676 C 0.95431 0.10978 0.89798 0.0
C677 C 0.97865 0.10234 0.90908 0.0
C678 C 0.95935 0.0502 0.85986 0.0
C679 C 0.93629 0.13637 0.9033 0.0
C680 C 0.90982 0.13674 0.84319 0.0
C681 C 0.8801 0.1304 0.84651 0.0
C682 C 0.93209 0.12396 0.85407 0.0
C683 C 0.92467 0.10373 0.86843 0.0
C684 C 0.89483 0.09604 0.87127 0.0
C685 C 0.87283 0.10978 0.86045 0.0
C686 C 0.9635 0.13336 0.85081 0.0
C687 C 0.8861 0.07401 0.88613 0.0
H688 H 0.00462 0.044 0.88426 0.0
H689 H 0.98364 0.11565 0.92133 0.0
H690 H 0.93575 0.0442 0.85945 0.0
H691 H 0.96417 0.06292 0.84689 0.0
H692 H 0.97269 0.02979 0.85961 0.0
H693 H 0.94317 0.14598 0.91699 0.0
H694 H 0.93854 0.15344 0.89223 0.0
H695 H 0.91271 0.13053 0.90419 0.0
H696 H 0.91574 0.15277 0.83256 0.0
H697 H 0.84997 0.10456 0.86301 0.0
H698 H 0.97767 0.11391 0.84848 0.0
H699 H 0.97189 0.14488 0.8635 0.0
H700 H 0.96575 0.14827 0.8385 0.0
H701 H 0.90001 0.05409 0.8851 0.0
H702 H 0.86269 0.06746 0.88486 0.0
H703 H 0.88958 0.08356 0.90033 0.0
C704 C 0.86065 0.62212 0.61159 0.0
C705 C 0.88105 0.62989 0.59763 0.0
C706 C 0.84637 0.64377 0.62241 0.0
C707 C 0.85323 0.67378 0.61952 0.0
C708 C 0.87325 0.68171 0.60514 0.0
C709 C 0.88663 0.65976 0.59429 0.0
C710 C 0.82462 0.63448 0.6373 0.0
C711 C 0.88169 0.71336 0.60179 0.0
C712 C 0.80967 0.73865 0.63862 0.0
C713 C 0.8265 0.74657 0.6544 0.0
C714 C 0.81694 0.71383 0.62774 0.0
C715 C 0.84194 0.69688 0.63254 0.0
C716 C 0.85823 0.70407 0.64888 0.0
C717 C 0.85019 0.72857 0.65965 0.0
C718 C 0.7986 0.70646 0.61068 0.0
C719 C 0.88529 0.68693 0.6544 0.0
H720 H 0.85602 0.59913 0.61417 0.0
H721 H 0.90245 0.66608 0.58362 0.0
H722 H 0.83401 0.63849 0.65149 0.0
H723 H 0.80424 0.6477 0.63619 0.0
H724 H 0.81886 0.61085 0.63617 0.0
H725 H 0.89664 0.71597 0.58953 0.0
H726 H 0.86183 0.72689 0.59933 0.0
H727 H 0.89283 0.72223 0.61449 0.0
H728 H 0.79117 0.75218 0.63452 0.0
H729 H 0.8634 0.7343 0.67181 0.0
H730 H 0.79355 0.68263 0.61035 0.0
H731 H 0.8111 0.71169 0.59768 0.0
H732 H 0.77767 0.71896 0.6104 0.0
H733 H 0.88021 0.66317 0.65528 0.0
H734 H 0.89444 0.69415 0.66815 0.0
H735 H 0.90247 0.68972 0.64345 0.0
C736 C 0.09526 0.13436 0.34206 0.0
C737 C 0.12515 0.12992 0.346 0.0
C738 C 0.07329 0.1212 0.35304 0.0
C739 C 0.08125 0.10257 0.36816 0.0
C740 C 0.11132 0.09655 0.37154 0.0
C741 C 0.13294 0.11056 0.36056 0.0
C742 C 0.04157 0.12867 0.3491 0.0
C743 C 0.12068 0.07625 0.38723 0.0
C744 C 0.02666 0.10238 0.40849 0.0
C745 C 0.00923 0.07776 0.40435 0.0
C746 C 0.05077 0.10997 0.39723 0.0
C747 C 0.05816 0.09228 0.38154 0.0
C748 C 0.0417 0.06652 0.37782 0.0
C749 C 0.01723 0.05971 0.38916 0.0
C750 C 0.06738 0.13788 0.40158 0.0
C751 C 0.04933 0.04671 0.3615 0.0
H752 H 0.08888 0.1493 0.3309 0.0
H753 H 0.15594 0.10675 0.36362 0.0
H754 H 0.02837 0.10836 0.34756 0.0
H755 H 0.03236 0.14115 0.36116 0.0
H756 H 0.03893 0.14207 0.33612 0.0
H757 H 0.14433 0.07047 0.38629 0.0
H758 H 0.11672 0.08699 0.40103 0.0
H759 H 0.10752 0.05576 0.38695 0.0
H760 H 0.02079 0.11656 0.42016 0.0
H761 H 0.00411 0.04051 0.38591 0.0
H762 H 0.06457 0.15372 0.38984 0.0
H763 H 0.09119 0.13327 0.40288 0.0
H764 H 0.05977 0.14845 0.41482 0.0
H765 H 0.04406 0.05792 0.34804 0.0
H766 H 0.03705 0.02566 0.362 0.0
H767 H 0.07321 0.0419 0.36141 0.0
C768 C 0.64088 0.38414 0.11138 0.0
C769 C 0.62246 0.37678 0.09623 0.0
C770 C 0.65394 0.36221 0.12258 0.0
C771 C 0.64796 0.33226 0.11877 0.0
C772 C 0.63016 0.32473 0.10316 0.0
C773 C 0.6179 0.347 0.09202 0.0
C774 C 0.67333 0.37111 0.13885 0.0
C775 C 0.62279 0.29313 0.09875 0.0
C776 C 0.69096 0.26817 0.13945 0.0
C777 C 0.67261 0.25943 0.15432 0.0
C778 C 0.68409 0.29283 0.12833 0.0
C779 C 0.65797 0.30876 0.13193 0.0
C780 C 0.63986 0.30054 0.14726 0.0
C781 C 0.64751 0.2762 0.15833 0.0
C782 C 0.70429 0.30128 0.11237 0.0
C783 C 0.61158 0.31659 0.15145 0.0
H784 H 0.64473 0.40705 0.11469 0.0
H785 H 0.60365 0.34095 0.08042 0.0
H786 H 0.66208 0.36618 0.15235 0.0
H787 H 0.69406 0.35833 0.13865 0.0
H788 H 0.67873 0.39488 0.13854 0.0
H789 H 0.6098 0.29087 0.08557 0.0
H790 H 0.64316 0.28 0.0973 0.0
H791 H 0.60997 0.28354 0.11054 0.0
H792 H 0.71054 0.25556 0.13634 0.0
H793 H 0.6331 0.26969 0.16974 0.0
H794 H 0.70912 0.32514 0.11286 0.0
H795 H 0.69338 0.29677 0.09869 0.0
H796 H 0.72532 0.28897 0.1128 0.0
H797 H 0.6158 0.34042 0.15311 0.0
H798 H 0.60071 0.30839 0.16444 0.0
H799 H 0.59617 0.31392 0.13945 0.0
C800 C 0.47755 0.9027 0.91053 0.0
C801 C 0.49632 0.92596 0.9056 0.0
C802 C 0.45358 0.89493 0.89918 0.0
C803 C 0.44768 0.91112 0.88259 0.0
C804 C 0.46549 0.93564 0.87803 0.0
C805 C 0.4898 0.94259 0.88947 0.0
C806 C 0.43554 0.86833 0.90446 0.0
C807 C 0.45947 0.95387 0.8607 0.0
C808 C 0.41071 0.86705 0.84392 0.0
C809 C 0.38091 0.87351 0.8468 0.0
C810 C 0.43264 0.87993 0.85506 0.0
C811 C 0.42478 0.90034 0.86923 0.0
C812 C 0.39487 0.90807 0.87163 0.0
C813 C 0.37323 0.89427 0.86056 0.0
C814 C 0.46414 0.87051 0.85226 0.0
C815 C 0.38566 0.93026 0.88627 0.0
H816 H 0.48225 0.8896 0.92291 0.0
H817 H 0.50395 0.96074 0.8856 0.0
H818 H 0.4119 0.87404 0.90498 0.0
H819 H 0.43826 0.85106 0.89357 0.0
H820 H 0.44201 0.85904 0.91833 0.0
H821 H 0.4727 0.97435 0.86048 0.0
H822 H 0.46476 0.94095 0.8479 0.0
H823 H 0.43586 0.95973 0.85994 0.0
H824 H 0.41693 0.85093 0.83342 0.0
H825 H 0.35029 0.89958 0.86277 0.0
H826 H 0.47216 0.85923 0.86513 0.0
H827 H 0.47836 0.88994 0.84997 0.0
H828 H 0.46677 0.85538 0.84009 0.0
H829 H 0.38891 0.92096 0.90057 0.0
H830 H 0.36225 0.93665 0.88476 0.0
H831 H 0.39948 0.95026 0.88524 0.0
C832 C 0.88423 0.34526 0.9098 0.0
C833 C 0.87999 0.37496 0.90519 0.0
C834 C 0.8718 0.32276 0.89893 0.0
C835 C 0.85416 0.32995 0.88318 0.0
C836 C 0.8484 0.35984 0.87902 0.0
C837 C 0.86163 0.38201 0.88995 0.0
C838 C 0.87901 0.29125 0.9037 0.0
C839 C 0.82917 0.36841 0.8626 0.0
C840 C 0.85608 0.27396 0.84365 0.0
C841 C 0.83101 0.25694 0.8473 0.0
C842 C 0.8633 0.29821 0.85488 0.0
C843 C 0.8447 0.30622 0.87 0.0
C844 C 0.81865 0.28998 0.87332 0.0
C845 C 0.81229 0.26527 0.86207 0.0
C846 C 0.8916 0.31446 0.85105 0.0
C847 C 0.79791 0.29827 0.88902 0.0
H848 H 0.89838 0.33944 0.92149 0.0
H849 H 0.85797 0.40484 0.88636 0.0
H850 H 0.85862 0.2781 0.90493 0.0
H851 H 0.89229 0.28148 0.89218 0.0
H852 H 0.89152 0.28926 0.91708 0.0
H853 H 0.82351 0.39212 0.86282 0.0
H854 H 0.84072 0.36356 0.84919 0.0
H855 H 0.80858 0.35539 0.86268 0.0
H856 H 0.87084 0.2677 0.83236 0.0
H857 H 0.79276 0.25242 0.86491 0.0
H858 H 0.90652 0.31224 0.86334 0.0
H859 H 0.88722 0.3382 0.84908 0.0
H860 H 0.90313 0.3061 0.83834 0.0
H861 H 0.80849 0.29404 0.90283 0.0
H862 H 0.77706 0.28566 0.88839 0.0
H863 H 0.79278 0.32206 0.88838 0.0
C864 C 0.40705 0.13427 0.6611 0.0
C865 C 0.37725 0.12935 0.65715 0.0
C866 C 0.42921 0.12152 0.65009 0.0
C867 C 0.42151 0.10282 0.63494 0.0
C868 C 0.39156 0.0962 0.63162 0.0
C869 C 0.36974 0.10983 0.64262 0.0
C870 C 0.4608 0.12965 0.65394 0.0
C871 C 0.38249 0.07577 0.61592 0.0
C872 C 0.4749 0.10456 0.59401 0.0
C873 C 0.49301 0.0803 0.59776 0.0
C874 C 0.45106 0.11147 0.60566 0.0
C875 C 0.44461 0.09338 0.62133 0.0
C876 C 0.46183 0.06801 0.62472 0.0
C877 C 0.48609 0.06195 0.61302 0.0
C878 C 0.43367 0.13904 0.60169 0.0
C879 C 0.45516 0.04777 0.64099 0.0
H880 H 0.41318 0.14935 0.67224 0.0
H881 H 0.3468 0.10565 0.63957 0.0
H882 H 0.47451 0.10965 0.65519 0.0
H883 H 0.46953 0.14266 0.64195 0.0
H884 H 0.46328 0.14279 0.66703 0.0
H885 H 0.35905 0.06928 0.61705 0.0
H886 H 0.38583 0.08677 0.60214 0.0
H887 H 0.39626 0.05568 0.61601 0.0
H888 H 0.48002 0.119 0.58232 0.0
H889 H 0.49978 0.04304 0.61595 0.0
H890 H 0.43616 0.15463 0.61361 0.0
H891 H 0.40998 0.13381 0.60043 0.0
H892 H 0.44086 0.15018 0.58855 0.0
H893 H 0.46031 0.05897 0.65447 0.0
H894 H 0.46808 0.02712 0.64028 0.0
H895 H 0.43144 0.04221 0.64123 0.0
C896 C 0.69064 0.73727 0.3612 0.0
C897 C 0.6717 0.7465 0.34678 0.0
C898 C 0.68383 0.71261 0.37235 0.0
C899 C 0.65711 0.69739 0.36931 0.0
C900 C 0.63822 0.70636 0.35455 0.0
C901 C 0.6459 0.73053 0.34337 0.0
C902 C 0.70487 0.70326 0.38764 0.0
C903 C 0.60923 0.6912 0.35105 0.0
C904 C 0.63881 0.62173 0.38881 0.0
C905 C 0.62125 0.62895 0.4044 0.0
C906 C 0.65218 0.64375 0.37785 0.0
C907 C 0.64743 0.67367 0.38239 0.0
C908 C 0.6307 0.68102 0.39851 0.0
C909 C 0.61806 0.65863 0.40938 0.0
C910 C 0.67044 0.63503 0.36101 0.0
C911 C 0.62468 0.71261 0.40372 0.0
H912 H 0.71073 0.74935 0.36381 0.0
H913 H 0.63102 0.73759 0.33234 0.0
H914 H 0.69493 0.70741 0.40166 0.0
H915 H 0.70924 0.67934 0.38665 0.0
H916 H 0.72607 0.71523 0.38684 0.0
H917 H 0.59748 0.70029 0.33863 0.0
H918 H 0.61271 0.66738 0.34877 0.0
H919 H 0.59491 0.69361 0.36362 0.0
H920 H 0.64167 0.5989 0.38493 0.0
H921 H 0.60457 0.66457 0.42137 0.0
H922 H 0.69141 0.64741 0.36085 0.0
H923 H 0.65848 0.64058 0.34787 0.0
H924 H 0.67537 0.61115 0.36089 0.0
H925 H 0.64552 0.72509 0.40472 0.0
H926 H 0.61282 0.71464 0.41734 0.0
H927 H 0.61123 0.72307 0.39254 0.0
C928 C 0.13055 0.89186 0.1385 0.0
C929 C 0.12336 0.87207 0.15294 0.0
C930 C 0.10849 0.90514 0.1275 0.0
C931 C 0.07865 0.89789 0.13073 0.0
C932 C 0.07129 0.87851 0.14558 0.0
C933 C 0.09364 0.86612 0.15658 0.0
C934 C 0.11716 0.92624 0.11208 0.0
C935 C 0.03985 0.86969 0.14931 0.0
C936 C 0.01345 0.94034 0.11102 0.0
C937 C 0.00582 0.92312 0.09537 0.0
C938 C 0.03813 0.9334 0.12211 0.0
C939 C 0.05516 0.90829 0.11769 0.0
C940 C 0.04798 0.89133 0.10162 0.0
C941 C 0.02365 0.8991 0.0906 0.0
C942 C 0.04547 0.95241 0.13888 0.0
C943 C 0.06515 0.86407 0.09657 0.0
H944 H 0.15341 0.89676 0.13566 0.0
H945 H 0.08775 0.85075 0.16761 0.0
H946 H 0.11287 0.91612 0.09813 0.0
H947 H 0.10376 0.94653 0.11293 0.0
H948 H 0.14076 0.93229 0.11283 0.0
H949 H 0.03769 0.85534 0.16189 0.0
H950 H 0.026 0.88943 0.15143 0.0
H951 H 0.03099 0.85776 0.1369 0.0
H952 H 1.00001 0.95911 0.11471 0.0
H953 H 0.01797 0.88556 0.07857 0.0
H954 H 0.06914 0.95814 0.13882 0.0
H955 H 0.04107 0.94013 0.15208 0.0
H956 H 0.03239 0.97298 0.1391 0.0
H957 H 0.08884 0.86927 0.09531 0.0
H958 H 0.05764 0.85409 0.08312 0.0
H959 H 0.0628 0.84752 0.10795 0.0
C960 C 0.69057 0.76733 0.86105 0.0
C961 C 0.67056 0.75673 0.84765 0.0
C962 C 0.68396 0.79221 0.87205 0.0
C963 C 0.65638 0.80624 0.86996 0.0
C964 C 0.63627 0.79573 0.85632 0.0
C965 C 0.64374 0.77139 0.84521 0.0
C966 C 0.70626 0.80319 0.88611 0.0
C967 C 0.60635 0.80954 0.85391 0.0
C968 C 0.62096 0.84631 0.91093 0.0
C969 C 0.62271 0.87579 0.90519 0.0
C970 C 0.63286 0.82364 0.89996 0.0
C971 C 0.64736 0.83047 0.88288 0.0
C972 C 0.65065 0.86024 0.87745 0.0
C973 C 0.6381 0.88254 0.88859 0.0
C974 C 0.62848 0.79223 0.90618 0.0
C975 C 0.66647 0.86845 0.85953 0.0
H976 H 0.71144 0.75626 0.86287 0.0
H977 H 0.62806 0.76323 0.83498 0.0
H978 H 0.70993 0.82708 0.88417 0.0
H979 H 0.69785 0.79998 0.90063 0.0
H980 H 0.72763 0.79163 0.8848 0.0
H981 H 0.59354 0.79919 0.84236 0.0
H982 H 0.59368 0.80746 0.8672 0.0
H983 H 0.6086 0.8333 0.85085 0.0
H984 H 0.60921 0.84067 0.9237 0.0
H985 H 0.63982 0.90521 0.88406 0.0
H986 H 0.64975 0.78043 0.90645 0.0
H987 H 0.6141 0.78071 0.89594 0.0
H988 H 0.61829 0.79067 0.92037 0.0
H989 H 0.68784 0.85683 0.85864 0.0
H990 H 0.67045 0.89246 0.85852 0.0
H991 H 0.65321 0.86156 0.84718 0.0
C992 C 0.48827 0.44176 0.11218 0.0
C993 C 0.49537 0.4249 0.09626 0.0
C994 C 0.46372 0.43481 0.1234 0.0
C995 C 0.44627 0.41006 0.11882 0.0
C996 C 0.45282 0.39356 0.10245 0.0
C997 C 0.47704 0.40133 0.09132 0.0
C998 C 0.45703 0.45336 0.14048 0.0
C999 C 0.43516 0.3667 0.09719 0.0
C1000 C 0.40844 0.36683 0.1575 0.0
C1001 C 0.37869 0.37311 0.15425 0.0
C1002 C 0.43061 0.37946 0.14646 0.0
C1003 C 0.42304 0.39944 0.13198 0.0
C1004 C 0.39318 0.40704 0.12918 0.0
C1005 C 0.3713 0.39349 0.14019 0.0
C1006 C 0.46207 0.37024 0.14971 0.0
C1007 C 0.38429 0.42878 0.11419 0.0
H1008 H 0.50209 0.46018 0.11603 0.0
H1009 H 0.48226 0.38807 0.07908 0.0
H1010 H 0.43339 0.4592 0.14082 0.0
H1011 H 0.46183 0.44068 0.15347 0.0
H1012 H 0.47023 0.47387 0.14077 0.0
H1013 H 0.44215 0.35715 0.0835 0.0
H1014 H 0.43766 0.3497 0.10828 0.0
H1015 H 0.4115 0.37222 0.09631 0.0
H1016 H 0.41445 0.351 0.16823 0.0
H1017 H 0.34841 0.39865 0.13766 0.0
H1018 H 0.47614 0.38979 0.15196 0.0
H1019 H 0.47048 0.35869 0.13704 0.0
H1020 H 0.46443 0.35543 0.16205 0.0
H1021 H 0.39798 0.44887 0.11515 0.0
H1022 H 0.36081 0.43509 0.11535 0.0
H1023 H 0.38799 0.4191 0.10004 0.0
C1024 C 0.85327 0.13339 0.40874 0.0
C1025 C 0.88 0.12193 0.4024 0.0
C1026 C 0.83912 0.15603 0.39877 0.0
C1027 C 0.85281 0.16828 0.38264 0.0
C1028 C 0.87974 0.1564 0.37614 0.0
C1029 C 0.89273 0.133 0.38593 0.0
C1030 C 0.80989 0.16725 0.40571 0.0
C1031 C 0.89559 0.16934 0.35938 0.0
C1032 C 0.81496 0.21662 0.34633 0.0
C1033 C 0.8228 0.2447 0.35258 0.0
C1034 C 0.82281 0.19153 0.3567 0.0
C1035 C 0.84015 0.19463 0.37317 0.0
C1036 C 0.84752 0.2231 0.37972 0.0
C1037 C 0.83825 0.24783 0.36951 0.0
C1038 C 0.81347 0.16169 0.34967 0.0
C1039 C 0.86681 0.22744 0.3968 0.0
H1040 H 0.84356 0.12475 0.42154 0.0
H1041 H 0.91365 0.12428 0.38125 0.0
H1042 H 0.81249 0.18976 0.41142 0.0
H1043 H 0.79401 0.16851 0.39388 0.0
H1044 H 0.80054 0.15308 0.41695 0.0
H1045 H 0.91633 0.15754 0.35615 0.0
H1046 H 0.88133 0.16866 0.34673 0.0
H1047 H 0.90083 0.19273 0.36218 0.0
H1048 H 0.80306 0.21431 0.33317 0.0
H1049 H 0.84469 0.26959 0.37412 0.0
H1050 H 0.80463 0.14831 0.36145 0.0
H1051 H 0.83273 0.14987 0.34387 0.0
H1052 H 0.79653 0.16327 0.33845 0.0
H1053 H 0.85735 0.21603 0.40919 0.0
H1054 H 0.86975 0.251 0.40038 0.0
H1055 H 0.88874 0.21767 0.39413 0.0
C1056 C 0.09681 0.63117 0.66202 0.0
C1057 C 0.12641 0.62775 0.6569 0.0
C1058 C 0.07418 0.61873 0.65125 0.0
C1059 C 0.08117 0.60189 0.6351 0.0
C1060 C 0.11101 0.59666 0.63055 0.0
C1061 C 0.13329 0.6099 0.64138 0.0
C1062 C 0.04271 0.62533 0.65649 0.0
C1063 C 0.11939 0.57825 0.61371 0.0
C1064 C 0.01647 0.56104 0.61315 0.0
C1065 C 0.00806 0.58055 0.59882 0.0
C1066 C 0.04117 0.56687 0.62453 0.0
C1067 C 0.05728 0.59316 0.62183 0.0
C1068 C 0.04912 0.61262 0.60719 0.0
C1069 C 0.02491 0.60593 0.59579 0.0
C1070 C 0.04964 0.54523 0.63968 0.0
C1071 C 0.06522 0.6412 0.60402 0.0
H1072 H 0.0911 0.64486 0.67396 0.0
H1073 H 0.15605 0.60684 0.63739 0.0
H1074 H 0.03267 0.63943 0.64548 0.0
H1075 H 0.02969 0.6048 0.65716 0.0
H1076 H 0.04091 0.63678 0.67026 0.0
H1077 H 0.14307 0.57243 0.61379 0.0
H1078 H 0.10624 0.55776 0.61333 0.0
H1079 H 0.11463 0.59057 0.60058 0.0
H1080 H 0.00374 0.54128 0.6155 0.0
H1081 H 0.01856 0.62129 0.58486 0.0
H1082 H 0.04553 0.55497 0.65376 0.0
H1083 H 0.07343 0.54019 0.63882 0.0
H1084 H 0.03707 0.52441 0.63859 0.0
H1085 H 0.06324 0.65527 0.61673 0.0
H1086 H 0.05658 0.65356 0.59172 0.0
H1087 H 0.08893 0.63701 0.60173 0.0
C1088 C 0.64368 0.12437 0.60807 0.0
C1089 C 0.61776 0.13107 0.59832 0.0
C1090 C 0.65827 0.14595 0.61879 0.0
C1091 C 0.64602 0.17447 0.62028 0.0
C1092 C 0.61976 0.18116 0.61051 0.0
C1093 C 0.60625 0.15955 0.59945 0.0
C1094 C 0.68664 0.13824 0.62857 0.0
C1095 C 0.60542 0.21096 0.61213 0.0
C1096 C 0.65927 0.22333 0.6627 0.0
C1097 C 0.6766 0.24586 0.655 0.0
C1098 C 0.65048 0.19916 0.65183 0.0
C1099 C 0.65946 0.19713 0.63278 0.0
C1100 C 0.67849 0.21876 0.62524 0.0
C1101 C 0.68673 0.24295 0.6364 0.0
C1102 C 0.63 0.17677 0.66042 0.0
C1103 C 0.68899 0.21711 0.60509 0.0
H1104 H 0.65271 0.10241 0.60712 0.0
H1105 H 0.58602 0.16471 0.59211 0.0
H1106 H 0.70401 0.15417 0.62461 0.0
H1107 H 0.68376 0.13971 0.64406 0.0
H1108 H 0.69427 0.11576 0.625 0.0
H1109 H 0.585 0.2126 0.60364 0.0
H1110 H 0.59993 0.21554 0.62709 0.0
H1111 H 0.62082 0.22831 0.6074 0.0
H1112 H 0.65148 0.22507 0.67709 0.0
H1113 H 0.70033 0.26001 0.63032 0.0
H1114 H 0.63826 0.15422 0.65793 0.0
H1115 H 0.60813 0.17843 0.65361 0.0
H1116 H 0.6272 0.18 0.67584 0.0
H1117 H 0.69701 0.19469 0.6018 0.0
H1118 H 0.70683 0.23309 0.60218 0.0
H1119 H 0.67044 0.22182 0.59543 0.0
C1120 C 0.0943 0.36223 0.84747 0.0
C1121 C 0.12347 0.372 0.84834 0.0
C1122 C 0.07232 0.37518 0.85851 0.0
C1123 C 0.07942 0.3991 0.8704 0.0
C1124 C 0.10863 0.40983 0.87085 0.0
C1125 C 0.13046 0.39582 0.86003 0.0
C1126 C 0.04169 0.36246 0.85796 0.0
C1127 C 0.11688 0.43577 0.88296 0.0
C1128 C 0.01186 0.43986 0.88806 0.0
C1129 C 0.00735 0.42646 0.90564 0.0
C1130 C 0.03635 0.4326 0.87687 0.0
C1131 C 0.05653 0.41114 0.88329 0.0
C1132 C 0.05283 0.39862 0.90138 0.0
C1133 C 0.0285 0.40658 0.91236 0.0
C1134 C 0.0399 0.44692 0.85783 0.0
C1135 C 0.07355 0.37538 0.90872 0.0
H1136 H 0.08879 0.34363 0.83862 0.0
H1137 H 0.15294 0.40357 0.86066 0.0
H1138 H 0.03562 0.35416 0.87213 0.0
H1139 H 0.0256 0.37972 0.85414 0.0
H1140 H 0.03967 0.34415 0.8477 0.0
H1141 H 0.13973 0.44323 0.88033 0.0
H1142 H 0.10169 0.45435 0.88029 0.0
H1143 H 0.11478 0.42985 0.89806 0.0
H1144 H 0.99589 0.45545 0.88278 0.0
H1145 H 0.02548 0.39615 0.92595 0.0
H1146 H 0.03496 0.43073 0.84659 0.0
H1147 H 0.06288 0.45431 0.85578 0.0
H1148 H 0.02501 0.46603 0.85605 0.0
H1149 H 0.07153 0.35529 0.89997 0.0
H1150 H 0.06894 0.36946 0.92362 0.0
H1151 H 0.09661 0.38297 0.90768 0.0
C1152 C 0.88585 0.84761 0.09245 0.0
C1153 C 0.87769 0.87717 0.09432 0.0
C1154 C 0.87268 0.82564 0.1034 0.0
C1155 C 0.85011 0.83318 0.11623 0.0
C1156 C 0.84064 0.86276 0.1175 0.0
C1157 C 0.8549 0.88453 0.10676 0.0
C1158 C 0.88407 0.79457 0.10191 0.0
C1159 C 0.81607 0.87153 0.1306 0.0
C1160 C 0.80977 0.76638 0.13557 0.0
C1161 C 0.82491 0.76153 0.15252 0.0
C1162 C 0.81632 0.7908 0.12412 0.0
C1163 C 0.83891 0.81045 0.12956 0.0
C1164 C 0.8533 0.80635 0.14704 0.0
C1165 C 0.84596 0.7822 0.15833 0.0
C1166 C 0.79993 0.79487 0.10582 0.0
C1167 C 0.87783 0.82643 0.15332 0.0
H1168 H 0.90361 0.84173 0.08301 0.0
H1169 H 0.84833 0.90729 0.10817 0.0
H1170 H 0.89389 0.78786 0.11557 0.0
H1171 H 0.86581 0.7792 0.09887 0.0
H1172 H 0.90096 0.79214 0.09073 0.0
H1173 H 0.80852 0.89435 0.12798 0.0
H1174 H 0.79715 0.8564 0.12898 0.0
H1175 H 0.82364 0.86994 0.14542 0.0
H1176 H 0.79327 0.75078 0.13101 0.0
H1177 H 0.85778 0.77891 0.17141 0.0
H1178 H 0.81455 0.78939 0.09383 0.0
H1179 H 0.79311 0.8181 0.10412 0.0
H1180 H 0.78016 0.78064 0.105 0.0
H1181 H 0.89669 0.8243 0.1435 0.0
H1182 H 0.88557 0.82133 0.1678 0.0
H1183 H 0.87058 0.84965 0.15292 0.0
C1184 C 0.47673 0.60372 0.40689 0.0
C1185 C 0.49438 0.57917 0.40299 0.0
C1186 C 0.45273 0.61099 0.39546 0.0
C1187 C 0.4456 0.59298 0.37987 0.0
C1188 C 0.4624 0.56737 0.37632 0.0
C1189 C 0.48684 0.56094 0.38779 0.0
C1190 C 0.43584 0.63882 0.39959 0.0
C1191 C 0.45504 0.54722 0.36012 0.0
C1192 C 0.37043 0.61023 0.35915 0.0
C1193 C 0.37787 0.62947 0.34445 0.0
C1194 C 0.39232 0.5965 0.37006 0.0
C1195 C 0.42229 0.60273 0.36648 0.0
C1196 C 0.42989 0.62124 0.35122 0.0
C1197 C 0.40767 0.63408 0.34031 0.0
C1198 C 0.38333 0.5763 0.38589 0.0
C1199 C 0.46149 0.629 0.3471 0.0
H1200 H 0.48233 0.61808 0.41853 0.0
H1201 H 0.50016 0.54181 0.38475 0.0
H1202 H 0.43829 0.65436 0.38765 0.0
H1203 H 0.41211 0.63395 0.40107 0.0
H1204 H 0.44351 0.64985 0.41266 0.0
H1205 H 0.46776 0.52644 0.36067 0.0
H1206 H 0.43127 0.54191 0.36017 0.0
H1207 H 0.4599 0.55839 0.34659 0.0
H1208 H 0.3475 0.60629 0.36237 0.0
H1209 H 0.41377 0.64895 0.32905 0.0
H1210 H 0.38727 0.58728 0.39962 0.0
H1211 H 0.39674 0.55597 0.38568 0.0
H1212 H 0.35975 0.57022 0.38506 0.0
H1213 H 0.47065 0.64186 0.35901 0.0
H1214 H 0.46386 0.64214 0.33399 0.0
H1215 H 0.47493 0.60883 0.3457 0.0
C1216 C 0.38776 0.15959 0.09278 0.0
C1217 C 0.38135 0.12991 0.09622 0.0
C1218 C 0.37467 0.182 0.1034 0.0
C1219 C 0.35414 0.17475 0.11764 0.0
C1220 C 0.34623 0.14498 0.12046 0.0
C1221 C 0.36018 0.12287 0.10987 0.0
C1222 C 0.3842 0.21336 0.10012 0.0
C1223 C 0.32392 0.1364 0.13518 0.0
C1224 C 0.35242 0.22808 0.15865 0.0
C1225 C 0.32908 0.24675 0.15378 0.0
C1226 C 0.3601 0.20407 0.14732 0.0
C1227 C 0.34373 0.19805 0.13081 0.0
C1228 C 0.31924 0.21588 0.12626 0.0
C1229 C 0.31238 0.24023 0.13769 0.0
C1230 C 0.38669 0.186 0.15257 0.0
C1231 C 0.30084 0.20975 0.10902 0.0
H1232 H 0.40412 0.16536 0.08233 0.0
H1233 H 0.35487 0.10005 0.11253 0.0
H1234 H 0.36481 0.22767 0.09794 0.0
H1235 H 0.39596 0.22161 0.11276 0.0
H1236 H 0.39895 0.21555 0.08773 0.0
H1237 H 0.31708 0.11309 0.13379 0.0
H1238 H 0.33338 0.13962 0.14944 0.0
H1239 H 0.30418 0.15058 0.13414 0.0
H1240 H 0.36559 0.23283 0.171 0.0
H1241 H 0.29417 0.25434 0.13388 0.0
H1242 H 0.40373 0.18823 0.14149 0.0
H1243 H 0.38078 0.16243 0.15345 0.0
H1244 H 0.39635 0.19281 0.16627 0.0
H1245 H 0.31377 0.21458 0.09614 0.0
H1246 H 0.28053 0.22323 0.10872 0.0
H1247 H 0.29467 0.1862 0.10848 0.0
C1248 C 0.51975 0.55865 0.88935 0.0
C1249 C 0.50708 0.58091 0.9003 0.0
C1250 C 0.54478 0.5643 0.87822 0.0
C1251 C 0.55667 0.59306 0.87762 0.0
C1252 C 0.54365 0.61558 0.88853 0.0
C1253 C 0.51936 0.60913 0.8999 0.0
C1254 C 0.55853 0.53957 0.86717 0.0
C1255 C 0.55503 0.64673 0.88796 0.0
C1256 C 0.63344 0.61439 0.86182 0.0
C1257 C 0.62786 0.62634 0.84394 0.0
C1258 C 0.61086 0.60133 0.87245 0.0
C1259 C 0.58195 0.60042 0.8651 0.0
C1260 C 0.57663 0.61061 0.84657 0.0
C1261 C 0.5996 0.62328 0.83621 0.0
C1262 C 0.61758 0.59022 0.89202 0.0
C1263 C 0.54616 0.61025 0.83818 0.0
H1264 H 0.51041 0.53677 0.88974 0.0
H1265 H 0.50943 0.6265 0.90818 0.0
H1266 H 0.5576 0.5445 0.85188 0.0
H1267 H 0.58204 0.53739 0.87101 0.0
H1268 H 0.5474 0.51825 0.86974 0.0
H1269 H 0.54221 0.66173 0.89716 0.0
H1270 H 0.57831 0.64732 0.89251 0.0
H1271 H 0.55414 0.65522 0.87331 0.0
H1272 H 0.6552 0.6163 0.86791 0.0
H1273 H 0.59496 0.63208 0.82235 0.0
H1274 H 0.60699 0.56862 0.89445 0.0
H1275 H 0.60859 0.60576 0.90259 0.0
H1276 H 0.64157 0.58803 0.89448 0.0
H1277 H 0.53576 0.58845 0.84011 0.0
H1278 H 0.54628 0.61563 0.82291 0.0
H1279 H 0.53225 0.6266 0.84558 0.0
C1280 C 0.14866 0.77414 0.65841 0.0
C1281 C 0.17245 0.75602 0.65361 0.0
C1282 C 0.1408 0.79824 0.6472 0.0
C1283 C 0.15741 0.80487 0.63088 0.0
C1284 C 0.18218 0.78744 0.62633 0.0
C1285 C 0.18924 0.76302 0.63764 0.0
C1286 C 0.11394 0.8159 0.65243 0.0
C1287 C 0.20079 0.79418 0.60928 0.0
C1288 C 0.11456 0.84462 0.59279 0.0
C1289 C 0.12114 0.87417 0.59655 0.0
C1290 C 0.12711 0.82185 0.60338 0.0
C1291 C 0.14723 0.82862 0.61795 0.0
C1292 C 0.15523 0.85826 0.62119 0.0
C1293 C 0.14187 0.88072 0.61059 0.0
C1294 C 0.11755 0.79064 0.59964 0.0
C1295 C 0.17707 0.86633 0.63632 0.0
H1296 H 0.13542 0.76895 0.67066 0.0
H1297 H 0.2078 0.74933 0.6339 0.0
H1298 H 0.11963 0.83948 0.6537 0.0
H1299 H 0.09719 0.81393 0.64114 0.0
H1300 H 0.104 0.80854 0.66592 0.0
H1301 H 0.22097 0.78051 0.60876 0.0
H1302 H 0.18792 0.79015 0.59626 0.0
H1303 H 0.20721 0.81767 0.60924 0.0
H1304 H 0.09853 0.8392 0.58205 0.0
H1305 H 0.14729 0.90343 0.61352 0.0
H1306 H 0.10548 0.78205 0.61206 0.0
H1307 H 0.13694 0.77632 0.59747 0.0
H1308 H 0.10308 0.78886 0.58709 0.0
H1309 H 0.16725 0.86239 0.6504 0.0
H1310 H 0.18379 0.88973 0.63545 0.0
H1311 H 0.19693 0.85234 0.63523 0.0
C1312 C 0.98989 0.43977 0.38915 0.0
C1313 C 0.998 0.4227 0.40477 0.0
C1314 C 0.96534 0.43224 0.37808 0.0
C1315 C 0.94897 0.40669 0.38249 0.0
C1316 C 0.95676 0.38974 0.39844 0.0
C1317 C 0.98092 0.39809 0.40944 0.0
C1318 C 0.95733 0.45122 0.36143 0.0
C1319 C 0.94029 0.36203 0.40348 0.0
C1320 C 0.87298 0.38921 0.36305 0.0
C1321 C 0.87972 0.36921 0.34863 0.0
C1322 C 0.89535 0.40294 0.37354 0.0
C1323 C 0.92512 0.39612 0.36976 0.0
C1324 C 0.93204 0.37676 0.3548 0.0
C1325 C 0.90935 0.36376 0.34437 0.0
C1326 C 0.88708 0.42391 0.38913 0.0
C1327 C 0.96344 0.36851 0.35043 0.0
H1328 H 0.00279 0.45894 0.38552 0.0
H1329 H 0.98701 0.38461 0.42141 0.0
H1330 H 0.96131 0.43898 0.34816 0.0
H1331 H 0.93363 0.4568 0.36184 0.0
H1332 H 0.97027 0.47188 0.36103 0.0
H1333 H 0.9485 0.35186 0.4167 0.0
H1334 H 0.91657 0.3668 0.40518 0.0
H1335 H 0.94246 0.34581 0.3919 0.0
H1336 H 0.85022 0.3938 0.36637 0.0
H1337 H 0.91494 0.34836 0.33329 0.0
H1338 H 0.90027 0.44433 0.38811 0.0
H1339 H 0.89199 0.41376 0.40299 0.0
H1340 H 0.86342 0.42975 0.38875 0.0
H1341 H 0.97694 0.3885 0.34833 0.0
H1342 H 0.96525 0.35457 0.33764 0.0
H1343 H 0.97294 0.35633 0.36253 0.0
C1344 C 0.31408 0.76641 0.36157 0.0
C1345 C 0.33243 0.75781 0.34667 0.0
C1346 C 0.32086 0.79111 0.37269 0.0
C1347 C 0.34695 0.80713 0.36912 0.0
C1348 C 0.36526 0.79879 0.35392 0.0
C1349 C 0.35763 0.77451 0.3428 0.0
C1350 C 0.30044 0.79972 0.3885 0.0
C1351 C 0.39359 0.81482 0.34981 0.0
C1352 C 0.36359 0.88333 0.38852 0.0
C1353 C 0.38201 0.87666 0.4038 0.0
C1354 C 0.35057 0.86091 0.37771 0.0
C1355 C 0.35659 0.83114 0.38203 0.0
C1356 C 0.37434 0.8243 0.3978 0.0
C1357 C 0.38657 0.84707 0.40855 0.0
C1358 C 0.33124 0.86909 0.36126 0.0
C1359 C 0.38178 0.79292 0.40275 0.0
H1360 H 0.29444 0.7538 0.36455 0.0
H1361 H 0.37208 0.768 0.3314 0.0
H1362 H 0.31139 0.79601 0.40226 0.0
H1363 H 0.29513 0.82345 0.38761 0.0
H1364 H 0.27966 0.78697 0.38825 0.0
H1365 H 0.40492 0.80613 0.33712 0.0
H1366 H 0.38927 0.83853 0.34766 0.0
H1367 H 0.40863 0.8128 0.36204 0.0
H1368 H 0.35971 0.90608 0.38481 0.0
H1369 H 0.4008 0.84153 0.42027 0.0
H1370 H 0.31063 0.85612 0.36155 0.0
H1371 H 0.34267 0.86385 0.34787 0.0
H1372 H 0.32562 0.89282 0.36123 0.0
H1373 H 0.36147 0.77969 0.40418 0.0
H1374 H 0.39446 0.79122 0.41608 0.0
H1375 H 0.39495 0.78302 0.39124 0.0
C1376 C 0.98908 0.56663 0.11188 0.0
C1377 C 0.99705 0.58336 0.09608 0.0
C1378 C 0.96419 0.57394 0.12269 0.0
C1379 C 0.94726 0.5989 0.1178 0.0
C1380 C 0.95475 0.61534 0.10157 0.0
C1381 C 0.97932 0.60724 0.09086 0.0
C1382 C 0.95655 0.55549 0.13966 0.0
C1383 C 0.93766 0.64241 0.09601 0.0
C1384 C 0.87158 0.61576 0.1381 0.0
C1385 C 0.87858 0.63591 0.15238 0.0
C1386 C 0.89378 0.60233 0.12728 0.0
C1387 C 0.92357 0.60975 0.13054 0.0
C1388 C 0.93073 0.62959 0.14519 0.0
C1389 C 0.90825 0.64215 0.15599 0.0
C1390 C 0.88532 0.58079 0.11207 0.0
C1391 C 0.96211 0.6386 0.14894 0.0
H1392 H 0.00242 0.54797 0.11593 0.0
H1393 H 0.98522 0.6204 0.07871 0.0
H1394 H 0.96072 0.56821 0.15272 0.0
H1395 H 0.93287 0.54976 0.1395 0.0
H1396 H 0.96961 0.53493 0.14026 0.0
H1397 H 0.94534 0.65186 0.08244 0.0
H1398 H 0.91398 0.63719 0.09473 0.0
H1399 H 0.93992 0.65939 0.10714 0.0
H1400 H 0.84876 0.61064 0.13528 0.0
H1401 H 0.91399 0.6578 0.16689 0.0
H1402 H 0.89858 0.56046 0.11332 0.0
H1403 H 0.88999 0.59041 0.09802 0.0
H1404 H 0.86168 0.57489 0.11268 0.0
H1405 H 0.97594 0.61896 0.15145 0.0
H1406 H 0.9641 0.65345 0.16129 0.0
H1407 H 0.97113 0.65004 0.13639 0.0
C1408 C 0.19296 0.23902 0.86258 0.0
C1409 C 0.17462 0.24679 0.84749 0.0
C1410 C 0.18676 0.21425 0.8738 0.0
C1411 C 0.16124 0.19737 0.87012 0.0
C1412 C 0.14314 0.20472 0.85462 0.0
C1413 C 0.15021 0.22904 0.84342 0.0
C1414 C 0.20701 0.20664 0.8899 0.0
C1415 C 0.1154 0.18776 0.85037 0.0
C1416 C 0.14423 0.12186 0.89036 0.0
C1417 C 0.12503 0.12905 0.90513 0.0
C1418 C 0.15786 0.14394 0.87957 0.0
C1419 C 0.15158 0.17384 0.88335 0.0
C1420 C 0.13307 0.18117 0.89866 0.0
C1421 C 0.12031 0.15877 0.90944 0.0
C1422 C 0.17806 0.13525 0.86367 0.0
C1423 C 0.12526 0.2127 0.90299 0.0
H1424 H 0.212 0.25242 0.86573 0.0
H1425 H 0.13576 0.23482 0.83187 0.0
H1426 H 0.19592 0.21129 0.90349 0.0
H1427 H 0.21233 0.18287 0.88968 0.0
H1428 H 0.22778 0.21939 0.88938 0.0
H1429 H 0.10434 0.19558 0.83735 0.0
H1430 H 0.12038 0.16408 0.84872 0.0
H1431 H 0.09983 0.18994 0.86232 0.0
H1432 H 0.14826 0.09899 0.88703 0.0
H1433 H 0.10548 0.16466 0.92077 0.0
H1434 H 0.19836 0.1487 0.86396 0.0
H1435 H 0.16707 0.13938 0.84997 0.0
H1436 H 0.18419 0.11167 0.86434 0.0
H1437 H 0.14542 0.22612 0.90453 0.0
H1438 H 0.11206 0.21482 0.91609 0.0
H1439 H 0.11244 0.22205 0.89112 0.0
C1440 C 0.52763 0.40038 0.59277 0.0
C1441 C 0.50865 0.42332 0.59793 0.0
C1442 C 0.55183 0.39278 0.60397 0.0
C1443 C 0.55768 0.40881 0.62064 0.0
C1444 C 0.53951 0.4329 0.62549 0.0
C1445 C 0.51503 0.4397 0.61418 0.0
C1446 C 0.57029 0.36664 0.59839 0.0
C1447 C 0.54542 0.45091 0.64293 0.0
C1448 C 0.59651 0.36527 0.6588 0.0
C1449 C 0.62607 0.37256 0.65573 0.0
C1450 C 0.57404 0.37764 0.64787 0.0
C1451 C 0.58111 0.3984 0.63374 0.0
C1452 C 0.61074 0.407 0.63117 0.0
C1453 C 0.63295 0.39369 0.64203 0.0
C1454 C 0.54286 0.36733 0.65085 0.0
C1455 C 0.61909 0.42958 0.61656 0.0
H1456 H 0.52299 0.3875 0.58028 0.0
H1457 H 0.5007 0.45762 0.61821 0.0
H1458 H 0.59379 0.37287 0.59768 0.0
H1459 H 0.5682 0.34919 0.60923 0.0
H1460 H 0.5637 0.35736 0.58455 0.0
H1461 H 0.53155 0.47095 0.64352 0.0
H1462 H 0.54093 0.43752 0.65567 0.0
H1463 H 0.56885 0.45752 0.64348 0.0
H1464 H 0.59091 0.34883 0.66924 0.0
H1465 H 0.65569 0.3996 0.63965 0.0
H1466 H 0.53495 0.35594 0.63798 0.0
H1467 H 0.52815 0.38633 0.6533 0.0
H1468 H 0.54085 0.35203 0.66297 0.0
H1469 H 0.61577 0.42036 0.60225 0.0
H1470 H 0.64236 0.43655 0.61791 0.0
H1471 H 0.6048 0.44921 0.6178 0.0
C1472 C 0.29041 0.29141 0.22461 0.0
C1473 C 0.26903 0.29739 0.21093 0.0
C1474 C 0.28368 0.2746 0.24064 0.0
C1475 C 0.25474 0.26399 0.24321 0.0
C1476 C 0.23296 0.27035 0.22957 0.0
C1477 C 0.24043 0.28675 0.21351 0.0
C1478 C 0.30764 0.26788 0.2547 0.0
C1479 C 0.20173 0.25986 0.23196 0.0
C1480 C 0.24149 0.19805 0.27496 0.0
C1481 C 0.23323 0.2116 0.29182 0.0
C1482 C 0.24903 0.21487 0.2591 0.0
C1483 C 0.24732 0.2459 0.26005 0.0
C1484 C 0.23845 0.25959 0.27707 0.0
C1485 C 0.23194 0.24221 0.29288 0.0
C1486 C 0.25907 0.19948 0.24139 0.0
C1487 C 0.23561 0.29252 0.27851 0.0
H1488 H 0.31257 0.2995 0.22267 0.0
H1489 H 0.22378 0.29144 0.20303 0.0
H1490 H 0.30158 0.27655 0.26878 0.0
H1491 H 0.31025 0.24376 0.25614 0.0
H1492 H 0.3291 0.27747 0.25053 0.0
H1493 H 0.18718 0.26753 0.2204 0.0
H1494 H 0.20116 0.23553 0.23233 0.0
H1495 H 0.19277 0.26781 0.24557 0.0
H1496 H 0.24254 0.17429 0.27432 0.0
H1497 H 0.22536 0.2525 0.30601 0.0
H1498 H 0.28115 0.20752 0.23727 0.0
H1499 H 0.24391 0.20457 0.2296 0.0
H1500 H 0.26007 0.17527 0.24316 0.0
H1501 H 0.25715 0.30304 0.27579 0.0
H1502 H 0.22763 0.29964 0.29259 0.0
H1503 H 0.22013 0.30067 0.26763 0.0
C1504 C 0.01543 0.99715 0.54618 0.0
C1505 C 0.04409 0.98676 0.54374 0.0
C1506 C 0.99763 0.00361 0.53053 0.0
C1507 C 0.0093 1.00076 0.51209 0.0
C1508 C 0.03858 0.99096 0.50967 0.0
C1509 C 0.0554 0.98343 0.52553 0.0
C1510 C 0.96619 0.0128 0.53371 0.0
C1511 C 0.0522 0.98857 0.49032 0.0
C1512 C 0.95981 0.9909 0.46939 0.0
C1513 C 0.95773 0.01966 0.46256 0.0
C1514 C 0.97565 0.98462 0.48589 0.0
C1515 C 0.9908 0.00748 0.4953 0.0
C1516 C 0.98893 0.03657 0.48833 0.0
C1517 C 0.97188 0.04241 0.47224 0.0
C1518 C 0.97617 0.95352 0.49324 0.0
C1519 C 0.00561 0.06137 0.49752 0.0
H1520 H 0.00664 0.99931 0.56032 0.0
H1521 H 0.07765 0.97547 0.52374 0.0
H1522 H 0.96246 0.03505 0.52785 0.0
H1523 H 0.95119 0.99759 0.52618 0.0
H1524 H 0.96021 0.01298 0.54889 0.0
H1525 H 0.0758 0.98254 0.49095 0.0
H1526 H 0.04047 0.97175 0.48191 0.0
H1527 H 0.05005 0.00977 0.48273 0.0
H1528 H 0.94865 0.97335 0.46197 0.0
H1529 H 0.97044 0.06463 0.46689 0.0
H1530 H 0.96951 0.95312 0.50828 0.0
H1531 H 0.99878 0.94461 0.49244 0.0
H1532 H 0.96136 0.9388 0.48515 0.0
H1533 H 0.99868 0.06385 0.51241 0.0
H1534 H 0.00223 0.08264 0.49017 0.0
H1535 H 0.02944 0.05629 0.49758 0.0
C1536 C 0.24597 0.73889 0.70674 0.0
C1537 C 0.23602 0.71012 0.70943 0.0
C1538 C 0.2524 0.75706 0.72221 0.0
C1539 C 0.25001 0.74569 0.74074 0.0
C1540 C 0.24046 0.71637 0.74345 0.0
C1541 C 0.23292 0.69915 0.72774 0.0
C1542 C 0.26132 0.78851 0.71873 0.0
C1543 C 0.23866 0.70305 0.7629 0.0
C1544 C 0.29392 0.78421 0.7791 0.0
C1545 C 0.27184 0.79884 0.78911 0.0
C1546 C 0.28708 0.76644 0.76352 0.0
C1547 C 0.2576 0.76438 0.75729 0.0
C1548 C 0.23534 0.77993 0.76703 0.0
C1549 C 0.24266 0.79646 0.78309 0.0
C1550 C 0.3113 0.74936 0.75399 0.0
C1551 C 0.20384 0.77927 0.76043 0.0
H1552 H 0.24799 0.74741 0.69253 0.0
H1553 H 0.22533 0.67681 0.72975 0.0
H1554 H 0.24656 0.80354 0.72659 0.0
H1555 H 0.28391 0.7923 0.72401 0.0
H1556 H 0.26058 0.79438 0.70354 0.0
H1557 H 0.23223 0.67954 0.76251 0.0
H1558 H 0.26022 0.70496 0.77008 0.0
H1559 H 0.22243 0.71516 0.77156 0.0
H1560 H 0.31648 0.7859 0.78378 0.0
H1561 H 0.22559 0.80798 0.79075 0.0
H1562 H 0.31338 0.75627 0.73907 0.0
H1563 H 0.30586 0.72561 0.754 0.0
H1564 H 0.33286 0.75243 0.76104 0.0
H1565 H 0.2026 0.78584 0.74538 0.0
H1566 H 0.18955 0.79411 0.76881 0.0
H1567 H 0.19503 0.75665 0.76148 0.0
C1568 C 0.44964 0.02163 0.02529 0.0
C1569 C 0.46112 0.01918 0.04351 0.0
C1570 C 0.46669 0.01433 0.00947 0.0
C1571 C 0.49633 0.00571 0.01194 0.0
C1572 C 0.50819 0.00393 0.03038 0.0
C1573 C 0.4902 0.01009 0.046 0.0
C1574 C 0.45286 0.01548 0.99014 0.0
C1575 C 0.53996 0.99599 0.03361 0.0
C1576 C 0.53468 0.96248 0.97318 0.0
C1577 C 0.54841 0.98483 0.96287 0.0
C1578 C 0.5174 0.96898 0.98904 0.0
C1579 C 0.51482 0.99845 0.99521 0.0
C1580 C 0.52941 0.02101 0.98515 0.0
C1581 C 0.54553 0.01399 0.96886 0.0
C1582 C 0.50134 0.94441 0.99892 0.0
C1583 C 0.52812 0.05255 0.99163 0.0
H1584 H 0.42707 0.02861 0.02345 0.0
H1585 H 0.4991 0.00863 0.06014 0.0
H1586 H 0.46423 0.03201 0.9813 0.0
H1587 H 0.4553 0.99392 0.98302 0.0
H1588 H 0.42916 0.02114 0.99073 0.0
H1589 H 0.54617 0.99715 0.04874 0.0
H1590 H 0.54427 0.97344 0.02844 0.0
H1591 H 0.55436 0.01105 0.0255 0.0
H1592 H 0.53672 0.93993 0.96853 0.0
H1593 H 0.55635 0.03127 0.96097 0.0
H1594 H 0.47744 0.94909 0.99914 0.0
H1595 H 0.5087 0.94281 0.01378 0.0
H1596 H 0.50491 0.92283 0.992 0.0
H1597 H 0.50524 0.06074 0.99082 0.0
H1598 H 0.54232 0.06714 0.98301 0.0
H1599 H 0.5351 0.05413 0.00659 0.0
C1600 C 0.27373 0.69983 0.2724 0.0
C1601 C 0.2691 0.71087 0.29057 0.0
C1602 C 0.26624 0.71645 0.25643 0.0
C1603 C 0.25509 0.74527 0.25873 0.0
C1604 C 0.25113 0.75675 0.27712 0.0
C1605 C 0.2576 0.73914 0.29284 0.0
C1606 C 0.26978 0.70298 0.23711 0.0
C1607 C 0.24041 0.78774 0.28019 0.0
C1608 C 0.26197 0.79621 0.21643 0.0
C1609 C 0.23301 0.79713 0.20985 0.0
C1610 C 0.26935 0.78001 0.23261 0.0
C1611 C 0.24744 0.76333 0.24191 0.0
C1612 C 0.21823 0.7638 0.23505 0.0
C1613 C 0.21125 0.78123 0.21934 0.0
C1614 C 0.30049 0.78099 0.23987 0.0
C1615 C 0.19445 0.74551 0.2441 0.0
H1616 H 0.2825 0.67786 0.27071 0.0
H1617 H 0.25437 0.74774 0.30694 0.0
H1618 H 0.24853 0.70358 0.22947 0.0
H1619 H 0.28574 0.71588 0.22871 0.0
H1620 H 0.27749 0.67988 0.23779 0.0
H1621 H 0.24003 0.79385 0.29535 0.0
H1622 H 0.25477 0.80341 0.27255 0.0
H1623 H 0.21795 0.79026 0.27441 0.0
H1624 H 0.27876 0.8087 0.20915 0.0
H1625 H 0.18889 0.78174 0.21415 0.0
H1626 H 0.31039 0.75879 0.23927 0.0
H1627 H 0.30063 0.78798 0.25486 0.0
H1628 H 0.3145 0.79628 0.23163 0.0
H1629 H 0.20118 0.72209 0.24436 0.0
H1630 H 0.17318 0.74731 0.23654 0.0
H1631 H 0.19115 0.75247 0.25892 0.0
C1632 C 0.48663 0.99893 0.45605 0.0
C1633 C 0.45809 0.98811 0.45831 0.0
C1634 C 0.50418 0.00544 0.47178 0.0
C1635 C 0.49238 0.00222 0.49014 0.0
C1636 C 0.46325 0.99186 0.49242 0.0
C1637 C 0.44668 0.98428 0.47645 0.0
C1638 C 0.53547 0.01528 0.46875 0.0
C1639 C 0.44949 0.98914 0.5117 0.0
C1640 C 0.54251 0.99432 0.53271 0.0
C1641 C 0.54419 0.0233 0.53919 0.0
C1642 C 0.52637 0.98727 0.51646 0.0
C1643 C 0.51051 0.00957 0.50698 0.0
C1644 C 0.51181 0.03884 0.51367 0.0
C1645 C 0.52919 0.04546 0.52947 0.0
C1646 C 0.52649 0.95603 0.50936 0.0
C1647 C 0.49439 0.06305 0.5044 0.0
H1648 H 0.49549 1.00151 0.44196 0.0
H1649 H 0.42451 0.97602 0.47811 0.0
H1650 H 0.53862 0.03769 0.47449 0.0
H1651 H 0.55068 1.00052 0.47647 0.0
H1652 H 0.54169 0.01538 0.45361 0.0
H1653 H 0.42611 0.98228 0.51098 0.0
H1654 H 0.46169 0.97283 0.52025 0.0
H1655 H 0.45081 0.01047 0.51922 0.0
H1656 H 0.55432 0.97723 0.54017 0.0
H1657 H 0.53033 0.06785 0.53454 0.0
H1658 H 0.53347 0.95549 0.49437 0.0
H1659 H 0.50402 0.94675 0.51002 0.0
H1660 H 0.54138 0.9417 0.51767 0.0
H1661 H 0.50154 0.06585 0.48957 0.0
H1662 H 0.49686 0.08439 0.51181 0.0
H1663 H 0.47077 0.0571 0.50412 0.0
C1664 C 0.21081 0.28389 0.7806 0.0
C1665 C 0.23291 0.29873 0.79047 0.0
C1666 C 0.21758 0.2662 0.76498 0.0
C1667 C 0.24699 0.26441 0.75859 0.0
C1668 C 0.26926 0.28012 0.76821 0.0
C1669 C 0.26203 0.29658 0.78431 0.0
C1670 C 0.19337 0.24893 0.75558 0.0
C1671 C 0.30067 0.27973 0.76142 0.0
C1672 C 0.27157 0.19955 0.72873 0.0
C1673 C 0.26807 0.21062 0.71047 0.0
C1674 C 0.26423 0.21663 0.74453 0.0
C1675 C 0.25445 0.24589 0.74195 0.0
C1676 C 0.25165 0.25736 0.72347 0.0
C1677 C 0.25789 0.23933 0.70792 0.0
C1678 C 0.26647 0.20321 0.76393 0.0
C1679 C 0.24245 0.28877 0.72014 0.0
H1680 H 0.18831 0.2854 0.7854 0.0
H1681 H 0.27909 0.30826 0.79188 0.0
H1682 H 0.19096 0.25593 0.7407 0.0
H1683 H 0.19903 0.22524 0.75548 0.0
H1684 H 0.1719 0.25174 0.76279 0.0
H1685 H 0.31498 0.29458 0.76978 0.0
H1686 H 0.30964 0.25716 0.76232 0.0
H1687 H 0.30165 0.28646 0.7464 0.0
H1688 H 0.27934 0.17725 0.73062 0.0
H1689 H 0.25557 0.24792 0.69374 0.0
H1690 H 0.24501 0.20487 0.77126 0.0
H1691 H 0.28272 0.21542 0.77252 0.0
H1692 H 0.27311 0.17976 0.76344 0.0
H1693 H 0.21992 0.29236 0.72557 0.0
H1694 H 0.24291 0.29475 0.70496 0.0
H1695 H 0.25722 0.30386 0.72795 0.0
C1696 C 0.03415 0.04161 0.97086 0.0
C1697 C 0.04784 0.01934 0.96047 0.0
C1698 C 0.01621 0.03492 0.98637 0.0
C1699 C 0.01294 0.00532 0.99211 0.0
C1700 C 0.02739 0.9828 0.98193 0.0
C1701 C 0.04418 0.99005 0.96598 0.0
C1702 C 1.00035 0.05948 0.9964 0.0
C1703 C 0.02537 0.9511 0.98801 0.0
C1704 C 0.98806 0.99357 0.04272 0.0
C1705 C 0.95874 0.98531 0.0402 0.0
C1706 C 0.00622 0.99931 0.02715 0.0
C1707 C 0.99432 0.99798 0.00871 0.0
C1708 C 0.96449 0.99006 0.00618 0.0
C1709 C 0.94722 0.98315 0.02197 0.0
C1710 C 0.03816 0.00651 0.03042 0.0
C1711 C 0.95068 0.98945 0.98684 0.0
H1712 H 0.0368 0.06427 0.96658 0.0
H1713 H 0.05497 0.97283 0.95801 0.0
H1714 H 0.97641 0.055 0.9966 0.0
H1715 H 0.00776 0.0608 0.01126 0.0
H1716 H 0.0041 0.08113 0.9896 0.0
H1717 H 0.03916 0.93644 0.97917 0.0
H1718 H 0.0324 0.94891 0.00292 0.0
H1719 H 0.0023 0.94347 0.98717 0.0
H1720 H 0.99697 0.99482 0.05687 0.0
H1721 H 0.92446 0.97682 0.02012 0.0
H1722 H 0.04292 0.02911 0.02551 0.0
H1723 H 0.05224 0.99139 0.02213 0.0
H1724 H 0.04438 0.00481 0.04553 0.0
H1725 H 0.95325 0.01118 0.97996 0.0
H1726 H 0.92694 0.98391 0.98736 0.0
H1727 H 0.96197 0.9731 0.97782 0.0
C1728 C 0.79038 0.78538 0.72066 0.0
C1729 C 0.7677 0.79937 0.71082 0.0
C1730 C 0.78438 0.76805 0.73659 0.0
C1731 C 0.75516 0.76576 0.74328 0.0
C1732 C 0.73233 0.78076 0.73373 0.0
C1733 C 0.73881 0.79686 0.71737 0.0
C1734 C 0.80917 0.75156 0.74593 0.0
C1735 C 0.70109 0.77983 0.74081 0.0
C1736 C 0.73186 0.70068 0.77337 0.0
C1737 C 0.73511 0.71193 0.7916 0.0
C1738 C 0.73902 0.71773 0.75753 0.0
C1739 C 0.74834 0.74716 0.76001 0.0
C1740 C 0.75097 0.7588 0.77846 0.0
C1741 C 0.74492 0.74079 0.79407 0.0
C1742 C 0.73694 0.70415 0.73816 0.0
C1743 C 0.75965 0.79038 0.7817 0.0
H1744 H 0.8127 0.78716 0.71554 0.0
H1745 H 0.72129 0.80788 0.70982 0.0
H1746 H 0.81141 0.75857 0.76082 0.0
H1747 H 0.80424 0.7277 0.746 0.0
H1748 H 0.8305 0.75507 0.73868 0.0
H1749 H 0.68635 0.79447 0.73261 0.0
H1750 H 0.69248 0.75711 0.73993 0.0
H1751 H 0.7003 0.78647 0.75585 0.0
H1752 H 0.7244 0.67826 0.77153 0.0
H1753 H 0.74707 0.74952 0.80822 0.0
H1754 H 0.75825 0.70639 0.73071 0.0
H1755 H 0.72023 0.71584 0.72964 0.0
H1756 H 0.73097 0.68052 0.73873 0.0
H1757 H 0.78196 0.79442 0.77603 0.0
H1758 H 0.75945 0.79636 0.79688 0.0
H1759 H 0.74438 0.80516 0.77405 0.0
C1760 C 0.72836 0.19905 0.22919 0.0
C1761 C 0.73269 0.21143 0.21135 0.0
C1762 C 0.73498 0.21497 0.24563 0.0
C1763 C 0.74489 0.24438 0.24414 0.0
C1764 C 0.74822 0.25726 0.22608 0.0
C1765 C 0.7427 0.24039 0.20989 0.0
C1766 C 0.73221 0.20006 0.26455 0.0
C1767 C 0.75761 0.28885 0.22385 0.0
C1768 C 0.73851 0.29289 0.28771 0.0
C1769 C 0.7678 0.29459 0.29363 0.0
C1770 C 0.73074 0.277 0.27146 0.0
C1771 C 0.75264 0.26142 0.26139 0.0
C1772 C 0.78215 0.26248 0.26766 0.0
C1773 C 0.78945 0.27961 0.28344 0.0
C1774 C 0.69926 0.27739 0.26483 0.0
C1775 C 0.806 0.24535 0.25778 0.0
H1776 H 0.72076 0.17656 0.23025 0.0
H1777 H 0.74571 0.25 0.19604 0.0
H1778 H 0.75376 0.20026 0.27185 0.0
H1779 H 0.71652 0.21217 0.27361 0.0
H1780 H 0.72465 0.17696 0.26327 0.0
H1781 H 0.75678 0.29623 0.20893 0.0
H1782 H 0.74324 0.30334 0.2324 0.0
H1783 H 0.78034 0.29169 0.22911 0.0
H1784 H 0.72178 0.30469 0.29549 0.0
H1785 H 0.8121 0.28077 0.28801 0.0
H1786 H 0.69024 0.25479 0.26467 0.0
H1787 H 0.69817 0.28583 0.25017 0.0
H1788 H 0.68506 0.29127 0.27392 0.0
H1789 H 0.79965 0.2219 0.2567 0.0
H1790 H 0.8274 0.24683 0.26524 0.0
H1791 H 0.80892 0.25372 0.24323 0.0
C1792 C 0.74195 0.20965 0.784 0.0
C1793 C 0.77106 0.2069 0.79008 0.0
C1794 C 0.73493 0.22625 0.76792 0.0
C1795 C 0.75744 0.24149 0.75821 0.0
C1796 C 0.78684 0.23915 0.76453 0.0
C1797 C 0.79337 0.22134 0.78014 0.0
C1798 C 0.70349 0.22725 0.76122 0.0
C1799 C 0.81133 0.25589 0.75504 0.0
C1800 C 0.7467 0.26644 0.70745 0.0
C1801 C 0.73707 0.29536 0.70994 0.0
C1802 C 0.75271 0.24841 0.72305 0.0
C1803 C 0.75024 0.26006 0.74151 0.0
C1804 C 0.74106 0.28953 0.74401 0.0
C1805 C 0.73392 0.30662 0.72817 0.0
C1806 C 0.76127 0.2168 0.71979 0.0
C1807 C 0.73921 0.30314 0.76338 0.0
H1808 H 0.72472 0.19829 0.79162 0.0
H1809 H 0.81587 0.21939 0.78488 0.0
H1810 H 0.69501 0.25002 0.76204 0.0
H1811 H 0.70227 0.22038 0.74623 0.0
H1812 H 0.68891 0.2128 0.76968 0.0
H1813 H 0.83277 0.25275 0.76223 0.0
H1814 H 0.81356 0.24871 0.74018 0.0
H1815 H 0.8061 0.27968 0.75486 0.0
H1816 H 0.74871 0.25768 0.6933 0.0
H1817 H 0.72654 0.32907 0.73001 0.0
H1818 H 0.74623 0.20207 0.72766 0.0
H1819 H 0.78374 0.2128 0.7252 0.0
H1820 H 0.76064 0.21073 0.70463 0.0
H1821 H 0.72273 0.29135 0.77203 0.0
H1822 H 0.73308 0.32673 0.76282 0.0
H1823 H 0.76066 0.30107 0.77067 0.0
C1824 C 0.74413 0.76578 0.29307 0.0
C1825 C 0.7338 0.79451 0.29092 0.0
C1826 C 0.75005 0.74816 0.27728 0.0
C1827 C 0.74674 0.76008 0.25895 0.0
C1828 C 0.73671 0.78933 0.25677 0.0
C1829 C 0.72971 0.80598 0.27282 0.0
C1830 C 0.75954 0.71674 0.2802 0.0
C1831 C 0.73393 0.80322 0.23753 0.0
C1832 C 0.7904 0.72354 0.21977 0.0
C1833 C 0.7684 0.70859 0.20987 0.0
C1834 C 0.78356 0.74085 0.23554 0.0
C1835 C 0.75421 0.74211 0.24207 0.0
C1836 C 0.73203 0.72634 0.2324 0.0
C1837 C 0.73931 0.71028 0.21614 0.0
C1838 C 0.80767 0.75819 0.245 0.0
C1839 C 0.70069 0.72618 0.23933 0.0
H1840 H 0.74689 0.75685 0.30713 0.0
H1841 H 0.7218 0.8283 0.27124 0.0
H1842 H 0.74487 0.70174 0.27224 0.0
H1843 H 0.78208 0.71353 0.27467 0.0
H1844 H 0.75924 0.7103 0.2953 0.0
H1845 H 0.72689 0.82653 0.23832 0.0
H1846 H 0.75531 0.80213 0.23006 0.0
H1847 H 0.71777 0.79094 0.22891 0.0
H1848 H 0.81289 0.72237 0.21489 0.0
H1849 H 0.72233 0.69851 0.20856 0.0
H1850 H 0.81045 0.75072 0.25977 0.0
H1851 H 0.80164 0.78178 0.24548 0.0
H1852 H 0.82904 0.75596 0.23761 0.0
H1853 H 0.69996 0.71891 0.25425 0.0
H1854 H 0.68643 0.71149 0.23082 0.0
H1855 H 0.69149 0.74869 0.23881 0.0
C1856 C 0.51663 0.49759 0.04249 0.0
C1857 C 0.54486 0.48589 0.04045 0.0
C1858 C 0.4992 0.50373 0.02664 0.0
C1859 C 0.51082 0.49922 0.00834 0.0
C1860 C 0.5396 0.48786 0.00626 0.0
C1861 C 0.55604 0.48071 0.02238 0.0
C1862 C 0.46824 0.51468 0.02948 0.0
C1863 C 0.55321 0.48375 0.98704 0.0
C1864 C 0.45986 0.49177 0.96607 0.0
C1865 C 0.45898 0.52064 0.95933 0.0
C1866 C 0.47613 0.48458 0.98226 0.0
C1867 C 0.49294 0.50658 0.99138 0.0
C1868 C 0.4926 0.53566 0.9843 0.0
C1869 C 0.47508 0.54246 0.96861 0.0
C1870 C 0.47498 0.45359 0.98976 0.0
C1871 C 0.51107 0.5595 0.99314 0.0
H1872 H 0.50791 0.50122 0.05652 0.0
H1873 H 0.57797 0.47177 0.02087 0.0
H1874 H 0.4659 0.53703 0.02349 0.0
H1875 H 0.45256 0.50024 0.02191 0.0
H1876 H 0.46197 0.51543 0.04461 0.0
H1877 H 0.57626 0.47591 0.98788 0.0
H1878 H 0.54029 0.46768 0.97874 0.0
H1879 H 0.55282 0.50482 0.97918 0.0
H1880 H 0.4472 0.47494 0.95894 0.0
H1881 H 0.4746 0.56475 0.9633 0.0
H1882 H 0.46778 0.45378 0.00471 0.0
H1883 H 0.49717 0.44362 0.98938 0.0
H1884 H 0.45977 0.43945 0.98156 0.0
H1885 H 0.50395 0.56333 0.00788 0.0
H1886 H 0.50958 0.58056 0.98531 0.0
H1887 H 0.5344 0.55254 0.99361 0.0
C1888 C 0.01647 0.49802 0.45758 0.0
C1889 C 0.04509 0.48748 0.45996 0.0
C1890 C 0.99868 0.50431 0.47325 0.0
C1891 C 0.0103 0.50116 0.49167 0.0
C1892 C 0.03949 0.49109 0.49406 0.0
C1893 C 0.05632 0.48372 0.47816 0.0
C1894 C 0.96733 0.51386 0.47009 0.0
C1895 C 0.05308 0.48847 0.5134 0.0
C1896 C 0.9729 0.54424 0.53084 0.0
C1897 C 0.95796 0.52202 0.54055 0.0
C1898 C 0.99043 0.53769 0.5151 0.0
C1899 C 0.99196 0.50842 0.50844 0.0
C1900 C 0.97619 0.48604 0.51792 0.0
C1901 C 0.95989 0.49303 0.53412 0.0
C1902 C 0.00775 0.562 0.50585 0.0
C1903 C 0.97633 0.45477 0.51086 0.0
H1904 H 0.00774 0.50055 0.44346 0.0
H1905 H 0.07855 0.47568 0.47992 0.0
H1906 H 0.95217 0.499 0.47777 0.0
H1907 H 0.96395 0.53627 0.47578 0.0
H1908 H 0.96125 0.51386 0.45493 0.0
H1909 H 0.07651 0.48176 0.51277 0.0
H1910 H 0.05155 0.5098 0.5209 0.0
H1911 H 0.04089 0.47209 0.52191 0.0
H1912 H 0.97158 0.56664 0.53587 0.0
H1913 H 0.94813 0.47589 0.54156 0.0
H1914 H 1.00066 0.56474 0.491 0.0
H1915 H 0.03141 0.55621 0.50563 0.0
H1916 H 0.00511 0.58333 0.51324 0.0
H1917 H 0.96943 0.45415 0.49586 0.0
H1918 H 0.9615 0.44036 0.51915 0.0
H1919 H 0.99887 0.44567 0.51157 0.0
C1920 C 0.01357 0.51485 0.04376 0.0
C1921 C 0.04363 0.51998 0.04146 0.0
C1922 C 0.99558 0.50891 0.02814 0.0
C1923 C 0.0083 0.50682 0.00996 0.0
C1924 C 0.03884 0.51159 0.00768 0.0
C1925 C 0.05605 0.51878 0.02345 0.0
C1926 C 0.96298 0.50514 0.03107 0.0
C1927 C 0.05342 0.50856 0.98867 0.0
C1928 C 0.96638 0.46285 0.97318 0.0
C1929 C 0.95522 0.48507 0.96157 0.0
C1930 C 0.98401 0.4696 0.98883 0.0
C1931 C 0.98973 0.49935 0.99335 0.0
C1932 C 0.97787 0.5219 0.98191 0.0
C1933 C 0.96117 0.51446 0.96596 0.0
C1934 C 0.99696 0.4449 1.00033 0.0
C1935 C 0.98266 0.55388 0.98658 0.0
H1936 H 0.00405 0.51616 0.05775 0.0
H1937 H 0.07939 0.52267 0.0218 0.0
H1938 H 0.95074 0.52052 0.02183 0.0
H1939 H 0.95627 0.48258 0.02709 0.0
H1940 H 0.95636 0.50914 0.04592 0.0
H1941 H 0.07754 0.51194 0.98942 0.0
H1942 H 0.04909 0.48638 0.98282 0.0
H1943 H 0.04408 0.52472 0.97865 0.0
H1944 H 0.96198 0.4401 0.96978 0.0
H1945 H 0.95237 0.53169 0.95706 0.0
H1946 H 0.989 0.44617 0.01507 0.0
H1947 H 0.02123 0.44698 0.00074 0.0
H1948 H 0.99125 0.42296 0.99455 0.0
H1949 H 0.97525 0.55842 0.0012 0.0
H1950 H 0.97072 0.56872 0.97681 0.0
H1951 H 0.00639 0.55919 0.9859 0.0
C1952 C 0.54397 0.49048 0.46707 0.0
C1953 C 0.54518 0.51949 0.4606 0.0
C1954 C 0.52795 0.48318 0.48334 0.0
C1955 C 0.5117 0.50522 0.49281 0.0
C1956 C 0.51243 0.53447 0.48606 0.0
C1957 C 0.52973 0.54137 0.47028 0.0
C1958 C 0.52869 0.45198 0.4905 0.0
C1959 C 0.49456 0.55839 0.49529 0.0
C1960 C 0.44833 0.47969 0.52367 0.0
C1961 C 0.45968 0.48422 0.54177 0.0
C1962 C 0.46482 0.48694 0.5076 0.0
C1963 C 0.49382 0.4977 0.50974 0.0
C1964 C 0.50562 0.50152 0.52806 0.0
C1965 C 0.48813 0.49533 0.54388 0.0
C1966 C 0.45103 0.48359 0.48837 0.0
C1967 C 0.5368 0.5118 0.53095 0.0
H1968 H 0.55613 0.47361 0.45964 0.0
H1969 H 0.5305 0.56378 0.46522 0.0
H1970 H 0.53592 0.45167 0.50544 0.0
H1971 H 0.50636 0.44233 0.49002 0.0
H1972 H 0.54368 0.43786 0.48213 0.0
H1973 H 0.49639 0.57967 0.48773 0.0
H1974 H 0.47109 0.55189 0.49577 0.0
H1975 H 0.50189 0.56162 0.51005 0.0
H1976 H 0.42622 0.4712 0.52211 0.0
H1977 H 0.49697 0.49844 0.55793 0.0
H1978 H 0.4636 0.4675 0.47987 0.0
H1979 H 0.45178 0.50485 0.48074 0.0
H1980 H 0.42784 0.47617 0.48918 0.0
H1981 H 0.55215 0.4973 0.52316 0.0
H1982 H 0.54317 0.51198 0.54607 0.0
H1983 H 0.53953 0.53428 0.52522 0.0
C1984 C 0.26779 0.08993 0.34525 0.0
C1985 C 0.2599 0.11454 0.35604 0.0
C1986 C 0.28799 0.06918 0.35202 0.0
C1987 C 0.30086 0.07314 0.37 0.0
C1988 C 0.29285 0.09782 0.38104 0.0
C1989 C 0.27238 0.11817 0.37396 0.0
C1990 C 0.29563 0.04303 0.33989 0.0
C1991 C 0.30622 0.10295 0.40023 0.0
C1992 C 0.33435 0.00783 0.39566 0.0
C1993 C 0.3642 0.01088 0.39133 0.0
C1994 C 0.31343 0.0275 0.38844 0.0
C1995 C 0.32274 0.05147 0.37721 0.0
C1996 C 0.35295 0.05468 0.37286 0.0
C1997 C 0.37327 0.03401 0.37971 0.0
C1998 C 0.28138 0.02269 0.39288 0.0
C1999 C 0.36388 0.08032 0.36136 0.0
H2000 H 0.25824 0.0869 0.3314 0.0
H2001 H 0.26648 0.13714 0.38236 0.0
H2002 H 0.3194 0.04328 0.3365 0.0
H2003 H 0.29115 0.0224 0.34769 0.0
H2004 H 0.28306 0.04269 0.32648 0.0
H2005 H 0.29782 0.12326 0.407 0.0
H2006 H 0.30147 0.08406 0.40961 0.0
H2007 H 0.33044 0.10462 0.39896 0.0
H2008 H 0.32734 0.98987 0.40463 0.0
H2009 H 0.39642 0.0366 0.37658 0.0
H2010 H 0.26849 0.02146 0.37963 0.0
H2011 H 0.27275 0.04152 0.40109 0.0
H2012 H 0.27763 0.00225 0.40108 0.0
H2013 H 0.35333 0.08029 0.34728 0.0
H2014 H 0.38808 0.07989 0.35945 0.0
H2015 H 0.35776 0.10121 0.36838 0.0
C2016 C 0.13445 0.02702 0.62393 0.0
C2017 C 0.14141 0.00943 0.60835 0.0
C2018 C 0.15461 0.04768 0.63096 0.0
C2019 C 0.18267 0.05031 0.6225 0.0
C2020 C 0.19005 0.03205 0.60706 0.0
C2021 C 0.16921 0.0121 0.60003 0.0
C2022 C 0.14567 0.06709 0.64723 0.0
C2023 C 0.21995 0.03361 0.59793 0.0
C2024 C 0.22589 0.12121 0.62935 0.0
C2025 C 0.244 0.11398 0.64463 0.0
C2026 C 0.20578 0.10073 0.62202 0.0
C2027 C 0.2043 0.07213 0.62984 0.0
C2028 C 0.22322 0.0645 0.6449 0.0
C2029 C 0.24254 0.08562 0.65226 0.0
C2030 C 0.18561 0.10992 0.6062 0.0
C2031 C 0.22291 0.03407 0.65333 0.0
H2032 H 0.1129 0.02524 0.6303 0.0
H2033 H 0.17475 0.99846 0.58802 0.0
H2034 H 0.16079 0.06379 0.65929 0.0
H2035 H 0.1473 0.0905 0.64302 0.0
H2036 H 0.12289 0.06266 0.65203 0.0
H2037 H 0.22263 0.01713 0.58652 0.0
H2038 H 0.22354 0.05578 0.59191 0.0
H2039 H 0.2373 0.02995 0.60866 0.0
H2040 H 0.22679 0.14317 0.62351 0.0
H2041 H 0.25664 0.07986 0.664 0.0
H2042 H 0.16242 0.10775 0.61077 0.0
H2043 H 0.18865 0.09529 0.59386 0.0
H2044 H 0.18949 0.13295 0.60168 0.0
H2045 H 0.20118 0.02959 0.65977 0.0
H2046 H 0.24007 0.03119 0.6643 0.0
H2047 H 0.2264 0.01742 0.64214 0.0
C2048 C 0.24478 0.92095 0.8487 0.0
C2049 C 0.24675 0.89263 0.85636 0.0
C2050 C 0.22512 0.94177 0.85608 0.0
C2051 C 0.20647 0.93392 0.87124 0.0
C2052 C 0.20844 0.90535 0.87907 0.0
C2053 C 0.22878 0.88517 0.87167 0.0
C2054 C 0.22422 0.97215 0.8476 0.0
C2055 C 0.18864 0.89592 0.89502 0.0
C2056 C 0.17128 0.9932 0.90165 0.0
C2057 C 0.14312 0.99536 0.89377 0.0
C2058 C 0.19227 0.97374 0.89424 0.0
C2059 C 0.18475 0.95549 0.87882 0.0
C2060 C 0.15636 0.95766 0.87076 0.0
C2061 C 0.136 0.9778 0.8782 0.0
C2062 C 0.22246 0.97261 0.90299 0.0
C2063 C 0.14727 0.93828 0.85451 0.0
H2064 H 0.25871 0.92689 0.83691 0.0
H2065 H 0.23003 0.86325 0.87756 0.0
H2066 H 0.20224 0.97636 0.84145 0.0
H2067 H 0.22787 0.98888 0.85872 0.0
H2068 H 0.24099 0.97517 0.8364 0.0
H2069 H 0.19277 0.8729 0.89946 0.0
H2070 H 0.19183 0.9105 0.90737 0.0
H2071 H 0.16534 0.89794 0.89065 0.0
H2072 H 0.17697 0.00681 0.91364 0.0
H2073 H 0.11421 0.97921 0.87213 0.0
H2074 H 0.23943 0.97649 0.89206 0.0
H2075 H 0.22651 0.95049 0.90898 0.0
H2076 H 0.22525 0.98912 0.91437 0.0
H2077 H 0.16217 0.94174 0.84235 0.0
H2078 H 0.12438 0.94257 0.84988 0.0
H2079 H 0.14914 0.91487 0.85867 0.0
C2080 C 0.2771 0.88492 0.1291 0.0
C2081 C 0.25779 0.89249 0.1437 0.0
C2082 C 0.29757 0.90528 0.12208 0.0
C2083 C 0.29824 0.93417 0.12948 0.0
C2084 C 0.27821 0.94215 0.14387 0.0
C2085 C 0.25851 0.92111 0.15098 0.0
C2086 C 0.31891 0.89568 0.10701 0.0
C2087 C 0.27766 0.97288 0.15182 0.0
C2088 C 0.36838 0.97908 0.12407 0.0
C2089 C 0.36232 0.99565 0.10788 0.0
C2090 C 0.34774 0.95902 0.13126 0.0
C2091 C 0.32011 0.95591 0.12229 0.0
C2092 C 0.3136 0.97321 0.10624 0.0
C2093 C 0.33489 0.9926 0.09911 0.0
C2094 C 0.35577 0.94065 0.14821 0.0
C2095 C 0.28421 0.97109 0.0965 0.0
H2096 H 0.27681 0.86275 0.12355 0.0
H2097 H 0.24353 0.92712 0.16221 0.0
H2098 H 0.31641 0.90963 0.0943 0.0
H2099 H 0.34175 0.89849 0.11213 0.0
H2100 H 0.31572 0.87238 0.10286 0.0
H2101 H 0.25984 0.97596 0.16232 0.0
H2102 H 0.29895 0.97789 0.15869 0.0
H2103 H 0.27463 0.98904 0.14028 0.0
H2104 H 0.38961 0.98119 0.13084 0.0
H2105 H 0.33 0.00547 0.08665 0.0
H2106 H 0.35476 0.91701 0.14447 0.0
H2107 H 0.33975 0.94435 0.15973 0.0
H2108 H 0.37812 0.94568 0.15357 0.0
H2109 H 0.28112 0.94867 0.09074 0.0
H2110 H 0.28203 0.98712 0.08479 0.0
H2111 H 0.26627 0.97499 0.10678 0.0
C2112 C 0.72161 0.88319 0.62686 0.0
C2113 C 0.73969 0.89055 0.64213 0.0
C2114 C 0.70167 0.90368 0.61933 0.0
C2115 C 0.70021 0.93236 0.62703 0.0
C2116 C 0.71899 0.94008 0.64214 0.0
C2117 C 0.73827 0.91902 0.64961 0.0
C2118 C 0.68172 0.89444 0.60341 0.0
C2119 C 0.71858 0.97055 0.65052 0.0
C2120 C 0.66589 0.99288 0.59723 0.0
C2121 C 0.63799 0.99565 0.60541 0.0
C2122 C 0.68644 0.9726 0.60422 0.0
C2123 C 0.67872 0.9542 0.61953 0.0
C2124 C 0.65055 0.95688 0.62782 0.0
C2125 C 0.63064 0.97777 0.62079 0.0
C2126 C 0.71643 0.97089 0.59523 0.0
C2127 C 0.64129 0.93741 0.64398 0.0
H2128 H 0.72249 0.86117 0.6211 0.0
H2129 H 0.75231 0.92492 0.66135 0.0
H2130 H 0.65846 0.89661 0.60785 0.0
H2131 H 0.68493 0.90906 0.59108 0.0
H2132 H 0.68567 0.87142 0.59893 0.0
H2133 H 0.73549 0.97344 0.66165 0.0
H2134 H 0.72237 0.98714 0.63933 0.0
H2135 H 0.69671 0.9751 0.65674 0.0
H2136 H 0.67174 0.0067 0.58537 0.0
H2137 H 0.60903 0.97962 0.62707 0.0
H2138 H 0.72008 0.94861 0.58938 0.0
H2139 H 0.73365 0.97473 0.60601 0.0
H2140 H 0.71924 0.98718 0.58372 0.0
H2141 H 0.64299 0.91402 0.63976 0.0
H2142 H 0.61842 0.94183 0.64862 0.0
H2143 H 0.65619 0.94068 0.65617 0.0
C2144 C 0.8734 0.97084 0.37997 0.0
C2145 C 0.86592 0.98957 0.39489 0.0
C2146 C 0.85295 0.95066 0.37268 0.0
C2147 C 0.82415 0.94964 0.38022 0.0
C2148 C 0.81635 0.96893 0.39504 0.0
C2149 C 0.8374 0.98841 0.40233 0.0
C2150 C 0.86229 0.93014 0.35708 0.0
C2151 C 0.78574 0.96904 0.4032 0.0
C2152 C 0.76429 0.91633 0.34949 0.0
C2153 C 0.76073 0.88844 0.35756 0.0
C2154 C 0.78451 0.93657 0.35688 0.0
C2155 C 0.80209 0.92856 0.37251 0.0
C2156 C 0.79854 0.90044 0.38077 0.0
C2157 C 0.77768 0.88083 0.37331 0.0
C2158 C 0.78711 0.96652 0.34791 0.0
C2159 C 0.81716 0.89087 0.39726 0.0
H2160 H 0.89546 0.97148 0.37427 0.0
H2161 H 0.83144 0.00293 0.41381 0.0
H2162 H 0.85921 0.90703 0.36161 0.0
H2163 H 0.84834 0.93361 0.34447 0.0
H2164 H 0.88562 0.93332 0.353 0.0
H2165 H 0.78297 0.98595 0.41434 0.0
H2166 H 0.76945 0.97322 0.39188 0.0
H2167 H 0.78062 0.94723 0.40932 0.0
H2168 H 0.75116 0.9224 0.33735 0.0
H2169 H 0.77519 0.85923 0.37952 0.0
H2170 H 0.80958 0.96964 0.34225 0.0
H2171 H 0.78344 0.98384 0.35865 0.0
H2172 H 0.77114 0.9697 0.33626 0.0
H2173 H 0.84073 0.89185 0.39335 0.0
H2174 H 0.81192 0.86821 0.40196 0.0
H2175 H 0.81392 0.90604 0.40931 0.0
C2176 C 0.78241 0.12589 0.129 0.0
C2177 C 0.76415 0.11844 0.14416 0.0
C2178 C 0.80246 0.10544 0.12153 0.0
C2179 C 0.80376 0.07667 0.12912 0.0
C2180 C 0.78491 0.06892 0.14418 0.0
C2181 C 0.76561 0.08997 0.15165 0.0
C2182 C 0.82254 0.11474 0.10569 0.0
C2183 C 0.78506 0.03834 0.1524 0.0
C2184 C 0.83625 0.0163 0.09841 0.0
C2185 C 0.86422 0.01264 0.10635 0.0
C2186 C 0.81628 0.03679 0.10581 0.0
C2187 C 0.82468 0.05458 0.12127 0.0
C2188 C 0.85292 0.05098 0.12933 0.0
C2189 C 0.87223 0.02982 0.12191 0.0
C2190 C 0.78617 0.03938 0.09707 0.0
C2191 C 0.86291 0.06982 0.14562 0.0
H2192 H 0.78151 0.14791 0.12325 0.0
H2193 H 0.75142 0.08401 0.1633 0.0
H2194 H 0.84577 0.11172 0.10998 0.0
H2195 H 0.81877 0.10072 0.09314 0.0
H2196 H 0.8192 0.13804 0.1016 0.0
H2197 H 0.76843 0.03559 0.16372 0.0
H2198 H 0.78063 0.02199 0.14116 0.0
H2199 H 0.80702 0.0333 0.15832 0.0
H2200 H 0.82989 0.00301 0.08642 0.0
H2201 H 0.89391 0.02726 0.12799 0.0
H2202 H 0.78294 0.06184 0.09141 0.0
H2203 H 0.76906 0.03576 0.10796 0.0
H2204 H 0.78275 0.02338 0.08547 0.0
H2205 H 0.86172 0.09334 0.14164 0.0
H2206 H 0.88574 0.06472 0.15006 0.0
H2207 H 0.84813 0.06663 0.15787 0.0
C2208 C 0.63437 0.02791 0.87978 0.0
C2209 C 0.64182 0.00993 0.89509 0.0
C2210 C 0.65469 0.04799 0.87221 0.0
C2211 C 0.6834 0.04969 0.87986 0.0
C2212 C 0.69122 0.03104 0.89502 0.0
C2213 C 0.67027 0.01166 0.90258 0.0
C2214 C 0.64526 0.06782 0.85627 0.0
C2215 C 0.72173 0.03164 0.90333 0.0
C2216 C 0.74286 0.08415 0.84914 0.0
C2217 C 0.74551 0.11227 0.85702 0.0
C2218 C 0.72315 0.06342 0.85662 0.0
C2219 C 0.70513 0.07117 0.87212 0.0
C2220 C 0.70776 0.09955 0.88015 0.0
C2221 C 0.72813 0.11963 0.87264 0.0
C2222 C 0.72154 0.03325 0.84789 0.0
C2223 C 0.68865 0.10891 0.89646 0.0
H2224 H 0.61237 0.02686 0.87401 0.0
H2225 H 0.67622 0.99773 0.91436 0.0
H2226 H 0.64759 0.09111 0.86059 0.0
H2227 H 0.65964 0.06441 0.84385 0.0
H2228 H 0.62214 0.06391 0.85197 0.0
H2229 H 0.72471 0.01488 0.91454 0.0
H2230 H 0.73825 0.02774 0.89212 0.0
H2231 H 0.72628 0.0536 0.90941 0.0
H2232 H 0.75631 0.07826 0.83712 0.0
H2233 H 0.72989 0.14139 0.87871 0.0
H2234 H 0.69927 0.02942 0.84206 0.0
H2235 H 0.72542 0.01624 0.85881 0.0
H2236 H 0.73783 0.03027 0.8364 0.0
H2237 H 0.66517 0.10722 0.89243 0.0
H2238 H 0.69319 0.1318 0.90101 0.0
H2239 H 0.69213 0.09407 0.90865 0.0
C2240 C 0.77648 0.62108 0.87357 0.0
C2241 C 0.76075 0.61489 0.85706 0.0
C2242 C 0.79644 0.60061 0.8811 0.0
C2243 C 0.8003 0.57308 0.87212 0.0
C2244 C 0.78394 0.56651 0.85568 0.0
C2245 C 0.76461 0.58757 0.84827 0.0
C2246 C 0.81381 0.60866 0.89847 0.0
C2247 C 0.78691 0.53724 0.84588 0.0
C2248 C 0.87061 0.5295 0.88021 0.0
C2249 C 0.86203 0.50986 0.89438 0.0
C2250 C 0.85087 0.55043 0.87301 0.0
C2251 C 0.8216 0.55119 0.87978 0.0
C2252 C 0.81266 0.53087 0.89376 0.0
C2253 C 0.83308 0.51074 0.90108 0.0
C2254 C 0.86147 0.57207 0.8584 0.0
C2255 C 0.7815 0.5304 0.901 0.0
H2256 H 0.77372 0.64222 0.88036 0.0
H2257 H 0.75241 0.58256 0.83555 0.0
H2258 H 0.80948 0.59261 0.90989 0.0
H2259 H 0.83764 0.60772 0.8953 0.0
H2260 H 0.8084 0.63099 0.90372 0.0
H2261 H 0.77176 0.5351 0.83369 0.0
H2262 H 0.80973 0.53431 0.84078 0.0
H2263 H 0.78234 0.51917 0.85595 0.0
H2264 H 0.89305 0.52911 0.87514 0.0
H2265 H 0.82633 0.49553 0.912 0.0
H2266 H 0.85828 0.59481 0.86361 0.0
H2267 H 0.8484 0.56978 0.8453 0.0
H2268 H 0.88503 0.56897 0.85489 0.0
H2269 H 0.77614 0.5517 0.90775 0.0
H2270 H 0.77779 0.51258 0.91142 0.0
H2271 H 0.766 0.52739 0.88909 0.0
C2272 C 0.72571 0.62122 0.12798 0.0
C2273 C 0.74374 0.61423 0.14335 0.0
C2274 C 0.70515 0.60091 0.12097 0.0
C2275 C 0.70296 0.5727 0.12929 0.0
C2276 C 0.7216 0.56532 0.14454 0.0
C2277 C 0.74153 0.58626 0.15151 0.0
C2278 C 0.68541 0.60983 0.10487 0.0
C2279 C 0.72046 0.53532 0.15355 0.0
C2280 C 0.63239 0.52879 0.12257 0.0
C2281 C 0.63965 0.51083 0.10722 0.0
C2282 C 0.65275 0.54905 0.12989 0.0
C2283 C 0.68126 0.5509 0.12196 0.0
C2284 C 0.68892 0.53216 0.10681 0.0
C2285 C 0.66794 0.51263 0.0995 0.0
C2286 C 0.64353 0.56896 0.14584 0.0
C2287 C 0.71924 0.5329 0.09822 0.0
H2288 H 0.72713 0.64287 0.12171 0.0
H2289 H 0.75546 0.58067 0.16336 0.0
H2290 H 0.68868 0.59486 0.09272 0.0
H2291 H 0.66209 0.60792 0.10921 0.0
H2292 H 0.68955 0.6327 0.10013 0.0
H2293 H 0.73707 0.53271 0.16489 0.0
H2294 H 0.69838 0.53142 0.15963 0.0
H2295 H 0.72422 0.51813 0.14274 0.0
H2296 H 0.61049 0.52764 0.1285 0.0
H2297 H 0.67375 0.49867 0.0877 0.0
H2298 H 0.64535 0.59222 0.14134 0.0
H2299 H 0.65838 0.56599 0.15808 0.0
H2300 H 0.62063 0.56476 0.15048 0.0
H2301 H 0.7234 0.55476 0.09189 0.0
H2302 H 0.72216 0.51593 0.08713 0.0
H2303 H 0.73607 0.52944 0.10931 0.0
C2304 C 0.72705 0.38605 0.37372 0.0
C2305 C 0.74488 0.39254 0.35816 0.0
C2306 C 0.70665 0.40657 0.38061 0.0
C2307 C 0.70447 0.43457 0.37201 0.0
C2308 C 0.72296 0.4415 0.35658 0.0
C2309 C 0.74269 0.42029 0.3497 0.0
C2310 C 0.68702 0.39807 0.39686 0.0
C2311 C 0.72182 0.47129 0.34729 0.0
C2312 C 0.63343 0.47767 0.3785 0.0
C2313 C 0.6404 0.49587 0.39379 0.0
C2314 C 0.6541 0.45773 0.3712 0.0
C2315 C 0.68265 0.45643 0.37911 0.0
C2316 C 0.69005 0.47545 0.39417 0.0
C2317 C 0.66875 0.49467 0.40146 0.0
C2318 C 0.64511 0.43747 0.35538 0.0
C2319 C 0.7204 0.47528 0.40272 0.0
H2320 H 0.72846 0.36457 0.38022 0.0
H2321 H 0.75649 0.42548 0.33771 0.0
H2322 H 0.69031 0.41339 0.40883 0.0
H2323 H 0.66367 0.39979 0.39254 0.0
H2324 H 0.69123 0.37535 0.40186 0.0
H2325 H 0.73851 0.47366 0.33597 0.0
H2326 H 0.69978 0.47498 0.3411 0.0
H2327 H 0.72546 0.48874 0.35795 0.0
H2328 H 0.6115 0.47837 0.37259 0.0
H2329 H 0.67433 0.50882 0.41322 0.0
H2330 H 0.64705 0.41431 0.36006 0.0
H2331 H 0.66001 0.44032 0.34315 0.0
H2332 H 0.62221 0.44143 0.35065 0.0
H2333 H 0.72475 0.45367 0.40936 0.0
H2334 H 0.72319 0.49265 0.41356 0.0
H2335 H 0.73717 0.47849 0.39157 0.0
C2336 C 0.83482 0.49355 0.59889 0.0
C2337 C 0.86304 0.4954 0.6067 0.0
C2338 C 0.81393 0.47369 0.60599 0.0
C2339 C 0.82165 0.45469 0.621 0.0
C2340 C 0.85015 0.45646 0.62894 0.0
C2341 C 0.87038 0.47702 0.62184 0.0
C2342 C 0.7836 0.47303 0.59743 0.0
C2343 C 0.85946 0.4363 0.64473 0.0
C2344 C 0.76244 0.41946 0.65142 0.0
C2345 C 0.76016 0.39134 0.64349 0.0
C2346 C 0.78183 0.44048 0.64397 0.0
C2347 C 0.79992 0.43302 0.62846 0.0
C2348 C 0.79756 0.4047 0.62031 0.0
C2349 C 0.77746 0.38431 0.62779 0.0
C2350 C 0.78312 0.4706 0.65281 0.0
C2351 C 0.81678 0.39568 0.60397 0.0
H2352 H 0.82897 0.50778 0.58723 0.0
H2353 H 0.89223 0.47817 0.62784 0.0
H2354 H 0.77926 0.45112 0.59122 0.0
H2355 H 0.76685 0.47673 0.60853 0.0
H2356 H 0.78076 0.4899 0.58627 0.0
H2357 H 0.88255 0.44009 0.64914 0.0
H2358 H 0.84499 0.43948 0.65713 0.0
H2359 H 0.85713 0.41309 0.64022 0.0
H2360 H 0.749 0.4251 0.6635 0.0
H2361 H 0.77594 0.36255 0.62169 0.0
H2362 H 0.77944 0.48769 0.64192 0.0
H2363 H 0.80522 0.47443 0.65888 0.0
H2364 H 0.76654 0.47342 0.66415 0.0
H2365 H 0.81347 0.41083 0.59192 0.0
H2366 H 0.81221 0.37292 0.59919 0.0
H2367 H 0.84022 0.39721 0.60812 0.0
C2368 C 0.13177 0.47602 0.12318 0.0
C2369 C 0.13912 0.49366 0.1077 0.0
C2370 C 0.15202 0.45575 0.13061 0.0
C2371 C 0.1805 0.45362 0.12266 0.0
C2372 C 0.18822 0.47199 0.10735 0.0
C2373 C 0.16735 0.49151 0.09993 0.0
C2374 C 0.14275 0.43618 0.14672 0.0
C2375 C 0.21852 0.47096 0.09874 0.0
C2376 C 0.24109 0.4194 0.15241 0.0
C2377 C 0.24356 0.39132 0.14445 0.0
C2378 C 0.22089 0.43996 0.14535 0.0
C2379 C 0.20222 0.43206 0.13022 0.0
C2380 C 0.2046 0.4037 0.12214 0.0
C2381 C 0.22547 0.38379 0.12921 0.0
C2382 C 0.21957 0.47016 0.15408 0.0
C2383 C 0.18479 0.39425 0.1062 0.0
H2384 H 0.10991 0.47745 0.12913 0.0
H2385 H 0.17322 0.50523 0.08803 0.0
H2386 H 0.14466 0.41282 0.14245 0.0
H2387 H 0.15752 0.43948 0.15896 0.0
H2388 H 0.11981 0.44044 0.15126 0.0
H2389 H 0.22143 0.48757 0.08743 0.0
H2390 H 0.23537 0.47479 0.10976 0.0
H2391 H 0.22267 0.4489 0.0927 0.0
H2392 H 0.25508 0.42537 0.16416 0.0
H2393 H 0.22708 0.36203 0.12312 0.0
H2394 H 0.19744 0.4741 0.16008 0.0
H2395 H 0.22333 0.48711 0.14311 0.0
H2396 H 0.2361 0.4731 0.16543 0.0
H2397 H 0.16148 0.39626 0.11056 0.0
H2398 H 0.18894 0.37124 0.10175 0.0
H2399 H 0.18799 0.40883 0.09385 0.0
C2400 C 0.33434 0.49355 0.90211 0.0
C2401 C 0.36224 0.49566 0.89385 0.0
C2402 C 0.31311 0.47404 0.89504 0.0
C2403 C 0.32013 0.45568 0.87957 0.0
C2404 C 0.34827 0.45776 0.87115 0.0
C2405 C 0.36886 0.47794 0.87826 0.0
C2406 C 0.28319 0.473 0.90417 0.0
C2407 C 0.35684 0.43825 0.85485 0.0
C2408 C 0.27599 0.38532 0.8728 0.0
C2409 C 0.25777 0.39274 0.85761 0.0
C2410 C 0.29638 0.40557 0.88009 0.0
C2411 C 0.29814 0.43414 0.87226 0.0
C2412 C 0.27919 0.44198 0.85726 0.0
C2413 C 0.25949 0.4211 0.84998 0.0
C2414 C 0.31651 0.39615 0.89587 0.0
C2415 C 0.27987 0.47237 0.84878 0.0
H2416 H 0.32903 0.50728 0.91412 0.0
H2417 H 0.39045 0.4793 0.8719 0.0
H2418 H 0.26591 0.47694 0.89344 0.0
H2419 H 0.27924 0.45088 0.91019 0.0
H2420 H 0.2808 0.48952 0.91558 0.0
H2421 H 0.37964 0.44239 0.84998 0.0
H2422 H 0.35493 0.41487 0.85905 0.0
H2423 H 0.34167 0.44177 0.84283 0.0
H2424 H 0.27492 0.36338 0.87867 0.0
H2425 H 0.24536 0.42701 0.83829 0.0
H2426 H 0.31371 0.41085 0.9082 0.0
H2427 H 0.3397 0.39799 0.89125 0.0
H2428 H 0.31235 0.37319 0.90043 0.0
H2429 H 0.27663 0.48909 0.85996 0.0
H2430 H 0.26273 0.47543 0.83782 0.0
H2431 H 0.30165 0.47654 0.84233 0.0
C2432 C 0.33624 0.51144 0.60009 0.0
C2433 C 0.36446 0.50945 0.6079 0.0
C2434 C 0.31539 0.53123 0.60727 0.0
C2435 C 0.32312 0.55005 0.62236 0.0
C2436 C 0.3516 0.54811 0.63033 0.0
C2437 C 0.37181 0.52758 0.62315 0.0
C2438 C 0.28509 0.53203 0.59866 0.0
C2439 C 0.36091 0.56811 0.6462 0.0
C2440 C 0.2784 0.62017 0.62875 0.0
C2441 C 0.26075 0.613 0.64426 0.0
C2442 C 0.29896 0.59999 0.62156 0.0
C2443 C 0.3014 0.57173 0.62979 0.0
C2444 C 0.28304 0.56418 0.64515 0.0
C2445 C 0.26323 0.585 0.65233 0.0
C2446 C 0.31848 0.60912 0.6054 0.0
C2447 C 0.28436 0.53409 0.65404 0.0
H2448 H 0.33038 0.49738 0.58835 0.0
H2449 H 0.39366 0.52631 0.62914 0.0
H2450 H 0.26827 0.52841 0.60973 0.0
H2451 H 0.28088 0.55396 0.59244 0.0
H2452 H 0.28219 0.51518 0.5875 0.0
H2453 H 0.38392 0.56412 0.65069 0.0
H2454 H 0.35879 0.59136 0.64173 0.0
H2455 H 0.3463 0.56498 0.65854 0.0
H2456 H 0.27675 0.64186 0.62256 0.0
H2457 H 0.24952 0.57929 0.66428 0.0
H2458 H 0.3152 0.59418 0.59324 0.0
H2459 H 0.34185 0.60736 0.60965 0.0
H2460 H 0.31413 0.63198 0.60072 0.0
H2461 H 0.28064 0.51697 0.64317 0.0
H2462 H 0.26781 0.53129 0.6654 0.0
H2463 H 0.30648 0.53025 0.66008 0.0
C2464 C 0.13296 0.52929 0.3782 0.0
C2465 C 0.14046 0.51171 0.39368 0.0
C2466 C 0.15297 0.54984 0.3708 0.0
C2467 C 0.1814 0.55234 0.37879 0.0
C2468 C 0.18929 0.53406 0.39412 0.0
C2469 C 0.16863 0.51425 0.40151 0.0
C2470 C 0.14351 0.56928 0.35469 0.0
C2471 C 0.21955 0.53545 0.40275 0.0
C2472 C 0.24126 0.58702 0.34864 0.0
C2473 C 0.24351 0.61522 0.35646 0.0
C2474 C 0.22149 0.56625 0.35594 0.0
C2475 C 0.20293 0.57405 0.37114 0.0
C2476 C 0.20509 0.60254 0.37909 0.0
C2477 C 0.22562 0.62266 0.3718 0.0
C2478 C 0.22048 0.53593 0.34736 0.0
C2479 C 0.18535 0.61192 0.39508 0.0
H2480 H 0.11114 0.52759 0.37221 0.0
H2481 H 0.1746 0.50061 0.41343 0.0
H2482 H 0.14531 0.59267 0.3589 0.0
H2483 H 0.15822 0.566 0.34241 0.0
H2484 H 0.12056 0.56487 0.3502 0.0
H2485 H 0.2226 0.51894 0.41411 0.0
H2486 H 0.23645 0.53173 0.39175 0.0
H2487 H 0.22348 0.55759 0.40874 0.0
H2488 H 0.25515 0.5811 0.33683 0.0
H2489 H 0.22709 0.6445 0.37779 0.0
H2490 H 0.1984 0.5317 0.34136 0.0
H2491 H 0.22437 0.51914 0.35841 0.0
H2492 H 0.23706 0.53301 0.33604 0.0
H2493 H 0.16203 0.60972 0.39079 0.0
H2494 H 0.18938 0.63498 0.39946 0.0
H2495 H 0.18874 0.59742 0.40744 0.0
loop_
_geom_bond_atom_site_label_1
_geom_bond_atom_site_label_2
_geom_bond_distance
_geom_bond_site_symmetry_2
_ccdc_geom_bond_type
Co0 O1 2.216 . S
Co0 O2 2.091 . S
Co0 O4 2.004 . S
Co0 O10 2.021 . S
Co0 O12 2.137 . S
Co0 O13 2.244 . S
O1 Co0 2.216 . S
O1 C8 1.247 . S
O2 Co0 2.091 . S
O2 C8 1.261 . S
C3 O12 1.247 . S
C3 O13 1.272 . S
O4 Co0 2.004 . S
O4 C9 1.259 . S
Co5 O6 2.061 . S
Co5 O11 2.052 . S
Co5 O13 2.135 . S
O6 Co5 2.061 . S
O6 C9 1.235 . S
C7 O10 1.238 . S
C7 O11 1.241 . S
C8 O1 1.247 . S
C8 O2 1.261 . S
C9 O4 1.259 . S
C9 O6 1.235 . S
O10 Co0 2.021 . S
O10 C7 1.238 . S
O11 Co5 2.052 . S
O11 C7 1.241 . S
O12 Co0 2.137 . S
O12 C3 1.247 . S
O13 Co0 2.244 . S
O13 C3 1.272 . S
O13 Co5 2.135 . S
Co14 O15 2.216 . S
Co14 O16 2.091 1_565 S
Co14 O18 2.004 . S
Co14 O24 2.021 . S
Co14 O26 2.137 1_565 S
Co14 O27 2.244 . S
O15 Co14 2.216 . S
O15 C22 1.247 1_565 S
O16 Co14 2.091 1_545 S
O16 C22 1.261 . S
C17 O26 1.247 1_565 S
C17 O27 1.272 . S
O18 Co14 2.004 . S
O18 C23 1.272 . S
Co19 O20 2.061 . S
Co19 O25 2.052 . S
Co19 O27 2.135 . S
O20 Co19 2.061 . S
O20 C23 1.241 . S
C21 O24 1.238 . S
C21 O25 1.241 . S
C22 O15 1.247 1_545 S
C22 O16 1.261 . S
C23 O18 1.272 . S
C23 O20 1.241 . S
O24 Co14 2.021 . S
O24 C21 1.238 . S
O25 Co19 2.052 . S
O25 C21 1.241 . S
O26 Co14 2.137 1_545 S
O26 C17 1.247 1_545 S
O27 Co14 2.244 . S
O27 C17 1.272 . S
O27 Co19 2.135 . S
Co28 O29 2.216 . S
Co28 O30 2.091 . S
Co28 O32 2.004 . S
Co28 O38 2.021 . S
Co28 O40 2.137 . S
Co28 O41 2.244 . S
O29 Co28 2.216 . S
O29 C36 1.247 . S
O30 Co28 2.091 . S
O30 C36 1.261 . S
C31 O40 1.247 . S
C31 O41 1.272 . S
O32 Co28 2.004 . S
O32 C37 1.259 . S
Co33 O34 2.061 . S
Co33 O39 2.052 . S
Co33 O41 2.135 . S
O34 Co33 2.061 . S
O34 C37 1.235 . S
C35 O38 1.238 . S
C35 O39 1.241 . S
C36 O29 1.247 . S
C36 O30 1.261 . S
C37 O32 1.259 . S
C37 O34 1.235 . S
O38 Co28 2.021 . S
O38 C35 1.238 . S
O39 Co33 2.052 . S
O39 C35 1.241 . S
O40 Co28 2.137 . S
O40 C31 1.247 . S
O41 Co28 2.244 . S
O41 C31 1.272 . S
O41 Co33 2.135 . S
Co42 O43 2.216 . S
Co42 O44 2.091 1_545 S
Co42 O46 2.004 . S
Co42 O52 2.021 . S
Co42 O54 2.114 1_545 S
Co42 O55 2.244 . S
O43 Co42 2.216 . S
O43 C50 1.247 1_545 S
O44 Co42 2.091 1_565 S
O44 C50 1.261 . S
C45 O54 1.218 1_545 S
C45 O55 1.272 . S
O46 Co42 2.004 . S
O46 C51 1.259 . S
Co47 O48 2.061 . S
Co47 O53 2.052 . S
Co47 O55 2.135 . S
O48 Co47 2.061 . S
O48 C51 1.235 . S
C49 O52 1.238 . S
C49 O53 1.241 . S
C50 O43 1.247 1_565 S
C50 O44 1.261 . S
C51 O46 1.259 . S
C51 O48 1.235 . S
O52 Co42 2.021 . S
O52 C49 1.238 . S
O53 Co47 2.052 . S
O53 C49 1.241 . S
O54 Co42 2.114 1_565 S
O54 C45 1.218 1_565 S
O55 Co42 2.244 . S
O55 C45 1.272 . S
O55 Co47 2.135 . S
Co56 O57 2.216 . S
Co56 O58 2.091 . S
Co56 O60 2.004 . S
Co56 O66 2.021 . S
Co56 O68 2.137 . S
Co56 O69 2.244 . S
O57 Co56 2.216 . S
O57 C64 1.247 . S
O58 Co56 2.091 . S
O58 C64 1.261 . S
C59 O68 1.247 . S
C59 O69 1.272 . S
O60 Co56 2.004 . S
O60 C65 1.259 . S
Co61 O62 2.061 . S
Co61 O67 2.052 . S
Co61 O69 2.135 . S
O62 Co61 2.061 . S
O62 C65 1.235 . S
C63 O66 1.238 . S
C63 O67 1.241 . S
C64 O57 1.247 . S
C64 O58 1.261 . S
C65 O60 1.259 . S
C65 O62 1.235 . S
O66 Co56 2.021 . S
O66 C63 1.238 . S
O67 Co61 2.052 . S
O67 C63 1.241 . S
O68 Co56 2.137 . S
O68 C59 1.247 . S
O69 Co56 2.244 . S
O69 C59 1.272 . S
O69 Co61 2.135 . S
Co70 O71 2.216 . S
Co70 O72 2.091 1_565 S
Co70 O74 2.004 . S
Co70 O80 2.021 . S
Co70 O82 2.114 1_565 S
Co70 O83 2.244 . S
O71 Co70 2.216 . S
O71 C78 1.247 1_565 S
O72 Co70 2.091 1_545 S
O72 C78 1.261 . S
C73 O82 1.217 1_565 S
C73 O83 1.272 . S
O74 Co70 2.004 . S
O74 C79 1.259 . S
Co75 O76 2.061 . S
Co75 O81 2.052 . S
Co75 O83 2.135 . S
O76 Co75 2.061 . S
O76 C79 1.235 . S
C77 O80 1.238 . S
C77 O81 1.241 . S
C78 O71 1.247 1_545 S
C78 O72 1.261 . S
C79 O74 1.259 . S
C79 O76 1.235 . S
O80 Co70 2.021 . S
O80 C77 1.238 . S
O81 Co75 2.052 . S
O81 C77 1.241 . S
O82 Co70 2.114 1_545 S
O82 C73 1.217 1_545 S
O83 Co70 2.244 . S
O83 C73 1.272 . S
O83 Co75 2.135 . S
Co84 O85 2.216 . S
Co84 O86 2.091 . S
Co84 O88 2.004 . S
Co84 O94 2.021 . S
Co84 O96 2.137 . S
Co84 O97 2.244 . S
O85 Co84 2.216 . S
O85 C92 1.247 . S
O86 Co84 2.091 . S
O86 C92 1.261 . S
C87 O96 1.247 . S
C87 O97 1.272 . S
O88 Co84 2.004 . S
O88 C93 1.259 . S
Co89 O90 2.061 . S
Co89 O95 2.052 . S
Co89 O97 2.135 . S
O90 Co89 2.061 . S
O90 C93 1.235 . S
C91 O94 1.238 . S
C91 O95 1.241 . S
C92 O85 1.247 . S
C92 O86 1.261 . S
C93 O88 1.259 . S
C93 O90 1.235 . S
O94 Co84 2.021 . S
O94 C91 1.238 . S
O95 Co89 2.052 . S
O95 C91 1.241 . S
O96 Co84 2.137 . S
O96 C87 1.247 . S
O97 Co84 2.244 . S
O97 C87 1.272 . S
O97 Co89 2.135 . S
Co98 O99 2.216 . S
Co98 O100 2.091 1_545 S
Co98 O102 2.004 . S
Co98 O108 2.021 . S
Co98 O110 2.137 1_545 S
Co98 O111 2.244 . S
O99 Co98 2.216 . S
O99 C106 1.247 1_545 S
O100 Co98 2.091 1_565 S
O100 C106 1.261 . S
C101 O110 1.247 1_545 S
C101 O111 1.272 . S
O102 Co98 2.004 . S
O102 C107 1.272 . S
Co103 O104 2.061 . S
Co103 O109 2.052 . S
Co103 O111 2.135 . S
O104 Co103 2.061 . S
O104 C107 1.241 . S
C105 O108 1.238 . S
C105 O109 1.241 . S
C106 O99 1.247 1_565 S
C106 O100 1.261 . S
C107 O102 1.272 . S
C107 O104 1.241 . S
O108 Co98 2.021 . S
O108 C105 1.238 . S
O109 Co103 2.052 . S
O109 C105 1.241 . S
O110 Co98 2.137 1_565 S
O110 C101 1.247 1_565 S
O111 Co98 2.244 . S
O111 C101 1.272 . S
O111 Co103 2.135 . S
Co112 O113 2.216 . S
Co112 O114 2.091 . S
Co112 O116 2.004 . S
Co112 O122 2.021 . S
Co112 O124 2.137 . S
Co112 O125 2.244 . S
O113 Co112 2.216 . S
O113 C120 1.247 . S
O114 Co112 2.091 . S
O114 C120 1.261 . S
C115 O124 1.247 . S
C115 O125 1.272 . S
O116 Co112 2.004 . S
O116 C121 1.259 . S
Co117 O118 2.061 . S
Co117 O123 2.052 . S
Co117 O125 2.135 . S
O118 Co117 2.061 . S
O118 C121 1.235 . S
C119 O122 1.238 . S
C119 O123 1.241 . S
C120 O113 1.247 . S
C120 O114 1.261 . S
C121 O116 1.259 . S
C121 O118 1.235 . S
O122 Co112 2.021 . S
O122 C119 1.238 . S
O123 Co117 2.052 . S
O123 C119 1.241 . S
O124 Co112 2.137 . S
O124 C115 1.247 . S
O125 Co112 2.244 . S
O125 C115 1.272 . S
O125 Co117 2.135 . S
Co126 O127 2.216 . S
Co126 O128 2.091 1_545 S
Co126 O130 2.004 . S
Co126 O136 2.021 . S
Co126 O138 2.137 1_545 S
Co126 O139 2.244 . S
O127 Co126 2.216 . S
O127 C134 1.247 1_545 S
O128 Co126 2.091 1_565 S
O128 C134 1.261 . S
C129 O138 1.247 1_545 S
C129 O139 1.272 . S
O130 Co126 2.004 . S
O130 C135 1.272 . S
Co131 O132 2.061 . S
Co131 O137 2.052 . S
Co131 O139 2.135 . S
O132 Co131 2.061 . S
O132 C135 1.241 . S
C133 O136 1.238 . S
C133 O137 1.241 . S
C134 O127 1.247 1_565 S
C134 O128 1.261 . S
C135 O130 1.272 . S
C135 O132 1.241 . S
O136 Co126 2.021 . S
O136 C133 1.238 . S
O137 Co131 2.052 . S
O137 C133 1.241 . S
O138 Co126 2.137 1_565 S
O138 C129 1.247 1_565 S
O139 Co126 2.244 . S
O139 C129 1.272 . S
O139 Co131 2.135 . S
Co140 O141 2.216 . S
Co140 O142 2.091 . S
Co140 O144 2.004 . S
Co140 O150 2.021 . S
Co140 O152 2.137 . S
Co140 O153 2.244 . S
O141 Co140 2.216 . S
O141 C148 1.247 . S
O142 Co140 2.091 . S
O142 C148 1.261 . S
C143 O152 1.247 . S
C143 O153 1.272 . S
O144 Co140 2.004 . S
O144 C149 1.259 . S
Co145 O146 2.061 . S
Co145 O151 2.052 . S
Co145 O153 2.135 . S
O146 Co145 2.061 . S
O146 C149 1.235 . S
C147 O150 1.238 . S
C147 O151 1.241 . S
C148 O141 1.247 . S
C148 O142 1.261 . S
C149 O144 1.259 . S
C149 O146 1.235 . S
O150 Co140 2.021 . S
O150 C147 1.238 . S
O151 Co145 2.052 . S
O151 C147 1.241 . S
O152 Co140 2.137 . S
O152 C143 1.247 . S
O153 Co140 2.244 . S
O153 C143 1.272 . S
O153 Co145 2.135 . S
Co154 O155 2.216 . S
Co154 O156 2.091 1_565 S
Co154 O158 2.004 . S
Co154 O164 2.021 . S
Co154 O166 2.114 1_565 S
Co154 O167 2.244 . S
O155 Co154 2.216 . S
O155 C162 1.247 1_565 S
O156 Co154 2.091 1_545 S
O156 C162 1.261 . S
C157 O166 1.218 1_565 S
C157 O167 1.272 . S
O158 Co154 2.004 . S
O158 C163 1.259 . S
Co159 O160 2.061 . S
Co159 O165 2.052 . S
Co159 O167 2.135 . S
O160 Co159 2.061 . S
O160 C163 1.235 . S
C161 O164 1.238 . S
C161 O165 1.241 . S
C162 O155 1.247 1_545 S
C162 O156 1.261 . S
C163 O158 1.259 . S
C163 O160 1.235 . S
O164 Co154 2.021 . S
O164 C161 1.238 . S
O165 Co159 2.052 . S
O165 C161 1.241 . S
O166 Co154 2.114 1_545 S
O166 C157 1.218 1_545 S
O167 Co154 2.244 . S
O167 C157 1.272 . S
O167 Co159 2.135 . S
Co168 O169 2.216 . S
Co168 O170 2.091 . S
Co168 O172 2.004 . S
Co168 O178 2.021 . S
Co168 O180 2.137 . S
Co168 O181 2.244 . S
O169 Co168 2.216 . S
O169 C176 1.247 . S
O170 Co168 2.091 . S
O170 C176 1.261 . S
C171 O180 1.247 . S
C171 O181 1.272 . S
O172 Co168 2.004 . S
O172 C177 1.259 . S
Co173 O174 2.061 . S
Co173 O179 2.052 . S
Co173 O181 2.135 . S
O174 Co173 2.061 . S
O174 C177 1.235 . S
C175 O178 1.238 . S
C175 O179 1.241 . S
C176 O169 1.247 . S
C176 O170 1.261 . S
C177 O172 1.259 . S
C177 O174 1.235 . S
O178 Co168 2.021 . S
O178 C175 1.238 . S
O179 Co173 2.052 . S
O179 C175 1.241 . S
O180 Co168 2.137 . S
O180 C171 1.247 . S
O181 Co168 2.244 . S
O181 C171 1.272 . S
O181 Co173 2.135 . S
Co182 O183 2.216 . S
Co182 O184 2.091 1_545 S
Co182 O186 2.004 . S
Co182 O192 2.021 . S
Co182 O194 2.114 1_545 S
Co182 O195 2.244 . S
O183 Co182 2.216 . S
O183 C190 1.247 1_545 S
O184 Co182 2.091 1_565 S
O184 C190 1.261 . S
C185 O194 1.217 1_545 S
C185 O195 1.272 . S
O186 Co182 2.004 . S
O186 C191 1.259 . S
Co187 O188 2.061 . S
Co187 O193 2.052 . S
Co187 O195 2.135 . S
O188 Co187 2.061 . S
O188 C191 1.235 . S
C189 O192 1.238 . S
C189 O193 1.241 . S
C190 O183 1.247 1_565 S
C190 O184 1.261 . S
C191 O186 1.259 . S
C191 O188 1.235 . S
O192 Co182 2.021 . S
O192 C189 1.238 . S
O193 Co187 2.052 . S
O193 C189 1.241 . S
O194 Co182 2.114 1_565 S
O194 C185 1.217 1_565 S
O195 Co182 2.244 . S
O195 C185 1.272 . S
O195 Co187 2.135 . S
Co196 O197 2.216 . S
Co196 O198 2.091 . S
Co196 O200 2.004 . S
Co196 O206 2.021 . S
Co196 O208 2.137 . S
Co196 O209 2.244 . S
O197 Co196 2.216 . S
O197 C204 1.247 . S
O198 Co196 2.091 . S
O198 C204 1.261 . S
C199 O208 1.247 . S
C199 O209 1.272 . S
O200 Co196 2.004 . S
O200 C205 1.259 . S
Co201 O202 2.061 . S
Co201 O207 2.052 . S
Co201 O209 2.135 . S
O202 Co201 2.061 . S
O202 C205 1.235 . S
C203 O206 1.238 . S
C203 O207 1.241 . S
C204 O197 1.247 . S
C204 O198 1.261 . S
C205 O200 1.259 . S
C205 O202 1.235 . S
O206 Co196 2.021 . S
O206 C203 1.238 . S
O207 Co201 2.052 . S
O207 C203 1.241 . S
O208 Co196 2.137 . S
O208 C199 1.247 . S
O209 Co196 2.244 . S
O209 C199 1.272 . S
O209 Co201 2.135 . S
Co210 O211 2.216 . S
Co210 O212 2.091 1_565 S
Co210 O214 2.004 . S
Co210 O220 2.021 . S
Co210 O222 2.137 1_565 S
Co210 O223 2.244 . S
O211 Co210 2.216 . S
O211 C218 1.247 1_565 S
O212 Co210 2.091 1_545 S
O212 C218 1.261 . S
C213 O222 1.247 1_565 S
C213 O223 1.272 . S
O214 Co210 2.004 . S
O214 C219 1.272 . S
Co215 O216 2.061 . S
Co215 O221 2.052 . S
Co215 O223 2.135 . S
O216 Co215 2.061 . S
O216 C219 1.241 . S
C217 O220 1.238 . S
C217 O221 1.241 . S
C218 O211 1.247 1_545 S
C218 O212 1.261 . S
C219 O214 1.272 . S
C219 O216 1.241 . S
O220 Co210 2.021 . S
O220 C217 1.238 . S
O221 Co215 2.052 . S
O221 C217 1.241 . S
O222 Co210 2.137 1_545 S
O222 C213 1.247 1_545 S
O223 Co210 2.244 . S
O223 C213 1.272 . S
O223 Co215 2.135 . S
Co224 O225 2.216 . S
Co224 O226 2.091 . S
Co224 O228 2.004 . S
Co224 O234 2.021 . S
Co224 O236 2.137 . S
Co224 O237 2.244 . S
O225 Co224 2.216 . S
O225 C232 1.247 . S
O226 Co224 2.091 . S
O226 C232 1.261 . S
C227 O236 1.247 . S
C227 O237 1.272 . S
O228 Co224 2.004 . S
O228 C233 1.259 . S
Co229 O230 2.061 . S
Co229 O235 2.052 . S
Co229 O237 2.135 . S
O230 Co229 2.061 . S
O230 C233 1.235 . S
C231 O234 1.238 . S
C231 O235 1.241 . S
C232 O225 1.247 . S
C232 O226 1.261 . S
C233 O228 1.259 . S
C233 O230 1.235 . S
O234 Co224 2.021 . S
O234 C231 1.238 . S
O235 Co229 2.052 . S
O235 C231 1.241 . S
O236 Co224 2.137 . S
O236 C227 1.247 . S
O237 Co224 2.244 . S
O237 C227 1.272 . S
O237 Co229 2.135 . S
Co238 O239 2.216 . S
Co238 O240 2.091 . S
Co238 O242 2.004 . S
Co238 O248 2.021 . S
Co238 O250 2.137 . S
Co238 O251 2.244 . S
O239 Co238 2.216 . S
O239 C246 1.247 . S
O240 Co238 2.091 . S
O240 C246 1.261 . S
C241 O250 1.247 . S
C241 O251 1.272 . S
O242 Co238 2.004 . S
O242 C247 1.259 . S
Co243 O244 2.061 . S
Co243 O249 2.052 . S
Co243 O251 2.135 . S
O244 Co243 2.061 . S
O244 C247 1.235 . S
C245 O248 1.238 . S
C245 O249 1.241 . S
C246 O239 1.247 . S
C246 O240 1.261 . S
C247 O242 1.259 . S
C247 O244 1.235 . S
O248 Co238 2.021 . S
O248 C245 1.238 . S
O249 Co243 2.052 . S
O249 C245 1.241 . S
O250 Co238 2.137 . S
O250 C241 1.247 . S
O251 Co238 2.244 . S
O251 C241 1.272 . S
O251 Co243 2.135 . S
Co252 O253 2.216 . S
Co252 O254 2.091 . S
Co252 O256 2.004 . S
Co252 O262 2.021 . S
Co252 O264 2.137 . S
Co252 O265 2.244 . S
O253 Co252 2.216 . S
O253 C260 1.247 . S
O254 Co252 2.091 . S
O254 C260 1.261 . S
C255 O264 1.247 . S
C255 O265 1.272 . S
O256 Co252 2.004 . S
O256 C261 1.259 . S
Co257 O258 2.061 . S
Co257 O263 2.052 . S
Co257 O265 2.135 . S
O258 Co257 2.061 . S
O258 C261 1.235 . S
C259 O262 1.238 . S
C259 O263 1.241 . S
C260 O253 1.247 . S
C260 O254 1.261 . S
C261 O256 1.259 . S
C261 O258 1.235 . S
O262 Co252 2.021 . S
O262 C259 1.238 . S
O263 Co257 2.052 . S
O263 C259 1.241 . S
O264 Co252 2.137 . S
O264 C255 1.247 . S
O265 Co252 2.244 . S
O265 C255 1.272 . S
O265 Co257 2.135 . S
Co266 O267 2.216 . S
Co266 O268 2.091 . S
Co266 O270 2.004 . S
Co266 O276 2.021 . S
Co266 O278 2.137 . S
Co266 O279 2.244 . S
O267 Co266 2.216 . S
O267 C274 1.247 . S
O268 Co266 2.091 . S
O268 C274 1.261 . S
C269 O278 1.247 . S
C269 O279 1.272 . S
O270 Co266 2.004 . S
O270 C275 1.272 . S
Co271 O272 2.061 . S
Co271 O277 2.052 . S
Co271 O279 2.135 . S
O272 Co271 2.061 . S
O272 C275 1.241 . S
C273 O276 1.238 . S
C273 O277 1.241 . S
C274 O267 1.247 . S
C274 O268 1.261 . S
C275 O270 1.272 . S
C275 O272 1.241 . S
O276 Co266 2.021 . S
O276 C273 1.238 . S
O277 Co271 2.052 . S
O277 C273 1.241 . S
O278 Co266 2.137 . S
O278 C269 1.247 . S
O279 Co266 2.244 . S
O279 C269 1.272 . S
O279 Co271 2.135 . S
Co280 O281 2.216 . S
Co280 O282 2.091 . S
Co280 O284 2.004 . S
Co280 O290 2.021 . S
Co280 O292 2.137 . S
Co280 O293 2.244 . S
O281 Co280 2.216 . S
O281 C288 1.247 . S
O282 Co280 2.091 . S
O282 C288 1.261 . S
C283 O292 1.247 . S
C283 O293 1.272 . S
O284 Co280 2.004 . S
O284 C289 1.259 . S
Co285 O286 2.061 . S
Co285 O291 2.052 . S
Co285 O293 2.135 . S
O286 Co285 2.061 . S
O286 C289 1.235 . S
C287 O290 1.238 . S
C287 O291 1.241 . S
C288 O281 1.247 . S
C288 O282 1.261 . S
C289 O284 1.259 . S
C289 O286 1.235 . S
O290 Co280 2.021 . S
O290 C287 1.238 . S
O291 Co285 2.052 . S
O291 C287 1.241 . S
O292 Co280 2.137 . S
O292 C283 1.247 . S
O293 Co280 2.244 . S
O293 C283 1.272 . S
O293 Co285 2.135 . S
Co294 O295 2.216 . S
Co294 O296 2.091 . S
Co294 O298 2.004 . S
Co294 O304 2.021 . S
Co294 O306 2.137 . S
Co294 O307 2.244 . S
O295 Co294 2.216 . S
O295 C302 1.247 . S
O296 Co294 2.091 . S
O296 C302 1.261 . S
C297 O306 1.247 . S
C297 O307 1.272 . S
O298 Co294 2.004 . S
O298 C303 1.272 . S
Co299 O300 2.061 . S
Co299 O305 2.052 . S
Co299 O307 2.135 . S
O300 Co299 2.061 . S
O300 C303 1.241 . S
C301 O304 1.238 . S
C301 O305 1.241 . S
C302 O295 1.247 . S
C302 O296 1.261 . S
C303 O298 1.272 . S
C303 O300 1.241 . S
O304 Co294 2.021 . S
O304 C301 1.238 . S
O305 Co299 2.052 . S
O305 C301 1.241 . S
O306 Co294 2.137 . S
O306 C297 1.247 . S
O307 Co294 2.244 . S
O307 C297 1.272 . S
O307 Co299 2.135 . S
Co308 O309 2.216 . S
Co308 O310 2.091 . S
Co308 O312 2.004 . S
Co308 O318 2.021 . S
Co308 O320 2.137 . S
Co308 O321 2.244 . S
O309 Co308 2.216 . S
O309 C316 1.247 . S
O310 Co308 2.091 . S
O310 C316 1.261 . S
C311 O320 1.247 . S
C311 O321 1.272 . S
O312 Co308 2.004 . S
O312 C317 1.259 . S
Co313 O314 2.061 . S
Co313 O319 2.052 . S
Co313 O321 2.135 . S
O314 Co313 2.061 . S
O314 C317 1.235 . S
C315 O318 1.238 . S
C315 O319 1.241 . S
C316 O309 1.247 . S
C316 O310 1.261 . S
C317 O312 1.259 . S
C317 O314 1.235 . S
O318 Co308 2.021 . S
O318 C315 1.238 . S
O319 Co313 2.052 . S
O319 C315 1.241 . S
O320 Co308 2.137 . S
O320 C311 1.247 . S
O321 Co308 2.244 . S
O321 C311 1.272 . S
O321 Co313 2.135 . S
Co322 O323 2.216 . S
Co322 O324 2.091 . S
Co322 O326 2.004 . S
Co322 O332 2.021 . S
Co322 O334 2.137 . S
Co322 O335 2.244 . S
O323 Co322 2.216 . S
O323 C330 1.247 . S
O324 Co322 2.091 . S
O324 C330 1.261 . S
C325 O334 1.247 . S
C325 O335 1.272 . S
O326 Co322 2.004 . S
O326 C331 1.259 . S
Co327 O328 2.061 . S
Co327 O333 2.052 . S
Co327 O335 2.135 . S
O328 Co327 2.061 . S
O328 C331 1.235 . S
C329 O332 1.238 . S
C329 O333 1.241 . S
C330 O323 1.247 . S
C330 O324 1.261 . S
C331 O326 1.259 . S
C331 O328 1.235 . S
O332 Co322 2.021 . S
O332 C329 1.238 . S
O333 Co327 2.052 . S
O333 C329 1.241 . S
O334 Co322 2.137 . S
O334 C325 1.247 . S
O335 Co322 2.244 . S
O335 C325 1.272 . S
O335 Co327 2.135 . S
Co336 O337 2.216 . S
Co336 O338 2.091 . S
Co336 O340 2.004 . S
Co336 O346 2.021 . S
Co336 O348 2.137 . S
Co336 O349 2.244 . S
O337 Co336 2.216 . S
O337 C344 1.247 . S
O338 Co336 2.091 . S
O338 C344 1.261 . S
C339 O348 1.247 . S
C339 O349 1.272 . S
O340 Co336 2.004 . S
O340 C345 1.259 . S
Co341 O342 2.061 . S
Co341 O347 2.052 . S
Co341 O349 2.135 . S
O342 Co341 2.061 . S
O342 C345 1.235 . S
C343 O346 1.238 . S
C343 O347 1.241 . S
C344 O337 1.247 . S
C344 O338 1.261 . S
C345 O340 1.259 . S
C345 O342 1.235 . S
O346 Co336 2.021 . S
O346 C343 1.238 . S
O347 Co341 2.052 . S
O347 C343 1.241 . S
O348 Co336 2.137 . S
O348 C339 1.247 . S
O349 Co336 2.244 . S
O349 C339 1.272 . S
O349 Co341 2.135 . S
Co350 O351 2.216 . S
Co350 O352 2.091 . S
Co350 O354 2.004 . S
Co350 O360 2.021 . S
Co350 O362 2.137 . S
Co350 O363 2.244 . S
O351 Co350 2.216 . S
O351 C358 1.247 . S
O352 Co350 2.091 . S
O352 C358 1.261 . S
C353 O362 1.247 . S
C353 O363 1.272 . S
O354 Co350 2.004 . S
O354 C359 1.259 . S
Co355 O356 2.061 . S
Co355 O361 2.052 . S
Co355 O363 2.135 . S
O356 Co355 2.061 . S
O356 C359 1.235 . S
C357 O360 1.238 . S
C357 O361 1.241 . S
C358 O351 1.247 . S
C358 O352 1.261 . S
C359 O354 1.259 . S
C359 O356 1.235 . S
O360 Co350 2.021 . S
O360 C357 1.238 . S
O361 Co355 2.052 . S
O361 C357 1.241 . S
O362 Co350 2.137 . S
O362 C353 1.247 . S
O363 Co350 2.244 . S
O363 C353 1.272 . S
O363 Co355 2.135 . S
Co364 O365 2.216 . S
Co364 O366 2.091 . S
Co364 O368 2.004 . S
Co364 O374 2.021 . S
Co364 O376 2.137 . S
Co364 O377 2.244 . S
O365 Co364 2.216 . S
O365 C372 1.247 . S
O366 Co364 2.091 . S
O366 C372 1.261 . S
C367 O376 1.247 . S
C367 O377 1.272 . S
O368 Co364 2.004 . S
O368 C373 1.259 . S
Co369 O370 2.061 . S
Co369 O375 2.052 . S
Co369 O377 2.135 . S
O370 Co369 2.061 . S
O370 C373 1.235 . S
C371 O374 1.238 . S
C371 O375 1.241 . S
C372 O365 1.247 . S
C372 O366 1.261 . S
C373 O368 1.259 . S
C373 O370 1.235 . S
O374 Co364 2.021 . S
O374 C371 1.238 . S
O375 Co369 2.052 . S
O375 C371 1.241 . S
O376 Co364 2.137 . S
O376 C367 1.247 . S
O377 Co364 2.244 . S
O377 C367 1.272 . S
O377 Co369 2.135 . S
Co378 O379 2.216 . S
Co378 O380 2.091 . S
Co378 O382 2.004 . S
Co378 O388 2.021 . S
Co378 O390 2.137 . S
Co378 O391 2.244 . S
O379 Co378 2.216 . S
O379 C386 1.247 . S
O380 Co378 2.091 . S
O380 C386 1.261 . S
C381 O390 1.247 . S
C381 O391 1.272 . S
O382 Co378 2.004 . S
O382 C387 1.272 . S
Co383 O384 2.061 . S
Co383 O389 2.052 . S
Co383 O391 2.135 . S
O384 Co383 2.061 . S
O384 C387 1.241 . S
C385 O388 1.238 . S
C385 O389 1.241 . S
C386 O379 1.247 . S
C386 O380 1.261 . S
C387 O382 1.272 . S
C387 O384 1.241 . S
O388 Co378 2.021 . S
O388 C385 1.238 . S
O389 Co383 2.052 . S
O389 C385 1.241 . S
O390 Co378 2.137 . S
O390 C381 1.247 . S
O391 Co378 2.244 . S
O391 C381 1.272 . S
O391 Co383 2.135 . S
Co392 O393 2.216 . S
Co392 O394 2.091 . S
Co392 O396 2.004 . S
Co392 O402 2.021 . S
Co392 O404 2.137 . S
Co392 O405 2.244 . S
O393 Co392 2.216 . S
O393 C400 1.247 . S
O394 Co392 2.091 . S
O394 C400 1.261 . S
C395 O404 1.247 . S
C395 O405 1.272 . S
O396 Co392 2.004 . S
O396 C401 1.259 . S
Co397 O398 2.061 . S
Co397 O403 2.052 . S
Co397 O405 2.135 . S
O398 Co397 2.061 . S
O398 C401 1.235 . S
C399 O402 1.238 . S
C399 O403 1.241 . S
C400 O393 1.247 . S
C400 O394 1.261 . S
C401 O396 1.259 . S
C401 O398 1.235 . S
O402 Co392 2.021 . S
O402 C399 1.238 . S
O403 Co397 2.052 . S
O403 C399 1.241 . S
O404 Co392 2.137 . S
O404 C395 1.247 . S
O405 Co392 2.244 . S
O405 C395 1.272 . S
O405 Co397 2.135 . S
Co406 O407 2.216 . S
Co406 O408 2.091 . S
Co406 O410 2.004 . S
Co406 O416 2.021 . S
Co406 O418 2.137 . S
Co406 O419 2.244 . S
O407 Co406 2.216 . S
O407 C414 1.247 . S
O408 Co406 2.091 . S
O408 C414 1.261 . S
C409 O418 1.247 . S
C409 O419 1.272 . S
O410 Co406 2.004 . S
O410 C415 1.272 . S
Co411 O412 2.061 . S
Co411 O417 2.052 . S
Co411 O419 2.135 . S
O412 Co411 2.061 . S
O412 C415 1.241 . S
C413 O416 1.238 . S
C413 O417 1.241 . S
C414 O407 1.247 . S
C414 O408 1.261 . S
C415 O410 1.272 . S
C415 O412 1.241 . S
O416 Co406 2.021 . S
O416 C413 1.238 . S
O417 Co411 2.052 . S
O417 C413 1.241 . S
O418 Co406 2.137 . S
O418 C409 1.247 . S
O419 Co406 2.244 . S
O419 C409 1.272 . S
O419 Co411 2.135 . S
Co420 O421 2.216 . S
Co420 O422 2.091 . S
Co420 O424 2.004 . S
Co420 O430 2.021 . S
Co420 O432 2.137 . S
Co420 O433 2.244 . S
O421 Co420 2.216 . S
O421 C428 1.247 . S
O422 Co420 2.091 . S
O422 C428 1.261 . S
C423 O432 1.247 . S
C423 O433 1.272 . S
O424 Co420 2.004 . S
O424 C429 1.259 . S
Co425 O426 2.061 . S
Co425 O431 2.052 . S
Co425 O433 2.135 . S
O426 Co425 2.061 . S
O426 C429 1.235 . S
C427 O430 1.238 . S
C427 O431 1.241 . S
C428 O421 1.247 . S
C428 O422 1.261 . S
C429 O424 1.259 . S
C429 O426 1.235 . S
O430 Co420 2.021 . S
O430 C427 1.238 . S
O431 Co425 2.052 . S
O431 C427 1.241 . S
O432 Co420 2.137 . S
O432 C423 1.247 . S
O433 Co420 2.244 . S
O433 C423 1.272 . S
O433 Co425 2.135 . S
Co434 O435 2.216 . S
Co434 O436 2.091 . S
Co434 O438 2.004 . S
Co434 O444 2.021 . S
Co434 O446 2.137 . S
Co434 O447 2.244 . S
O435 Co434 2.216 . S
O435 C442 1.247 . S
O436 Co434 2.091 . S
O436 C442 1.261 . S
C437 O446 1.247 . S
C437 O447 1.272 . S
O438 Co434 2.004 . S
O438 C443 1.259 . S
Co439 O440 2.061 . S
Co439 O445 2.052 . S
Co439 O447 2.135 . S
O440 Co439 2.061 . S
O440 C443 1.235 . S
C441 O444 1.238 . S
C441 O445 1.241 . S
C442 O435 1.247 . S
C442 O436 1.261 . S
C443 O438 1.259 . S
C443 O440 1.235 . S
O444 Co434 2.021 . S
O444 C441 1.238 . S
O445 Co439 2.052 . S
O445 C441 1.241 . S
O446 Co434 2.137 . S
O446 C437 1.247 . S
O447 Co434 2.244 . S
O447 C437 1.272 . S
O447 Co439 2.135 . S
C448 C449 1.391 . S
C448 C450 1.394 . S
C448 H464 0.931 . S
C449 C448 1.391 . S
C449 C453 1.376 . S
C450 C448 1.394 . S
C450 C451 1.369 . S
C450 C454 1.531 . S
C451 C450 1.369 . S
C451 C452 1.410 . S
C451 C459 1.503 . S
C452 C451 1.410 . S
C452 C453 1.392 . S
C452 C455 1.511 . S
C453 C449 1.376 . S
C453 C452 1.392 . S
C453 H465 0.929 . S
C454 C450 1.531 . S
C454 H466 0.960 . S
C454 H467 0.962 . S
C454 H468 0.960 . S
C455 C452 1.511 . S
C455 H469 0.961 . S
C455 H470 0.961 . S
C455 H471 0.961 . S
C456 C457 1.370 . S
C456 C458 1.363 . S
C456 H472 0.931 . S
C457 C456 1.370 . S
C457 C461 1.408 . S
C458 C456 1.363 . S
C458 C459 1.370 . S
C458 C462 1.524 . S
C459 C451 1.503 . S
C459 C458 1.370 . S
C459 C460 1.403 . S
C460 C459 1.403 . S
C460 C461 1.404 . S
C460 C463 1.539 . S
C461 C457 1.408 . S
C461 C460 1.404 . S
C461 H473 0.930 . S
C462 C458 1.524 . S
C462 H474 0.956 . S
C462 H475 0.961 . S
C462 H476 0.961 . S
C463 C460 1.539 . S
C463 H477 0.958 . S
C463 H478 0.961 . S
C463 H479 0.960 . S
H464 C448 0.931 . S
H465 C453 0.929 . S
H466 C454 0.960 . S
H467 C454 0.962 . S
H468 C454 0.960 . S
H469 C455 0.961 . S
H470 C455 0.961 . S
H471 C455 0.961 . S
H472 C456 0.931 . S
H473 C461 0.930 . S
H474 C462 0.956 . S
H475 C462 0.961 . S
H476 C462 0.961 . S
H477 C463 0.958 . S
H478 C463 0.961 . S
H479 C463 0.960 . S
C480 C481 1.391 . S
C480 C482 1.394 . S
C480 H496 0.931 . S
C481 C480 1.391 . S
C481 C485 1.376 . S
C482 C480 1.394 . S
C482 C483 1.369 . S
C482 C486 1.531 . S
C483 C482 1.369 . S
C483 C484 1.410 . S
C483 C491 1.503 . S
C484 C483 1.410 . S
C484 C485 1.392 . S
C484 C487 1.511 . S
C485 C481 1.376 . S
C485 C484 1.392 . S
C485 H497 0.929 . S
C486 C482 1.531 . S
C486 H498 0.960 . S
C486 H499 0.962 . S
C486 H500 0.960 . S
C487 C484 1.511 . S
C487 H501 0.961 . S
C487 H502 0.961 . S
C487 H503 0.961 . S
C488 C489 1.370 . S
C488 C490 1.363 . S
C488 H504 0.931 . S
C489 C488 1.370 . S
C489 C493 1.408 . S
C490 C488 1.363 . S
C490 C491 1.370 . S
C490 C494 1.524 . S
C491 C483 1.503 . S
C491 C490 1.370 . S
C491 C492 1.403 . S
C492 C491 1.403 . S
C492 C493 1.404 . S
C492 C495 1.539 . S
C493 C489 1.408 . S
C493 C492 1.404 . S
C493 H505 0.930 . S
C494 C490 1.524 . S
C494 H506 0.956 . S
C494 H507 0.961 . S
C494 H508 0.961 . S
C495 C492 1.539 . S
C495 H509 0.958 . S
C495 H510 0.961 . S
C495 H511 0.960 . S
H496 C480 0.931 . S
H497 C485 0.929 . S
H498 C486 0.960 . S
H499 C486 0.962 . S
H500 C486 0.960 . S
H501 C487 0.961 . S
H502 C487 0.961 . S
H503 C487 0.961 . S
H504 C488 0.931 . S
H505 C493 0.930 . S
H506 C494 0.956 . S
H507 C494 0.961 . S
H508 C494 0.961 . S
H509 C495 0.958 . S
H510 C495 0.961 . S
H511 C495 0.960 . S
C512 C513 1.391 . S
C512 C514 1.394 . S
C512 H528 0.931 . S
C513 C512 1.391 . S
C513 C517 1.376 . S
C514 C512 1.394 . S
C514 C515 1.369 . S
C514 C518 1.531 . S
C515 C514 1.369 . S
C515 C516 1.410 . S
C515 C523 1.503 . S
C516 C515 1.410 . S
C516 C517 1.392 . S
C516 C519 1.511 . S
C517 C513 1.376 . S
C517 C516 1.392 . S
C517 H529 0.929 . S
C518 C514 1.531 . S
C518 H530 0.960 . S
C518 H531 0.962 . S
C518 H532 0.960 . S
C519 C516 1.511 . S
C519 H533 0.961 . S
C519 H534 0.961 . S
C519 H535 0.961 . S
C520 C521 1.370 . S
C520 C522 1.363 . S
C520 H536 0.931 . S
C521 C520 1.370 . S
C521 C525 1.408 . S
C522 C520 1.363 . S
C522 C523 1.370 . S
C522 C526 1.524 . S
C523 C515 1.503 . S
C523 C522 1.370 . S
C523 C524 1.403 . S
C524 C523 1.403 . S
C524 C525 1.404 . S
C524 C527 1.539 . S
C525 C521 1.408 . S
C525 C524 1.404 . S
C525 H537 0.930 . S
C526 C522 1.524 . S
C526 H538 0.956 . S
C526 H539 0.961 . S
C526 H540 0.961 . S
C527 C524 1.539 . S
C527 H541 0.958 . S
C527 H542 0.961 . S
C527 H543 0.960 . S
H528 C512 0.931 . S
H529 C517 0.929 . S
H530 C518 0.960 . S
H531 C518 0.962 . S
H532 C518 0.960 . S
H533 C519 0.961 . S
H534 C519 0.961 . S
H535 C519 0.961 . S
H536 C520 0.931 . S
H537 C525 0.930 . S
H538 C526 0.956 . S
H539 C526 0.961 . S
H540 C526 0.961 . S
H541 C527 0.958 . S
H542 C527 0.961 . S
H543 C527 0.960 . S
C544 C545 1.391 . S
C544 C546 1.394 . S
C544 H560 0.931 . S
C545 C544 1.391 . S
C545 C549 1.376 . S
C546 C544 1.394 . S
C546 C547 1.369 . S
C546 C550 1.531 . S
C547 C546 1.369 . S
C547 C548 1.410 . S
C547 C555 1.503 . S
C548 C547 1.410 . S
C548 C549 1.392 . S
C548 C551 1.511 . S
C549 C545 1.376 . S
C549 C548 1.392 . S
C549 H561 0.929 . S
C550 C546 1.531 . S
C550 H562 0.960 . S
C550 H563 0.962 . S
C550 H564 0.960 . S
C551 C548 1.511 . S
C551 H565 0.961 . S
C551 H566 0.961 . S
C551 H567 0.961 . S
C552 C553 1.370 . S
C552 C554 1.363 . S
C552 H568 0.931 . S
C553 C552 1.370 . S
C553 C557 1.408 . S
C554 C552 1.363 . S
C554 C555 1.370 . S
C554 C558 1.524 . S
C555 C547 1.503 . S
C555 C554 1.370 . S
C555 C556 1.403 . S
C556 C555 1.403 . S
C556 C557 1.404 . S
C556 C559 1.539 . S
C557 C553 1.408 . S
C557 C556 1.404 . S
C557 H569 0.930 . S
C558 C554 1.524 . S
C558 H570 0.956 . S
C558 H571 0.961 . S
C558 H572 0.961 . S
C559 C556 1.539 . S
C559 H573 0.958 . S
C559 H574 0.961 . S
C559 H575 0.960 . S
H560 C544 0.931 . S
H561 C549 0.929 . S
H562 C550 0.960 . S
H563 C550 0.962 . S
H564 C550 0.960 . S
H565 C551 0.961 . S
H566 C551 0.961 . S
H567 C551 0.961 . S
H568 C552 0.931 . S
H569 C557 0.930 . S
H570 C558 0.956 . S
H571 C558 0.961 . S
H572 C558 0.961 . S
H573 C559 0.958 . S
H574 C559 0.961 . S
H575 C559 0.960 . S
C576 C577 1.391 . S
C576 C578 1.394 . S
C576 H592 0.931 . S
C577 C576 1.391 . S
C577 C581 1.376 . S
C578 C576 1.394 . S
C578 C579 1.369 . S
C578 C582 1.531 . S
C579 C578 1.369 . S
C579 C580 1.410 . S
C579 C587 1.503 . S
C580 C579 1.410 . S
C580 C581 1.392 . S
C580 C583 1.511 . S
C581 C577 1.376 . S
C581 C580 1.392 . S
C581 H593 0.929 . S
C582 C578 1.531 . S
C582 H594 0.960 . S
C582 H595 0.962 . S
C582 H596 0.960 . S
C583 C580 1.511 . S
C583 H597 0.961 . S
C583 H598 0.961 . S
C583 H599 0.961 . S
C584 C585 1.370 . S
C584 C586 1.363 . S
C584 H600 0.931 . S
C585 C584 1.370 . S
C585 C589 1.408 . S
C586 C584 1.363 . S
C586 C587 1.370 . S
C586 C590 1.524 . S
C587 C579 1.503 . S
C587 C586 1.370 . S
C587 C588 1.403 . S
C588 C587 1.403 . S
C588 C589 1.404 . S
C588 C591 1.539 . S
C589 C585 1.408 . S
C589 C588 1.404 . S
C589 H601 0.930 . S
C590 C586 1.524 . S
C590 H602 0.956 . S
C590 H603 0.961 . S
C590 H604 0.961 . S
C591 C588 1.539 . S
C591 H605 0.958 . S
C591 H606 0.961 . S
C591 H607 0.960 . S
H592 C576 0.931 . S
H593 C581 0.929 . S
H594 C582 0.960 . S
H595 C582 0.962 . S
H596 C582 0.960 . S
H597 C583 0.961 . S
H598 C583 0.961 . S
H599 C583 0.961 . S
H600 C584 0.931 . S
H601 C589 0.930 . S
H602 C590 0.956 . S
H603 C590 0.961 . S
H604 C590 0.961 . S
H605 C591 0.958 . S
H606 C591 0.961 . S
H607 C591 0.960 . S
C608 C609 1.391 . S
C608 C610 1.394 . S
C608 H624 0.931 . S
C609 C608 1.391 . S
C609 C613 1.376 . S
C610 C608 1.394 . S
C610 C611 1.369 . S
C610 C614 1.531 . S
C611 C610 1.369 . S
C611 C612 1.410 . S
C611 C619 1.503 . S
C612 C611 1.410 . S
C612 C613 1.392 . S
C612 C615 1.511 . S
C613 C609 1.376 . S
C613 C612 1.392 . S
C613 H625 0.929 . S
C614 C610 1.531 . S
C614 H626 0.960 . S
C614 H627 0.962 . S
C614 H628 0.960 . S
C615 C612 1.511 . S
C615 H629 0.961 . S
C615 H630 0.961 . S
C615 H631 0.961 . S
C616 C617 1.370 . S
C616 C618 1.363 . S
C616 H632 0.931 . S
C617 C616 1.370 . S
C617 C621 1.408 . S
C618 C616 1.363 . S
C618 C619 1.370 . S
C618 C622 1.524 . S
C619 C611 1.503 . S
C619 C618 1.370 . S
C619 C620 1.403 . S
C620 C619 1.403 . S
C620 C621 1.404 . S
C620 C623 1.539 . S
C621 C617 1.408 . S
C621 C620 1.404 . S
C621 H633 0.930 . S
C622 C618 1.524 . S
C622 H634 0.956 . S
C622 H635 0.961 . S
C622 H636 0.961 . S
C623 C620 1.539 . S
C623 H637 0.958 . S
C623 H638 0.961 . S
C623 H639 0.960 . S
H624 C608 0.931 . S
H625 C613 0.929 . S
H626 C614 0.960 . S
H627 C614 0.962 . S
H628 C614 0.960 . S
H629 C615 0.961 . S
H630 C615 0.961 . S
H631 C615 0.961 . S
H632 C616 0.931 . S
H633 C621 0.930 . S
H634 C622 0.956 . S
H635 C622 0.961 . S
H636 C622 0.961 . S
H637 C623 0.958 . S
H638 C623 0.961 . S
H639 C623 0.960 . S
C640 C641 1.391 . S
C640 C642 1.394 . S
C640 H656 0.931 . S
C641 C640 1.391 . S
C641 C645 1.376 . S
C642 C640 1.394 . S
C642 C643 1.369 . S
C642 C646 1.531 . S
C643 C642 1.369 . S
C643 C644 1.410 . S
C643 C651 1.503 . S
C644 C643 1.410 . S
C644 C645 1.392 . S
C644 C647 1.511 . S
C645 C641 1.376 . S
C645 C644 1.392 . S
C645 H657 0.929 . S
C646 C642 1.531 . S
C646 H658 0.960 . S
C646 H659 0.962 . S
C646 H660 0.960 . S
C647 C644 1.511 . S
C647 H661 0.961 . S
C647 H662 0.961 . S
C647 H663 0.961 . S
C648 C649 1.370 . S
C648 C650 1.363 . S
C648 H664 0.931 . S
C649 C648 1.370 . S
C649 C653 1.408 . S
C650 C648 1.363 . S
C650 C651 1.370 . S
C650 C654 1.524 . S
C651 C643 1.503 . S
C651 C650 1.370 . S
C651 C652 1.403 . S
C652 C651 1.403 . S
C652 C653 1.404 . S
C652 C655 1.539 . S
C653 C649 1.408 . S
C653 C652 1.404 . S
C653 H665 0.930 . S
C654 C650 1.524 . S
C654 H666 0.956 . S
C654 H667 0.961 . S
C654 H668 0.961 . S
C655 C652 1.539 . S
C655 H669 0.958 . S
C655 H670 0.961 . S
C655 H671 0.960 . S
H656 C640 0.931 . S
H657 C645 0.929 . S
H658 C646 0.960 . S
H659 C646 0.962 . S
H660 C646 0.960 . S
H661 C647 0.961 . S
H662 C647 0.961 . S
H663 C647 0.961 . S
H664 C648 0.931 . S
H665 C653 0.930 . S
H666 C654 0.956 . S
H667 C654 0.961 . S
H668 C654 0.961 . S
H669 C655 0.958 . S
H670 C655 0.961 . S
H671 C655 0.960 . S
C672 C673 1.391 . S
C672 C674 1.394 . S
C672 H688 0.931 . S
C673 C672 1.391 . S
C673 C677 1.376 . S
C674 C672 1.394 . S
C674 C675 1.369 . S
C674 C678 1.531 . S
C675 C674 1.369 . S
C675 C676 1.410 . S
C675 C683 1.503 . S
C676 C675 1.410 . S
C676 C677 1.392 . S
C676 C679 1.511 . S
C677 C673 1.376 . S
C677 C676 1.392 . S
C677 H689 0.929 . S
C678 C674 1.531 . S
C678 H690 0.960 . S
C678 H691 0.962 . S
C678 H692 0.960 . S
C679 C676 1.511 . S
C679 H693 0.961 . S
C679 H694 0.961 . S
C679 H695 0.961 . S
C680 C681 1.370 . S
C680 C682 1.363 . S
C680 H696 0.931 . S
C681 C680 1.370 . S
C681 C685 1.408 . S
C682 C680 1.363 . S
C682 C683 1.370 . S
C682 C686 1.524 . S
C683 C675 1.503 . S
C683 C682 1.370 . S
C683 C684 1.403 . S
C684 C683 1.403 . S
C684 C685 1.404 . S
C684 C687 1.539 . S
C685 C681 1.408 . S
C685 C684 1.404 . S
C685 H697 0.930 . S
C686 C682 1.524 . S
C686 H698 0.956 . S
C686 H699 0.961 . S
C686 H700 0.961 . S
C687 C684 1.539 . S
C687 H701 0.958 . S
C687 H702 0.961 . S
C687 H703 0.960 . S
H688 C672 0.931 . S
H689 C677 0.929 . S
H690 C678 0.960 . S
H691 C678 0.962 . S
H692 C678 0.960 . S
H693 C679 0.961 . S
H694 C679 0.961 . S
H695 C679 0.961 . S
H696 C680 0.931 . S
H697 C685 0.930 . S
H698 C686 0.956 . S
H699 C686 0.961 . S
H700 C686 0.961 . S
H701 C687 0.958 . S
H702 C687 0.961 . S
H703 C687 0.960 . S
C704 C705 1.391 . S
C704 C706 1.394 . S
C704 H720 0.931 . S
C705 C704 1.391 . S
C705 C709 1.376 . S
C706 C704 1.394 . S
C706 C707 1.369 . S
C706 C710 1.531 . S
C707 C706 1.369 . S
C707 C708 1.410 . S
C707 C715 1.503 . S
C708 C707 1.410 . S
C708 C709 1.392 . S
C708 C711 1.511 . S
C709 C705 1.376 . S
C709 C708 1.392 . S
C709 H721 0.929 . S
C710 C706 1.531 . S
C710 H722 0.960 . S
C710 H723 0.962 . S
C710 H724 0.960 . S
C711 C708 1.511 . S
C711 H725 0.961 . S
C711 H726 0.961 . S
C711 H727 0.961 . S
C712 C713 1.370 . S
C712 C714 1.363 . S
C712 H728 0.931 . S
C713 C712 1.370 . S
C713 C717 1.408 . S
C714 C712 1.363 . S
C714 C715 1.370 . S
C714 C718 1.524 . S
C715 C707 1.503 . S
C715 C714 1.370 . S
C715 C716 1.403 . S
C716 C715 1.403 . S
C716 C717 1.404 . S
C716 C719 1.539 . S
C717 C713 1.408 . S
C717 C716 1.404 . S
C717 H729 0.930 . S
C718 C714 1.524 . S
C718 H730 0.956 . S
C718 H731 0.961 . S
C718 H732 0.961 . S
C719 C716 1.539 . S
C719 H733 0.958 . S
C719 H734 0.961 . S
C719 H735 0.960 . S
H720 C704 0.931 . S
H721 C709 0.929 . S
H722 C710 0.960 . S
H723 C710 0.962 . S
H724 C710 0.960 . S
H725 C711 0.961 . S
H726 C711 0.961 . S
H727 C711 0.961 . S
H728 C712 0.931 . S
H729 C717 0.930 . S
H730 C718 0.956 . S
H731 C718 0.961 . S
H732 C718 0.961 . S
H733 C719 0.958 . S
H734 C719 0.961 . S
H735 C719 0.960 . S
C736 C737 1.391 . S
C736 C738 1.394 . S
C736 H752 0.931 . S
C737 C736 1.391 . S
C737 C741 1.376 . S
C738 C736 1.394 . S
C738 C739 1.369 . S
C738 C742 1.531 . S
C739 C738 1.369 . S
C739 C740 1.410 . S
C739 C747 1.503 . S
C740 C739 1.410 . S
C740 C741 1.392 . S
C740 C743 1.511 . S
C741 C737 1.376 . S
C741 C740 1.392 . S
C741 H753 0.929 . S
C742 C738 1.531 . S
C742 H754 0.960 . S
C742 H755 0.962 . S
C742 H756 0.960 . S
C743 C740 1.511 . S
C743 H757 0.961 . S
C743 H758 0.961 . S
C743 H759 0.961 . S
C744 C745 1.370 . S
C744 C746 1.363 . S
C744 H760 0.931 . S
C745 C744 1.370 . S
C745 C749 1.408 . S
C746 C744 1.363 . S
C746 C747 1.370 . S
C746 C750 1.524 . S
C747 C739 1.503 . S
C747 C746 1.370 . S
C747 C748 1.403 . S
C748 C747 1.403 . S
C748 C749 1.404 . S
C748 C751 1.539 . S
C749 C745 1.408 . S
C749 C748 1.404 . S
C749 H761 0.930 . S
C750 C746 1.524 . S
C750 H762 0.956 . S
C750 H763 0.961 . S
C750 H764 0.961 . S
C751 C748 1.539 . S
C751 H765 0.958 . S
C751 H766 0.961 . S
C751 H767 0.960 . S
H752 C736 0.931 . S
H753 C741 0.929 . S
H754 C742 0.960 . S
H755 C742 0.962 . S
H756 C742 0.960 . S
H757 C743 0.961 . S
H758 C743 0.961 . S
H759 C743 0.961 . S
H760 C744 0.931 . S
H761 C749 0.930 . S
H762 C750 0.956 . S
H763 C750 0.961 . S
H764 C750 0.961 . S
H765 C751 0.958 . S
H766 C751 0.961 . S
H767 C751 0.960 . S
C768 C769 1.391 . S
C768 C770 1.394 . S
C768 H784 0.931 . S
C769 C768 1.391 . S
C769 C773 1.376 . S
C770 C768 1.394 . S
C770 C771 1.369 . S
C770 C774 1.531 . S
C771 C770 1.369 . S
C771 C772 1.410 . S
C771 C779 1.503 . S
C772 C771 1.410 . S
C772 C773 1.392 . S
C772 C775 1.511 . S
C773 C769 1.376 . S
C773 C772 1.392 . S
C773 H785 0.929 . S
C774 C770 1.531 . S
C774 H786 0.960 . S
C774 H787 0.962 . S
C774 H788 0.960 . S
C775 C772 1.511 . S
C775 H789 0.961 . S
C775 H790 0.961 . S
C775 H791 0.961 . S
C776 C777 1.370 . S
C776 C778 1.363 . S
C776 H792 0.931 . S
C777 C776 1.370 . S
C777 C781 1.408 . S
C778 C776 1.363 . S
C778 C779 1.370 . S
C778 C782 1.524 . S
C779 C771 1.503 . S
C779 C778 1.370 . S
C779 C780 1.403 . S
C780 C779 1.403 . S
C780 C781 1.404 . S
C780 C783 1.539 . S
C781 C777 1.408 . S
C781 C780 1.404 . S
C781 H793 0.930 . S
C782 C778 1.524 . S
C782 H794 0.956 . S
C782 H795 0.961 . S
C782 H796 0.961 . S
C783 C780 1.539 . S
C783 H797 0.958 . S
C783 H798 0.961 . S
C783 H799 0.960 . S
H784 C768 0.931 . S
H785 C773 0.929 . S
H786 C774 0.960 . S
H787 C774 0.962 . S
H788 C774 0.960 . S
H789 C775 0.961 . S
H790 C775 0.961 . S
H791 C775 0.961 . S
H792 C776 0.931 . S
H793 C781 0.930 . S
H794 C782 0.956 . S
H795 C782 0.961 . S
H796 C782 0.961 . S
H797 C783 0.958 . S
H798 C783 0.961 . S
H799 C783 0.960 . S
C800 C801 1.391 . S
C800 C802 1.394 . S
C800 H816 0.931 . S
C801 C800 1.391 . S
C801 C805 1.376 . S
C802 C800 1.394 . S
C802 C803 1.369 . S
C802 C806 1.531 . S
C803 C802 1.369 . S
C803 C804 1.410 . S
C803 C811 1.503 . S
C804 C803 1.410 . S
C804 C805 1.392 . S
C804 C807 1.511 . S
C805 C801 1.376 . S
C805 C804 1.392 . S
C805 H817 0.929 . S
C806 C802 1.531 . S
C806 H818 0.960 . S
C806 H819 0.962 . S
C806 H820 0.960 . S
C807 C804 1.511 . S
C807 H821 0.961 . S
C807 H822 0.961 . S
C807 H823 0.961 . S
C808 C809 1.370 . S
C808 C810 1.363 . S
C808 H824 0.931 . S
C809 C808 1.370 . S
C809 C813 1.408 . S
C810 C808 1.363 . S
C810 C811 1.370 . S
C810 C814 1.524 . S
C811 C803 1.503 . S
C811 C810 1.370 . S
C811 C812 1.403 . S
C812 C811 1.403 . S
C812 C813 1.404 . S
C812 C815 1.539 . S
C813 C809 1.408 . S
C813 C812 1.404 . S
C813 H825 0.930 . S
C814 C810 1.524 . S
C814 H826 0.956 . S
C814 H827 0.961 . S
C814 H828 0.961 . S
C815 C812 1.539 . S
C815 H829 0.958 . S
C815 H830 0.961 . S
C815 H831 0.960 . S
H816 C800 0.931 . S
H817 C805 0.929 . S
H818 C806 0.960 . S
H819 C806 0.962 . S
H820 C806 0.960 . S
H821 C807 0.961 . S
H822 C807 0.961 . S
H823 C807 0.961 . S
H824 C808 0.931 . S
H825 C813 0.930 . S
H826 C814 0.956 . S
H827 C814 0.961 . S
H828 C814 0.961 . S
H829 C815 0.958 . S
H830 C815 0.961 . S
H831 C815 0.960 . S
C832 C833 1.391 . S
C832 C834 1.394 . S
C832 H848 0.931 . S
C833 C832 1.391 . S
C833 C837 1.376 . S
C834 C832 1.394 . S
C834 C835 1.369 . S
C834 C838 1.531 . S
C835 C834 1.369 . S
C835 C836 1.410 . S
C835 C843 1.503 . S
C836 C835 1.410 . S
C836 C837 1.392 . S
C836 C839 1.511 . S
C837 C833 1.376 . S
C837 C836 1.392 . S
C837 H849 0.929 . S
C838 C834 1.531 . S
C838 H850 0.960 . S
C838 H851 0.962 . S
C838 H852 0.960 . S
C839 C836 1.511 . S
C839 H853 0.961 . S
C839 H854 0.961 . S
C839 H855 0.961 . S
C840 C841 1.370 . S
C840 C842 1.363 . S
C840 H856 0.931 . S
C841 C840 1.370 . S
C841 C845 1.408 . S
C842 C840 1.363 . S
C842 C843 1.370 . S
C842 C846 1.524 . S
C843 C835 1.503 . S
C843 C842 1.370 . S
C843 C844 1.403 . S
C844 C843 1.403 . S
C844 C845 1.404 . S
C844 C847 1.539 . S
C845 C841 1.408 . S
C845 C844 1.404 . S
C845 H857 0.930 . S
C846 C842 1.524 . S
C846 H858 0.956 . S
C846 H859 0.961 . S
C846 H860 0.961 . S
C847 C844 1.539 . S
C847 H861 0.958 . S
C847 H862 0.961 . S
C847 H863 0.960 . S
H848 C832 0.931 . S
H849 C837 0.929 . S
H850 C838 0.960 . S
H851 C838 0.962 . S
H852 C838 0.960 . S
H853 C839 0.961 . S
H854 C839 0.961 . S
H855 C839 0.961 . S
H856 C840 0.931 . S
H857 C845 0.930 . S
H858 C846 0.956 . S
H859 C846 0.961 . S
H860 C846 0.961 . S
H861 C847 0.958 . S
H862 C847 0.961 . S
H863 C847 0.960 . S
C864 C865 1.391 . S
C864 C866 1.394 . S
C864 H880 0.931 . S
C865 C864 1.391 . S
C865 C869 1.376 . S
C866 C864 1.394 . S
C866 C867 1.369 . S
C866 C870 1.531 . S
C867 C866 1.369 . S
C867 C868 1.410 . S
C867 C875 1.503 . S
C868 C867 1.410 . S
C868 C869 1.392 . S
C868 C871 1.511 . S
C869 C865 1.376 . S
C869 C868 1.392 . S
C869 H881 0.929 . S
C870 C866 1.531 . S
C870 H882 0.960 . S
C870 H883 0.962 . S
C870 H884 0.960 . S
C871 C868 1.511 . S
C871 H885 0.961 . S
C871 H886 0.961 . S
C871 H887 0.961 . S
C872 C873 1.370 . S
C872 C874 1.363 . S
C872 H888 0.931 . S
C873 C872 1.370 . S
C873 C877 1.408 . S
C874 C872 1.363 . S
C874 C875 1.370 . S
C874 C878 1.524 . S
C875 C867 1.503 . S
C875 C874 1.370 . S
C875 C876 1.403 . S
C876 C875 1.403 . S
C876 C877 1.404 . S
C876 C879 1.539 . S
C877 C873 1.408 . S
C877 C876 1.404 . S
C877 H889 0.930 . S
C878 C874 1.524 . S
C878 H890 0.956 . S
C878 H891 0.961 . S
C878 H892 0.961 . S
C879 C876 1.539 . S
C879 H893 0.958 . S
C879 H894 0.961 . S
C879 H895 0.960 . S
H880 C864 0.931 . S
H881 C869 0.929 . S
H882 C870 0.960 . S
H883 C870 0.962 . S
H884 C870 0.960 . S
H885 C871 0.961 . S
H886 C871 0.961 . S
H887 C871 0.961 . S
H888 C872 0.931 . S
H889 C877 0.930 . S
H890 C878 0.956 . S
H891 C878 0.961 . S
H892 C878 0.961 . S
H893 C879 0.958 . S
H894 C879 0.961 . S
H895 C879 0.960 . S
C896 C897 1.391 . S
C896 C898 1.394 . S
C896 H912 0.931 . S
C897 C896 1.391 . S
C897 C901 1.376 . S
C898 C896 1.394 . S
C898 C899 1.369 . S
C898 C902 1.531 . S
C899 C898 1.369 . S
C899 C900 1.410 . S
C899 C907 1.503 . S
C900 C899 1.410 . S
C900 C901 1.392 . S
C900 C903 1.511 . S
C901 C897 1.376 . S
C901 C900 1.392 . S
C901 H913 0.929 . S
C902 C898 1.531 . S
C902 H914 0.960 . S
C902 H915 0.962 . S
C902 H916 0.960 . S
C903 C900 1.511 . S
C903 H917 0.961 . S
C903 H918 0.961 . S
C903 H919 0.961 . S
C904 C905 1.370 . S
C904 C906 1.363 . S
C904 H920 0.931 . S
C905 C904 1.370 . S
C905 C909 1.408 . S
C906 C904 1.363 . S
C906 C907 1.370 . S
C906 C910 1.524 . S
C907 C899 1.503 . S
C907 C906 1.370 . S
C907 C908 1.403 . S
C908 C907 1.403 . S
C908 C909 1.404 . S
C908 C911 1.539 . S
C909 C905 1.408 . S
C909 C908 1.404 . S
C909 H921 0.930 . S
C910 C906 1.524 . S
C910 H922 0.956 . S
C910 H923 0.961 . S
C910 H924 0.961 . S
C911 C908 1.539 . S
C911 H925 0.958 . S
C911 H926 0.961 . S
C911 H927 0.960 . S
H912 C896 0.931 . S
H913 C901 0.929 . S
H914 C902 0.960 . S
H915 C902 0.962 . S
H916 C902 0.960 . S
H917 C903 0.961 . S
H918 C903 0.961 . S
H919 C903 0.961 . S
H920 C904 0.931 . S
H921 C909 0.930 . S
H922 C910 0.956 . S
H923 C910 0.961 . S
H924 C910 0.961 . S
H925 C911 0.958 . S
H926 C911 0.961 . S
H927 C911 0.960 . S
C928 C929 1.391 . S
C928 C930 1.394 . S
C928 H944 0.931 . S
C929 C928 1.391 . S
C929 C933 1.376 . S
C930 C928 1.394 . S
C930 C931 1.369 . S
C930 C934 1.531 . S
C931 C930 1.369 . S
C931 C932 1.410 . S
C931 C939 1.503 . S
C932 C931 1.410 . S
C932 C933 1.392 . S
C932 C935 1.511 . S
C933 C929 1.376 . S
C933 C932 1.392 . S
C933 H945 0.929 . S
C934 C930 1.531 . S
C934 H946 0.960 . S
C934 H947 0.962 . S
C934 H948 0.960 . S
C935 C932 1.511 . S
C935 H949 0.961 . S
C935 H950 0.961 . S
C935 H951 0.961 . S
C936 C937 1.370 . S
C936 C938 1.363 . S
C936 H952 0.931 . S
C937 C936 1.370 . S
C937 C941 1.408 . S
C938 C936 1.363 . S
C938 C939 1.370 . S
C938 C942 1.524 . S
C939 C931 1.503 . S
C939 C938 1.370 . S
C939 C940 1.403 . S
C940 C939 1.403 . S
C940 C941 1.404 . S
C940 C943 1.539 . S
C941 C937 1.408 . S
C941 C940 1.404 . S
C941 H953 0.930 . S
C942 C938 1.524 . S
C942 H954 0.956 . S
C942 H955 0.961 . S
C942 H956 0.961 . S
C943 C940 1.539 . S
C943 H957 0.958 . S
C943 H958 0.961 . S
C943 H959 0.960 . S
H944 C928 0.931 . S
H945 C933 0.929 . S
H946 C934 0.960 . S
H947 C934 0.962 . S
H948 C934 0.960 . S
H949 C935 0.961 . S
H950 C935 0.961 . S
H951 C935 0.961 . S
H952 C936 0.931 . S
H953 C941 0.930 . S
H954 C942 0.956 . S
H955 C942 0.961 . S
H956 C942 0.961 . S
H957 C943 0.958 . S
H958 C943 0.961 . S
H959 C943 0.960 . S
C960 C961 1.391 . S
C960 C962 1.394 . S
C960 H976 0.931 . S
C961 C960 1.391 . S
C961 C965 1.376 . S
C962 C960 1.394 . S
C962 C963 1.369 . S
C962 C966 1.531 . S
C963 C962 1.369 . S
C963 C964 1.410 . S
C963 C971 1.503 . S
C964 C963 1.410 . S
C964 C965 1.392 . S
C964 C967 1.511 . S
C965 C961 1.376 . S
C965 C964 1.392 . S
C965 H977 0.929 . S
C966 C962 1.531 . S
C966 H978 0.960 . S
C966 H979 0.962 . S
C966 H980 0.960 . S
C967 C964 1.511 . S
C967 H981 0.961 . S
C967 H982 0.961 . S
C967 H983 0.961 . S
C968 C969 1.370 . S
C968 C970 1.363 . S
C968 H984 0.931 . S
C969 C968 1.370 . S
C969 C973 1.408 . S
C970 C968 1.363 . S
C970 C971 1.370 . S
C970 C974 1.524 . S
C971 C963 1.503 . S
C971 C970 1.370 . S
C971 C972 1.403 . S
C972 C971 1.403 . S
C972 C973 1.404 . S
C972 C975 1.539 . S
C973 C969 1.408 . S
C973 C972 1.404 . S
C973 H985 0.930 . S
C974 C970 1.524 . S
C974 H986 0.956 . S
C974 H987 0.961 . S
C974 H988 0.961 . S
C975 C972 1.539 . S
C975 H989 0.958 . S
C975 H990 0.961 . S
C975 H991 0.960 . S
H976 C960 0.931 . S
H977 C965 0.929 . S
H978 C966 0.960 . S
H979 C966 0.962 . S
H980 C966 0.960 . S
H981 C967 0.961 . S
H982 C967 0.961 . S
H983 C967 0.961 . S
H984 C968 0.931 . S
H985 C973 0.930 . S
H986 C974 0.956 . S
H987 C974 0.961 . S
H988 C974 0.961 . S
H989 C975 0.958 . S
H990 C975 0.961 . S
H991 C975 0.960 . S
C992 C993 1.391 . S
C992 C994 1.394 . S
C992 H1008 0.931 . S
C993 C992 1.391 . S
C993 C997 1.376 . S
C994 C992 1.394 . S
C994 C995 1.369 . S
C994 C998 1.531 . S
C995 C994 1.369 . S
C995 C996 1.410 . S
C995 C1003 1.503 . S
C996 C995 1.410 . S
C996 C997 1.392 . S
C996 C999 1.511 . S
C997 C993 1.376 . S
C997 C996 1.392 . S
C997 H1009 0.929 . S
C998 C994 1.531 . S
C998 H1010 0.960 . S
C998 H1011 0.962 . S
C998 H1012 0.960 . S
C999 C996 1.511 . S
C999 H1013 0.961 . S
C999 H1014 0.961 . S
C999 H1015 0.961 . S
C1000 C1001 1.370 . S
C1000 C1002 1.363 . S
C1000 H1016 0.931 . S
C1001 C1000 1.370 . S
C1001 C1005 1.408 . S
C1002 C1000 1.363 . S
C1002 C1003 1.370 . S
C1002 C1006 1.524 . S
C1003 C995 1.503 . S
C1003 C1002 1.370 . S
C1003 C1004 1.403 . S
C1004 C1003 1.403 . S
C1004 C1005 1.404 . S
C1004 C1007 1.539 . S
C1005 C1001 1.408 . S
C1005 C1004 1.404 . S
C1005 H1017 0.930 . S
C1006 C1002 1.524 . S
C1006 H1018 0.956 . S
C1006 H1019 0.961 . S
C1006 H1020 0.961 . S
C1007 C1004 1.539 . S
C1007 H1021 0.958 . S
C1007 H1022 0.961 . S
C1007 H1023 0.960 . S
H1008 C992 0.931 . S
H1009 C997 0.929 . S
H1010 C998 0.960 . S
H1011 C998 0.962 . S
H1012 C998 0.960 . S
H1013 C999 0.961 . S
H1014 C999 0.961 . S
H1015 C999 0.961 . S
H1016 C1000 0.931 . S
H1017 C1005 0.930 . S
H1018 C1006 0.956 . S
H1019 C1006 0.961 . S
H1020 C1006 0.961 . S
H1021 C1007 0.958 . S
H1022 C1007 0.961 . S
H1023 C1007 0.960 . S
C1024 C1025 1.391 . S
C1024 C1026 1.394 . S
C1024 H1040 0.931 . S
C1025 C1024 1.391 . S
C1025 C1029 1.376 . S
C1026 C1024 1.394 . S
C1026 C1027 1.369 . S
C1026 C1030 1.531 . S
C1027 C1026 1.369 . S
C1027 C1028 1.410 . S
C1027 C1035 1.503 . S
C1028 C1027 1.410 . S
C1028 C1029 1.392 . S
C1028 C1031 1.511 . S
C1029 C1025 1.376 . S
C1029 C1028 1.392 . S
C1029 H1041 0.929 . S
C1030 C1026 1.531 . S
C1030 H1042 0.960 . S
C1030 H1043 0.962 . S
C1030 H1044 0.960 . S
C1031 C1028 1.511 . S
C1031 H1045 0.961 . S
C1031 H1046 0.961 . S
C1031 H1047 0.961 . S
C1032 C1033 1.370 . S
C1032 C1034 1.363 . S
C1032 H1048 0.931 . S
C1033 C1032 1.370 . S
C1033 C1037 1.408 . S
C1034 C1032 1.363 . S
C1034 C1035 1.370 . S
C1034 C1038 1.524 . S
C1035 C1027 1.503 . S
C1035 C1034 1.370 . S
C1035 C1036 1.403 . S
C1036 C1035 1.403 . S
C1036 C1037 1.404 . S
C1036 C1039 1.539 . S
C1037 C1033 1.408 . S
C1037 C1036 1.404 . S
C1037 H1049 0.930 . S
C1038 C1034 1.524 . S
C1038 H1050 0.956 . S
C1038 H1051 0.961 . S
C1038 H1052 0.961 . S
C1039 C1036 1.539 . S
C1039 H1053 0.958 . S
C1039 H1054 0.961 . S
C1039 H1055 0.960 . S
H1040 C1024 0.931 . S
H1041 C1029 0.929 . S
H1042 C1030 0.960 . S
H1043 C1030 0.962 . S
H1044 C1030 0.960 . S
H1045 C1031 0.961 . S
H1046 C1031 0.961 . S
H1047 C1031 0.961 . S
H1048 C1032 0.931 . S
H1049 C1037 0.930 . S
H1050 C1038 0.956 . S
H1051 C1038 0.961 . S
H1052 C1038 0.961 . S
H1053 C1039 0.958 . S
H1054 C1039 0.961 . S
H1055 C1039 0.960 . S
C1056 C1057 1.391 . S
C1056 C1058 1.394 . S
C1056 H1072 0.931 . S
C1057 C1056 1.391 . S
C1057 C1061 1.376 . S
C1058 C1056 1.394 . S
C1058 C1059 1.369 . S
C1058 C1062 1.531 . S
C1059 C1058 1.369 . S
C1059 C1060 1.410 . S
C1059 C1067 1.503 . S
C1060 C1059 1.410 . S
C1060 C1061 1.392 . S
C1060 C1063 1.511 . S
C1061 C1057 1.376 . S
C1061 C1060 1.392 . S
C1061 H1073 0.929 . S
C1062 C1058 1.531 . S
C1062 H1074 0.960 . S
C1062 H1075 0.962 . S
C1062 H1076 0.960 . S
C1063 C1060 1.511 . S
C1063 H1077 0.961 . S
C1063 H1078 0.961 . S
C1063 H1079 0.961 . S
C1064 C1065 1.370 . S
C1064 C1066 1.363 . S
C1064 H1080 0.931 . S
C1065 C1064 1.370 . S
C1065 C1069 1.408 . S
C1066 C1064 1.363 . S
C1066 C1067 1.370 . S
C1066 C1070 1.524 . S
C1067 C1059 1.503 . S
C1067 C1066 1.370 . S
C1067 C1068 1.403 . S
C1068 C1067 1.403 . S
C1068 C1069 1.404 . S
C1068 C1071 1.539 . S
C1069 C1065 1.408 . S
C1069 C1068 1.404 . S
C1069 H1081 0.955 . S
C1070 C1066 1.524 . S
C1070 H1082 0.956 . S
C1070 H1083 0.961 . S
C1070 H1084 0.961 . S
C1071 C1068 1.539 . S
C1071 H1085 0.958 . S
C1071 H1086 0.961 . S
C1071 H1087 0.960 . S
H1072 C1056 0.931 . S
H1073 C1061 0.929 . S
H1074 C1062 0.960 . S
H1075 C1062 0.962 . S
H1076 C1062 0.960 . S
H1077 C1063 0.961 . S
H1078 C1063 0.961 . S
H1079 C1063 0.961 . S
H1080 C1064 0.931 . S
H1081 C1069 0.955 . S
H1082 C1070 0.956 . S
H1083 C1070 0.961 . S
H1084 C1070 0.961 . S
H1085 C1071 0.958 . S
H1086 C1071 0.961 . S
H1087 C1071 0.960 . S
C1088 C1089 1.391 . S
C1088 C1090 1.394 . S
C1088 H1104 0.931 . S
C1089 C1088 1.391 . S
C1089 C1093 1.376 . S
C1090 C1088 1.394 . S
C1090 C1091 1.369 . S
C1090 C1094 1.531 . S
C1091 C1090 1.369 . S
C1091 C1092 1.410 . S
C1091 C1099 1.503 . S
C1092 C1091 1.410 . S
C1092 C1093 1.392 . S
C1092 C1095 1.511 . S
C1093 C1089 1.376 . S
C1093 C1092 1.392 . S
C1093 H1105 0.929 . S
C1094 C1090 1.531 . S
C1094 H1106 0.960 . S
C1094 H1107 0.962 . S
C1094 H1108 0.960 . S
C1095 C1092 1.511 . S
C1095 H1109 0.961 . S
C1095 H1110 0.961 . S
C1095 H1111 0.961 . S
C1096 C1097 1.370 . S
C1096 C1098 1.363 . S
C1096 H1112 0.931 . S
C1097 C1096 1.370 . S
C1097 C1101 1.408 . S
C1098 C1096 1.363 . S
C1098 C1099 1.370 . S
C1098 C1102 1.524 . S
C1099 C1091 1.503 . S
C1099 C1098 1.370 . S
C1099 C1100 1.403 . S
C1100 C1099 1.403 . S
C1100 C1101 1.404 . S
C1100 C1103 1.539 . S
C1101 C1097 1.408 . S
C1101 C1100 1.404 . S
C1101 H1113 0.930 . S
C1102 C1098 1.524 . S
C1102 H1114 0.956 . S
C1102 H1115 0.961 . S
C1102 H1116 0.961 . S
C1103 C1100 1.539 . S
C1103 H1117 0.958 . S
C1103 H1118 0.961 . S
C1103 H1119 0.960 . S
H1104 C1088 0.931 . S
H1105 C1093 0.929 . S
H1106 C1094 0.960 . S
H1107 C1094 0.962 . S
H1108 C1094 0.960 . S
H1109 C1095 0.961 . S
H1110 C1095 0.961 . S
H1111 C1095 0.961 . S
H1112 C1096 0.931 . S
H1113 C1101 0.930 . S
H1114 C1102 0.956 . S
H1115 C1102 0.961 . S
H1116 C1102 0.961 . S
H1117 C1103 0.958 . S
H1118 C1103 0.961 . S
H1119 C1103 0.960 . S
C1120 C1121 1.391 . S
C1120 C1122 1.394 . S
C1120 H1136 0.931 . S
C1121 C1120 1.391 . S
C1121 C1125 1.376 . S
C1122 C1120 1.394 . S
C1122 C1123 1.369 . S
C1122 C1126 1.531 . S
C1123 C1122 1.369 . S
C1123 C1124 1.410 . S
C1123 C1131 1.503 . S
C1124 C1123 1.410 . S
C1124 C1125 1.392 . S
C1124 C1127 1.511 . S
C1125 C1121 1.376 . S
C1125 C1124 1.392 . S
C1125 H1137 0.929 . S
C1126 C1122 1.531 . S
C1126 H1138 0.960 . S
C1126 H1139 0.962 . S
C1126 H1140 0.960 . S
C1127 C1124 1.511 . S
C1127 H1141 0.961 . S
C1127 H1142 0.961 . S
C1127 H1143 0.961 . S
C1128 C1129 1.370 . S
C1128 C1130 1.363 . S
C1128 H1144 0.931 . S
C1129 C1128 1.370 . S
C1129 C1133 1.408 . S
C1130 C1128 1.363 . S
C1130 C1131 1.370 . S
C1130 C1134 1.524 . S
C1131 C1123 1.503 . S
C1131 C1130 1.370 . S
C1131 C1132 1.403 . S
C1132 C1131 1.403 . S
C1132 C1133 1.404 . S
C1132 C1135 1.539 . S
C1133 C1129 1.408 . S
C1133 C1132 1.404 . S
C1133 H1145 0.930 . S
C1134 C1130 1.524 . S
C1134 H1146 0.956 . S
C1134 H1147 0.961 . S
C1134 H1148 0.961 . S
C1135 C1132 1.539 . S
C1135 H1149 0.958 . S
C1135 H1150 0.961 . S
C1135 H1151 0.960 . S
H1136 C1120 0.931 . S
H1137 C1125 0.929 . S
H1138 C1126 0.960 . S
H1139 C1126 0.962 . S
H1140 C1126 0.960 . S
H1141 C1127 0.961 . S
H1142 C1127 0.961 . S
H1143 C1127 0.961 . S
H1144 C1128 0.931 . S
H1145 C1133 0.930 . S
H1146 C1134 0.956 . S
H1147 C1134 0.961 . S
H1148 C1134 0.961 . S
H1149 C1135 0.958 . S
H1150 C1135 0.961 . S
H1151 C1135 0.960 . S
C1152 C1153 1.391 . S
C1152 C1154 1.394 . S
C1152 H1168 0.931 . S
C1153 C1152 1.391 . S
C1153 C1157 1.376 . S
C1154 C1152 1.394 . S
C1154 C1155 1.369 . S
C1154 C1158 1.531 . S
C1155 C1154 1.369 . S
C1155 C1156 1.410 . S
C1155 C1163 1.503 . S
C1156 C1155 1.410 . S
C1156 C1157 1.392 . S
C1156 C1159 1.511 . S
C1157 C1153 1.376 . S
C1157 C1156 1.392 . S
C1157 H1169 0.929 . S
C1158 C1154 1.531 . S
C1158 H1170 0.960 . S
C1158 H1171 0.962 . S
C1158 H1172 0.960 . S
C1159 C1156 1.511 . S
C1159 H1173 0.961 . S
C1159 H1174 0.961 . S
C1159 H1175 0.961 . S
C1160 C1161 1.370 . S
C1160 C1162 1.363 . S
C1160 H1176 0.931 . S
C1161 C1160 1.370 . S
C1161 C1165 1.408 . S
C1162 C1160 1.363 . S
C1162 C1163 1.370 . S
C1162 C1166 1.524 . S
C1163 C1155 1.503 . S
C1163 C1162 1.370 . S
C1163 C1164 1.403 . S
C1164 C1163 1.403 . S
C1164 C1165 1.404 . S
C1164 C1167 1.539 . S
C1165 C1161 1.408 . S
C1165 C1164 1.404 . S
C1165 H1177 0.930 . S
C1166 C1162 1.524 . S
C1166 H1178 0.956 . S
C1166 H1179 0.961 . S
C1166 H1180 0.961 . S
C1167 C1164 1.539 . S
C1167 H1181 0.958 . S
C1167 H1182 0.961 . S
C1167 H1183 0.960 . S
H1168 C1152 0.931 . S
H1169 C1157 0.929 . S
H1170 C1158 0.960 . S
H1171 C1158 0.962 . S
H1172 C1158 0.960 . S
H1173 C1159 0.961 . S
H1174 C1159 0.961 . S
H1175 C1159 0.961 . S
H1176 C1160 0.931 . S
H1177 C1165 0.930 . S
H1178 C1166 0.956 . S
H1179 C1166 0.961 . S
H1180 C1166 0.961 . S
H1181 C1167 0.958 . S
H1182 C1167 0.961 . S
H1183 C1167 0.960 . S
C1184 C1185 1.391 . S
C1184 C1186 1.394 . S
C1184 H1200 0.931 . S
C1185 C1184 1.391 . S
C1185 C1189 1.376 . S
C1186 C1184 1.394 . S
C1186 C1187 1.369 . S
C1186 C1190 1.531 . S
C1187 C1186 1.369 . S
C1187 C1188 1.410 . S
C1187 C1195 1.503 . S
C1188 C1187 1.410 . S
C1188 C1189 1.392 . S
C1188 C1191 1.511 . S
C1189 C1185 1.376 . S
C1189 C1188 1.392 . S
C1189 H1201 0.929 . S
C1190 C1186 1.531 . S
C1190 H1202 0.960 . S
C1190 H1203 0.962 . S
C1190 H1204 0.960 . S
C1191 C1188 1.511 . S
C1191 H1205 0.961 . S
C1191 H1206 0.961 . S
C1191 H1207 0.961 . S
C1192 C1193 1.370 . S
C1192 C1194 1.363 . S
C1192 H1208 0.931 . S
C1193 C1192 1.370 . S
C1193 C1197 1.408 . S
C1194 C1192 1.363 . S
C1194 C1195 1.370 . S
C1194 C1198 1.524 . S
C1195 C1187 1.503 . S
C1195 C1194 1.370 . S
C1195 C1196 1.403 . S
C1196 C1195 1.403 . S
C1196 C1197 1.404 . S
C1196 C1199 1.539 . S
C1197 C1193 1.408 . S
C1197 C1196 1.404 . S
C1197 H1209 0.930 . S
C1198 C1194 1.524 . S
C1198 H1210 0.956 . S
C1198 H1211 0.961 . S
C1198 H1212 0.961 . S
C1199 C1196 1.539 . S
C1199 H1213 0.958 . S
C1199 H1214 0.961 . S
C1199 H1215 0.960 . S
H1200 C1184 0.931 . S
H1201 C1189 0.929 . S
H1202 C1190 0.960 . S
H1203 C1190 0.962 . S
H1204 C1190 0.960 . S
H1205 C1191 0.961 . S
H1206 C1191 0.961 . S
H1207 C1191 0.961 . S
H1208 C1192 0.931 . S
H1209 C1197 0.930 . S
H1210 C1198 0.956 . S
H1211 C1198 0.961 . S
H1212 C1198 0.961 . S
H1213 C1199 0.958 . S
H1214 C1199 0.961 . S
H1215 C1199 0.960 . S
C1216 C1217 1.391 . S
C1216 C1218 1.394 . S
C1216 H1232 0.931 . S
C1217 C1216 1.391 . S
C1217 C1221 1.376 . S
C1218 C1216 1.394 . S
C1218 C1219 1.369 . S
C1218 C1222 1.531 . S
C1219 C1218 1.369 . S
C1219 C1220 1.410 . S
C1219 C1227 1.503 . S
C1220 C1219 1.410 . S
C1220 C1221 1.392 . S
C1220 C1223 1.511 . S
C1221 C1217 1.376 . S
C1221 C1220 1.392 . S
C1221 H1233 0.929 . S
C1222 C1218 1.531 . S
C1222 H1234 0.960 . S
C1222 H1235 0.962 . S
C1222 H1236 0.960 . S
C1223 C1220 1.511 . S
C1223 H1237 0.961 . S
C1223 H1238 0.961 . S
C1223 H1239 0.961 . S
C1224 C1225 1.370 . S
C1224 C1226 1.363 . S
C1224 H1240 0.931 . S
C1225 C1224 1.370 . S
C1225 C1229 1.408 . S
C1226 C1224 1.363 . S
C1226 C1227 1.370 . S
C1226 C1230 1.524 . S
C1227 C1219 1.503 . S
C1227 C1226 1.370 . S
C1227 C1228 1.403 . S
C1228 C1227 1.403 . S
C1228 C1229 1.404 . S
C1228 C1231 1.539 . S
C1229 C1225 1.408 . S
C1229 C1228 1.404 . S
C1229 H1241 0.930 . S
C1230 C1226 1.524 . S
C1230 H1242 0.956 . S
C1230 H1243 0.961 . S
C1230 H1244 0.961 . S
C1231 C1228 1.539 . S
C1231 H1245 0.958 . S
C1231 H1246 0.961 . S
C1231 H1247 0.960 . S
H1232 C1216 0.931 . S
H1233 C1221 0.929 . S
H1234 C1222 0.960 . S
H1235 C1222 0.962 . S
H1236 C1222 0.960 . S
H1237 C1223 0.961 . S
H1238 C1223 0.961 . S
H1239 C1223 0.961 . S
H1240 C1224 0.931 . S
H1241 C1229 0.930 . S
H1242 C1230 0.956 . S
H1243 C1230 0.961 . S
H1244 C1230 0.961 . S
H1245 C1231 0.958 . S
H1246 C1231 0.961 . S
H1247 C1231 0.960 . S
C1248 C1249 1.391 . S
C1248 C1250 1.394 . S
C1248 H1264 0.931 . S
C1249 C1248 1.391 . S
C1249 C1253 1.376 . S
C1250 C1248 1.394 . S
C1250 C1251 1.369 . S
C1250 C1254 1.531 . S
C1251 C1250 1.369 . S
C1251 C1252 1.410 . S
C1251 C1259 1.503 . S
C1252 C1251 1.410 . S
C1252 C1253 1.392 . S
C1252 C1255 1.511 . S
C1253 C1249 1.376 . S
C1253 C1252 1.392 . S
C1253 H1265 0.929 . S
C1254 C1250 1.531 . S
C1254 H1266 0.960 . S
C1254 H1267 0.962 . S
C1254 H1268 0.960 . S
C1255 C1252 1.511 . S
C1255 H1269 0.961 . S
C1255 H1270 0.961 . S
C1255 H1271 0.961 . S
C1256 C1257 1.370 . S
C1256 C1258 1.363 . S
C1256 H1272 0.931 . S
C1257 C1256 1.370 . S
C1257 C1261 1.408 . S
C1258 C1256 1.363 . S
C1258 C1259 1.370 . S
C1258 C1262 1.524 . S
C1259 C1251 1.503 . S
C1259 C1258 1.370 . S
C1259 C1260 1.403 . S
C1260 C1259 1.403 . S
C1260 C1261 1.404 . S
C1260 C1263 1.539 . S
C1261 C1257 1.408 . S
C1261 C1260 1.404 . S
C1261 H1273 0.930 . S
C1262 C1258 1.524 . S
C1262 H1274 0.956 . S
C1262 H1275 0.961 . S
C1262 H1276 0.961 . S
C1263 C1260 1.539 . S
C1263 H1277 0.958 . S
C1263 H1278 0.961 . S
C1263 H1279 0.960 . S
H1264 C1248 0.931 . S
H1265 C1253 0.929 . S
H1266 C1254 0.960 . S
H1267 C1254 0.962 . S
H1268 C1254 0.960 . S
H1269 C1255 0.961 . S
H1270 C1255 0.961 . S
H1271 C1255 0.961 . S
H1272 C1256 0.931 . S
H1273 C1261 0.930 . S
H1274 C1262 0.956 . S
H1275 C1262 0.961 . S
H1276 C1262 0.961 . S
H1277 C1263 0.958 . S
H1278 C1263 0.961 . S
H1279 C1263 0.960 . S
C1280 C1281 1.391 . S
C1280 C1282 1.394 . S
C1280 H1296 0.931 . S
C1281 C1280 1.391 . S
C1281 C1285 1.376 . S
C1282 C1280 1.394 . S
C1282 C1283 1.369 . S
C1282 C1286 1.531 . S
C1283 C1282 1.369 . S
C1283 C1284 1.410 . S
C1283 C1291 1.503 . S
C1284 C1283 1.410 . S
C1284 C1285 1.392 . S
C1284 C1287 1.511 . S
C1285 C1281 1.376 . S
C1285 C1284 1.392 . S
C1285 H1297 0.929 . S
C1286 C1282 1.531 . S
C1286 H1298 0.960 . S
C1286 H1299 0.962 . S
C1286 H1300 0.960 . S
C1287 C1284 1.511 . S
C1287 H1301 0.961 . S
C1287 H1302 0.961 . S
C1287 H1303 0.961 . S
C1288 C1289 1.370 . S
C1288 C1290 1.363 . S
C1288 H1304 0.931 . S
C1289 C1288 1.370 . S
C1289 C1293 1.408 . S
C1290 C1288 1.363 . S
C1290 C1291 1.370 . S
C1290 C1294 1.524 . S
C1291 C1283 1.503 . S
C1291 C1290 1.370 . S
C1291 C1292 1.403 . S
C1292 C1291 1.403 . S
C1292 C1293 1.404 . S
C1292 C1295 1.539 . S
C1293 C1289 1.408 . S
C1293 C1292 1.404 . S
C1293 H1305 0.930 . S
C1294 C1290 1.524 . S
C1294 H1306 0.956 . S
C1294 H1307 0.961 . S
C1294 H1308 0.961 . S
C1295 C1292 1.539 . S
C1295 H1309 0.958 . S
C1295 H1310 0.961 . S
C1295 H1311 0.960 . S
H1296 C1280 0.931 . S
H1297 C1285 0.929 . S
H1298 C1286 0.960 . S
H1299 C1286 0.962 . S
H1300 C1286 0.960 . S
H1301 C1287 0.961 . S
H1302 C1287 0.961 . S
H1303 C1287 0.961 . S
H1304 C1288 0.931 . S
H1305 C1293 0.930 . S
H1306 C1294 0.956 . S
H1307 C1294 0.961 . S
H1308 C1294 0.961 . S
H1309 C1295 0.958 . S
H1310 C1295 0.961 . S
H1311 C1295 0.960 . S
C1312 C1313 1.391 . S
C1312 C1314 1.394 . S
C1312 H1328 0.931 . S
C1313 C1312 1.391 . S
C1313 C1317 1.376 . S
C1314 C1312 1.394 . S
C1314 C1315 1.369 . S
C1314 C1318 1.531 . S
C1315 C1314 1.369 . S
C1315 C1316 1.410 . S
C1315 C1323 1.503 . S
C1316 C1315 1.410 . S
C1316 C1317 1.392 . S
C1316 C1319 1.511 . S
C1317 C1313 1.376 . S
C1317 C1316 1.392 . S
C1317 H1329 0.929 . S
C1318 C1314 1.531 . S
C1318 H1330 0.960 . S
C1318 H1331 0.962 . S
C1318 H1332 0.960 . S
C1319 C1316 1.511 . S
C1319 H1333 0.961 . S
C1319 H1334 0.961 . S
C1319 H1335 0.961 . S
C1320 C1321 1.370 . S
C1320 C1322 1.363 . S
C1320 H1336 0.931 . S
C1321 C1320 1.370 . S
C1321 C1325 1.408 . S
C1322 C1320 1.363 . S
C1322 C1323 1.370 . S
C1322 C1326 1.524 . S
C1323 C1315 1.503 . S
C1323 C1322 1.370 . S
C1323 C1324 1.403 . S
C1324 C1323 1.403 . S
C1324 C1325 1.404 . S
C1324 C1327 1.539 . S
C1325 C1321 1.408 . S
C1325 C1324 1.404 . S
C1325 H1337 0.930 . S
C1326 C1322 1.524 . S
C1326 H1338 0.956 . S
C1326 H1339 0.961 . S
C1326 H1340 0.961 . S
C1327 C1324 1.539 . S
C1327 H1341 0.958 . S
C1327 H1342 0.961 . S
C1327 H1343 0.960 . S
H1328 C1312 0.931 . S
H1329 C1317 0.929 . S
H1330 C1318 0.960 . S
H1331 C1318 0.962 . S
H1332 C1318 0.960 . S
H1333 C1319 0.961 . S
H1334 C1319 0.961 . S
H1335 C1319 0.961 . S
H1336 C1320 0.931 . S
H1337 C1325 0.930 . S
H1338 C1326 0.956 . S
H1339 C1326 0.961 . S
H1340 C1326 0.961 . S
H1341 C1327 0.958 . S
H1342 C1327 0.961 . S
H1343 C1327 0.960 . S
C1344 C1345 1.391 . S
C1344 C1346 1.394 . S
C1344 H1360 0.931 . S
C1345 C1344 1.391 . S
C1345 C1349 1.376 . S
C1346 C1344 1.394 . S
C1346 C1347 1.369 . S
C1346 C1350 1.531 . S
C1347 C1346 1.369 . S
C1347 C1348 1.410 . S
C1347 C1355 1.503 . S
C1348 C1347 1.410 . S
C1348 C1349 1.392 . S
C1348 C1351 1.511 . S
C1349 C1345 1.376 . S
C1349 C1348 1.392 . S
C1349 H1361 0.929 . S
C1350 C1346 1.531 . S
C1350 H1362 0.960 . S
C1350 H1363 0.962 . S
C1350 H1364 0.960 . S
C1351 C1348 1.511 . S
C1351 H1365 0.961 . S
C1351 H1366 0.961 . S
C1351 H1367 0.961 . S
C1352 C1353 1.370 . S
C1352 C1354 1.363 . S
C1352 H1368 0.931 . S
C1353 C1352 1.370 . S
C1353 C1357 1.408 . S
C1354 C1352 1.363 . S
C1354 C1355 1.370 . S
C1354 C1358 1.524 . S
C1355 C1347 1.503 . S
C1355 C1354 1.370 . S
C1355 C1356 1.403 . S
C1356 C1355 1.403 . S
C1356 C1357 1.404 . S
C1356 C1359 1.539 . S
C1357 C1353 1.408 . S
C1357 C1356 1.404 . S
C1357 H1369 0.930 . S
C1358 C1354 1.524 . S
C1358 H1370 0.956 . S
C1358 H1371 0.961 . S
C1358 H1372 0.961 . S
C1359 C1356 1.539 . S
C1359 H1373 0.958 . S
C1359 H1374 0.961 . S
C1359 H1375 0.960 . S
H1360 C1344 0.931 . S
H1361 C1349 0.929 . S
H1362 C1350 0.960 . S
H1363 C1350 0.962 . S
H1364 C1350 0.960 . S
H1365 C1351 0.961 . S
H1366 C1351 0.961 . S
H1367 C1351 0.961 . S
H1368 C1352 0.931 . S
H1369 C1357 0.930 . S
H1370 C1358 0.956 . S
H1371 C1358 0.961 . S
H1372 C1358 0.961 . S
H1373 C1359 0.958 . S
H1374 C1359 0.961 . S
H1375 C1359 0.960 . S
C1376 C1377 1.391 . S
C1376 C1378 1.394 . S
C1376 H1392 0.931 . S
C1377 C1376 1.391 . S
C1377 C1381 1.376 . S
C1378 C1376 1.394 . S
C1378 C1379 1.369 . S
C1378 C1382 1.531 . S
C1379 C1378 1.369 . S
C1379 C1380 1.410 . S
C1379 C1387 1.503 . S
C1380 C1379 1.410 . S
C1380 C1381 1.392 . S
C1380 C1383 1.511 . S
C1381 C1377 1.376 . S
C1381 C1380 1.392 . S
C1381 H1393 0.929 . S
C1382 C1378 1.531 . S
C1382 H1394 0.960 . S
C1382 H1395 0.962 . S
C1382 H1396 0.960 . S
C1383 C1380 1.511 . S
C1383 H1397 0.961 . S
C1383 H1398 0.961 . S
C1383 H1399 0.961 . S
C1384 C1385 1.370 . S
C1384 C1386 1.363 . S
C1384 H1400 0.931 . S
C1385 C1384 1.370 . S
C1385 C1389 1.408 . S
C1386 C1384 1.363 . S
C1386 C1387 1.370 . S
C1386 C1390 1.524 . S
C1387 C1379 1.503 . S
C1387 C1386 1.370 . S
C1387 C1388 1.403 . S
C1388 C1387 1.403 . S
C1388 C1389 1.404 . S
C1388 C1391 1.539 . S
C1389 C1385 1.408 . S
C1389 C1388 1.404 . S
C1389 H1401 0.930 . S
C1390 C1386 1.524 . S
C1390 H1402 0.956 . S
C1390 H1403 0.961 . S
C1390 H1404 0.961 . S
C1391 C1388 1.539 . S
C1391 H1405 0.958 . S
C1391 H1406 0.961 . S
C1391 H1407 0.960 . S
H1392 C1376 0.931 . S
H1393 C1381 0.929 . S
H1394 C1382 0.960 . S
H1395 C1382 0.962 . S
H1396 C1382 0.960 . S
H1397 C1383 0.961 . S
H1398 C1383 0.961 . S
H1399 C1383 0.961 . S
H1400 C1384 0.931 . S
H1401 C1389 0.930 . S
H1402 C1390 0.956 . S
H1403 C1390 0.961 . S
H1404 C1390 0.961 . S
H1405 C1391 0.958 . S
H1406 C1391 0.961 . S
H1407 C1391 0.960 . S
C1408 C1409 1.391 . S
C1408 C1410 1.394 . S
C1408 H1424 0.931 . S
C1409 C1408 1.391 . S
C1409 C1413 1.376 . S
C1410 C1408 1.394 . S
C1410 C1411 1.369 . S
C1410 C1414 1.531 . S
C1411 C1410 1.369 . S
C1411 C1412 1.410 . S
C1411 C1419 1.503 . S
C1412 C1411 1.410 . S
C1412 C1413 1.392 . S
C1412 C1415 1.511 . S
C1413 C1409 1.376 . S
C1413 C1412 1.392 . S
C1413 H1425 0.929 . S
C1414 C1410 1.531 . S
C1414 H1426 0.960 . S
C1414 H1427 0.962 . S
C1414 H1428 0.960 . S
C1415 C1412 1.511 . S
C1415 H1429 0.961 . S
C1415 H1430 0.961 . S
C1415 H1431 0.961 . S
C1416 C1417 1.370 . S
C1416 C1418 1.363 . S
C1416 H1432 0.931 . S
C1417 C1416 1.370 . S
C1417 C1421 1.408 . S
C1418 C1416 1.363 . S
C1418 C1419 1.370 . S
C1418 C1422 1.524 . S
C1419 C1411 1.503 . S
C1419 C1418 1.370 . S
C1419 C1420 1.403 . S
C1420 C1419 1.403 . S
C1420 C1421 1.404 . S
C1420 C1423 1.539 . S
C1421 C1417 1.408 . S
C1421 C1420 1.404 . S
C1421 H1433 0.930 . S
C1422 C1418 1.524 . S
C1422 H1434 0.956 . S
C1422 H1435 0.961 . S
C1422 H1436 0.961 . S
C1423 C1420 1.539 . S
C1423 H1437 0.958 . S
C1423 H1438 0.961 . S
C1423 H1439 0.960 . S
H1424 C1408 0.931 . S
H1425 C1413 0.929 . S
H1426 C1414 0.960 . S
H1427 C1414 0.962 . S
H1428 C1414 0.960 . S
H1429 C1415 0.961 . S
H1430 C1415 0.961 . S
H1431 C1415 0.961 . S
H1432 C1416 0.931 . S
H1433 C1421 0.930 . S
H1434 C1422 0.956 . S
H1435 C1422 0.961 . S
H1436 C1422 0.961 . S
H1437 C1423 0.958 . S
H1438 C1423 0.961 . S
H1439 C1423 0.960 . S
C1440 C1441 1.391 . S
C1440 C1442 1.394 . S
C1440 H1456 0.931 . S
C1441 C1440 1.391 . S
C1441 C1445 1.376 . S
C1442 C1440 1.394 . S
C1442 C1443 1.369 . S
C1442 C1446 1.531 . S
C1443 C1442 1.369 . S
C1443 C1444 1.410 . S
C1443 C1451 1.503 . S
C1444 C1443 1.410 . S
C1444 C1445 1.392 . S
C1444 C1447 1.511 . S
C1445 C1441 1.376 . S
C1445 C1444 1.392 . S
C1445 H1457 0.929 . S
C1446 C1442 1.531 . S
C1446 H1458 0.960 . S
C1446 H1459 0.962 . S
C1446 H1460 0.960 . S
C1447 C1444 1.511 . S
C1447 H1461 0.961 . S
C1447 H1462 0.961 . S
C1447 H1463 0.961 . S
C1448 C1449 1.370 . S
C1448 C1450 1.363 . S
C1448 H1464 0.931 . S
C1449 C1448 1.370 . S
C1449 C1453 1.408 . S
C1450 C1448 1.363 . S
C1450 C1451 1.370 . S
C1450 C1454 1.524 . S
C1451 C1443 1.503 . S
C1451 C1450 1.370 . S
C1451 C1452 1.403 . S
C1452 C1451 1.403 . S
C1452 C1453 1.404 . S
C1452 C1455 1.539 . S
C1453 C1449 1.408 . S
C1453 C1452 1.404 . S
C1453 H1465 0.930 . S
C1454 C1450 1.524 . S
C1454 H1466 0.956 . S
C1454 H1467 0.961 . S
C1454 H1468 0.961 . S
C1455 C1452 1.539 . S
C1455 H1469 0.958 . S
C1455 H1470 0.961 . S
C1455 H1471 0.960 . S
H1456 C1440 0.931 . S
H1457 C1445 0.929 . S
H1458 C1446 0.960 . S
H1459 C1446 0.962 . S
H1460 C1446 0.960 . S
H1461 C1447 0.961 . S
H1462 C1447 0.961 . S
H1463 C1447 0.961 . S
H1464 C1448 0.931 . S
H1465 C1453 0.930 . S
H1466 C1454 0.956 . S
H1467 C1454 0.961 . S
H1468 C1454 0.961 . S
H1469 C1455 0.958 . S
H1470 C1455 0.961 . S
H1471 C1455 0.960 . S
C1472 C1473 1.391 . S
C1472 C1474 1.394 . S
C1472 H1488 0.931 . S
C1473 C1472 1.391 . S
C1473 C1477 1.376 . S
C1474 C1472 1.394 . S
C1474 C1475 1.369 . S
C1474 C1478 1.531 . S
C1475 C1474 1.369 . S
C1475 C1476 1.410 . S
C1475 C1483 1.503 . S
C1476 C1475 1.410 . S
C1476 C1477 1.392 . S
C1476 C1479 1.511 . S
C1477 C1473 1.376 . S
C1477 C1476 1.392 . S
C1477 H1489 0.929 . S
C1478 C1474 1.531 . S
C1478 H1490 0.960 . S
C1478 H1491 0.962 . S
C1478 H1492 0.960 . S
C1479 C1476 1.511 . S
C1479 H1493 0.961 . S
C1479 H1494 0.961 . S
C1479 H1495 0.961 . S
C1480 C1481 1.370 . S
C1480 C1482 1.363 . S
C1480 H1496 0.931 . S
C1481 C1480 1.370 . S
C1481 C1485 1.408 . S
C1482 C1480 1.363 . S
C1482 C1483 1.370 . S
C1482 C1486 1.524 . S
C1483 C1475 1.503 . S
C1483 C1482 1.370 . S
C1483 C1484 1.403 . S
C1484 C1483 1.403 . S
C1484 C1485 1.404 . S
C1484 C1487 1.539 . S
C1485 C1481 1.408 . S
C1485 C1484 1.404 . S
C1485 H1497 0.930 . S
C1486 C1482 1.524 . S
C1486 H1498 0.956 . S
C1486 H1499 0.961 . S
C1486 H1500 0.961 . S
C1487 C1484 1.539 . S
C1487 H1501 0.958 . S
C1487 H1502 0.961 . S
C1487 H1503 0.960 . S
H1488 C1472 0.931 . S
H1489 C1477 0.929 . S
H1490 C1478 0.960 . S
H1491 C1478 0.962 . S
H1492 C1478 0.960 . S
H1493 C1479 0.961 . S
H1494 C1479 0.961 . S
H1495 C1479 0.961 . S
H1496 C1480 0.931 . S
H1497 C1485 0.930 . S
H1498 C1486 0.956 . S
H1499 C1486 0.961 . S
H1500 C1486 0.961 . S
H1501 C1487 0.958 . S
H1502 C1487 0.961 . S
H1503 C1487 0.960 . S
C1504 C1505 1.391 1_545 S
C1504 C1506 1.394 1_455 S
C1504 H1520 0.931 1_455 S
C1505 C1504 1.391 1_565 S
C1505 C1509 1.376 . S
C1506 C1504 1.394 1_655 S
C1506 C1507 1.369 1_655 S
C1506 C1510 1.531 . S
C1507 C1506 1.369 1_455 S
C1507 C1508 1.410 1_545 S
C1507 C1515 1.503 1_455 S
C1508 C1507 1.410 1_565 S
C1508 C1509 1.392 . S
C1508 C1511 1.511 . S
C1509 C1505 1.376 . S
C1509 C1508 1.392 . S
C1509 H1521 0.929 . S
C1510 C1506 1.531 . S
C1510 H1522 0.960 . S
C1510 H1523 0.962 . S
C1510 H1524 0.960 . S
C1511 C1508 1.511 . S
C1511 H1525 0.961 . S
C1511 H1526 0.961 . S
C1511 H1527 0.961 . S
C1512 C1513 1.370 1_565 S
C1512 C1514 1.363 . S
C1512 H1528 0.931 . S
C1513 C1512 1.370 1_545 S
C1513 C1517 1.408 . S
C1514 C1512 1.363 . S
C1514 C1515 1.370 1_565 S
C1514 C1518 1.524 . S
C1515 C1507 1.503 1_655 S
C1515 C1514 1.370 1_545 S
C1515 C1516 1.403 1_655 S
C1516 C1515 1.403 1_455 S
C1516 C1517 1.404 1_455 S
C1516 C1519 1.539 . S
C1517 C1513 1.408 . S
C1517 C1516 1.404 1_655 S
C1517 H1529 0.930 . S
C1518 C1514 1.524 . S
C1518 H1530 0.956 . S
C1518 H1531 0.961 . S
C1518 H1532 0.961 . S
C1519 C1516 1.539 . S
C1519 H1533 0.958 . S
C1519 H1534 0.961 . S
C1519 H1535 0.960 . S
H1520 C1504 0.931 1_655 S
H1521 C1509 0.929 . S
H1522 C1510 0.960 . S
H1523 C1510 0.962 . S
H1524 C1510 0.960 . S
H1525 C1511 0.961 . S
H1526 C1511 0.961 . S
H1527 C1511 0.961 . S
H1528 C1512 0.931 . S
H1529 C1517 0.930 . S
H1530 C1518 0.956 . S
H1531 C1518 0.961 . S
H1532 C1518 0.961 . S
H1533 C1519 0.958 . S
H1534 C1519 0.961 . S
H1535 C1519 0.960 . S
C1536 C1537 1.391 . S
C1536 C1538 1.394 . S
C1536 H1552 0.931 . S
C1537 C1536 1.391 . S
C1537 C1541 1.376 . S
C1538 C1536 1.394 . S
C1538 C1539 1.369 . S
C1538 C1542 1.531 . S
C1539 C1538 1.369 . S
C1539 C1540 1.410 . S
C1539 C1547 1.503 . S
C1540 C1539 1.410 . S
C1540 C1541 1.392 . S
C1540 C1543 1.511 . S
C1541 C1537 1.376 . S
C1541 C1540 1.392 . S
C1541 H1553 0.929 . S
C1542 C1538 1.531 . S
C1542 H1554 0.960 . S
C1542 H1555 0.962 . S
C1542 H1556 0.960 . S
C1543 C1540 1.511 . S
C1543 H1557 0.961 . S
C1543 H1558 0.961 . S
C1543 H1559 0.961 . S
C1544 C1545 1.370 . S
C1544 C1546 1.363 . S
C1544 H1560 0.931 . S
C1545 C1544 1.370 . S
C1545 C1549 1.408 . S
C1546 C1544 1.363 . S
C1546 C1547 1.370 . S
C1546 C1550 1.524 . S
C1547 C1539 1.503 . S
C1547 C1546 1.370 . S
C1547 C1548 1.403 . S
C1548 C1547 1.403 . S
C1548 C1549 1.404 . S
C1548 C1551 1.539 . S
C1549 C1545 1.408 . S
C1549 C1548 1.404 . S
C1549 H1561 0.930 . S
C1550 C1546 1.524 . S
C1550 H1562 0.956 . S
C1550 H1563 0.961 . S
C1550 H1564 0.961 . S
C1551 C1548 1.539 . S
C1551 H1565 0.958 . S
C1551 H1566 0.961 . S
C1551 H1567 0.960 . S
H1552 C1536 0.931 . S
H1553 C1541 0.929 . S
H1554 C1542 0.960 . S
H1555 C1542 0.962 . S
H1556 C1542 0.960 . S
H1557 C1543 0.961 . S
H1558 C1543 0.961 . S
H1559 C1543 0.961 . S
H1560 C1544 0.931 . S
H1561 C1549 0.930 . S
H1562 C1550 0.956 . S
H1563 C1550 0.961 . S
H1564 C1550 0.961 . S
H1565 C1551 0.958 . S
H1566 C1551 0.961 . S
H1567 C1551 0.960 . S
C1568 C1569 1.391 . S
C1568 C1570 1.394 . S
C1568 H1584 0.931 . S
C1569 C1568 1.391 . S
C1569 C1573 1.376 . S
C1570 C1568 1.394 . S
C1570 C1571 1.369 . S
C1570 C1574 1.531 1_554 S
C1571 C1570 1.369 . S
C1571 C1572 1.410 . S
C1571 C1579 1.503 1_554 S
C1572 C1571 1.410 . S
C1572 C1573 1.392 . S
C1572 C1575 1.511 . S
C1573 C1569 1.376 . S
C1573 C1572 1.392 . S
C1573 H1585 0.929 . S
C1574 C1570 1.531 1_556 S
C1574 H1586 0.960 . S
C1574 H1587 0.962 1_545 S
C1574 H1588 0.960 . S
C1575 C1572 1.511 . S
C1575 H1589 0.961 1_545 S
C1575 H1590 0.961 1_545 S
C1575 H1591 0.961 . S
C1576 C1577 1.370 . S
C1576 C1578 1.363 . S
C1576 H1592 0.931 . S
C1577 C1576 1.370 . S
C1577 C1581 1.408 1_565 S
C1578 C1576 1.363 . S
C1578 C1579 1.370 1_565 S
C1578 C1582 1.524 . S
C1579 C1571 1.503 1_556 S
C1579 C1578 1.370 1_545 S
C1579 C1580 1.403 . S
C1580 C1579 1.403 . S
C1580 C1581 1.404 . S
C1580 C1583 1.539 . S
C1581 C1577 1.408 1_545 S
C1581 C1580 1.404 . S
C1581 H1593 0.930 . S
C1582 C1578 1.524 . S
C1582 H1594 0.967 . S
C1582 H1595 0.961 1_556 S
C1582 H1596 0.961 . S
C1583 C1580 1.539 . S
C1583 H1597 0.958 . S
C1583 H1598 0.961 . S
C1583 H1599 0.960 . S
H1584 C1568 0.931 . S
H1585 C1573 0.929 . S
H1586 C1574 0.960 . S
H1587 C1574 0.962 1_565 S
H1588 C1574 0.960 . S
H1589 C1575 0.961 1_565 S
H1590 C1575 0.961 1_565 S
H1591 C1575 0.961 . S
H1592 C1576 0.931 . S
H1593 C1581 0.930 . S
H1594 C1582 0.967 . S
H1595 C1582 0.961 1_554 S
H1596 C1582 0.961 . S
H1597 C1583 0.958 . S
H1598 C1583 0.961 . S
H1599 C1583 0.960 . S
C1600 C1601 1.391 . S
C1600 C1602 1.394 . S
C1600 H1616 0.931 . S
C1601 C1600 1.391 . S
C1601 C1605 1.376 . S
C1602 C1600 1.394 . S
C1602 C1603 1.369 . S
C1602 C1606 1.531 . S
C1603 C1602 1.369 . S
C1603 C1604 1.410 . S
C1603 C1611 1.503 . S
C1604 C1603 1.410 . S
C1604 C1605 1.392 . S
C1604 C1607 1.511 . S
C1605 C1601 1.376 . S
C1605 C1604 1.392 . S
C1605 H1617 0.929 . S
C1606 C1602 1.531 . S
C1606 H1618 0.960 . S
C1606 H1619 0.962 . S
C1606 H1620 0.960 . S
C1607 C1604 1.511 . S
C1607 H1621 0.961 . S
C1607 H1622 0.961 . S
C1607 H1623 0.961 . S
C1608 C1609 1.370 . S
C1608 C1610 1.363 . S
C1608 H1624 0.931 . S
C1609 C1608 1.370 . S
C1609 C1613 1.408 . S
C1610 C1608 1.363 . S
C1610 C1611 1.370 . S
C1610 C1614 1.524 . S
C1611 C1603 1.503 . S
C1611 C1610 1.370 . S
C1611 C1612 1.403 . S
C1612 C1611 1.403 . S
C1612 C1613 1.404 . S
C1612 C1615 1.539 . S
C1613 C1609 1.408 . S
C1613 C1612 1.404 . S
C1613 H1625 0.930 . S
C1614 C1610 1.524 . S
C1614 H1626 0.956 . S
C1614 H1627 0.961 . S
C1614 H1628 0.961 . S
C1615 C1612 1.539 . S
C1615 H1629 0.958 . S
C1615 H1630 0.961 . S
C1615 H1631 0.960 . S
H1616 C1600 0.931 . S
H1617 C1605 0.929 . S
H1618 C1606 0.960 . S
H1619 C1606 0.962 . S
H1620 C1606 0.960 . S
H1621 C1607 0.961 . S
H1622 C1607 0.961 . S
H1623 C1607 0.961 . S
H1624 C1608 0.931 . S
H1625 C1613 0.930 . S
H1626 C1614 0.956 . S
H1627 C1614 0.961 . S
H1628 C1614 0.961 . S
H1629 C1615 0.958 . S
H1630 C1615 0.961 . S
H1631 C1615 0.960 . S
C1632 C1633 1.391 1_545 S
C1632 C1634 1.394 . S
C1632 H1648 0.931 . S
C1633 C1632 1.391 1_565 S
C1633 C1637 1.376 . S
C1634 C1632 1.394 . S
C1634 C1635 1.369 . S
C1634 C1638 1.531 . S
C1635 C1634 1.369 . S
C1635 C1636 1.410 1_545 S
C1635 C1643 1.503 . S
C1636 C1635 1.410 1_565 S
C1636 C1637 1.392 . S
C1636 C1639 1.511 . S
C1637 C1633 1.376 . S
C1637 C1636 1.392 . S
C1637 H1649 0.929 . S
C1638 C1634 1.531 . S
C1638 H1650 0.960 . S
C1638 H1651 0.962 . S
C1638 H1652 0.960 . S
C1639 C1636 1.511 . S
C1639 H1653 0.961 . S
C1639 H1654 0.961 . S
C1639 H1655 0.961 . S
C1640 C1641 1.370 1_565 S
C1640 C1642 1.363 . S
C1640 H1656 0.931 . S
C1641 C1640 1.370 1_545 S
C1641 C1645 1.408 . S
C1642 C1640 1.363 . S
C1642 C1643 1.370 1_565 S
C1642 C1646 1.524 . S
C1643 C1635 1.503 . S
C1643 C1642 1.370 1_545 S
C1643 C1644 1.403 . S
C1644 C1643 1.403 . S
C1644 C1645 1.404 . S
C1644 C1647 1.539 . S
C1645 C1641 1.408 . S
C1645 C1644 1.404 . S
C1645 H1657 0.930 . S
C1646 C1642 1.524 . S
C1646 H1658 0.956 . S
C1646 H1659 0.961 . S
C1646 H1660 0.961 . S
C1647 C1644 1.539 . S
C1647 H1661 0.958 . S
C1647 H1662 0.961 . S
C1647 H1663 0.960 . S
H1648 C1632 0.931 . S
H1649 C1637 0.929 . S
H1650 C1638 0.960 . S
H1651 C1638 0.962 . S
H1652 C1638 0.960 . S
H1653 C1639 0.961 . S
H1654 C1639 0.961 . S
H1655 C1639 0.961 . S
H1656 C1640 0.931 . S
H1657 C1645 0.930 . S
H1658 C1646 0.956 . S
H1659 C1646 0.961 . S
H1660 C1646 0.961 . S
H1661 C1647 0.958 . S
H1662 C1647 0.961 . S
H1663 C1647 0.960 . S
C1664 C1665 1.391 . S
C1664 C1666 1.394 . S
C1664 H1680 0.931 . S
C1665 C1664 1.391 . S
C1665 C1669 1.376 . S
C1666 C1664 1.394 . S
C1666 C1667 1.369 . S
C1666 C1670 1.531 . S
C1667 C1666 1.369 . S
C1667 C1668 1.410 . S
C1667 C1675 1.503 . S
C1668 C1667 1.410 . S
C1668 C1669 1.392 . S
C1668 C1671 1.511 . S
C1669 C1665 1.376 . S
C1669 C1668 1.392 . S
C1669 H1681 0.929 . S
C1670 C1666 1.531 . S
C1670 H1682 0.960 . S
C1670 H1683 0.962 . S
C1670 H1684 0.960 . S
C1671 C1668 1.511 . S
C1671 H1685 0.961 . S
C1671 H1686 0.961 . S
C1671 H1687 0.961 . S
C1672 C1673 1.370 . S
C1672 C1674 1.363 . S
C1672 H1688 0.931 . S
C1673 C1672 1.370 . S
C1673 C1677 1.408 . S
C1674 C1672 1.363 . S
C1674 C1675 1.370 . S
C1674 C1678 1.524 . S
C1675 C1667 1.503 . S
C1675 C1674 1.370 . S
C1675 C1676 1.403 . S
C1676 C1675 1.403 . S
C1676 C1677 1.404 . S
C1676 C1679 1.539 . S
C1677 C1673 1.408 . S
C1677 C1676 1.404 . S
C1677 H1689 0.930 . S
C1678 C1674 1.524 . S
C1678 H1690 0.956 . S
C1678 H1691 0.961 . S
C1678 H1692 0.961 . S
C1679 C1676 1.539 . S
C1679 H1693 0.958 . S
C1679 H1694 0.961 . S
C1679 H1695 0.960 . S
H1680 C1664 0.931 . S
H1681 C1669 0.929 . S
H1682 C1670 0.960 . S
H1683 C1670 0.962 . S
H1684 C1670 0.960 . S
H1685 C1671 0.961 . S
H1686 C1671 0.961 . S
H1687 C1671 0.961 . S
H1688 C1672 0.931 . S
H1689 C1677 0.930 . S
H1690 C1678 0.956 . S
H1691 C1678 0.961 . S
H1692 C1678 0.961 . S
H1693 C1679 0.958 . S
H1694 C1679 0.961 . S
H1695 C1679 0.960 . S
C1696 C1697 1.391 . S
C1696 C1698 1.394 . S
C1696 H1712 0.931 . S
C1697 C1696 1.391 . S
C1697 C1701 1.376 1_545 S
C1698 C1696 1.394 . S
C1698 C1699 1.367 1_455 S
C1698 C1702 1.558 . S
C1699 C1698 1.367 1_655 S
C1699 C1700 1.410 1_545 S
C1699 C1707 1.498 1_546 S
C1700 C1699 1.410 1_565 S
C1700 C1701 1.392 1_655 S
C1700 C1703 1.511 . S
C1701 C1697 1.376 1_565 S
C1701 C1700 1.392 1_455 S
C1701 H1713 0.929 . S
C1702 C1698 1.558 . S
C1702 H1714 0.937 1_456 S
C1702 H1715 0.940 1_556 S
C1702 H1716 0.980 . S
C1703 C1700 1.511 . S
C1703 H1717 0.961 . S
C1703 H1718 0.961 . S
C1703 H1719 0.961 . S
C1704 C1705 1.371 . S
C1704 C1706 1.363 1_655 S
C1704 H1720 0.931 1_655 S
C1705 C1704 1.371 . S
C1705 C1709 1.420 . S
C1706 C1704 1.363 1_455 S
C1706 C1707 1.384 1_455 S
C1706 C1710 1.524 . S
C1707 C1699 1.498 1_564 S
C1707 C1706 1.384 1_655 S
C1707 C1708 1.396 1_565 S
C1708 C1707 1.396 1_545 S
C1708 C1709 1.398 1_545 S
C1708 C1711 1.532 1_554 S
C1709 C1705 1.420 . S
C1709 C1708 1.398 1_565 S
C1709 H1721 0.925 1_565 S
C1710 C1706 1.524 . S
C1710 H1722 0.956 . S
C1710 H1723 0.961 . S
C1710 H1724 0.961 . S
C1711 C1708 1.532 1_556 S
C1711 H1725 0.958 1_556 S
C1711 H1726 0.959 1_556 S
C1711 H1727 0.969 . S
H1712 C1696 0.931 . S
H1713 C1701 0.929 . S
H1714 C1702 0.937 1_654 S
H1715 C1702 0.940 1_554 S
H1716 C1702 0.980 . S
H1717 C1703 0.961 . S
H1718 C1703 0.961 . S
H1719 C1703 0.961 . S
H1720 C1704 0.931 1_455 S
H1721 C1709 0.925 1_545 S
H1722 C1710 0.956 . S
H1723 C1710 0.961 . S
H1724 C1710 0.961 . S
H1725 C1711 0.958 1_554 S
H1726 C1711 0.959 1_554 S
H1727 C1711 0.969 . S
C1728 C1729 1.391 . S
C1728 C1730 1.394 . S
C1728 H1744 0.931 . S
C1729 C1728 1.391 . S
C1729 C1733 1.376 . S
C1730 C1728 1.394 . S
C1730 C1731 1.369 . S
C1730 C1734 1.531 . S
C1731 C1730 1.369 . S
C1731 C1732 1.410 . S
C1731 C1739 1.503 . S
C1732 C1731 1.410 . S
C1732 C1733 1.392 . S
C1732 C1735 1.511 . S
C1733 C1729 1.376 . S
C1733 C1732 1.392 . S
C1733 H1745 0.929 . S
C1734 C1730 1.531 . S
C1734 H1746 0.960 . S
C1734 H1747 0.962 . S
C1734 H1748 0.960 . S
C1735 C1732 1.511 . S
C1735 H1749 0.961 . S
C1735 H1750 0.961 . S
C1735 H1751 0.961 . S
C1736 C1737 1.370 . S
C1736 C1738 1.363 . S
C1736 H1752 0.931 . S
C1737 C1736 1.370 . S
C1737 C1741 1.408 . S
C1738 C1736 1.363 . S
C1738 C1739 1.370 . S
C1738 C1742 1.524 . S
C1739 C1731 1.503 . S
C1739 C1738 1.370 . S
C1739 C1740 1.403 . S
C1740 C1739 1.403 . S
C1740 C1741 1.404 . S
C1740 C1743 1.539 . S
C1741 C1737 1.408 . S
C1741 C1740 1.404 . S
C1741 H1753 0.930 . S
C1742 C1738 1.524 . S
C1742 H1754 0.956 . S
C1742 H1755 0.961 . S
C1742 H1756 0.961 . S
C1743 C1740 1.539 . S
C1743 H1757 0.958 . S
C1743 H1758 0.961 . S
C1743 H1759 0.960 . S
H1744 C1728 0.931 . S
H1745 C1733 0.929 . S
H1746 C1734 0.960 . S
H1747 C1734 0.962 . S
H1748 C1734 0.960 . S
H1749 C1735 0.961 . S
H1750 C1735 0.961 . S
H1751 C1735 0.961 . S
H1752 C1736 0.931 . S
H1753 C1741 0.930 . S
H1754 C1742 0.956 . S
H1755 C1742 0.961 . S
H1756 C1742 0.961 . S
H1757 C1743 0.958 . S
H1758 C1743 0.961 . S
H1759 C1743 0.960 . S
C1760 C1761 1.391 . S
C1760 C1762 1.394 . S
C1760 H1776 0.931 . S
C1761 C1760 1.391 . S
C1761 C1765 1.376 . S
C1762 C1760 1.394 . S
C1762 C1763 1.369 . S
C1762 C1766 1.531 . S
C1763 C1762 1.369 . S
C1763 C1764 1.410 . S
C1763 C1771 1.503 . S
C1764 C1763 1.410 . S
C1764 C1765 1.392 . S
C1764 C1767 1.511 . S
C1765 C1761 1.376 . S
C1765 C1764 1.392 . S
C1765 H1777 0.929 . S
C1766 C1762 1.531 . S
C1766 H1778 0.960 . S
C1766 H1779 0.962 . S
C1766 H1780 0.960 . S
C1767 C1764 1.511 . S
C1767 H1781 0.961 . S
C1767 H1782 0.961 . S
C1767 H1783 0.961 . S
C1768 C1769 1.370 . S
C1768 C1770 1.363 . S
C1768 H1784 0.931 . S
C1769 C1768 1.370 . S
C1769 C1773 1.408 . S
C1770 C1768 1.363 . S
C1770 C1771 1.370 . S
C1770 C1774 1.524 . S
C1771 C1763 1.503 . S
C1771 C1770 1.370 . S
C1771 C1772 1.403 . S
C1772 C1771 1.403 . S
C1772 C1773 1.404 . S
C1772 C1775 1.539 . S
C1773 C1769 1.408 . S
C1773 C1772 1.404 . S
C1773 H1785 0.930 . S
C1774 C1770 1.524 . S
C1774 H1786 0.956 . S
C1774 H1787 0.961 . S
C1774 H1788 0.961 . S
C1775 C1772 1.539 . S
C1775 H1789 0.958 . S
C1775 H1790 0.961 . S
C1775 H1791 0.960 . S
H1776 C1760 0.931 . S
H1777 C1765 0.929 . S
H1778 C1766 0.960 . S
H1779 C1766 0.962 . S
H1780 C1766 0.960 . S
H1781 C1767 0.961 . S
H1782 C1767 0.961 . S
H1783 C1767 0.961 . S
H1784 C1768 0.931 . S
H1785 C1773 0.930 . S
H1786 C1774 0.956 . S
H1787 C1774 0.961 . S
H1788 C1774 0.961 . S
H1789 C1775 0.958 . S
H1790 C1775 0.961 . S
H1791 C1775 0.960 . S
C1792 C1793 1.391 . S
C1792 C1794 1.394 . S
C1792 H1808 0.931 . S
C1793 C1792 1.391 . S
C1793 C1797 1.376 . S
C1794 C1792 1.394 . S
C1794 C1795 1.369 . S
C1794 C1798 1.531 . S
C1795 C1794 1.369 . S
C1795 C1796 1.410 . S
C1795 C1803 1.503 . S
C1796 C1795 1.410 . S
C1796 C1797 1.392 . S
C1796 C1799 1.511 . S
C1797 C1793 1.376 . S
C1797 C1796 1.392 . S
C1797 H1809 0.929 . S
C1798 C1794 1.531 . S
C1798 H1810 0.960 . S
C1798 H1811 0.962 . S
C1798 H1812 0.960 . S
C1799 C1796 1.511 . S
C1799 H1813 0.961 . S
C1799 H1814 0.961 . S
C1799 H1815 0.961 . S
C1800 C1801 1.370 . S
C1800 C1802 1.363 . S
C1800 H1816 0.931 . S
C1801 C1800 1.370 . S
C1801 C1805 1.408 . S
C1802 C1800 1.363 . S
C1802 C1803 1.370 . S
C1802 C1806 1.524 . S
C1803 C1795 1.503 . S
C1803 C1802 1.370 . S
C1803 C1804 1.403 . S
C1804 C1803 1.403 . S
C1804 C1805 1.404 . S
C1804 C1807 1.539 . S
C1805 C1801 1.408 . S
C1805 C1804 1.404 . S
C1805 H1817 0.930 . S
C1806 C1802 1.524 . S
C1806 H1818 0.956 . S
C1806 H1819 0.961 . S
C1806 H1820 0.961 . S
C1807 C1804 1.539 . S
C1807 H1821 0.958 . S
C1807 H1822 0.961 . S
C1807 H1823 0.960 . S
H1808 C1792 0.931 . S
H1809 C1797 0.929 . S
H1810 C1798 0.960 . S
H1811 C1798 0.962 . S
H1812 C1798 0.960 . S
H1813 C1799 0.961 . S
H1814 C1799 0.961 . S
H1815 C1799 0.961 . S
H1816 C1800 0.931 . S
H1817 C1805 0.930 . S
H1818 C1806 0.956 . S
H1819 C1806 0.961 . S
H1820 C1806 0.961 . S
H1821 C1807 0.958 . S
H1822 C1807 0.961 . S
H1823 C1807 0.960 . S
C1824 C1825 1.391 . S
C1824 C1826 1.394 . S
C1824 H1840 0.931 . S
C1825 C1824 1.391 . S
C1825 C1829 1.376 . S
C1826 C1824 1.394 . S
C1826 C1827 1.369 . S
C1826 C1830 1.531 . S
C1827 C1826 1.369 . S
C1827 C1828 1.410 . S
C1827 C1835 1.503 . S
C1828 C1827 1.410 . S
C1828 C1829 1.392 . S
C1828 C1831 1.511 . S
C1829 C1825 1.376 . S
C1829 C1828 1.392 . S
C1829 H1841 0.929 . S
C1830 C1826 1.531 . S
C1830 H1842 0.960 . S
C1830 H1843 0.962 . S
C1830 H1844 0.960 . S
C1831 C1828 1.511 . S
C1831 H1845 0.961 . S
C1831 H1846 0.961 . S
C1831 H1847 0.961 . S
C1832 C1833 1.370 . S
C1832 C1834 1.363 . S
C1832 H1848 0.931 . S
C1833 C1832 1.370 . S
C1833 C1837 1.408 . S
C1834 C1832 1.363 . S
C1834 C1835 1.370 . S
C1834 C1838 1.524 . S
C1835 C1827 1.503 . S
C1835 C1834 1.370 . S
C1835 C1836 1.403 . S
C1836 C1835 1.403 . S
C1836 C1837 1.404 . S
C1836 C1839 1.539 . S
C1837 C1833 1.408 . S
C1837 C1836 1.404 . S
C1837 H1849 0.930 . S
C1838 C1834 1.524 . S
C1838 H1850 0.956 . S
C1838 H1851 0.961 . S
C1838 H1852 0.961 . S
C1839 C1836 1.539 . S
C1839 H1853 0.958 . S
C1839 H1854 0.961 . S
C1839 H1855 0.960 . S
H1840 C1824 0.931 . S
H1841 C1829 0.929 . S
H1842 C1830 0.960 . S
H1843 C1830 0.962 . S
H1844 C1830 0.960 . S
H1845 C1831 0.961 . S
H1846 C1831 0.961 . S
H1847 C1831 0.961 . S
H1848 C1832 0.931 . S
H1849 C1837 0.930 . S
H1850 C1838 0.956 . S
H1851 C1838 0.961 . S
H1852 C1838 0.961 . S
H1853 C1839 0.958 . S
H1854 C1839 0.961 . S
H1855 C1839 0.960 . S
C1856 C1857 1.391 . S
C1856 C1858 1.394 . S
C1856 H1872 0.931 . S
C1857 C1856 1.391 . S
C1857 C1861 1.376 . S
C1858 C1856 1.394 . S
C1858 C1859 1.369 . S
C1858 C1862 1.531 . S
C1859 C1858 1.369 . S
C1859 C1860 1.410 . S
C1859 C1867 1.503 1_554 S
C1860 C1859 1.410 . S
C1860 C1861 1.392 . S
C1860 C1863 1.511 1_554 S
C1861 C1857 1.376 . S
C1861 C1860 1.392 . S
C1861 H1873 0.929 . S
C1862 C1858 1.531 . S
C1862 H1874 0.960 . S
C1862 H1875 0.962 . S
C1862 H1876 0.960 . S
C1863 C1860 1.511 1_556 S
C1863 H1877 0.961 . S
C1863 H1878 0.961 . S
C1863 H1879 0.961 . S
C1864 C1865 1.370 . S
C1864 C1866 1.363 . S
C1864 H1880 0.931 . S
C1865 C1864 1.370 . S
C1865 C1869 1.408 . S
C1866 C1864 1.363 . S
C1866 C1867 1.370 . S
C1866 C1870 1.524 . S
C1867 C1859 1.503 1_556 S
C1867 C1866 1.370 . S
C1867 C1868 1.403 . S
C1868 C1867 1.403 . S
C1868 C1869 1.404 . S
C1868 C1871 1.539 . S
C1869 C1865 1.408 . S
C1869 C1868 1.404 . S
C1869 H1881 0.930 . S
C1870 C1866 1.524 . S
C1870 H1882 0.956 1_556 S
C1870 H1883 0.975 . S
C1870 H1884 0.961 . S
C1871 C1868 1.539 . S
C1871 H1885 0.958 . S
C1871 H1886 0.961 . S
C1871 H1887 0.960 . S
H1872 C1856 0.931 . S
H1873 C1861 0.929 . S
H1874 C1862 0.960 . S
H1875 C1862 0.962 . S
H1876 C1862 0.960 . S
H1877 C1863 0.961 . S
H1878 C1863 0.961 . S
H1879 C1863 0.961 . S
H1880 C1864 0.931 . S
H1881 C1869 0.930 . S
H1882 C1870 0.956 1_554 S
H1883 C1870 0.975 . S
H1884 C1870 0.961 . S
H1885 C1871 0.958 . S
H1886 C1871 0.961 . S
H1887 C1871 0.960 . S
C1888 C1889 1.391 1_655 S
C1888 C1890 1.394 . S
C1888 H1904 0.931 . S
C1889 C1888 1.391 1_455 S
C1889 C1893 1.376 . S
C1890 C1888 1.394 . S
C1890 C1891 1.369 1_655 S
C1890 C1894 1.531 . S
C1891 C1890 1.369 1_455 S
C1891 C1892 1.410 . S
C1891 C1899 1.503 1_455 S
C1892 C1891 1.410 . S
C1892 C1893 1.392 . S
C1892 C1895 1.511 . S
C1893 C1889 1.376 . S
C1893 C1892 1.392 . S
C1893 H1905 0.929 . S
C1894 C1890 1.531 . S
C1894 H1906 0.960 . S
C1894 H1907 0.962 . S
C1894 H1908 0.960 . S
C1895 C1892 1.511 . S
C1895 H1909 0.961 . S
C1895 H1910 0.961 . S
C1895 H1911 0.961 . S
C1896 C1897 1.370 . S
C1896 C1898 1.363 . S
C1896 H1912 0.931 . S
C1897 C1896 1.370 . S
C1897 C1901 1.408 . S
C1898 C1896 1.363 . S
C1898 C1899 1.370 . S
C1898 C1902 1.524 1_655 S
C1899 C1891 1.503 1_655 S
C1899 C1898 1.370 . S
C1899 C1900 1.403 . S
C1900 C1899 1.403 . S
C1900 C1901 1.404 . S
C1900 C1903 1.539 . S
C1901 C1897 1.408 . S
C1901 C1900 1.404 . S
C1901 H1913 0.930 . S
C1902 C1898 1.524 1_455 S
C1902 H1914 0.956 1_455 S
C1902 H1915 0.961 . S
C1902 H1916 0.961 . S
C1903 C1900 1.539 . S
C1903 H1917 0.958 . S
C1903 H1918 0.961 . S
C1903 H1919 0.960 1_655 S
H1904 C1888 0.931 . S
H1905 C1893 0.929 . S
H1906 C1894 0.960 . S
H1907 C1894 0.962 . S
H1908 C1894 0.960 . S
H1909 C1895 0.961 . S
H1910 C1895 0.961 . S
H1911 C1895 0.961 . S
H1912 C1896 0.931 . S
H1913 C1901 0.930 . S
H1914 C1902 0.956 1_655 S
H1915 C1902 0.961 . S
H1916 C1902 0.961 . S
H1917 C1903 0.958 . S
H1918 C1903 0.961 . S
H1919 C1903 0.960 1_455 S
C1920 C1921 1.391 . S
C1920 C1922 1.394 1_455 S
C1920 H1936 0.931 1_455 S
C1921 C1920 1.391 . S
C1921 C1925 1.376 . S
C1922 C1920 1.394 1_655 S
C1922 C1923 1.369 1_655 S
C1922 C1926 1.531 . S
C1923 C1922 1.369 1_455 S
C1923 C1924 1.410 . S
C1923 C1931 1.503 1_454 S
C1924 C1923 1.410 . S
C1924 C1925 1.392 . S
C1924 C1927 1.511 1_554 S
C1925 C1921 1.376 . S
C1925 C1924 1.392 . S
C1925 H1937 0.929 . S
C1926 C1922 1.531 . S
C1926 H1938 0.960 . S
C1926 H1939 0.962 . S
C1926 H1940 0.960 . S
C1927 C1924 1.511 1_556 S
C1927 H1941 0.961 1_556 S
C1927 H1942 0.961 . S
C1927 H1943 0.961 . S
C1928 C1929 1.370 . S
C1928 C1930 1.363 . S
C1928 H1944 0.931 . S
C1929 C1928 1.370 . S
C1929 C1933 1.408 . S
C1930 C1928 1.363 . S
C1930 C1931 1.370 . S
C1930 C1934 1.524 1_556 S
C1931 C1923 1.503 1_656 S
C1931 C1930 1.370 . S
C1931 C1932 1.406 . S
C1932 C1931 1.406 . S
C1932 C1933 1.414 . S
C1932 C1935 1.524 1_655 S
C1933 C1929 1.408 . S
C1933 C1932 1.414 . S
C1933 H1945 0.930 . S
C1934 C1930 1.524 1_554 S
C1934 H1946 0.956 . S
C1934 H1947 0.961 . S
C1934 H1948 0.961 1_554 S
C1935 C1932 1.524 1_455 S
C1935 H1949 0.958 . S
C1935 H1950 0.961 . S
C1935 H1951 0.960 . S
H1936 C1920 0.931 1_655 S
H1937 C1925 0.929 . S
H1938 C1926 0.960 . S
H1939 C1926 0.962 . S
H1940 C1926 0.960 . S
H1941 C1927 0.961 1_554 S
H1942 C1927 0.961 . S
H1943 C1927 0.961 . S
H1944 C1928 0.931 . S
H1945 C1933 0.930 . S
H1946 C1934 0.956 . S
H1947 C1934 0.961 . S
H1948 C1934 0.961 1_556 S
H1949 C1935 0.958 . S
H1950 C1935 0.961 . S
H1951 C1935 0.960 . S
C1952 C1953 1.391 . S
C1952 C1954 1.394 . S
C1952 H1968 0.931 . S
C1953 C1952 1.391 . S
C1953 C1957 1.376 . S
C1954 C1952 1.394 . S
C1954 C1955 1.369 . S
C1954 C1958 1.531 . S
C1955 C1954 1.369 . S
C1955 C1956 1.410 . S
C1955 C1963 1.503 . S
C1956 C1955 1.410 . S
C1956 C1957 1.392 . S
C1956 C1959 1.511 . S
C1957 C1953 1.376 . S
C1957 C1956 1.392 . S
C1957 H1969 0.929 . S
C1958 C1954 1.531 . S
C1958 H1970 0.960 . S
C1958 H1971 0.962 . S
C1958 H1972 0.960 . S
C1959 C1956 1.511 . S
C1959 H1973 0.961 . S
C1959 H1974 0.961 . S
C1959 H1975 0.961 . S
C1960 C1961 1.370 . S
C1960 C1962 1.363 . S
C1960 H1976 0.931 . S
C1961 C1960 1.370 . S
C1961 C1965 1.408 . S
C1962 C1960 1.363 . S
C1962 C1963 1.370 . S
C1962 C1966 1.524 . S
C1963 C1955 1.503 . S
C1963 C1962 1.370 . S
C1963 C1964 1.403 . S
C1964 C1963 1.403 . S
C1964 C1965 1.404 . S
C1964 C1967 1.539 . S
C1965 C1961 1.408 . S
C1965 C1964 1.404 . S
C1965 H1977 0.930 . S
C1966 C1962 1.524 . S
C1966 H1978 0.956 . S
C1966 H1979 0.961 . S
C1966 H1980 0.961 . S
C1967 C1964 1.539 . S
C1967 H1981 0.958 . S
C1967 H1982 0.961 . S
C1967 H1983 0.960 . S
H1968 C1952 0.931 . S
H1969 C1957 0.929 . S
H1970 C1958 0.960 . S
H1971 C1958 0.962 . S
H1972 C1958 0.960 . S
H1973 C1959 0.961 . S
H1974 C1959 0.961 . S
H1975 C1959 0.961 . S
H1976 C1960 0.931 . S
H1977 C1965 0.930 . S
H1978 C1966 0.956 . S
H1979 C1966 0.961 . S
H1980 C1966 0.961 . S
H1981 C1967 0.958 . S
H1982 C1967 0.961 . S
H1983 C1967 0.960 . S
C1984 C1985 1.391 . S
C1984 C1986 1.394 . S
C1984 H2000 0.931 . S
C1985 C1984 1.391 . S
C1985 C1989 1.376 . S
C1986 C1984 1.394 . S
C1986 C1987 1.369 . S
C1986 C1990 1.531 . S
C1987 C1986 1.369 . S
C1987 C1988 1.410 . S
C1987 C1995 1.503 . S
C1988 C1987 1.410 . S
C1988 C1989 1.392 . S
C1988 C1991 1.511 . S
C1989 C1985 1.376 . S
C1989 C1988 1.392 . S
C1989 H2001 0.929 . S
C1990 C1986 1.531 . S
C1990 H2002 0.960 . S
C1990 H2003 0.962 . S
C1990 H2004 0.960 . S
C1991 C1988 1.511 . S
C1991 H2005 0.961 . S
C1991 H2006 0.961 . S
C1991 H2007 0.961 . S
C1992 C1993 1.370 . S
C1992 C1994 1.363 . S
C1992 H2008 0.931 . S
C1993 C1992 1.370 . S
C1993 C1997 1.408 . S
C1994 C1992 1.363 . S
C1994 C1995 1.370 . S
C1994 C1998 1.524 . S
C1995 C1987 1.503 . S
C1995 C1994 1.370 . S
C1995 C1996 1.403 . S
C1996 C1995 1.403 . S
C1996 C1997 1.404 . S
C1996 C1999 1.539 . S
C1997 C1993 1.408 . S
C1997 C1996 1.404 . S
C1997 H2009 0.930 . S
C1998 C1994 1.524 . S
C1998 H2010 0.956 . S
C1998 H2011 0.961 . S
C1998 H2012 0.961 . S
C1999 C1996 1.539 . S
C1999 H2013 0.958 . S
C1999 H2014 0.961 . S
C1999 H2015 0.960 . S
H2000 C1984 0.931 . S
H2001 C1989 0.929 . S
H2002 C1990 0.960 . S
H2003 C1990 0.962 . S
H2004 C1990 0.960 . S
H2005 C1991 0.961 . S
H2006 C1991 0.961 . S
H2007 C1991 0.961 . S
H2008 C1992 0.931 . S
H2009 C1997 0.930 . S
H2010 C1998 0.956 . S
H2011 C1998 0.961 . S
H2012 C1998 0.961 . S
H2013 C1999 0.958 . S
H2014 C1999 0.961 . S
H2015 C1999 0.960 . S
C2016 C2017 1.391 . S
C2016 C2018 1.394 . S
C2016 H2032 0.931 . S
C2017 C2016 1.391 . S
C2017 C2021 1.376 . S
C2018 C2016 1.394 . S
C2018 C2019 1.369 . S
C2018 C2022 1.531 . S
C2019 C2018 1.369 . S
C2019 C2020 1.410 . S
C2019 C2027 1.503 . S
C2020 C2019 1.410 . S
C2020 C2021 1.392 . S
C2020 C2023 1.511 . S
C2021 C2017 1.376 . S
C2021 C2020 1.392 . S
C2021 H2033 0.929 . S
C2022 C2018 1.531 . S
C2022 H2034 0.960 . S
C2022 H2035 0.962 . S
C2022 H2036 0.960 . S
C2023 C2020 1.511 . S
C2023 H2037 0.961 . S
C2023 H2038 0.961 . S
C2023 H2039 0.961 . S
C2024 C2025 1.370 . S
C2024 C2026 1.363 . S
C2024 H2040 0.931 . S
C2025 C2024 1.370 . S
C2025 C2029 1.408 . S
C2026 C2024 1.363 . S
C2026 C2027 1.370 . S
C2026 C2030 1.524 . S
C2027 C2019 1.503 . S
C2027 C2026 1.370 . S
C2027 C2028 1.403 . S
C2028 C2027 1.403 . S
C2028 C2029 1.404 . S
C2028 C2031 1.539 . S
C2029 C2025 1.408 . S
C2029 C2028 1.404 . S
C2029 H2041 0.930 . S
C2030 C2026 1.524 . S
C2030 H2042 0.956 . S
C2030 H2043 0.961 . S
C2030 H2044 0.961 . S
C2031 C2028 1.539 . S
C2031 H2045 0.958 . S
C2031 H2046 0.961 . S
C2031 H2047 0.960 . S
H2032 C2016 0.931 . S
H2033 C2021 0.929 . S
H2034 C2022 0.960 . S
H2035 C2022 0.962 . S
H2036 C2022 0.960 . S
H2037 C2023 0.961 . S
H2038 C2023 0.961 . S
H2039 C2023 0.961 . S
H2040 C2024 0.931 . S
H2041 C2029 0.930 . S
H2042 C2030 0.956 . S
H2043 C2030 0.961 . S
H2044 C2030 0.961 . S
H2045 C2031 0.958 . S
H2046 C2031 0.961 . S
H2047 C2031 0.960 . S
C2048 C2049 1.391 . S
C2048 C2050 1.394 . S
C2048 H2064 0.931 . S
C2049 C2048 1.391 . S
C2049 C2053 1.376 . S
C2050 C2048 1.394 . S
C2050 C2051 1.369 . S
C2050 C2054 1.531 . S
C2051 C2050 1.369 . S
C2051 C2052 1.410 . S
C2051 C2059 1.503 . S
C2052 C2051 1.410 . S
C2052 C2053 1.392 . S
C2052 C2055 1.511 . S
C2053 C2049 1.376 . S
C2053 C2052 1.392 . S
C2053 H2065 0.929 . S
C2054 C2050 1.531 . S
C2054 H2066 0.960 . S
C2054 H2067 0.962 . S
C2054 H2068 0.960 . S
C2055 C2052 1.511 . S
C2055 H2069 0.961 . S
C2055 H2070 0.961 . S
C2055 H2071 0.961 . S
C2056 C2057 1.370 . S
C2056 C2058 1.363 . S
C2056 H2072 0.931 . S
C2057 C2056 1.370 . S
C2057 C2061 1.408 . S
C2058 C2056 1.363 . S
C2058 C2059 1.370 . S
C2058 C2062 1.524 . S
C2059 C2051 1.503 . S
C2059 C2058 1.370 . S
C2059 C2060 1.403 . S
C2060 C2059 1.403 . S
C2060 C2061 1.404 . S
C2060 C2063 1.539 . S
C2061 C2057 1.408 . S
C2061 C2060 1.404 . S
C2061 H2073 0.930 . S
C2062 C2058 1.524 . S
C2062 H2074 0.956 . S
C2062 H2075 0.961 . S
C2062 H2076 0.961 . S
C2063 C2060 1.539 . S
C2063 H2077 0.958 . S
C2063 H2078 0.961 . S
C2063 H2079 0.960 . S
H2064 C2048 0.931 . S
H2065 C2053 0.929 . S
H2066 C2054 0.960 . S
H2067 C2054 0.962 . S
H2068 C2054 0.960 . S
H2069 C2055 0.961 . S
H2070 C2055 0.961 . S
H2071 C2055 0.961 . S
H2072 C2056 0.931 . S
H2073 C2061 0.930 . S
H2074 C2062 0.956 . S
H2075 C2062 0.961 . S
H2076 C2062 0.961 . S
H2077 C2063 0.958 . S
H2078 C2063 0.961 . S
H2079 C2063 0.960 . S
C2080 C2081 1.391 . S
C2080 C2082 1.394 . S
C2080 H2096 0.931 . S
C2081 C2080 1.391 . S
C2081 C2085 1.376 . S
C2082 C2080 1.394 . S
C2082 C2083 1.369 . S
C2082 C2086 1.531 . S
C2083 C2082 1.369 . S
C2083 C2084 1.410 . S
C2083 C2091 1.503 . S
C2084 C2083 1.410 . S
C2084 C2085 1.392 . S
C2084 C2087 1.511 . S
C2085 C2081 1.376 . S
C2085 C2084 1.392 . S
C2085 H2097 0.929 . S
C2086 C2082 1.531 . S
C2086 H2098 0.960 . S
C2086 H2099 0.962 . S
C2086 H2100 0.960 . S
C2087 C2084 1.511 . S
C2087 H2101 0.961 . S
C2087 H2102 0.961 . S
C2087 H2103 0.961 . S
C2088 C2089 1.370 . S
C2088 C2090 1.363 . S
C2088 H2104 0.931 . S
C2089 C2088 1.370 . S
C2089 C2093 1.408 . S
C2090 C2088 1.363 . S
C2090 C2091 1.370 . S
C2090 C2094 1.524 . S
C2091 C2083 1.503 . S
C2091 C2090 1.370 . S
C2091 C2092 1.403 . S
C2092 C2091 1.403 . S
C2092 C2093 1.404 . S
C2092 C2095 1.539 . S
C2093 C2089 1.408 . S
C2093 C2092 1.404 . S
C2093 H2105 0.930 . S
C2094 C2090 1.524 . S
C2094 H2106 0.956 . S
C2094 H2107 0.961 . S
C2094 H2108 0.961 . S
C2095 C2092 1.539 . S
C2095 H2109 0.958 . S
C2095 H2110 0.961 . S
C2095 H2111 0.960 . S
H2096 C2080 0.931 . S
H2097 C2085 0.929 . S
H2098 C2086 0.960 . S
H2099 C2086 0.962 . S
H2100 C2086 0.960 . S
H2101 C2087 0.961 . S
H2102 C2087 0.961 . S
H2103 C2087 0.961 . S
H2104 C2088 0.931 . S
H2105 C2093 0.930 . S
H2106 C2094 0.956 . S
H2107 C2094 0.961 . S
H2108 C2094 0.961 . S
H2109 C2095 0.958 . S
H2110 C2095 0.961 . S
H2111 C2095 0.960 . S
C2112 C2113 1.391 . S
C2112 C2114 1.394 . S
C2112 H2128 0.931 . S
C2113 C2112 1.391 . S
C2113 C2117 1.376 . S
C2114 C2112 1.394 . S
C2114 C2115 1.369 . S
C2114 C2118 1.531 . S
C2115 C2114 1.369 . S
C2115 C2116 1.410 . S
C2115 C2123 1.503 . S
C2116 C2115 1.410 . S
C2116 C2117 1.392 . S
C2116 C2119 1.511 . S
C2117 C2113 1.376 . S
C2117 C2116 1.392 . S
C2117 H2129 0.929 . S
C2118 C2114 1.531 . S
C2118 H2130 0.960 . S
C2118 H2131 0.962 . S
C2118 H2132 0.960 . S
C2119 C2116 1.511 . S
C2119 H2133 0.961 . S
C2119 H2134 0.961 . S
C2119 H2135 0.961 . S
C2120 C2121 1.370 . S
C2120 C2122 1.363 . S
C2120 H2136 0.931 . S
C2121 C2120 1.370 . S
C2121 C2125 1.408 . S
C2122 C2120 1.363 . S
C2122 C2123 1.370 . S
C2122 C2126 1.524 . S
C2123 C2115 1.503 . S
C2123 C2122 1.370 . S
C2123 C2124 1.403 . S
C2124 C2123 1.403 . S
C2124 C2125 1.404 . S
C2124 C2127 1.539 . S
C2125 C2121 1.408 . S
C2125 C2124 1.404 . S
C2125 H2137 0.930 . S
C2126 C2122 1.524 . S
C2126 H2138 0.956 . S
C2126 H2139 0.961 . S
C2126 H2140 0.961 . S
C2127 C2124 1.539 . S
C2127 H2141 0.958 . S
C2127 H2142 0.961 . S
C2127 H2143 0.960 . S
H2128 C2112 0.931 . S
H2129 C2117 0.929 . S
H2130 C2118 0.960 . S
H2131 C2118 0.962 . S
H2132 C2118 0.960 . S
H2133 C2119 0.961 . S
H2134 C2119 0.961 . S
H2135 C2119 0.961 . S
H2136 C2120 0.931 . S
H2137 C2125 0.930 . S
H2138 C2126 0.956 . S
H2139 C2126 0.961 . S
H2140 C2126 0.961 . S
H2141 C2127 0.958 . S
H2142 C2127 0.961 . S
H2143 C2127 0.960 . S
C2144 C2145 1.391 . S
C2144 C2146 1.394 . S
C2144 H2160 0.931 . S
C2145 C2144 1.391 . S
C2145 C2149 1.376 . S
C2146 C2144 1.394 . S
C2146 C2147 1.369 . S
C2146 C2150 1.531 . S
C2147 C2146 1.369 . S
C2147 C2148 1.410 . S
C2147 C2155 1.503 . S
C2148 C2147 1.410 . S
C2148 C2149 1.392 . S
C2148 C2151 1.511 . S
C2149 C2145 1.376 . S
C2149 C2148 1.392 . S
C2149 H2161 0.929 . S
C2150 C2146 1.531 . S
C2150 H2162 0.960 . S
C2150 H2163 0.962 . S
C2150 H2164 0.960 . S
C2151 C2148 1.511 . S
C2151 H2165 0.961 . S
C2151 H2166 0.961 . S
C2151 H2167 0.961 . S
C2152 C2153 1.370 . S
C2152 C2154 1.363 . S
C2152 H2168 0.931 . S
C2153 C2152 1.370 . S
C2153 C2157 1.408 . S
C2154 C2152 1.363 . S
C2154 C2155 1.370 . S
C2154 C2158 1.524 . S
C2155 C2147 1.503 . S
C2155 C2154 1.370 . S
C2155 C2156 1.403 . S
C2156 C2155 1.403 . S
C2156 C2157 1.404 . S
C2156 C2159 1.539 . S
C2157 C2153 1.408 . S
C2157 C2156 1.404 . S
C2157 H2169 0.930 . S
C2158 C2154 1.524 . S
C2158 H2170 0.956 . S
C2158 H2171 0.961 . S
C2158 H2172 0.961 . S
C2159 C2156 1.539 . S
C2159 H2173 0.958 . S
C2159 H2174 0.961 . S
C2159 H2175 0.960 . S
H2160 C2144 0.931 . S
H2161 C2149 0.929 . S
H2162 C2150 0.960 . S
H2163 C2150 0.962 . S
H2164 C2150 0.960 . S
H2165 C2151 0.961 . S
H2166 C2151 0.961 . S
H2167 C2151 0.961 . S
H2168 C2152 0.931 . S
H2169 C2157 0.930 . S
H2170 C2158 0.956 . S
H2171 C2158 0.961 . S
H2172 C2158 0.961 . S
H2173 C2159 0.958 . S
H2174 C2159 0.961 . S
H2175 C2159 0.960 . S
C2176 C2177 1.391 . S
C2176 C2178 1.394 . S
C2176 H2192 0.931 . S
C2177 C2176 1.391 . S
C2177 C2181 1.376 . S
C2178 C2176 1.394 . S
C2178 C2179 1.369 . S
C2178 C2182 1.531 . S
C2179 C2178 1.369 . S
C2179 C2180 1.410 . S
C2179 C2187 1.503 . S
C2180 C2179 1.410 . S
C2180 C2181 1.392 . S
C2180 C2183 1.511 . S
C2181 C2177 1.376 . S
C2181 C2180 1.392 . S
C2181 H2193 0.929 . S
C2182 C2178 1.531 . S
C2182 H2194 0.960 . S
C2182 H2195 0.962 . S
C2182 H2196 0.960 . S
C2183 C2180 1.511 . S
C2183 H2197 0.961 . S
C2183 H2198 0.961 . S
C2183 H2199 0.961 . S
C2184 C2185 1.370 . S
C2184 C2186 1.363 . S
C2184 H2200 0.931 . S
C2185 C2184 1.370 . S
C2185 C2189 1.408 . S
C2186 C2184 1.363 . S
C2186 C2187 1.370 . S
C2186 C2190 1.524 . S
C2187 C2179 1.503 . S
C2187 C2186 1.370 . S
C2187 C2188 1.403 . S
C2188 C2187 1.403 . S
C2188 C2189 1.404 . S
C2188 C2191 1.539 . S
C2189 C2185 1.408 . S
C2189 C2188 1.404 . S
C2189 H2201 0.930 . S
C2190 C2186 1.524 . S
C2190 H2202 0.956 . S
C2190 H2203 0.961 . S
C2190 H2204 0.961 . S
C2191 C2188 1.539 . S
C2191 H2205 0.958 . S
C2191 H2206 0.961 . S
C2191 H2207 0.960 . S
H2192 C2176 0.931 . S
H2193 C2181 0.929 . S
H2194 C2182 0.960 . S
H2195 C2182 0.962 . S
H2196 C2182 0.960 . S
H2197 C2183 0.961 . S
H2198 C2183 0.961 . S
H2199 C2183 0.961 . S
H2200 C2184 0.931 . S
H2201 C2189 0.930 . S
H2202 C2190 0.956 . S
H2203 C2190 0.961 . S
H2204 C2190 0.961 . S
H2205 C2191 0.958 . S
H2206 C2191 0.961 . S
H2207 C2191 0.960 . S
C2208 C2209 1.391 . S
C2208 C2210 1.394 . S
C2208 H2224 0.931 . S
C2209 C2208 1.391 . S
C2209 C2213 1.376 . S
C2210 C2208 1.394 . S
C2210 C2211 1.369 . S
C2210 C2214 1.531 . S
C2211 C2210 1.369 . S
C2211 C2212 1.410 . S
C2211 C2219 1.503 . S
C2212 C2211 1.410 . S
C2212 C2213 1.392 . S
C2212 C2215 1.511 . S
C2213 C2209 1.376 . S
C2213 C2212 1.392 . S
C2213 H2225 0.929 . S
C2214 C2210 1.531 . S
C2214 H2226 0.960 . S
C2214 H2227 0.962 . S
C2214 H2228 0.960 . S
C2215 C2212 1.511 . S
C2215 H2229 0.961 . S
C2215 H2230 0.961 . S
C2215 H2231 0.961 . S
C2216 C2217 1.370 . S
C2216 C2218 1.363 . S
C2216 H2232 0.931 . S
C2217 C2216 1.370 . S
C2217 C2221 1.408 . S
C2218 C2216 1.363 . S
C2218 C2219 1.370 . S
C2218 C2222 1.524 . S
C2219 C2211 1.503 . S
C2219 C2218 1.370 . S
C2219 C2220 1.403 . S
C2220 C2219 1.403 . S
C2220 C2221 1.404 . S
C2220 C2223 1.539 . S
C2221 C2217 1.408 . S
C2221 C2220 1.404 . S
C2221 H2233 0.930 . S
C2222 C2218 1.524 . S
C2222 H2234 0.956 . S
C2222 H2235 0.961 . S
C2222 H2236 0.961 . S
C2223 C2220 1.539 . S
C2223 H2237 0.958 . S
C2223 H2238 0.961 . S
C2223 H2239 0.960 . S
H2224 C2208 0.931 . S
H2225 C2213 0.929 . S
H2226 C2214 0.960 . S
H2227 C2214 0.962 . S
H2228 C2214 0.960 . S
H2229 C2215 0.961 . S
H2230 C2215 0.961 . S
H2231 C2215 0.961 . S
H2232 C2216 0.931 . S
H2233 C2221 0.930 . S
H2234 C2222 0.956 . S
H2235 C2222 0.961 . S
H2236 C2222 0.961 . S
H2237 C2223 0.958 . S
H2238 C2223 0.961 . S
H2239 C2223 0.960 . S
C2240 C2241 1.391 . S
C2240 C2242 1.394 . S
C2240 H2256 0.931 . S
C2241 C2240 1.391 . S
C2241 C2245 1.376 . S
C2242 C2240 1.394 . S
C2242 C2243 1.369 . S
C2242 C2246 1.531 . S
C2243 C2242 1.369 . S
C2243 C2244 1.410 . S
C2243 C2251 1.503 . S
C2244 C2243 1.410 . S
C2244 C2245 1.392 . S
C2244 C2247 1.511 . S
C2245 C2241 1.376 . S
C2245 C2244 1.392 . S
C2245 H2257 0.929 . S
C2246 C2242 1.531 . S
C2246 H2258 0.960 . S
C2246 H2259 0.962 . S
C2246 H2260 0.960 . S
C2247 C2244 1.511 . S
C2247 H2261 0.961 . S
C2247 H2262 0.961 . S
C2247 H2263 0.961 . S
C2248 C2249 1.370 . S
C2248 C2250 1.363 . S
C2248 H2264 0.931 . S
C2249 C2248 1.370 . S
C2249 C2253 1.408 . S
C2250 C2248 1.363 . S
C2250 C2251 1.370 . S
C2250 C2254 1.524 . S
C2251 C2243 1.503 . S
C2251 C2250 1.370 . S
C2251 C2252 1.403 . S
C2252 C2251 1.403 . S
C2252 C2253 1.404 . S
C2252 C2255 1.539 . S
C2253 C2249 1.408 . S
C2253 C2252 1.404 . S
C2253 H2265 0.930 . S
C2254 C2250 1.524 . S
C2254 H2266 0.956 . S
C2254 H2267 0.961 . S
C2254 H2268 0.961 . S
C2255 C2252 1.539 . S
C2255 H2269 0.958 . S
C2255 H2270 0.961 . S
C2255 H2271 0.960 . S
H2256 C2240 0.931 . S
H2257 C2245 0.929 . S
H2258 C2246 0.960 . S
H2259 C2246 0.962 . S
H2260 C2246 0.960 . S
H2261 C2247 0.961 . S
H2262 C2247 0.961 . S
H2263 C2247 0.961 . S
H2264 C2248 0.931 . S
H2265 C2253 0.930 . S
H2266 C2254 0.956 . S
H2267 C2254 0.961 . S
H2268 C2254 0.961 . S
H2269 C2255 0.958 . S
H2270 C2255 0.961 . S
H2271 C2255 0.960 . S
C2272 C2273 1.391 . S
C2272 C2274 1.394 . S
C2272 H2288 0.931 . S
C2273 C2272 1.391 . S
C2273 C2277 1.376 . S
C2274 C2272 1.394 . S
C2274 C2275 1.369 . S
C2274 C2278 1.531 . S
C2275 C2274 1.369 . S
C2275 C2276 1.410 . S
C2275 C2283 1.503 . S
C2276 C2275 1.410 . S
C2276 C2277 1.392 . S
C2276 C2279 1.511 . S
C2277 C2273 1.376 . S
C2277 C2276 1.392 . S
C2277 H2289 0.929 . S
C2278 C2274 1.531 . S
C2278 H2290 0.960 . S
C2278 H2291 0.962 . S
C2278 H2292 0.960 . S
C2279 C2276 1.511 . S
C2279 H2293 0.961 . S
C2279 H2294 0.961 . S
C2279 H2295 0.961 . S
C2280 C2281 1.370 . S
C2280 C2282 1.363 . S
C2280 H2296 0.931 . S
C2281 C2280 1.370 . S
C2281 C2285 1.408 . S
C2282 C2280 1.363 . S
C2282 C2283 1.370 . S
C2282 C2286 1.524 . S
C2283 C2275 1.503 . S
C2283 C2282 1.370 . S
C2283 C2284 1.403 . S
C2284 C2283 1.403 . S
C2284 C2285 1.404 . S
C2284 C2287 1.539 . S
C2285 C2281 1.408 . S
C2285 C2284 1.404 . S
C2285 H2297 0.930 . S
C2286 C2282 1.524 . S
C2286 H2298 0.956 . S
C2286 H2299 0.961 . S
C2286 H2300 0.961 . S
C2287 C2284 1.539 . S
C2287 H2301 0.958 . S
C2287 H2302 0.961 . S
C2287 H2303 0.960 . S
H2288 C2272 0.931 . S
H2289 C2277 0.929 . S
H2290 C2278 0.960 . S
H2291 C2278 0.962 . S
H2292 C2278 0.960 . S
H2293 C2279 0.961 . S
H2294 C2279 0.961 . S
H2295 C2279 0.961 . S
H2296 C2280 0.931 . S
H2297 C2285 0.930 . S
H2298 C2286 0.956 . S
H2299 C2286 0.961 . S
H2300 C2286 0.961 . S
H2301 C2287 0.958 . S
H2302 C2287 0.961 . S
H2303 C2287 0.960 . S
C2304 C2305 1.391 . S
C2304 C2306 1.394 . S
C2304 H2320 0.931 . S
C2305 C2304 1.391 . S
C2305 C2309 1.376 . S
C2306 C2304 1.394 . S
C2306 C2307 1.369 . S
C2306 C2310 1.531 . S
C2307 C2306 1.369 . S
C2307 C2308 1.410 . S
C2307 C2315 1.503 . S
C2308 C2307 1.410 . S
C2308 C2309 1.392 . S
C2308 C2311 1.511 . S
C2309 C2305 1.376 . S
C2309 C2308 1.392 . S
C2309 H2321 0.929 . S
C2310 C2306 1.531 . S
C2310 H2322 0.960 . S
C2310 H2323 0.962 . S
C2310 H2324 0.960 . S
C2311 C2308 1.511 . S
C2311 H2325 0.961 . S
C2311 H2326 0.961 . S
C2311 H2327 0.961 . S
C2312 C2313 1.370 . S
C2312 C2314 1.363 . S
C2312 H2328 0.931 . S
C2313 C2312 1.370 . S
C2313 C2317 1.408 . S
C2314 C2312 1.363 . S
C2314 C2315 1.370 . S
C2314 C2318 1.524 . S
C2315 C2307 1.503 . S
C2315 C2314 1.370 . S
C2315 C2316 1.403 . S
C2316 C2315 1.403 . S
C2316 C2317 1.404 . S
C2316 C2319 1.539 . S
C2317 C2313 1.408 . S
C2317 C2316 1.404 . S
C2317 H2329 0.930 . S
C2318 C2314 1.524 . S
C2318 H2330 0.956 . S
C2318 H2331 0.961 . S
C2318 H2332 0.961 . S
C2319 C2316 1.539 . S
C2319 H2333 0.958 . S
C2319 H2334 0.961 . S
C2319 H2335 0.960 . S
H2320 C2304 0.931 . S
H2321 C2309 0.929 . S
H2322 C2310 0.960 . S
H2323 C2310 0.962 . S
H2324 C2310 0.960 . S
H2325 C2311 0.961 . S
H2326 C2311 0.961 . S
H2327 C2311 0.961 . S
H2328 C2312 0.931 . S
H2329 C2317 0.930 . S
H2330 C2318 0.956 . S
H2331 C2318 0.961 . S
H2332 C2318 0.961 . S
H2333 C2319 0.958 . S
H2334 C2319 0.961 . S
H2335 C2319 0.960 . S
C2336 C2337 1.391 . S
C2336 C2338 1.394 . S
C2336 H2352 0.931 . S
C2337 C2336 1.391 . S
C2337 C2341 1.376 . S
C2338 C2336 1.394 . S
C2338 C2339 1.369 . S
C2338 C2342 1.531 . S
C2339 C2338 1.369 . S
C2339 C2340 1.410 . S
C2339 C2347 1.503 . S
C2340 C2339 1.410 . S
C2340 C2341 1.392 . S
C2340 C2343 1.511 . S
C2341 C2337 1.376 . S
C2341 C2340 1.392 . S
C2341 H2353 0.929 . S
C2342 C2338 1.531 . S
C2342 H2354 0.960 . S
C2342 H2355 0.962 . S
C2342 H2356 0.960 . S
C2343 C2340 1.511 . S
C2343 H2357 0.961 . S
C2343 H2358 0.961 . S
C2343 H2359 0.961 . S
C2344 C2345 1.370 . S
C2344 C2346 1.363 . S
C2344 H2360 0.931 . S
C2345 C2344 1.370 . S
C2345 C2349 1.408 . S
C2346 C2344 1.363 . S
C2346 C2347 1.370 . S
C2346 C2350 1.524 . S
C2347 C2339 1.503 . S
C2347 C2346 1.370 . S
C2347 C2348 1.403 . S
C2348 C2347 1.403 . S
C2348 C2349 1.404 . S
C2348 C2351 1.539 . S
C2349 C2345 1.408 . S
C2349 C2348 1.404 . S
C2349 H2361 0.930 . S
C2350 C2346 1.524 . S
C2350 H2362 0.956 . S
C2350 H2363 0.961 . S
C2350 H2364 0.961 . S
C2351 C2348 1.539 . S
C2351 H2365 0.958 . S
C2351 H2366 0.961 . S
C2351 H2367 0.960 . S
H2352 C2336 0.931 . S
H2353 C2341 0.929 . S
H2354 C2342 0.960 . S
H2355 C2342 0.962 . S
H2356 C2342 0.960 . S
H2357 C2343 0.961 . S
H2358 C2343 0.961 . S
H2359 C2343 0.961 . S
H2360 C2344 0.931 . S
H2361 C2349 0.930 . S
H2362 C2350 0.956 . S
H2363 C2350 0.961 . S
H2364 C2350 0.961 . S
H2365 C2351 0.958 . S
H2366 C2351 0.961 . S
H2367 C2351 0.960 . S
C2368 C2369 1.391 . S
C2368 C2370 1.394 . S
C2368 H2384 0.931 . S
C2369 C2368 1.391 . S
C2369 C2373 1.376 . S
C2370 C2368 1.394 . S
C2370 C2371 1.369 . S
C2370 C2374 1.531 . S
C2371 C2370 1.369 . S
C2371 C2372 1.410 . S
C2371 C2379 1.503 . S
C2372 C2371 1.410 . S
C2372 C2373 1.392 . S
C2372 C2375 1.511 . S
C2373 C2369 1.376 . S
C2373 C2372 1.392 . S
C2373 H2385 0.929 . S
C2374 C2370 1.531 . S
C2374 H2386 0.960 . S
C2374 H2387 0.962 . S
C2374 H2388 0.960 . S
C2375 C2372 1.511 . S
C2375 H2389 0.961 . S
C2375 H2390 0.961 . S
C2375 H2391 0.961 . S
C2376 C2377 1.370 . S
C2376 C2378 1.363 . S
C2376 H2392 0.931 . S
C2377 C2376 1.370 . S
C2377 C2381 1.408 . S
C2378 C2376 1.363 . S
C2378 C2379 1.370 . S
C2378 C2382 1.524 . S
C2379 C2371 1.503 . S
C2379 C2378 1.370 . S
C2379 C2380 1.403 . S
C2380 C2379 1.403 . S
C2380 C2381 1.404 . S
C2380 C2383 1.539 . S
C2381 C2377 1.408 . S
C2381 C2380 1.404 . S
C2381 H2393 0.930 . S
C2382 C2378 1.524 . S
C2382 H2394 0.956 . S
C2382 H2395 0.961 . S
C2382 H2396 0.961 . S
C2383 C2380 1.539 . S
C2383 H2397 0.958 . S
C2383 H2398 0.961 . S
C2383 H2399 0.960 . S
H2384 C2368 0.931 . S
H2385 C2373 0.929 . S
H2386 C2374 0.960 . S
H2387 C2374 0.962 . S
H2388 C2374 0.960 . S
H2389 C2375 0.961 . S
H2390 C2375 0.961 . S
H2391 C2375 0.961 . S
H2392 C2376 0.931 . S
H2393 C2381 0.930 . S
H2394 C2382 0.956 . S
H2395 C2382 0.961 . S
H2396 C2382 0.961 . S
H2397 C2383 0.958 . S
H2398 C2383 0.961 . S
H2399 C2383 0.960 . S
C2400 C2401 1.391 . S
C2400 C2402 1.394 . S
C2400 H2416 0.931 . S
C2401 C2400 1.391 . S
C2401 C2405 1.376 . S
C2402 C2400 1.394 . S
C2402 C2403 1.369 . S
C2402 C2406 1.531 . S
C2403 C2402 1.369 . S
C2403 C2404 1.410 . S
C2403 C2411 1.503 . S
C2404 C2403 1.410 . S
C2404 C2405 1.392 . S
C2404 C2407 1.511 . S
C2405 C2401 1.376 . S
C2405 C2404 1.392 . S
C2405 H2417 0.929 . S
C2406 C2402 1.531 . S
C2406 H2418 0.960 . S
C2406 H2419 0.962 . S
C2406 H2420 0.960 . S
C2407 C2404 1.511 . S
C2407 H2421 0.961 . S
C2407 H2422 0.961 . S
C2407 H2423 0.961 . S
C2408 C2409 1.370 . S
C2408 C2410 1.363 . S
C2408 H2424 0.931 . S
C2409 C2408 1.370 . S
C2409 C2413 1.408 . S
C2410 C2408 1.363 . S
C2410 C2411 1.370 . S
C2410 C2414 1.524 . S
C2411 C2403 1.503 . S
C2411 C2410 1.370 . S
C2411 C2412 1.403 . S
C2412 C2411 1.403 . S
C2412 C2413 1.404 . S
C2412 C2415 1.539 . S
C2413 C2409 1.408 . S
C2413 C2412 1.404 . S
C2413 H2425 0.930 . S
C2414 C2410 1.524 . S
C2414 H2426 0.956 . S
C2414 H2427 0.961 . S
C2414 H2428 0.961 . S
C2415 C2412 1.539 . S
C2415 H2429 0.958 . S
C2415 H2430 0.961 . S
C2415 H2431 0.960 . S
H2416 C2400 0.931 . S
H2417 C2405 0.929 . S
H2418 C2406 0.960 . S
H2419 C2406 0.962 . S
H2420 C2406 0.960 . S
H2421 C2407 0.961 . S
H2422 C2407 0.961 . S
H2423 C2407 0.961 . S
H2424 C2408 0.931 . S
H2425 C2413 0.930 . S
H2426 C2414 0.956 . S
H2427 C2414 0.961 . S
H2428 C2414 0.961 . S
H2429 C2415 0.958 . S
H2430 C2415 0.961 . S
H2431 C2415 0.960 . S
C2432 C2433 1.391 . S
C2432 C2434 1.394 . S
C2432 H2448 0.931 . S
C2433 C2432 1.391 . S
C2433 C2437 1.376 . S
C2434 C2432 1.394 . S
C2434 C2435 1.369 . S
C2434 C2438 1.531 . S
C2435 C2434 1.369 . S
C2435 C2436 1.410 . S
C2435 C2443 1.503 . S
C2436 C2435 1.410 . S
C2436 C2437 1.392 . S
C2436 C2439 1.511 . S
C2437 C2433 1.376 . S
C2437 C2436 1.392 . S
C2437 H2449 0.929 . S
C2438 C2434 1.531 . S
C2438 H2450 0.960 . S
C2438 H2451 0.962 . S
C2438 H2452 0.960 . S
C2439 C2436 1.511 . S
C2439 H2453 0.961 . S
C2439 H2454 0.961 . S
C2439 H2455 0.961 . S
C2440 C2441 1.370 . S
C2440 C2442 1.363 . S
C2440 H2456 0.931 . S
C2441 C2440 1.370 . S
C2441 C2445 1.408 . S
C2442 C2440 1.363 . S
C2442 C2443 1.370 . S
C2442 C2446 1.524 . S
C2443 C2435 1.503 . S
C2443 C2442 1.370 . S
C2443 C2444 1.403 . S
C2444 C2443 1.403 . S
C2444 C2445 1.404 . S
C2444 C2447 1.539 . S
C2445 C2441 1.408 . S
C2445 C2444 1.404 . S
C2445 H2457 0.930 . S
C2446 C2442 1.524 . S
C2446 H2458 0.956 . S
C2446 H2459 0.961 . S
C2446 H2460 0.961 . S
C2447 C2444 1.539 . S
C2447 H2461 0.958 . S
C2447 H2462 0.961 . S
C2447 H2463 0.960 . S
H2448 C2432 0.931 . S
H2449 C2437 0.929 . S
H2450 C2438 0.960 . S
H2451 C2438 0.962 . S
H2452 C2438 0.960 . S
H2453 C2439 0.961 . S
H2454 C2439 0.961 . S
H2455 C2439 0.961 . S
H2456 C2440 0.931 . S
H2457 C2445 0.930 . S
H2458 C2446 0.956 . S
H2459 C2446 0.961 . S
H2460 C2446 0.961 . S
H2461 C2447 0.958 . S
H2462 C2447 0.961 . S
H2463 C2447 0.960 . S
C2464 C2465 1.391 . S
C2464 C2466 1.394 . S
C2464 H2480 0.931 . S
C2465 C2464 1.391 . S
C2465 C2469 1.376 . S
C2466 C2464 1.394 . S
C2466 C2467 1.369 . S
C2466 C2470 1.531 . S
C2467 C2466 1.369 . S
C2467 C2468 1.410 . S
C2467 C2475 1.503 . S
C2468 C2467 1.410 . S
C2468 C2469 1.392 . S
C2468 C2471 1.511 . S
C2469 C2465 1.376 . S
C2469 C2468 1.392 . S
C2469 H2481 0.929 . S
C2470 C2466 1.531 . S
C2470 H2482 0.960 . S
C2470 H2483 0.962 . S
C2470 H2484 0.960 . S
C2471 C2468 1.511 . S
C2471 H2485 0.961 . S
C2471 H2486 0.961 . S
C2471 H2487 0.961 . S
C2472 C2473 1.370 . S
C2472 C2474 1.363 . S
C2472 H2488 0.931 . S
C2473 C2472 1.370 . S
C2473 C2477 1.408 . S
C2474 C2472 1.363 . S
C2474 C2475 1.370 . S
C2474 C2478 1.524 . S
C2475 C2467 1.503 . S
C2475 C2474 1.370 . S
C2475 C2476 1.403 . S
C2476 C2475 1.403 . S
C2476 C2477 1.404 . S
C2476 C2479 1.539 . S
C2477 C2473 1.408 . S
C2477 C2476 1.404 . S
C2477 H2489 0.930 . S
C2478 C2474 1.524 . S
C2478 H2490 0.956 . S
C2478 H2491 0.961 . S
C2478 H2492 0.961 . S
C2479 C2476 1.539 . S
C2479 H2493 0.958 . S
C2479 H2494 0.961 . S
C2479 H2495 0.960 . S
H2480 C2464 0.931 . S
H2481 C2469 0.929 . S
H2482 C2470 0.960 . S
H2483 C2470 0.962 . S
H2484 C2470 0.960 . S
H2485 C2471 0.961 . S
H2486 C2471 0.961 . S
H2487 C2471 0.961 . S
H2488 C2472 0.931 . S
H2489 C2477 0.930 . S
H2490 C2478 0.956 . S
H2491 C2478 0.961 . S
H2492 C2478 0.961 . S
H2493 C2479 0.958 . S
H2494 C2479 0.961 . S
H2495 C2479 0.960 . S
C449 C385 1.308 . S
C457 C9 1.304 . S
C481 C23 1.235 1_655 S
C489 C119 1.295 . S
C513 C357 1.280 . S
C521 C37 1.299 . S
C545 C51 1.319 . S
C553 C147 1.300 . S
C577 C65 1.257 . S
C585 C413 1.296 . S
C609 C79 1.256 . S
C617 C203 1.292 . S
C641 C93 1.268 . S
C649 C441 1.286 . S
C673 C107 1.285 1_655 S
C681 C175 1.309 . S
C705 C273 1.312 . S
C713 C121 1.281 . S
C737 C7 1.280 . S
C745 C135 1.281 1_455 S
C769 C245 1.304 . S
C777 C149 1.279 . S
C801 C163 1.310 . S
C809 C35 1.307 . S
C833 C301 1.318 . S
C841 C177 1.300 . S
C865 C91 1.295 . S
C873 C191 1.304 . S
C897 C205 1.316 . S
C905 C329 1.293 . S
C929 C63 1.292 . S
C937 C219 1.257 1_455 S
C961 C233 1.257 . S
C969 C161 1.296 . S
C993 C247 1.308 . S
C1001 C343 1.309 . S
C1025 C133 1.265 . S
C1033 C261 1.287 . S
C1057 C371 1.271 . S
C1065 C275 1.258 1_455 S
C1089 C189 1.266 . S
C1097 C289 1.289 . S
C1121 C427 1.321 . S
C1129 C303 1.270 1_455 S
C1153 C217 1.319 . S
C1161 C317 1.289 . S
C1185 C331 1.279 . S
C1193 C399 1.285 . S
C1217 C49 1.289 . S
C1225 C345 1.304 . S
C1249 C359 1.319 . S
C1257 C231 1.296 . S
C1281 C373 1.301 . S
C1289 C21 1.309 . S
C1313 C387 1.289 1_655 S
C1321 C259 1.289 . S
C1345 C401 1.310 . S
C1353 C77 1.290 . S
C1377 C415 1.244 1_655 S
C1385 C315 1.289 . S
C1409 C429 1.291 . S
C1417 C105 1.286 . S
C1441 C443 1.318 . S
C1449 C287 1.303 . S
C1473 C339 1.520 . S
C1481 C3 1.516 . S
C1505 C17 1.519 . S
C1513 C129 1.516 . S
C1537 C367 1.510 . S
C1545 C31 1.520 . S
C1569 C45 1.513 . S
C1577 C157 1.520 . S
C1601 C395 1.517 . S
C1609 C59 1.518 . S
C1633 C73 1.519 . S
C1641 C185 1.517 . S
C1665 C423 1.519 . S
C1673 C87 1.516 . S
C1697 C101 1.508 . S
C1705 C213 1.521 . S
C1729 C115 1.521 . S
C1737 C227 1.516 . S
C1761 C143 1.518 . S
C1769 C255 1.518 . S
C1793 C171 1.508 . S
C1801 C283 1.521 . S
C1825 C199 1.509 . S
C1833 C311 1.520 . S
C1857 C241 1.519 . S
C1865 C353 1.517 . S
C1889 C381 1.513 . S
C1897 C269 1.519 . S
C1921 C409 1.516 . S
C1929 C297 1.518 . S
C1953 C325 1.518 . S
C1961 C437 1.517 . S
C1985 C8 1.472 . S
C1993 C78 1.472 . S
C2017 C22 1.467 . S
C2025 C92 1.473 . S
C2049 C36 1.468 . S
C2057 C106 1.474 . S
C2081 C64 1.472 . S
C2089 C50 1.472 . S
C2113 C120 1.470 . S
C2121 C190 1.474 . S
C2145 C134 1.466 . S
C2153 C204 1.473 . S
C2177 C148 1.466 . S
C2185 C218 1.474 . S
C2209 C162 1.466 . S
C2217 C176 1.474 . S
C2241 C232 1.466 . S
C2249 C302 1.474 . S
C2273 C316 1.466 . S
C2281 C246 1.473 . S
C2305 C260 1.471 . S
C2313 C330 1.472 . S
C2337 C274 1.466 . S
C2345 C288 1.474 . S
C2369 C414 1.466 . S
C2377 C344 1.474 . S
C2401 C358 1.472 . S
C2409 C428 1.472 . S
C2433 C442 1.467 . S
C2441 C372 1.472 . S
C2465 C386 1.471 . S
C2473 C400 1.473 . S
