# Generated by pormake.
# Topology kag, (6)-cn, num edge types: 1
# Building blocks:
#     Node 0, Type 0, BuildingBlock: BETFEN_clean_sbu_0, # of connection points: 6
#     Node 1, Type 0, BuildingBlock: BETFEN_clean_sbu_0, # of connection points: 6
#     Node 2, Type 0, BuildingBlock: BETFEN_clean_sbu_0, # of connection points: 6
#     Edge 3, Type (0, 0), BuildingBlock: ZUJKAS_clean_linker_0, # of connection points: 2
#     Edge 4, Type (0, 0), BuildingBlock: ZUJKAS_clean_linker_0, # of connection points: 2
#     Edge 5, Type (0, 0), BuildingBlock: ZUJKAS_clean_linker_0, # of connection points: 2
#     Edge 6, Type (0, 0), BuildingBlock: ZUJKAS_clean_linker_0, # of connection points: 2
#     Edge 7, Type (0, 0), BuildingBlock: ZUJKAS_clean_linker_0, # of connection points: 2
#     Edge 8, Type (0, 0), BuildingBlock: ZUJKAS_clean_linker_0, # of connection points: 2
#     Edge 9, Type (0, 0), BuildingBlock: ZUJKAS_clean_linker_0, # of connection points: 2
#     Edge 10, Type (0, 0), BuildingBlock: ZUJKAS_clean_linker_0, # of connection points: 2
#     Edge 11, Type (0, 0), BuildingBlock: ZUJKAS_clean_linker_0, # of connection points: 2
# Relax obj value: 0.053
# Max RMSD: 0.167
# Mean RMSD: 0.088
data_MOF--net-kag--node1-BETFEN_clean_sbu_0--edge1-ZUJKAS_clean_linker_0
_symmetry_space_group_name_H-M    P1
_symmetry_Int_Tables_number       1
_symmetry_cell_setting            triclinic
loop_
_symmetry_equiv_pos_as_xyz
'x, y, z'
_cell_length_a     40.491195
_cell_length_b     51.2154
_cell_length_c     19.077009
_cell_angle_alpha  95.173779
_cell_angle_beta   90.519999
_cell_angle_gamma 100.62489
loop_
_atom_site_label
_atom_site_type_symbol
_atom_site_fract_x
_atom_site_fract_y
_atom_site_fract_z
_atom_type_partial_charge
Pr0 Pr 1.04007 0.47977 0.01863 0.0
Pr1 Pr 0.05539 0.54542 0.9928 0.0
C2 C 1.02374 0.43331 0.07644 0.0
C3 C 0.99942 0.40808 0.06397 0.0
C4 C 0.98823 0.39751 0.9956 0.0
C5 C 0.96453 0.3738 0.98511 0.0
C6 C 0.95142 0.36031 0.04281 0.0
C7 C 0.96264 0.37116 0.1112 0.0
C8 C 0.98642 0.39478 0.12157 0.0
C9 C 1.03898 0.48865 0.87433 0.0
C10 C 0.97612 0.51199 0.99679 0.0
C11 C 0.07104 0.59196 0.93495 0.0
C12 C 0.09448 0.6176 0.94795 0.0
C13 C 0.10819 0.6267 0.01549 0.0
C14 C 0.13089 0.65094 0.02658 0.0
C15 C 0.14043 0.66645 0.97022 0.0
C16 C 0.12666 0.65706 0.90258 0.0
C17 C 0.10391 0.63289 0.89165 0.0
C18 C 0.05659 0.53659 0.1371 0.0
C19 C 0.11927 0.513 0.01437 0.0
O20 O 1.01111 0.45445 0.09697 0.0
O21 O 0.04782 0.43785 0.03098 0.0
O22 O 1.04339 0.50545 0.92737 0.0
O23 O 1.03438 0.46487 0.89603 0.0
O24 O 0.99672 0.53301 0.97587 0.0
O25 O 0.98677 0.49138 0.02067 0.0
O26 O 0.08458 0.57117 0.91559 0.0
O27 O 1.04672 0.58705 0.97969 0.0
O28 O 0.05197 0.51976 0.08411 0.0
O29 O 0.06129 0.56035 0.11535 0.0
O30 O 0.09862 0.49212 0.03578 0.0
O31 O 0.10871 0.53361 0.99017 0.0
H32 H 0.99776 0.4076 0.95036 0.0
H33 H 0.95677 0.3659 0.93172 0.0
H34 H 0.95269 0.36161 0.15691 0.0
H35 H 0.9945 0.4028 0.17476 0.0
H36 H 0.10135 0.61506 0.0596 0.0
H37 H 0.14066 0.65766 0.07946 0.0
H38 H 0.13384 0.6682 0.85774 0.0
H39 H 0.0938 0.62603 0.83903 0.0
Pr40 Pr 0.58642 0.01682 1.00314 0.0
Pr41 Pr 0.50703 1.00447 0.03318 0.0
C42 C 0.64913 0.03511 0.96111 0.0
C43 C 0.67183 0.06103 0.95914 0.0
C44 C 0.70631 0.06283 0.97222 0.0
C45 C 0.7281 0.08749 0.97517 0.0
C46 C 0.7158 0.11091 0.9653 0.0
C47 C 0.68121 0.10894 0.951 0.0
C48 C 0.65942 0.08421 0.94802 0.0
C49 C 0.56834 1.00921 0.14136 0.0
C50 C 0.5436 0.06765 0.02814 0.0
C51 C 0.44894 0.9883 0.09681 0.0
C52 C 0.42179 0.9647 0.08667 0.0
C53 C 0.41284 0.95187 0.01915 0.0
C54 C 0.38882 0.92831 0.01067 0.0
C55 C 0.37361 0.91697 0.06959 0.0
C56 C 0.3825 0.92999 0.13706 0.0
C57 C 0.40633 0.95366 0.14546 0.0
C58 C 0.51718 1.0005 0.88729 0.0
C59 C 0.54933 0.95436 0.99626 0.0
O60 O 0.62279 0.03006 0.91827 0.0
O61 O 0.64263 0.02734 0.02378 0.0
O62 O 0.55452 0.02244 0.10083 0.0
O63 O 0.59292 0.99979 0.11127 0.0
O64 O 0.51611 0.05117 0.04451 0.0
O65 O 0.57159 0.05928 0.00919 0.0
O66 O 0.47786 0.98373 0.11922 0.0
O67 O 0.45181 1.00501 0.04792 0.0
O68 O 0.539 1.00596 0.93613 0.0
O69 O 0.48745 0.99624 0.91385 0.0
O70 O 0.57449 0.97093 0.97114 0.0
O71 O 0.52413 0.96286 0.02934 0.0
H72 H 0.71635 0.04515 0.98099 0.0
H73 H 0.75464 0.08821 0.98516 0.0
H74 H 0.67084 0.12659 0.94381 0.0
H75 H 0.63284 0.08326 0.93802 0.0
H76 H 0.42487 0.95976 0.97305 0.0
H77 H 0.38284 0.91858 0.95811 0.0
H78 H 0.37102 0.92186 0.18339 0.0
H79 H 0.41312 0.96314 0.19801 0.0
Pr80 Pr 0.55621 0.54028 0.99524 0.0
Pr81 Pr 0.53844 0.48115 0.0168 0.0
C82 C 0.56523 0.5902 0.95389 0.0
C83 C 0.55943 0.61799 0.96766 0.0
C84 C 0.58394 0.63746 1.0049 0.0
C85 C 0.58119 0.66437 0.01011 0.0
C86 C 0.55395 0.67259 0.97792 0.0
C87 C 0.52883 0.65305 0.9426 0.0
C88 C 0.53163 0.62605 0.9372 0.0
C89 C 0.55684 0.52968 0.13681 0.0
C90 C 0.47604 0.51304 0.01352 0.0
C91 C 0.52965 0.4316 0.06018 0.0
C92 C 0.53804 0.40461 0.05197 0.0
C93 C 0.53807 0.39028 0.98559 0.0
C94 C 0.54178 0.36349 0.98017 0.0
C95 C 0.54555 0.3505 0.04098 0.0
C96 C 0.54661 0.36526 0.10715 0.0
C97 C 0.54287 0.39198 0.11248 0.0
C98 C 0.53731 0.4919 0.87535 0.0
C99 C 0.61853 0.50824 0.99562 0.0
O100 O 0.54028 0.57124 0.93035 0.0
O101 O 0.58605 0.58213 0.99618 0.0
O102 O 0.53516 0.51832 0.09088 0.0
O103 O 0.57792 0.5485 0.11153 0.0
O104 O 0.48716 0.49388 0.04294 0.0
O105 O 0.49696 0.53141 0.98325 0.0
O106 O 0.55208 0.45146 0.08916 0.0
O107 O 0.5114 0.43835 0.01038 0.0
O108 O 0.55926 0.50309 0.92096 0.0
O109 O 0.51618 0.47314 0.90088 0.0
O110 O 0.60711 0.5274 0.96685 0.0
O111 O 0.59786 0.48975 0.02602 0.0
H112 H 0.60588 0.63205 0.02842 0.0
H113 H 0.60073 0.67883 0.03859 0.0
H114 H 0.50766 0.65871 0.91669 0.0
H115 H 0.51255 0.61165 0.90727 0.0
H116 H 0.5344 0.39955 0.93799 0.0
H117 H 0.54135 0.35288 0.92834 0.0
H118 H 0.54904 0.35591 0.15515 0.0
H119 H 0.54261 0.40255 0.16425 0.0
H120 H 1.03458 0.45251 0.75973 0.0
H121 H 1.03778 0.46069 0.63552 0.0
H122 H 0.05045 0.54535 0.69341 0.0
H123 H 1.04656 0.53712 0.81845 0.0
H124 H 1.00454 0.5279 0.58187 0.0
H125 H 0.12158 0.48869 0.52972 0.0
H126 H 0.08937 0.46544 0.56695 0.0
H127 H 0.10773 0.49608 0.61774 0.0
C128 C 1.03815 0.47291 0.74615 0.0
C129 C 1.04071 0.49421 0.7991 0.0
C130 C 1.04023 0.47757 0.67495 0.0
C131 C 1.04512 0.50368 0.65475 0.0
C132 C 0.04703 0.52503 0.70752 0.0
H133 H 0.0611 0.57276 0.25165 0.0
H134 H 0.05803 0.56461 0.3759 0.0
C135 C 1.04494 0.52034 0.77902 0.0
C136 C 0.04741 0.5085 0.57857 0.0
H137 H 0.09136 0.49742 0.42965 0.0
C138 C 1.02368 0.52139 0.54875 0.0
C139 C 0.07223 0.49989 0.53489 0.0
C140 C 0.09938 0.48698 0.56397 0.0
C141 C 1.02367 0.52543 0.47663 0.0
C142 C 0.0485 0.51682 0.43295 0.0
C143 C 0.07223 0.50393 0.46277 0.0
C144 C 0.05077 0.52162 0.35676 0.0
C145 C 0.99651 0.53832 0.44754 0.0
C146 C 0.04887 0.50027 0.30402 0.0
C147 C 0.05089 0.50493 0.23251 0.0
C148 C 0.05502 0.53105 0.21236 0.0
C149 C 0.0576 0.55237 0.26528 0.0
C150 C 0.0556 0.54773 0.3365 0.0
H151 H 0.97431 0.5366 0.4818 0.0
H152 H 1.0065 0.55986 0.44456 0.0
H153 H 0.98816 0.52921 0.39378 0.0
H154 H 1.04551 0.47995 0.31817 0.0
H155 H 0.04929 0.48815 0.19311 0.0
H156 H 0.53923 0.04332 0.22829 0.0
H157 H 0.53182 0.04263 0.35552 0.0
H158 H 0.571 0.9696 0.34997 0.0
H159 H 0.58053 0.97135 0.22393 0.0
H160 H 0.49672 0.01237 0.43537 0.0
H161 H 0.62873 1.01002 0.50443 0.0
H162 H 0.61576 0.01512 0.41693 0.0
H163 H 0.61145 0.98185 0.44424 0.0
C164 C 0.54631 0.02719 0.25447 0.0
C165 C 0.56087 1.00758 0.21666 0.0
C166 C 0.54209 0.02678 0.32721 0.0
C167 C 0.55178 1.00649 0.36329 0.0
C168 C 0.56465 0.98611 0.32442 0.0
H169 H 0.47801 0.97244 0.77979 0.0
H170 H 0.48699 0.97358 0.65343 0.0
C171 C 0.56973 0.98693 0.25215 0.0
C172 C 0.54794 1.00644 0.44111 0.0
H173 H 0.58877 0.99913 0.59375 0.0
C174 C 0.517 1.00971 0.46997 0.0
C175 C 0.57454 1.00361 0.48709 0.0
C176 C 0.60956 1.00278 0.46163 0.0
C177 C 0.5117 1.00975 0.54272 0.0
C178 C 0.53753 1.00502 0.58799 0.0
C179 C 0.56869 1.00227 0.55932 0.0
C180 C 0.53295 1.00313 0.66511 0.0
C181 C 0.47874 0.01568 0.57006 0.0
C182 C 0.55682 0.01803 0.71443 0.0
C183 C 0.55233 0.01655 0.78682 0.0
C184 C 0.52366 1.00048 0.81125 0.0
C185 C 0.50016 0.98522 0.76221 0.0
C186 C 0.50509 0.98613 0.68993 0.0
H187 H 0.46744 0.02787 0.53451 0.0
H188 H 0.4607 0.99666 0.57247 0.0
H189 H 0.48191 0.02655 0.62345 0.0
H190 H 0.57867 0.03118 0.697 0.0
H191 H 0.57068 0.02866 0.82364 0.0
H192 H 0.49553 0.46578 0.76824 0.0
H193 H 0.49931 0.47214 0.64257 0.0
H194 H 0.58615 0.53455 0.68648 0.0
H195 H 0.58274 0.52807 0.81211 0.0
H196 H 0.49679 0.51767 0.57387 0.0
H197 H 0.61904 0.48487 0.53334 0.0
H198 H 0.59461 0.47864 0.6108 0.0
H199 H 0.61974 0.51102 0.60303 0.0
C200 C 0.51547 0.48082 0.75104 0.0
C201 C 0.53902 0.49627 0.79981 0.0
C202 C 0.51758 0.48444 0.67929 0.0
C203 C 0.54336 0.50349 0.65497 0.0
C204 C 0.56651 0.51933 0.70384 0.0
H205 H 0.59829 0.55588 0.2443 0.0
H206 H 0.59436 0.54942 0.36988 0.0
C207 C 0.56442 0.51571 0.77562 0.0
C208 C 0.54569 0.50699 0.5786 0.0
H209 H 0.597 0.50367 0.43811 0.0
C210 C 0.51862 0.5145 0.54407 0.0
C211 C 0.57422 0.50285 0.53985 0.0
C212 C 0.60346 0.49367 0.57335 0.0
C213 C 0.51956 0.51846 0.47212 0.0
C214 C 0.5481 0.51435 0.43338 0.0
C215 C 0.57516 0.50683 0.46791 0.0
C216 C 0.55048 0.51793 0.35707 0.0
C217 C 0.49032 0.52763 0.43858 0.0
C218 C 0.52746 0.50206 0.30801 0.0
C219 C 0.52964 0.50574 0.23627 0.0
C220 C 0.55498 0.52527 0.21232 0.0
C221 C 0.57839 0.54077 0.2613 0.0
C222 C 0.5762 0.53709 0.33301 0.0
H223 H 0.47463 0.53631 0.47856 0.0
H224 H 0.49918 0.54274 0.40136 0.0
H225 H 0.47414 0.5103 0.4086 0.0
H226 H 0.50786 0.48676 0.3252 0.0
H227 H 0.51143 0.49334 0.19961 0.0
H228 H 0.16988 0.55111 0.97135 0.0
H229 H 0.23016 0.55105 0.9721 0.0
H230 H 0.21297 0.47609 0.06444 0.0
H231 H 0.15247 0.47568 0.06295 0.0
H232 H 0.27441 0.55052 0.08251 0.0
H233 H 0.26913 0.46029 0.89544 0.0
H234 H 0.23393 0.47716 0.90773 0.0
H235 H 0.24294 0.45495 0.97016 0.0
C236 C 0.17878 0.53452 0.99176 0.0
C237 C 0.15611 0.51329 0.01667 0.0
C238 C 0.21336 0.53457 0.99218 0.0
C239 C 0.22611 0.51337 0.0172 0.0
C240 C 0.20368 0.49238 0.04337 0.0
H241 H 0.4258 0.47748 0.06667 0.0
H242 H 0.36574 0.47852 0.06856 0.0
C243 C 0.16905 0.49228 0.04286 0.0
C244 C 0.26289 0.51345 0.01661 0.0
H245 H 0.32178 0.47814 0.9527 0.0
C246 C 0.28478 0.53476 0.05387 0.0
C247 C 0.27645 0.49289 0.97912 0.0
C248 C 0.25447 0.47014 0.93528 0.0
C249 C 0.31974 0.53581 0.05577 0.0
C250 C 0.33325 0.51519 0.01859 0.0
C251 C 0.31138 0.49391 0.98127 0.0
C252 C 0.36996 0.51513 0.01828 0.0
C253 C 0.34189 0.55867 0.09887 0.0
C254 C 0.39238 0.5353 0.98885 0.0
C255 C 0.42686 0.53478 0.98756 0.0
C256 C 0.43959 0.51402 0.01556 0.0
C257 C 0.41699 0.49384 0.04484 0.0
C258 C 0.38257 0.49435 0.0459 0.0
H259 H 0.32725 0.56924 0.13723 0.0
H260 H 0.36184 0.55152 0.128 0.0
H261 H 0.35426 0.57324 0.06321 0.0
H262 H 0.38315 0.55129 0.96609 0.0
H263 H 0.44347 0.55058 0.96431 0.0
H264 H 0.71686 0.15228 0.88264 0.0
H265 H 0.75593 0.19521 0.89189 0.0
H266 H 0.80593 0.17206 0.07038 0.0
H267 H 0.76694 0.12933 0.06203 0.0
H268 H 0.76955 0.23527 1.0073 0.0
H269 H 0.88278 0.19317 0.93509 0.0
H270 H 0.84063 0.17439 0.91947 0.0
H271 H 0.85989 0.17818 1.00597 0.0
C272 C 0.73604 0.1564 0.92414 0.0
C273 C 0.73898 0.13723 0.97115 0.0
C274 C 0.75841 0.18088 0.92916 0.0
C275 C 0.78419 0.1866 0.98099 0.0
C276 C 0.78672 0.16779 0.02891 0.0
H277 H 0.94723 0.31564 0.11373 0.0
H278 H 0.90538 0.2745 0.0974 0.0
C279 C 0.76443 0.14335 0.02396 0.0
C280 C 0.80836 0.21229 0.98566 0.0
H281 H 0.89199 0.23878 0.9801 0.0
C282 C 0.7963 0.23612 1.00082 0.0
C283 C 0.84322 0.21328 0.97714 0.0
C284 C 0.85746 0.18843 0.95787 0.0
C285 C 0.81834 0.26089 0.01001 0.0
C286 C 0.85329 0.26184 1.00242 0.0
C287 C 0.86523 0.23801 0.98615 0.0
C288 C 0.87808 0.28721 0.01268 0.0
C289 C 0.80412 0.28569 0.03003 0.0
C290 C 0.87684 0.30799 0.97006 0.0
C291 C 0.90055 0.33171 0.97979 0.0
C292 C 0.92619 0.33504 0.03197 0.0
C293 C 0.92754 0.314 0.07392 0.0
C294 C 0.90377 0.29036 0.06431 0.0
H295 H 0.77848 0.28085 0.05133 0.0
H296 H 0.82057 0.2993 0.06991 0.0
H297 H 0.8024 0.29646 0.98259 0.0
H298 H 0.85765 0.3058 0.92893 0.0
H299 H 0.89856 0.34754 0.94688 0.0
H300 H 0.49856 0.91386 0.02526 0.0
H301 H 0.49956 0.86616 0.01951 0.0
H302 H 0.6012 0.88087 0.94682 0.0
H303 H 0.60056 0.92877 0.95242 0.0
H304 H 0.51344 0.83075 0.89937 0.0
H305 H 0.60469 0.83846 0.12327 0.0
H306 H 0.58179 0.86467 0.10865 0.0
H307 H 0.61705 0.86025 0.05549 0.0
C308 C 0.52119 0.90704 0.00795 0.0
C309 C 0.54958 0.92526 0.98966 0.0
C310 C 0.52164 0.87971 1.00459 0.0
C311 C 0.55056 0.87001 0.98359 0.0
C312 C 0.57876 0.888 0.9641 0.0
H313 H 0.60568 0.71359 0.9578 0.0
H314 H 0.60397 0.76102 0.95788 0.0
C315 C 0.57828 0.91536 0.96699 0.0
C316 C 0.55115 0.84106 0.98241 0.0
H317 H 0.58786 0.79596 0.06135 0.0
C318 C 0.52965 0.82309 0.9348 0.0
C319 C 0.57233 0.83116 0.02869 0.0
C320 C 0.59514 0.84953 0.0824 0.0
C321 C 0.5292 0.79547 0.9313 0.0
C322 C 0.55023 0.7855 0.97799 0.0
C323 C 0.57171 0.80355 0.02563 0.0
C324 C 0.55079 0.7565 0.9777 0.0
C325 C 0.50685 0.77734 0.87638 0.0
C326 C 0.52152 0.7381 0.98963 0.0
C327 C 0.52242 0.71087 0.98956 0.0
C328 C 0.55271 0.70153 0.97854 0.0
C329 C 0.58201 0.72009 0.9674 0.0
C330 C 0.58106 0.74724 0.96709 0.0
H331 H 0.49983 0.78846 0.83287 0.0
H332 H 0.51932 0.76104 0.85371 0.0
H333 H 0.48334 0.76821 0.90113 0.0
H334 H 0.49803 0.74481 0.99974 0.0
H335 H 0.49951 0.69717 0.99924 0.0
H336 H 0.94231 0.5499 0.9532 0.0
H337 H 0.88153 0.54877 0.95209 0.0
H338 H 0.86551 0.4715 0.03215 0.0
H339 H 0.92594 0.47245 0.03416 0.0
H340 H 0.82928 0.51089 0.88087 0.0
H341 H 0.81486 0.51487 0.17051 0.0
H342 H 0.85524 0.52301 0.13045 0.0
H343 H 0.83553 0.48874 0.13431 0.0
C344 C 0.92591 0.53267 0.9707 0.0
C345 C 0.93921 0.51136 0.9942 0.0
C346 C 0.89114 0.53206 0.96997 0.0
C347 C 0.86901 0.51025 0.99316 0.0
C348 C 0.88213 0.48879 0.01545 0.0
H349 H 0.6518 0.47028 0.04036 0.0
H350 H 0.71226 0.47008 0.03679 0.0
C351 C 0.91679 0.48934 0.01616 0.0
C352 C 0.83215 0.50969 0.99318 0.0
H353 H 0.76466 0.50629 0.10057 0.0
C354 C 0.81515 0.51002 0.92891 0.0
C355 C 0.81371 0.50839 0.05587 0.0
C356 C 0.83074 0.50896 0.12684 0.0
C357 C 0.78015 0.50862 0.92543 0.0
C358 C 0.7617 0.50745 0.98819 0.0
C359 C 0.77874 0.50709 0.05246 0.0
C360 C 0.72487 0.5072 0.98864 0.0
C361 C 0.76319 0.50781 0.85429 0.0
C362 C 0.71182 0.52824 0.96348 0.0
C363 C 0.67733 0.52834 0.9651 0.0
C364 C 0.65504 0.50754 0.99271 0.0
C365 C 0.66818 0.48657 0.01852 0.0
C366 C 0.70276 0.48644 0.01659 0.0
H367 H 0.77865 0.50085 0.81117 0.0
H368 H 0.73815 0.4945 0.85147 0.0
H369 H 0.75964 0.52821 0.84506 0.0
H370 H 0.72839 0.54484 0.9434 0.0
H371 H 0.66823 0.54497 0.94539 0.0
H372 H 0.13871 0.71299 0.9107 0.0
H373 H 0.17916 0.75494 0.92742 0.0
H374 H 0.23648 0.72096 0.07496 0.0
H375 H 0.19702 0.67853 0.05618 0.0
H376 H 0.19668 0.78839 0.04634 0.0
H377 H 0.30855 0.75092 0.94299 0.0
H378 H 0.2665 0.73173 0.9304 0.0
H379 H 0.28894 0.73298 0.01282 0.0
C380 C 0.1602 0.71426 0.9459 0.0
C381 C 0.16469 0.69224 0.98166 0.0
C382 C 0.18317 0.73835 0.95581 0.0
C383 C 0.21117 0.74099 1.00154 0.0
C384 C 0.21547 0.71924 0.03823 0.0
H385 H 0.37052 0.87388 0.14584 0.0
H386 H 0.33059 0.83142 0.1303 0.0
C387 C 0.19259 0.69508 0.02815 0.0
C388 C 0.23534 0.76672 0.01199 0.0
H389 H 0.31814 0.79507 0.99947 0.0
C390 C 0.2232 0.78986 0.03577 0.0
C391 C 0.26996 0.76863 0.99812 0.0
C392 C 0.28427 0.7448 0.96903 0.0
C393 C 0.2448 0.81476 0.04695 0.0
C394 C 0.27937 0.8166 0.0335 0.0
C395 C 0.29159 0.79352 0.00994 0.0
C396 C 0.30324 0.8424 0.04309 0.0
C397 C 0.23064 0.83889 0.07411 0.0
C398 C 0.30119 0.8625 0.99878 0.0
C399 C 0.32396 0.88674 1.00742 0.0
C400 C 0.34914 0.89133 0.06075 0.0
C401 C 0.35112 0.87109 0.10496 0.0
C402 C 0.32849 0.84678 0.09591 0.0
H403 H 0.20505 0.83327 0.0951 0.0
H404 H 0.24731 0.851 0.11627 0.0
H405 H 0.22904 0.85158 0.03049 0.0
H406 H 0.28208 0.85937 0.95721 0.0
H407 H 0.3217 0.90198 0.97277 0.0
H408 H 0.5849 0.32484 0.11882 0.0
H409 H 0.58447 0.27689 0.11499 0.0
H410 H 0.5086 0.26226 0.94893 0.0
H411 H 0.5086 0.31011 0.95278 0.0
H412 H 0.53066 0.23619 0.13822 0.0
H413 H 0.57956 0.22085 0.8697 0.0
H414 H 0.58258 0.25353 0.91625 0.0
H415 H 0.54362 0.23685 0.87376 0.0
C416 C 0.56809 0.31145 0.08145 0.0
C417 C 0.54685 0.32144 0.03596 0.0
C418 C 0.56796 0.28403 0.0792 0.0
C419 C 0.54678 0.26597 0.03117 0.0
C420 C 0.52567 0.27583 0.98544 0.0
H421 H 0.49041 0.09349 0.05336 0.0
H422 H 0.49046 0.14137 0.05488 0.0
C423 C 0.52577 0.30325 0.98764 0.0
C424 C 0.54604 0.23679 0.03057 0.0
H425 H 0.55937 0.18194 0.92674 0.0
C426 C 0.53697 0.22432 0.09202 0.0
C427 C 0.55458 0.22136 0.97046 0.0
C428 C 0.56594 0.2338 0.90394 0.0
C429 C 0.53591 0.19683 0.09482 0.0
C430 C 0.54371 0.18129 0.03422 0.0
C431 C 0.55309 0.19381 0.97297 0.0
C432 C 0.54342 0.15218 0.03387 0.0
C433 C 0.52716 0.18478 0.1631 0.0
C434 C 0.573 0.14222 0.02037 0.0
C435 C 0.57304 0.11489 0.0192 0.0
C436 C 0.54341 0.09677 0.03104 0.0
C437 C 0.51374 0.10681 0.04444 0.0
C438 C 0.51374 0.13422 0.04561 0.0
H439 H 0.5299 0.20025 0.20859 0.0
H440 H 0.50063 0.17416 0.15982 0.0
H441 H 0.54333 0.17013 0.17318 0.0
H442 H 0.5962 0.15567 0.0111 0.0
H443 H 0.59642 0.10804 0.00905 0.0
loop_
_geom_bond_atom_site_label_1
_geom_bond_atom_site_label_2
_geom_bond_distance
_geom_bond_site_symmetry_2
_ccdc_geom_bond_type
Pr0 C2 2.880 . S
Pr0 O20 2.562 1_556 S
Pr0 O21 2.490 . S
Pr0 O22 2.695 1_655 S
Pr0 O23 2.512 . S
Pr0 O25 2.437 . S
Pr0 O28 2.436 1_556 S
Pr0 O30 2.438 1_655 S
Pr1 C11 2.880 . S
Pr1 O22 2.436 1_554 S
Pr1 O24 2.438 1_455 S
Pr1 O26 2.562 1_554 S
Pr1 O27 2.490 . S
Pr1 O28 2.695 1_455 S
Pr1 O29 2.512 . S
Pr1 O31 2.437 . S
C2 Pr0 2.880 . S
C2 C3 1.491 . S
C2 O20 1.254 1_556 S
C2 O21 1.225 . S
C3 C2 1.491 . S
C3 C4 1.392 . S
C3 C8 1.356 1_556 S
C4 C3 1.392 . S
C4 C5 1.368 . S
C4 H32 0.929 . S
C5 C4 1.368 . S
C5 C6 1.386 . S
C5 H33 0.929 . S
C6 C5 1.386 . S
C6 C7 1.373 1_556 S
C7 C6 1.373 1_554 S
C7 C8 1.409 . S
C7 H34 0.931 . S
C8 C3 1.356 1_554 S
C8 C7 1.409 . S
C8 H35 0.930 . S
C9 O22 1.270 . S
C9 O23 1.249 1_455 S
C10 O24 1.267 1_556 S
C10 O25 1.278 . S
C11 Pr1 2.880 . S
C11 C12 1.491 . S
C11 O26 1.254 1_554 S
C11 O27 1.225 . S
C12 C11 1.491 . S
C12 C13 1.392 . S
C12 C17 1.356 1_554 S
C13 C12 1.392 . S
C13 C14 1.368 . S
C13 H36 0.929 . S
C14 C13 1.368 . S
C14 C15 1.386 . S
C14 H37 0.929 . S
C15 C14 1.386 . S
C15 C16 1.373 1_554 S
C16 C15 1.373 1_556 S
C16 C17 1.409 . S
C16 H38 0.931 . S
C17 C12 1.356 1_556 S
C17 C16 1.409 . S
C17 H39 0.930 . S
C18 O28 1.270 1_455 S
C18 O29 1.248 . S
C19 O30 1.267 1_554 S
C19 O31 1.278 . S
O20 Pr0 2.562 1_554 S
O20 C2 1.254 1_554 S
O21 Pr0 2.490 . S
O21 C2 1.225 . S
O22 Pr0 2.695 1_455 S
O22 Pr1 2.436 1_556 S
O22 C9 1.270 . S
O23 Pr0 2.512 . S
O23 C9 1.249 1_655 S
O24 Pr1 2.438 1_655 S
O24 C10 1.267 1_554 S
O25 Pr0 2.437 . S
O25 C10 1.278 . S
O26 Pr1 2.562 1_556 S
O26 C11 1.254 1_556 S
O27 Pr1 2.490 . S
O27 C11 1.225 . S
O28 Pr0 2.436 1_554 S
O28 Pr1 2.695 1_655 S
O28 C18 1.270 1_655 S
O29 Pr1 2.512 . S
O29 C18 1.248 . S
O30 Pr0 2.438 1_455 S
O30 C19 1.267 1_556 S
O31 Pr1 2.437 . S
O31 C19 1.278 . S
H32 C4 0.929 . S
H33 C5 0.929 . S
H34 C7 0.931 . S
H35 C8 0.930 . S
H36 C13 0.929 . S
H37 C14 0.929 . S
H38 C16 0.931 . S
H39 C17 0.930 . S
Pr40 C42 2.880 . S
Pr40 O60 2.562 1_554 S
Pr40 O61 2.490 . S
Pr40 O62 2.695 1_545 S
Pr40 O63 2.512 . S
Pr40 O65 2.437 . S
Pr40 O68 2.436 1_554 S
Pr40 O70 2.438 1_545 S
Pr41 C51 2.880 . S
Pr41 O62 2.436 1_556 S
Pr41 O64 2.438 1_565 S
Pr41 O66 2.562 1_556 S
Pr41 O67 2.490 . S
Pr41 O68 2.695 1_565 S
Pr41 O69 2.512 . S
Pr41 O71 2.437 . S
C42 Pr40 2.880 . S
C42 C43 1.491 . S
C42 O60 1.254 1_554 S
C42 O61 1.225 . S
C43 C42 1.491 . S
C43 C44 1.392 . S
C43 C48 1.356 1_554 S
C44 C43 1.392 . S
C44 C45 1.368 . S
C44 H72 0.929 . S
C45 C44 1.368 . S
C45 C46 1.386 1_554 S
C45 H73 0.929 . S
C46 C45 1.386 1_556 S
C46 C47 1.373 . S
C47 C46 1.373 . S
C47 C48 1.409 . S
C47 H74 0.931 . S
C48 C43 1.356 1_556 S
C48 C47 1.409 . S
C48 H75 0.930 . S
C49 O62 1.270 1_545 S
C49 O63 1.248 . S
C50 O64 1.266 1_554 S
C50 O65 1.278 . S
C51 Pr41 2.880 . S
C51 C52 1.491 1_556 S
C51 O66 1.254 1_556 S
C51 O67 1.225 . S
C52 C51 1.491 1_554 S
C52 C53 1.392 1_554 S
C52 C57 1.356 . S
C53 C52 1.392 1_556 S
C53 C54 1.368 . S
C53 H76 0.929 . S
C54 C53 1.368 . S
C54 C55 1.386 1_556 S
C54 H77 0.929 . S
C55 C54 1.386 1_554 S
C55 C56 1.373 . S
C56 C55 1.373 . S
C56 C57 1.409 . S
C56 H78 0.931 . S
C57 C52 1.356 . S
C57 C56 1.409 . S
C57 H79 0.930 . S
C58 O68 1.270 1_565 S
C58 O69 1.248 . S
C59 O70 1.265 1_556 S
C59 O71 1.278 . S
O60 Pr40 2.562 1_556 S
O60 C42 1.254 1_556 S
O61 Pr40 2.490 . S
O61 C42 1.225 . S
O62 Pr40 2.695 1_565 S
O62 Pr41 2.436 1_554 S
O62 C49 1.270 1_565 S
O63 Pr40 2.512 . S
O63 C49 1.248 . S
O64 Pr41 2.438 1_545 S
O64 C50 1.266 1_556 S
O65 Pr40 2.437 . S
O65 C50 1.278 . S
O66 Pr41 2.562 1_554 S
O66 C51 1.254 1_554 S
O67 Pr41 2.490 . S
O67 C51 1.225 . S
O68 Pr40 2.436 1_556 S
O68 Pr41 2.695 1_545 S
O68 C58 1.270 1_545 S
O69 Pr41 2.512 . S
O69 C58 1.248 . S
O70 Pr40 2.438 1_565 S
O70 C59 1.265 1_554 S
O71 Pr41 2.437 . S
O71 C59 1.278 . S
H72 C44 0.929 . S
H73 C45 0.929 . S
H74 C47 0.931 . S
H75 C48 0.930 . S
H76 C53 0.929 . S
H77 C54 0.929 . S
H78 C56 0.931 . S
H79 C57 0.930 . S
Pr80 C82 2.880 . S
Pr80 O100 2.562 1_554 S
Pr80 O101 2.490 . S
Pr80 O102 2.695 . S
Pr80 O103 2.512 . S
Pr80 O105 2.437 . S
Pr80 O108 2.436 1_554 S
Pr80 O110 2.438 . S
Pr81 C91 2.880 . S
Pr81 O102 2.436 1_556 S
Pr81 O104 2.438 . S
Pr81 O106 2.562 1_556 S
Pr81 O107 2.490 . S
Pr81 O108 2.695 . S
Pr81 O109 2.512 . S
Pr81 O111 2.437 . S
C82 Pr80 2.880 . S
C82 C83 1.491 . S
C82 O100 1.254 1_554 S
C82 O101 1.225 . S
C83 C82 1.491 . S
C83 C84 1.392 . S
C83 C88 1.356 1_554 S
C84 C83 1.392 . S
C84 C85 1.368 . S
C84 H112 0.929 . S
C85 C84 1.368 . S
C85 C86 1.394 . S
C85 H113 0.929 . S
C86 C85 1.394 . S
C86 C87 1.366 1_554 S
C87 C86 1.366 1_556 S
C87 C88 1.409 . S
C87 H114 0.931 . S
C88 C83 1.356 1_556 S
C88 C87 1.409 . S
C88 H115 0.930 . S
C89 O102 1.270 . S
C89 O103 1.248 . S
C90 O104 1.267 1_554 S
C90 O105 1.278 . S
C91 Pr81 2.880 . S
C91 C92 1.491 . S
C91 O106 1.254 1_556 S
C91 O107 1.225 . S
C92 C91 1.491 . S
C92 C93 1.392 . S
C92 C97 1.356 1_556 S
C93 C92 1.392 . S
C93 C94 1.368 . S
C93 H116 0.929 . S
C94 C93 1.368 . S
C94 C95 1.390 . S
C94 H117 0.929 . S
C95 C94 1.390 . S
C95 C96 1.369 1_556 S
C96 C95 1.369 1_554 S
C96 C97 1.409 . S
C96 H118 0.931 . S
C97 C92 1.356 1_554 S
C97 C96 1.409 . S
C97 H119 0.930 . S
C98 O108 1.270 . S
C98 O109 1.248 . S
C99 O110 1.267 1_556 S
C99 O111 1.278 . S
O100 Pr80 2.562 1_556 S
O100 C82 1.254 1_556 S
O101 Pr80 2.490 . S
O101 C82 1.225 . S
O102 Pr80 2.695 . S
O102 Pr81 2.436 1_554 S
O102 C89 1.270 . S
O103 Pr80 2.512 . S
O103 C89 1.248 . S
O104 Pr81 2.438 . S
O104 C90 1.267 1_556 S
O105 Pr80 2.437 . S
O105 C90 1.278 . S
O106 Pr81 2.562 1_554 S
O106 C91 1.254 1_554 S
O107 Pr81 2.490 . S
O107 C91 1.225 . S
O108 Pr80 2.436 1_556 S
O108 Pr81 2.695 . S
O108 C98 1.270 . S
O109 Pr81 2.512 . S
O109 C98 1.248 . S
O110 Pr80 2.438 . S
O110 C99 1.267 1_554 S
O111 Pr81 2.437 . S
O111 C99 1.278 . S
H112 C84 0.929 . S
H113 C85 0.929 . S
H114 C87 0.931 . S
H115 C88 0.930 . S
H116 C93 0.929 . S
H117 C94 0.929 . S
H118 C96 0.931 . S
H119 C97 0.930 . S
H120 C128 0.929 . S
H121 C130 0.930 . S
H122 C132 0.930 . S
H123 C135 0.929 . S
H124 C138 0.930 . S
H125 C140 0.960 . S
H126 C140 0.960 . S
H127 C140 0.960 . S
C128 H120 0.929 . S
C128 C129 1.377 1_655 S
C128 C130 1.384 . S
C129 C128 1.377 1_455 S
C129 C135 1.390 . S
C130 H121 0.930 . S
C130 C128 1.384 . S
C130 C131 1.385 . S
C131 C130 1.385 . S
C131 C132 1.386 1_655 S
C131 C136 1.490 . S
C132 H122 0.930 . S
C132 C131 1.386 1_455 S
C132 C135 1.386 . S
H133 C149 0.930 . S
H134 C150 0.931 . S
C135 H123 0.929 . S
C135 C129 1.390 . S
C135 C132 1.386 . S
C136 C131 1.490 . S
C136 C138 1.395 . S
C136 C139 1.403 1_655 S
H137 C143 0.930 . S
C138 H124 0.930 . S
C138 C136 1.395 . S
C138 C141 1.403 . S
C139 C136 1.403 1_455 S
C139 C140 1.524 . S
C139 C143 1.400 . S
C140 H125 0.960 . S
C140 H126 0.960 . S
C140 H127 0.960 . S
C140 C139 1.524 . S
C141 C138 1.403 . S
C141 C142 1.392 . S
C141 C145 1.495 . S
C142 C141 1.392 . S
C142 C143 1.385 1_655 S
C142 C144 1.478 . S
C143 H137 0.930 . S
C143 C139 1.400 . S
C143 C142 1.385 1_455 S
C144 C142 1.478 . S
C144 C146 1.381 . S
C144 C150 1.383 1_655 S
C145 C141 1.495 . S
C145 H151 0.959 . S
C145 H152 0.961 . S
C145 H153 0.960 . S
C146 C144 1.381 . S
C146 C147 1.394 . S
C146 H154 0.930 . S
C147 C146 1.394 . S
C147 C148 1.383 . S
C147 H155 0.929 . S
C148 C147 1.383 . S
C148 C149 1.377 1_655 S
C149 H133 0.930 . S
C149 C148 1.377 1_455 S
C149 C150 1.379 . S
C150 H134 0.931 . S
C150 C144 1.383 1_455 S
C150 C149 1.379 . S
H151 C145 0.959 . S
H152 C145 0.961 . S
H153 C145 0.960 . S
H154 C146 0.930 . S
H155 C147 0.929 . S
H156 C164 0.929 . S
H157 C166 0.930 . S
H158 C168 0.930 . S
H159 C171 0.929 . S
H160 C174 0.930 . S
H161 C176 0.960 . S
H162 C176 0.974 . S
H163 C176 0.960 . S
C164 H156 0.929 . S
C164 C165 1.406 . S
C164 C166 1.384 . S
C165 C164 1.406 . S
C165 C171 1.359 1_545 S
C166 H157 0.930 . S
C166 C164 1.384 . S
C166 C167 1.372 . S
C167 C166 1.372 . S
C167 C168 1.400 1_545 S
C167 C172 1.490 . S
C168 H158 0.930 . S
C168 C167 1.400 1_565 S
C168 C171 1.386 . S
H169 C185 0.930 . S
H170 C186 0.931 . S
C171 H159 0.929 . S
C171 C165 1.359 1_565 S
C171 C168 1.386 . S
C172 C167 1.490 . S
C172 C174 1.395 . S
C172 C175 1.403 1_545 S
H173 C179 0.930 . S
C174 H160 0.930 . S
C174 C172 1.395 . S
C174 C177 1.403 . S
C175 C172 1.403 1_565 S
C175 C176 1.524 . S
C175 C179 1.400 . S
C176 H161 0.960 . S
C176 H162 0.974 . S
C176 H163 0.960 . S
C176 C175 1.524 . S
C177 C174 1.403 . S
C177 C178 1.392 . S
C177 C181 1.495 . S
C178 C177 1.392 . S
C178 C179 1.385 1_545 S
C178 C180 1.478 . S
C179 H173 0.930 . S
C179 C175 1.400 . S
C179 C178 1.385 1_565 S
C180 C178 1.478 . S
C180 C182 1.381 . S
C180 C186 1.383 1_545 S
C181 C177 1.495 . S
C181 H187 0.959 . S
C181 H188 0.961 . S
C181 H189 0.960 . S
C182 C180 1.381 . S
C182 C183 1.394 . S
C182 H190 0.930 . S
C183 C182 1.394 . S
C183 C184 1.392 . S
C183 H191 0.929 . S
C184 C183 1.392 . S
C184 C185 1.370 1_545 S
C185 H169 0.930 . S
C185 C184 1.370 1_565 S
C185 C186 1.379 . S
C186 H170 0.931 . S
C186 C180 1.383 1_565 S
C186 C185 1.379 . S
H187 C181 0.959 . S
H188 C181 0.961 . S
H189 C181 0.960 . S
H190 C182 0.930 . S
H191 C183 0.929 . S
H192 C200 0.929 . S
H193 C202 0.930 . S
H194 C204 0.930 . S
H195 C207 0.929 . S
H196 C210 0.930 . S
H197 C212 0.960 . S
H198 C212 0.960 . S
H199 C212 0.960 . S
C200 H192 0.929 . S
C200 C201 1.377 . S
C200 C202 1.384 . S
C201 C200 1.377 . S
C201 C207 1.390 . S
C202 H193 0.930 . S
C202 C200 1.384 . S
C202 C203 1.372 . S
C203 C202 1.372 . S
C203 C204 1.400 . S
C203 C208 1.490 . S
C204 H194 0.930 . S
C204 C203 1.400 . S
C204 C207 1.386 . S
H205 C221 0.930 . S
H206 C222 0.931 . S
C207 H195 0.929 . S
C207 C201 1.390 . S
C207 C204 1.386 . S
C208 C203 1.490 . S
C208 C210 1.395 . S
C208 C211 1.403 . S
H209 C215 0.930 . S
C210 H196 0.930 . S
C210 C208 1.395 . S
C210 C213 1.403 . S
C211 C208 1.403 . S
C211 C212 1.524 . S
C211 C215 1.400 . S
C212 H197 0.960 . S
C212 H198 0.960 . S
C212 H199 0.960 . S
C212 C211 1.524 . S
C213 C210 1.403 . S
C213 C214 1.392 . S
C213 C217 1.495 . S
C214 C213 1.392 . S
C214 C215 1.385 . S
C214 C216 1.478 . S
C215 H209 0.930 . S
C215 C211 1.400 . S
C215 C214 1.385 . S
C216 C214 1.478 . S
C216 C218 1.381 . S
C216 C222 1.383 . S
C217 C213 1.495 . S
C217 H223 0.959 . S
C217 H224 0.961 . S
C217 H225 0.960 . S
C218 C216 1.381 . S
C218 C219 1.394 . S
C218 H226 0.930 . S
C219 C218 1.394 . S
C219 C220 1.383 . S
C219 H227 0.929 . S
C220 C219 1.383 . S
C220 C221 1.377 . S
C221 H205 0.930 . S
C221 C220 1.377 . S
C221 C222 1.379 . S
C222 H206 0.931 . S
C222 C216 1.383 . S
C222 C221 1.379 . S
H223 C217 0.959 . S
H224 C217 0.961 . S
H225 C217 0.960 . S
H226 C218 0.930 . S
H227 C219 0.929 . S
H228 C236 0.929 . S
H229 C238 0.930 . S
H230 C240 0.930 . S
H231 C243 0.929 . S
H232 C246 0.930 . S
H233 C248 0.960 . S
H234 C248 0.960 . S
H235 C248 0.960 . S
C236 H228 0.929 . S
C236 C237 1.377 1_554 S
C236 C238 1.384 . S
C237 C236 1.377 1_556 S
C237 C243 1.390 . S
C238 H229 0.930 . S
C238 C236 1.384 . S
C238 C239 1.372 1_554 S
C239 C238 1.372 1_556 S
C239 C240 1.400 . S
C239 C244 1.490 . S
C240 H230 0.930 . S
C240 C239 1.400 . S
C240 C243 1.386 . S
H241 C257 0.930 . S
H242 C258 0.931 . S
C243 H231 0.929 . S
C243 C237 1.390 . S
C243 C240 1.386 . S
C244 C239 1.490 . S
C244 C246 1.395 1_556 S
C244 C247 1.403 . S
H245 C251 0.930 . S
C246 H232 0.930 . S
C246 C244 1.395 1_554 S
C246 C249 1.403 . S
C247 C244 1.403 . S
C247 C248 1.524 . S
C247 C251 1.400 . S
C248 H233 0.960 . S
C248 H234 0.960 . S
C248 H235 0.960 . S
C248 C247 1.524 . S
C249 C246 1.403 . S
C249 C250 1.392 . S
C249 C253 1.495 . S
C250 C249 1.392 . S
C250 C251 1.385 1_554 S
C250 C252 1.478 . S
C251 H245 0.930 . S
C251 C247 1.400 . S
C251 C250 1.385 1_556 S
C252 C250 1.478 . S
C252 C254 1.381 . S
C252 C258 1.383 1_554 S
C253 C249 1.495 . S
C253 H259 0.959 . S
C253 H260 0.961 . S
C253 H261 0.960 . S
C254 C252 1.381 . S
C254 C255 1.394 . S
C254 H262 0.930 . S
C255 C254 1.394 . S
C255 C256 1.384 . S
C255 H263 0.929 . S
C256 C255 1.384 . S
C256 C257 1.376 1_554 S
C257 H241 0.930 . S
C257 C256 1.376 1_556 S
C257 C258 1.379 . S
C258 H242 0.931 . S
C258 C252 1.383 1_556 S
C258 C257 1.379 . S
H259 C253 0.959 . S
H260 C253 0.961 . S
H261 C253 0.960 . S
H262 C254 0.930 . S
H263 C255 0.929 . S
H264 C272 0.929 . S
H265 C274 0.930 . S
H266 C276 0.930 . S
H267 C279 0.929 . S
H268 C282 0.930 . S
H269 C284 0.960 . S
H270 C284 0.960 1_556 S
H271 C284 0.960 . S
C272 H264 0.929 . S
C272 C273 1.377 . S
C272 C274 1.384 . S
C273 C272 1.377 . S
C273 C279 1.390 1_556 S
C274 H265 0.930 . S
C274 C272 1.384 . S
C274 C275 1.372 . S
C275 C274 1.372 . S
C275 C276 1.400 1_556 S
C275 C280 1.490 . S
C276 H266 0.930 . S
C276 C275 1.400 1_554 S
C276 C279 1.386 . S
H277 C293 0.930 . S
H278 C294 0.931 . S
C279 H267 0.929 . S
C279 C273 1.390 1_554 S
C279 C276 1.386 . S
C280 C275 1.490 . S
C280 C282 1.395 . S
C280 C283 1.403 1_556 S
H281 C287 0.930 . S
C282 H268 0.930 . S
C282 C280 1.395 . S
C282 C285 1.403 . S
C283 C280 1.403 1_554 S
C283 C284 1.524 . S
C283 C287 1.400 . S
C284 H269 0.960 . S
C284 H270 0.960 1_554 S
C284 H271 0.960 . S
C284 C283 1.524 . S
C285 C282 1.403 . S
C285 C286 1.392 . S
C285 C289 1.495 . S
C286 C285 1.392 . S
C286 C287 1.385 1_556 S
C286 C288 1.478 . S
C287 H281 0.930 . S
C287 C283 1.400 . S
C287 C286 1.385 1_554 S
C288 C286 1.478 . S
C288 C290 1.381 . S
C288 C294 1.383 1_556 S
C289 C285 1.495 . S
C289 H295 0.959 . S
C289 H296 0.961 . S
C289 H297 0.960 . S
C290 C288 1.381 . S
C290 C291 1.394 . S
C290 H298 0.930 . S
C291 C290 1.394 . S
C291 C292 1.383 . S
C291 H299 0.929 . S
C292 C291 1.383 . S
C292 C293 1.377 1_556 S
C293 H277 0.930 . S
C293 C292 1.377 1_554 S
C293 C294 1.379 . S
C294 H278 0.931 . S
C294 C288 1.383 1_554 S
C294 C293 1.379 . S
H295 C289 0.959 . S
H296 C289 0.961 . S
H297 C289 0.960 . S
H298 C290 0.930 . S
H299 C291 0.929 . S
H300 C308 0.929 . S
H301 C310 0.930 . S
H302 C312 0.930 . S
H303 C315 0.929 . S
H304 C318 0.930 . S
H305 C320 0.960 . S
H306 C320 0.960 . S
H307 C320 0.960 . S
C308 H300 0.929 . S
C308 C309 1.377 1_554 S
C308 C310 1.384 . S
C309 C308 1.377 1_556 S
C309 C315 1.390 . S
C310 H301 0.930 . S
C310 C308 1.384 . S
C310 C311 1.371 1_554 S
C311 C310 1.371 1_556 S
C311 C312 1.402 . S
C311 C316 1.489 . S
C312 H302 0.930 . S
C312 C311 1.402 . S
C312 C315 1.386 . S
H313 C329 0.930 . S
H314 C330 0.931 . S
C315 H303 0.929 . S
C315 C309 1.390 . S
C315 C312 1.386 . S
C316 C311 1.489 . S
C316 C318 1.395 . S
C316 C319 1.403 1_556 S
H317 C323 0.930 . S
C318 H304 0.930 . S
C318 C316 1.395 . S
C318 C321 1.403 . S
C319 C316 1.403 1_554 S
C319 C320 1.524 . S
C319 C323 1.400 . S
C320 H305 0.960 . S
C320 H306 0.960 . S
C320 H307 0.960 . S
C320 C319 1.524 . S
C321 C318 1.403 . S
C321 C322 1.392 . S
C321 C325 1.495 . S
C322 C321 1.392 . S
C322 C323 1.385 1_556 S
C322 C324 1.478 . S
C323 H317 0.930 . S
C323 C319 1.400 . S
C323 C322 1.385 1_554 S
C324 C322 1.478 . S
C324 C326 1.381 1_556 S
C324 C330 1.383 . S
C325 C321 1.495 . S
C325 H331 0.959 . S
C325 H332 0.961 . S
C325 H333 0.960 . S
C326 C324 1.381 1_554 S
C326 C327 1.394 . S
C326 H334 0.930 . S
C327 C326 1.394 . S
C327 C328 1.383 1_554 S
C327 H335 0.929 . S
C328 C327 1.383 1_556 S
C328 C329 1.377 . S
C329 H313 0.930 . S
C329 C328 1.377 . S
C329 C330 1.379 . S
C330 H314 0.931 . S
C330 C324 1.383 . S
C330 C329 1.379 . S
H331 C325 0.959 . S
H332 C325 0.961 . S
H333 C325 0.960 . S
H334 C326 0.930 . S
H335 C327 0.929 . S
H336 C344 0.929 . S
H337 C346 0.930 . S
H338 C348 0.930 . S
H339 C351 0.929 . S
H340 C354 0.930 . S
H341 C356 0.960 . S
H342 C356 0.960 1_554 S
H343 C356 0.960 . S
C344 H336 0.929 . S
C344 C345 1.377 . S
C344 C346 1.384 . S
C345 C344 1.377 . S
C345 C351 1.390 1_554 S
C346 H337 0.930 . S
C346 C344 1.384 . S
C346 C347 1.372 . S
C347 C346 1.372 . S
C347 C348 1.400 1_554 S
C347 C352 1.490 . S
C348 H338 0.930 . S
C348 C347 1.400 1_556 S
C348 C351 1.386 . S
H349 C365 0.930 . S
H350 C366 0.931 . S
C351 H339 0.929 . S
C351 C345 1.390 1_556 S
C351 C348 1.386 . S
C352 C347 1.490 . S
C352 C354 1.395 . S
C352 C355 1.403 1_554 S
H353 C359 0.930 . S
C354 H340 0.930 . S
C354 C352 1.395 . S
C354 C357 1.403 . S
C355 C352 1.403 1_556 S
C355 C356 1.524 . S
C355 C359 1.400 . S
C356 H341 0.960 . S
C356 H342 0.960 1_556 S
C356 H343 0.960 . S
C356 C355 1.524 . S
C357 C354 1.403 . S
C357 C358 1.392 . S
C357 C361 1.495 . S
C358 C357 1.392 . S
C358 C359 1.385 1_554 S
C358 C360 1.478 . S
C359 H353 0.930 . S
C359 C355 1.400 . S
C359 C358 1.385 1_556 S
C360 C358 1.478 . S
C360 C362 1.381 . S
C360 C366 1.383 1_554 S
C361 C357 1.495 . S
C361 H367 0.959 . S
C361 H368 0.961 . S
C361 H369 0.960 . S
C362 C360 1.381 . S
C362 C363 1.394 . S
C362 H370 0.930 . S
C363 C362 1.394 . S
C363 C364 1.383 . S
C363 H371 0.929 . S
C364 C363 1.383 . S
C364 C365 1.377 1_554 S
C365 H349 0.930 . S
C365 C364 1.377 1_556 S
C365 C366 1.379 . S
C366 H350 0.931 . S
C366 C360 1.383 1_556 S
C366 C365 1.379 . S
H367 C361 0.959 . S
H368 C361 0.961 . S
H369 C361 0.960 . S
H370 C362 0.930 . S
H371 C363 0.929 . S
H372 C380 0.929 . S
H373 C382 0.930 . S
H374 C384 0.930 . S
H375 C387 0.929 . S
H376 C390 0.930 . S
H377 C392 0.960 . S
H378 C392 0.960 . S
H379 C392 0.960 . S
C380 H372 0.929 . S
C380 C381 1.376 1_556 S
C380 C382 1.384 . S
C381 C380 1.376 1_554 S
C381 C387 1.391 . S
C382 H373 0.930 . S
C382 C380 1.384 . S
C382 C383 1.371 1_556 S
C383 C382 1.371 1_554 S
C383 C384 1.400 . S
C383 C388 1.490 . S
C384 H374 0.930 . S
C384 C383 1.400 . S
C384 C387 1.386 . S
H385 C401 0.930 . S
H386 C402 0.931 . S
C387 H375 0.929 . S
C387 C381 1.391 . S
C387 C384 1.386 . S
C388 C383 1.490 . S
C388 C390 1.395 . S
C388 C391 1.403 1_554 S
H389 C395 0.930 . S
C390 H376 0.930 . S
C390 C388 1.395 . S
C390 C393 1.403 . S
C391 C388 1.403 1_556 S
C391 C392 1.524 . S
C391 C395 1.400 . S
C392 H377 0.960 . S
C392 H378 0.960 . S
C392 H379 0.960 . S
C392 C391 1.524 . S
C393 C390 1.403 . S
C393 C394 1.392 . S
C393 C397 1.495 . S
C394 C393 1.392 . S
C394 C395 1.385 1_554 S
C394 C396 1.478 . S
C395 H389 0.930 . S
C395 C391 1.400 . S
C395 C394 1.385 1_556 S
C396 C394 1.478 . S
C396 C398 1.381 1_554 S
C396 C402 1.383 . S
C397 C393 1.495 . S
C397 H403 0.959 . S
C397 H404 0.961 . S
C397 H405 0.960 . S
C398 C396 1.381 1_556 S
C398 C399 1.394 . S
C398 H406 0.930 . S
C399 C398 1.394 . S
C399 C400 1.383 1_556 S
C399 H407 0.929 . S
C400 C399 1.383 1_554 S
C400 C401 1.377 . S
C401 H385 0.930 . S
C401 C400 1.377 . S
C401 C402 1.379 . S
C402 H386 0.931 . S
C402 C396 1.383 . S
C402 C401 1.379 . S
H403 C397 0.959 . S
H404 C397 0.961 . S
H405 C397 0.960 . S
H406 C398 0.930 . S
H407 C399 0.929 . S
H408 C416 0.929 . S
H409 C418 0.930 . S
H410 C420 0.930 . S
H411 C423 0.929 . S
H412 C426 0.930 . S
H413 C428 0.960 . S
H414 C428 0.960 . S
H415 C428 0.960 . S
C416 H408 0.929 . S
C416 C417 1.377 . S
C416 C418 1.384 . S
C417 C416 1.377 . S
C417 C423 1.390 1_554 S
C418 H409 0.930 . S
C418 C416 1.384 . S
C418 C419 1.372 . S
C419 C418 1.372 . S
C419 C420 1.400 1_554 S
C419 C424 1.490 . S
C420 H410 0.930 . S
C420 C419 1.400 1_556 S
C420 C423 1.386 . S
H421 C437 0.930 . S
H422 C438 0.931 . S
C423 H411 0.929 . S
C423 C417 1.390 1_556 S
C423 C420 1.386 . S
C424 C419 1.490 . S
C424 C426 1.395 . S
C424 C427 1.403 1_554 S
H425 C431 0.930 . S
C426 H412 0.930 . S
C426 C424 1.395 . S
C426 C429 1.403 . S
C427 C424 1.403 1_556 S
C427 C428 1.524 . S
C427 C431 1.400 . S
C428 H413 0.960 . S
C428 H414 0.960 . S
C428 H415 0.960 . S
C428 C427 1.524 . S
C429 C426 1.403 . S
C429 C430 1.392 . S
C429 C433 1.495 . S
C430 C429 1.392 . S
C430 C431 1.385 1_554 S
C430 C432 1.478 . S
C431 H425 0.930 . S
C431 C427 1.400 . S
C431 C430 1.385 1_556 S
C432 C430 1.478 . S
C432 C434 1.381 . S
C432 C438 1.383 1_554 S
C433 C429 1.495 . S
C433 H439 0.959 . S
C433 H440 0.961 . S
C433 H441 0.960 . S
C434 C432 1.381 . S
C434 C435 1.394 . S
C434 H442 0.930 . S
C435 C434 1.394 . S
C435 C436 1.383 . S
C435 H443 0.929 . S
C436 C435 1.383 . S
C436 C437 1.377 1_554 S
C437 H421 0.930 . S
C437 C436 1.377 1_556 S
C437 C438 1.379 . S
C438 H422 0.931 . S
C438 C432 1.383 1_556 S
C438 C437 1.379 . S
H439 C433 0.959 . S
H440 C433 0.961 . S
H441 C433 0.960 . S
H442 C434 0.930 . S
H443 C435 0.929 . S
C129 C9 1.448 . S
C148 C18 1.427 1_655 S
C165 C49 1.448 . S
C184 C58 1.423 1_545 S
C201 C98 1.449 . S
C220 C89 1.431 . S
C237 C19 2.606 1_556 S
C256 C90 2.563 . S
C273 C46 0.871 . S
C292 C6 0.881 . S
C309 C59 1.925 . S
C328 C86 1.903 1_556 S
C345 C10 2.606 1_554 S
C364 C99 2.559 1_554 S
C381 C15 0.869 . S
C400 C55 0.879 . S
C417 C95 1.899 1_554 S
C436 C50 1.916 . S
