# Generated by pormake.
# Topology ske, (6)-cn, num edge types: 1
# Building blocks:
#     Node 0, Type 0, BuildingBlock: UKALOJ_clean_sbu_0, # of connection points: 6
#     Node 1, Type 0, BuildingBlock: UKALOJ_clean_sbu_0, # of connection points: 6
#     Node 2, Type 0, BuildingBlock: UKALOJ_clean_sbu_0, # of connection points: 6
#     Node 3, Type 0, BuildingBlock: UKALOJ_clean_sbu_0, # of connection points: 6
#     Node 4, Type 0, BuildingBlock: UKALOJ_clean_sbu_0, # of connection points: 6
#     Node 5, Type 0, BuildingBlock: UKALOJ_clean_sbu_0, # of connection points: 6
#     Node 6, Type 0, BuildingBlock: UKALOJ_clean_sbu_0, # of connection points: 6
#     Node 7, Type 0, BuildingBlock: UKALOJ_clean_sbu_0, # of connection points: 6
#     Edge 8, Type (0, 0), BuildingBlock: UVAHIK_clean_linker_0, # of connection points: 2
#     Edge 9, Type (0, 0), BuildingBlock: UVAHIK_clean_linker_0, # of connection points: 2
#     Edge 10, Type (0, 0), BuildingBlock: UVAHIK_clean_linker_0, # of connection points: 2
#     Edge 11, Type (0, 0), BuildingBlock: UVAHIK_clean_linker_0, # of connection points: 2
#     Edge 12, Type (0, 0), BuildingBlock: UVAHIK_clean_linker_0, # of connection points: 2
#     Edge 13, Type (0, 0), BuildingBlock: UVAHIK_clean_linker_0, # of connection points: 2
#     Edge 14, Type (0, 0), BuildingBlock: UVAHIK_clean_linker_0, # of connection points: 2
#     Edge 15, Type (0, 0), BuildingBlock: UVAHIK_clean_linker_0, # of connection points: 2
#     Edge 16, Type (0, 0), BuildingBlock: UVAHIK_clean_linker_0, # of connection points: 2
#     Edge 17, Type (0, 0), BuildingBlock: UVAHIK_clean_linker_0, # of connection points: 2
#     Edge 18, Type (0, 0), BuildingBlock: UVAHIK_clean_linker_0, # of connection points: 2
#     Edge 19, Type (0, 0), BuildingBlock: UVAHIK_clean_linker_0, # of connection points: 2
#     Edge 20, Type (0, 0), BuildingBlock: UVAHIK_clean_linker_0, # of connection points: 2
#     Edge 21, Type (0, 0), BuildingBlock: UVAHIK_clean_linker_0, # of connection points: 2
#     Edge 22, Type (0, 0), BuildingBlock: UVAHIK_clean_linker_0, # of connection points: 2
#     Edge 23, Type (0, 0), BuildingBlock: UVAHIK_clean_linker_0, # of connection points: 2
#     Edge 24, Type (0, 0), BuildingBlock: UVAHIK_clean_linker_0, # of connection points: 2
#     Edge 25, Type (0, 0), BuildingBlock: UVAHIK_clean_linker_0, # of connection points: 2
#     Edge 26, Type (0, 0), BuildingBlock: UVAHIK_clean_linker_0, # of connection points: 2
#     Edge 27, Type (0, 0), BuildingBlock: UVAHIK_clean_linker_0, # of connection points: 2
#     Edge 28, Type (0, 0), BuildingBlock: UVAHIK_clean_linker_0, # of connection points: 2
#     Edge 29, Type (0, 0), BuildingBlock: UVAHIK_clean_linker_0, # of connection points: 2
#     Edge 30, Type (0, 0), BuildingBlock: UVAHIK_clean_linker_0, # of connection points: 2
#     Edge 31, Type (0, 0), BuildingBlock: UVAHIK_clean_linker_0, # of connection points: 2
# Relax obj value: 0.075
# Max RMSD: 0.119
# Mean RMSD: 0.119
data_MOF--net-ske--node1-UKALOJ_clean_sbu_0--edge1-UVAHIK_clean_linker_0
_symmetry_space_group_name_H-M    P1
_symmetry_Int_Tables_number       1
_symmetry_cell_setting            triclinic
loop_
_symmetry_equiv_pos_as_xyz
'x, y, z'
_cell_length_a     74.993369
_cell_length_b     49.577346
_cell_length_c     19.336015
_cell_angle_alpha  90.019593
_cell_angle_beta   89.851622
_cell_angle_gamma 90.10734
loop_
_atom_site_label
_atom_site_type_symbol
_atom_site_fract_x
_atom_site_fract_y
_atom_site_fract_z
_atom_type_partial_charge
Zn0 Zn 0.13574 0.28186 0.51433 0.0
O1 O 0.12874 0.28837 0.61829 0.0
C2 C 0.17075 0.26078 0.55591 0.0
Zn3 Zn 0.13482 0.23696 0.52218 0.0
C4 C 0.12641 0.26714 0.65402 0.0
O5 O 0.12804 0.24415 0.62575 0.0
C6 C 0.14416 0.25153 0.38244 0.0
O7 O 0.10736 0.23635 0.49665 0.0
O8 O 0.10838 0.28048 0.48731 0.0
N9 N 0.1349 0.19643 0.54281 0.0
C10 C 0.13007 0.17421 0.50701 0.0
C11 C 0.13988 0.16109 0.60468 0.0
N12 N 0.14098 0.18815 0.60338 0.0
N13 N 0.13313 0.15168 0.5448 0.0
C14 C 0.14036 0.3447 0.52806 0.0
C15 C 0.13549 0.35673 0.4239 0.0
N16 N 0.13633 0.32222 0.49193 0.0
N17 N 0.13327 0.32984 0.42736 0.0
N18 N 0.13994 0.36652 0.48637 0.0
H19 H 0.15343 0.32692 0.61571 0.0
H20 H 0.13316 0.34476 0.6348 0.0
H21 H 0.15318 0.3635 0.61564 0.0
C22 C 0.14547 0.34505 0.60283 0.0
C23 C 0.12164 0.1749 0.43688 0.0
H24 H 0.11476 0.19433 0.42805 0.0
H25 H 0.11196 0.1581 0.43095 0.0
H26 H 0.13218 0.17277 0.39692 0.0
O27 O 0.14151 0.23036 0.41793 0.0
O28 O 0.14282 0.27448 0.41102 0.0
C29 C 0.09955 0.25857 0.48419 0.0
O30 O 0.16283 0.28278 0.54242 0.0
O31 O 0.16233 0.23861 0.54958 0.0
Zn32 Zn 0.87282 0.28302 0.51386 0.0
O33 O 0.90026 0.28466 0.48887 0.0
C34 C 0.86394 0.26842 0.37435 0.0
Zn35 Zn 0.87264 0.23813 0.50599 0.0
C36 C 0.90854 0.2628 0.47675 0.0
O37 O 0.90012 0.24053 0.47965 0.0
C38 C 0.8372 0.25794 0.54705 0.0
O39 O 0.87947 0.23149 0.60979 0.0
O40 O 0.87953 0.27576 0.61726 0.0
N41 N 0.87281 0.19796 0.48211 0.0
C42 C 0.86835 0.1751 0.51589 0.0
C43 C 0.87478 0.16418 0.41205 0.0
N44 N 0.87685 0.19102 0.41779 0.0
N45 N 0.86946 0.15371 0.47283 0.0
C46 C 0.87689 0.3458 0.49947 0.0
C47 C 0.86603 0.35876 0.59581 0.0
N48 N 0.87206 0.3235 0.53495 0.0
N49 N 0.86533 0.33166 0.59471 0.0
N50 N 0.87317 0.3683 0.5366 0.0
H51 H 0.89293 0.32588 0.42185 0.0
H52 H 0.89561 0.36206 0.42549 0.0
H53 H 0.87572 0.34727 0.38915 0.0
C54 C 0.88593 0.34521 0.43024 0.0
C55 C 0.86217 0.17399 0.5895 0.0
H56 H 0.874 0.17281 0.62372 0.0
H57 H 0.85372 0.15594 0.59872 0.0
H58 H 0.85464 0.19247 0.60307 0.0
O59 O 0.84545 0.23619 0.53357 0.0
O60 O 0.84533 0.28036 0.54089 0.0
C61 C 0.88147 0.25281 0.64546 0.0
O62 O 0.86622 0.28969 0.40977 0.0
O63 O 0.86566 0.24555 0.40288 0.0
Zn64 Zn 0.13691 0.78178 0.45264 0.0
O65 O 0.10863 0.78451 0.45067 0.0
C66 C 0.13576 0.76769 0.59326 0.0
Zn67 Zn 0.13565 0.73679 0.45965 0.0
C68 C 0.09965 0.7628 0.45523 0.0
O69 O 0.10776 0.74041 0.45939 0.0
C70 C 0.17291 0.75529 0.45329 0.0
O71 O 0.13532 0.72959 0.35465 0.0
O72 O 0.13731 0.77385 0.34813 0.0
N73 N 0.1326 0.69684 0.48369 0.0
C74 C 0.14038 0.67343 0.46467 0.0
C75 C 0.12043 0.66403 0.53962 0.0
N76 N 0.12028 0.69085 0.53029 0.0
N77 N 0.13294 0.6524 0.49933 0.0
C78 C 0.13298 0.84473 0.46059 0.0
C79 C 0.14949 0.85696 0.37635 0.0
N80 N 0.13965 0.82214 0.43138 0.0
N81 N 0.14989 0.82985 0.37914 0.0
N82 N 0.13904 0.86694 0.42703 0.0
H83 H 0.11235 0.82567 0.52173 0.0
H84 H 0.11056 0.86188 0.51507 0.0
H85 H 0.12742 0.84673 0.5689 0.0
C86 C 0.11998 0.84475 0.51962 0.0
C87 C 0.15465 0.67142 0.4106 0.0
H88 H 0.15465 0.68933 0.37649 0.0
H89 H 0.15281 0.65294 0.379 0.0
H90 H 0.16784 0.67047 0.4363 0.0
O91 O 0.16376 0.73373 0.45819 0.0
O92 O 0.16499 0.77798 0.45313 0.0
C93 C 0.13684 0.75093 0.31903 0.0
O94 O 0.13675 0.78902 0.5575 0.0
O95 O 0.13571 0.74477 0.56425 0.0
Zn96 Zn 0.8725 0.78294 0.44162 0.0
O97 O 0.87939 0.78905 0.3376 0.0
C98 C 0.83702 0.76463 0.4035 0.0
Zn99 Zn 0.87259 0.73805 0.43414 0.0
C100 C 0.88115 0.76767 0.302 0.0
O101 O 0.87899 0.74478 0.33033 0.0
C102 C 0.86395 0.75327 0.57383 0.0
O103 O 0.90008 0.73494 0.4562 0.0
O104 O 0.89981 0.77897 0.46619 0.0
N105 N 0.87069 0.69761 0.41354 0.0
C106 C 0.87556 0.67508 0.44776 0.0
C107 C 0.86367 0.66271 0.35289 0.0
N108 N 0.86329 0.68982 0.35476 0.0
N109 N 0.87125 0.6528 0.41066 0.0
C110 C 0.86864 0.84651 0.43948 0.0
C111 C 0.88393 0.85569 0.52925 0.0
N112 N 0.87462 0.82295 0.46555 0.0
N113 N 0.88405 0.82882 0.5213 0.0
N114 N 0.87435 0.86749 0.47882 0.0
H115 H 0.85969 0.83058 0.34168 0.0
H116 H 0.8618 0.86697 0.34499 0.0
H117 H 0.84358 0.85012 0.38823 0.0
C118 C 0.85792 0.84868 0.37451 0.0
C119 C 0.88515 0.67518 0.51567 0.0
H120 H 0.8921 0.69456 0.52445 0.0
H121 H 0.89495 0.65846 0.51791 0.0
H122 H 0.87531 0.67249 0.55803 0.0
O123 O 0.86631 0.73194 0.53868 0.0
O124 O 0.86553 0.77613 0.54496 0.0
C125 C 0.90832 0.75687 0.46799 0.0
O126 O 0.8454 0.78645 0.41549 0.0
O127 O 0.84507 0.74218 0.40982 0.0
Zn128 Zn 0.63477 0.78211 0.00164 0.0
O129 O 0.62807 0.78913 0.10572 0.0
C130 C 0.67007 0.76196 0.04119 0.0
Zn131 Zn 0.63422 0.73729 0.01047 0.0
C132 C 0.62603 0.76796 0.14193 0.0
O133 O 0.62781 0.74491 0.1141 0.0
C134 C 0.64298 0.75132 0.87015 0.0
O135 O 0.6067 0.73597 -0.01286 0.0
O136 O 0.60736 0.78004 0.97623 0.0
N137 N 0.63481 0.69694 0.03251 0.0
C138 C 0.62974 0.67452 -0.00187 0.0
C139 C 0.6408 0.66195 0.09425 0.0
N140 N 0.64167 0.68903 0.09212 0.0
N141 N 0.63344 0.65218 0.03585 0.0
C142 C 0.63921 0.84502 0.01142 0.0
C143 C 0.63307 0.85605 0.90753 0.0
N144 N 0.63482 0.82221 0.97739 0.0
N145 N 0.63097 0.8292 0.91302 0.0
N146 N 0.63824 0.86645 0.96852 0.0
H147 H 0.65288 0.82763 0.09835 0.0
H148 H 0.63336 0.84696 0.11928 0.0
H149 H 0.65359 0.86417 0.09473 0.0
C150 C 0.64525 0.84604 0.08511 0.0
C151 C 0.62052 0.67485 0.92945 0.0
H152 H 0.6136 0.69423 0.92088 0.0
H153 H 0.61074 0.65809 0.92584 0.0
H154 H 0.6306 0.67246 0.8878 0.0
O155 O 0.64051 0.73021 0.90602 0.0
O156 O 0.64158 0.77431 0.8984 0.0
C157 C 0.59868 0.75799 0.97446 0.0
O158 O 0.66191 0.78378 0.02802 0.0
O159 O 0.66179 0.73963 0.03577 0.0
Zn160 Zn 0.37229 0.73648 0.03327 0.0
O161 O 0.37954 0.72991 0.13684 0.0
C162 C 0.33727 0.75672 0.0775 0.0
Zn163 Zn 0.37273 0.78138 0.0409 0.0
C164 C 0.38175 0.75124 0.17237 0.0
O165 O 0.3799 0.77419 0.14406 0.0
C166 C 0.36319 0.76671 0.90178 0.0
O167 O 0.39996 0.78276 0.01363 0.0
O168 O 0.39962 0.7386 0.00477 0.0
N169 N 0.37223 0.82191 0.06166 0.0
C170 C 0.37698 0.84414 0.0257 0.0
C171 C 0.3666 0.85729 0.12266 0.0
N172 N 0.3658 0.83019 0.1218 0.0
N173 N 0.3735 0.86672 0.06291 0.0
C174 C 0.36779 0.67343 0.04354 0.0
C175 C 0.37378 0.66252 0.9393 0.0
N176 N 0.37219 0.69628 0.0096 0.0
N177 N 0.37597 0.68934 0.94503 0.0
N178 N 0.36865 0.65206 0.00033 0.0
H179 H 0.35457 0.69092 0.13171 0.0
H180 H 0.37386 0.67089 0.15098 0.0
H181 H 0.35336 0.6544 0.12708 0.0
C182 C 0.3619 0.67232 0.11751 0.0
C183 C 0.3857 0.84341 0.95587 0.0
H184 H 0.39257 0.82399 0.94706 0.0
H185 H 0.39544 0.86014 0.9504 0.0
H186 H 0.37532 0.84556 0.91547 0.0
O187 O 0.36566 0.78798 0.93706 0.0
O188 O 0.36488 0.74385 0.93039 0.0
C189 C 0.40807 0.76082 0.00078 0.0
O190 O 0.34526 0.73485 0.06305 0.0
O191 O 0.34548 0.77903 0.07026 0.0
Zn192 Zn 0.63463 0.28201 0.94619 0.0
O193 O 0.60726 0.2854 0.9711 0.0
C194 C 0.64354 0.26652 0.08528 0.0
Zn195 Zn 0.63439 0.23715 0.95313 0.0
C196 C 0.59886 0.26364 0.98335 0.0
O197 O 0.60712 0.24133 0.97984 0.0
C198 C 0.66994 0.2551 0.91253 0.0
O199 O 0.62718 0.23127 0.84942 0.0
O200 O 0.62777 0.27552 0.84265 0.0
N201 N 0.63223 0.19714 0.97648 0.0
C202 C 0.63819 0.1737 0.94954 0.0
C203 C 0.62311 0.16414 0.03986 0.0
N204 N 0.62291 0.19105 0.03255 0.0
N205 N 0.63262 0.15257 -0.01134 0.0
C206 C 0.63178 0.34503 0.95959 0.0
C207 C 0.64346 0.35708 0.86384 0.0
N208 N 0.63662 0.32239 0.92561 0.0
N209 N 0.64389 0.33 0.86631 0.0
N210 N 0.63597 0.36718 0.92173 0.0
H211 H 0.61566 0.32569 0.03819 0.0
H212 H 0.61241 0.36166 0.03017 0.0
H213 H 0.63229 0.34839 0.0697 0.0
C214 C 0.62237 0.34516 0.02807 0.0
C215 C 0.64878 0.1718 0.88395 0.0
H216 H 0.64689 0.18997 0.85158 0.0
H217 H 0.6449 0.15357 0.85423 0.0
H218 H 0.66316 0.17044 0.89688 0.0
O219 O 0.66146 0.23341 0.9251 0.0
O220 O 0.66204 0.27765 0.91945 0.0
C221 C 0.62545 0.25271 0.81412 0.0
O222 O 0.64137 0.28792 0.05032 0.0
O223 O 0.64166 0.24372 0.05631 0.0
Zn224 Zn 0.3728 0.23639 0.95753 0.0
O225 O 0.40028 0.23362 0.98166 0.0
C226 C 0.3636 0.25163 0.09694 0.0
Zn227 Zn 0.37239 0.28128 0.96483 0.0
C228 C 0.40828 0.25569 -0.00583 0.0
O229 O 0.39963 0.27765 -0.00877 0.0
C230 C 0.33715 0.26253 0.92443 0.0
O231 O 0.3796 0.28736 0.86098 0.0
O232 O 0.37957 0.24309 0.85388 0.0
N233 N 0.37425 0.32134 -0.0113 0.0
C234 C 0.36835 0.34489 0.96234 0.0
C235 C 0.3833 0.3541 0.05296 0.0
N236 N 0.38347 0.32723 0.04497 0.0
N237 N 0.37389 0.36588 0.00201 0.0
C238 C 0.37599 0.17343 0.97176 0.0
C239 C 0.36451 0.16089 0.87631 0.0
N240 N 0.37118 0.1959 0.93711 0.0
N241 N 0.36404 0.18799 0.87797 0.0
N242 N 0.37189 0.15108 0.93457 0.0
H243 H 0.39217 0.19312 0.04926 0.0
H244 H 0.39517 0.15705 0.04314 0.0
H245 H 0.37532 0.17096 0.08202 0.0
C246 C 0.38532 0.17368 0.04022 0.0
C247 C 0.35786 0.34706 0.89681 0.0
H248 H 0.35977 0.32896 0.86406 0.0
H249 H 0.36181 0.36538 0.86756 0.0
H250 H 0.34347 0.34846 0.90977 0.0
O251 O 0.34535 0.28446 0.93707 0.0
O252 O 0.34532 0.24019 0.93129 0.0
C253 C 0.3816 0.26599 0.82548 0.0
O254 O 0.36615 0.23033 0.06189 0.0
O255 O 0.3651 0.27449 0.06801 0.0
C256 C 0.19733 0.23702 0.60517 0.0
C257 C 0.18897 0.26116 0.58537 0.0
C258 C 0.21359 0.23755 0.64034 0.0
C259 C 0.24073 0.28193 0.75133 0.0
H260 H 0.2779 0.22952 0.71518 0.0
C261 C 0.31086 0.28741 0.87623 0.0
C262 C 0.31894 0.26292 0.895 0.0
C263 C 0.29467 0.28751 0.8404 0.0
C264 C 0.26755 0.24409 0.72653 0.0
H265 H 0.19148 0.30478 0.58493 0.0
H266 H 0.21995 0.30565 0.64545 0.0
H267 H 0.25095 0.22924 0.64503 0.0
H268 H 0.31594 0.21937 0.8935 0.0
H269 H 0.28763 0.2196 0.83217 0.0
H270 H 0.25734 0.29673 0.83296 0.0
C271 C 0.21378 0.28633 0.63474 0.0
C272 C 0.25212 0.24396 0.68618 0.0
C273 C 0.19753 0.2858 0.59948 0.0
C274 C 0.31013 0.2386 0.87957 0.0
C275 C 0.29397 0.23871 0.84384 0.0
C276 C 0.25617 0.28205 0.79173 0.0
C277 C 0.22185 0.26223 0.6566 0.0
C278 C 0.2385 0.26283 0.69818 0.0
C279 C 0.28622 0.26313 0.8226 0.0
C280 C 0.26974 0.26306 0.77998 0.0
H281 H 0.19107 0.21769 0.59536 0.0
H282 H 0.21936 0.21863 0.65692 0.0
H283 H 0.23036 0.29647 0.76269 0.0
H284 H 0.31733 0.3065 0.88704 0.0
H285 H 0.28913 0.30667 0.82444 0.0
C286 C 0.69622 0.22957 0.86579 0.0
C287 C 0.68825 0.25426 0.88376 0.0
C288 C 0.71265 0.22907 0.8313 0.0
C289 C 0.75221 0.27103 0.78924 0.0
H290 H 0.75699 0.22252 0.6329 0.0
C291 C 0.81032 0.28099 0.5963 0.0
C292 C 0.81897 0.25705 0.57665 0.0
C293 C 0.79413 0.2801 0.63219 0.0
C294 C 0.75593 0.236 0.6768 0.0
H295 H 0.69159 0.29774 0.88151 0.0
H296 H 0.72009 0.29686 0.82138 0.0
H297 H 0.72987 0.22148 0.70289 0.0
H298 H 0.81704 0.21336 0.57719 0.0
H299 H 0.7888 0.21184 0.63989 0.0
H300 H 0.77821 0.28567 0.76301 0.0
C301 C 0.71376 0.27786 0.83431 0.0
C302 C 0.74042 0.23535 0.71707 0.0
C303 C 0.69736 0.27836 0.86862 0.0
C304 C 0.81071 0.2322 0.59135 0.0
C305 C 0.7945 0.23131 0.62721 0.0
C306 C 0.7677 0.2717 0.74898 0.0
C307 C 0.72148 0.25324 0.81425 0.0
C308 C 0.73833 0.25298 0.77353 0.0
C309 C 0.78621 0.25524 0.64926 0.0
C310 C 0.7697 0.25433 0.692 0.0
H311 H 0.68956 0.21063 0.87666 0.0
H312 H 0.71836 0.20976 0.81746 0.0
H313 H 0.75116 0.28458 0.833 0.0
H314 H 0.81628 0.30048 0.58565 0.0
H315 H 0.78792 0.29891 0.64728 0.0
C316 C 0.31111 0.73141 0.12604 0.0
C317 C 0.31945 0.75612 0.11054 0.0
C318 C 0.29548 0.73075 0.16562 0.0
C319 C 0.25839 0.77353 0.22889 0.0
H320 H 0.25439 0.71916 0.37241 0.0
C321 C 0.20186 0.77812 0.42702 0.0
C322 C 0.19209 0.75411 0.43537 0.0
C323 C 0.2185 0.77784 0.3946 0.0
C324 C 0.25529 0.73437 0.33236 0.0
H325 H 0.31759 0.79954 0.12271 0.0
H326 H 0.29048 0.79837 0.19184 0.0
H327 H 0.28044 0.71952 0.29621 0.0
H328 H 0.1928 0.7107 0.42128 0.0
H329 H 0.2219 0.71026 0.36469 0.0
H330 H 0.2333 0.78841 0.26489 0.0
C331 C 0.29588 0.7795 0.17296 0.0
C332 C 0.27016 0.73451 0.28846 0.0
C333 C 0.31147 0.78017 0.13335 0.0
C334 C 0.19997 0.72955 0.41567 0.0
C335 C 0.21666 0.72929 0.38317 0.0
C336 C 0.2436 0.77345 0.27285 0.0
C337 C 0.28785 0.75477 0.19055 0.0
C338 C 0.27187 0.75412 0.23622 0.0
C339 C 0.22576 0.75357 0.36985 0.0
C340 C 0.24189 0.75393 0.32518 0.0
H341 H 0.31691 0.7125 0.10932 0.0
H342 H 0.28946 0.7114 0.17723 0.0
H343 H 0.25912 0.78863 0.18852 0.0
H344 H 0.19625 0.79737 0.44214 0.0
H345 H 0.2254 0.7968 0.38652 0.0
C346 C 0.69682 0.78751 0.08279 0.0
C347 C 0.68838 0.7627 0.0694 0.0
C348 C 0.71317 0.78835 0.11718 0.0
C349 C 0.75188 0.74657 0.16737 0.0
H350 H 0.75703 0.79926 0.3144 0.0
C351 C 0.80973 0.74099 0.36056 0.0
C352 C 0.81872 0.76523 0.37519 0.0
C353 C 0.79352 0.74123 0.32529 0.0
C354 C 0.75587 0.78461 0.2731 0.0
H355 H 0.69082 0.71928 0.07959 0.0
H356 H 0.7193 0.72077 0.13969 0.0
H357 H 0.72999 0.79883 0.24447 0.0
H358 H 0.81734 0.80882 0.36668 0.0
H359 H 0.78901 0.80919 0.30489 0.0
H360 H 0.77771 0.73227 0.19608 0.0
C361 C 0.71334 0.73957 0.1232 0.0
C362 C 0.7404 0.7844 0.23289 0.0
C363 C 0.69698 0.73873 0.08889 0.0
C364 C 0.81073 0.78979 0.35641 0.0
C365 C 0.79449 0.79001 0.32105 0.0
C366 C 0.76732 0.74677 0.20756 0.0
C367 C 0.72147 0.76441 0.13883 0.0
C368 C 0.7382 0.7653 0.17975 0.0
C369 C 0.78591 0.76569 0.30376 0.0
C370 C 0.76946 0.76568 0.26115 0.0
H371 H 0.69056 0.80637 0.06842 0.0
H372 H 0.71924 0.80778 0.12746 0.0
H373 H 0.75072 0.73187 0.12618 0.0
H374 H 0.81546 0.72171 0.3746 0.0
H375 H 0.78706 0.72217 0.31401 0.0
C376 C 0.13507 0.91317 0.383 0.0
C377 C 0.13578 0.89523 0.43917 0.0
C378 C 0.1332 0.9409 0.39372 0.0
C379 C 0.13933 0.99327 0.5295 0.0
H380 H 0.11354 0.03824 0.39976 0.0
C381 C 0.12567 0.10557 0.58207 0.0
C382 C 0.13047 0.12353 0.52892 0.0
C383 C 0.1249 0.07783 0.57 0.0
C384 C 0.12084 0.0259 0.43619 0.0
H385 H 0.13579 0.89271 0.55106 0.0
H386 H 0.13136 0.94069 0.56996 0.0
H387 H 0.1144 0.98944 0.38248 0.0
H388 H 0.13861 0.12614 0.42145 0.0
H389 H 0.13658 0.07766 0.39957 0.0
H390 H 0.14543 0.02976 0.58381 0.0
C391 C 0.13245 0.93343 0.51731 0.0
C392 C 0.12141 0.99794 0.42625 0.0
C393 C 0.13457 0.90571 0.50651 0.0
C394 C 0.13419 0.11307 0.46283 0.0
C395 C 0.13321 0.08526 0.45047 0.0
C396 C 0.13852 0.02112 0.53991 0.0
C397 C 0.13194 0.95148 0.46108 0.0
C398 C 0.13075 0.98122 0.47263 0.0
C399 C 0.12886 0.06735 0.50431 0.0
C400 C 0.12934 0.03774 0.49327 0.0
H401 H 0.13618 0.90571 0.33053 0.0
H402 H 0.13323 0.95407 0.34906 0.0
H403 H 0.14701 0.98129 0.56547 0.0
H404 H 0.12279 0.11303 0.63353 0.0
H405 H 0.12137 0.06452 0.61231 0.0
C406 C 0.87307 0.40655 0.4535 0.0
C407 C 0.87562 0.39651 0.52068 0.0
C408 C 0.87433 0.43423 0.44016 0.0
C409 C 0.88903 0.4997 0.51923 0.0
H410 H 0.85734 0.52989 0.38147 0.0
C411 C 0.87218 0.61385 0.49173 0.0
C412 C 0.87394 0.6245 0.42463 0.0
C413 C 0.8738 0.58608 0.50325 0.0
C414 C 0.86634 0.52168 0.41978 0.0
H415 H 0.88105 0.4078 0.62672 0.0
H416 H 0.88239 0.456 0.60452 0.0
H417 H 0.8574 0.48142 0.40148 0.0
H418 H 0.87847 0.61422 0.31709 0.0
H419 H 0.88075 0.56568 0.337 0.0
H420 H 0.89729 0.54045 0.53919 0.0
C421 C 0.88018 0.44256 0.56125 0.0
C422 C 0.8665 0.49384 0.43101 0.0
C423 C 0.87923 0.41488 0.57424 0.0
C424 C 0.87713 0.60666 0.36938 0.0
C425 C 0.87843 0.57892 0.38069 0.0
C426 C 0.88861 0.52762 0.50883 0.0
C427 C 0.87767 0.4527 0.49403 0.0
C428 C 0.87787 0.48239 0.48086 0.0
C429 C 0.87673 0.56836 0.44767 0.0
C430 C 0.87729 0.53883 0.45891 0.0
H431 H 0.86952 0.39326 0.41145 0.0
H432 H 0.87249 0.44111 0.38755 0.0
H433 H 0.89822 0.49173 0.55712 0.0
H434 H 0.86891 0.6267 0.53503 0.0
H435 H 0.87213 0.57833 0.55525 0.0
C436 C 0.88533 0.91366 0.49698 0.0
C437 C 0.8719 0.89625 0.47267 0.0
C438 C 0.88268 0.94145 0.49921 0.0
C439 C 0.85982 0.99717 0.42194 0.0
H440 H 0.86708 0.03318 0.59786 0.0
C441 C 0.85336 0.11236 0.44248 0.0
C442 C 0.86567 0.12576 0.48474 0.0
C443 C 0.85146 0.08438 0.44613 0.0
C444 C 0.8652 0.02357 0.54812 0.0
H445 H 0.84489 0.89478 0.43274 0.0
H446 H 0.84069 0.94376 0.43276 0.0
H447 H 0.86936 0.98418 0.5908 0.0
H448 H 0.8855 0.12102 0.56438 0.0
H449 H 0.88289 0.0719 0.56943 0.0
H450 H 0.85674 0.03632 0.37786 0.0
C451 C 0.85327 0.93551 0.45018 0.0
C452 C 0.86637 0.99548 0.54432 0.0
C453 C 0.85579 0.90749 0.44921 0.0
C454 C 0.87574 0.11095 0.53224 0.0
C455 C 0.87415 0.08284 0.53499 0.0
C456 C 0.859 0.02531 0.42536 0.0
C457 C 0.86659 0.95262 0.47638 0.0
C458 C 0.86387 0.98209 0.4811 0.0
C459 C 0.86223 0.06908 0.49088 0.0
C460 C 0.86185 0.03897 0.48841 0.0
H461 H 0.89787 0.90566 0.51546 0.0
H462 H 0.89322 0.95427 0.51895 0.0
H463 H 0.85802 0.98725 0.3725 0.0
H464 H 0.8455 0.1236 0.4055 0.0
H465 H 0.84181 0.07474 0.41268 0.0
C466 C 0.15334 0.61303 0.48575 0.0
C467 C 0.13617 0.62371 0.4966 0.0
C468 C 0.15618 0.5851 0.48807 0.0
C469 C 0.14002 0.52404 0.5684 0.0
H470 H 0.15612 0.48489 0.40656 0.0
C471 C 0.13165 0.40873 0.54454 0.0
C472 C 0.14327 0.39435 0.50151 0.0
C473 C 0.1331 0.4368 0.5499 0.0
C474 C 0.15204 0.4954 0.45301 0.0
H475 H 0.10869 0.61328 0.51953 0.0
H476 H 0.11382 0.56481 0.52588 0.0
H477 H 0.15482 0.53397 0.40367 0.0
H478 H 0.16595 0.39717 0.43304 0.0
H479 H 0.16938 0.44595 0.44535 0.0
H480 H 0.1375 0.48586 0.61868 0.0
C481 C 0.12496 0.57806 0.51452 0.0
C482 C 0.1512 0.52356 0.45095 0.0
C483 C 0.12205 0.60578 0.51071 0.0
C484 C 0.1569 0.4081 0.46655 0.0
C485 C 0.15865 0.43604 0.47303 0.0
C486 C 0.14121 0.49592 0.5711 0.0
C487 C 0.14203 0.56748 0.5034 0.0
C488 C 0.14484 0.53804 0.5081 0.0
C489 C 0.14644 0.45095 0.5131 0.0
C490 C 0.14686 0.4811 0.51291 0.0
H491 H 0.1647 0.62609 0.47786 0.0
H492 H 0.1695 0.5773 0.47994 0.0
H493 H 0.13518 0.53489 0.61332 0.0
H494 H 0.12089 0.39837 0.57096 0.0
H495 H 0.12323 0.4474 0.58039 0.0
C496 C 0.63316 0.61347 0.95419 0.0
C497 C 0.63081 0.62392 0.02112 0.0
C498 C 0.63185 0.58571 0.94206 0.0
C499 C 0.61746 0.52072 0.02465 0.0
H500 H 0.64909 0.48982 0.88702 0.0
C501 C 0.6349 0.40658 0.00138 0.0
C502 C 0.63307 0.39549 0.93479 0.0
C503 C 0.63312 0.43439 0.01186 0.0
C504 C 0.64011 0.49823 0.92532 0.0
H505 H 0.6256 0.61334 0.12789 0.0
H506 H 0.62417 0.56502 0.10774 0.0
H507 H 0.64887 0.53842 0.90479 0.0
H508 H 0.62821 0.40501 0.82712 0.0
H509 H 0.62564 0.45361 0.84521 0.0
H510 H 0.6094 0.48005 0.04686 0.0
C511 C 0.62628 0.57817 0.0638 0.0
C512 C 0.63985 0.52614 0.93524 0.0
C513 C 0.62728 0.60592 0.07561 0.0
C514 C 0.62961 0.41291 0.87903 0.0
C515 C 0.62814 0.44069 0.8893 0.0
C516 C 0.61799 0.49274 0.01555 0.0
C517 C 0.62864 0.5676 -0.00312 0.0
C518 C 0.62851 0.53784 0.98502 0.0
C519 C 0.62995 0.45169 0.95573 0.0
C520 C 0.62929 0.48128 0.96569 0.0
H521 H 0.63663 0.62648 0.91143 0.0
H522 H 0.63356 0.57848 0.88964 0.0
H523 H 0.6083 0.52889 0.06256 0.0
H524 H 0.63836 0.39405 0.04499 0.0
H525 H 0.63486 0.44251 0.06344 0.0
C526 C 0.37324 0.90489 0.97956 0.0
C527 C 0.37597 0.8949 0.04668 0.0
C528 C 0.37454 0.93256 0.966 0.0
C529 C 0.38957 0.99806 0.04423 0.0
H530 H 0.35776 0.02825 0.9069 0.0
C531 C 0.37266 0.11223 0.01601 0.0
C532 C 0.37458 0.1228 0.94889 0.0
C533 C 0.37426 0.08447 0.02779 0.0
C534 C 0.36678 0.02003 0.9451 0.0
H535 H 0.38174 0.90627 0.1524 0.0
H536 H 0.38311 0.95443 0.12987 0.0
H537 H 0.35772 0.97981 0.92729 0.0
H538 H 0.37935 0.11239 0.84158 0.0
H539 H 0.38156 0.06387 0.86194 0.0
H540 H 0.39793 0.03879 0.06378 0.0
C541 C 0.38075 0.94097 0.08676 0.0
C542 C 0.3669 0.99221 0.95654 0.0
C543 C 0.37978 0.9133 0.09996 0.0
C544 C 0.3779 0.1049 0.89389 0.0
C545 C 0.37916 0.07717 0.90545 0.0
C546 C 0.38917 0.02597 0.03368 0.0
C547 C 0.37808 0.95106 0.01959 0.0
C548 C 0.37831 0.98075 0.00623 0.0
C549 C 0.37731 0.06669 0.97244 0.0
C550 C 0.37781 0.03717 0.9839 0.0
H551 H 0.36953 0.8916 0.93775 0.0
H552 H 0.37257 0.93939 0.91341 0.0
H553 H 0.3988 0.99009 0.08197 0.0
H554 H 0.36928 0.12511 0.0591 0.0
H555 H 0.37248 0.07677 0.07978 0.0
C556 C 0.38482 0.41204 0.02067 0.0
C557 C 0.37145 0.39464 -0.0042 0.0
C558 C 0.38213 0.43982 0.02325 0.0
C559 C 0.35909 0.49571 0.94697 0.0
H560 H 0.36653 0.53115 0.12353 0.0
C561 C 0.35242 0.61079 0.97021 0.0
C562 C 0.36482 0.62411 0.01224 0.0
C563 C 0.35056 0.5828 0.97342 0.0
C564 C 0.36459 0.52171 0.07362 0.0
H565 H 0.34454 0.39317 0.95495 0.0
H566 H 0.34025 0.44214 0.95573 0.0
H567 H 0.36889 0.48219 0.11532 0.0
H568 H 0.38484 0.61918 0.09112 0.0
H569 H 0.38226 0.57004 0.09544 0.0
H570 H 0.35584 0.535 0.90388 0.0
C571 C 0.35281 0.4339 0.97334 0.0
C572 C 0.36582 0.49364 0.06915 0.0
C573 C 0.35539 0.40588 0.97196 0.0
C574 C 0.375 0.60919 0.05918 0.0
C575 C 0.37343 0.58106 0.0615 0.0
C576 C 0.35819 0.52384 0.95106 0.0
C577 C 0.36606 0.45099 0.00025 0.0
C578 C 0.36326 0.48044 0.00568 0.0
C579 C 0.36144 0.5674 0.0175 0.0
C580 C 0.36112 0.5373 0.01436 0.0
H581 H 0.39733 0.40404 0.03941 0.0
H582 H 0.39262 0.45262 0.04349 0.0
H583 H 0.35723 0.48596 0.89734 0.0
H584 H 0.34448 0.62211 0.93365 0.0
H585 H 0.34084 0.57323 0.9401 0.0
C586 C 0.65122 0.11285 0.9568 0.0
C587 C 0.63515 0.12386 0.98162 0.0
C588 C 0.6538 0.08485 0.95634 0.0
C589 C 0.64112 0.02412 0.04791 0.0
H590 H 0.65006 0.98475 0.8783 0.0
C591 C 0.63191 0.90878 0.03003 0.0
C592 C 0.64185 0.8944 0.98104 0.0
C593 C 0.63342 0.93687 0.0341 0.0
C594 C 0.64801 0.99534 0.92661 0.0
H595 H 0.60932 0.11407 0.02565 0.0
H596 H 0.61407 0.06545 0.0267 0.0
H597 H 0.64871 0.03384 0.87592 0.0
H598 H 0.6617 0.89731 0.90034 0.0
H599 H 0.66525 0.94614 0.9097 0.0
H600 H 0.6407 0.98597 0.09929 0.0
C601 C 0.62454 0.07846 0.00691 0.0
C602 C 0.64713 0.0235 0.92491 0.0
C603 C 0.62183 0.10625 0.00609 0.0
C604 C 0.65393 0.90822 0.93844 0.0
C605 C 0.65575 0.93618 0.94338 0.0
C606 C 0.64235 0.99601 0.04997 0.0
C607 C 0.64057 0.06752 0.98248 0.0
C608 C 0.64333 0.03804 0.98528 0.0
C609 C 0.64513 0.95104 -0.01017 0.0
C610 C 0.64545 0.98115 -0.01091 0.0
H611 H 0.66206 0.12571 0.94026 0.0
H612 H 0.66634 0.07678 0.93775 0.0
H613 H 0.63833 0.03502 0.09529 0.0
H614 H 0.62232 0.8984 0.06248 0.0
H615 H 0.62479 0.94749 0.06981 0.0
C616 C 0.15183 0.27348 0.27088 0.0
C617 C 0.1465 0.25024 0.307 0.0
C618 C 0.15052 0.27454 0.19918 0.0
C619 C 0.12329 0.24607 0.06209 0.0
H620 H 0.15671 0.28274 0.94083 0.0
C621 C 0.11872 0.24525 0.7656 0.0
C622 C 0.12403 0.26849 0.72941 0.0
C623 C 0.11999 0.24426 0.83732 0.0
C624 C 0.14713 0.27285 0.97437 0.0
H625 H 0.13692 0.20915 0.2964 0.0
H626 H 0.13477 0.21092 0.17034 0.0
H627 H 0.16438 0.27578 0.06201 0.0
H628 H 0.13355 0.30961 0.73986 0.0
H629 H 0.13563 0.30795 0.86595 0.0
H630 H 0.10605 0.24314 0.97443 0.0
C631 C 0.13969 0.22844 0.19787 0.0
C632 C 0.15159 0.26867 0.04347 0.0
C633 C 0.14109 0.22733 0.26981 0.0
C634 C 0.12938 0.29144 0.76651 0.0
C635 C 0.13075 0.2904 0.83847 0.0
C636 C 0.11884 0.25026 -0.00702 0.0
C637 C 0.14382 0.25238 0.16225 0.0
C638 C 0.13971 0.25523 0.08795 0.0
C639 C 0.12663 0.26648 0.87418 0.0
C640 C 0.13072 0.26368 0.9485 0.0
H641 H 0.15616 0.2914 0.29825 0.0
H642 H 0.15374 0.29328 0.17317 0.0
H643 H 0.11371 0.23618 0.09562 0.0
H644 H 0.11442 0.22731 0.73827 0.0
H645 H 0.11678 0.22553 0.8634 0.0
C646 C 0.86717 0.29214 0.26121 0.0
C647 C 0.8615 0.26954 0.29908 0.0
C648 C 0.86853 0.29068 0.18926 0.0
C649 C 0.87634 0.23967 0.05615 0.0
H650 H 0.86553 0.29747 0.92823 0.0
C651 C 0.87817 0.22898 0.75839 0.0
C652 C 0.88387 0.25161 0.72072 0.0
C653 C 0.87675 0.23038 0.83033 0.0
C654 C 0.86884 0.2813 0.96357 0.0
H655 H 0.85118 0.22871 0.29175 0.0
H656 H 0.85321 0.22642 0.16634 0.0
H657 H 0.85812 0.30267 0.05036 0.0
H658 H 0.89418 0.29243 0.72838 0.0
H659 H 0.89206 0.29461 0.85379 0.0
H660 H 0.88707 0.21831 0.96936 0.0
C661 C 0.85711 0.24491 0.1921 0.0
C662 C 0.86452 0.28426 0.03329 0.0
C663 C 0.85584 0.24631 0.26377 0.0
C664 C 0.88951 0.27481 0.75622 0.0
C665 C 0.88818 0.27615 0.82788 0.0
C666 C 0.88066 0.23672 -0.01357 0.0
C667 C 0.86415 0.26666 0.15447 0.0
C668 C 0.8682 0.26345 0.08018 0.0
C669 C 0.8811 0.25437 0.8653 0.0
C670 C 0.87699 0.25753 0.93955 0.0
H671 H 0.87166 0.31025 0.28727 0.0
H672 H 0.87401 0.30775 0.16142 0.0
H673 H 0.87965 0.2235 0.0915 0.0
H674 H 0.87369 0.21089 0.73215 0.0
H675 H 0.87124 0.21329 0.85802 0.0
C676 C 0.13211 0.72787 0.20651 0.0
C677 C 0.13874 0.74977 0.24439 0.0
C678 C 0.13258 0.72867 0.1346 0.0
C679 C 0.15281 0.76332 -0.01293 0.0
H680 H 0.10651 0.75328 0.90156 0.0
C681 C 0.14001 0.7912 0.70542 0.0
C682 C 0.13386 0.76889 0.66789 0.0
C683 C 0.13945 0.79064 0.77733 0.0
C684 C 0.11946 0.75618 0.92517 0.0
H685 H 0.15231 0.7885 0.23876 0.0
H686 H 0.15299 0.78988 0.11368 0.0
H687 H 0.11005 0.74432 0.02492 0.0
H688 H 0.12104 0.7296 0.67406 0.0
H689 H 0.12012 0.72869 0.79922 0.0
H690 H 0.16221 0.7752 0.88731 0.0
C691 C 0.14742 0.77226 0.13895 0.0
C692 C 0.12154 0.75071 -0.005 0.0
C693 C 0.14682 0.77158 0.21031 0.0
C694 C 0.12616 0.74684 0.70226 0.0
C695 C 0.12542 0.74643 0.77362 0.0
C696 C 0.15073 0.76882 0.91727 0.0
C697 C 0.1399 0.75117 0.10076 0.0
C698 C 0.13823 0.75426 0.02616 0.0
C699 C 0.13245 0.76798 0.81147 0.0
C700 C 0.13405 0.76521 0.88611 0.0
H701 H 0.12597 0.7108 0.23222 0.0
H702 H 0.12683 0.71215 0.10545 0.0
H703 H 0.16579 0.76614 0.01057 0.0
H704 H 0.14585 0.80846 0.67945 0.0
H705 H 0.14485 0.80748 0.80628 0.0
C706 C 0.85616 0.77552 0.68466 0.0
C707 C 0.86154 0.75219 0.64912 0.0
C708 C 0.85742 0.77679 0.75629 0.0
C709 C 0.86411 0.73711 0.91455 0.0
H710 H 0.8879 0.80213 0.97842 0.0
C711 C 0.889 0.74548 0.19125 0.0
C712 C 0.88364 0.76881 0.22679 0.0
C713 C 0.88779 0.74425 0.1196 0.0
C714 C 0.88115 0.78399 0.96134 0.0
H715 H 0.87112 0.7112 0.66047 0.0
H716 H 0.87344 0.71349 0.78627 0.0
H717 H 0.88043 0.79731 0.85636 0.0
H718 H 0.87416 0.80985 0.21555 0.0
H719 H 0.8719 0.80764 0.08968 0.0
H720 H 0.86482 0.72379 0.01952 0.0
C721 C 0.86821 0.73073 0.75861 0.0
C722 C 0.8768 0.78125 0.8917 0.0
C723 C 0.86688 0.7294 0.68671 0.0
C724 C 0.87839 0.79165 0.18925 0.0
C725 C 0.87709 0.79036 0.11732 0.0
C726 C 0.86846 0.73985 0.98418 0.0
C727 C 0.86414 0.75481 0.7936 0.0
C728 C 0.86821 0.75781 0.86776 0.0
C729 C 0.88113 0.76627 0.0823 0.0
C730 C 0.87705 0.76328 0.00813 0.0
H731 H 0.85175 0.79327 0.65689 0.0
H732 H 0.85377 0.79535 0.78229 0.0
H733 H 0.85736 0.71897 0.89747 0.0
H734 H 0.89335 0.72769 0.21902 0.0
H735 H 0.89143 0.72569 0.09359 0.0
C736 C 0.62927 0.79221 0.25436 0.0
C737 C 0.62363 0.76943 0.21725 0.0
C738 C 0.63055 0.79112 0.32636 0.0
C739 C 0.61788 0.75136 0.48063 0.0
H740 H 0.66383 0.77495 0.55019 0.0
C741 C 0.63959 0.72725 0.7575 0.0
C742 C 0.64534 0.74994 0.79478 0.0
C743 C 0.63826 0.72846 0.68553 0.0
C744 C 0.65092 0.76837 0.53149 0.0
H745 H 0.61343 0.72857 0.22596 0.0
H746 H 0.61561 0.72673 0.35111 0.0
H747 H 0.65633 0.78241 0.42902 0.0
H748 H 0.65565 0.79075 0.78631 0.0
H749 H 0.65336 0.79279 0.66123 0.0
H750 H 0.61247 0.73733 0.58309 0.0
C751 C 0.61912 0.74535 0.32507 0.0
C752 C 0.64657 0.77286 0.46241 0.0
C753 C 0.61795 0.74637 0.25336 0.0
C754 C 0.65106 0.77301 0.75881 0.0
C755 C 0.64982 0.77415 0.68712 0.0
C756 C 0.62224 0.74689 0.54971 0.0
C757 C 0.62604 0.76734 0.36202 0.0
C758 C 0.63002 0.76438 0.43636 0.0
C759 C 0.64281 0.75226 0.65005 0.0
C760 C 0.6388 0.75534 0.57575 0.0
H761 H 0.63373 0.81023 0.2277 0.0
H762 H 0.63567 0.8085 0.35392 0.0
H763 H 0.60499 0.74477 0.46191 0.0
H764 H 0.63511 0.70923 0.78403 0.0
H765 H 0.63308 0.71114 0.65787 0.0
C766 C 0.3664 0.79043 0.78852 0.0
C767 C 0.36076 0.76781 0.8264 0.0
C768 C 0.36786 0.78896 0.71658 0.0
C769 C 0.3759 0.73797 0.58328 0.0
H770 H 0.3653 0.79588 0.45545 0.0
C771 C 0.37837 0.72739 0.28536 0.0
C772 C 0.38408 0.75005 0.24778 0.0
C773 C 0.37678 0.7288 0.35728 0.0
C774 C 0.36855 0.77967 0.49075 0.0
H775 H 0.35063 0.72688 0.8189 0.0
H776 H 0.35282 0.72457 0.69351 0.0
H777 H 0.35773 0.80098 0.57746 0.0
H778 H 0.39419 0.79097 0.25579 0.0
H779 H 0.39178 0.79316 0.38114 0.0
H780 H 0.38674 0.71666 0.49656 0.0
C781 C 0.35662 0.74311 0.71929 0.0
C782 C 0.36414 0.78257 0.56044 0.0
C783 C 0.35524 0.74452 0.79097 0.0
C784 C 0.38953 0.7733 0.28349 0.0
C785 C 0.38803 0.77465 0.35514 0.0
C786 C 0.38031 0.73507 0.51358 0.0
C787 C 0.36362 0.7649 0.68169 0.0
C788 C 0.36775 0.76173 0.60734 0.0
C789 C 0.38096 0.75282 0.39242 0.0
C790 C 0.37672 0.75592 0.4667 0.0
H791 H 0.3708 0.80859 0.8146 0.0
H792 H 0.37331 0.80608 0.68882 0.0
H793 H 0.37917 0.72176 0.61858 0.0
H794 H 0.37402 0.70926 0.25903 0.0
H795 H 0.37128 0.71165 0.38479 0.0
C796 C 0.64092 0.29047 0.19832 0.0
C797 C 0.64593 0.2675 0.1606 0.0
C798 C 0.63947 0.28918 0.27023 0.0
C799 C 0.63001 0.23896 0.40354 0.0
H800 H 0.64262 0.29613 0.53116 0.0
C801 C 0.62791 0.22868 0.70116 0.0
C802 C 0.62297 0.25169 0.73887 0.0
C803 C 0.62932 0.22994 0.62923 0.0
C804 C 0.6388 0.28016 0.4959 0.0
H805 H 0.65501 0.22606 0.16828 0.0
H806 H 0.65282 0.22404 0.29369 0.0
H807 H 0.65025 0.30065 0.40905 0.0
H808 H 0.61395 0.29315 0.73124 0.0
H809 H 0.61604 0.29513 0.60579 0.0
H810 H 0.61855 0.21848 0.49039 0.0
C811 C 0.6495 0.24273 0.26776 0.0
C812 C 0.64325 0.28272 0.4262 0.0
C813 C 0.65087 0.24397 0.1961 0.0
C814 C 0.61804 0.27522 0.70339 0.0
C815 C 0.61935 0.27643 0.63171 0.0
C816 C 0.62555 0.23641 0.47324 0.0
C817 C 0.64311 0.26496 0.30519 0.0
C818 C 0.63892 0.26212 0.37944 0.0
C819 C 0.6257 0.25418 0.59427 0.0
C820 C 0.62988 0.25701 0.52 0.0
H821 H 0.63701 0.30884 0.17215 0.0
H822 H 0.6345 0.30662 0.29793 0.0
H823 H 0.62619 0.22299 0.36828 0.0
H824 H 0.63182 0.21031 0.72735 0.0
H825 H 0.63425 0.21248 0.60152 0.0
C826 C 0.35591 0.2739 0.20797 0.0
C827 C 0.36121 0.25056 0.17232 0.0
C828 C 0.35728 0.27519 0.27961 0.0
C829 C 0.36418 0.23544 0.43786 0.0
H830 H 0.38786 0.30056 0.50164 0.0
C831 C 0.38934 0.2438 0.71448 0.0
C832 C 0.38406 0.26714 0.75017 0.0
C833 C 0.38802 0.24256 0.64282 0.0
C834 C 0.38114 0.28238 0.48461 0.0
H835 H 0.37078 0.20955 0.18361 0.0
H836 H 0.37327 0.21186 0.30933 0.0
H837 H 0.38027 0.29577 0.37969 0.0
H838 H 0.37457 0.30819 0.73902 0.0
H839 H 0.37214 0.30597 0.61323 0.0
H840 H 0.36505 0.22205 0.54277 0.0
C841 C 0.36802 0.22912 0.28178 0.0
C842 C 0.37672 0.27967 0.415 0.0
C843 C 0.36659 0.22777 0.20989 0.0
C844 C 0.37876 0.28997 0.71267 0.0
C845 C 0.37735 0.28868 0.64075 0.0
C846 C 0.36861 0.23815 0.50746 0.0
C847 C 0.36402 0.25321 0.31687 0.0
C848 C 0.36817 0.25619 0.39105 0.0
C849 C 0.38132 0.26459 0.60561 0.0
C850 C 0.37716 0.26162 0.53142 0.0
H851 H 0.35149 0.29166 0.18028 0.0
H852 H 0.35367 0.29376 0.30564 0.0
H853 H 0.35747 0.21726 0.42083 0.0
H854 H 0.39371 0.22601 0.74216 0.0
H855 H 0.39161 0.22399 0.61676 0.0
C856 C 0.07147 0.28402 0.4595 0.0
C857 C 0.08018 0.25924 0.46941 0.0
C858 C 0.05301 0.28497 0.45059 0.0
C859 C 0.01341 0.24375 0.40723 0.0
H860 H 0.98822 0.29732 0.51602 0.0
C861 C 0.93753 0.23878 0.45852 0.0
C862 C 0.92797 0.26308 0.46301 0.0
C863 C 0.95607 0.23898 0.45099 0.0
C864 C 0.99502 0.28253 0.48429 0.0
H865 H 0.07637 0.21591 0.47532 0.0
H866 H 0.04408 0.21761 0.46013 0.0
H867 H 0.02064 0.29632 0.5175 0.0
H868 H 0.93033 0.30669 0.46016 0.0
H869 H 0.96264 0.30704 0.44586 0.0
H870 H 0.98773 0.22983 0.37451 0.0
C871 C 0.05158 0.23629 0.45887 0.0
C872 C 0.01363 0.28194 0.48525 0.0
C873 C 0.07007 0.23534 0.46796 0.0
C874 C 0.9373 0.2876 0.45745 0.0
C875 C 0.95584 0.2878 0.44964 0.0
C876 C 0.99476 0.24441 0.40605 0.0
C877 C 0.04281 0.26117 0.45121 0.0
C878 C 0.02304 0.26242 0.4472 0.0
C879 C 0.96549 0.26349 0.44747 0.0
C880 C 0.98533 0.26367 0.44507 0.0
H881 H 0.07886 0.30282 0.45987 0.0
H882 H 0.04669 0.30441 0.44374 0.0
H883 H 0.02029 0.22868 0.37667 0.0
H884 H 0.93076 0.21952 0.46269 0.0
H885 H 0.96306 0.21989 0.45032 0.0
C886 C 0.9367 0.78193 0.48903 0.0
C887 C 0.92782 0.75724 0.47876 0.0
C888 C 0.95526 0.78293 0.49222 0.0
C889 C 0.9955 0.74185 0.51912 0.0
H890 H 0.01845 0.7971 0.40788 0.0
C891 C 0.07038 0.73883 0.45676 0.0
C892 C 0.07996 0.76322 0.45783 0.0
C893 C 0.05184 0.73877 0.46202 0.0
C894 C 0.01227 0.78181 0.44 0.0
H895 H 0.93144 0.7141 0.46658 0.0
H896 H 0.96397 0.71589 0.4721 0.0
H897 H 0.98602 0.79544 0.41503 0.0
H898 H 0.07759 0.80672 0.46487 0.0
H899 H 0.04509 0.80661 0.47483 0.0
H900 H 0.02174 0.72817 0.54404 0.0
C901 C 0.95651 0.73444 0.47786 0.0
C902 C 0.99369 0.78083 0.44405 0.0
C903 C 0.93789 0.73343 0.47448 0.0
C904 C 0.07057 0.78762 0.46356 0.0
C905 C 0.05196 0.78754 0.46909 0.0
C906 C 0.01409 0.74288 0.5153 0.0
C907 C 0.96538 0.75929 0.48542 0.0
C908 C 0.98511 0.76075 0.4833 0.0
C909 C 0.04241 0.76308 0.46881 0.0
C910 C 0.02268 0.76273 0.47521 0.0
H911 H 0.92934 0.80065 0.49303 0.0
H912 H 0.96171 0.8023 0.49929 0.0
H913 H 0.98926 0.72637 0.55049 0.0
H914 H 0.07719 0.71967 0.45199 0.0
H915 H 0.04488 0.71962 0.46021 0.0
C916 C 0.57035 0.78288 0.95103 0.0
C917 C 0.57924 0.75829 0.96156 0.0
C918 C 0.55182 0.78358 0.9448 0.0
C919 C 0.51188 0.74173 0.91175 0.0
H920 H 0.48804 0.79594 0.023 0.0
C921 C 0.43686 0.73672 0.97917 0.0
C922 C 0.42732 0.76103 0.98402 0.0
C923 C 0.45527 0.73693 0.96794 0.0
C924 C 0.49444 0.78097 -0.00937 0.0
H925 H 0.57569 0.715 0.971 0.0
H926 H 0.54327 0.71627 0.96052 0.0
H927 H 0.52042 0.79521 0.01769 0.0
H928 H 0.42951 0.80461 0.97802 0.0
H929 H 0.46158 0.80496 0.95728 0.0
H930 H 0.48583 0.72735 0.88523 0.0
C931 C 0.55067 0.73499 0.95673 0.0
C932 C 0.51303 0.78053 -0.01233 0.0
C933 C 0.56924 0.73429 0.9631 0.0
C934 C 0.4365 0.78553 0.9752 0.0
C935 C 0.4549 0.78573 0.96365 0.0
C936 C 0.49324 0.74223 0.91448 0.0
C937 C 0.54175 0.75971 0.94882 0.0
C938 C 0.52197 0.7608 0.94866 0.0
C939 C 0.46455 0.76145 0.96098 0.0
C940 C 0.48431 0.76173 0.95445 0.0
H941 H 0.57765 0.80174 0.94907 0.0
H942 H 0.54534 0.80288 0.93764 0.0
H943 H 0.51839 0.72647 0.88062 0.0
H944 H 0.4302 0.71749 -0.01422 0.0
H945 H 0.4623 0.71787 0.967 0.0
C946 C 0.43792 0.2327 0.00734 0.0
C947 C 0.42765 0.25639 0.00846 0.0
C948 C 0.45645 0.23401 0.01526 0.0
C949 C 0.49366 0.2808 -0.01247 0.0
H950 H 0.52092 0.22932 0.09462 0.0
C951 C 0.57017 0.28822 0.00528 0.0
C952 C 0.57953 0.26384 -0.00132 0.0
C953 C 0.5517 0.28812 0.01558 0.0
C954 C 0.5135 0.24374 0.06408 0.0
H955 H 0.42869 0.29987 0.02184 0.0
H956 H 0.46088 0.30203 0.03573 0.0
H957 H 0.48837 0.22705 0.09564 0.0
H958 H 0.57691 0.22022 -0.00053 0.0
H959 H 0.5448 0.22008 0.01584 0.0
H960 H 0.51864 0.29708 0.95428 0.0
C961 C 0.45467 0.28253 0.02777 0.0
C962 C 0.49487 0.24243 0.06475 0.0
C963 C 0.43621 0.28124 0.02009 0.0
C964 C 0.57012 0.23939 0.00438 0.0
C965 C 0.55168 0.23929 0.0143 0.0
C966 C 0.51225 0.28202 -0.01349 0.0
C967 C 0.46503 0.25902 0.02421 0.0
C968 C 0.48477 0.26085 0.02613 0.0
C969 C 0.5422 0.26364 0.01918 0.0
C970 C 0.52242 0.26338 0.02432 0.0
H971 H 0.43171 0.21325 -0.00136 0.0
H972 H 0.46411 0.21556 0.01191 0.0
H973 H 0.48624 0.29503 0.95636 0.0
H974 H 0.57706 0.3074 0.00167 0.0
H975 H 0.54485 0.30725 0.02025 0.0
loop_
_geom_bond_atom_site_label_1
_geom_bond_atom_site_label_2
_geom_bond_distance
_geom_bond_site_symmetry_2
_ccdc_geom_bond_type
Zn0 O1 2.055 . S
Zn0 O8 2.046 . S
Zn0 N16 2.036 . S
Zn0 O28 2.053 . S
Zn0 O30 2.066 . S
O1 Zn0 2.055 . S
O1 C4 1.259 . S
C2 O30 1.256 . S
C2 O31 1.244 . S
Zn3 O5 2.046 . S
Zn3 O7 2.055 . S
Zn3 N9 2.036 . S
Zn3 O27 2.066 . S
Zn3 O31 2.053 . S
C4 O1 1.259 . S
C4 O5 1.254 . S
O5 Zn3 2.046 . S
O5 C4 1.254 . S
C6 O27 1.256 . S
C6 O28 1.244 . S
O7 Zn3 2.055 . S
O7 C29 1.259 . S
O8 Zn0 2.046 . S
O8 C29 1.254 . S
N9 Zn3 2.036 . S
N9 C10 1.298 . S
N9 N12 1.398 . S
C10 N9 1.298 . S
C10 N13 1.367 . S
C10 C23 1.481 . S
C11 N12 1.299 . S
C11 N13 1.379 . S
N12 N9 1.398 . S
N12 C11 1.299 . S
N13 C10 1.367 . S
N13 C11 1.379 . S
C14 N16 1.298 . S
C14 N18 1.367 . S
C14 C22 1.481 . S
C15 N17 1.299 . S
C15 N18 1.379 . S
N16 Zn0 2.036 . S
N16 C14 1.298 . S
N16 N17 1.398 . S
N17 C15 1.299 . S
N17 N16 1.398 . S
N18 C14 1.367 . S
N18 C15 1.379 . S
H19 C22 0.980 . S
H20 C22 0.981 . S
H21 C22 0.981 . S
C22 C14 1.481 . S
C22 H19 0.980 . S
C22 H20 0.981 . S
C22 H21 0.981 . S
C23 C10 1.481 . S
C23 H24 0.980 . S
C23 H25 0.981 . S
C23 H26 0.981 . S
H24 C23 0.980 . S
H25 C23 0.981 . S
H26 C23 0.981 . S
O27 Zn3 2.066 . S
O27 C6 1.256 . S
O28 Zn0 2.053 . S
O28 C6 1.244 . S
C29 O7 1.259 . S
C29 O8 1.254 . S
O30 Zn0 2.066 . S
O30 C2 1.256 . S
O31 C2 1.244 . S
O31 Zn3 2.053 . S
Zn32 O33 2.055 . S
Zn32 O40 2.046 . S
Zn32 N48 2.036 . S
Zn32 O60 2.053 . S
Zn32 O62 2.066 . S
O33 Zn32 2.055 . S
O33 C36 1.259 . S
C34 O62 1.256 . S
C34 O63 1.244 . S
Zn35 O37 2.046 . S
Zn35 O39 2.055 . S
Zn35 N41 2.036 . S
Zn35 O59 2.066 . S
Zn35 O63 2.053 . S
C36 O33 1.259 . S
C36 O37 1.254 . S
O37 Zn35 2.046 . S
O37 C36 1.254 . S
C38 O59 1.256 . S
C38 O60 1.244 . S
O39 Zn35 2.055 . S
O39 C61 1.259 . S
O40 Zn32 2.046 . S
O40 C61 1.254 . S
N41 Zn35 2.036 . S
N41 C42 1.298 . S
N41 N44 1.398 . S
C42 N41 1.298 . S
C42 N45 1.367 . S
C42 C55 1.481 . S
C43 N44 1.299 . S
C43 N45 1.379 . S
N44 N41 1.398 . S
N44 C43 1.299 . S
N45 C42 1.367 . S
N45 C43 1.379 . S
C46 N48 1.298 . S
C46 N50 1.367 . S
C46 C54 1.481 . S
C47 N49 1.299 . S
C47 N50 1.379 . S
N48 Zn32 2.036 . S
N48 C46 1.298 . S
N48 N49 1.398 . S
N49 C47 1.299 . S
N49 N48 1.398 . S
N50 C46 1.367 . S
N50 C47 1.379 . S
H51 C54 0.980 . S
H52 C54 0.981 . S
H53 C54 0.981 . S
C54 C46 1.481 . S
C54 H51 0.980 . S
C54 H52 0.981 . S
C54 H53 0.981 . S
C55 C42 1.481 . S
C55 H56 0.980 . S
C55 H57 0.981 . S
C55 H58 0.981 . S
H56 C55 0.980 . S
H57 C55 0.981 . S
H58 C55 0.981 . S
O59 Zn35 2.066 . S
O59 C38 1.256 . S
O60 Zn32 2.053 . S
O60 C38 1.244 . S
C61 O39 1.259 . S
C61 O40 1.254 . S
O62 Zn32 2.066 . S
O62 C34 1.256 . S
O63 C34 1.244 . S
O63 Zn35 2.053 . S
Zn64 O65 2.055 . S
Zn64 O72 2.046 . S
Zn64 N80 2.036 . S
Zn64 O92 2.053 . S
Zn64 O94 2.066 . S
O65 Zn64 2.055 . S
O65 C68 1.259 . S
C66 O94 1.256 . S
C66 O95 1.244 . S
Zn67 O69 2.046 . S
Zn67 O71 2.055 . S
Zn67 N73 2.036 . S
Zn67 O91 2.066 . S
Zn67 O95 2.053 . S
C68 O65 1.259 . S
C68 O69 1.254 . S
O69 Zn67 2.046 . S
O69 C68 1.254 . S
C70 O91 1.256 . S
C70 O92 1.244 . S
O71 Zn67 2.055 . S
O71 C93 1.259 . S
O72 Zn64 2.046 . S
O72 C93 1.254 . S
N73 Zn67 2.036 . S
N73 C74 1.298 . S
N73 N76 1.398 . S
C74 N73 1.298 . S
C74 N77 1.367 . S
C74 C87 1.481 . S
C75 N76 1.299 . S
C75 N77 1.379 . S
N76 N73 1.398 . S
N76 C75 1.299 . S
N77 C74 1.367 . S
N77 C75 1.379 . S
C78 N80 1.298 . S
C78 N82 1.367 . S
C78 C86 1.481 . S
C79 N81 1.299 . S
C79 N82 1.379 . S
N80 Zn64 2.036 . S
N80 C78 1.298 . S
N80 N81 1.398 . S
N81 C79 1.299 . S
N81 N80 1.398 . S
N82 C78 1.367 . S
N82 C79 1.379 . S
H83 C86 0.980 . S
H84 C86 0.981 . S
H85 C86 0.981 . S
C86 C78 1.481 . S
C86 H83 0.980 . S
C86 H84 0.981 . S
C86 H85 0.981 . S
C87 C74 1.481 . S
C87 H88 0.980 . S
C87 H89 0.981 . S
C87 H90 0.981 . S
H88 C87 0.980 . S
H89 C87 0.981 . S
H90 C87 0.981 . S
O91 Zn67 2.066 . S
O91 C70 1.256 . S
O92 Zn64 2.053 . S
O92 C70 1.244 . S
C93 O71 1.259 . S
C93 O72 1.254 . S
O94 Zn64 2.066 . S
O94 C66 1.256 . S
O95 C66 1.244 . S
O95 Zn67 2.053 . S
Zn96 O97 2.055 . S
Zn96 O104 2.046 . S
Zn96 N112 2.036 . S
Zn96 O124 2.053 . S
Zn96 O126 2.066 . S
O97 Zn96 2.055 . S
O97 C100 1.259 . S
C98 O126 1.256 . S
C98 O127 1.244 . S
Zn99 O101 2.046 . S
Zn99 O103 2.055 . S
Zn99 N105 2.036 . S
Zn99 O123 2.066 . S
Zn99 O127 2.053 . S
C100 O97 1.259 . S
C100 O101 1.254 . S
O101 Zn99 2.046 . S
O101 C100 1.254 . S
C102 O123 1.256 . S
C102 O124 1.244 . S
O103 Zn99 2.055 . S
O103 C125 1.259 . S
O104 Zn96 2.046 . S
O104 C125 1.254 . S
N105 Zn99 2.036 . S
N105 C106 1.298 . S
N105 N108 1.398 . S
C106 N105 1.298 . S
C106 N109 1.367 . S
C106 C119 1.481 . S
C107 N108 1.299 . S
C107 N109 1.379 . S
N108 N105 1.398 . S
N108 C107 1.299 . S
N109 C106 1.367 . S
N109 C107 1.379 . S
C110 N112 1.298 . S
C110 N114 1.367 . S
C110 C118 1.481 . S
C111 N113 1.299 . S
C111 N114 1.379 . S
N112 Zn96 2.036 . S
N112 C110 1.298 . S
N112 N113 1.398 . S
N113 C111 1.299 . S
N113 N112 1.398 . S
N114 C110 1.367 . S
N114 C111 1.379 . S
H115 C118 0.980 . S
H116 C118 0.981 . S
H117 C118 0.981 . S
C118 C110 1.481 . S
C118 H115 0.980 . S
C118 H116 0.981 . S
C118 H117 0.981 . S
C119 C106 1.481 . S
C119 H120 0.980 . S
C119 H121 0.981 . S
C119 H122 0.981 . S
H120 C119 0.980 . S
H121 C119 0.981 . S
H122 C119 0.981 . S
O123 Zn99 2.066 . S
O123 C102 1.256 . S
O124 Zn96 2.053 . S
O124 C102 1.244 . S
C125 O103 1.259 . S
C125 O104 1.254 . S
O126 Zn96 2.066 . S
O126 C98 1.256 . S
O127 C98 1.244 . S
O127 Zn99 2.053 . S
Zn128 O129 2.055 . S
Zn128 O136 2.046 . S
Zn128 N144 2.036 . S
Zn128 O156 2.053 1_554 S
Zn128 O158 2.066 . S
O129 Zn128 2.055 . S
O129 C132 1.259 . S
C130 O158 1.256 . S
C130 O159 1.244 . S
Zn131 O133 2.046 . S
Zn131 O135 2.055 . S
Zn131 N137 2.036 . S
Zn131 O155 2.066 1_554 S
Zn131 O159 2.053 . S
C132 O129 1.259 . S
C132 O133 1.254 . S
O133 Zn131 2.046 . S
O133 C132 1.254 . S
C134 O155 1.256 . S
C134 O156 1.244 . S
O135 Zn131 2.055 . S
O135 C157 1.259 . S
O136 Zn128 2.046 . S
O136 C157 1.254 . S
N137 Zn131 2.036 . S
N137 C138 1.298 . S
N137 N140 1.398 . S
C138 N137 1.298 . S
C138 N141 1.367 . S
C138 C151 1.481 . S
C139 N140 1.299 . S
C139 N141 1.379 . S
N140 N137 1.398 . S
N140 C139 1.299 . S
N141 C138 1.367 . S
N141 C139 1.379 . S
C142 N144 1.298 . S
C142 N146 1.367 . S
C142 C150 1.481 . S
C143 N145 1.299 . S
C143 N146 1.379 1_556 S
N144 Zn128 2.036 . S
N144 C142 1.298 . S
N144 N145 1.398 1_554 S
N145 C143 1.299 . S
N145 N144 1.398 1_556 S
N146 C142 1.367 . S
N146 C143 1.379 1_554 S
H147 C150 0.980 . S
H148 C150 0.981 . S
H149 C150 0.981 . S
C150 C142 1.481 . S
C150 H147 0.980 . S
C150 H148 0.981 . S
C150 H149 0.981 . S
C151 C138 1.481 . S
C151 H152 0.980 . S
C151 H153 0.981 . S
C151 H154 0.981 1_554 S
H152 C151 0.980 . S
H153 C151 0.981 . S
H154 C151 0.981 1_556 S
O155 Zn131 2.066 1_556 S
O155 C134 1.256 . S
O156 Zn128 2.053 1_556 S
O156 C134 1.244 . S
C157 O135 1.259 . S
C157 O136 1.254 . S
O158 Zn128 2.066 . S
O158 C130 1.256 . S
O159 C130 1.244 . S
O159 Zn131 2.053 . S
Zn160 O161 2.055 . S
Zn160 O168 2.046 . S
Zn160 N176 2.036 . S
Zn160 O188 2.053 1_554 S
Zn160 O190 2.066 . S
O161 Zn160 2.055 . S
O161 C164 1.259 . S
C162 O190 1.256 . S
C162 O191 1.244 . S
Zn163 O165 2.046 . S
Zn163 O167 2.055 . S
Zn163 N169 2.036 . S
Zn163 O187 2.066 1_554 S
Zn163 O191 2.053 . S
C164 O161 1.259 . S
C164 O165 1.254 . S
O165 Zn163 2.046 . S
O165 C164 1.254 . S
C166 O187 1.256 . S
C166 O188 1.244 . S
O167 Zn163 2.055 . S
O167 C189 1.259 . S
O168 Zn160 2.046 . S
O168 C189 1.254 . S
N169 Zn163 2.036 . S
N169 C170 1.298 . S
N169 N172 1.398 . S
C170 N169 1.298 . S
C170 N173 1.367 . S
C170 C183 1.481 . S
C171 N172 1.299 . S
C171 N173 1.379 . S
N172 N169 1.398 . S
N172 C171 1.299 . S
N173 C170 1.367 . S
N173 C171 1.379 . S
C174 N176 1.298 . S
C174 N178 1.367 . S
C174 C182 1.481 . S
C175 N177 1.299 . S
C175 N178 1.379 1_556 S
N176 Zn160 2.036 . S
N176 C174 1.298 . S
N176 N177 1.398 1_554 S
N177 C175 1.299 . S
N177 N176 1.398 1_556 S
N178 C174 1.367 . S
N178 C175 1.379 1_554 S
H179 C182 0.980 . S
H180 C182 0.981 . S
H181 C182 0.981 . S
C182 C174 1.481 . S
C182 H179 0.980 . S
C182 H180 0.981 . S
C182 H181 0.981 . S
C183 C170 1.481 . S
C183 H184 0.980 . S
C183 H185 0.981 . S
C183 H186 0.981 1_554 S
H184 C183 0.980 . S
H185 C183 0.981 . S
H186 C183 0.981 1_556 S
O187 Zn163 2.066 1_556 S
O187 C166 1.256 . S
O188 Zn160 2.053 1_556 S
O188 C166 1.244 . S
C189 O167 1.259 . S
C189 O168 1.254 . S
O190 Zn160 2.066 . S
O190 C162 1.256 . S
O191 C162 1.244 . S
O191 Zn163 2.053 . S
Zn192 O193 2.055 . S
Zn192 O200 2.046 . S
Zn192 N208 2.036 . S
Zn192 O220 2.053 . S
Zn192 O222 2.066 1_556 S
O193 Zn192 2.055 . S
O193 C196 1.259 . S
C194 O222 1.256 . S
C194 O223 1.244 . S
Zn195 O197 2.046 . S
Zn195 O199 2.055 . S
Zn195 N201 2.036 . S
Zn195 O219 2.066 . S
Zn195 O223 2.053 1_556 S
C196 O193 1.259 . S
C196 O197 1.254 . S
O197 Zn195 2.046 . S
O197 C196 1.254 . S
C198 O219 1.256 . S
C198 O220 1.244 . S
O199 Zn195 2.055 . S
O199 C221 1.259 . S
O200 Zn192 2.046 . S
O200 C221 1.254 . S
N201 Zn195 2.036 . S
N201 C202 1.298 . S
N201 N204 1.398 1_556 S
C202 N201 1.298 . S
C202 N205 1.367 . S
C202 C215 1.481 . S
C203 N204 1.299 . S
C203 N205 1.379 1_554 S
N204 N201 1.398 1_554 S
N204 C203 1.299 . S
N205 C202 1.367 . S
N205 C203 1.379 1_556 S
C206 N208 1.298 . S
C206 N210 1.367 . S
C206 C214 1.481 . S
C207 N209 1.299 . S
C207 N210 1.379 . S
N208 Zn192 2.036 . S
N208 C206 1.298 . S
N208 N209 1.398 . S
N209 C207 1.299 . S
N209 N208 1.398 . S
N210 C206 1.367 . S
N210 C207 1.379 . S
H211 C214 0.980 . S
H212 C214 0.981 . S
H213 C214 0.981 1_554 S
C214 C206 1.481 . S
C214 H211 0.980 . S
C214 H212 0.981 . S
C214 H213 0.981 1_556 S
C215 C202 1.481 . S
C215 H216 0.980 . S
C215 H217 0.981 . S
C215 H218 0.981 . S
H216 C215 0.980 . S
H217 C215 0.981 . S
H218 C215 0.981 . S
O219 Zn195 2.066 . S
O219 C198 1.256 . S
O220 Zn192 2.053 . S
O220 C198 1.244 . S
C221 O199 1.259 . S
C221 O200 1.254 . S
O222 Zn192 2.066 1_554 S
O222 C194 1.256 . S
O223 C194 1.244 . S
O223 Zn195 2.053 1_554 S
Zn224 O225 2.055 . S
Zn224 O232 2.046 . S
Zn224 N240 2.036 . S
Zn224 O252 2.053 . S
Zn224 O254 2.066 1_556 S
O225 Zn224 2.055 . S
O225 C228 1.259 . S
C226 O254 1.256 . S
C226 O255 1.244 . S
Zn227 O229 2.046 . S
Zn227 O231 2.055 . S
Zn227 N233 2.036 . S
Zn227 O251 2.066 . S
Zn227 O255 2.053 1_556 S
C228 O225 1.259 . S
C228 O229 1.254 . S
O229 Zn227 2.046 . S
O229 C228 1.254 . S
C230 O251 1.256 . S
C230 O252 1.244 . S
O231 Zn227 2.055 . S
O231 C253 1.259 . S
O232 Zn224 2.046 . S
O232 C253 1.254 . S
N233 Zn227 2.036 . S
N233 C234 1.298 . S
N233 N236 1.398 1_556 S
C234 N233 1.298 . S
C234 N237 1.367 . S
C234 C247 1.481 . S
C235 N236 1.299 . S
C235 N237 1.379 1_554 S
N236 N233 1.398 1_554 S
N236 C235 1.299 . S
N237 C234 1.367 . S
N237 C235 1.379 1_556 S
C238 N240 1.298 . S
C238 N242 1.367 . S
C238 C246 1.481 . S
C239 N241 1.299 . S
C239 N242 1.379 . S
N240 Zn224 2.036 . S
N240 C238 1.298 . S
N240 N241 1.398 . S
N241 C239 1.299 . S
N241 N240 1.398 . S
N242 C238 1.367 . S
N242 C239 1.379 . S
H243 C246 0.980 . S
H244 C246 0.981 . S
H245 C246 0.981 1_554 S
C246 C238 1.481 . S
C246 H243 0.980 . S
C246 H244 0.981 . S
C246 H245 0.981 1_556 S
C247 C234 1.481 . S
C247 H248 0.980 . S
C247 H249 0.981 . S
C247 H250 0.981 . S
H248 C247 0.980 . S
H249 C247 0.981 . S
H250 C247 0.981 . S
O251 Zn227 2.066 . S
O251 C230 1.256 . S
O252 Zn224 2.053 . S
O252 C230 1.244 . S
C253 O231 1.259 . S
C253 O232 1.254 . S
O254 Zn224 2.066 1_554 S
O254 C226 1.256 . S
O255 C226 1.244 . S
O255 Zn227 2.053 1_554 S
C256 C257 1.349 . S
C256 C258 1.327 . S
C256 H281 0.950 . S
C257 C256 1.349 . S
C257 C273 1.349 . S
C258 C256 1.327 . S
C258 C277 1.429 . S
C258 H282 0.950 . S
C259 C276 1.574 . S
C259 C278 1.368 . S
C259 H283 0.949 . S
H260 C264 0.949 . S
C261 C262 1.349 . S
C261 C263 1.327 . S
C261 H284 0.950 . S
C262 C261 1.349 . S
C262 C274 1.349 . S
C263 C261 1.327 . S
C263 C279 1.429 . S
C263 H285 0.950 . S
C264 H260 0.949 . S
C264 C272 1.574 . S
C264 C280 1.368 . S
H265 C273 0.950 . S
H266 C271 0.950 . S
H267 C272 0.949 . S
H268 C274 0.950 . S
H269 C275 0.950 . S
H270 C276 0.949 . S
C271 H266 0.950 . S
C271 C273 1.327 . S
C271 C277 1.429 . S
C272 C264 1.574 . S
C272 H267 0.949 . S
C272 C278 1.368 . S
C273 C257 1.349 . S
C273 H265 0.950 . S
C273 C271 1.327 . S
C274 C262 1.349 . S
C274 H268 0.950 . S
C274 C275 1.327 . S
C275 H269 0.950 . S
C275 C274 1.327 . S
C275 C279 1.429 . S
C276 C259 1.574 . S
C276 H270 0.949 . S
C276 C280 1.368 . S
C277 C258 1.429 . S
C277 C271 1.429 . S
C277 C278 1.523 . S
C278 C259 1.368 . S
C278 C272 1.368 . S
C278 C277 1.523 . S
C279 C263 1.429 . S
C279 C275 1.429 . S
C279 C280 1.523 . S
C280 C264 1.368 . S
C280 C276 1.368 . S
C280 C279 1.523 . S
H281 C256 0.950 . S
H282 C258 0.950 . S
H283 C259 0.949 . S
H284 C261 0.950 . S
H285 C263 0.950 . S
C286 C287 1.349 . S
C286 C288 1.327 . S
C286 H311 0.950 . S
C287 C286 1.349 . S
C287 C303 1.349 . S
C288 C286 1.327 . S
C288 C307 1.429 . S
C288 H312 0.950 . S
C289 C306 1.574 . S
C289 C308 1.368 . S
C289 H313 0.949 . S
H290 C294 0.949 . S
C291 C292 1.349 . S
C291 C293 1.327 . S
C291 H314 0.950 . S
C292 C291 1.349 . S
C292 C304 1.349 . S
C293 C291 1.327 . S
C293 C309 1.429 . S
C293 H315 0.950 . S
C294 H290 0.949 . S
C294 C302 1.574 . S
C294 C310 1.368 . S
H295 C303 0.950 . S
H296 C301 0.950 . S
H297 C302 0.949 . S
H298 C304 0.950 . S
H299 C305 0.950 . S
H300 C306 0.949 . S
C301 H296 0.950 . S
C301 C303 1.327 . S
C301 C307 1.429 . S
C302 C294 1.574 . S
C302 H297 0.949 . S
C302 C308 1.368 . S
C303 C287 1.349 . S
C303 H295 0.950 . S
C303 C301 1.327 . S
C304 C292 1.349 . S
C304 H298 0.950 . S
C304 C305 1.327 . S
C305 H299 0.950 . S
C305 C304 1.327 . S
C305 C309 1.429 . S
C306 C289 1.574 . S
C306 H300 0.949 . S
C306 C310 1.368 . S
C307 C288 1.429 . S
C307 C301 1.429 . S
C307 C308 1.523 . S
C308 C289 1.368 . S
C308 C302 1.368 . S
C308 C307 1.523 . S
C309 C293 1.429 . S
C309 C305 1.429 . S
C309 C310 1.523 . S
C310 C294 1.368 . S
C310 C306 1.368 . S
C310 C309 1.523 . S
H311 C286 0.950 . S
H312 C288 0.950 . S
H313 C289 0.949 . S
H314 C291 0.950 . S
H315 C293 0.950 . S
C316 C317 1.349 . S
C316 C318 1.327 . S
C316 H341 0.950 . S
C317 C316 1.349 . S
C317 C333 1.349 . S
C318 C316 1.327 . S
C318 C337 1.429 . S
C318 H342 0.950 . S
C319 C336 1.574 . S
C319 C338 1.368 . S
C319 H343 0.949 . S
H320 C324 0.949 . S
C321 C322 1.349 . S
C321 C323 1.327 . S
C321 H344 0.950 . S
C322 C321 1.349 . S
C322 C334 1.349 . S
C323 C321 1.327 . S
C323 C339 1.429 . S
C323 H345 0.950 . S
C324 H320 0.949 . S
C324 C332 1.574 . S
C324 C340 1.368 . S
H325 C333 0.950 . S
H326 C331 0.950 . S
H327 C332 0.949 . S
H328 C334 0.950 . S
H329 C335 0.950 . S
H330 C336 0.949 . S
C331 H326 0.950 . S
C331 C333 1.327 . S
C331 C337 1.429 . S
C332 C324 1.574 . S
C332 H327 0.949 . S
C332 C338 1.368 . S
C333 C317 1.349 . S
C333 H325 0.950 . S
C333 C331 1.327 . S
C334 C322 1.349 . S
C334 H328 0.950 . S
C334 C335 1.327 . S
C335 H329 0.950 . S
C335 C334 1.327 . S
C335 C339 1.429 . S
C336 C319 1.574 . S
C336 H330 0.949 . S
C336 C340 1.368 . S
C337 C318 1.429 . S
C337 C331 1.429 . S
C337 C338 1.523 . S
C338 C319 1.368 . S
C338 C332 1.368 . S
C338 C337 1.523 . S
C339 C323 1.429 . S
C339 C335 1.429 . S
C339 C340 1.523 . S
C340 C324 1.368 . S
C340 C336 1.368 . S
C340 C339 1.523 . S
H341 C316 0.950 . S
H342 C318 0.950 . S
H343 C319 0.949 . S
H344 C321 0.950 . S
H345 C323 0.950 . S
C346 C347 1.349 . S
C346 C348 1.327 . S
C346 H371 0.950 . S
C347 C346 1.349 . S
C347 C363 1.349 . S
C348 C346 1.327 . S
C348 C367 1.429 . S
C348 H372 0.950 . S
C349 C366 1.574 . S
C349 C368 1.368 . S
C349 H373 0.949 . S
H350 C354 0.949 . S
C351 C352 1.349 . S
C351 C353 1.327 . S
C351 H374 0.950 . S
C352 C351 1.349 . S
C352 C364 1.349 . S
C353 C351 1.327 . S
C353 C369 1.429 . S
C353 H375 0.950 . S
C354 H350 0.949 . S
C354 C362 1.574 . S
C354 C370 1.368 . S
H355 C363 0.950 . S
H356 C361 0.950 . S
H357 C362 0.949 . S
H358 C364 0.950 . S
H359 C365 0.950 . S
H360 C366 0.949 . S
C361 H356 0.950 . S
C361 C363 1.327 . S
C361 C367 1.429 . S
C362 C354 1.574 . S
C362 H357 0.949 . S
C362 C368 1.368 . S
C363 C347 1.349 . S
C363 H355 0.950 . S
C363 C361 1.327 . S
C364 C352 1.349 . S
C364 H358 0.950 . S
C364 C365 1.327 . S
C365 H359 0.950 . S
C365 C364 1.327 . S
C365 C369 1.429 . S
C366 C349 1.574 . S
C366 H360 0.949 . S
C366 C370 1.368 . S
C367 C348 1.429 . S
C367 C361 1.429 . S
C367 C368 1.523 . S
C368 C349 1.368 . S
C368 C362 1.368 . S
C368 C367 1.523 . S
C369 C353 1.429 . S
C369 C365 1.429 . S
C369 C370 1.523 . S
C370 C354 1.368 . S
C370 C366 1.368 . S
C370 C369 1.523 . S
H371 C346 0.950 . S
H372 C348 0.950 . S
H373 C349 0.949 . S
H374 C351 0.950 . S
H375 C353 0.950 . S
C376 C377 1.349 . S
C376 C378 1.327 . S
C376 H401 0.950 . S
C377 C376 1.349 . S
C377 C393 1.349 . S
C378 C376 1.327 . S
C378 C397 1.429 . S
C378 H402 0.950 . S
C379 C396 1.574 1_565 S
C379 C398 1.368 . S
C379 H403 0.949 . S
H380 C384 0.949 . S
C381 C382 1.349 . S
C381 C383 1.327 . S
C381 H404 0.950 . S
C382 C381 1.349 . S
C382 C394 1.349 . S
C383 C381 1.327 . S
C383 C399 1.429 . S
C383 H405 0.950 . S
C384 H380 0.949 . S
C384 C392 1.574 1_545 S
C384 C400 1.368 . S
H385 C393 0.950 . S
H386 C391 0.950 . S
H387 C392 0.949 . S
H388 C394 0.950 . S
H389 C395 0.950 . S
H390 C396 0.949 . S
C391 H386 0.950 . S
C391 C393 1.327 . S
C391 C397 1.429 . S
C392 C384 1.574 1_565 S
C392 H387 0.949 . S
C392 C398 1.368 . S
C393 C377 1.349 . S
C393 H385 0.950 . S
C393 C391 1.327 . S
C394 C382 1.349 . S
C394 H388 0.950 . S
C394 C395 1.327 . S
C395 H389 0.950 . S
C395 C394 1.327 . S
C395 C399 1.429 . S
C396 C379 1.574 1_545 S
C396 H390 0.949 . S
C396 C400 1.368 . S
C397 C378 1.429 . S
C397 C391 1.429 . S
C397 C398 1.523 . S
C398 C379 1.368 . S
C398 C392 1.368 . S
C398 C397 1.523 . S
C399 C383 1.429 . S
C399 C395 1.429 . S
C399 C400 1.523 . S
C400 C384 1.368 . S
C400 C396 1.368 . S
C400 C399 1.523 . S
H401 C376 0.950 . S
H402 C378 0.950 . S
H403 C379 0.949 . S
H404 C381 0.950 . S
H405 C383 0.950 . S
C406 C407 1.349 . S
C406 C408 1.327 . S
C406 H431 0.950 . S
C407 C406 1.349 . S
C407 C423 1.349 . S
C408 C406 1.327 . S
C408 C427 1.429 . S
C408 H432 0.950 . S
C409 C426 1.574 . S
C409 C428 1.368 . S
C409 H433 0.949 . S
H410 C414 0.949 . S
C411 C412 1.349 . S
C411 C413 1.327 . S
C411 H434 0.950 . S
C412 C411 1.349 . S
C412 C424 1.349 . S
C413 C411 1.327 . S
C413 C429 1.429 . S
C413 H435 0.950 . S
C414 H410 0.949 . S
C414 C422 1.574 . S
C414 C430 1.368 . S
H415 C423 0.950 . S
H416 C421 0.950 . S
H417 C422 0.949 . S
H418 C424 0.950 . S
H419 C425 0.950 . S
H420 C426 0.949 . S
C421 H416 0.950 . S
C421 C423 1.327 . S
C421 C427 1.429 . S
C422 C414 1.574 . S
C422 H417 0.949 . S
C422 C428 1.368 . S
C423 C407 1.349 . S
C423 H415 0.950 . S
C423 C421 1.327 . S
C424 C412 1.349 . S
C424 H418 0.950 . S
C424 C425 1.327 . S
C425 H419 0.950 . S
C425 C424 1.327 . S
C425 C429 1.429 . S
C426 C409 1.574 . S
C426 H420 0.949 . S
C426 C430 1.368 . S
C427 C408 1.429 . S
C427 C421 1.429 . S
C427 C428 1.523 . S
C428 C409 1.368 . S
C428 C422 1.368 . S
C428 C427 1.523 . S
C429 C413 1.429 . S
C429 C425 1.429 . S
C429 C430 1.523 . S
C430 C414 1.368 . S
C430 C426 1.368 . S
C430 C429 1.523 . S
H431 C406 0.950 . S
H432 C408 0.950 . S
H433 C409 0.949 . S
H434 C411 0.950 . S
H435 C413 0.950 . S
C436 C437 1.349 . S
C436 C438 1.327 . S
C436 H461 0.950 . S
C437 C436 1.349 . S
C437 C453 1.349 . S
C438 C436 1.327 . S
C438 C457 1.429 . S
C438 H462 0.950 . S
C439 C456 1.574 1_565 S
C439 C458 1.368 . S
C439 H463 0.949 . S
H440 C444 0.949 . S
C441 C442 1.349 . S
C441 C443 1.327 . S
C441 H464 0.950 . S
C442 C441 1.349 . S
C442 C454 1.349 . S
C443 C441 1.327 . S
C443 C459 1.429 . S
C443 H465 0.950 . S
C444 H440 0.949 . S
C444 C452 1.574 1_545 S
C444 C460 1.368 . S
H445 C453 0.950 . S
H446 C451 0.950 . S
H447 C452 0.949 . S
H448 C454 0.950 . S
H449 C455 0.950 . S
H450 C456 0.949 . S
C451 H446 0.950 . S
C451 C453 1.327 . S
C451 C457 1.429 . S
C452 C444 1.574 1_565 S
C452 H447 0.949 . S
C452 C458 1.368 . S
C453 C437 1.349 . S
C453 H445 0.950 . S
C453 C451 1.327 . S
C454 C442 1.349 . S
C454 H448 0.950 . S
C454 C455 1.327 . S
C455 H449 0.950 . S
C455 C454 1.327 . S
C455 C459 1.429 . S
C456 C439 1.574 1_545 S
C456 H450 0.949 . S
C456 C460 1.368 . S
C457 C438 1.429 . S
C457 C451 1.429 . S
C457 C458 1.523 . S
C458 C439 1.368 . S
C458 C452 1.368 . S
C458 C457 1.523 . S
C459 C443 1.429 . S
C459 C455 1.429 . S
C459 C460 1.523 . S
C460 C444 1.368 . S
C460 C456 1.368 . S
C460 C459 1.523 . S
H461 C436 0.950 . S
H462 C438 0.950 . S
H463 C439 0.949 . S
H464 C441 0.950 . S
H465 C443 0.950 . S
C466 C467 1.349 . S
C466 C468 1.327 . S
C466 H491 0.950 . S
C467 C466 1.349 . S
C467 C483 1.349 . S
C468 C466 1.327 . S
C468 C487 1.429 . S
C468 H492 0.950 . S
C469 C486 1.574 . S
C469 C488 1.368 . S
C469 H493 0.949 . S
H470 C474 0.949 . S
C471 C472 1.349 . S
C471 C473 1.327 . S
C471 H494 0.950 . S
C472 C471 1.349 . S
C472 C484 1.349 . S
C473 C471 1.327 . S
C473 C489 1.429 . S
C473 H495 0.950 . S
C474 H470 0.949 . S
C474 C482 1.574 . S
C474 C490 1.368 . S
H475 C483 0.950 . S
H476 C481 0.950 . S
H477 C482 0.949 . S
H478 C484 0.950 . S
H479 C485 0.950 . S
H480 C486 0.949 . S
C481 H476 0.950 . S
C481 C483 1.327 . S
C481 C487 1.429 . S
C482 C474 1.574 . S
C482 H477 0.949 . S
C482 C488 1.368 . S
C483 C467 1.349 . S
C483 H475 0.950 . S
C483 C481 1.327 . S
C484 C472 1.349 . S
C484 H478 0.950 . S
C484 C485 1.327 . S
C485 H479 0.950 . S
C485 C484 1.327 . S
C485 C489 1.429 . S
C486 C469 1.574 . S
C486 H480 0.949 . S
C486 C490 1.368 . S
C487 C468 1.429 . S
C487 C481 1.429 . S
C487 C488 1.523 . S
C488 C469 1.368 . S
C488 C482 1.368 . S
C488 C487 1.523 . S
C489 C473 1.429 . S
C489 C485 1.429 . S
C489 C490 1.523 . S
C490 C474 1.368 . S
C490 C486 1.368 . S
C490 C489 1.523 . S
H491 C466 0.950 . S
H492 C468 0.950 . S
H493 C469 0.949 . S
H494 C471 0.950 . S
H495 C473 0.950 . S
C496 C497 1.349 1_556 S
C496 C498 1.327 . S
C496 H521 0.950 . S
C497 C496 1.349 1_554 S
C497 C513 1.349 . S
C498 C496 1.327 . S
C498 C517 1.429 1_556 S
C498 H522 0.950 . S
C499 C516 1.574 . S
C499 C518 1.368 . S
C499 H523 0.949 . S
H500 C504 0.949 . S
C501 C502 1.349 1_554 S
C501 C503 1.327 . S
C501 H524 0.950 . S
C502 C501 1.349 1_556 S
C502 C514 1.349 . S
C503 C501 1.327 . S
C503 C519 1.429 1_554 S
C503 H525 0.950 . S
C504 H500 0.949 . S
C504 C512 1.574 . S
C504 C520 1.368 . S
H505 C513 0.950 . S
H506 C511 0.950 . S
H507 C512 0.949 . S
H508 C514 0.950 . S
H509 C515 0.950 . S
H510 C516 0.949 . S
C511 H506 0.950 . S
C511 C513 1.327 . S
C511 C517 1.429 . S
C512 C504 1.574 . S
C512 H507 0.949 . S
C512 C518 1.368 1_556 S
C513 C497 1.349 . S
C513 H505 0.950 . S
C513 C511 1.327 . S
C514 C502 1.349 . S
C514 H508 0.950 . S
C514 C515 1.327 . S
C515 H509 0.950 . S
C515 C514 1.327 . S
C515 C519 1.429 . S
C516 C499 1.574 . S
C516 H510 0.949 . S
C516 C520 1.368 1_554 S
C517 C498 1.429 1_554 S
C517 C511 1.429 . S
C517 C518 1.523 . S
C518 C499 1.368 . S
C518 C512 1.368 1_554 S
C518 C517 1.523 . S
C519 C503 1.429 1_556 S
C519 C515 1.429 . S
C519 C520 1.523 . S
C520 C504 1.368 . S
C520 C516 1.368 1_556 S
C520 C519 1.523 . S
H521 C496 0.950 . S
H522 C498 0.950 . S
H523 C499 0.949 . S
H524 C501 0.950 . S
H525 C503 0.950 . S
C526 C527 1.349 1_556 S
C526 C528 1.327 . S
C526 H551 0.950 . S
C527 C526 1.349 1_554 S
C527 C543 1.349 . S
C528 C526 1.327 . S
C528 C547 1.429 1_556 S
C528 H552 0.950 . S
C529 C546 1.574 1_565 S
C529 C548 1.368 . S
C529 H553 0.949 . S
H530 C534 0.949 . S
C531 C532 1.349 1_554 S
C531 C533 1.327 . S
C531 H554 0.950 . S
C532 C531 1.349 1_556 S
C532 C544 1.349 . S
C533 C531 1.327 . S
C533 C549 1.429 1_554 S
C533 H555 0.950 . S
C534 H530 0.949 . S
C534 C542 1.574 1_545 S
C534 C550 1.368 . S
H535 C543 0.950 . S
H536 C541 0.950 . S
H537 C542 0.949 . S
H538 C544 0.950 . S
H539 C545 0.950 . S
H540 C546 0.949 . S
C541 H536 0.950 . S
C541 C543 1.327 . S
C541 C547 1.429 . S
C542 C534 1.574 1_565 S
C542 H537 0.949 . S
C542 C548 1.368 1_556 S
C543 C527 1.349 . S
C543 H535 0.950 . S
C543 C541 1.327 . S
C544 C532 1.349 . S
C544 H538 0.950 . S
C544 C545 1.327 . S
C545 H539 0.950 . S
C545 C544 1.327 . S
C545 C549 1.429 . S
C546 C529 1.574 1_545 S
C546 H540 0.949 . S
C546 C550 1.368 1_554 S
C547 C528 1.429 1_554 S
C547 C541 1.429 . S
C547 C548 1.523 . S
C548 C529 1.368 . S
C548 C542 1.368 1_554 S
C548 C547 1.523 . S
C549 C533 1.429 1_556 S
C549 C545 1.429 . S
C549 C550 1.523 . S
C550 C534 1.368 . S
C550 C546 1.368 1_556 S
C550 C549 1.523 . S
H551 C526 0.950 . S
H552 C528 0.950 . S
H553 C529 0.949 . S
H554 C531 0.950 . S
H555 C533 0.950 . S
C556 C557 1.349 . S
C556 C558 1.327 1_556 S
C556 H581 0.950 1_556 S
C557 C556 1.349 . S
C557 C573 1.349 . S
C558 C556 1.327 1_554 S
C558 C577 1.429 1_554 S
C558 H582 0.950 . S
C559 C576 1.574 . S
C559 C578 1.368 . S
C559 H583 0.949 . S
H560 C564 0.949 . S
C561 C562 1.349 . S
C561 C563 1.327 1_554 S
C561 H584 0.950 1_554 S
C562 C561 1.349 . S
C562 C574 1.349 . S
C563 C561 1.327 1_556 S
C563 C579 1.429 1_556 S
C563 H585 0.950 . S
C564 H560 0.949 . S
C564 C572 1.574 . S
C564 C580 1.368 . S
H565 C573 0.950 . S
H566 C571 0.950 . S
H567 C572 0.949 . S
H568 C574 0.950 . S
H569 C575 0.950 . S
H570 C576 0.949 . S
C571 H566 0.950 . S
C571 C573 1.327 . S
C571 C577 1.429 . S
C572 C564 1.574 . S
C572 H567 0.949 . S
C572 C578 1.368 1_554 S
C573 C557 1.349 . S
C573 H565 0.950 . S
C573 C571 1.327 . S
C574 C562 1.349 . S
C574 H568 0.950 . S
C574 C575 1.327 . S
C575 H569 0.950 . S
C575 C574 1.327 . S
C575 C579 1.429 . S
C576 C559 1.574 . S
C576 H570 0.949 . S
C576 C580 1.368 1_556 S
C577 C558 1.429 1_556 S
C577 C571 1.429 . S
C577 C578 1.523 . S
C578 C559 1.368 . S
C578 C572 1.368 1_556 S
C578 C577 1.523 . S
C579 C563 1.429 1_554 S
C579 C575 1.429 . S
C579 C580 1.523 . S
C580 C564 1.368 . S
C580 C576 1.368 1_554 S
C580 C579 1.523 . S
H581 C556 0.950 1_554 S
H582 C558 0.950 . S
H583 C559 0.949 . S
H584 C561 0.950 1_556 S
H585 C563 0.950 . S
C586 C587 1.349 . S
C586 C588 1.327 . S
C586 H611 0.950 . S
C587 C586 1.349 . S
C587 C603 1.349 . S
C588 C586 1.327 . S
C588 C607 1.429 . S
C588 H612 0.950 . S
C589 C606 1.574 1_545 S
C589 C608 1.368 1_554 S
C589 H613 0.949 . S
H590 C594 0.949 . S
C591 C592 1.349 . S
C591 C593 1.327 . S
C591 H614 0.950 . S
C592 C591 1.349 . S
C592 C604 1.349 . S
C593 C591 1.327 . S
C593 C609 1.429 . S
C593 H615 0.950 . S
C594 H590 0.949 . S
C594 C602 1.574 1_565 S
C594 C610 1.368 1_556 S
H595 C603 0.950 1_554 S
H596 C601 0.950 . S
H597 C602 0.949 . S
H598 C604 0.950 1_556 S
H599 C605 0.950 . S
H600 C606 0.949 . S
C601 H596 0.950 . S
C601 C603 1.327 1_554 S
C601 C607 1.429 1_554 S
C602 C594 1.574 1_545 S
C602 H597 0.949 . S
C602 C608 1.368 . S
C603 C587 1.349 . S
C603 H595 0.950 1_556 S
C603 C601 1.327 1_556 S
C604 C592 1.349 . S
C604 H598 0.950 1_554 S
C604 C605 1.327 1_554 S
C605 H599 0.950 . S
C605 C604 1.327 1_556 S
C605 C609 1.429 1_556 S
C606 C589 1.574 1_565 S
C606 H600 0.949 . S
C606 C610 1.368 . S
C607 C588 1.429 . S
C607 C601 1.429 1_556 S
C607 C608 1.523 . S
C608 C589 1.368 1_556 S
C608 C602 1.368 . S
C608 C607 1.523 . S
C609 C593 1.429 . S
C609 C605 1.429 1_554 S
C609 C610 1.523 . S
C610 C594 1.368 1_554 S
C610 C606 1.368 . S
C610 C609 1.523 . S
H611 C586 0.950 . S
H612 C588 0.950 . S
H613 C589 0.949 . S
H614 C591 0.950 . S
H615 C593 0.950 . S
C616 C617 1.349 . S
C616 C618 1.327 . S
C616 H641 0.950 . S
C617 C616 1.349 . S
C617 C633 1.349 . S
C618 C616 1.327 . S
C618 C637 1.429 . S
C618 H642 0.950 . S
C619 C636 1.574 . S
C619 C638 1.368 . S
C619 H643 0.949 . S
H620 C624 0.949 . S
C621 C622 1.349 . S
C621 C623 1.327 . S
C621 H644 0.950 . S
C622 C621 1.349 . S
C622 C634 1.349 . S
C623 C621 1.327 . S
C623 C639 1.429 . S
C623 H645 0.950 . S
C624 H620 0.949 . S
C624 C632 1.574 . S
C624 C640 1.368 . S
H625 C633 0.950 . S
H626 C631 0.950 . S
H627 C632 0.949 . S
H628 C634 0.950 . S
H629 C635 0.950 . S
H630 C636 0.949 . S
C631 H626 0.950 . S
C631 C633 1.327 . S
C631 C637 1.429 . S
C632 C624 1.574 . S
C632 H627 0.949 . S
C632 C638 1.368 . S
C633 C617 1.349 . S
C633 H625 0.950 . S
C633 C631 1.327 . S
C634 C622 1.349 . S
C634 H628 0.950 . S
C634 C635 1.327 . S
C635 H629 0.950 . S
C635 C634 1.327 . S
C635 C639 1.429 . S
C636 C619 1.574 . S
C636 H630 0.949 . S
C636 C640 1.368 . S
C637 C618 1.429 . S
C637 C631 1.429 . S
C637 C638 1.523 . S
C638 C619 1.368 . S
C638 C632 1.368 . S
C638 C637 1.523 . S
C639 C623 1.429 . S
C639 C635 1.429 . S
C639 C640 1.523 1_556 S
C640 C624 1.368 . S
C640 C636 1.368 . S
C640 C639 1.523 1_554 S
H641 C616 0.950 . S
H642 C618 0.950 . S
H643 C619 0.949 . S
H644 C621 0.950 . S
H645 C623 0.950 . S
C646 C647 1.349 . S
C646 C648 1.327 . S
C646 H671 0.950 . S
C647 C646 1.349 . S
C647 C663 1.349 . S
C648 C646 1.327 . S
C648 C667 1.429 . S
C648 H672 0.950 . S
C649 C666 1.574 . S
C649 C668 1.368 . S
C649 H673 0.949 . S
H650 C654 0.949 . S
C651 C652 1.349 . S
C651 C653 1.327 . S
C651 H674 0.950 . S
C652 C651 1.349 . S
C652 C664 1.349 . S
C653 C651 1.327 . S
C653 C669 1.429 . S
C653 H675 0.950 . S
C654 H650 0.949 . S
C654 C662 1.574 . S
C654 C670 1.368 . S
H655 C663 0.950 . S
H656 C661 0.950 . S
H657 C662 0.949 . S
H658 C664 0.950 . S
H659 C665 0.950 . S
H660 C666 0.949 . S
C661 H656 0.950 . S
C661 C663 1.327 . S
C661 C667 1.429 . S
C662 C654 1.574 . S
C662 H657 0.949 . S
C662 C668 1.368 . S
C663 C647 1.349 . S
C663 H655 0.950 . S
C663 C661 1.327 . S
C664 C652 1.349 . S
C664 H658 0.950 . S
C664 C665 1.327 . S
C665 H659 0.950 . S
C665 C664 1.327 . S
C665 C669 1.429 . S
C666 C649 1.574 . S
C666 H660 0.949 . S
C666 C670 1.368 . S
C667 C648 1.429 . S
C667 C661 1.429 . S
C667 C668 1.523 . S
C668 C649 1.368 . S
C668 C662 1.368 . S
C668 C667 1.523 . S
C669 C653 1.429 . S
C669 C665 1.429 . S
C669 C670 1.523 1_556 S
C670 C654 1.368 . S
C670 C666 1.368 . S
C670 C669 1.523 1_554 S
H671 C646 0.950 . S
H672 C648 0.950 . S
H673 C649 0.949 . S
H674 C651 0.950 . S
H675 C653 0.950 . S
C676 C677 1.349 . S
C676 C678 1.327 . S
C676 H701 0.950 . S
C677 C676 1.349 . S
C677 C693 1.349 . S
C678 C676 1.327 . S
C678 C697 1.429 . S
C678 H702 0.950 . S
C679 C696 1.574 . S
C679 C698 1.368 . S
C679 H703 0.949 . S
H680 C684 0.949 . S
C681 C682 1.349 . S
C681 C683 1.327 . S
C681 H704 0.950 . S
C682 C681 1.349 . S
C682 C694 1.349 . S
C683 C681 1.327 . S
C683 C699 1.429 . S
C683 H705 0.950 . S
C684 H680 0.949 . S
C684 C692 1.574 . S
C684 C700 1.368 . S
H685 C693 0.950 . S
H686 C691 0.950 . S
H687 C692 0.949 . S
H688 C694 0.950 . S
H689 C695 0.950 . S
H690 C696 0.949 . S
C691 H686 0.950 . S
C691 C693 1.327 . S
C691 C697 1.429 . S
C692 C684 1.574 . S
C692 H687 0.949 . S
C692 C698 1.368 . S
C693 C677 1.349 . S
C693 H685 0.950 . S
C693 C691 1.327 . S
C694 C682 1.349 . S
C694 H688 0.950 . S
C694 C695 1.327 . S
C695 H689 0.950 . S
C695 C694 1.327 . S
C695 C699 1.429 . S
C696 C679 1.574 . S
C696 H690 0.949 . S
C696 C700 1.368 . S
C697 C678 1.429 . S
C697 C691 1.429 . S
C697 C698 1.523 1_554 S
C698 C679 1.368 . S
C698 C692 1.368 . S
C698 C697 1.523 1_556 S
C699 C683 1.429 . S
C699 C695 1.429 . S
C699 C700 1.523 . S
C700 C684 1.368 . S
C700 C696 1.368 . S
C700 C699 1.523 . S
H701 C676 0.950 . S
H702 C678 0.950 . S
H703 C679 0.949 . S
H704 C681 0.950 . S
H705 C683 0.950 . S
C706 C707 1.349 . S
C706 C708 1.327 . S
C706 H731 0.950 . S
C707 C706 1.349 . S
C707 C723 1.349 . S
C708 C706 1.327 . S
C708 C727 1.429 . S
C708 H732 0.950 . S
C709 C726 1.574 . S
C709 C728 1.368 . S
C709 H733 0.949 . S
H710 C714 0.949 . S
C711 C712 1.349 . S
C711 C713 1.327 . S
C711 H734 0.950 . S
C712 C711 1.349 . S
C712 C724 1.349 . S
C713 C711 1.327 . S
C713 C729 1.429 . S
C713 H735 0.950 . S
C714 H710 0.949 . S
C714 C722 1.574 . S
C714 C730 1.368 . S
H715 C723 0.950 . S
H716 C721 0.950 . S
H717 C722 0.949 . S
H718 C724 0.950 . S
H719 C725 0.950 . S
H720 C726 0.949 . S
C721 H716 0.950 . S
C721 C723 1.327 . S
C721 C727 1.429 . S
C722 C714 1.574 . S
C722 H717 0.949 . S
C722 C728 1.368 . S
C723 C707 1.349 . S
C723 H715 0.950 . S
C723 C721 1.327 . S
C724 C712 1.349 . S
C724 H718 0.950 . S
C724 C725 1.327 . S
C725 H719 0.950 . S
C725 C724 1.327 . S
C725 C729 1.429 . S
C726 C709 1.574 . S
C726 H720 0.949 . S
C726 C730 1.368 . S
C727 C708 1.429 . S
C727 C721 1.429 . S
C727 C728 1.523 . S
C728 C709 1.368 . S
C728 C722 1.368 . S
C728 C727 1.523 . S
C729 C713 1.429 . S
C729 C725 1.429 . S
C729 C730 1.523 1_554 S
C730 C714 1.368 . S
C730 C726 1.368 . S
C730 C729 1.523 1_556 S
H731 C706 0.950 . S
H732 C708 0.950 . S
H733 C709 0.949 . S
H734 C711 0.950 . S
H735 C713 0.950 . S
C736 C737 1.349 . S
C736 C738 1.327 . S
C736 H761 0.950 . S
C737 C736 1.349 . S
C737 C753 1.349 . S
C738 C736 1.327 . S
C738 C757 1.429 . S
C738 H762 0.950 . S
C739 C756 1.574 . S
C739 C758 1.368 . S
C739 H763 0.949 . S
H740 C744 0.949 . S
C741 C742 1.349 . S
C741 C743 1.327 . S
C741 H764 0.950 . S
C742 C741 1.349 . S
C742 C754 1.349 . S
C743 C741 1.327 . S
C743 C759 1.429 . S
C743 H765 0.950 . S
C744 H740 0.949 . S
C744 C752 1.574 . S
C744 C760 1.368 . S
H745 C753 0.950 . S
H746 C751 0.950 . S
H747 C752 0.949 . S
H748 C754 0.950 . S
H749 C755 0.950 . S
H750 C756 0.949 . S
C751 H746 0.950 . S
C751 C753 1.327 . S
C751 C757 1.429 . S
C752 C744 1.574 . S
C752 H747 0.949 . S
C752 C758 1.368 . S
C753 C737 1.349 . S
C753 H745 0.950 . S
C753 C751 1.327 . S
C754 C742 1.349 . S
C754 H748 0.950 . S
C754 C755 1.327 . S
C755 H749 0.950 . S
C755 C754 1.327 . S
C755 C759 1.429 . S
C756 C739 1.574 . S
C756 H750 0.949 . S
C756 C760 1.368 . S
C757 C738 1.429 . S
C757 C751 1.429 . S
C757 C758 1.523 . S
C758 C739 1.368 . S
C758 C752 1.368 . S
C758 C757 1.523 . S
C759 C743 1.429 . S
C759 C755 1.429 . S
C759 C760 1.523 . S
C760 C744 1.368 . S
C760 C756 1.368 . S
C760 C759 1.523 . S
H761 C736 0.950 . S
H762 C738 0.950 . S
H763 C739 0.949 . S
H764 C741 0.950 . S
H765 C743 0.950 . S
C766 C767 1.349 . S
C766 C768 1.327 . S
C766 H791 0.950 . S
C767 C766 1.349 . S
C767 C783 1.349 . S
C768 C766 1.327 . S
C768 C787 1.429 . S
C768 H792 0.950 . S
C769 C786 1.574 . S
C769 C788 1.368 . S
C769 H793 0.949 . S
H770 C774 0.949 . S
C771 C772 1.349 . S
C771 C773 1.327 . S
C771 H794 0.950 . S
C772 C771 1.349 . S
C772 C784 1.349 . S
C773 C771 1.327 . S
C773 C789 1.429 . S
C773 H795 0.950 . S
C774 H770 0.949 . S
C774 C782 1.574 . S
C774 C790 1.368 . S
H775 C783 0.950 . S
H776 C781 0.950 . S
H777 C782 0.949 . S
H778 C784 0.950 . S
H779 C785 0.950 . S
H780 C786 0.949 . S
C781 H776 0.950 . S
C781 C783 1.327 . S
C781 C787 1.429 . S
C782 C774 1.574 . S
C782 H777 0.949 . S
C782 C788 1.368 . S
C783 C767 1.349 . S
C783 H775 0.950 . S
C783 C781 1.327 . S
C784 C772 1.349 . S
C784 H778 0.950 . S
C784 C785 1.327 . S
C785 H779 0.950 . S
C785 C784 1.327 . S
C785 C789 1.429 . S
C786 C769 1.574 . S
C786 H780 0.949 . S
C786 C790 1.368 . S
C787 C768 1.429 . S
C787 C781 1.429 . S
C787 C788 1.523 . S
C788 C769 1.368 . S
C788 C782 1.368 . S
C788 C787 1.523 . S
C789 C773 1.429 . S
C789 C785 1.429 . S
C789 C790 1.523 . S
C790 C774 1.368 . S
C790 C786 1.368 . S
C790 C789 1.523 . S
H791 C766 0.950 . S
H792 C768 0.950 . S
H793 C769 0.949 . S
H794 C771 0.950 . S
H795 C773 0.950 . S
C796 C797 1.349 . S
C796 C798 1.327 . S
C796 H821 0.950 . S
C797 C796 1.349 . S
C797 C813 1.349 . S
C798 C796 1.327 . S
C798 C817 1.429 . S
C798 H822 0.950 . S
C799 C816 1.574 . S
C799 C818 1.368 . S
C799 H823 0.949 . S
H800 C804 0.949 . S
C801 C802 1.349 . S
C801 C803 1.327 . S
C801 H824 0.950 . S
C802 C801 1.349 . S
C802 C814 1.349 . S
C803 C801 1.327 . S
C803 C819 1.429 . S
C803 H825 0.950 . S
C804 H800 0.949 . S
C804 C812 1.574 . S
C804 C820 1.368 . S
H805 C813 0.950 . S
H806 C811 0.950 . S
H807 C812 0.949 . S
H808 C814 0.950 . S
H809 C815 0.950 . S
H810 C816 0.949 . S
C811 H806 0.950 . S
C811 C813 1.327 . S
C811 C817 1.429 . S
C812 C804 1.574 . S
C812 H807 0.949 . S
C812 C818 1.368 . S
C813 C797 1.349 . S
C813 H805 0.950 . S
C813 C811 1.327 . S
C814 C802 1.349 . S
C814 H808 0.950 . S
C814 C815 1.327 . S
C815 H809 0.950 . S
C815 C814 1.327 . S
C815 C819 1.429 . S
C816 C799 1.574 . S
C816 H810 0.949 . S
C816 C820 1.368 . S
C817 C798 1.429 . S
C817 C811 1.429 . S
C817 C818 1.523 . S
C818 C799 1.368 . S
C818 C812 1.368 . S
C818 C817 1.523 . S
C819 C803 1.429 . S
C819 C815 1.429 . S
C819 C820 1.523 . S
C820 C804 1.368 . S
C820 C816 1.368 . S
C820 C819 1.523 . S
H821 C796 0.950 . S
H822 C798 0.950 . S
H823 C799 0.949 . S
H824 C801 0.950 . S
H825 C803 0.950 . S
C826 C827 1.349 . S
C826 C828 1.327 . S
C826 H851 0.950 . S
C827 C826 1.349 . S
C827 C843 1.349 . S
C828 C826 1.327 . S
C828 C847 1.429 . S
C828 H852 0.950 . S
C829 C846 1.574 . S
C829 C848 1.368 . S
C829 H853 0.949 . S
H830 C834 0.949 . S
C831 C832 1.349 . S
C831 C833 1.327 . S
C831 H854 0.950 . S
C832 C831 1.349 . S
C832 C844 1.349 . S
C833 C831 1.327 . S
C833 C849 1.429 . S
C833 H855 0.950 . S
C834 H830 0.949 . S
C834 C842 1.574 . S
C834 C850 1.368 . S
H835 C843 0.950 . S
H836 C841 0.950 . S
H837 C842 0.949 . S
H838 C844 0.950 . S
H839 C845 0.950 . S
H840 C846 0.949 . S
C841 H836 0.950 . S
C841 C843 1.327 . S
C841 C847 1.429 . S
C842 C834 1.574 . S
C842 H837 0.949 . S
C842 C848 1.368 . S
C843 C827 1.349 . S
C843 H835 0.950 . S
C843 C841 1.327 . S
C844 C832 1.349 . S
C844 H838 0.950 . S
C844 C845 1.327 . S
C845 H839 0.950 . S
C845 C844 1.327 . S
C845 C849 1.429 . S
C846 C829 1.574 . S
C846 H840 0.949 . S
C846 C850 1.368 . S
C847 C828 1.429 . S
C847 C841 1.429 . S
C847 C848 1.523 . S
C848 C829 1.368 . S
C848 C842 1.368 . S
C848 C847 1.523 . S
C849 C833 1.429 . S
C849 C845 1.429 . S
C849 C850 1.523 . S
C850 C834 1.368 . S
C850 C846 1.368 . S
C850 C849 1.523 . S
H851 C826 0.950 . S
H852 C828 0.950 . S
H853 C829 0.949 . S
H854 C831 0.950 . S
H855 C833 0.950 . S
C856 C857 1.349 . S
C856 C858 1.327 . S
C856 H881 0.950 . S
C857 C856 1.349 . S
C857 C873 1.349 . S
C858 C856 1.327 . S
C858 C877 1.429 . S
C858 H882 0.950 . S
C859 C876 1.574 1_455 S
C859 C878 1.368 . S
C859 H883 0.949 . S
H860 C864 0.949 . S
C861 C862 1.349 . S
C861 C863 1.327 . S
C861 H884 0.950 . S
C862 C861 1.349 . S
C862 C874 1.349 . S
C863 C861 1.327 . S
C863 C879 1.429 . S
C863 H885 0.950 . S
C864 H860 0.949 . S
C864 C872 1.574 1_655 S
C864 C880 1.368 . S
H865 C873 0.950 . S
H866 C871 0.950 . S
H867 C872 0.949 . S
H868 C874 0.950 . S
H869 C875 0.950 . S
H870 C876 0.949 . S
C871 H866 0.950 . S
C871 C873 1.327 . S
C871 C877 1.429 . S
C872 C864 1.574 1_455 S
C872 H867 0.949 . S
C872 C878 1.368 . S
C873 C857 1.349 . S
C873 H865 0.950 . S
C873 C871 1.327 . S
C874 C862 1.349 . S
C874 H868 0.950 . S
C874 C875 1.327 . S
C875 H869 0.950 . S
C875 C874 1.327 . S
C875 C879 1.429 . S
C876 C859 1.574 1_655 S
C876 H870 0.949 . S
C876 C880 1.368 . S
C877 C858 1.429 . S
C877 C871 1.429 . S
C877 C878 1.523 . S
C878 C859 1.368 . S
C878 C872 1.368 . S
C878 C877 1.523 . S
C879 C863 1.429 . S
C879 C875 1.429 . S
C879 C880 1.523 . S
C880 C864 1.368 . S
C880 C876 1.368 . S
C880 C879 1.523 . S
H881 C856 0.950 . S
H882 C858 0.950 . S
H883 C859 0.949 . S
H884 C861 0.950 . S
H885 C863 0.950 . S
C886 C887 1.349 . S
C886 C888 1.327 . S
C886 H911 0.950 . S
C887 C886 1.349 . S
C887 C903 1.349 . S
C888 C886 1.327 . S
C888 C907 1.429 . S
C888 H912 0.950 . S
C889 C906 1.574 1_655 S
C889 C908 1.368 . S
C889 H913 0.949 . S
H890 C894 0.949 . S
C891 C892 1.349 . S
C891 C893 1.327 . S
C891 H914 0.950 . S
C892 C891 1.349 . S
C892 C904 1.349 . S
C893 C891 1.327 . S
C893 C909 1.429 . S
C893 H915 0.950 . S
C894 H890 0.949 . S
C894 C902 1.574 1_455 S
C894 C910 1.368 . S
H895 C903 0.950 . S
H896 C901 0.950 . S
H897 C902 0.949 . S
H898 C904 0.950 . S
H899 C905 0.950 . S
H900 C906 0.949 . S
C901 H896 0.950 . S
C901 C903 1.327 . S
C901 C907 1.429 . S
C902 C894 1.574 1_655 S
C902 H897 0.949 . S
C902 C908 1.368 . S
C903 C887 1.349 . S
C903 H895 0.950 . S
C903 C901 1.327 . S
C904 C892 1.349 . S
C904 H898 0.950 . S
C904 C905 1.327 . S
C905 H899 0.950 . S
C905 C904 1.327 . S
C905 C909 1.429 . S
C906 C889 1.574 1_455 S
C906 H900 0.949 . S
C906 C910 1.368 . S
C907 C888 1.429 . S
C907 C901 1.429 . S
C907 C908 1.523 . S
C908 C889 1.368 . S
C908 C902 1.368 . S
C908 C907 1.523 . S
C909 C893 1.429 . S
C909 C905 1.429 . S
C909 C910 1.523 . S
C910 C894 1.368 . S
C910 C906 1.368 . S
C910 C909 1.523 . S
H911 C886 0.950 . S
H912 C888 0.950 . S
H913 C889 0.949 . S
H914 C891 0.950 . S
H915 C893 0.950 . S
C916 C917 1.349 . S
C916 C918 1.327 . S
C916 H941 0.950 . S
C917 C916 1.349 . S
C917 C933 1.349 1_554 S
C918 C916 1.327 . S
C918 C937 1.429 . S
C918 H942 0.950 . S
C919 C936 1.574 . S
C919 C938 1.368 1_556 S
C919 H943 0.949 . S
H920 C924 0.949 . S
C921 C922 1.349 1_556 S
C921 C923 1.327 . S
C921 H944 0.950 . S
C922 C921 1.349 1_554 S
C922 C934 1.349 . S
C923 C921 1.327 . S
C923 C939 1.429 1_556 S
C923 H945 0.950 . S
C924 H920 0.949 . S
C924 C932 1.574 . S
C924 C940 1.368 . S
H925 C933 0.950 . S
H926 C931 0.950 . S
H927 C932 0.949 . S
H928 C934 0.950 . S
H929 C935 0.950 . S
H930 C936 0.949 . S
C931 H926 0.950 . S
C931 C933 1.327 . S
C931 C937 1.429 1_556 S
C932 C924 1.574 . S
C932 H927 0.949 . S
C932 C938 1.368 . S
C933 C917 1.349 1_556 S
C933 H925 0.950 . S
C933 C931 1.327 . S
C934 C922 1.349 . S
C934 H928 0.950 . S
C934 C935 1.327 . S
C935 H929 0.950 . S
C935 C934 1.327 . S
C935 C939 1.429 . S
C936 C919 1.574 . S
C936 H930 0.949 . S
C936 C940 1.368 1_556 S
C937 C918 1.429 . S
C937 C931 1.429 1_554 S
C937 C938 1.523 . S
C938 C919 1.368 1_554 S
C938 C932 1.368 . S
C938 C937 1.523 . S
C939 C923 1.429 1_554 S
C939 C935 1.429 . S
C939 C940 1.523 . S
C940 C924 1.368 . S
C940 C936 1.368 1_554 S
C940 C939 1.523 . S
H941 C916 0.950 . S
H942 C918 0.950 . S
H943 C919 0.949 . S
H944 C921 0.950 . S
H945 C923 0.950 . S
C946 C947 1.349 1_554 S
C946 C948 1.327 . S
C946 H971 0.950 . S
C947 C946 1.349 1_556 S
C947 C963 1.349 . S
C948 C946 1.327 . S
C948 C967 1.429 1_554 S
C948 H972 0.950 . S
C949 C966 1.574 . S
C949 C968 1.368 . S
C949 H973 0.949 . S
H950 C954 0.949 . S
C951 C952 1.349 . S
C951 C953 1.327 . S
C951 H974 0.950 . S
C952 C951 1.349 . S
C952 C964 1.349 1_556 S
C953 C951 1.327 . S
C953 C969 1.429 . S
C953 H975 0.950 . S
C954 H950 0.949 . S
C954 C962 1.574 . S
C954 C970 1.368 1_554 S
H955 C963 0.950 . S
H956 C961 0.950 . S
H957 C962 0.949 . S
H958 C964 0.950 . S
H959 C965 0.950 . S
H960 C966 0.949 . S
C961 H956 0.950 . S
C961 C963 1.327 . S
C961 C967 1.429 . S
C962 C954 1.574 . S
C962 H957 0.949 . S
C962 C968 1.368 1_554 S
C963 C947 1.349 . S
C963 H955 0.950 . S
C963 C961 1.327 . S
C964 C952 1.349 1_554 S
C964 H958 0.950 . S
C964 C965 1.327 . S
C965 H959 0.950 . S
C965 C964 1.327 . S
C965 C969 1.429 1_554 S
C966 C949 1.574 . S
C966 H960 0.949 . S
C966 C970 1.368 . S
C967 C948 1.429 1_556 S
C967 C961 1.429 . S
C967 C968 1.523 . S
C968 C949 1.368 . S
C968 C962 1.368 1_556 S
C968 C967 1.523 . S
C969 C953 1.429 . S
C969 C965 1.429 1_556 S
C969 C970 1.523 . S
C970 C954 1.368 1_556 S
C970 C966 1.368 . S
C970 C969 1.523 . S
H971 C946 0.950 . S
H972 C948 0.950 . S
H973 C949 0.949 . S
H974 C951 0.950 . S
H975 C953 0.950 . S
C257 C2 1.683 . S
C262 C230 1.683 . S
C287 C198 1.683 . S
C292 C38 1.683 . S
C317 C162 1.683 . S
C322 C70 1.683 . S
C347 C130 1.683 . S
C352 C98 1.683 . S
C377 N82 1.649 . S
C382 N13 1.649 . S
C407 N50 1.649 . S
C412 N109 1.649 . S
C437 N114 1.391 . S
C442 N45 1.391 . S
C467 N77 1.391 . S
C472 N18 1.391 . S
C497 N141 1.649 . S
C502 N210 1.649 . S
C527 N173 1.649 . S
C532 N242 1.649 . S
C557 N237 1.391 . S
C562 N178 1.391 . S
C587 N205 1.391 . S
C592 N146 1.391 . S
C617 C6 1.235 . S
C622 C4 1.232 . S
C647 C34 1.235 . S
C652 C61 1.232 . S
C677 C93 1.232 . S
C682 C66 1.235 . S
C707 C102 1.235 . S
C712 C100 1.232 . S
C737 C132 1.232 . S
C742 C134 1.235 . S
C767 C166 1.235 . S
C772 C164 1.232 . S
C797 C194 1.235 . S
C802 C221 1.232 . S
C827 C226 1.235 . S
C832 C253 1.232 . S
C857 C29 1.601 . S
C862 C36 1.601 . S
C887 C125 1.601 . S
C892 C68 1.601 . S
C917 C157 1.601 . S
C922 C189 1.601 . S
C947 C228 1.601 . S
C952 C196 1.601 . S
