# Generated by pormake.
# Topology ukd, (4)-cn, num edge types: 1
# Building blocks:
#     Node 0, Type 0, BuildingBlock: QUQFOY_clean_sbu_3, # of connection points: 4
#     Node 1, Type 0, BuildingBlock: QUQFOY_clean_sbu_3, # of connection points: 4
#     Node 2, Type 0, BuildingBlock: QUQFOY_clean_sbu_3, # of connection points: 4
#     Node 3, Type 0, BuildingBlock: QUQFOY_clean_sbu_3, # of connection points: 4
#     Node 4, Type 0, BuildingBlock: QUQFOY_clean_sbu_3, # of connection points: 4
#     Node 5, Type 0, BuildingBlock: QUQFOY_clean_sbu_3, # of connection points: 4
#     Node 6, Type 0, BuildingBlock: QUQFOY_clean_sbu_3, # of connection points: 4
#     Node 7, Type 0, BuildingBlock: QUQFOY_clean_sbu_3, # of connection points: 4
#     Node 8, Type 0, BuildingBlock: QUQFOY_clean_sbu_3, # of connection points: 4
#     Node 9, Type 0, BuildingBlock: QUQFOY_clean_sbu_3, # of connection points: 4
#     Node 10, Type 0, BuildingBlock: QUQFOY_clean_sbu_3, # of connection points: 4
#     Node 11, Type 0, BuildingBlock: QUQFOY_clean_sbu_3, # of connection points: 4
#     Node 12, Type 0, BuildingBlock: QUQFOY_clean_sbu_3, # of connection points: 4
#     Node 13, Type 0, BuildingBlock: QUQFOY_clean_sbu_3, # of connection points: 4
#     Node 14, Type 0, BuildingBlock: QUQFOY_clean_sbu_3, # of connection points: 4
#     Node 15, Type 0, BuildingBlock: QUQFOY_clean_sbu_3, # of connection points: 4
#     Node 16, Type 0, BuildingBlock: QUQFOY_clean_sbu_3, # of connection points: 4
#     Node 17, Type 0, BuildingBlock: QUQFOY_clean_sbu_3, # of connection points: 4
#     Node 18, Type 0, BuildingBlock: QUQFOY_clean_sbu_3, # of connection points: 4
#     Node 19, Type 0, BuildingBlock: QUQFOY_clean_sbu_3, # of connection points: 4
#     Node 20, Type 0, BuildingBlock: QUQFOY_clean_sbu_3, # of connection points: 4
#     Node 21, Type 0, BuildingBlock: QUQFOY_clean_sbu_3, # of connection points: 4
#     Node 22, Type 0, BuildingBlock: QUQFOY_clean_sbu_3, # of connection points: 4
#     Node 23, Type 0, BuildingBlock: QUQFOY_clean_sbu_3, # of connection points: 4
#     Node 24, Type 0, BuildingBlock: QUQFOY_clean_sbu_3, # of connection points: 4
#     Node 25, Type 0, BuildingBlock: QUQFOY_clean_sbu_3, # of connection points: 4
#     Node 26, Type 0, BuildingBlock: QUQFOY_clean_sbu_3, # of connection points: 4
#     Node 27, Type 0, BuildingBlock: QUQFOY_clean_sbu_3, # of connection points: 4
#     Node 28, Type 0, BuildingBlock: QUQFOY_clean_sbu_3, # of connection points: 4
#     Node 29, Type 0, BuildingBlock: QUQFOY_clean_sbu_3, # of connection points: 4
#     Node 30, Type 0, BuildingBlock: QUQFOY_clean_sbu_3, # of connection points: 4
#     Node 31, Type 0, BuildingBlock: QUQFOY_clean_sbu_3, # of connection points: 4
#     Edge 32, Type (0, 0), BuildingBlock: ZUJKAS_clean_linker_0, # of connection points: 2
#     Edge 33, Type (0, 0), BuildingBlock: ZUJKAS_clean_linker_0, # of connection points: 2
#     Edge 34, Type (0, 0), BuildingBlock: ZUJKAS_clean_linker_0, # of connection points: 2
#     Edge 35, Type (0, 0), BuildingBlock: ZUJKAS_clean_linker_0, # of connection points: 2
#     Edge 36, Type (0, 0), BuildingBlock: ZUJKAS_clean_linker_0, # of connection points: 2
#     Edge 37, Type (0, 0), BuildingBlock: ZUJKAS_clean_linker_0, # of connection points: 2
#     Edge 38, Type (0, 0), BuildingBlock: ZUJKAS_clean_linker_0, # of connection points: 2
#     Edge 39, Type (0, 0), BuildingBlock: ZUJKAS_clean_linker_0, # of connection points: 2
#     Edge 40, Type (0, 0), BuildingBlock: ZUJKAS_clean_linker_0, # of connection points: 2
#     Edge 41, Type (0, 0), BuildingBlock: ZUJKAS_clean_linker_0, # of connection points: 2
#     Edge 42, Type (0, 0), BuildingBlock: ZUJKAS_clean_linker_0, # of connection points: 2
#     Edge 43, Type (0, 0), BuildingBlock: ZUJKAS_clean_linker_0, # of connection points: 2
#     Edge 44, Type (0, 0), BuildingBlock: ZUJKAS_clean_linker_0, # of connection points: 2
#     Edge 45, Type (0, 0), BuildingBlock: ZUJKAS_clean_linker_0, # of connection points: 2
#     Edge 46, Type (0, 0), BuildingBlock: ZUJKAS_clean_linker_0, # of connection points: 2
#     Edge 47, Type (0, 0), BuildingBlock: ZUJKAS_clean_linker_0, # of connection points: 2
#     Edge 48, Type (0, 0), BuildingBlock: ZUJKAS_clean_linker_0, # of connection points: 2
#     Edge 49, Type (0, 0), BuildingBlock: ZUJKAS_clean_linker_0, # of connection points: 2
#     Edge 50, Type (0, 0), BuildingBlock: ZUJKAS_clean_linker_0, # of connection points: 2
#     Edge 51, Type (0, 0), BuildingBlock: ZUJKAS_clean_linker_0, # of connection points: 2
#     Edge 52, Type (0, 0), BuildingBlock: ZUJKAS_clean_linker_0, # of connection points: 2
#     Edge 53, Type (0, 0), BuildingBlock: ZUJKAS_clean_linker_0, # of connection points: 2
#     Edge 54, Type (0, 0), BuildingBlock: ZUJKAS_clean_linker_0, # of connection points: 2
#     Edge 55, Type (0, 0), BuildingBlock: ZUJKAS_clean_linker_0, # of connection points: 2
#     Edge 56, Type (0, 0), BuildingBlock: ZUJKAS_clean_linker_0, # of connection points: 2
#     Edge 57, Type (0, 0), BuildingBlock: ZUJKAS_clean_linker_0, # of connection points: 2
#     Edge 58, Type (0, 0), BuildingBlock: ZUJKAS_clean_linker_0, # of connection points: 2
#     Edge 59, Type (0, 0), BuildingBlock: ZUJKAS_clean_linker_0, # of connection points: 2
#     Edge 60, Type (0, 0), BuildingBlock: ZUJKAS_clean_linker_0, # of connection points: 2
#     Edge 61, Type (0, 0), BuildingBlock: ZUJKAS_clean_linker_0, # of connection points: 2
#     Edge 62, Type (0, 0), BuildingBlock: ZUJKAS_clean_linker_0, # of connection points: 2
#     Edge 63, Type (0, 0), BuildingBlock: ZUJKAS_clean_linker_0, # of connection points: 2
#     Edge 64, Type (0, 0), BuildingBlock: ZUJKAS_clean_linker_0, # of connection points: 2
#     Edge 65, Type (0, 0), BuildingBlock: ZUJKAS_clean_linker_0, # of connection points: 2
#     Edge 66, Type (0, 0), BuildingBlock: ZUJKAS_clean_linker_0, # of connection points: 2
#     Edge 67, Type (0, 0), BuildingBlock: ZUJKAS_clean_linker_0, # of connection points: 2
#     Edge 68, Type (0, 0), BuildingBlock: ZUJKAS_clean_linker_0, # of connection points: 2
#     Edge 69, Type (0, 0), BuildingBlock: ZUJKAS_clean_linker_0, # of connection points: 2
#     Edge 70, Type (0, 0), BuildingBlock: ZUJKAS_clean_linker_0, # of connection points: 2
#     Edge 71, Type (0, 0), BuildingBlock: ZUJKAS_clean_linker_0, # of connection points: 2
#     Edge 72, Type (0, 0), BuildingBlock: ZUJKAS_clean_linker_0, # of connection points: 2
#     Edge 73, Type (0, 0), BuildingBlock: ZUJKAS_clean_linker_0, # of connection points: 2
#     Edge 74, Type (0, 0), BuildingBlock: ZUJKAS_clean_linker_0, # of connection points: 2
#     Edge 75, Type (0, 0), BuildingBlock: ZUJKAS_clean_linker_0, # of connection points: 2
#     Edge 76, Type (0, 0), BuildingBlock: ZUJKAS_clean_linker_0, # of connection points: 2
#     Edge 77, Type (0, 0), BuildingBlock: ZUJKAS_clean_linker_0, # of connection points: 2
#     Edge 78, Type (0, 0), BuildingBlock: ZUJKAS_clean_linker_0, # of connection points: 2
#     Edge 79, Type (0, 0), BuildingBlock: ZUJKAS_clean_linker_0, # of connection points: 2
#     Edge 80, Type (0, 0), BuildingBlock: ZUJKAS_clean_linker_0, # of connection points: 2
#     Edge 81, Type (0, 0), BuildingBlock: ZUJKAS_clean_linker_0, # of connection points: 2
#     Edge 82, Type (0, 0), BuildingBlock: ZUJKAS_clean_linker_0, # of connection points: 2
#     Edge 83, Type (0, 0), BuildingBlock: ZUJKAS_clean_linker_0, # of connection points: 2
#     Edge 84, Type (0, 0), BuildingBlock: ZUJKAS_clean_linker_0, # of connection points: 2
#     Edge 85, Type (0, 0), BuildingBlock: ZUJKAS_clean_linker_0, # of connection points: 2
#     Edge 86, Type (0, 0), BuildingBlock: ZUJKAS_clean_linker_0, # of connection points: 2
#     Edge 87, Type (0, 0), BuildingBlock: ZUJKAS_clean_linker_0, # of connection points: 2
#     Edge 88, Type (0, 0), BuildingBlock: ZUJKAS_clean_linker_0, # of connection points: 2
#     Edge 89, Type (0, 0), BuildingBlock: ZUJKAS_clean_linker_0, # of connection points: 2
#     Edge 90, Type (0, 0), BuildingBlock: ZUJKAS_clean_linker_0, # of connection points: 2
#     Edge 91, Type (0, 0), BuildingBlock: ZUJKAS_clean_linker_0, # of connection points: 2
#     Edge 92, Type (0, 0), BuildingBlock: ZUJKAS_clean_linker_0, # of connection points: 2
#     Edge 93, Type (0, 0), BuildingBlock: ZUJKAS_clean_linker_0, # of connection points: 2
#     Edge 94, Type (0, 0), BuildingBlock: ZUJKAS_clean_linker_0, # of connection points: 2
#     Edge 95, Type (0, 0), BuildingBlock: ZUJKAS_clean_linker_0, # of connection points: 2
# Relax obj value: 0.049
# Max RMSD: 0.079
# Mean RMSD: 0.074
data_MOF--net-ukd--node1-QUQFOY_clean_sbu_3--edge1-ZUJKAS_clean_linker_0
_symmetry_space_group_name_H-M    P1
_symmetry_Int_Tables_number       1
_symmetry_cell_setting            triclinic
loop_
_symmetry_equiv_pos_as_xyz
'x, y, z'
_cell_length_a     59.62292
_cell_length_b     59.648421
_cell_length_c     97.79824
_cell_angle_alpha  90.033509
_cell_angle_beta   90.014293
_cell_angle_gamma 89.977283
loop_
_atom_site_label
_atom_site_type_symbol
_atom_site_fract_x
_atom_site_fract_y
_atom_site_fract_z
_atom_type_partial_charge
C0 C 0.20309 0.20065 0.30755 0.0
O1 O 0.18267 0.19486 0.30872 0.0
Cd2 Cd 0.1657 0.17822 0.32843 0.0
O3 O 0.217 0.1972 0.31725 0.0
Cd4 Cd 0.21736 0.18035 0.34053 0.0
C5 C 0.17995 0.21939 0.35172 0.0
O6 O 0.19163 0.15029 0.33523 0.0
O7 O 0.20065 0.1528 0.35644 0.0
O8 O 0.25397 0.1643 0.33538 0.0
C9 C 0.18968 0.14266 0.34723 0.0
O10 O 0.16504 0.20864 0.34506 0.0
C11 C 0.26325 0.17091 0.34636 0.0
O12 O 0.20049 0.21349 0.35128 0.0
O13 O 0.25137 0.18271 0.3544 0.0
C14 C 0.03557 0.95456 0.55476 0.0
O15 O 0.04224 0.93439 0.55559 0.0
Cd16 Cd 0.05642 0.91774 0.57602 0.0
O17 O 0.03737 0.96775 0.56496 0.0
Cd18 Cd 0.05241 0.96719 0.58872 0.0
C19 C 0.01189 0.93049 0.59735 0.0
O20 O 0.08425 0.94249 0.58468 0.0
O21 O 0.07576 0.94779 0.60579 0.0
O22 O 0.0684 0.00362 0.58341 0.0
C23 C 0.08888 0.93897 0.59712 0.0
O24 O 0.02381 0.91607 0.59104 0.0
C25 C 0.06285 0.01288 0.5946 0.0
O26 O 0.01752 0.9511 0.59756 0.0
O27 O 0.05171 0.00106 0.603 0.0
C28 C 0.28141 0.78434 0.80631 0.0
O29 O 0.30168 0.79019 0.80817 0.0
Cd30 Cd 0.31712 0.80625 0.82858 0.0
O31 O 0.2668 0.78704 0.8157 0.0
Cd32 Cd 0.26496 0.80197 0.83942 0.0
C33 C 0.30274 0.76338 0.85049 0.0
O34 O 0.29016 0.83298 0.83549 0.0
O35 O 0.28081 0.82829 0.85649 0.0
O36 O 0.22836 0.81781 0.83399 0.0
C37 C 0.29173 0.83952 0.84775 0.0
O38 O 0.3178 0.77544 0.8449 0.0
C39 C 0.21867 0.81049 0.84466 0.0
O40 O 0.28197 0.76805 0.84921 0.0
O41 O 0.23033 0.79837 0.85264 0.0
C42 C 0.44679 0.02807 0.05609 0.0
O43 O 0.44055 0.04833 0.05734 0.0
Cd44 Cd 0.42553 0.06439 0.07776 0.0
O45 O 0.44446 0.01426 0.06594 0.0
Cd46 Cd 0.42921 0.01365 0.08963 0.0
C47 C 0.46922 0.05047 0.09942 0.0
O48 O 0.3979 0.03865 0.08539 0.0
O49 O 0.40425 0.03152 0.10655 0.0
O50 O 0.41401 0.9771 0.08371 0.0
C51 C 0.39216 0.04133 0.09774 0.0
O52 O 0.45752 0.06525 0.09329 0.0
C53 C 0.41946 0.96763 0.09484 0.0
O54 O 0.46361 0.02985 0.09911 0.0
O55 O 0.43019 0.97941 0.10347 0.0
C56 C 0.20341 0.78133 0.17649 0.0
O57 O 0.18313 0.78765 0.1755 0.0
Cd58 Cd 0.16655 0.80412 0.15568 0.0
O59 O 0.21709 0.78432 0.16663 0.0
Cd60 Cd 0.21665 0.80113 0.14332 0.0
C61 C 0.17932 0.76206 0.13276 0.0
O62 O 0.1919 0.83237 0.14837 0.0
O63 O 0.19789 0.82649 0.12702 0.0
O64 O 0.25324 0.8177 0.14786 0.0
C65 C 0.18872 0.83849 0.13614 0.0
O66 O 0.16466 0.77332 0.1393 0.0
C67 C 0.26225 0.81097 0.13683 0.0
O68 O 0.19995 0.76759 0.13311 0.0
O69 O 0.25023 0.7989 0.12901 0.0
C70 C 0.44509 0.95309 0.42722 0.0
O71 O 0.43818 0.93304 0.42605 0.0
Cd72 Cd 0.42305 0.9171 0.40566 0.0
O73 O 0.44338 0.96682 0.41727 0.0
Cd74 Cd 0.42842 0.96756 0.39346 0.0
C75 C 0.46753 0.92945 0.38418 0.0
O76 O 0.39639 0.94363 0.39778 0.0
O77 O 0.40306 0.95002 0.37657 0.0
O78 O 0.41429 0.00462 0.39918 0.0
C79 C 0.39064 0.9408 0.38545 0.0
O80 O 0.45535 0.91517 0.39041 0.0
C81 C 0.41988 0.01374 0.38796 0.0
O82 O 0.46246 0.95021 0.38423 0.0
O83 O 0.43022 0.00152 0.37938 0.0
C84 C 0.27685 0.19739 0.6794 0.0
O85 O 0.29715 0.19106 0.67862 0.0
Cd86 Cd 0.31466 0.17628 0.6586 0.0
O87 O 0.26367 0.19518 0.66921 0.0
Cd88 Cd 0.26501 0.17984 0.64551 0.0
C89 C 0.30236 0.21992 0.63662 0.0
O90 O 0.28992 0.14847 0.65002 0.0
O91 O 0.28449 0.15582 0.62878 0.0
O92 O 0.22861 0.16263 0.64953 0.0
C93 C 0.29354 0.14329 0.63767 0.0
O94 O 0.31672 0.20831 0.64317 0.0
C95 C 0.21968 0.16959 0.63854 0.0
O96 O 0.28176 0.21423 0.63637 0.0
O97 O 0.23161 0.18212 0.63097 0.0
C98 C 0.03443 0.02533 0.92653 0.0
O99 O 0.04113 0.04545 0.92533 0.0
Cd100 Cd 0.05711 0.06124 0.90511 0.0
O101 O 0.03647 0.01151 0.91665 0.0
Cd102 Cd 0.0516 0.01124 0.89292 0.0
C103 C 0.01315 0.04969 0.88334 0.0
O104 O 0.08395 0.03466 0.89755 0.0
O105 O 0.07699 0.02939 0.87627 0.0
O106 O 0.06545 0.97391 0.89826 0.0
C107 C 0.08971 0.03788 0.88527 0.0
O108 O 0.0258 0.06404 0.88914 0.0
C109 C 0.06011 0.96521 0.88687 0.0
O110 O 0.0174 0.02878 0.884 0.0
O111 O 0.04996 0.97775 0.87838 0.0
C112 C 0.73101 0.81159 0.62366 0.0
O113 O 0.73969 0.80201 0.61335 0.0
Cd114 Cd 0.77341 0.78043 0.61513 0.0
O115 O 0.73974 0.80927 0.63546 0.0
Cd116 Cd 0.77168 0.78899 0.64592 0.0
C117 C 0.80922 0.81962 0.62857 0.0
O118 O 0.76936 0.75353 0.6333 0.0
O119 O 0.80031 0.75992 0.64406 0.0
O120 O 0.74713 0.77949 0.66489 0.0
C121 C 0.78802 0.74619 0.63762 0.0
O122 O 0.80408 0.80714 0.61847 0.0
C123 C 0.76058 0.78566 0.67422 0.0
O124 O 0.79884 0.81779 0.63987 0.0
O125 O 0.7791 0.79405 0.67038 0.0
C126 C 0.91842 0.98082 0.37421 0.0
O127 O 0.92682 0.98912 0.36342 0.0
Cd128 Cd 0.94851 0.02288 0.364 0.0
O129 O 0.92204 0.98998 0.38576 0.0
Cd130 Cd 0.94329 0.02222 0.39504 0.0
C131 C 0.91071 0.0591 0.37842 0.0
O132 O 0.9774 0.01938 0.38111 0.0
O133 O 0.97229 0.05057 0.39188 0.0
O134 O 0.95437 -0.00183 0.41396 0.0
C135 C 0.98527 0.03806 0.38501 0.0
O136 O 0.92203 0.05361 0.3679 0.0
C137 C 0.949 0.01188 0.42332 0.0
O138 O 0.91389 0.04917 0.38977 0.0
O139 O 0.94045 0.03037 0.41955 0.0
C140 C 0.74953 0.16881 0.12357 0.0
O141 O 0.74206 0.17912 0.11318 0.0
Cd142 Cd 0.70725 0.19915 0.11413 0.0
O143 O 0.73984 0.17061 0.13512 0.0
Cd144 Cd 0.70866 0.19212 0.14551 0.0
C145 C 0.67184 0.16005 0.12855 0.0
O146 O 0.71052 0.22666 0.13191 0.0
O147 O 0.68043 0.22152 0.14375 0.0
O148 O 0.73388 0.20233 0.164 0.0
C149 C 0.69214 0.23447 0.13637 0.0
O150 O 0.67741 0.17149 0.11809 0.0
C151 C 0.72066 0.19676 0.17358 0.0
O152 O 0.68149 0.16324 0.13999 0.0
O153 O 0.70197 0.1883 0.17011 0.0
C154 C 0.56269 -0.00152 0.87504 0.0
O155 O 0.55211 -0.00869 0.86468 0.0
Cd156 Cd 0.53223 0.95655 0.86587 0.0
O157 O 0.56108 0.98854 0.88651 0.0
Cd158 Cd 0.53923 0.95729 0.89661 0.0
C159 C 0.57153 0.92088 0.87982 0.0
O160 O 0.50431 0.96 0.88348 0.0
O161 O 0.51023 0.92862 0.89386 0.0
O162 O 0.52918 0.9825 0.91511 0.0
C163 C 0.49675 0.94125 0.88744 0.0
O164 O 0.55993 0.92648 0.86943 0.0
C165 C 0.53415 0.96907 0.9247 0.0
O166 O 0.56842 0.93046 0.89128 0.0
O167 O 0.54218 0.95017 0.92125 0.0
C168 C 0.72928 0.16855 0.8583 0.0
O169 O 0.73576 0.17964 0.86864 0.0
Cd170 Cd 0.77034 0.19997 0.8681 0.0
O171 O 0.73969 0.16998 0.84696 0.0
Cd172 Cd 0.77066 0.19224 0.83688 0.0
C173 C 0.80753 0.1615 0.85458 0.0
O174 O 0.76797 0.22723 0.85012 0.0
O175 O 0.79849 0.22176 0.83872 0.0
O176 O 0.7456 0.20218 0.8183 0.0
C177 C 0.7865 0.23491 0.84579 0.0
O178 O 0.80062 0.17255 0.86491 0.0
C179 C 0.75898 0.19678 0.80876 0.0
O180 O 0.79888 0.16456 0.84284 0.0
O181 O 0.7777 0.1884 0.81229 0.0
C182 C 0.56416 0.98218 0.60846 0.0
O183 O 0.5561 -0.00884 0.61915 0.0
Cd184 Cd 0.53422 0.02485 0.61849 0.0
O185 O 0.56029 0.99063 0.59673 0.0
Cd186 Cd 0.53917 0.0224 0.58677 0.0
C187 C 0.57173 0.06022 0.6029 0.0
O188 O 0.50575 0.02045 0.60134 0.0
O189 O 0.50936 0.05016 0.58896 0.0
O190 O 0.52798 -0.00279 0.56846 0.0
C191 C 0.49727 0.03854 0.59691 0.0
O192 O 0.56059 0.05511 0.61357 0.0
C193 C 0.53327 0.01033 0.55878 0.0
O194 O 0.56844 0.04986 0.5917 0.0
O195 O 0.54196 0.029 0.5621 0.0
C196 C 0.74922 0.81181 0.362 0.0
O197 O 0.7405 0.80272 0.37244 0.0
Cd198 Cd 0.7074 0.78018 0.37089 0.0
O199 O 0.74085 0.80851 0.35018 0.0
Cd200 Cd 0.70967 0.78678 0.33995 0.0
C201 C 0.67091 0.81751 0.35625 0.0
O202 O 0.71274 0.75224 0.35343 0.0
O203 O 0.68188 0.75698 0.34226 0.0
O204 O 0.73482 0.77687 0.32133 0.0
C205 C 0.69444 0.74405 0.34913 0.0
O206 O 0.67608 0.80582 0.36668 0.0
C207 C 0.72135 0.78207 0.3118 0.0
O208 O 0.68166 0.81524 0.3451 0.0
O209 O 0.70252 0.79014 0.31535 0.0
C210 C 0.91827 0.00077 0.10787 0.0
O211 O 0.9283 -0.00616 0.1185 0.0
Cd212 Cd 0.94834 0.95906 0.11851 0.0
O213 O 0.92034 0.99052 0.09651 0.0
Cd214 Cd 0.94234 0.9589 0.08695 0.0
C215 C 0.90981 0.92281 0.10413 0.0
O216 O 0.9763 0.96161 0.10101 0.0
O217 O 0.9718 0.93087 0.0897 0.0
O218 O 0.95326 0.98348 0.06834 0.0
C219 C 0.98436 0.94303 0.09707 0.0
O220 O 0.92087 0.92902 0.11463 0.0
C221 C 0.94819 0.96993 0.05882 0.0
O222 O 0.91334 0.93184 0.09255 0.0
O223 O 0.93967 0.9513 0.06236 0.0
C224 C 0.70307 0.69921 0.80538 0.0
O225 O 0.68261 0.69361 0.80663 0.0
Cd226 Cd 0.6658 0.67786 0.82669 0.0
O227 O 0.71699 0.69584 0.81507 0.0
Cd228 Cd 0.71763 0.67955 0.83844 0.0
C229 C 0.68126 0.71959 0.84939 0.0
O230 O 0.69104 0.64985 0.83418 0.0
O231 O 0.70017 0.65418 0.85531 0.0
O232 O 0.7518 0.65922 0.83349 0.0
C233 C 0.68902 0.6434 0.84644 0.0
O234 O 0.66619 0.70881 0.8429 0.0
C235 C 0.76327 0.6676 0.84316 0.0
O236 O 0.70175 0.71344 0.84899 0.0
O237 O 0.75378 0.68247 0.85047 0.0
C238 C 0.53457 0.45456 0.05578 0.0
O239 O 0.5411 0.43437 0.05689 0.0
Cd240 Cd 0.55581 0.41779 0.07719 0.0
O241 O 0.53647 0.46818 0.06578 0.0
Cd242 Cd 0.55149 0.46828 0.0896 0.0
C243 C 0.5117 0.43092 0.09883 0.0
O244 O 0.58298 0.44349 0.08538 0.0
O245 O 0.57602 0.44988 0.10656 0.0
O246 O 0.56714 0.50485 0.08419 0.0
C247 C 0.58836 0.44036 0.09775 0.0
O248 O 0.52359 0.41649 0.09251 0.0
C249 C 0.56151 0.51411 0.09537 0.0
O250 O 0.51709 0.4516 0.09884 0.0
O251 O 0.55038 0.50224 0.10376 0.0
C252 C 0.77786 0.28422 0.30519 0.0
O253 O 0.79821 0.29021 0.30639 0.0
Cd254 Cd 0.81513 0.30505 0.32656 0.0
O255 O 0.76415 0.28661 0.31511 0.0
Cd256 Cd 0.76473 0.30166 0.3389 0.0
C257 C 0.80184 0.26156 0.34837 0.0
O258 O 0.78984 0.3328 0.33456 0.0
O259 O 0.78372 0.32596 0.35577 0.0
O260 O 0.72825 0.31874 0.33475 0.0
C261 C 0.79313 0.33824 0.3469 0.0
O262 O 0.81657 0.27314 0.34211 0.0
C263 C 0.71923 0.31158 0.34567 0.0
O264 O 0.78124 0.26727 0.34819 0.0
O265 O 0.73118 0.29903 0.35323 0.0
C266 C 0.94982 0.53205 0.55619 0.0
O267 O 0.9448 0.55253 0.55809 0.0
Cd268 Cd 0.93014 0.56828 0.57876 0.0
O269 O 0.94662 0.51755 0.56557 0.0
Cd270 Cd 0.93142 0.51577 0.58924 0.0
C271 C 0.97196 0.55094 0.60092 0.0
O272 O 0.90196 0.54289 0.58576 0.0
O273 O 0.90635 0.53246 0.60664 0.0
O274 O 0.91056 0.48215 0.58375 0.0
C275 C 0.89561 0.54425 0.59807 0.0
O276 O 0.9613 0.56648 0.59478 0.0
C277 C 0.91902 0.47005 0.59309 0.0
O278 O 0.9656 0.53056 0.60007 0.0
O279 O 0.93418 0.47892 0.60046 0.0
C280 C 0.70341 0.28522 0.6771 0.0
O281 O 0.68304 0.29105 0.67573 0.0
Cd282 Cd 0.66661 0.30501 0.65516 0.0
O283 O 0.71727 0.28759 0.66727 0.0
Cd284 Cd 0.71753 0.30245 0.64348 0.0
C285 C 0.68181 0.26155 0.63357 0.0
O286 O 0.69129 0.33293 0.6468 0.0
O287 O 0.69852 0.32502 0.62581 0.0
O288 O 0.75125 0.32376 0.64786 0.0
C289 C 0.68841 0.33753 0.63429 0.0
O290 O 0.66684 0.27283 0.63984 0.0
C291 C 0.76288 0.31506 0.63838 0.0
O292 O 0.7023 0.26768 0.63376 0.0
O293 O 0.75371 0.29958 0.63141 0.0
C294 C 0.94422 0.45053 0.92852 0.0
O295 O 0.93805 0.43036 0.92672 0.0
Cd296 Cd 0.92345 0.41539 0.90585 0.0
O297 O 0.9422 0.46494 0.91896 0.0
Cd298 Cd 0.92802 0.46652 0.89509 0.0
C299 C 0.96782 0.42976 0.88496 0.0
O300 O 0.89652 0.44151 0.89797 0.0
O301 O 0.90518 0.44849 0.87707 0.0
O302 O 0.90797 0.50087 0.89983 0.0
C303 C 0.89201 0.43895 0.88542 0.0
O304 O 0.9555 0.41476 0.89041 0.0
C305 C 0.91687 0.51235 0.89036 0.0
O306 O 0.96289 0.4505 0.88595 0.0
O307 O 0.93196 0.50279 0.88325 0.0
C308 C 0.77849 0.69752 0.17941 0.0
O309 O 0.79885 0.69162 0.17807 0.0
Cd310 Cd 0.81539 0.67696 0.15773 0.0
O311 O 0.76463 0.69515 0.16957 0.0
Cd312 Cd 0.76484 0.6803 0.14573 0.0
C313 C 0.80163 0.72055 0.1361 0.0
O314 O 0.79008 0.64913 0.14984 0.0
O315 O 0.78355 0.65614 0.12868 0.0
O316 O 0.72856 0.66303 0.15019 0.0
C317 C 0.79311 0.64378 0.13746 0.0
O318 O 0.81647 0.70894 0.14225 0.0
C319 C 0.71925 0.67008 0.13933 0.0
O320 O 0.78104 0.71482 0.13638 0.0
O321 O 0.73093 0.68269 0.13167 0.0
C322 C 0.53156 0.52857 0.42622 0.0
O323 O 0.5383 0.54871 0.42519 0.0
Cd324 Cd 0.55589 0.56493 0.40556 0.0
O325 O 0.53468 0.51459 0.41652 0.0
Cd326 Cd 0.55221 0.51318 0.39342 0.0
C327 C 0.5142 0.55149 0.38226 0.0
O328 O 0.58291 0.53803 0.3989 0.0
O329 O 0.58056 0.52895 0.37769 0.0
O330 O 0.56596 0.47621 0.39977 0.0
C331 C 0.5908 0.53973 0.38694 0.0
O332 O 0.52544 0.56598 0.38896 0.0
C333 C 0.56109 0.46692 0.38847 0.0
O334 O 0.51946 0.53077 0.38259 0.0
O335 O 0.55118 0.47896 0.37962 0.0
C336 C 0.2321 0.312 0.12526 0.0
O337 O 0.24093 0.30289 0.11484 0.0
Cd338 Cd 0.27425 0.28046 0.11606 0.0
O339 O 0.24049 0.30897 0.1371 0.0
Cd340 Cd 0.27191 0.28811 0.14767 0.0
C341 C 0.31042 0.31845 0.13049 0.0
O342 O 0.26936 0.25359 0.13408 0.0
O343 O 0.29892 0.25752 0.14657 0.0
O344 O 0.24682 0.27927 0.16654 0.0
C345 C 0.28723 0.2451 0.13884 0.0
O346 O 0.3051 0.3066 0.12014 0.0
C347 C 0.26031 0.28524 0.1759 0.0
O348 O 0.29999 0.31624 0.14176 0.0
O349 O 0.27908 0.29314 0.1721 0.0
C350 C 0.41972 0.47919 0.87332 0.0
O351 O 0.42902 0.48742 0.8628 0.0
Cd352 Cd 0.45049 0.52114 0.86381 0.0
O353 O 0.42257 0.48825 0.88499 0.0
Cd354 Cd 0.44406 0.52009 0.89483 0.0
C355 C 0.41243 0.55751 0.87808 0.0
O356 O 0.47868 0.5176 0.88132 0.0
O357 O 0.47291 0.54867 0.89208 0.0
O358 O 0.45532 0.49583 0.91359 0.0
C359 C 0.48623 0.53634 0.88535 0.0
O360 O 0.42363 0.55154 0.8676 0.0
C361 C 0.4497 0.50925 0.92306 0.0
O362 O 0.41549 0.54793 0.88955 0.0
O363 O 0.44071 0.5276 0.91942 0.0
C364 C 0.24951 0.66778 0.6242 0.0
O365 O 0.24015 0.67557 0.61355 0.0
Cd366 Cd 0.20629 0.69719 0.61451 0.0
O367 O 0.24138 0.67185 0.63599 0.0
Cd368 Cd 0.20987 0.69299 0.64625 0.0
C369 C 0.17172 0.65976 0.6308 0.0
O370 O 0.21148 0.72605 0.63138 0.0
O371 O 0.18255 0.72331 0.64452 0.0
O372 O 0.23599 0.70385 0.66418 0.0
C373 C 0.19385 0.73497 0.63617 0.0
O374 O 0.17647 0.67055 0.61995 0.0
C375 C 0.2231 0.6989 0.67406 0.0
O376 O 0.18228 0.6636 0.64187 0.0
O377 O 0.20413 0.69061 0.67101 0.0
C378 C 0.06516 0.49943 0.37387 0.0
O379 O 0.05713 0.49015 0.36326 0.0
Cd380 Cd 0.03547 0.45635 0.36437 0.0
O381 O 0.06121 0.4913 0.38566 0.0
Cd382 Cd 0.03992 0.45993 0.39591 0.0
C383 C 0.07278 0.42152 0.38056 0.0
O384 O 0.0065 0.46113 0.38123 0.0
O385 O 0.01034 0.43201 0.39411 0.0
O386 O 0.02851 0.48578 0.41386 0.0
C387 C -0.00186 0.44321 0.38599 0.0
O388 O 0.06193 0.4263 0.36973 0.0
C389 C 0.03379 0.473 0.42372 0.0
O390 O 0.06917 0.43222 0.3916 0.0
O391 O 0.04253 0.45425 0.42065 0.0
C392 C 0.23376 0.66848 0.35875 0.0
O393 O 0.24284 0.67743 0.36915 0.0
Cd394 Cd 0.27586 0.70021 0.36783 0.0
O395 O 0.24175 0.67186 0.34685 0.0
Cd396 Cd 0.2728 0.69332 0.33627 0.0
C397 C 0.31215 0.66305 0.35278 0.0
O398 O 0.27002 0.72748 0.35013 0.0
O399 O 0.2996 0.72414 0.33761 0.0
O400 O 0.24776 0.70272 0.31744 0.0
C401 C 0.28773 0.73629 0.3454 0.0
O402 O 0.30704 0.67462 0.36328 0.0
C403 C 0.26121 0.69675 0.30806 0.0
O404 O 0.3013 0.66538 0.34167 0.0
O405 O 0.27988 0.68857 0.31183 0.0
C406 C 0.06444 0.48216 0.10996 0.0
O407 O 0.05614 0.49131 0.12053 0.0
Cd408 Cd 0.03397 0.52482 0.11927 0.0
O409 O 0.06054 0.49023 0.09815 0.0
Cd410 Cd 0.03899 0.52123 0.08771 0.0
C411 C 0.07108 0.56006 0.10324 0.0
O412 O 0.00536 0.51981 0.1022 0.0
O413 O 0.00911 0.54884 0.08924 0.0
O414 O 0.02809 0.49503 0.06987 0.0
C415 C -0.00308 0.53763 0.09734 0.0
O416 O 0.06013 0.55513 0.11401 0.0
C417 C 0.03331 0.50773 0.05996 0.0
O418 O 0.0678 0.54933 0.09217 0.0
O419 O 0.04183 0.52662 0.06296 0.0
C420 C 0.2511 0.30972 0.86077 0.0
O421 O 0.24308 0.30084 0.87149 0.0
Cd422 Cd 0.20906 0.27964 0.8712 0.0
O423 O 0.24162 0.30671 0.84923 0.0
Cd424 Cd 0.20922 0.28597 0.83955 0.0
C425 C 0.17294 0.31822 0.85718 0.0
O426 O 0.21199 0.25183 0.85344 0.0
O427 O 0.18168 0.25606 0.84166 0.0
O428 O 0.23331 0.27584 0.82044 0.0
C429 C 0.19368 0.24359 0.84917 0.0
O430 O 0.17932 0.30727 0.86765 0.0
C431 C 0.21962 0.28177 0.81118 0.0
O432 O 0.18168 0.31457 0.84552 0.0
O433 O 0.20115 0.2902 0.81512 0.0
C434 C 0.41926 0.50016 0.60834 0.0
O435 O 0.42897 0.49135 0.61856 0.0
Cd436 Cd 0.45105 0.45786 0.61687 0.0
O437 O 0.4216 0.49175 0.59645 0.0
Cd438 Cd 0.44193 0.4604 0.58542 0.0
C439 C 0.41223 0.42193 0.60297 0.0
O440 O 0.47714 0.46233 0.59839 0.0
O441 O 0.47203 0.43287 0.58597 0.0
O442 O 0.45086 0.48551 0.5666 0.0
C443 C 0.48505 0.44432 0.59346 0.0
O444 O 0.42452 0.42726 0.61312 0.0
C445 C 0.44421 0.47237 0.55723 0.0
O446 O 0.41397 0.43233 0.59166 0.0
O447 O 0.43579 0.45382 0.56099 0.0
H448 H 0.09762 0.40482 0.4019 0.0
H449 H 0.12334 0.37277 0.40147 0.0
H450 H 0.11044 0.36394 0.35841 0.0
H451 H 0.08509 0.39594 0.35867 0.0
H452 H 0.11279 0.32951 0.39501 0.0
H453 H 0.1783 0.36012 0.35982 0.0
H454 H 0.15839 0.3787 0.36792 0.0
H455 H 0.15094 0.36379 0.35255 0.0
C456 C 0.10049 0.39623 0.3923 0.0
C457 C 0.08929 0.40297 0.38031 0.0
C458 C 0.1152 0.37794 0.39209 0.0
C459 C 0.11911 0.36625 0.37986 0.0
C460 C 0.10814 0.37309 0.36788 0.0
H461 H 0.1375 0.23452 0.35637 0.0
H462 H 0.12624 0.27001 0.36647 0.0
C463 C 0.09347 0.3913 0.36808 0.0
C464 C 0.13307 0.34571 0.37968 0.0
H465 H 0.17374 0.31965 0.36101 0.0
C466 C 0.12648 0.32749 0.3878 0.0
C467 C 0.15127 0.34319 0.37053 0.0
C468 C 0.16029 0.3626 0.36233 0.0
C469 C 0.13633 0.3063 0.38616 0.0
C470 C 0.15287 0.30325 0.37596 0.0
C471 C 0.16081 0.32191 0.36869 0.0
C472 C 0.15999 0.28065 0.37142 0.0
C473 C 0.1284 0.28723 0.39505 0.0
C474 C 0.18279 0.27486 0.3707 0.0
C475 C 0.18936 0.25451 0.36478 0.0
C476 C 0.17322 0.23978 0.35933 0.0
C477 C 0.15039 0.24543 0.36044 0.0
C478 C 0.14388 0.26566 0.36636 0.0
H479 H 0.12262 0.29346 0.40516 0.0
H480 H 0.11395 0.27885 0.39004 0.0
H481 H 0.14184 0.27462 0.39667 0.0
H482 H 0.1955 0.2863 0.37443 0.0
H483 H 0.20708 0.25069 0.36406 0.0
H484 H -0.00329 0.88766 0.60006 0.0
H485 H 0.96063 0.87526 0.60885 0.0
H486 H 0.94285 0.94361 0.61832 0.0
H487 H 0.97908 0.95639 0.6093 0.0
H488 H 0.9403 0.88065 0.63464 0.0
H489 H 0.89195 0.92193 0.59287 0.0
H490 H 0.92198 0.91834 0.59204 0.0
H491 H 0.91011 0.93942 0.60297 0.0
C492 C 0.98525 0.90014 0.60406 0.0
C493 C 0.99072 0.92307 0.60384 0.0
C494 C 0.96464 0.89298 0.60914 0.0
C495 C 0.949 0.90854 0.61407 0.0
C496 C 0.95461 0.93138 0.61436 0.0
H497 H 0.8251 0.84911 0.64784 0.0
H498 H 0.8574 0.87425 0.64581 0.0
C499 C 0.97534 0.93862 0.60927 0.0
C500 C 0.92657 0.90049 0.61829 0.0
H501 H 0.87207 0.89832 0.60769 0.0
C502 C 0.92525 0.88478 0.62893 0.0
C503 C 0.90708 0.90585 0.61072 0.0
C504 C 0.9077 0.92219 0.59894 0.0
C505 C 0.90518 0.87345 0.6318 0.0
C506 C 0.88587 0.87828 0.62393 0.0
C507 C 0.88692 0.89476 0.61372 0.0
C508 C 0.86525 0.86458 0.62503 0.0
C509 C 0.90515 0.85547 0.64265 0.0
C510 C 0.85859 0.85138 0.61388 0.0
C511 C 0.84013 0.83713 0.61496 0.0
C512 C 0.82792 0.83581 0.62723 0.0
C513 C 0.83423 0.84959 0.63828 0.0
C514 C 0.85272 0.86391 0.63716 0.0
H515 H 0.92238 0.85118 0.64612 0.0
H516 H 0.89551 0.86143 0.65165 0.0
H517 H 0.89697 0.83999 0.63878 0.0
H518 H 0.86804 0.85169 0.60442 0.0
H519 H 0.83572 0.82685 0.60623 0.0
H520 H 0.39378 0.57478 0.85491 0.0
H521 H 0.3711 0.60871 0.85282 0.0
H522 H 0.3734 0.61779 0.89655 0.0
H523 H 0.39553 0.58338 0.89879 0.0
H524 H 0.33219 0.62922 0.88577 0.0
H525 H 0.401 0.66932 0.8566 0.0
H526 H 0.39128 0.64392 0.84877 0.0
H527 H 0.40448 0.64293 0.86532 0.0
C528 C 0.38928 0.58387 0.8641 0.0
C529 C 0.39672 0.5766 0.87699 0.0
C530 C 0.37638 0.60328 0.86289 0.0
C531 C 0.37108 0.61606 0.8745 0.0
C532 C 0.37745 0.60824 0.88746 0.0
H533 H 0.34118 0.75682 0.86476 0.0
H534 H 0.356 0.7213 0.87325 0.0
C535 C 0.39012 0.5886 0.88871 0.0
C536 C 0.36018 0.63824 0.87298 0.0
H537 H 0.36625 0.68867 0.85707 0.0
C538 C 0.33965 0.64233 0.87958 0.0
C539 C 0.37021 0.65546 0.86515 0.0
C540 C 0.39306 0.65281 0.85868 0.0
C541 C 0.32859 0.66304 0.87823 0.0
C542 C 0.33812 0.67983 0.86982 0.0
C543 C 0.35886 0.6758 0.86348 0.0
C544 C 0.32707 0.70171 0.86717 0.0
C545 C 0.30706 0.6668 0.88599 0.0
C546 C 0.30551 0.70272 0.86139 0.0
C547 C 0.2968 0.72317 0.8568 0.0
C548 C 0.30979 0.74277 0.8576 0.0
C549 C 0.33089 0.74191 0.86394 0.0
C550 C 0.33936 0.72162 0.86879 0.0
H551 H 0.30605 0.65582 0.89515 0.0
H552 H 0.30538 0.68452 0.88931 0.0
H553 H 0.29265 0.66265 0.87927 0.0
H554 H 0.29591 0.68756 0.85971 0.0
H555 H 0.28057 0.72337 0.85182 0.0
H556 H 0.50251 0.02378 0.11008 0.0
H557 H 0.5387 0.036 0.11942 0.0
H558 H 0.51968 0.10501 0.11318 0.0
H559 H 0.48366 0.09312 0.10407 0.0
H560 H 0.57047 0.06012 0.10536 0.0
H561 H 0.54517 0.10671 0.15164 0.0
H562 H 0.52668 0.08722 0.1431 0.0
H563 H 0.52931 0.11562 0.13704 0.0
C564 C 0.5059 0.04157 0.11093 0.0
C565 C 0.49021 0.05747 0.1063 0.0
C566 C 0.52657 0.0485 0.11626 0.0
C567 C 0.53172 0.07141 0.11718 0.0
C568 C 0.51586 0.08727 0.11287 0.0
H569 H 0.64647 0.15004 0.10609 0.0
H570 H 0.61461 0.12455 0.10473 0.0
C571 C 0.49531 0.0804 0.10754 0.0
C572 C 0.55433 0.07904 0.12136 0.0
H573 H 0.58053 0.11785 0.14137 0.0
C574 C 0.57279 0.07237 0.11343 0.0
C575 C 0.55744 0.0947 0.13205 0.0
C576 C 0.53861 0.10128 0.14153 0.0
C577 C 0.59394 0.08225 0.11525 0.0
C578 C 0.5965 0.09948 0.12507 0.0
C579 C 0.57847 0.10489 0.13369 0.0
C580 C 0.61698 0.11347 0.12576 0.0
C581 C 0.61317 0.0745 0.10642 0.0
C582 C 0.62868 0.11603 0.13811 0.0
C583 C 0.64683 0.13081 0.13896 0.0
C584 C 0.65348 0.14341 0.1275 0.0
C585 C 0.64189 0.14054 0.1151 0.0
C586 C 0.62376 0.12581 0.11427 0.0
H587 H 0.61085 0.05682 0.10313 0.0
H588 H 0.61389 0.08502 0.09707 0.0
H589 H 0.62944 0.07596 0.11187 0.0
H590 H 0.62358 0.10681 0.14712 0.0
H591 H 0.65537 0.13262 0.14867 0.0
H592 H 0.20583 0.7304 0.12027 0.0
H593 H 0.19366 0.69494 0.10998 0.0
H594 H 0.12477 0.71186 0.11861 0.0
H595 H 0.13661 0.74722 0.12866 0.0
H596 H 0.17179 0.66167 0.1235 0.0
H597 H 0.12018 0.68904 0.07976 0.0
H598 H 0.13979 0.70751 0.08821 0.0
H599 H 0.11202 0.70349 0.09505 0.0
C600 C 0.18806 0.72674 0.11974 0.0
C601 C 0.1722 0.74163 0.12533 0.0
C602 C 0.18115 0.70648 0.11386 0.0
C603 C 0.15829 0.70093 0.11333 0.0
C604 C 0.14245 0.71604 0.11858 0.0
H605 H 0.08296 0.58547 0.12529 0.0
H606 H 0.1081 0.6176 0.1258 0.0
C607 C 0.1493 0.73619 0.12446 0.0
C608 C 0.15086 0.67848 0.10873 0.0
H609 H 0.11051 0.65279 0.0896 0.0
C610 C 0.15877 0.65964 0.11585 0.0
C611 C 0.13419 0.67573 0.09857 0.0
C612 C 0.12625 0.69503 0.08986 0.0
C613 C 0.14913 0.63844 0.11387 0.0
C614 C 0.13088 0.63619 0.10473 0.0
C615 C 0.12425 0.65462 0.09678 0.0
C616 C 0.11694 0.61567 0.10437 0.0
C617 C 0.15812 0.61882 0.1219 0.0
C618 C 0.11318 0.60415 0.09206 0.0
C619 C 0.09861 0.58577 0.0917 0.0
C620 C 0.08738 0.57878 0.10362 0.0
C621 C 0.09136 0.59031 0.11593 0.0
C622 C 0.1059 0.6086 0.11627 0.0
H623 H 0.17611 0.62123 0.12449 0.0
H624 H 0.14869 0.61737 0.13165 0.0
H625 H 0.15625 0.60287 0.11615 0.0
H626 H 0.12137 0.60951 0.08273 0.0
H627 H 0.09588 0.5773 0.08205 0.0
H628 H 0.48191 0.88635 0.38123 0.0
H629 H 0.51797 0.87343 0.37268 0.0
H630 H 0.5369 0.94153 0.36346 0.0
H631 H 0.50072 0.95483 0.37226 0.0
H632 H 0.53956 0.87806 0.34743 0.0
H633 H 0.58639 0.91986 0.38965 0.0
H634 H 0.55629 0.91678 0.38994 0.0
H635 H 0.56905 0.93743 0.37909 0.0
C636 C 0.4936 0.89866 0.37731 0.0
C637 C 0.48851 0.92168 0.3776 0.0
C638 C 0.51421 0.8912 0.37237 0.0
C639 C 0.5302 0.90654 0.36762 0.0
C640 C 0.52488 0.92947 0.36729 0.0
H641 H 0.65537 0.84592 0.3363 0.0
H642 H 0.62276 0.87084 0.33752 0.0
C643 C 0.50418 0.937 0.37227 0.0
C644 C 0.55274 0.89823 0.3638 0.0
H645 H 0.60679 0.89603 0.37523 0.0
C646 C 0.55439 0.88224 0.35332 0.0
C647 C 0.57195 0.90366 0.37163 0.0
C648 C 0.57097 0.92025 0.38328 0.0
C649 C 0.57452 0.87072 0.35086 0.0
C650 C 0.59353 0.87564 0.35897 0.0
C651 C 0.59216 0.89239 0.36902 0.0
C652 C 0.61415 0.86186 0.35829 0.0
C653 C 0.57488 0.85245 0.34018 0.0
C654 C 0.62046 0.8491 0.3697 0.0
C655 C 0.6391 0.835 0.36909 0.0
C656 C 0.65185 0.83338 0.35704 0.0
C657 C 0.64582 0.84665 0.34571 0.0
C658 C 0.62715 0.86083 0.34636 0.0
H659 H 0.55777 0.84812 0.33653 0.0
H660 H 0.58484 0.85815 0.33125 0.0
H661 H 0.5829 0.83706 0.34428 0.0
H662 H 0.61064 0.84968 0.37902 0.0
H663 H 0.64328 0.8251 0.37802 0.0
H664 H 0.34516 0.23543 0.6342 0.0
H665 H 0.35754 0.27106 0.62476 0.0
H666 H 0.28936 0.28747 0.61394 0.0
H667 H 0.27661 0.25172 0.62361 0.0
H668 H 0.35295 0.28978 0.59845 0.0
H669 H 0.30947 0.34007 0.63852 0.0
H670 H 0.31333 0.31017 0.64007 0.0
H671 H 0.29256 0.32113 0.62859 0.0
C672 C 0.33272 0.24649 0.62977 0.0
C673 C 0.30983 0.24079 0.6298 0.0
C674 C 0.33987 0.26684 0.62432 0.0
C675 C 0.32434 0.28199 0.61881 0.0
C676 C 0.30156 0.27611 0.61834 0.0
H677 H 0.38374 0.40485 0.5835 0.0
H678 H 0.35889 0.37232 0.58567 0.0
C679 C 0.29434 0.25566 0.62382 0.0
C680 C 0.3323 0.30423 0.6142 0.0
H681 H 0.33341 0.35933 0.62361 0.0
C682 C 0.34841 0.3051 0.60376 0.0
C683 C 0.3264 0.32408 0.62125 0.0
C684 C 0.30961 0.32397 0.6328 0.0
C685 C 0.35961 0.32513 0.6006 0.0
C686 C 0.35426 0.34482 0.60798 0.0
C687 C 0.33737 0.34418 0.61796 0.0
C688 C 0.36786 0.36546 0.60669 0.0
C689 C 0.37802 0.32475 0.59001 0.0
C690 C 0.38059 0.37272 0.6179 0.0
C691 C 0.39467 0.39127 0.61674 0.0
C692 C 0.39628 0.40302 0.60432 0.0
C693 C 0.383 0.3961 0.59318 0.0
C694 C 0.36886 0.37748 0.59438 0.0
H695 H 0.3825 0.30742 0.58688 0.0
H696 H 0.37238 0.334 0.58079 0.0
H697 H 0.39331 0.33317 0.59398 0.0
H698 H 0.38003 0.36366 0.6275 0.0
H699 H 0.40456 0.39616 0.62554 0.0
H700 H 0.97304 0.02782 0.88115 0.0
H701 H 0.93722 0.0439 0.87381 0.0
H702 H 0.97083 0.10551 0.86308 0.0
H703 H 0.00637 0.08989 0.87101 0.0
H704 H 0.93729 0.11387 0.87905 0.0
H705 H 0.90709 0.05708 0.83823 0.0
H706 H 0.91331 0.04235 0.85376 0.0
H707 H 0.93551 0.05619 0.84457 0.0
C708 C 0.97281 0.0446 0.87693 0.0
C709 C -0.0076 0.05768 0.87672 0.0
C710 C 0.95235 0.05375 0.87266 0.0
C711 C 0.95132 0.07588 0.86777 0.0
C712 C 0.97118 0.08843 0.86684 0.0
H713 H 0.83531 0.14543 0.8346 0.0
H714 H 0.86958 0.12341 0.83767 0.0
C715 C -0.00852 0.07949 0.87136 0.0
C716 C 0.92943 0.08694 0.86514 0.0
H717 H 0.87997 0.08236 0.84773 0.0
C718 C 0.92486 0.10703 0.8721 0.0
C719 C 0.91323 0.07814 0.85602 0.0
C720 C 0.91761 0.05738 0.84762 0.0
C721 C 0.90461 0.11852 0.87026 0.0
C722 C 0.88799 0.10922 0.86162 0.0
C723 C 0.89259 0.08927 0.85452 0.0
C724 C 0.86604 0.12042 0.85962 0.0
C725 C 0.90151 0.1408 0.87736 0.0
C726 C 0.85229 0.12536 0.87087 0.0
C727 C 0.83293 0.13825 0.86919 0.0
C728 C 0.82669 0.14598 0.85616 0.0
C729 C 0.83972 0.13978 0.84478 0.0
C730 C 0.85928 0.12718 0.84651 0.0
H731 H 0.91787 0.14849 0.88015 0.0
H732 H 0.89215 0.15279 0.87082 0.0
H733 H 0.8919 0.13824 0.88695 0.0
H734 H 0.85684 0.11975 0.88103 0.0
H735 H 0.82305 0.14245 0.87812 0.0
H736 H 0.87196 0.54606 0.62197 0.0
H737 H 0.84701 0.57618 0.62969 0.0
H738 H 0.85966 0.61226 0.59222 0.0
H739 H 0.88343 0.58178 0.58421 0.0
H740 H 0.85641 0.61661 0.6356 0.0
H741 H 0.79423 0.62073 0.59411 0.0
H742 H 0.81361 0.59764 0.59565 0.0
H743 H 0.82172 0.62304 0.58692 0.0
C744 C 0.86901 0.56026 0.6153 0.0
C745 C 0.87949 0.56155 0.60247 0.0
C746 C 0.85479 0.57745 0.61971 0.0
C747 C 0.85104 0.59634 0.61143 0.0
C748 C 0.86154 0.59755 0.5986 0.0
H749 H 0.83096 0.73086 0.63749 0.0
H750 H 0.84397 0.69312 0.63209 0.0
C751 C 0.87533 0.58018 0.59407 0.0
C752 C 0.83795 0.61574 0.61663 0.0
H753 H 0.79993 0.65536 0.60685 0.0
C754 C 0.84374 0.62481 0.62941 0.0
C755 C 0.82097 0.62624 0.60879 0.0
C756 C 0.81212 0.6162 0.59569 0.0
C757 C 0.83401 0.64474 0.63417 0.0
C758 C 0.81881 0.65647 0.62565 0.0
C759 C 0.81198 0.6467 0.61327 0.0
C760 C 0.81071 0.67934 0.62904 0.0
C761 C 0.84022 0.65294 0.64828 0.0
C762 C 0.78774 0.68452 0.6285 0.0
C763 C 0.78031 0.70633 0.63116 0.0
C764 C 0.79573 0.72324 0.63457 0.0
C765 C 0.81868 0.71807 0.63507 0.0
C766 C 0.82612 0.69642 0.63213 0.0
H767 H 0.84447 0.63869 0.65512 0.0
H768 H 0.8553 0.66377 0.64757 0.0
H769 H 0.82641 0.6627 0.65302 0.0
H770 H 0.77554 0.67169 0.62602 0.0
H771 H 0.76251 0.7099 0.63072 0.0
H772 H 0.18707 0.11652 0.37006 0.0
H773 H 0.15622 0.09168 0.37668 0.0
H774 H 0.12132 0.10845 0.33937 0.0
H775 H 0.15257 0.1321 0.3324 0.0
H776 H 0.11635 0.10246 0.38264 0.0
H777 H 0.10968 0.04351 0.33952 0.0
H778 H 0.13356 0.06177 0.34157 0.0
H779 H 0.10849 0.07159 0.33311 0.0
C780 C 0.173 0.11445 0.36316 0.0
C781 C 0.17221 0.12614 0.35071 0.0
C782 C 0.15538 0.10029 0.36694 0.0
C783 C 0.13653 0.09783 0.35843 0.0
C784 C 0.13594 0.10935 0.34591 0.0
H785 H 0.00141 0.08068 0.38471 0.0
H786 H 0.03919 0.09297 0.3788 0.0
C787 C 0.15375 0.12307 0.34199 0.0
C788 C 0.11651 0.08528 0.36322 0.0
H789 H 0.07539 0.04954 0.35254 0.0
C790 C 0.10767 0.09055 0.37614 0.0
C791 C 0.10531 0.06933 0.35494 0.0
C792 C 0.11495 0.06106 0.3416 0.0
C793 C 0.08739 0.08129 0.38067 0.0
C794 C 0.07508 0.06713 0.37181 0.0
C795 C 0.08452 0.06082 0.35923 0.0
C796 C 0.05204 0.05951 0.37514 0.0
C797 C 0.07947 0.08686 0.39494 0.0
C798 C 0.0463 0.0367 0.37438 0.0
C799 C 0.02446 0.0297 0.37738 0.0
C800 C 0.0081 0.04538 0.38132 0.0
C801 C 0.01378 0.06819 0.38189 0.0
C802 C 0.03544 0.07521 0.37864 0.0
H803 H 0.09386 0.09037 0.40183 0.0
H804 H 0.06894 0.10219 0.3946 0.0
H805 H 0.06944 0.07299 0.3994 0.0
H806 H 0.05875 0.0243 0.37158 0.0
H807 H 0.0205 0.012 0.37685 0.0
H808 H 0.61294 0.41356 0.08079 0.0
H809 H 0.63481 0.38045 0.08712 0.0
H810 H 0.62118 0.39313 0.12972 0.0
H811 H 0.59938 0.4264 0.12351 0.0
H812 H 0.66688 0.3783 0.12332 0.0
H813 H 0.59991 0.32434 0.10122 0.0
H814 H 0.61119 0.34536 0.09 0.0
H815 H 0.59565 0.3537 0.10489 0.0
C816 C 0.61488 0.40952 0.09152 0.0
C817 C 0.6042 0.42241 0.10165 0.0
C818 C 0.62733 0.39058 0.0951 0.0
C819 C 0.62926 0.38423 0.10885 0.0
C820 C 0.61977 0.39777 0.11904 0.0
H821 H 0.65281 0.25433 0.1438 0.0
H822 H 0.63907 0.29138 0.13721 0.0
C823 C 0.6073 0.41673 0.11548 0.0
C824 C 0.63963 0.36256 0.11254 0.0
H825 H 0.6318 0.30605 0.11005 0.0
C826 C 0.65933 0.36247 0.12039 0.0
C827 C 0.62948 0.34202 0.10882 0.0
C828 C 0.6078 0.34121 0.10086 0.0
C829 C 0.66923 0.34225 0.12459 0.0
C830 C 0.65919 0.32172 0.12074 0.0
C831 C 0.6395 0.32186 0.1129 0.0
C832 C 0.66827 0.29982 0.12514 0.0
C833 C 0.69 0.34294 0.13339 0.0
C834 C 0.68921 0.29232 0.12047 0.0
C835 C 0.69712 0.2711 0.12419 0.0
C836 C 0.68413 0.25707 0.1326 0.0
C837 C 0.66321 0.26473 0.1373 0.0
C838 C 0.65534 0.28589 0.13356 0.0
H839 H 0.69298 0.3599 0.13773 0.0
H840 H 0.68871 0.33072 0.14192 0.0
H841 H 0.70479 0.33829 0.12711 0.0
H842 H 0.69926 0.30271 0.11377 0.0
H843 H 0.71328 0.26563 0.12039 0.0
H844 H 0.4609 0.96759 0.88094 0.0
H845 H 0.42248 0.95547 0.87605 0.0
H846 H 0.44277 0.88644 0.88086 0.0
H847 H 0.48076 0.89855 0.88648 0.0
H848 H 0.40548 0.93236 0.85655 0.0
H849 H 0.38858 0.88591 0.90411 0.0
H850 H 0.41294 0.90354 0.90219 0.0
H851 H 0.4133 0.87494 0.89616 0.0
C852 C 0.45705 0.94985 0.88106 0.0
C853 C 0.47371 0.934 0.88419 0.0
C854 C 0.43512 0.94294 0.87827 0.0
C855 C 0.42954 0.92005 0.87841 0.0
C856 C 0.44639 0.90422 0.8812 0.0
H857 H 0.32859 0.85211 0.83332 0.0
H858 H 0.35984 0.87491 0.84123 0.0
C859 C 0.46817 0.91114 0.88427 0.0
C860 C 0.40646 0.91258 0.87499 0.0
H861 H 0.36569 0.87576 0.88463 0.0
C862 C 0.39661 0.92026 0.86282 0.0
C863 C 0.39448 0.89732 0.88333 0.0
C864 C 0.4028 0.8902 0.89725 0.0
C865 C 0.37576 0.91215 0.85838 0.0
C866 C 0.3649 0.89517 0.86603 0.0
C867 C 0.37413 0.88846 0.87859 0.0
C868 C 0.34489 0.88302 0.86082 0.0
C869 C 0.36567 0.92195 0.84555 0.0
C870 C 0.32619 0.87939 0.8693 0.0
C871 C 0.30855 0.8657 0.86493 0.0
C872 C 0.30917 0.85565 0.85195 0.0
C873 C 0.3275 0.85987 0.84332 0.0
C874 C 0.34533 0.87312 0.84779 0.0
H875 H 0.37073 0.93975 0.84426 0.0
H876 H 0.37201 0.91257 0.83654 0.0
H877 H 0.34708 0.92105 0.84566 0.0
H878 H 0.32549 0.88674 0.87942 0.0
H879 H 0.2946 0.8627 0.87179 0.0
H880 H 0.86457 0.41358 0.90144 0.0
H881 H 0.8422 0.38122 0.89445 0.0
H882 H 0.86089 0.39236 0.85242 0.0
H883 H 0.88331 0.42491 0.85929 0.0
H884 H 0.81314 0.37902 0.85784 0.0
H885 H 0.87791 0.32402 0.88144 0.0
H886 H 0.86669 0.34579 0.89218 0.0
H887 H 0.8831 0.35311 0.87746 0.0
C888 C 0.86365 0.40939 0.89067 0.0
C889 C 0.87595 0.4216 0.88093 0.0
C890 C 0.85087 0.3909 0.88672 0.0
C891 C 0.85019 0.38432 0.87297 0.0
C892 C 0.8613 0.39723 0.86309 0.0
H893 H 0.82587 0.2545 0.83837 0.0
H894 H 0.83963 0.29162 0.84469 0.0
C895 C 0.87412 0.41575 0.86704 0.0
C896 C 0.83963 0.36287 0.86909 0.0
H897 H 0.84616 0.30627 0.87206 0.0
C898 C 0.82024 0.36308 0.86096 0.0
C899 C 0.84918 0.3422 0.87309 0.0
C900 C 0.87046 0.3411 0.88144 0.0
C901 C 0.81006 0.34298 0.85676 0.0
C902 C 0.81953 0.32233 0.86088 0.0
C903 C 0.83892 0.32219 0.869 0.0
C904 C 0.81025 0.30053 0.85647 0.0
C905 C 0.78961 0.34391 0.8477 0.0
C906 C 0.78916 0.2933 0.86104 0.0
C907 C 0.78124 0.27201 0.85747 0.0
C908 C 0.79436 0.25766 0.84933 0.0
C909 C 0.81537 0.26512 0.84467 0.0
C910 C 0.82326 0.28633 0.84825 0.0
H911 H 0.78695 0.36091 0.84334 0.0
H912 H 0.79109 0.33168 0.83919 0.0
H913 H 0.77457 0.33939 0.85379 0.0
H914 H 0.77905 0.30392 0.86758 0.0
H915 H 0.765 0.2667 0.86122 0.0
H916 H 0.30751 0.13155 0.61203 0.0
H917 H 0.34004 0.10857 0.60605 0.0
H918 H 0.35221 0.09555 0.64878 0.0
H919 H 0.31982 0.11864 0.65488 0.0
H920 H 0.38902 0.11305 0.63488 0.0
H921 H 0.35278 0.04078 0.60682 0.0
H922 H 0.34303 0.06758 0.60092 0.0
H923 H 0.33628 0.0585 0.61795 0.0
C924 C 0.31686 0.12345 0.62014 0.0
C925 C 0.31119 0.12701 0.63393 0.0
C926 C 0.33535 0.11021 0.6167 0.0
C927 C 0.34839 0.10022 0.62697 0.0
C928 C 0.34227 0.10305 0.64071 0.0
H929 H 0.46716 0.01674 0.6133 0.0
H930 H 0.43061 0.03056 0.62116 0.0
C931 C 0.32376 0.11624 0.64417 0.0
C932 C 0.36971 0.08893 0.62346 0.0
H933 H 0.39231 0.04663 0.60437 0.0
C934 C 0.38973 0.09837 0.62834 0.0
C935 C 0.37055 0.06973 0.61499 0.0
C936 C 0.34951 0.05839 0.60995 0.0
C937 C 0.41063 0.08957 0.6246 0.0
C938 C 0.4115 0.07099 0.61565 0.0
C939 C 0.39151 0.06102 0.61114 0.0
C940 C 0.4331 0.06225 0.61054 0.0
C941 C 0.43166 0.10031 0.63015 0.0
C942 C 0.44631 0.07541 0.60183 0.0
C943 C 0.46708 0.0676 0.59731 0.0
C944 C 0.475 0.04646 0.60144 0.0
C945 C 0.46154 0.03314 0.61 0.0
C946 C 0.44067 0.04095 0.61447 0.0
H947 H 0.42813 0.11091 0.63924 0.0
H948 H 0.44422 0.08737 0.63299 0.0
H949 H 0.43918 0.11112 0.62214 0.0
H950 H 0.44057 0.0918 0.59858 0.0
H951 H 0.477 0.07821 0.59067 0.0
H952 H 0.72092 0.70917 0.3573 0.0
H953 H 0.70914 0.67072 0.36241 0.0
H954 H 0.6403 0.68916 0.35463 0.0
H955 H 0.65211 0.72713 0.34886 0.0
H956 H 0.68398 0.65389 0.38127 0.0
H957 H 0.64389 0.63426 0.33195 0.0
H958 H 0.66085 0.65899 0.33433 0.0
H959 H 0.63156 0.65908 0.33899 0.0
C960 C 0.7033 0.70491 0.35659 0.0
C961 C 0.68744 0.72103 0.35256 0.0
C962 C 0.69659 0.68296 0.3595 0.0
C963 C 0.67389 0.67686 0.35856 0.0
C964 C 0.658 0.69318 0.35492 0.0
H965 H 0.60154 0.57691 0.40166 0.0
H966 H 0.62537 0.60794 0.39459 0.0
C967 C 0.66473 0.71496 0.35175 0.0
C968 C 0.66654 0.65375 0.36196 0.0
H969 H 0.63163 0.61205 0.35125 0.0
C970 C 0.67283 0.64455 0.3746 0.0
C971 C 0.65257 0.64118 0.35311 0.0
C972 C 0.64708 0.64881 0.33878 0.0
C973 C 0.66446 0.62378 0.37898 0.0
C974 C 0.64864 0.61234 0.37073 0.0
C975 C 0.64343 0.62092 0.35774 0.0
C976 C 0.63609 0.59239 0.37564 0.0
C977 C 0.67271 0.61441 0.3924 0.0
C978 C 0.63367 0.57341 0.36725 0.0
C979 C 0.61941 0.55592 0.37109 0.0
C980 C 0.60759 0.55696 0.38349 0.0
C981 C 0.61067 0.57552 0.39212 0.0
C982 C 0.62449 0.59322 0.38813 0.0
H983 H 0.69025 0.61977 0.39445 0.0
H984 H 0.66215 0.62102 0.40083 0.0
H985 H 0.67204 0.59582 0.39256 0.0
H986 H 0.64235 0.57239 0.35753 0.0
H987 H 0.61733 0.54176 0.36426 0.0
H988 H 0.17444 0.85105 0.11071 0.0
H989 H 0.14192 0.87431 0.10518 0.0
H990 H 0.13078 0.88653 0.14812 0.0
H991 H 0.16313 0.86308 0.15376 0.0
H992 H 0.09374 0.86969 0.1348 0.0
H993 H 0.12897 0.94169 0.10616 0.0
H994 H 0.13834 0.91498 0.0999 0.0
H995 H 0.14595 0.92377 0.11687 0.0
C996 C 0.16534 0.85905 0.11896 0.0
C997 C 0.17124 0.85511 0.13267 0.0
C998 C 0.14685 0.87246 0.11578 0.0
C999 C 0.13408 0.88229 0.12624 0.0
C1000 C 0.1405 0.87916 0.1399 0.0
H1001 H 0.01513 0.96569 0.11257 0.0
H1002 H 0.05184 0.95217 0.12033 0.0
C1003 C 0.15898 0.86576 0.1431 0.0
C1004 C 0.11265 0.89361 0.123 0.0
H1005 H 0.08937 0.93548 0.10389 0.0
C1006 C 0.09281 0.88425 0.12818 0.0
C1007 C 0.1115 0.91268 0.11444 0.0
C1008 C 0.13234 0.92402 0.10912 0.0
C1009 C 0.07177 0.89295 0.12463 0.0
C1010 C 0.07058 0.9113 0.11553 0.0
C1011 C 0.09041 0.92125 0.11076 0.0
C1012 C 0.04881 0.9198 0.11053 0.0
C1013 C 0.05096 0.88232 0.13055 0.0
C1014 C 0.03523 0.90615 0.1023 0.0
C1015 C 0.01435 0.91379 0.09785 0.0
C1016 C 0.00671 0.93525 0.10154 0.0
C1017 C 0.02054 0.94905 0.10961 0.0
C1018 C 0.04149 0.9414 0.11402 0.0
H1019 H 0.0548 0.87229 0.13983 0.0
H1020 H 0.03831 0.89527 0.13323 0.0
H1021 H 0.04342 0.87096 0.12283 0.0
H1022 H 0.04078 0.88954 0.09935 0.0
H1023 H 0.00416 0.90281 0.09158 0.0
H1024 H 0.70859 0.75259 0.85981 0.0
H1025 H 0.69685 0.78865 0.86958 0.0
H1026 H 0.62752 0.76953 0.86484 0.0
H1027 H 0.63896 0.73367 0.85532 0.0
H1028 H 0.67186 0.82028 0.85596 0.0
H1029 H 0.62779 0.79539 0.90317 0.0
H1030 H 0.64689 0.77685 0.89433 0.0
H1031 H 0.61813 0.77927 0.88885 0.0
C1032 C 0.69086 0.75591 0.86112 0.0
C1033 C 0.67471 0.74028 0.85674 0.0
C1034 C 0.6842 0.77651 0.86668 0.0
C1035 C 0.66132 0.78162 0.86811 0.0
C1036 C 0.64526 0.76575 0.86413 0.0
H1037 H 0.58107 0.89521 0.85739 0.0
H1038 H 0.60694 0.86364 0.85592 0.0
C1039 C 0.65186 0.7453 0.85856 0.0
C1040 C 0.65384 0.80425 0.87236 0.0
H1041 H 0.61554 0.83037 0.89278 0.0
C1042 C 0.65995 0.82262 0.86422 0.0
C1043 C 0.63862 0.8074 0.88328 0.0
C1044 C 0.63268 0.78869 0.89299 0.0
C1045 C 0.64987 0.84367 0.86603 0.0
C1046 C 0.63298 0.84621 0.87607 0.0
C1047 C 0.62821 0.82832 0.88492 0.0
C1048 C 0.6187 0.86651 0.8768 0.0
C1049 C 0.657 0.86281 0.85695 0.0
C1050 C 0.61638 0.87838 0.88911 0.0
C1051 C 0.60138 0.89634 0.89003 0.0
C1052 C 0.58832 0.90266 0.87867 0.0
C1053 C 0.59093 0.89089 0.86632 0.0
C1054 C 0.60587 0.87293 0.86542 0.0
H1055 H 0.67461 0.86067 0.85346 0.0
H1056 H 0.64615 0.86315 0.84773 0.0
H1057 H 0.65548 0.87917 0.86228 0.0
H1058 H 0.62598 0.87356 0.89804 0.0
H1059 H 0.59979 0.90503 0.89971 0.0
H1060 H 0.49697 0.38798 0.10182 0.0
H1061 H 0.46128 0.37533 0.11103 0.0
H1062 H 0.44324 0.44356 0.12062 0.0
H1063 H 0.47906 0.4566 0.11116 0.0
H1064 H 0.44145 0.38031 0.13685 0.0
H1065 H 0.39194 0.42181 0.09567 0.0
H1066 H 0.42198 0.41856 0.09461 0.0
H1067 H 0.41009 0.43934 0.10575 0.0
C1068 C 0.48554 0.40039 0.10594 0.0
C1069 C 0.4908 0.42336 0.1056 0.0
C1070 C 0.46515 0.39307 0.11126 0.0
C1071 C 0.44953 0.40852 0.11634 0.0
C1072 C 0.45497 0.43142 0.11654 0.0
H1073 H 0.32648 0.3471 0.15019 0.0
H1074 H 0.35868 0.37246 0.14842 0.0
C1075 C 0.47547 0.4388 0.11119 0.0
C1076 C 0.42724 0.4003 0.12072 0.0
H1077 H 0.37258 0.39778 0.11047 0.0
C1078 C 0.42626 0.3844 0.13127 0.0
C1079 C 0.40756 0.40562 0.11332 0.0
C1080 C 0.40779 0.42215 0.10164 0.0
C1081 C 0.40635 0.3728 0.13419 0.0
C1082 C 0.38687 0.37755 0.12646 0.0
C1083 C 0.38757 0.39427 0.11638 0.0
C1084 C 0.36647 0.36353 0.12751 0.0
C1085 C 0.4067 0.3546 0.1449 0.0
C1086 C 0.35984 0.35062 0.11622 0.0
C1087 C 0.34145 0.33627 0.11715 0.0
C1088 C 0.32926 0.33453 0.12941 0.0
C1089 C 0.3356 0.34792 0.14062 0.0
C1090 C 0.35403 0.36236 0.13966 0.0
H1091 H 0.42402 0.3505 0.14828 0.0
H1092 H 0.39705 0.36023 0.15397 0.0
H1093 H 0.3987 0.33909 0.14094 0.0
H1094 H 0.36923 0.3513 0.10674 0.0
H1095 H 0.33702 0.32629 0.10829 0.0
H1096 H 0.88433 0.07635 0.39887 0.0
H1097 H 0.85864 0.1083 0.39744 0.0
H1098 H 0.87457 0.11596 0.35469 0.0
H1099 H 0.89992 0.08399 0.35593 0.0
H1100 H 0.8697 0.15126 0.39093 0.0
H1101 H 0.80668 0.11988 0.35425 0.0
H1102 H 0.82608 0.1015 0.36295 0.0
H1103 H 0.83457 0.11629 0.34775 0.0
C1104 C 0.88215 0.08465 0.38912 0.0
C1105 C 0.8942 0.07759 0.37751 0.0
C1106 C 0.86745 0.10289 0.38833 0.0
C1107 C 0.8644 0.11425 0.37591 0.0
C1108 C 0.87621 0.10708 0.36429 0.0
H1109 H 0.84452 0.24662 0.35244 0.0
H1110 H 0.85636 0.21085 0.36193 0.0
C1111 C 0.89087 0.08889 0.36506 0.0
C1112 C 0.85047 0.13477 0.37521 0.0
H1113 H 0.8105 0.16031 0.35571 0.0
C1114 C 0.85642 0.15311 0.38344 0.0
C1115 C 0.83281 0.13707 0.36565 0.0
C1116 C 0.82449 0.11753 0.35726 0.0
C1117 C 0.84638 0.17416 0.3816 0.0
C1118 C 0.8303 0.17697 0.3711 0.0
C1119 C 0.82308 0.15822 0.36363 0.0
C1120 C 0.82278 0.19946 0.36664 0.0
C1121 C 0.85357 0.19335 0.39065 0.0
C1122 C 0.79989 0.20486 0.36597 0.0
C1123 C 0.79298 0.22538 0.36043 0.0
C1124 C 0.80889 0.24066 0.35532 0.0
C1125 C 0.8318 0.23529 0.35628 0.0
C1126 C 0.83864 0.21489 0.36182 0.0
H1127 H 0.85933 0.1872 0.40078 0.0
H1128 H 0.86783 0.20223 0.38578 0.0
H1129 H 0.83971 0.20552 0.39221 0.0
H1130 H 0.78737 0.19306 0.36952 0.0
H1131 H 0.77521 0.22897 0.35981 0.0
H1132 H 0.15634 0.63353 0.6519 0.0
H1133 H 0.12529 0.60663 0.6513 0.0
H1134 H 0.1147 0.62134 0.60861 0.0
H1135 H 0.14573 0.64781 0.60902 0.0
H1136 H 0.08168 0.61523 0.64574 0.0
H1137 H 0.11338 0.55362 0.60841 0.0
H1138 H 0.13149 0.5738 0.61665 0.0
H1139 H 0.11565 0.58145 0.60166 0.0
C1140 C 0.14757 0.63083 0.64234 0.0
C1141 C 0.15356 0.64282 0.63049 0.0
C1142 C 0.12986 0.61543 0.64202 0.0
C1143 C 0.11799 0.61163 0.62984 0.0
C1144 C 0.12404 0.6235 0.61802 0.0
H1145 H 0.9869 0.5928 0.60715 0.0
H1146 H 0.02243 0.60325 0.61746 0.0
C1147 C 0.14168 0.63882 0.61832 0.0
C1148 C 0.09803 0.59686 0.62957 0.0
H1149 H 0.07266 0.55703 0.6099 0.0
C1150 C 0.07988 0.60211 0.63813 0.0
C1151 C 0.09581 0.57932 0.61992 0.0
C1152 C 0.11525 0.57156 0.61126 0.0
C1153 C 0.05896 0.59174 0.6364 0.0
C1154 C 0.05607 0.5761 0.62566 0.0
C1155 C 0.07476 0.56931 0.61798 0.0
C1156 C 0.03351 0.56916 0.62094 0.0
C1157 C 0.03994 0.59828 0.64575 0.0
C1158 C 0.02795 0.54644 0.61928 0.0
C1159 C 0.00755 0.54033 0.61322 0.0
C1160 C -0.00744 0.55689 0.60857 0.0
C1161 C -0.00198 0.57958 0.61058 0.0
C1162 C 0.01828 0.58562 0.61663 0.0
H1163 H 0.04631 0.60301 0.65604 0.0
H1164 H 0.03119 0.61311 0.64145 0.0
H1165 H 0.02761 0.58446 0.6469 0.0
H1166 H 0.03961 0.53347 0.62239 0.0
H1167 H 0.00387 0.52271 0.61178 0.0
H1168 H 0.58118 0.08703 0.62475 0.0
H1169 H 0.60668 0.11887 0.62563 0.0
H1170 H 0.62564 0.10721 0.58367 0.0
H1171 H 0.5997 0.07538 0.58258 0.0
H1172 H 0.65278 0.12195 0.62119 0.0
H1173 H 0.60433 0.17254 0.58348 0.0
H1174 H 0.5931 0.14742 0.59112 0.0
H1175 H 0.61397 0.14546 0.57794 0.0
C1176 C 0.59079 0.09112 0.61569 0.0
C1177 C 0.58822 0.07876 0.60355 0.0
C1178 C 0.60543 0.10931 0.61623 0.0
C1179 C 0.61785 0.11554 0.60467 0.0
C1180 C 0.61592 0.10288 0.59263 0.0
H1181 H 0.70881 0.23007 0.62114 0.0
H1182 H 0.69711 0.19403 0.61131 0.0
C1183 C 0.60115 0.08466 0.59206 0.0
C1184 C 0.63203 0.13589 0.60533 0.0
H1185 H 0.63392 0.19041 0.59482 0.0
C1186 C 0.649 0.13684 0.61526 0.0
C1187 C 0.62696 0.15524 0.59756 0.0
C1188 C 0.60853 0.15532 0.58697 0.0
C1189 C 0.66012 0.15699 0.61823 0.0
C1190 C 0.65433 0.17658 0.61089 0.0
C1191 C 0.63836 0.1753 0.60037 0.0
C1192 C 0.6618 0.19904 0.61544 0.0
C1193 C 0.6768 0.15751 0.62984 0.0
C1194 C 0.64577 0.21403 0.62056 0.0
C1195 C 0.65231 0.23453 0.62608 0.0
C1196 C 0.6751 0.24055 0.6266 0.0
C1197 C 0.69114 0.22587 0.62097 0.0
C1198 C 0.68451 0.20525 0.61541 0.0
H1199 H 0.67703 0.14157 0.6357 0.0
H1200 H 0.69387 0.1604 0.62568 0.0
H1201 H 0.67288 0.17145 0.63698 0.0
H1202 H 0.62815 0.20957 0.62067 0.0
H1203 H 0.63946 0.24544 0.63021 0.0
H1204 H 0.14443 0.33331 0.8373 0.0
H1205 H 0.11148 0.35724 0.84033 0.0
H1206 H 0.1275 0.36478 0.88313 0.0
H1207 H 0.15984 0.34011 0.88027 0.0
H1208 H 0.0862 0.35248 0.88032 0.0
H1209 H 0.10079 0.42299 0.8447 0.0
H1210 H 0.10244 0.39639 0.83621 0.0
H1211 H 0.1226 0.40337 0.84925 0.0
C1212 C 0.14111 0.34038 0.8473 0.0
C1213 C 0.1546 0.33472 0.85857 0.0
C1214 C 0.12237 0.35423 0.849 0.0
C1215 C 0.11714 0.36308 0.86192 0.0
C1216 C 0.1312 0.35817 0.87305 0.0
H1217 H 0.00695 0.45352 0.8827 0.0
H1218 H 0.04373 0.43865 0.87598 0.0
C1219 C 0.14965 0.34403 0.87142 0.0
C1220 C 0.09576 0.37527 0.86425 0.0
H1221 H 0.063 0.41848 0.85289 0.0
C1222 C 0.0813 0.36706 0.87439 0.0
C1223 C 0.08938 0.39442 0.85662 0.0
C1224 C 0.10474 0.40495 0.84619 0.0
C1225 C 0.06054 0.37713 0.87698 0.0
C1226 C 0.0536 0.39549 0.86885 0.0
C1227 C 0.06822 0.40414 0.85893 0.0
C1228 C 0.03117 0.40572 0.87069 0.0
C1229 C 0.04636 0.36812 0.88854 0.0
C1230 C 0.01187 0.39249 0.8693 0.0
C1231 C -0.00897 0.40078 0.87331 0.0
C1232 C 0.98903 0.42266 0.87849 0.0
C1233 C 0.00804 0.43658 0.87876 0.0
C1234 C 0.02903 0.42811 0.87494 0.0
H1235 H 0.05665 0.35877 0.8961 0.0
H1236 H 0.03743 0.38184 0.89395 0.0
H1237 H 0.03369 0.35636 0.88434 0.0
H1238 H 0.0131 0.37535 0.86569 0.0
H1239 H 0.97659 0.38979 0.87279 0.0
H1240 H 0.8833 0.90479 0.084 0.0
H1241 H 0.85768 0.87289 0.08593 0.0
H1242 H 0.87381 0.86691 0.12876 0.0
H1243 H 0.89906 0.89888 0.12703 0.0
H1244 H 0.86882 0.83041 0.09284 0.0
H1245 H 0.80611 0.86243 0.1295 0.0
H1246 H 0.82539 0.88066 0.12061 0.0
H1247 H 0.83403 0.8662 0.1359 0.0
C1248 C 0.88116 0.89688 0.09388 0.0
C1249 C 0.89325 0.90441 0.10537 0.0
C1250 C 0.8665 0.87867 0.09495 0.0
C1251 C 0.86354 0.86777 0.10754 0.0
C1252 C 0.87536 0.87543 0.11903 0.0
H1253 H 0.84423 0.73558 0.13191 0.0
H1254 H 0.85591 0.77129 0.1223 0.0
C1255 C 0.88997 0.89362 0.11799 0.0
C1256 C 0.84973 0.84719 0.10852 0.0
H1257 H 0.81008 0.82197 0.12838 0.0
C1258 C 0.85564 0.82869 0.10041 0.0
C1259 C 0.8322 0.84505 0.11817 0.0
C1260 C 0.8239 0.86475 0.12643 0.0
C1261 C 0.84567 0.80766 0.10245 0.0
C1262 C 0.82973 0.80504 0.11303 0.0
C1263 C 0.82256 0.82392 0.1204 0.0
C1264 C 0.82227 0.78262 0.11766 0.0
C1265 C 0.85279 0.78831 0.0935 0.0
C1266 C 0.79939 0.7772 0.11843 0.0
C1267 C 0.79258 0.75671 0.12404 0.0
C1268 C 0.80855 0.74146 0.12912 0.0
C1269 C 0.83145 0.74687 0.12809 0.0
C1270 C 0.8382 0.76724 0.12248 0.0
H1271 H 0.85842 0.79427 0.08331 0.0
H1272 H 0.86713 0.77953 0.09837 0.0
H1273 H 0.83893 0.7761 0.09207 0.0
H1274 H 0.78683 0.78896 0.11487 0.0
H1275 H 0.77481 0.75309 0.12471 0.0
H1276 H 0.50027 0.59444 0.37809 0.0
H1277 H 0.46456 0.60698 0.36883 0.0
H1278 H 0.44599 0.5385 0.36034 0.0
H1279 H 0.4818 0.5256 0.3699 0.0
H1280 H 0.44321 0.60166 0.34365 0.0
H1281 H 0.39618 0.56063 0.38604 0.0
H1282 H 0.42627 0.56374 0.38639 0.0
H1283 H 0.41359 0.54289 0.37564 0.0
C1284 C 0.48875 0.58197 0.37416 0.0
C1285 C 0.49378 0.55896 0.37493 0.0
C1286 C 0.46835 0.58921 0.36881 0.0
C1287 C 0.45251 0.57366 0.36411 0.0
C1288 C 0.45787 0.55073 0.36414 0.0
H1289 H 0.3274 0.63462 0.33274 0.0
H1290 H 0.35988 0.60952 0.33383 0.0
C1291 C 0.47838 0.54342 0.36954 0.0
C1292 C 0.42997 0.58178 0.36013 0.0
H1293 H 0.37593 0.58438 0.37154 0.0
C1294 C 0.42835 0.5976 0.34956 0.0
C1295 C 0.41073 0.57653 0.36796 0.0
C1296 C 0.41164 0.56015 0.37971 0.0
C1297 C 0.40828 0.6092 0.34705 0.0
C1298 C 0.38927 0.60451 0.35521 0.0
C1299 C 0.39057 0.58785 0.3653 0.0
C1300 C 0.36878 0.61849 0.35457 0.0
C1301 C 0.40799 0.62734 0.3363 0.0
C1302 C 0.36268 0.63134 0.366 0.0
C1303 C 0.34411 0.64553 0.36546 0.0
C1304 C 0.33122 0.64718 0.35347 0.0
C1305 C 0.33706 0.63388 0.34211 0.0
C1306 C 0.35566 0.61959 0.34268 0.0
H1307 H 0.4251 0.63146 0.33257 0.0
H1308 H 0.39787 0.62162 0.32743 0.0
H1309 H 0.40016 0.64285 0.34038 0.0
H1310 H 0.3726 0.63071 0.37528 0.0
H1311 H 0.34009 0.65546 0.37441 0.0
H1312 H 0.36807 0.06873 0.08088 0.0
H1313 H 0.34565 0.10136 0.08745 0.0
H1314 H 0.35762 0.08679 0.13001 0.0
H1315 H 0.37997 0.054 0.12356 0.0
H1316 H 0.31192 0.10168 0.12301 0.0
H1317 H 0.37985 0.15688 0.10328 0.0
H1318 H 0.36919 0.13632 0.0915 0.0
H1319 H 0.38405 0.12739 0.10651 0.0
C1320 C 0.36565 0.07224 0.09164 0.0
C1321 C 0.37603 0.05898 0.10171 0.0
C1322 C 0.35288 0.0909 0.09537 0.0
C1323 C 0.35031 0.09659 0.10919 0.0
C1324 C 0.35951 0.08265 0.11928 0.0
H1325 H 0.3256 0.22401 0.1468 0.0
H1326 H 0.33918 0.1872 0.13963 0.0
C1327 C 0.3723 0.06398 0.11557 0.0
C1328 C 0.33969 0.11802 0.11311 0.0
H1329 H 0.34766 0.17463 0.11207 0.0
C1330 C 0.3196 0.11767 0.12058 0.0
C1331 C 0.35 0.13876 0.11003 0.0
C1332 C 0.37205 0.14001 0.10248 0.0
C1333 C 0.3095 0.13765 0.12505 0.0
C1334 C 0.31977 0.15837 0.12189 0.0
C1335 C 0.33981 0.15867 0.1144 0.0
C1336 C 0.31061 0.17999 0.12672 0.0
C1337 C 0.28829 0.13648 0.13343 0.0
C1338 C 0.29004 0.18808 0.1218 0.0
C1339 C 0.28223 0.20918 0.12586 0.0
C1340 C 0.29494 0.22249 0.13486 0.0
C1341 C 0.31542 0.21418 0.13985 0.0
C1342 C 0.32321 0.19316 0.13578 0.0
H1343 H 0.28492 0.11923 0.13717 0.0
H1344 H 0.28931 0.14798 0.14234 0.0
H1345 H 0.27389 0.14184 0.12703 0.0
H1346 H 0.28026 0.17828 0.11463 0.0
H1347 H 0.26641 0.21516 0.12182 0.0
H1348 H 0.52223 0.51079 0.87786 0.0
H1349 H 0.56034 0.52378 0.87278 0.0
H1350 H 0.5391 0.59221 0.87904 0.0
H1351 H 0.50148 0.57925 0.8848 0.0
H1352 H 0.57671 0.54849 0.8536 0.0
H1353 H 0.59351 0.59204 0.90222 0.0
H1354 H 0.5695 0.57404 0.89998 0.0
H1355 H 0.56843 0.60301 0.8947 0.0
C1356 C 0.52581 0.52859 0.87823 0.0
C1357 C 0.50901 0.54402 0.88184 0.0
C1358 C 0.54756 0.53598 0.87535 0.0
C1359 C 0.55278 0.55894 0.87589 0.0
C1360 C 0.53576 0.57437 0.87908 0.0
H1361 H 0.65187 0.63168 0.83201 0.0
H1362 H 0.62098 0.60798 0.83951 0.0
C1363 C 0.51419 0.56696 0.88223 0.0
C1364 C 0.57568 0.56699 0.87254 0.0
H1365 H 0.61581 0.60401 0.88288 0.0
C1366 C 0.58544 0.56034 0.86012 0.0
C1367 C 0.58749 0.58192 0.88119 0.0
C1368 C 0.57927 0.58792 0.89533 0.0
C1369 C 0.60602 0.56923 0.85576 0.0
C1370 C 0.61665 0.58591 0.86378 0.0
C1371 C 0.60753 0.59155 0.87656 0.0
C1372 C 0.63635 0.5988 0.8588 0.0
C1373 C 0.61606 0.56055 0.84262 0.0
C1374 C 0.65509 0.60216 0.86728 0.0
C1375 C 0.67249 0.61636 0.86318 0.0
C1376 C 0.67158 0.62717 0.85044 0.0
C1377 C 0.65315 0.62332 0.84181 0.0
C1378 C 0.63556 0.60957 0.84604 0.0
H1379 H 0.61132 0.54277 0.84086 0.0
H1380 H 0.60941 0.57044 0.83391 0.0
H1381 H 0.63464 0.56179 0.84265 0.0
H1382 H 0.65606 0.59416 0.8772 0.0
H1383 H 0.68653 0.61905 0.87001 0.0
H1384 H 0.15718 0.75798 0.64517 0.0
H1385 H 0.14432 0.79503 0.6378 0.0
H1386 H 0.20047 0.80004 0.61023 0.0
H1387 H 0.21356 0.76291 0.61752 0.0
H1388 H 0.18199 0.84026 0.63382 0.0
H1389 H 0.12835 0.80666 0.59181 0.0
H1390 H 0.13114 0.79115 0.60757 0.0
H1391 H 0.15468 0.79357 0.5963 0.0
C1392 C 0.16685 0.76696 0.63756 0.0
C1393 C 0.18635 0.7575 0.63189 0.0
C1394 C 0.15951 0.78811 0.63341 0.0
C1395 C 0.17152 0.80012 0.62353 0.0
C1396 C 0.19109 0.79093 0.61792 0.0
H1397 H 0.11806 0.91632 0.58063 0.0
H1398 H 0.14177 0.88442 0.58683 0.0
C1399 C 0.19848 0.76975 0.62207 0.0
C1400 C 0.16302 0.82197 0.61879 0.0
H1401 H 0.12577 0.84524 0.59652 0.0
C1402 C 0.16986 0.84149 0.62558 0.0
C1403 C 0.1474 0.82333 0.608 0.0
C1404 C 0.13987 0.80264 0.6004 0.0
C1405 C 0.16097 0.8625 0.62202 0.0
C1406 C 0.14457 0.86378 0.61158 0.0
C1407 C 0.13832 0.84424 0.60453 0.0
C1408 C 0.13268 0.88489 0.60824 0.0
C1409 C 0.16921 0.88306 0.62946 0.0
C1410 C 0.11995 0.89594 0.61827 0.0
C1411 C 0.1065 0.91423 0.61478 0.0
C1412 C 0.10529 0.92161 0.60115 0.0
C1413 C 0.11861 0.91099 0.59121 0.0
C1414 C 0.13216 0.89277 0.59473 0.0
H1415 H 0.18629 0.88043 0.63372 0.0
H1416 H 0.16955 0.8979 0.62262 0.0
H1417 H 0.15777 0.88673 0.63813 0.0
H1418 H 0.11967 0.88983 0.6287 0.0
H1419 H 0.09636 0.922 0.62266 0.0
H1420 H 0.96805 0.46364 0.36888 0.0
H1421 H 0.93116 0.44956 0.36183 0.0
H1422 H 0.94082 0.39066 0.3867 0.0
H1423 H 0.97761 0.40447 0.39373 0.0
H1424 H 0.9273 0.38238 0.35909 0.0
H1425 H 0.87292 0.44482 0.38538 0.0
H1426 H 0.89526 0.45585 0.37501 0.0
H1427 H 0.90183 0.44022 0.39016 0.0
C1428 C 0.96225 0.44774 0.37289 0.0
C1429 C 0.97572 0.43514 0.38185 0.0
C1430 C 0.94115 0.43981 0.36892 0.0
C1431 C 0.93324 0.41921 0.37387 0.0
C1432 C 0.94663 0.40665 0.38282 0.0
H1433 H 0.80726 0.34971 0.37257 0.0
H1434 H 0.84043 0.37184 0.37857 0.0
C1435 C 0.96764 0.41457 0.38682 0.0
C1436 C 0.91144 0.41011 0.36932 0.0
H1437 H 0.85479 0.41782 0.37153 0.0
C1438 C 0.91144 0.39016 0.36174 0.0
C1439 C 0.89085 0.42029 0.37291 0.0
C1440 C 0.89004 0.4414 0.3814 0.0
C1441 C 0.89134 0.37998 0.35769 0.0
C1442 C 0.87072 0.3902 0.36121 0.0
C1443 C 0.87068 0.4102 0.36877 0.0
C1444 C 0.84912 0.3796 0.35763 0.0
C1445 C 0.89227 0.35804 0.35001 0.0
C1446 C 0.84271 0.37736 0.34391 0.0
C1447 C 0.82383 0.36474 0.34045 0.0
C1448 C 0.81107 0.35417 0.35067 0.0
C1449 C 0.81683 0.35753 0.36446 0.0
C1450 C 0.83572 0.37019 0.36791 0.0
H1451 H 0.90921 0.35031 0.3504 0.0
H1452 H 0.87992 0.34596 0.35423 0.0
H1453 H 0.88794 0.36102 0.33912 0.0
H1454 H 0.85275 0.38475 0.33585 0.0
H1455 H 0.81973 0.36259 0.32974 0.0
H1456 H 0.32665 0.7574 0.3385 0.0
H1457 H 0.33958 0.79429 0.34601 0.0
H1458 H 0.27865 0.80337 0.36909 0.0
H1459 H 0.26549 0.76636 0.36163 0.0
H1460 H 0.29412 0.84195 0.35187 0.0
H1461 H 0.3588 0.80696 0.38682 0.0
H1462 H 0.35889 0.79571 0.36975 0.0
H1463 H 0.33528 0.79069 0.38073 0.0
C1464 C 0.31595 0.76724 0.34514 0.0
C1465 C 0.29512 0.75892 0.34956 0.0
C1466 C 0.32338 0.78828 0.34943 0.0
C1467 C 0.31013 0.80136 0.35818 0.0
C1468 C 0.28909 0.79341 0.36235 0.0
H1469 H 0.36562 0.91476 0.40254 0.0
H1470 H 0.34243 0.88253 0.39635 0.0
C1471 C 0.28166 0.77229 0.35811 0.0
C1472 C 0.31865 0.82308 0.36322 0.0
H1473 H 0.36038 0.84604 0.38248 0.0
C1474 C 0.30848 0.84293 0.35866 0.0
C1475 C 0.33718 0.82417 0.37219 0.0
C1476 C 0.34812 0.80327 0.37778 0.0
C1477 C 0.31696 0.86399 0.36249 0.0
C1478 C 0.3361 0.86505 0.371 0.0
C1479 C 0.34574 0.84516 0.37592 0.0
C1480 C 0.34715 0.88647 0.37455 0.0
C1481 C 0.30543 0.88489 0.35741 0.0
C1482 C 0.35714 0.89958 0.36432 0.0
C1483 C 0.37043 0.918 0.36782 0.0
C1484 C 0.37406 0.92349 0.38162 0.0
C1485 C 0.36319 0.91093 0.39182 0.0
C1486 C 0.34994 0.89252 0.38831 0.0
H1487 H 0.28787 0.88144 0.35423 0.0
H1488 H 0.30534 0.89814 0.36539 0.0
H1489 H 0.31463 0.89143 0.34839 0.0
H1490 H 0.35552 0.89495 0.35365 0.0
H1491 H 0.37859 0.92735 0.35974 0.0
H1492 H 0.96697 0.51746 0.11465 0.0
H1493 H 0.93013 0.53164 0.1217 0.0
H1494 H 0.93934 0.58991 0.09623 0.0
H1495 H 0.9761 0.576 0.08919 0.0
H1496 H 0.92657 0.5989 0.12384 0.0
H1497 H 0.87128 0.53605 0.09866 0.0
H1498 H 0.89386 0.52517 0.10891 0.0
H1499 H 0.90007 0.54041 0.09356 0.0
C1500 C 0.96108 0.53322 0.11049 0.0
C1501 C 0.97444 0.54564 0.10139 0.0
C1502 C 0.94 0.54122 0.11447 0.0
C1503 C 0.93199 0.56168 0.10936 0.0
C1504 C 0.94524 0.57402 0.10023 0.0
H1505 H 0.80642 0.63214 0.11165 0.0
H1506 H 0.83924 0.60972 0.10533 0.0
C1507 C 0.96623 0.56605 0.09623 0.0
C1508 C 0.91033 0.57098 0.11402 0.0
H1509 H 0.85361 0.56343 0.11249 0.0
C1510 C 0.91061 0.59111 0.12143 0.0
C1511 C 0.88962 0.56079 0.11073 0.0
C1512 C 0.88851 0.53949 0.10244 0.0
C1513 C 0.89066 0.60145 0.1256 0.0
C1514 C 0.86992 0.59121 0.1224 0.0
C1515 C 0.8696 0.57105 0.11501 0.0
C1516 C 0.84848 0.60194 0.12618 0.0
C1517 C 0.89186 0.62355 0.1331 0.0
C1518 C 0.84249 0.60428 0.13997 0.0
C1519 C 0.82381 0.61707 0.14361 0.0
C1520 C 0.81083 0.62772 0.13351 0.0
C1521 C 0.81617 0.62426 0.11966 0.0
C1522 C 0.83486 0.61143 0.11603 0.0
H1523 H 0.90882 0.63119 0.13249 0.0
H1524 H 0.87945 0.63559 0.12888 0.0
H1525 H 0.88779 0.62083 0.14405 0.0
H1526 H 0.85272 0.59685 0.14792 0.0
H1527 H 0.82004 0.61928 0.15436 0.0
H1528 H 0.15382 0.22361 0.84308 0.0
H1529 H 0.14088 0.18649 0.85006 0.0
H1530 H 0.20331 0.17509 0.8712 0.0
H1531 H 0.21649 0.21236 0.86426 0.0
H1532 H 0.18625 0.13807 0.85329 0.0
H1533 H 0.12429 0.17066 0.89082 0.0
H1534 H 0.12314 0.18334 0.87416 0.0
H1535 H 0.14755 0.18722 0.88466 0.0
C1536 C 0.16484 0.21324 0.84921 0.0
C1537 C 0.18613 0.22096 0.8532 0.0
C1538 C 0.1574 0.19206 0.85319 0.0
C1539 C 0.17109 0.17823 0.86122 0.0
C1540 C 0.19252 0.18563 0.86502 0.0
H1541 H 0.11603 0.06185 0.90277 0.0
H1542 H 0.13955 0.09415 0.89729 0.0
C1543 C 0.19997 0.2069 0.86109 0.0
C1544 C 0.1627 0.1562 0.8658 0.0
H1545 H 0.12175 0.13206 0.88512 0.0
C1546 C 0.1723 0.13666 0.86035 0.0
C1547 C 0.14469 0.15453 0.87512 0.0
C1548 C 0.13438 0.17502 0.88165 0.0
C1549 C 0.16373 0.1154 0.86363 0.0
C1550 C 0.14505 0.1138 0.87248 0.0
C1551 C 0.13602 0.13334 0.87829 0.0
C1552 C 0.13383 0.09224 0.87547 0.0
C1553 C 0.17465 0.09485 0.85758 0.0
C1554 C 0.12318 0.08022 0.86498 0.0
C1555 C 0.1097 0.06174 0.86808 0.0
C1556 C 0.10653 0.05512 0.88174 0.0
C1557 C 0.11808 0.06657 0.89215 0.0
C1558 C 0.13153 0.08503 0.88905 0.0
H1559 H 0.19211 0.09834 0.85424 0.0
H1560 H 0.17487 0.08083 0.86504 0.0
H1561 H 0.16494 0.08938 0.84849 0.0
H1562 H 0.1244 0.08576 0.85447 0.0
H1563 H 0.10101 0.05327 0.85984 0.0
H1564 H 0.51618 0.46442 0.61001 0.0
H1565 H 0.55303 0.4497 0.61661 0.0
H1566 H 0.54178 0.39117 0.59163 0.0
H1567 H 0.50499 0.40561 0.58505 0.0
H1568 H 0.55503 0.38221 0.61896 0.0
H1569 H 0.61125 0.44368 0.5934 0.0
H1570 H 0.58926 0.45531 0.60382 0.0
H1571 H 0.58222 0.44008 0.58858 0.0
C1572 C 0.52165 0.4485 0.60584 0.0
C1573 C 0.50768 0.43613 0.59704 0.0
C1574 C 0.54273 0.4402 0.60956 0.0
C1575 C 0.55015 0.41948 0.60448 0.0
C1576 C 0.53635 0.40725 0.59559 0.0
H1577 H 0.67552 0.34772 0.60817 0.0
H1578 H 0.64279 0.36978 0.60119 0.0
C1579 C 0.51534 0.41552 0.59186 0.0
C1580 C 0.57169 0.40977 0.60904 0.0
H1581 H 0.62852 0.41659 0.60767 0.0
C1582 C 0.57111 0.38974 0.61653 0.0
C1583 C 0.59257 0.41961 0.60574 0.0
C1584 C 0.59403 0.44077 0.59736 0.0
C1585 C 0.59089 0.37923 0.62083 0.0
C1586 C 0.61177 0.38919 0.61768 0.0
C1587 C 0.61242 0.40918 0.61015 0.0
C1588 C 0.63304 0.37847 0.62182 0.0
C1589 C 0.58936 0.35731 0.62848 0.0
C1590 C 0.63867 0.37673 0.63569 0.0
C1591 C 0.65729 0.36417 0.63971 0.0
C1592 C 0.67057 0.35314 0.62991 0.0
C1593 C 0.66554 0.35592 0.61596 0.0
C1594 C 0.64691 0.36853 0.61195 0.0
H1595 H 0.57235 0.34978 0.62778 0.0
H1596 H 0.60177 0.34508 0.62447 0.0
H1597 H 0.5932 0.36025 0.63944 0.0
H1598 H 0.62823 0.3845 0.64343 0.0
H1599 H 0.66081 0.36248 0.65053 0.0
H1600 H 0.22061 0.27129 0.1868 0.0
H1601 H 0.21289 0.26178 0.21063 0.0
H1602 H 0.28008 0.28129 0.2218 0.0
H1603 H 0.28802 0.29084 0.19792 0.0
H1604 H 0.26708 0.23758 0.23038 0.0
H1605 H 0.20381 0.30152 0.24479 0.0
H1606 H 0.1979 0.28747 0.22895 0.0
H1607 H 0.22241 0.30487 0.23035 0.0
C1608 C 0.23365 0.2739 0.19435 0.0
C1609 C 0.25494 0.28178 0.19049 0.0
C1610 C 0.22917 0.26858 0.20797 0.0
C1611 C 0.24585 0.27108 0.21797 0.0
C1612 C 0.26696 0.27941 0.21422 0.0
H1613 H 0.24433 0.21893 0.30203 0.0
H1614 H 0.25629 0.23757 0.28096 0.0
C1615 C 0.27144 0.28487 0.20059 0.0
C1616 C 0.24173 0.26313 0.23206 0.0
H1617 H 0.20658 0.26939 0.2593 0.0
C1618 C 0.2541 0.24471 0.23682 0.0
C1619 C 0.22474 0.27248 0.24036 0.0
C1620 C 0.21157 0.29281 0.23593 0.0
C1621 C 0.2492 0.23467 0.24944 0.0
C1622 C 0.23177 0.24364 0.25759 0.0
C1623 C 0.2199 0.26253 0.25301 0.0
C1624 C 0.22465 0.23286 0.2705 0.0
C1625 C 0.26199 0.21393 0.25363 0.0
C1626 C 0.20276 0.22452 0.27169 0.0
C1627 C 0.19582 0.21404 0.28372 0.0
C1628 C 0.21065 0.21171 0.29481 0.0
C1629 C 0.23255 0.22028 0.29364 0.0
C1630 C 0.23945 0.23086 0.2816 0.0
H1631 H 0.27125 0.20638 0.24491 0.0
H1632 H 0.27438 0.21844 0.26164 0.0
H1633 H 0.25049 0.20111 0.25794 0.0
H1634 H 0.19108 0.22593 0.26325 0.0
H1635 H 0.17883 0.20769 0.28426 0.0
H1636 H 0.0307 0.93142 0.53084 0.0
H1637 H 0.01278 0.94407 0.5098 0.0
H1638 H -0.00166 0.00798 0.52846 0.0
H1639 H 0.01658 -0.0044 0.54959 0.0
H1640 H 0.9683 0.95837 0.50627 0.0
H1641 H 0.02937 0.0252 0.49249 0.0
H1642 H 0.03549 0.00399 0.50511 0.0
H1643 H 0.01744 0.02709 0.50933 0.0
C1644 C 0.02385 0.94823 0.53049 0.0
C1645 C 0.02517 0.96253 0.5419 0.0
C1646 C 0.01356 0.9554 0.51845 0.0
C1647 C 0.00444 0.97701 0.51755 0.0
C1648 C 0.00563 -0.00864 0.5289 0.0
H1649 H 0.94411 0.03986 0.44532 0.0
H1650 H 0.95469 0.03229 0.4691 0.0
C1651 C 0.01599 0.98422 0.54097 0.0
C1652 C -0.00657 0.98419 0.50472 0.0
H1653 H -0.00152 0.02019 0.47779 0.0
C1654 C 0.9748 0.97198 0.50007 0.0
C1655 C 0.00189 0.00203 0.49672 0.0
C1656 C 0.02224 0.01528 0.50106 0.0
C1657 C 0.96465 0.97685 0.48749 0.0
C1658 C 0.97358 -0.00582 0.47929 0.0
C1659 C -0.00831 0.00692 0.48414 0.0
C1660 C 0.9655 -0.00174 0.46521 0.0
C1661 C 0.94457 0.96332 0.48302 0.0
C1662 C 0.96809 0.98161 0.45521 0.0
C1663 C 0.96216 0.98587 0.44166 0.0
C1664 C 0.95358 0.00691 0.43786 0.0
C1665 C 0.95059 0.02345 0.44795 0.0
C1666 C 0.95665 0.01919 0.46152 0.0
H1667 H 0.93597 0.95544 0.49187 0.0
H1668 H 0.93232 0.97392 0.47741 0.0
H1669 H 0.9502 0.94973 0.47607 0.0
H1670 H 0.9753 0.96549 0.45782 0.0
H1671 H 0.96472 0.97281 0.43412 0.0
H1672 H 0.26337 0.7142 0.6834 0.0
H1673 H 0.27275 0.72589 0.70665 0.0
H1674 H 0.2064 0.70747 0.72015 0.0
H1675 H 0.19699 0.69533 0.69695 0.0
H1676 H 0.25115 0.75963 0.72058 0.0
H1677 H 0.24611 0.6798 0.74963 0.0
H1678 H 0.24782 0.68064 0.7312 0.0
H1679 H 0.22162 0.68615 0.73966 0.0
C1680 C 0.25087 0.7123 0.69136 0.0
C1681 C 0.22943 0.70387 0.68834 0.0
C1682 C 0.25626 0.719 0.70463 0.0
C1683 C 0.24034 0.71736 0.71514 0.0
C1684 C 0.21908 0.70846 0.71225 0.0
H1685 H 0.24026 0.76774 0.79887 0.0
H1686 H 0.22964 0.75136 0.77681 0.0
C1687 C 0.2137 0.70164 0.69897 0.0
C1688 C 0.2455 0.72663 0.72883 0.0
H1689 H 0.25011 0.71321 0.76266 0.0
C1690 C 0.25101 0.74945 0.72977 0.0
C1691 C 0.24512 0.71334 0.7408 0.0
C1692 C 0.24004 0.68858 0.74032 0.0
C1693 C 0.25612 0.75939 0.74238 0.0
C1694 C 0.25597 0.74607 0.75432 0.0
C1695 C 0.25017 0.72332 0.75344 0.0
C1696 C 0.26246 0.75543 0.76773 0.0
C1697 C 0.26143 0.78412 0.74285 0.0
C1698 C 0.28447 0.76282 0.76992 0.0
C1699 C 0.29061 0.77216 0.78246 0.0
C1700 C 0.27482 0.77423 0.79307 0.0
C1701 C 0.2528 0.7665 0.79089 0.0
C1702 C 0.24671 0.75708 0.77833 0.0
H1703 H 0.25561 0.79293 0.73349 0.0
H1704 H 0.25357 0.79214 0.75191 0.0
H1705 H 0.27986 0.78637 0.74365 0.0
H1706 H 0.29693 0.76138 0.7619 0.0
H1707 H 0.30773 0.77781 0.78379 0.0
H1708 H 0.453 0.05274 0.03289 0.0
H1709 H 0.46969 0.04058 0.01136 0.0
H1710 H 0.48051 0.97458 0.02807 0.0
H1711 H 0.46388 0.9866 0.04979 0.0
H1712 H 0.51843 -0.00582 0.01351 0.0
H1713 H 0.43902 -0.0028 0.98391 0.0
H1714 H 0.44501 0.02226 -0.00657 0.0
H1715 H 0.43964 -0.0035 0.00237 0.0
C1716 C 0.45887 0.03561 0.03203 0.0
C1717 C 0.45696 0.02059 0.04305 0.0
C1718 C 0.46835 0.02869 0.0197 0.0
C1719 C 0.47604 0.00664 0.01811 0.0
C1720 C 0.47454 -0.00834 0.02912 0.0
H1721 H 0.53763 0.94184 0.94713 0.0
H1722 H 0.52517 0.95015 0.97046 0.0
C1723 C 0.46499 -0.00146 0.04149 0.0
C1724 C 0.48561 -0.00061 0.0049 0.0
H1725 H 0.47271 -0.00628 0.97112 0.0
C1726 C 0.50845 -0.00616 0.00424 0.0
C1727 C 0.47246 -0.00104 -0.00712 0.0
C1728 C 0.44762 0.00384 -0.00686 0.0
C1729 C 0.51873 0.98869 0.9917 0.0
C1730 C 0.50566 0.98881 0.97963 0.0
C1731 C 0.4827 -0.00618 0.98039 0.0
C1732 C 0.51538 0.98431 0.96599 0.0
C1733 C 0.54357 0.98392 0.99138 0.0
C1734 C 0.51403 0.00077 0.95579 0.0
C1735 C 0.52095 -0.00395 0.94248 0.0
C1736 C 0.5293 0.97472 0.93911 0.0
C1737 C 0.53136 0.95846 0.94944 0.0
C1738 C 0.52434 0.9632 0.96278 0.0
H1739 H 0.55204 0.98939 0.00094 0.0
H1740 H 0.54625 0.96561 0.99021 0.0
H1741 H 0.55164 -0.00757 0.98256 0.0
H1742 H 0.50712 0.01716 0.95808 0.0
H1743 H 0.51919 0.00894 0.93476 0.0
H1744 H 0.28838 0.68946 0.28596 0.0
H1745 H 0.28081 0.69934 0.26209 0.0
H1746 H 0.21491 0.7227 0.27337 0.0
H1747 H 0.22224 0.71282 0.29722 0.0
H1748 H 0.21741 0.69551 0.24854 0.0
H1749 H 0.27829 0.76633 0.2497 0.0
H1750 H 0.2885 0.73929 0.25495 0.0
H1751 H 0.26777 0.75339 0.2651 0.0
C1752 C 0.27219 0.69648 0.28334 0.0
C1753 C 0.25596 0.70053 0.29348 0.0
C1754 C 0.26795 0.70219 0.26972 0.0
C1755 C 0.24744 0.71201 0.26606 0.0
C1756 C 0.23088 0.7152 0.27605 0.0
H1757 H 0.17905 0.77371 0.19965 0.0
H1758 H 0.19114 0.75487 0.22048 0.0
C1759 C 0.23511 0.70958 0.28965 0.0
C1760 C 0.24341 0.71989 0.25196 0.0
H1761 H 0.25801 0.76095 0.22937 0.0
C1762 C 0.22639 0.70969 0.24427 0.0
C1763 C 0.25528 0.73831 0.24645 0.0
C1764 C 0.2734 0.75014 0.25446 0.0
C1765 C 0.22061 0.7177 0.23126 0.0
C1766 C 0.23185 0.7367 0.22598 0.0
C1767 C 0.24941 0.74641 0.23347 0.0
C1768 C 0.22463 0.74771 0.21316 0.0
C1769 C 0.20248 0.70579 0.22331 0.0
C1770 C 0.2397 0.75058 0.20228 0.0
C1771 C 0.23291 0.76158 0.19035 0.0
C1772 C 0.21095 0.77002 0.18916 0.0
C1773 C 0.19603 0.76731 0.20017 0.0
C1774 C 0.20284 0.75637 0.21206 0.0
H1775 H 0.20073 0.68806 0.22663 0.0
H1776 H 0.1862 0.71429 0.22515 0.0
H1777 H 0.20596 0.70612 0.21216 0.0
H1778 H 0.25668 0.74421 0.203 0.0
H1779 H 0.24483 0.76342 0.18207 0.0
H1780 H 0.44983 0.92862 0.45062 0.0
H1781 H 0.46661 0.94043 0.47219 0.0
H1782 H 0.48042 0.00564 0.45517 0.0
H1783 H 0.4637 -0.00604 0.43339 0.0
H1784 H 0.51728 0.98459 0.47009 0.0
H1785 H 0.43737 0.98552 0.49922 0.0
H1786 H 0.44241 0.96009 0.48985 0.0
H1787 H 0.4383 0.98595 0.48076 0.0
C1788 C 0.45637 0.94551 0.45142 0.0
C1789 C 0.45529 0.9604 0.44028 0.0
C1790 C 0.4659 0.95223 0.46378 0.0
C1791 C 0.47446 0.97396 0.46528 0.0
C1792 C 0.47377 0.98882 0.45418 0.0
H1793 H 0.53803 0.03698 0.53619 0.0
H1794 H 0.52537 0.02885 0.51288 0.0
C1795 C 0.46417 0.98213 0.44178 0.0
C1796 C 0.48413 0.98099 0.47852 0.0
H1797 H 0.47099 0.98766 0.5122 0.0
C1798 C 0.50719 0.9855 0.4793 0.0
C1799 C 0.47084 0.98216 0.49045 0.0
C1800 C 0.44581 0.97838 0.49007 0.0
C1801 C 0.5175 0.99034 0.49188 0.0
C1802 C 0.50426 -0.00903 0.50387 0.0
C1803 C 0.48111 0.98699 0.50299 0.0
C1804 C 0.51396 -0.00473 0.51754 0.0
C1805 C 0.54253 -0.00603 0.49232 0.0
C1806 C 0.51173 0.97909 0.52785 0.0
C1807 C 0.51878 0.98372 0.54115 0.0
C1808 C 0.52812 0.00468 0.54441 0.0
C1809 C 0.53099 0.02064 0.53397 0.0
C1810 C 0.52386 0.016 0.52064 0.0
H1811 H 0.55088 0.98791 0.48286 0.0
H1812 H 0.54601 0.01216 0.49336 0.0
H1813 H 0.55006 0.98529 0.50125 0.0
H1814 H 0.50409 0.96301 0.52564 0.0
H1815 H 0.51637 0.97107 0.54896 0.0
H1816 H 0.25869 0.26667 0.80003 0.0
H1817 H 0.26581 0.25692 0.77618 0.0
H1818 H 0.19883 0.27774 0.76541 0.0
H1819 H 0.19148 0.28751 0.78935 0.0
H1820 H 0.21089 0.23415 0.7563 0.0
H1821 H 0.27537 0.29703 0.74239 0.0
H1822 H 0.28129 0.28254 0.75807 0.0
H1823 H 0.25703 0.30036 0.75695 0.0
C1824 C 0.24556 0.26947 0.79257 0.0
C1825 C 0.22452 0.27785 0.79657 0.0
C1826 C 0.2497 0.26401 0.77893 0.0
C1827 C 0.23293 0.26687 0.76903 0.0
C1828 C 0.21202 0.27558 0.77291 0.0
H1829 H 0.23563 0.21622 0.68443 0.0
H1830 H 0.22305 0.23454 0.7055 0.0
C1831 C 0.20788 0.28117 0.78657 0.0
C1832 C 0.23684 0.25912 0.75487 0.0
H1833 H 0.27246 0.26488 0.72782 0.0
C1834 C 0.2241 0.24106 0.74995 0.0
C1835 C 0.25407 0.26823 0.74666 0.0
C1836 C 0.2676 0.28826 0.75121 0.0
C1837 C 0.22894 0.23106 0.73729 0.0
C1838 C 0.24673 0.23966 0.7293 0.0
C1839 C 0.25889 0.25827 0.73401 0.0
C1840 C 0.25402 0.2287 0.71648 0.0
C1841 C 0.21573 0.21071 0.7329 0.0
C1842 C 0.27569 0.21969 0.71563 0.0
C1843 C 0.28297 0.20937 0.70363 0.0
C1844 C 0.26872 0.20787 0.6922 0.0
C1845 C 0.24697 0.21695 0.69307 0.0
C1846 C 0.23972 0.22736 0.70511 0.0
H1847 H 0.20578 0.20352 0.74144 0.0
H1848 H 0.20394 0.21553 0.72463 0.0
H1849 H 0.22707 0.19751 0.72884 0.0
H1850 H 0.28698 0.22057 0.7243 0.0
H1851 H 0.29982 0.2026 0.70333 0.0
H1852 H 0.01611 0.98434 0.93269 0.0
H1853 H -0.00066 0.97262 0.95441 0.0
H1854 H 0.01259 0.03796 0.97145 0.0
H1855 H 0.02943 0.04983 0.94992 0.0
H1856 H 0.02711 0.00037 0.9877 0.0
H1857 H 0.93811 -0.00663 0.97093 0.0
H1858 H 0.95878 0.97915 0.96071 0.0
H1859 H 0.9587 0.0092 0.96144 0.0
C1860 C 0.01539 -0.00376 0.94104 0.0
C1861 C 0.02411 0.01804 0.93956 0.0
C1862 C 0.00569 0.98955 0.95341 0.0
C1863 C 0.00453 0.00453 0.96444 0.0
C1864 C 0.01325 0.02622 0.96301 0.0
H1865 H 0.96456 0.00908 0.04853 0.0
H1866 H 0.9772 0.01637 0.02521 0.0
C1867 C 0.02287 0.03294 0.95068 0.0
C1868 C -0.00495 -0.00246 0.97772 0.0
H1869 H 0.94611 0.98416 -0.0061 0.0
C1870 C 0.00942 -0.00325 0.98906 0.0
C1871 C 0.97201 -0.00731 0.97939 0.0
C1872 C 0.95588 -0.00626 0.96752 0.0
C1873 C 0.00132 -0.00856 0.0021 0.0
C1874 C 0.97814 0.9873 0.00387 0.0
C1875 C 0.96384 0.98749 -0.00752 0.0
C1876 C 0.9685 0.98344 0.0176 0.0
C1877 C 0.01766 0.99024 0.01387 0.0
C1878 C 0.95848 0.96285 0.02085 0.0
C1879 C 0.95106 0.95867 0.03417 0.0
C1880 C 0.95352 0.97507 0.0444 0.0
C1881 C 0.96261 -0.00397 0.04092 0.0
C1882 C 0.96995 0.0002 0.02762 0.0
H1883 H 0.03515 0.98772 0.01025 0.0
H1884 H 0.01709 0.00622 0.01967 0.0
H1885 H 0.01327 0.97639 0.02097 0.0
H1886 H 0.95708 0.94978 0.0132 0.0
H1887 H 0.94407 0.94237 0.03655 0.0
H1888 H 0.78813 0.79219 0.69625 0.0
H1889 H 0.78071 0.78187 0.72009 0.0
H1890 H 0.71434 0.75978 0.7089 0.0
H1891 H 0.72152 0.77008 0.68512 0.0
H1892 H 0.71759 0.78629 0.73401 0.0
H1893 H 0.77727 0.71446 0.73174 0.0
H1894 H 0.78778 0.74151 0.72673 0.0
H1895 H 0.76672 0.728 0.71654 0.0
C1896 C 0.77187 0.78538 0.6989 0.0
C1897 C 0.75546 0.78177 0.6888 0.0
C1898 C 0.76771 0.77941 0.71249 0.0
C1899 C 0.74711 0.76981 0.71616 0.0
C1900 C 0.73038 0.7671 0.70622 0.0
H1901 H 0.6784 0.70751 0.78239 0.0
H1902 H 0.69047 0.72645 0.76157 0.0
C1903 C 0.73453 0.77297 0.69265 0.0
C1904 C 0.74313 0.76157 0.73019 0.0
H1905 H 0.75713 0.7194 0.75216 0.0
C1906 C 0.72635 0.7718 0.73805 0.0
C1907 C 0.75469 0.74271 0.7354 0.0
C1908 C 0.77255 0.73086 0.72718 0.0
C1909 C 0.72052 0.76341 0.75097 0.0
C1910 C 0.73144 0.744 0.75595 0.0
C1911 C 0.74877 0.73424 0.74828 0.0
C1912 C 0.72425 0.73276 0.7687 0.0
C1913 C 0.70269 0.77538 0.75913 0.0
C1914 C 0.73948 0.72936 0.77944 0.0
C1915 C 0.7327 0.7183 0.79134 0.0
C1916 C 0.71059 0.71035 0.79266 0.0
C1917 C 0.6955 0.71353 0.78177 0.0
C1918 C 0.70231 0.72453 0.76989 0.0
H1919 H 0.70117 0.79323 0.75603 0.0
H1920 H 0.68625 0.7672 0.75728 0.0
H1921 H 0.70632 0.77465 0.77026 0.0
H1922 H 0.75656 0.7354 0.77864 0.0
H1923 H 0.74475 0.7161 0.79952 0.0
H1924 H 0.76001 0.21297 0.18373 0.0
H1925 H 0.76774 0.22505 0.20712 0.0
H1926 H 0.70144 0.20434 0.21939 0.0
H1927 H 0.69363 0.19188 0.196 0.0
H1928 H 0.74295 0.25841 0.22026 0.0
H1929 H 0.74157 0.17877 0.24981 0.0
H1930 H 0.74465 0.17943 0.23145 0.0
H1931 H 0.7176 0.18375 0.23908 0.0
C1932 C 0.74719 0.21062 0.19144 0.0
C1933 C 0.72619 0.20153 0.18802 0.0
C1934 C 0.75164 0.21755 0.20479 0.0
C1935 C 0.73522 0.21546 0.21498 0.0
C1936 C 0.71447 0.20574 0.21172 0.0
H1937 H 0.73646 0.26667 0.29906 0.0
H1938 H 0.72441 0.25001 0.27732 0.0
C1939 C 0.71001 0.19872 0.19835 0.0
C1940 C 0.73929 0.22523 0.22866 0.0
H1941 H 0.7451 0.21242 0.2625 0.0
C1942 C 0.7434 0.24835 0.2295 0.0
C1943 C 0.73962 0.21208 0.24068 0.0
C1944 C 0.7358 0.1871 0.24028 0.0
C1945 C 0.74815 0.25867 0.24203 0.0
C1946 C 0.74907 0.24546 0.254 0.0
C1947 C 0.74436 0.22244 0.25326 0.0
C1948 C 0.75625 0.25512 0.2672 0.0
C1949 C 0.75217 0.28365 0.24238 0.0
C1950 C 0.77817 0.2632 0.26868 0.0
C1951 C 0.7851 0.27267 0.28101 0.0
C1952 C 0.77023 0.2742 0.29214 0.0
C1953 C 0.74829 0.26585 0.29067 0.0
C1954 C 0.74138 0.25628 0.27829 0.0
H1955 H 0.74522 0.29209 0.23318 0.0
H1956 H 0.74458 0.29129 0.25164 0.0
H1957 H 0.7705 0.28687 0.24266 0.0
H1958 H 0.78996 0.26214 0.26028 0.0
H1959 H 0.80215 0.27881 0.28178 0.0
H1960 H 0.78652 0.19302 0.78647 0.0
H1961 H 0.77897 0.20635 0.76321 0.0
H1962 H 0.71199 0.22519 0.77524 0.0
H1963 H 0.71942 0.21224 0.79849 0.0
H1964 H 0.74482 0.19575 0.74359 0.0
H1965 H 0.74019 0.28402 0.76132 0.0
H1966 H 0.75167 0.26183 0.77173 0.0
H1967 H 0.7218 0.26539 0.77037 0.0
C1968 C 0.77009 0.19975 0.78411 0.0
C1969 C 0.75364 0.20183 0.79434 0.0
C1970 C 0.76583 0.20736 0.77083 0.0
C1971 C 0.7451 0.21716 0.76763 0.0
C1972 C 0.72826 0.2181 0.77762 0.0
H1973 H 0.6789 0.27992 0.70044 0.0
H1974 H 0.69077 0.26275 0.72189 0.0
C1975 C 0.73251 0.21059 0.79087 0.0
C1976 C 0.74126 0.22732 0.75405 0.0
H1977 H 0.728 0.27683 0.73857 0.0
C1978 C 0.74135 0.2135 0.74243 0.0
C1979 C 0.73694 0.25052 0.75262 0.0
C1980 C 0.73784 0.26637 0.76464 0.0
C1981 C 0.73627 0.22217 0.72945 0.0
C1982 C 0.73125 0.24524 0.72811 0.0
C1983 C 0.73175 0.25912 0.73967 0.0
C1984 C 0.72436 0.2552 0.71494 0.0
C1985 C 0.73551 0.20653 0.71733 0.0
C1986 C 0.73947 0.25683 0.704 0.0
C1987 C 0.73278 0.26673 0.69169 0.0
C1988 C 0.71086 0.27516 0.69017 0.0
C1989 C 0.69588 0.27358 0.70123 0.0
C1990 C 0.70261 0.26377 0.71351 0.0
H1991 H 0.73594 0.18864 0.72047 0.0
H1992 H 0.72012 0.20952 0.71119 0.0
H1993 H 0.7502 0.20979 0.71066 0.0
H1994 H 0.75646 0.25061 0.70501 0.0
H1995 H 0.74474 0.26771 0.68338 0.0
H1996 H 0.76095 0.76679 0.30149 0.0
H1997 H 0.76879 0.75518 0.27802 0.0
H1998 H 0.70186 0.77436 0.26604 0.0
H1999 H 0.69395 0.78636 0.2895 0.0
H2000 H 0.74499 0.72145 0.26471 0.0
H2001 H 0.74088 0.80149 0.23568 0.0
H2002 H 0.74404 0.80061 0.25404 0.0
H2003 H 0.7171 0.79565 0.24639 0.0
C2004 C 0.748 0.76889 0.29382 0.0
C2005 C 0.72681 0.77744 0.29734 0.0
C2006 C 0.75251 0.76223 0.28043 0.0
C2007 C 0.73596 0.76405 0.27029 0.0
C2008 C 0.71498 0.77318 0.27366 0.0
H2009 H 0.73692 0.71424 0.18597 0.0
H2010 H 0.72505 0.73038 0.20788 0.0
C2011 C 0.71047 0.77994 0.28708 0.0
C2012 C 0.74019 0.75464 0.25653 0.0
H2013 H 0.74504 0.76816 0.22274 0.0
C2014 C 0.745 0.73167 0.25553 0.0
C2015 C 0.73994 0.76798 0.24459 0.0
C2016 C 0.73539 0.79285 0.24517 0.0
C2017 C 0.74984 0.72169 0.24291 0.0
C2018 C 0.75015 0.73511 0.23101 0.0
C2019 C 0.74478 0.75797 0.23192 0.0
C2020 C 0.75725 0.72585 0.21769 0.0
C2021 C 0.75459 0.69685 0.24239 0.0
C2022 C 0.77932 0.71828 0.21597 0.0
C2023 C 0.78614 0.7091 0.20354 0.0
C2024 C 0.77102 0.70735 0.19255 0.0
C2025 C 0.74894 0.71523 0.19425 0.0
C2026 C 0.74214 0.7245 0.20672 0.0
H2027 H 0.74807 0.68806 0.25158 0.0
H2028 H 0.74704 0.68913 0.23313 0.0
H2029 H 0.773 0.69416 0.24196 0.0
H2030 H 0.79129 0.7195 0.22427 0.0
H2031 H 0.8033 0.70333 0.20259 0.0
H2032 H 0.51605 0.49558 0.0498 0.0
H2033 H 0.49954 0.50761 0.02803 0.0
H2034 H 0.51383 0.44277 0.01058 0.0
H2035 H 0.53037 0.43061 0.03213 0.0
H2036 H 0.52821 0.48118 -0.00525 0.0
H2037 H 0.43876 0.48606 0.01094 0.0
H2038 H 0.45912 0.50022 0.02144 0.0
H2039 H 0.45942 0.4702 0.02038 0.0
C2040 C 0.51563 0.48387 0.04133 0.0
C2041 C 0.52453 0.46212 0.04272 0.0
C2042 C 0.50608 0.49073 0.02895 0.0
C2043 C 0.50529 0.47597 0.01779 0.0
C2044 C 0.51422 0.45435 0.01912 0.0
H2045 H 0.4671 0.47066 0.93353 0.0
H2046 H 0.47955 0.46385 0.95695 0.0
C2047 C 0.52367 0.44745 0.03146 0.0
C2048 C 0.49591 0.48308 0.0045 0.0
H2049 H 0.4469 0.49524 0.98801 0.0
C2050 C 0.51045 0.48437 -0.00673 0.0
C2051 C 0.47278 0.48736 0.00269 0.0
C2052 C 0.45648 0.4858 0.01444 0.0
C2053 C 0.50244 0.48953 0.98018 0.0
C2054 C 0.47918 0.49301 0.97825 0.0
C2055 C 0.46469 0.49241 0.98955 0.0
C2056 C 0.46966 0.49653 0.96445 0.0
C2057 C 0.51895 0.49124 0.96853 0.0
C2058 C 0.45906 0.51678 0.96109 0.0
C2059 C 0.45175 0.52068 0.94771 0.0
C2060 C 0.45492 0.50432 0.93752 0.0
C2061 C 0.4646 0.48366 0.94111 0.0
C2062 C 0.47183 0.47978 0.95447 0.0
H2063 H 0.53628 0.4943 0.97228 0.0
H2064 H 0.51901 0.47523 0.96274 0.0
H2065 H 0.51425 0.50493 0.96139 0.0
H2066 H 0.4571 0.52983 0.96871 0.0
H2067 H 0.44429 0.53674 0.94526 0.0
H2068 H 0.01767 0.51291 0.43312 0.0
H2069 H 0.00593 0.52202 0.45639 0.0
H2070 H 0.02567 0.45602 0.4698 0.0
H2071 H 0.03788 0.44689 0.44656 0.0
H2072 H 0.97273 0.49995 0.47048 0.0
H2073 H 0.05311 0.49611 0.49912 0.0
H2074 H 0.05198 0.49776 0.4807 0.0
H2075 H 0.04694 0.47153 0.4892 0.0
C2076 C 0.01984 0.50044 0.44105 0.0
C2077 C 0.0287 0.47918 0.43801 0.0
C2078 C 0.0131 0.50567 0.45434 0.0
C2079 C 0.01511 0.48977 0.46484 0.0
C2080 C 0.02439 0.46868 0.46191 0.0
H2081 H 0.96576 0.49059 0.54888 0.0
H2082 H 0.98159 0.47941 0.52678 0.0
C2083 C 0.03125 0.46346 0.44861 0.0
C2084 C 0.00595 0.4948 0.47856 0.0
H2085 H 0.01987 0.49995 0.51229 0.0
C2086 C 0.98306 0.50001 0.47962 0.0
C2087 C 0.01944 0.49468 0.49046 0.0
C2088 C 0.04428 0.48991 0.48986 0.0
C2089 C 0.97327 0.50517 0.49225 0.0
C2090 C 0.9868 0.50534 0.50411 0.0
C2091 C 0.0096 0.49976 0.50314 0.0
C2092 C 0.97764 0.51209 0.51752 0.0
C2093 C 0.9485 0.51028 0.49285 0.0
C2094 C 0.97047 0.53421 0.51961 0.0
C2095 C 0.96148 0.54066 0.53218 0.0
C2096 C 0.9595 0.52509 0.54291 0.0
C2097 C 0.96694 0.50296 0.54081 0.0
C2098 C 0.97604 0.49655 0.52822 0.0
H2099 H 0.93958 0.50436 0.48355 0.0
H2100 H 0.9407 0.50239 0.50197 0.0
H2101 H 0.94609 0.52868 0.49366 0.0
H2102 H 0.97186 0.54649 0.5115 0.0
H2103 H 0.95601 0.55786 0.53344 0.0
H2104 H 0.01747 0.46762 0.05074 0.0
H2105 H 0.00511 0.4584 0.0276 0.0
H2106 H 0.02431 0.52438 0.01391 0.0
H2107 H 0.0371 0.53364 0.03701 0.0
H2108 H 0.97125 0.48088 0.01416 0.0
H2109 H 0.0502 0.48405 0.98406 0.0
H2110 H 0.04996 0.48225 0.00249 0.0
H2111 H 0.04476 0.5086 -0.00582 0.0
C2112 C 0.01942 0.48005 0.04276 0.0
C2113 C 0.02821 0.50138 0.0457 0.0
C2114 C 0.01234 0.47476 0.02955 0.0
C2115 C 0.01396 0.49064 0.01903 0.0
C2116 C 0.02331 0.51174 0.02182 0.0
H2117 H 0.9617 0.49138 0.93575 0.0
H2118 H 0.97856 0.50186 0.95769 0.0
C2119 C 0.03051 0.51703 0.03504 0.0
C2120 C 0.0041 0.4857 0.00548 0.0
H2121 H 0.01625 0.48072 0.97149 0.0
C2122 C 0.98111 0.48076 0.00484 0.0
C2123 C 0.01699 0.48576 -0.00666 0.0
C2124 C 0.04188 0.49026 -0.0065 0.0
C2125 C 0.97061 0.47589 -0.00763 0.0
C2126 C 0.98353 0.47568 0.98026 0.0
C2127 C 0.00645 0.48092 0.98084 0.0
C2128 C 0.97358 0.46935 0.96698 0.0
C2129 C 0.94574 0.47122 -0.00777 0.0
C2130 C 0.96546 0.44755 0.96496 0.0
C2131 C 0.95583 0.44151 0.95249 0.0
C2132 C 0.95421 0.45715 0.94178 0.0
C2133 C 0.96257 0.47897 0.94381 0.0
C2134 C 0.97227 0.48498 0.9563 0.0
H2135 H 0.93738 0.47743 0.00165 0.0
H2136 H 0.93762 0.47911 0.98321 0.0
H2137 H 0.94299 0.45285 0.99159 0.0
H2138 H 0.96664 0.43518 0.97303 0.0
H2139 H 0.94969 0.42454 0.95127 0.0
H2140 H 0.51268 0.48763 0.43177 0.0
H2141 H 0.49265 0.47639 0.45253 0.0
H2142 H 0.50387 0.54194 0.46984 0.0
H2143 H 0.52352 0.55344 0.44916 0.0
H2144 H 0.50874 0.47495 0.47889 0.0
H2145 H 0.43689 0.53352 0.47567 0.0
H2146 H 0.45516 0.528 0.46134 0.0
H2147 H 0.4634 0.54758 0.47442 0.0
C2148 C 0.51078 0.49969 0.43997 0.0
C2149 C 0.51963 0.52147 0.43877 0.0
C2150 C 0.4993 0.49325 0.4518 0.0
C2151 C 0.49638 0.50849 0.46259 0.0
C2152 C 0.5054 0.53012 0.46149 0.0
H2153 H 0.46042 0.51128 0.54646 0.0
H2154 H 0.47035 0.51863 0.52263 0.0
C2155 C 0.51681 0.53659 0.44968 0.0
C2156 C 0.48501 0.50154 0.47535 0.0
H2157 H 0.44357 0.51667 0.49762 0.0
C2158 C 0.49425 0.4838 0.48289 0.0
C2159 C 0.46609 0.51311 0.4805 0.0
C2160 C 0.45466 0.53146 0.47249 0.0
C2161 C 0.48578 0.47805 0.4958 0.0
C2162 C 0.46742 0.49021 0.50118 0.0
C2163 C 0.45769 0.50744 0.49345 0.0
C2164 C 0.45922 0.48631 0.51523 0.0
C2165 C 0.49715 0.45972 0.50387 0.0
C2166 C 0.44909 0.46594 0.51884 0.0
C2167 C 0.44335 0.46169 0.53245 0.0
C2168 C 0.4477 0.47776 0.54264 0.0
C2169 C 0.45696 0.49852 0.53886 0.0
C2170 C 0.46261 0.50277 0.52526 0.0
H2171 H 0.51336 0.45456 0.49923 0.0
H2172 H 0.50027 0.46527 0.51454 0.0
H2173 H 0.48604 0.44481 0.50426 0.0
H2174 H 0.44609 0.45317 0.51117 0.0
H2175 H 0.43616 0.44557 0.53504 0.0
H2176 H 0.29194 0.145 0.33137 0.0
H2177 H 0.32583 0.12619 0.33956 0.0
H2178 H 0.31958 0.15991 0.37837 0.0
H2179 H 0.28559 0.17878 0.37031 0.0
H2180 H 0.36886 0.14148 0.35341 0.0
H2181 H 0.31057 0.09048 0.3853 0.0
H2182 H 0.30087 0.10712 0.37107 0.0
H2183 H 0.30866 0.12048 0.38682 0.0
C2184 C 0.29804 0.14883 0.34154 0.0
C2185 C 0.2859 0.16311 0.35028 0.0
C2186 C 0.31746 0.13813 0.34618 0.0
C2187 C 0.32499 0.14153 0.35959 0.0
C2188 C 0.31389 0.15703 0.368 0.0
H2189 H 0.40476 0.0459 0.40549 0.0
H2190 H 0.38607 0.08101 0.3995 0.0
C2191 C 0.29449 0.16777 0.36337 0.0
C2192 C 0.3424 0.12659 0.3653 0.0
H2193 H 0.34848 0.08075 0.38573 0.0
C2194 C 0.36456 0.12833 0.36061 0.0
C2195 C 0.33664 0.1095 0.37466 0.0
C2196 C 0.3129 0.10656 0.37974 0.0
C2197 C 0.38116 0.11318 0.36497 0.0
C2198 C 0.37519 0.09558 0.37397 0.0
C2199 C 0.35312 0.09431 0.37891 0.0
C2200 C 0.39078 0.07715 0.37768 0.0
C2201 C 0.40485 0.11619 0.3599 0.0
C2202 C 0.40033 0.06365 0.36744 0.0
C2203 C 0.4113 0.04371 0.37086 0.0
C2204 C 0.41246 0.0367 0.38456 0.0
C2205 C 0.404 0.05082 0.39484 0.0
C2206 C 0.39334 0.07089 0.39143 0.0
H2207 H 0.40832 0.13403 0.35743 0.0
H2208 H 0.41729 0.11037 0.36756 0.0
H2209 H 0.40714 0.10631 0.35038 0.0
H2210 H 0.39811 0.06777 0.35674 0.0
H2211 H 0.41754 0.0331 0.36272 0.0
H2212 H 0.06487 0.03223 0.61988 0.0
H2213 H 0.08492 0.06643 0.62612 0.0
H2214 H 0.09923 0.07901 0.58356 0.0
H2215 H 0.0799 0.04438 0.57732 0.0
H2216 H 0.13618 0.07841 0.59804 0.0
H2217 H 0.07551 0.13286 0.62494 0.0
H2218 H 0.07603 0.1052 0.63209 0.0
H2219 H 0.0668 0.10919 0.61472 0.0
C2220 C 0.07178 0.0426 0.61183 0.0
C2221 C 0.07099 0.03555 0.59813 0.0
C2222 C 0.08311 0.06227 0.6154 0.0
C2223 C 0.09342 0.07547 0.60531 0.0
C2224 C 0.09137 0.06914 0.59153 0.0
H2225 H 0.19877 0.17678 0.61402 0.0
H2226 H 0.16531 0.15763 0.60537 0.0
C2227 C 0.08034 0.04933 0.58797 0.0
C2228 C 0.10905 0.09374 0.60922 0.0
H2229 H 0.1148 0.14004 0.62953 0.0
C2230 C 0.13134 0.09215 0.60469 0.0
C2231 C 0.10281 0.11159 0.61798 0.0
C2232 C 0.07891 0.11495 0.62259 0.0
C2233 C 0.14774 0.10731 0.60911 0.0
C2234 C 0.14168 0.12466 0.61823 0.0
C2235 C 0.11932 0.1267 0.62252 0.0
C2236 C 0.15892 0.13958 0.62414 0.0
C2237 C 0.17169 0.10406 0.60447 0.0
C2238 C 0.16575 0.13642 0.63772 0.0
C2239 C 0.18485 0.14725 0.64268 0.0
C2240 C 0.19738 0.16148 0.63413 0.0
C2241 C 0.18954 0.16585 0.62084 0.0
C2242 C 0.17045 0.15493 0.61587 0.0
H2243 H 0.17414 0.08789 0.59902 0.0
H2244 H 0.1764 0.11785 0.59742 0.0
H2245 H 0.18329 0.10463 0.61335 0.0
H2246 H 0.15704 0.12459 0.64423 0.0
H2247 H 0.19038 0.14364 0.653 0.0
H2248 H 0.19032 0.83677 0.82969 0.0
H2249 H 0.15606 0.85507 0.83772 0.0
H2250 H 0.16114 0.81981 0.87606 0.0
H2251 H 0.19551 0.80144 0.86815 0.0
H2252 H 0.11259 0.83907 0.85084 0.0
H2253 H 0.16976 0.88905 0.8841 0.0
H2254 H 0.17992 0.87302 0.86973 0.0
H2255 H 0.17177 0.85902 0.88518 0.0
C2256 C 0.18388 0.83249 0.83971 0.0
C2257 C 0.1958 0.81792 0.84837 0.0
C2258 C 0.16425 0.8429 0.84425 0.0
C2259 C 0.15628 0.83893 0.85751 0.0
C2260 C 0.16717 0.82313 0.8658 0.0
H2261 H 0.07488 0.93239 0.90404 0.0
H2262 H 0.09388 0.89761 0.89767 0.0
C2263 C 0.18679 0.81267 0.86127 0.0
C2264 C 0.13865 0.85359 0.86324 0.0
H2265 H 0.13181 0.89861 0.88428 0.0
C2266 C 0.11663 0.85195 0.85828 0.0
C2267 C 0.14408 0.87035 0.87291 0.0
C2268 C 0.16767 0.87319 0.87828 0.0
C2269 C 0.09985 0.86687 0.86269 0.0
C2270 C 0.10548 0.88414 0.87202 0.0
C2271 C 0.12742 0.88531 0.8772 0.0
C2272 C 0.08969 0.90233 0.87587 0.0
C2273 C 0.07632 0.86396 0.85732 0.0
C2274 C 0.08032 0.9162 0.86576 0.0
C2275 C 0.06917 0.93595 0.86939 0.0
C2276 C 0.06764 0.94239 0.88319 0.0
C2277 C 0.07592 0.9279 0.89332 0.0
C2278 C 0.08676 0.90801 0.88969 0.0
H2279 H 0.07299 0.84621 0.85453 0.0
H2280 H 0.06363 0.86941 0.86494 0.0
H2281 H 0.07424 0.87422 0.84795 0.0
H2282 H 0.08283 0.91253 0.85502 0.0
H2283 H 0.06309 0.94686 0.86136 0.0
H2284 H 0.29145 0.83666 0.15156 0.0
H2285 H 0.32513 0.85543 0.14307 0.0
H2286 H 0.31747 0.82234 0.10416 0.0
H2287 H 0.28367 0.80349 0.11252 0.0
H2288 H 0.36763 0.83976 0.12862 0.0
H2289 H 0.30891 0.8921 0.09779 0.0
H2290 H 0.29948 0.87539 0.11205 0.0
H2291 H 0.30659 0.86215 0.09616 0.0
C2292 C 0.29719 0.83297 0.14129 0.0
C2293 C 0.28472 0.81885 0.13264 0.0
C2294 C 0.31649 0.84364 0.13649 0.0
C2295 C 0.32358 0.84039 0.12297 0.0
C2296 C 0.31213 0.82509 0.11461 0.0
H2297 H 0.40316 0.9363 0.07714 0.0
H2298 H 0.38405 0.90134 0.08296 0.0
C2299 C 0.29284 0.81436 0.11941 0.0
C2300 C 0.34096 0.85524 0.11717 0.0
H2301 H 0.34688 0.90154 0.09712 0.0
C2302 C 0.36324 0.85313 0.1216 0.0
C2303 C 0.33508 0.87262 0.10804 0.0
C2304 C 0.31122 0.87592 0.10325 0.0
C2305 C 0.37985 0.86822 0.11719 0.0
C2306 C 0.37379 0.88613 0.10844 0.0
C2307 C 0.35158 0.88776 0.10376 0.0
C2308 C 0.38945 0.9045 0.10477 0.0
C2309 C 0.40367 0.8648 0.12196 0.0
C2310 C 0.39947 0.91756 0.11505 0.0
C2311 C 0.41066 0.93741 0.11172 0.0
C2312 C 0.41159 0.94477 0.09809 0.0
C2313 C 0.40259 0.9311 0.08775 0.0
C2314 C 0.39169 0.91111 0.09106 0.0
H2315 H 0.40703 0.84685 0.1242 0.0
H2316 H 0.41593 0.87072 0.11422 0.0
H2317 H 0.40636 0.87437 0.13156 0.0
H2318 H 0.39749 0.91317 0.12572 0.0
H2319 H 0.41731 0.94767 0.11991 0.0
H2320 H 0.70731 0.83365 0.64349 0.0
H2321 H 0.67623 0.85985 0.64033 0.0
H2322 H 0.67877 0.84907 0.59676 0.0
H2323 H 0.70997 0.82291 0.59977 0.0
H2324 H 0.67999 0.89464 0.60505 0.0
H2325 H 0.61008 0.8484 0.62977 0.0
H2326 H 0.63517 0.85054 0.63987 0.0
H2327 H 0.63557 0.83479 0.62421 0.0
C2328 C 0.70112 0.83663 0.63324 0.0
C2329 C 0.71117 0.82621 0.62188 0.0
C2330 C 0.68326 0.85151 0.63147 0.0
C2331 C 0.67508 0.85615 0.61833 0.0
C2332 C 0.6848 0.84555 0.60699 0.0
H2333 H 0.5818 0.95685 0.58775 0.0
H2334 H 0.60771 0.92526 0.58974 0.0
C2335 C 0.70262 0.83062 0.60874 0.0
C2336 C 0.65753 0.87333 0.61635 0.0
H2337 H 0.60346 0.88673 0.62437 0.0
C2338 C 0.66318 0.89286 0.60915 0.0
C2339 C 0.63572 0.87093 0.6218 0.0
C2340 C 0.62863 0.84996 0.62925 0.0
C2341 C 0.64774 0.91039 0.60756 0.0
C2342 C 0.62592 0.90805 0.61306 0.0
C2343 C 0.6202 0.88842 0.62015 0.0
C2344 C 0.60903 0.92611 0.61184 0.0
C2345 C 0.65518 0.93154 0.6004 0.0
C2346 C 0.60055 0.93645 0.62364 0.0
C2347 C 0.58559 0.95438 0.62256 0.0
C2348 C 0.57883 0.96226 0.60964 0.0
C2349 C 0.58683 0.95136 0.59785 0.0
C2350 C 0.60171 0.93336 0.59896 0.0
H2351 H 0.67375 0.93283 0.59989 0.0
H2352 H 0.64865 0.93149 0.58978 0.0
H2353 H 0.64855 0.94665 0.60567 0.0
H2354 H 0.60593 0.93099 0.63368 0.0
H2355 H 0.57969 0.96234 0.63184 0.0
H2356 H 0.89918 0.95759 0.39526 0.0
H2357 H 0.87311 0.92609 0.3937 0.0
H2358 H 0.87764 0.92796 0.3497 0.0
H2359 H 0.90401 0.95919 0.35114 0.0
H2360 H 0.83199 0.92692 0.38108 0.0
H2361 H 0.88591 0.86152 0.35772 0.0
H2362 H 0.89721 0.88667 0.36536 0.0
H2363 H 0.88568 0.88741 0.34837 0.0
C2364 C 0.89486 0.95114 0.38525 0.0
C2365 C 0.90369 0.96091 0.37332 0.0
C2366 C 0.87996 0.93314 0.38438 0.0
C2367 C 0.87369 0.92451 0.3716 0.0
C2368 C 0.88266 0.93403 0.35968 0.0
H2369 H 0.7725 0.83361 0.34189 0.0
H2370 H 0.80338 0.86019 0.34472 0.0
C2371 C 0.89762 0.95199 0.36053 0.0
C2372 C 0.85655 0.90664 0.37069 0.0
H2373 H 0.84653 0.85425 0.358 0.0
C2374 C 0.83522 0.91094 0.37616 0.0
C2375 C 0.86084 0.88586 0.36422 0.0
C2376 C 0.88371 0.87996 0.35869 0.0
C2377 C 0.81785 0.89522 0.37504 0.0
C2378 C 0.82206 0.87457 0.36843 0.0
C2379 C 0.84342 0.87015 0.36305 0.0
C2380 C 0.80428 0.85755 0.36677 0.0
C2381 C 0.79496 0.90107 0.38059 0.0
C2382 C 0.79493 0.847 0.37823 0.0
C2383 C 0.77729 0.83182 0.37667 0.0
C2384 C 0.76873 0.82691 0.3636 0.0
C2385 C 0.77861 0.83709 0.35211 0.0
C2386 C 0.79628 0.85223 0.35369 0.0
H2387 H 0.79329 0.91929 0.38272 0.0
H2388 H 0.78161 0.89602 0.37329 0.0
H2389 H 0.79217 0.89187 0.3903 0.0
H2390 H 0.80114 0.85068 0.3884 0.0
H2391 H 0.77016 0.8242 0.38573 0.0
H2392 H 0.75724 0.12955 0.13673 0.0
H2393 H 0.78897 0.10417 0.13374 0.0
H2394 H 0.81863 0.15024 0.10489 0.0
H2395 H 0.78595 0.17488 0.10714 0.0
H2396 H 0.82334 0.11149 0.09548 0.0
H2397 H 0.84936 0.10591 0.14938 0.0
H2398 H 0.82074 0.0972 0.14796 0.0
H2399 H 0.82843 0.12567 0.14377 0.0
C2400 C 0.77064 0.13429 0.12983 0.0
C2401 C 0.76928 0.15417 0.12221 0.0
C2402 C 0.7889 0.11989 0.12823 0.0
C2403 C 0.80661 0.12553 0.1194 0.0
C2404 C 0.80528 0.14554 0.11184 0.0
H2405 H 0.9246 0.03828 0.12327 0.0
H2406 H 0.89985 0.07093 0.12497 0.0
C2407 C 0.78665 0.15961 0.11313 0.0
C2408 C 0.82579 0.10992 0.11747 0.0
H2409 H 0.86158 0.07553 0.13477 0.0
C2410 C 0.83196 0.10393 0.10409 0.0
C2411 C 0.83757 0.10042 0.12863 0.0
C2412 C 0.83383 0.10788 0.14321 0.0
C2413 C 0.84884 0.08807 0.10159 0.0
C2414 C 0.85903 0.07695 0.11278 0.0
C2415 C 0.85354 0.08364 0.12615 0.0
C2416 C 0.87486 0.05792 0.11095 0.0
C2417 C 0.85569 0.08375 0.08697 0.0
C2418 C 0.86917 0.0397 0.10251 0.0
C2419 C 0.88365 0.02143 0.1012 0.0
C2420 C 0.90365 0.0206 0.10874 0.0
C2421 C 0.90922 0.03856 0.11737 0.0
C2422 C 0.89508 0.05718 0.11834 0.0
H2423 H 0.85325 0.09896 0.08058 0.0
H2424 H 0.87352 0.07853 0.0862 0.0
H2425 H 0.84496 0.07034 0.08261 0.0
H2426 H 0.8533 0.03933 0.09714 0.0
H2427 H 0.87884 0.00759 0.09464 0.0
H2428 H 0.60207 0.0061 0.88818 0.0
H2429 H 0.62744 0.03783 0.8852 0.0
H2430 H 0.58109 0.06767 0.85655 0.0
H2431 H 0.55647 0.03504 0.85879 0.0
H2432 H 0.61979 0.0721 0.84697 0.0
H2433 H 0.62599 0.09826 0.90085 0.0
H2434 H 0.63467 0.06965 0.89935 0.0
H2435 H 0.60614 0.07738 0.89531 0.0
C2436 C 0.59727 0.01954 0.88133 0.0
C2437 C 0.57733 0.01824 0.87375 0.0
C2438 C 0.61166 0.0378 0.87973 0.0
C2439 C 0.60595 0.05555 0.87094 0.0
C2440 C 0.58585 0.05429 0.86345 0.0
H2441 H 0.69189 0.17449 0.8739 0.0
H2442 H 0.65977 0.14916 0.876 0.0
C2443 C 0.57179 0.03568 0.86473 0.0
C2444 C 0.62157 0.07468 0.86895 0.0
H2445 H 0.65595 0.11075 0.88606 0.0
C2446 C 0.6274 0.08079 0.85554 0.0
C2447 C 0.63116 0.08652 0.88006 0.0
C2448 C 0.62393 0.08276 0.89467 0.0
C2449 C 0.64313 0.09774 0.85296 0.0
C2450 C 0.65428 0.10806 0.86409 0.0
C2451 C 0.6478 0.10259 0.87749 0.0
C2452 C 0.67309 0.12409 0.86214 0.0
C2453 C 0.64727 0.10451 0.8383 0.0
C2454 C 0.69133 0.11851 0.85369 0.0
C2455 C 0.7093 0.13329 0.85216 0.0
C2456 C 0.70981 0.15352 0.85948 0.0
C2457 C 0.69186 0.15895 0.86815 0.0
C2458 C 0.67354 0.14448 0.86936 0.0
H2459 H 0.63207 0.1018 0.83194 0.0
H2460 H 0.65223 0.1224 0.83748 0.0
H2461 H 0.66084 0.09394 0.83396 0.0
H2462 H 0.69191 0.10254 0.84845 0.0
H2463 H 0.72314 0.12856 0.84558 0.0
H2464 H 0.78015 0.62716 0.83596 0.0
H2465 H 0.81444 0.60963 0.84406 0.0
H2466 H 0.83219 0.67041 0.86549 0.0
H2467 H 0.79677 0.68758 0.85811 0.0
H2468 H 0.85675 0.61583 0.84171 0.0
H2469 H 0.83497 0.62838 0.89652 0.0
H2470 H 0.81573 0.63527 0.88298 0.0
H2471 H 0.83883 0.65364 0.88688 0.0
C2472 C 0.79141 0.6369 0.84232 0.0
C2473 C 0.78566 0.65863 0.84656 0.0
C2474 C 0.8111 0.62686 0.84693 0.0
C2475 C 0.82576 0.63846 0.85568 0.0
C2476 C 0.82082 0.66081 0.85916 0.0
H2477 H 0.93732 0.54556 0.8754 0.0
H2478 H 0.92057 0.58114 0.86797 0.0
C2479 C 0.8007 0.67069 0.85483 0.0
C2480 C 0.84527 0.62627 0.86158 0.0
H2481 H 0.86631 0.60644 0.89171 0.0
C2482 C 0.85901 0.61391 0.85266 0.0
C2483 C 0.84831 0.6239 0.87588 0.0
C2484 C 0.83361 0.63583 0.88614 0.0
C2485 C 0.87414 0.59776 0.85755 0.0
C2486 C 0.87655 0.59477 0.87185 0.0
C2487 C 0.86436 0.60866 0.88077 0.0
C2488 C 0.88852 0.57515 0.87776 0.0
C2489 C 0.88591 0.58291 0.84729 0.0
C2490 C 0.87673 0.56066 0.8865 0.0
C2491 C 0.88652 0.54088 0.89113 0.0
C2492 C 0.9082 0.53485 0.88692 0.0
C2493 C 0.92046 0.54971 0.87865 0.0
C2494 C 0.91082 0.56992 0.8743 0.0
H2495 H 0.87848 0.58434 0.83691 0.0
H2496 H 0.90379 0.58791 0.84657 0.0
H2497 H 0.88513 0.56506 0.85046 0.0
H2498 H 0.85954 0.56422 0.88936 0.0
H2499 H 0.87662 0.52977 0.89749 0.0
H2500 H 0.69041 0.6439 0.15399 0.0
H2501 H 0.65691 0.6248 0.14547 0.0
H2502 H 0.66412 0.65821 0.10665 0.0
H2503 H 0.69768 0.67744 0.11506 0.0
H2504 H 0.614 0.64095 0.13054 0.0
H2505 H 0.67344 0.58777 0.10076 0.0
H2506 H 0.68242 0.60431 0.11522 0.0
H2507 H 0.67616 0.61771 0.09926 0.0
C2508 C 0.6846 0.64759 0.14374 0.0
C2509 C 0.69686 0.66195 0.13513 0.0
C2510 C 0.6654 0.63674 0.13892 0.0
C2511 C 0.65823 0.64001 0.12542 0.0
C2512 C 0.6695 0.65547 0.1171 0.0
H2513 H 0.57924 0.54546 0.07823 0.0
H2514 H 0.59882 0.57986 0.08466 0.0
C2515 C 0.68866 0.66642 0.12193 0.0
C2516 C 0.64096 0.62506 0.11958 0.0
H2517 H 0.63541 0.57859 0.09959 0.0
C2518 C 0.61854 0.62743 0.12366 0.0
C2519 C 0.64705 0.60749 0.11063 0.0
C2520 C 0.67107 0.60394 0.10622 0.0
C2521 C 0.60195 0.61247 0.11904 0.0
C2522 C 0.60818 0.59443 0.11041 0.0
C2523 C 0.63058 0.59247 0.10613 0.0
C2524 C 0.59238 0.5764 0.10634 0.0
C2525 C 0.57798 0.61618 0.1234 0.0
C2526 C 0.58163 0.56335 0.11634 0.0
C2527 C 0.57017 0.54381 0.11265 0.0
C2528 C 0.56967 0.53675 0.09894 0.0
C2529 C 0.57943 0.55042 0.08888 0.0
C2530 C 0.59062 0.57009 0.09255 0.0
H2531 H 0.57477 0.63413 0.12572 0.0
H2532 H 0.56601 0.6106 0.11539 0.0
H2533 H 0.57468 0.60646 0.13286 0.0
H2534 H 0.5832 0.56751 0.12707 0.0
H2535 H 0.56293 0.53354 0.12064 0.0
H2536 H 0.68989 0.33761 0.33128 0.0
H2537 H 0.6562 0.35611 0.34001 0.0
H2538 H 0.66431 0.32231 0.37864 0.0
H2539 H 0.6981 0.3037 0.37002 0.0
H2540 H 0.61387 0.33951 0.35452 0.0
H2541 H 0.67215 0.39224 0.38542 0.0
H2542 H 0.68165 0.37602 0.37096 0.0
H2543 H 0.67496 0.36229 0.38675 0.0
C2544 C 0.68425 0.33372 0.34153 0.0
C2545 C 0.69682 0.31943 0.35003 0.0
C2546 C 0.66495 0.34424 0.34648 0.0
C2547 C 0.65796 0.34069 0.35998 0.0
C2548 C 0.66956 0.32529 0.36819 0.0
H2549 H 0.57744 0.43561 0.40621 0.0
H2550 H 0.59685 0.40079 0.40037 0.0
C2551 C 0.68884 0.31469 0.36325 0.0
C2552 C 0.64044 0.35525 0.36592 0.0
H2553 H 0.63408 0.40132 0.38616 0.0
C2554 C 0.61814 0.35288 0.36157 0.0
C2555 C 0.64616 0.37262 0.37511 0.0
C2556 C 0.67002 0.37617 0.37983 0.0
C2557 C 0.60137 0.36773 0.36608 0.0
C2558 C 0.60728 0.38567 0.37486 0.0
C2559 C 0.6295 0.38752 0.37949 0.0
C2560 C 0.59143 0.40388 0.37857 0.0
C2561 C 0.57757 0.36405 0.36138 0.0
C2562 C 0.5813 0.41686 0.3683 0.0
C2563 C 0.56996 0.43663 0.37163 0.0
C2564 C 0.56895 0.44401 0.38526 0.0
C2565 C 0.57803 0.4304 0.3956 0.0
C2566 C 0.58911 0.41049 0.39228 0.0
H2567 H 0.5744 0.34607 0.35914 0.0
H2568 H 0.56529 0.36982 0.36916 0.0
H2569 H 0.57469 0.37359 0.3518 0.0
H2570 H 0.58332 0.41248 0.35762 0.0
H2571 H 0.56325 0.44683 0.36343 0.0
H2572 H 0.87852 0.45378 0.58544 0.0
H2573 H 0.86056 0.41942 0.59302 0.0
H2574 H 0.9209 0.40038 0.6145 0.0
H2575 H 0.93854 0.43581 0.60763 0.0
H2576 H 0.86644 0.37699 0.59028 0.0
H2577 H 0.87825 0.3976 0.64532 0.0
H2578 H 0.88548 0.41703 0.63196 0.0
H2579 H 0.90366 0.39376 0.6358 0.0
C2580 C 0.88808 0.44222 0.59169 0.0
C2581 C 0.90982 0.44761 0.5961 0.0
C2582 C 0.87779 0.42249 0.596 0.0
C2583 C 0.88914 0.40746 0.60462 0.0
C2584 C 0.9115 0.41204 0.60826 0.0
H2585 H 0.79635 0.29533 0.62325 0.0
H2586 H 0.83172 0.31263 0.61591 0.0
C2587 C 0.92164 0.43217 0.60422 0.0
C2588 C 0.87667 0.38797 0.61029 0.0
H2589 H 0.85624 0.36647 0.64014 0.0
C2590 C 0.86435 0.37452 0.60119 0.0
C2591 C 0.87404 0.38468 0.62455 0.0
C2592 C 0.88589 0.39911 0.63499 0.0
C2593 C 0.84809 0.35934 0.60587 0.0
C2594 C 0.84489 0.35664 0.62013 0.0
C2595 C 0.85865 0.36863 0.62922 0.0
C2596 C 0.82524 0.34447 0.62584 0.0
C2597 C 0.83337 0.3478 0.59545 0.0
C2598 C 0.81052 0.35602 0.63458 0.0
C2599 C 0.79084 0.34594 0.63913 0.0
C2600 C 0.78516 0.3242 0.63487 0.0
C2601 C 0.80022 0.31223 0.62656 0.0
C2602 C 0.82032 0.32218 0.62226 0.0
H2603 H 0.83492 0.35546 0.58514 0.0
H2604 H 0.83841 0.32995 0.5946 0.0
H2605 H 0.81547 0.34849 0.59855 0.0
H2606 H 0.81386 0.37321 0.63752 0.0
H2607 H 0.77957 0.35562 0.64551 0.0
H2608 H 0.07975 0.46279 0.13357 0.0
H2609 H 0.10647 0.43187 0.13574 0.0
H2610 H 0.10942 0.42588 0.09183 0.0
H2611 H 0.08303 0.45698 0.08952 0.0
H2612 H 0.10473 0.38736 0.12629 0.0
H2613 H 0.17516 0.43452 0.10275 0.0
H2614 H 0.14965 0.44798 0.10836 0.0
H2615 H 0.15035 0.43308 0.09238 0.0
C2616 C 0.08601 0.45486 0.12436 0.0
C2617 C 0.07942 0.46251 0.11136 0.0
C2618 C 0.10125 0.43718 0.12563 0.0
C2619 C 0.11018 0.4269 0.11394 0.0
C2620 C 0.10306 0.43394 0.10097 0.0
H2621 H 0.21154 0.32456 0.10144 0.0
H2622 H 0.18054 0.35102 0.09868 0.0
C2623 C 0.0879 0.45166 0.09968 0.0
C2624 C 0.12727 0.40907 0.11532 0.0
H2625 H 0.18158 0.3962 0.10759 0.0
C2626 C 0.12155 0.38926 0.12223 0.0
C2627 C 0.14919 0.41169 0.11002 0.0
C2628 C 0.15659 0.43303 0.10307 0.0
C2629 C 0.13715 0.37183 0.12384 0.0
C2630 C 0.15904 0.37447 0.11853 0.0
C2631 C 0.16471 0.39423 0.11158 0.0
C2632 C 0.17659 0.35723 0.12034 0.0
C2633 C 0.13004 0.35063 0.13103 0.0
C2634 C 0.18457 0.352 0.13344 0.0
C2635 C 0.20231 0.33694 0.13507 0.0
C2636 C 0.21244 0.32691 0.1236 0.0
C2637 C 0.20412 0.33195 0.11049 0.0
C2638 C 0.18642 0.34706 0.10889 0.0
H2639 H 0.11148 0.34899 0.13144 0.0
H2640 H 0.13708 0.33562 0.12585 0.0
H2641 H 0.13645 0.35091 0.14168 0.0
H2642 H 0.17746 0.36001 0.14239 0.0
H2643 H 0.20833 0.33348 0.14531 0.0
H2644 H 0.40808 0.4572 0.84982 0.0
H2645 H 0.38172 0.42611 0.84735 0.0
H2646 H 0.37117 0.42542 0.89095 0.0
H2647 H 0.39761 0.45651 0.8936 0.0
H2648 H 0.37762 0.38148 0.87771 0.0
H2649 H 0.31271 0.43476 0.8529 0.0
H2650 H 0.34031 0.43603 0.84554 0.0
H2651 H 0.33575 0.4464 0.86255 0.0
C2652 C 0.40028 0.4504 0.85892 0.0
C2653 C 0.40482 0.45947 0.87191 0.0
C2654 C 0.38518 0.43267 0.85746 0.0
C2655 C 0.37436 0.42374 0.86895 0.0
C2656 C 0.37935 0.43221 0.88197 0.0
H2657 H 0.27289 0.32343 0.88393 0.0
H2658 H 0.30411 0.34974 0.8856 0.0
C2659 C 0.39441 0.44999 0.88345 0.0
C2660 C 0.35732 0.40598 0.86733 0.0
H2661 H 0.30507 0.39608 0.85448 0.0
C2662 C 0.36174 0.3846 0.87264 0.0
C2663 C 0.3367 0.41021 0.86068 0.0
C2664 C 0.3309 0.43312 0.85516 0.0
C2665 C 0.34609 0.36715 0.87133 0.0
C2666 C 0.32534 0.37145 0.86481 0.0
C2667 C 0.32103 0.39283 0.85944 0.0
C2668 C 0.30752 0.35427 0.86374 0.0
C2669 C 0.35204 0.34423 0.87675 0.0
C2670 C 0.29885 0.34834 0.8509 0.0
C2671 C 0.28082 0.33349 0.8499 0.0
C2672 C 0.27108 0.32435 0.86175 0.0
C2673 C 0.28007 0.33005 0.87459 0.0
C2674 C 0.29803 0.34498 0.87557 0.0
H2675 H 0.37049 0.34206 0.8777 0.0
H2676 H 0.34462 0.34215 0.88708 0.0
H2677 H 0.34534 0.3308 0.87004 0.0
H2678 H 0.30587 0.35544 0.84165 0.0
H2679 H 0.27432 0.32945 0.83986 0.0
H2680 H 0.40886 0.52141 0.63234 0.0
H2681 H 0.38251 0.55235 0.63568 0.0
H2682 H 0.36958 0.55421 0.59232 0.0
H2683 H 0.39602 0.5234 0.58881 0.0
H2684 H 0.37593 0.59742 0.60516 0.0
H2685 H 0.31368 0.54385 0.63212 0.0
H2686 H 0.34168 0.54327 0.63892 0.0
H2687 H 0.33638 0.53229 0.62213 0.0
C2688 C 0.40053 0.52846 0.62349 0.0
C2689 C 0.40441 0.51979 0.61031 0.0
C2690 C 0.38542 0.54608 0.62543 0.0
C2691 C 0.37392 0.55529 0.61426 0.0
C2692 C 0.37827 0.54722 0.60106 0.0
H2693 H 0.26952 0.6529 0.6007 0.0
H2694 H 0.30109 0.62701 0.59866 0.0
C2695 C 0.39334 0.52958 0.5991 0.0
C2696 C 0.35684 0.57291 0.61636 0.0
H2697 H 0.30535 0.58237 0.63041 0.0
C2698 C 0.36049 0.5942 0.6107 0.0
C2699 C 0.33678 0.56856 0.62359 0.0
C2700 C 0.3317 0.54573 0.62946 0.0
C2701 C 0.3446 0.6114 0.61216 0.0
C2702 C 0.3244 0.60696 0.61925 0.0
C2703 C 0.32089 0.58572 0.62502 0.0
C2704 C 0.30631 0.62382 0.62047 0.0
C2705 C 0.34968 0.63421 0.60627 0.0
C2706 C 0.29857 0.63036 0.63342 0.0
C2707 C 0.28039 0.64499 0.63463 0.0
C2708 C 0.26954 0.65328 0.6229 0.0
C2709 C 0.27756 0.64693 0.60994 0.0
C2710 C 0.2957 0.63225 0.60874 0.0
H2711 H 0.36799 0.63666 0.60475 0.0
H2712 H 0.34139 0.6358 0.59616 0.0
H2713 H 0.34327 0.64776 0.61301 0.0
H2714 H 0.30646 0.62392 0.64259 0.0
H2715 H 0.27467 0.64954 0.64477 0.0
H2716 H 0.08418 0.52415 0.39438 0.0
H2717 H 0.11018 0.55558 0.39211 0.0
H2718 H 0.10593 0.55076 0.34819 0.0
H2719 H 0.07966 0.51954 0.35032 0.0
H2720 H 0.15148 0.55384 0.37944 0.0
H2721 H 0.09733 0.61777 0.35478 0.0
H2722 H 0.0861 0.59315 0.36306 0.0
H2723 H 0.09757 0.59125 0.34609 0.0
C2724 C 0.08855 0.52992 0.38422 0.0
C2725 C 0.07983 0.51932 0.37252 0.0
C2726 C 0.1034 0.54789 0.38296 0.0
C2727 C 0.10973 0.55567 0.36999 0.0
C2728 C 0.10087 0.54533 0.35829 0.0
H2729 H 0.21029 0.64622 0.33888 0.0
H2730 H 0.17954 0.61959 0.34203 0.0
C2731 C 0.08596 0.52739 0.35954 0.0
C2732 C 0.12683 0.57351 0.36871 0.0
H2733 H 0.13661 0.62532 0.35514 0.0
C2734 C 0.14818 0.56956 0.37425 0.0
C2735 C 0.12246 0.59393 0.36187 0.0
C2736 C 0.09957 0.59943 0.35621 0.0
C2737 C 0.16548 0.5853 0.37286 0.0
C2738 C 0.16117 0.60563 0.36592 0.0
C2739 C 0.1398 0.60968 0.36045 0.0
C2740 C 0.17885 0.62271 0.36405 0.0
C2741 C 0.1884 0.57978 0.37849 0.0
C2742 C 0.18826 0.63359 0.3754 0.0
C2743 C 0.20584 0.64878 0.37366 0.0
C2744 C 0.21426 0.65341 0.36052 0.0
C2745 C 0.20429 0.64296 0.34914 0.0
C2746 C 0.18669 0.62778 0.3509 0.0
H2747 H 0.19022 0.56162 0.38076 0.0
H2748 H 0.20175 0.58477 0.37119 0.0
H2749 H 0.19105 0.5892 0.38814 0.0
H2750 H 0.18215 0.63013 0.38561 0.0
H2751 H 0.21302 0.65663 0.38264 0.0
loop_
_geom_bond_atom_site_label_1
_geom_bond_atom_site_label_2
_geom_bond_distance
_geom_bond_site_symmetry_2
_ccdc_geom_bond_type
C0 O1 1.306 . S
C0 O3 1.160 . S
O1 C0 1.306 . S
O1 Cd2 2.228 . S
Cd2 O1 2.228 . S
Cd2 O6 2.273 . S
Cd2 O10 2.277 . S
O3 C0 1.160 . S
O3 Cd4 2.203 . S
Cd4 O3 2.203 . S
Cd4 O6 2.411 . S
Cd4 O7 2.333 . S
Cd4 O8 2.352 . S
Cd4 O12 2.277 . S
Cd4 O13 2.356 . S
C5 O10 1.209 . S
C5 O12 1.226 . S
O6 Cd2 2.273 . S
O6 Cd4 2.411 . S
O6 C9 1.320 . S
O7 Cd4 2.333 . S
O7 C9 1.214 . S
O8 Cd4 2.352 . S
O8 C11 1.258 . S
C9 O6 1.320 . S
C9 O7 1.214 . S
O10 Cd2 2.277 . S
O10 C5 1.209 . S
C11 O8 1.258 . S
C11 O13 1.282 . S
O12 Cd4 2.277 . S
O12 C5 1.226 . S
O13 Cd4 2.356 . S
O13 C11 1.282 . S
C14 O15 1.306 . S
C14 O17 1.160 . S
O15 C14 1.306 . S
O15 Cd16 2.228 . S
Cd16 O15 2.228 . S
Cd16 O20 2.273 . S
Cd16 O24 2.277 . S
O17 C14 1.160 . S
O17 Cd18 2.203 . S
Cd18 O17 2.203 . S
Cd18 O20 2.411 . S
Cd18 O21 2.333 . S
Cd18 O22 2.352 . S
Cd18 O26 2.277 . S
Cd18 O27 2.356 . S
C19 O24 1.209 . S
C19 O26 1.226 . S
O20 Cd16 2.273 . S
O20 Cd18 2.411 . S
O20 C23 1.320 . S
O21 Cd18 2.333 . S
O21 C23 1.214 . S
O22 Cd18 2.352 . S
O22 C25 1.258 . S
C23 O20 1.320 . S
C23 O21 1.214 . S
O24 Cd16 2.277 . S
O24 C19 1.209 . S
C25 O22 1.258 . S
C25 O27 1.282 . S
O26 Cd18 2.277 . S
O26 C19 1.226 . S
O27 Cd18 2.356 . S
O27 C25 1.282 . S
C28 O29 1.306 . S
C28 O31 1.160 . S
O29 C28 1.306 . S
O29 Cd30 2.228 . S
Cd30 O29 2.228 . S
Cd30 O34 2.273 . S
Cd30 O38 2.277 . S
O31 C28 1.160 . S
O31 Cd32 2.203 . S
Cd32 O31 2.203 . S
Cd32 O34 2.411 . S
Cd32 O35 2.333 . S
Cd32 O36 2.352 . S
Cd32 O40 2.277 . S
Cd32 O41 2.356 . S
C33 O38 1.209 . S
C33 O40 1.226 . S
O34 Cd30 2.273 . S
O34 Cd32 2.411 . S
O34 C37 1.320 . S
O35 Cd32 2.333 . S
O35 C37 1.214 . S
O36 Cd32 2.352 . S
O36 C39 1.258 . S
C37 O34 1.320 . S
C37 O35 1.214 . S
O38 Cd30 2.277 . S
O38 C33 1.209 . S
C39 O36 1.258 . S
C39 O41 1.282 . S
O40 Cd32 2.277 . S
O40 C33 1.226 . S
O41 Cd32 2.356 . S
O41 C39 1.282 . S
C42 O43 1.306 . S
C42 O45 1.160 . S
O43 C42 1.306 . S
O43 Cd44 2.228 . S
Cd44 O43 2.228 . S
Cd44 O48 2.273 . S
Cd44 O52 2.277 . S
O45 C42 1.160 . S
O45 Cd46 2.203 . S
Cd46 O45 2.203 . S
Cd46 O48 2.411 . S
Cd46 O49 2.333 . S
Cd46 O50 2.352 . S
Cd46 O54 2.277 . S
Cd46 O55 2.356 . S
C47 O52 1.209 . S
C47 O54 1.226 . S
O48 Cd44 2.273 . S
O48 Cd46 2.411 . S
O48 C51 1.320 . S
O49 Cd46 2.333 . S
O49 C51 1.214 . S
O50 Cd46 2.352 . S
O50 C53 1.258 . S
C51 O48 1.320 . S
C51 O49 1.214 . S
O52 Cd44 2.277 . S
O52 C47 1.209 . S
C53 O50 1.258 . S
C53 O55 1.282 . S
O54 Cd46 2.277 . S
O54 C47 1.226 . S
O55 Cd46 2.356 . S
O55 C53 1.282 . S
C56 O57 1.306 . S
C56 O59 1.160 . S
O57 C56 1.306 . S
O57 Cd58 2.228 . S
Cd58 O57 2.228 . S
Cd58 O62 2.273 . S
Cd58 O66 2.277 . S
O59 C56 1.160 . S
O59 Cd60 2.203 . S
Cd60 O59 2.203 . S
Cd60 O62 2.411 . S
Cd60 O63 2.333 . S
Cd60 O64 2.352 . S
Cd60 O68 2.277 . S
Cd60 O69 2.356 . S
C61 O66 1.209 . S
C61 O68 1.226 . S
O62 Cd58 2.273 . S
O62 Cd60 2.411 . S
O62 C65 1.320 . S
O63 Cd60 2.333 . S
O63 C65 1.214 . S
O64 Cd60 2.352 . S
O64 C67 1.258 . S
C65 O62 1.320 . S
C65 O63 1.214 . S
O66 Cd58 2.277 . S
O66 C61 1.209 . S
C67 O64 1.258 . S
C67 O69 1.282 . S
O68 Cd60 2.277 . S
O68 C61 1.226 . S
O69 Cd60 2.356 . S
O69 C67 1.282 . S
C70 O71 1.306 . S
C70 O73 1.160 . S
O71 C70 1.306 . S
O71 Cd72 2.228 . S
Cd72 O71 2.228 . S
Cd72 O76 2.273 . S
Cd72 O80 2.277 . S
O73 C70 1.160 . S
O73 Cd74 2.203 . S
Cd74 O73 2.203 . S
Cd74 O76 2.411 . S
Cd74 O77 2.333 . S
Cd74 O78 2.352 . S
Cd74 O82 2.277 . S
Cd74 O83 2.356 . S
C75 O80 1.209 . S
C75 O82 1.226 . S
O76 Cd72 2.273 . S
O76 Cd74 2.411 . S
O76 C79 1.320 . S
O77 Cd74 2.333 . S
O77 C79 1.214 . S
O78 Cd74 2.352 . S
O78 C81 1.258 . S
C79 O76 1.320 . S
C79 O77 1.214 . S
O80 Cd72 2.277 . S
O80 C75 1.209 . S
C81 O78 1.258 . S
C81 O83 1.282 . S
O82 Cd74 2.277 . S
O82 C75 1.226 . S
O83 Cd74 2.356 . S
O83 C81 1.282 . S
C84 O85 1.306 . S
C84 O87 1.160 . S
O85 C84 1.306 . S
O85 Cd86 2.228 . S
Cd86 O85 2.228 . S
Cd86 O90 2.273 . S
Cd86 O94 2.277 . S
O87 C84 1.160 . S
O87 Cd88 2.203 . S
Cd88 O87 2.203 . S
Cd88 O90 2.411 . S
Cd88 O91 2.333 . S
Cd88 O92 2.352 . S
Cd88 O96 2.277 . S
Cd88 O97 2.356 . S
C89 O94 1.209 . S
C89 O96 1.226 . S
O90 Cd86 2.273 . S
O90 Cd88 2.411 . S
O90 C93 1.320 . S
O91 Cd88 2.333 . S
O91 C93 1.214 . S
O92 Cd88 2.352 . S
O92 C95 1.258 . S
C93 O90 1.320 . S
C93 O91 1.214 . S
O94 Cd86 2.277 . S
O94 C89 1.209 . S
C95 O92 1.258 . S
C95 O97 1.282 . S
O96 Cd88 2.277 . S
O96 C89 1.226 . S
O97 Cd88 2.356 . S
O97 C95 1.282 . S
C98 O99 1.306 . S
C98 O101 1.160 . S
O99 C98 1.306 . S
O99 Cd100 2.228 . S
Cd100 O99 2.228 . S
Cd100 O104 2.273 . S
Cd100 O108 2.277 . S
O101 C98 1.160 . S
O101 Cd102 2.203 . S
Cd102 O101 2.203 . S
Cd102 O104 2.411 . S
Cd102 O105 2.333 . S
Cd102 O106 2.352 . S
Cd102 O110 2.277 . S
Cd102 O111 2.356 . S
C103 O108 1.209 . S
C103 O110 1.226 . S
O104 Cd100 2.273 . S
O104 Cd102 2.411 . S
O104 C107 1.320 . S
O105 Cd102 2.333 . S
O105 C107 1.214 . S
O106 Cd102 2.352 . S
O106 C109 1.258 . S
C107 O104 1.320 . S
C107 O105 1.214 . S
O108 Cd100 2.277 . S
O108 C103 1.209 . S
C109 O106 1.258 . S
C109 O111 1.282 . S
O110 Cd102 2.277 . S
O110 C103 1.226 . S
O111 Cd102 2.356 . S
O111 C109 1.282 . S
C112 O113 1.306 . S
C112 O115 1.160 . S
O113 C112 1.306 . S
O113 Cd114 2.228 . S
Cd114 O113 2.228 . S
Cd114 O118 2.273 . S
Cd114 O122 2.277 . S
O115 C112 1.160 . S
O115 Cd116 2.203 . S
Cd116 O115 2.203 . S
Cd116 O118 2.411 . S
Cd116 O119 2.333 . S
Cd116 O120 2.352 . S
Cd116 O124 2.277 . S
Cd116 O125 2.356 . S
C117 O122 1.209 . S
C117 O124 1.226 . S
O118 Cd114 2.273 . S
O118 Cd116 2.411 . S
O118 C121 1.320 . S
O119 Cd116 2.333 . S
O119 C121 1.214 . S
O120 Cd116 2.352 . S
O120 C123 1.258 . S
C121 O118 1.320 . S
C121 O119 1.214 . S
O122 Cd114 2.277 . S
O122 C117 1.209 . S
C123 O120 1.258 . S
C123 O125 1.282 . S
O124 Cd116 2.277 . S
O124 C117 1.226 . S
O125 Cd116 2.356 . S
O125 C123 1.282 . S
C126 O127 1.306 . S
C126 O129 1.160 . S
O127 C126 1.306 . S
O127 Cd128 2.228 . S
Cd128 O127 2.228 . S
Cd128 O132 2.273 . S
Cd128 O136 2.277 . S
O129 C126 1.160 . S
O129 Cd130 2.203 . S
Cd130 O129 2.203 . S
Cd130 O132 2.411 . S
Cd130 O133 2.333 . S
Cd130 O134 2.352 . S
Cd130 O138 2.277 . S
Cd130 O139 2.356 . S
C131 O136 1.209 . S
C131 O138 1.226 . S
O132 Cd128 2.273 . S
O132 Cd130 2.411 . S
O132 C135 1.320 . S
O133 Cd130 2.333 . S
O133 C135 1.214 . S
O134 Cd130 2.352 . S
O134 C137 1.258 . S
C135 O132 1.320 . S
C135 O133 1.214 . S
O136 Cd128 2.277 . S
O136 C131 1.209 . S
C137 O134 1.258 . S
C137 O139 1.282 . S
O138 Cd130 2.277 . S
O138 C131 1.226 . S
O139 Cd130 2.356 . S
O139 C137 1.282 . S
C140 O141 1.306 . S
C140 O143 1.160 . S
O141 C140 1.306 . S
O141 Cd142 2.228 . S
Cd142 O141 2.228 . S
Cd142 O146 2.273 . S
Cd142 O150 2.277 . S
O143 C140 1.160 . S
O143 Cd144 2.203 . S
Cd144 O143 2.203 . S
Cd144 O146 2.411 . S
Cd144 O147 2.333 . S
Cd144 O148 2.352 . S
Cd144 O152 2.277 . S
Cd144 O153 2.356 . S
C145 O150 1.209 . S
C145 O152 1.226 . S
O146 Cd142 2.273 . S
O146 Cd144 2.411 . S
O146 C149 1.320 . S
O147 Cd144 2.333 . S
O147 C149 1.214 . S
O148 Cd144 2.352 . S
O148 C151 1.258 . S
C149 O146 1.320 . S
C149 O147 1.214 . S
O150 Cd142 2.277 . S
O150 C145 1.209 . S
C151 O148 1.258 . S
C151 O153 1.282 . S
O152 Cd144 2.277 . S
O152 C145 1.226 . S
O153 Cd144 2.356 . S
O153 C151 1.282 . S
C154 O155 1.306 . S
C154 O157 1.160 . S
O155 C154 1.306 . S
O155 Cd156 2.228 . S
Cd156 O155 2.228 . S
Cd156 O160 2.273 . S
Cd156 O164 2.277 . S
O157 C154 1.160 . S
O157 Cd158 2.203 . S
Cd158 O157 2.203 . S
Cd158 O160 2.411 . S
Cd158 O161 2.333 . S
Cd158 O162 2.352 . S
Cd158 O166 2.277 . S
Cd158 O167 2.356 . S
C159 O164 1.209 . S
C159 O166 1.226 . S
O160 Cd156 2.273 . S
O160 Cd158 2.411 . S
O160 C163 1.320 . S
O161 Cd158 2.333 . S
O161 C163 1.214 . S
O162 Cd158 2.352 . S
O162 C165 1.258 . S
C163 O160 1.320 . S
C163 O161 1.214 . S
O164 Cd156 2.277 . S
O164 C159 1.209 . S
C165 O162 1.258 . S
C165 O167 1.282 . S
O166 Cd158 2.277 . S
O166 C159 1.226 . S
O167 Cd158 2.356 . S
O167 C165 1.282 . S
C168 O169 1.306 . S
C168 O171 1.160 . S
O169 C168 1.306 . S
O169 Cd170 2.228 . S
Cd170 O169 2.228 . S
Cd170 O174 2.273 . S
Cd170 O178 2.277 . S
O171 C168 1.160 . S
O171 Cd172 2.203 . S
Cd172 O171 2.203 . S
Cd172 O174 2.411 . S
Cd172 O175 2.333 . S
Cd172 O176 2.352 . S
Cd172 O180 2.277 . S
Cd172 O181 2.356 . S
C173 O178 1.209 . S
C173 O180 1.226 . S
O174 Cd170 2.273 . S
O174 Cd172 2.411 . S
O174 C177 1.320 . S
O175 Cd172 2.333 . S
O175 C177 1.214 . S
O176 Cd172 2.352 . S
O176 C179 1.258 . S
C177 O174 1.320 . S
C177 O175 1.214 . S
O178 Cd170 2.277 . S
O178 C173 1.209 . S
C179 O176 1.258 . S
C179 O181 1.282 . S
O180 Cd172 2.277 . S
O180 C173 1.226 . S
O181 Cd172 2.356 . S
O181 C179 1.282 . S
C182 O183 1.306 . S
C182 O185 1.160 . S
O183 C182 1.306 . S
O183 Cd184 2.228 . S
Cd184 O183 2.228 . S
Cd184 O188 2.273 . S
Cd184 O192 2.277 . S
O185 C182 1.160 . S
O185 Cd186 2.203 . S
Cd186 O185 2.203 . S
Cd186 O188 2.411 . S
Cd186 O189 2.333 . S
Cd186 O190 2.352 . S
Cd186 O194 2.277 . S
Cd186 O195 2.356 . S
C187 O192 1.209 . S
C187 O194 1.226 . S
O188 Cd184 2.273 . S
O188 Cd186 2.411 . S
O188 C191 1.320 . S
O189 Cd186 2.333 . S
O189 C191 1.214 . S
O190 Cd186 2.352 . S
O190 C193 1.258 . S
C191 O188 1.320 . S
C191 O189 1.214 . S
O192 Cd184 2.277 . S
O192 C187 1.209 . S
C193 O190 1.258 . S
C193 O195 1.282 . S
O194 Cd186 2.277 . S
O194 C187 1.226 . S
O195 Cd186 2.356 . S
O195 C193 1.282 . S
C196 O197 1.306 . S
C196 O199 1.160 . S
O197 C196 1.306 . S
O197 Cd198 2.228 . S
Cd198 O197 2.228 . S
Cd198 O202 2.273 . S
Cd198 O206 2.277 . S
O199 C196 1.160 . S
O199 Cd200 2.203 . S
Cd200 O199 2.203 . S
Cd200 O202 2.411 . S
Cd200 O203 2.333 . S
Cd200 O204 2.352 . S
Cd200 O208 2.277 . S
Cd200 O209 2.356 . S
C201 O206 1.209 . S
C201 O208 1.226 . S
O202 Cd198 2.273 . S
O202 Cd200 2.411 . S
O202 C205 1.320 . S
O203 Cd200 2.333 . S
O203 C205 1.214 . S
O204 Cd200 2.352 . S
O204 C207 1.258 . S
C205 O202 1.320 . S
C205 O203 1.214 . S
O206 Cd198 2.277 . S
O206 C201 1.209 . S
C207 O204 1.258 . S
C207 O209 1.282 . S
O208 Cd200 2.277 . S
O208 C201 1.226 . S
O209 Cd200 2.356 . S
O209 C207 1.282 . S
C210 O211 1.306 . S
C210 O213 1.160 . S
O211 C210 1.306 . S
O211 Cd212 2.228 . S
Cd212 O211 2.228 . S
Cd212 O216 2.273 . S
Cd212 O220 2.277 . S
O213 C210 1.160 . S
O213 Cd214 2.203 . S
Cd214 O213 2.203 . S
Cd214 O216 2.411 . S
Cd214 O217 2.333 . S
Cd214 O218 2.352 . S
Cd214 O222 2.277 . S
Cd214 O223 2.356 . S
C215 O220 1.209 . S
C215 O222 1.226 . S
O216 Cd212 2.273 . S
O216 Cd214 2.411 . S
O216 C219 1.320 . S
O217 Cd214 2.333 . S
O217 C219 1.214 . S
O218 Cd214 2.352 . S
O218 C221 1.258 . S
C219 O216 1.320 . S
C219 O217 1.214 . S
O220 Cd212 2.277 . S
O220 C215 1.209 . S
C221 O218 1.258 . S
C221 O223 1.282 . S
O222 Cd214 2.277 . S
O222 C215 1.226 . S
O223 Cd214 2.356 . S
O223 C221 1.282 . S
C224 O225 1.306 . S
C224 O227 1.160 . S
O225 C224 1.306 . S
O225 Cd226 2.228 . S
Cd226 O225 2.228 . S
Cd226 O230 2.273 . S
Cd226 O234 2.277 . S
O227 C224 1.160 . S
O227 Cd228 2.203 . S
Cd228 O227 2.203 . S
Cd228 O230 2.411 . S
Cd228 O231 2.333 . S
Cd228 O232 2.352 . S
Cd228 O236 2.277 . S
Cd228 O237 2.356 . S
C229 O234 1.209 . S
C229 O236 1.226 . S
O230 Cd226 2.273 . S
O230 Cd228 2.411 . S
O230 C233 1.320 . S
O231 Cd228 2.333 . S
O231 C233 1.214 . S
O232 Cd228 2.352 . S
O232 C235 1.258 . S
C233 O230 1.320 . S
C233 O231 1.214 . S
O234 Cd226 2.277 . S
O234 C229 1.209 . S
C235 O232 1.258 . S
C235 O237 1.282 . S
O236 Cd228 2.277 . S
O236 C229 1.226 . S
O237 Cd228 2.356 . S
O237 C235 1.282 . S
C238 O239 1.306 . S
C238 O241 1.160 . S
O239 C238 1.306 . S
O239 Cd240 2.228 . S
Cd240 O239 2.228 . S
Cd240 O244 2.273 . S
Cd240 O248 2.277 . S
O241 C238 1.160 . S
O241 Cd242 2.203 . S
Cd242 O241 2.203 . S
Cd242 O244 2.411 . S
Cd242 O245 2.333 . S
Cd242 O246 2.352 . S
Cd242 O250 2.277 . S
Cd242 O251 2.356 . S
C243 O248 1.209 . S
C243 O250 1.226 . S
O244 Cd240 2.273 . S
O244 Cd242 2.411 . S
O244 C247 1.320 . S
O245 Cd242 2.333 . S
O245 C247 1.214 . S
O246 Cd242 2.352 . S
O246 C249 1.258 . S
C247 O244 1.320 . S
C247 O245 1.214 . S
O248 Cd240 2.277 . S
O248 C243 1.209 . S
C249 O246 1.258 . S
C249 O251 1.282 . S
O250 Cd242 2.277 . S
O250 C243 1.226 . S
O251 Cd242 2.356 . S
O251 C249 1.282 . S
C252 O253 1.306 . S
C252 O255 1.160 . S
O253 C252 1.306 . S
O253 Cd254 2.228 . S
Cd254 O253 2.228 . S
Cd254 O258 2.273 . S
Cd254 O262 2.277 . S
O255 C252 1.160 . S
O255 Cd256 2.203 . S
Cd256 O255 2.203 . S
Cd256 O258 2.411 . S
Cd256 O259 2.333 . S
Cd256 O260 2.352 . S
Cd256 O264 2.277 . S
Cd256 O265 2.356 . S
C257 O262 1.209 . S
C257 O264 1.226 . S
O258 Cd254 2.273 . S
O258 Cd256 2.411 . S
O258 C261 1.320 . S
O259 Cd256 2.333 . S
O259 C261 1.214 . S
O260 Cd256 2.352 . S
O260 C263 1.258 . S
C261 O258 1.320 . S
C261 O259 1.214 . S
O262 Cd254 2.277 . S
O262 C257 1.209 . S
C263 O260 1.258 . S
C263 O265 1.282 . S
O264 Cd256 2.277 . S
O264 C257 1.226 . S
O265 Cd256 2.356 . S
O265 C263 1.282 . S
C266 O267 1.306 . S
C266 O269 1.160 . S
O267 C266 1.306 . S
O267 Cd268 2.228 . S
Cd268 O267 2.228 . S
Cd268 O272 2.273 . S
Cd268 O276 2.277 . S
O269 C266 1.160 . S
O269 Cd270 2.203 . S
Cd270 O269 2.203 . S
Cd270 O272 2.411 . S
Cd270 O273 2.333 . S
Cd270 O274 2.352 . S
Cd270 O278 2.277 . S
Cd270 O279 2.356 . S
C271 O276 1.209 . S
C271 O278 1.226 . S
O272 Cd268 2.273 . S
O272 Cd270 2.411 . S
O272 C275 1.320 . S
O273 Cd270 2.333 . S
O273 C275 1.214 . S
O274 Cd270 2.352 . S
O274 C277 1.258 . S
C275 O272 1.320 . S
C275 O273 1.214 . S
O276 Cd268 2.277 . S
O276 C271 1.209 . S
C277 O274 1.258 . S
C277 O279 1.282 . S
O278 Cd270 2.277 . S
O278 C271 1.226 . S
O279 Cd270 2.356 . S
O279 C277 1.282 . S
C280 O281 1.306 . S
C280 O283 1.160 . S
O281 C280 1.306 . S
O281 Cd282 2.228 . S
Cd282 O281 2.228 . S
Cd282 O286 2.273 . S
Cd282 O290 2.277 . S
O283 C280 1.160 . S
O283 Cd284 2.203 . S
Cd284 O283 2.203 . S
Cd284 O286 2.411 . S
Cd284 O287 2.333 . S
Cd284 O288 2.352 . S
Cd284 O292 2.277 . S
Cd284 O293 2.356 . S
C285 O290 1.209 . S
C285 O292 1.226 . S
O286 Cd282 2.273 . S
O286 Cd284 2.411 . S
O286 C289 1.320 . S
O287 Cd284 2.333 . S
O287 C289 1.214 . S
O288 Cd284 2.352 . S
O288 C291 1.258 . S
C289 O286 1.320 . S
C289 O287 1.214 . S
O290 Cd282 2.277 . S
O290 C285 1.209 . S
C291 O288 1.258 . S
C291 O293 1.282 . S
O292 Cd284 2.277 . S
O292 C285 1.226 . S
O293 Cd284 2.356 . S
O293 C291 1.282 . S
C294 O295 1.306 . S
C294 O297 1.160 . S
O295 C294 1.306 . S
O295 Cd296 2.228 . S
Cd296 O295 2.228 . S
Cd296 O300 2.273 . S
Cd296 O304 2.277 . S
O297 C294 1.160 . S
O297 Cd298 2.203 . S
Cd298 O297 2.203 . S
Cd298 O300 2.411 . S
Cd298 O301 2.333 . S
Cd298 O302 2.352 . S
Cd298 O306 2.277 . S
Cd298 O307 2.356 . S
C299 O304 1.209 . S
C299 O306 1.226 . S
O300 Cd296 2.273 . S
O300 Cd298 2.411 . S
O300 C303 1.320 . S
O301 Cd298 2.333 . S
O301 C303 1.214 . S
O302 Cd298 2.352 . S
O302 C305 1.258 . S
C303 O300 1.320 . S
C303 O301 1.214 . S
O304 Cd296 2.277 . S
O304 C299 1.209 . S
C305 O302 1.258 . S
C305 O307 1.282 . S
O306 Cd298 2.277 . S
O306 C299 1.226 . S
O307 Cd298 2.356 . S
O307 C305 1.282 . S
C308 O309 1.306 . S
C308 O311 1.160 . S
O309 C308 1.306 . S
O309 Cd310 2.228 . S
Cd310 O309 2.228 . S
Cd310 O314 2.273 . S
Cd310 O318 2.277 . S
O311 C308 1.160 . S
O311 Cd312 2.203 . S
Cd312 O311 2.203 . S
Cd312 O314 2.411 . S
Cd312 O315 2.333 . S
Cd312 O316 2.352 . S
Cd312 O320 2.277 . S
Cd312 O321 2.356 . S
C313 O318 1.209 . S
C313 O320 1.226 . S
O314 Cd310 2.273 . S
O314 Cd312 2.411 . S
O314 C317 1.320 . S
O315 Cd312 2.333 . S
O315 C317 1.214 . S
O316 Cd312 2.352 . S
O316 C319 1.258 . S
C317 O314 1.320 . S
C317 O315 1.214 . S
O318 Cd310 2.277 . S
O318 C313 1.209 . S
C319 O316 1.258 . S
C319 O321 1.282 . S
O320 Cd312 2.277 . S
O320 C313 1.226 . S
O321 Cd312 2.356 . S
O321 C319 1.282 . S
C322 O323 1.306 . S
C322 O325 1.160 . S
O323 C322 1.306 . S
O323 Cd324 2.228 . S
Cd324 O323 2.228 . S
Cd324 O328 2.273 . S
Cd324 O332 2.277 . S
O325 C322 1.160 . S
O325 Cd326 2.203 . S
Cd326 O325 2.203 . S
Cd326 O328 2.411 . S
Cd326 O329 2.333 . S
Cd326 O330 2.352 . S
Cd326 O334 2.277 . S
Cd326 O335 2.356 . S
C327 O332 1.209 . S
C327 O334 1.226 . S
O328 Cd324 2.273 . S
O328 Cd326 2.411 . S
O328 C331 1.320 . S
O329 Cd326 2.333 . S
O329 C331 1.214 . S
O330 Cd326 2.352 . S
O330 C333 1.258 . S
C331 O328 1.320 . S
C331 O329 1.214 . S
O332 Cd324 2.277 . S
O332 C327 1.209 . S
C333 O330 1.258 . S
C333 O335 1.282 . S
O334 Cd326 2.277 . S
O334 C327 1.226 . S
O335 Cd326 2.356 . S
O335 C333 1.282 . S
C336 O337 1.306 . S
C336 O339 1.160 . S
O337 C336 1.306 . S
O337 Cd338 2.228 . S
Cd338 O337 2.228 . S
Cd338 O342 2.273 . S
Cd338 O346 2.277 . S
O339 C336 1.160 . S
O339 Cd340 2.203 . S
Cd340 O339 2.203 . S
Cd340 O342 2.411 . S
Cd340 O343 2.333 . S
Cd340 O344 2.352 . S
Cd340 O348 2.277 . S
Cd340 O349 2.356 . S
C341 O346 1.209 . S
C341 O348 1.226 . S
O342 Cd338 2.273 . S
O342 Cd340 2.411 . S
O342 C345 1.320 . S
O343 Cd340 2.333 . S
O343 C345 1.214 . S
O344 Cd340 2.352 . S
O344 C347 1.258 . S
C345 O342 1.320 . S
C345 O343 1.214 . S
O346 Cd338 2.277 . S
O346 C341 1.209 . S
C347 O344 1.258 . S
C347 O349 1.282 . S
O348 Cd340 2.277 . S
O348 C341 1.226 . S
O349 Cd340 2.356 . S
O349 C347 1.282 . S
C350 O351 1.306 . S
C350 O353 1.160 . S
O351 C350 1.306 . S
O351 Cd352 2.228 . S
Cd352 O351 2.228 . S
Cd352 O356 2.273 . S
Cd352 O360 2.277 . S
O353 C350 1.160 . S
O353 Cd354 2.203 . S
Cd354 O353 2.203 . S
Cd354 O356 2.411 . S
Cd354 O357 2.333 . S
Cd354 O358 2.352 . S
Cd354 O362 2.277 . S
Cd354 O363 2.356 . S
C355 O360 1.209 . S
C355 O362 1.226 . S
O356 Cd352 2.273 . S
O356 Cd354 2.411 . S
O356 C359 1.320 . S
O357 Cd354 2.333 . S
O357 C359 1.214 . S
O358 Cd354 2.352 . S
O358 C361 1.258 . S
C359 O356 1.320 . S
C359 O357 1.214 . S
O360 Cd352 2.277 . S
O360 C355 1.209 . S
C361 O358 1.258 . S
C361 O363 1.282 . S
O362 Cd354 2.277 . S
O362 C355 1.226 . S
O363 Cd354 2.356 . S
O363 C361 1.282 . S
C364 O365 1.306 . S
C364 O367 1.160 . S
O365 C364 1.306 . S
O365 Cd366 2.228 . S
Cd366 O365 2.228 . S
Cd366 O370 2.273 . S
Cd366 O374 2.277 . S
O367 C364 1.160 . S
O367 Cd368 2.203 . S
Cd368 O367 2.203 . S
Cd368 O370 2.411 . S
Cd368 O371 2.333 . S
Cd368 O372 2.352 . S
Cd368 O376 2.277 . S
Cd368 O377 2.356 . S
C369 O374 1.209 . S
C369 O376 1.226 . S
O370 Cd366 2.273 . S
O370 Cd368 2.411 . S
O370 C373 1.320 . S
O371 Cd368 2.333 . S
O371 C373 1.214 . S
O372 Cd368 2.352 . S
O372 C375 1.258 . S
C373 O370 1.320 . S
C373 O371 1.214 . S
O374 Cd366 2.277 . S
O374 C369 1.209 . S
C375 O372 1.258 . S
C375 O377 1.282 . S
O376 Cd368 2.277 . S
O376 C369 1.226 . S
O377 Cd368 2.356 . S
O377 C375 1.282 . S
C378 O379 1.306 . S
C378 O381 1.160 . S
O379 C378 1.306 . S
O379 Cd380 2.228 . S
Cd380 O379 2.228 . S
Cd380 O384 2.273 . S
Cd380 O388 2.277 . S
O381 C378 1.160 . S
O381 Cd382 2.203 . S
Cd382 O381 2.203 . S
Cd382 O384 2.411 . S
Cd382 O385 2.333 . S
Cd382 O386 2.352 . S
Cd382 O390 2.277 . S
Cd382 O391 2.356 . S
C383 O388 1.209 . S
C383 O390 1.226 . S
O384 Cd380 2.273 . S
O384 Cd382 2.411 . S
O384 C387 1.320 . S
O385 Cd382 2.333 . S
O385 C387 1.214 . S
O386 Cd382 2.352 . S
O386 C389 1.258 . S
C387 O384 1.320 . S
C387 O385 1.214 . S
O388 Cd380 2.277 . S
O388 C383 1.209 . S
C389 O386 1.258 . S
C389 O391 1.282 . S
O390 Cd382 2.277 . S
O390 C383 1.226 . S
O391 Cd382 2.356 . S
O391 C389 1.282 . S
C392 O393 1.306 . S
C392 O395 1.160 . S
O393 C392 1.306 . S
O393 Cd394 2.228 . S
Cd394 O393 2.228 . S
Cd394 O398 2.273 . S
Cd394 O402 2.277 . S
O395 C392 1.160 . S
O395 Cd396 2.203 . S
Cd396 O395 2.203 . S
Cd396 O398 2.411 . S
Cd396 O399 2.333 . S
Cd396 O400 2.352 . S
Cd396 O404 2.277 . S
Cd396 O405 2.356 . S
C397 O402 1.209 . S
C397 O404 1.226 . S
O398 Cd394 2.273 . S
O398 Cd396 2.411 . S
O398 C401 1.320 . S
O399 Cd396 2.333 . S
O399 C401 1.214 . S
O400 Cd396 2.352 . S
O400 C403 1.258 . S
C401 O398 1.320 . S
C401 O399 1.214 . S
O402 Cd394 2.277 . S
O402 C397 1.209 . S
C403 O400 1.258 . S
C403 O405 1.282 . S
O404 Cd396 2.277 . S
O404 C397 1.226 . S
O405 Cd396 2.356 . S
O405 C403 1.282 . S
C406 O407 1.306 . S
C406 O409 1.160 . S
O407 C406 1.306 . S
O407 Cd408 2.228 . S
Cd408 O407 2.228 . S
Cd408 O412 2.273 . S
Cd408 O416 2.277 . S
O409 C406 1.160 . S
O409 Cd410 2.203 . S
Cd410 O409 2.203 . S
Cd410 O412 2.411 . S
Cd410 O413 2.333 . S
Cd410 O414 2.352 . S
Cd410 O418 2.277 . S
Cd410 O419 2.356 . S
C411 O416 1.209 . S
C411 O418 1.226 . S
O412 Cd408 2.273 . S
O412 Cd410 2.411 . S
O412 C415 1.320 . S
O413 Cd410 2.333 . S
O413 C415 1.214 . S
O414 Cd410 2.352 . S
O414 C417 1.258 . S
C415 O412 1.320 . S
C415 O413 1.214 . S
O416 Cd408 2.277 . S
O416 C411 1.209 . S
C417 O414 1.258 . S
C417 O419 1.282 . S
O418 Cd410 2.277 . S
O418 C411 1.226 . S
O419 Cd410 2.356 . S
O419 C417 1.282 . S
C420 O421 1.306 . S
C420 O423 1.160 . S
O421 C420 1.306 . S
O421 Cd422 2.228 . S
Cd422 O421 2.228 . S
Cd422 O426 2.273 . S
Cd422 O430 2.277 . S
O423 C420 1.160 . S
O423 Cd424 2.203 . S
Cd424 O423 2.203 . S
Cd424 O426 2.411 . S
Cd424 O427 2.333 . S
Cd424 O428 2.352 . S
Cd424 O432 2.277 . S
Cd424 O433 2.356 . S
C425 O430 1.209 . S
C425 O432 1.226 . S
O426 Cd422 2.273 . S
O426 Cd424 2.411 . S
O426 C429 1.320 . S
O427 Cd424 2.333 . S
O427 C429 1.214 . S
O428 Cd424 2.352 . S
O428 C431 1.258 . S
C429 O426 1.320 . S
C429 O427 1.214 . S
O430 Cd422 2.277 . S
O430 C425 1.209 . S
C431 O428 1.258 . S
C431 O433 1.282 . S
O432 Cd424 2.277 . S
O432 C425 1.226 . S
O433 Cd424 2.356 . S
O433 C431 1.282 . S
C434 O435 1.306 . S
C434 O437 1.160 . S
O435 C434 1.306 . S
O435 Cd436 2.228 . S
Cd436 O435 2.228 . S
Cd436 O440 2.273 . S
Cd436 O444 2.277 . S
O437 C434 1.160 . S
O437 Cd438 2.203 . S
Cd438 O437 2.203 . S
Cd438 O440 2.411 . S
Cd438 O441 2.333 . S
Cd438 O442 2.352 . S
Cd438 O446 2.277 . S
Cd438 O447 2.356 . S
C439 O444 1.209 . S
C439 O446 1.226 . S
O440 Cd436 2.273 . S
O440 Cd438 2.411 . S
O440 C443 1.320 . S
O441 Cd438 2.333 . S
O441 C443 1.214 . S
O442 Cd438 2.352 . S
O442 C445 1.258 . S
C443 O440 1.320 . S
C443 O441 1.214 . S
O444 Cd436 2.277 . S
O444 C439 1.209 . S
C445 O442 1.258 . S
C445 O447 1.282 . S
O446 Cd438 2.277 . S
O446 C439 1.226 . S
O447 Cd438 2.356 . S
O447 C445 1.282 . S
H448 C456 0.929 . S
H449 C458 0.930 . S
H450 C460 0.930 . S
H451 C463 0.929 . S
H452 C466 0.930 . S
H453 C468 0.960 . S
H454 C468 0.960 . S
H455 C468 0.960 . S
C456 H448 0.929 . S
C456 C457 1.377 . S
C456 C458 1.384 . S
C457 C456 1.377 . S
C457 C463 1.390 . S
C458 H449 0.930 . S
C458 C456 1.384 . S
C458 C459 1.372 . S
C459 C458 1.372 . S
C459 C460 1.400 . S
C459 C464 1.490 . S
C460 H450 0.930 . S
C460 C459 1.400 . S
C460 C463 1.386 . S
H461 C477 0.930 . S
H462 C478 0.931 . S
C463 H451 0.929 . S
C463 C457 1.390 . S
C463 C460 1.386 . S
C464 C459 1.490 . S
C464 C466 1.395 . S
C464 C467 1.403 . S
H465 C471 0.930 . S
C466 H452 0.930 . S
C466 C464 1.395 . S
C466 C469 1.403 . S
C467 C464 1.403 . S
C467 C468 1.524 . S
C467 C471 1.400 . S
C468 H453 0.960 . S
C468 H454 0.960 . S
C468 H455 0.960 . S
C468 C467 1.524 . S
C469 C466 1.403 . S
C469 C470 1.392 . S
C469 C473 1.495 . S
C470 C469 1.392 . S
C470 C471 1.385 . S
C470 C472 1.478 . S
C471 H465 0.930 . S
C471 C467 1.400 . S
C471 C470 1.385 . S
C472 C470 1.478 . S
C472 C474 1.381 . S
C472 C478 1.383 . S
C473 C469 1.495 . S
C473 H479 0.959 . S
C473 H480 0.961 . S
C473 H481 0.960 . S
C474 C472 1.381 . S
C474 C475 1.394 . S
C474 H482 0.930 . S
C475 C474 1.394 . S
C475 C476 1.383 . S
C475 H483 0.929 . S
C476 C475 1.383 . S
C476 C477 1.377 . S
C477 H461 0.930 . S
C477 C476 1.377 . S
C477 C478 1.379 . S
C478 H462 0.931 . S
C478 C472 1.383 . S
C478 C477 1.379 . S
H479 C473 0.959 . S
H480 C473 0.961 . S
H481 C473 0.960 . S
H482 C474 0.930 . S
H483 C475 0.929 . S
H484 C492 0.929 . S
H485 C494 0.930 . S
H486 C496 0.930 . S
H487 C499 0.929 . S
H488 C502 0.930 . S
H489 C504 0.960 . S
H490 C504 0.960 . S
H491 C504 0.960 . S
C492 H484 0.929 . S
C492 C493 1.377 . S
C492 C494 1.384 . S
C493 C492 1.377 . S
C493 C499 1.390 . S
C494 H485 0.930 . S
C494 C492 1.384 . S
C494 C495 1.372 . S
C495 C494 1.372 . S
C495 C496 1.400 . S
C495 C500 1.490 . S
C496 H486 0.930 . S
C496 C495 1.400 . S
C496 C499 1.386 . S
H497 C513 0.930 . S
H498 C514 0.931 . S
C499 H487 0.929 . S
C499 C493 1.390 . S
C499 C496 1.386 . S
C500 C495 1.490 . S
C500 C502 1.395 . S
C500 C503 1.403 . S
H501 C507 0.930 . S
C502 H488 0.930 . S
C502 C500 1.395 . S
C502 C505 1.403 . S
C503 C500 1.403 . S
C503 C504 1.524 . S
C503 C507 1.400 . S
C504 H489 0.960 . S
C504 H490 0.960 . S
C504 H491 0.960 . S
C504 C503 1.524 . S
C505 C502 1.403 . S
C505 C506 1.392 . S
C505 C509 1.495 . S
C506 C505 1.392 . S
C506 C507 1.385 . S
C506 C508 1.478 . S
C507 H501 0.930 . S
C507 C503 1.400 . S
C507 C506 1.385 . S
C508 C506 1.478 . S
C508 C510 1.381 . S
C508 C514 1.383 . S
C509 C505 1.495 . S
C509 H515 0.959 . S
C509 H516 0.961 . S
C509 H517 0.960 . S
C510 C508 1.381 . S
C510 C511 1.394 . S
C510 H518 0.930 . S
C511 C510 1.394 . S
C511 C512 1.383 . S
C511 H519 0.929 . S
C512 C511 1.383 . S
C512 C513 1.377 . S
C513 H497 0.930 . S
C513 C512 1.377 . S
C513 C514 1.379 . S
C514 H498 0.931 . S
C514 C508 1.383 . S
C514 C513 1.379 . S
H515 C509 0.959 . S
H516 C509 0.961 . S
H517 C509 0.960 . S
H518 C510 0.930 . S
H519 C511 0.929 . S
H520 C528 0.929 . S
H521 C530 0.930 . S
H522 C532 0.930 . S
H523 C535 0.929 . S
H524 C538 0.930 . S
H525 C540 0.960 . S
H526 C540 0.960 . S
H527 C540 0.960 . S
C528 H520 0.929 . S
C528 C529 1.377 . S
C528 C530 1.384 . S
C529 C528 1.377 . S
C529 C535 1.390 . S
C530 H521 0.930 . S
C530 C528 1.384 . S
C530 C531 1.372 . S
C531 C530 1.372 . S
C531 C532 1.400 . S
C531 C536 1.490 . S
C532 H522 0.930 . S
C532 C531 1.400 . S
C532 C535 1.386 . S
H533 C549 0.930 . S
H534 C550 0.931 . S
C535 H523 0.929 . S
C535 C529 1.390 . S
C535 C532 1.386 . S
C536 C531 1.490 . S
C536 C538 1.395 . S
C536 C539 1.403 . S
H537 C543 0.930 . S
C538 H524 0.930 . S
C538 C536 1.395 . S
C538 C541 1.403 . S
C539 C536 1.403 . S
C539 C540 1.524 . S
C539 C543 1.400 . S
C540 H525 0.960 . S
C540 H526 0.960 . S
C540 H527 0.960 . S
C540 C539 1.524 . S
C541 C538 1.403 . S
C541 C542 1.392 . S
C541 C545 1.495 . S
C542 C541 1.392 . S
C542 C543 1.385 . S
C542 C544 1.478 . S
C543 H537 0.930 . S
C543 C539 1.400 . S
C543 C542 1.385 . S
C544 C542 1.478 . S
C544 C546 1.381 . S
C544 C550 1.383 . S
C545 C541 1.495 . S
C545 H551 0.959 . S
C545 H552 0.961 . S
C545 H553 0.960 . S
C546 C544 1.381 . S
C546 C547 1.394 . S
C546 H554 0.930 . S
C547 C546 1.394 . S
C547 C548 1.383 . S
C547 H555 0.929 . S
C548 C547 1.383 . S
C548 C549 1.377 . S
C549 H533 0.930 . S
C549 C548 1.377 . S
C549 C550 1.379 . S
C550 H534 0.931 . S
C550 C544 1.383 . S
C550 C549 1.379 . S
H551 C545 0.959 . S
H552 C545 0.961 . S
H553 C545 0.960 . S
H554 C546 0.930 . S
H555 C547 0.929 . S
H556 C564 0.929 . S
H557 C566 0.930 . S
H558 C568 0.930 . S
H559 C571 0.929 . S
H560 C574 0.930 . S
H561 C576 0.960 . S
H562 C576 0.960 . S
H563 C576 0.960 . S
C564 H556 0.929 . S
C564 C565 1.377 . S
C564 C566 1.384 . S
C565 C564 1.377 . S
C565 C571 1.390 . S
C566 H557 0.930 . S
C566 C564 1.384 . S
C566 C567 1.372 . S
C567 C566 1.372 . S
C567 C568 1.400 . S
C567 C572 1.490 . S
C568 H558 0.930 . S
C568 C567 1.400 . S
C568 C571 1.386 . S
H569 C585 0.930 . S
H570 C586 0.931 . S
C571 H559 0.929 . S
C571 C565 1.390 . S
C571 C568 1.386 . S
C572 C567 1.490 . S
C572 C574 1.395 . S
C572 C575 1.403 . S
H573 C579 0.930 . S
C574 H560 0.930 . S
C574 C572 1.395 . S
C574 C577 1.403 . S
C575 C572 1.403 . S
C575 C576 1.524 . S
C575 C579 1.400 . S
C576 H561 0.960 . S
C576 H562 0.960 . S
C576 H563 0.960 . S
C576 C575 1.524 . S
C577 C574 1.403 . S
C577 C578 1.392 . S
C577 C581 1.495 . S
C578 C577 1.392 . S
C578 C579 1.385 . S
C578 C580 1.478 . S
C579 H573 0.930 . S
C579 C575 1.400 . S
C579 C578 1.385 . S
C580 C578 1.478 . S
C580 C582 1.381 . S
C580 C586 1.383 . S
C581 C577 1.495 . S
C581 H587 0.959 . S
C581 H588 0.961 . S
C581 H589 0.960 . S
C582 C580 1.381 . S
C582 C583 1.394 . S
C582 H590 0.930 . S
C583 C582 1.394 . S
C583 C584 1.383 . S
C583 H591 0.929 . S
C584 C583 1.383 . S
C584 C585 1.377 . S
C585 H569 0.930 . S
C585 C584 1.377 . S
C585 C586 1.379 . S
C586 H570 0.931 . S
C586 C580 1.383 . S
C586 C585 1.379 . S
H587 C581 0.959 . S
H588 C581 0.961 . S
H589 C581 0.960 . S
H590 C582 0.930 . S
H591 C583 0.929 . S
H592 C600 0.929 . S
H593 C602 0.930 . S
H594 C604 0.930 . S
H595 C607 0.929 . S
H596 C610 0.930 . S
H597 C612 0.960 . S
H598 C612 0.960 . S
H599 C612 0.960 . S
C600 H592 0.929 . S
C600 C601 1.377 . S
C600 C602 1.384 . S
C601 C600 1.377 . S
C601 C607 1.390 . S
C602 H593 0.930 . S
C602 C600 1.384 . S
C602 C603 1.372 . S
C603 C602 1.372 . S
C603 C604 1.400 . S
C603 C608 1.490 . S
C604 H594 0.930 . S
C604 C603 1.400 . S
C604 C607 1.386 . S
H605 C621 0.930 . S
H606 C622 0.931 . S
C607 H595 0.929 . S
C607 C601 1.390 . S
C607 C604 1.386 . S
C608 C603 1.490 . S
C608 C610 1.395 . S
C608 C611 1.403 . S
H609 C615 0.930 . S
C610 H596 0.930 . S
C610 C608 1.395 . S
C610 C613 1.403 . S
C611 C608 1.403 . S
C611 C612 1.524 . S
C611 C615 1.400 . S
C612 H597 0.960 . S
C612 H598 0.960 . S
C612 H599 0.960 . S
C612 C611 1.524 . S
C613 C610 1.403 . S
C613 C614 1.392 . S
C613 C617 1.495 . S
C614 C613 1.392 . S
C614 C615 1.385 . S
C614 C616 1.478 . S
C615 H609 0.930 . S
C615 C611 1.400 . S
C615 C614 1.385 . S
C616 C614 1.478 . S
C616 C618 1.381 . S
C616 C622 1.383 . S
C617 C613 1.495 . S
C617 H623 0.959 . S
C617 H624 0.961 . S
C617 H625 0.960 . S
C618 C616 1.381 . S
C618 C619 1.394 . S
C618 H626 0.930 . S
C619 C618 1.394 . S
C619 C620 1.383 . S
C619 H627 0.929 . S
C620 C619 1.383 . S
C620 C621 1.377 . S
C621 H605 0.930 . S
C621 C620 1.377 . S
C621 C622 1.379 . S
C622 H606 0.931 . S
C622 C616 1.383 . S
C622 C621 1.379 . S
H623 C617 0.959 . S
H624 C617 0.961 . S
H625 C617 0.960 . S
H626 C618 0.930 . S
H627 C619 0.929 . S
H628 C636 0.929 . S
H629 C638 0.930 . S
H630 C640 0.930 . S
H631 C643 0.929 . S
H632 C646 0.930 . S
H633 C648 0.960 . S
H634 C648 0.960 . S
H635 C648 0.960 . S
C636 H628 0.929 . S
C636 C637 1.377 . S
C636 C638 1.384 . S
C637 C636 1.377 . S
C637 C643 1.390 . S
C638 H629 0.930 . S
C638 C636 1.384 . S
C638 C639 1.372 . S
C639 C638 1.372 . S
C639 C640 1.400 . S
C639 C644 1.490 . S
C640 H630 0.930 . S
C640 C639 1.400 . S
C640 C643 1.386 . S
H641 C657 0.930 . S
H642 C658 0.931 . S
C643 H631 0.929 . S
C643 C637 1.390 . S
C643 C640 1.386 . S
C644 C639 1.490 . S
C644 C646 1.395 . S
C644 C647 1.403 . S
H645 C651 0.930 . S
C646 H632 0.930 . S
C646 C644 1.395 . S
C646 C649 1.403 . S
C647 C644 1.403 . S
C647 C648 1.524 . S
C647 C651 1.400 . S
C648 H633 0.960 . S
C648 H634 0.960 . S
C648 H635 0.960 . S
C648 C647 1.524 . S
C649 C646 1.403 . S
C649 C650 1.392 . S
C649 C653 1.495 . S
C650 C649 1.392 . S
C650 C651 1.385 . S
C650 C652 1.478 . S
C651 H645 0.930 . S
C651 C647 1.400 . S
C651 C650 1.385 . S
C652 C650 1.478 . S
C652 C654 1.381 . S
C652 C658 1.383 . S
C653 C649 1.495 . S
C653 H659 0.959 . S
C653 H660 0.961 . S
C653 H661 0.960 . S
C654 C652 1.381 . S
C654 C655 1.394 . S
C654 H662 0.930 . S
C655 C654 1.394 . S
C655 C656 1.383 . S
C655 H663 0.929 . S
C656 C655 1.383 . S
C656 C657 1.377 . S
C657 H641 0.930 . S
C657 C656 1.377 . S
C657 C658 1.379 . S
C658 H642 0.931 . S
C658 C652 1.383 . S
C658 C657 1.379 . S
H659 C653 0.959 . S
H660 C653 0.961 . S
H661 C653 0.960 . S
H662 C654 0.930 . S
H663 C655 0.929 . S
H664 C672 0.929 . S
H665 C674 0.930 . S
H666 C676 0.930 . S
H667 C679 0.929 . S
H668 C682 0.930 . S
H669 C684 0.960 . S
H670 C684 0.960 . S
H671 C684 0.960 . S
C672 H664 0.929 . S
C672 C673 1.377 . S
C672 C674 1.384 . S
C673 C672 1.377 . S
C673 C679 1.390 . S
C674 H665 0.930 . S
C674 C672 1.384 . S
C674 C675 1.372 . S
C675 C674 1.372 . S
C675 C676 1.400 . S
C675 C680 1.490 . S
C676 H666 0.930 . S
C676 C675 1.400 . S
C676 C679 1.386 . S
H677 C693 0.930 . S
H678 C694 0.931 . S
C679 H667 0.929 . S
C679 C673 1.390 . S
C679 C676 1.386 . S
C680 C675 1.490 . S
C680 C682 1.395 . S
C680 C683 1.403 . S
H681 C687 0.930 . S
C682 H668 0.930 . S
C682 C680 1.395 . S
C682 C685 1.403 . S
C683 C680 1.403 . S
C683 C684 1.524 . S
C683 C687 1.400 . S
C684 H669 0.960 . S
C684 H670 0.960 . S
C684 H671 0.960 . S
C684 C683 1.524 . S
C685 C682 1.403 . S
C685 C686 1.392 . S
C685 C689 1.495 . S
C686 C685 1.392 . S
C686 C687 1.385 . S
C686 C688 1.478 . S
C687 H681 0.930 . S
C687 C683 1.400 . S
C687 C686 1.385 . S
C688 C686 1.478 . S
C688 C690 1.381 . S
C688 C694 1.383 . S
C689 C685 1.495 . S
C689 H695 0.959 . S
C689 H696 0.961 . S
C689 H697 0.960 . S
C690 C688 1.381 . S
C690 C691 1.394 . S
C690 H698 0.930 . S
C691 C690 1.394 . S
C691 C692 1.383 . S
C691 H699 0.929 . S
C692 C691 1.383 . S
C692 C693 1.377 . S
C693 H677 0.930 . S
C693 C692 1.377 . S
C693 C694 1.379 . S
C694 H678 0.931 . S
C694 C688 1.383 . S
C694 C693 1.379 . S
H695 C689 0.959 . S
H696 C689 0.961 . S
H697 C689 0.960 . S
H698 C690 0.930 . S
H699 C691 0.929 . S
H700 C708 0.929 . S
H701 C710 0.930 . S
H702 C712 0.930 . S
H703 C715 0.929 1_455 S
H704 C718 0.930 . S
H705 C720 0.960 . S
H706 C720 0.960 . S
H707 C720 0.960 . S
C708 H700 0.929 . S
C708 C709 1.377 . S
C708 C710 1.384 . S
C709 C708 1.377 . S
C709 C715 1.390 . S
C710 H701 0.930 . S
C710 C708 1.384 . S
C710 C711 1.372 . S
C711 C710 1.372 . S
C711 C712 1.400 . S
C711 C716 1.490 . S
C712 H702 0.930 . S
C712 C711 1.400 . S
C712 C715 1.386 . S
H713 C729 0.930 . S
H714 C730 0.931 . S
C715 H703 0.929 1_655 S
C715 C709 1.390 . S
C715 C712 1.386 . S
C716 C711 1.490 . S
C716 C718 1.395 . S
C716 C719 1.403 . S
H717 C723 0.930 . S
C718 H704 0.930 . S
C718 C716 1.395 . S
C718 C721 1.403 . S
C719 C716 1.403 . S
C719 C720 1.524 . S
C719 C723 1.400 . S
C720 H705 0.960 . S
C720 H706 0.960 . S
C720 H707 0.960 . S
C720 C719 1.524 . S
C721 C718 1.403 . S
C721 C722 1.392 . S
C721 C725 1.495 . S
C722 C721 1.392 . S
C722 C723 1.385 . S
C722 C724 1.478 . S
C723 H717 0.930 . S
C723 C719 1.400 . S
C723 C722 1.385 . S
C724 C722 1.478 . S
C724 C726 1.381 . S
C724 C730 1.383 . S
C725 C721 1.495 . S
C725 H731 0.959 . S
C725 H732 0.961 . S
C725 H733 0.960 . S
C726 C724 1.381 . S
C726 C727 1.394 . S
C726 H734 0.930 . S
C727 C726 1.394 . S
C727 C728 1.383 . S
C727 H735 0.929 . S
C728 C727 1.383 . S
C728 C729 1.377 . S
C729 H713 0.930 . S
C729 C728 1.377 . S
C729 C730 1.379 . S
C730 H714 0.931 . S
C730 C724 1.383 . S
C730 C729 1.379 . S
H731 C725 0.959 . S
H732 C725 0.961 . S
H733 C725 0.960 . S
H734 C726 0.930 . S
H735 C727 0.929 . S
H736 C744 0.929 . S
H737 C746 0.930 . S
H738 C748 0.930 . S
H739 C751 0.929 . S
H740 C754 0.930 . S
H741 C756 0.960 . S
H742 C756 0.960 . S
H743 C756 0.960 . S
C744 H736 0.929 . S
C744 C745 1.377 . S
C744 C746 1.384 . S
C745 C744 1.377 . S
C745 C751 1.390 . S
C746 H737 0.930 . S
C746 C744 1.384 . S
C746 C747 1.372 . S
C747 C746 1.372 . S
C747 C748 1.400 . S
C747 C752 1.490 . S
C748 H738 0.930 . S
C748 C747 1.400 . S
C748 C751 1.386 . S
H749 C765 0.930 . S
H750 C766 0.931 . S
C751 H739 0.929 . S
C751 C745 1.390 . S
C751 C748 1.386 . S
C752 C747 1.490 . S
C752 C754 1.395 . S
C752 C755 1.403 . S
H753 C759 0.930 . S
C754 H740 0.930 . S
C754 C752 1.395 . S
C754 C757 1.403 . S
C755 C752 1.403 . S
C755 C756 1.524 . S
C755 C759 1.400 . S
C756 H741 0.960 . S
C756 H742 0.960 . S
C756 H743 0.960 . S
C756 C755 1.524 . S
C757 C754 1.403 . S
C757 C758 1.392 . S
C757 C761 1.495 . S
C758 C757 1.392 . S
C758 C759 1.385 . S
C758 C760 1.478 . S
C759 H753 0.930 . S
C759 C755 1.400 . S
C759 C758 1.385 . S
C760 C758 1.478 . S
C760 C762 1.381 . S
C760 C766 1.383 . S
C761 C757 1.495 . S
C761 H767 0.959 . S
C761 H768 0.961 . S
C761 H769 0.960 . S
C762 C760 1.381 . S
C762 C763 1.394 . S
C762 H770 0.930 . S
C763 C762 1.394 . S
C763 C764 1.383 . S
C763 H771 0.929 . S
C764 C763 1.383 . S
C764 C765 1.377 . S
C765 H749 0.930 . S
C765 C764 1.377 . S
C765 C766 1.379 . S
C766 H750 0.931 . S
C766 C760 1.383 . S
C766 C765 1.379 . S
H767 C761 0.959 . S
H768 C761 0.961 . S
H769 C761 0.960 . S
H770 C762 0.930 . S
H771 C763 0.929 . S
H772 C780 0.929 . S
H773 C782 0.930 . S
H774 C784 0.930 . S
H775 C787 0.929 . S
H776 C790 0.930 . S
H777 C792 0.960 . S
H778 C792 0.960 . S
H779 C792 0.960 . S
C780 H772 0.929 . S
C780 C781 1.377 . S
C780 C782 1.384 . S
C781 C780 1.377 . S
C781 C787 1.390 . S
C782 H773 0.930 . S
C782 C780 1.384 . S
C782 C783 1.372 . S
C783 C782 1.372 . S
C783 C784 1.400 . S
C783 C788 1.490 . S
C784 H774 0.930 . S
C784 C783 1.400 . S
C784 C787 1.386 . S
H785 C801 0.942 . S
H786 C802 0.931 . S
C787 H775 0.929 . S
C787 C781 1.390 . S
C787 C784 1.386 . S
C788 C783 1.490 . S
C788 C790 1.395 . S
C788 C791 1.403 . S
H789 C795 0.930 . S
C790 H776 0.930 . S
C790 C788 1.395 . S
C790 C793 1.403 . S
C791 C788 1.403 . S
C791 C792 1.524 . S
C791 C795 1.400 . S
C792 H777 0.960 . S
C792 H778 0.960 . S
C792 H779 0.960 . S
C792 C791 1.524 . S
C793 C790 1.403 . S
C793 C794 1.392 . S
C793 C797 1.495 . S
C794 C793 1.392 . S
C794 C795 1.385 . S
C794 C796 1.478 . S
C795 H789 0.930 . S
C795 C791 1.400 . S
C795 C794 1.385 . S
C796 C794 1.478 . S
C796 C798 1.381 . S
C796 C802 1.383 . S
C797 C793 1.495 . S
C797 H803 0.959 . S
C797 H804 0.961 . S
C797 H805 0.960 . S
C798 C796 1.381 . S
C798 C799 1.394 . S
C798 H806 0.930 . S
C799 C798 1.394 . S
C799 C800 1.431 . S
C799 H807 0.929 . S
C800 C799 1.431 . S
C800 C801 1.375 1_455 S
C801 H785 0.942 . S
C801 C800 1.375 1_655 S
C801 C802 1.368 1_655 S
C802 H786 0.931 . S
C802 C796 1.383 . S
C802 C801 1.368 1_455 S
H803 C797 0.959 . S
H804 C797 0.961 . S
H805 C797 0.960 . S
H806 C798 0.930 . S
H807 C799 0.929 . S
H808 C816 0.929 . S
H809 C818 0.930 . S
H810 C820 0.930 . S
H811 C823 0.929 . S
H812 C826 0.930 . S
H813 C828 0.960 . S
H814 C828 0.960 . S
H815 C828 0.960 . S
C816 H808 0.929 . S
C816 C817 1.377 . S
C816 C818 1.384 . S
C817 C816 1.377 . S
C817 C823 1.390 . S
C818 H809 0.930 . S
C818 C816 1.384 . S
C818 C819 1.372 . S
C819 C818 1.372 . S
C819 C820 1.400 . S
C819 C824 1.490 . S
C820 H810 0.930 . S
C820 C819 1.400 . S
C820 C823 1.386 . S
H821 C837 0.930 . S
H822 C838 0.931 . S
C823 H811 0.929 . S
C823 C817 1.390 . S
C823 C820 1.386 . S
C824 C819 1.490 . S
C824 C826 1.395 . S
C824 C827 1.403 . S
H825 C831 0.930 . S
C826 H812 0.930 . S
C826 C824 1.395 . S
C826 C829 1.403 . S
C827 C824 1.403 . S
C827 C828 1.524 . S
C827 C831 1.400 . S
C828 H813 0.960 . S
C828 H814 0.960 . S
C828 H815 0.960 . S
C828 C827 1.524 . S
C829 C826 1.403 . S
C829 C830 1.392 . S
C829 C833 1.495 . S
C830 C829 1.392 . S
C830 C831 1.385 . S
C830 C832 1.478 . S
C831 H825 0.930 . S
C831 C827 1.400 . S
C831 C830 1.385 . S
C832 C830 1.478 . S
C832 C834 1.381 . S
C832 C838 1.383 . S
C833 C829 1.495 . S
C833 H839 0.959 . S
C833 H840 0.961 . S
C833 H841 0.960 . S
C834 C832 1.381 . S
C834 C835 1.394 . S
C834 H842 0.930 . S
C835 C834 1.394 . S
C835 C836 1.383 . S
C835 H843 0.929 . S
C836 C835 1.383 . S
C836 C837 1.377 . S
C837 H821 0.930 . S
C837 C836 1.377 . S
C837 C838 1.379 . S
C838 H822 0.931 . S
C838 C832 1.383 . S
C838 C837 1.379 . S
H839 C833 0.959 . S
H840 C833 0.961 . S
H841 C833 0.960 . S
H842 C834 0.930 . S
H843 C835 0.929 . S
H844 C852 0.929 . S
H845 C854 0.930 . S
H846 C856 0.930 . S
H847 C859 0.929 . S
H848 C862 0.930 . S
H849 C864 0.960 . S
H850 C864 0.960 . S
H851 C864 0.960 . S
C852 H844 0.929 . S
C852 C853 1.377 . S
C852 C854 1.384 . S
C853 C852 1.377 . S
C853 C859 1.390 . S
C854 H845 0.930 . S
C854 C852 1.384 . S
C854 C855 1.372 . S
C855 C854 1.372 . S
C855 C856 1.400 . S
C855 C860 1.490 . S
C856 H846 0.930 . S
C856 C855 1.400 . S
C856 C859 1.386 . S
H857 C873 0.930 . S
H858 C874 0.931 . S
C859 H847 0.929 . S
C859 C853 1.390 . S
C859 C856 1.386 . S
C860 C855 1.490 . S
C860 C862 1.395 . S
C860 C863 1.403 . S
H861 C867 0.930 . S
C862 H848 0.930 . S
C862 C860 1.395 . S
C862 C865 1.403 . S
C863 C860 1.403 . S
C863 C864 1.524 . S
C863 C867 1.400 . S
C864 H849 0.960 . S
C864 H850 0.960 . S
C864 H851 0.960 . S
C864 C863 1.524 . S
C865 C862 1.403 . S
C865 C866 1.392 . S
C865 C869 1.495 . S
C866 C865 1.392 . S
C866 C867 1.385 . S
C866 C868 1.478 . S
C867 H861 0.930 . S
C867 C863 1.400 . S
C867 C866 1.385 . S
C868 C866 1.478 . S
C868 C870 1.381 . S
C868 C874 1.383 . S
C869 C865 1.495 . S
C869 H875 0.959 . S
C869 H876 0.961 . S
C869 H877 0.960 . S
C870 C868 1.381 . S
C870 C871 1.394 . S
C870 H878 0.930 . S
C871 C870 1.394 . S
C871 C872 1.383 . S
C871 H879 0.929 . S
C872 C871 1.383 . S
C872 C873 1.377 . S
C873 H857 0.930 . S
C873 C872 1.377 . S
C873 C874 1.379 . S
C874 H858 0.931 . S
C874 C868 1.383 . S
C874 C873 1.379 . S
H875 C869 0.959 . S
H876 C869 0.961 . S
H877 C869 0.960 . S
H878 C870 0.930 . S
H879 C871 0.929 . S
H880 C888 0.929 . S
H881 C890 0.930 . S
H882 C892 0.930 . S
H883 C895 0.929 . S
H884 C898 0.930 . S
H885 C900 0.960 . S
H886 C900 0.960 . S
H887 C900 0.960 . S
C888 H880 0.929 . S
C888 C889 1.377 . S
C888 C890 1.384 . S
C889 C888 1.377 . S
C889 C895 1.390 . S
C890 H881 0.930 . S
C890 C888 1.384 . S
C890 C891 1.372 . S
C891 C890 1.372 . S
C891 C892 1.400 . S
C891 C896 1.490 . S
C892 H882 0.930 . S
C892 C891 1.400 . S
C892 C895 1.386 . S
H893 C909 0.930 . S
H894 C910 0.931 . S
C895 H883 0.929 . S
C895 C889 1.390 . S
C895 C892 1.386 . S
C896 C891 1.490 . S
C896 C898 1.395 . S
C896 C899 1.403 . S
H897 C903 0.930 . S
C898 H884 0.930 . S
C898 C896 1.395 . S
C898 C901 1.403 . S
C899 C896 1.403 . S
C899 C900 1.524 . S
C899 C903 1.400 . S
C900 H885 0.960 . S
C900 H886 0.960 . S
C900 H887 0.960 . S
C900 C899 1.524 . S
C901 C898 1.403 . S
C901 C902 1.392 . S
C901 C905 1.495 . S
C902 C901 1.392 . S
C902 C903 1.385 . S
C902 C904 1.478 . S
C903 H897 0.930 . S
C903 C899 1.400 . S
C903 C902 1.385 . S
C904 C902 1.478 . S
C904 C906 1.381 . S
C904 C910 1.383 . S
C905 C901 1.495 . S
C905 H911 0.959 . S
C905 H912 0.961 . S
C905 H913 0.960 . S
C906 C904 1.381 . S
C906 C907 1.394 . S
C906 H914 0.930 . S
C907 C906 1.394 . S
C907 C908 1.383 . S
C907 H915 0.929 . S
C908 C907 1.383 . S
C908 C909 1.377 . S
C909 H893 0.930 . S
C909 C908 1.377 . S
C909 C910 1.379 . S
C910 H894 0.931 . S
C910 C904 1.383 . S
C910 C909 1.379 . S
H911 C905 0.959 . S
H912 C905 0.961 . S
H913 C905 0.960 . S
H914 C906 0.930 . S
H915 C907 0.929 . S
H916 C924 0.929 . S
H917 C926 0.930 . S
H918 C928 0.930 . S
H919 C931 0.929 . S
H920 C934 0.930 . S
H921 C936 0.960 . S
H922 C936 0.960 . S
H923 C936 0.960 . S
C924 H916 0.929 . S
C924 C925 1.377 . S
C924 C926 1.384 . S
C925 C924 1.377 . S
C925 C931 1.390 . S
C926 H917 0.930 . S
C926 C924 1.384 . S
C926 C927 1.372 . S
C927 C926 1.372 . S
C927 C928 1.400 . S
C927 C932 1.490 . S
C928 H918 0.930 . S
C928 C927 1.400 . S
C928 C931 1.386 . S
H929 C945 0.930 . S
H930 C946 0.931 . S
C931 H919 0.929 . S
C931 C925 1.390 . S
C931 C928 1.386 . S
C932 C927 1.490 . S
C932 C934 1.395 . S
C932 C935 1.403 . S
H933 C939 0.930 . S
C934 H920 0.930 . S
C934 C932 1.395 . S
C934 C937 1.403 . S
C935 C932 1.403 . S
C935 C936 1.524 . S
C935 C939 1.400 . S
C936 H921 0.960 . S
C936 H922 0.960 . S
C936 H923 0.960 . S
C936 C935 1.524 . S
C937 C934 1.403 . S
C937 C938 1.392 . S
C937 C941 1.495 . S
C938 C937 1.392 . S
C938 C939 1.385 . S
C938 C940 1.478 . S
C939 H933 0.930 . S
C939 C935 1.400 . S
C939 C938 1.385 . S
C940 C938 1.478 . S
C940 C942 1.381 . S
C940 C946 1.383 . S
C941 C937 1.495 . S
C941 H947 0.959 . S
C941 H948 0.961 . S
C941 H949 0.960 . S
C942 C940 1.381 . S
C942 C943 1.394 . S
C942 H950 0.930 . S
C943 C942 1.394 . S
C943 C944 1.383 . S
C943 H951 0.929 . S
C944 C943 1.383 . S
C944 C945 1.377 . S
C945 H929 0.930 . S
C945 C944 1.377 . S
C945 C946 1.379 . S
C946 H930 0.931 . S
C946 C940 1.383 . S
C946 C945 1.379 . S
H947 C941 0.959 . S
H948 C941 0.961 . S
H949 C941 0.960 . S
H950 C942 0.930 . S
H951 C943 0.929 . S
H952 C960 0.929 . S
H953 C962 0.930 . S
H954 C964 0.930 . S
H955 C967 0.929 . S
H956 C970 0.930 . S
H957 C972 0.960 . S
H958 C972 0.960 . S
H959 C972 0.960 . S
C960 H952 0.929 . S
C960 C961 1.377 . S
C960 C962 1.384 . S
C961 C960 1.377 . S
C961 C967 1.390 . S
C962 H953 0.930 . S
C962 C960 1.384 . S
C962 C963 1.372 . S
C963 C962 1.372 . S
C963 C964 1.400 . S
C963 C968 1.490 . S
C964 H954 0.930 . S
C964 C963 1.400 . S
C964 C967 1.386 . S
H965 C981 0.930 . S
H966 C982 0.931 . S
C967 H955 0.929 . S
C967 C961 1.390 . S
C967 C964 1.386 . S
C968 C963 1.490 . S
C968 C970 1.395 . S
C968 C971 1.403 . S
H969 C975 0.930 . S
C970 H956 0.930 . S
C970 C968 1.395 . S
C970 C973 1.403 . S
C971 C968 1.403 . S
C971 C972 1.524 . S
C971 C975 1.400 . S
C972 H957 0.960 . S
C972 H958 0.960 . S
C972 H959 0.960 . S
C972 C971 1.524 . S
C973 C970 1.403 . S
C973 C974 1.392 . S
C973 C977 1.495 . S
C974 C973 1.392 . S
C974 C975 1.385 . S
C974 C976 1.478 . S
C975 H969 0.930 . S
C975 C971 1.400 . S
C975 C974 1.385 . S
C976 C974 1.478 . S
C976 C978 1.381 . S
C976 C982 1.383 . S
C977 C973 1.495 . S
C977 H983 0.959 . S
C977 H984 0.961 . S
C977 H985 0.960 . S
C978 C976 1.381 . S
C978 C979 1.394 . S
C978 H986 0.930 . S
C979 C978 1.394 . S
C979 C980 1.383 . S
C979 H987 0.929 . S
C980 C979 1.383 . S
C980 C981 1.377 . S
C981 H965 0.930 . S
C981 C980 1.377 . S
C981 C982 1.379 . S
C982 H966 0.931 . S
C982 C976 1.383 . S
C982 C981 1.379 . S
H983 C977 0.959 . S
H984 C977 0.961 . S
H985 C977 0.960 . S
H986 C978 0.930 . S
H987 C979 0.929 . S
H988 C996 0.929 . S
H989 C998 0.930 . S
H990 C1000 0.930 . S
H991 C1003 0.929 . S
H992 C1006 0.930 . S
H993 C1008 0.960 . S
H994 C1008 0.960 . S
H995 C1008 0.960 . S
C996 H988 0.929 . S
C996 C997 1.377 . S
C996 C998 1.384 . S
C997 C996 1.377 . S
C997 C1003 1.390 . S
C998 H989 0.930 . S
C998 C996 1.384 . S
C998 C999 1.372 . S
C999 C998 1.372 . S
C999 C1000 1.400 . S
C999 C1004 1.490 . S
C1000 H990 0.930 . S
C1000 C999 1.400 . S
C1000 C1003 1.386 . S
H1001 C1017 0.930 . S
H1002 C1018 0.931 . S
C1003 H991 0.929 . S
C1003 C997 1.390 . S
C1003 C1000 1.386 . S
C1004 C999 1.490 . S
C1004 C1006 1.395 . S
C1004 C1007 1.403 . S
H1005 C1011 0.930 . S
C1006 H992 0.930 . S
C1006 C1004 1.395 . S
C1006 C1009 1.403 . S
C1007 C1004 1.403 . S
C1007 C1008 1.524 . S
C1007 C1011 1.400 . S
C1008 H993 0.960 . S
C1008 H994 0.960 . S
C1008 H995 0.960 . S
C1008 C1007 1.524 . S
C1009 C1006 1.403 . S
C1009 C1010 1.392 . S
C1009 C1013 1.495 . S
C1010 C1009 1.392 . S
C1010 C1011 1.385 . S
C1010 C1012 1.478 . S
C1011 H1005 0.930 . S
C1011 C1007 1.400 . S
C1011 C1010 1.385 . S
C1012 C1010 1.478 . S
C1012 C1014 1.381 . S
C1012 C1018 1.383 . S
C1013 C1009 1.495 . S
C1013 H1019 0.959 . S
C1013 H1020 0.961 . S
C1013 H1021 0.960 . S
C1014 C1012 1.381 . S
C1014 C1015 1.394 1_455 S
C1014 H1022 0.930 . S
C1015 C1014 1.394 1_655 S
C1015 C1016 1.384 . S
C1015 H1023 0.929 . S
C1016 C1015 1.384 . S
C1016 C1017 1.368 1_655 S
C1017 H1001 0.930 . S
C1017 C1016 1.368 1_455 S
C1017 C1018 1.379 . S
C1018 H1002 0.931 . S
C1018 C1012 1.383 . S
C1018 C1017 1.379 . S
H1019 C1013 0.959 . S
H1020 C1013 0.961 . S
H1021 C1013 0.960 . S
H1022 C1014 0.930 . S
H1023 C1015 0.929 . S
H1024 C1032 0.929 . S
H1025 C1034 0.930 . S
H1026 C1036 0.930 . S
H1027 C1039 0.929 . S
H1028 C1042 0.930 . S
H1029 C1044 0.960 . S
H1030 C1044 0.960 . S
H1031 C1044 0.960 . S
C1032 H1024 0.929 . S
C1032 C1033 1.377 . S
C1032 C1034 1.384 . S
C1033 C1032 1.377 . S
C1033 C1039 1.390 . S
C1034 H1025 0.930 . S
C1034 C1032 1.384 . S
C1034 C1035 1.372 . S
C1035 C1034 1.372 . S
C1035 C1036 1.400 . S
C1035 C1040 1.490 . S
C1036 H1026 0.930 . S
C1036 C1035 1.400 . S
C1036 C1039 1.386 . S
H1037 C1053 0.930 . S
H1038 C1054 0.931 . S
C1039 H1027 0.929 . S
C1039 C1033 1.390 . S
C1039 C1036 1.386 . S
C1040 C1035 1.490 . S
C1040 C1042 1.395 . S
C1040 C1043 1.403 . S
H1041 C1047 0.930 . S
C1042 H1028 0.930 . S
C1042 C1040 1.395 . S
C1042 C1045 1.403 . S
C1043 C1040 1.403 . S
C1043 C1044 1.524 . S
C1043 C1047 1.400 . S
C1044 H1029 0.960 . S
C1044 H1030 0.960 . S
C1044 H1031 0.960 . S
C1044 C1043 1.524 . S
C1045 C1042 1.403 . S
C1045 C1046 1.392 . S
C1045 C1049 1.495 . S
C1046 C1045 1.392 . S
C1046 C1047 1.385 . S
C1046 C1048 1.478 . S
C1047 H1041 0.930 . S
C1047 C1043 1.400 . S
C1047 C1046 1.385 . S
C1048 C1046 1.478 . S
C1048 C1050 1.381 . S
C1048 C1054 1.383 . S
C1049 C1045 1.495 . S
C1049 H1055 0.959 . S
C1049 H1056 0.961 . S
C1049 H1057 0.960 . S
C1050 C1048 1.381 . S
C1050 C1051 1.394 . S
C1050 H1058 0.930 . S
C1051 C1050 1.394 . S
C1051 C1052 1.383 . S
C1051 H1059 0.929 . S
C1052 C1051 1.383 . S
C1052 C1053 1.377 . S
C1053 H1037 0.930 . S
C1053 C1052 1.377 . S
C1053 C1054 1.379 . S
C1054 H1038 0.931 . S
C1054 C1048 1.383 . S
C1054 C1053 1.379 . S
H1055 C1049 0.959 . S
H1056 C1049 0.961 . S
H1057 C1049 0.960 . S
H1058 C1050 0.930 . S
H1059 C1051 0.929 . S
H1060 C1068 0.929 . S
H1061 C1070 0.930 . S
H1062 C1072 0.930 . S
H1063 C1075 0.929 . S
H1064 C1078 0.930 . S
H1065 C1080 0.960 . S
H1066 C1080 0.960 . S
H1067 C1080 0.960 . S
C1068 H1060 0.929 . S
C1068 C1069 1.377 . S
C1068 C1070 1.384 . S
C1069 C1068 1.377 . S
C1069 C1075 1.390 . S
C1070 H1061 0.930 . S
C1070 C1068 1.384 . S
C1070 C1071 1.372 . S
C1071 C1070 1.372 . S
C1071 C1072 1.400 . S
C1071 C1076 1.490 . S
C1072 H1062 0.930 . S
C1072 C1071 1.400 . S
C1072 C1075 1.386 . S
H1073 C1089 0.930 . S
H1074 C1090 0.931 . S
C1075 H1063 0.929 . S
C1075 C1069 1.390 . S
C1075 C1072 1.386 . S
C1076 C1071 1.490 . S
C1076 C1078 1.395 . S
C1076 C1079 1.403 . S
H1077 C1083 0.930 . S
C1078 H1064 0.930 . S
C1078 C1076 1.395 . S
C1078 C1081 1.403 . S
C1079 C1076 1.403 . S
C1079 C1080 1.524 . S
C1079 C1083 1.400 . S
C1080 H1065 0.960 . S
C1080 H1066 0.960 . S
C1080 H1067 0.960 . S
C1080 C1079 1.524 . S
C1081 C1078 1.403 . S
C1081 C1082 1.392 . S
C1081 C1085 1.495 . S
C1082 C1081 1.392 . S
C1082 C1083 1.385 . S
C1082 C1084 1.478 . S
C1083 H1077 0.930 . S
C1083 C1079 1.400 . S
C1083 C1082 1.385 . S
C1084 C1082 1.478 . S
C1084 C1086 1.381 . S
C1084 C1090 1.383 . S
C1085 C1081 1.495 . S
C1085 H1091 0.959 . S
C1085 H1092 0.961 . S
C1085 H1093 0.960 . S
C1086 C1084 1.381 . S
C1086 C1087 1.394 . S
C1086 H1094 0.930 . S
C1087 C1086 1.394 . S
C1087 C1088 1.383 . S
C1087 H1095 0.929 . S
C1088 C1087 1.383 . S
C1088 C1089 1.377 . S
C1089 H1073 0.930 . S
C1089 C1088 1.377 . S
C1089 C1090 1.379 . S
C1090 H1074 0.931 . S
C1090 C1084 1.383 . S
C1090 C1089 1.379 . S
H1091 C1085 0.959 . S
H1092 C1085 0.961 . S
H1093 C1085 0.960 . S
H1094 C1086 0.930 . S
H1095 C1087 0.929 . S
H1096 C1104 0.929 . S
H1097 C1106 0.930 . S
H1098 C1108 0.930 . S
H1099 C1111 0.929 . S
H1100 C1114 0.930 . S
H1101 C1116 0.960 . S
H1102 C1116 0.960 . S
H1103 C1116 0.960 . S
C1104 H1096 0.929 . S
C1104 C1105 1.377 . S
C1104 C1106 1.384 . S
C1105 C1104 1.377 . S
C1105 C1111 1.390 . S
C1106 H1097 0.930 . S
C1106 C1104 1.384 . S
C1106 C1107 1.372 . S
C1107 C1106 1.372 . S
C1107 C1108 1.400 . S
C1107 C1112 1.490 . S
C1108 H1098 0.930 . S
C1108 C1107 1.400 . S
C1108 C1111 1.386 . S
H1109 C1125 0.930 . S
H1110 C1126 0.931 . S
C1111 H1099 0.929 . S
C1111 C1105 1.390 . S
C1111 C1108 1.386 . S
C1112 C1107 1.490 . S
C1112 C1114 1.395 . S
C1112 C1115 1.403 . S
H1113 C1119 0.930 . S
C1114 H1100 0.930 . S
C1114 C1112 1.395 . S
C1114 C1117 1.403 . S
C1115 C1112 1.403 . S
C1115 C1116 1.524 . S
C1115 C1119 1.400 . S
C1116 H1101 0.960 . S
C1116 H1102 0.960 . S
C1116 H1103 0.960 . S
C1116 C1115 1.524 . S
C1117 C1114 1.403 . S
C1117 C1118 1.392 . S
C1117 C1121 1.495 . S
C1118 C1117 1.392 . S
C1118 C1119 1.385 . S
C1118 C1120 1.478 . S
C1119 H1113 0.930 . S
C1119 C1115 1.400 . S
C1119 C1118 1.385 . S
C1120 C1118 1.478 . S
C1120 C1122 1.381 . S
C1120 C1126 1.383 . S
C1121 C1117 1.495 . S
C1121 H1127 0.959 . S
C1121 H1128 0.961 . S
C1121 H1129 0.960 . S
C1122 C1120 1.381 . S
C1122 C1123 1.394 . S
C1122 H1130 0.930 . S
C1123 C1122 1.394 . S
C1123 C1124 1.383 . S
C1123 H1131 0.929 . S
C1124 C1123 1.383 . S
C1124 C1125 1.377 . S
C1125 H1109 0.930 . S
C1125 C1124 1.377 . S
C1125 C1126 1.379 . S
C1126 H1110 0.931 . S
C1126 C1120 1.383 . S
C1126 C1125 1.379 . S
H1127 C1121 0.959 . S
H1128 C1121 0.961 . S
H1129 C1121 0.960 . S
H1130 C1122 0.930 . S
H1131 C1123 0.929 . S
H1132 C1140 0.929 . S
H1133 C1142 0.930 . S
H1134 C1144 0.930 . S
H1135 C1147 0.929 . S
H1136 C1150 0.930 . S
H1137 C1152 0.960 . S
H1138 C1152 0.960 . S
H1139 C1152 0.960 . S
C1140 H1132 0.929 . S
C1140 C1141 1.377 . S
C1140 C1142 1.384 . S
C1141 C1140 1.377 . S
C1141 C1147 1.390 . S
C1142 H1133 0.930 . S
C1142 C1140 1.384 . S
C1142 C1143 1.372 . S
C1143 C1142 1.372 . S
C1143 C1144 1.400 . S
C1143 C1148 1.490 . S
C1144 H1134 0.930 . S
C1144 C1143 1.400 . S
C1144 C1147 1.386 . S
H1145 C1161 0.930 . S
H1146 C1162 0.931 . S
C1147 H1135 0.929 . S
C1147 C1141 1.390 . S
C1147 C1144 1.386 . S
C1148 C1143 1.490 . S
C1148 C1150 1.395 . S
C1148 C1151 1.403 . S
H1149 C1155 0.930 . S
C1150 H1136 0.930 . S
C1150 C1148 1.395 . S
C1150 C1153 1.403 . S
C1151 C1148 1.403 . S
C1151 C1152 1.524 . S
C1151 C1155 1.400 . S
C1152 H1137 0.960 . S
C1152 H1138 0.960 . S
C1152 H1139 0.960 . S
C1152 C1151 1.524 . S
C1153 C1150 1.403 . S
C1153 C1154 1.392 . S
C1153 C1157 1.495 . S
C1154 C1153 1.392 . S
C1154 C1155 1.385 . S
C1154 C1156 1.478 . S
C1155 H1149 0.930 . S
C1155 C1151 1.400 . S
C1155 C1154 1.385 . S
C1156 C1154 1.478 . S
C1156 C1158 1.381 . S
C1156 C1162 1.383 . S
C1157 C1153 1.495 . S
C1157 H1163 0.959 . S
C1157 H1164 0.961 . S
C1157 H1165 0.960 . S
C1158 C1156 1.381 . S
C1158 C1159 1.394 . S
C1158 H1166 0.930 . S
C1159 C1158 1.394 . S
C1159 C1160 1.386 . S
C1159 H1167 0.929 1_455 S
C1160 C1159 1.386 . S
C1160 C1161 1.412 . S
C1161 H1145 0.930 . S
C1161 C1160 1.412 . S
C1161 C1162 1.379 . S
C1162 H1146 0.931 . S
C1162 C1156 1.383 . S
C1162 C1161 1.379 . S
H1163 C1157 0.959 . S
H1164 C1157 0.961 . S
H1165 C1157 0.960 . S
H1166 C1158 0.930 . S
H1167 C1159 0.929 1_655 S
H1168 C1176 0.929 . S
H1169 C1178 0.930 . S
H1170 C1180 0.930 . S
H1171 C1183 0.929 . S
H1172 C1186 0.930 . S
H1173 C1188 0.960 . S
H1174 C1188 0.960 . S
H1175 C1188 0.960 . S
C1176 H1168 0.929 . S
C1176 C1177 1.377 . S
C1176 C1178 1.384 . S
C1177 C1176 1.377 . S
C1177 C1183 1.390 . S
C1178 H1169 0.930 . S
C1178 C1176 1.384 . S
C1178 C1179 1.372 . S
C1179 C1178 1.372 . S
C1179 C1180 1.400 . S
C1179 C1184 1.490 . S
C1180 H1170 0.930 . S
C1180 C1179 1.400 . S
C1180 C1183 1.386 . S
H1181 C1197 0.930 . S
H1182 C1198 0.931 . S
C1183 H1171 0.929 . S
C1183 C1177 1.390 . S
C1183 C1180 1.386 . S
C1184 C1179 1.490 . S
C1184 C1186 1.395 . S
C1184 C1187 1.403 . S
H1185 C1191 0.930 . S
C1186 H1172 0.930 . S
C1186 C1184 1.395 . S
C1186 C1189 1.403 . S
C1187 C1184 1.403 . S
C1187 C1188 1.524 . S
C1187 C1191 1.400 . S
C1188 H1173 0.960 . S
C1188 H1174 0.960 . S
C1188 H1175 0.960 . S
C1188 C1187 1.524 . S
C1189 C1186 1.403 . S
C1189 C1190 1.392 . S
C1189 C1193 1.495 . S
C1190 C1189 1.392 . S
C1190 C1191 1.385 . S
C1190 C1192 1.478 . S
C1191 H1185 0.930 . S
C1191 C1187 1.400 . S
C1191 C1190 1.385 . S
C1192 C1190 1.478 . S
C1192 C1194 1.381 . S
C1192 C1198 1.383 . S
C1193 C1189 1.495 . S
C1193 H1199 0.959 . S
C1193 H1200 0.961 . S
C1193 H1201 0.960 . S
C1194 C1192 1.381 . S
C1194 C1195 1.394 . S
C1194 H1202 0.930 . S
C1195 C1194 1.394 . S
C1195 C1196 1.383 . S
C1195 H1203 0.929 . S
C1196 C1195 1.383 . S
C1196 C1197 1.377 . S
C1197 H1181 0.930 . S
C1197 C1196 1.377 . S
C1197 C1198 1.379 . S
C1198 H1182 0.931 . S
C1198 C1192 1.383 . S
C1198 C1197 1.379 . S
H1199 C1193 0.959 . S
H1200 C1193 0.961 . S
H1201 C1193 0.960 . S
H1202 C1194 0.930 . S
H1203 C1195 0.929 . S
H1204 C1212 0.929 . S
H1205 C1214 0.930 . S
H1206 C1216 0.930 . S
H1207 C1219 0.929 . S
H1208 C1222 0.930 . S
H1209 C1224 0.960 . S
H1210 C1224 0.960 . S
H1211 C1224 0.960 . S
C1212 H1204 0.929 . S
C1212 C1213 1.377 . S
C1212 C1214 1.384 . S
C1213 C1212 1.377 . S
C1213 C1219 1.390 . S
C1214 H1205 0.930 . S
C1214 C1212 1.384 . S
C1214 C1215 1.372 . S
C1215 C1214 1.372 . S
C1215 C1216 1.400 . S
C1215 C1220 1.490 . S
C1216 H1206 0.930 . S
C1216 C1215 1.400 . S
C1216 C1219 1.386 . S
H1217 C1233 0.930 . S
H1218 C1234 0.931 . S
C1219 H1207 0.929 . S
C1219 C1213 1.390 . S
C1219 C1216 1.386 . S
C1220 C1215 1.490 . S
C1220 C1222 1.395 . S
C1220 C1223 1.403 . S
H1221 C1227 0.930 . S
C1222 H1208 0.930 . S
C1222 C1220 1.395 . S
C1222 C1225 1.403 . S
C1223 C1220 1.403 . S
C1223 C1224 1.524 . S
C1223 C1227 1.400 . S
C1224 H1209 0.960 . S
C1224 H1210 0.960 . S
C1224 H1211 0.960 . S
C1224 C1223 1.524 . S
C1225 C1222 1.403 . S
C1225 C1226 1.392 . S
C1225 C1229 1.495 . S
C1226 C1225 1.392 . S
C1226 C1227 1.385 . S
C1226 C1228 1.478 . S
C1227 H1221 0.930 . S
C1227 C1223 1.400 . S
C1227 C1226 1.385 . S
C1228 C1226 1.478 . S
C1228 C1230 1.381 . S
C1228 C1234 1.383 . S
C1229 C1225 1.495 . S
C1229 H1235 0.959 . S
C1229 H1236 0.961 . S
C1229 H1237 0.960 . S
C1230 C1228 1.381 . S
C1230 C1231 1.364 1_455 S
C1230 H1238 0.930 . S
C1231 C1230 1.364 1_655 S
C1231 C1232 1.380 1_655 S
C1231 H1239 0.963 . S
C1232 C1231 1.380 1_455 S
C1232 C1233 1.377 . S
C1233 H1217 0.930 . S
C1233 C1232 1.377 . S
C1233 C1234 1.379 . S
C1234 H1218 0.931 . S
C1234 C1228 1.383 . S
C1234 C1233 1.379 . S
H1235 C1229 0.959 . S
H1236 C1229 0.961 . S
H1237 C1229 0.960 . S
H1238 C1230 0.930 . S
H1239 C1231 0.963 . S
H1240 C1248 0.929 . S
H1241 C1250 0.930 . S
H1242 C1252 0.930 . S
H1243 C1255 0.929 . S
H1244 C1258 0.930 . S
H1245 C1260 0.960 . S
H1246 C1260 0.960 . S
H1247 C1260 0.960 . S
C1248 H1240 0.929 . S
C1248 C1249 1.377 . S
C1248 C1250 1.384 . S
C1249 C1248 1.377 . S
C1249 C1255 1.390 . S
C1250 H1241 0.930 . S
C1250 C1248 1.384 . S
C1250 C1251 1.372 . S
C1251 C1250 1.372 . S
C1251 C1252 1.400 . S
C1251 C1256 1.490 . S
C1252 H1242 0.930 . S
C1252 C1251 1.400 . S
C1252 C1255 1.386 . S
H1253 C1269 0.930 . S
H1254 C1270 0.931 . S
C1255 H1243 0.929 . S
C1255 C1249 1.390 . S
C1255 C1252 1.386 . S
C1256 C1251 1.490 . S
C1256 C1258 1.395 . S
C1256 C1259 1.403 . S
H1257 C1263 0.930 . S
C1258 H1244 0.930 . S
C1258 C1256 1.395 . S
C1258 C1261 1.403 . S
C1259 C1256 1.403 . S
C1259 C1260 1.524 . S
C1259 C1263 1.400 . S
C1260 H1245 0.960 . S
C1260 H1246 0.960 . S
C1260 H1247 0.960 . S
C1260 C1259 1.524 . S
C1261 C1258 1.403 . S
C1261 C1262 1.392 . S
C1261 C1265 1.495 . S
C1262 C1261 1.392 . S
C1262 C1263 1.385 . S
C1262 C1264 1.478 . S
C1263 H1257 0.930 . S
C1263 C1259 1.400 . S
C1263 C1262 1.385 . S
C1264 C1262 1.478 . S
C1264 C1266 1.381 . S
C1264 C1270 1.383 . S
C1265 C1261 1.495 . S
C1265 H1271 0.959 . S
C1265 H1272 0.961 . S
C1265 H1273 0.960 . S
C1266 C1264 1.381 . S
C1266 C1267 1.394 . S
C1266 H1274 0.930 . S
C1267 C1266 1.394 . S
C1267 C1268 1.383 . S
C1267 H1275 0.929 . S
C1268 C1267 1.383 . S
C1268 C1269 1.377 . S
C1269 H1253 0.930 . S
C1269 C1268 1.377 . S
C1269 C1270 1.379 . S
C1270 H1254 0.931 . S
C1270 C1264 1.383 . S
C1270 C1269 1.379 . S
H1271 C1265 0.959 . S
H1272 C1265 0.961 . S
H1273 C1265 0.960 . S
H1274 C1266 0.930 . S
H1275 C1267 0.929 . S
H1276 C1284 0.929 . S
H1277 C1286 0.930 . S
H1278 C1288 0.930 . S
H1279 C1291 0.929 . S
H1280 C1294 0.930 . S
H1281 C1296 0.960 . S
H1282 C1296 0.960 . S
H1283 C1296 0.960 . S
C1284 H1276 0.929 . S
C1284 C1285 1.377 . S
C1284 C1286 1.384 . S
C1285 C1284 1.377 . S
C1285 C1291 1.390 . S
C1286 H1277 0.930 . S
C1286 C1284 1.384 . S
C1286 C1287 1.372 . S
C1287 C1286 1.372 . S
C1287 C1288 1.400 . S
C1287 C1292 1.490 . S
C1288 H1278 0.930 . S
C1288 C1287 1.400 . S
C1288 C1291 1.386 . S
H1289 C1305 0.930 . S
H1290 C1306 0.931 . S
C1291 H1279 0.929 . S
C1291 C1285 1.390 . S
C1291 C1288 1.386 . S
C1292 C1287 1.490 . S
C1292 C1294 1.395 . S
C1292 C1295 1.403 . S
H1293 C1299 0.930 . S
C1294 H1280 0.930 . S
C1294 C1292 1.395 . S
C1294 C1297 1.403 . S
C1295 C1292 1.403 . S
C1295 C1296 1.524 . S
C1295 C1299 1.400 . S
C1296 H1281 0.960 . S
C1296 H1282 0.960 . S
C1296 H1283 0.960 . S
C1296 C1295 1.524 . S
C1297 C1294 1.403 . S
C1297 C1298 1.392 . S
C1297 C1301 1.495 . S
C1298 C1297 1.392 . S
C1298 C1299 1.385 . S
C1298 C1300 1.478 . S
C1299 H1293 0.930 . S
C1299 C1295 1.400 . S
C1299 C1298 1.385 . S
C1300 C1298 1.478 . S
C1300 C1302 1.381 . S
C1300 C1306 1.383 . S
C1301 C1297 1.495 . S
C1301 H1307 0.959 . S
C1301 H1308 0.961 . S
C1301 H1309 0.960 . S
C1302 C1300 1.381 . S
C1302 C1303 1.394 . S
C1302 H1310 0.930 . S
C1303 C1302 1.394 . S
C1303 C1304 1.383 . S
C1303 H1311 0.929 . S
C1304 C1303 1.383 . S
C1304 C1305 1.377 . S
C1305 H1289 0.930 . S
C1305 C1304 1.377 . S
C1305 C1306 1.379 . S
C1306 H1290 0.931 . S
C1306 C1300 1.383 . S
C1306 C1305 1.379 . S
H1307 C1301 0.959 . S
H1308 C1301 0.961 . S
H1309 C1301 0.960 . S
H1310 C1302 0.930 . S
H1311 C1303 0.929 . S
H1312 C1320 0.929 . S
H1313 C1322 0.930 . S
H1314 C1324 0.930 . S
H1315 C1327 0.929 . S
H1316 C1330 0.930 . S
H1317 C1332 0.960 . S
H1318 C1332 0.960 . S
H1319 C1332 0.960 . S
C1320 H1312 0.929 . S
C1320 C1321 1.377 . S
C1320 C1322 1.384 . S
C1321 C1320 1.377 . S
C1321 C1327 1.390 . S
C1322 H1313 0.930 . S
C1322 C1320 1.384 . S
C1322 C1323 1.372 . S
C1323 C1322 1.372 . S
C1323 C1324 1.400 . S
C1323 C1328 1.490 . S
C1324 H1314 0.930 . S
C1324 C1323 1.400 . S
C1324 C1327 1.386 . S
H1325 C1341 0.930 . S
H1326 C1342 0.931 . S
C1327 H1315 0.929 . S
C1327 C1321 1.390 . S
C1327 C1324 1.386 . S
C1328 C1323 1.490 . S
C1328 C1330 1.395 . S
C1328 C1331 1.403 . S
H1329 C1335 0.930 . S
C1330 H1316 0.930 . S
C1330 C1328 1.395 . S
C1330 C1333 1.403 . S
C1331 C1328 1.403 . S
C1331 C1332 1.524 . S
C1331 C1335 1.400 . S
C1332 H1317 0.960 . S
C1332 H1318 0.960 . S
C1332 H1319 0.960 . S
C1332 C1331 1.524 . S
C1333 C1330 1.403 . S
C1333 C1334 1.392 . S
C1333 C1337 1.495 . S
C1334 C1333 1.392 . S
C1334 C1335 1.385 . S
C1334 C1336 1.478 . S
C1335 H1329 0.930 . S
C1335 C1331 1.400 . S
C1335 C1334 1.385 . S
C1336 C1334 1.478 . S
C1336 C1338 1.381 . S
C1336 C1342 1.383 . S
C1337 C1333 1.495 . S
C1337 H1343 0.959 . S
C1337 H1344 0.961 . S
C1337 H1345 0.960 . S
C1338 C1336 1.381 . S
C1338 C1339 1.394 . S
C1338 H1346 0.930 . S
C1339 C1338 1.394 . S
C1339 C1340 1.383 . S
C1339 H1347 0.929 . S
C1340 C1339 1.383 . S
C1340 C1341 1.377 . S
C1341 H1325 0.930 . S
C1341 C1340 1.377 . S
C1341 C1342 1.379 . S
C1342 H1326 0.931 . S
C1342 C1336 1.383 . S
C1342 C1341 1.379 . S
H1343 C1337 0.959 . S
H1344 C1337 0.961 . S
H1345 C1337 0.960 . S
H1346 C1338 0.930 . S
H1347 C1339 0.929 . S
H1348 C1356 0.929 . S
H1349 C1358 0.930 . S
H1350 C1360 0.930 . S
H1351 C1363 0.929 . S
H1352 C1366 0.930 . S
H1353 C1368 0.960 . S
H1354 C1368 0.960 . S
H1355 C1368 0.960 . S
C1356 H1348 0.929 . S
C1356 C1357 1.377 . S
C1356 C1358 1.384 . S
C1357 C1356 1.377 . S
C1357 C1363 1.390 . S
C1358 H1349 0.930 . S
C1358 C1356 1.384 . S
C1358 C1359 1.372 . S
C1359 C1358 1.372 . S
C1359 C1360 1.400 . S
C1359 C1364 1.490 . S
C1360 H1350 0.930 . S
C1360 C1359 1.400 . S
C1360 C1363 1.386 . S
H1361 C1377 0.930 . S
H1362 C1378 0.931 . S
C1363 H1351 0.929 . S
C1363 C1357 1.390 . S
C1363 C1360 1.386 . S
C1364 C1359 1.490 . S
C1364 C1366 1.395 . S
C1364 C1367 1.403 . S
H1365 C1371 0.930 . S
C1366 H1352 0.930 . S
C1366 C1364 1.395 . S
C1366 C1369 1.403 . S
C1367 C1364 1.403 . S
C1367 C1368 1.524 . S
C1367 C1371 1.400 . S
C1368 H1353 0.960 . S
C1368 H1354 0.960 . S
C1368 H1355 0.960 . S
C1368 C1367 1.524 . S
C1369 C1366 1.403 . S
C1369 C1370 1.392 . S
C1369 C1373 1.495 . S
C1370 C1369 1.392 . S
C1370 C1371 1.385 . S
C1370 C1372 1.478 . S
C1371 H1365 0.930 . S
C1371 C1367 1.400 . S
C1371 C1370 1.385 . S
C1372 C1370 1.478 . S
C1372 C1374 1.381 . S
C1372 C1378 1.383 . S
C1373 C1369 1.495 . S
C1373 H1379 0.959 . S
C1373 H1380 0.961 . S
C1373 H1381 0.960 . S
C1374 C1372 1.381 . S
C1374 C1375 1.394 . S
C1374 H1382 0.930 . S
C1375 C1374 1.394 . S
C1375 C1376 1.383 . S
C1375 H1383 0.929 . S
C1376 C1375 1.383 . S
C1376 C1377 1.377 . S
C1377 H1361 0.930 . S
C1377 C1376 1.377 . S
C1377 C1378 1.379 . S
C1378 H1362 0.931 . S
C1378 C1372 1.383 . S
C1378 C1377 1.379 . S
H1379 C1373 0.959 . S
H1380 C1373 0.961 . S
H1381 C1373 0.960 . S
H1382 C1374 0.930 . S
H1383 C1375 0.929 . S
H1384 C1392 0.929 . S
H1385 C1394 0.930 . S
H1386 C1396 0.930 . S
H1387 C1399 0.929 . S
H1388 C1402 0.930 . S
H1389 C1404 0.960 . S
H1390 C1404 0.960 . S
H1391 C1404 0.960 . S
C1392 H1384 0.929 . S
C1392 C1393 1.377 . S
C1392 C1394 1.384 . S
C1393 C1392 1.377 . S
C1393 C1399 1.390 . S
C1394 H1385 0.930 . S
C1394 C1392 1.384 . S
C1394 C1395 1.372 . S
C1395 C1394 1.372 . S
C1395 C1396 1.400 . S
C1395 C1400 1.490 . S
C1396 H1386 0.930 . S
C1396 C1395 1.400 . S
C1396 C1399 1.386 . S
H1397 C1413 0.930 . S
H1398 C1414 0.931 . S
C1399 H1387 0.929 . S
C1399 C1393 1.390 . S
C1399 C1396 1.386 . S
C1400 C1395 1.490 . S
C1400 C1402 1.395 . S
C1400 C1403 1.403 . S
H1401 C1407 0.930 . S
C1402 H1388 0.930 . S
C1402 C1400 1.395 . S
C1402 C1405 1.403 . S
C1403 C1400 1.403 . S
C1403 C1404 1.524 . S
C1403 C1407 1.400 . S
C1404 H1389 0.960 . S
C1404 H1390 0.960 . S
C1404 H1391 0.960 . S
C1404 C1403 1.524 . S
C1405 C1402 1.403 . S
C1405 C1406 1.392 . S
C1405 C1409 1.495 . S
C1406 C1405 1.392 . S
C1406 C1407 1.385 . S
C1406 C1408 1.478 . S
C1407 H1401 0.930 . S
C1407 C1403 1.400 . S
C1407 C1406 1.385 . S
C1408 C1406 1.478 . S
C1408 C1410 1.381 . S
C1408 C1414 1.383 . S
C1409 C1405 1.495 . S
C1409 H1415 0.959 . S
C1409 H1416 0.961 . S
C1409 H1417 0.960 . S
C1410 C1408 1.381 . S
C1410 C1411 1.394 . S
C1410 H1418 0.930 . S
C1411 C1410 1.394 . S
C1411 C1412 1.383 . S
C1411 H1419 0.929 . S
C1412 C1411 1.383 . S
C1412 C1413 1.377 . S
C1413 H1397 0.930 . S
C1413 C1412 1.377 . S
C1413 C1414 1.379 . S
C1414 H1398 0.931 . S
C1414 C1408 1.383 . S
C1414 C1413 1.379 . S
H1415 C1409 0.959 . S
H1416 C1409 0.961 . S
H1417 C1409 0.960 . S
H1418 C1410 0.930 . S
H1419 C1411 0.929 . S
H1420 C1428 0.929 1_455 S
H1421 C1430 0.930 . S
H1422 C1432 0.930 . S
H1423 C1435 0.929 . S
H1424 C1438 0.930 . S
H1425 C1440 0.960 . S
H1426 C1440 0.960 . S
H1427 C1440 0.960 . S
C1428 H1420 0.929 1_655 S
C1428 C1429 1.381 . S
C1428 C1430 1.384 . S
C1429 C1428 1.381 . S
C1429 C1435 1.414 . S
C1430 H1421 0.930 . S
C1430 C1428 1.384 . S
C1430 C1431 1.372 . S
C1431 C1430 1.372 . S
C1431 C1432 1.400 . S
C1431 C1436 1.490 . S
C1432 H1422 0.930 . S
C1432 C1431 1.400 . S
C1432 C1435 1.386 . S
H1433 C1449 0.930 . S
H1434 C1450 0.931 . S
C1435 H1423 0.929 . S
C1435 C1429 1.414 . S
C1435 C1432 1.386 . S
C1436 C1431 1.490 . S
C1436 C1438 1.395 . S
C1436 C1439 1.403 . S
H1437 C1443 0.930 . S
C1438 H1424 0.930 . S
C1438 C1436 1.395 . S
C1438 C1441 1.403 . S
C1439 C1436 1.403 . S
C1439 C1440 1.524 . S
C1439 C1443 1.400 . S
C1440 H1425 0.960 . S
C1440 H1426 0.960 . S
C1440 H1427 0.960 . S
C1440 C1439 1.524 . S
C1441 C1438 1.403 . S
C1441 C1442 1.392 . S
C1441 C1445 1.495 . S
C1442 C1441 1.392 . S
C1442 C1443 1.385 . S
C1442 C1444 1.478 . S
C1443 H1437 0.930 . S
C1443 C1439 1.400 . S
C1443 C1442 1.385 . S
C1444 C1442 1.478 . S
C1444 C1446 1.381 . S
C1444 C1450 1.383 . S
C1445 C1441 1.495 . S
C1445 H1451 0.959 . S
C1445 H1452 0.961 . S
C1445 H1453 0.960 . S
C1446 C1444 1.381 . S
C1446 C1447 1.394 . S
C1446 H1454 0.930 . S
C1447 C1446 1.394 . S
C1447 C1448 1.383 . S
C1447 H1455 0.929 . S
C1448 C1447 1.383 . S
C1448 C1449 1.377 . S
C1449 H1433 0.930 . S
C1449 C1448 1.377 . S
C1449 C1450 1.379 . S
C1450 H1434 0.931 . S
C1450 C1444 1.383 . S
C1450 C1449 1.379 . S
H1451 C1445 0.959 . S
H1452 C1445 0.961 . S
H1453 C1445 0.960 . S
H1454 C1446 0.930 . S
H1455 C1447 0.929 . S
H1456 C1464 0.929 . S
H1457 C1466 0.930 . S
H1458 C1468 0.930 . S
H1459 C1471 0.929 . S
H1460 C1474 0.930 . S
H1461 C1476 0.960 . S
H1462 C1476 0.960 . S
H1463 C1476 0.960 . S
C1464 H1456 0.929 . S
C1464 C1465 1.377 . S
C1464 C1466 1.384 . S
C1465 C1464 1.377 . S
C1465 C1471 1.390 . S
C1466 H1457 0.930 . S
C1466 C1464 1.384 . S
C1466 C1467 1.372 . S
C1467 C1466 1.372 . S
C1467 C1468 1.400 . S
C1467 C1472 1.490 . S
C1468 H1458 0.930 . S
C1468 C1467 1.400 . S
C1468 C1471 1.386 . S
H1469 C1485 0.930 . S
H1470 C1486 0.931 . S
C1471 H1459 0.929 . S
C1471 C1465 1.390 . S
C1471 C1468 1.386 . S
C1472 C1467 1.490 . S
C1472 C1474 1.395 . S
C1472 C1475 1.403 . S
H1473 C1479 0.930 . S
C1474 H1460 0.930 . S
C1474 C1472 1.395 . S
C1474 C1477 1.403 . S
C1475 C1472 1.403 . S
C1475 C1476 1.524 . S
C1475 C1479 1.400 . S
C1476 H1461 0.960 . S
C1476 H1462 0.960 . S
C1476 H1463 0.960 . S
C1476 C1475 1.524 . S
C1477 C1474 1.403 . S
C1477 C1478 1.392 . S
C1477 C1481 1.495 . S
C1478 C1477 1.392 . S
C1478 C1479 1.385 . S
C1478 C1480 1.478 . S
C1479 H1473 0.930 . S
C1479 C1475 1.400 . S
C1479 C1478 1.385 . S
C1480 C1478 1.478 . S
C1480 C1482 1.381 . S
C1480 C1486 1.383 . S
C1481 C1477 1.495 . S
C1481 H1487 0.959 . S
C1481 H1488 0.961 . S
C1481 H1489 0.960 . S
C1482 C1480 1.381 . S
C1482 C1483 1.394 . S
C1482 H1490 0.930 . S
C1483 C1482 1.394 . S
C1483 C1484 1.383 . S
C1483 H1491 0.929 . S
C1484 C1483 1.383 . S
C1484 C1485 1.377 . S
C1485 H1469 0.930 . S
C1485 C1484 1.377 . S
C1485 C1486 1.379 . S
C1486 H1470 0.931 . S
C1486 C1480 1.383 . S
C1486 C1485 1.379 . S
H1487 C1481 0.959 . S
H1488 C1481 0.961 . S
H1489 C1481 0.960 . S
H1490 C1482 0.930 . S
H1491 C1483 0.929 . S
H1492 C1500 0.890 1_455 S
H1493 C1502 0.930 . S
H1494 C1504 0.930 . S
H1495 C1507 0.929 . S
H1496 C1510 0.930 . S
H1497 C1512 0.960 . S
H1498 C1512 0.960 . S
H1499 C1512 0.960 . S
C1500 H1492 0.890 1_655 S
C1500 C1501 1.377 . S
C1500 C1502 1.424 . S
C1501 C1500 1.377 . S
C1501 C1507 1.415 . S
C1502 H1493 0.930 . S
C1502 C1500 1.424 . S
C1502 C1503 1.372 . S
C1503 C1502 1.372 . S
C1503 C1504 1.400 . S
C1503 C1508 1.490 . S
C1504 H1494 0.930 . S
C1504 C1503 1.400 . S
C1504 C1507 1.386 . S
H1505 C1521 0.930 . S
H1506 C1522 0.931 . S
C1507 H1495 0.929 . S
C1507 C1501 1.415 . S
C1507 C1504 1.386 . S
C1508 C1503 1.490 . S
C1508 C1510 1.395 . S
C1508 C1511 1.403 . S
H1509 C1515 0.930 . S
C1510 H1496 0.930 . S
C1510 C1508 1.395 . S
C1510 C1513 1.403 . S
C1511 C1508 1.403 . S
C1511 C1512 1.524 . S
C1511 C1515 1.400 . S
C1512 H1497 0.960 . S
C1512 H1498 0.960 . S
C1512 H1499 0.960 . S
C1512 C1511 1.524 . S
C1513 C1510 1.403 . S
C1513 C1514 1.392 . S
C1513 C1517 1.495 . S
C1514 C1513 1.392 . S
C1514 C1515 1.385 . S
C1514 C1516 1.478 . S
C1515 H1509 0.930 . S
C1515 C1511 1.400 . S
C1515 C1514 1.385 . S
C1516 C1514 1.478 . S
C1516 C1518 1.381 . S
C1516 C1522 1.383 . S
C1517 C1513 1.495 . S
C1517 H1523 0.959 . S
C1517 H1524 0.961 . S
C1517 H1525 0.960 . S
C1518 C1516 1.381 . S
C1518 C1519 1.394 . S
C1518 H1526 0.930 . S
C1519 C1518 1.394 . S
C1519 C1520 1.383 . S
C1519 H1527 0.929 . S
C1520 C1519 1.383 . S
C1520 C1521 1.377 . S
C1521 H1505 0.930 . S
C1521 C1520 1.377 . S
C1521 C1522 1.379 . S
C1522 H1506 0.931 . S
C1522 C1516 1.383 . S
C1522 C1521 1.379 . S
H1523 C1517 0.959 . S
H1524 C1517 0.961 . S
H1525 C1517 0.960 . S
H1526 C1518 0.930 . S
H1527 C1519 0.929 . S
H1528 C1536 0.929 . S
H1529 C1538 0.930 . S
H1530 C1540 0.930 . S
H1531 C1543 0.929 . S
H1532 C1546 0.930 . S
H1533 C1548 0.960 . S
H1534 C1548 0.960 . S
H1535 C1548 0.960 . S
C1536 H1528 0.929 . S
C1536 C1537 1.377 . S
C1536 C1538 1.384 . S
C1537 C1536 1.377 . S
C1537 C1543 1.390 . S
C1538 H1529 0.930 . S
C1538 C1536 1.384 . S
C1538 C1539 1.372 . S
C1539 C1538 1.372 . S
C1539 C1540 1.400 . S
C1539 C1544 1.490 . S
C1540 H1530 0.930 . S
C1540 C1539 1.400 . S
C1540 C1543 1.386 . S
H1541 C1557 0.930 . S
H1542 C1558 0.931 . S
C1543 H1531 0.929 . S
C1543 C1537 1.390 . S
C1543 C1540 1.386 . S
C1544 C1539 1.490 . S
C1544 C1546 1.395 . S
C1544 C1547 1.403 . S
H1545 C1551 0.930 . S
C1546 H1532 0.930 . S
C1546 C1544 1.395 . S
C1546 C1549 1.403 . S
C1547 C1544 1.403 . S
C1547 C1548 1.524 . S
C1547 C1551 1.400 . S
C1548 H1533 0.960 . S
C1548 H1534 0.960 . S
C1548 H1535 0.960 . S
C1548 C1547 1.524 . S
C1549 C1546 1.403 . S
C1549 C1550 1.392 . S
C1549 C1553 1.495 . S
C1550 C1549 1.392 . S
C1550 C1551 1.385 . S
C1550 C1552 1.478 . S
C1551 H1545 0.930 . S
C1551 C1547 1.400 . S
C1551 C1550 1.385 . S
C1552 C1550 1.478 . S
C1552 C1554 1.381 . S
C1552 C1558 1.383 . S
C1553 C1549 1.495 . S
C1553 H1559 0.959 . S
C1553 H1560 0.961 . S
C1553 H1561 0.960 . S
C1554 C1552 1.381 . S
C1554 C1555 1.394 . S
C1554 H1562 0.930 . S
C1555 C1554 1.394 . S
C1555 C1556 1.383 . S
C1555 H1563 0.929 . S
C1556 C1555 1.383 . S
C1556 C1557 1.377 . S
C1557 H1541 0.930 . S
C1557 C1556 1.377 . S
C1557 C1558 1.379 . S
C1558 H1542 0.931 . S
C1558 C1552 1.383 . S
C1558 C1557 1.379 . S
H1559 C1553 0.959 . S
H1560 C1553 0.961 . S
H1561 C1553 0.960 . S
H1562 C1554 0.930 . S
H1563 C1555 0.929 . S
H1564 C1572 0.929 . S
H1565 C1574 0.930 . S
H1566 C1576 0.930 . S
H1567 C1579 0.929 . S
H1568 C1582 0.930 . S
H1569 C1584 0.960 . S
H1570 C1584 0.960 . S
H1571 C1584 0.960 . S
C1572 H1564 0.929 . S
C1572 C1573 1.377 . S
C1572 C1574 1.384 . S
C1573 C1572 1.377 . S
C1573 C1579 1.390 . S
C1574 H1565 0.930 . S
C1574 C1572 1.384 . S
C1574 C1575 1.372 . S
C1575 C1574 1.372 . S
C1575 C1576 1.400 . S
C1575 C1580 1.490 . S
C1576 H1566 0.930 . S
C1576 C1575 1.400 . S
C1576 C1579 1.386 . S
H1577 C1593 0.930 . S
H1578 C1594 0.931 . S
C1579 H1567 0.929 . S
C1579 C1573 1.390 . S
C1579 C1576 1.386 . S
C1580 C1575 1.490 . S
C1580 C1582 1.395 . S
C1580 C1583 1.403 . S
H1581 C1587 0.930 . S
C1582 H1568 0.930 . S
C1582 C1580 1.395 . S
C1582 C1585 1.403 . S
C1583 C1580 1.403 . S
C1583 C1584 1.524 . S
C1583 C1587 1.400 . S
C1584 H1569 0.960 . S
C1584 H1570 0.960 . S
C1584 H1571 0.960 . S
C1584 C1583 1.524 . S
C1585 C1582 1.403 . S
C1585 C1586 1.392 . S
C1585 C1589 1.495 . S
C1586 C1585 1.392 . S
C1586 C1587 1.385 . S
C1586 C1588 1.478 . S
C1587 H1581 0.930 . S
C1587 C1583 1.400 . S
C1587 C1586 1.385 . S
C1588 C1586 1.478 . S
C1588 C1590 1.381 . S
C1588 C1594 1.383 . S
C1589 C1585 1.495 . S
C1589 H1595 0.959 . S
C1589 H1596 0.961 . S
C1589 H1597 0.960 . S
C1590 C1588 1.381 . S
C1590 C1591 1.394 . S
C1590 H1598 0.930 . S
C1591 C1590 1.394 . S
C1591 C1592 1.383 . S
C1591 H1599 0.929 . S
C1592 C1591 1.383 . S
C1592 C1593 1.377 . S
C1593 H1577 0.930 . S
C1593 C1592 1.377 . S
C1593 C1594 1.379 . S
C1594 H1578 0.931 . S
C1594 C1588 1.383 . S
C1594 C1593 1.379 . S
H1595 C1589 0.959 . S
H1596 C1589 0.961 . S
H1597 C1589 0.960 . S
H1598 C1590 0.930 . S
H1599 C1591 0.929 . S
H1600 C1608 0.929 . S
H1601 C1610 0.930 . S
H1602 C1612 0.930 . S
H1603 C1615 0.929 . S
H1604 C1618 0.930 . S
H1605 C1620 0.960 . S
H1606 C1620 0.960 . S
H1607 C1620 0.960 . S
C1608 H1600 0.929 . S
C1608 C1609 1.377 . S
C1608 C1610 1.384 . S
C1609 C1608 1.377 . S
C1609 C1615 1.390 . S
C1610 H1601 0.930 . S
C1610 C1608 1.384 . S
C1610 C1611 1.372 . S
C1611 C1610 1.372 . S
C1611 C1612 1.400 . S
C1611 C1616 1.490 . S
C1612 H1602 0.930 . S
C1612 C1611 1.400 . S
C1612 C1615 1.386 . S
H1613 C1629 0.930 . S
H1614 C1630 0.931 . S
C1615 H1603 0.929 . S
C1615 C1609 1.390 . S
C1615 C1612 1.386 . S
C1616 C1611 1.490 . S
C1616 C1618 1.395 . S
C1616 C1619 1.403 . S
H1617 C1623 0.930 . S
C1618 H1604 0.930 . S
C1618 C1616 1.395 . S
C1618 C1621 1.403 . S
C1619 C1616 1.403 . S
C1619 C1620 1.524 . S
C1619 C1623 1.400 . S
C1620 H1605 0.960 . S
C1620 H1606 0.960 . S
C1620 H1607 0.960 . S
C1620 C1619 1.524 . S
C1621 C1618 1.403 . S
C1621 C1622 1.392 . S
C1621 C1625 1.495 . S
C1622 C1621 1.392 . S
C1622 C1623 1.385 . S
C1622 C1624 1.478 . S
C1623 H1617 0.930 . S
C1623 C1619 1.400 . S
C1623 C1622 1.385 . S
C1624 C1622 1.478 . S
C1624 C1626 1.381 . S
C1624 C1630 1.383 . S
C1625 C1621 1.495 . S
C1625 H1631 0.959 . S
C1625 H1632 0.961 . S
C1625 H1633 0.960 . S
C1626 C1624 1.381 . S
C1626 C1627 1.394 . S
C1626 H1634 0.930 . S
C1627 C1626 1.394 . S
C1627 C1628 1.383 . S
C1627 H1635 0.929 . S
C1628 C1627 1.383 . S
C1628 C1629 1.377 . S
C1629 H1613 0.930 . S
C1629 C1628 1.377 . S
C1629 C1630 1.379 . S
C1630 H1614 0.931 . S
C1630 C1624 1.383 . S
C1630 C1629 1.379 . S
H1631 C1625 0.959 . S
H1632 C1625 0.961 . S
H1633 C1625 0.960 . S
H1634 C1626 0.930 . S
H1635 C1627 0.929 . S
H1636 C1644 0.929 . S
H1637 C1646 0.930 . S
H1638 C1648 0.930 . S
H1639 C1651 0.899 1_545 S
H1640 C1654 0.930 . S
H1641 C1656 0.960 . S
H1642 C1656 0.960 . S
H1643 C1656 0.960 . S
C1644 H1636 0.929 . S
C1644 C1645 1.377 . S
C1644 C1646 1.384 . S
C1645 C1644 1.377 . S
C1645 C1651 1.426 . S
C1646 H1637 0.930 . S
C1646 C1644 1.384 . S
C1646 C1647 1.372 . S
C1647 C1646 1.372 . S
C1647 C1648 1.400 1_565 S
C1647 C1652 1.490 . S
C1648 H1638 0.930 . S
C1648 C1647 1.400 1_545 S
C1648 C1651 1.380 1_545 S
H1649 C1665 0.930 . S
H1650 C1666 0.931 . S
C1651 H1639 0.899 1_565 S
C1651 C1645 1.426 . S
C1651 C1648 1.380 1_565 S
C1652 C1647 1.490 . S
C1652 C1654 1.395 1_455 S
C1652 C1655 1.403 1_565 S
H1653 C1659 0.930 . S
C1654 H1640 0.930 . S
C1654 C1652 1.395 1_655 S
C1654 C1657 1.403 . S
C1655 C1652 1.403 1_545 S
C1655 C1656 1.524 . S
C1655 C1659 1.400 . S
C1656 H1641 0.960 . S
C1656 H1642 0.960 . S
C1656 H1643 0.960 . S
C1656 C1655 1.524 . S
C1657 C1654 1.403 . S
C1657 C1658 1.392 . S
C1657 C1661 1.495 . S
C1658 C1657 1.392 . S
C1658 C1659 1.385 1_665 S
C1658 C1660 1.474 1_565 S
C1659 H1653 0.930 . S
C1659 C1655 1.400 . S
C1659 C1658 1.385 1_445 S
C1660 C1658 1.474 1_545 S
C1660 C1662 1.367 1_545 S
C1660 C1666 1.402 . S
C1661 C1657 1.495 . S
C1661 H1667 0.959 . S
C1661 H1668 0.961 . S
C1661 H1669 0.960 . S
C1662 C1660 1.367 1_565 S
C1662 C1663 1.394 . S
C1662 H1670 0.930 . S
C1663 C1662 1.394 . S
C1663 C1664 1.383 1_565 S
C1663 H1671 0.929 . S
C1664 C1663 1.383 1_545 S
C1664 C1665 1.377 . S
C1665 H1649 0.930 . S
C1665 C1664 1.377 . S
C1665 C1666 1.379 . S
C1666 H1650 0.931 . S
C1666 C1660 1.402 . S
C1666 C1665 1.379 . S
H1667 C1661 0.959 . S
H1668 C1661 0.961 . S
H1669 C1661 0.960 . S
H1670 C1662 0.930 . S
H1671 C1663 0.929 . S
H1672 C1680 0.929 . S
H1673 C1682 0.930 . S
H1674 C1684 0.930 . S
H1675 C1687 0.929 . S
H1676 C1690 0.930 . S
H1677 C1692 0.960 . S
H1678 C1692 0.960 . S
H1679 C1692 0.960 . S
C1680 H1672 0.929 . S
C1680 C1681 1.377 . S
C1680 C1682 1.384 . S
C1681 C1680 1.377 . S
C1681 C1687 1.390 . S
C1682 H1673 0.930 . S
C1682 C1680 1.384 . S
C1682 C1683 1.372 . S
C1683 C1682 1.372 . S
C1683 C1684 1.400 . S
C1683 C1688 1.490 . S
C1684 H1674 0.930 . S
C1684 C1683 1.400 . S
C1684 C1687 1.386 . S
H1685 C1701 0.930 . S
H1686 C1702 0.931 . S
C1687 H1675 0.929 . S
C1687 C1681 1.390 . S
C1687 C1684 1.386 . S
C1688 C1683 1.490 . S
C1688 C1690 1.395 . S
C1688 C1691 1.403 . S
H1689 C1695 0.930 . S
C1690 H1676 0.930 . S
C1690 C1688 1.395 . S
C1690 C1693 1.403 . S
C1691 C1688 1.403 . S
C1691 C1692 1.524 . S
C1691 C1695 1.400 . S
C1692 H1677 0.960 . S
C1692 H1678 0.960 . S
C1692 H1679 0.960 . S
C1692 C1691 1.524 . S
C1693 C1690 1.403 . S
C1693 C1694 1.392 . S
C1693 C1697 1.495 . S
C1694 C1693 1.392 . S
C1694 C1695 1.385 . S
C1694 C1696 1.478 . S
C1695 H1689 0.930 . S
C1695 C1691 1.400 . S
C1695 C1694 1.385 . S
C1696 C1694 1.478 . S
C1696 C1698 1.381 . S
C1696 C1702 1.383 . S
C1697 C1693 1.495 . S
C1697 H1703 0.959 . S
C1697 H1704 0.961 . S
C1697 H1705 0.960 . S
C1698 C1696 1.381 . S
C1698 C1699 1.394 . S
C1698 H1706 0.930 . S
C1699 C1698 1.394 . S
C1699 C1700 1.383 . S
C1699 H1707 0.929 . S
C1700 C1699 1.383 . S
C1700 C1701 1.377 . S
C1701 H1685 0.930 . S
C1701 C1700 1.377 . S
C1701 C1702 1.379 . S
C1702 H1686 0.931 . S
C1702 C1696 1.383 . S
C1702 C1701 1.379 . S
H1703 C1697 0.959 . S
H1704 C1697 0.961 . S
H1705 C1697 0.960 . S
H1706 C1698 0.930 . S
H1707 C1699 0.929 . S
H1708 C1716 0.929 . S
H1709 C1718 0.930 . S
H1710 C1720 0.943 . S
H1711 C1723 0.929 . S
H1712 C1726 0.930 . S
H1713 C1728 0.960 1_556 S
H1714 C1728 0.960 . S
H1715 C1728 0.960 . S
C1716 H1708 0.929 . S
C1716 C1717 1.377 . S
C1716 C1718 1.384 . S
C1717 C1716 1.377 . S
C1717 C1723 1.390 . S
C1718 H1709 0.930 . S
C1718 C1716 1.384 . S
C1718 C1719 1.372 . S
C1719 C1718 1.372 . S
C1719 C1720 1.400 . S
C1719 C1724 1.490 . S
C1720 H1710 0.943 . S
C1720 C1719 1.400 . S
C1720 C1723 1.386 . S
H1721 C1737 0.930 . S
H1722 C1738 0.931 . S
C1723 H1711 0.929 . S
C1723 C1717 1.390 . S
C1723 C1720 1.386 . S
C1724 C1719 1.490 . S
C1724 C1726 1.395 1_545 S
C1724 C1727 1.403 . S
H1725 C1731 0.930 . S
C1726 H1712 0.930 . S
C1726 C1724 1.395 1_565 S
C1726 C1729 1.403 . S
C1727 C1724 1.403 . S
C1727 C1728 1.524 . S
C1727 C1731 1.400 1_554 S
C1728 H1713 0.960 1_554 S
C1728 H1714 0.960 . S
C1728 H1715 0.960 . S
C1728 C1727 1.524 . S
C1729 C1726 1.403 . S
C1729 C1730 1.410 1_554 S
C1729 C1733 1.495 . S
C1730 C1729 1.410 1_556 S
C1730 C1731 1.358 1_565 S
C1730 C1732 1.488 . S
C1731 H1725 0.930 . S
C1731 C1727 1.400 1_556 S
C1731 C1730 1.358 1_545 S
C1732 C1730 1.488 . S
C1732 C1734 1.381 1_565 S
C1732 C1738 1.383 . S
C1733 C1729 1.495 . S
C1733 H1739 0.959 . S
C1733 H1740 0.961 1_554 S
C1733 H1741 0.960 1_554 S
C1734 C1732 1.381 1_545 S
C1734 C1735 1.393 1_545 S
C1734 H1742 0.930 . S
C1735 C1734 1.393 1_565 S
C1735 C1736 1.386 . S
C1735 H1743 0.927 1_565 S
C1736 C1735 1.386 . S
C1736 C1737 1.377 . S
C1737 H1721 0.930 . S
C1737 C1736 1.377 . S
C1737 C1738 1.379 . S
C1738 H1722 0.931 . S
C1738 C1732 1.383 . S
C1738 C1737 1.379 . S
H1739 C1733 0.959 . S
H1740 C1733 0.961 1_556 S
H1741 C1733 0.960 1_556 S
H1742 C1734 0.930 . S
H1743 C1735 0.927 1_545 S
H1744 C1752 0.929 . S
H1745 C1754 0.930 . S
H1746 C1756 0.930 . S
H1747 C1759 0.929 . S
H1748 C1762 0.930 . S
H1749 C1764 0.960 . S
H1750 C1764 0.960 . S
H1751 C1764 0.960 . S
C1752 H1744 0.929 . S
C1752 C1753 1.377 . S
C1752 C1754 1.384 . S
C1753 C1752 1.377 . S
C1753 C1759 1.390 . S
C1754 H1745 0.930 . S
C1754 C1752 1.384 . S
C1754 C1755 1.372 . S
C1755 C1754 1.372 . S
C1755 C1756 1.400 . S
C1755 C1760 1.490 . S
C1756 H1746 0.930 . S
C1756 C1755 1.400 . S
C1756 C1759 1.386 . S
H1757 C1773 0.930 . S
H1758 C1774 0.931 . S
C1759 H1747 0.929 . S
C1759 C1753 1.390 . S
C1759 C1756 1.386 . S
C1760 C1755 1.490 . S
C1760 C1762 1.395 . S
C1760 C1763 1.403 . S
H1761 C1767 0.930 . S
C1762 H1748 0.930 . S
C1762 C1760 1.395 . S
C1762 C1765 1.403 . S
C1763 C1760 1.403 . S
C1763 C1764 1.524 . S
C1763 C1767 1.400 . S
C1764 H1749 0.960 . S
C1764 H1750 0.960 . S
C1764 H1751 0.960 . S
C1764 C1763 1.524 . S
C1765 C1762 1.403 . S
C1765 C1766 1.392 . S
C1765 C1769 1.495 . S
C1766 C1765 1.392 . S
C1766 C1767 1.385 . S
C1766 C1768 1.478 . S
C1767 H1761 0.930 . S
C1767 C1763 1.400 . S
C1767 C1766 1.385 . S
C1768 C1766 1.478 . S
C1768 C1770 1.381 . S
C1768 C1774 1.383 . S
C1769 C1765 1.495 . S
C1769 H1775 0.959 . S
C1769 H1776 0.961 . S
C1769 H1777 0.960 . S
C1770 C1768 1.381 . S
C1770 C1771 1.394 . S
C1770 H1778 0.930 . S
C1771 C1770 1.394 . S
C1771 C1772 1.383 . S
C1771 H1779 0.929 . S
C1772 C1771 1.383 . S
C1772 C1773 1.377 . S
C1773 H1757 0.930 . S
C1773 C1772 1.377 . S
C1773 C1774 1.379 . S
C1774 H1758 0.931 . S
C1774 C1768 1.383 . S
C1774 C1773 1.379 . S
H1775 C1769 0.959 . S
H1776 C1769 0.961 . S
H1777 C1769 0.960 . S
H1778 C1770 0.930 . S
H1779 C1771 0.929 . S
H1780 C1788 0.929 . S
H1781 C1790 0.930 . S
H1782 C1792 0.930 1_545 S
H1783 C1795 0.929 1_545 S
H1784 C1798 0.930 . S
H1785 C1800 0.960 . S
H1786 C1800 0.960 . S
H1787 C1800 0.960 . S
C1788 H1780 0.929 . S
C1788 C1789 1.377 . S
C1788 C1790 1.384 . S
C1789 C1788 1.377 . S
C1789 C1795 1.390 . S
C1790 H1781 0.930 . S
C1790 C1788 1.384 . S
C1790 C1791 1.372 . S
C1791 C1790 1.372 . S
C1791 C1792 1.400 . S
C1791 C1796 1.490 . S
C1792 H1782 0.930 1_565 S
C1792 C1791 1.400 . S
C1792 C1795 1.386 . S
H1793 C1809 0.930 . S
H1794 C1810 0.931 . S
C1795 H1783 0.929 1_565 S
C1795 C1789 1.390 . S
C1795 C1792 1.386 . S
C1796 C1791 1.490 . S
C1796 C1798 1.395 . S
C1796 C1799 1.403 . S
H1797 C1803 0.930 . S
C1798 H1784 0.930 . S
C1798 C1796 1.395 . S
C1798 C1801 1.394 1_565 S
C1799 C1796 1.403 . S
C1799 C1800 1.524 . S
C1799 C1803 1.400 . S
C1800 H1785 0.960 . S
C1800 H1786 0.960 . S
C1800 H1787 0.960 . S
C1800 C1799 1.524 . S
C1801 C1798 1.394 1_545 S
C1801 C1802 1.389 1_545 S
C1801 C1805 1.509 . S
C1802 C1801 1.389 1_565 S
C1802 C1803 1.395 . S
C1802 C1804 1.471 1_565 S
C1803 H1797 0.930 . S
C1803 C1799 1.400 . S
C1803 C1802 1.395 . S
C1804 C1802 1.471 1_545 S
C1804 C1806 1.381 1_545 S
C1804 C1810 1.383 . S
C1805 C1801 1.509 . S
C1805 H1811 0.959 . S
C1805 H1812 0.961 . S
C1805 H1813 0.960 1_545 S
C1806 C1804 1.381 1_565 S
C1806 C1807 1.394 . S
C1806 H1814 0.930 . S
C1807 C1806 1.394 . S
C1807 C1808 1.383 1_565 S
C1807 H1815 0.929 . S
C1808 C1807 1.383 1_545 S
C1808 C1809 1.377 . S
C1809 H1793 0.930 . S
C1809 C1808 1.377 . S
C1809 C1810 1.379 . S
C1810 H1794 0.931 . S
C1810 C1804 1.383 . S
C1810 C1809 1.379 . S
H1811 C1805 0.959 . S
H1812 C1805 0.961 . S
H1813 C1805 0.960 1_565 S
H1814 C1806 0.930 . S
H1815 C1807 0.929 . S
H1816 C1824 0.929 . S
H1817 C1826 0.930 . S
H1818 C1828 0.930 . S
H1819 C1831 0.929 . S
H1820 C1834 0.930 . S
H1821 C1836 0.960 . S
H1822 C1836 0.960 . S
H1823 C1836 0.960 . S
C1824 H1816 0.929 . S
C1824 C1825 1.377 . S
C1824 C1826 1.384 . S
C1825 C1824 1.377 . S
C1825 C1831 1.390 . S
C1826 H1817 0.930 . S
C1826 C1824 1.384 . S
C1826 C1827 1.372 . S
C1827 C1826 1.372 . S
C1827 C1828 1.400 . S
C1827 C1832 1.490 . S
C1828 H1818 0.930 . S
C1828 C1827 1.400 . S
C1828 C1831 1.386 . S
H1829 C1845 0.930 . S
H1830 C1846 0.931 . S
C1831 H1819 0.929 . S
C1831 C1825 1.390 . S
C1831 C1828 1.386 . S
C1832 C1827 1.490 . S
C1832 C1834 1.395 . S
C1832 C1835 1.403 . S
H1833 C1839 0.930 . S
C1834 H1820 0.930 . S
C1834 C1832 1.395 . S
C1834 C1837 1.403 . S
C1835 C1832 1.403 . S
C1835 C1836 1.524 . S
C1835 C1839 1.400 . S
C1836 H1821 0.960 . S
C1836 H1822 0.960 . S
C1836 H1823 0.960 . S
C1836 C1835 1.524 . S
C1837 C1834 1.403 . S
C1837 C1838 1.392 . S
C1837 C1841 1.495 . S
C1838 C1837 1.392 . S
C1838 C1839 1.385 . S
C1838 C1840 1.478 . S
C1839 H1833 0.930 . S
C1839 C1835 1.400 . S
C1839 C1838 1.385 . S
C1840 C1838 1.478 . S
C1840 C1842 1.381 . S
C1840 C1846 1.383 . S
C1841 C1837 1.495 . S
C1841 H1847 0.959 . S
C1841 H1848 0.961 . S
C1841 H1849 0.960 . S
C1842 C1840 1.381 . S
C1842 C1843 1.394 . S
C1842 H1850 0.930 . S
C1843 C1842 1.394 . S
C1843 C1844 1.383 . S
C1843 H1851 0.929 . S
C1844 C1843 1.383 . S
C1844 C1845 1.377 . S
C1845 H1829 0.930 . S
C1845 C1844 1.377 . S
C1845 C1846 1.379 . S
C1846 H1830 0.931 . S
C1846 C1840 1.383 . S
C1846 C1845 1.379 . S
H1847 C1841 0.959 . S
H1848 C1841 0.961 . S
H1849 C1841 0.960 . S
H1850 C1842 0.930 . S
H1851 C1843 0.929 . S
H1852 C1860 0.929 1_565 S
H1853 C1862 0.913 1_565 S
H1854 C1864 0.930 1_655 S
H1855 C1867 0.929 . S
H1856 C1870 0.930 . S
H1857 C1872 0.960 . S
H1858 C1872 0.960 . S
H1859 C1872 0.960 1_545 S
C1860 H1852 0.929 1_545 S
C1860 C1861 1.377 . S
C1860 C1862 1.388 . S
C1861 C1860 1.377 . S
C1861 C1867 1.390 . S
C1862 H1853 0.913 1_545 S
C1862 C1860 1.388 . S
C1862 C1863 1.385 . S
C1863 C1862 1.385 . S
C1863 C1864 1.400 . S
C1863 C1868 1.490 . S
C1864 H1854 0.930 1_455 S
C1864 C1863 1.400 . S
C1864 C1867 1.386 . S
H1865 C1881 0.930 . S
H1866 C1882 0.931 . S
C1867 H1855 0.929 . S
C1867 C1861 1.390 . S
C1867 C1864 1.386 . S
C1868 C1863 1.490 . S
C1868 C1870 1.395 . S
C1868 C1871 1.403 1_455 S
H1869 C1875 0.930 . S
C1870 H1856 0.930 . S
C1870 C1868 1.395 . S
C1870 C1873 1.403 1_556 S
C1871 C1868 1.403 1_655 S
C1871 C1872 1.524 1_545 S
C1871 C1875 1.400 1_546 S
C1872 H1857 0.960 . S
C1872 H1858 0.960 . S
C1872 H1859 0.960 1_565 S
C1872 C1871 1.524 1_565 S
C1873 C1870 1.403 1_554 S
C1873 C1874 1.392 1_455 S
C1873 C1877 1.495 . S
C1874 C1873 1.392 1_655 S
C1874 C1875 1.385 1_545 S
C1874 C1876 1.478 1_545 S
C1875 H1869 0.930 . S
C1875 C1871 1.400 1_564 S
C1875 C1874 1.385 1_565 S
C1876 C1874 1.478 1_565 S
C1876 C1878 1.381 . S
C1876 C1882 1.383 1_565 S
C1877 C1873 1.495 . S
C1877 H1883 0.959 . S
C1877 H1884 0.961 . S
C1877 H1885 0.960 1_545 S
C1878 C1876 1.381 . S
C1878 C1879 1.394 . S
C1878 H1886 0.930 1_655 S
C1879 C1878 1.394 . S
C1879 C1880 1.383 . S
C1879 H1887 0.929 . S
C1880 C1879 1.383 . S
C1880 C1881 1.377 1_565 S
C1881 H1865 0.930 . S
C1881 C1880 1.377 1_545 S
C1881 C1882 1.379 . S
C1882 H1866 0.931 . S
C1882 C1876 1.383 1_545 S
C1882 C1881 1.379 . S
H1883 C1877 0.959 . S
H1884 C1877 0.961 . S
H1885 C1877 0.960 1_565 S
H1886 C1878 0.930 1_455 S
H1887 C1879 0.929 . S
H1888 C1896 0.929 . S
H1889 C1898 0.930 . S
H1890 C1900 0.930 . S
H1891 C1903 0.929 . S
H1892 C1906 0.930 . S
H1893 C1908 0.960 . S
H1894 C1908 0.960 . S
H1895 C1908 0.960 . S
C1896 H1888 0.929 . S
C1896 C1897 1.377 . S
C1896 C1898 1.384 . S
C1897 C1896 1.377 . S
C1897 C1903 1.390 . S
C1898 H1889 0.930 . S
C1898 C1896 1.384 . S
C1898 C1899 1.372 . S
C1899 C1898 1.372 . S
C1899 C1900 1.400 . S
C1899 C1904 1.490 . S
C1900 H1890 0.930 . S
C1900 C1899 1.400 . S
C1900 C1903 1.386 . S
H1901 C1917 0.930 . S
H1902 C1918 0.931 . S
C1903 H1891 0.929 . S
C1903 C1897 1.390 . S
C1903 C1900 1.386 . S
C1904 C1899 1.490 . S
C1904 C1906 1.395 . S
C1904 C1907 1.403 . S
H1905 C1911 0.930 . S
C1906 H1892 0.930 . S
C1906 C1904 1.395 . S
C1906 C1909 1.403 . S
C1907 C1904 1.403 . S
C1907 C1908 1.524 . S
C1907 C1911 1.400 . S
C1908 H1893 0.960 . S
C1908 H1894 0.960 . S
C1908 H1895 0.960 . S
C1908 C1907 1.524 . S
C1909 C1906 1.403 . S
C1909 C1910 1.392 . S
C1909 C1913 1.495 . S
C1910 C1909 1.392 . S
C1910 C1911 1.385 . S
C1910 C1912 1.478 . S
C1911 H1905 0.930 . S
C1911 C1907 1.400 . S
C1911 C1910 1.385 . S
C1912 C1910 1.478 . S
C1912 C1914 1.381 . S
C1912 C1918 1.383 . S
C1913 C1909 1.495 . S
C1913 H1919 0.959 . S
C1913 H1920 0.961 . S
C1913 H1921 0.960 . S
C1914 C1912 1.381 . S
C1914 C1915 1.394 . S
C1914 H1922 0.930 . S
C1915 C1914 1.394 . S
C1915 C1916 1.383 . S
C1915 H1923 0.929 . S
C1916 C1915 1.383 . S
C1916 C1917 1.377 . S
C1917 H1901 0.930 . S
C1917 C1916 1.377 . S
C1917 C1918 1.379 . S
C1918 H1902 0.931 . S
C1918 C1912 1.383 . S
C1918 C1917 1.379 . S
H1919 C1913 0.959 . S
H1920 C1913 0.961 . S
H1921 C1913 0.960 . S
H1922 C1914 0.930 . S
H1923 C1915 0.929 . S
H1924 C1932 0.929 . S
H1925 C1934 0.930 . S
H1926 C1936 0.930 . S
H1927 C1939 0.929 . S
H1928 C1942 0.930 . S
H1929 C1944 0.960 . S
H1930 C1944 0.960 . S
H1931 C1944 0.960 . S
C1932 H1924 0.929 . S
C1932 C1933 1.377 . S
C1932 C1934 1.384 . S
C1933 C1932 1.377 . S
C1933 C1939 1.390 . S
C1934 H1925 0.930 . S
C1934 C1932 1.384 . S
C1934 C1935 1.372 . S
C1935 C1934 1.372 . S
C1935 C1936 1.400 . S
C1935 C1940 1.490 . S
C1936 H1926 0.930 . S
C1936 C1935 1.400 . S
C1936 C1939 1.386 . S
H1937 C1953 0.930 . S
H1938 C1954 0.931 . S
C1939 H1927 0.929 . S
C1939 C1933 1.390 . S
C1939 C1936 1.386 . S
C1940 C1935 1.490 . S
C1940 C1942 1.395 . S
C1940 C1943 1.403 . S
H1941 C1947 0.930 . S
C1942 H1928 0.930 . S
C1942 C1940 1.395 . S
C1942 C1945 1.403 . S
C1943 C1940 1.403 . S
C1943 C1944 1.524 . S
C1943 C1947 1.400 . S
C1944 H1929 0.960 . S
C1944 H1930 0.960 . S
C1944 H1931 0.960 . S
C1944 C1943 1.524 . S
C1945 C1942 1.403 . S
C1945 C1946 1.392 . S
C1945 C1949 1.495 . S
C1946 C1945 1.392 . S
C1946 C1947 1.385 . S
C1946 C1948 1.478 . S
C1947 H1941 0.930 . S
C1947 C1943 1.400 . S
C1947 C1946 1.385 . S
C1948 C1946 1.478 . S
C1948 C1950 1.381 . S
C1948 C1954 1.383 . S
C1949 C1945 1.495 . S
C1949 H1955 0.959 . S
C1949 H1956 0.961 . S
C1949 H1957 0.960 . S
C1950 C1948 1.381 . S
C1950 C1951 1.394 . S
C1950 H1958 0.930 . S
C1951 C1950 1.394 . S
C1951 C1952 1.383 . S
C1951 H1959 0.929 . S
C1952 C1951 1.383 . S
C1952 C1953 1.377 . S
C1953 H1937 0.930 . S
C1953 C1952 1.377 . S
C1953 C1954 1.379 . S
C1954 H1938 0.931 . S
C1954 C1948 1.383 . S
C1954 C1953 1.379 . S
H1955 C1949 0.959 . S
H1956 C1949 0.961 . S
H1957 C1949 0.960 . S
H1958 C1950 0.930 . S
H1959 C1951 0.929 . S
H1960 C1968 0.929 . S
H1961 C1970 0.930 . S
H1962 C1972 0.930 . S
H1963 C1975 0.929 . S
H1964 C1978 0.930 . S
H1965 C1980 0.960 . S
H1966 C1980 0.960 . S
H1967 C1980 0.960 . S
C1968 H1960 0.929 . S
C1968 C1969 1.377 . S
C1968 C1970 1.384 . S
C1969 C1968 1.377 . S
C1969 C1975 1.390 . S
C1970 H1961 0.930 . S
C1970 C1968 1.384 . S
C1970 C1971 1.372 . S
C1971 C1970 1.372 . S
C1971 C1972 1.400 . S
C1971 C1976 1.490 . S
C1972 H1962 0.930 . S
C1972 C1971 1.400 . S
C1972 C1975 1.386 . S
H1973 C1989 0.930 . S
H1974 C1990 0.931 . S
C1975 H1963 0.929 . S
C1975 C1969 1.390 . S
C1975 C1972 1.386 . S
C1976 C1971 1.490 . S
C1976 C1978 1.395 . S
C1976 C1979 1.403 . S
H1977 C1983 0.930 . S
C1978 H1964 0.930 . S
C1978 C1976 1.395 . S
C1978 C1981 1.403 . S
C1979 C1976 1.403 . S
C1979 C1980 1.524 . S
C1979 C1983 1.400 . S
C1980 H1965 0.960 . S
C1980 H1966 0.960 . S
C1980 H1967 0.960 . S
C1980 C1979 1.524 . S
C1981 C1978 1.403 . S
C1981 C1982 1.392 . S
C1981 C1985 1.495 . S
C1982 C1981 1.392 . S
C1982 C1983 1.385 . S
C1982 C1984 1.478 . S
C1983 H1977 0.930 . S
C1983 C1979 1.400 . S
C1983 C1982 1.385 . S
C1984 C1982 1.478 . S
C1984 C1986 1.381 . S
C1984 C1990 1.383 . S
C1985 C1981 1.495 . S
C1985 H1991 0.959 . S
C1985 H1992 0.961 . S
C1985 H1993 0.960 . S
C1986 C1984 1.381 . S
C1986 C1987 1.394 . S
C1986 H1994 0.930 . S
C1987 C1986 1.394 . S
C1987 C1988 1.383 . S
C1987 H1995 0.929 . S
C1988 C1987 1.383 . S
C1988 C1989 1.377 . S
C1989 H1973 0.930 . S
C1989 C1988 1.377 . S
C1989 C1990 1.379 . S
C1990 H1974 0.931 . S
C1990 C1984 1.383 . S
C1990 C1989 1.379 . S
H1991 C1985 0.959 . S
H1992 C1985 0.961 . S
H1993 C1985 0.960 . S
H1994 C1986 0.930 . S
H1995 C1987 0.929 . S
H1996 C2004 0.929 . S
H1997 C2006 0.930 . S
H1998 C2008 0.930 . S
H1999 C2011 0.929 . S
H2000 C2014 0.930 . S
H2001 C2016 0.960 . S
H2002 C2016 0.960 . S
H2003 C2016 0.960 . S
C2004 H1996 0.929 . S
C2004 C2005 1.377 . S
C2004 C2006 1.384 . S
C2005 C2004 1.377 . S
C2005 C2011 1.390 . S
C2006 H1997 0.930 . S
C2006 C2004 1.384 . S
C2006 C2007 1.372 . S
C2007 C2006 1.372 . S
C2007 C2008 1.400 . S
C2007 C2012 1.490 . S
C2008 H1998 0.930 . S
C2008 C2007 1.400 . S
C2008 C2011 1.386 . S
H2009 C2025 0.930 . S
H2010 C2026 0.931 . S
C2011 H1999 0.929 . S
C2011 C2005 1.390 . S
C2011 C2008 1.386 . S
C2012 C2007 1.490 . S
C2012 C2014 1.395 . S
C2012 C2015 1.403 . S
H2013 C2019 0.930 . S
C2014 H2000 0.930 . S
C2014 C2012 1.395 . S
C2014 C2017 1.403 . S
C2015 C2012 1.403 . S
C2015 C2016 1.524 . S
C2015 C2019 1.400 . S
C2016 H2001 0.960 . S
C2016 H2002 0.960 . S
C2016 H2003 0.960 . S
C2016 C2015 1.524 . S
C2017 C2014 1.403 . S
C2017 C2018 1.392 . S
C2017 C2021 1.495 . S
C2018 C2017 1.392 . S
C2018 C2019 1.385 . S
C2018 C2020 1.478 . S
C2019 H2013 0.930 . S
C2019 C2015 1.400 . S
C2019 C2018 1.385 . S
C2020 C2018 1.478 . S
C2020 C2022 1.381 . S
C2020 C2026 1.383 . S
C2021 C2017 1.495 . S
C2021 H2027 0.959 . S
C2021 H2028 0.961 . S
C2021 H2029 0.960 . S
C2022 C2020 1.381 . S
C2022 C2023 1.394 . S
C2022 H2030 0.930 . S
C2023 C2022 1.394 . S
C2023 C2024 1.383 . S
C2023 H2031 0.929 . S
C2024 C2023 1.383 . S
C2024 C2025 1.377 . S
C2025 H2009 0.930 . S
C2025 C2024 1.377 . S
C2025 C2026 1.379 . S
C2026 H2010 0.931 . S
C2026 C2020 1.383 . S
C2026 C2025 1.379 . S
H2027 C2021 0.959 . S
H2028 C2021 0.961 . S
H2029 C2021 0.960 . S
H2030 C2022 0.930 . S
H2031 C2023 0.929 . S
H2032 C2040 0.929 . S
H2033 C2042 0.930 . S
H2034 C2044 0.930 . S
H2035 C2047 0.929 . S
H2036 C2050 0.930 . S
H2037 C2052 0.960 . S
H2038 C2052 0.960 . S
H2039 C2052 0.960 . S
C2040 H2032 0.929 . S
C2040 C2041 1.377 . S
C2040 C2042 1.384 . S
C2041 C2040 1.377 . S
C2041 C2047 1.390 . S
C2042 H2033 0.930 . S
C2042 C2040 1.384 . S
C2042 C2043 1.372 . S
C2043 C2042 1.372 . S
C2043 C2044 1.400 . S
C2043 C2048 1.490 . S
C2044 H2034 0.930 . S
C2044 C2043 1.400 . S
C2044 C2047 1.386 . S
H2045 C2061 0.930 . S
H2046 C2062 0.931 . S
C2047 H2035 0.929 . S
C2047 C2041 1.390 . S
C2047 C2044 1.386 . S
C2048 C2043 1.490 . S
C2048 C2050 1.395 . S
C2048 C2051 1.403 . S
H2049 C2055 0.930 . S
C2050 H2036 0.930 . S
C2050 C2048 1.395 . S
C2050 C2053 1.403 1_554 S
C2051 C2048 1.403 . S
C2051 C2052 1.524 . S
C2051 C2055 1.400 1_554 S
C2052 H2037 0.960 . S
C2052 H2038 0.960 . S
C2052 H2039 0.960 . S
C2052 C2051 1.524 . S
C2053 C2050 1.403 1_556 S
C2053 C2054 1.392 . S
C2053 C2057 1.495 . S
C2054 C2053 1.392 . S
C2054 C2055 1.385 . S
C2054 C2056 1.478 . S
C2055 H2049 0.930 . S
C2055 C2051 1.400 1_556 S
C2055 C2054 1.385 . S
C2056 C2054 1.478 . S
C2056 C2058 1.381 . S
C2056 C2062 1.383 . S
C2057 C2053 1.495 . S
C2057 H2063 0.959 . S
C2057 H2064 0.961 . S
C2057 H2065 0.960 . S
C2058 C2056 1.381 . S
C2058 C2059 1.394 . S
C2058 H2066 0.930 . S
C2059 C2058 1.394 . S
C2059 C2060 1.383 . S
C2059 H2067 0.929 . S
C2060 C2059 1.383 . S
C2060 C2061 1.377 . S
C2061 H2045 0.930 . S
C2061 C2060 1.377 . S
C2061 C2062 1.379 . S
C2062 H2046 0.931 . S
C2062 C2056 1.383 . S
C2062 C2061 1.379 . S
H2063 C2057 0.959 . S
H2064 C2057 0.961 . S
H2065 C2057 0.960 . S
H2066 C2058 0.930 . S
H2067 C2059 0.929 . S
H2068 C2076 0.929 . S
H2069 C2078 0.930 1_655 S
H2070 C2080 0.930 . S
H2071 C2083 0.929 . S
H2072 C2086 0.930 . S
H2073 C2088 0.960 . S
H2074 C2088 0.960 . S
H2075 C2088 0.960 . S
C2076 H2068 0.929 . S
C2076 C2077 1.377 . S
C2076 C2078 1.384 . S
C2077 C2076 1.377 . S
C2077 C2083 1.390 . S
C2078 H2069 0.930 1_455 S
C2078 C2076 1.384 . S
C2078 C2079 1.372 . S
C2079 C2078 1.372 . S
C2079 C2080 1.400 . S
C2079 C2084 1.490 . S
C2080 H2070 0.930 . S
C2080 C2079 1.400 . S
C2080 C2083 1.386 . S
H2081 C2097 0.930 . S
H2082 C2098 0.931 . S
C2083 H2071 0.929 . S
C2083 C2077 1.390 . S
C2083 C2080 1.386 . S
C2084 C2079 1.490 . S
C2084 C2086 1.395 1_455 S
C2084 C2087 1.403 . S
H2085 C2091 0.930 . S
C2086 H2072 0.930 . S
C2086 C2084 1.395 1_655 S
C2086 C2089 1.403 . S
C2087 C2084 1.403 . S
C2087 C2088 1.524 . S
C2087 C2091 1.400 . S
C2088 H2073 0.960 . S
C2088 H2074 0.960 . S
C2088 H2075 0.960 . S
C2088 C2087 1.524 . S
C2089 C2086 1.403 . S
C2089 C2090 1.392 . S
C2089 C2093 1.495 . S
C2090 C2089 1.392 . S
C2090 C2091 1.385 1_655 S
C2090 C2092 1.478 . S
C2091 H2085 0.930 . S
C2091 C2087 1.400 . S
C2091 C2090 1.385 1_455 S
C2092 C2090 1.478 . S
C2092 C2094 1.381 . S
C2092 C2098 1.383 . S
C2093 C2089 1.495 . S
C2093 H2099 0.959 . S
C2093 H2100 0.961 . S
C2093 H2101 0.960 . S
C2094 C2092 1.381 . S
C2094 C2095 1.394 . S
C2094 H2102 0.930 . S
C2095 C2094 1.394 . S
C2095 C2096 1.383 . S
C2095 H2103 0.929 . S
C2096 C2095 1.383 . S
C2096 C2097 1.377 . S
C2097 H2081 0.930 . S
C2097 C2096 1.377 . S
C2097 C2098 1.379 . S
C2098 H2082 0.931 . S
C2098 C2092 1.383 . S
C2098 C2097 1.379 . S
H2099 C2093 0.959 . S
H2100 C2093 0.961 . S
H2101 C2093 0.960 . S
H2102 C2094 0.930 . S
H2103 C2095 0.929 . S
H2104 C2112 0.929 . S
H2105 C2114 0.930 . S
H2106 C2116 0.930 . S
H2107 C2119 0.929 . S
H2108 C2122 0.930 . S
H2109 C2124 0.949 1_556 S
H2110 C2124 0.964 . S
H2111 C2124 0.968 . S
C2112 H2104 0.929 . S
C2112 C2113 1.377 . S
C2112 C2114 1.384 . S
C2113 C2112 1.377 . S
C2113 C2119 1.390 . S
C2114 H2105 0.930 . S
C2114 C2112 1.384 . S
C2114 C2115 1.372 . S
C2115 C2114 1.372 . S
C2115 C2116 1.400 . S
C2115 C2120 1.490 . S
C2116 H2106 0.930 . S
C2116 C2115 1.400 . S
C2116 C2119 1.386 . S
H2117 C2133 0.930 . S
H2118 C2134 0.931 . S
C2119 H2107 0.929 . S
C2119 C2113 1.390 . S
C2119 C2116 1.386 . S
C2120 C2115 1.490 . S
C2120 C2122 1.395 1_455 S
C2120 C2123 1.387 1_554 S
H2121 C2127 0.930 . S
C2122 H2108 0.930 . S
C2122 C2120 1.395 1_655 S
C2122 C2125 1.403 1_554 S
C2123 C2120 1.387 1_556 S
C2123 C2124 1.523 1_556 S
C2123 C2127 1.418 . S
C2124 H2109 0.949 1_554 S
C2124 H2110 0.964 . S
C2124 H2111 0.968 . S
C2124 C2123 1.523 1_554 S
C2125 C2122 1.403 1_556 S
C2125 C2126 1.392 . S
C2125 C2129 1.495 . S
C2126 C2125 1.392 . S
C2126 C2127 1.385 1_655 S
C2126 C2128 1.478 . S
C2127 H2121 0.930 . S
C2127 C2123 1.418 . S
C2127 C2126 1.385 1_455 S
C2128 C2126 1.478 . S
C2128 C2130 1.381 . S
C2128 C2134 1.383 . S
C2129 C2125 1.495 . S
C2129 H2135 0.959 1_556 S
C2129 H2136 0.961 . S
C2129 H2137 0.960 . S
C2130 C2128 1.381 . S
C2130 C2131 1.394 . S
C2130 H2138 0.930 . S
C2131 C2130 1.394 . S
C2131 C2132 1.383 . S
C2131 H2139 0.929 . S
C2132 C2131 1.383 . S
C2132 C2133 1.377 . S
C2133 H2117 0.930 . S
C2133 C2132 1.377 . S
C2133 C2134 1.379 . S
C2134 H2118 0.931 . S
C2134 C2128 1.383 . S
C2134 C2133 1.379 . S
H2135 C2129 0.959 1_554 S
H2136 C2129 0.961 . S
H2137 C2129 0.960 . S
H2138 C2130 0.930 . S
H2139 C2131 0.929 . S
H2140 C2148 0.929 . S
H2141 C2150 0.930 . S
H2142 C2152 0.930 . S
H2143 C2155 0.929 . S
H2144 C2158 0.930 . S
H2145 C2160 0.960 . S
H2146 C2160 0.960 . S
H2147 C2160 0.960 . S
C2148 H2140 0.929 . S
C2148 C2149 1.377 . S
C2148 C2150 1.384 . S
C2149 C2148 1.377 . S
C2149 C2155 1.390 . S
C2150 H2141 0.930 . S
C2150 C2148 1.384 . S
C2150 C2151 1.372 . S
C2151 C2150 1.372 . S
C2151 C2152 1.400 . S
C2151 C2156 1.490 . S
C2152 H2142 0.930 . S
C2152 C2151 1.400 . S
C2152 C2155 1.386 . S
H2153 C2169 0.930 . S
H2154 C2170 0.931 . S
C2155 H2143 0.929 . S
C2155 C2149 1.390 . S
C2155 C2152 1.386 . S
C2156 C2151 1.490 . S
C2156 C2158 1.395 . S
C2156 C2159 1.403 . S
H2157 C2163 0.930 . S
C2158 H2144 0.930 . S
C2158 C2156 1.395 . S
C2158 C2161 1.403 . S
C2159 C2156 1.403 . S
C2159 C2160 1.524 . S
C2159 C2163 1.400 . S
C2160 H2145 0.960 . S
C2160 H2146 0.960 . S
C2160 H2147 0.960 . S
C2160 C2159 1.524 . S
C2161 C2158 1.403 . S
C2161 C2162 1.392 . S
C2161 C2165 1.495 . S
C2162 C2161 1.392 . S
C2162 C2163 1.385 . S
C2162 C2164 1.478 . S
C2163 H2157 0.930 . S
C2163 C2159 1.400 . S
C2163 C2162 1.385 . S
C2164 C2162 1.478 . S
C2164 C2166 1.381 . S
C2164 C2170 1.383 . S
C2165 C2161 1.495 . S
C2165 H2171 0.959 . S
C2165 H2172 0.961 . S
C2165 H2173 0.960 . S
C2166 C2164 1.381 . S
C2166 C2167 1.394 . S
C2166 H2174 0.930 . S
C2167 C2166 1.394 . S
C2167 C2168 1.383 . S
C2167 H2175 0.929 . S
C2168 C2167 1.383 . S
C2168 C2169 1.377 . S
C2169 H2153 0.930 . S
C2169 C2168 1.377 . S
C2169 C2170 1.379 . S
C2170 H2154 0.931 . S
C2170 C2164 1.383 . S
C2170 C2169 1.379 . S
H2171 C2165 0.959 . S
H2172 C2165 0.961 . S
H2173 C2165 0.960 . S
H2174 C2166 0.930 . S
H2175 C2167 0.929 . S
H2176 C2184 0.929 . S
H2177 C2186 0.930 . S
H2178 C2188 0.930 . S
H2179 C2191 0.929 . S
H2180 C2194 0.930 . S
H2181 C2196 0.960 . S
H2182 C2196 0.960 . S
H2183 C2196 0.960 . S
C2184 H2176 0.929 . S
C2184 C2185 1.377 . S
C2184 C2186 1.384 . S
C2185 C2184 1.377 . S
C2185 C2191 1.390 . S
C2186 H2177 0.930 . S
C2186 C2184 1.384 . S
C2186 C2187 1.372 . S
C2187 C2186 1.372 . S
C2187 C2188 1.400 . S
C2187 C2192 1.490 . S
C2188 H2178 0.930 . S
C2188 C2187 1.400 . S
C2188 C2191 1.386 . S
H2189 C2205 0.930 . S
H2190 C2206 0.931 . S
C2191 H2179 0.929 . S
C2191 C2185 1.390 . S
C2191 C2188 1.386 . S
C2192 C2187 1.490 . S
C2192 C2194 1.395 . S
C2192 C2195 1.403 . S
H2193 C2199 0.930 . S
C2194 H2180 0.930 . S
C2194 C2192 1.395 . S
C2194 C2197 1.403 . S
C2195 C2192 1.403 . S
C2195 C2196 1.524 . S
C2195 C2199 1.400 . S
C2196 H2181 0.960 . S
C2196 H2182 0.960 . S
C2196 H2183 0.960 . S
C2196 C2195 1.524 . S
C2197 C2194 1.403 . S
C2197 C2198 1.392 . S
C2197 C2201 1.495 . S
C2198 C2197 1.392 . S
C2198 C2199 1.385 . S
C2198 C2200 1.478 . S
C2199 H2193 0.930 . S
C2199 C2195 1.400 . S
C2199 C2198 1.385 . S
C2200 C2198 1.478 . S
C2200 C2202 1.381 . S
C2200 C2206 1.383 . S
C2201 C2197 1.495 . S
C2201 H2207 0.959 . S
C2201 H2208 0.961 . S
C2201 H2209 0.960 . S
C2202 C2200 1.381 . S
C2202 C2203 1.394 . S
C2202 H2210 0.930 . S
C2203 C2202 1.394 . S
C2203 C2204 1.383 . S
C2203 H2211 0.929 . S
C2204 C2203 1.383 . S
C2204 C2205 1.377 . S
C2205 H2189 0.930 . S
C2205 C2204 1.377 . S
C2205 C2206 1.379 . S
C2206 H2190 0.931 . S
C2206 C2200 1.383 . S
C2206 C2205 1.379 . S
H2207 C2201 0.959 . S
H2208 C2201 0.961 . S
H2209 C2201 0.960 . S
H2210 C2202 0.930 . S
H2211 C2203 0.929 . S
H2212 C2220 0.929 1_565 S
H2213 C2222 0.930 . S
H2214 C2224 0.930 . S
H2215 C2227 0.929 . S
H2216 C2230 0.930 . S
H2217 C2232 0.960 . S
H2218 C2232 0.960 . S
H2219 C2232 0.960 . S
C2220 H2212 0.929 1_545 S
C2220 C2221 1.377 . S
C2220 C2222 1.384 . S
C2221 C2220 1.377 . S
C2221 C2227 1.390 . S
C2222 H2213 0.930 . S
C2222 C2220 1.384 . S
C2222 C2223 1.372 . S
C2223 C2222 1.372 . S
C2223 C2224 1.400 . S
C2223 C2228 1.490 . S
C2224 H2214 0.930 . S
C2224 C2223 1.400 . S
C2224 C2227 1.386 . S
H2225 C2241 0.930 . S
H2226 C2242 0.931 . S
C2227 H2215 0.929 . S
C2227 C2221 1.390 . S
C2227 C2224 1.386 . S
C2228 C2223 1.490 . S
C2228 C2230 1.395 . S
C2228 C2231 1.403 . S
H2229 C2235 0.930 . S
C2230 H2216 0.930 . S
C2230 C2228 1.395 . S
C2230 C2233 1.403 . S
C2231 C2228 1.403 . S
C2231 C2232 1.524 . S
C2231 C2235 1.400 . S
C2232 H2217 0.960 . S
C2232 H2218 0.960 . S
C2232 H2219 0.960 . S
C2232 C2231 1.524 . S
C2233 C2230 1.403 . S
C2233 C2234 1.392 . S
C2233 C2237 1.495 . S
C2234 C2233 1.392 . S
C2234 C2235 1.385 . S
C2234 C2236 1.478 . S
C2235 H2229 0.930 . S
C2235 C2231 1.400 . S
C2235 C2234 1.385 . S
C2236 C2234 1.478 . S
C2236 C2238 1.381 . S
C2236 C2242 1.383 . S
C2237 C2233 1.495 . S
C2237 H2243 0.959 . S
C2237 H2244 0.961 . S
C2237 H2245 0.960 . S
C2238 C2236 1.381 . S
C2238 C2239 1.394 . S
C2238 H2246 0.930 . S
C2239 C2238 1.394 . S
C2239 C2240 1.383 . S
C2239 H2247 0.929 . S
C2240 C2239 1.383 . S
C2240 C2241 1.377 . S
C2241 H2225 0.930 . S
C2241 C2240 1.377 . S
C2241 C2242 1.379 . S
C2242 H2226 0.931 . S
C2242 C2236 1.383 . S
C2242 C2241 1.379 . S
H2243 C2237 0.959 . S
H2244 C2237 0.961 . S
H2245 C2237 0.960 . S
H2246 C2238 0.930 . S
H2247 C2239 0.929 . S
H2248 C2256 0.929 . S
H2249 C2258 0.930 . S
H2250 C2260 0.930 . S
H2251 C2263 0.929 . S
H2252 C2266 0.930 . S
H2253 C2268 0.960 . S
H2254 C2268 0.960 . S
H2255 C2268 0.960 . S
C2256 H2248 0.929 . S
C2256 C2257 1.377 . S
C2256 C2258 1.384 . S
C2257 C2256 1.377 . S
C2257 C2263 1.390 . S
C2258 H2249 0.930 . S
C2258 C2256 1.384 . S
C2258 C2259 1.372 . S
C2259 C2258 1.372 . S
C2259 C2260 1.400 . S
C2259 C2264 1.490 . S
C2260 H2250 0.930 . S
C2260 C2259 1.400 . S
C2260 C2263 1.386 . S
H2261 C2277 0.930 . S
H2262 C2278 0.931 . S
C2263 H2251 0.929 . S
C2263 C2257 1.390 . S
C2263 C2260 1.386 . S
C2264 C2259 1.490 . S
C2264 C2266 1.395 . S
C2264 C2267 1.403 . S
H2265 C2271 0.930 . S
C2266 H2252 0.930 . S
C2266 C2264 1.395 . S
C2266 C2269 1.403 . S
C2267 C2264 1.403 . S
C2267 C2268 1.524 . S
C2267 C2271 1.400 . S
C2268 H2253 0.960 . S
C2268 H2254 0.960 . S
C2268 H2255 0.960 . S
C2268 C2267 1.524 . S
C2269 C2266 1.403 . S
C2269 C2270 1.392 . S
C2269 C2273 1.495 . S
C2270 C2269 1.392 . S
C2270 C2271 1.385 . S
C2270 C2272 1.478 . S
C2271 H2265 0.930 . S
C2271 C2267 1.400 . S
C2271 C2270 1.385 . S
C2272 C2270 1.478 . S
C2272 C2274 1.381 . S
C2272 C2278 1.383 . S
C2273 C2269 1.495 . S
C2273 H2279 0.959 . S
C2273 H2280 0.961 . S
C2273 H2281 0.960 . S
C2274 C2272 1.381 . S
C2274 C2275 1.394 . S
C2274 H2282 0.930 . S
C2275 C2274 1.394 . S
C2275 C2276 1.383 . S
C2275 H2283 0.929 . S
C2276 C2275 1.383 . S
C2276 C2277 1.377 . S
C2277 H2261 0.930 . S
C2277 C2276 1.377 . S
C2277 C2278 1.379 . S
C2278 H2262 0.931 . S
C2278 C2272 1.383 . S
C2278 C2277 1.379 . S
H2279 C2273 0.959 . S
H2280 C2273 0.961 . S
H2281 C2273 0.960 . S
H2282 C2274 0.930 . S
H2283 C2275 0.929 . S
H2284 C2292 0.929 . S
H2285 C2294 0.930 . S
H2286 C2296 0.930 . S
H2287 C2299 0.929 . S
H2288 C2302 0.930 . S
H2289 C2304 0.960 . S
H2290 C2304 0.960 . S
H2291 C2304 0.960 . S
C2292 H2284 0.929 . S
C2292 C2293 1.377 . S
C2292 C2294 1.384 . S
C2293 C2292 1.377 . S
C2293 C2299 1.390 . S
C2294 H2285 0.930 . S
C2294 C2292 1.384 . S
C2294 C2295 1.372 . S
C2295 C2294 1.372 . S
C2295 C2296 1.400 . S
C2295 C2300 1.490 . S
C2296 H2286 0.930 . S
C2296 C2295 1.400 . S
C2296 C2299 1.386 . S
H2297 C2313 0.930 . S
H2298 C2314 0.931 . S
C2299 H2287 0.929 . S
C2299 C2293 1.390 . S
C2299 C2296 1.386 . S
C2300 C2295 1.490 . S
C2300 C2302 1.395 . S
C2300 C2303 1.403 . S
H2301 C2307 0.930 . S
C2302 H2288 0.930 . S
C2302 C2300 1.395 . S
C2302 C2305 1.403 . S
C2303 C2300 1.403 . S
C2303 C2304 1.524 . S
C2303 C2307 1.400 . S
C2304 H2289 0.960 . S
C2304 H2290 0.960 . S
C2304 H2291 0.960 . S
C2304 C2303 1.524 . S
C2305 C2302 1.403 . S
C2305 C2306 1.392 . S
C2305 C2309 1.495 . S
C2306 C2305 1.392 . S
C2306 C2307 1.385 . S
C2306 C2308 1.478 . S
C2307 H2301 0.930 . S
C2307 C2303 1.400 . S
C2307 C2306 1.385 . S
C2308 C2306 1.478 . S
C2308 C2310 1.381 . S
C2308 C2314 1.383 . S
C2309 C2305 1.495 . S
C2309 H2315 0.959 . S
C2309 H2316 0.961 . S
C2309 H2317 0.960 . S
C2310 C2308 1.381 . S
C2310 C2311 1.394 . S
C2310 H2318 0.930 . S
C2311 C2310 1.394 . S
C2311 C2312 1.383 . S
C2311 H2319 0.929 . S
C2312 C2311 1.383 . S
C2312 C2313 1.377 . S
C2313 H2297 0.930 . S
C2313 C2312 1.377 . S
C2313 C2314 1.379 . S
C2314 H2298 0.931 . S
C2314 C2308 1.383 . S
C2314 C2313 1.379 . S
H2315 C2309 0.959 . S
H2316 C2309 0.961 . S
H2317 C2309 0.960 . S
H2318 C2310 0.930 . S
H2319 C2311 0.929 . S
H2320 C2328 0.929 . S
H2321 C2330 0.930 . S
H2322 C2332 0.930 . S
H2323 C2335 0.929 . S
H2324 C2338 0.930 . S
H2325 C2340 0.960 . S
H2326 C2340 0.960 . S
H2327 C2340 0.960 . S
C2328 H2320 0.929 . S
C2328 C2329 1.377 . S
C2328 C2330 1.384 . S
C2329 C2328 1.377 . S
C2329 C2335 1.390 . S
C2330 H2321 0.930 . S
C2330 C2328 1.384 . S
C2330 C2331 1.372 . S
C2331 C2330 1.372 . S
C2331 C2332 1.400 . S
C2331 C2336 1.490 . S
C2332 H2322 0.930 . S
C2332 C2331 1.400 . S
C2332 C2335 1.386 . S
H2333 C2349 0.930 . S
H2334 C2350 0.931 . S
C2335 H2323 0.929 . S
C2335 C2329 1.390 . S
C2335 C2332 1.386 . S
C2336 C2331 1.490 . S
C2336 C2338 1.395 . S
C2336 C2339 1.403 . S
H2337 C2343 0.930 . S
C2338 H2324 0.930 . S
C2338 C2336 1.395 . S
C2338 C2341 1.403 . S
C2339 C2336 1.403 . S
C2339 C2340 1.524 . S
C2339 C2343 1.400 . S
C2340 H2325 0.960 . S
C2340 H2326 0.960 . S
C2340 H2327 0.960 . S
C2340 C2339 1.524 . S
C2341 C2338 1.403 . S
C2341 C2342 1.392 . S
C2341 C2345 1.495 . S
C2342 C2341 1.392 . S
C2342 C2343 1.385 . S
C2342 C2344 1.478 . S
C2343 H2337 0.930 . S
C2343 C2339 1.400 . S
C2343 C2342 1.385 . S
C2344 C2342 1.478 . S
C2344 C2346 1.381 . S
C2344 C2350 1.383 . S
C2345 C2341 1.495 . S
C2345 H2351 0.959 . S
C2345 H2352 0.961 . S
C2345 H2353 0.960 . S
C2346 C2344 1.381 . S
C2346 C2347 1.394 . S
C2346 H2354 0.930 . S
C2347 C2346 1.394 . S
C2347 C2348 1.383 . S
C2347 H2355 0.929 1_565 S
C2348 C2347 1.383 . S
C2348 C2349 1.377 . S
C2349 H2333 0.930 . S
C2349 C2348 1.377 . S
C2349 C2350 1.379 . S
C2350 H2334 0.931 . S
C2350 C2344 1.383 . S
C2350 C2349 1.379 . S
H2351 C2345 0.959 . S
H2352 C2345 0.961 . S
H2353 C2345 0.960 . S
H2354 C2346 0.930 . S
H2355 C2347 0.929 1_545 S
H2356 C2364 0.929 . S
H2357 C2366 0.930 . S
H2358 C2368 0.930 . S
H2359 C2371 0.929 1_545 S
H2360 C2374 0.930 . S
H2361 C2376 0.960 . S
H2362 C2376 0.960 . S
H2363 C2376 0.960 . S
C2364 H2356 0.929 . S
C2364 C2365 1.377 . S
C2364 C2366 1.384 . S
C2365 C2364 1.377 . S
C2365 C2371 1.390 . S
C2366 H2357 0.930 . S
C2366 C2364 1.384 . S
C2366 C2367 1.372 . S
C2367 C2366 1.372 . S
C2367 C2368 1.400 . S
C2367 C2372 1.490 . S
C2368 H2358 0.930 . S
C2368 C2367 1.400 . S
C2368 C2371 1.386 . S
H2369 C2385 0.930 . S
H2370 C2386 0.931 . S
C2371 H2359 0.929 1_565 S
C2371 C2365 1.390 . S
C2371 C2368 1.386 . S
C2372 C2367 1.490 . S
C2372 C2374 1.395 . S
C2372 C2375 1.403 . S
H2373 C2379 0.930 . S
C2374 H2360 0.930 . S
C2374 C2372 1.395 . S
C2374 C2377 1.403 . S
C2375 C2372 1.403 . S
C2375 C2376 1.524 . S
C2375 C2379 1.400 . S
C2376 H2361 0.960 . S
C2376 H2362 0.960 . S
C2376 H2363 0.960 . S
C2376 C2375 1.524 . S
C2377 C2374 1.403 . S
C2377 C2378 1.392 . S
C2377 C2381 1.495 . S
C2378 C2377 1.392 . S
C2378 C2379 1.385 . S
C2378 C2380 1.478 . S
C2379 H2373 0.930 . S
C2379 C2375 1.400 . S
C2379 C2378 1.385 . S
C2380 C2378 1.478 . S
C2380 C2382 1.381 . S
C2380 C2386 1.383 . S
C2381 C2377 1.495 . S
C2381 H2387 0.959 . S
C2381 H2388 0.961 . S
C2381 H2389 0.960 . S
C2382 C2380 1.381 . S
C2382 C2383 1.394 . S
C2382 H2390 0.930 . S
C2383 C2382 1.394 . S
C2383 C2384 1.383 . S
C2383 H2391 0.929 . S
C2384 C2383 1.383 . S
C2384 C2385 1.377 . S
C2385 H2369 0.930 . S
C2385 C2384 1.377 . S
C2385 C2386 1.379 . S
C2386 H2370 0.931 . S
C2386 C2380 1.383 . S
C2386 C2385 1.379 . S
H2387 C2381 0.959 . S
H2388 C2381 0.961 . S
H2389 C2381 0.960 . S
H2390 C2382 0.930 . S
H2391 C2383 0.929 . S
H2392 C2400 0.929 . S
H2393 C2402 0.930 . S
H2394 C2404 0.930 . S
H2395 C2407 0.929 . S
H2396 C2410 0.930 . S
H2397 C2412 0.960 . S
H2398 C2412 0.960 . S
H2399 C2412 0.960 . S
C2400 H2392 0.929 . S
C2400 C2401 1.377 . S
C2400 C2402 1.384 . S
C2401 C2400 1.377 . S
C2401 C2407 1.390 . S
C2402 H2393 0.930 . S
C2402 C2400 1.384 . S
C2402 C2403 1.372 . S
C2403 C2402 1.372 . S
C2403 C2404 1.400 . S
C2403 C2408 1.490 . S
C2404 H2394 0.930 . S
C2404 C2403 1.400 . S
C2404 C2407 1.386 . S
H2405 C2421 0.930 . S
H2406 C2422 0.931 . S
C2407 H2395 0.929 . S
C2407 C2401 1.390 . S
C2407 C2404 1.386 . S
C2408 C2403 1.490 . S
C2408 C2410 1.395 . S
C2408 C2411 1.403 . S
H2409 C2415 0.930 . S
C2410 H2396 0.930 . S
C2410 C2408 1.395 . S
C2410 C2413 1.403 . S
C2411 C2408 1.403 . S
C2411 C2412 1.524 . S
C2411 C2415 1.400 . S
C2412 H2397 0.960 . S
C2412 H2398 0.960 . S
C2412 H2399 0.960 . S
C2412 C2411 1.524 . S
C2413 C2410 1.403 . S
C2413 C2414 1.392 . S
C2413 C2417 1.495 . S
C2414 C2413 1.392 . S
C2414 C2415 1.385 . S
C2414 C2416 1.478 . S
C2415 H2409 0.930 . S
C2415 C2411 1.400 . S
C2415 C2414 1.385 . S
C2416 C2414 1.478 . S
C2416 C2418 1.381 . S
C2416 C2422 1.383 . S
C2417 C2413 1.495 . S
C2417 H2423 0.959 . S
C2417 H2424 0.961 . S
C2417 H2425 0.960 . S
C2418 C2416 1.381 . S
C2418 C2419 1.394 . S
C2418 H2426 0.930 . S
C2419 C2418 1.394 . S
C2419 C2420 1.383 . S
C2419 H2427 0.929 1_545 S
C2420 C2419 1.383 . S
C2420 C2421 1.377 . S
C2421 H2405 0.930 . S
C2421 C2420 1.377 . S
C2421 C2422 1.379 . S
C2422 H2406 0.931 . S
C2422 C2416 1.383 . S
C2422 C2421 1.379 . S
H2423 C2417 0.959 . S
H2424 C2417 0.961 . S
H2425 C2417 0.960 . S
H2426 C2418 0.930 . S
H2427 C2419 0.929 1_565 S
H2428 C2436 0.929 1_565 S
H2429 C2438 0.930 . S
H2430 C2440 0.930 . S
H2431 C2443 0.929 . S
H2432 C2446 0.930 . S
H2433 C2448 0.960 . S
H2434 C2448 0.960 . S
H2435 C2448 0.960 . S
C2436 H2428 0.929 1_545 S
C2436 C2437 1.377 . S
C2436 C2438 1.384 . S
C2437 C2436 1.377 . S
C2437 C2443 1.390 . S
C2438 H2429 0.930 . S
C2438 C2436 1.384 . S
C2438 C2439 1.372 . S
C2439 C2438 1.372 . S
C2439 C2440 1.400 . S
C2439 C2444 1.490 . S
C2440 H2430 0.930 . S
C2440 C2439 1.400 . S
C2440 C2443 1.386 . S
H2441 C2457 0.930 . S
H2442 C2458 0.931 . S
C2443 H2431 0.929 . S
C2443 C2437 1.390 . S
C2443 C2440 1.386 . S
C2444 C2439 1.490 . S
C2444 C2446 1.395 . S
C2444 C2447 1.403 . S
H2445 C2451 0.930 . S
C2446 H2432 0.930 . S
C2446 C2444 1.395 . S
C2446 C2449 1.403 . S
C2447 C2444 1.403 . S
C2447 C2448 1.524 . S
C2447 C2451 1.400 . S
C2448 H2433 0.960 . S
C2448 H2434 0.960 . S
C2448 H2435 0.960 . S
C2448 C2447 1.524 . S
C2449 C2446 1.403 . S
C2449 C2450 1.392 . S
C2449 C2453 1.495 . S
C2450 C2449 1.392 . S
C2450 C2451 1.385 . S
C2450 C2452 1.478 . S
C2451 H2445 0.930 . S
C2451 C2447 1.400 . S
C2451 C2450 1.385 . S
C2452 C2450 1.478 . S
C2452 C2454 1.381 . S
C2452 C2458 1.383 . S
C2453 C2449 1.495 . S
C2453 H2459 0.959 . S
C2453 H2460 0.961 . S
C2453 H2461 0.960 . S
C2454 C2452 1.381 . S
C2454 C2455 1.394 . S
C2454 H2462 0.930 . S
C2455 C2454 1.394 . S
C2455 C2456 1.383 . S
C2455 H2463 0.929 . S
C2456 C2455 1.383 . S
C2456 C2457 1.377 . S
C2457 H2441 0.930 . S
C2457 C2456 1.377 . S
C2457 C2458 1.379 . S
C2458 H2442 0.931 . S
C2458 C2452 1.383 . S
C2458 C2457 1.379 . S
H2459 C2453 0.959 . S
H2460 C2453 0.961 . S
H2461 C2453 0.960 . S
H2462 C2454 0.930 . S
H2463 C2455 0.929 . S
H2464 C2472 0.929 . S
H2465 C2474 0.930 . S
H2466 C2476 0.930 . S
H2467 C2479 0.929 . S
H2468 C2482 0.930 . S
H2469 C2484 0.960 . S
H2470 C2484 0.960 . S
H2471 C2484 0.960 . S
C2472 H2464 0.929 . S
C2472 C2473 1.377 . S
C2472 C2474 1.384 . S
C2473 C2472 1.377 . S
C2473 C2479 1.390 . S
C2474 H2465 0.930 . S
C2474 C2472 1.384 . S
C2474 C2475 1.372 . S
C2475 C2474 1.372 . S
C2475 C2476 1.400 . S
C2475 C2480 1.490 . S
C2476 H2466 0.930 . S
C2476 C2475 1.400 . S
C2476 C2479 1.386 . S
H2477 C2493 0.930 . S
H2478 C2494 0.931 . S
C2479 H2467 0.929 . S
C2479 C2473 1.390 . S
C2479 C2476 1.386 . S
C2480 C2475 1.490 . S
C2480 C2482 1.395 . S
C2480 C2483 1.403 . S
H2481 C2487 0.930 . S
C2482 H2468 0.930 . S
C2482 C2480 1.395 . S
C2482 C2485 1.403 . S
C2483 C2480 1.403 . S
C2483 C2484 1.524 . S
C2483 C2487 1.400 . S
C2484 H2469 0.960 . S
C2484 H2470 0.960 . S
C2484 H2471 0.960 . S
C2484 C2483 1.524 . S
C2485 C2482 1.403 . S
C2485 C2486 1.392 . S
C2485 C2489 1.495 . S
C2486 C2485 1.392 . S
C2486 C2487 1.385 . S
C2486 C2488 1.478 . S
C2487 H2481 0.930 . S
C2487 C2483 1.400 . S
C2487 C2486 1.385 . S
C2488 C2486 1.478 . S
C2488 C2490 1.381 . S
C2488 C2494 1.383 . S
C2489 C2485 1.495 . S
C2489 H2495 0.959 . S
C2489 H2496 0.961 . S
C2489 H2497 0.960 . S
C2490 C2488 1.381 . S
C2490 C2491 1.394 . S
C2490 H2498 0.930 . S
C2491 C2490 1.394 . S
C2491 C2492 1.383 . S
C2491 H2499 0.929 . S
C2492 C2491 1.383 . S
C2492 C2493 1.377 . S
C2493 H2477 0.930 . S
C2493 C2492 1.377 . S
C2493 C2494 1.379 . S
C2494 H2478 0.931 . S
C2494 C2488 1.383 . S
C2494 C2493 1.379 . S
H2495 C2489 0.959 . S
H2496 C2489 0.961 . S
H2497 C2489 0.960 . S
H2498 C2490 0.930 . S
H2499 C2491 0.929 . S
H2500 C2508 0.929 . S
H2501 C2510 0.930 . S
H2502 C2512 0.930 . S
H2503 C2515 0.929 . S
H2504 C2518 0.930 . S
H2505 C2520 0.960 . S
H2506 C2520 0.960 . S
H2507 C2520 0.960 . S
C2508 H2500 0.929 . S
C2508 C2509 1.377 . S
C2508 C2510 1.384 . S
C2509 C2508 1.377 . S
C2509 C2515 1.390 . S
C2510 H2501 0.930 . S
C2510 C2508 1.384 . S
C2510 C2511 1.372 . S
C2511 C2510 1.372 . S
C2511 C2512 1.400 . S
C2511 C2516 1.490 . S
C2512 H2502 0.930 . S
C2512 C2511 1.400 . S
C2512 C2515 1.386 . S
H2513 C2529 0.930 . S
H2514 C2530 0.931 . S
C2515 H2503 0.929 . S
C2515 C2509 1.390 . S
C2515 C2512 1.386 . S
C2516 C2511 1.490 . S
C2516 C2518 1.395 . S
C2516 C2519 1.403 . S
H2517 C2523 0.930 . S
C2518 H2504 0.930 . S
C2518 C2516 1.395 . S
C2518 C2521 1.403 . S
C2519 C2516 1.403 . S
C2519 C2520 1.524 . S
C2519 C2523 1.400 . S
C2520 H2505 0.960 . S
C2520 H2506 0.960 . S
C2520 H2507 0.960 . S
C2520 C2519 1.524 . S
C2521 C2518 1.403 . S
C2521 C2522 1.392 . S
C2521 C2525 1.495 . S
C2522 C2521 1.392 . S
C2522 C2523 1.385 . S
C2522 C2524 1.478 . S
C2523 H2517 0.930 . S
C2523 C2519 1.400 . S
C2523 C2522 1.385 . S
C2524 C2522 1.478 . S
C2524 C2526 1.381 . S
C2524 C2530 1.383 . S
C2525 C2521 1.495 . S
C2525 H2531 0.959 . S
C2525 H2532 0.961 . S
C2525 H2533 0.960 . S
C2526 C2524 1.381 . S
C2526 C2527 1.394 . S
C2526 H2534 0.930 . S
C2527 C2526 1.394 . S
C2527 C2528 1.383 . S
C2527 H2535 0.929 . S
C2528 C2527 1.383 . S
C2528 C2529 1.377 . S
C2529 H2513 0.930 . S
C2529 C2528 1.377 . S
C2529 C2530 1.379 . S
C2530 H2514 0.931 . S
C2530 C2524 1.383 . S
C2530 C2529 1.379 . S
H2531 C2525 0.959 . S
H2532 C2525 0.961 . S
H2533 C2525 0.960 . S
H2534 C2526 0.930 . S
H2535 C2527 0.929 . S
H2536 C2544 0.929 . S
H2537 C2546 0.930 . S
H2538 C2548 0.930 . S
H2539 C2551 0.929 . S
H2540 C2554 0.930 . S
H2541 C2556 0.960 . S
H2542 C2556 0.960 . S
H2543 C2556 0.960 . S
C2544 H2536 0.929 . S
C2544 C2545 1.377 . S
C2544 C2546 1.384 . S
C2545 C2544 1.377 . S
C2545 C2551 1.390 . S
C2546 H2537 0.930 . S
C2546 C2544 1.384 . S
C2546 C2547 1.372 . S
C2547 C2546 1.372 . S
C2547 C2548 1.400 . S
C2547 C2552 1.490 . S
C2548 H2538 0.930 . S
C2548 C2547 1.400 . S
C2548 C2551 1.386 . S
H2549 C2565 0.930 . S
H2550 C2566 0.931 . S
C2551 H2539 0.929 . S
C2551 C2545 1.390 . S
C2551 C2548 1.386 . S
C2552 C2547 1.490 . S
C2552 C2554 1.395 . S
C2552 C2555 1.403 . S
H2553 C2559 0.930 . S
C2554 H2540 0.930 . S
C2554 C2552 1.395 . S
C2554 C2557 1.403 . S
C2555 C2552 1.403 . S
C2555 C2556 1.524 . S
C2555 C2559 1.400 . S
C2556 H2541 0.960 . S
C2556 H2542 0.960 . S
C2556 H2543 0.960 . S
C2556 C2555 1.524 . S
C2557 C2554 1.403 . S
C2557 C2558 1.392 . S
C2557 C2561 1.495 . S
C2558 C2557 1.392 . S
C2558 C2559 1.385 . S
C2558 C2560 1.478 . S
C2559 H2553 0.930 . S
C2559 C2555 1.400 . S
C2559 C2558 1.385 . S
C2560 C2558 1.478 . S
C2560 C2562 1.381 . S
C2560 C2566 1.383 . S
C2561 C2557 1.495 . S
C2561 H2567 0.959 . S
C2561 H2568 0.961 . S
C2561 H2569 0.960 . S
C2562 C2560 1.381 . S
C2562 C2563 1.394 . S
C2562 H2570 0.930 . S
C2563 C2562 1.394 . S
C2563 C2564 1.383 . S
C2563 H2571 0.929 . S
C2564 C2563 1.383 . S
C2564 C2565 1.377 . S
C2565 H2549 0.930 . S
C2565 C2564 1.377 . S
C2565 C2566 1.379 . S
C2566 H2550 0.931 . S
C2566 C2560 1.383 . S
C2566 C2565 1.379 . S
H2567 C2561 0.959 . S
H2568 C2561 0.961 . S
H2569 C2561 0.960 . S
H2570 C2562 0.930 . S
H2571 C2563 0.929 . S
H2572 C2580 0.929 . S
H2573 C2582 0.930 . S
H2574 C2584 0.930 . S
H2575 C2587 0.929 . S
H2576 C2590 0.930 . S
H2577 C2592 0.960 . S
H2578 C2592 0.960 . S
H2579 C2592 0.960 . S
C2580 H2572 0.929 . S
C2580 C2581 1.377 . S
C2580 C2582 1.384 . S
C2581 C2580 1.377 . S
C2581 C2587 1.390 . S
C2582 H2573 0.930 . S
C2582 C2580 1.384 . S
C2582 C2583 1.372 . S
C2583 C2582 1.372 . S
C2583 C2584 1.400 . S
C2583 C2588 1.490 . S
C2584 H2574 0.930 . S
C2584 C2583 1.400 . S
C2584 C2587 1.386 . S
H2585 C2601 0.930 . S
H2586 C2602 0.931 . S
C2587 H2575 0.929 . S
C2587 C2581 1.390 . S
C2587 C2584 1.386 . S
C2588 C2583 1.490 . S
C2588 C2590 1.395 . S
C2588 C2591 1.403 . S
H2589 C2595 0.930 . S
C2590 H2576 0.930 . S
C2590 C2588 1.395 . S
C2590 C2593 1.403 . S
C2591 C2588 1.403 . S
C2591 C2592 1.524 . S
C2591 C2595 1.400 . S
C2592 H2577 0.960 . S
C2592 H2578 0.960 . S
C2592 H2579 0.960 . S
C2592 C2591 1.524 . S
C2593 C2590 1.403 . S
C2593 C2594 1.392 . S
C2593 C2597 1.495 . S
C2594 C2593 1.392 . S
C2594 C2595 1.385 . S
C2594 C2596 1.478 . S
C2595 H2589 0.930 . S
C2595 C2591 1.400 . S
C2595 C2594 1.385 . S
C2596 C2594 1.478 . S
C2596 C2598 1.381 . S
C2596 C2602 1.383 . S
C2597 C2593 1.495 . S
C2597 H2603 0.959 . S
C2597 H2604 0.961 . S
C2597 H2605 0.960 . S
C2598 C2596 1.381 . S
C2598 C2599 1.394 . S
C2598 H2606 0.930 . S
C2599 C2598 1.394 . S
C2599 C2600 1.383 . S
C2599 H2607 0.929 . S
C2600 C2599 1.383 . S
C2600 C2601 1.377 . S
C2601 H2585 0.930 . S
C2601 C2600 1.377 . S
C2601 C2602 1.379 . S
C2602 H2586 0.931 . S
C2602 C2596 1.383 . S
C2602 C2601 1.379 . S
H2603 C2597 0.959 . S
H2604 C2597 0.961 . S
H2605 C2597 0.960 . S
H2606 C2598 0.930 . S
H2607 C2599 0.929 . S
H2608 C2616 0.929 . S
H2609 C2618 0.930 . S
H2610 C2620 0.930 . S
H2611 C2623 0.929 . S
H2612 C2626 0.930 . S
H2613 C2628 0.960 . S
H2614 C2628 0.960 . S
H2615 C2628 0.960 . S
C2616 H2608 0.929 . S
C2616 C2617 1.377 . S
C2616 C2618 1.384 . S
C2617 C2616 1.377 . S
C2617 C2623 1.390 . S
C2618 H2609 0.930 . S
C2618 C2616 1.384 . S
C2618 C2619 1.372 . S
C2619 C2618 1.372 . S
C2619 C2620 1.400 . S
C2619 C2624 1.490 . S
C2620 H2610 0.930 . S
C2620 C2619 1.400 . S
C2620 C2623 1.386 . S
H2621 C2637 0.930 . S
H2622 C2638 0.931 . S
C2623 H2611 0.929 . S
C2623 C2617 1.390 . S
C2623 C2620 1.386 . S
C2624 C2619 1.490 . S
C2624 C2626 1.395 . S
C2624 C2627 1.403 . S
H2625 C2631 0.930 . S
C2626 H2612 0.930 . S
C2626 C2624 1.395 . S
C2626 C2629 1.403 . S
C2627 C2624 1.403 . S
C2627 C2628 1.524 . S
C2627 C2631 1.400 . S
C2628 H2613 0.960 . S
C2628 H2614 0.960 . S
C2628 H2615 0.960 . S
C2628 C2627 1.524 . S
C2629 C2626 1.403 . S
C2629 C2630 1.392 . S
C2629 C2633 1.495 . S
C2630 C2629 1.392 . S
C2630 C2631 1.385 . S
C2630 C2632 1.478 . S
C2631 H2625 0.930 . S
C2631 C2627 1.400 . S
C2631 C2630 1.385 . S
C2632 C2630 1.478 . S
C2632 C2634 1.381 . S
C2632 C2638 1.383 . S
C2633 C2629 1.495 . S
C2633 H2639 0.959 . S
C2633 H2640 0.961 . S
C2633 H2641 0.960 . S
C2634 C2632 1.381 . S
C2634 C2635 1.394 . S
C2634 H2642 0.930 . S
C2635 C2634 1.394 . S
C2635 C2636 1.383 . S
C2635 H2643 0.929 . S
C2636 C2635 1.383 . S
C2636 C2637 1.377 . S
C2637 H2621 0.930 . S
C2637 C2636 1.377 . S
C2637 C2638 1.379 . S
C2638 H2622 0.931 . S
C2638 C2632 1.383 . S
C2638 C2637 1.379 . S
H2639 C2633 0.959 . S
H2640 C2633 0.961 . S
H2641 C2633 0.960 . S
H2642 C2634 0.930 . S
H2643 C2635 0.929 . S
H2644 C2652 0.929 . S
H2645 C2654 0.930 . S
H2646 C2656 0.930 . S
H2647 C2659 0.929 . S
H2648 C2662 0.930 . S
H2649 C2664 0.960 . S
H2650 C2664 0.960 . S
H2651 C2664 0.960 . S
C2652 H2644 0.929 . S
C2652 C2653 1.377 . S
C2652 C2654 1.384 . S
C2653 C2652 1.377 . S
C2653 C2659 1.390 . S
C2654 H2645 0.930 . S
C2654 C2652 1.384 . S
C2654 C2655 1.372 . S
C2655 C2654 1.372 . S
C2655 C2656 1.400 . S
C2655 C2660 1.490 . S
C2656 H2646 0.930 . S
C2656 C2655 1.400 . S
C2656 C2659 1.386 . S
H2657 C2673 0.930 . S
H2658 C2674 0.931 . S
C2659 H2647 0.929 . S
C2659 C2653 1.390 . S
C2659 C2656 1.386 . S
C2660 C2655 1.490 . S
C2660 C2662 1.395 . S
C2660 C2663 1.403 . S
H2661 C2667 0.930 . S
C2662 H2648 0.930 . S
C2662 C2660 1.395 . S
C2662 C2665 1.403 . S
C2663 C2660 1.403 . S
C2663 C2664 1.524 . S
C2663 C2667 1.400 . S
C2664 H2649 0.960 . S
C2664 H2650 0.960 . S
C2664 H2651 0.960 . S
C2664 C2663 1.524 . S
C2665 C2662 1.403 . S
C2665 C2666 1.392 . S
C2665 C2669 1.495 . S
C2666 C2665 1.392 . S
C2666 C2667 1.385 . S
C2666 C2668 1.478 . S
C2667 H2661 0.930 . S
C2667 C2663 1.400 . S
C2667 C2666 1.385 . S
C2668 C2666 1.478 . S
C2668 C2670 1.381 . S
C2668 C2674 1.383 . S
C2669 C2665 1.495 . S
C2669 H2675 0.959 . S
C2669 H2676 0.961 . S
C2669 H2677 0.960 . S
C2670 C2668 1.381 . S
C2670 C2671 1.394 . S
C2670 H2678 0.930 . S
C2671 C2670 1.394 . S
C2671 C2672 1.383 . S
C2671 H2679 0.929 . S
C2672 C2671 1.383 . S
C2672 C2673 1.377 . S
C2673 H2657 0.930 . S
C2673 C2672 1.377 . S
C2673 C2674 1.379 . S
C2674 H2658 0.931 . S
C2674 C2668 1.383 . S
C2674 C2673 1.379 . S
H2675 C2669 0.959 . S
H2676 C2669 0.961 . S
H2677 C2669 0.960 . S
H2678 C2670 0.930 . S
H2679 C2671 0.929 . S
H2680 C2688 0.929 . S
H2681 C2690 0.930 . S
H2682 C2692 0.930 . S
H2683 C2695 0.929 . S
H2684 C2698 0.930 . S
H2685 C2700 0.960 . S
H2686 C2700 0.960 . S
H2687 C2700 0.960 . S
C2688 H2680 0.929 . S
C2688 C2689 1.377 . S
C2688 C2690 1.384 . S
C2689 C2688 1.377 . S
C2689 C2695 1.390 . S
C2690 H2681 0.930 . S
C2690 C2688 1.384 . S
C2690 C2691 1.372 . S
C2691 C2690 1.372 . S
C2691 C2692 1.400 . S
C2691 C2696 1.490 . S
C2692 H2682 0.930 . S
C2692 C2691 1.400 . S
C2692 C2695 1.386 . S
H2693 C2709 0.930 . S
H2694 C2710 0.931 . S
C2695 H2683 0.929 . S
C2695 C2689 1.390 . S
C2695 C2692 1.386 . S
C2696 C2691 1.490 . S
C2696 C2698 1.395 . S
C2696 C2699 1.403 . S
H2697 C2703 0.930 . S
C2698 H2684 0.930 . S
C2698 C2696 1.395 . S
C2698 C2701 1.403 . S
C2699 C2696 1.403 . S
C2699 C2700 1.524 . S
C2699 C2703 1.400 . S
C2700 H2685 0.960 . S
C2700 H2686 0.960 . S
C2700 H2687 0.960 . S
C2700 C2699 1.524 . S
C2701 C2698 1.403 . S
C2701 C2702 1.392 . S
C2701 C2705 1.495 . S
C2702 C2701 1.392 . S
C2702 C2703 1.385 . S
C2702 C2704 1.478 . S
C2703 H2697 0.930 . S
C2703 C2699 1.400 . S
C2703 C2702 1.385 . S
C2704 C2702 1.478 . S
C2704 C2706 1.381 . S
C2704 C2710 1.383 . S
C2705 C2701 1.495 . S
C2705 H2711 0.959 . S
C2705 H2712 0.961 . S
C2705 H2713 0.960 . S
C2706 C2704 1.381 . S
C2706 C2707 1.394 . S
C2706 H2714 0.930 . S
C2707 C2706 1.394 . S
C2707 C2708 1.383 . S
C2707 H2715 0.929 . S
C2708 C2707 1.383 . S
C2708 C2709 1.377 . S
C2709 H2693 0.930 . S
C2709 C2708 1.377 . S
C2709 C2710 1.379 . S
C2710 H2694 0.931 . S
C2710 C2704 1.383 . S
C2710 C2709 1.379 . S
H2711 C2705 0.959 . S
H2712 C2705 0.961 . S
H2713 C2705 0.960 . S
H2714 C2706 0.930 . S
H2715 C2707 0.929 . S
H2716 C2724 0.929 . S
H2717 C2726 0.930 . S
H2718 C2728 0.930 . S
H2719 C2731 0.929 . S
H2720 C2734 0.930 . S
H2721 C2736 0.960 . S
H2722 C2736 0.960 . S
H2723 C2736 0.960 . S
C2724 H2716 0.929 . S
C2724 C2725 1.377 . S
C2724 C2726 1.384 . S
C2725 C2724 1.377 . S
C2725 C2731 1.390 . S
C2726 H2717 0.930 . S
C2726 C2724 1.384 . S
C2726 C2727 1.372 . S
C2727 C2726 1.372 . S
C2727 C2728 1.400 . S
C2727 C2732 1.490 . S
C2728 H2718 0.930 . S
C2728 C2727 1.400 . S
C2728 C2731 1.386 . S
H2729 C2745 0.930 . S
H2730 C2746 0.931 . S
C2731 H2719 0.929 . S
C2731 C2725 1.390 . S
C2731 C2728 1.386 . S
C2732 C2727 1.490 . S
C2732 C2734 1.395 . S
C2732 C2735 1.403 . S
H2733 C2739 0.930 . S
C2734 H2720 0.930 . S
C2734 C2732 1.395 . S
C2734 C2737 1.403 . S
C2735 C2732 1.403 . S
C2735 C2736 1.524 . S
C2735 C2739 1.400 . S
C2736 H2721 0.960 . S
C2736 H2722 0.960 . S
C2736 H2723 0.960 . S
C2736 C2735 1.524 . S
C2737 C2734 1.403 . S
C2737 C2738 1.392 . S
C2737 C2741 1.495 . S
C2738 C2737 1.392 . S
C2738 C2739 1.385 . S
C2738 C2740 1.478 . S
C2739 H2733 0.930 . S
C2739 C2735 1.400 . S
C2739 C2738 1.385 . S
C2740 C2738 1.478 . S
C2740 C2742 1.381 . S
C2740 C2746 1.383 . S
C2741 C2737 1.495 . S
C2741 H2747 0.959 . S
C2741 H2748 0.961 . S
C2741 H2749 0.960 . S
C2742 C2740 1.381 . S
C2742 C2743 1.394 . S
C2742 H2750 0.930 . S
C2743 C2742 1.394 . S
C2743 C2744 1.383 . S
C2743 H2751 0.929 . S
C2744 C2743 1.383 . S
C2744 C2745 1.377 . S
C2745 H2729 0.930 . S
C2745 C2744 1.377 . S
C2745 C2746 1.379 . S
C2746 H2730 0.931 . S
C2746 C2740 1.383 . S
C2746 C2745 1.379 . S
H2747 C2741 0.959 . S
H2748 C2741 0.961 . S
H2749 C2741 0.960 . S
H2750 C2742 0.930 . S
H2751 C2743 0.929 . S
C457 C383 1.228 . S
C476 C5 1.213 . S
C493 C19 1.221 1_655 S
C512 C117 1.218 . S
C529 C355 1.226 . S
C548 C33 1.233 . S
C565 C47 1.224 . S
C584 C145 1.227 . S
C601 C61 1.224 . S
C620 C411 1.226 . S
C637 C75 1.221 . S
C656 C201 1.218 . S
C673 C89 1.221 . S
C692 C439 1.218 . S
C709 C103 1.224 1_655 S
C728 C173 1.218 . S
C745 C275 1.265 . S
C764 C121 1.230 . S
C781 C9 1.265 . S
C800 C135 1.190 1_455 S
C817 C247 1.267 . S
C836 C149 1.246 . S
C853 C163 1.249 . S
C872 C37 1.267 . S
C889 C303 1.267 . S
C908 C177 1.267 . S
C925 C93 1.263 . S
C944 C191 1.234 . S
C961 C205 1.248 . S
C980 C331 1.264 . S
C997 C65 1.264 . S
C1016 C219 1.264 . S
C1033 C229 1.223 . S
C1052 C159 1.229 . S
C1069 C243 1.220 . S
C1088 C341 1.222 . S
C1105 C131 1.228 . S
C1124 C257 1.207 . S
C1141 C369 1.228 . S
C1160 C271 1.169 1_455 S
C1177 C187 1.225 . S
C1196 C285 1.215 . S
C1213 C425 1.227 . S
C1232 C299 1.207 1_455 S
C1249 C215 1.228 . S
C1268 C313 1.207 . S
C1285 C327 1.220 . S
C1304 C397 1.219 . S
C1321 C51 1.267 . S
C1340 C345 1.265 . S
C1357 C359 1.248 . S
C1376 C233 1.264 . S
C1393 C373 1.250 . S
C1412 C23 1.253 . S
C1429 C387 1.228 1_655 S
C1448 C261 1.266 . S
C1465 C401 1.248 . S
C1484 C79 1.262 . S
C1501 C415 1.230 1_655 S
C1520 C317 1.265 . S
C1537 C429 1.247 . S
C1556 C107 1.258 . S
C1573 C443 1.255 . S
C1592 C289 1.263 . S
C1609 C347 1.512 . S
C1628 C0 1.515 . S
C1645 C14 1.505 . S
C1664 C137 1.515 . S
C1681 C375 1.511 . S
C1700 C28 1.497 . S
C1717 C42 1.502 . S
C1736 C165 1.500 . S
C1753 C403 1.509 . S
C1772 C56 1.489 . S
C1789 C70 1.502 . S
C1808 C193 1.505 . S
C1825 C431 1.511 . S
C1844 C84 1.516 . S
C1861 C98 1.507 . S
C1880 C221 1.507 . S
C1897 C123 1.508 . S
C1916 C224 1.487 . S
C1933 C151 1.512 . S
C1952 C252 1.509 . S
C1969 C179 1.507 . S
C1988 C280 1.503 . S
C2005 C207 1.510 . S
C2024 C308 1.492 . S
C2041 C238 1.507 . S
C2060 C361 1.503 . S
C2077 C389 1.512 . S
C2096 C266 1.513 . S
C2113 C417 1.510 . S
C2132 C294 1.496 . S
C2149 C322 1.502 . S
C2168 C445 1.494 . S
C2185 C11 1.399 . S
C2204 C81 1.401 1_545 S
C2221 C25 1.398 1_545 S
C2240 C95 1.390 . S
C2257 C39 1.399 . S
C2276 C109 1.399 1_565 S
C2293 C67 1.399 . S
C2312 C53 1.401 1_565 S
C2329 C112 1.547 . S
C2348 C182 1.540 1_565 S
C2365 C126 1.547 1_565 S
C2384 C196 1.536 . S
C2401 C140 1.546 . S
C2420 C210 1.547 1_545 S
C2437 C154 1.546 1_545 S
C2456 C168 1.547 . S
C2473 C235 1.397 . S
C2492 C305 1.390 . S
C2509 C319 1.400 . S
C2528 C249 1.402 . S
C2545 C263 1.400 . S
C2564 C333 1.402 . S
C2581 C277 1.397 . S
C2600 C291 1.390 . S
C2617 C406 1.544 . S
C2636 C336 1.552 . S
C2653 C350 1.546 . S
C2672 C420 1.542 . S
C2689 C434 1.546 . S
C2708 C364 1.543 . S
C2725 C378 1.548 . S
C2744 C392 1.534 . S
