# Generated by pormake.
# Topology vbf, (5)-cn, num edge types: 1
# Building blocks:
#     Node 0, Type 0, BuildingBlock: BEQFEK_clean_sbu_0, # of connection points: 5
#     Node 1, Type 0, BuildingBlock: BEQFEK_clean_sbu_0, # of connection points: 5
#     Node 2, Type 0, BuildingBlock: BEQFEK_clean_sbu_0, # of connection points: 5
#     Node 3, Type 0, BuildingBlock: BEQFEK_clean_sbu_0, # of connection points: 5
#     Node 4, Type 0, BuildingBlock: BEQFEK_clean_sbu_0, # of connection points: 5
#     Node 5, Type 0, BuildingBlock: BEQFEK_clean_sbu_0, # of connection points: 5
#     Node 6, Type 0, BuildingBlock: BEQFEK_clean_sbu_0, # of connection points: 5
#     Node 7, Type 0, BuildingBlock: BEQFEK_clean_sbu_0, # of connection points: 5
#     Node 8, Type 0, BuildingBlock: BEQFEK_clean_sbu_0, # of connection points: 5
#     Node 9, Type 0, BuildingBlock: BEQFEK_clean_sbu_0, # of connection points: 5
#     Node 10, Type 0, BuildingBlock: BEQFEK_clean_sbu_0, # of connection points: 5
#     Node 11, Type 0, BuildingBlock: BEQFEK_clean_sbu_0, # of connection points: 5
#     Node 12, Type 0, BuildingBlock: BEQFEK_clean_sbu_0, # of connection points: 5
#     Node 13, Type 0, BuildingBlock: BEQFEK_clean_sbu_0, # of connection points: 5
#     Node 14, Type 0, BuildingBlock: BEQFEK_clean_sbu_0, # of connection points: 5
#     Node 15, Type 0, BuildingBlock: BEQFEK_clean_sbu_0, # of connection points: 5
#     Edge 16, Type (0, 0), BuildingBlock: MIFKUJ_clean_linker_0, # of connection points: 2
#     Edge 17, Type (0, 0), BuildingBlock: MIFKUJ_clean_linker_0, # of connection points: 2
#     Edge 18, Type (0, 0), BuildingBlock: MIFKUJ_clean_linker_0, # of connection points: 2
#     Edge 19, Type (0, 0), BuildingBlock: MIFKUJ_clean_linker_0, # of connection points: 2
#     Edge 20, Type (0, 0), BuildingBlock: MIFKUJ_clean_linker_0, # of connection points: 2
#     Edge 21, Type (0, 0), BuildingBlock: MIFKUJ_clean_linker_0, # of connection points: 2
#     Edge 22, Type (0, 0), BuildingBlock: MIFKUJ_clean_linker_0, # of connection points: 2
#     Edge 23, Type (0, 0), BuildingBlock: MIFKUJ_clean_linker_0, # of connection points: 2
#     Edge 24, Type (0, 0), BuildingBlock: MIFKUJ_clean_linker_0, # of connection points: 2
#     Edge 25, Type (0, 0), BuildingBlock: MIFKUJ_clean_linker_0, # of connection points: 2
#     Edge 26, Type (0, 0), BuildingBlock: MIFKUJ_clean_linker_0, # of connection points: 2
#     Edge 27, Type (0, 0), BuildingBlock: MIFKUJ_clean_linker_0, # of connection points: 2
#     Edge 28, Type (0, 0), BuildingBlock: MIFKUJ_clean_linker_0, # of connection points: 2
#     Edge 29, Type (0, 0), BuildingBlock: MIFKUJ_clean_linker_0, # of connection points: 2
#     Edge 30, Type (0, 0), BuildingBlock: MIFKUJ_clean_linker_0, # of connection points: 2
#     Edge 31, Type (0, 0), BuildingBlock: MIFKUJ_clean_linker_0, # of connection points: 2
#     Edge 32, Type (0, 0), BuildingBlock: MIFKUJ_clean_linker_0, # of connection points: 2
#     Edge 33, Type (0, 0), BuildingBlock: MIFKUJ_clean_linker_0, # of connection points: 2
#     Edge 34, Type (0, 0), BuildingBlock: MIFKUJ_clean_linker_0, # of connection points: 2
#     Edge 35, Type (0, 0), BuildingBlock: MIFKUJ_clean_linker_0, # of connection points: 2
#     Edge 36, Type (0, 0), BuildingBlock: MIFKUJ_clean_linker_0, # of connection points: 2
#     Edge 37, Type (0, 0), BuildingBlock: MIFKUJ_clean_linker_0, # of connection points: 2
#     Edge 38, Type (0, 0), BuildingBlock: MIFKUJ_clean_linker_0, # of connection points: 2
#     Edge 39, Type (0, 0), BuildingBlock: MIFKUJ_clean_linker_0, # of connection points: 2
#     Edge 40, Type (0, 0), BuildingBlock: MIFKUJ_clean_linker_0, # of connection points: 2
#     Edge 41, Type (0, 0), BuildingBlock: MIFKUJ_clean_linker_0, # of connection points: 2
#     Edge 42, Type (0, 0), BuildingBlock: MIFKUJ_clean_linker_0, # of connection points: 2
#     Edge 43, Type (0, 0), BuildingBlock: MIFKUJ_clean_linker_0, # of connection points: 2
#     Edge 44, Type (0, 0), BuildingBlock: MIFKUJ_clean_linker_0, # of connection points: 2
#     Edge 45, Type (0, 0), BuildingBlock: MIFKUJ_clean_linker_0, # of connection points: 2
#     Edge 46, Type (0, 0), BuildingBlock: MIFKUJ_clean_linker_0, # of connection points: 2
#     Edge 47, Type (0, 0), BuildingBlock: MIFKUJ_clean_linker_0, # of connection points: 2
#     Edge 48, Type (0, 0), BuildingBlock: MIFKUJ_clean_linker_0, # of connection points: 2
#     Edge 49, Type (0, 0), BuildingBlock: MIFKUJ_clean_linker_0, # of connection points: 2
#     Edge 50, Type (0, 0), BuildingBlock: MIFKUJ_clean_linker_0, # of connection points: 2
#     Edge 51, Type (0, 0), BuildingBlock: MIFKUJ_clean_linker_0, # of connection points: 2
#     Edge 52, Type (0, 0), BuildingBlock: MIFKUJ_clean_linker_0, # of connection points: 2
#     Edge 53, Type (0, 0), BuildingBlock: MIFKUJ_clean_linker_0, # of connection points: 2
#     Edge 54, Type (0, 0), BuildingBlock: MIFKUJ_clean_linker_0, # of connection points: 2
#     Edge 55, Type (0, 0), BuildingBlock: MIFKUJ_clean_linker_0, # of connection points: 2
# Relax obj value: 0.040
# Max RMSD: 0.098
# Mean RMSD: 0.098
data_MOF--net-vbf--node1-BEQFEK_clean_sbu_0--edge1-MIFKUJ_clean_linker_0
_symmetry_space_group_name_H-M    P1
_symmetry_Int_Tables_number       1
_symmetry_cell_setting            triclinic
loop_
_symmetry_equiv_pos_as_xyz
'x, y, z'
_cell_length_a     47.515884
_cell_length_b     107.37747
_cell_length_c     36.838099
_cell_angle_alpha  89.989166
_cell_angle_beta   89.976649
_cell_angle_gamma 90.004961
loop_
_atom_site_label
_atom_site_type_symbol
_atom_site_fract_x
_atom_site_fract_y
_atom_site_fract_z
_atom_type_partial_charge
Co0 Co 0.09747 0.30944 0.96443 0.0
Co1 Co 0.06002 0.28982 0.00613 0.0
C2 C 0.12366 0.28828 0.00412 0.0
O3 O 0.12614 0.29842 0.9865 0.0
O4 O 0.09955 0.28398 0.01251 0.0
C5 C 0.13754 0.32928 0.95788 0.0
O6 O 0.14366 0.32599 0.99132 0.0
C7 C 0.04023 0.27666 0.072 0.0
C8 C 1.00108 0.26787 0.05238 0.0
C9 C 0.01794 0.26911 0.08288 0.0
N10 N 0.03643 0.27981 0.03691 0.0
N11 N 0.01299 0.2745 0.02542 0.0
C12 C 0.06539 0.28039 0.09395 0.0
H13 H 0.0829 0.2834 0.07626 0.0
H14 H 0.05979 0.28835 0.1117 0.0
H15 H 0.07235 0.27255 0.11142 0.0
C16 C 0.06321 0.32684 0.00962 0.0
N17 N 0.07122 0.31527 0.99972 0.0
N18 N 0.05551 0.30707 0.017 0.0
C19 C 0.03678 0.3132 0.03801 0.0
C20 C 0.04123 0.3259 0.03426 0.0
C21 C 0.07458 0.33859 0.99339 0.0
H22 H 0.07696 0.33747 0.96363 0.0
H23 H 0.09559 0.34053 0.0052 0.0
H24 H 0.0606 0.34665 0.99895 0.0
O25 O 0.07756 0.29997 0.92548 0.0
O26 O 0.04922 0.28684 0.95474 0.0
H27 H 0.00252 0.30038 0.04342 0.0
H28 H 0.99995 0.31381 0.07291 0.0
C29 C 0.01459 0.30699 0.06049 0.0
H30 H 0.02479 0.30167 0.08259 0.0
H31 H 0.00517 0.27536 0.99906 0.0
O32 O 0.11805 0.32353 0.94115 0.0
C33 C 0.05881 0.29146 0.92532 0.0
Co34 Co 0.90325 0.69522 0.96578 0.0
Co35 Co 0.93812 0.71433 0.01296 0.0
C36 C 0.87509 0.71555 0.00808 0.0
O37 O 0.87384 0.70582 0.98845 0.0
O38 O 0.89856 0.71992 0.01874 0.0
C39 C 0.86568 0.67464 0.95804 0.0
O40 O 0.8625 0.6764 0.9931 0.0
C41 C 0.95682 0.72756 0.07981 0.0
C42 C 0.99826 0.73473 0.06247 0.0
C43 C 0.97995 0.73439 0.09175 0.0
N44 N 0.96152 0.72391 0.04529 0.0
N45 N 0.98634 0.72827 0.03518 0.0
C46 C 0.9303 0.72494 0.10046 0.0
H47 H 0.91275 0.72271 0.08195 0.0
H48 H 0.93362 0.71679 0.11844 0.0
H49 H 0.92453 0.73305 0.11761 0.0
C50 C 0.93797 0.67726 0.00821 0.0
N51 N 0.92896 0.68891 1.00089 0.0
N52 N 0.94269 0.69685 0.02164 0.0
C53 C 0.96044 0.69044 0.04332 0.0
C54 C 0.95805 0.6778 0.03556 0.0
C55 C 0.9301 0.666 0.98649 0.0
H56 H 0.92601 0.66863 0.95789 0.0
H57 H 0.91077 0.6618 0.99811 0.0
H58 H 0.94708 0.65891 0.98716 0.0
O59 O 0.92413 0.70512 0.92898 0.0
O60 O 0.94959 0.71828 0.96206 0.0
H61 H 0.99528 0.70211 0.05721 0.0
H62 H 0.98965 0.68935 0.08857 0.0
C63 C 0.97916 0.69634 0.07108 0.0
H64 H 0.96645 0.7025 0.08867 0.0
H65 H 0.99512 0.72685 0.00957 0.0
O66 O 0.88267 0.68155 0.94053 0.0
C67 C 0.94198 0.71396 0.93131 0.0
Co68 Co 0.1545 0.5591 0.21501 0.0
Co69 Co 0.1907 0.53996 0.26035 0.0
C70 C 0.12784 0.53827 0.2578 0.0
O71 O 0.12611 0.54796 0.23794 0.0
O72 O 0.15156 0.53411 0.26837 0.0
C73 C 0.1086 0.5726 0.18191 0.0
O74 O 0.09499 0.56206 0.18633 0.0
C75 C 0.21044 0.52562 0.32376 0.0
C76 C 0.25511 0.52244 0.30997 0.0
C77 C 0.23518 0.52036 0.33677 0.0
N78 N 0.21558 0.53057 0.29084 0.0
N79 N 0.24226 0.52852 0.28264 0.0
C80 C 0.18316 0.52709 0.3436 0.0
H81 H 0.17249 0.53579 0.33502 0.0
H82 H 0.18654 0.52726 0.37341 0.0
H83 H 0.16924 0.51912 0.33687 0.0
C84 C 0.18831 0.57696 0.25785 0.0
N85 N 0.18031 0.56524 0.24984 0.0
N86 N 0.19468 0.55736 0.26992 0.0
C87 C 0.21192 0.56387 0.29203 0.0
C88 C 0.20862 0.57652 0.28499 0.0
C89 C 0.17861 0.58817 0.23714 0.0
H90 H 0.17842 0.58605 0.20768 0.0
H91 H 0.15679 0.59049 0.24547 0.0
H92 H 0.1924 0.59634 0.24183 0.0
O93 O 0.17494 0.54967 0.17696 0.0
O94 O 0.20081 0.5363 0.20879 0.0
H95 H 0.2487 0.55351 0.30632 0.0
H96 H 0.23865 0.56507 0.3396 0.0
C97 C 0.23064 0.55808 0.32 0.0
H98 H 0.21878 0.5509 0.33523 0.0
H99 H 0.25187 0.53154 0.25874 0.0
O100 O 0.13419 0.57332 0.19185 0.0
C101 C 0.19276 0.54079 0.17844 0.0
Co102 Co 0.84638 0.44526 0.21173 0.0
Co103 Co 0.81172 0.46525 0.25573 0.0
C104 C 0.87472 0.46616 0.25206 0.0
O105 O 0.87576 0.45641 0.23242 0.0
O106 O 0.85133 0.47053 0.26309 0.0
C107 C 0.88955 0.42698 0.20063 0.0
O108 O 0.90097 0.43262 0.22863 0.0
C109 C 0.79334 0.4786 0.32116 0.0
C110 C 0.75317 0.48693 0.3034 0.0
C111 C 0.77099 0.48595 0.33315 0.0
N112 N 0.78871 0.47545 0.28631 0.0
N113 N 0.76477 0.48053 0.27579 0.0
C114 C 0.81775 0.47376 0.34262 0.0
H115 H 0.82701 0.46547 0.32914 0.0
H116 H 0.81104 0.47124 0.37053 0.0
H117 H 0.83421 0.48107 0.34425 0.0
C118 C 0.81291 0.42819 0.25789 0.0
N119 N 0.82098 0.43974 0.24805 0.0
N120 N 0.80618 0.44799 0.26636 0.0
C121 C 0.78805 0.4419 0.28835 0.0
C122 C 0.79179 0.42915 0.2838 0.0
C123 C 0.82357 0.41654 0.24031 0.0
H124 H 0.82311 0.41763 0.21038 0.0
H125 H 0.84574 0.41499 0.24859 0.0
H126 H 0.81083 0.40828 0.24791 0.0
O127 O 0.82535 0.4544 0.17328 0.0
O128 O 0.80154 0.46873 0.20429 0.0
H129 H 0.75449 0.45483 0.29763 0.0
H130 H 0.75394 0.44149 0.32774 0.0
C131 C 0.76765 0.44821 0.31331 0.0
H132 H 0.77948 0.45356 0.33395 0.0
H133 H 0.75619 0.47951 0.24987 0.0
O134 O 0.86591 0.43078 0.1888 0.0
C135 C 0.80847 0.46364 0.17431 0.0
Co136 Co 0.09707 0.80999 0.4656 0.0
Co137 Co 0.06306 0.79041 0.51238 0.0
C138 C 0.12607 0.78931 0.5059 0.0
O139 O 0.12663 0.79885 0.4854 0.0
O140 O 0.10298 0.78514 0.51857 0.0
C141 C 0.14112 0.82352 0.42961 0.0
O142 O 0.15428 0.8128 0.43212 0.0
C143 C 0.04433 0.77782 0.5798 0.0
C144 C 0.00531 0.76862 0.56137 0.0
C145 C 0.02231 0.77024 0.59161 0.0
N146 N 0.04023 0.78056 0.54448 0.0
N147 N 0.01686 0.77502 0.53372 0.0
C148 C 0.06955 0.78194 0.60098 0.0
H149 H 0.08663 0.78506 0.58271 0.0
H150 H 0.06373 0.78994 0.61847 0.0
H151 H 0.07723 0.77427 0.61859 0.0
C152 C 0.06497 0.82744 0.51213 0.0
N153 N 0.07265 0.8158 0.50273 0.0
N154 N 0.0581 0.80773 0.52206 0.0
C155 C 0.04047 0.81404 0.54418 0.0
C156 C 0.04431 0.82673 0.53872 0.0
C157 C 0.07725 0.83898 0.49572 0.0
H158 H 0.0707 0.83961 0.46686 0.0
H159 H 0.10055 0.8384 0.49643 0.0
H160 H 0.07042 0.84748 0.51036 0.0
O161 O 0.07528 0.80062 0.42859 0.0
O162 O 0.0516 0.7867 0.46129 0.0
H163 H 0.00775 0.80054 0.55174 0.0
H164 H 0.00219 0.81489 0.57612 0.0
C165 C 0.01828 0.80806 0.56719 0.0
H166 H 0.02825 0.80392 0.59155 0.0
H167 H 0.00883 0.77557 0.5074 0.0
O168 O 0.11608 0.8244 0.44159 0.0
C169 C 0.05816 0.79149 0.43071 0.0
Co170 Co 0.90632 0.19476 0.46453 0.0
Co171 Co 0.9415 0.21493 0.50693 0.0
C172 C 0.87828 0.21546 0.50551 0.0
O173 O 0.87695 0.2056 0.48638 0.0
O174 O 0.90184 0.22 0.51526 0.0
C175 C 0.86674 0.17474 0.45854 0.0
O176 O 0.86009 0.17832 0.49155 0.0
C177 C 0.96026 0.22855 0.57164 0.0
C178 C 0.99938 0.23748 0.55244 0.0
C179 C 0.98214 0.23634 0.58272 0.0
N180 N 0.96456 0.22534 0.53677 0.0
N181 N 0.9879 0.23076 0.52541 0.0
C182 C 0.93657 0.22345 0.59391 0.0
H183 H 0.92795 0.21489 0.58117 0.0
H184 H 0.9438 0.22129 0.62186 0.0
H185 H 0.91944 0.23045 0.59536 0.0
C186 C 0.94136 0.17787 0.51013 0.0
N187 N 0.93275 0.18932 0.50001 0.0
N188 N 0.94772 0.19773 0.51751 0.0
C189 C 0.96651 0.19185 0.53901 0.0
C190 C 0.96292 0.17909 0.53524 0.0
C191 C 0.93074 0.16599 0.49391 0.0
H192 H 0.92856 0.16704 0.4641 0.0
H193 H 0.90971 0.16386 0.50542 0.0
H194 H 0.94507 0.15808 0.49977 0.0
O195 O 0.92607 0.20417 0.42528 0.0
O196 O 0.95091 0.21836 0.45536 0.0
H197 H 0.99948 0.20523 0.54601 0.0
H198 H 0.00258 0.19174 0.57519 0.0
C199 C 0.98763 0.19835 0.56245 0.0
H200 H 0.97649 0.20341 0.58433 0.0
H201 H 0.99608 0.22981 0.49924 0.0
O202 O 0.88642 0.18037 0.44183 0.0
C203 C 0.94309 0.21337 0.42562 0.0
Co204 Co 0.15739 0.05979 0.71393 0.0
Co205 Co 0.19147 0.04019 0.7605 0.0
C206 C 0.12895 0.03858 0.75349 0.0
O207 O 0.12801 0.0483 0.73365 0.0
O208 O 0.15217 0.03447 0.76579 0.0
C209 C 0.1139 0.07787 0.70206 0.0
O210 O 0.10243 0.07223 0.73006 0.0
C211 C 0.209 0.02537 0.82438 0.0
C212 C 0.2538 0.02181 0.81212 0.0
C213 C 0.23325 0.01987 0.83821 0.0
N214 N 0.21519 0.03052 0.792 0.0
N215 N 0.24196 0.02826 0.78476 0.0
C216 C 0.18006 0.02529 0.84048 0.0
H217 H 0.16514 0.02122 0.82064 0.0
H218 H 0.17326 0.035 0.84591 0.0
H219 H 0.17891 0.0197 0.86572 0.0
C220 C 0.18991 0.07724 0.76003 0.0
N221 N 0.1818 0.06563 0.7509 0.0
N222 N 0.19505 0.05753 0.77154 0.0
C223 C 0.21132 0.06378 0.79541 0.0
C224 C 0.20888 0.07651 0.78875 0.0
C225 C 0.1819 0.08861 0.7389 0.0
H226 H 0.181 0.08638 0.70954 0.0
H227 H 0.1607 0.09175 0.74763 0.0
H228 H 0.19715 0.0963 0.743 0.0
O229 O 0.17969 0.05086 0.67667 0.0
O230 O 0.20328 0.03685 0.70922 0.0
H231 H 0.24691 0.05317 0.81288 0.0
H232 H 0.23469 0.06442 0.84592 0.0
C233 C 0.22804 0.05766 0.82486 0.0
H234 H 0.21511 0.05039 0.8381 0.0
H235 H 0.25224 0.03128 0.76132 0.0
O236 O 0.13761 0.07409 0.69038 0.0
C237 C 0.19697 0.0418 0.67877 0.0
Co238 Co 0.8472 0.94589 0.71298 0.0
Co239 Co 0.81249 0.96522 0.75924 0.0
C240 C 0.87529 0.96637 0.75548 0.0
O241 O 0.87641 0.95671 0.73546 0.0
O242 O 0.85189 0.97071 0.76653 0.0
C243 C 0.88645 0.9259 0.70613 0.0
O244 O 0.89162 0.92884 0.74011 0.0
C245 C 0.79404 0.97905 0.82417 0.0
C246 C 0.75232 0.98594 0.8071 0.0
C247 C 0.77103 0.98605 0.83606 0.0
N248 N 0.78891 0.97509 0.79012 0.0
N249 N 0.764 0.9793 0.78005 0.0
C250 C 0.81965 0.97531 0.84514 0.0
H251 H 0.82968 0.96702 0.83261 0.0
H252 H 0.81407 0.97316 0.87372 0.0
H253 H 0.8351 0.98306 0.84476 0.0
C254 C 0.81242 0.92818 0.75604 0.0
N255 N 0.82123 0.9398 0.74811 0.0
N256 N 0.80759 0.94782 0.76866 0.0
C257 C 0.79016 0.94149 0.79101 0.0
C258 C 0.79255 0.9288 0.78372 0.0
C259 C 0.82068 0.91686 0.73484 0.0
H260 H 0.82405 0.91933 0.70595 0.0
H261 H 0.84061 0.91307 0.74598 0.0
H262 H 0.80427 0.90953 0.73646 0.0
O263 O 0.82686 0.95559 0.6753 0.0
O264 O 0.80196 0.96906 0.70799 0.0
H265 H 0.75524 0.95296 0.80602 0.0
H266 H 0.76281 0.94065 0.83825 0.0
C267 C 0.77218 0.94753 0.81937 0.0
H268 H 0.78515 0.95402 0.83556 0.0
H269 H 0.75491 0.97757 0.75475 0.0
O270 O 0.86769 0.93193 0.6889 0.0
C271 C 0.80945 0.9646 0.67737 0.0
Co272 Co 0.5997 0.30967 0.46721 0.0
Co273 Co 0.56315 0.28995 0.51026 0.0
C274 C 0.62646 0.28837 0.50685 0.0
O275 O 0.62848 0.2983 0.48813 0.0
O276 O 0.60259 0.28419 0.5168 0.0
C277 C 0.645 0.32669 0.4505 0.0
O278 O 0.65934 0.31952 0.47267 0.0
C279 C 0.5429 0.27685 0.57602 0.0
C280 C 0.5037 0.2682 0.55603 0.0
C281 C 0.52041 0.26939 0.58667 0.0
N282 N 0.53937 0.28001 0.5409 0.0
N283 N 0.51589 0.27478 0.52918 0.0
C284 C 0.56801 0.28044 0.59826 0.0
H285 H 0.58572 0.28337 0.58074 0.0
H286 H 0.5625 0.2884 0.61603 0.0
H287 H 0.57465 0.27255 0.61576 0.0
C288 C 0.56665 0.32696 0.51315 0.0
N289 N 0.57429 0.31535 0.50335 0.0
N290 N 0.55859 0.30722 0.52089 0.0
C291 C 0.54009 0.31345 0.54196 0.0
C292 C 0.5447 0.32616 0.53791 0.0
C293 C 0.57846 0.33853 0.4964 0.0
H294 H 0.57605 0.33804 0.46648 0.0
H295 H 0.6013 0.3391 0.50247 0.0
H296 H 0.56782 0.34705 0.50651 0.0
O297 O 0.57867 0.30054 0.42851 0.0
O298 O 0.55269 0.2868 0.45887 0.0
H299 H 0.50553 0.30082 0.54795 0.0
H300 H 0.50377 0.31421 0.57776 0.0
C301 C 0.51801 0.30734 0.56485 0.0
H302 H 0.52836 0.30191 0.58661 0.0
H303 H 0.50824 0.27567 0.50277 0.0
O304 O 0.61927 0.3242 0.44428 0.0
C305 C 0.56077 0.29167 0.42905 0.0
Co306 Co 0.40493 0.69531 0.46333 0.0
Co307 Co 0.43987 0.7152 0.50717 0.0
C308 C 0.37682 0.71598 0.50496 0.0
O309 O 0.37578 0.70644 0.48449 0.0
O310 O 0.40024 0.72023 0.51628 0.0
C311 C 0.36037 0.6816 0.42912 0.0
O312 O 0.34746 0.6924 0.43079 0.0
C313 C 0.45889 0.72835 0.57249 0.0
C314 C 0.49844 0.73707 0.55398 0.0
C315 C 0.48105 0.73588 0.58409 0.0
N316 N 0.46317 0.72534 0.53747 0.0
N317 N 0.48676 0.73063 0.52652 0.0
C318 C 0.43499 0.72327 0.59444 0.0
H319 H 0.42618 0.71482 0.58132 0.0
H320 H 0.44206 0.72095 0.62234 0.0
H321 H 0.41805 0.73036 0.59607 0.0
C322 C 0.4386 0.67818 0.50894 0.0
N323 N 0.43063 0.68975 0.49923 0.0
N324 N 0.44584 0.69795 0.51712 0.0
C325 C 0.46431 0.69182 0.53848 0.0
C326 C 0.46023 0.67908 0.53412 0.0
C327 C 0.42718 0.66656 0.49201 0.0
H328 H 0.42959 0.66713 0.4621 0.0
H329 H 0.40436 0.66584 0.49805 0.0
H330 H 0.43809 0.6581 0.50199 0.0
O331 O 0.42551 0.70447 0.42463 0.0
O332 O 0.44926 0.71886 0.45542 0.0
H333 H 0.49775 0.7049 0.54651 0.0
H334 H 0.49997 0.69127 0.57534 0.0
C335 C 0.48546 0.69804 0.56251 0.0
H336 H 0.47429 0.70311 0.58436 0.0
H337 H 0.49501 0.72977 0.50036 0.0
O338 O 0.3854 0.68072 0.44109 0.0
C339 C 0.44218 0.71378 0.42547 0.0
Co340 Co 0.65433 0.5594 0.71226 0.0
Co341 Co 0.69057 0.53995 0.7564 0.0
C342 C 0.62764 0.53848 0.7545 0.0
O343 O 0.6259 0.54833 0.73536 0.0
O344 O 0.65136 0.53407 0.7642 0.0
C345 C 0.60955 0.57698 0.69942 0.0
O346 O 0.59711 0.57078 0.72565 0.0
C347 C 0.71044 0.52544 0.8194 0.0
C348 C 0.75467 0.52173 0.80443 0.0
C349 C 0.73508 0.5199 0.83181 0.0
N350 N 0.71536 0.53032 0.78632 0.0
N351 N 0.74176 0.52795 0.77741 0.0
C352 C 0.68357 0.52727 0.83993 0.0
H353 H 0.67271 0.53583 0.8305 0.0
H354 H 0.68763 0.52796 0.86953 0.0
H355 H 0.66952 0.5192 0.83493 0.0
C356 C 0.68902 0.57698 0.75547 0.0
N357 N 0.68065 0.56534 0.74693 0.0
N358 N 0.69471 0.55728 0.76681 0.0
C359 C 0.712 0.56357 0.78934 0.0
C360 C 0.70923 0.57629 0.78274 0.0
C361 C 0.6796 0.58836 0.7354 0.0
H362 H 0.67819 0.58631 0.70596 0.0
H363 H 0.65834 0.59106 0.74506 0.0
H364 H 0.69427 0.59627 0.73944 0.0
O365 O 0.67393 0.54981 0.67362 0.0
O366 O 0.70089 0.53665 0.70477 0.0
H367 H 0.74808 0.55283 0.80428 0.0
H368 H 0.73795 0.56432 0.83777 0.0
C369 C 0.73002 0.55751 0.81761 0.0
H370 H 0.71757 0.55041 0.83228 0.0
H371 H 0.75115 0.53084 0.75323 0.0
O372 O 0.63407 0.57371 0.68931 0.0
C373 C 0.69215 0.54109 0.67469 0.0
Co374 Co 0.3472 0.44501 0.71467 0.0
Co375 Co 0.31115 0.46448 0.75922 0.0
C376 C 0.3742 0.46641 0.75396 0.0
O377 O 0.37592 0.4566 0.73468 0.0
O378 O 0.35052 0.47043 0.76511 0.0
C379 C 0.39234 0.42793 0.69985 0.0
O380 O 0.40516 0.43449 0.72499 0.0
C381 C 0.29105 0.47707 0.82585 0.0
C382 C 0.25168 0.48576 0.80661 0.0
C383 C 0.26845 0.48438 0.83715 0.0
N384 N 0.28748 0.47421 0.79052 0.0
N385 N 0.2639 0.47946 0.77926 0.0
C386 C 0.31632 0.47332 0.84753 0.0
H387 H 0.33391 0.47057 0.82956 0.0
H388 H 0.31097 0.46518 0.86471 0.0
H389 H 0.32308 0.48106 0.8655 0.0
C390 C 0.31577 0.42746 0.76175 0.0
N391 N 0.32273 0.43912 0.75162 0.0
N392 N 0.30732 0.44715 0.76995 0.0
C393 C 0.28981 0.44079 0.79211 0.0
C394 C 0.2947 0.42812 0.7878 0.0
C395 C 0.32913 0.41597 0.74658 0.0
H396 H 0.35231 0.41668 0.7494 0.0
H397 H 0.32183 0.40744 0.76069 0.0
H398 H 0.32419 0.41527 0.71721 0.0
O399 O 0.32509 0.45393 0.67669 0.0
O400 O 0.30001 0.46774 0.70801 0.0
H401 H 0.25079 0.43965 0.82247 0.0
H402 H 0.27583 0.45096 0.83856 0.0
C403 C 0.26672 0.44662 0.81395 0.0
H404 H 0.25616 0.45396 0.79777 0.0
H405 H 0.25617 0.47875 0.75283 0.0
O406 O 0.3672 0.43073 0.69116 0.0
C407 C 0.30734 0.46284 0.67791 0.0
Co408 Co 0.59831 0.80904 0.96245 0.0
Co409 Co 0.5605 0.79059 0.00779 0.0
C410 C 0.62352 0.78843 0.00678 0.0
O411 O 0.62612 0.79809 0.98701 0.0
O412 O 0.59938 0.78444 0.01629 0.0
C413 C 0.637 0.82939 0.95524 0.0
O414 O 0.63954 0.82784 0.99047 0.0
C415 C 0.54071 0.77664 0.07188 0.0
C416 C 0.4959 0.77355 0.05872 0.0
C417 C 0.51599 0.77147 0.08532 0.0
N418 N 0.53541 0.78154 0.03893 0.0
N419 N 0.50863 0.77956 0.03113 0.0
C420 C 0.56819 0.77805 0.09128 0.0
H421 H 0.57883 0.78675 0.08259 0.0
H422 H 0.56509 0.77821 0.12113 0.0
H423 H 0.58199 0.77007 0.08424 0.0
C424 C 0.56351 0.82757 0.00304 0.0
N425 N 0.5718 0.81579 0.99593 0.0
N426 N 0.55729 0.80807 0.01649 0.0
C427 C 0.54001 0.81473 0.03814 0.0
C428 C 0.5432 0.82731 0.03021 0.0
C429 C 0.57248 0.8387 0.98149 0.0
H430 H 0.57718 0.83598 0.95311 0.0
H431 H 0.5917 0.84274 0.99385 0.0
H432 H 0.55583 0.84595 0.98138 0.0
O433 O 0.5786 0.79913 0.92484 0.0
O434 O 0.54997 0.7868 0.9564 0.0
H435 H 0.5031 0.80463 0.05346 0.0
H436 H 0.51381 0.81626 0.08614 0.0
C437 C 0.52143 0.80915 0.06665 0.0
H438 H 0.53326 0.80199 0.08196 0.0
H439 H 0.49892 0.78253 0.00725 0.0
O440 O 0.62019 0.82242 0.93765 0.0
C441 C 0.55965 0.79074 0.92619 0.0
Co442 Co 0.40533 0.19562 0.96627 0.0
Co443 Co 0.44021 0.21552 0.01053 0.0
C444 C 0.377 0.21632 0.00665 0.0
O445 O 0.37587 0.20639 0.98787 0.0
O446 O 0.40045 0.2209 0.01667 0.0
C447 C 0.36709 0.17516 0.95954 0.0
O448 O 0.36275 0.17747 0.99412 0.0
C449 C 0.45935 0.22917 0.07625 0.0
C450 C 0.49987 0.23688 0.05736 0.0
C451 C 0.48226 0.23631 0.08733 0.0
N452 N 0.46355 0.22557 0.04159 0.0
N453 N 0.48779 0.23027 0.03053 0.0
C454 C 0.43344 0.22618 0.09773 0.0
H455 H 0.41566 0.22379 0.07972 0.0
H456 H 0.43758 0.21801 0.11535 0.0
H457 H 0.42751 0.23417 0.11525 0.0
C458 C 0.43993 0.17837 0.01123 0.0
N459 N 0.43116 0.1899 1.002 0.0
N460 N 0.44553 0.19818 0.02079 0.0
C461 C 0.46387 0.19215 0.04259 0.0
C462 C 0.46078 0.17941 0.0374 0.0
C463 C 0.43072 0.16665 0.99272 0.0
H464 H 0.42718 0.16842 0.96343 0.0
H465 H 0.41073 0.16341 0.00504 0.0
H466 H 0.44664 0.15916 0.99577 0.0
O467 O 0.42589 0.20512 0.92823 0.0
O468 O 0.45095 0.21901 0.95922 0.0
H469 H 0.498 0.20475 0.05179 0.0
H470 H 0.49713 0.19174 0.08303 0.0
C471 C 0.4841 0.19848 0.06765 0.0
H472 H 0.4722 0.20419 0.08735 0.0
H473 H 0.49612 0.22894 0.00461 0.0
O474 O 0.38503 0.18165 0.94223 0.0
C475 C 0.44332 0.21415 0.92919 0.0
Co476 Co 0.65446 0.05963 0.21621 0.0
Co477 Co 0.69226 0.04028 0.25834 0.0
C478 C 0.62899 0.0384 0.25723 0.0
O479 O 0.62646 0.04841 0.23904 0.0
O480 O 0.65308 0.03411 0.26579 0.0
C481 C 0.60784 0.07542 0.19545 0.0
O482 O 0.59287 0.06721 0.21351 0.0
C483 C 0.71135 0.02726 0.32358 0.0
C484 C 0.75324 0.02028 0.30747 0.0
C485 C 0.73446 0.02063 0.33631 0.0
N486 N 0.71627 0.03061 0.28899 0.0
N487 N 0.74127 0.02633 0.27942 0.0
C488 C 0.68595 0.03133 0.34449 0.0
H489 H 0.67684 0.03987 0.33228 0.0
H490 H 0.6914 0.0331 0.37333 0.0
H491 H 0.66982 0.02386 0.34337 0.0
C492 C 0.68717 0.07723 0.2616 0.0
N493 N 0.68027 0.06557 0.2514 0.0
N494 N 0.69582 0.05755 0.26955 0.0
C495 C 0.71314 0.0639 0.29194 0.0
C496 C 0.70815 0.07656 0.2877 0.0
C497 C 0.67375 0.08873 0.24656 0.0
H498 H 0.6784 0.08938 0.2171 0.0
H499 H 0.65058 0.08806 0.24973 0.0
H500 H 0.68137 0.09725 0.26044 0.0
O501 O 0.67457 0.05026 0.1773 0.0
O502 O 0.70308 0.03731 0.20688 0.0
H503 H 0.74773 0.0513 0.29811 0.0
H504 H 0.75039 0.06511 0.32579 0.0
C505 C 0.73567 0.05806 0.31467 0.0
H506 H 0.72579 0.05298 0.33757 0.0
H507 H 0.75034 0.02771 0.25392 0.0
O508 O 0.63437 0.07397 0.19312 0.0
C509 C 0.69351 0.04184 0.17734 0.0
Co510 Co 0.34881 0.94551 0.21553 0.0
Co511 Co 0.31305 0.96479 0.26078 0.0
C512 C 0.37602 0.96625 0.25788 0.0
O513 O 0.37757 0.95655 0.23808 0.0
O514 O 0.35236 0.97048 0.26846 0.0
C515 C 0.39419 0.93216 0.18133 0.0
O516 O 0.4074 0.94284 0.18481 0.0
C517 C 0.29458 0.97888 0.32506 0.0
C518 C 0.25048 0.98334 0.31132 0.0
C519 C 0.27054 0.98468 0.33838 0.0
N520 N 0.28892 0.97435 0.29178 0.0
N521 N 0.26259 0.97715 0.28363 0.0
C522 C 0.32161 0.97654 0.34477 0.0
H523 H 0.33148 0.9678 0.33493 0.0
H524 H 0.31801 0.97588 0.37447 0.0
H525 H 0.33632 0.98435 0.33936 0.0
C526 C 0.31483 0.92779 0.25881 0.0
N527 N 0.32305 0.93946 0.25065 0.0
N528 N 0.30873 0.94743 0.27055 0.0
C529 C 0.29123 0.94102 0.29257 0.0
C530 C 0.29437 0.92834 0.28578 0.0
C531 C 0.32443 0.91651 0.23836 0.0
H532 H 0.32449 0.91854 0.20883 0.0
H533 H 0.34629 0.91422 0.24655 0.0
H534 H 0.31067 0.90835 0.24342 0.0
O535 O 0.32827 0.95496 0.17752 0.0
O536 O 0.30254 0.96839 0.2093 0.0
H537 H 0.25498 0.95189 0.30588 0.0
H538 H 0.26321 0.93999 0.33902 0.0
C539 C 0.27227 0.94693 0.32006 0.0
H540 H 0.28433 0.95382 0.33611 0.0
H541 H 0.25272 0.97461 0.25944 0.0
O542 O 0.36888 0.93126 0.19228 0.0
C543 C 0.31044 0.96383 0.17897 0.0
H544 H 0.13776 0.3356 0.88586 0.0
H545 H 0.16426 0.35241 0.85662 0.0
H546 H 0.19835 0.36323 0.96037 0.0
H547 H 0.17216 0.34639 0.9898 0.0
H548 H 0.17873 0.38348 0.91802 0.0
H549 H 0.23859 0.34742 0.9058 0.0
H550 H 0.24963 0.32583 0.88805 0.0
H551 H 0.2304 0.33444 0.77696 0.0
H552 H 0.21885 0.35606 0.79416 0.0
H553 H 0.28763 0.42371 0.85987 0.0
H554 H 0.26078 0.40684 0.88839 0.0
H555 H 0.23906 0.39258 0.78247 0.0
H556 H 0.26658 0.40929 0.75408 0.0
H557 H 0.25136 0.374 0.82522 0.0
H558 H 0.19214 0.40975 0.83512 0.0
H559 H 0.17996 0.43139 0.85104 0.0
H560 H 0.19536 0.42356 0.9636 0.0
H561 H 0.2081 0.40192 0.94828 0.0
C562 C 0.15085 0.34157 0.90248 0.0
C563 C 0.15296 0.33962 0.94014 0.0
C564 C 0.16602 0.35115 0.88571 0.0
C565 C 0.18339 0.35901 0.90631 0.0
C566 C 0.18508 0.35726 0.94399 0.0
C567 C 0.17019 0.3476 0.96072 0.0
C568 C 0.20009 0.36898 0.88854 0.0
C569 C 0.19485 0.38142 0.89804 0.0
C570 C 0.22053 0.36629 0.86173 0.0
C571 C 0.22757 0.35332 0.85133 0.0
C572 C 0.23648 0.34468 0.87764 0.0
C573 C 0.24287 0.33245 0.86767 0.0
C574 C 0.24064 0.32876 0.83141 0.0
C575 C 0.23208 0.33731 0.80504 0.0
C576 C 0.22562 0.34955 0.81488 0.0
C577 C 0.27715 0.41693 0.84282 0.0
C578 C 0.27912 0.41773 0.8049 0.0
C579 C 0.26171 0.40734 0.85905 0.0
C580 C 0.24748 0.39852 0.8376 0.0
C581 C 0.24982 0.39925 0.79962 0.0
C582 C 0.26552 0.40877 0.78341 0.0
C583 C 0.23015 0.38857 0.85473 0.0
C584 C 0.23521 0.37611 0.84512 0.0
C585 C 0.20929 0.39126 0.88112 0.0
C586 C 0.20134 0.40424 0.8905 0.0
C587 C 0.19312 0.41267 0.86324 0.0
C588 C 0.1861 0.42493 0.87216 0.0
C589 C 0.18695 0.42886 0.9083 0.0
C590 C 0.19475 0.42051 0.93561 0.0
C591 C 0.20186 0.40824 0.92683 0.0
H592 H 0.1815 0.43836 0.91515 0.0
H593 H 0.24561 0.31928 0.82374 0.0
H594 H 0.84372 0.65359 0.98817 0.0
H595 H 0.81838 0.6368 0.95761 0.0
H596 H 0.8257 0.65648 0.8558 0.0
H597 H 0.85242 0.67295 0.88603 0.0
H598 H 0.77184 0.63497 0.92637 0.0
H599 H 0.82535 0.63714 0.7845 0.0
H600 H 0.87165 0.64223 0.75799 0.0
H601 H 0.91188 0.63342 0.85915 0.0
H602 H 0.86589 0.62813 0.8861 0.0
H603 H 0.68929 0.59861 0.80767 0.0
H604 H 0.71614 0.6156 0.83517 0.0
H605 H 0.79227 0.59392 0.82513 0.0
H606 H 0.76584 0.57744 0.79474 0.0
H607 H 0.80527 0.61594 0.81155 0.0
H608 H 0.7531 0.59744 0.90826 0.0
H609 H 0.71101 0.58975 0.94043 0.0
H610 H 0.67585 0.62659 0.93992 0.0
H611 H 0.71759 0.63447 0.90731 0.0
C612 C 0.84004 0.65429 0.95923 0.0
C613 C 0.85018 0.66454 0.93944 0.0
C614 C 0.82546 0.6447 0.94176 0.0
C615 C 0.82032 0.64523 0.90421 0.0
C616 C 0.82997 0.65563 0.88457 0.0
C617 C 0.84512 0.66509 0.9019 0.0
C618 C 0.80459 0.63499 0.88586 0.0
C619 C 0.77922 0.63082 0.90128 0.0
C620 C 0.81433 0.62931 0.85346 0.0
C621 C 0.84213 0.63238 0.8374 0.0
C622 C 0.84409 0.63625 0.80103 0.0
C623 C 0.87028 0.63918 0.78594 0.0
C624 C 0.89468 0.63819 0.80691 0.0
C625 C 0.89296 0.63423 0.84298 0.0
C626 C 0.86683 0.63128 0.85818 0.0
C627 C 0.71182 0.59757 0.81088 0.0
C628 C 0.72542 0.58664 0.79943 0.0
C629 C 0.72713 0.60722 0.82707 0.0
C630 C 0.75624 0.60598 0.83311 0.0
C631 C 0.76987 0.59513 0.82104 0.0
C632 C 0.75467 0.58563 0.8041 0.0
C633 C 0.77253 0.61592 0.85208 0.0
C634 C 0.79791 0.62008 0.83667 0.0
C635 C 0.76344 0.6212 0.88534 0.0
C636 C 0.73834 0.61652 0.90504 0.0
C637 C 0.7363 0.60388 0.9148 0.0
C638 C 0.71253 0.59949 0.93314 0.0
C639 C 0.69074 0.60767 0.94213 0.0
C640 C 0.69273 0.62026 0.93289 0.0
C641 C 0.71645 0.6247 0.9145 0.0
H642 H 0.67235 0.60426 0.95633 0.0
H643 H 0.91493 0.64046 0.79519 0.0
H644 H 0.01504 0.676 0.04476 0.0
H645 H 0.04151 0.65855 0.07048 0.0
H646 H 0.96414 0.63804 0.08464 0.0
H647 H 0.93755 0.65577 0.06074 0.0
H648 H 0.99547 0.63517 0.14205 0.0
H649 H 0.01164 0.63206 0.01384 0.0
H650 H 0.02598 0.63947 0.95322 0.0
H651 H 0.10974 0.64612 0.99238 0.0
H652 H 0.09579 0.63892 0.0534 0.0
H653 H 0.05302 0.57473 0.16384 0.0
H654 H 0.02873 0.59293 0.13936 0.0
H655 H 0.10659 0.61357 0.14016 0.0
H656 H 0.13116 0.59536 0.16471 0.0
H657 H 0.07638 0.61666 0.07616 0.0
H658 H 0.05938 0.61903 0.20454 0.0
H659 H 0.04426 0.61109 0.26426 0.0
H660 H 0.96079 0.60514 0.22311 0.0
H661 H 0.97553 0.61289 0.16297 0.0
C662 C 0.00369 0.66784 0.0539 0.0
C663 C 0.97424 0.66726 0.0511 0.0
C664 C 0.01885 0.65779 0.06814 0.0
C665 C 0.0049 0.64688 0.07911 0.0
C666 C 0.97543 0.64633 0.07637 0.0
C667 C 0.96026 0.65643 0.0625 0.0
C668 C 0.0209 0.63605 0.09366 0.0
C669 C 0.01292 0.63104 0.12736 0.0
C670 C 0.04412 0.63078 0.07498 0.0
C671 C 0.05259 0.63507 0.03827 0.0
C672 C 0.03306 0.63519 0.00959 0.0
C673 C 0.04113 0.63934 0.97515 0.0
C674 C 0.06873 0.64329 0.96898 0.0
C675 C 0.08836 0.64308 0.99721 0.0
C676 C 0.08039 0.63895 0.03172 0.0
C677 C 0.06505 0.58312 0.15878 0.0
C678 C 0.09404 0.58359 0.16634 0.0
C679 C 0.05108 0.59354 0.14489 0.0
C680 C 0.06579 0.60465 0.13826 0.0
C681 C 0.09483 0.6051 0.14514 0.0
C682 C 0.10881 0.59469 0.15926 0.0
C683 C 0.05076 0.61579 0.12428 0.0
C684 C 0.05894 0.62084 0.09077 0.0
C685 C 0.02758 0.62103 0.14296 0.0
C686 C 0.01863 0.61643 0.17916 0.0
C687 C 0.03786 0.61594 0.20814 0.0
C688 C 0.02935 0.61149 0.24208 0.0
C689 C 0.0016 0.60759 0.24745 0.0
C690 C 0.98229 0.60816 0.2189 0.0
C691 C 0.9907 0.61259 0.1849 0.0
H692 H 0.99505 0.60414 0.27375 0.0
H693 H 0.07494 0.6465 0.94229 0.0
H694 H 0.98551 0.33106 0.02605 0.0
H695 H 0.95879 0.34818 0.05383 0.0
H696 H 0.03417 0.36096 0.1074 0.0
H697 H 0.06092 0.34388 0.07936 0.0
H698 H 0.98634 0.35947 0.15343 0.0
H699 H 0.01254 0.37624 0.0369 0.0
H700 H 0.01576 0.37619 0.9701 0.0
H701 H 0.92562 0.37527 0.96231 0.0
H702 H 0.92187 0.37511 0.02912 0.0
H703 H 0.94299 0.41876 0.21342 0.0
H704 H 0.96742 0.4014 0.18463 0.0
H705 H 0.8938 0.39359 0.12 0.0
H706 H 0.86938 0.41121 0.14815 0.0
H707 H 0.93925 0.39195 0.0793 0.0
H708 H 0.91179 0.37541 0.19411 0.0
H709 H 0.90703 0.37473 0.26073 0.0
H710 H 0.99697 0.37425 0.27195 0.0
H711 H 0.00228 0.37511 0.20537 0.0
C712 C 0.99625 0.33753 0.04385 0.0
C713 C 0.02511 0.33619 0.05091 0.0
C714 C 0.98106 0.34731 0.05955 0.0
C715 C 0.99453 0.35584 0.08261 0.0
C716 C 0.02339 0.35445 0.08976 0.0
C717 C 0.03863 0.34476 0.07372 0.0
C718 C 0.97852 0.36622 0.09937 0.0
C719 C 0.97632 0.36667 0.13731 0.0
C720 C 0.96472 0.37535 0.07819 0.0
C721 C 0.96693 0.37553 0.03802 0.0
C722 C 0.99341 0.37591 0.02095 0.0
C723 C 0.99533 0.37594 0.98308 0.0
C724 C 0.97091 0.37569 0.96197 0.0
C725 C 0.94452 0.37545 0.9787 0.0
C726 C 0.94248 0.37539 0.01657 0.0
C727 C 0.93192 0.41335 0.19315 0.0
C728 C 0.90418 0.41635 0.18319 0.0
C729 C 0.94591 0.40337 0.17679 0.0
C730 C 0.93234 0.39604 0.15052 0.0
C731 C 0.9047 0.39908 0.14026 0.0
C732 C 0.89074 0.40914 0.15643 0.0
C733 C 0.94718 0.38531 0.13356 0.0
C734 C 0.94915 0.38475 0.09554 0.0
C735 C 0.96052 0.37598 0.15468 0.0
C736 C 0.95743 0.37544 0.19474 0.0
C737 C 0.93056 0.37526 0.21078 0.0
C738 C 0.92776 0.37483 0.24854 0.0
C739 C 0.95168 0.37448 0.27056 0.0
C740 C 0.97846 0.37454 0.25486 0.0
C741 C 0.98138 0.37498 0.21711 0.0
H742 H 0.94947 0.37414 0.29979 0.0
H743 H 0.97245 0.37572 0.93266 0.0
H744 H 0.19647 0.82539 0.41049 0.0
H745 H 0.22117 0.84361 0.38681 0.0
H746 H 0.14409 0.86476 0.39021 0.0
H747 H 0.11909 0.84654 0.41418 0.0
H748 H 0.17481 0.86769 0.32499 0.0
H749 H 0.19077 0.86971 0.45388 0.0
H750 H 0.20522 0.86135 0.51336 0.0
H751 H 0.28871 0.85502 0.47271 0.0
H752 H 0.27465 0.8632 0.4128 0.0
H753 H 0.23739 0.92657 0.29375 0.0
H754 H 0.21049 0.90927 0.31948 0.0
H755 H 0.28757 0.88882 0.33661 0.0
H756 H 0.3146 0.90647 0.31292 0.0
H757 H 0.25543 0.88575 0.39247 0.0
H758 H 0.24089 0.88272 0.26411 0.0
H759 H 0.22762 0.89007 0.20306 0.0
H760 H 0.14341 0.89712 0.24008 0.0
H761 H 0.15628 0.88996 0.30152 0.0
C762 C 0.18469 0.8339 0.40615 0.0
C763 C 0.15579 0.83451 0.4143 0.0
C764 C 0.19889 0.84432 0.39271 0.0
C765 C 0.18451 0.85556 0.38704 0.0
C766 C 0.15556 0.85617 0.39447 0.0
C767 C 0.14135 0.84576 0.40823 0.0
C768 C 0.19986 0.86667 0.37355 0.0
C769 C 0.19217 0.87178 0.33995 0.0
C770 C 0.22299 0.87176 0.39264 0.0
C771 C 0.23158 0.86697 0.42876 0.0
C772 C 0.21216 0.86646 0.45755 0.0
C773 C 0.22029 0.86176 0.49135 0.0
C774 C 0.24785 0.85763 0.49679 0.0
C775 C 0.26736 0.85822 0.46845 0.0
C776 C 0.25933 0.8629 0.43458 0.0
C777 C 0.24858 0.91844 0.30352 0.0
C778 C 0.27807 0.91785 0.30146 0.0
C779 C 0.23318 0.90849 0.31777 0.0
C780 C 0.24691 0.89761 0.32946 0.0
C781 C 0.27644 0.89707 0.3277 0.0
C782 C 0.29186 0.90711 0.31392 0.0
C783 C 0.23057 0.88681 0.34363 0.0
C784 C 0.23804 0.88173 0.37743 0.0
C785 C 0.20746 0.88165 0.32446 0.0
C786 C 0.19963 0.88592 0.28751 0.0
C787 C 0.21959 0.88592 0.2593 0.0
C788 C 0.21214 0.89004 0.22462 0.0
C789 C 0.18471 0.89409 0.21772 0.0
C790 C 0.16466 0.89399 0.24547 0.0
C791 C 0.17202 0.8899 0.28023 0.0
H792 H 0.17898 0.89728 0.19084 0.0
H793 H 0.2541 0.85399 0.52297 0.0
H794 H 0.86996 0.16697 0.38781 0.0
H795 H 0.84336 0.15017 0.35883 0.0
H796 H 0.8024 0.14207 0.4606 0.0
H797 H 0.82883 0.15886 0.4898 0.0
H798 H 0.82049 0.12069 0.42408 0.0
H799 H 0.76782 0.15813 0.39843 0.0
H800 H 0.76165 0.17953 0.37552 0.0
H801 H 0.78681 0.16776 0.26895 0.0
H802 H 0.7935 0.1463 0.29136 0.0
H803 H 0.7112 0.08191 0.35962 0.0
H804 H 0.73793 0.09869 0.3887 0.0
H805 H 0.76747 0.11085 0.28361 0.0
H806 H 0.7396 0.09439 0.25459 0.0
H807 H 0.75611 0.13019 0.32174 0.0
H808 H 0.80868 0.09302 0.34499 0.0
H809 H 0.81574 0.07146 0.36613 0.0
H810 H 0.79341 0.0823 0.47456 0.0
H811 H 0.78578 0.10391 0.45395 0.0
C812 C 0.85537 0.16159 0.40408 0.0
C813 C 0.85141 0.16431 0.44109 0.0
C814 C 0.84013 0.15201 0.38744 0.0
C815 C 0.82074 0.14494 0.40751 0.0
C816 C 0.81724 0.14742 0.44462 0.0
C817 C 0.83229 0.15706 0.46122 0.0
C818 C 0.8037 0.13509 0.38968 0.0
C819 C 0.80617 0.12276 0.40196 0.0
C820 C 0.78559 0.13776 0.3602 0.0
C821 C 0.78144 0.15064 0.34667 0.0
C822 C 0.77226 0.16012 0.37018 0.0
C823 C 0.76862 0.17226 0.35727 0.0
C824 C 0.77391 0.17501 0.32083 0.0
C825 C 0.78276 0.16562 0.29719 0.0
C826 C 0.78646 0.15347 0.30997 0.0
C827 C 0.72331 0.08825 0.34289 0.0
C828 C 0.72349 0.08694 0.30503 0.0
C829 C 0.73874 0.09777 0.35945 0.0
C830 C 0.75526 0.10592 0.33846 0.0
C831 C 0.75499 0.10469 0.30045 0.0
C832 C 0.73914 0.0953 0.28388 0.0
C833 C 0.77283 0.1157 0.35603 0.0
C834 C 0.77048 0.12805 0.34375 0.0
C835 C 0.79133 0.11301 0.38521 0.0
C836 C 0.79642 0.10007 0.39785 0.0
C837 C 0.80513 0.0908 0.3733 0.0
C838 C 0.80924 0.07857 0.38519 0.0
C839 C 0.80497 0.0755 0.42165 0.0
C840 C 0.79668 0.08468 0.44632 0.0
C841 C 0.79249 0.09693 0.43456 0.0
H842 H 0.80814 0.06603 0.43078 0.0
H843 H 0.77108 0.18441 0.31088 0.0
H844 H 0.01917 0.1746 0.52973 0.0
H845 H 0.04593 0.15757 0.55791 0.0
H846 H 0.96978 0.14381 0.60757 0.0
H847 H 0.94301 0.16081 0.57917 0.0
H848 H 0.01631 0.14518 0.65559 0.0
H849 H 0.99369 0.12935 0.5367 0.0
H850 H 0.99224 0.13004 0.46983 0.0
H851 H 0.08249 0.1316 0.46605 0.0
H852 H 0.08447 0.13112 0.53297 0.0
H853 H 0.05992 0.08566 0.71322 0.0
H854 H 0.03566 0.1031 0.68458 0.0
H855 H 0.1105 0.11177 0.62319 0.0
H856 H 0.13473 0.09406 0.65111 0.0
H857 H 0.06621 0.11366 0.58099 0.0
H858 H 0.09013 0.12922 0.69827 0.0
H859 H 0.09304 0.12926 0.76509 0.0
H860 H 0.00284 0.12918 0.7723 0.0
H861 H 0.99938 0.12895 0.70548 0.0
C862 C 0.00828 0.16795 0.54684 0.0
C863 C 0.97918 0.16898 0.55261 0.0
C864 C 0.02349 0.15822 0.56274 0.0
C865 C 0.00981 0.14942 0.58475 0.0
C866 C 0.98073 0.15053 0.59075 0.0
C867 C 0.96548 0.16018 0.57451 0.0
C868 C 0.02577 0.139 0.60138 0.0
C869 C 0.02696 0.13819 0.63934 0.0
C870 C 0.04036 0.13014 0.5801 0.0
C871 C 0.03921 0.13033 0.53986 0.0
C872 C 0.01322 0.12995 0.52163 0.0
C873 C 0.0123 0.13028 0.48371 0.0
C874 C 0.03725 0.1309 0.4637 0.0
C875 C 0.06318 0.13114 0.48158 0.0
C876 C 0.06421 0.13084 0.5195 0.0
C877 C 0.07128 0.09128 0.69367 0.0
C878 C 0.09931 0.08849 0.68456 0.0
C879 C 0.05739 0.1013 0.67741 0.0
C880 C 0.07136 0.10891 0.65213 0.0
C881 C 0.09928 0.10606 0.64267 0.0
C882 C 0.11313 0.09595 0.6587 0.0
C883 C 0.05666 0.11973 0.63539 0.0
C884 C 0.05569 0.12065 0.59737 0.0
C885 C 0.04252 0.12878 0.65664 0.0
C886 C 0.04451 0.12895 0.69685 0.0
C887 C 0.07091 0.12911 0.7141 0.0
C888 C 0.07266 0.12919 0.75197 0.0
C889 C 0.04814 0.12919 0.77293 0.0
C890 C 0.02182 0.12916 0.75603 0.0
C891 C 0.01995 0.12907 0.71816 0.0
H892 H 0.04954 0.12925 0.80225 0.0
H893 H 0.0365 0.13115 0.43435 0.0
H894 H 0.88588 0.91918 0.63436 0.0
H895 H 0.91251 0.90245 0.60528 0.0
H896 H 0.94863 0.89246 0.70872 0.0
H897 H 0.92269 0.90938 0.73776 0.0
H898 H 0.98791 0.89222 0.65927 0.0
H899 H 0.89499 0.87517 0.66781 0.0
H900 H 0.84353 0.87462 0.65934 0.0
H901 H 0.85444 0.8762 0.54371 0.0
H902 H 0.90598 0.87694 0.55151 0.0
H903 H 0.03796 0.83179 0.61058 0.0
H904 H 0.01093 0.84884 0.6382 0.0
H905 H 0.98707 0.86176 0.53168 0.0
H906 H 0.01422 0.84474 0.50406 0.0
H907 H 0.94177 0.86052 0.58146 0.0
H908 H 0.03551 0.87714 0.57444 0.0
H909 H 0.08681 0.87706 0.58441 0.0
H910 H 0.07377 0.87548 0.69967 0.0
H911 H 0.02234 0.87536 0.69035 0.0
C912 C 0.89944 0.9134 0.65094 0.0
C913 C 0.90211 0.91561 0.68841 0.0
C914 C 0.91458 0.90379 0.63429 0.0
C915 C 0.93236 0.89606 0.65484 0.0
C916 C 0.93508 0.89829 0.69224 0.0
C917 C 0.92016 0.90796 0.70884 0.0
C918 C 0.94845 0.88577 0.63738 0.0
C919 C 0.9777 0.8852 0.64267 0.0
C920 C 0.93532 0.87672 0.61506 0.0
C921 C 0.90434 0.87624 0.61027 0.0
C922 C 0.88641 0.8755 0.64059 0.0
C923 C 0.85722 0.87513 0.63591 0.0
C924 C 0.84572 0.8754 0.60102 0.0
C925 C 0.86338 0.87601 0.57073 0.0
C926 C 0.89258 0.87639 0.57526 0.0
C927 C 0.02695 0.83831 0.59318 0.0
C928 C 0.02825 0.83707 0.5553 0.0
C929 C 0.0116 0.84803 0.6089 0.0
C930 C 0.99713 0.8566 0.58696 0.0
C931 C 0.99811 0.85526 0.54907 0.0
C932 C 0.01372 0.84561 0.53335 0.0
C933 C 0.98104 0.86699 0.60359 0.0
C934 C 0.95186 0.86756 0.59809 0.0
C935 C 0.99416 0.87597 0.62599 0.0
C936 C 0.02507 0.87611 0.63168 0.0
C937 C 0.04357 0.87667 0.6019 0.0
C938 C 0.07268 0.87668 0.60744 0.0
C939 C 0.08354 0.87623 0.64265 0.0
C940 C 0.06532 0.87581 0.67241 0.0
C941 C 0.03619 0.87578 0.66702 0.0
H942 H 0.10608 0.87624 0.64688 0.0
H943 H 0.82312 0.87512 0.59745 0.0
H944 H 0.73495 0.42565 0.28444 0.0
H945 H 0.70872 0.4085 0.31259 0.0
H946 H 0.78677 0.39216 0.34888 0.0
H947 H 0.81297 0.40937 0.32089 0.0
H948 H 0.75228 0.37489 0.3192 0.0
H949 H 0.74461 0.40749 0.40762 0.0
H950 H 0.73348 0.42863 0.42948 0.0
H951 H 0.64692 0.42358 0.39945 0.0
H952 H 0.65763 0.40247 0.37686 0.0
H953 H 0.70105 0.33222 0.4495 0.0
H954 H 0.72423 0.34984 0.42011 0.0
H955 H 0.6439 0.3633 0.38238 0.0
H956 H 0.62041 0.34563 0.41181 0.0
H957 H 0.67775 0.38212 0.41123 0.0
H958 H 0.68552 0.3493 0.32393 0.0
H959 H 0.69699 0.32822 0.30199 0.0
H960 H 0.78375 0.33376 0.33026 0.0
H961 H 0.77272 0.35483 0.35289 0.0
C962 C 0.7464 0.41845 0.29881 0.0
C963 C 0.77589 0.41886 0.30098 0.0
C964 C 0.73145 0.40866 0.3148 0.0
C965 C 0.74576 0.39911 0.3332 0.0
C966 C 0.77529 0.39944 0.33489 0.0
C967 C 0.79022 0.40925 0.31898 0.0
C968 C 0.73 0.38871 0.35036 0.0
C969 C 0.73623 0.37647 0.33965 0.0
C970 C 0.70854 0.39078 0.37636 0.0
C971 C 0.70199 0.40344 0.39018 0.0
C972 C 0.72325 0.41092 0.4054 0.0
C973 C 0.71701 0.42289 0.41796 0.0
C974 C 0.68953 0.42746 0.41576 0.0
C975 C 0.66821 0.42004 0.40108 0.0
C976 C 0.67435 0.40807 0.38841 0.0
C977 C 0.68824 0.33892 0.435 0.0
C978 C 0.65887 0.33748 0.43286 0.0
C979 C 0.70156 0.34897 0.41811 0.0
C980 C 0.68582 0.35782 0.39878 0.0
C981 C 0.65644 0.35656 0.39709 0.0
C982 C 0.64308 0.34643 0.41378 0.0
C983 C 0.70023 0.36833 0.38026 0.0
C984 C 0.69373 0.38057 0.39069 0.0
C985 C 0.7215 0.36627 0.35404 0.0
C986 C 0.72823 0.3536 0.34044 0.0
C987 C 0.707 0.34599 0.32577 0.0
C988 C 0.71343 0.33404 0.31315 0.0
C989 C 0.74106 0.32964 0.31481 0.0
C990 C 0.76234 0.33718 0.32903 0.0
C991 C 0.75602 0.34913 0.34173 0.0
H992 H 0.746 0.32039 0.30502 0.0
H993 H 0.68474 0.43673 0.4255 0.0
H994 H 0.26548 0.57842 0.2941 0.0
H995 H 0.29193 0.59597 0.31954 0.0
H996 H 0.21449 0.61623 0.33495 0.0
H997 H 0.18785 0.5985 0.31076 0.0
H998 H 0.25856 0.63004 0.30011 0.0
H999 H 0.24335 0.60438 0.40577 0.0
H1000 H 0.24517 0.58479 0.4406 0.0
H1001 H 0.33519 0.58408 0.43047 0.0
H1002 H 0.33386 0.60358 0.39504 0.0
H1003 H 0.30529 0.67985 0.40874 0.0
H1004 H 0.28075 0.66175 0.38436 0.0
H1005 H 0.35741 0.64031 0.39028 0.0
H1006 H 0.38201 0.65835 0.41575 0.0
H1007 H 0.31505 0.62668 0.41295 0.0
H1008 H 0.33199 0.65177 0.30853 0.0
H1009 H 0.33202 0.6708 0.27107 0.0
H1010 H 0.24176 0.67205 0.27528 0.0
H1011 H 0.24119 0.65311 0.31322 0.0
C1012 C 0.25409 0.58654 0.30346 0.0
C1013 C 0.22462 0.58708 0.3007 0.0
C1014 C 0.26921 0.59657 0.31777 0.0
C1015 C 0.25514 0.60737 0.32921 0.0
C1016 C 0.22573 0.60798 0.32618 0.0
C1017 C 0.21057 0.59788 0.31233 0.0
C1018 C 0.27113 0.61807 0.34404 0.0
C1019 C 0.27063 0.62938 0.32503 0.0
C1020 C 0.28762 0.61704 0.37585 0.0
C1021 C 0.28848 0.60537 0.39743 0.0
C1022 C 0.26352 0.6 0.41069 0.0
C1023 C 0.26446 0.58892 0.43059 0.0
C1024 C 0.29027 0.58318 0.43765 0.0
C1025 C 0.3152 0.58853 0.42492 0.0
C1026 C 0.31437 0.5996 0.40496 0.0
C1027 C 0.31701 0.6713 0.4048 0.0
C1028 C 0.34568 0.67058 0.41399 0.0
C1029 C 0.30294 0.66096 0.39068 0.0
C1030 C 0.31731 0.6497 0.38487 0.0
C1031 C 0.34588 0.6489 0.3944 0.0
C1032 C 0.35994 0.65923 0.40884 0.0
C1033 C 0.30235 0.63877 0.3692 0.0
C1034 C 0.30306 0.62739 0.38798 0.0
C1035 C 0.28634 0.63969 0.33684 0.0
C1036 C 0.28657 0.65108 0.31402 0.0
C1037 C 0.31215 0.65615 0.30172 0.0
C1038 C 0.31227 0.66691 0.28035 0.0
C1039 C 0.28691 0.67264 0.27088 0.0
C1040 C 0.26138 0.66761 0.28268 0.0
C1041 C 0.26115 0.65685 0.30409 0.0
H1042 H 0.28704 0.68097 0.25433 0.0
H1043 H 0.29096 0.5746 0.45307 0.0
H1044 H 0.43985 0.66025 0.57582 0.0
H1045 H 0.46641 0.64312 0.60365 0.0
H1046 H 0.5432 0.65761 0.55747 0.0
H1047 H 0.51654 0.67467 0.52937 0.0
H1048 H 0.53874 0.63223 0.5492 0.0
H1049 H 0.52976 0.66208 0.64535 0.0
H1050 H 0.50421 0.67633 0.68619 0.0
H1051 H 0.45665 0.64562 0.72879 0.0
H1052 H 0.48163 0.6312 0.68778 0.0
H1053 H 0.6318 0.59437 0.65306 0.0
H1054 H 0.60759 0.61201 0.62486 0.0
H1055 H 0.53023 0.60116 0.67748 0.0
H1056 H 0.55445 0.58375 0.70649 0.0
H1057 H 0.53629 0.62526 0.68231 0.0
H1058 H 0.54356 0.59548 0.5853 0.0
H1059 H 0.56801 0.58108 0.54375 0.0
H1060 H 0.61762 0.61133 0.50224 0.0
H1061 H 0.5937 0.62589 0.5439 0.0
C1062 C 0.4624 0.65973 0.5717 0.0
C1063 C 0.47629 0.66878 0.55086 0.0
C1064 C 0.47755 0.65 0.58765 0.0
C1065 C 0.50685 0.64916 0.58295 0.0
C1066 C 0.52065 0.6581 0.56154 0.0
C1067 C 0.50549 0.66786 0.54573 0.0
C1068 C 0.52305 0.63895 0.6004 0.0
C1069 C 0.53855 0.63079 0.57836 0.0
C1070 C 0.5223 0.63694 0.63835 0.0
C1071 C 0.5074 0.64558 0.66325 0.0
C1072 C 0.51371 0.65838 0.66323 0.0
C1073 C 0.49935 0.66649 0.68644 0.0
C1074 C 0.47878 0.66189 0.71001 0.0
C1075 C 0.47257 0.64917 0.71048 0.0
C1076 C 0.48684 0.64102 0.68729 0.0
C1077 C 0.60962 0.59573 0.65855 0.0
C1078 C 0.59503 0.58763 0.68193 0.0
C1079 C 0.59576 0.60579 0.6423 0.0
C1080 C 0.56694 0.60784 0.64863 0.0
C1081 C 0.55244 0.59979 0.67215 0.0
C1082 C 0.56632 0.58982 0.68867 0.0
C1083 C 0.55186 0.61841 0.6311 0.0
C1084 C 0.53657 0.62667 0.65315 0.0
C1085 C 0.55269 0.62048 0.59312 0.0
C1086 C 0.56704 0.61175 0.56798 0.0
C1087 C 0.55983 0.59904 0.5675 0.0
C1088 C 0.57357 0.59086 0.5439 0.0
C1089 C 0.59441 0.59529 0.52044 0.0
C1090 C 0.6015 0.60792 0.52047 0.0
C1091 C 0.58785 0.61614 0.54404 0.0
H1092 H 0.60502 0.58893 0.50219 0.0
H1093 H 0.46768 0.66818 0.72796 0.0
H1094 H 0.48865 0.3308 0.53082 0.0
H1095 H 0.46165 0.34795 0.55781 0.0
H1096 H 0.53744 0.36207 0.6075 0.0
H1097 H 0.56436 0.34482 0.58074 0.0
H1098 H 0.4929 0.36149 0.65508 0.0
H1099 H 0.51093 0.37597 0.53362 0.0
H1100 H 0.51061 0.37456 0.46682 0.0
H1101 H 0.42044 0.37194 0.46744 0.0
H1102 H 0.42025 0.37314 0.53433 0.0
H1103 H 0.44749 0.42131 0.70715 0.0
H1104 H 0.4719 0.40384 0.67896 0.0
H1105 H 0.39512 0.39287 0.6253 0.0
H1106 H 0.37057 0.41056 0.65292 0.0
H1107 H 0.43846 0.39126 0.57971 0.0
H1108 H 0.41961 0.37707 0.70018 0.0
H1109 H 0.41908 0.37806 0.76704 0.0
H1110 H 0.50937 0.37955 0.76862 0.0
H1111 H 0.51044 0.37875 0.7017 0.0
C1112 C 0.49942 0.33756 0.54765 0.0
C1113 C 0.52845 0.33652 0.55398 0.0
C1114 C 0.48408 0.34737 0.56285 0.0
C1115 C 0.49757 0.35633 0.5845 0.0
C1116 C 0.52661 0.35525 0.59091 0.0
C1117 C 0.54197 0.34546 0.57557 0.0
C1118 C 0.4814 0.36678 0.60071 0.0
C1119 C 0.48128 0.3681 0.6386 0.0
C1120 C 0.46553 0.37516 0.57924 0.0
C1121 C 0.4656 0.37452 0.53901 0.0
C1122 C 0.49105 0.37499 0.51954 0.0
C1123 C 0.49096 0.37425 0.48165 0.0
C1124 C 0.46552 0.37313 0.4629 0.0
C1125 C 0.44012 0.37279 0.482 0.0
C1126 C 0.4401 0.37351 0.5199 0.0
C1127 C 0.43572 0.41519 0.68939 0.0
C1128 C 0.40703 0.41731 0.68242 0.0
C1129 C 0.44972 0.40516 0.67338 0.0
C1130 C 0.43527 0.3969 0.65043 0.0
C1131 C 0.40669 0.39908 0.64299 0.0
C1132 C 0.39268 0.40919 0.65886 0.0
C1133 C 0.45014 0.38606 0.63415 0.0
C1134 C 0.44999 0.38465 0.59625 0.0
C1135 C 0.46563 0.37753 0.65563 0.0
C1136 C 0.46508 0.37796 0.6959 0.0
C1137 C 0.43935 0.37771 0.71477 0.0
C1138 C 0.43895 0.37822 0.75268 0.0
C1139 C 0.46417 0.3789 0.77206 0.0
C1140 C 0.48985 0.37904 0.75357 0.0
C1141 C 0.49036 0.37854 0.71564 0.0
H1142 H 0.46382 0.37929 0.80142 0.0
H1143 H 0.4655 0.37256 0.43357 0.0
H1144 H 0.64905 0.8312 0.88284 0.0
H1145 H 0.67659 0.84735 0.85229 0.0
H1146 H 0.68703 0.86655 0.95436 0.0
H1147 H 0.66072 0.85012 0.98519 0.0
H1148 H 0.67074 0.87028 0.83986 0.0
H1149 H 0.74715 0.88242 0.95841 0.0
H1150 H 0.77042 0.87185 0.00976 0.0
H1151 H 0.7635 0.83678 0.95449 0.0
H1152 H 0.74055 0.84715 0.90263 0.0
H1153 H 0.73606 0.92737 0.79797 0.0
H1154 H 0.71049 0.91029 0.82671 0.0
H1155 H 0.78729 0.88886 0.832 0.0
H1156 H 0.81331 0.90645 0.80651 0.0
H1157 H 0.76186 0.88493 0.88969 0.0
H1158 H 0.73167 0.88373 0.76669 0.0
H1159 H 0.71251 0.89181 0.7091 0.0
H1160 H 0.63439 0.90048 0.76199 0.0
H1161 H 0.65322 0.8926 0.82003 0.0
C1162 C 0.65733 0.83885 0.89876 0.0
C1163 C 0.65297 0.83933 0.93647 0.0
C1164 C 0.67302 0.84811 0.88125 0.0
C1165 C 0.68438 0.85812 0.90101 0.0
C1166 C 0.67925 0.85877 0.93856 0.0
C1167 C 0.66406 0.8494 0.95617 0.0
C1168 C 0.7014 0.86789 0.88237 0.0
C1169 C 0.6907 0.87345 0.85074 0.0
C1170 C 0.72786 0.87186 0.89583 0.0
C1171 C 0.74187 0.86556 0.92681 0.0
C1172 C 0.75069 0.87246 0.95716 0.0
C1173 C 0.76381 0.8665 0.98637 0.0
C1174 C 0.76835 0.85365 0.98544 0.0
C1175 C 0.75987 0.84673 0.95524 0.0
C1176 C 0.74678 0.85264 0.92596 0.0
C1177 C 0.74757 0.91911 0.80595 0.0
C1178 C 0.77675 0.9183 0.80032 0.0
C1179 C 0.73283 0.90923 0.82177 0.0
C1180 C 0.74675 0.89811 0.83103 0.0
C1181 C 0.77594 0.89729 0.82517 0.0
C1182 C 0.79079 0.9073 0.81023 0.0
C1183 C 0.73106 0.88744 0.84736 0.0
C1184 C 0.74197 0.88173 0.87866 0.0
C1185 C 0.70541 0.88297 0.83265 0.0
C1186 C 0.69395 0.88767 0.79778 0.0
C1187 C 0.71047 0.88743 0.76609 0.0
C1188 C 0.69966 0.89196 0.73336 0.0
C1189 C 0.67228 0.89668 0.73191 0.0
C1190 C 0.65561 0.89684 0.76317 0.0
C1191 C 0.66633 0.89233 0.79598 0.0
H1192 H 0.66395 0.90019 0.70655 0.0
H1193 H 0.77849 0.84906 0.00808 0.0
H1194 H 0.35717 0.17262 0.88687 0.0
H1195 H 0.32905 0.15661 0.85667 0.0
H1196 H 0.31442 0.13873 0.95995 0.0
H1197 H 0.34127 0.15508 0.99036 0.0
H1198 H 0.33296 0.1336 0.84631 0.0
H1199 H 0.25292 0.12392 0.96305 0.0
H1200 H 0.22942 0.13541 0.01251 0.0
H1201 H 0.24072 0.16974 0.95447 0.0
H1202 H 0.26393 0.15843 0.90448 0.0
H1203 H 0.26483 0.07732 0.80597 0.0
H1204 H 0.29062 0.09423 0.83502 0.0
H1205 H 0.21506 0.11657 0.83623 0.0
H1206 H 0.18861 0.09913 0.81054 0.0
H1207 H 0.23968 0.12089 0.89411 0.0
H1208 H 0.27228 0.1205 0.77224 0.0
H1209 H 0.29183 0.11168 0.71581 0.0
H1210 H 0.3683 0.10232 0.77156 0.0
H1211 H 0.34907 0.11094 0.82847 0.0
C1212 C 0.34789 0.16528 0.90311 0.0
C1213 C 0.3512 0.16516 0.94102 0.0
C1214 C 0.33185 0.15611 0.88581 0.0
C1215 C 0.31911 0.14653 0.906 0.0
C1216 C 0.32327 0.14619 0.94378 0.0
C1217 C 0.33879 0.15551 0.96116 0.0
C1218 C 0.30166 0.13687 0.88756 0.0
C1219 C 0.31253 0.13085 0.85675 0.0
C1220 C 0.27459 0.13348 0.90036 0.0
C1221 C 0.26042 0.14033 0.9302 0.0
C1222 C 0.25029 0.13391 0.96079 0.0
C1223 C 0.23704 0.14039 0.98893 0.0
C1224 C 0.23367 0.1533 0.98669 0.0
C1225 C 0.24345 0.15975 0.95624 0.0
C1226 C 0.25668 0.15331 0.92802 0.0
C1227 C 0.25358 0.08574 0.81314 0.0
C1228 C 0.22464 0.08687 0.80611 0.0
C1229 C 0.26849 0.09552 0.82914 0.0
C1230 C 0.25506 0.10686 0.83717 0.0
C1231 C 0.22606 0.10797 0.83026 0.0
C1232 C 0.21098 0.09805 0.81519 0.0
C1233 C 0.27113 0.11748 0.8531 0.0
C1234 C 0.26004 0.12366 0.88352 0.0
C1235 C 0.29741 0.12143 0.83889 0.0
C1236 C 0.30913 0.11627 0.80469 0.0
C1237 C 0.2932 0.11649 0.77252 0.0
C1238 C 0.30423 0.11153 0.74044 0.0
C1239 C 0.33127 0.10641 0.74012 0.0
C1240 C 0.34735 0.10627 0.77186 0.0
C1241 C 0.33641 0.1112 0.80403 0.0
H1242 H 0.33977 0.10258 0.71525 0.0
H1243 H 0.22342 0.1583 0.00851 0.0
H1244 H 0.63229 0.09474 0.1582 0.0
H1245 H 0.60874 0.11261 0.13019 0.0
H1246 H 0.52838 0.09859 0.16627 0.0
H1247 H 0.55162 0.08065 0.19379 0.0
H1248 H 0.52562 0.10633 0.09715 0.0
H1249 H 0.56135 0.12267 0.21006 0.0
H1250 H 0.59811 0.1273 0.25534 0.0
H1251 H 0.64277 0.14929 0.17681 0.0
H1252 H 0.60646 0.14464 0.13089 0.0
H1253 H 0.44014 0.15946 0.07395 0.0
H1254 H 0.46659 0.14206 0.10017 0.0
H1255 H 0.54429 0.1587 0.06355 0.0
H1256 H 0.51775 0.17622 0.03783 0.0
H1257 H 0.55033 0.14974 0.13053 0.0
H1258 H 0.51409 0.1342 0.01823 0.0
H1259 H 0.47745 0.12975 0.97267 0.0
H1260 H 0.43438 0.10624 0.0489 0.0
H1261 H 0.47052 0.11072 0.09516 0.0
C1262 C 0.6096 0.09545 0.16013 0.0
C1263 C 0.59385 0.08627 0.1783 0.0
C1264 C 0.59618 0.1057 0.14423 0.0
C1265 C 0.5668 0.107 0.14642 0.0
C1266 C 0.55106 0.09778 0.16423 0.0
C1267 C 0.56442 0.08755 0.18007 0.0
C1268 C 0.55231 0.11793 0.13016 0.0
C1269 C 0.53082 0.11582 0.10475 0.0
C1270 C 0.5596 0.13033 0.13929 0.0
C1271 C 0.58134 0.1332 0.16694 0.0
C1272 C 0.57912 0.12841 0.20237 0.0
C1273 C 0.59986 0.13105 0.22816 0.0
C1274 C 0.6228 0.13855 0.21893 0.0
C1275 C 0.62501 0.14346 0.18391 0.0
C1276 C 0.60435 0.14083 0.158 0.0
C1277 C 0.46287 0.15938 0.07167 0.0
C1278 C 0.477 0.16915 0.05413 0.0
C1279 C 0.47797 0.14944 0.08649 0.0
C1280 C 0.50744 0.14898 0.08343 0.0
C1281 C 0.52159 0.15885 0.06628 0.0
C1282 C 0.50647 0.16885 0.05167 0.0
C1283 C 0.5234 0.13814 0.09783 0.0
C1284 C 0.5452 0.14026 0.12281 0.0
C1285 C 0.51647 0.12574 0.0882 0.0
C1286 C 0.49491 0.12288 0.06026 0.0
C1287 C 0.49671 0.12815 0.02536 0.0
C1288 C 0.47603 0.12561 0.99941 0.0
C1289 C 0.45357 0.11774 0.00791 0.0
C1290 C 0.45178 0.11235 0.04237 0.0
C1291 C 0.47237 0.11488 0.06846 0.0
H1292 H 0.43757 0.11579 0.98778 0.0
H1293 H 0.63883 0.14058 0.23893 0.0
H1294 H 0.56432 0.84953 0.05355 0.0
H1295 H 0.53832 0.86724 0.07852 0.0
H1296 H 0.46065 0.84673 0.06775 0.0
H1297 H 0.48647 0.8293 0.04082 0.0
H1298 H 0.45223 0.86961 0.04783 0.0
H1299 H 0.49506 0.85055 0.15126 0.0
H1300 H 0.53382 0.84193 0.18799 0.0
H1301 H 0.57486 0.87756 0.18805 0.0
H1302 H 0.53652 0.88636 0.15088 0.0
H1303 H 0.37222 0.90919 0.16525 0.0
H1304 H 0.39688 0.89124 0.13939 0.0
H1305 H 0.47391 0.91244 0.1359 0.0
H1306 H 0.44951 0.93041 0.1617 0.0
H1307 H 0.48159 0.88892 0.16414 0.0
H1308 H 0.43744 0.90762 0.05955 0.0
H1309 H 0.39746 0.91579 0.02415 0.0
H1310 H 0.35714 0.88003 0.02869 0.0
H1311 H 0.39673 0.87169 0.06457 0.0
C1312 C 0.54167 0.84886 0.05626 0.0
C1313 C 0.52743 0.838 0.04563 0.0
C1314 C 0.52685 0.85893 0.07089 0.0
C1315 C 0.49753 0.85825 0.07574 0.0
C1316 C 0.48325 0.84746 0.06455 0.0
C1317 C 0.49805 0.83745 0.04953 0.0
C1318 C 0.48175 0.86882 0.09219 0.0
C1319 C 0.45844 0.8737 0.07353 0.0
C1320 C 0.49001 0.87432 0.12549 0.0
C1321 C 0.51304 0.86908 0.148 0.0
C1322 C 0.51245 0.85653 0.15889 0.0
C1323 C 0.53433 0.85161 0.17982 0.0
C1324 C 0.55682 0.85919 0.19027 0.0
C1325 C 0.55744 0.8717 0.17989 0.0
C1326 C 0.53563 0.87666 0.15892 0.0
C1327 C 0.39439 0.91005 0.15891 0.0
C1328 C 0.40887 0.92126 0.16543 0.0
C1329 C 0.40843 0.89979 0.14405 0.0
C1330 C 0.43719 0.90053 0.13549 0.0
C1331 C 0.45172 0.91167 0.14228 0.0
C1332 C 0.43769 0.92194 0.15692 0.0
C1333 C 0.45227 0.8897 0.11967 0.0
C1334 C 0.4754 0.88478 0.13849 0.0
C1335 C 0.44366 0.88408 0.08676 0.0
C1336 C 0.41991 0.88907 0.06506 0.0
C1337 C 0.41995 0.90153 0.05325 0.0
C1338 C 0.39738 0.90618 0.03305 0.0
C1339 C 0.37474 0.89845 0.02426 0.0
C1340 C 0.37467 0.88602 0.03556 0.0
C1341 C 0.39718 0.88132 0.05581 0.0
H1342 H 0.35729 0.90207 0.00862 0.0
H1343 H 0.57374 0.85537 0.20648 0.0
H1344 H 0.93433 0.20441 0.35679 0.0
H1345 H 0.94947 0.21368 0.2994 0.0
H1346 H 0.98977 0.24358 0.35772 0.0
H1347 H 0.97468 0.23442 0.41526 0.0
H1348 H 0.95773 0.25219 0.30174 0.0
H1349 H 0.02894 0.22119 0.31924 0.0
H1350 H 0.04734 0.2001 0.33094 0.0
H1351 H 0.00693 0.18665 0.23436 0.0
H1352 H 0.98794 0.20764 0.22234 0.0
H1353 H 0.0288 0.27842 0.15128 0.0
H1354 H 0.01892 0.26858 0.20952 0.0
H1355 H 0.98211 0.23714 0.15427 0.0
H1356 H 0.99323 0.2467 0.0957 0.0
H1357 H 0.01375 0.22937 0.20956 0.0
H1358 H 0.94134 0.26005 0.19289 0.0
H1359 H 0.92232 0.28103 0.18113 0.0
H1360 H 0.96418 0.29495 0.27611 0.0
H1361 H 0.98377 0.27407 0.28816 0.0
C1362 C 0.94655 0.21292 0.35749 0.0
C1363 C 0.95327 0.21865 0.39073 0.0
C1364 C 0.95527 0.21819 0.32462 0.0
C1365 C 0.9709 0.22929 0.32427 0.0
C1366 C 0.97773 0.23501 0.35735 0.0
C1367 C 0.96915 0.22972 0.39024 0.0
C1368 C 0.97946 0.23511 0.28936 0.0
C1369 C 0.97034 0.24727 0.2818 0.0
C1370 C 0.99534 0.22859 0.263 0.0
C1371 C 0.00679 0.21596 0.27009 0.0
C1372 C 0.02378 0.21371 0.30066 0.0
C1373 C 0.03435 0.20178 0.30732 0.0
C1374 C 0.02825 0.19204 0.28346 0.0
C1375 C 0.01161 0.19421 0.25284 0.0
C1376 C 1.00096 0.20612 0.24607 0.0
C1377 C 0.01937 0.26927 0.15134 0.0
C1378 C 0.01245 0.26322 0.11869 0.0
C1379 C 0.01325 0.26374 0.1848 0.0
C1380 C 0.99956 0.25215 0.18636 0.0
C1381 C 0.99274 0.24607 0.1538 0.0
C1382 C 0.99897 0.25158 0.12034 0.0
C1383 C 0.99195 0.24645 0.22185 0.0
C1384 C 1.00121 0.23431 0.22953 0.0
C1385 C 0.9761 0.25298 0.2483 0.0
C1386 C 0.96425 0.26552 0.24121 0.0
C1387 C 0.94666 0.2676 0.21111 0.0
C1388 C 0.93575 0.27947 0.20442 0.0
C1389 C 0.94211 0.28933 0.2278 0.0
C1390 C 0.95932 0.28731 0.25799 0.0
C1391 C 0.97031 0.27546 0.26478 0.0
H1392 H 0.93364 0.29851 0.22258 0.0
H1393 H 0.03646 0.18281 0.28866 0.0
H1394 H 0.02333 0.77123 0.42342 0.0
H1395 H 0.0067 0.76165 0.36713 0.0
H1396 H 0.05044 0.78963 0.30487 0.0
H1397 H 0.06689 0.79935 0.36087 0.0
H1398 H 0.99877 0.78515 0.27714 0.0
H1399 H 0.07831 0.7607 0.31629 0.0
H1400 H 0.10557 0.74792 0.35941 0.0
H1401 H 0.03842 0.7212 0.36374 0.0
H1402 H 0.01059 0.7339 0.321 0.0
H1403 H 0.00735 0.75615 0.10488 0.0
H1404 H 0.01731 0.76587 0.16349 0.0
H1405 H 0.97458 0.73579 0.21818 0.0
H1406 H 0.96563 0.72578 0.15981 0.0
H1407 H 0.02254 0.74103 0.25141 0.0
H1408 H 0.94393 0.76478 0.20967 0.0
H1409 H 0.91651 0.77749 0.16659 0.0
H1410 H 0.98109 0.80546 0.16727 0.0
H1411 H 0.0091 0.79284 0.20999 0.0
C1412 C 0.02929 0.77541 0.39778 0.0
C1413 C 0.04662 0.78604 0.39676 0.0
C1414 C 0.01984 0.76988 0.3656 0.0
C1415 C 0.02762 0.77483 0.33174 0.0
C1416 C 0.04421 0.78564 0.33066 0.0
C1417 C 0.05367 0.79116 0.36277 0.0
C1418 C 0.01907 0.76863 0.29738 0.0
C1419 C 0.0042 0.77554 0.27135 0.0
C1420 C 0.02551 0.75599 0.29019 0.0
C1421 C 0.04225 0.74832 0.31576 0.0
C1422 C 0.06927 0.75214 0.32666 0.0
C1423 C 0.08484 0.74491 0.35099 0.0
C1424 C 0.0737 0.73377 0.36439 0.0
C1425 C 0.047 0.72983 0.35339 0.0
C1426 C 0.03133 0.73704 0.3291 0.0
C1427 C 0.99996 0.75163 0.12939 0.0
C1428 C 0.98498 0.74036 0.12753 0.0
C1429 C 0.0055 0.75724 0.16288 0.0
C1430 C 0.99618 0.7517 0.19528 0.0
C1431 C 0.98165 0.74033 0.19355 0.0
C1432 C 0.97615 0.7347 0.16003 0.0
C1433 C 0.00242 0.75759 0.23096 0.0
C1434 C 0.0169 0.75062 0.25725 0.0
C1435 C 0.99556 0.77017 0.23841 0.0
C1436 C 0.97873 0.77781 0.2128 0.0
C1437 C 0.95239 0.7736 0.20042 0.0
C1438 C 0.93672 0.7808 0.1761 0.0
C1439 C 0.94708 0.79226 0.16414 0.0
C1440 C 0.9731 0.79657 0.17654 0.0
C1441 C 0.98887 0.78941 0.20084 0.0
H1442 H 0.93491 0.79782 0.14531 0.0
H1443 H 0.08578 0.72818 0.38322 0.0
H1444 H 0.20222 0.50364 0.37364 0.0
H1445 H 0.21244 0.49363 0.43191 0.0
H1446 H 0.29079 0.51387 0.43842 0.0
H1447 H 0.28099 0.52354 0.3797 0.0
H1448 H 0.30025 0.49169 0.45812 0.0
H1449 H 0.23002 0.52158 0.48997 0.0
H1450 H 0.18426 0.53234 0.48618 0.0
H1451 H 0.14151 0.49827 0.51247 0.0
H1452 H 0.18702 0.48726 0.51592 0.0
H1453 H 0.28148 0.48533 0.66755 0.0
H1454 H 0.26741 0.4948 0.61007 0.0
H1455 H 0.29299 0.46158 0.55301 0.0
H1456 H 0.30819 0.45226 0.61026 0.0
H1457 H 0.23148 0.49068 0.55941 0.0
H1458 H 0.31914 0.46849 0.47096 0.0
H1459 H 0.36758 0.46054 0.47775 0.0
H1460 H 0.38019 0.48429 0.57009 0.0
H1461 H 0.33197 0.49249 0.56356 0.0
C1462 C 0.22144 0.50604 0.38778 0.0
C1463 C 0.24064 0.51449 0.37245 0.0
C1464 C 0.22729 0.50032 0.42109 0.0
C1465 C 0.25223 0.50311 0.44 0.0
C1466 C 0.27143 0.51152 0.42448 0.0
C1467 C 0.26579 0.51708 0.39096 0.0
C1468 C 0.25872 0.49711 0.47554 0.0
C1469 C 0.28515 0.49147 0.4802 0.0
C1470 C 0.23931 0.49698 0.50477 0.0
C1471 C 0.21191 0.50357 0.50284 0.0
C1472 C 0.21085 0.51636 0.49468 0.0
C1473 C 0.18496 0.52251 0.49263 0.0
C1474 C 0.15999 0.51598 0.49899 0.0
C1475 C 0.16087 0.50331 0.5075 0.0
C1476 C 0.1867 0.49711 0.50953 0.0
C1477 C 0.28397 0.48 0.64279 0.0
C1478 C 0.29626 0.46808 0.64348 0.0
C1479 C 0.27584 0.48542 0.6099 0.0
C1480 C 0.27958 0.47902 0.577 0.0
C1481 C 0.29054 0.46686 0.57786 0.0
C1482 C 0.2991 0.46151 0.61066 0.0
C1483 C 0.27295 0.48523 0.54183 0.0
C1484 C 0.2465 0.49087 0.53724 0.0
C1485 C 0.29271 0.48577 0.51306 0.0
C1486 C 0.32185 0.48099 0.51699 0.0
C1487 C 0.33229 0.47204 0.49263 0.0
C1488 C 0.3597 0.46748 0.49645 0.0
C1489 C 0.37691 0.47187 0.52441 0.0
C1490 C 0.3668 0.48086 0.54853 0.0
C1491 C 0.33942 0.48546 0.5448 0.0
H1492 H 0.39811 0.46833 0.52734 0.0
H1493 H 0.13997 0.52076 0.49739 0.0
H1494 H 0.7415 0.52856 0.66261 0.0
H1495 H 0.75746 0.51897 0.60568 0.0
H1496 H 0.68148 0.53115 0.55261 0.0
H1497 H 0.66573 0.54106 0.60893 0.0
H1498 H 0.69998 0.50341 0.54692 0.0
H1499 H 0.73001 0.54654 0.52997 0.0
H1500 H 0.75557 0.56548 0.54861 0.0
H1501 H 0.83314 0.54497 0.5507 0.0
H1502 H 0.80792 0.52586 0.53259 0.0
H1503 H 0.71984 0.4916 0.36174 0.0
H1504 H 0.70907 0.50058 0.42075 0.0
H1505 H 0.79751 0.50122 0.44712 0.0
H1506 H 0.8086 0.49318 0.38698 0.0
H1507 H 0.77571 0.52136 0.47027 0.0
H1508 H 0.75 0.47896 0.48357 0.0
H1509 H 0.72728 0.45899 0.46827 0.0
H1510 H 0.64587 0.476 0.47812 0.0
H1511 H 0.6681 0.49613 0.49292 0.0
C1512 C 0.72828 0.52925 0.63875 0.0
C1513 C 0.7024 0.5356 0.64022 0.0
C1514 C 0.73743 0.52378 0.60632 0.0
C1515 C 0.72059 0.52435 0.5751 0.0
C1516 C 0.69472 0.53061 0.5765 0.0
C1517 C 0.68585 0.53632 0.60863 0.0
C1518 C 0.72977 0.51834 0.54092 0.0
C1519 C 0.71634 0.50736 0.52988 0.0
C1520 C 0.75189 0.52326 0.51967 0.0
C1521 C 0.76703 0.53475 0.53039 0.0
C1522 C 0.75246 0.54604 0.53479 0.0
C1523 C 0.7669 0.55681 0.54516 0.0
C1524 C 0.79595 0.55642 0.55096 0.0
C1525 C 0.81063 0.54526 0.54628 0.0
C1526 C 0.79628 0.53446 0.53594 0.0
C1527 C 0.73709 0.49364 0.38001 0.0
C1528 C 0.76509 0.49123 0.36976 0.0
C1529 C 0.73084 0.49867 0.41403 0.0
C1530 C 0.75238 0.50124 0.43902 0.0
C1531 C 0.78043 0.49913 0.42862 0.0
C1532 C 0.78674 0.49428 0.39428 0.0
C1533 C 0.74553 0.50645 0.47548 0.0
C1534 C 0.75946 0.51728 0.48719 0.0
C1535 C 0.72427 0.5012 0.49781 0.0
C1536 C 0.71075 0.48909 0.48907 0.0
C1537 C 0.72726 0.47847 0.48222 0.0
C1538 C 0.71446 0.46712 0.47367 0.0
C1539 C 0.68515 0.46624 0.47215 0.0
C1540 C 0.66857 0.4767 0.47927 0.0
C1541 C 0.68126 0.48809 0.48778 0.0
H1542 H 0.67528 0.45744 0.46554 0.0
H1543 H 0.80709 0.56477 0.55898 0.0
H1544 H 0.93219 0.70665 0.86122 0.0
H1545 H 0.94939 0.7163 0.80552 0.0
H1546 H 0.99478 0.74356 0.86844 0.0
H1547 H 0.97745 0.73403 0.92452 0.0
H1548 H 0.96567 0.7543 0.81322 0.0
H1549 H 0.02983 0.7202 0.82634 0.0
H1550 H 0.04352 0.69828 0.83549 0.0
H1551 H 0.99995 0.68793 0.73796 0.0
H1552 H 0.98566 0.70977 0.72847 0.0
H1553 H 0.03597 0.77932 0.65985 0.0
H1554 H 0.02665 0.76963 0.71837 0.0
H1555 H 0.98461 0.73918 0.66464 0.0
H1556 H 0.99548 0.74843 0.60577 0.0
H1557 H 0.01544 0.73039 0.71753 0.0
H1558 H 0.9485 0.76386 0.7063 0.0
H1559 H 0.93348 0.78561 0.69699 0.0
H1560 H 0.9808 0.79694 0.79061 0.0
H1561 H 0.99639 0.77527 0.80021 0.0
C1562 C 0.94595 0.71466 0.86335 0.0
C1563 C 0.95343 0.71954 0.89747 0.0
C1564 C 0.95587 0.72014 0.83139 0.0
C1565 C 0.97361 0.73059 0.83277 0.0
C1566 C 0.98116 0.73549 0.86673 0.0
C1567 C 0.97129 0.73 0.89877 0.0
C1568 C 0.98356 0.73657 0.79869 0.0
C1569 C 0.97699 0.74913 0.79254 0.0
C1570 C 0.99776 0.72975 0.77135 0.0
C1571 C 0.00648 0.71662 0.77686 0.0
C1572 C 0.02299 0.71324 0.80698 0.0
C1573 C 0.03089 0.70083 0.8122 0.0
C1574 C 0.02256 0.69171 0.78737 0.0
C1575 C 0.00637 0.695 0.75719 0.0
C1576 C 0.9984 0.7074 0.75185 0.0
C1577 C 0.02556 0.77038 0.6602 0.0
C1578 C 0.01714 0.76453 0.62781 0.0
C1579 C 0.01971 0.76496 0.69392 0.0
C1580 C 0.00467 0.75371 0.69607 0.0
C1581 C 0.9963 0.74784 0.66379 0.0
C1582 C 0.0024 0.75319 0.63011 0.0
C1583 C 0.99725 0.7481 0.7318 0.0
C1584 C 0.0043 0.73559 0.73828 0.0
C1585 C 0.98333 0.75495 0.75936 0.0
C1586 C 0.97385 0.76797 0.75374 0.0
C1587 C 0.95586 0.771 0.72475 0.0
C1588 C 0.94722 0.78332 0.71944 0.0
C1589 C 0.95624 0.79266 0.74313 0.0
C1590 C 0.97386 0.7897 0.77225 0.0
C1591 C 0.98259 0.77741 0.77765 0.0
H1592 H 0.94954 0.80218 0.73897 0.0
H1593 H 0.02869 0.68211 0.79147 0.0
H1594 H 0.08741 0.29064 0.86129 0.0
H1595 H 0.07202 0.2816 0.80393 0.0
H1596 H 0.99171 0.27243 0.8519 0.0
H1597 H 0.00785 0.28079 0.91014 0.0
H1598 H 0.00584 0.25428 0.81296 0.0
H1599 H 0.00287 0.29783 0.78871 0.0
H1600 H 0.02026 0.31945 0.78613 0.0
H1601 H 0.08601 0.3083 0.71304 0.0
H1602 H 0.06923 0.28657 0.71554 0.0
H1603 H 0.94431 0.24344 0.63646 0.0
H1604 H 0.95511 0.25274 0.69524 0.0
H1605 H 0.04333 0.25305 0.66819 0.0
H1606 H 0.03299 0.24315 0.61003 0.0
H1607 H 0.02132 0.27618 0.69607 0.0
H1608 H 0.02239 0.23198 0.72392 0.0
H1609 H 0.00147 0.21098 0.72596 0.0
H1610 H 0.93374 0.22471 0.79197 0.0
H1611 H 0.95406 0.24585 0.78985 0.0
C1612 C 0.0664 0.28677 0.85954 0.0
C1613 C 0.04876 0.2865 0.89014 0.0
C1614 C 0.05751 0.28166 0.8266 0.0
C1615 C 0.03038 0.27656 0.82309 0.0
C1616 C 0.0127 0.27632 0.85372 0.0
C1617 C 0.02189 0.28114 0.88698 0.0
C1618 C 0.02086 0.27118 0.7878 0.0
C1619 C 0.00881 0.25921 0.78755 0.0
C1620 C 0.02485 0.27747 0.75432 0.0
C1621 C 0.03491 0.29055 0.75255 0.0
C1622 C 0.02114 0.29997 0.77226 0.0
C1623 C 0.03088 0.31225 0.77079 0.0
C1624 C 0.05426 0.31524 0.7495 0.0
C1625 C 0.06791 0.30596 0.72954 0.0
C1626 C 0.05827 0.29367 0.73094 0.0
C1627 C 0.9661 0.24506 0.64325 0.0
C1628 C 0.98785 0.24212 0.61872 0.0
C1629 C 0.97218 0.25058 0.67678 0.0
C1630 C 1.00004 0.25348 0.68615 0.0
C1631 C 0.02169 0.25085 0.66149 0.0
C1632 C 0.01569 0.24519 0.62824 0.0
C1633 C 0.00673 0.25936 0.72154 0.0
C1634 C 0.01821 0.27139 0.72168 0.0
C1635 C 0.00164 0.25325 0.75489 0.0
C1636 C 0.98958 0.24052 0.75639 0.0
C1637 C 0.00291 0.23055 0.7386 0.0
C1638 C 0.99118 0.21861 0.73982 0.0
C1639 C 0.96624 0.21652 0.75899 0.0
C1640 C 0.95303 0.22635 0.77708 0.0
C1641 C 0.96465 0.2383 0.7759 0.0
H1642 H 0.9572 0.20727 0.75991 0.0
H1643 H 0.06178 0.32475 0.74841 0.0
H1644 H 0.26406 0.99908 0.85175 0.0
H1645 H 0.27394 0.98942 0.91059 0.0
H1646 H 0.22361 0.01744 0.96384 0.0
H1647 H 0.21461 0.02738 0.90515 0.0
H1648 H 0.27145 0.01393 0.99938 0.0
H1649 H 0.19923 0.98739 0.95285 0.0
H1650 H 0.17587 0.97386 0.90795 0.0
H1651 H 0.24579 0.94855 0.91125 0.0
H1652 H 0.26977 0.96202 0.95582 0.0
H1653 H 0.27291 0.98306 0.17044 0.0
H1654 H 0.25656 0.99235 0.11363 0.0
H1655 H 0.30686 0.96621 0.05288 0.0
H1656 H 0.32302 0.95675 0.1094 0.0
H1657 H 0.2558 0.96895 0.02259 0.0
H1658 H 0.3289 0.99619 0.06657 0.0
H1659 H 0.35222 0.00977 0.11139 0.0
H1660 H 0.28001 0.03381 0.1129 0.0
H1661 H 0.25611 0.02027 0.06842 0.0
C1662 C 0.25493 0.0031 0.87602 0.0
C1663 C 0.23784 0.01374 0.87376 0.0
C1664 C 0.26046 0.99755 0.9096 0.0
C1665 C 0.24904 0.00254 0.94164 0.0
C1666 C 0.23235 0.01332 0.93948 0.0
C1667 C 0.22687 0.01889 0.90587 0.0
C1668 C 0.25533 0.99676 0.97744 0.0
C1669 C 0.26756 0.00414 0.00465 0.0
C1670 C 0.2508 0.98392 0.98416 0.0
C1671 C 0.2364 0.97577 0.95745 0.0
C1672 C 0.20973 0.97899 0.9438 0.0
C1673 C 0.19636 0.97132 0.91844 0.0
C1674 C 0.20937 0.96037 0.9067 0.0
C1675 C 0.23575 0.95705 0.92035 0.0
C1676 C 0.24923 0.96469 0.94569 0.0
C1677 C 0.28042 0.97923 0.14502 0.0
C1678 C 0.29943 0.96918 0.14459 0.0
C1679 C 0.27112 0.9846 0.11254 0.0
C1680 C 0.28076 0.98008 0.07897 0.0
C1681 C 0.29917 0.96987 0.07844 0.0
C1682 C 0.30845 0.96449 0.11085 0.0
C1683 C 0.27211 0.9861 0.04435 0.0
C1684 C 0.25947 0.97876 0.01737 0.0
C1685 C 0.27622 0.99897 0.03785 0.0
C1686 C 0.29061 0.00715 0.06447 0.0
C1687 C 0.31791 0.00432 0.07667 0.0
C1688 C 0.33125 0.01202 0.10197 0.0
C1689 C 0.31757 0.02263 0.11506 0.0
C1690 C 0.29056 0.02558 0.10278 0.0
C1691 C 0.27712 0.0179 0.07751 0.0
H1692 H 0.32793 0.02858 0.13464 0.0
H1693 H 0.19898 0.95445 0.88706 0.0
H1694 H 0.80914 0.99492 0.8874 0.0
H1695 H 0.79848 0.00437 0.94598 0.0
H1696 H 0.70979 1.0019 0.92295 0.0
H1697 H 0.72004 0.99171 0.86523 0.0
H1698 H 0.73177 0.0264 0.94834 0.0
H1699 H 0.73166 0.98218 0.97759 0.0
H1700 H 0.7533 0.96132 0.97986 0.0
H1701 H 0.82125 0.97573 0.04419 0.0
H1702 H 0.80021 0.99673 0.0418 0.0
H1703 H 0.66519 0.04084 0.11315 0.0
H1704 H 0.68101 0.03183 0.05595 0.0
H1705 H 0.7613 0.02301 0.10445 0.0
H1706 H 0.74475 0.03135 0.16254 0.0
H1707 H 0.74787 0.0048 0.06558 0.0
H1708 H 0.75 0.04825 0.04084 0.0
H1709 H 0.73242 0.06983 0.03793 0.0
H1710 H 0.66697 0.05846 0.96475 0.0
H1711 H 0.68393 0.03677 0.96759 0.0
C1712 C 0.78735 0.99593 0.89504 0.0
C1713 C 0.76548 0.99209 0.87179 0.0
C1714 C 0.78132 1.00156 0.92844 0.0
C1715 C 0.75335 0.00374 0.93884 0.0
C1716 C 0.73152 1.00027 0.91541 0.0
C1717 C 0.73749 0.99444 0.88239 0.0
C1718 C 0.74671 0.0097 0.9741 0.0
C1719 C 0.73503 0.02168 0.97404 0.0
C1720 C 0.75203 0.00369 0.00751 0.0
C1721 C 0.76454 0.99105 0.00915 0.0
C1722 C 0.75136 0.98093 0.99191 0.0
C1723 C 0.76349 0.96907 0.99329 0.0
C1724 C 0.78868 0.96721 0.01206 0.0
C1725 C 0.80176 0.97719 0.0296 0.0
C1726 C 0.78974 0.98907 0.02826 0.0
C1727 C 0.68629 0.03705 0.11156 0.0
C1728 C 0.7038 0.03688 0.14226 0.0
C1729 C 0.69542 0.03196 0.0787 0.0
C1730 C 0.72267 0.02697 0.07537 0.0
C1731 C 0.74023 0.02682 0.10611 0.0
C1732 C 0.7308 0.03163 0.1393 0.0
C1733 C 0.73241 0.02158 0.04018 0.0
C1734 C 0.74475 0.00968 0.0401 0.0
C1735 C 0.72832 0.02781 0.0066 0.0
C1736 C 0.71811 0.04086 0.00466 0.0
C1737 C 0.73175 0.05034 0.0243 0.0
C1738 C 0.72191 0.06259 0.02264 0.0
C1739 C 0.69856 0.06551 1.00123 0.0
C1740 C 0.68504 0.05618 0.98135 0.0
C1741 C 0.69478 0.04391 0.98293 0.0
H1742 H 0.69097 0.075 0.99999 0.0
H1743 H 0.79804 0.95803 0.0131 0.0
H1744 H 0.52963 0.27906 0.65491 0.0
H1745 H 0.51894 0.26937 0.71325 0.0
H1746 H 0.48553 0.23722 0.65792 0.0
H1747 H 0.49649 0.24683 0.59936 0.0
H1748 H 0.45092 0.24479 0.71087 0.0
H1749 H 0.55007 0.23638 0.70004 0.0
H1750 H 0.59998 0.24186 0.69097 0.0
H1751 H 0.59759 0.26535 0.78524 0.0
H1752 H 0.54752 0.26015 0.79458 0.0
H1753 H 0.43724 0.20458 0.86078 0.0
H1754 H 0.45245 0.21378 0.80347 0.0
H1755 H 0.48811 0.24494 0.8613 0.0
H1756 H 0.47359 0.23563 0.91895 0.0
H1757 H 0.52202 0.23817 0.80758 0.0
H1758 H 0.42356 0.24702 0.81861 0.0
H1759 H 0.37341 0.24208 0.8281 0.0
H1760 H 0.37411 0.21851 0.73395 0.0
H1761 H 0.42439 0.22318 0.72418 0.0
C1762 C 0.52076 0.26979 0.65507 0.0
C1763 C 0.51465 0.26357 0.62243 0.0
C1764 C 0.51442 0.2643 0.68853 0.0
C1765 C 0.50183 0.25247 0.69003 0.0
C1766 C 0.49536 0.24632 0.65746 0.0
C1767 C 0.50166 0.25182 0.62403 0.0
C1768 C 0.4946 0.24666 0.72546 0.0
C1769 C 0.46656 0.24318 0.73181 0.0
C1770 C 0.51482 0.2449 0.75324 0.0
C1771 C 0.54497 0.24797 0.7478 0.0
C1772 C 0.56013 0.24279 0.71868 0.0
C1773 C 0.58846 0.24583 0.71351 0.0
C1774 C 0.60193 0.25397 0.73746 0.0
C1775 C 0.58712 0.25906 0.76668 0.0
C1776 C 0.55877 0.25606 0.77194 0.0
C1777 C 0.44844 0.21336 0.86141 0.0
C1778 C 0.45398 0.2194 0.89452 0.0
C1779 C 0.45703 0.21864 0.82854 0.0
C1780 C 0.47095 0.23018 0.82797 0.0
C1781 C 0.47729 0.23606 0.86102 0.0
C1782 C 0.46892 0.23072 0.89398 0.0
C1783 C 0.47837 0.2362 0.79287 0.0
C1784 C 0.5064 0.23976 0.78662 0.0
C1785 C 0.45811 0.23812 0.76522 0.0
C1786 C 0.42781 0.23536 0.77086 0.0
C1787 C 0.41307 0.24072 0.80007 0.0
C1788 C 0.38461 0.23797 0.80548 0.0
C1789 C 0.3706 0.22996 0.78169 0.0
C1790 C 0.385 0.2247 0.75238 0.0
C1791 C 0.41347 0.2274 0.74687 0.0
H1792 H 0.34857 0.22784 0.78593 0.0
H1793 H 0.62386 0.25631 0.73341 0.0
H1794 H 0.58865 0.78828 0.86301 0.0
H1795 H 0.57272 0.77892 0.8064 0.0
H1796 H 0.49136 0.77177 0.85429 0.0
H1797 H 0.50798 0.78048 0.91198 0.0
H1798 H 0.50378 0.75311 0.81548 0.0
H1799 H 0.50506 0.79664 0.79075 0.0
H1800 H 0.52453 0.81791 0.78822 0.0
H1801 H 0.58965 0.80547 0.71598 0.0
H1802 H 0.5708 0.78408 0.71845 0.0
H1803 H 0.44326 0.74314 0.6376 0.0
H1804 H 0.45414 0.75206 0.69688 0.0
H1805 H 0.54259 0.75128 0.67115 0.0
H1806 H 0.5321 0.74179 0.61246 0.0
H1807 H 0.52217 0.77455 0.69854 0.0
H1808 H 0.51909 0.73042 0.72674 0.0
H1809 H 0.49634 0.70978 0.72866 0.0
H1810 H 0.42938 0.72472 0.79376 0.0
H1811 H 0.45155 0.7455 0.79176 0.0
C1812 C 0.56732 0.78475 0.86145 0.0
C1813 C 0.54946 0.78522 0.89182 0.0
C1814 C 0.55814 0.77946 0.82893 0.0
C1815 C 0.53051 0.77492 0.82552 0.0
C1816 C 0.5127 0.77526 0.85603 0.0
C1817 C 0.52217 0.78027 0.88897 0.0
C1818 C 0.52055 0.76967 0.79029 0.0
C1819 C 0.50739 0.75794 0.79004 0.0
C1820 C 0.52533 0.77585 0.7568 0.0
C1821 C 0.53662 0.78873 0.75501 0.0
C1822 C 0.52363 0.79842 0.77449 0.0
C1823 C 0.53455 0.8105 0.77305 0.0
C1824 C 0.55835 0.81303 0.75201 0.0
C1825 C 0.57123 0.80349 0.73228 0.0
C1826 C 0.56041 0.79139 0.73365 0.0
C1827 C 0.46508 0.74444 0.6448 0.0
C1828 C 0.48684 0.74134 0.62046 0.0
C1829 C 0.47123 0.74973 0.67863 0.0
C1830 C 0.49918 0.75222 0.6885 0.0
C1831 C 0.52087 0.74939 0.66408 0.0
C1832 C 0.5148 0.74397 0.63052 0.0
C1833 C 0.50594 0.75802 0.72398 0.0
C1834 C 0.51842 0.76984 0.72416 0.0
C1835 C 0.49999 0.75205 0.75732 0.0
C1836 C 0.48682 0.73954 0.75877 0.0
C1837 C 0.49939 0.72933 0.7412 0.0
C1838 C 0.48663 0.7176 0.74235 0.0
C1839 C 0.46139 0.71595 0.76123 0.0
C1840 C 0.44891 0.72602 0.7791 0.0
C1841 C 0.46157 0.73776 0.77798 0.0
H1842 H 0.45154 0.70687 0.76209 0.0
H1843 H 0.56677 0.82239 0.75095 0.0
H1844 H 0.80513 0.45223 0.10803 0.0
H1845 H 0.78982 0.46135 0.05055 0.0
H1846 H 0.77351 0.49626 0.10472 0.0
H1847 H 0.7875 0.48699 0.16253 0.0
H1848 H 0.73509 0.49309 0.05723 0.0
H1849 H 0.83572 0.49029 0.05388 0.0
H1850 H 0.88189 0.47988 0.05799 0.0
H1851 H 0.85919 0.45563 0.97007 0.0
H1852 H 0.81274 0.4658 0.96575 0.0
H1853 H 0.78291 0.52181 0.87162 0.0
H1854 H 0.7933 0.5123 0.93037 0.0
H1855 H 0.71156 0.49478 0.93046 0.0
H1856 H 0.70095 0.50446 0.87188 0.0
H1857 H 0.79904 0.48965 0.95124 0.0
H1858 H 0.68816 0.49115 0.01737 0.0
H1859 H 0.64534 0.50414 0.01573 0.0
H1860 H 0.6944 0.53568 0.98213 0.0
H1861 H 0.73755 0.52294 0.98408 0.0
C1862 C 0.79809 0.46182 0.10772 0.0
C1863 C 0.79773 0.46891 0.1398 0.0
C1864 C 0.78947 0.46706 0.07478 0.0
C1865 C 0.78107 0.4796 0.07301 0.0
C1866 C 0.77992 0.48658 0.10525 0.0
C1867 C 0.78801 0.48127 0.13832 0.0
C1868 C 0.77428 0.48557 0.03753 0.0
C1869 C 0.74906 0.4923 0.03405 0.0
C1870 C 0.7927 0.48481 0.00734 0.0
C1871 C 0.82067 0.47873 0.00973 0.0
C1872 C 0.84052 0.48269 0.03558 0.0
C1873 C 0.86674 0.47684 0.03793 0.0
C1874 C 0.87344 0.46708 0.01437 0.0
C1875 C 0.85396 0.46317 0.98834 0.0
C1876 C 0.82769 0.46898 0.98591 0.0
C1877 C 0.76712 0.51597 0.88426 0.0
C1878 C 0.74092 0.51408 0.86749 0.0
C1879 C 0.77309 0.51051 0.91781 0.0
C1880 C 0.75311 0.50294 0.93519 0.0
C1881 C 0.72709 0.50082 0.91809 0.0
C1882 C 0.72099 0.50639 0.88464 0.0
C1883 C 0.75981 0.49713 0.97088 0.0
C1884 C 0.785 0.4904 0.97437 0.0
C1885 C 0.74182 0.49826 1.00138 0.0
C1886 C 0.71602 0.50604 1.00047 0.0
C1887 C 0.68981 0.50087 0.00974 0.0
C1888 C 0.66548 0.50818 0.00875 0.0
C1889 C 0.66713 0.52071 0.9987 0.0
C1890 C 0.69313 0.52597 0.98976 0.0
C1891 C 0.71752 0.51869 0.99077 0.0
H1892 H 0.64827 0.52636 0.99792 0.0
H1893 H 0.89374 0.46256 0.01623 0.0
H1894 H 0.18207 0.5485 0.10897 0.0
H1895 H 0.19686 0.53864 0.05246 0.0
H1896 H 0.2416 0.51055 0.11306 0.0
H1897 H 0.22727 0.52049 0.16992 0.0
H1898 H 0.27168 0.51782 0.055 0.0
H1899 H 0.17773 0.50423 0.07697 0.0
H1900 H 0.12728 0.50657 0.09101 0.0
H1901 H 0.11547 0.52771 0.99326 0.0
H1902 H 0.16599 0.52569 0.97893 0.0
H1903 H 0.28098 0.47519 0.90548 0.0
H1904 H 0.27052 0.48476 0.96399 0.0
H1905 H 0.2298 0.51539 0.90956 0.0
H1906 H 0.24097 0.50607 0.85077 0.0
H1907 H 0.19816 0.50588 0.96591 0.0
H1908 H 0.29373 0.51938 0.94553 0.0
H1909 H 0.34418 0.51632 0.93261 0.0
H1910 H 0.35252 0.49403 0.02879 0.0
H1911 H 0.302 0.49681 0.04201 0.0
C1912 C 0.19519 0.54027 0.1104 0.0
C1913 C 0.20328 0.53524 0.14409 0.0
C1914 C 0.20355 0.53461 0.07799 0.0
C1915 C 0.21994 0.52373 0.0785 0.0
C1916 C 0.22886 0.51891 0.11201 0.0
C1917 C 0.22058 0.5246 0.1445 0.0
C1918 C 0.22717 0.51727 0.04403 0.0
C1919 C 0.25558 0.51505 0.03575 0.0
C1920 C 0.20619 0.51375 0.01871 0.0
C1921 C 0.17572 0.51491 0.02705 0.0
C1922 C 0.16442 0.50946 0.05859 0.0
C1923 C 0.1358 0.51072 0.06659 0.0
C1924 C 0.11819 0.5173 0.04308 0.0
C1925 C 0.12915 0.52262 0.01147 0.0
C1926 C 0.15778 0.52142 0.00338 0.0
C1927 C 0.27061 0.48413 0.90572 0.0
C1928 C 0.26261 0.49003 0.87321 0.0
C1929 C 0.26432 0.48953 0.93934 0.0
C1930 C 0.24968 0.50087 0.94114 0.0
C1931 C 0.24121 0.50666 0.90881 0.0
C1932 C 0.24764 0.50131 0.87523 0.0
C1933 C 0.24265 0.50661 0.97669 0.0
C1934 C 0.21424 0.50864 0.98521 0.0
C1935 C 0.26361 0.50981 1.00235 0.0
C1936 C 0.29401 0.50819 0.99455 0.0
C1937 C 0.30627 0.51374 0.96377 0.0
C1938 C 0.33488 0.51207 0.95642 0.0
C1939 C 0.35153 0.50495 0.97981 0.0
C1940 C 0.3396 0.49952 0.01066 0.0
C1941 C 0.31097 0.50115 0.01811 0.0
H1942 H 0.37368 0.50367 0.97407 0.0
H1943 H 0.09603 0.51826 0.04933 0.0
H1944 H 0.44194 0.70285 0.35838 0.0
H1945 H 0.45802 0.71174 0.30097 0.0
H1946 H 0.48125 0.74565 0.35623 0.0
H1947 H 0.46626 0.73662 0.41394 0.0
H1948 H 0.44027 0.72988 0.26343 0.0
H1949 H 0.53328 0.76077 0.3126 0.0
H1950 H 0.57007 0.76053 0.35984 0.0
H1951 H 0.56542 0.72063 0.365 0.0
H1952 H 0.52889 0.72062 0.31748 0.0
H1953 H 0.47014 0.7742 0.12857 0.0
H1954 H 0.46035 0.76394 0.18645 0.0
H1955 H 0.53957 0.74443 0.17944 0.0
H1956 H 0.5497 0.75494 0.12187 0.0
H1957 H 0.53177 0.75135 0.24628 0.0
H1958 H 0.4757 0.73007 0.15888 0.0
H1959 H 0.44145 0.72789 0.109 0.0
H1960 H 0.377 0.74404 0.17582 0.0
H1961 H 0.41098 0.74647 0.22595 0.0
C1962 C 0.45071 0.71216 0.35838 0.0
C1963 C 0.45287 0.71901 0.3908 0.0
C1964 C 0.45984 0.71725 0.32547 0.0
C1965 C 0.47113 0.72934 0.32413 0.0
C1966 C 0.47325 0.73621 0.35651 0.0
C1967 C 0.46451 0.73105 0.38954 0.0
C1968 C 0.47957 0.73492 0.28868 0.0
C1969 C 0.46033 0.73454 0.25976 0.0
C1970 C 0.50595 0.74081 0.28339 0.0
C1971 C 0.52815 0.74071 0.31172 0.0
C1972 C 0.54019 0.75194 0.32371 0.0
C1973 C 0.56098 0.75185 0.35056 0.0
C1974 C 0.57001 0.74057 0.36549 0.0
C1975 C 0.55833 0.72936 0.35352 0.0
C1976 C 0.53756 0.7294 0.32666 0.0
C1977 C 0.4855 0.76775 0.13947 0.0
C1978 C 0.51078 0.76545 0.12089 0.0
C1979 C 0.47985 0.76185 0.17249 0.0
C1980 C 0.49902 0.75325 0.18718 0.0
C1981 C 0.52447 0.75104 0.1688 0.0
C1982 C 0.5303 0.75709 0.13594 0.0
C1983 C 0.49227 0.74646 0.22137 0.0
C1984 C 0.51177 0.74664 0.25002 0.0
C1985 C 0.46649 0.74003 0.22609 0.0
C1986 C 0.44595 0.73855 0.19606 0.0
C1987 C 0.45427 0.73323 0.16285 0.0
C1988 C 0.4349 0.73194 0.13455 0.0
C1989 C 0.40708 0.73585 0.13921 0.0
C1990 C 0.39856 0.74103 0.17223 0.0
C1991 C 0.41786 0.74235 0.20061 0.0
H1992 H 0.39212 0.73484 0.11727 0.0
H1993 H 0.58609 0.74052 0.38629 0.0
H1994 H 0.57156 0.29999 0.36001 0.0
H1995 H 0.5557 0.29088 0.30278 0.0
H1996 H 0.50992 0.26268 0.36167 0.0
H1997 H 0.5258 0.27166 0.41907 0.0
H1998 H 0.54089 0.2527 0.30715 0.0
H1999 H 0.4752 0.28628 0.32054 0.0
H2000 H 0.4606 0.30806 0.33032 0.0
H2001 H 0.50513 0.31921 0.23422 0.0
H2002 H 0.52034 0.29752 0.22413 0.0
H2003 H 0.46878 0.22778 0.15588 0.0
H2004 H 0.47908 0.23768 0.21386 0.0
H2005 H 0.52163 0.26759 0.15813 0.0
H2006 H 0.51001 0.25804 0.09975 0.0
H2007 H 0.49082 0.2767 0.21192 0.0
H2008 H 0.55789 0.24351 0.19938 0.0
H2009 H 0.57337 0.22185 0.18948 0.0
H2010 H 0.52738 0.21011 0.28384 0.0
H2011 H 0.51131 0.23169 0.29402 0.0
C2012 C 0.55797 0.2919 0.36087 0.0
C2013 C 0.54998 0.28658 0.39424 0.0
C2014 C 0.54883 0.28673 0.32808 0.0
C2015 C 0.53145 0.27615 0.32792 0.0
C2016 C 0.52331 0.27085 0.36113 0.0
C2017 C 0.53235 0.27603 0.39395 0.0
C2018 C 0.52249 0.27038 0.29311 0.0
C2019 C 0.52955 0.25789 0.28655 0.0
C2020 C 0.50833 0.27724 0.26586 0.0
C2021 C 0.49913 0.29029 0.27177 0.0
C2022 C 0.48207 0.29339 0.30165 0.0
C2023 C 0.47365 0.30572 0.30722 0.0
C2024 C 0.48199 0.31502 0.28296 0.0
C2025 C 0.49871 0.312 0.25302 0.0
C2026 C 0.50721 0.29969 0.24734 0.0
C2027 C 0.47955 0.23664 0.15574 0.0
C2028 C 0.48792 0.24227 0.12299 0.0
C2029 C 0.48592 0.24219 0.18908 0.0
C2030 C 0.50136 0.25334 0.19047 0.0
C2031 C 0.50964 0.25901 0.15782 0.0
C2032 C 0.50311 0.2535 0.12446 0.0
C2033 C 0.50927 0.25901 0.22589 0.0
C2034 C 0.50206 0.27149 0.23256 0.0
C2035 C 0.52342 0.25216 0.25322 0.0
C2036 C 0.53317 0.23919 0.24724 0.0
C2037 C 0.55091 0.23629 0.21786 0.0
C2038 C 0.55981 0.22404 0.21222 0.0
C2039 C 0.5513 0.21461 0.23595 0.0
C2040 C 0.53392 0.21742 0.26544 0.0
C2041 C 0.52493 0.22966 0.27118 0.0
H2042 H 0.55822 0.20513 0.23154 0.0
H2043 H 0.47545 0.32455 0.28732 0.0
H2044 H 0.7738 0.98457 0.67045 0.0
H2045 H 0.75717 0.99431 0.61439 0.0
H2046 H 0.80403 0.96752 0.55148 0.0
H2047 H 0.8205 0.95764 0.60723 0.0
H2048 H 0.78548 0.0056 0.56069 0.0
H2049 H 0.76902 0.96119 0.47359 0.0
H2050 H 0.75548 0.93919 0.48201 0.0
H2051 H 0.71035 0.94878 0.57908 0.0
H2052 H 0.72329 0.97084 0.57097 0.0
H2053 H 0.78413 0.01948 0.3727 0.0
H2054 H 0.7932 0.01041 0.4325 0.0
H2055 H 0.70554 1.00049 0.44207 0.0
H2056 H 0.69652 0.00924 0.38187 0.0
H2057 H 0.73886 0.98157 0.46261 0.0
H2058 H 0.73123 0.02491 0.48923 0.0
H2059 H 0.74152 0.04728 0.4821 0.0
H2060 H 0.82811 0.04072 0.5093 0.0
H2061 H 0.81844 0.01826 0.51606 0.0
C2062 C 0.78045 0.98069 0.6447 0.0
C2063 C 0.79846 0.97028 0.64343 0.0
C2064 C 0.77099 0.98631 0.61267 0.0
C2065 C 0.77917 0.9816 0.57871 0.0
C2066 C 0.7971 0.97122 0.57735 0.0
C2067 C 0.80658 0.9656 0.60932 0.0
C2068 C 0.76943 0.98766 0.54466 0.0
C2069 C 0.77523 1.00035 0.53929 0.0
C2070 C 0.75557 0.98088 0.51696 0.0
C2071 C 0.74735 0.96765 0.52182 0.0
C2072 C 0.7561 0.95861 0.49664 0.0
C2073 C 0.74855 0.94613 0.50138 0.0
C2074 C 0.73214 0.94259 0.53112 0.0
C2075 C 0.72315 0.95153 0.55612 0.0
C2076 C 0.73062 0.96402 0.55149 0.0
C2077 C 0.76678 0.01539 0.3876 0.0
C2078 C 0.73949 0.01533 0.3729 0.0
C2079 C 0.77195 0.01028 0.42185 0.0
C2080 C 0.74996 0.00494 0.44203 0.0
C2081 C 0.72277 0.00466 0.42713 0.0
C2082 C 0.71757 0.00982 0.3929 0.0
C2083 C 0.75554 0.99943 0.47831 0.0
C2084 C 0.749 0.98683 0.48408 0.0
C2085 C 0.76827 0.00635 0.50659 0.0
C2086 C 0.77414 0.01988 0.50288 0.0
C2087 C 0.75251 0.02822 0.49344 0.0
C2088 C 0.75823 0.04092 0.4895 0.0
C2089 C 0.78546 0.04542 0.49518 0.0
C2090 C 0.80703 0.03722 0.50489 0.0
C2091 C 0.80143 0.02451 0.50882 0.0
H2092 H 0.78984 0.05526 0.49214 0.0
H2093 H 0.72633 0.93292 0.53475 0.0
H2094 H 0.21775 0.01836 0.66734 0.0
H2095 H 0.23347 0.0093 0.60996 0.0
H2096 H 0.21969 0.04452 0.55633 0.0
H2097 H 0.20264 0.05342 0.61324 0.0
H2098 H 0.19974 0.02787 0.51617 0.0
H2099 H 0.28801 0.032 0.57664 0.0
H2100 H 0.32231 0.02955 0.62636 0.0
H2101 H 0.31684 0.98977 0.61686 0.0
H2102 H 0.28222 0.99197 0.56738 0.0
H2103 H 0.3067 0.99941 0.37769 0.0
H2104 H 0.29745 0.00967 0.43585 0.0
H2105 H 0.21418 0.99365 0.43784 0.0
H2106 H 0.22323 0.98353 0.37957 0.0
H2107 H 0.28582 1.00218 0.50217 0.0
H2108 H 0.16795 0.01333 0.47515 0.0
H2109 H 0.13686 0.01802 0.42329 0.0
H2110 H 0.20761 0.03151 0.3623 0.0
H2111 H 0.23904 0.02706 0.41395 0.0
C2112 C 0.21835 0.0242 0.64338 0.0
C2113 C 0.20891 0.0366 0.64482 0.0
C2114 C 0.22749 0.01902 0.61055 0.0
C2115 C 0.22812 0.02623 0.57868 0.0
C2116 C 0.21933 0.03872 0.58038 0.0
C2117 C 0.20965 0.04382 0.613 0.0
C2118 C 0.23652 0.02064 0.54321 0.0
C2119 C 0.21864 0.02229 0.51322 0.0
C2120 C 0.26143 0.01352 0.53887 0.0
C2121 C 0.28235 0.01216 0.5685 0.0
C2122 C 0.29398 0.02273 0.58531 0.0
C2123 C 0.3135 0.02138 0.61343 0.0
C2124 C 0.3217 0.00951 0.62482 0.0
C2125 C 0.31045 0.99896 0.60804 0.0
C2126 C 0.29091 1.00025 0.57992 0.0
C2127 C 0.28659 0.99793 0.39081 0.0
C2128 C 0.26577 0.99057 0.37424 0.0
C2129 C 0.28128 0.00384 0.424 0.0
C2130 C 0.25501 0.00255 0.44113 0.0
C2131 C 0.23443 0.99499 0.4249 0.0
C2132 C 0.23964 0.98918 0.39163 0.0
C2133 C 0.24882 0.00929 0.47555 0.0
C2134 C 0.26703 0.00782 0.50526 0.0
C2135 C 0.22468 0.01691 0.4794 0.0
C2136 C 0.20587 0.01974 0.44832 0.0
C2137 C 0.17684 0.01734 0.45073 0.0
C2138 C 0.15917 0.01995 0.42136 0.0
C2139 C 0.17027 0.02502 0.38949 0.0
C2140 C 0.19905 0.02754 0.38695 0.0
C2141 C 0.21681 0.02496 0.41625 0.0
H2142 H 0.15655 0.02703 0.36677 0.0
H2143 H 0.33681 0.00849 0.6466 0.0
H2144 H 0.32345 0.20706 0.0088 0.0
H2145 H 0.27968 0.21873 0.01637 0.0
H2146 H 0.32717 0.25278 0.0278 0.0
H2147 H 0.37099 0.24104 0.0222 0.0
H2148 H 0.28482 0.25408 0.07039 0.0
H2149 H 0.29519 0.24321 0.9449 0.0
H2150 H 0.30222 0.22918 0.89267 0.0
H2151 H 0.22642 0.2095 0.91993 0.0
H2152 H 0.21912 0.22334 0.97259 0.0
H2153 H 0.17852 0.29611 0.00387 0.0
H2154 H 0.22076 0.28336 0.0123 0.0
H2155 H 0.16896 0.25101 0.03068 0.0
H2156 H 0.12659 0.26369 0.02295 0.0
H2157 H 0.21188 0.24842 0.97547 0.0
H2158 H 0.20114 0.26172 0.09957 0.0
H2159 H 0.19537 0.27721 0.1484 0.0
H2160 H 0.27382 0.29425 0.11867 0.0
H2161 H 0.27986 0.27896 0.06929 0.0
C2162 C 0.32454 0.21701 0.01335 0.0
C2163 C 0.35065 0.22315 0.01458 0.0
C2164 C 0.2995 0.2237 0.01745 0.0
C2165 C 0.30001 0.23671 0.02168 0.0
C2166 C 0.32613 0.24277 0.0244 0.0
C2167 C 0.35121 0.23605 0.02113 0.0
C2168 C 0.27344 0.24407 0.0218 0.0
C2169 C 0.26903 0.2529 0.04941 0.0
C2170 C 0.25256 0.2425 0.99468 0.0
C2171 C 0.25678 0.23422 0.96289 0.0
C2172 C 0.28012 0.23584 0.93988 0.0
C2173 C 0.28414 0.22793 0.91018 0.0
C2174 C 0.26482 0.21843 0.90305 0.0
C2175 C 0.24139 0.21685 0.92552 0.0
C2176 C 0.23729 0.22473 0.95528 0.0
C2177 C 0.17609 0.28632 0.01017 0.0
C2178 C 0.14918 0.28091 0.01263 0.0
C2179 C 0.20024 0.27906 0.01506 0.0
C2180 C 0.19792 0.26626 0.0221 0.0
C2181 C 0.17114 0.26088 0.02528 0.0
C2182 C 0.14698 0.26816 0.02098 0.0
C2183 C 0.22344 0.25836 0.02393 0.0
C2184 C 0.22764 0.24949 0.99656 0.0
C2185 C 0.24435 0.2601 0.05073 0.0
C2186 C 0.24081 0.26926 0.08051 0.0
C2187 C 0.21704 0.26883 0.10323 0.0
C2188 C 0.21375 0.27757 0.13106 0.0
C2189 C 0.23418 0.28673 0.13658 0.0
C2190 C 0.25799 0.28716 0.11434 0.0
C2191 C 0.26137 0.27845 0.08645 0.0
H2192 H 0.23159 0.29348 0.15814 0.0
H2193 H 0.26797 0.21232 0.88006 0.0
H2194 H 0.82164 0.70631 0.01335 0.0
H2195 H 0.77808 0.71808 0.02206 0.0
H2196 H 0.82588 0.75223 0.02743 0.0
H2197 H 0.86948 0.74041 0.02111 0.0
H2198 H 0.78548 0.75441 0.07129 0.0
H2199 H 0.79036 0.74113 0.94709 0.0
H2200 H 0.7948 0.72612 0.89672 0.0
H2201 H 0.71994 0.70736 0.93249 0.0
H2202 H 0.71526 0.72217 0.98336 0.0
H2203 H 0.67864 0.7958 0.00321 0.0
H2204 H 0.72053 0.78289 0.01226 0.0
H2205 H 0.66795 0.75151 0.03932 0.0
H2206 H 0.62593 0.76437 0.03095 0.0
H2207 H 0.70872 0.74734 0.98243 0.0
H2208 H 0.70328 0.76343 0.10433 0.0
H2209 H 0.70004 0.78005 0.15031 0.0
H2210 H 0.77793 0.79563 0.11247 0.0
H2211 H 0.78144 0.7792 0.06589 0.0
C2212 C 0.82281 0.71632 0.01683 0.0
C2213 C 0.84892 0.72245 0.01628 0.0
C2214 C 0.7979 0.72306 0.02154 0.0
C2215 C 0.79851 0.73612 0.0244 0.0
C2216 C 0.82471 0.74219 0.02517 0.0
C2217 C 0.84966 0.73542 0.02147 0.0
C2218 C 0.77197 0.74353 0.02525 0.0
C2219 C 0.76886 0.75291 0.05161 0.0
C2220 C 0.74996 0.74155 0.99989 0.0
C2221 C 0.75264 0.73267 0.96924 0.0
C2222 C 0.77496 0.73375 0.94434 0.0
C2223 C 0.7775 0.72529 0.91569 0.0
C2224 C 0.75771 0.71577 0.91147 0.0
C2225 C 0.73528 0.71472 0.93583 0.0
C2226 C 0.73266 0.72315 0.96456 0.0
C2227 C 0.67598 0.7862 0.01161 0.0
C2228 C 0.64893 0.7811 0.01622 0.0
C2229 C 0.69994 0.77886 0.01685 0.0
C2230 C 0.69728 0.76626 0.02643 0.0
C2231 C 0.67039 0.76122 0.03194 0.0
C2232 C 0.64643 0.7686 0.02727 0.0
C2233 C 0.72249 0.75817 0.02822 0.0
C2234 C 0.72533 0.74871 1.00224 0.0
C2235 C 0.74449 0.7603 0.05326 0.0
C2236 C 0.7425 0.77014 0.08141 0.0
C2237 C 0.7196 0.77045 0.10561 0.0
C2238 C 0.71774 0.77983 0.13182 0.0
C2239 C 0.73873 0.78891 0.13426 0.0
C2240 C 0.76167 0.7886 0.11053 0.0
C2241 C 0.76363 0.77925 0.08425 0.0
H2242 H 0.73725 0.79616 0.15457 0.0
H2243 H 0.75972 0.70922 0.88928 0.0
H2244 H 0.12384 0.51394 0.27898 0.0
H2245 H 0.08102 0.50142 0.28468 0.0
H2246 H 0.0305 0.53375 0.26097 0.0
H2247 H 0.07324 0.54632 0.25435 0.0
H2248 H 0.01102 0.51675 0.32189 0.0
H2249 H 0.03986 0.5172 0.19503 0.0
H2250 H 0.07425 0.51427 0.14557 0.0
H2251 H 0.08472 0.47597 0.17627 0.0
H2252 H 0.05072 0.47874 0.22629 0.0
H2253 H 0.88033 0.49064 0.27052 0.0
H2254 H 0.92378 0.50244 0.27787 0.0
H2255 H 0.97218 0.46895 0.2603 0.0
H2256 H 0.92865 0.45723 0.25095 0.0
H2257 H 0.9946 0.48605 0.22349 0.0
H2258 H 0.96487 0.48419 0.34691 0.0
H2259 H 0.93231 0.48625 0.3987 0.0
H2260 H 0.92568 0.52557 0.37924 0.0
H2261 H 0.95791 0.52372 0.327 0.0
C2262 C 0.10362 0.51845 0.27552 0.0
C2263 C 0.10194 0.53112 0.26599 0.0
C2264 C 0.07921 0.51127 0.27873 0.0
C2265 C 0.0527 0.51667 0.27309 0.0
C2266 C 0.05082 0.52944 0.26547 0.0
C2267 C 0.07524 0.53659 0.26158 0.0
C2268 C 0.02711 0.50881 0.2725 0.0
C2269 C 0.00718 0.5101 0.3003 0.0
C2270 C 0.02271 0.49989 0.24487 0.0
C2271 C 0.04301 0.49822 0.21466 0.0
C2272 C 0.04971 0.50819 0.19146 0.0
C2273 C 0.06909 0.50655 0.16328 0.0
C2274 C 0.08172 0.49495 0.15786 0.0
C2275 C 0.07496 0.48496 0.18055 0.0
C2276 C 0.05563 0.48655 0.2088 0.0
C2277 C 0.90022 0.48576 0.26864 0.0
C2278 C 0.90104 0.473 0.26016 0.0
C2279 C 0.92512 0.49251 0.27307 0.0
C2280 C 0.95142 0.48659 0.27021 0.0
C2281 C 0.95222 0.47377 0.26261 0.0
C2282 C 0.92732 0.46706 0.25739 0.0
C2283 C 0.97802 0.49391 0.27301 0.0
C2284 C 0.99828 0.49257 0.24546 0.0
C2285 C 0.98289 0.50262 0.30129 0.0
C2286 C 0.96363 0.50379 0.33284 0.0
C2287 C 0.95632 0.49326 0.35352 0.0
C2288 C 0.93795 0.49439 0.38298 0.0
C2289 C 0.92689 0.50603 0.39221 0.0
C2290 C 0.93425 0.51656 0.37204 0.0
C2291 C 0.9526 0.51548 0.34253 0.0
H2292 H 0.91265 0.50688 0.41502 0.0
H2293 H 0.0967 0.49369 0.13602 0.0
H2294 H 0.36901 0.7346 0.55495 0.0
H2295 H 0.32633 0.74683 0.56548 0.0
H2296 H 0.28297 0.72548 0.4835 0.0
H2297 H 0.32506 0.71299 0.47381 0.0
H2298 H 0.2999 0.76196 0.52413 0.0
H2299 H 0.21403 0.72422 0.49739 0.0
H2300 H 0.20677 0.70178 0.50835 0.0
H2301 H 0.26536 0.70294 0.59699 0.0
H2302 H 0.2727 0.72541 0.5869 0.0
H2303 H 0.17445 0.7899 0.4662 0.0
H2304 H 0.2169 0.77758 0.47512 0.0
H2305 H 0.18068 0.76118 0.57142 0.0
H2306 H 0.13739 0.77309 0.56147 0.0
H2307 H 0.20421 0.74396 0.53602 0.0
H2308 H 0.23605 0.78384 0.57362 0.0
H2309 H 0.24349 0.80653 0.5697 0.0
H2310 H 0.29359 0.80159 0.47375 0.0
H2311 H 0.28615 0.77888 0.4768 0.0
C2312 C 0.35025 0.7324 0.53954 0.0
C2313 C 0.35047 0.72278 0.51359 0.0
C2314 C 0.32588 0.73943 0.54551 0.0
C2315 C 0.30126 0.73703 0.52556 0.0
C2316 C 0.30141 0.72736 0.4999 0.0
C2317 C 0.32561 0.72023 0.49424 0.0
C2318 C 0.2759 0.74505 0.52996 0.0
C2319 C 0.279 0.75802 0.52701 0.0
C2320 C 0.24862 0.73999 0.53466 0.0
C2321 C 0.24406 0.72649 0.54119 0.0
C2322 C 0.22526 0.7197 0.51934 0.0
C2323 C 0.22115 0.70697 0.52538 0.0
C2324 C 0.23565 0.70094 0.55329 0.0
C2325 C 0.25422 0.70762 0.5753 0.0
C2326 C 0.25838 0.72035 0.5694 0.0
C2327 C 0.1756 0.78377 0.48952 0.0
C2328 C 0.15259 0.78251 0.51323 0.0
C2329 C 0.20001 0.77676 0.49473 0.0
C2330 C 0.20236 0.76859 0.52437 0.0
C2331 C 0.17949 0.76743 0.54838 0.0
C2332 C 0.15478 0.77426 0.54274 0.0
C2333 C 0.22814 0.76085 0.52913 0.0
C2334 C 0.22512 0.74792 0.53368 0.0
C2335 C 0.25557 0.766 0.52706 0.0
C2336 C 0.2604 0.77965 0.52534 0.0
C2337 C 0.24854 0.78759 0.55158 0.0
C2338 C 0.25277 0.80046 0.54952 0.0
C2339 C 0.26896 0.8055 0.52146 0.0
C2340 C 0.28105 0.79767 0.49547 0.0
C2341 C 0.27687 0.7848 0.49739 0.0
H2342 H 0.27218 0.81546 0.51989 0.0
H2343 H 0.23245 0.69108 0.55789 0.0
H2344 H 0.87288 0.23999 0.5236 0.0
H2345 H 0.82953 0.25186 0.53076 0.0
H2346 H 0.7809 0.21833 0.51496 0.0
H2347 H 0.82433 0.20651 0.50584 0.0
H2348 H 0.75898 0.23521 0.47678 0.0
H2349 H 0.78779 0.23421 0.60057 0.0
H2350 H 0.81998 0.23657 0.65259 0.0
H2351 H 0.82721 0.27573 0.63079 0.0
H2352 H 0.79535 0.27357 0.57831 0.0
H2353 H 0.62975 0.26396 0.52743 0.0
H2354 H 0.67221 0.25129 0.53433 0.0
H2355 H 0.72372 0.28342 0.51184 0.0
H2356 H 0.68134 0.29616 0.50414 0.0
H2357 H 0.74227 0.26674 0.57287 0.0
H2358 H 0.71478 0.26637 0.44578 0.0
H2359 H 0.68087 0.26328 0.39593 0.0
H2360 H 0.6692 0.22522 0.42844 0.0
H2361 H 0.70274 0.22816 0.47888 0.0
C2362 C 0.85297 0.2351 0.52213 0.0
C2363 C 0.85205 0.2223 0.51411 0.0
C2364 C 0.82811 0.2419 0.52645 0.0
C2365 C 0.80178 0.236 0.52392 0.0
C2366 C 0.80088 0.22313 0.517 0.0
C2367 C 0.82574 0.21637 0.51191 0.0
C2368 C 0.77525 0.24339 0.52601 0.0
C2369 C 0.75522 0.24191 0.49827 0.0
C2370 C 0.77031 0.25234 0.55362 0.0
C2371 C 0.78935 0.2537 0.58531 0.0
C2372 C 0.79639 0.24331 0.60671 0.0
C2373 C 0.81456 0.24462 0.63631 0.0
C2374 C 0.82568 0.25629 0.64494 0.0
C2375 C 0.81859 0.26669 0.62405 0.0
C2376 C 0.80045 0.26543 0.59441 0.0
C2377 C 0.6501 0.26839 0.5244 0.0
C2378 C 0.65216 0.28106 0.51497 0.0
C2379 C 0.67431 0.26112 0.52834 0.0
C2380 C 0.70102 0.26643 0.52345 0.0
C2381 C 0.70325 0.27918 0.51577 0.0
C2382 C 0.67903 0.28642 0.51122 0.0
C2383 C 0.72648 0.25848 0.52377 0.0
C2384 C 0.74618 0.2599 0.55178 0.0
C2385 C 0.73096 0.24933 0.49683 0.0
C2386 C 0.711 0.24753 0.46634 0.0
C2387 C 0.70478 0.25738 0.4425 0.0
C2388 C 0.68567 0.25565 0.4141 0.0
C2389 C 0.67282 0.24407 0.40908 0.0
C2390 C 0.67913 0.23419 0.4324 0.0
C2391 C 0.69819 0.23588 0.46088 0.0
H2392 H 0.65804 0.24275 0.38708 0.0
H2393 H 0.83976 0.25728 0.66785 0.0
H2394 H 0.07433 0.04654 0.74707 0.0
H2395 H 0.03143 0.03406 0.75425 0.0
H2396 H 0.08162 1.00192 0.78112 0.0
H2397 H 0.1245 0.01432 0.77476 0.0
H2398 H 0.03987 0.99893 0.7225 0.0
H2399 H 0.04891 0.01352 0.84615 0.0
H2400 H 0.0539 0.02968 0.89325 0.0
H2401 H 0.97611 0.04634 0.85924 0.0
H2402 H 0.97087 0.03038 0.81156 0.0
H2403 H 0.9291 0.95737 0.75766 0.0
H2404 H 0.97258 0.96933 0.76446 0.0
H2405 H 0.92411 0.00315 0.77484 0.0
H2406 H 0.88066 0.99113 0.77032 0.0
H2407 H 0.96619 0.00527 0.81616 0.0
H2408 H 0.95661 0.99302 0.69185 0.0
H2409 H 0.95026 0.97851 0.64062 0.0
H2410 H 0.02671 0.95963 0.66946 0.0
H2411 H 0.03333 0.97394 0.72118 0.0
C2412 C 0.07621 0.03685 0.75489 0.0
C2413 C 0.10283 0.03142 0.76034 0.0
C2414 C 0.05171 0.02975 0.75905 0.0
C2415 C 0.05345 0.01709 0.76821 0.0
C2416 C 0.0799 0.01168 0.77407 0.0
C2417 C 0.10436 0.01881 0.77057 0.0
C2418 C 0.02775 0.00931 0.76992 0.0
C2419 C 0.0239 1.00016 0.74326 0.0
C2420 C 0.0066 0.01127 0.79626 0.0
C2421 C 0.00965 0.02082 0.82505 0.0
C2422 C 0.033 0.02069 0.84849 0.0
C2423 C 0.03584 0.0298 0.87534 0.0
C2424 C 0.01537 0.03905 0.87917 0.0
C2425 C 0.99197 0.03919 0.85622 0.0
C2426 C 0.98904 0.0301 0.8293 0.0
C2427 C 0.92776 0.96733 0.76189 0.0
C2428 C 0.9015 0.97332 0.76319 0.0
C2429 C 0.95263 0.97419 0.76548 0.0
C2430 C 0.95176 0.98723 0.76911 0.0
C2431 C 0.92546 0.99313 0.77191 0.0
C2432 C 0.90059 0.98624 0.76927 0.0
C2433 C 0.9781 0.99477 0.76864 0.0
C2434 C 0.98212 0.00393 0.79541 0.0
C2435 C 0.99915 0.99305 0.74177 0.0
C2436 C 0.9953 0.98446 0.7106 0.0
C2437 C 0.97197 0.98572 0.6874 0.0
C2438 C 0.96833 0.97754 0.65827 0.0
C2439 C 0.98803 0.96813 0.65185 0.0
C2440 C 0.01145 0.96691 0.6745 0.0
C2441 C 0.01516 0.97505 0.70372 0.0
H2442 H 0.98517 0.9618 0.62928 0.0
H2443 H 0.01761 0.0461 0.89998 0.0
H2444 H 0.42903 0.45886 0.74726 0.0
H2445 H 0.47149 0.47148 0.75523 0.0
H2446 H 0.42048 0.5031 0.78474 0.0
H2447 H 0.37789 0.49052 0.77741 0.0
H2448 H 0.46099 0.50749 0.72804 0.0
H2449 H 0.45579 0.49024 0.84864 0.0
H2450 H 0.45219 0.47319 0.89326 0.0
H2451 H 0.52914 0.45737 0.85312 0.0
H2452 H 0.53298 0.47423 0.80787 0.0
H2453 H 0.57442 0.54771 0.76235 0.0
H2454 H 0.53089 0.53591 0.77054 0.0
H2455 H 0.57842 0.50164 0.77148 0.0
H2456 H 0.62209 0.51349 0.76563 0.0
H2457 H 0.53799 0.49899 0.81553 0.0
H2458 H 0.54276 0.51381 0.6928 0.0
H2459 H 0.54745 0.52947 0.64418 0.0
H2460 H 0.47304 0.54803 0.68229 0.0
H2461 H 0.46812 0.53256 0.73143 0.0
C2462 C 0.42683 0.46846 0.75583 0.0
C2463 C 0.40004 0.47369 0.76161 0.0
C2464 C 0.45112 0.47564 0.76047 0.0
C2465 C 0.44908 0.4882 0.77061 0.0
C2466 C 0.42246 0.49341 0.77693 0.0
C2467 C 0.39817 0.48619 0.77284 0.0
C2468 C 0.47466 0.49607 0.77266 0.0
C2469 C 0.47766 0.50579 0.74755 0.0
C2470 C 0.49673 0.49354 0.7973 0.0
C2471 C 0.49454 0.48344 0.82465 0.0
C2472 C 0.47182 0.48307 0.84912 0.0
C2473 C 0.46976 0.47345 0.87457 0.0
C2474 C 0.49039 0.46419 0.87597 0.0
C2475 C 0.51316 0.46455 0.85198 0.0
C2476 C 0.51531 0.47414 0.82645 0.0
C2477 C 0.57557 0.53767 0.76479 0.0
C2478 C 0.60161 0.53151 0.76304 0.0
C2479 C 0.55065 0.53091 0.76919 0.0
C2480 C 0.55117 0.51782 0.77055 0.0
C2481 C 0.57733 0.51171 0.77033 0.0
C2482 C 0.60232 0.51849 0.76693 0.0
C2483 C 0.52454 0.51047 0.77071 0.0
C2484 C 0.52132 0.5008 0.79613 0.0
C2485 C 0.50247 0.51285 0.74571 0.0
C2486 C 0.50525 0.5221 0.71601 0.0
C2487 C 0.5275 0.52127 0.69093 0.0
C2488 C 0.53019 0.53011 0.66328 0.0
C2489 C 0.5106 0.53976 0.66022 0.0
C2490 C 0.48823 0.54057 0.68474 0.0
C2491 C 0.48546 0.53176 0.71248 0.0
H2492 H 0.51273 0.5466 0.6388 0.0
H2493 H 0.48876 0.45675 0.89569 0.0
H2494 H 0.43065 0.95854 0.24996 0.0
H2495 H 0.47339 0.97095 0.25818 0.0
H2496 H 0.42325 1.00233 0.29199 0.0
H2497 H 0.38039 0.98998 0.28434 0.0
H2498 H 0.46221 0.00738 0.23484 0.0
H2499 H 0.46033 0.9885 0.35345 0.0
H2500 H 0.458 0.97089 0.3963 0.0
H2501 H 0.53387 0.9557 0.35104 0.0
H2502 H 0.53644 0.97313 0.30754 0.0
H2503 H 0.57599 0.0473 0.26895 0.0
H2504 H 0.5329 0.03524 0.27778 0.0
H2505 H 0.58088 1.00115 0.27191 0.0
H2506 H 0.62421 0.01324 0.2654 0.0
H2507 H 0.54162 0.99775 0.31761 0.0
H2508 H 0.54301 0.01433 0.19671 0.0
H2509 H 0.54638 0.03071 0.14998 0.0
H2510 H 0.47289 0.04856 0.19354 0.0
H2511 H 0.46931 0.03236 0.24084 0.0
C2512 C 0.42871 0.96803 0.25961 0.0
C2513 C 0.40207 0.97328 0.26637 0.0
C2514 C 0.45317 0.97509 0.26438 0.0
C2515 C 0.45144 0.98755 0.2757 0.0
C2516 C 0.42499 0.99273 0.28324 0.0
C2517 C 0.40054 0.98564 0.27896 0.0
C2518 C 0.4771 0.99538 0.27747 0.0
C2519 C 0.47941 0.00543 0.25336 0.0
C2520 C 0.49986 0.99252 0.30073 0.0
C2521 C 0.49843 0.98207 0.32702 0.0
C2522 C 0.47639 0.98135 0.35242 0.0
C2523 C 0.47505 0.97141 0.37688 0.0
C2524 C 0.49574 0.96217 0.37634 0.0
C2525 C 0.51785 0.96286 0.35141 0.0
C2526 C 0.51927 0.97277 0.32687 0.0
C2527 C 0.57734 0.03723 0.27003 0.0
C2528 C 0.6034 0.0312 0.26617 0.0
C2529 C 0.55268 0.03033 0.27481 0.0
C2530 C 0.55342 0.01724 0.27442 0.0
C2531 C 0.57964 0.01122 0.27213 0.0
C2532 C 0.60442 0.01814 0.26835 0.0
C2533 C 0.5269 0.00982 0.27486 0.0
C2534 C 0.52441 0.99981 0.29923 0.0
C2535 C 0.50415 0.01252 0.25119 0.0
C2536 C 0.50607 0.0222 0.22253 0.0
C2537 C 0.52767 0.02179 0.19644 0.0
C2538 C 0.52961 0.03104 0.16985 0.0
C2539 C 0.50991 0.04069 0.16886 0.0
C2540 C 0.48816 0.04109 0.19438 0.0
C2541 C 0.48615 0.03187 0.22107 0.0
H2542 H 0.51146 0.04785 0.14827 0.0
H2543 H 0.49466 0.95448 0.3953 0.0
loop_
_geom_bond_atom_site_label_1
_geom_bond_atom_site_label_2
_geom_bond_distance
_geom_bond_site_symmetry_2
_ccdc_geom_bond_type
Co0 O3 1.970 . S
Co0 N17 1.989 . S
Co0 O25 1.967 . S
Co0 O32 1.920 . S
Co1 O4 1.966 . S
Co1 N10 2.022 . S
Co1 N18 1.993 . S
Co1 O26 1.941 1_554 S
C2 O3 1.258 . S
C2 O4 1.263 1_556 S
O3 Co0 1.970 . S
O3 C2 1.258 . S
O4 Co1 1.966 . S
O4 C2 1.263 1_554 S
C5 O6 1.235 . S
C5 O32 1.289 . S
O6 C5 1.235 . S
C7 C9 1.400 . S
C7 N10 1.351 . S
C7 C12 1.501 . S
C8 C9 1.387 . S
C8 N11 1.341 . S
C9 C7 1.400 . S
C9 C8 1.387 . S
N10 Co1 2.022 . S
N10 C7 1.351 . S
N10 N11 1.365 . S
N11 C8 1.341 . S
N11 N10 1.365 . S
N11 H31 0.861 . S
C12 C7 1.501 . S
C12 H13 0.961 . S
C12 H14 0.961 . S
C12 H15 0.960 . S
H13 C12 0.961 . S
H14 C12 0.961 . S
H15 C12 0.960 . S
C16 N17 1.342 1_554 S
C16 C20 1.401 . S
C16 C21 1.499 1_554 S
N17 Co0 1.989 . S
N17 C16 1.342 1_556 S
N17 N18 1.388 1_556 S
N18 Co1 1.993 . S
N18 N17 1.388 1_554 S
N18 C19 1.346 . S
C19 N18 1.346 . S
C19 C20 1.396 . S
C19 C29 1.510 . S
C20 C16 1.401 . S
C20 C19 1.396 . S
C21 C16 1.499 1_556 S
C21 H22 0.959 . S
C21 H23 0.971 . S
C21 H24 0.961 . S
H22 C21 0.959 . S
H23 C21 0.971 . S
H24 C21 0.961 . S
O25 Co0 1.967 . S
O25 C33 1.258 . S
O26 Co1 1.941 1_556 S
O26 C33 1.266 . S
H27 C29 0.959 . S
H28 C29 0.961 . S
C29 C19 1.510 . S
C29 H27 0.959 . S
C29 H28 0.961 . S
C29 H30 0.960 . S
H30 C29 0.960 . S
H31 N11 0.861 . S
O32 Co0 1.920 . S
O32 C5 1.289 . S
C33 O25 1.258 . S
C33 O26 1.266 . S
Co34 O37 1.970 . S
Co34 N51 1.989 . S
Co34 O59 1.967 . S
Co34 O66 1.920 . S
Co35 O38 1.966 . S
Co35 N44 2.022 . S
Co35 N52 1.993 . S
Co35 O60 1.941 1_554 S
C36 O37 1.258 . S
C36 O38 1.263 1_556 S
O37 Co34 1.970 . S
O37 C36 1.258 . S
O38 Co35 1.966 . S
O38 C36 1.263 1_554 S
C39 O40 1.235 . S
C39 O66 1.289 . S
O40 C39 1.235 . S
C41 C43 1.400 . S
C41 N44 1.351 . S
C41 C46 1.501 . S
C42 C43 1.387 . S
C42 N45 1.341 . S
C43 C41 1.400 . S
C43 C42 1.387 . S
N44 Co35 2.022 . S
N44 C41 1.351 . S
N44 N45 1.365 . S
N45 C42 1.341 . S
N45 N44 1.365 . S
N45 H65 0.861 . S
C46 C41 1.501 . S
C46 H47 0.961 . S
C46 H48 0.961 . S
C46 H49 0.960 . S
H47 C46 0.961 . S
H48 C46 0.961 . S
H49 C46 0.960 . S
C50 N51 1.342 1_554 S
C50 C54 1.401 . S
C50 C55 1.499 1_554 S
N51 Co34 1.989 . S
N51 C50 1.342 1_556 S
N51 N52 1.388 1_556 S
N52 Co35 1.993 . S
N52 N51 1.388 1_554 S
N52 C53 1.346 . S
C53 N52 1.346 . S
C53 C54 1.396 . S
C53 C63 1.510 . S
C54 C50 1.401 . S
C54 C53 1.396 . S
C55 C50 1.499 1_556 S
C55 H56 0.959 . S
C55 H57 0.971 . S
C55 H58 0.961 . S
H56 C55 0.959 . S
H57 C55 0.971 . S
H58 C55 0.961 . S
O59 Co34 1.967 . S
O59 C67 1.258 . S
O60 Co35 1.941 1_556 S
O60 C67 1.266 . S
H61 C63 0.959 . S
H62 C63 0.961 . S
C63 C53 1.510 . S
C63 H61 0.959 . S
C63 H62 0.961 . S
C63 H64 0.960 . S
H64 C63 0.960 . S
H65 N45 0.861 . S
O66 Co34 1.920 . S
O66 C39 1.289 . S
C67 O59 1.258 . S
C67 O60 1.266 . S
Co68 O71 1.970 . S
Co68 N85 1.989 . S
Co68 O93 1.967 . S
Co68 O100 1.920 . S
Co69 O72 1.966 . S
Co69 N78 2.022 . S
Co69 N86 1.993 . S
Co69 O94 1.941 . S
C70 O71 1.258 . S
C70 O72 1.263 . S
O71 Co68 1.970 . S
O71 C70 1.258 . S
O72 Co69 1.966 . S
O72 C70 1.263 . S
C73 O74 1.235 . S
C73 O100 1.289 . S
O74 C73 1.235 . S
C75 C77 1.400 . S
C75 N78 1.351 . S
C75 C80 1.501 . S
C76 C77 1.387 . S
C76 N79 1.341 . S
C77 C75 1.400 . S
C77 C76 1.387 . S
N78 Co69 2.022 . S
N78 C75 1.351 . S
N78 N79 1.365 . S
N79 C76 1.341 . S
N79 N78 1.365 . S
N79 H99 0.862 . S
C80 C75 1.501 . S
C80 H81 0.961 . S
C80 H82 0.961 . S
C80 H83 0.960 . S
H81 C80 0.961 . S
H82 C80 0.961 . S
H83 C80 0.960 . S
C84 N85 1.342 . S
C84 C88 1.401 . S
C84 C89 1.499 . S
N85 Co68 1.989 . S
N85 C84 1.342 . S
N85 N86 1.388 . S
N86 Co69 1.993 . S
N86 N85 1.388 . S
N86 C87 1.346 . S
C87 N86 1.346 . S
C87 C88 1.396 . S
C87 C97 1.510 . S
C88 C84 1.401 . S
C88 C87 1.396 . S
C89 C84 1.499 . S
C89 H90 0.959 . S
C89 H91 0.960 . S
C89 H92 0.961 . S
H90 C89 0.959 . S
H91 C89 0.960 . S
H92 C89 0.961 . S
O93 Co68 1.967 . S
O93 C101 1.258 . S
O94 Co69 1.941 . S
O94 C101 1.266 . S
H95 C97 0.959 . S
H96 C97 0.961 . S
C97 C87 1.510 . S
C97 H95 0.959 . S
C97 H96 0.961 . S
C97 H98 0.960 . S
H98 C97 0.960 . S
H99 N79 0.862 . S
O100 Co68 1.920 . S
O100 C73 1.289 . S
C101 O93 1.258 . S
C101 O94 1.266 . S
Co102 O105 1.970 . S
Co102 N119 1.989 . S
Co102 O127 1.967 . S
Co102 O134 1.920 . S
Co103 O106 1.966 . S
Co103 N112 2.022 . S
Co103 N120 1.993 . S
Co103 O128 1.941 . S
C104 O105 1.258 . S
C104 O106 1.263 . S
O105 Co102 1.970 . S
O105 C104 1.258 . S
O106 Co103 1.966 . S
O106 C104 1.263 . S
C107 O108 1.235 . S
C107 O134 1.289 . S
O108 C107 1.235 . S
C109 C111 1.400 . S
C109 N112 1.351 . S
C109 C114 1.501 . S
C110 C111 1.387 . S
C110 N113 1.341 . S
C111 C109 1.400 . S
C111 C110 1.387 . S
N112 Co103 2.022 . S
N112 C109 1.351 . S
N112 N113 1.365 . S
N113 C110 1.341 . S
N113 N112 1.365 . S
N113 H133 0.862 . S
C114 C109 1.501 . S
C114 H115 0.961 . S
C114 H116 0.961 . S
C114 H117 0.960 . S
H115 C114 0.961 . S
H116 C114 0.961 . S
H117 C114 0.960 . S
C118 N119 1.342 . S
C118 C122 1.401 . S
C118 C123 1.499 . S
N119 Co102 1.989 . S
N119 C118 1.342 . S
N119 N120 1.388 . S
N120 Co103 1.993 . S
N120 N119 1.388 . S
N120 C121 1.346 . S
C121 N120 1.346 . S
C121 C122 1.396 . S
C121 C131 1.510 . S
C122 C118 1.401 . S
C122 C121 1.396 . S
C123 C118 1.499 . S
C123 H124 0.959 . S
C123 H125 0.960 . S
C123 H126 0.961 . S
H124 C123 0.959 . S
H125 C123 0.960 . S
H126 C123 0.961 . S
O127 Co102 1.967 . S
O127 C135 1.258 . S
O128 Co103 1.941 . S
O128 C135 1.266 . S
H129 C131 0.959 . S
H130 C131 0.961 . S
C131 C121 1.510 . S
C131 H129 0.959 . S
C131 H130 0.961 . S
C131 H132 0.960 . S
H132 C131 0.960 . S
H133 N113 0.862 . S
O134 Co102 1.920 . S
O134 C107 1.289 . S
C135 O127 1.258 . S
C135 O128 1.266 . S
Co136 O139 1.970 . S
Co136 N153 1.989 . S
Co136 O161 1.967 . S
Co136 O168 1.920 . S
Co137 O140 1.966 . S
Co137 N146 2.022 . S
Co137 N154 1.993 . S
Co137 O162 1.941 . S
C138 O139 1.258 . S
C138 O140 1.263 . S
O139 Co136 1.970 . S
O139 C138 1.258 . S
O140 Co137 1.966 . S
O140 C138 1.263 . S
C141 O142 1.235 . S
C141 O168 1.289 . S
O142 C141 1.235 . S
C143 C145 1.400 . S
C143 N146 1.351 . S
C143 C148 1.501 . S
C144 C145 1.387 . S
C144 N147 1.341 . S
C145 C143 1.400 . S
C145 C144 1.387 . S
N146 Co137 2.022 . S
N146 C143 1.351 . S
N146 N147 1.365 . S
N147 C144 1.341 . S
N147 N146 1.365 . S
N147 H167 0.861 . S
C148 C143 1.501 . S
C148 H149 0.961 . S
C148 H150 0.961 . S
C148 H151 0.960 . S
H149 C148 0.961 . S
H150 C148 0.961 . S
H151 C148 0.960 . S
C152 N153 1.342 . S
C152 C156 1.401 . S
C152 C157 1.499 . S
N153 Co136 1.989 . S
N153 C152 1.342 . S
N153 N154 1.388 . S
N154 Co137 1.993 . S
N154 N153 1.388 . S
N154 C155 1.346 . S
C155 N154 1.346 . S
C155 C156 1.396 . S
C155 C165 1.510 . S
C156 C152 1.401 . S
C156 C155 1.396 . S
C157 C152 1.499 . S
C157 H158 0.959 . S
C157 H159 0.960 . S
C157 H160 0.961 . S
H158 C157 0.959 . S
H159 C157 0.960 . S
H160 C157 0.961 . S
O161 Co136 1.967 . S
O161 C169 1.258 . S
O162 Co137 1.941 . S
O162 C169 1.266 . S
H163 C165 0.959 . S
H164 C165 0.961 . S
C165 C155 1.510 . S
C165 H163 0.959 . S
C165 H164 0.961 . S
C165 H166 0.960 . S
H166 C165 0.960 . S
H167 N147 0.861 . S
O168 Co136 1.920 . S
O168 C141 1.289 . S
C169 O161 1.258 . S
C169 O162 1.266 . S
Co170 O173 1.970 . S
Co170 N187 1.989 . S
Co170 O195 1.967 . S
Co170 O202 1.920 . S
Co171 O174 1.966 . S
Co171 N180 2.022 . S
Co171 N188 1.993 . S
Co171 O196 1.941 . S
C172 O173 1.258 . S
C172 O174 1.263 . S
O173 Co170 1.970 . S
O173 C172 1.258 . S
O174 Co171 1.966 . S
O174 C172 1.263 . S
C175 O176 1.235 . S
C175 O202 1.289 . S
O176 C175 1.235 . S
C177 C179 1.400 . S
C177 N180 1.351 . S
C177 C182 1.501 . S
C178 C179 1.387 . S
C178 N181 1.341 . S
C179 C177 1.400 . S
C179 C178 1.387 . S
N180 Co171 2.022 . S
N180 C177 1.351 . S
N180 N181 1.365 . S
N181 C178 1.341 . S
N181 N180 1.365 . S
N181 H201 0.861 . S
C182 C177 1.501 . S
C182 H183 0.961 . S
C182 H184 0.961 . S
C182 H185 0.960 . S
H183 C182 0.961 . S
H184 C182 0.961 . S
H185 C182 0.960 . S
C186 N187 1.342 . S
C186 C190 1.401 . S
C186 C191 1.499 . S
N187 Co170 1.989 . S
N187 C186 1.342 . S
N187 N188 1.388 . S
N188 Co171 1.993 . S
N188 N187 1.388 . S
N188 C189 1.346 . S
C189 N188 1.346 . S
C189 C190 1.396 . S
C189 C199 1.510 . S
C190 C186 1.401 . S
C190 C189 1.396 . S
C191 C186 1.499 . S
C191 H192 0.959 . S
C191 H193 0.960 . S
C191 H194 0.961 . S
H192 C191 0.959 . S
H193 C191 0.960 . S
H194 C191 0.961 . S
O195 Co170 1.967 . S
O195 C203 1.258 . S
O196 Co171 1.941 . S
O196 C203 1.266 . S
H197 C199 0.959 . S
H198 C199 0.961 . S
C199 C189 1.510 . S
C199 H197 0.959 . S
C199 H198 0.961 . S
C199 H200 0.960 . S
H200 C199 0.960 . S
H201 N181 0.861 . S
O202 Co170 1.920 . S
O202 C175 1.289 . S
C203 O195 1.258 . S
C203 O196 1.266 . S
Co204 O207 1.970 . S
Co204 N221 1.989 . S
Co204 O229 1.967 . S
Co204 O236 1.920 . S
Co205 O208 1.966 . S
Co205 N214 2.022 . S
Co205 N222 1.993 . S
Co205 O230 1.941 . S
C206 O207 1.258 . S
C206 O208 1.263 . S
O207 Co204 1.970 . S
O207 C206 1.258 . S
O208 Co205 1.966 . S
O208 C206 1.263 . S
C209 O210 1.235 . S
C209 O236 1.289 . S
O210 C209 1.235 . S
C211 C213 1.400 . S
C211 N214 1.351 . S
C211 C216 1.501 . S
C212 C213 1.387 . S
C212 N215 1.341 . S
C213 C211 1.400 . S
C213 C212 1.387 . S
N214 Co205 2.022 . S
N214 C211 1.351 . S
N214 N215 1.365 . S
N215 C212 1.341 . S
N215 N214 1.365 . S
N215 H235 0.862 . S
C216 C211 1.501 . S
C216 H217 0.961 . S
C216 H218 0.961 . S
C216 H219 0.960 . S
H217 C216 0.961 . S
H218 C216 0.961 . S
H219 C216 0.960 . S
C220 N221 1.342 . S
C220 C224 1.401 . S
C220 C225 1.499 . S
N221 Co204 1.989 . S
N221 C220 1.342 . S
N221 N222 1.388 . S
N222 Co205 1.993 . S
N222 N221 1.388 . S
N222 C223 1.346 . S
C223 N222 1.346 . S
C223 C224 1.396 . S
C223 C233 1.510 . S
C224 C220 1.401 . S
C224 C223 1.396 . S
C225 C220 1.499 . S
C225 H226 0.959 . S
C225 H227 0.960 . S
C225 H228 0.961 . S
H226 C225 0.959 . S
H227 C225 0.960 . S
H228 C225 0.961 . S
O229 Co204 1.967 . S
O229 C237 1.258 . S
O230 Co205 1.941 . S
O230 C237 1.266 . S
H231 C233 0.959 . S
H232 C233 0.961 . S
C233 C223 1.510 . S
C233 H231 0.959 . S
C233 H232 0.961 . S
C233 H234 0.960 . S
H234 C233 0.960 . S
H235 N215 0.862 . S
O236 Co204 1.920 . S
O236 C209 1.289 . S
C237 O229 1.258 . S
C237 O230 1.266 . S
Co238 O241 1.970 . S
Co238 N255 1.989 . S
Co238 O263 1.967 . S
Co238 O270 1.920 . S
Co239 O242 1.966 . S
Co239 N248 2.022 . S
Co239 N256 1.993 . S
Co239 O264 1.941 . S
C240 O241 1.258 . S
C240 O242 1.263 . S
O241 Co238 1.970 . S
O241 C240 1.258 . S
O242 Co239 1.966 . S
O242 C240 1.263 . S
C243 O244 1.235 . S
C243 O270 1.289 . S
O244 C243 1.235 . S
C245 C247 1.400 . S
C245 N248 1.351 . S
C245 C250 1.501 . S
C246 C247 1.387 . S
C246 N249 1.341 . S
C247 C245 1.400 . S
C247 C246 1.387 . S
N248 Co239 2.022 . S
N248 C245 1.351 . S
N248 N249 1.365 . S
N249 C246 1.341 . S
N249 N248 1.365 . S
N249 H269 0.862 . S
C250 C245 1.501 . S
C250 H251 0.961 . S
C250 H252 0.961 . S
C250 H253 0.960 . S
H251 C250 0.961 . S
H252 C250 0.961 . S
H253 C250 0.960 . S
C254 N255 1.342 . S
C254 C258 1.401 . S
C254 C259 1.499 . S
N255 Co238 1.989 . S
N255 C254 1.342 . S
N255 N256 1.388 . S
N256 Co239 1.993 . S
N256 N255 1.388 . S
N256 C257 1.346 . S
C257 N256 1.346 . S
C257 C258 1.396 . S
C257 C267 1.510 . S
C258 C254 1.401 . S
C258 C257 1.396 . S
C259 C254 1.499 . S
C259 H260 0.959 . S
C259 H261 0.960 . S
C259 H262 0.961 . S
H260 C259 0.959 . S
H261 C259 0.960 . S
H262 C259 0.961 . S
O263 Co238 1.967 . S
O263 C271 1.258 . S
O264 Co239 1.941 . S
O264 C271 1.266 . S
H265 C267 0.959 . S
H266 C267 0.961 . S
C267 C257 1.510 . S
C267 H265 0.959 . S
C267 H266 0.961 . S
C267 H268 0.960 . S
H268 C267 0.960 . S
H269 N249 0.862 . S
O270 Co238 1.920 . S
O270 C243 1.289 . S
C271 O263 1.258 . S
C271 O264 1.266 . S
Co272 O275 1.970 . S
Co272 N289 1.989 . S
Co272 O297 1.967 . S
Co272 O304 1.920 . S
Co273 O276 1.966 . S
Co273 N282 2.022 . S
Co273 N290 1.993 . S
Co273 O298 1.941 . S
C274 O275 1.258 . S
C274 O276 1.263 . S
O275 Co272 1.970 . S
O275 C274 1.258 . S
O276 Co273 1.966 . S
O276 C274 1.263 . S
C277 O278 1.235 . S
C277 O304 1.289 . S
O278 C277 1.235 . S
C279 C281 1.400 . S
C279 N282 1.351 . S
C279 C284 1.501 . S
C280 C281 1.387 . S
C280 N283 1.341 . S
C281 C279 1.400 . S
C281 C280 1.387 . S
N282 Co273 2.022 . S
N282 C279 1.351 . S
N282 N283 1.365 . S
N283 C280 1.341 . S
N283 N282 1.365 . S
N283 H303 0.862 . S
C284 C279 1.501 . S
C284 H285 0.961 . S
C284 H286 0.961 . S
C284 H287 0.960 . S
H285 C284 0.961 . S
H286 C284 0.961 . S
H287 C284 0.960 . S
C288 N289 1.342 . S
C288 C292 1.401 . S
C288 C293 1.499 . S
N289 Co272 1.989 . S
N289 C288 1.342 . S
N289 N290 1.388 . S
N290 Co273 1.993 . S
N290 N289 1.388 . S
N290 C291 1.346 . S
C291 N290 1.346 . S
C291 C292 1.396 . S
C291 C301 1.510 . S
C292 C288 1.401 . S
C292 C291 1.396 . S
C293 C288 1.499 . S
C293 H294 0.959 . S
C293 H295 0.960 . S
C293 H296 0.961 . S
H294 C293 0.959 . S
H295 C293 0.960 . S
H296 C293 0.961 . S
O297 Co272 1.967 . S
O297 C305 1.258 . S
O298 Co273 1.941 . S
O298 C305 1.266 . S
H299 C301 0.959 . S
H300 C301 0.961 . S
C301 C291 1.510 . S
C301 H299 0.959 . S
C301 H300 0.961 . S
C301 H302 0.960 . S
H302 C301 0.960 . S
H303 N283 0.862 . S
O304 Co272 1.920 . S
O304 C277 1.289 . S
C305 O297 1.258 . S
C305 O298 1.266 . S
Co306 O309 1.970 . S
Co306 N323 1.989 . S
Co306 O331 1.967 . S
Co306 O338 1.920 . S
Co307 O310 1.966 . S
Co307 N316 2.022 . S
Co307 N324 1.993 . S
Co307 O332 1.941 . S
C308 O309 1.258 . S
C308 O310 1.263 . S
O309 Co306 1.970 . S
O309 C308 1.258 . S
O310 Co307 1.966 . S
O310 C308 1.263 . S
C311 O312 1.235 . S
C311 O338 1.289 . S
O312 C311 1.235 . S
C313 C315 1.400 . S
C313 N316 1.351 . S
C313 C318 1.501 . S
C314 C315 1.387 . S
C314 N317 1.341 . S
C315 C313 1.400 . S
C315 C314 1.387 . S
N316 Co307 2.022 . S
N316 C313 1.351 . S
N316 N317 1.365 . S
N317 C314 1.341 . S
N317 N316 1.365 . S
N317 H337 0.862 . S
C318 C313 1.501 . S
C318 H319 0.961 . S
C318 H320 0.961 . S
C318 H321 0.960 . S
H319 C318 0.961 . S
H320 C318 0.961 . S
H321 C318 0.960 . S
C322 N323 1.342 . S
C322 C326 1.401 . S
C322 C327 1.499 . S
N323 Co306 1.989 . S
N323 C322 1.342 . S
N323 N324 1.388 . S
N324 Co307 1.993 . S
N324 N323 1.388 . S
N324 C325 1.346 . S
C325 N324 1.346 . S
C325 C326 1.396 . S
C325 C335 1.510 . S
C326 C322 1.401 . S
C326 C325 1.396 . S
C327 C322 1.499 . S
C327 H328 0.959 . S
C327 H329 0.960 . S
C327 H330 0.961 . S
H328 C327 0.959 . S
H329 C327 0.960 . S
H330 C327 0.961 . S
O331 Co306 1.967 . S
O331 C339 1.258 . S
O332 Co307 1.941 . S
O332 C339 1.266 . S
H333 C335 0.959 . S
H334 C335 0.961 . S
C335 C325 1.510 . S
C335 H333 0.959 . S
C335 H334 0.961 . S
C335 H336 0.960 . S
H336 C335 0.960 . S
H337 N317 0.862 . S
O338 Co306 1.920 . S
O338 C311 1.289 . S
C339 O331 1.258 . S
C339 O332 1.266 . S
Co340 O343 1.970 . S
Co340 N357 1.989 . S
Co340 O365 1.967 . S
Co340 O372 1.920 . S
Co341 O344 1.966 . S
Co341 N350 2.022 . S
Co341 N358 1.993 . S
Co341 O366 1.941 . S
C342 O343 1.258 . S
C342 O344 1.263 . S
O343 Co340 1.970 . S
O343 C342 1.258 . S
O344 Co341 1.966 . S
O344 C342 1.263 . S
C345 O346 1.235 . S
C345 O372 1.289 . S
O346 C345 1.235 . S
C347 C349 1.400 . S
C347 N350 1.351 . S
C347 C352 1.501 . S
C348 C349 1.387 . S
C348 N351 1.341 . S
C349 C347 1.400 . S
C349 C348 1.387 . S
N350 Co341 2.022 . S
N350 C347 1.351 . S
N350 N351 1.365 . S
N351 C348 1.341 . S
N351 N350 1.365 . S
N351 H371 0.862 . S
C352 C347 1.501 . S
C352 H353 0.961 . S
C352 H354 0.961 . S
C352 H355 0.960 . S
H353 C352 0.961 . S
H354 C352 0.961 . S
H355 C352 0.960 . S
C356 N357 1.342 . S
C356 C360 1.401 . S
C356 C361 1.499 . S
N357 Co340 1.989 . S
N357 C356 1.342 . S
N357 N358 1.388 . S
N358 Co341 1.993 . S
N358 N357 1.388 . S
N358 C359 1.346 . S
C359 N358 1.346 . S
C359 C360 1.396 . S
C359 C369 1.510 . S
C360 C356 1.401 . S
C360 C359 1.396 . S
C361 C356 1.499 . S
C361 H362 0.959 . S
C361 H363 0.960 . S
C361 H364 0.961 . S
H362 C361 0.959 . S
H363 C361 0.960 . S
H364 C361 0.961 . S
O365 Co340 1.967 . S
O365 C373 1.258 . S
O366 Co341 1.941 . S
O366 C373 1.266 . S
H367 C369 0.959 . S
H368 C369 0.961 . S
C369 C359 1.510 . S
C369 H367 0.959 . S
C369 H368 0.961 . S
C369 H370 0.960 . S
H370 C369 0.960 . S
H371 N351 0.862 . S
O372 Co340 1.920 . S
O372 C345 1.289 . S
C373 O365 1.258 . S
C373 O366 1.266 . S
Co374 O377 1.970 . S
Co374 N391 1.989 . S
Co374 O399 1.967 . S
Co374 O406 1.920 . S
Co375 O378 1.966 . S
Co375 N384 2.022 . S
Co375 N392 1.993 . S
Co375 O400 1.941 . S
C376 O377 1.258 . S
C376 O378 1.263 . S
O377 Co374 1.970 . S
O377 C376 1.258 . S
O378 Co375 1.966 . S
O378 C376 1.263 . S
C379 O380 1.235 . S
C379 O406 1.289 . S
O380 C379 1.235 . S
C381 C383 1.400 . S
C381 N384 1.351 . S
C381 C386 1.501 . S
C382 C383 1.387 . S
C382 N385 1.341 . S
C383 C381 1.400 . S
C383 C382 1.387 . S
N384 Co375 2.022 . S
N384 C381 1.351 . S
N384 N385 1.365 . S
N385 C382 1.341 . S
N385 N384 1.365 . S
N385 H405 0.862 . S
C386 C381 1.501 . S
C386 H387 0.961 . S
C386 H388 0.961 . S
C386 H389 0.960 . S
H387 C386 0.961 . S
H388 C386 0.961 . S
H389 C386 0.960 . S
C390 N391 1.342 . S
C390 C394 1.401 . S
C390 C395 1.499 . S
N391 Co374 1.989 . S
N391 C390 1.342 . S
N391 N392 1.388 . S
N392 Co375 1.993 . S
N392 N391 1.388 . S
N392 C393 1.346 . S
C393 N392 1.346 . S
C393 C394 1.396 . S
C393 C403 1.510 . S
C394 C390 1.401 . S
C394 C393 1.396 . S
C395 C390 1.499 . S
C395 H396 0.959 . S
C395 H397 0.960 . S
C395 H398 0.961 . S
H396 C395 0.959 . S
H397 C395 0.960 . S
H398 C395 0.961 . S
O399 Co374 1.967 . S
O399 C407 1.258 . S
O400 Co375 1.941 . S
O400 C407 1.266 . S
H401 C403 0.959 . S
H402 C403 0.961 . S
C403 C393 1.510 . S
C403 H401 0.959 . S
C403 H402 0.961 . S
C403 H404 0.960 . S
H404 C403 0.960 . S
H405 N385 0.862 . S
O406 Co374 1.920 . S
O406 C379 1.289 . S
C407 O399 1.258 . S
C407 O400 1.266 . S
Co408 O411 1.970 . S
Co408 N425 1.989 . S
Co408 O433 1.967 . S
Co408 O440 1.920 . S
Co409 O412 1.966 . S
Co409 N418 2.022 . S
Co409 N426 1.993 . S
Co409 O434 1.941 1_554 S
C410 O411 1.258 . S
C410 O412 1.263 1_556 S
O411 Co408 1.970 . S
O411 C410 1.258 . S
O412 Co409 1.966 . S
O412 C410 1.263 1_554 S
C413 O414 1.235 . S
C413 O440 1.289 . S
O414 C413 1.235 . S
C415 C417 1.400 . S
C415 N418 1.351 . S
C415 C420 1.501 . S
C416 C417 1.387 . S
C416 N419 1.341 . S
C417 C415 1.400 . S
C417 C416 1.387 . S
N418 Co409 2.022 . S
N418 C415 1.351 . S
N418 N419 1.365 . S
N419 C416 1.341 . S
N419 N418 1.365 . S
N419 H439 0.862 . S
C420 C415 1.501 . S
C420 H421 0.961 . S
C420 H422 0.961 . S
C420 H423 0.960 . S
H421 C420 0.961 . S
H422 C420 0.961 . S
H423 C420 0.960 . S
C424 N425 1.342 1_554 S
C424 C428 1.401 . S
C424 C429 1.499 1_554 S
N425 Co408 1.989 . S
N425 C424 1.342 1_556 S
N425 N426 1.388 1_556 S
N426 Co409 1.993 . S
N426 N425 1.388 1_554 S
N426 C427 1.346 . S
C427 N426 1.346 . S
C427 C428 1.396 . S
C427 C437 1.510 . S
C428 C424 1.401 . S
C428 C427 1.396 . S
C429 C424 1.499 1_556 S
C429 H430 0.959 . S
C429 H431 0.971 . S
C429 H432 0.961 . S
H430 C429 0.959 . S
H431 C429 0.971 . S
H432 C429 0.961 . S
O433 Co408 1.967 . S
O433 C441 1.258 . S
O434 Co409 1.941 1_556 S
O434 C441 1.266 . S
H435 C437 0.959 . S
H436 C437 0.961 . S
C437 C427 1.510 . S
C437 H435 0.959 . S
C437 H436 0.961 . S
C437 H438 0.960 . S
H438 C437 0.960 . S
H439 N419 0.862 . S
O440 Co408 1.920 . S
O440 C413 1.289 . S
C441 O433 1.258 . S
C441 O434 1.266 . S
Co442 O445 1.970 . S
Co442 N459 1.989 . S
Co442 O467 1.967 . S
Co442 O474 1.920 . S
Co443 O446 1.966 . S
Co443 N452 2.022 . S
Co443 N460 1.993 . S
Co443 O468 1.941 1_554 S
C444 O445 1.258 . S
C444 O446 1.263 1_556 S
O445 Co442 1.970 . S
O445 C444 1.258 . S
O446 Co443 1.966 . S
O446 C444 1.263 1_554 S
C447 O448 1.235 . S
C447 O474 1.289 . S
O448 C447 1.235 . S
C449 C451 1.400 . S
C449 N452 1.351 . S
C449 C454 1.501 . S
C450 C451 1.387 . S
C450 N453 1.341 . S
C451 C449 1.400 . S
C451 C450 1.387 . S
N452 Co443 2.022 . S
N452 C449 1.351 . S
N452 N453 1.365 . S
N453 C450 1.341 . S
N453 N452 1.365 . S
N453 H473 0.862 . S
C454 C449 1.501 . S
C454 H455 0.961 . S
C454 H456 0.961 . S
C454 H457 0.960 . S
H455 C454 0.961 . S
H456 C454 0.961 . S
H457 C454 0.960 . S
C458 N459 1.342 1_554 S
C458 C462 1.401 . S
C458 C463 1.499 1_554 S
N459 Co442 1.989 . S
N459 C458 1.342 1_556 S
N459 N460 1.388 1_556 S
N460 Co443 1.993 . S
N460 N459 1.388 1_554 S
N460 C461 1.346 . S
C461 N460 1.346 . S
C461 C462 1.396 . S
C461 C471 1.510 . S
C462 C458 1.401 . S
C462 C461 1.396 . S
C463 C458 1.499 1_556 S
C463 H464 0.959 . S
C463 H465 0.971 . S
C463 H466 0.961 . S
H464 C463 0.959 . S
H465 C463 0.971 . S
H466 C463 0.961 . S
O467 Co442 1.967 . S
O467 C475 1.258 . S
O468 Co443 1.941 1_556 S
O468 C475 1.266 . S
H469 C471 0.959 . S
H470 C471 0.961 . S
C471 C461 1.510 . S
C471 H469 0.959 . S
C471 H470 0.961 . S
C471 H472 0.960 . S
H472 C471 0.960 . S
H473 N453 0.862 . S
O474 Co442 1.920 . S
O474 C447 1.289 . S
C475 O467 1.258 . S
C475 O468 1.266 . S
Co476 O479 1.970 . S
Co476 N493 1.989 . S
Co476 O501 1.967 . S
Co476 O508 1.920 . S
Co477 O480 1.966 . S
Co477 N486 2.022 . S
Co477 N494 1.993 . S
Co477 O502 1.941 . S
C478 O479 1.258 . S
C478 O480 1.263 . S
O479 Co476 1.970 . S
O479 C478 1.258 . S
O480 Co477 1.966 . S
O480 C478 1.263 . S
C481 O482 1.235 . S
C481 O508 1.289 . S
O482 C481 1.235 . S
C483 C485 1.400 . S
C483 N486 1.351 . S
C483 C488 1.501 . S
C484 C485 1.387 . S
C484 N487 1.341 . S
C485 C483 1.400 . S
C485 C484 1.387 . S
N486 Co477 2.022 . S
N486 C483 1.351 . S
N486 N487 1.365 . S
N487 C484 1.341 . S
N487 N486 1.365 . S
N487 H507 0.862 . S
C488 C483 1.501 . S
C488 H489 0.961 . S
C488 H490 0.961 . S
C488 H491 0.960 . S
H489 C488 0.961 . S
H490 C488 0.961 . S
H491 C488 0.960 . S
C492 N493 1.342 . S
C492 C496 1.401 . S
C492 C497 1.499 . S
N493 Co476 1.989 . S
N493 C492 1.342 . S
N493 N494 1.388 . S
N494 Co477 1.993 . S
N494 N493 1.388 . S
N494 C495 1.346 . S
C495 N494 1.346 . S
C495 C496 1.396 . S
C495 C505 1.510 . S
C496 C492 1.401 . S
C496 C495 1.396 . S
C497 C492 1.499 . S
C497 H498 0.959 . S
C497 H499 0.960 . S
C497 H500 0.961 . S
H498 C497 0.959 . S
H499 C497 0.960 . S
H500 C497 0.961 . S
O501 Co476 1.967 . S
O501 C509 1.258 . S
O502 Co477 1.941 . S
O502 C509 1.266 . S
H503 C505 0.959 . S
H504 C505 0.961 . S
C505 C495 1.510 . S
C505 H503 0.959 . S
C505 H504 0.961 . S
C505 H506 0.960 . S
H506 C505 0.960 . S
H507 N487 0.862 . S
O508 Co476 1.920 . S
O508 C481 1.289 . S
C509 O501 1.258 . S
C509 O502 1.266 . S
Co510 O513 1.970 . S
Co510 N527 1.989 . S
Co510 O535 1.967 . S
Co510 O542 1.920 . S
Co511 O514 1.966 . S
Co511 N520 2.022 . S
Co511 N528 1.993 . S
Co511 O536 1.941 . S
C512 O513 1.258 . S
C512 O514 1.263 . S
O513 Co510 1.970 . S
O513 C512 1.258 . S
O514 Co511 1.966 . S
O514 C512 1.263 . S
C515 O516 1.235 . S
C515 O542 1.289 . S
O516 C515 1.235 . S
C517 C519 1.400 . S
C517 N520 1.351 . S
C517 C522 1.501 . S
C518 C519 1.387 . S
C518 N521 1.341 . S
C519 C517 1.400 . S
C519 C518 1.387 . S
N520 Co511 2.022 . S
N520 C517 1.351 . S
N520 N521 1.365 . S
N521 C518 1.341 . S
N521 N520 1.365 . S
N521 H541 0.862 . S
C522 C517 1.501 . S
C522 H523 0.961 . S
C522 H524 0.961 . S
C522 H525 0.960 . S
H523 C522 0.961 . S
H524 C522 0.961 . S
H525 C522 0.960 . S
C526 N527 1.342 . S
C526 C530 1.401 . S
C526 C531 1.499 . S
N527 Co510 1.989 . S
N527 C526 1.342 . S
N527 N528 1.388 . S
N528 Co511 1.993 . S
N528 N527 1.388 . S
N528 C529 1.346 . S
C529 N528 1.346 . S
C529 C530 1.396 . S
C529 C539 1.510 . S
C530 C526 1.401 . S
C530 C529 1.396 . S
C531 C526 1.499 . S
C531 H532 0.959 . S
C531 H533 0.960 . S
C531 H534 0.961 . S
H532 C531 0.959 . S
H533 C531 0.960 . S
H534 C531 0.961 . S
O535 Co510 1.967 . S
O535 C543 1.258 . S
O536 Co511 1.941 . S
O536 C543 1.266 . S
H537 C539 0.959 . S
H538 C539 0.961 . S
C539 C529 1.510 . S
C539 H537 0.959 . S
C539 H538 0.961 . S
C539 H540 0.960 . S
H540 C539 0.960 . S
H541 N521 0.862 . S
O542 Co510 1.920 . S
O542 C515 1.289 . S
C543 O535 1.258 . S
C543 O536 1.266 . S
H544 C562 0.951 . S
H545 C564 0.951 . S
H546 C566 0.950 . S
H547 C567 0.950 . S
H548 C569 0.950 . S
H549 C572 0.950 . S
H550 C573 0.950 . S
H551 C575 0.950 . S
H552 C576 0.950 . S
H553 C577 0.951 . S
H554 C579 0.951 . S
H555 C581 0.950 . S
H556 C582 0.950 . S
H557 C584 0.950 . S
H558 C587 0.950 . S
H559 C588 0.950 . S
H560 C590 0.950 . S
H561 C591 0.950 . S
C562 H544 0.951 . S
C562 C563 1.366 . S
C562 C564 1.388 . S
C563 C562 1.366 . S
C563 C567 1.385 . S
C564 H545 0.951 . S
C564 C562 1.388 . S
C564 C565 1.366 . S
C565 C564 1.366 . S
C565 C566 1.414 . S
C565 C568 1.499 . S
C566 H546 0.950 . S
C566 C565 1.414 . S
C566 C567 1.374 . S
C567 H547 0.950 . S
C567 C563 1.385 . S
C567 C566 1.374 . S
C568 C565 1.499 . S
C568 C569 1.373 . S
C568 C570 1.389 . S
C569 H548 0.950 . S
C569 C568 1.373 . S
C569 C585 1.377 . S
C570 C568 1.389 . S
C570 C571 1.524 . S
C570 C584 1.377 . S
C571 C570 1.524 . S
C571 C572 1.397 . S
C571 C576 1.363 . S
C572 H549 0.950 . S
C572 C571 1.397 . S
C572 C573 1.334 . S
C573 H550 0.950 . S
C573 C572 1.334 . S
C573 C574 1.287 . S
C574 C573 1.287 . S
C574 C575 1.524 . S
C574 H593 0.913 . S
C575 H551 0.950 . S
C575 C574 1.524 . S
C575 C576 1.415 . S
C576 H552 0.950 . S
C576 C571 1.363 . S
C576 C575 1.415 . S
C577 H553 0.951 . S
C577 C578 1.366 . S
C577 C579 1.388 . S
C578 C577 1.366 . S
C578 C582 1.385 . S
C579 H554 0.951 . S
C579 C577 1.388 . S
C579 C580 1.366 . S
C580 C579 1.366 . S
C580 C581 1.414 . S
C580 C583 1.499 . S
C581 H555 0.950 . S
C581 C580 1.414 . S
C581 C582 1.374 . S
C582 H556 0.950 . S
C582 C578 1.385 . S
C582 C581 1.374 . S
C583 C580 1.499 . S
C583 C584 1.373 . S
C583 C585 1.389 . S
C584 H557 0.950 . S
C584 C570 1.377 . S
C584 C583 1.373 . S
C585 C569 1.377 . S
C585 C583 1.389 . S
C585 C586 1.524 . S
C586 C585 1.524 . S
C586 C587 1.397 . S
C586 C591 1.363 . S
C587 H558 0.950 . S
C587 C586 1.397 . S
C587 C588 1.334 . S
C588 H559 0.950 . S
C588 C587 1.334 . S
C588 C589 1.287 . S
C589 C588 1.287 . S
C589 C590 1.524 . S
C589 H592 0.999 . S
C590 H560 0.950 . S
C590 C589 1.524 . S
C590 C591 1.415 . S
C591 H561 0.950 . S
C591 C586 1.363 . S
C591 C590 1.415 . S
H592 C589 0.999 . S
H593 C574 0.913 . S
H594 C612 0.951 . S
H595 C614 0.951 . S
H596 C616 0.950 . S
H597 C617 0.950 . S
H598 C619 0.950 . S
H599 C622 0.950 . S
H600 C623 0.950 . S
H601 C625 0.950 . S
H602 C626 0.950 . S
H603 C627 0.951 . S
H604 C629 0.951 . S
H605 C631 0.950 . S
H606 C632 0.950 . S
H607 C634 0.950 . S
H608 C637 0.950 . S
H609 C638 0.950 . S
H610 C640 0.950 . S
H611 C641 0.950 . S
C612 H594 0.951 . S
C612 C613 1.366 . S
C612 C614 1.388 . S
C613 C612 1.366 . S
C613 C617 1.385 . S
C614 H595 0.951 . S
C614 C612 1.388 . S
C614 C615 1.366 . S
C615 C614 1.366 . S
C615 C616 1.414 . S
C615 C618 1.499 . S
C616 H596 0.950 . S
C616 C615 1.414 . S
C616 C617 1.374 . S
C617 H597 0.950 . S
C617 C613 1.385 . S
C617 C616 1.374 . S
C618 C615 1.499 . S
C618 C619 1.373 . S
C618 C620 1.389 . S
C619 H598 0.950 . S
C619 C618 1.373 . S
C619 C635 1.377 . S
C620 C618 1.389 . S
C620 C621 1.524 . S
C620 C634 1.377 . S
C621 C620 1.524 . S
C621 C622 1.397 . S
C621 C626 1.363 . S
C622 H599 0.950 . S
C622 C621 1.397 . S
C622 C623 1.334 . S
C623 H600 0.950 . S
C623 C622 1.334 . S
C623 C624 1.287 . S
C624 C623 1.287 . S
C624 C625 1.524 . S
C624 H643 0.913 . S
C625 H601 0.950 . S
C625 C624 1.524 . S
C625 C626 1.415 . S
C626 H602 0.950 . S
C626 C621 1.363 . S
C626 C625 1.415 . S
C627 H603 0.951 . S
C627 C628 1.366 . S
C627 C629 1.388 . S
C628 C627 1.366 . S
C628 C632 1.385 . S
C629 H604 0.951 . S
C629 C627 1.388 . S
C629 C630 1.366 . S
C630 C629 1.366 . S
C630 C631 1.414 . S
C630 C633 1.499 . S
C631 H605 0.950 . S
C631 C630 1.414 . S
C631 C632 1.374 . S
C632 H606 0.950 . S
C632 C628 1.385 . S
C632 C631 1.374 . S
C633 C630 1.499 . S
C633 C634 1.373 . S
C633 C635 1.389 . S
C634 H607 0.950 . S
C634 C620 1.377 . S
C634 C633 1.373 . S
C635 C619 1.377 . S
C635 C633 1.389 . S
C635 C636 1.524 . S
C636 C635 1.524 . S
C636 C637 1.397 . S
C636 C641 1.363 . S
C637 H608 0.950 . S
C637 C636 1.397 . S
C637 C638 1.334 . S
C638 H609 0.950 . S
C638 C637 1.334 . S
C638 C639 1.287 . S
C639 C638 1.287 . S
C639 C640 1.524 . S
C639 H642 0.999 . S
C640 H610 0.950 . S
C640 C639 1.524 . S
C640 C641 1.415 . S
C641 H611 0.950 . S
C641 C636 1.363 . S
C641 C640 1.415 . S
H642 C639 0.999 . S
H643 C624 0.913 . S
H644 C662 0.951 . S
H645 C664 0.951 . S
H646 C666 0.950 . S
H647 C667 0.950 . S
H648 C669 0.950 1_655 S
H649 C672 0.950 . S
H650 C673 0.950 . S
H651 C675 0.950 . S
H652 C676 0.950 . S
H653 C677 0.951 . S
H654 C679 0.951 . S
H655 C681 0.950 . S
H656 C682 0.950 . S
H657 C684 0.950 . S
H658 C687 0.950 . S
H659 C688 0.950 . S
H660 C690 0.950 . S
H661 C691 0.950 . S
C662 H644 0.951 . S
C662 C663 1.366 1_455 S
C662 C664 1.388 . S
C663 C662 1.366 1_655 S
C663 C667 1.385 . S
C664 H645 0.951 . S
C664 C662 1.388 . S
C664 C665 1.366 . S
C665 C664 1.366 . S
C665 C666 1.414 1_455 S
C665 C668 1.499 . S
C666 H646 0.950 . S
C666 C665 1.414 1_655 S
C666 C667 1.374 . S
C667 H647 0.950 . S
C667 C663 1.385 . S
C667 C666 1.374 . S
C668 C665 1.499 . S
C668 C669 1.373 . S
C668 C670 1.389 . S
C669 H648 0.950 1_455 S
C669 C668 1.373 . S
C669 C685 1.377 . S
C670 C668 1.389 . S
C670 C671 1.524 . S
C670 C684 1.377 . S
C671 C670 1.524 . S
C671 C672 1.397 . S
C671 C676 1.363 . S
C672 H649 0.950 . S
C672 C671 1.397 . S
C672 C673 1.334 1_554 S
C673 H650 0.950 . S
C673 C672 1.334 1_556 S
C673 C674 1.287 . S
C674 C673 1.287 . S
C674 C675 1.524 1_556 S
C674 H693 0.913 . S
C675 H651 0.950 . S
C675 C674 1.524 1_554 S
C675 C676 1.415 . S
C676 H652 0.950 . S
C676 C671 1.363 . S
C676 C675 1.415 . S
C677 H653 0.951 . S
C677 C678 1.366 . S
C677 C679 1.388 . S
C678 C677 1.366 . S
C678 C682 1.385 . S
C679 H654 0.951 . S
C679 C677 1.388 . S
C679 C680 1.366 . S
C680 C679 1.366 . S
C680 C681 1.414 . S
C680 C683 1.499 . S
C681 H655 0.950 . S
C681 C680 1.414 . S
C681 C682 1.374 . S
C682 H656 0.950 . S
C682 C678 1.385 . S
C682 C681 1.374 . S
C683 C680 1.499 . S
C683 C684 1.373 . S
C683 C685 1.389 . S
C684 H657 0.950 . S
C684 C670 1.377 . S
C684 C683 1.373 . S
C685 C669 1.377 . S
C685 C683 1.389 . S
C685 C686 1.524 . S
C686 C685 1.524 . S
C686 C687 1.397 . S
C686 C691 1.363 1_455 S
C687 H658 0.950 . S
C687 C686 1.397 . S
C687 C688 1.334 . S
C688 H659 0.950 . S
C688 C687 1.334 . S
C688 C689 1.287 1_455 S
C689 C688 1.287 1_655 S
C689 C690 1.524 . S
C689 H692 0.999 . S
C690 H660 0.950 . S
C690 C689 1.524 . S
C690 C691 1.415 . S
C691 H661 0.950 . S
C691 C686 1.363 1_655 S
C691 C690 1.415 . S
H692 C689 0.999 . S
H693 C674 0.913 . S
H694 C712 0.951 . S
H695 C714 0.951 . S
H696 C716 0.950 . S
H697 C717 0.950 . S
H698 C719 0.950 . S
H699 C722 0.950 1_455 S
H700 C723 0.950 1_455 S
H701 C725 0.950 . S
H702 C726 0.950 . S
H703 C727 0.951 . S
H704 C729 0.951 . S
H705 C731 0.950 . S
H706 C732 0.950 . S
H707 C734 0.950 . S
H708 C737 0.950 . S
H709 C738 0.950 . S
H710 C740 0.950 . S
H711 C741 0.950 . S
C712 H694 0.951 . S
C712 C713 1.366 1_655 S
C712 C714 1.388 . S
C713 C712 1.366 1_455 S
C713 C717 1.385 . S
C714 H695 0.951 . S
C714 C712 1.388 . S
C714 C715 1.366 . S
C715 C714 1.366 . S
C715 C716 1.414 1_655 S
C715 C718 1.499 . S
C716 H696 0.950 . S
C716 C715 1.414 1_455 S
C716 C717 1.374 . S
C717 H697 0.950 . S
C717 C713 1.385 . S
C717 C716 1.374 . S
C718 C715 1.499 . S
C718 C719 1.373 . S
C718 C720 1.389 . S
C719 H698 0.950 . S
C719 C718 1.373 . S
C719 C735 1.377 . S
C720 C718 1.389 . S
C720 C721 1.524 . S
C720 C734 1.377 . S
C721 C720 1.524 . S
C721 C722 1.397 . S
C721 C726 1.363 . S
C722 H699 0.950 1_655 S
C722 C721 1.397 . S
C722 C723 1.334 1_554 S
C723 H700 0.950 1_655 S
C723 C722 1.334 1_556 S
C723 C724 1.287 . S
C724 C723 1.287 . S
C724 C725 1.524 . S
C724 H743 0.913 . S
C725 H701 0.950 . S
C725 C724 1.524 . S
C725 C726 1.415 1_556 S
C726 H702 0.950 . S
C726 C721 1.363 . S
C726 C725 1.415 1_554 S
C727 H703 0.951 . S
C727 C728 1.366 . S
C727 C729 1.388 . S
C728 C727 1.366 . S
C728 C732 1.385 . S
C729 H704 0.951 . S
C729 C727 1.388 . S
C729 C730 1.366 . S
C730 C729 1.366 . S
C730 C731 1.414 . S
C730 C733 1.499 . S
C731 H705 0.950 . S
C731 C730 1.414 . S
C731 C732 1.374 . S
C732 H706 0.950 . S
C732 C728 1.385 . S
C732 C731 1.374 . S
C733 C730 1.499 . S
C733 C734 1.373 . S
C733 C735 1.389 . S
C734 H707 0.950 . S
C734 C720 1.377 . S
C734 C733 1.373 . S
C735 C719 1.377 . S
C735 C733 1.389 . S
C735 C736 1.524 . S
C736 C735 1.524 . S
C736 C737 1.397 . S
C736 C741 1.363 . S
C737 H708 0.950 . S
C737 C736 1.397 . S
C737 C738 1.334 . S
C738 H709 0.950 . S
C738 C737 1.334 . S
C738 C739 1.287 . S
C739 C738 1.287 . S
C739 C740 1.524 . S
C739 H742 0.999 . S
C740 H710 0.950 . S
C740 C739 1.524 . S
C740 C741 1.415 . S
C741 H711 0.950 . S
C741 C736 1.363 . S
C741 C740 1.415 . S
H742 C739 0.999 . S
H743 C724 0.913 . S
H744 C762 0.951 . S
H745 C764 0.951 . S
H746 C766 0.950 . S
H747 C767 0.950 . S
H748 C769 0.950 . S
H749 C772 0.950 . S
H750 C773 0.950 . S
H751 C775 0.950 . S
H752 C776 0.950 . S
H753 C777 0.951 . S
H754 C779 0.951 . S
H755 C781 0.950 . S
H756 C782 0.950 . S
H757 C784 0.950 . S
H758 C787 0.950 . S
H759 C788 0.950 . S
H760 C790 0.950 . S
H761 C791 0.950 . S
C762 H744 0.951 . S
C762 C763 1.366 . S
C762 C764 1.388 . S
C763 C762 1.366 . S
C763 C767 1.385 . S
C764 H745 0.951 . S
C764 C762 1.388 . S
C764 C765 1.366 . S
C765 C764 1.366 . S
C765 C766 1.414 . S
C765 C768 1.499 . S
C766 H746 0.950 . S
C766 C765 1.414 . S
C766 C767 1.374 . S
C767 H747 0.950 . S
C767 C763 1.385 . S
C767 C766 1.374 . S
C768 C765 1.499 . S
C768 C769 1.373 . S
C768 C770 1.389 . S
C769 H748 0.950 . S
C769 C768 1.373 . S
C769 C785 1.377 . S
C770 C768 1.389 . S
C770 C771 1.524 . S
C770 C784 1.377 . S
C771 C770 1.524 . S
C771 C772 1.397 . S
C771 C776 1.363 . S
C772 H749 0.950 . S
C772 C771 1.397 . S
C772 C773 1.334 . S
C773 H750 0.950 . S
C773 C772 1.334 . S
C773 C774 1.287 . S
C774 C773 1.287 . S
C774 C775 1.524 . S
C774 H793 0.913 . S
C775 H751 0.950 . S
C775 C774 1.524 . S
C775 C776 1.415 . S
C776 H752 0.950 . S
C776 C771 1.363 . S
C776 C775 1.415 . S
C777 H753 0.951 . S
C777 C778 1.366 . S
C777 C779 1.388 . S
C778 C777 1.366 . S
C778 C782 1.385 . S
C779 H754 0.951 . S
C779 C777 1.388 . S
C779 C780 1.366 . S
C780 C779 1.366 . S
C780 C781 1.414 . S
C780 C783 1.499 . S
C781 H755 0.950 . S
C781 C780 1.414 . S
C781 C782 1.374 . S
C782 H756 0.950 . S
C782 C778 1.385 . S
C782 C781 1.374 . S
C783 C780 1.499 . S
C783 C784 1.373 . S
C783 C785 1.389 . S
C784 H757 0.950 . S
C784 C770 1.377 . S
C784 C783 1.373 . S
C785 C769 1.377 . S
C785 C783 1.389 . S
C785 C786 1.524 . S
C786 C785 1.524 . S
C786 C787 1.397 . S
C786 C791 1.363 . S
C787 H758 0.950 . S
C787 C786 1.397 . S
C787 C788 1.334 . S
C788 H759 0.950 . S
C788 C787 1.334 . S
C788 C789 1.287 . S
C789 C788 1.287 . S
C789 C790 1.524 . S
C789 H792 0.999 . S
C790 H760 0.950 . S
C790 C789 1.524 . S
C790 C791 1.415 . S
C791 H761 0.950 . S
C791 C786 1.363 . S
C791 C790 1.415 . S
H792 C789 0.999 . S
H793 C774 0.913 . S
H794 C812 0.951 . S
H795 C814 0.951 . S
H796 C816 0.950 . S
H797 C817 0.950 . S
H798 C819 0.950 . S
H799 C822 0.950 . S
H800 C823 0.950 . S
H801 C825 0.950 . S
H802 C826 0.950 . S
H803 C827 0.951 . S
H804 C829 0.951 . S
H805 C831 0.950 . S
H806 C832 0.950 . S
H807 C834 0.950 . S
H808 C837 0.950 . S
H809 C838 0.950 . S
H810 C840 0.950 . S
H811 C841 0.950 . S
C812 H794 0.951 . S
C812 C813 1.366 . S
C812 C814 1.388 . S
C813 C812 1.366 . S
C813 C817 1.385 . S
C814 H795 0.951 . S
C814 C812 1.388 . S
C814 C815 1.366 . S
C815 C814 1.366 . S
C815 C816 1.414 . S
C815 C818 1.499 . S
C816 H796 0.950 . S
C816 C815 1.414 . S
C816 C817 1.374 . S
C817 H797 0.950 . S
C817 C813 1.385 . S
C817 C816 1.374 . S
C818 C815 1.499 . S
C818 C819 1.373 . S
C818 C820 1.389 . S
C819 H798 0.950 . S
C819 C818 1.373 . S
C819 C835 1.377 . S
C820 C818 1.389 . S
C820 C821 1.524 . S
C820 C834 1.377 . S
C821 C820 1.524 . S
C821 C822 1.397 . S
C821 C826 1.363 . S
C822 H799 0.950 . S
C822 C821 1.397 . S
C822 C823 1.334 . S
C823 H800 0.950 . S
C823 C822 1.334 . S
C823 C824 1.287 . S
C824 C823 1.287 . S
C824 C825 1.524 . S
C824 H843 0.913 . S
C825 H801 0.950 . S
C825 C824 1.524 . S
C825 C826 1.415 . S
C826 H802 0.950 . S
C826 C821 1.363 . S
C826 C825 1.415 . S
C827 H803 0.951 . S
C827 C828 1.366 . S
C827 C829 1.388 . S
C828 C827 1.366 . S
C828 C832 1.385 . S
C829 H804 0.951 . S
C829 C827 1.388 . S
C829 C830 1.366 . S
C830 C829 1.366 . S
C830 C831 1.414 . S
C830 C833 1.499 . S
C831 H805 0.950 . S
C831 C830 1.414 . S
C831 C832 1.374 . S
C832 H806 0.950 . S
C832 C828 1.385 . S
C832 C831 1.374 . S
C833 C830 1.499 . S
C833 C834 1.373 . S
C833 C835 1.389 . S
C834 H807 0.950 . S
C834 C820 1.377 . S
C834 C833 1.373 . S
C835 C819 1.377 . S
C835 C833 1.389 . S
C835 C836 1.524 . S
C836 C835 1.524 . S
C836 C837 1.397 . S
C836 C841 1.363 . S
C837 H808 0.950 . S
C837 C836 1.397 . S
C837 C838 1.334 . S
C838 H809 0.950 . S
C838 C837 1.334 . S
C838 C839 1.287 . S
C839 C838 1.287 . S
C839 C840 1.524 . S
C839 H842 0.999 . S
C840 H810 0.950 . S
C840 C839 1.524 . S
C840 C841 1.415 . S
C841 H811 0.950 . S
C841 C836 1.363 . S
C841 C840 1.415 . S
H842 C839 0.999 . S
H843 C824 0.913 . S
H844 C862 0.951 . S
H845 C864 0.951 . S
H846 C866 0.950 . S
H847 C867 0.950 . S
H848 C869 0.950 . S
H849 C872 0.950 1_655 S
H850 C873 0.950 1_655 S
H851 C875 0.950 . S
H852 C876 0.950 . S
H853 C877 0.951 . S
H854 C879 0.951 . S
H855 C881 0.950 . S
H856 C882 0.950 . S
H857 C884 0.950 . S
H858 C887 0.950 . S
H859 C888 0.950 . S
H860 C890 0.950 . S
H861 C891 0.950 . S
C862 H844 0.951 . S
C862 C863 1.366 1_455 S
C862 C864 1.388 . S
C863 C862 1.366 1_655 S
C863 C867 1.385 . S
C864 H845 0.951 . S
C864 C862 1.388 . S
C864 C865 1.366 . S
C865 C864 1.366 . S
C865 C866 1.414 1_455 S
C865 C868 1.499 . S
C866 H846 0.950 . S
C866 C865 1.414 1_655 S
C866 C867 1.374 . S
C867 H847 0.950 . S
C867 C863 1.385 . S
C867 C866 1.374 . S
C868 C865 1.499 . S
C868 C869 1.373 . S
C868 C870 1.389 . S
C869 H848 0.950 . S
C869 C868 1.373 . S
C869 C885 1.377 . S
C870 C868 1.389 . S
C870 C871 1.524 . S
C870 C884 1.377 . S
C871 C870 1.524 . S
C871 C872 1.397 . S
C871 C876 1.363 . S
C872 H849 0.950 1_455 S
C872 C871 1.397 . S
C872 C873 1.334 . S
C873 H850 0.950 1_455 S
C873 C872 1.334 . S
C873 C874 1.287 . S
C874 C873 1.287 . S
C874 C875 1.524 . S
C874 H893 0.913 . S
C875 H851 0.950 . S
C875 C874 1.524 . S
C875 C876 1.415 . S
C876 H852 0.950 . S
C876 C871 1.363 . S
C876 C875 1.415 . S
C877 H853 0.951 . S
C877 C878 1.366 . S
C877 C879 1.388 . S
C878 C877 1.366 . S
C878 C882 1.385 . S
C879 H854 0.951 . S
C879 C877 1.388 . S
C879 C880 1.366 . S
C880 C879 1.366 . S
C880 C881 1.414 . S
C880 C883 1.499 . S
C881 H855 0.950 . S
C881 C880 1.414 . S
C881 C882 1.374 . S
C882 H856 0.950 . S
C882 C878 1.385 . S
C882 C881 1.374 . S
C883 C880 1.499 . S
C883 C884 1.373 . S
C883 C885 1.389 . S
C884 H857 0.950 . S
C884 C870 1.377 . S
C884 C883 1.373 . S
C885 C869 1.377 . S
C885 C883 1.389 . S
C885 C886 1.524 . S
C886 C885 1.524 . S
C886 C887 1.397 . S
C886 C891 1.363 . S
C887 H858 0.950 . S
C887 C886 1.397 . S
C887 C888 1.334 . S
C888 H859 0.950 . S
C888 C887 1.334 . S
C888 C889 1.287 . S
C889 C888 1.287 . S
C889 C890 1.524 . S
C889 H892 0.999 . S
C890 H860 0.950 . S
C890 C889 1.524 . S
C890 C891 1.415 . S
C891 H861 0.950 . S
C891 C886 1.363 . S
C891 C890 1.415 . S
H892 C889 0.999 . S
H893 C874 0.913 . S
H894 C912 0.951 . S
H895 C914 0.951 . S
H896 C916 0.950 . S
H897 C917 0.950 . S
H898 C919 0.950 . S
H899 C922 0.950 . S
H900 C923 0.950 . S
H901 C925 0.950 . S
H902 C926 0.950 . S
H903 C927 0.951 . S
H904 C929 0.951 . S
H905 C931 0.950 . S
H906 C932 0.947 1_655 S
H907 C934 0.950 . S
H908 C937 0.950 . S
H909 C938 0.950 . S
H910 C940 0.950 . S
H911 C941 0.950 . S
C912 H894 0.951 . S
C912 C913 1.366 . S
C912 C914 1.388 . S
C913 C912 1.366 . S
C913 C917 1.385 . S
C914 H895 0.951 . S
C914 C912 1.388 . S
C914 C915 1.366 . S
C915 C914 1.366 . S
C915 C916 1.414 . S
C915 C918 1.499 . S
C916 H896 0.950 . S
C916 C915 1.414 . S
C916 C917 1.374 . S
C917 H897 0.950 . S
C917 C913 1.385 . S
C917 C916 1.374 . S
C918 C915 1.499 . S
C918 C919 1.373 . S
C918 C920 1.389 . S
C919 H898 0.950 . S
C919 C918 1.373 . S
C919 C935 1.377 . S
C920 C918 1.389 . S
C920 C921 1.524 . S
C920 C934 1.377 . S
C921 C920 1.524 . S
C921 C922 1.397 . S
C921 C926 1.363 . S
C922 H899 0.950 . S
C922 C921 1.397 . S
C922 C923 1.334 . S
C923 H900 0.950 . S
C923 C922 1.334 . S
C923 C924 1.287 . S
C924 C923 1.287 . S
C924 C925 1.524 . S
C924 H943 0.913 . S
C925 H901 0.950 . S
C925 C924 1.524 . S
C925 C926 1.415 . S
C926 H902 0.950 . S
C926 C921 1.363 . S
C926 C925 1.415 . S
C927 H903 0.951 . S
C927 C928 1.366 . S
C927 C929 1.388 . S
C928 C927 1.366 . S
C928 C932 1.401 . S
C929 H904 0.951 . S
C929 C927 1.388 . S
C929 C930 1.366 1_455 S
C930 C929 1.366 1_655 S
C930 C931 1.414 . S
C930 C933 1.499 . S
C931 H905 0.950 . S
C931 C930 1.414 . S
C931 C932 1.361 1_655 S
C932 H906 0.947 1_455 S
C932 C928 1.401 . S
C932 C931 1.361 1_455 S
C933 C930 1.499 . S
C933 C934 1.373 . S
C933 C935 1.389 . S
C934 H907 0.950 . S
C934 C920 1.377 . S
C934 C933 1.373 . S
C935 C919 1.377 . S
C935 C933 1.389 . S
C935 C936 1.524 1_655 S
C936 C935 1.524 1_455 S
C936 C937 1.397 . S
C936 C941 1.363 . S
C937 H908 0.950 . S
C937 C936 1.397 . S
C937 C938 1.334 . S
C938 H909 0.950 . S
C938 C937 1.334 . S
C938 C939 1.287 . S
C939 C938 1.287 . S
C939 C940 1.524 . S
C939 H942 0.999 . S
C940 H910 0.950 . S
C940 C939 1.524 . S
C940 C941 1.415 . S
C941 H911 0.950 . S
C941 C936 1.363 . S
C941 C940 1.415 . S
H942 C939 0.999 . S
H943 C924 0.913 . S
H944 C962 0.951 . S
H945 C964 0.951 . S
H946 C966 0.950 . S
H947 C967 0.950 . S
H948 C969 0.950 . S
H949 C972 0.950 . S
H950 C973 0.950 . S
H951 C975 0.950 . S
H952 C976 0.950 . S
H953 C977 0.951 . S
H954 C979 0.951 . S
H955 C981 0.950 . S
H956 C982 0.950 . S
H957 C984 0.950 . S
H958 C987 0.950 . S
H959 C988 0.950 . S
H960 C990 0.950 . S
H961 C991 0.950 . S
C962 H944 0.951 . S
C962 C963 1.366 . S
C962 C964 1.388 . S
C963 C962 1.366 . S
C963 C967 1.385 . S
C964 H945 0.951 . S
C964 C962 1.388 . S
C964 C965 1.366 . S
C965 C964 1.366 . S
C965 C966 1.414 . S
C965 C968 1.499 . S
C966 H946 0.950 . S
C966 C965 1.414 . S
C966 C967 1.374 . S
C967 H947 0.950 . S
C967 C963 1.385 . S
C967 C966 1.374 . S
C968 C965 1.499 . S
C968 C969 1.373 . S
C968 C970 1.389 . S
C969 H948 0.950 . S
C969 C968 1.373 . S
C969 C985 1.377 . S
C970 C968 1.389 . S
C970 C971 1.524 . S
C970 C984 1.377 . S
C971 C970 1.524 . S
C971 C972 1.397 . S
C971 C976 1.363 . S
C972 H949 0.950 . S
C972 C971 1.397 . S
C972 C973 1.334 . S
C973 H950 0.950 . S
C973 C972 1.334 . S
C973 C974 1.287 . S
C974 C973 1.287 . S
C974 C975 1.524 . S
C974 H993 0.913 . S
C975 H951 0.950 . S
C975 C974 1.524 . S
C975 C976 1.415 . S
C976 H952 0.950 . S
C976 C971 1.363 . S
C976 C975 1.415 . S
C977 H953 0.951 . S
C977 C978 1.366 . S
C977 C979 1.388 . S
C978 C977 1.366 . S
C978 C982 1.385 . S
C979 H954 0.951 . S
C979 C977 1.388 . S
C979 C980 1.366 . S
C980 C979 1.366 . S
C980 C981 1.414 . S
C980 C983 1.499 . S
C981 H955 0.950 . S
C981 C980 1.414 . S
C981 C982 1.374 . S
C982 H956 0.950 . S
C982 C978 1.385 . S
C982 C981 1.374 . S
C983 C980 1.499 . S
C983 C984 1.373 . S
C983 C985 1.389 . S
C984 H957 0.950 . S
C984 C970 1.377 . S
C984 C983 1.373 . S
C985 C969 1.377 . S
C985 C983 1.389 . S
C985 C986 1.524 . S
C986 C985 1.524 . S
C986 C987 1.397 . S
C986 C991 1.363 . S
C987 H958 0.950 . S
C987 C986 1.397 . S
C987 C988 1.334 . S
C988 H959 0.950 . S
C988 C987 1.334 . S
C988 C989 1.287 . S
C989 C988 1.287 . S
C989 C990 1.524 . S
C989 H992 0.999 . S
C990 H960 0.950 . S
C990 C989 1.524 . S
C990 C991 1.415 . S
C991 H961 0.950 . S
C991 C986 1.363 . S
C991 C990 1.415 . S
H992 C989 0.999 . S
H993 C974 0.913 . S
H994 C1012 0.951 . S
H995 C1014 0.951 . S
H996 C1016 0.950 . S
H997 C1017 0.950 . S
H998 C1019 0.950 . S
H999 C1022 0.950 . S
H1000 C1023 0.950 . S
H1001 C1025 0.950 . S
H1002 C1026 0.950 . S
H1003 C1027 0.951 . S
H1004 C1029 0.951 . S
H1005 C1031 0.950 . S
H1006 C1032 0.950 . S
H1007 C1034 0.950 . S
H1008 C1037 0.950 . S
H1009 C1038 0.950 . S
H1010 C1040 0.950 . S
H1011 C1041 0.950 . S
C1012 H994 0.951 . S
C1012 C1013 1.366 . S
C1012 C1014 1.388 . S
C1013 C1012 1.366 . S
C1013 C1017 1.385 . S
C1014 H995 0.951 . S
C1014 C1012 1.388 . S
C1014 C1015 1.366 . S
C1015 C1014 1.366 . S
C1015 C1016 1.414 . S
C1015 C1018 1.499 . S
C1016 H996 0.950 . S
C1016 C1015 1.414 . S
C1016 C1017 1.374 . S
C1017 H997 0.950 . S
C1017 C1013 1.385 . S
C1017 C1016 1.374 . S
C1018 C1015 1.499 . S
C1018 C1019 1.373 . S
C1018 C1020 1.389 . S
C1019 H998 0.950 . S
C1019 C1018 1.373 . S
C1019 C1035 1.377 . S
C1020 C1018 1.389 . S
C1020 C1021 1.524 . S
C1020 C1034 1.377 . S
C1021 C1020 1.524 . S
C1021 C1022 1.397 . S
C1021 C1026 1.363 . S
C1022 H999 0.950 . S
C1022 C1021 1.397 . S
C1022 C1023 1.334 . S
C1023 H1000 0.950 . S
C1023 C1022 1.334 . S
C1023 C1024 1.287 . S
C1024 C1023 1.287 . S
C1024 C1025 1.524 . S
C1024 H1043 0.913 . S
C1025 H1001 0.950 . S
C1025 C1024 1.524 . S
C1025 C1026 1.415 . S
C1026 H1002 0.950 . S
C1026 C1021 1.363 . S
C1026 C1025 1.415 . S
C1027 H1003 0.951 . S
C1027 C1028 1.366 . S
C1027 C1029 1.388 . S
C1028 C1027 1.366 . S
C1028 C1032 1.385 . S
C1029 H1004 0.951 . S
C1029 C1027 1.388 . S
C1029 C1030 1.366 . S
C1030 C1029 1.366 . S
C1030 C1031 1.414 . S
C1030 C1033 1.499 . S
C1031 H1005 0.950 . S
C1031 C1030 1.414 . S
C1031 C1032 1.374 . S
C1032 H1006 0.950 . S
C1032 C1028 1.385 . S
C1032 C1031 1.374 . S
C1033 C1030 1.499 . S
C1033 C1034 1.373 . S
C1033 C1035 1.389 . S
C1034 H1007 0.950 . S
C1034 C1020 1.377 . S
C1034 C1033 1.373 . S
C1035 C1019 1.377 . S
C1035 C1033 1.389 . S
C1035 C1036 1.524 . S
C1036 C1035 1.524 . S
C1036 C1037 1.397 . S
C1036 C1041 1.363 . S
C1037 H1008 0.950 . S
C1037 C1036 1.397 . S
C1037 C1038 1.334 . S
C1038 H1009 0.950 . S
C1038 C1037 1.334 . S
C1038 C1039 1.287 . S
C1039 C1038 1.287 . S
C1039 C1040 1.524 . S
C1039 H1042 0.999 . S
C1040 H1010 0.950 . S
C1040 C1039 1.524 . S
C1040 C1041 1.415 . S
C1041 H1011 0.950 . S
C1041 C1036 1.363 . S
C1041 C1040 1.415 . S
H1042 C1039 0.999 . S
H1043 C1024 0.913 . S
H1044 C1062 0.951 . S
H1045 C1064 0.951 . S
H1046 C1066 0.950 . S
H1047 C1067 0.950 . S
H1048 C1069 0.950 . S
H1049 C1072 0.950 . S
H1050 C1073 0.950 . S
H1051 C1075 0.950 . S
H1052 C1076 0.950 . S
H1053 C1077 0.951 . S
H1054 C1079 0.951 . S
H1055 C1081 0.950 . S
H1056 C1082 0.950 . S
H1057 C1084 0.950 . S
H1058 C1087 0.950 . S
H1059 C1088 0.950 . S
H1060 C1090 0.950 . S
H1061 C1091 0.950 . S
C1062 H1044 0.951 . S
C1062 C1063 1.366 . S
C1062 C1064 1.388 . S
C1063 C1062 1.366 . S
C1063 C1067 1.385 . S
C1064 H1045 0.951 . S
C1064 C1062 1.388 . S
C1064 C1065 1.366 . S
C1065 C1064 1.366 . S
C1065 C1066 1.414 . S
C1065 C1068 1.499 . S
C1066 H1046 0.950 . S
C1066 C1065 1.414 . S
C1066 C1067 1.374 . S
C1067 H1047 0.950 . S
C1067 C1063 1.385 . S
C1067 C1066 1.374 . S
C1068 C1065 1.499 . S
C1068 C1069 1.373 . S
C1068 C1070 1.389 . S
C1069 H1048 0.950 . S
C1069 C1068 1.373 . S
C1069 C1085 1.377 . S
C1070 C1068 1.389 . S
C1070 C1071 1.524 . S
C1070 C1084 1.377 . S
C1071 C1070 1.524 . S
C1071 C1072 1.397 . S
C1071 C1076 1.363 . S
C1072 H1049 0.950 . S
C1072 C1071 1.397 . S
C1072 C1073 1.334 . S
C1073 H1050 0.950 . S
C1073 C1072 1.334 . S
C1073 C1074 1.287 . S
C1074 C1073 1.287 . S
C1074 C1075 1.524 . S
C1074 H1093 0.913 . S
C1075 H1051 0.950 . S
C1075 C1074 1.524 . S
C1075 C1076 1.415 . S
C1076 H1052 0.950 . S
C1076 C1071 1.363 . S
C1076 C1075 1.415 . S
C1077 H1053 0.951 . S
C1077 C1078 1.366 . S
C1077 C1079 1.388 . S
C1078 C1077 1.366 . S
C1078 C1082 1.385 . S
C1079 H1054 0.951 . S
C1079 C1077 1.388 . S
C1079 C1080 1.366 . S
C1080 C1079 1.366 . S
C1080 C1081 1.414 . S
C1080 C1083 1.499 . S
C1081 H1055 0.950 . S
C1081 C1080 1.414 . S
C1081 C1082 1.374 . S
C1082 H1056 0.950 . S
C1082 C1078 1.385 . S
C1082 C1081 1.374 . S
C1083 C1080 1.499 . S
C1083 C1084 1.373 . S
C1083 C1085 1.389 . S
C1084 H1057 0.950 . S
C1084 C1070 1.377 . S
C1084 C1083 1.373 . S
C1085 C1069 1.377 . S
C1085 C1083 1.389 . S
C1085 C1086 1.524 . S
C1086 C1085 1.524 . S
C1086 C1087 1.397 . S
C1086 C1091 1.363 . S
C1087 H1058 0.950 . S
C1087 C1086 1.397 . S
C1087 C1088 1.334 . S
C1088 H1059 0.950 . S
C1088 C1087 1.334 . S
C1088 C1089 1.287 . S
C1089 C1088 1.287 . S
C1089 C1090 1.524 . S
C1089 H1092 0.999 . S
C1090 H1060 0.950 . S
C1090 C1089 1.524 . S
C1090 C1091 1.415 . S
C1091 H1061 0.950 . S
C1091 C1086 1.363 . S
C1091 C1090 1.415 . S
H1092 C1089 0.999 . S
H1093 C1074 0.913 . S
H1094 C1112 0.951 . S
H1095 C1114 0.951 . S
H1096 C1116 0.950 . S
H1097 C1117 0.950 . S
H1098 C1119 0.950 . S
H1099 C1122 0.950 . S
H1100 C1123 0.950 . S
H1101 C1125 0.950 . S
H1102 C1126 0.950 . S
H1103 C1127 0.951 . S
H1104 C1129 0.951 . S
H1105 C1131 0.950 . S
H1106 C1132 0.950 . S
H1107 C1134 0.950 . S
H1108 C1137 0.950 . S
H1109 C1138 0.950 . S
H1110 C1140 0.950 . S
H1111 C1141 0.950 . S
C1112 H1094 0.951 . S
C1112 C1113 1.366 . S
C1112 C1114 1.388 . S
C1113 C1112 1.366 . S
C1113 C1117 1.385 . S
C1114 H1095 0.951 . S
C1114 C1112 1.388 . S
C1114 C1115 1.366 . S
C1115 C1114 1.366 . S
C1115 C1116 1.414 . S
C1115 C1118 1.499 . S
C1116 H1096 0.950 . S
C1116 C1115 1.414 . S
C1116 C1117 1.374 . S
C1117 H1097 0.950 . S
C1117 C1113 1.385 . S
C1117 C1116 1.374 . S
C1118 C1115 1.499 . S
C1118 C1119 1.373 . S
C1118 C1120 1.389 . S
C1119 H1098 0.950 . S
C1119 C1118 1.373 . S
C1119 C1135 1.377 . S
C1120 C1118 1.389 . S
C1120 C1121 1.524 . S
C1120 C1134 1.377 . S
C1121 C1120 1.524 . S
C1121 C1122 1.397 . S
C1121 C1126 1.363 . S
C1122 H1099 0.950 . S
C1122 C1121 1.397 . S
C1122 C1123 1.334 . S
C1123 H1100 0.950 . S
C1123 C1122 1.334 . S
C1123 C1124 1.287 . S
C1124 C1123 1.287 . S
C1124 C1125 1.524 . S
C1124 H1143 0.913 . S
C1125 H1101 0.950 . S
C1125 C1124 1.524 . S
C1125 C1126 1.415 . S
C1126 H1102 0.950 . S
C1126 C1121 1.363 . S
C1126 C1125 1.415 . S
C1127 H1103 0.951 . S
C1127 C1128 1.366 . S
C1127 C1129 1.388 . S
C1128 C1127 1.366 . S
C1128 C1132 1.385 . S
C1129 H1104 0.951 . S
C1129 C1127 1.388 . S
C1129 C1130 1.366 . S
C1130 C1129 1.366 . S
C1130 C1131 1.414 . S
C1130 C1133 1.499 . S
C1131 H1105 0.950 . S
C1131 C1130 1.414 . S
C1131 C1132 1.374 . S
C1132 H1106 0.950 . S
C1132 C1128 1.385 . S
C1132 C1131 1.374 . S
C1133 C1130 1.499 . S
C1133 C1134 1.373 . S
C1133 C1135 1.389 . S
C1134 H1107 0.950 . S
C1134 C1120 1.377 . S
C1134 C1133 1.373 . S
C1135 C1119 1.377 . S
C1135 C1133 1.389 . S
C1135 C1136 1.524 . S
C1136 C1135 1.524 . S
C1136 C1137 1.397 . S
C1136 C1141 1.363 . S
C1137 H1108 0.950 . S
C1137 C1136 1.397 . S
C1137 C1138 1.334 . S
C1138 H1109 0.950 . S
C1138 C1137 1.334 . S
C1138 C1139 1.287 . S
C1139 C1138 1.287 . S
C1139 C1140 1.524 . S
C1139 H1142 0.999 . S
C1140 H1110 0.950 . S
C1140 C1139 1.524 . S
C1140 C1141 1.415 . S
C1141 H1111 0.950 . S
C1141 C1136 1.363 . S
C1141 C1140 1.415 . S
H1142 C1139 0.999 . S
H1143 C1124 0.913 . S
H1144 C1162 0.951 . S
H1145 C1164 0.951 . S
H1146 C1166 0.950 . S
H1147 C1167 0.950 . S
H1148 C1169 0.950 . S
H1149 C1172 0.950 . S
H1150 C1173 0.950 . S
H1151 C1175 0.950 . S
H1152 C1176 0.950 . S
H1153 C1177 0.951 . S
H1154 C1179 0.951 . S
H1155 C1181 0.950 . S
H1156 C1182 0.950 . S
H1157 C1184 0.950 . S
H1158 C1187 0.950 . S
H1159 C1188 0.950 . S
H1160 C1190 0.950 . S
H1161 C1191 0.950 . S
C1162 H1144 0.951 . S
C1162 C1163 1.366 . S
C1162 C1164 1.388 . S
C1163 C1162 1.366 . S
C1163 C1167 1.385 . S
C1164 H1145 0.951 . S
C1164 C1162 1.388 . S
C1164 C1165 1.366 . S
C1165 C1164 1.366 . S
C1165 C1166 1.414 . S
C1165 C1168 1.499 . S
C1166 H1146 0.950 . S
C1166 C1165 1.414 . S
C1166 C1167 1.374 . S
C1167 H1147 0.950 . S
C1167 C1163 1.385 . S
C1167 C1166 1.374 . S
C1168 C1165 1.499 . S
C1168 C1169 1.373 . S
C1168 C1170 1.389 . S
C1169 H1148 0.950 . S
C1169 C1168 1.373 . S
C1169 C1185 1.377 . S
C1170 C1168 1.389 . S
C1170 C1171 1.524 . S
C1170 C1184 1.377 . S
C1171 C1170 1.524 . S
C1171 C1172 1.397 . S
C1171 C1176 1.363 . S
C1172 H1149 0.950 . S
C1172 C1171 1.397 . S
C1172 C1173 1.334 . S
C1173 H1150 0.950 . S
C1173 C1172 1.334 . S
C1173 C1174 1.287 . S
C1174 C1173 1.287 . S
C1174 C1175 1.524 . S
C1174 H1193 0.913 . S
C1175 H1151 0.950 . S
C1175 C1174 1.524 . S
C1175 C1176 1.415 . S
C1176 H1152 0.950 . S
C1176 C1171 1.363 . S
C1176 C1175 1.415 . S
C1177 H1153 0.951 . S
C1177 C1178 1.366 . S
C1177 C1179 1.388 . S
C1178 C1177 1.366 . S
C1178 C1182 1.385 . S
C1179 H1154 0.951 . S
C1179 C1177 1.388 . S
C1179 C1180 1.366 . S
C1180 C1179 1.366 . S
C1180 C1181 1.414 . S
C1180 C1183 1.499 . S
C1181 H1155 0.950 . S
C1181 C1180 1.414 . S
C1181 C1182 1.374 . S
C1182 H1156 0.950 . S
C1182 C1178 1.385 . S
C1182 C1181 1.374 . S
C1183 C1180 1.499 . S
C1183 C1184 1.373 . S
C1183 C1185 1.389 . S
C1184 H1157 0.950 . S
C1184 C1170 1.377 . S
C1184 C1183 1.373 . S
C1185 C1169 1.377 . S
C1185 C1183 1.389 . S
C1185 C1186 1.524 . S
C1186 C1185 1.524 . S
C1186 C1187 1.397 . S
C1186 C1191 1.363 . S
C1187 H1158 0.950 . S
C1187 C1186 1.397 . S
C1187 C1188 1.334 . S
C1188 H1159 0.950 . S
C1188 C1187 1.334 . S
C1188 C1189 1.287 . S
C1189 C1188 1.287 . S
C1189 C1190 1.524 . S
C1189 H1192 0.999 . S
C1190 H1160 0.950 . S
C1190 C1189 1.524 . S
C1190 C1191 1.415 . S
C1191 H1161 0.950 . S
C1191 C1186 1.363 . S
C1191 C1190 1.415 . S
H1192 C1189 0.999 . S
H1193 C1174 0.913 . S
H1194 C1212 0.951 . S
H1195 C1214 0.951 . S
H1196 C1216 0.950 . S
H1197 C1217 0.950 . S
H1198 C1219 0.950 . S
H1199 C1222 0.950 . S
H1200 C1223 0.950 . S
H1201 C1225 0.950 . S
H1202 C1226 0.950 . S
H1203 C1227 0.951 . S
H1204 C1229 0.951 . S
H1205 C1231 0.950 . S
H1206 C1232 0.950 . S
H1207 C1234 0.950 . S
H1208 C1237 0.950 . S
H1209 C1238 0.950 . S
H1210 C1240 0.950 . S
H1211 C1241 0.950 . S
C1212 H1194 0.951 . S
C1212 C1213 1.366 . S
C1212 C1214 1.388 . S
C1213 C1212 1.366 . S
C1213 C1217 1.385 . S
C1214 H1195 0.951 . S
C1214 C1212 1.388 . S
C1214 C1215 1.366 . S
C1215 C1214 1.366 . S
C1215 C1216 1.414 . S
C1215 C1218 1.499 . S
C1216 H1196 0.950 . S
C1216 C1215 1.414 . S
C1216 C1217 1.374 . S
C1217 H1197 0.950 . S
C1217 C1213 1.385 . S
C1217 C1216 1.374 . S
C1218 C1215 1.499 . S
C1218 C1219 1.373 . S
C1218 C1220 1.389 . S
C1219 H1198 0.950 . S
C1219 C1218 1.373 . S
C1219 C1235 1.377 . S
C1220 C1218 1.389 . S
C1220 C1221 1.524 . S
C1220 C1234 1.377 . S
C1221 C1220 1.524 . S
C1221 C1222 1.397 . S
C1221 C1226 1.363 . S
C1222 H1199 0.950 . S
C1222 C1221 1.397 . S
C1222 C1223 1.334 . S
C1223 H1200 0.950 . S
C1223 C1222 1.334 . S
C1223 C1224 1.287 . S
C1224 C1223 1.287 . S
C1224 C1225 1.524 . S
C1224 H1243 0.913 . S
C1225 H1201 0.950 . S
C1225 C1224 1.524 . S
C1225 C1226 1.415 . S
C1226 H1202 0.950 . S
C1226 C1221 1.363 . S
C1226 C1225 1.415 . S
C1227 H1203 0.951 . S
C1227 C1228 1.366 . S
C1227 C1229 1.388 . S
C1228 C1227 1.366 . S
C1228 C1232 1.385 . S
C1229 H1204 0.951 . S
C1229 C1227 1.388 . S
C1229 C1230 1.366 . S
C1230 C1229 1.366 . S
C1230 C1231 1.414 . S
C1230 C1233 1.499 . S
C1231 H1205 0.950 . S
C1231 C1230 1.414 . S
C1231 C1232 1.374 . S
C1232 H1206 0.950 . S
C1232 C1228 1.385 . S
C1232 C1231 1.374 . S
C1233 C1230 1.499 . S
C1233 C1234 1.373 . S
C1233 C1235 1.389 . S
C1234 H1207 0.950 . S
C1234 C1220 1.377 . S
C1234 C1233 1.373 . S
C1235 C1219 1.377 . S
C1235 C1233 1.389 . S
C1235 C1236 1.524 . S
C1236 C1235 1.524 . S
C1236 C1237 1.397 . S
C1236 C1241 1.363 . S
C1237 H1208 0.950 . S
C1237 C1236 1.397 . S
C1237 C1238 1.334 . S
C1238 H1209 0.950 . S
C1238 C1237 1.334 . S
C1238 C1239 1.287 . S
C1239 C1238 1.287 . S
C1239 C1240 1.524 . S
C1239 H1242 0.999 . S
C1240 H1210 0.950 . S
C1240 C1239 1.524 . S
C1240 C1241 1.415 . S
C1241 H1211 0.950 . S
C1241 C1236 1.363 . S
C1241 C1240 1.415 . S
H1242 C1239 0.999 . S
H1243 C1224 0.913 . S
H1244 C1262 0.951 . S
H1245 C1264 0.951 . S
H1246 C1266 0.950 . S
H1247 C1267 0.950 . S
H1248 C1269 0.950 . S
H1249 C1272 0.950 . S
H1250 C1273 0.950 . S
H1251 C1275 0.950 . S
H1252 C1276 0.950 . S
H1253 C1277 0.951 . S
H1254 C1279 0.951 . S
H1255 C1281 0.950 . S
H1256 C1282 0.950 . S
H1257 C1284 0.950 . S
H1258 C1287 0.950 . S
H1259 C1288 0.950 1_556 S
H1260 C1290 0.950 . S
H1261 C1291 0.950 . S
C1262 H1244 0.951 . S
C1262 C1263 1.366 . S
C1262 C1264 1.388 . S
C1263 C1262 1.366 . S
C1263 C1267 1.385 . S
C1264 H1245 0.951 . S
C1264 C1262 1.388 . S
C1264 C1265 1.366 . S
C1265 C1264 1.366 . S
C1265 C1266 1.414 . S
C1265 C1268 1.499 . S
C1266 H1246 0.950 . S
C1266 C1265 1.414 . S
C1266 C1267 1.374 . S
C1267 H1247 0.950 . S
C1267 C1263 1.385 . S
C1267 C1266 1.374 . S
C1268 C1265 1.499 . S
C1268 C1269 1.373 . S
C1268 C1270 1.389 . S
C1269 H1248 0.950 . S
C1269 C1268 1.373 . S
C1269 C1285 1.377 . S
C1270 C1268 1.389 . S
C1270 C1271 1.524 . S
C1270 C1284 1.377 . S
C1271 C1270 1.524 . S
C1271 C1272 1.397 . S
C1271 C1276 1.363 . S
C1272 H1249 0.950 . S
C1272 C1271 1.397 . S
C1272 C1273 1.334 . S
C1273 H1250 0.950 . S
C1273 C1272 1.334 . S
C1273 C1274 1.287 . S
C1274 C1273 1.287 . S
C1274 C1275 1.524 . S
C1274 H1293 0.913 . S
C1275 H1251 0.950 . S
C1275 C1274 1.524 . S
C1275 C1276 1.415 . S
C1276 H1252 0.950 . S
C1276 C1271 1.363 . S
C1276 C1275 1.415 . S
C1277 H1253 0.951 . S
C1277 C1278 1.366 . S
C1277 C1279 1.388 . S
C1278 C1277 1.366 . S
C1278 C1282 1.385 . S
C1279 H1254 0.951 . S
C1279 C1277 1.388 . S
C1279 C1280 1.366 . S
C1280 C1279 1.366 . S
C1280 C1281 1.414 . S
C1280 C1283 1.499 . S
C1281 H1255 0.950 . S
C1281 C1280 1.414 . S
C1281 C1282 1.374 . S
C1282 H1256 0.950 . S
C1282 C1278 1.385 . S
C1282 C1281 1.374 . S
C1283 C1280 1.499 . S
C1283 C1284 1.373 . S
C1283 C1285 1.389 . S
C1284 H1257 0.950 . S
C1284 C1270 1.377 . S
C1284 C1283 1.373 . S
C1285 C1269 1.377 . S
C1285 C1283 1.389 . S
C1285 C1286 1.524 . S
C1286 C1285 1.524 . S
C1286 C1287 1.397 . S
C1286 C1291 1.363 . S
C1287 H1258 0.950 . S
C1287 C1286 1.397 . S
C1287 C1288 1.334 . S
C1288 H1259 0.950 1_554 S
C1288 C1287 1.334 . S
C1288 C1289 1.287 . S
C1289 C1288 1.287 . S
C1289 C1290 1.524 . S
C1289 H1292 0.999 . S
C1290 H1260 0.950 . S
C1290 C1289 1.524 . S
C1290 C1291 1.415 . S
C1291 H1261 0.950 . S
C1291 C1286 1.363 . S
C1291 C1290 1.415 . S
H1292 C1289 0.999 . S
H1293 C1274 0.913 . S
H1294 C1312 0.951 . S
H1295 C1314 0.951 . S
H1296 C1316 0.950 . S
H1297 C1317 0.950 . S
H1298 C1319 0.950 . S
H1299 C1322 0.950 . S
H1300 C1323 0.950 . S
H1301 C1325 0.950 . S
H1302 C1326 0.950 . S
H1303 C1327 0.951 . S
H1304 C1329 0.951 . S
H1305 C1331 0.950 . S
H1306 C1332 0.950 . S
H1307 C1334 0.950 . S
H1308 C1337 0.950 . S
H1309 C1338 0.950 . S
H1310 C1340 0.950 . S
H1311 C1341 0.950 . S
C1312 H1294 0.951 . S
C1312 C1313 1.366 . S
C1312 C1314 1.388 . S
C1313 C1312 1.366 . S
C1313 C1317 1.385 . S
C1314 H1295 0.951 . S
C1314 C1312 1.388 . S
C1314 C1315 1.366 . S
C1315 C1314 1.366 . S
C1315 C1316 1.414 . S
C1315 C1318 1.499 . S
C1316 H1296 0.950 . S
C1316 C1315 1.414 . S
C1316 C1317 1.374 . S
C1317 H1297 0.950 . S
C1317 C1313 1.385 . S
C1317 C1316 1.374 . S
C1318 C1315 1.499 . S
C1318 C1319 1.373 . S
C1318 C1320 1.389 . S
C1319 H1298 0.950 . S
C1319 C1318 1.373 . S
C1319 C1335 1.377 . S
C1320 C1318 1.389 . S
C1320 C1321 1.524 . S
C1320 C1334 1.377 . S
C1321 C1320 1.524 . S
C1321 C1322 1.397 . S
C1321 C1326 1.363 . S
C1322 H1299 0.950 . S
C1322 C1321 1.397 . S
C1322 C1323 1.334 . S
C1323 H1300 0.950 . S
C1323 C1322 1.334 . S
C1323 C1324 1.287 . S
C1324 C1323 1.287 . S
C1324 C1325 1.524 . S
C1324 H1343 0.913 . S
C1325 H1301 0.950 . S
C1325 C1324 1.524 . S
C1325 C1326 1.415 . S
C1326 H1302 0.950 . S
C1326 C1321 1.363 . S
C1326 C1325 1.415 . S
C1327 H1303 0.951 . S
C1327 C1328 1.366 . S
C1327 C1329 1.388 . S
C1328 C1327 1.366 . S
C1328 C1332 1.385 . S
C1329 H1304 0.951 . S
C1329 C1327 1.388 . S
C1329 C1330 1.366 . S
C1330 C1329 1.366 . S
C1330 C1331 1.414 . S
C1330 C1333 1.499 . S
C1331 H1305 0.950 . S
C1331 C1330 1.414 . S
C1331 C1332 1.374 . S
C1332 H1306 0.950 . S
C1332 C1328 1.385 . S
C1332 C1331 1.374 . S
C1333 C1330 1.499 . S
C1333 C1334 1.373 . S
C1333 C1335 1.389 . S
C1334 H1307 0.950 . S
C1334 C1320 1.377 . S
C1334 C1333 1.373 . S
C1335 C1319 1.377 . S
C1335 C1333 1.389 . S
C1335 C1336 1.524 . S
C1336 C1335 1.524 . S
C1336 C1337 1.397 . S
C1336 C1341 1.363 . S
C1337 H1308 0.950 . S
C1337 C1336 1.397 . S
C1337 C1338 1.334 . S
C1338 H1309 0.950 . S
C1338 C1337 1.334 . S
C1338 C1339 1.287 . S
C1339 C1338 1.287 . S
C1339 C1340 1.524 . S
C1339 H1342 0.999 . S
C1340 H1310 0.950 . S
C1340 C1339 1.524 . S
C1340 C1341 1.415 . S
C1341 H1311 0.950 . S
C1341 C1336 1.363 . S
C1341 C1340 1.415 . S
H1342 C1339 0.999 . S
H1343 C1324 0.913 . S
H1344 C1362 0.951 . S
H1345 C1364 0.951 . S
H1346 C1366 0.950 . S
H1347 C1367 0.950 . S
H1348 C1369 0.950 . S
H1349 C1372 0.950 . S
H1350 C1373 0.950 . S
H1351 C1375 0.950 . S
H1352 C1376 0.950 . S
H1353 C1377 0.951 . S
H1354 C1379 0.951 . S
H1355 C1381 0.950 . S
H1356 C1382 0.950 . S
H1357 C1384 0.950 . S
H1358 C1387 0.950 . S
H1359 C1388 0.950 . S
H1360 C1390 0.950 . S
H1361 C1391 0.950 . S
C1362 H1344 0.951 . S
C1362 C1363 1.366 . S
C1362 C1364 1.388 . S
C1363 C1362 1.366 . S
C1363 C1367 1.385 . S
C1364 H1345 0.951 . S
C1364 C1362 1.388 . S
C1364 C1365 1.366 . S
C1365 C1364 1.366 . S
C1365 C1366 1.414 . S
C1365 C1368 1.499 . S
C1366 H1346 0.950 . S
C1366 C1365 1.414 . S
C1366 C1367 1.374 . S
C1367 H1347 0.950 . S
C1367 C1363 1.385 . S
C1367 C1366 1.374 . S
C1368 C1365 1.499 . S
C1368 C1369 1.373 . S
C1368 C1370 1.389 1_655 S
C1369 H1348 0.950 . S
C1369 C1368 1.373 . S
C1369 C1385 1.377 . S
C1370 C1368 1.389 1_455 S
C1370 C1371 1.524 . S
C1370 C1384 1.377 . S
C1371 C1370 1.524 . S
C1371 C1372 1.397 . S
C1371 C1376 1.363 . S
C1372 H1349 0.950 . S
C1372 C1371 1.397 . S
C1372 C1373 1.334 . S
C1373 H1350 0.950 . S
C1373 C1372 1.334 . S
C1373 C1374 1.287 . S
C1374 C1373 1.287 . S
C1374 C1375 1.524 . S
C1374 H1393 0.913 . S
C1375 H1351 0.950 . S
C1375 C1374 1.524 . S
C1375 C1376 1.415 . S
C1376 H1352 0.950 . S
C1376 C1371 1.363 . S
C1376 C1375 1.415 . S
C1377 H1353 0.951 . S
C1377 C1378 1.366 . S
C1377 C1379 1.388 . S
C1378 C1377 1.366 . S
C1378 C1382 1.385 . S
C1379 H1354 0.951 . S
C1379 C1377 1.388 . S
C1379 C1380 1.366 . S
C1380 C1379 1.366 . S
C1380 C1381 1.414 . S
C1380 C1383 1.499 1_455 S
C1381 H1355 0.950 . S
C1381 C1380 1.414 . S
C1381 C1382 1.374 . S
C1382 H1356 0.950 . S
C1382 C1378 1.385 . S
C1382 C1381 1.374 . S
C1383 C1380 1.499 1_655 S
C1383 C1384 1.373 1_655 S
C1383 C1385 1.389 . S
C1384 H1357 0.950 . S
C1384 C1370 1.377 . S
C1384 C1383 1.373 1_455 S
C1385 C1369 1.377 . S
C1385 C1383 1.389 . S
C1385 C1386 1.524 . S
C1386 C1385 1.524 . S
C1386 C1387 1.397 . S
C1386 C1391 1.363 . S
C1387 H1358 0.950 . S
C1387 C1386 1.397 . S
C1387 C1388 1.334 . S
C1388 H1359 0.950 . S
C1388 C1387 1.334 . S
C1388 C1389 1.287 . S
C1389 C1388 1.287 . S
C1389 C1390 1.524 . S
C1389 H1392 0.999 . S
C1390 H1360 0.950 . S
C1390 C1389 1.524 . S
C1390 C1391 1.415 . S
C1391 H1361 0.950 . S
C1391 C1386 1.363 . S
C1391 C1390 1.415 . S
H1392 C1389 0.999 . S
H1393 C1374 0.913 . S
H1394 C1412 0.951 . S
H1395 C1414 0.951 . S
H1396 C1416 0.950 . S
H1397 C1417 0.950 . S
H1398 C1419 0.950 . S
H1399 C1422 0.950 . S
H1400 C1423 0.950 . S
H1401 C1425 0.950 . S
H1402 C1426 0.950 . S
H1403 C1427 0.959 . S
H1404 C1429 0.969 . S
H1405 C1431 0.950 . S
H1406 C1432 0.950 . S
H1407 C1434 0.950 . S
H1408 C1437 0.950 . S
H1409 C1438 0.950 . S
H1410 C1440 0.950 . S
H1411 C1441 0.950 1_455 S
C1412 H1394 0.951 . S
C1412 C1413 1.366 . S
C1412 C1414 1.388 . S
C1413 C1412 1.366 . S
C1413 C1417 1.385 . S
C1414 H1395 0.951 . S
C1414 C1412 1.388 . S
C1414 C1415 1.366 . S
C1415 C1414 1.366 . S
C1415 C1416 1.414 . S
C1415 C1418 1.499 . S
C1416 H1396 0.950 . S
C1416 C1415 1.414 . S
C1416 C1417 1.374 . S
C1417 H1397 0.950 . S
C1417 C1413 1.385 . S
C1417 C1416 1.374 . S
C1418 C1415 1.499 . S
C1418 C1419 1.373 . S
C1418 C1420 1.389 . S
C1419 H1398 0.950 . S
C1419 C1418 1.373 . S
C1419 C1435 1.368 1_455 S
C1420 C1418 1.389 . S
C1420 C1421 1.524 . S
C1420 C1434 1.377 . S
C1421 C1420 1.524 . S
C1421 C1422 1.397 . S
C1421 C1426 1.363 . S
C1422 H1399 0.950 . S
C1422 C1421 1.397 . S
C1422 C1423 1.334 . S
C1423 H1400 0.950 . S
C1423 C1422 1.334 . S
C1423 C1424 1.287 . S
C1424 C1423 1.287 . S
C1424 C1425 1.524 . S
C1424 H1443 0.913 . S
C1425 H1401 0.950 . S
C1425 C1424 1.524 . S
C1425 C1426 1.415 . S
C1426 H1402 0.950 . S
C1426 C1421 1.363 . S
C1426 C1425 1.415 . S
C1427 H1403 0.959 . S
C1427 C1428 1.366 . S
C1427 C1429 1.380 1_655 S
C1428 C1427 1.366 . S
C1428 C1432 1.385 . S
C1429 H1404 0.969 . S
C1429 C1427 1.380 1_455 S
C1429 C1430 1.356 1_455 S
C1430 C1429 1.356 1_655 S
C1430 C1431 1.414 . S
C1430 C1433 1.500 1_655 S
C1431 H1405 0.950 . S
C1431 C1430 1.414 . S
C1431 C1432 1.374 . S
C1432 H1406 0.950 . S
C1432 C1428 1.385 . S
C1432 C1431 1.374 . S
C1433 C1430 1.500 1_455 S
C1433 C1434 1.372 . S
C1433 C1435 1.389 1_455 S
C1434 H1407 0.950 . S
C1434 C1420 1.377 . S
C1434 C1433 1.372 . S
C1435 C1419 1.368 1_655 S
C1435 C1433 1.389 1_655 S
C1435 C1436 1.535 . S
C1436 C1435 1.535 . S
C1436 C1437 1.397 . S
C1436 C1441 1.363 . S
C1437 H1408 0.950 . S
C1437 C1436 1.397 . S
C1437 C1438 1.334 . S
C1438 H1409 0.950 . S
C1438 C1437 1.334 . S
C1438 C1439 1.287 . S
C1439 C1438 1.287 . S
C1439 C1440 1.524 . S
C1439 H1442 0.999 . S
C1440 H1410 0.950 . S
C1440 C1439 1.524 . S
C1440 C1441 1.415 . S
C1441 H1411 0.950 1_655 S
C1441 C1436 1.363 . S
C1441 C1440 1.415 . S
H1442 C1439 0.999 . S
H1443 C1424 0.913 . S
H1444 C1462 0.951 . S
H1445 C1464 0.951 . S
H1446 C1466 0.950 . S
H1447 C1467 0.950 . S
H1448 C1469 0.950 . S
H1449 C1472 0.950 . S
H1450 C1473 0.950 . S
H1451 C1475 0.950 . S
H1452 C1476 0.950 . S
H1453 C1477 0.951 . S
H1454 C1479 0.951 . S
H1455 C1481 0.950 . S
H1456 C1482 0.950 . S
H1457 C1484 0.950 . S
H1458 C1487 0.950 . S
H1459 C1488 0.950 . S
H1460 C1490 0.950 . S
H1461 C1491 0.950 . S
C1462 H1444 0.951 . S
C1462 C1463 1.366 . S
C1462 C1464 1.388 . S
C1463 C1462 1.366 . S
C1463 C1467 1.385 . S
C1464 H1445 0.951 . S
C1464 C1462 1.388 . S
C1464 C1465 1.366 . S
C1465 C1464 1.366 . S
C1465 C1466 1.414 . S
C1465 C1468 1.499 . S
C1466 H1446 0.950 . S
C1466 C1465 1.414 . S
C1466 C1467 1.374 . S
C1467 H1447 0.950 . S
C1467 C1463 1.385 . S
C1467 C1466 1.374 . S
C1468 C1465 1.499 . S
C1468 C1469 1.373 . S
C1468 C1470 1.389 . S
C1469 H1448 0.950 . S
C1469 C1468 1.373 . S
C1469 C1485 1.377 . S
C1470 C1468 1.389 . S
C1470 C1471 1.524 . S
C1470 C1484 1.377 . S
C1471 C1470 1.524 . S
C1471 C1472 1.397 . S
C1471 C1476 1.363 . S
C1472 H1449 0.950 . S
C1472 C1471 1.397 . S
C1472 C1473 1.334 . S
C1473 H1450 0.950 . S
C1473 C1472 1.334 . S
C1473 C1474 1.287 . S
C1474 C1473 1.287 . S
C1474 C1475 1.524 . S
C1474 H1493 0.913 . S
C1475 H1451 0.950 . S
C1475 C1474 1.524 . S
C1475 C1476 1.415 . S
C1476 H1452 0.950 . S
C1476 C1471 1.363 . S
C1476 C1475 1.415 . S
C1477 H1453 0.951 . S
C1477 C1478 1.366 . S
C1477 C1479 1.388 . S
C1478 C1477 1.366 . S
C1478 C1482 1.385 . S
C1479 H1454 0.951 . S
C1479 C1477 1.388 . S
C1479 C1480 1.366 . S
C1480 C1479 1.366 . S
C1480 C1481 1.414 . S
C1480 C1483 1.499 . S
C1481 H1455 0.950 . S
C1481 C1480 1.414 . S
C1481 C1482 1.374 . S
C1482 H1456 0.950 . S
C1482 C1478 1.385 . S
C1482 C1481 1.374 . S
C1483 C1480 1.499 . S
C1483 C1484 1.373 . S
C1483 C1485 1.389 . S
C1484 H1457 0.950 . S
C1484 C1470 1.377 . S
C1484 C1483 1.373 . S
C1485 C1469 1.377 . S
C1485 C1483 1.389 . S
C1485 C1486 1.524 . S
C1486 C1485 1.524 . S
C1486 C1487 1.397 . S
C1486 C1491 1.363 . S
C1487 H1458 0.950 . S
C1487 C1486 1.397 . S
C1487 C1488 1.334 . S
C1488 H1459 0.950 . S
C1488 C1487 1.334 . S
C1488 C1489 1.287 . S
C1489 C1488 1.287 . S
C1489 C1490 1.524 . S
C1489 H1492 0.999 . S
C1490 H1460 0.950 . S
C1490 C1489 1.524 . S
C1490 C1491 1.415 . S
C1491 H1461 0.950 . S
C1491 C1486 1.363 . S
C1491 C1490 1.415 . S
H1492 C1489 0.999 . S
H1493 C1474 0.913 . S
H1494 C1512 0.951 . S
H1495 C1514 0.951 . S
H1496 C1516 0.950 . S
H1497 C1517 0.950 . S
H1498 C1519 0.950 . S
H1499 C1522 0.950 . S
H1500 C1523 0.950 . S
H1501 C1525 0.950 . S
H1502 C1526 0.950 . S
H1503 C1527 0.951 . S
H1504 C1529 0.951 . S
H1505 C1531 0.950 . S
H1506 C1532 0.950 . S
H1507 C1534 0.950 . S
H1508 C1537 0.950 . S
H1509 C1538 0.950 . S
H1510 C1540 0.950 . S
H1511 C1541 0.950 . S
C1512 H1494 0.951 . S
C1512 C1513 1.366 . S
C1512 C1514 1.388 . S
C1513 C1512 1.366 . S
C1513 C1517 1.385 . S
C1514 H1495 0.951 . S
C1514 C1512 1.388 . S
C1514 C1515 1.366 . S
C1515 C1514 1.366 . S
C1515 C1516 1.414 . S
C1515 C1518 1.499 . S
C1516 H1496 0.950 . S
C1516 C1515 1.414 . S
C1516 C1517 1.374 . S
C1517 H1497 0.950 . S
C1517 C1513 1.385 . S
C1517 C1516 1.374 . S
C1518 C1515 1.499 . S
C1518 C1519 1.373 . S
C1518 C1520 1.389 . S
C1519 H1498 0.950 . S
C1519 C1518 1.373 . S
C1519 C1535 1.377 . S
C1520 C1518 1.389 . S
C1520 C1521 1.524 . S
C1520 C1534 1.377 . S
C1521 C1520 1.524 . S
C1521 C1522 1.397 . S
C1521 C1526 1.363 . S
C1522 H1499 0.950 . S
C1522 C1521 1.397 . S
C1522 C1523 1.334 . S
C1523 H1500 0.950 . S
C1523 C1522 1.334 . S
C1523 C1524 1.287 . S
C1524 C1523 1.287 . S
C1524 C1525 1.524 . S
C1524 H1543 0.913 . S
C1525 H1501 0.950 . S
C1525 C1524 1.524 . S
C1525 C1526 1.415 . S
C1526 H1502 0.950 . S
C1526 C1521 1.363 . S
C1526 C1525 1.415 . S
C1527 H1503 0.951 . S
C1527 C1528 1.366 . S
C1527 C1529 1.388 . S
C1528 C1527 1.366 . S
C1528 C1532 1.385 . S
C1529 H1504 0.951 . S
C1529 C1527 1.388 . S
C1529 C1530 1.366 . S
C1530 C1529 1.366 . S
C1530 C1531 1.414 . S
C1530 C1533 1.499 . S
C1531 H1505 0.950 . S
C1531 C1530 1.414 . S
C1531 C1532 1.374 . S
C1532 H1506 0.950 . S
C1532 C1528 1.385 . S
C1532 C1531 1.374 . S
C1533 C1530 1.499 . S
C1533 C1534 1.373 . S
C1533 C1535 1.389 . S
C1534 H1507 0.950 . S
C1534 C1520 1.377 . S
C1534 C1533 1.373 . S
C1535 C1519 1.377 . S
C1535 C1533 1.389 . S
C1535 C1536 1.524 . S
C1536 C1535 1.524 . S
C1536 C1537 1.397 . S
C1536 C1541 1.363 . S
C1537 H1508 0.950 . S
C1537 C1536 1.397 . S
C1537 C1538 1.334 . S
C1538 H1509 0.950 . S
C1538 C1537 1.334 . S
C1538 C1539 1.287 . S
C1539 C1538 1.287 . S
C1539 C1540 1.524 . S
C1539 H1542 0.999 . S
C1540 H1510 0.950 . S
C1540 C1539 1.524 . S
C1540 C1541 1.415 . S
C1541 H1511 0.950 . S
C1541 C1536 1.363 . S
C1541 C1540 1.415 . S
H1542 C1539 0.999 . S
H1543 C1524 0.913 . S
H1544 C1562 0.951 . S
H1545 C1564 0.951 . S
H1546 C1566 0.950 1_455 S
H1547 C1567 0.950 . S
H1548 C1569 0.950 . S
H1549 C1572 0.950 . S
H1550 C1573 0.950 . S
H1551 C1575 0.950 . S
H1552 C1576 0.950 . S
H1553 C1577 0.951 . S
H1554 C1579 0.951 . S
H1555 C1581 0.950 . S
H1556 C1582 0.950 1_655 S
H1557 C1584 0.950 . S
H1558 C1587 0.950 . S
H1559 C1588 0.950 . S
H1560 C1590 0.950 . S
H1561 C1591 0.950 . S
C1562 H1544 0.951 . S
C1562 C1563 1.366 . S
C1562 C1564 1.388 . S
C1563 C1562 1.366 . S
C1563 C1567 1.385 . S
C1564 H1545 0.951 . S
C1564 C1562 1.388 . S
C1564 C1565 1.366 . S
C1565 C1564 1.366 . S
C1565 C1566 1.414 . S
C1565 C1568 1.499 . S
C1566 H1546 0.950 1_655 S
C1566 C1565 1.414 . S
C1566 C1567 1.374 . S
C1567 H1547 0.950 . S
C1567 C1563 1.385 . S
C1567 C1566 1.374 . S
C1568 C1565 1.499 . S
C1568 C1569 1.373 . S
C1568 C1570 1.389 . S
C1569 H1548 0.950 . S
C1569 C1568 1.373 . S
C1569 C1585 1.377 . S
C1570 C1568 1.389 . S
C1570 C1571 1.524 . S
C1570 C1584 1.377 . S
C1571 C1570 1.524 . S
C1571 C1572 1.397 1_655 S
C1571 C1576 1.363 . S
C1572 H1549 0.950 . S
C1572 C1571 1.397 1_455 S
C1572 C1573 1.334 . S
C1573 H1550 0.950 . S
C1573 C1572 1.334 . S
C1573 C1574 1.287 1_455 S
C1574 C1573 1.287 1_655 S
C1574 C1575 1.524 . S
C1574 H1593 0.913 . S
C1575 H1551 0.950 . S
C1575 C1574 1.524 . S
C1575 C1576 1.415 . S
C1576 H1552 0.950 . S
C1576 C1571 1.363 . S
C1576 C1575 1.415 . S
C1577 H1553 0.951 . S
C1577 C1578 1.366 . S
C1577 C1579 1.388 . S
C1578 C1577 1.366 . S
C1578 C1582 1.385 . S
C1579 H1554 0.951 . S
C1579 C1577 1.388 . S
C1579 C1580 1.366 . S
C1580 C1579 1.366 . S
C1580 C1581 1.414 1_455 S
C1580 C1583 1.499 1_455 S
C1581 H1555 0.950 . S
C1581 C1580 1.414 1_655 S
C1581 C1582 1.374 1_655 S
C1582 H1556 0.950 1_455 S
C1582 C1578 1.385 . S
C1582 C1581 1.374 1_455 S
C1583 C1580 1.499 1_655 S
C1583 C1584 1.373 . S
C1583 C1585 1.389 . S
C1584 H1557 0.950 . S
C1584 C1570 1.377 . S
C1584 C1583 1.373 . S
C1585 C1569 1.377 . S
C1585 C1583 1.389 . S
C1585 C1586 1.524 . S
C1586 C1585 1.524 . S
C1586 C1587 1.397 . S
C1586 C1591 1.363 1_655 S
C1587 H1558 0.950 . S
C1587 C1586 1.397 . S
C1587 C1588 1.334 . S
C1588 H1559 0.950 . S
C1588 C1587 1.334 . S
C1588 C1589 1.287 . S
C1589 C1588 1.287 . S
C1589 C1590 1.524 1_655 S
C1589 H1592 0.999 . S
C1590 H1560 0.950 . S
C1590 C1589 1.524 1_455 S
C1590 C1591 1.415 . S
C1591 H1561 0.950 . S
C1591 C1586 1.363 1_455 S
C1591 C1590 1.415 . S
H1592 C1589 0.999 . S
H1593 C1574 0.913 . S
H1594 C1612 0.951 . S
H1595 C1614 0.951 . S
H1596 C1616 0.950 1_655 S
H1597 C1617 0.950 . S
H1598 C1619 0.950 . S
H1599 C1622 0.950 . S
H1600 C1623 0.950 . S
H1601 C1625 0.950 . S
H1602 C1626 0.950 . S
H1603 C1627 0.951 . S
H1604 C1629 0.951 . S
H1605 C1631 0.950 . S
H1606 C1632 0.950 . S
H1607 C1634 0.950 . S
H1608 C1637 0.950 . S
H1609 C1638 0.950 . S
H1610 C1640 0.950 . S
H1611 C1641 0.950 . S
C1612 H1594 0.951 . S
C1612 C1613 1.366 . S
C1612 C1614 1.388 . S
C1613 C1612 1.366 . S
C1613 C1617 1.385 . S
C1614 H1595 0.951 . S
C1614 C1612 1.388 . S
C1614 C1615 1.366 . S
C1615 C1614 1.366 . S
C1615 C1616 1.414 . S
C1615 C1618 1.499 . S
C1616 H1596 0.950 1_455 S
C1616 C1615 1.414 . S
C1616 C1617 1.374 . S
C1617 H1597 0.950 . S
C1617 C1613 1.385 . S
C1617 C1616 1.374 . S
C1618 C1615 1.499 . S
C1618 C1619 1.373 1_455 S
C1618 C1620 1.389 . S
C1619 H1598 0.950 . S
C1619 C1618 1.373 1_655 S
C1619 C1635 1.377 . S
C1620 C1618 1.389 . S
C1620 C1621 1.524 . S
C1620 C1634 1.377 . S
C1621 C1620 1.524 . S
C1621 C1622 1.397 . S
C1621 C1626 1.363 . S
C1622 H1599 0.950 . S
C1622 C1621 1.397 . S
C1622 C1623 1.334 . S
C1623 H1600 0.950 . S
C1623 C1622 1.334 . S
C1623 C1624 1.287 . S
C1624 C1623 1.287 . S
C1624 C1625 1.524 . S
C1624 H1643 0.913 . S
C1625 H1601 0.950 . S
C1625 C1624 1.524 . S
C1625 C1626 1.415 . S
C1626 H1602 0.950 . S
C1626 C1621 1.363 . S
C1626 C1625 1.415 . S
C1627 H1603 0.951 . S
C1627 C1628 1.366 . S
C1627 C1629 1.388 . S
C1628 C1627 1.366 . S
C1628 C1632 1.385 1_655 S
C1629 H1604 0.951 . S
C1629 C1627 1.388 . S
C1629 C1630 1.366 . S
C1630 C1629 1.366 . S
C1630 C1631 1.414 1_655 S
C1630 C1633 1.499 1_655 S
C1631 H1605 0.950 . S
C1631 C1630 1.414 1_455 S
C1631 C1632 1.374 . S
C1632 H1606 0.950 . S
C1632 C1628 1.385 1_455 S
C1632 C1631 1.374 . S
C1633 C1630 1.499 1_455 S
C1633 C1634 1.373 . S
C1633 C1635 1.389 1_455 S
C1634 H1607 0.950 . S
C1634 C1620 1.377 . S
C1634 C1633 1.373 . S
C1635 C1619 1.377 . S
C1635 C1633 1.389 1_655 S
C1635 C1636 1.524 . S
C1636 C1635 1.524 . S
C1636 C1637 1.397 . S
C1636 C1641 1.363 . S
C1637 H1608 0.950 . S
C1637 C1636 1.397 . S
C1637 C1638 1.334 . S
C1638 H1609 0.950 . S
C1638 C1637 1.334 . S
C1638 C1639 1.287 . S
C1639 C1638 1.287 . S
C1639 C1640 1.524 . S
C1639 H1642 0.999 . S
C1640 H1610 0.950 . S
C1640 C1639 1.524 . S
C1640 C1641 1.415 . S
C1641 H1611 0.950 . S
C1641 C1636 1.363 . S
C1641 C1640 1.415 . S
H1642 C1639 0.999 . S
H1643 C1624 0.913 . S
H1644 C1662 0.951 . S
H1645 C1664 0.949 1_565 S
H1646 C1666 0.950 . S
H1647 C1667 0.950 . S
H1648 C1669 0.950 . S
H1649 C1672 0.950 . S
H1650 C1673 0.950 . S
H1651 C1675 0.950 . S
H1652 C1676 0.950 . S
H1653 C1677 0.951 . S
H1654 C1679 0.951 . S
H1655 C1681 0.950 . S
H1656 C1682 0.950 . S
H1657 C1684 0.950 . S
H1658 C1687 1.002 . S
H1659 C1688 0.950 . S
H1660 C1690 0.950 . S
H1661 C1691 0.950 . S
C1662 H1644 0.951 . S
C1662 C1663 1.366 . S
C1662 C1664 1.389 . S
C1663 C1662 1.366 . S
C1663 C1667 1.385 . S
C1664 H1645 0.949 1_545 S
C1664 C1662 1.389 . S
C1664 C1665 1.366 . S
C1665 C1664 1.366 . S
C1665 C1666 1.414 . S
C1665 C1668 1.499 1_545 S
C1666 H1646 0.950 . S
C1666 C1665 1.414 . S
C1666 C1667 1.374 . S
C1667 H1647 0.950 . S
C1667 C1663 1.385 . S
C1667 C1666 1.374 . S
C1668 C1665 1.499 1_565 S
C1668 C1669 1.373 1_566 S
C1668 C1670 1.389 . S
C1669 H1648 0.950 . S
C1669 C1668 1.373 1_544 S
C1669 C1685 1.377 1_545 S
C1670 C1668 1.389 . S
C1670 C1671 1.524 . S
C1670 C1684 1.377 1_556 S
C1671 C1670 1.524 . S
C1671 C1672 1.397 . S
C1671 C1676 1.363 . S
C1672 H1649 0.950 . S
C1672 C1671 1.397 . S
C1672 C1673 1.334 . S
C1673 H1650 0.950 . S
C1673 C1672 1.334 . S
C1673 C1674 1.287 . S
C1674 C1673 1.287 . S
C1674 C1675 1.524 . S
C1674 H1693 0.913 . S
C1675 H1651 0.950 . S
C1675 C1674 1.524 . S
C1675 C1676 1.415 . S
C1676 H1652 0.950 . S
C1676 C1671 1.363 . S
C1676 C1675 1.415 . S
C1677 H1653 0.951 . S
C1677 C1678 1.366 . S
C1677 C1679 1.388 . S
C1678 C1677 1.366 . S
C1678 C1682 1.385 . S
C1679 H1654 0.951 . S
C1679 C1677 1.388 . S
C1679 C1680 1.366 . S
C1680 C1679 1.366 . S
C1680 C1681 1.414 . S
C1680 C1683 1.499 . S
C1681 H1655 0.950 . S
C1681 C1680 1.414 . S
C1681 C1682 1.374 . S
C1682 H1656 0.950 . S
C1682 C1678 1.385 . S
C1682 C1681 1.374 . S
C1683 C1680 1.499 . S
C1683 C1684 1.373 . S
C1683 C1685 1.389 . S
C1684 H1657 0.950 . S
C1684 C1670 1.377 1_554 S
C1684 C1683 1.373 . S
C1685 C1669 1.377 1_565 S
C1685 C1683 1.389 . S
C1685 C1686 1.524 1_565 S
C1686 C1685 1.524 1_545 S
C1686 C1687 1.397 . S
C1686 C1691 1.363 . S
C1687 H1658 1.002 . S
C1687 C1686 1.397 . S
C1687 C1688 1.334 . S
C1688 H1659 0.950 . S
C1688 C1687 1.334 . S
C1688 C1689 1.287 . S
C1689 C1688 1.287 . S
C1689 C1690 1.524 . S
C1689 H1692 0.999 . S
C1690 H1660 0.950 . S
C1690 C1689 1.524 . S
C1690 C1691 1.415 . S
C1691 H1661 0.950 . S
C1691 C1686 1.363 . S
C1691 C1690 1.415 . S
H1692 C1689 0.999 . S
H1693 C1674 0.913 . S
H1694 C1712 0.951 . S
H1695 C1714 0.969 . S
H1696 C1716 0.950 . S
H1697 C1717 0.950 . S
H1698 C1719 0.950 . S
H1699 C1722 0.950 . S
H1700 C1723 0.950 . S
H1701 C1725 0.950 . S
H1702 C1726 0.947 1_545 S
H1703 C1727 0.951 . S
H1704 C1729 0.951 . S
H1705 C1731 0.950 . S
H1706 C1732 0.950 . S
H1707 C1734 0.950 . S
H1708 C1737 0.950 . S
H1709 C1738 0.950 . S
H1710 C1740 0.950 . S
H1711 C1741 0.950 . S
C1712 H1694 0.951 . S
C1712 C1713 1.366 . S
C1712 C1714 1.388 . S
C1713 C1712 1.366 . S
C1713 C1717 1.385 . S
C1714 H1695 0.969 . S
C1714 C1712 1.388 . S
C1714 C1715 1.366 . S
C1715 C1714 1.366 . S
C1715 C1716 1.414 . S
C1715 C1718 1.499 1_565 S
C1716 H1696 0.950 . S
C1716 C1715 1.414 . S
C1716 C1717 1.374 . S
C1717 H1697 0.950 . S
C1717 C1713 1.385 . S
C1717 C1716 1.374 . S
C1718 C1715 1.499 1_545 S
C1718 C1719 1.373 . S
C1718 C1720 1.390 1_546 S
C1719 H1698 0.950 . S
C1719 C1718 1.373 . S
C1719 C1735 1.377 1_556 S
C1720 C1718 1.390 1_564 S
C1720 C1721 1.523 . S
C1720 C1734 1.378 1_565 S
C1721 C1720 1.523 . S
C1721 C1722 1.397 . S
C1721 C1726 1.363 . S
C1722 H1699 0.950 . S
C1722 C1721 1.397 . S
C1722 C1723 1.334 . S
C1723 H1700 0.950 . S
C1723 C1722 1.334 . S
C1723 C1724 1.287 . S
C1724 C1723 1.287 . S
C1724 C1725 1.524 . S
C1724 H1743 0.913 . S
C1725 H1701 0.950 . S
C1725 C1724 1.524 . S
C1725 C1726 1.415 . S
C1726 H1702 0.947 1_565 S
C1726 C1721 1.363 . S
C1726 C1725 1.415 . S
C1727 H1703 0.951 . S
C1727 C1728 1.366 . S
C1727 C1729 1.388 . S
C1728 C1727 1.366 . S
C1728 C1732 1.385 . S
C1729 H1704 0.951 . S
C1729 C1727 1.388 . S
C1729 C1730 1.366 . S
C1730 C1729 1.366 . S
C1730 C1731 1.414 . S
C1730 C1733 1.499 . S
C1731 H1705 0.950 . S
C1731 C1730 1.414 . S
C1731 C1732 1.374 . S
C1732 H1706 0.950 . S
C1732 C1728 1.385 . S
C1732 C1731 1.374 . S
C1733 C1730 1.499 . S
C1733 C1734 1.373 . S
C1733 C1735 1.389 . S
C1734 H1707 0.950 . S
C1734 C1720 1.378 1_545 S
C1734 C1733 1.373 . S
C1735 C1719 1.377 1_554 S
C1735 C1733 1.389 . S
C1735 C1736 1.524 . S
C1736 C1735 1.524 . S
C1736 C1737 1.397 . S
C1736 C1741 1.363 1_554 S
C1737 H1708 0.950 . S
C1737 C1736 1.397 . S
C1737 C1738 1.334 . S
C1738 H1709 0.950 . S
C1738 C1737 1.334 . S
C1738 C1739 1.289 . S
C1739 C1738 1.289 . S
C1739 C1740 1.523 1_554 S
C1739 H1742 0.998 1_554 S
C1740 H1710 0.950 . S
C1740 C1739 1.523 1_556 S
C1740 C1741 1.415 . S
C1741 H1711 0.950 . S
C1741 C1736 1.363 1_556 S
C1741 C1740 1.415 . S
H1742 C1739 0.998 1_556 S
H1743 C1724 0.913 . S
H1744 C1762 0.951 . S
H1745 C1764 0.951 . S
H1746 C1766 0.950 . S
H1747 C1767 0.950 . S
H1748 C1769 0.950 . S
H1749 C1772 0.950 . S
H1750 C1773 0.950 . S
H1751 C1775 0.950 . S
H1752 C1776 0.950 . S
H1753 C1777 0.951 . S
H1754 C1779 0.951 . S
H1755 C1781 0.950 . S
H1756 C1782 0.950 . S
H1757 C1784 0.950 . S
H1758 C1787 0.950 . S
H1759 C1788 0.950 . S
H1760 C1790 0.950 . S
H1761 C1791 0.950 . S
C1762 H1744 0.951 . S
C1762 C1763 1.366 . S
C1762 C1764 1.388 . S
C1763 C1762 1.366 . S
C1763 C1767 1.385 . S
C1764 H1745 0.951 . S
C1764 C1762 1.388 . S
C1764 C1765 1.366 . S
C1765 C1764 1.366 . S
C1765 C1766 1.414 . S
C1765 C1768 1.499 . S
C1766 H1746 0.950 . S
C1766 C1765 1.414 . S
C1766 C1767 1.374 . S
C1767 H1747 0.950 . S
C1767 C1763 1.385 . S
C1767 C1766 1.374 . S
C1768 C1765 1.499 . S
C1768 C1769 1.373 . S
C1768 C1770 1.389 . S
C1769 H1748 0.950 . S
C1769 C1768 1.373 . S
C1769 C1785 1.377 . S
C1770 C1768 1.389 . S
C1770 C1771 1.524 . S
C1770 C1784 1.377 . S
C1771 C1770 1.524 . S
C1771 C1772 1.397 . S
C1771 C1776 1.363 . S
C1772 H1749 0.950 . S
C1772 C1771 1.397 . S
C1772 C1773 1.334 . S
C1773 H1750 0.950 . S
C1773 C1772 1.334 . S
C1773 C1774 1.287 . S
C1774 C1773 1.287 . S
C1774 C1775 1.524 . S
C1774 H1793 0.913 . S
C1775 H1751 0.950 . S
C1775 C1774 1.524 . S
C1775 C1776 1.415 . S
C1776 H1752 0.950 . S
C1776 C1771 1.363 . S
C1776 C1775 1.415 . S
C1777 H1753 0.951 . S
C1777 C1778 1.366 . S
C1777 C1779 1.388 . S
C1778 C1777 1.366 . S
C1778 C1782 1.385 . S
C1779 H1754 0.951 . S
C1779 C1777 1.388 . S
C1779 C1780 1.366 . S
C1780 C1779 1.366 . S
C1780 C1781 1.414 . S
C1780 C1783 1.499 . S
C1781 H1755 0.950 . S
C1781 C1780 1.414 . S
C1781 C1782 1.374 . S
C1782 H1756 0.950 . S
C1782 C1778 1.385 . S
C1782 C1781 1.374 . S
C1783 C1780 1.499 . S
C1783 C1784 1.373 . S
C1783 C1785 1.389 . S
C1784 H1757 0.950 . S
C1784 C1770 1.377 . S
C1784 C1783 1.373 . S
C1785 C1769 1.377 . S
C1785 C1783 1.389 . S
C1785 C1786 1.524 . S
C1786 C1785 1.524 . S
C1786 C1787 1.397 . S
C1786 C1791 1.363 . S
C1787 H1758 0.950 . S
C1787 C1786 1.397 . S
C1787 C1788 1.334 . S
C1788 H1759 0.950 . S
C1788 C1787 1.334 . S
C1788 C1789 1.287 . S
C1789 C1788 1.287 . S
C1789 C1790 1.524 . S
C1789 H1792 0.999 . S
C1790 H1760 0.950 . S
C1790 C1789 1.524 . S
C1790 C1791 1.415 . S
C1791 H1761 0.950 . S
C1791 C1786 1.363 . S
C1791 C1790 1.415 . S
H1792 C1789 0.999 . S
H1793 C1774 0.913 . S
H1794 C1812 0.951 . S
H1795 C1814 0.951 . S
H1796 C1816 0.950 . S
H1797 C1817 0.950 . S
H1798 C1819 0.950 . S
H1799 C1822 0.950 . S
H1800 C1823 0.950 . S
H1801 C1825 0.950 . S
H1802 C1826 0.950 . S
H1803 C1827 0.951 . S
H1804 C1829 0.951 . S
H1805 C1831 0.950 . S
H1806 C1832 0.950 . S
H1807 C1834 0.950 . S
H1808 C1837 0.950 . S
H1809 C1838 0.950 . S
H1810 C1840 0.950 . S
H1811 C1841 0.950 . S
C1812 H1794 0.951 . S
C1812 C1813 1.366 . S
C1812 C1814 1.388 . S
C1813 C1812 1.366 . S
C1813 C1817 1.385 . S
C1814 H1795 0.951 . S
C1814 C1812 1.388 . S
C1814 C1815 1.366 . S
C1815 C1814 1.366 . S
C1815 C1816 1.414 . S
C1815 C1818 1.499 . S
C1816 H1796 0.950 . S
C1816 C1815 1.414 . S
C1816 C1817 1.374 . S
C1817 H1797 0.950 . S
C1817 C1813 1.385 . S
C1817 C1816 1.374 . S
C1818 C1815 1.499 . S
C1818 C1819 1.373 . S
C1818 C1820 1.389 . S
C1819 H1798 0.950 . S
C1819 C1818 1.373 . S
C1819 C1835 1.377 . S
C1820 C1818 1.389 . S
C1820 C1821 1.524 . S
C1820 C1834 1.377 . S
C1821 C1820 1.524 . S
C1821 C1822 1.397 . S
C1821 C1826 1.363 . S
C1822 H1799 0.950 . S
C1822 C1821 1.397 . S
C1822 C1823 1.334 . S
C1823 H1800 0.950 . S
C1823 C1822 1.334 . S
C1823 C1824 1.287 . S
C1824 C1823 1.287 . S
C1824 C1825 1.524 . S
C1824 H1843 0.913 . S
C1825 H1801 0.950 . S
C1825 C1824 1.524 . S
C1825 C1826 1.415 . S
C1826 H1802 0.950 . S
C1826 C1821 1.363 . S
C1826 C1825 1.415 . S
C1827 H1803 0.951 . S
C1827 C1828 1.366 . S
C1827 C1829 1.388 . S
C1828 C1827 1.366 . S
C1828 C1832 1.385 . S
C1829 H1804 0.951 . S
C1829 C1827 1.388 . S
C1829 C1830 1.366 . S
C1830 C1829 1.366 . S
C1830 C1831 1.414 . S
C1830 C1833 1.499 . S
C1831 H1805 0.950 . S
C1831 C1830 1.414 . S
C1831 C1832 1.374 . S
C1832 H1806 0.950 . S
C1832 C1828 1.385 . S
C1832 C1831 1.374 . S
C1833 C1830 1.499 . S
C1833 C1834 1.373 . S
C1833 C1835 1.389 . S
C1834 H1807 0.950 . S
C1834 C1820 1.377 . S
C1834 C1833 1.373 . S
C1835 C1819 1.377 . S
C1835 C1833 1.389 . S
C1835 C1836 1.524 . S
C1836 C1835 1.524 . S
C1836 C1837 1.397 . S
C1836 C1841 1.363 . S
C1837 H1808 0.950 . S
C1837 C1836 1.397 . S
C1837 C1838 1.334 . S
C1838 H1809 0.950 . S
C1838 C1837 1.334 . S
C1838 C1839 1.287 . S
C1839 C1838 1.287 . S
C1839 C1840 1.524 . S
C1839 H1842 0.999 . S
C1840 H1810 0.950 . S
C1840 C1839 1.524 . S
C1840 C1841 1.415 . S
C1841 H1811 0.950 . S
C1841 C1836 1.363 . S
C1841 C1840 1.415 . S
H1842 C1839 0.999 . S
H1843 C1824 0.913 . S
H1844 C1862 0.951 . S
H1845 C1864 0.951 . S
H1846 C1866 0.950 . S
H1847 C1867 0.950 . S
H1848 C1869 0.950 . S
H1849 C1872 0.950 . S
H1850 C1873 0.950 . S
H1851 C1875 0.950 . S
H1852 C1876 0.950 . S
H1853 C1877 0.951 . S
H1854 C1879 0.951 . S
H1855 C1881 0.950 . S
H1856 C1882 0.950 . S
H1857 C1884 0.950 . S
H1858 C1887 0.934 1_556 S
H1859 C1888 0.950 . S
H1860 C1890 0.950 . S
H1861 C1891 0.950 . S
C1862 H1844 0.951 . S
C1862 C1863 1.366 . S
C1862 C1864 1.388 . S
C1863 C1862 1.366 . S
C1863 C1867 1.385 . S
C1864 H1845 0.951 . S
C1864 C1862 1.388 . S
C1864 C1865 1.366 . S
C1865 C1864 1.366 . S
C1865 C1866 1.414 . S
C1865 C1868 1.499 . S
C1866 H1846 0.950 . S
C1866 C1865 1.414 . S
C1866 C1867 1.374 . S
C1867 H1847 0.950 . S
C1867 C1863 1.385 . S
C1867 C1866 1.374 . S
C1868 C1865 1.499 . S
C1868 C1869 1.373 . S
C1868 C1870 1.389 . S
C1869 H1848 0.950 . S
C1869 C1868 1.373 . S
C1869 C1885 1.377 . S
C1870 C1868 1.389 . S
C1870 C1871 1.524 . S
C1870 C1884 1.377 1_554 S
C1871 C1870 1.524 . S
C1871 C1872 1.397 . S
C1871 C1876 1.363 1_554 S
C1872 H1849 0.950 . S
C1872 C1871 1.397 . S
C1872 C1873 1.334 . S
C1873 H1850 0.950 . S
C1873 C1872 1.334 . S
C1873 C1874 1.282 1_554 S
C1874 C1873 1.282 1_556 S
C1874 C1875 1.527 . S
C1874 H1893 0.914 . S
C1875 H1851 0.950 . S
C1875 C1874 1.527 . S
C1875 C1876 1.415 . S
C1876 H1852 0.950 . S
C1876 C1871 1.363 1_556 S
C1876 C1875 1.415 . S
C1877 H1853 0.951 . S
C1877 C1878 1.366 . S
C1877 C1879 1.388 . S
C1878 C1877 1.366 . S
C1878 C1882 1.385 . S
C1879 H1854 0.951 . S
C1879 C1877 1.388 . S
C1879 C1880 1.366 . S
C1880 C1879 1.366 . S
C1880 C1881 1.414 . S
C1880 C1883 1.499 . S
C1881 H1855 0.950 . S
C1881 C1880 1.414 . S
C1881 C1882 1.374 . S
C1882 H1856 0.950 . S
C1882 C1878 1.385 . S
C1882 C1881 1.374 . S
C1883 C1880 1.499 . S
C1883 C1884 1.373 . S
C1883 C1885 1.389 1_556 S
C1884 H1857 0.950 . S
C1884 C1870 1.377 1_556 S
C1884 C1883 1.373 . S
C1885 C1869 1.377 . S
C1885 C1883 1.389 1_554 S
C1885 C1886 1.524 . S
C1886 C1885 1.524 . S
C1886 C1887 1.397 . S
C1886 C1891 1.363 . S
C1887 H1858 0.934 1_554 S
C1887 C1886 1.397 . S
C1887 C1888 1.334 . S
C1888 H1859 0.950 . S
C1888 C1887 1.334 . S
C1888 C1889 1.287 . S
C1889 C1888 1.287 . S
C1889 C1890 1.524 . S
C1889 H1892 0.999 . S
C1890 H1860 0.950 . S
C1890 C1889 1.524 . S
C1890 C1891 1.415 . S
C1891 H1861 0.950 . S
C1891 C1886 1.363 . S
C1891 C1890 1.415 . S
H1892 C1889 0.999 . S
H1893 C1874 0.914 . S
H1894 C1912 0.951 . S
H1895 C1914 0.951 . S
H1896 C1916 0.950 . S
H1897 C1917 0.950 . S
H1898 C1919 0.950 . S
H1899 C1922 0.950 . S
H1900 C1923 0.950 . S
H1901 C1925 0.950 1_556 S
H1902 C1926 0.950 1_556 S
H1903 C1927 0.951 . S
H1904 C1929 0.951 . S
H1905 C1931 0.950 . S
H1906 C1932 0.950 . S
H1907 C1934 0.950 . S
H1908 C1937 0.950 . S
H1909 C1938 0.950 . S
H1910 C1940 0.950 . S
H1911 C1941 0.950 . S
C1912 H1894 0.951 . S
C1912 C1913 1.366 . S
C1912 C1914 1.388 . S
C1913 C1912 1.366 . S
C1913 C1917 1.385 . S
C1914 H1895 0.951 . S
C1914 C1912 1.388 . S
C1914 C1915 1.366 . S
C1915 C1914 1.366 . S
C1915 C1916 1.414 . S
C1915 C1918 1.499 . S
C1916 H1896 0.950 . S
C1916 C1915 1.414 . S
C1916 C1917 1.374 . S
C1917 H1897 0.950 . S
C1917 C1913 1.385 . S
C1917 C1916 1.374 . S
C1918 C1915 1.499 . S
C1918 C1919 1.373 . S
C1918 C1920 1.389 . S
C1919 H1898 0.950 . S
C1919 C1918 1.373 . S
C1919 C1935 1.377 . S
C1920 C1918 1.389 . S
C1920 C1921 1.524 . S
C1920 C1934 1.377 1_554 S
C1921 C1920 1.524 . S
C1921 C1922 1.397 . S
C1921 C1926 1.363 . S
C1922 H1899 0.950 . S
C1922 C1921 1.397 . S
C1922 C1923 1.334 . S
C1923 H1900 0.950 . S
C1923 C1922 1.334 . S
C1923 C1924 1.287 . S
C1924 C1923 1.287 . S
C1924 C1925 1.524 . S
C1924 H1943 0.913 . S
C1925 H1901 0.950 1_554 S
C1925 C1924 1.524 . S
C1925 C1926 1.415 . S
C1926 H1902 0.950 1_554 S
C1926 C1921 1.363 . S
C1926 C1925 1.415 . S
C1927 H1903 0.951 . S
C1927 C1928 1.366 . S
C1927 C1929 1.388 . S
C1928 C1927 1.366 . S
C1928 C1932 1.385 . S
C1929 H1904 0.951 . S
C1929 C1927 1.388 . S
C1929 C1930 1.366 . S
C1930 C1929 1.366 . S
C1930 C1931 1.414 . S
C1930 C1933 1.499 . S
C1931 H1905 0.950 . S
C1931 C1930 1.414 . S
C1931 C1932 1.374 . S
C1932 H1906 0.950 . S
C1932 C1928 1.385 . S
C1932 C1931 1.374 . S
C1933 C1930 1.499 . S
C1933 C1934 1.373 . S
C1933 C1935 1.389 1_556 S
C1934 H1907 0.950 . S
C1934 C1920 1.377 1_556 S
C1934 C1933 1.373 . S
C1935 C1919 1.377 . S
C1935 C1933 1.389 1_554 S
C1935 C1936 1.524 . S
C1936 C1935 1.524 . S
C1936 C1937 1.397 1_554 S
C1936 C1941 1.363 . S
C1937 H1908 0.950 . S
C1937 C1936 1.397 1_556 S
C1937 C1938 1.334 . S
C1938 H1909 0.950 . S
C1938 C1937 1.334 . S
C1938 C1939 1.287 . S
C1939 C1938 1.287 . S
C1939 C1940 1.524 1_556 S
C1939 H1942 0.999 . S
C1940 H1910 0.950 . S
C1940 C1939 1.524 1_554 S
C1940 C1941 1.415 . S
C1941 H1911 0.950 . S
C1941 C1936 1.363 . S
C1941 C1940 1.415 . S
H1942 C1939 0.999 . S
H1943 C1924 0.913 . S
H1944 C1962 0.951 . S
H1945 C1964 0.951 . S
H1946 C1966 0.950 . S
H1947 C1967 0.950 . S
H1948 C1969 0.950 . S
H1949 C1972 0.950 . S
H1950 C1973 0.950 . S
H1951 C1975 0.950 . S
H1952 C1976 0.950 . S
H1953 C1977 0.951 . S
H1954 C1979 0.951 . S
H1955 C1981 0.950 . S
H1956 C1982 0.950 . S
H1957 C1984 0.950 . S
H1958 C1987 0.950 . S
H1959 C1988 0.950 . S
H1960 C1990 0.950 . S
H1961 C1991 0.950 . S
C1962 H1944 0.951 . S
C1962 C1963 1.366 . S
C1962 C1964 1.388 . S
C1963 C1962 1.366 . S
C1963 C1967 1.385 . S
C1964 H1945 0.951 . S
C1964 C1962 1.388 . S
C1964 C1965 1.366 . S
C1965 C1964 1.366 . S
C1965 C1966 1.414 . S
C1965 C1968 1.499 . S
C1966 H1946 0.950 . S
C1966 C1965 1.414 . S
C1966 C1967 1.374 . S
C1967 H1947 0.950 . S
C1967 C1963 1.385 . S
C1967 C1966 1.374 . S
C1968 C1965 1.499 . S
C1968 C1969 1.373 . S
C1968 C1970 1.389 . S
C1969 H1948 0.950 . S
C1969 C1968 1.373 . S
C1969 C1985 1.377 . S
C1970 C1968 1.389 . S
C1970 C1971 1.524 . S
C1970 C1984 1.377 . S
C1971 C1970 1.524 . S
C1971 C1972 1.397 . S
C1971 C1976 1.363 . S
C1972 H1949 0.950 . S
C1972 C1971 1.397 . S
C1972 C1973 1.334 . S
C1973 H1950 0.950 . S
C1973 C1972 1.334 . S
C1973 C1974 1.287 . S
C1974 C1973 1.287 . S
C1974 C1975 1.524 . S
C1974 H1993 0.913 . S
C1975 H1951 0.950 . S
C1975 C1974 1.524 . S
C1975 C1976 1.415 . S
C1976 H1952 0.950 . S
C1976 C1971 1.363 . S
C1976 C1975 1.415 . S
C1977 H1953 0.951 . S
C1977 C1978 1.366 . S
C1977 C1979 1.388 . S
C1978 C1977 1.366 . S
C1978 C1982 1.385 . S
C1979 H1954 0.951 . S
C1979 C1977 1.388 . S
C1979 C1980 1.366 . S
C1980 C1979 1.366 . S
C1980 C1981 1.414 . S
C1980 C1983 1.499 . S
C1981 H1955 0.950 . S
C1981 C1980 1.414 . S
C1981 C1982 1.374 . S
C1982 H1956 0.950 . S
C1982 C1978 1.385 . S
C1982 C1981 1.374 . S
C1983 C1980 1.499 . S
C1983 C1984 1.373 . S
C1983 C1985 1.389 . S
C1984 H1957 0.950 . S
C1984 C1970 1.377 . S
C1984 C1983 1.373 . S
C1985 C1969 1.377 . S
C1985 C1983 1.389 . S
C1985 C1986 1.524 . S
C1986 C1985 1.524 . S
C1986 C1987 1.397 . S
C1986 C1991 1.363 . S
C1987 H1958 0.950 . S
C1987 C1986 1.397 . S
C1987 C1988 1.334 . S
C1988 H1959 0.950 . S
C1988 C1987 1.334 . S
C1988 C1989 1.287 . S
C1989 C1988 1.287 . S
C1989 C1990 1.524 . S
C1989 H1992 0.999 . S
C1990 H1960 0.950 . S
C1990 C1989 1.524 . S
C1990 C1991 1.415 . S
C1991 H1961 0.950 . S
C1991 C1986 1.363 . S
C1991 C1990 1.415 . S
H1992 C1989 0.999 . S
H1993 C1974 0.913 . S
H1994 C2012 0.951 . S
H1995 C2014 0.951 . S
H1996 C2016 0.950 . S
H1997 C2017 0.950 . S
H1998 C2019 0.950 . S
H1999 C2022 0.950 . S
H2000 C2023 0.950 . S
H2001 C2025 0.950 . S
H2002 C2026 0.950 . S
H2003 C2027 0.951 . S
H2004 C2029 0.951 . S
H2005 C2031 0.950 . S
H2006 C2032 0.950 . S
H2007 C2034 0.950 . S
H2008 C2037 0.950 . S
H2009 C2038 0.950 . S
H2010 C2040 0.950 . S
H2011 C2041 0.950 . S
C2012 H1994 0.951 . S
C2012 C2013 1.366 . S
C2012 C2014 1.388 . S
C2013 C2012 1.366 . S
C2013 C2017 1.385 . S
C2014 H1995 0.951 . S
C2014 C2012 1.388 . S
C2014 C2015 1.366 . S
C2015 C2014 1.366 . S
C2015 C2016 1.414 . S
C2015 C2018 1.499 . S
C2016 H1996 0.950 . S
C2016 C2015 1.414 . S
C2016 C2017 1.374 . S
C2017 H1997 0.950 . S
C2017 C2013 1.385 . S
C2017 C2016 1.374 . S
C2018 C2015 1.499 . S
C2018 C2019 1.373 . S
C2018 C2020 1.389 . S
C2019 H1998 0.950 . S
C2019 C2018 1.373 . S
C2019 C2035 1.377 . S
C2020 C2018 1.389 . S
C2020 C2021 1.524 . S
C2020 C2034 1.377 . S
C2021 C2020 1.524 . S
C2021 C2022 1.397 . S
C2021 C2026 1.363 . S
C2022 H1999 0.950 . S
C2022 C2021 1.397 . S
C2022 C2023 1.334 . S
C2023 H2000 0.950 . S
C2023 C2022 1.334 . S
C2023 C2024 1.287 . S
C2024 C2023 1.287 . S
C2024 C2025 1.524 . S
C2024 H2043 0.913 . S
C2025 H2001 0.950 . S
C2025 C2024 1.524 . S
C2025 C2026 1.415 . S
C2026 H2002 0.950 . S
C2026 C2021 1.363 . S
C2026 C2025 1.415 . S
C2027 H2003 0.951 . S
C2027 C2028 1.366 . S
C2027 C2029 1.388 . S
C2028 C2027 1.366 . S
C2028 C2032 1.385 . S
C2029 H2004 0.951 . S
C2029 C2027 1.388 . S
C2029 C2030 1.366 . S
C2030 C2029 1.366 . S
C2030 C2031 1.414 . S
C2030 C2033 1.499 . S
C2031 H2005 0.950 . S
C2031 C2030 1.414 . S
C2031 C2032 1.374 . S
C2032 H2006 0.950 . S
C2032 C2028 1.385 . S
C2032 C2031 1.374 . S
C2033 C2030 1.499 . S
C2033 C2034 1.373 . S
C2033 C2035 1.389 . S
C2034 H2007 0.950 . S
C2034 C2020 1.377 . S
C2034 C2033 1.373 . S
C2035 C2019 1.377 . S
C2035 C2033 1.389 . S
C2035 C2036 1.524 . S
C2036 C2035 1.524 . S
C2036 C2037 1.397 . S
C2036 C2041 1.363 . S
C2037 H2008 0.950 . S
C2037 C2036 1.397 . S
C2037 C2038 1.334 . S
C2038 H2009 0.950 . S
C2038 C2037 1.334 . S
C2038 C2039 1.287 . S
C2039 C2038 1.287 . S
C2039 C2040 1.524 . S
C2039 H2042 0.999 . S
C2040 H2010 0.950 . S
C2040 C2039 1.524 . S
C2040 C2041 1.415 . S
C2041 H2011 0.950 . S
C2041 C2036 1.363 . S
C2041 C2040 1.415 . S
H2042 C2039 0.999 . S
H2043 C2024 0.913 . S
H2044 C2062 0.951 . S
H2045 C2064 0.951 . S
H2046 C2066 0.950 . S
H2047 C2067 0.950 . S
H2048 C2069 0.950 1_545 S
H2049 C2072 0.950 . S
H2050 C2073 0.950 . S
H2051 C2075 0.950 . S
H2052 C2076 0.950 . S
H2053 C2077 0.951 . S
H2054 C2079 0.951 . S
H2055 C2081 0.956 1_565 S
H2056 C2082 0.950 . S
H2057 C2084 0.950 . S
H2058 C2087 0.950 . S
H2059 C2088 0.950 . S
H2060 C2090 0.950 . S
H2061 C2091 0.950 . S
C2062 H2044 0.951 . S
C2062 C2063 1.366 . S
C2062 C2064 1.388 . S
C2063 C2062 1.366 . S
C2063 C2067 1.385 . S
C2064 H2045 0.951 . S
C2064 C2062 1.388 . S
C2064 C2065 1.366 . S
C2065 C2064 1.366 . S
C2065 C2066 1.414 . S
C2065 C2068 1.499 . S
C2066 H2046 0.950 . S
C2066 C2065 1.414 . S
C2066 C2067 1.374 . S
C2067 H2047 0.950 . S
C2067 C2063 1.385 . S
C2067 C2066 1.374 . S
C2068 C2065 1.499 . S
C2068 C2069 1.373 . S
C2068 C2070 1.389 . S
C2069 H2048 0.950 1_565 S
C2069 C2068 1.373 . S
C2069 C2085 1.377 1_565 S
C2070 C2068 1.389 . S
C2070 C2071 1.524 . S
C2070 C2084 1.377 . S
C2071 C2070 1.524 . S
C2071 C2072 1.397 . S
C2071 C2076 1.363 . S
C2072 H2049 0.950 . S
C2072 C2071 1.397 . S
C2072 C2073 1.334 . S
C2073 H2050 0.950 . S
C2073 C2072 1.334 . S
C2073 C2074 1.287 . S
C2074 C2073 1.287 . S
C2074 C2075 1.524 . S
C2074 H2093 0.913 . S
C2075 H2051 0.950 . S
C2075 C2074 1.524 . S
C2075 C2076 1.415 . S
C2076 H2052 0.950 . S
C2076 C2071 1.363 . S
C2076 C2075 1.415 . S
C2077 H2053 0.951 . S
C2077 C2078 1.366 . S
C2077 C2079 1.388 . S
C2078 C2077 1.366 . S
C2078 C2082 1.385 . S
C2079 H2054 0.951 . S
C2079 C2077 1.388 . S
C2079 C2080 1.366 . S
C2080 C2079 1.366 . S
C2080 C2081 1.412 . S
C2080 C2083 1.499 1_545 S
C2081 H2055 0.956 1_545 S
C2081 C2080 1.412 . S
C2081 C2082 1.370 . S
C2082 H2056 0.950 . S
C2082 C2078 1.385 . S
C2082 C2081 1.370 . S
C2083 C2080 1.499 1_565 S
C2083 C2084 1.373 . S
C2083 C2085 1.389 1_565 S
C2084 H2057 0.950 . S
C2084 C2070 1.377 . S
C2084 C2083 1.373 . S
C2085 C2069 1.377 1_545 S
C2085 C2083 1.389 1_545 S
C2085 C2086 1.524 . S
C2086 C2085 1.524 . S
C2086 C2087 1.397 . S
C2086 C2091 1.363 . S
C2087 H2058 0.950 . S
C2087 C2086 1.397 . S
C2087 C2088 1.334 . S
C2088 H2059 0.950 . S
C2088 C2087 1.334 . S
C2088 C2089 1.287 . S
C2089 C2088 1.287 . S
C2089 C2090 1.524 . S
C2089 H2092 0.999 . S
C2090 H2060 0.950 . S
C2090 C2089 1.524 . S
C2090 C2091 1.415 . S
C2091 H2061 0.950 . S
C2091 C2086 1.363 . S
C2091 C2090 1.415 . S
H2092 C2089 0.999 . S
H2093 C2074 0.913 . S
H2094 C2112 0.951 . S
H2095 C2114 0.951 . S
H2096 C2116 0.950 . S
H2097 C2117 0.950 . S
H2098 C2119 0.950 . S
H2099 C2122 0.950 . S
H2100 C2123 0.976 . S
H2101 C2125 0.950 . S
H2102 C2126 0.950 . S
H2103 C2127 0.951 1_545 S
H2104 C2129 0.951 . S
H2105 C2131 0.950 . S
H2106 C2132 0.950 . S
H2107 C2134 0.950 . S
H2108 C2137 0.950 . S
H2109 C2138 0.950 . S
H2110 C2140 0.950 . S
H2111 C2141 0.950 . S
C2112 H2094 0.951 . S
C2112 C2113 1.366 . S
C2112 C2114 1.388 . S
C2113 C2112 1.366 . S
C2113 C2117 1.385 . S
C2114 H2095 0.951 . S
C2114 C2112 1.388 . S
C2114 C2115 1.366 . S
C2115 C2114 1.366 . S
C2115 C2116 1.414 . S
C2115 C2118 1.499 . S
C2116 H2096 0.950 . S
C2116 C2115 1.414 . S
C2116 C2117 1.374 . S
C2117 H2097 0.950 . S
C2117 C2113 1.385 . S
C2117 C2116 1.374 . S
C2118 C2115 1.499 . S
C2118 C2119 1.373 . S
C2118 C2120 1.389 . S
C2119 H2098 0.950 . S
C2119 C2118 1.373 . S
C2119 C2135 1.377 . S
C2120 C2118 1.389 . S
C2120 C2121 1.524 1_545 S
C2120 C2134 1.377 1_545 S
C2121 C2120 1.524 1_565 S
C2121 C2122 1.397 1_565 S
C2121 C2126 1.363 . S
C2122 H2099 0.950 . S
C2122 C2121 1.397 1_545 S
C2122 C2123 1.350 . S
C2123 H2100 0.976 . S
C2123 C2122 1.350 . S
C2123 C2124 1.246 1_545 S
C2124 C2123 1.246 1_565 S
C2124 C2125 1.524 . S
C2124 H2143 0.913 . S
C2125 H2101 0.950 . S
C2125 C2124 1.524 . S
C2125 C2126 1.415 . S
C2126 H2102 0.950 . S
C2126 C2121 1.363 . S
C2126 C2125 1.415 . S
C2127 H2103 0.951 1_565 S
C2127 C2128 1.366 . S
C2127 C2129 1.388 1_565 S
C2128 C2127 1.366 . S
C2128 C2132 1.385 . S
C2129 H2104 0.951 . S
C2129 C2127 1.388 1_545 S
C2129 C2130 1.366 1_545 S
C2130 C2129 1.366 1_565 S
C2130 C2131 1.414 . S
C2130 C2133 1.499 1_565 S
C2131 H2105 0.950 . S
C2131 C2130 1.414 . S
C2131 C2132 1.374 . S
C2132 H2106 0.950 . S
C2132 C2128 1.385 . S
C2132 C2131 1.374 . S
C2133 C2130 1.499 1_545 S
C2133 C2134 1.373 1_545 S
C2133 C2135 1.389 . S
C2134 H2107 0.950 . S
C2134 C2120 1.377 1_565 S
C2134 C2133 1.373 1_565 S
C2135 C2119 1.377 . S
C2135 C2133 1.389 . S
C2135 C2136 1.524 . S
C2136 C2135 1.524 . S
C2136 C2137 1.397 . S
C2136 C2141 1.363 . S
C2137 H2108 0.950 . S
C2137 C2136 1.397 . S
C2137 C2138 1.334 . S
C2138 H2109 0.950 . S
C2138 C2137 1.334 . S
C2138 C2139 1.287 . S
C2139 C2138 1.287 . S
C2139 C2140 1.524 . S
C2139 H2142 0.999 . S
C2140 H2110 0.950 . S
C2140 C2139 1.524 . S
C2140 C2141 1.415 . S
C2141 H2111 0.950 . S
C2141 C2136 1.363 . S
C2141 C2140 1.415 . S
H2142 C2139 0.999 . S
H2143 C2124 0.913 . S
H2144 C2162 0.951 . S
H2145 C2164 0.950 . S
H2146 C2166 0.950 . S
H2147 C2167 0.950 . S
H2148 C2169 0.950 . S
H2149 C2172 0.950 . S
H2150 C2173 0.950 . S
H2151 C2175 0.950 . S
H2152 C2176 0.950 . S
H2153 C2177 0.951 . S
H2154 C2179 0.951 . S
H2155 C2181 0.950 . S
H2156 C2182 0.951 . S
H2157 C2184 0.950 . S
H2158 C2187 0.950 . S
H2159 C2188 0.950 . S
H2160 C2190 0.950 . S
H2161 C2191 0.950 . S
C2162 H2144 0.951 . S
C2162 C2163 1.366 1_554 S
C2162 C2164 1.387 1_554 S
C2163 C2162 1.366 1_556 S
C2163 C2167 1.385 . S
C2164 H2145 0.950 . S
C2164 C2162 1.387 1_556 S
C2164 C2165 1.367 . S
C2165 C2164 1.367 . S
C2165 C2166 1.414 . S
C2165 C2168 1.499 . S
C2166 H2146 0.950 . S
C2166 C2165 1.414 . S
C2166 C2167 1.374 . S
C2167 H2147 0.950 . S
C2167 C2163 1.385 . S
C2167 C2166 1.374 . S
C2168 C2165 1.499 . S
C2168 C2169 1.373 1_556 S
C2168 C2170 1.389 . S
C2169 H2148 0.950 . S
C2169 C2168 1.373 1_554 S
C2169 C2185 1.377 . S
C2170 C2168 1.389 . S
C2170 C2171 1.524 . S
C2170 C2184 1.377 . S
C2171 C2170 1.524 . S
C2171 C2172 1.397 . S
C2171 C2176 1.363 . S
C2172 H2149 0.950 . S
C2172 C2171 1.397 . S
C2172 C2173 1.334 . S
C2173 H2150 0.950 . S
C2173 C2172 1.334 . S
C2173 C2174 1.287 . S
C2174 C2173 1.287 . S
C2174 C2175 1.524 . S
C2174 H2193 0.913 . S
C2175 H2151 0.950 . S
C2175 C2174 1.524 . S
C2175 C2176 1.415 . S
C2176 H2152 0.950 . S
C2176 C2171 1.363 . S
C2176 C2175 1.415 . S
C2177 H2153 0.951 . S
C2177 C2178 1.366 . S
C2177 C2179 1.388 . S
C2178 C2177 1.366 . S
C2178 C2182 1.383 1_556 S
C2179 H2154 0.951 . S
C2179 C2177 1.388 . S
C2179 C2180 1.365 1_556 S
C2180 C2179 1.365 1_554 S
C2180 C2181 1.414 . S
C2180 C2183 1.499 . S
C2181 H2155 0.950 . S
C2181 C2180 1.414 . S
C2181 C2182 1.374 . S
C2182 H2156 0.951 . S
C2182 C2178 1.383 1_554 S
C2182 C2181 1.374 . S
C2183 C2180 1.499 . S
C2183 C2184 1.373 1_554 S
C2183 C2185 1.389 . S
C2184 H2157 0.950 . S
C2184 C2170 1.377 . S
C2184 C2183 1.373 1_556 S
C2185 C2169 1.377 . S
C2185 C2183 1.389 . S
C2185 C2186 1.524 . S
C2186 C2185 1.524 . S
C2186 C2187 1.397 . S
C2186 C2191 1.363 . S
C2187 H2158 0.950 . S
C2187 C2186 1.397 . S
C2187 C2188 1.334 . S
C2188 H2159 0.950 . S
C2188 C2187 1.334 . S
C2188 C2189 1.287 . S
C2189 C2188 1.287 . S
C2189 C2190 1.524 . S
C2189 H2192 0.999 . S
C2190 H2160 0.950 . S
C2190 C2189 1.524 . S
C2190 C2191 1.415 . S
C2191 H2161 0.950 . S
C2191 C2186 1.363 . S
C2191 C2190 1.415 . S
H2192 C2189 0.999 . S
H2193 C2174 0.913 . S
H2194 C2212 0.951 . S
H2195 C2214 0.951 . S
H2196 C2216 0.950 . S
H2197 C2217 0.950 . S
H2198 C2219 0.950 . S
H2199 C2222 0.950 . S
H2200 C2223 0.950 . S
H2201 C2225 0.950 . S
H2202 C2226 0.955 . S
H2203 C2227 0.951 . S
H2204 C2229 0.951 . S
H2205 C2231 0.950 . S
H2206 C2232 0.950 . S
H2207 C2234 0.950 . S
H2208 C2237 0.950 . S
H2209 C2238 0.950 . S
H2210 C2240 0.950 . S
H2211 C2241 0.950 1_556 S
C2212 H2194 0.951 . S
C2212 C2213 1.358 1_554 S
C2212 C2214 1.388 . S
C2213 C2212 1.358 1_556 S
C2213 C2217 1.392 . S
C2214 H2195 0.951 . S
C2214 C2212 1.388 . S
C2214 C2215 1.366 1_554 S
C2215 C2214 1.366 1_556 S
C2215 C2216 1.414 . S
C2215 C2218 1.499 . S
C2216 H2196 0.950 . S
C2216 C2215 1.414 . S
C2216 C2217 1.374 . S
C2217 H2197 0.950 . S
C2217 C2213 1.392 . S
C2217 C2216 1.374 . S
C2218 C2215 1.499 . S
C2218 C2219 1.373 1_556 S
C2218 C2220 1.389 . S
C2219 H2198 0.950 . S
C2219 C2218 1.373 1_554 S
C2219 C2235 1.377 . S
C2220 C2218 1.389 . S
C2220 C2221 1.524 . S
C2220 C2234 1.377 . S
C2221 C2220 1.524 . S
C2221 C2222 1.397 . S
C2221 C2226 1.363 . S
C2222 H2199 0.950 . S
C2222 C2221 1.397 . S
C2222 C2223 1.334 . S
C2223 H2200 0.950 . S
C2223 C2222 1.334 . S
C2223 C2224 1.287 . S
C2224 C2223 1.287 . S
C2224 C2225 1.524 . S
C2224 H2243 0.913 . S
C2225 H2201 0.950 . S
C2225 C2224 1.524 . S
C2225 C2226 1.415 . S
C2226 H2202 0.955 . S
C2226 C2221 1.363 . S
C2226 C2225 1.415 . S
C2227 H2203 0.951 . S
C2227 C2228 1.375 . S
C2227 C2229 1.388 . S
C2228 C2227 1.375 . S
C2228 C2232 1.376 1_556 S
C2229 H2204 0.951 . S
C2229 C2227 1.388 . S
C2229 C2230 1.366 1_556 S
C2230 C2229 1.366 1_554 S
C2230 C2231 1.414 . S
C2230 C2233 1.499 . S
C2231 H2205 0.950 . S
C2231 C2230 1.414 . S
C2231 C2232 1.374 . S
C2232 H2206 0.950 . S
C2232 C2228 1.376 1_554 S
C2232 C2231 1.374 . S
C2233 C2230 1.499 . S
C2233 C2234 1.373 1_554 S
C2233 C2235 1.389 . S
C2234 H2207 0.950 . S
C2234 C2220 1.377 . S
C2234 C2233 1.373 1_556 S
C2235 C2219 1.377 . S
C2235 C2233 1.389 . S
C2235 C2236 1.524 . S
C2236 C2235 1.524 . S
C2236 C2237 1.397 . S
C2236 C2241 1.363 . S
C2237 H2208 0.950 . S
C2237 C2236 1.397 . S
C2237 C2238 1.334 . S
C2238 H2209 0.950 . S
C2238 C2237 1.334 . S
C2238 C2239 1.287 . S
C2239 C2238 1.287 . S
C2239 C2240 1.524 . S
C2239 H2242 0.999 . S
C2240 H2210 0.950 . S
C2240 C2239 1.524 . S
C2240 C2241 1.415 . S
C2241 H2211 0.950 1_554 S
C2241 C2236 1.363 . S
C2241 C2240 1.415 . S
H2242 C2239 0.999 . S
H2243 C2224 0.913 . S
H2244 C2262 0.951 . S
H2245 C2264 0.951 . S
H2246 C2266 0.950 . S
H2247 C2267 0.950 . S
H2248 C2269 0.950 . S
H2249 C2272 0.950 . S
H2250 C2273 0.950 . S
H2251 C2275 0.950 . S
H2252 C2276 0.950 . S
H2253 C2277 0.951 . S
H2254 C2279 0.951 . S
H2255 C2281 0.950 . S
H2256 C2282 0.950 . S
H2257 C2284 0.950 . S
H2258 C2287 0.950 . S
H2259 C2288 0.950 . S
H2260 C2290 0.950 . S
H2261 C2291 0.950 . S
C2262 H2244 0.951 . S
C2262 C2263 1.366 . S
C2262 C2264 1.388 . S
C2263 C2262 1.366 . S
C2263 C2267 1.385 . S
C2264 H2245 0.951 . S
C2264 C2262 1.388 . S
C2264 C2265 1.366 . S
C2265 C2264 1.366 . S
C2265 C2266 1.414 . S
C2265 C2268 1.499 . S
C2266 H2246 0.950 . S
C2266 C2265 1.414 . S
C2266 C2267 1.374 . S
C2267 H2247 0.950 . S
C2267 C2263 1.385 . S
C2267 C2266 1.374 . S
C2268 C2265 1.499 . S
C2268 C2269 1.373 . S
C2268 C2270 1.389 . S
C2269 H2248 0.950 . S
C2269 C2268 1.373 . S
C2269 C2285 1.377 1_455 S
C2270 C2268 1.389 . S
C2270 C2271 1.524 . S
C2270 C2284 1.377 1_455 S
C2271 C2270 1.524 . S
C2271 C2272 1.397 . S
C2271 C2276 1.363 . S
C2272 H2249 0.950 . S
C2272 C2271 1.397 . S
C2272 C2273 1.334 . S
C2273 H2250 0.950 . S
C2273 C2272 1.334 . S
C2273 C2274 1.287 . S
C2274 C2273 1.287 . S
C2274 C2275 1.524 . S
C2274 H2293 0.913 . S
C2275 H2251 0.950 . S
C2275 C2274 1.524 . S
C2275 C2276 1.415 . S
C2276 H2252 0.950 . S
C2276 C2271 1.363 . S
C2276 C2275 1.415 . S
C2277 H2253 0.951 . S
C2277 C2278 1.366 . S
C2277 C2279 1.388 . S
C2278 C2277 1.366 . S
C2278 C2282 1.385 . S
C2279 H2254 0.951 . S
C2279 C2277 1.388 . S
C2279 C2280 1.366 . S
C2280 C2279 1.366 . S
C2280 C2281 1.414 . S
C2280 C2283 1.499 . S
C2281 H2255 0.950 . S
C2281 C2280 1.414 . S
C2281 C2282 1.374 . S
C2282 H2256 0.950 . S
C2282 C2278 1.385 . S
C2282 C2281 1.374 . S
C2283 C2280 1.499 . S
C2283 C2284 1.373 . S
C2283 C2285 1.389 . S
C2284 H2257 0.950 . S
C2284 C2270 1.377 1_655 S
C2284 C2283 1.373 . S
C2285 C2269 1.377 1_655 S
C2285 C2283 1.389 . S
C2285 C2286 1.524 . S
C2286 C2285 1.524 . S
C2286 C2287 1.397 . S
C2286 C2291 1.363 . S
C2287 H2258 0.950 . S
C2287 C2286 1.397 . S
C2287 C2288 1.334 . S
C2288 H2259 0.950 . S
C2288 C2287 1.334 . S
C2288 C2289 1.287 . S
C2289 C2288 1.287 . S
C2289 C2290 1.524 . S
C2289 H2292 0.999 . S
C2290 H2260 0.950 . S
C2290 C2289 1.524 . S
C2290 C2291 1.415 . S
C2291 H2261 0.950 . S
C2291 C2286 1.363 . S
C2291 C2290 1.415 . S
H2292 C2289 0.999 . S
H2293 C2274 0.913 . S
H2294 C2312 0.951 . S
H2295 C2314 0.951 . S
H2296 C2316 0.950 . S
H2297 C2317 0.950 . S
H2298 C2319 0.950 . S
H2299 C2322 0.950 . S
H2300 C2323 0.950 . S
H2301 C2325 0.950 . S
H2302 C2326 0.950 . S
H2303 C2327 0.951 . S
H2304 C2329 0.951 . S
H2305 C2331 0.950 . S
H2306 C2332 0.950 . S
H2307 C2334 0.950 . S
H2308 C2337 0.950 . S
H2309 C2338 0.950 . S
H2310 C2340 0.950 . S
H2311 C2341 0.950 . S
C2312 H2294 0.951 . S
C2312 C2313 1.366 . S
C2312 C2314 1.388 . S
C2313 C2312 1.366 . S
C2313 C2317 1.385 . S
C2314 H2295 0.951 . S
C2314 C2312 1.388 . S
C2314 C2315 1.366 . S
C2315 C2314 1.366 . S
C2315 C2316 1.414 . S
C2315 C2318 1.499 . S
C2316 H2296 0.950 . S
C2316 C2315 1.414 . S
C2316 C2317 1.374 . S
C2317 H2297 0.950 . S
C2317 C2313 1.385 . S
C2317 C2316 1.374 . S
C2318 C2315 1.499 . S
C2318 C2319 1.373 . S
C2318 C2320 1.389 . S
C2319 H2298 0.950 . S
C2319 C2318 1.373 . S
C2319 C2335 1.377 . S
C2320 C2318 1.389 . S
C2320 C2321 1.524 . S
C2320 C2334 1.377 . S
C2321 C2320 1.524 . S
C2321 C2322 1.397 . S
C2321 C2326 1.363 . S
C2322 H2299 0.950 . S
C2322 C2321 1.397 . S
C2322 C2323 1.334 . S
C2323 H2300 0.950 . S
C2323 C2322 1.334 . S
C2323 C2324 1.287 . S
C2324 C2323 1.287 . S
C2324 C2325 1.524 . S
C2324 H2343 0.913 . S
C2325 H2301 0.950 . S
C2325 C2324 1.524 . S
C2325 C2326 1.415 . S
C2326 H2302 0.950 . S
C2326 C2321 1.363 . S
C2326 C2325 1.415 . S
C2327 H2303 0.951 . S
C2327 C2328 1.366 . S
C2327 C2329 1.388 . S
C2328 C2327 1.366 . S
C2328 C2332 1.385 . S
C2329 H2304 0.951 . S
C2329 C2327 1.388 . S
C2329 C2330 1.366 . S
C2330 C2329 1.366 . S
C2330 C2331 1.414 . S
C2330 C2333 1.499 . S
C2331 H2305 0.950 . S
C2331 C2330 1.414 . S
C2331 C2332 1.374 . S
C2332 H2306 0.950 . S
C2332 C2328 1.385 . S
C2332 C2331 1.374 . S
C2333 C2330 1.499 . S
C2333 C2334 1.373 . S
C2333 C2335 1.389 . S
C2334 H2307 0.950 . S
C2334 C2320 1.377 . S
C2334 C2333 1.373 . S
C2335 C2319 1.377 . S
C2335 C2333 1.389 . S
C2335 C2336 1.524 . S
C2336 C2335 1.524 . S
C2336 C2337 1.397 . S
C2336 C2341 1.363 . S
C2337 H2308 0.950 . S
C2337 C2336 1.397 . S
C2337 C2338 1.334 . S
C2338 H2309 0.950 . S
C2338 C2337 1.334 . S
C2338 C2339 1.287 . S
C2339 C2338 1.287 . S
C2339 C2340 1.524 . S
C2339 H2342 0.999 . S
C2340 H2310 0.950 . S
C2340 C2339 1.524 . S
C2340 C2341 1.415 . S
C2341 H2311 0.950 . S
C2341 C2336 1.363 . S
C2341 C2340 1.415 . S
H2342 C2339 0.999 . S
H2343 C2324 0.913 . S
H2344 C2362 0.951 . S
H2345 C2364 0.951 . S
H2346 C2366 0.950 . S
H2347 C2367 0.950 . S
H2348 C2369 0.950 . S
H2349 C2372 0.950 . S
H2350 C2373 0.950 . S
H2351 C2375 0.950 . S
H2352 C2376 0.950 . S
H2353 C2377 0.951 . S
H2354 C2379 0.951 . S
H2355 C2381 0.950 . S
H2356 C2382 0.950 . S
H2357 C2384 0.950 . S
H2358 C2387 0.950 . S
H2359 C2388 0.950 . S
H2360 C2390 0.950 . S
H2361 C2391 0.950 . S
C2362 H2344 0.951 . S
C2362 C2363 1.366 . S
C2362 C2364 1.388 . S
C2363 C2362 1.366 . S
C2363 C2367 1.385 . S
C2364 H2345 0.951 . S
C2364 C2362 1.388 . S
C2364 C2365 1.366 . S
C2365 C2364 1.366 . S
C2365 C2366 1.414 . S
C2365 C2368 1.499 . S
C2366 H2346 0.950 . S
C2366 C2365 1.414 . S
C2366 C2367 1.374 . S
C2367 H2347 0.950 . S
C2367 C2363 1.385 . S
C2367 C2366 1.374 . S
C2368 C2365 1.499 . S
C2368 C2369 1.373 . S
C2368 C2370 1.389 . S
C2369 H2348 0.950 . S
C2369 C2368 1.373 . S
C2369 C2385 1.377 . S
C2370 C2368 1.389 . S
C2370 C2371 1.524 . S
C2370 C2384 1.377 . S
C2371 C2370 1.524 . S
C2371 C2372 1.397 . S
C2371 C2376 1.363 . S
C2372 H2349 0.950 . S
C2372 C2371 1.397 . S
C2372 C2373 1.334 . S
C2373 H2350 0.950 . S
C2373 C2372 1.334 . S
C2373 C2374 1.287 . S
C2374 C2373 1.287 . S
C2374 C2375 1.524 . S
C2374 H2393 0.913 . S
C2375 H2351 0.950 . S
C2375 C2374 1.524 . S
C2375 C2376 1.415 . S
C2376 H2352 0.950 . S
C2376 C2371 1.363 . S
C2376 C2375 1.415 . S
C2377 H2353 0.951 . S
C2377 C2378 1.366 . S
C2377 C2379 1.388 . S
C2378 C2377 1.366 . S
C2378 C2382 1.385 . S
C2379 H2354 0.951 . S
C2379 C2377 1.388 . S
C2379 C2380 1.366 . S
C2380 C2379 1.366 . S
C2380 C2381 1.414 . S
C2380 C2383 1.499 . S
C2381 H2355 0.950 . S
C2381 C2380 1.414 . S
C2381 C2382 1.374 . S
C2382 H2356 0.950 . S
C2382 C2378 1.385 . S
C2382 C2381 1.374 . S
C2383 C2380 1.499 . S
C2383 C2384 1.373 . S
C2383 C2385 1.389 . S
C2384 H2357 0.950 . S
C2384 C2370 1.377 . S
C2384 C2383 1.373 . S
C2385 C2369 1.377 . S
C2385 C2383 1.389 . S
C2385 C2386 1.524 . S
C2386 C2385 1.524 . S
C2386 C2387 1.397 . S
C2386 C2391 1.363 . S
C2387 H2358 0.950 . S
C2387 C2386 1.397 . S
C2387 C2388 1.334 . S
C2388 H2359 0.950 . S
C2388 C2387 1.334 . S
C2388 C2389 1.287 . S
C2389 C2388 1.287 . S
C2389 C2390 1.524 . S
C2389 H2392 0.999 . S
C2390 H2360 0.950 . S
C2390 C2389 1.524 . S
C2390 C2391 1.415 . S
C2391 H2361 0.950 . S
C2391 C2386 1.363 . S
C2391 C2390 1.415 . S
H2392 C2389 0.999 . S
H2393 C2374 0.913 . S
H2394 C2412 0.951 . S
H2395 C2414 0.951 . S
H2396 C2416 1.038 . S
H2397 C2417 0.950 . S
H2398 C2419 0.950 . S
H2399 C2422 0.950 . S
H2400 C2423 0.950 . S
H2401 C2425 0.950 . S
H2402 C2426 0.950 . S
H2403 C2427 0.951 . S
H2404 C2429 0.951 . S
H2405 C2431 1.038 . S
H2406 C2432 0.950 . S
H2407 C2434 0.950 . S
H2408 C2437 0.950 . S
H2409 C2438 0.950 . S
H2410 C2440 0.950 . S
H2411 C2441 0.950 . S
C2412 H2394 0.951 . S
C2412 C2413 1.366 . S
C2412 C2414 1.388 . S
C2413 C2412 1.366 . S
C2413 C2417 1.385 . S
C2414 H2395 0.951 . S
C2414 C2412 1.388 . S
C2414 C2415 1.366 . S
C2415 C2414 1.366 . S
C2415 C2416 1.414 . S
C2415 C2418 1.499 . S
C2416 H2396 1.038 . S
C2416 C2415 1.414 . S
C2416 C2417 1.374 . S
C2417 H2397 0.950 . S
C2417 C2413 1.385 . S
C2417 C2416 1.374 . S
C2418 C2415 1.499 . S
C2418 C2419 1.373 1_545 S
C2418 C2420 1.398 . S
C2419 H2398 0.950 . S
C2419 C2418 1.373 1_565 S
C2419 C2435 1.367 1_455 S
C2420 C2418 1.398 . S
C2420 C2421 1.524 1_455 S
C2420 C2434 1.367 1_455 S
C2421 C2420 1.524 1_655 S
C2421 C2422 1.378 1_655 S
C2421 C2426 1.384 . S
C2422 H2399 0.950 . S
C2422 C2421 1.378 1_455 S
C2422 C2423 1.334 . S
C2423 H2400 0.950 . S
C2423 C2422 1.334 . S
C2423 C2424 1.280 1_455 S
C2424 C2423 1.280 1_655 S
C2424 C2425 1.530 . S
C2424 H2443 0.913 1_655 S
C2425 H2401 0.950 . S
C2425 C2424 1.530 . S
C2425 C2426 1.415 . S
C2426 H2402 0.950 . S
C2426 C2421 1.384 . S
C2426 C2425 1.415 . S
C2427 H2403 0.951 . S
C2427 C2428 1.366 . S
C2427 C2429 1.388 . S
C2428 C2427 1.366 . S
C2428 C2432 1.385 . S
C2429 H2404 0.951 . S
C2429 C2427 1.388 . S
C2429 C2430 1.366 . S
C2430 C2429 1.366 . S
C2430 C2431 1.414 . S
C2430 C2433 1.499 . S
C2431 H2405 1.038 . S
C2431 C2430 1.414 . S
C2431 C2432 1.374 . S
C2432 H2406 0.950 . S
C2432 C2428 1.385 . S
C2432 C2431 1.374 . S
C2433 C2430 1.499 . S
C2433 C2434 1.373 1_565 S
C2433 C2435 1.398 . S
C2434 H2407 0.950 . S
C2434 C2420 1.367 1_655 S
C2434 C2433 1.373 1_545 S
C2435 C2419 1.367 1_655 S
C2435 C2433 1.398 . S
C2435 C2436 1.524 1_655 S
C2436 C2435 1.524 1_455 S
C2436 C2437 1.378 1_455 S
C2436 C2441 1.384 . S
C2437 H2408 0.950 . S
C2437 C2436 1.378 1_655 S
C2437 C2438 1.334 . S
C2438 H2409 0.950 . S
C2438 C2437 1.334 . S
C2438 C2439 1.280 1_655 S
C2439 C2438 1.280 1_455 S
C2439 C2440 1.530 . S
C2439 H2442 0.999 . S
C2440 H2410 0.950 . S
C2440 C2439 1.530 . S
C2440 C2441 1.415 . S
C2441 H2411 0.950 . S
C2441 C2436 1.384 . S
C2441 C2440 1.415 . S
H2442 C2439 0.999 . S
H2443 C2424 0.913 1_455 S
H2444 C2462 0.951 . S
H2445 C2464 0.951 . S
H2446 C2466 0.950 . S
H2447 C2467 0.950 . S
H2448 C2469 0.950 . S
H2449 C2472 0.950 . S
H2450 C2473 0.950 . S
H2451 C2475 0.950 . S
H2452 C2476 0.950 . S
H2453 C2477 0.951 . S
H2454 C2479 0.951 . S
H2455 C2481 0.950 . S
H2456 C2482 0.950 . S
H2457 C2484 0.950 . S
H2458 C2487 0.950 . S
H2459 C2488 0.950 . S
H2460 C2490 0.950 . S
H2461 C2491 0.950 . S
C2462 H2444 0.951 . S
C2462 C2463 1.366 . S
C2462 C2464 1.388 . S
C2463 C2462 1.366 . S
C2463 C2467 1.385 . S
C2464 H2445 0.951 . S
C2464 C2462 1.388 . S
C2464 C2465 1.366 . S
C2465 C2464 1.366 . S
C2465 C2466 1.414 . S
C2465 C2468 1.499 . S
C2466 H2446 0.950 . S
C2466 C2465 1.414 . S
C2466 C2467 1.374 . S
C2467 H2447 0.950 . S
C2467 C2463 1.385 . S
C2467 C2466 1.374 . S
C2468 C2465 1.499 . S
C2468 C2469 1.373 . S
C2468 C2470 1.389 . S
C2469 H2448 0.950 . S
C2469 C2468 1.373 . S
C2469 C2485 1.377 . S
C2470 C2468 1.389 . S
C2470 C2471 1.524 . S
C2470 C2484 1.377 . S
C2471 C2470 1.524 . S
C2471 C2472 1.397 . S
C2471 C2476 1.363 . S
C2472 H2449 0.950 . S
C2472 C2471 1.397 . S
C2472 C2473 1.334 . S
C2473 H2450 0.950 . S
C2473 C2472 1.334 . S
C2473 C2474 1.287 . S
C2474 C2473 1.287 . S
C2474 C2475 1.524 . S
C2474 H2493 0.913 . S
C2475 H2451 0.950 . S
C2475 C2474 1.524 . S
C2475 C2476 1.415 . S
C2476 H2452 0.950 . S
C2476 C2471 1.363 . S
C2476 C2475 1.415 . S
C2477 H2453 0.951 . S
C2477 C2478 1.366 . S
C2477 C2479 1.388 . S
C2478 C2477 1.366 . S
C2478 C2482 1.385 . S
C2479 H2454 0.951 . S
C2479 C2477 1.388 . S
C2479 C2480 1.366 . S
C2480 C2479 1.366 . S
C2480 C2481 1.414 . S
C2480 C2483 1.499 . S
C2481 H2455 0.950 . S
C2481 C2480 1.414 . S
C2481 C2482 1.374 . S
C2482 H2456 0.950 . S
C2482 C2478 1.385 . S
C2482 C2481 1.374 . S
C2483 C2480 1.499 . S
C2483 C2484 1.373 . S
C2483 C2485 1.389 . S
C2484 H2457 0.950 . S
C2484 C2470 1.377 . S
C2484 C2483 1.373 . S
C2485 C2469 1.377 . S
C2485 C2483 1.389 . S
C2485 C2486 1.524 . S
C2486 C2485 1.524 . S
C2486 C2487 1.397 . S
C2486 C2491 1.363 . S
C2487 H2458 0.950 . S
C2487 C2486 1.397 . S
C2487 C2488 1.334 . S
C2488 H2459 0.950 . S
C2488 C2487 1.334 . S
C2488 C2489 1.287 . S
C2489 C2488 1.287 . S
C2489 C2490 1.524 . S
C2489 H2492 0.999 . S
C2490 H2460 0.950 . S
C2490 C2489 1.524 . S
C2490 C2491 1.415 . S
C2491 H2461 0.950 . S
C2491 C2486 1.363 . S
C2491 C2490 1.415 . S
H2492 C2489 0.999 . S
H2493 C2474 0.913 . S
H2494 C2512 0.951 . S
H2495 C2514 0.951 . S
H2496 C2516 0.950 . S
H2497 C2517 0.950 . S
H2498 C2519 0.950 . S
H2499 C2522 0.950 . S
H2500 C2523 0.950 . S
H2501 C2525 0.950 . S
H2502 C2526 0.950 . S
H2503 C2527 0.951 . S
H2504 C2529 0.951 . S
H2505 C2531 0.950 . S
H2506 C2532 0.950 . S
H2507 C2534 0.950 . S
H2508 C2537 0.950 . S
H2509 C2538 0.950 . S
H2510 C2540 0.950 . S
H2511 C2541 0.950 . S
C2512 H2494 0.951 . S
C2512 C2513 1.366 . S
C2512 C2514 1.388 . S
C2513 C2512 1.366 . S
C2513 C2517 1.385 . S
C2514 H2495 0.951 . S
C2514 C2512 1.388 . S
C2514 C2515 1.366 . S
C2515 C2514 1.366 . S
C2515 C2516 1.414 . S
C2515 C2518 1.499 . S
C2516 H2496 0.950 . S
C2516 C2515 1.414 . S
C2516 C2517 1.374 . S
C2517 H2497 0.950 . S
C2517 C2513 1.385 . S
C2517 C2516 1.374 . S
C2518 C2515 1.499 . S
C2518 C2519 1.373 1_565 S
C2518 C2520 1.389 . S
C2519 H2498 0.950 . S
C2519 C2518 1.373 1_545 S
C2519 C2535 1.377 . S
C2520 C2518 1.389 . S
C2520 C2521 1.524 . S
C2520 C2534 1.377 . S
C2521 C2520 1.524 . S
C2521 C2522 1.397 . S
C2521 C2526 1.363 . S
C2522 H2499 0.950 . S
C2522 C2521 1.397 . S
C2522 C2523 1.334 . S
C2523 H2500 0.950 . S
C2523 C2522 1.334 . S
C2523 C2524 1.287 . S
C2524 C2523 1.287 . S
C2524 C2525 1.524 . S
C2524 H2543 0.913 . S
C2525 H2501 0.950 . S
C2525 C2524 1.524 . S
C2525 C2526 1.415 . S
C2526 H2502 0.950 . S
C2526 C2521 1.363 . S
C2526 C2525 1.415 . S
C2527 H2503 0.951 . S
C2527 C2528 1.366 . S
C2527 C2529 1.388 . S
C2528 C2527 1.366 . S
C2528 C2532 1.385 . S
C2529 H2504 0.951 . S
C2529 C2527 1.388 . S
C2529 C2530 1.366 . S
C2530 C2529 1.366 . S
C2530 C2531 1.414 . S
C2530 C2533 1.499 . S
C2531 H2505 0.950 . S
C2531 C2530 1.414 . S
C2531 C2532 1.374 . S
C2532 H2506 0.950 . S
C2532 C2528 1.385 . S
C2532 C2531 1.374 . S
C2533 C2530 1.499 . S
C2533 C2534 1.373 1_545 S
C2533 C2535 1.389 . S
C2534 H2507 0.950 . S
C2534 C2520 1.377 . S
C2534 C2533 1.373 1_565 S
C2535 C2519 1.377 . S
C2535 C2533 1.389 . S
C2535 C2536 1.524 . S
C2536 C2535 1.524 . S
C2536 C2537 1.397 . S
C2536 C2541 1.363 . S
C2537 H2508 0.950 . S
C2537 C2536 1.397 . S
C2537 C2538 1.334 . S
C2538 H2509 0.950 . S
C2538 C2537 1.334 . S
C2538 C2539 1.287 . S
C2539 C2538 1.287 . S
C2539 C2540 1.524 . S
C2539 H2542 0.999 . S
C2540 H2510 0.950 . S
C2540 C2539 1.524 . S
C2540 C2541 1.415 . S
C2541 H2511 0.950 . S
C2541 C2536 1.363 . S
C2541 C2540 1.415 . S
H2542 C2539 0.999 . S
H2543 C2524 0.913 . S
C563 C5 1.404 . S
C578 C394 1.442 . S
C613 C39 1.403 . S
C628 C360 1.442 . S
C663 C54 1.440 . S
C678 C73 1.402 . S
C713 C20 1.440 . S
C728 C107 1.402 . S
C763 C141 1.404 . S
C778 C530 1.440 . S
C813 C175 1.404 . S
C828 C496 1.440 . S
C863 C190 1.440 . S
C878 C209 1.404 . S
C913 C243 1.404 . S
C928 C156 1.440 . S
C963 C122 1.440 . S
C978 C277 1.403 . S
C1013 C88 1.440 . S
C1028 C311 1.403 . S
C1063 C326 1.440 . S
C1078 C345 1.403 . S
C1113 C292 1.440 . S
C1128 C379 1.404 . S
C1163 C413 1.404 . S
C1178 C258 1.442 . S
C1213 C447 1.404 . S
C1228 C224 1.442 . S
C1263 C481 1.404 . S
C1278 C462 1.439 . S
C1313 C428 1.440 . S
C1328 C515 1.401 . S
C1363 C203 1.533 . S
C1378 C9 1.498 . S
C1413 C169 1.533 . S
C1428 C43 1.498 . S
C1463 C77 1.501 . S
C1478 C407 1.533 . S
C1513 C373 1.533 . S
C1528 C111 1.501 . S
C1563 C67 1.533 . S
C1578 C145 1.505 . S
C1613 C33 1.533 . S
C1628 C179 1.504 . S
C1663 C213 1.501 . S
C1678 C543 1.533 . S
C1713 C247 1.501 . S
C1728 C509 1.533 . S
C1763 C281 1.501 . S
C1778 C475 1.536 . S
C1813 C441 1.533 . S
C1828 C315 1.504 . S
C1863 C135 1.533 . S
C1878 C349 1.501 . S
C1913 C101 1.533 . S
C1928 C383 1.501 . S
C1963 C339 1.533 . S
C1978 C417 1.498 . S
C2013 C305 1.533 . S
C2028 C451 1.498 . S
C2063 C271 1.533 . S
C2078 C485 1.501 . S
C2113 C237 1.533 . S
C2128 C519 1.502 . S
C2163 C444 1.675 . S
C2178 C2 1.675 . S
C2213 C36 1.675 . S
C2228 C410 1.675 . S
C2263 C70 1.674 . S
C2278 C104 1.674 . S
C2313 C308 1.674 . S
C2328 C138 1.674 . S
C2363 C172 1.674 . S
C2378 C274 1.674 . S
C2413 C206 1.674 . S
C2428 C240 1.674 . S
C2463 C376 1.674 . S
C2478 C342 1.674 . S
C2513 C512 1.674 . S
C2528 C478 1.674 . S
