# Generated by pormake.
# Topology umx, (4)-cn, num edge types: 1
# Building blocks:
#     Node 0, Type 0, BuildingBlock: QUQFOY_clean_sbu_1, # of connection points: 4
#     Node 1, Type 0, BuildingBlock: QUQFOY_clean_sbu_1, # of connection points: 4
#     Node 2, Type 0, BuildingBlock: QUQFOY_clean_sbu_1, # of connection points: 4
#     Node 3, Type 0, BuildingBlock: QUQFOY_clean_sbu_1, # of connection points: 4
#     Node 4, Type 0, BuildingBlock: QUQFOY_clean_sbu_1, # of connection points: 4
#     Node 5, Type 0, BuildingBlock: QUQFOY_clean_sbu_1, # of connection points: 4
#     Node 6, Type 0, BuildingBlock: QUQFOY_clean_sbu_1, # of connection points: 4
#     Node 7, Type 0, BuildingBlock: QUQFOY_clean_sbu_1, # of connection points: 4
#     Edge 8, Type (0, 0), BuildingBlock: EZIPEK_clean_linker_0, # of connection points: 2
#     Edge 9, Type (0, 0), BuildingBlock: EZIPEK_clean_linker_0, # of connection points: 2
#     Edge 10, Type (0, 0), BuildingBlock: EZIPEK_clean_linker_0, # of connection points: 2
#     Edge 11, Type (0, 0), BuildingBlock: EZIPEK_clean_linker_0, # of connection points: 2
#     Edge 12, Type (0, 0), BuildingBlock: EZIPEK_clean_linker_0, # of connection points: 2
#     Edge 13, Type (0, 0), BuildingBlock: EZIPEK_clean_linker_0, # of connection points: 2
#     Edge 14, Type (0, 0), BuildingBlock: EZIPEK_clean_linker_0, # of connection points: 2
#     Edge 15, Type (0, 0), BuildingBlock: EZIPEK_clean_linker_0, # of connection points: 2
#     Edge 16, Type (0, 0), BuildingBlock: EZIPEK_clean_linker_0, # of connection points: 2
#     Edge 17, Type (0, 0), BuildingBlock: EZIPEK_clean_linker_0, # of connection points: 2
#     Edge 18, Type (0, 0), BuildingBlock: EZIPEK_clean_linker_0, # of connection points: 2
#     Edge 19, Type (0, 0), BuildingBlock: EZIPEK_clean_linker_0, # of connection points: 2
#     Edge 20, Type (0, 0), BuildingBlock: EZIPEK_clean_linker_0, # of connection points: 2
#     Edge 21, Type (0, 0), BuildingBlock: EZIPEK_clean_linker_0, # of connection points: 2
#     Edge 22, Type (0, 0), BuildingBlock: EZIPEK_clean_linker_0, # of connection points: 2
#     Edge 23, Type (0, 0), BuildingBlock: EZIPEK_clean_linker_0, # of connection points: 2
# Relax obj value: 0.083
# Max RMSD: 0.141
# Mean RMSD: 0.141
data_MOF--net-umx--node1-QUQFOY_clean_sbu_1--edge1-EZIPEK_clean_linker_0
_symmetry_space_group_name_H-M    P1
_symmetry_Int_Tables_number       1
_symmetry_cell_setting            triclinic
loop_
_symmetry_equiv_pos_as_xyz
'x, y, z'
_cell_length_a     29.781732
_cell_length_b     29.783256
_cell_length_c     21.196798
_cell_angle_alpha  90.10865
_cell_angle_beta   89.957911
_cell_angle_gamma 89.956683
loop_
_atom_site_label
_atom_site_type_symbol
_atom_site_fract_x
_atom_site_fract_y
_atom_site_fract_z
_atom_type_partial_charge
O0 O 0.19791 0.44675 0.18236 0.0
Cd1 Cd 0.17734 0.42188 0.09685 0.0
Cd2 Cd 0.20012 0.50612 0.06457 0.0
O3 O 0.22903 0.51075 0.15356 0.0
O4 O 0.18623 0.35543 0.1071 0.0
O5 O 0.22558 0.39757 0.04122 0.0
C6 C 0.21981 0.35943 0.0689 0.0
C7 C 0.23014 0.51766 0.96487 0.0
C8 C 0.21917 0.48236 0.19628 0.0
C9 C 0.10224 0.48283 0.06102 0.0
O10 O 0.13166 0.5136 0.06378 0.0
O11 O 0.1133 0.44161 0.06694 0.0
O12 O 0.22283 0.55118 1.00232 0.0
O13 O 0.22529 0.47755 0.98672 0.0
O14 O 0.57624 0.20835 0.66431 0.0
Cd15 Cd 0.61201 0.18621 0.5876 0.0
Cd16 Cd 0.53562 0.21016 0.53256 0.0
O17 O 0.5227 0.24573 0.61492 0.0
O18 O 0.6771 0.19207 0.61046 0.0
O19 O 0.64347 0.2333 0.53733 0.0
C20 C 0.67869 0.22495 0.57085 0.0
C21 C 0.53434 0.23502 0.42875 0.0
C22 C 0.54257 0.23452 0.66571 0.0
C23 C 0.55489 0.11141 0.54579 0.0
O24 O 0.52535 0.14185 0.53939 0.0
O25 O 0.59549 0.12164 0.55806 0.0
O26 O 0.49742 0.22903 0.45957 0.0
O27 O 0.57187 0.23138 0.45884 0.0
O28 O 0.82177 0.56899 0.1538 0.0
Cd29 Cd 0.84347 0.60353 0.07604 0.0
Cd30 Cd 0.82039 0.52546 0.02463 0.0
O31 O 0.78601 0.5128 0.10781 0.0
O32 O 0.84051 0.66877 0.09995 0.0
O33 O 0.79684 0.63745 0.02771 0.0
C34 C 0.80706 0.67204 0.06152 0.0
C35 C 0.79529 0.52793 0.9213 0.0
C36 C 0.79692 0.53445 0.15736 0.0
C37 C 0.91868 0.54515 0.03727 0.0
O38 O 0.88862 0.51528 0.03114 0.0
O39 O 0.90795 0.58595 0.04767 0.0
O40 O 0.80111 0.48986 0.9493 0.0
O41 O 0.79878 0.56429 0.95425 0.0
O42 O 0.45297 0.83729 0.66967 0.0
Cd43 Cd 0.42569 0.85625 0.58539 0.0
Cd44 Cd 0.50674 0.83041 0.54859 0.0
O45 O 0.5106 0.79783 0.63478 0.0
O46 O 0.35944 0.84747 0.59736 0.0
O47 O 0.40129 0.80709 0.53184 0.0
C48 C 0.3633 0.81337 0.55992 0.0
C49 C 0.51743 0.80209 0.44779 0.0
C50 C 0.48593 0.81128 0.68005 0.0
C51 C 0.48755 0.92916 0.54968 0.0
O52 O 0.51744 0.89872 0.55208 0.0
O53 O 0.44597 0.91928 0.55416 0.0
O54 O 0.55075 0.80521 0.48656 0.0
O55 O 0.47756 0.81021 0.46872 0.0
O56 O 0.20843 0.57103 0.45751 0.0
Cd57 Cd 0.18644 0.6083 0.53267 0.0
Cd58 Cd 0.2073 0.53054 0.58889 0.0
O59 O 0.24156 0.5146 0.50648 0.0
O60 O 0.19681 0.67228 0.50679 0.0
O61 O 0.23228 0.63892 0.58577 0.0
C62 C 0.22786 0.67332 0.54929 0.0
C63 C 0.2325 0.53041 0.69259 0.0
C64 C 0.2321 0.5356 0.45589 0.0
C65 C 0.10922 0.55403 0.57296 0.0
O66 O 0.13851 0.52373 0.58224 0.0
O67 O 0.12095 0.59403 0.55934 0.0
O68 O 0.22415 0.49314 0.66367 0.0
O69 O 0.23126 0.5672 0.66054 0.0
O70 O 0.45012 0.20674 0.93754 0.0
Cd71 Cd 0.42388 0.18367 0.02084 0.0
Cd72 Cd 0.5084 0.20366 0.05612 0.0
O73 O 0.51617 0.23246 0.96774 0.0
O74 O 0.35774 0.19228 1.00757 0.0
O75 O 0.39733 0.22925 0.07915 0.0
C76 C 0.36004 0.22408 0.04892 0.0
C77 C 0.51962 0.23281 0.15641 0.0
C78 C 0.48729 0.22543 0.92453 0.0
C79 C 0.48265 0.10621 0.05363 0.0
O80 O 0.51387 0.13515 0.05559 0.0
O81 O 0.44189 0.11814 0.04538 0.0
O82 O 0.55334 0.22404 0.11999 0.0
O83 O 0.47963 0.22975 0.13331 0.0
O84 O 0.8319 0.44934 0.43321 0.0
Cd85 Cd 0.85218 0.42744 0.52041 0.0
Cd86 Cd 0.82734 0.51114 0.54873 0.0
O87 O 0.7984 0.5128 0.45977 0.0
O88 O 0.85108 0.36021 0.51315 0.0
O89 O 0.80342 0.39924 0.57191 0.0
C90 C 0.81535 0.36129 0.54766 0.0
C91 C 0.79706 0.51945 0.64869 0.0
C92 C 0.80956 0.48404 0.41799 0.0
C93 C 0.92522 0.4922 0.55395 0.0
O94 O 0.89516 0.52216 0.54874 0.0
O95 O 0.91502 0.45061 0.55101 0.0
O96 O 0.8019 0.55388 0.61224 0.0
O97 O 0.80473 0.48 0.62574 0.0
O98 O 0.5724 0.82767 0.95013 0.0
Cd99 Cd 0.60361 0.84701 0.0318 0.0
Cd100 Cd 0.52244 0.82333 0.07331 0.0
O101 O 0.51369 0.79098 0.98762 0.0
O102 O 0.66982 0.84512 1.01229 0.0
O103 O 0.63624 0.79859 0.07845 0.0
C104 C 0.67186 0.81009 0.04795 0.0
C105 C 0.52584 0.79706 0.17568 0.0
C106 C 0.53785 0.80345 0.94125 0.0
C107 C 0.5429 0.92144 0.06856 0.0
O108 O 0.51252 0.89155 0.06859 0.0
O109 O 0.5842 0.91053 0.0633 0.0
O110 O 0.48745 0.80146 0.14786 0.0
O111 O 0.56193 0.8024 0.14281 0.0
C112 C 0.18933 0.4868 0.3067 0.0
C113 C 0.22593 0.49301 0.26431 0.0
C114 C 0.27127 0.52256 0.35196 0.0
C115 C 0.23558 0.513 0.39405 0.0
N116 N 0.16573 0.4749 0.41441 0.0
N117 N 0.30488 0.50816 0.24943 0.0
C118 C 0.19661 0.49087 0.37229 0.0
C119 C 0.26798 0.50837 0.28772 0.0
N120 N 0.14663 0.48077 0.28453 0.0
N121 N 0.3076 0.54611 0.37304 0.0
H122 H 0.30387 0.4969 0.20284 0.0
H123 H 0.33715 0.51526 0.26548 0.0
H124 H 0.31146 0.55507 0.42038 0.0
H125 H 0.33244 0.55859 0.34325 0.0
H126 H 0.1184 0.4809 0.31361 0.0
H127 H 0.13842 0.48126 0.23686 0.0
H128 H 0.13869 0.4548 0.40112 0.0
H129 H 0.16969 0.47781 0.46315 0.0
C130 C 0.53479 0.27375 0.77063 0.0
C131 C 0.52024 0.24049 0.72735 0.0
C132 C 0.48798 0.19705 0.81315 0.0
C133 C 0.49883 0.23185 0.85674 0.0
N134 N 0.52427 0.30793 0.8737 0.0
N135 N 0.47146 0.17799 0.70496 0.0
C136 C 0.51982 0.27174 0.83459 0.0
C137 C 0.49245 0.20506 0.74787 0.0
N138 N 0.56355 0.30651 0.75092 0.0
N139 N 0.47728 0.15485 0.83366 0.0
H140 H 0.47437 0.18261 0.65636 0.0
H141 H 0.44766 0.15404 0.71787 0.0
H142 H 0.47825 0.1453 0.88085 0.0
H143 H 0.47335 0.12764 0.80316 0.0
H144 H 0.57935 0.32878 0.78166 0.0
H145 H 0.57327 0.30969 0.7038 0.0
H146 H 0.53585 0.33907 0.85843 0.0
H147 H 0.51239 0.30809 0.91999 0.0
C148 C 0.76077 0.50792 0.32561 0.0
C149 C 0.80301 0.4936 0.34969 0.0
C150 C 0.83317 0.4917 0.24222 0.0
C151 C 0.79387 0.51294 0.21986 0.0
N152 N 0.72092 0.54449 0.23966 0.0
N153 N 0.88277 0.48306 0.33063 0.0
C154 C 0.75763 0.52183 0.26132 0.0
C155 C 0.84008 0.48804 0.30789 0.0
N156 N 0.72359 0.50699 0.36333 0.0
N157 N 0.8646 0.47602 0.20057 0.0
H158 H 0.89069 0.4839 0.37837 0.0
H159 H 0.91117 0.4837 0.30188 0.0
H160 H 0.86081 0.47848 0.15176 0.0
H161 H 0.89199 0.45656 0.21431 0.0
H162 H 0.69129 0.51333 0.34678 0.0
H163 H 0.72448 0.49583 0.40991 0.0
H164 H 0.69554 0.55649 0.26904 0.0
H165 H 0.71724 0.55328 0.19228 0.0
C166 C 0.51761 0.76182 0.84075 0.0
C167 C 0.51991 0.80215 0.87631 0.0
C168 C 0.50796 0.84634 0.78123 0.0
C169 C 0.50087 0.80641 0.74621 0.0
N170 N 0.49335 0.72586 0.74334 0.0
N171 N 0.50408 0.88154 0.88345 0.0
C172 C 0.50418 0.76387 0.77607 0.0
C173 C 0.51086 0.844 0.84742 0.0
N174 N 0.52932 0.72208 0.86818 0.0
N175 N 0.51401 0.88646 0.75105 0.0
H176 H 0.50416 0.88088 0.93267 0.0
H177 H 0.49341 0.91206 0.86467 0.0
H178 H 0.51503 0.88934 0.70202 0.0
H179 H 0.52332 0.9158 0.7745 0.0
H180 H 0.53279 0.69216 0.84315 0.0
H181 H 0.53816 0.71975 0.9157 0.0
H182 H 0.49089 0.69431 0.76414 0.0
H183 H 0.48384 0.72647 0.69599 0.0
C184 C 0.83166 0.54229 0.75089 0.0
C185 C 0.79369 0.52546 0.71799 0.0
C186 C 0.75557 0.51078 0.81878 0.0
C187 C 0.79261 0.52992 0.85138 0.0
N188 N 0.86357 0.56963 0.84834 0.0
N189 N 0.71769 0.49839 0.71839 0.0
C190 C 0.82964 0.54786 0.81733 0.0
C191 C 0.75506 0.51099 0.75136 0.0
N192 N 0.87106 0.54986 0.71925 0.0
N193 N 0.72119 0.49206 0.85241 0.0
H194 H 0.71667 0.4981 0.66917 0.0
H195 H 0.68686 0.49128 0.73918 0.0
H196 H 0.71932 0.49377 0.9015 0.0
H197 H 0.69557 0.47313 0.83226 0.0
H198 H 0.90158 0.55598 0.74159 0.0
H199 H 0.87465 0.54611 0.67063 0.0
H200 H 0.88768 0.58898 0.82543 0.0
H201 H 0.86661 0.57095 0.89721 0.0
C202 C 0.54778 0.83133 0.27901 0.0
C203 C 0.52842 0.79472 0.24553 0.0
C204 C 0.50445 0.76067 0.34557 0.0
C205 C 0.52497 0.79663 0.37897 0.0
N206 N 0.57153 0.86334 0.37827 0.0
N207 N 0.495 0.72125 0.24575 0.0
C208 C 0.54879 0.83065 0.34594 0.0
C209 C 0.5086 0.7584 0.27854 0.0
N210 N 0.56199 0.8687 0.24714 0.0
N211 N 0.48058 0.72904 0.37803 0.0
H212 H 0.49805 0.71865 0.19683 0.0
H213 H 0.48406 0.69174 0.26692 0.0
H214 H 0.47953 0.72793 0.42719 0.0
H215 H 0.46028 0.70504 0.35656 0.0
H216 H 0.57021 0.89892 0.26902 0.0
H217 H 0.56203 0.87153 0.19824 0.0
H218 H 0.59518 0.8843 0.35734 0.0
H219 H 0.56902 0.86849 0.4267 0.0
C220 C 0.19619 0.54282 0.86321 0.0
C221 C 0.23375 0.52476 0.89576 0.0
C222 C 0.27176 0.51079 0.79453 0.0
C223 C 0.23533 0.5315 0.76254 0.0
N224 N 0.16588 0.57377 0.76704 0.0
N225 N 0.30942 0.49653 0.89448 0.0
C226 C 0.19881 0.54997 0.79716 0.0
C227 C 0.27222 0.51011 0.86195 0.0
N228 N 0.15653 0.54989 0.89446 0.0
N229 N 0.30557 0.49141 0.76037 0.0
H230 H 0.3105 0.4957 0.94369 0.0
H231 H 0.34014 0.48928 0.87337 0.0
H232 H 0.30741 0.49357 0.71131 0.0
H233 H 0.33056 0.47142 0.78003 0.0
H234 H 0.12639 0.55718 0.87177 0.0
H235 H 0.15218 0.54422 0.94256 0.0
H236 H 0.14213 0.59312 0.79088 0.0
H237 H 0.16365 0.57701 0.71827 0.0
C238 C 0.51677 0.27521 0.32681 0.0
C239 C 0.53374 0.23692 0.35879 0.0
C240 C 0.53997 0.19633 0.25832 0.0
C241 C 0.52602 0.23557 0.22572 0.0
N242 N 0.50541 0.31364 0.22672 0.0
N243 N 0.5667 0.16267 0.35494 0.0
C244 C 0.51552 0.27544 0.2594 0.0
C245 C 0.54731 0.1982 0.32441 0.0
N246 N 0.5014 0.31101 0.36102 0.0
N247 N 0.54315 0.15624 0.22683 0.0
H248 H 0.56921 0.16026 0.40381 0.0
H249 H 0.58299 0.13652 0.33157 0.0
H250 H 0.53746 0.15272 0.17859 0.0
H251 H 0.54732 0.12543 0.24922 0.0
H252 H 0.48419 0.33802 0.34148 0.0
H253 H 0.5039 0.31264 0.41007 0.0
H254 H 0.50145 0.34503 0.24761 0.0
H255 H 0.50401 0.31452 0.17754 0.0
C256 C 0.98766 0.53184 0.10189 0.0
C257 C 0.96617 0.53048 0.04218 0.0
C258 C 0.0316 0.49146 0.99692 0.0
C259 C 0.05445 0.49646 0.05528 0.0
N260 N 0.05693 0.52699 0.16089 0.0
N261 N 0.96829 0.51327 0.93121 0.0
C262 C 0.03326 0.51839 0.10696 0.0
C263 C 0.98825 0.51123 0.98921 0.0
N264 N 0.96379 0.54368 0.1546 0.0
N265 N 0.05143 0.46791 0.94898 0.0
H266 H 0.93669 0.52753 0.92421 0.0
H267 H 0.98405 0.50401 0.88935 0.0
H268 H 0.08374 0.45459 0.95228 0.0
H269 H 0.03507 0.459 0.90745 0.0
H270 H 0.97598 0.53989 0.20033 0.0
H271 H 0.93021 0.55355 0.15346 0.0
H272 H 0.0453 0.54791 0.19678 0.0
H273 H 0.08963 0.51577 0.16806 0.0
C274 C 0.52425 0.99304 0.4923 0.0
C275 C 0.50237 0.97668 0.54723 0.0
C276 C 0.51608 0.04836 0.60132 0.0
C277 C 0.53984 0.06394 0.54747 0.0
N278 N 0.57166 0.05032 0.44484 0.0
N279 N 0.48259 0.98562 0.65693 0.0
C280 C 0.54551 0.03595 0.49384 0.0
C281 C 0.4994 1.00361 0.60244 0.0
N282 N 0.52336 0.96797 0.43817 0.0
N283 N 0.50928 0.0766 0.65142 0.0
H284 H 0.46892 0.95347 0.65949 0.0
H285 H 0.48471 1.00122 0.7008 0.0
H286 H 0.52427 0.10815 0.65491 0.0
H287 H 0.48724 0.06983 0.68831 0.0
H288 H 0.53495 0.97924 0.3947 0.0
H289 H 0.50771 0.93668 0.43551 0.0
H290 H 0.58083 0.03024 0.40674 0.0
H291 H 0.58708 0.08175 0.44441 0.0
C292 C 0.03933 0.5231 0.62358 0.0
C293 C 0.06139 0.54034 0.56933 0.0
C294 C 0.99377 0.52715 0.50603 0.0
C295 C 0.97276 0.5068 0.55898 0.0
N296 N 0.9761 0.48157 0.66679 0.0
N297 N 0.06324 0.55 0.45626 0.0
C298 C 0.99583 0.50346 0.61737 0.0
C299 C 0.03955 0.54019 0.50985 0.0
N300 N 0.05947 0.52693 0.68128 0.0
N301 N 0.96988 0.53447 0.45196 0.0
H302 H 0.09698 0.55931 0.45643 0.0
H303 H 0.0507 0.545 0.41092 0.0
H304 H 0.937 0.52351 0.44571 0.0
H305 H 0.98151 0.55423 0.41492 0.0
H306 H 0.04379 0.51916 0.72375 0.0
H307 H 0.09109 0.54133 0.68724 0.0
H308 H 0.99267 0.47372 0.70855 0.0
H309 H 0.9436 0.46862 0.6647 0.0
C310 C 0.53603 0.99411 1.00985 0.0
C311 C 0.52888 0.9693 0.06612 0.0
C312 C 0.48515 0.03212 0.11048 0.0
C313 C 0.49549 0.05808 0.05632 0.0
N314 N 0.53421 0.06597 0.95677 0.0
N315 N 0.50033 0.96518 0.1723 0.0
C316 C 0.52203 0.03969 1.00681 0.0
C317 C 0.50417 0.98838 0.11697 0.0
N318 N 0.55389 0.9734 0.95785 0.0
N319 N 0.45721 0.04938 0.15568 0.0
H320 H 0.51345 0.93306 0.17834 0.0
H321 H 0.48708 0.97859 0.21366 0.0
H322 H 0.44446 0.08196 0.15392 0.0
H323 H 0.44428 0.03077 0.19299 0.0
H324 H 0.55448 0.9878 0.91314 0.0
H325 H 0.56492 0.94019 0.95763 0.0
H326 H 0.55855 0.05676 0.92393 0.0
H327 H 0.52184 0.09831 0.9497 0.0
C328 C 0.2432 0.27789 0.05574 0.0
C329 C 0.25477 0.32379 0.06411 0.0
C330 C 0.33423 0.30421 0.05461 0.0
C331 C 0.32331 0.25781 0.05507 0.0
N332 N 0.26681 0.20043 0.06802 0.0
N333 N 0.31271 0.37734 0.09236 0.0
C334 C 0.27755 0.24452 0.05898 0.0
C335 C 0.30068 0.33606 0.06968 0.0
N336 N 0.19991 0.26616 0.04241 0.0
N337 N 0.37591 0.31851 0.03651 0.0
H338 H 0.28962 0.4008 0.10919 0.0
H339 H 0.34597 0.38587 0.10202 0.0
H340 H 0.40082 0.29699 1.01969 0.0
H341 H 0.38365 0.35238 0.0305 0.0
H342 H 0.1905 0.23366 0.02994 0.0
H343 H 0.17421 0.2897 0.03759 0.0
H344 H 0.2342 0.18954 0.0771 0.0
H345 H 0.291 0.17535 0.07292 0.0
C346 C 0.7716 0.30765 0.61499 0.0
C347 C 0.78584 0.32133 0.55419 0.0
C348 C 0.73811 0.26315 0.50675 0.0
C349 C 0.71866 0.25462 0.56653 0.0
N350 N 0.71233 0.2742 0.67709 0.0
N351 N 0.77652 0.31688 0.44079 0.0
C352 C 0.73447 0.27792 0.62081 0.0
C353 C 0.76789 0.30006 0.49955 0.0
N354 N 0.79392 0.32269 0.66722 0.0
N355 N 0.72852 0.23564 0.45688 0.0
H356 H 0.79657 0.34491 0.4327 0.0
H357 H 0.76014 0.30568 0.4003 0.0
H358 H 0.70733 0.20789 0.46079 0.0
H359 H 0.74513 0.23758 0.41369 0.0
H360 H 0.78785 0.31046 0.71244 0.0
H361 H 0.82164 0.34401 0.66445 0.0
H362 H 0.71943 0.29435 0.71605 0.0
H363 H 0.68407 0.25414 0.68352 0.0
C364 C 0.76809 0.73225 0.99976 0.0
C365 C 0.77869 0.71311 0.05907 0.0
C366 C 0.72926 0.76804 0.11066 0.0
C367 C 0.71267 0.78137 0.05093 0.0
N368 N 0.71222 0.77082 0.93754 0.0
N369 N 0.76364 0.70868 0.17126 0.0
C370 C 0.73135 0.76256 0.99498 0.0
C371 C 0.75825 0.73023 0.11487 0.0
N372 N 0.79344 0.72178 0.94801 0.0
N373 N 0.71753 0.79174 0.16343 0.0
H374 H 0.78286 0.67975 0.17679 0.0
H375 H 0.74539 0.71701 0.21159 0.0
H376 H 0.69697 0.82012 0.16171 0.0
H377 H 0.73194 0.78615 0.20749 0.0
H378 H 0.78995 0.73799 0.90478 0.0
H379 H 0.8211 0.7003 0.95019 0.0
H380 H 0.7215 0.7538 0.89655 0.0
H381 H 0.68431 0.79138 0.93129 0.0
C382 C 0.33981 0.73272 0.56471 0.0
C383 C 0.32767 0.77846 0.55643 0.0
C384 C 0.24836 0.75601 0.5511 0.0
C385 C 0.26155 0.71014 0.55096 0.0
N386 N 0.32183 0.65628 0.53771 0.0
N387 N 0.2706 0.83299 0.53067 0.0
C388 C 0.30785 0.69887 0.5519 0.0
C389 C 0.28193 0.79003 0.54653 0.0
N390 N 0.38104 0.72127 0.5881 0.0
N391 N 0.20415 0.76722 0.55796 0.0
H392 H 0.29434 0.85841 0.52518 0.0
H393 H 0.23832 0.84229 0.51699 0.0
H394 H 0.17885 0.74334 0.56318 0.0
H395 H 0.19318 0.80012 0.56459 0.0
H396 H 0.38948 0.68837 0.59999 0.0
H397 H 0.40465 0.74477 0.60317 0.0
H398 H 0.35563 0.64791 0.53239 0.0
H399 H 0.30003 0.63081 0.52357 0.0
loop_
_geom_bond_atom_site_label_1
_geom_bond_atom_site_label_2
_geom_bond_distance
_geom_bond_site_symmetry_2
_ccdc_geom_bond_type
O0 Cd1 2.223 . S
O0 C8 1.315 . S
Cd1 O0 2.223 . S
Cd1 O4 2.297 . S
Cd1 O5 2.439 . S
Cd1 O11 2.240 . S
Cd2 O3 2.240 . S
Cd2 O10 2.223 . S
Cd2 O12 2.297 1_554 S
Cd2 O13 2.439 1_554 S
O3 Cd2 2.240 . S
O3 C8 1.279 . S
O4 Cd1 2.297 . S
O4 C6 1.247 . S
O5 Cd1 2.439 . S
O5 C6 1.208 . S
C6 O4 1.247 . S
C6 O5 1.208 . S
C7 O12 1.247 . S
C7 O13 1.208 . S
C8 O0 1.315 . S
C8 O3 1.279 . S
C9 O10 1.315 . S
C9 O11 1.279 . S
O10 Cd2 2.223 . S
O10 C9 1.315 . S
O11 Cd1 2.240 . S
O11 C9 1.279 . S
O12 Cd2 2.297 1_556 S
O12 C7 1.247 . S
O13 Cd2 2.439 1_556 S
O13 C7 1.208 . S
O14 Cd15 2.223 . S
O14 C22 1.315 . S
Cd15 O14 2.223 . S
Cd15 O18 2.297 . S
Cd15 O19 2.439 . S
Cd15 O25 2.240 . S
Cd16 O17 2.240 . S
Cd16 O24 2.223 . S
Cd16 O26 2.297 . S
Cd16 O27 2.439 . S
O17 Cd16 2.240 . S
O17 C22 1.279 . S
O18 Cd15 2.297 . S
O18 C20 1.247 . S
O19 Cd15 2.439 . S
O19 C20 1.208 . S
C20 O18 1.247 . S
C20 O19 1.208 . S
C21 O26 1.247 . S
C21 O27 1.208 . S
C22 O14 1.315 . S
C22 O17 1.279 . S
C23 O24 1.315 . S
C23 O25 1.279 . S
O24 Cd16 2.223 . S
O24 C23 1.315 . S
O25 Cd15 2.240 . S
O25 C23 1.279 . S
O26 Cd16 2.297 . S
O26 C21 1.247 . S
O27 Cd16 2.439 . S
O27 C21 1.208 . S
O28 Cd29 2.223 . S
O28 C36 1.315 . S
Cd29 O28 2.223 . S
Cd29 O32 2.297 . S
Cd29 O33 2.439 . S
Cd29 O39 2.240 . S
Cd30 O31 2.240 . S
Cd30 O38 2.223 . S
Cd30 O40 2.297 1_554 S
Cd30 O41 2.439 1_554 S
O31 Cd30 2.240 . S
O31 C36 1.279 . S
O32 Cd29 2.297 . S
O32 C34 1.247 . S
O33 Cd29 2.439 . S
O33 C34 1.208 . S
C34 O32 1.247 . S
C34 O33 1.208 . S
C35 O40 1.247 . S
C35 O41 1.208 . S
C36 O28 1.315 . S
C36 O31 1.279 . S
C37 O38 1.315 . S
C37 O39 1.279 . S
O38 Cd30 2.223 . S
O38 C37 1.315 . S
O39 Cd29 2.240 . S
O39 C37 1.279 . S
O40 Cd30 2.297 1_556 S
O40 C35 1.247 . S
O41 Cd30 2.439 1_556 S
O41 C35 1.208 . S
O42 Cd43 2.223 . S
O42 C50 1.315 . S
Cd43 O42 2.223 . S
Cd43 O46 2.297 . S
Cd43 O47 2.439 . S
Cd43 O53 2.240 . S
Cd44 O45 2.240 . S
Cd44 O52 2.223 . S
Cd44 O54 2.297 . S
Cd44 O55 2.439 . S
O45 Cd44 2.240 . S
O45 C50 1.279 . S
O46 Cd43 2.297 . S
O46 C48 1.247 . S
O47 Cd43 2.439 . S
O47 C48 1.208 . S
C48 O46 1.247 . S
C48 O47 1.208 . S
C49 O54 1.247 . S
C49 O55 1.208 . S
C50 O42 1.315 . S
C50 O45 1.279 . S
C51 O52 1.315 . S
C51 O53 1.279 . S
O52 Cd44 2.223 . S
O52 C51 1.315 . S
O53 Cd43 2.240 . S
O53 C51 1.279 . S
O54 Cd44 2.297 . S
O54 C49 1.247 . S
O55 Cd44 2.439 . S
O55 C49 1.208 . S
O56 Cd57 2.223 . S
O56 C64 1.315 . S
Cd57 O56 2.223 . S
Cd57 O60 2.297 . S
Cd57 O61 2.439 . S
Cd57 O67 2.240 . S
Cd58 O59 2.240 . S
Cd58 O66 2.223 . S
Cd58 O68 2.297 . S
Cd58 O69 2.439 . S
O59 Cd58 2.240 . S
O59 C64 1.279 . S
O60 Cd57 2.297 . S
O60 C62 1.247 . S
O61 Cd57 2.439 . S
O61 C62 1.208 . S
C62 O60 1.247 . S
C62 O61 1.208 . S
C63 O68 1.247 . S
C63 O69 1.208 . S
C64 O56 1.315 . S
C64 O59 1.279 . S
C65 O66 1.315 . S
C65 O67 1.279 . S
O66 Cd58 2.223 . S
O66 C65 1.315 . S
O67 Cd57 2.240 . S
O67 C65 1.279 . S
O68 Cd58 2.297 . S
O68 C63 1.247 . S
O69 Cd58 2.439 . S
O69 C63 1.208 . S
O70 Cd71 2.223 . S
O70 C78 1.315 . S
Cd71 O70 2.223 . S
Cd71 O74 2.297 . S
Cd71 O75 2.439 1_556 S
Cd71 O81 2.240 1_556 S
Cd72 O73 2.240 1_554 S
Cd72 O80 2.223 . S
Cd72 O82 2.297 . S
Cd72 O83 2.439 . S
O73 Cd72 2.240 1_556 S
O73 C78 1.279 . S
O74 Cd71 2.297 . S
O74 C76 1.253 . S
O75 Cd71 2.439 1_554 S
O75 C76 1.204 1_554 S
C76 O74 1.253 . S
C76 O75 1.204 1_556 S
C77 O82 1.247 . S
C77 O83 1.208 . S
C78 O70 1.315 . S
C78 O73 1.279 . S
C79 O80 1.315 . S
C79 O81 1.279 . S
O80 Cd72 2.223 . S
O80 C79 1.315 . S
O81 Cd71 2.240 1_554 S
O81 C79 1.279 . S
O82 Cd72 2.297 . S
O82 C77 1.247 . S
O83 Cd72 2.439 . S
O83 C77 1.208 . S
O84 Cd85 2.223 . S
O84 C92 1.315 . S
Cd85 O84 2.223 . S
Cd85 O88 2.297 . S
Cd85 O89 2.439 . S
Cd85 O95 2.240 . S
Cd86 O87 2.240 . S
Cd86 O94 2.223 . S
Cd86 O96 2.297 . S
Cd86 O97 2.439 . S
O87 Cd86 2.240 . S
O87 C92 1.279 . S
O88 Cd85 2.297 . S
O88 C90 1.247 . S
O89 Cd85 2.439 . S
O89 C90 1.208 . S
C90 O88 1.247 . S
C90 O89 1.208 . S
C91 O96 1.247 . S
C91 O97 1.208 . S
C92 O84 1.315 . S
C92 O87 1.279 . S
C93 O94 1.315 . S
C93 O95 1.279 . S
O94 Cd86 2.223 . S
O94 C93 1.315 . S
O95 Cd85 2.240 . S
O95 C93 1.279 . S
O96 Cd86 2.297 . S
O96 C91 1.247 . S
O97 Cd86 2.439 . S
O97 C91 1.208 . S
O98 Cd99 2.223 . S
O98 C106 1.315 . S
Cd99 O98 2.223 . S
Cd99 O102 2.297 . S
Cd99 O103 2.439 1_556 S
Cd99 O109 2.240 1_556 S
Cd100 O101 2.240 1_554 S
Cd100 O108 2.223 . S
Cd100 O110 2.297 . S
Cd100 O111 2.439 . S
O101 Cd100 2.240 1_556 S
O101 C106 1.279 . S
O102 Cd99 2.297 . S
O102 C104 1.253 . S
O103 Cd99 2.439 1_554 S
O103 C104 1.204 1_554 S
C104 O102 1.253 . S
C104 O103 1.204 1_556 S
C105 O110 1.247 . S
C105 O111 1.208 . S
C106 O98 1.315 . S
C106 O101 1.279 . S
C107 O108 1.315 . S
C107 O109 1.279 . S
O108 Cd100 2.223 . S
O108 C107 1.315 . S
O109 Cd99 2.240 1_554 S
O109 C107 1.279 . S
O110 Cd100 2.297 . S
O110 C105 1.247 . S
O111 Cd100 2.439 . S
O111 C105 1.208 . S
C112 C113 1.363 . S
C112 C118 1.379 . S
C112 N120 1.356 . S
C113 C112 1.363 . S
C113 C119 1.363 . S
C114 C115 1.363 . S
C114 C119 1.379 . S
C114 N121 1.356 . S
C115 C114 1.363 . S
C115 C118 1.363 . S
N116 C118 1.356 . S
N116 H128 0.984 . S
N116 H129 0.985 . S
N117 C119 1.356 . S
N117 H122 0.984 . S
N117 H123 0.985 . S
C118 C112 1.379 . S
C118 C115 1.363 . S
C118 N116 1.356 . S
C119 C113 1.363 . S
C119 C114 1.379 . S
C119 N117 1.356 . S
N120 C112 1.356 . S
N120 H126 0.984 . S
N120 H127 0.984 . S
N121 C114 1.356 . S
N121 H124 0.984 . S
N121 H125 0.985 . S
H122 N117 0.984 . S
H123 N117 0.985 . S
H124 N121 0.984 . S
H125 N121 0.985 . S
H126 N120 0.984 . S
H127 N120 0.984 . S
H128 N116 0.984 . S
H129 N116 0.985 . S
C130 C131 1.363 . S
C130 C136 1.379 . S
C130 N138 1.356 . S
C131 C130 1.363 . S
C131 C137 1.363 . S
C132 C133 1.363 . S
C132 C137 1.379 . S
C132 N139 1.356 . S
C133 C132 1.363 . S
C133 C136 1.363 . S
N134 C136 1.356 . S
N134 H146 0.984 . S
N134 H147 0.985 . S
N135 C137 1.356 . S
N135 H140 0.984 . S
N135 H141 0.985 . S
C136 C130 1.379 . S
C136 C133 1.363 . S
C136 N134 1.356 . S
C137 C131 1.363 . S
C137 C132 1.379 . S
C137 N135 1.356 . S
N138 C130 1.356 . S
N138 H144 0.984 . S
N138 H145 0.984 . S
N139 C132 1.356 . S
N139 H142 0.984 . S
N139 H143 0.985 . S
H140 N135 0.984 . S
H141 N135 0.985 . S
H142 N139 0.984 . S
H143 N139 0.985 . S
H144 N138 0.984 . S
H145 N138 0.984 . S
H146 N134 0.984 . S
H147 N134 0.985 . S
C148 C149 1.363 . S
C148 C154 1.379 . S
C148 N156 1.356 . S
C149 C148 1.363 . S
C149 C155 1.363 . S
C150 C151 1.363 . S
C150 C155 1.379 . S
C150 N157 1.356 . S
C151 C150 1.363 . S
C151 C154 1.363 . S
N152 C154 1.356 . S
N152 H164 0.984 . S
N152 H165 0.985 . S
N153 C155 1.356 . S
N153 H158 0.984 . S
N153 H159 0.985 . S
C154 C148 1.379 . S
C154 C151 1.363 . S
C154 N152 1.356 . S
C155 C149 1.363 . S
C155 C150 1.379 . S
C155 N153 1.356 . S
N156 C148 1.356 . S
N156 H162 0.984 . S
N156 H163 0.984 . S
N157 C150 1.356 . S
N157 H160 0.984 . S
N157 H161 0.985 . S
H158 N153 0.984 . S
H159 N153 0.985 . S
H160 N157 0.984 . S
H161 N157 0.985 . S
H162 N156 0.984 . S
H163 N156 0.984 . S
H164 N152 0.984 . S
H165 N152 0.985 . S
C166 C167 1.363 . S
C166 C172 1.379 . S
C166 N174 1.356 . S
C167 C166 1.363 . S
C167 C173 1.363 . S
C168 C169 1.363 . S
C168 C173 1.379 . S
C168 N175 1.356 . S
C169 C168 1.363 . S
C169 C172 1.363 . S
N170 C172 1.356 . S
N170 H182 0.984 . S
N170 H183 0.985 . S
N171 C173 1.356 . S
N171 H176 0.984 . S
N171 H177 0.985 . S
C172 C166 1.379 . S
C172 C169 1.363 . S
C172 N170 1.356 . S
C173 C167 1.363 . S
C173 C168 1.379 . S
C173 N171 1.356 . S
N174 C166 1.356 . S
N174 H180 0.984 . S
N174 H181 0.984 . S
N175 C168 1.356 . S
N175 H178 0.984 . S
N175 H179 0.985 . S
H176 N171 0.984 . S
H177 N171 0.985 . S
H178 N175 0.984 . S
H179 N175 0.985 . S
H180 N174 0.984 . S
H181 N174 0.984 . S
H182 N170 0.984 . S
H183 N170 0.985 . S
C184 C185 1.363 . S
C184 C190 1.379 . S
C184 N192 1.356 . S
C185 C184 1.363 . S
C185 C191 1.363 . S
C186 C187 1.363 . S
C186 C191 1.379 . S
C186 N193 1.356 . S
C187 C186 1.363 . S
C187 C190 1.363 . S
N188 C190 1.356 . S
N188 H200 0.984 . S
N188 H201 0.985 . S
N189 C191 1.356 . S
N189 H194 0.984 . S
N189 H195 0.985 . S
C190 C184 1.379 . S
C190 C187 1.363 . S
C190 N188 1.356 . S
C191 C185 1.363 . S
C191 C186 1.379 . S
C191 N189 1.356 . S
N192 C184 1.356 . S
N192 H198 0.984 . S
N192 H199 0.984 . S
N193 C186 1.356 . S
N193 H196 0.984 . S
N193 H197 0.985 . S
H194 N189 0.984 . S
H195 N189 0.985 . S
H196 N193 0.984 . S
H197 N193 0.985 . S
H198 N192 0.984 . S
H199 N192 0.984 . S
H200 N188 0.984 . S
H201 N188 0.985 . S
C202 C203 1.363 . S
C202 C208 1.379 . S
C202 N210 1.356 . S
C203 C202 1.363 . S
C203 C209 1.363 . S
C204 C205 1.363 . S
C204 C209 1.379 . S
C204 N211 1.356 . S
C205 C204 1.363 . S
C205 C208 1.363 . S
N206 C208 1.356 . S
N206 H218 0.984 . S
N206 H219 0.985 . S
N207 C209 1.356 . S
N207 H212 0.984 . S
N207 H213 0.985 . S
C208 C202 1.379 . S
C208 C205 1.363 . S
C208 N206 1.356 . S
C209 C203 1.363 . S
C209 C204 1.379 . S
C209 N207 1.356 . S
N210 C202 1.356 . S
N210 H216 0.984 . S
N210 H217 0.984 . S
N211 C204 1.356 . S
N211 H214 0.984 . S
N211 H215 0.985 . S
H212 N207 0.984 . S
H213 N207 0.985 . S
H214 N211 0.984 . S
H215 N211 0.985 . S
H216 N210 0.984 . S
H217 N210 0.984 . S
H218 N206 0.984 . S
H219 N206 0.985 . S
C220 C221 1.363 . S
C220 C226 1.379 . S
C220 N228 1.356 . S
C221 C220 1.363 . S
C221 C227 1.363 . S
C222 C223 1.363 . S
C222 C227 1.379 . S
C222 N229 1.356 . S
C223 C222 1.363 . S
C223 C226 1.363 . S
N224 C226 1.356 . S
N224 H236 0.984 . S
N224 H237 0.985 . S
N225 C227 1.356 . S
N225 H230 0.984 . S
N225 H231 0.985 . S
C226 C220 1.379 . S
C226 C223 1.363 . S
C226 N224 1.356 . S
C227 C221 1.363 . S
C227 C222 1.379 . S
C227 N225 1.356 . S
N228 C220 1.356 . S
N228 H234 0.984 . S
N228 H235 0.984 . S
N229 C222 1.356 . S
N229 H232 0.984 . S
N229 H233 0.985 . S
H230 N225 0.984 . S
H231 N225 0.985 . S
H232 N229 0.984 . S
H233 N229 0.985 . S
H234 N228 0.984 . S
H235 N228 0.984 . S
H236 N224 0.984 . S
H237 N224 0.985 . S
C238 C239 1.363 . S
C238 C244 1.379 . S
C238 N246 1.356 . S
C239 C238 1.363 . S
C239 C245 1.363 . S
C240 C241 1.363 . S
C240 C245 1.379 . S
C240 N247 1.356 . S
C241 C240 1.363 . S
C241 C244 1.363 . S
N242 C244 1.356 . S
N242 H254 0.984 . S
N242 H255 0.985 . S
N243 C245 1.356 . S
N243 H248 0.984 . S
N243 H249 0.985 . S
C244 C238 1.379 . S
C244 C241 1.363 . S
C244 N242 1.356 . S
C245 C239 1.363 . S
C245 C240 1.379 . S
C245 N243 1.356 . S
N246 C238 1.356 . S
N246 H252 0.984 . S
N246 H253 0.984 . S
N247 C240 1.356 . S
N247 H250 0.984 . S
N247 H251 0.985 . S
H248 N243 0.984 . S
H249 N243 0.985 . S
H250 N247 0.984 . S
H251 N247 0.985 . S
H252 N246 0.984 . S
H253 N246 0.984 . S
H254 N242 0.984 . S
H255 N242 0.985 . S
C256 C257 1.363 . S
C256 C262 1.379 1_655 S
C256 N264 1.356 . S
C257 C256 1.363 . S
C257 C263 1.363 . S
C258 C259 1.363 . S
C258 C263 1.379 1_455 S
C258 N265 1.356 1_554 S
C259 C258 1.363 . S
C259 C262 1.363 . S
N260 C262 1.356 . S
N260 H272 0.984 . S
N260 H273 0.985 . S
N261 C263 1.356 1_556 S
N261 H266 0.984 . S
N261 H267 0.985 . S
C262 C256 1.379 1_455 S
C262 C259 1.363 . S
C262 N260 1.356 . S
C263 C257 1.363 . S
C263 C258 1.379 1_655 S
C263 N261 1.356 1_554 S
N264 C256 1.356 . S
N264 H270 0.984 . S
N264 H271 0.984 . S
N265 C258 1.356 1_556 S
N265 H268 0.984 . S
N265 H269 0.985 . S
H266 N261 0.984 . S
H267 N261 0.985 . S
H268 N265 0.984 . S
H269 N265 0.985 . S
H270 N264 0.984 . S
H271 N264 0.984 . S
H272 N260 0.984 . S
H273 N260 0.985 . S
C274 C275 1.363 . S
C274 C280 1.379 1_565 S
C274 N282 1.356 . S
C275 C274 1.363 . S
C275 C281 1.363 . S
C276 C277 1.363 . S
C276 C281 1.379 1_545 S
C276 N283 1.356 . S
C277 C276 1.363 . S
C277 C280 1.363 . S
N278 C280 1.356 . S
N278 H290 0.984 . S
N278 H291 0.985 . S
N279 C281 1.356 . S
N279 H284 0.984 . S
N279 H285 0.985 . S
C280 C274 1.379 1_545 S
C280 C277 1.363 . S
C280 N278 1.356 . S
C281 C275 1.363 . S
C281 C276 1.379 1_565 S
C281 N279 1.356 . S
N282 C274 1.356 . S
N282 H288 0.984 . S
N282 H289 0.984 . S
N283 C276 1.356 . S
N283 H286 0.984 . S
N283 H287 0.985 . S
H284 N279 0.984 . S
H285 N279 0.985 . S
H286 N283 0.984 . S
H287 N283 0.985 . S
H288 N282 0.984 . S
H289 N282 0.984 . S
H290 N278 0.984 . S
H291 N278 0.985 . S
C292 C293 1.363 . S
C292 C298 1.379 1_455 S
C292 N300 1.356 . S
C293 C292 1.363 . S
C293 C299 1.363 . S
C294 C295 1.363 . S
C294 C299 1.379 1_655 S
C294 N301 1.356 . S
C295 C294 1.363 . S
C295 C298 1.363 . S
N296 C298 1.356 . S
N296 H308 0.984 . S
N296 H309 0.985 . S
N297 C299 1.356 . S
N297 H302 0.984 . S
N297 H303 0.985 . S
C298 C292 1.379 1_655 S
C298 C295 1.363 . S
C298 N296 1.356 . S
C299 C293 1.363 . S
C299 C294 1.379 1_455 S
C299 N297 1.356 . S
N300 C292 1.356 . S
N300 H306 0.984 . S
N300 H307 0.984 . S
N301 C294 1.356 . S
N301 H304 0.984 . S
N301 H305 0.985 . S
H302 N297 0.984 . S
H303 N297 0.985 . S
H304 N301 0.984 . S
H305 N301 0.985 . S
H306 N300 0.984 . S
H307 N300 0.984 . S
H308 N296 0.984 . S
H309 N296 0.985 . S
C310 C311 1.363 1_556 S
C310 C316 1.379 1_565 S
C310 N318 1.356 . S
C311 C310 1.363 1_554 S
C311 C317 1.363 . S
C312 C313 1.363 . S
C312 C317 1.379 1_545 S
C312 N319 1.356 . S
C313 C312 1.363 . S
C313 C316 1.363 1_554 S
N314 C316 1.356 . S
N314 H326 0.984 . S
N314 H327 0.985 . S
N315 C317 1.356 . S
N315 H320 0.984 . S
N315 H321 0.985 . S
C316 C310 1.379 1_545 S
C316 C313 1.363 1_556 S
C316 N314 1.356 . S
C317 C311 1.363 . S
C317 C312 1.379 1_565 S
C317 N315 1.356 . S
N318 C310 1.356 . S
N318 H324 0.984 . S
N318 H325 0.984 . S
N319 C312 1.356 . S
N319 H322 0.984 . S
N319 H323 0.985 . S
H320 N315 0.984 . S
H321 N315 0.985 . S
H322 N319 0.984 . S
H323 N319 0.985 . S
H324 N318 0.984 . S
H325 N318 0.984 . S
H326 N314 0.984 . S
H327 N314 0.985 . S
C328 C329 1.363 . S
C328 C334 1.379 1_554 S
C328 N336 1.356 . S
C329 C328 1.363 . S
C329 C335 1.363 . S
C330 C331 1.363 . S
C330 C335 1.379 . S
C330 N337 1.356 . S
C331 C330 1.363 . S
C331 C334 1.363 1_554 S
N332 C334 1.356 . S
N332 H344 0.984 . S
N332 H345 0.985 . S
N333 C335 1.356 . S
N333 H338 0.984 . S
N333 H339 0.985 . S
C334 C328 1.379 1_556 S
C334 C331 1.363 1_556 S
C334 N332 1.356 . S
C335 C329 1.363 . S
C335 C330 1.379 . S
C335 N333 1.356 . S
N336 C328 1.356 . S
N336 H342 0.984 1_554 S
N336 H343 0.984 . S
N337 C330 1.356 . S
N337 H340 0.984 . S
N337 H341 0.985 . S
H338 N333 0.984 . S
H339 N333 0.985 . S
H340 N337 0.984 . S
H341 N337 0.985 . S
H342 N336 0.984 1_556 S
H343 N336 0.984 . S
H344 N332 0.984 . S
H345 N332 0.985 . S
C346 C347 1.363 . S
C346 C352 1.379 . S
C346 N354 1.356 . S
C347 C346 1.363 . S
C347 C353 1.363 . S
C348 C349 1.363 . S
C348 C353 1.379 . S
C348 N355 1.356 . S
C349 C348 1.363 . S
C349 C352 1.363 . S
N350 C352 1.356 . S
N350 H362 0.984 . S
N350 H363 0.985 . S
N351 C353 1.356 . S
N351 H356 0.984 . S
N351 H357 0.985 . S
C352 C346 1.379 . S
C352 C349 1.363 . S
C352 N350 1.356 . S
C353 C347 1.363 . S
C353 C348 1.379 . S
C353 N351 1.356 . S
N354 C346 1.356 . S
N354 H360 0.984 . S
N354 H361 0.984 . S
N355 C348 1.356 . S
N355 H358 0.984 . S
N355 H359 0.985 . S
H356 N351 0.984 . S
H357 N351 0.985 . S
H358 N355 0.984 . S
H359 N355 0.985 . S
H360 N354 0.984 . S
H361 N354 0.984 . S
H362 N350 0.984 . S
H363 N350 0.985 . S
C364 C365 1.347 1_556 S
C364 C370 1.384 . S
C364 N372 1.362 . S
C365 C364 1.347 1_554 S
C365 C371 1.363 . S
C366 C367 1.363 . S
C366 C371 1.379 . S
C366 N373 1.356 . S
C367 C366 1.363 . S
C367 C370 1.363 1_554 S
N368 C370 1.356 . S
N368 H380 0.984 . S
N368 H381 0.985 . S
N369 C371 1.356 . S
N369 H374 0.984 . S
N369 H375 0.985 . S
C370 C364 1.384 . S
C370 C367 1.363 1_556 S
C370 N368 1.356 . S
C371 C365 1.363 . S
C371 C366 1.379 . S
C371 N369 1.356 . S
N372 C364 1.362 . S
N372 H378 0.984 . S
N372 H379 0.984 1_556 S
N373 C366 1.356 . S
N373 H376 0.984 . S
N373 H377 0.985 . S
H374 N369 0.984 . S
H375 N369 0.985 . S
H376 N373 0.984 . S
H377 N373 0.985 . S
H378 N372 0.984 . S
H379 N372 0.984 1_554 S
H380 N368 0.984 . S
H381 N368 0.985 . S
C382 C383 1.363 . S
C382 C388 1.379 . S
C382 N390 1.356 . S
C383 C382 1.363 . S
C383 C389 1.363 . S
C384 C385 1.363 . S
C384 C389 1.379 . S
C384 N391 1.356 . S
C385 C384 1.363 . S
C385 C388 1.363 . S
N386 C388 1.356 . S
N386 H398 0.984 . S
N386 H399 0.985 . S
N387 C389 1.356 . S
N387 H392 0.984 . S
N387 H393 0.985 . S
C388 C382 1.379 . S
C388 C385 1.363 . S
C388 N386 1.356 . S
C389 C383 1.363 . S
C389 C384 1.379 . S
C389 N387 1.356 . S
N390 C382 1.356 . S
N390 H396 0.984 . S
N390 H397 0.984 . S
N391 C384 1.356 . S
N391 H394 0.984 . S
N391 H395 0.985 . S
H392 N387 0.984 . S
H393 N387 0.985 . S
H394 N391 0.984 . S
H395 N391 0.985 . S
H396 N390 0.984 . S
H397 N390 0.984 . S
H398 N386 0.984 . S
H399 N386 0.985 . S
C113 C8 1.682 . S
C115 C64 1.682 . S
C131 C22 1.682 . S
C133 C78 1.682 . S
C149 C92 1.682 . S
C151 C36 1.682 . S
C167 C106 1.682 . S
C169 C50 1.682 . S
C185 C91 1.196 . S
C187 C35 1.196 . S
C203 C105 1.196 . S
C205 C49 1.196 . S
C221 C7 1.196 . S
C223 C63 1.196 . S
C239 C21 1.196 . S
C241 C77 1.196 . S
C257 C37 1.328 . S
C259 C9 1.328 . S
C275 C51 1.328 . S
C277 C23 1.328 . S
C293 C65 1.328 . S
C295 C93 1.328 . S
C311 C107 1.328 . S
C313 C79 1.328 . S
C329 C6 1.560 . S
C331 C76 1.559 1_554 S
C347 C90 1.560 . S
C349 C20 1.560 . S
C365 C34 1.560 . S
C367 C104 1.559 1_554 S
C383 C48 1.560 . S
C385 C62 1.560 . S
