# Generated by pormake.
# Topology umx, (4)-cn, num edge types: 1
# Building blocks:
#     Node 0, Type 0, BuildingBlock: KUFVIS_clean_sbu_0, # of connection points: 4
#     Node 1, Type 0, BuildingBlock: KUFVIS_clean_sbu_0, # of connection points: 4
#     Node 2, Type 0, BuildingBlock: KUFVIS_clean_sbu_0, # of connection points: 4
#     Node 3, Type 0, BuildingBlock: KUFVIS_clean_sbu_0, # of connection points: 4
#     Node 4, Type 0, BuildingBlock: KUFVIS_clean_sbu_0, # of connection points: 4
#     Node 5, Type 0, BuildingBlock: KUFVIS_clean_sbu_0, # of connection points: 4
#     Node 6, Type 0, BuildingBlock: KUFVIS_clean_sbu_0, # of connection points: 4
#     Node 7, Type 0, BuildingBlock: KUFVIS_clean_sbu_0, # of connection points: 4
#     Edge 8, Type (0, 0), BuildingBlock: EZIPEK_clean_linker_0, # of connection points: 2
#     Edge 9, Type (0, 0), BuildingBlock: EZIPEK_clean_linker_0, # of connection points: 2
#     Edge 10, Type (0, 0), BuildingBlock: EZIPEK_clean_linker_0, # of connection points: 2
#     Edge 11, Type (0, 0), BuildingBlock: EZIPEK_clean_linker_0, # of connection points: 2
#     Edge 12, Type (0, 0), BuildingBlock: EZIPEK_clean_linker_0, # of connection points: 2
#     Edge 13, Type (0, 0), BuildingBlock: EZIPEK_clean_linker_0, # of connection points: 2
#     Edge 14, Type (0, 0), BuildingBlock: EZIPEK_clean_linker_0, # of connection points: 2
#     Edge 15, Type (0, 0), BuildingBlock: EZIPEK_clean_linker_0, # of connection points: 2
#     Edge 16, Type (0, 0), BuildingBlock: EZIPEK_clean_linker_0, # of connection points: 2
#     Edge 17, Type (0, 0), BuildingBlock: EZIPEK_clean_linker_0, # of connection points: 2
#     Edge 18, Type (0, 0), BuildingBlock: EZIPEK_clean_linker_0, # of connection points: 2
#     Edge 19, Type (0, 0), BuildingBlock: EZIPEK_clean_linker_0, # of connection points: 2
#     Edge 20, Type (0, 0), BuildingBlock: EZIPEK_clean_linker_0, # of connection points: 2
#     Edge 21, Type (0, 0), BuildingBlock: EZIPEK_clean_linker_0, # of connection points: 2
#     Edge 22, Type (0, 0), BuildingBlock: EZIPEK_clean_linker_0, # of connection points: 2
#     Edge 23, Type (0, 0), BuildingBlock: EZIPEK_clean_linker_0, # of connection points: 2
# Relax obj value: 0.126
# Max RMSD: 0.262
# Mean RMSD: 0.233
data_MOF--net-umx--node1-KUFVIS_clean_sbu_0--edge1-EZIPEK_clean_linker_0
_symmetry_space_group_name_H-M    P1
_symmetry_Int_Tables_number       1
_symmetry_cell_setting            triclinic
loop_
_symmetry_equiv_pos_as_xyz
'x, y, z'
_cell_length_a     25.390736
_cell_length_b     30.858323
_cell_length_c     20.496699
_cell_angle_alpha  90.079929
_cell_angle_beta   90.031994
_cell_angle_gamma 90.023599
loop_
_atom_site_label
_atom_site_type_symbol
_atom_site_fract_x
_atom_site_fract_y
_atom_site_fract_z
_atom_type_partial_charge
Mn0 Mn 0.17849 0.44861 0.0099 0.0
Mn1 Mn 0.11704 0.37674 0.91709 0.0
C2 C 0.08913 0.45717 0.99921 0.0
C3 C 0.21067 0.47582 0.10747 0.0
C4 C 0.17552 0.45102 0.8612 0.0
O5 O 0.22759 0.39868 0.0153 0.0
O6 O 0.19248 0.36054 0.93478 0.0
C7 C 0.11952 0.30486 0.01314 0.0
N8 N 0.09268 0.32949 0.96919 0.0
C9 C 0.01621 0.28375 0.97768 0.0
C10 C 0.04316 0.25771 0.02269 0.0
C11 C 0.09491 0.26851 0.04082 0.0
C12 C 0.04268 0.31969 0.95205 0.0
H13 H 0.15942 0.31272 0.02681 0.0
C14 C 0.23064 0.36855 0.97386 0.0
O15 O 0.23184 0.48683 0.0523 0.0
O16 O 0.17163 0.44877 0.10591 0.0
N17 N 0.04492 0.38402 0.89306 0.0
C18 C 0.02305 0.41443 0.85348 0.0
C19 C 0.97066 0.40933 0.83252 0.0
C20 C 0.94208 0.3723 0.85041 0.0
C21 C 0.96549 0.34131 0.89106 0.0
C22 C 0.01762 0.34826 0.91075 0.0
H23 H 0.04591 0.44186 0.83733 0.0
O24 O 0.12114 0.48982 1.00143 0.0
O25 O 0.11107 0.41847 0.99262 0.0
O26 O 0.19907 0.45946 0.91438 0.0
O27 O 0.13917 0.42288 0.85718 0.0
C28 C 0.93863 0.30452 0.91444 0.0
C29 C 0.96386 0.2759 0.95806 0.0
H30 H 0.02434 0.22962 0.04409 0.0
H31 H 0.11589 0.24869 0.07576 0.0
H32 H 0.95218 0.43363 0.80236 0.0
H33 H 0.90171 0.36859 0.83414 0.0
H34 H 0.89819 0.29841 0.90026 0.0
H35 H 0.94245 0.24821 0.97677 0.0
Mn36 Mn 0.53426 0.16323 0.53989 0.0
Mn37 Mn 0.49261 0.26625 0.53038 0.0
C38 C 0.518 0.20107 0.63671 0.0
C39 C 0.51427 0.08987 0.53614 0.0
C40 C 0.60743 0.24047 0.52024 0.0
O41 O 0.51569 0.16952 0.44318 0.0
O42 O 0.48594 0.23711 0.44386 0.0
C43 C 0.3807 0.24197 0.51164 0.0
N44 N 0.41811 0.26544 0.54364 0.0
C45 C 0.35284 0.29882 0.61221 0.0
C46 C 0.31343 0.27589 0.57887 0.0
C47 C 0.3275 0.24697 0.52882 0.0
C48 C 0.40524 0.29165 0.59392 0.0
H49 H 0.39147 0.21929 0.4738 0.0
C50 C 0.49474 0.20152 0.41391 0.0
O51 O 0.56139 0.1038 0.52319 0.0
O52 O 0.47883 0.1185 0.55097 0.0
N53 N 0.49561 0.30101 0.60726 0.0
C54 C 0.53801 0.32343 0.63009 0.0
C55 C 0.53049 0.35689 0.67529 0.0
C56 C 0.47947 0.36687 0.69704 0.0
C57 C 0.43645 0.34309 0.67371 0.0
C58 C 0.4462 0.31131 0.62654 0.0
H59 H 0.57709 0.31736 0.61152 0.0
O60 O 0.54526 0.16562 0.63608 0.0
O61 O 0.49799 0.21221 0.58023 0.0
O62 O 0.6007 0.19968 0.52617 0.0
O63 O 0.56991 0.26819 0.51925 0.0
C64 C 0.38402 0.35144 0.69249 0.0
C65 C 0.34226 0.32867 0.66261 0.0
H66 H 0.27231 0.28006 0.59152 0.0
H67 H 0.29741 0.22867 0.50345 0.0
H68 H 0.56388 0.37581 0.69163 0.0
H69 H 0.47355 0.39386 0.72997 0.0
H70 H 0.37536 0.37554 0.72944 0.0
H71 H 0.30212 0.33509 0.67768 0.0
Mn72 Mn 0.79 0.53621 0.05565 0.0
Mn73 Mn 0.87485 0.59575 0.96578 0.0
C74 C 0.87557 0.51171 0.04113 0.0
C75 C 0.75025 0.52113 0.15457 0.0
C76 C 0.79354 0.53475 0.90692 0.0
O77 O 0.75276 0.59377 0.04755 0.0
O78 O 0.81404 0.63205 0.99354 0.0
C79 C 0.90933 0.6555 0.07076 0.0
N80 N 0.9213 0.62658 0.02275 0.0
C81 C 0.01423 0.63677 0.03991 0.0
C82 C 0.00294 0.6669 0.08924 0.0
C83 C 0.95025 0.67608 0.105 0.0
C84 C 0.9718 0.61687 0.00813 0.0
H85 H 0.8689 0.66279 0.08283 0.0
C86 C 0.76955 0.62876 0.02226 0.0
O87 O 0.72767 0.51047 0.10003 0.0
O88 O 0.79424 0.54242 0.15145 0.0
N89 N 0.9365 0.56672 0.93534 0.0
C90 C 0.94056 0.53701 0.88645 0.0
C91 C 0.9905 0.5249 0.86405 0.0
C92 C 0.03586 0.54289 0.89226 0.0
C93 C 0.03079 0.57398 0.94174 0.0
C94 C 0.97986 0.58558 0.96121 0.0
H95 H 0.906 0.52333 0.86366 0.0
O96 O 0.83856 0.48589 0.06081 0.0
O97 O 0.86191 0.55222 0.03372 0.0
O98 O 0.77294 0.52237 0.96039 0.0
O99 O 0.82984 0.56349 0.90362 0.0
C100 C 0.07414 0.59423 0.97207 0.0
C101 C 0.06587 0.62545 0.02137 0.0
H102 H 0.03439 0.68299 0.11555 0.0
H103 H 0.94122 0.69912 0.14323 0.0
H104 H 0.99384 0.50248 0.82413 0.0
H105 H 0.07419 0.53299 0.87482 0.0
H106 H 0.11399 0.58582 0.95831 0.0
H107 H 0.0995 0.64037 0.04495 0.0
Mn108 Mn 0.46538 0.83242 0.55217 0.0
Mn109 Mn 0.52942 0.73675 0.54988 0.0
C110 C 0.48836 0.8025 0.65121 0.0
C111 C 0.46982 0.90694 0.54046 0.0
C112 C 0.41091 0.743 0.546 0.0
O113 O 0.48188 0.82443 0.45634 0.0
O114 O 0.52006 0.75947 0.45949 0.0
C115 C 0.62849 0.7791 0.5083 0.0
N116 N 0.60219 0.75282 0.55059 0.0
C117 C 0.68104 0.74026 0.61277 0.0
C118 C 0.70904 0.76692 0.56966 0.0
C119 C 0.68255 0.78661 0.51737 0.0
C120 C 0.62695 0.73472 0.60198 0.0
H121 H 0.6084 0.79431 0.46801 0.0
C122 C 0.50187 0.79183 0.42813 0.0
O123 O 0.42598 0.88636 0.52975 0.0
O124 O 0.51075 0.88441 0.55669 0.0
N125 N 0.54446 0.7071 0.62959 0.0
C126 C 0.51481 0.67537 0.65736 0.0
C127 C 0.53685 0.6488 0.70559 0.0
C128 C 0.58923 0.65501 0.72526 0.0
C129 C 0.62023 0.68565 0.69298 0.0
C130 C 0.59665 0.70985 0.64311 0.0
H131 H 0.47609 0.66806 0.63911 0.0
O132 O 0.45596 0.83469 0.64705 0.0
O133 O 0.51163 0.79122 0.59616 0.0
O134 O 0.40878 0.78462 0.54491 0.0
O135 O 0.45374 0.72089 0.55047 0.0
C136 C 0.6745 0.6908 0.70516 0.0
C137 C 0.70477 0.7186 0.6656 0.0
H138 H 0.75086 0.77239 0.57613 0.0
H139 H 0.70379 0.80735 0.48395 0.0
H140 H 0.5143 0.62219 0.72524 0.0
H141 H 0.6063 0.63417 0.7621 0.0
H142 H 0.69352 0.67289 0.744 0.0
H143 H 0.74651 0.72218 0.67514 0.0
Mn144 Mn 0.18608 0.55181 0.46924 0.0
Mn145 Mn 0.11386 0.61501 0.56959 0.0
C146 C 0.09895 0.53454 0.48628 0.0
C147 C 0.21982 0.53519 0.36735 0.0
C148 C 0.18094 0.54222 0.61928 0.0
O149 O 0.23192 0.60413 0.47729 0.0
O150 O 0.18597 0.63993 0.55364 0.0
C151 C 0.10383 0.6884 0.47725 0.0
N152 N 0.08094 0.65816 0.51632 0.0
C153 C 0.99487 0.68782 0.49562 0.0
C154 C 0.01754 0.71869 0.45415 0.0
C155 C 0.0723 0.71893 0.44486 0.0
C156 C 0.02826 0.65757 0.52539 0.0
H157 H 0.14581 0.68967 0.47166 0.0
C158 C 0.22629 0.63525 0.51668 0.0
O159 O 0.2429 0.52164 0.42008 0.0
O160 O 0.17944 0.56049 0.37417 0.0
N161 N 0.04363 0.59756 0.59146 0.0
C162 C 0.02818 0.56778 0.63661 0.0
C163 C 0.97487 0.56538 0.6547 0.0
C164 C 0.93798 0.59332 0.62621 0.0
C165 C 0.95488 0.62452 0.58142 0.0
C166 C 0.00861 0.626 0.56605 0.0
H167 H 0.05658 0.54688 0.65996 0.0
O168 O 0.13232 0.50682 0.46314 0.0
O169 O 0.11712 0.57399 0.49558 0.0
O170 O 0.20353 0.53418 0.56462 0.0
O171 O 0.145 0.57081 0.62628 0.0
C172 C 0.92064 0.65494 0.55273 0.0
C173 C 0.94054 0.68625 0.50922 0.0
H174 H 0.99337 0.74263 0.42976 0.0
H175 H 0.09026 0.74297 0.41357 0.0
H176 H 0.96218 0.5431 0.69203 0.0
H177 H 0.89703 0.59132 0.64044 0.0
H178 H 0.8789 0.65443 0.56364 0.0
H179 H 0.91381 0.70932 0.48714 0.0
Mn180 Mn 0.46291 0.16441 1.00226 0.0
Mn181 Mn 0.51606 0.26395 0.00962 0.0
C182 C 0.48664 0.19797 0.90469 0.0
C183 C 0.47685 0.0905 0.01343 0.0
C184 C 0.39785 0.24675 0.01406 0.0
O185 O 0.475 0.17385 0.0996 0.0
O186 O 0.51911 0.23645 0.09773 0.0
C187 C 0.62546 0.23538 0.03491 0.0
N188 N 0.59048 0.25874 0.99889 0.0
C189 C 0.65981 0.28779 0.9321 0.0
C190 C 0.69669 0.26422 0.9686 0.0
C191 C 0.67938 0.23766 0.01995 0.0
C192 C 0.60652 0.28331 0.94826 0.0
H193 H 0.61225 0.2152 0.0747 0.0
C194 C 0.49849 0.2048 0.12857 0.0
O195 O 0.43025 0.10702 0.02157 0.0
O196 O 0.51508 0.11665 0.99942 0.0
N197 N 0.51738 0.29687 0.93104 0.0
C198 C 0.47708 0.31992 0.9043 0.0
C199 C 0.48807 0.35141 0.85716 0.0
C200 C 0.54035 0.35877 0.83768 0.0
C201 C 0.58107 0.33407 0.86465 0.0
C202 C 0.5679 0.30425 0.91324 0.0
H203 H 0.43707 0.31577 0.92091 0.0
O204 O 0.45735 0.16362 0.9054 0.0
O205 O 0.50547 0.2096 0.96172 0.0
O206 O 0.39971 0.20561 0.00752 0.0
O207 O 0.43894 0.27084 0.0184 0.0
C208 C 0.63448 0.33959 0.8478 0.0
C209 C 0.67379 0.31586 0.88078 0.0
H210 H 0.73836 0.26636 0.95775 0.0
H211 H 0.70756 0.21929 0.04827 0.0
H212 H 0.45639 0.37094 0.83776 0.0
H213 H 0.54916 0.38464 0.80395 0.0
H214 H 0.64575 0.3622 0.8099 0.0
H215 H 0.7147 0.32016 0.8673 0.0
Mn216 Mn 0.79639 0.45132 0.50987 0.0
Mn217 Mn 0.88094 0.39138 0.59877 0.0
C218 C 0.88353 0.47419 0.51446 0.0
C219 C 0.75466 0.46883 0.41308 0.0
C220 C 0.80371 0.45519 0.65759 0.0
O221 O 0.7581 0.3946 0.51573 0.0
O222 O 0.81633 0.35774 0.57604 0.0
C223 C 0.90658 0.32279 0.50249 0.0
N224 N 0.92237 0.35287 0.54709 0.0
C225 C 0.01007 0.32347 0.54967 0.0
C226 C 0.99487 0.29222 0.50359 0.0
C227 C 0.94306 0.29221 0.47935 0.0
C228 C 0.97239 0.35382 0.56946 0.0
H229 H 0.86638 0.32187 0.48534 0.0
C230 C 0.77307 0.36038 0.54444 0.0
O231 O 0.73378 0.47905 0.46878 0.0
O232 O 0.79827 0.44701 0.41373 0.0
N233 N 0.94663 0.41597 0.62523 0.0
C234 C 0.95621 0.45086 0.66404 0.0
C235 C 0.00717 0.45709 0.68947 0.0
C236 C 0.0468 0.42645 0.67748 0.0
C237 C 0.03584 0.39057 0.63791 0.0
C238 C 0.98513 0.38705 0.61153 0.0
H239 H 0.92486 0.473 0.67656 0.0
O240 O 0.84446 0.50047 0.50697 0.0
O241 O 0.8704 0.4334 0.52521 0.0
O242 O 0.78022 0.46491 0.605 0.0
O243 O 0.84196 0.4286 0.66031 0.0
C244 C 0.07373 0.35897 0.62157 0.0
C245 C 0.06103 0.32574 0.57681 0.0
H246 H 0.02266 0.26816 0.48638 0.0
H247 H 0.93101 0.26816 0.44387 0.0
H248 H 0.01579 0.48461 0.7201 0.0
H249 H 0.08557 0.43103 0.69842 0.0
H250 H 0.11315 0.36067 0.64159 0.0
H251 H 0.09086 0.30234 0.5632 0.0
Mn252 Mn 0.53765 0.83322 0.02012 0.0
Mn253 Mn 0.48738 0.73259 0.02334 0.0
C254 C 0.52016 0.79804 0.92209 0.0
C255 C 0.52356 0.90763 0.02451 0.0
C256 C 0.60383 0.75084 0.03537 0.0
O257 O 0.51596 0.82671 0.11526 0.0
O258 O 0.48703 0.75898 0.11211 0.0
C259 C 0.37924 0.76307 0.05275 0.0
N260 N 0.41284 0.7398 0.01452 0.0
C261 C 0.34212 0.71858 0.94311 0.0
C262 C 0.30668 0.74174 0.98228 0.0
C263 C 0.32541 0.76429 0.03715 0.0
C264 C 0.39545 0.71904 0.96065 0.0
H265 H 0.39337 0.78084 0.09461 0.0
C266 C 0.49593 0.79395 0.1435 0.0
O267 O 0.56907 0.89117 0.03963 0.0
O268 O 0.48651 0.88104 0.0076 0.0
N269 N 0.48346 0.70132 0.94308 0.0
C270 C 0.52163 0.6765 0.91523 0.0
C271 C 0.50857 0.64898 0.86323 0.0
C272 C 0.45664 0.64771 0.83957 0.0
C273 C 0.41779 0.67271 0.86991 0.0
C274 C 0.4327 0.69814 0.92338 0.0
H275 H 0.5613 0.67644 0.93425 0.0
O276 O 0.55105 0.8314 0.92463 0.0
O277 O 0.49782 0.78744 0.97734 0.0
O278 O 0.60015 0.79219 0.03555 0.0
O279 O 0.56451 0.72494 0.03023 0.0
C280 C 0.36436 0.67156 0.85134 0.0
C281 C 0.32661 0.69495 0.88747 0.0
H282 H 0.26508 0.74254 0.9706 0.0
H283 H 0.2984 0.78256 0.06736 0.0
H284 H 0.53818 0.62781 0.8429 0.0
H285 H 0.44636 0.62608 0.79997 0.0
H286 H 0.35176 0.65231 0.80995 0.0
H287 H 0.28564 0.69387 0.87277 0.0
C288 C 0.24136 0.46222 0.22029 0.0
C289 C 0.22961 0.49256 0.17072 0.0
C290 C 0.23648 0.5512 0.25043 0.0
C291 C 0.23499 0.52019 0.30136 0.0
N292 N 0.23246 0.44458 0.33418 0.0
N293 N 0.21392 0.56673 0.13824 0.0
C294 C 0.2378 0.47519 0.28648 0.0
C295 C 0.22775 0.53747 0.1852 0.0
N296 N 0.25532 0.42086 0.20386 0.0
N297 N 0.24586 0.59376 0.26477 0.0
H298 H 0.20673 0.55818 0.08987 0.0
H299 H 0.20584 0.59915 0.14836 0.0
H300 H 0.2534 0.60437 0.31227 0.0
H301 H 0.25169 0.61737 0.22921 0.0
H302 H 0.26909 0.39836 0.23769 0.0
H303 H 0.25849 0.41068 0.15544 0.0
H304 H 0.22769 0.4117 0.32411 0.0
H305 H 0.22842 0.45167 0.3835 0.0
C306 C 0.55183 0.22806 0.74326 0.0
C307 C 0.50775 0.22185 0.70173 0.0
C308 C 0.45188 0.22629 0.79901 0.0
C309 C 0.49629 0.21914 0.8399 0.0
N310 N 0.5903 0.2086 0.84699 0.0
N311 N 0.41373 0.21178 0.69308 0.0
C312 C 0.54708 0.21984 0.81133 0.0
C313 C 0.45685 0.22127 0.73014 0.0
N314 N 0.59861 0.24039 0.71691 0.0
N315 N 0.40459 0.23623 0.82647 0.0
H316 H 0.41595 0.20597 0.64314 0.0
H317 H 0.37647 0.20664 0.71294 0.0
H318 H 0.40094 0.2406 0.87666 0.0
H319 H 0.37155 0.24484 0.79916 0.0
H320 H 0.6315 0.24816 0.7451 0.0
H321 H 0.6014 0.24775 0.66743 0.0
H322 H 0.62752 0.20473 0.82634 0.0
H323 H 0.5881 0.20008 0.89607 0.0
C324 C 0.73102 0.52766 0.33383 0.0
C325 C 0.73229 0.48305 0.35028 0.0
C326 C 0.72738 0.46277 0.23529 0.0
C327 C 0.72978 0.50737 0.2187 0.0
N328 N 0.71215 0.58082 0.24999 0.0
N329 N 0.71078 0.40997 0.32047 0.0
C330 C 0.72405 0.53936 0.26755 0.0
C331 C 0.72313 0.4512 0.302 0.0
N332 N 0.7403 0.55866 0.38008 0.0
N333 N 0.73316 0.43154 0.18855 0.0
H334 H 0.70586 0.40178 0.36949 0.0
H335 H 0.69975 0.38576 0.28773 0.0
H336 H 0.73582 0.43832 0.13894 0.0
H337 H 0.73828 0.39884 0.19942 0.0
H338 H 0.7462 0.59121 0.36884 0.0
H339 H 0.74516 0.55165 0.4294 0.0
H340 H 0.70373 0.6053 0.28346 0.0
H341 H 0.70469 0.58892 0.20145 0.0
C342 C 0.55085 0.77159 0.81434 0.0
C343 C 0.50771 0.77976 0.85625 0.0
C344 C 0.45098 0.78101 0.75951 0.0
C345 C 0.49618 0.78399 0.71803 0.0
N346 N 0.5904 0.79494 0.7138 0.0
N347 N 0.41582 0.79857 0.86593 0.0
C348 C 0.54676 0.78185 0.74709 0.0
C349 C 0.45709 0.78507 0.82836 0.0
N350 N 0.59658 0.75608 0.83964 0.0
N351 N 0.40176 0.77751 0.73319 0.0
H352 H 0.4188 0.80361 0.91601 0.0
H353 H 0.37962 0.80792 0.84659 0.0
H354 H 0.39481 0.77784 0.6831 0.0
H355 H 0.3685 0.77068 0.76119 0.0
H356 H 0.62893 0.74797 0.81075 0.0
H357 H 0.59865 0.74667 0.88839 0.0
H358 H 0.62734 0.79747 0.73579 0.0
H359 H 0.58879 0.80685 0.66632 0.0
C360 C 0.77566 0.44928 0.77383 0.0
C361 C 0.78667 0.47589 0.71936 0.0
C362 C 0.77441 0.53986 0.78813 0.0
C363 C 0.77786 0.51348 0.8445 0.0
N364 N 0.78073 0.44064 0.89029 0.0
N365 N 0.79932 0.54794 0.6752 0.0
C366 C 0.77708 0.46744 0.83748 0.0
C367 C 0.78581 0.52168 0.72615 0.0
N368 N 0.7629 0.40672 0.76446 0.0
N369 N 0.76029 0.58236 0.79423 0.0
H370 H 0.8102 0.53634 0.62944 0.0
H371 H 0.80419 0.58131 0.68011 0.0
H372 H 0.74974 0.59567 0.83919 0.0
H373 H 0.75305 0.60246 0.75441 0.0
H374 H 0.74963 0.38655 0.80171 0.0
H375 H 0.75972 0.39315 0.71802 0.0
H376 H 0.78872 0.40763 0.88614 0.0
H377 H 0.7783 0.45081 0.93843 0.0
C378 C 0.5032 0.83179 0.25352 0.0
C379 C 0.48724 0.79488 0.21696 0.0
C380 C 0.47403 0.75633 0.32183 0.0
C381 C 0.50055 0.79048 0.35524 0.0
N382 N 0.55041 0.85679 0.34842 0.0
N383 N 0.44606 0.72385 0.22031 0.0
C384 C 0.51822 0.82693 0.31966 0.0
C385 C 0.46958 0.75753 0.25225 0.0
N386 N 0.49915 0.87231 0.22755 0.0
N387 N 0.44979 0.72413 0.35655 0.0
H388 H 0.42581 0.72774 0.17656 0.0
H389 H 0.444 0.69258 0.23923 0.0
H390 H 0.45151 0.72153 0.40708 0.0
H391 H 0.42427 0.70148 0.33611 0.0
H392 H 0.50725 0.9003 0.25436 0.0
H393 H 0.47916 0.87815 0.18398 0.0
H394 H 0.56769 0.88209 0.32235 0.0
H395 H 0.56398 0.8536 0.39624 0.0
C396 C 0.1909 0.52062 0.79904 0.0
C397 C 0.19047 0.47462 0.80081 0.0
C398 C 0.19699 0.47194 0.68135 0.0
C399 C 0.19595 0.51808 0.6795 0.0
N400 N 0.21164 0.58507 0.73736 0.0
N401 N 0.21216 0.40767 0.74665 0.0
C402 C 0.19977 0.54188 0.73875 0.0
C403 C 0.19976 0.45068 0.7428 0.0
N404 N 0.17919 0.54436 0.85349 0.0
N405 N 0.19222 0.44805 0.6255 0.0
H406 H 0.21601 0.39158 0.79111 0.0
H407 H 0.22429 0.38933 0.70669 0.0
H408 H 0.1922 0.46116 0.5789 0.0
H409 H 0.18535 0.41478 0.62551 0.0
H410 H 0.17239 0.57764 0.85237 0.0
H411 H 0.17139 0.53084 0.8989 0.0
H412 H 0.22067 0.60298 0.77903 0.0
H413 H 0.21773 0.60199 0.6941 0.0
C414 C 0.46783 0.23671 0.30563 0.0
C415 C 0.48594 0.19969 0.34043 0.0
C416 C 0.51232 0.16647 0.23603 0.0
C417 C 0.49888 0.20494 0.20194 0.0
N418 N 0.47078 0.28016 0.20804 0.0
N419 N 0.49538 0.12232 0.33073 0.0
C420 C 0.47898 0.24111 0.23778 0.0
C421 C 0.50008 0.16244 0.30356 0.0
N422 N 0.43378 0.26498 0.33491 0.0
N423 N 0.53944 0.13437 0.20476 0.0
H424 H 0.47696 0.11764 0.37563 0.0
H425 H 0.50096 0.09372 0.30451 0.0
H426 H 0.5514 0.1369 0.15621 0.0
H427 H 0.55491 0.10755 0.22897 0.0
H428 H 0.41527 0.29034 0.3105 0.0
H429 H 0.41658 0.25882 0.37999 0.0
H430 H 0.46434 0.3087 0.23407 0.0
H431 H 0.47397 0.28553 0.15824 0.0
C432 C 0.9418 0.45347 0.01379 0.0
C433 C 0.93086 0.4956 0.03864 0.0
C434 C 0.02446 0.50367 0.06563 0.0
C435 C 0.0353 0.46523 0.0288 0.0
N436 N 0.00061 0.39365 0.0322 0.0
N437 N 0.95819 0.54868 0.11835 0.0
C438 C 0.99324 0.43643 0.02036 0.0
C439 C 0.97118 0.51745 0.07372 0.0
N440 N 0.90355 0.42928 0.98467 0.0
N441 N 0.0643 0.52494 0.09697 0.0
H442 H 0.91943 0.55735 0.1287 0.0
H443 H 0.98506 0.56365 0.14937 0.0
H444 H 0.10046 0.51037 0.10657 0.0
H445 H 0.0609 0.55607 0.11605 0.0
H446 H 0.91009 0.39772 0.96885 0.0
H447 H 0.86685 0.44173 0.97222 0.0
H448 H 0.96931 0.37181 0.03521 0.0
H449 H 0.03689 0.38204 0.04844 0.0
C450 C 0.4992 0.97263 0.4798 0.0
C451 C 0.47405 0.95445 0.53502 0.0
C452 C 0.47806 0.02411 0.59193 0.0
C453 C 0.50136 0.04303 0.5357 0.0
N454 N 0.52877 0.03701 0.42314 0.0
N455 N 0.43058 0.9633 0.63849 0.0
C456 C 0.51062 0.01773 0.47878 0.0
C457 C 0.46038 0.98045 0.58932 0.0
N458 N 0.51277 0.9464 0.42871 0.0
N459 N 0.47609 0.0469 0.64921 0.0
H460 H 0.41796 0.93112 0.63864 0.0
H461 H 0.41452 0.98171 0.67614 0.0
H462 H 0.49079 0.07828 0.65424 0.0
H463 H 0.46476 0.03341 0.69356 0.0
H464 H 0.53737 0.9558 0.39068 0.0
H465 H 0.50063 0.91419 0.42564 0.0
H466 H 0.53024 0.02172 0.37791 0.0
H467 H 0.53968 0.06946 0.42084 0.0
C468 C 0.03125 0.47597 0.50113 0.0
C469 C 0.04262 0.52071 0.49087 0.0
C470 C 0.94818 0.53345 0.47422 0.0
C471 C 0.93761 0.48963 0.49392 0.0
N472 N 0.97181 0.42011 0.46436 0.0
N473 N 0.01316 0.58265 0.42912 0.0
C474 C 0.97977 0.46045 0.48938 0.0
C475 C 0.00149 0.54731 0.46666 0.0
N476 N 0.06953 0.44782 0.52026 0.0
N477 N 0.90851 0.56075 0.45614 0.0
H478 H 0.05146 0.59157 0.41695 0.0
H479 H 0.98497 0.60066 0.40414 0.0
H480 H 0.87294 0.55004 0.43678 0.0
H481 H 0.91337 0.59419 0.45316 0.0
H482 H 0.06446 0.41443 0.5193 0.0
H483 H 0.10432 0.45806 0.54231 0.0
H484 H 0.00274 0.39934 0.45246 0.0
H485 H 0.93515 0.41043 0.44652 0.0
C486 C 0.50307 0.97452 0.9607 0.0
C487 C 0.5144 0.95502 0.02191 0.0
C488 C 0.49728 0.02388 0.0781 0.0
C489 C 0.48636 0.04335 0.01699 0.0
N490 N 0.47189 0.03768 0.90122 0.0
N491 N 0.53118 0.96174 0.13725 0.0
C492 C 0.48749 0.0188 0.95847 0.0
C493 C 0.5141 0.9799 0.08024 0.0
N494 N 0.51007 0.95114 0.90453 0.0
N495 N 0.48948 0.04714 0.13413 0.0
H496 H 0.54372 0.92971 0.14056 0.0
H497 H 0.53693 0.97896 0.18034 0.0
H498 H 0.47634 0.07915 0.13394 0.0
H499 H 0.49175 0.03413 0.18084 0.0
H500 H 0.50732 0.96398 0.8578 0.0
H501 H 0.52278 0.91901 0.90421 0.0
H502 H 0.46656 0.02102 0.85759 0.0
H503 H 0.46061 0.0701 0.89796 0.0
C504 C 0.31401 0.34338 0.02944 0.0
C505 C 0.27678 0.33807 0.97817 0.0
C506 C 0.31123 0.26461 0.95882 0.0
C507 C 0.34646 0.27003 0.01208 0.0
N508 N 0.3654 0.30725 0.11199 0.0
N509 N 0.25889 0.3008 0.87682 0.0
C510 C 0.34228 0.30709 0.05193 0.0
C511 C 0.28003 0.30043 0.93812 0.0
N512 N 0.32735 0.38372 0.05148 0.0
N513 N 0.30586 0.22516 0.92931 0.0
H514 H 0.24398 0.32885 0.85553 0.0
H515 H 0.26405 0.27582 0.84321 0.0
H516 H 0.32549 0.19749 0.94486 0.0
H517 H 0.277 0.21857 0.89455 0.0
H518 H 0.35679 0.38894 0.08609 0.0
H519 H 0.31586 0.41196 0.02751 0.0
H520 H 0.36047 0.3324 0.14547 0.0
H521 H 0.38358 0.27954 0.13052 0.0
C522 C 0.72118 0.31156 0.4713 0.0
C523 C 0.74067 0.32081 0.53483 0.0
C524 C 0.69248 0.25783 0.57542 0.0
C525 C 0.66154 0.25806 0.51797 0.0
N526 N 0.64885 0.28262 0.4077 0.0
N527 N 0.74313 0.30184 0.64969 0.0
C528 C 0.67698 0.2839 0.46446 0.0
C529 C 0.72684 0.29317 0.58753 0.0
N530 N 0.74603 0.32793 0.41766 0.0
N531 N 0.68935 0.2241 0.61818 0.0
H532 H 0.76757 0.32765 0.66179 0.0
H533 H 0.72862 0.28528 0.69018 0.0
H534 H 0.66541 0.19722 0.61003 0.0
H535 H 0.7145 0.22094 0.65812 0.0
H536 H 0.73607 0.31907 0.37015 0.0
H537 H 0.78028 0.34653 0.42096 0.0
H538 H 0.65464 0.30455 0.36974 0.0
H539 H 0.61827 0.26053 0.40008 0.0
C540 C 0.72411 0.69484 0.97506 0.0
C541 C 0.73627 0.668 0.02934 0.0
C542 C 0.66953 0.70522 0.09468 0.0
C543 C 0.65651 0.7308 0.03985 0.0
N544 N 0.68776 0.76348 0.94041 0.0
N545 N 0.73658 0.66156 0.1466 0.0
C546 C 0.68938 0.73028 0.98419 0.0
C547 C 0.71399 0.67754 0.09122 0.0
N548 N 0.7423 0.68522 0.91403 0.0
N549 N 0.63906 0.70684 0.1495 0.0
H550 H 0.77077 0.64278 0.14568 0.0
H551 H 0.72479 0.67086 0.19326 0.0
H552 H 0.60804 0.72877 0.15477 0.0
H553 H 0.64336 0.6852 0.18814 0.0
H554 H 0.72929 0.70135 0.87236 0.0
H555 H 0.7665 0.65889 0.90387 0.0
H556 H 0.71419 0.76615 0.90171 0.0
H557 H 0.66355 0.79043 0.94673 0.0
C558 C 0.34742 0.68801 0.58951 0.0
C559 C 0.36085 0.71844 0.54038 0.0
C560 C 0.28297 0.69652 0.47693 0.0
C561 C 0.27183 0.66456 0.52468 0.0
N562 N 0.3017 0.62174 0.61567 0.0
N563 N 0.34464 0.74931 0.43385 0.0
C564 C 0.30613 0.65818 0.57822 0.0
C565 C 0.32912 0.7225 0.48338 0.0
N566 N 0.37333 0.68813 0.64786 0.0
N567 N 0.24986 0.70145 0.42485 0.0
H568 H 0.37754 0.76937 0.43653 0.0
H569 H 0.32712 0.74997 0.38798 0.0
H570 H 0.21971 0.67963 0.41425 0.0
H571 H 0.25101 0.72771 0.3931 0.0
H572 H 0.36098 0.67036 0.68823 0.0
H573 H 0.40466 0.70875 0.65777 0.0
H574 H 0.32909 0.61297 0.65113 0.0
H575 H 0.27393 0.59766 0.60639 0.0
loop_
_geom_bond_atom_site_label_1
_geom_bond_atom_site_label_2
_geom_bond_distance
_geom_bond_site_symmetry_2
_ccdc_geom_bond_type
Mn0 O5 2.095 . S
Mn0 O15 2.162 . S
Mn0 O16 2.297 . S
Mn0 O24 2.385 . S
Mn0 O25 2.209 . S
Mn0 O26 2.094 1_554 S
Mn1 O6 2.121 . S
Mn1 N8 2.257 . S
Mn1 N17 2.282 . S
Mn1 O25 2.215 1_556 S
Mn1 O27 2.117 . S
C2 O24 1.234 . S
C2 O25 1.283 . S
C3 O15 1.281 . S
C3 O16 1.236 . S
C4 O26 1.240 . S
C4 O27 1.264 . S
O5 Mn0 2.095 . S
O5 C14 1.250 1_554 S
O6 Mn1 2.121 . S
O6 C14 1.258 . S
C7 N8 1.326 . S
C7 C11 1.460 . S
C7 H13 0.929 . S
N8 Mn1 2.257 . S
N8 C7 1.326 . S
N8 C12 1.362 . S
C9 C10 1.256 1_655 S
C9 C12 1.418 1_655 S
C9 C29 1.464 . S
C10 C9 1.256 1_455 S
C10 C11 1.477 . S
C10 H30 0.931 1_455 S
C11 C7 1.460 . S
C11 C10 1.477 . S
C11 H31 0.930 . S
C12 N8 1.362 . S
C12 C9 1.418 1_455 S
C12 C22 1.476 . S
H13 C7 0.929 . S
C14 O5 1.250 1_556 S
C14 O6 1.258 . S
O15 Mn0 2.162 . S
O15 C3 1.281 . S
O16 Mn0 2.297 . S
O16 C3 1.236 . S
N17 Mn1 2.282 . S
N17 C18 1.328 . S
N17 C22 1.318 . S
C18 N17 1.328 . S
C18 C19 1.457 . S
C18 H23 0.929 . S
C19 C18 1.457 . S
C19 C20 1.291 1_455 S
C19 H32 0.931 . S
C20 C19 1.291 1_655 S
C20 C21 1.373 . S
C20 H33 0.929 . S
C21 C20 1.373 . S
C21 C22 1.396 1_655 S
C21 C28 1.403 . S
C22 C12 1.476 . S
C22 N17 1.318 . S
C22 C21 1.396 1_455 S
H23 C18 0.929 . S
O24 Mn0 2.385 . S
O24 C2 1.234 . S
O25 Mn0 2.209 . S
O25 Mn1 2.215 1_554 S
O25 C2 1.283 . S
O26 Mn0 2.094 1_556 S
O26 C4 1.240 . S
O27 Mn1 2.117 . S
O27 C4 1.264 . S
C28 C21 1.403 . S
C28 C29 1.399 . S
C28 H34 0.929 . S
C29 C9 1.464 . S
C29 C28 1.399 . S
C29 H35 0.930 . S
H30 C10 0.931 1_655 S
H31 C11 0.930 . S
H32 C19 0.931 . S
H33 C20 0.929 . S
H34 C28 0.929 . S
H35 C29 0.930 . S
Mn36 O41 2.095 . S
Mn36 O51 2.162 . S
Mn36 O52 2.297 . S
Mn36 O60 2.385 . S
Mn36 O61 2.209 . S
Mn36 O62 2.094 . S
Mn37 O42 2.121 . S
Mn37 N44 2.257 . S
Mn37 N53 2.282 . S
Mn37 O61 2.215 . S
Mn37 O63 2.117 . S
C38 O60 1.234 . S
C38 O61 1.283 . S
C39 O51 1.281 . S
C39 O52 1.236 . S
C40 O62 1.240 . S
C40 O63 1.264 . S
O41 Mn36 2.095 . S
O41 C50 1.250 . S
O42 Mn37 2.121 . S
O42 C50 1.258 . S
C43 N44 1.326 . S
C43 C47 1.460 . S
C43 H49 0.929 . S
N44 Mn37 2.257 . S
N44 C43 1.326 . S
N44 C48 1.362 . S
C45 C46 1.258 . S
C45 C48 1.431 . S
C45 C65 1.449 . S
C46 C45 1.258 . S
C46 C47 1.477 . S
C46 H66 0.931 . S
C47 C43 1.460 . S
C47 C46 1.477 . S
C47 H67 0.930 . S
C48 N44 1.362 . S
C48 C45 1.431 . S
C48 C58 1.476 . S
H49 C43 0.929 . S
C50 O41 1.250 . S
C50 O42 1.258 . S
O51 Mn36 2.162 . S
O51 C39 1.281 . S
O52 Mn36 2.297 . S
O52 C39 1.236 . S
N53 Mn37 2.282 . S
N53 C54 1.328 . S
N53 C58 1.318 . S
C54 N53 1.328 . S
C54 C55 1.457 . S
C54 H59 0.929 . S
C55 C54 1.457 . S
C55 C56 1.291 . S
C55 H68 0.931 . S
C56 C55 1.291 . S
C56 C57 1.373 . S
C56 H69 0.929 . S
C57 C56 1.373 . S
C57 C58 1.396 . S
C57 C64 1.403 . S
C58 C48 1.476 . S
C58 N53 1.318 . S
C58 C57 1.396 . S
H59 C54 0.929 . S
O60 Mn36 2.385 . S
O60 C38 1.234 . S
O61 Mn36 2.209 . S
O61 Mn37 2.215 . S
O61 C38 1.283 . S
O62 Mn36 2.094 . S
O62 C40 1.240 . S
O63 Mn37 2.117 . S
O63 C40 1.264 . S
C64 C57 1.403 . S
C64 C65 1.399 . S
C64 H70 0.929 . S
C65 C45 1.449 . S
C65 C64 1.399 . S
C65 H71 0.930 . S
H66 C46 0.931 . S
H67 C47 0.930 . S
H68 C55 0.931 . S
H69 C56 0.929 . S
H70 C64 0.929 . S
H71 C65 0.930 . S
Mn72 O77 2.095 . S
Mn72 O87 2.162 . S
Mn72 O88 2.297 . S
Mn72 O96 2.385 . S
Mn72 O97 2.209 . S
Mn72 O98 2.094 1_554 S
Mn73 O78 2.121 . S
Mn73 N80 2.257 . S
Mn73 N89 2.282 . S
Mn73 O97 2.215 1_556 S
Mn73 O99 2.117 . S
C74 O96 1.234 . S
C74 O97 1.283 . S
C75 O87 1.281 . S
C75 O88 1.236 . S
C76 O98 1.240 . S
C76 O99 1.264 . S
O77 Mn72 2.095 . S
O77 C86 1.250 1_554 S
O78 Mn73 2.121 . S
O78 C86 1.258 . S
C79 N80 1.326 . S
C79 C83 1.460 . S
C79 H85 0.929 . S
N80 Mn73 2.257 . S
N80 C79 1.326 . S
N80 C84 1.362 . S
C81 C82 1.256 1_455 S
C81 C84 1.418 1_455 S
C81 C101 1.464 . S
C82 C81 1.256 1_655 S
C82 C83 1.477 . S
C82 H102 0.931 1_655 S
C83 C79 1.460 . S
C83 C82 1.477 . S
C83 H103 0.930 . S
C84 N80 1.362 . S
C84 C81 1.418 1_655 S
C84 C94 1.476 . S
H85 C79 0.929 . S
C86 O77 1.250 1_556 S
C86 O78 1.258 . S
O87 Mn72 2.162 . S
O87 C75 1.281 . S
O88 Mn72 2.297 . S
O88 C75 1.236 . S
N89 Mn73 2.282 . S
N89 C90 1.328 . S
N89 C94 1.318 . S
C90 N89 1.328 . S
C90 C91 1.457 . S
C90 H95 0.929 . S
C91 C90 1.457 . S
C91 C92 1.291 1_655 S
C91 H104 0.931 . S
C92 C91 1.291 1_455 S
C92 C93 1.373 . S
C92 H105 0.929 . S
C93 C92 1.373 . S
C93 C94 1.396 1_455 S
C93 C100 1.403 . S
C94 C84 1.476 . S
C94 N89 1.318 . S
C94 C93 1.396 1_655 S
H95 C90 0.929 . S
O96 Mn72 2.385 . S
O96 C74 1.234 . S
O97 Mn72 2.209 . S
O97 Mn73 2.215 1_554 S
O97 C74 1.283 . S
O98 Mn72 2.094 1_556 S
O98 C76 1.240 . S
O99 Mn73 2.117 . S
O99 C76 1.264 . S
C100 C93 1.403 . S
C100 C101 1.399 . S
C100 H106 0.929 . S
C101 C81 1.464 . S
C101 C100 1.399 . S
C101 H107 0.930 . S
H102 C82 0.931 1_455 S
H103 C83 0.930 . S
H104 C91 0.931 . S
H105 C92 0.929 . S
H106 C100 0.929 . S
H107 C101 0.930 . S
Mn108 O113 2.095 . S
Mn108 O123 2.162 . S
Mn108 O124 2.297 . S
Mn108 O132 2.385 . S
Mn108 O133 2.209 . S
Mn108 O134 2.094 . S
Mn109 O114 2.121 . S
Mn109 N116 2.257 . S
Mn109 N125 2.282 . S
Mn109 O133 2.215 . S
Mn109 O135 2.117 . S
C110 O132 1.234 . S
C110 O133 1.283 . S
C111 O123 1.281 . S
C111 O124 1.236 . S
C112 O134 1.240 . S
C112 O135 1.264 . S
O113 Mn108 2.095 . S
O113 C122 1.250 . S
O114 Mn109 2.121 . S
O114 C122 1.258 . S
C115 N116 1.326 . S
C115 C119 1.460 . S
C115 H121 0.929 . S
N116 Mn109 2.257 . S
N116 C115 1.326 . S
N116 C120 1.362 . S
C117 C118 1.258 . S
C117 C120 1.431 . S
C117 C137 1.449 . S
C118 C117 1.258 . S
C118 C119 1.477 . S
C118 H138 0.931 . S
C119 C115 1.460 . S
C119 C118 1.477 . S
C119 H139 0.930 . S
C120 N116 1.362 . S
C120 C117 1.431 . S
C120 C130 1.476 . S
H121 C115 0.929 . S
C122 O113 1.250 . S
C122 O114 1.258 . S
O123 Mn108 2.162 . S
O123 C111 1.281 . S
O124 Mn108 2.297 . S
O124 C111 1.236 . S
N125 Mn109 2.282 . S
N125 C126 1.328 . S
N125 C130 1.318 . S
C126 N125 1.328 . S
C126 C127 1.457 . S
C126 H131 0.929 . S
C127 C126 1.457 . S
C127 C128 1.291 . S
C127 H140 0.931 . S
C128 C127 1.291 . S
C128 C129 1.373 . S
C128 H141 0.929 . S
C129 C128 1.373 . S
C129 C130 1.396 . S
C129 C136 1.403 . S
C130 C120 1.476 . S
C130 N125 1.318 . S
C130 C129 1.396 . S
H131 C126 0.929 . S
O132 Mn108 2.385 . S
O132 C110 1.234 . S
O133 Mn108 2.209 . S
O133 Mn109 2.215 . S
O133 C110 1.283 . S
O134 Mn108 2.094 . S
O134 C112 1.240 . S
O135 Mn109 2.117 . S
O135 C112 1.264 . S
C136 C129 1.403 . S
C136 C137 1.399 . S
C136 H142 0.929 . S
C137 C117 1.449 . S
C137 C136 1.399 . S
C137 H143 0.930 . S
H138 C118 0.931 . S
H139 C119 0.930 . S
H140 C127 0.931 . S
H141 C128 0.929 . S
H142 C136 0.929 . S
H143 C137 0.930 . S
Mn144 O149 2.095 . S
Mn144 O159 2.162 . S
Mn144 O160 2.297 . S
Mn144 O168 2.385 . S
Mn144 O169 2.209 . S
Mn144 O170 2.094 . S
Mn145 O150 2.121 . S
Mn145 N152 2.257 . S
Mn145 N161 2.282 . S
Mn145 O169 2.215 . S
Mn145 O171 2.117 . S
C146 O168 1.234 . S
C146 O169 1.283 . S
C147 O159 1.281 . S
C147 O160 1.236 . S
C148 O170 1.240 . S
C148 O171 1.264 . S
O149 Mn144 2.095 . S
O149 C158 1.250 . S
O150 Mn145 2.121 . S
O150 C158 1.258 . S
C151 N152 1.326 . S
C151 C155 1.460 . S
C151 H157 0.929 . S
N152 Mn145 2.257 . S
N152 C151 1.326 . S
N152 C156 1.362 . S
C153 C154 1.257 1_655 S
C153 C156 1.427 1_655 S
C153 C173 1.454 . S
C154 C153 1.257 1_455 S
C154 C155 1.477 . S
C154 H174 0.931 1_455 S
C155 C151 1.460 . S
C155 C154 1.477 . S
C155 H175 0.930 . S
C156 N152 1.362 . S
C156 C153 1.427 1_455 S
C156 C166 1.476 . S
H157 C151 0.929 . S
C158 O149 1.250 . S
C158 O150 1.258 . S
O159 Mn144 2.162 . S
O159 C147 1.281 . S
O160 Mn144 2.297 . S
O160 C147 1.236 . S
N161 Mn145 2.282 . S
N161 C162 1.328 . S
N161 C166 1.318 . S
C162 N161 1.328 . S
C162 C163 1.457 . S
C162 H167 0.929 . S
C163 C162 1.457 . S
C163 C164 1.291 1_455 S
C163 H176 0.931 . S
C164 C163 1.291 1_655 S
C164 C165 1.373 . S
C164 H177 0.929 . S
C165 C164 1.373 . S
C165 C166 1.396 1_655 S
C165 C172 1.403 . S
C166 C156 1.476 . S
C166 N161 1.318 . S
C166 C165 1.396 1_455 S
H167 C162 0.929 . S
O168 Mn144 2.385 . S
O168 C146 1.234 . S
O169 Mn144 2.209 . S
O169 Mn145 2.215 . S
O169 C146 1.283 . S
O170 Mn144 2.094 . S
O170 C148 1.240 . S
O171 Mn145 2.117 . S
O171 C148 1.264 . S
C172 C165 1.403 . S
C172 C173 1.399 . S
C172 H178 0.929 . S
C173 C153 1.454 . S
C173 C172 1.399 . S
C173 H179 0.930 . S
H174 C154 0.931 1_655 S
H175 C155 0.930 . S
H176 C163 0.931 . S
H177 C164 0.929 . S
H178 C172 0.929 . S
H179 C173 0.930 . S
Mn180 O185 2.095 . S
Mn180 O195 2.162 . S
Mn180 O196 2.297 . S
Mn180 O204 2.385 1_554 S
Mn180 O205 2.209 1_554 S
Mn180 O206 2.094 . S
Mn181 O186 2.121 . S
Mn181 N188 2.257 1_554 S
Mn181 N197 2.282 1_554 S
Mn181 O205 2.215 1_554 S
Mn181 O207 2.117 . S
C182 O204 1.234 . S
C182 O205 1.283 . S
C183 O195 1.281 . S
C183 O196 1.236 . S
C184 O206 1.240 . S
C184 O207 1.264 . S
O185 Mn180 2.095 . S
O185 C194 1.250 . S
O186 Mn181 2.121 . S
O186 C194 1.258 . S
C187 N188 1.326 1_554 S
C187 C191 1.460 1_554 S
C187 H193 0.929 . S
N188 Mn181 2.257 1_556 S
N188 C187 1.326 1_556 S
N188 C192 1.362 . S
C189 C190 1.258 . S
C189 C192 1.431 . S
C189 C209 1.449 . S
C190 C189 1.258 . S
C190 C191 1.477 . S
C190 H210 0.931 . S
C191 C187 1.460 1_556 S
C191 C190 1.477 . S
C191 H211 0.930 1_556 S
C192 N188 1.362 . S
C192 C189 1.431 . S
C192 C202 1.476 . S
H193 C187 0.929 . S
C194 O185 1.250 . S
C194 O186 1.258 . S
O195 Mn180 2.162 . S
O195 C183 1.281 . S
O196 Mn180 2.297 . S
O196 C183 1.236 . S
N197 Mn181 2.282 1_556 S
N197 C198 1.328 . S
N197 C202 1.318 . S
C198 N197 1.328 . S
C198 C199 1.457 . S
C198 H203 0.929 . S
C199 C198 1.457 . S
C199 C200 1.291 . S
C199 H212 0.931 . S
C200 C199 1.291 . S
C200 C201 1.373 . S
C200 H213 0.929 . S
C201 C200 1.373 . S
C201 C202 1.396 . S
C201 C208 1.403 . S
C202 C192 1.476 . S
C202 N197 1.318 . S
C202 C201 1.396 . S
H203 C198 0.929 . S
O204 Mn180 2.385 1_556 S
O204 C182 1.234 . S
O205 Mn180 2.209 1_556 S
O205 Mn181 2.215 1_556 S
O205 C182 1.283 . S
O206 Mn180 2.094 . S
O206 C184 1.240 . S
O207 Mn181 2.117 . S
O207 C184 1.264 . S
C208 C201 1.403 . S
C208 C209 1.399 . S
C208 H214 0.929 . S
C209 C189 1.449 . S
C209 C208 1.399 . S
C209 H215 0.930 . S
H210 C190 0.931 . S
H211 C191 0.930 1_554 S
H212 C199 0.931 . S
H213 C200 0.929 . S
H214 C208 0.929 . S
H215 C209 0.930 . S
Mn216 O221 2.095 . S
Mn216 O231 2.162 . S
Mn216 O232 2.297 . S
Mn216 O240 2.385 . S
Mn216 O241 2.209 . S
Mn216 O242 2.094 . S
Mn217 O222 2.121 . S
Mn217 N224 2.257 . S
Mn217 N233 2.282 . S
Mn217 O241 2.215 . S
Mn217 O243 2.117 . S
C218 O240 1.234 . S
C218 O241 1.283 . S
C219 O231 1.281 . S
C219 O232 1.236 . S
C220 O242 1.240 . S
C220 O243 1.264 . S
O221 Mn216 2.095 . S
O221 C230 1.250 . S
O222 Mn217 2.121 . S
O222 C230 1.258 . S
C223 N224 1.326 . S
C223 C227 1.460 . S
C223 H229 0.929 . S
N224 Mn217 2.257 . S
N224 C223 1.326 . S
N224 C228 1.362 . S
C225 C226 1.257 1_455 S
C225 C228 1.427 1_455 S
C225 C245 1.454 . S
C226 C225 1.257 1_655 S
C226 C227 1.477 . S
C226 H246 0.931 1_655 S
C227 C223 1.460 . S
C227 C226 1.477 . S
C227 H247 0.930 . S
C228 N224 1.362 . S
C228 C225 1.427 1_655 S
C228 C238 1.476 . S
H229 C223 0.929 . S
C230 O221 1.250 . S
C230 O222 1.258 . S
O231 Mn216 2.162 . S
O231 C219 1.281 . S
O232 Mn216 2.297 . S
O232 C219 1.236 . S
N233 Mn217 2.282 . S
N233 C234 1.328 . S
N233 C238 1.318 . S
C234 N233 1.328 . S
C234 C235 1.457 . S
C234 H239 0.929 . S
C235 C234 1.457 . S
C235 C236 1.291 1_655 S
C235 H248 0.931 . S
C236 C235 1.291 1_455 S
C236 C237 1.373 . S
C236 H249 0.929 . S
C237 C236 1.373 . S
C237 C238 1.396 1_455 S
C237 C244 1.403 . S
C238 C228 1.476 . S
C238 N233 1.318 . S
C238 C237 1.396 1_655 S
H239 C234 0.929 . S
O240 Mn216 2.385 . S
O240 C218 1.234 . S
O241 Mn216 2.209 . S
O241 Mn217 2.215 . S
O241 C218 1.283 . S
O242 Mn216 2.094 . S
O242 C220 1.240 . S
O243 Mn217 2.117 . S
O243 C220 1.264 . S
C244 C237 1.403 . S
C244 C245 1.399 . S
C244 H250 0.929 . S
C245 C225 1.454 . S
C245 C244 1.399 . S
C245 H251 0.930 . S
H246 C226 0.931 1_455 S
H247 C227 0.930 . S
H248 C235 0.931 . S
H249 C236 0.929 . S
H250 C244 0.929 . S
H251 C245 0.930 . S
Mn252 O257 2.095 . S
Mn252 O267 2.162 . S
Mn252 O268 2.297 . S
Mn252 O276 2.385 1_554 S
Mn252 O277 2.209 1_554 S
Mn252 O278 2.094 . S
Mn253 O258 2.121 . S
Mn253 N260 2.257 1_554 S
Mn253 N269 2.282 1_554 S
Mn253 O277 2.215 1_554 S
Mn253 O279 2.117 . S
C254 O276 1.234 . S
C254 O277 1.283 . S
C255 O267 1.281 . S
C255 O268 1.236 . S
C256 O278 1.240 . S
C256 O279 1.264 . S
O257 Mn252 2.095 . S
O257 C266 1.250 . S
O258 Mn253 2.121 . S
O258 C266 1.258 . S
C259 N260 1.326 1_554 S
C259 C263 1.460 1_554 S
C259 H265 0.929 . S
N260 Mn253 2.257 1_556 S
N260 C259 1.326 1_556 S
N260 C264 1.362 . S
C261 C262 1.258 . S
C261 C264 1.431 . S
C261 C281 1.449 . S
C262 C261 1.258 . S
C262 C263 1.477 . S
C262 H282 0.931 . S
C263 C259 1.460 1_556 S
C263 C262 1.477 . S
C263 H283 0.930 1_556 S
C264 N260 1.362 . S
C264 C261 1.431 . S
C264 C274 1.476 . S
H265 C259 0.929 . S
C266 O257 1.250 . S
C266 O258 1.258 . S
O267 Mn252 2.162 . S
O267 C255 1.281 . S
O268 Mn252 2.297 . S
O268 C255 1.236 . S
N269 Mn253 2.282 1_556 S
N269 C270 1.328 . S
N269 C274 1.318 . S
C270 N269 1.328 . S
C270 C271 1.457 . S
C270 H275 0.929 . S
C271 C270 1.457 . S
C271 C272 1.291 . S
C271 H284 0.931 . S
C272 C271 1.291 . S
C272 C273 1.373 . S
C272 H285 0.929 . S
C273 C272 1.373 . S
C273 C274 1.396 . S
C273 C280 1.403 . S
C274 C264 1.476 . S
C274 N269 1.318 . S
C274 C273 1.396 . S
H275 C270 0.929 . S
O276 Mn252 2.385 1_556 S
O276 C254 1.234 . S
O277 Mn252 2.209 1_556 S
O277 Mn253 2.215 1_556 S
O277 C254 1.283 . S
O278 Mn252 2.094 . S
O278 C256 1.240 . S
O279 Mn253 2.117 . S
O279 C256 1.264 . S
C280 C273 1.403 . S
C280 C281 1.399 . S
C280 H286 0.929 . S
C281 C261 1.449 . S
C281 C280 1.399 . S
C281 H287 0.930 . S
H282 C262 0.931 . S
H283 C263 0.930 1_554 S
H284 C271 0.931 . S
H285 C272 0.929 . S
H286 C280 0.929 . S
H287 C281 0.930 . S
C288 C289 1.363 . S
C288 C294 1.379 . S
C288 N296 1.356 . S
C289 C288 1.363 . S
C289 C295 1.363 . S
C290 C291 1.363 . S
C290 C295 1.379 . S
C290 N297 1.356 . S
C291 C290 1.363 . S
C291 C294 1.363 . S
N292 C294 1.356 . S
N292 H304 0.984 . S
N292 H305 0.985 . S
N293 C295 1.356 . S
N293 H298 0.984 . S
N293 H299 0.985 . S
C294 C288 1.379 . S
C294 C291 1.363 . S
C294 N292 1.356 . S
C295 C289 1.363 . S
C295 C290 1.379 . S
C295 N293 1.356 . S
N296 C288 1.356 . S
N296 H302 0.984 . S
N296 H303 0.984 . S
N297 C290 1.356 . S
N297 H300 0.984 . S
N297 H301 0.985 . S
H298 N293 0.984 . S
H299 N293 0.985 . S
H300 N297 0.984 . S
H301 N297 0.985 . S
H302 N296 0.984 . S
H303 N296 0.984 . S
H304 N292 0.984 . S
H305 N292 0.985 . S
C306 C307 1.363 . S
C306 C312 1.379 . S
C306 N314 1.356 . S
C307 C306 1.363 . S
C307 C313 1.363 . S
C308 C309 1.363 . S
C308 C313 1.379 . S
C308 N315 1.356 . S
C309 C308 1.363 . S
C309 C312 1.363 . S
N310 C312 1.356 . S
N310 H322 0.984 . S
N310 H323 0.985 . S
N311 C313 1.356 . S
N311 H316 0.984 . S
N311 H317 0.985 . S
C312 C306 1.379 . S
C312 C309 1.363 . S
C312 N310 1.356 . S
C313 C307 1.363 . S
C313 C308 1.379 . S
C313 N311 1.356 . S
N314 C306 1.356 . S
N314 H320 0.984 . S
N314 H321 0.984 . S
N315 C308 1.356 . S
N315 H318 0.984 . S
N315 H319 0.985 . S
H316 N311 0.984 . S
H317 N311 0.985 . S
H318 N315 0.984 . S
H319 N315 0.985 . S
H320 N314 0.984 . S
H321 N314 0.984 . S
H322 N310 0.984 . S
H323 N310 0.985 . S
C324 C325 1.363 . S
C324 C330 1.379 . S
C324 N332 1.356 . S
C325 C324 1.363 . S
C325 C331 1.363 . S
C326 C327 1.363 . S
C326 C331 1.379 . S
C326 N333 1.356 . S
C327 C326 1.363 . S
C327 C330 1.363 . S
N328 C330 1.356 . S
N328 H340 0.984 . S
N328 H341 0.985 . S
N329 C331 1.356 . S
N329 H334 0.984 . S
N329 H335 0.985 . S
C330 C324 1.379 . S
C330 C327 1.363 . S
C330 N328 1.356 . S
C331 C325 1.363 . S
C331 C326 1.379 . S
C331 N329 1.356 . S
N332 C324 1.356 . S
N332 H338 0.984 . S
N332 H339 0.984 . S
N333 C326 1.356 . S
N333 H336 0.984 . S
N333 H337 0.985 . S
H334 N329 0.984 . S
H335 N329 0.985 . S
H336 N333 0.984 . S
H337 N333 0.985 . S
H338 N332 0.984 . S
H339 N332 0.984 . S
H340 N328 0.984 . S
H341 N328 0.985 . S
C342 C343 1.363 . S
C342 C348 1.379 . S
C342 N350 1.356 . S
C343 C342 1.363 . S
C343 C349 1.363 . S
C344 C345 1.363 . S
C344 C349 1.379 . S
C344 N351 1.356 . S
C345 C344 1.363 . S
C345 C348 1.363 . S
N346 C348 1.356 . S
N346 H358 0.984 . S
N346 H359 0.985 . S
N347 C349 1.356 . S
N347 H352 0.984 . S
N347 H353 0.985 . S
C348 C342 1.379 . S
C348 C345 1.363 . S
C348 N346 1.356 . S
C349 C343 1.363 . S
C349 C344 1.379 . S
C349 N347 1.356 . S
N350 C342 1.356 . S
N350 H356 0.984 . S
N350 H357 0.984 . S
N351 C344 1.356 . S
N351 H354 0.984 . S
N351 H355 0.985 . S
H352 N347 0.984 . S
H353 N347 0.985 . S
H354 N351 0.984 . S
H355 N351 0.985 . S
H356 N350 0.984 . S
H357 N350 0.984 . S
H358 N346 0.984 . S
H359 N346 0.985 . S
C360 C361 1.363 . S
C360 C366 1.379 . S
C360 N368 1.356 . S
C361 C360 1.363 . S
C361 C367 1.363 . S
C362 C363 1.363 . S
C362 C367 1.379 . S
C362 N369 1.356 . S
C363 C362 1.363 . S
C363 C366 1.363 . S
N364 C366 1.356 . S
N364 H376 0.984 . S
N364 H377 0.985 . S
N365 C367 1.356 . S
N365 H370 0.984 . S
N365 H371 0.985 . S
C366 C360 1.379 . S
C366 C363 1.363 . S
C366 N364 1.356 . S
C367 C361 1.363 . S
C367 C362 1.379 . S
C367 N365 1.356 . S
N368 C360 1.356 . S
N368 H374 0.984 . S
N368 H375 0.984 . S
N369 C362 1.356 . S
N369 H372 0.984 . S
N369 H373 0.985 . S
H370 N365 0.984 . S
H371 N365 0.985 . S
H372 N369 0.984 . S
H373 N369 0.985 . S
H374 N368 0.984 . S
H375 N368 0.984 . S
H376 N364 0.984 . S
H377 N364 0.985 . S
C378 C379 1.363 . S
C378 C384 1.379 . S
C378 N386 1.356 . S
C379 C378 1.363 . S
C379 C385 1.363 . S
C380 C381 1.363 . S
C380 C385 1.379 . S
C380 N387 1.356 . S
C381 C380 1.363 . S
C381 C384 1.363 . S
N382 C384 1.356 . S
N382 H394 0.984 . S
N382 H395 0.985 . S
N383 C385 1.356 . S
N383 H388 0.984 . S
N383 H389 0.985 . S
C384 C378 1.379 . S
C384 C381 1.363 . S
C384 N382 1.356 . S
C385 C379 1.363 . S
C385 C380 1.379 . S
C385 N383 1.356 . S
N386 C378 1.356 . S
N386 H392 0.984 . S
N386 H393 0.984 . S
N387 C380 1.356 . S
N387 H390 0.984 . S
N387 H391 0.985 . S
H388 N383 0.984 . S
H389 N383 0.985 . S
H390 N387 0.984 . S
H391 N387 0.985 . S
H392 N386 0.984 . S
H393 N386 0.984 . S
H394 N382 0.984 . S
H395 N382 0.985 . S
C396 C397 1.363 . S
C396 C402 1.379 . S
C396 N404 1.356 . S
C397 C396 1.363 . S
C397 C403 1.363 . S
C398 C399 1.363 . S
C398 C403 1.379 . S
C398 N405 1.356 . S
C399 C398 1.363 . S
C399 C402 1.363 . S
N400 C402 1.356 . S
N400 H412 0.984 . S
N400 H413 0.985 . S
N401 C403 1.356 . S
N401 H406 0.984 . S
N401 H407 0.985 . S
C402 C396 1.379 . S
C402 C399 1.363 . S
C402 N400 1.356 . S
C403 C397 1.363 . S
C403 C398 1.379 . S
C403 N401 1.356 . S
N404 C396 1.356 . S
N404 H410 0.984 . S
N404 H411 0.984 . S
N405 C398 1.356 . S
N405 H408 0.984 . S
N405 H409 0.985 . S
H406 N401 0.984 . S
H407 N401 0.985 . S
H408 N405 0.984 . S
H409 N405 0.985 . S
H410 N404 0.984 . S
H411 N404 0.984 . S
H412 N400 0.984 . S
H413 N400 0.985 . S
C414 C415 1.363 . S
C414 C420 1.379 . S
C414 N422 1.356 . S
C415 C414 1.363 . S
C415 C421 1.363 . S
C416 C417 1.363 . S
C416 C421 1.379 . S
C416 N423 1.356 . S
C417 C416 1.363 . S
C417 C420 1.363 . S
N418 C420 1.356 . S
N418 H430 0.984 . S
N418 H431 0.985 . S
N419 C421 1.356 . S
N419 H424 0.984 . S
N419 H425 0.985 . S
C420 C414 1.379 . S
C420 C417 1.363 . S
C420 N418 1.356 . S
C421 C415 1.363 . S
C421 C416 1.379 . S
C421 N419 1.356 . S
N422 C414 1.356 . S
N422 H428 0.984 . S
N422 H429 0.984 . S
N423 C416 1.356 . S
N423 H426 0.984 . S
N423 H427 0.985 . S
H424 N419 0.984 . S
H425 N419 0.985 . S
H426 N423 0.984 . S
H427 N423 0.985 . S
H428 N422 0.984 . S
H429 N422 0.984 . S
H430 N418 0.984 . S
H431 N418 0.985 . S
C432 C433 1.363 1_556 S
C432 C438 1.379 1_655 S
C432 N440 1.356 . S
C433 C432 1.363 1_554 S
C433 C439 1.363 . S
C434 C435 1.363 . S
C434 C439 1.379 1_455 S
C434 N441 1.356 . S
C435 C434 1.363 . S
C435 C438 1.363 1_554 S
N436 C438 1.356 . S
N436 H448 0.984 . S
N436 H449 0.985 . S
N437 C439 1.356 . S
N437 H442 0.984 . S
N437 H443 0.985 . S
C438 C432 1.379 1_455 S
C438 C435 1.363 1_556 S
C438 N436 1.356 . S
C439 C433 1.363 . S
C439 C434 1.379 1_655 S
C439 N437 1.356 . S
N440 C432 1.356 . S
N440 H446 0.984 . S
N440 H447 0.984 . S
N441 C434 1.356 . S
N441 H444 0.984 . S
N441 H445 0.985 . S
H442 N437 0.984 . S
H443 N437 0.985 . S
H444 N441 0.984 . S
H445 N441 0.985 . S
H446 N440 0.984 . S
H447 N440 0.984 . S
H448 N436 0.984 . S
H449 N436 0.985 . S
C450 C451 1.363 . S
C450 C456 1.379 1_565 S
C450 N458 1.356 . S
C451 C450 1.363 . S
C451 C457 1.363 . S
C452 C453 1.363 . S
C452 C457 1.379 1_545 S
C452 N459 1.356 . S
C453 C452 1.363 . S
C453 C456 1.363 . S
N454 C456 1.356 . S
N454 H466 0.984 . S
N454 H467 0.985 . S
N455 C457 1.356 . S
N455 H460 0.984 . S
N455 H461 0.985 . S
C456 C450 1.379 1_545 S
C456 C453 1.363 . S
C456 N454 1.356 . S
C457 C451 1.363 . S
C457 C452 1.379 1_565 S
C457 N455 1.356 . S
N458 C450 1.356 . S
N458 H464 0.984 . S
N458 H465 0.984 . S
N459 C452 1.356 . S
N459 H462 0.984 . S
N459 H463 0.985 . S
H460 N455 0.984 . S
H461 N455 0.985 . S
H462 N459 0.984 . S
H463 N459 0.985 . S
H464 N458 0.984 . S
H465 N458 0.984 . S
H466 N454 0.984 . S
H467 N454 0.985 . S
C468 C469 1.363 . S
C468 C474 1.379 1_455 S
C468 N476 1.356 . S
C469 C468 1.363 . S
C469 C475 1.363 . S
C470 C471 1.363 . S
C470 C475 1.379 1_655 S
C470 N477 1.356 . S
C471 C470 1.363 . S
C471 C474 1.363 . S
N472 C474 1.356 . S
N472 H484 0.984 . S
N472 H485 0.985 . S
N473 C475 1.356 . S
N473 H478 0.984 . S
N473 H479 0.985 . S
C474 C468 1.379 1_655 S
C474 C471 1.363 . S
C474 N472 1.356 . S
C475 C469 1.363 . S
C475 C470 1.379 1_455 S
C475 N473 1.356 . S
N476 C468 1.356 . S
N476 H482 0.984 . S
N476 H483 0.984 . S
N477 C470 1.356 . S
N477 H480 0.984 . S
N477 H481 0.985 . S
H478 N473 0.984 . S
H479 N473 0.985 . S
H480 N477 0.984 . S
H481 N477 0.985 . S
H482 N476 0.984 . S
H483 N476 0.984 . S
H484 N472 0.984 . S
H485 N472 0.985 . S
C486 C487 1.363 1_556 S
C486 C492 1.379 1_565 S
C486 N494 1.356 . S
C487 C486 1.363 1_554 S
C487 C493 1.363 . S
C488 C489 1.363 . S
C488 C493 1.379 1_545 S
C488 N495 1.356 . S
C489 C488 1.363 . S
C489 C492 1.363 1_554 S
N490 C492 1.356 . S
N490 H502 0.984 . S
N490 H503 0.985 . S
N491 C493 1.356 . S
N491 H496 0.984 . S
N491 H497 0.985 . S
C492 C486 1.379 1_545 S
C492 C489 1.363 1_556 S
C492 N490 1.356 . S
C493 C487 1.363 . S
C493 C488 1.379 1_565 S
C493 N491 1.356 . S
N494 C486 1.356 . S
N494 H500 0.984 . S
N494 H501 0.984 . S
N495 C488 1.356 . S
N495 H498 0.984 . S
N495 H499 0.985 . S
H496 N491 0.984 . S
H497 N491 0.985 . S
H498 N495 0.984 . S
H499 N495 0.985 . S
H500 N494 0.984 . S
H501 N494 0.984 . S
H502 N490 0.984 . S
H503 N490 0.985 . S
C504 C505 1.363 . S
C504 C510 1.379 . S
C504 N512 1.356 . S
C505 C504 1.363 . S
C505 C511 1.363 1_554 S
C506 C507 1.363 1_556 S
C506 C511 1.379 . S
C506 N513 1.356 . S
C507 C506 1.363 1_554 S
C507 C510 1.363 . S
N508 C510 1.356 . S
N508 H520 0.984 . S
N508 H521 0.985 . S
N509 C511 1.356 . S
N509 H514 0.984 . S
N509 H515 0.985 . S
C510 C504 1.379 . S
C510 C507 1.363 . S
C510 N508 1.356 . S
C511 C505 1.363 1_556 S
C511 C506 1.379 . S
C511 N509 1.356 . S
N512 C504 1.356 . S
N512 H518 0.984 . S
N512 H519 0.984 . S
N513 C506 1.356 . S
N513 H516 0.984 . S
N513 H517 0.985 . S
H514 N509 0.984 . S
H515 N509 0.985 . S
H516 N513 0.984 . S
H517 N513 0.985 . S
H518 N512 0.984 . S
H519 N512 0.984 . S
H520 N508 0.984 . S
H521 N508 0.985 . S
C522 C523 1.363 . S
C522 C528 1.379 . S
C522 N530 1.356 . S
C523 C522 1.363 . S
C523 C529 1.363 . S
C524 C525 1.363 . S
C524 C529 1.379 . S
C524 N531 1.356 . S
C525 C524 1.363 . S
C525 C528 1.363 . S
N526 C528 1.356 . S
N526 H538 0.984 . S
N526 H539 0.985 . S
N527 C529 1.356 . S
N527 H532 0.984 . S
N527 H533 0.985 . S
C528 C522 1.379 . S
C528 C525 1.363 . S
C528 N526 1.356 . S
C529 C523 1.363 . S
C529 C524 1.379 . S
C529 N527 1.356 . S
N530 C522 1.356 . S
N530 H536 0.984 . S
N530 H537 0.984 . S
N531 C524 1.356 . S
N531 H534 0.984 . S
N531 H535 0.985 . S
H532 N527 0.984 . S
H533 N527 0.985 . S
H534 N531 0.984 . S
H535 N531 0.985 . S
H536 N530 0.984 . S
H537 N530 0.984 . S
H538 N526 0.984 . S
H539 N526 0.985 . S
C540 C541 1.363 1_556 S
C540 C546 1.379 . S
C540 N548 1.356 . S
C541 C540 1.363 1_554 S
C541 C547 1.363 . S
C542 C543 1.363 . S
C542 C547 1.379 . S
C542 N549 1.356 . S
C543 C542 1.363 . S
C543 C546 1.363 1_554 S
N544 C546 1.356 . S
N544 H556 0.984 . S
N544 H557 0.985 . S
N545 C547 1.356 . S
N545 H550 0.984 . S
N545 H551 0.985 . S
C546 C540 1.379 . S
C546 C543 1.363 1_556 S
C546 N544 1.356 . S
C547 C541 1.363 . S
C547 C542 1.379 . S
C547 N545 1.356 . S
N548 C540 1.356 . S
N548 H554 0.984 . S
N548 H555 0.984 . S
N549 C542 1.356 . S
N549 H552 0.984 . S
N549 H553 0.985 . S
H550 N545 0.984 . S
H551 N545 0.985 . S
H552 N549 0.984 . S
H553 N549 0.985 . S
H554 N548 0.984 . S
H555 N548 0.984 . S
H556 N544 0.984 . S
H557 N544 0.985 . S
C558 C559 1.363 . S
C558 C564 1.379 . S
C558 N566 1.356 . S
C559 C558 1.363 . S
C559 C565 1.363 . S
C560 C561 1.363 . S
C560 C565 1.379 . S
C560 N567 1.356 . S
C561 C560 1.363 . S
C561 C564 1.363 . S
N562 C564 1.356 . S
N562 H574 0.984 . S
N562 H575 0.985 . S
N563 C565 1.356 . S
N563 H568 0.984 . S
N563 H569 0.985 . S
C564 C558 1.379 . S
C564 C561 1.363 . S
C564 N562 1.356 . S
C565 C559 1.363 . S
C565 C560 1.379 . S
C565 N563 1.356 . S
N566 C558 1.356 . S
N566 H572 0.984 . S
N566 H573 0.984 . S
N567 C560 1.356 . S
N567 H570 0.984 . S
N567 H571 0.985 . S
H568 N563 0.984 . S
H569 N563 0.985 . S
H570 N567 0.984 . S
H571 N567 0.985 . S
H572 N566 0.984 . S
H573 N566 0.984 . S
H574 N562 0.984 . S
H575 N562 0.985 . S
C289 C3 1.189 . S
C291 C147 1.189 . S
C307 C38 1.512 . S
C309 C182 1.512 . S
C325 C219 1.189 . S
C327 C75 1.189 . S
C343 C254 1.512 . S
C345 C110 1.512 . S
C361 C220 1.165 . S
C363 C76 1.165 . S
C379 C266 1.644 . S
C381 C122 1.644 . S
C397 C4 1.165 . S
C399 C148 1.165 . S
C415 C50 1.644 . S
C417 C194 1.644 . S
C433 C74 1.383 . S
C435 C2 1.383 . S
C451 C111 1.469 . S
C453 C39 1.469 . S
C469 C146 1.382 . S
C471 C218 1.382 . S
C487 C255 1.472 . S
C489 C183 1.472 . S
C505 C14 1.321 1_554 S
C507 C184 1.330 . S
C523 C230 1.321 . S
C525 C40 1.330 . S
C541 C86 1.321 1_554 S
C543 C256 1.330 . S
C559 C112 1.330 . S
C561 C158 1.321 . S
