# Generated by pormake.
# Topology nfb, (4)-cn, num edge types: 1
# Building blocks:
#     Node 0, Type 0, BuildingBlock: AZAVOO_clean_sbu_0, # of connection points: 4
#     Node 1, Type 0, BuildingBlock: AZAVOO_clean_sbu_0, # of connection points: 4
#     Node 2, Type 0, BuildingBlock: AZAVOO_clean_sbu_0, # of connection points: 4
#     Node 3, Type 0, BuildingBlock: AZAVOO_clean_sbu_0, # of connection points: 4
#     Node 4, Type 0, BuildingBlock: AZAVOO_clean_sbu_0, # of connection points: 4
#     Node 5, Type 0, BuildingBlock: AZAVOO_clean_sbu_0, # of connection points: 4
#     Node 6, Type 0, BuildingBlock: AZAVOO_clean_sbu_0, # of connection points: 4
#     Node 7, Type 0, BuildingBlock: AZAVOO_clean_sbu_0, # of connection points: 4
#     Node 8, Type 0, BuildingBlock: AZAVOO_clean_sbu_0, # of connection points: 4
#     Node 9, Type 0, BuildingBlock: AZAVOO_clean_sbu_0, # of connection points: 4
#     Node 10, Type 0, BuildingBlock: AZAVOO_clean_sbu_0, # of connection points: 4
#     Node 11, Type 0, BuildingBlock: AZAVOO_clean_sbu_0, # of connection points: 4
#     Node 12, Type 0, BuildingBlock: AZAVOO_clean_sbu_0, # of connection points: 4
#     Node 13, Type 0, BuildingBlock: AZAVOO_clean_sbu_0, # of connection points: 4
#     Node 14, Type 0, BuildingBlock: AZAVOO_clean_sbu_0, # of connection points: 4
#     Node 15, Type 0, BuildingBlock: AZAVOO_clean_sbu_0, # of connection points: 4
#     Node 16, Type 0, BuildingBlock: AZAVOO_clean_sbu_0, # of connection points: 4
#     Node 17, Type 0, BuildingBlock: AZAVOO_clean_sbu_0, # of connection points: 4
#     Node 18, Type 0, BuildingBlock: AZAVOO_clean_sbu_0, # of connection points: 4
#     Node 19, Type 0, BuildingBlock: AZAVOO_clean_sbu_0, # of connection points: 4
#     Node 20, Type 0, BuildingBlock: AZAVOO_clean_sbu_0, # of connection points: 4
#     Node 21, Type 0, BuildingBlock: AZAVOO_clean_sbu_0, # of connection points: 4
#     Node 22, Type 0, BuildingBlock: AZAVOO_clean_sbu_0, # of connection points: 4
#     Node 23, Type 0, BuildingBlock: AZAVOO_clean_sbu_0, # of connection points: 4
#     Node 24, Type 0, BuildingBlock: AZAVOO_clean_sbu_0, # of connection points: 4
#     Node 25, Type 0, BuildingBlock: AZAVOO_clean_sbu_0, # of connection points: 4
#     Node 26, Type 0, BuildingBlock: AZAVOO_clean_sbu_0, # of connection points: 4
#     Node 27, Type 0, BuildingBlock: AZAVOO_clean_sbu_0, # of connection points: 4
#     Node 28, Type 0, BuildingBlock: AZAVOO_clean_sbu_0, # of connection points: 4
#     Node 29, Type 0, BuildingBlock: AZAVOO_clean_sbu_0, # of connection points: 4
#     Node 30, Type 0, BuildingBlock: AZAVOO_clean_sbu_0, # of connection points: 4
#     Node 31, Type 0, BuildingBlock: AZAVOO_clean_sbu_0, # of connection points: 4
#     Node 32, Type 0, BuildingBlock: AZAVOO_clean_sbu_0, # of connection points: 4
#     Node 33, Type 0, BuildingBlock: AZAVOO_clean_sbu_0, # of connection points: 4
#     Node 34, Type 0, BuildingBlock: AZAVOO_clean_sbu_0, # of connection points: 4
#     Node 35, Type 0, BuildingBlock: AZAVOO_clean_sbu_0, # of connection points: 4
#     Node 36, Type 0, BuildingBlock: AZAVOO_clean_sbu_0, # of connection points: 4
#     Node 37, Type 0, BuildingBlock: AZAVOO_clean_sbu_0, # of connection points: 4
#     Node 38, Type 0, BuildingBlock: AZAVOO_clean_sbu_0, # of connection points: 4
#     Node 39, Type 0, BuildingBlock: AZAVOO_clean_sbu_0, # of connection points: 4
#     Node 40, Type 0, BuildingBlock: AZAVOO_clean_sbu_0, # of connection points: 4
#     Node 41, Type 0, BuildingBlock: AZAVOO_clean_sbu_0, # of connection points: 4
#     Node 42, Type 0, BuildingBlock: AZAVOO_clean_sbu_0, # of connection points: 4
#     Node 43, Type 0, BuildingBlock: AZAVOO_clean_sbu_0, # of connection points: 4
#     Node 44, Type 0, BuildingBlock: AZAVOO_clean_sbu_0, # of connection points: 4
#     Node 45, Type 0, BuildingBlock: AZAVOO_clean_sbu_0, # of connection points: 4
#     Node 46, Type 0, BuildingBlock: AZAVOO_clean_sbu_0, # of connection points: 4
#     Node 47, Type 0, BuildingBlock: AZAVOO_clean_sbu_0, # of connection points: 4
#     Edge 48, Type (0, 0), BuildingBlock: TEMPAE_clean_linker_10, # of connection points: 2
#     Edge 49, Type (0, 0), BuildingBlock: TEMPAE_clean_linker_10, # of connection points: 2
#     Edge 50, Type (0, 0), BuildingBlock: TEMPAE_clean_linker_10, # of connection points: 2
#     Edge 51, Type (0, 0), BuildingBlock: TEMPAE_clean_linker_10, # of connection points: 2
#     Edge 52, Type (0, 0), BuildingBlock: TEMPAE_clean_linker_10, # of connection points: 2
#     Edge 53, Type (0, 0), BuildingBlock: TEMPAE_clean_linker_10, # of connection points: 2
#     Edge 54, Type (0, 0), BuildingBlock: TEMPAE_clean_linker_10, # of connection points: 2
#     Edge 55, Type (0, 0), BuildingBlock: TEMPAE_clean_linker_10, # of connection points: 2
#     Edge 56, Type (0, 0), BuildingBlock: TEMPAE_clean_linker_10, # of connection points: 2
#     Edge 57, Type (0, 0), BuildingBlock: TEMPAE_clean_linker_10, # of connection points: 2
#     Edge 58, Type (0, 0), BuildingBlock: TEMPAE_clean_linker_10, # of connection points: 2
#     Edge 59, Type (0, 0), BuildingBlock: TEMPAE_clean_linker_10, # of connection points: 2
#     Edge 60, Type (0, 0), BuildingBlock: TEMPAE_clean_linker_10, # of connection points: 2
#     Edge 61, Type (0, 0), BuildingBlock: TEMPAE_clean_linker_10, # of connection points: 2
#     Edge 62, Type (0, 0), BuildingBlock: TEMPAE_clean_linker_10, # of connection points: 2
#     Edge 63, Type (0, 0), BuildingBlock: TEMPAE_clean_linker_10, # of connection points: 2
#     Edge 64, Type (0, 0), BuildingBlock: TEMPAE_clean_linker_10, # of connection points: 2
#     Edge 65, Type (0, 0), BuildingBlock: TEMPAE_clean_linker_10, # of connection points: 2
#     Edge 66, Type (0, 0), BuildingBlock: TEMPAE_clean_linker_10, # of connection points: 2
#     Edge 67, Type (0, 0), BuildingBlock: TEMPAE_clean_linker_10, # of connection points: 2
#     Edge 68, Type (0, 0), BuildingBlock: TEMPAE_clean_linker_10, # of connection points: 2
#     Edge 69, Type (0, 0), BuildingBlock: TEMPAE_clean_linker_10, # of connection points: 2
#     Edge 70, Type (0, 0), BuildingBlock: TEMPAE_clean_linker_10, # of connection points: 2
#     Edge 71, Type (0, 0), BuildingBlock: TEMPAE_clean_linker_10, # of connection points: 2
#     Edge 72, Type (0, 0), BuildingBlock: TEMPAE_clean_linker_10, # of connection points: 2
#     Edge 73, Type (0, 0), BuildingBlock: TEMPAE_clean_linker_10, # of connection points: 2
#     Edge 74, Type (0, 0), BuildingBlock: TEMPAE_clean_linker_10, # of connection points: 2
#     Edge 75, Type (0, 0), BuildingBlock: TEMPAE_clean_linker_10, # of connection points: 2
#     Edge 76, Type (0, 0), BuildingBlock: TEMPAE_clean_linker_10, # of connection points: 2
#     Edge 77, Type (0, 0), BuildingBlock: TEMPAE_clean_linker_10, # of connection points: 2
#     Edge 78, Type (0, 0), BuildingBlock: TEMPAE_clean_linker_10, # of connection points: 2
#     Edge 79, Type (0, 0), BuildingBlock: TEMPAE_clean_linker_10, # of connection points: 2
#     Edge 80, Type (0, 0), BuildingBlock: TEMPAE_clean_linker_10, # of connection points: 2
#     Edge 81, Type (0, 0), BuildingBlock: TEMPAE_clean_linker_10, # of connection points: 2
#     Edge 82, Type (0, 0), BuildingBlock: TEMPAE_clean_linker_10, # of connection points: 2
#     Edge 83, Type (0, 0), BuildingBlock: TEMPAE_clean_linker_10, # of connection points: 2
#     Edge 84, Type (0, 0), BuildingBlock: TEMPAE_clean_linker_10, # of connection points: 2
#     Edge 85, Type (0, 0), BuildingBlock: TEMPAE_clean_linker_10, # of connection points: 2
#     Edge 86, Type (0, 0), BuildingBlock: TEMPAE_clean_linker_10, # of connection points: 2
#     Edge 87, Type (0, 0), BuildingBlock: TEMPAE_clean_linker_10, # of connection points: 2
#     Edge 88, Type (0, 0), BuildingBlock: TEMPAE_clean_linker_10, # of connection points: 2
#     Edge 89, Type (0, 0), BuildingBlock: TEMPAE_clean_linker_10, # of connection points: 2
#     Edge 90, Type (0, 0), BuildingBlock: TEMPAE_clean_linker_10, # of connection points: 2
#     Edge 91, Type (0, 0), BuildingBlock: TEMPAE_clean_linker_10, # of connection points: 2
#     Edge 92, Type (0, 0), BuildingBlock: TEMPAE_clean_linker_10, # of connection points: 2
#     Edge 93, Type (0, 0), BuildingBlock: TEMPAE_clean_linker_10, # of connection points: 2
#     Edge 94, Type (0, 0), BuildingBlock: TEMPAE_clean_linker_10, # of connection points: 2
#     Edge 95, Type (0, 0), BuildingBlock: TEMPAE_clean_linker_10, # of connection points: 2
#     Edge 96, Type (0, 0), BuildingBlock: TEMPAE_clean_linker_10, # of connection points: 2
#     Edge 97, Type (0, 0), BuildingBlock: TEMPAE_clean_linker_10, # of connection points: 2
#     Edge 98, Type (0, 0), BuildingBlock: TEMPAE_clean_linker_10, # of connection points: 2
#     Edge 99, Type (0, 0), BuildingBlock: TEMPAE_clean_linker_10, # of connection points: 2
#     Edge 100, Type (0, 0), BuildingBlock: TEMPAE_clean_linker_10, # of connection points: 2
#     Edge 101, Type (0, 0), BuildingBlock: TEMPAE_clean_linker_10, # of connection points: 2
#     Edge 102, Type (0, 0), BuildingBlock: TEMPAE_clean_linker_10, # of connection points: 2
#     Edge 103, Type (0, 0), BuildingBlock: TEMPAE_clean_linker_10, # of connection points: 2
#     Edge 104, Type (0, 0), BuildingBlock: TEMPAE_clean_linker_10, # of connection points: 2
#     Edge 105, Type (0, 0), BuildingBlock: TEMPAE_clean_linker_10, # of connection points: 2
#     Edge 106, Type (0, 0), BuildingBlock: TEMPAE_clean_linker_10, # of connection points: 2
#     Edge 107, Type (0, 0), BuildingBlock: TEMPAE_clean_linker_10, # of connection points: 2
#     Edge 108, Type (0, 0), BuildingBlock: TEMPAE_clean_linker_10, # of connection points: 2
#     Edge 109, Type (0, 0), BuildingBlock: TEMPAE_clean_linker_10, # of connection points: 2
#     Edge 110, Type (0, 0), BuildingBlock: TEMPAE_clean_linker_10, # of connection points: 2
#     Edge 111, Type (0, 0), BuildingBlock: TEMPAE_clean_linker_10, # of connection points: 2
#     Edge 112, Type (0, 0), BuildingBlock: TEMPAE_clean_linker_10, # of connection points: 2
#     Edge 113, Type (0, 0), BuildingBlock: TEMPAE_clean_linker_10, # of connection points: 2
#     Edge 114, Type (0, 0), BuildingBlock: TEMPAE_clean_linker_10, # of connection points: 2
#     Edge 115, Type (0, 0), BuildingBlock: TEMPAE_clean_linker_10, # of connection points: 2
#     Edge 116, Type (0, 0), BuildingBlock: TEMPAE_clean_linker_10, # of connection points: 2
#     Edge 117, Type (0, 0), BuildingBlock: TEMPAE_clean_linker_10, # of connection points: 2
#     Edge 118, Type (0, 0), BuildingBlock: TEMPAE_clean_linker_10, # of connection points: 2
#     Edge 119, Type (0, 0), BuildingBlock: TEMPAE_clean_linker_10, # of connection points: 2
#     Edge 120, Type (0, 0), BuildingBlock: TEMPAE_clean_linker_10, # of connection points: 2
#     Edge 121, Type (0, 0), BuildingBlock: TEMPAE_clean_linker_10, # of connection points: 2
#     Edge 122, Type (0, 0), BuildingBlock: TEMPAE_clean_linker_10, # of connection points: 2
#     Edge 123, Type (0, 0), BuildingBlock: TEMPAE_clean_linker_10, # of connection points: 2
#     Edge 124, Type (0, 0), BuildingBlock: TEMPAE_clean_linker_10, # of connection points: 2
#     Edge 125, Type (0, 0), BuildingBlock: TEMPAE_clean_linker_10, # of connection points: 2
#     Edge 126, Type (0, 0), BuildingBlock: TEMPAE_clean_linker_10, # of connection points: 2
#     Edge 127, Type (0, 0), BuildingBlock: TEMPAE_clean_linker_10, # of connection points: 2
#     Edge 128, Type (0, 0), BuildingBlock: TEMPAE_clean_linker_10, # of connection points: 2
#     Edge 129, Type (0, 0), BuildingBlock: TEMPAE_clean_linker_10, # of connection points: 2
#     Edge 130, Type (0, 0), BuildingBlock: TEMPAE_clean_linker_10, # of connection points: 2
#     Edge 131, Type (0, 0), BuildingBlock: TEMPAE_clean_linker_10, # of connection points: 2
#     Edge 132, Type (0, 0), BuildingBlock: TEMPAE_clean_linker_10, # of connection points: 2
#     Edge 133, Type (0, 0), BuildingBlock: TEMPAE_clean_linker_10, # of connection points: 2
#     Edge 134, Type (0, 0), BuildingBlock: TEMPAE_clean_linker_10, # of connection points: 2
#     Edge 135, Type (0, 0), BuildingBlock: TEMPAE_clean_linker_10, # of connection points: 2
#     Edge 136, Type (0, 0), BuildingBlock: TEMPAE_clean_linker_10, # of connection points: 2
#     Edge 137, Type (0, 0), BuildingBlock: TEMPAE_clean_linker_10, # of connection points: 2
#     Edge 138, Type (0, 0), BuildingBlock: TEMPAE_clean_linker_10, # of connection points: 2
#     Edge 139, Type (0, 0), BuildingBlock: TEMPAE_clean_linker_10, # of connection points: 2
#     Edge 140, Type (0, 0), BuildingBlock: TEMPAE_clean_linker_10, # of connection points: 2
#     Edge 141, Type (0, 0), BuildingBlock: TEMPAE_clean_linker_10, # of connection points: 2
#     Edge 142, Type (0, 0), BuildingBlock: TEMPAE_clean_linker_10, # of connection points: 2
#     Edge 143, Type (0, 0), BuildingBlock: TEMPAE_clean_linker_10, # of connection points: 2
# Relax obj value: 0.370
# Max RMSD: 0.258
# Mean RMSD: 0.204
data_MOF--net-nfb--node1-AZAVOO_clean_sbu_0--edge1-TEMPAE_clean_linker_10
_symmetry_space_group_name_H-M    P1
_symmetry_Int_Tables_number       1
_symmetry_cell_setting            triclinic
loop_
_symmetry_equiv_pos_as_xyz
'x, y, z'
_cell_length_a     58.469784
_cell_length_b     59.410946
_cell_length_c     59.563633
_cell_angle_alpha  90.006476
_cell_angle_beta   89.982502
_cell_angle_gamma 89.358553
loop_
_atom_site_label
_atom_site_type_symbol
_atom_site_fract_x
_atom_site_fract_y
_atom_site_fract_z
_atom_type_partial_charge
Mg0 Mg 0.11312 0.10423 0.36979 0.0
O1 O 0.10164 0.13995 0.37799 0.0
O2 O 0.06651 0.14042 0.3929 0.0
Mg3 Mg 0.0562 0.10319 0.39596 0.0
C4 C 0.08452 0.15045 0.38633 0.0
C5 C 0.16525 0.10253 0.36452 0.0
O6 O 0.15992 0.08116 0.36623 0.0
O7 O 0.12092 0.10025 0.4071 0.0
O8 O 0.08533 0.09852 0.4211 0.0
O9 O 0.09352 0.10485 0.33667 0.0
O10 O 0.07972 0.0934 0.36908 0.0
C11 C 0.10703 0.09797 0.42347 0.0
C12 C 0.07652 0.09714 0.34817 0.0
O13 O 0.14918 0.11708 0.36394 0.0
Mg14 Mg 0.40213 0.60206 0.87247 0.0
O15 O 0.3636 0.59947 0.87412 0.0
O16 O 0.35258 0.56527 0.88451 0.0
Mg17 Mg 0.38586 0.54551 0.89124 0.0
C18 C 0.34795 0.58546 0.87857 0.0
C19 C 0.41121 0.65537 0.87135 0.0
O20 O 0.43294 0.64961 0.87031 0.0
O21 O 0.40325 0.60403 0.91071 0.0
O22 O 0.39238 0.56932 0.92056 0.0
O23 O 0.40138 0.58632 0.83735 0.0
O24 O 0.40565 0.56755 0.86896 0.0
C25 C 0.39845 0.58928 0.92556 0.0
C26 C 0.40372 0.5672 0.8476 0.0
O27 O 0.39607 0.64019 0.87099 0.0
Mg28 Mg 0.89117 0.8927 0.37512 0.0
O29 O 0.90174 0.8567 0.38386 0.0
O30 O 0.93345 0.85662 0.40478 0.0
Mg31 Mg 0.94412 0.89356 0.40881 0.0
C32 C 0.91718 0.84628 0.39503 0.0
C33 C 0.83914 0.89422 0.36136 0.0
O34 O 0.84453 0.91536 0.35794 0.0
O35 O 0.87876 0.89681 0.41121 0.0
O36 O 0.91202 0.89872 0.42981 0.0
O37 O 0.91556 0.89235 0.34471 0.0
O38 O 0.92497 0.90308 0.37862 0.0
C39 C 0.89022 0.89931 0.42923 0.0
C40 C 0.93114 0.89941 0.35837 0.0
O41 O 0.85498 0.88023 0.3664 0.0
Mg42 Mg 0.60125 0.39837 0.87167 0.0
O43 O 0.63986 0.40098 0.87333 0.0
O44 O 0.64998 0.43565 0.88336 0.0
Mg45 Mg 0.61671 0.45615 0.88762 0.0
C46 C 0.65508 0.4154 0.87795 0.0
C47 C 0.59049 0.34554 0.87081 0.0
O48 O 0.56932 0.35252 0.86772 0.0
O49 O 0.59981 0.39855 0.91014 0.0
O50 O 0.60857 0.43431 0.91785 0.0
O51 O 0.60236 0.41236 0.83576 0.0
O52 O 0.5978 0.43271 0.86633 0.0
C53 C 0.60309 0.41455 0.92414 0.0
C54 C 0.59998 0.43196 0.84503 0.0
O55 O 0.60641 0.35992 0.87186 0.0
Mg56 Mg 0.13933 0.91545 0.62761 0.0
O57 O 0.13747 0.9157 0.58927 0.0
O58 O 0.1674 0.89581 0.5761 0.0
Mg59 Mg 0.18854 0.88292 0.60569 0.0
C60 C 0.14916 0.90745 0.57311 0.0
C61 C 0.08837 0.9203 0.64267 0.0
O62 O 0.09577 0.90462 0.65652 0.0
O63 O 0.1268 0.8788 0.62732 0.0
O64 O 0.15807 0.8613 0.61378 0.0
O65 O 0.16279 0.94548 0.62472 0.0
O66 O 0.17451 0.91009 0.62637 0.0
C67 C 0.13754 0.86108 0.6209 0.0
C68 C 0.17929 0.93083 0.62335 0.0
O69 O 0.10239 0.92887 0.62883 0.0
Mg70 Mg 0.63553 0.61899 0.13065 0.0
O71 O 0.67372 0.61366 0.13722 0.0
O72 O 0.6836 0.57878 0.12696 0.0
Mg73 Mg 0.65145 0.56085 0.11482 0.0
C74 C 0.68877 0.5982 0.13448 0.0
C75 C 0.62556 0.67191 0.13455 0.0
O76 O 0.60433 0.66552 0.13746 0.0
O77 O 0.64323 0.62045 0.09319 0.0
O78 O 0.65169 0.5845 0.08475 0.0
O79 O 0.62511 0.60269 0.16446 0.0
O80 O 0.62944 0.58498 0.13246 0.0
C81 C 0.64884 0.60509 0.07912 0.0
C82 C 0.62414 0.58412 0.15316 0.0
O83 O 0.64134 0.65709 0.13295 0.0
Mg84 Mg 0.85141 0.0791 0.6206 0.0
O85 O 0.8523 0.0855 0.5832 0.0
O86 O 0.82116 0.10476 0.57248 0.0
Mg87 Mg 0.80093 0.11306 0.6045 0.0
C88 C 0.84005 0.09469 0.56802 0.0
C89 C 0.90038 0.05919 0.63425 0.0
O90 O 0.88985 0.05492 0.65324 0.0
O91 O 0.86283 0.11557 0.62586 0.0
O92 O 0.83087 0.13424 0.61583 0.0
O93 O 0.82854 0.04938 0.61268 0.0
O94 O 0.81595 0.0835 0.62089 0.0
C95 C 0.8515 0.13382 0.62273 0.0
C96 C 0.81162 0.06355 0.61419 0.0
O97 O 0.88904 0.06781 0.61812 0.0
Mg98 Mg 0.36965 0.37879 0.12902 0.0
O99 O 0.3313 0.38437 0.13544 0.0
O100 O 0.32245 0.41948 0.12499 0.0
Mg101 Mg 0.35484 0.4377 0.11408 0.0
C102 C 0.31667 0.40018 0.13239 0.0
C103 C 0.37678 0.32533 0.13876 0.0
O104 O 0.39453 0.33138 0.15077 0.0
O105 O 0.36263 0.37843 0.0912 0.0
O106 O 0.35588 0.41486 0.08369 0.0
O107 O 0.38028 0.39517 0.16321 0.0
O108 O 0.37581 0.41276 0.13137 0.0
C109 C 0.35834 0.39444 0.0774 0.0
C110 C 0.38127 0.41373 0.15193 0.0
O111 O 0.36408 0.3404 0.12987 0.0
Mg112 Mg 0.35874 0.12245 0.14968 0.0
O113 O 0.39686 0.12699 0.14406 0.0
O114 O 0.40816 0.161 0.15527 0.0
Mg115 Mg 0.37705 0.17709 0.17254 0.0
C116 C 0.41228 0.14179 0.14647 0.0
C117 C 0.35633 0.0771 0.12058 0.0
O118 O 0.34589 0.09041 0.10616 0.0
O119 O 0.36695 0.11421 0.18676 0.0
O120 O 0.37885 0.14825 0.19769 0.0
O121 O 0.35142 0.14312 0.11809 0.0
O122 O 0.35377 0.15711 0.15225 0.0
C123 C 0.3752 0.12746 0.2016 0.0
C124 C 0.35113 0.16047 0.13123 0.0
O125 O 0.36315 0.08523 0.13918 0.0
Mg126 Mg 0.36477 0.87141 0.58924 0.0
O127 O 0.36517 0.90912 0.5949 0.0
O128 O 0.33474 0.91963 0.61534 0.0
Mg129 Mg 0.31462 0.88773 0.62336 0.0
C130 C 0.35307 0.92419 0.60465 0.0
C131 C 0.41516 0.85611 0.58023 0.0
O132 O 0.40697 0.83857 0.59087 0.0
O133 O 0.377 0.8671 0.62576 0.0
O134 O 0.34493 0.87627 0.6445 0.0
O135 O 0.34188 0.87858 0.55947 0.0
O136 O 0.32944 0.87148 0.59372 0.0
C137 C 0.3658 0.86984 0.64404 0.0
C138 C 0.32508 0.87784 0.5736 0.0
O139 O 0.40188 0.87279 0.57643 0.0
Mg140 Mg 0.64676 0.87673 0.14656 0.0
O141 O 0.60852 0.87057 0.14298 0.0
O142 O 0.59917 0.8373 0.15783 0.0
Mg143 Mg 0.63133 0.82444 0.17585 0.0
C144 C 0.59398 0.85535 0.1473 0.0
C145 C 0.64601 0.92096 0.11463 0.0
O146 O 0.65539 0.90781 0.09938 0.0
O147 O 0.63958 0.88844 0.1826 0.0
O148 O 0.62894 0.85572 0.19804 0.0
O149 O 0.65362 0.8532 0.1169 0.0
O150 O 0.65289 0.84278 0.15235 0.0
C151 C 0.63225 0.87688 0.19915 0.0
C152 C 0.6548 0.83725 0.13169 0.0
O153 O 0.64101 0.91284 0.13377 0.0
Mg154 Mg 0.62985 0.12933 0.59316 0.0
O155 O 0.63404 0.09115 0.59652 0.0
O156 O 0.6687 0.08325 0.61071 0.0
Mg157 Mg 0.68512 0.11641 0.62022 0.0
C158 C 0.6495 0.07709 0.6027 0.0
C159 C 0.58265 0.12886 0.56556 0.0
O160 O 0.59606 0.13356 0.54854 0.0
O161 O 0.62145 0.13029 0.63098 0.0
O162 O 0.65558 0.11969 0.6447 0.0
O163 O 0.64946 0.1255 0.56068 0.0
O164 O 0.66536 0.1325 0.5935 0.0
C165 C 0.63447 0.12456 0.64731 0.0
C166 C 0.66774 0.12683 0.57285 0.0
O167 O 0.5915 0.12569 0.58487 0.0
Mg168 Mg 0.37814 0.85855 0.85684 0.0
O169 O 0.41639 0.85576 0.86421 0.0
O170 O 0.43054 0.8243 0.84882 0.0
Mg171 Mg 0.40136 0.80683 0.83059 0.0
C172 C 0.43309 0.84239 0.86007 0.0
C173 C 0.3703 0.91106 0.85961 0.0
O174 O 0.36215 0.9071 0.83946 0.0
O175 O 0.3871 0.86979 0.82059 0.0
O176 O 0.4005 0.83693 0.80724 0.0
O177 O 0.37046 0.83507 0.88624 0.0
O178 O 0.37608 0.82423 0.85133 0.0
C179 C 0.39578 0.8578 0.80476 0.0
C180 C 0.37216 0.81891 0.87173 0.0
O181 O 0.37819 0.89465 0.87106 0.0
Mg182 Mg 0.6206 0.881 0.40803 0.0
O183 O 0.61069 0.88498 0.37147 0.0
O184 O 0.57705 0.90313 0.36884 0.0
Mg185 Mg 0.56369 0.90818 0.40486 0.0
C186 C 0.59464 0.89386 0.35992 0.0
C187 C 0.67426 0.88256 0.40737 0.0
O188 O 0.66938 0.89483 0.42513 0.0
O189 O 0.62773 0.91911 0.40922 0.0
O190 O 0.59217 0.93355 0.40961 0.0
O191 O 0.60088 0.84802 0.40917 0.0
O192 O 0.58616 0.88123 0.4175 0.0
C193 C 0.61384 0.93588 0.41037 0.0
C194 C 0.58321 0.86008 0.41482 0.0
O195 O 0.65787 0.87352 0.39669 0.0
Mg196 Mg 0.62286 0.13769 0.86354 0.0
O197 O 0.58393 0.13908 0.86168 0.0
O198 O 0.57315 0.1669 0.83858 0.0
Mg199 Mg 0.60541 0.18491 0.82683 0.0
C200 C 0.56848 0.1504 0.85146 0.0
C201 C 0.63257 0.09452 0.89498 0.0
O202 O 0.64752 0.10772 0.90465 0.0
O203 O 0.6234 0.12258 0.82784 0.0
O204 O 0.6139 0.15309 0.80744 0.0
O205 O 0.62244 0.1643 0.89142 0.0
O206 O 0.62477 0.17155 0.85534 0.0
C207 C 0.61951 0.13236 0.80906 0.0
C208 C 0.62344 0.17902 0.87542 0.0
O209 O 0.62039 0.10226 0.87897 0.0
Mg210 Mg 0.37841 0.12909 0.41516 0.0
O211 O 0.38712 0.12332 0.3784 0.0
O212 O 0.42151 0.10709 0.37478 0.0
Mg213 Mg 0.43628 0.10463 0.41053 0.0
C214 C 0.40294 0.11477 0.36632 0.0
C215 C 0.32429 0.13339 0.41653 0.0
O216 O 0.32749 0.13017 0.43813 0.0
O217 O 0.37329 0.09119 0.41923 0.0
O218 O 0.40947 0.07806 0.41795 0.0
O219 O 0.39538 0.16303 0.41432 0.0
O220 O 0.41272 0.13092 0.42304 0.0
C221 C 0.38802 0.07516 0.42035 0.0
C222 C 0.41394 0.15214 0.41951 0.0
O223 O 0.34155 0.1344 0.40366 0.0
Mg224 Mg 0.09756 0.38841 0.1152 0.0
O225 O 0.13566 0.37998 0.11555 0.0
O226 O 0.14997 0.38568 0.08128 0.0
Mg227 Mg 0.12069 0.39753 0.05825 0.0
C228 C 0.1524 0.38002 0.10184 0.0
C229 C 0.08448 0.38335 0.16826 0.0
O230 O 0.06636 0.3724 0.16144 0.0
O231 O 0.10641 0.42556 0.1137 0.0
O232 O 0.1181 0.43049 0.0781 0.0
O233 O 0.08899 0.35301 0.10214 0.0
O234 O 0.09576 0.38246 0.08092 0.0
C235 C 0.11333 0.438 0.09765 0.0
C236 C 0.09127 0.36157 0.08229 0.0
O237 O 0.09889 0.39022 0.15387 0.0
Mg238 Mg 0.13494 0.64782 0.88767 0.0
O239 O 0.17284 0.64209 0.89318 0.0
O240 O 0.18053 0.63117 0.92819 0.0
Mg241 Mg 0.14551 0.62752 0.9452 0.0
C242 C 0.18697 0.63627 0.90837 0.0
C243 C 0.12901 0.64746 0.83423 0.0
O244 O 0.10709 0.64785 0.83906 0.0
O245 O 0.13064 0.60986 0.88535 0.0
O246 O 0.13805 0.59896 0.92069 0.0
O247 O 0.13719 0.68276 0.90408 0.0
O248 O 0.12915 0.65137 0.92184 0.0
C249 C 0.13302 0.59458 0.9003 0.0
C250 C 0.13236 0.67256 0.92267 0.0
O251 O 0.14357 0.64885 0.85002 0.0
Mg252 Mg 0.89584 0.62883 0.36983 0.0
O253 O 0.93463 0.62558 0.36597 0.0
O254 O 0.94611 0.64262 0.33447 0.0
Mg255 Mg 0.91457 0.66011 0.31976 0.0
C256 C 0.95019 0.63108 0.35209 0.0
C257 C 0.88345 0.61674 0.41921 0.0
O258 O 0.86639 0.63029 0.41386 0.0
O259 O 0.90177 0.6647 0.38374 0.0
O260 O 0.91364 0.6808 0.35184 0.0
O261 O 0.89045 0.60014 0.3451 0.0
O262 O 0.89219 0.63597 0.33598 0.0
C263 C 0.90935 0.68166 0.37284 0.0
C264 C 0.89042 0.61549 0.32966 0.0
O265 O 0.89877 0.6126 0.40462 0.0
Mg266 Mg 0.86837 0.35295 0.88997 0.0
O267 O 0.83022 0.35883 0.89372 0.0
O268 O 0.8207 0.3672 0.92906 0.0
Mg269 Mg 0.85482 0.36991 0.94793 0.0
C270 C 0.81535 0.36352 0.90863 0.0
C271 C 0.87561 0.34971 0.83606 0.0
O272 O 0.89597 0.34134 0.84064 0.0
O273 O 0.87296 0.3908 0.89019 0.0
O274 O 0.86379 0.40003 0.92557 0.0
O275 O 0.86479 0.31712 0.90338 0.0
O276 O 0.87189 0.34698 0.92412 0.0
C277 C 0.86996 0.40539 0.9057 0.0
C278 C 0.86813 0.32588 0.923 0.0
O279 O 0.86192 0.35436 0.85202 0.0
Mg280 Mg 0.10897 0.3695 0.37164 0.0
O281 O 0.07062 0.36895 0.36512 0.0
O282 O 0.06407 0.35248 0.33205 0.0
Mg283 Mg 0.09863 0.34158 0.31721 0.0
C284 C 0.05696 0.36228 0.34987 0.0
C285 C 0.10465 0.39879 0.41728 0.0
O286 O 0.11072 0.41555 0.40426 0.0
O287 O 0.10775 0.33154 0.3806 0.0
O288 O 0.103 0.31714 0.34618 0.0
O289 O 0.11093 0.40143 0.34997 0.0
O290 O 0.1156 0.36692 0.33742 0.0
C291 C 0.10581 0.31472 0.36729 0.0
C292 C 0.1141 0.38793 0.33316 0.0
O293 O 0.10227 0.3793 0.40871 0.0
Mg294 Mg 0.90591 0.61168 0.11256 0.0
O295 O 0.86802 0.62064 0.11109 0.0
O296 O 0.854 0.6119 0.07747 0.0
Mg297 Mg 0.88384 0.59754 0.05663 0.0
C298 C 0.85138 0.61944 0.09739 0.0
C299 C 0.91918 0.60945 0.1641 0.0
O300 O 0.93961 0.60468 0.15611 0.0
O301 O 0.89649 0.57471 0.11488 0.0
O302 O 0.88433 0.5671 0.08006 0.0
O303 O 0.91584 0.64525 0.09624 0.0
O304 O 0.90917 0.61366 0.07826 0.0
C305 C 0.88884 0.56104 0.10018 0.0
C306 C 0.91474 0.63434 0.07746 0.0
O307 O 0.90305 0.61449 0.15064 0.0
Mg308 Mg 0.84173 0.34631 0.63494 0.0
O309 O 0.87961 0.3551 0.63591 0.0
O310 O 0.89562 0.34316 0.66793 0.0
Mg311 Mg 0.8685 0.32244 0.68587 0.0
C312 C 0.89673 0.35324 0.64906 0.0
C313 C 0.82891 0.34856 0.58396 0.0
O314 O 0.81868 0.32995 0.59007 0.0
O315 O 0.85277 0.31067 0.62376 0.0
O316 O 0.86934 0.2989 0.6557 0.0
O317 O 0.83302 0.37572 0.65826 0.0
O318 O 0.84105 0.34113 0.66931 0.0
C319 C 0.86383 0.29587 0.63518 0.0
C320 C 0.83596 0.36144 0.67445 0.0
O321 O 0.83993 0.35957 0.59864 0.0
Mg322 Mg 0.16339 0.6493 0.63151 0.0
O323 O 0.12521 0.64337 0.63601 0.0
O324 O 0.11241 0.65921 0.66774 0.0
Mg325 Mg 0.14224 0.67919 0.68195 0.0
C326 C 0.1092 0.64767 0.64996 0.0
C327 C 0.17408 0.6192 0.58758 0.0
O328 O 0.18995 0.61008 0.60039 0.0
O329 O 0.15387 0.68457 0.61826 0.0
O330 O 0.14024 0.70005 0.65004 0.0
O331 O 0.17145 0.62119 0.65682 0.0
O332 O 0.16686 0.65695 0.66532 0.0
C333 C 0.14445 0.70084 0.62904 0.0
C334 C 0.17047 0.63681 0.67197 0.0
O335 O 0.16106 0.63447 0.59575 0.0
Mg336 Mg 0.88632 0.89868 0.64284 0.0
O337 O 0.88955 0.89499 0.60535 0.0
O338 O 0.92427 0.88257 0.5956 0.0
Mg339 Mg 0.94444 0.87861 0.62863 0.0
C340 C 0.90398 0.88893 0.59051 0.0
C341 C 0.83603 0.91418 0.62606 0.0
O342 O 0.84601 0.93279 0.61961 0.0
O343 O 0.88458 0.86031 0.64592 0.0
O344 O 0.92072 0.85018 0.63836 0.0
O345 O 0.90156 0.93405 0.64027 0.0
O346 O 0.92157 0.9029 0.64544 0.0
C347 C 0.90027 0.84531 0.64387 0.0
C348 C 0.92131 0.92413 0.64196 0.0
O349 O 0.84748 0.89934 0.63678 0.0
Mg350 Mg 0.59506 0.37483 0.14179 0.0
O351 O 0.63301 0.36632 0.13739 0.0
O352 O 0.63718 0.33413 0.11828 0.0
Mg353 Mg 0.60142 0.32292 0.1082 0.0
C354 C 0.64557 0.35092 0.12868 0.0
C355 C 0.592 0.42169 0.16751 0.0
O356 O 0.57246 0.41326 0.17419 0.0
O357 O 0.59427 0.38741 0.10526 0.0
O358 O 0.59938 0.3546 0.08716 0.0
O359 O 0.59484 0.351 0.17158 0.0
O360 O 0.58688 0.34132 0.13674 0.0
C361 C 0.59686 0.37593 0.08724 0.0
C362 C 0.59044 0.33536 0.15711 0.0
O363 O 0.60489 0.40994 0.15474 0.0
Mg364 Mg 0.11006 0.09893 0.63808 0.0
O365 O 0.10619 0.10443 0.60092 0.0
O366 O 0.0739 0.12281 0.59261 0.0
Mg367 Mg 0.05588 0.12918 0.62653 0.0
C368 C 0.09269 0.11337 0.5867 0.0
C369 C 0.16369 0.09874 0.64243 0.0
O370 O 0.15809 0.10893 0.66126 0.0
O371 O 0.1191 0.1362 0.64191 0.0
O372 O 0.08469 0.15238 0.63672 0.0
O373 O 0.08769 0.06732 0.63566 0.0
O374 O 0.07465 0.10134 0.64258 0.0
C375 C 0.10592 0.1535 0.64146 0.0
C376 C 0.07034 0.0806 0.6392 0.0
O377 O 0.14786 0.09076 0.63022 0.0
Mg378 Mg 0.40602 0.62558 0.1432 0.0
O379 O 0.36785 0.63404 0.14153 0.0
O380 O 0.36268 0.66801 0.12592 0.0
Mg381 Mg 0.39799 0.68133 0.1167 0.0
C382 C 0.3549 0.65012 0.13485 0.0
C383 C 0.41046 0.5773 0.16532 0.0
O384 O 0.42941 0.58636 0.17273 0.0
O385 O 0.40562 0.6177 0.10518 0.0
O386 O 0.4005 0.65265 0.09186 0.0
O387 O 0.40697 0.64547 0.17559 0.0
O388 O 0.41381 0.65962 0.14203 0.0
C389 C 0.40294 0.63151 0.08883 0.0
C390 C 0.41084 0.66283 0.16307 0.0
O391 O 0.39723 0.58903 0.15285 0.0
Mg392 Mg 0.85921 0.0838 0.35347 0.0
O393 O 0.85999 0.11609 0.33031 0.0
O394 O 0.84003 0.12182 0.35941 0.0
Mg395 Mg 0.82245 0.13725 0.38784 0.0
C396 C 0.84913 0.13001 0.34214 0.0
C397 C 0.90815 0.08268 0.33094 0.0
O398 O 0.89677 0.07295 0.31466 0.0
O399 O 0.86661 0.0943 0.39111 0.0
O400 O 0.85075 0.12382 0.40944 0.0
O401 O 0.82031 0.07095 0.35739 0.0
O402 O 0.82796 0.10291 0.3699 0.0
C403 C 0.86462 0.10709 0.40842 0.0
C404 C 0.81361 0.08749 0.36875 0.0
O405 O 0.89762 0.08846 0.34875 0.0
Mg406 Mg 0.36684 0.36072 0.85964 0.0
O407 O 0.32777 0.35686 0.85847 0.0
O408 O 0.31837 0.32436 0.87481 0.0
Mg409 Mg 0.35098 0.3084 0.88895 0.0
C410 C 0.31288 0.34252 0.86458 0.0
C411 C 0.37553 0.40486 0.83128 0.0
O412 O 0.38899 0.39084 0.8203 0.0
O413 O 0.36364 0.37142 0.89649 0.0
O414 O 0.35332 0.3386 0.91203 0.0
O415 O 0.3707 0.33745 0.8292 0.0
O416 O 0.37134 0.32671 0.86458 0.0
C417 C 0.35776 0.35952 0.9134 0.0
C418 C 0.3722 0.3214 0.84385 0.0
O419 O 0.3636 0.39737 0.84748 0.0
Mg420 Mg 0.15323 0.91292 0.35764 0.0
O421 O 0.15641 0.87705 0.36963 0.0
O422 O 0.19125 0.87069 0.38381 0.0
Mg423 Mg 0.20952 0.90455 0.38458 0.0
C424 C 0.17147 0.8639 0.37802 0.0
C425 C 0.10143 0.91882 0.34055 0.0
O426 O 0.10998 0.93616 0.32989 0.0
O427 O 0.14674 0.92402 0.39444 0.0
O428 O 0.18173 0.91712 0.40784 0.0
O429 O 0.17169 0.89971 0.32663 0.0
O430 O 0.18915 0.91482 0.35558 0.0
C431 C 0.16106 0.92349 0.4107 0.0
C432 C 0.19054 0.90354 0.33729 0.0
O433 O 0.11465 0.90662 0.35256 0.0
Mg434 Mg 0.63529 0.63922 0.86251 0.0
O435 O 0.67411 0.64389 0.85855 0.0
O436 O 0.68348 0.67642 0.87502 0.0
Mg437 Mg 0.65117 0.69316 0.88886 0.0
C438 C 0.68889 0.65841 0.8645 0.0
C439 C 0.62896 0.59443 0.834 0.0
O440 O 0.61843 0.60861 0.82048 0.0
O441 O 0.64129 0.63021 0.89962 0.0
O442 O 0.65053 0.66409 0.91335 0.0
O443 O 0.62897 0.66071 0.83131 0.0
O444 O 0.63033 0.67345 0.86603 0.0
C445 C 0.64727 0.64304 0.91582 0.0
C446 C 0.62818 0.67754 0.84511 0.0
O447 O 0.63828 0.60198 0.85176 0.0
Mg448 Mg 0.6469 0.89002 0.86846 0.0
O449 O 0.60787 0.89115 0.86971 0.0
O450 O 0.59503 0.92243 0.85287 0.0
Mg451 Mg 0.62641 0.94194 0.84112 0.0
C452 C 0.59152 0.90396 0.86321 0.0
C453 C 0.65801 0.83973 0.86299 0.0
O454 O 0.67304 0.84934 0.84983 0.0
O455 O 0.64567 0.88189 0.83118 0.0
O456 O 0.63297 0.91391 0.81548 0.0
O457 O 0.64794 0.91105 0.90061 0.0
O458 O 0.64804 0.92473 0.86627 0.0
C459 C 0.63978 0.89347 0.81411 0.0
C460 C 0.64794 0.92839 0.88742 0.0
O461 O 0.64533 0.85205 0.87543 0.0
Mg462 Mg 0.62972 0.15213 0.40923 0.0
O463 O 0.61422 0.15757 0.37346 0.0
O464 O 0.64909 0.14829 0.36527 0.0
Mg465 Mg 0.68361 0.13996 0.37653 0.0
C466 C 0.62923 0.15306 0.35869 0.0
C467 C 0.58245 0.16766 0.42108 0.0
O468 O 0.59365 0.18553 0.41445 0.0
O469 O 0.63335 0.1137 0.40217 0.0
O470 O 0.66773 0.10639 0.38644 0.0
O471 O 0.65388 0.14599 0.4387 0.0
O472 O 0.66578 0.15541 0.40502 0.0
C473 C 0.64868 0.10001 0.3947 0.0
C474 C 0.67063 0.1489 0.42486 0.0
O475 O 0.5932 0.14895 0.42218 0.0
Mg476 Mg 0.35312 0.10668 0.86093 0.0
O477 O 0.39171 0.10462 0.85845 0.0
O478 O 0.40349 0.07139 0.84522 0.0
Mg479 Mg 0.37044 0.05161 0.83857 0.0
C480 C 0.40767 0.0911 0.85263 0.0
C481 C 0.34102 0.15902 0.86241 0.0
O482 O 0.31976 0.15227 0.86393 0.0
O483 O 0.35106 0.11073 0.82316 0.0
O484 O 0.36093 0.07653 0.81052 0.0
O485 O 0.3555 0.09039 0.89543 0.0
O486 O 0.35149 0.07202 0.86345 0.0
C487 C 0.35453 0.09689 0.80712 0.0
C488 C 0.35447 0.07145 0.88473 0.0
O489 O 0.35727 0.14468 0.86304 0.0
Mg490 Mg 0.36235 0.85828 0.40998 0.0
O491 O 0.3636 0.86839 0.37352 0.0
O492 O 0.32994 0.88306 0.36307 0.0
Mg493 Mg 0.30763 0.88567 0.39468 0.0
C494 C 0.35024 0.87633 0.35856 0.0
C495 C 0.41323 0.83702 0.41662 0.0
O496 O 0.40258 0.82101 0.4275 0.0
O497 O 0.36712 0.89542 0.42073 0.0
O498 O 0.33301 0.90919 0.41038 0.0
O499 O 0.34471 0.82698 0.39626 0.0
O500 O 0.32652 0.85709 0.40868 0.0
C501 C 0.35275 0.91176 0.41897 0.0
C502 C 0.32575 0.83823 0.39841 0.0
O503 O 0.40157 0.85313 0.40811 0.0
Mg504 Mg 0.63014 0.1216 0.14474 0.0
O505 O 0.59209 0.11511 0.14106 0.0
O506 O 0.58402 0.08045 0.15322 0.0
Mg507 Mg 0.61783 0.06472 0.16515 0.0
C508 C 0.57802 0.09936 0.14483 0.0
C509 C 0.63739 0.1743 0.14274 0.0
O510 O 0.65914 0.16856 0.14232 0.0
O511 O 0.62456 0.12555 0.18198 0.0
O512 O 0.61705 0.09067 0.19374 0.0
O513 O 0.6365 0.10531 0.11076 0.0
O514 O 0.63731 0.08751 0.1433 0.0
C515 C 0.61945 0.1117 0.19748 0.0
C516 C 0.63871 0.08667 0.12188 0.0
O517 O 0.62226 0.15915 0.14165 0.0
Mg518 Mg 0.3769 0.1369 0.59396 0.0
O519 O 0.38512 0.09981 0.59554 0.0
O520 O 0.42045 0.0926 0.60779 0.0
Mg521 Mg 0.43503 0.12746 0.61605 0.0
C522 C 0.4011 0.086 0.60053 0.0
C523 C 0.32262 0.14013 0.59438 0.0
O524 O 0.32709 0.16123 0.5991 0.0
O525 O 0.37213 0.13678 0.63199 0.0
O526 O 0.408 0.13063 0.64365 0.0
O527 O 0.39438 0.13777 0.55984 0.0
O528 O 0.41175 0.14411 0.59205 0.0
C529 C 0.38675 0.13379 0.64769 0.0
C530 C 0.41308 0.14164 0.57075 0.0
O531 O 0.33916 0.12674 0.58996 0.0
Mg532 Mg 0.37274 0.87468 0.14428 0.0
O533 O 0.4113 0.87677 0.13847 0.0
O534 O 0.42335 0.91091 0.1487 0.0
Mg535 Mg 0.39257 0.93062 0.16236 0.0
C536 C 0.42705 0.89125 0.14083 0.0
C537 C 0.36598 0.82465 0.15616 0.0
O538 O 0.35409 0.83511 0.17176 0.0
O539 O 0.38005 0.87116 0.18158 0.0
O540 O 0.39109 0.90567 0.19162 0.0
O541 O 0.36497 0.8922 0.11072 0.0
O542 O 0.36935 0.90934 0.14316 0.0
C543 C 0.38672 0.88518 0.19635 0.0
C544 C 0.36549 0.91074 0.12213 0.0
O545 O 0.37501 0.83609 0.14045 0.0
Mg546 Mg 0.62431 0.8609 0.60026 0.0
O547 O 0.62127 0.89897 0.60255 0.0
O548 O 0.59016 0.90848 0.6224 0.0
Mg549 Mg 0.57244 0.8756 0.63234 0.0
C550 C 0.60797 0.91375 0.6112 0.0
C551 C 0.67352 0.87859 0.58114 0.0
O552 O 0.66218 0.8919 0.56739 0.0
O553 O 0.63506 0.85955 0.63697 0.0
O554 O 0.60254 0.8674 0.65531 0.0
O555 O 0.60188 0.86157 0.56866 0.0
O556 O 0.58878 0.85917 0.60315 0.0
C557 C 0.62373 0.86219 0.65505 0.0
C558 C 0.58453 0.86147 0.58216 0.0
O559 O 0.66277 0.86447 0.59312 0.0
Mg560 Mg 0.90792 0.6195 0.86734 0.0
O561 O 0.8695 0.62438 0.86034 0.0
O562 O 0.86141 0.60995 0.82648 0.0
Mg563 Mg 0.89408 0.59378 0.81278 0.0
C564 C 0.85553 0.62012 0.84447 0.0
C565 C 0.91671 0.64474 0.91257 0.0
O566 O 0.93311 0.65301 0.90006 0.0
O567 O 0.90101 0.58258 0.87608 0.0
O568 O 0.89204 0.56924 0.84201 0.0
O569 O 0.91478 0.65095 0.84723 0.0
O570 O 0.91438 0.61639 0.83344 0.0
C571 C 0.89465 0.56664 0.86313 0.0
C572 C 0.91592 0.63759 0.83008 0.0
O573 O 0.90294 0.63078 0.90385 0.0
Mg574 Mg 0.86827 0.34449 0.13494 0.0
O575 O 0.82957 0.35087 0.13739 0.0
O576 O 0.82126 0.36423 0.17171 0.0
Mg577 Mg 0.85498 0.37057 0.18971 0.0
C578 C 0.81529 0.3576 0.15222 0.0
C579 C 0.86357 0.31813 0.08829 0.0
O580 O 0.86426 0.30043 0.1015 0.0
O581 O 0.87304 0.38215 0.1287 0.0
O582 O 0.86304 0.39604 0.16236 0.0
O583 O 0.86311 0.3115 0.1533 0.0
O584 O 0.87089 0.34379 0.16978 0.0
C585 C 0.86922 0.39868 0.14199 0.0
C586 C 0.86563 0.32302 0.17157 0.0
O587 O 0.86458 0.33768 0.09698 0.0
Mg588 Mg 0.1127 0.36742 0.61852 0.0
O589 O 0.07422 0.36382 0.6147 0.0
O590 O 0.06543 0.35288 0.57985 0.0
Mg591 Mg 0.09973 0.3459 0.56217 0.0
C592 C 0.05968 0.35899 0.59961 0.0
C593 C 0.11236 0.38079 0.67251 0.0
O594 O 0.1229 0.39965 0.66789 0.0
O595 O 0.11684 0.32967 0.62148 0.0
O596 O 0.10783 0.31736 0.58715 0.0
O597 O 0.1098 0.40221 0.60208 0.0
O598 O 0.11673 0.37059 0.58394 0.0
C599 C 0.11389 0.31375 0.60747 0.0
C600 C 0.11313 0.39181 0.58324 0.0
O601 O 0.10688 0.3676 0.65665 0.0
Mg602 Mg 0.13467 0.65474 0.13428 0.0
O603 O 0.17254 0.64706 0.13978 0.0
O604 O 0.17693 0.62884 0.17249 0.0
Mg605 Mg 0.14133 0.62375 0.18768 0.0
C606 C 0.18502 0.63764 0.15468 0.0
C607 C 0.13505 0.68246 0.08843 0.0
O608 O 0.12376 0.69712 0.10082 0.0
O609 O 0.12892 0.61774 0.12451 0.0
O610 O 0.13191 0.60138 0.15831 0.0
O611 O 0.1395 0.6858 0.15608 0.0
O612 O 0.12866 0.65269 0.16864 0.0
C613 C 0.12815 0.60041 0.13723 0.0
C614 C 0.13468 0.67285 0.17287 0.0
O615 O 0.14212 0.66423 0.09744 0.0
Mg616 Mg 0.89147 0.62985 0.61513 0.0
O617 O 0.93032 0.63266 0.61468 0.0
O618 O 0.94107 0.64898 0.5825 0.0
Mg619 Mg 0.90872 0.654 0.56113 0.0
C620 C 0.94563 0.64039 0.60165 0.0
C621 C 0.88981 0.61421 0.6686 0.0
O622 O 0.88341 0.59373 0.66339 0.0
O623 O 0.88792 0.66768 0.61931 0.0
O624 O 0.89706 0.68142 0.58566 0.0
O625 O 0.89455 0.5952 0.5988 0.0
O626 O 0.89163 0.62749 0.58067 0.0
C627 C 0.89044 0.68419 0.60591 0.0
C628 C 0.89486 0.60614 0.58 0.0
O629 O 0.89335 0.62848 0.65319 0.0
Mg630 Mg 0.09293 0.38011 0.87052 0.0
O631 O 0.13132 0.37555 0.86306 0.0
O632 O 0.1381 0.38661 0.82776 0.0
Mg633 Mg 0.10514 0.40192 0.81371 0.0
C634 C 0.14483 0.37833 0.84644 0.0
C635 C 0.09263 0.35332 0.91702 0.0
O636 O 0.0838 0.33768 0.90418 0.0
O637 O 0.09943 0.41774 0.87632 0.0
O638 O 0.10747 0.42835 0.84109 0.0
O639 O 0.08631 0.34726 0.85194 0.0
O640 O 0.08562 0.38095 0.83647 0.0
C641 C 0.10531 0.43265 0.86197 0.0
C642 C 0.08442 0.35965 0.83415 0.0
O643 O 0.09869 0.37183 0.9081 0.0
Mg644 Mg 0.16817 0.64853 0.38617 0.0
O645 O 0.13027 0.6395 0.38551 0.0
O646 O 0.11493 0.64718 0.41914 0.0
Mg647 Mg 0.14265 0.663 0.44101 0.0
C648 C 0.11337 0.63984 0.39906 0.0
C649 C 0.16611 0.63506 0.33168 0.0
O650 O 0.16247 0.61377 0.33626 0.0
O651 O 0.15819 0.68514 0.38369 0.0
O652 O 0.14347 0.69349 0.41736 0.0
O653 O 0.17797 0.6148 0.40332 0.0
O654 O 0.16901 0.64616 0.42078 0.0
C655 C 0.14922 0.6991 0.39744 0.0
C656 C 0.17502 0.62555 0.42202 0.0
O657 O 0.169 0.64896 0.34762 0.0
Mg658 Mg 0.83813 0.34244 0.38133 0.0
O659 O 0.87654 0.35031 0.3819 0.0
O660 O 0.89094 0.3333 0.41245 0.0
Mg661 Mg 0.86232 0.31713 0.43259 0.0
C662 C 0.89338 0.34493 0.39458 0.0
C663 C 0.82459 0.335 0.33275 0.0
O664 O 0.81233 0.32066 0.34429 0.0
O665 O 0.84728 0.3063 0.37251 0.0
O666 O 0.85979 0.29088 0.40444 0.0
O667 O 0.82991 0.37384 0.4021 0.0
O668 O 0.83843 0.34037 0.41588 0.0
C669 C 0.85476 0.28945 0.38362 0.0
C670 C 0.83418 0.36126 0.41939 0.0
O671 O 0.83636 0.34942 0.34342 0.0
C672 C 0.11375 0.27417 0.36141 0.0
C673 C 0.10603 0.29134 0.37578 0.0
C674 C 0.11051 0.2515 0.36662 0.0
C675 C 0.09931 0.24573 0.38684 0.0
C676 C 0.09278 0.2629 0.40218 0.0
C677 C 0.09623 0.28564 0.39646 0.0
C678 C 0.11802 0.23379 0.34986 0.0
C679 C 0.08124 0.25731 0.4241 0.0
C680 C 0.06937 0.18966 0.38192 0.0
C681 C 0.08652 0.17492 0.38947 0.0
C682 C 0.07275 0.21304 0.3822 0.0
C683 C 0.09347 0.22175 0.39086 0.0
C684 C 0.11002 0.20688 0.40011 0.0
C685 C 0.10652 0.1836 0.39892 0.0
C686 C 0.0549 0.2283 0.37174 0.0
C687 C 0.13203 0.21544 0.41003 0.0
H688 H 0.12165 0.27851 0.34554 0.0
H689 H 0.09021 0.29888 0.40758 0.0
H690 H 0.12944 0.22122 0.35802 0.0
H691 H 0.10287 0.22469 0.3435 0.0
H692 H 0.12722 0.24111 0.3353 0.0
H693 H 0.08006 0.27214 0.43542 0.0
H694 H 0.06369 0.25126 0.42075 0.0
H695 H 0.09064 0.24356 0.43286 0.0
H696 H 0.05394 0.18285 0.37461 0.0
H697 H 0.11964 0.17211 0.40505 0.0
H698 H 0.06181 0.23566 0.35604 0.0
H699 H 0.05065 0.24245 0.38319 0.0
H700 H 0.03895 0.21919 0.36762 0.0
H701 H 0.14358 0.22088 0.39634 0.0
H702 H 0.14104 0.2023 0.42005 0.0
H703 H 0.12868 0.23028 0.42092 0.0
C704 C 0.31894 0.61646 0.87408 0.0
C705 C 0.32393 0.59373 0.87881 0.0
C706 C 0.29681 0.62534 0.87692 0.0
C707 C 0.27922 0.61115 0.88462 0.0
C708 C 0.28384 0.58799 0.88835 0.0
C709 C 0.30615 0.57956 0.88543 0.0
C710 C 0.29255 0.6501 0.87266 0.0
C711 C 0.26537 0.57226 0.8962 0.0
C712 C 0.22855 0.6332 0.91801 0.0
C713 C 0.21114 0.63279 0.90189 0.0
C714 C 0.25115 0.62746 0.91224 0.0
C715 C 0.25624 0.62056 0.89 0.0
C716 C 0.23891 0.621 0.87345 0.0
C717 C 0.2166 0.62733 0.87956 0.0
C718 C 0.2694 0.62795 0.93014 0.0
C719 C 0.24362 0.61366 0.8496 0.0
H720 H 0.3325 0.62759 0.86883 0.0
H721 H 0.30977 0.56199 0.88898 0.0
H722 H 0.27695 0.65269 0.86236 0.0
H723 H 0.28968 0.65884 0.8889 0.0
H724 H 0.30719 0.65814 0.86402 0.0
H725 H 0.2714 0.55448 0.89694 0.0
H726 H 0.25946 0.57736 0.91318 0.0
H727 H 0.25039 0.57332 0.88481 0.0
H728 H 0.22443 0.63767 0.9352 0.0
H729 H 0.20318 0.62691 0.867 0.0
H730 H 0.28439 0.63756 0.92417 0.0
H731 H 0.27541 0.61054 0.93376 0.0
H732 H 0.26311 0.63566 0.94601 0.0
H733 H 0.25881 0.62238 0.84283 0.0
H734 H 0.22885 0.61703 0.83831 0.0
H735 H 0.24749 0.59533 0.84929 0.0
C736 C 0.92899 0.80947 0.41264 0.0
C737 C 0.91583 0.82142 0.39681 0.0
C738 C 0.92806 0.78586 0.41394 0.0
C739 C 0.91396 0.77395 0.39882 0.0
C740 C 0.90007 0.786 0.38338 0.0
C741 C 0.90108 0.80953 0.38265 0.0
C742 C 0.94274 0.77362 0.43094 0.0
C743 C 0.88495 0.77397 0.36677 0.0
C744 C 0.93055 0.71732 0.37522 0.0
C745 C 0.91344 0.70348 0.38396 0.0
C746 C 0.93195 0.73998 0.38129 0.0
C747 C 0.91593 0.74905 0.3967 0.0
C748 C 0.89998 0.73467 0.40728 0.0
C749 C 0.89888 0.7119 0.40072 0.0
C750 C 0.94927 0.75459 0.36959 0.0
C751 C 0.88301 0.74364 0.42421 0.0
H752 H 0.94014 0.81853 0.42392 0.0
H753 H 0.89073 0.81858 0.37047 0.0
H754 H 0.93261 0.76072 0.43987 0.0
H755 H 0.95697 0.76472 0.42223 0.0
H756 H 0.95017 0.78528 0.44349 0.0
H757 H 0.87409 0.78582 0.35691 0.0
H758 H 0.89572 0.76407 0.35492 0.0
H759 H 0.87368 0.76199 0.37563 0.0
H760 H 0.94216 0.71071 0.36257 0.0
H761 H 0.88571 0.7012 0.4076 0.0
H762 H 0.95862 0.765 0.38192 0.0
H763 H 0.9403 0.76624 0.35789 0.0
H764 H 0.96193 0.74451 0.35982 0.0
H765 H 0.89122 0.75575 0.43578 0.0
H766 H 0.87532 0.72988 0.43423 0.0
H767 H 0.86904 0.75274 0.41531 0.0
C768 C 0.78776 0.38051 0.88182 0.0
C769 C 0.79169 0.36771 0.90123 0.0
C770 C 0.76556 0.38718 0.87571 0.0
C771 C 0.74686 0.38027 0.88901 0.0
C772 C 0.75065 0.36598 0.90773 0.0
C773 C 0.77314 0.36025 0.91394 0.0
C774 C 0.7623 0.4027 0.85586 0.0
C775 C 0.73102 0.3575 0.92172 0.0
C776 C 0.69485 0.41875 0.89268 0.0
C777 C 0.67917 0.40764 0.87892 0.0
C778 C 0.71699 0.41005 0.8959 0.0
C779 C 0.72371 0.38993 0.88483 0.0
C780 C 0.70825 0.37905 0.87026 0.0
C781 C 0.68609 0.38798 0.86758 0.0
C782 C 0.733 0.42207 0.91164 0.0
C783 C 0.71496 0.3578 0.85788 0.0
H784 H 0.80219 0.38634 0.87205 0.0
H785 H 0.77626 0.3501 0.92877 0.0
H786 H 0.74883 0.39627 0.84453 0.0
H787 H 0.75655 0.41952 0.86186 0.0
H788 H 0.77832 0.40478 0.84606 0.0
H789 H 0.73662 0.34443 0.93395 0.0
H790 H 0.72314 0.37173 0.93111 0.0
H791 H 0.7176 0.35031 0.91078 0.0
H792 H 0.68955 0.43381 0.90163 0.0
H793 H 0.67406 0.37939 0.8568 0.0
H794 H 0.74914 0.42619 0.90282 0.0
H795 H 0.73751 0.41089 0.92593 0.0
H796 H 0.72537 0.43787 0.91843 0.0
H797 H 0.7298 0.36105 0.8468 0.0
H798 H 0.70076 0.3512 0.84747 0.0
H799 H 0.72033 0.34459 0.87001 0.0
C800 C 0.15574 0.73703 0.61233 0.0
C801 C 0.13845 0.72198 0.61781 0.0
C802 C 0.15074 0.76004 0.60976 0.0
C803 C 0.1279 0.76788 0.61257 0.0
C804 C 0.1101 0.75228 0.61566 0.0
C805 C 0.11566 0.72946 0.61855 0.0
C806 C 0.17023 0.77616 0.60635 0.0
C807 C 0.0855 0.75983 0.61807 0.0
C808 C 0.12733 0.82549 0.6393 0.0
C809 C 0.12636 0.83923 0.6203 0.0
C810 C 0.12586 0.80204 0.6372 0.0
C811 C 0.12343 0.79235 0.61556 0.0
C812 C 0.12003 0.8064 0.59668 0.0
C813 C 0.12172 0.82977 0.59927 0.0
C814 C 0.12931 0.78761 0.65782 0.0
C815 C 0.11696 0.7968 0.57343 0.0
H816 H 0.17338 0.73119 0.61218 0.0
H817 H 0.10236 0.71769 0.62305 0.0
H818 H 0.16611 0.78831 0.59277 0.0
H819 H 0.17291 0.78597 0.62197 0.0
H820 H 0.18647 0.76728 0.60207 0.0
H821 H 0.07353 0.74571 0.6153 0.0
H822 H 0.08268 0.76645 0.63528 0.0
H823 H 0.08132 0.77356 0.60608 0.0
H824 H 0.13141 0.83289 0.65543 0.0
H825 H 0.12142 0.84052 0.58454 0.0
H826 H 0.14635 0.77922 0.65698 0.0
H827 H 0.11626 0.77424 0.65858 0.0
H828 H 0.12839 0.79764 0.67355 0.0
H829 H 0.13384 0.79133 0.56675 0.0
H830 H 0.10955 0.80947 0.56171 0.0
H831 H 0.10575 0.78186 0.57378 0.0
C832 C 0.7302 0.58738 0.13361 0.0
C833 C 0.7133 0.60405 0.13657 0.0
C834 C 0.75318 0.5931 0.13053 0.0
C835 C 0.75946 0.61606 0.1304 0.0
C836 C 0.74286 0.63286 0.13535 0.0
C837 C 0.71994 0.62665 0.13837 0.0
C838 C 0.77046 0.57461 0.12582 0.0
C839 C 0.7489 0.65749 0.13581 0.0
C840 C 0.82366 0.62382 0.12921 0.0
C841 C 0.8279 0.62368 0.10596 0.0
C842 C 0.80125 0.62301 0.13763 0.0
C843 C 0.78268 0.62222 0.12245 0.0
C844 C 0.78677 0.62424 0.09909 0.0
C845 C 0.80934 0.6248 0.09111 0.0
C846 C 0.79762 0.62126 0.16266 0.0
C847 C 0.76737 0.62417 0.08237 0.0
H848 H 0.72534 0.56986 0.13252 0.0
H849 H 0.70709 0.63971 0.14082 0.0
H850 H 0.77627 0.57577 0.10812 0.0
H851 H 0.78572 0.57655 0.13668 0.0
H852 H 0.7633 0.55759 0.12859 0.0
H853 H 0.73574 0.66768 0.14481 0.0
H854 H 0.76573 0.66012 0.14393 0.0
H855 H 0.75008 0.66385 0.11834 0.0
H856 H 0.83786 0.62311 0.14089 0.0
H857 H 0.81244 0.62508 0.07317 0.0
H858 H 0.79375 0.60356 0.16708 0.0
H859 H 0.78286 0.63181 0.16809 0.0
H860 H 0.81303 0.6264 0.17222 0.0
H861 H 0.75953 0.60724 0.08201 0.0
H862 H 0.77318 0.62838 0.06513 0.0
H863 H 0.75386 0.63641 0.08742 0.0
C864 C 0.87609 0.16388 0.60784 0.0
C865 C 0.86242 0.15569 0.62525 0.0
C866 C 0.88067 0.18698 0.60611 0.0
C867 C 0.8713 0.20197 0.62224 0.0
C868 C 0.85881 0.19341 0.64071 0.0
C869 C 0.85433 0.17035 0.64184 0.0
C870 C 0.89401 0.19541 0.58619 0.0
C871 C 0.84888 0.20877 0.65852 0.0
C872 C 0.88838 0.26169 0.63366 0.0
C873 C 0.8691 0.27349 0.62573 0.0
C874 C 0.89061 0.23842 0.63058 0.0
C875 C 0.87303 0.22673 0.61945 0.0
C876 C 0.85486 0.23895 0.60916 0.0
C877 C 0.85313 0.26234 0.61238 0.0
C878 C 0.91052 0.22614 0.64133 0.0
C879 C 0.83603 0.22707 0.59673 0.0
H880 H 0.88176 0.15249 0.59468 0.0
H881 H 0.84335 0.16392 0.65499 0.0
H882 H 0.88194 0.20257 0.57364 0.0
H883 H 0.90588 0.20896 0.59116 0.0
H884 H 0.90397 0.18165 0.578 0.0
H885 H 0.84107 0.19925 0.67258 0.0
H886 H 0.86235 0.21978 0.66546 0.0
H887 H 0.83553 0.21982 0.65097 0.0
H888 H 0.90099 0.27043 0.64366 0.0
H889 H 0.83827 0.27147 0.60617 0.0
H890 H 0.91713 0.21258 0.6302 0.0
H891 H 0.90472 0.21815 0.65716 0.0
H892 H 0.92472 0.23772 0.6454 0.0
H893 H 0.84326 0.21411 0.58527 0.0
H894 H 0.8253 0.23899 0.58681 0.0
H895 H 0.82488 0.21837 0.60898 0.0
C896 C 0.27562 0.41118 0.12753 0.0
C897 C 0.29192 0.39518 0.13457 0.0
C898 C 0.25249 0.40565 0.12554 0.0
C899 C 0.24531 0.38364 0.13101 0.0
C900 C 0.26131 0.36788 0.13974 0.0
C901 C 0.28449 0.37378 0.14128 0.0
C902 C 0.23596 0.42307 0.11631 0.0
C903 C 0.25425 0.34442 0.14629 0.0
C904 C 0.18078 0.38087 0.1332 0.0
C905 C 0.17575 0.37602 0.11067 0.0
C906 C 0.20351 0.38155 0.14076 0.0
C907 C 0.22151 0.37701 0.12548 0.0
C908 C 0.21636 0.36982 0.10339 0.0
C909 C 0.19353 0.36967 0.09616 0.0
C910 C 0.20824 0.38899 0.16453 0.0
C911 C 0.23504 0.36403 0.08681 0.0
H912 H 0.28105 0.4278 0.12246 0.0
H913 H 0.29688 0.36131 0.14694 0.0
H914 H 0.22951 0.41746 0.09973 0.0
H915 H 0.221 0.42499 0.12762 0.0
H916 H 0.24399 0.4398 0.11417 0.0
H917 H 0.26718 0.33613 0.15728 0.0
H918 H 0.23752 0.34465 0.15509 0.0
H919 H 0.25233 0.33405 0.13093 0.0
H920 H 0.1671 0.38566 0.14458 0.0
H921 H 0.18968 0.36545 0.07887 0.0
H922 H 0.21376 0.4068 0.16443 0.0
H923 H 0.22228 0.3788 0.17206 0.0
H924 H 0.19282 0.3877 0.17535 0.0
H925 H 0.24389 0.37965 0.08169 0.0
H926 H 0.22823 0.35577 0.07151 0.0
H927 H 0.24797 0.35269 0.09461 0.0
C928 C 0.3998 0.12898 0.23531 0.0
C929 C 0.38117 0.11926 0.22428 0.0
C930 C 0.40389 0.12504 0.25809 0.0
C931 C 0.38892 0.11106 0.27028 0.0
C932 C 0.37093 0.09996 0.25893 0.0
C933 C 0.36728 0.10415 0.23591 0.0
C934 C 0.42335 0.13713 0.26942 0.0
C935 C 0.3547 0.08482 0.27135 0.0
C936 C 0.41015 0.09663 0.3289 0.0
C937 C 0.39904 0.1132 0.34181 0.0
C938 C 0.40602 0.09482 0.30571 0.0
C939 C 0.39086 0.11028 0.29518 0.0
C940 C 0.37935 0.1268 0.30823 0.0
C941 C 0.38343 0.12792 0.33139 0.0
C942 C 0.4182 0.0767 0.29241 0.0
C943 C 0.36332 0.14385 0.29762 0.0
H944 H 0.41076 0.14044 0.22623 0.0
H945 H 0.35284 0.09667 0.22741 0.0
H946 H 0.41635 0.14985 0.2813 0.0
H947 H 0.43397 0.12513 0.27929 0.0
H948 H 0.43456 0.14583 0.25719 0.0
H949 H 0.34428 0.07456 0.25968 0.0
H950 H 0.3642 0.07339 0.28285 0.0
H951 H 0.34293 0.09524 0.28175 0.0
H952 H 0.42191 0.08494 0.33694 0.0
H953 H 0.37473 0.14073 0.34128 0.0
H954 H 0.43054 0.08448 0.28067 0.0
H955 H 0.40576 0.06721 0.28213 0.0
H956 H 0.42765 0.06467 0.30338 0.0
H957 H 0.37299 0.15467 0.28585 0.0
H958 H 0.35479 0.15483 0.31027 0.0
H959 H 0.34997 0.13519 0.28773 0.0
C960 C 0.39454 0.88253 0.67187 0.0
C961 C 0.3772 0.86762 0.66586 0.0
C962 C 0.40141 0.88464 0.6944 0.0
C963 C 0.3908 0.87128 0.71104 0.0
C964 C 0.37411 0.85537 0.7047 0.0
C965 C 0.3673 0.85398 0.68223 0.0
C966 C 0.41892 0.90207 0.70049 0.0
C967 C 0.36278 0.84034 0.72179 0.0
C968 C 0.41483 0.85628 0.76763 0.0
C969 C 0.39899 0.86697 0.78192 0.0
C970 C 0.41386 0.85926 0.74436 0.0
C971 C 0.39681 0.87354 0.73518 0.0
C972 C 0.38272 0.88663 0.74969 0.0
C973 C 0.38389 0.88311 0.77303 0.0
C974 C 0.42934 0.84511 0.7296 0.0
C975 C 0.3649 0.90268 0.74048 0.0
H976 H 0.40166 0.89354 0.6592 0.0
H977 H 0.35361 0.84276 0.67751 0.0
H978 H 0.41016 0.91661 0.70859 0.0
H979 H 0.43152 0.89524 0.71271 0.0
H980 H 0.42824 0.90827 0.68549 0.0
H981 H 0.35114 0.828 0.71388 0.0
H982 H 0.37592 0.83097 0.73158 0.0
H983 H 0.35271 0.85075 0.73379 0.0
H984 H 0.42693 0.84415 0.77452 0.0
H985 H 0.37177 0.89159 0.78401 0.0
H986 H 0.43606 0.85515 0.71542 0.0
H987 H 0.41939 0.83105 0.72238 0.0
H988 H 0.44399 0.83785 0.73913 0.0
H989 H 0.3719 0.91244 0.72621 0.0
H990 H 0.35858 0.91458 0.75353 0.0
H991 H 0.35015 0.89297 0.73412 0.0
C992 C 0.60299 0.88783 0.22682 0.0
C993 C 0.62596 0.8879 0.22028 0.0
C994 C 0.59672 0.89232 0.24908 0.0
C995 C 0.61396 0.89664 0.26513 0.0
C996 C 0.63708 0.89834 0.25818 0.0
C997 C 0.64284 0.8939 0.2357 0.0
C998 C 0.5719 0.89038 0.25574 0.0
C999 C 0.65593 0.90297 0.2748 0.0
C1000 C 0.59571 0.91478 0.32375 0.0
C1001 C 0.59754 0.8944 0.33545 0.0
C1002 C 0.60133 0.91593 0.30085 0.0
C1003 C 0.60819 0.89609 0.28941 0.0
C1004 C 0.60937 0.87534 0.30113 0.0
C1005 C 0.6044 0.87484 0.32412 0.0
C1006 C 0.60051 0.9384 0.28904 0.0
C1007 C 0.61607 0.85368 0.28943 0.0
H1008 H 0.59005 0.88291 0.21478 0.0
H1009 H 0.66064 0.89353 0.23057 0.0
H1010 H 0.56951 0.87459 0.26536 0.0
H1011 H 0.56668 0.90457 0.26677 0.0
H1012 H 0.5604 0.8901 0.2409 0.0
H1013 H 0.67219 0.90742 0.26631 0.0
H1014 H 0.65092 0.91685 0.28632 0.0
H1015 H 0.65907 0.88775 0.28519 0.0
H1016 H 0.59084 0.92996 0.33275 0.0
H1017 H 0.60589 0.85914 0.33332 0.0
H1018 H 0.58886 0.93763 0.27437 0.0
H1019 H 0.61776 0.94251 0.28255 0.0
H1020 H 0.59467 0.95222 0.3003 0.0
H1021 H 0.6046 0.85071 0.27492 0.0
H1022 H 0.61527 0.83888 0.3008 0.0
H1023 H 0.63374 0.85494 0.2828 0.0
C1024 C 0.64122 0.1226 0.77513 0.0
C1025 C 0.62134 0.1201 0.78784 0.0
C1026 C 0.64088 0.11947 0.75181 0.0
C1027 C 0.62008 0.11377 0.74111 0.0
C1028 C 0.6005 0.10912 0.75423 0.0
C1029 C 0.60131 0.11259 0.77753 0.0
C1030 C 0.66223 0.12435 0.73848 0.0
C1031 C 0.57818 0.10247 0.74355 0.0
C1032 C 0.61661 0.13876 0.68265 0.0
C1033 C 0.6251 0.12085 0.66984 0.0
C1034 C 0.61333 0.13621 0.70589 0.0
C1035 C 0.61849 0.11522 0.71624 0.0
C1036 C 0.62508 0.0966 0.70288 0.0
C1037 C 0.62855 0.09972 0.67984 0.0
C1038 C 0.60614 0.15644 0.71961 0.0
C1039 C 0.6302 0.07384 0.7131 0.0
H1040 H 0.65651 0.12894 0.78315 0.0
H1041 H 0.58581 0.11119 0.78741 0.0
H1042 H 0.66588 0.11053 0.72644 0.0
H1043 H 0.65961 0.14 0.72859 0.0
H1044 H 0.67743 0.12654 0.74943 0.0
H1045 H 0.56641 0.0948 0.75596 0.0
H1046 H 0.56966 0.11766 0.73645 0.0
H1047 H 0.58107 0.0904 0.7296 0.0
H1048 H 0.61417 0.1551 0.67485 0.0
H1049 H 0.63512 0.08587 0.66976 0.0
H1050 H 0.62068 0.16191 0.7302 0.0
H1051 H 0.59188 0.15206 0.73104 0.0
H1052 H 0.60064 0.17082 0.7089 0.0
H1053 H 0.64706 0.07427 0.72162 0.0
H1054 H 0.63077 0.06034 0.70019 0.0
H1055 H 0.6172 0.0695 0.72591 0.0
C1056 C 0.87243 0.81359 0.64183 0.0
C1057 C 0.8947 0.8212 0.6457 0.0
C1058 C 0.86825 0.79056 0.63873 0.0
C1059 C 0.88677 0.77501 0.6395 0.0
C1060 C 0.90885 0.78245 0.64543 0.0
C1061 C 0.91251 0.80544 0.64852 0.0
C1062 C 0.8444 0.78311 0.63285 0.0
C1063 C 0.92909 0.76644 0.6465 0.0
C1064 C 0.88161 0.71151 0.63696 0.0
C1065 C 0.88674 0.70741 0.61427 0.0
C1066 C 0.88022 0.73359 0.64532 0.0
C1067 C 0.88419 0.75186 0.63065 0.0
C1068 C 0.88831 0.74784 0.60757 0.0
C1069 C 0.88946 0.72569 0.59967 0.0
C1070 C 0.8756 0.73728 0.66998 0.0
C1071 C 0.89276 0.76689 0.59138 0.0
H1072 H 0.85857 0.82568 0.63976 0.0
H1073 H 0.9297 0.8112 0.65196 0.0
H1074 H 0.84349 0.77944 0.6146 0.0
H1075 H 0.84006 0.76743 0.64193 0.0
H1076 H 0.83138 0.79627 0.63685 0.0
H1077 H 0.94442 0.77444 0.65391 0.0
H1078 H 0.92489 0.75133 0.65654 0.0
H1079 H 0.93348 0.76067 0.62929 0.0
H1080 H 0.87935 0.6975 0.64836 0.0
H1081 H 0.89322 0.72274 0.58209 0.0
H1082 H 0.86264 0.75085 0.6724 0.0
H1083 H 0.89152 0.7427 0.67843 0.0
H1084 H 0.86952 0.72174 0.67836 0.0
H1085 H 0.87887 0.77971 0.59241 0.0
H1086 H 0.89412 0.76099 0.57372 0.0
H1087 H 0.90897 0.77529 0.59594 0.0
C1088 C 0.78123 0.37122 0.13113 0.0
C1089 C 0.79086 0.35671 0.14709 0.0
C1090 C 0.7576 0.37109 0.12694 0.0
C1091 C 0.74364 0.3557 0.13869 0.0
C1092 C 0.75355 0.34065 0.15443 0.0
C1093 C 0.77707 0.34153 0.15863 0.0
C1094 C 0.74753 0.38764 0.11034 0.0
C1095 C 0.73929 0.32374 0.16699 0.0
C1096 C 0.68031 0.3673 0.1465 0.0
C1097 C 0.67069 0.35271 0.13065 0.0
C1098 C 0.70408 0.36881 0.14893 0.0
C1099 C 0.71855 0.35559 0.13504 0.0
C1100 C 0.70899 0.34128 0.11862 0.0
C1101 C 0.68514 0.33991 0.11671 0.0
C1102 C 0.7137 0.38417 0.16671 0.0
C1103 C 0.72394 0.3271 0.10339 0.0
H1104 H 0.7921 0.38299 0.12235 0.0
H1105 H 0.78475 0.33022 0.1708 0.0
H1106 H 0.73796 0.37858 0.09712 0.0
H1107 H 0.73517 0.39898 0.11901 0.0
H1108 H 0.76083 0.39808 0.10221 0.0
H1109 H 0.74981 0.3128 0.17817 0.0
H1110 H 0.72625 0.33263 0.17734 0.0
H1111 H 0.73002 0.31291 0.15494 0.0
H1112 H 0.66925 0.37724 0.15734 0.0
H1113 H 0.67783 0.3288 0.10426 0.0
H1114 H 0.72607 0.39595 0.1591 0.0
H1115 H 0.72312 0.37406 0.17942 0.0
H1116 H 0.70015 0.39413 0.1754 0.0
H1117 H 0.73643 0.33787 0.09452 0.0
H1118 H 0.71385 0.31779 0.09068 0.0
H1119 H 0.73388 0.31476 0.11352 0.0
C1120 C 0.13416 0.18305 0.63213 0.0
C1121 C 0.11515 0.17615 0.64452 0.0
C1122 C 0.13836 0.20607 0.629 0.0
C1123 C 0.12323 0.22219 0.63863 0.0
C1124 C 0.10577 0.21513 0.65339 0.0
C1125 C 0.10188 0.19212 0.65606 0.0
C1126 C 0.15737 0.213 0.61342 0.0
C1127 C 0.08938 0.23171 0.66421 0.0
C1128 C 0.1311 0.28533 0.63369 0.0
C1129 C 0.1173 0.2903 0.61502 0.0
C1130 C 0.13403 0.26306 0.64115 0.0
C1131 C 0.12251 0.24556 0.62992 0.0
C1132 C 0.10871 0.2505 0.61096 0.0
C1133 C 0.10646 0.27278 0.60363 0.0
C1134 C 0.14914 0.2583 0.66117 0.0
C1135 C 0.09571 0.23234 0.59878 0.0
H1136 H 0.14437 0.17062 0.62318 0.0
H1137 H 0.08728 0.18664 0.66581 0.0
H1138 H 0.15005 0.21728 0.59675 0.0
H1139 H 0.16611 0.22817 0.61986 0.0
H1140 H 0.17021 0.19927 0.61111 0.0
H1141 H 0.07961 0.22393 0.67814 0.0
H1142 H 0.09857 0.24652 0.67083 0.0
H1143 H 0.077 0.23788 0.65142 0.0
H1144 H 0.13968 0.29883 0.64242 0.0
H1145 H 0.09566 0.27656 0.58929 0.0
H1146 H 0.16251 0.2457 0.65664 0.0
H1147 H 0.1389 0.25098 0.67498 0.0
H1148 H 0.1576 0.27371 0.6675 0.0
H1149 H 0.10768 0.21896 0.59292 0.0
H1150 H 0.08613 0.23897 0.58405 0.0
H1151 H 0.08336 0.2244 0.61041 0.0
C1152 C 0.2213 0.65819 0.1581 0.0
C1153 C 0.20984 0.63862 0.15195 0.0
C1154 C 0.245 0.65984 0.1552 0.0
C1155 C 0.25732 0.64155 0.14565 0.0
C1156 C 0.24567 0.62176 0.13927 0.0
C1157 C 0.22195 0.62049 0.14264 0.0
C1158 C 0.25685 0.68111 0.16242 0.0
C1159 C 0.25821 0.60207 0.12875 0.0
C1160 C 0.31515 0.65552 0.12066 0.0
C1161 C 0.33002 0.64781 0.13748 0.0
C1162 C 0.29143 0.65296 0.12278 0.0
C1163 C 0.28244 0.64316 0.14253 0.0
C1164 C 0.29743 0.63555 0.15966 0.0
C1165 C 0.32111 0.63764 0.15675 0.0
C1166 C 0.276 0.6607 0.10391 0.0
C1167 C 0.28844 0.62557 0.1812 0.0
H1168 H 0.21168 0.67218 0.16521 0.0
H1169 H 0.21281 0.60547 0.13779 0.0
H1170 H 0.27045 0.67703 0.1748 0.0
H1171 H 0.26524 0.68906 0.14777 0.0
H1172 H 0.24483 0.69354 0.17005 0.0
H1173 H 0.24652 0.58815 0.12427 0.0
H1174 H 0.26722 0.60763 0.11336 0.0
H1175 H 0.27138 0.59547 0.1405 0.0
H1176 H 0.32213 0.66315 0.10564 0.0
H1177 H 0.33267 0.6318 0.16979 0.0
H1178 H 0.26456 0.67448 0.10986 0.0
H1179 H 0.26495 0.64668 0.09841 0.0
H1180 H 0.2858 0.66684 0.08919 0.0
H1181 H 0.27708 0.63796 0.18977 0.0
H1182 H 0.30239 0.62062 0.19291 0.0
H1183 H 0.27804 0.61053 0.17749 0.0
C1184 C 0.86847 0.16541 0.3305 0.0
C1185 C 0.84898 0.15448 0.33845 0.0
C1186 C 0.87062 0.18883 0.33302 0.0
C1187 C 0.85294 0.20124 0.3438 0.0
C1188 C 0.83231 0.19048 0.34964 0.0
C1189 C 0.83057 0.16722 0.34678 0.0
C1190 C 0.89249 0.19996 0.32584 0.0
C1191 C 0.81286 0.20316 0.36079 0.0
C1192 C 0.86552 0.24865 0.38395 0.0
C1193 C 0.85694 0.26737 0.37224 0.0
C1194 C 0.86565 0.22719 0.37422 0.0
C1195 C 0.857 0.22437 0.3522 0.0
C1196 C 0.84969 0.24338 0.33973 0.0
C1197 C 0.84966 0.26468 0.34993 0.0
C1198 C 0.87383 0.20736 0.38805 0.0
C1199 C 0.84068 0.2413 0.31611 0.0
H1200 H 0.88267 0.15554 0.32394 0.0
H1201 H 0.81524 0.15876 0.35234 0.0
H1202 H 0.88876 0.21619 0.31729 0.0
H1203 H 0.90298 0.20369 0.34088 0.0
H1204 H 0.90273 0.18905 0.3144 0.0
H1205 H 0.79727 0.19275 0.36242 0.0
H1206 H 0.81817 0.20855 0.37784 0.0
H1207 H 0.80848 0.21854 0.35109 0.0
H1208 H 0.87152 0.25058 0.40106 0.0
H1209 H 0.84326 0.27907 0.34058 0.0
H1210 H 0.88643 0.19713 0.37843 0.0
H1211 H 0.85914 0.19636 0.39201 0.0
H1212 H 0.88186 0.21264 0.40408 0.0
H1213 H 0.84866 0.22695 0.307 0.0
H1214 H 0.84376 0.25696 0.30647 0.0
H1215 H 0.82194 0.23861 0.31673 0.0
C1216 C 0.18272 0.36751 0.83009 0.0
C1217 C 0.16932 0.37243 0.84903 0.0
C1218 C 0.20612 0.36249 0.83218 0.0
C1219 C 0.21644 0.36279 0.85367 0.0
C1220 C 0.20302 0.36786 0.87285 0.0
C1221 C 0.17955 0.37239 0.87032 0.0
C1222 C 0.2198 0.35681 0.81138 0.0
C1223 C 0.2135 0.36874 0.896 0.0
C1224 C 0.27206 0.33049 0.86261 0.0
C1225 C 0.28831 0.34759 0.86082 0.0
C1226 C 0.24863 0.33519 0.86015 0.0
C1227 C 0.24124 0.35758 0.85608 0.0
C1228 C 0.25753 0.37494 0.85424 0.0
C1229 C 0.28089 0.36971 0.85646 0.0
C1230 C 0.23177 0.3162 0.86196 0.0
C1231 C 0.25025 0.39908 0.85027 0.0
H1232 H 0.17486 0.36739 0.81361 0.0
H1233 H 0.1693 0.37641 0.88499 0.0
H1234 H 0.23375 0.36912 0.80918 0.0
H1235 H 0.22792 0.33994 0.81323 0.0
H1236 H 0.2091 0.35686 0.79597 0.0
H1237 H 0.20077 0.37329 0.90914 0.0
H1238 H 0.22125 0.35217 0.9003 0.0
H1239 H 0.22743 0.38128 0.89632 0.0
H1240 H 0.27764 0.31335 0.86592 0.0
H1241 H 0.29331 0.38306 0.85528 0.0
H1242 H 0.22136 0.31525 0.84643 0.0
H1243 H 0.21982 0.31941 0.8761 0.0
H1244 H 0.24034 0.29964 0.8647 0.0
H1245 H 0.24055 0.40045 0.83432 0.0
H1246 H 0.26505 0.41063 0.84946 0.0
H1247 H 0.23867 0.4048 0.86394 0.0
C1248 C 0.14697 0.83125 0.36822 0.0
C1249 C 0.16617 0.83974 0.37944 0.0
C1250 C 0.14203 0.80826 0.36872 0.0
C1251 C 0.15662 0.7935 0.38075 0.0
C1252 C 0.17612 0.80189 0.39192 0.0
C1253 C 0.18057 0.82497 0.39126 0.0
C1254 C 0.12112 0.79983 0.35658 0.0
C1255 C 0.19218 0.78651 0.40476 0.0
C1256 C 0.13676 0.73861 0.40519 0.0
C1257 C 0.14756 0.72302 0.39092 0.0
C1258 C 0.13835 0.76174 0.40121 0.0
C1259 C 0.15113 0.76937 0.38261 0.0
C1260 C 0.16061 0.75375 0.36719 0.0
C1261 C 0.15865 0.73068 0.37151 0.0
C1262 C 0.12763 0.778 0.41774 0.0
C1263 C 0.17416 0.76134 0.34702 0.0
H1264 H 0.13582 0.84253 0.35888 0.0
H1265 H 0.19522 0.83142 0.40018 0.0
H1266 H 0.12581 0.78573 0.34522 0.0
H1267 H 0.10868 0.79324 0.36894 0.0
H1268 H 0.11255 0.81326 0.34657 0.0
H1269 H 0.20706 0.79562 0.41176 0.0
H1270 H 0.18286 0.77843 0.41878 0.0
H1271 H 0.19863 0.77289 0.39362 0.0
H1272 H 0.12781 0.7328 0.42 0.0
H1273 H 0.16685 0.71874 0.36024 0.0
H1274 H 0.11762 0.79118 0.40878 0.0
H1275 H 0.14128 0.78659 0.4273 0.0
H1276 H 0.1162 0.76943 0.42985 0.0
H1277 H 0.16511 0.77519 0.3381 0.0
H1278 H 0.1774 0.74736 0.33499 0.0
H1279 H 0.19089 0.76793 0.35267 0.0
C1280 C 0.81647 0.61031 0.85669 0.0
C1281 C 0.83137 0.62605 0.84747 0.0
C1282 C 0.79314 0.61543 0.8593 0.0
C1283 C 0.78468 0.63676 0.85235 0.0
C1284 C 0.79982 0.65269 0.84298 0.0
C1285 C 0.82309 0.64712 0.84067 0.0
C1286 C 0.77761 0.59809 0.86956 0.0
C1287 C 0.7914 0.67555 0.83535 0.0
C1288 C 0.72081 0.64227 0.84141 0.0
C1289 C 0.71336 0.65336 0.86086 0.0
C1290 C 0.74409 0.63711 0.83821 0.0
C1291 C 0.76005 0.64252 0.85521 0.0
C1292 C 0.75249 0.65338 0.87506 0.0
C1293 C 0.72927 0.65899 0.87748 0.0
C1294 C 0.75162 0.62592 0.81664 0.0
C1295 C 0.76885 0.65878 0.89388 0.0
H1296 H 0.82311 0.59399 0.86183 0.0
H1297 H 0.83482 0.65914 0.83344 0.0
H1298 H 0.76915 0.60513 0.88473 0.0
H1299 H 0.7639 0.59367 0.85752 0.0
H1300 H 0.78698 0.58244 0.87434 0.0
H1301 H 0.8053 0.68582 0.82802 0.0
H1302 H 0.77772 0.6736 0.82261 0.0
H1303 H 0.78385 0.68488 0.84974 0.0
H1304 H 0.70847 0.63793 0.82858 0.0
H1305 H 0.72343 0.66724 0.89272 0.0
H1306 H 0.75954 0.60928 0.82031 0.0
H1307 H 0.76481 0.63626 0.80825 0.0
H1308 H 0.73718 0.62348 0.8048 0.0
H1309 H 0.77753 0.64314 0.89973 0.0
H1310 H 0.7601 0.6668 0.90843 0.0
H1311 H 0.78232 0.67026 0.88776 0.0
C1312 C 0.62146 0.88441 0.778 0.0
C1313 C 0.64069 0.88308 0.79184 0.0
C1314 C 0.6225 0.87697 0.75575 0.0
C1315 C 0.64354 0.86872 0.74703 0.0
C1316 C 0.6628 0.86646 0.76129 0.0
C1317 C 0.66104 0.87346 0.78376 0.0
C1318 C 0.60134 0.87902 0.7413 0.0
C1319 C 0.68554 0.858 0.75256 0.0
C1320 C 0.63357 0.84253 0.69039 0.0
C1321 C 0.63552 0.86147 0.67664 0.0
C1322 C 0.63879 0.84384 0.71334 0.0
C1323 C 0.64545 0.86474 0.72253 0.0
C1324 C 0.64944 0.8833 0.70817 0.0
C1325 C 0.64439 0.88141 0.68527 0.0
C1326 C 0.63486 0.82356 0.72802 0.0
C1327 C 0.65661 0.90586 0.71729 0.0
H1328 H 0.6057 0.89166 0.78451 0.0
H1329 H 0.6759 0.87256 0.79464 0.0
H1330 H 0.60399 0.89202 0.72821 0.0
H1331 H 0.598 0.86287 0.73262 0.0
H1332 H 0.58593 0.88377 0.75122 0.0
H1333 H 0.69727 0.85304 0.76642 0.0
H1334 H 0.68329 0.84341 0.74118 0.0
H1335 H 0.69377 0.87155 0.74272 0.0
H1336 H 0.62653 0.82718 0.68354 0.0
H1337 H 0.64562 0.89606 0.67448 0.0
H1338 H 0.61802 0.82535 0.73648 0.0
H1339 H 0.64814 0.82216 0.74126 0.0
H1340 H 0.63483 0.80774 0.71806 0.0
H1341 H 0.64193 0.9139 0.72611 0.0
H1342 H 0.66232 0.91738 0.70376 0.0
H1343 H 0.67066 0.90378 0.72965 0.0
C1344 C 0.6074 0.10617 0.2373 0.0
C1345 C 0.61611 0.12027 0.22054 0.0
C1346 C 0.60558 0.11357 0.25954 0.0
C1347 C 0.61273 0.13554 0.26512 0.0
C1348 C 0.62037 0.15026 0.24811 0.0
C1349 C 0.62192 0.14247 0.22597 0.0
C1350 C 0.59762 0.09729 0.27732 0.0
C1351 C 0.62851 0.17368 0.25354 0.0
C1352 C 0.60314 0.15588 0.32502 0.0
C1353 C 0.62429 0.15023 0.33461 0.0
C1354 C 0.59911 0.15171 0.30209 0.0
C1355 C 0.6165 0.14138 0.28893 0.0
C1356 C 0.63784 0.13582 0.29862 0.0
C1357 C 0.64149 0.14048 0.32117 0.0
C1358 C 0.57629 0.15804 0.29198 0.0
C1359 C 0.65678 0.12444 0.28533 0.0
H1360 H 0.60256 0.0891 0.2332 0.0
H1361 H 0.6285 0.15355 0.21309 0.0
H1362 H 0.61241 0.09191 0.28777 0.0
H1363 H 0.58499 0.10552 0.28864 0.0
H1364 H 0.58978 0.08204 0.26992 0.0
H1365 H 0.6307 0.18408 0.23821 0.0
H1366 H 0.6163 0.18236 0.26497 0.0
H1367 H 0.64522 0.17257 0.26233 0.0
H1368 H 0.58985 0.16339 0.33536 0.0
H1369 H 0.65792 0.13588 0.32837 0.0
H1370 H 0.56763 0.14272 0.28578 0.0
H1371 H 0.57882 0.16924 0.2773 0.0
H1372 H 0.56488 0.1667 0.30422 0.0
H1373 H 0.65087 0.10797 0.27891 0.0
H1374 H 0.67246 0.12149 0.29549 0.0
H1375 H 0.66138 0.13487 0.27059 0.0
C1376 C 0.35586 0.1353 0.67709 0.0
C1377 C 0.37897 0.13224 0.67131 0.0
C1378 C 0.34838 0.13187 0.69925 0.0
C1379 C 0.36436 0.12509 0.71584 0.0
C1380 C 0.38776 0.12264 0.71022 0.0
C1381 C 0.39477 0.12635 0.68811 0.0
C1382 C 0.32333 0.13485 0.70478 0.0
C1383 C 0.40534 0.11523 0.72739 0.0
C1384 C 0.3557 0.12779 0.77869 0.0
C1385 C 0.35282 0.10494 0.78373 0.0
C1386 C 0.35784 0.13501 0.75636 0.0
C1387 C 0.35682 0.11899 0.7388 0.0
C1388 C 0.35208 0.09622 0.74376 0.0
C1389 C 0.35029 0.08944 0.7662 0.0
C1390 C 0.36295 0.15942 0.75173 0.0
C1391 C 0.35067 0.07864 0.7255 0.0
H1392 H 0.34355 0.13993 0.66425 0.0
H1393 H 0.41267 0.12395 0.68391 0.0
H1394 H 0.31609 0.11848 0.70999 0.0
H1395 H 0.3212 0.14661 0.71911 0.0
H1396 H 0.31332 0.14139 0.69029 0.0
H1397 H 0.423 0.11503 0.72048 0.0
H1398 H 0.40484 0.1266 0.74215 0.0
H1399 H 0.40135 0.09804 0.73342 0.0
H1400 H 0.35762 0.13986 0.79219 0.0
H1401 H 0.3477 0.07181 0.77002 0.0
H1402 H 0.35249 0.16579 0.73751 0.0
H1403 H 0.38119 0.16105 0.7469 0.0
H1404 H 0.35972 0.17023 0.76665 0.0
H1405 H 0.33978 0.08472 0.71147 0.0
H1406 H 0.34368 0.06252 0.73182 0.0
H1407 H 0.36802 0.07531 0.71863 0.0
C1408 C 0.37392 0.86022 0.22757 0.0
C1409 C 0.38705 0.87839 0.22016 0.0
C1410 C 0.37012 0.85674 0.25055 0.0
C1411 C 0.3798 0.87173 0.26627 0.0
C1412 C 0.39496 0.8886 0.25895 0.0
C1413 C 0.39835 0.89177 0.23593 0.0
C1414 C 0.35428 0.83821 0.2578 0.0
C1415 C 0.40616 0.90447 0.2753 0.0
C1416 C 0.34575 0.88694 0.31821 0.0
C1417 C 0.35791 0.87542 0.33496 0.0
C1418 C 0.35254 0.88549 0.2957 0.0
C1419 C 0.37175 0.87198 0.28983 0.0
C1420 C 0.38383 0.85994 0.30657 0.0
C1421 C 0.37682 0.86189 0.32897 0.0
C1422 C 0.33931 0.89867 0.27822 0.0
C1423 C 0.40399 0.84489 0.30082 0.0
H1424 H 0.36537 0.84962 0.21546 0.0
H1425 H 0.40898 0.9055 0.23028 0.0
H1426 H 0.36116 0.8293 0.27275 0.0
H1427 H 0.33746 0.84563 0.26255 0.0
H1428 H 0.35151 0.82574 0.24419 0.0
H1429 H 0.41951 0.91483 0.26716 0.0
H1430 H 0.39299 0.91593 0.28257 0.0
H1431 H 0.41408 0.89497 0.28938 0.0
H1432 H 0.33102 0.89722 0.32271 0.0
H1433 H 0.38602 0.8525 0.34177 0.0
H1434 H 0.3328 0.88712 0.26511 0.0
H1435 H 0.35078 0.91082 0.26983 0.0
H1436 H 0.32459 0.90811 0.28553 0.0
H1437 H 0.39812 0.83053 0.2905 0.0
H1438 H 0.41263 0.8381 0.31603 0.0
H1439 H 0.4167 0.85418 0.29069 0.0
C1440 C 0.08392 0.11879 0.54585 0.0
C1441 C 0.09939 0.11252 0.56272 0.0
C1442 C 0.08983 0.11665 0.52311 0.0
C1443 C 0.11174 0.10809 0.51715 0.0
C1444 C 0.12778 0.10265 0.53407 0.0
C1445 C 0.1214 0.10487 0.55665 0.0
C1446 C 0.07231 0.12283 0.50545 0.0
C1447 C 0.15136 0.09372 0.52836 0.0
C1448 C 0.10882 0.07997 0.46064 0.0
C1449 C 0.11553 0.09749 0.44654 0.0
C1450 C 0.10972 0.08241 0.48399 0.0
C1451 C 0.11685 0.10313 0.49325 0.0
C1452 C 0.12561 0.1201 0.47903 0.0
C1453 C 0.12497 0.11698 0.45568 0.0
C1454 C 0.10088 0.06365 0.4986 0.0
C1455 C 0.1334 0.1424 0.48822 0.0
H1456 H 0.06698 0.12485 0.55036 0.0
H1457 H 0.13365 0.10027 0.56956 0.0
H1458 H 0.07971 0.13482 0.49323 0.0
H1459 H 0.06738 0.10755 0.49599 0.0
H1460 H 0.05663 0.13055 0.51281 0.0
H1461 H 0.16269 0.09285 0.54332 0.0
H1462 H 0.14997 0.07656 0.52117 0.0
H1463 H 0.15953 0.10444 0.51547 0.0
H1464 H 0.10138 0.065 0.45339 0.0
H1465 H 0.12978 0.13064 0.44462 0.0
H1466 H 0.08375 0.06842 0.50522 0.0
H1467 H 0.11233 0.06079 0.51318 0.0
H1468 H 0.0993 0.04761 0.48916 0.0
H1469 H 0.11819 0.15297 0.4923 0.0
H1470 H 0.14399 0.15165 0.47586 0.0
H1471 H 0.14337 0.1401 0.5039 0.0
C1472 C 0.38344 0.58611 0.96433 0.0
C1473 C 0.39943 0.59525 0.94948 0.0
C1474 C 0.38414 0.59108 0.98728 0.0
C1475 C 0.40166 0.605 0.99561 0.0
C1476 C 0.41804 0.6141 0.98071 0.0
C1477 C 0.41652 0.60937 0.95767 0.0
C1478 C 0.36584 0.58181 0.0025 0.0
C1479 C 0.4371 0.62882 0.98909 0.0
C1480 C 0.39041 0.63684 0.04941 0.0
C1481 C 0.40192 0.62352 0.06538 0.0
C1482 C 0.39015 0.63092 0.02673 0.0
C1483 C 0.40187 0.61123 0.01971 0.0
C1484 C 0.4133 0.59747 0.0357 0.0
C1485 C 0.41303 0.60369 0.05849 0.0
C1486 C 0.37735 0.64579 0.01027 0.0
C1487 C 0.4261 0.57644 0.02864 0.0
H1488 H 0.37009 0.57536 0.95789 0.0
H1489 H 0.42896 0.61628 0.94614 0.0
H1490 H 0.37377 0.57167 0.01612 0.0
H1491 H 0.35627 0.59587 0.01057 0.0
H1492 H 0.35349 0.57112 0.99333 0.0
H1493 H 0.44916 0.63352 0.9755 0.0
H1494 H 0.42986 0.64446 0.99654 0.0
H1495 H 0.44681 0.61997 0.00252 0.0
H1496 H 0.38151 0.65207 0.05466 0.0
H1497 H 0.42202 0.59343 0.07076 0.0
H1498 H 0.36432 0.63585 0.00122 0.0
H1499 H 0.38933 0.65245 0.99752 0.0
H1500 H 0.36865 0.66025 0.01862 0.0
H1501 H 0.41429 0.56465 0.02021 0.0
H1502 H 0.43423 0.56765 0.04309 0.0
H1503 H 0.43957 0.5808 0.0163 0.0
C1504 C 0.87957 0.91896 0.46407 0.0
C1505 C 0.8787 0.89952 0.45094 0.0
C1506 C 0.87796 0.91759 0.48749 0.0
C1507 C 0.87619 0.89616 0.49773 0.0
C1508 C 0.87266 0.87684 0.48431 0.0
C1509 C 0.87384 0.87881 0.4609 0.0
C1510 C 0.8811 0.93868 0.50122 0.0
C1511 C 0.87072 0.8537 0.49452 0.0
C1512 C 0.91298 0.8884 0.5495 0.0
C1513 C 0.89676 0.88978 0.56674 0.0
C1514 C 0.90635 0.89027 0.52698 0.0
C1515 C 0.88291 0.89344 0.52158 0.0
C1516 C 0.86638 0.89443 0.53885 0.0
C1517 C 0.87351 0.89263 0.56126 0.0
C1518 C 0.92453 0.88918 0.50895 0.0
C1519 C 0.84126 0.8976 0.53369 0.0
H1520 H 0.88361 0.9349 0.45621 0.0
H1521 H 0.87357 0.86376 0.45059 0.0
H1522 H 0.86989 0.93865 0.51624 0.0
H1523 H 0.89908 0.93945 0.5071 0.0
H1524 H 0.87736 0.95407 0.49121 0.0
H1525 H 0.86338 0.84146 0.48247 0.0
H1526 H 0.88801 0.84756 0.49942 0.0
H1527 H 0.85999 0.8541 0.50987 0.0
H1528 H 0.93093 0.88629 0.55361 0.0
H1529 H 0.8608 0.89354 0.5745 0.0
H1530 H 0.92465 0.9052 0.49938 0.0
H1531 H 0.9207 0.87549 0.4969 0.0
H1532 H 0.94191 0.88619 0.51596 0.0
H1533 H 0.83851 0.91344 0.52416 0.0
H1534 H 0.83059 0.89819 0.54912 0.0
H1535 H 0.83524 0.88364 0.52292 0.0
C1536 C 0.5933 0.38976 0.95682 0.0
C1537 C 0.601 0.41042 0.94855 0.0
C1538 C 0.59179 0.38588 0.98002 0.0
C1539 C 0.59828 0.40302 0.99521 0.0
C1540 C 0.60584 0.42395 0.98699 0.0
C1541 C 0.60705 0.42741 0.96379 0.0
C1542 C 0.58364 0.36332 0.98829 0.0
C1543 C 0.61325 0.44248 0.00267 0.0
C1544 C 0.5793 0.39778 0.05597 0.0
C1545 C 0.59839 0.38704 0.06539 0.0
C1546 C 0.57911 0.40354 0.03309 0.0
C1547 C 0.59858 0.39859 0.0197 0.0
C1548 C 0.61832 0.38883 0.02958 0.0
C1549 C 0.61787 0.38297 0.0523 0.0
C1550 C 0.55775 0.41381 0.023 0.0
C1551 C 0.63954 0.38364 0.01596 0.0
H1552 H 0.58855 0.37658 0.94519 0.0
H1553 H 0.61309 0.44345 0.95764 0.0
H1554 H 0.5976 0.35463 0.99759 0.0
H1555 H 0.56916 0.36568 0.00013 0.0
H1556 H 0.57806 0.35225 0.97434 0.0
H1557 H 0.61783 0.45811 0.99356 0.0
H1558 H 0.59939 0.44651 0.01479 0.0
H1559 H 0.62831 0.43675 0.01255 0.0
H1560 H 0.56411 0.40042 0.06613 0.0
H1561 H 0.63251 0.3744 0.05972 0.0
H1562 H 0.55032 0.40193 0.01069 0.0
H1563 H 0.56193 0.42945 0.01376 0.0
H1564 H 0.54461 0.41783 0.03592 0.0
H1565 H 0.63572 0.37052 0.00329 0.0
H1566 H 0.65395 0.37755 0.02658 0.0
H1567 H 0.6451 0.39885 0.00673 0.0
C1568 C 0.14081 0.89445 0.53454 0.0
C1569 C 0.14196 0.9121 0.54998 0.0
C1570 C 0.13775 0.89881 0.51163 0.0
C1571 C 0.13669 0.9214 0.50404 0.0
C1572 C 0.13597 0.9392 0.51987 0.0
C1573 C 0.13843 0.93429 0.5428 0.0
C1574 C 0.13804 0.87927 0.49543 0.0
C1575 C 0.13492 0.96348 0.51248 0.0
C1576 C 0.17075 0.92855 0.45093 0.0
C1577 C 0.15382 0.92768 0.43423 0.0
C1578 C 0.16519 0.92747 0.47368 0.0
C1579 C 0.14197 0.92619 0.48013 0.0
C1580 C 0.12459 0.92732 0.46356 0.0
C1581 C 0.13073 0.92784 0.44067 0.0
C1582 C 0.18437 0.9261 0.49072 0.0
C1583 C 0.09964 0.92662 0.46991 0.0
H1584 H 0.14321 0.87726 0.5403 0.0
H1585 H 0.1393 0.9479 0.5549 0.0
H1586 H 0.12523 0.88184 0.48192 0.0
H1587 H 0.15514 0.87797 0.48742 0.0
H1588 H 0.13449 0.86307 0.50401 0.0
H1589 H 0.12982 0.97485 0.52647 0.0
H1590 H 0.15205 0.96861 0.50645 0.0
H1591 H 0.12272 0.96575 0.49838 0.0
H1592 H 0.18866 0.92883 0.44624 0.0
H1593 H 0.11753 0.92728 0.42792 0.0
H1594 H 0.18432 0.90937 0.49901 0.0
H1595 H 0.1819 0.93899 0.50399 0.0
H1596 H 0.20146 0.92852 0.48299 0.0
H1597 H 0.09504 0.90914 0.47444 0.0
H1598 H 0.08845 0.93221 0.45586 0.0
H1599 H 0.09615 0.9374 0.48477 0.0
C1600 C 0.63611 0.61764 0.94728 0.0
C1601 C 0.65066 0.63397 0.93853 0.0
C1602 C 0.63699 0.61205 0.97017 0.0
C1603 C 0.65305 0.62282 0.98427 0.0
C1604 C 0.6687 0.63827 0.97514 0.0
C1605 C 0.6672 0.64377 0.95238 0.0
C1606 C 0.62001 0.59553 0.97949 0.0
C1607 C 0.68635 0.64975 0.98955 0.0
C1608 C 0.63899 0.62896 0.04603 0.0
C1609 C 0.65126 0.61081 0.05522 0.0
C1610 C 0.63941 0.63304 0.02287 0.0
C1611 C 0.65275 0.61886 0.00878 0.0
C1612 C 0.66588 0.60108 0.01811 0.0
C1613 C 0.66481 0.59714 0.04124 0.0
C1614 C 0.62518 0.65218 0.01342 0.0
C1615 C 0.68084 0.5861 0.00365 0.0
H1616 H 0.62327 0.61019 0.93655 0.0
H1617 H 0.67865 0.65624 0.9455 0.0
H1618 H 0.62903 0.58199 0.9889 0.0
H1619 H 0.60844 0.60429 0.9915 0.0
H1620 H 0.60949 0.58774 0.96612 0.0
H1621 H 0.69864 0.65962 0.97941 0.0
H1622 H 0.6777 0.66132 0.00154 0.0
H1623 H 0.69606 0.63715 0.9996 0.0
H1624 H 0.62844 0.63947 0.05683 0.0
H1625 H 0.67454 0.58324 0.04838 0.0
H1626 H 0.61259 0.64553 0.00124 0.0
H1627 H 0.63626 0.66407 0.0042 0.0
H1628 H 0.6158 0.66164 0.02669 0.0
H1629 H 0.67012 0.57684 0.99146 0.0
H1630 H 0.6908 0.57368 0.01371 0.0
H1631 H 0.69295 0.59643 0.99381 0.0
C1632 C 0.86876 0.07861 0.43824 0.0
C1633 C 0.87432 0.09993 0.43001 0.0
C1634 C 0.86763 0.07471 0.46145 0.0
C1635 C 0.87258 0.09251 0.47644 0.0
C1636 C 0.88149 0.1129 0.46807 0.0
C1637 C 0.8821 0.11644 0.44485 0.0
C1638 C 0.85819 0.05267 0.46969 0.0
C1639 C 0.88747 0.13211 0.48351 0.0
C1640 C 0.83399 0.10058 0.52691 0.0
C1641 C 0.84814 0.09341 0.54453 0.0
C1642 C 0.84165 0.09979 0.50465 0.0
C1643 C 0.86405 0.09173 0.49988 0.0
C1644 C 0.87829 0.08409 0.51751 0.0
C1645 C 0.87016 0.08498 0.53964 0.0
C1646 C 0.82583 0.1079 0.48623 0.0
C1647 C 0.90219 0.07531 0.51302 0.0
H1648 H 0.86252 0.06591 0.42675 0.0
H1649 H 0.8864 0.13293 0.43839 0.0
H1650 H 0.86676 0.04716 0.48539 0.0
H1651 H 0.8397 0.05487 0.4734 0.0
H1652 H 0.86012 0.03918 0.45689 0.0
H1653 H 0.89811 0.14486 0.47489 0.0
H1654 H 0.87149 0.1405 0.48935 0.0
H1655 H 0.89678 0.12592 0.49854 0.0
H1656 H 0.8169 0.10687 0.5305 0.0
H1657 H 0.88122 0.07931 0.55316 0.0
H1658 H 0.82391 0.09455 0.47337 0.0
H1659 H 0.83327 0.12278 0.47779 0.0
H1660 H 0.80858 0.11262 0.49263 0.0
H1661 H 0.90162 0.06102 0.50106 0.0
H1662 H 0.91095 0.0696 0.52859 0.0
H1663 H 0.91257 0.08865 0.50509 0.0
C1664 C 0.33684 0.36544 0.94875 0.0
C1665 C 0.35634 0.36944 0.9358 0.0
C1666 C 0.33654 0.37033 0.9717 0.0
C1667 C 0.35645 0.37892 0.98189 0.0
C1668 C 0.37598 0.38369 0.9687 0.0
C1669 C 0.37561 0.37907 0.94561 0.0
C1670 C 0.31525 0.36548 0.98516 0.0
C1671 C 0.39758 0.39261 0.97918 0.0
C1672 C 0.35019 0.40709 0.03836 0.0
C1673 C 0.35698 0.3898 0.05309 0.0
C1674 C 0.35004 0.40376 0.01515 0.0
C1675 C 0.35682 0.38264 0.00642 0.0
C1676 C 0.3634 0.36497 0.02111 0.0
C1677 C 0.36335 0.36875 0.04436 0.0
C1678 C 0.34265 0.42288 -3e-05 0.0
C1679 C 0.37068 0.34217 0.01226 0.0
H1680 H 0.32205 0.35778 0.941 0.0
H1681 H 0.3908 0.38165 0.93553 0.0
H1682 H 0.31887 0.35188 0.99745 0.0
H1683 H 0.3099 0.38061 0.99483 0.0
H1684 H 0.30076 0.36023 0.97437 0.0
H1685 H 0.41088 0.39638 0.96644 0.0
H1686 H 0.39378 0.40814 0.98888 0.0
H1687 H 0.40463 0.38 0.99113 0.0
H1688 H 0.34509 0.4234 0.04493 0.0
H1689 H 0.36865 0.35534 0.05562 0.0
H1690 H 0.32781 0.41771 0.98967 0.0
H1691 H 0.35669 0.42709 0.98821 0.0
H1692 H 0.33783 0.43829 0.0095 0.0
H1693 H 0.35661 0.3347 0.00235 0.0
H1694 H 0.37547 0.3303 0.02593 0.0
H1695 H 0.38552 0.34399 0.00081 0.0
C1696 C 0.54231 0.10234 0.12225 0.0
C1697 C 0.55365 0.10468 0.14275 0.0
C1698 C 0.51915 0.10855 0.12023 0.0
C1699 C 0.50739 0.11735 0.13916 0.0
C1700 C 0.51903 0.11989 0.15984 0.0
C1701 C 0.54209 0.11348 0.16136 0.0
C1702 C 0.50725 0.1057 0.09795 0.0
C1703 C 0.50712 0.12921 0.18041 0.0
C1704 C 0.45232 0.15147 0.13563 0.0
C1705 C 0.43616 0.13528 0.14153 0.0
C1706 C 0.47552 0.14557 0.13337 0.0
C1707 C 0.48268 0.12315 0.13783 0.0
C1708 C 0.4663 0.10664 0.14314 0.0
C1709 C 0.44319 0.11285 0.14462 0.0
C1710 C 0.49247 0.1635 0.12714 0.0
C1711 C 0.4733 0.08269 0.14856 0.0
H1712 H 0.55157 0.09573 0.10787 0.0
H1713 H 0.55119 0.11549 0.17709 0.0
H1714 H 0.49301 0.09364 0.09972 0.0
H1715 H 0.49967 0.12199 0.09245 0.0
H1716 H 0.51904 0.09942 0.08467 0.0
H1717 H 0.51875 0.13032 0.1951 0.0
H1718 H 0.50012 0.14626 0.17683 0.0
H1719 H 0.49249 0.11837 0.18495 0.0
H1720 H 0.44685 0.16878 0.13311 0.0
H1721 H 0.43075 0.10033 0.14941 0.0
H1722 H 0.50403 0.15737 0.11362 0.0
H1723 H 0.50327 0.16747 0.1419 0.0
H1724 H 0.48388 0.17926 0.12143 0.0
H1725 H 0.4842 0.07563 0.13499 0.0
H1726 H 0.45834 0.07158 0.15093 0.0
H1727 H 0.48361 0.08243 0.16421 0.0
C1728 C 0.37412 0.95472 0.58525 0.0
C1729 C 0.36074 0.94767 0.60342 0.0
C1730 C 0.38183 0.97691 0.58384 0.0
C1731 C 0.37639 0.99222 0.60127 0.0
C1732 C 0.36309 0.98514 0.61979 0.0
C1733 C 0.35519 0.96296 0.62052 0.0
C1734 C 0.3955 0.98403 0.56358 0.0
C1735 C 0.35716 0.001 0.63878 0.0
C1736 C 0.41097 0.04549 0.60825 0.0
C1737 C 0.39609 0.06168 0.59901 0.0
C1738 C 0.405 0.02266 0.60872 0.0
C1739 C 0.38373 0.01597 0.59968 0.0
C1740 C 0.36903 0.03209 0.58964 0.0
C1741 C 0.37538 0.05472 0.58942 0.0
C1742 C 0.42108 0.00581 0.61951 0.0
C1743 C 0.34629 0.02555 0.57965 0.0
H1744 H 0.37827 0.94295 0.5719 0.0
H1745 H 0.345 0.95746 0.63467 0.0
H1746 H 0.38631 0.99775 0.55457 0.0
H1747 H 0.41225 0.99077 0.56893 0.0
H1748 H 0.39857 0.96992 0.55167 0.0
H1749 H 0.34751 0.99257 0.65241 0.0
H1750 H 0.373 0.00814 0.64599 0.0
H1751 H 0.34668 0.01528 0.63235 0.0
H1752 H 0.42698 0.05071 0.61567 0.0
H1753 H 0.3638 0.06704 0.58207 0.0
H1754 H 0.42499 0.99188 0.60765 0.0
H1755 H 0.41276 0.99826 0.63442 0.0
H1756 H 0.4374 0.01355 0.62486 0.0
H1757 H 0.34876 0.01202 0.56702 0.0
H1758 H 0.33736 0.03999 0.5715 0.0
H1759 H 0.33502 0.01881 0.59298 0.0
C1760 C 0.46029 0.86895 0.15371 0.0
C1761 C 0.45083 0.88381 0.13797 0.0
C1762 C 0.48366 0.86352 0.15328 0.0
C1763 C 0.49763 0.87267 0.13621 0.0
C1764 C 0.48781 0.88682 0.11956 0.0
C1765 C 0.46449 0.89263 0.12092 0.0
C1766 C 0.49357 0.84902 0.17179 0.0
C1767 C 0.50204 0.89629 0.10072 0.0
C1768 C 0.56008 0.88022 0.15083 0.0
C1769 C 0.5698 0.86023 0.14263 0.0
C1770 C 0.53661 0.88459 0.1486 0.0
C1771 C 0.52277 0.86895 0.13708 0.0
C1772 C 0.53278 0.84918 0.12784 0.0
C1773 C 0.55619 0.84477 0.13121 0.0
C1774 C 0.52651 0.90542 0.15946 0.0
C1775 C 0.5187 0.83255 0.11477 0.0
H1776 H 0.44956 0.8624 0.167 0.0
H1777 H 0.45697 0.90415 0.10881 0.0
H1778 H 0.50281 0.83431 0.16459 0.0
H1779 H 0.50616 0.85885 0.18157 0.0
H1780 H 0.48023 0.84281 0.18347 0.0
H1781 H 0.49133 0.90457 0.08765 0.0
H1782 H 0.5141 0.90887 0.1075 0.0
H1783 H 0.51243 0.88272 0.09276 0.0
H1784 H 0.57071 0.89199 0.1599 0.0
H1785 H 0.56389 0.82936 0.12484 0.0
H1786 H 0.51371 0.9005 0.17228 0.0
H1787 H 0.51746 0.91587 0.14678 0.0
H1788 H 0.5397 0.9159 0.16771 0.0
H1789 H 0.50663 0.82398 0.12621 0.0
H1790 H 0.52953 0.81954 0.10641 0.0
H1791 H 0.50835 0.84143 0.10184 0.0
C1792 C 0.62639 0.04508 0.58832 0.0
C1793 C 0.64467 0.05282 0.60135 0.0
C1794 C 0.62065 0.02225 0.58817 0.0
C1795 C 0.63327 0.00694 0.60164 0.0
C1796 C 0.65216 0.01453 0.61428 0.0
C1797 C 0.65775 0.03738 0.61384 0.0
C1798 C 0.60072 0.01463 0.57407 0.0
C1799 C 0.66596 0.99867 0.62892 0.0
C1800 C 0.60381 0.95427 0.62205 0.0
C1801 C 0.6137 0.93774 0.60821 0.0
C1802 C 0.60993 0.97692 0.61994 0.0
C1803 C 0.62607 0.98317 0.60341 0.0
C1804 C 0.63572 0.96668 0.58906 0.0
C1805 C 0.62953 0.94412 0.59172 0.0
C1806 C 0.59948 0.99411 0.63569 0.0
C1807 C 0.65274 0.97282 0.57104 0.0
H1808 H 0.61641 0.05691 0.5784 0.0
H1809 H 0.67193 0.04324 0.62391 0.0
H1810 H 0.60591 0.00014 0.56339 0.0
H1811 H 0.58671 0.00886 0.58515 0.0
H1812 H 0.59395 0.02827 0.56309 0.0
H1813 H 0.68076 0.00708 0.6369 0.0
H1814 H 0.65487 0.99179 0.64234 0.0
H1815 H 0.67241 0.98421 0.61889 0.0
H1816 H 0.59165 0.94945 0.63486 0.0
H1817 H 0.63709 0.93148 0.58081 0.0
H1818 H 0.59059 0.0075 0.62596 0.0
H1819 H 0.61315 0.0023 0.64559 0.0
H1820 H 0.58705 0.98652 0.64751 0.0
H1821 H 0.6453 0.98588 0.55982 0.0
H1822 H 0.65799 0.95807 0.5607 0.0
H1823 H 0.66824 0.98007 0.57881 0.0
C1824 C 0.46 0.86914 0.87867 0.0
C1825 C 0.45654 0.84957 0.86594 0.0
C1826 C 0.48195 0.87811 0.88124 0.0
C1827 C 0.5008 0.86741 0.87063 0.0
C1828 C 0.4976 0.84701 0.85881 0.0
C1829 C 0.47554 0.83826 0.85675 0.0
C1830 C 0.48478 0.89964 0.89437 0.0
C1831 C 0.51725 0.83512 0.84716 0.0
C1832 C 0.55068 0.90271 0.85126 0.0
C1833 C 0.56779 0.89631 0.8665 0.0
C1834 C 0.52865 0.89373 0.85271 0.0
C1835 C 0.52349 0.87841 0.87016 0.0
C1836 C 0.5404 0.87269 0.88622 0.0
C1837 C 0.56247 0.88148 0.88403 0.0
C1838 C 0.51118 0.89996 0.83502 0.0
C1839 C 0.53531 0.85689 0.90539 0.0
H1840 H 0.44547 0.87791 0.88601 0.0
H1841 H 0.4731 0.82311 0.84693 0.0
H1842 H 0.49934 0.89808 0.90623 0.0
H1843 H 0.48869 0.91362 0.88268 0.0
H1844 H 0.46912 0.90423 0.90398 0.0
H1845 H 0.51219 0.81866 0.83998 0.0
H1846 H 0.52374 0.84587 0.83337 0.0
H1847 H 0.5316 0.83225 0.85904 0.0
H1848 H 0.55477 0.91402 0.83759 0.0
H1849 H 0.57563 0.87663 0.89596 0.0
H1850 H 0.49554 0.907 0.84303 0.0
H1851 H 0.5061 0.88466 0.82564 0.0
H1852 H 0.51778 0.91248 0.82284 0.0
H1853 H 0.51977 0.86265 0.91452 0.0
H1854 H 0.54973 0.85561 0.91748 0.0
H1855 H 0.53178 0.83983 0.89875 0.0
C1856 C 0.64271 0.965 0.39995 0.0
C1857 C 0.62245 0.95917 0.41098 0.0
C1858 C 0.64873 0.98773 0.39736 0.0
C1859 C 0.63427 0.00484 0.40628 0.0
C1860 C 0.61446 0.99888 0.41844 0.0
C1861 C 0.60875 0.97616 0.42053 0.0
C1862 C 0.66993 0.99345 0.38419 0.0
C1863 C 0.59878 0.01655 0.42857 0.0
C1864 C 0.65528 0.06437 0.41528 0.0
C1865 C 0.64511 0.07574 0.39726 0.0
C1866 C 0.65244 0.04114 0.4181 0.0
C1867 C 0.63921 0.02905 0.40239 0.0
C1868 C 0.62925 0.04049 0.38384 0.0
C1869 C 0.63225 0.06382 0.38155 0.0
C1870 C 0.66315 0.02966 0.43818 0.0
C1871 C 0.61517 0.02813 0.36664 0.0
H1872 H 0.65323 0.95191 0.39238 0.0
H1873 H 0.59315 0.9717 0.42924 0.0
H1874 H 0.66492 0.00166 0.36817 0.0
H1875 H 0.68056 0.00557 0.39362 0.0
H1876 H 0.6805 0.97829 0.38028 0.0
H1877 H 0.58492 0.00905 0.4388 0.0
H1878 H 0.60867 0.02815 0.43934 0.0
H1879 H 0.59085 0.02677 0.415 0.0
H1880 H 0.66521 0.07374 0.42734 0.0
H1881 H 0.62461 0.07275 0.3675 0.0
H1882 H 0.67403 0.01528 0.43265 0.0
H1883 H 0.64957 0.02277 0.44913 0.0
H1884 H 0.67377 0.0413 0.44827 0.0
H1885 H 0.6251 0.01368 0.35976 0.0
H1886 H 0.60976 0.03919 0.35253 0.0
H1887 H 0.59966 0.02122 0.37472 0.0
C1888 C 0.45005 0.0852 0.84777 0.0
C1889 C 0.43159 0.09911 0.85404 0.0
C1890 C 0.47257 0.09321 0.84821 0.0
C1891 C 0.47669 0.11562 0.8551 0.0
C1892 C 0.45821 0.12958 0.86188 0.0
C1893 C 0.43593 0.12118 0.86127 0.0
C1894 C 0.49191 0.07786 0.84085 0.0
C1895 C 0.46193 0.15355 0.86944 0.0
C1896 C 0.53694 0.13156 0.87229 0.0
C1897 C 0.54462 0.14273 0.85303 0.0
C1898 C 0.51475 0.12285 0.87333 0.0
C1899 C 0.50019 0.12485 0.85442 0.0
C1900 C 0.50792 0.13607 0.83492 0.0
C1901 C 0.52996 0.14512 0.83456 0.0
C1902 C 0.50689 0.11149 0.89461 0.0
C1903 C 0.49303 0.13823 0.8143 0.0
H1904 H 0.4469 0.06813 0.84224 0.0
H1905 H 0.42186 0.13212 0.86622 0.0
H1906 H 0.50047 0.08507 0.8259 0.0
H1907 H 0.50495 0.07649 0.85432 0.0
H1908 H 0.48594 0.06069 0.83661 0.0
H1909 H 0.44585 0.16189 0.87513 0.0
H1910 H 0.47449 0.15392 0.88339 0.0
H1911 H 0.46916 0.16352 0.85544 0.0
H1912 H 0.54828 0.12971 0.88659 0.0
H1913 H 0.53599 0.15344 0.81952 0.0
H1914 H 0.50238 0.09376 0.89106 0.0
H1915 H 0.49124 0.12002 0.90108 0.0
H1916 H 0.52016 0.11169 0.90795 0.0
H1917 H 0.48791 0.12129 0.80843 0.0
H1918 H 0.50182 0.14698 0.80031 0.0
H1919 H 0.47713 0.14771 0.81844 0.0
C1920 C 0.34105 0.95085 0.42861 0.0
C1921 C 0.35877 0.93497 0.42554 0.0
C1922 C 0.34557 0.97382 0.43042 0.0
C1923 C 0.36843 0.98116 0.42944 0.0
C1924 C 0.38656 0.96515 0.42809 0.0
C1925 C 0.38151 0.94213 0.42611 0.0
C1926 C 0.32574 0.99031 0.43178 0.0
C1927 C 0.41118 0.97246 0.42734 0.0
C1928 C 0.37721 0.0388 0.40392 0.0
C1929 C 0.3804 0.052 0.42303 0.0
C1930 C 0.37343 0.01565 0.40583 0.0
C1931 C 0.37298 0.00559 0.4274 0.0
C1932 C 0.37591 0.01904 0.4468 0.0
C1933 C 0.37972 0.0422 0.44435 0.0
C1934 C 0.3702 0.00192 0.38474 0.0
C1935 C 0.37541 0.00892 0.47003 0.0
H1936 H 0.32341 0.94543 0.42858 0.0
H1937 H 0.39526 0.92995 0.42379 0.0
H1938 H 0.32842 0.00254 0.44558 0.0
H1939 H 0.32459 4e-05 0.41591 0.0
H1940 H 0.30916 0.98178 0.43454 0.0
H1941 H 0.42327 0.958 0.42903 0.0
H1942 H 0.41457 0.98101 0.41113 0.0
H1943 H 0.41463 0.98474 0.44092 0.0
H1944 H 0.37826 0.04654 0.38746 0.0
H1945 H 0.38272 0.05257 0.45903 0.0
H1946 H 0.35337 0.99349 0.38518 0.0
H1947 H 0.38355 0.98854 0.38373 0.0
H1948 H 0.37108 0.01235 0.36929 0.0
H1949 H 0.35906 2e-05 0.47276 0.0
H1950 H 0.37737 0.02181 0.48339 0.0
H1951 H 0.38939 0.99625 0.47174 0.0
C1952 C 0.13332 0.47069 0.11389 0.0
C1953 C 0.11513 0.46219 0.10144 0.0
C1954 C 0.1353 0.49393 0.11736 0.0
C1955 C 0.11834 0.50871 0.10857 0.0
C1956 C 0.09999 0.50004 0.09585 0.0
C1957 C 0.09877 0.47679 0.0922 0.0
C1958 C 0.15526 0.5026 0.13077 0.0
C1959 C 0.08129 0.51521 0.08675 0.0
C1960 C 0.11119 0.5627 0.14132 0.0
C1961 C 0.12308 0.57806 0.12794 0.0
C1962 C 0.10877 0.54029 0.13471 0.0
C1963 C 0.1188 0.53297 0.11435 0.0
C1964 C 0.1301 0.54857 0.1003 0.0
C1965 C 0.13194 0.57112 0.1072 0.0
C1966 C 0.09623 0.52428 0.14998 0.0
C1967 C 0.1412 0.5412 0.0786 0.0
H1968 H 0.14601 0.45917 0.12078 0.0
H1969 H 0.08477 0.46992 0.08252 0.0
H1970 H 0.16404 0.5161 0.12133 0.0
H1971 H 0.14902 0.51006 0.14674 0.0
H1972 H 0.16791 0.4891 0.13479 0.0
H1973 H 0.06875 0.50588 0.0764 0.0
H1974 H 0.07204 0.52341 0.10087 0.0
H1975 H 0.08875 0.52878 0.07638 0.0
H1976 H 0.10416 0.56814 0.1573 0.0
H1977 H 0.1413 0.58297 0.09697 0.0
H1978 H 0.1084 0.51158 0.15683 0.0
H1979 H 0.08302 0.51506 0.14041 0.0
H1980 H 0.08783 0.53309 0.16427 0.0
H1981 H 0.15552 0.52935 0.08228 0.0
H1982 H 0.14797 0.55563 0.06888 0.0
H1983 H 0.12878 0.53206 0.06799 0.0
C1984 C 0.14226 0.55405 0.90536 0.0
C1985 C 0.12971 0.57087 0.8942 0.0
C1986 C 0.13875 0.53128 0.90066 0.0
C1987 C 0.12187 0.52526 0.88485 0.0
C1988 C 0.10917 0.54219 0.87346 0.0
C1989 C 0.11347 0.56489 0.87807 0.0
C1990 C 0.15318 0.51371 0.91252 0.0
C1991 C 0.09086 0.5363 0.85664 0.0
C1992 C 0.126 0.46842 0.85669 0.0
C1993 C 0.11034 0.45579 0.86916 0.0
C1994 C 0.13014 0.49095 0.86184 0.0
C1995 C 0.11803 0.50121 0.87971 0.0
C1996 C 0.10242 0.48851 0.89262 0.0
C1997 C 0.09892 0.46577 0.88733 0.0
C1998 C 0.14733 0.5038 0.84805 0.0
C1999 C 0.08907 0.49911 0.91165 0.0
H2000 H 0.15501 0.55874 0.91767 0.0
H2001 H 0.10368 0.57795 0.86957 0.0
H2002 H 0.14209 0.50243 0.92246 0.0
H2003 H 0.16234 0.50309 0.90002 0.0
H2004 H 0.16598 0.52129 0.92396 0.0
H2005 H 0.08217 0.55147 0.84965 0.0
H2006 H 0.09844 0.52651 0.84257 0.0
H2007 H 0.07785 0.52551 0.86471 0.0
H2008 H 0.13508 0.46065 0.84277 0.0
H2009 H 0.08672 0.45603 0.89687 0.0
H2010 H 0.16058 0.51105 0.85915 0.0
H2011 H 0.13872 0.51804 0.83932 0.0
H2012 H 0.15593 0.49303 0.83526 0.0
H2013 H 0.10096 0.50597 0.92437 0.0
H2014 H 0.07755 0.48695 0.92 0.0
H2015 H 0.07863 0.51342 0.90521 0.0
C2016 C 0.07628 0.61994 0.40301 0.0
C2017 C 0.09066 0.63385 0.39053 0.0
C2018 C 0.05376 0.61601 0.39596 0.0
C2019 C 0.04526 0.62715 0.37661 0.0
C2020 C 0.05996 0.64084 0.36371 0.0
C2021 C 0.08267 0.64366 0.37061 0.0
C2022 C 0.03884 0.60065 0.40967 0.0
C2023 C 0.05134 0.65371 0.34348 0.0
C2024 C 0.98867 0.61273 0.34888 0.0
C2025 C 0.97403 0.62838 0.35913 0.0
C2026 C 0.01186 0.6114 0.35508 0.0
C2027 C 0.02046 0.62663 0.37126 0.0
C2028 C 0.00549 0.64237 0.38168 0.0
C2029 C 0.98236 0.64282 0.37567 0.0
C2030 C 0.02717 0.59398 0.34414 0.0
C2031 C 0.01403 0.65931 0.39855 0.0
H2032 H 0.08261 0.6123 0.41836 0.0
H2033 H 0.09382 0.65462 0.36114 0.0
H2034 H 0.02585 0.61077 0.41889 0.0
H2035 H 0.02954 0.58888 0.39855 0.0
H2036 H 0.04892 0.5907 0.42207 0.0
H2037 H 0.06525 0.66275 0.33467 0.0
H2038 H 0.04306 0.64218 0.33142 0.0
H2039 H 0.0382 0.66623 0.34886 0.0
H2040 H 0.98201 0.60163 0.33606 0.0
H2041 H 0.97085 0.65502 0.38337 0.0
H2042 H 0.03683 0.58443 0.35712 0.0
H2043 H 0.03989 0.60239 0.33327 0.0
H2044 H 0.01738 0.58194 0.33372 0.0
H2045 H 0.02206 0.65053 0.41302 0.0
H2046 H 1.00012 0.67046 0.40497 0.0
H2047 H 0.02734 0.66993 0.39073 0.0
C2048 C 0.87211 0.53164 0.86274 0.0
C2049 C 0.88974 0.54423 0.87231 0.0
C2050 C 0.86835 0.50939 0.86929 0.0
C2051 C 0.88291 0.49937 0.88547 0.0
C2052 C 0.90041 0.51217 0.89564 0.0
C2053 C 0.90345 0.53466 0.8891 0.0
C2054 C 0.84917 0.49646 0.85845 0.0
C2055 C 0.91644 0.50183 0.91272 0.0
C2056 C 0.86287 0.44604 0.91379 0.0
C2057 C 0.87353 0.42939 0.90062 0.0
C2058 C 0.86585 0.46892 0.90912 0.0
C2059 C 0.8802 0.47526 0.89113 0.0
C2060 C 0.89121 0.45854 0.87792 0.0
C2061 C 0.88756 0.43576 0.8827 0.0
C2062 C 0.85331 0.48629 0.92312 0.0
C2063 C 0.90677 0.46472 0.85869 0.0
H2064 H 0.86136 0.53917 0.84988 0.0
H2065 H 0.91718 0.5444 0.89635 0.0
H2066 H 0.85635 0.48247 0.84822 0.0
H2067 H 0.83812 0.48887 0.8715 0.0
H2068 H 0.83837 0.50727 0.84742 0.0
H2069 H 0.9287 0.51424 0.91954 0.0
H2070 H 0.90657 0.49462 0.92685 0.0
H2071 H 0.92626 0.4878 0.90487 0.0
H2072 H 0.85181 0.44117 0.92753 0.0
H2073 H 0.89591 0.42294 0.87255 0.0
H2074 H 0.84187 0.49657 0.91225 0.0
H2075 H 0.86568 0.49793 0.93096 0.0
H2076 H 0.84287 0.47854 0.93659 0.0
H2077 H 0.89694 0.47405 0.8457 0.0
H2078 H 0.91486 0.4497 0.85074 0.0
H2079 H 0.92045 0.47602 0.86473 0.0
C2080 C 0.02381 0.37662 0.37251 0.0
C2081 C 0.03203 0.36461 0.35382 0.0
C2082 C 1.00053 0.3766 0.37812 0.0
C2083 C 0.98515 0.36413 0.36482 0.0
C2084 C 0.99308 0.35311 0.34519 0.0
C2085 C 0.01643 0.35356 0.33987 0.0
C2086 C 0.99264 0.38884 0.399 0.0
C2087 C 0.97719 0.33957 0.33062 0.0
C2088 C 0.93529 0.33751 0.39485 0.0
C2089 C 0.91681 0.35086 0.38763 0.0
C2090 C 0.95756 0.34174 0.38753 0.0
C2091 C 0.96156 0.36011 0.37299 0.0
C2092 C 0.94309 0.37407 0.36605 0.0
C2093 C 0.92081 0.3691 0.37325 0.0
C2094 C 0.97675 0.32623 0.39503 0.0
C2095 C 0.94688 0.39412 0.35099 0.0
H2096 H 0.03567 0.38549 0.38324 0.0
H2097 H 0.02257 0.34436 0.32531 0.0
H2098 H 0.97694 0.39889 0.39551 0.0
H2099 H 0.98835 0.37642 0.41221 0.0
H2100 H 0.00597 0.40021 0.4057 0.0
H2101 H 0.9855 0.334 0.31476 0.0
H2102 H 0.97158 0.32444 0.33995 0.0
H2103 H 0.96163 0.34955 0.32641 0.0
H2104 H 0.93228 0.32325 0.40578 0.0
H2105 H 0.90656 0.37954 0.36774 0.0
H2106 H 0.98995 0.33595 0.40409 0.0
H2107 H 0.98513 0.31843 0.38018 0.0
H2108 H 0.97069 0.31259 0.40623 0.0
H2109 H 0.95943 0.40561 0.35878 0.0
H2110 H 0.9308 0.40369 0.34768 0.0
H2111 H 0.9542 0.3885 0.33472 0.0
C2112 C 0.85551 0.43818 0.14118 0.0
C2113 C 0.87137 0.4219 0.13392 0.0
C2114 C 0.85789 0.46081 0.1353 0.0
C2115 C 0.87695 0.46733 0.12232 0.0
C2116 C 0.89294 0.45092 0.11474 0.0
C2117 C 0.88977 0.42822 0.1204 0.0
C2118 C 0.84016 0.47776 0.14317 0.0
C2119 C 0.91366 0.45743 0.10119 0.0
C2120 C 0.87361 0.52296 0.0916 0.0
C2121 C 0.88541 0.53722 0.10627 0.0
C2122 C 0.87074 0.50017 0.09664 0.0
C2123 C 0.88007 0.49138 0.11673 0.0
C2124 C 0.89187 0.50565 0.13172 0.0
C2125 C 0.8943 0.52848 0.12635 0.0
C2126 C 0.85765 0.48552 0.0805 0.0
C2127 C 0.90203 0.49677 0.15332 0.0
H2128 H 0.84117 0.43317 0.15153 0.0
H2129 H 0.90211 0.41558 0.115 0.0
H2130 H 0.84819 0.49021 0.15449 0.0
H2131 H 0.83307 0.48718 0.12862 0.0
H2132 H 0.82582 0.46971 0.15227 0.0
H2133 H 0.92445 0.44263 0.09658 0.0
H2134 H 0.90827 0.4662 0.0856 0.0
H2135 H 0.92422 0.46937 0.11095 0.0
H2136 H 0.86651 0.52961 0.07613 0.0
H2137 H 0.90347 0.53938 0.13775 0.0
H2138 H 0.84282 0.47792 0.08919 0.0
H2139 H 0.86873 0.47148 0.07452 0.0
H2140 H 0.85127 0.49506 0.06568 0.0
H2141 H 0.88839 0.48967 0.16405 0.0
H2142 H 0.91099 0.51003 0.16297 0.0
H2143 H 0.91436 0.48293 0.14961 0.0
C2144 C 0.92591 0.35165 0.61908 0.0
C2145 C 0.91941 0.35922 0.64043 0.0
C2146 C 0.94858 0.35339 0.61174 0.0
C2147 C 0.96489 0.36377 0.62579 0.0
C2148 C 0.95799 0.37287 0.64677 0.0
C2149 C 0.93538 0.36997 0.65411 0.0
C2150 C 0.95536 0.34275 0.58965 0.0
C2151 C 0.97467 0.38486 0.66182 0.0
C2152 C 0.02647 0.34392 0.62017 0.0
C2153 C 0.03541 0.36008 0.60567 0.0
C2154 C 0.00351 0.345 0.62689 0.0
C2155 C 0.98945 0.36308 0.61941 0.0
C2156 C 0.99867 0.37978 0.60515 0.0
C2157 C 0.02157 0.37789 0.59817 0.0
C2158 C 0.99422 0.32659 0.64171 0.0
C2159 C 0.98441 0.39965 0.59744 0.0
H2160 H 0.91356 0.34302 0.60867 0.0
H2161 H 0.93025 0.37581 0.67063 0.0
H2162 H 0.96428 0.35508 0.57889 0.0
H2163 H 0.96747 0.32858 0.59278 0.0
H2164 H 0.9404 0.33621 0.58029 0.0
H2165 H 0.96584 0.39414 0.67557 0.0
H2166 H 0.98664 0.37243 0.66943 0.0
H2167 H 0.98501 0.39691 0.65198 0.0
H2168 H 0.03743 0.33031 0.62606 0.0
H2169 H 0.02881 0.39056 0.58724 0.0
H2170 H 0.97952 0.31843 0.63334 0.0
H2171 H 0.98784 0.33384 0.65772 0.0
H2172 H 0.00731 0.31348 0.64564 0.0
H2173 H 0.97014 0.3938 0.58674 0.0
H2174 H 0.99459 0.41197 0.58773 0.0
H2175 H 0.97669 0.40835 0.61214 0.0
C2176 C 0.07941 0.64157 0.62092 0.0
C2177 C 0.08557 0.64192 0.64367 0.0
C2178 C 0.05649 0.63973 0.61444 0.0
C2179 C 0.0394 0.63765 0.63111 0.0
C2180 C 0.04565 0.63669 0.65406 0.0
C2181 C 0.06869 0.63916 0.6601 0.0
C2182 C 0.05047 0.64117 0.58981 0.0
C2183 C 0.02792 0.63401 0.67227 0.0
C2184 C 0.98066 0.65956 0.61453 0.0
C2185 C 0.96943 0.6396 0.60928 0.0
C2186 C 0.00325 0.65907 0.62242 0.0
C2187 C 0.01493 0.63813 0.62447 0.0
C2188 C 0.00354 0.61791 0.61915 0.0
C2189 C 0.98072 0.61888 0.61187 0.0
C2190 C 0.01469 0.68095 0.62833 0.0
C2191 C 0.01557 0.59535 0.62077 0.0
H2192 H 0.09238 0.64398 0.60816 0.0
H2193 H 0.07346 0.63935 0.67769 0.0
H2194 H 0.03978 0.62669 0.58486 0.0
H2195 H 0.04028 0.65671 0.58664 0.0
H2196 H 0.06589 0.64145 0.57891 0.0
H2197 H 0.0358 0.63115 0.68901 0.0
H2198 H 0.01703 0.6494 0.67313 0.0
H2199 H 0.01656 0.6197 0.66838 0.0
H2200 H 0.97163 0.6755 0.61273 0.0
H2201 H 0.9718 0.60351 0.6078 0.0
H2202 H 0.02956 0.68364 0.61711 0.0
H2203 H 0.02128 0.68025 0.64579 0.0
H2204 H 0.00287 0.69564 0.62682 0.0
H2205 H 0.03017 0.59477 0.60887 0.0
H2206 H 0.00401 0.58116 0.61691 0.0
H2207 H 0.02268 0.59293 0.63788 0.0
C2208 C 0.94421 0.10062 0.34413 0.0
C2209 C 0.93307 0.08654 0.32884 0.0
C2210 C 0.96799 0.10339 0.34332 0.0
C2211 C 0.98102 0.09161 0.32697 0.0
C2212 C 0.96978 0.0781 0.3109 0.0
C2213 C 0.9459 0.0758 0.31196 0.0
C2214 C 0.97928 0.11808 0.3607 0.0
C2215 C 0.98308 0.06512 0.29334 0.0
C2216 C 0.0436 0.10863 0.32331 0.0
C2217 C 0.0534 0.0938 0.33894 0.0
C2218 C 0.02009 0.10748 0.3182 0.0
C2219 C 0.00641 0.09105 0.32888 0.0
C2220 C 0.01674 0.07513 0.34344 0.0
C2221 C 0.04002 0.07679 0.34834 0.0
C2222 C 0.00965 0.12469 0.30253 0.0
C2223 C 0.00295 0.05716 0.35502 0.0
H2224 H 0.93439 0.10922 0.35704 0.0
H2225 H 0.9374 0.06496 0.30002 0.0
H2226 H 0.9895 0.10742 0.37235 0.0
H2227 H 0.99119 0.12996 0.35253 0.0
H2228 H 0.96662 0.12791 0.37071 0.0
H2229 H 0.97174 0.05772 0.2804 0.0
H2230 H 0.99564 0.07617 0.28494 0.0
H2231 H 0.99286 0.05127 0.30152 0.0
H2232 H 0.05392 0.12185 0.31613 0.0
H2233 H 0.04767 0.06517 0.36029 0.0
H2234 H 0.99925 0.13691 0.31238 0.0
H2235 H 0.99804 0.1165 0.29036 0.0
H2236 H 0.02289 0.13409 0.29313 0.0
H2237 H 0.99114 0.06512 0.36735 0.0
H2238 H 0.01396 0.04479 0.36407 0.0
H2239 H 0.99236 0.04797 0.34268 0.0
C2240 C 0.39134 0.43796 0.81033 0.0
C2241 C 0.3766 0.42948 0.82686 0.0
C2242 C 0.39508 0.46122 0.80822 0.0
C2243 C 0.38393 0.47637 0.82307 0.0
C2244 C 0.36781 0.46803 0.83869 0.0
C2245 C 0.36431 0.44473 0.84036 0.0
C2246 C 0.41214 0.4694 0.79114 0.0
C2247 C 0.35549 0.48358 0.85483 0.0
C2248 C 0.41446 0.52708 0.846 0.0
C2249 C 0.40199 0.54501 0.83659 0.0
C2250 C 0.40964 0.50474 0.8406 0.0
C2251 C 0.39189 0.50006 0.82521 0.0
C2252 C 0.3805 0.51815 0.81413 0.0
C2253 C 0.38565 0.54056 0.82002 0.0
C2254 C 0.42239 0.48616 0.8528 0.0
C2255 C 0.36184 0.51387 0.79725 0.0
H2256 H 0.40074 0.42638 0.79961 0.0
H2257 H 0.3527 0.43843 0.85302 0.0
H2258 H 0.40555 0.48466 0.78245 0.0
H2259 H 0.42821 0.47407 0.79979 0.0
H2260 H 0.41627 0.45631 0.77841 0.0
H2261 H 0.34176 0.47487 0.86423 0.0
H2262 H 0.3679 0.4904 0.86711 0.0
H2263 H 0.34782 0.49808 0.84571 0.0
H2264 H 0.42724 0.53054 0.85871 0.0
H2265 H 0.37589 0.55438 0.81281 0.0
H2266 H 0.42906 0.47349 0.84073 0.0
H2267 H 0.41052 0.47742 0.86435 0.0
H2268 H 0.43695 0.49261 0.8628 0.0
H2269 H 0.36648 0.49958 0.78609 0.0
H2270 H 0.35822 0.52898 0.7868 0.0
H2271 H 0.34592 0.50934 0.80624 0.0
C2272 C 0.06718 0.89574 0.35095 0.0
C2273 C 0.07644 0.91423 0.33956 0.0
C2274 C 0.04344 0.89214 0.35142 0.0
C2275 C 0.02847 0.9074 0.3403 0.0
C2276 C 0.03776 0.9256 0.32808 0.0
C2277 C 0.06158 0.92877 0.32783 0.0
C2278 C 0.0343 0.87253 0.36467 0.0
C2279 C 0.02249 0.94235 0.31609 0.0
C2280 C 0.96546 0.89159 0.33341 0.0
C2281 C 0.95563 0.90211 0.35221 0.0
C2282 C 0.98915 0.89328 0.32906 0.0
C2283 C 0.00318 0.90591 0.34377 0.0
C2284 C 0.99312 0.917 0.36238 0.0
C2285 C 0.96961 0.91496 0.36633 0.0
C2286 C 0.99926 0.88121 0.30905 0.0
C2287 C 0.00725 0.93081 0.37843 0.0
H2288 H 0.07846 0.8843 0.35996 0.0
H2289 H 0.06849 0.94305 0.31889 0.0
H2290 H 0.02485 0.87888 0.37958 0.0
H2291 H 0.02207 0.86282 0.35436 0.0
H2292 H 0.04815 0.86098 0.37049 0.0
H2293 H 0.03235 0.95416 0.30547 0.0
H2294 H 0.00996 0.9335 0.30537 0.0
H2295 H 0.01262 0.95232 0.32862 0.0
H2296 H 0.95479 0.88162 0.32244 0.0
H2297 H 0.96216 0.92347 0.38072 0.0
H2298 H 0.01167 0.86819 0.31482 0.0
H2299 H 0.00879 0.89321 0.29839 0.0
H2300 H 0.98599 0.87297 0.29865 0.0
H2301 H 0.02042 0.91996 0.38654 0.0
H2302 H 0.9967 0.93884 0.39179 0.0
H2303 H 0.01635 0.9442 0.36916 0.0
C2304 C 0.62172 0.45885 0.82088 0.0
C2305 C 0.60202 0.45358 0.83309 0.0
C2306 C 0.62712 0.4815 0.81631 0.0
C2307 C 0.61255 0.49901 0.82435 0.0
C2308 C 0.59166 0.49345 0.83488 0.0
C2309 C 0.5867 0.47085 0.83908 0.0
C2310 C 0.64931 0.48668 0.8046 0.0
C2311 C 0.57551 0.5114 0.84373 0.0
C2312 C 0.63562 0.55439 0.84612 0.0
C2313 C 0.62765 0.56973 0.82992 0.0
C2314 C 0.63196 0.53116 0.84381 0.0
C2315 C 0.62018 0.52294 0.82474 0.0
C2316 C 0.61328 0.53817 0.8077 0.0
C2317 C 0.61701 0.56137 0.81053 0.0
C2318 C 0.63955 0.51555 0.86246 0.0
C2319 C 0.60092 0.53011 0.78702 0.0
H2320 H 0.63377 0.44555 0.81656 0.0
H2321 H 0.57153 0.46673 0.84868 0.0
H2322 H 0.64706 0.50085 0.79265 0.0
H2323 H 0.66218 0.4918 0.81724 0.0
H2324 H 0.65615 0.47181 0.79538 0.0
H2325 H 0.55888 0.50433 0.84914 0.0
H2326 H 0.58344 0.51983 0.85837 0.0
H2327 H 0.57221 0.52444 0.83079 0.0
H2328 H 0.64396 0.5606 0.86111 0.0
H2329 H 0.61093 0.57302 0.7978 0.0
H2330 H 0.64971 0.50128 0.85553 0.0
H2331 H 0.62432 0.50838 0.87084 0.0
H2332 H 0.64999 0.52427 0.8753 0.0
H2333 H 0.60985 0.51524 0.77972 0.0
H2334 H 0.59954 0.54343 0.77399 0.0
H2335 H 0.58341 0.5248 0.79164 0.0
C2336 C 0.95402 0.94828 0.65314 0.0
C2337 C 0.94322 0.93509 0.63689 0.0
C2338 C 0.97791 0.95123 0.65258 0.0
C2339 C 0.99113 0.93991 0.636 0.0
C2340 C 0.9799 0.92871 0.61826 0.0
C2341 C 0.95603 0.92678 0.61878 0.0
C2342 C 0.98918 0.96498 0.67065 0.0
C2343 C 0.99316 0.91682 0.59993 0.0
C2344 C 0.05584 0.94464 0.62899 0.0
C2345 C 0.06373 0.92659 0.64215 0.0
C2346 C 0.03237 0.94985 0.62742 0.0
C2347 C 0.0163 0.93652 0.63909 0.0
C2348 C 0.02425 0.91839 0.65259 0.0
C2349 C 0.04781 0.91383 0.65414 0.0
C2350 C 0.02522 0.96914 0.61254 0.0
C2351 C 0.00781 0.90309 0.66463 0.0
H2352 H 0.94415 0.95476 0.66718 0.0
H2353 H 0.94759 0.91695 0.606 0.0
H2354 H 0.99735 0.95359 0.68311 0.0
H2355 H 0.00278 0.9756 0.6633 0.0
H2356 H 0.97665 0.97599 0.67955 0.0
H2357 H 0.98181 0.9097 0.58684 0.0
H2358 H 0.00513 0.92865 0.5918 0.0
H2359 H 0.00353 0.90291 0.60731 0.0
H2360 H 0.06798 0.95463 0.61964 0.0
H2361 H 0.05369 0.89974 0.66424 0.0
H2362 H 0.00736 0.97484 0.61553 0.0
H2363 H 0.0269 0.96393 0.59471 0.0
H2364 H 0.03693 0.98349 0.6151 0.0
H2365 H 0.99713 0.91298 0.67654 0.0
H2366 H 0.01673 0.8895 0.67412 0.0
H2367 H 0.99611 0.89522 0.6523 0.0
C2368 C 0.58183 0.45968 0.18345 0.0
C2369 C 0.59782 0.44543 0.17282 0.0
C2370 C 0.58584 0.48288 0.18573 0.0
C2371 C 0.60632 0.49208 0.1772 0.0
C2372 C 0.62326 0.47748 0.16806 0.0
C2373 C 0.61879 0.45439 0.16593 0.0
C2374 C 0.56736 0.49777 0.19567 0.0
C2375 C 0.6454 0.48651 0.15885 0.0
C2376 C 0.60443 0.54825 0.14759 0.0
C2377 C 0.61662 0.56222 0.16219 0.0
C2378 C 0.60011 0.52581 0.15287 0.0
C2379 C 0.60811 0.51686 0.17344 0.0
C2380 C 0.61918 0.53122 0.18903 0.0
C2381 C 0.62335 0.55389 0.1832 0.0
C2382 C 0.58808 0.51137 0.13572 0.0
C2383 C 0.62765 0.52236 0.21127 0.0
H2384 H 0.56566 0.45295 0.18907 0.0
H2385 H 0.63141 0.44351 0.158 0.0
H2386 H 0.57484 0.51054 0.20701 0.0
H2387 H 0.55836 0.50692 0.18198 0.0
H2388 H 0.55455 0.4879 0.20516 0.0
H2389 H 0.65802 0.47286 0.15527 0.0
H2390 H 0.64192 0.49578 0.14301 0.0
H2391 H 0.6531 0.49853 0.17083 0.0
H2392 H 0.59894 0.55474 0.13141 0.0
H2393 H 0.63283 0.56464 0.19449 0.0
H2394 H 0.57337 0.50271 0.14351 0.0
H2395 H 0.60004 0.49819 0.12938 0.0
H2396 H 0.58171 0.5213 0.12116 0.0
H2397 H 0.61448 0.51179 0.21939 0.0
H2398 H 0.63232 0.53619 0.2229 0.0
H2399 H 0.64299 0.51156 0.20849 0.0
C2400 C 0.93839 0.04758 0.65044 0.0
C2401 C 0.92569 0.05681 0.63261 0.0
C2402 C 0.96244 0.04798 0.65038 0.0
C2403 C 0.97409 0.05808 0.6322 0.0
C2404 C 0.96143 0.06607 0.61351 0.0
C2405 C 0.93741 0.0653 0.61391 0.0
C2406 C 0.97535 0.03858 0.67028 0.0
C2407 C 0.97319 0.07657 0.59359 0.0
C2408 C 0.02906 0.08827 0.64616 0.0
C2409 C 0.04605 0.07355 0.63788 0.0
C2410 C 0.00578 0.08339 0.64428 0.0
C2411 C 0.99901 0.06305 0.63407 0.0
C2412 C 0.01597 0.04794 0.62578 0.0
C2413 C 0.03937 0.05326 0.62794 0.0
C2414 C 0.98838 0.10022 0.65308 0.0
C2415 C 0.0095 0.02606 0.6149 0.0
H2416 H 0.92955 0.04067 0.66482 0.0
H2417 H 0.92781 0.07225 0.59992 0.0
H2418 H 0.9891 0.02691 0.6645 0.0
H2419 H 0.98364 0.05249 0.67954 0.0
H2420 H 0.96402 0.02943 0.68205 0.0
H2421 H 0.96119 0.07989 0.57949 0.0
H2422 H 0.98094 0.09274 0.59872 0.0
H2423 H 0.98724 0.06543 0.58752 0.0
H2424 H 0.03395 0.10387 0.65418 0.0
H2425 H 0.05232 0.04174 0.62155 0.0
H2426 H 0.97784 0.09233 0.66636 0.0
H2427 H 0.97665 0.1055 0.63937 0.0
H2428 H 0.99647 0.11548 0.66017 0.0
H2429 H 0.00634 0.0135 0.62828 0.0
H2430 H 0.02336 0.01966 0.60379 0.0
H2431 H 0.99361 0.02775 0.60484 0.0
C2432 C 0.42227 0.53914 0.17965 0.0
C2433 C 0.40542 0.55328 0.17021 0.0
C2434 C 0.41874 0.51587 0.18203 0.0
C2435 C 0.39779 0.50646 0.17495 0.0
C2436 C 0.38012 0.52092 0.16698 0.0
C2437 C 0.38418 0.54409 0.16458 0.0
C2438 C 0.43809 0.50115 0.19052 0.0
C2439 C 0.35747 0.51168 0.15935 0.0
C2440 C 0.39939 0.45024 0.14538 0.0
C2441 C 0.38858 0.43588 0.16068 0.0
C2442 C 0.40305 0.47288 0.15023 0.0
C2443 C 0.3961 0.48165 0.17123 0.0
C2444 C 0.38655 0.46697 0.18751 0.0
C2445 C 0.38278 0.4441 0.18201 0.0
C2446 C 0.41328 0.48768 0.13224 0.0
C2447 C 0.3794 0.47563 0.21027 0.0
H2448 H 0.4387 0.54604 0.18425 0.0
H2449 H 0.37092 0.55489 0.15761 0.0
H2450 H 0.43166 0.48847 0.20257 0.0
H2451 H 0.4459 0.49188 0.17622 0.0
H2452 H 0.45164 0.51113 0.1988 0.0
H2453 H 0.34444 0.5252 0.15684 0.0
H2454 H 0.35985 0.5026 0.14321 0.0
H2455 H 0.35084 0.49944 0.17175 0.0
H2456 H 0.40424 0.44389 0.12895 0.0
H2457 H 0.37439 0.4331 0.19387 0.0
H2458 H 0.42839 0.49661 0.13888 0.0
H2459 H 0.40056 0.50063 0.12696 0.0
H2460 H 0.41863 0.47797 0.11715 0.0
H2461 H 0.39328 0.48568 0.21786 0.0
H2462 H 0.37493 0.46175 0.22191 0.0
H2463 H 0.36428 0.48693 0.20843 0.0
C2464 C 0.34841 0.04282 0.09713 0.0
C2465 C 0.35927 0.05265 0.11568 0.0
C2466 C 0.34964 0.01944 0.09334 0.0
C2467 C 0.36211 0.00554 0.10839 0.0
C2468 C 0.37406 0.01552 0.12648 0.0
C2469 C 0.37243 0.03889 0.12994 0.0
C2470 C 0.33672 0.0095 0.07384 0.0
C2471 C 0.38772 0.00138 0.14286 0.0
C2472 C 0.34385 0.94629 0.12236 0.0
C2473 C 0.36132 0.93328 0.11264 0.0
C2474 C 0.34308 0.96971 0.11978 0.0
C2475 C 0.36034 0.98049 0.10721 0.0
C2476 C 0.3771 0.96723 0.09589 0.0
C2477 C 0.37748 0.94365 0.09885 0.0
C2478 C 0.32487 0.98302 0.13215 0.0
C2479 C 0.39565 0.97801 0.08213 0.0
H2480 H 0.33831 0.05328 0.0859 0.0
H2481 H 0.38114 0.04631 0.14415 0.0
H2482 H 0.34779 0.99751 0.06441 0.0
H2483 H 0.3219 -8e-05 0.08024 0.0
H2484 H 0.33029 0.02265 0.0621 0.0
H2485 H 0.3977 0.01182 0.15474 0.0
H2486 H 0.37598 0.99064 0.15271 0.0
H2487 H 0.39969 0.99002 0.13373 0.0
H2488 H 0.33159 0.93823 0.13333 0.0
H2489 H 0.39131 0.93362 0.09177 0.0
H2490 H 0.31662 0.99548 0.1208 0.0
H2491 H 0.33284 0.99249 0.14612 0.0
H2492 H 0.31143 0.97204 0.13928 0.0
H2493 H 0.38851 0.99173 0.07152 0.0
H2494 H 0.40457 0.96557 0.07118 0.0
H2495 H 0.40844 0.98557 0.09354 0.0
C2496 C 0.44868 0.8744 0.56119 0.0
C2497 C 0.43988 0.85696 0.57445 0.0
C2498 C 0.47236 0.87614 0.55727 0.0
C2499 C 0.48763 0.8604 0.56728 0.0
C2500 C 0.47871 0.84224 0.57983 0.0
C2501 C 0.45501 0.84065 0.58309 0.0
C2502 C 0.48106 0.89535 0.5432 0.0
C2503 C 0.4943 0.82517 0.59102 0.0
C2504 C 0.5516 0.85354 0.55618 0.0
C2505 C 0.5606 0.86509 0.57464 0.0
C2506 C 0.52777 0.85331 0.55231 0.0
C2507 C 0.5128 0.86445 0.56756 0.0
C2508 C 0.5221 0.87758 0.58507 0.0
C2509 C 0.54584 0.8781 0.58801 0.0
C2510 C 0.51862 0.84004 0.53276 0.0
C2511 C 0.50698 0.88975 0.60183 0.0
H2512 H 0.43712 0.88693 0.55418 0.0
H2513 H 0.44843 0.82704 0.59324 0.0
H2514 H 0.48834 0.90844 0.55429 0.0
H2515 H 0.4949 0.88948 0.53178 0.0
H2516 H 0.46721 0.90324 0.53303 0.0
H2517 H 0.48466 0.81128 0.59899 0.0
H2518 H 0.50639 0.81782 0.57861 0.0
H2519 H 0.50461 0.83361 0.60414 0.0
H2520 H 0.56297 0.8437 0.54556 0.0
H2521 H 0.55279 0.88818 0.60139 0.0
H2522 H 0.5039 0.84893 0.52485 0.0
H2523 H 0.51251 0.8235 0.53881 0.0
H2524 H 0.53199 0.83697 0.51983 0.0
H2525 H 0.49465 0.90098 0.59305 0.0
H2526 H 0.51696 0.89999 0.61389 0.0
H2527 H 0.49692 0.87731 0.61148 0.0
C2528 C 0.62341 0.05462 0.09966 0.0
C2529 C 0.64155 0.06453 0.11121 0.0
C2530 C 0.62338 0.03125 0.09563 0.0
C2531 C 0.6419 0.01772 0.10342 0.0
C2532 C 0.66105 0.02814 0.11339 0.0
C2533 C 0.66051 0.05138 0.11734 0.0
C2534 C 0.60269 0.02087 0.08484 0.0
C2535 C 0.68126 0.01451 0.12181 0.0
C2536 C 0.63255 0.95921 0.12681 0.0
C2537 C 0.64271 0.94546 0.11036 0.0
C2538 C 0.63111 0.98264 0.12414 0.0
C2539 C 0.64003 0.99272 0.10449 0.0
C2540 C 0.64928 0.9789 0.08729 0.0
C2541 C 0.65054 0.95542 0.09044 0.0
C2542 C 0.62101 0.99671 0.14289 0.0
C2543 C 0.65876 0.98898 0.06603 0.0
H2544 H 0.60852 0.06479 0.09537 0.0
H2545 H 0.67437 0.0591 0.12656 0.0
H2546 H 0.60781 0.00741 0.07289 0.0
H2547 H 0.59195 0.01307 0.09801 0.0
H2548 H 0.59212 0.03362 0.07582 0.0
H2549 H 0.69589 0.02533 0.12647 0.0
H2550 H 0.6761 0.00477 0.13684 0.0
H2551 H 0.68707 0.0023 0.10888 0.0
H2552 H 0.62622 0.95172 0.14217 0.0
H2553 H 0.65827 0.94496 0.07753 0.0
H2554 H 0.6077 0.00836 0.13622 0.0
H2555 H 0.63456 0.00715 0.15055 0.0
H2556 H 0.61326 0.98624 0.15627 0.0
H2557 H 0.64652 0.00145 0.05889 0.0
H2558 H 0.6626 0.97596 0.05314 0.0
H2559 H 0.67478 0.99804 0.06991 0.0
C2560 C 0.54294 0.12737 0.58145 0.0
C2561 C 0.55734 0.12889 0.56267 0.0
C2562 C 0.51904 0.1288 0.57924 0.0
C2563 C 0.50914 0.13166 0.55769 0.0
C2564 C 0.52351 0.13267 0.53858 0.0
C2565 C 0.54742 0.13134 0.5413 0.0
C2566 C 0.50439 0.12782 0.60012 0.0
C2567 C 0.51364 0.13559 0.51532 0.0
C2568 C 0.44557 0.11849 0.55644 0.0
C2569 C 0.43598 0.13977 0.56062 0.0
C2570 C 0.46939 0.11569 0.55392 0.0
C2571 C 0.4838 0.13467 0.55558 0.0
C2572 C 0.47388 0.15639 0.55811 0.0
C2573 C 0.45011 0.15862 0.56088 0.0
C2574 C 0.47921 0.09224 0.55135 0.0
C2575 C 0.48848 0.17712 0.55977 0.0
H2576 H 0.55035 0.12552 0.59803 0.0
H2577 H 0.55835 0.13247 0.52666 0.0
H2578 H 0.49473 0.14388 0.60212 0.0
H2579 H 0.49168 0.11419 0.59856 0.0
H2580 H 0.51467 0.12485 0.61554 0.0
H2581 H 0.52702 0.13507 0.50207 0.0
H2582 H 0.50105 0.12218 0.51186 0.0
H2583 H 0.50435 0.15194 0.51419 0.0
H2584 H 0.43468 0.10384 0.5569 0.0
H2585 H 0.44268 0.17501 0.56463 0.0
H2586 H 0.48754 0.08704 0.56729 0.0
H2587 H 0.4925 0.09182 0.53805 0.0
H2588 H 0.46584 0.07978 0.54719 0.0
H2589 H 0.49766 0.17705 0.57607 0.0
H2590 H 0.47812 0.19287 0.55864 0.0
H2591 H 0.50155 0.17722 0.54628 0.0
C2592 C 0.34112 0.03515 0.89927 0.0
C2593 C 0.35941 0.04952 0.89507 0.0
C2594 C 0.34427 0.01168 0.89902 0.0
C2595 C 0.36618 0.00251 0.89407 0.0
C2596 C 0.38517 0.01706 0.89251 0.0
C2597 C 0.38151 0.04048 0.89297 0.0
C2598 C 0.32358 0.99688 0.90113 0.0
C2599 C 0.40887 0.00813 0.88747 0.0
C2600 C 0.37407 0.93861 0.89159 0.0
C2601 C 0.37005 0.93435 0.86873 0.0
C2602 C 0.37306 0.96069 0.90023 0.0
C2603 C 0.36816 0.97891 0.8856 0.0
C2604 C 0.36452 0.97469 0.86246 0.0
C2605 C 0.3654 0.95253 0.85438 0.0
C2606 C 0.37694 0.96452 0.92497 0.0
C2607 C 0.35956 0.99361 0.84615 0.0
H2608 H 0.32396 0.04218 0.90046 0.0
H2609 H 0.3956 0.05163 0.88931 0.0
H2610 H 0.31797 0.99164 0.88413 0.0
H2611 H 0.32769 0.98141 0.91081 0.0
H2612 H 0.3091 0.00585 0.90942 0.0
H2613 H 0.42219 0.02061 0.89177 0.0
H2614 H 0.41241 0.99231 0.89679 0.0
H2615 H 0.41022 0.00434 0.86927 0.0
H2616 H 0.37765 0.92465 0.90282 0.0
H2617 H 0.36245 0.94946 0.83668 0.0
H2618 H 0.36141 0.97222 0.93261 0.0
H2619 H 0.39113 0.97649 0.92748 0.0
H2620 H 0.38107 0.94865 0.93404 0.0
H2621 H 0.34381 0.00285 0.85127 0.0
H2622 H 0.35726 0.98749 0.82868 0.0
H2623 H 0.37381 0.00579 0.84631 0.0
C2624 C 0.55096 0.83657 0.40012 0.0
C2625 C 0.55978 0.85106 0.41645 0.0
C2626 C 0.52743 0.83153 0.39967 0.0
C2627 C 0.5126 0.84087 0.4162 0.0
C2628 C 0.52186 0.85429 0.43353 0.0
C2629 C 0.54521 0.85947 0.43323 0.0
C2630 C 0.51824 0.81731 0.38081 0.0
C2631 C 0.50692 0.86416 0.45183 0.0
C2632 C 0.45005 0.85417 0.40364 0.0
C2633 C 0.43869 0.83696 0.41514 0.0
C2634 C 0.47407 0.85509 0.40315 0.0
C2635 C 0.48721 0.83843 0.41447 0.0
C2636 C 0.4759 0.82064 0.42557 0.0
C2637 C 0.45182 0.8201 0.42576 0.0
C2638 C 0.48538 0.87435 0.39107 0.0
C2639 C 0.48922 0.80259 0.43791 0.0
H2640 H 0.56216 0.83027 0.38699 0.0
H2641 H 0.55204 0.87064 0.44592 0.0
H2642 H 0.50688 0.80405 0.38746 0.0
H2643 H 0.50783 0.82804 0.36939 0.0
H2644 H 0.53215 0.80919 0.37088 0.0
H2645 H 0.51712 0.87212 0.46536 0.0
H2646 H 0.49528 0.8771 0.44455 0.0
H2647 H 0.49612 0.85094 0.4594 0.0
H2648 H 0.44016 0.86723 0.39528 0.0
H2649 H 0.44328 0.80667 0.43464 0.0
H2650 H 0.4983 0.8678 0.37901 0.0
H2651 H 0.49449 0.88505 0.40336 0.0
H2652 H 0.47288 0.88506 0.3818 0.0
H2653 H 0.50254 0.79514 0.42682 0.0
H2654 H 0.47804 0.78891 0.44409 0.0
H2655 H 0.49811 0.81013 0.45249 0.0
C2656 C 0.64758 0.06061 0.91583 0.0
C2657 C 0.63182 0.07013 0.90067 0.0
C2658 C 0.64926 0.03714 0.91872 0.0
C2659 C 0.63489 0.02284 0.90614 0.0
C2660 C 0.61775 0.03245 0.8922 0.0
C2661 C 0.61644 0.05594 0.88962 0.0
C2662 C 0.66759 0.02762 0.93395 0.0
C2663 C 0.60194 0.01788 0.87859 0.0
C2664 C 0.65832 0.96819 0.88255 0.0
C2665 C 0.64698 0.95196 0.89532 0.0
C2666 C 0.65537 0.99118 0.88677 0.0
C2667 C 0.6404 0.99832 0.90411 0.0
C2668 C 0.62969 0.982 0.91786 0.0
C2669 C 0.63321 0.95887 0.91336 0.0
C2670 C 0.66743 0.00785 0.87183 0.0
C2671 C 0.61363 0.98893 0.9365 0.0
H2672 H 0.65938 0.0714 0.92468 0.0
H2673 H 0.60397 0.06308 0.87811 0.0
H2674 H 0.66083 0.01356 0.94415 0.0
H2675 H 0.68184 0.02077 0.92361 0.0
H2676 H 0.67457 0.04061 0.94539 0.0
H2677 H 0.58763 0.02776 0.87106 0.0
H2678 H 0.61173 0.00968 0.86481 0.0
H2679 H 0.59471 0.00434 0.88917 0.0
H2680 H 0.66912 0.96285 0.86868 0.0
H2681 H 0.62429 0.94633 0.92314 0.0
H2682 H 0.6769 0.02019 0.88213 0.0
H2683 H 0.65464 0.01738 0.86174 0.0
H2684 H 0.67968 0.99952 0.86014 0.0
H2685 H 0.62114 0.0026 0.9467 0.0
H2686 H 0.60946 0.97459 0.94769 0.0
H2687 H 0.59748 0.99555 0.92914 0.0
C2688 C 0.44547 0.17222 0.43829 0.0
C2689 C 0.43655 0.16241 0.41887 0.0
C2690 C 0.46905 0.17608 0.44029 0.0
C2691 C 0.48384 0.16973 0.42247 0.0
C2692 C 0.47457 0.16104 0.40231 0.0
C2693 C 0.45099 0.15738 0.40082 0.0
C2694 C 0.47824 0.18542 0.46201 0.0
C2695 C 0.4897 0.15415 0.38288 0.0
C2696 C 0.54534 0.18864 0.41793 0.0
C2697 C 0.55735 0.16906 0.42433 0.0
C2698 C 0.52136 0.18951 0.41823 0.0
C2699 C 0.50909 0.17042 0.42529 0.0
C2700 C 0.5211 0.15108 0.43308 0.0
C2701 C 0.54511 0.15058 0.43237 0.0
C2702 C 0.50918 0.21045 0.40991 0.0
C2703 C 0.50856 0.13056 0.44125 0.0
H2704 H 0.43423 0.17553 0.45242 0.0
H2705 H 0.44399 0.14933 0.38603 0.0
H2706 H 0.48672 0.1717 0.47165 0.0
H2707 H 0.49126 0.19846 0.45873 0.0
H2708 H 0.46445 0.19286 0.4726 0.0
H2709 H 0.47965 0.14956 0.36776 0.0
H2710 H 0.50143 0.16799 0.3784 0.0
H2711 H 0.50041 0.13943 0.38781 0.0
H2712 H 0.55463 0.20308 0.41181 0.0
H2713 H 0.55427 0.1355 0.43759 0.0
H2714 H 0.49576 0.21582 0.422 0.0
H2715 H 0.50055 0.20676 0.39376 0.0
H2716 H 0.5211 0.22464 0.40725 0.0
H2717 H 0.49584 0.13539 0.45426 0.0
H2718 H 0.52034 0.11764 0.4484 0.0
H2719 H 0.49905 0.12292 0.4271 0.0
C2720 C 0.08817 0.32923 0.95149 0.0
C2721 C 0.09384 0.35002 0.94182 0.0
C2722 C 0.08782 0.32628 0.97496 0.0
C2723 C 0.09307 0.3446 0.98918 0.0
C2724 C 0.09927 0.36549 0.97952 0.0
C2725 C 0.09968 0.3679 0.95602 0.0
C2726 C 0.08141 0.3037 0.98453 0.0
C2727 C 0.10487 0.38554 0.99403 0.0
C2728 C 0.06983 0.3516 0.04831 0.0
C2729 C 0.08966 0.34879 0.06121 0.0
C2730 C 0.07025 0.34856 0.02491 0.0
C2731 C 0.09107 0.34256 0.01416 0.0
C2732 C 0.11063 0.33763 0.02744 0.0
C2733 C 0.10976 0.34107 0.05083 0.0
C2734 C 0.04898 0.3541 0.01155 0.0
C2735 C 0.13306 0.33078 0.0168 0.0
H2736 H 0.08372 0.31525 0.94072 0.0
H2737 H 0.10407 0.38403 0.9488 0.0
H2738 H 0.09471 0.2978 0.99652 0.0
H2739 H 0.06515 0.30529 0.99403 0.0
H2740 H 0.07928 0.29073 0.97128 0.0
H2741 H 0.10984 0.40045 0.98396 0.0
H2742 H 0.08982 0.39019 0.00448 0.0
H2743 H 0.11909 0.38124 0.00564 0.0
H2744 H 0.05448 0.35823 0.05625 0.0
H2745 H 0.12529 0.33956 0.06069 0.0
H2746 H 0.046 0.34118 0.99848 0.0
H2747 H 0.05125 0.37046 0.00288 0.0
H2748 H 0.03356 0.35537 0.0224 0.0
H2749 H 0.13034 0.3183 0.00323 0.0
H2750 H 0.14514 0.3235 0.02931 0.0
H2751 H 0.14111 0.34577 0.00916 0.0
C2752 C 0.15017 0.69528 0.95354 0.0
C2753 C 0.13158 0.68338 0.94495 0.0
C2754 C 0.15195 0.69944 0.97682 0.0
C2755 C 0.1348 0.69138 0.99159 0.0
C2756 C 0.11518 0.681 0.98257 0.0
C2757 C 0.11386 0.67714 0.95943 0.0
C2758 C 0.17295 0.71091 0.98573 0.0
C2759 C 0.09639 0.67217 0.99749 0.0
C2760 C 0.148 0.6697 0.05022 0.0
C2761 C 0.13764 0.68619 0.06382 0.0
C2762 C 0.1484 0.6719 0.02672 0.0
C2763 C 0.13827 0.69109 0.01646 0.0
C2764 C 0.12887 0.70836 0.03013 0.0
C2765 C 0.12862 0.70569 0.05362 0.0
C2766 C 0.15857 0.65302 0.01281 0.0
C2767 C 0.11803 0.72912 0.01991 0.0
H2768 H 0.16405 0.69982 0.9424 0.0
H2769 H 0.09952 0.66784 0.95276 0.0
H2770 H 0.16833 0.72312 0.99913 0.0
H2771 H 0.18463 0.69813 0.99322 0.0
H2772 H 0.18233 0.71986 0.97225 0.0
H2773 H 0.08126 0.66668 0.98771 0.0
H2774 H 0.10297 0.65755 0.00724 0.0
H2775 H 0.0908 0.68521 0.00968 0.0
H2776 H 0.15515 0.65464 0.05787 0.0
H2777 H 0.12072 0.71864 0.06393 0.0
H2778 H 0.1709 0.65979 0.00043 0.0
H2779 H 0.1448 0.64461 0.00323 0.0
H2780 H 0.16748 0.64019 0.02328 0.0
H2781 H 0.12935 0.7363 0.00685 0.0
H2782 H 0.11429 0.74228 0.0327 0.0
H2783 H 0.10175 0.72455 0.0116 0.0
C2784 C 0.87282 0.61777 0.45976 0.0
C2785 C 0.88556 0.60784 0.4424 0.0
C2786 C 0.87606 0.61124 0.48216 0.0
C2787 C 0.89209 0.59393 0.48737 0.0
C2788 C 0.90388 0.58274 0.46977 0.0
C2789 C 0.90076 0.59008 0.44749 0.0
C2790 C 0.8632 0.62382 0.50036 0.0
C2791 C 0.92047 0.56367 0.47437 0.0
C2792 C 0.91622 0.60587 0.54446 0.0
C2793 C 0.89994 0.59563 0.55817 0.0
C2794 C 0.91547 0.60349 0.5211 0.0
C2795 C 0.89829 0.59004 0.51134 0.0
C2796 C 0.88416 0.57684 0.5254 0.0
C2797 C 0.88492 0.58003 0.54882 0.0
C2798 C 0.93113 0.61768 0.50691 0.0
C2799 C 0.86665 0.56117 0.51568 0.0
H2800 H 0.86096 0.6314 0.45598 0.0
H2801 H 0.91043 0.58206 0.43411 0.0
H2802 H 0.85351 0.61187 0.51091 0.0
H2803 H 0.87548 0.63259 0.51145 0.0
H2804 H 0.851 0.6365 0.49344 0.0
H2805 H 0.92194 0.55223 0.45967 0.0
H2806 H 0.93766 0.57061 0.47771 0.0
H2807 H 0.91526 0.5537 0.48925 0.0
H2808 H 0.92823 0.61747 0.55186 0.0
H2809 H 0.8724 0.57196 0.55947 0.0
H2810 H 0.92104 0.63138 0.49882 0.0
H2811 H 0.93903 0.60742 0.49338 0.0
H2812 H 0.94497 0.62541 0.517 0.0
H2813 H 0.85102 0.57093 0.5112 0.0
H2814 H 0.86179 0.548 0.52797 0.0
H2815 H 0.8732 0.55294 0.50019 0.0
C2816 C 0.84467 0.31207 0.95466 0.0
C2817 C 0.86606 0.31348 0.94423 0.0
C2818 C 0.84298 0.30897 0.97804 0.0
C2819 C 0.86318 0.30757 0.99118 0.0
C2820 C 0.88475 0.30705 0.98034 0.0
C2821 C 0.8859 0.31012 0.957 0.0
C2822 C 0.81964 0.30939 0.98884 0.0
C2823 C 0.90674 0.3056 0.99355 0.0
C2824 C 0.86274 0.3342 0.0493 0.0
C2825 C 0.86246 0.31533 0.06346 0.0
C2826 C 0.86257 0.33184 0.02583 0.0
C2827 C 0.86202 0.31005 0.01613 0.0
C2828 C 0.86135 0.29093 0.03028 0.0
C2829 C 0.8616 0.29378 0.05375 0.0
C2830 C 0.8634 0.35271 0.01137 0.0
C2831 C 0.86071 0.26746 0.02062 0.0
H2832 H 0.82936 0.31535 0.94488 0.0
H2833 H 0.90245 0.31183 0.94897 0.0
H2834 H 0.81851 0.29644 0.00219 0.0
H2835 H 0.81665 0.32605 0.99681 0.0
H2836 H 0.80583 0.30654 0.97638 0.0
H2837 H 0.92171 0.3019 0.98261 0.0
H2838 H 0.90966 0.32189 0.00215 0.0
H2839 H 0.90573 0.29241 0.00667 0.0
H2840 H 0.86338 0.35091 0.05656 0.0
H2841 H 0.86134 0.27907 0.0645 0.0
H2842 H 0.8486 0.35315 0.99972 0.0
H2843 H 0.87914 0.3524 0.00096 0.0
H2844 H 0.8632 0.36843 0.02148 0.0
H2845 H 0.84604 0.26591 0.00894 0.0
H2846 H 0.85926 0.25437 0.03385 0.0
H2847 H 0.87649 0.2641 0.01077 0.0
C2848 C 0.13018 0.40006 0.54645 0.0
C2849 C 0.11153 0.40257 0.561 0.0
C2850 C 0.12776 0.40322 0.52325 0.0
C2851 C 0.10599 0.40875 0.51425 0.0
C2852 C 0.0874 0.41291 0.52908 0.0
C2853 C 0.09037 0.40969 0.55238 0.0
C2854 C 0.14812 0.39871 0.50823 0.0
C2855 C 0.06396 0.41898 0.52027 0.0
C2856 C 0.10659 0.42319 0.45185 0.0
C2857 C 0.10244 0.40211 0.44202 0.0
C2858 C 0.10658 0.42598 0.47534 0.0
C2859 C 0.10241 0.40725 0.48941 0.0
C2860 C 0.0972 0.38619 0.47956 0.0
C2861 C 0.09725 0.38389 0.45607 0.0
C2862 C 0.11199 0.44874 0.48512 0.0
C2863 C 0.0926 0.36575 0.49388 0.0
H2864 H 0.14643 0.39415 0.55313 0.0
H2865 H 0.07579 0.41104 0.56357 0.0
H2866 H 0.14545 0.38287 0.49877 0.0
H2867 H 0.15004 0.41244 0.49579 0.0
H2868 H 0.16429 0.39704 0.51791 0.0
H2869 H 0.05258 0.42558 0.53375 0.0
H2870 H 0.06511 0.43174 0.50673 0.0
H2871 H 0.05598 0.40378 0.51298 0.0
H2872 H 0.11046 0.43744 0.44121 0.0
H2873 H 0.09385 0.36757 0.44873 0.0
H2874 H 0.129 0.44806 0.49335 0.0
H2875 H 0.09927 0.45342 0.49819 0.0
H2876 H 0.11221 0.46213 0.47211 0.0
H2877 H 0.1083 0.36099 0.50328 0.0
H2878 H 0.08718 0.35106 0.48373 0.0
H2879 H 0.07908 0.36961 0.50642 0.0
C2880 C 0.89867 0.64055 0.95051 0.0
C2881 C 0.9157 0.64994 0.93696 0.0
C2882 C 0.89909 0.6431 0.97395 0.0
C2883 C 0.91697 0.65536 0.98415 0.0
C2884 C 0.9334 0.66605 0.97048 0.0
C2885 C 0.93259 0.66321 0.94706 0.0
C2886 C 0.88122 0.63138 0.98789 0.0
C2887 C 0.95266 0.67932 0.98066 0.0
C2888 C 0.90886 0.66343 0.04721 0.0
C2889 C 0.91977 0.64394 0.05523 0.0
C2890 C 0.90914 0.6685 0.02405 0.0
C2891 C 0.92042 0.65361 0.0089 0.0
C2892 C 0.933 0.63501 0.0174 0.0
C2893 C 0.93252 0.63048 0.0404 0.0
C2894 C 0.89601 0.68879 0.01566 0.0
C2895 C 0.94536 0.61866 0.00205 0.0
H2896 H 0.88543 0.63047 0.9429 0.0
H2897 H 0.94574 0.67071 0.93675 0.0
H2898 H 0.88933 0.6173 0.99733 0.0
H2899 H 0.87369 0.64318 0.00036 0.0
H2900 H 0.86722 0.62447 0.97743 0.0
H2901 H 0.96178 0.68949 0.96789 0.0
H2902 H 0.94611 0.6907 0.99402 0.0
H2903 H 0.96518 0.6676 0.98856 0.0
H2904 H 0.89885 0.67374 0.05867 0.0
H2905 H 0.94103 0.61543 0.04669 0.0
H2906 H 0.87962 0.68326 0.0082 0.0
H2907 H 0.90572 0.69759 0.00234 0.0
H2908 H 0.89212 0.70086 0.02942 0.0
H2909 H 0.93267 0.60917 0.99205 0.0
H2910 H 0.95611 0.60637 0.01149 0.0
H2911 H 0.95644 0.62778 0.99008 0.0
C2912 C 0.8159 0.37928 0.45283 0.0
C2913 C 0.83532 0.36993 0.44253 0.0
C2914 C 0.81453 0.38085 0.4764 0.0
C2915 C 0.83302 0.37285 0.48973 0.0
C2916 C 0.85352 0.36567 0.47914 0.0
C2917 C 0.85436 0.36423 0.45567 0.0
C2918 C 0.79252 0.38903 0.48696 0.0
C2919 C 0.87379 0.35725 0.49254 0.0
C2920 C 0.83605 0.37719 0.55358 0.0
C2921 C 0.82848 0.35579 0.56006 0.0
C2922 C 0.83656 0.38355 0.53079 0.0
C2923 C 0.82975 0.36801 0.51411 0.0
C2924 C 0.82155 0.34663 0.52066 0.0
C2925 C 0.82086 0.34088 0.54349 0.0
C2926 C 0.84494 0.40665 0.52453 0.0
C2927 C 0.81428 0.32942 0.50347 0.0
H2928 H 0.80111 0.38356 0.44264 0.0
H2929 H 0.86947 0.35724 0.44762 0.0
H2930 H 0.78236 0.37432 0.49236 0.0
H2931 H 0.79595 0.39938 0.50207 0.0
H2932 H 0.78205 0.39909 0.47498 0.0
H2933 H 0.88941 0.35546 0.48203 0.0
H2934 H 0.87751 0.3688 0.50667 0.0
H2935 H 0.86979 0.34055 0.49981 0.0
H2936 H 0.84175 0.38891 0.56629 0.0
H2937 H 0.81495 0.32434 0.54829 0.0
H2938 H 0.83289 0.41489 0.51263 0.0
H2939 H 0.86171 0.40513 0.51592 0.0
H2940 H 0.84698 0.41767 0.53945 0.0
H2941 H 0.80091 0.33668 0.49233 0.0
H2942 H 0.80749 0.31392 0.51134 0.0
H2943 H 0.82909 0.32466 0.49276 0.0
C2944 C 0.18865 0.5984 0.55351 0.0
C2945 C 0.17281 0.61345 0.56325 0.0
C2946 C 0.18934 0.59498 0.53012 0.0
C2947 C 0.1739 0.60695 0.51609 0.0
C2948 C 0.15696 0.62105 0.52596 0.0
C2949 C 0.1566 0.6241 0.54936 0.0
C2950 C 0.20749 0.57961 0.52034 0.0
C2951 C 0.14012 0.63416 0.51169 0.0
C2952 C 0.1923 0.62874 0.45934 0.0
C2953 C 0.17901 0.61604 0.44456 0.0
C2954 C 0.19184 0.62493 0.4825 0.0
C2955 C 0.17769 0.60788 0.49128 0.0
C2956 C 0.16554 0.59377 0.47627 0.0
C2957 C 0.16624 0.5981 0.45294 0.0
C2958 C 0.2051 0.64045 0.49767 0.0
C2959 C 0.15056 0.57518 0.4849 0.0
H2960 H 0.20112 0.58989 0.56406 0.0
H2961 H 0.14411 0.63556 0.55666 0.0
H2962 H 0.20013 0.56872 0.50711 0.0
H2963 H 0.221 0.58987 0.51237 0.0
H2964 H 0.2156 0.56878 0.53336 0.0
H2965 H 0.12652 0.6424 0.52191 0.0
H2966 H 0.14931 0.64737 0.50222 0.0
H2967 H 0.13196 0.62294 0.49923 0.0
H2968 H 0.20204 0.64274 0.45281 0.0
H2969 H 0.15564 0.58853 0.44156 0.0
H2970 H 0.21545 0.63059 0.50987 0.0
H2971 H 0.193 0.65116 0.50742 0.0
H2972 H 0.21671 0.65162 0.48812 0.0
H2973 H 0.15927 0.56572 0.49857 0.0
H2974 H 0.14584 0.56324 0.47136 0.0
H2975 H 0.13462 0.58259 0.49197 0.0
C2976 C 0.29768 0.13448 0.3835 0.0
C2977 C 0.3009 0.1334 0.40686 0.0
C2978 C 0.27587 0.132 0.37399 0.0
C2979 C 0.25685 0.1283 0.38817 0.0
C2980 C 0.25983 0.12836 0.41177 0.0
C2981 C 0.2818 0.13091 0.42083 0.0
C2982 C 0.27337 0.13228 0.34876 0.0
C2983 C 0.23994 0.12468 0.42748 0.0
C2984 C 0.19495 0.13239 0.36902 0.0
C2985 C 0.18937 0.10956 0.36696 0.0
C2986 C 0.21725 0.13893 0.37472 0.0
C2987 C 0.23426 0.12222 0.37854 0.0
C2988 C 0.22905 0.09926 0.37511 0.0
C2989 C 0.2067 0.09322 0.36932 0.0
C2990 C 0.22224 0.1636 0.37781 0.0
C2991 C 0.24675 0.08092 0.37878 0.0
H2992 H 0.31231 0.13656 0.37254 0.0
H2993 H 0.28407 0.13026 0.43887 0.0
H2994 H 0.26985 0.11502 0.34268 0.0
H2995 H 0.2587 0.14314 0.34369 0.0
H2996 H 0.28906 0.13838 0.34028 0.0
H2997 H 0.24479 0.1268 0.44538 0.0
H2998 H 0.22578 0.13663 0.42356 0.0
H2999 H 0.23329 0.10741 0.42516 0.0
H3000 H 0.18172 0.14516 0.36706 0.0
H3001 H 0.20263 0.07556 0.36754 0.0
H3002 H 0.23861 0.16804 0.3696 0.0
H3003 H 0.22403 0.16732 0.39598 0.0
H3004 H 0.2084 0.17453 0.3709 0.0
H3005 H 0.26252 0.08458 0.36916 0.0
H3006 H 0.24048 0.06409 0.37369 0.0
H3007 H 0.25149 0.08026 0.39681 0.0
C3008 C 0.38369 0.68453 0.88573 0.0
C3009 C 0.40429 0.67921 0.87472 0.0
C3010 C 0.37688 0.707 0.88926 0.0
C3011 C 0.39067 0.72459 0.88102 0.0
C3012 C 0.41162 0.71931 0.8701 0.0
C3013 C 0.41832 0.69668 0.86737 0.0
C3014 C 0.35469 0.71192 0.90137 0.0
C3015 C 0.42655 0.73756 0.86056 0.0
C3016 C 0.3644 0.77957 0.86151 0.0
C3017 C 0.37245 0.79479 0.87759 0.0
C3018 C 0.36911 0.75651 0.86317 0.0
C3019 C 0.38218 0.74835 0.88147 0.0
C3020 C 0.38882 0.76339 0.89875 0.0
C3021 C 0.38388 0.78659 0.8966 0.0
C3022 C 0.36157 0.7412 0.84438 0.0
C3023 C 0.4024 0.75525 0.91874 0.0
H3024 H 0.37293 0.67107 0.89178 0.0
H3025 H 0.43425 0.69265 0.85889 0.0
H3026 H 0.35743 0.72446 0.91489 0.0
H3027 H 0.34208 0.71931 0.88949 0.0
H3028 H 0.34722 0.69653 0.90886 0.0
H3029 H 0.44269 0.73074 0.8533 0.0
H3030 H 0.41711 0.74681 0.84721 0.0
H3031 H 0.43085 0.74992 0.87382 0.0
H3032 H 0.35541 0.78593 0.84686 0.0
H3033 H 0.39025 0.79835 0.90896 0.0
H3034 H 0.35281 0.72622 0.8512 0.0
H3035 H 0.37679 0.7351 0.83495 0.0
H3036 H 0.34983 0.74985 0.83243 0.0
H3037 H 0.39526 0.73937 0.92541 0.0
H3038 H 0.40269 0.76797 0.9324 0.0
H3039 H 0.42029 0.75168 0.91349 0.0
C3040 C 0.71569 0.8923 0.41068 0.0
C3041 C 0.69838 0.8807 0.39934 0.0
C3042 C 0.73837 0.89203 0.40289 0.0
C3043 C 0.74412 0.87978 0.38324 0.0
C3044 C 0.72689 0.86753 0.37198 0.0
C3045 C 0.70422 0.86819 0.38012 0.0
C3046 C 0.75612 0.90532 0.4155 0.0
C3047 C 0.7323 0.85414 0.35108 0.0
C3048 C 0.79749 0.90222 0.35486 0.0
C3049 C 0.81464 0.88797 0.36351 0.0
C3050 C 0.77428 0.89877 0.35987 0.0
C3051 C 0.76799 0.88083 0.37421 0.0
C3052 C 0.7851 0.86561 0.38193 0.0
C3053 C 0.80819 0.86928 0.37638 0.0
C3054 C 0.75663 0.91518 0.35091 0.0
C3055 C 0.77924 0.8463 0.39726 0.0
H3056 H 0.71148 0.902 0.42555 0.0
H3057 H 0.69102 0.85912 0.37124 0.0
H3058 H 0.7707 0.89421 0.42026 0.0
H3059 H 0.76294 0.91876 0.40452 0.0
H3060 H 0.7491 0.91327 0.43095 0.0
H3061 H 0.71751 0.8441 0.34532 0.0
H3062 H 0.73732 0.86573 0.33737 0.0
H3063 H 0.74702 0.8426 0.35414 0.0
H3064 H 0.80227 0.91658 0.34474 0.0
H3065 H 0.82129 0.85819 0.38321 0.0
H3066 H 0.74985 0.92565 0.36489 0.0
H3067 H 0.742 0.90604 0.34352 0.0
H3068 H 0.76383 0.92653 0.33794 0.0
H3069 H 0.77454 0.85297 0.41407 0.0
H3070 H 0.79379 0.83428 0.39929 0.0
H3071 H 0.76426 0.83704 0.39076 0.0
C3072 C 0.62876 0.21802 0.86177 0.0
C3073 C 0.62114 0.20366 0.87886 0.0
C3074 C 0.62447 0.24122 0.86248 0.0
C3075 C 0.61232 0.25053 0.88084 0.0
C3076 C 0.60554 0.23634 0.89878 0.0
C3077 C 0.61005 0.21297 0.89759 0.0
C3078 C 0.63214 0.25561 0.84301 0.0
C3079 C 0.59278 0.2457 0.91877 0.0
C3080 C 0.61602 0.31433 0.88477 0.0
C3081 C 0.59567 0.32123 0.87416 0.0
C3082 C 0.62112 0.29139 0.88816 0.0
C3083 C 0.60575 0.27489 0.88033 0.0
C3084 C 0.58506 0.28177 0.86985 0.0
C3085 C 0.58017 0.30483 0.8671 0.0
C3086 C 0.64321 0.2848 0.89964 0.0
C3087 C 0.56844 0.26473 0.86082 0.0
H3088 H 0.63769 0.21099 0.84739 0.0
H3089 H 0.60413 0.20196 0.91084 0.0
H3090 H 0.61698 0.26293 0.83437 0.0
H3091 H 0.64257 0.26983 0.84914 0.0
H3092 H 0.64238 0.24591 0.83054 0.0
H3093 H 0.59104 0.23306 0.9324 0.0
H3094 H 0.60163 0.26067 0.92553 0.0
H3095 H 0.57541 0.25125 0.9135 0.0
H3096 H 0.62797 0.32689 0.89054 0.0
H3097 H 0.56442 0.31001 0.85891 0.0
H3098 H 0.65477 0.27628 0.88746 0.0
H3099 H 0.63986 0.27267 0.91338 0.0
H3100 H 0.6522 0.29957 0.90671 0.0
H3101 H 0.57667 0.25491 0.84711 0.0
H3102 H 0.55259 0.27275 0.85416 0.0
H3103 H 0.5637 0.25264 0.87418 0.0
C3104 C 0.28295 0.87783 0.57413 0.0
C3105 C 0.30311 0.88942 0.56965 0.0
C3106 C 0.26253 0.88947 0.57891 0.0
C3107 C 0.2625 0.91332 0.57995 0.0
C3108 C 0.28243 0.92512 0.57366 0.0
C3109 C 0.30253 0.91297 0.56838 0.0
C3110 C 0.24158 0.87613 0.58499 0.0
C3111 C 0.28332 0.95046 0.57476 0.0
C3112 C 0.20298 0.93745 0.58974 0.0
C3113 C 0.20154 0.93582 0.61316 0.0
C3114 C 0.22344 0.93199 0.57844 0.0
C3115 C 0.24289 0.92518 0.59101 0.0
C3116 C 0.24211 0.92613 0.6148 0.0
C3117 C 0.22132 0.93109 0.62557 0.0
C3118 C 0.22339 0.9311 0.55313 0.0
C3119 C 0.26255 0.9195 0.62893 0.0
H3120 H 0.28356 0.85962 0.57551 0.0
H3121 H 0.3183 0.92195 0.56546 0.0
H3122 H 0.23855 0.87727 0.60336 0.0
H3123 H 0.22622 0.88311 0.57642 0.0
H3124 H 0.24347 0.85807 0.58042 0.0
H3125 H 0.29779 0.95714 0.56477 0.0
H3126 H 0.26713 0.9582 0.56865 0.0
H3127 H 0.28567 0.95571 0.59248 0.0
H3128 H 0.18753 0.94065 0.58013 0.0
H3129 H 0.22006 0.9294 0.64366 0.0
H3130 H 0.22138 0.91338 0.54764 0.0
H3131 H 0.23977 0.93726 0.54619 0.0
H3132 H 0.20907 0.94121 0.54592 0.0
H3133 H 0.26499 0.90096 0.62829 0.0
H3134 H 0.26033 0.92455 0.64677 0.0
H3135 H 0.27835 0.92728 0.62234 0.0
C3136 C 0.61653 0.71285 0.1402 0.0
C3137 C 0.63086 0.69605 0.13126 0.0
C3138 C 0.62145 0.73577 0.13723 0.0
C3139 C 0.64085 0.74207 0.1245 0.0
C3140 C 0.65494 0.72516 0.11478 0.0
C3141 C 0.64996 0.70236 0.11853 0.0
C3142 C 0.60628 0.75324 0.14834 0.0
C3143 C 0.67546 0.73116 0.10071 0.0
C3144 C 0.64223 0.80427 0.10841 0.0
C3145 C 0.6551 0.81301 0.12615 0.0
C3146 C 0.63837 0.78092 0.10685 0.0
C3147 C 0.64757 0.76621 0.12342 0.0
C3148 C 0.66186 0.77497 0.14039 0.0
C3149 C 0.66544 0.79818 0.1415 0.0
C3150 C 0.62332 0.77219 0.0883 0.0
C3151 C 0.6721 0.76005 0.1584 0.0
H3152 H 0.60173 0.70806 0.15 0.0
H3153 H 0.66091 0.68945 0.11124 0.0
H3154 H 0.61634 0.76289 0.1608 0.0
H3155 H 0.59979 0.76542 0.13568 0.0
H3156 H 0.59145 0.74564 0.15706 0.0
H3157 H 0.68343 0.71615 0.09262 0.0
H3158 H 0.67045 0.74338 0.08746 0.0
H3159 H 0.68849 0.73938 0.11136 0.0
H3160 H 0.63403 0.81572 0.09666 0.0
H3161 H 0.67549 0.80494 0.15519 0.0
H3162 H 0.60637 0.76779 0.09531 0.0
H3163 H 0.63082 0.75667 0.08083 0.0
H3164 H 0.62071 0.78488 0.07482 0.0
H3165 H 0.65823 0.75323 0.16906 0.0
H3166 H 0.68422 0.76923 0.16935 0.0
H3167 H 0.68126 0.74551 0.15076 0.0
C3168 C 0.78809 0.06203 0.57974 0.0
C3169 C 0.7894 0.06016 0.60316 0.0
C3170 C 0.76787 0.06971 0.56926 0.0
C3171 C 0.74846 0.07507 0.58256 0.0
C3172 C 0.749 0.07044 0.60592 0.0
C3173 C 0.76958 0.06338 0.61596 0.0
C3174 C 0.76818 0.07442 0.54438 0.0
C3175 C 0.72857 0.07523 0.62073 0.0
C3176 C 0.70992 0.12562 0.57266 0.0
C3177 C 0.68936 0.11546 0.56661 0.0
C3178 C 0.72995 0.11278 0.57573 0.0
C3179 C 0.72925 0.08905 0.57328 0.0
C3180 C 0.709 0.07896 0.56516 0.0
C3181 C 0.68931 0.09239 0.56163 0.0
C3182 C 0.75123 0.12443 0.58383 0.0
C3183 C 0.7073 0.0538 0.56249 0.0
H3184 H 0.80354 0.05992 0.56985 0.0
H3185 H 0.77069 0.0623 0.63411 0.0
H3186 H 0.75172 0.06972 0.53648 0.0
H3187 H 0.77058 0.09272 0.54163 0.0
H3188 H 0.78236 0.06524 0.53582 0.0
H3189 H 0.73081 0.06818 0.63787 0.0
H3190 H 0.7259 0.09369 0.62219 0.0
H3191 H 0.71291 0.06804 0.61322 0.0
H3192 H 0.70988 0.14341 0.57678 0.0
H3193 H 0.6733 0.0844 0.55739 0.0
H3194 H 0.76643 0.11839 0.57435 0.0
H3195 H 0.75407 0.12043 0.60183 0.0
H3196 H 0.7499 0.14301 0.58204 0.0
H3197 H 0.72343 0.04646 0.55576 0.0
H3198 H 0.69295 0.04918 0.55122 0.0
H3199 H 0.70414 0.04609 0.57916 0.0
C3200 C 0.33522 0.19891 0.13313 0.0
C3201 C 0.35095 0.18395 0.12332 0.0
C3202 C 0.33855 0.22223 0.13247 0.0
C3203 C 0.35835 0.23083 0.12197 0.0
C3204 C 0.37346 0.21585 0.11057 0.0
C3205 C 0.36959 0.19248 0.11141 0.0
C3206 C 0.32189 0.23745 0.14475 0.0
C3207 C 0.39467 0.22428 0.09903 0.0
C3208 C 0.35969 0.29464 0.11535 0.0
C3209 C 0.37242 0.30113 0.13424 0.0
C3210 C 0.35579 0.2718 0.11057 0.0
C3211 C 0.36433 0.25501 0.1253 0.0
C3212 C 0.37732 0.26146 0.14431 0.0
C3213 C 0.38141 0.28439 0.1484 0.0
C3214 C 0.34231 0.26564 0.08989 0.0
C3215 C 0.38647 0.24413 0.16065 0.0
H3216 H 0.32103 0.19222 0.14268 0.0
H3217 H 0.3821 0.18087 0.10435 0.0
H3218 H 0.33017 0.24414 0.16008 0.0
H3219 H 0.31696 0.25204 0.13413 0.0
H3220 H 0.30614 0.22848 0.1498 0.0
H3221 H 0.40218 0.21142 0.08758 0.0
H3222 H 0.39086 0.23979 0.08929 0.0
H3223 H 0.40767 0.22856 0.11186 0.0
H3224 H 0.35296 0.30744 0.10411 0.0
H3225 H 0.39128 0.28924 0.16299 0.0
H3226 H 0.32603 0.25764 0.09488 0.0
H3227 H 0.35204 0.25318 0.07969 0.0
H3228 H 0.33829 0.28053 0.07926 0.0
H3229 H 0.37206 0.23485 0.1683 0.0
H3230 H 0.39669 0.25181 0.17432 0.0
H3231 H 0.39736 0.23162 0.15171 0.0
C3232 C 0.07609 0.37618 0.20902 0.0
C3233 C 0.08806 0.38813 0.19253 0.0
C3234 C 0.08018 0.37985 0.23201 0.0
C3235 C 0.09636 0.39614 0.23874 0.0
C3236 C 0.1077 0.40897 0.22219 0.0
C3237 C 0.1036 0.40466 0.19932 0.0
C3238 C 0.06791 0.36558 0.24908 0.0
C3239 C 0.12475 0.42674 0.22862 0.0
C3240 C 0.09623 0.40999 0.30148 0.0
C3241 C 0.11285 0.39476 0.30931 0.0
C3242 C 0.09137 0.41162 0.2783 0.0
C3243 C 0.10337 0.39763 0.26283 0.0
C3244 C 0.12122 0.38343 0.2707 0.0
C3245 C 0.12573 0.38224 0.29376 0.0
C3246 C 0.07245 0.42723 0.27056 0.0
C3247 C 0.13455 0.36822 0.25498 0.0
H3248 H 0.06401 0.36345 0.20396 0.0
H3249 H 0.1127 0.41423 0.18673 0.0
H3250 H 0.08048 0.35471 0.25805 0.0
H3251 H 0.05943 0.37644 0.26181 0.0
H3252 H 0.05484 0.35466 0.24125 0.0
H3253 H 0.13001 0.43707 0.214 0.0
H3254 H 0.11743 0.43803 0.24168 0.0
H3255 H 0.14023 0.41859 0.23586 0.0
H3256 H 0.08603 0.41947 0.31347 0.0
H3257 H 0.13861 0.37043 0.2998 0.0
H3258 H 0.0571 0.41723 0.26642 0.0
H3259 H 0.07756 0.43636 0.25514 0.0
H3260 H 0.06767 0.4397 0.28371 0.0
H3261 H 0.12298 0.35537 0.24786 0.0
H3262 H 0.14894 0.3594 0.26356 0.0
H3263 H 0.14153 0.37802 0.24075 0.0
C3264 C 0.15856 0.61437 0.70581 0.0
C3265 C 0.1701 0.63263 0.69644 0.0
C3266 C 0.15343 0.61398 0.72897 0.0
C3267 C 0.15991 0.63232 0.74281 0.0
C3268 C 0.17301 0.6499 0.73355 0.0
C3269 C 0.17801 0.64974 0.71058 0.0
C3270 C 0.13984 0.5947 0.73831 0.0
C3271 C 0.18025 0.66984 0.74749 0.0
C3272 C 0.12297 0.64967 0.79264 0.0
C3273 C 0.13676 0.64331 0.81086 0.0
C3274 C 0.1301 0.64573 0.77043 0.0
C3275 C 0.15125 0.63455 0.76631 0.0
C3276 C 0.16492 0.62747 0.78468 0.0
C3277 C 0.15767 0.63223 0.80671 0.0
C3278 C 0.11532 0.65415 0.75134 0.0
C3279 C 0.18731 0.6151 0.78104 0.0
H3280 H 0.15226 0.60121 0.69491 0.0
H3281 H 0.18705 0.66385 0.70336 0.0
H3282 H 0.14705 0.58902 0.75461 0.0
H3283 H 0.12198 0.60039 0.74141 0.0
H3284 H 0.13948 0.58018 0.72658 0.0
H3285 H 0.19201 0.68109 0.73821 0.0
H3286 H 0.1649 0.67979 0.7525 0.0
H3287 H 0.18888 0.66416 0.76309 0.0
H3288 H 0.1068 0.65821 0.79576 0.0
H3289 H 0.16825 0.62694 0.82074 0.0
H3290 H 0.11108 0.64007 0.7399 0.0
H3291 H 0.12483 0.66674 0.74135 0.0
H3292 H 0.09913 0.66206 0.75733 0.0
H3293 H 0.1847 0.60039 0.76988 0.0
H3294 H 0.19501 0.60914 0.79706 0.0
H3295 H 0.19966 0.62631 0.77257 0.0
C3296 C 0.93153 0.61083 0.20427 0.0
C3297 C 0.91437 0.6071 0.18835 0.0
C3298 C 0.92684 0.60929 0.22736 0.0
C3299 C 0.90466 0.6032 0.23461 0.0
C3300 C 0.88761 0.59831 0.21853 0.0
C3301 C 0.89256 0.60067 0.19559 0.0
C3302 C 0.94532 0.61521 0.24398 0.0
C3303 C 0.86395 0.59121 0.22555 0.0
C3304 C 0.89867 0.58963 0.29697 0.0
C3305 C 0.89121 0.6105 0.30534 0.0
C3306 C 0.90229 0.58657 0.27375 0.0
C3307 C 0.89857 0.60487 0.25883 0.0
C3308 C 0.88999 0.62556 0.26721 0.0
C3309 C 0.8862 0.628 0.29024 0.0
C3310 C 0.9109 0.56409 0.26532 0.0
C3311 C 0.8858 0.64556 0.252 0.0
H3312 H 0.94841 0.61572 0.19869 0.0
H3313 H 0.87936 0.59734 0.18329 0.0
H3314 H 0.94011 0.63048 0.25351 0.0
H3315 H 0.94769 0.6014 0.25631 0.0
H3316 H 0.96197 0.61847 0.23568 0.0
H3317 H 0.85361 0.58531 0.2111 0.0
H3318 H 0.86504 0.57753 0.23821 0.0
H3319 H 0.85482 0.60561 0.2335 0.0
H3320 H 0.90248 0.57604 0.30855 0.0
H3321 H 0.87994 0.64404 0.29655 0.0
H3322 H 0.92908 0.56553 0.26023 0.0
H3323 H 0.90111 0.5588 0.2503 0.0
H3324 H 0.90966 0.55077 0.27835 0.0
H3325 H 0.9021 0.65059 0.24399 0.0
H3326 H 0.87863 0.66031 0.26118 0.0
H3327 H 0.87378 0.64105 0.23836 0.0
C3328 C 0.85114 0.37046 0.80822 0.0
C3329 C 0.86889 0.35494 0.81258 0.0
C3330 C 0.84449 0.37565 0.78613 0.0
C3331 C 0.85552 0.36473 0.76793 0.0
C3332 C 0.87363 0.34923 0.77222 0.0
C3333 C 0.88025 0.3447 0.79447 0.0
C3334 C 0.82536 0.39248 0.78227 0.0
C3335 C 0.88555 0.33688 0.7533 0.0
C3336 C 0.82495 0.35309 0.71331 0.0
C3337 C 0.83618 0.36747 0.6984 0.0
C3338 C 0.83003 0.3531 0.73626 0.0
C3339 C 0.84692 0.36781 0.74455 0.0
C3340 C 0.85704 0.38364 0.72983 0.0
C3341 C 0.85155 0.38327 0.70678 0.0
C3342 C 0.81872 0.33597 0.75124 0.0
C3343 C 0.87493 0.39977 0.73805 0.0
H3344 H 0.84246 0.37868 0.82211 0.0
H3345 H 0.89396 0.33271 0.79771 0.0
H3346 H 0.83081 0.40548 0.77007 0.0
H3347 H 0.81038 0.38387 0.77493 0.0
H3348 H 0.8199 0.40095 0.79805 0.0
H3349 H 0.89986 0.32603 0.75935 0.0
H3350 H 0.87312 0.32616 0.7443 0.0
H3351 H 0.89238 0.34907 0.74096 0.0
H3352 H 0.81323 0.34071 0.7067 0.0
H3353 H 0.86059 0.39405 0.69516 0.0
H3354 H 0.81227 0.34403 0.76683 0.0
H3355 H 0.83147 0.32293 0.75621 0.0
H3356 H 0.80423 0.32753 0.74275 0.0
H3357 H 0.86971 0.40743 0.75427 0.0
H3358 H 0.87813 0.4134 0.72571 0.0
H3359 H 0.89122 0.39045 0.74091 0.0
C3360 C 0.70574 0.88074 0.60843 0.0
C3361 C 0.69791 0.88296 0.58627 0.0
C3362 C 0.72821 0.88636 0.61434 0.0
C3363 C 0.74359 0.89365 0.59754 0.0
C3364 C 0.73595 0.89541 0.57499 0.0
C3365 C 0.71303 0.89049 0.5697 0.0
C3366 C 0.73535 0.88487 0.63867 0.0
C3367 C 0.752 0.90237 0.55646 0.0
C3368 C 0.79603 0.92641 0.61633 0.0
C3369 C 0.81242 0.90918 0.61863 0.0
C3370 C 0.77358 0.92165 0.60936 0.0
C3371 C 0.76765 0.89925 0.60375 0.0
C3372 C 0.78444 0.88195 0.60531 0.0
C3373 C 0.80648 0.88705 0.61309 0.0
C3374 C 0.75606 0.94049 0.60858 0.0
C3375 C 0.77913 0.858 0.5988 0.0
H3376 H 0.69402 0.8753 0.6214 0.0
H3377 H 0.70702 0.89225 0.55257 0.0
H3378 H 0.74949 0.87242 0.6406 0.0
H3379 H 0.74186 0.90138 0.6444 0.0
H3380 H 0.72105 0.87986 0.64982 0.0
H3381 H 0.74377 0.90175 0.53967 0.0
H3382 H 0.75803 0.91974 0.55948 0.0
H3383 H 0.76733 0.89117 0.55633 0.0
H3384 H 0.80061 0.94353 0.62054 0.0
H3385 H 0.81924 0.87374 0.61442 0.0
H3386 H 0.74172 0.93667 0.62013 0.0
H3387 H 0.74878 0.94198 0.59145 0.0
H3388 H 0.7634 0.95697 0.6134 0.0
H3389 H 0.76614 0.85105 0.61039 0.0
H3390 H 0.79453 0.84689 0.59926 0.0
H3391 H 0.77177 0.85756 0.58164 0.0
C3392 C 0.61269 0.2018 0.16329 0.0
C3393 C 0.6305 0.19769 0.148 0.0
C3394 C 0.60608 0.22386 0.16897 0.0
C3395 C 0.61696 0.24222 0.15846 0.0
C3396 C 0.63519 0.23813 0.14322 0.0
C3397 C 0.64204 0.21587 0.1385 0.0
C3398 C 0.58713 0.2275 0.18586 0.0
C3399 C 0.64684 0.25723 0.1312 0.0
C3400 C 0.58312 0.29567 0.14745 0.0
C3401 C 0.59378 0.31111 0.16171 0.0
C3402 C 0.58997 0.27305 0.14686 0.0
C3403 C 0.60763 0.26548 0.16131 0.0
C3404 C 0.61717 0.28056 0.17713 0.0
C3405 C 0.61021 0.30336 0.17707 0.0
C3406 C 0.57939 0.25769 0.1296 0.0
C3407 C 0.63561 0.27295 0.19322 0.0
H3408 H 0.60412 0.18771 0.17106 0.0
H3409 H 0.65591 0.21265 0.12681 0.0
H3410 H 0.59228 0.24014 0.19856 0.0
H3411 H 0.57167 0.23421 0.17726 0.0
H3412 H 0.58251 0.21168 0.19462 0.0
H3413 H 0.66125 0.25129 0.1205 0.0
H3414 H 0.63427 0.26628 0.12043 0.0
H3415 H 0.65346 0.26955 0.14352 0.0
H3416 H 0.57024 0.3016 0.13568 0.0
H3417 H 0.61859 0.31527 0.18804 0.0
H3418 H 0.57275 0.24231 0.13776 0.0
H3419 H 0.59263 0.25225 0.11732 0.0
H3420 H 0.56516 0.26599 0.12029 0.0
H3421 H 0.63119 0.25655 0.2009 0.0
H3422 H 0.63841 0.28545 0.2068 0.0
H3423 H 0.65192 0.27057 0.18396 0.0
C3424 C 0.2053 0.10605 0.64861 0.0
C3425 C 0.18761 0.09993 0.634 0.0
C3426 C 0.22744 0.11028 0.64058 0.0
C3427 C 0.23206 0.10864 0.61728 0.0
C3428 C 0.21453 0.10156 0.60253 0.0
C3429 C 0.19255 0.09718 0.61107 0.0
C3430 C 0.24566 0.11742 0.65699 0.0
C3431 C 0.21864 0.09968 0.57758 0.0
C3432 C 0.28037 0.14654 0.59824 0.0
C3433 C 0.299 0.13149 0.59725 0.0
C3434 C 0.25829 0.13908 0.60356 0.0
C3435 C 0.25472 0.11603 0.60842 0.0
C3436 C 0.27328 0.10059 0.60658 0.0
C3437 C 0.29516 0.10847 0.60087 0.0
C3438 C 0.23894 0.15607 0.60487 0.0
C3439 C 0.27029 0.07592 0.61173 0.0
H3440 H 0.2017 0.1081 0.66635 0.0
H3441 H 0.17898 0.09259 0.59961 0.0
H3442 H 0.26129 0.10687 0.65485 0.0
H3443 H 0.25047 0.13511 0.65362 0.0
H3444 H 0.23987 0.11615 0.67471 0.0
H3445 H 0.20416 0.09159 0.56874 0.0
H3446 H 0.22102 0.11674 0.57042 0.0
H3447 H 0.23451 0.08986 0.57415 0.0
H3448 H 0.28313 0.1643 0.59529 0.0
H3449 H 0.30945 0.09671 0.60023 0.0
H3450 H 0.23313 0.15777 0.62253 0.0
H3451 H 0.22413 0.15028 0.59485 0.0
H3452 H 0.24405 0.17293 0.59869 0.0
H3453 H 0.26673 0.07379 0.6299 0.0
H3454 H 0.28574 0.06576 0.60738 0.0
H3455 H 0.25544 0.06915 0.60243 0.0
C3456 C 0.38031 0.79376 0.18058 0.0
C3457 C 0.37223 0.80077 0.15952 0.0
C3458 C 0.38706 0.77134 0.18436 0.0
C3459 C 0.38485 0.75537 0.1669 0.0
C3460 C 0.37602 0.76227 0.14576 0.0
C3461 C 0.37026 0.78506 0.14217 0.0
C3462 C 0.39714 0.76489 0.20682 0.0
C3463 C 0.37277 0.7456 0.12692 0.0
C3464 C 0.42182 0.70272 0.16341 0.0
C3465 C 0.40667 0.68609 0.17051 0.0
C3466 C 0.41537 0.72551 0.16343 0.0
C3467 C 0.39298 0.73174 0.17023 0.0
C3468 C 0.37805 0.7151 0.1787 0.0
C3469 C 0.38516 0.69239 0.17887 0.0
C3470 C 0.43201 0.7427 0.15472 0.0
C3471 C 0.35393 0.72095 0.18579 0.0
H3472 H 0.38199 0.80604 0.19394 0.0
H3473 H 0.36383 0.79051 0.12596 0.0
H3474 H 0.38734 0.75091 0.21436 0.0
H3475 H 0.41498 0.75875 0.20449 0.0
H3476 H 0.39724 0.77922 0.2188 0.0
H3477 H 0.36408 0.75328 0.11217 0.0
H3478 H 0.38962 0.7388 0.12145 0.0
H3479 H 0.36251 0.73116 0.13286 0.0
H3480 H 0.4383 0.69773 0.15654 0.0
H3481 H 0.3732 0.67943 0.18369 0.0
H3482 H 0.43267 0.75743 0.16614 0.0
H3483 H 0.42622 0.74888 0.13806 0.0
H3484 H 0.44956 0.73558 0.15286 0.0
H3485 H 0.35365 0.73605 0.19673 0.0
H3486 H 0.34568 0.70684 0.19484 0.0
H3487 H 0.34358 0.72497 0.17067 0.0
C3488 C 0.69598 0.11629 0.43394 0.0
C3489 C 0.69357 0.139 0.42798 0.0
C3490 C 0.71555 0.10385 0.42746 0.0
C3491 C 0.73283 0.11452 0.41474 0.0
C3492 C 0.73127 0.13794 0.41054 0.0
C3493 C 0.71178 0.1499 0.41746 0.0
C3494 C 0.71677 0.07903 0.43269 0.0
C3495 C 0.74929 0.15008 0.39708 0.0
C3496 C 0.7933 0.09512 0.40417 0.0
C3497 C 0.79218 0.08878 0.38155 0.0
C3498 C 0.77354 0.10122 0.41606 0.0
C3499 C 0.75227 0.10155 0.40484 0.0
C3500 C 0.75082 0.09334 0.38248 0.0
C3501 C 0.77092 0.08685 0.37107 0.0
C3502 C 0.77575 0.10917 0.44002 0.0
C3503 C 0.72837 0.09329 0.37 0.0
H3504 H 0.68177 0.10779 0.44178 0.0
H3505 H 0.70974 0.16741 0.4126 0.0
H3506 H 0.7108 0.0694 0.41789 0.0
H3507 H 0.73456 0.07352 0.43642 0.0
H3508 H 0.70568 0.07471 0.44717 0.0
H3509 H 0.74579 0.16846 0.3959 0.0
H3510 H 0.7664 0.14752 0.40476 0.0
H3511 H 0.75003 0.14308 0.37981 0.0
H3512 H 0.80985 0.09629 0.4123 0.0
H3513 H 0.77018 0.08193 0.35356 0.0
H3514 H 0.76182 0.10227 0.45055 0.0
H3515 H 0.77428 0.1278 0.44055 0.0
H3516 H 0.79246 0.10417 0.44742 0.0
H3517 H 0.71481 0.0857 0.38049 0.0
H3518 H 0.72959 0.08388 0.35392 0.0
H3519 H 0.72303 0.11089 0.36629 0.0
C3520 C 0.38502 0.28296 0.85244 0.0
C3521 C 0.37225 0.29724 0.83841 0.0
C3522 C 0.38065 0.25992 0.85353 0.0
C3523 C 0.36324 0.25081 0.83993 0.0
C3524 C 0.35168 0.2648 0.82417 0.0
C3525 C 0.35624 0.28805 0.82367 0.0
C3526 C 0.3933 0.24579 0.87071 0.0
C3527 C 0.33344 0.25552 0.80898 0.0
C3528 C 0.36293 0.18696 0.8402 0.0
C3529 C 0.34601 0.18252 0.85625 0.0
C3530 C 0.36774 0.2091 0.83363 0.0
C3531 C 0.35592 0.22723 0.84397 0.0
C3532 C 0.33866 0.22279 0.86008 0.0
C3533 C 0.33361 0.20041 0.86571 0.0
C3534 C 0.38578 0.21308 0.81597 0.0
C3535 C 0.32616 0.24168 0.87202 0.0
H3536 H 0.39739 0.29016 0.86388 0.0
H3537 H 0.34614 0.29915 0.81305 0.0
H3538 H 0.38122 0.24043 0.884 0.0
H3539 H 0.40048 0.23034 0.86285 0.0
H3540 H 0.40747 0.25511 0.87877 0.0
H3541 H 0.32888 0.26747 0.79531 0.0
H3542 H 0.33917 0.23934 0.80143 0.0
H3543 H 0.31782 0.25214 0.81894 0.0
H3544 H 0.37223 0.17306 0.83252 0.0
H3545 H 0.32047 0.19692 0.87804 0.0
H3546 H 0.40097 0.2209 0.82378 0.0
H3547 H 0.37923 0.22494 0.80303 0.0
H3548 H 0.39132 0.19722 0.8076 0.0
H3549 H 0.3385 0.25173 0.88188 0.0
H3550 H 0.31275 0.23541 0.88358 0.0
H3551 H 0.31804 0.25319 0.85963 0.0
C3552 C 0.21066 0.86649 0.33167 0.0
C3553 C 0.21169 0.88999 0.33376 0.0
C3554 C 0.22966 0.85273 0.33734 0.0
C3555 C 0.25004 0.86274 0.34533 0.0
C3556 C 0.25176 0.88654 0.345 0.0
C3557 C 0.23264 0.89979 0.3392 0.0
C3558 C 0.22708 0.82751 0.33682 0.0
C3559 C 0.27285 0.89829 0.35336 0.0
C3560 C 0.28396 0.83887 0.39421 0.0
C3561 C 0.30528 0.83447 0.38436 0.0
C3562 C 0.26527 0.8463 0.38134 0.0
C3563 C 0.26773 0.84915 0.35783 0.0
C3564 C 0.28847 0.84213 0.34743 0.0
C3565 C 0.30707 0.83485 0.36086 0.0
C3566 C 0.2437 0.85344 0.39336 0.0
C3567 C 0.29185 0.84441 0.32244 0.0
H3568 H 0.19442 0.85875 0.32779 0.0
H3569 H 0.23345 0.91793 0.34098 0.0
H3570 H 0.24326 0.81913 0.3315 0.0
H3571 H 0.22284 0.82138 0.3539 0.0
H3572 H 0.21312 0.82239 0.32532 0.0
H3573 H 0.27301 0.91632 0.34844 0.0
H3574 H 0.27328 0.89734 0.37195 0.0
H3575 H 0.28853 0.89004 0.34677 0.0
H3576 H 0.2826 0.83885 0.41238 0.0
H3577 H 0.32362 0.83186 0.35313 0.0
H3578 H 0.22868 0.84639 0.38472 0.0
H3579 H 0.24205 0.87207 0.39295 0.0
H3580 H 0.24349 0.84785 0.41116 0.0
H3581 H 0.27608 0.83982 0.31323 0.0
H3582 H 0.30629 0.83372 0.3164 0.0
H3583 H 0.29576 0.86217 0.31833 0.0
C3584 C 0.64707 0.7106 0.82811 0.0
C3585 C 0.62779 0.70124 0.8382 0.0
C3586 C 0.65095 0.73391 0.82942 0.0
C3587 C 0.63514 0.74793 0.84111 0.0
C3588 C 0.61467 0.73866 0.84952 0.0
C3589 C 0.61134 0.7154 0.84808 0.0
C3590 C 0.67293 0.74314 0.82013 0.0
C3591 C 0.59722 0.75294 0.86186 0.0
C3592 C 0.6574 0.79887 0.87279 0.0
C3593 C 0.65153 0.81639 0.85817 0.0
C3594 C 0.65245 0.77643 0.86722 0.0
C3595 C 0.64105 0.77161 0.84675 0.0
C3596 C 0.63482 0.78942 0.83215 0.0
C3597 C 0.64036 0.81161 0.83795 0.0
C3598 C 0.65953 0.75787 0.88317 0.0
C3599 C 0.62226 0.78507 0.81046 0.0
H3600 H 0.66008 0.69954 0.82104 0.0
H3601 H 0.59665 0.708 0.85628 0.0
H3602 H 0.66967 0.75901 0.81079 0.0
H3603 H 0.68465 0.74709 0.83421 0.0
H3604 H 0.68168 0.73094 0.80878 0.0
H3605 H 0.58088 0.74391 0.86441 0.0
H3606 H 0.6041 0.75761 0.87856 0.0
H3607 H 0.59363 0.76877 0.85257 0.0
H3608 H 0.66623 0.80269 0.88831 0.0
H3609 H 0.63592 0.82531 0.82668 0.0
H3610 H 0.67073 0.74551 0.87437 0.0
H3611 H 0.64422 0.74869 0.88903 0.0
H3612 H 0.66879 0.76436 0.89807 0.0
H3613 H 0.63248 0.77352 0.79967 0.0
H3614 H 0.61866 0.8008 0.80096 0.0
H3615 H 0.60581 0.77665 0.81402 0.0
C3616 C 0.93217 0.63981 0.79221 0.0
C3617 C 0.91433 0.64545 0.80687 0.0
C3618 C 0.92834 0.63814 0.76905 0.0
C3619 C 0.90598 0.64171 0.76054 0.0
C3620 C 0.88834 0.64925 0.77514 0.0
C3621 C 0.89279 0.65112 0.79823 0.0
C3622 C 0.94773 0.63044 0.75405 0.0
C3623 C 0.86427 0.6532 0.76678 0.0
C3624 C 0.89886 0.64361 0.69724 0.0
C3625 C 0.89309 0.62122 0.69229 0.0
C3626 C 0.90262 0.65068 0.71938 0.0
C3627 C 0.90062 0.635 0.73708 0.0
C3628 C 0.89445 0.61248 0.73231 0.0
C3629 C 0.89074 0.60585 0.70996 0.0
C3630 C 0.90915 0.6748 0.72379 0.0
C3631 C 0.89211 0.59527 0.75081 0.0
H3632 H 0.94868 0.63492 0.79907 0.0
H3633 H 0.87886 0.65484 0.80973 0.0
H3634 H 0.94498 0.6127 0.749 0.0
H3635 H 0.94827 0.6407 0.73851 0.0
H3636 H 0.96457 0.63149 0.76261 0.0
H3637 H 0.85353 0.66222 0.77936 0.0
H3638 H 0.86431 0.66302 0.75095 0.0
H3639 H 0.85626 0.63675 0.76314 0.0
H3640 H 0.90062 0.65571 0.68374 0.0
H3641 H 0.88625 0.58858 0.70632 0.0
H3642 H 0.92666 0.67534 0.73092 0.0
H3643 H 0.89742 0.68248 0.73635 0.0
H3644 H 0.90869 0.68523 0.7083 0.0
H3645 H 0.90878 0.59289 0.75944 0.0
H3646 H 0.88641 0.57868 0.74441 0.0
H3647 H 0.87964 0.60133 0.76355 0.0
C3648 C 0.82339 0.31027 0.2989 0.0
C3649 C 0.82769 0.33151 0.30828 0.0
C3650 C 0.82818 0.30567 0.27626 0.0
C3651 C 0.8371 0.32285 0.26248 0.0
C3652 C 0.84057 0.34462 0.27159 0.0
C3653 C 0.83616 0.3486 0.29448 0.0
C3654 C 0.82464 0.28214 0.26741 0.0
C3655 C 0.84922 0.36364 0.2572 0.0
C3656 C 0.87347 0.31185 0.21077 0.0
C3657 C 0.85757 0.31525 0.19354 0.0
C3658 C 0.86666 0.31256 0.23338 0.0
C3659 C 0.84363 0.31793 0.23877 0.0
C3660 C 0.82729 0.32013 0.22133 0.0
C3661 C 0.83445 0.31828 0.19888 0.0
C3662 C 0.88441 0.30905 0.25147 0.0
C3663 C 0.8027 0.32641 0.22622 0.0
H3664 H 0.81704 0.29687 0.30948 0.0
H3665 H 0.83941 0.36505 0.3016 0.0
H3666 H 0.81622 0.28247 0.25073 0.0
H3667 H 0.84153 0.27371 0.26528 0.0
H3668 H 0.81412 0.27186 0.27898 0.0
H3669 H 0.84903 0.37999 0.26626 0.0
H3670 H 0.867 0.35992 0.25173 0.0
H3671 H 0.83861 0.36533 0.24183 0.0
H3672 H 0.89145 0.30996 0.20659 0.0
H3673 H 0.82228 0.3212 0.18548 0.0
H3674 H 0.87787 0.29758 0.26464 0.0
H3675 H 0.8882 0.32538 0.25962 0.0
H3676 H 0.90062 0.30191 0.24465 0.0
H3677 H 0.79573 0.31591 0.23994 0.0
H3678 H 0.79161 0.32459 0.21122 0.0
H3679 H 0.80182 0.3442 0.23188 0.0
C3680 C 0.10705 0.34473 0.8024 0.0
C3681 C 0.08565 0.35086 0.81115 0.0
C3682 C 0.11142 0.34628 0.77922 0.0
C3683 C 0.09388 0.35402 0.7646 0.0
C3684 C 0.07163 0.35805 0.77323 0.0
C3685 C 0.06786 0.35658 0.79644 0.0
C3686 C 0.13537 0.34177 0.77079 0.0
C3687 C 0.05236 0.36615 0.75831 0.0
C3688 C 0.1106 0.38925 0.71386 0.0
C3689 C 0.10779 0.37401 0.69613 0.0
C3690 C 0.10633 0.38285 0.7362 0.0
C3691 C 0.09931 0.36058 0.741 0.0
C3692 C 0.09672 0.34504 0.72323 0.0
C3693 C 0.10085 0.35195 0.70104 0.0
C3694 C 0.10911 0.40003 0.75467 0.0
C3695 C 0.08946 0.32113 0.72765 0.0
H3696 H 0.121 0.34098 0.81385 0.0
H3697 H 0.05148 0.36189 0.80331 0.0
H3698 H 0.13504 0.33202 0.75491 0.0
H3699 H 0.14381 0.35802 0.76723 0.0
H3700 H 0.14588 0.33243 0.78331 0.0
H3701 H 0.03553 0.36542 0.76693 0.0
H3702 H 0.05546 0.38385 0.7533 0.0
H3703 H 0.05154 0.35596 0.74274 0.0
H3704 H 0.11593 0.40629 0.71027 0.0
H3705 H 0.09878 0.33994 0.68751 0.0
H3706 H 0.1217 0.39382 0.76722 0.0
H3707 H 0.0926 0.40258 0.76356 0.0
H3708 H 0.11491 0.41655 0.74821 0.0
H3709 H 0.10138 0.31299 0.73974 0.0
H3710 H 0.08902 0.31086 0.71208 0.0
H3711 H 0.07221 0.32109 0.73541 0.0
C3712 C 0.16266 0.62895 0.28998 0.0
C3713 C 0.16468 0.64369 0.30824 0.0
C3714 C 0.15968 0.63718 0.268 0.0
C3715 C 0.15844 0.66074 0.26417 0.0
C3716 C 0.16114 0.6757 0.28242 0.0
C3717 C 0.16432 0.66703 0.30416 0.0
C3718 C 0.15712 0.62064 0.24893 0.0
C3719 C 0.15978 0.70088 0.27912 0.0
C3720 C 0.16343 0.67823 0.20283 0.0
C3721 C 0.14044 0.67812 0.19628 0.0
C3722 C 0.16966 0.67386 0.22526 0.0
C3723 C 0.15242 0.6695 0.24139 0.0
C3724 C 0.12911 0.67139 0.2351 0.0
C3725 C 0.12344 0.67544 0.21256 0.0
C3726 C 0.1947 0.67191 0.23115 0.0
C3727 C 0.11013 0.66721 0.25172 0.0
H3728 H 0.16305 0.61094 0.29288 0.0
H3729 H 0.16587 0.67865 0.31809 0.0
H3730 H 0.13959 0.62195 0.24189 0.0
H3731 H 0.16924 0.62466 0.2352 0.0
H3732 H 0.16022 0.60298 0.25437 0.0
H3733 H 0.16393 0.71027 0.29471 0.0
H3734 H 0.17169 0.70614 0.26565 0.0
H3735 H 0.14226 0.70576 0.27371 0.0
H3736 H 0.17659 0.6796 0.19009 0.0
H3737 H 0.10569 0.67481 0.20734 0.0
H3738 H 0.19939 0.65388 0.23324 0.0
H3739 H 0.19829 0.6805 0.24728 0.0
H3740 H 0.20576 0.67914 0.21787 0.0
H3741 H 0.10987 0.64906 0.25613 0.0
H3742 H 0.09309 0.67204 0.24489 0.0
H3743 H 0.11306 0.67675 0.26745 0.0
loop_
_geom_bond_atom_site_label_1
_geom_bond_atom_site_label_2
_geom_bond_distance
_geom_bond_site_symmetry_2
_ccdc_geom_bond_type
Mg0 O1 2.028 . S
Mg0 O7 1.986 . S
Mg0 O9 2.114 . S
Mg0 O10 2.251 . S
Mg0 O13 2.010 . S
O1 Mg0 2.028 . S
O1 C4 1.250 . S
O2 Mg3 2.028 . S
O2 C4 1.248 . S
Mg3 O2 2.028 . S
Mg3 O8 2.032 . S
Mg3 O10 2.079 . S
C4 O1 1.250 . S
C4 O2 1.248 . S
C5 O6 1.264 . S
C5 O13 1.249 . S
O6 C5 1.264 . S
O7 Mg0 1.986 . S
O7 C11 1.246 . S
O8 Mg3 2.032 . S
O8 C11 1.259 . S
O9 Mg0 2.114 . S
O9 C12 1.252 . S
O10 Mg0 2.251 . S
O10 Mg3 2.079 . S
O10 C12 1.273 . S
C11 O7 1.246 . S
C11 O8 1.259 . S
C12 O9 1.252 . S
C12 O10 1.273 . S
O13 Mg0 2.010 . S
O13 C5 1.249 . S
Mg14 O15 2.028 . S
Mg14 O21 1.986 . S
Mg14 O23 2.114 . S
Mg14 O24 2.251 . S
Mg14 O27 2.010 . S
O15 Mg14 2.028 . S
O15 C18 1.250 . S
O16 Mg17 2.028 . S
O16 C18 1.248 . S
Mg17 O16 2.028 . S
Mg17 O22 2.032 . S
Mg17 O24 2.079 . S
C18 O15 1.250 . S
C18 O16 1.248 . S
C19 O20 1.264 . S
C19 O27 1.249 . S
O20 C19 1.264 . S
O21 Mg14 1.986 . S
O21 C25 1.246 . S
O22 Mg17 2.032 . S
O22 C25 1.259 . S
O23 Mg14 2.114 . S
O23 C26 1.252 . S
O24 Mg14 2.251 . S
O24 Mg17 2.079 . S
O24 C26 1.273 . S
C25 O21 1.246 . S
C25 O22 1.259 . S
C26 O23 1.252 . S
C26 O24 1.273 . S
O27 Mg14 2.010 . S
O27 C19 1.249 . S
Mg28 O29 2.028 . S
Mg28 O35 1.986 . S
Mg28 O37 2.114 . S
Mg28 O38 2.251 . S
Mg28 O41 2.010 . S
O29 Mg28 2.028 . S
O29 C32 1.250 . S
O30 Mg31 2.028 . S
O30 C32 1.248 . S
Mg31 O30 2.028 . S
Mg31 O36 2.032 . S
Mg31 O38 2.079 . S
C32 O29 1.250 . S
C32 O30 1.248 . S
C33 O34 1.264 . S
C33 O41 1.249 . S
O34 C33 1.264 . S
O35 Mg28 1.986 . S
O35 C39 1.246 . S
O36 Mg31 2.032 . S
O36 C39 1.259 . S
O37 Mg28 2.114 . S
O37 C40 1.252 . S
O38 Mg28 2.251 . S
O38 Mg31 2.079 . S
O38 C40 1.273 . S
C39 O35 1.246 . S
C39 O36 1.259 . S
C40 O37 1.252 . S
C40 O38 1.273 . S
O41 Mg28 2.010 . S
O41 C33 1.249 . S
Mg42 O43 2.028 . S
Mg42 O49 1.986 . S
Mg42 O51 2.114 . S
Mg42 O52 2.251 . S
Mg42 O55 2.010 . S
O43 Mg42 2.028 . S
O43 C46 1.250 . S
O44 Mg45 2.028 . S
O44 C46 1.248 . S
Mg45 O44 2.028 . S
Mg45 O50 2.032 . S
Mg45 O52 2.079 . S
C46 O43 1.250 . S
C46 O44 1.248 . S
C47 O48 1.264 . S
C47 O55 1.249 . S
O48 C47 1.264 . S
O49 Mg42 1.986 . S
O49 C53 1.246 . S
O50 Mg45 2.032 . S
O50 C53 1.259 . S
O51 Mg42 2.114 . S
O51 C54 1.252 . S
O52 Mg42 2.251 . S
O52 Mg45 2.079 . S
O52 C54 1.273 . S
C53 O49 1.246 . S
C53 O50 1.259 . S
C54 O51 1.252 . S
C54 O52 1.273 . S
O55 Mg42 2.010 . S
O55 C47 1.249 . S
Mg56 O57 2.028 . S
Mg56 O63 1.986 . S
Mg56 O65 2.114 . S
Mg56 O66 2.251 . S
Mg56 O69 2.010 . S
O57 Mg56 2.028 . S
O57 C60 1.250 . S
O58 Mg59 2.028 . S
O58 C60 1.248 . S
Mg59 O58 2.028 . S
Mg59 O64 2.032 . S
Mg59 O66 2.079 . S
C60 O57 1.250 . S
C60 O58 1.248 . S
C61 O62 1.264 . S
C61 O69 1.249 . S
O62 C61 1.264 . S
O63 Mg56 1.986 . S
O63 C67 1.246 . S
O64 Mg59 2.032 . S
O64 C67 1.259 . S
O65 Mg56 2.114 . S
O65 C68 1.252 . S
O66 Mg56 2.251 . S
O66 Mg59 2.079 . S
O66 C68 1.273 . S
C67 O63 1.246 . S
C67 O64 1.259 . S
C68 O65 1.252 . S
C68 O66 1.273 . S
O69 Mg56 2.010 . S
O69 C61 1.249 . S
Mg70 O71 2.028 . S
Mg70 O77 1.986 . S
Mg70 O79 2.114 . S
Mg70 O80 2.251 . S
Mg70 O83 2.010 . S
O71 Mg70 2.028 . S
O71 C74 1.250 . S
O72 Mg73 2.028 . S
O72 C74 1.248 . S
Mg73 O72 2.028 . S
Mg73 O78 2.032 . S
Mg73 O80 2.079 . S
C74 O71 1.250 . S
C74 O72 1.248 . S
C75 O76 1.264 . S
C75 O83 1.249 . S
O76 C75 1.264 . S
O77 Mg70 1.986 . S
O77 C81 1.246 . S
O78 Mg73 2.032 . S
O78 C81 1.259 . S
O79 Mg70 2.114 . S
O79 C82 1.252 . S
O80 Mg70 2.251 . S
O80 Mg73 2.079 . S
O80 C82 1.273 . S
C81 O77 1.246 . S
C81 O78 1.259 . S
C82 O79 1.252 . S
C82 O80 1.273 . S
O83 Mg70 2.010 . S
O83 C75 1.249 . S
Mg84 O85 2.028 . S
Mg84 O91 1.986 . S
Mg84 O93 2.114 . S
Mg84 O94 2.251 . S
Mg84 O97 2.010 . S
O85 Mg84 2.028 . S
O85 C88 1.250 . S
O86 Mg87 2.028 . S
O86 C88 1.248 . S
Mg87 O86 2.028 . S
Mg87 O92 2.032 . S
Mg87 O94 2.079 . S
C88 O85 1.250 . S
C88 O86 1.248 . S
C89 O90 1.264 . S
C89 O97 1.249 . S
O90 C89 1.264 . S
O91 Mg84 1.986 . S
O91 C95 1.246 . S
O92 Mg87 2.032 . S
O92 C95 1.259 . S
O93 Mg84 2.114 . S
O93 C96 1.252 . S
O94 Mg84 2.251 . S
O94 Mg87 2.079 . S
O94 C96 1.273 . S
C95 O91 1.246 . S
C95 O92 1.259 . S
C96 O93 1.252 . S
C96 O94 1.273 . S
O97 Mg84 2.010 . S
O97 C89 1.249 . S
Mg98 O99 2.028 . S
Mg98 O105 1.986 . S
Mg98 O107 2.114 . S
Mg98 O108 2.251 . S
Mg98 O111 2.010 . S
O99 Mg98 2.028 . S
O99 C102 1.250 . S
O100 Mg101 2.028 . S
O100 C102 1.248 . S
Mg101 O100 2.028 . S
Mg101 O106 2.032 . S
Mg101 O108 2.079 . S
C102 O99 1.250 . S
C102 O100 1.248 . S
C103 O104 1.264 . S
C103 O111 1.249 . S
O104 C103 1.264 . S
O105 Mg98 1.986 . S
O105 C109 1.246 . S
O106 Mg101 2.032 . S
O106 C109 1.259 . S
O107 Mg98 2.114 . S
O107 C110 1.252 . S
O108 Mg98 2.251 . S
O108 Mg101 2.079 . S
O108 C110 1.273 . S
C109 O105 1.246 . S
C109 O106 1.259 . S
C110 O107 1.252 . S
C110 O108 1.273 . S
O111 Mg98 2.010 . S
O111 C103 1.249 . S
Mg112 O113 2.028 . S
Mg112 O119 1.986 . S
Mg112 O121 2.114 . S
Mg112 O122 2.251 . S
Mg112 O125 2.010 . S
O113 Mg112 2.028 . S
O113 C116 1.250 . S
O114 Mg115 2.028 . S
O114 C116 1.248 . S
Mg115 O114 2.028 . S
Mg115 O120 2.032 . S
Mg115 O122 2.079 . S
C116 O113 1.250 . S
C116 O114 1.248 . S
C117 O118 1.264 . S
C117 O125 1.249 . S
O118 C117 1.264 . S
O119 Mg112 1.986 . S
O119 C123 1.246 . S
O120 Mg115 2.032 . S
O120 C123 1.259 . S
O121 Mg112 2.114 . S
O121 C124 1.252 . S
O122 Mg112 2.251 . S
O122 Mg115 2.079 . S
O122 C124 1.273 . S
C123 O119 1.246 . S
C123 O120 1.259 . S
C124 O121 1.252 . S
C124 O122 1.273 . S
O125 Mg112 2.010 . S
O125 C117 1.249 . S
Mg126 O127 2.028 . S
Mg126 O133 1.986 . S
Mg126 O135 2.114 . S
Mg126 O136 2.251 . S
Mg126 O139 2.010 . S
O127 Mg126 2.028 . S
O127 C130 1.250 . S
O128 Mg129 2.028 . S
O128 C130 1.248 . S
Mg129 O128 2.028 . S
Mg129 O134 2.032 . S
Mg129 O136 2.079 . S
C130 O127 1.250 . S
C130 O128 1.248 . S
C131 O132 1.264 . S
C131 O139 1.249 . S
O132 C131 1.264 . S
O133 Mg126 1.986 . S
O133 C137 1.246 . S
O134 Mg129 2.032 . S
O134 C137 1.259 . S
O135 Mg126 2.114 . S
O135 C138 1.252 . S
O136 Mg126 2.251 . S
O136 Mg129 2.079 . S
O136 C138 1.273 . S
C137 O133 1.246 . S
C137 O134 1.259 . S
C138 O135 1.252 . S
C138 O136 1.273 . S
O139 Mg126 2.010 . S
O139 C131 1.249 . S
Mg140 O141 2.028 . S
Mg140 O147 1.986 . S
Mg140 O149 2.114 . S
Mg140 O150 2.251 . S
Mg140 O153 2.010 . S
O141 Mg140 2.028 . S
O141 C144 1.250 . S
O142 Mg143 2.028 . S
O142 C144 1.248 . S
Mg143 O142 2.028 . S
Mg143 O148 2.032 . S
Mg143 O150 2.079 . S
C144 O141 1.250 . S
C144 O142 1.248 . S
C145 O146 1.264 . S
C145 O153 1.249 . S
O146 C145 1.264 . S
O147 Mg140 1.986 . S
O147 C151 1.246 . S
O148 Mg143 2.032 . S
O148 C151 1.259 . S
O149 Mg140 2.114 . S
O149 C152 1.252 . S
O150 Mg140 2.251 . S
O150 Mg143 2.079 . S
O150 C152 1.273 . S
C151 O147 1.246 . S
C151 O148 1.259 . S
C152 O149 1.252 . S
C152 O150 1.273 . S
O153 Mg140 2.010 . S
O153 C145 1.249 . S
Mg154 O155 2.028 . S
Mg154 O161 1.986 . S
Mg154 O163 2.114 . S
Mg154 O164 2.251 . S
Mg154 O167 2.010 . S
O155 Mg154 2.028 . S
O155 C158 1.250 . S
O156 Mg157 2.028 . S
O156 C158 1.248 . S
Mg157 O156 2.028 . S
Mg157 O162 2.032 . S
Mg157 O164 2.079 . S
C158 O155 1.250 . S
C158 O156 1.248 . S
C159 O160 1.264 . S
C159 O167 1.249 . S
O160 C159 1.264 . S
O161 Mg154 1.986 . S
O161 C165 1.246 . S
O162 Mg157 2.032 . S
O162 C165 1.259 . S
O163 Mg154 2.114 . S
O163 C166 1.252 . S
O164 Mg154 2.251 . S
O164 Mg157 2.079 . S
O164 C166 1.273 . S
C165 O161 1.246 . S
C165 O162 1.259 . S
C166 O163 1.252 . S
C166 O164 1.273 . S
O167 Mg154 2.010 . S
O167 C159 1.249 . S
Mg168 O169 2.028 . S
Mg168 O175 1.986 . S
Mg168 O177 2.114 . S
Mg168 O178 2.251 . S
Mg168 O181 2.010 . S
O169 Mg168 2.028 . S
O169 C172 1.250 . S
O170 Mg171 2.028 . S
O170 C172 1.248 . S
Mg171 O170 2.028 . S
Mg171 O176 2.032 . S
Mg171 O178 2.079 . S
C172 O169 1.250 . S
C172 O170 1.248 . S
C173 O174 1.264 . S
C173 O181 1.249 . S
O174 C173 1.264 . S
O175 Mg168 1.986 . S
O175 C179 1.246 . S
O176 Mg171 2.032 . S
O176 C179 1.259 . S
O177 Mg168 2.114 . S
O177 C180 1.252 . S
O178 Mg168 2.251 . S
O178 Mg171 2.079 . S
O178 C180 1.273 . S
C179 O175 1.246 . S
C179 O176 1.259 . S
C180 O177 1.252 . S
C180 O178 1.273 . S
O181 Mg168 2.010 . S
O181 C173 1.249 . S
Mg182 O183 2.028 . S
Mg182 O189 1.986 . S
Mg182 O191 2.114 . S
Mg182 O192 2.251 . S
Mg182 O195 2.010 . S
O183 Mg182 2.028 . S
O183 C186 1.250 . S
O184 Mg185 2.028 . S
O184 C186 1.248 . S
Mg185 O184 2.028 . S
Mg185 O190 2.032 . S
Mg185 O192 2.079 . S
C186 O183 1.250 . S
C186 O184 1.248 . S
C187 O188 1.264 . S
C187 O195 1.249 . S
O188 C187 1.264 . S
O189 Mg182 1.986 . S
O189 C193 1.246 . S
O190 Mg185 2.032 . S
O190 C193 1.259 . S
O191 Mg182 2.114 . S
O191 C194 1.252 . S
O192 Mg182 2.251 . S
O192 Mg185 2.079 . S
O192 C194 1.273 . S
C193 O189 1.246 . S
C193 O190 1.259 . S
C194 O191 1.252 . S
C194 O192 1.273 . S
O195 Mg182 2.010 . S
O195 C187 1.249 . S
Mg196 O197 2.028 . S
Mg196 O203 1.986 . S
Mg196 O205 2.114 . S
Mg196 O206 2.251 . S
Mg196 O209 2.010 . S
O197 Mg196 2.028 . S
O197 C200 1.250 . S
O198 Mg199 2.028 . S
O198 C200 1.248 . S
Mg199 O198 2.028 . S
Mg199 O204 2.032 . S
Mg199 O206 2.079 . S
C200 O197 1.250 . S
C200 O198 1.248 . S
C201 O202 1.264 . S
C201 O209 1.249 . S
O202 C201 1.264 . S
O203 Mg196 1.986 . S
O203 C207 1.246 . S
O204 Mg199 2.032 . S
O204 C207 1.259 . S
O205 Mg196 2.114 . S
O205 C208 1.252 . S
O206 Mg196 2.251 . S
O206 Mg199 2.079 . S
O206 C208 1.273 . S
C207 O203 1.246 . S
C207 O204 1.259 . S
C208 O205 1.252 . S
C208 O206 1.273 . S
O209 Mg196 2.010 . S
O209 C201 1.249 . S
Mg210 O211 2.028 . S
Mg210 O217 1.986 . S
Mg210 O219 2.114 . S
Mg210 O220 2.251 . S
Mg210 O223 2.010 . S
O211 Mg210 2.028 . S
O211 C214 1.250 . S
O212 Mg213 2.028 . S
O212 C214 1.248 . S
Mg213 O212 2.028 . S
Mg213 O218 2.032 . S
Mg213 O220 2.079 . S
C214 O211 1.250 . S
C214 O212 1.248 . S
C215 O216 1.264 . S
C215 O223 1.249 . S
O216 C215 1.264 . S
O217 Mg210 1.986 . S
O217 C221 1.246 . S
O218 Mg213 2.032 . S
O218 C221 1.259 . S
O219 Mg210 2.114 . S
O219 C222 1.252 . S
O220 Mg210 2.251 . S
O220 Mg213 2.079 . S
O220 C222 1.273 . S
C221 O217 1.246 . S
C221 O218 1.259 . S
C222 O219 1.252 . S
C222 O220 1.273 . S
O223 Mg210 2.010 . S
O223 C215 1.249 . S
Mg224 O225 2.028 . S
Mg224 O231 1.986 . S
Mg224 O233 2.114 . S
Mg224 O234 2.251 . S
Mg224 O237 2.010 . S
O225 Mg224 2.028 . S
O225 C228 1.250 . S
O226 Mg227 2.028 . S
O226 C228 1.248 . S
Mg227 O226 2.028 . S
Mg227 O232 2.032 . S
Mg227 O234 2.079 . S
C228 O225 1.250 . S
C228 O226 1.248 . S
C229 O230 1.264 . S
C229 O237 1.249 . S
O230 C229 1.264 . S
O231 Mg224 1.986 . S
O231 C235 1.246 . S
O232 Mg227 2.032 . S
O232 C235 1.259 . S
O233 Mg224 2.114 . S
O233 C236 1.252 . S
O234 Mg224 2.251 . S
O234 Mg227 2.079 . S
O234 C236 1.273 . S
C235 O231 1.246 . S
C235 O232 1.259 . S
C236 O233 1.252 . S
C236 O234 1.273 . S
O237 Mg224 2.010 . S
O237 C229 1.249 . S
Mg238 O239 2.028 . S
Mg238 O245 1.986 . S
Mg238 O247 2.114 . S
Mg238 O248 2.251 . S
Mg238 O251 2.010 . S
O239 Mg238 2.028 . S
O239 C242 1.250 . S
O240 Mg241 2.028 . S
O240 C242 1.248 . S
Mg241 O240 2.028 . S
Mg241 O246 2.032 . S
Mg241 O248 2.079 . S
C242 O239 1.250 . S
C242 O240 1.248 . S
C243 O244 1.264 . S
C243 O251 1.249 . S
O244 C243 1.264 . S
O245 Mg238 1.986 . S
O245 C249 1.246 . S
O246 Mg241 2.032 . S
O246 C249 1.259 . S
O247 Mg238 2.114 . S
O247 C250 1.252 . S
O248 Mg238 2.251 . S
O248 Mg241 2.079 . S
O248 C250 1.273 . S
C249 O245 1.246 . S
C249 O246 1.259 . S
C250 O247 1.252 . S
C250 O248 1.273 . S
O251 Mg238 2.010 . S
O251 C243 1.249 . S
Mg252 O253 2.028 . S
Mg252 O259 1.986 . S
Mg252 O261 2.114 . S
Mg252 O262 2.251 . S
Mg252 O265 2.010 . S
O253 Mg252 2.028 . S
O253 C256 1.250 . S
O254 Mg255 2.028 . S
O254 C256 1.248 . S
Mg255 O254 2.028 . S
Mg255 O260 2.032 . S
Mg255 O262 2.079 . S
C256 O253 1.250 . S
C256 O254 1.248 . S
C257 O258 1.264 . S
C257 O265 1.249 . S
O258 C257 1.264 . S
O259 Mg252 1.986 . S
O259 C263 1.246 . S
O260 Mg255 2.032 . S
O260 C263 1.259 . S
O261 Mg252 2.114 . S
O261 C264 1.252 . S
O262 Mg252 2.251 . S
O262 Mg255 2.079 . S
O262 C264 1.273 . S
C263 O259 1.246 . S
C263 O260 1.259 . S
C264 O261 1.252 . S
C264 O262 1.273 . S
O265 Mg252 2.010 . S
O265 C257 1.249 . S
Mg266 O267 2.028 . S
Mg266 O273 1.986 . S
Mg266 O275 2.114 . S
Mg266 O276 2.251 . S
Mg266 O279 2.010 . S
O267 Mg266 2.028 . S
O267 C270 1.250 . S
O268 Mg269 2.028 . S
O268 C270 1.248 . S
Mg269 O268 2.028 . S
Mg269 O274 2.032 . S
Mg269 O276 2.079 . S
C270 O267 1.250 . S
C270 O268 1.248 . S
C271 O272 1.264 . S
C271 O279 1.249 . S
O272 C271 1.264 . S
O273 Mg266 1.986 . S
O273 C277 1.246 . S
O274 Mg269 2.032 . S
O274 C277 1.259 . S
O275 Mg266 2.114 . S
O275 C278 1.252 . S
O276 Mg266 2.251 . S
O276 Mg269 2.079 . S
O276 C278 1.273 . S
C277 O273 1.246 . S
C277 O274 1.259 . S
C278 O275 1.252 . S
C278 O276 1.273 . S
O279 Mg266 2.010 . S
O279 C271 1.249 . S
Mg280 O281 2.028 . S
Mg280 O287 1.986 . S
Mg280 O289 2.114 . S
Mg280 O290 2.251 . S
Mg280 O293 2.010 . S
O281 Mg280 2.028 . S
O281 C284 1.250 . S
O282 Mg283 2.028 . S
O282 C284 1.248 . S
Mg283 O282 2.028 . S
Mg283 O288 2.032 . S
Mg283 O290 2.079 . S
C284 O281 1.250 . S
C284 O282 1.248 . S
C285 O286 1.264 . S
C285 O293 1.249 . S
O286 C285 1.264 . S
O287 Mg280 1.986 . S
O287 C291 1.246 . S
O288 Mg283 2.032 . S
O288 C291 1.259 . S
O289 Mg280 2.114 . S
O289 C292 1.252 . S
O290 Mg280 2.251 . S
O290 Mg283 2.079 . S
O290 C292 1.273 . S
C291 O287 1.246 . S
C291 O288 1.259 . S
C292 O289 1.252 . S
C292 O290 1.273 . S
O293 Mg280 2.010 . S
O293 C285 1.249 . S
Mg294 O295 2.028 . S
Mg294 O301 1.986 . S
Mg294 O303 2.114 . S
Mg294 O304 2.251 . S
Mg294 O307 2.010 . S
O295 Mg294 2.028 . S
O295 C298 1.250 . S
O296 Mg297 2.028 . S
O296 C298 1.248 . S
Mg297 O296 2.028 . S
Mg297 O302 2.032 . S
Mg297 O304 2.079 . S
C298 O295 1.250 . S
C298 O296 1.248 . S
C299 O300 1.264 . S
C299 O307 1.249 . S
O300 C299 1.264 . S
O301 Mg294 1.986 . S
O301 C305 1.246 . S
O302 Mg297 2.032 . S
O302 C305 1.259 . S
O303 Mg294 2.114 . S
O303 C306 1.252 . S
O304 Mg294 2.251 . S
O304 Mg297 2.079 . S
O304 C306 1.273 . S
C305 O301 1.246 . S
C305 O302 1.259 . S
C306 O303 1.252 . S
C306 O304 1.273 . S
O307 Mg294 2.010 . S
O307 C299 1.249 . S
Mg308 O309 2.028 . S
Mg308 O315 1.986 . S
Mg308 O317 2.114 . S
Mg308 O318 2.251 . S
Mg308 O321 2.010 . S
O309 Mg308 2.028 . S
O309 C312 1.250 . S
O310 Mg311 2.028 . S
O310 C312 1.248 . S
Mg311 O310 2.028 . S
Mg311 O316 2.032 . S
Mg311 O318 2.079 . S
C312 O309 1.250 . S
C312 O310 1.248 . S
C313 O314 1.264 . S
C313 O321 1.249 . S
O314 C313 1.264 . S
O315 Mg308 1.986 . S
O315 C319 1.246 . S
O316 Mg311 2.032 . S
O316 C319 1.259 . S
O317 Mg308 2.114 . S
O317 C320 1.252 . S
O318 Mg308 2.251 . S
O318 Mg311 2.079 . S
O318 C320 1.273 . S
C319 O315 1.246 . S
C319 O316 1.259 . S
C320 O317 1.252 . S
C320 O318 1.273 . S
O321 Mg308 2.010 . S
O321 C313 1.249 . S
Mg322 O323 2.028 . S
Mg322 O329 1.986 . S
Mg322 O331 2.114 . S
Mg322 O332 2.251 . S
Mg322 O335 2.010 . S
O323 Mg322 2.028 . S
O323 C326 1.250 . S
O324 Mg325 2.028 . S
O324 C326 1.248 . S
Mg325 O324 2.028 . S
Mg325 O330 2.032 . S
Mg325 O332 2.079 . S
C326 O323 1.250 . S
C326 O324 1.248 . S
C327 O328 1.264 . S
C327 O335 1.249 . S
O328 C327 1.264 . S
O329 Mg322 1.986 . S
O329 C333 1.246 . S
O330 Mg325 2.032 . S
O330 C333 1.259 . S
O331 Mg322 2.114 . S
O331 C334 1.252 . S
O332 Mg322 2.251 . S
O332 Mg325 2.079 . S
O332 C334 1.273 . S
C333 O329 1.246 . S
C333 O330 1.259 . S
C334 O331 1.252 . S
C334 O332 1.273 . S
O335 Mg322 2.010 . S
O335 C327 1.249 . S
Mg336 O337 2.028 . S
Mg336 O343 1.986 . S
Mg336 O345 2.114 . S
Mg336 O346 2.251 . S
Mg336 O349 2.010 . S
O337 Mg336 2.028 . S
O337 C340 1.250 . S
O338 Mg339 2.028 . S
O338 C340 1.248 . S
Mg339 O338 2.028 . S
Mg339 O344 2.032 . S
Mg339 O346 2.079 . S
C340 O337 1.250 . S
C340 O338 1.248 . S
C341 O342 1.264 . S
C341 O349 1.249 . S
O342 C341 1.264 . S
O343 Mg336 1.986 . S
O343 C347 1.246 . S
O344 Mg339 2.032 . S
O344 C347 1.259 . S
O345 Mg336 2.114 . S
O345 C348 1.252 . S
O346 Mg336 2.251 . S
O346 Mg339 2.079 . S
O346 C348 1.273 . S
C347 O343 1.246 . S
C347 O344 1.259 . S
C348 O345 1.252 . S
C348 O346 1.273 . S
O349 Mg336 2.010 . S
O349 C341 1.249 . S
Mg350 O351 2.028 . S
Mg350 O357 1.986 . S
Mg350 O359 2.114 . S
Mg350 O360 2.251 . S
Mg350 O363 2.010 . S
O351 Mg350 2.028 . S
O351 C354 1.250 . S
O352 Mg353 2.028 . S
O352 C354 1.248 . S
Mg353 O352 2.028 . S
Mg353 O358 2.032 . S
Mg353 O360 2.079 . S
C354 O351 1.250 . S
C354 O352 1.248 . S
C355 O356 1.264 . S
C355 O363 1.249 . S
O356 C355 1.264 . S
O357 Mg350 1.986 . S
O357 C361 1.246 . S
O358 Mg353 2.032 . S
O358 C361 1.259 . S
O359 Mg350 2.114 . S
O359 C362 1.252 . S
O360 Mg350 2.251 . S
O360 Mg353 2.079 . S
O360 C362 1.273 . S
C361 O357 1.246 . S
C361 O358 1.259 . S
C362 O359 1.252 . S
C362 O360 1.273 . S
O363 Mg350 2.010 . S
O363 C355 1.249 . S
Mg364 O365 2.028 . S
Mg364 O371 1.986 . S
Mg364 O373 2.114 . S
Mg364 O374 2.251 . S
Mg364 O377 2.010 . S
O365 Mg364 2.028 . S
O365 C368 1.250 . S
O366 Mg367 2.028 . S
O366 C368 1.248 . S
Mg367 O366 2.028 . S
Mg367 O372 2.032 . S
Mg367 O374 2.079 . S
C368 O365 1.250 . S
C368 O366 1.248 . S
C369 O370 1.264 . S
C369 O377 1.249 . S
O370 C369 1.264 . S
O371 Mg364 1.986 . S
O371 C375 1.246 . S
O372 Mg367 2.032 . S
O372 C375 1.259 . S
O373 Mg364 2.114 . S
O373 C376 1.252 . S
O374 Mg364 2.251 . S
O374 Mg367 2.079 . S
O374 C376 1.273 . S
C375 O371 1.246 . S
C375 O372 1.259 . S
C376 O373 1.252 . S
C376 O374 1.273 . S
O377 Mg364 2.010 . S
O377 C369 1.249 . S
Mg378 O379 2.028 . S
Mg378 O385 1.986 . S
Mg378 O387 2.114 . S
Mg378 O388 2.251 . S
Mg378 O391 2.010 . S
O379 Mg378 2.028 . S
O379 C382 1.250 . S
O380 Mg381 2.028 . S
O380 C382 1.248 . S
Mg381 O380 2.028 . S
Mg381 O386 2.032 . S
Mg381 O388 2.079 . S
C382 O379 1.250 . S
C382 O380 1.248 . S
C383 O384 1.264 . S
C383 O391 1.249 . S
O384 C383 1.264 . S
O385 Mg378 1.986 . S
O385 C389 1.246 . S
O386 Mg381 2.032 . S
O386 C389 1.259 . S
O387 Mg378 2.114 . S
O387 C390 1.252 . S
O388 Mg378 2.251 . S
O388 Mg381 2.079 . S
O388 C390 1.273 . S
C389 O385 1.246 . S
C389 O386 1.259 . S
C390 O387 1.252 . S
C390 O388 1.273 . S
O391 Mg378 2.010 . S
O391 C383 1.249 . S
Mg392 O393 2.028 . S
Mg392 O399 1.986 . S
Mg392 O401 2.114 . S
Mg392 O402 2.251 . S
Mg392 O405 2.010 . S
O393 Mg392 2.028 . S
O393 C396 1.250 . S
O394 Mg395 2.028 . S
O394 C396 1.248 . S
Mg395 O394 2.028 . S
Mg395 O400 2.032 . S
Mg395 O402 2.079 . S
C396 O393 1.250 . S
C396 O394 1.248 . S
C397 O398 1.264 . S
C397 O405 1.249 . S
O398 C397 1.264 . S
O399 Mg392 1.986 . S
O399 C403 1.246 . S
O400 Mg395 2.032 . S
O400 C403 1.259 . S
O401 Mg392 2.114 . S
O401 C404 1.252 . S
O402 Mg392 2.251 . S
O402 Mg395 2.079 . S
O402 C404 1.273 . S
C403 O399 1.246 . S
C403 O400 1.259 . S
C404 O401 1.252 . S
C404 O402 1.273 . S
O405 Mg392 2.010 . S
O405 C397 1.249 . S
Mg406 O407 2.028 . S
Mg406 O413 1.986 . S
Mg406 O415 2.114 . S
Mg406 O416 2.251 . S
Mg406 O419 2.010 . S
O407 Mg406 2.028 . S
O407 C410 1.250 . S
O408 Mg409 2.028 . S
O408 C410 1.248 . S
Mg409 O408 2.028 . S
Mg409 O414 2.032 . S
Mg409 O416 2.079 . S
C410 O407 1.250 . S
C410 O408 1.248 . S
C411 O412 1.264 . S
C411 O419 1.249 . S
O412 C411 1.264 . S
O413 Mg406 1.986 . S
O413 C417 1.246 . S
O414 Mg409 2.032 . S
O414 C417 1.259 . S
O415 Mg406 2.114 . S
O415 C418 1.252 . S
O416 Mg406 2.251 . S
O416 Mg409 2.079 . S
O416 C418 1.273 . S
C417 O413 1.246 . S
C417 O414 1.259 . S
C418 O415 1.252 . S
C418 O416 1.273 . S
O419 Mg406 2.010 . S
O419 C411 1.249 . S
Mg420 O421 2.028 . S
Mg420 O427 1.986 . S
Mg420 O429 2.114 . S
Mg420 O430 2.251 . S
Mg420 O433 2.010 . S
O421 Mg420 2.028 . S
O421 C424 1.250 . S
O422 Mg423 2.028 . S
O422 C424 1.248 . S
Mg423 O422 2.028 . S
Mg423 O428 2.032 . S
Mg423 O430 2.079 . S
C424 O421 1.250 . S
C424 O422 1.248 . S
C425 O426 1.264 . S
C425 O433 1.249 . S
O426 C425 1.264 . S
O427 Mg420 1.986 . S
O427 C431 1.246 . S
O428 Mg423 2.032 . S
O428 C431 1.259 . S
O429 Mg420 2.114 . S
O429 C432 1.252 . S
O430 Mg420 2.251 . S
O430 Mg423 2.079 . S
O430 C432 1.273 . S
C431 O427 1.246 . S
C431 O428 1.259 . S
C432 O429 1.252 . S
C432 O430 1.273 . S
O433 Mg420 2.010 . S
O433 C425 1.249 . S
Mg434 O435 2.028 . S
Mg434 O441 1.986 . S
Mg434 O443 2.114 . S
Mg434 O444 2.251 . S
Mg434 O447 2.010 . S
O435 Mg434 2.028 . S
O435 C438 1.250 . S
O436 Mg437 2.028 . S
O436 C438 1.248 . S
Mg437 O436 2.028 . S
Mg437 O442 2.032 . S
Mg437 O444 2.079 . S
C438 O435 1.250 . S
C438 O436 1.248 . S
C439 O440 1.264 . S
C439 O447 1.249 . S
O440 C439 1.264 . S
O441 Mg434 1.986 . S
O441 C445 1.246 . S
O442 Mg437 2.032 . S
O442 C445 1.259 . S
O443 Mg434 2.114 . S
O443 C446 1.252 . S
O444 Mg434 2.251 . S
O444 Mg437 2.079 . S
O444 C446 1.273 . S
C445 O441 1.246 . S
C445 O442 1.259 . S
C446 O443 1.252 . S
C446 O444 1.273 . S
O447 Mg434 2.010 . S
O447 C439 1.249 . S
Mg448 O449 2.028 . S
Mg448 O455 1.986 . S
Mg448 O457 2.114 . S
Mg448 O458 2.251 . S
Mg448 O461 2.010 . S
O449 Mg448 2.028 . S
O449 C452 1.250 . S
O450 Mg451 2.028 . S
O450 C452 1.248 . S
Mg451 O450 2.028 . S
Mg451 O456 2.032 . S
Mg451 O458 2.079 . S
C452 O449 1.250 . S
C452 O450 1.248 . S
C453 O454 1.264 . S
C453 O461 1.249 . S
O454 C453 1.264 . S
O455 Mg448 1.986 . S
O455 C459 1.246 . S
O456 Mg451 2.032 . S
O456 C459 1.259 . S
O457 Mg448 2.114 . S
O457 C460 1.252 . S
O458 Mg448 2.251 . S
O458 Mg451 2.079 . S
O458 C460 1.273 . S
C459 O455 1.246 . S
C459 O456 1.259 . S
C460 O457 1.252 . S
C460 O458 1.273 . S
O461 Mg448 2.010 . S
O461 C453 1.249 . S
Mg462 O463 2.028 . S
Mg462 O469 1.986 . S
Mg462 O471 2.114 . S
Mg462 O472 2.251 . S
Mg462 O475 2.010 . S
O463 Mg462 2.028 . S
O463 C466 1.250 . S
O464 Mg465 2.028 . S
O464 C466 1.248 . S
Mg465 O464 2.028 . S
Mg465 O470 2.032 . S
Mg465 O472 2.079 . S
C466 O463 1.250 . S
C466 O464 1.248 . S
C467 O468 1.264 . S
C467 O475 1.249 . S
O468 C467 1.264 . S
O469 Mg462 1.986 . S
O469 C473 1.246 . S
O470 Mg465 2.032 . S
O470 C473 1.259 . S
O471 Mg462 2.114 . S
O471 C474 1.252 . S
O472 Mg462 2.251 . S
O472 Mg465 2.079 . S
O472 C474 1.273 . S
C473 O469 1.246 . S
C473 O470 1.259 . S
C474 O471 1.252 . S
C474 O472 1.273 . S
O475 Mg462 2.010 . S
O475 C467 1.249 . S
Mg476 O477 2.028 . S
Mg476 O483 1.986 . S
Mg476 O485 2.114 . S
Mg476 O486 2.251 . S
Mg476 O489 2.010 . S
O477 Mg476 2.028 . S
O477 C480 1.250 . S
O478 Mg479 2.028 . S
O478 C480 1.248 . S
Mg479 O478 2.028 . S
Mg479 O484 2.032 . S
Mg479 O486 2.079 . S
C480 O477 1.250 . S
C480 O478 1.248 . S
C481 O482 1.264 . S
C481 O489 1.249 . S
O482 C481 1.264 . S
O483 Mg476 1.986 . S
O483 C487 1.246 . S
O484 Mg479 2.032 . S
O484 C487 1.259 . S
O485 Mg476 2.114 . S
O485 C488 1.252 . S
O486 Mg476 2.251 . S
O486 Mg479 2.079 . S
O486 C488 1.273 . S
C487 O483 1.246 . S
C487 O484 1.259 . S
C488 O485 1.252 . S
C488 O486 1.273 . S
O489 Mg476 2.010 . S
O489 C481 1.249 . S
Mg490 O491 2.028 . S
Mg490 O497 1.986 . S
Mg490 O499 2.114 . S
Mg490 O500 2.251 . S
Mg490 O503 2.010 . S
O491 Mg490 2.028 . S
O491 C494 1.250 . S
O492 Mg493 2.028 . S
O492 C494 1.248 . S
Mg493 O492 2.028 . S
Mg493 O498 2.032 . S
Mg493 O500 2.079 . S
C494 O491 1.250 . S
C494 O492 1.248 . S
C495 O496 1.264 . S
C495 O503 1.249 . S
O496 C495 1.264 . S
O497 Mg490 1.986 . S
O497 C501 1.246 . S
O498 Mg493 2.032 . S
O498 C501 1.259 . S
O499 Mg490 2.114 . S
O499 C502 1.252 . S
O500 Mg490 2.251 . S
O500 Mg493 2.079 . S
O500 C502 1.273 . S
C501 O497 1.246 . S
C501 O498 1.259 . S
C502 O499 1.252 . S
C502 O500 1.273 . S
O503 Mg490 2.010 . S
O503 C495 1.249 . S
Mg504 O505 2.028 . S
Mg504 O511 1.986 . S
Mg504 O513 2.114 . S
Mg504 O514 2.251 . S
Mg504 O517 2.010 . S
O505 Mg504 2.028 . S
O505 C508 1.250 . S
O506 Mg507 2.028 . S
O506 C508 1.248 . S
Mg507 O506 2.028 . S
Mg507 O512 2.032 . S
Mg507 O514 2.079 . S
C508 O505 1.250 . S
C508 O506 1.248 . S
C509 O510 1.264 . S
C509 O517 1.249 . S
O510 C509 1.264 . S
O511 Mg504 1.986 . S
O511 C515 1.246 . S
O512 Mg507 2.032 . S
O512 C515 1.259 . S
O513 Mg504 2.114 . S
O513 C516 1.252 . S
O514 Mg504 2.251 . S
O514 Mg507 2.079 . S
O514 C516 1.273 . S
C515 O511 1.246 . S
C515 O512 1.259 . S
C516 O513 1.252 . S
C516 O514 1.273 . S
O517 Mg504 2.010 . S
O517 C509 1.249 . S
Mg518 O519 2.028 . S
Mg518 O525 1.986 . S
Mg518 O527 2.114 . S
Mg518 O528 2.251 . S
Mg518 O531 2.010 . S
O519 Mg518 2.028 . S
O519 C522 1.250 . S
O520 Mg521 2.028 . S
O520 C522 1.248 . S
Mg521 O520 2.028 . S
Mg521 O526 2.032 . S
Mg521 O528 2.079 . S
C522 O519 1.250 . S
C522 O520 1.248 . S
C523 O524 1.264 . S
C523 O531 1.249 . S
O524 C523 1.264 . S
O525 Mg518 1.986 . S
O525 C529 1.246 . S
O526 Mg521 2.032 . S
O526 C529 1.259 . S
O527 Mg518 2.114 . S
O527 C530 1.252 . S
O528 Mg518 2.251 . S
O528 Mg521 2.079 . S
O528 C530 1.273 . S
C529 O525 1.246 . S
C529 O526 1.259 . S
C530 O527 1.252 . S
C530 O528 1.273 . S
O531 Mg518 2.010 . S
O531 C523 1.249 . S
Mg532 O533 2.028 . S
Mg532 O539 1.986 . S
Mg532 O541 2.114 . S
Mg532 O542 2.251 . S
Mg532 O545 2.010 . S
O533 Mg532 2.028 . S
O533 C536 1.250 . S
O534 Mg535 2.028 . S
O534 C536 1.248 . S
Mg535 O534 2.028 . S
Mg535 O540 2.032 . S
Mg535 O542 2.079 . S
C536 O533 1.250 . S
C536 O534 1.248 . S
C537 O538 1.264 . S
C537 O545 1.249 . S
O538 C537 1.264 . S
O539 Mg532 1.986 . S
O539 C543 1.246 . S
O540 Mg535 2.032 . S
O540 C543 1.259 . S
O541 Mg532 2.114 . S
O541 C544 1.252 . S
O542 Mg532 2.251 . S
O542 Mg535 2.079 . S
O542 C544 1.273 . S
C543 O539 1.246 . S
C543 O540 1.259 . S
C544 O541 1.252 . S
C544 O542 1.273 . S
O545 Mg532 2.010 . S
O545 C537 1.249 . S
Mg546 O547 2.028 . S
Mg546 O553 1.986 . S
Mg546 O555 2.114 . S
Mg546 O556 2.251 . S
Mg546 O559 2.010 . S
O547 Mg546 2.028 . S
O547 C550 1.250 . S
O548 Mg549 2.028 . S
O548 C550 1.248 . S
Mg549 O548 2.028 . S
Mg549 O554 2.032 . S
Mg549 O556 2.079 . S
C550 O547 1.250 . S
C550 O548 1.248 . S
C551 O552 1.264 . S
C551 O559 1.249 . S
O552 C551 1.264 . S
O553 Mg546 1.986 . S
O553 C557 1.246 . S
O554 Mg549 2.032 . S
O554 C557 1.259 . S
O555 Mg546 2.114 . S
O555 C558 1.252 . S
O556 Mg546 2.251 . S
O556 Mg549 2.079 . S
O556 C558 1.273 . S
C557 O553 1.246 . S
C557 O554 1.259 . S
C558 O555 1.252 . S
C558 O556 1.273 . S
O559 Mg546 2.010 . S
O559 C551 1.249 . S
Mg560 O561 2.028 . S
Mg560 O567 1.986 . S
Mg560 O569 2.114 . S
Mg560 O570 2.251 . S
Mg560 O573 2.010 . S
O561 Mg560 2.028 . S
O561 C564 1.250 . S
O562 Mg563 2.028 . S
O562 C564 1.248 . S
Mg563 O562 2.028 . S
Mg563 O568 2.032 . S
Mg563 O570 2.079 . S
C564 O561 1.250 . S
C564 O562 1.248 . S
C565 O566 1.264 . S
C565 O573 1.249 . S
O566 C565 1.264 . S
O567 Mg560 1.986 . S
O567 C571 1.246 . S
O568 Mg563 2.032 . S
O568 C571 1.259 . S
O569 Mg560 2.114 . S
O569 C572 1.252 . S
O570 Mg560 2.251 . S
O570 Mg563 2.079 . S
O570 C572 1.273 . S
C571 O567 1.246 . S
C571 O568 1.259 . S
C572 O569 1.252 . S
C572 O570 1.273 . S
O573 Mg560 2.010 . S
O573 C565 1.249 . S
Mg574 O575 2.028 . S
Mg574 O581 1.986 . S
Mg574 O583 2.114 . S
Mg574 O584 2.251 . S
Mg574 O587 2.010 . S
O575 Mg574 2.028 . S
O575 C578 1.250 . S
O576 Mg577 2.028 . S
O576 C578 1.248 . S
Mg577 O576 2.028 . S
Mg577 O582 2.032 . S
Mg577 O584 2.079 . S
C578 O575 1.250 . S
C578 O576 1.248 . S
C579 O580 1.264 . S
C579 O587 1.249 . S
O580 C579 1.264 . S
O581 Mg574 1.986 . S
O581 C585 1.246 . S
O582 Mg577 2.032 . S
O582 C585 1.259 . S
O583 Mg574 2.114 . S
O583 C586 1.252 . S
O584 Mg574 2.251 . S
O584 Mg577 2.079 . S
O584 C586 1.273 . S
C585 O581 1.246 . S
C585 O582 1.259 . S
C586 O583 1.252 . S
C586 O584 1.273 . S
O587 Mg574 2.010 . S
O587 C579 1.249 . S
Mg588 O589 2.028 . S
Mg588 O595 1.986 . S
Mg588 O597 2.114 . S
Mg588 O598 2.251 . S
Mg588 O601 2.010 . S
O589 Mg588 2.028 . S
O589 C592 1.250 . S
O590 Mg591 2.028 . S
O590 C592 1.248 . S
Mg591 O590 2.028 . S
Mg591 O596 2.032 . S
Mg591 O598 2.079 . S
C592 O589 1.250 . S
C592 O590 1.248 . S
C593 O594 1.264 . S
C593 O601 1.249 . S
O594 C593 1.264 . S
O595 Mg588 1.986 . S
O595 C599 1.246 . S
O596 Mg591 2.032 . S
O596 C599 1.259 . S
O597 Mg588 2.114 . S
O597 C600 1.252 . S
O598 Mg588 2.251 . S
O598 Mg591 2.079 . S
O598 C600 1.273 . S
C599 O595 1.246 . S
C599 O596 1.259 . S
C600 O597 1.252 . S
C600 O598 1.273 . S
O601 Mg588 2.010 . S
O601 C593 1.249 . S
Mg602 O603 2.028 . S
Mg602 O609 1.986 . S
Mg602 O611 2.114 . S
Mg602 O612 2.251 . S
Mg602 O615 2.010 . S
O603 Mg602 2.028 . S
O603 C606 1.250 . S
O604 Mg605 2.028 . S
O604 C606 1.248 . S
Mg605 O604 2.028 . S
Mg605 O610 2.032 . S
Mg605 O612 2.079 . S
C606 O603 1.250 . S
C606 O604 1.248 . S
C607 O608 1.264 . S
C607 O615 1.249 . S
O608 C607 1.264 . S
O609 Mg602 1.986 . S
O609 C613 1.246 . S
O610 Mg605 2.032 . S
O610 C613 1.259 . S
O611 Mg602 2.114 . S
O611 C614 1.252 . S
O612 Mg602 2.251 . S
O612 Mg605 2.079 . S
O612 C614 1.273 . S
C613 O609 1.246 . S
C613 O610 1.259 . S
C614 O611 1.252 . S
C614 O612 1.273 . S
O615 Mg602 2.010 . S
O615 C607 1.249 . S
Mg616 O617 2.028 . S
Mg616 O623 1.986 . S
Mg616 O625 2.114 . S
Mg616 O626 2.251 . S
Mg616 O629 2.010 . S
O617 Mg616 2.028 . S
O617 C620 1.250 . S
O618 Mg619 2.028 . S
O618 C620 1.248 . S
Mg619 O618 2.028 . S
Mg619 O624 2.032 . S
Mg619 O626 2.079 . S
C620 O617 1.250 . S
C620 O618 1.248 . S
C621 O622 1.264 . S
C621 O629 1.249 . S
O622 C621 1.264 . S
O623 Mg616 1.986 . S
O623 C627 1.246 . S
O624 Mg619 2.032 . S
O624 C627 1.259 . S
O625 Mg616 2.114 . S
O625 C628 1.252 . S
O626 Mg616 2.251 . S
O626 Mg619 2.079 . S
O626 C628 1.273 . S
C627 O623 1.246 . S
C627 O624 1.259 . S
C628 O625 1.252 . S
C628 O626 1.273 . S
O629 Mg616 2.010 . S
O629 C621 1.249 . S
Mg630 O631 2.028 . S
Mg630 O637 1.986 . S
Mg630 O639 2.114 . S
Mg630 O640 2.251 . S
Mg630 O643 2.010 . S
O631 Mg630 2.028 . S
O631 C634 1.250 . S
O632 Mg633 2.028 . S
O632 C634 1.248 . S
Mg633 O632 2.028 . S
Mg633 O638 2.032 . S
Mg633 O640 2.079 . S
C634 O631 1.250 . S
C634 O632 1.248 . S
C635 O636 1.264 . S
C635 O643 1.249 . S
O636 C635 1.264 . S
O637 Mg630 1.986 . S
O637 C641 1.246 . S
O638 Mg633 2.032 . S
O638 C641 1.259 . S
O639 Mg630 2.114 . S
O639 C642 1.252 . S
O640 Mg630 2.251 . S
O640 Mg633 2.079 . S
O640 C642 1.273 . S
C641 O637 1.246 . S
C641 O638 1.259 . S
C642 O639 1.252 . S
C642 O640 1.273 . S
O643 Mg630 2.010 . S
O643 C635 1.249 . S
Mg644 O645 2.028 . S
Mg644 O651 1.986 . S
Mg644 O653 2.114 . S
Mg644 O654 2.251 . S
Mg644 O657 2.010 . S
O645 Mg644 2.028 . S
O645 C648 1.250 . S
O646 Mg647 2.028 . S
O646 C648 1.248 . S
Mg647 O646 2.028 . S
Mg647 O652 2.032 . S
Mg647 O654 2.079 . S
C648 O645 1.250 . S
C648 O646 1.248 . S
C649 O650 1.264 . S
C649 O657 1.249 . S
O650 C649 1.264 . S
O651 Mg644 1.986 . S
O651 C655 1.246 . S
O652 Mg647 2.032 . S
O652 C655 1.259 . S
O653 Mg644 2.114 . S
O653 C656 1.252 . S
O654 Mg644 2.251 . S
O654 Mg647 2.079 . S
O654 C656 1.273 . S
C655 O651 1.246 . S
C655 O652 1.259 . S
C656 O653 1.252 . S
C656 O654 1.273 . S
O657 Mg644 2.010 . S
O657 C649 1.249 . S
Mg658 O659 2.028 . S
Mg658 O665 1.986 . S
Mg658 O667 2.114 . S
Mg658 O668 2.251 . S
Mg658 O671 2.010 . S
O659 Mg658 2.028 . S
O659 C662 1.250 . S
O660 Mg661 2.028 . S
O660 C662 1.248 . S
Mg661 O660 2.028 . S
Mg661 O666 2.032 . S
Mg661 O668 2.079 . S
C662 O659 1.250 . S
C662 O660 1.248 . S
C663 O664 1.264 . S
C663 O671 1.249 . S
O664 C663 1.264 . S
O665 Mg658 1.986 . S
O665 C669 1.246 . S
O666 Mg661 2.032 . S
O666 C669 1.259 . S
O667 Mg658 2.114 . S
O667 C670 1.252 . S
O668 Mg658 2.251 . S
O668 Mg661 2.079 . S
O668 C670 1.273 . S
C669 O665 1.246 . S
C669 O666 1.259 . S
C670 O667 1.252 . S
C670 O668 1.273 . S
O671 Mg658 2.010 . S
O671 C663 1.249 . S
C672 C673 1.391 . S
C672 C674 1.394 . S
C672 H688 0.931 . S
C673 C672 1.391 . S
C673 C677 1.376 . S
C674 C672 1.394 . S
C674 C675 1.369 . S
C674 C678 1.531 . S
C675 C674 1.369 . S
C675 C676 1.410 . S
C675 C683 1.503 . S
C676 C675 1.410 . S
C676 C677 1.392 . S
C676 C679 1.511 . S
C677 C673 1.376 . S
C677 C676 1.392 . S
C677 H689 0.929 . S
C678 C674 1.531 . S
C678 H690 0.960 . S
C678 H691 0.962 . S
C678 H692 0.960 . S
C679 C676 1.511 . S
C679 H693 0.961 . S
C679 H694 0.961 . S
C679 H695 0.961 . S
C680 C681 1.370 . S
C680 C682 1.363 . S
C680 H696 0.931 . S
C681 C680 1.370 . S
C681 C685 1.408 . S
C682 C680 1.363 . S
C682 C683 1.370 . S
C682 C686 1.524 . S
C683 C675 1.503 . S
C683 C682 1.370 . S
C683 C684 1.403 . S
C684 C683 1.403 . S
C684 C685 1.404 . S
C684 C687 1.539 . S
C685 C681 1.408 . S
C685 C684 1.404 . S
C685 H697 0.930 . S
C686 C682 1.524 . S
C686 H698 0.956 . S
C686 H699 0.961 . S
C686 H700 0.961 . S
C687 C684 1.539 . S
C687 H701 0.958 . S
C687 H702 0.961 . S
C687 H703 0.960 . S
H688 C672 0.931 . S
H689 C677 0.929 . S
H690 C678 0.960 . S
H691 C678 0.962 . S
H692 C678 0.960 . S
H693 C679 0.961 . S
H694 C679 0.961 . S
H695 C679 0.961 . S
H696 C680 0.931 . S
H697 C685 0.930 . S
H698 C686 0.956 . S
H699 C686 0.961 . S
H700 C686 0.961 . S
H701 C687 0.958 . S
H702 C687 0.961 . S
H703 C687 0.960 . S
C704 C705 1.391 . S
C704 C706 1.394 . S
C704 H720 0.931 . S
C705 C704 1.391 . S
C705 C709 1.376 . S
C706 C704 1.394 . S
C706 C707 1.369 . S
C706 C710 1.531 . S
C707 C706 1.369 . S
C707 C708 1.410 . S
C707 C715 1.503 . S
C708 C707 1.410 . S
C708 C709 1.392 . S
C708 C711 1.511 . S
C709 C705 1.376 . S
C709 C708 1.392 . S
C709 H721 0.929 . S
C710 C706 1.531 . S
C710 H722 0.960 . S
C710 H723 0.962 . S
C710 H724 0.960 . S
C711 C708 1.511 . S
C711 H725 0.961 . S
C711 H726 0.961 . S
C711 H727 0.961 . S
C712 C713 1.370 . S
C712 C714 1.363 . S
C712 H728 0.931 . S
C713 C712 1.370 . S
C713 C717 1.408 . S
C714 C712 1.363 . S
C714 C715 1.370 . S
C714 C718 1.524 . S
C715 C707 1.503 . S
C715 C714 1.370 . S
C715 C716 1.403 . S
C716 C715 1.403 . S
C716 C717 1.404 . S
C716 C719 1.539 . S
C717 C713 1.408 . S
C717 C716 1.404 . S
C717 H729 0.930 . S
C718 C714 1.524 . S
C718 H730 0.956 . S
C718 H731 0.961 . S
C718 H732 0.961 . S
C719 C716 1.539 . S
C719 H733 0.958 . S
C719 H734 0.961 . S
C719 H735 0.960 . S
H720 C704 0.931 . S
H721 C709 0.929 . S
H722 C710 0.960 . S
H723 C710 0.962 . S
H724 C710 0.960 . S
H725 C711 0.961 . S
H726 C711 0.961 . S
H727 C711 0.961 . S
H728 C712 0.931 . S
H729 C717 0.930 . S
H730 C718 0.956 . S
H731 C718 0.961 . S
H732 C718 0.961 . S
H733 C719 0.958 . S
H734 C719 0.961 . S
H735 C719 0.960 . S
C736 C737 1.391 . S
C736 C738 1.394 . S
C736 H752 0.931 . S
C737 C736 1.391 . S
C737 C741 1.376 . S
C738 C736 1.394 . S
C738 C739 1.369 . S
C738 C742 1.531 . S
C739 C738 1.369 . S
C739 C740 1.410 . S
C739 C747 1.503 . S
C740 C739 1.410 . S
C740 C741 1.392 . S
C740 C743 1.511 . S
C741 C737 1.376 . S
C741 C740 1.392 . S
C741 H753 0.929 . S
C742 C738 1.531 . S
C742 H754 0.960 . S
C742 H755 0.962 . S
C742 H756 0.960 . S
C743 C740 1.511 . S
C743 H757 0.961 . S
C743 H758 0.961 . S
C743 H759 0.961 . S
C744 C745 1.370 . S
C744 C746 1.363 . S
C744 H760 0.931 . S
C745 C744 1.370 . S
C745 C749 1.408 . S
C746 C744 1.363 . S
C746 C747 1.370 . S
C746 C750 1.524 . S
C747 C739 1.503 . S
C747 C746 1.370 . S
C747 C748 1.403 . S
C748 C747 1.403 . S
C748 C749 1.404 . S
C748 C751 1.539 . S
C749 C745 1.408 . S
C749 C748 1.404 . S
C749 H761 0.930 . S
C750 C746 1.524 . S
C750 H762 0.956 . S
C750 H763 0.961 . S
C750 H764 0.961 . S
C751 C748 1.539 . S
C751 H765 0.958 . S
C751 H766 0.961 . S
C751 H767 0.960 . S
H752 C736 0.931 . S
H753 C741 0.929 . S
H754 C742 0.960 . S
H755 C742 0.962 . S
H756 C742 0.960 . S
H757 C743 0.961 . S
H758 C743 0.961 . S
H759 C743 0.961 . S
H760 C744 0.931 . S
H761 C749 0.930 . S
H762 C750 0.956 . S
H763 C750 0.961 . S
H764 C750 0.961 . S
H765 C751 0.958 . S
H766 C751 0.961 . S
H767 C751 0.960 . S
C768 C769 1.391 . S
C768 C770 1.394 . S
C768 H784 0.931 . S
C769 C768 1.391 . S
C769 C773 1.376 . S
C770 C768 1.394 . S
C770 C771 1.369 . S
C770 C774 1.531 . S
C771 C770 1.369 . S
C771 C772 1.410 . S
C771 C779 1.503 . S
C772 C771 1.410 . S
C772 C773 1.392 . S
C772 C775 1.511 . S
C773 C769 1.376 . S
C773 C772 1.392 . S
C773 H785 0.929 . S
C774 C770 1.531 . S
C774 H786 0.960 . S
C774 H787 0.962 . S
C774 H788 0.960 . S
C775 C772 1.511 . S
C775 H789 0.961 . S
C775 H790 0.961 . S
C775 H791 0.961 . S
C776 C777 1.370 . S
C776 C778 1.363 . S
C776 H792 0.931 . S
C777 C776 1.370 . S
C777 C781 1.408 . S
C778 C776 1.363 . S
C778 C779 1.370 . S
C778 C782 1.524 . S
C779 C771 1.503 . S
C779 C778 1.370 . S
C779 C780 1.403 . S
C780 C779 1.403 . S
C780 C781 1.404 . S
C780 C783 1.539 . S
C781 C777 1.408 . S
C781 C780 1.404 . S
C781 H793 0.930 . S
C782 C778 1.524 . S
C782 H794 0.956 . S
C782 H795 0.961 . S
C782 H796 0.961 . S
C783 C780 1.539 . S
C783 H797 0.958 . S
C783 H798 0.961 . S
C783 H799 0.960 . S
H784 C768 0.931 . S
H785 C773 0.929 . S
H786 C774 0.960 . S
H787 C774 0.962 . S
H788 C774 0.960 . S
H789 C775 0.961 . S
H790 C775 0.961 . S
H791 C775 0.961 . S
H792 C776 0.931 . S
H793 C781 0.930 . S
H794 C782 0.956 . S
H795 C782 0.961 . S
H796 C782 0.961 . S
H797 C783 0.958 . S
H798 C783 0.961 . S
H799 C783 0.960 . S
C800 C801 1.391 . S
C800 C802 1.394 . S
C800 H816 0.931 . S
C801 C800 1.391 . S
C801 C805 1.376 . S
C802 C800 1.394 . S
C802 C803 1.369 . S
C802 C806 1.531 . S
C803 C802 1.369 . S
C803 C804 1.410 . S
C803 C811 1.503 . S
C804 C803 1.410 . S
C804 C805 1.392 . S
C804 C807 1.511 . S
C805 C801 1.376 . S
C805 C804 1.392 . S
C805 H817 0.929 . S
C806 C802 1.531 . S
C806 H818 0.960 . S
C806 H819 0.962 . S
C806 H820 0.960 . S
C807 C804 1.511 . S
C807 H821 0.961 . S
C807 H822 0.961 . S
C807 H823 0.961 . S
C808 C809 1.370 . S
C808 C810 1.363 . S
C808 H824 0.931 . S
C809 C808 1.370 . S
C809 C813 1.408 . S
C810 C808 1.363 . S
C810 C811 1.370 . S
C810 C814 1.524 . S
C811 C803 1.503 . S
C811 C810 1.370 . S
C811 C812 1.403 . S
C812 C811 1.403 . S
C812 C813 1.404 . S
C812 C815 1.539 . S
C813 C809 1.408 . S
C813 C812 1.404 . S
C813 H825 0.930 . S
C814 C810 1.524 . S
C814 H826 0.956 . S
C814 H827 0.961 . S
C814 H828 0.961 . S
C815 C812 1.539 . S
C815 H829 0.958 . S
C815 H830 0.961 . S
C815 H831 0.960 . S
H816 C800 0.931 . S
H817 C805 0.929 . S
H818 C806 0.960 . S
H819 C806 0.962 . S
H820 C806 0.960 . S
H821 C807 0.961 . S
H822 C807 0.961 . S
H823 C807 0.961 . S
H824 C808 0.931 . S
H825 C813 0.930 . S
H826 C814 0.956 . S
H827 C814 0.961 . S
H828 C814 0.961 . S
H829 C815 0.958 . S
H830 C815 0.961 . S
H831 C815 0.960 . S
C832 C833 1.391 . S
C832 C834 1.394 . S
C832 H848 0.931 . S
C833 C832 1.391 . S
C833 C837 1.376 . S
C834 C832 1.394 . S
C834 C835 1.369 . S
C834 C838 1.531 . S
C835 C834 1.369 . S
C835 C836 1.410 . S
C835 C843 1.503 . S
C836 C835 1.410 . S
C836 C837 1.392 . S
C836 C839 1.511 . S
C837 C833 1.376 . S
C837 C836 1.392 . S
C837 H849 0.929 . S
C838 C834 1.531 . S
C838 H850 0.960 . S
C838 H851 0.962 . S
C838 H852 0.960 . S
C839 C836 1.511 . S
C839 H853 0.961 . S
C839 H854 0.961 . S
C839 H855 0.961 . S
C840 C841 1.370 . S
C840 C842 1.363 . S
C840 H856 0.931 . S
C841 C840 1.370 . S
C841 C845 1.408 . S
C842 C840 1.363 . S
C842 C843 1.370 . S
C842 C846 1.524 . S
C843 C835 1.503 . S
C843 C842 1.370 . S
C843 C844 1.403 . S
C844 C843 1.403 . S
C844 C845 1.404 . S
C844 C847 1.539 . S
C845 C841 1.408 . S
C845 C844 1.404 . S
C845 H857 0.930 . S
C846 C842 1.524 . S
C846 H858 0.956 . S
C846 H859 0.961 . S
C846 H860 0.961 . S
C847 C844 1.539 . S
C847 H861 0.958 . S
C847 H862 0.961 . S
C847 H863 0.960 . S
H848 C832 0.931 . S
H849 C837 0.929 . S
H850 C838 0.960 . S
H851 C838 0.962 . S
H852 C838 0.960 . S
H853 C839 0.961 . S
H854 C839 0.961 . S
H855 C839 0.961 . S
H856 C840 0.931 . S
H857 C845 0.930 . S
H858 C846 0.956 . S
H859 C846 0.961 . S
H860 C846 0.961 . S
H861 C847 0.958 . S
H862 C847 0.961 . S
H863 C847 0.960 . S
C864 C865 1.391 . S
C864 C866 1.394 . S
C864 H880 0.931 . S
C865 C864 1.391 . S
C865 C869 1.376 . S
C866 C864 1.394 . S
C866 C867 1.369 . S
C866 C870 1.531 . S
C867 C866 1.369 . S
C867 C868 1.410 . S
C867 C875 1.503 . S
C868 C867 1.410 . S
C868 C869 1.392 . S
C868 C871 1.511 . S
C869 C865 1.376 . S
C869 C868 1.392 . S
C869 H881 0.929 . S
C870 C866 1.531 . S
C870 H882 0.960 . S
C870 H883 0.962 . S
C870 H884 0.960 . S
C871 C868 1.511 . S
C871 H885 0.961 . S
C871 H886 0.961 . S
C871 H887 0.961 . S
C872 C873 1.370 . S
C872 C874 1.363 . S
C872 H888 0.931 . S
C873 C872 1.370 . S
C873 C877 1.408 . S
C874 C872 1.363 . S
C874 C875 1.370 . S
C874 C878 1.524 . S
C875 C867 1.503 . S
C875 C874 1.370 . S
C875 C876 1.403 . S
C876 C875 1.403 . S
C876 C877 1.404 . S
C876 C879 1.539 . S
C877 C873 1.408 . S
C877 C876 1.404 . S
C877 H889 0.930 . S
C878 C874 1.524 . S
C878 H890 0.956 . S
C878 H891 0.961 . S
C878 H892 0.961 . S
C879 C876 1.539 . S
C879 H893 0.958 . S
C879 H894 0.961 . S
C879 H895 0.960 . S
H880 C864 0.931 . S
H881 C869 0.929 . S
H882 C870 0.960 . S
H883 C870 0.962 . S
H884 C870 0.960 . S
H885 C871 0.961 . S
H886 C871 0.961 . S
H887 C871 0.961 . S
H888 C872 0.931 . S
H889 C877 0.930 . S
H890 C878 0.956 . S
H891 C878 0.961 . S
H892 C878 0.961 . S
H893 C879 0.958 . S
H894 C879 0.961 . S
H895 C879 0.960 . S
C896 C897 1.391 . S
C896 C898 1.394 . S
C896 H912 0.931 . S
C897 C896 1.391 . S
C897 C901 1.376 . S
C898 C896 1.394 . S
C898 C899 1.369 . S
C898 C902 1.531 . S
C899 C898 1.369 . S
C899 C900 1.410 . S
C899 C907 1.503 . S
C900 C899 1.410 . S
C900 C901 1.392 . S
C900 C903 1.511 . S
C901 C897 1.376 . S
C901 C900 1.392 . S
C901 H913 0.929 . S
C902 C898 1.531 . S
C902 H914 0.960 . S
C902 H915 0.962 . S
C902 H916 0.960 . S
C903 C900 1.511 . S
C903 H917 0.961 . S
C903 H918 0.961 . S
C903 H919 0.961 . S
C904 C905 1.370 . S
C904 C906 1.363 . S
C904 H920 0.931 . S
C905 C904 1.370 . S
C905 C909 1.408 . S
C906 C904 1.363 . S
C906 C907 1.370 . S
C906 C910 1.524 . S
C907 C899 1.503 . S
C907 C906 1.370 . S
C907 C908 1.403 . S
C908 C907 1.403 . S
C908 C909 1.404 . S
C908 C911 1.539 . S
C909 C905 1.408 . S
C909 C908 1.404 . S
C909 H921 0.930 . S
C910 C906 1.524 . S
C910 H922 0.956 . S
C910 H923 0.961 . S
C910 H924 0.961 . S
C911 C908 1.539 . S
C911 H925 0.958 . S
C911 H926 0.961 . S
C911 H927 0.960 . S
H912 C896 0.931 . S
H913 C901 0.929 . S
H914 C902 0.960 . S
H915 C902 0.962 . S
H916 C902 0.960 . S
H917 C903 0.961 . S
H918 C903 0.961 . S
H919 C903 0.961 . S
H920 C904 0.931 . S
H921 C909 0.930 . S
H922 C910 0.956 . S
H923 C910 0.961 . S
H924 C910 0.961 . S
H925 C911 0.958 . S
H926 C911 0.961 . S
H927 C911 0.960 . S
C928 C929 1.391 . S
C928 C930 1.394 . S
C928 H944 0.931 . S
C929 C928 1.391 . S
C929 C933 1.376 . S
C930 C928 1.394 . S
C930 C931 1.369 . S
C930 C934 1.531 . S
C931 C930 1.369 . S
C931 C932 1.410 . S
C931 C939 1.503 . S
C932 C931 1.410 . S
C932 C933 1.392 . S
C932 C935 1.511 . S
C933 C929 1.376 . S
C933 C932 1.392 . S
C933 H945 0.929 . S
C934 C930 1.531 . S
C934 H946 0.960 . S
C934 H947 0.962 . S
C934 H948 0.960 . S
C935 C932 1.511 . S
C935 H949 0.961 . S
C935 H950 0.961 . S
C935 H951 0.961 . S
C936 C937 1.370 . S
C936 C938 1.363 . S
C936 H952 0.931 . S
C937 C936 1.370 . S
C937 C941 1.408 . S
C938 C936 1.363 . S
C938 C939 1.370 . S
C938 C942 1.524 . S
C939 C931 1.503 . S
C939 C938 1.370 . S
C939 C940 1.403 . S
C940 C939 1.403 . S
C940 C941 1.404 . S
C940 C943 1.539 . S
C941 C937 1.408 . S
C941 C940 1.404 . S
C941 H953 0.930 . S
C942 C938 1.524 . S
C942 H954 0.956 . S
C942 H955 0.961 . S
C942 H956 0.961 . S
C943 C940 1.539 . S
C943 H957 0.958 . S
C943 H958 0.961 . S
C943 H959 0.960 . S
H944 C928 0.931 . S
H945 C933 0.929 . S
H946 C934 0.960 . S
H947 C934 0.962 . S
H948 C934 0.960 . S
H949 C935 0.961 . S
H950 C935 0.961 . S
H951 C935 0.961 . S
H952 C936 0.931 . S
H953 C941 0.930 . S
H954 C942 0.956 . S
H955 C942 0.961 . S
H956 C942 0.961 . S
H957 C943 0.958 . S
H958 C943 0.961 . S
H959 C943 0.960 . S
C960 C961 1.391 . S
C960 C962 1.394 . S
C960 H976 0.931 . S
C961 C960 1.391 . S
C961 C965 1.376 . S
C962 C960 1.394 . S
C962 C963 1.369 . S
C962 C966 1.531 . S
C963 C962 1.369 . S
C963 C964 1.410 . S
C963 C971 1.503 . S
C964 C963 1.410 . S
C964 C965 1.392 . S
C964 C967 1.511 . S
C965 C961 1.376 . S
C965 C964 1.392 . S
C965 H977 0.929 . S
C966 C962 1.531 . S
C966 H978 0.960 . S
C966 H979 0.962 . S
C966 H980 0.960 . S
C967 C964 1.511 . S
C967 H981 0.961 . S
C967 H982 0.961 . S
C967 H983 0.961 . S
C968 C969 1.370 . S
C968 C970 1.363 . S
C968 H984 0.931 . S
C969 C968 1.370 . S
C969 C973 1.408 . S
C970 C968 1.363 . S
C970 C971 1.370 . S
C970 C974 1.524 . S
C971 C963 1.503 . S
C971 C970 1.370 . S
C971 C972 1.403 . S
C972 C971 1.403 . S
C972 C973 1.404 . S
C972 C975 1.539 . S
C973 C969 1.408 . S
C973 C972 1.404 . S
C973 H985 0.930 . S
C974 C970 1.524 . S
C974 H986 0.956 . S
C974 H987 0.961 . S
C974 H988 0.961 . S
C975 C972 1.539 . S
C975 H989 0.958 . S
C975 H990 0.961 . S
C975 H991 0.960 . S
H976 C960 0.931 . S
H977 C965 0.929 . S
H978 C966 0.960 . S
H979 C966 0.962 . S
H980 C966 0.960 . S
H981 C967 0.961 . S
H982 C967 0.961 . S
H983 C967 0.961 . S
H984 C968 0.931 . S
H985 C973 0.930 . S
H986 C974 0.956 . S
H987 C974 0.961 . S
H988 C974 0.961 . S
H989 C975 0.958 . S
H990 C975 0.961 . S
H991 C975 0.960 . S
C992 C993 1.391 . S
C992 C994 1.394 . S
C992 H1008 0.931 . S
C993 C992 1.391 . S
C993 C997 1.376 . S
C994 C992 1.394 . S
C994 C995 1.369 . S
C994 C998 1.531 . S
C995 C994 1.369 . S
C995 C996 1.410 . S
C995 C1003 1.503 . S
C996 C995 1.410 . S
C996 C997 1.392 . S
C996 C999 1.511 . S
C997 C993 1.376 . S
C997 C996 1.392 . S
C997 H1009 0.929 . S
C998 C994 1.531 . S
C998 H1010 0.960 . S
C998 H1011 0.962 . S
C998 H1012 0.960 . S
C999 C996 1.511 . S
C999 H1013 0.961 . S
C999 H1014 0.961 . S
C999 H1015 0.961 . S
C1000 C1001 1.370 . S
C1000 C1002 1.363 . S
C1000 H1016 0.931 . S
C1001 C1000 1.370 . S
C1001 C1005 1.408 . S
C1002 C1000 1.363 . S
C1002 C1003 1.370 . S
C1002 C1006 1.524 . S
C1003 C995 1.503 . S
C1003 C1002 1.370 . S
C1003 C1004 1.403 . S
C1004 C1003 1.403 . S
C1004 C1005 1.404 . S
C1004 C1007 1.539 . S
C1005 C1001 1.408 . S
C1005 C1004 1.404 . S
C1005 H1017 0.930 . S
C1006 C1002 1.524 . S
C1006 H1018 0.956 . S
C1006 H1019 0.961 . S
C1006 H1020 0.961 . S
C1007 C1004 1.539 . S
C1007 H1021 0.958 . S
C1007 H1022 0.961 . S
C1007 H1023 0.960 . S
H1008 C992 0.931 . S
H1009 C997 0.929 . S
H1010 C998 0.960 . S
H1011 C998 0.962 . S
H1012 C998 0.960 . S
H1013 C999 0.961 . S
H1014 C999 0.961 . S
H1015 C999 0.961 . S
H1016 C1000 0.931 . S
H1017 C1005 0.930 . S
H1018 C1006 0.956 . S
H1019 C1006 0.961 . S
H1020 C1006 0.961 . S
H1021 C1007 0.958 . S
H1022 C1007 0.961 . S
H1023 C1007 0.960 . S
C1024 C1025 1.391 . S
C1024 C1026 1.394 . S
C1024 H1040 0.931 . S
C1025 C1024 1.391 . S
C1025 C1029 1.376 . S
C1026 C1024 1.394 . S
C1026 C1027 1.369 . S
C1026 C1030 1.531 . S
C1027 C1026 1.369 . S
C1027 C1028 1.410 . S
C1027 C1035 1.503 . S
C1028 C1027 1.410 . S
C1028 C1029 1.392 . S
C1028 C1031 1.511 . S
C1029 C1025 1.376 . S
C1029 C1028 1.392 . S
C1029 H1041 0.929 . S
C1030 C1026 1.531 . S
C1030 H1042 0.960 . S
C1030 H1043 0.962 . S
C1030 H1044 0.960 . S
C1031 C1028 1.511 . S
C1031 H1045 0.961 . S
C1031 H1046 0.961 . S
C1031 H1047 0.961 . S
C1032 C1033 1.370 . S
C1032 C1034 1.363 . S
C1032 H1048 0.931 . S
C1033 C1032 1.370 . S
C1033 C1037 1.408 . S
C1034 C1032 1.363 . S
C1034 C1035 1.370 . S
C1034 C1038 1.524 . S
C1035 C1027 1.503 . S
C1035 C1034 1.370 . S
C1035 C1036 1.403 . S
C1036 C1035 1.403 . S
C1036 C1037 1.404 . S
C1036 C1039 1.539 . S
C1037 C1033 1.408 . S
C1037 C1036 1.404 . S
C1037 H1049 0.930 . S
C1038 C1034 1.524 . S
C1038 H1050 0.956 . S
C1038 H1051 0.961 . S
C1038 H1052 0.961 . S
C1039 C1036 1.539 . S
C1039 H1053 0.958 . S
C1039 H1054 0.961 . S
C1039 H1055 0.960 . S
H1040 C1024 0.931 . S
H1041 C1029 0.929 . S
H1042 C1030 0.960 . S
H1043 C1030 0.962 . S
H1044 C1030 0.960 . S
H1045 C1031 0.961 . S
H1046 C1031 0.961 . S
H1047 C1031 0.961 . S
H1048 C1032 0.931 . S
H1049 C1037 0.930 . S
H1050 C1038 0.956 . S
H1051 C1038 0.961 . S
H1052 C1038 0.961 . S
H1053 C1039 0.958 . S
H1054 C1039 0.961 . S
H1055 C1039 0.960 . S
C1056 C1057 1.391 . S
C1056 C1058 1.394 . S
C1056 H1072 0.931 . S
C1057 C1056 1.391 . S
C1057 C1061 1.376 . S
C1058 C1056 1.394 . S
C1058 C1059 1.369 . S
C1058 C1062 1.531 . S
C1059 C1058 1.369 . S
C1059 C1060 1.410 . S
C1059 C1067 1.503 . S
C1060 C1059 1.410 . S
C1060 C1061 1.392 . S
C1060 C1063 1.511 . S
C1061 C1057 1.376 . S
C1061 C1060 1.392 . S
C1061 H1073 0.929 . S
C1062 C1058 1.531 . S
C1062 H1074 0.960 . S
C1062 H1075 0.962 . S
C1062 H1076 0.960 . S
C1063 C1060 1.511 . S
C1063 H1077 0.961 . S
C1063 H1078 0.961 . S
C1063 H1079 0.961 . S
C1064 C1065 1.370 . S
C1064 C1066 1.363 . S
C1064 H1080 0.931 . S
C1065 C1064 1.370 . S
C1065 C1069 1.408 . S
C1066 C1064 1.363 . S
C1066 C1067 1.370 . S
C1066 C1070 1.524 . S
C1067 C1059 1.503 . S
C1067 C1066 1.370 . S
C1067 C1068 1.403 . S
C1068 C1067 1.403 . S
C1068 C1069 1.404 . S
C1068 C1071 1.539 . S
C1069 C1065 1.408 . S
C1069 C1068 1.404 . S
C1069 H1081 0.930 . S
C1070 C1066 1.524 . S
C1070 H1082 0.956 . S
C1070 H1083 0.961 . S
C1070 H1084 0.961 . S
C1071 C1068 1.539 . S
C1071 H1085 0.958 . S
C1071 H1086 0.961 . S
C1071 H1087 0.960 . S
H1072 C1056 0.931 . S
H1073 C1061 0.929 . S
H1074 C1062 0.960 . S
H1075 C1062 0.962 . S
H1076 C1062 0.960 . S
H1077 C1063 0.961 . S
H1078 C1063 0.961 . S
H1079 C1063 0.961 . S
H1080 C1064 0.931 . S
H1081 C1069 0.930 . S
H1082 C1070 0.956 . S
H1083 C1070 0.961 . S
H1084 C1070 0.961 . S
H1085 C1071 0.958 . S
H1086 C1071 0.961 . S
H1087 C1071 0.960 . S
C1088 C1089 1.391 . S
C1088 C1090 1.394 . S
C1088 H1104 0.931 . S
C1089 C1088 1.391 . S
C1089 C1093 1.376 . S
C1090 C1088 1.394 . S
C1090 C1091 1.369 . S
C1090 C1094 1.531 . S
C1091 C1090 1.369 . S
C1091 C1092 1.410 . S
C1091 C1099 1.503 . S
C1092 C1091 1.410 . S
C1092 C1093 1.392 . S
C1092 C1095 1.511 . S
C1093 C1089 1.376 . S
C1093 C1092 1.392 . S
C1093 H1105 0.929 . S
C1094 C1090 1.531 . S
C1094 H1106 0.960 . S
C1094 H1107 0.962 . S
C1094 H1108 0.960 . S
C1095 C1092 1.511 . S
C1095 H1109 0.961 . S
C1095 H1110 0.961 . S
C1095 H1111 0.961 . S
C1096 C1097 1.370 . S
C1096 C1098 1.363 . S
C1096 H1112 0.931 . S
C1097 C1096 1.370 . S
C1097 C1101 1.408 . S
C1098 C1096 1.363 . S
C1098 C1099 1.370 . S
C1098 C1102 1.524 . S
C1099 C1091 1.503 . S
C1099 C1098 1.370 . S
C1099 C1100 1.403 . S
C1100 C1099 1.403 . S
C1100 C1101 1.404 . S
C1100 C1103 1.539 . S
C1101 C1097 1.408 . S
C1101 C1100 1.404 . S
C1101 H1113 0.930 . S
C1102 C1098 1.524 . S
C1102 H1114 0.956 . S
C1102 H1115 0.961 . S
C1102 H1116 0.961 . S
C1103 C1100 1.539 . S
C1103 H1117 0.958 . S
C1103 H1118 0.961 . S
C1103 H1119 0.960 . S
H1104 C1088 0.931 . S
H1105 C1093 0.929 . S
H1106 C1094 0.960 . S
H1107 C1094 0.962 . S
H1108 C1094 0.960 . S
H1109 C1095 0.961 . S
H1110 C1095 0.961 . S
H1111 C1095 0.961 . S
H1112 C1096 0.931 . S
H1113 C1101 0.930 . S
H1114 C1102 0.956 . S
H1115 C1102 0.961 . S
H1116 C1102 0.961 . S
H1117 C1103 0.958 . S
H1118 C1103 0.961 . S
H1119 C1103 0.960 . S
C1120 C1121 1.391 . S
C1120 C1122 1.394 . S
C1120 H1136 0.931 . S
C1121 C1120 1.391 . S
C1121 C1125 1.376 . S
C1122 C1120 1.394 . S
C1122 C1123 1.369 . S
C1122 C1126 1.531 . S
C1123 C1122 1.369 . S
C1123 C1124 1.410 . S
C1123 C1131 1.503 . S
C1124 C1123 1.410 . S
C1124 C1125 1.392 . S
C1124 C1127 1.511 . S
C1125 C1121 1.376 . S
C1125 C1124 1.392 . S
C1125 H1137 0.929 . S
C1126 C1122 1.531 . S
C1126 H1138 0.960 . S
C1126 H1139 0.962 . S
C1126 H1140 0.960 . S
C1127 C1124 1.511 . S
C1127 H1141 0.961 . S
C1127 H1142 0.961 . S
C1127 H1143 0.961 . S
C1128 C1129 1.370 . S
C1128 C1130 1.363 . S
C1128 H1144 0.931 . S
C1129 C1128 1.370 . S
C1129 C1133 1.408 . S
C1130 C1128 1.363 . S
C1130 C1131 1.370 . S
C1130 C1134 1.524 . S
C1131 C1123 1.503 . S
C1131 C1130 1.370 . S
C1131 C1132 1.403 . S
C1132 C1131 1.403 . S
C1132 C1133 1.404 . S
C1132 C1135 1.539 . S
C1133 C1129 1.408 . S
C1133 C1132 1.404 . S
C1133 H1145 0.930 . S
C1134 C1130 1.524 . S
C1134 H1146 0.956 . S
C1134 H1147 0.961 . S
C1134 H1148 0.961 . S
C1135 C1132 1.539 . S
C1135 H1149 0.958 . S
C1135 H1150 0.961 . S
C1135 H1151 0.960 . S
H1136 C1120 0.931 . S
H1137 C1125 0.929 . S
H1138 C1126 0.960 . S
H1139 C1126 0.962 . S
H1140 C1126 0.960 . S
H1141 C1127 0.961 . S
H1142 C1127 0.961 . S
H1143 C1127 0.961 . S
H1144 C1128 0.931 . S
H1145 C1133 0.930 . S
H1146 C1134 0.956 . S
H1147 C1134 0.961 . S
H1148 C1134 0.961 . S
H1149 C1135 0.958 . S
H1150 C1135 0.961 . S
H1151 C1135 0.960 . S
C1152 C1153 1.391 . S
C1152 C1154 1.394 . S
C1152 H1168 0.931 . S
C1153 C1152 1.391 . S
C1153 C1157 1.376 . S
C1154 C1152 1.394 . S
C1154 C1155 1.369 . S
C1154 C1158 1.531 . S
C1155 C1154 1.369 . S
C1155 C1156 1.410 . S
C1155 C1163 1.503 . S
C1156 C1155 1.410 . S
C1156 C1157 1.392 . S
C1156 C1159 1.511 . S
C1157 C1153 1.376 . S
C1157 C1156 1.392 . S
C1157 H1169 0.929 . S
C1158 C1154 1.531 . S
C1158 H1170 0.960 . S
C1158 H1171 0.962 . S
C1158 H1172 0.960 . S
C1159 C1156 1.511 . S
C1159 H1173 0.961 . S
C1159 H1174 0.961 . S
C1159 H1175 0.961 . S
C1160 C1161 1.370 . S
C1160 C1162 1.363 . S
C1160 H1176 0.931 . S
C1161 C1160 1.370 . S
C1161 C1165 1.408 . S
C1162 C1160 1.363 . S
C1162 C1163 1.370 . S
C1162 C1166 1.524 . S
C1163 C1155 1.503 . S
C1163 C1162 1.370 . S
C1163 C1164 1.403 . S
C1164 C1163 1.403 . S
C1164 C1165 1.404 . S
C1164 C1167 1.539 . S
C1165 C1161 1.408 . S
C1165 C1164 1.404 . S
C1165 H1177 0.930 . S
C1166 C1162 1.524 . S
C1166 H1178 0.956 . S
C1166 H1179 0.961 . S
C1166 H1180 0.961 . S
C1167 C1164 1.539 . S
C1167 H1181 0.958 . S
C1167 H1182 0.961 . S
C1167 H1183 0.960 . S
H1168 C1152 0.931 . S
H1169 C1157 0.929 . S
H1170 C1158 0.960 . S
H1171 C1158 0.962 . S
H1172 C1158 0.960 . S
H1173 C1159 0.961 . S
H1174 C1159 0.961 . S
H1175 C1159 0.961 . S
H1176 C1160 0.931 . S
H1177 C1165 0.930 . S
H1178 C1166 0.956 . S
H1179 C1166 0.961 . S
H1180 C1166 0.961 . S
H1181 C1167 0.958 . S
H1182 C1167 0.961 . S
H1183 C1167 0.960 . S
C1184 C1185 1.391 . S
C1184 C1186 1.394 . S
C1184 H1200 0.931 . S
C1185 C1184 1.391 . S
C1185 C1189 1.376 . S
C1186 C1184 1.394 . S
C1186 C1187 1.369 . S
C1186 C1190 1.531 . S
C1187 C1186 1.369 . S
C1187 C1188 1.410 . S
C1187 C1195 1.503 . S
C1188 C1187 1.410 . S
C1188 C1189 1.392 . S
C1188 C1191 1.511 . S
C1189 C1185 1.376 . S
C1189 C1188 1.392 . S
C1189 H1201 0.929 . S
C1190 C1186 1.531 . S
C1190 H1202 0.960 . S
C1190 H1203 0.962 . S
C1190 H1204 0.960 . S
C1191 C1188 1.511 . S
C1191 H1205 0.961 . S
C1191 H1206 0.961 . S
C1191 H1207 0.961 . S
C1192 C1193 1.370 . S
C1192 C1194 1.363 . S
C1192 H1208 0.931 . S
C1193 C1192 1.370 . S
C1193 C1197 1.408 . S
C1194 C1192 1.363 . S
C1194 C1195 1.370 . S
C1194 C1198 1.524 . S
C1195 C1187 1.503 . S
C1195 C1194 1.370 . S
C1195 C1196 1.403 . S
C1196 C1195 1.403 . S
C1196 C1197 1.404 . S
C1196 C1199 1.539 . S
C1197 C1193 1.408 . S
C1197 C1196 1.404 . S
C1197 H1209 0.930 . S
C1198 C1194 1.524 . S
C1198 H1210 0.956 . S
C1198 H1211 0.961 . S
C1198 H1212 0.961 . S
C1199 C1196 1.539 . S
C1199 H1213 0.958 . S
C1199 H1214 0.961 . S
C1199 H1215 0.960 . S
H1200 C1184 0.931 . S
H1201 C1189 0.929 . S
H1202 C1190 0.960 . S
H1203 C1190 0.962 . S
H1204 C1190 0.960 . S
H1205 C1191 0.961 . S
H1206 C1191 0.961 . S
H1207 C1191 0.961 . S
H1208 C1192 0.931 . S
H1209 C1197 0.930 . S
H1210 C1198 0.956 . S
H1211 C1198 0.961 . S
H1212 C1198 0.961 . S
H1213 C1199 0.958 . S
H1214 C1199 0.961 . S
H1215 C1199 0.960 . S
C1216 C1217 1.391 . S
C1216 C1218 1.394 . S
C1216 H1232 0.931 . S
C1217 C1216 1.391 . S
C1217 C1221 1.376 . S
C1218 C1216 1.394 . S
C1218 C1219 1.369 . S
C1218 C1222 1.531 . S
C1219 C1218 1.369 . S
C1219 C1220 1.410 . S
C1219 C1227 1.503 . S
C1220 C1219 1.410 . S
C1220 C1221 1.392 . S
C1220 C1223 1.511 . S
C1221 C1217 1.376 . S
C1221 C1220 1.392 . S
C1221 H1233 0.929 . S
C1222 C1218 1.531 . S
C1222 H1234 0.960 . S
C1222 H1235 0.962 . S
C1222 H1236 0.960 . S
C1223 C1220 1.511 . S
C1223 H1237 0.961 . S
C1223 H1238 0.961 . S
C1223 H1239 0.961 . S
C1224 C1225 1.370 . S
C1224 C1226 1.363 . S
C1224 H1240 0.931 . S
C1225 C1224 1.370 . S
C1225 C1229 1.408 . S
C1226 C1224 1.363 . S
C1226 C1227 1.370 . S
C1226 C1230 1.524 . S
C1227 C1219 1.503 . S
C1227 C1226 1.370 . S
C1227 C1228 1.403 . S
C1228 C1227 1.403 . S
C1228 C1229 1.404 . S
C1228 C1231 1.539 . S
C1229 C1225 1.408 . S
C1229 C1228 1.404 . S
C1229 H1241 0.930 . S
C1230 C1226 1.524 . S
C1230 H1242 0.956 . S
C1230 H1243 0.961 . S
C1230 H1244 0.961 . S
C1231 C1228 1.539 . S
C1231 H1245 0.958 . S
C1231 H1246 0.961 . S
C1231 H1247 0.960 . S
H1232 C1216 0.931 . S
H1233 C1221 0.929 . S
H1234 C1222 0.960 . S
H1235 C1222 0.962 . S
H1236 C1222 0.960 . S
H1237 C1223 0.961 . S
H1238 C1223 0.961 . S
H1239 C1223 0.961 . S
H1240 C1224 0.931 . S
H1241 C1229 0.930 . S
H1242 C1230 0.956 . S
H1243 C1230 0.961 . S
H1244 C1230 0.961 . S
H1245 C1231 0.958 . S
H1246 C1231 0.961 . S
H1247 C1231 0.960 . S
C1248 C1249 1.391 . S
C1248 C1250 1.394 . S
C1248 H1264 0.931 . S
C1249 C1248 1.391 . S
C1249 C1253 1.376 . S
C1250 C1248 1.394 . S
C1250 C1251 1.369 . S
C1250 C1254 1.531 . S
C1251 C1250 1.369 . S
C1251 C1252 1.410 . S
C1251 C1259 1.503 . S
C1252 C1251 1.410 . S
C1252 C1253 1.392 . S
C1252 C1255 1.511 . S
C1253 C1249 1.376 . S
C1253 C1252 1.392 . S
C1253 H1265 0.929 . S
C1254 C1250 1.531 . S
C1254 H1266 0.960 . S
C1254 H1267 0.962 . S
C1254 H1268 0.960 . S
C1255 C1252 1.511 . S
C1255 H1269 0.961 . S
C1255 H1270 0.961 . S
C1255 H1271 0.961 . S
C1256 C1257 1.370 . S
C1256 C1258 1.363 . S
C1256 H1272 0.931 . S
C1257 C1256 1.370 . S
C1257 C1261 1.408 . S
C1258 C1256 1.363 . S
C1258 C1259 1.370 . S
C1258 C1262 1.524 . S
C1259 C1251 1.503 . S
C1259 C1258 1.370 . S
C1259 C1260 1.403 . S
C1260 C1259 1.403 . S
C1260 C1261 1.404 . S
C1260 C1263 1.539 . S
C1261 C1257 1.408 . S
C1261 C1260 1.404 . S
C1261 H1273 0.930 . S
C1262 C1258 1.524 . S
C1262 H1274 0.956 . S
C1262 H1275 0.961 . S
C1262 H1276 0.961 . S
C1263 C1260 1.539 . S
C1263 H1277 0.958 . S
C1263 H1278 0.961 . S
C1263 H1279 0.960 . S
H1264 C1248 0.931 . S
H1265 C1253 0.929 . S
H1266 C1254 0.960 . S
H1267 C1254 0.962 . S
H1268 C1254 0.960 . S
H1269 C1255 0.961 . S
H1270 C1255 0.961 . S
H1271 C1255 0.961 . S
H1272 C1256 0.931 . S
H1273 C1261 0.930 . S
H1274 C1262 0.956 . S
H1275 C1262 0.961 . S
H1276 C1262 0.961 . S
H1277 C1263 0.958 . S
H1278 C1263 0.961 . S
H1279 C1263 0.960 . S
C1280 C1281 1.391 . S
C1280 C1282 1.394 . S
C1280 H1296 0.931 . S
C1281 C1280 1.391 . S
C1281 C1285 1.376 . S
C1282 C1280 1.394 . S
C1282 C1283 1.369 . S
C1282 C1286 1.531 . S
C1283 C1282 1.369 . S
C1283 C1284 1.410 . S
C1283 C1291 1.503 . S
C1284 C1283 1.410 . S
C1284 C1285 1.392 . S
C1284 C1287 1.511 . S
C1285 C1281 1.376 . S
C1285 C1284 1.392 . S
C1285 H1297 0.929 . S
C1286 C1282 1.531 . S
C1286 H1298 0.960 . S
C1286 H1299 0.962 . S
C1286 H1300 0.960 . S
C1287 C1284 1.511 . S
C1287 H1301 0.961 . S
C1287 H1302 0.961 . S
C1287 H1303 0.961 . S
C1288 C1289 1.370 . S
C1288 C1290 1.363 . S
C1288 H1304 0.931 . S
C1289 C1288 1.370 . S
C1289 C1293 1.408 . S
C1290 C1288 1.363 . S
C1290 C1291 1.370 . S
C1290 C1294 1.524 . S
C1291 C1283 1.503 . S
C1291 C1290 1.370 . S
C1291 C1292 1.403 . S
C1292 C1291 1.403 . S
C1292 C1293 1.404 . S
C1292 C1295 1.539 . S
C1293 C1289 1.408 . S
C1293 C1292 1.404 . S
C1293 H1305 0.930 . S
C1294 C1290 1.524 . S
C1294 H1306 0.956 . S
C1294 H1307 0.961 . S
C1294 H1308 0.961 . S
C1295 C1292 1.539 . S
C1295 H1309 0.958 . S
C1295 H1310 0.961 . S
C1295 H1311 0.960 . S
H1296 C1280 0.931 . S
H1297 C1285 0.929 . S
H1298 C1286 0.960 . S
H1299 C1286 0.962 . S
H1300 C1286 0.960 . S
H1301 C1287 0.961 . S
H1302 C1287 0.961 . S
H1303 C1287 0.961 . S
H1304 C1288 0.931 . S
H1305 C1293 0.930 . S
H1306 C1294 0.956 . S
H1307 C1294 0.961 . S
H1308 C1294 0.961 . S
H1309 C1295 0.958 . S
H1310 C1295 0.961 . S
H1311 C1295 0.960 . S
C1312 C1313 1.391 . S
C1312 C1314 1.394 . S
C1312 H1328 0.931 . S
C1313 C1312 1.391 . S
C1313 C1317 1.376 . S
C1314 C1312 1.394 . S
C1314 C1315 1.369 . S
C1314 C1318 1.531 . S
C1315 C1314 1.369 . S
C1315 C1316 1.410 . S
C1315 C1323 1.503 . S
C1316 C1315 1.410 . S
C1316 C1317 1.392 . S
C1316 C1319 1.511 . S
C1317 C1313 1.376 . S
C1317 C1316 1.392 . S
C1317 H1329 0.929 . S
C1318 C1314 1.531 . S
C1318 H1330 0.960 . S
C1318 H1331 0.962 . S
C1318 H1332 0.960 . S
C1319 C1316 1.511 . S
C1319 H1333 0.961 . S
C1319 H1334 0.961 . S
C1319 H1335 0.961 . S
C1320 C1321 1.370 . S
C1320 C1322 1.363 . S
C1320 H1336 0.931 . S
C1321 C1320 1.370 . S
C1321 C1325 1.408 . S
C1322 C1320 1.363 . S
C1322 C1323 1.370 . S
C1322 C1326 1.524 . S
C1323 C1315 1.503 . S
C1323 C1322 1.370 . S
C1323 C1324 1.403 . S
C1324 C1323 1.403 . S
C1324 C1325 1.404 . S
C1324 C1327 1.539 . S
C1325 C1321 1.408 . S
C1325 C1324 1.404 . S
C1325 H1337 0.930 . S
C1326 C1322 1.524 . S
C1326 H1338 0.956 . S
C1326 H1339 0.961 . S
C1326 H1340 0.961 . S
C1327 C1324 1.539 . S
C1327 H1341 0.958 . S
C1327 H1342 0.961 . S
C1327 H1343 0.960 . S
H1328 C1312 0.931 . S
H1329 C1317 0.929 . S
H1330 C1318 0.960 . S
H1331 C1318 0.962 . S
H1332 C1318 0.960 . S
H1333 C1319 0.961 . S
H1334 C1319 0.961 . S
H1335 C1319 0.961 . S
H1336 C1320 0.931 . S
H1337 C1325 0.930 . S
H1338 C1326 0.956 . S
H1339 C1326 0.961 . S
H1340 C1326 0.961 . S
H1341 C1327 0.958 . S
H1342 C1327 0.961 . S
H1343 C1327 0.960 . S
C1344 C1345 1.391 . S
C1344 C1346 1.394 . S
C1344 H1360 0.931 . S
C1345 C1344 1.391 . S
C1345 C1349 1.376 . S
C1346 C1344 1.394 . S
C1346 C1347 1.369 . S
C1346 C1350 1.531 . S
C1347 C1346 1.369 . S
C1347 C1348 1.410 . S
C1347 C1355 1.503 . S
C1348 C1347 1.410 . S
C1348 C1349 1.392 . S
C1348 C1351 1.511 . S
C1349 C1345 1.376 . S
C1349 C1348 1.392 . S
C1349 H1361 0.929 . S
C1350 C1346 1.531 . S
C1350 H1362 0.960 . S
C1350 H1363 0.962 . S
C1350 H1364 0.960 . S
C1351 C1348 1.511 . S
C1351 H1365 0.961 . S
C1351 H1366 0.961 . S
C1351 H1367 0.961 . S
C1352 C1353 1.370 . S
C1352 C1354 1.363 . S
C1352 H1368 0.931 . S
C1353 C1352 1.370 . S
C1353 C1357 1.408 . S
C1354 C1352 1.363 . S
C1354 C1355 1.370 . S
C1354 C1358 1.524 . S
C1355 C1347 1.503 . S
C1355 C1354 1.370 . S
C1355 C1356 1.403 . S
C1356 C1355 1.403 . S
C1356 C1357 1.404 . S
C1356 C1359 1.539 . S
C1357 C1353 1.408 . S
C1357 C1356 1.404 . S
C1357 H1369 0.930 . S
C1358 C1354 1.524 . S
C1358 H1370 0.956 . S
C1358 H1371 0.961 . S
C1358 H1372 0.961 . S
C1359 C1356 1.539 . S
C1359 H1373 0.958 . S
C1359 H1374 0.961 . S
C1359 H1375 0.960 . S
H1360 C1344 0.931 . S
H1361 C1349 0.929 . S
H1362 C1350 0.960 . S
H1363 C1350 0.962 . S
H1364 C1350 0.960 . S
H1365 C1351 0.961 . S
H1366 C1351 0.961 . S
H1367 C1351 0.961 . S
H1368 C1352 0.931 . S
H1369 C1357 0.930 . S
H1370 C1358 0.956 . S
H1371 C1358 0.961 . S
H1372 C1358 0.961 . S
H1373 C1359 0.958 . S
H1374 C1359 0.961 . S
H1375 C1359 0.960 . S
C1376 C1377 1.391 . S
C1376 C1378 1.394 . S
C1376 H1392 0.931 . S
C1377 C1376 1.391 . S
C1377 C1381 1.376 . S
C1378 C1376 1.394 . S
C1378 C1379 1.369 . S
C1378 C1382 1.531 . S
C1379 C1378 1.369 . S
C1379 C1380 1.410 . S
C1379 C1387 1.503 . S
C1380 C1379 1.410 . S
C1380 C1381 1.392 . S
C1380 C1383 1.511 . S
C1381 C1377 1.376 . S
C1381 C1380 1.392 . S
C1381 H1393 0.929 . S
C1382 C1378 1.531 . S
C1382 H1394 0.960 . S
C1382 H1395 0.962 . S
C1382 H1396 0.960 . S
C1383 C1380 1.511 . S
C1383 H1397 0.961 . S
C1383 H1398 0.961 . S
C1383 H1399 0.961 . S
C1384 C1385 1.370 . S
C1384 C1386 1.363 . S
C1384 H1400 0.931 . S
C1385 C1384 1.370 . S
C1385 C1389 1.408 . S
C1386 C1384 1.363 . S
C1386 C1387 1.370 . S
C1386 C1390 1.524 . S
C1387 C1379 1.503 . S
C1387 C1386 1.370 . S
C1387 C1388 1.403 . S
C1388 C1387 1.403 . S
C1388 C1389 1.404 . S
C1388 C1391 1.539 . S
C1389 C1385 1.408 . S
C1389 C1388 1.404 . S
C1389 H1401 0.930 . S
C1390 C1386 1.524 . S
C1390 H1402 0.956 . S
C1390 H1403 0.961 . S
C1390 H1404 0.961 . S
C1391 C1388 1.539 . S
C1391 H1405 0.958 . S
C1391 H1406 0.961 . S
C1391 H1407 0.960 . S
H1392 C1376 0.931 . S
H1393 C1381 0.929 . S
H1394 C1382 0.960 . S
H1395 C1382 0.962 . S
H1396 C1382 0.960 . S
H1397 C1383 0.961 . S
H1398 C1383 0.961 . S
H1399 C1383 0.961 . S
H1400 C1384 0.931 . S
H1401 C1389 0.930 . S
H1402 C1390 0.956 . S
H1403 C1390 0.961 . S
H1404 C1390 0.961 . S
H1405 C1391 0.958 . S
H1406 C1391 0.961 . S
H1407 C1391 0.960 . S
C1408 C1409 1.391 . S
C1408 C1410 1.394 . S
C1408 H1424 0.931 . S
C1409 C1408 1.391 . S
C1409 C1413 1.376 . S
C1410 C1408 1.394 . S
C1410 C1411 1.369 . S
C1410 C1414 1.531 . S
C1411 C1410 1.369 . S
C1411 C1412 1.410 . S
C1411 C1419 1.503 . S
C1412 C1411 1.410 . S
C1412 C1413 1.392 . S
C1412 C1415 1.511 . S
C1413 C1409 1.376 . S
C1413 C1412 1.392 . S
C1413 H1425 0.929 . S
C1414 C1410 1.531 . S
C1414 H1426 0.960 . S
C1414 H1427 0.962 . S
C1414 H1428 0.960 . S
C1415 C1412 1.511 . S
C1415 H1429 0.961 . S
C1415 H1430 0.961 . S
C1415 H1431 0.961 . S
C1416 C1417 1.370 . S
C1416 C1418 1.363 . S
C1416 H1432 0.931 . S
C1417 C1416 1.370 . S
C1417 C1421 1.408 . S
C1418 C1416 1.363 . S
C1418 C1419 1.370 . S
C1418 C1422 1.524 . S
C1419 C1411 1.503 . S
C1419 C1418 1.370 . S
C1419 C1420 1.403 . S
C1420 C1419 1.403 . S
C1420 C1421 1.404 . S
C1420 C1423 1.539 . S
C1421 C1417 1.408 . S
C1421 C1420 1.404 . S
C1421 H1433 0.930 . S
C1422 C1418 1.524 . S
C1422 H1434 0.956 . S
C1422 H1435 0.961 . S
C1422 H1436 0.961 . S
C1423 C1420 1.539 . S
C1423 H1437 0.958 . S
C1423 H1438 0.961 . S
C1423 H1439 0.960 . S
H1424 C1408 0.931 . S
H1425 C1413 0.929 . S
H1426 C1414 0.960 . S
H1427 C1414 0.962 . S
H1428 C1414 0.960 . S
H1429 C1415 0.961 . S
H1430 C1415 0.961 . S
H1431 C1415 0.961 . S
H1432 C1416 0.931 . S
H1433 C1421 0.930 . S
H1434 C1422 0.956 . S
H1435 C1422 0.961 . S
H1436 C1422 0.961 . S
H1437 C1423 0.958 . S
H1438 C1423 0.961 . S
H1439 C1423 0.960 . S
C1440 C1441 1.391 . S
C1440 C1442 1.394 . S
C1440 H1456 0.931 . S
C1441 C1440 1.391 . S
C1441 C1445 1.376 . S
C1442 C1440 1.394 . S
C1442 C1443 1.369 . S
C1442 C1446 1.531 . S
C1443 C1442 1.369 . S
C1443 C1444 1.410 . S
C1443 C1451 1.503 . S
C1444 C1443 1.410 . S
C1444 C1445 1.392 . S
C1444 C1447 1.511 . S
C1445 C1441 1.376 . S
C1445 C1444 1.392 . S
C1445 H1457 0.929 . S
C1446 C1442 1.531 . S
C1446 H1458 0.960 . S
C1446 H1459 0.962 . S
C1446 H1460 0.960 . S
C1447 C1444 1.511 . S
C1447 H1461 0.961 . S
C1447 H1462 0.961 . S
C1447 H1463 0.961 . S
C1448 C1449 1.370 . S
C1448 C1450 1.363 . S
C1448 H1464 0.931 . S
C1449 C1448 1.370 . S
C1449 C1453 1.408 . S
C1450 C1448 1.363 . S
C1450 C1451 1.370 . S
C1450 C1454 1.524 . S
C1451 C1443 1.503 . S
C1451 C1450 1.370 . S
C1451 C1452 1.403 . S
C1452 C1451 1.403 . S
C1452 C1453 1.404 . S
C1452 C1455 1.539 . S
C1453 C1449 1.408 . S
C1453 C1452 1.404 . S
C1453 H1465 0.930 . S
C1454 C1450 1.524 . S
C1454 H1466 0.956 . S
C1454 H1467 0.961 . S
C1454 H1468 0.961 . S
C1455 C1452 1.539 . S
C1455 H1469 0.958 . S
C1455 H1470 0.961 . S
C1455 H1471 0.960 . S
H1456 C1440 0.931 . S
H1457 C1445 0.929 . S
H1458 C1446 0.960 . S
H1459 C1446 0.962 . S
H1460 C1446 0.960 . S
H1461 C1447 0.961 . S
H1462 C1447 0.961 . S
H1463 C1447 0.961 . S
H1464 C1448 0.931 . S
H1465 C1453 0.930 . S
H1466 C1454 0.956 . S
H1467 C1454 0.961 . S
H1468 C1454 0.961 . S
H1469 C1455 0.958 . S
H1470 C1455 0.961 . S
H1471 C1455 0.960 . S
C1472 C1473 1.391 . S
C1472 C1474 1.394 . S
C1472 H1488 0.931 . S
C1473 C1472 1.391 . S
C1473 C1477 1.376 . S
C1474 C1472 1.394 . S
C1474 C1475 1.369 . S
C1474 C1478 1.531 . S
C1475 C1474 1.369 . S
C1475 C1476 1.410 . S
C1475 C1483 1.503 1_556 S
C1476 C1475 1.410 . S
C1476 C1477 1.392 . S
C1476 C1479 1.511 . S
C1477 C1473 1.376 . S
C1477 C1476 1.392 . S
C1477 H1489 0.929 . S
C1478 C1474 1.531 . S
C1478 H1490 0.965 . S
C1478 H1491 0.962 . S
C1478 H1492 0.960 . S
C1479 C1476 1.511 . S
C1479 H1493 0.961 . S
C1479 H1494 0.942 1_556 S
C1479 H1495 0.961 . S
C1480 C1481 1.370 . S
C1480 C1482 1.363 . S
C1480 H1496 0.931 . S
C1481 C1480 1.370 . S
C1481 C1485 1.408 . S
C1482 C1480 1.363 . S
C1482 C1483 1.370 . S
C1482 C1486 1.524 . S
C1483 C1475 1.503 1_554 S
C1483 C1482 1.370 . S
C1483 C1484 1.403 . S
C1484 C1483 1.403 . S
C1484 C1485 1.404 . S
C1484 C1487 1.539 . S
C1485 C1481 1.408 . S
C1485 C1484 1.404 . S
C1485 H1497 0.930 . S
C1486 C1482 1.524 . S
C1486 H1498 0.980 . S
C1486 H1499 0.961 1_554 S
C1486 H1500 0.961 . S
C1487 C1484 1.539 . S
C1487 H1501 0.958 . S
C1487 H1502 0.961 . S
C1487 H1503 0.960 1_554 S
H1488 C1472 0.931 . S
H1489 C1477 0.929 . S
H1490 C1478 0.965 . S
H1491 C1478 0.962 . S
H1492 C1478 0.960 . S
H1493 C1479 0.961 . S
H1494 C1479 0.942 1_554 S
H1495 C1479 0.961 . S
H1496 C1480 0.931 . S
H1497 C1485 0.930 . S
H1498 C1486 0.980 . S
H1499 C1486 0.961 1_556 S
H1500 C1486 0.961 . S
H1501 C1487 0.958 . S
H1502 C1487 0.961 . S
H1503 C1487 0.960 1_556 S
C1504 C1505 1.391 . S
C1504 C1506 1.394 . S
C1504 H1520 0.931 . S
C1505 C1504 1.391 . S
C1505 C1509 1.376 . S
C1506 C1504 1.394 . S
C1506 C1507 1.369 . S
C1506 C1510 1.531 . S
C1507 C1506 1.369 . S
C1507 C1508 1.410 . S
C1507 C1515 1.503 . S
C1508 C1507 1.410 . S
C1508 C1509 1.392 . S
C1508 C1511 1.511 . S
C1509 C1505 1.376 . S
C1509 C1508 1.392 . S
C1509 H1521 0.929 . S
C1510 C1506 1.531 . S
C1510 H1522 0.960 . S
C1510 H1523 0.962 . S
C1510 H1524 0.960 . S
C1511 C1508 1.511 . S
C1511 H1525 0.961 . S
C1511 H1526 0.961 . S
C1511 H1527 0.961 . S
C1512 C1513 1.370 . S
C1512 C1514 1.363 . S
C1512 H1528 0.931 . S
C1513 C1512 1.370 . S
C1513 C1517 1.408 . S
C1514 C1512 1.363 . S
C1514 C1515 1.370 . S
C1514 C1518 1.524 . S
C1515 C1507 1.503 . S
C1515 C1514 1.370 . S
C1515 C1516 1.403 . S
C1516 C1515 1.403 . S
C1516 C1517 1.404 . S
C1516 C1519 1.539 . S
C1517 C1513 1.408 . S
C1517 C1516 1.404 . S
C1517 H1529 0.930 . S
C1518 C1514 1.524 . S
C1518 H1530 0.956 . S
C1518 H1531 0.961 . S
C1518 H1532 0.961 . S
C1519 C1516 1.539 . S
C1519 H1533 0.958 . S
C1519 H1534 0.961 . S
C1519 H1535 0.960 . S
H1520 C1504 0.931 . S
H1521 C1509 0.929 . S
H1522 C1510 0.960 . S
H1523 C1510 0.962 . S
H1524 C1510 0.960 . S
H1525 C1511 0.961 . S
H1526 C1511 0.961 . S
H1527 C1511 0.961 . S
H1528 C1512 0.931 . S
H1529 C1517 0.930 . S
H1530 C1518 0.956 . S
H1531 C1518 0.961 . S
H1532 C1518 0.961 . S
H1533 C1519 0.958 . S
H1534 C1519 0.961 . S
H1535 C1519 0.960 . S
C1536 C1537 1.391 . S
C1536 C1538 1.394 . S
C1536 H1552 0.931 . S
C1537 C1536 1.391 . S
C1537 C1541 1.376 . S
C1538 C1536 1.394 . S
C1538 C1539 1.369 . S
C1538 C1542 1.531 . S
C1539 C1538 1.369 . S
C1539 C1540 1.410 . S
C1539 C1547 1.503 1_556 S
C1540 C1539 1.410 . S
C1540 C1541 1.392 . S
C1540 C1543 1.511 . S
C1541 C1537 1.376 . S
C1541 C1540 1.392 . S
C1541 H1553 0.929 . S
C1542 C1538 1.531 . S
C1542 H1554 0.960 1_556 S
C1542 H1555 0.962 . S
C1542 H1556 0.960 . S
C1543 C1540 1.511 . S
C1543 H1557 0.961 . S
C1543 H1558 0.986 . S
C1543 H1559 0.961 . S
C1544 C1545 1.370 . S
C1544 C1546 1.363 . S
C1544 H1560 0.931 . S
C1545 C1544 1.370 . S
C1545 C1549 1.408 . S
C1546 C1544 1.363 . S
C1546 C1547 1.370 . S
C1546 C1550 1.524 . S
C1547 C1539 1.503 1_554 S
C1547 C1546 1.370 . S
C1547 C1548 1.403 . S
C1548 C1547 1.403 . S
C1548 C1549 1.404 . S
C1548 C1551 1.539 . S
C1549 C1545 1.408 . S
C1549 C1548 1.404 . S
C1549 H1561 0.930 . S
C1550 C1546 1.524 . S
C1550 H1562 0.956 1_554 S
C1550 H1563 0.961 1_554 S
C1550 H1564 0.961 . S
C1551 C1548 1.539 . S
C1551 H1565 0.958 . S
C1551 H1566 0.961 . S
C1551 H1567 0.947 1_554 S
H1552 C1536 0.931 . S
H1553 C1541 0.929 . S
H1554 C1542 0.960 1_554 S
H1555 C1542 0.962 . S
H1556 C1542 0.960 . S
H1557 C1543 0.961 . S
H1558 C1543 0.986 . S
H1559 C1543 0.961 . S
H1560 C1544 0.931 . S
H1561 C1549 0.930 . S
H1562 C1550 0.956 1_556 S
H1563 C1550 0.961 1_556 S
H1564 C1550 0.961 . S
H1565 C1551 0.958 . S
H1566 C1551 0.961 . S
H1567 C1551 0.947 1_556 S
C1568 C1569 1.391 . S
C1568 C1570 1.394 . S
C1568 H1584 0.931 . S
C1569 C1568 1.391 . S
C1569 C1573 1.376 . S
C1570 C1568 1.394 . S
C1570 C1571 1.369 . S
C1570 C1574 1.531 . S
C1571 C1570 1.369 . S
C1571 C1572 1.410 . S
C1571 C1579 1.503 . S
C1572 C1571 1.410 . S
C1572 C1573 1.392 . S
C1572 C1575 1.511 . S
C1573 C1569 1.376 . S
C1573 C1572 1.392 . S
C1573 H1585 0.929 . S
C1574 C1570 1.531 . S
C1574 H1586 0.960 . S
C1574 H1587 0.962 . S
C1574 H1588 0.960 . S
C1575 C1572 1.511 . S
C1575 H1589 0.961 . S
C1575 H1590 0.961 . S
C1575 H1591 0.961 . S
C1576 C1577 1.370 . S
C1576 C1578 1.363 . S
C1576 H1592 0.931 . S
C1577 C1576 1.370 . S
C1577 C1581 1.408 . S
C1578 C1576 1.363 . S
C1578 C1579 1.370 . S
C1578 C1582 1.524 . S
C1579 C1571 1.503 . S
C1579 C1578 1.370 . S
C1579 C1580 1.403 . S
C1580 C1579 1.403 . S
C1580 C1581 1.404 . S
C1580 C1583 1.539 . S
C1581 C1577 1.408 . S
C1581 C1580 1.404 . S
C1581 H1593 0.930 . S
C1582 C1578 1.524 . S
C1582 H1594 0.956 . S
C1582 H1595 0.961 . S
C1582 H1596 0.961 . S
C1583 C1580 1.539 . S
C1583 H1597 0.958 . S
C1583 H1598 0.961 . S
C1583 H1599 0.960 . S
H1584 C1568 0.931 . S
H1585 C1573 0.929 . S
H1586 C1574 0.960 . S
H1587 C1574 0.962 . S
H1588 C1574 0.960 . S
H1589 C1575 0.961 . S
H1590 C1575 0.961 . S
H1591 C1575 0.961 . S
H1592 C1576 0.931 . S
H1593 C1581 0.930 . S
H1594 C1582 0.956 . S
H1595 C1582 0.961 . S
H1596 C1582 0.961 . S
H1597 C1583 0.958 . S
H1598 C1583 0.961 . S
H1599 C1583 0.960 . S
C1600 C1601 1.391 . S
C1600 C1602 1.394 . S
C1600 H1616 0.931 . S
C1601 C1600 1.391 . S
C1601 C1605 1.376 . S
C1602 C1600 1.394 . S
C1602 C1603 1.369 . S
C1602 C1606 1.531 . S
C1603 C1602 1.369 . S
C1603 C1604 1.410 . S
C1603 C1611 1.503 1_556 S
C1604 C1603 1.410 . S
C1604 C1605 1.392 . S
C1604 C1607 1.511 . S
C1605 C1601 1.376 . S
C1605 C1604 1.392 . S
C1605 H1617 0.929 . S
C1606 C1602 1.531 . S
C1606 H1618 0.960 1_556 S
C1606 H1619 0.962 . S
C1606 H1620 0.960 . S
C1607 C1604 1.511 . S
C1607 H1621 0.961 . S
C1607 H1622 0.961 1_556 S
C1607 H1623 0.961 . S
C1608 C1609 1.370 . S
C1608 C1610 1.363 . S
C1608 H1624 0.931 . S
C1609 C1608 1.370 . S
C1609 C1613 1.408 . S
C1610 C1608 1.363 . S
C1610 C1611 1.370 . S
C1610 C1614 1.524 . S
C1611 C1603 1.503 1_554 S
C1611 C1610 1.370 . S
C1611 C1612 1.403 . S
C1612 C1611 1.403 . S
C1612 C1613 1.404 . S
C1612 C1615 1.539 . S
C1613 C1609 1.408 . S
C1613 C1612 1.404 . S
C1613 H1625 0.930 . S
C1614 C1610 1.524 . S
C1614 H1626 0.956 . S
C1614 H1627 0.961 . S
C1614 H1628 0.961 . S
C1615 C1612 1.539 . S
C1615 H1629 0.958 . S
C1615 H1630 0.961 . S
C1615 H1631 0.960 . S
H1616 C1600 0.931 . S
H1617 C1605 0.929 . S
H1618 C1606 0.960 1_554 S
H1619 C1606 0.962 . S
H1620 C1606 0.960 . S
H1621 C1607 0.961 . S
H1622 C1607 0.961 1_554 S
H1623 C1607 0.961 . S
H1624 C1608 0.931 . S
H1625 C1613 0.930 . S
H1626 C1614 0.956 . S
H1627 C1614 0.961 . S
H1628 C1614 0.961 . S
H1629 C1615 0.958 . S
H1630 C1615 0.961 . S
H1631 C1615 0.960 . S
C1632 C1633 1.391 . S
C1632 C1634 1.394 . S
C1632 H1648 0.931 . S
C1633 C1632 1.391 . S
C1633 C1637 1.376 . S
C1634 C1632 1.394 . S
C1634 C1635 1.369 . S
C1634 C1638 1.531 . S
C1635 C1634 1.369 . S
C1635 C1636 1.410 . S
C1635 C1643 1.503 . S
C1636 C1635 1.410 . S
C1636 C1637 1.392 . S
C1636 C1639 1.511 . S
C1637 C1633 1.376 . S
C1637 C1636 1.392 . S
C1637 H1649 0.929 . S
C1638 C1634 1.531 . S
C1638 H1650 0.960 . S
C1638 H1651 0.962 . S
C1638 H1652 0.960 . S
C1639 C1636 1.511 . S
C1639 H1653 0.961 . S
C1639 H1654 0.961 . S
C1639 H1655 0.961 . S
C1640 C1641 1.370 . S
C1640 C1642 1.363 . S
C1640 H1656 0.931 . S
C1641 C1640 1.370 . S
C1641 C1645 1.408 . S
C1642 C1640 1.363 . S
C1642 C1643 1.370 . S
C1642 C1646 1.524 . S
C1643 C1635 1.503 . S
C1643 C1642 1.370 . S
C1643 C1644 1.403 . S
C1644 C1643 1.403 . S
C1644 C1645 1.404 . S
C1644 C1647 1.539 . S
C1645 C1641 1.408 . S
C1645 C1644 1.404 . S
C1645 H1657 0.930 . S
C1646 C1642 1.524 . S
C1646 H1658 0.956 . S
C1646 H1659 0.961 . S
C1646 H1660 0.961 . S
C1647 C1644 1.539 . S
C1647 H1661 0.958 . S
C1647 H1662 0.961 . S
C1647 H1663 0.960 . S
H1648 C1632 0.931 . S
H1649 C1637 0.929 . S
H1650 C1638 0.960 . S
H1651 C1638 0.962 . S
H1652 C1638 0.960 . S
H1653 C1639 0.961 . S
H1654 C1639 0.961 . S
H1655 C1639 0.961 . S
H1656 C1640 0.931 . S
H1657 C1645 0.930 . S
H1658 C1646 0.956 . S
H1659 C1646 0.961 . S
H1660 C1646 0.961 . S
H1661 C1647 0.958 . S
H1662 C1647 0.961 . S
H1663 C1647 0.960 . S
C1664 C1665 1.391 . S
C1664 C1666 1.394 . S
C1664 H1680 0.931 . S
C1665 C1664 1.391 . S
C1665 C1669 1.376 . S
C1666 C1664 1.394 . S
C1666 C1667 1.369 . S
C1666 C1670 1.531 . S
C1667 C1666 1.369 . S
C1667 C1668 1.410 . S
C1667 C1675 1.503 1_556 S
C1668 C1667 1.410 . S
C1668 C1669 1.392 . S
C1668 C1671 1.511 . S
C1669 C1665 1.376 . S
C1669 C1668 1.392 . S
C1669 H1681 0.929 . S
C1670 C1666 1.531 . S
C1670 H1682 0.960 1_556 S
C1670 H1683 0.962 . S
C1670 H1684 0.960 . S
C1671 C1668 1.511 . S
C1671 H1685 0.961 . S
C1671 H1686 0.961 1_556 S
C1671 H1687 0.961 . S
C1672 C1673 1.370 . S
C1672 C1674 1.363 . S
C1672 H1688 0.931 . S
C1673 C1672 1.370 . S
C1673 C1677 1.408 . S
C1674 C1672 1.363 . S
C1674 C1675 1.370 . S
C1674 C1678 1.524 . S
C1675 C1667 1.503 1_554 S
C1675 C1674 1.370 . S
C1675 C1676 1.403 . S
C1676 C1675 1.403 . S
C1676 C1677 1.404 . S
C1676 C1679 1.539 . S
C1677 C1673 1.408 . S
C1677 C1676 1.404 . S
C1677 H1689 0.930 . S
C1678 C1674 1.524 . S
C1678 H1690 0.956 . S
C1678 H1691 0.961 . S
C1678 H1692 0.961 . S
C1679 C1676 1.539 . S
C1679 H1693 0.958 . S
C1679 H1694 0.961 . S
C1679 H1695 0.960 . S
H1680 C1664 0.931 . S
H1681 C1669 0.929 . S
H1682 C1670 0.960 1_554 S
H1683 C1670 0.962 . S
H1684 C1670 0.960 . S
H1685 C1671 0.961 . S
H1686 C1671 0.961 1_554 S
H1687 C1671 0.961 . S
H1688 C1672 0.931 . S
H1689 C1677 0.930 . S
H1690 C1678 0.956 . S
H1691 C1678 0.961 . S
H1692 C1678 0.961 . S
H1693 C1679 0.958 . S
H1694 C1679 0.961 . S
H1695 C1679 0.960 . S
C1696 C1697 1.391 . S
C1696 C1698 1.394 . S
C1696 H1712 0.931 . S
C1697 C1696 1.391 . S
C1697 C1701 1.376 . S
C1698 C1696 1.394 . S
C1698 C1699 1.369 . S
C1698 C1702 1.531 . S
C1699 C1698 1.369 . S
C1699 C1700 1.410 . S
C1699 C1707 1.503 . S
C1700 C1699 1.410 . S
C1700 C1701 1.392 . S
C1700 C1703 1.511 . S
C1701 C1697 1.376 . S
C1701 C1700 1.392 . S
C1701 H1713 0.929 . S
C1702 C1698 1.531 . S
C1702 H1714 0.960 . S
C1702 H1715 0.962 . S
C1702 H1716 0.960 . S
C1703 C1700 1.511 . S
C1703 H1717 0.961 . S
C1703 H1718 0.961 . S
C1703 H1719 0.961 . S
C1704 C1705 1.370 . S
C1704 C1706 1.363 . S
C1704 H1720 0.931 . S
C1705 C1704 1.370 . S
C1705 C1709 1.408 . S
C1706 C1704 1.363 . S
C1706 C1707 1.370 . S
C1706 C1710 1.524 . S
C1707 C1699 1.503 . S
C1707 C1706 1.370 . S
C1707 C1708 1.403 . S
C1708 C1707 1.403 . S
C1708 C1709 1.404 . S
C1708 C1711 1.539 . S
C1709 C1705 1.408 . S
C1709 C1708 1.404 . S
C1709 H1721 0.930 . S
C1710 C1706 1.524 . S
C1710 H1722 0.956 . S
C1710 H1723 0.961 . S
C1710 H1724 0.961 . S
C1711 C1708 1.539 . S
C1711 H1725 0.958 . S
C1711 H1726 0.961 . S
C1711 H1727 0.960 . S
H1712 C1696 0.931 . S
H1713 C1701 0.929 . S
H1714 C1702 0.960 . S
H1715 C1702 0.962 . S
H1716 C1702 0.960 . S
H1717 C1703 0.961 . S
H1718 C1703 0.961 . S
H1719 C1703 0.961 . S
H1720 C1704 0.931 . S
H1721 C1709 0.930 . S
H1722 C1710 0.956 . S
H1723 C1710 0.961 . S
H1724 C1710 0.961 . S
H1725 C1711 0.958 . S
H1726 C1711 0.961 . S
H1727 C1711 0.960 . S
C1728 C1729 1.391 . S
C1728 C1730 1.394 . S
C1728 H1744 0.931 . S
C1729 C1728 1.391 . S
C1729 C1733 1.376 . S
C1730 C1728 1.394 . S
C1730 C1731 1.369 . S
C1730 C1734 1.531 . S
C1731 C1730 1.369 . S
C1731 C1732 1.410 . S
C1731 C1739 1.503 1_565 S
C1732 C1731 1.410 . S
C1732 C1733 1.392 . S
C1732 C1735 1.511 . S
C1733 C1729 1.376 . S
C1733 C1732 1.392 . S
C1733 H1745 0.929 . S
C1734 C1730 1.531 . S
C1734 H1746 0.960 . S
C1734 H1747 0.962 . S
C1734 H1748 0.960 . S
C1735 C1732 1.511 . S
C1735 H1749 0.961 . S
C1735 H1750 0.961 . S
C1735 H1751 0.961 . S
C1736 C1737 1.370 . S
C1736 C1738 1.363 . S
C1736 H1752 0.931 . S
C1737 C1736 1.370 . S
C1737 C1741 1.408 . S
C1738 C1736 1.363 . S
C1738 C1739 1.370 . S
C1738 C1742 1.524 . S
C1739 C1731 1.503 1_545 S
C1739 C1738 1.370 . S
C1739 C1740 1.403 . S
C1740 C1739 1.403 . S
C1740 C1741 1.404 . S
C1740 C1743 1.539 . S
C1741 C1737 1.408 . S
C1741 C1740 1.404 . S
C1741 H1753 0.930 . S
C1742 C1738 1.524 . S
C1742 H1754 0.956 1_545 S
C1742 H1755 0.961 1_545 S
C1742 H1756 0.961 . S
C1743 C1740 1.539 . S
C1743 H1757 0.958 . S
C1743 H1758 0.961 . S
C1743 H1759 0.960 1_545 S
H1744 C1728 0.931 . S
H1745 C1733 0.929 . S
H1746 C1734 0.960 . S
H1747 C1734 0.962 . S
H1748 C1734 0.960 . S
H1749 C1735 0.961 . S
H1750 C1735 0.961 . S
H1751 C1735 0.961 . S
H1752 C1736 0.931 . S
H1753 C1741 0.930 . S
H1754 C1742 0.956 1_565 S
H1755 C1742 0.961 1_565 S
H1756 C1742 0.961 . S
H1757 C1743 0.958 . S
H1758 C1743 0.961 . S
H1759 C1743 0.960 1_565 S
C1760 C1761 1.391 . S
C1760 C1762 1.394 . S
C1760 H1776 0.931 . S
C1761 C1760 1.391 . S
C1761 C1765 1.376 . S
C1762 C1760 1.394 . S
C1762 C1763 1.369 . S
C1762 C1766 1.531 . S
C1763 C1762 1.369 . S
C1763 C1764 1.410 . S
C1763 C1771 1.503 . S
C1764 C1763 1.410 . S
C1764 C1765 1.392 . S
C1764 C1767 1.511 . S
C1765 C1761 1.376 . S
C1765 C1764 1.392 . S
C1765 H1777 0.929 . S
C1766 C1762 1.531 . S
C1766 H1778 0.960 . S
C1766 H1779 0.962 . S
C1766 H1780 0.960 . S
C1767 C1764 1.511 . S
C1767 H1781 0.961 . S
C1767 H1782 0.961 . S
C1767 H1783 0.961 . S
C1768 C1769 1.370 . S
C1768 C1770 1.363 . S
C1768 H1784 0.931 . S
C1769 C1768 1.370 . S
C1769 C1773 1.408 . S
C1770 C1768 1.363 . S
C1770 C1771 1.370 . S
C1770 C1774 1.524 . S
C1771 C1763 1.503 . S
C1771 C1770 1.370 . S
C1771 C1772 1.403 . S
C1772 C1771 1.403 . S
C1772 C1773 1.404 . S
C1772 C1775 1.539 . S
C1773 C1769 1.408 . S
C1773 C1772 1.404 . S
C1773 H1785 0.930 . S
C1774 C1770 1.524 . S
C1774 H1786 0.956 . S
C1774 H1787 0.961 . S
C1774 H1788 0.961 . S
C1775 C1772 1.539 . S
C1775 H1789 0.958 . S
C1775 H1790 0.961 . S
C1775 H1791 0.960 . S
H1776 C1760 0.931 . S
H1777 C1765 0.929 . S
H1778 C1766 0.960 . S
H1779 C1766 0.962 . S
H1780 C1766 0.960 . S
H1781 C1767 0.961 . S
H1782 C1767 0.961 . S
H1783 C1767 0.961 . S
H1784 C1768 0.931 . S
H1785 C1773 0.930 . S
H1786 C1774 0.956 . S
H1787 C1774 0.961 . S
H1788 C1774 0.961 . S
H1789 C1775 0.958 . S
H1790 C1775 0.961 . S
H1791 C1775 0.960 . S
C1792 C1793 1.391 . S
C1792 C1794 1.394 . S
C1792 H1808 0.931 . S
C1793 C1792 1.391 . S
C1793 C1797 1.376 . S
C1794 C1792 1.394 . S
C1794 C1795 1.369 . S
C1794 C1798 1.531 . S
C1795 C1794 1.369 . S
C1795 C1796 1.410 . S
C1795 C1803 1.503 1_545 S
C1796 C1795 1.410 . S
C1796 C1797 1.392 . S
C1796 C1799 1.511 . S
C1797 C1793 1.376 . S
C1797 C1796 1.392 . S
C1797 H1809 0.929 . S
C1798 C1794 1.531 . S
C1798 H1810 0.960 . S
C1798 H1811 0.962 . S
C1798 H1812 0.960 . S
C1799 C1796 1.511 . S
C1799 H1813 0.961 . S
C1799 H1814 0.961 . S
C1799 H1815 0.961 . S
C1800 C1801 1.370 . S
C1800 C1802 1.363 . S
C1800 H1816 0.931 . S
C1801 C1800 1.370 . S
C1801 C1805 1.408 . S
C1802 C1800 1.363 . S
C1802 C1803 1.370 . S
C1802 C1806 1.524 . S
C1803 C1795 1.503 1_565 S
C1803 C1802 1.370 . S
C1803 C1804 1.403 . S
C1804 C1803 1.403 . S
C1804 C1805 1.404 . S
C1804 C1807 1.539 . S
C1805 C1801 1.408 . S
C1805 C1804 1.404 . S
C1805 H1817 0.930 . S
C1806 C1802 1.524 . S
C1806 H1818 0.956 1_565 S
C1806 H1819 0.961 1_565 S
C1806 H1820 0.961 . S
C1807 C1804 1.539 . S
C1807 H1821 0.958 . S
C1807 H1822 0.961 . S
C1807 H1823 0.960 1_565 S
H1808 C1792 0.931 . S
H1809 C1797 0.929 . S
H1810 C1798 0.960 . S
H1811 C1798 0.962 . S
H1812 C1798 0.960 . S
H1813 C1799 0.961 . S
H1814 C1799 0.961 . S
H1815 C1799 0.961 . S
H1816 C1800 0.931 . S
H1817 C1805 0.930 . S
H1818 C1806 0.956 1_545 S
H1819 C1806 0.961 1_545 S
H1820 C1806 0.961 . S
H1821 C1807 0.958 . S
H1822 C1807 0.961 . S
H1823 C1807 0.960 1_545 S
C1824 C1825 1.391 . S
C1824 C1826 1.394 . S
C1824 H1840 0.931 . S
C1825 C1824 1.391 . S
C1825 C1829 1.376 . S
C1826 C1824 1.394 . S
C1826 C1827 1.369 . S
C1826 C1830 1.531 . S
C1827 C1826 1.369 . S
C1827 C1828 1.410 . S
C1827 C1835 1.503 . S
C1828 C1827 1.410 . S
C1828 C1829 1.392 . S
C1828 C1831 1.511 . S
C1829 C1825 1.376 . S
C1829 C1828 1.392 . S
C1829 H1841 0.929 . S
C1830 C1826 1.531 . S
C1830 H1842 0.960 . S
C1830 H1843 0.962 . S
C1830 H1844 0.960 . S
C1831 C1828 1.511 . S
C1831 H1845 0.961 . S
C1831 H1846 0.961 . S
C1831 H1847 0.961 . S
C1832 C1833 1.370 . S
C1832 C1834 1.363 . S
C1832 H1848 0.931 . S
C1833 C1832 1.370 . S
C1833 C1837 1.408 . S
C1834 C1832 1.363 . S
C1834 C1835 1.370 . S
C1834 C1838 1.524 . S
C1835 C1827 1.503 . S
C1835 C1834 1.370 . S
C1835 C1836 1.403 . S
C1836 C1835 1.403 . S
C1836 C1837 1.404 . S
C1836 C1839 1.539 . S
C1837 C1833 1.408 . S
C1837 C1836 1.404 . S
C1837 H1849 0.930 . S
C1838 C1834 1.524 . S
C1838 H1850 0.956 . S
C1838 H1851 0.961 . S
C1838 H1852 0.961 . S
C1839 C1836 1.539 . S
C1839 H1853 0.958 . S
C1839 H1854 0.961 . S
C1839 H1855 0.960 . S
H1840 C1824 0.931 . S
H1841 C1829 0.929 . S
H1842 C1830 0.960 . S
H1843 C1830 0.962 . S
H1844 C1830 0.960 . S
H1845 C1831 0.961 . S
H1846 C1831 0.961 . S
H1847 C1831 0.961 . S
H1848 C1832 0.931 . S
H1849 C1837 0.930 . S
H1850 C1838 0.956 . S
H1851 C1838 0.961 . S
H1852 C1838 0.961 . S
H1853 C1839 0.958 . S
H1854 C1839 0.961 . S
H1855 C1839 0.960 . S
C1856 C1857 1.391 . S
C1856 C1858 1.394 . S
C1856 H1872 0.931 . S
C1857 C1856 1.391 . S
C1857 C1861 1.376 . S
C1858 C1856 1.394 . S
C1858 C1859 1.369 . S
C1858 C1862 1.531 . S
C1859 C1858 1.369 . S
C1859 C1860 1.410 . S
C1859 C1867 1.503 1_565 S
C1860 C1859 1.410 . S
C1860 C1861 1.392 . S
C1860 C1863 1.511 . S
C1861 C1857 1.376 . S
C1861 C1860 1.392 . S
C1861 H1873 0.929 . S
C1862 C1858 1.531 . S
C1862 H1874 0.960 1_565 S
C1862 H1875 0.962 . S
C1862 H1876 0.960 . S
C1863 C1860 1.511 . S
C1863 H1877 0.961 . S
C1863 H1878 0.927 1_565 S
C1863 H1879 0.961 . S
C1864 C1865 1.370 . S
C1864 C1866 1.363 . S
C1864 H1880 0.931 . S
C1865 C1864 1.370 . S
C1865 C1869 1.408 . S
C1866 C1864 1.363 . S
C1866 C1867 1.370 . S
C1866 C1870 1.524 . S
C1867 C1859 1.503 1_545 S
C1867 C1866 1.370 . S
C1867 C1868 1.403 . S
C1868 C1867 1.403 . S
C1868 C1869 1.404 . S
C1868 C1871 1.539 . S
C1869 C1865 1.408 . S
C1869 C1868 1.404 . S
C1869 H1881 0.930 . S
C1870 C1866 1.524 . S
C1870 H1882 0.956 . S
C1870 H1883 0.932 1_545 S
C1870 H1884 0.961 . S
C1871 C1868 1.539 . S
C1871 H1885 0.958 . S
C1871 H1886 0.961 . S
C1871 H1887 0.918 1_545 S
H1872 C1856 0.931 . S
H1873 C1861 0.929 . S
H1874 C1862 0.960 1_545 S
H1875 C1862 0.962 . S
H1876 C1862 0.960 . S
H1877 C1863 0.961 . S
H1878 C1863 0.927 1_545 S
H1879 C1863 0.961 . S
H1880 C1864 0.931 . S
H1881 C1869 0.930 . S
H1882 C1870 0.956 . S
H1883 C1870 0.932 1_565 S
H1884 C1870 0.961 . S
H1885 C1871 0.958 . S
H1886 C1871 0.961 . S
H1887 C1871 0.918 1_565 S
C1888 C1889 1.391 . S
C1888 C1890 1.394 . S
C1888 H1904 0.931 . S
C1889 C1888 1.391 . S
C1889 C1893 1.376 . S
C1890 C1888 1.394 . S
C1890 C1891 1.369 . S
C1890 C1894 1.531 . S
C1891 C1890 1.369 . S
C1891 C1892 1.410 . S
C1891 C1899 1.503 . S
C1892 C1891 1.410 . S
C1892 C1893 1.392 . S
C1892 C1895 1.511 . S
C1893 C1889 1.376 . S
C1893 C1892 1.392 . S
C1893 H1905 0.929 . S
C1894 C1890 1.531 . S
C1894 H1906 0.960 . S
C1894 H1907 0.962 . S
C1894 H1908 0.960 . S
C1895 C1892 1.511 . S
C1895 H1909 0.961 . S
C1895 H1910 0.961 . S
C1895 H1911 0.961 . S
C1896 C1897 1.370 . S
C1896 C1898 1.363 . S
C1896 H1912 0.931 . S
C1897 C1896 1.370 . S
C1897 C1901 1.408 . S
C1898 C1896 1.363 . S
C1898 C1899 1.370 . S
C1898 C1902 1.524 . S
C1899 C1891 1.503 . S
C1899 C1898 1.370 . S
C1899 C1900 1.403 . S
C1900 C1899 1.403 . S
C1900 C1901 1.404 . S
C1900 C1903 1.539 . S
C1901 C1897 1.408 . S
C1901 C1900 1.404 . S
C1901 H1913 0.930 . S
C1902 C1898 1.524 . S
C1902 H1914 0.956 . S
C1902 H1915 0.961 . S
C1902 H1916 0.961 . S
C1903 C1900 1.539 . S
C1903 H1917 0.958 . S
C1903 H1918 0.961 . S
C1903 H1919 0.960 . S
H1904 C1888 0.931 . S
H1905 C1893 0.929 . S
H1906 C1894 0.960 . S
H1907 C1894 0.962 . S
H1908 C1894 0.960 . S
H1909 C1895 0.961 . S
H1910 C1895 0.961 . S
H1911 C1895 0.961 . S
H1912 C1896 0.931 . S
H1913 C1901 0.930 . S
H1914 C1902 0.956 . S
H1915 C1902 0.961 . S
H1916 C1902 0.961 . S
H1917 C1903 0.958 . S
H1918 C1903 0.961 . S
H1919 C1903 0.960 . S
C1920 C1921 1.391 . S
C1920 C1922 1.394 . S
C1920 H1936 0.931 . S
C1921 C1920 1.391 . S
C1921 C1925 1.376 . S
C1922 C1920 1.394 . S
C1922 C1923 1.369 . S
C1922 C1926 1.531 . S
C1923 C1922 1.369 . S
C1923 C1924 1.410 . S
C1923 C1931 1.503 1_565 S
C1924 C1923 1.410 . S
C1924 C1925 1.392 . S
C1924 C1927 1.511 . S
C1925 C1921 1.376 . S
C1925 C1924 1.392 . S
C1925 H1937 0.929 . S
C1926 C1922 1.531 . S
C1926 H1938 0.968 . S
C1926 H1939 0.962 . S
C1926 H1940 0.960 . S
C1927 C1924 1.511 . S
C1927 H1941 0.961 . S
C1927 H1942 0.961 1_565 S
C1927 H1943 0.961 . S
C1928 C1929 1.370 . S
C1928 C1930 1.363 . S
C1928 H1944 0.931 . S
C1929 C1928 1.370 . S
C1929 C1933 1.408 . S
C1930 C1928 1.363 . S
C1930 C1931 1.370 . S
C1930 C1934 1.524 . S
C1931 C1923 1.503 1_545 S
C1931 C1930 1.370 . S
C1931 C1932 1.403 . S
C1932 C1931 1.403 . S
C1932 C1933 1.404 . S
C1932 C1935 1.539 . S
C1933 C1929 1.408 . S
C1933 C1932 1.404 . S
C1933 H1945 0.930 . S
C1934 C1930 1.524 . S
C1934 H1946 0.958 . S
C1934 H1947 0.936 1_545 S
C1934 H1948 0.961 . S
C1935 C1932 1.539 . S
C1935 H1949 0.958 . S
C1935 H1950 0.961 . S
C1935 H1951 0.979 . S
H1936 C1920 0.931 . S
H1937 C1925 0.929 . S
H1938 C1926 0.968 . S
H1939 C1926 0.962 . S
H1940 C1926 0.960 . S
H1941 C1927 0.961 . S
H1942 C1927 0.961 1_545 S
H1943 C1927 0.961 . S
H1944 C1928 0.931 . S
H1945 C1933 0.930 . S
H1946 C1934 0.958 . S
H1947 C1934 0.936 1_565 S
H1948 C1934 0.961 . S
H1949 C1935 0.958 . S
H1950 C1935 0.961 . S
H1951 C1935 0.979 . S
C1952 C1953 1.391 . S
C1952 C1954 1.394 . S
C1952 H1968 0.931 . S
C1953 C1952 1.391 . S
C1953 C1957 1.376 . S
C1954 C1952 1.394 . S
C1954 C1955 1.369 . S
C1954 C1958 1.531 . S
C1955 C1954 1.369 . S
C1955 C1956 1.410 . S
C1955 C1963 1.503 . S
C1956 C1955 1.410 . S
C1956 C1957 1.392 . S
C1956 C1959 1.511 . S
C1957 C1953 1.376 . S
C1957 C1956 1.392 . S
C1957 H1969 0.929 . S
C1958 C1954 1.531 . S
C1958 H1970 0.960 . S
C1958 H1971 0.962 . S
C1958 H1972 0.960 . S
C1959 C1956 1.511 . S
C1959 H1973 0.961 . S
C1959 H1974 0.961 . S
C1959 H1975 0.961 . S
C1960 C1961 1.370 . S
C1960 C1962 1.363 . S
C1960 H1976 0.931 . S
C1961 C1960 1.370 . S
C1961 C1965 1.408 . S
C1962 C1960 1.363 . S
C1962 C1963 1.370 . S
C1962 C1966 1.524 . S
C1963 C1955 1.503 . S
C1963 C1962 1.370 . S
C1963 C1964 1.403 . S
C1964 C1963 1.403 . S
C1964 C1965 1.404 . S
C1964 C1967 1.539 . S
C1965 C1961 1.408 . S
C1965 C1964 1.404 . S
C1965 H1977 0.930 . S
C1966 C1962 1.524 . S
C1966 H1978 0.956 . S
C1966 H1979 0.961 . S
C1966 H1980 0.961 . S
C1967 C1964 1.539 . S
C1967 H1981 0.958 . S
C1967 H1982 0.961 . S
C1967 H1983 0.960 . S
H1968 C1952 0.931 . S
H1969 C1957 0.929 . S
H1970 C1958 0.960 . S
H1971 C1958 0.962 . S
H1972 C1958 0.960 . S
H1973 C1959 0.961 . S
H1974 C1959 0.961 . S
H1975 C1959 0.961 . S
H1976 C1960 0.931 . S
H1977 C1965 0.930 . S
H1978 C1966 0.956 . S
H1979 C1966 0.961 . S
H1980 C1966 0.961 . S
H1981 C1967 0.958 . S
H1982 C1967 0.961 . S
H1983 C1967 0.960 . S
C1984 C1985 1.391 . S
C1984 C1986 1.394 . S
C1984 H2000 0.931 . S
C1985 C1984 1.391 . S
C1985 C1989 1.376 . S
C1986 C1984 1.394 . S
C1986 C1987 1.369 . S
C1986 C1990 1.531 . S
C1987 C1986 1.369 . S
C1987 C1988 1.410 . S
C1987 C1995 1.503 . S
C1988 C1987 1.410 . S
C1988 C1989 1.392 . S
C1988 C1991 1.511 . S
C1989 C1985 1.376 . S
C1989 C1988 1.392 . S
C1989 H2001 0.929 . S
C1990 C1986 1.531 . S
C1990 H2002 0.960 . S
C1990 H2003 0.962 . S
C1990 H2004 0.960 . S
C1991 C1988 1.511 . S
C1991 H2005 0.961 . S
C1991 H2006 0.961 . S
C1991 H2007 0.961 . S
C1992 C1993 1.370 . S
C1992 C1994 1.363 . S
C1992 H2008 0.931 . S
C1993 C1992 1.370 . S
C1993 C1997 1.408 . S
C1994 C1992 1.363 . S
C1994 C1995 1.370 . S
C1994 C1998 1.524 . S
C1995 C1987 1.503 . S
C1995 C1994 1.370 . S
C1995 C1996 1.403 . S
C1996 C1995 1.403 . S
C1996 C1997 1.404 . S
C1996 C1999 1.539 . S
C1997 C1993 1.408 . S
C1997 C1996 1.404 . S
C1997 H2009 0.930 . S
C1998 C1994 1.524 . S
C1998 H2010 0.956 . S
C1998 H2011 0.961 . S
C1998 H2012 0.961 . S
C1999 C1996 1.539 . S
C1999 H2013 0.958 . S
C1999 H2014 0.961 . S
C1999 H2015 0.960 . S
H2000 C1984 0.931 . S
H2001 C1989 0.929 . S
H2002 C1990 0.960 . S
H2003 C1990 0.962 . S
H2004 C1990 0.960 . S
H2005 C1991 0.961 . S
H2006 C1991 0.961 . S
H2007 C1991 0.961 . S
H2008 C1992 0.931 . S
H2009 C1997 0.930 . S
H2010 C1998 0.956 . S
H2011 C1998 0.961 . S
H2012 C1998 0.961 . S
H2013 C1999 0.958 . S
H2014 C1999 0.961 . S
H2015 C1999 0.960 . S
C2016 C2017 1.391 . S
C2016 C2018 1.394 . S
C2016 H2032 0.931 . S
C2017 C2016 1.391 . S
C2017 C2021 1.376 . S
C2018 C2016 1.394 . S
C2018 C2019 1.369 . S
C2018 C2022 1.531 . S
C2019 C2018 1.369 . S
C2019 C2020 1.410 . S
C2019 C2027 1.503 . S
C2020 C2019 1.410 . S
C2020 C2021 1.392 . S
C2020 C2023 1.511 . S
C2021 C2017 1.376 . S
C2021 C2020 1.392 . S
C2021 H2033 0.929 . S
C2022 C2018 1.531 . S
C2022 H2034 0.960 . S
C2022 H2035 0.962 . S
C2022 H2036 0.960 . S
C2023 C2020 1.511 . S
C2023 H2037 0.961 . S
C2023 H2038 0.961 . S
C2023 H2039 0.961 . S
C2024 C2025 1.370 . S
C2024 C2026 1.363 1_655 S
C2024 H2040 0.931 . S
C2025 C2024 1.370 . S
C2025 C2029 1.408 . S
C2026 C2024 1.363 1_455 S
C2026 C2027 1.370 . S
C2026 C2030 1.524 . S
C2027 C2019 1.503 . S
C2027 C2026 1.370 . S
C2027 C2028 1.403 . S
C2028 C2027 1.403 . S
C2028 C2029 1.404 1_455 S
C2028 C2031 1.539 . S
C2029 C2025 1.408 . S
C2029 C2028 1.404 1_655 S
C2029 H2041 0.930 . S
C2030 C2026 1.524 . S
C2030 H2042 0.956 . S
C2030 H2043 0.961 . S
C2030 H2044 0.961 . S
C2031 C2028 1.539 . S
C2031 H2045 0.958 . S
C2031 H2046 0.957 . S
C2031 H2047 0.960 . S
H2032 C2016 0.931 . S
H2033 C2021 0.929 . S
H2034 C2022 0.960 . S
H2035 C2022 0.962 . S
H2036 C2022 0.960 . S
H2037 C2023 0.961 . S
H2038 C2023 0.961 . S
H2039 C2023 0.961 . S
H2040 C2024 0.931 . S
H2041 C2029 0.930 . S
H2042 C2030 0.956 . S
H2043 C2030 0.961 . S
H2044 C2030 0.961 . S
H2045 C2031 0.958 . S
H2046 C2031 0.957 . S
H2047 C2031 0.960 . S
C2048 C2049 1.391 . S
C2048 C2050 1.394 . S
C2048 H2064 0.931 . S
C2049 C2048 1.391 . S
C2049 C2053 1.376 . S
C2050 C2048 1.394 . S
C2050 C2051 1.369 . S
C2050 C2054 1.531 . S
C2051 C2050 1.369 . S
C2051 C2052 1.410 . S
C2051 C2059 1.503 . S
C2052 C2051 1.410 . S
C2052 C2053 1.392 . S
C2052 C2055 1.511 . S
C2053 C2049 1.376 . S
C2053 C2052 1.392 . S
C2053 H2065 0.929 . S
C2054 C2050 1.531 . S
C2054 H2066 0.960 . S
C2054 H2067 0.962 . S
C2054 H2068 0.960 . S
C2055 C2052 1.511 . S
C2055 H2069 0.961 . S
C2055 H2070 0.961 . S
C2055 H2071 0.961 . S
C2056 C2057 1.370 . S
C2056 C2058 1.363 . S
C2056 H2072 0.931 . S
C2057 C2056 1.370 . S
C2057 C2061 1.408 . S
C2058 C2056 1.363 . S
C2058 C2059 1.370 . S
C2058 C2062 1.524 . S
C2059 C2051 1.503 . S
C2059 C2058 1.370 . S
C2059 C2060 1.403 . S
C2060 C2059 1.403 . S
C2060 C2061 1.404 . S
C2060 C2063 1.539 . S
C2061 C2057 1.408 . S
C2061 C2060 1.404 . S
C2061 H2073 0.930 . S
C2062 C2058 1.524 . S
C2062 H2074 0.956 . S
C2062 H2075 0.961 . S
C2062 H2076 0.961 . S
C2063 C2060 1.539 . S
C2063 H2077 0.958 . S
C2063 H2078 0.961 . S
C2063 H2079 0.960 . S
H2064 C2048 0.931 . S
H2065 C2053 0.929 . S
H2066 C2054 0.960 . S
H2067 C2054 0.962 . S
H2068 C2054 0.960 . S
H2069 C2055 0.961 . S
H2070 C2055 0.961 . S
H2071 C2055 0.961 . S
H2072 C2056 0.931 . S
H2073 C2061 0.930 . S
H2074 C2062 0.956 . S
H2075 C2062 0.961 . S
H2076 C2062 0.961 . S
H2077 C2063 0.958 . S
H2078 C2063 0.961 . S
H2079 C2063 0.960 . S
C2080 C2081 1.391 . S
C2080 C2082 1.394 1_455 S
C2080 H2096 0.931 . S
C2081 C2080 1.391 . S
C2081 C2085 1.376 . S
C2082 C2080 1.394 1_655 S
C2082 C2083 1.369 . S
C2082 C2086 1.531 . S
C2083 C2082 1.369 . S
C2083 C2084 1.410 . S
C2083 C2091 1.503 . S
C2084 C2083 1.410 . S
C2084 C2085 1.392 1_655 S
C2084 C2087 1.511 . S
C2085 C2081 1.376 . S
C2085 C2084 1.392 1_455 S
C2085 H2097 0.929 . S
C2086 C2082 1.531 . S
C2086 H2098 0.960 . S
C2086 H2099 0.962 . S
C2086 H2100 0.960 . S
C2087 C2084 1.511 . S
C2087 H2101 0.961 . S
C2087 H2102 0.961 . S
C2087 H2103 0.961 . S
C2088 C2089 1.370 . S
C2088 C2090 1.363 . S
C2088 H2104 0.931 . S
C2089 C2088 1.370 . S
C2089 C2093 1.408 . S
C2090 C2088 1.363 . S
C2090 C2091 1.370 . S
C2090 C2094 1.524 . S
C2091 C2083 1.503 . S
C2091 C2090 1.370 . S
C2091 C2092 1.403 . S
C2092 C2091 1.403 . S
C2092 C2093 1.404 . S
C2092 C2095 1.539 . S
C2093 C2089 1.408 . S
C2093 C2092 1.404 . S
C2093 H2105 0.930 . S
C2094 C2090 1.524 . S
C2094 H2106 0.956 . S
C2094 H2107 0.961 . S
C2094 H2108 0.961 . S
C2095 C2092 1.539 . S
C2095 H2109 0.958 . S
C2095 H2110 0.961 . S
C2095 H2111 0.960 . S
H2096 C2080 0.931 . S
H2097 C2085 0.929 . S
H2098 C2086 0.960 . S
H2099 C2086 0.962 . S
H2100 C2086 0.960 . S
H2101 C2087 0.961 . S
H2102 C2087 0.961 . S
H2103 C2087 0.961 . S
H2104 C2088 0.931 . S
H2105 C2093 0.930 . S
H2106 C2094 0.956 . S
H2107 C2094 0.961 . S
H2108 C2094 0.961 . S
H2109 C2095 0.958 . S
H2110 C2095 0.961 . S
H2111 C2095 0.960 . S
C2112 C2113 1.391 . S
C2112 C2114 1.394 . S
C2112 H2128 0.931 . S
C2113 C2112 1.391 . S
C2113 C2117 1.376 . S
C2114 C2112 1.394 . S
C2114 C2115 1.369 . S
C2114 C2118 1.531 . S
C2115 C2114 1.369 . S
C2115 C2116 1.410 . S
C2115 C2123 1.503 . S
C2116 C2115 1.410 . S
C2116 C2117 1.392 . S
C2116 C2119 1.511 . S
C2117 C2113 1.376 . S
C2117 C2116 1.392 . S
C2117 H2129 0.929 . S
C2118 C2114 1.531 . S
C2118 H2130 0.960 . S
C2118 H2131 0.962 . S
C2118 H2132 0.960 . S
C2119 C2116 1.511 . S
C2119 H2133 0.961 . S
C2119 H2134 0.961 . S
C2119 H2135 0.961 . S
C2120 C2121 1.370 . S
C2120 C2122 1.363 . S
C2120 H2136 0.931 . S
C2121 C2120 1.370 . S
C2121 C2125 1.408 . S
C2122 C2120 1.363 . S
C2122 C2123 1.370 . S
C2122 C2126 1.524 . S
C2123 C2115 1.503 . S
C2123 C2122 1.370 . S
C2123 C2124 1.403 . S
C2124 C2123 1.403 . S
C2124 C2125 1.404 . S
C2124 C2127 1.539 . S
C2125 C2121 1.408 . S
C2125 C2124 1.404 . S
C2125 H2137 0.930 . S
C2126 C2122 1.524 . S
C2126 H2138 0.956 . S
C2126 H2139 0.961 . S
C2126 H2140 0.961 . S
C2127 C2124 1.539 . S
C2127 H2141 0.958 . S
C2127 H2142 0.961 . S
C2127 H2143 0.960 . S
H2128 C2112 0.931 . S
H2129 C2117 0.929 . S
H2130 C2118 0.960 . S
H2131 C2118 0.962 . S
H2132 C2118 0.960 . S
H2133 C2119 0.961 . S
H2134 C2119 0.961 . S
H2135 C2119 0.961 . S
H2136 C2120 0.931 . S
H2137 C2125 0.930 . S
H2138 C2126 0.956 . S
H2139 C2126 0.961 . S
H2140 C2126 0.961 . S
H2141 C2127 0.958 . S
H2142 C2127 0.961 . S
H2143 C2127 0.960 . S
C2144 C2145 1.391 . S
C2144 C2146 1.394 . S
C2144 H2160 0.931 . S
C2145 C2144 1.391 . S
C2145 C2149 1.376 . S
C2146 C2144 1.394 . S
C2146 C2147 1.369 . S
C2146 C2150 1.531 . S
C2147 C2146 1.369 . S
C2147 C2148 1.410 . S
C2147 C2155 1.503 . S
C2148 C2147 1.410 . S
C2148 C2149 1.392 . S
C2148 C2151 1.511 . S
C2149 C2145 1.376 . S
C2149 C2148 1.392 . S
C2149 H2161 0.929 . S
C2150 C2146 1.531 . S
C2150 H2162 0.960 . S
C2150 H2163 0.962 . S
C2150 H2164 0.960 . S
C2151 C2148 1.511 . S
C2151 H2165 0.961 . S
C2151 H2166 0.961 . S
C2151 H2167 0.961 . S
C2152 C2153 1.370 . S
C2152 C2154 1.363 1_455 S
C2152 H2168 0.931 . S
C2153 C2152 1.370 . S
C2153 C2157 1.408 . S
C2154 C2152 1.363 1_655 S
C2154 C2155 1.370 . S
C2154 C2158 1.524 . S
C2155 C2147 1.503 . S
C2155 C2154 1.370 . S
C2155 C2156 1.403 . S
C2156 C2155 1.403 . S
C2156 C2157 1.404 1_655 S
C2156 C2159 1.539 . S
C2157 C2153 1.408 . S
C2157 C2156 1.404 1_455 S
C2157 H2169 0.930 . S
C2158 C2154 1.524 . S
C2158 H2170 0.956 . S
C2158 H2171 0.961 . S
C2158 H2172 0.961 . S
C2159 C2156 1.539 . S
C2159 H2173 0.958 . S
C2159 H2174 0.961 . S
C2159 H2175 0.960 . S
H2160 C2144 0.931 . S
H2161 C2149 0.929 . S
H2162 C2150 0.960 . S
H2163 C2150 0.962 . S
H2164 C2150 0.960 . S
H2165 C2151 0.961 . S
H2166 C2151 0.961 . S
H2167 C2151 0.961 . S
H2168 C2152 0.931 . S
H2169 C2157 0.930 . S
H2170 C2158 0.956 . S
H2171 C2158 0.961 . S
H2172 C2158 0.961 . S
H2173 C2159 0.958 . S
H2174 C2159 0.961 . S
H2175 C2159 0.960 . S
C2176 C2177 1.391 . S
C2176 C2178 1.394 . S
C2176 H2192 0.931 . S
C2177 C2176 1.391 . S
C2177 C2181 1.376 . S
C2178 C2176 1.394 . S
C2178 C2179 1.369 . S
C2178 C2182 1.531 . S
C2179 C2178 1.369 . S
C2179 C2180 1.410 . S
C2179 C2187 1.503 . S
C2180 C2179 1.410 . S
C2180 C2181 1.392 . S
C2180 C2183 1.511 . S
C2181 C2177 1.376 . S
C2181 C2180 1.392 . S
C2181 H2193 0.929 . S
C2182 C2178 1.531 . S
C2182 H2194 0.960 . S
C2182 H2195 0.962 . S
C2182 H2196 0.960 . S
C2183 C2180 1.511 . S
C2183 H2197 0.961 . S
C2183 H2198 0.961 . S
C2183 H2199 0.961 . S
C2184 C2185 1.370 . S
C2184 C2186 1.363 1_655 S
C2184 H2200 0.931 . S
C2185 C2184 1.370 . S
C2185 C2189 1.408 . S
C2186 C2184 1.363 1_455 S
C2186 C2187 1.370 . S
C2186 C2190 1.524 . S
C2187 C2179 1.503 . S
C2187 C2186 1.370 . S
C2187 C2188 1.403 . S
C2188 C2187 1.403 . S
C2188 C2189 1.404 1_455 S
C2188 C2191 1.539 . S
C2189 C2185 1.408 . S
C2189 C2188 1.404 1_655 S
C2189 H2201 0.930 . S
C2190 C2186 1.524 . S
C2190 H2202 0.956 . S
C2190 H2203 0.961 . S
C2190 H2204 0.961 . S
C2191 C2188 1.539 . S
C2191 H2205 0.958 . S
C2191 H2206 0.961 . S
C2191 H2207 0.960 . S
H2192 C2176 0.931 . S
H2193 C2181 0.929 . S
H2194 C2182 0.960 . S
H2195 C2182 0.962 . S
H2196 C2182 0.960 . S
H2197 C2183 0.961 . S
H2198 C2183 0.961 . S
H2199 C2183 0.961 . S
H2200 C2184 0.931 . S
H2201 C2189 0.930 . S
H2202 C2190 0.956 . S
H2203 C2190 0.961 . S
H2204 C2190 0.961 . S
H2205 C2191 0.958 . S
H2206 C2191 0.961 . S
H2207 C2191 0.960 . S
C2208 C2209 1.391 . S
C2208 C2210 1.394 . S
C2208 H2224 0.931 . S
C2209 C2208 1.391 . S
C2209 C2213 1.376 . S
C2210 C2208 1.394 . S
C2210 C2211 1.369 . S
C2210 C2214 1.531 . S
C2211 C2210 1.369 . S
C2211 C2212 1.410 . S
C2211 C2219 1.503 1_655 S
C2212 C2211 1.410 . S
C2212 C2213 1.392 . S
C2212 C2215 1.511 . S
C2213 C2209 1.376 . S
C2213 C2212 1.392 . S
C2213 H2225 0.929 . S
C2214 C2210 1.531 . S
C2214 H2226 0.960 . S
C2214 H2227 0.962 . S
C2214 H2228 0.960 . S
C2215 C2212 1.511 . S
C2215 H2229 0.961 . S
C2215 H2230 0.961 . S
C2215 H2231 0.961 . S
C2216 C2217 1.370 . S
C2216 C2218 1.363 . S
C2216 H2232 0.931 . S
C2217 C2216 1.370 . S
C2217 C2221 1.408 . S
C2218 C2216 1.363 . S
C2218 C2219 1.370 . S
C2218 C2222 1.524 1_455 S
C2219 C2211 1.503 1_455 S
C2219 C2218 1.370 . S
C2219 C2220 1.403 . S
C2220 C2219 1.403 . S
C2220 C2221 1.404 . S
C2220 C2223 1.539 . S
C2221 C2217 1.408 . S
C2221 C2220 1.404 . S
C2221 H2233 0.930 . S
C2222 C2218 1.524 1_655 S
C2222 H2234 0.956 . S
C2222 H2235 0.961 . S
C2222 H2236 0.961 1_655 S
C2223 C2220 1.539 . S
C2223 H2237 0.958 . S
C2223 H2238 0.961 . S
C2223 H2239 0.960 1_455 S
H2224 C2208 0.931 . S
H2225 C2213 0.929 . S
H2226 C2214 0.960 . S
H2227 C2214 0.962 . S
H2228 C2214 0.960 . S
H2229 C2215 0.961 . S
H2230 C2215 0.961 . S
H2231 C2215 0.961 . S
H2232 C2216 0.931 . S
H2233 C2221 0.930 . S
H2234 C2222 0.956 . S
H2235 C2222 0.961 . S
H2236 C2222 0.961 1_455 S
H2237 C2223 0.958 . S
H2238 C2223 0.961 . S
H2239 C2223 0.960 1_655 S
C2240 C2241 1.391 . S
C2240 C2242 1.394 . S
C2240 H2256 0.931 . S
C2241 C2240 1.391 . S
C2241 C2245 1.376 . S
C2242 C2240 1.394 . S
C2242 C2243 1.369 . S
C2242 C2246 1.531 . S
C2243 C2242 1.369 . S
C2243 C2244 1.410 . S
C2243 C2251 1.503 . S
C2244 C2243 1.410 . S
C2244 C2245 1.392 . S
C2244 C2247 1.511 . S
C2245 C2241 1.376 . S
C2245 C2244 1.392 . S
C2245 H2257 0.929 . S
C2246 C2242 1.531 . S
C2246 H2258 0.960 . S
C2246 H2259 0.962 . S
C2246 H2260 0.960 . S
C2247 C2244 1.511 . S
C2247 H2261 0.961 . S
C2247 H2262 0.961 . S
C2247 H2263 0.961 . S
C2248 C2249 1.370 . S
C2248 C2250 1.363 . S
C2248 H2264 0.931 . S
C2249 C2248 1.370 . S
C2249 C2253 1.408 . S
C2250 C2248 1.363 . S
C2250 C2251 1.370 . S
C2250 C2254 1.524 . S
C2251 C2243 1.503 . S
C2251 C2250 1.370 . S
C2251 C2252 1.403 . S
C2252 C2251 1.403 . S
C2252 C2253 1.404 . S
C2252 C2255 1.539 . S
C2253 C2249 1.408 . S
C2253 C2252 1.404 . S
C2253 H2265 0.930 . S
C2254 C2250 1.524 . S
C2254 H2266 0.956 . S
C2254 H2267 0.961 . S
C2254 H2268 0.961 . S
C2255 C2252 1.539 . S
C2255 H2269 0.958 . S
C2255 H2270 0.961 . S
C2255 H2271 0.960 . S
H2256 C2240 0.931 . S
H2257 C2245 0.929 . S
H2258 C2246 0.960 . S
H2259 C2246 0.962 . S
H2260 C2246 0.960 . S
H2261 C2247 0.961 . S
H2262 C2247 0.961 . S
H2263 C2247 0.961 . S
H2264 C2248 0.931 . S
H2265 C2253 0.930 . S
H2266 C2254 0.956 . S
H2267 C2254 0.961 . S
H2268 C2254 0.961 . S
H2269 C2255 0.958 . S
H2270 C2255 0.961 . S
H2271 C2255 0.960 . S
C2272 C2273 1.391 . S
C2272 C2274 1.394 . S
C2272 H2288 0.931 . S
C2273 C2272 1.391 . S
C2273 C2277 1.376 . S
C2274 C2272 1.394 . S
C2274 C2275 1.369 . S
C2274 C2278 1.531 . S
C2275 C2274 1.369 . S
C2275 C2276 1.410 . S
C2275 C2283 1.503 1_455 S
C2276 C2275 1.410 . S
C2276 C2277 1.392 . S
C2276 C2279 1.511 . S
C2277 C2273 1.376 . S
C2277 C2276 1.392 . S
C2277 H2289 0.929 . S
C2278 C2274 1.531 . S
C2278 H2290 0.960 . S
C2278 H2291 0.962 . S
C2278 H2292 0.960 . S
C2279 C2276 1.511 . S
C2279 H2293 0.961 . S
C2279 H2294 0.961 . S
C2279 H2295 0.961 . S
C2280 C2281 1.370 . S
C2280 C2282 1.363 . S
C2280 H2296 0.931 . S
C2281 C2280 1.370 . S
C2281 C2285 1.408 . S
C2282 C2280 1.363 . S
C2282 C2283 1.370 . S
C2282 C2286 1.524 1_655 S
C2283 C2275 1.503 1_655 S
C2283 C2282 1.370 . S
C2283 C2284 1.403 . S
C2284 C2283 1.403 . S
C2284 C2285 1.404 . S
C2284 C2287 1.539 . S
C2285 C2281 1.408 . S
C2285 C2284 1.404 . S
C2285 H2297 0.930 . S
C2286 C2282 1.524 1_455 S
C2286 H2298 0.956 . S
C2286 H2299 0.961 . S
C2286 H2300 0.961 1_455 S
C2287 C2284 1.539 . S
C2287 H2301 0.958 . S
C2287 H2302 0.961 . S
C2287 H2303 0.960 1_655 S
H2288 C2272 0.931 . S
H2289 C2277 0.929 . S
H2290 C2278 0.960 . S
H2291 C2278 0.962 . S
H2292 C2278 0.960 . S
H2293 C2279 0.961 . S
H2294 C2279 0.961 . S
H2295 C2279 0.961 . S
H2296 C2280 0.931 . S
H2297 C2285 0.930 . S
H2298 C2286 0.956 . S
H2299 C2286 0.961 . S
H2300 C2286 0.961 1_655 S
H2301 C2287 0.958 . S
H2302 C2287 0.961 . S
H2303 C2287 0.960 1_455 S
C2304 C2305 1.391 . S
C2304 C2306 1.394 . S
C2304 H2320 0.931 . S
C2305 C2304 1.391 . S
C2305 C2309 1.376 . S
C2306 C2304 1.394 . S
C2306 C2307 1.369 . S
C2306 C2310 1.531 . S
C2307 C2306 1.369 . S
C2307 C2308 1.410 . S
C2307 C2315 1.503 . S
C2308 C2307 1.410 . S
C2308 C2309 1.392 . S
C2308 C2311 1.511 . S
C2309 C2305 1.376 . S
C2309 C2308 1.392 . S
C2309 H2321 0.929 . S
C2310 C2306 1.531 . S
C2310 H2322 0.960 . S
C2310 H2323 0.962 . S
C2310 H2324 0.960 . S
C2311 C2308 1.511 . S
C2311 H2325 0.961 . S
C2311 H2326 0.961 . S
C2311 H2327 0.961 . S
C2312 C2313 1.370 . S
C2312 C2314 1.363 . S
C2312 H2328 0.931 . S
C2313 C2312 1.370 . S
C2313 C2317 1.408 . S
C2314 C2312 1.363 . S
C2314 C2315 1.370 . S
C2314 C2318 1.524 . S
C2315 C2307 1.503 . S
C2315 C2314 1.370 . S
C2315 C2316 1.403 . S
C2316 C2315 1.403 . S
C2316 C2317 1.404 . S
C2316 C2319 1.539 . S
C2317 C2313 1.408 . S
C2317 C2316 1.404 . S
C2317 H2329 0.930 . S
C2318 C2314 1.524 . S
C2318 H2330 0.956 . S
C2318 H2331 0.961 . S
C2318 H2332 0.961 . S
C2319 C2316 1.539 . S
C2319 H2333 0.958 . S
C2319 H2334 0.961 . S
C2319 H2335 0.960 . S
H2320 C2304 0.931 . S
H2321 C2309 0.929 . S
H2322 C2310 0.960 . S
H2323 C2310 0.962 . S
H2324 C2310 0.960 . S
H2325 C2311 0.961 . S
H2326 C2311 0.961 . S
H2327 C2311 0.961 . S
H2328 C2312 0.931 . S
H2329 C2317 0.930 . S
H2330 C2318 0.956 . S
H2331 C2318 0.961 . S
H2332 C2318 0.961 . S
H2333 C2319 0.958 . S
H2334 C2319 0.961 . S
H2335 C2319 0.960 . S
C2336 C2337 1.391 . S
C2336 C2338 1.394 . S
C2336 H2352 0.931 . S
C2337 C2336 1.391 . S
C2337 C2341 1.376 . S
C2338 C2336 1.394 . S
C2338 C2339 1.369 . S
C2338 C2342 1.531 . S
C2339 C2338 1.369 . S
C2339 C2340 1.410 . S
C2339 C2347 1.503 1_655 S
C2340 C2339 1.410 . S
C2340 C2341 1.392 . S
C2340 C2343 1.511 1_655 S
C2341 C2337 1.376 . S
C2341 C2340 1.392 . S
C2341 H2353 0.929 . S
C2342 C2338 1.531 . S
C2342 H2354 0.960 1_655 S
C2342 H2355 0.962 . S
C2342 H2356 0.960 . S
C2343 C2340 1.511 1_455 S
C2343 H2357 0.961 1_455 S
C2343 H2358 0.961 . S
C2343 H2359 0.961 . S
C2344 C2345 1.370 . S
C2344 C2346 1.363 . S
C2344 H2360 0.931 . S
C2345 C2344 1.370 . S
C2345 C2349 1.408 . S
C2346 C2344 1.363 . S
C2346 C2347 1.370 . S
C2346 C2350 1.524 . S
C2347 C2339 1.503 1_455 S
C2347 C2346 1.370 . S
C2347 C2348 1.403 . S
C2348 C2347 1.403 . S
C2348 C2349 1.404 . S
C2348 C2351 1.539 . S
C2349 C2345 1.408 . S
C2349 C2348 1.404 . S
C2349 H2361 0.930 . S
C2350 C2346 1.524 . S
C2350 H2362 0.956 . S
C2350 H2363 0.961 . S
C2350 H2364 0.961 . S
C2351 C2348 1.539 . S
C2351 H2365 0.958 . S
C2351 H2366 0.961 . S
C2351 H2367 0.960 . S
H2352 C2336 0.931 . S
H2353 C2341 0.929 . S
H2354 C2342 0.960 1_455 S
H2355 C2342 0.962 . S
H2356 C2342 0.960 . S
H2357 C2343 0.961 1_655 S
H2358 C2343 0.961 . S
H2359 C2343 0.961 . S
H2360 C2344 0.931 . S
H2361 C2349 0.930 . S
H2362 C2350 0.956 . S
H2363 C2350 0.961 . S
H2364 C2350 0.961 . S
H2365 C2351 0.958 . S
H2366 C2351 0.961 . S
H2367 C2351 0.960 . S
C2368 C2369 1.391 . S
C2368 C2370 1.394 . S
C2368 H2384 0.931 . S
C2369 C2368 1.391 . S
C2369 C2373 1.376 . S
C2370 C2368 1.394 . S
C2370 C2371 1.369 . S
C2370 C2374 1.531 . S
C2371 C2370 1.369 . S
C2371 C2372 1.410 . S
C2371 C2379 1.503 . S
C2372 C2371 1.410 . S
C2372 C2373 1.392 . S
C2372 C2375 1.511 . S
C2373 C2369 1.376 . S
C2373 C2372 1.392 . S
C2373 H2385 0.929 . S
C2374 C2370 1.531 . S
C2374 H2386 0.960 . S
C2374 H2387 0.962 . S
C2374 H2388 0.960 . S
C2375 C2372 1.511 . S
C2375 H2389 0.961 . S
C2375 H2390 0.961 . S
C2375 H2391 0.961 . S
C2376 C2377 1.370 . S
C2376 C2378 1.363 . S
C2376 H2392 0.931 . S
C2377 C2376 1.370 . S
C2377 C2381 1.408 . S
C2378 C2376 1.363 . S
C2378 C2379 1.370 . S
C2378 C2382 1.524 . S
C2379 C2371 1.503 . S
C2379 C2378 1.370 . S
C2379 C2380 1.403 . S
C2380 C2379 1.403 . S
C2380 C2381 1.404 . S
C2380 C2383 1.539 . S
C2381 C2377 1.408 . S
C2381 C2380 1.404 . S
C2381 H2393 0.930 . S
C2382 C2378 1.524 . S
C2382 H2394 0.956 . S
C2382 H2395 0.961 . S
C2382 H2396 0.961 . S
C2383 C2380 1.539 . S
C2383 H2397 0.958 . S
C2383 H2398 0.961 . S
C2383 H2399 0.960 . S
H2384 C2368 0.931 . S
H2385 C2373 0.929 . S
H2386 C2374 0.960 . S
H2387 C2374 0.962 . S
H2388 C2374 0.960 . S
H2389 C2375 0.961 . S
H2390 C2375 0.961 . S
H2391 C2375 0.961 . S
H2392 C2376 0.931 . S
H2393 C2381 0.930 . S
H2394 C2382 0.956 . S
H2395 C2382 0.961 . S
H2396 C2382 0.961 . S
H2397 C2383 0.958 . S
H2398 C2383 0.961 . S
H2399 C2383 0.960 . S
C2400 C2401 1.391 . S
C2400 C2402 1.394 . S
C2400 H2416 0.931 . S
C2401 C2400 1.391 . S
C2401 C2405 1.376 . S
C2402 C2400 1.394 . S
C2402 C2403 1.369 . S
C2402 C2406 1.531 . S
C2403 C2402 1.369 . S
C2403 C2404 1.410 . S
C2403 C2411 1.503 1_655 S
C2404 C2403 1.410 . S
C2404 C2405 1.392 . S
C2404 C2407 1.511 . S
C2405 C2401 1.376 . S
C2405 C2404 1.392 . S
C2405 H2417 0.929 . S
C2406 C2402 1.531 . S
C2406 H2418 0.960 . S
C2406 H2419 0.962 . S
C2406 H2420 0.960 . S
C2407 C2404 1.511 . S
C2407 H2421 0.961 . S
C2407 H2422 0.961 . S
C2407 H2423 0.961 . S
C2408 C2409 1.370 . S
C2408 C2410 1.363 . S
C2408 H2424 0.931 . S
C2409 C2408 1.370 . S
C2409 C2413 1.408 . S
C2410 C2408 1.363 . S
C2410 C2411 1.370 . S
C2410 C2414 1.524 1_455 S
C2411 C2403 1.503 1_455 S
C2411 C2410 1.370 . S
C2411 C2412 1.403 . S
C2412 C2411 1.403 . S
C2412 C2413 1.404 . S
C2412 C2415 1.539 . S
C2413 C2409 1.408 . S
C2413 C2412 1.404 . S
C2413 H2425 0.930 . S
C2414 C2410 1.524 1_655 S
C2414 H2426 0.956 . S
C2414 H2427 0.961 . S
C2414 H2428 0.961 1_655 S
C2415 C2412 1.539 . S
C2415 H2429 0.958 . S
C2415 H2430 0.961 . S
C2415 H2431 0.960 1_455 S
H2416 C2400 0.931 . S
H2417 C2405 0.929 . S
H2418 C2406 0.960 . S
H2419 C2406 0.962 . S
H2420 C2406 0.960 . S
H2421 C2407 0.961 . S
H2422 C2407 0.961 . S
H2423 C2407 0.961 . S
H2424 C2408 0.931 . S
H2425 C2413 0.930 . S
H2426 C2414 0.956 . S
H2427 C2414 0.961 . S
H2428 C2414 0.961 1_455 S
H2429 C2415 0.958 . S
H2430 C2415 0.961 . S
H2431 C2415 0.960 1_655 S
C2432 C2433 1.391 . S
C2432 C2434 1.394 . S
C2432 H2448 0.931 . S
C2433 C2432 1.391 . S
C2433 C2437 1.376 . S
C2434 C2432 1.394 . S
C2434 C2435 1.369 . S
C2434 C2438 1.531 . S
C2435 C2434 1.369 . S
C2435 C2436 1.410 . S
C2435 C2443 1.503 . S
C2436 C2435 1.410 . S
C2436 C2437 1.392 . S
C2436 C2439 1.511 . S
C2437 C2433 1.376 . S
C2437 C2436 1.392 . S
C2437 H2449 0.929 . S
C2438 C2434 1.531 . S
C2438 H2450 0.960 . S
C2438 H2451 0.962 . S
C2438 H2452 0.960 . S
C2439 C2436 1.511 . S
C2439 H2453 0.961 . S
C2439 H2454 0.961 . S
C2439 H2455 0.961 . S
C2440 C2441 1.370 . S
C2440 C2442 1.363 . S
C2440 H2456 0.931 . S
C2441 C2440 1.370 . S
C2441 C2445 1.408 . S
C2442 C2440 1.363 . S
C2442 C2443 1.370 . S
C2442 C2446 1.524 . S
C2443 C2435 1.503 . S
C2443 C2442 1.370 . S
C2443 C2444 1.403 . S
C2444 C2443 1.403 . S
C2444 C2445 1.404 . S
C2444 C2447 1.539 . S
C2445 C2441 1.408 . S
C2445 C2444 1.404 . S
C2445 H2457 0.930 . S
C2446 C2442 1.524 . S
C2446 H2458 0.956 . S
C2446 H2459 0.961 . S
C2446 H2460 0.961 . S
C2447 C2444 1.539 . S
C2447 H2461 0.958 . S
C2447 H2462 0.961 . S
C2447 H2463 0.960 . S
H2448 C2432 0.931 . S
H2449 C2437 0.929 . S
H2450 C2438 0.960 . S
H2451 C2438 0.962 . S
H2452 C2438 0.960 . S
H2453 C2439 0.961 . S
H2454 C2439 0.961 . S
H2455 C2439 0.961 . S
H2456 C2440 0.931 . S
H2457 C2445 0.930 . S
H2458 C2446 0.956 . S
H2459 C2446 0.961 . S
H2460 C2446 0.961 . S
H2461 C2447 0.958 . S
H2462 C2447 0.961 . S
H2463 C2447 0.960 . S
C2464 C2465 1.391 . S
C2464 C2466 1.394 . S
C2464 H2480 0.931 . S
C2465 C2464 1.391 . S
C2465 C2469 1.376 . S
C2466 C2464 1.394 . S
C2466 C2467 1.370 1_545 S
C2466 C2470 1.531 1_545 S
C2467 C2466 1.370 1_565 S
C2467 C2468 1.410 1_565 S
C2467 C2475 1.502 . S
C2468 C2467 1.410 1_545 S
C2468 C2469 1.392 . S
C2468 C2471 1.511 . S
C2469 C2465 1.376 . S
C2469 C2468 1.392 . S
C2469 H2481 0.929 . S
C2470 C2466 1.531 1_565 S
C2470 H2482 0.960 . S
C2470 H2483 0.962 . S
C2470 H2484 0.960 1_565 S
C2471 C2468 1.511 . S
C2471 H2485 0.961 . S
C2471 H2486 0.961 1_545 S
C2471 H2487 0.958 1_545 S
C2472 C2473 1.370 . S
C2472 C2474 1.363 . S
C2472 H2488 0.931 . S
C2473 C2472 1.370 . S
C2473 C2477 1.408 . S
C2474 C2472 1.363 . S
C2474 C2475 1.370 . S
C2474 C2478 1.524 . S
C2475 C2467 1.502 . S
C2475 C2474 1.370 . S
C2475 C2476 1.403 . S
C2476 C2475 1.403 . S
C2476 C2477 1.404 . S
C2476 C2479 1.539 . S
C2477 C2473 1.408 . S
C2477 C2476 1.404 . S
C2477 H2489 0.930 . S
C2478 C2474 1.524 . S
C2478 H2490 0.956 . S
C2478 H2491 0.961 . S
C2478 H2492 0.961 . S
C2479 C2476 1.539 . S
C2479 H2493 0.958 . S
C2479 H2494 0.961 . S
C2479 H2495 0.960 . S
H2480 C2464 0.931 . S
H2481 C2469 0.929 . S
H2482 C2470 0.960 . S
H2483 C2470 0.962 . S
H2484 C2470 0.960 1_545 S
H2485 C2471 0.961 . S
H2486 C2471 0.961 1_565 S
H2487 C2471 0.958 1_565 S
H2488 C2472 0.931 . S
H2489 C2477 0.930 . S
H2490 C2478 0.956 . S
H2491 C2478 0.961 . S
H2492 C2478 0.961 . S
H2493 C2479 0.958 . S
H2494 C2479 0.961 . S
H2495 C2479 0.960 . S
C2496 C2497 1.391 . S
C2496 C2498 1.394 . S
C2496 H2512 0.931 . S
C2497 C2496 1.391 . S
C2497 C2501 1.376 . S
C2498 C2496 1.394 . S
C2498 C2499 1.369 . S
C2498 C2502 1.531 . S
C2499 C2498 1.369 . S
C2499 C2500 1.410 . S
C2499 C2507 1.503 . S
C2500 C2499 1.410 . S
C2500 C2501 1.392 . S
C2500 C2503 1.511 . S
C2501 C2497 1.376 . S
C2501 C2500 1.392 . S
C2501 H2513 0.929 . S
C2502 C2498 1.531 . S
C2502 H2514 0.960 . S
C2502 H2515 0.962 . S
C2502 H2516 0.960 . S
C2503 C2500 1.511 . S
C2503 H2517 0.961 . S
C2503 H2518 0.961 . S
C2503 H2519 0.961 . S
C2504 C2505 1.370 . S
C2504 C2506 1.363 . S
C2504 H2520 0.931 . S
C2505 C2504 1.370 . S
C2505 C2509 1.408 . S
C2506 C2504 1.363 . S
C2506 C2507 1.370 . S
C2506 C2510 1.524 . S
C2507 C2499 1.503 . S
C2507 C2506 1.370 . S
C2507 C2508 1.403 . S
C2508 C2507 1.403 . S
C2508 C2509 1.404 . S
C2508 C2511 1.539 . S
C2509 C2505 1.408 . S
C2509 C2508 1.404 . S
C2509 H2521 0.930 . S
C2510 C2506 1.524 . S
C2510 H2522 0.956 . S
C2510 H2523 0.961 . S
C2510 H2524 0.961 . S
C2511 C2508 1.539 . S
C2511 H2525 0.958 . S
C2511 H2526 0.961 . S
C2511 H2527 0.960 . S
H2512 C2496 0.931 . S
H2513 C2501 0.929 . S
H2514 C2502 0.960 . S
H2515 C2502 0.962 . S
H2516 C2502 0.960 . S
H2517 C2503 0.961 . S
H2518 C2503 0.961 . S
H2519 C2503 0.961 . S
H2520 C2504 0.931 . S
H2521 C2509 0.930 . S
H2522 C2510 0.956 . S
H2523 C2510 0.961 . S
H2524 C2510 0.961 . S
H2525 C2511 0.958 . S
H2526 C2511 0.961 . S
H2527 C2511 0.960 . S
C2528 C2529 1.391 . S
C2528 C2530 1.394 . S
C2528 H2544 0.931 . S
C2529 C2528 1.391 . S
C2529 C2533 1.376 . S
C2530 C2528 1.394 . S
C2530 C2531 1.369 . S
C2530 C2534 1.531 . S
C2531 C2530 1.369 . S
C2531 C2532 1.410 . S
C2531 C2539 1.513 . S
C2532 C2531 1.410 . S
C2532 C2533 1.392 . S
C2532 C2535 1.511 . S
C2533 C2529 1.376 . S
C2533 C2532 1.392 . S
C2533 H2545 0.929 . S
C2534 C2530 1.531 . S
C2534 H2546 0.960 . S
C2534 H2547 0.962 . S
C2534 H2548 0.960 . S
C2535 C2532 1.511 . S
C2535 H2549 0.961 . S
C2535 H2550 0.961 . S
C2535 H2551 0.961 . S
C2536 C2537 1.370 . S
C2536 C2538 1.363 . S
C2536 H2552 0.931 . S
C2537 C2536 1.370 . S
C2537 C2541 1.408 . S
C2538 C2536 1.363 . S
C2538 C2539 1.366 1_565 S
C2538 C2542 1.524 1_565 S
C2539 C2531 1.513 . S
C2539 C2538 1.366 1_545 S
C2539 C2540 1.398 1_545 S
C2540 C2539 1.398 1_565 S
C2540 C2541 1.404 . S
C2540 C2543 1.531 1_565 S
C2541 C2537 1.408 . S
C2541 C2540 1.404 . S
C2541 H2553 0.930 . S
C2542 C2538 1.524 1_545 S
C2542 H2554 0.956 . S
C2542 H2555 0.961 . S
C2542 H2556 0.961 1_545 S
C2543 C2540 1.531 1_545 S
C2543 H2557 0.960 . S
C2543 H2558 0.952 1_545 S
C2543 H2559 0.975 . S
H2544 C2528 0.931 . S
H2545 C2533 0.929 . S
H2546 C2534 0.960 . S
H2547 C2534 0.962 . S
H2548 C2534 0.960 . S
H2549 C2535 0.961 . S
H2550 C2535 0.961 . S
H2551 C2535 0.961 . S
H2552 C2536 0.931 . S
H2553 C2541 0.930 . S
H2554 C2542 0.956 . S
H2555 C2542 0.961 . S
H2556 C2542 0.961 1_565 S
H2557 C2543 0.960 . S
H2558 C2543 0.952 1_565 S
H2559 C2543 0.975 . S
C2560 C2561 1.391 . S
C2560 C2562 1.394 . S
C2560 H2576 0.931 . S
C2561 C2560 1.391 . S
C2561 C2565 1.376 . S
C2562 C2560 1.394 . S
C2562 C2563 1.369 . S
C2562 C2566 1.531 . S
C2563 C2562 1.369 . S
C2563 C2564 1.410 . S
C2563 C2571 1.503 . S
C2564 C2563 1.410 . S
C2564 C2565 1.392 . S
C2564 C2567 1.511 . S
C2565 C2561 1.376 . S
C2565 C2564 1.392 . S
C2565 H2577 0.929 . S
C2566 C2562 1.531 . S
C2566 H2578 0.960 . S
C2566 H2579 0.962 . S
C2566 H2580 0.960 . S
C2567 C2564 1.511 . S
C2567 H2581 0.961 . S
C2567 H2582 0.961 . S
C2567 H2583 0.961 . S
C2568 C2569 1.370 . S
C2568 C2570 1.363 . S
C2568 H2584 0.931 . S
C2569 C2568 1.370 . S
C2569 C2573 1.408 . S
C2570 C2568 1.363 . S
C2570 C2571 1.370 . S
C2570 C2574 1.524 . S
C2571 C2563 1.503 . S
C2571 C2570 1.370 . S
C2571 C2572 1.403 . S
C2572 C2571 1.403 . S
C2572 C2573 1.404 . S
C2572 C2575 1.539 . S
C2573 C2569 1.408 . S
C2573 C2572 1.404 . S
C2573 H2585 0.930 . S
C2574 C2570 1.524 . S
C2574 H2586 0.956 . S
C2574 H2587 0.961 . S
C2574 H2588 0.961 . S
C2575 C2572 1.539 . S
C2575 H2589 0.958 . S
C2575 H2590 0.961 . S
C2575 H2591 0.960 . S
H2576 C2560 0.931 . S
H2577 C2565 0.929 . S
H2578 C2566 0.960 . S
H2579 C2566 0.962 . S
H2580 C2566 0.960 . S
H2581 C2567 0.961 . S
H2582 C2567 0.961 . S
H2583 C2567 0.961 . S
H2584 C2568 0.931 . S
H2585 C2573 0.930 . S
H2586 C2574 0.956 . S
H2587 C2574 0.961 . S
H2588 C2574 0.961 . S
H2589 C2575 0.958 . S
H2590 C2575 0.961 . S
H2591 C2575 0.960 . S
C2592 C2593 1.391 . S
C2592 C2594 1.394 . S
C2592 H2608 0.931 . S
C2593 C2592 1.391 . S
C2593 C2597 1.376 . S
C2594 C2592 1.394 . S
C2594 C2595 1.369 . S
C2594 C2598 1.531 . S
C2595 C2594 1.369 . S
C2595 C2596 1.410 . S
C2595 C2603 1.503 1_545 S
C2596 C2595 1.410 . S
C2596 C2597 1.392 . S
C2596 C2599 1.511 . S
C2597 C2593 1.376 . S
C2597 C2596 1.392 . S
C2597 H2609 0.929 . S
C2598 C2594 1.531 . S
C2598 H2610 0.926 1_545 S
C2598 H2611 0.962 . S
C2598 H2612 0.960 . S
C2599 C2596 1.511 . S
C2599 H2613 0.961 . S
C2599 H2614 0.961 1_545 S
C2599 H2615 0.961 . S
C2600 C2601 1.370 . S
C2600 C2602 1.363 . S
C2600 H2616 0.931 . S
C2601 C2600 1.370 . S
C2601 C2605 1.408 . S
C2602 C2600 1.363 . S
C2602 C2603 1.370 . S
C2602 C2606 1.524 . S
C2603 C2595 1.503 1_565 S
C2603 C2602 1.370 . S
C2603 C2604 1.403 . S
C2604 C2603 1.403 . S
C2604 C2605 1.404 . S
C2604 C2607 1.539 . S
C2605 C2601 1.408 . S
C2605 C2604 1.404 . S
C2605 H2617 0.930 . S
C2606 C2602 1.524 . S
C2606 H2618 0.954 1_565 S
C2606 H2619 0.961 1_565 S
C2606 H2620 0.961 . S
C2607 C2604 1.539 . S
C2607 H2621 0.958 . S
C2607 H2622 0.961 . S
C2607 H2623 0.960 . S
H2608 C2592 0.931 . S
H2609 C2597 0.929 . S
H2610 C2598 0.926 1_565 S
H2611 C2598 0.962 . S
H2612 C2598 0.960 . S
H2613 C2599 0.961 . S
H2614 C2599 0.961 1_565 S
H2615 C2599 0.961 . S
H2616 C2600 0.931 . S
H2617 C2605 0.930 . S
H2618 C2606 0.954 1_545 S
H2619 C2606 0.961 1_545 S
H2620 C2606 0.961 . S
H2621 C2607 0.958 . S
H2622 C2607 0.961 . S
H2623 C2607 0.960 . S
C2624 C2625 1.391 . S
C2624 C2626 1.394 . S
C2624 H2640 0.931 . S
C2625 C2624 1.391 . S
C2625 C2629 1.376 . S
C2626 C2624 1.394 . S
C2626 C2627 1.369 . S
C2626 C2630 1.531 . S
C2627 C2626 1.369 . S
C2627 C2628 1.410 . S
C2627 C2635 1.503 . S
C2628 C2627 1.410 . S
C2628 C2629 1.392 . S
C2628 C2631 1.511 . S
C2629 C2625 1.376 . S
C2629 C2628 1.392 . S
C2629 H2641 0.929 . S
C2630 C2626 1.531 . S
C2630 H2642 0.960 . S
C2630 H2643 0.962 . S
C2630 H2644 0.960 . S
C2631 C2628 1.511 . S
C2631 H2645 0.961 . S
C2631 H2646 0.961 . S
C2631 H2647 0.961 . S
C2632 C2633 1.370 . S
C2632 C2634 1.363 . S
C2632 H2648 0.931 . S
C2633 C2632 1.370 . S
C2633 C2637 1.408 . S
C2634 C2632 1.363 . S
C2634 C2635 1.370 . S
C2634 C2638 1.524 . S
C2635 C2627 1.503 . S
C2635 C2634 1.370 . S
C2635 C2636 1.403 . S
C2636 C2635 1.403 . S
C2636 C2637 1.404 . S
C2636 C2639 1.539 . S
C2637 C2633 1.408 . S
C2637 C2636 1.404 . S
C2637 H2649 0.930 . S
C2638 C2634 1.524 . S
C2638 H2650 0.956 . S
C2638 H2651 0.961 . S
C2638 H2652 0.961 . S
C2639 C2636 1.539 . S
C2639 H2653 0.958 . S
C2639 H2654 0.961 . S
C2639 H2655 0.960 . S
H2640 C2624 0.931 . S
H2641 C2629 0.929 . S
H2642 C2630 0.960 . S
H2643 C2630 0.962 . S
H2644 C2630 0.960 . S
H2645 C2631 0.961 . S
H2646 C2631 0.961 . S
H2647 C2631 0.961 . S
H2648 C2632 0.931 . S
H2649 C2637 0.930 . S
H2650 C2638 0.956 . S
H2651 C2638 0.961 . S
H2652 C2638 0.961 . S
H2653 C2639 0.958 . S
H2654 C2639 0.961 . S
H2655 C2639 0.960 . S
C2656 C2657 1.391 . S
C2656 C2658 1.394 . S
C2656 H2672 0.931 . S
C2657 C2656 1.391 . S
C2657 C2661 1.376 . S
C2658 C2656 1.394 . S
C2658 C2659 1.369 . S
C2658 C2662 1.531 . S
C2659 C2658 1.369 . S
C2659 C2660 1.410 . S
C2659 C2667 1.503 1_545 S
C2660 C2659 1.410 . S
C2660 C2661 1.392 . S
C2660 C2663 1.511 . S
C2661 C2657 1.376 . S
C2661 C2660 1.392 . S
C2661 H2673 0.929 . S
C2662 C2658 1.531 . S
C2662 H2674 0.960 1_545 S
C2662 H2675 0.962 . S
C2662 H2676 0.960 . S
C2663 C2660 1.511 . S
C2663 H2677 0.961 . S
C2663 H2678 0.961 1_545 S
C2663 H2679 0.961 . S
C2664 C2665 1.370 . S
C2664 C2666 1.363 . S
C2664 H2680 0.931 . S
C2665 C2664 1.370 . S
C2665 C2669 1.408 . S
C2666 C2664 1.363 . S
C2666 C2667 1.370 . S
C2666 C2670 1.524 . S
C2667 C2659 1.503 1_565 S
C2667 C2666 1.370 . S
C2667 C2668 1.403 . S
C2668 C2667 1.403 . S
C2668 C2669 1.404 . S
C2668 C2671 1.539 . S
C2669 C2665 1.408 . S
C2669 C2668 1.404 . S
C2669 H2681 0.930 . S
C2670 C2666 1.524 . S
C2670 H2682 0.956 . S
C2670 H2683 0.961 1_565 S
C2670 H2684 0.961 . S
C2671 C2668 1.539 . S
C2671 H2685 0.958 . S
C2671 H2686 0.961 . S
C2671 H2687 0.945 1_565 S
H2672 C2656 0.931 . S
H2673 C2661 0.929 . S
H2674 C2662 0.960 1_565 S
H2675 C2662 0.962 . S
H2676 C2662 0.960 . S
H2677 C2663 0.961 . S
H2678 C2663 0.961 1_565 S
H2679 C2663 0.961 . S
H2680 C2664 0.931 . S
H2681 C2669 0.930 . S
H2682 C2670 0.956 . S
H2683 C2670 0.961 1_545 S
H2684 C2670 0.961 . S
H2685 C2671 0.958 . S
H2686 C2671 0.961 . S
H2687 C2671 0.945 1_545 S
C2688 C2689 1.391 . S
C2688 C2690 1.394 . S
C2688 H2704 0.931 . S
C2689 C2688 1.391 . S
C2689 C2693 1.376 . S
C2690 C2688 1.394 . S
C2690 C2691 1.369 . S
C2690 C2694 1.531 . S
C2691 C2690 1.369 . S
C2691 C2692 1.410 . S
C2691 C2699 1.503 . S
C2692 C2691 1.410 . S
C2692 C2693 1.392 . S
C2692 C2695 1.511 . S
C2693 C2689 1.376 . S
C2693 C2692 1.392 . S
C2693 H2705 0.929 . S
C2694 C2690 1.531 . S
C2694 H2706 0.960 . S
C2694 H2707 0.962 . S
C2694 H2708 0.960 . S
C2695 C2692 1.511 . S
C2695 H2709 0.961 . S
C2695 H2710 0.961 . S
C2695 H2711 0.961 . S
C2696 C2697 1.370 . S
C2696 C2698 1.363 . S
C2696 H2712 0.931 . S
C2697 C2696 1.370 . S
C2697 C2701 1.408 . S
C2698 C2696 1.363 . S
C2698 C2699 1.370 . S
C2698 C2702 1.524 . S
C2699 C2691 1.503 . S
C2699 C2698 1.370 . S
C2699 C2700 1.403 . S
C2700 C2699 1.403 . S
C2700 C2701 1.404 . S
C2700 C2703 1.539 . S
C2701 C2697 1.408 . S
C2701 C2700 1.404 . S
C2701 H2713 0.930 . S
C2702 C2698 1.524 . S
C2702 H2714 0.956 . S
C2702 H2715 0.961 . S
C2702 H2716 0.961 . S
C2703 C2700 1.539 . S
C2703 H2717 0.958 . S
C2703 H2718 0.961 . S
C2703 H2719 0.960 . S
H2704 C2688 0.931 . S
H2705 C2693 0.929 . S
H2706 C2694 0.960 . S
H2707 C2694 0.962 . S
H2708 C2694 0.960 . S
H2709 C2695 0.961 . S
H2710 C2695 0.961 . S
H2711 C2695 0.961 . S
H2712 C2696 0.931 . S
H2713 C2701 0.930 . S
H2714 C2702 0.956 . S
H2715 C2702 0.961 . S
H2716 C2702 0.961 . S
H2717 C2703 0.958 . S
H2718 C2703 0.961 . S
H2719 C2703 0.960 . S
C2720 C2721 1.391 . S
C2720 C2722 1.394 . S
C2720 H2736 0.931 . S
C2721 C2720 1.391 . S
C2721 C2725 1.376 . S
C2722 C2720 1.394 . S
C2722 C2723 1.369 . S
C2722 C2726 1.531 . S
C2723 C2722 1.369 . S
C2723 C2724 1.410 . S
C2723 C2731 1.503 1_556 S
C2724 C2723 1.410 . S
C2724 C2725 1.392 . S
C2724 C2727 1.511 . S
C2725 C2721 1.376 . S
C2725 C2724 1.392 . S
C2725 H2737 0.929 . S
C2726 C2722 1.531 . S
C2726 H2738 0.960 1_556 S
C2726 H2739 0.955 1_556 S
C2726 H2740 0.960 . S
C2727 C2724 1.511 . S
C2727 H2741 0.961 . S
C2727 H2742 0.961 1_556 S
C2727 H2743 0.961 . S
C2728 C2729 1.370 . S
C2728 C2730 1.363 . S
C2728 H2744 0.931 . S
C2729 C2728 1.370 . S
C2729 C2733 1.408 . S
C2730 C2728 1.363 . S
C2730 C2731 1.370 . S
C2730 C2734 1.524 . S
C2731 C2723 1.503 1_554 S
C2731 C2730 1.370 . S
C2731 C2732 1.403 . S
C2732 C2731 1.403 . S
C2732 C2733 1.404 . S
C2732 C2735 1.539 . S
C2733 C2729 1.408 . S
C2733 C2732 1.404 . S
C2733 H2745 0.930 . S
C2734 C2730 1.524 . S
C2734 H2746 0.956 . S
C2734 H2747 0.961 . S
C2734 H2748 0.961 . S
C2735 C2732 1.539 . S
C2735 H2749 0.958 . S
C2735 H2750 0.961 . S
C2735 H2751 0.960 . S
H2736 C2720 0.931 . S
H2737 C2725 0.929 . S
H2738 C2726 0.960 1_554 S
H2739 C2726 0.955 1_554 S
H2740 C2726 0.960 . S
H2741 C2727 0.961 . S
H2742 C2727 0.961 1_554 S
H2743 C2727 0.961 . S
H2744 C2728 0.931 . S
H2745 C2733 0.930 . S
H2746 C2734 0.956 . S
H2747 C2734 0.961 . S
H2748 C2734 0.961 . S
H2749 C2735 0.958 . S
H2750 C2735 0.961 . S
H2751 C2735 0.960 . S
C2752 C2753 1.391 . S
C2752 C2754 1.394 . S
C2752 H2768 0.931 . S
C2753 C2752 1.391 . S
C2753 C2757 1.376 . S
C2754 C2752 1.394 . S
C2754 C2755 1.369 . S
C2754 C2758 1.531 . S
C2755 C2754 1.369 . S
C2755 C2756 1.410 . S
C2755 C2763 1.503 1_556 S
C2756 C2755 1.410 . S
C2756 C2757 1.392 . S
C2756 C2759 1.511 . S
C2757 C2753 1.376 . S
C2757 C2756 1.392 . S
C2757 H2769 0.929 . S
C2758 C2754 1.531 . S
C2758 H2770 0.960 . S
C2758 H2771 0.962 . S
C2758 H2772 0.960 . S
C2759 C2756 1.511 . S
C2759 H2773 0.961 . S
C2759 H2774 0.961 . S
C2759 H2775 0.961 . S
C2760 C2761 1.370 . S
C2760 C2762 1.363 . S
C2760 H2776 0.931 . S
C2761 C2760 1.370 . S
C2761 C2765 1.408 . S
C2762 C2760 1.363 . S
C2762 C2763 1.370 . S
C2762 C2766 1.524 . S
C2763 C2755 1.503 1_554 S
C2763 C2762 1.370 . S
C2763 C2764 1.403 . S
C2764 C2763 1.403 . S
C2764 C2765 1.404 . S
C2764 C2767 1.539 . S
C2765 C2761 1.408 . S
C2765 C2764 1.404 . S
C2765 H2777 0.930 . S
C2766 C2762 1.524 . S
C2766 H2778 0.956 1_554 S
C2766 H2779 0.961 1_554 S
C2766 H2780 0.961 . S
C2767 C2764 1.539 . S
C2767 H2781 0.958 . S
C2767 H2782 0.961 . S
C2767 H2783 0.960 1_554 S
H2768 C2752 0.931 . S
H2769 C2757 0.929 . S
H2770 C2758 0.960 . S
H2771 C2758 0.962 . S
H2772 C2758 0.960 . S
H2773 C2759 0.961 . S
H2774 C2759 0.961 . S
H2775 C2759 0.961 . S
H2776 C2760 0.931 . S
H2777 C2765 0.930 . S
H2778 C2766 0.956 1_556 S
H2779 C2766 0.961 1_556 S
H2780 C2766 0.961 . S
H2781 C2767 0.958 . S
H2782 C2767 0.961 . S
H2783 C2767 0.960 1_556 S
C2784 C2785 1.391 . S
C2784 C2786 1.394 . S
C2784 H2800 0.931 . S
C2785 C2784 1.391 . S
C2785 C2789 1.376 . S
C2786 C2784 1.394 . S
C2786 C2787 1.369 . S
C2786 C2790 1.531 . S
C2787 C2786 1.369 . S
C2787 C2788 1.410 . S
C2787 C2795 1.503 . S
C2788 C2787 1.410 . S
C2788 C2789 1.392 . S
C2788 C2791 1.511 . S
C2789 C2785 1.376 . S
C2789 C2788 1.392 . S
C2789 H2801 0.929 . S
C2790 C2786 1.531 . S
C2790 H2802 0.960 . S
C2790 H2803 0.962 . S
C2790 H2804 0.960 . S
C2791 C2788 1.511 . S
C2791 H2805 0.961 . S
C2791 H2806 0.961 . S
C2791 H2807 0.961 . S
C2792 C2793 1.370 . S
C2792 C2794 1.363 . S
C2792 H2808 0.931 . S
C2793 C2792 1.370 . S
C2793 C2797 1.408 . S
C2794 C2792 1.363 . S
C2794 C2795 1.370 . S
C2794 C2798 1.524 . S
C2795 C2787 1.503 . S
C2795 C2794 1.370 . S
C2795 C2796 1.403 . S
C2796 C2795 1.403 . S
C2796 C2797 1.404 . S
C2796 C2799 1.539 . S
C2797 C2793 1.408 . S
C2797 C2796 1.404 . S
C2797 H2809 0.930 . S
C2798 C2794 1.524 . S
C2798 H2810 0.956 . S
C2798 H2811 0.961 . S
C2798 H2812 0.961 . S
C2799 C2796 1.539 . S
C2799 H2813 0.958 . S
C2799 H2814 0.961 . S
C2799 H2815 0.960 . S
H2800 C2784 0.931 . S
H2801 C2789 0.929 . S
H2802 C2790 0.960 . S
H2803 C2790 0.962 . S
H2804 C2790 0.960 . S
H2805 C2791 0.961 . S
H2806 C2791 0.961 . S
H2807 C2791 0.961 . S
H2808 C2792 0.931 . S
H2809 C2797 0.930 . S
H2810 C2798 0.956 . S
H2811 C2798 0.961 . S
H2812 C2798 0.961 . S
H2813 C2799 0.958 . S
H2814 C2799 0.961 . S
H2815 C2799 0.960 . S
C2816 C2817 1.391 . S
C2816 C2818 1.394 . S
C2816 H2832 0.931 . S
C2817 C2816 1.391 . S
C2817 C2821 1.376 . S
C2818 C2816 1.394 . S
C2818 C2819 1.369 . S
C2818 C2822 1.531 . S
C2819 C2818 1.369 . S
C2819 C2820 1.410 . S
C2819 C2827 1.503 1_556 S
C2820 C2819 1.410 . S
C2820 C2821 1.392 . S
C2820 C2823 1.511 . S
C2821 C2817 1.376 . S
C2821 C2820 1.392 . S
C2821 H2833 0.929 . S
C2822 C2818 1.531 . S
C2822 H2834 0.960 . S
C2822 H2835 0.962 . S
C2822 H2836 0.960 . S
C2823 C2820 1.511 . S
C2823 H2837 0.961 . S
C2823 H2838 0.961 . S
C2823 H2839 0.961 . S
C2824 C2825 1.370 . S
C2824 C2826 1.363 . S
C2824 H2840 0.931 . S
C2825 C2824 1.370 . S
C2825 C2829 1.408 . S
C2826 C2824 1.363 . S
C2826 C2827 1.370 . S
C2826 C2830 1.524 . S
C2827 C2819 1.503 1_554 S
C2827 C2826 1.370 . S
C2827 C2828 1.403 . S
C2828 C2827 1.403 . S
C2828 C2829 1.404 . S
C2828 C2831 1.539 . S
C2829 C2825 1.408 . S
C2829 C2828 1.404 . S
C2829 H2841 0.930 . S
C2830 C2826 1.524 . S
C2830 H2842 0.956 1_554 S
C2830 H2843 0.961 1_554 S
C2830 H2844 0.961 . S
C2831 C2828 1.539 . S
C2831 H2845 0.958 . S
C2831 H2846 0.961 . S
C2831 H2847 0.960 1_554 S
H2832 C2816 0.931 . S
H2833 C2821 0.929 . S
H2834 C2822 0.960 . S
H2835 C2822 0.962 . S
H2836 C2822 0.960 . S
H2837 C2823 0.961 . S
H2838 C2823 0.961 . S
H2839 C2823 0.961 . S
H2840 C2824 0.931 . S
H2841 C2829 0.930 . S
H2842 C2830 0.956 1_556 S
H2843 C2830 0.961 1_556 S
H2844 C2830 0.961 . S
H2845 C2831 0.958 . S
H2846 C2831 0.961 . S
H2847 C2831 0.960 1_556 S
C2848 C2849 1.391 . S
C2848 C2850 1.394 . S
C2848 H2864 0.931 . S
C2849 C2848 1.391 . S
C2849 C2853 1.376 . S
C2850 C2848 1.394 . S
C2850 C2851 1.369 . S
C2850 C2854 1.531 . S
C2851 C2850 1.369 . S
C2851 C2852 1.410 . S
C2851 C2859 1.503 . S
C2852 C2851 1.410 . S
C2852 C2853 1.392 . S
C2852 C2855 1.511 . S
C2853 C2849 1.376 . S
C2853 C2852 1.392 . S
C2853 H2865 0.929 . S
C2854 C2850 1.531 . S
C2854 H2866 0.960 . S
C2854 H2867 0.962 . S
C2854 H2868 0.960 . S
C2855 C2852 1.511 . S
C2855 H2869 0.961 . S
C2855 H2870 0.961 . S
C2855 H2871 0.961 . S
C2856 C2857 1.370 . S
C2856 C2858 1.363 . S
C2856 H2872 0.931 . S
C2857 C2856 1.370 . S
C2857 C2861 1.408 . S
C2858 C2856 1.363 . S
C2858 C2859 1.370 . S
C2858 C2862 1.524 . S
C2859 C2851 1.503 . S
C2859 C2858 1.370 . S
C2859 C2860 1.403 . S
C2860 C2859 1.403 . S
C2860 C2861 1.404 . S
C2860 C2863 1.539 . S
C2861 C2857 1.408 . S
C2861 C2860 1.404 . S
C2861 H2873 0.930 . S
C2862 C2858 1.524 . S
C2862 H2874 0.956 . S
C2862 H2875 0.961 . S
C2862 H2876 0.961 . S
C2863 C2860 1.539 . S
C2863 H2877 0.958 . S
C2863 H2878 0.961 . S
C2863 H2879 0.960 . S
H2864 C2848 0.931 . S
H2865 C2853 0.929 . S
H2866 C2854 0.960 . S
H2867 C2854 0.962 . S
H2868 C2854 0.960 . S
H2869 C2855 0.961 . S
H2870 C2855 0.961 . S
H2871 C2855 0.961 . S
H2872 C2856 0.931 . S
H2873 C2861 0.930 . S
H2874 C2862 0.956 . S
H2875 C2862 0.961 . S
H2876 C2862 0.961 . S
H2877 C2863 0.958 . S
H2878 C2863 0.961 . S
H2879 C2863 0.960 . S
C2880 C2881 1.391 . S
C2880 C2882 1.394 . S
C2880 H2896 0.931 . S
C2881 C2880 1.391 . S
C2881 C2885 1.376 . S
C2882 C2880 1.394 . S
C2882 C2883 1.369 . S
C2882 C2886 1.531 . S
C2883 C2882 1.369 . S
C2883 C2884 1.410 . S
C2883 C2891 1.503 1_556 S
C2884 C2883 1.410 . S
C2884 C2885 1.392 . S
C2884 C2887 1.511 . S
C2885 C2881 1.376 . S
C2885 C2884 1.392 . S
C2885 H2897 0.929 . S
C2886 C2882 1.531 . S
C2886 H2898 0.960 1_556 S
C2886 H2899 0.957 1_556 S
C2886 H2900 0.960 . S
C2887 C2884 1.511 . S
C2887 H2901 0.961 . S
C2887 H2902 0.961 1_556 S
C2887 H2903 0.957 1_556 S
C2888 C2889 1.370 . S
C2888 C2890 1.363 . S
C2888 H2904 0.931 . S
C2889 C2888 1.370 . S
C2889 C2893 1.408 . S
C2890 C2888 1.363 . S
C2890 C2891 1.370 . S
C2890 C2894 1.524 . S
C2891 C2883 1.503 1_554 S
C2891 C2890 1.370 . S
C2891 C2892 1.403 . S
C2892 C2891 1.403 . S
C2892 C2893 1.404 . S
C2892 C2895 1.539 . S
C2893 C2889 1.408 . S
C2893 C2892 1.404 . S
C2893 H2905 0.930 . S
C2894 C2890 1.524 . S
C2894 H2906 0.956 . S
C2894 H2907 0.961 . S
C2894 H2908 0.961 . S
C2895 C2892 1.539 . S
C2895 H2909 0.958 . S
C2895 H2910 0.961 . S
C2895 H2911 0.960 . S
H2896 C2880 0.931 . S
H2897 C2885 0.929 . S
H2898 C2886 0.960 1_554 S
H2899 C2886 0.957 1_554 S
H2900 C2886 0.960 . S
H2901 C2887 0.961 . S
H2902 C2887 0.961 1_554 S
H2903 C2887 0.957 1_554 S
H2904 C2888 0.931 . S
H2905 C2893 0.930 . S
H2906 C2894 0.956 . S
H2907 C2894 0.961 . S
H2908 C2894 0.961 . S
H2909 C2895 0.958 . S
H2910 C2895 0.961 . S
H2911 C2895 0.960 . S
C2912 C2913 1.391 . S
C2912 C2914 1.394 . S
C2912 H2928 0.931 . S
C2913 C2912 1.391 . S
C2913 C2917 1.376 . S
C2914 C2912 1.394 . S
C2914 C2915 1.369 . S
C2914 C2918 1.531 . S
C2915 C2914 1.369 . S
C2915 C2916 1.410 . S
C2915 C2923 1.503 . S
C2916 C2915 1.410 . S
C2916 C2917 1.392 . S
C2916 C2919 1.511 . S
C2917 C2913 1.376 . S
C2917 C2916 1.392 . S
C2917 H2929 0.929 . S
C2918 C2914 1.531 . S
C2918 H2930 0.960 . S
C2918 H2931 0.962 . S
C2918 H2932 0.960 . S
C2919 C2916 1.511 . S
C2919 H2933 0.961 . S
C2919 H2934 0.961 . S
C2919 H2935 0.961 . S
C2920 C2921 1.370 . S
C2920 C2922 1.363 . S
C2920 H2936 0.931 . S
C2921 C2920 1.370 . S
C2921 C2925 1.408 . S
C2922 C2920 1.363 . S
C2922 C2923 1.370 . S
C2922 C2926 1.524 . S
C2923 C2915 1.503 . S
C2923 C2922 1.370 . S
C2923 C2924 1.403 . S
C2924 C2923 1.403 . S
C2924 C2925 1.404 . S
C2924 C2927 1.539 . S
C2925 C2921 1.408 . S
C2925 C2924 1.404 . S
C2925 H2937 0.930 . S
C2926 C2922 1.524 . S
C2926 H2938 0.956 . S
C2926 H2939 0.961 . S
C2926 H2940 0.961 . S
C2927 C2924 1.539 . S
C2927 H2941 0.958 . S
C2927 H2942 0.961 . S
C2927 H2943 0.960 . S
H2928 C2912 0.931 . S
H2929 C2917 0.929 . S
H2930 C2918 0.960 . S
H2931 C2918 0.962 . S
H2932 C2918 0.960 . S
H2933 C2919 0.961 . S
H2934 C2919 0.961 . S
H2935 C2919 0.961 . S
H2936 C2920 0.931 . S
H2937 C2925 0.930 . S
H2938 C2926 0.956 . S
H2939 C2926 0.961 . S
H2940 C2926 0.961 . S
H2941 C2927 0.958 . S
H2942 C2927 0.961 . S
H2943 C2927 0.960 . S
C2944 C2945 1.391 . S
C2944 C2946 1.394 . S
C2944 H2960 0.931 . S
C2945 C2944 1.391 . S
C2945 C2949 1.376 . S
C2946 C2944 1.394 . S
C2946 C2947 1.369 . S
C2946 C2950 1.531 . S
C2947 C2946 1.369 . S
C2947 C2948 1.410 . S
C2947 C2955 1.503 . S
C2948 C2947 1.410 . S
C2948 C2949 1.392 . S
C2948 C2951 1.511 . S
C2949 C2945 1.376 . S
C2949 C2948 1.392 . S
C2949 H2961 0.929 . S
C2950 C2946 1.531 . S
C2950 H2962 0.960 . S
C2950 H2963 0.962 . S
C2950 H2964 0.960 . S
C2951 C2948 1.511 . S
C2951 H2965 0.961 . S
C2951 H2966 0.961 . S
C2951 H2967 0.961 . S
C2952 C2953 1.370 . S
C2952 C2954 1.363 . S
C2952 H2968 0.931 . S
C2953 C2952 1.370 . S
C2953 C2957 1.408 . S
C2954 C2952 1.363 . S
C2954 C2955 1.370 . S
C2954 C2958 1.524 . S
C2955 C2947 1.503 . S
C2955 C2954 1.370 . S
C2955 C2956 1.403 . S
C2956 C2955 1.403 . S
C2956 C2957 1.404 . S
C2956 C2959 1.539 . S
C2957 C2953 1.408 . S
C2957 C2956 1.404 . S
C2957 H2969 0.930 . S
C2958 C2954 1.524 . S
C2958 H2970 0.956 . S
C2958 H2971 0.961 . S
C2958 H2972 0.961 . S
C2959 C2956 1.539 . S
C2959 H2973 0.958 . S
C2959 H2974 0.961 . S
C2959 H2975 0.960 . S
H2960 C2944 0.931 . S
H2961 C2949 0.929 . S
H2962 C2950 0.960 . S
H2963 C2950 0.962 . S
H2964 C2950 0.960 . S
H2965 C2951 0.961 . S
H2966 C2951 0.961 . S
H2967 C2951 0.961 . S
H2968 C2952 0.931 . S
H2969 C2957 0.930 . S
H2970 C2958 0.956 . S
H2971 C2958 0.961 . S
H2972 C2958 0.961 . S
H2973 C2959 0.958 . S
H2974 C2959 0.961 . S
H2975 C2959 0.960 . S
C2976 C2977 1.391 . S
C2976 C2978 1.394 . S
C2976 H2992 0.931 . S
C2977 C2976 1.391 . S
C2977 C2981 1.376 . S
C2978 C2976 1.394 . S
C2978 C2979 1.369 . S
C2978 C2982 1.531 . S
C2979 C2978 1.369 . S
C2979 C2980 1.410 . S
C2979 C2987 1.503 . S
C2980 C2979 1.410 . S
C2980 C2981 1.392 . S
C2980 C2983 1.511 . S
C2981 C2977 1.376 . S
C2981 C2980 1.392 . S
C2981 H2993 0.929 . S
C2982 C2978 1.531 . S
C2982 H2994 0.960 . S
C2982 H2995 0.962 . S
C2982 H2996 0.960 . S
C2983 C2980 1.511 . S
C2983 H2997 0.961 . S
C2983 H2998 0.961 . S
C2983 H2999 0.961 . S
C2984 C2985 1.370 . S
C2984 C2986 1.363 . S
C2984 H3000 0.931 . S
C2985 C2984 1.370 . S
C2985 C2989 1.408 . S
C2986 C2984 1.363 . S
C2986 C2987 1.370 . S
C2986 C2990 1.524 . S
C2987 C2979 1.503 . S
C2987 C2986 1.370 . S
C2987 C2988 1.403 . S
C2988 C2987 1.403 . S
C2988 C2989 1.404 . S
C2988 C2991 1.539 . S
C2989 C2985 1.408 . S
C2989 C2988 1.404 . S
C2989 H3001 0.930 . S
C2990 C2986 1.524 . S
C2990 H3002 0.956 . S
C2990 H3003 0.961 . S
C2990 H3004 0.961 . S
C2991 C2988 1.539 . S
C2991 H3005 0.958 . S
C2991 H3006 0.961 . S
C2991 H3007 0.960 . S
H2992 C2976 0.931 . S
H2993 C2981 0.929 . S
H2994 C2982 0.960 . S
H2995 C2982 0.962 . S
H2996 C2982 0.960 . S
H2997 C2983 0.961 . S
H2998 C2983 0.961 . S
H2999 C2983 0.961 . S
H3000 C2984 0.931 . S
H3001 C2989 0.930 . S
H3002 C2990 0.956 . S
H3003 C2990 0.961 . S
H3004 C2990 0.961 . S
H3005 C2991 0.958 . S
H3006 C2991 0.961 . S
H3007 C2991 0.960 . S
C3008 C3009 1.391 . S
C3008 C3010 1.394 . S
C3008 H3024 0.931 . S
C3009 C3008 1.391 . S
C3009 C3013 1.376 . S
C3010 C3008 1.394 . S
C3010 C3011 1.369 . S
C3010 C3014 1.531 . S
C3011 C3010 1.369 . S
C3011 C3012 1.410 . S
C3011 C3019 1.503 . S
C3012 C3011 1.410 . S
C3012 C3013 1.392 . S
C3012 C3015 1.511 . S
C3013 C3009 1.376 . S
C3013 C3012 1.392 . S
C3013 H3025 0.929 . S
C3014 C3010 1.531 . S
C3014 H3026 0.960 . S
C3014 H3027 0.962 . S
C3014 H3028 0.960 . S
C3015 C3012 1.511 . S
C3015 H3029 0.961 . S
C3015 H3030 0.961 . S
C3015 H3031 0.961 . S
C3016 C3017 1.370 . S
C3016 C3018 1.363 . S
C3016 H3032 0.931 . S
C3017 C3016 1.370 . S
C3017 C3021 1.408 . S
C3018 C3016 1.363 . S
C3018 C3019 1.370 . S
C3018 C3022 1.524 . S
C3019 C3011 1.503 . S
C3019 C3018 1.370 . S
C3019 C3020 1.403 . S
C3020 C3019 1.403 . S
C3020 C3021 1.404 . S
C3020 C3023 1.539 . S
C3021 C3017 1.408 . S
C3021 C3020 1.404 . S
C3021 H3033 0.930 . S
C3022 C3018 1.524 . S
C3022 H3034 0.956 . S
C3022 H3035 0.961 . S
C3022 H3036 0.961 . S
C3023 C3020 1.539 . S
C3023 H3037 0.958 . S
C3023 H3038 0.961 . S
C3023 H3039 0.960 . S
H3024 C3008 0.931 . S
H3025 C3013 0.929 . S
H3026 C3014 0.960 . S
H3027 C3014 0.962 . S
H3028 C3014 0.960 . S
H3029 C3015 0.961 . S
H3030 C3015 0.961 . S
H3031 C3015 0.961 . S
H3032 C3016 0.931 . S
H3033 C3021 0.930 . S
H3034 C3022 0.956 . S
H3035 C3022 0.961 . S
H3036 C3022 0.961 . S
H3037 C3023 0.958 . S
H3038 C3023 0.961 . S
H3039 C3023 0.960 . S
C3040 C3041 1.391 . S
C3040 C3042 1.394 . S
C3040 H3056 0.931 . S
C3041 C3040 1.391 . S
C3041 C3045 1.376 . S
C3042 C3040 1.394 . S
C3042 C3043 1.369 . S
C3042 C3046 1.531 . S
C3043 C3042 1.369 . S
C3043 C3044 1.410 . S
C3043 C3051 1.503 . S
C3044 C3043 1.410 . S
C3044 C3045 1.392 . S
C3044 C3047 1.511 . S
C3045 C3041 1.376 . S
C3045 C3044 1.392 . S
C3045 H3057 0.929 . S
C3046 C3042 1.531 . S
C3046 H3058 0.960 . S
C3046 H3059 0.962 . S
C3046 H3060 0.960 . S
C3047 C3044 1.511 . S
C3047 H3061 0.961 . S
C3047 H3062 0.961 . S
C3047 H3063 0.961 . S
C3048 C3049 1.370 . S
C3048 C3050 1.363 . S
C3048 H3064 0.931 . S
C3049 C3048 1.370 . S
C3049 C3053 1.408 . S
C3050 C3048 1.363 . S
C3050 C3051 1.370 . S
C3050 C3054 1.524 . S
C3051 C3043 1.503 . S
C3051 C3050 1.370 . S
C3051 C3052 1.403 . S
C3052 C3051 1.403 . S
C3052 C3053 1.404 . S
C3052 C3055 1.539 . S
C3053 C3049 1.408 . S
C3053 C3052 1.404 . S
C3053 H3065 0.930 . S
C3054 C3050 1.524 . S
C3054 H3066 0.956 . S
C3054 H3067 0.961 . S
C3054 H3068 0.961 . S
C3055 C3052 1.539 . S
C3055 H3069 0.958 . S
C3055 H3070 0.961 . S
C3055 H3071 0.960 . S
H3056 C3040 0.931 . S
H3057 C3045 0.929 . S
H3058 C3046 0.960 . S
H3059 C3046 0.962 . S
H3060 C3046 0.960 . S
H3061 C3047 0.961 . S
H3062 C3047 0.961 . S
H3063 C3047 0.961 . S
H3064 C3048 0.931 . S
H3065 C3053 0.930 . S
H3066 C3054 0.956 . S
H3067 C3054 0.961 . S
H3068 C3054 0.961 . S
H3069 C3055 0.958 . S
H3070 C3055 0.961 . S
H3071 C3055 0.960 . S
C3072 C3073 1.391 . S
C3072 C3074 1.394 . S
C3072 H3088 0.931 . S
C3073 C3072 1.391 . S
C3073 C3077 1.376 . S
C3074 C3072 1.394 . S
C3074 C3075 1.369 . S
C3074 C3078 1.531 . S
C3075 C3074 1.369 . S
C3075 C3076 1.410 . S
C3075 C3083 1.503 . S
C3076 C3075 1.410 . S
C3076 C3077 1.392 . S
C3076 C3079 1.511 . S
C3077 C3073 1.376 . S
C3077 C3076 1.392 . S
C3077 H3089 0.929 . S
C3078 C3074 1.531 . S
C3078 H3090 0.960 . S
C3078 H3091 0.962 . S
C3078 H3092 0.960 . S
C3079 C3076 1.511 . S
C3079 H3093 0.961 . S
C3079 H3094 0.961 . S
C3079 H3095 0.961 . S
C3080 C3081 1.370 . S
C3080 C3082 1.363 . S
C3080 H3096 0.931 . S
C3081 C3080 1.370 . S
C3081 C3085 1.408 . S
C3082 C3080 1.363 . S
C3082 C3083 1.370 . S
C3082 C3086 1.524 . S
C3083 C3075 1.503 . S
C3083 C3082 1.370 . S
C3083 C3084 1.403 . S
C3084 C3083 1.403 . S
C3084 C3085 1.404 . S
C3084 C3087 1.539 . S
C3085 C3081 1.408 . S
C3085 C3084 1.404 . S
C3085 H3097 0.930 . S
C3086 C3082 1.524 . S
C3086 H3098 0.956 . S
C3086 H3099 0.961 . S
C3086 H3100 0.961 . S
C3087 C3084 1.539 . S
C3087 H3101 0.958 . S
C3087 H3102 0.961 . S
C3087 H3103 0.960 . S
H3088 C3072 0.931 . S
H3089 C3077 0.929 . S
H3090 C3078 0.960 . S
H3091 C3078 0.962 . S
H3092 C3078 0.960 . S
H3093 C3079 0.961 . S
H3094 C3079 0.961 . S
H3095 C3079 0.961 . S
H3096 C3080 0.931 . S
H3097 C3085 0.930 . S
H3098 C3086 0.956 . S
H3099 C3086 0.961 . S
H3100 C3086 0.961 . S
H3101 C3087 0.958 . S
H3102 C3087 0.961 . S
H3103 C3087 0.960 . S
C3104 C3105 1.391 . S
C3104 C3106 1.394 . S
C3104 H3120 0.931 . S
C3105 C3104 1.391 . S
C3105 C3109 1.376 . S
C3106 C3104 1.394 . S
C3106 C3107 1.369 . S
C3106 C3110 1.531 . S
C3107 C3106 1.369 . S
C3107 C3108 1.410 . S
C3107 C3115 1.503 . S
C3108 C3107 1.410 . S
C3108 C3109 1.392 . S
C3108 C3111 1.511 . S
C3109 C3105 1.376 . S
C3109 C3108 1.392 . S
C3109 H3121 0.929 . S
C3110 C3106 1.531 . S
C3110 H3122 0.960 . S
C3110 H3123 0.962 . S
C3110 H3124 0.960 . S
C3111 C3108 1.511 . S
C3111 H3125 0.961 . S
C3111 H3126 0.961 . S
C3111 H3127 0.961 . S
C3112 C3113 1.370 . S
C3112 C3114 1.363 . S
C3112 H3128 0.931 . S
C3113 C3112 1.370 . S
C3113 C3117 1.408 . S
C3114 C3112 1.363 . S
C3114 C3115 1.370 . S
C3114 C3118 1.524 . S
C3115 C3107 1.503 . S
C3115 C3114 1.370 . S
C3115 C3116 1.403 . S
C3116 C3115 1.403 . S
C3116 C3117 1.404 . S
C3116 C3119 1.539 . S
C3117 C3113 1.408 . S
C3117 C3116 1.404 . S
C3117 H3129 0.930 . S
C3118 C3114 1.524 . S
C3118 H3130 0.956 . S
C3118 H3131 0.961 . S
C3118 H3132 0.961 . S
C3119 C3116 1.539 . S
C3119 H3133 0.958 . S
C3119 H3134 0.961 . S
C3119 H3135 0.960 . S
H3120 C3104 0.931 . S
H3121 C3109 0.929 . S
H3122 C3110 0.960 . S
H3123 C3110 0.962 . S
H3124 C3110 0.960 . S
H3125 C3111 0.961 . S
H3126 C3111 0.961 . S
H3127 C3111 0.961 . S
H3128 C3112 0.931 . S
H3129 C3117 0.930 . S
H3130 C3118 0.956 . S
H3131 C3118 0.961 . S
H3132 C3118 0.961 . S
H3133 C3119 0.958 . S
H3134 C3119 0.961 . S
H3135 C3119 0.960 . S
C3136 C3137 1.391 . S
C3136 C3138 1.394 . S
C3136 H3152 0.931 . S
C3137 C3136 1.391 . S
C3137 C3141 1.376 . S
C3138 C3136 1.394 . S
C3138 C3139 1.369 . S
C3138 C3142 1.531 . S
C3139 C3138 1.369 . S
C3139 C3140 1.410 . S
C3139 C3147 1.503 . S
C3140 C3139 1.410 . S
C3140 C3141 1.392 . S
C3140 C3143 1.511 . S
C3141 C3137 1.376 . S
C3141 C3140 1.392 . S
C3141 H3153 0.929 . S
C3142 C3138 1.531 . S
C3142 H3154 0.960 . S
C3142 H3155 0.962 . S
C3142 H3156 0.960 . S
C3143 C3140 1.511 . S
C3143 H3157 0.961 . S
C3143 H3158 0.961 . S
C3143 H3159 0.961 . S
C3144 C3145 1.370 . S
C3144 C3146 1.363 . S
C3144 H3160 0.931 . S
C3145 C3144 1.370 . S
C3145 C3149 1.408 . S
C3146 C3144 1.363 . S
C3146 C3147 1.370 . S
C3146 C3150 1.524 . S
C3147 C3139 1.503 . S
C3147 C3146 1.370 . S
C3147 C3148 1.403 . S
C3148 C3147 1.403 . S
C3148 C3149 1.404 . S
C3148 C3151 1.539 . S
C3149 C3145 1.408 . S
C3149 C3148 1.404 . S
C3149 H3161 0.930 . S
C3150 C3146 1.524 . S
C3150 H3162 0.956 . S
C3150 H3163 0.961 . S
C3150 H3164 0.961 . S
C3151 C3148 1.539 . S
C3151 H3165 0.958 . S
C3151 H3166 0.961 . S
C3151 H3167 0.960 . S
H3152 C3136 0.931 . S
H3153 C3141 0.929 . S
H3154 C3142 0.960 . S
H3155 C3142 0.962 . S
H3156 C3142 0.960 . S
H3157 C3143 0.961 . S
H3158 C3143 0.961 . S
H3159 C3143 0.961 . S
H3160 C3144 0.931 . S
H3161 C3149 0.930 . S
H3162 C3150 0.956 . S
H3163 C3150 0.961 . S
H3164 C3150 0.961 . S
H3165 C3151 0.958 . S
H3166 C3151 0.961 . S
H3167 C3151 0.960 . S
C3168 C3169 1.391 . S
C3168 C3170 1.394 . S
C3168 H3184 0.931 . S
C3169 C3168 1.391 . S
C3169 C3173 1.376 . S
C3170 C3168 1.394 . S
C3170 C3171 1.369 . S
C3170 C3174 1.531 . S
C3171 C3170 1.369 . S
C3171 C3172 1.410 . S
C3171 C3179 1.503 . S
C3172 C3171 1.410 . S
C3172 C3173 1.392 . S
C3172 C3175 1.511 . S
C3173 C3169 1.376 . S
C3173 C3172 1.392 . S
C3173 H3185 0.929 . S
C3174 C3170 1.531 . S
C3174 H3186 0.960 . S
C3174 H3187 0.962 . S
C3174 H3188 0.960 . S
C3175 C3172 1.511 . S
C3175 H3189 0.961 . S
C3175 H3190 0.961 . S
C3175 H3191 0.961 . S
C3176 C3177 1.370 . S
C3176 C3178 1.363 . S
C3176 H3192 0.931 . S
C3177 C3176 1.370 . S
C3177 C3181 1.408 . S
C3178 C3176 1.363 . S
C3178 C3179 1.370 . S
C3178 C3182 1.524 . S
C3179 C3171 1.503 . S
C3179 C3178 1.370 . S
C3179 C3180 1.403 . S
C3180 C3179 1.403 . S
C3180 C3181 1.404 . S
C3180 C3183 1.539 . S
C3181 C3177 1.408 . S
C3181 C3180 1.404 . S
C3181 H3193 0.930 . S
C3182 C3178 1.524 . S
C3182 H3194 0.956 . S
C3182 H3195 0.961 . S
C3182 H3196 0.961 . S
C3183 C3180 1.539 . S
C3183 H3197 0.958 . S
C3183 H3198 0.961 . S
C3183 H3199 0.960 . S
H3184 C3168 0.931 . S
H3185 C3173 0.929 . S
H3186 C3174 0.960 . S
H3187 C3174 0.962 . S
H3188 C3174 0.960 . S
H3189 C3175 0.961 . S
H3190 C3175 0.961 . S
H3191 C3175 0.961 . S
H3192 C3176 0.931 . S
H3193 C3181 0.930 . S
H3194 C3182 0.956 . S
H3195 C3182 0.961 . S
H3196 C3182 0.961 . S
H3197 C3183 0.958 . S
H3198 C3183 0.961 . S
H3199 C3183 0.960 . S
C3200 C3201 1.391 . S
C3200 C3202 1.394 . S
C3200 H3216 0.931 . S
C3201 C3200 1.391 . S
C3201 C3205 1.376 . S
C3202 C3200 1.394 . S
C3202 C3203 1.369 . S
C3202 C3206 1.531 . S
C3203 C3202 1.369 . S
C3203 C3204 1.410 . S
C3203 C3211 1.503 . S
C3204 C3203 1.410 . S
C3204 C3205 1.392 . S
C3204 C3207 1.511 . S
C3205 C3201 1.376 . S
C3205 C3204 1.392 . S
C3205 H3217 0.929 . S
C3206 C3202 1.531 . S
C3206 H3218 0.960 . S
C3206 H3219 0.962 . S
C3206 H3220 0.960 . S
C3207 C3204 1.511 . S
C3207 H3221 0.961 . S
C3207 H3222 0.961 . S
C3207 H3223 0.961 . S
C3208 C3209 1.370 . S
C3208 C3210 1.363 . S
C3208 H3224 0.931 . S
C3209 C3208 1.370 . S
C3209 C3213 1.408 . S
C3210 C3208 1.363 . S
C3210 C3211 1.370 . S
C3210 C3214 1.524 . S
C3211 C3203 1.503 . S
C3211 C3210 1.370 . S
C3211 C3212 1.403 . S
C3212 C3211 1.403 . S
C3212 C3213 1.404 . S
C3212 C3215 1.539 . S
C3213 C3209 1.408 . S
C3213 C3212 1.404 . S
C3213 H3225 0.930 . S
C3214 C3210 1.524 . S
C3214 H3226 0.956 . S
C3214 H3227 0.961 . S
C3214 H3228 0.961 . S
C3215 C3212 1.539 . S
C3215 H3229 0.958 . S
C3215 H3230 0.961 . S
C3215 H3231 0.960 . S
H3216 C3200 0.931 . S
H3217 C3205 0.929 . S
H3218 C3206 0.960 . S
H3219 C3206 0.962 . S
H3220 C3206 0.960 . S
H3221 C3207 0.961 . S
H3222 C3207 0.961 . S
H3223 C3207 0.961 . S
H3224 C3208 0.931 . S
H3225 C3213 0.930 . S
H3226 C3214 0.956 . S
H3227 C3214 0.961 . S
H3228 C3214 0.961 . S
H3229 C3215 0.958 . S
H3230 C3215 0.961 . S
H3231 C3215 0.960 . S
C3232 C3233 1.391 . S
C3232 C3234 1.394 . S
C3232 H3248 0.931 . S
C3233 C3232 1.391 . S
C3233 C3237 1.376 . S
C3234 C3232 1.394 . S
C3234 C3235 1.369 . S
C3234 C3238 1.531 . S
C3235 C3234 1.369 . S
C3235 C3236 1.410 . S
C3235 C3243 1.503 . S
C3236 C3235 1.410 . S
C3236 C3237 1.392 . S
C3236 C3239 1.511 . S
C3237 C3233 1.376 . S
C3237 C3236 1.392 . S
C3237 H3249 0.929 . S
C3238 C3234 1.531 . S
C3238 H3250 0.960 . S
C3238 H3251 0.962 . S
C3238 H3252 0.960 . S
C3239 C3236 1.511 . S
C3239 H3253 0.961 . S
C3239 H3254 0.961 . S
C3239 H3255 0.961 . S
C3240 C3241 1.370 . S
C3240 C3242 1.363 . S
C3240 H3256 0.931 . S
C3241 C3240 1.370 . S
C3241 C3245 1.408 . S
C3242 C3240 1.363 . S
C3242 C3243 1.370 . S
C3242 C3246 1.524 . S
C3243 C3235 1.503 . S
C3243 C3242 1.370 . S
C3243 C3244 1.403 . S
C3244 C3243 1.403 . S
C3244 C3245 1.404 . S
C3244 C3247 1.539 . S
C3245 C3241 1.408 . S
C3245 C3244 1.404 . S
C3245 H3257 0.930 . S
C3246 C3242 1.524 . S
C3246 H3258 0.956 . S
C3246 H3259 0.961 . S
C3246 H3260 0.961 . S
C3247 C3244 1.539 . S
C3247 H3261 0.958 . S
C3247 H3262 0.961 . S
C3247 H3263 0.960 . S
H3248 C3232 0.931 . S
H3249 C3237 0.929 . S
H3250 C3238 0.960 . S
H3251 C3238 0.962 . S
H3252 C3238 0.960 . S
H3253 C3239 0.961 . S
H3254 C3239 0.961 . S
H3255 C3239 0.961 . S
H3256 C3240 0.931 . S
H3257 C3245 0.930 . S
H3258 C3246 0.956 . S
H3259 C3246 0.961 . S
H3260 C3246 0.961 . S
H3261 C3247 0.958 . S
H3262 C3247 0.961 . S
H3263 C3247 0.960 . S
C3264 C3265 1.391 . S
C3264 C3266 1.394 . S
C3264 H3280 0.931 . S
C3265 C3264 1.391 . S
C3265 C3269 1.376 . S
C3266 C3264 1.394 . S
C3266 C3267 1.369 . S
C3266 C3270 1.531 . S
C3267 C3266 1.369 . S
C3267 C3268 1.410 . S
C3267 C3275 1.503 . S
C3268 C3267 1.410 . S
C3268 C3269 1.392 . S
C3268 C3271 1.511 . S
C3269 C3265 1.376 . S
C3269 C3268 1.392 . S
C3269 H3281 0.929 . S
C3270 C3266 1.531 . S
C3270 H3282 0.960 . S
C3270 H3283 0.962 . S
C3270 H3284 0.960 . S
C3271 C3268 1.511 . S
C3271 H3285 0.961 . S
C3271 H3286 0.961 . S
C3271 H3287 0.961 . S
C3272 C3273 1.370 . S
C3272 C3274 1.363 . S
C3272 H3288 0.931 . S
C3273 C3272 1.370 . S
C3273 C3277 1.408 . S
C3274 C3272 1.363 . S
C3274 C3275 1.370 . S
C3274 C3278 1.524 . S
C3275 C3267 1.503 . S
C3275 C3274 1.370 . S
C3275 C3276 1.403 . S
C3276 C3275 1.403 . S
C3276 C3277 1.404 . S
C3276 C3279 1.539 . S
C3277 C3273 1.408 . S
C3277 C3276 1.404 . S
C3277 H3289 0.930 . S
C3278 C3274 1.524 . S
C3278 H3290 0.956 . S
C3278 H3291 0.961 . S
C3278 H3292 0.961 . S
C3279 C3276 1.539 . S
C3279 H3293 0.958 . S
C3279 H3294 0.961 . S
C3279 H3295 0.960 . S
H3280 C3264 0.931 . S
H3281 C3269 0.929 . S
H3282 C3270 0.960 . S
H3283 C3270 0.962 . S
H3284 C3270 0.960 . S
H3285 C3271 0.961 . S
H3286 C3271 0.961 . S
H3287 C3271 0.961 . S
H3288 C3272 0.931 . S
H3289 C3277 0.930 . S
H3290 C3278 0.956 . S
H3291 C3278 0.961 . S
H3292 C3278 0.961 . S
H3293 C3279 0.958 . S
H3294 C3279 0.961 . S
H3295 C3279 0.960 . S
C3296 C3297 1.391 . S
C3296 C3298 1.394 . S
C3296 H3312 0.931 . S
C3297 C3296 1.391 . S
C3297 C3301 1.376 . S
C3298 C3296 1.394 . S
C3298 C3299 1.369 . S
C3298 C3302 1.531 . S
C3299 C3298 1.369 . S
C3299 C3300 1.410 . S
C3299 C3307 1.503 . S
C3300 C3299 1.410 . S
C3300 C3301 1.392 . S
C3300 C3303 1.511 . S
C3301 C3297 1.376 . S
C3301 C3300 1.392 . S
C3301 H3313 0.929 . S
C3302 C3298 1.531 . S
C3302 H3314 0.960 . S
C3302 H3315 0.962 . S
C3302 H3316 0.960 . S
C3303 C3300 1.511 . S
C3303 H3317 0.961 . S
C3303 H3318 0.961 . S
C3303 H3319 0.961 . S
C3304 C3305 1.370 . S
C3304 C3306 1.363 . S
C3304 H3320 0.931 . S
C3305 C3304 1.370 . S
C3305 C3309 1.408 . S
C3306 C3304 1.363 . S
C3306 C3307 1.370 . S
C3306 C3310 1.524 . S
C3307 C3299 1.503 . S
C3307 C3306 1.370 . S
C3307 C3308 1.403 . S
C3308 C3307 1.403 . S
C3308 C3309 1.404 . S
C3308 C3311 1.539 . S
C3309 C3305 1.408 . S
C3309 C3308 1.404 . S
C3309 H3321 0.930 . S
C3310 C3306 1.524 . S
C3310 H3322 0.956 . S
C3310 H3323 0.961 . S
C3310 H3324 0.961 . S
C3311 C3308 1.539 . S
C3311 H3325 0.958 . S
C3311 H3326 0.961 . S
C3311 H3327 0.960 . S
H3312 C3296 0.931 . S
H3313 C3301 0.929 . S
H3314 C3302 0.960 . S
H3315 C3302 0.962 . S
H3316 C3302 0.960 . S
H3317 C3303 0.961 . S
H3318 C3303 0.961 . S
H3319 C3303 0.961 . S
H3320 C3304 0.931 . S
H3321 C3309 0.930 . S
H3322 C3310 0.956 . S
H3323 C3310 0.961 . S
H3324 C3310 0.961 . S
H3325 C3311 0.958 . S
H3326 C3311 0.961 . S
H3327 C3311 0.960 . S
C3328 C3329 1.391 . S
C3328 C3330 1.394 . S
C3328 H3344 0.931 . S
C3329 C3328 1.391 . S
C3329 C3333 1.376 . S
C3330 C3328 1.394 . S
C3330 C3331 1.369 . S
C3330 C3334 1.531 . S
C3331 C3330 1.369 . S
C3331 C3332 1.410 . S
C3331 C3339 1.503 . S
C3332 C3331 1.410 . S
C3332 C3333 1.392 . S
C3332 C3335 1.511 . S
C3333 C3329 1.376 . S
C3333 C3332 1.392 . S
C3333 H3345 0.929 . S
C3334 C3330 1.531 . S
C3334 H3346 0.960 . S
C3334 H3347 0.962 . S
C3334 H3348 0.960 . S
C3335 C3332 1.511 . S
C3335 H3349 0.961 . S
C3335 H3350 0.961 . S
C3335 H3351 0.961 . S
C3336 C3337 1.370 . S
C3336 C3338 1.363 . S
C3336 H3352 0.931 . S
C3337 C3336 1.370 . S
C3337 C3341 1.408 . S
C3338 C3336 1.363 . S
C3338 C3339 1.370 . S
C3338 C3342 1.524 . S
C3339 C3331 1.503 . S
C3339 C3338 1.370 . S
C3339 C3340 1.403 . S
C3340 C3339 1.403 . S
C3340 C3341 1.404 . S
C3340 C3343 1.539 . S
C3341 C3337 1.408 . S
C3341 C3340 1.404 . S
C3341 H3353 0.930 . S
C3342 C3338 1.524 . S
C3342 H3354 0.956 . S
C3342 H3355 0.961 . S
C3342 H3356 0.961 . S
C3343 C3340 1.539 . S
C3343 H3357 0.958 . S
C3343 H3358 0.961 . S
C3343 H3359 0.960 . S
H3344 C3328 0.931 . S
H3345 C3333 0.929 . S
H3346 C3334 0.960 . S
H3347 C3334 0.962 . S
H3348 C3334 0.960 . S
H3349 C3335 0.961 . S
H3350 C3335 0.961 . S
H3351 C3335 0.961 . S
H3352 C3336 0.931 . S
H3353 C3341 0.930 . S
H3354 C3342 0.956 . S
H3355 C3342 0.961 . S
H3356 C3342 0.961 . S
H3357 C3343 0.958 . S
H3358 C3343 0.961 . S
H3359 C3343 0.960 . S
C3360 C3361 1.391 . S
C3360 C3362 1.394 . S
C3360 H3376 0.931 . S
C3361 C3360 1.391 . S
C3361 C3365 1.376 . S
C3362 C3360 1.394 . S
C3362 C3363 1.369 . S
C3362 C3366 1.531 . S
C3363 C3362 1.369 . S
C3363 C3364 1.410 . S
C3363 C3371 1.503 . S
C3364 C3363 1.410 . S
C3364 C3365 1.392 . S
C3364 C3367 1.511 . S
C3365 C3361 1.376 . S
C3365 C3364 1.392 . S
C3365 H3377 0.929 . S
C3366 C3362 1.531 . S
C3366 H3378 0.960 . S
C3366 H3379 0.962 . S
C3366 H3380 0.960 . S
C3367 C3364 1.511 . S
C3367 H3381 0.961 . S
C3367 H3382 0.961 . S
C3367 H3383 0.961 . S
C3368 C3369 1.370 . S
C3368 C3370 1.363 . S
C3368 H3384 0.931 . S
C3369 C3368 1.370 . S
C3369 C3373 1.408 . S
C3370 C3368 1.363 . S
C3370 C3371 1.370 . S
C3370 C3374 1.524 . S
C3371 C3363 1.503 . S
C3371 C3370 1.370 . S
C3371 C3372 1.403 . S
C3372 C3371 1.403 . S
C3372 C3373 1.404 . S
C3372 C3375 1.539 . S
C3373 C3369 1.408 . S
C3373 C3372 1.404 . S
C3373 H3385 0.930 . S
C3374 C3370 1.524 . S
C3374 H3386 0.956 . S
C3374 H3387 0.961 . S
C3374 H3388 0.961 . S
C3375 C3372 1.539 . S
C3375 H3389 0.958 . S
C3375 H3390 0.961 . S
C3375 H3391 0.960 . S
H3376 C3360 0.931 . S
H3377 C3365 0.929 . S
H3378 C3366 0.960 . S
H3379 C3366 0.962 . S
H3380 C3366 0.960 . S
H3381 C3367 0.961 . S
H3382 C3367 0.961 . S
H3383 C3367 0.961 . S
H3384 C3368 0.931 . S
H3385 C3373 0.930 . S
H3386 C3374 0.956 . S
H3387 C3374 0.961 . S
H3388 C3374 0.961 . S
H3389 C3375 0.958 . S
H3390 C3375 0.961 . S
H3391 C3375 0.960 . S
C3392 C3393 1.391 . S
C3392 C3394 1.394 . S
C3392 H3408 0.931 . S
C3393 C3392 1.391 . S
C3393 C3397 1.376 . S
C3394 C3392 1.394 . S
C3394 C3395 1.369 . S
C3394 C3398 1.531 . S
C3395 C3394 1.369 . S
C3395 C3396 1.410 . S
C3395 C3403 1.503 . S
C3396 C3395 1.410 . S
C3396 C3397 1.392 . S
C3396 C3399 1.511 . S
C3397 C3393 1.376 . S
C3397 C3396 1.392 . S
C3397 H3409 0.929 . S
C3398 C3394 1.531 . S
C3398 H3410 0.960 . S
C3398 H3411 0.962 . S
C3398 H3412 0.960 . S
C3399 C3396 1.511 . S
C3399 H3413 0.961 . S
C3399 H3414 0.961 . S
C3399 H3415 0.961 . S
C3400 C3401 1.370 . S
C3400 C3402 1.363 . S
C3400 H3416 0.931 . S
C3401 C3400 1.370 . S
C3401 C3405 1.408 . S
C3402 C3400 1.363 . S
C3402 C3403 1.370 . S
C3402 C3406 1.524 . S
C3403 C3395 1.503 . S
C3403 C3402 1.370 . S
C3403 C3404 1.403 . S
C3404 C3403 1.403 . S
C3404 C3405 1.404 . S
C3404 C3407 1.539 . S
C3405 C3401 1.408 . S
C3405 C3404 1.404 . S
C3405 H3417 0.930 . S
C3406 C3402 1.524 . S
C3406 H3418 0.956 . S
C3406 H3419 0.961 . S
C3406 H3420 0.961 . S
C3407 C3404 1.539 . S
C3407 H3421 0.958 . S
C3407 H3422 0.961 . S
C3407 H3423 0.960 . S
H3408 C3392 0.931 . S
H3409 C3397 0.929 . S
H3410 C3398 0.960 . S
H3411 C3398 0.962 . S
H3412 C3398 0.960 . S
H3413 C3399 0.961 . S
H3414 C3399 0.961 . S
H3415 C3399 0.961 . S
H3416 C3400 0.931 . S
H3417 C3405 0.930 . S
H3418 C3406 0.956 . S
H3419 C3406 0.961 . S
H3420 C3406 0.961 . S
H3421 C3407 0.958 . S
H3422 C3407 0.961 . S
H3423 C3407 0.960 . S
C3424 C3425 1.391 . S
C3424 C3426 1.394 . S
C3424 H3440 0.931 . S
C3425 C3424 1.391 . S
C3425 C3429 1.376 . S
C3426 C3424 1.394 . S
C3426 C3427 1.369 . S
C3426 C3430 1.531 . S
C3427 C3426 1.369 . S
C3427 C3428 1.410 . S
C3427 C3435 1.503 . S
C3428 C3427 1.410 . S
C3428 C3429 1.392 . S
C3428 C3431 1.511 . S
C3429 C3425 1.376 . S
C3429 C3428 1.392 . S
C3429 H3441 0.929 . S
C3430 C3426 1.531 . S
C3430 H3442 0.960 . S
C3430 H3443 0.962 . S
C3430 H3444 0.960 . S
C3431 C3428 1.511 . S
C3431 H3445 0.961 . S
C3431 H3446 0.961 . S
C3431 H3447 0.961 . S
C3432 C3433 1.370 . S
C3432 C3434 1.363 . S
C3432 H3448 0.931 . S
C3433 C3432 1.370 . S
C3433 C3437 1.408 . S
C3434 C3432 1.363 . S
C3434 C3435 1.370 . S
C3434 C3438 1.524 . S
C3435 C3427 1.503 . S
C3435 C3434 1.370 . S
C3435 C3436 1.403 . S
C3436 C3435 1.403 . S
C3436 C3437 1.404 . S
C3436 C3439 1.539 . S
C3437 C3433 1.408 . S
C3437 C3436 1.404 . S
C3437 H3449 0.930 . S
C3438 C3434 1.524 . S
C3438 H3450 0.956 . S
C3438 H3451 0.961 . S
C3438 H3452 0.961 . S
C3439 C3436 1.539 . S
C3439 H3453 0.958 . S
C3439 H3454 0.961 . S
C3439 H3455 0.960 . S
H3440 C3424 0.931 . S
H3441 C3429 0.929 . S
H3442 C3430 0.960 . S
H3443 C3430 0.962 . S
H3444 C3430 0.960 . S
H3445 C3431 0.961 . S
H3446 C3431 0.961 . S
H3447 C3431 0.961 . S
H3448 C3432 0.931 . S
H3449 C3437 0.930 . S
H3450 C3438 0.956 . S
H3451 C3438 0.961 . S
H3452 C3438 0.961 . S
H3453 C3439 0.958 . S
H3454 C3439 0.961 . S
H3455 C3439 0.960 . S
C3456 C3457 1.391 . S
C3456 C3458 1.394 . S
C3456 H3472 0.931 . S
C3457 C3456 1.391 . S
C3457 C3461 1.376 . S
C3458 C3456 1.394 . S
C3458 C3459 1.369 . S
C3458 C3462 1.531 . S
C3459 C3458 1.369 . S
C3459 C3460 1.410 . S
C3459 C3467 1.503 . S
C3460 C3459 1.410 . S
C3460 C3461 1.392 . S
C3460 C3463 1.511 . S
C3461 C3457 1.376 . S
C3461 C3460 1.392 . S
C3461 H3473 0.929 . S
C3462 C3458 1.531 . S
C3462 H3474 0.960 . S
C3462 H3475 0.962 . S
C3462 H3476 0.960 . S
C3463 C3460 1.511 . S
C3463 H3477 0.961 . S
C3463 H3478 0.961 . S
C3463 H3479 0.961 . S
C3464 C3465 1.370 . S
C3464 C3466 1.363 . S
C3464 H3480 0.931 . S
C3465 C3464 1.370 . S
C3465 C3469 1.408 . S
C3466 C3464 1.363 . S
C3466 C3467 1.370 . S
C3466 C3470 1.524 . S
C3467 C3459 1.503 . S
C3467 C3466 1.370 . S
C3467 C3468 1.403 . S
C3468 C3467 1.403 . S
C3468 C3469 1.404 . S
C3468 C3471 1.539 . S
C3469 C3465 1.408 . S
C3469 C3468 1.404 . S
C3469 H3481 0.930 . S
C3470 C3466 1.524 . S
C3470 H3482 0.956 . S
C3470 H3483 0.961 . S
C3470 H3484 0.961 . S
C3471 C3468 1.539 . S
C3471 H3485 0.958 . S
C3471 H3486 0.961 . S
C3471 H3487 0.960 . S
H3472 C3456 0.931 . S
H3473 C3461 0.929 . S
H3474 C3462 0.960 . S
H3475 C3462 0.962 . S
H3476 C3462 0.960 . S
H3477 C3463 0.961 . S
H3478 C3463 0.961 . S
H3479 C3463 0.961 . S
H3480 C3464 0.931 . S
H3481 C3469 0.930 . S
H3482 C3470 0.956 . S
H3483 C3470 0.961 . S
H3484 C3470 0.961 . S
H3485 C3471 0.958 . S
H3486 C3471 0.961 . S
H3487 C3471 0.960 . S
C3488 C3489 1.391 . S
C3488 C3490 1.394 . S
C3488 H3504 0.931 . S
C3489 C3488 1.391 . S
C3489 C3493 1.376 . S
C3490 C3488 1.394 . S
C3490 C3491 1.369 . S
C3490 C3494 1.531 . S
C3491 C3490 1.369 . S
C3491 C3492 1.410 . S
C3491 C3499 1.503 . S
C3492 C3491 1.410 . S
C3492 C3493 1.392 . S
C3492 C3495 1.511 . S
C3493 C3489 1.376 . S
C3493 C3492 1.392 . S
C3493 H3505 0.929 . S
C3494 C3490 1.531 . S
C3494 H3506 0.960 . S
C3494 H3507 0.962 . S
C3494 H3508 0.960 . S
C3495 C3492 1.511 . S
C3495 H3509 0.961 . S
C3495 H3510 0.961 . S
C3495 H3511 0.961 . S
C3496 C3497 1.370 . S
C3496 C3498 1.363 . S
C3496 H3512 0.931 . S
C3497 C3496 1.370 . S
C3497 C3501 1.408 . S
C3498 C3496 1.363 . S
C3498 C3499 1.370 . S
C3498 C3502 1.524 . S
C3499 C3491 1.503 . S
C3499 C3498 1.370 . S
C3499 C3500 1.403 . S
C3500 C3499 1.403 . S
C3500 C3501 1.404 . S
C3500 C3503 1.539 . S
C3501 C3497 1.408 . S
C3501 C3500 1.404 . S
C3501 H3513 0.930 . S
C3502 C3498 1.524 . S
C3502 H3514 0.956 . S
C3502 H3515 0.961 . S
C3502 H3516 0.961 . S
C3503 C3500 1.539 . S
C3503 H3517 0.958 . S
C3503 H3518 0.961 . S
C3503 H3519 0.960 . S
H3504 C3488 0.931 . S
H3505 C3493 0.929 . S
H3506 C3494 0.960 . S
H3507 C3494 0.962 . S
H3508 C3494 0.960 . S
H3509 C3495 0.961 . S
H3510 C3495 0.961 . S
H3511 C3495 0.961 . S
H3512 C3496 0.931 . S
H3513 C3501 0.930 . S
H3514 C3502 0.956 . S
H3515 C3502 0.961 . S
H3516 C3502 0.961 . S
H3517 C3503 0.958 . S
H3518 C3503 0.961 . S
H3519 C3503 0.960 . S
C3520 C3521 1.391 . S
C3520 C3522 1.394 . S
C3520 H3536 0.931 . S
C3521 C3520 1.391 . S
C3521 C3525 1.376 . S
C3522 C3520 1.394 . S
C3522 C3523 1.369 . S
C3522 C3526 1.531 . S
C3523 C3522 1.369 . S
C3523 C3524 1.410 . S
C3523 C3531 1.503 . S
C3524 C3523 1.410 . S
C3524 C3525 1.392 . S
C3524 C3527 1.511 . S
C3525 C3521 1.376 . S
C3525 C3524 1.392 . S
C3525 H3537 0.929 . S
C3526 C3522 1.531 . S
C3526 H3538 0.960 . S
C3526 H3539 0.962 . S
C3526 H3540 0.960 . S
C3527 C3524 1.511 . S
C3527 H3541 0.961 . S
C3527 H3542 0.961 . S
C3527 H3543 0.961 . S
C3528 C3529 1.370 . S
C3528 C3530 1.363 . S
C3528 H3544 0.931 . S
C3529 C3528 1.370 . S
C3529 C3533 1.408 . S
C3530 C3528 1.363 . S
C3530 C3531 1.370 . S
C3530 C3534 1.524 . S
C3531 C3523 1.503 . S
C3531 C3530 1.370 . S
C3531 C3532 1.403 . S
C3532 C3531 1.403 . S
C3532 C3533 1.404 . S
C3532 C3535 1.539 . S
C3533 C3529 1.408 . S
C3533 C3532 1.404 . S
C3533 H3545 0.930 . S
C3534 C3530 1.524 . S
C3534 H3546 0.956 . S
C3534 H3547 0.961 . S
C3534 H3548 0.961 . S
C3535 C3532 1.539 . S
C3535 H3549 0.958 . S
C3535 H3550 0.961 . S
C3535 H3551 0.960 . S
H3536 C3520 0.931 . S
H3537 C3525 0.929 . S
H3538 C3526 0.960 . S
H3539 C3526 0.962 . S
H3540 C3526 0.960 . S
H3541 C3527 0.961 . S
H3542 C3527 0.961 . S
H3543 C3527 0.961 . S
H3544 C3528 0.931 . S
H3545 C3533 0.930 . S
H3546 C3534 0.956 . S
H3547 C3534 0.961 . S
H3548 C3534 0.961 . S
H3549 C3535 0.958 . S
H3550 C3535 0.961 . S
H3551 C3535 0.960 . S
C3552 C3553 1.391 . S
C3552 C3554 1.394 . S
C3552 H3568 0.931 . S
C3553 C3552 1.391 . S
C3553 C3557 1.376 . S
C3554 C3552 1.394 . S
C3554 C3555 1.369 . S
C3554 C3558 1.531 . S
C3555 C3554 1.369 . S
C3555 C3556 1.410 . S
C3555 C3563 1.503 . S
C3556 C3555 1.410 . S
C3556 C3557 1.392 . S
C3556 C3559 1.511 . S
C3557 C3553 1.376 . S
C3557 C3556 1.392 . S
C3557 H3569 0.929 . S
C3558 C3554 1.531 . S
C3558 H3570 0.960 . S
C3558 H3571 0.962 . S
C3558 H3572 0.960 . S
C3559 C3556 1.511 . S
C3559 H3573 0.961 . S
C3559 H3574 0.961 . S
C3559 H3575 0.961 . S
C3560 C3561 1.370 . S
C3560 C3562 1.363 . S
C3560 H3576 0.931 . S
C3561 C3560 1.370 . S
C3561 C3565 1.408 . S
C3562 C3560 1.363 . S
C3562 C3563 1.370 . S
C3562 C3566 1.524 . S
C3563 C3555 1.503 . S
C3563 C3562 1.370 . S
C3563 C3564 1.403 . S
C3564 C3563 1.403 . S
C3564 C3565 1.404 . S
C3564 C3567 1.539 . S
C3565 C3561 1.408 . S
C3565 C3564 1.404 . S
C3565 H3577 0.930 . S
C3566 C3562 1.524 . S
C3566 H3578 0.956 . S
C3566 H3579 0.961 . S
C3566 H3580 0.961 . S
C3567 C3564 1.539 . S
C3567 H3581 0.958 . S
C3567 H3582 0.961 . S
C3567 H3583 0.960 . S
H3568 C3552 0.931 . S
H3569 C3557 0.929 . S
H3570 C3558 0.960 . S
H3571 C3558 0.962 . S
H3572 C3558 0.960 . S
H3573 C3559 0.961 . S
H3574 C3559 0.961 . S
H3575 C3559 0.961 . S
H3576 C3560 0.931 . S
H3577 C3565 0.930 . S
H3578 C3566 0.956 . S
H3579 C3566 0.961 . S
H3580 C3566 0.961 . S
H3581 C3567 0.958 . S
H3582 C3567 0.961 . S
H3583 C3567 0.960 . S
C3584 C3585 1.391 . S
C3584 C3586 1.394 . S
C3584 H3600 0.931 . S
C3585 C3584 1.391 . S
C3585 C3589 1.376 . S
C3586 C3584 1.394 . S
C3586 C3587 1.369 . S
C3586 C3590 1.531 . S
C3587 C3586 1.369 . S
C3587 C3588 1.410 . S
C3587 C3595 1.503 . S
C3588 C3587 1.410 . S
C3588 C3589 1.392 . S
C3588 C3591 1.511 . S
C3589 C3585 1.376 . S
C3589 C3588 1.392 . S
C3589 H3601 0.929 . S
C3590 C3586 1.531 . S
C3590 H3602 0.960 . S
C3590 H3603 0.962 . S
C3590 H3604 0.960 . S
C3591 C3588 1.511 . S
C3591 H3605 0.961 . S
C3591 H3606 0.961 . S
C3591 H3607 0.961 . S
C3592 C3593 1.370 . S
C3592 C3594 1.363 . S
C3592 H3608 0.931 . S
C3593 C3592 1.370 . S
C3593 C3597 1.408 . S
C3594 C3592 1.363 . S
C3594 C3595 1.370 . S
C3594 C3598 1.524 . S
C3595 C3587 1.503 . S
C3595 C3594 1.370 . S
C3595 C3596 1.403 . S
C3596 C3595 1.403 . S
C3596 C3597 1.404 . S
C3596 C3599 1.539 . S
C3597 C3593 1.408 . S
C3597 C3596 1.404 . S
C3597 H3609 0.930 . S
C3598 C3594 1.524 . S
C3598 H3610 0.956 . S
C3598 H3611 0.961 . S
C3598 H3612 0.961 . S
C3599 C3596 1.539 . S
C3599 H3613 0.958 . S
C3599 H3614 0.961 . S
C3599 H3615 0.960 . S
H3600 C3584 0.931 . S
H3601 C3589 0.929 . S
H3602 C3590 0.960 . S
H3603 C3590 0.962 . S
H3604 C3590 0.960 . S
H3605 C3591 0.961 . S
H3606 C3591 0.961 . S
H3607 C3591 0.961 . S
H3608 C3592 0.931 . S
H3609 C3597 0.930 . S
H3610 C3598 0.956 . S
H3611 C3598 0.961 . S
H3612 C3598 0.961 . S
H3613 C3599 0.958 . S
H3614 C3599 0.961 . S
H3615 C3599 0.960 . S
C3616 C3617 1.391 . S
C3616 C3618 1.394 . S
C3616 H3632 0.931 . S
C3617 C3616 1.391 . S
C3617 C3621 1.376 . S
C3618 C3616 1.394 . S
C3618 C3619 1.369 . S
C3618 C3622 1.531 . S
C3619 C3618 1.369 . S
C3619 C3620 1.410 . S
C3619 C3627 1.503 . S
C3620 C3619 1.410 . S
C3620 C3621 1.392 . S
C3620 C3623 1.511 . S
C3621 C3617 1.376 . S
C3621 C3620 1.392 . S
C3621 H3633 0.929 . S
C3622 C3618 1.531 . S
C3622 H3634 0.960 . S
C3622 H3635 0.962 . S
C3622 H3636 0.960 . S
C3623 C3620 1.511 . S
C3623 H3637 0.961 . S
C3623 H3638 0.961 . S
C3623 H3639 0.961 . S
C3624 C3625 1.370 . S
C3624 C3626 1.363 . S
C3624 H3640 0.931 . S
C3625 C3624 1.370 . S
C3625 C3629 1.408 . S
C3626 C3624 1.363 . S
C3626 C3627 1.370 . S
C3626 C3630 1.524 . S
C3627 C3619 1.503 . S
C3627 C3626 1.370 . S
C3627 C3628 1.403 . S
C3628 C3627 1.403 . S
C3628 C3629 1.404 . S
C3628 C3631 1.539 . S
C3629 C3625 1.408 . S
C3629 C3628 1.404 . S
C3629 H3641 0.930 . S
C3630 C3626 1.524 . S
C3630 H3642 0.956 . S
C3630 H3643 0.961 . S
C3630 H3644 0.961 . S
C3631 C3628 1.539 . S
C3631 H3645 0.958 . S
C3631 H3646 0.961 . S
C3631 H3647 0.960 . S
H3632 C3616 0.931 . S
H3633 C3621 0.929 . S
H3634 C3622 0.960 . S
H3635 C3622 0.962 . S
H3636 C3622 0.960 . S
H3637 C3623 0.961 . S
H3638 C3623 0.961 . S
H3639 C3623 0.961 . S
H3640 C3624 0.931 . S
H3641 C3629 0.930 . S
H3642 C3630 0.956 . S
H3643 C3630 0.961 . S
H3644 C3630 0.961 . S
H3645 C3631 0.958 . S
H3646 C3631 0.961 . S
H3647 C3631 0.960 . S
C3648 C3649 1.391 . S
C3648 C3650 1.394 . S
C3648 H3664 0.931 . S
C3649 C3648 1.391 . S
C3649 C3653 1.376 . S
C3650 C3648 1.394 . S
C3650 C3651 1.369 . S
C3650 C3654 1.531 . S
C3651 C3650 1.369 . S
C3651 C3652 1.410 . S
C3651 C3659 1.503 . S
C3652 C3651 1.410 . S
C3652 C3653 1.392 . S
C3652 C3655 1.511 . S
C3653 C3649 1.376 . S
C3653 C3652 1.392 . S
C3653 H3665 0.929 . S
C3654 C3650 1.531 . S
C3654 H3666 0.960 . S
C3654 H3667 0.962 . S
C3654 H3668 0.960 . S
C3655 C3652 1.511 . S
C3655 H3669 0.961 . S
C3655 H3670 0.961 . S
C3655 H3671 0.961 . S
C3656 C3657 1.370 . S
C3656 C3658 1.363 . S
C3656 H3672 0.931 . S
C3657 C3656 1.370 . S
C3657 C3661 1.408 . S
C3658 C3656 1.363 . S
C3658 C3659 1.370 . S
C3658 C3662 1.524 . S
C3659 C3651 1.503 . S
C3659 C3658 1.370 . S
C3659 C3660 1.403 . S
C3660 C3659 1.403 . S
C3660 C3661 1.404 . S
C3660 C3663 1.539 . S
C3661 C3657 1.408 . S
C3661 C3660 1.404 . S
C3661 H3673 0.930 . S
C3662 C3658 1.524 . S
C3662 H3674 0.956 . S
C3662 H3675 0.961 . S
C3662 H3676 0.961 . S
C3663 C3660 1.539 . S
C3663 H3677 0.958 . S
C3663 H3678 0.961 . S
C3663 H3679 0.960 . S
H3664 C3648 0.931 . S
H3665 C3653 0.929 . S
H3666 C3654 0.960 . S
H3667 C3654 0.962 . S
H3668 C3654 0.960 . S
H3669 C3655 0.961 . S
H3670 C3655 0.961 . S
H3671 C3655 0.961 . S
H3672 C3656 0.931 . S
H3673 C3661 0.930 . S
H3674 C3662 0.956 . S
H3675 C3662 0.961 . S
H3676 C3662 0.961 . S
H3677 C3663 0.958 . S
H3678 C3663 0.961 . S
H3679 C3663 0.960 . S
C3680 C3681 1.391 . S
C3680 C3682 1.394 . S
C3680 H3696 0.931 . S
C3681 C3680 1.391 . S
C3681 C3685 1.376 . S
C3682 C3680 1.394 . S
C3682 C3683 1.369 . S
C3682 C3686 1.531 . S
C3683 C3682 1.369 . S
C3683 C3684 1.410 . S
C3683 C3691 1.503 . S
C3684 C3683 1.410 . S
C3684 C3685 1.392 . S
C3684 C3687 1.511 . S
C3685 C3681 1.376 . S
C3685 C3684 1.392 . S
C3685 H3697 0.929 . S
C3686 C3682 1.531 . S
C3686 H3698 0.960 . S
C3686 H3699 0.962 . S
C3686 H3700 0.960 . S
C3687 C3684 1.511 . S
C3687 H3701 0.961 . S
C3687 H3702 0.961 . S
C3687 H3703 0.961 . S
C3688 C3689 1.370 . S
C3688 C3690 1.363 . S
C3688 H3704 0.931 . S
C3689 C3688 1.370 . S
C3689 C3693 1.408 . S
C3690 C3688 1.363 . S
C3690 C3691 1.370 . S
C3690 C3694 1.524 . S
C3691 C3683 1.503 . S
C3691 C3690 1.370 . S
C3691 C3692 1.403 . S
C3692 C3691 1.403 . S
C3692 C3693 1.404 . S
C3692 C3695 1.539 . S
C3693 C3689 1.408 . S
C3693 C3692 1.404 . S
C3693 H3705 0.930 . S
C3694 C3690 1.524 . S
C3694 H3706 0.956 . S
C3694 H3707 0.961 . S
C3694 H3708 0.961 . S
C3695 C3692 1.539 . S
C3695 H3709 0.958 . S
C3695 H3710 0.961 . S
C3695 H3711 0.960 . S
H3696 C3680 0.931 . S
H3697 C3685 0.929 . S
H3698 C3686 0.960 . S
H3699 C3686 0.962 . S
H3700 C3686 0.960 . S
H3701 C3687 0.961 . S
H3702 C3687 0.961 . S
H3703 C3687 0.961 . S
H3704 C3688 0.931 . S
H3705 C3693 0.930 . S
H3706 C3694 0.956 . S
H3707 C3694 0.961 . S
H3708 C3694 0.961 . S
H3709 C3695 0.958 . S
H3710 C3695 0.961 . S
H3711 C3695 0.960 . S
C3712 C3713 1.391 . S
C3712 C3714 1.394 . S
C3712 H3728 0.931 . S
C3713 C3712 1.391 . S
C3713 C3717 1.376 . S
C3714 C3712 1.394 . S
C3714 C3715 1.369 . S
C3714 C3718 1.531 . S
C3715 C3714 1.369 . S
C3715 C3716 1.410 . S
C3715 C3723 1.503 . S
C3716 C3715 1.410 . S
C3716 C3717 1.392 . S
C3716 C3719 1.511 . S
C3717 C3713 1.376 . S
C3717 C3716 1.392 . S
C3717 H3729 0.929 . S
C3718 C3714 1.531 . S
C3718 H3730 0.960 . S
C3718 H3731 0.962 . S
C3718 H3732 0.960 . S
C3719 C3716 1.511 . S
C3719 H3733 0.961 . S
C3719 H3734 0.961 . S
C3719 H3735 0.961 . S
C3720 C3721 1.370 . S
C3720 C3722 1.363 . S
C3720 H3736 0.931 . S
C3721 C3720 1.370 . S
C3721 C3725 1.408 . S
C3722 C3720 1.363 . S
C3722 C3723 1.370 . S
C3722 C3726 1.524 . S
C3723 C3715 1.503 . S
C3723 C3722 1.370 . S
C3723 C3724 1.403 . S
C3724 C3723 1.403 . S
C3724 C3725 1.404 . S
C3724 C3727 1.539 . S
C3725 C3721 1.408 . S
C3725 C3724 1.404 . S
C3725 H3737 0.930 . S
C3726 C3722 1.524 . S
C3726 H3738 0.956 . S
C3726 H3739 0.961 . S
C3726 H3740 0.961 . S
C3727 C3724 1.539 . S
C3727 H3741 0.958 . S
C3727 H3742 0.961 . S
C3727 H3743 0.960 . S
H3728 C3712 0.931 . S
H3729 C3717 0.929 . S
H3730 C3718 0.960 . S
H3731 C3718 0.962 . S
H3732 C3718 0.960 . S
H3733 C3719 0.961 . S
H3734 C3719 0.961 . S
H3735 C3719 0.961 . S
H3736 C3720 0.931 . S
H3737 C3725 0.930 . S
H3738 C3726 0.956 . S
H3739 C3726 0.961 . S
H3740 C3726 0.961 . S
H3741 C3727 0.958 . S
H3742 C3727 0.961 . S
H3743 C3727 0.960 . S
C673 C291 1.035 . S
C681 C4 0.986 . S
C705 C18 1.081 . S
C713 C242 1.078 . S
C737 C32 0.975 . S
C745 C263 1.016 . S
C769 C270 1.115 . S
C777 C46 1.097 . S
C801 C333 0.879 . S
C809 C67 0.837 . S
C833 C74 1.155 . S
C841 C298 1.179 . S
C865 C95 0.802 . S
C873 C319 0.868 . S
C897 C102 1.183 . S
C905 C228 1.191 . S
C929 C123 0.888 . S
C937 C214 0.918 . S
C961 C137 0.916 . S
C969 C179 0.969 . S
C993 C151 0.868 . S
C1001 C186 0.913 . S
C1025 C207 0.987 . S
C1033 C165 0.939 . S
C1057 C347 0.981 . S
C1065 C627 0.998 . S
C1089 C578 1.121 . S
C1097 C354 1.064 . S
C1121 C375 0.976 . S
C1129 C599 0.997 . S
C1153 C606 1.042 . S
C1161 C382 1.097 . S
C1185 C396 0.960 . S
C1193 C669 0.984 . S
C1217 C634 1.150 . S
C1225 C410 1.204 . S
C1249 C424 0.963 . S
C1257 C655 0.984 . S
C1281 C564 1.221 . S
C1289 C438 1.175 . S
C1313 C459 0.980 . S
C1321 C557 1.013 . S
C1345 C515 0.988 . S
C1353 C466 0.951 . S
C1377 C529 1.005 . S
C1385 C487 0.999 . S
C1409 C543 0.982 . S
C1417 C494 0.991 . S
C1441 C368 0.795 . S
C1449 C11 0.818 . S
C1473 C25 0.883 . S
C1481 C389 0.918 . S
C1505 C39 0.844 . S
C1513 C340 0.824 . S
C1537 C53 0.881 . S
C1545 C361 0.886 . S
C1569 C60 0.878 . S
C1577 C431 0.853 . S
C1601 C445 0.885 . S
C1609 C81 0.865 . S
C1633 C403 0.875 . S
C1641 C88 0.852 . S
C1665 C417 0.865 . S
C1673 C109 0.899 . S
C1697 C508 0.948 . S
C1705 C116 1.009 . S
C1729 C130 0.785 . S
C1737 C522 0.839 . S
C1761 C536 1.047 . S
C1769 C144 1.003 . S
C1793 C158 0.821 . S
C1801 C550 0.844 . S
C1825 C172 1.029 . S
C1833 C452 1.028 . S
C1857 C193 0.792 . S
C1865 C473 0.842 . S
C1889 C480 0.973 . S
C1897 C200 1.002 . S
C1921 C501 0.864 . S
C1929 C221 0.853 . S
C1953 C235 0.840 . S
C1961 C613 0.902 . S
C1985 C249 0.910 . S
C1993 C641 0.939 . S
C2017 C648 0.976 . S
C2025 C256 1.019 . S
C2049 C571 0.923 . S
C2057 C277 0.940 . S
C2081 C284 1.041 . S
C2089 C662 1.040 . S
C2113 C585 0.873 . S
C2121 C305 0.906 . S
C2145 C312 1.051 . S
C2153 C592 1.003 . S
C2177 C326 1.048 . S
C2185 C620 1.008 . S
C2209 C397 1.444 . S
C2217 C12 1.592 . S
C2241 C411 1.531 . S
C2249 C26 1.646 . S
C2273 C425 1.447 . S
C2281 C40 1.590 . S
C2305 C54 1.670 . S
C2313 C439 1.489 . S
C2337 C348 1.580 . S
C2345 C61 1.433 . S
C2369 C355 1.589 . S
C2377 C82 1.677 . S
C2401 C89 1.478 . S
C2409 C376 1.602 . S
C2433 C383 1.587 . S
C2441 C110 1.678 . S
C2465 C117 1.504 . S
C2473 C544 1.615 . S
C2497 C131 1.460 . S
C2505 C558 1.576 . S
C2529 C516 1.636 . S
C2537 C145 1.455 . S
C2561 C159 1.425 . S
C2569 C530 1.594 . S
C2593 C488 1.521 . S
C2601 C173 1.410 . S
C2625 C194 1.601 . S
C2633 C495 1.468 . S
C2657 C201 1.462 . S
C2665 C460 1.548 . S
C2689 C222 1.569 . S
C2697 C467 1.449 . S
C2721 C635 1.526 . S
C2729 C236 1.601 . S
C2753 C250 1.681 . S
C2761 C607 1.525 . S
C2785 C257 1.399 . S
C2793 C628 1.562 . S
C2817 C278 1.677 . S
C2825 C579 1.538 . S
C2849 C600 1.524 . S
C2857 C285 1.400 . S
C2881 C565 1.445 . S
C2889 C306 1.601 . S
C2913 C670 1.622 . S
C2921 C313 1.489 . S
C2945 C327 1.543 . S
C2953 C656 1.640 . S
C2977 C215 1.672 . S
C2985 C5 1.613 . S
C3009 C19 1.727 . S
C3017 C180 1.755 . S
C3041 C187 1.695 . S
C3049 C33 1.629 . S
C3073 C208 1.711 . S
C3081 C47 1.762 . S
C3105 C138 1.729 . S
C3113 C68 1.754 . S
C3137 C75 1.489 . S
C3145 C152 1.522 . S
C3169 C96 1.772 . S
C3177 C166 1.741 . S
C3201 C124 1.479 . S
C3209 C103 1.444 . S
C3233 C229 1.617 . S
C3241 C292 1.635 . S
C3265 C334 1.664 . S
C3273 C243 1.640 . S
C3297 C299 1.604 . S
C3305 C264 1.625 . S
C3329 C271 1.587 . S
C3337 C320 1.624 . S
C3361 C551 1.603 . S
C3369 C341 1.682 . S
C3393 C509 1.649 . S
C3401 C362 1.697 . S
C3425 C369 1.700 . S
C3433 C523 1.645 . S
C3457 C537 1.647 . S
C3465 C390 1.690 . S
C3489 C474 1.700 . S
C3497 C404 1.756 . S
C3521 C418 1.572 . S
C3529 C481 1.521 . S
C3553 C432 1.777 . S
C3561 C502 1.724 . S
C3585 C446 1.643 . S
C3593 C453 1.530 . S
C3617 C572 1.597 . S
C3625 C621 1.576 . S
C3649 C663 1.610 . S
C3657 C586 1.652 . S
C3681 C642 1.658 . S
C3689 C593 1.568 . S
C3713 C649 1.659 . S
C3721 C614 1.678 . S
