# Generated by pormake.
# Topology sod, (4)-cn, num edge types: 1
# Building blocks:
#     Node 0, Type 0, BuildingBlock: QUQFOY_clean_sbu_1, # of connection points: 4
#     Node 1, Type 0, BuildingBlock: QUQFOY_clean_sbu_1, # of connection points: 4
#     Node 2, Type 0, BuildingBlock: QUQFOY_clean_sbu_1, # of connection points: 4
#     Node 3, Type 0, BuildingBlock: QUQFOY_clean_sbu_1, # of connection points: 4
#     Node 4, Type 0, BuildingBlock: QUQFOY_clean_sbu_1, # of connection points: 4
#     Node 5, Type 0, BuildingBlock: QUQFOY_clean_sbu_1, # of connection points: 4
#     Node 6, Type 0, BuildingBlock: QUQFOY_clean_sbu_1, # of connection points: 4
#     Node 7, Type 0, BuildingBlock: QUQFOY_clean_sbu_1, # of connection points: 4
#     Node 8, Type 0, BuildingBlock: QUQFOY_clean_sbu_1, # of connection points: 4
#     Node 9, Type 0, BuildingBlock: QUQFOY_clean_sbu_1, # of connection points: 4
#     Node 10, Type 0, BuildingBlock: QUQFOY_clean_sbu_1, # of connection points: 4
#     Node 11, Type 0, BuildingBlock: QUQFOY_clean_sbu_1, # of connection points: 4
#     Edge 12, Type (0, 0), BuildingBlock: OJICUG_clean_linker_0, # of connection points: 2
#     Edge 13, Type (0, 0), BuildingBlock: OJICUG_clean_linker_0, # of connection points: 2
#     Edge 14, Type (0, 0), BuildingBlock: OJICUG_clean_linker_0, # of connection points: 2
#     Edge 15, Type (0, 0), BuildingBlock: OJICUG_clean_linker_0, # of connection points: 2
#     Edge 16, Type (0, 0), BuildingBlock: OJICUG_clean_linker_0, # of connection points: 2
#     Edge 17, Type (0, 0), BuildingBlock: OJICUG_clean_linker_0, # of connection points: 2
#     Edge 18, Type (0, 0), BuildingBlock: OJICUG_clean_linker_0, # of connection points: 2
#     Edge 19, Type (0, 0), BuildingBlock: OJICUG_clean_linker_0, # of connection points: 2
#     Edge 20, Type (0, 0), BuildingBlock: OJICUG_clean_linker_0, # of connection points: 2
#     Edge 21, Type (0, 0), BuildingBlock: OJICUG_clean_linker_0, # of connection points: 2
#     Edge 22, Type (0, 0), BuildingBlock: OJICUG_clean_linker_0, # of connection points: 2
#     Edge 23, Type (0, 0), BuildingBlock: OJICUG_clean_linker_0, # of connection points: 2
#     Edge 24, Type (0, 0), BuildingBlock: OJICUG_clean_linker_0, # of connection points: 2
#     Edge 25, Type (0, 0), BuildingBlock: OJICUG_clean_linker_0, # of connection points: 2
#     Edge 26, Type (0, 0), BuildingBlock: OJICUG_clean_linker_0, # of connection points: 2
#     Edge 27, Type (0, 0), BuildingBlock: OJICUG_clean_linker_0, # of connection points: 2
#     Edge 28, Type (0, 0), BuildingBlock: OJICUG_clean_linker_0, # of connection points: 2
#     Edge 29, Type (0, 0), BuildingBlock: OJICUG_clean_linker_0, # of connection points: 2
#     Edge 30, Type (0, 0), BuildingBlock: OJICUG_clean_linker_0, # of connection points: 2
#     Edge 31, Type (0, 0), BuildingBlock: OJICUG_clean_linker_0, # of connection points: 2
#     Edge 32, Type (0, 0), BuildingBlock: OJICUG_clean_linker_0, # of connection points: 2
#     Edge 33, Type (0, 0), BuildingBlock: OJICUG_clean_linker_0, # of connection points: 2
#     Edge 34, Type (0, 0), BuildingBlock: OJICUG_clean_linker_0, # of connection points: 2
#     Edge 35, Type (0, 0), BuildingBlock: OJICUG_clean_linker_0, # of connection points: 2
# Relax obj value: 0.196
# Max RMSD: 0.253
# Mean RMSD: 0.228
data_MOF--net-sod--node1-QUQFOY_clean_sbu_1--edge1-OJICUG_clean_linker_0
_symmetry_space_group_name_H-M    P1
_symmetry_Int_Tables_number       1
_symmetry_cell_setting            triclinic
loop_
_symmetry_equiv_pos_as_xyz
'x, y, z'
_cell_length_a     32.839576
_cell_length_b     32.770851
_cell_length_c     32.832212
_cell_angle_alpha  92.897656
_cell_angle_beta   89.669976
_cell_angle_gamma 96.29154
loop_
_atom_site_label
_atom_site_type_symbol
_atom_site_fract_x
_atom_site_fract_y
_atom_site_fract_z
_atom_type_partial_charge
O0 O 0.02595 0.22765 0.47445 0.0
Cd1 Cd 0.07868 0.26774 0.46849 0.0
Cd2 Cd 0.04032 0.31445 0.52675 0.0
O3 O 0.00925 0.25718 0.53312 0.0
O4 O 0.12474 0.23491 0.4542 0.0
O5 O 0.11901 0.26849 0.514 0.0
C6 C 0.13828 0.24387 0.4908 0.0
C7 C 0.03972 0.35823 0.58528 0.0
C8 C 0.00447 0.22739 0.50678 0.0
C9 C 0.05396 0.34433 0.43992 0.0
O10 O 0.03549 0.34546 0.47402 0.0
O11 O 0.07753 0.31681 0.4316 0.0
O12 O 0.00752 0.34833 0.56339 0.0
O13 O 0.07281 0.34269 0.5744 0.0
O14 O 0.75145 0.08247 0.57527 0.0
Cd15 Cd 0.78353 0.07055 0.52224 0.0
Cd16 Cd 0.82662 0.03248 0.57649 0.0
O17 O 0.7771 0.03851 0.61388 0.0
O18 O 0.74956 0.09066 0.47915 0.0
O19 O 0.75906 0.02523 0.48333 0.0
C20 C 0.74211 0.05315 0.46525 0.0
C21 C 0.85019 0.96901 0.56343 0.0
C22 C 0.75116 0.06364 0.60822 0.0
C23 C 0.87088 0.10368 0.53688 0.0
O24 O 0.86948 0.08251 0.56833 0.0
O25 O 0.8409 0.10036 0.5123 0.0
O26 O 0.85679 0.98898 0.59807 0.0
O27 O 0.8285 0.9845 0.5366 0.0
O28 O 0.07472 0.86811 0.51704 0.0
Cd29 Cd 0.02402 0.82609 0.51035 0.0
Cd30 Cd 0.06669 0.78227 0.56172 0.0
O31 O 0.10203 0.83873 0.56777 0.0
O32 O 0.98046 0.85677 0.48923 0.0
O33 O 0.97806 0.8305 0.55021 0.0
C34 C 0.96199 0.8518 0.52368 0.0
C35 C 0.05335 0.74503 0.61986 0.0
C36 C 0.10168 0.86863 0.54462 0.0
C37 C 0.04929 0.74779 0.47525 0.0
O38 O 0.06821 0.74525 0.50855 0.0
O39 O 0.02795 0.77713 0.47022 0.0
O40 O 0.08924 0.74904 0.60355 0.0
O41 O 0.02503 0.76357 0.60389 0.0
O42 O 0.2341 0.02952 0.58527 0.0
Cd43 Cd 0.27473 0.08239 0.58204 0.0
Cd44 Cd 0.31696 0.03147 0.53422 0.0
O45 O 0.2598 -0.00053 0.53083 0.0
O46 O 0.24319 0.13015 0.59404 0.0
O47 O 0.26945 0.11594 0.5333 0.0
C48 C 0.24787 0.13863 0.55621 0.0
C49 C 0.35716 0.02823 0.47561 0.0
C50 C 0.23176 0.00103 0.55738 0.0
C51 C 0.35201 0.06203 0.61619 0.0
O52 O 0.34999 0.03413 0.58777 0.0
O53 O 0.32688 0.08887 0.61749 0.0
O54 O 0.34992 0.99729 0.49817 0.0
O55 O 0.34081 0.06134 0.4859 0.0
O56 O 0.50936 0.99534 0.22305 0.0
Cd57 Cd 0.50772 0.04661 0.26207 0.0
Cd58 Cd 0.55296 -0.00058 0.30978 0.0
O59 O 0.5545 0.96441 0.25618 0.0
O60 O 0.48602 0.08767 0.2279 0.0
O61 O 0.54893 0.09529 0.25306 0.0
C62 C 0.52129 0.10904 0.23122 0.0
C63 C 0.61351 0.01411 0.34665 0.0
C64 C 0.5325 0.96683 0.22493 0.0
C65 C 0.47156 0.02147 0.34195 0.0
O66 O 0.50011 -0.00155 0.34436 0.0
O67 O 0.47047 0.04502 0.31257 0.0
O68 O 0.59333 0.97807 0.34581 0.0
O69 O 0.59965 0.04188 0.32558 0.0
O70 O 0.03362 0.59034 0.34726 0.0
Cd71 Cd 0.02476 0.53977 0.30615 0.0
Cd72 Cd 0.06449 0.5984 0.25755 0.0
O73 O 0.06826 0.63578 0.30918 0.0
O74 O -0.00019 0.49702 0.34227 0.0
O75 O 0.05965 0.49304 0.31234 0.0
C76 C 0.03165 0.47778 0.33672 0.0
C77 C 0.12266 0.5901 0.21893 0.0
C78 C 0.05225 0.62599 0.34304 0.0
C79 C 0.98043 0.56384 0.23196 0.0
O80 O 0.00975 0.59177 0.22737 0.0
O81 O 0.98162 0.53828 0.25971 0.0
O82 O 0.10478 0.62319 0.21823 0.0
O83 O 0.10786 0.56173 0.24256 0.0
O84 O 0.52226 0.08743 0.849 0.0
Cd85 Cd 0.52047 0.03742 0.80768 0.0
Cd86 Cd 0.56533 0.09457 0.76542 0.0
O87 O 0.57274 0.12624 0.82086 0.0
O88 O 0.49586 0.99209 0.84084 0.0
O89 O 0.55853 0.99394 0.81569 0.0
C90 C 0.52976 0.97585 0.83748 0.0
C91 C 0.62228 0.08649 0.72477 0.0
C92 C 0.5483 0.11913 0.85035 0.0
C93 C 0.48172 0.06465 0.73401 0.0
O94 O 0.51033 0.09408 0.73499 0.0
O95 O 0.48225 0.03549 0.75795 0.0
O96 O 0.60672 0.12096 0.728 0.0
O97 O 0.60593 0.05651 0.74565 0.0
O98 O 0.00948 0.50171 0.72212 0.0
Cd99 Cd 0.00751 0.55281 0.76146 0.0
Cd100 Cd 0.05488 0.50586 0.80828 0.0
O101 O 0.05568 0.47133 0.75437 0.0
O102 O 0.98478 0.5939 0.72796 0.0
O103 O 0.04802 0.60206 0.75225 0.0
C104 C 0.01989 0.61563 0.7309 0.0
C105 C 0.11584 0.51871 0.84489 0.0
C106 C 0.03305 0.4735 0.72354 0.0
C107 C 0.97315 0.52623 0.84168 0.0
O108 O 0.00244 0.50404 0.84345 0.0
O109 O 0.97095 0.54997 0.81258 0.0
O110 O 0.09508 0.48296 0.84337 0.0
O111 O 0.10233 0.54728 0.82469 0.0
O112 O 0.37292 0.5808 0.0673 0.0
Cd113 Cd 0.3298 0.53147 0.07704 0.0
Cd114 Cd 0.28717 0.56856 0.02018 0.0
O115 O 0.34499 0.59738 0.01039 0.0
O116 O 0.35977 0.48929 0.10139 0.0
O117 O 0.33192 0.48156 0.03973 0.0
C118 C 0.3534 0.46755 0.06771 0.0
C119 C 0.2456 0.55285 0.96293 0.0
C120 C 0.37475 0.60108 0.03524 0.0
C121 C 0.25422 0.56418 0.10646 0.0
O122 O 0.25482 0.58163 0.07271 0.0
O123 O 0.28006 0.53935 0.11355 0.0
O124 O 0.25419 0.59012 0.97712 0.0
O125 O 0.26156 0.52417 0.9808 0.0
O126 O 0.57437 0.35814 0.01847 0.0
Cd127 Cd 0.52245 0.31622 0.02015 0.0
Cd128 Cd 0.57256 0.27814 0.0651 0.0
O129 O 0.60242 0.33632 0.07292 0.0
O130 O 0.47827 0.34557 -0.00188 0.0
O131 O 0.47996 0.32756 0.06215 0.0
C132 C 0.4624 0.34573 0.03411 0.0
C133 C 0.55761 0.23916 0.12141 0.0
C134 C 0.60103 0.36322 0.04668 0.0
C135 C 0.54905 0.23938 0.98417 0.0
O136 O 0.5777 0.24479 0.01036 0.0
O137 O 0.51993 0.26182 0.98596 0.0
O138 O 0.59441 0.2451 0.10732 0.0
O139 O 0.52927 0.2566 0.10407 0.0
O140 O 0.7322 0.52608 0.07977 0.0
Cd141 Cd 0.77442 0.57771 0.07726 0.0
Cd142 Cd 0.81631 0.52472 0.03294 0.0
O143 O 0.75903 0.49304 0.02784 0.0
O144 O 0.7439 0.62606 0.08965 0.0
O145 O 0.77078 0.61242 0.02908 0.0
C146 C 0.74941 0.63521 0.0521 0.0
C147 C 0.85767 0.52509 0.97503 0.0
C148 C 0.73003 0.49654 0.05299 0.0
C149 C 0.84944 0.55536 0.11514 0.0
O150 O 0.84769 0.52664 0.08755 0.0
O151 O 0.82525 0.583 0.11438 0.0
O152 O 0.85067 0.49293 0.99603 0.0
O153 O 0.84041 0.55734 0.98655 0.0
O154 O 0.52925 0.72546 0.97207 0.0
Cd155 Cd 0.58165 0.76597 0.96629 0.0
Cd156 Cd 0.5437 0.81157 0.02582 0.0
O157 O 0.51342 0.7539 0.03154 0.0
O158 O 0.62792 0.73377 0.95134 0.0
O159 O 0.62213 0.76659 0.01155 0.0
C160 C 0.64152 0.74241 0.98798 0.0
C161 C 0.54203 0.85421 0.08505 0.0
C162 C 0.50835 0.72452 0.00477 0.0
C163 C 0.55618 0.84267 0.9393 0.0
O164 O 0.53809 0.84323 0.97361 0.0
O165 O 0.5799 0.81548 0.93026 0.0
O166 O 0.51008 0.84416 0.06284 0.0
O167 O 0.57554 0.83958 0.07401 0.0
C168 C 0.07598 0.38634 0.37968 0.0
C169 C 0.04745 0.37583 0.41057 0.0
H170 H 0.09365 0.42728 0.33196 0.0
C171 C 0.01274 0.3972 0.41479 0.0
H172 H 0.10302 0.37037 0.37573 0.0
C173 C 0.00718 0.42914 0.38971 0.0
C174 C 0.0364 0.44099 0.35994 0.0
H175 H 0.98991 0.38961 0.43796 0.0
H176 H 0.98036 0.44529 0.39454 0.0
C177 C 0.07064 0.4189 0.35471 0.0
C178 C 0.69786 0.07392 0.40989 0.0
C179 C 0.71291 0.04261 0.43128 0.0
H180 H 0.65493 0.08945 0.36594 0.0
C181 C 0.69751 0.00157 0.42191 0.0
H182 H 0.70931 0.10586 0.41626 0.0
C183 C 0.66617 0.99222 0.39323 0.0
C184 C 0.64987 0.02369 0.37314 0.0
H185 H 0.70854 0.97678 0.43781 0.0
H186 H 0.65396 0.96037 0.38764 0.0
C187 C 0.66676 0.06454 0.38098 0.0
C188 C 0.05378 0.64546 0.41776 0.0
C189 C 0.05349 0.65705 0.37715 0.0
H190 H 0.05378 0.66561 0.48101 0.0
C191 C 0.05312 0.69869 0.36918 0.0
H192 H 0.05417 0.61352 0.42463 0.0
C193 C 0.05181 0.72812 0.40121 0.0
C194 C 0.05206 0.71661 0.4418 0.0
H195 H 0.05268 0.70838 0.33813 0.0
H196 H 0.05072 0.75995 0.39424 0.0
C197 C 0.05373 0.67517 0.4499 0.0
C198 C 0.38856 0.05674 0.41176 0.0
C199 C 0.38466 0.02581 0.44003 0.0
H200 H 0.41878 0.07936 0.35813 0.0
C201 C 0.4083 0.99266 0.4348 0.0
H202 H 0.37066 0.08258 0.41497 0.0
C203 C 0.43606 0.99098 0.40261 0.0
C204 C 0.44044 0.02214 0.37461 0.0
H205 H 0.40602 0.96831 0.45608 0.0
H206 H 0.4543 0.96536 0.39986 0.0
C207 C 0.41601 0.05478 0.37916 0.0
C208 C 0.99589 0.67018 0.68923 0.0
C209 C 0.02822 0.65318 0.70775 0.0
H210 H 0.97846 0.71323 0.64739 0.0
C211 C 0.06865 0.6701 0.70078 0.0
H212 H 0.96436 0.65798 0.69427 0.0
C213 C 0.07671 0.70151 0.67364 0.0
C214 C 0.04447 0.71694 0.65338 0.0
H215 H 0.09419 0.65773 0.71467 0.0
H216 H 0.1083 0.71266 0.66744 0.0
C217 C 0.00393 0.70195 0.66249 0.0
C218 C 0.4346 0.1011 0.69272 0.0
C219 C 0.44786 0.06416 0.70468 0.0
H220 H 0.39282 0.12932 0.65594 0.0
C221 C 0.42867 0.02664 0.68817 0.0
H222 H 0.44881 0.13043 0.70522 0.0
C223 C 0.39748 0.02607 0.65937 0.0
C224 C 0.38409 0.06296 0.6475 0.0
H225 H 0.4384 -0.00224 0.69683 0.0
H226 H 0.38365 0.99673 0.64653 0.0
C227 C 0.40251 0.10048 0.66479 0.0
C228 C 0.06965 0.39191 0.65035 0.0
C229 C 0.03831 0.3872 0.62106 0.0
H230 H 0.09232 0.4226 0.70617 0.0
C231 C 0.00513 0.41072 0.62596 0.0
H232 H 0.09554 0.37412 0.64737 0.0
C233 C 0.00348 0.4387 0.65922 0.0
C234 C 0.03467 0.44338 0.68865 0.0
H235 H 0.98053 0.40789 0.60381 0.0
H236 H 0.97761 0.45654 0.66192 0.0
C237 C 0.06769 0.41953 0.68405 0.0
C238 C 0.67876 0.04702 0.69769 0.0
C239 C 0.65673 0.08134 0.69654 0.0
H240 H 0.72642 0.01476 0.67093 0.0
C241 C 0.66698 0.11042 0.66709 0.0
H242 H 0.67158 0.02417 0.72011 0.0
C243 C 0.6979 0.1048 0.63869 0.0
C244 C 0.71969 0.07031 0.6395 0.0
H245 H 0.65051 0.13716 0.66534 0.0
H246 H 0.70461 0.12746 0.61599 0.0
C247 C 0.71021 0.04173 0.66962 0.0
C248 C 0.40603 0.3848 0.01175 0.0
C249 C 0.42793 0.37002 0.04354 0.0
H250 H 0.36443 0.42682 0.99461 0.0
C251 C 0.42014 0.38308 0.08393 0.0
H252 H 0.41115 0.37499 0.98031 0.0
C253 C 0.39366 0.41309 0.09208 0.0
C254 C 0.37414 0.43014 0.06001 0.0
H255 H 0.43647 0.37215 0.10906 0.0
H256 H 0.39008 0.42437 0.12334 0.0
C257 C 0.37916 0.41441 0.01994 0.0
C258 C 0.43488 0.64919 0.05949 0.0
C259 C 0.4111 0.6301 0.0271 0.0
H260 H 0.48421 0.69451 0.07762 0.0
C261 C 0.42135 0.64021 0.98692 0.0
H262 H 0.42764 0.64197 0.09073 0.0
C263 C 0.45432 0.6696 0.97933 0.0
C264 C 0.47684 0.69005 0.01189 0.0
H265 H 0.40364 0.62566 0.96137 0.0
H266 H 0.46113 0.67748 0.94819 0.0
C267 C 0.46713 0.67928 0.05198 0.0
C268 C 0.64593 0.4174 0.08607 0.0
C269 C 0.63153 0.39961 0.04831 0.0
H270 H 0.68787 0.46328 0.11709 0.0
C271 C 0.64794 0.41562 0.01217 0.0
H272 H 0.63352 0.4056 0.11433 0.0
C273 C 0.67966 0.44771 0.01378 0.0
C274 C 0.69447 0.46511 0.05153 0.0
H275 H 0.63737 0.40228 0.98273 0.0
H276 H 0.69288 0.45872 0.98552 0.0
C277 C 0.67675 0.45041 0.08766 0.0
C278 C 0.70848 0.69506 0.06155 0.0
C279 C 0.72827 0.66828 0.0353 0.0
H280 H 0.66609 0.7402 0.0671 0.0
C281 C 0.72368 0.67045 0.99297 0.0
H282 H 0.71167 0.69437 0.09432 0.0
C283 C 0.69728 0.69654 0.97736 0.0
C284 C 0.67531 0.72127 0.00377 0.0
H285 H 0.73861 0.65032 0.97194 0.0
H286 H 0.69267 0.6959 0.94469 0.0
C287 C 0.68243 0.72145 0.04593 0.0
C288 C 0.57759 0.88645 0.88027 0.0
C289 C 0.54882 0.87423 0.91039 0.0
H290 H 0.59442 0.92874 0.8335 0.0
C291 C 0.51297 0.89384 0.91424 0.0
H292 H 0.60551 0.87184 0.87666 0.0
C293 C 0.5064 0.92569 0.88942 0.0
C294 C 0.53578 0.93925 0.86043 0.0
H295 H 0.49 0.88486 0.93685 0.0
H296 H 0.47867 0.94047 0.8939 0.0
C297 C 0.57127 0.91901 0.85567 0.0
C298 C 0.20184 0.5756 0.9082 0.0
C299 C 0.21615 0.54349 0.929 0.0
H300 H 0.15919 0.59293 0.86491 0.0
C301 C 0.19971 0.50287 0.91915 0.0
H302 H 0.2141 0.60725 0.91494 0.0
C303 C 0.16807 0.49471 0.89062 0.0
C304 C 0.15249 0.527 0.87118 0.0
H305 H 0.21014 0.47748 0.93458 0.0
H306 H 0.15506 0.46316 0.88468 0.0
C307 C 0.17042 0.56742 0.87946 0.0
C308 C 0.58605 0.17033 0.89943 0.0
C309 C 0.54901 0.14863 0.88569 0.0
H310 H 0.61519 0.21553 0.94254 0.0
C311 C 0.5123 0.15602 0.90539 0.0
H312 H 0.61474 0.16497 0.88474 0.0
C313 C 0.51244 0.18558 0.9375 0.0
C314 C 0.54943 0.20727 0.95129 0.0
H315 H 0.48335 0.13976 0.89521 0.0
H316 H 0.48362 0.1914 0.95168 0.0
C317 C 0.58633 0.19899 0.93248 0.0
C318 C 0.93862 0.49313 0.90149 0.0
C319 C 0.94212 0.52523 0.87452 0.0
H320 H 0.90893 0.46777 0.95399 0.0
C321 C 0.91664 0.55691 0.88009 0.0
H322 H 0.95766 0.46821 0.89795 0.0
C323 C 0.88892 0.55692 0.91262 0.0
C324 C 0.88577 0.52494 0.93975 0.0
H325 H 0.91873 0.58216 0.85986 0.0
H326 H 0.87011 0.582 0.91658 0.0
C327 C 0.91058 0.49285 0.93357 0.0
C328 C 0.49846 0.16335 0.18861 0.0
C329 C 0.53029 0.14647 0.20808 0.0
H330 H 0.4821 0.20646 0.14636 0.0
C331 C 0.57088 0.16349 0.20221 0.0
H332 H 0.46681 0.15108 0.19278 0.0
C333 C 0.57965 0.19504 0.17536 0.0
C334 C 0.54794 0.21042 0.15422 0.0
H335 H 0.59604 0.1512 0.21687 0.0
H336 H 0.61138 0.20639 0.17013 0.0
C337 C 0.50719 0.19518 0.1621 0.0
C338 C 0.93153 0.5975 0.19066 0.0
C339 C 0.94495 0.56132 0.20439 0.0
H340 H 0.88988 0.62386 0.15234 0.0
C341 C 0.92544 0.52309 0.19008 0.0
H342 H 0.94605 0.62735 0.20143 0.0
C343 C 0.89408 0.5211 0.16116 0.0
C344 C 0.88092 0.55732 0.14718 0.0
H345 H 0.9354 0.49481 0.20015 0.0
H346 H 0.88018 0.49127 0.14965 0.0
C347 C 0.89936 0.59552 0.16277 0.0
C348 C 0.57075 0.88675 0.1511 0.0
C349 C 0.53982 0.88232 0.12137 0.0
H350 H 0.59239 0.9166 0.20769 0.0
C351 C 0.50623 0.90526 0.12639 0.0
H352 H 0.59692 0.86936 0.14805 0.0
C353 C 0.50383 0.93251 0.1601 0.0
C354 C 0.53466 0.937 0.18991 0.0
H355 H 0.48192 0.9026 0.10393 0.0
H356 H 0.47772 0.95001 0.16282 0.0
C357 C 0.56802 0.91362 0.18528 0.0
C358 C 0.21324 0.54529 0.1688 0.0
C359 C 0.22229 0.57196 0.13693 0.0
H360 H 0.17432 0.52989 0.21968 0.0
C361 C 0.19947 0.60543 0.13345 0.0
H362 H 0.23025 0.51916 0.17221 0.0
C363 C 0.16785 0.61177 0.1608 0.0
C364 C 0.15798 0.58449 0.19195 0.0
H365 H 0.20581 0.62664 0.10938 0.0
H366 H 0.15055 0.63761 0.1569 0.0
C367 C 0.18116 0.55135 0.19591 0.0
C368 C 0.87785 0.91996 0.51255 0.0
C369 C 0.87114 0.93216 0.55342 0.0
H370 H 0.91211 0.88454 0.47101 0.0
C371 C 0.88952 0.91246 0.58443 0.0
H372 H 0.86403 0.93451 0.488 0.0
C373 C 0.91666 0.88344 0.57471 0.0
C374 C 0.92634 0.87417 0.53382 0.0
H375 H 0.8846 0.92103 0.61623 0.0
H376 H 0.93219 0.87055 0.59924 0.0
C377 C 0.90548 0.89143 0.50283 0.0
C378 C 0.96271 0.18256 0.55403 0.0
C379 C 0.97273 0.19311 0.51394 0.0
H380 H 0.92306 0.14521 0.59266 0.0
C381 C 0.95048 0.17245 0.48131 0.0
H382 H 0.97958 0.19797 0.57971 0.0
C383 C 0.91752 0.14302 0.4888 0.0
C384 C 0.90705 0.133 0.52896 0.0
H385 H 0.95753 0.18016 0.45017 0.0
H386 H 0.90005 0.12827 0.46319 0.0
C387 C 0.93051 0.15236 0.56145 0.0
C388 C 0.14824 0.92367 0.51382 0.0
C389 C 0.13365 0.90375 0.5487 0.0
H390 H 0.1914 0.96986 0.48943 0.0
C391 C 0.1502 0.91736 0.58703 0.0
H392 H 0.13603 0.91368 0.48393 0.0
C393 C 0.18104 0.95041 0.5903 0.0
C394 C 0.19654 0.96925 0.55514 0.0
H395 H 0.1392 0.90256 0.61437 0.0
H396 H 0.19375 0.96027 0.62001 0.0
C397 C 0.17986 0.9557 0.51694 0.0
C398 C 0.19418 0.19802 0.4808 0.0
C399 C 0.17204 0.22285 0.50692 0.0
H400 H 0.23613 0.15234 0.47586 0.0
C401 C 0.17918 0.22349 0.54912 0.0
H402 H 0.18955 0.197 0.44811 0.0
C403 C 0.20561 0.19761 0.56503 0.0
C404 C 0.22578 0.17089 0.53906 0.0
H405 H 0.16269 0.2423 0.57009 0.0
H406 H 0.20892 0.19737 0.59782 0.0
C407 C 0.22096 0.17246 0.49669 0.0
loop_
_geom_bond_atom_site_label_1
_geom_bond_atom_site_label_2
_geom_bond_distance
_geom_bond_site_symmetry_2
_ccdc_geom_bond_type
O0 Cd1 2.223 . S
O0 C8 1.315 1_455 S
Cd1 O0 2.223 . S
Cd1 O4 2.297 . S
Cd1 O5 2.439 . S
Cd1 O11 2.240 . S
Cd2 O3 2.240 . S
Cd2 O10 2.223 . S
Cd2 O12 2.297 1_655 S
Cd2 O13 2.439 1_655 S
O3 Cd2 2.240 . S
O3 C8 1.279 . S
O4 Cd1 2.297 . S
O4 C6 1.247 . S
O5 Cd1 2.439 . S
O5 C6 1.208 . S
C6 O4 1.247 . S
C6 O5 1.208 . S
C7 O12 1.247 . S
C7 O13 1.208 . S
C8 O0 1.315 1_655 S
C8 O3 1.279 . S
C9 O10 1.315 1_455 S
C9 O11 1.279 . S
O10 Cd2 2.223 . S
O10 C9 1.315 1_655 S
O11 Cd1 2.240 . S
O11 C9 1.279 . S
O12 Cd2 2.297 1_455 S
O12 C7 1.247 . S
O13 Cd2 2.439 1_455 S
O13 C7 1.208 . S
O14 Cd15 2.223 . S
O14 C22 1.315 . S
Cd15 O14 2.223 . S
Cd15 O18 2.297 . S
Cd15 O19 2.439 . S
Cd15 O25 2.240 . S
Cd16 O17 2.240 . S
Cd16 O24 2.223 . S
Cd16 O26 2.305 . S
Cd16 O27 2.434 1_545 S
O17 Cd16 2.240 . S
O17 C22 1.279 . S
O18 Cd15 2.297 . S
O18 C20 1.247 . S
O19 Cd15 2.439 . S
O19 C20 1.208 . S
C20 O18 1.247 . S
C20 O19 1.208 . S
C21 O26 1.245 1_565 S
C21 O27 1.213 . S
C22 O14 1.315 . S
C22 O17 1.279 . S
C23 O24 1.315 . S
C23 O25 1.279 . S
O24 Cd16 2.223 . S
O24 C23 1.315 . S
O25 Cd15 2.240 . S
O25 C23 1.279 . S
O26 Cd16 2.305 . S
O26 C21 1.245 1_545 S
O27 Cd16 2.434 1_565 S
O27 C21 1.213 . S
O28 Cd29 2.223 . S
O28 C36 1.315 . S
Cd29 O28 2.223 . S
Cd29 O32 2.297 1_455 S
Cd29 O33 2.439 1_455 S
Cd29 O39 2.240 . S
Cd30 O31 2.240 . S
Cd30 O38 2.223 . S
Cd30 O40 2.297 . S
Cd30 O41 2.439 . S
O31 Cd30 2.240 . S
O31 C36 1.279 . S
O32 Cd29 2.297 1_655 S
O32 C34 1.247 . S
O33 Cd29 2.439 1_655 S
O33 C34 1.208 . S
C34 O32 1.247 . S
C34 O33 1.208 . S
C35 O40 1.247 . S
C35 O41 1.208 . S
C36 O28 1.315 . S
C36 O31 1.279 . S
C37 O38 1.315 . S
C37 O39 1.279 . S
O38 Cd30 2.223 . S
O38 C37 1.315 . S
O39 Cd29 2.240 . S
O39 C37 1.279 . S
O40 Cd30 2.297 . S
O40 C35 1.247 . S
O41 Cd30 2.439 . S
O41 C35 1.208 . S
O42 Cd43 2.223 . S
O42 C50 1.315 1_545 S
Cd43 O42 2.223 . S
Cd43 O46 2.297 . S
Cd43 O47 2.439 . S
Cd43 O53 2.240 . S
Cd44 O45 2.239 1_565 S
Cd44 O52 2.226 . S
Cd44 O54 2.296 1_565 S
Cd44 O55 2.432 1_565 S
O45 Cd44 2.239 1_545 S
O45 C50 1.279 1_545 S
O46 Cd43 2.297 . S
O46 C48 1.247 . S
O47 Cd43 2.439 . S
O47 C48 1.208 . S
C48 O46 1.247 . S
C48 O47 1.208 . S
C49 O54 1.247 . S
C49 O55 1.208 . S
C50 O42 1.315 1_565 S
C50 O45 1.279 1_565 S
C51 O52 1.315 1_545 S
C51 O53 1.279 . S
O52 Cd44 2.226 . S
O52 C51 1.315 1_565 S
O53 Cd43 2.240 . S
O53 C51 1.279 . S
O54 Cd44 2.296 1_545 S
O54 C49 1.247 . S
O55 Cd44 2.432 1_545 S
O55 C49 1.208 . S
O56 Cd57 2.223 . S
O56 C64 1.315 . S
Cd57 O56 2.223 . S
Cd57 O60 2.297 . S
Cd57 O61 2.439 . S
Cd57 O67 2.240 . S
Cd58 O59 2.240 . S
Cd58 O66 2.224 . S
Cd58 O68 2.297 . S
Cd58 O69 2.439 . S
O59 Cd58 2.240 . S
O59 C64 1.279 . S
O60 Cd57 2.297 . S
O60 C62 1.247 . S
O61 Cd57 2.439 . S
O61 C62 1.208 . S
C62 O60 1.247 . S
C62 O61 1.208 . S
C63 O68 1.247 . S
C63 O69 1.208 . S
C64 O56 1.315 . S
C64 O59 1.279 . S
C65 O66 1.318 . S
C65 O67 1.279 . S
O66 Cd58 2.224 . S
O66 C65 1.318 . S
O67 Cd57 2.240 . S
O67 C65 1.279 . S
O68 Cd58 2.297 . S
O68 C63 1.247 . S
O69 Cd58 2.439 . S
O69 C63 1.208 . S
O70 Cd71 2.223 . S
O70 C78 1.315 1_655 S
Cd71 O70 2.223 . S
Cd71 O74 2.297 1_655 S
Cd71 O75 2.439 1_655 S
Cd71 O81 2.240 1_655 S
Cd72 O73 2.240 . S
Cd72 O80 2.223 . S
Cd72 O82 2.297 . S
Cd72 O83 2.439 . S
O73 Cd72 2.240 . S
O73 C78 1.279 . S
O74 Cd71 2.297 1_455 S
O74 C76 1.247 . S
O75 Cd71 2.439 1_455 S
O75 C76 1.208 . S
C76 O74 1.247 . S
C76 O75 1.208 . S
C77 O82 1.247 . S
C77 O83 1.208 . S
C78 O70 1.315 1_455 S
C78 O73 1.279 . S
C79 O80 1.315 1_655 S
C79 O81 1.279 1_655 S
O80 Cd72 2.223 . S
O80 C79 1.315 1_455 S
O81 Cd71 2.240 1_455 S
O81 C79 1.279 1_455 S
O82 Cd72 2.297 . S
O82 C77 1.247 . S
O83 Cd72 2.439 . S
O83 C77 1.208 . S
O84 Cd85 2.223 . S
O84 C92 1.315 . S
Cd85 O84 2.223 . S
Cd85 O88 2.297 1_545 S
Cd85 O89 2.439 1_545 S
Cd85 O95 2.240 . S
Cd86 O87 2.240 . S
Cd86 O94 2.223 . S
Cd86 O96 2.297 . S
Cd86 O97 2.439 . S
O87 Cd86 2.240 . S
O87 C92 1.279 . S
O88 Cd85 2.297 1_565 S
O88 C90 1.247 . S
O89 Cd85 2.439 1_565 S
O89 C90 1.208 . S
C90 O88 1.247 . S
C90 O89 1.208 . S
C91 O96 1.247 . S
C91 O97 1.208 . S
C92 O84 1.315 . S
C92 O87 1.279 . S
C93 O94 1.315 . S
C93 O95 1.279 . S
O94 Cd86 2.223 . S
O94 C93 1.315 . S
O95 Cd85 2.240 . S
O95 C93 1.279 . S
O96 Cd86 2.297 . S
O96 C91 1.247 . S
O97 Cd86 2.439 . S
O97 C91 1.208 . S
O98 Cd99 2.223 1_655 S
O98 C106 1.315 1_655 S
Cd99 O98 2.223 1_455 S
Cd99 O102 2.297 . S
Cd99 O103 2.439 . S
Cd99 O109 2.240 . S
Cd100 O101 2.240 . S
Cd100 O108 2.223 . S
Cd100 O110 2.297 . S
Cd100 O111 2.439 . S
O101 Cd100 2.240 . S
O101 C106 1.279 . S
O102 Cd99 2.297 . S
O102 C104 1.247 . S
O103 Cd99 2.439 . S
O103 C104 1.208 . S
C104 O102 1.247 . S
C104 O103 1.208 . S
C105 O110 1.247 . S
C105 O111 1.208 . S
C106 O98 1.315 1_455 S
C106 O101 1.279 . S
C107 O108 1.315 1_655 S
C107 O109 1.279 1_655 S
O108 Cd100 2.223 . S
O108 C107 1.315 1_455 S
O109 Cd99 2.240 . S
O109 C107 1.279 1_455 S
O110 Cd100 2.297 . S
O110 C105 1.247 . S
O111 Cd100 2.439 . S
O111 C105 1.208 . S
O112 Cd113 2.223 . S
O112 C120 1.315 . S
Cd113 O112 2.223 . S
Cd113 O116 2.297 . S
Cd113 O117 2.439 . S
Cd113 O123 2.240 . S
Cd114 O115 2.240 . S
Cd114 O122 2.223 . S
Cd114 O124 2.297 1_554 S
Cd114 O125 2.439 1_554 S
O115 Cd114 2.240 . S
O115 C120 1.279 . S
O116 Cd113 2.297 . S
O116 C118 1.247 . S
O117 Cd113 2.439 . S
O117 C118 1.208 . S
C118 O116 1.247 . S
C118 O117 1.208 . S
C119 O124 1.247 . S
C119 O125 1.208 . S
C120 O112 1.315 . S
C120 O115 1.279 . S
C121 O122 1.315 . S
C121 O123 1.279 . S
O122 Cd114 2.223 . S
O122 C121 1.315 . S
O123 Cd113 2.240 . S
O123 C121 1.279 . S
O124 Cd114 2.297 1_556 S
O124 C119 1.247 . S
O125 Cd114 2.439 1_556 S
O125 C119 1.208 . S
O126 Cd127 2.223 . S
O126 C134 1.315 . S
Cd127 O126 2.223 . S
Cd127 O130 2.297 . S
Cd127 O131 2.439 1_556 S
Cd127 O137 2.240 . S
Cd128 O129 2.240 . S
Cd128 O136 2.223 1_554 S
Cd128 O138 2.297 . S
Cd128 O139 2.439 . S
O129 Cd128 2.240 . S
O129 C134 1.279 1_554 S
O130 Cd127 2.297 . S
O130 C132 1.247 1_556 S
O131 Cd127 2.439 1_554 S
O131 C132 1.208 . S
C132 O130 1.247 1_554 S
C132 O131 1.208 . S
C133 O138 1.247 . S
C133 O139 1.208 . S
C134 O126 1.315 . S
C134 O129 1.279 1_556 S
C135 O136 1.315 . S
C135 O137 1.279 . S
O136 Cd128 2.223 1_556 S
O136 C135 1.315 . S
O137 Cd127 2.240 . S
O137 C135 1.279 . S
O138 Cd128 2.297 . S
O138 C133 1.247 . S
O139 Cd128 2.439 . S
O139 C133 1.208 . S
O140 Cd141 2.223 . S
O140 C148 1.315 . S
Cd141 O140 2.223 . S
Cd141 O144 2.297 . S
Cd141 O145 2.439 . S
Cd141 O151 2.240 . S
Cd142 O143 2.240 . S
Cd142 O150 2.223 . S
Cd142 O152 2.297 1_554 S
Cd142 O153 2.439 1_554 S
O143 Cd142 2.240 . S
O143 C148 1.279 . S
O144 Cd141 2.297 . S
O144 C146 1.247 . S
O145 Cd141 2.439 . S
O145 C146 1.208 . S
C146 O144 1.247 . S
C146 O145 1.208 . S
C147 O152 1.247 . S
C147 O153 1.208 . S
C148 O140 1.315 . S
C148 O143 1.279 . S
C149 O150 1.315 . S
C149 O151 1.279 . S
O150 Cd142 2.223 . S
O150 C149 1.315 . S
O151 Cd141 2.240 . S
O151 C149 1.279 . S
O152 Cd142 2.297 1_556 S
O152 C147 1.247 . S
O153 Cd142 2.439 1_556 S
O153 C147 1.208 . S
O154 Cd155 2.223 1_556 S
O154 C162 1.315 1_556 S
Cd155 O154 2.223 1_554 S
Cd155 O158 2.297 . S
Cd155 O159 2.439 . S
Cd155 O165 2.240 . S
Cd156 O157 2.240 . S
Cd156 O164 2.223 . S
Cd156 O166 2.297 . S
Cd156 O167 2.439 . S
O157 Cd156 2.240 . S
O157 C162 1.279 . S
O158 Cd155 2.297 . S
O158 C160 1.247 . S
O159 Cd155 2.439 . S
O159 C160 1.208 . S
C160 O158 1.247 . S
C160 O159 1.208 . S
C161 O166 1.247 . S
C161 O167 1.208 . S
C162 O154 1.315 1_554 S
C162 O157 1.279 . S
C163 O164 1.315 . S
C163 O165 1.279 . S
O164 Cd156 2.223 . S
O164 C163 1.315 . S
O165 Cd155 2.240 . S
O165 C163 1.279 . S
O166 Cd156 2.297 . S
O166 C161 1.247 . S
O167 Cd156 2.439 . S
O167 C161 1.208 . S
C168 C169 1.387 . S
C168 H172 0.950 . S
C168 C177 1.390 . S
C169 C168 1.387 . S
C169 C171 1.387 . S
H170 C177 0.950 . S
C171 C169 1.387 . S
C171 C173 1.390 . S
C171 H175 0.950 . S
H172 C168 0.950 . S
C173 C171 1.390 . S
C173 C174 1.387 . S
C173 H176 0.950 . S
C174 C173 1.387 . S
C174 C177 1.387 . S
H175 C171 0.950 . S
H176 C173 0.950 . S
C177 C168 1.390 . S
C177 H170 0.950 . S
C177 C174 1.387 . S
C178 C179 1.387 . S
C178 H182 0.950 . S
C178 C187 1.390 . S
C179 C178 1.387 . S
C179 C181 1.387 . S
H180 C187 0.950 . S
C181 C179 1.387 . S
C181 C183 1.390 . S
C181 H185 0.950 . S
H182 C178 0.950 . S
C183 C181 1.390 . S
C183 C184 1.387 . S
C183 H186 0.950 . S
C184 C183 1.387 . S
C184 C187 1.387 . S
H185 C181 0.950 . S
H186 C183 0.950 . S
C187 C178 1.390 . S
C187 H180 0.950 . S
C187 C184 1.387 . S
C188 C189 1.387 . S
C188 H192 0.950 . S
C188 C197 1.390 . S
C189 C188 1.387 . S
C189 C191 1.387 . S
H190 C197 0.950 . S
C191 C189 1.387 . S
C191 C193 1.390 . S
C191 H195 0.950 . S
H192 C188 0.950 . S
C193 C191 1.390 . S
C193 C194 1.387 . S
C193 H196 0.950 . S
C194 C193 1.387 . S
C194 C197 1.387 . S
H195 C191 0.950 . S
H196 C193 0.950 . S
C197 C188 1.390 . S
C197 H190 0.950 . S
C197 C194 1.387 . S
C198 C199 1.387 . S
C198 H202 0.950 . S
C198 C207 1.390 . S
C199 C198 1.387 . S
C199 C201 1.387 . S
H200 C207 0.950 . S
C201 C199 1.387 . S
C201 C203 1.390 . S
C201 H205 0.950 . S
H202 C198 0.950 . S
C203 C201 1.390 . S
C203 C204 1.387 . S
C203 H206 0.950 . S
C204 C203 1.387 . S
C204 C207 1.387 . S
H205 C201 0.950 . S
H206 C203 0.950 . S
C207 C198 1.390 . S
C207 H200 0.950 . S
C207 C204 1.387 . S
C208 C209 1.387 . S
C208 H212 0.950 . S
C208 C217 1.390 . S
C209 C208 1.387 . S
C209 C211 1.387 . S
H210 C217 0.950 1_655 S
C211 C209 1.387 . S
C211 C213 1.390 . S
C211 H215 0.950 . S
H212 C208 0.950 . S
C213 C211 1.390 . S
C213 C214 1.387 . S
C213 H216 0.950 . S
C214 C213 1.387 . S
C214 C217 1.387 . S
H215 C211 0.950 . S
H216 C213 0.950 . S
C217 C208 1.390 . S
C217 H210 0.950 1_455 S
C217 C214 1.387 . S
C218 C219 1.387 . S
C218 H222 0.950 . S
C218 C227 1.390 . S
C219 C218 1.387 . S
C219 C221 1.387 . S
H220 C227 0.950 . S
C221 C219 1.387 . S
C221 C223 1.390 1_545 S
C221 H225 0.950 1_545 S
H222 C218 0.950 . S
C223 C221 1.390 1_565 S
C223 C224 1.387 1_565 S
C223 H226 0.950 . S
C224 C223 1.387 1_545 S
C224 C227 1.387 . S
H225 C221 0.950 1_565 S
H226 C223 0.950 . S
C227 C218 1.390 . S
C227 H220 0.950 . S
C227 C224 1.387 . S
C228 C229 1.387 . S
C228 H232 0.950 . S
C228 C237 1.390 . S
C229 C228 1.387 . S
C229 C231 1.387 . S
H230 C237 0.950 . S
C231 C229 1.387 . S
C231 C233 1.390 . S
C231 H235 0.950 . S
H232 C228 0.950 . S
C233 C231 1.390 . S
C233 C234 1.387 . S
C233 H236 0.950 1_455 S
C234 C233 1.387 . S
C234 C237 1.387 . S
H235 C231 0.950 . S
H236 C233 0.950 1_655 S
C237 C228 1.390 . S
C237 H230 0.950 . S
C237 C234 1.387 . S
C238 C239 1.387 . S
C238 H242 0.950 . S
C238 C247 1.390 . S
C239 C238 1.387 . S
C239 C241 1.387 . S
H240 C247 0.950 . S
C241 C239 1.387 . S
C241 C243 1.390 . S
C241 H245 0.950 . S
H242 C238 0.950 . S
C243 C241 1.390 . S
C243 C244 1.387 . S
C243 H246 0.950 . S
C244 C243 1.387 . S
C244 C247 1.387 . S
H245 C241 0.950 . S
H246 C243 0.950 . S
C247 C238 1.390 . S
C247 H240 0.950 . S
C247 C244 1.387 . S
C248 C249 1.387 1_556 S
C248 H252 0.950 . S
C248 C257 1.390 . S
C249 C248 1.387 1_554 S
C249 C251 1.387 . S
H250 C257 0.950 . S
C251 C249 1.387 . S
C251 C253 1.390 . S
C251 H255 0.950 . S
H252 C248 0.950 . S
C253 C251 1.390 . S
C253 C254 1.387 . S
C253 H256 0.950 . S
C254 C253 1.387 . S
C254 C257 1.387 1_554 S
H255 C251 0.950 . S
H256 C253 0.950 . S
C257 C248 1.390 . S
C257 H250 0.950 . S
C257 C254 1.387 1_556 S
C258 C259 1.387 . S
C258 H262 0.950 . S
C258 C267 1.390 . S
C259 C258 1.387 . S
C259 C261 1.387 . S
H260 C267 0.950 . S
C261 C259 1.387 . S
C261 C263 1.390 . S
C261 H265 0.950 . S
H262 C258 0.950 . S
C263 C261 1.390 . S
C263 C264 1.387 . S
C263 H266 0.950 1_554 S
C264 C263 1.387 . S
C264 C267 1.387 . S
H265 C261 0.950 . S
H266 C263 0.950 1_556 S
C267 C258 1.390 . S
C267 H260 0.950 . S
C267 C264 1.387 . S
C268 C269 1.387 . S
C268 H272 0.950 . S
C268 C277 1.390 . S
C269 C268 1.387 . S
C269 C271 1.387 1_554 S
H270 C277 0.950 . S
C271 C269 1.387 1_556 S
C271 C273 1.390 1_556 S
C271 H275 0.950 . S
H272 C268 0.950 . S
C273 C271 1.390 1_554 S
C273 C274 1.387 . S
C273 H276 0.950 1_554 S
C274 C273 1.387 . S
C274 C277 1.387 . S
H275 C271 0.950 . S
H276 C273 0.950 1_556 S
C277 C268 1.390 . S
C277 H270 0.950 . S
C277 C274 1.387 . S
C278 C279 1.387 . S
C278 H282 0.950 . S
C278 C287 1.390 . S
C279 C278 1.387 . S
C279 C281 1.387 . S
H280 C287 0.950 . S
C281 C279 1.387 . S
C281 C283 1.390 . S
C281 H285 0.950 1_554 S
H282 C278 0.950 . S
C283 C281 1.390 . S
C283 C284 1.387 . S
C283 H286 0.942 1_554 S
C284 C283 1.387 . S
C284 C287 1.387 . S
H285 C281 0.950 1_556 S
H286 C283 0.942 1_556 S
C287 C278 1.390 . S
C287 H280 0.950 . S
C287 C284 1.387 . S
C288 C289 1.387 . S
C288 H292 0.950 . S
C288 C297 1.390 . S
C289 C288 1.387 . S
C289 C291 1.387 . S
H290 C297 0.950 . S
C291 C289 1.387 . S
C291 C293 1.390 . S
C291 H295 0.950 . S
H292 C288 0.950 . S
C293 C291 1.390 . S
C293 C294 1.387 . S
C293 H296 0.950 . S
C294 C293 1.387 . S
C294 C297 1.387 . S
H295 C291 0.950 . S
H296 C293 0.950 . S
C297 C288 1.390 . S
C297 H290 0.950 . S
C297 C294 1.387 . S
C298 C299 1.387 . S
C298 H302 0.950 . S
C298 C307 1.390 . S
C299 C298 1.387 . S
C299 C301 1.387 . S
H300 C307 0.950 . S
C301 C299 1.387 . S
C301 C303 1.390 . S
C301 H305 0.950 . S
H302 C298 0.950 . S
C303 C301 1.390 . S
C303 C304 1.387 . S
C303 H306 0.950 . S
C304 C303 1.387 . S
C304 C307 1.387 . S
H305 C301 0.950 . S
H306 C303 0.950 . S
C307 C298 1.390 . S
C307 H300 0.950 . S
C307 C304 1.387 . S
C308 C309 1.387 . S
C308 H312 0.950 . S
C308 C317 1.390 . S
C309 C308 1.387 . S
C309 C311 1.387 . S
H310 C317 0.950 . S
C311 C309 1.387 . S
C311 C313 1.390 . S
C311 H315 0.950 . S
H312 C308 0.950 . S
C313 C311 1.390 . S
C313 C314 1.387 . S
C313 H316 0.950 . S
C314 C313 1.387 . S
C314 C317 1.387 . S
H315 C311 0.950 . S
H316 C313 0.950 . S
C317 C308 1.390 . S
C317 H310 0.950 . S
C317 C314 1.387 . S
C318 C319 1.387 . S
C318 H322 0.950 . S
C318 C327 1.390 . S
C319 C318 1.387 . S
C319 C321 1.387 . S
H320 C327 0.950 . S
C321 C319 1.387 . S
C321 C323 1.390 . S
C321 H325 0.950 . S
H322 C318 0.950 . S
C323 C321 1.390 . S
C323 C324 1.387 . S
C323 H326 0.950 . S
C324 C323 1.387 . S
C324 C327 1.387 . S
H325 C321 0.950 . S
H326 C323 0.950 . S
C327 C318 1.390 . S
C327 H320 0.950 . S
C327 C324 1.387 . S
C328 C329 1.387 . S
C328 H332 0.950 . S
C328 C337 1.390 . S
C329 C328 1.387 . S
C329 C331 1.387 . S
H330 C337 0.950 . S
C331 C329 1.387 . S
C331 C333 1.390 . S
C331 H335 0.950 . S
H332 C328 0.950 . S
C333 C331 1.390 . S
C333 C334 1.387 . S
C333 H336 0.950 . S
C334 C333 1.387 . S
C334 C337 1.387 . S
H335 C331 0.950 . S
H336 C333 0.950 . S
C337 C328 1.390 . S
C337 H330 0.950 . S
C337 C334 1.387 . S
C338 C339 1.387 . S
C338 H342 0.950 . S
C338 C347 1.390 . S
C339 C338 1.387 . S
C339 C341 1.387 . S
H340 C347 0.950 . S
C341 C339 1.387 . S
C341 C343 1.390 . S
C341 H345 0.950 . S
H342 C338 0.950 . S
C343 C341 1.390 . S
C343 C344 1.387 . S
C343 H346 0.950 . S
C344 C343 1.387 . S
C344 C347 1.387 . S
H345 C341 0.950 . S
H346 C343 0.950 . S
C347 C338 1.390 . S
C347 H340 0.950 . S
C347 C344 1.387 . S
C348 C349 1.387 . S
C348 H352 0.950 . S
C348 C357 1.390 . S
C349 C348 1.387 . S
C349 C351 1.387 . S
H350 C357 0.950 . S
C351 C349 1.387 . S
C351 C353 1.390 . S
C351 H355 0.950 . S
H352 C348 0.950 . S
C353 C351 1.390 . S
C353 C354 1.387 . S
C353 H356 0.950 . S
C354 C353 1.387 . S
C354 C357 1.387 . S
H355 C351 0.950 . S
H356 C353 0.950 . S
C357 C348 1.390 . S
C357 H350 0.950 . S
C357 C354 1.387 . S
C358 C359 1.387 . S
C358 H362 0.950 . S
C358 C367 1.390 . S
C359 C358 1.387 . S
C359 C361 1.387 . S
H360 C367 0.950 . S
C361 C359 1.387 . S
C361 C363 1.390 . S
C361 H365 0.950 . S
H362 C358 0.950 . S
C363 C361 1.390 . S
C363 C364 1.387 . S
C363 H366 0.950 . S
C364 C363 1.387 . S
C364 C367 1.387 . S
H365 C361 0.950 . S
H366 C363 0.950 . S
C367 C358 1.390 . S
C367 H360 0.950 . S
C367 C364 1.387 . S
C368 C369 1.387 . S
C368 H372 0.950 . S
C368 C377 1.390 . S
C369 C368 1.387 . S
C369 C371 1.387 . S
H370 C377 0.950 . S
C371 C369 1.387 . S
C371 C373 1.390 . S
C371 H375 0.950 . S
H372 C368 0.950 . S
C373 C371 1.390 . S
C373 C374 1.387 . S
C373 H376 0.950 . S
C374 C373 1.387 . S
C374 C377 1.387 . S
H375 C371 0.950 . S
H376 C373 0.950 . S
C377 C368 1.390 . S
C377 H370 0.950 . S
C377 C374 1.387 . S
C378 C379 1.387 . S
C378 H382 0.950 . S
C378 C387 1.390 . S
C379 C378 1.387 . S
C379 C381 1.387 . S
H380 C387 0.950 . S
C381 C379 1.387 . S
C381 C383 1.390 . S
C381 H385 0.950 . S
H382 C378 0.950 . S
C383 C381 1.390 . S
C383 C384 1.387 . S
C383 H386 0.950 . S
C384 C383 1.387 . S
C384 C387 1.387 . S
H385 C381 0.950 . S
H386 C383 0.950 . S
C387 C378 1.390 . S
C387 H380 0.950 . S
C387 C384 1.387 . S
C388 C389 1.387 . S
C388 H392 0.950 . S
C388 C397 1.390 . S
C389 C388 1.387 . S
C389 C391 1.387 . S
H390 C397 0.950 . S
C391 C389 1.387 . S
C391 C393 1.390 . S
C391 H395 0.950 . S
H392 C388 0.950 . S
C393 C391 1.390 . S
C393 C394 1.387 . S
C393 H396 0.950 . S
C394 C393 1.387 . S
C394 C397 1.387 . S
H395 C391 0.950 . S
H396 C393 0.950 . S
C397 C388 1.390 . S
C397 H390 0.950 . S
C397 C394 1.387 . S
C398 C399 1.387 . S
C398 H402 0.950 . S
C398 C407 1.390 . S
C399 C398 1.387 . S
C399 C401 1.387 . S
H400 C407 0.950 . S
C401 C399 1.387 . S
C401 C403 1.390 . S
C401 H405 0.950 . S
H402 C398 0.950 . S
C403 C401 1.390 . S
C403 C404 1.387 . S
C403 H406 0.950 . S
C404 C403 1.387 . S
C404 C407 1.387 . S
H405 C401 0.950 . S
H406 C403 0.950 . S
C407 C398 1.390 . S
C407 H400 0.950 . S
C407 C404 1.387 . S
C169 C9 1.867 . S
C174 C76 1.808 . S
C179 C20 1.154 . S
C184 C63 1.138 . S
C189 C78 1.892 . S
C194 C37 1.867 . S
C199 C49 1.434 . S
C204 C65 1.502 . S
C209 C104 1.274 . S
C214 C35 1.269 . S
C219 C93 2.041 . S
C224 C51 2.039 . S
C229 C7 1.285 . S
C234 C106 1.360 . S
C239 C91 1.644 . S
C244 C22 1.725 . S
C249 C132 1.430 . S
C254 C118 1.416 . S
C259 C120 1.471 . S
C264 C162 1.468 . S
C269 C134 1.736 1_554 S
C274 C148 1.741 . S
C279 C146 1.622 . S
C284 C160 1.607 . S
C289 C163 1.867 1_556 S
C294 C90 1.811 . S
C299 C119 1.154 . S
C304 C105 1.138 . S
C309 C92 1.890 . S
C314 C135 1.867 . S
C319 C107 1.504 . S
C324 C147 1.438 . S
C329 C62 1.270 . S
C334 C133 1.265 . S
C339 C79 2.041 . S
C344 C149 2.040 . S
C349 C161 1.281 . S
C354 C64 1.358 1_565 S
C359 C121 1.725 . S
C364 C77 1.646 . S
C369 C21 1.416 . S
C374 C34 1.430 . S
C379 C8 1.468 . S
C384 C23 1.470 . S
C389 C36 1.738 . S
C394 C50 1.740 . S
C399 C6 1.607 . S
C404 C48 1.621 . S
