# Generated by pormake.
# Topology tfs, (6)-cn, num edge types: 1
# Building blocks:
#     Node 0, Type 0, BuildingBlock: CIFDUS_clean_sbu_1, # of connection points: 6
#     Node 1, Type 0, BuildingBlock: CIFDUS_clean_sbu_1, # of connection points: 6
#     Node 2, Type 0, BuildingBlock: CIFDUS_clean_sbu_1, # of connection points: 6
#     Node 3, Type 0, BuildingBlock: CIFDUS_clean_sbu_1, # of connection points: 6
#     Node 4, Type 0, BuildingBlock: CIFDUS_clean_sbu_1, # of connection points: 6
#     Node 5, Type 0, BuildingBlock: CIFDUS_clean_sbu_1, # of connection points: 6
#     Edge 6, Type (0, 0), BuildingBlock: UVAHIK_clean_linker_0, # of connection points: 2
#     Edge 7, Type (0, 0), BuildingBlock: UVAHIK_clean_linker_0, # of connection points: 2
#     Edge 8, Type (0, 0), BuildingBlock: UVAHIK_clean_linker_0, # of connection points: 2
#     Edge 9, Type (0, 0), BuildingBlock: UVAHIK_clean_linker_0, # of connection points: 2
#     Edge 10, Type (0, 0), BuildingBlock: UVAHIK_clean_linker_0, # of connection points: 2
#     Edge 11, Type (0, 0), BuildingBlock: UVAHIK_clean_linker_0, # of connection points: 2
#     Edge 12, Type (0, 0), BuildingBlock: UVAHIK_clean_linker_0, # of connection points: 2
#     Edge 13, Type (0, 0), BuildingBlock: UVAHIK_clean_linker_0, # of connection points: 2
#     Edge 14, Type (0, 0), BuildingBlock: UVAHIK_clean_linker_0, # of connection points: 2
#     Edge 15, Type (0, 0), BuildingBlock: UVAHIK_clean_linker_0, # of connection points: 2
#     Edge 16, Type (0, 0), BuildingBlock: UVAHIK_clean_linker_0, # of connection points: 2
#     Edge 17, Type (0, 0), BuildingBlock: UVAHIK_clean_linker_0, # of connection points: 2
#     Edge 18, Type (0, 0), BuildingBlock: UVAHIK_clean_linker_0, # of connection points: 2
#     Edge 19, Type (0, 0), BuildingBlock: UVAHIK_clean_linker_0, # of connection points: 2
#     Edge 20, Type (0, 0), BuildingBlock: UVAHIK_clean_linker_0, # of connection points: 2
#     Edge 21, Type (0, 0), BuildingBlock: UVAHIK_clean_linker_0, # of connection points: 2
#     Edge 22, Type (0, 0), BuildingBlock: UVAHIK_clean_linker_0, # of connection points: 2
#     Edge 23, Type (0, 0), BuildingBlock: UVAHIK_clean_linker_0, # of connection points: 2
# Relax obj value: 0.213
# Max RMSD: 0.172
# Mean RMSD: 0.172
data_MOF--net-tfs--node1-CIFDUS_clean_sbu_1--edge1-UVAHIK_clean_linker_0
_symmetry_space_group_name_H-M    P1
_symmetry_Int_Tables_number       1
_symmetry_cell_setting            triclinic
loop_
_symmetry_equiv_pos_as_xyz
'x, y, z'
_cell_length_a     53.769195
_cell_length_b     53.716997
_cell_length_c     20.345708
_cell_angle_alpha  90.032168
_cell_angle_beta   89.934423
_cell_angle_gamma 119.99167
loop_
_atom_site_label
_atom_site_type_symbol
_atom_site_fract_x
_atom_site_fract_y
_atom_site_fract_z
_atom_type_partial_charge
O0 O 0.20861 0.41931 0.89513 0.0
Mn1 Mn 0.20631 0.42293 0.99762 0.0
O2 O 0.17084 0.42184 0.85384 0.0
Mn3 Mn 0.15605 0.42687 0.932 0.0
O4 O 0.20279 0.42633 0.10009 0.0
O5 O 0.22786 0.40021 0.01003 0.0
Mn6 Mn 0.25624 0.4241 0.06342 0.0
O7 O 0.24436 0.46381 0.99372 0.0
O8 O 0.24181 0.42758 0.14297 0.0
O9 O 0.16664 0.38293 1.0002 0.0
O10 O 0.13193 0.39339 0.97562 0.0
O11 O 0.2631 0.39495 0.0535 0.0
O12 O 0.28103 0.458 0.02224 0.0
C13 C 0.18144 0.46652 0.98394 0.0
C14 C 0.19289 0.41898 0.8469 0.0
C15 C 0.21855 0.42804 0.14934 0.0
C16 C 0.24063 0.38487 0.01608 0.0
C17 C 0.27146 0.47353 0.99994 0.0
C18 C 0.13988 0.37595 0.99508 0.0
O19 O 0.18577 0.445 0.98406 0.0
O20 O 0.15888 0.46188 0.95139 0.0
O21 O 0.78557 0.20425 0.89545 0.0
Mn22 Mn 0.78533 0.20628 0.99926 0.0
O23 O 0.74341 0.1652 0.86792 0.0
Mn24 Mn 0.72871 0.15362 0.95212 0.0
O25 O 0.78458 0.20757 0.10319 0.0
O26 O 0.83011 0.2281 0.99907 0.0
Mn27 Mn 0.83648 0.25943 0.04397 0.0
O28 O 0.78145 0.24371 0.99264 0.0
O29 O 0.82346 0.24946 0.12947 0.0
O30 O 0.78641 0.16695 0.00527 0.0
O31 O 0.74053 0.13129 0.99464 0.0
O32 O 0.87203 0.26667 0.02647 0.0
O33 O 0.82497 0.28177 1.00027 0.0
C34 C 0.71572 0.17952 0.00529 0.0
C35 C 0.7677 0.18677 0.85237 0.0
C36 C 0.80107 0.2262 0.1461 0.0
C37 C 0.85843 0.24165 0.99863 0.0
C38 C 0.79855 0.27094 0.98851 0.0
C39 C 0.76675 0.14003 0.0072 0.0
O40 O 0.74202 0.1853 0.99848 0.0
O41 O 0.69694 0.15532 0.97947 0.0
O42 O 0.58456 0.79274 0.89834 0.0
Mn43 Mn 0.58234 0.7861 0.00071 0.0
O44 O 0.57368 0.75023 0.85209 0.0
Mn45 Mn 0.57319 0.73152 0.92874 0.0
O46 O 0.58071 0.77896 0.10461 0.0
O47 O 0.60818 0.83014 0.01444 0.0
Mn48 Mn 0.58916 0.83437 0.08242 0.0
O49 O 0.54346 0.78647 0.00086 0.0
O50 O 0.60234 0.82265 0.15124 0.0
O51 O 0.62087 0.78381 0.99807 0.0
O52 O 0.60855 0.73975 0.95983 0.0
O53 O 0.60531 0.86834 0.04051 0.0
O54 O 0.54953 0.81698 0.0805 0.0
C55 C 0.53628 0.71655 0.98967 0.0
C56 C 0.57971 0.77634 0.84804 0.0
C57 C 0.59298 0.7958 0.15429 0.0
C58 C 0.61365 0.85604 0.99818 0.0
C59 C 0.53346 0.79804 0.03963 0.0
C60 C 0.6269 0.76395 0.98358 0.0
O61 O 0.55725 0.74299 0.98806 0.0
O62 O 0.54016 0.69894 0.95353 0.0
O63 O 0.79474 0.58561 0.90031 0.0
Mn64 Mn 0.7973 0.58144 0.00238 0.0
O65 O 0.8313 0.58123 0.85786 0.0
Mn66 Mn 0.84532 0.57494 0.93561 0.0
O67 O 0.80094 0.57771 0.10583 0.0
O68 O 0.77905 0.60678 0.01877 0.0
Mn69 Mn 0.7537 0.58742 0.0826 0.0
O70 O 0.75799 0.5425 0.99917 0.0
O71 O 0.77725 0.59751 0.15419 0.0
O72 O 0.83805 0.62014 0.00444 0.0
O73 O 0.87105 0.60757 0.97965 0.0
O74 O 0.73896 0.60628 0.03808 0.0
O75 O 0.73112 0.54811 0.07401 0.0
C76 C 0.82023 0.53531 0.98646 0.0
C77 C 0.80999 0.58533 0.85163 0.0
C78 C 0.79466 0.58799 0.15675 0.0
C79 C 0.76067 0.61436 0.99906 0.0
C80 C 0.73535 0.53237 0.03471 0.0
C81 C 0.86438 0.62585 0.99967 0.0
O82 O 0.81529 0.5566 0.98736 0.0
O83 O 0.84268 0.54012 0.95301 0.0
O84 O 0.21237 0.79353 0.89686 0.0
Mn85 Mn 0.21904 0.79747 0.99904 0.0
O86 O 0.2532 0.82985 0.85323 0.0
Mn87 Mn 0.27374 0.84475 0.9303 0.0
O88 O 0.22795 0.80326 0.10116 0.0
O89 O 0.17472 0.7783 0.01121 0.0
Mn90 Mn 0.16971 0.75537 0.07937 0.0
O91 O 0.21813 0.75765 0.00082 0.0
O92 O 0.18647 0.77622 0.1536 0.0
O93 O 0.22118 0.83827 0.99747 0.0
O94 O 0.26685 0.87099 0.97226 0.0
O95 O 0.13389 0.74742 0.06272 0.0
O96 O 0.17948 0.72796 0.05987 0.0
C97 C 0.2874 0.81914 0.98251 0.0
C98 C 0.22786 0.80834 0.84767 0.0
C99 C 0.21283 0.79494 0.154 0.0
C100 C 0.14666 0.76666 0.01735 0.0
C101 C 0.20174 0.73306 0.02759 0.0
C102 C 0.24185 0.86456 0.99148 0.0
O103 O 0.26165 0.8153 0.98388 0.0
O104 O 0.30537 0.84111 0.94822 0.0
O105 O 0.41989 0.20905 0.89681 0.0
Mn106 Mn 0.4231 0.21615 0.99906 0.0
O107 O 0.42812 0.25083 0.85081 0.0
Mn108 Mn 0.43075 0.27038 0.9276 0.0
O109 O 0.42586 0.22357 0.10242 0.0
O110 O 0.3978 0.17267 0.01561 0.0
Mn111 Mn 0.41629 0.16548 0.07886 0.0
O112 O 0.46188 0.21531 0.99787 0.0
O113 O 0.40745 0.18008 0.15069 0.0
O114 O 0.38464 0.21849 0.99958 0.0
O115 O 0.39652 0.26287 0.96463 0.0
O116 O 0.39501 0.13163 0.03623 0.0
O117 O 0.45499 0.17981 0.06527 0.0
C118 C 0.46921 0.28523 0.98279 0.0
C119 C 0.42315 0.22507 0.8466 0.0
C120 C 0.41585 0.20682 0.15307 0.0
C121 C 0.38861 0.14632 0.99629 0.0
C122 C 0.47102 0.2004 0.02759 0.0
C123 C 0.37858 0.23859 0.98869 0.0
O124 O 0.44787 0.25904 0.98399 0.0
O125 O 0.46487 0.30276 0.94761 0.0
C126 C 0.33159 0.22874 0.94479 0.0
C127 C 0.34953 0.23426 0.99953 0.0
C128 C 0.31017 0.2364 0.94529 0.0
C129 C 0.29953 0.29228 0.02199 0.0
H130 H 0.22734 0.25711 0.92685 0.0
C131 C 0.21762 0.33229 0.02367 0.0
C132 C 0.23172 0.35705 0.98424 0.0
C133 C 0.2238 0.30992 0.01698 0.0
C134 C 0.24744 0.26705 0.95358 0.0
H135 H 0.35812 0.2506 0.09891 0.0
H136 H 0.32012 0.263 0.1011 0.0
H137 H 0.25358 0.23072 0.94056 0.0
H138 H 0.26078 0.37626 0.9023 0.0
H139 H 0.27121 0.33712 0.88992 0.0
H140 H 0.29374 0.32872 0.0338 0.0
C141 C 0.3227 0.25304 0.0573 0.0
C142 C 0.26249 0.25204 0.96144 0.0
C143 C 0.34413 0.24541 0.05666 0.0
C144 C 0.24896 0.35714 0.93217 0.0
C145 C 0.25529 0.33491 0.92569 0.0
C146 C 0.28468 0.30723 0.0137 0.0
C147 C 0.30645 0.25004 0.00044 0.0
C148 C 0.28882 0.26451 0.99574 0.0
C149 C 0.24406 0.31196 0.97051 0.0
C150 C 0.25864 0.2949 0.9792 0.0
H151 H 0.33591 0.22101 0.8994 0.0
H152 H 0.29829 0.2339 0.90047 0.0
H153 H 0.31996 0.30295 0.04734 0.0
H154 H 0.20492 0.33197 0.06541 0.0
H155 H 0.21514 0.29262 0.05261 0.0
C156 C 0.10312 0.33109 0.94308 0.0
C157 C 0.1162 0.34593 0.00129 0.0
C158 C 0.07429 0.3092 0.94249 0.0
C159 C 0.00769 0.28646 0.04223 0.0
H160 H 0.97197 0.23203 0.89959 0.0
C161 C 0.88571 0.21787 0.02682 0.0
C162 C 0.87627 0.2294 0.97724 0.0
C163 C 0.91386 0.22266 0.02623 0.0
C164 C 0.9817 0.24696 0.93999 0.0
H165 H 0.10987 0.3481 0.1055 0.0
H166 H 0.06038 0.3083 0.10621 0.0
H167 H 0.02424 0.25738 0.91208 0.0
H168 H 0.88773 0.25176 0.8841 0.0
H169 H 0.93624 0.25851 0.88087 0.0
H170 H 0.96498 0.27554 0.07036 0.0
C171 C 0.07185 0.31422 0.05995 0.0
C172 C 0.01177 0.2618 0.94703 0.0
C173 C 0.10061 0.33659 0.06015 0.0
C174 C 0.89405 0.24191 0.92212 0.0
C175 C 0.92206 0.24621 0.92081 0.0
C176 C 0.97775 0.27113 0.03611 0.0
C177 C 0.05766 0.30127 0.00046 0.0
C178 C 0.0254 0.28235 0.99752 0.0
C179 C 0.93282 0.23836 0.97503 0.0
C180 C 0.96442 0.25159 0.98441 0.0
H181 H 0.11436 0.33844 0.8966 0.0
H182 H 0.06462 0.30031 0.89537 0.0
H183 H 0.01681 0.30247 0.08066 0.0
H184 H 0.87285 0.20882 0.07071 0.0
H185 H 0.9216 0.21635 0.06861 0.0
C186 C 0.77864 0.10529 0.95726 0.0
C187 C 0.77338 0.11658 0.01462 0.0
C188 C 0.77006 0.07595 0.9529 0.0
C189 C 0.71172 0.00897 0.02233 0.0
H190 H 0.74192 0.97064 0.91403 0.0
C191 C 0.66674 0.8846 0.99083 0.0
C192 C 0.63991 0.87688 0.96261 0.0
C193 C 0.6896 0.91314 0.98729 0.0
C194 C 0.73335 0.98114 0.9445 0.0
H195 H 0.75745 0.10649 0.11421 0.0
H196 H 0.74388 0.05587 0.10815 0.0
H197 H 0.77158 0.02263 0.93603 0.0
H198 H 0.61736 0.89216 0.90187 0.0
H199 H 0.65721 0.9415 0.89454 0.0
H200 H 0.67333 0.96792 0.02925 0.0
C201 C 0.754 0.0694 0.06575 0.0
C202 C 0.75026 0.01087 0.95708 0.0
C203 C 0.76241 0.09864 0.06987 0.0
C204 C 0.63785 0.89722 0.92302 0.0
C205 C 0.66056 0.92565 0.91969 0.0
C206 C 0.69485 0.97959 0.00907 0.0
C207 C 0.75597 0.05725 0.00591 0.0
C208 C 0.7396 0.02523 0.99614 0.0
C209 C 0.68601 0.93427 0.95504 0.0
C210 C 0.70529 0.96537 0.96965 0.0
H211 H 0.78621 0.11833 0.9132 0.0
H212 H 0.77194 0.06751 0.90597 0.0
H213 H 0.7024 0.01913 0.05141 0.0
H214 H 0.66883 0.86971 0.02311 0.0
H215 H 0.70891 0.91925 0.0154 0.0
C216 C 0.78611 0.66717 0.00505 0.0
C217 C 0.76938 0.64227 0.96739 0.0
C218 C 0.78132 0.69055 0.00174 0.0
C219 C 0.75213 0.72975 0.92045 0.0
H220 H 0.70429 0.71793 0.07321 0.0
C221 C 0.66891 0.76732 0.92649 0.0
C222 C 0.65656 0.76894 0.98601 0.0
C223 C 0.69082 0.76048 0.92543 0.0
C224 C 0.7182 0.72242 0.0311 0.0
H225 H 0.73724 0.624 0.89102 0.0
H226 H 0.73046 0.66566 0.88175 0.0
H227 H 0.72969 0.69134 0.0624 0.0
H228 H 0.6589 0.7667 0.09164 0.0
H229 H 0.69864 0.75672 0.09071 0.0
H230 H 0.74128 0.76113 0.88911 0.0
C231 C 0.74674 0.66678 0.9149 0.0
C232 C 0.73262 0.70685 0.02479 0.0
C233 C 0.75099 0.64309 0.91942 0.0
C234 C 0.66838 0.76613 0.04505 0.0
C235 C 0.69075 0.75967 0.04416 0.0
C236 C 0.73829 0.74593 0.92746 0.0
C237 C 0.76052 0.68989 0.95894 0.0
C238 C 0.74913 0.70981 0.96872 0.0
C239 C 0.7013 0.7552 0.98414 0.0
C240 C 0.72025 0.74187 0.98192 0.0
H241 H 0.79985 0.66694 0.04368 0.0
H242 H 0.79215 0.70808 0.03636 0.0
H243 H 0.7648 0.73247 0.8768 0.0
H244 H 0.65978 0.76877 0.88016 0.0
H245 H 0.69771 0.75709 0.87797 0.0
C246 C 0.11883 0.79123 0.00425 0.0
C247 C 0.128 0.7732 0.97665 0.0
C248 C 0.09054 0.78543 0.9952 0.0
C249 C 0.02022 0.73571 0.91188 0.0
H250 H 0.98876 0.73471 0.08411 0.0
C251 C 0.89752 0.67443 0.95507 0.0
C252 C 0.88898 0.65521 0.00828 0.0
C253 C 0.92619 0.69662 0.94886 0.0
C254 C 0.99712 0.73494 0.03553 0.0
H255 H 0.11576 0.73704 0.91183 0.0
H256 H 0.06693 0.72723 0.89458 0.0
H257 H 0.04054 0.75995 0.06839 0.0
H258 H 0.90333 0.64498 0.09813 0.0
H259 H 0.95285 0.68406 0.08898 0.0
H260 H 0.97667 0.70924 0.88012 0.0
C261 C 0.0813 0.74589 0.92341 0.0
C262 C 0.02695 0.74978 0.02617 0.0
C263 C 0.1096 0.75179 0.93244 0.0
C264 C 0.90908 0.66003 0.05774 0.0
C265 C 0.93761 0.68233 0.052 0.0
C266 C 0.99033 0.72092 0.92122 0.0
C267 C 0.0708 0.7614 0.95833 0.0
C268 C 0.03904 0.7498 0.96461 0.0
C269 C 0.9469 0.70011 0.99593 0.0
C270 C 0.97836 0.71967 0.98365 0.0
H271 H 0.13228 0.80751 0.03965 0.0
H272 H 0.08353 0.79836 0.02151 0.0
H273 H 0.02859 0.73537 0.86367 0.0
H274 H 0.88272 0.67067 0.91516 0.0
H275 H 0.93244 0.71005 0.90541 0.0
C276 C 0.23415 0.90134 0.93763 0.0
C277 C 0.2369 0.88918 0.99634 0.0
C278 C 0.24138 0.93027 0.93503 0.0
C279 C 0.28954 0.99813 0.02399 0.0
H280 H 0.26509 0.03227 0.88899 0.0
C281 C 0.33595 0.12045 0.99536 0.0
C282 C 0.36152 0.1286 0.96047 0.0
C283 C 0.31292 0.09208 0.99188 0.0
C284 C 0.27191 0.02296 0.92719 0.0
H285 H 0.24764 0.89724 0.09933 0.0
H286 H 0.25845 0.94718 0.0964 0.0
H287 H 0.23784 0.98011 0.9073 0.0
H288 H 0.3811 0.11479 0.88698 0.0
H289 H 0.34043 0.06589 0.8783 0.0
H290 H 0.32361 0.04103 0.0434 0.0
C291 C 0.25154 0.93474 0.05148 0.0
C292 C 0.25648 0.99305 0.93757 0.0
C293 C 0.24468 0.90585 0.05375 0.0
C294 C 0.36155 0.1094 0.91352 0.0
C295 C 0.33842 0.08118 0.90937 0.0
C296 C 0.30467 0.02789 0.01403 0.0
C297 C 0.25155 0.94787 0.9913 0.0
C298 C 0.26537 0.98004 0.98541 0.0
C299 C 0.31477 0.07179 0.9517 0.0
C300 C 0.29632 0.04055 0.96496 0.0
H301 H 0.22905 0.88921 0.89221 0.0
H302 H 0.24124 0.93927 0.88756 0.0
H303 H 0.29772 0.9893 0.0602 0.0
H304 H 0.33545 0.13448 0.03302 0.0
H305 H 0.29499 0.08531 0.02536 0.0
C306 C 0.22489 0.70648 0.97567 0.0
C307 C 0.20923 0.70993 0.02681 0.0
C308 C 0.22906 0.68257 0.97517 0.0
C309 C 0.19458 0.60895 0.04415 0.0
H310 H 0.26322 0.60785 0.99054 0.0
C311 C 0.19521 0.50468 0.06678 0.0
C312 C 0.20149 0.49562 0.00766 0.0
C313 C 0.20397 0.5337 0.07649 0.0
C314 C 0.24394 0.60791 0.00579 0.0
H315 H 0.18814 0.69254 0.12034 0.0
H316 H 0.19592 0.65203 0.12015 0.0
H317 H 0.26256 0.65334 0.98851 0.0
H318 H 0.22391 0.50974 0.91488 0.0
H319 H 0.23941 0.56049 0.93174 0.0
H320 H 0.17568 0.56392 0.06079 0.0
C321 C 0.20395 0.66677 0.07895 0.0
C322 C 0.2435 0.63389 0.00418 0.0
C323 C 0.19953 0.69015 0.07905 0.0
C324 C 0.21932 0.51636 0.96151 0.0
C325 C 0.22801 0.54543 0.97102 0.0
C326 C 0.19508 0.58329 0.04614 0.0
C327 C 0.21788 0.66201 0.02615 0.0
C328 C 0.21883 0.63471 0.02407 0.0
C329 C 0.21875 0.55408 0.02669 0.0
C330 C 0.21978 0.58236 0.02762 0.0
H331 H 0.23291 0.72157 0.93514 0.0
H332 H 0.24004 0.6796 0.93386 0.0
H333 H 0.17489 0.60849 0.05792 0.0
H334 H 0.18105 0.48902 0.10249 0.0
H335 H 0.19703 0.53978 0.12064 0.0
C336 C 0.5238 0.23301 1.00003 0.0
C337 C 0.50084 0.20597 0.01829 0.0
C338 C 0.55202 0.23772 0.99687 0.0
C339 C 0.59139 0.19784 0.97994 0.0
H340 H 0.65427 0.26095 0.07305 0.0
C341 C 0.68532 0.19004 0.07718 0.0
C342 C 0.70632 0.19955 0.02772 0.0
C343 C 0.66566 0.19987 0.07941 0.0
C344 C 0.63693 0.24348 0.04626 0.0
H345 H 0.4896 0.1625 0.04577 0.0
H346 H 0.53795 0.17055 0.03981 0.0
H347 H 0.60772 0.25929 0.06302 0.0
H348 H 0.72452 0.22823 0.94466 0.0
H349 H 0.69027 0.24578 0.94914 0.0
H350 H 0.62 0.18144 0.96535 0.0
C351 C 0.53447 0.18823 0.02789 0.0
C352 C 0.61041 0.24256 0.04021 0.0
C353 C 0.50665 0.18368 0.03171 0.0
C354 C 0.70916 0.22127 0.98465 0.0
C355 C 0.6894 0.2311 0.98677 0.0
C356 C 0.61768 0.19879 0.98593 0.0
C357 C 0.55758 0.21526 0.0107 0.0
C358 C 0.58709 0.21925 0.0085 0.0
C359 C 0.66663 0.21932 0.03206 0.0
C360 C 0.64046 0.22122 0.02026 0.0
H361 H 0.52005 0.25058 0.98985 0.0
H362 H 0.5694 0.2588 0.98334 0.0
H363 H 0.57405 0.17981 0.95446 0.0
H364 H 0.68211 0.17268 0.1096 0.0
H365 H 0.64801 0.19016 0.11409 0.0
C366 C 0.49678 0.68352 0.06257 0.0
C367 C 0.50752 0.70643 0.01766 0.0
C368 C 0.46722 0.6641 0.06698 0.0
C369 C 0.40081 0.62768 0.07173 0.0
H370 H 0.37505 0.59698 0.89659 0.0
C371 C 0.28939 0.52602 0.01875 0.0
C372 C 0.29265 0.50425 0.98866 0.0
C373 C 0.31256 0.55438 0.02119 0.0
C374 C 0.38175 0.60554 0.94569 0.0
H375 H 0.49572 0.72785 0.94466 0.0
H376 H 0.44401 0.69414 0.95258 0.0
H377 H 0.4208 0.64158 0.91088 0.0
H378 H 0.32206 0.49523 0.93508 0.0
H379 H 0.36188 0.54479 0.93649 0.0
H380 H 0.36194 0.59108 0.10644 0.0
C381 C 0.4584 0.69133 0.98494 0.0
C382 C 0.40786 0.63118 0.95392 0.0
C383 C 0.48797 0.71101 0.98139 0.0
C384 C 0.31885 0.51166 0.95783 0.0
C385 C 0.34166 0.54001 0.95882 0.0
C386 C 0.37434 0.60231 0.06337 0.0
C387 C 0.44786 0.66687 0.02544 0.0
C388 C 0.41804 0.64224 0.01711 0.0
C389 C 0.3391 0.56153 0.99219 0.0
C390 C 0.36486 0.5906 0.00033 0.0
H391 H 0.51142 0.67895 0.0895 0.0
H392 H 0.45987 0.64541 0.09829 0.0
H393 H 0.40813 0.63557 0.12101 0.0
H394 H 0.26964 0.52079 0.04408 0.0
H395 H 0.30999 0.57057 0.04715 0.0
C396 C 0.81266 0.49498 0.05758 0.0
C397 C 0.80119 0.50617 0.01213 0.0
C398 C 0.80199 0.46533 0.0618 0.0
C399 C 0.77309 0.39963 0.06664 0.0
H400 H 0.77247 0.37122 0.89099 0.0
C401 C 0.7654 0.28912 0.02057 0.0
C402 C 0.78759 0.29116 0.98026 0.0
C403 C 0.75963 0.31188 0.02384 0.0
C404 C 0.77229 0.37869 0.94037 0.0
H405 H 0.76856 0.49515 0.93804 0.0
H406 H 0.74941 0.44316 0.94597 0.0
H407 H 0.77411 0.41714 0.90529 0.0
H408 H 0.82051 0.31811 0.91045 0.0
H409 H 0.80997 0.35734 0.91447 0.0
H410 H 0.77243 0.3616 0.10153 0.0
C411 C 0.76665 0.4573 0.97858 0.0
C412 C 0.77295 0.40491 0.94864 0.0
C413 C 0.77719 0.48702 0.97494 0.0
C414 C 0.80296 0.31575 0.94105 0.0
C415 C 0.79692 0.33824 0.94347 0.0
C416 C 0.77205 0.37319 0.05834 0.0
C417 C 0.77991 0.44623 0.01969 0.0
C418 C 0.77409 0.41611 0.01186 0.0
C419 C 0.77575 0.33697 0.98626 0.0
C420 C 0.77241 0.36276 0.99506 0.0
H421 H 0.8317 0.50933 0.08539 0.0
H422 H 0.8129 0.45769 0.09364 0.0
H423 H 0.77393 0.40759 0.11599 0.0
H424 H 0.75382 0.27081 0.05281 0.0
H425 H 0.74315 0.31022 0.05718 0.0
C426 C 0.31081 0.80497 0.0673 0.0
C427 C 0.29633 0.79905 0.0071 0.0
C428 C 0.33126 0.79652 0.07834 0.0
C429 C 0.36706 0.75778 0.00572 0.0
H430 H 0.43486 0.823 0.07889 0.0
C431 C 0.4853 0.77848 0.98214 0.0
C432 C 0.50267 0.79012 0.03819 0.0
C433 C 0.45727 0.77434 0.98079 0.0
C434 C 0.41608 0.80438 0.05907 0.0
H435 H 0.28995 0.77769 0.91343 0.0
H436 H 0.32546 0.76289 0.93226 0.0
H437 H 0.38988 0.82303 0.07763 0.0
H438 H 0.50334 0.80456 0.1382 0.0
H439 H 0.45512 0.79727 0.13587 0.0
H440 H 0.39412 0.73971 0.98556 0.0
C441 C 0.32103 0.7737 0.9716 0.0
C442 C 0.39008 0.80428 0.05877 0.0
C443 C 0.30042 0.78197 0.96093 0.0
C444 C 0.49087 0.79608 0.09365 0.0
C445 C 0.46314 0.79196 0.09235 0.0
C446 C 0.39332 0.75794 0.00584 0.0
C447 C 0.33802 0.78247 0.02877 0.0
C448 C 0.36507 0.78096 0.03249 0.0
C449 C 0.44621 0.78184 0.03545 0.0
C450 C 0.41812 0.78122 0.03298 0.0
H451 H 0.30846 0.81859 0.10315 0.0
H452 H 0.34329 0.80294 0.12383 0.0
H453 H 0.34832 0.73946 0.9849 0.0
H454 H 0.49374 0.77372 0.93856 0.0
H455 H 0.44477 0.7665 0.93613 0.0
C456 C 0.70694 0.48418 0.97696 0.0
C457 C 0.71308 0.50141 0.03338 0.0
C458 C 0.6832 0.45602 0.97627 0.0
C459 C 0.61304 0.41456 0.05862 0.0
H460 H 0.60955 0.34693 0.98139 0.0
C461 C 0.50723 0.30872 0.06704 0.0
C462 C 0.49849 0.29486 0.00611 0.0
C463 C 0.53612 0.32929 0.07784 0.0
C464 C 0.61018 0.36564 0.00314 0.0
H465 H 0.7006 0.50176 0.13477 0.0
H466 H 0.66 0.45334 0.13358 0.0
H467 H 0.65505 0.3928 0.98085 0.0
H468 H 0.51305 0.29014 0.91029 0.0
H469 H 0.56328 0.32556 0.92892 0.0
H470 H 0.56839 0.3882 0.07935 0.0
C471 C 0.67276 0.46154 0.08927 0.0
C472 C 0.63622 0.39192 0.00252 0.0
C473 C 0.69615 0.48937 0.08989 0.0
C474 C 0.51942 0.3 0.9584 0.0
C475 C 0.54825 0.32052 0.96902 0.0
C476 C 0.58717 0.38851 0.05908 0.0
C477 C 0.66535 0.44478 0.03202 0.0
C478 C 0.63794 0.41667 0.03054 0.0
C479 C 0.5567 0.33667 0.02741 0.0
C480 C 0.58527 0.3636 0.03152 0.0
H481 H 0.7196 0.49284 0.93272 0.0
H482 H 0.67807 0.44358 0.93137 0.0
H483 H 0.61338 0.43331 0.07932 0.0
H484 H 0.4914 0.30572 0.10391 0.0
H485 H 0.54195 0.34086 0.12402 0.0
C486 C 0.17895 0.39238 0.74161 0.0
C487 C 0.19981 0.41529 0.77887 0.0
C488 C 0.18117 0.39231 0.67319 0.0
C489 C 0.22973 0.42921 0.53107 0.0
H490 H 0.15794 0.405 0.43943 0.0
C491 C 0.22984 0.45278 0.25685 0.0
C492 C 0.21014 0.43012 0.21716 0.0
C493 C 0.22681 0.45138 0.32513 0.0
C494 C 0.17813 0.41163 0.46413 0.0
H495 H 0.23978 0.45567 0.77471 0.0
H496 H 0.24369 0.45594 0.65477 0.0
H497 H 0.15794 0.40011 0.55851 0.0
H498 H 0.17118 0.38873 0.217 0.0
H499 H 0.16579 0.38604 0.33699 0.0
H500 H 0.24994 0.44093 0.43676 0.0
C501 C 0.22586 0.43761 0.67823 0.0
C502 C 0.17817 0.4087 0.53254 0.0
C503 C 0.22378 0.43746 0.74698 0.0
C504 C 0.1863 0.40674 0.24661 0.0
C505 C 0.18338 0.40517 0.31532 0.0
C506 C 0.2297 0.43221 0.46277 0.0
C507 C 0.20403 0.41549 0.64029 0.0
C508 C 0.20399 0.41754 0.56703 0.0
C509 C 0.20427 0.42701 0.35549 0.0
C510 C 0.20394 0.42366 0.42839 0.0
H511 H 0.16013 0.37517 0.7653 0.0
H512 H 0.16436 0.37455 0.64595 0.0
H513 H 0.24996 0.43583 0.5556 0.0
H514 H 0.24851 0.47093 0.23515 0.0
H515 H 0.24284 0.46894 0.35431 0.0
C516 C 0.79347 0.21809 0.75369 0.0
C517 C 0.77465 0.19097 0.78082 0.0
C518 C 0.79712 0.22157 0.68508 0.0
C519 C 0.75999 0.18552 0.52882 0.0
H520 H 0.83282 0.23845 0.4479 0.0
C521 C 0.7774 0.19339 0.2441 0.0
C522 C 0.79521 0.22101 0.21804 0.0
C523 C 0.77466 0.18902 0.3126 0.0
C524 C 0.8122 0.22375 0.46962 0.0
H525 H 0.7464 0.14597 0.75699 0.0
H526 H 0.75325 0.15189 0.63912 0.0
H527 H 0.82973 0.23295 0.56707 0.0
H528 H 0.823 0.26584 0.24425 0.0
H529 H 0.81781 0.25833 0.36197 0.0
H530 H 0.74246 0.17636 0.43142 0.0
C531 C 0.76444 0.17074 0.66999 0.0
C532 C 0.81045 0.22063 0.53821 0.0
C533 C 0.76066 0.16732 0.73798 0.0
C534 C 0.80937 0.24416 0.26217 0.0
C535 C 0.80658 0.23984 0.33009 0.0
C536 C 0.76176 0.18862 0.46026 0.0
C537 C 0.78218 0.19797 0.64221 0.0
C538 C 0.7843 0.2015 0.56892 0.0
C539 C 0.78961 0.21219 0.35654 0.0
C540 C 0.78784 0.20791 0.4296 0.0
H541 H 0.80455 0.23675 0.78518 0.0
H542 H 0.81092 0.24293 0.66563 0.0
H543 H 0.73932 0.17091 0.55046 0.0
H544 H 0.76629 0.17505 0.21171 0.0
H545 H 0.76145 0.16737 0.33108 0.0
C546 C 0.55586 0.77561 0.74388 0.0
C547 C 0.58114 0.7872 0.78111 0.0
C548 C 0.55711 0.77772 0.67538 0.0
C549 C 0.6053 0.81194 0.53215 0.0
H550 H 0.55385 0.7394 0.44699 0.0
C551 C 0.61755 0.79713 0.2578 0.0
C552 C 0.59222 0.78448 0.22052 0.0
C553 C 0.61643 0.79501 0.32627 0.0
C554 C 0.5682 0.75989 0.46977 0.0
H555 H 0.62752 0.81096 0.77697 0.0
H556 H 0.62992 0.81487 0.65692 0.0
H557 H 0.55101 0.74413 0.56545 0.0
H558 H 0.54595 0.7585 0.22481 0.0
H559 H 0.54377 0.7548 0.34474 0.0
H560 H 0.62239 0.82779 0.43654 0.0
C561 C 0.60905 0.80454 0.68047 0.0
C562 C 0.5665 0.76267 0.53778 0.0
C563 C 0.60775 0.80254 0.74921 0.0
C564 C 0.56582 0.76782 0.25246 0.0
C565 C 0.56462 0.76597 0.32127 0.0
C566 C 0.60694 0.8092 0.46411 0.0
C567 C 0.58373 0.79109 0.64265 0.0
C568 C 0.58502 0.78873 0.56986 0.0
C569 C 0.58987 0.78065 0.35912 0.0
C570 C 0.58848 0.78309 0.43197 0.0
H571 H 0.53512 0.76328 0.76756 0.0
H572 H 0.53721 0.76768 0.64789 0.0
H573 H 0.6197 0.83238 0.5551 0.0
H574 H 0.63814 0.81037 0.23418 0.0
H575 H 0.63635 0.80588 0.35358 0.0
C576 C 0.77841 0.56909 0.75257 0.0
C577 C 0.80343 0.5899 0.78405 0.0
C578 C 0.77619 0.56925 0.68389 0.0
C579 C 0.80803 0.61298 0.53388 0.0
H580 H 0.7895 0.54038 0.45279 0.0
C581 C 0.82471 0.6076 0.25663 0.0
C582 C 0.8028 0.58408 0.2231 0.0
C583 C 0.82621 0.60732 0.32532 0.0
C584 C 0.79443 0.56077 0.47435 0.0
H585 H 0.84491 0.62798 0.76995 0.0
H586 H 0.84071 0.62891 0.65069 0.0
H587 H 0.78529 0.54304 0.57158 0.0
H588 H 0.7658 0.54162 0.23381 0.0
H589 H 0.768 0.54105 0.35328 0.0
H590 H 0.81674 0.63075 0.43706 0.0
C591 C 0.82285 0.61241 0.67839 0.0
C592 C 0.79189 0.56224 0.54254 0.0
C593 C 0.82524 0.61196 0.74663 0.0
C594 C 0.7834 0.55966 0.25872 0.0
C595 C 0.78462 0.55948 0.32734 0.0
C596 C 0.81027 0.61147 0.46567 0.0
C597 C 0.79881 0.59045 0.646 0.0
C598 C 0.79886 0.58841 0.57311 0.0
C599 C 0.80537 0.58376 0.36179 0.0
C600 C 0.80374 0.5854 0.43489 0.0
H601 H 0.76156 0.5516 0.78046 0.0
H602 H 0.7573 0.5522 0.66022 0.0
H603 H 0.8134 0.63342 0.55599 0.0
H604 H 0.8395 0.6269 0.23008 0.0
H605 H 0.84295 0.62613 0.3499 0.0
C606 C 0.23171 0.78506 0.25477 0.0
C607 C 0.22594 0.80397 0.21925 0.0
C608 C 0.23332 0.78641 0.32339 0.0
C609 C 0.20483 0.80982 0.46114 0.0
H610 H 0.24992 0.78731 0.56811 0.0
C611 C 0.21477 0.82222 0.74329 0.0
C612 C 0.2168 0.80124 0.78015 0.0
C613 C 0.21287 0.82036 0.67484 0.0
C614 C 0.23685 0.7932 0.53879 0.0
H615 H 0.2188 0.84004 0.22656 0.0
H616 H 0.22314 0.8436 0.34639 0.0
H617 H 0.25762 0.79244 0.44957 0.0
H618 H 0.21749 0.76139 0.77528 0.0
H619 H 0.21395 0.75788 0.65486 0.0
H620 H 0.18447 0.81105 0.55071 0.0
C621 C 0.22579 0.82723 0.32162 0.0
C622 C 0.24137 0.7963 0.47077 0.0
C623 C 0.22394 0.82567 0.25292 0.0
C624 C 0.21531 0.77747 0.74783 0.0
C625 C 0.21376 0.77575 0.67901 0.0
C626 C 0.20049 0.80692 0.52915 0.0
C627 C 0.22911 0.80673 0.35795 0.0
C628 C 0.22547 0.80474 0.43094 0.0
C629 C 0.21348 0.79771 0.6417 0.0
C630 C 0.21647 0.79862 0.56884 0.0
H631 H 0.23245 0.7676 0.22986 0.0
H632 H 0.23565 0.7701 0.34929 0.0
H633 H 0.19159 0.81559 0.43215 0.0
H634 H 0.21649 0.84105 0.76725 0.0
H635 H 0.21293 0.83774 0.64773 0.0
C636 C 0.39615 0.19905 0.74663 0.0
C637 C 0.42243 0.21467 0.77952 0.0
C638 C 0.39543 0.19761 0.6778 0.0
C639 C 0.43825 0.24095 0.5367 0.0
H640 H 0.38502 0.17509 0.43356 0.0
C641 C 0.44194 0.23541 0.25157 0.0
C642 C 0.4159 0.21819 0.21883 0.0
C643 C 0.44248 0.2376 0.32032 0.0
C644 C 0.39971 0.19387 0.46166 0.0
H645 H 0.46851 0.23993 0.76759 0.0
H646 H 0.46745 0.23664 0.64778 0.0
H647 H 0.38685 0.17043 0.55226 0.0
H648 H 0.36993 0.19165 0.2307 0.0
H649 H 0.37059 0.19658 0.34993 0.0
H650 H 0.45107 0.26443 0.4461 0.0
C651 C 0.44735 0.22582 0.67456 0.0
C652 C 0.40085 0.1911 0.52977 0.0
C653 C 0.44803 0.22727 0.74313 0.0
C654 C 0.39024 0.20529 0.255 0.0
C655 C 0.39071 0.2077 0.32336 0.0
C656 C 0.43707 0.24375 0.46855 0.0
C657 C 0.421 0.212 0.64094 0.0
C658 C 0.42018 0.21457 0.56816 0.0
C659 C 0.41695 0.22263 0.35718 0.0
C660 C 0.41774 0.22026 0.43011 0.0
H661 H 0.37614 0.18989 0.77374 0.0
H662 H 0.37476 0.18691 0.65349 0.0
H663 H 0.45301 0.25966 0.56493 0.0
H664 H 0.46204 0.24501 0.22472 0.0
H665 H 0.46309 0.24925 0.34467 0.0
loop_
_geom_bond_atom_site_label_1
_geom_bond_atom_site_label_2
_geom_bond_distance
_geom_bond_site_symmetry_2
_ccdc_geom_bond_type
O0 Mn1 2.163 1_556 S
O0 C14 1.244 . S
Mn1 O0 2.163 1_554 S
Mn1 O4 2.160 . S
Mn1 O5 2.221 . S
Mn1 O7 2.163 . S
Mn1 O9 2.160 . S
Mn1 O19 2.221 1_554 S
O2 Mn3 2.087 . S
O2 C14 1.256 . S
Mn3 O2 2.087 . S
Mn3 O10 2.089 . S
Mn3 O19 2.290 . S
Mn3 O20 2.251 . S
O4 Mn1 2.160 . S
O4 C15 1.239 . S
O5 Mn1 2.221 . S
O5 Mn6 2.290 . S
O5 C16 1.271 1_554 S
Mn6 O5 2.290 . S
Mn6 O8 2.089 . S
Mn6 O11 2.251 . S
Mn6 O12 2.087 . S
O7 Mn1 2.163 . S
O7 C17 1.244 . S
O8 Mn6 2.089 . S
O8 C15 1.256 . S
O9 Mn1 2.160 . S
O9 C18 1.239 1_554 S
O10 Mn3 2.089 . S
O10 C18 1.256 . S
O11 Mn6 2.251 . S
O11 C16 1.237 1_554 S
O12 Mn6 2.087 . S
O12 C17 1.256 . S
C13 O19 1.278 . S
C13 O20 1.241 . S
C14 O0 1.244 . S
C14 O2 1.256 . S
C15 O4 1.239 . S
C15 O8 1.256 . S
C16 O5 1.271 1_556 S
C16 O11 1.237 1_556 S
C17 O7 1.244 . S
C17 O12 1.256 . S
C18 O9 1.239 1_556 S
C18 O10 1.256 . S
O19 Mn1 2.221 1_556 S
O19 Mn3 2.290 . S
O19 C13 1.278 . S
O20 Mn3 2.251 . S
O20 C13 1.241 . S
O21 Mn22 2.163 1_556 S
O21 C35 1.244 . S
Mn22 O21 2.163 1_554 S
Mn22 O25 2.160 . S
Mn22 O26 2.221 . S
Mn22 O28 2.163 . S
Mn22 O30 2.160 . S
Mn22 O40 2.221 1_554 S
O23 Mn24 2.087 . S
O23 C35 1.256 . S
Mn24 O23 2.087 . S
Mn24 O31 2.089 . S
Mn24 O40 2.290 . S
Mn24 O41 2.251 . S
O25 Mn22 2.160 . S
O25 C36 1.239 . S
O26 Mn22 2.221 . S
O26 Mn27 2.290 . S
O26 C37 1.271 1_554 S
Mn27 O26 2.290 . S
Mn27 O29 2.089 . S
Mn27 O32 2.251 . S
Mn27 O33 2.087 . S
O28 Mn22 2.163 . S
O28 C38 1.244 . S
O29 Mn27 2.089 . S
O29 C36 1.256 . S
O30 Mn22 2.160 . S
O30 C39 1.239 1_554 S
O31 Mn24 2.089 . S
O31 C39 1.256 . S
O32 Mn27 2.251 . S
O32 C37 1.237 1_554 S
O33 Mn27 2.087 . S
O33 C38 1.256 . S
C34 O40 1.278 . S
C34 O41 1.241 . S
C35 O21 1.244 . S
C35 O23 1.256 . S
C36 O25 1.239 . S
C36 O29 1.256 . S
C37 O26 1.271 1_556 S
C37 O32 1.237 1_556 S
C38 O28 1.244 . S
C38 O33 1.256 . S
C39 O30 1.239 1_556 S
C39 O31 1.256 . S
O40 Mn22 2.221 1_556 S
O40 Mn24 2.290 . S
O40 C34 1.278 . S
O41 Mn24 2.251 . S
O41 C34 1.241 . S
O42 Mn43 2.163 1_556 S
O42 C56 1.244 . S
Mn43 O42 2.163 1_554 S
Mn43 O46 2.160 . S
Mn43 O47 2.221 . S
Mn43 O49 2.163 . S
Mn43 O51 2.160 . S
Mn43 O61 2.221 1_554 S
O44 Mn45 2.087 . S
O44 C56 1.256 . S
Mn45 O44 2.087 . S
Mn45 O52 2.089 . S
Mn45 O61 2.290 . S
Mn45 O62 2.251 . S
O46 Mn43 2.160 . S
O46 C57 1.239 . S
O47 Mn43 2.221 . S
O47 Mn48 2.290 . S
O47 C58 1.271 1_554 S
Mn48 O47 2.290 . S
Mn48 O50 2.089 . S
Mn48 O53 2.251 . S
Mn48 O54 2.087 . S
O49 Mn43 2.163 . S
O49 C59 1.244 . S
O50 Mn48 2.089 . S
O50 C57 1.256 . S
O51 Mn43 2.160 . S
O51 C60 1.239 1_554 S
O52 Mn45 2.089 . S
O52 C60 1.256 . S
O53 Mn48 2.251 . S
O53 C58 1.237 1_554 S
O54 Mn48 2.087 . S
O54 C59 1.256 . S
C55 O61 1.278 . S
C55 O62 1.241 . S
C56 O42 1.244 . S
C56 O44 1.256 . S
C57 O46 1.239 . S
C57 O50 1.256 . S
C58 O47 1.271 1_556 S
C58 O53 1.237 1_556 S
C59 O49 1.244 . S
C59 O54 1.256 . S
C60 O51 1.239 1_556 S
C60 O52 1.256 . S
O61 Mn43 2.221 1_556 S
O61 Mn45 2.290 . S
O61 C55 1.278 . S
O62 Mn45 2.251 . S
O62 C55 1.241 . S
O63 Mn64 2.163 1_556 S
O63 C77 1.244 . S
Mn64 O63 2.163 1_554 S
Mn64 O67 2.160 . S
Mn64 O68 2.221 . S
Mn64 O70 2.163 . S
Mn64 O72 2.160 . S
Mn64 O82 2.221 1_554 S
O65 Mn66 2.087 . S
O65 C77 1.256 . S
Mn66 O65 2.087 . S
Mn66 O73 2.089 . S
Mn66 O82 2.290 . S
Mn66 O83 2.251 . S
O67 Mn64 2.160 . S
O67 C78 1.239 . S
O68 Mn64 2.221 . S
O68 Mn69 2.290 . S
O68 C79 1.271 1_554 S
Mn69 O68 2.290 . S
Mn69 O71 2.089 . S
Mn69 O74 2.251 . S
Mn69 O75 2.087 . S
O70 Mn64 2.163 . S
O70 C80 1.244 . S
O71 Mn69 2.089 . S
O71 C78 1.256 . S
O72 Mn64 2.160 . S
O72 C81 1.239 1_554 S
O73 Mn66 2.089 . S
O73 C81 1.256 . S
O74 Mn69 2.251 . S
O74 C79 1.237 1_554 S
O75 Mn69 2.087 . S
O75 C80 1.256 . S
C76 O82 1.278 . S
C76 O83 1.241 . S
C77 O63 1.244 . S
C77 O65 1.256 . S
C78 O67 1.239 . S
C78 O71 1.256 . S
C79 O68 1.271 1_556 S
C79 O74 1.237 1_556 S
C80 O70 1.244 . S
C80 O75 1.256 . S
C81 O72 1.239 1_556 S
C81 O73 1.256 . S
O82 Mn64 2.221 1_556 S
O82 Mn66 2.290 . S
O82 C76 1.278 . S
O83 Mn66 2.251 . S
O83 C76 1.241 . S
O84 Mn85 2.163 1_556 S
O84 C98 1.244 . S
Mn85 O84 2.163 1_554 S
Mn85 O88 2.160 . S
Mn85 O89 2.221 . S
Mn85 O91 2.163 . S
Mn85 O93 2.160 . S
Mn85 O103 2.221 1_554 S
O86 Mn87 2.087 . S
O86 C98 1.256 . S
Mn87 O86 2.087 . S
Mn87 O94 2.089 . S
Mn87 O103 2.290 . S
Mn87 O104 2.251 . S
O88 Mn85 2.160 . S
O88 C99 1.239 . S
O89 Mn85 2.221 . S
O89 Mn90 2.290 . S
O89 C100 1.271 1_554 S
Mn90 O89 2.290 . S
Mn90 O92 2.089 . S
Mn90 O95 2.251 . S
Mn90 O96 2.087 . S
O91 Mn85 2.163 . S
O91 C101 1.244 . S
O92 Mn90 2.089 . S
O92 C99 1.256 . S
O93 Mn85 2.160 . S
O93 C102 1.239 1_554 S
O94 Mn87 2.089 . S
O94 C102 1.256 . S
O95 Mn90 2.251 . S
O95 C100 1.237 1_554 S
O96 Mn90 2.087 . S
O96 C101 1.256 . S
C97 O103 1.278 . S
C97 O104 1.241 . S
C98 O84 1.244 . S
C98 O86 1.256 . S
C99 O88 1.239 . S
C99 O92 1.256 . S
C100 O89 1.271 1_556 S
C100 O95 1.237 1_556 S
C101 O91 1.244 . S
C101 O96 1.256 . S
C102 O93 1.239 1_556 S
C102 O94 1.256 . S
O103 Mn85 2.221 1_556 S
O103 Mn87 2.290 . S
O103 C97 1.278 . S
O104 Mn87 2.251 . S
O104 C97 1.241 . S
O105 Mn106 2.163 1_556 S
O105 C119 1.244 . S
Mn106 O105 2.163 1_554 S
Mn106 O109 2.160 . S
Mn106 O110 2.221 . S
Mn106 O112 2.163 . S
Mn106 O114 2.160 . S
Mn106 O124 2.221 1_554 S
O107 Mn108 2.087 . S
O107 C119 1.256 . S
Mn108 O107 2.087 . S
Mn108 O115 2.089 . S
Mn108 O124 2.290 . S
Mn108 O125 2.251 . S
O109 Mn106 2.160 . S
O109 C120 1.239 . S
O110 Mn106 2.221 . S
O110 Mn111 2.290 . S
O110 C121 1.271 1_554 S
Mn111 O110 2.290 . S
Mn111 O113 2.089 . S
Mn111 O116 2.251 . S
Mn111 O117 2.087 . S
O112 Mn106 2.163 . S
O112 C122 1.244 . S
O113 Mn111 2.089 . S
O113 C120 1.256 . S
O114 Mn106 2.160 . S
O114 C123 1.239 1_554 S
O115 Mn108 2.089 . S
O115 C123 1.256 . S
O116 Mn111 2.251 . S
O116 C121 1.237 1_554 S
O117 Mn111 2.087 . S
O117 C122 1.256 . S
C118 O124 1.278 . S
C118 O125 1.241 . S
C119 O105 1.244 . S
C119 O107 1.256 . S
C120 O109 1.239 . S
C120 O113 1.256 . S
C121 O110 1.271 1_556 S
C121 O116 1.237 1_556 S
C122 O112 1.244 . S
C122 O117 1.256 . S
C123 O114 1.239 1_556 S
C123 O115 1.256 . S
O124 Mn106 2.221 1_556 S
O124 Mn108 2.290 . S
O124 C118 1.278 . S
O125 Mn108 2.251 . S
O125 C118 1.241 . S
C126 C127 1.349 . S
C126 C128 1.327 . S
C126 H151 0.950 . S
C127 C126 1.349 . S
C127 C143 1.349 1_556 S
C128 C126 1.327 . S
C128 C147 1.429 . S
C128 H152 0.950 . S
C129 C146 1.574 . S
C129 C148 1.368 1_554 S
C129 H153 0.949 . S
H130 C134 0.949 . S
C131 C132 1.349 1_554 S
C131 C133 1.327 . S
C131 H154 0.950 . S
C132 C131 1.349 1_556 S
C132 C144 1.349 . S
C133 C131 1.327 . S
C133 C149 1.429 1_554 S
C133 H155 0.950 . S
C134 H130 0.949 . S
C134 C142 1.574 . S
C134 C150 1.368 . S
H135 C143 0.950 . S
H136 C141 0.950 . S
H137 C142 0.949 . S
H138 C144 0.950 . S
H139 C145 0.950 . S
H140 C146 0.949 . S
C141 H136 0.950 . S
C141 C143 1.327 . S
C141 C147 1.429 1_554 S
C142 C134 1.574 . S
C142 H137 0.949 . S
C142 C148 1.368 . S
C143 C127 1.349 1_554 S
C143 H135 0.950 . S
C143 C141 1.327 . S
C144 C132 1.349 . S
C144 H138 0.950 . S
C144 C145 1.327 . S
C145 H139 0.950 . S
C145 C144 1.327 . S
C145 C149 1.429 . S
C146 C129 1.574 . S
C146 H140 0.949 . S
C146 C150 1.368 1_554 S
C147 C128 1.429 . S
C147 C141 1.429 1_556 S
C147 C148 1.523 . S
C148 C129 1.368 1_556 S
C148 C142 1.368 . S
C148 C147 1.523 . S
C149 C133 1.429 1_556 S
C149 C145 1.429 . S
C149 C150 1.523 . S
C150 C134 1.368 . S
C150 C146 1.368 1_556 S
C150 C149 1.523 . S
H151 C126 0.950 . S
H152 C128 0.950 . S
H153 C129 0.949 . S
H154 C131 0.950 . S
H155 C133 0.950 . S
C156 C157 1.349 . S
C156 C158 1.327 . S
C156 H181 0.950 . S
C157 C156 1.349 . S
C157 C173 1.349 1_556 S
C158 C156 1.327 . S
C158 C177 1.429 . S
C158 H182 0.950 . S
C159 C176 1.574 1_455 S
C159 C178 1.368 1_554 S
C159 H183 0.949 . S
H160 C164 0.949 . S
C161 C162 1.349 1_554 S
C161 C163 1.327 . S
C161 H184 0.950 . S
C162 C161 1.349 1_556 S
C162 C174 1.349 . S
C163 C161 1.327 . S
C163 C179 1.429 1_554 S
C163 H185 0.950 . S
C164 H160 0.949 . S
C164 C172 1.574 1_655 S
C164 C180 1.368 . S
H165 C173 0.950 . S
H166 C171 0.950 . S
H167 C172 0.949 . S
H168 C174 0.950 . S
H169 C175 0.950 . S
H170 C176 0.949 . S
C171 H166 0.950 . S
C171 C173 1.327 . S
C171 C177 1.429 1_554 S
C172 C164 1.574 1_455 S
C172 H167 0.949 . S
C172 C178 1.368 . S
C173 C157 1.349 1_554 S
C173 H165 0.950 . S
C173 C171 1.327 . S
C174 C162 1.349 . S
C174 H168 0.950 . S
C174 C175 1.327 . S
C175 H169 0.950 . S
C175 C174 1.327 . S
C175 C179 1.429 . S
C176 C159 1.574 1_655 S
C176 H170 0.949 . S
C176 C180 1.368 1_554 S
C177 C158 1.429 . S
C177 C171 1.429 1_556 S
C177 C178 1.523 . S
C178 C159 1.368 1_556 S
C178 C172 1.368 . S
C178 C177 1.523 . S
C179 C163 1.429 1_556 S
C179 C175 1.429 . S
C179 C180 1.523 . S
C180 C164 1.368 . S
C180 C176 1.368 1_556 S
C180 C179 1.523 . S
H181 C156 0.950 . S
H182 C158 0.950 . S
H183 C159 0.949 . S
H184 C161 0.950 . S
H185 C163 0.950 . S
C186 C187 1.349 . S
C186 C188 1.327 . S
C186 H211 0.950 . S
C187 C186 1.349 . S
C187 C203 1.349 1_556 S
C188 C186 1.327 . S
C188 C207 1.429 . S
C188 H212 0.950 . S
C189 C206 1.574 1_545 S
C189 C208 1.368 1_554 S
C189 H213 0.949 . S
H190 C194 0.949 . S
C191 C192 1.349 1_554 S
C191 C193 1.327 . S
C191 H214 0.950 . S
C192 C191 1.349 1_556 S
C192 C204 1.349 . S
C193 C191 1.327 . S
C193 C209 1.429 1_554 S
C193 H215 0.950 . S
C194 H190 0.949 . S
C194 C202 1.574 1_565 S
C194 C210 1.368 . S
H195 C203 0.950 . S
H196 C201 0.950 . S
H197 C202 0.949 . S
H198 C204 0.950 . S
H199 C205 0.950 . S
H200 C206 0.949 . S
C201 H196 0.950 . S
C201 C203 1.327 . S
C201 C207 1.429 1_554 S
C202 C194 1.574 1_545 S
C202 H197 0.949 . S
C202 C208 1.368 . S
C203 C187 1.349 1_554 S
C203 H195 0.950 . S
C203 C201 1.327 . S
C204 C192 1.349 . S
C204 H198 0.950 . S
C204 C205 1.327 . S
C205 H199 0.950 . S
C205 C204 1.327 . S
C205 C209 1.429 . S
C206 C189 1.574 1_565 S
C206 H200 0.949 . S
C206 C210 1.368 1_554 S
C207 C188 1.429 . S
C207 C201 1.429 1_556 S
C207 C208 1.523 . S
C208 C189 1.368 1_556 S
C208 C202 1.368 . S
C208 C207 1.523 . S
C209 C193 1.429 1_556 S
C209 C205 1.429 . S
C209 C210 1.523 . S
C210 C194 1.368 . S
C210 C206 1.368 1_556 S
C210 C209 1.523 . S
H211 C186 0.950 . S
H212 C188 0.950 . S
H213 C189 0.949 . S
H214 C191 0.950 . S
H215 C193 0.950 . S
C216 C217 1.349 1_554 S
C216 C218 1.327 . S
C216 H241 0.950 . S
C217 C216 1.349 1_556 S
C217 C233 1.349 . S
C218 C216 1.327 . S
C218 C237 1.429 1_554 S
C218 H242 0.950 . S
C219 C236 1.574 . S
C219 C238 1.368 . S
C219 H243 0.949 . S
H220 C224 0.949 . S
C221 C222 1.349 . S
C221 C223 1.327 . S
C221 H244 0.950 . S
C222 C221 1.349 . S
C222 C234 1.349 1_556 S
C223 C221 1.327 . S
C223 C239 1.429 . S
C223 H245 0.950 . S
C224 H220 0.949 . S
C224 C232 1.574 . S
C224 C240 1.368 1_554 S
H225 C233 0.950 . S
H226 C231 0.950 . S
H227 C232 0.949 . S
H228 C234 0.950 . S
H229 C235 0.950 . S
H230 C236 0.949 . S
C231 H226 0.950 . S
C231 C233 1.327 . S
C231 C237 1.429 . S
C232 C224 1.574 . S
C232 H227 0.949 . S
C232 C238 1.368 1_554 S
C233 C217 1.349 . S
C233 H225 0.950 . S
C233 C231 1.327 . S
C234 C222 1.349 1_554 S
C234 H228 0.950 . S
C234 C235 1.327 . S
C235 H229 0.950 . S
C235 C234 1.327 . S
C235 C239 1.429 1_554 S
C236 C219 1.574 . S
C236 H230 0.949 . S
C236 C240 1.368 . S
C237 C218 1.429 1_556 S
C237 C231 1.429 . S
C237 C238 1.523 . S
C238 C219 1.368 . S
C238 C232 1.368 1_556 S
C238 C237 1.523 . S
C239 C223 1.429 . S
C239 C235 1.429 1_556 S
C239 C240 1.523 . S
C240 C224 1.368 1_556 S
C240 C236 1.368 . S
C240 C239 1.523 . S
H241 C216 0.950 . S
H242 C218 0.950 . S
H243 C219 0.949 . S
H244 C221 0.950 . S
H245 C223 0.950 . S
C246 C247 1.349 1_554 S
C246 C248 1.327 . S
C246 H271 0.950 . S
C247 C246 1.349 1_556 S
C247 C263 1.349 . S
C248 C246 1.327 . S
C248 C267 1.429 1_554 S
C248 H272 0.950 . S
C249 C266 1.574 1_455 S
C249 C268 1.368 . S
C249 H273 0.949 . S
H250 C254 0.949 . S
C251 C252 1.349 . S
C251 C253 1.327 . S
C251 H274 0.950 . S
C252 C251 1.349 . S
C252 C264 1.349 1_556 S
C253 C251 1.327 . S
C253 C269 1.429 . S
C253 H275 0.950 . S
C254 H250 0.949 . S
C254 C262 1.574 1_655 S
C254 C270 1.368 1_554 S
H255 C263 0.950 . S
H256 C261 0.950 . S
H257 C262 0.949 . S
H258 C264 0.950 . S
H259 C265 0.950 . S
H260 C266 0.949 . S
C261 H256 0.950 . S
C261 C263 1.327 . S
C261 C267 1.429 . S
C262 C254 1.574 1_455 S
C262 H257 0.949 . S
C262 C268 1.368 1_554 S
C263 C247 1.349 . S
C263 H255 0.950 . S
C263 C261 1.327 . S
C264 C252 1.349 1_554 S
C264 H258 0.950 . S
C264 C265 1.327 . S
C265 H259 0.950 . S
C265 C264 1.327 . S
C265 C269 1.429 1_554 S
C266 C249 1.574 1_655 S
C266 H260 0.949 . S
C266 C270 1.368 . S
C267 C248 1.429 1_556 S
C267 C261 1.429 . S
C267 C268 1.523 . S
C268 C249 1.368 . S
C268 C262 1.368 1_556 S
C268 C267 1.523 . S
C269 C253 1.429 . S
C269 C265 1.429 1_556 S
C269 C270 1.523 . S
C270 C254 1.368 1_556 S
C270 C266 1.368 . S
C270 C269 1.523 . S
H271 C246 0.950 . S
H272 C248 0.950 . S
H273 C249 0.949 . S
H274 C251 0.950 . S
H275 C253 0.950 . S
C276 C277 1.349 . S
C276 C278 1.327 . S
C276 H301 0.950 . S
C277 C276 1.349 . S
C277 C293 1.349 1_556 S
C278 C276 1.327 . S
C278 C297 1.429 . S
C278 H302 0.950 . S
C279 C296 1.574 1_565 S
C279 C298 1.368 1_554 S
C279 H303 0.949 . S
H280 C284 0.949 . S
C281 C282 1.349 1_554 S
C281 C283 1.327 . S
C281 H304 0.950 . S
C282 C281 1.349 1_556 S
C282 C294 1.349 . S
C283 C281 1.327 . S
C283 C299 1.429 1_554 S
C283 H305 0.950 . S
C284 H280 0.949 . S
C284 C292 1.574 1_545 S
C284 C300 1.368 . S
H285 C293 0.950 . S
H286 C291 0.950 . S
H287 C292 0.949 . S
H288 C294 0.950 . S
H289 C295 0.950 . S
H290 C296 0.949 . S
C291 H286 0.950 . S
C291 C293 1.327 . S
C291 C297 1.429 1_554 S
C292 C284 1.574 1_565 S
C292 H287 0.949 . S
C292 C298 1.368 . S
C293 C277 1.349 1_554 S
C293 H285 0.950 . S
C293 C291 1.327 . S
C294 C282 1.349 . S
C294 H288 0.950 . S
C294 C295 1.327 . S
C295 H289 0.950 . S
C295 C294 1.327 . S
C295 C299 1.429 . S
C296 C279 1.574 1_545 S
C296 H290 0.949 . S
C296 C300 1.368 1_554 S
C297 C278 1.429 . S
C297 C291 1.429 1_556 S
C297 C298 1.523 . S
C298 C279 1.368 1_556 S
C298 C292 1.368 . S
C298 C297 1.523 . S
C299 C283 1.429 1_556 S
C299 C295 1.429 . S
C299 C300 1.523 . S
C300 C284 1.368 . S
C300 C296 1.368 1_556 S
C300 C299 1.523 . S
H301 C276 0.950 . S
H302 C278 0.950 . S
H303 C279 0.949 . S
H304 C281 0.950 . S
H305 C283 0.950 . S
C306 C307 1.349 1_556 S
C306 C308 1.327 . S
C306 H331 0.950 . S
C307 C306 1.349 1_554 S
C307 C323 1.349 . S
C308 C306 1.327 . S
C308 C327 1.429 1_556 S
C308 H332 0.950 . S
C309 C326 1.574 . S
C309 C328 1.368 . S
C309 H333 0.949 . S
H310 C314 0.949 . S
C311 C312 1.349 . S
C311 C313 1.327 . S
C311 H334 0.950 . S
C312 C311 1.349 . S
C312 C324 1.349 1_554 S
C313 C311 1.327 . S
C313 C329 1.429 . S
C313 H335 0.950 . S
C314 H310 0.949 . S
C314 C322 1.574 . S
C314 C330 1.368 1_556 S
H315 C323 0.950 . S
H316 C321 0.950 . S
H317 C322 0.949 . S
H318 C324 0.950 . S
H319 C325 0.950 . S
H320 C326 0.949 . S
C321 H316 0.950 . S
C321 C323 1.327 . S
C321 C327 1.429 . S
C322 C314 1.574 . S
C322 H317 0.949 . S
C322 C328 1.368 1_556 S
C323 C307 1.349 . S
C323 H315 0.950 . S
C323 C321 1.327 . S
C324 C312 1.349 1_556 S
C324 H318 0.950 . S
C324 C325 1.327 . S
C325 H319 0.950 . S
C325 C324 1.327 . S
C325 C329 1.429 1_556 S
C326 C309 1.574 . S
C326 H320 0.949 . S
C326 C330 1.368 . S
C327 C308 1.429 1_554 S
C327 C321 1.429 . S
C327 C328 1.523 . S
C328 C309 1.368 . S
C328 C322 1.368 1_554 S
C328 C327 1.523 . S
C329 C313 1.429 . S
C329 C325 1.429 1_554 S
C329 C330 1.523 . S
C330 C314 1.368 1_554 S
C330 C326 1.368 . S
C330 C329 1.523 . S
H331 C306 0.950 . S
H332 C308 0.950 . S
H333 C309 0.949 . S
H334 C311 0.950 . S
H335 C313 0.950 . S
C336 C337 1.349 . S
C336 C338 1.327 . S
C336 H361 0.950 . S
C337 C336 1.349 . S
C337 C353 1.349 . S
C338 C336 1.327 . S
C338 C357 1.429 . S
C338 H362 0.950 . S
C339 C356 1.574 . S
C339 C358 1.368 . S
C339 H363 0.949 . S
H340 C344 0.949 . S
C341 C342 1.349 . S
C341 C343 1.327 . S
C341 H364 0.950 . S
C342 C341 1.349 . S
C342 C354 1.349 . S
C343 C341 1.327 . S
C343 C359 1.429 . S
C343 H365 0.950 . S
C344 H340 0.949 . S
C344 C352 1.574 . S
C344 C360 1.368 . S
H345 C353 0.950 . S
H346 C351 0.950 . S
H347 C352 0.949 . S
H348 C354 0.950 1_556 S
H349 C355 0.949 1_556 S
H350 C356 0.949 . S
C351 H346 0.950 . S
C351 C353 1.327 . S
C351 C357 1.429 . S
C352 C344 1.574 . S
C352 H347 0.949 . S
C352 C358 1.368 . S
C353 C337 1.349 . S
C353 H345 0.950 . S
C353 C351 1.327 . S
C354 C342 1.349 . S
C354 H348 0.950 1_554 S
C354 C355 1.327 . S
C355 H349 0.949 1_554 S
C355 C354 1.327 . S
C355 C359 1.429 . S
C356 C339 1.574 . S
C356 H350 0.949 . S
C356 C360 1.368 . S
C357 C338 1.429 . S
C357 C351 1.429 . S
C357 C358 1.523 . S
C358 C339 1.368 . S
C358 C352 1.368 . S
C358 C357 1.523 . S
C359 C343 1.429 . S
C359 C355 1.429 . S
C359 C360 1.523 . S
C360 C344 1.368 . S
C360 C356 1.368 . S
C360 C359 1.523 . S
H361 C336 0.950 . S
H362 C338 0.950 . S
H363 C339 0.949 . S
H364 C341 0.950 . S
H365 C343 0.950 . S
C366 C367 1.349 1_556 S
C366 C368 1.327 . S
C366 H391 0.950 . S
C367 C366 1.349 1_554 S
C367 C383 1.349 . S
C368 C366 1.327 . S
C368 C387 1.429 1_556 S
C368 H392 0.950 . S
C369 C386 1.574 . S
C369 C388 1.368 . S
C369 H393 0.949 . S
H370 C374 0.949 . S
C371 C372 1.349 . S
C371 C373 1.327 . S
C371 H394 0.950 . S
C372 C371 1.349 . S
C372 C384 1.349 1_554 S
C373 C371 1.327 . S
C373 C389 1.429 . S
C373 H395 0.950 . S
C374 H370 0.949 . S
C374 C382 1.574 . S
C374 C390 1.368 1_556 S
H375 C383 0.950 . S
H376 C381 0.950 . S
H377 C382 0.949 . S
H378 C384 0.950 . S
H379 C385 0.950 . S
H380 C386 0.949 . S
C381 H376 0.950 . S
C381 C383 1.327 . S
C381 C387 1.429 . S
C382 C374 1.574 . S
C382 H377 0.949 . S
C382 C388 1.368 1_556 S
C383 C367 1.349 . S
C383 H375 0.950 . S
C383 C381 1.327 . S
C384 C372 1.349 1_556 S
C384 H378 0.950 . S
C384 C385 1.327 . S
C385 H379 0.950 . S
C385 C384 1.327 . S
C385 C389 1.429 1_556 S
C386 C369 1.574 . S
C386 H380 0.949 . S
C386 C390 1.368 . S
C387 C368 1.429 1_554 S
C387 C381 1.429 . S
C387 C388 1.523 . S
C388 C369 1.368 . S
C388 C382 1.368 1_554 S
C388 C387 1.523 . S
C389 C373 1.429 . S
C389 C385 1.429 1_554 S
C389 C390 1.523 . S
C390 C374 1.368 1_554 S
C390 C386 1.368 . S
C390 C389 1.523 . S
H391 C366 0.950 . S
H392 C368 0.950 . S
H393 C369 0.949 . S
H394 C371 0.950 . S
H395 C373 0.950 . S
C396 C397 1.349 1_556 S
C396 C398 1.327 . S
C396 H421 0.950 . S
C397 C396 1.349 1_554 S
C397 C413 1.349 . S
C398 C396 1.327 . S
C398 C417 1.429 1_556 S
C398 H422 0.950 . S
C399 C416 1.574 . S
C399 C418 1.368 . S
C399 H423 0.949 . S
H400 C404 0.949 . S
C401 C402 1.349 . S
C401 C403 1.327 . S
C401 H424 0.950 . S
C402 C401 1.349 . S
C402 C414 1.349 1_554 S
C403 C401 1.327 . S
C403 C419 1.429 . S
C403 H425 0.950 . S
C404 H400 0.949 . S
C404 C412 1.574 . S
C404 C420 1.368 1_556 S
H405 C413 0.950 . S
H406 C411 0.950 . S
H407 C412 0.949 . S
H408 C414 0.950 . S
H409 C415 0.950 . S
H410 C416 0.949 . S
C411 H406 0.950 . S
C411 C413 1.327 . S
C411 C417 1.429 . S
C412 C404 1.574 . S
C412 H407 0.949 . S
C412 C418 1.368 1_556 S
C413 C397 1.349 . S
C413 H405 0.950 . S
C413 C411 1.327 . S
C414 C402 1.349 1_556 S
C414 H408 0.950 . S
C414 C415 1.327 . S
C415 H409 0.950 . S
C415 C414 1.327 . S
C415 C419 1.429 1_556 S
C416 C399 1.574 . S
C416 H410 0.949 . S
C416 C420 1.368 . S
C417 C398 1.429 1_554 S
C417 C411 1.429 . S
C417 C418 1.523 . S
C418 C399 1.368 . S
C418 C412 1.368 1_554 S
C418 C417 1.523 . S
C419 C403 1.429 . S
C419 C415 1.429 1_554 S
C419 C420 1.523 . S
C420 C404 1.368 1_554 S
C420 C416 1.368 . S
C420 C419 1.523 . S
H421 C396 0.950 . S
H422 C398 0.950 . S
H423 C399 0.949 . S
H424 C401 0.950 . S
H425 C403 0.950 . S
C426 C427 1.349 . S
C426 C428 1.327 . S
C426 H451 0.950 . S
C427 C426 1.349 . S
C427 C443 1.349 1_554 S
C428 C426 1.327 . S
C428 C447 1.429 . S
C428 H452 0.950 . S
C429 C446 1.574 . S
C429 C448 1.368 1_556 S
C429 H453 0.949 . S
H430 C434 0.949 . S
C431 C432 1.349 1_556 S
C431 C433 1.327 . S
C431 H454 0.950 . S
C432 C431 1.349 1_554 S
C432 C444 1.349 . S
C433 C431 1.327 . S
C433 C449 1.429 1_556 S
C433 H455 0.950 . S
C434 H430 0.949 . S
C434 C442 1.574 . S
C434 C450 1.368 . S
H435 C443 0.950 . S
H436 C441 0.950 . S
H437 C442 0.949 . S
H438 C444 0.950 . S
H439 C445 0.950 . S
H440 C446 0.949 . S
C441 H436 0.950 . S
C441 C443 1.327 . S
C441 C447 1.429 1_556 S
C442 C434 1.574 . S
C442 H437 0.949 . S
C442 C448 1.368 . S
C443 C427 1.349 1_556 S
C443 H435 0.950 . S
C443 C441 1.327 . S
C444 C432 1.349 . S
C444 H438 0.950 . S
C444 C445 1.327 . S
C445 H439 0.950 . S
C445 C444 1.327 . S
C445 C449 1.429 . S
C446 C429 1.574 . S
C446 H440 0.949 . S
C446 C450 1.368 1_556 S
C447 C428 1.429 . S
C447 C441 1.429 1_554 S
C447 C448 1.523 . S
C448 C429 1.368 1_554 S
C448 C442 1.368 . S
C448 C447 1.523 . S
C449 C433 1.429 1_554 S
C449 C445 1.429 . S
C449 C450 1.523 . S
C450 C434 1.368 . S
C450 C446 1.368 1_554 S
C450 C449 1.523 . S
H451 C426 0.950 . S
H452 C428 0.950 . S
H453 C429 0.949 . S
H454 C431 0.950 . S
H455 C433 0.950 . S
C456 C457 1.349 1_556 S
C456 C458 1.327 . S
C456 H481 0.950 . S
C457 C456 1.349 1_554 S
C457 C473 1.349 . S
C458 C456 1.327 . S
C458 C477 1.429 1_556 S
C458 H482 0.950 . S
C459 C476 1.574 . S
C459 C478 1.368 . S
C459 H483 0.949 . S
H460 C464 0.949 . S
C461 C462 1.349 . S
C461 C463 1.327 . S
C461 H484 0.950 . S
C462 C461 1.349 . S
C462 C474 1.349 1_554 S
C463 C461 1.327 . S
C463 C479 1.429 . S
C463 H485 0.950 . S
C464 H460 0.949 . S
C464 C472 1.574 . S
C464 C480 1.368 1_556 S
H465 C473 0.950 . S
H466 C471 0.950 . S
H467 C472 0.949 . S
H468 C474 0.950 . S
H469 C475 0.950 . S
H470 C476 0.949 . S
C471 H466 0.950 . S
C471 C473 1.327 . S
C471 C477 1.429 . S
C472 C464 1.574 . S
C472 H467 0.949 . S
C472 C478 1.368 1_556 S
C473 C457 1.349 . S
C473 H465 0.950 . S
C473 C471 1.327 . S
C474 C462 1.349 1_556 S
C474 H468 0.950 . S
C474 C475 1.327 . S
C475 H469 0.950 . S
C475 C474 1.327 . S
C475 C479 1.429 1_556 S
C476 C459 1.574 . S
C476 H470 0.949 . S
C476 C480 1.368 . S
C477 C458 1.429 1_554 S
C477 C471 1.429 . S
C477 C478 1.523 . S
C478 C459 1.368 . S
C478 C472 1.368 1_554 S
C478 C477 1.523 . S
C479 C463 1.429 . S
C479 C475 1.429 1_554 S
C479 C480 1.523 . S
C480 C464 1.368 1_554 S
C480 C476 1.368 . S
C480 C479 1.523 . S
H481 C456 0.950 . S
H482 C458 0.950 . S
H483 C459 0.949 . S
H484 C461 0.950 . S
H485 C463 0.950 . S
C486 C487 1.349 . S
C486 C488 1.327 . S
C486 H511 0.950 . S
C487 C486 1.349 . S
C487 C503 1.349 . S
C488 C486 1.327 . S
C488 C507 1.429 . S
C488 H512 0.950 . S
C489 C506 1.574 . S
C489 C508 1.368 . S
C489 H513 0.949 . S
H490 C494 0.949 . S
C491 C492 1.349 . S
C491 C493 1.327 . S
C491 H514 0.950 . S
C492 C491 1.349 . S
C492 C504 1.349 . S
C493 C491 1.327 . S
C493 C509 1.429 . S
C493 H515 0.950 . S
C494 H490 0.949 . S
C494 C502 1.574 . S
C494 C510 1.368 . S
H495 C503 0.950 . S
H496 C501 0.950 . S
H497 C502 0.949 . S
H498 C504 0.950 . S
H499 C505 0.950 . S
H500 C506 0.949 . S
C501 H496 0.950 . S
C501 C503 1.327 . S
C501 C507 1.429 . S
C502 C494 1.574 . S
C502 H497 0.949 . S
C502 C508 1.368 . S
C503 C487 1.349 . S
C503 H495 0.950 . S
C503 C501 1.327 . S
C504 C492 1.349 . S
C504 H498 0.950 . S
C504 C505 1.327 . S
C505 H499 0.950 . S
C505 C504 1.327 . S
C505 C509 1.429 . S
C506 C489 1.574 . S
C506 H500 0.949 . S
C506 C510 1.368 . S
C507 C488 1.429 . S
C507 C501 1.429 . S
C507 C508 1.523 . S
C508 C489 1.368 . S
C508 C502 1.368 . S
C508 C507 1.523 . S
C509 C493 1.429 . S
C509 C505 1.429 . S
C509 C510 1.523 . S
C510 C494 1.368 . S
C510 C506 1.368 . S
C510 C509 1.523 . S
H511 C486 0.950 . S
H512 C488 0.950 . S
H513 C489 0.949 . S
H514 C491 0.950 . S
H515 C493 0.950 . S
C516 C517 1.349 . S
C516 C518 1.327 . S
C516 H541 0.950 . S
C517 C516 1.349 . S
C517 C533 1.349 . S
C518 C516 1.327 . S
C518 C537 1.429 . S
C518 H542 0.950 . S
C519 C536 1.574 . S
C519 C538 1.368 . S
C519 H543 0.949 . S
H520 C524 0.949 . S
C521 C522 1.349 . S
C521 C523 1.327 . S
C521 H544 0.950 . S
C522 C521 1.349 . S
C522 C534 1.349 . S
C523 C521 1.327 . S
C523 C539 1.429 . S
C523 H545 0.950 . S
C524 H520 0.949 . S
C524 C532 1.574 . S
C524 C540 1.368 . S
H525 C533 0.950 . S
H526 C531 0.950 . S
H527 C532 0.949 . S
H528 C534 0.950 . S
H529 C535 0.950 . S
H530 C536 0.949 . S
C531 H526 0.950 . S
C531 C533 1.327 . S
C531 C537 1.429 . S
C532 C524 1.574 . S
C532 H527 0.949 . S
C532 C538 1.368 . S
C533 C517 1.349 . S
C533 H525 0.950 . S
C533 C531 1.327 . S
C534 C522 1.349 . S
C534 H528 0.950 . S
C534 C535 1.327 . S
C535 H529 0.950 . S
C535 C534 1.327 . S
C535 C539 1.429 . S
C536 C519 1.574 . S
C536 H530 0.949 . S
C536 C540 1.368 . S
C537 C518 1.429 . S
C537 C531 1.429 . S
C537 C538 1.523 . S
C538 C519 1.368 . S
C538 C532 1.368 . S
C538 C537 1.523 . S
C539 C523 1.429 . S
C539 C535 1.429 . S
C539 C540 1.523 . S
C540 C524 1.368 . S
C540 C536 1.368 . S
C540 C539 1.523 . S
H541 C516 0.950 . S
H542 C518 0.950 . S
H543 C519 0.949 . S
H544 C521 0.950 . S
H545 C523 0.950 . S
C546 C547 1.349 . S
C546 C548 1.327 . S
C546 H571 0.950 . S
C547 C546 1.349 . S
C547 C563 1.349 . S
C548 C546 1.327 . S
C548 C567 1.429 . S
C548 H572 0.950 . S
C549 C566 1.574 . S
C549 C568 1.368 . S
C549 H573 0.949 . S
H550 C554 0.949 . S
C551 C552 1.349 . S
C551 C553 1.327 . S
C551 H574 0.950 . S
C552 C551 1.349 . S
C552 C564 1.349 . S
C553 C551 1.327 . S
C553 C569 1.429 . S
C553 H575 0.950 . S
C554 H550 0.949 . S
C554 C562 1.574 . S
C554 C570 1.368 . S
H555 C563 0.950 . S
H556 C561 0.950 . S
H557 C562 0.949 . S
H558 C564 0.950 . S
H559 C565 0.950 . S
H560 C566 0.949 . S
C561 H556 0.950 . S
C561 C563 1.327 . S
C561 C567 1.429 . S
C562 C554 1.574 . S
C562 H557 0.949 . S
C562 C568 1.368 . S
C563 C547 1.349 . S
C563 H555 0.950 . S
C563 C561 1.327 . S
C564 C552 1.349 . S
C564 H558 0.950 . S
C564 C565 1.327 . S
C565 H559 0.950 . S
C565 C564 1.327 . S
C565 C569 1.429 . S
C566 C549 1.574 . S
C566 H560 0.949 . S
C566 C570 1.368 . S
C567 C548 1.429 . S
C567 C561 1.429 . S
C567 C568 1.523 . S
C568 C549 1.368 . S
C568 C562 1.368 . S
C568 C567 1.523 . S
C569 C553 1.429 . S
C569 C565 1.429 . S
C569 C570 1.523 . S
C570 C554 1.368 . S
C570 C566 1.368 . S
C570 C569 1.523 . S
H571 C546 0.950 . S
H572 C548 0.950 . S
H573 C549 0.949 . S
H574 C551 0.950 . S
H575 C553 0.950 . S
C576 C577 1.349 . S
C576 C578 1.327 . S
C576 H601 0.950 . S
C577 C576 1.349 . S
C577 C593 1.349 . S
C578 C576 1.327 . S
C578 C597 1.429 . S
C578 H602 0.950 . S
C579 C596 1.574 . S
C579 C598 1.368 . S
C579 H603 0.949 . S
H580 C584 0.949 . S
C581 C582 1.349 . S
C581 C583 1.327 . S
C581 H604 0.950 . S
C582 C581 1.349 . S
C582 C594 1.349 . S
C583 C581 1.327 . S
C583 C599 1.429 . S
C583 H605 0.950 . S
C584 H580 0.949 . S
C584 C592 1.574 . S
C584 C600 1.368 . S
H585 C593 0.950 . S
H586 C591 0.950 . S
H587 C592 0.949 . S
H588 C594 0.950 . S
H589 C595 0.950 . S
H590 C596 0.949 . S
C591 H586 0.950 . S
C591 C593 1.327 . S
C591 C597 1.429 . S
C592 C584 1.574 . S
C592 H587 0.949 . S
C592 C598 1.368 . S
C593 C577 1.349 . S
C593 H585 0.950 . S
C593 C591 1.327 . S
C594 C582 1.349 . S
C594 H588 0.950 . S
C594 C595 1.327 . S
C595 H589 0.950 . S
C595 C594 1.327 . S
C595 C599 1.429 . S
C596 C579 1.574 . S
C596 H590 0.949 . S
C596 C600 1.368 . S
C597 C578 1.429 . S
C597 C591 1.429 . S
C597 C598 1.523 . S
C598 C579 1.368 . S
C598 C592 1.368 . S
C598 C597 1.523 . S
C599 C583 1.429 . S
C599 C595 1.429 . S
C599 C600 1.523 . S
C600 C584 1.368 . S
C600 C596 1.368 . S
C600 C599 1.523 . S
H601 C576 0.950 . S
H602 C578 0.950 . S
H603 C579 0.949 . S
H604 C581 0.950 . S
H605 C583 0.950 . S
C606 C607 1.349 . S
C606 C608 1.327 . S
C606 H631 0.950 . S
C607 C606 1.349 . S
C607 C623 1.349 . S
C608 C606 1.327 . S
C608 C627 1.429 . S
C608 H632 0.950 . S
C609 C626 1.574 . S
C609 C628 1.368 . S
C609 H633 0.949 . S
H610 C614 0.949 . S
C611 C612 1.349 . S
C611 C613 1.327 . S
C611 H634 0.950 . S
C612 C611 1.349 . S
C612 C624 1.349 . S
C613 C611 1.327 . S
C613 C629 1.429 . S
C613 H635 0.950 . S
C614 H610 0.949 . S
C614 C622 1.574 . S
C614 C630 1.368 . S
H615 C623 0.950 . S
H616 C621 0.950 . S
H617 C622 0.949 . S
H618 C624 0.950 . S
H619 C625 0.950 . S
H620 C626 0.949 . S
C621 H616 0.950 . S
C621 C623 1.327 . S
C621 C627 1.429 . S
C622 C614 1.574 . S
C622 H617 0.949 . S
C622 C628 1.368 . S
C623 C607 1.349 . S
C623 H615 0.950 . S
C623 C621 1.327 . S
C624 C612 1.349 . S
C624 H618 0.950 . S
C624 C625 1.327 . S
C625 H619 0.950 . S
C625 C624 1.327 . S
C625 C629 1.429 . S
C626 C609 1.574 . S
C626 H620 0.949 . S
C626 C630 1.368 . S
C627 C608 1.429 . S
C627 C621 1.429 . S
C627 C628 1.523 . S
C628 C609 1.368 . S
C628 C622 1.368 . S
C628 C627 1.523 . S
C629 C613 1.429 . S
C629 C625 1.429 . S
C629 C630 1.523 . S
C630 C614 1.368 . S
C630 C626 1.368 . S
C630 C629 1.523 . S
H631 C606 0.950 . S
H632 C608 0.950 . S
H633 C609 0.949 . S
H634 C611 0.950 . S
H635 C613 0.950 . S
C636 C637 1.349 . S
C636 C638 1.327 . S
C636 H661 0.950 . S
C637 C636 1.349 . S
C637 C653 1.349 . S
C638 C636 1.327 . S
C638 C657 1.429 . S
C638 H662 0.950 . S
C639 C656 1.574 . S
C639 C658 1.368 . S
C639 H663 0.949 . S
H640 C644 0.949 . S
C641 C642 1.349 . S
C641 C643 1.327 . S
C641 H664 0.950 . S
C642 C641 1.349 . S
C642 C654 1.349 . S
C643 C641 1.327 . S
C643 C659 1.429 . S
C643 H665 0.950 . S
C644 H640 0.949 . S
C644 C652 1.574 . S
C644 C660 1.368 . S
H645 C653 0.950 . S
H646 C651 0.950 . S
H647 C652 0.949 . S
H648 C654 0.950 . S
H649 C655 0.950 . S
H650 C656 0.949 . S
C651 H646 0.950 . S
C651 C653 1.327 . S
C651 C657 1.429 . S
C652 C644 1.574 . S
C652 H647 0.949 . S
C652 C658 1.368 . S
C653 C637 1.349 . S
C653 H645 0.950 . S
C653 C651 1.327 . S
C654 C642 1.349 . S
C654 H648 0.950 . S
C654 C655 1.327 . S
C655 H649 0.950 . S
C655 C654 1.327 . S
C655 C659 1.429 . S
C656 C639 1.574 . S
C656 H650 0.949 . S
C656 C660 1.368 . S
C657 C638 1.429 . S
C657 C651 1.429 . S
C657 C658 1.523 . S
C658 C639 1.368 . S
C658 C652 1.368 . S
C658 C657 1.523 . S
C659 C643 1.429 . S
C659 C655 1.429 . S
C659 C660 1.523 . S
C660 C644 1.368 . S
C660 C656 1.368 . S
C660 C659 1.523 . S
H661 C636 0.950 . S
H662 C638 0.950 . S
H663 C639 0.949 . S
H664 C641 0.950 . S
H665 C643 0.950 . S
C127 C123 1.237 . S
C132 C16 1.057 . S
C157 C18 1.237 . S
C162 C37 1.057 . S
C187 C39 1.237 . S
C192 C58 1.057 . S
C217 C79 1.057 . S
C222 C60 1.237 . S
C247 C100 1.057 . S
C252 C81 1.237 . S
C277 C102 1.237 . S
C282 C121 1.057 . S
C307 C101 1.538 . S
C312 C13 1.394 1_554 S
C337 C122 1.538 . S
C342 C34 1.394 1_554 S
C367 C55 1.394 1_554 S
C372 C17 1.538 . S
C397 C76 1.394 1_554 S
C402 C38 1.538 . S
C427 C97 1.393 1_554 S
C432 C59 1.538 . S
C457 C80 1.538 . S
C462 C118 1.394 1_554 S
C487 C14 1.470 . S
C492 C15 1.483 . S
C517 C35 1.470 . S
C522 C36 1.483 . S
C547 C56 1.470 . S
C552 C57 1.483 . S
C577 C77 1.470 . S
C582 C78 1.483 . S
C607 C99 1.483 . S
C612 C98 1.470 . S
C637 C119 1.470 . S
C642 C120 1.483 . S
