# Generated by pormake.
# Topology whc, (6)-cn, num edge types: 1
# Building blocks:
#     Node 0, Type 0, BuildingBlock: OJICUG_clean_sbu_0, # of connection points: 6
#     Node 1, Type 0, BuildingBlock: OJICUG_clean_sbu_0, # of connection points: 6
#     Node 2, Type 0, BuildingBlock: OJICUG_clean_sbu_0, # of connection points: 6
#     Node 3, Type 0, BuildingBlock: OJICUG_clean_sbu_0, # of connection points: 6
#     Node 4, Type 0, BuildingBlock: OJICUG_clean_sbu_0, # of connection points: 6
#     Node 5, Type 0, BuildingBlock: OJICUG_clean_sbu_0, # of connection points: 6
#     Node 6, Type 0, BuildingBlock: OJICUG_clean_sbu_0, # of connection points: 6
#     Node 7, Type 0, BuildingBlock: OJICUG_clean_sbu_0, # of connection points: 6
#     Edge 8, Type (0, 0), BuildingBlock: EYOCIG_clean_linker_4, # of connection points: 2
#     Edge 9, Type (0, 0), BuildingBlock: EYOCIG_clean_linker_4, # of connection points: 2
#     Edge 10, Type (0, 0), BuildingBlock: EYOCIG_clean_linker_4, # of connection points: 2
#     Edge 11, Type (0, 0), BuildingBlock: EYOCIG_clean_linker_4, # of connection points: 2
#     Edge 12, Type (0, 0), BuildingBlock: EYOCIG_clean_linker_4, # of connection points: 2
#     Edge 13, Type (0, 0), BuildingBlock: EYOCIG_clean_linker_4, # of connection points: 2
#     Edge 14, Type (0, 0), BuildingBlock: EYOCIG_clean_linker_4, # of connection points: 2
#     Edge 15, Type (0, 0), BuildingBlock: EYOCIG_clean_linker_4, # of connection points: 2
#     Edge 16, Type (0, 0), BuildingBlock: EYOCIG_clean_linker_4, # of connection points: 2
#     Edge 17, Type (0, 0), BuildingBlock: EYOCIG_clean_linker_4, # of connection points: 2
#     Edge 18, Type (0, 0), BuildingBlock: EYOCIG_clean_linker_4, # of connection points: 2
#     Edge 19, Type (0, 0), BuildingBlock: EYOCIG_clean_linker_4, # of connection points: 2
#     Edge 20, Type (0, 0), BuildingBlock: EYOCIG_clean_linker_4, # of connection points: 2
#     Edge 21, Type (0, 0), BuildingBlock: EYOCIG_clean_linker_4, # of connection points: 2
#     Edge 22, Type (0, 0), BuildingBlock: EYOCIG_clean_linker_4, # of connection points: 2
#     Edge 23, Type (0, 0), BuildingBlock: EYOCIG_clean_linker_4, # of connection points: 2
#     Edge 24, Type (0, 0), BuildingBlock: EYOCIG_clean_linker_4, # of connection points: 2
#     Edge 25, Type (0, 0), BuildingBlock: EYOCIG_clean_linker_4, # of connection points: 2
#     Edge 26, Type (0, 0), BuildingBlock: EYOCIG_clean_linker_4, # of connection points: 2
#     Edge 27, Type (0, 0), BuildingBlock: EYOCIG_clean_linker_4, # of connection points: 2
#     Edge 28, Type (0, 0), BuildingBlock: EYOCIG_clean_linker_4, # of connection points: 2
#     Edge 29, Type (0, 0), BuildingBlock: EYOCIG_clean_linker_4, # of connection points: 2
#     Edge 30, Type (0, 0), BuildingBlock: EYOCIG_clean_linker_4, # of connection points: 2
#     Edge 31, Type (0, 0), BuildingBlock: EYOCIG_clean_linker_4, # of connection points: 2
# Relax obj value: 0.339
# Max RMSD: 0.283
# Mean RMSD: 0.283
data_MOF--net-whc--node1-OJICUG_clean_sbu_0--edge1-EYOCIG_clean_linker_4
_symmetry_space_group_name_H-M    P1
_symmetry_Int_Tables_number       1
_symmetry_cell_setting            triclinic
loop_
_symmetry_equiv_pos_as_xyz
'x, y, z'
_cell_length_a     28.824864
_cell_length_b     28.826844
_cell_length_c     24.888529
_cell_angle_alpha  89.996024
_cell_angle_beta   90.024982
_cell_angle_gamma 89.960543
loop_
_atom_site_label
_atom_site_type_symbol
_atom_site_fract_x
_atom_site_fract_y
_atom_site_fract_z
_atom_type_partial_charge
Sc0 Sc 0.4274 0.25707 0.1432 0.0
Sc1 Sc 0.37481 0.16818 0.0663 0.0
Sc2 Sc 0.49598 0.17155 0.0834 0.0
O3 O 0.43247 0.19882 0.09793 0.0
C4 C 0.52474 0.27635 0.08608 0.0
C5 C 0.36547 0.27742 0.04095 0.0
C6 C 0.44777 0.1598 0.97012 0.0
C7 C 0.32999 0.20873 0.17234 0.0
C8 C 0.49493 0.19228 0.21006 0.0
C9 C 0.43474 0.08187 0.10247 0.0
O10 O 0.49105 0.28919 0.11519 0.0
O11 O 0.35391 0.2351 0.03292 0.0
O12 O 0.48364 0.16852 0.99797 0.0
O13 O 0.36189 0.23842 0.17873 0.0
O14 O 0.51221 0.17252 0.16874 0.0
O15 O 0.3944 0.09971 0.09745 0.0
O16 O 0.46313 0.22298 0.20817 0.0
O17 O 0.33089 0.17816 0.13578 0.0
O18 O 0.47191 0.10365 0.0945 0.0
O19 O 0.3919 0.29107 0.07873 0.0
O20 O 0.52963 0.23549 0.06937 0.0
O21 O 0.40759 0.15488 0.99002 0.0
Sc22 Sc 0.25752 0.55132 0.8546 0.0
Sc23 Sc 0.1683 0.60363 0.93137 0.0
Sc24 Sc 0.17192 0.48251 0.91378 0.0
O25 O 0.19914 0.54608 0.89961 0.0
C26 C 0.19294 0.48394 0.78733 0.0
C27 C 0.20852 0.64842 0.82521 0.0
C28 C 0.08201 0.54368 0.8952 0.0
C29 C 0.2775 0.61339 0.95669 0.0
C30 C 0.27689 0.45392 0.91166 0.0
C31 C 0.16052 0.53035 0.02729 0.0
O32 O 0.2238 0.51553 0.7895 0.0
O33 O 0.17792 0.64741 0.86172 0.0
O34 O 0.10394 0.50651 0.90278 0.0
O35 O 0.29128 0.58691 0.91904 0.0
O36 O 0.23588 0.44878 0.92771 0.0
O37 O 0.15553 0.57063 0.00765 0.0
O38 O 0.28987 0.48782 0.88298 0.0
O39 O 0.23513 0.62485 0.96459 0.0
O40 O 0.16898 0.49456 -0.0008 0.0
O41 O 0.2385 0.61673 0.81897 0.0
O42 O 0.17291 0.46668 0.82844 0.0
O43 O 0.09976 0.584 0.9005 0.0
Sc44 Sc 0.55085 0.72131 0.14352 0.0
Sc45 Sc 0.60322 0.8101 0.06619 0.0
Sc46 Sc 0.48209 0.80701 0.0841 0.0
O47 O 0.54565 0.77959 0.09823 0.0
C48 C 0.45361 0.70206 0.08615 0.0
C49 C 0.61287 0.70084 0.04142 0.0
C50 C 0.52972 0.81846 0.97046 0.0
C51 C 0.64799 0.77009 0.17267 0.0
C52 C 0.48322 0.78589 0.21054 0.0
C53 C 0.54364 0.89659 0.10265 0.0
O54 O 0.48751 0.68904 0.11487 0.0
O55 O 0.62411 0.74317 0.03297 0.0
O56 O 0.49398 0.81013 0.99866 0.0
O57 O 0.61609 0.74046 0.17937 0.0
O58 O 0.46611 0.806 0.16938 0.0
O59 O 0.5839 0.8787 0.09709 0.0
O60 O 0.51484 0.75503 0.20847 0.0
O61 O 0.64723 0.80026 0.13565 0.0
O62 O 0.50635 0.87484 0.09524 0.0
O63 O 0.58666 0.68729 0.07941 0.0
O64 O 0.44839 0.7431 0.07015 0.0
O65 O 0.57008 0.82309 0.98999 0.0
Sc66 Sc 0.72083 0.427 0.85523 0.0
Sc67 Sc 0.81034 0.37495 0.93187 0.0
Sc68 Sc 0.80646 0.49602 0.91418 0.0
O69 O 0.77932 0.43239 0.90009 0.0
C70 C 0.78508 0.49462 0.78777 0.0
C71 C 0.76955 0.32978 0.82603 0.0
C72 C 0.89635 0.43492 0.89514 0.0
C73 C 0.70128 0.36512 0.95772 0.0
C74 C 0.70139 0.52427 0.9124 0.0
C75 C 0.81853 0.44833 0.02764 0.0
O76 O 0.75425 0.463 0.79003 0.0
O77 O 0.80008 0.33074 0.86266 0.0
O78 O 0.87447 0.47207 0.90311 0.0
O79 O 0.68734 0.39123 0.91977 0.0
O80 O 0.74247 0.52962 0.92817 0.0
O81 O 0.82379 0.40812 0.00792 0.0
O82 O 0.68839 0.49031 0.88385 0.0
O83 O 0.74371 0.35396 0.96578 0.0
O84 O 0.80956 0.48405 -0.00039 0.0
O85 O 0.73984 0.36167 0.81946 0.0
O86 O 0.80527 0.51183 0.82883 0.0
O87 O 0.87862 0.39457 0.90025 0.0
Sc88 Sc 0.4826 0.17098 0.58335 0.0
Sc89 Sc 0.60394 0.16786 0.56688 0.0
Sc90 Sc 0.55079 0.25649 0.64375 0.0
O91 O 0.54603 0.19834 0.59824 0.0
C92 C 0.45371 0.27578 0.58575 0.0
C93 C 0.53128 0.1599 0.47015 0.0
C94 C 0.6138 0.27729 0.5427 0.0
C95 C 0.54392 0.08129 0.60227 0.0
C96 C 0.48303 0.19163 0.70998 0.0
C97 C 0.64786 0.20764 0.67377 0.0
O98 O 0.44892 0.23489 0.56912 0.0
O99 O 0.57154 0.1555 0.49009 0.0
O100 O 0.58678 0.29075 0.57998 0.0
O101 O 0.50671 0.10315 0.59468 0.0
O102 O 0.51473 0.22237 0.70828 0.0
O103 O 0.64715 0.17713 0.63713 0.0
O104 O 0.46597 0.17186 0.66856 0.0
O105 O 0.58422 0.09909 0.59701 0.0
O106 O 0.61606 0.23753 0.67981 0.0
O107 O 0.49524 0.16788 0.49801 0.0
O108 O 0.48728 0.28866 0.61505 0.0
O109 O 0.6254 0.23499 0.53456 0.0
Sc110 Sc 0.17103 0.4959 0.4138 0.0
Sc111 Sc 0.16772 0.37472 0.43162 0.0
Sc112 Sc 0.25714 0.42715 0.35534 0.0
O113 O 0.1985 0.43233 0.39995 0.0
C114 C 0.19283 0.49453 0.28753 0.0
C115 C 0.08131 0.4346 0.39522 0.0
C116 C 0.20829 0.33011 0.32548 0.0
C117 C 0.15947 0.44814 0.52739 0.0
C118 C 0.27589 0.52464 0.41243 0.0
C119 C 0.27688 0.36481 0.45733 0.0
O120 O 0.1724 0.51168 0.32845 0.0
O121 O 0.09907 0.39429 0.40082 0.0
O122 O 0.23828 0.36179 0.31953 0.0
O123 O 0.16768 0.48394 0.49921 0.0
O124 O 0.28918 0.49065 0.38406 0.0
O125 O 0.23451 0.35333 0.46499 0.0
O126 O 0.23475 0.52979 0.42803 0.0
O127 O 0.1549 0.40777 0.50786 0.0
O128 O 0.29072 0.39146 0.4199 0.0
O129 O 0.10325 0.47178 0.40246 0.0
O130 O 0.22378 0.46302 0.28999 0.0
O131 O 0.17753 0.33104 0.36184 0.0
Sc132 Sc 0.49516 0.80739 0.5839 0.0
Sc133 Sc 0.37398 0.81095 0.56631 0.0
Sc134 Sc 0.42642 0.72154 0.64274 0.0
O135 O 0.43158 0.78007 0.59795 0.0
C136 C 0.52363 0.70238 0.58521 0.0
C137 C 0.44727 0.81907 0.47044 0.0
C138 C 0.36396 0.70184 0.5408 0.0
C139 C 0.43392 0.89713 0.60281 0.0
C140 C 0.49396 0.78592 0.71024 0.0
C141 C 0.32939 0.77045 0.67248 0.0
O142 O 0.52892 0.74354 0.56975 0.0
O143 O 0.40698 0.82396 0.49008 0.0
O144 O 0.39044 0.68799 0.57843 0.0
O145 O 0.47109 0.87526 0.59509 0.0
O146 O 0.46252 0.75493 0.7079 0.0
O147 O 0.33021 0.80101 0.6359 0.0
O148 O 0.51106 0.80624 0.66923 0.0
O149 O 0.39359 0.8794 0.59748 0.0
O150 O 0.36121 0.7406 0.67875 0.0
O151 O 0.48308 0.81056 0.49852 0.0
O152 O 0.48969 0.68921 0.61371 0.0
O153 O 0.35268 0.74424 0.53282 0.0
Sc154 Sc 0.80726 0.48279 0.41426 0.0
Sc155 Sc 0.80995 0.604 0.43184 0.0
Sc156 Sc 0.72107 0.55109 0.35503 0.0
O157 O 0.77954 0.54623 0.40008 0.0
C158 C 0.78583 0.48363 0.28787 0.0
C159 C 0.89666 0.54447 0.39566 0.0
C160 C 0.76958 0.64831 0.32534 0.0
C161 C 0.81842 0.53078 0.52779 0.0
C162 C 0.7024 0.45395 0.41301 0.0
C163 C 0.70064 0.61367 0.45663 0.0
O164 O 0.80622 0.4667 0.32896 0.0
O165 O 0.8787 0.58471 0.40114 0.0
O166 O 0.73995 0.61633 0.31889 0.0
O167 O 0.81039 0.49492 0.49965 0.0
O168 O 0.68905 0.48775 0.38434 0.0
O169 O 0.74297 0.62505 0.46489 0.0
O170 O 0.7436 0.44883 0.42848 0.0
O171 O 0.82287 0.57113 0.50819 0.0
O172 O 0.6871 0.58709 0.41898 0.0
O173 O 0.87494 0.50719 0.40304 0.0
O174 O 0.75471 0.51498 0.29008 0.0
O175 O 0.79998 0.64764 0.36213 0.0
C176 C 0.22962 0.25832 0.26528 0.0
C177 C 0.21502 0.28832 0.2947 0.0
C178 C 0.25787 0.23022 0.23195 0.0
C179 C 0.28804 0.21566 0.20276 0.0
C180 C 0.22943 0.72056 0.76541 0.0
C181 C 0.2151 0.69034 0.79467 0.0
C182 C 0.25744 0.74894 0.73221 0.0
C183 C 0.2875 0.76361 0.70298 0.0
C184 C 0.74811 0.72046 0.26573 0.0
C185 C 0.7626 0.69024 0.29491 0.0
C186 C 0.71999 0.7488 0.23254 0.0
C187 C 0.68992 0.76334 0.20318 0.0
C188 C 0.74789 0.2574 0.76693 0.0
C189 C 0.76254 0.28769 0.7959 0.0
C190 C 0.71969 0.22904 0.73388 0.0
C191 C 0.68966 0.21443 0.7045 0.0
C192 C 0.45947 0.16785 0.80842 0.0
C193 C 0.4681 0.17664 0.76214 0.0
C194 C 0.45432 0.16145 0.86432 0.0
C195 C 0.45146 0.16072 0.91263 0.0
C196 C 0.16302 0.52337 0.13299 0.0
C197 C 0.1619 0.52641 0.08472 0.0
C198 C 0.16965 0.51799 0.18881 0.0
C199 C 0.17834 0.5092 0.23507 0.0
C200 C 0.52245 0.81628 0.86475 0.0
C201 C 0.52558 0.81725 0.91303 0.0
C202 C 0.51712 0.80957 0.80891 0.0
C203 C 0.50847 0.80068 0.76267 0.0
C204 C 0.80949 0.46042 0.18923 0.0
C205 C 0.80065 0.46905 0.23549 0.0
C206 C 0.8162 0.45519 0.13339 0.0
C207 C 0.81724 0.45219 0.0851 0.0
C208 C 0.51885 0.16855 0.30851 0.0
C209 C 0.50994 0.17744 0.2623 0.0
C210 C 0.52442 0.16196 0.36435 0.0
C211 C 0.52752 0.16102 0.41265 0.0
C212 C 0.16203 0.45535 0.63305 0.0
C213 C 0.16089 0.45221 0.58479 0.0
C214 C 0.16896 0.46072 0.68882 0.0
C215 C 0.17802 0.46939 0.73501 0.0
C216 C 0.45956 0.80961 0.30898 0.0
C217 C 0.46842 0.80068 0.26281 0.0
C218 C 0.4542 0.81649 0.36475 0.0
C219 C 0.45119 0.81764 0.41302 0.0
C220 C 0.80876 0.51813 0.68923 0.0
C221 C 0.7998 0.50928 0.7354 0.0
C222 C 0.81572 0.52363 0.63347 0.0
C223 C 0.81693 0.52677 0.58521 0.0
C224 C 0.32678 0.38501 0.9475 0.0
C225 C 0.30908 0.41879 0.92778 0.0
C226 C 0.34007 0.34489 0.97602 0.0
C227 C 0.3502 0.31223 0.00385 0.0
C228 C 0.3448 0.63888 0.02167 0.0
C229 C 0.31218 0.62874 0.99384 0.0
C230 C 0.38488 0.65215 0.0502 0.0
C231 C 0.4186 0.66988 0.06995 0.0
C232 C 0.63819 0.63312 0.97692 0.0
C233 C 0.6281 0.66591 0.00451 0.0
C234 C 0.65142 0.59295 0.94851 0.0
C235 C 0.66914 0.55923 0.92872 0.0
C236 C 0.63402 0.33963 0.02274 0.0
C237 C 0.66665 0.34978 0.99494 0.0
C238 C 0.59385 0.32627 0.05104 0.0
C239 C 0.56 0.3085 0.07045 0.0
C240 C 0.63995 0.34512 0.47877 0.0
C241 C 0.62953 0.31228 0.50614 0.0
C242 C 0.65309 0.38524 0.4502 0.0
C243 C 0.67047 0.41893 0.42994 0.0
C244 C 0.3845 0.32551 0.55036 0.0
C245 C 0.41838 0.30785 0.56993 0.0
C246 C 0.34425 0.33885 0.52209 0.0
C247 C 0.31155 0.34916 0.4944 0.0
C248 C 0.33821 0.63432 0.47628 0.0
C249 C 0.34839 0.66713 0.50379 0.0
C250 C 0.32517 0.59395 0.44812 0.0
C251 C 0.30779 0.55996 0.42855 0.0
C252 C 0.63274 0.63951 0.52061 0.0
C253 C 0.66567 0.62925 0.49329 0.0
C254 C 0.59245 0.65271 0.54882 0.0
C255 C 0.55867 0.67028 0.56869 0.0
C256 C 0.46987 0.00419 0.12713 0.0
C257 C 0.44259 0.03503 0.11848 0.0
C258 C 0.50892 0.97447 0.12709 0.0
C259 C 0.53606 0.94353 0.11841 0.0
C260 C 0.97417 0.46994 0.87071 0.0
C261 C 0.94323 0.4428 0.87926 0.0
C262 C 0.00409 0.50881 0.87082 0.0
C263 C 0.03507 0.53589 0.87947 0.0
C264 C 0.46929 0.9746 0.62731 0.0
C265 C 0.44178 0.94398 0.61873 0.0
C266 C 0.50867 0.00384 0.6271 0.0
C267 C 0.53612 0.03445 0.61828 0.0
C268 C 0.97432 0.50936 0.37142 0.0
C269 C 0.94362 0.53682 0.37998 0.0
C270 C 0.00363 0.46998 0.37134 0.0
C271 C 0.03432 0.44246 0.37976 0.0
loop_
_geom_bond_atom_site_label_1
_geom_bond_atom_site_label_2
_geom_bond_distance
_geom_bond_site_symmetry_2
_ccdc_geom_bond_type
Sc0 O3 2.025 . S
Sc0 O10 2.105 . S
Sc0 O13 2.105 . S
Sc0 O16 2.105 . S
Sc0 O19 2.105 . S
Sc1 O3 2.025 . S
Sc1 O11 2.105 . S
Sc1 O15 2.105 . S
Sc1 O17 2.105 . S
Sc1 O21 2.105 1_554 S
Sc2 O3 2.025 . S
Sc2 O12 2.090 1_554 S
Sc2 O14 2.105 . S
Sc2 O18 2.105 . S
Sc2 O20 2.105 . S
O3 Sc0 2.025 . S
O3 Sc1 2.025 . S
O3 Sc2 2.025 . S
C4 O10 1.268 . S
C4 O20 1.268 . S
C5 O11 1.268 . S
C5 O19 1.268 . S
C6 O12 1.277 . S
C6 O21 1.268 . S
C7 O13 1.268 . S
C7 O17 1.268 . S
C8 O14 1.268 . S
C8 O16 1.268 . S
C9 O15 1.268 . S
C9 O18 1.268 . S
O10 Sc0 2.105 . S
O10 C4 1.268 . S
O11 Sc1 2.105 . S
O11 C5 1.268 . S
O12 Sc2 2.090 1_556 S
O12 C6 1.277 . S
O13 Sc0 2.105 . S
O13 C7 1.268 . S
O14 Sc2 2.105 . S
O14 C8 1.268 . S
O15 Sc1 2.105 . S
O15 C9 1.268 . S
O16 Sc0 2.105 . S
O16 C8 1.268 . S
O17 Sc1 2.105 . S
O17 C7 1.268 . S
O18 Sc2 2.105 . S
O18 C9 1.268 . S
O19 Sc0 2.105 . S
O19 C5 1.268 . S
O20 Sc2 2.105 . S
O20 C4 1.268 . S
O21 Sc1 2.105 1_556 S
O21 C6 1.268 . S
Sc22 O25 2.025 . S
Sc22 O32 2.105 . S
Sc22 O35 2.105 . S
Sc22 O38 2.105 . S
Sc22 O41 2.105 . S
Sc23 O25 2.025 . S
Sc23 O33 2.105 . S
Sc23 O37 2.105 1_556 S
Sc23 O39 2.105 . S
Sc23 O43 2.105 . S
Sc24 O25 2.025 . S
Sc24 O34 2.105 . S
Sc24 O36 2.105 . S
Sc24 O40 2.090 1_556 S
Sc24 O42 2.105 . S
O25 Sc22 2.025 . S
O25 Sc23 2.025 . S
O25 Sc24 2.025 . S
C26 O32 1.268 . S
C26 O42 1.268 . S
C27 O33 1.268 . S
C27 O41 1.268 . S
C28 O34 1.268 . S
C28 O43 1.268 . S
C29 O35 1.268 . S
C29 O39 1.268 . S
C30 O36 1.268 . S
C30 O38 1.268 . S
C31 O37 1.268 . S
C31 O40 1.277 . S
O32 Sc22 2.105 . S
O32 C26 1.268 . S
O33 Sc23 2.105 . S
O33 C27 1.268 . S
O34 Sc24 2.105 . S
O34 C28 1.268 . S
O35 Sc22 2.105 . S
O35 C29 1.268 . S
O36 Sc24 2.105 . S
O36 C30 1.268 . S
O37 Sc23 2.105 1_554 S
O37 C31 1.268 . S
O38 Sc22 2.105 . S
O38 C30 1.268 . S
O39 Sc23 2.105 . S
O39 C29 1.268 . S
O40 Sc24 2.090 1_554 S
O40 C31 1.277 . S
O41 Sc22 2.105 . S
O41 C27 1.268 . S
O42 Sc24 2.105 . S
O42 C26 1.268 . S
O43 Sc23 2.105 . S
O43 C28 1.268 . S
Sc44 O47 2.025 . S
Sc44 O54 2.105 . S
Sc44 O57 2.105 . S
Sc44 O60 2.105 . S
Sc44 O63 2.105 . S
Sc45 O47 2.025 . S
Sc45 O55 2.105 . S
Sc45 O59 2.105 . S
Sc45 O61 2.105 . S
Sc45 O65 2.105 1_554 S
Sc46 O47 2.025 . S
Sc46 O56 2.090 1_554 S
Sc46 O58 2.105 . S
Sc46 O62 2.105 . S
Sc46 O64 2.105 . S
O47 Sc44 2.025 . S
O47 Sc45 2.025 . S
O47 Sc46 2.025 . S
C48 O54 1.268 . S
C48 O64 1.268 . S
C49 O55 1.268 . S
C49 O63 1.268 . S
C50 O56 1.277 . S
C50 O65 1.268 . S
C51 O57 1.268 . S
C51 O61 1.268 . S
C52 O58 1.268 . S
C52 O60 1.268 . S
C53 O59 1.268 . S
C53 O62 1.268 . S
O54 Sc44 2.105 . S
O54 C48 1.268 . S
O55 Sc45 2.105 . S
O55 C49 1.268 . S
O56 Sc46 2.090 1_556 S
O56 C50 1.277 . S
O57 Sc44 2.105 . S
O57 C51 1.268 . S
O58 Sc46 2.105 . S
O58 C52 1.268 . S
O59 Sc45 2.105 . S
O59 C53 1.268 . S
O60 Sc44 2.105 . S
O60 C52 1.268 . S
O61 Sc45 2.105 . S
O61 C51 1.268 . S
O62 Sc46 2.105 . S
O62 C53 1.268 . S
O63 Sc44 2.105 . S
O63 C49 1.268 . S
O64 Sc46 2.105 . S
O64 C48 1.268 . S
O65 Sc45 2.105 1_556 S
O65 C50 1.268 . S
Sc66 O69 2.025 . S
Sc66 O76 2.105 . S
Sc66 O79 2.105 . S
Sc66 O82 2.105 . S
Sc66 O85 2.105 . S
Sc67 O69 2.025 . S
Sc67 O77 2.105 . S
Sc67 O81 2.105 1_556 S
Sc67 O83 2.105 . S
Sc67 O87 2.105 . S
Sc68 O69 2.025 . S
Sc68 O78 2.105 . S
Sc68 O80 2.105 . S
Sc68 O84 2.090 1_556 S
Sc68 O86 2.105 . S
O69 Sc66 2.025 . S
O69 Sc67 2.025 . S
O69 Sc68 2.025 . S
C70 O76 1.268 . S
C70 O86 1.268 . S
C71 O77 1.268 . S
C71 O85 1.268 . S
C72 O78 1.268 . S
C72 O87 1.268 . S
C73 O79 1.268 . S
C73 O83 1.268 . S
C74 O80 1.268 . S
C74 O82 1.268 . S
C75 O81 1.268 . S
C75 O84 1.277 . S
O76 Sc66 2.105 . S
O76 C70 1.268 . S
O77 Sc67 2.105 . S
O77 C71 1.268 . S
O78 Sc68 2.105 . S
O78 C72 1.268 . S
O79 Sc66 2.105 . S
O79 C73 1.268 . S
O80 Sc68 2.105 . S
O80 C74 1.268 . S
O81 Sc67 2.105 1_554 S
O81 C75 1.268 . S
O82 Sc66 2.105 . S
O82 C74 1.268 . S
O83 Sc67 2.105 . S
O83 C73 1.268 . S
O84 Sc68 2.090 1_554 S
O84 C75 1.277 . S
O85 Sc66 2.105 . S
O85 C71 1.268 . S
O86 Sc68 2.105 . S
O86 C70 1.268 . S
O87 Sc67 2.105 . S
O87 C72 1.268 . S
Sc88 O91 2.025 . S
Sc88 O98 2.105 . S
Sc88 O101 2.105 . S
Sc88 O104 2.105 . S
Sc88 O107 2.105 . S
Sc89 O91 2.025 . S
Sc89 O99 2.105 . S
Sc89 O103 2.105 . S
Sc89 O105 2.105 . S
Sc89 O109 2.105 . S
Sc90 O91 2.025 . S
Sc90 O100 2.105 . S
Sc90 O102 2.105 . S
Sc90 O106 2.105 . S
Sc90 O108 2.105 . S
O91 Sc88 2.025 . S
O91 Sc89 2.025 . S
O91 Sc90 2.025 . S
C92 O98 1.268 . S
C92 O108 1.268 . S
C93 O99 1.268 . S
C93 O107 1.268 . S
C94 O100 1.268 . S
C94 O109 1.268 . S
C95 O101 1.268 . S
C95 O105 1.268 . S
C96 O102 1.268 . S
C96 O104 1.268 . S
C97 O103 1.268 . S
C97 O106 1.268 . S
O98 Sc88 2.105 . S
O98 C92 1.268 . S
O99 Sc89 2.105 . S
O99 C93 1.268 . S
O100 Sc90 2.105 . S
O100 C94 1.268 . S
O101 Sc88 2.105 . S
O101 C95 1.268 . S
O102 Sc90 2.105 . S
O102 C96 1.268 . S
O103 Sc89 2.105 . S
O103 C97 1.268 . S
O104 Sc88 2.105 . S
O104 C96 1.268 . S
O105 Sc89 2.105 . S
O105 C95 1.268 . S
O106 Sc90 2.105 . S
O106 C97 1.268 . S
O107 Sc88 2.105 . S
O107 C93 1.268 . S
O108 Sc90 2.105 . S
O108 C92 1.268 . S
O109 Sc89 2.105 . S
O109 C94 1.268 . S
Sc110 O113 2.025 . S
Sc110 O120 2.105 . S
Sc110 O123 2.105 . S
Sc110 O126 2.105 . S
Sc110 O129 2.105 . S
Sc111 O113 2.025 . S
Sc111 O121 2.105 . S
Sc111 O125 2.105 . S
Sc111 O127 2.105 . S
Sc111 O131 2.105 . S
Sc112 O113 2.025 . S
Sc112 O122 2.105 . S
Sc112 O124 2.105 . S
Sc112 O128 2.105 . S
Sc112 O130 2.105 . S
O113 Sc110 2.025 . S
O113 Sc111 2.025 . S
O113 Sc112 2.025 . S
C114 O120 1.268 . S
C114 O130 1.268 . S
C115 O121 1.268 . S
C115 O129 1.268 . S
C116 O122 1.268 . S
C116 O131 1.268 . S
C117 O123 1.268 . S
C117 O127 1.268 . S
C118 O124 1.268 . S
C118 O126 1.268 . S
C119 O125 1.268 . S
C119 O128 1.268 . S
O120 Sc110 2.105 . S
O120 C114 1.268 . S
O121 Sc111 2.105 . S
O121 C115 1.268 . S
O122 Sc112 2.105 . S
O122 C116 1.268 . S
O123 Sc110 2.105 . S
O123 C117 1.268 . S
O124 Sc112 2.105 . S
O124 C118 1.268 . S
O125 Sc111 2.105 . S
O125 C119 1.268 . S
O126 Sc110 2.105 . S
O126 C118 1.268 . S
O127 Sc111 2.105 . S
O127 C117 1.268 . S
O128 Sc112 2.105 . S
O128 C119 1.268 . S
O129 Sc110 2.105 . S
O129 C115 1.268 . S
O130 Sc112 2.105 . S
O130 C114 1.268 . S
O131 Sc111 2.105 . S
O131 C116 1.268 . S
Sc132 O135 2.025 . S
Sc132 O142 2.105 . S
Sc132 O145 2.105 . S
Sc132 O148 2.105 . S
Sc132 O151 2.105 . S
Sc133 O135 2.025 . S
Sc133 O143 2.105 . S
Sc133 O147 2.105 . S
Sc133 O149 2.105 . S
Sc133 O153 2.105 . S
Sc134 O135 2.025 . S
Sc134 O144 2.105 . S
Sc134 O146 2.105 . S
Sc134 O150 2.105 . S
Sc134 O152 2.105 . S
O135 Sc132 2.025 . S
O135 Sc133 2.025 . S
O135 Sc134 2.025 . S
C136 O142 1.268 . S
C136 O152 1.268 . S
C137 O143 1.268 . S
C137 O151 1.268 . S
C138 O144 1.268 . S
C138 O153 1.268 . S
C139 O145 1.268 . S
C139 O149 1.268 . S
C140 O146 1.268 . S
C140 O148 1.268 . S
C141 O147 1.268 . S
C141 O150 1.268 . S
O142 Sc132 2.105 . S
O142 C136 1.268 . S
O143 Sc133 2.105 . S
O143 C137 1.268 . S
O144 Sc134 2.105 . S
O144 C138 1.268 . S
O145 Sc132 2.105 . S
O145 C139 1.268 . S
O146 Sc134 2.105 . S
O146 C140 1.268 . S
O147 Sc133 2.105 . S
O147 C141 1.268 . S
O148 Sc132 2.105 . S
O148 C140 1.268 . S
O149 Sc133 2.105 . S
O149 C139 1.268 . S
O150 Sc134 2.105 . S
O150 C141 1.268 . S
O151 Sc132 2.105 . S
O151 C137 1.268 . S
O152 Sc134 2.105 . S
O152 C136 1.268 . S
O153 Sc133 2.105 . S
O153 C138 1.268 . S
Sc154 O157 2.025 . S
Sc154 O164 2.105 . S
Sc154 O167 2.105 . S
Sc154 O170 2.105 . S
Sc154 O173 2.105 . S
Sc155 O157 2.025 . S
Sc155 O165 2.105 . S
Sc155 O169 2.105 . S
Sc155 O171 2.105 . S
Sc155 O175 2.105 . S
Sc156 O157 2.025 . S
Sc156 O166 2.105 . S
Sc156 O168 2.105 . S
Sc156 O172 2.105 . S
Sc156 O174 2.105 . S
O157 Sc154 2.025 . S
O157 Sc155 2.025 . S
O157 Sc156 2.025 . S
C158 O164 1.268 . S
C158 O174 1.268 . S
C159 O165 1.268 . S
C159 O173 1.268 . S
C160 O166 1.268 . S
C160 O175 1.268 . S
C161 O167 1.268 . S
C161 O171 1.268 . S
C162 O168 1.268 . S
C162 O170 1.268 . S
C163 O169 1.268 . S
C163 O172 1.268 . S
O164 Sc154 2.105 . S
O164 C158 1.268 . S
O165 Sc155 2.105 . S
O165 C159 1.268 . S
O166 Sc156 2.105 . S
O166 C160 1.268 . S
O167 Sc154 2.105 . S
O167 C161 1.268 . S
O168 Sc156 2.105 . S
O168 C162 1.268 . S
O169 Sc155 2.105 . S
O169 C163 1.268 . S
O170 Sc154 2.105 . S
O170 C162 1.268 . S
O171 Sc155 2.105 . S
O171 C161 1.268 . S
O172 Sc156 2.105 . S
O172 C163 1.268 . S
O173 Sc154 2.105 . S
O173 C159 1.268 . S
O174 Sc156 2.105 . S
O174 C158 1.268 . S
O175 Sc155 2.105 . S
O175 C160 1.268 . S
C176 C177 1.170 . S
C176 C178 1.380 . S
C177 C176 1.170 . S
C178 C176 1.380 . S
C178 C179 1.170 . S
C179 C178 1.170 . S
C180 C181 1.170 . S
C180 C182 1.380 . S
C181 C180 1.170 . S
C182 C180 1.380 . S
C182 C183 1.170 . S
C183 C182 1.170 . S
C184 C185 1.170 . S
C184 C186 1.380 . S
C185 C184 1.170 . S
C186 C184 1.380 . S
C186 C187 1.170 . S
C187 C186 1.170 . S
C188 C189 1.170 . S
C188 C190 1.380 . S
C189 C188 1.170 . S
C190 C188 1.380 . S
C190 C191 1.170 . S
C191 C190 1.170 . S
C192 C193 1.170 . S
C192 C194 1.380 . S
C193 C192 1.170 . S
C194 C192 1.380 . S
C194 C195 1.170 . S
C195 C194 1.170 . S
C196 C197 1.170 . S
C196 C198 1.380 . S
C197 C196 1.170 . S
C198 C196 1.380 . S
C198 C199 1.170 . S
C199 C198 1.170 . S
C200 C201 1.170 . S
C200 C202 1.380 . S
C201 C200 1.170 . S
C202 C200 1.380 . S
C202 C203 1.170 . S
C203 C202 1.170 . S
C204 C205 1.170 . S
C204 C206 1.380 . S
C205 C204 1.170 . S
C206 C204 1.380 . S
C206 C207 1.170 . S
C207 C206 1.170 . S
C208 C209 1.170 . S
C208 C210 1.380 . S
C209 C208 1.170 . S
C210 C208 1.380 . S
C210 C211 1.170 . S
C211 C210 1.170 . S
C212 C213 1.170 . S
C212 C214 1.380 . S
C213 C212 1.170 . S
C214 C212 1.380 . S
C214 C215 1.170 . S
C215 C214 1.170 . S
C216 C217 1.170 . S
C216 C218 1.380 . S
C217 C216 1.170 . S
C218 C216 1.380 . S
C218 C219 1.170 . S
C219 C218 1.170 . S
C220 C221 1.170 . S
C220 C222 1.380 . S
C221 C220 1.170 . S
C222 C220 1.380 . S
C222 C223 1.170 . S
C223 C222 1.170 . S
C224 C225 1.170 . S
C224 C226 1.380 . S
C225 C224 1.170 . S
C226 C224 1.380 . S
C226 C227 1.170 1_556 S
C227 C226 1.170 1_554 S
C228 C229 1.170 1_554 S
C228 C230 1.380 . S
C229 C228 1.170 1_556 S
C230 C228 1.380 . S
C230 C231 1.170 . S
C231 C230 1.170 . S
C232 C233 1.170 1_556 S
C232 C234 1.380 . S
C233 C232 1.170 1_554 S
C234 C232 1.380 . S
C234 C235 1.170 . S
C235 C234 1.170 . S
C236 C237 1.170 1_554 S
C236 C238 1.380 . S
C237 C236 1.170 1_556 S
C238 C236 1.380 . S
C238 C239 1.170 . S
C239 C238 1.170 . S
C240 C241 1.170 . S
C240 C242 1.380 . S
C241 C240 1.170 . S
C242 C240 1.380 . S
C242 C243 1.170 . S
C243 C242 1.170 . S
C244 C245 1.170 . S
C244 C246 1.380 . S
C245 C244 1.170 . S
C246 C244 1.380 . S
C246 C247 1.170 . S
C247 C246 1.170 . S
C248 C249 1.170 . S
C248 C250 1.380 . S
C249 C248 1.170 . S
C250 C248 1.380 . S
C250 C251 1.170 . S
C251 C250 1.170 . S
C252 C253 1.170 . S
C252 C254 1.380 . S
C253 C252 1.170 . S
C254 C252 1.380 . S
C254 C255 1.170 . S
C255 C254 1.170 . S
C256 C257 1.170 . S
C256 C258 1.380 1_545 S
C257 C256 1.170 . S
C258 C256 1.380 1_565 S
C258 C259 1.170 . S
C259 C258 1.170 . S
C260 C261 1.170 . S
C260 C262 1.380 1_655 S
C261 C260 1.170 . S
C262 C260 1.380 1_455 S
C262 C263 1.170 . S
C263 C262 1.170 . S
C264 C265 1.170 . S
C264 C266 1.380 1_565 S
C265 C264 1.170 . S
C266 C264 1.380 1_545 S
C266 C267 1.170 . S
C267 C266 1.170 . S
C268 C269 1.170 . S
C268 C270 1.380 1_655 S
C269 C268 1.170 . S
C270 C268 1.380 1_455 S
C270 C271 1.170 . S
C271 C270 1.170 . S
C177 C116 1.376 . S
C179 C7 1.366 . S
C181 C27 1.374 . S
C183 C141 1.340 . S
C185 C160 1.316 . S
C187 C51 1.337 . S
C189 C71 1.318 . S
C191 C97 1.373 . S
C193 C96 1.523 . S
C195 C6 1.521 . S
C197 C31 1.517 . S
C199 C114 1.514 . S
C201 C50 1.523 . S
C203 C140 1.511 . S
C205 C158 1.510 . S
C207 C75 1.516 . S
C209 C8 1.523 . S
C211 C93 1.524 . S
C213 C117 1.519 . S
C215 C26 1.510 . S
C217 C52 1.514 . S
C219 C137 1.517 . S
C221 C70 1.517 . S
C223 C161 1.515 . S
C225 C30 1.122 . S
C227 C5 1.131 . S
C229 C29 1.125 . S
C231 C48 1.122 . S
C233 C49 1.127 . S
C235 C74 1.133 . S
C237 C73 1.132 . S
C239 C4 1.112 . S
C241 C94 1.100 . S
C243 C162 1.122 . S
C245 C92 1.111 . S
C247 C119 1.121 . S
C249 C138 1.120 . S
C251 C118 1.107 . S
C253 C163 1.112 . S
C255 C136 1.133 . S
C257 C9 1.712 . S
C259 C53 1.735 . S
C261 C72 1.716 . S
C263 C28 1.710 . S
C265 C139 1.731 . S
C267 C95 1.690 . S
C269 C159 1.703 . S
C271 C115 1.734 . S
