# Generated by pormake.
# Topology crs, (6)-cn, num edge types: 1
# Building blocks:
#     Node 0, Type 0, BuildingBlock: CIFDUS_clean_sbu_1, # of connection points: 6
#     Node 1, Type 0, BuildingBlock: CIFDUS_clean_sbu_1, # of connection points: 6
#     Node 2, Type 0, BuildingBlock: CIFDUS_clean_sbu_1, # of connection points: 6
#     Node 3, Type 0, BuildingBlock: CIFDUS_clean_sbu_1, # of connection points: 6
#     Node 4, Type 0, BuildingBlock: CIFDUS_clean_sbu_1, # of connection points: 6
#     Node 5, Type 0, BuildingBlock: CIFDUS_clean_sbu_1, # of connection points: 6
#     Node 6, Type 0, BuildingBlock: CIFDUS_clean_sbu_1, # of connection points: 6
#     Node 7, Type 0, BuildingBlock: CIFDUS_clean_sbu_1, # of connection points: 6
#     Node 8, Type 0, BuildingBlock: CIFDUS_clean_sbu_1, # of connection points: 6
#     Node 9, Type 0, BuildingBlock: CIFDUS_clean_sbu_1, # of connection points: 6
#     Node 10, Type 0, BuildingBlock: CIFDUS_clean_sbu_1, # of connection points: 6
#     Node 11, Type 0, BuildingBlock: CIFDUS_clean_sbu_1, # of connection points: 6
#     Node 12, Type 0, BuildingBlock: CIFDUS_clean_sbu_1, # of connection points: 6
#     Node 13, Type 0, BuildingBlock: CIFDUS_clean_sbu_1, # of connection points: 6
#     Node 14, Type 0, BuildingBlock: CIFDUS_clean_sbu_1, # of connection points: 6
#     Node 15, Type 0, BuildingBlock: CIFDUS_clean_sbu_1, # of connection points: 6
#     Edge 16, Type (0, 0), BuildingBlock: AJUNOK_clean_linker_0, # of connection points: 2
#     Edge 17, Type (0, 0), BuildingBlock: AJUNOK_clean_linker_0, # of connection points: 2
#     Edge 18, Type (0, 0), BuildingBlock: AJUNOK_clean_linker_0, # of connection points: 2
#     Edge 19, Type (0, 0), BuildingBlock: AJUNOK_clean_linker_0, # of connection points: 2
#     Edge 20, Type (0, 0), BuildingBlock: AJUNOK_clean_linker_0, # of connection points: 2
#     Edge 21, Type (0, 0), BuildingBlock: AJUNOK_clean_linker_0, # of connection points: 2
#     Edge 22, Type (0, 0), BuildingBlock: AJUNOK_clean_linker_0, # of connection points: 2
#     Edge 23, Type (0, 0), BuildingBlock: AJUNOK_clean_linker_0, # of connection points: 2
#     Edge 24, Type (0, 0), BuildingBlock: AJUNOK_clean_linker_0, # of connection points: 2
#     Edge 25, Type (0, 0), BuildingBlock: AJUNOK_clean_linker_0, # of connection points: 2
#     Edge 26, Type (0, 0), BuildingBlock: AJUNOK_clean_linker_0, # of connection points: 2
#     Edge 27, Type (0, 0), BuildingBlock: AJUNOK_clean_linker_0, # of connection points: 2
#     Edge 28, Type (0, 0), BuildingBlock: AJUNOK_clean_linker_0, # of connection points: 2
#     Edge 29, Type (0, 0), BuildingBlock: AJUNOK_clean_linker_0, # of connection points: 2
#     Edge 30, Type (0, 0), BuildingBlock: AJUNOK_clean_linker_0, # of connection points: 2
#     Edge 31, Type (0, 0), BuildingBlock: AJUNOK_clean_linker_0, # of connection points: 2
#     Edge 32, Type (0, 0), BuildingBlock: AJUNOK_clean_linker_0, # of connection points: 2
#     Edge 33, Type (0, 0), BuildingBlock: AJUNOK_clean_linker_0, # of connection points: 2
#     Edge 34, Type (0, 0), BuildingBlock: AJUNOK_clean_linker_0, # of connection points: 2
#     Edge 35, Type (0, 0), BuildingBlock: AJUNOK_clean_linker_0, # of connection points: 2
#     Edge 36, Type (0, 0), BuildingBlock: AJUNOK_clean_linker_0, # of connection points: 2
#     Edge 37, Type (0, 0), BuildingBlock: AJUNOK_clean_linker_0, # of connection points: 2
#     Edge 38, Type (0, 0), BuildingBlock: AJUNOK_clean_linker_0, # of connection points: 2
#     Edge 39, Type (0, 0), BuildingBlock: AJUNOK_clean_linker_0, # of connection points: 2
#     Edge 40, Type (0, 0), BuildingBlock: AJUNOK_clean_linker_0, # of connection points: 2
#     Edge 41, Type (0, 0), BuildingBlock: AJUNOK_clean_linker_0, # of connection points: 2
#     Edge 42, Type (0, 0), BuildingBlock: AJUNOK_clean_linker_0, # of connection points: 2
#     Edge 43, Type (0, 0), BuildingBlock: AJUNOK_clean_linker_0, # of connection points: 2
#     Edge 44, Type (0, 0), BuildingBlock: AJUNOK_clean_linker_0, # of connection points: 2
#     Edge 45, Type (0, 0), BuildingBlock: AJUNOK_clean_linker_0, # of connection points: 2
#     Edge 46, Type (0, 0), BuildingBlock: AJUNOK_clean_linker_0, # of connection points: 2
#     Edge 47, Type (0, 0), BuildingBlock: AJUNOK_clean_linker_0, # of connection points: 2
#     Edge 48, Type (0, 0), BuildingBlock: AJUNOK_clean_linker_0, # of connection points: 2
#     Edge 49, Type (0, 0), BuildingBlock: AJUNOK_clean_linker_0, # of connection points: 2
#     Edge 50, Type (0, 0), BuildingBlock: AJUNOK_clean_linker_0, # of connection points: 2
#     Edge 51, Type (0, 0), BuildingBlock: AJUNOK_clean_linker_0, # of connection points: 2
#     Edge 52, Type (0, 0), BuildingBlock: AJUNOK_clean_linker_0, # of connection points: 2
#     Edge 53, Type (0, 0), BuildingBlock: AJUNOK_clean_linker_0, # of connection points: 2
#     Edge 54, Type (0, 0), BuildingBlock: AJUNOK_clean_linker_0, # of connection points: 2
#     Edge 55, Type (0, 0), BuildingBlock: AJUNOK_clean_linker_0, # of connection points: 2
#     Edge 56, Type (0, 0), BuildingBlock: AJUNOK_clean_linker_0, # of connection points: 2
#     Edge 57, Type (0, 0), BuildingBlock: AJUNOK_clean_linker_0, # of connection points: 2
#     Edge 58, Type (0, 0), BuildingBlock: AJUNOK_clean_linker_0, # of connection points: 2
#     Edge 59, Type (0, 0), BuildingBlock: AJUNOK_clean_linker_0, # of connection points: 2
#     Edge 60, Type (0, 0), BuildingBlock: AJUNOK_clean_linker_0, # of connection points: 2
#     Edge 61, Type (0, 0), BuildingBlock: AJUNOK_clean_linker_0, # of connection points: 2
#     Edge 62, Type (0, 0), BuildingBlock: AJUNOK_clean_linker_0, # of connection points: 2
#     Edge 63, Type (0, 0), BuildingBlock: AJUNOK_clean_linker_0, # of connection points: 2
# Relax obj value: 0.276
# Max RMSD: 0.234
# Mean RMSD: 0.228
data_MOF--net-crs--node1-CIFDUS_clean_sbu_1--edge1-AJUNOK_clean_linker_0
_symmetry_space_group_name_H-M    P1
_symmetry_Int_Tables_number       1
_symmetry_cell_setting            triclinic
loop_
_symmetry_equiv_pos_as_xyz
'x, y, z'
_cell_length_a     31.243057
_cell_length_b     31.536359
_cell_length_c     31.721911
_cell_angle_alpha  90.795002
_cell_angle_beta   88.777447
_cell_angle_gamma 86.646911
loop_
_atom_site_label
_atom_site_type_symbol
_atom_site_fract_x
_atom_site_fract_y
_atom_site_fract_z
_atom_type_partial_charge
O0 O 0.9542 0.01615 0.9517 0.0
Mn1 Mn -0.01073 -0.00025 0.00339 0.0
O2 O 0.88563 0.02453 0.97534 0.0
Mn3 Mn 0.89451 0.00973 0.03132 0.0
O4 O 0.02463 0.98335 0.05563 0.0
O5 O 0.03299 0.97132 0.9629 0.0
Mn6 Mn 0.08502 0.98244 0.97766 0.0
O7 O 0.01958 0.05786 -0.00016 0.0
O8 O 0.09031 0.96036 0.03144 0.0
O9 O 0.95923 0.94146 0.00609 0.0
O10 O 0.89759 0.95273 0.04285 0.0
O11 O 0.09109 0.94899 0.92915 0.0
O12 O 0.08647 0.041 0.97422 0.0
C13 C 0.92479 0.05312 0.07101 0.0
C14 C 0.91445 0.02513 0.94615 0.0
C15 C 0.06221 0.96639 0.06107 0.0
C16 C 0.04968 0.94987 0.93096 0.0
C17 C 0.05669 0.06821 0.98624 0.0
C18 C 0.92595 0.92783 0.02503 0.0
O19 O 0.94488 0.02843 0.04324 0.0
O20 O 0.8839 0.04872 0.07404 0.0
O21 O 0.05284 0.26229 0.19714 0.0
Mn22 Mn 0.00407 0.25147 0.24131 0.0
O23 O 0.02383 0.30396 0.14697 0.0
Mn24 Mn 0.9682 0.29247 0.15945 0.0
O25 O 0.95512 0.24044 0.28632 0.0
O26 O 0.04649 0.21005 0.26931 0.0
Mn27 Mn 0.04532 0.22656 0.32297 0.0
O28 O 0.02136 0.30332 0.27811 0.0
O29 O -0.00931 0.22214 0.34474 0.0
O30 O 0.98425 0.20247 0.20077 0.0
O31 O 0.95581 0.23802 0.14544 0.0
O32 O 0.0831 0.18092 0.32137 0.0
O33 O 0.06591 0.27993 0.32751 0.0
C34 C 0.93492 0.32277 0.2121 0.0
C35 C 0.05563 0.28354 0.16301 0.0
C36 C 0.95583 0.23052 0.32566 0.0
C37 C 0.07507 0.18136 0.28144 0.0
C38 C 0.04717 0.31017 0.30796 0.0
C39 C 0.96574 0.20358 0.16449 0.0
O40 O 0.9641 0.29281 0.21418 0.0
O41 O 0.92628 0.33424 0.17407 0.0
O42 O 0.76134 0.21101 0.55077 0.0
Mn43 Mn 0.74305 0.24105 0.49516 0.0
O44 O 0.80168 0.15238 0.5318 0.0
Mn45 Mn 0.7847 0.15211 0.47633 0.0
O46 O 0.72524 0.27121 0.43967 0.0
O47 O 0.70013 0.27721 0.53155 0.0
Mn48 Mn 0.69903 0.32947 0.51207 0.0
O49 O 0.78929 0.28506 0.50428 0.0
O50 O 0.68045 0.32697 0.45712 0.0
O51 O 0.6963 0.19754 0.48519 0.0
O52 O 0.73031 0.13499 0.46681 0.0
O53 O 0.66133 0.33198 0.55706 0.0
O54 O 0.75369 0.34798 0.51926 0.0
C55 C 0.81585 0.19031 0.43232 0.0
C56 C 0.78626 0.17878 0.55967 0.0
C57 C 0.69905 0.30204 0.42969 0.0
C58 C 0.67269 0.29204 0.56027 0.0
C59 C 0.78828 0.32486 0.51388 0.0
C60 C 0.69619 0.15842 0.47322 0.0
O61 O 0.78628 0.20497 0.45904 0.0
O62 O 0.82484 0.14977 0.43359 0.0
O63 O 0.73014 0.94473 0.77809 0.0
Mn64 Mn 0.74523 -1e-05 0.74555 0.0
O65 O 0.70122 0.96751 0.84083 0.0
Mn66 Mn 0.7125 0.0245 0.83637 0.0
O67 O 0.76058 0.05558 0.71412 0.0
O68 O 0.78334 0.96371 0.7072 0.0
Mn69 Mn 0.78098 0.98134 0.65507 0.0
O70 O 0.69416 -0.00633 0.70611 0.0
O71 O 0.80256 0.03427 0.65858 0.0
O72 O 0.79681 0.00825 0.78448 0.0
O73 O 0.76832 0.03835 0.84443 0.0
O74 O 0.81831 0.93336 0.65453 0.0
O75 O 0.72334 0.98224 0.64097 0.0
C76 C 0.67602 0.06336 0.79328 0.0
C77 C 0.71224 0.93791 0.81418 0.0
C78 C 0.7867 0.0632 0.68364 0.0
C79 C 0.81078 0.93409 0.69477 0.0
C80 C 0.69104 0.98914 0.66612 0.0
C81 C 0.80017 0.02762 0.81995 0.0
O82 O 0.70597 0.03551 0.78303 0.0
O83 O 0.66869 0.06667 0.83348 0.0
O84 O 0.56154 0.75663 0.2162 0.0
Mn85 Mn 0.50433 0.74941 0.24938 0.0
O86 O 0.54777 0.80648 0.16828 0.0
Mn87 Mn 0.49157 0.79243 0.16349 0.0
O88 O 0.44872 0.74193 0.28654 0.0
O89 O 0.5365 0.70677 0.28369 0.0
Mn90 Mn 0.53358 0.72096 0.33752 0.0
O91 O 0.51909 0.79867 0.28864 0.0
O92 O 0.47507 0.72454 0.35054 0.0
O93 O 0.48954 0.70221 0.20591 0.0
O94 O 0.48373 0.73727 0.14434 0.0
O95 O 0.56706 0.67044 0.33283 0.0
O96 O 0.55866 0.77269 0.34111 0.0
C97 C 0.44608 0.82376 0.20688 0.0
C98 C 0.57394 0.78403 0.18998 0.0
C99 C 0.44388 0.73447 0.32631 0.0
C100 C 0.56094 0.67432 0.29285 0.0
C101 C 0.54355 0.8037 0.31975 0.0
C102 C 0.4841 0.703 0.1656 0.0
O103 O 0.47245 0.7927 0.21571 0.0
O104 O 0.44792 0.83476 0.1678 0.0
O105 O 0.25483 0.7194 0.55456 0.0
Mn106 Mn 0.2386 0.74729 0.49734 0.0
O107 O 0.29844 0.66182 0.53939 0.0
Mn108 Mn 0.28278 0.65778 0.48339 0.0
O109 O 0.22177 0.77494 0.4401 0.0
O110 O 0.19499 0.78479 0.53015 0.0
Mn111 Mn 0.19384 0.83663 0.51069 0.0
O112 O 0.2842 0.79179 0.50715 0.0
O113 O 0.17693 0.83145 0.45564 0.0
O114 O 0.19286 0.70278 0.48911 0.0
O115 O 0.22823 0.63963 0.47459 0.0
O116 O 0.1545 0.83865 0.55457 0.0
O117 O 0.24813 0.8548 0.51949 0.0
C118 C 0.31099 0.69573 0.43612 0.0
C119 C 0.28014 0.68831 0.56573 0.0
C120 C 0.19495 0.80497 0.42924 0.0
C121 C 0.16625 0.7988 0.55755 0.0
C122 C 0.28291 0.83161 0.51699 0.0
C123 C 0.19375 0.66295 0.47978 0.0
O124 O 0.28245 0.70991 0.46391 0.0
O125 O 0.32232 0.65582 0.43944 0.0
O126 O 0.2331 0.44638 0.77873 0.0
Mn127 Mn 0.24279 0.50429 0.74867 0.0
O128 O 0.1833 0.45907 0.83017 0.0
Mn129 Mn 0.1895 0.5169 0.83208 0.0
O130 O 0.25398 0.56267 0.71953 0.0
O131 O 0.29189 0.47356 0.71684 0.0
Mn132 Mn 0.29317 0.49253 0.66486 0.0
O133 O 0.20085 0.49081 0.70133 0.0
O134 O 0.30597 0.54826 0.67078 0.0
O135 O 0.28353 0.5193 0.79682 0.0
O136 O 0.24072 0.53332 0.85422 0.0
O137 O 0.33693 0.45109 0.66704 0.0
O138 O 0.23996 0.48465 0.64114 0.0
C139 C 0.15905 0.55746 0.78667 0.0
C140 C 0.20862 0.43374 0.80864 0.0
C141 C 0.28236 0.5746 0.69282 0.0
C142 C 0.3247 0.44856 0.70612 0.0
C143 C 0.20392 0.48646 0.66115 0.0
C144 C 0.27759 0.53081 0.83565 0.0
O145 O 0.19275 0.53288 0.77957 0.0
O146 O 0.14349 0.55539 0.82465 0.0
O147 O 0.9789 0.52079 0.56582 0.0
Mn148 Mn -0.0074 0.49215 0.50643 0.0
O149 O 0.93187 0.57579 0.55659 0.0
Mn150 Mn 0.94829 0.58103 0.50065 0.0
O151 O 0.00866 0.46206 0.44802 0.0
O152 O 0.03595 0.45461 0.53622 0.0
Mn153 Mn 0.03466 0.40157 0.5194 0.0
O154 O 0.94581 0.44919 0.51711 0.0
O155 O 0.05022 0.40349 0.46317 0.0
O156 O 0.03887 0.53552 0.49523 0.0
O157 O 0.0029 0.59964 0.49204 0.0
O158 O 0.07589 0.40195 0.56003 0.0
O159 O 0.97951 0.3857 0.53045 0.0
C160 C 0.9187 0.54644 0.4524 0.0
C161 C 0.95286 0.55058 0.58052 0.0
C162 C 0.03394 0.42981 0.43701 0.0
C163 C 0.0662 0.44239 0.56106 0.0
C164 C 0.94567 0.40977 0.52648 0.0
C165 C 0.03743 0.57598 0.49069 0.0
O166 O 0.94813 0.53005 0.47666 0.0
O167 O 0.90838 0.58631 0.45932 0.0
O168 O 0.26421 0.20835 0.0553 0.0
Mn169 Mn 0.25268 0.24451 0.00096 0.0
O170 O 0.28956 0.14377 0.03241 0.0
Mn171 Mn 0.26147 0.14729 0.98209 0.0
O172 O 0.24155 0.28084 0.94715 0.0
O173 O 0.22939 0.29239 0.03777 0.0
Mn174 Mn 0.24901 0.34147 0.02484 0.0
O175 O 0.31546 0.26771 0.00544 0.0
O176 O 0.23456 0.34954 0.96884 0.0
O177 O 0.19056 0.22098 -0.00272 0.0
O178 O 0.20218 0.15022 0.98556 0.0
O179 O 0.2103 0.35166 0.06957 0.0
O180 O 0.30683 0.33399 0.03369 0.0
C181 C 0.29092 0.1773 0.92973 0.0
C182 C 0.2826 0.17146 0.06168 0.0
C183 C 0.23483 0.32069 0.94013 0.0
C184 C 0.20597 0.31121 0.06681 0.0
C185 C 0.33049 0.30201 0.02074 0.0
C186 C 0.17718 0.18332 -0.0084 0.0
O187 O 0.27455 0.19665 0.96278 0.0
O188 O 0.28919 0.13644 0.93077 0.0
O189 O 0.22999 0.93288 0.2826 0.0
Mn190 Mn 0.24597 0.98671 0.25007 0.0
O191 O 0.18868 0.95547 0.33815 0.0
Mn192 Mn 0.21059 0.00874 0.34056 0.0
O193 O 0.26194 0.0394 0.21556 0.0
O194 O 0.28219 0.94914 0.21245 0.0
Mn195 Mn 0.27274 0.95631 0.15891 0.0
O196 O 0.19276 0.98005 0.21325 0.0
O197 O 0.28446 0.01317 0.15151 0.0
O198 O 0.29812 -0.00688 0.28863 0.0
O199 O 0.26854 0.00824 0.35336 0.0
O200 O 0.31662 0.9138 0.16331 0.0
O201 O 0.21568 0.94354 0.15482 0.0
C202 C 0.18314 0.05529 0.29777 0.0
C203 C 0.20388 0.92612 0.3131 0.0
C204 C 0.27712 0.04392 0.17799 0.0
C205 C 0.31156 0.92055 0.20341 0.0
C206 C 0.18582 0.95888 0.17964 0.0
C207 C 0.30087 0.00019 0.32841 0.0
O208 O 0.2098 0.02439 0.28792 0.0
O209 O 0.17422 0.05781 0.3377 0.0
O210 O 0.54404 0.24933 0.718 0.0
Mn211 Mn 0.49039 0.24351 0.75774 0.0
O212 O 0.51543 0.26358 0.65444 0.0
Mn213 Mn 0.45758 0.26554 0.66969 0.0
O214 O 0.43616 0.23753 0.79498 0.0
O215 O 0.52486 0.20357 0.79281 0.0
Mn216 Mn 0.51414 0.2099 0.847 0.0
O217 O 0.50678 0.29441 0.79585 0.0
O218 O 0.4562 0.20217 0.85325 0.0
O219 O 0.4744 0.19061 0.72291 0.0
O220 O 0.43377 0.21331 0.66973 0.0
O221 O 0.55566 0.16543 0.84027 0.0
O222 O 0.52837 0.26494 0.8574 0.0
C223 C 0.42871 0.31397 0.71068 0.0
C224 C 0.54747 0.25534 0.67803 0.0
C225 C 0.42782 0.2193 0.82961 0.0
C226 C 0.55255 0.17338 0.80056 0.0
C227 C 0.52122 0.29675 0.83356 0.0
C228 C 0.44911 0.18372 0.69272 0.0
O229 O 0.45475 0.28344 0.7225 0.0
O230 O 0.4223 0.3145 0.67053 0.0
O231 O 0.03552 0.75952 0.7095 0.0
Mn232 Mn -0.00952 0.74743 0.75594 0.0
O233 O 0.00211 0.74816 0.64907 0.0
Mn234 Mn 0.94616 0.74893 0.67033 0.0
O235 O 0.94723 0.7349 0.80369 0.0
O236 O 0.03835 0.72209 0.7888 0.0
Mn237 Mn 0.03892 0.74055 0.84079 0.0
O238 O -0.0039 0.80799 0.78553 0.0
O239 O 0.98529 0.72808 0.86318 0.0
O240 O 0.98247 0.68634 0.72823 0.0
O241 O 0.92897 0.69574 0.68236 0.0
O242 O 0.08557 0.7016 0.83363 0.0
O243 O 0.04679 0.79735 0.83424 0.0
C244 C 0.92273 0.80445 0.70639 0.0
C245 C 0.03595 0.75403 0.66946 0.0
C246 C 0.94979 0.729 0.8436 0.0
C247 C 0.07254 0.69901 0.79532 0.0
C248 C 0.02033 0.82169 0.81473 0.0
C249 C 0.95365 0.67151 0.70415 0.0
O250 O 0.94194 0.77122 0.72179 0.0
O251 O 0.91418 0.79974 0.66696 0.0
O252 O 0.73205 0.43386 0.28013 0.0
Mn253 Mn 0.74752 0.49087 0.25111 0.0
O254 O 0.68288 0.45163 0.33115 0.0
Mn255 Mn 0.6977 0.50709 0.33562 0.0
O256 O 0.76156 0.54741 0.2212 0.0
O257 O 0.79468 0.45958 0.22019 0.0
Mn258 Mn 0.80102 0.4742 0.16777 0.0
O259 O 0.70568 0.47907 0.20201 0.0
O260 O 0.81169 0.5313 0.17075 0.0
O261 O 0.79065 0.50182 0.29904 0.0
O262 O 0.75143 0.51345 0.35891 0.0
O263 O 0.84397 0.43259 0.17803 0.0
O264 O 0.74864 0.46244 0.14516 0.0
C265 C 0.66869 0.54978 0.2908 0.0
C266 C 0.70409 0.42401 0.30828 0.0
C267 C 0.78739 0.55823 0.19159 0.0
C268 C 0.82734 0.43368 0.21573 0.0
C269 C 0.71151 0.46758 0.16299 0.0
C270 C 0.78748 0.50856 0.33908 0.0
O271 O 0.70075 0.52339 0.28287 0.0
O272 O 0.65566 0.55033 0.32981 0.0
O273 O 0.75209 0.70378 0.04688 0.0
Mn274 Mn 0.73949 0.74122 -0.00589 0.0
O275 O 0.76135 0.63608 0.02219 0.0
Mn276 Mn 0.75152 0.64614 0.96537 0.0
O277 O 0.72807 0.77661 0.93861 0.0
O278 O 0.71032 0.78551 0.03413 0.0
Mn279 Mn 0.71704 0.83425 0.00897 0.0
O280 O 0.79744 0.77049 0.00151 0.0
O281 O 0.68795 0.83368 0.95933 0.0
O282 O 0.67992 0.7136 0.98545 0.0
O283 O 0.69469 0.65195 0.94996 0.0
O284 O 0.6883 0.84892 0.0578 0.0
O285 O 0.77573 0.84005 0.00469 0.0
C286 C 0.79816 0.68048 0.93109 0.0
C287 C 0.76033 0.66375 0.05213 0.0
C288 C 0.70308 0.80907 0.93017 0.0
C289 C 0.69117 0.80838 0.06423 0.0
C290 C 0.8051 0.81014 0.00327 0.0
C291 C 0.66821 0.68141 0.9639 0.0
O292 O 0.77005 0.69684 0.95752 0.0
O293 O 0.79588 0.64005 0.92531 0.0
O294 O 0.47186 0.02726 0.56161 0.0
Mn295 Mn 0.48949 -0.00504 0.50557 0.0
O296 O 0.42501 0.08061 0.54598 0.0
Mn297 Mn 0.44531 0.08271 0.49114 0.0
O298 O 0.50801 0.96181 0.45024 0.0
O299 O 0.53057 0.95943 0.54019 0.0
Mn300 Mn 0.53332 0.90624 0.52307 0.0
O301 O 0.44329 0.95182 0.51774 0.0
O302 O 0.55444 0.90851 0.4686 0.0
O303 O 0.53587 0.03821 0.493 0.0
O304 O 0.50003 0.10119 0.48301 0.0
O305 O 0.56855 0.90783 0.56862 0.0
O306 O 0.47819 0.88859 0.52962 0.0
C307 C 0.42079 0.04472 0.44278 0.0
C308 C 0.44438 0.05728 0.57269 0.0
C309 C 0.53606 0.93156 0.44094 0.0
C310 C 0.5566 0.94782 0.56938 0.0
C311 C 0.44381 0.9121 0.52658 0.0
C312 C 0.5348 0.07797 0.484 0.0
O313 O 0.4474 0.03031 0.47077 0.0
O314 O 0.40882 0.0846 0.44694 0.0
O315 O 0.44501 0.51464 0.95758 0.0
Mn316 Mn 0.49431 0.50044 -0.00084 0.0
O317 O 0.3843 0.52009 -0.00224 0.0
Mn318 Mn 0.40791 0.50279 0.04832 0.0
O319 O 0.54275 0.48694 0.04123 0.0
O320 O 0.53132 0.47016 0.95148 0.0
Mn321 Mn 0.57379 0.50428 0.95093 0.0
O322 O 0.51684 0.56309 0.98969 0.0
O323 O 0.60063 0.50241 0.00279 0.0
O324 O 0.47136 0.43913 0.00769 0.0
O325 O 0.41697 0.44475 0.05491 0.0
O326 O 0.59148 0.4664 0.91143 0.0
O327 O 0.5522 0.55385 0.92981 0.0
C328 C 0.44384 0.54788 0.08058 0.0
C329 C 0.40435 0.52278 0.96242 0.0
C330 C 0.58305 0.49143 0.03731 0.0
C331 C 0.55498 0.45116 0.92128 0.0
C332 C 0.53422 0.5788 0.95656 0.0
C333 C 0.4433 0.42236 0.03152 0.0
O334 O 0.45806 0.5255 0.04812 0.0
O335 O 0.40581 0.53965 0.09383 0.0
C336 C 0.97033 0.08818 0.1242 0.0
C337 C 0.94204 0.09083 0.09032 0.0
C338 C 0.97764 0.12451 0.14897 0.0
C339 C 0.9563 0.16414 0.14084 0.0
H340 H 0.9856 0.0578 0.13247 0.0
H341 H -4e-05 0.12156 0.17449 0.0
S342 S 0.87873 0.18599 0.05472 0.0
N343 N 0.89382 0.13529 0.0489 0.0
N344 N 0.90498 0.20257 0.09575 0.0
C345 C 0.92805 0.16649 0.10647 0.0
C346 C 0.9217 0.13011 0.08111 0.0
C347 C 0.88459 0.22138 0.42295 0.0
C348 C 0.84395 0.21598 0.40685 0.0
C349 C 0.91964 0.22773 0.39625 0.0
C350 C 0.91575 0.2292 0.35199 0.0
H351 H 0.89015 0.21731 0.45632 0.0
H352 H 0.95048 0.23008 0.4108 0.0
S353 S 0.81424 0.22151 0.29452 0.0
N354 N 0.8003 0.21538 0.34454 0.0
N355 N 0.86622 0.22887 0.29381 0.0
C356 C 0.87437 0.22705 0.33563 0.0
C357 C 0.83852 0.21996 0.36316 0.0
C358 C 0.75498 0.13315 0.66235 0.0
C359 C 0.79197 0.10698 0.66985 0.0
C360 C 0.75482 0.16273 0.62965 0.0
C361 C 0.79161 0.16643 0.60389 0.0
H362 H 0.72466 0.12659 0.67738 0.0
H363 H 0.72445 0.17821 0.62099 0.0
S364 S 0.89946 0.11512 0.62021 0.0
N365 N 0.86855 0.09458 0.65656 0.0
N366 N 0.86809 0.14959 0.59475 0.0
C367 C 0.83032 0.14593 0.61611 0.0
C368 C 0.83057 0.11632 0.64947 0.0
C369 C 0.8999 -0.0022 0.87518 0.0
C370 C 0.90018 0.03249 0.90342 0.0
C371 C 0.87098 -0.00158 0.84205 0.0
C372 C 0.84246 0.03395 0.83683 0.0
H373 H 0.91824 0.96847 0.88164 0.0
H374 H 0.86717 0.96931 0.8243 0.0
S375 S 0.84216 0.1372 0.89381 0.0
N376 N 0.87791 0.1062 0.91816 0.0
N377 N 0.82443 0.1081 0.85489 0.0
C378 C 0.84834 0.07121 0.86016 0.0
C379 C 0.87704 0.07026 0.89413 0.0
C380 C 0.08799 -0.00112 0.1255 0.0
C381 C 0.07747 0.96182 0.10394 0.0
C382 C 0.12013 -0.00287 0.15555 0.0
C383 C 0.14202 0.95826 0.16452 0.0
H384 H 0.07542 0.02976 0.11533 0.0
H385 H 0.13138 0.0267 0.16767 0.0
S386 S 0.11568 0.85159 0.12675 0.0
N387 N 0.08348 0.88483 0.10064 0.0
N388 N 0.1438 0.88138 0.15781 0.0
C389 C 0.12683 0.9206 0.14818 0.0
C390 C 0.09435 0.92243 0.11752 0.0
C391 C 0.00273 0.40437 0.37145 0.0
C392 C 0.03921 0.41642 0.39257 0.0
C393 C 0.00615 0.37235 0.34025 0.0
C394 C 0.04621 0.35259 0.3282 0.0
H395 H 0.97101 0.41529 0.38299 0.0
H396 H 0.97688 0.35958 0.32932 0.0
S397 S 0.15185 0.37902 0.36863 0.0
N398 N 0.11692 0.41076 0.39552 0.0
N399 N 0.1234 0.35149 0.33583 0.0
C400 C 0.08323 0.36809 0.34559 0.0
C401 C 0.07972 0.4002 0.37773 0.0
C402 C 0.65335 0.28829 0.63597 0.0
C403 C 0.65503 0.2683 0.5958 0.0
C404 C 0.6212 0.28008 0.66595 0.0
C405 C 0.58978 0.25175 0.65633 0.0
H406 H 0.67412 0.31381 0.64253 0.0
H407 H 0.61823 0.29929 0.69456 0.0
S408 S 0.58573 0.18419 0.56052 0.0
N409 N 0.62691 0.21367 0.55151 0.0
N410 N 0.56688 0.19787 0.608 0.0
C411 C 0.5947 0.22747 0.61889 0.0
C412 C 0.62736 0.23577 0.58847 0.0
C413 C 0.66702 0.88568 0.84839 0.0
C414 C 0.70622 0.8941 0.82854 0.0
C415 C 0.66434 0.85245 0.87702 0.0
C416 C 0.70085 0.82658 0.88706 0.0
H417 H 0.63927 0.90755 0.84505 0.0
H418 H 0.63469 0.85016 0.895 0.0
S419 S 0.80824 0.82875 0.83575 0.0
N420 N 0.78041 0.86939 0.81544 0.0
N421 N 0.77492 0.8058 0.86813 0.0
C422 C 0.73846 0.83055 0.86266 0.0
C423 C 0.74136 0.86485 0.83378 0.0
C424 C 0.173 0.2896 0.13411 0.0
C425 C 0.17168 0.2918 0.08994 0.0
C426 C 0.13561 0.28386 0.15812 0.0
C427 C 0.09602 0.28163 0.13835 0.0
H428 H 0.2025 0.29485 0.15022 0.0
H429 H 0.13719 0.2842 0.19221 0.0
S430 S 0.0772 0.28129 0.02313 0.0
N431 N 0.12896 0.28795 0.02727 0.0
N432 N 0.05868 0.27688 0.0719 0.0
C433 C 0.09515 0.28077 0.09397 0.0
C434 C 0.1331 0.28605 0.06979 0.0
C435 C 0.66312 0.36596 0.33774 0.0
C436 C 0.70261 0.38001 0.32295 0.0
C437 C 0.66159 0.33528 0.36919 0.0
C438 C 0.69953 0.31717 0.38605 0.0
H439 H 0.63335 0.38237 0.32865 0.0
H440 H 0.6308 0.32901 0.38341 0.0
S441 S 0.81058 0.33875 0.35382 0.0
N442 N 0.78002 0.3706 0.32481 0.0
N443 N 0.7773 0.311 0.38173 0.0
C444 C 0.73892 0.32659 0.36733 0.0
C445 C 0.74046 0.35859 0.33616 0.0
C446 C 0.60697 0.00186 0.58381 0.0
C447 C 0.57562 0.97604 0.59953 0.0
C448 C 0.64317 0.00918 0.60736 0.0
C449 C 0.64826 -0.00846 0.64758 0.0
H450 H 0.60654 0.0113 0.55126 0.0
H451 H 0.66886 0.02574 0.59265 0.0
S452 S 0.56821 0.93264 0.70706 0.0
N453 N 0.54684 0.94072 0.66044 0.0
N454 N 0.6144 0.95564 0.7057 0.0
C455 C 0.61366 0.97181 0.66622 0.0
C456 C 0.57716 0.96389 0.64188 0.0
C457 C 0.03475 0.93151 0.8562 0.0
C458 C 0.02609 0.92574 0.89956 0.0
C459 C 0.02675 0.89991 0.8259 0.0
C460 C 0.00915 0.8619 0.83812 0.0
H461 H 0.05168 0.95878 0.84616 0.0
H462 H 0.0385 0.90335 0.79383 0.0
S463 S 0.9828 0.83023 0.94702 0.0
N464 N 0.00074 0.87816 0.95252 0.0
N465 N 0.98149 0.82123 0.8958 0.0
C466 C -0.00362 0.85789 0.88072 0.0
C467 C 0.00617 0.88904 0.91156 0.0
C468 C 0.08705 0.12826 0.94895 0.0
C469 C 0.06845 0.11305 0.98613 0.0
C470 C 0.11747 0.15924 0.95039 0.0
C471 C 0.13106 0.17542 0.98913 0.0
H472 H 0.08204 0.11247 0.91904 0.0
H473 H 0.13491 0.16584 0.92154 0.0
S474 S 0.08254 0.15521 0.09404 0.0
N475 N 0.0578 0.1239 0.06154 0.0
N476 N 0.11651 0.18087 0.06455 0.0
C477 C 0.1078 0.16535 0.02575 0.0
C478 C 0.07606 0.13434 0.02416 0.0
C479 C 0.65903 0.61797 0.25556 0.0
C480 C 0.64591 0.57642 0.26 0.0
C481 C 0.62855 0.65253 0.25663 0.0
C482 C 0.5847 0.64593 0.26249 0.0
H483 H 0.69255 0.62427 0.25869 0.0
H484 H 0.63982 0.68422 0.26023 0.0
S485 S 0.53472 0.5426 0.25907 0.0
N486 N 0.58682 0.53019 0.25631 0.0
N487 N 0.52959 0.59503 0.26081 0.0
C488 C 0.57137 0.60457 0.2577 0.0
C489 C 0.60229 0.56957 0.2555 0.0
C490 C 0.36282 0.82841 0.51901 0.0
C491 C 0.32354 0.85197 0.52502 0.0
C492 C 0.4017 0.84785 0.52136 0.0
C493 C 0.40284 0.89153 0.53047 0.0
H494 H 0.36372 0.79486 0.51134 0.0
H495 H 0.43095 0.82868 0.51429 0.0
S496 S 0.3098 0.96598 0.55741 0.0
N497 N 0.2886 0.92051 0.54641 0.0
N498 N 0.36212 0.95658 0.55175 0.0
C499 C 0.3642 0.91475 0.5404 0.0
C500 C 0.32442 0.89509 0.53753 0.0
C501 C 0.0738 0.63145 0.75621 0.0
C502 C 0.09403 0.669 0.76504 0.0
C503 C 0.09792 0.59265 0.75258 0.0
C504 C 0.14242 0.59079 0.7588 0.0
H505 H 0.03927 0.63077 0.75931 0.0
H506 H 0.0809 0.56366 0.75259 0.0
S507 S 0.2106 0.68224 0.76886 0.0
N508 N 0.16114 0.70367 0.76771 0.0
N509 N 0.20633 0.6305 0.76353 0.0
C510 C 0.16332 0.6289 0.75902 0.0
C511 C 0.13887 0.66838 0.76177 0.0
C512 C 0.83552 0.37259 0.55227 0.0
C513 C 0.82884 0.34567 0.5175 0.0
C514 C 0.87354 0.3939 0.55543 0.0
C515 C 0.90539 0.38893 0.52369 0.0
H516 H 0.81136 0.37691 0.57721 0.0
H517 H 0.87818 0.41399 0.58274 0.0
S518 S 0.90045 0.32834 0.4236 0.0
N519 N 0.8554 0.31889 0.44912 0.0
N520 N 0.92662 0.3593 0.45504 0.0
C521 C 0.89851 0.3634 0.48834 0.0
C522 C 0.86021 0.34156 0.48524 0.0
C523 C 0.38061 0.91706 0.23779 0.0
C524 C 0.34051 0.89984 0.23348 0.0
C525 C 0.41789 0.89025 0.23926 0.0
C526 C 0.4155 0.84594 0.23637 0.0
H527 H 0.38392 0.95067 0.23284 0.0
H528 H 0.44858 0.90421 0.23525 0.0
S529 S 0.31701 0.78681 0.24272 0.0
N530 N 0.29962 0.83717 0.23979 0.0
N531 N 0.36991 0.7867 0.24303 0.0
C532 C 0.37535 0.82908 0.242 0.0
C533 C 0.33744 0.8563 0.24019 0.0
C534 C 0.39191 0.42187 0.73712 0.0
C535 C 0.34752 0.418 0.7335 0.0
C536 C 0.42018 0.38587 0.74002 0.0
C537 C 0.40476 0.34502 0.73841 0.0
H538 H 0.40538 0.45229 0.73176 0.0
H539 H 0.45428 0.38989 0.73639 0.0
S540 S 0.29095 0.3185 0.74119 0.0
N541 N 0.28909 0.3708 0.73757 0.0
N542 N 0.3423 0.3031 0.74361 0.0
C543 C 0.36029 0.34128 0.7426 0.0
C544 C 0.33147 0.3779 0.73947 0.0
C545 C 0.11247 0.74843 0.57554 0.0
C546 C 0.14538 0.77322 0.58899 0.0
C547 C 0.07874 0.73952 0.60306 0.0
C548 C 0.07657 0.75577 0.64479 0.0
H549 H 0.1103 0.73983 0.54249 0.0
H550 H 0.0527 0.72232 0.59054 0.0
S551 S 0.15985 0.816 0.6967 0.0
N552 N 0.17759 0.80887 0.64753 0.0
N553 N 0.1142 0.79218 0.6998 0.0
C554 C 0.11191 0.77665 0.65979 0.0
C555 C 0.1463 0.78554 0.63161 0.0
C556 C 0.23341 0.85502 0.33309 0.0
C557 C 0.19731 0.88234 0.32545 0.0
C558 C 0.23085 0.82238 0.3624 0.0
C559 C 0.19224 0.817 0.38478 0.0
H560 H 0.26478 0.86245 0.32107 0.0
H561 H 0.26042 0.80602 0.37209 0.0
S562 S 0.08625 0.8705 0.36428 0.0
N563 N 0.12015 0.89464 0.33343 0.0
N564 N 0.11525 0.83312 0.38849 0.0
C565 C 0.15463 0.83867 0.37111 0.0
C566 C 0.15726 0.87185 0.34154 0.0
C567 C -0.00585 0.60826 0.67283 0.0
C568 C 0.95558 0.62626 0.69083 0.0
C569 C -0.0063 0.57721 0.64057 0.0
C570 C 0.95463 0.56382 0.62525 0.0
H571 H 0.02421 0.62228 0.67924 0.0
H572 H 0.02352 0.56816 0.62384 0.0
S573 S 0.84637 0.59209 0.67028 0.0
N574 N 0.87852 0.62101 0.69789 0.0
N575 N 0.8777 0.56371 0.63656 0.0
C576 C 0.91674 0.57666 0.64747 0.0
C577 C 0.91724 0.60761 0.68062 0.0
C578 C 0.36229 0.74865 0.41497 0.0
C579 C 0.33135 0.72069 0.40304 0.0
C580 C 0.39656 0.75686 0.38753 0.0
C581 C 0.40086 0.73755 0.34713 0.0
H582 H 0.36298 0.76008 0.44719 0.0
H583 H 0.42194 0.77542 0.39944 0.0
S584 S 0.32273 0.66954 0.29786 0.0
N585 N 0.30293 0.67949 0.34595 0.0
N586 N 0.36723 0.69525 0.29416 0.0
C587 C 0.36712 0.71411 0.33291 0.0
C588 C 0.33236 0.70555 0.36103 0.0
C589 C 0.32142 0.09582 0.14206 0.0
C590 C 0.28251 0.08689 0.16204 0.0
C591 C 0.32336 0.12945 0.11383 0.0
C592 C 0.28634 0.15486 0.10455 0.0
H593 H 0.34949 0.07432 0.14522 0.0
H594 H 0.35267 0.13238 0.09548 0.0
S595 S 0.17818 0.1474 0.15237 0.0
N596 N 0.20739 0.1084 0.17381 0.0
N597 N 0.21126 0.17229 0.12139 0.0
C598 C 0.24866 0.14947 0.12822 0.0
C599 C 0.24659 0.11499 0.15671 0.0
C600 C 0.83376 0.707 0.86752 0.0
C601 C 0.83274 0.7031 0.91144 0.0
C602 C 0.87128 0.71717 0.84608 0.0
C603 C 0.9095 0.72277 0.86782 0.0
H604 H 0.80589 0.70014 0.84941 0.0
H605 H 0.87065 0.71871 0.812 0.0
S606 S 0.92164 0.7194 0.98411 0.0
N607 N 0.87136 0.70822 0.97663 0.0
N608 N 0.94233 0.72738 0.93675 0.0
C609 C 0.90798 0.72125 0.91228 0.0
C610 C 0.86947 0.71131 0.93401 0.0
C611 C 0.24323 0.63812 0.66437 0.0
C612 C 0.28206 0.61885 0.67826 0.0
C613 C 0.24297 0.667 0.63105 0.0
C614 C 0.28148 0.67661 0.61046 0.0
H615 H 0.21292 0.62653 0.67495 0.0
H616 H 0.21241 0.67716 0.61781 0.0
S617 S 0.39141 0.64394 0.64294 0.0
N618 N 0.3598 0.61939 0.67581 0.0
N619 N 0.35917 0.67205 0.61193 0.0
C620 C 0.32035 0.66264 0.62826 0.0
C621 C 0.32064 0.63424 0.66276 0.0
C622 C 0.37106 0.03115 0.33873 0.0
C623 C 0.34308 -0.00077 0.34773 0.0
C624 C 0.40184 0.04165 0.368 0.0
C625 C 0.40522 0.02058 0.40683 0.0
H626 H 0.366 0.05113 0.31156 0.0
H627 H 0.41977 0.0695 0.36229 0.0
S628 S 0.34642 0.92737 0.43854 0.0
N629 N 0.32634 0.94082 0.39267 0.0
N630 N 0.38355 0.9612 0.44842 0.0
C631 C 0.38152 0.98481 0.41304 0.0
C632 C 0.35043 0.97401 0.38314 0.0
C633 C 0.87063 0.82709 0.04136 0.0
C634 C 0.84925 0.82402 0.00296 0.0
C635 C 0.90113 0.85768 0.04726 0.0
C636 C 0.91133 0.88552 0.01473 0.0
H637 H 0.86018 0.80939 0.06835 0.0
H638 H 0.91345 0.86243 0.07853 0.0
S639 S 0.86728 0.88711 0.90741 0.0
N640 N 0.8434 0.84831 0.93112 0.0
N641 N 0.90006 0.90581 0.94225 0.0
C642 C 0.89309 0.87981 0.97521 0.0
C643 C 0.86237 0.8488 0.96923 0.0
C644 C 0.65369 0.09457 0.47883 0.0
C645 C 0.6551 0.13806 0.4701 0.0
C646 C 0.61481 0.07502 0.48106 0.0
C647 C 0.57567 0.09829 0.4755 0.0
H648 H 0.68274 0.07562 0.48549 0.0
H649 H 0.61559 0.04158 0.48811 0.0
S650 S 0.56309 0.21113 0.44258 0.0
N651 N 0.61517 0.20228 0.44875 0.0
N652 N 0.54149 0.16595 0.45376 0.0
C653 C 0.57696 0.14109 0.46308 0.0
C654 C 0.61682 0.1609 0.46038 0.0
C655 C 0.83597 0.36556 0.24915 0.0
C656 C 0.84659 0.40812 0.24897 0.0
C657 C 0.86823 0.33298 0.25036 0.0
C658 C 0.91138 0.34291 0.24777 0.0
H659 H 0.80394 0.35733 0.241 0.0
H660 H 0.85952 0.30096 0.24321 0.0
S661 S 0.95347 0.44911 0.2627 0.0
N662 N 0.90087 0.45796 0.26238 0.0
N663 N 0.96232 0.39711 0.25765 0.0
C664 C 0.92144 0.38462 0.25737 0.0
C665 C 0.88833 0.4175 0.25932 0.0
C666 C 0.08883 0.62458 0.5193 0.0
C667 C 0.07756 0.5971 0.48676 0.0
C668 C 0.12639 0.64633 0.51623 0.0
C669 C 0.15327 0.64183 0.48027 0.0
H670 H 0.06877 0.62877 0.54753 0.0
H671 H 0.13516 0.66578 0.54269 0.0
S672 S 0.13631 0.57529 0.38558 0.0
N673 N 0.09493 0.56715 0.41718 0.0
N674 N 0.16579 0.60872 0.41107 0.0
C675 C 0.14218 0.61462 0.44736 0.0
C676 C 0.10405 0.59214 0.45065 0.0
C677 C 0.60791 0.07694 0.75924 0.0
C678 C 0.65009 0.08899 0.76416 0.0
C679 C 0.57345 0.10737 0.76256 0.0
C680 C 0.5807 0.15041 0.76944 0.0
H681 H 0.60106 0.04367 0.76063 0.0
H682 H 0.54134 0.09645 0.76627 0.0
S683 S 0.68567 0.1987 0.76786 0.0
N684 N 0.69764 0.14702 0.76414 0.0
N685 N 0.63274 0.20449 0.76866 0.0
C686 C 0.62268 0.1633 0.76468 0.0
C687 C 0.65772 0.13229 0.76215 0.0
C688 C 0.80889 0.62253 0.153 0.0
C689 C 0.77634 0.5975 0.16867 0.0
C690 C 0.80234 0.64785 0.11716 0.0
C691 C 0.7638 0.64711 0.0951 0.0
H692 H 0.84048 0.61994 0.16649 0.0
H693 H 0.8287 0.66499 0.10459 0.0
S694 S 0.67008 0.58554 0.1221 0.0
N695 N 0.70363 0.57592 0.16068 0.0
N696 N 0.69421 0.61791 0.09024 0.0
C697 C 0.73106 0.62311 0.11111 0.0
C698 C 0.73651 0.59993 0.14891 0.0
C699 C 0.86246 0.49856 0.43172 0.0
C700 C 0.89609 0.52367 0.4195 0.0
C701 C 0.82837 0.49208 0.40455 0.0
C702 C 0.82708 0.51002 0.36407 0.0
H703 H 0.86037 0.48724 0.46377 0.0
H704 H 0.80181 0.47457 0.41609 0.0
S705 S 0.91086 0.57303 0.3152 0.0
N706 N 0.92836 0.5629 0.36302 0.0
N707 N 0.86518 0.54952 0.31147 0.0
C708 C 0.86267 0.53158 0.35007 0.0
C709 C 0.89695 0.53873 0.37798 0.0
C710 C 0.16595 0.48924 0.59243 0.0
C711 C 0.16408 0.48446 0.63655 0.0
C712 C 0.13043 0.48229 0.56761 0.0
C713 C 0.09191 0.47022 0.58601 0.0
H714 H 0.19569 0.49628 0.57655 0.0
H715 H 0.1345 0.48222 0.53359 0.0
S716 S 0.06668 0.46238 0.69998 0.0
N717 N 0.1175 0.47418 0.69787 0.0
N718 N 0.05128 0.46005 0.65055 0.0
C719 C 0.08796 0.46982 0.63004 0.0
C720 C 0.12396 0.47718 0.65554 0.0
C721 C 0.64143 0.81658 0.17211 0.0
C722 C 0.61787 0.7803 0.17337 0.0
C723 C 0.67048 0.82219 0.13886 0.0
C724 C 0.67527 0.79259 0.10503 0.0
H725 H 0.63394 0.84266 0.19414 0.0
H726 H 0.68558 0.85222 0.13735 0.0
S727 S 0.62681 0.68851 0.10101 0.0
N728 N 0.60744 0.71065 0.14501 0.0
N729 N 0.6595 0.72213 0.07979 0.0
C730 C 0.65626 0.75359 0.1094 0.0
C731 C 0.6281 0.74729 0.14451 0.0
C732 C 0.63525 0.48854 0.14435 0.0
C733 C 0.67419 0.46499 0.135 0.0
C734 C 0.60423 0.49555 0.11323 0.0
C735 C 0.6115 0.47928 0.07204 0.0
H736 H 0.63006 0.50424 0.17476 0.0
H737 H 0.57583 0.51588 0.12067 0.0
S738 S 0.70254 0.40718 0.03437 0.0
N739 N 0.71384 0.41882 0.08363 0.0
N740 N 0.65627 0.43304 0.02549 0.0
C741 C 0.64812 0.45252 0.06359 0.0
C742 C 0.67922 0.44494 0.09506 0.0
C743 C 0.42092 0.36245 0.98652 0.0
C744 C 0.434 0.37694 0.02616 0.0
C745 C 0.39269 0.32929 0.98335 0.0
C746 C 0.37675 0.30973 0.01967 0.0
H747 H 0.42763 0.38043 0.95852 0.0
H748 H 0.37828 0.32366 0.95317 0.0
S749 S 0.41193 0.32741 0.12893 0.0
N750 N 0.43693 0.36265 0.101 0.0
N751 N 0.38449 0.30033 0.09488 0.0
C752 C 0.39579 0.31893 0.05824 0.0
C753 C 0.42404 0.35284 0.06159 0.0
C754 C 0.14592 0.15906 0.25579 0.0
C755 C 0.10177 0.15281 0.25364 0.0
C756 C 0.17518 0.12507 0.2644 0.0
C757 C 0.16136 0.08376 0.26791 0.0
H758 H 0.15665 0.191 0.25902 0.0
H759 H 0.20745 0.13187 0.27313 0.0
S760 S 0.05244 0.04924 0.24798 0.0
N761 N 0.0479 0.10151 0.2441 0.0
N762 N 0.10347 0.03702 0.25741 0.0
C763 C 0.11929 0.07623 0.25666 0.0
C764 C 0.08931 0.11104 0.24923 0.0
C765 C 0.19069 0.3418 0.87871 0.0
C766 C 0.23125 0.33554 0.89655 0.0
C767 C 0.18431 0.36967 0.84493 0.0
C768 C 0.2183 0.39213 0.82817 0.0
H769 H 0.16308 0.32831 0.89344 0.0
H770 H 0.15186 0.37697 0.83475 0.0
S771 S 0.3314 0.38326 0.86204 0.0
N772 N 0.30648 0.35042 0.89289 0.0
N773 N 0.29456 0.40345 0.83028 0.0
C774 C 0.25975 0.38283 0.84333 0.0
C775 C 0.26616 0.35443 0.87752 0.0
C776 C 0.33462 0.23491 0.90331 0.0
C777 C 0.31355 0.19769 0.89522 0.0
C778 C 0.36982 0.245 0.87836 0.0
C779 C 0.38354 0.21876 0.84411 0.0
H780 H 0.32711 0.25377 0.93128 0.0
H781 H 0.38865 0.27107 0.88811 0.0
S782 S 0.33033 0.12629 0.80165 0.0
N783 N 0.30222 0.14066 0.84475 0.0
N784 N 0.36837 0.16033 0.7974 0.0
C785 C 0.3586 0.18571 0.83164 0.0
C786 C 0.32318 0.17508 0.85732 0.0
C787 C 0.33946 0.55802 0.93163 0.0
C788 C 0.37808 0.53335 0.92553 0.0
C789 C 0.30859 0.56023 0.90048 0.0
C790 C 0.31501 0.53753 0.86216 0.0
H791 H 0.33195 0.57385 0.96165 0.0
H792 H 0.27836 0.57773 0.90761 0.0
S793 S 0.41421 0.47479 0.828 0.0
N794 N 0.424 0.49129 0.87622 0.0
N795 N 0.36551 0.49451 0.81754 0.0
C796 C 0.35533 0.51637 0.85394 0.0
C797 C 0.38702 0.5145 0.88574 0.0
C798 C 0.59501 0.67007 -0.00651 0.0
C799 C 0.62218 0.67406 0.95816 0.0
C800 C 0.56041 0.64341 -0.00746 0.0
C801 C 0.5504 0.62233 0.95504 0.0
H802 H 0.60362 0.6834 0.02295 0.0
H803 H 0.54527 0.63539 0.02214 0.0
S804 S 0.60153 0.63687 0.8497 0.0
N805 N 0.63081 0.66328 0.8826 0.0
N806 N 0.56213 0.61896 0.87868 0.0
C807 C 0.57137 0.6346 0.91744 0.0
C808 C 0.60844 0.65882 0.91935 0.0
C809 C 0.90801 0.87715 0.73338 0.0
C810 C 0.89534 0.83524 0.73111 0.0
C811 C 0.87775 0.91145 0.72917 0.0
C812 C 0.83442 0.90444 0.72215 0.0
H813 H 0.94178 0.88328 0.73211 0.0
H814 H 0.88926 0.94298 0.72544 0.0
S815 S 0.78449 0.80101 0.72345 0.0
N816 N 0.83596 0.78906 0.73074 0.0
N817 N 0.77952 0.85331 0.7202 0.0
C818 C 0.82077 0.86319 0.72607 0.0
C819 C 0.85129 0.82853 0.73173 0.0
C820 C 0.40673 0.12757 0.66198 0.0
C821 C 0.44607 0.14018 0.67689 0.0
C822 C 0.40548 0.09457 0.6322 0.0
C823 C 0.44361 0.07384 0.61622 0.0
H824 H 0.37728 0.14601 0.67015 0.0
H825 H 0.3751 0.08871 0.618 0.0
S826 S 0.55408 0.09117 0.6503 0.0
N827 N 0.52327 0.12603 0.67807 0.0
N828 N 0.52104 0.06403 0.62203 0.0
C829 C 0.48251 0.08239 0.63517 0.0
C830 C 0.48374 0.1159 0.66554 0.0
C831 C 0.49641 0.36792 0.86233 0.0
C832 C 0.53016 0.33786 0.85193 0.0
C833 C 0.50374 0.40392 0.88715 0.0
C834 C 0.54503 0.41084 0.90132 0.0
H835 H 0.46411 0.36288 0.85238 0.0
H836 H 0.47736 0.42663 0.8947 0.0
S837 S 0.64286 0.33926 0.88533 0.0
N838 N 0.60519 0.31568 0.85973 0.0
N839 N 0.61928 0.38333 0.9056 0.0
C840 C 0.57863 0.38037 0.89172 0.0
C841 C 0.57112 0.34387 0.86705 0.0
C842 C 0.58075 0.86193 0.35426 0.0
C843 C 0.54303 0.84604 0.33896 0.0
C844 C 0.5787 0.89593 0.38316 0.0
C845 C 0.53887 0.91401 0.39803 0.0
H846 H 0.61161 0.84599 0.3464 0.0
H847 H 0.60809 0.90491 0.39749 0.0
S848 S 0.43132 0.88502 0.36468 0.0
N849 N 0.46524 0.85279 0.33738 0.0
N850 N 0.4613 0.91595 0.39249 0.0
C851 C 0.50124 0.90112 0.37955 0.0
C852 C 0.50336 0.86691 0.3499 0.0
C853 C 0.47299 0.58526 0.14185 0.0
C854 C 0.46444 0.58446 0.09856 0.0
C855 C 0.48021 0.62348 0.16303 0.0
C856 C 0.47856 0.66249 0.14188 0.0
H857 H 0.472 0.5564 0.15991 0.0
H858 H 0.48544 0.62259 0.19655 0.0
S859 S 0.45459 0.67694 0.02821 0.0
N860 N 0.45318 0.6253 0.03534 0.0
N861 N 0.46715 0.6972 0.07426 0.0
C862 C 0.47079 0.66169 0.09805 0.0
C863 C 0.46365 0.62266 0.07664 0.0
loop_
_geom_bond_atom_site_label_1
_geom_bond_atom_site_label_2
_geom_bond_distance
_geom_bond_site_symmetry_2
_ccdc_geom_bond_type
O0 Mn1 2.163 1_656 S
O0 C14 1.244 . S
Mn1 O0 2.163 1_454 S
Mn1 O4 2.160 1_545 S
Mn1 O5 2.221 1_544 S
Mn1 O7 2.163 1_554 S
Mn1 O9 2.160 1_445 S
Mn1 O19 2.221 1_455 S
O2 Mn3 2.087 1_556 S
O2 C14 1.256 . S
Mn3 O2 2.087 1_554 S
Mn3 O10 2.089 1_545 S
Mn3 O19 2.290 . S
Mn3 O20 2.251 . S
O4 Mn1 2.160 1_565 S
O4 C15 1.239 . S
O5 Mn1 2.221 1_566 S
O5 Mn6 2.290 . S
O5 C16 1.278 . S
Mn6 O5 2.290 . S
Mn6 O8 2.089 1_556 S
Mn6 O11 2.251 . S
Mn6 O12 2.087 1_565 S
O7 Mn1 2.163 1_556 S
O7 C17 1.244 . S
O8 Mn6 2.089 1_554 S
O8 C15 1.256 . S
O9 Mn1 2.160 1_665 S
O9 C18 1.239 . S
O10 Mn3 2.089 1_565 S
O10 C18 1.256 . S
O11 Mn6 2.251 . S
O11 C16 1.241 . S
O12 Mn6 2.087 1_545 S
O12 C17 1.256 . S
C13 O19 1.278 . S
C13 O20 1.241 . S
C14 O0 1.244 . S
C14 O2 1.256 . S
C15 O4 1.239 . S
C15 O8 1.256 . S
C16 O5 1.278 . S
C16 O11 1.241 . S
C17 O7 1.244 . S
C17 O12 1.256 . S
C18 O9 1.239 . S
C18 O10 1.256 . S
O19 Mn1 2.221 1_655 S
O19 Mn3 2.290 . S
O19 C13 1.278 . S
O20 Mn3 2.251 . S
O20 C13 1.241 . S
O21 Mn22 2.163 . S
O21 C35 1.244 . S
Mn22 O21 2.163 . S
Mn22 O25 2.160 1_455 S
Mn22 O26 2.221 . S
Mn22 O28 2.163 . S
Mn22 O30 2.160 1_455 S
Mn22 O40 2.221 1_455 S
O23 Mn24 2.087 1_455 S
O23 C35 1.256 . S
Mn24 O23 2.087 1_655 S
Mn24 O31 2.089 . S
Mn24 O40 2.290 . S
Mn24 O41 2.251 . S
O25 Mn22 2.160 1_655 S
O25 C36 1.239 . S
O26 Mn22 2.221 . S
O26 Mn27 2.290 . S
O26 C37 1.278 . S
Mn27 O26 2.290 . S
Mn27 O29 2.089 1_455 S
Mn27 O32 2.251 . S
Mn27 O33 2.087 . S
O28 Mn22 2.163 . S
O28 C38 1.244 . S
O29 Mn27 2.089 1_655 S
O29 C36 1.256 . S
O30 Mn22 2.160 1_655 S
O30 C39 1.239 . S
O31 Mn24 2.089 . S
O31 C39 1.256 . S
O32 Mn27 2.251 . S
O32 C37 1.241 . S
O33 Mn27 2.087 . S
O33 C38 1.256 . S
C34 O40 1.278 . S
C34 O41 1.241 . S
C35 O21 1.244 . S
C35 O23 1.256 . S
C36 O25 1.239 . S
C36 O29 1.256 . S
C37 O26 1.278 . S
C37 O32 1.241 . S
C38 O28 1.244 . S
C38 O33 1.256 . S
C39 O30 1.239 . S
C39 O31 1.256 . S
O40 Mn22 2.221 1_655 S
O40 Mn24 2.290 . S
O40 C34 1.278 . S
O41 Mn24 2.251 . S
O41 C34 1.241 . S
O42 Mn43 2.163 . S
O42 C56 1.244 . S
Mn43 O42 2.163 . S
Mn43 O46 2.160 . S
Mn43 O47 2.221 . S
Mn43 O49 2.163 . S
Mn43 O51 2.160 . S
Mn43 O61 2.221 . S
O44 Mn45 2.087 . S
O44 C56 1.256 . S
Mn45 O44 2.087 . S
Mn45 O52 2.089 . S
Mn45 O61 2.290 . S
Mn45 O62 2.251 . S
O46 Mn43 2.160 . S
O46 C57 1.239 . S
O47 Mn43 2.221 . S
O47 Mn48 2.290 . S
O47 C58 1.278 . S
Mn48 O47 2.290 . S
Mn48 O50 2.089 . S
Mn48 O53 2.251 . S
Mn48 O54 2.087 . S
O49 Mn43 2.163 . S
O49 C59 1.244 . S
O50 Mn48 2.089 . S
O50 C57 1.256 . S
O51 Mn43 2.160 . S
O51 C60 1.239 . S
O52 Mn45 2.089 . S
O52 C60 1.256 . S
O53 Mn48 2.251 . S
O53 C58 1.241 . S
O54 Mn48 2.087 . S
O54 C59 1.256 . S
C55 O61 1.278 . S
C55 O62 1.241 . S
C56 O42 1.244 . S
C56 O44 1.256 . S
C57 O46 1.239 . S
C57 O50 1.256 . S
C58 O47 1.278 . S
C58 O53 1.241 . S
C59 O49 1.244 . S
C59 O54 1.256 . S
C60 O51 1.239 . S
C60 O52 1.256 . S
O61 Mn43 2.221 . S
O61 Mn45 2.290 . S
O61 C55 1.278 . S
O62 Mn45 2.251 . S
O62 C55 1.241 . S
O63 Mn64 2.163 1_565 S
O63 C77 1.244 . S
Mn64 O63 2.163 1_545 S
Mn64 O67 2.160 . S
Mn64 O68 2.221 1_545 S
Mn64 O70 2.160 1_545 S
Mn64 O72 2.160 . S
Mn64 O82 2.221 . S
O65 Mn66 2.087 1_565 S
O65 C77 1.256 . S
Mn66 O65 2.087 1_545 S
Mn66 O73 2.089 . S
Mn66 O82 2.290 . S
Mn66 O83 2.251 . S
O67 Mn64 2.160 . S
O67 C78 1.239 . S
O68 Mn64 2.221 1_565 S
O68 Mn69 2.290 . S
O68 C79 1.278 . S
Mn69 O68 2.290 . S
Mn69 O71 2.089 1_565 S
Mn69 O74 2.251 . S
Mn69 O75 2.087 . S
O70 Mn64 2.160 1_565 S
O70 C80 1.251 . S
O71 Mn69 2.089 1_545 S
O71 C78 1.256 . S
O72 Mn64 2.160 . S
O72 C81 1.239 . S
O73 Mn66 2.089 . S
O73 C81 1.256 . S
O74 Mn69 2.251 . S
O74 C79 1.241 . S
O75 Mn69 2.087 . S
O75 C80 1.256 . S
C76 O82 1.278 . S
C76 O83 1.241 . S
C77 O63 1.244 . S
C77 O65 1.256 . S
C78 O67 1.239 . S
C78 O71 1.256 . S
C79 O68 1.278 . S
C79 O74 1.241 . S
C80 O70 1.251 . S
C80 O75 1.256 . S
C81 O72 1.239 . S
C81 O73 1.256 . S
O82 Mn64 2.221 . S
O82 Mn66 2.290 . S
O82 C76 1.278 . S
O83 Mn66 2.251 . S
O83 C76 1.241 . S
O84 Mn85 2.163 . S
O84 C98 1.244 . S
Mn85 O84 2.163 . S
Mn85 O88 2.160 . S
Mn85 O89 2.221 . S
Mn85 O91 2.163 . S
Mn85 O93 2.160 . S
Mn85 O103 2.221 . S
O86 Mn87 2.087 . S
O86 C98 1.256 . S
Mn87 O86 2.087 . S
Mn87 O94 2.089 . S
Mn87 O103 2.290 . S
Mn87 O104 2.251 . S
O88 Mn85 2.160 . S
O88 C99 1.239 . S
O89 Mn85 2.221 . S
O89 Mn90 2.290 . S
O89 C100 1.278 . S
Mn90 O89 2.290 . S
Mn90 O92 2.089 . S
Mn90 O95 2.251 . S
Mn90 O96 2.087 . S
O91 Mn85 2.163 . S
O91 C101 1.244 . S
O92 Mn90 2.089 . S
O92 C99 1.256 . S
O93 Mn85 2.160 . S
O93 C102 1.239 . S
O94 Mn87 2.089 . S
O94 C102 1.256 . S
O95 Mn90 2.251 . S
O95 C100 1.241 . S
O96 Mn90 2.087 . S
O96 C101 1.256 . S
C97 O103 1.278 . S
C97 O104 1.241 . S
C98 O84 1.244 . S
C98 O86 1.256 . S
C99 O88 1.239 . S
C99 O92 1.256 . S
C100 O89 1.278 . S
C100 O95 1.241 . S
C101 O91 1.244 . S
C101 O96 1.256 . S
C102 O93 1.239 . S
C102 O94 1.256 . S
O103 Mn85 2.221 . S
O103 Mn87 2.290 . S
O103 C97 1.278 . S
O104 Mn87 2.251 . S
O104 C97 1.241 . S
O105 Mn106 2.163 . S
O105 C119 1.244 . S
Mn106 O105 2.163 . S
Mn106 O109 2.160 . S
Mn106 O110 2.221 . S
Mn106 O112 2.163 . S
Mn106 O114 2.160 . S
Mn106 O124 2.221 . S
O107 Mn108 2.087 . S
O107 C119 1.256 . S
Mn108 O107 2.087 . S
Mn108 O115 2.089 . S
Mn108 O124 2.290 . S
Mn108 O125 2.251 . S
O109 Mn106 2.160 . S
O109 C120 1.239 . S
O110 Mn106 2.221 . S
O110 Mn111 2.290 . S
O110 C121 1.278 . S
Mn111 O110 2.290 . S
Mn111 O113 2.089 . S
Mn111 O116 2.251 . S
Mn111 O117 2.087 . S
O112 Mn106 2.163 . S
O112 C122 1.244 . S
O113 Mn111 2.089 . S
O113 C120 1.256 . S
O114 Mn106 2.160 . S
O114 C123 1.239 . S
O115 Mn108 2.089 . S
O115 C123 1.256 . S
O116 Mn111 2.251 . S
O116 C121 1.241 . S
O117 Mn111 2.087 . S
O117 C122 1.256 . S
C118 O124 1.278 . S
C118 O125 1.241 . S
C119 O105 1.244 . S
C119 O107 1.256 . S
C120 O109 1.239 . S
C120 O113 1.256 . S
C121 O110 1.278 . S
C121 O116 1.241 . S
C122 O112 1.244 . S
C122 O117 1.256 . S
C123 O114 1.239 . S
C123 O115 1.256 . S
O124 Mn106 2.221 . S
O124 Mn108 2.290 . S
O124 C118 1.278 . S
O125 Mn108 2.251 . S
O125 C118 1.241 . S
O126 Mn127 2.163 . S
O126 C140 1.244 . S
Mn127 O126 2.163 . S
Mn127 O130 2.160 . S
Mn127 O131 2.221 . S
Mn127 O133 2.163 . S
Mn127 O135 2.160 . S
Mn127 O145 2.221 . S
O128 Mn129 2.087 . S
O128 C140 1.256 . S
Mn129 O128 2.087 . S
Mn129 O136 2.089 . S
Mn129 O145 2.290 . S
Mn129 O146 2.251 . S
O130 Mn127 2.160 . S
O130 C141 1.239 . S
O131 Mn127 2.221 . S
O131 Mn132 2.290 . S
O131 C142 1.278 . S
Mn132 O131 2.290 . S
Mn132 O134 2.089 . S
Mn132 O137 2.251 . S
Mn132 O138 2.087 . S
O133 Mn127 2.163 . S
O133 C143 1.244 . S
O134 Mn132 2.089 . S
O134 C141 1.256 . S
O135 Mn127 2.160 . S
O135 C144 1.239 . S
O136 Mn129 2.089 . S
O136 C144 1.256 . S
O137 Mn132 2.251 . S
O137 C142 1.241 . S
O138 Mn132 2.087 . S
O138 C143 1.256 . S
C139 O145 1.278 . S
C139 O146 1.241 . S
C140 O126 1.244 . S
C140 O128 1.256 . S
C141 O130 1.239 . S
C141 O134 1.256 . S
C142 O131 1.278 . S
C142 O137 1.241 . S
C143 O133 1.244 . S
C143 O138 1.256 . S
C144 O135 1.239 . S
C144 O136 1.256 . S
O145 Mn127 2.221 . S
O145 Mn129 2.290 . S
O145 C139 1.278 . S
O146 Mn129 2.251 . S
O146 C139 1.241 . S
O147 Mn148 2.163 1_655 S
O147 C161 1.244 . S
Mn148 O147 2.163 1_455 S
Mn148 O151 2.160 . S
Mn148 O152 2.221 . S
Mn148 O154 2.163 1_455 S
Mn148 O156 2.160 . S
Mn148 O166 2.221 1_455 S
O149 Mn150 2.087 . S
O149 C161 1.256 . S
Mn150 O149 2.087 . S
Mn150 O157 2.089 1_655 S
Mn150 O166 2.290 . S
Mn150 O167 2.251 . S
O151 Mn148 2.160 . S
O151 C162 1.239 . S
O152 Mn148 2.221 . S
O152 Mn153 2.290 . S
O152 C163 1.278 . S
Mn153 O152 2.290 . S
Mn153 O155 2.089 . S
Mn153 O158 2.251 . S
Mn153 O159 2.087 1_455 S
O154 Mn148 2.163 1_655 S
O154 C164 1.244 . S
O155 Mn153 2.089 . S
O155 C162 1.256 . S
O156 Mn148 2.160 . S
O156 C165 1.239 . S
O157 Mn150 2.089 1_455 S
O157 C165 1.256 . S
O158 Mn153 2.251 . S
O158 C163 1.241 . S
O159 Mn153 2.087 1_655 S
O159 C164 1.256 . S
C160 O166 1.278 . S
C160 O167 1.241 . S
C161 O147 1.244 . S
C161 O149 1.256 . S
C162 O151 1.239 . S
C162 O155 1.256 . S
C163 O152 1.278 . S
C163 O158 1.241 . S
C164 O154 1.244 . S
C164 O159 1.256 . S
C165 O156 1.239 . S
C165 O157 1.256 . S
O166 Mn148 2.221 1_655 S
O166 Mn150 2.290 . S
O166 C160 1.278 . S
O167 Mn150 2.251 . S
O167 C160 1.241 . S
O168 Mn169 2.163 . S
O168 C182 1.244 . S
Mn169 O168 2.163 . S
Mn169 O172 2.160 1_554 S
Mn169 O173 2.221 . S
Mn169 O175 2.163 . S
Mn169 O177 2.160 1_554 S
Mn169 O187 2.221 1_554 S
O170 Mn171 2.087 1_554 S
O170 C182 1.256 . S
Mn171 O170 2.087 1_556 S
Mn171 O178 2.089 . S
Mn171 O187 2.290 . S
Mn171 O188 2.251 . S
O172 Mn169 2.160 1_556 S
O172 C183 1.239 . S
O173 Mn169 2.221 . S
O173 Mn174 2.290 . S
O173 C184 1.278 . S
Mn174 O173 2.290 . S
Mn174 O176 2.089 1_554 S
Mn174 O179 2.251 . S
Mn174 O180 2.087 . S
O175 Mn169 2.163 . S
O175 C185 1.244 . S
O176 Mn174 2.089 1_556 S
O176 C183 1.256 . S
O177 Mn169 2.160 1_556 S
O177 C186 1.239 . S
O178 Mn171 2.089 . S
O178 C186 1.256 . S
O179 Mn174 2.251 . S
O179 C184 1.241 . S
O180 Mn174 2.087 . S
O180 C185 1.256 . S
C181 O187 1.278 . S
C181 O188 1.241 . S
C182 O168 1.244 . S
C182 O170 1.256 . S
C183 O172 1.239 . S
C183 O176 1.256 . S
C184 O173 1.278 . S
C184 O179 1.241 . S
C185 O175 1.244 . S
C185 O180 1.256 . S
C186 O177 1.239 . S
C186 O178 1.256 . S
O187 Mn169 2.221 1_556 S
O187 Mn171 2.290 . S
O187 C181 1.278 . S
O188 Mn171 2.251 . S
O188 C181 1.241 . S
O189 Mn190 2.163 1_565 S
O189 C203 1.244 . S
Mn190 O189 2.163 1_545 S
Mn190 O193 2.160 . S
Mn190 O194 2.221 1_545 S
Mn190 O196 2.163 . S
Mn190 O198 2.160 . S
Mn190 O208 2.221 . S
O191 Mn192 2.087 1_565 S
O191 C203 1.256 . S
Mn192 O191 2.087 1_545 S
Mn192 O199 2.089 . S
Mn192 O208 2.290 . S
Mn192 O209 2.251 . S
O193 Mn190 2.160 . S
O193 C204 1.239 . S
O194 Mn190 2.221 1_565 S
O194 Mn195 2.290 . S
O194 C205 1.278 . S
Mn195 O194 2.290 . S
Mn195 O197 2.089 1_565 S
Mn195 O200 2.251 . S
Mn195 O201 2.087 . S
O196 Mn190 2.163 . S
O196 C206 1.244 1_545 S
O197 Mn195 2.089 1_545 S
O197 C204 1.256 . S
O198 Mn190 2.160 . S
O198 C207 1.239 . S
O199 Mn192 2.089 . S
O199 C207 1.256 . S
O200 Mn195 2.251 . S
O200 C205 1.241 . S
O201 Mn195 2.087 . S
O201 C206 1.256 . S
C202 O208 1.278 . S
C202 O209 1.241 . S
C203 O189 1.244 . S
C203 O191 1.256 . S
C204 O193 1.239 . S
C204 O197 1.256 . S
C205 O194 1.278 . S
C205 O200 1.241 . S
C206 O196 1.244 1_565 S
C206 O201 1.256 . S
C207 O198 1.239 . S
C207 O199 1.256 . S
O208 Mn190 2.221 . S
O208 Mn192 2.290 . S
O208 C202 1.278 . S
O209 Mn192 2.251 . S
O209 C202 1.241 . S
O210 Mn211 2.163 . S
O210 C224 1.244 . S
Mn211 O210 2.163 . S
Mn211 O214 2.160 . S
Mn211 O215 2.221 . S
Mn211 O217 2.163 . S
Mn211 O219 2.160 . S
Mn211 O229 2.221 . S
O212 Mn213 2.087 . S
O212 C224 1.256 . S
Mn213 O212 2.087 . S
Mn213 O220 2.089 . S
Mn213 O229 2.290 . S
Mn213 O230 2.251 . S
O214 Mn211 2.160 . S
O214 C225 1.239 . S
O215 Mn211 2.221 . S
O215 Mn216 2.290 . S
O215 C226 1.278 . S
Mn216 O215 2.290 . S
Mn216 O218 2.089 . S
Mn216 O221 2.251 . S
Mn216 O222 2.087 . S
O217 Mn211 2.163 . S
O217 C227 1.244 . S
O218 Mn216 2.089 . S
O218 C225 1.256 . S
O219 Mn211 2.160 . S
O219 C228 1.239 . S
O220 Mn213 2.089 . S
O220 C228 1.256 . S
O221 Mn216 2.251 . S
O221 C226 1.241 . S
O222 Mn216 2.087 . S
O222 C227 1.256 . S
C223 O229 1.278 . S
C223 O230 1.241 . S
C224 O210 1.244 . S
C224 O212 1.256 . S
C225 O214 1.239 . S
C225 O218 1.256 . S
C226 O215 1.278 . S
C226 O221 1.241 . S
C227 O217 1.244 . S
C227 O222 1.256 . S
C228 O219 1.239 . S
C228 O220 1.256 . S
O229 Mn211 2.221 . S
O229 Mn213 2.290 . S
O229 C223 1.278 . S
O230 Mn213 2.251 . S
O230 C223 1.241 . S
O231 Mn232 2.163 . S
O231 C245 1.244 . S
Mn232 O231 2.163 . S
Mn232 O235 2.160 1_455 S
Mn232 O236 2.221 . S
Mn232 O238 2.163 . S
Mn232 O240 2.160 1_455 S
Mn232 O250 2.221 1_455 S
O233 Mn234 2.087 1_455 S
O233 C245 1.256 . S
Mn234 O233 2.087 1_655 S
Mn234 O241 2.089 . S
Mn234 O250 2.290 . S
Mn234 O251 2.251 . S
O235 Mn232 2.160 1_655 S
O235 C246 1.239 . S
O236 Mn232 2.221 . S
O236 Mn237 2.290 . S
O236 C247 1.278 . S
Mn237 O236 2.290 . S
Mn237 O239 2.089 1_455 S
Mn237 O242 2.251 . S
Mn237 O243 2.087 . S
O238 Mn232 2.163 . S
O238 C248 1.244 . S
O239 Mn237 2.089 1_655 S
O239 C246 1.256 . S
O240 Mn232 2.160 1_655 S
O240 C249 1.239 . S
O241 Mn234 2.089 . S
O241 C249 1.256 . S
O242 Mn237 2.251 . S
O242 C247 1.241 . S
O243 Mn237 2.087 . S
O243 C248 1.256 . S
C244 O250 1.278 . S
C244 O251 1.241 . S
C245 O231 1.244 . S
C245 O233 1.256 . S
C246 O235 1.239 . S
C246 O239 1.256 . S
C247 O236 1.278 . S
C247 O242 1.241 . S
C248 O238 1.244 . S
C248 O243 1.256 . S
C249 O240 1.239 . S
C249 O241 1.256 . S
O250 Mn232 2.221 1_655 S
O250 Mn234 2.290 . S
O250 C244 1.278 . S
O251 Mn234 2.251 . S
O251 C244 1.241 . S
O252 Mn253 2.163 . S
O252 C266 1.244 . S
Mn253 O252 2.163 . S
Mn253 O256 2.160 . S
Mn253 O257 2.221 . S
Mn253 O259 2.163 . S
Mn253 O261 2.160 . S
Mn253 O271 2.221 . S
O254 Mn255 2.087 . S
O254 C266 1.256 . S
Mn255 O254 2.087 . S
Mn255 O262 2.089 . S
Mn255 O271 2.290 . S
Mn255 O272 2.251 . S
O256 Mn253 2.160 . S
O256 C267 1.239 . S
O257 Mn253 2.221 . S
O257 Mn258 2.290 . S
O257 C268 1.278 . S
Mn258 O257 2.290 . S
Mn258 O260 2.089 . S
Mn258 O263 2.251 . S
Mn258 O264 2.087 . S
O259 Mn253 2.163 . S
O259 C269 1.244 . S
O260 Mn258 2.089 . S
O260 C267 1.256 . S
O261 Mn253 2.160 . S
O261 C270 1.239 . S
O262 Mn255 2.089 . S
O262 C270 1.256 . S
O263 Mn258 2.251 . S
O263 C268 1.241 . S
O264 Mn258 2.087 . S
O264 C269 1.256 . S
C265 O271 1.278 . S
C265 O272 1.241 . S
C266 O252 1.244 . S
C266 O254 1.256 . S
C267 O256 1.239 . S
C267 O260 1.256 . S
C268 O257 1.278 . S
C268 O263 1.241 . S
C269 O259 1.244 . S
C269 O264 1.256 . S
C270 O261 1.239 . S
C270 O262 1.256 . S
O271 Mn253 2.221 . S
O271 Mn255 2.290 . S
O271 C265 1.278 . S
O272 Mn255 2.251 . S
O272 C265 1.241 . S
O273 Mn274 2.163 . S
O273 C287 1.244 . S
Mn274 O273 2.163 . S
Mn274 O277 2.160 1_554 S
Mn274 O278 2.221 . S
Mn274 O280 2.163 . S
Mn274 O282 2.160 1_554 S
Mn274 O292 2.221 1_554 S
O275 Mn276 2.087 1_554 S
O275 C287 1.256 . S
Mn276 O275 2.087 1_556 S
Mn276 O283 2.089 . S
Mn276 O292 2.290 . S
Mn276 O293 2.251 . S
O277 Mn274 2.160 1_556 S
O277 C288 1.239 . S
O278 Mn274 2.221 . S
O278 Mn279 2.290 . S
O278 C289 1.278 . S
Mn279 O278 2.290 . S
Mn279 O281 2.089 1_554 S
Mn279 O284 2.251 . S
Mn279 O285 2.087 . S
O280 Mn274 2.163 . S
O280 C290 1.244 . S
O281 Mn279 2.089 1_556 S
O281 C288 1.256 . S
O282 Mn274 2.160 1_556 S
O282 C291 1.239 . S
O283 Mn276 2.089 . S
O283 C291 1.256 . S
O284 Mn279 2.251 . S
O284 C289 1.241 . S
O285 Mn279 2.087 . S
O285 C290 1.256 . S
C286 O292 1.278 . S
C286 O293 1.241 . S
C287 O273 1.244 . S
C287 O275 1.256 . S
C288 O277 1.239 . S
C288 O281 1.256 . S
C289 O278 1.278 . S
C289 O284 1.241 . S
C290 O280 1.244 . S
C290 O285 1.256 . S
C291 O282 1.239 . S
C291 O283 1.256 . S
O292 Mn274 2.221 1_556 S
O292 Mn276 2.290 . S
O292 C286 1.278 . S
O293 Mn276 2.251 . S
O293 C286 1.241 . S
O294 Mn295 2.163 . S
O294 C308 1.244 . S
Mn295 O294 2.163 . S
Mn295 O298 2.160 1_545 S
Mn295 O299 2.221 1_545 S
Mn295 O301 2.163 1_545 S
Mn295 O303 2.160 . S
Mn295 O313 2.221 . S
O296 Mn297 2.087 . S
O296 C308 1.256 . S
Mn297 O296 2.087 . S
Mn297 O304 2.089 . S
Mn297 O313 2.290 . S
Mn297 O314 2.251 . S
O298 Mn295 2.160 1_565 S
O298 C309 1.239 . S
O299 Mn295 2.221 1_565 S
O299 Mn300 2.290 . S
O299 C310 1.278 . S
Mn300 O299 2.290 . S
Mn300 O302 2.089 . S
Mn300 O305 2.251 . S
Mn300 O306 2.087 . S
O301 Mn295 2.163 1_565 S
O301 C311 1.244 . S
O302 Mn300 2.089 . S
O302 C309 1.256 . S
O303 Mn295 2.160 . S
O303 C312 1.239 . S
O304 Mn297 2.089 . S
O304 C312 1.256 . S
O305 Mn300 2.251 . S
O305 C310 1.241 . S
O306 Mn300 2.087 . S
O306 C311 1.256 . S
C307 O313 1.278 . S
C307 O314 1.241 . S
C308 O294 1.244 . S
C308 O296 1.256 . S
C309 O298 1.239 . S
C309 O302 1.256 . S
C310 O299 1.278 . S
C310 O305 1.241 . S
C311 O301 1.244 . S
C311 O306 1.256 . S
C312 O303 1.239 . S
C312 O304 1.256 . S
O313 Mn295 2.221 . S
O313 Mn297 2.290 . S
O313 C307 1.278 . S
O314 Mn297 2.251 . S
O314 C307 1.241 . S
O315 Mn316 2.163 1_556 S
O315 C329 1.244 . S
Mn316 O315 2.163 1_554 S
Mn316 O319 2.160 . S
Mn316 O320 2.221 1_554 S
Mn316 O322 2.163 1_554 S
Mn316 O324 2.160 . S
Mn316 O334 2.221 . S
O317 Mn318 2.087 1_556 S
O317 C329 1.256 . S
Mn318 O317 2.087 1_554 S
Mn318 O325 2.089 . S
Mn318 O334 2.290 . S
Mn318 O335 2.251 . S
O319 Mn316 2.160 . S
O319 C330 1.239 . S
O320 Mn316 2.221 1_556 S
O320 Mn321 2.290 . S
O320 C331 1.278 . S
Mn321 O320 2.290 . S
Mn321 O323 2.089 1_556 S
Mn321 O326 2.251 . S
Mn321 O327 2.087 . S
O322 Mn316 2.163 1_556 S
O322 C332 1.244 . S
O323 Mn321 2.089 1_554 S
O323 C330 1.256 . S
O324 Mn316 2.160 . S
O324 C333 1.239 . S
O325 Mn318 2.089 . S
O325 C333 1.256 . S
O326 Mn321 2.251 . S
O326 C331 1.241 . S
O327 Mn321 2.087 . S
O327 C332 1.256 . S
C328 O334 1.278 . S
C328 O335 1.241 . S
C329 O315 1.244 . S
C329 O317 1.256 . S
C330 O319 1.239 . S
C330 O323 1.256 . S
C331 O320 1.278 . S
C331 O326 1.241 . S
C332 O322 1.244 . S
C332 O327 1.256 . S
C333 O324 1.239 . S
C333 O325 1.256 . S
O334 Mn316 2.221 . S
O334 Mn318 2.290 . S
O334 C328 1.278 . S
O335 Mn318 2.251 . S
O335 C328 1.241 . S
C336 C337 1.369 1_455 S
C336 C338 1.419 . S
C336 H340 0.930 . S
C337 C336 1.369 1_655 S
C337 C346 1.429 . S
C338 C336 1.419 . S
C338 C339 1.363 1_455 S
C338 H341 0.929 . S
C339 C338 1.363 1_655 S
C339 C345 1.428 . S
H340 C336 0.930 . S
H341 C338 0.929 . S
S342 N343 1.613 . S
S342 N344 1.610 . S
N343 S342 1.613 . S
N343 C346 1.350 . S
N344 S342 1.610 . S
N344 C345 1.351 . S
C345 C339 1.428 . S
C345 N344 1.351 . S
C345 C346 1.434 . S
C346 C337 1.429 . S
C346 N343 1.350 . S
C346 C345 1.434 . S
C347 C348 1.369 . S
C347 C349 1.419 . S
C347 H351 0.930 . S
C348 C347 1.369 . S
C348 C357 1.429 . S
C349 C347 1.419 . S
C349 C350 1.363 . S
C349 H352 0.929 . S
C350 C349 1.363 . S
C350 C356 1.428 . S
H351 C347 0.930 . S
H352 C349 0.929 . S
S353 N354 1.613 . S
S353 N355 1.610 . S
N354 S353 1.613 . S
N354 C357 1.350 . S
N355 S353 1.610 . S
N355 C356 1.351 . S
C356 C350 1.428 . S
C356 N355 1.351 . S
C356 C357 1.434 . S
C357 C348 1.429 . S
C357 N354 1.350 . S
C357 C356 1.434 . S
C358 C359 1.369 . S
C358 C360 1.419 . S
C358 H362 0.930 . S
C359 C358 1.369 . S
C359 C368 1.429 . S
C360 C358 1.419 . S
C360 C361 1.363 . S
C360 H363 0.929 . S
C361 C360 1.363 . S
C361 C367 1.428 . S
H362 C358 0.930 . S
H363 C360 0.929 . S
S364 N365 1.613 . S
S364 N366 1.610 . S
N365 S364 1.613 . S
N365 C368 1.350 . S
N366 S364 1.610 . S
N366 C367 1.351 . S
C367 C361 1.428 . S
C367 N366 1.351 . S
C367 C368 1.434 . S
C368 C359 1.429 . S
C368 N365 1.350 . S
C368 C367 1.434 . S
C369 C370 1.369 1_565 S
C369 C371 1.419 1_565 S
C369 H373 0.930 . S
C370 C369 1.369 1_545 S
C370 C379 1.429 . S
C371 C369 1.419 1_545 S
C371 C372 1.363 . S
C371 H374 0.929 1_545 S
C372 C371 1.363 . S
C372 C378 1.428 . S
H373 C369 0.930 . S
H374 C371 0.929 1_565 S
S375 N376 1.613 . S
S375 N377 1.610 . S
N376 S375 1.613 . S
N376 C379 1.350 . S
N377 S375 1.610 . S
N377 C378 1.351 . S
C378 C372 1.428 . S
C378 N377 1.351 . S
C378 C379 1.434 . S
C379 C370 1.429 . S
C379 N376 1.350 . S
C379 C378 1.434 . S
C380 C381 1.373 . S
C380 C382 1.418 1_565 S
C380 H384 0.927 1_565 S
C381 C380 1.373 . S
C381 C390 1.429 . S
C382 C380 1.418 1_545 S
C382 C383 1.363 1_545 S
C382 H385 0.929 . S
C383 C382 1.363 1_565 S
C383 C389 1.428 . S
H384 C380 0.927 1_545 S
H385 C382 0.929 . S
S386 N387 1.613 . S
S386 N388 1.610 . S
N387 S386 1.613 . S
N387 C390 1.350 . S
N388 S386 1.610 . S
N388 C389 1.351 . S
C389 C383 1.428 . S
C389 N388 1.351 . S
C389 C390 1.434 . S
C390 C381 1.429 . S
C390 N387 1.350 . S
C390 C389 1.434 . S
C391 C392 1.369 . S
C391 C393 1.419 . S
C391 H395 0.930 . S
C392 C391 1.369 . S
C392 C401 1.429 . S
C393 C391 1.419 . S
C393 C394 1.363 . S
C393 H396 0.929 . S
C394 C393 1.363 . S
C394 C400 1.428 . S
H395 C391 0.930 . S
H396 C393 0.929 . S
S397 N398 1.613 . S
S397 N399 1.610 . S
N398 S397 1.613 . S
N398 C401 1.350 . S
N399 S397 1.610 . S
N399 C400 1.351 . S
C400 C394 1.428 . S
C400 N399 1.351 . S
C400 C401 1.434 . S
C401 C392 1.429 . S
C401 N398 1.350 . S
C401 C400 1.434 . S
C402 C403 1.369 . S
C402 C404 1.419 . S
C402 H406 0.930 . S
C403 C402 1.369 . S
C403 C412 1.429 . S
C404 C402 1.419 . S
C404 C405 1.363 . S
C404 H407 0.929 . S
C405 C404 1.363 . S
C405 C411 1.428 . S
H406 C402 0.930 . S
H407 C404 0.929 . S
S408 N409 1.613 . S
S408 N410 1.610 . S
N409 S408 1.613 . S
N409 C412 1.350 . S
N410 S408 1.610 . S
N410 C411 1.351 . S
C411 C405 1.428 . S
C411 N410 1.351 . S
C411 C412 1.434 . S
C412 C403 1.429 . S
C412 N409 1.350 . S
C412 C411 1.434 . S
C413 C414 1.369 . S
C413 C415 1.419 . S
C413 H417 0.930 . S
C414 C413 1.369 . S
C414 C423 1.429 . S
C415 C413 1.419 . S
C415 C416 1.363 . S
C415 H418 0.929 . S
C416 C415 1.363 . S
C416 C422 1.428 . S
H417 C413 0.930 . S
H418 C415 0.929 . S
S419 N420 1.613 . S
S419 N421 1.610 . S
N420 S419 1.613 . S
N420 C423 1.350 . S
N421 S419 1.610 . S
N421 C422 1.351 . S
C422 C416 1.428 . S
C422 N421 1.351 . S
C422 C423 1.434 . S
C423 C414 1.429 . S
C423 N420 1.350 . S
C423 C422 1.434 . S
C424 C425 1.369 . S
C424 C426 1.419 . S
C424 H428 0.930 . S
C425 C424 1.369 . S
C425 C434 1.429 . S
C426 C424 1.419 . S
C426 C427 1.363 . S
C426 H429 0.929 . S
C427 C426 1.363 . S
C427 C433 1.428 . S
H428 C424 0.930 . S
H429 C426 0.929 . S
S430 N431 1.613 . S
S430 N432 1.610 . S
N431 S430 1.613 . S
N431 C434 1.350 . S
N432 S430 1.610 . S
N432 C433 1.351 . S
C433 C427 1.428 . S
C433 N432 1.351 . S
C433 C434 1.434 . S
C434 C425 1.429 . S
C434 N431 1.350 . S
C434 C433 1.434 . S
C435 C436 1.369 . S
C435 C437 1.419 . S
C435 H439 0.930 . S
C436 C435 1.369 . S
C436 C445 1.429 . S
C437 C435 1.419 . S
C437 C438 1.363 . S
C437 H440 0.929 . S
C438 C437 1.363 . S
C438 C444 1.428 . S
H439 C435 0.930 . S
H440 C437 0.929 . S
S441 N442 1.613 . S
S441 N443 1.610 . S
N442 S441 1.613 . S
N442 C445 1.350 . S
N443 S441 1.610 . S
N443 C444 1.351 . S
C444 C438 1.428 . S
C444 N443 1.351 . S
C444 C445 1.434 . S
C445 C436 1.429 . S
C445 N442 1.350 . S
C445 C444 1.434 . S
C446 C447 1.369 . S
C446 C448 1.419 . S
C446 H450 0.930 1_565 S
C447 C446 1.369 . S
C447 C456 1.429 . S
C448 C446 1.419 . S
C448 C449 1.363 . S
C448 H451 0.929 1_565 S
C449 C448 1.363 . S
C449 C455 1.428 . S
H450 C446 0.930 1_545 S
H451 C448 0.929 1_545 S
S452 N453 1.613 . S
S452 N454 1.610 . S
N453 S452 1.613 . S
N453 C456 1.350 . S
N454 S452 1.610 . S
N454 C455 1.351 . S
C455 C449 1.428 . S
C455 N454 1.351 . S
C455 C456 1.434 . S
C456 C447 1.429 . S
C456 N453 1.350 . S
C456 C455 1.434 . S
C457 C458 1.369 . S
C457 C459 1.419 . S
C457 H461 0.930 . S
C458 C457 1.369 . S
C458 C467 1.429 . S
C459 C457 1.419 . S
C459 C460 1.363 . S
C459 H462 0.929 . S
C460 C459 1.363 . S
C460 C466 1.428 . S
H461 C457 0.930 . S
H462 C459 0.929 . S
S463 N464 1.613 . S
S463 N465 1.610 . S
N464 S463 1.613 . S
N464 C467 1.350 . S
N465 S463 1.610 . S
N465 C466 1.351 . S
C466 C460 1.428 . S
C466 N465 1.351 . S
C466 C467 1.434 . S
C467 C458 1.429 . S
C467 N464 1.350 . S
C467 C466 1.434 . S
C468 C469 1.369 . S
C468 C470 1.419 . S
C468 H472 0.930 . S
C469 C468 1.369 . S
C469 C478 1.429 1_556 S
C470 C468 1.419 . S
C470 C471 1.363 . S
C470 H473 0.929 . S
C471 C470 1.363 . S
C471 C477 1.428 1_556 S
H472 C468 0.930 . S
H473 C470 0.929 . S
S474 N475 1.613 . S
S474 N476 1.610 . S
N475 S474 1.613 . S
N475 C478 1.350 . S
N476 S474 1.610 . S
N476 C477 1.351 . S
C477 C471 1.428 1_554 S
C477 N476 1.351 . S
C477 C478 1.434 . S
C478 C469 1.429 1_554 S
C478 N475 1.350 . S
C478 C477 1.434 . S
C479 C480 1.369 . S
C479 C481 1.419 . S
C479 H483 0.930 . S
C480 C479 1.369 . S
C480 C489 1.429 . S
C481 C479 1.419 . S
C481 C482 1.363 . S
C481 H484 0.929 . S
C482 C481 1.363 . S
C482 C488 1.428 . S
H483 C479 0.930 . S
H484 C481 0.929 . S
S485 N486 1.613 . S
S485 N487 1.610 . S
N486 S485 1.613 . S
N486 C489 1.350 . S
N487 S485 1.610 . S
N487 C488 1.351 . S
C488 C482 1.428 . S
C488 N487 1.351 . S
C488 C489 1.434 . S
C489 C480 1.429 . S
C489 N486 1.350 . S
C489 C488 1.434 . S
C490 C491 1.369 . S
C490 C492 1.419 . S
C490 H494 0.930 . S
C491 C490 1.369 . S
C491 C500 1.429 . S
C492 C490 1.419 . S
C492 C493 1.363 . S
C492 H495 0.929 . S
C493 C492 1.363 . S
C493 C499 1.428 . S
H494 C490 0.930 . S
H495 C492 0.929 . S
S496 N497 1.613 . S
S496 N498 1.610 . S
N497 S496 1.613 . S
N497 C500 1.350 . S
N498 S496 1.610 . S
N498 C499 1.351 . S
C499 C493 1.428 . S
C499 N498 1.351 . S
C499 C500 1.434 . S
C500 C491 1.429 . S
C500 N497 1.350 . S
C500 C499 1.434 . S
C501 C502 1.369 . S
C501 C503 1.419 . S
C501 H505 0.930 . S
C502 C501 1.369 . S
C502 C511 1.429 . S
C503 C501 1.419 . S
C503 C504 1.363 . S
C503 H506 0.929 . S
C504 C503 1.363 . S
C504 C510 1.428 . S
H505 C501 0.930 . S
H506 C503 0.929 . S
S507 N508 1.613 . S
S507 N509 1.610 . S
N508 S507 1.613 . S
N508 C511 1.350 . S
N509 S507 1.610 . S
N509 C510 1.351 . S
C510 C504 1.428 . S
C510 N509 1.351 . S
C510 C511 1.434 . S
C511 C502 1.429 . S
C511 N508 1.350 . S
C511 C510 1.434 . S
C512 C513 1.369 . S
C512 C514 1.419 . S
C512 H516 0.930 . S
C513 C512 1.369 . S
C513 C522 1.429 . S
C514 C512 1.419 . S
C514 C515 1.363 . S
C514 H517 0.929 . S
C515 C514 1.363 . S
C515 C521 1.428 . S
H516 C512 0.930 . S
H517 C514 0.929 . S
S518 N519 1.613 . S
S518 N520 1.610 . S
N519 S518 1.613 . S
N519 C522 1.350 . S
N520 S518 1.610 . S
N520 C521 1.351 . S
C521 C515 1.428 . S
C521 N520 1.351 . S
C521 C522 1.434 . S
C522 C513 1.429 . S
C522 N519 1.350 . S
C522 C521 1.434 . S
C523 C524 1.369 . S
C523 C525 1.419 . S
C523 H527 0.930 . S
C524 C523 1.369 . S
C524 C533 1.429 . S
C525 C523 1.419 . S
C525 C526 1.363 . S
C525 H528 0.929 . S
C526 C525 1.363 . S
C526 C532 1.428 . S
H527 C523 0.930 . S
H528 C525 0.929 . S
S529 N530 1.613 . S
S529 N531 1.610 . S
N530 S529 1.613 . S
N530 C533 1.350 . S
N531 S529 1.610 . S
N531 C532 1.351 . S
C532 C526 1.428 . S
C532 N531 1.351 . S
C532 C533 1.434 . S
C533 C524 1.429 . S
C533 N530 1.350 . S
C533 C532 1.434 . S
C534 C535 1.369 . S
C534 C536 1.419 . S
C534 H538 0.930 . S
C535 C534 1.369 . S
C535 C544 1.429 . S
C536 C534 1.419 . S
C536 C537 1.363 . S
C536 H539 0.929 . S
C537 C536 1.363 . S
C537 C543 1.428 . S
H538 C534 0.930 . S
H539 C536 0.929 . S
S540 N541 1.613 . S
S540 N542 1.610 . S
N541 S540 1.613 . S
N541 C544 1.350 . S
N542 S540 1.610 . S
N542 C543 1.351 . S
C543 C537 1.428 . S
C543 N542 1.351 . S
C543 C544 1.434 . S
C544 C535 1.429 . S
C544 N541 1.350 . S
C544 C543 1.434 . S
C545 C546 1.369 . S
C545 C547 1.419 . S
C545 H549 0.930 . S
C546 C545 1.369 . S
C546 C555 1.429 . S
C547 C545 1.419 . S
C547 C548 1.363 . S
C547 H550 0.929 . S
C548 C547 1.363 . S
C548 C554 1.428 . S
H549 C545 0.930 . S
H550 C547 0.929 . S
S551 N552 1.613 . S
S551 N553 1.610 . S
N552 S551 1.613 . S
N552 C555 1.350 . S
N553 S551 1.610 . S
N553 C554 1.351 . S
C554 C548 1.428 . S
C554 N553 1.351 . S
C554 C555 1.434 . S
C555 C546 1.429 . S
C555 N552 1.350 . S
C555 C554 1.434 . S
C556 C557 1.369 . S
C556 C558 1.419 . S
C556 H560 0.930 . S
C557 C556 1.369 . S
C557 C566 1.429 . S
C558 C556 1.419 . S
C558 C559 1.363 . S
C558 H561 0.929 . S
C559 C558 1.363 . S
C559 C565 1.428 . S
H560 C556 0.930 . S
H561 C558 0.929 . S
S562 N563 1.613 . S
S562 N564 1.610 . S
N563 S562 1.613 . S
N563 C566 1.350 . S
N564 S562 1.610 . S
N564 C565 1.351 . S
C565 C559 1.428 . S
C565 N564 1.351 . S
C565 C566 1.434 . S
C566 C557 1.429 . S
C566 N563 1.350 . S
C566 C565 1.434 . S
C567 C568 1.370 1_455 S
C567 C569 1.419 . S
C567 H571 0.929 . S
C568 C567 1.370 1_655 S
C568 C577 1.429 . S
C569 C567 1.419 . S
C569 C570 1.363 1_455 S
C569 H572 0.929 . S
C570 C569 1.363 1_655 S
C570 C576 1.428 . S
H571 C567 0.929 . S
H572 C569 0.929 . S
S573 N574 1.613 . S
S573 N575 1.610 . S
N574 S573 1.613 . S
N574 C577 1.350 . S
N575 S573 1.610 . S
N575 C576 1.351 . S
C576 C570 1.428 . S
C576 N575 1.351 . S
C576 C577 1.434 . S
C577 C568 1.429 . S
C577 N574 1.350 . S
C577 C576 1.434 . S
C578 C579 1.369 . S
C578 C580 1.419 . S
C578 H582 0.930 . S
C579 C578 1.369 . S
C579 C588 1.429 . S
C580 C578 1.419 . S
C580 C581 1.363 . S
C580 H583 0.929 . S
C581 C580 1.363 . S
C581 C587 1.428 . S
H582 C578 0.930 . S
H583 C580 0.929 . S
S584 N585 1.613 . S
S584 N586 1.610 . S
N585 S584 1.613 . S
N585 C588 1.350 . S
N586 S584 1.610 . S
N586 C587 1.351 . S
C587 C581 1.428 . S
C587 N586 1.351 . S
C587 C588 1.434 . S
C588 C579 1.429 . S
C588 N585 1.350 . S
C588 C587 1.434 . S
C589 C590 1.369 . S
C589 C591 1.419 . S
C589 H593 0.930 . S
C590 C589 1.369 . S
C590 C599 1.429 . S
C591 C589 1.419 . S
C591 C592 1.363 . S
C591 H594 0.929 . S
C592 C591 1.363 . S
C592 C598 1.428 . S
H593 C589 0.930 . S
H594 C591 0.929 . S
S595 N596 1.613 . S
S595 N597 1.610 . S
N596 S595 1.613 . S
N596 C599 1.350 . S
N597 S595 1.610 . S
N597 C598 1.351 . S
C598 C592 1.428 . S
C598 N597 1.351 . S
C598 C599 1.434 . S
C599 C590 1.429 . S
C599 N596 1.350 . S
C599 C598 1.434 . S
C600 C601 1.369 . S
C600 C602 1.419 . S
C600 H604 0.930 . S
C601 C600 1.369 . S
C601 C610 1.429 . S
C602 C600 1.419 . S
C602 C603 1.363 . S
C602 H605 0.929 . S
C603 C602 1.363 . S
C603 C609 1.428 . S
H604 C600 0.930 . S
H605 C602 0.929 . S
S606 N607 1.613 . S
S606 N608 1.610 . S
N607 S606 1.613 . S
N607 C610 1.350 . S
N608 S606 1.610 . S
N608 C609 1.351 . S
C609 C603 1.428 . S
C609 N608 1.351 . S
C609 C610 1.434 . S
C610 C601 1.429 . S
C610 N607 1.350 . S
C610 C609 1.434 . S
C611 C612 1.369 . S
C611 C613 1.419 . S
C611 H615 0.930 . S
C612 C611 1.369 . S
C612 C621 1.429 . S
C613 C611 1.419 . S
C613 C614 1.363 . S
C613 H616 0.929 . S
C614 C613 1.363 . S
C614 C620 1.428 . S
H615 C611 0.930 . S
H616 C613 0.929 . S
S617 N618 1.613 . S
S617 N619 1.610 . S
N618 S617 1.613 . S
N618 C621 1.350 . S
N619 S617 1.610 . S
N619 C620 1.351 . S
C620 C614 1.428 . S
C620 N619 1.351 . S
C620 C621 1.434 . S
C621 C612 1.429 . S
C621 N618 1.350 . S
C621 C620 1.434 . S
C622 C623 1.369 . S
C622 C624 1.419 . S
C622 H626 0.930 . S
C623 C622 1.369 . S
C623 C632 1.429 1_545 S
C624 C622 1.419 . S
C624 C625 1.363 . S
C624 H627 0.929 . S
C625 C624 1.363 . S
C625 C631 1.428 1_545 S
H626 C622 0.930 . S
H627 C624 0.929 . S
S628 N629 1.613 . S
S628 N630 1.610 . S
N629 S628 1.613 . S
N629 C632 1.350 . S
N630 S628 1.610 . S
N630 C631 1.351 . S
C631 C625 1.428 1_565 S
C631 N630 1.351 . S
C631 C632 1.434 . S
C632 C623 1.429 1_565 S
C632 N629 1.350 . S
C632 C631 1.434 . S
C633 C634 1.369 . S
C633 C635 1.419 . S
C633 H637 0.930 . S
C634 C633 1.369 . S
C634 C643 1.429 . S
C635 C633 1.419 . S
C635 C636 1.363 . S
C635 H638 0.929 . S
C636 C635 1.363 . S
C636 C642 1.428 . S
H637 C633 0.930 . S
H638 C635 0.929 . S
S639 N640 1.613 1_556 S
S639 N641 1.610 1_556 S
N640 S639 1.613 1_554 S
N640 C643 1.350 . S
N641 S639 1.610 1_554 S
N641 C642 1.351 . S
C642 C636 1.428 . S
C642 N641 1.351 . S
C642 C643 1.434 . S
C643 C634 1.429 . S
C643 N640 1.350 . S
C643 C642 1.434 . S
C644 C645 1.369 . S
C644 C646 1.419 . S
C644 H648 0.930 . S
C645 C644 1.369 . S
C645 C654 1.429 . S
C646 C644 1.419 . S
C646 C647 1.363 . S
C646 H649 0.929 . S
C647 C646 1.363 . S
C647 C653 1.428 . S
H648 C644 0.930 . S
H649 C646 0.929 . S
S650 N651 1.613 . S
S650 N652 1.610 . S
N651 S650 1.613 . S
N651 C654 1.350 . S
N652 S650 1.610 . S
N652 C653 1.351 . S
C653 C647 1.428 . S
C653 N652 1.351 . S
C653 C654 1.434 . S
C654 C645 1.429 . S
C654 N651 1.350 . S
C654 C653 1.434 . S
C655 C656 1.369 . S
C655 C657 1.419 . S
C655 H659 0.930 . S
C656 C655 1.369 . S
C656 C665 1.429 . S
C657 C655 1.419 . S
C657 C658 1.363 . S
C657 H660 0.929 . S
C658 C657 1.363 . S
C658 C664 1.428 . S
H659 C655 0.930 . S
H660 C657 0.929 . S
S661 N662 1.613 . S
S661 N663 1.610 . S
N662 S661 1.613 . S
N662 C665 1.350 . S
N663 S661 1.610 . S
N663 C664 1.351 . S
C664 C658 1.428 . S
C664 N663 1.351 . S
C664 C665 1.434 . S
C665 C656 1.429 . S
C665 N662 1.350 . S
C665 C664 1.434 . S
C666 C667 1.369 . S
C666 C668 1.419 . S
C666 H670 0.930 . S
C667 C666 1.369 . S
C667 C676 1.429 . S
C668 C666 1.419 . S
C668 C669 1.363 . S
C668 H671 0.929 . S
C669 C668 1.363 . S
C669 C675 1.428 . S
H670 C666 0.930 . S
H671 C668 0.929 . S
S672 N673 1.613 . S
S672 N674 1.610 . S
N673 S672 1.613 . S
N673 C676 1.350 . S
N674 S672 1.610 . S
N674 C675 1.351 . S
C675 C669 1.428 . S
C675 N674 1.351 . S
C675 C676 1.434 . S
C676 C667 1.429 . S
C676 N673 1.350 . S
C676 C675 1.434 . S
C677 C678 1.369 . S
C677 C679 1.419 . S
C677 H681 0.930 . S
C678 C677 1.369 . S
C678 C687 1.429 . S
C679 C677 1.419 . S
C679 C680 1.363 . S
C679 H682 0.929 . S
C680 C679 1.363 . S
C680 C686 1.428 . S
H681 C677 0.930 . S
H682 C679 0.929 . S
S683 N684 1.613 . S
S683 N685 1.610 . S
N684 S683 1.613 . S
N684 C687 1.350 . S
N685 S683 1.610 . S
N685 C686 1.351 . S
C686 C680 1.428 . S
C686 N685 1.351 . S
C686 C687 1.434 . S
C687 C678 1.429 . S
C687 N684 1.350 . S
C687 C686 1.434 . S
C688 C689 1.369 . S
C688 C690 1.419 . S
C688 H692 0.930 . S
C689 C688 1.369 . S
C689 C698 1.429 . S
C690 C688 1.419 . S
C690 C691 1.363 . S
C690 H693 0.929 . S
C691 C690 1.363 . S
C691 C697 1.428 . S
H692 C688 0.930 . S
H693 C690 0.929 . S
S694 N695 1.613 . S
S694 N696 1.610 . S
N695 S694 1.613 . S
N695 C698 1.350 . S
N696 S694 1.610 . S
N696 C697 1.351 . S
C697 C691 1.428 . S
C697 N696 1.351 . S
C697 C698 1.434 . S
C698 C689 1.429 . S
C698 N695 1.350 . S
C698 C697 1.434 . S
C699 C700 1.369 . S
C699 C701 1.419 . S
C699 H703 0.930 . S
C700 C699 1.369 . S
C700 C709 1.429 . S
C701 C699 1.419 . S
C701 C702 1.363 . S
C701 H704 0.929 . S
C702 C701 1.363 . S
C702 C708 1.428 . S
H703 C699 0.930 . S
H704 C701 0.929 . S
S705 N706 1.613 . S
S705 N707 1.610 . S
N706 S705 1.613 . S
N706 C709 1.350 . S
N707 S705 1.610 . S
N707 C708 1.351 . S
C708 C702 1.428 . S
C708 N707 1.351 . S
C708 C709 1.434 . S
C709 C700 1.429 . S
C709 N706 1.350 . S
C709 C708 1.434 . S
C710 C711 1.369 . S
C710 C712 1.419 . S
C710 H714 0.930 . S
C711 C710 1.369 . S
C711 C720 1.429 . S
C712 C710 1.419 . S
C712 C713 1.363 . S
C712 H715 0.929 . S
C713 C712 1.363 . S
C713 C719 1.428 . S
H714 C710 0.930 . S
H715 C712 0.929 . S
S716 N717 1.613 . S
S716 N718 1.610 . S
N717 S716 1.613 . S
N717 C720 1.350 . S
N718 S716 1.610 . S
N718 C719 1.351 . S
C719 C713 1.428 . S
C719 N718 1.351 . S
C719 C720 1.434 . S
C720 C711 1.429 . S
C720 N717 1.350 . S
C720 C719 1.434 . S
C721 C722 1.369 . S
C721 C723 1.419 . S
C721 H725 0.930 . S
C722 C721 1.369 . S
C722 C731 1.429 . S
C723 C721 1.419 . S
C723 C724 1.363 . S
C723 H726 0.929 . S
C724 C723 1.363 . S
C724 C730 1.428 . S
H725 C721 0.930 . S
H726 C723 0.929 . S
S727 N728 1.613 . S
S727 N729 1.610 . S
N728 S727 1.613 . S
N728 C731 1.350 . S
N729 S727 1.610 . S
N729 C730 1.351 . S
C730 C724 1.428 . S
C730 N729 1.351 . S
C730 C731 1.434 . S
C731 C722 1.429 . S
C731 N728 1.350 . S
C731 C730 1.434 . S
C732 C733 1.369 . S
C732 C734 1.419 . S
C732 H736 0.930 . S
C733 C732 1.369 . S
C733 C742 1.429 . S
C734 C732 1.419 . S
C734 C735 1.363 . S
C734 H737 0.929 . S
C735 C734 1.363 . S
C735 C741 1.428 . S
H736 C732 0.930 . S
H737 C734 0.929 . S
S738 N739 1.613 . S
S738 N740 1.610 . S
N739 S738 1.613 . S
N739 C742 1.350 . S
N740 S738 1.610 . S
N740 C741 1.351 . S
C741 C735 1.428 . S
C741 N740 1.351 . S
C741 C742 1.434 . S
C742 C733 1.429 . S
C742 N739 1.350 . S
C742 C741 1.434 . S
C743 C744 1.369 . S
C743 C745 1.419 . S
C743 H747 0.930 . S
C744 C743 1.369 . S
C744 C753 1.429 . S
C745 C743 1.419 . S
C745 C746 1.363 . S
C745 H748 0.929 . S
C746 C745 1.363 . S
C746 C752 1.428 . S
H747 C743 0.930 . S
H748 C745 0.929 . S
S749 N750 1.613 . S
S749 N751 1.610 . S
N750 S749 1.613 . S
N750 C753 1.350 . S
N751 S749 1.610 . S
N751 C752 1.351 . S
C752 C746 1.428 . S
C752 N751 1.351 . S
C752 C753 1.434 . S
C753 C744 1.429 . S
C753 N750 1.350 . S
C753 C752 1.434 . S
C754 C755 1.369 . S
C754 C756 1.419 . S
C754 H758 0.930 . S
C755 C754 1.369 . S
C755 C764 1.429 . S
C756 C754 1.419 . S
C756 C757 1.363 . S
C756 H759 0.929 . S
C757 C756 1.363 . S
C757 C763 1.428 . S
H758 C754 0.930 . S
H759 C756 0.929 . S
S760 N761 1.613 . S
S760 N762 1.610 . S
N761 S760 1.613 . S
N761 C764 1.350 . S
N762 S760 1.610 . S
N762 C763 1.351 . S
C763 C757 1.428 . S
C763 N762 1.351 . S
C763 C764 1.434 . S
C764 C755 1.429 . S
C764 N761 1.350 . S
C764 C763 1.434 . S
C765 C766 1.369 . S
C765 C767 1.419 . S
C765 H769 0.930 . S
C766 C765 1.369 . S
C766 C775 1.429 . S
C767 C765 1.419 . S
C767 C768 1.363 . S
C767 H770 0.929 . S
C768 C767 1.363 . S
C768 C774 1.428 . S
H769 C765 0.930 . S
H770 C767 0.929 . S
S771 N772 1.613 . S
S771 N773 1.610 . S
N772 S771 1.613 . S
N772 C775 1.350 . S
N773 S771 1.610 . S
N773 C774 1.351 . S
C774 C768 1.428 . S
C774 N773 1.351 . S
C774 C775 1.434 . S
C775 C766 1.429 . S
C775 N772 1.350 . S
C775 C774 1.434 . S
C776 C777 1.369 . S
C776 C778 1.419 . S
C776 H780 0.930 . S
C777 C776 1.369 . S
C777 C786 1.429 . S
C778 C776 1.419 . S
C778 C779 1.363 . S
C778 H781 0.929 . S
C779 C778 1.363 . S
C779 C785 1.428 . S
H780 C776 0.930 . S
H781 C778 0.929 . S
S782 N783 1.613 . S
S782 N784 1.610 . S
N783 S782 1.613 . S
N783 C786 1.350 . S
N784 S782 1.610 . S
N784 C785 1.351 . S
C785 C779 1.428 . S
C785 N784 1.351 . S
C785 C786 1.434 . S
C786 C777 1.429 . S
C786 N783 1.350 . S
C786 C785 1.434 . S
C787 C788 1.369 . S
C787 C789 1.419 . S
C787 H791 0.930 . S
C788 C787 1.369 . S
C788 C797 1.429 . S
C789 C787 1.419 . S
C789 C790 1.363 . S
C789 H792 0.929 . S
C790 C789 1.363 . S
C790 C796 1.428 . S
H791 C787 0.930 . S
H792 C789 0.929 . S
S793 N794 1.613 . S
S793 N795 1.610 . S
N794 S793 1.613 . S
N794 C797 1.350 . S
N795 S793 1.610 . S
N795 C796 1.351 . S
C796 C790 1.428 . S
C796 N795 1.351 . S
C796 C797 1.434 . S
C797 C788 1.429 . S
C797 N794 1.350 . S
C797 C796 1.434 . S
C798 C799 1.369 . S
C798 C800 1.419 . S
C798 H802 0.930 1_556 S
C799 C798 1.369 . S
C799 C808 1.429 . S
C800 C798 1.419 . S
C800 C801 1.363 . S
C800 H803 0.929 1_556 S
C801 C800 1.363 . S
C801 C807 1.428 . S
H802 C798 0.930 1_554 S
H803 C800 0.929 1_554 S
S804 N805 1.613 . S
S804 N806 1.610 . S
N805 S804 1.613 . S
N805 C808 1.350 . S
N806 S804 1.610 . S
N806 C807 1.351 . S
C807 C801 1.428 . S
C807 N806 1.351 . S
C807 C808 1.434 . S
C808 C799 1.429 . S
C808 N805 1.350 . S
C808 C807 1.434 . S
C809 C810 1.369 . S
C809 C811 1.419 . S
C809 H813 0.930 . S
C810 C809 1.369 . S
C810 C819 1.429 . S
C811 C809 1.419 . S
C811 C812 1.363 . S
C811 H814 0.929 . S
C812 C811 1.363 . S
C812 C818 1.428 . S
H813 C809 0.930 . S
H814 C811 0.929 . S
S815 N816 1.613 . S
S815 N817 1.610 . S
N816 S815 1.613 . S
N816 C819 1.350 . S
N817 S815 1.610 . S
N817 C818 1.351 . S
C818 C812 1.428 . S
C818 N817 1.351 . S
C818 C819 1.434 . S
C819 C810 1.429 . S
C819 N816 1.350 . S
C819 C818 1.434 . S
C820 C821 1.369 . S
C820 C822 1.419 . S
C820 H824 0.930 . S
C821 C820 1.369 . S
C821 C830 1.429 . S
C822 C820 1.419 . S
C822 C823 1.363 . S
C822 H825 0.929 . S
C823 C822 1.363 . S
C823 C829 1.428 . S
H824 C820 0.930 . S
H825 C822 0.929 . S
S826 N827 1.613 . S
S826 N828 1.610 . S
N827 S826 1.613 . S
N827 C830 1.350 . S
N828 S826 1.610 . S
N828 C829 1.351 . S
C829 C823 1.428 . S
C829 N828 1.351 . S
C829 C830 1.434 . S
C830 C821 1.429 . S
C830 N827 1.350 . S
C830 C829 1.434 . S
C831 C832 1.369 . S
C831 C833 1.419 . S
C831 H835 0.930 . S
C832 C831 1.369 . S
C832 C841 1.429 . S
C833 C831 1.419 . S
C833 C834 1.363 . S
C833 H836 0.929 . S
C834 C833 1.363 . S
C834 C840 1.428 . S
H835 C831 0.930 . S
H836 C833 0.929 . S
S837 N838 1.613 . S
S837 N839 1.610 . S
N838 S837 1.613 . S
N838 C841 1.350 . S
N839 S837 1.610 . S
N839 C840 1.351 . S
C840 C834 1.428 . S
C840 N839 1.351 . S
C840 C841 1.434 . S
C841 C832 1.429 . S
C841 N838 1.350 . S
C841 C840 1.434 . S
C842 C843 1.369 . S
C842 C844 1.419 . S
C842 H846 0.930 . S
C843 C842 1.369 . S
C843 C852 1.429 . S
C844 C842 1.419 . S
C844 C845 1.363 . S
C844 H847 0.929 . S
C845 C844 1.363 . S
C845 C851 1.428 . S
H846 C842 0.930 . S
H847 C844 0.929 . S
S848 N849 1.613 . S
S848 N850 1.610 . S
N849 S848 1.613 . S
N849 C852 1.350 . S
N850 S848 1.610 . S
N850 C851 1.351 . S
C851 C845 1.428 . S
C851 N850 1.351 . S
C851 C852 1.434 . S
C852 C843 1.429 . S
C852 N849 1.350 . S
C852 C851 1.434 . S
C853 C854 1.369 . S
C853 C855 1.419 . S
C853 H857 0.930 . S
C854 C853 1.369 . S
C854 C863 1.429 . S
C855 C853 1.419 . S
C855 C856 1.363 . S
C855 H858 0.929 . S
C856 C855 1.363 . S
C856 C862 1.428 . S
H857 C853 0.930 . S
H858 C855 0.929 . S
S859 N860 1.613 . S
S859 N861 1.610 . S
N860 S859 1.613 . S
N860 C863 1.350 . S
N861 S859 1.610 . S
N861 C862 1.351 . S
C862 C856 1.428 . S
C862 N861 1.351 . S
C862 C863 1.434 . S
C863 C854 1.429 . S
C863 N860 1.350 . S
C863 C862 1.434 . S
C337 C13 0.999 . S
C339 C39 1.025 . S
C348 C55 0.969 . S
C350 C36 0.997 . S
C359 C78 1.038 . S
C361 C56 1.049 . S
C370 C14 1.013 . S
C372 C81 1.004 . S
C381 C15 1.083 . S
C383 C206 1.088 . S
C392 C162 1.048 . S
C394 C38 1.061 . S
C403 C58 1.096 . S
C405 C224 1.156 . S
C414 C77 1.085 . S
C416 C288 1.071 . S
C425 C184 1.074 . S
C427 C35 1.131 . S
C436 C266 1.056 . S
C438 C57 1.037 . S
C447 C310 1.091 . S
C449 C80 1.150 . S
C458 C16 1.071 . S
C460 C248 1.131 . S
C469 C17 1.034 . S
C471 C186 1.024 . S
C480 C265 1.042 . S
C482 C100 1.028 . S
C491 C122 1.102 . S
C493 C311 1.109 . S
C502 C247 1.069 . S
C504 C139 1.061 . S
C513 C59 1.110 . S
C515 C164 1.102 . S
C524 C205 1.099 . S
C526 C97 1.100 . S
C535 C142 1.125 . S
C537 C223 1.108 . S
C546 C121 1.098 . S
C548 C245 1.161 . S
C557 C203 1.049 . S
C559 C120 1.037 . S
C568 C249 1.049 . S
C570 C161 1.060 . S
C579 C118 0.963 . S
C581 C99 1.000 . S
C590 C204 0.998 . S
C592 C182 1.020 . S
C601 C286 0.996 . S
C603 C246 1.020 . S
C612 C141 1.043 . S
C614 C119 1.052 . S
C623 C207 0.983 . S
C625 C307 0.965 . S
C634 C290 1.027 . S
C636 C18 1.018 . S
C645 C60 0.951 . S
C647 C312 0.939 . S
C656 C268 1.082 . S
C658 C34 1.090 . S
C667 C165 0.949 . S
C669 C123 0.942 . S
C678 C76 1.053 . S
C680 C226 1.060 . S
C689 C267 0.998 . S
C691 C287 1.019 . S
C700 C160 0.948 . S
C702 C270 0.990 . S
C711 C143 1.149 . S
C713 C163 1.087 . S
C722 C98 1.134 . S
C724 C289 1.087 . S
C733 C269 1.079 . S
C735 C330 1.073 . S
C744 C333 1.028 . S
C746 C185 1.035 . S
C755 C37 1.035 . S
C757 C202 1.047 . S
C766 C183 1.063 . S
C768 C140 1.077 . S
C777 C181 0.987 . S
C779 C225 1.026 . S
C788 C329 1.019 . S
C790 C144 1.005 . S
C799 C291 1.019 . S
C801 C332 1.026 . S
C810 C244 1.106 . S
C812 C79 1.123 . S
C821 C228 1.037 . S
C823 C308 1.053 . S
C832 C227 1.131 . S
C834 C331 1.067 . S
C843 C101 1.062 . S
C845 C309 1.045 . S
C854 C328 1.006 . S
C856 C102 1.024 . S
