# Generated by pormake.
# Topology sra, (4)-cn, num edge types: 1
# Building blocks:
#     Node 0, Type 0, BuildingBlock: QUQFOY_clean_sbu_1, # of connection points: 4
#     Node 1, Type 0, BuildingBlock: QUQFOY_clean_sbu_1, # of connection points: 4
#     Node 2, Type 0, BuildingBlock: QUQFOY_clean_sbu_1, # of connection points: 4
#     Node 3, Type 0, BuildingBlock: QUQFOY_clean_sbu_1, # of connection points: 4
#     Node 4, Type 0, BuildingBlock: QUQFOY_clean_sbu_1, # of connection points: 4
#     Node 5, Type 0, BuildingBlock: QUQFOY_clean_sbu_1, # of connection points: 4
#     Node 6, Type 0, BuildingBlock: QUQFOY_clean_sbu_1, # of connection points: 4
#     Node 7, Type 0, BuildingBlock: QUQFOY_clean_sbu_1, # of connection points: 4
#     Edge 8, Type (0, 0), BuildingBlock: CIFDUS_clean_linker_0, # of connection points: 2
#     Edge 9, Type (0, 0), BuildingBlock: CIFDUS_clean_linker_0, # of connection points: 2
#     Edge 10, Type (0, 0), BuildingBlock: CIFDUS_clean_linker_0, # of connection points: 2
#     Edge 11, Type (0, 0), BuildingBlock: CIFDUS_clean_linker_0, # of connection points: 2
#     Edge 12, Type (0, 0), BuildingBlock: CIFDUS_clean_linker_0, # of connection points: 2
#     Edge 13, Type (0, 0), BuildingBlock: CIFDUS_clean_linker_0, # of connection points: 2
#     Edge 14, Type (0, 0), BuildingBlock: CIFDUS_clean_linker_0, # of connection points: 2
#     Edge 15, Type (0, 0), BuildingBlock: CIFDUS_clean_linker_0, # of connection points: 2
#     Edge 16, Type (0, 0), BuildingBlock: CIFDUS_clean_linker_0, # of connection points: 2
#     Edge 17, Type (0, 0), BuildingBlock: CIFDUS_clean_linker_0, # of connection points: 2
#     Edge 18, Type (0, 0), BuildingBlock: CIFDUS_clean_linker_0, # of connection points: 2
#     Edge 19, Type (0, 0), BuildingBlock: CIFDUS_clean_linker_0, # of connection points: 2
#     Edge 20, Type (0, 0), BuildingBlock: CIFDUS_clean_linker_0, # of connection points: 2
#     Edge 21, Type (0, 0), BuildingBlock: CIFDUS_clean_linker_0, # of connection points: 2
#     Edge 22, Type (0, 0), BuildingBlock: CIFDUS_clean_linker_0, # of connection points: 2
#     Edge 23, Type (0, 0), BuildingBlock: CIFDUS_clean_linker_0, # of connection points: 2
# Relax obj value: 0.045
# Max RMSD: 0.077
# Mean RMSD: 0.077
data_MOF--net-sra--node1-QUQFOY_clean_sbu_1--edge1-CIFDUS_clean_linker_0
_symmetry_space_group_name_H-M    P1
_symmetry_Int_Tables_number       1
_symmetry_cell_setting            triclinic
loop_
_symmetry_equiv_pos_as_xyz
'x, y, z'
_cell_length_a     24.811057
_cell_length_b     46.576032
_cell_length_c     29.959462
_cell_angle_alpha  89.493927
_cell_angle_beta   89.975162
_cell_angle_gamma 90.069987
loop_
_atom_site_label
_atom_site_type_symbol
_atom_site_fract_x
_atom_site_fract_y
_atom_site_fract_z
_atom_type_partial_charge
O0 O 0.98201 0.10975 0.16258 0.0
Cd1 Cd 0.05279 0.1185 0.12898 0.0
Cd2 Cd 0.08666 0.12531 0.2117 0.0
O3 O 1.01401 0.10655 0.23091 0.0
O4 O 0.03811 0.101 0.06993 0.0
O5 O 0.10334 0.08591 0.1148 0.0
C6 C 0.07574 0.08274 0.07864 0.0
C7 C 0.17186 0.11007 0.23599 0.0
C8 C 0.97478 0.10437 0.20378 0.0
C9 C 0.07786 0.17825 0.1532 0.0
O10 O 0.08178 0.16796 0.19257 0.0
O11 O 0.07137 0.16157 0.1202 0.0
O12 O 0.13896 0.12297 0.26248 0.0
O13 O 0.15536 0.10451 0.19607 0.0
O14 O 0.17505 0.41432 0.14812 0.0
Cd15 Cd 0.10082 0.40477 0.12134 0.0
Cd16 Cd 0.07002 0.40853 0.20581 0.0
O17 O 0.14556 0.4273 0.21445 0.0
O18 O 0.10068 0.41762 0.05744 0.0
O19 O 0.05317 0.43876 0.11048 0.0
C20 C 0.0692 0.43822 0.06949 0.0
C21 C 0.98695 0.42689 0.22975 0.0
C22 C 0.18406 0.42468 0.18655 0.0
C23 C 0.07053 0.34979 0.16447 0.0
O24 O 0.07031 0.36452 0.2 0.0
O25 O 0.0766 0.36219 0.12676 0.0
O26 O 0.02175 0.41697 0.25794 0.0
O27 O 1.00096 0.42826 0.18828 0.0
O28 O 0.9691 0.91319 0.83983 0.0
Cd29 Cd 0.03147 0.9043 0.88354 0.0
Cd30 Cd 0.08453 0.89884 0.8074 0.0
O31 O 1.01724 0.9161 0.77832 0.0
O32 O 1.00502 0.92103 0.94013 0.0
O33 O 0.07746 0.93726 0.90475 0.0
C34 C 0.04312 0.9398 0.93692 0.0
C35 C 0.16802 0.91562 0.78358 0.0
C36 C 0.97244 0.91848 0.79825 0.0
C37 C 0.06686 0.8453 0.8632 0.0
O38 O 0.08019 0.85615 0.82569 0.0
O39 O 0.04999 0.86134 0.89438 0.0
O40 O 0.13789 0.90026 0.7582 0.0
O41 O 0.15053 0.92182 0.82295 0.0
O42 O 0.17225 0.60787 0.84706 0.0
Cd43 Cd 0.10318 0.61826 0.88196 0.0
Cd44 Cd 0.0584 0.61575 0.80248 0.0
O45 O 0.12923 0.59589 0.78565 0.0
O46 O 0.109 0.60361 0.94453 0.0
O47 O 0.05319 0.58535 0.89431 0.0
C48 C 0.07364 0.58446 0.93396 0.0
C49 C 0.97617 0.59821 0.77687 0.0
C50 C 0.17268 0.59752 0.8079 0.0
C51 C 0.06846 0.67403 0.84488 0.0
O52 O 0.06126 0.65969 0.80948 0.0
O53 O 0.08067 0.66118 0.88111 0.0
O54 O 1.01048 0.60986 0.74997 0.0
O55 O 0.98947 0.59545 0.81834 0.0
O56 O 0.46604 0.60686 0.66969 0.0
Cd57 Cd 0.52843 0.61536 0.62567 0.0
Cd58 Cd 0.58197 0.6214 0.7022 0.0
O59 O 0.514 0.60471 0.73134 0.0
O60 O 0.50195 0.59782 0.56963 0.0
O61 O 0.57448 0.58219 0.60537 0.0
C62 C 0.54006 0.57915 0.57339 0.0
C63 C 0.66491 0.60496 0.7281 0.0
C64 C 0.46925 0.60206 0.71141 0.0
C65 C 0.56492 0.6745 0.64461 0.0
O66 O 0.57854 0.66383 0.68217 0.0
O67 O 0.54722 0.65831 0.61389 0.0
O68 O 0.6344 0.62092 0.7522 0.0
O69 O 0.64814 0.59797 0.68885 0.0
O70 O 0.67581 0.91097 0.66292 0.0
Cd71 Cd 0.60653 0.90202 0.62748 0.0
Cd72 Cd 0.56125 0.90366 0.70769 0.0
O73 O 0.63241 0.92349 0.72397 0.0
O74 O 0.60761 0.92196 0.56791 0.0
O75 O 0.55618 0.93525 0.62466 0.0
C76 C 0.57392 0.94005 0.58477 0.0
C77 C 0.47951 0.92039 0.73584 0.0
C78 C 0.67604 0.92149 0.70199 0.0
C79 C 0.57063 0.84598 0.66231 0.0
O80 O 0.56417 0.85998 0.69815 0.0
O81 O 0.5824 0.85918 0.6262 0.0
O82 O 0.51446 0.90821 0.76151 0.0
O83 O 0.49185 0.92406 0.69436 0.0
O84 O 0.47921 0.41563 0.34094 0.0
Cd85 Cd 0.54952 0.40478 0.37338 0.0
Cd86 Cd 0.58634 0.40623 0.29021 0.0
O87 O 0.51248 0.4248 0.27417 0.0
O88 O 0.53645 0.41911 0.4348 0.0
O89 O 0.60029 0.43662 0.39046 0.0
C90 C 0.57354 0.438 0.42737 0.0
C91 C 0.67017 0.42425 0.26683 0.0
C92 C 0.47269 0.42433 0.30102 0.0
C93 C 0.5796 0.34834 0.33768 0.0
O94 O 0.58517 0.36242 0.30135 0.0
O95 O 0.56919 0.36146 0.37378 0.0
O96 O 0.63718 0.41254 0.23911 0.0
O97 O 0.6543 0.42723 0.3076 0.0
O98 O 0.67663 0.11286 0.36057 0.0
Cd99 Cd 0.60136 0.11816 0.3883 0.0
Cd100 Cd 0.57296 0.12331 0.30391 0.0
O101 O 0.6478 0.10437 0.2923 0.0
O102 O 0.59981 0.09758 0.44737 0.0
O103 O 0.55604 0.08263 0.38745 0.0
C104 C 0.57066 0.07824 0.42827 0.0
C105 C 0.4889 0.10819 0.27661 0.0
C106 C 0.68616 0.10533 0.32062 0.0
C107 C 0.57299 0.17679 0.35919 0.0
O108 O 0.57601 0.16613 0.32032 0.0
O109 O 0.57483 0.16039 0.39342 0.0
O110 O 0.52417 0.11992 0.25047 0.0
O111 O 0.50272 0.10342 0.31752 0.0
H112 H 0.0798 0.30995 0.09779 0.0
H113 H 0.05402 0.31801 0.2398 0.0
H114 H 0.05511 0.26613 0.24842 0.0
H115 H 0.06529 0.21854 0.21673 0.0
H116 H 0.08902 0.20905 0.07496 0.0
H117 H 0.08705 0.26136 0.0653 0.0
C118 C 0.07402 0.30034 0.13055 0.0
C119 C 0.06705 0.31803 0.16807 0.0
C120 C 0.07478 0.27022 0.13546 0.0
C121 C 0.05964 0.3051 0.21027 0.0
C122 C 0.06037 0.27535 0.21534 0.0
C123 C 0.07033 0.22783 0.18366 0.0
C124 C 0.07781 0.20986 0.1467 0.0
C125 C 0.06844 0.25774 0.17832 0.0
C126 C 0.08342 0.22237 0.10404 0.0
C127 C 0.08221 0.25228 0.0985 0.0
H128 H 0.06594 0.80602 0.79775 0.0
H129 H 0.06852 0.81348 0.94111 0.0
H130 H 0.06899 0.76095 0.94864 0.0
H131 H 0.06917 0.71275 0.91374 0.0
H132 H 0.0623 0.70701 0.76995 0.0
H133 H 0.06269 0.75898 0.76354 0.0
C134 C 0.06694 0.79623 0.83074 0.0
C135 C 0.06781 0.81365 0.8688 0.0
C136 C 0.06613 0.76625 0.83474 0.0
C137 C 0.06805 0.80054 0.91125 0.0
C138 C 0.06829 0.77052 0.91554 0.0
C139 C 0.06758 0.7229 0.88106 0.0
C140 C 0.06584 0.70584 0.84242 0.0
C141 C 0.06733 0.75311 0.87744 0.0
C142 C 0.06351 0.71943 0.80033 0.0
C143 C 0.06392 0.74924 0.79652 0.0
H144 H 0.56723 0.71403 0.70957 0.0
H145 H 0.56479 0.70616 0.56629 0.0
H146 H 0.56635 0.75871 0.55841 0.0
H147 H 0.56875 0.80715 0.59312 0.0
H148 H 0.56673 0.8129 0.73705 0.0
H149 H 0.56636 0.76103 0.74353 0.0
C150 C 0.56738 0.72371 0.6765 0.0
C151 C 0.5665 0.70616 0.63859 0.0
C152 C 0.5672 0.75368 0.67232 0.0
C153 C 0.56567 0.71918 0.59606 0.0
C154 C 0.56653 0.74922 0.59157 0.0
C155 C 0.56805 0.79701 0.62583 0.0
C156 C 0.56784 0.81411 0.66448 0.0
C157 C 0.56728 0.76675 0.62956 0.0
C158 C 0.56671 0.80051 0.70663 0.0
C159 C 0.56668 0.77073 0.7105 0.0
H160 H 0.56194 0.30938 0.40593 0.0
H161 H 0.60389 0.31538 0.26611 0.0
H162 H 0.60398 0.26345 0.26079 0.0
H163 H 0.59123 0.21639 0.29455 0.0
H164 H 0.55162 0.2086 0.43436 0.0
H165 H 0.5513 0.26108 0.44079 0.0
C166 C 0.57142 0.29931 0.37441 0.0
C167 C 0.58273 0.31648 0.33649 0.0
C168 C 0.57144 0.26908 0.37138 0.0
C169 C 0.59489 0.30293 0.2959 0.0
C170 C 0.59486 0.27313 0.2927 0.0
C171 C 0.58219 0.22605 0.3265 0.0
C172 C 0.57102 0.2085 0.36382 0.0
C173 C 0.58284 0.25603 0.33004 0.0
C174 C 0.56015 0.22156 0.40501 0.0
C175 C 0.56007 0.25158 0.40871 0.0
H176 H 0.3997 0.1007 0.32808 0.0
H177 H 0.45171 0.10519 0.1908 0.0
H178 H 0.35792 0.10286 0.16586 0.0
H179 H 0.26066 0.10398 0.18329 0.0
H180 H 0.20936 0.10358 0.32086 0.0
H181 H 0.30298 0.09962 0.34539 0.0
C182 C 0.39061 0.10067 0.29267 0.0
C183 C 0.43276 0.10308 0.26136 0.0
C184 C 0.33649 0.10027 0.27862 0.0
C185 C 0.4201 0.10339 0.21562 0.0
C186 C 0.36641 0.10212 0.20133 0.0
C187 C 0.26997 0.10252 0.2186 0.0
C188 C 0.22804 0.10403 0.25021 0.0
C189 C 0.32418 0.1012 0.23254 0.0
C190 C 0.24084 0.10252 0.29586 0.0
C191 C 0.29441 0.10031 0.30992 0.0
H192 H 0.75773 0.43287 0.32012 0.0
H193 H 0.70861 0.43066 0.18207 0.0
H194 H 0.80245 0.435 0.15836 0.0
H195 H 0.89889 0.43408 0.17672 0.0
H196 H 0.94855 0.43301 0.31471 0.0
H197 H 0.85443 0.43566 0.33845 0.0
C198 C 0.76748 0.4339 0.28485 0.0
C199 C 0.72612 0.43134 0.25294 0.0
C200 C 0.82183 0.43557 0.2714 0.0
C201 C 0.73959 0.43245 0.20736 0.0
C202 C 0.79333 0.43487 0.19374 0.0
C203 C 0.88923 0.43499 0.21199 0.0
C204 C 0.93083 0.43325 0.24386 0.0
C205 C 0.83489 0.43565 0.22544 0.0
C206 C 0.91741 0.43423 0.28943 0.0
C207 C 0.86352 0.43565 0.30306 0.0
H208 H 0.25661 0.92471 0.83464 0.0
H209 H 0.20087 0.92446 0.6983 0.0
H210 H 0.29313 0.93056 0.67153 0.0
H211 H 0.38989 0.92958 0.68654 0.0
H212 H 0.44674 0.92511 0.82248 0.0
H213 H 0.35402 0.92766 0.84983 0.0
C214 C 0.26471 0.92662 0.79915 0.0
C215 C 0.2223 0.924 0.76843 0.0
C216 C 0.31811 0.929 0.78395 0.0
C217 C 0.23311 0.92621 0.72251 0.0
C218 C 0.2858 0.92965 0.70719 0.0
C219 C 0.38207 0.92977 0.72217 0.0
C220 C 0.42496 0.92697 0.75244 0.0
C221 C 0.32872 0.93011 0.73755 0.0
C222 C 0.41425 0.92705 0.79851 0.0
C223 C 0.36126 0.92843 0.81416 0.0
H224 H 0.75328 0.59206 0.67871 0.0
H225 H 0.69729 0.60021 0.81433 0.0
H226 H 0.7891 0.59412 0.84201 0.0
H227 H 0.8861 0.59282 0.82719 0.0
H228 H 0.94316 0.58921 0.69134 0.0
H229 H 0.85039 0.58671 0.66423 0.0
C230 C 0.76116 0.5919 0.71433 0.0
C231 C 0.71882 0.59676 0.74444 0.0
C232 C 0.81436 0.58943 0.72993 0.0
C233 C 0.72945 0.59675 0.7905 0.0
C234 C 0.78191 0.5933 0.80636 0.0
C235 C 0.87823 0.59083 0.79173 0.0
C236 C 0.92127 0.59135 0.7613 0.0
C237 C 0.82485 0.59056 0.77632 0.0
C238 C 0.91055 0.58902 0.71541 0.0
C239 C 0.85754 0.58769 0.69988 0.0
H240 H 0.7767 0.9211 0.66563 0.0
H241 H 0.69137 0.9372 0.78859 0.0
H242 H 0.7765 0.94061 0.82855 0.0
H243 H 0.87421 0.93343 0.83034 0.0
H244 H 0.95989 0.91714 0.70772 0.0
H245 H 0.87564 0.91977 0.66593 0.0
C246 C 0.77673 0.92577 0.70103 0.0
C247 C 0.72766 0.92837 0.72414 0.0
C248 C 0.82587 0.92745 0.72403 0.0
C249 C 0.72848 0.93482 0.76994 0.0
C250 C 0.77718 0.93668 0.79295 0.0
C251 C 0.87455 0.93081 0.7944 0.0
C252 C 0.92308 0.92462 0.77232 0.0
C253 C 0.82598 0.93213 0.7706 0.0
C254 C 0.92301 0.92175 0.72563 0.0
C255 C 0.87481 0.92313 0.70168 0.0
H256 H 0.37117 0.58642 0.67955 0.0
H257 H 0.45641 0.60408 0.80188 0.0
H258 H 0.37222 0.60097 0.84376 0.0
H259 H 0.27334 0.59871 0.84421 0.0
H260 H 0.18839 0.58125 0.72157 0.0
H261 H 0.27361 0.5784 0.68154 0.0
C262 C 0.37144 0.58925 0.71545 0.0
C263 C 0.41984 0.59594 0.73741 0.0
C264 C 0.32288 0.58762 0.73932 0.0
C265 C 0.41965 0.59909 0.78406 0.0
C266 C 0.37147 0.59742 0.80806 0.0
C267 C 0.27346 0.59383 0.80888 0.0
C268 C 0.22444 0.59069 0.78587 0.0
C269 C 0.32266 0.59252 0.78583 0.0
C270 C 0.22544 0.58403 0.74015 0.0
C271 C 0.2742 0.5825 0.7171 0.0
H272 H 0.7244 0.09449 0.23679 0.0
H273 H 0.77607 0.10502 0.37326 0.0
H274 H 0.87005 0.1029 0.34991 0.0
H275 H 0.93793 0.10259 0.28995 0.0
H276 H 0.88594 0.09289 0.15341 0.0
H277 H 0.79242 0.08985 0.1777 0.0
C278 C 0.75615 0.09593 0.26154 0.0
C279 C 0.74287 0.10022 0.30666 0.0
C280 C 0.81042 0.09503 0.24786 0.0
C281 C 0.78482 0.10193 0.33821 0.0
C282 C 0.83878 0.10077 0.3249 0.0
C283 C 0.90626 0.09934 0.26557 0.0
C284 C 0.91918 0.09828 0.21987 0.0
C285 C 0.85212 0.098 0.27968 0.0
C286 C 0.87738 0.09405 0.1888 0.0
C287 C 0.82368 0.09235 0.20263 0.0
H288 H 0.22265 0.43554 0.27007 0.0
H289 H 0.27307 0.427 0.13293 0.0
H290 H 0.36731 0.42942 0.15563 0.0
H291 H 0.43564 0.42858 0.21523 0.0
H292 H 0.38472 0.4353 0.35251 0.0
H293 H 0.29106 0.43929 0.3289 0.0
C294 C 0.25418 0.43472 0.24503 0.0
C295 C 0.24058 0.43079 0.19991 0.0
C296 C 0.30853 0.43554 0.25839 0.0
C297 C 0.28219 0.42976 0.16798 0.0
C298 C 0.33625 0.43109 0.18093 0.0
C299 C 0.40417 0.43146 0.23991 0.0
C300 C 0.41732 0.43133 0.28559 0.0
C301 C 0.34997 0.43316 0.22617 0.0
C302 C 0.37585 0.43502 0.31712 0.0
C303 C 0.32212 0.43727 0.30367 0.0
H304 H 0.99528 0.04944 0.05113 0.0
H305 H 0.16809 0.05749 0.04699 0.0
H306 H 0.1741 0.01366 1.00186 0.0
H307 H 0.12873 0.97315 0.96294 0.0
H308 H 0.95629 0.96365 0.97575 0.0
H309 H 0.9515 1.00774 0.01847 0.0
C310 C 0.03423 0.04164 0.04005 0.0
C311 C 0.08108 0.05677 0.05132 0.0
C312 C 0.03732 0.01605 0.01602 0.0
C313 C 0.1315 0.04619 0.03811 0.0
C314 C 0.13485 0.02118 0.01246 0.0
C315 C 0.09031 0.98072 0.97543 0.0
C316 C 0.04292 0.9652 0.96611 0.0
C317 C 0.0879 1.0059 1.00115 0.0
C318 C 0.99339 0.97506 0.98274 0.0
C319 C 0.9905 1.00038 0.00695 0.0
H320 H 0.05461 0.52899 0.91319 0.0
H321 H 0.06701 0.58663 0.02449 0.0
H322 H 0.05832 0.54616 0.07672 0.0
H323 H 0.05714 0.49408 0.09048 0.0
H324 H 0.05721 0.43612 0.97911 0.0
H325 H 0.05047 0.47683 0.92707 0.0
C326 C 0.05427 0.53267 0.9489 0.0
C327 C 0.06104 0.56067 0.96512 0.0
C328 C 0.05193 0.50916 0.97862 0.0
C329 C 0.06175 0.56521 0.01137 0.0
C330 C 0.05692 0.54209 0.04117 0.0
C331 C 0.0545 0.49039 0.05484 0.0
C332 C 0.05724 0.46221 0.03854 0.0
C333 C 0.05338 0.51392 0.02517 0.0
C334 C 0.05502 0.45767 0.99232 0.0
C335 C 0.05135 0.48092 0.96261 0.0
H336 H 0.49258 0.46844 0.46124 0.0
H337 H 0.66585 0.4643 0.45717 0.0
H338 H 0.67165 0.50757 0.50357 0.0
H339 H 0.62608 0.5471 0.54465 0.0
H340 H 0.45263 0.55309 0.5393 0.0
H341 H 0.44808 0.5088 0.49697 0.0
C342 C 0.53161 0.47687 0.47097 0.0
C343 C 0.57871 0.46302 0.45687 0.0
C344 C 0.53444 0.50228 0.49554 0.0
C345 C 0.6291 0.47454 0.4683 0.0
C346 C 0.63233 0.49927 0.49462 0.0
C347 C 0.58747 0.53868 0.53394 0.0
C348 C 0.53975 0.55332 0.54508 0.0
C349 C 0.58515 0.51345 0.50829 0.0
C350 C 0.48994 0.54237 0.5308 0.0
C351 C 0.48722 0.51694 0.50683 0.0
H352 H 0.56776 0.9499 0.49512 0.0
H353 H 0.55314 0.99151 0.62254 0.0
H354 H 0.5476 0.03833 0.58545 0.0
H355 H 0.55602 0.06781 0.51696 0.0
H356 H 0.56323 0.02609 0.38923 0.0
H357 H 0.56187 0.97905 0.42603 0.0
C358 C 0.56245 0.96921 0.51461 0.0
C359 C 0.56143 0.96732 0.56143 0.0
C360 C 0.55828 0.99606 0.49301 0.0
C361 C 0.55393 0.99242 0.58639 0.0
C362 C 0.55109 0.01923 0.56524 0.0
C363 C 0.55634 0.04838 0.49727 0.0
C364 C 0.56026 0.05036 0.45057 0.0
C365 C 0.55457 0.02138 0.51862 0.0
C366 C 0.56008 0.02509 0.42528 0.0
C367 C 0.55966 0.99817 0.4463 0.0
loop_
_geom_bond_atom_site_label_1
_geom_bond_atom_site_label_2
_geom_bond_distance
_geom_bond_site_symmetry_2
_ccdc_geom_bond_type
O0 Cd1 2.223 1_655 S
O0 C8 1.315 . S
Cd1 O0 2.223 1_455 S
Cd1 O4 2.297 1_455 S
Cd1 O5 2.439 . S
Cd1 O11 2.240 . S
Cd2 O3 2.240 1_455 S
Cd2 O10 2.223 . S
Cd2 O12 2.297 . S
Cd2 O13 2.439 . S
O3 Cd2 2.240 1_655 S
O3 C8 1.279 . S
O4 Cd1 2.297 1_655 S
O4 C6 1.247 1_655 S
O5 Cd1 2.439 . S
O5 C6 1.208 . S
C6 O4 1.247 1_455 S
C6 O5 1.208 . S
C7 O12 1.247 . S
C7 O13 1.208 . S
C8 O0 1.315 . S
C8 O3 1.279 . S
C9 O10 1.315 . S
C9 O11 1.279 . S
O10 Cd2 2.223 . S
O10 C9 1.315 . S
O11 Cd1 2.240 . S
O11 C9 1.279 . S
O12 Cd2 2.297 . S
O12 C7 1.247 . S
O13 Cd2 2.439 . S
O13 C7 1.208 . S
O14 Cd15 2.223 . S
O14 C22 1.315 . S
Cd15 O14 2.223 . S
Cd15 O18 2.297 . S
Cd15 O19 2.439 . S
Cd15 O25 2.240 . S
Cd16 O17 2.240 . S
Cd16 O24 2.223 . S
Cd16 O26 2.297 1_455 S
Cd16 O27 2.439 1_455 S
O17 Cd16 2.240 . S
O17 C22 1.279 . S
O18 Cd15 2.297 . S
O18 C20 1.247 . S
O19 Cd15 2.439 . S
O19 C20 1.208 . S
C20 O18 1.247 . S
C20 O19 1.208 . S
C21 O26 1.247 . S
C21 O27 1.208 . S
C22 O14 1.315 . S
C22 O17 1.279 . S
C23 O24 1.315 . S
C23 O25 1.279 . S
O24 Cd16 2.223 . S
O24 C23 1.315 . S
O25 Cd15 2.240 . S
O25 C23 1.279 . S
O26 Cd16 2.297 1_655 S
O26 C21 1.247 . S
O27 Cd16 2.439 1_655 S
O27 C21 1.208 . S
O28 Cd29 2.223 1_655 S
O28 C36 1.315 . S
Cd29 O28 2.223 1_455 S
Cd29 O32 2.297 1_455 S
Cd29 O33 2.439 . S
Cd29 O39 2.240 . S
Cd30 O31 2.240 1_455 S
Cd30 O38 2.223 . S
Cd30 O40 2.297 . S
Cd30 O41 2.439 . S
O31 Cd30 2.240 1_655 S
O31 C36 1.279 . S
O32 Cd29 2.297 1_655 S
O32 C34 1.247 1_655 S
O33 Cd29 2.439 . S
O33 C34 1.208 . S
C34 O32 1.247 1_455 S
C34 O33 1.208 . S
C35 O40 1.247 . S
C35 O41 1.208 . S
C36 O28 1.315 . S
C36 O31 1.279 . S
C37 O38 1.315 . S
C37 O39 1.279 . S
O38 Cd30 2.223 . S
O38 C37 1.315 . S
O39 Cd29 2.240 . S
O39 C37 1.279 . S
O40 Cd30 2.297 . S
O40 C35 1.247 . S
O41 Cd30 2.439 . S
O41 C35 1.208 . S
O42 Cd43 2.223 . S
O42 C50 1.315 . S
Cd43 O42 2.223 . S
Cd43 O46 2.297 . S
Cd43 O47 2.439 . S
Cd43 O53 2.240 . S
Cd44 O45 2.240 . S
Cd44 O52 2.223 . S
Cd44 O54 2.297 1_455 S
Cd44 O55 2.439 1_455 S
O45 Cd44 2.240 . S
O45 C50 1.279 . S
O46 Cd43 2.297 . S
O46 C48 1.247 . S
O47 Cd43 2.439 . S
O47 C48 1.208 . S
C48 O46 1.247 . S
C48 O47 1.208 . S
C49 O54 1.247 . S
C49 O55 1.208 . S
C50 O42 1.315 . S
C50 O45 1.279 . S
C51 O52 1.315 . S
C51 O53 1.279 . S
O52 Cd44 2.223 . S
O52 C51 1.315 . S
O53 Cd43 2.240 . S
O53 C51 1.279 . S
O54 Cd44 2.297 1_655 S
O54 C49 1.247 . S
O55 Cd44 2.439 1_655 S
O55 C49 1.208 . S
O56 Cd57 2.223 . S
O56 C64 1.315 . S
Cd57 O56 2.223 . S
Cd57 O60 2.297 . S
Cd57 O61 2.439 . S
Cd57 O67 2.240 . S
Cd58 O59 2.240 . S
Cd58 O66 2.223 . S
Cd58 O68 2.297 . S
Cd58 O69 2.439 . S
O59 Cd58 2.240 . S
O59 C64 1.279 . S
O60 Cd57 2.297 . S
O60 C62 1.247 . S
O61 Cd57 2.439 . S
O61 C62 1.208 . S
C62 O60 1.247 . S
C62 O61 1.208 . S
C63 O68 1.247 . S
C63 O69 1.208 . S
C64 O56 1.315 . S
C64 O59 1.279 . S
C65 O66 1.315 . S
C65 O67 1.279 . S
O66 Cd58 2.223 . S
O66 C65 1.315 . S
O67 Cd57 2.240 . S
O67 C65 1.279 . S
O68 Cd58 2.297 . S
O68 C63 1.247 . S
O69 Cd58 2.439 . S
O69 C63 1.208 . S
O70 Cd71 2.223 . S
O70 C78 1.315 . S
Cd71 O70 2.223 . S
Cd71 O74 2.297 . S
Cd71 O75 2.439 . S
Cd71 O81 2.240 . S
Cd72 O73 2.240 . S
Cd72 O80 2.223 . S
Cd72 O82 2.297 . S
Cd72 O83 2.439 . S
O73 Cd72 2.240 . S
O73 C78 1.279 . S
O74 Cd71 2.297 . S
O74 C76 1.247 . S
O75 Cd71 2.439 . S
O75 C76 1.208 . S
C76 O74 1.247 . S
C76 O75 1.208 . S
C77 O82 1.247 . S
C77 O83 1.208 . S
C78 O70 1.315 . S
C78 O73 1.279 . S
C79 O80 1.315 . S
C79 O81 1.279 . S
O80 Cd72 2.223 . S
O80 C79 1.315 . S
O81 Cd71 2.240 . S
O81 C79 1.279 . S
O82 Cd72 2.297 . S
O82 C77 1.247 . S
O83 Cd72 2.439 . S
O83 C77 1.208 . S
O84 Cd85 2.223 . S
O84 C92 1.315 . S
Cd85 O84 2.223 . S
Cd85 O88 2.297 . S
Cd85 O89 2.439 . S
Cd85 O95 2.240 . S
Cd86 O87 2.240 . S
Cd86 O94 2.223 . S
Cd86 O96 2.297 . S
Cd86 O97 2.439 . S
O87 Cd86 2.240 . S
O87 C92 1.279 . S
O88 Cd85 2.297 . S
O88 C90 1.247 . S
O89 Cd85 2.439 . S
O89 C90 1.208 . S
C90 O88 1.247 . S
C90 O89 1.208 . S
C91 O96 1.247 . S
C91 O97 1.208 . S
C92 O84 1.315 . S
C92 O87 1.279 . S
C93 O94 1.315 . S
C93 O95 1.279 . S
O94 Cd86 2.223 . S
O94 C93 1.315 . S
O95 Cd85 2.240 . S
O95 C93 1.279 . S
O96 Cd86 2.297 . S
O96 C91 1.247 . S
O97 Cd86 2.439 . S
O97 C91 1.208 . S
O98 Cd99 2.223 . S
O98 C106 1.315 . S
Cd99 O98 2.223 . S
Cd99 O102 2.297 . S
Cd99 O103 2.439 . S
Cd99 O109 2.240 . S
Cd100 O101 2.240 . S
Cd100 O108 2.223 . S
Cd100 O110 2.297 . S
Cd100 O111 2.439 . S
O101 Cd100 2.240 . S
O101 C106 1.279 . S
O102 Cd99 2.297 . S
O102 C104 1.247 . S
O103 Cd99 2.439 . S
O103 C104 1.208 . S
C104 O102 1.247 . S
C104 O103 1.208 . S
C105 O110 1.247 . S
C105 O111 1.208 . S
C106 O98 1.315 . S
C106 O101 1.279 . S
C107 O108 1.315 . S
C107 O109 1.279 . S
O108 Cd100 2.223 . S
O108 C107 1.315 . S
O109 Cd99 2.240 . S
O109 C107 1.279 . S
O110 Cd100 2.297 . S
O110 C105 1.247 . S
O111 Cd100 2.439 . S
O111 C105 1.208 . S
H112 C118 0.930 1_655 S
H113 C121 0.930 . S
H114 C122 0.930 . S
H115 C123 0.930 . S
H116 C126 0.930 . S
H117 C127 0.930 . S
C118 H112 0.930 1_455 S
C118 C119 1.355 . S
C118 C120 1.415 . S
C119 C118 1.355 . S
C119 C121 1.419 . S
C120 C118 1.415 . S
C120 C125 1.425 . S
C120 C127 1.409 1_455 S
C121 H113 0.930 . S
C121 C119 1.419 . S
C121 C122 1.362 . S
C122 H114 0.930 . S
C122 C121 1.362 . S
C122 C125 1.409 . S
C123 H115 0.930 . S
C123 C124 1.355 . S
C123 C125 1.415 . S
C124 C123 1.355 . S
C124 C126 1.419 1_455 S
C125 C120 1.425 . S
C125 C122 1.409 . S
C125 C123 1.415 . S
C126 H116 0.930 . S
C126 C124 1.419 1_655 S
C126 C127 1.362 . S
C127 H117 0.930 . S
C127 C120 1.409 1_655 S
C127 C126 1.362 . S
H128 C134 0.930 . S
H129 C137 0.930 . S
H130 C138 0.930 . S
H131 C139 0.930 . S
H132 C142 0.930 . S
H133 C143 0.930 . S
C134 H128 0.930 . S
C134 C135 1.355 . S
C134 C136 1.415 . S
C135 C134 1.355 . S
C135 C137 1.419 1_455 S
C136 C134 1.415 . S
C136 C141 1.425 . S
C136 C143 1.409 . S
C137 H129 0.930 . S
C137 C135 1.419 1_655 S
C137 C138 1.362 . S
C138 H130 0.930 . S
C138 C137 1.362 . S
C138 C141 1.409 1_655 S
C139 H131 0.930 . S
C139 C140 1.355 . S
C139 C141 1.415 . S
C140 C139 1.355 . S
C140 C142 1.419 . S
C141 C136 1.425 . S
C141 C138 1.409 1_455 S
C141 C139 1.415 . S
C142 H132 0.930 . S
C142 C140 1.419 . S
C142 C143 1.362 . S
C143 H133 0.930 . S
C143 C136 1.409 . S
C143 C142 1.362 . S
H144 C150 0.930 . S
H145 C153 0.930 . S
H146 C154 0.930 . S
H147 C155 0.930 . S
H148 C158 0.930 . S
H149 C159 0.930 . S
C150 H144 0.930 . S
C150 C151 1.355 . S
C150 C152 1.415 . S
C151 C150 1.355 . S
C151 C153 1.419 . S
C152 C150 1.415 . S
C152 C157 1.425 . S
C152 C159 1.409 . S
C153 H145 0.930 . S
C153 C151 1.419 . S
C153 C154 1.362 . S
C154 H146 0.930 . S
C154 C153 1.362 . S
C154 C157 1.409 . S
C155 H147 0.930 . S
C155 C156 1.355 . S
C155 C157 1.415 . S
C156 C155 1.355 . S
C156 C158 1.419 . S
C157 C152 1.425 . S
C157 C154 1.409 . S
C157 C155 1.415 . S
C158 H148 0.930 . S
C158 C156 1.419 . S
C158 C159 1.362 . S
C159 H149 0.930 . S
C159 C152 1.409 . S
C159 C158 1.362 . S
H160 C166 0.930 . S
H161 C169 0.930 . S
H162 C170 0.930 . S
H163 C171 0.930 . S
H164 C174 0.930 . S
H165 C175 0.930 . S
C166 H160 0.930 . S
C166 C167 1.355 . S
C166 C168 1.415 . S
C167 C166 1.355 . S
C167 C169 1.419 . S
C168 C166 1.415 . S
C168 C173 1.425 . S
C168 C175 1.409 . S
C169 H161 0.930 . S
C169 C167 1.419 . S
C169 C170 1.362 . S
C170 H162 0.930 . S
C170 C169 1.362 . S
C170 C173 1.409 . S
C171 H163 0.930 . S
C171 C172 1.355 . S
C171 C173 1.415 . S
C172 C171 1.355 . S
C172 C174 1.419 . S
C173 C168 1.425 . S
C173 C170 1.409 . S
C173 C171 1.415 . S
C174 H164 0.930 . S
C174 C172 1.419 . S
C174 C175 1.362 . S
C175 H165 0.930 . S
C175 C168 1.409 . S
C175 C174 1.362 . S
H176 C182 0.930 . S
H177 C185 0.930 . S
H178 C186 0.930 . S
H179 C187 0.930 . S
H180 C190 0.930 . S
H181 C191 0.930 . S
C182 H176 0.930 . S
C182 C183 1.355 . S
C182 C184 1.415 . S
C183 C182 1.355 . S
C183 C185 1.419 . S
C184 C182 1.415 . S
C184 C189 1.425 . S
C184 C191 1.409 . S
C185 H177 0.930 . S
C185 C183 1.419 . S
C185 C186 1.362 . S
C186 H178 0.930 . S
C186 C185 1.362 . S
C186 C189 1.409 . S
C187 H179 0.930 . S
C187 C188 1.355 . S
C187 C189 1.415 . S
C188 C187 1.355 . S
C188 C190 1.419 . S
C189 C184 1.425 . S
C189 C186 1.409 . S
C189 C187 1.415 . S
C190 H180 0.930 . S
C190 C188 1.419 . S
C190 C191 1.362 . S
C191 H181 0.930 . S
C191 C184 1.409 . S
C191 C190 1.362 . S
H192 C198 0.930 . S
H193 C201 0.930 . S
H194 C202 0.930 . S
H195 C203 0.930 . S
H196 C206 0.930 . S
H197 C207 0.930 . S
C198 H192 0.930 . S
C198 C199 1.355 . S
C198 C200 1.415 . S
C199 C198 1.355 . S
C199 C201 1.419 . S
C200 C198 1.415 . S
C200 C205 1.425 . S
C200 C207 1.409 . S
C201 H193 0.930 . S
C201 C199 1.419 . S
C201 C202 1.362 . S
C202 H194 0.930 . S
C202 C201 1.362 . S
C202 C205 1.409 . S
C203 H195 0.930 . S
C203 C204 1.355 . S
C203 C205 1.415 . S
C204 C203 1.355 . S
C204 C206 1.419 . S
C205 C200 1.425 . S
C205 C202 1.409 . S
C205 C203 1.415 . S
C206 H196 0.930 . S
C206 C204 1.419 . S
C206 C207 1.362 . S
C207 H197 0.930 . S
C207 C200 1.409 . S
C207 C206 1.362 . S
H208 C214 0.930 . S
H209 C217 0.930 . S
H210 C218 0.930 . S
H211 C219 0.930 . S
H212 C222 0.930 . S
H213 C223 0.930 . S
C214 H208 0.930 . S
C214 C215 1.355 . S
C214 C216 1.415 . S
C215 C214 1.355 . S
C215 C217 1.419 . S
C216 C214 1.415 . S
C216 C221 1.425 . S
C216 C223 1.409 . S
C217 H209 0.930 . S
C217 C215 1.419 . S
C217 C218 1.362 . S
C218 H210 0.930 . S
C218 C217 1.362 . S
C218 C221 1.409 . S
C219 H211 0.930 . S
C219 C220 1.355 . S
C219 C221 1.415 . S
C220 C219 1.355 . S
C220 C222 1.419 . S
C221 C216 1.425 . S
C221 C218 1.409 . S
C221 C219 1.415 . S
C222 H212 0.930 . S
C222 C220 1.419 . S
C222 C223 1.362 . S
C223 H213 0.930 . S
C223 C216 1.409 . S
C223 C222 1.362 . S
H224 C230 0.930 . S
H225 C233 0.930 . S
H226 C234 0.930 . S
H227 C235 0.930 . S
H228 C238 0.930 . S
H229 C239 0.930 . S
C230 H224 0.930 . S
C230 C231 1.355 . S
C230 C232 1.415 . S
C231 C230 1.355 . S
C231 C233 1.419 . S
C232 C230 1.415 . S
C232 C237 1.425 . S
C232 C239 1.409 . S
C233 H225 0.930 . S
C233 C231 1.419 . S
C233 C234 1.362 . S
C234 H226 0.930 . S
C234 C233 1.362 . S
C234 C237 1.409 . S
C235 H227 0.930 . S
C235 C236 1.355 . S
C235 C237 1.415 . S
C236 C235 1.355 . S
C236 C238 1.419 . S
C237 C232 1.425 . S
C237 C234 1.409 . S
C237 C235 1.415 . S
C238 H228 0.930 . S
C238 C236 1.419 . S
C238 C239 1.362 . S
C239 H229 0.930 . S
C239 C232 1.409 . S
C239 C238 1.362 . S
H240 C246 0.930 . S
H241 C249 0.930 . S
H242 C250 0.930 . S
H243 C251 0.930 . S
H244 C254 0.930 . S
H245 C255 0.930 . S
C246 H240 0.930 . S
C246 C247 1.355 . S
C246 C248 1.415 . S
C247 C246 1.355 . S
C247 C249 1.419 . S
C248 C246 1.415 . S
C248 C253 1.425 . S
C248 C255 1.409 . S
C249 H241 0.930 . S
C249 C247 1.419 . S
C249 C250 1.362 . S
C250 H242 0.930 . S
C250 C249 1.362 . S
C250 C253 1.409 . S
C251 H243 0.930 . S
C251 C252 1.355 . S
C251 C253 1.415 . S
C252 C251 1.355 . S
C252 C254 1.419 . S
C253 C248 1.425 . S
C253 C250 1.409 . S
C253 C251 1.415 . S
C254 H244 0.930 . S
C254 C252 1.419 . S
C254 C255 1.362 . S
C255 H245 0.930 . S
C255 C248 1.409 . S
C255 C254 1.362 . S
H256 C262 0.930 . S
H257 C265 0.930 . S
H258 C266 0.930 . S
H259 C267 0.930 . S
H260 C270 0.930 . S
H261 C271 0.930 . S
C262 H256 0.930 . S
C262 C263 1.355 . S
C262 C264 1.415 . S
C263 C262 1.355 . S
C263 C265 1.419 . S
C264 C262 1.415 . S
C264 C269 1.425 . S
C264 C271 1.409 . S
C265 H257 0.930 . S
C265 C263 1.419 . S
C265 C266 1.362 . S
C266 H258 0.930 . S
C266 C265 1.362 . S
C266 C269 1.409 . S
C267 H259 0.930 . S
C267 C268 1.355 . S
C267 C269 1.415 . S
C268 C267 1.355 . S
C268 C270 1.419 . S
C269 C264 1.425 . S
C269 C266 1.409 . S
C269 C267 1.415 . S
C270 H260 0.930 . S
C270 C268 1.419 . S
C270 C271 1.362 . S
C271 H261 0.930 . S
C271 C264 1.409 . S
C271 C270 1.362 . S
H272 C278 0.930 . S
H273 C281 0.930 . S
H274 C282 0.930 . S
H275 C283 0.930 . S
H276 C286 0.930 . S
H277 C287 0.930 . S
C278 H272 0.930 . S
C278 C279 1.355 . S
C278 C280 1.415 . S
C279 C278 1.355 . S
C279 C281 1.419 . S
C280 C278 1.415 . S
C280 C285 1.425 . S
C280 C287 1.409 . S
C281 H273 0.930 . S
C281 C279 1.419 . S
C281 C282 1.362 . S
C282 H274 0.930 . S
C282 C281 1.362 . S
C282 C285 1.409 . S
C283 H275 0.930 . S
C283 C284 1.355 . S
C283 C285 1.415 . S
C284 C283 1.355 . S
C284 C286 1.419 . S
C285 C280 1.425 . S
C285 C282 1.409 . S
C285 C283 1.415 . S
C286 H276 0.930 . S
C286 C284 1.419 . S
C286 C287 1.362 . S
C287 H277 0.930 . S
C287 C280 1.409 . S
C287 C286 1.362 . S
H288 C294 0.930 . S
H289 C297 0.930 . S
H290 C298 0.930 . S
H291 C299 0.930 . S
H292 C302 0.930 . S
H293 C303 0.930 . S
C294 H288 0.930 . S
C294 C295 1.355 . S
C294 C296 1.415 . S
C295 C294 1.355 . S
C295 C297 1.419 . S
C296 C294 1.415 . S
C296 C301 1.425 . S
C296 C303 1.409 . S
C297 H289 0.930 . S
C297 C295 1.419 . S
C297 C298 1.362 . S
C298 H290 0.930 . S
C298 C297 1.362 . S
C298 C301 1.409 . S
C299 H291 0.930 . S
C299 C300 1.355 . S
C299 C301 1.415 . S
C300 C299 1.355 . S
C300 C302 1.419 . S
C301 C296 1.425 . S
C301 C298 1.409 . S
C301 C299 1.415 . S
C302 H292 0.930 . S
C302 C300 1.419 . S
C302 C303 1.362 . S
C303 H293 0.930 . S
C303 C296 1.409 . S
C303 C302 1.362 . S
H304 C310 0.930 . S
H305 C313 0.930 . S
H306 C314 0.930 . S
H307 C315 0.930 . S
H308 C318 0.930 . S
H309 C319 0.930 . S
C310 H304 0.930 . S
C310 C311 1.355 1_655 S
C310 C312 1.396 1_545 S
C311 C310 1.355 1_455 S
C311 C313 1.419 . S
C312 C310 1.396 1_565 S
C312 C317 1.424 1_664 S
C312 C319 1.430 . S
C313 H305 0.930 . S
C313 C311 1.419 . S
C313 C314 1.362 1_554 S
C314 H306 0.930 . S
C314 C313 1.362 1_556 S
C314 C317 1.430 . S
C315 H307 0.930 . S
C315 C316 1.355 . S
C315 C317 1.396 1_565 S
C316 C315 1.355 . S
C316 C318 1.419 1_455 S
C317 C312 1.424 1_446 S
C317 C314 1.430 . S
C317 C315 1.396 1_545 S
C318 H308 0.930 . S
C318 C316 1.419 1_655 S
C318 C319 1.362 1_556 S
C319 H309 0.930 . S
C319 C312 1.430 . S
C319 C318 1.362 1_554 S
H320 C326 0.930 . S
H321 C329 0.930 . S
H322 C330 0.930 1_654 S
H323 C331 0.930 . S
H324 C334 0.930 . S
H325 C335 0.930 1_556 S
C326 H320 0.930 . S
C326 C327 1.355 . S
C326 C328 1.415 . S
C327 C326 1.355 . S
C327 C329 1.419 . S
C328 C326 1.415 . S
C328 C333 1.425 1_556 S
C328 C335 1.409 1_556 S
C329 H321 0.930 . S
C329 C327 1.419 . S
C329 C330 1.362 . S
C330 H322 0.930 1_456 S
C330 C329 1.362 . S
C330 C333 1.409 1_556 S
C331 H323 0.930 . S
C331 C332 1.355 . S
C331 C333 1.415 . S
C332 C331 1.355 . S
C332 C334 1.419 . S
C333 C328 1.425 1_554 S
C333 C330 1.409 1_554 S
C333 C331 1.415 . S
C334 H324 0.930 . S
C334 C332 1.419 . S
C334 C335 1.362 . S
C335 H325 0.930 1_554 S
C335 C328 1.409 1_554 S
C335 C334 1.362 . S
H336 C342 0.930 . S
H337 C345 0.930 . S
H338 C346 0.930 . S
H339 C347 0.930 . S
H340 C350 0.930 . S
H341 C351 0.930 . S
C342 H336 0.930 . S
C342 C343 1.355 . S
C342 C344 1.415 . S
C343 C342 1.355 . S
C343 C345 1.419 . S
C344 C342 1.415 . S
C344 C349 1.425 . S
C344 C351 1.409 . S
C345 H337 0.930 . S
C345 C343 1.419 . S
C345 C346 1.362 . S
C346 H338 0.930 . S
C346 C345 1.362 . S
C346 C349 1.409 . S
C347 H339 0.930 . S
C347 C348 1.355 . S
C347 C349 1.415 . S
C348 C347 1.355 . S
C348 C350 1.419 . S
C349 C344 1.425 . S
C349 C346 1.409 . S
C349 C347 1.415 . S
C350 H340 0.930 . S
C350 C348 1.419 . S
C350 C351 1.362 . S
C351 H341 0.930 . S
C351 C344 1.409 . S
C351 C350 1.362 . S
H352 C358 0.930 . S
H353 C361 0.930 . S
H354 C362 0.930 . S
H355 C363 0.930 . S
H356 C366 0.930 . S
H357 C367 0.930 . S
C358 H352 0.930 . S
C358 C359 1.355 . S
C358 C360 1.415 . S
C359 C358 1.355 . S
C359 C361 1.419 . S
C360 C358 1.415 . S
C360 C365 1.425 1_565 S
C360 C367 1.409 . S
C361 H353 0.930 . S
C361 C359 1.419 . S
C361 C362 1.362 1_565 S
C362 H354 0.930 . S
C362 C361 1.362 1_545 S
C362 C365 1.409 . S
C363 H355 0.930 . S
C363 C364 1.355 . S
C363 C365 1.415 . S
C364 C363 1.355 . S
C364 C366 1.419 . S
C365 C360 1.425 1_545 S
C365 C362 1.409 . S
C365 C363 1.415 . S
C366 H356 0.930 . S
C366 C364 1.419 . S
C366 C367 1.362 1_545 S
C367 H357 0.930 . S
C367 C360 1.409 . S
C367 C366 1.362 1_565 S
C119 C23 1.494 . S
C124 C9 1.520 . S
C135 C37 1.515 . S
C140 C51 1.509 . S
C151 C65 1.504 . S
C156 C79 1.517 . S
C167 C93 1.497 . S
C172 C107 1.520 . S
C183 C105 1.303 . S
C188 C7 1.288 . S
C199 C91 1.299 . S
C204 C21 1.286 . S
C215 C35 1.311 . S
C220 C77 1.293 . S
C231 C63 1.297 . S
C236 C49 1.286 . S
C247 C78 1.695 . S
C252 C36 1.695 . S
C263 C64 1.695 . S
C268 C50 1.695 . S
C279 C106 1.663 . S
C284 C8 1.663 . S
C295 C22 1.665 . S
C300 C92 1.665 . S
C311 C6 1.507 . S
C316 C34 1.498 . S
C327 C48 1.509 . S
C332 C20 1.500 . S
C343 C90 1.507 . S
C348 C62 1.498 . S
C359 C76 1.519 . S
C364 C104 1.525 . S
