# Generated by pormake.
# Topology smm, (6)-cn, num edge types: 1
# Building blocks:
#     Node 0, Type 0, BuildingBlock: BETGAK_clean_sbu_0, # of connection points: 6
#     Node 1, Type 0, BuildingBlock: BETGAK_clean_sbu_0, # of connection points: 6
#     Node 2, Type 0, BuildingBlock: BETGAK_clean_sbu_0, # of connection points: 6
#     Node 3, Type 0, BuildingBlock: BETGAK_clean_sbu_0, # of connection points: 6
#     Node 4, Type 0, BuildingBlock: BETGAK_clean_sbu_0, # of connection points: 6
#     Node 5, Type 0, BuildingBlock: BETGAK_clean_sbu_0, # of connection points: 6
#     Node 6, Type 0, BuildingBlock: BETGAK_clean_sbu_0, # of connection points: 6
#     Node 7, Type 0, BuildingBlock: BETGAK_clean_sbu_0, # of connection points: 6
#     Node 8, Type 0, BuildingBlock: BETGAK_clean_sbu_0, # of connection points: 6
#     Edge 9, Type (0, 0), BuildingBlock: KIFKEQ_clean_linker_1, # of connection points: 2
#     Edge 10, Type (0, 0), BuildingBlock: KIFKEQ_clean_linker_1, # of connection points: 2
#     Edge 11, Type (0, 0), BuildingBlock: KIFKEQ_clean_linker_1, # of connection points: 2
#     Edge 12, Type (0, 0), BuildingBlock: KIFKEQ_clean_linker_1, # of connection points: 2
#     Edge 13, Type (0, 0), BuildingBlock: KIFKEQ_clean_linker_1, # of connection points: 2
#     Edge 14, Type (0, 0), BuildingBlock: KIFKEQ_clean_linker_1, # of connection points: 2
#     Edge 15, Type (0, 0), BuildingBlock: KIFKEQ_clean_linker_1, # of connection points: 2
#     Edge 16, Type (0, 0), BuildingBlock: KIFKEQ_clean_linker_1, # of connection points: 2
#     Edge 17, Type (0, 0), BuildingBlock: KIFKEQ_clean_linker_1, # of connection points: 2
#     Edge 18, Type (0, 0), BuildingBlock: KIFKEQ_clean_linker_1, # of connection points: 2
#     Edge 19, Type (0, 0), BuildingBlock: KIFKEQ_clean_linker_1, # of connection points: 2
#     Edge 20, Type (0, 0), BuildingBlock: KIFKEQ_clean_linker_1, # of connection points: 2
#     Edge 21, Type (0, 0), BuildingBlock: KIFKEQ_clean_linker_1, # of connection points: 2
#     Edge 22, Type (0, 0), BuildingBlock: KIFKEQ_clean_linker_1, # of connection points: 2
#     Edge 23, Type (0, 0), BuildingBlock: KIFKEQ_clean_linker_1, # of connection points: 2
#     Edge 24, Type (0, 0), BuildingBlock: KIFKEQ_clean_linker_1, # of connection points: 2
#     Edge 25, Type (0, 0), BuildingBlock: KIFKEQ_clean_linker_1, # of connection points: 2
#     Edge 26, Type (0, 0), BuildingBlock: KIFKEQ_clean_linker_1, # of connection points: 2
#     Edge 27, Type (0, 0), BuildingBlock: KIFKEQ_clean_linker_1, # of connection points: 2
#     Edge 28, Type (0, 0), BuildingBlock: KIFKEQ_clean_linker_1, # of connection points: 2
#     Edge 29, Type (0, 0), BuildingBlock: KIFKEQ_clean_linker_1, # of connection points: 2
#     Edge 30, Type (0, 0), BuildingBlock: KIFKEQ_clean_linker_1, # of connection points: 2
#     Edge 31, Type (0, 0), BuildingBlock: KIFKEQ_clean_linker_1, # of connection points: 2
#     Edge 32, Type (0, 0), BuildingBlock: KIFKEQ_clean_linker_1, # of connection points: 2
#     Edge 33, Type (0, 0), BuildingBlock: KIFKEQ_clean_linker_1, # of connection points: 2
#     Edge 34, Type (0, 0), BuildingBlock: KIFKEQ_clean_linker_1, # of connection points: 2
#     Edge 35, Type (0, 0), BuildingBlock: KIFKEQ_clean_linker_1, # of connection points: 2
# Relax obj value: 0.043
# Max RMSD: 0.121
# Mean RMSD: 0.121
data_MOF--net-smm--node1-BETGAK_clean_sbu_0--edge1-KIFKEQ_clean_linker_1
_symmetry_space_group_name_H-M    P1
_symmetry_Int_Tables_number       1
_symmetry_cell_setting            triclinic
loop_
_symmetry_equiv_pos_as_xyz
'x, y, z'
_cell_length_a     70.755314
_cell_length_b     70.732304
_cell_length_c     14.482817
_cell_angle_alpha  90.187311
_cell_angle_beta   89.914386
_cell_angle_gamma 120.01735
loop_
_atom_site_label
_atom_site_type_symbol
_atom_site_fract_x
_atom_site_fract_y
_atom_site_fract_z
_atom_type_partial_charge
La0 La 0.08895 0.24216 -0.00681 0.0
La1 La 1.04794 0.19955 0.03397 0.0
C2 C 0.11683 0.27694 0.9148 0.0
C3 C 0.12203 0.2995 0.89359 0.0
C4 C 0.12242 0.3138 0.96217 0.0
C5 C 0.12984 0.33578 0.94138 0.0
C6 C 0.13697 0.34389 0.85162 0.0
C7 C 0.1358 0.32928 0.78266 0.0
C8 C 0.12846 0.30739 0.80352 0.0
C9 C 0.08274 0.23139 0.16931 0.0
C10 C 1.04418 0.24173 0.0351 0.0
C11 C 1.01915 0.16313 0.09748 0.0
C12 C 1.0118 0.13972 0.08514 0.0
C13 C 1.013 0.13114 -0.00089 0.0
C14 C 1.00464 0.10863 0.98815 0.0
C15 C 0.99506 0.09429 0.06314 0.0
C16 C 0.99435 0.1031 0.14954 0.0
C17 C 1.00261 0.12555 0.16027 0.0
C18 C 0.0554 0.21043 0.85773 0.0
C19 C 0.09369 0.20068 0.01045 0.0
O20 O 0.11818 0.27218 0.00096 0.0
O21 O 0.1001 0.26103 0.87211 0.0
O22 O 0.10179 0.24288 0.13141 0.0
O23 O 0.06824 0.22829 0.11121 0.0
O24 O 0.06366 0.25186 -0.00519 0.0
O25 O 1.03619 0.22183 0.0694 0.0
O26 O 1.016 0.173 0.02796 0.0
O27 O 1.03828 0.17522 0.13584 0.0
O28 O 1.03615 0.19984 0.89393 0.0
O29 O 0.0692 0.21295 0.91788 0.0
O30 O 0.0732 0.19011 0.04003 0.0
O31 O 0.10268 0.22078 0.97743 0.0
H32 H 0.11747 0.30816 0.03223 0.0
H33 H 0.13021 0.34647 -0.0041 0.0
H34 H 0.14138 0.33494 0.71315 0.0
H35 H 0.12844 0.29671 0.7496 0.0
H36 H 1.02017 0.14179 0.94017 0.0
H37 H 1.00571 0.10245 0.92099 0.0
H38 H 0.9869 0.09256 0.20852 0.0
H39 H 1.00147 0.13182 0.22716 0.0
La40 La 0.88069 0.88296 -0.0047 0.0
La41 La 0.92351 0.88489 0.03381 0.0
C42 C 0.84574 0.87646 0.9198 0.0
C43 C 0.82364 0.85947 0.89037 0.0
C44 C 0.80911 0.84288 0.95005 0.0
C45 C 0.78737 0.82889 0.92339 0.0
C46 C 0.77974 0.83129 0.83685 0.0
C47 C 0.79465 0.84732 0.77611 0.0
C48 C 0.8163 0.86123 0.80267 0.0
C49 C 0.89229 0.88835 0.17047 0.0
C50 C 0.88154 0.83892 0.0359 0.0
C51 C 0.96025 0.89252 0.09314 0.0
C52 C 0.98375 0.90806 0.07682 0.0
C53 C 0.99717 0.90004 0.04509 0.0
C54 C 1.01956 0.91408 0.03223 0.0
C55 C 1.02914 0.93653 0.0514 0.0
C56 C 1.01567 0.9446 0.08289 0.0
C57 C 0.99321 0.93053 0.09538 0.0
C58 C 0.91196 0.88092 0.85822 0.0
C59 C 0.92214 0.9294 0.01209 0.0
O60 O 0.84969 0.87977 0.00845 0.0
O61 O 0.86238 0.8779 0.87391 0.0
O62 O 0.88084 0.89595 0.13271 0.0
O63 O 0.89508 0.87662 0.11276 0.0
O64 O 0.87139 0.84803 -0.00599 0.0
O65 O 0.90128 0.8511 0.07151 0.0
O66 O 0.94967 0.87885 0.02605 0.0
O67 O 0.94855 0.89995 0.13243 0.0
O68 O 0.92268 0.87239 0.89389 0.0
O69 O 0.90964 0.89235 0.9185 0.0
O70 O 0.93298 0.91961 0.03951 0.0
O71 O 0.90179 0.91816 0.98154 0.0
H72 H 0.81434 0.84115 0.01819 0.0
H73 H 0.77632 0.81679 0.97206 0.0
H74 H 0.78949 0.84938 0.70836 0.0
H75 H 0.8272 0.87388 0.75544 0.0
H76 H 0.99037 0.88278 0.03116 0.0
H77 H 1.02945 0.90724 0.00926 0.0
H78 H 1.02247 0.96182 0.09752 0.0
H79 H 0.98334 0.93725 0.12015 0.0
La80 La 0.24019 1.03496 -0.00606 0.0
La81 La 0.23833 0.07579 0.03503 0.0
C82 C 0.24745 1.00677 0.92015 0.0
C83 C 0.26416 1.00012 0.90977 0.0
C84 C 0.25873 0.97886 0.93498 0.0
C85 C 0.27306 0.97107 0.91727 0.0
C86 C 0.2932 0.98434 0.87335 0.0
C87 C 0.29886 1.00583 0.84967 0.0
C88 C 0.2845 1.01367 0.86778 0.0
C89 C 0.23549 0.04152 0.16976 0.0
C90 C 0.2845 0.07989 0.03573 0.0
C91 C 0.23045 0.10421 0.10147 0.0
C92 C 0.21431 0.11141 0.08932 0.0
C93 C 0.20396 0.10931 0.00411 0.0
C94 C 0.18978 0.11758 -0.00725 0.0
C95 C 0.18555 0.12796 0.06655 0.0
C96 C 0.19561 0.12955 0.15226 0.0
C97 C 0.20986 0.12139 0.16336 0.0
C98 C 0.24182 0.06869 0.85812 0.0
C99 C 0.19392 1.03013 0.00749 0.0
O100 O 0.23857 1.00447 0.0017 0.0
O101 O 0.25089 1.02469 0.87908 0.0
O102 O 0.22743 1.02237 0.13221 0.0
O103 O 0.24709 0.05578 0.11157 0.0
O104 O 0.27522 0.0602 -0.00301 0.0
O105 O 0.2725 0.08795 0.06868 0.0
O106 O 0.24367 0.10772 0.03212 0.0
O107 O 0.22342 0.08495 0.1383 0.0
O108 O 0.2497 0.08784 0.89504 0.0
O109 O 0.23083 0.05463 0.91796 0.0
O110 O 0.20366 0.05035 0.04052 0.0
O111 O 0.20531 1.02161 0.97226 0.0
H112 H 0.24305 0.96798 0.96628 0.0
H113 H 0.26797 0.95434 0.93523 0.0
H114 H 0.31433 1.01657 0.81667 0.0
H115 H 0.28915 1.03015 0.84727 0.0
H116 H 0.20706 0.10154 0.94608 0.0
H117 H 0.18209 0.11583 0.92622 0.0
H118 H 0.19293 0.13763 0.21027 0.0
H119 H 0.21771 0.12322 0.22958 0.0
La120 La 0.75557 0.57494 0.32865 0.0
La121 La 0.7146 0.53231 0.369 0.0
C122 C 0.78362 0.60985 0.25164 0.0
C123 C 0.79057 0.63321 0.23822 0.0
C124 C 0.81179 0.64902 0.26448 0.0
C125 C 0.8201 0.671 0.24244 0.0
C126 C 0.80745 0.67778 0.19292 0.0
C127 C 0.78585 0.66207 0.16963 0.0
C128 C 0.77751 0.63997 0.19175 0.0
C129 C 0.74929 0.56422 0.50487 0.0
C130 C 0.71075 0.57448 0.37078 0.0
C131 C 0.68582 0.49581 0.43189 0.0
C132 C 0.67866 0.47245 0.41913 0.0
C133 C 0.68094 0.46422 0.334 0.0
C134 C 0.67277 0.44176 0.32226 0.0
C135 C 0.66232 0.42714 0.39562 0.0
C136 C 0.66053 0.4356 0.48122 0.0
C137 C 0.66858 0.458 0.49269 0.0
C138 C 0.72206 0.54331 0.19289 0.0
C139 C 0.7602 0.53337 0.34396 0.0
O140 O 0.78605 0.60384 0.33409 0.0
O141 O 0.76558 0.59512 0.21157 0.0
O142 O 0.76833 0.57589 0.46725 0.0
O143 O 0.73481 0.56103 0.44657 0.0
O144 O 0.73041 0.58482 0.33209 0.0
O145 O 0.70264 0.55445 0.40384 0.0
O146 O 0.68273 0.50567 0.36222 0.0
O147 O 0.70487 0.50795 0.47078 0.0
O148 O 0.70282 0.53267 0.22909 0.0
O149 O 0.73588 0.5458 0.25289 0.0
O150 O 0.73989 0.52293 0.37545 0.0
O151 O 0.76894 0.55332 0.30947 0.0
H152 H 0.82225 0.64428 0.29996 0.0
H153 H 0.83663 0.68268 0.26316 0.0
H154 H 0.77568 0.6667 0.13122 0.0
H155 H 0.7611 0.62816 0.17015 0.0
H156 H 0.68879 0.4751 0.27633 0.0
H157 H 0.67469 0.43585 0.25582 0.0
H158 H 0.65238 0.42484 0.53888 0.0
H159 H 0.66662 0.46401 0.55885 0.0
La160 La 0.54858 0.21633 0.3255 0.0
La161 La 0.59104 0.21779 0.36599 0.0
C162 C 0.51324 0.20935 0.25221 0.0
C163 C 0.48986 0.19274 0.24164 0.0
C164 C 0.47409 0.19824 0.26748 0.0
C165 C 0.45197 0.18402 0.24956 0.0
C166 C 0.445 0.16391 0.20481 0.0
C167 C 0.46078 0.15818 0.18055 0.0
C168 C 0.48298 0.17243 0.19886 0.0
C169 C 0.55971 0.22082 0.50129 0.0
C170 C 0.54878 0.17176 0.36537 0.0
C171 C 0.62722 0.22544 0.43224 0.0
C172 C 0.65058 0.24168 0.42099 0.0
C173 C 0.65899 0.25232 0.33649 0.0
C174 C 0.68146 0.26661 0.32592 0.0
C175 C 0.69592 0.27065 0.39985 0.0
C176 C 0.68729 0.2603 0.48488 0.0
C177 C 0.66488 0.24595 0.49518 0.0
C178 C 0.58059 0.21449 0.18912 0.0
C179 C 0.59023 0.26244 0.33986 0.0
O180 O 0.51982 0.21814 0.33399 0.0
O181 O 0.52768 0.20586 0.21066 0.0
O182 O 0.54883 0.22909 0.46415 0.0
O183 O 0.56226 0.20916 0.44269 0.0
O184 O 0.53853 0.18123 0.32743 0.0
O185 O 0.56885 0.18358 0.39834 0.0
O186 O 0.61764 0.21248 0.36192 0.0
O187 O 0.61492 0.23231 0.47005 0.0
O188 O 0.59168 0.20643 0.22563 0.0
O189 O 0.57761 0.22554 0.24934 0.0
O190 O 0.6005 0.25252 0.37265 0.0
O191 O 0.57036 0.25121 0.30434 0.0
H192 H 0.47896 0.2139 0.29941 0.0
H193 H 0.44038 0.18917 0.26801 0.0
H194 H 0.45598 0.14272 0.1469 0.0
H195 H 0.49475 0.16771 0.17787 0.0
H196 H 0.64822 0.24937 0.27837 0.0
H197 H 0.6875 0.27452 0.25991 0.0
H198 H 0.69795 0.26284 0.54294 0.0
H199 H 0.65873 0.23787 0.56087 0.0
La200 La 0.90686 0.36778 0.33018 0.0
La201 La 0.90518 0.40874 0.3718 0.0
C202 C 0.91382 0.33993 0.25114 0.0
C203 C 0.93121 0.33477 0.22986 0.0
C204 C 0.94505 0.3344 0.29845 0.0
C205 C 0.95965 0.32703 0.27753 0.0
C206 C 0.96074 0.31993 0.18764 0.0
C207 C 0.94737 0.32109 0.11869 0.0
C208 C 0.93277 0.32838 0.13968 0.0
C209 C 0.90231 0.37401 0.5065 0.0
C210 C 0.95118 0.41268 0.37145 0.0
C211 C 0.8975 0.43749 0.43594 0.0
C212 C 0.88142 0.44476 0.42322 0.0
C213 C 0.87105 0.44256 0.33797 0.0
C214 C 0.85685 0.45081 0.32627 0.0
C215 C 0.85263 0.46127 0.39977 0.0
C216 C 0.86274 0.46299 0.48548 0.0
C217 C 0.877 0.45485 0.49692 0.0
C218 C 0.90862 0.40129 0.19533 0.0
C219 C 0.8606 0.36294 0.34797 0.0
O220 O 0.90759 0.33853 0.33727 0.0
O221 O 0.9147 0.3567 0.20883 0.0
O222 O 0.89475 0.35495 0.46834 0.0
O223 O 0.9137 0.38853 0.44849 0.0
O224 O 0.94184 0.39312 0.33152 0.0
O225 O 0.93926 0.42065 0.40616 0.0
O226 O 0.91062 0.44069 0.36656 0.0
O227 O 0.8904 0.41834 0.4739 0.0
O228 O 0.91721 0.42054 0.23175 0.0
O229 O 0.89736 0.38747 0.25542 0.0
O230 O 0.87049 0.38342 0.37798 0.0
O231 O 0.87176 0.354 0.31452 0.0
H232 H 0.94427 0.33933 0.36859 0.0
H233 H 0.96992 0.32666 0.33203 0.0
H234 H 0.94753 0.31553 0.04908 0.0
H235 H 0.92218 0.3284 0.08576 0.0
H236 H 0.87412 0.4347 0.2802 0.0
H237 H 0.84914 0.44895 0.25974 0.0
H238 H 0.86008 0.47114 0.54326 0.0
H239 H 0.88487 0.45676 0.56317 0.0
La240 La 0.42253 0.90874 0.66352 0.0
La241 La 0.38158 0.86607 0.70463 0.0
C242 C 0.45032 0.94347 0.58457 0.0
C243 C 0.45545 0.96599 0.56284 0.0
C244 C 0.45614 0.98045 0.6313 0.0
C245 C 0.46352 1.00239 0.6099 0.0
C246 C 0.47032 1.0103 0.51965 0.0
C247 C 0.46885 0.99553 0.45084 0.0
C248 C 0.46154 0.97367 0.47231 0.0
C249 C 0.41636 0.89803 0.83973 0.0
C250 C 0.37772 0.90822 0.70568 0.0
C251 C 0.35271 0.82988 0.76976 0.0
C252 C 0.34509 0.80641 0.75943 0.0
C253 C 0.35147 0.79829 0.68431 0.0
C254 C 0.34285 0.77572 0.67345 0.0
C255 C 0.32769 0.76091 0.73749 0.0
C256 C 0.32185 0.7693 0.81376 0.0
C257 C 0.33044 0.79179 0.82443 0.0
C258 C 0.38896 0.87691 0.5283 0.0
C259 C 0.42732 0.86724 0.68088 0.0
O260 O 0.45172 0.9388 0.67084 0.0
O261 O 0.4336 0.92748 0.54212 0.0
O262 O 0.43541 0.90955 0.80181 0.0
O263 O 0.40185 0.89486 0.78157 0.0
O264 O 0.3972 0.91842 0.66536 0.0
O265 O 0.36981 0.88832 0.73985 0.0
O266 O 0.34967 0.83945 0.69884 0.0
O267 O 0.37194 0.84196 0.8073 0.0
O268 O 0.36972 0.86626 0.5646 0.0
O269 O 0.40279 0.87948 0.58843 0.0
O270 O 0.40683 0.85663 0.71034 0.0
O271 O 0.4363 0.88738 0.64812 0.0
H272 H 0.45146 0.97498 0.70172 0.0
H273 H 0.46414 1.01322 0.66434 0.0
H274 H 0.47417 1.00103 0.38095 0.0
H275 H 0.46129 0.96287 0.41846 0.0
H276 H 0.3628 0.80936 0.63336 0.0
H277 H 0.34761 0.76986 0.61363 0.0
H278 H 0.31059 0.75847 0.86542 0.0
H279 H 0.32541 0.79776 0.8831 0.0
La280 La 0.21457 0.54986 0.66283 0.0
La281 La 0.25728 0.55164 0.7033 0.0
C282 C 0.17987 0.54352 0.58556 0.0
C283 C 0.15761 0.52659 0.55792 0.0
C284 C 0.14335 0.51006 0.61842 0.0
C285 C 0.1215 0.49603 0.59327 0.0
C286 C 0.11353 0.49835 0.50744 0.0
C287 C 0.12817 0.51434 0.44587 0.0
C288 C 0.14992 0.52828 0.47094 0.0
C289 C 0.22563 0.55469 0.83877 0.0
C290 C 0.21512 0.50562 0.70226 0.0
C291 C 0.29346 0.5589 0.76837 0.0
C292 C 0.31692 0.57466 0.75767 0.0
C293 C 0.32492 0.58928 0.68324 0.0
C294 C 0.34747 0.60317 0.67195 0.0
C295 C 0.36238 0.60263 0.73485 0.0
C296 C 0.35412 0.58827 0.81041 0.0
C297 C 0.33165 0.57444 0.82152 0.0
C298 C 0.24628 0.54802 0.52711 0.0
C299 C 0.25606 0.59622 0.6803 0.0
O300 O 0.18393 0.5476 0.67379 0.0
O301 O 0.19626 0.54409 0.54093 0.0
O302 O 0.21428 0.56239 0.80095 0.0
O303 O 0.22859 0.54316 0.78057 0.0
O304 O 0.20506 0.51493 0.66135 0.0
O305 O 0.23492 0.51759 0.73777 0.0
O306 O 0.28376 0.54615 0.69764 0.0
O307 O 0.28149 0.56621 0.80583 0.0
O308 O 0.25701 0.53951 0.56308 0.0
O309 O 0.24373 0.5593 0.58746 0.0
O310 O 0.26684 0.58643 0.70864 0.0
O311 O 0.2358 0.58498 0.64882 0.0
H312 H 0.14888 0.50839 0.68599 0.0
H313 H 0.11066 0.48397 0.64251 0.0
H314 H 0.12274 0.51633 0.37861 0.0
H315 H 0.16063 0.54088 0.42309 0.0
H316 H 0.31376 0.58968 0.63317 0.0
H317 H 0.35323 0.61389 0.61268 0.0
H318 H 0.36504 0.5877 0.8612 0.0
H319 H 0.32577 0.56334 0.87963 0.0
La320 La 0.57329 0.70094 0.66045 0.0
La321 La 0.57145 0.7418 0.70133 0.0
C322 C 0.57981 0.67217 0.58746 0.0
C323 C 0.59674 0.66676 0.56077 0.0
C324 C 0.61291 0.66862 0.62249 0.0
C325 C 0.62696 0.66081 0.59759 0.0
C326 C 0.62501 0.65091 0.51083 0.0
C327 C 0.60937 0.64995 0.44822 0.0
C328 C 0.59541 0.65775 0.47301 0.0
C329 C 0.56849 0.70765 0.83577 0.0
C330 C 0.61756 0.746 0.69746 0.0
C331 C 0.56375 0.77029 0.7683 0.0
C332 C 0.54763 0.77755 0.75655 0.0
C333 C 0.53735 0.77563 0.67133 0.0
C334 C 0.52322 0.78398 0.66035 0.0
C335 C 0.51898 0.79425 0.73453 0.0
C336 C 0.52897 0.79565 0.82024 0.0
C337 C 0.54317 0.78742 0.83097 0.0
C338 C 0.57467 0.73461 0.52439 0.0
C339 C 0.52694 0.6959 0.67672 0.0
O340 O 0.57588 0.67279 0.67547 0.0
O341 O 0.57907 0.68761 0.54092 0.0
O342 O 0.55989 0.68846 0.79796 0.0
O343 O 0.58033 0.72187 0.77781 0.0
O344 O 0.60817 0.72645 0.65754 0.0
O345 O 0.60569 0.75391 0.73324 0.0
O346 O 0.57689 0.77376 0.69869 0.0
O347 O 0.55671 0.75102 0.80511 0.0
O348 O 0.58262 0.75377 0.56118 0.0
O349 O 0.56379 0.72057 0.58456 0.0
O350 O 0.53671 0.7164 0.70662 0.0
O351 O 0.53823 0.68703 0.64411 0.0
H352 H 0.6143 0.67553 0.69069 0.0
H353 H 0.63876 0.66173 0.64762 0.0
H354 H 0.60767 0.64282 0.38028 0.0
H355 H 0.5831 0.65617 0.42421 0.0
H356 H 0.54046 0.76795 0.613 0.0
H357 H 0.51559 0.78237 0.5938 0.0
H358 H 0.52628 0.80364 0.87855 0.0
H359 H 0.55097 0.7891 0.8972 0.0
H360 H 0.13154 0.363 0.69638 0.0
H361 H 0.16486 0.37871 0.95917 0.0
H362 H 0.15001 0.40177 0.65763 0.0
H363 H 0.18267 0.41741 0.92189 0.0
H364 H 0.23063 0.48127 0.78354 0.0
H365 H 0.21093 0.44251 0.81884 0.0
H366 H 0.15261 0.43665 0.69631 0.0
H367 H 0.1725 0.47558 0.65939 0.0
C368 C 0.1427 0.37471 0.74615 0.0
C369 C 0.14675 0.36765 0.83081 0.0
C370 C 0.15314 0.39698 0.72424 0.0
C371 C 0.16798 0.41276 0.78626 0.0
C372 C 0.17161 0.40572 0.87178 0.0
C373 C 0.16115 0.38349 0.89375 0.0
C374 C 0.21363 0.47177 0.76366 0.0
C375 C 0.20318 0.48165 0.71874 0.0
C376 C 0.20225 0.44951 0.78464 0.0
C377 C 0.18008 0.43642 0.7614 0.0
C378 C 0.1697 0.44618 0.71477 0.0
C379 C 0.18111 0.46853 0.69377 0.0
H380 H 0.75133 0.78747 0.86579 0.0
H381 H 0.7546 0.84538 0.75173 0.0
H382 H 0.71236 0.76658 0.82844 0.0
H383 H 0.71604 0.82448 0.71243 0.0
H384 H 0.64237 0.78749 0.76383 0.0
H385 H 0.68137 0.8073 0.79502 0.0
H386 H 0.68653 0.75245 0.69548 0.0
H387 H 0.64723 0.73237 0.6649 0.0
C388 C 0.74378 0.79573 0.83256 0.0
C389 C 0.75615 0.81812 0.81169 0.0
C390 C 0.7215 0.78371 0.81032 0.0
C391 C 0.71104 0.79385 0.76755 0.0
C392 C 0.72349 0.81618 0.74615 0.0
C393 C 0.7457 0.82812 0.76782 0.0
C394 C 0.65177 0.77961 0.74809 0.0
C395 C 0.6416 0.75831 0.71163 0.0
C396 C 0.67421 0.79105 0.76563 0.0
C397 C 0.68714 0.78151 0.74763 0.0
C398 C 0.67702 0.76021 0.7109 0.0
C399 C 0.65452 0.74877 0.69269 0.0
H400 H 0.30257 0.958 0.97892 0.0
H401 H 0.31666 0.9901 0.71398 0.0
H402 H 0.32355 0.94061 0.93572 0.0
H403 H 0.33777 0.97267 0.67074 0.0
H404 H 0.38996 0.95081 0.66356 0.0
H405 H 0.3709 0.97057 0.70428 0.0
H406 H 0.31919 0.91213 0.82926 0.0
H407 H 0.33817 0.89256 0.78999 0.0
C408 C 0.31012 0.96134 0.91133 0.0
C409 C 0.30771 0.97531 0.84969 0.0
C410 C 0.32214 0.95133 0.88646 0.0
C411 C 0.33213 0.955 0.79921 0.0
C412 C 0.33041 0.96958 0.73867 0.0
C413 C 0.31832 0.9796 0.76358 0.0
C414 C 0.37446 0.94216 0.69926 0.0
C415 C 0.36569 0.9201 0.72385 0.0
C416 C 0.36352 0.95349 0.72244 0.0
C417 C 0.34362 0.94302 0.77107 0.0
C418 C 0.33469 0.92085 0.79361 0.0
C419 C 0.34555 0.90956 0.77035 0.0
H420 H 0.42739 0.14073 0.04462 0.0
H421 H 0.40924 0.15458 0.31047 0.0
H422 H 0.38889 0.11981 0.00103 0.0
H423 H 0.37089 0.13377 0.26693 0.0
H424 H 0.30832 0.11932 0.12173 0.0
H425 H 0.34683 0.13824 0.16129 0.0
H426 H 0.35363 0.0867 0.03355 0.0
H427 H 0.31488 0.06773 -0.00753 0.0
C428 C 0.4152 0.13905 0.09434 0.0
C429 C 0.42148 0.14953 0.18084 0.0
C430 C 0.39311 0.12707 0.06923 0.0
C431 C 0.37677 0.12532 0.12995 0.0
C432 C 0.38304 0.1352 0.21754 0.0
C433 C 0.40506 0.14712 0.24261 0.0
C434 C 0.31796 0.11198 0.10149 0.0
C435 C 0.30839 0.09191 0.05413 0.0
C436 C 0.34008 0.1228 0.12495 0.0
C437 C 0.35333 0.11389 0.10171 0.0
C438 C 0.34393 0.09407 0.05225 0.0
C439 C 0.32169 0.08317 0.0289 0.0
H440 H 0.98551 0.32553 0.03265 0.0
H441 H 0.96752 0.29199 0.29453 0.0
H442 H 1.00583 0.30707 -0.00662 0.0
H443 H 0.98842 0.27418 0.25674 0.0
H444 H 1.00426 0.22621 0.11631 0.0
H445 H 0.98528 0.24598 0.15262 0.0
H446 H 1.03804 0.30441 0.0321 0.0
H447 H 0.057 0.28446 -0.00584 0.0
C448 C 0.98599 0.31432 0.08211 0.0
C449 C 0.97476 0.3102 0.16665 0.0
C450 C 0.99782 0.30389 0.05992 0.0
C451 C 0.99866 0.28899 0.12152 0.0
C452 C 0.98787 0.28529 0.20695 0.0
C453 C 0.9761 0.29575 0.22921 0.0
C454 C 1.01184 0.24325 0.0971 0.0
C455 C 1.03223 0.25372 0.05242 0.0
C456 C 1.001 0.25466 0.11866 0.0
C457 C 1.01019 0.27687 0.09624 0.0
C458 C 1.0304 0.28728 0.04992 0.0
C459 C 1.0413 0.27584 0.02834 0.0
H460 H 0.83939 0.80793 0.98898 0.0
H461 H 0.89748 0.81553 0.12158 0.0
H462 H 0.82066 0.7687 0.02137 0.0
H463 H 0.87878 0.7768 0.1553 0.0
H464 H 0.84823 0.70411 0.12276 0.0
H465 H 0.86518 0.7423 0.07906 0.0
H466 H 0.80595 0.74251 0.14957 0.0
H467 H 0.78884 0.70398 0.1931 0.0
C468 C 0.84819 0.80128 0.02478 0.0
C469 C 0.87 0.81495 0.05225 0.0
C470 C 0.8374 0.77881 0.04395 0.0
C471 C 0.84821 0.7695 0.09063 0.0
C472 C 0.87001 0.78324 0.11778 0.0
C473 C 0.88073 0.80558 0.09879 0.0
C474 C 0.83882 0.71229 0.12966 0.0
C475 C 0.81725 0.701 0.16284 0.0
C476 C 0.84855 0.73424 0.10444 0.0
C477 C 0.83706 0.74565 0.11174 0.0
C478 C 0.81525 0.73423 0.14241 0.0
C479 C 0.80545 0.71214 0.16757 0.0
H480 H 0.088 0.5123 0.42484 0.0
H481 H 0.08532 0.45452 0.53722 0.0
H482 H 1.04936 0.49126 0.38725 0.0
H483 H 1.04627 0.43348 0.50163 0.0
H484 H 0.98093 0.39913 0.33891 0.0
H485 H 1.02023 0.41929 0.36946 0.0
H486 H 1.01485 0.47389 0.47079 0.0
H487 H 0.97586 0.45401 0.43959 0.0
C488 C 0.07921 0.49504 0.44097 0.0
C489 C 0.08986 0.48511 0.48378 0.0
C490 C 0.05695 0.48302 0.4203 0.0
C491 C 1.04465 0.46068 0.4417 0.0
C492 C 0.05529 0.45062 0.48355 0.0
C493 C 0.07762 0.46272 0.50478 0.0
C494 C 0.98816 0.41549 0.36721 0.0
C495 C 0.97519 0.42495 0.38653 0.0
C496 C 1.01066 0.42697 0.38536 0.0
C497 C 1.02072 0.44823 0.42245 0.0
C498 C 1.00773 0.45767 0.4411 0.0
C499 C 0.98529 0.44619 0.42356 0.0
H500 H 0.61124 0.61173 0.42497 0.0
H501 H 0.66869 0.66632 0.54351 0.0
H502 H 0.63233 0.5942 0.38659 0.0
H503 H 0.68979 0.64839 0.50696 0.0
H504 H 0.7244 0.61789 0.34135 0.0
H505 H 0.70425 0.637 0.37329 0.0
H506 H 0.64945 0.57673 0.46983 0.0
H507 H 0.66933 0.55767 0.4374 0.0
C508 C 0.62844 0.62009 0.44231 0.0
C509 C 0.63827 0.64051 0.48704 0.0
C510 C 0.64049 0.6099 0.42115 0.0
C511 C 0.66275 0.61983 0.44394 0.0
C512 C 0.67271 0.64037 0.48779 0.0
C513 C 0.66058 0.65055 0.50955 0.0
C514 C 0.70801 0.6087 0.36896 0.0
C515 C 0.69849 0.5862 0.38662 0.0
C516 C 0.69653 0.6197 0.38788 0.0
C517 C 0.67521 0.6084 0.42402 0.0
C518 C 0.66571 0.5859 0.44095 0.0
C519 C 0.67719 0.57497 0.4227 0.0
H520 H 0.50594 0.14188 0.32508 0.0
H521 H 0.56433 0.14729 0.4451 0.0
H522 H 0.48594 0.10301 0.36317 0.0
H523 H 0.54452 0.10859 0.4815 0.0
H524 H 0.4987 0.04527 0.62527 0.0
H525 H 0.51655 0.08389 0.58671 0.0
H526 H 0.48293 0.06789 0.32464 0.0
H527 H 0.46443 1.02919 0.36471 0.0
C528 C 0.51457 0.13479 0.35882 0.0
C529 C 0.53675 0.14781 0.38232 0.0
C530 C 0.5031 0.11247 0.38047 0.0
C531 C 0.51354 0.10266 0.42631 0.0
C532 C 0.53581 0.11564 0.44798 0.0
C533 C 0.54725 0.13786 0.42633 0.0
C534 C 0.49479 0.04996 0.56009 0.0
C535 C 0.48011 1.03403 0.49814 0.0
C536 C 0.50527 0.07214 0.53736 0.0
C537 C 0.50139 0.07906 0.45205 0.0
C538 C 0.48627 0.06319 0.39106 0.0
C539 C 0.4758 0.04097 0.41371 0.0
H540 H 0.1546 0.12632 0.18551 0.0
H541 H 0.18401 0.15154 0.91962 0.0
H542 H 0.13238 0.14358 0.16879 0.0
H543 H 0.16128 0.16828 0.90158 0.0
H544 H 0.13615 0.21638 0.95597 0.0
H545 H 0.15769 0.19824 0.96651 0.0
H546 H 0.10207 0.14111 0.08043 0.0
H547 H 0.08063 0.15931 0.07135 0.0
C548 C 0.15629 0.13551 0.12334 0.0
C549 C 0.17115 0.13757 0.05406 0.0
C550 C 0.14337 0.14523 0.11329 0.0
C551 C 0.14502 0.15736 0.03381 0.0
C552 C 0.15974 0.15925 0.9641 0.0
C553 C 0.17259 0.14944 0.97398 0.0
C554 C 0.12846 0.19992 0.98295 0.0
C555 C 0.10664 0.18938 0.01307 0.0
C556 C 0.14081 0.18946 0.98853 0.0
C557 C 0.13166 0.16821 0.02459 0.0
C558 C 0.10975 0.15759 0.05357 0.0
C559 C 0.0974 0.16801 0.04783 0.0
H560 H 0.90587 0.95593 0.96182 0.0
H561 H 0.96395 0.95802 0.06783 0.0
H562 H 0.92402 0.99566 0.97113 0.0
H563 H 0.98215 0.99768 0.07562 0.0
H564 H 0.99792 0.06546 0.18032 0.0
H565 H 0.98055 1.02591 0.16505 0.0
H566 H 0.95326 1.029 0.90278 0.0
H567 H 0.9701 0.06855 0.91949 0.0
C568 C 0.92255 0.96482 0.98651 0.0
C569 C 0.93338 0.95368 0.01434 0.0
C570 C 0.93301 0.98766 -0.00863 0.0
C571 C 0.95456 0.99993 0.02437 0.0
C572 C 0.96545 0.98878 0.05115 0.0
C573 C 0.95502 0.96598 0.04615 0.0
C574 C 0.98814 0.05771 0.11955 0.0
C575 C 0.98537 0.07023 0.0513 0.0
C576 C 0.97835 1.03502 0.1103 0.0
C577 C 0.96547 1.0242 0.03267 0.0
C578 C 0.96288 0.03674 0.96393 0.0
C579 C 0.97275 0.05946 0.97301 0.0
H580 H 0.05551 0.93698 0.91139 0.0
H581 H 0.05725 0.96937 0.16708 0.0
H582 H 0.09498 0.95999 0.89686 0.0
H583 H 0.09673 0.99226 0.1532 0.0
H584 H 0.16501 0.04316 0.06089 0.0
H585 H 0.12535 1.02141 0.06695 0.0
H586 H 0.12816 0.96538 0.96528 0.0
H587 H 0.16781 0.98728 0.957 0.0
C588 C 0.06433 0.94895 0.96479 0.0
C589 C 0.05317 0.95127 0.04052 0.0
C590 C 0.087 0.96214 0.95656 0.0
C591 C 0.09916 0.97798 0.024 0.0
C592 C 0.08794 0.98049 0.09914 0.0
C593 C 0.06525 0.96734 0.10718 0.0
C594 C 0.15719 1.02622 0.03939 0.0
C595 C 0.16968 1.017 0.00846 0.0
C596 C 0.1344 1.01369 0.04345 0.0
C597 C 0.12345 0.99156 0.01695 0.0
C598 C 0.13595 0.98242 0.98509 0.0
C599 C 0.15875 0.99497 0.98079 0.0
H600 H 0.80252 0.54906 0.28739 0.0
H601 H 0.74737 0.49211 0.40552 0.0
H602 H 0.8242 0.53104 0.29758 0.0
H603 H 0.76892 0.47403 0.4142 0.0
H604 H 0.82174 0.45969 0.5189 0.0
H605 H 0.79938 0.47678 0.50187 0.0
H606 H 0.82792 0.50108 0.23378 0.0
H607 H 0.85081 0.48453 0.25214 0.0
C608 C 0.79494 0.53264 0.31485 0.0
C609 C 0.77319 0.52211 0.34593 0.0
C610 C 0.80736 0.52226 0.32025 0.0
C611 C 0.79836 0.50109 0.35704 0.0
C612 C 0.77651 0.49045 0.38681 0.0
C613 C 0.76409 0.50081 0.3813 0.0
C614 C 0.82333 0.46876 0.45647 0.0
C615 C 0.83815 0.47077 0.38705 0.0
C616 C 0.81033 0.47838 0.44624 0.0
C617 C 0.81182 0.49034 0.36641 0.0
C618 C 0.82649 0.49218 0.29655 0.0
C619 C 0.83944 0.48247 0.30663 0.0
H620 H 0.63924 0.40186 0.24744 0.0
H621 H 0.66386 0.39796 0.51513 0.0
H622 H 0.62275 0.36238 0.22902 0.0
H623 H 0.64683 0.35848 0.49805 0.0
H624 H 0.63142 0.29091 0.40273 0.0
H625 H 0.64955 0.33058 0.41135 0.0
H626 H 0.59277 0.32879 0.29193 0.0
H627 H 0.57472 0.28907 0.28179 0.0
C628 C 0.64127 0.39261 0.30213 0.0
C629 C 0.65288 0.40312 0.38283 0.0
C630 C 0.63159 0.36993 0.29201 0.0
C631 C 0.63338 0.35718 0.36212 0.0
C632 C 0.64527 0.36776 0.44221 0.0
C633 C 0.65486 0.3904 0.45247 0.0
C634 C 0.62279 0.29893 0.37786 0.0
C635 C 0.60155 0.28671 0.34171 0.0
C636 C 0.63317 0.32172 0.38334 0.0
C637 C 0.62262 0.33294 0.35277 0.0
C638 C 0.60151 0.32074 0.31521 0.0
C639 C 0.59109 0.29792 0.30983 0.0
H640 H 0.72496 0.30131 0.52069 0.0
H641 H 0.72135 0.27271 0.25276 0.0
H642 H 0.76448 0.32367 0.50513 0.0
H643 H 0.76085 0.29557 0.23596 0.0
H644 H 0.83396 0.32058 0.29143 0.0
H645 H 0.79425 0.29897 0.30106 0.0
H646 H 0.79252 0.35428 0.41851 0.0
H647 H 0.83218 0.3758 0.4103 0.0
C648 C 0.73259 0.29983 0.45832 0.0
C649 C 0.71995 0.28515 0.38812 0.0
C650 C 0.75525 0.31282 0.44896 0.0
C651 C 0.7659 0.31143 0.36928 0.0
C652 C 0.75324 0.29691 0.29865 0.0
C653 C 0.73054 0.28398 0.30783 0.0
C654 C 0.82513 0.32818 0.31902 0.0
C655 C 0.83635 0.34994 0.35033 0.0
C656 C 0.80232 0.3158 0.32407 0.0
C657 C 0.79014 0.32484 0.36079 0.0
C658 C 0.80137 0.34668 0.39107 0.0
C659 C 0.82415 0.35907 0.38584 0.0
H660 H 0.51763 0.81815 0.58846 0.0
H661 H 0.48797 0.79247 0.85354 0.0
H662 H 0.49498 0.83499 0.57104 0.0
H663 H 0.46582 0.80983 0.83742 0.0
H664 H 0.41418 0.82575 0.74029 0.0
H665 H 0.4356 0.80753 0.74882 0.0
H666 H 0.49137 0.86487 0.63706 0.0
H667 H 0.46985 0.88306 0.62711 0.0
C668 C 0.50618 0.81597 0.64277 0.0
C669 C 0.50465 0.80394 0.72244 0.0
C670 C 0.49337 0.82584 0.63325 0.0
C671 C 0.4786 0.82384 0.70291 0.0
C672 C 0.47686 0.81156 0.78198 0.0
C673 C 0.48974 0.80178 0.79168 0.0
C674 C 0.43099 0.8345 0.71716 0.0
C675 C 0.44027 0.85594 0.68319 0.0
C676 C 0.44332 0.82406 0.72258 0.0
C677 C 0.46526 0.83473 0.69403 0.0
C678 C 0.47446 0.85606 0.65875 0.0
C679 C 0.46213 0.86654 0.6535 0.0
H680 H 0.29768 0.62521 0.73826 0.0
H681 H 0.23964 0.62232 0.62702 0.0
H682 H 0.3152 0.66488 0.74812 0.0
H683 H 0.25732 0.66195 0.63514 0.0
H684 H 0.28516 0.72945 0.76711 0.0
H685 H 0.26858 0.6901 0.7506 0.0
H686 H 0.33021 0.69818 0.65741 0.0
H687 H 0.34708 0.73769 0.67749 0.0
C688 C 0.28869 0.63301 0.71524 0.0
C689 C 0.26716 0.62048 0.68231 0.0
C690 C 0.29881 0.65581 0.72037 0.0
C691 C 0.28767 0.66668 0.69285 0.0
C692 C 0.26629 0.65415 0.6584 0.0
C693 C 0.25618 0.63137 0.65322 0.0
C694 C 0.29528 0.72288 0.74393 0.0
C695 C 0.31753 0.73681 0.7243 0.0
C696 C 0.28567 0.70026 0.73325 0.0
C697 C 0.298 0.69088 0.70244 0.0
C698 C 0.32025 0.7048 0.68214 0.0
C699 C 0.32988 0.72749 0.69272 0.0
H700 H 0.50085 0.65348 0.62079 0.0
H701 H 0.49798 0.70831 0.7374 0.0
H702 H 0.46123 0.63144 0.62903 0.0
H703 H 0.45835 0.68608 0.74732 0.0
H704 H 0.38555 0.64538 0.67719 0.0
H705 H 0.425 0.66802 0.65669 0.0
H706 H 0.43317 0.61422 0.74429 0.0
H707 H 0.39384 0.59143 0.76121 0.0
C708 C 0.4918 0.66087 0.64815 0.0
C709 C 0.5027 0.68269 0.67867 0.0
C710 C 0.46904 0.64816 0.6534 0.0
C711 C 0.45653 0.6569 0.68934 0.0
C712 C 0.4674 0.67885 0.71836 0.0
C713 C 0.49018 0.69157 0.71316 0.0
C714 C 0.39575 0.63832 0.69107 0.0
C715 C 0.38645 0.61657 0.72124 0.0
C716 C 0.41841 0.65138 0.68026 0.0
C717 C 0.43234 0.64299 0.69892 0.0
C718 C 0.42299 0.62119 0.72824 0.0
C719 C 0.40039 0.60818 0.73915 0.0
H720 H 0.09207 0.21792 0.7651 0.0
H721 H 1.02876 0.21158 0.72552 0.0
H722 H 0.09859 0.22216 0.5993 0.0
H723 H 1.03563 0.21723 0.5602 0.0
H724 H 1.04395 0.20693 0.25833 0.0
H725 H 1.03763 0.20153 0.42388 0.0
H726 H 0.10664 0.24449 0.47293 0.0
H727 H 0.11294 0.24844 0.3071 0.0
C728 C 0.07967 0.21775 0.72074 0.0
C729 C 0.05988 0.21433 0.75787 0.0
C730 C 0.08343 0.22034 0.62547 0.0
C731 C 0.06765 0.22001 0.5651 0.0
C732 C 1.04802 0.21706 0.60337 0.0
C733 C 1.04411 0.21403 0.69843 0.0
C734 C 0.05776 0.21496 0.3047 0.0
C735 C 0.07894 0.22795 0.26984 0.0
C736 C 0.05414 0.21213 0.39999 0.0
C737 C 0.07157 0.22264 0.46303 0.0
C738 C 0.09279 0.23573 0.42738 0.0
C739 C 0.09643 0.23817 0.33204 0.0
H740 H 0.91083 0.85324 0.72501 0.0
H741 H 0.90484 0.91041 0.76693 0.0
H742 H 0.90562 0.85487 0.55953 0.0
H743 H 0.90102 0.91306 0.60113 0.0
H744 H 0.87503 0.90137 0.30801 0.0
H745 H 0.87872 0.89882 0.47383 0.0
H746 H 0.92205 0.87319 0.42502 0.0
H747 H 0.91699 0.87439 0.2593 0.0
C748 C 0.90853 0.86625 0.6984 0.0
C749 C 0.90821 0.88167 0.75846 0.0
C750 C 0.90577 0.86736 0.60334 0.0
C751 C 0.90305 0.88422 0.56584 0.0
C752 C 0.90267 0.89961 0.6268 0.0
C753 C 0.905 0.89821 0.72203 0.0
C754 C 0.88536 0.89522 0.333 0.0
C755 C 0.89575 0.8881 0.27089 0.0
C756 C 0.88762 0.89388 0.4283 0.0
C757 C 0.90071 0.88577 0.4639 0.0
C758 C 0.91145 0.87907 0.40099 0.0
C759 C 0.9088 0.88001 0.30571 0.0
H760 H 0.25634 0.09874 0.7205 0.0
H761 H 0.22413 1.02934 0.76901 0.0
H762 H 0.25353 0.0923 0.55499 0.0
H763 H 0.22299 1.02276 0.60352 0.0
H764 H 0.20629 1.01515 0.29912 0.0
H765 H 0.20696 1.0218 0.4648 0.0
H766 H 0.26719 0.0832 0.43096 0.0
H767 H 0.26539 0.07708 0.26534 0.0
C768 C 0.24899 0.08208 0.69556 0.0
C769 C 0.2407 0.06456 0.75766 0.0
C770 C 0.24753 0.07834 0.60033 0.0
C771 C 0.2382 0.05697 0.56459 0.0
C772 C 0.22999 0.03944 0.62746 0.0
C773 C 0.23096 0.04319 0.72275 0.0
C774 C 0.21953 1.03011 0.32761 0.0
C775 C 0.23573 0.04562 0.26975 0.0
C776 C 0.22009 1.03389 0.4228 0.0
C777 C 0.23719 0.05306 0.46256 0.0
C778 C 0.25345 0.06848 0.40369 0.0
C779 C 0.25256 0.06493 0.30843 0.0
H780 H 0.77943 0.58158 0.64258 0.0
H781 H 0.71053 0.53955 0.59374 0.0
H782 H 0.77313 0.57765 0.80836 0.0
H783 H 0.70421 0.53418 0.75934 0.0
H784 H 0.6953 0.54429 0.06092 0.0
H785 H 0.70212 0.54994 0.89556 0.0
H786 H 0.76525 0.55525 0.93445 0.0
H787 H 0.75879 0.55103 0.10027 0.0
C788 C 0.76295 0.5712 0.66751 0.0
C789 C 0.74548 0.56082 0.60533 0.0
C790 C 0.75931 0.56878 0.76281 0.0
C791 C 0.73812 0.55554 0.79841 0.0
C792 C 0.7207 0.54488 0.73542 0.0
C793 C 0.72432 0.54769 0.64014 0.0
C794 C 0.71067 0.54683 0.03376 0.0
C795 C 0.72651 0.54723 0.09311 0.0
C796 C 0.71455 0.54986 0.93871 0.0
C797 C 0.73421 0.55291 0.90042 0.0
C798 C 0.75007 0.55335 0.96069 0.0
C799 C 0.74634 0.55078 0.05595 0.0
H800 H 0.56285 0.25016 0.6312 0.0
H801 H 0.56509 0.19075 0.59613 0.0
H802 H 0.56886 0.2495 0.79669 0.0
H803 H 0.56943 0.18897 0.76162 0.0
H804 H 0.59584 0.19969 0.05079 0.0
H805 H 0.59221 0.20249 0.88542 0.0
H806 H 0.5538 0.23364 0.93553 0.0
H807 H 0.55925 0.2325 0.10086 0.0
C808 C 0.56445 0.23686 0.65937 0.0
C809 C 0.56358 0.22056 0.60119 0.0
C810 C 0.56769 0.23631 0.75446 0.0
C811 C 0.56959 0.21912 0.79384 0.0
C812 C 0.56858 0.20277 0.73465 0.0
C813 C 0.5659 0.20365 0.63947 0.0
C814 C 0.58666 0.20718 0.02623 0.0
C815 C 0.57759 0.21563 0.08874 0.0
C816 C 0.58438 0.20862 0.93107 0.0
C817 C 0.5725 0.21812 0.8958 0.0
C818 C 0.56335 0.2265 0.95908 0.0
C819 C 0.56614 0.22554 0.0543 0.0
H820 H 0.91648 0.41278 0.59613 0.0
H821 H 0.88928 0.34381 0.64379 0.0
H822 H 0.91738 0.41909 0.76183 0.0
H823 H 0.89159 0.3501 0.80972 0.0
H824 H 0.87949 0.36456 0.10251 0.0
H825 H 0.87722 0.35806 0.93658 0.0
H826 H 0.93515 0.42114 0.89771 0.0
H827 H 0.93635 0.42799 0.06318 0.0
C828 C 0.91075 0.39897 0.64229 0.0
C829 C 0.90265 0.3778 0.60709 0.0
C830 C 0.91153 0.40258 0.73765 0.0
C831 C 0.90467 0.38515 0.80039 0.0
C832 C 0.89663 0.36394 0.7644 0.0
C833 C 0.89544 0.36031 0.669 0.0
C834 C 0.8917 0.37699 0.05816 0.0
C835 C 0.90804 0.39681 0.0954 0.0
C836 C 0.89053 0.37324 0.96283 0.0
C837 C 0.90596 0.38907 0.90251 0.0
C838 C 0.92261 0.40873 0.94087 0.0
C839 C 0.92348 0.41262 0.036 0.0
H840 H 0.42564 0.88444 0.43556 0.0
H841 H 0.36231 0.87805 0.39612 0.0
H842 H 0.43216 0.88873 0.26979 0.0
H843 H 0.36919 0.88377 0.23082 0.0
H844 H 0.37755 0.87366 0.92876 0.0
H845 H 0.3712 0.86822 0.09425 0.0
H846 H 0.44024 0.91103 0.14346 0.0
H847 H 0.44655 0.91501 0.97764 0.0
C848 C 0.41324 0.88427 0.39123 0.0
C849 C 0.39343 0.88081 0.42841 0.0
C850 C 0.417 0.8869 0.29597 0.0
C851 C 0.40122 0.88658 0.23562 0.0
C852 C 0.38158 0.88359 0.27394 0.0
C853 C 0.37766 0.88052 0.36899 0.0
C854 C 0.39136 0.88164 0.97514 0.0
C855 C 0.41255 0.89459 0.94029 0.0
C856 C 0.38773 0.87879 0.07042 0.0
C857 C 0.40516 0.88924 0.13352 0.0
C858 C 0.42638 0.90231 0.0979 0.0
C859 C 0.43004 0.90476 0.00254 0.0
H860 H 0.20881 0.5681 0.97677 0.0
H861 H 0.24986 0.54011 0.92755 0.0
H862 H 0.21269 0.56569 0.14256 0.0
H863 H 0.25521 0.53913 0.09307 0.0
H864 H 0.245 0.52017 0.39421 0.0
H865 H 0.23944 0.52148 0.22887 0.0
H866 H 0.23495 0.57977 0.26943 0.0
H867 H 0.23908 0.5774 0.43518 0.0
C868 C 0.21897 0.56175 0.00161 0.0
C869 C 0.22908 0.55435 0.93929 0.0
C870 C 0.22137 0.5605 0.09694 0.0
C871 C 0.23431 0.55221 0.13244 0.0
C872 C 0.24473 0.54518 0.06928 0.0
C873 C 0.24193 0.546 0.97401 0.0
C874 C 0.24266 0.53314 0.36741 0.0
C875 C 0.24244 0.54865 0.42724 0.0
C876 C 0.23969 0.53408 0.27236 0.0
C877 C 0.23688 0.55085 0.2345 0.0
C878 C 0.23665 0.56636 0.29526 0.0
C879 C 0.23917 0.56512 0.39051 0.0
H880 H 0.5547 0.69525 0.43436 0.0
H881 H 0.59091 0.76473 0.38727 0.0
H882 H 0.55362 0.68869 0.26901 0.0
H883 H 0.58805 0.75846 0.22172 0.0
H884 H 0.59919 0.74239 0.93261 0.0
H885 H 0.60082 0.74842 0.09822 0.0
H886 H 0.53876 0.68876 0.12925 0.0
H887 H 0.53826 0.68209 0.96367 0.0
C888 C 0.56249 0.70913 0.38849 0.0
C889 C 0.57338 0.73048 0.42384 0.0
C890 C 0.56151 0.70542 0.29316 0.0
C891 C 0.57082 0.72301 0.2306 0.0
C892 C 0.5812 0.7444 0.26676 0.0
C893 C 0.58268 0.74806 0.36205 0.0
C894 C 0.58592 0.7306 0.97512 0.0
C895 C 0.56863 0.71175 0.9357 0.0
C896 C 0.58672 0.73411 0.07038 0.0
C897 C 0.56989 0.71915 0.12851 0.0
C898 C 0.55232 0.70047 0.08793 0.0
C899 C 0.55186 0.69669 -0.00723 0.0
loop_
_geom_bond_atom_site_label_1
_geom_bond_atom_site_label_2
_geom_bond_distance
_geom_bond_site_symmetry_2
_ccdc_geom_bond_type
La0 C2 2.928 1_554 S
La0 O20 2.521 . S
La0 O21 2.628 1_554 S
La0 O22 2.554 . S
La0 O23 2.757 . S
La0 O24 2.470 . S
La0 O29 2.482 1_554 S
La0 O31 2.503 1_554 S
La1 C11 2.928 1_556 S
La1 O23 2.482 1_656 S
La1 O25 2.503 1_556 S
La1 O26 2.521 . S
La1 O27 2.628 1_556 S
La1 O28 2.554 . S
La1 O29 2.757 1_655 S
La1 O30 2.470 1_655 S
C2 La0 2.928 1_556 S
C2 C3 1.503 . S
C2 O20 1.261 1_556 S
C2 O21 1.243 . S
C3 C2 1.503 . S
C3 C4 1.394 1_556 S
C3 C8 1.373 . S
C4 C3 1.394 1_554 S
C4 C5 1.380 . S
C4 H32 0.930 . S
C5 C4 1.380 . S
C5 C6 1.376 1_554 S
C5 H33 0.930 . S
C6 C5 1.376 1_556 S
C6 C7 1.370 . S
C7 C6 1.370 . S
C7 C8 1.396 . S
C7 H34 0.929 . S
C8 C3 1.373 . S
C8 C7 1.396 . S
C8 H35 0.929 . S
C9 O22 1.240 . S
C9 O23 1.289 . S
C10 O24 1.258 1_655 S
C10 O25 1.256 . S
C11 La1 2.928 1_554 S
C11 C12 1.503 . S
C11 O26 1.261 1_554 S
C11 O27 1.243 . S
C12 C11 1.503 . S
C12 C13 1.394 1_554 S
C12 C17 1.373 . S
C13 C12 1.394 1_556 S
C13 C14 1.380 . S
C13 H36 0.930 . S
C14 C13 1.380 . S
C14 C15 1.376 1_556 S
C14 H37 0.930 . S
C15 C14 1.376 1_554 S
C15 C16 1.370 . S
C16 C15 1.370 . S
C16 C17 1.396 . S
C16 H38 0.929 . S
C17 C12 1.373 . S
C17 C16 1.396 . S
C17 H39 0.929 . S
C18 O28 1.240 1_455 S
C18 O29 1.289 . S
C19 O30 1.258 . S
C19 O31 1.256 . S
O20 La0 2.521 . S
O20 C2 1.261 1_554 S
O21 La0 2.628 1_556 S
O21 C2 1.243 . S
O22 La0 2.554 . S
O22 C9 1.240 . S
O23 La0 2.757 . S
O23 La1 2.482 1_454 S
O23 C9 1.289 . S
O24 La0 2.470 . S
O24 C10 1.258 1_455 S
O25 La1 2.503 1_554 S
O25 C10 1.256 . S
O26 La1 2.521 . S
O26 C11 1.261 1_556 S
O27 La1 2.628 1_554 S
O27 C11 1.243 . S
O28 La1 2.554 . S
O28 C18 1.240 1_655 S
O29 La0 2.482 1_556 S
O29 La1 2.757 1_455 S
O29 C18 1.289 . S
O30 La1 2.470 1_455 S
O30 C19 1.258 . S
O31 La0 2.503 1_556 S
O31 C19 1.256 . S
H32 C4 0.930 . S
H33 C5 0.930 . S
H34 C7 0.929 . S
H35 C8 0.929 . S
H36 C13 0.930 . S
H37 C14 0.930 . S
H38 C16 0.929 . S
H39 C17 0.929 . S
La40 C42 2.928 1_554 S
La40 O60 2.521 . S
La40 O61 2.628 1_554 S
La40 O62 2.554 . S
La40 O63 2.757 . S
La40 O64 2.470 . S
La40 O69 2.482 1_554 S
La40 O71 2.503 1_554 S
La41 C51 2.928 1_556 S
La41 O63 2.482 1_556 S
La41 O65 2.503 1_556 S
La41 O66 2.521 . S
La41 O67 2.628 1_556 S
La41 O68 2.554 . S
La41 O69 2.757 . S
La41 O70 2.470 . S
C42 La40 2.928 1_556 S
C42 C43 1.503 . S
C42 O60 1.261 1_556 S
C42 O61 1.243 . S
C43 C42 1.503 . S
C43 C44 1.394 1_556 S
C43 C48 1.373 . S
C44 C43 1.394 1_554 S
C44 C45 1.380 . S
C44 H72 0.930 . S
C45 C44 1.380 . S
C45 C46 1.376 1_554 S
C45 H73 0.930 . S
C46 C45 1.376 1_556 S
C46 C47 1.370 . S
C47 C46 1.370 . S
C47 C48 1.396 . S
C47 H74 0.929 . S
C48 C43 1.373 . S
C48 C47 1.396 . S
C48 H75 0.929 . S
C49 O62 1.240 . S
C49 O63 1.289 . S
C50 O64 1.258 . S
C50 O65 1.256 . S
C51 La41 2.928 1_554 S
C51 C52 1.503 . S
C51 O66 1.261 1_554 S
C51 O67 1.243 . S
C52 C51 1.503 . S
C52 C53 1.394 1_554 S
C52 C57 1.373 . S
C53 C52 1.394 1_556 S
C53 C54 1.380 . S
C53 H76 0.930 . S
C54 C53 1.380 . S
C54 C55 1.376 1_556 S
C54 H77 0.930 . S
C55 C54 1.376 1_554 S
C55 C56 1.370 . S
C56 C55 1.370 . S
C56 C57 1.396 . S
C56 H78 0.929 . S
C57 C52 1.373 . S
C57 C56 1.396 . S
C57 H79 0.929 . S
C58 O68 1.240 . S
C58 O69 1.289 . S
C59 O70 1.258 . S
C59 O71 1.256 . S
O60 La40 2.521 . S
O60 C42 1.261 1_554 S
O61 La40 2.628 1_556 S
O61 C42 1.243 . S
O62 La40 2.554 . S
O62 C49 1.240 . S
O63 La40 2.757 . S
O63 La41 2.482 1_554 S
O63 C49 1.289 . S
O64 La40 2.470 . S
O64 C50 1.258 . S
O65 La41 2.503 1_554 S
O65 C50 1.256 . S
O66 La41 2.521 . S
O66 C51 1.261 1_556 S
O67 La41 2.628 1_554 S
O67 C51 1.243 . S
O68 La41 2.554 . S
O68 C58 1.240 . S
O69 La40 2.482 1_556 S
O69 La41 2.757 . S
O69 C58 1.289 . S
O70 La41 2.470 . S
O70 C59 1.258 . S
O71 La40 2.503 1_556 S
O71 C59 1.256 . S
H72 C44 0.930 . S
H73 C45 0.930 . S
H74 C47 0.929 . S
H75 C48 0.929 . S
H76 C53 0.930 . S
H77 C54 0.930 . S
H78 C56 0.929 . S
H79 C57 0.929 . S
La80 C82 2.928 1_554 S
La80 O100 2.521 . S
La80 O101 2.628 1_554 S
La80 O102 2.554 . S
La80 O103 2.757 1_565 S
La80 O104 2.470 1_565 S
La80 O109 2.482 1_564 S
La80 O111 2.503 1_554 S
La81 C91 2.928 1_556 S
La81 O103 2.482 1_556 S
La81 O105 2.503 1_556 S
La81 O106 2.521 . S
La81 O107 2.628 1_556 S
La81 O108 2.554 . S
La81 O109 2.757 . S
La81 O110 2.470 . S
C82 La80 2.928 1_556 S
C82 C83 1.503 . S
C82 O100 1.261 1_556 S
C82 O101 1.243 . S
C83 C82 1.503 . S
C83 C84 1.394 1_556 S
C83 C88 1.373 . S
C84 C83 1.394 1_554 S
C84 C85 1.380 . S
C84 H112 0.930 . S
C85 C84 1.380 . S
C85 C86 1.376 1_554 S
C85 H113 0.930 . S
C86 C85 1.376 1_556 S
C86 C87 1.370 . S
C87 C86 1.370 . S
C87 C88 1.396 . S
C87 H114 0.929 . S
C88 C83 1.373 . S
C88 C87 1.396 . S
C88 H115 0.929 . S
C89 O102 1.240 1_545 S
C89 O103 1.289 . S
C90 O104 1.258 . S
C90 O105 1.256 . S
C91 La81 2.928 1_554 S
C91 C92 1.503 . S
C91 O106 1.261 1_554 S
C91 O107 1.243 . S
C92 C91 1.503 . S
C92 C93 1.394 1_554 S
C92 C97 1.373 . S
C93 C92 1.394 1_556 S
C93 C94 1.380 . S
C93 H116 0.930 . S
C94 C93 1.380 . S
C94 C95 1.376 1_556 S
C94 H117 0.930 . S
C95 C94 1.376 1_554 S
C95 C96 1.370 . S
C96 C95 1.370 . S
C96 C97 1.396 . S
C96 H118 0.929 . S
C97 C92 1.373 . S
C97 C96 1.396 . S
C97 H119 0.929 . S
C98 O108 1.240 . S
C98 O109 1.289 . S
C99 O110 1.258 1_565 S
C99 O111 1.256 . S
O100 La80 2.521 . S
O100 C82 1.261 1_554 S
O101 La80 2.628 1_556 S
O101 C82 1.243 . S
O102 La80 2.554 . S
O102 C89 1.240 1_565 S
O103 La80 2.757 1_545 S
O103 La81 2.482 1_554 S
O103 C89 1.289 . S
O104 La80 2.470 1_545 S
O104 C90 1.258 . S
O105 La81 2.503 1_554 S
O105 C90 1.256 . S
O106 La81 2.521 . S
O106 C91 1.261 1_556 S
O107 La81 2.628 1_554 S
O107 C91 1.243 . S
O108 La81 2.554 . S
O108 C98 1.240 . S
O109 La80 2.482 1_546 S
O109 La81 2.757 . S
O109 C98 1.289 . S
O110 La81 2.470 . S
O110 C99 1.258 1_545 S
O111 La80 2.503 1_556 S
O111 C99 1.256 . S
H112 C84 0.930 . S
H113 C85 0.930 . S
H114 C87 0.929 . S
H115 C88 0.929 . S
H116 C93 0.930 . S
H117 C94 0.930 . S
H118 C96 0.929 . S
H119 C97 0.929 . S
La120 C122 2.928 . S
La120 O140 2.521 . S
La120 O141 2.628 . S
La120 O142 2.554 . S
La120 O143 2.757 . S
La120 O144 2.470 . S
La120 O149 2.482 . S
La120 O151 2.503 . S
La121 C131 2.928 . S
La121 O143 2.482 . S
La121 O145 2.503 . S
La121 O146 2.521 . S
La121 O147 2.628 . S
La121 O148 2.554 . S
La121 O149 2.757 . S
La121 O150 2.470 . S
C122 La120 2.928 . S
C122 C123 1.503 . S
C122 O140 1.261 . S
C122 O141 1.243 . S
C123 C122 1.503 . S
C123 C124 1.394 . S
C123 C128 1.373 . S
C124 C123 1.394 . S
C124 C125 1.380 . S
C124 H152 0.930 . S
C125 C124 1.380 . S
C125 C126 1.376 . S
C125 H153 0.930 . S
C126 C125 1.376 . S
C126 C127 1.370 . S
C127 C126 1.370 . S
C127 C128 1.396 . S
C127 H154 0.929 . S
C128 C123 1.373 . S
C128 C127 1.396 . S
C128 H155 0.929 . S
C129 O142 1.240 . S
C129 O143 1.289 . S
C130 O144 1.258 . S
C130 O145 1.256 . S
C131 La121 2.928 . S
C131 C132 1.503 . S
C131 O146 1.261 . S
C131 O147 1.243 . S
C132 C131 1.503 . S
C132 C133 1.394 . S
C132 C137 1.373 . S
C133 C132 1.394 . S
C133 C134 1.380 . S
C133 H156 0.930 . S
C134 C133 1.380 . S
C134 C135 1.376 . S
C134 H157 0.930 . S
C135 C134 1.376 . S
C135 C136 1.370 . S
C136 C135 1.370 . S
C136 C137 1.396 . S
C136 H158 0.929 . S
C137 C132 1.373 . S
C137 C136 1.396 . S
C137 H159 0.929 . S
C138 O148 1.240 . S
C138 O149 1.289 . S
C139 O150 1.258 . S
C139 O151 1.256 . S
O140 La120 2.521 . S
O140 C122 1.261 . S
O141 La120 2.628 . S
O141 C122 1.243 . S
O142 La120 2.554 . S
O142 C129 1.240 . S
O143 La120 2.757 . S
O143 La121 2.482 . S
O143 C129 1.289 . S
O144 La120 2.470 . S
O144 C130 1.258 . S
O145 La121 2.503 . S
O145 C130 1.256 . S
O146 La121 2.521 . S
O146 C131 1.261 . S
O147 La121 2.628 . S
O147 C131 1.243 . S
O148 La121 2.554 . S
O148 C138 1.240 . S
O149 La120 2.482 . S
O149 La121 2.757 . S
O149 C138 1.289 . S
O150 La121 2.470 . S
O150 C139 1.258 . S
O151 La120 2.503 . S
O151 C139 1.256 . S
H152 C124 0.930 . S
H153 C125 0.930 . S
H154 C127 0.929 . S
H155 C128 0.929 . S
H156 C133 0.930 . S
H157 C134 0.930 . S
H158 C136 0.929 . S
H159 C137 0.929 . S
La160 C162 2.928 . S
La160 O180 2.521 . S
La160 O181 2.628 . S
La160 O182 2.554 . S
La160 O183 2.757 . S
La160 O184 2.470 . S
La160 O189 2.482 . S
La160 O191 2.503 . S
La161 C171 2.928 . S
La161 O183 2.482 . S
La161 O185 2.503 . S
La161 O186 2.521 . S
La161 O187 2.628 . S
La161 O188 2.554 . S
La161 O189 2.757 . S
La161 O190 2.470 . S
C162 La160 2.928 . S
C162 C163 1.503 . S
C162 O180 1.261 . S
C162 O181 1.243 . S
C163 C162 1.503 . S
C163 C164 1.394 . S
C163 C168 1.373 . S
C164 C163 1.394 . S
C164 C165 1.380 . S
C164 H192 0.930 . S
C165 C164 1.380 . S
C165 C166 1.376 . S
C165 H193 0.930 . S
C166 C165 1.376 . S
C166 C167 1.370 . S
C167 C166 1.370 . S
C167 C168 1.396 . S
C167 H194 0.929 . S
C168 C163 1.373 . S
C168 C167 1.396 . S
C168 H195 0.929 . S
C169 O182 1.240 . S
C169 O183 1.289 . S
C170 O184 1.258 . S
C170 O185 1.256 . S
C171 La161 2.928 . S
C171 C172 1.503 . S
C171 O186 1.261 . S
C171 O187 1.243 . S
C172 C171 1.503 . S
C172 C173 1.394 . S
C172 C177 1.373 . S
C173 C172 1.394 . S
C173 C174 1.380 . S
C173 H196 0.930 . S
C174 C173 1.380 . S
C174 C175 1.376 . S
C174 H197 0.930 . S
C175 C174 1.376 . S
C175 C176 1.370 . S
C176 C175 1.370 . S
C176 C177 1.396 . S
C176 H198 0.929 . S
C177 C172 1.373 . S
C177 C176 1.396 . S
C177 H199 0.929 . S
C178 O188 1.240 . S
C178 O189 1.289 . S
C179 O190 1.258 . S
C179 O191 1.256 . S
O180 La160 2.521 . S
O180 C162 1.261 . S
O181 La160 2.628 . S
O181 C162 1.243 . S
O182 La160 2.554 . S
O182 C169 1.240 . S
O183 La160 2.757 . S
O183 La161 2.482 . S
O183 C169 1.289 . S
O184 La160 2.470 . S
O184 C170 1.258 . S
O185 La161 2.503 . S
O185 C170 1.256 . S
O186 La161 2.521 . S
O186 C171 1.261 . S
O187 La161 2.628 . S
O187 C171 1.243 . S
O188 La161 2.554 . S
O188 C178 1.240 . S
O189 La160 2.482 . S
O189 La161 2.757 . S
O189 C178 1.289 . S
O190 La161 2.470 . S
O190 C179 1.258 . S
O191 La160 2.503 . S
O191 C179 1.256 . S
H192 C164 0.930 . S
H193 C165 0.930 . S
H194 C167 0.929 . S
H195 C168 0.929 . S
H196 C173 0.930 . S
H197 C174 0.930 . S
H198 C176 0.929 . S
H199 C177 0.929 . S
La200 C202 2.928 . S
La200 O220 2.521 . S
La200 O221 2.628 . S
La200 O222 2.554 . S
La200 O223 2.757 . S
La200 O224 2.470 . S
La200 O229 2.482 . S
La200 O231 2.503 . S
La201 C211 2.928 . S
La201 O223 2.482 . S
La201 O225 2.503 . S
La201 O226 2.521 . S
La201 O227 2.628 . S
La201 O228 2.554 . S
La201 O229 2.757 . S
La201 O230 2.470 . S
C202 La200 2.928 . S
C202 C203 1.503 . S
C202 O220 1.261 . S
C202 O221 1.243 . S
C203 C202 1.503 . S
C203 C204 1.394 . S
C203 C208 1.373 . S
C204 C203 1.394 . S
C204 C205 1.380 . S
C204 H232 0.930 . S
C205 C204 1.380 . S
C205 C206 1.376 . S
C205 H233 0.930 . S
C206 C205 1.376 . S
C206 C207 1.370 . S
C207 C206 1.370 . S
C207 C208 1.396 . S
C207 H234 0.929 . S
C208 C203 1.373 . S
C208 C207 1.396 . S
C208 H235 0.929 . S
C209 O222 1.240 . S
C209 O223 1.289 . S
C210 O224 1.258 . S
C210 O225 1.256 . S
C211 La201 2.928 . S
C211 C212 1.503 . S
C211 O226 1.261 . S
C211 O227 1.243 . S
C212 C211 1.503 . S
C212 C213 1.394 . S
C212 C217 1.373 . S
C213 C212 1.394 . S
C213 C214 1.380 . S
C213 H236 0.930 . S
C214 C213 1.380 . S
C214 C215 1.376 . S
C214 H237 0.930 . S
C215 C214 1.376 . S
C215 C216 1.370 . S
C216 C215 1.370 . S
C216 C217 1.396 . S
C216 H238 0.929 . S
C217 C212 1.373 . S
C217 C216 1.396 . S
C217 H239 0.929 . S
C218 O228 1.240 . S
C218 O229 1.289 . S
C219 O230 1.258 . S
C219 O231 1.256 . S
O220 La200 2.521 . S
O220 C202 1.261 . S
O221 La200 2.628 . S
O221 C202 1.243 . S
O222 La200 2.554 . S
O222 C209 1.240 . S
O223 La200 2.757 . S
O223 La201 2.482 . S
O223 C209 1.289 . S
O224 La200 2.470 . S
O224 C210 1.258 . S
O225 La201 2.503 . S
O225 C210 1.256 . S
O226 La201 2.521 . S
O226 C211 1.261 . S
O227 La201 2.628 . S
O227 C211 1.243 . S
O228 La201 2.554 . S
O228 C218 1.240 . S
O229 La200 2.482 . S
O229 La201 2.757 . S
O229 C218 1.289 . S
O230 La201 2.470 . S
O230 C219 1.258 . S
O231 La200 2.503 . S
O231 C219 1.256 . S
H232 C204 0.930 . S
H233 C205 0.930 . S
H234 C207 0.929 . S
H235 C208 0.929 . S
H236 C213 0.930 . S
H237 C214 0.930 . S
H238 C216 0.929 . S
H239 C217 0.929 . S
La240 C242 2.928 . S
La240 O260 2.521 . S
La240 O261 2.628 . S
La240 O262 2.554 . S
La240 O263 2.757 . S
La240 O264 2.470 . S
La240 O269 2.482 . S
La240 O271 2.503 . S
La241 C251 2.928 . S
La241 O263 2.482 . S
La241 O265 2.503 . S
La241 O266 2.521 . S
La241 O267 2.628 . S
La241 O268 2.554 . S
La241 O269 2.757 . S
La241 O270 2.470 . S
C242 La240 2.928 . S
C242 C243 1.503 . S
C242 O260 1.261 . S
C242 O261 1.243 . S
C243 C242 1.503 . S
C243 C244 1.394 . S
C243 C248 1.373 . S
C244 C243 1.394 . S
C244 C245 1.380 . S
C244 H272 0.930 . S
C245 C244 1.380 . S
C245 C246 1.376 . S
C245 H273 0.930 . S
C246 C245 1.376 . S
C246 C247 1.370 . S
C247 C246 1.370 . S
C247 C248 1.396 . S
C247 H274 0.929 . S
C248 C243 1.373 . S
C248 C247 1.396 . S
C248 H275 0.929 . S
C249 O262 1.240 . S
C249 O263 1.289 . S
C250 O264 1.258 . S
C250 O265 1.256 . S
C251 La241 2.928 . S
C251 C252 1.503 . S
C251 O266 1.261 . S
C251 O267 1.243 . S
C252 C251 1.503 . S
C252 C253 1.394 . S
C252 C257 1.373 . S
C253 C252 1.394 . S
C253 C254 1.380 . S
C253 H276 0.930 . S
C254 C253 1.380 . S
C254 C255 1.376 . S
C254 H277 0.930 . S
C255 C254 1.376 . S
C255 C256 1.370 . S
C256 C255 1.370 . S
C256 C257 1.396 . S
C256 H278 0.929 . S
C257 C252 1.373 . S
C257 C256 1.396 . S
C257 H279 0.929 . S
C258 O268 1.240 . S
C258 O269 1.289 . S
C259 O270 1.258 . S
C259 O271 1.256 . S
O260 La240 2.521 . S
O260 C242 1.261 . S
O261 La240 2.628 . S
O261 C242 1.243 . S
O262 La240 2.554 . S
O262 C249 1.240 . S
O263 La240 2.757 . S
O263 La241 2.482 . S
O263 C249 1.289 . S
O264 La240 2.470 . S
O264 C250 1.258 . S
O265 La241 2.503 . S
O265 C250 1.256 . S
O266 La241 2.521 . S
O266 C251 1.261 . S
O267 La241 2.628 . S
O267 C251 1.243 . S
O268 La241 2.554 . S
O268 C258 1.240 . S
O269 La240 2.482 . S
O269 La241 2.757 . S
O269 C258 1.289 . S
O270 La241 2.470 . S
O270 C259 1.258 . S
O271 La240 2.503 . S
O271 C259 1.256 . S
H272 C244 0.930 . S
H273 C245 0.930 . S
H274 C247 0.929 . S
H275 C248 0.929 . S
H276 C253 0.930 . S
H277 C254 0.930 . S
H278 C256 0.929 . S
H279 C257 0.929 . S
La280 C282 2.928 . S
La280 O300 2.521 . S
La280 O301 2.628 . S
La280 O302 2.554 . S
La280 O303 2.757 . S
La280 O304 2.470 . S
La280 O309 2.482 . S
La280 O311 2.503 . S
La281 C291 2.928 . S
La281 O303 2.482 . S
La281 O305 2.503 . S
La281 O306 2.521 . S
La281 O307 2.628 . S
La281 O308 2.554 . S
La281 O309 2.757 . S
La281 O310 2.470 . S
C282 La280 2.928 . S
C282 C283 1.503 . S
C282 O300 1.261 . S
C282 O301 1.243 . S
C283 C282 1.503 . S
C283 C284 1.394 . S
C283 C288 1.373 . S
C284 C283 1.394 . S
C284 C285 1.380 . S
C284 H312 0.930 . S
C285 C284 1.380 . S
C285 C286 1.376 . S
C285 H313 0.930 . S
C286 C285 1.376 . S
C286 C287 1.370 . S
C287 C286 1.370 . S
C287 C288 1.396 . S
C287 H314 0.929 . S
C288 C283 1.373 . S
C288 C287 1.396 . S
C288 H315 0.929 . S
C289 O302 1.240 . S
C289 O303 1.289 . S
C290 O304 1.258 . S
C290 O305 1.256 . S
C291 La281 2.928 . S
C291 C292 1.503 . S
C291 O306 1.261 . S
C291 O307 1.243 . S
C292 C291 1.503 . S
C292 C293 1.394 . S
C292 C297 1.373 . S
C293 C292 1.394 . S
C293 C294 1.380 . S
C293 H316 0.930 . S
C294 C293 1.380 . S
C294 C295 1.376 . S
C294 H317 0.930 . S
C295 C294 1.376 . S
C295 C296 1.370 . S
C296 C295 1.370 . S
C296 C297 1.396 . S
C296 H318 0.929 . S
C297 C292 1.373 . S
C297 C296 1.396 . S
C297 H319 0.929 . S
C298 O308 1.240 . S
C298 O309 1.289 . S
C299 O310 1.258 . S
C299 O311 1.256 . S
O300 La280 2.521 . S
O300 C282 1.261 . S
O301 La280 2.628 . S
O301 C282 1.243 . S
O302 La280 2.554 . S
O302 C289 1.240 . S
O303 La280 2.757 . S
O303 La281 2.482 . S
O303 C289 1.289 . S
O304 La280 2.470 . S
O304 C290 1.258 . S
O305 La281 2.503 . S
O305 C290 1.256 . S
O306 La281 2.521 . S
O306 C291 1.261 . S
O307 La281 2.628 . S
O307 C291 1.243 . S
O308 La281 2.554 . S
O308 C298 1.240 . S
O309 La280 2.482 . S
O309 La281 2.757 . S
O309 C298 1.289 . S
O310 La281 2.470 . S
O310 C299 1.258 . S
O311 La280 2.503 . S
O311 C299 1.256 . S
H312 C284 0.930 . S
H313 C285 0.930 . S
H314 C287 0.929 . S
H315 C288 0.929 . S
H316 C293 0.930 . S
H317 C294 0.930 . S
H318 C296 0.929 . S
H319 C297 0.929 . S
La320 C322 2.928 . S
La320 O340 2.521 . S
La320 O341 2.628 . S
La320 O342 2.554 . S
La320 O343 2.757 . S
La320 O344 2.470 . S
La320 O349 2.482 . S
La320 O351 2.503 . S
La321 C331 2.928 . S
La321 O343 2.482 . S
La321 O345 2.503 . S
La321 O346 2.521 . S
La321 O347 2.628 . S
La321 O348 2.554 . S
La321 O349 2.757 . S
La321 O350 2.470 . S
C322 La320 2.928 . S
C322 C323 1.503 . S
C322 O340 1.261 . S
C322 O341 1.243 . S
C323 C322 1.503 . S
C323 C324 1.394 . S
C323 C328 1.373 . S
C324 C323 1.394 . S
C324 C325 1.380 . S
C324 H352 0.930 . S
C325 C324 1.380 . S
C325 C326 1.376 . S
C325 H353 0.930 . S
C326 C325 1.376 . S
C326 C327 1.370 . S
C327 C326 1.370 . S
C327 C328 1.396 . S
C327 H354 0.929 . S
C328 C323 1.373 . S
C328 C327 1.396 . S
C328 H355 0.929 . S
C329 O342 1.240 . S
C329 O343 1.289 . S
C330 O344 1.258 . S
C330 O345 1.256 . S
C331 La321 2.928 . S
C331 C332 1.503 . S
C331 O346 1.261 . S
C331 O347 1.243 . S
C332 C331 1.503 . S
C332 C333 1.394 . S
C332 C337 1.373 . S
C333 C332 1.394 . S
C333 C334 1.380 . S
C333 H356 0.930 . S
C334 C333 1.380 . S
C334 C335 1.376 . S
C334 H357 0.930 . S
C335 C334 1.376 . S
C335 C336 1.370 . S
C336 C335 1.370 . S
C336 C337 1.396 . S
C336 H358 0.929 . S
C337 C332 1.373 . S
C337 C336 1.396 . S
C337 H359 0.929 . S
C338 O348 1.240 . S
C338 O349 1.289 . S
C339 O350 1.258 . S
C339 O351 1.256 . S
O340 La320 2.521 . S
O340 C322 1.261 . S
O341 La320 2.628 . S
O341 C322 1.243 . S
O342 La320 2.554 . S
O342 C329 1.240 . S
O343 La320 2.757 . S
O343 La321 2.482 . S
O343 C329 1.289 . S
O344 La320 2.470 . S
O344 C330 1.258 . S
O345 La321 2.503 . S
O345 C330 1.256 . S
O346 La321 2.521 . S
O346 C331 1.261 . S
O347 La321 2.628 . S
O347 C331 1.243 . S
O348 La321 2.554 . S
O348 C338 1.240 . S
O349 La320 2.482 . S
O349 La321 2.757 . S
O349 C338 1.289 . S
O350 La321 2.470 . S
O350 C339 1.258 . S
O351 La320 2.503 . S
O351 C339 1.256 . S
H352 C324 0.930 . S
H353 C325 0.930 . S
H354 C327 0.929 . S
H355 C328 0.929 . S
H356 C333 0.930 . S
H357 C334 0.930 . S
H358 C336 0.929 . S
H359 C337 0.929 . S
H360 C368 0.950 . S
H361 C373 0.950 1_554 S
H362 C370 0.950 . S
H363 C372 0.950 . S
H364 C374 0.950 . S
H365 C376 0.950 . S
H366 C378 0.950 . S
H367 C379 0.950 . S
C368 H360 0.950 . S
C368 C369 1.386 . S
C368 C370 1.391 . S
C369 C368 1.386 . S
C369 C373 1.393 . S
C370 H362 0.950 . S
C370 C368 1.391 . S
C370 C371 1.400 . S
C371 C370 1.400 . S
C371 C372 1.398 . S
C371 C377 1.491 . S
C372 H363 0.950 . S
C372 C371 1.398 . S
C372 C373 1.391 . S
C373 H361 0.950 1_556 S
C373 C369 1.393 . S
C373 C372 1.391 . S
C374 H364 0.950 . S
C374 C375 1.386 . S
C374 C376 1.391 . S
C375 C374 1.386 . S
C375 C379 1.393 . S
C376 H365 0.950 . S
C376 C374 1.391 . S
C376 C377 1.400 . S
C377 C371 1.491 . S
C377 C376 1.400 . S
C377 C378 1.398 . S
C378 H366 0.950 . S
C378 C377 1.398 . S
C378 C379 1.391 . S
C379 H367 0.950 . S
C379 C375 1.393 . S
C379 C378 1.391 . S
H380 C388 0.950 . S
H381 C393 0.950 . S
H382 C390 0.950 . S
H383 C392 0.950 . S
H384 C394 0.950 . S
H385 C396 0.950 . S
H386 C398 0.950 . S
H387 C399 0.950 . S
C388 H380 0.950 . S
C388 C389 1.386 . S
C388 C390 1.391 . S
C389 C388 1.386 . S
C389 C393 1.393 . S
C390 H382 0.950 . S
C390 C388 1.391 . S
C390 C391 1.400 . S
C391 C390 1.400 . S
C391 C392 1.398 . S
C391 C397 1.491 . S
C392 H383 0.950 . S
C392 C391 1.398 . S
C392 C393 1.391 . S
C393 H381 0.950 . S
C393 C389 1.393 . S
C393 C392 1.391 . S
C394 H384 0.950 . S
C394 C395 1.386 . S
C394 C396 1.391 . S
C395 C394 1.386 . S
C395 C399 1.393 . S
C396 H385 0.950 . S
C396 C394 1.391 . S
C396 C397 1.400 . S
C397 C391 1.491 . S
C397 C396 1.400 . S
C397 C398 1.398 . S
C398 H386 0.950 . S
C398 C397 1.398 . S
C398 C399 1.391 . S
C399 H387 0.950 . S
C399 C395 1.393 . S
C399 C398 1.391 . S
H400 C408 0.950 1_554 S
H401 C413 0.950 . S
H402 C410 0.950 . S
H403 C412 0.950 . S
H404 C414 0.950 . S
H405 C416 0.950 . S
H406 C418 0.950 . S
H407 C419 0.950 . S
C408 H400 0.950 1_556 S
C408 C409 1.386 . S
C408 C410 1.391 . S
C409 C408 1.386 . S
C409 C413 1.393 . S
C410 H402 0.950 . S
C410 C408 1.391 . S
C410 C411 1.400 . S
C411 C410 1.400 . S
C411 C412 1.398 . S
C411 C417 1.491 . S
C412 H403 0.950 . S
C412 C411 1.398 . S
C412 C413 1.391 . S
C413 H401 0.950 . S
C413 C409 1.393 . S
C413 C412 1.391 . S
C414 H404 0.950 . S
C414 C415 1.386 . S
C414 C416 1.391 . S
C415 C414 1.386 . S
C415 C419 1.393 . S
C416 H405 0.950 . S
C416 C414 1.391 . S
C416 C417 1.400 . S
C417 C411 1.491 . S
C417 C416 1.400 . S
C417 C418 1.398 . S
C418 H406 0.950 . S
C418 C417 1.398 . S
C418 C419 1.391 . S
C419 H407 0.950 . S
C419 C415 1.393 . S
C419 C418 1.391 . S
H420 C428 0.950 . S
H421 C433 0.950 . S
H422 C430 0.950 . S
H423 C432 0.950 . S
H424 C434 0.950 . S
H425 C436 0.950 . S
H426 C438 0.950 1_556 S
H427 C439 0.950 . S
C428 H420 0.950 . S
C428 C429 1.386 . S
C428 C430 1.391 . S
C429 C428 1.386 . S
C429 C433 1.393 . S
C430 H422 0.950 . S
C430 C428 1.391 . S
C430 C431 1.400 . S
C431 C430 1.400 . S
C431 C432 1.398 . S
C431 C437 1.491 . S
C432 H423 0.950 . S
C432 C431 1.398 . S
C432 C433 1.391 . S
C433 H421 0.950 . S
C433 C429 1.393 . S
C433 C432 1.391 . S
C434 H424 0.950 . S
C434 C435 1.386 . S
C434 C436 1.391 . S
C435 C434 1.386 . S
C435 C439 1.393 1_554 S
C436 H425 0.950 . S
C436 C434 1.391 . S
C436 C437 1.400 . S
C437 C431 1.491 . S
C437 C436 1.400 . S
C437 C438 1.398 . S
C438 H426 0.950 1_554 S
C438 C437 1.398 . S
C438 C439 1.391 1_554 S
C439 H427 0.950 . S
C439 C435 1.393 1_556 S
C439 C438 1.391 1_556 S
H440 C448 0.950 . S
H441 C453 0.950 . S
H442 C450 0.950 . S
H443 C452 0.950 . S
H444 C454 0.950 . S
H445 C456 0.950 . S
H446 C458 0.950 . S
H447 C459 0.950 1_455 S
C448 H440 0.950 . S
C448 C449 1.386 . S
C448 C450 1.391 . S
C449 C448 1.386 . S
C449 C453 1.393 . S
C450 H442 0.950 . S
C450 C448 1.391 . S
C450 C451 1.400 . S
C451 C450 1.400 . S
C451 C452 1.398 . S
C451 C457 1.491 . S
C452 H443 0.950 . S
C452 C451 1.398 . S
C452 C453 1.391 . S
C453 H441 0.950 . S
C453 C449 1.393 . S
C453 C452 1.391 . S
C454 H444 0.950 . S
C454 C455 1.386 . S
C454 C456 1.391 . S
C455 C454 1.386 . S
C455 C459 1.393 . S
C456 H445 0.950 . S
C456 C454 1.391 . S
C456 C457 1.400 . S
C457 C451 1.491 . S
C457 C456 1.400 . S
C457 C458 1.398 . S
C458 H446 0.950 . S
C458 C457 1.398 . S
C458 C459 1.391 . S
C459 H447 0.950 1_655 S
C459 C455 1.393 . S
C459 C458 1.391 . S
H460 C468 0.950 . S
H461 C473 0.950 1_556 S
H462 C470 0.950 . S
H463 C472 0.950 . S
H464 C474 0.950 . S
H465 C476 0.950 . S
H466 C478 0.950 . S
H467 C479 0.950 . S
C468 H460 0.950 . S
C468 C469 1.386 . S
C468 C470 1.391 . S
C469 C468 1.386 . S
C469 C473 1.393 . S
C470 H462 0.950 . S
C470 C468 1.391 . S
C470 C471 1.400 . S
C471 C470 1.400 . S
C471 C472 1.398 . S
C471 C477 1.491 . S
C472 H463 0.950 . S
C472 C471 1.398 . S
C472 C473 1.391 . S
C473 H461 0.950 1_554 S
C473 C469 1.393 . S
C473 C472 1.391 . S
C474 H464 0.950 . S
C474 C475 1.386 . S
C474 C476 1.391 . S
C475 C474 1.386 . S
C475 C479 1.393 . S
C476 H465 0.950 . S
C476 C474 1.391 . S
C476 C477 1.400 . S
C477 C471 1.491 . S
C477 C476 1.400 . S
C477 C478 1.398 . S
C478 H466 0.950 . S
C478 C477 1.398 . S
C478 C479 1.391 . S
C479 H467 0.950 . S
C479 C475 1.393 . S
C479 C478 1.391 . S
H480 C488 0.950 . S
H481 C493 0.950 . S
H482 C490 0.950 . S
H483 C492 0.950 . S
H484 C494 0.950 . S
H485 C496 0.950 . S
H486 C498 0.950 . S
H487 C499 0.950 . S
C488 H480 0.950 . S
C488 C489 1.386 . S
C488 C490 1.391 1_455 S
C489 C488 1.386 . S
C489 C493 1.393 . S
C490 H482 0.950 . S
C490 C488 1.391 1_655 S
C490 C491 1.400 . S
C491 C490 1.400 . S
C491 C492 1.398 . S
C491 C497 1.491 . S
C492 H483 0.950 . S
C492 C491 1.398 . S
C492 C493 1.391 1_655 S
C493 H481 0.950 . S
C493 C489 1.393 . S
C493 C492 1.391 1_455 S
C494 H484 0.950 . S
C494 C495 1.386 . S
C494 C496 1.391 . S
C495 C494 1.386 . S
C495 C499 1.393 . S
C496 H485 0.950 . S
C496 C494 1.391 . S
C496 C497 1.400 . S
C497 C491 1.491 . S
C497 C496 1.400 . S
C497 C498 1.398 . S
C498 H486 0.950 . S
C498 C497 1.398 . S
C498 C499 1.391 . S
C499 H487 0.950 . S
C499 C495 1.393 . S
C499 C498 1.391 . S
H500 C508 0.950 . S
H501 C513 0.950 . S
H502 C510 0.950 . S
H503 C512 0.950 . S
H504 C514 0.950 . S
H505 C516 0.950 . S
H506 C518 0.950 . S
H507 C519 0.950 . S
C508 H500 0.950 . S
C508 C509 1.386 . S
C508 C510 1.391 . S
C509 C508 1.386 . S
C509 C513 1.393 . S
C510 H502 0.950 . S
C510 C508 1.391 . S
C510 C511 1.400 . S
C511 C510 1.400 . S
C511 C512 1.398 . S
C511 C517 1.491 . S
C512 H503 0.950 . S
C512 C511 1.398 . S
C512 C513 1.391 . S
C513 H501 0.950 . S
C513 C509 1.393 . S
C513 C512 1.391 . S
C514 H504 0.950 . S
C514 C515 1.386 . S
C514 C516 1.391 . S
C515 C514 1.386 . S
C515 C519 1.393 . S
C516 H505 0.950 . S
C516 C514 1.391 . S
C516 C517 1.400 . S
C517 C511 1.491 . S
C517 C516 1.400 . S
C517 C518 1.398 . S
C518 H506 0.950 . S
C518 C517 1.398 . S
C518 C519 1.391 . S
C519 H507 0.950 . S
C519 C515 1.393 . S
C519 C518 1.391 . S
H520 C528 0.950 . S
H521 C533 0.950 . S
H522 C530 0.950 . S
H523 C532 0.950 . S
H524 C534 0.950 . S
H525 C536 0.950 . S
H526 C538 0.950 . S
H527 C539 0.950 . S
C528 H520 0.950 . S
C528 C529 1.386 . S
C528 C530 1.391 . S
C529 C528 1.386 . S
C529 C533 1.393 . S
C530 H522 0.950 . S
C530 C528 1.391 . S
C530 C531 1.400 . S
C531 C530 1.400 . S
C531 C532 1.398 . S
C531 C537 1.491 . S
C532 H523 0.950 . S
C532 C531 1.398 . S
C532 C533 1.391 . S
C533 H521 0.950 . S
C533 C529 1.393 . S
C533 C532 1.391 . S
C534 H524 0.950 . S
C534 C535 1.386 . S
C534 C536 1.391 . S
C535 C534 1.386 . S
C535 C539 1.393 . S
C536 H525 0.950 . S
C536 C534 1.391 . S
C536 C537 1.400 . S
C537 C531 1.491 . S
C537 C536 1.400 . S
C537 C538 1.398 . S
C538 H526 0.950 . S
C538 C537 1.398 . S
C538 C539 1.391 . S
C539 H527 0.950 . S
C539 C535 1.393 . S
C539 C538 1.391 . S
H540 C548 0.950 . S
H541 C553 0.950 . S
H542 C550 0.950 . S
H543 C552 0.950 1_556 S
H544 C554 0.950 . S
H545 C556 0.950 . S
H546 C558 0.950 . S
H547 C559 0.950 . S
C548 H540 0.950 . S
C548 C549 1.386 . S
C548 C550 1.391 . S
C549 C548 1.386 . S
C549 C553 1.393 . S
C550 H542 0.950 . S
C550 C548 1.391 . S
C550 C551 1.400 . S
C551 C550 1.400 . S
C551 C552 1.398 . S
C551 C557 1.491 . S
C552 H543 0.950 1_554 S
C552 C551 1.398 . S
C552 C553 1.391 . S
C553 H541 0.950 . S
C553 C549 1.393 . S
C553 C552 1.391 . S
C554 H544 0.950 . S
C554 C555 1.386 1_556 S
C554 C556 1.391 . S
C555 C554 1.386 1_554 S
C555 C559 1.393 . S
C556 H545 0.950 . S
C556 C554 1.391 . S
C556 C557 1.400 1_556 S
C557 C551 1.491 . S
C557 C556 1.400 1_554 S
C557 C558 1.398 . S
C558 H546 0.950 . S
C558 C557 1.398 . S
C558 C559 1.391 . S
C559 H547 0.950 . S
C559 C555 1.393 . S
C559 C558 1.391 . S
H560 C568 0.950 . S
H561 C573 0.950 . S
H562 C570 0.950 . S
H563 C572 0.951 . S
H564 C574 0.950 . S
H565 C576 0.950 . S
H566 C578 0.950 . S
H567 C579 0.950 . S
C568 H560 0.950 . S
C568 C569 1.386 . S
C568 C570 1.391 . S
C569 C568 1.386 . S
C569 C573 1.393 1_554 S
C570 H562 0.950 . S
C570 C568 1.391 . S
C570 C571 1.400 . S
C571 C570 1.400 . S
C571 C572 1.398 . S
C571 C577 1.491 . S
C572 H563 0.951 . S
C572 C571 1.398 . S
C572 C573 1.391 1_554 S
C573 H561 0.950 . S
C573 C569 1.393 1_556 S
C573 C572 1.391 1_556 S
C574 H564 0.950 . S
C574 C575 1.386 . S
C574 C576 1.391 1_545 S
C575 C574 1.386 . S
C575 C579 1.393 . S
C576 H565 0.950 . S
C576 C574 1.391 1_565 S
C576 C577 1.400 . S
C577 C571 1.491 . S
C577 C576 1.400 . S
C577 C578 1.398 . S
C578 H566 0.950 . S
C578 C577 1.398 . S
C578 C579 1.391 1_565 S
C579 H567 0.950 . S
C579 C575 1.393 . S
C579 C578 1.391 1_545 S
H580 C588 0.950 . S
H581 C593 0.950 . S
H582 C590 0.950 . S
H583 C592 0.950 . S
H584 C594 0.950 . S
H585 C596 0.950 . S
H586 C598 0.950 . S
H587 C599 0.950 . S
C588 H580 0.950 . S
C588 C589 1.386 1_556 S
C588 C590 1.391 . S
C589 C588 1.386 1_554 S
C589 C593 1.393 . S
C590 H582 0.950 . S
C590 C588 1.391 . S
C590 C591 1.400 1_556 S
C591 C590 1.400 1_554 S
C591 C592 1.398 . S
C591 C597 1.491 . S
C592 H583 0.950 . S
C592 C591 1.398 . S
C592 C593 1.391 . S
C593 H581 0.950 . S
C593 C589 1.393 . S
C593 C592 1.391 . S
C594 H584 0.950 . S
C594 C595 1.386 . S
C594 C596 1.391 . S
C595 C594 1.386 . S
C595 C599 1.393 1_554 S
C596 H585 0.950 . S
C596 C594 1.391 . S
C596 C597 1.400 . S
C597 C591 1.491 . S
C597 C596 1.400 . S
C597 C598 1.398 1_554 S
C598 H586 0.950 . S
C598 C597 1.398 1_556 S
C598 C599 1.391 . S
C599 H587 0.950 . S
C599 C595 1.393 1_556 S
C599 C598 1.391 . S
H600 C608 0.950 . S
H601 C613 0.950 . S
H602 C610 0.950 . S
H603 C612 0.950 . S
H604 C614 0.950 . S
H605 C616 0.950 . S
H606 C618 0.950 . S
H607 C619 0.950 . S
C608 H600 0.950 . S
C608 C609 1.386 . S
C608 C610 1.391 . S
C609 C608 1.386 . S
C609 C613 1.393 . S
C610 H602 0.950 . S
C610 C608 1.391 . S
C610 C611 1.400 . S
C611 C610 1.400 . S
C611 C612 1.398 . S
C611 C617 1.491 . S
C612 H603 0.950 . S
C612 C611 1.398 . S
C612 C613 1.391 . S
C613 H601 0.950 . S
C613 C609 1.393 . S
C613 C612 1.391 . S
C614 H604 0.950 . S
C614 C615 1.386 . S
C614 C616 1.391 . S
C615 C614 1.386 . S
C615 C619 1.393 . S
C616 H605 0.950 . S
C616 C614 1.391 . S
C616 C617 1.400 . S
C617 C611 1.491 . S
C617 C616 1.400 . S
C617 C618 1.398 . S
C618 H606 0.950 . S
C618 C617 1.398 . S
C618 C619 1.391 . S
C619 H607 0.950 . S
C619 C615 1.393 . S
C619 C618 1.391 . S
H620 C628 0.950 . S
H621 C633 0.950 . S
H622 C630 0.950 . S
H623 C632 0.950 . S
H624 C634 0.950 . S
H625 C636 0.950 . S
H626 C638 0.950 . S
H627 C639 0.950 . S
C628 H620 0.950 . S
C628 C629 1.386 . S
C628 C630 1.391 . S
C629 C628 1.386 . S
C629 C633 1.393 . S
C630 H622 0.950 . S
C630 C628 1.391 . S
C630 C631 1.400 . S
C631 C630 1.400 . S
C631 C632 1.398 . S
C631 C637 1.491 . S
C632 H623 0.950 . S
C632 C631 1.398 . S
C632 C633 1.391 . S
C633 H621 0.950 . S
C633 C629 1.393 . S
C633 C632 1.391 . S
C634 H624 0.950 . S
C634 C635 1.386 . S
C634 C636 1.391 . S
C635 C634 1.386 . S
C635 C639 1.393 . S
C636 H625 0.950 . S
C636 C634 1.391 . S
C636 C637 1.400 . S
C637 C631 1.491 . S
C637 C636 1.400 . S
C637 C638 1.398 . S
C638 H626 0.950 . S
C638 C637 1.398 . S
C638 C639 1.391 . S
C639 H627 0.950 . S
C639 C635 1.393 . S
C639 C638 1.391 . S
H640 C648 0.950 . S
H641 C653 0.950 . S
H642 C650 0.950 . S
H643 C652 0.950 . S
H644 C654 0.950 . S
H645 C656 0.950 . S
H646 C658 0.950 . S
H647 C659 0.950 . S
C648 H640 0.950 . S
C648 C649 1.386 . S
C648 C650 1.391 . S
C649 C648 1.386 . S
C649 C653 1.393 . S
C650 H642 0.950 . S
C650 C648 1.391 . S
C650 C651 1.400 . S
C651 C650 1.400 . S
C651 C652 1.398 . S
C651 C657 1.491 . S
C652 H643 0.950 . S
C652 C651 1.398 . S
C652 C653 1.391 . S
C653 H641 0.950 . S
C653 C649 1.393 . S
C653 C652 1.391 . S
C654 H644 0.950 . S
C654 C655 1.386 . S
C654 C656 1.391 . S
C655 C654 1.386 . S
C655 C659 1.393 . S
C656 H645 0.950 . S
C656 C654 1.391 . S
C656 C657 1.400 . S
C657 C651 1.491 . S
C657 C656 1.400 . S
C657 C658 1.398 . S
C658 H646 0.950 . S
C658 C657 1.398 . S
C658 C659 1.391 . S
C659 H647 0.950 . S
C659 C655 1.393 . S
C659 C658 1.391 . S
H660 C668 0.950 . S
H661 C673 0.950 . S
H662 C670 0.950 . S
H663 C672 0.950 . S
H664 C674 0.950 . S
H665 C676 0.950 . S
H666 C678 0.950 . S
H667 C679 0.950 . S
C668 H660 0.950 . S
C668 C669 1.386 . S
C668 C670 1.391 . S
C669 C668 1.386 . S
C669 C673 1.393 . S
C670 H662 0.950 . S
C670 C668 1.391 . S
C670 C671 1.400 . S
C671 C670 1.400 . S
C671 C672 1.398 . S
C671 C677 1.491 . S
C672 H663 0.950 . S
C672 C671 1.398 . S
C672 C673 1.391 . S
C673 H661 0.950 . S
C673 C669 1.393 . S
C673 C672 1.391 . S
C674 H664 0.950 . S
C674 C675 1.386 . S
C674 C676 1.391 . S
C675 C674 1.386 . S
C675 C679 1.393 . S
C676 H665 0.950 . S
C676 C674 1.391 . S
C676 C677 1.400 . S
C677 C671 1.491 . S
C677 C676 1.400 . S
C677 C678 1.398 . S
C678 H666 0.950 . S
C678 C677 1.398 . S
C678 C679 1.391 . S
C679 H667 0.950 . S
C679 C675 1.393 . S
C679 C678 1.391 . S
H680 C688 0.950 . S
H681 C693 0.950 . S
H682 C690 0.950 . S
H683 C692 0.950 . S
H684 C694 0.950 . S
H685 C696 0.950 . S
H686 C698 0.950 . S
H687 C699 0.950 . S
C688 H680 0.950 . S
C688 C689 1.386 . S
C688 C690 1.391 . S
C689 C688 1.386 . S
C689 C693 1.393 . S
C690 H682 0.950 . S
C690 C688 1.391 . S
C690 C691 1.400 . S
C691 C690 1.400 . S
C691 C692 1.398 . S
C691 C697 1.491 . S
C692 H683 0.950 . S
C692 C691 1.398 . S
C692 C693 1.391 . S
C693 H681 0.950 . S
C693 C689 1.393 . S
C693 C692 1.391 . S
C694 H684 0.950 . S
C694 C695 1.386 . S
C694 C696 1.391 . S
C695 C694 1.386 . S
C695 C699 1.393 . S
C696 H685 0.950 . S
C696 C694 1.391 . S
C696 C697 1.400 . S
C697 C691 1.491 . S
C697 C696 1.400 . S
C697 C698 1.398 . S
C698 H686 0.950 . S
C698 C697 1.398 . S
C698 C699 1.391 . S
C699 H687 0.950 . S
C699 C695 1.393 . S
C699 C698 1.391 . S
H700 C708 0.950 . S
H701 C713 0.950 . S
H702 C710 0.950 . S
H703 C712 0.950 . S
H704 C714 0.950 . S
H705 C716 0.950 . S
H706 C718 0.950 . S
H707 C719 0.950 . S
C708 H700 0.950 . S
C708 C709 1.386 . S
C708 C710 1.391 . S
C709 C708 1.386 . S
C709 C713 1.393 . S
C710 H702 0.950 . S
C710 C708 1.391 . S
C710 C711 1.400 . S
C711 C710 1.400 . S
C711 C712 1.398 . S
C711 C717 1.491 . S
C712 H703 0.950 . S
C712 C711 1.398 . S
C712 C713 1.391 . S
C713 H701 0.950 . S
C713 C709 1.393 . S
C713 C712 1.391 . S
C714 H704 0.950 . S
C714 C715 1.386 . S
C714 C716 1.391 . S
C715 C714 1.386 . S
C715 C719 1.393 . S
C716 H705 0.950 . S
C716 C714 1.391 . S
C716 C717 1.400 . S
C717 C711 1.491 . S
C717 C716 1.400 . S
C717 C718 1.398 . S
C718 H706 0.950 . S
C718 C717 1.398 . S
C718 C719 1.391 . S
C719 H707 0.950 . S
C719 C715 1.393 . S
C719 C718 1.391 . S
H720 C728 0.950 . S
H721 C733 0.950 . S
H722 C730 0.950 . S
H723 C732 0.950 . S
H724 C734 0.950 1_655 S
H725 C736 0.950 1_655 S
H726 C738 0.950 . S
H727 C739 0.950 . S
C728 H720 0.950 . S
C728 C729 1.386 . S
C728 C730 1.391 . S
C729 C728 1.386 . S
C729 C733 1.393 1_455 S
C730 H722 0.950 . S
C730 C728 1.391 . S
C730 C731 1.400 . S
C731 C730 1.400 . S
C731 C732 1.398 1_455 S
C731 C737 1.491 . S
C732 H723 0.950 . S
C732 C731 1.398 1_655 S
C732 C733 1.391 . S
C733 H721 0.950 . S
C733 C729 1.393 1_655 S
C733 C732 1.391 . S
C734 H724 0.950 1_455 S
C734 C735 1.386 . S
C734 C736 1.391 . S
C735 C734 1.386 . S
C735 C739 1.393 . S
C736 H725 0.950 1_455 S
C736 C734 1.391 . S
C736 C737 1.400 . S
C737 C731 1.491 . S
C737 C736 1.400 . S
C737 C738 1.398 . S
C738 H726 0.950 . S
C738 C737 1.398 . S
C738 C739 1.391 . S
C739 H727 0.950 . S
C739 C735 1.393 . S
C739 C738 1.391 . S
H740 C748 0.950 . S
H741 C753 0.950 . S
H742 C750 0.950 . S
H743 C752 0.950 . S
H744 C754 0.950 . S
H745 C756 0.950 . S
H746 C758 0.950 . S
H747 C759 0.950 . S
C748 H740 0.950 . S
C748 C749 1.386 . S
C748 C750 1.391 . S
C749 C748 1.386 . S
C749 C753 1.393 . S
C750 H742 0.950 . S
C750 C748 1.391 . S
C750 C751 1.400 . S
C751 C750 1.400 . S
C751 C752 1.398 . S
C751 C757 1.491 . S
C752 H743 0.950 . S
C752 C751 1.398 . S
C752 C753 1.391 . S
C753 H741 0.950 . S
C753 C749 1.393 . S
C753 C752 1.391 . S
C754 H744 0.950 . S
C754 C755 1.386 . S
C754 C756 1.391 . S
C755 C754 1.386 . S
C755 C759 1.393 . S
C756 H745 0.950 . S
C756 C754 1.391 . S
C756 C757 1.400 . S
C757 C751 1.491 . S
C757 C756 1.400 . S
C757 C758 1.398 . S
C758 H746 0.950 . S
C758 C757 1.398 . S
C758 C759 1.391 . S
C759 H747 0.950 . S
C759 C755 1.393 . S
C759 C758 1.391 . S
H760 C768 0.950 . S
H761 C773 0.943 1_565 S
H762 C770 0.950 . S
H763 C772 0.950 1_565 S
H764 C774 0.950 1_565 S
H765 C776 0.950 1_565 S
H766 C778 0.950 . S
H767 C779 0.950 . S
C768 H760 0.950 . S
C768 C769 1.386 . S
C768 C770 1.391 . S
C769 C768 1.386 . S
C769 C773 1.393 . S
C770 H762 0.950 . S
C770 C768 1.391 . S
C770 C771 1.400 . S
C771 C770 1.400 . S
C771 C772 1.398 . S
C771 C777 1.491 . S
C772 H763 0.950 1_545 S
C772 C771 1.398 . S
C772 C773 1.391 . S
C773 H761 0.943 1_545 S
C773 C769 1.393 . S
C773 C772 1.391 . S
C774 H764 0.950 1_545 S
C774 C775 1.386 . S
C774 C776 1.391 . S
C775 C774 1.386 . S
C775 C779 1.393 . S
C776 H765 0.950 1_545 S
C776 C774 1.391 . S
C776 C777 1.400 . S
C777 C771 1.491 . S
C777 C776 1.400 . S
C777 C778 1.398 . S
C778 H766 0.950 . S
C778 C777 1.398 . S
C778 C779 1.391 . S
C779 H767 0.950 . S
C779 C775 1.393 . S
C779 C778 1.391 . S
H780 C788 0.950 . S
H781 C793 0.950 . S
H782 C790 0.950 . S
H783 C792 0.950 . S
H784 C794 0.950 . S
H785 C796 0.950 . S
H786 C798 0.950 . S
H787 C799 0.950 . S
C788 H780 0.950 . S
C788 C789 1.386 . S
C788 C790 1.391 . S
C789 C788 1.386 . S
C789 C793 1.393 . S
C790 H782 0.950 . S
C790 C788 1.391 . S
C790 C791 1.400 . S
C791 C790 1.400 . S
C791 C792 1.398 . S
C791 C797 1.491 . S
C792 H783 0.950 . S
C792 C791 1.398 . S
C792 C793 1.391 . S
C793 H781 0.950 . S
C793 C789 1.393 . S
C793 C792 1.391 . S
C794 H784 0.950 . S
C794 C795 1.386 . S
C794 C796 1.391 1_554 S
C795 C794 1.386 . S
C795 C799 1.393 . S
C796 H785 0.950 . S
C796 C794 1.391 1_556 S
C796 C797 1.400 . S
C797 C791 1.491 . S
C797 C796 1.400 . S
C797 C798 1.398 . S
C798 H786 0.950 . S
C798 C797 1.398 . S
C798 C799 1.391 1_556 S
C799 H787 0.950 . S
C799 C795 1.393 . S
C799 C798 1.391 1_554 S
H800 C808 0.950 . S
H801 C813 0.950 . S
H802 C810 0.950 . S
H803 C812 0.950 . S
H804 C814 0.950 . S
H805 C816 0.950 . S
H806 C818 0.950 . S
H807 C819 0.950 . S
C808 H800 0.950 . S
C808 C809 1.386 . S
C808 C810 1.391 . S
C809 C808 1.386 . S
C809 C813 1.393 . S
C810 H802 0.950 . S
C810 C808 1.391 . S
C810 C811 1.400 . S
C811 C810 1.400 . S
C811 C812 1.398 . S
C811 C817 1.491 . S
C812 H803 0.950 . S
C812 C811 1.398 . S
C812 C813 1.391 . S
C813 H801 0.950 . S
C813 C809 1.393 . S
C813 C812 1.391 . S
C814 H804 0.950 . S
C814 C815 1.386 . S
C814 C816 1.391 1_554 S
C815 C814 1.386 . S
C815 C819 1.393 . S
C816 H805 0.950 . S
C816 C814 1.391 1_556 S
C816 C817 1.400 . S
C817 C811 1.491 . S
C817 C816 1.400 . S
C817 C818 1.398 . S
C818 H806 0.950 . S
C818 C817 1.398 . S
C818 C819 1.391 1_556 S
C819 H807 0.950 . S
C819 C815 1.393 . S
C819 C818 1.391 1_554 S
H820 C828 0.950 . S
H821 C833 0.950 . S
H822 C830 0.950 . S
H823 C832 0.950 . S
H824 C834 0.950 . S
H825 C836 0.950 . S
H826 C838 0.950 . S
H827 C839 0.950 . S
C828 H820 0.950 . S
C828 C829 1.386 . S
C828 C830 1.391 . S
C829 C828 1.386 . S
C829 C833 1.393 . S
C830 H822 0.950 . S
C830 C828 1.391 . S
C830 C831 1.400 . S
C831 C830 1.400 . S
C831 C832 1.398 . S
C831 C837 1.491 . S
C832 H823 0.950 . S
C832 C831 1.398 . S
C832 C833 1.391 . S
C833 H821 0.950 . S
C833 C829 1.393 . S
C833 C832 1.391 . S
C834 H824 0.950 . S
C834 C835 1.386 . S
C834 C836 1.391 1_554 S
C835 C834 1.386 . S
C835 C839 1.393 . S
C836 H825 0.950 . S
C836 C834 1.391 1_556 S
C836 C837 1.400 . S
C837 C831 1.491 . S
C837 C836 1.400 . S
C837 C838 1.398 . S
C838 H826 0.950 . S
C838 C837 1.398 . S
C838 C839 1.391 1_556 S
C839 H827 0.950 . S
C839 C835 1.393 . S
C839 C838 1.391 1_554 S
H840 C848 0.950 . S
H841 C853 0.950 . S
H842 C850 0.950 . S
H843 C852 0.950 . S
H844 C854 0.950 . S
H845 C856 0.950 . S
H846 C858 0.950 . S
H847 C859 0.950 . S
C848 H840 0.950 . S
C848 C849 1.386 . S
C848 C850 1.391 . S
C849 C848 1.386 . S
C849 C853 1.393 . S
C850 H842 0.950 . S
C850 C848 1.391 . S
C850 C851 1.400 . S
C851 C850 1.400 . S
C851 C852 1.398 . S
C851 C857 1.491 . S
C852 H843 0.950 . S
C852 C851 1.398 . S
C852 C853 1.391 . S
C853 H841 0.950 . S
C853 C849 1.393 . S
C853 C852 1.391 . S
C854 H844 0.950 . S
C854 C855 1.386 . S
C854 C856 1.391 1_556 S
C855 C854 1.386 . S
C855 C859 1.393 . S
C856 H845 0.950 . S
C856 C854 1.391 1_554 S
C856 C857 1.400 . S
C857 C851 1.491 . S
C857 C856 1.400 . S
C857 C858 1.398 . S
C858 H846 0.950 . S
C858 C857 1.398 . S
C858 C859 1.391 1_554 S
C859 H847 0.950 . S
C859 C855 1.393 . S
C859 C858 1.391 1_556 S
H860 C868 0.950 . S
H861 C873 0.950 . S
H862 C870 0.950 . S
H863 C872 0.950 . S
H864 C874 0.950 . S
H865 C876 0.950 . S
H866 C878 0.950 . S
H867 C879 0.950 . S
C868 H860 0.950 . S
C868 C869 1.386 . S
C868 C870 1.391 1_556 S
C869 C868 1.386 . S
C869 C873 1.393 . S
C870 H862 0.950 . S
C870 C868 1.391 1_554 S
C870 C871 1.400 . S
C871 C870 1.400 . S
C871 C872 1.398 . S
C871 C877 1.491 . S
C872 H863 0.950 . S
C872 C871 1.398 . S
C872 C873 1.391 1_554 S
C873 H861 0.950 . S
C873 C869 1.393 . S
C873 C872 1.391 1_556 S
C874 H864 0.950 . S
C874 C875 1.386 . S
C874 C876 1.391 . S
C875 C874 1.386 . S
C875 C879 1.393 . S
C876 H865 0.950 . S
C876 C874 1.391 . S
C876 C877 1.400 . S
C877 C871 1.491 . S
C877 C876 1.400 . S
C877 C878 1.398 . S
C878 H866 0.950 . S
C878 C877 1.398 . S
C878 C879 1.391 . S
C879 H867 0.950 . S
C879 C875 1.393 . S
C879 C878 1.391 . S
H880 C888 0.950 . S
H881 C893 0.950 . S
H882 C890 0.950 . S
H883 C892 0.950 . S
H884 C894 0.950 . S
H885 C896 0.950 . S
H886 C898 0.950 . S
H887 C899 0.950 . S
C888 H880 0.950 . S
C888 C889 1.386 . S
C888 C890 1.391 . S
C889 C888 1.386 . S
C889 C893 1.393 . S
C890 H882 0.950 . S
C890 C888 1.391 . S
C890 C891 1.400 . S
C891 C890 1.400 . S
C891 C892 1.398 . S
C891 C897 1.491 . S
C892 H883 0.950 . S
C892 C891 1.398 . S
C892 C893 1.391 . S
C893 H881 0.950 . S
C893 C889 1.393 . S
C893 C892 1.391 . S
C894 H884 0.950 . S
C894 C895 1.386 . S
C894 C896 1.391 1_556 S
C895 C894 1.386 . S
C895 C899 1.393 . S
C896 H885 0.950 . S
C896 C894 1.391 1_554 S
C896 C897 1.400 . S
C897 C891 1.491 . S
C897 C896 1.400 . S
C897 C898 1.398 . S
C898 H886 0.950 . S
C898 C897 1.398 . S
C898 C899 1.391 1_554 S
C899 H887 0.950 . S
C899 C895 1.393 . S
C899 C898 1.391 1_556 S
C369 C6 1.919 . S
C375 C290 1.839 . S
C389 C46 1.915 . S
C395 C330 1.842 . S
C409 C86 1.909 . S
C415 C250 1.831 . S
C429 C166 1.915 . S
C435 C90 1.828 . S
C449 C206 1.919 . S
C455 C10 1.845 . S
C469 C50 1.844 . S
C475 C126 1.918 . S
C489 C286 1.909 . S
C495 C210 1.819 . S
C509 C326 1.913 . S
C515 C130 1.824 . S
C529 C170 1.840 . S
C535 C246 1.919 1_545 S
C549 C95 1.680 . S
C555 C19 1.675 1_554 S
C569 C59 1.681 1_554 S
C575 C15 1.673 . S
C589 C55 1.680 1_455 S
C595 C99 1.674 1_554 S
C609 C139 1.681 . S
C615 C215 1.674 . S
C629 C135 1.673 . S
C635 C179 1.681 . S
C649 C175 1.676 . S
C655 C219 1.678 . S
C669 C335 1.675 . S
C675 C259 1.681 . S
C689 C299 1.673 . S
C695 C255 1.682 . S
C709 C339 1.682 . S
C715 C295 1.673 . S
C729 C18 0.949 . S
C735 C9 0.949 . S
C749 C58 0.962 . S
C755 C49 0.962 . S
C769 C98 0.966 . S
C775 C89 0.966 . S
C789 C129 0.971 . S
C795 C138 0.971 . S
C809 C169 0.961 . S
C815 C178 0.961 . S
C829 C209 0.982 . S
C835 C218 0.982 . S
C849 C258 0.947 . S
C855 C249 0.947 . S
C869 C289 0.947 . S
C875 C298 0.947 . S
C889 C338 0.954 . S
C895 C329 0.954 . S
