# Generated by pormake.
# Topology zfv, (5)-cn, num edge types: 1
# Building blocks:
#     Node 0, Type 0, BuildingBlock: BEQFEK_clean_sbu_0, # of connection points: 5
#     Node 1, Type 0, BuildingBlock: BEQFEK_clean_sbu_0, # of connection points: 5
#     Node 2, Type 0, BuildingBlock: BEQFEK_clean_sbu_0, # of connection points: 5
#     Node 3, Type 0, BuildingBlock: BEQFEK_clean_sbu_0, # of connection points: 5
#     Node 4, Type 0, BuildingBlock: BEQFEK_clean_sbu_0, # of connection points: 5
#     Node 5, Type 0, BuildingBlock: BEQFEK_clean_sbu_0, # of connection points: 5
#     Node 6, Type 0, BuildingBlock: BEQFEK_clean_sbu_0, # of connection points: 5
#     Node 7, Type 0, BuildingBlock: BEQFEK_clean_sbu_0, # of connection points: 5
#     Node 8, Type 0, BuildingBlock: BEQFEK_clean_sbu_0, # of connection points: 5
#     Node 9, Type 0, BuildingBlock: BEQFEK_clean_sbu_0, # of connection points: 5
#     Node 10, Type 0, BuildingBlock: BEQFEK_clean_sbu_0, # of connection points: 5
#     Node 11, Type 0, BuildingBlock: BEQFEK_clean_sbu_0, # of connection points: 5
#     Node 12, Type 0, BuildingBlock: BEQFEK_clean_sbu_0, # of connection points: 5
#     Node 13, Type 0, BuildingBlock: BEQFEK_clean_sbu_0, # of connection points: 5
#     Node 14, Type 0, BuildingBlock: BEQFEK_clean_sbu_0, # of connection points: 5
#     Node 15, Type 0, BuildingBlock: BEQFEK_clean_sbu_0, # of connection points: 5
#     Edge 16, Type (0, 0), BuildingBlock: XIVTED_clean_linker_0, # of connection points: 2
#     Edge 17, Type (0, 0), BuildingBlock: XIVTED_clean_linker_0, # of connection points: 2
#     Edge 18, Type (0, 0), BuildingBlock: XIVTED_clean_linker_0, # of connection points: 2
#     Edge 19, Type (0, 0), BuildingBlock: XIVTED_clean_linker_0, # of connection points: 2
#     Edge 20, Type (0, 0), BuildingBlock: XIVTED_clean_linker_0, # of connection points: 2
#     Edge 21, Type (0, 0), BuildingBlock: XIVTED_clean_linker_0, # of connection points: 2
#     Edge 22, Type (0, 0), BuildingBlock: XIVTED_clean_linker_0, # of connection points: 2
#     Edge 23, Type (0, 0), BuildingBlock: XIVTED_clean_linker_0, # of connection points: 2
#     Edge 24, Type (0, 0), BuildingBlock: XIVTED_clean_linker_0, # of connection points: 2
#     Edge 25, Type (0, 0), BuildingBlock: XIVTED_clean_linker_0, # of connection points: 2
#     Edge 26, Type (0, 0), BuildingBlock: XIVTED_clean_linker_0, # of connection points: 2
#     Edge 27, Type (0, 0), BuildingBlock: XIVTED_clean_linker_0, # of connection points: 2
#     Edge 28, Type (0, 0), BuildingBlock: XIVTED_clean_linker_0, # of connection points: 2
#     Edge 29, Type (0, 0), BuildingBlock: XIVTED_clean_linker_0, # of connection points: 2
#     Edge 30, Type (0, 0), BuildingBlock: XIVTED_clean_linker_0, # of connection points: 2
#     Edge 31, Type (0, 0), BuildingBlock: XIVTED_clean_linker_0, # of connection points: 2
#     Edge 32, Type (0, 0), BuildingBlock: XIVTED_clean_linker_0, # of connection points: 2
#     Edge 33, Type (0, 0), BuildingBlock: XIVTED_clean_linker_0, # of connection points: 2
#     Edge 34, Type (0, 0), BuildingBlock: XIVTED_clean_linker_0, # of connection points: 2
#     Edge 35, Type (0, 0), BuildingBlock: XIVTED_clean_linker_0, # of connection points: 2
#     Edge 36, Type (0, 0), BuildingBlock: XIVTED_clean_linker_0, # of connection points: 2
#     Edge 37, Type (0, 0), BuildingBlock: XIVTED_clean_linker_0, # of connection points: 2
#     Edge 38, Type (0, 0), BuildingBlock: XIVTED_clean_linker_0, # of connection points: 2
#     Edge 39, Type (0, 0), BuildingBlock: XIVTED_clean_linker_0, # of connection points: 2
#     Edge 40, Type (0, 0), BuildingBlock: XIVTED_clean_linker_0, # of connection points: 2
#     Edge 41, Type (0, 0), BuildingBlock: XIVTED_clean_linker_0, # of connection points: 2
#     Edge 42, Type (0, 0), BuildingBlock: XIVTED_clean_linker_0, # of connection points: 2
#     Edge 43, Type (0, 0), BuildingBlock: XIVTED_clean_linker_0, # of connection points: 2
#     Edge 44, Type (0, 0), BuildingBlock: XIVTED_clean_linker_0, # of connection points: 2
#     Edge 45, Type (0, 0), BuildingBlock: XIVTED_clean_linker_0, # of connection points: 2
#     Edge 46, Type (0, 0), BuildingBlock: XIVTED_clean_linker_0, # of connection points: 2
#     Edge 47, Type (0, 0), BuildingBlock: XIVTED_clean_linker_0, # of connection points: 2
#     Edge 48, Type (0, 0), BuildingBlock: XIVTED_clean_linker_0, # of connection points: 2
#     Edge 49, Type (0, 0), BuildingBlock: XIVTED_clean_linker_0, # of connection points: 2
#     Edge 50, Type (0, 0), BuildingBlock: XIVTED_clean_linker_0, # of connection points: 2
#     Edge 51, Type (0, 0), BuildingBlock: XIVTED_clean_linker_0, # of connection points: 2
#     Edge 52, Type (0, 0), BuildingBlock: XIVTED_clean_linker_0, # of connection points: 2
#     Edge 53, Type (0, 0), BuildingBlock: XIVTED_clean_linker_0, # of connection points: 2
#     Edge 54, Type (0, 0), BuildingBlock: XIVTED_clean_linker_0, # of connection points: 2
#     Edge 55, Type (0, 0), BuildingBlock: XIVTED_clean_linker_0, # of connection points: 2
# Relax obj value: 0.068
# Max RMSD: 0.133
# Mean RMSD: 0.133
data_MOF--net-zfv--node1-BEQFEK_clean_sbu_0--edge1-XIVTED_clean_linker_0
_symmetry_space_group_name_H-M    P1
_symmetry_Int_Tables_number       1
_symmetry_cell_setting            triclinic
loop_
_symmetry_equiv_pos_as_xyz
'x, y, z'
_cell_length_a     76.454529
_cell_length_b     76.448529
_cell_length_c     19.520737
_cell_angle_alpha  89.976655
_cell_angle_beta   89.998791
_cell_angle_gamma 89.943498
loop_
_atom_site_label
_atom_site_type_symbol
_atom_site_fract_x
_atom_site_fract_y
_atom_site_fract_z
_atom_type_partial_charge
Co0 Co 0.00963 0.60399 0.16159 0.0
Co1 Co 0.00922 0.61016 0.00412 0.0
C2 C 0.98139 0.62513 0.0906 0.0
O3 O 0.98887 0.61874 0.14329 0.0
O4 O 0.98755 0.62273 0.0306 0.0
C5 C -0.0049 0.59555 0.29334 0.0
O6 O 0.97978 0.59762 0.26396 0.0
C7 C 0.00298 0.61067 0.85324 0.0
C8 C 0.0302 0.60607 0.81919 0.0
C9 C 0.01329 0.60822 0.79527 0.0
N10 N 0.01342 0.60965 0.9086 0.0
N11 N 0.02965 0.60708 0.88766 0.0
C12 C 0.98377 0.61434 0.85644 0.0
H13 H 0.98059 0.62205 0.90279 0.0
H14 H 0.97654 0.60178 0.85919 0.0
H15 H 0.97942 0.62161 0.81025 0.0
C16 C 0.01019 0.56697 0.11658 0.0
N17 N 0.00983 0.58429 0.104 0.0
N18 N 0.00909 0.5869 0.03751 0.0
C19 C 0.00872 0.57131 0.00549 0.0
C20 C 0.00956 0.55818 0.05444 0.0
C21 C 0.01174 0.55916 0.1866 0.0
H22 H 0.02136 0.56668 0.21725 0.0
H23 H -0.00112 0.56004 0.21273 0.0
H24 H 0.01585 0.54525 0.18428 0.0
O25 O 0.03104 0.61806 0.15051 0.0
O26 O 0.02964 0.62312 0.03916 0.0
H27 H 0.0188 0.57202 0.90339 0.0
H28 H 0.00226 0.55553 0.91674 0.0
C29 C 0.00632 0.56904 0.92991 0.0
H30 H -0.00383 0.57822 0.91136 0.0
H31 H 0.04034 0.60566 0.92045 0.0
O32 O 0.00895 0.59707 0.25795 0.0
C33 C 0.03714 0.6251 0.09665 0.0
Co34 Co 0.64796 0.74504 0.40859 0.0
Co35 Co 0.64201 0.74614 0.2497 0.0
C36 C 0.62688 0.71762 0.33244 0.0
O37 O 0.63324 0.72466 0.38602 0.0
O38 O 0.62936 0.72422 0.27321 0.0
C39 C 0.65389 0.72906 0.54013 0.0
O40 O 0.64896 0.71459 0.50951 0.0
C41 C 0.64371 0.73963 0.09976 0.0
C42 C 0.64514 0.76696 0.06306 0.0
C43 C 0.64573 0.74976 0.04104 0.0
N44 N 0.64235 0.75048 0.15379 0.0
N45 N 0.64291 0.76676 0.13122 0.0
C46 C 0.64477 0.72015 0.10578 0.0
H47 H 0.64804 0.71626 0.15904 0.0
H48 H 0.65472 0.71485 0.06991 0.0
H49 H 0.63189 0.71443 0.09235 0.0
C50 C 0.68493 0.74606 0.36455 0.0
N51 N 0.66767 0.74578 0.35093 0.0
N52 N 0.66528 0.74594 0.28418 0.0
C53 C 0.68102 0.74629 0.25307 0.0
C54 C 0.69395 0.74644 0.30294 0.0
C55 C 0.69244 0.74657 0.43529 0.0
H56 H 0.68522 0.7563 0.46659 0.0
H57 H 0.69074 0.73357 0.45967 0.0
H58 H 0.70653 0.74999 0.43469 0.0
O59 O 0.63391 0.76656 0.39929 0.0
O60 O 0.629 0.76631 0.28747 0.0
H61 H 0.67844 0.75744 0.15305 0.0
H62 H 0.69756 0.74377 0.16296 0.0
C63 C 0.68362 0.74537 0.17715 0.0
H64 H 0.67633 0.73403 0.15667 0.0
H65 H 0.64243 0.77776 0.16279 0.0
O66 O 0.65487 0.74318 0.50593 0.0
C67 C 0.62696 0.77322 0.34614 0.0
Co68 Co 0.50711 0.38506 0.65693 0.0
Co69 Co 0.50577 0.37792 0.4996 0.0
C70 C 0.533 0.36139 0.58651 0.0
O71 O 0.52653 0.36872 0.6393 0.0
O72 O 0.52651 0.36387 0.52707 0.0
C73 C 0.52233 0.39226 0.78892 0.0
O74 O 0.53742 0.38906 0.75926 0.0
C75 C 0.51263 0.37755 0.34926 0.0
C76 C 0.48528 0.37758 0.31243 0.0
C77 C 0.50247 0.37784 0.29006 0.0
N78 N 0.5018 0.37737 0.40364 0.0
N79 N 0.48552 0.37726 0.38104 0.0
C80 C 0.53214 0.37684 0.35461 0.0
H81 H 0.53618 0.37123 0.4045 0.0
H82 H 0.53751 0.39028 0.35103 0.0
H83 H 0.53771 0.3689 0.31228 0.0
C84 C 0.50928 0.42165 0.60802 0.0
N85 N 0.5082 0.40432 0.5968 0.0
N86 N 0.50761 0.40139 0.53042 0.0
C87 C 0.50815 0.41682 0.49714 0.0
C88 C 0.50933 0.43014 0.54518 0.0
C89 C 0.51079 0.42969 0.67764 0.0
H90 H 0.49877 0.42681 0.7074 0.0
H91 H 0.52198 0.42367 0.70511 0.0
H92 H 0.51282 0.44403 0.67498 0.0
O93 O 0.48461 0.37255 0.6483 0.0
O94 O 0.48459 0.36694 0.53723 0.0
H95 H 0.49455 0.41144 0.40371 0.0
H96 H 0.50453 0.43268 0.4058 0.0
C97 C 0.50618 0.41882 0.42122 0.0
H98 H 0.51788 0.41338 0.39544 0.0
H99 H 0.47451 0.37727 0.41261 0.0
O100 O 0.50843 0.39223 0.75332 0.0
C101 C 0.47746 0.36585 0.59577 0.0
Co102 Co 0.86789 0.24499 0.90296 0.0
Co103 Co 0.87489 0.2427 0.74458 0.0
C104 C 0.89016 0.27135 0.8279 0.0
O105 O 0.8833 0.26484 0.88156 0.0
O106 O 0.88784 0.26443 0.76913 0.0
C107 C 0.86217 0.26077 0.03529 0.0
O108 O 0.86795 0.27508 0.00573 0.0
C109 C 0.87247 0.24955 0.5954 0.0
C110 C 0.87549 0.22261 0.55588 0.0
C111 C 0.87217 0.23966 0.53559 0.0
N112 N 0.87554 0.23869 0.64835 0.0
N113 N 0.87762 0.22269 0.62412 0.0
C114 C 0.86834 0.26856 0.60342 0.0
H115 H 0.86451 0.27148 0.65708 0.0
H116 H 0.8577 0.27247 0.56786 0.0
H117 H 0.88015 0.27634 0.59083 0.0
C118 C 0.83127 0.24553 0.85483 0.0
N119 N 0.84859 0.24478 0.84286 0.0
N120 N 0.85136 0.2435 0.77645 0.0
C121 C 0.83578 0.24306 0.74412 0.0
C122 C 0.8226 0.24452 0.79258 0.0
C123 C 0.82342 0.24792 0.9244 0.0
H124 H 0.82977 0.25917 0.95019 0.0
H125 H 0.80912 0.2503 0.9218 0.0
H126 H 0.82601 0.23608 0.95572 0.0
O127 O 0.88144 0.22303 0.89574 0.0
O128 O 0.88706 0.22236 0.78446 0.0
H129 H 0.81989 0.23561 0.657 0.0
H130 H 0.83608 0.25215 0.64061 0.0
C131 C 0.8334 0.2399 0.669 0.0
H132 H 0.84258 0.22964 0.65141 0.0
H133 H 0.87981 0.21168 0.65453 0.0
O134 O 0.86048 0.24689 3e-05 0.0
C135 C 0.88852 0.2158 0.84401 0.0
Co136 Co 0.00802 0.38581 0.82854 0.0
Co137 Co 0.00926 0.37823 0.98579 0.0
C138 C 0.98118 0.36325 0.89868 0.0
O139 O 0.98788 0.37038 0.84592 0.0
O140 O 0.98786 0.3653 0.95801 0.0
C141 C 0.99318 0.39383 0.6964 0.0
O142 O 0.97795 0.39125 0.72586 0.0
C143 C 0.0023 0.37813 0.13611 0.0
C144 C 0.02956 0.37631 0.17327 0.0
C145 C 0.01242 0.37772 0.19547 0.0
N146 N 0.01315 0.37724 0.08185 0.0
N147 N 0.02936 0.37602 0.10465 0.0
C148 C 0.9828 0.37872 0.1305 0.0
H149 H 0.97846 0.37347 0.08042 0.0
H150 H 0.97829 0.39247 0.13432 0.0
H151 H 0.9767 0.37109 0.17258 0.0
C152 C 0.00749 0.42235 0.87883 0.0
N153 N 0.00791 0.40497 0.88941 0.0
N154 N 0.00855 0.40184 0.95568 0.0
C155 C 0.00875 0.4172 0.98948 0.0
C156 C 0.00796 0.43068 0.94196 0.0
C157 C 0.00598 0.43062 0.80959 0.0
H158 H -0.00539 0.42493 0.78226 0.0
H159 H 0.00426 0.445 0.81288 0.0
H160 H 0.01787 0.42756 0.7793 0.0
O161 O 0.02989 0.37214 0.83657 0.0
O162 O 0.02983 0.36624 0.94746 0.0
H163 H 0.0137 0.43264 0.08083 0.0
H164 H -0.00104 0.41442 0.09139 0.0
C165 C 0.01101 0.41896 0.06536 0.0
H166 H 0.02208 0.4107 0.08251 0.0
H167 H 0.04038 0.3753 0.07321 0.0
O168 O 0.00704 0.3932 0.73221 0.0
C169 C 0.03678 0.36492 0.88865 0.0
Co170 Co 0.86737 0.74256 0.08978 0.0
Co171 Co 0.87416 0.74434 0.24831 0.0
C172 C 0.88914 0.71564 0.16459 0.0
O173 O 0.88248 0.72239 0.11099 0.0
O174 O 0.88682 0.72246 0.22354 0.0
C175 C 0.86127 0.72686 0.95766 0.0
O176 O 0.86658 0.71241 0.98751 0.0
C177 C 0.87151 0.73746 0.39745 0.0
C178 C 0.8749 0.76433 0.43707 0.0
C179 C 0.8713 0.74735 0.45726 0.0
N180 N 0.87478 0.74827 0.34457 0.0
N181 N 0.87708 0.76423 0.36886 0.0
C182 C 0.86709 0.71852 0.38935 0.0
H183 H 0.86328 0.71567 0.33562 0.0
H184 H 0.85635 0.71479 0.42474 0.0
H185 H 0.87877 0.71054 0.40215 0.0
C186 C 0.83064 0.74282 0.13718 0.0
N187 N 0.84796 0.74304 0.14949 0.0
N188 N 0.85067 0.74406 0.216 0.0
C189 C 0.83507 0.74484 0.24807 0.0
C190 C 0.82192 0.7439 0.19932 0.0
C191 C 0.82281 0.74093 0.06734 0.0
H192 H 0.82874 0.72947 0.04132 0.0
H193 H 0.80843 0.73916 0.06953 0.0
H194 H 0.82594 0.75271 0.03648 0.0
O195 O 0.88127 0.76431 0.09769 0.0
O196 O 0.88667 0.76451 0.20916 0.0
H197 H 0.842 0.758 0.34116 0.0
H198 H 0.81924 0.75242 0.3353 0.0
C199 C 0.83269 0.74792 0.32325 0.0
H200 H 0.83519 0.73557 0.35134 0.0
H201 H 0.87946 0.77521 0.33852 0.0
O202 O 0.86002 0.74084 0.99264 0.0
C203 C 0.88836 0.77124 0.15001 0.0
Co204 Co 0.50855 0.60333 0.32574 0.0
Co205 Co 0.50866 0.60982 0.48316 0.0
C206 C 0.5362 0.6252 0.39624 0.0
O207 O 0.52896 0.61851 0.34368 0.0
O208 O 0.53002 0.62282 0.45622 0.0
C209 C 0.52324 0.59509 0.19398 0.0
O210 O 0.53852 0.59753 0.22323 0.0
C211 C 0.51497 0.61052 0.63403 0.0
C212 C 0.48781 0.60588 0.66845 0.0
C213 C 0.50472 0.60809 0.69218 0.0
N214 N 0.5045 0.60944 0.57879 0.0
N215 N 0.4883 0.60685 0.59996 0.0
C216 C 0.53416 0.61422 0.63055 0.0
H217 H 0.5373 0.62182 0.58384 0.0
H218 H 0.54145 0.60168 0.62831 0.0
H219 H 0.5385 0.62162 0.67641 0.0
C220 C 0.50869 0.56642 0.37194 0.0
N221 N 0.50876 0.58375 0.38401 0.0
N222 N 0.50934 0.5865 0.45045 0.0
C223 C 0.50988 0.57097 0.48293 0.0
C224 C 0.50935 0.55775 0.43435 0.0
C225 C 0.50727 0.55847 0.30213 0.0
H226 H 0.49749 0.56578 0.27136 0.0
H227 H 0.52009 0.55955 0.27588 0.0
H228 H 0.50343 0.5445 0.3048 0.0
O229 O 0.48684 0.61697 0.33635 0.0
O230 O 0.48793 0.62225 0.44759 0.0
H231 H 0.49947 0.57189 0.58449 0.0
H232 H 0.51607 0.55536 0.57253 0.0
C233 C 0.51203 0.56884 0.5587 0.0
H234 H 0.52212 0.57805 0.57742 0.0
H235 H 0.47759 0.60537 0.56733 0.0
O236 O 0.50938 0.59628 0.22949 0.0
C237 C 0.48047 0.62395 0.38987 0.0
Co238 Co 0.64868 0.24455 0.58402 0.0
Co239 Co 0.64265 0.24325 0.74267 0.0
C240 C 0.6254 0.27036 0.65919 0.0
O241 O 0.63231 0.26374 0.60584 0.0
O242 O 0.62841 0.26411 0.7186 0.0
C243 C 0.65333 0.26079 0.45238 0.0
O244 O 0.64679 0.27472 0.48228 0.0
C245 C 0.64366 0.25023 0.89204 0.0
C246 C 0.64662 0.22315 0.93031 0.0
C247 C 0.64611 0.24044 0.95137 0.0
N248 N 0.6431 0.23914 0.8386 0.0
N249 N 0.64458 0.22299 0.86206 0.0
C250 C 0.64361 0.26972 0.8849 0.0
H251 H 0.64692 0.27357 0.83164 0.0
H252 H 0.65306 0.27571 0.92113 0.0
H253 H 0.63035 0.27475 0.897 0.0
C254 C 0.68558 0.2456 0.62866 0.0
N255 N 0.66832 0.24529 0.64205 0.0
N256 N 0.66588 0.24511 0.70876 0.0
C257 C 0.68158 0.24538 0.74009 0.0
C258 C 0.69455 0.24562 0.69041 0.0
C259 C 0.69316 0.24477 0.55805 0.0
H260 H 0.68631 0.23457 0.5279 0.0
H261 H 0.69102 0.25751 0.53209 0.0
H262 H 0.70737 0.24183 0.55908 0.0
O263 O 0.63634 0.22204 0.59322 0.0
O264 O 0.63134 0.22213 0.705 0.0
H265 H 0.67963 0.23363 0.83926 0.0
H266 H 0.69792 0.24842 0.83036 0.0
C267 C 0.68409 0.2461 0.81608 0.0
H268 H 0.67615 0.2569 0.83736 0.0
H269 H 0.64484 0.21188 0.83107 0.0
O270 O 0.65566 0.24689 0.48701 0.0
C271 C 0.6299 0.21497 0.64652 0.0
Co272 Co 0.36744 0.24498 0.58425 0.0
Co273 Co 0.37468 0.24602 0.7416 0.0
C274 C 0.39131 0.21908 0.65403 0.0
O275 O 0.38391 0.22563 0.60154 0.0
O276 O 0.38884 0.22539 0.71373 0.0
C277 C 0.36019 0.22974 0.45242 0.0
O278 O 0.36338 0.21466 0.48225 0.0
C279 C 0.37523 0.23918 0.89207 0.0
C280 C 0.37468 0.26655 0.92862 0.0
C281 C 0.37475 0.24938 0.95117 0.0
N282 N 0.3752 0.24999 0.83758 0.0
N283 N 0.375 0.26628 0.86002 0.0
C284 C 0.37632 0.21969 0.88695 0.0
H285 H 0.38204 0.21573 0.83719 0.0
H286 H 0.36298 0.21407 0.89038 0.0
H287 H 0.38432 0.2143 0.92948 0.0
C288 C 0.33089 0.24273 0.63337 0.0
N289 N 0.34823 0.24373 0.64448 0.0
N290 N 0.35121 0.24407 0.71086 0.0
C291 C 0.3358 0.24337 0.74425 0.0
C292 C 0.32246 0.24241 0.69627 0.0
C293 C 0.32278 0.24163 0.56375 0.0
H294 H 0.32601 0.25363 0.53437 0.0
H295 H 0.32845 0.23033 0.53586 0.0
H296 H 0.30838 0.24003 0.56644 0.0
O297 O 0.37981 0.26753 0.59318 0.0
O298 O 0.38555 0.2673 0.70416 0.0
H299 H 0.34088 0.25676 0.83835 0.0
H300 H 0.31997 0.24609 0.83614 0.0
C301 C 0.33385 0.24497 0.82031 0.0
H302 H 0.33973 0.23335 0.84525 0.0
H303 H 0.37478 0.27727 0.82833 0.0
O304 O 0.36024 0.24367 0.48788 0.0
C305 C 0.38655 0.27457 0.64585 0.0
Co306 Co 0.14907 0.74593 0.07014 0.0
Co307 Co 0.14316 0.74488 0.22886 0.0
C308 C 0.12762 0.77315 0.1457 0.0
O309 O 0.13401 0.7662 0.09199 0.0
O310 O 0.13028 0.76658 0.20485 0.0
C311 C 0.1548 0.7618 0.93847 0.0
O312 O 0.14923 0.77614 0.96835 0.0
C313 C 0.14472 0.75185 0.37815 0.0
C314 C 0.14592 0.72466 0.41663 0.0
C315 C 0.14656 0.74195 0.43754 0.0
N316 N 0.1434 0.74079 0.32481 0.0
N317 N 0.14383 0.7246 0.34839 0.0
C318 C 0.14592 0.77129 0.37085 0.0
H319 H 0.14943 0.7749 0.31752 0.0
H320 H 0.15575 0.77668 0.40694 0.0
H321 H 0.13301 0.77717 0.38301 0.0
C322 C 0.18607 0.74498 0.11447 0.0
N323 N 0.16881 0.74541 0.12795 0.0
N324 N 0.1664 0.74522 0.19469 0.0
C325 C 0.1821 0.74466 0.22591 0.0
C326 C 0.19505 0.74441 0.17615 0.0
C327 C 0.19362 0.7443 0.0438 0.0
H328 H 0.1866 0.73431 0.01314 0.0
H329 H 0.19165 0.75716 0.01854 0.0
H330 H 0.20778 0.74115 0.04465 0.0
O331 O 0.13523 0.72422 0.07953 0.0
O332 O 0.13051 0.72456 0.19148 0.0
H333 H 0.17931 0.73313 0.32518 0.0
H334 H 0.19864 0.74652 0.31623 0.0
C335 C 0.18468 0.74522 0.3019 0.0
H336 H 0.17756 0.75659 0.32309 0.0
H337 H 0.14334 0.71347 0.3175 0.0
O338 O 0.15615 0.74777 0.9731 0.0
C339 C 0.12847 0.71755 0.13302 0.0
Co340 Co 0.14886 0.24432 0.90681 0.0
Co341 Co 0.14241 0.2456 0.74831 0.0
C342 C 0.12687 0.21745 0.832 0.0
O343 O 0.13353 0.22433 0.8853 0.0
O344 O 0.12938 0.22397 0.77267 0.0
C345 C 0.15456 0.22842 0.03858 0.0
O346 O 0.14881 0.21414 0.00885 0.0
C347 C 0.14373 0.23866 0.59888 0.0
C348 C 0.14481 0.26586 0.56047 0.0
C349 C 0.14548 0.24857 0.53947 0.0
N350 N 0.14244 0.24971 0.65229 0.0
N351 N 0.14279 0.26591 0.62874 0.0
C352 C 0.14499 0.21922 0.60611 0.0
H353 H 0.14847 0.2156 0.65946 0.0
H354 H 0.15486 0.21386 0.57009 0.0
H355 H 0.13211 0.21333 0.59377 0.0
C356 C 0.18568 0.24459 0.86099 0.0
N357 N 0.16839 0.24456 0.84814 0.0
N358 N 0.1658 0.24493 0.7815 0.0
C359 C 0.18144 0.24525 0.74972 0.0
C360 C 0.19451 0.24508 0.79901 0.0
C361 C 0.1934 0.24496 0.9314 0.0
H362 H 0.18669 0.25507 0.96255 0.0
H363 H 0.19118 0.23211 0.95642 0.0
H364 H 0.20763 0.24775 0.93015 0.0
O365 O 0.13533 0.2662 0.89807 0.0
O366 O 0.13002 0.26607 0.78652 0.0
H367 H 0.17825 0.25694 0.65091 0.0
H368 H 0.19778 0.24376 0.65869 0.0
C369 C 0.18384 0.24487 0.67362 0.0
H370 H 0.17681 0.23347 0.65237 0.0
H371 H 0.14231 0.27703 0.65967 0.0
O372 O 0.15609 0.24239 0.00375 0.0
C373 C 0.12836 0.27303 0.84528 0.0
Co374 Co 0.36678 0.74337 0.40872 0.0
Co375 Co 0.37474 0.7432 0.25173 0.0
C376 C 0.389 0.77104 0.34145 0.0
O377 O 0.38191 0.76386 0.39329 0.0
O378 O 0.3872 0.76471 0.28141 0.0
C379 C 0.35817 0.75773 0.54075 0.0
O380 O 0.36069 0.77302 0.5117 0.0
C381 C 0.37495 0.75066 0.10171 0.0
C382 C 0.37674 0.72349 0.06352 0.0
C383 C 0.37522 0.74068 0.04195 0.0
N384 N 0.37596 0.73968 0.15554 0.0
N385 N 0.3772 0.72352 0.13211 0.0
C386 C 0.37434 0.77015 0.10815 0.0
H387 H 0.37978 0.77435 0.15808 0.0
H388 H 0.36057 0.77465 0.10535 0.0
H389 H 0.3818 0.77638 0.06589 0.0
C390 C 0.33034 0.74365 0.35704 0.0
N391 N 0.34776 0.74348 0.34714 0.0
N392 N 0.35106 0.74336 0.28097 0.0
C393 C 0.33579 0.74329 0.24654 0.0
C394 C 0.32219 0.7436 0.29353 0.0
C395 C 0.32188 0.74462 0.42605 0.0
H396 H 0.32544 0.73281 0.4561 0.0
H397 H 0.32699 0.75618 0.45389 0.0
H398 H 0.30745 0.74567 0.42235 0.0
O399 O 0.38083 0.72174 0.39972 0.0
O400 O 0.38695 0.72265 0.28907 0.0
H401 H 0.34249 0.7308 0.152 0.0
H402 H 0.32056 0.73918 0.154 0.0
C403 C 0.33421 0.74172 0.17033 0.0
H404 H 0.3388 0.75399 0.14614 0.0
H405 H 0.37795 0.71243 0.16311 0.0
O406 O 0.35909 0.74392 0.50473 0.0
C407 C 0.38826 0.71533 0.34719 0.0
Co408 Co 0.50958 0.10427 0.6629 0.0
Co409 Co 0.51072 0.11066 0.50436 0.0
C410 C 0.48356 0.12756 0.58866 0.0
O411 O 0.49029 0.12057 0.64167 0.0
O412 O 0.48977 0.12472 0.52905 0.0
C413 C 0.49341 0.09931 0.79444 0.0
O414 O 0.4794 0.10566 0.76445 0.0
C415 C 0.50378 0.10983 0.35478 0.0
C416 C 0.53091 0.10715 0.3168 0.0
C417 C 0.51363 0.10752 0.29553 0.0
N418 N 0.51484 0.11045 0.40838 0.0
N419 N 0.531 0.10914 0.38507 0.0
C420 C 0.48429 0.10973 0.36168 0.0
H421 H 0.48043 0.10648 0.41498 0.0
H422 H 0.47842 0.10017 0.32562 0.0
H423 H 0.47916 0.12292 0.34914 0.0
C424 C 0.5085 0.06746 0.61702 0.0
N425 N 0.50889 0.08475 0.60423 0.0
N426 N 0.50904 0.08735 0.53759 0.0
C427 C 0.5087 0.07172 0.50573 0.0
C428 C 0.50842 0.05863 0.55497 0.0
C429 C 0.50916 0.05971 0.68737 0.0
H430 H 0.51937 0.06641 0.71801 0.0
H431 H 0.4964 0.06189 0.7131 0.0
H432 H 0.51199 0.04548 0.68589 0.0
O433 O 0.53201 0.11677 0.65388 0.0
O434 O 0.53176 0.12204 0.54229 0.0
H435 H 0.52023 0.07403 0.4063 0.0
H436 H 0.50564 0.05557 0.41489 0.0
C437 C 0.50786 0.06939 0.42967 0.0
H438 H 0.49694 0.07728 0.40903 0.0
H439 H 0.5421 0.10894 0.41617 0.0
O440 O 0.50733 0.09715 0.75984 0.0
C441 C 0.53898 0.12339 0.60071 0.0
Co442 Co 0.00748 0.88502 0.17141 0.0
Co443 Co 0.00605 0.87934 0.01249 0.0
C444 C 0.0348 0.8641 0.09407 0.0
O445 O 0.02789 0.87033 0.14816 0.0
O446 O 0.02802 0.86669 0.03522 0.0
C447 C 0.02346 0.89062 0.30313 0.0
O448 O 0.03787 0.88541 0.2727 0.0
C449 C 0.01254 0.88118 0.86269 0.0
C450 C 0.98523 0.88269 0.82586 0.0
C451 C 0.00245 0.88323 0.80394 0.0
N452 N 0.00168 0.87982 0.91666 0.0
N453 N 0.98541 0.88044 0.89402 0.0
C454 C 0.03202 0.8822 0.86883 0.0
H455 H 0.03587 0.88561 0.92199 0.0
H456 H 0.03735 0.89205 0.83261 0.0
H457 H 0.03774 0.86927 0.85603 0.0
C458 C 0.00631 0.92207 0.12822 0.0
N459 N 0.00659 0.90484 0.11425 0.0
N460 N 0.00625 0.90255 0.04745 0.0
C461 C 0.00577 0.91832 0.01669 0.0
C462 C 0.00572 0.93118 0.06682 0.0
C463 C 0.00599 0.92949 0.19913 0.0
H464 H -0.0038 0.92238 0.23047 0.0
H465 H 0.019 0.92754 0.22322 0.0
H466 H 0.00278 0.94364 0.1989 0.0
O467 O 0.98597 0.87093 0.16229 0.0
O468 O 0.986 0.86624 0.05033 0.0
H469 H 0.99433 0.91587 0.91715 0.0
H470 H 0.00797 0.935 0.92681 0.0
C471 C 0.00646 0.92103 0.94078 0.0
H472 H 0.01775 0.91379 0.9196 0.0
H473 H 0.97439 0.87997 0.92555 0.0
O474 O 0.00939 0.89184 0.26878 0.0
C475 C 0.97922 0.86407 0.10917 0.0
Co476 Co 0.50615 0.88555 0.33758 0.0
Co477 Co 0.50772 0.87853 0.49612 0.0
C478 C 0.47926 0.86355 0.41134 0.0
O479 O 0.48607 0.87034 0.35815 0.0
O480 O 0.48594 0.86579 0.47059 0.0
C481 C 0.49045 0.89184 0.20559 0.0
O482 O 0.47598 0.88668 0.23561 0.0
C483 C 0.50078 0.88106 0.64538 0.0
C484 C 0.52768 0.87772 0.68494 0.0
C485 C 0.51069 0.88129 0.70518 0.0
N486 N 0.51159 0.87782 0.59246 0.0
N487 N 0.52756 0.87554 0.61674 0.0
C488 C 0.48182 0.88544 0.63734 0.0
H489 H 0.47893 0.88919 0.58356 0.0
H490 H 0.47808 0.89621 0.67256 0.0
H491 H 0.47389 0.87376 0.65045 0.0
C492 C 0.50599 0.92219 0.38565 0.0
N493 N 0.50639 0.90486 0.39767 0.0
N494 N 0.50732 0.90208 0.46416 0.0
C495 C 0.50788 0.91765 0.49651 0.0
C496 C 0.50685 0.93085 0.44796 0.0
C497 C 0.50407 0.93009 0.3159 0.0
H498 H 0.5159 0.92705 0.28512 0.0
H499 H 0.49268 0.92412 0.28968 0.0
H500 H 0.50219 0.94446 0.31826 0.0
O501 O 0.52794 0.87171 0.34572 0.0
O502 O 0.52801 0.86616 0.45709 0.0
H503 H 0.52092 0.91068 0.58989 0.0
H504 H 0.51524 0.93343 0.58407 0.0
C505 C 0.51083 0.91997 0.57179 0.0
H506 H 0.49845 0.91744 0.59952 0.0
H507 H 0.53855 0.8732 0.58638 0.0
O508 O 0.50446 0.89297 0.24046 0.0
C509 C 0.53483 0.86457 0.39807 0.0
Co510 Co 0.00886 0.10315 0.83905 0.0
Co511 Co 0.00767 0.11125 0.9959 0.0
C512 C 0.03581 0.12582 0.90765 0.0
O513 O 0.02912 0.11852 0.85527 0.0
O514 O 0.02909 0.12402 0.96704 0.0
C515 C 0.02337 0.09487 0.7066 0.0
O516 O 0.03864 0.0979 0.73503 0.0
C517 C 0.01506 0.11125 0.14574 0.0
C518 C 0.98795 0.11337 0.18432 0.0
C519 C 0.00514 0.11156 0.20567 0.0
N520 N 0.00405 0.11249 0.09208 0.0
N521 N 0.98794 0.11394 0.11572 0.0
C522 C 0.03453 0.11036 0.13891 0.0
H523 H 0.03875 0.1157 0.08883 0.0
H524 H 0.03885 0.09653 0.14179 0.0
H525 H 0.04091 0.11778 0.18091 0.0
C526 C 0.00907 0.06678 0.89106 0.0
N527 N 0.00888 0.0842 0.90087 0.0
N528 N 0.00824 0.08752 0.96698 0.0
C529 C 0.00782 0.07224 0.00144 0.0
C530 C 0.00847 0.05864 0.95453 0.0
C531 C 0.01039 0.0583 0.82218 0.0
H532 H -0.00154 0.06138 0.79208 0.0
H533 H 0.02176 0.0638 0.79426 0.0
H534 H 0.01196 0.04392 0.82618 0.0
O535 O 0.98709 0.11695 0.84682 0.0
O536 O 0.98706 0.1232 0.95743 0.0
H537 H -0.00549 0.07918 0.09401 0.0
H538 H 0.00244 0.05707 0.09311 0.0
C539 C 0.00543 0.07068 0.07732 0.0
H540 H 0.01754 0.07498 0.10346 0.0
H541 H 0.97684 0.1149 0.08486 0.0
O542 O 0.00963 0.09539 0.74312 0.0
C543 C 0.98017 0.12435 0.89843 0.0
H544 H 0.98263 0.59559 0.73736 0.0
H545 H 0.02493 0.59167 0.36753 0.0
H546 H 0.03339 0.61674 0.68669 0.0
H547 H 0.96893 0.5967 0.39023 0.0
H548 H 0.02814 0.59425 0.49089 0.0
H549 H 0.97703 0.59107 0.615 0.0
C550 C 0.9924 0.59972 0.70079 0.0
C551 C 0.0084 0.60689 0.72233 0.0
C552 C 0.01514 0.5947 0.46889 0.0
C553 C 0.00241 0.60084 0.58345 0.0
C554 C 0.01326 0.59314 0.39849 0.0
C555 C -0.00335 0.59428 0.36842 0.0
C556 C 0.0003 0.59729 0.50982 0.0
C557 C 0.982 0.59593 0.41139 0.0
C558 C 0.98927 0.59688 0.6311 0.0
C559 C 0.02088 0.61118 0.6725 0.0
N560 N 0.98416 0.59751 0.48031 0.0
N561 N 0.01767 0.60798 0.60554 0.0
H562 H 0.66683 0.76648 0.95114 0.0
H563 H 0.64393 0.7044 0.63438 0.0
H564 H 0.63346 0.7212 0.96865 0.0
H565 H 0.66869 0.75493 0.61679 0.0
H566 H 0.64435 0.70741 0.75933 0.0
H567 H 0.67179 0.75951 0.83112 0.0
C568 C 0.66064 0.75497 0.9298 0.0
C569 C 0.64973 0.74439 0.97004 0.0
C570 C 0.64984 0.71774 0.72803 0.0
C571 C 0.6553 0.73636 0.83218 0.0
C572 C 0.64968 0.716 0.65679 0.0
C573 C 0.65611 0.72954 0.61519 0.0
C574 C 0.65658 0.73305 0.75762 0.0
C575 C 0.66341 0.74427 0.64689 0.0
C576 C 0.66351 0.75098 0.86124 0.0
C577 C 0.64218 0.72956 0.93987 0.0
N578 N 0.66335 0.74567 0.71615 0.0
N579 N 0.64501 0.72604 0.87242 0.0
H580 H 0.48417 0.3656 0.18195 0.0
H581 H 0.54878 0.3923 0.88483 0.0
H582 H 0.53169 0.39343 0.23114 0.0
H583 H 0.4925 0.39302 0.86473 0.0
H584 H 0.54534 0.38885 0.00949 0.0
H585 H 0.48992 0.37043 0.06097 0.0
C586 C 0.49595 0.37254 0.16742 0.0
C587 C 0.50753 0.37898 0.21709 0.0
C588 C 0.53383 0.38996 0.97742 0.0
C589 C 0.51413 0.38458 0.07831 0.0
C590 C 0.53575 0.39195 0.90656 0.0
C591 C 0.5209 0.39279 0.86426 0.0
C592 C 0.51699 0.38847 0.00529 0.0
C593 C 0.50433 0.39231 0.89508 0.0
C594 C 0.49916 0.37535 0.09834 0.0
C595 C 0.52263 0.38782 0.19495 0.0
N596 N 0.50284 0.38994 0.96353 0.0
N597 N 0.52552 0.39038 0.12685 0.0
H598 H 0.85354 0.22077 0.44395 0.0
H599 H 0.87128 0.28555 0.13047 0.0
H600 H 0.88048 0.27001 0.46594 0.0
H601 H 0.84808 0.23431 0.11143 0.0
H602 H 0.87099 0.28226 0.25522 0.0
H603 H 0.84788 0.22763 0.32426 0.0
C604 C 0.85816 0.23312 0.42362 0.0
C605 C 0.86749 0.24484 0.46499 0.0
C606 C 0.8658 0.27183 0.2237 0.0
C607 C 0.86117 0.25276 0.3274 0.0
C608 C 0.8659 0.27371 0.15249 0.0
C609 C 0.85989 0.26008 0.11043 0.0
C610 C 0.85961 0.25623 0.2529 0.0
C611 C 0.85304 0.24507 0.14178 0.0
C612 C 0.85488 0.23705 0.35524 0.0
C613 C 0.87303 0.26071 0.43616 0.0
N614 N 0.85322 0.2435 0.21102 0.0
N615 N 0.86992 0.26415 0.3688 0.0
H616 H 0.02991 0.36453 0.30406 0.0
H617 H 0.96684 0.39536 0.6002 0.0
H618 H 0.98413 0.39514 0.25397 0.0
H619 H 0.02305 0.39278 0.62082 0.0
H620 H 0.97015 0.39161 0.47562 0.0
H621 H 0.02442 0.36986 0.4249 0.0
C622 C 0.01856 0.3722 0.31835 0.0
C623 C 0.0074 0.37926 0.26843 0.0
C624 C 0.98168 0.39207 0.50778 0.0
C625 C 0.00109 0.38542 0.40711 0.0
C626 C 0.97984 0.39423 0.5786 0.0
C627 C -0.00531 0.39423 0.62103 0.0
C628 C -0.00158 0.38955 0.48007 0.0
C629 C 0.01122 0.39275 0.59037 0.0
C630 C 0.0155 0.37529 0.38736 0.0
C631 C 0.99284 0.38903 0.29032 0.0
N632 N 0.01261 0.39023 0.52195 0.0
N633 N 0.99008 0.39184 0.35835 0.0
H634 H 0.85281 0.76652 0.54851 0.0
H635 H 0.86977 0.70177 0.86283 0.0
H636 H 0.87917 0.7169 0.52712 0.0
H637 H 0.84766 0.75354 0.88127 0.0
H638 H 0.86939 0.70491 0.73801 0.0
H639 H 0.84707 0.75984 0.66826 0.0
C640 C 0.85728 0.75412 0.56898 0.0
C641 C 0.86649 0.74224 0.52779 0.0
C642 C 0.86446 0.71549 0.76942 0.0
C643 C 0.86008 0.73453 0.66545 0.0
C644 C 0.86461 0.71369 0.84067 0.0
C645 C 0.85894 0.72751 0.88256 0.0
C646 C 0.85855 0.73118 0.74003 0.0
C647 C 0.85236 0.74263 0.85104 0.0
C648 C 0.85396 0.75029 0.6374 0.0
C649 C 0.87183 0.72632 0.55679 0.0
N650 N 0.85247 0.74411 0.78178 0.0
N651 N 0.86869 0.72298 0.62419 0.0
H652 H 0.53553 0.59564 0.74983 0.0
H653 H 0.49344 0.59094 0.11982 0.0
H654 H 0.48461 0.6164 0.80104 0.0
H655 H 0.54936 0.59663 0.09697 0.0
H656 H 0.49017 0.59364 -0.0035 0.0
H657 H 0.54123 0.59107 0.8721 0.0
C658 C 0.52574 0.59968 0.78649 0.0
C659 C 0.50967 0.60675 0.7651 0.0
C660 C 0.50317 0.59421 0.01846 0.0
C661 C 0.51578 0.60062 0.90392 0.0
C662 C 0.50508 0.59257 0.08884 0.0
C663 C 0.52169 0.59387 0.11887 0.0
C664 C 0.51795 0.59702 0.97751 0.0
C665 C 0.5363 0.59574 0.07585 0.0
C666 C 0.52893 0.59681 0.85613 0.0
C667 C 0.49718 0.61092 0.81508 0.0
N668 N 0.5341 0.59738 0.00696 0.0
N669 N 0.50045 0.60768 0.882 0.0
H670 H 0.67153 0.23679 0.37757 0.0
H671 H 0.63186 0.26849 0.02116 0.0
H672 H 0.64058 0.28375 0.35679 0.0
H673 H 0.6678 0.2253 0.04352 0.0
H674 H 0.63658 0.27597 0.14171 0.0
H675 H 0.67222 0.23403 0.2533 0.0
C676 C 0.66501 0.24662 0.34674 0.0
C677 C 0.65581 0.2604 0.37749 0.0
C678 C 0.6436 0.265 0.11987 0.0
C679 C 0.65634 0.25722 0.23504 0.0
C680 C 0.64101 0.26081 0.0509 0.0
C681 C 0.64951 0.2463 0.02221 0.0
C682 C 0.65467 0.25451 0.1602 0.0
C683 C 0.66085 0.23651 0.06375 0.0
C684 C 0.66541 0.24505 0.27572 0.0
C685 C 0.64776 0.27288 0.33509 0.0
N686 N 0.66302 0.24073 0.1306 0.0
N687 N 0.64801 0.27086 0.26591 0.0
H688 H 0.36038 0.20323 0.3568 0.0
H689 H 0.38667 0.26793 0.05914 0.0
H690 H 0.35925 0.25952 0.37624 0.0
H691 H 0.35958 0.21996 0.01031 0.0
H692 H 0.38181 0.26224 0.18013 0.0
H693 H 0.36391 0.20661 0.23216 0.0
C694 C 0.36066 0.21625 0.33493 0.0
C695 C 0.35969 0.23112 0.37705 0.0
C696 C 0.37706 0.25289 0.14285 0.0
C697 C 0.3641 0.23497 0.23602 0.0
C698 C 0.37988 0.25607 0.07377 0.0
C699 C 0.37366 0.24435 0.02419 0.0
C700 C 0.36802 0.23781 0.163 0.0
C701 C 0.36503 0.22915 0.04645 0.0
C702 C 0.36269 0.21814 0.26408 0.0
C703 C 0.36007 0.24768 0.34605 0.0
N704 N 0.36244 0.22628 0.11455 0.0
N705 N 0.36249 0.24914 0.2776 0.0
H706 H 0.1342 0.77092 0.50714 0.0
H707 H 0.17139 0.73662 0.86386 0.0
H708 H 0.16722 0.72546 0.52975 0.0
H709 H 0.14375 0.7856 0.84278 0.0
H710 H 0.17202 0.73385 0.73959 0.0
H711 H 0.13938 0.7781 0.62767 0.0
C712 C 0.14282 0.76266 0.53693 0.0
C713 C 0.15035 0.74761 0.50832 0.0
C714 C 0.16596 0.74531 0.76194 0.0
C715 C 0.156 0.75549 0.64631 0.0
C716 C 0.1656 0.74688 0.83297 0.0
C717 C 0.15732 0.76125 0.86362 0.0
C718 C 0.1578 0.75808 0.72117 0.0
C719 C 0.1502 0.77426 0.82115 0.0
C720 C 0.14567 0.76669 0.60589 0.0
C721 C 0.16102 0.73711 0.54992 0.0
N722 N 0.15039 0.77225 0.75196 0.0
N723 N 0.16344 0.74119 0.61677 0.0
H724 H 0.13332 0.21955 0.46976 0.0
H725 H 0.17104 0.25361 0.11339 0.0
H726 H 0.16603 0.26517 0.44723 0.0
H727 H 0.14329 0.20475 0.13431 0.0
H728 H 0.17139 0.25652 0.23764 0.0
H729 H 0.13865 0.21234 0.34934 0.0
C730 C 0.1419 0.22784 0.44002 0.0
C731 C 0.14931 0.24294 0.46865 0.0
C732 C 0.16537 0.24505 0.21526 0.0
C733 C 0.15515 0.23501 0.33076 0.0
C734 C 0.16517 0.24339 0.14424 0.0
C735 C 0.15695 0.22902 0.11352 0.0
C736 C 0.15709 0.23235 0.25597 0.0
C737 C 0.14971 0.21609 0.15597 0.0
C738 C 0.14484 0.22379 0.37111 0.0
C739 C 0.15992 0.25348 0.42707 0.0
N740 N 0.14974 0.21817 0.22514 0.0
N741 N 0.16244 0.24937 0.36029 0.0
H742 H 0.35783 0.72772 0.61585 0.0
H743 H 0.35768 0.76928 0.98577 0.0
H744 H 0.35731 0.78397 0.63735 0.0
H745 H 0.38715 0.72305 0.93151 0.0
H746 H 0.35218 0.77458 0.86391 0.0
H747 H 0.36158 0.72497 0.73907 0.0
C748 C 0.35827 0.73952 0.6465 0.0
C749 C 0.35752 0.75613 0.61606 0.0
C750 C 0.36002 0.76343 0.87919 0.0
C751 C 0.36184 0.75298 0.75729 0.0
C752 C 0.3634 0.7605 0.94871 0.0
C753 C 0.37316 0.7458 0.96925 0.0
C754 C 0.36602 0.75133 0.83063 0.0
C755 C 0.37952 0.7345 0.91835 0.0
C756 C 0.36053 0.73792 0.71679 0.0
C757 C 0.35801 0.77092 0.65875 0.0
N758 N 0.3757 0.73741 0.85162 0.0
N759 N 0.36023 0.76902 0.72755 0.0
H760 H 0.51769 0.08161 0.86974 0.0
H761 H 0.48544 0.12137 0.22522 0.0
H762 H 0.47028 0.11189 0.88972 0.0
H763 H 0.5291 0.08597 0.20378 0.0
H764 H 0.47806 0.11642 0.10469 0.0
H765 H 0.52049 0.08119 0.99403 0.0
C766 C 0.50777 0.08803 0.9004 0.0
C767 C 0.49384 0.09696 0.86941 0.0
C768 C 0.48911 0.10957 0.12673 0.0
C769 C 0.49707 0.09675 0.01188 0.0
C770 C 0.49325 0.1123 0.19569 0.0
C771 C 0.50786 0.10401 0.22465 0.0
C772 C 0.49975 0.09858 0.08668 0.0
C773 C 0.51781 0.09276 0.18336 0.0
C774 C 0.50936 0.08779 0.97143 0.0
C775 C 0.48126 0.1049 0.9116 0.0
N776 N 0.51363 0.09045 0.11653 0.0
N777 N 0.4833 0.10482 0.98079 0.0
H778 H 0.98589 0.90437 0.71357 0.0
H779 H 0.04795 0.88043 0.39774 0.0
H780 H 0.03096 0.87068 0.73204 0.0
H781 H -0.00226 0.90588 0.37929 0.0
H782 H 0.04488 0.88105 0.52264 0.0
H783 H 0.99297 0.90915 0.59349 0.0
C784 C -0.00262 0.89807 0.69242 0.0
C785 C 0.00787 0.88713 0.73293 0.0
C786 C 0.03463 0.88665 0.49116 0.0
C787 C 0.01603 0.89248 0.59506 0.0
C788 C 0.0364 0.88637 0.41994 0.0
C789 C 0.02297 0.89293 0.37813 0.0
C790 C 0.01939 0.89364 0.52051 0.0
C791 C 0.00831 0.90048 0.40957 0.0
C792 C 0.00144 0.90084 0.62384 0.0
C793 C 0.02268 0.87943 0.70303 0.0
N794 N 0.00687 0.90053 0.47882 0.0
N795 N 0.02626 0.88215 0.63557 0.0
H796 H 0.46528 0.88341 0.11105 0.0
H797 H 0.52987 0.89986 0.79598 0.0
H798 H 0.51715 0.90521 0.12883 0.0
H799 H 0.48029 0.87349 0.77542 0.0
H800 H 0.52326 0.90573 0.91568 0.0
H801 H 0.46835 0.88365 0.9862 0.0
C802 C 0.47721 0.88848 0.08873 0.0
C803 C 0.49108 0.8941 0.13045 0.0
C804 C 0.5137 0.8988 0.88502 0.0
C805 C 0.49467 0.89433 0.98789 0.0
C806 C 0.51749 0.89542 0.81663 0.0
C807 C 0.50561 0.88616 0.77568 0.0
C808 C 0.49797 0.89272 0.9133 0.0
C809 C 0.48971 0.88086 0.8049 0.0
C810 C 0.47897 0.88854 0.01748 0.0
C811 C 0.50621 0.90055 0.09874 0.0
N812 N 0.48641 0.88407 0.87228 0.0
N813 N 0.50764 0.90037 0.02946 0.0
H814 H 0.03386 0.09403 0.26122 0.0
H815 H 0.9932 0.09387 0.63264 0.0
H816 H 0.98748 0.12311 0.31678 0.0
H817 H 0.0494 0.0944 0.609 0.0
H818 H 0.9901 0.09741 0.50944 0.0
H819 H 0.03944 0.0886 0.38284 0.0
C820 C 0.02509 0.09968 0.29846 0.0
C821 C 0.0103 0.10934 0.27831 0.0
C822 C 0.0031 0.09663 0.53126 0.0
C823 C 0.01615 0.10225 0.41681 0.0
C824 C 0.00492 0.09449 0.60153 0.0
C825 C 0.02161 0.09409 0.63136 0.0
C826 C 0.01805 0.09816 0.49016 0.0
C827 C 0.03629 0.09481 0.5881 0.0
C828 C 0.02819 0.09633 0.36788 0.0
C829 C -0.00098 0.11557 0.32957 0.0
N830 N 0.03418 0.0969 0.51932 0.0
N831 N 0.00209 0.11178 0.39623 0.0
H832 H 0.9886 0.53331 0.11179 0.0
H833 H 0.03 0.45532 0.89013 0.0
H834 H 0.03092 0.54018 0.9685 0.0
H835 H 0.98626 0.44868 0.02693 0.0
H836 H 0.03078 0.48648 0.91911 0.0
H837 H 0.98811 0.50201 0.08458 0.0
C838 C -0.00213 0.52813 0.07506 0.0
C839 C 0.00978 0.53919 0.04207 0.0
C840 C 0.02097 0.47824 0.94272 0.0
C841 C 0.00922 0.50366 0.01007 0.0
C842 C 0.02048 0.46053 0.92584 0.0
C843 C 0.00803 0.44959 0.95622 0.0
C844 C 0.00894 0.48497 0.99041 0.0
C845 C -0.0039 0.45679 0.0028 0.0
C846 C -0.00247 0.51034 0.05918 0.0
C847 C 0.02145 0.53201 0.99445 0.0
N848 N -0.00314 0.47406 0.01864 0.0
N849 N 0.02086 0.51468 0.97969 0.0
H850 H 0.7975 0.76558 0.14301 0.0
H851 H 0.71806 0.72379 0.35493 0.0
H852 H 0.80355 0.72286 0.2852 0.0
H853 H 0.71286 0.76925 0.22588 0.0
H854 H 0.74945 0.72305 0.3297 0.0
H855 H 0.76619 0.76661 0.16991 0.0
C856 C 0.79213 0.75633 0.17944 0.0
C857 C 0.80294 0.7441 0.21193 0.0
C858 C 0.74147 0.73323 0.30704 0.0
C859 C 0.76741 0.74529 0.24368 0.0
C860 C 0.72363 0.7337 0.32177 0.0
C861 C 0.71301 0.74655 0.29207 0.0
C862 C 0.74865 0.74571 0.26223 0.0
C863 C 0.72069 0.75904 0.24909 0.0
C864 C 0.77435 0.75699 0.19518 0.0
C865 C 0.79554 0.73252 0.25938 0.0
N866 N 0.73807 0.75827 0.23514 0.0
N867 N 0.77821 0.73339 0.27391 0.0
H868 H 0.53056 0.53278 0.37882 0.0
H869 H 0.48751 0.45502 0.59653 0.0
H870 H 0.48771 0.5399 0.51955 0.0
H871 H 0.53175 0.44796 0.46255 0.0
H872 H 0.48731 0.48624 0.56864 0.0
H873 H 0.53083 0.50147 0.40625 0.0
C874 C 0.52114 0.52766 0.41509 0.0
C875 C 0.50913 0.53878 0.44725 0.0
C876 C 0.49711 0.4779 0.54543 0.0
C877 C 0.50943 0.50326 0.47942 0.0
C878 C 0.49727 0.46015 0.5617 0.0
C879 C 0.50968 0.44908 0.53175 0.0
C880 C 0.50944 0.48454 0.49876 0.0
C881 C 0.52194 0.45618 0.48631 0.0
C882 C 0.52135 0.50987 0.43108 0.0
C883 C 0.49726 0.53168 0.49426 0.0
N884 N 0.5215 0.4735 0.47099 0.0
N885 N 0.49772 0.51435 0.50908 0.0
H886 H 0.79756 0.22385 0.84993 0.0
H887 H 0.71913 0.26776 0.63846 0.0
H888 H 0.80488 0.26581 0.7053 0.0
H889 H 0.71296 0.22247 0.7677 0.0
H890 H 0.75058 0.26766 0.66322 0.0
H891 H 0.76622 0.22384 0.82364 0.0
C892 C 0.79247 0.23314 0.81305 0.0
C893 C 0.80364 0.24487 0.77974 0.0
C894 C 0.74236 0.25772 0.68605 0.0
C895 C 0.76806 0.24486 0.74872 0.0
C896 C 0.72449 0.25774 0.67166 0.0
C897 C 0.71359 0.24518 0.70154 0.0
C898 C 0.74927 0.24503 0.73069 0.0
C899 C 0.72101 0.2325 0.74444 0.0
C900 C 0.77466 0.23307 0.79766 0.0
C901 C 0.79659 0.25653 0.73173 0.0
N902 N 0.7384 0.23278 0.75803 0.0
N903 N 0.77921 0.25624 0.71759 0.0
H904 H 0.21299 0.26892 0.7256 0.0
H905 H 0.30445 0.21932 0.77517 0.0
H906 H 0.2189 0.22197 0.84565 0.0
H907 H 0.29784 0.26514 0.64915 0.0
H908 H 0.27321 0.22017 0.80315 0.0
H909 H 0.24429 0.26819 0.69945 0.0
C910 C 0.22099 0.25849 0.74654 0.0
C911 C 0.21352 0.24542 0.78732 0.0
C912 C 0.27855 0.23001 0.76918 0.0
C913 C 0.24916 0.24445 0.75799 0.0
C914 C 0.29631 0.2295 0.75325 0.0
C915 C 0.30354 0.24216 0.70987 0.0
C916 C 0.26802 0.24333 0.74152 0.0
C917 C 0.29262 0.25508 0.68241 0.0
C918 C 0.23879 0.25805 0.73166 0.0
C919 C 0.2243 0.23228 0.81405 0.0
N920 N 0.27537 0.25537 0.69885 0.0
N921 N 0.24162 0.23207 0.79867 0.0
H922 H 0.21992 0.76671 0.1277 0.0
H923 H 0.29733 0.72091 0.33913 0.0
H924 H 0.21308 0.72041 0.25068 0.0
H925 H 0.30458 0.76649 0.21238 0.0
H926 H 0.26631 0.72052 0.3076 0.0
H927 H 0.25119 0.76653 0.15564 0.0
C928 C 0.22511 0.75642 0.16002 0.0
C929 C 0.21407 0.74362 0.1874 0.0
C930 C 0.27466 0.73063 0.28672 0.0
C931 C 0.24954 0.74339 0.22029 0.0
C932 C 0.29228 0.73091 0.30512 0.0
C933 C 0.30334 0.74376 0.27828 0.0
C934 C 0.26814 0.74333 0.24121 0.0
C935 C 0.29636 0.75634 0.2338 0.0
C936 C 0.24288 0.75636 0.17632 0.0
C937 C 0.22126 0.73059 0.22926 0.0
N938 N 0.27917 0.75581 0.21653 0.0
N939 N 0.23855 0.73085 0.24477 0.0
H940 H 0.48574 0.03439 0.60567 0.0
H941 H 0.52831 0.95552 0.39247 0.0
H942 H 0.53124 0.03995 0.47724 0.0
H943 H 0.4855 0.94893 0.53371 0.0
H944 H 0.52898 0.98679 0.41984 0.0
H945 H 0.48513 0.00303 0.57932 0.0
C946 C 0.49567 0.02891 0.57234 0.0
C947 C 0.50849 0.03961 0.54315 0.0
C948 C 0.5194 0.97853 0.4448 0.0
C949 C 0.50783 0.00404 0.51215 0.0
C950 C 0.51896 0.96077 0.42878 0.0
C951 C 0.50682 0.94982 0.46088 0.0
C952 C 0.50758 0.98531 0.49319 0.0
C953 C 0.4951 0.95705 0.5082 0.0
C954 C 0.49528 0.01109 0.55701 0.0
C955 C 0.52103 0.03206 0.50003 0.0
N956 N 0.49577 0.97438 0.52303 0.0
N957 N 0.52036 0.01472 0.48554 0.0
H958 H 0.02855 0.95533 0.11698 0.0
H959 H 0.9858 0.03431 0.90483 0.0
H960 H 0.9824 0.95005 0.99203 0.0
H961 H 0.03006 0.04047 0.03931 0.0
H962 H 0.98454 0.00323 0.93508 0.0
H963 H 0.0292 0.98669 0.09067 0.0
C964 C 0.01847 0.96088 0.08457 0.0
C965 C 0.00546 0.95025 0.0562 0.0
C966 C -0.00545 0.01135 0.95798 0.0
C967 C 0.00619 0.98582 0.02513 0.0
C968 C -0.00468 0.029 0.94033 0.0
C969 C 0.00807 0.03978 0.96962 0.0
C970 C 0.00664 0.0045 0.00518 0.0
C971 C 0.02001 0.03248 0.01595 0.0
C972 C 0.01888 0.9787 0.06921 0.0
C973 C 0.99273 0.9579 0.0142 0.0
N974 N 0.01901 0.01525 0.03238 0.0
N975 N 0.99346 0.97523 -0.00042 0.0
H976 H 0.11493 0.69795 0.23741 0.0
H977 H 0.05508 0.64026 0.9909 0.0
H978 H 0.11672 0.70116 0.01659 0.0
H979 H 0.05484 0.63579 0.21151 0.0
H980 H 0.07934 0.66081 -0.00116 0.0
H981 H 0.0947 0.67348 0.22836 0.0
C982 C 0.11115 0.69346 0.18692 0.0
C983 C 0.11739 0.70177 0.12761 0.0
C984 C 0.07407 0.65525 0.04549 0.0
C985 C 0.09413 0.67372 0.117 0.0
C986 C 0.06019 0.64351 0.04106 0.0
C987 C 0.05277 0.63642 0.10074 0.0
C988 C 0.08056 0.66002 0.11007 0.0
C989 C 0.06006 0.64101 0.16418 0.0
C990 C 0.0996 0.67944 0.18184 0.0
C991 C 0.11216 0.69523 0.06367 0.0
N992 N 0.07346 0.65264 0.16719 0.0
N993 N 0.10071 0.68168 0.06007 0.0
H994 H 0.55476 0.85016 0.49973 0.0
H995 H 0.61152 0.79204 0.24321 0.0
H996 H 0.55084 0.85374 0.27942 0.0
H997 H 0.61659 0.79002 0.46348 0.0
H998 H 0.59105 0.81633 0.25503 0.0
H999 H 0.57915 0.82992 0.48693 0.0
C1000 C 0.55909 0.84678 0.44857 0.0
C1001 C 0.5506 0.85353 0.3905 0.0
C1002 C 0.59673 0.81066 0.30076 0.0
C1003 C 0.57854 0.83024 0.37558 0.0
C1004 C 0.60842 0.79676 0.29411 0.0
C1005 C 0.61566 0.78884 0.35254 0.0
C1006 C 0.59216 0.81666 0.36631 0.0
C1007 C 0.61126 0.79564 0.41704 0.0
C1008 C 0.57305 0.83522 0.44134 0.0
C1009 C 0.55692 0.84879 0.32561 0.0
N1010 N 0.59968 0.80906 0.42219 0.0
N1011 N 0.57042 0.8373 0.3199 0.0
H1012 H 0.45704 0.35257 0.49334 0.0
H1013 H 0.40009 0.2947 0.74867 0.0
H1014 H 0.46061 0.35597 0.71377 0.0
H1015 H 0.39604 0.29182 0.52826 0.0
H1016 H 0.41947 0.3198 0.73698 0.0
H1017 H 0.43203 0.3331 0.50535 0.0
C1018 C 0.45248 0.34934 0.54435 0.0
C1019 C 0.46112 0.35571 0.60271 0.0
C1020 C 0.41422 0.31379 0.69116 0.0
C1021 C 0.43249 0.33332 0.61671 0.0
C1022 C 0.40316 0.29943 0.69775 0.0
C1023 C 0.39664 0.29096 0.63926 0.0
C1024 C 0.41892 0.31969 0.62563 0.0
C1025 C 0.40089 0.29783 0.57472 0.0
C1026 C 0.43816 0.33822 0.55112 0.0
C1027 C 0.45447 0.35125 0.66738 0.0
N1028 N 0.41193 0.31168 0.56963 0.0
N1029 N 0.44066 0.34016 0.67264 0.0
H1030 H 0.96334 0.13305 0.77896 0.0
H1031 H 0.89785 0.19961 0.96413 0.0
H1032 H 0.96083 0.14042 -0.00186 0.0
H1033 H 0.904 0.19588 0.74462 0.0
H1034 H 0.918 0.17504 0.9777 0.0
H1035 H 0.93871 0.15315 0.76577 0.0
C1036 C 0.95753 0.13876 0.82435 0.0
C1037 C 0.96431 0.1352 0.88969 0.0
C1038 C 0.91484 0.17953 0.92656 0.0
C1039 C 0.93616 0.15824 0.87492 0.0
C1040 C 0.90331 0.19354 0.91876 0.0
C1041 C 0.89938 0.19997 0.85318 0.0
C1042 C 0.92249 0.17188 0.86838 0.0
C1043 C 0.90679 0.19151 0.79625 0.0
C1044 C 0.94348 0.15026 0.81677 0.0
C1045 C 0.95618 0.14293 0.94669 0.0
N1046 N 0.91807 0.17799 0.80521 0.0
N1047 N 0.94262 0.15417 0.93792 0.0
H1048 H 0.11907 0.29027 0.96306 0.0
H1049 H 0.0534 0.3552 0.76988 0.0
H1050 H 0.11276 0.29201 0.74324 0.0
H1051 H 0.05633 0.3498 0.98988 0.0
H1052 H 0.07801 0.33495 0.75884 0.0
H1053 H 0.09896 0.31497 0.97336 0.0
C1054 C 0.11358 0.29592 0.91692 0.0
C1055 C 0.11745 0.2889 0.85226 0.0
C1056 C 0.07333 0.33831 0.80952 0.0
C1057 C 0.09439 0.31714 0.86371 0.0
C1058 C 0.05931 0.3499 0.81586 0.0
C1059 C 0.05265 0.35405 0.88085 0.0
C1060 C 0.08075 0.33085 0.86857 0.0
C1061 C 0.06088 0.34683 0.93867 0.0
C1062 C 0.10207 0.31001 0.92285 0.0
C1063 C 0.11001 0.29684 0.79423 0.0
N1064 N 0.07442 0.3355 0.93112 0.0
N1065 N 0.09874 0.31045 0.80139 0.0
H1066 H 0.96228 0.854 0.22662 0.0
H1067 H 0.89859 0.78764 0.03132 0.0
H1068 H 0.96071 0.8482 0.00658 0.0
H1069 H 0.90331 0.79078 0.2515 0.0
H1070 H 0.91878 0.81228 0.02083 0.0
H1071 H 0.93808 0.83332 0.23617 0.0
C1072 C 0.95678 0.84849 0.18028 0.0
C1073 C 0.96368 0.8527 0.11576 0.0
C1074 C 0.91529 0.80763 0.07142 0.0
C1075 C 0.93601 0.82898 0.12635 0.0
C1076 C 0.90374 0.79358 0.07745 0.0
C1077 C 0.89938 0.787 0.14235 0.0
C1078 C 0.9225 0.81515 0.13071 0.0
C1079 C 0.90642 0.79528 0.20035 0.0
C1080 C 0.94297 0.83666 0.18577 0.0
C1081 C 0.95594 0.84521 0.05747 0.0
N1082 N 0.9177 0.80884 0.19312 0.0
N1083 N 0.9426 0.83363 0.0642 0.0
H1084 H 0.46195 0.63891 0.4946 0.0
H1085 H 0.40251 0.69588 0.24392 0.0
H1086 H 0.4628 0.63407 0.27415 0.0
H1087 H 0.39924 0.69877 0.46452 0.0
H1088 H 0.42283 0.6715 0.25454 0.0
H1089 H 0.43732 0.65905 0.48513 0.0
C1090 C 0.4569 0.64199 0.44416 0.0
C1091 C 0.4646 0.63493 0.38497 0.0
C1092 C 0.41758 0.67736 0.30068 0.0
C1093 C 0.4364 0.65805 0.37389 0.0
C1094 C 0.40597 0.69132 0.29469 0.0
C1095 C 0.3993 0.69953 0.35349 0.0
C1096 C 0.42268 0.6716 0.36594 0.0
C1097 C 0.40413 0.69291 0.41783 0.0
C1098 C 0.4428 0.65348 0.43886 0.0
C1099 C 0.45736 0.63927 0.32113 0.0
N1100 N 0.41568 0.67943 0.42234 0.0
N1101 N 0.44377 0.65068 0.31727 0.0
H1102 H 0.61654 0.1949 0.75005 0.0
H1103 H 0.55897 0.13688 0.49728 0.0
H1104 H 0.61992 0.19782 0.52945 0.0
H1105 H 0.55605 0.13347 0.71787 0.0
H1106 H 0.58387 0.15655 0.50816 0.0
H1107 H 0.59706 0.16985 0.73925 0.0
C1108 C 0.6133 0.1902 0.69928 0.0
C1109 C 0.61967 0.19865 0.64049 0.0
C1110 C 0.57789 0.15138 0.5542 0.0
C1111 C 0.59728 0.16998 0.62786 0.0
C1112 C 0.56364 0.14015 0.54807 0.0
C1113 C 0.55523 0.13371 0.60683 0.0
C1114 C 0.58373 0.15632 0.61954 0.0
C1115 C 0.56202 0.13824 0.67119 0.0
C1116 C 0.60218 0.17586 0.69319 0.0
C1117 C 0.61519 0.19182 0.57615 0.0
N1118 N 0.57576 0.14943 0.67583 0.0
N1119 N 0.60411 0.17799 0.57155 0.0
H1120 H 0.9621 0.34627 -0.00245 0.0
H1121 H 0.90744 0.28986 0.72759 0.0
H1122 H 0.96552 0.35362 0.77849 0.0
H1123 H 0.89939 0.28784 0.94653 0.0
H1124 H 0.92813 0.3139 0.74449 0.0
H1125 H 0.93836 0.32541 0.9795 0.0
C1126 C 0.9578 0.34359 0.94572 0.0
C1127 C 0.96591 0.35162 0.88949 0.0
C1128 C 0.92171 0.30825 0.78871 0.0
C1129 C 0.93883 0.32768 0.86839 0.0
C1130 C 0.90991 0.29453 0.77908 0.0
C1131 C 0.90173 0.28672 0.83569 0.0
C1132 C 0.92541 0.31411 0.85543 0.0
C1133 C 0.9054 0.29337 0.90126 0.0
C1134 C 0.94423 0.33169 0.93541 0.0
C1135 C 0.95972 0.3477 0.82345 0.0
N1136 N 0.91704 0.30657 0.9093 0.0
N1137 N 0.94665 0.33591 0.81472 0.0
H1138 H 0.46877 0.13809 0.70917 0.0
H1139 H 0.40081 0.20355 0.53339 0.0
H1140 H 0.46447 0.14489 0.49008 0.0
H1141 H 0.40976 0.20089 0.75169 0.0
H1142 H 0.42215 0.18026 0.51676 0.0
H1143 H 0.4453 0.15914 0.72528 0.0
C1144 C 0.46283 0.14391 0.66426 0.0
C1145 C 0.46868 0.13971 0.59803 0.0
C1146 C 0.41941 0.18472 0.5683 0.0
C1147 C 0.44173 0.164 0.61648 0.0
C1148 C 0.40719 0.19802 0.57798 0.0
C1149 C 0.40353 0.20428 0.64415 0.0
C1150 C 0.42805 0.17756 0.62514 0.0
C1151 C 0.4122 0.19654 0.69978 0.0
C1152 C 0.44943 0.156 0.67365 0.0
C1153 C 0.46044 0.14776 0.54204 0.0
N1154 N 0.4241 0.18362 0.68897 0.0
N1155 N 0.4474 0.15957 0.55257 0.0
H1156 H 0.61846 0.70086 0.45154 0.0
H1157 H 0.55171 0.63448 0.2752 0.0
H1158 H 0.60963 0.69874 0.23309 0.0
H1159 H 0.55568 0.64221 0.49388 0.0
H1160 H 0.57551 0.65522 0.25842 0.0
H1161 H 0.59826 0.67667 0.46679 0.0
C1162 C 0.61239 0.69524 0.40655 0.0
C1163 C 0.61568 0.70199 0.34084 0.0
C1164 C 0.57124 0.65231 0.31007 0.0
C1165 C 0.59235 0.6742 0.35834 0.0
C1166 C 0.55765 0.64043 0.31983 0.0
C1167 C 0.55155 0.63669 0.38616 0.0
C1168 C 0.57885 0.6605 0.36698 0.0
C1169 C 0.55985 0.64477 0.44185 0.0
C1170 C 0.60079 0.68141 0.41546 0.0
C1171 C 0.60741 0.69405 0.2847 0.0
N1172 N 0.57302 0.65636 0.43095 0.0
N1173 N 0.59603 0.68063 0.29479 0.0
H1174 H 0.05171 0.85492 0.21215 0.0
H1175 H 0.11769 0.78928 0.02676 0.0
H1176 H 0.05361 0.84754 0.99285 0.0
H1177 H 0.11115 0.7922 0.2463 0.0
H1178 H 0.0969 0.81317 0.01342 0.0
H1179 H 0.07602 0.83466 0.22489 0.0
C1180 C 0.05731 0.84916 0.16648 0.0
C1181 C 0.05047 0.85288 0.10124 0.0
C1182 C 0.10009 0.80866 0.06453 0.0
C1183 C 0.07838 0.82951 0.11582 0.0
C1184 C 0.11201 0.79502 0.07232 0.0
C1185 C 0.11611 0.78859 0.13786 0.0
C1186 C 0.09217 0.81599 0.12261 0.0
C1187 C 0.10832 0.79663 0.19481 0.0
C1188 C 0.0712 0.83754 0.17394 0.0
C1189 C 0.05837 0.845 0.04414 0.0
N1190 N 0.09664 0.80986 0.18581 0.0
N1191 N 0.07185 0.8336 0.05282 0.0
H1192 H 0.9067 0.6972 0.26438 0.0
H1193 H 0.9611 0.64104 0.99253 0.0
H1194 H 0.89788 0.69887 0.04586 0.0
H1195 H 0.96617 0.63483 0.21164 0.0
H1196 H 0.93684 0.66128 0.01153 0.0
H1197 H 0.92753 0.67328 0.2469 0.0
C1198 C 0.90901 0.69246 0.21287 0.0
C1199 C 0.90061 0.70017 0.15653 0.0
C1200 C 0.94319 0.65538 0.05544 0.0
C1201 C 0.92447 0.67291 0.13611 0.0
C1202 C 0.95705 0.64382 0.04458 0.0
C1203 C 0.9658 0.63632 0.10051 0.0
C1204 C 0.93811 0.65956 0.1227 0.0
C1205 C 0.9599 0.64037 0.16687 0.0
C1206 C 0.92091 0.67881 0.2029 0.0
C1207 C 0.90408 0.69344 0.09092 0.0
N1208 N 0.94653 0.65181 0.17611 0.0
N1209 N 0.91583 0.68031 0.08253 0.0
H1210 H 0.11002 0.19821 0.73273 0.0
H1211 H 0.0548 0.14319 0.00566 0.0
H1212 H 0.11724 0.20172 0.95181 0.0
H1213 H 0.05166 0.13489 0.78709 0.0
H1214 H 0.07857 0.16396 0.98663 0.0
H1215 H 0.08935 0.17421 0.75098 0.0
C1216 C 0.10738 0.19388 0.78454 0.0
C1217 C 0.11532 0.20209 0.84077 0.0
C1218 C 0.07275 0.1575 0.94287 0.0
C1219 C 0.09166 0.17474 0.86204 0.0
C1220 C 0.05917 0.14564 0.95374 0.0
C1221 C 0.05112 0.13737 0.89793 0.0
C1222 C 0.07825 0.16121 0.87568 0.0
C1223 C 0.0574 0.141 0.83174 0.0
C1224 C 0.09559 0.18018 0.79495 0.0
C1225 C 0.11143 0.19587 0.9068 0.0
N1226 N 0.07049 0.15275 0.82244 0.0
N1227 N 0.09981 0.18267 0.91557 0.0
H1228 H 0.60826 0.28924 0.75877 0.0
H1229 H 0.55127 0.34345 0.48777 0.0
H1230 H 0.61429 0.28507 0.53931 0.0
H1231 H 0.54866 0.35162 0.70653 0.0
H1232 H 0.57484 0.32234 0.50585 0.0
H1233 H 0.58674 0.31254 0.74108 0.0
C1234 C 0.60515 0.29327 0.70697 0.0
C1235 C 0.61307 0.28513 0.65051 0.0
C1236 C 0.56916 0.32882 0.54985 0.0
C1237 C 0.58844 0.31169 0.62988 0.0
C1238 C 0.55569 0.34088 0.53953 0.0
C1239 C 0.5479 0.34927 0.59567 0.0
C1240 C 0.57482 0.32507 0.6168 0.0
C1241 C 0.55422 0.34544 0.66164 0.0
C1242 C 0.59287 0.30657 0.69688 0.0
C1243 C 0.60855 0.29093 0.5845 0.0
N1244 N 0.56724 0.33356 0.67037 0.0
N1245 N 0.59649 0.30377 0.57606 0.0
H1246 H 0.46246 0.85555 0.29196 0.0
H1247 H 0.39769 0.78639 0.46339 0.0
H1248 H 0.46098 0.84523 0.50952 0.0
H1249 H 0.40594 0.79102 0.24516 0.0
H1250 H 0.41789 0.81059 0.4818 0.0
H1251 H 0.43881 0.83479 0.27534 0.0
C1252 C 0.45709 0.84903 0.33648 0.0
C1253 C 0.46387 0.85207 0.40233 0.0
C1254 C 0.41521 0.80637 0.4299 0.0
C1255 C 0.43671 0.82811 0.38322 0.0
C1256 C 0.40365 0.79256 0.4192 0.0
C1257 C 0.40021 0.78654 0.35251 0.0
C1258 C 0.42337 0.81429 0.37358 0.0
C1259 C 0.40828 0.79512 0.29744 0.0
C1260 C 0.44358 0.83711 0.32678 0.0
C1261 C 0.45626 0.84323 0.45784 0.0
N1262 N 0.41954 0.80852 0.30925 0.0
N1263 N 0.44313 0.83156 0.44696 0.0
loop_
_geom_bond_atom_site_label_1
_geom_bond_atom_site_label_2
_geom_bond_distance
_geom_bond_site_symmetry_2
_ccdc_geom_bond_type
Co0 O3 1.970 1_455 S
Co0 N17 1.989 . S
Co0 O25 1.967 . S
Co0 O32 1.920 . S
Co1 O4 2.013 1_556 S
Co1 N10 2.022 . S
Co1 N18 1.993 1_556 S
Co1 O26 1.941 1_556 S
C2 O3 1.258 . S
C2 O4 1.236 1_655 S
O3 Co0 1.970 1_655 S
O3 C2 1.258 . S
O4 Co1 2.013 1_554 S
O4 C2 1.236 1_455 S
C5 O6 1.235 1_455 S
C5 O32 1.289 . S
O6 C5 1.235 1_655 S
C7 C9 1.400 . S
C7 N10 1.351 . S
C7 C12 1.501 1_455 S
C8 C9 1.387 . S
C8 N11 1.341 . S
C9 C7 1.400 . S
C9 C8 1.387 . S
N10 Co1 2.022 . S
N10 C7 1.351 . S
N10 N11 1.365 . S
N11 C8 1.341 . S
N11 N10 1.365 . S
N11 H31 0.862 . S
C12 C7 1.501 1_655 S
C12 H13 0.961 . S
C12 H14 0.961 . S
C12 H15 0.960 . S
H13 C12 0.961 . S
H14 C12 0.961 . S
H15 C12 0.960 . S
C16 N17 1.342 . S
C16 C20 1.401 . S
C16 C21 1.499 . S
N17 Co0 1.989 . S
N17 C16 1.342 . S
N17 N18 1.388 . S
N18 Co1 1.993 1_554 S
N18 N17 1.388 . S
N18 C19 1.346 1_554 S
C19 N18 1.346 1_556 S
C19 C20 1.396 1_556 S
C19 C29 1.510 . S
C20 C16 1.401 . S
C20 C19 1.396 1_554 S
C21 C16 1.499 . S
C21 H22 0.959 . S
C21 H23 0.960 . S
C21 H24 0.961 . S
H22 C21 0.959 . S
H23 C21 0.960 . S
H24 C21 0.961 . S
O25 Co0 1.967 . S
O25 C33 1.258 . S
O26 Co1 1.941 1_554 S
O26 C33 1.266 . S
H27 C29 0.959 . S
H28 C29 0.961 . S
C29 C19 1.510 . S
C29 H27 0.959 . S
C29 H28 0.961 . S
C29 H30 0.960 . S
H30 C29 0.960 . S
H31 N11 0.862 . S
O32 Co0 1.920 . S
O32 C5 1.289 . S
C33 O25 1.258 . S
C33 O26 1.266 . S
Co34 O37 1.970 . S
Co34 N51 1.989 . S
Co34 O59 1.967 . S
Co34 O66 1.920 . S
Co35 O38 1.966 . S
Co35 N44 2.022 . S
Co35 N52 1.993 . S
Co35 O60 1.941 . S
C36 O37 1.258 . S
C36 O38 1.263 . S
O37 Co34 1.970 . S
O37 C36 1.258 . S
O38 Co35 1.966 . S
O38 C36 1.263 . S
C39 O40 1.235 . S
C39 O66 1.289 . S
O40 C39 1.235 . S
C41 C43 1.400 . S
C41 N44 1.351 . S
C41 C46 1.501 . S
C42 C43 1.387 . S
C42 N45 1.341 . S
C43 C41 1.400 . S
C43 C42 1.387 . S
N44 Co35 2.022 . S
N44 C41 1.351 . S
N44 N45 1.365 . S
N45 C42 1.341 . S
N45 N44 1.365 . S
N45 H65 0.862 . S
C46 C41 1.501 . S
C46 H47 0.961 . S
C46 H48 0.961 . S
C46 H49 0.960 . S
H47 C46 0.961 . S
H48 C46 0.961 . S
H49 C46 0.960 . S
C50 N51 1.342 . S
C50 C54 1.401 . S
C50 C55 1.499 . S
N51 Co34 1.989 . S
N51 C50 1.342 . S
N51 N52 1.388 . S
N52 Co35 1.993 . S
N52 N51 1.388 . S
N52 C53 1.346 . S
C53 N52 1.346 . S
C53 C54 1.396 . S
C53 C63 1.510 . S
C54 C50 1.401 . S
C54 C53 1.396 . S
C55 C50 1.499 . S
C55 H56 0.959 . S
C55 H57 0.960 . S
C55 H58 0.961 . S
H56 C55 0.959 . S
H57 C55 0.960 . S
H58 C55 0.961 . S
O59 Co34 1.967 . S
O59 C67 1.258 . S
O60 Co35 1.941 . S
O60 C67 1.266 . S
H61 C63 0.959 . S
H62 C63 0.961 . S
C63 C53 1.510 . S
C63 H61 0.959 . S
C63 H62 0.961 . S
C63 H64 0.960 . S
H64 C63 0.960 . S
H65 N45 0.862 . S
O66 Co34 1.920 . S
O66 C39 1.289 . S
C67 O59 1.258 . S
C67 O60 1.266 . S
Co68 O71 1.970 . S
Co68 N85 1.989 . S
Co68 O93 1.967 . S
Co68 O100 1.920 . S
Co69 O72 1.966 . S
Co69 N78 2.022 . S
Co69 N86 1.993 . S
Co69 O94 1.941 . S
C70 O71 1.258 . S
C70 O72 1.263 . S
O71 Co68 1.970 . S
O71 C70 1.258 . S
O72 Co69 1.966 . S
O72 C70 1.263 . S
C73 O74 1.235 . S
C73 O100 1.289 . S
O74 C73 1.235 . S
C75 C77 1.400 . S
C75 N78 1.351 . S
C75 C80 1.501 . S
C76 C77 1.387 . S
C76 N79 1.341 . S
C77 C75 1.400 . S
C77 C76 1.387 . S
N78 Co69 2.022 . S
N78 C75 1.351 . S
N78 N79 1.365 . S
N79 C76 1.341 . S
N79 N78 1.365 . S
N79 H99 0.862 . S
C80 C75 1.501 . S
C80 H81 0.961 . S
C80 H82 0.961 . S
C80 H83 0.960 . S
H81 C80 0.961 . S
H82 C80 0.961 . S
H83 C80 0.960 . S
C84 N85 1.342 . S
C84 C88 1.401 . S
C84 C89 1.499 . S
N85 Co68 1.989 . S
N85 C84 1.342 . S
N85 N86 1.388 . S
N86 Co69 1.993 . S
N86 N85 1.388 . S
N86 C87 1.346 . S
C87 N86 1.346 . S
C87 C88 1.396 . S
C87 C97 1.510 . S
C88 C84 1.401 . S
C88 C87 1.396 . S
C89 C84 1.499 . S
C89 H90 0.959 . S
C89 H91 0.960 . S
C89 H92 0.961 . S
H90 C89 0.959 . S
H91 C89 0.960 . S
H92 C89 0.961 . S
O93 Co68 1.967 . S
O93 C101 1.258 . S
O94 Co69 1.941 . S
O94 C101 1.266 . S
H95 C97 0.959 . S
H96 C97 0.961 . S
C97 C87 1.510 . S
C97 H95 0.959 . S
C97 H96 0.961 . S
C97 H98 0.960 . S
H98 C97 0.960 . S
H99 N79 0.862 . S
O100 Co68 1.920 . S
O100 C73 1.289 . S
C101 O93 1.258 . S
C101 O94 1.266 . S
Co102 O105 1.970 . S
Co102 N119 1.989 . S
Co102 O127 1.967 . S
Co102 O134 1.912 1_556 S
Co103 O106 1.966 . S
Co103 N112 2.022 . S
Co103 N120 1.993 . S
Co103 O128 1.941 . S
C104 O105 1.258 . S
C104 O106 1.263 . S
O105 Co102 1.970 . S
O105 C104 1.258 . S
O106 Co103 1.966 . S
O106 C104 1.263 . S
C107 O108 1.235 . S
C107 O134 1.293 . S
O108 C107 1.235 . S
C109 C111 1.400 . S
C109 N112 1.351 . S
C109 C114 1.501 . S
C110 C111 1.387 . S
C110 N113 1.341 . S
C111 C109 1.400 . S
C111 C110 1.387 . S
N112 Co103 2.022 . S
N112 C109 1.351 . S
N112 N113 1.365 . S
N113 C110 1.341 . S
N113 N112 1.365 . S
N113 H133 0.862 . S
C114 C109 1.501 . S
C114 H115 0.961 . S
C114 H116 0.961 . S
C114 H117 0.960 . S
H115 C114 0.961 . S
H116 C114 0.961 . S
H117 C114 0.960 . S
C118 N119 1.342 . S
C118 C122 1.401 . S
C118 C123 1.499 . S
N119 Co102 1.989 . S
N119 C118 1.342 . S
N119 N120 1.388 . S
N120 Co103 1.993 . S
N120 N119 1.388 . S
N120 C121 1.346 . S
C121 N120 1.346 . S
C121 C122 1.396 . S
C121 C131 1.510 . S
C122 C118 1.401 . S
C122 C121 1.396 . S
C123 C118 1.499 . S
C123 H124 0.959 . S
C123 H125 0.960 . S
C123 H126 0.961 . S
H124 C123 0.959 . S
H125 C123 0.960 . S
H126 C123 0.961 . S
O127 Co102 1.967 . S
O127 C135 1.258 . S
O128 Co103 1.941 . S
O128 C135 1.266 . S
H129 C131 0.959 . S
H130 C131 0.961 . S
C131 C121 1.510 . S
C131 H129 0.959 . S
C131 H130 0.961 . S
C131 H132 0.960 . S
H132 C131 0.960 . S
H133 N113 0.862 . S
O134 Co102 1.912 1_554 S
O134 C107 1.293 . S
C135 O127 1.258 . S
C135 O128 1.266 . S
Co136 O139 1.970 1_455 S
Co136 N153 1.989 . S
Co136 O161 1.967 . S
Co136 O168 1.920 . S
Co137 O140 2.013 1_554 S
Co137 N146 2.022 . S
Co137 N154 1.993 1_554 S
Co137 O162 1.941 1_554 S
C138 O139 1.258 . S
C138 O140 1.236 1_655 S
O139 Co136 1.970 1_655 S
O139 C138 1.258 . S
O140 Co137 2.013 1_556 S
O140 C138 1.236 1_455 S
C141 O142 1.235 1_455 S
C141 O168 1.289 . S
O142 C141 1.235 1_655 S
C143 C145 1.400 . S
C143 N146 1.351 . S
C143 C148 1.501 1_455 S
C144 C145 1.387 . S
C144 N147 1.341 . S
C145 C143 1.400 . S
C145 C144 1.387 . S
N146 Co137 2.022 . S
N146 C143 1.351 . S
N146 N147 1.365 . S
N147 C144 1.341 . S
N147 N146 1.365 . S
N147 H167 0.862 . S
C148 C143 1.501 1_655 S
C148 H149 0.961 . S
C148 H150 0.961 . S
C148 H151 0.960 . S
H149 C148 0.961 . S
H150 C148 0.961 . S
H151 C148 0.960 . S
C152 N153 1.342 . S
C152 C156 1.401 . S
C152 C157 1.499 . S
N153 Co136 1.989 . S
N153 C152 1.342 . S
N153 N154 1.388 . S
N154 Co137 1.993 1_556 S
N154 N153 1.388 . S
N154 C155 1.346 1_556 S
C155 N154 1.346 1_554 S
C155 C156 1.396 1_554 S
C155 C165 1.510 . S
C156 C152 1.401 . S
C156 C155 1.396 1_556 S
C157 C152 1.499 . S
C157 H158 0.959 . S
C157 H159 0.960 . S
C157 H160 0.961 . S
H158 C157 0.959 . S
H159 C157 0.960 . S
H160 C157 0.961 . S
O161 Co136 1.967 . S
O161 C169 1.258 . S
O162 Co137 1.941 1_556 S
O162 C169 1.266 . S
H163 C165 0.959 . S
H164 C165 0.961 . S
C165 C155 1.510 . S
C165 H163 0.959 . S
C165 H164 0.961 . S
C165 H166 0.960 . S
H166 C165 0.960 . S
H167 N147 0.862 . S
O168 Co136 1.920 . S
O168 C141 1.289 . S
C169 O161 1.258 . S
C169 O162 1.266 . S
Co170 O173 1.970 . S
Co170 N187 1.989 . S
Co170 O195 1.967 . S
Co170 O202 1.912 1_554 S
Co171 O174 1.966 . S
Co171 N180 2.022 . S
Co171 N188 1.993 . S
Co171 O196 1.941 . S
C172 O173 1.258 . S
C172 O174 1.263 . S
O173 Co170 1.970 . S
O173 C172 1.258 . S
O174 Co171 1.966 . S
O174 C172 1.263 . S
C175 O176 1.235 . S
C175 O202 1.293 . S
O176 C175 1.235 . S
C177 C179 1.400 . S
C177 N180 1.351 . S
C177 C182 1.501 . S
C178 C179 1.387 . S
C178 N181 1.341 . S
C179 C177 1.400 . S
C179 C178 1.387 . S
N180 Co171 2.022 . S
N180 C177 1.351 . S
N180 N181 1.365 . S
N181 C178 1.341 . S
N181 N180 1.365 . S
N181 H201 0.862 . S
C182 C177 1.501 . S
C182 H183 0.961 . S
C182 H184 0.961 . S
C182 H185 0.960 . S
H183 C182 0.961 . S
H184 C182 0.961 . S
H185 C182 0.960 . S
C186 N187 1.342 . S
C186 C190 1.401 . S
C186 C191 1.499 . S
N187 Co170 1.989 . S
N187 C186 1.342 . S
N187 N188 1.388 . S
N188 Co171 1.993 . S
N188 N187 1.388 . S
N188 C189 1.346 . S
C189 N188 1.346 . S
C189 C190 1.396 . S
C189 C199 1.510 . S
C190 C186 1.401 . S
C190 C189 1.396 . S
C191 C186 1.499 . S
C191 H192 0.959 . S
C191 H193 0.960 . S
C191 H194 0.961 . S
H192 C191 0.959 . S
H193 C191 0.960 . S
H194 C191 0.961 . S
O195 Co170 1.967 . S
O195 C203 1.258 . S
O196 Co171 1.941 . S
O196 C203 1.266 . S
H197 C199 0.959 . S
H198 C199 0.961 . S
C199 C189 1.510 . S
C199 H197 0.959 . S
C199 H198 0.961 . S
C199 H200 0.960 . S
H200 C199 0.960 . S
H201 N181 0.862 . S
O202 Co170 1.912 1_556 S
O202 C175 1.293 . S
C203 O195 1.258 . S
C203 O196 1.266 . S
Co204 O207 1.970 . S
Co204 N221 1.989 . S
Co204 O229 1.967 . S
Co204 O236 1.920 . S
Co205 O208 1.966 . S
Co205 N214 2.022 . S
Co205 N222 1.993 . S
Co205 O230 1.941 . S
C206 O207 1.258 . S
C206 O208 1.263 . S
O207 Co204 1.970 . S
O207 C206 1.258 . S
O208 Co205 1.966 . S
O208 C206 1.263 . S
C209 O210 1.235 . S
C209 O236 1.289 . S
O210 C209 1.235 . S
C211 C213 1.400 . S
C211 N214 1.351 . S
C211 C216 1.501 . S
C212 C213 1.387 . S
C212 N215 1.341 . S
C213 C211 1.400 . S
C213 C212 1.387 . S
N214 Co205 2.022 . S
N214 C211 1.351 . S
N214 N215 1.365 . S
N215 C212 1.341 . S
N215 N214 1.365 . S
N215 H235 0.862 . S
C216 C211 1.501 . S
C216 H217 0.961 . S
C216 H218 0.961 . S
C216 H219 0.960 . S
H217 C216 0.961 . S
H218 C216 0.961 . S
H219 C216 0.960 . S
C220 N221 1.342 . S
C220 C224 1.401 . S
C220 C225 1.499 . S
N221 Co204 1.989 . S
N221 C220 1.342 . S
N221 N222 1.388 . S
N222 Co205 1.993 . S
N222 N221 1.388 . S
N222 C223 1.346 . S
C223 N222 1.346 . S
C223 C224 1.396 . S
C223 C233 1.510 . S
C224 C220 1.401 . S
C224 C223 1.396 . S
C225 C220 1.499 . S
C225 H226 0.959 . S
C225 H227 0.960 . S
C225 H228 0.961 . S
H226 C225 0.959 . S
H227 C225 0.960 . S
H228 C225 0.961 . S
O229 Co204 1.967 . S
O229 C237 1.258 . S
O230 Co205 1.941 . S
O230 C237 1.266 . S
H231 C233 0.959 . S
H232 C233 0.961 . S
C233 C223 1.510 . S
C233 H231 0.959 . S
C233 H232 0.961 . S
C233 H234 0.960 . S
H234 C233 0.960 . S
H235 N215 0.862 . S
O236 Co204 1.920 . S
O236 C209 1.289 . S
C237 O229 1.258 . S
C237 O230 1.266 . S
Co238 O241 1.970 . S
Co238 N255 1.989 . S
Co238 O263 1.967 . S
Co238 O270 1.920 . S
Co239 O242 1.966 . S
Co239 N248 2.022 . S
Co239 N256 1.993 . S
Co239 O264 1.941 . S
C240 O241 1.258 . S
C240 O242 1.263 . S
O241 Co238 1.970 . S
O241 C240 1.258 . S
O242 Co239 1.966 . S
O242 C240 1.263 . S
C243 O244 1.235 . S
C243 O270 1.289 . S
O244 C243 1.235 . S
C245 C247 1.400 . S
C245 N248 1.351 . S
C245 C250 1.501 . S
C246 C247 1.387 . S
C246 N249 1.341 . S
C247 C245 1.400 . S
C247 C246 1.387 . S
N248 Co239 2.022 . S
N248 C245 1.351 . S
N248 N249 1.365 . S
N249 C246 1.341 . S
N249 N248 1.365 . S
N249 H269 0.862 . S
C250 C245 1.501 . S
C250 H251 0.961 . S
C250 H252 0.961 . S
C250 H253 0.960 . S
H251 C250 0.961 . S
H252 C250 0.961 . S
H253 C250 0.960 . S
C254 N255 1.342 . S
C254 C258 1.401 . S
C254 C259 1.499 . S
N255 Co238 1.989 . S
N255 C254 1.342 . S
N255 N256 1.388 . S
N256 Co239 1.993 . S
N256 N255 1.388 . S
N256 C257 1.346 . S
C257 N256 1.346 . S
C257 C258 1.396 . S
C257 C267 1.510 . S
C258 C254 1.401 . S
C258 C257 1.396 . S
C259 C254 1.499 . S
C259 H260 0.959 . S
C259 H261 0.960 . S
C259 H262 0.961 . S
H260 C259 0.959 . S
H261 C259 0.960 . S
H262 C259 0.961 . S
O263 Co238 1.967 . S
O263 C271 1.258 . S
O264 Co239 1.941 . S
O264 C271 1.266 . S
H265 C267 0.959 . S
H266 C267 0.961 . S
C267 C257 1.510 . S
C267 H265 0.959 . S
C267 H266 0.961 . S
C267 H268 0.960 . S
H268 C267 0.960 . S
H269 N249 0.862 . S
O270 Co238 1.920 . S
O270 C243 1.289 . S
C271 O263 1.258 . S
C271 O264 1.266 . S
Co272 O275 1.970 . S
Co272 N289 1.989 . S
Co272 O297 1.967 . S
Co272 O304 1.920 . S
Co273 O276 1.966 . S
Co273 N282 2.022 . S
Co273 N290 1.993 . S
Co273 O298 1.941 . S
C274 O275 1.258 . S
C274 O276 1.263 . S
O275 Co272 1.970 . S
O275 C274 1.258 . S
O276 Co273 1.966 . S
O276 C274 1.263 . S
C277 O278 1.235 . S
C277 O304 1.289 . S
O278 C277 1.235 . S
C279 C281 1.400 . S
C279 N282 1.351 . S
C279 C284 1.501 . S
C280 C281 1.387 . S
C280 N283 1.341 . S
C281 C279 1.400 . S
C281 C280 1.387 . S
N282 Co273 2.022 . S
N282 C279 1.351 . S
N282 N283 1.365 . S
N283 C280 1.341 . S
N283 N282 1.365 . S
N283 H303 0.862 . S
C284 C279 1.501 . S
C284 H285 0.961 . S
C284 H286 0.961 . S
C284 H287 0.960 . S
H285 C284 0.961 . S
H286 C284 0.961 . S
H287 C284 0.960 . S
C288 N289 1.342 . S
C288 C292 1.401 . S
C288 C293 1.499 . S
N289 Co272 1.989 . S
N289 C288 1.342 . S
N289 N290 1.388 . S
N290 Co273 1.993 . S
N290 N289 1.388 . S
N290 C291 1.346 . S
C291 N290 1.346 . S
C291 C292 1.396 . S
C291 C301 1.510 . S
C292 C288 1.401 . S
C292 C291 1.396 . S
C293 C288 1.499 . S
C293 H294 0.959 . S
C293 H295 0.960 . S
C293 H296 0.961 . S
H294 C293 0.959 . S
H295 C293 0.960 . S
H296 C293 0.961 . S
O297 Co272 1.967 . S
O297 C305 1.258 . S
O298 Co273 1.941 . S
O298 C305 1.266 . S
H299 C301 0.959 . S
H300 C301 0.961 . S
C301 C291 1.510 . S
C301 H299 0.959 . S
C301 H300 0.961 . S
C301 H302 0.960 . S
H302 C301 0.960 . S
H303 N283 0.862 . S
O304 Co272 1.920 . S
O304 C277 1.289 . S
C305 O297 1.258 . S
C305 O298 1.266 . S
Co306 O309 1.970 . S
Co306 N323 1.989 . S
Co306 O331 1.967 . S
Co306 O338 1.912 1_554 S
Co307 O310 1.966 . S
Co307 N316 2.022 . S
Co307 N324 1.993 . S
Co307 O332 1.941 . S
C308 O309 1.258 . S
C308 O310 1.263 . S
O309 Co306 1.970 . S
O309 C308 1.258 . S
O310 Co307 1.966 . S
O310 C308 1.263 . S
C311 O312 1.235 . S
C311 O338 1.293 . S
O312 C311 1.235 . S
C313 C315 1.400 . S
C313 N316 1.351 . S
C313 C318 1.501 . S
C314 C315 1.387 . S
C314 N317 1.341 . S
C315 C313 1.400 . S
C315 C314 1.387 . S
N316 Co307 2.022 . S
N316 C313 1.351 . S
N316 N317 1.365 . S
N317 C314 1.341 . S
N317 N316 1.365 . S
N317 H337 0.862 . S
C318 C313 1.501 . S
C318 H319 0.961 . S
C318 H320 0.961 . S
C318 H321 0.960 . S
H319 C318 0.961 . S
H320 C318 0.961 . S
H321 C318 0.960 . S
C322 N323 1.342 . S
C322 C326 1.401 . S
C322 C327 1.499 . S
N323 Co306 1.989 . S
N323 C322 1.342 . S
N323 N324 1.388 . S
N324 Co307 1.993 . S
N324 N323 1.388 . S
N324 C325 1.346 . S
C325 N324 1.346 . S
C325 C326 1.396 . S
C325 C335 1.510 . S
C326 C322 1.401 . S
C326 C325 1.396 . S
C327 C322 1.499 . S
C327 H328 0.959 . S
C327 H329 0.960 . S
C327 H330 0.961 . S
H328 C327 0.959 . S
H329 C327 0.960 . S
H330 C327 0.961 . S
O331 Co306 1.967 . S
O331 C339 1.258 . S
O332 Co307 1.941 . S
O332 C339 1.266 . S
H333 C335 0.959 . S
H334 C335 0.961 . S
C335 C325 1.510 . S
C335 H333 0.959 . S
C335 H334 0.961 . S
C335 H336 0.960 . S
H336 C335 0.960 . S
H337 N317 0.862 . S
O338 Co306 1.912 1_556 S
O338 C311 1.293 . S
C339 O331 1.258 . S
C339 O332 1.266 . S
Co340 O343 1.970 . S
Co340 N357 1.989 . S
Co340 O365 1.967 . S
Co340 O372 1.912 1_556 S
Co341 O344 1.966 . S
Co341 N350 2.022 . S
Co341 N358 1.993 . S
Co341 O366 1.941 . S
C342 O343 1.258 . S
C342 O344 1.263 . S
O343 Co340 1.970 . S
O343 C342 1.258 . S
O344 Co341 1.966 . S
O344 C342 1.263 . S
C345 O346 1.235 . S
C345 O372 1.293 . S
O346 C345 1.235 . S
C347 C349 1.400 . S
C347 N350 1.351 . S
C347 C352 1.501 . S
C348 C349 1.387 . S
C348 N351 1.341 . S
C349 C347 1.400 . S
C349 C348 1.387 . S
N350 Co341 2.022 . S
N350 C347 1.351 . S
N350 N351 1.365 . S
N351 C348 1.341 . S
N351 N350 1.365 . S
N351 H371 0.862 . S
C352 C347 1.501 . S
C352 H353 0.961 . S
C352 H354 0.961 . S
C352 H355 0.960 . S
H353 C352 0.961 . S
H354 C352 0.961 . S
H355 C352 0.960 . S
C356 N357 1.342 . S
C356 C360 1.401 . S
C356 C361 1.499 . S
N357 Co340 1.989 . S
N357 C356 1.342 . S
N357 N358 1.388 . S
N358 Co341 1.993 . S
N358 N357 1.388 . S
N358 C359 1.346 . S
C359 N358 1.346 . S
C359 C360 1.396 . S
C359 C369 1.510 . S
C360 C356 1.401 . S
C360 C359 1.396 . S
C361 C356 1.499 . S
C361 H362 0.959 . S
C361 H363 0.960 . S
C361 H364 0.961 . S
H362 C361 0.959 . S
H363 C361 0.960 . S
H364 C361 0.961 . S
O365 Co340 1.967 . S
O365 C373 1.258 . S
O366 Co341 1.941 . S
O366 C373 1.266 . S
H367 C369 0.959 . S
H368 C369 0.961 . S
C369 C359 1.510 . S
C369 H367 0.959 . S
C369 H368 0.961 . S
C369 H370 0.960 . S
H370 C369 0.960 . S
H371 N351 0.862 . S
O372 Co340 1.912 1_554 S
O372 C345 1.293 . S
C373 O365 1.258 . S
C373 O366 1.266 . S
Co374 O377 1.970 . S
Co374 N391 1.989 . S
Co374 O399 1.967 . S
Co374 O406 1.920 . S
Co375 O378 1.966 . S
Co375 N384 2.022 . S
Co375 N392 1.993 . S
Co375 O400 1.941 . S
C376 O377 1.258 . S
C376 O378 1.263 . S
O377 Co374 1.970 . S
O377 C376 1.258 . S
O378 Co375 1.966 . S
O378 C376 1.263 . S
C379 O380 1.235 . S
C379 O406 1.289 . S
O380 C379 1.235 . S
C381 C383 1.400 . S
C381 N384 1.351 . S
C381 C386 1.501 . S
C382 C383 1.387 . S
C382 N385 1.341 . S
C383 C381 1.400 . S
C383 C382 1.387 . S
N384 Co375 2.022 . S
N384 C381 1.351 . S
N384 N385 1.365 . S
N385 C382 1.341 . S
N385 N384 1.365 . S
N385 H405 0.862 . S
C386 C381 1.501 . S
C386 H387 0.961 . S
C386 H388 0.961 . S
C386 H389 0.960 . S
H387 C386 0.961 . S
H388 C386 0.961 . S
H389 C386 0.960 . S
C390 N391 1.342 . S
C390 C394 1.401 . S
C390 C395 1.499 . S
N391 Co374 1.989 . S
N391 C390 1.342 . S
N391 N392 1.388 . S
N392 Co375 1.993 . S
N392 N391 1.388 . S
N392 C393 1.346 . S
C393 N392 1.346 . S
C393 C394 1.396 . S
C393 C403 1.510 . S
C394 C390 1.401 . S
C394 C393 1.396 . S
C395 C390 1.499 . S
C395 H396 0.959 . S
C395 H397 0.960 . S
C395 H398 0.961 . S
H396 C395 0.959 . S
H397 C395 0.960 . S
H398 C395 0.961 . S
O399 Co374 1.967 . S
O399 C407 1.258 . S
O400 Co375 1.941 . S
O400 C407 1.266 . S
H401 C403 0.959 . S
H402 C403 0.961 . S
C403 C393 1.510 . S
C403 H401 0.959 . S
C403 H402 0.961 . S
C403 H404 0.960 . S
H404 C403 0.960 . S
H405 N385 0.862 . S
O406 Co374 1.920 . S
O406 C379 1.289 . S
C407 O399 1.258 . S
C407 O400 1.266 . S
Co408 O411 1.970 . S
Co408 N425 1.989 . S
Co408 O433 1.967 . S
Co408 O440 1.920 . S
Co409 O412 1.966 . S
Co409 N418 2.022 . S
Co409 N426 1.993 . S
Co409 O434 1.941 . S
C410 O411 1.258 . S
C410 O412 1.263 . S
O411 Co408 1.970 . S
O411 C410 1.258 . S
O412 Co409 1.966 . S
O412 C410 1.263 . S
C413 O414 1.235 . S
C413 O440 1.289 . S
O414 C413 1.235 . S
C415 C417 1.400 . S
C415 N418 1.351 . S
C415 C420 1.501 . S
C416 C417 1.387 . S
C416 N419 1.341 . S
C417 C415 1.400 . S
C417 C416 1.387 . S
N418 Co409 2.022 . S
N418 C415 1.351 . S
N418 N419 1.365 . S
N419 C416 1.341 . S
N419 N418 1.365 . S
N419 H439 0.862 . S
C420 C415 1.501 . S
C420 H421 0.961 . S
C420 H422 0.961 . S
C420 H423 0.960 . S
H421 C420 0.961 . S
H422 C420 0.961 . S
H423 C420 0.960 . S
C424 N425 1.342 . S
C424 C428 1.401 . S
C424 C429 1.499 . S
N425 Co408 1.989 . S
N425 C424 1.342 . S
N425 N426 1.388 . S
N426 Co409 1.993 . S
N426 N425 1.388 . S
N426 C427 1.346 . S
C427 N426 1.346 . S
C427 C428 1.396 . S
C427 C437 1.510 . S
C428 C424 1.401 . S
C428 C427 1.396 . S
C429 C424 1.499 . S
C429 H430 0.959 . S
C429 H431 0.960 . S
C429 H432 0.961 . S
H430 C429 0.959 . S
H431 C429 0.960 . S
H432 C429 0.961 . S
O433 Co408 1.967 . S
O433 C441 1.258 . S
O434 Co409 1.941 . S
O434 C441 1.266 . S
H435 C437 0.959 . S
H436 C437 0.961 . S
C437 C427 1.510 . S
C437 H435 0.959 . S
C437 H436 0.961 . S
C437 H438 0.960 . S
H438 C437 0.960 . S
H439 N419 0.862 . S
O440 Co408 1.920 . S
O440 C413 1.289 . S
C441 O433 1.258 . S
C441 O434 1.266 . S
Co442 O445 1.970 . S
Co442 N459 1.989 . S
Co442 O467 1.967 1_455 S
Co442 O474 1.920 . S
Co443 O446 1.966 1_556 S
Co443 N452 2.022 . S
Co443 N460 1.993 1_556 S
Co443 O468 1.941 1_456 S
C444 O445 1.258 . S
C444 O446 1.263 . S
O445 Co442 1.970 . S
O445 C444 1.258 . S
O446 Co443 1.966 1_554 S
O446 C444 1.263 . S
C447 O448 1.235 . S
C447 O474 1.289 . S
O448 C447 1.235 . S
C449 C451 1.400 . S
C449 N452 1.351 . S
C449 C454 1.501 . S
C450 C451 1.354 1_655 S
C450 N453 1.351 . S
C451 C449 1.400 . S
C451 C450 1.354 1_455 S
N452 Co443 2.022 . S
N452 C449 1.351 . S
N452 N453 1.365 1_455 S
N453 C450 1.351 . S
N453 N452 1.365 1_655 S
N453 H473 0.862 . S
C454 C449 1.501 . S
C454 H455 0.961 . S
C454 H456 0.961 . S
C454 H457 0.960 . S
H455 C454 0.961 . S
H456 C454 0.961 . S
H457 C454 0.960 . S
C458 N459 1.342 . S
C458 C462 1.401 . S
C458 C463 1.499 . S
N459 Co442 1.989 . S
N459 C458 1.342 . S
N459 N460 1.388 . S
N460 Co443 1.993 1_554 S
N460 N459 1.388 . S
N460 C461 1.346 1_554 S
C461 N460 1.346 1_556 S
C461 C462 1.396 1_556 S
C461 C471 1.510 . S
C462 C458 1.401 . S
C462 C461 1.396 1_554 S
C463 C458 1.499 . S
C463 H464 0.959 . S
C463 H465 0.960 . S
C463 H466 0.961 1_455 S
H464 C463 0.959 . S
H465 C463 0.960 . S
H466 C463 0.961 1_655 S
O467 Co442 1.967 1_655 S
O467 C475 1.258 . S
O468 Co443 1.941 1_654 S
O468 C475 1.266 . S
H469 C471 0.959 1_655 S
H470 C471 0.961 . S
C471 C461 1.510 . S
C471 H469 0.959 1_455 S
C471 H470 0.961 . S
C471 H472 0.960 . S
H472 C471 0.960 . S
H473 N453 0.862 . S
O474 Co442 1.920 . S
O474 C447 1.289 . S
C475 O467 1.258 . S
C475 O468 1.266 . S
Co476 O479 1.970 . S
Co476 N493 1.989 . S
Co476 O501 1.967 . S
Co476 O508 1.920 . S
Co477 O480 1.966 . S
Co477 N486 2.022 . S
Co477 N494 1.993 . S
Co477 O502 1.941 . S
C478 O479 1.258 . S
C478 O480 1.263 . S
O479 Co476 1.970 . S
O479 C478 1.258 . S
O480 Co477 1.966 . S
O480 C478 1.263 . S
C481 O482 1.235 . S
C481 O508 1.289 . S
O482 C481 1.235 . S
C483 C485 1.400 . S
C483 N486 1.351 . S
C483 C488 1.501 . S
C484 C485 1.387 . S
C484 N487 1.341 . S
C485 C483 1.400 . S
C485 C484 1.387 . S
N486 Co477 2.022 . S
N486 C483 1.351 . S
N486 N487 1.365 . S
N487 C484 1.341 . S
N487 N486 1.365 . S
N487 H507 0.862 . S
C488 C483 1.501 . S
C488 H489 0.961 . S
C488 H490 0.961 . S
C488 H491 0.960 . S
H489 C488 0.961 . S
H490 C488 0.961 . S
H491 C488 0.960 . S
C492 N493 1.342 . S
C492 C496 1.401 . S
C492 C497 1.499 . S
N493 Co476 1.989 . S
N493 C492 1.342 . S
N493 N494 1.388 . S
N494 Co477 1.993 . S
N494 N493 1.388 . S
N494 C495 1.346 . S
C495 N494 1.346 . S
C495 C496 1.396 . S
C495 C505 1.510 . S
C496 C492 1.401 . S
C496 C495 1.396 . S
C497 C492 1.499 . S
C497 H498 0.959 . S
C497 H499 0.960 . S
C497 H500 0.961 . S
H498 C497 0.959 . S
H499 C497 0.960 . S
H500 C497 0.961 . S
O501 Co476 1.967 . S
O501 C509 1.258 . S
O502 Co477 1.941 . S
O502 C509 1.266 . S
H503 C505 0.959 . S
H504 C505 0.961 . S
C505 C495 1.510 . S
C505 H503 0.959 . S
C505 H504 0.961 . S
C505 H506 0.960 . S
H506 C505 0.960 . S
H507 N487 0.862 . S
O508 Co476 1.920 . S
O508 C481 1.289 . S
C509 O501 1.258 . S
C509 O502 1.266 . S
Co510 O513 1.970 . S
Co510 N527 1.989 . S
Co510 O535 1.967 1_455 S
Co510 O542 1.920 . S
Co511 O514 1.966 1_554 S
Co511 N520 2.022 . S
Co511 N528 1.993 1_554 S
Co511 O536 1.941 1_454 S
C512 O513 1.258 . S
C512 O514 1.263 . S
O513 Co510 1.970 . S
O513 C512 1.258 . S
O514 Co511 1.966 1_556 S
O514 C512 1.263 . S
C515 O516 1.235 . S
C515 O542 1.289 . S
O516 C515 1.235 . S
C517 C519 1.400 . S
C517 N520 1.351 . S
C517 C522 1.501 . S
C518 C519 1.354 1_655 S
C518 N521 1.351 . S
C519 C517 1.400 . S
C519 C518 1.354 1_455 S
N520 Co511 2.022 . S
N520 C517 1.351 . S
N520 N521 1.365 1_455 S
N521 C518 1.351 . S
N521 N520 1.365 1_655 S
N521 H541 0.862 . S
C522 C517 1.501 . S
C522 H523 0.961 . S
C522 H524 0.961 . S
C522 H525 0.960 . S
H523 C522 0.961 . S
H524 C522 0.961 . S
H525 C522 0.960 . S
C526 N527 1.342 . S
C526 C530 1.401 . S
C526 C531 1.499 . S
N527 Co510 1.989 . S
N527 C526 1.342 . S
N527 N528 1.388 . S
N528 Co511 1.993 1_556 S
N528 N527 1.388 . S
N528 C529 1.346 1_556 S
C529 N528 1.346 1_554 S
C529 C530 1.396 1_554 S
C529 C539 1.510 . S
C530 C526 1.401 . S
C530 C529 1.396 1_556 S
C531 C526 1.499 . S
C531 H532 0.959 . S
C531 H533 0.960 . S
C531 H534 0.961 1_455 S
H532 C531 0.959 . S
H533 C531 0.960 . S
H534 C531 0.961 1_655 S
O535 Co510 1.967 1_655 S
O535 C543 1.258 . S
O536 Co511 1.941 1_656 S
O536 C543 1.266 . S
H537 C539 0.959 1_655 S
H538 C539 0.961 . S
C539 C529 1.510 . S
C539 H537 0.959 1_455 S
C539 H538 0.961 . S
C539 H540 0.960 . S
H540 C539 0.960 . S
H541 N521 0.862 . S
O542 Co510 1.920 . S
O542 C515 1.289 . S
C543 O535 1.258 . S
C543 O536 1.266 . S
H544 C550 0.930 . S
H545 C554 0.930 . S
H546 C559 0.929 . S
H547 C557 0.929 . S
H548 C552 0.929 . S
H549 C558 0.929 . S
C550 H544 0.930 . S
C550 C551 1.367 1_655 S
C550 C558 1.378 . S
C551 C550 1.367 1_455 S
C551 C559 1.433 . S
C552 H548 0.929 . S
C552 C554 1.378 . S
C552 C556 1.350 . S
C553 C556 1.463 . S
C553 C558 1.350 1_455 S
C553 N561 1.427 . S
C554 H545 0.930 . S
C554 C552 1.378 . S
C554 C555 1.367 . S
C555 C554 1.367 . S
C555 C557 1.433 1_455 S
C556 C552 1.350 . S
C556 C553 1.463 . S
C556 N560 1.427 1_455 S
C557 H547 0.929 . S
C557 C555 1.433 1_655 S
C557 N560 1.384 . S
C558 H549 0.929 . S
C558 C550 1.378 . S
C558 C553 1.350 1_655 S
C559 H546 0.929 . S
C559 C551 1.433 . S
C559 N561 1.384 . S
N560 C556 1.427 1_655 S
N560 C557 1.384 . S
N561 C553 1.427 . S
N561 C559 1.384 . S
H562 C568 0.930 . S
H563 C572 0.930 . S
H564 C577 0.929 . S
H565 C575 0.929 . S
H566 C570 0.929 . S
H567 C576 0.929 . S
C568 H562 0.930 . S
C568 C569 1.367 . S
C568 C576 1.378 . S
C569 C568 1.367 . S
C569 C577 1.433 . S
C570 H566 0.929 . S
C570 C572 1.378 . S
C570 C574 1.350 . S
C571 C574 1.463 . S
C571 C576 1.350 . S
C571 N579 1.427 . S
C572 H563 0.930 . S
C572 C570 1.378 . S
C572 C573 1.367 . S
C573 C572 1.367 . S
C573 C575 1.433 . S
C574 C570 1.350 . S
C574 C571 1.463 . S
C574 N578 1.427 . S
C575 H565 0.929 . S
C575 C573 1.433 . S
C575 N578 1.384 . S
C576 H567 0.929 . S
C576 C568 1.378 . S
C576 C571 1.350 . S
C577 H564 0.929 . S
C577 C569 1.433 . S
C577 N579 1.384 . S
N578 C574 1.427 . S
N578 C575 1.384 . S
N579 C571 1.427 . S
N579 C577 1.384 . S
H580 C586 0.930 . S
H581 C590 0.930 . S
H582 C595 0.929 . S
H583 C593 0.929 . S
H584 C588 0.929 . S
H585 C594 0.929 . S
C586 H580 0.930 . S
C586 C587 1.367 . S
C586 C594 1.378 . S
C587 C586 1.367 . S
C587 C595 1.433 . S
C588 H584 0.929 . S
C588 C590 1.378 . S
C588 C592 1.350 . S
C589 C592 1.463 1_554 S
C589 C594 1.350 . S
C589 N597 1.427 . S
C590 H581 0.930 . S
C590 C588 1.378 . S
C590 C591 1.367 . S
C591 C590 1.367 . S
C591 C593 1.433 . S
C592 C588 1.350 . S
C592 C589 1.463 1_556 S
C592 N596 1.427 . S
C593 H583 0.929 . S
C593 C591 1.433 . S
C593 N596 1.384 . S
C594 H585 0.929 . S
C594 C586 1.378 . S
C594 C589 1.350 . S
C595 H582 0.929 . S
C595 C587 1.433 . S
C595 N597 1.384 . S
N596 C592 1.427 . S
N596 C593 1.384 . S
N597 C589 1.427 . S
N597 C595 1.384 . S
H598 C604 0.930 . S
H599 C608 0.930 . S
H600 C613 0.929 . S
H601 C611 0.929 . S
H602 C606 0.929 . S
H603 C612 0.929 . S
C604 H598 0.930 . S
C604 C605 1.367 . S
C604 C612 1.378 . S
C605 C604 1.367 . S
C605 C613 1.433 . S
C606 H602 0.929 . S
C606 C608 1.378 . S
C606 C610 1.350 . S
C607 C610 1.463 . S
C607 C612 1.350 . S
C607 N615 1.427 . S
C608 H599 0.930 . S
C608 C606 1.378 . S
C608 C609 1.367 . S
C609 C608 1.367 . S
C609 C611 1.433 . S
C610 C606 1.350 . S
C610 C607 1.463 . S
C610 N614 1.427 . S
C611 H601 0.929 . S
C611 C609 1.433 . S
C611 N614 1.384 . S
C612 H603 0.929 . S
C612 C604 1.378 . S
C612 C607 1.350 . S
C613 H600 0.929 . S
C613 C605 1.433 . S
C613 N615 1.384 . S
N614 C610 1.427 . S
N614 C611 1.384 . S
N615 C607 1.427 . S
N615 C613 1.384 . S
H616 C622 0.930 . S
H617 C626 0.945 . S
H618 C631 0.929 . S
H619 C629 0.929 . S
H620 C624 0.929 . S
H621 C630 0.929 . S
C622 H616 0.930 . S
C622 C623 1.367 . S
C622 C630 1.378 . S
C623 C622 1.367 . S
C623 C631 1.433 1_455 S
C624 H620 0.929 . S
C624 C626 1.379 . S
C624 C628 1.350 1_655 S
C625 C628 1.463 . S
C625 C630 1.350 . S
C625 N633 1.427 1_455 S
C626 H617 0.945 . S
C626 C624 1.379 . S
C626 C627 1.351 1_655 S
C627 C626 1.351 1_455 S
C627 C629 1.433 . S
C628 C624 1.350 1_455 S
C628 C625 1.463 . S
C628 N632 1.427 . S
C629 H619 0.929 . S
C629 C627 1.433 . S
C629 N632 1.384 . S
C630 H621 0.929 . S
C630 C622 1.378 . S
C630 C625 1.350 . S
C631 H618 0.929 . S
C631 C623 1.433 1_655 S
C631 N633 1.384 . S
N632 C628 1.427 . S
N632 C629 1.384 . S
N633 C625 1.427 1_655 S
N633 C631 1.384 . S
H634 C640 0.930 . S
H635 C644 0.930 . S
H636 C649 0.929 . S
H637 C647 0.929 . S
H638 C642 0.929 . S
H639 C648 0.929 . S
C640 H634 0.930 . S
C640 C641 1.367 . S
C640 C648 1.378 . S
C641 C640 1.367 . S
C641 C649 1.433 . S
C642 H638 0.929 . S
C642 C644 1.378 . S
C642 C646 1.350 . S
C643 C646 1.463 . S
C643 C648 1.350 . S
C643 N651 1.427 . S
C644 H635 0.930 . S
C644 C642 1.378 . S
C644 C645 1.367 . S
C645 C644 1.367 . S
C645 C647 1.433 . S
C646 C642 1.350 . S
C646 C643 1.463 . S
C646 N650 1.427 . S
C647 H637 0.929 . S
C647 C645 1.433 . S
C647 N650 1.384 . S
C648 H639 0.929 . S
C648 C640 1.378 . S
C648 C643 1.350 . S
C649 H636 0.929 . S
C649 C641 1.433 . S
C649 N651 1.384 . S
N650 C646 1.427 . S
N650 C647 1.384 . S
N651 C643 1.427 . S
N651 C649 1.384 . S
H652 C658 0.930 . S
H653 C662 0.930 . S
H654 C667 0.929 . S
H655 C665 0.929 . S
H656 C660 0.929 . S
H657 C666 0.929 . S
C658 H652 0.930 . S
C658 C659 1.367 . S
C658 C666 1.378 . S
C659 C658 1.367 . S
C659 C667 1.433 . S
C660 H656 0.929 . S
C660 C662 1.378 . S
C660 C664 1.350 . S
C661 C664 1.463 1_556 S
C661 C666 1.350 . S
C661 N669 1.427 . S
C662 H653 0.930 . S
C662 C660 1.378 . S
C662 C663 1.367 . S
C663 C662 1.367 . S
C663 C665 1.433 . S
C664 C660 1.350 . S
C664 C661 1.463 1_554 S
C664 N668 1.427 . S
C665 H655 0.929 . S
C665 C663 1.433 . S
C665 N668 1.384 . S
C666 H657 0.929 . S
C666 C658 1.378 . S
C666 C661 1.350 . S
C667 H654 0.929 . S
C667 C659 1.433 . S
C667 N669 1.384 . S
N668 C664 1.427 . S
N668 C665 1.384 . S
N669 C661 1.427 . S
N669 C667 1.384 . S
H670 C676 0.930 . S
H671 C680 0.930 . S
H672 C685 0.929 . S
H673 C683 0.929 . S
H674 C678 0.929 . S
H675 C684 0.929 . S
C676 H670 0.930 . S
C676 C677 1.367 . S
C676 C684 1.378 . S
C677 C676 1.367 . S
C677 C685 1.433 . S
C678 H674 0.929 . S
C678 C680 1.378 . S
C678 C682 1.350 . S
C679 C682 1.463 . S
C679 C684 1.350 . S
C679 N687 1.427 . S
C680 H671 0.930 . S
C680 C678 1.378 . S
C680 C681 1.367 . S
C681 C680 1.367 . S
C681 C683 1.433 . S
C682 C678 1.350 . S
C682 C679 1.463 . S
C682 N686 1.427 . S
C683 H673 0.929 . S
C683 C681 1.433 . S
C683 N686 1.384 . S
C684 H675 0.929 . S
C684 C676 1.378 . S
C684 C679 1.350 . S
C685 H672 0.929 . S
C685 C677 1.433 . S
C685 N687 1.384 . S
N686 C682 1.427 . S
N686 C683 1.384 . S
N687 C679 1.427 . S
N687 C685 1.384 . S
H688 C694 0.930 . S
H689 C698 0.930 . S
H690 C703 0.929 . S
H691 C701 0.929 . S
H692 C696 0.929 . S
H693 C702 0.929 . S
C694 H688 0.930 . S
C694 C695 1.367 . S
C694 C702 1.378 . S
C695 C694 1.367 . S
C695 C703 1.433 . S
C696 H692 0.929 . S
C696 C698 1.378 . S
C696 C700 1.350 . S
C697 C700 1.463 . S
C697 C702 1.350 . S
C697 N705 1.427 . S
C698 H689 0.930 . S
C698 C696 1.378 . S
C698 C699 1.367 . S
C699 C698 1.367 . S
C699 C701 1.433 . S
C700 C696 1.350 . S
C700 C697 1.463 . S
C700 N704 1.427 . S
C701 H691 0.929 . S
C701 C699 1.433 . S
C701 N704 1.384 . S
C702 H693 0.929 . S
C702 C694 1.378 . S
C702 C697 1.350 . S
C703 H690 0.929 . S
C703 C695 1.433 . S
C703 N705 1.384 . S
N704 C700 1.427 . S
N704 C701 1.384 . S
N705 C697 1.427 . S
N705 C703 1.384 . S
H706 C712 0.930 . S
H707 C716 0.930 . S
H708 C721 0.929 . S
H709 C719 0.929 . S
H710 C714 0.929 . S
H711 C720 0.929 . S
C712 H706 0.930 . S
C712 C713 1.367 . S
C712 C720 1.378 . S
C713 C712 1.367 . S
C713 C721 1.433 . S
C714 H710 0.929 . S
C714 C716 1.378 . S
C714 C718 1.350 . S
C715 C718 1.463 . S
C715 C720 1.350 . S
C715 N723 1.427 . S
C716 H707 0.930 . S
C716 C714 1.378 . S
C716 C717 1.367 . S
C717 C716 1.367 . S
C717 C719 1.433 . S
C718 C714 1.350 . S
C718 C715 1.463 . S
C718 N722 1.427 . S
C719 H709 0.929 . S
C719 C717 1.433 . S
C719 N722 1.384 . S
C720 H711 0.929 . S
C720 C712 1.378 . S
C720 C715 1.350 . S
C721 H708 0.929 . S
C721 C713 1.433 . S
C721 N723 1.384 . S
N722 C718 1.427 . S
N722 C719 1.384 . S
N723 C715 1.427 . S
N723 C721 1.384 . S
H724 C730 0.930 . S
H725 C734 0.930 . S
H726 C739 0.929 . S
H727 C737 0.929 . S
H728 C732 0.929 . S
H729 C738 0.929 . S
C730 H724 0.930 . S
C730 C731 1.367 . S
C730 C738 1.378 . S
C731 C730 1.367 . S
C731 C739 1.433 . S
C732 H728 0.929 . S
C732 C734 1.378 . S
C732 C736 1.350 . S
C733 C736 1.463 . S
C733 C738 1.350 . S
C733 N741 1.427 . S
C734 H725 0.930 . S
C734 C732 1.378 . S
C734 C735 1.367 . S
C735 C734 1.367 . S
C735 C737 1.433 . S
C736 C732 1.350 . S
C736 C733 1.463 . S
C736 N740 1.427 . S
C737 H727 0.929 . S
C737 C735 1.433 . S
C737 N740 1.384 . S
C738 H729 0.929 . S
C738 C730 1.378 . S
C738 C733 1.350 . S
C739 H726 0.929 . S
C739 C731 1.433 . S
C739 N741 1.384 . S
N740 C736 1.427 . S
N740 C737 1.384 . S
N741 C733 1.427 . S
N741 C739 1.384 . S
H742 C748 0.930 . S
H743 C752 0.930 . S
H744 C757 0.929 . S
H745 C755 0.929 . S
H746 C750 0.929 . S
H747 C756 0.929 . S
C748 H742 0.930 . S
C748 C749 1.367 . S
C748 C756 1.378 . S
C749 C748 1.367 . S
C749 C757 1.433 . S
C750 H746 0.929 . S
C750 C752 1.378 . S
C750 C754 1.350 . S
C751 C754 1.463 . S
C751 C756 1.350 . S
C751 N759 1.427 . S
C752 H743 0.930 . S
C752 C750 1.378 . S
C752 C753 1.367 . S
C753 C752 1.367 . S
C753 C755 1.433 . S
C754 C750 1.350 . S
C754 C751 1.463 . S
C754 N758 1.427 . S
C755 H745 0.929 . S
C755 C753 1.433 . S
C755 N758 1.384 . S
C756 H747 0.929 . S
C756 C748 1.378 . S
C756 C751 1.350 . S
C757 H744 0.929 . S
C757 C749 1.433 . S
C757 N759 1.384 . S
N758 C754 1.427 . S
N758 C755 1.384 . S
N759 C751 1.427 . S
N759 C757 1.384 . S
H760 C766 0.930 . S
H761 C770 0.930 . S
H762 C775 0.929 . S
H763 C773 0.929 . S
H764 C768 0.929 . S
H765 C774 0.929 . S
C766 H760 0.930 . S
C766 C767 1.367 . S
C766 C774 1.378 . S
C767 C766 1.367 . S
C767 C775 1.433 . S
C768 H764 0.929 . S
C768 C770 1.378 . S
C768 C772 1.350 . S
C769 C772 1.463 1_556 S
C769 C774 1.350 . S
C769 N777 1.427 . S
C770 H761 0.930 . S
C770 C768 1.378 . S
C770 C771 1.367 . S
C771 C770 1.367 . S
C771 C773 1.433 . S
C772 C768 1.350 . S
C772 C769 1.463 1_554 S
C772 N776 1.427 . S
C773 H763 0.929 . S
C773 C771 1.433 . S
C773 N776 1.384 . S
C774 H765 0.929 . S
C774 C766 1.378 . S
C774 C769 1.350 . S
C775 H762 0.929 . S
C775 C767 1.433 . S
C775 N777 1.384 . S
N776 C772 1.427 . S
N776 C773 1.384 . S
N777 C769 1.427 . S
N777 C775 1.384 . S
H778 C784 0.930 . S
H779 C788 0.930 . S
H780 C793 0.929 . S
H781 C791 0.929 . S
H782 C786 0.929 . S
H783 C792 0.929 . S
C784 H778 0.930 . S
C784 C785 1.367 . S
C784 C792 1.378 . S
C785 C784 1.367 . S
C785 C793 1.433 . S
C786 H782 0.929 . S
C786 C788 1.378 . S
C786 C790 1.350 . S
C787 C790 1.463 . S
C787 C792 1.350 . S
C787 N795 1.427 . S
C788 H779 0.930 . S
C788 C786 1.378 . S
C788 C789 1.367 . S
C789 C788 1.367 . S
C789 C791 1.433 . S
C790 C786 1.350 . S
C790 C787 1.463 . S
C790 N794 1.427 . S
C791 H781 0.929 . S
C791 C789 1.433 . S
C791 N794 1.384 . S
C792 H783 0.929 . S
C792 C784 1.378 . S
C792 C787 1.350 . S
C793 H780 0.929 . S
C793 C785 1.433 . S
C793 N795 1.384 . S
N794 C790 1.427 . S
N794 C791 1.384 . S
N795 C787 1.427 . S
N795 C793 1.384 . S
H796 C802 0.930 . S
H797 C806 0.930 . S
H798 C811 0.929 . S
H799 C809 0.929 . S
H800 C804 0.929 . S
H801 C810 0.929 . S
C802 H796 0.930 . S
C802 C803 1.367 . S
C802 C810 1.378 . S
C803 C802 1.367 . S
C803 C811 1.433 . S
C804 H800 0.929 . S
C804 C806 1.378 . S
C804 C808 1.350 . S
C805 C808 1.463 1_554 S
C805 C810 1.350 . S
C805 N813 1.427 . S
C806 H797 0.930 . S
C806 C804 1.378 . S
C806 C807 1.367 . S
C807 C806 1.367 . S
C807 C809 1.433 . S
C808 C804 1.350 . S
C808 C805 1.463 1_556 S
C808 N812 1.427 . S
C809 H799 0.929 . S
C809 C807 1.433 . S
C809 N812 1.384 . S
C810 H801 0.929 . S
C810 C802 1.378 . S
C810 C805 1.350 . S
C811 H798 0.929 . S
C811 C803 1.433 . S
C811 N813 1.384 . S
N812 C808 1.427 . S
N812 C809 1.384 . S
N813 C805 1.427 . S
N813 C811 1.384 . S
H814 C820 0.930 . S
H815 C824 0.930 . S
H816 C829 0.929 . S
H817 C827 0.929 . S
H818 C822 0.929 . S
H819 C828 0.929 . S
C820 H814 0.930 . S
C820 C821 1.367 . S
C820 C828 1.378 . S
C821 C820 1.367 . S
C821 C829 1.433 . S
C822 H818 0.929 . S
C822 C824 1.378 . S
C822 C826 1.350 . S
C823 C826 1.463 . S
C823 C828 1.350 . S
C823 N831 1.427 . S
C824 H815 0.930 . S
C824 C822 1.378 . S
C824 C825 1.367 . S
C825 C824 1.367 . S
C825 C827 1.433 . S
C826 C822 1.350 . S
C826 C823 1.463 . S
C826 N830 1.427 . S
C827 H817 0.929 . S
C827 C825 1.433 . S
C827 N830 1.384 . S
C828 H819 0.929 . S
C828 C820 1.378 . S
C828 C823 1.350 . S
C829 H816 0.929 . S
C829 C821 1.433 . S
C829 N831 1.384 . S
N830 C826 1.427 . S
N830 C827 1.384 . S
N831 C823 1.427 . S
N831 C829 1.384 . S
H832 C838 0.930 . S
H833 C842 0.930 . S
H834 C847 0.929 . S
H835 C845 0.929 . S
H836 C840 0.929 . S
H837 C846 0.929 . S
C838 H832 0.930 . S
C838 C839 1.367 . S
C838 C846 1.378 . S
C839 C838 1.367 . S
C839 C847 1.433 1_554 S
C840 H836 0.929 . S
C840 C842 1.378 . S
C840 C844 1.350 . S
C841 C844 1.463 1_554 S
C841 C846 1.350 . S
C841 N849 1.427 1_554 S
C842 H833 0.930 . S
C842 C840 1.378 . S
C842 C843 1.367 . S
C843 C842 1.367 . S
C843 C845 1.433 1_556 S
C844 C840 1.350 . S
C844 C841 1.463 1_556 S
C844 N848 1.427 1_556 S
C845 H835 0.929 . S
C845 C843 1.433 1_554 S
C845 N848 1.384 . S
C846 H837 0.929 . S
C846 C838 1.378 . S
C846 C841 1.350 . S
C847 H834 0.929 . S
C847 C839 1.433 1_556 S
C847 N849 1.384 . S
N848 C844 1.427 1_554 S
N848 C845 1.384 . S
N849 C841 1.427 1_556 S
N849 C847 1.384 . S
H850 C856 0.930 . S
H851 C860 0.930 . S
H852 C865 0.929 . S
H853 C863 0.929 . S
H854 C858 0.929 . S
H855 C864 0.929 . S
C856 H850 0.930 . S
C856 C857 1.367 . S
C856 C864 1.378 . S
C857 C856 1.367 . S
C857 C865 1.433 . S
C858 H854 0.929 . S
C858 C860 1.378 . S
C858 C862 1.350 . S
C859 C862 1.463 . S
C859 C864 1.350 . S
C859 N867 1.427 . S
C860 H851 0.930 . S
C860 C858 1.378 . S
C860 C861 1.367 . S
C861 C860 1.367 . S
C861 C863 1.433 . S
C862 C858 1.350 . S
C862 C859 1.463 . S
C862 N866 1.427 . S
C863 H853 0.929 . S
C863 C861 1.433 . S
C863 N866 1.384 . S
C864 H855 0.929 . S
C864 C856 1.378 . S
C864 C859 1.350 . S
C865 H852 0.929 . S
C865 C857 1.433 . S
C865 N867 1.384 . S
N866 C862 1.427 . S
N866 C863 1.384 . S
N867 C859 1.427 . S
N867 C865 1.384 . S
H868 C874 0.930 . S
H869 C878 0.930 . S
H870 C883 0.929 . S
H871 C881 0.929 . S
H872 C876 0.929 . S
H873 C882 0.929 . S
C874 H868 0.930 . S
C874 C875 1.367 . S
C874 C882 1.378 . S
C875 C874 1.367 . S
C875 C883 1.433 . S
C876 H872 0.929 . S
C876 C878 1.378 . S
C876 C880 1.350 . S
C877 C880 1.463 . S
C877 C882 1.350 . S
C877 N885 1.427 . S
C878 H869 0.930 . S
C878 C876 1.378 . S
C878 C879 1.367 . S
C879 C878 1.367 . S
C879 C881 1.433 . S
C880 C876 1.350 . S
C880 C877 1.463 . S
C880 N884 1.427 . S
C881 H871 0.929 . S
C881 C879 1.433 . S
C881 N884 1.384 . S
C882 H873 0.929 . S
C882 C874 1.378 . S
C882 C877 1.350 . S
C883 H870 0.929 . S
C883 C875 1.433 . S
C883 N885 1.384 . S
N884 C880 1.427 . S
N884 C881 1.384 . S
N885 C877 1.427 . S
N885 C883 1.384 . S
H886 C892 0.930 . S
H887 C896 0.930 . S
H888 C901 0.929 . S
H889 C899 0.929 . S
H890 C894 0.929 . S
H891 C900 0.929 . S
C892 H886 0.930 . S
C892 C893 1.367 . S
C892 C900 1.378 . S
C893 C892 1.367 . S
C893 C901 1.433 . S
C894 H890 0.929 . S
C894 C896 1.378 . S
C894 C898 1.350 . S
C895 C898 1.463 . S
C895 C900 1.350 . S
C895 N903 1.427 . S
C896 H887 0.930 . S
C896 C894 1.378 . S
C896 C897 1.367 . S
C897 C896 1.367 . S
C897 C899 1.433 . S
C898 C894 1.350 . S
C898 C895 1.463 . S
C898 N902 1.427 . S
C899 H889 0.929 . S
C899 C897 1.433 . S
C899 N902 1.384 . S
C900 H891 0.929 . S
C900 C892 1.378 . S
C900 C895 1.350 . S
C901 H888 0.929 . S
C901 C893 1.433 . S
C901 N903 1.384 . S
N902 C898 1.427 . S
N902 C899 1.384 . S
N903 C895 1.427 . S
N903 C901 1.384 . S
H904 C910 0.930 . S
H905 C914 0.930 . S
H906 C919 0.929 . S
H907 C917 0.929 . S
H908 C912 0.929 . S
H909 C918 0.929 . S
C910 H904 0.930 . S
C910 C911 1.367 . S
C910 C918 1.378 . S
C911 C910 1.367 . S
C911 C919 1.433 . S
C912 H908 0.929 . S
C912 C914 1.378 . S
C912 C916 1.350 . S
C913 C916 1.463 . S
C913 C918 1.350 . S
C913 N921 1.427 . S
C914 H905 0.930 . S
C914 C912 1.378 . S
C914 C915 1.367 . S
C915 C914 1.367 . S
C915 C917 1.433 . S
C916 C912 1.350 . S
C916 C913 1.463 . S
C916 N920 1.427 . S
C917 H907 0.929 . S
C917 C915 1.433 . S
C917 N920 1.384 . S
C918 H909 0.929 . S
C918 C910 1.378 . S
C918 C913 1.350 . S
C919 H906 0.929 . S
C919 C911 1.433 . S
C919 N921 1.384 . S
N920 C916 1.427 . S
N920 C917 1.384 . S
N921 C913 1.427 . S
N921 C919 1.384 . S
H922 C928 0.930 . S
H923 C932 0.930 . S
H924 C937 0.929 . S
H925 C935 0.929 . S
H926 C930 0.929 . S
H927 C936 0.929 . S
C928 H922 0.930 . S
C928 C929 1.367 . S
C928 C936 1.378 . S
C929 C928 1.367 . S
C929 C937 1.433 . S
C930 H926 0.929 . S
C930 C932 1.378 . S
C930 C934 1.350 . S
C931 C934 1.463 . S
C931 C936 1.350 . S
C931 N939 1.427 . S
C932 H923 0.930 . S
C932 C930 1.378 . S
C932 C933 1.367 . S
C933 C932 1.367 . S
C933 C935 1.433 . S
C934 C930 1.350 . S
C934 C931 1.463 . S
C934 N938 1.427 . S
C935 H925 0.929 . S
C935 C933 1.433 . S
C935 N938 1.384 . S
C936 H927 0.929 . S
C936 C928 1.378 . S
C936 C931 1.350 . S
C937 H924 0.929 . S
C937 C929 1.433 . S
C937 N939 1.384 . S
N938 C934 1.427 . S
N938 C935 1.384 . S
N939 C931 1.427 . S
N939 C937 1.384 . S
H940 C946 0.930 . S
H941 C950 0.930 . S
H942 C955 0.929 . S
H943 C953 0.929 . S
H944 C948 0.929 . S
H945 C954 0.929 . S
C946 H940 0.930 . S
C946 C947 1.367 . S
C946 C954 1.378 . S
C947 C946 1.367 . S
C947 C955 1.433 . S
C948 H944 0.929 . S
C948 C950 1.378 . S
C948 C952 1.350 . S
C949 C952 1.463 1_545 S
C949 C954 1.350 . S
C949 N957 1.427 . S
C950 H941 0.930 . S
C950 C948 1.378 . S
C950 C951 1.367 . S
C951 C950 1.367 . S
C951 C953 1.433 . S
C952 C948 1.350 . S
C952 C949 1.463 1_565 S
C952 N956 1.427 . S
C953 H943 0.929 . S
C953 C951 1.433 . S
C953 N956 1.384 . S
C954 H945 0.929 . S
C954 C946 1.378 . S
C954 C949 1.350 . S
C955 H942 0.929 . S
C955 C947 1.433 . S
C955 N957 1.384 . S
N956 C952 1.427 . S
N956 C953 1.384 . S
N957 C949 1.427 . S
N957 C955 1.384 . S
H958 C964 0.930 . S
H959 C968 0.930 . S
H960 C973 0.929 . S
H961 C971 0.929 . S
H962 C966 0.929 . S
H963 C972 0.929 . S
C964 H958 0.930 . S
C964 C965 1.367 . S
C964 C972 1.378 . S
C965 C964 1.367 . S
C965 C973 1.433 1_454 S
C966 H962 0.929 . S
C966 C968 1.378 . S
C966 C970 1.350 1_655 S
C967 C970 1.463 1_564 S
C967 C972 1.350 . S
C967 N975 1.427 1_454 S
C968 H959 0.930 . S
C968 C966 1.378 . S
C968 C969 1.367 1_655 S
C969 C968 1.367 1_455 S
C969 C971 1.433 1_556 S
C970 C966 1.350 1_455 S
C970 C967 1.463 1_546 S
C970 N974 1.427 1_556 S
C971 H961 0.929 . S
C971 C969 1.433 1_554 S
C971 N974 1.384 . S
C972 H963 0.929 . S
C972 C964 1.378 . S
C972 C967 1.350 . S
C973 H960 0.929 . S
C973 C965 1.433 1_656 S
C973 N975 1.384 . S
N974 C970 1.427 1_554 S
N974 C971 1.384 . S
N975 C967 1.427 1_656 S
N975 C973 1.384 . S
H976 C982 0.930 . S
H977 C986 0.930 . S
H978 C991 0.929 . S
H979 C989 0.929 . S
H980 C984 0.929 . S
H981 C990 0.929 . S
C982 H976 0.930 . S
C982 C983 1.367 . S
C982 C990 1.378 . S
C983 C982 1.367 . S
C983 C991 1.433 . S
C984 H980 0.929 . S
C984 C986 1.378 . S
C984 C988 1.350 . S
C985 C988 1.463 . S
C985 C990 1.350 . S
C985 N993 1.427 . S
C986 H977 0.930 . S
C986 C984 1.378 . S
C986 C987 1.367 . S
C987 C986 1.367 . S
C987 C989 1.433 . S
C988 C984 1.350 . S
C988 C985 1.463 . S
C988 N992 1.427 . S
C989 H979 0.929 . S
C989 C987 1.433 . S
C989 N992 1.384 . S
C990 H981 0.929 . S
C990 C982 1.378 . S
C990 C985 1.350 . S
C991 H978 0.929 . S
C991 C983 1.433 . S
C991 N993 1.384 . S
N992 C988 1.427 . S
N992 C989 1.384 . S
N993 C985 1.427 . S
N993 C991 1.384 . S
H994 C1000 0.930 . S
H995 C1004 0.930 . S
H996 C1009 0.929 . S
H997 C1007 0.929 . S
H998 C1002 0.929 . S
H999 C1008 0.929 . S
C1000 H994 0.930 . S
C1000 C1001 1.367 . S
C1000 C1008 1.378 . S
C1001 C1000 1.367 . S
C1001 C1009 1.433 . S
C1002 H998 0.929 . S
C1002 C1004 1.378 . S
C1002 C1006 1.350 . S
C1003 C1006 1.463 . S
C1003 C1008 1.350 . S
C1003 N1011 1.427 . S
C1004 H995 0.930 . S
C1004 C1002 1.378 . S
C1004 C1005 1.367 . S
C1005 C1004 1.367 . S
C1005 C1007 1.433 . S
C1006 C1002 1.350 . S
C1006 C1003 1.463 . S
C1006 N1010 1.427 . S
C1007 H997 0.929 . S
C1007 C1005 1.433 . S
C1007 N1010 1.384 . S
C1008 H999 0.929 . S
C1008 C1000 1.378 . S
C1008 C1003 1.350 . S
C1009 H996 0.929 . S
C1009 C1001 1.433 . S
C1009 N1011 1.384 . S
N1010 C1006 1.427 . S
N1010 C1007 1.384 . S
N1011 C1003 1.427 . S
N1011 C1009 1.384 . S
H1012 C1018 0.930 . S
H1013 C1022 0.930 . S
H1014 C1027 0.929 . S
H1015 C1025 0.929 . S
H1016 C1020 0.929 . S
H1017 C1026 0.929 . S
C1018 H1012 0.930 . S
C1018 C1019 1.367 . S
C1018 C1026 1.378 . S
C1019 C1018 1.367 . S
C1019 C1027 1.433 . S
C1020 H1016 0.929 . S
C1020 C1022 1.378 . S
C1020 C1024 1.350 . S
C1021 C1024 1.463 . S
C1021 C1026 1.350 . S
C1021 N1029 1.427 . S
C1022 H1013 0.930 . S
C1022 C1020 1.378 . S
C1022 C1023 1.367 . S
C1023 C1022 1.367 . S
C1023 C1025 1.433 . S
C1024 C1020 1.350 . S
C1024 C1021 1.463 . S
C1024 N1028 1.427 . S
C1025 H1015 0.929 . S
C1025 C1023 1.433 . S
C1025 N1028 1.384 . S
C1026 H1017 0.929 . S
C1026 C1018 1.378 . S
C1026 C1021 1.350 . S
C1027 H1014 0.929 . S
C1027 C1019 1.433 . S
C1027 N1029 1.384 . S
N1028 C1024 1.427 . S
N1028 C1025 1.384 . S
N1029 C1021 1.427 . S
N1029 C1027 1.384 . S
H1030 C1036 0.930 . S
H1031 C1040 0.930 . S
H1032 C1045 0.929 . S
H1033 C1043 0.929 . S
H1034 C1038 0.929 . S
H1035 C1044 0.929 . S
C1036 H1030 0.930 . S
C1036 C1037 1.367 . S
C1036 C1044 1.378 . S
C1037 C1036 1.367 . S
C1037 C1045 1.433 . S
C1038 H1034 0.929 . S
C1038 C1040 1.378 . S
C1038 C1042 1.350 . S
C1039 C1042 1.463 . S
C1039 C1044 1.350 . S
C1039 N1047 1.427 . S
C1040 H1031 0.930 . S
C1040 C1038 1.378 . S
C1040 C1041 1.367 . S
C1041 C1040 1.367 . S
C1041 C1043 1.433 . S
C1042 C1038 1.350 . S
C1042 C1039 1.463 . S
C1042 N1046 1.427 . S
C1043 H1033 0.929 . S
C1043 C1041 1.433 . S
C1043 N1046 1.384 . S
C1044 H1035 0.929 . S
C1044 C1036 1.378 . S
C1044 C1039 1.350 . S
C1045 H1032 0.929 . S
C1045 C1037 1.433 . S
C1045 N1047 1.384 . S
N1046 C1042 1.427 . S
N1046 C1043 1.384 . S
N1047 C1039 1.427 . S
N1047 C1045 1.384 . S
H1048 C1054 0.930 . S
H1049 C1058 0.930 . S
H1050 C1063 0.929 . S
H1051 C1061 0.929 1_554 S
H1052 C1056 0.929 . S
H1053 C1062 0.929 . S
C1054 H1048 0.930 . S
C1054 C1055 1.367 . S
C1054 C1062 1.378 . S
C1055 C1054 1.367 . S
C1055 C1063 1.433 . S
C1056 H1052 0.929 . S
C1056 C1058 1.378 . S
C1056 C1060 1.350 . S
C1057 C1060 1.463 . S
C1057 C1062 1.350 . S
C1057 N1065 1.427 . S
C1058 H1049 0.930 . S
C1058 C1056 1.378 . S
C1058 C1059 1.367 . S
C1059 C1058 1.367 . S
C1059 C1061 1.433 . S
C1060 C1056 1.350 . S
C1060 C1057 1.463 . S
C1060 N1064 1.427 . S
C1061 H1051 0.929 1_556 S
C1061 C1059 1.433 . S
C1061 N1064 1.384 . S
C1062 H1053 0.929 . S
C1062 C1054 1.378 . S
C1062 C1057 1.350 . S
C1063 H1050 0.929 . S
C1063 C1055 1.433 . S
C1063 N1065 1.384 . S
N1064 C1060 1.427 . S
N1064 C1061 1.384 . S
N1065 C1057 1.427 . S
N1065 C1063 1.384 . S
H1066 C1072 0.930 . S
H1067 C1076 0.930 . S
H1068 C1081 0.929 . S
H1069 C1079 0.929 . S
H1070 C1074 0.929 . S
H1071 C1080 0.929 . S
C1072 H1066 0.930 . S
C1072 C1073 1.367 . S
C1072 C1080 1.378 . S
C1073 C1072 1.367 . S
C1073 C1081 1.433 . S
C1074 H1070 0.929 . S
C1074 C1076 1.378 . S
C1074 C1078 1.350 . S
C1075 C1078 1.463 . S
C1075 C1080 1.350 . S
C1075 N1083 1.427 . S
C1076 H1067 0.930 . S
C1076 C1074 1.378 . S
C1076 C1077 1.367 . S
C1077 C1076 1.367 . S
C1077 C1079 1.433 . S
C1078 C1074 1.350 . S
C1078 C1075 1.463 . S
C1078 N1082 1.427 . S
C1079 H1069 0.929 . S
C1079 C1077 1.433 . S
C1079 N1082 1.384 . S
C1080 H1071 0.929 . S
C1080 C1072 1.378 . S
C1080 C1075 1.350 . S
C1081 H1068 0.929 . S
C1081 C1073 1.433 . S
C1081 N1083 1.384 . S
N1082 C1078 1.427 . S
N1082 C1079 1.384 . S
N1083 C1075 1.427 . S
N1083 C1081 1.384 . S
H1084 C1090 0.930 . S
H1085 C1094 0.930 . S
H1086 C1099 0.929 . S
H1087 C1097 0.929 . S
H1088 C1092 0.929 . S
H1089 C1098 0.929 . S
C1090 H1084 0.930 . S
C1090 C1091 1.367 . S
C1090 C1098 1.378 . S
C1091 C1090 1.367 . S
C1091 C1099 1.433 . S
C1092 H1088 0.929 . S
C1092 C1094 1.378 . S
C1092 C1096 1.350 . S
C1093 C1096 1.463 . S
C1093 C1098 1.350 . S
C1093 N1101 1.427 . S
C1094 H1085 0.930 . S
C1094 C1092 1.378 . S
C1094 C1095 1.367 . S
C1095 C1094 1.367 . S
C1095 C1097 1.433 . S
C1096 C1092 1.350 . S
C1096 C1093 1.463 . S
C1096 N1100 1.427 . S
C1097 H1087 0.929 . S
C1097 C1095 1.433 . S
C1097 N1100 1.384 . S
C1098 H1089 0.929 . S
C1098 C1090 1.378 . S
C1098 C1093 1.350 . S
C1099 H1086 0.929 . S
C1099 C1091 1.433 . S
C1099 N1101 1.384 . S
N1100 C1096 1.427 . S
N1100 C1097 1.384 . S
N1101 C1093 1.427 . S
N1101 C1099 1.384 . S
H1102 C1108 0.930 . S
H1103 C1112 0.930 . S
H1104 C1117 0.929 . S
H1105 C1115 0.929 . S
H1106 C1110 0.929 . S
H1107 C1116 0.929 . S
C1108 H1102 0.930 . S
C1108 C1109 1.367 . S
C1108 C1116 1.378 . S
C1109 C1108 1.367 . S
C1109 C1117 1.433 . S
C1110 H1106 0.929 . S
C1110 C1112 1.378 . S
C1110 C1114 1.350 . S
C1111 C1114 1.463 . S
C1111 C1116 1.350 . S
C1111 N1119 1.427 . S
C1112 H1103 0.930 . S
C1112 C1110 1.378 . S
C1112 C1113 1.367 . S
C1113 C1112 1.367 . S
C1113 C1115 1.433 . S
C1114 C1110 1.350 . S
C1114 C1111 1.463 . S
C1114 N1118 1.427 . S
C1115 H1105 0.929 . S
C1115 C1113 1.433 . S
C1115 N1118 1.384 . S
C1116 H1107 0.929 . S
C1116 C1108 1.378 . S
C1116 C1111 1.350 . S
C1117 H1104 0.929 . S
C1117 C1109 1.433 . S
C1117 N1119 1.384 . S
N1118 C1114 1.427 . S
N1118 C1115 1.384 . S
N1119 C1111 1.427 . S
N1119 C1117 1.384 . S
H1120 C1126 0.930 . S
H1121 C1130 0.930 . S
H1122 C1135 0.929 . S
H1123 C1133 0.929 . S
H1124 C1128 0.929 . S
H1125 C1134 0.929 . S
C1126 H1120 0.930 . S
C1126 C1127 1.367 . S
C1126 C1134 1.378 . S
C1127 C1126 1.367 . S
C1127 C1135 1.433 . S
C1128 H1124 0.929 . S
C1128 C1130 1.378 . S
C1128 C1132 1.350 . S
C1129 C1132 1.463 . S
C1129 C1134 1.350 . S
C1129 N1137 1.427 . S
C1130 H1121 0.930 . S
C1130 C1128 1.378 . S
C1130 C1131 1.367 . S
C1131 C1130 1.367 . S
C1131 C1133 1.433 . S
C1132 C1128 1.350 . S
C1132 C1129 1.463 . S
C1132 N1136 1.427 . S
C1133 H1123 0.929 . S
C1133 C1131 1.433 . S
C1133 N1136 1.384 . S
C1134 H1125 0.929 . S
C1134 C1126 1.378 . S
C1134 C1129 1.350 . S
C1135 H1122 0.929 . S
C1135 C1127 1.433 . S
C1135 N1137 1.384 . S
N1136 C1132 1.427 . S
N1136 C1133 1.384 . S
N1137 C1129 1.427 . S
N1137 C1135 1.384 . S
H1138 C1144 0.930 . S
H1139 C1148 0.930 . S
H1140 C1153 0.929 . S
H1141 C1151 0.929 . S
H1142 C1146 0.929 . S
H1143 C1152 0.929 . S
C1144 H1138 0.930 . S
C1144 C1145 1.367 . S
C1144 C1152 1.378 . S
C1145 C1144 1.367 . S
C1145 C1153 1.433 . S
C1146 H1142 0.929 . S
C1146 C1148 1.378 . S
C1146 C1150 1.350 . S
C1147 C1150 1.463 . S
C1147 C1152 1.350 . S
C1147 N1155 1.427 . S
C1148 H1139 0.930 . S
C1148 C1146 1.378 . S
C1148 C1149 1.367 . S
C1149 C1148 1.367 . S
C1149 C1151 1.433 . S
C1150 C1146 1.350 . S
C1150 C1147 1.463 . S
C1150 N1154 1.427 . S
C1151 H1141 0.929 . S
C1151 C1149 1.433 . S
C1151 N1154 1.384 . S
C1152 H1143 0.929 . S
C1152 C1144 1.378 . S
C1152 C1147 1.350 . S
C1153 H1140 0.929 . S
C1153 C1145 1.433 . S
C1153 N1155 1.384 . S
N1154 C1150 1.427 . S
N1154 C1151 1.384 . S
N1155 C1147 1.427 . S
N1155 C1153 1.384 . S
H1156 C1162 0.930 . S
H1157 C1166 0.930 . S
H1158 C1171 0.929 . S
H1159 C1169 0.929 . S
H1160 C1164 0.929 . S
H1161 C1170 0.929 . S
C1162 H1156 0.930 . S
C1162 C1163 1.367 . S
C1162 C1170 1.378 . S
C1163 C1162 1.367 . S
C1163 C1171 1.433 . S
C1164 H1160 0.929 . S
C1164 C1166 1.378 . S
C1164 C1168 1.350 . S
C1165 C1168 1.463 . S
C1165 C1170 1.350 . S
C1165 N1173 1.427 . S
C1166 H1157 0.930 . S
C1166 C1164 1.378 . S
C1166 C1167 1.367 . S
C1167 C1166 1.367 . S
C1167 C1169 1.433 . S
C1168 C1164 1.350 . S
C1168 C1165 1.463 . S
C1168 N1172 1.427 . S
C1169 H1159 0.929 . S
C1169 C1167 1.433 . S
C1169 N1172 1.384 . S
C1170 H1161 0.929 . S
C1170 C1162 1.378 . S
C1170 C1165 1.350 . S
C1171 H1158 0.929 . S
C1171 C1163 1.433 . S
C1171 N1173 1.384 . S
N1172 C1168 1.427 . S
N1172 C1169 1.384 . S
N1173 C1165 1.427 . S
N1173 C1171 1.384 . S
H1174 C1180 0.930 . S
H1175 C1184 0.930 . S
H1176 C1189 0.929 . S
H1177 C1187 0.929 . S
H1178 C1182 0.929 . S
H1179 C1188 0.929 . S
C1180 H1174 0.930 . S
C1180 C1181 1.367 . S
C1180 C1188 1.378 . S
C1181 C1180 1.367 . S
C1181 C1189 1.433 . S
C1182 H1178 0.929 . S
C1182 C1184 1.378 . S
C1182 C1186 1.350 . S
C1183 C1186 1.463 . S
C1183 C1188 1.350 . S
C1183 N1191 1.427 . S
C1184 H1175 0.930 . S
C1184 C1182 1.378 . S
C1184 C1185 1.367 . S
C1185 C1184 1.367 . S
C1185 C1187 1.433 . S
C1186 C1182 1.350 . S
C1186 C1183 1.463 . S
C1186 N1190 1.427 . S
C1187 H1177 0.929 . S
C1187 C1185 1.433 . S
C1187 N1190 1.384 . S
C1188 H1179 0.929 . S
C1188 C1180 1.378 . S
C1188 C1183 1.350 . S
C1189 H1176 0.929 . S
C1189 C1181 1.433 . S
C1189 N1191 1.384 . S
N1190 C1186 1.427 . S
N1190 C1187 1.384 . S
N1191 C1183 1.427 . S
N1191 C1189 1.384 . S
H1192 C1198 0.930 . S
H1193 C1202 0.930 1_556 S
H1194 C1207 0.929 . S
H1195 C1205 0.929 . S
H1196 C1200 0.929 . S
H1197 C1206 0.929 . S
C1198 H1192 0.930 . S
C1198 C1199 1.367 . S
C1198 C1206 1.378 . S
C1199 C1198 1.367 . S
C1199 C1207 1.433 . S
C1200 H1196 0.929 . S
C1200 C1202 1.378 . S
C1200 C1204 1.350 . S
C1201 C1204 1.463 . S
C1201 C1206 1.350 . S
C1201 N1209 1.427 . S
C1202 H1193 0.930 1_554 S
C1202 C1200 1.378 . S
C1202 C1203 1.367 . S
C1203 C1202 1.367 . S
C1203 C1205 1.433 . S
C1204 C1200 1.350 . S
C1204 C1201 1.463 . S
C1204 N1208 1.427 . S
C1205 H1195 0.929 . S
C1205 C1203 1.433 . S
C1205 N1208 1.384 . S
C1206 H1197 0.929 . S
C1206 C1198 1.378 . S
C1206 C1201 1.350 . S
C1207 H1194 0.929 . S
C1207 C1199 1.433 . S
C1207 N1209 1.384 . S
N1208 C1204 1.427 . S
N1208 C1205 1.384 . S
N1209 C1201 1.427 . S
N1209 C1207 1.384 . S
H1210 C1216 0.930 . S
H1211 C1220 0.930 . S
H1212 C1225 0.929 . S
H1213 C1223 0.929 . S
H1214 C1218 0.929 . S
H1215 C1224 0.929 . S
C1216 H1210 0.930 . S
C1216 C1217 1.367 . S
C1216 C1224 1.378 . S
C1217 C1216 1.367 . S
C1217 C1225 1.433 . S
C1218 H1214 0.929 . S
C1218 C1220 1.378 . S
C1218 C1222 1.350 . S
C1219 C1222 1.463 . S
C1219 C1224 1.350 . S
C1219 N1227 1.427 . S
C1220 H1211 0.930 . S
C1220 C1218 1.378 . S
C1220 C1221 1.367 . S
C1221 C1220 1.367 . S
C1221 C1223 1.433 . S
C1222 C1218 1.350 . S
C1222 C1219 1.463 . S
C1222 N1226 1.427 . S
C1223 H1213 0.929 . S
C1223 C1221 1.433 . S
C1223 N1226 1.384 . S
C1224 H1215 0.929 . S
C1224 C1216 1.378 . S
C1224 C1219 1.350 . S
C1225 H1212 0.929 . S
C1225 C1217 1.433 . S
C1225 N1227 1.384 . S
N1226 C1222 1.427 . S
N1226 C1223 1.384 . S
N1227 C1219 1.427 . S
N1227 C1225 1.384 . S
H1228 C1234 0.930 . S
H1229 C1238 0.930 . S
H1230 C1243 0.929 . S
H1231 C1241 0.929 . S
H1232 C1236 0.929 . S
H1233 C1242 0.929 . S
C1234 H1228 0.930 . S
C1234 C1235 1.367 . S
C1234 C1242 1.378 . S
C1235 C1234 1.367 . S
C1235 C1243 1.433 . S
C1236 H1232 0.929 . S
C1236 C1238 1.378 . S
C1236 C1240 1.350 . S
C1237 C1240 1.463 . S
C1237 C1242 1.350 . S
C1237 N1245 1.427 . S
C1238 H1229 0.930 . S
C1238 C1236 1.378 . S
C1238 C1239 1.367 . S
C1239 C1238 1.367 . S
C1239 C1241 1.433 . S
C1240 C1236 1.350 . S
C1240 C1237 1.463 . S
C1240 N1244 1.427 . S
C1241 H1231 0.929 . S
C1241 C1239 1.433 . S
C1241 N1244 1.384 . S
C1242 H1233 0.929 . S
C1242 C1234 1.378 . S
C1242 C1237 1.350 . S
C1243 H1230 0.929 . S
C1243 C1235 1.433 . S
C1243 N1245 1.384 . S
N1244 C1240 1.427 . S
N1244 C1241 1.384 . S
N1245 C1237 1.427 . S
N1245 C1243 1.384 . S
H1246 C1252 0.930 . S
H1247 C1256 0.930 . S
H1248 C1261 0.929 . S
H1249 C1259 0.929 . S
H1250 C1254 0.929 . S
H1251 C1260 0.929 . S
C1252 H1246 0.930 . S
C1252 C1253 1.367 . S
C1252 C1260 1.378 . S
C1253 C1252 1.367 . S
C1253 C1261 1.433 . S
C1254 H1250 0.929 . S
C1254 C1256 1.378 . S
C1254 C1258 1.350 . S
C1255 C1258 1.463 . S
C1255 C1260 1.350 . S
C1255 N1263 1.427 . S
C1256 H1247 0.930 . S
C1256 C1254 1.378 . S
C1256 C1257 1.367 . S
C1257 C1256 1.367 . S
C1257 C1259 1.433 . S
C1258 C1254 1.350 . S
C1258 C1255 1.463 . S
C1258 N1262 1.427 . S
C1259 H1249 0.929 . S
C1259 C1257 1.433 . S
C1259 N1262 1.384 . S
C1260 H1251 0.929 . S
C1260 C1252 1.378 . S
C1260 C1255 1.350 . S
C1261 H1248 0.929 . S
C1261 C1253 1.433 . S
C1261 N1263 1.384 . S
N1262 C1258 1.427 . S
N1262 C1259 1.384 . S
N1263 C1255 1.427 . S
N1263 C1261 1.384 . S
C551 C9 1.338 . S
C555 C5 1.412 . S
C569 C43 1.323 1_556 S
C573 C39 1.408 . S
C587 C77 1.325 . S
C591 C73 1.411 . S
C605 C111 1.320 . S
C609 C107 1.408 . S
C623 C145 1.325 . S
C627 C141 1.411 . S
C641 C179 1.324 . S
C645 C175 1.408 . S
C659 C213 1.337 . S
C663 C209 1.412 . S
C677 C243 1.415 . S
C681 C247 1.339 1_554 S
C695 C277 1.408 . S
C699 C281 1.320 1_554 S
C713 C315 1.339 . S
C717 C311 1.415 . S
C731 C349 1.340 . S
C735 C345 1.415 . S
C749 C379 1.411 . S
C753 C383 1.335 1_556 S
C767 C413 1.414 . S
C771 C417 1.333 . S
C785 C451 1.327 . S
C789 C447 1.409 . S
C803 C481 1.408 . S
C807 C485 1.325 . S
C821 C519 1.336 . S
C825 C515 1.411 . S
C839 C20 1.481 . S
C843 C156 1.484 . S
C857 C190 1.485 . S
C861 C54 1.480 . S
C875 C224 1.479 . S
C879 C88 1.485 . S
C893 C122 1.484 . S
C897 C258 1.481 . S
C911 C360 1.484 . S
C915 C292 1.478 . S
C929 C326 1.480 . S
C933 C394 1.485 . S
C947 C428 1.478 . S
C951 C496 1.485 . S
C965 C462 1.480 . S
C969 C530 1.484 . S
C983 C339 1.197 . S
C987 C33 1.191 . S
C1001 C509 1.191 . S
C1005 C67 1.196 . S
C1019 C101 1.193 . S
C1023 C305 1.195 . S
C1037 C543 1.197 . S
C1041 C135 1.191 . S
C1055 C373 1.195 . S
C1059 C169 1.192 . S
C1073 C475 1.195 . S
C1077 C203 1.192 . S
C1091 C237 1.192 . S
C1095 C407 1.196 . S
C1109 C271 1.193 . S
C1113 C441 1.195 . S
C1127 C138 1.697 . S
C1131 C104 1.696 . S
C1145 C410 1.693 . S
C1149 C274 1.693 . S
C1163 C36 1.693 . S
C1167 C206 1.693 . S
C1181 C444 1.695 . S
C1185 C308 1.695 . S
C1199 C172 1.698 . S
C1203 C2 1.698 . S
C1217 C342 1.697 . S
C1221 C512 1.697 . S
C1235 C240 1.698 . S
C1239 C70 1.698 . S
C1253 C478 1.693 . S
C1257 C376 1.693 . S
