# Generated by pormake.
# Topology uoz, (4)-cn, num edge types: 1
# Building blocks:
#     Node 0, Type 0, BuildingBlock: ICAMEG_clean_sbu_1, # of connection points: 4
#     Node 1, Type 0, BuildingBlock: ICAMEG_clean_sbu_1, # of connection points: 4
#     Node 2, Type 0, BuildingBlock: ICAMEG_clean_sbu_1, # of connection points: 4
#     Node 3, Type 0, BuildingBlock: ICAMEG_clean_sbu_1, # of connection points: 4
#     Node 4, Type 0, BuildingBlock: ICAMEG_clean_sbu_1, # of connection points: 4
#     Node 5, Type 0, BuildingBlock: ICAMEG_clean_sbu_1, # of connection points: 4
#     Node 6, Type 0, BuildingBlock: ICAMEG_clean_sbu_1, # of connection points: 4
#     Node 7, Type 0, BuildingBlock: ICAMEG_clean_sbu_1, # of connection points: 4
#     Node 8, Type 0, BuildingBlock: ICAMEG_clean_sbu_1, # of connection points: 4
#     Node 9, Type 0, BuildingBlock: ICAMEG_clean_sbu_1, # of connection points: 4
#     Node 10, Type 0, BuildingBlock: ICAMEG_clean_sbu_1, # of connection points: 4
#     Node 11, Type 0, BuildingBlock: ICAMEG_clean_sbu_1, # of connection points: 4
#     Node 12, Type 0, BuildingBlock: ICAMEG_clean_sbu_1, # of connection points: 4
#     Node 13, Type 0, BuildingBlock: ICAMEG_clean_sbu_1, # of connection points: 4
#     Node 14, Type 0, BuildingBlock: ICAMEG_clean_sbu_1, # of connection points: 4
#     Node 15, Type 0, BuildingBlock: ICAMEG_clean_sbu_1, # of connection points: 4
#     Edge 16, Type (0, 0), BuildingBlock: XIVTED_clean_linker_0, # of connection points: 2
#     Edge 17, Type (0, 0), BuildingBlock: XIVTED_clean_linker_0, # of connection points: 2
#     Edge 18, Type (0, 0), BuildingBlock: XIVTED_clean_linker_0, # of connection points: 2
#     Edge 19, Type (0, 0), BuildingBlock: XIVTED_clean_linker_0, # of connection points: 2
#     Edge 20, Type (0, 0), BuildingBlock: XIVTED_clean_linker_0, # of connection points: 2
#     Edge 21, Type (0, 0), BuildingBlock: XIVTED_clean_linker_0, # of connection points: 2
#     Edge 22, Type (0, 0), BuildingBlock: XIVTED_clean_linker_0, # of connection points: 2
#     Edge 23, Type (0, 0), BuildingBlock: XIVTED_clean_linker_0, # of connection points: 2
#     Edge 24, Type (0, 0), BuildingBlock: XIVTED_clean_linker_0, # of connection points: 2
#     Edge 25, Type (0, 0), BuildingBlock: XIVTED_clean_linker_0, # of connection points: 2
#     Edge 26, Type (0, 0), BuildingBlock: XIVTED_clean_linker_0, # of connection points: 2
#     Edge 27, Type (0, 0), BuildingBlock: XIVTED_clean_linker_0, # of connection points: 2
#     Edge 28, Type (0, 0), BuildingBlock: XIVTED_clean_linker_0, # of connection points: 2
#     Edge 29, Type (0, 0), BuildingBlock: XIVTED_clean_linker_0, # of connection points: 2
#     Edge 30, Type (0, 0), BuildingBlock: XIVTED_clean_linker_0, # of connection points: 2
#     Edge 31, Type (0, 0), BuildingBlock: XIVTED_clean_linker_0, # of connection points: 2
#     Edge 32, Type (0, 0), BuildingBlock: XIVTED_clean_linker_0, # of connection points: 2
#     Edge 33, Type (0, 0), BuildingBlock: XIVTED_clean_linker_0, # of connection points: 2
#     Edge 34, Type (0, 0), BuildingBlock: XIVTED_clean_linker_0, # of connection points: 2
#     Edge 35, Type (0, 0), BuildingBlock: XIVTED_clean_linker_0, # of connection points: 2
#     Edge 36, Type (0, 0), BuildingBlock: XIVTED_clean_linker_0, # of connection points: 2
#     Edge 37, Type (0, 0), BuildingBlock: XIVTED_clean_linker_0, # of connection points: 2
#     Edge 38, Type (0, 0), BuildingBlock: XIVTED_clean_linker_0, # of connection points: 2
#     Edge 39, Type (0, 0), BuildingBlock: XIVTED_clean_linker_0, # of connection points: 2
#     Edge 40, Type (0, 0), BuildingBlock: XIVTED_clean_linker_0, # of connection points: 2
#     Edge 41, Type (0, 0), BuildingBlock: XIVTED_clean_linker_0, # of connection points: 2
#     Edge 42, Type (0, 0), BuildingBlock: XIVTED_clean_linker_0, # of connection points: 2
#     Edge 43, Type (0, 0), BuildingBlock: XIVTED_clean_linker_0, # of connection points: 2
#     Edge 44, Type (0, 0), BuildingBlock: XIVTED_clean_linker_0, # of connection points: 2
#     Edge 45, Type (0, 0), BuildingBlock: XIVTED_clean_linker_0, # of connection points: 2
#     Edge 46, Type (0, 0), BuildingBlock: XIVTED_clean_linker_0, # of connection points: 2
#     Edge 47, Type (0, 0), BuildingBlock: XIVTED_clean_linker_0, # of connection points: 2
# Relax obj value: 0.289
# Max RMSD: 0.240
# Mean RMSD: 0.240
data_MOF--net-uoz--node1-ICAMEG_clean_sbu_1--edge1-XIVTED_clean_linker_0
_symmetry_space_group_name_H-M    P1
_symmetry_Int_Tables_number       1
_symmetry_cell_setting            triclinic
loop_
_symmetry_equiv_pos_as_xyz
'x, y, z'
_cell_length_a     62.229259
_cell_length_b     62.240618
_cell_length_c     23.157099
_cell_angle_alpha  89.972659
_cell_angle_beta   89.966012
_cell_angle_gamma 89.997005
loop_
_atom_site_label
_atom_site_type_symbol
_atom_site_fract_x
_atom_site_fract_y
_atom_site_fract_z
_atom_type_partial_charge
Co0 Co 1.00678 0.5855 0.19974 0.0
Co1 Co 0.01007 0.60361 0.34079 0.0
O2 O 1.00424 0.58113 0.28325 0.0
C3 C 0.96481 0.57123 0.15503 0.0
O4 O 0.96283 0.5906 0.13311 0.0
C5 C 0.02949 0.56181 0.38908 0.0
O6 O 0.03142 0.55436 0.33641 0.0
O7 O 0.03893 0.6104 0.30387 0.0
O8 O 0.03225 0.60439 0.20998 0.0
H9 H 0.03358 0.67693 0.40573 0.0
H10 H 1.00317 0.5404 0.24036 0.0
O11 O 0.98086 0.56679 0.18729 0.0
H12 H 0.0737 0.54486 0.14398 0.0
H13 H 1.00723 0.56197 0.99132 0.0
H14 H 0.01448 0.62332 0.12455 0.0
H15 H 0.0502 0.57665 0.14978 0.0
H16 H 1.00432 0.55665 0.09652 0.0
O17 O 0.0233 0.58132 0.39662 0.0
H18 H 0.02574 0.64849 0.33466 0.0
H19 H 1.00702 0.60614 0.46952 0.0
H20 H 0.01756 0.62935 0.01963 0.0
H21 H 0.02596 0.50809 0.23433 0.0
H22 H 0.0139 0.59853 0.95221 0.0
H23 H 0.06156 0.51022 0.18612 0.0
O24 O 0.98801 0.61115 0.20441 0.0
H25 H 0.95045 0.55609 0.41369 0.0
H26 H 0.97385 0.63087 0.38258 0.0
H27 H 0.93814 0.62383 0.42448 0.0
H28 H 0.92626 0.5862 0.44062 0.0
H29 H 0.98588 0.56384 0.37119 0.0
H30 H 0.01485 0.63404 0.54202 0.0
H31 H 0.02815 0.66978 0.51026 0.0
O32 O 0.99578 0.62624 0.28994 0.0
C33 C 0.04382 0.61223 0.25012 0.0
C34 C 0.02776 0.66144 0.4201 0.0
C35 C 0.01729 0.63735 0.4966 0.0
N36 N 0.0159 0.62569 0.39785 0.0
C37 C 0.02326 0.64528 0.38005 0.0
C38 C 0.01298 0.62158 0.45533 0.0
C39 C 0.02473 0.6574 0.47875 0.0
C40 C 0.01852 0.54142 0.2187 0.0
N41 N 0.02533 0.56045 0.19558 0.0
C42 C 0.03142 0.52309 0.21572 0.0
C43 C 0.05141 0.5243 0.18878 0.0
C44 C 0.05824 0.54374 0.16524 0.0
C45 C 0.04492 0.56175 0.16906 0.0
C46 C 0.00887 0.57552 0.02024 0.0
C47 C 0.01292 0.60982 0.09553 0.0
C48 C 1.00726 0.57261 0.07988 0.0
N49 N 0.00926 0.58966 0.11674 0.0
C50 C 0.01466 0.61333 0.03614 0.0
C51 C 0.01261 0.59604 0.99834 0.0
C52 C 0.98658 0.62655 0.24035 0.0
C53 C 0.95549 0.57256 0.40717 0.0
C54 C 0.9688 0.61445 0.38924 0.0
C55 C 0.94856 0.61056 0.41313 0.0
C56 C 0.94191 0.58946 0.42218 0.0
N57 N 0.98214 0.5978 0.37506 0.0
C58 C 0.97562 0.57706 0.38337 0.0
Co59 Co 0.67865 0.75895 0.46338 0.0
Co60 Co 0.65987 0.76111 0.60274 0.0
O61 O 0.68269 0.75612 0.5464 0.0
C62 C 0.69527 0.71787 0.41905 0.0
O63 O 0.67627 0.71507 0.39556 0.0
C64 C 0.69877 0.78524 0.65251 0.0
O65 O 0.70172 0.79525 0.60322 0.0
O66 O 0.65328 0.79037 0.56765 0.0
O67 O 0.65861 0.78354 0.47358 0.0
H68 H 0.5863 0.78383 0.66779 0.0
H69 H 0.72285 0.75801 0.51083 0.0
O70 O 0.6987 0.73412 0.4514 0.0
H71 H 0.71667 0.82779 0.41128 0.0
H72 H 0.70349 0.76119 0.25613 0.0
H73 H 0.64099 0.76515 0.38673 0.0
H74 H 0.68624 0.80243 0.41229 0.0
H75 H 0.70826 0.75822 0.36154 0.0
O76 O 0.68232 0.77309 0.65908 0.0
H77 H 0.61498 0.77674 0.59675 0.0
H78 H 0.65701 0.75692 0.73109 0.0
H79 H 0.63552 0.76827 0.2816 0.0
H80 H 0.75378 0.78278 0.51025 0.0
H81 H 0.66691 0.76627 0.21551 0.0
H82 H 0.75078 0.81798 0.46031 0.0
O83 O 0.65384 0.73894 0.46664 0.0
H84 H 0.70728 0.70094 0.67211 0.0
H85 H 0.63251 0.72442 0.64141 0.0
H86 H 0.63954 0.68824 0.68035 0.0
H87 H 0.67717 0.67632 0.69622 0.0
H88 H 0.69952 0.73687 0.63255 0.0
H89 H 0.62884 0.76396 0.80359 0.0
H90 H 0.59315 0.77744 0.77206 0.0
O91 O 0.63748 0.74736 0.55011 0.0
C92 C 0.65102 0.79519 0.51393 0.0
C93 C 0.60177 0.77792 0.68206 0.0
C94 C 0.62566 0.76681 0.75829 0.0
N95 N 0.63761 0.76635 0.6597 0.0
C96 C 0.61806 0.77383 0.64202 0.0
C97 C 0.64158 0.76293 0.71704 0.0
C98 C 0.60563 0.77435 0.74056 0.0
C99 C 0.72148 0.77321 0.48855 0.0
N100 N 0.70278 0.77871 0.46139 0.0
C101 C 0.73902 0.78721 0.48857 0.0
C102 C 0.73732 0.80697 0.46063 0.0
C103 C 0.71818 0.81249 0.43316 0.0
C104 C 0.70096 0.7981 0.43409 0.0
C105 C 0.68969 0.76211 0.28447 0.0
C106 C 0.65474 0.76432 0.35828 0.0
C107 C 0.69228 0.76046 0.3442 0.0
N108 N 0.67492 0.76157 0.38031 0.0
C109 C 0.65154 0.76608 0.29877 0.0
C110 C 0.66916 0.76496 0.26172 0.0
C111 C 0.63798 0.73757 0.50129 0.0
C112 C 0.69081 0.70596 0.66551 0.0
C113 C 0.64891 0.71931 0.64777 0.0
C114 C 0.6528 0.69882 0.67006 0.0
C115 C 0.67392 0.69215 0.67898 0.0
N116 N 0.66555 0.73282 0.63488 0.0
C117 C 0.6863 0.72633 0.64325 0.0
Co118 Co 0.5076 0.43294 0.68802 0.0
Co119 Co 0.50779 0.4166 0.83053 0.0
O120 O 0.51106 0.43883 0.77067 0.0
C121 C 0.55043 0.45461 0.68529 0.0
O122 O 0.55796 0.44174 0.72534 0.0
C123 C 0.48892 0.45828 0.882 0.0
O124 O 0.48774 0.46667 0.83018 0.0
O125 O 0.47856 0.40798 0.79874 0.0
O126 O 0.48416 0.41211 0.70371 0.0
H127 H 0.48974 0.34269 0.90315 0.0
H128 H 0.50742 0.47858 0.72455 0.0
O129 O 0.53102 0.45352 0.66854 0.0
H130 H 0.43661 0.46651 0.63482 0.0
H131 H 0.50375 0.45287 0.47741 0.0
H132 H 0.50136 0.39345 0.61821 0.0
H133 H 0.46308 0.43715 0.64086 0.0
H134 H 0.50736 0.46008 0.58161 0.0
O135 O 0.49453 0.4385 0.88763 0.0
H136 H 0.49443 0.37092 0.82944 0.0
H137 H 0.51392 0.41525 0.95863 0.0
H138 H 0.49752 0.38556 0.51441 0.0
H139 H 0.48157 0.50853 0.71847 0.0
H140 H 0.49871 0.41539 0.44319 0.0
H141 H 0.44583 0.50256 0.67357 0.0
O142 O 0.52888 0.40926 0.69229 0.0
H143 H 0.56686 0.46769 0.88773 0.0
H144 H 0.54611 0.39162 0.86874 0.0
H145 H 0.58239 0.40076 0.90328 0.0
H146 H 0.59296 0.43905 0.9133 0.0
H147 H 0.5309 0.45786 0.85264 0.0
H148 H 0.50923 0.38757 0.03375 0.0
H149 H 0.49715 0.35095 1.00616 0.0
O150 O 0.52213 0.39433 0.77873 0.0
C151 C 0.47331 0.40465 0.74576 0.0
C152 C 0.49504 0.35858 0.9157 0.0
C153 C 0.50594 0.38378 0.98901 0.0
N154 N 0.50446 0.39471 0.88963 0.0
C155 C 0.49776 0.37462 0.87414 0.0
C156 C 0.50846 0.39942 0.94628 0.0
C157 C 0.49918 0.36323 0.9735 0.0
C158 C 0.49195 0.47588 0.70461 0.0
N159 N 0.48673 0.45607 0.68351 0.0
C160 C 0.47735 0.49289 0.70147 0.0
C161 C 0.45729 0.48952 0.67635 0.0
C162 C 0.4521 0.46929 0.65471 0.0
C163 C 0.4671 0.45267 0.65865 0.0
C164 C 0.50316 0.43974 0.50802 0.0
C165 C 0.50177 0.40654 0.58754 0.0
C166 C 0.50522 0.44371 0.56711 0.0
N167 N 0.5044 0.42722 0.60607 0.0
C168 C 0.49964 0.40196 0.52879 0.0
C169 C 0.50032 0.41871 0.48885 0.0
C170 C 0.53117 0.39413 0.72889 0.0
C171 C 0.56239 0.45095 0.88401 0.0
C172 C 0.55053 0.40832 0.87295 0.0
C173 C 0.57112 0.41339 0.8926 0.0
C174 C 0.57704 0.43488 0.89822 0.0
N175 N 0.53613 0.42416 0.85964 0.0
C176 C 0.54193 0.44526 0.86453 0.0
Co177 Co 0.83857 0.25945 0.95943 0.0
Co178 Co 0.85717 0.25796 0.09924 0.0
O179 O 0.83453 0.26297 0.04232 0.0
C180 C 0.82343 0.30079 0.91302 0.0
O181 O 0.84284 0.30314 0.89167 0.0
C182 C 0.81852 0.23363 0.15067 0.0
O183 O 0.8162 0.22248 0.10295 0.0
O184 O 0.8635 0.22843 0.06558 0.0
O185 O 0.85792 0.23444 0.9712 0.0
H186 H 0.93027 0.23466 0.16646 0.0
H187 H 0.79446 0.26185 1.00704 0.0
O188 O 0.8192 0.28474 0.9455 0.0
H189 H 0.79874 0.19133 0.91079 0.0
H190 H 0.81399 0.25655 0.75213 0.0
H191 H 0.87615 0.25157 0.88347 0.0
H192 H 0.82982 0.21589 0.91038 0.0
H193 H 0.80916 0.26035 0.85732 0.0
O194 O 0.83441 0.24659 0.15574 0.0
H195 H 0.90187 0.24174 0.09466 0.0
H196 H 0.85975 0.26284 0.22744 0.0
H197 H 0.88169 0.24759 0.77856 0.0
H198 H 0.7629 0.23787 1.00798 0.0
H199 H 0.85047 0.2501 0.7121 0.0
H200 H 0.76494 0.20231 0.95966 0.0
O201 O 0.86395 0.27873 0.96179 0.0
H202 H 0.81038 0.31906 0.1657 0.0
H203 H 0.88491 0.29455 0.13644 0.0
H204 H 0.87825 0.33101 0.17385 0.0
H205 H 0.84074 0.34346 0.18899 0.0
H206 H 0.81777 0.28283 0.12768 0.0
H207 H 0.88762 0.25582 0.3007 0.0
H208 H 0.92321 0.24171 0.27034 0.0
O209 O 0.87988 0.27111 0.04638 0.0
C210 C 0.86553 0.2231 0.01215 0.0
C211 C 0.91484 0.24085 0.18023 0.0
C212 C 0.89089 0.25269 0.25558 0.0
N213 N 0.87921 0.25276 0.15678 0.0
C214 C 0.89871 0.24493 0.13975 0.0
C215 C 0.87514 0.25655 0.2139 0.0
C216 C 0.91086 0.24479 0.2385 0.0
C217 C 0.79541 0.24647 0.98551 0.0
N218 N 0.81393 0.24034 0.9584 0.0
C219 C 0.77752 0.23293 0.98637 0.0
C220 C 0.77868 0.21297 0.95934 0.0
C221 C 0.79765 0.20679 0.93195 0.0
C222 C 0.81523 0.22074 0.93203 0.0
C223 C 0.82772 0.25539 0.78064 0.0
C224 C 0.86247 0.25262 0.85486 0.0
C225 C 0.82509 0.25752 0.84025 0.0
N226 N 0.84236 0.25612 0.87657 0.0
C227 C 0.86571 0.25037 0.79548 0.0
C228 C 0.84819 0.25178 0.75822 0.0
C229 C 0.8797 0.28028 0.99667 0.0
C230 C 0.82679 0.31381 0.15942 0.0
C231 C 0.86856 0.29988 0.14251 0.0
C232 C 0.86488 0.32053 0.16391 0.0
C233 C 0.84383 0.3275 0.17242 0.0
N234 N 0.85177 0.28649 0.13008 0.0
C235 C 0.83109 0.29327 0.13804 0.0
Co236 Co 0.01334 0.42997 0.9175 0.0
Co237 Co 0.01302 0.41334 0.7752 0.0
O238 O 0.00957 0.43563 0.83482 0.0
C239 C 0.97054 0.45164 0.91731 0.0
O240 O 0.96409 0.44033 0.87278 0.0
C241 C 0.03217 0.45495 0.72461 0.0
O242 O 0.03458 0.46261 0.77692 0.0
O243 O 0.04241 0.40502 0.80673 0.0
O244 O 0.0372 0.40967 0.9017 0.0
H245 H 0.03169 0.33957 0.70298 0.0
H246 H 0.01235 0.47554 0.88049 0.0
O247 O 0.98947 0.44988 0.93724 0.0
H248 H 0.08363 0.46528 0.96916 0.0
H249 H 0.01717 0.45023 0.12784 0.0
H250 H 0.02054 0.39071 0.98763 0.0
H251 H 0.05787 0.43528 0.96383 0.0
H252 H 0.01324 0.45724 0.0236 0.0
O253 O 0.02593 0.43541 0.71803 0.0
H254 H 0.02681 0.3678 0.77653 0.0
H255 H 1.00681 0.41188 0.64716 0.0
H256 H 0.02469 0.38301 0.09148 0.0
H257 H 0.03747 0.50611 0.88591 0.0
H258 H 0.02302 0.41289 0.1624 0.0
H259 H 0.07345 0.50105 0.93025 0.0
O260 O 0.99252 0.40595 0.91388 0.0
H261 H 0.95381 0.46394 0.71595 0.0
H262 H 0.97476 0.38802 0.73817 0.0
H263 H 0.93843 0.39689 0.70334 0.0
H264 H 0.92777 0.4351 0.6917 0.0
H265 H 0.9898 0.45439 0.75149 0.0
H266 H 0.01166 0.38419 0.5722 0.0
H267 H 0.0241 0.3477 0.59996 0.0
O268 O 0.99887 0.39095 0.82734 0.0
C269 C 0.04798 0.40213 0.85966 0.0
C270 C 0.02623 0.3554 0.69035 0.0
C271 C 0.01503 0.38046 0.61694 0.0
N272 N 0.01649 0.39146 0.71624 0.0
C273 C 0.0234 0.37144 0.73182 0.0
C274 C 0.0124 0.3961 0.65958 0.0
C275 C 0.02199 0.35998 0.63255 0.0
C276 C 0.02791 0.47325 0.90025 0.0
N277 N 0.03367 0.45358 0.92141 0.0
C278 C 0.0421 0.4906 0.90299 0.0
C279 C 0.0623 0.48774 0.92779 0.0
C280 C 0.06803 0.46766 0.94951 0.0
C281 C 0.05343 0.45068 0.94597 0.0
C282 C 0.01799 0.43707 0.09736 0.0
C283 C 0.01993 0.40382 0.01817 0.0
C284 C 0.01575 0.44094 0.03825 0.0
N285 N 0.01685 0.42442 0.99945 0.0
C286 C 0.02223 0.39935 0.07695 0.0
C287 C 0.02127 0.41613 0.11671 0.0
C288 C 0.99006 0.39079 0.87753 0.0
C289 C 0.95832 0.44723 0.72044 0.0
C290 C 0.97027 0.40469 0.7334 0.0
C291 C 0.94966 0.40961 0.71353 0.0
C292 C 0.94369 0.43104 0.70698 0.0
N293 N 0.98461 0.42063 0.74612 0.0
C294 C 0.97879 0.44169 0.74019 0.0
Co295 Co 0.83993 0.7622 0.14855 0.0
Co296 Co 0.85637 0.7588 1.00671 0.0
O297 O 0.83447 0.75671 0.06696 0.0
C298 C 0.82411 0.72253 0.20332 0.0
O299 O 0.84351 0.72042 0.22485 0.0
C300 C 0.81844 0.78395 0.95372 0.0
O301 O 0.81725 0.79659 0.999 0.0
O302 O 0.86486 0.78865 0.03379 0.0
O303 O 0.85992 0.78611 0.12996 0.0
H304 H 0.92958 0.77545 0.92679 0.0
H305 H 0.79504 0.76033 0.10629 0.0
O306 O 0.81995 0.73803 0.16892 0.0
H307 H 0.80358 0.83304 0.18765 0.0
H308 H 0.81861 0.77128 0.35719 0.0
H309 H 0.87885 0.77077 0.21871 0.0
H310 H 0.83363 0.80723 0.18984 0.0
H311 H 0.81209 0.76486 0.25357 0.0
O312 O 0.83346 0.76992 0.95046 0.0
H313 H 0.90203 0.77224 1.00289 0.0
H314 H 0.85653 0.75029 0.87969 0.0
H315 H 0.88608 0.77733 0.32191 0.0
H316 H 0.76448 0.78557 0.10377 0.0
H317 H 0.85583 0.77759 0.39195 0.0
H318 H 0.76867 0.82223 0.14457 0.0
O319 O 0.86458 0.74191 0.14749 0.0
H320 H 0.80525 0.69898 0.95735 0.0
H321 H 0.88144 0.71965 0.97482 0.0
H322 H 0.87216 0.68273 0.94563 0.0
H323 H 0.83381 0.6722 0.93645 0.0
H324 H 0.81525 0.73565 0.98713 0.0
H325 H 0.88352 0.75344 0.80218 0.0
H326 H 0.92038 0.76602 0.82556 0.0
O327 O 0.87914 0.74595 0.05943 0.0
C328 C 0.8674 0.79561 0.08566 0.0
C329 C 0.91358 0.76993 0.91606 0.0
C330 C 0.88772 0.75761 0.84612 0.0
N331 N 0.8777 0.76107 0.94584 0.0
C332 C 0.89792 0.76806 0.959 0.0
C333 C 0.87247 0.75595 0.89018 0.0
C334 C 0.90841 0.76465 0.85927 0.0
C335 C 0.79692 0.77619 0.1246 0.0
N336 N 0.81605 0.78224 0.14852 0.0
C337 C 0.77959 0.79044 0.12285 0.0
C338 C 0.78196 0.81102 0.14566 0.0
C339 C 0.80154 0.8171 0.16981 0.0
C340 C 0.81852 0.80243 0.17077 0.0
C341 C 0.83192 0.77123 0.32709 0.0
C342 C 0.86559 0.77093 0.24889 0.0
C343 C 0.82833 0.76761 0.26838 0.0
N344 N 0.84507 0.76751 0.23009 0.0
C345 C 0.86979 0.77463 0.30729 0.0
C346 C 0.85281 0.77477 0.34656 0.0
C347 C 0.87953 0.73847 0.11105 0.0
C348 C 0.82202 0.70338 0.96106 0.0
C349 C 0.86473 0.71518 0.9713 0.0
C350 C 0.85956 0.69425 0.95455 0.0
C351 C 0.83805 0.68836 0.94939 0.0
N352 N 0.84893 0.72987 0.9824 0.0
C353 C 0.82779 0.72416 0.97775 0.0
Co354 Co 0.50635 0.58647 0.42061 0.0
Co355 Co 0.50648 0.60282 0.27812 0.0
O356 O 0.50993 0.58061 0.33796 0.0
C357 C 0.54933 0.56507 0.42293 0.0
O358 O 0.55663 0.57779 0.3822 0.0
C359 C 0.4881 0.56095 0.22658 0.0
O360 O 0.48698 0.55254 0.27839 0.0
O361 O 0.47711 0.61112 0.30982 0.0
O362 O 0.4827 0.60706 0.40484 0.0
H363 H 0.48772 0.67655 0.20559 0.0
H364 H 0.50663 0.54083 0.3841 0.0
O365 O 0.52997 0.56613 0.44018 0.0
H366 H 0.43569 0.55221 0.47397 0.0
H367 H 0.50266 0.56657 0.63128 0.0
H368 H 0.49973 0.62591 0.49032 0.0
H369 H 0.46187 0.58183 0.46783 0.0
H370 H 0.50631 0.55935 0.52707 0.0
O371 O 0.49349 0.5808 0.22097 0.0
H372 H 0.49264 0.64835 0.27926 0.0
H373 H 0.51268 0.60425 0.15002 0.0
H374 H 0.49585 0.63381 0.59413 0.0
H375 H 0.48107 0.51063 0.39025 0.0
H376 H 0.49731 0.60402 0.66542 0.0
H377 H 0.44527 0.51626 0.43523 0.0
O378 O 0.52743 0.6103 0.41633 0.0
H379 H 0.56611 0.55232 0.22099 0.0
H380 H 0.54456 0.62819 0.23985 0.0
H381 H 0.58095 0.61941 0.20534 0.0
H382 H 0.59192 0.58122 0.19538 0.0
H383 H 0.53004 0.56179 0.25608 0.0
H384 H 0.50776 0.63191 0.07494 0.0
H385 H 0.49528 0.66839 0.10258 0.0
O386 O 0.5206 0.62524 0.32997 0.0
C387 C 0.47176 0.61435 0.36277 0.0
C388 C 0.49319 0.66072 0.19302 0.0
C389 C 0.5044 0.63565 0.11968 0.0
N390 N 0.50297 0.62468 0.21904 0.0
C391 C 0.49605 0.6447 0.23456 0.0
C392 C 0.50706 0.62003 0.16239 0.0
C393 C 0.49742 0.65613 0.13522 0.0
C394 C 0.49113 0.54338 0.40405 0.0
N395 N 0.4857 0.56314 0.42514 0.0
C396 C 0.4767 0.52623 0.40724 0.0
C397 C 0.4566 0.5294 0.43241 0.0
C398 C 0.45121 0.54958 0.45404 0.0
C399 C 0.46604 0.56635 0.45005 0.0
C400 C 0.50194 0.57968 0.60063 0.0
C401 C 0.50025 0.61283 0.52103 0.0
C402 C 0.50403 0.5757 0.54154 0.0
N403 N 0.50306 0.59218 0.50254 0.0
C404 C 0.4981 0.61742 0.57978 0.0
C405 C 0.49894 0.6007 0.61976 0.0
C406 C 0.52966 0.62546 0.37978 0.0
C407 C 0.56146 0.56902 0.22469 0.0
C408 C 0.54916 0.61153 0.23569 0.0
C409 C 0.56981 0.60666 0.21605 0.0
C410 C 0.57596 0.58524 0.21046 0.0
N411 N 0.53492 0.59555 0.24904 0.0
C412 C 0.54094 0.57451 0.24417 0.0
Co413 Co 0.67999 0.26055 0.64682 0.0
Co414 Co 0.66132 0.25811 0.50735 0.0
O415 O 0.6841 0.26334 0.56371 0.0
C416 C 0.69608 0.30177 0.69129 0.0
O417 O 0.67692 0.30439 0.714 0.0
C418 C 0.70037 0.23417 0.45656 0.0
O419 O 0.70359 0.224 0.50548 0.0
O420 O 0.65499 0.22883 0.54263 0.0
O421 O 0.66014 0.23582 0.63666 0.0
H422 H 0.58797 0.23465 0.44268 0.0
H423 H 0.72422 0.26177 0.59959 0.0
O424 O 0.69984 0.28556 0.65903 0.0
H425 H 0.71843 0.192 0.69934 0.0
H426 H 0.70457 0.25856 0.85424 0.0
H427 H 0.64227 0.25416 0.72325 0.0
H428 H 0.68782 0.21714 0.69809 0.0
H429 H 0.70946 0.2615 0.74886 0.0
O430 O 0.68385 0.24631 0.45087 0.0
H431 H 0.61658 0.24209 0.51356 0.0
H432 H 0.65841 0.26219 0.37893 0.0
H433 H 0.63667 0.25107 0.82836 0.0
H434 H 0.75533 0.23722 0.60038 0.0
H435 H 0.66796 0.25328 0.89464 0.0
H436 H 0.75253 0.20202 0.65044 0.0
O437 O 0.65504 0.28035 0.64327 0.0
H438 H 0.70823 0.31863 0.43758 0.0
H439 H 0.63365 0.2945 0.46822 0.0
H440 H 0.64039 0.33069 0.42893 0.0
H441 H 0.67792 0.34294 0.41308 0.0
H442 H 0.70077 0.28269 0.4775 0.0
H443 H 0.63031 0.2548 0.30659 0.0
H444 H 0.59475 0.24102 0.33835 0.0
O445 O 0.63879 0.27173 0.55986 0.0
C446 C 0.65267 0.22407 0.59639 0.0
C447 C 0.60338 0.2407 0.42832 0.0
C448 C 0.62716 0.25197 0.35193 0.0
N449 N 0.63911 0.25263 0.45047 0.0
C450 C 0.61963 0.24498 0.46826 0.0
C451 C 0.64304 0.25604 0.39309 0.0
C452 C 0.6072 0.24425 0.36978 0.0
C453 C 0.72294 0.24657 0.62191 0.0
N454 N 0.70426 0.24096 0.64903 0.0
C455 C 0.74058 0.23269 0.62201 0.0
C456 C 0.73899 0.21293 0.65002 0.0
C457 C 0.71986 0.20729 0.67742 0.0
C458 C 0.70254 0.22157 0.67637 0.0
C459 C 0.69081 0.25753 0.82581 0.0
C460 C 0.65598 0.25509 0.75179 0.0
C461 C 0.69347 0.25917 0.7661 0.0
N462 N 0.67616 0.25794 0.72988 0.0
C463 C 0.6527 0.25334 0.81128 0.0
C464 C 0.67026 0.25459 0.84844 0.0
C465 C 0.63921 0.28159 0.60857 0.0
C466 C 0.6918 0.31346 0.44419 0.0
C467 C 0.65001 0.29976 0.4619 0.0
C468 C 0.65374 0.32024 0.43941 0.0
C469 C 0.67479 0.3271 0.4305 0.0
N470 N 0.66677 0.28642 0.47501 0.0
C471 C 0.68746 0.29309 0.46666 0.0
Co472 Co 0.33827 0.25817 0.66676 0.0
Co473 Co 0.35458 0.25886 0.52437 0.0
O474 O 0.33236 0.25514 0.58404 0.0
C475 C 0.31633 0.21555 0.66562 0.0
O476 O 0.32851 0.20877 0.62309 0.0
C477 C 0.31311 0.27877 0.47549 0.0
O478 O 0.30582 0.28136 0.52813 0.0
O479 O 0.36291 0.288 0.55724 0.0
O480 O 0.35899 0.2818 0.65205 0.0
H481 H 0.42829 0.27792 0.45222 0.0
H482 H 0.2926 0.25841 0.63044 0.0
O483 O 0.31787 0.23456 0.68517 0.0
H484 H 0.30447 0.32866 0.72345 0.0
H485 H 0.31845 0.26051 0.87761 0.0
H486 H 0.37779 0.26405 0.73667 0.0
H487 H 0.33394 0.30236 0.71594 0.0
H488 H 0.31119 0.25763 0.77327 0.0
O489 O 0.33247 0.27212 0.46805 0.0
H490 H 0.40012 0.27261 0.52584 0.0
H491 H 0.3559 0.2534 0.39606 0.0
H492 H 0.38574 0.26715 0.84062 0.0
H493 H 0.26254 0.28408 0.63801 0.0
H494 H 0.35595 0.26539 0.91191 0.0
H495 H 0.26841 0.31954 0.68456 0.0
O496 O 0.36193 0.23697 0.66142 0.0
H497 H 0.30371 0.20015 0.46365 0.0
H498 H 0.37975 0.22077 0.48513 0.0
H499 H 0.37071 0.18466 0.44906 0.0
H500 H 0.33243 0.17416 0.43781 0.0
H501 H 0.31346 0.23594 0.50031 0.0
H502 H 0.38353 0.25869 0.32104 0.0
H503 H 0.42005 0.27095 0.34896 0.0
O504 O 0.37702 0.24434 0.57556 0.0
C505 C 0.36621 0.29302 0.61039 0.0
C506 C 0.41244 0.27254 0.43952 0.0
C507 C 0.38731 0.26178 0.36588 0.0
N508 N 0.3764 0.26266 0.46534 0.0
C509 C 0.39644 0.26947 0.48102 0.0
C510 C 0.3717 0.25891 0.40856 0.0
C511 C 0.40781 0.26864 0.38159 0.0
C512 C 0.29524 0.27374 0.65115 0.0
N513 N 0.31506 0.27892 0.67233 0.0
C514 C 0.27818 0.28825 0.65511 0.0
C515 C 0.28149 0.30815 0.68114 0.0
C516 C 0.30173 0.31329 0.70286 0.0
C517 C 0.31841 0.29839 0.69809 0.0
C518 C 0.33157 0.26137 0.84697 0.0
C519 C 0.36471 0.26341 0.76737 0.0
C520 C 0.32756 0.25972 0.7878 0.0
N521 N 0.34403 0.26087 0.74881 0.0
C522 C 0.36933 0.26511 0.82621 0.0
C523 C 0.35261 0.2641 0.86618 0.0
C524 C 0.3771 0.23489 0.62489 0.0
C525 C 0.32045 0.20458 0.46799 0.0
C526 C 0.36307 0.21635 0.48052 0.0
C527 C 0.35804 0.19587 0.45995 0.0
C528 C 0.33657 0.18999 0.45363 0.0
N529 N 0.34718 0.23066 0.49414 0.0
C530 C 0.32609 0.22493 0.48841 0.0
Co531 Co 0.18017 0.75698 0.1646 0.0
Co532 Co 0.16317 0.75583 0.023 0.0
O533 O 0.18566 0.75983 0.08168 0.0
C534 C 0.20174 0.7998 0.16261 0.0
O535 O 0.18888 0.80671 0.12173 0.0
C536 C 0.20449 0.73591 0.97342 0.0
O537 O 0.21165 0.7329 0.02601 0.0
O538 O 0.15517 0.72666 0.05663 0.0
O539 O 0.15948 0.73323 0.15111 0.0
H540 H 0.08925 0.7362 0.95375 0.0
H541 H 0.22565 0.75682 0.12637 0.0
O542 O 0.20062 0.7807 0.18168 0.0
H543 H 0.21459 0.68682 0.22163 0.0
H544 H 0.201 0.75528 0.37475 0.0
H545 H 0.14103 0.75108 0.23609 0.0
H546 H 0.18498 0.71297 0.21472 0.0
H547 H 0.20776 0.75793 0.27008 0.0
O548 O 0.18518 0.74271 0.96612 0.0
H549 H 0.11772 0.74177 0.02628 0.0
H550 H 0.16123 0.76106 0.8947 0.0
H551 H 0.13358 0.74818 0.34039 0.0
H552 H 0.25585 0.7313 0.13332 0.0
H553 H 0.16369 0.75028 0.41053 0.0
H554 H 0.25039 0.69596 0.18098 0.0
O555 O 0.1564 0.77808 0.15973 0.0
H556 H 0.21326 0.81483 0.95949 0.0
H557 H 0.13749 0.7937 0.98458 0.0
H558 H 0.14608 0.82984 0.94779 0.0
H559 H 0.18421 0.84059 0.93474 0.0
H560 H 0.20398 0.77899 0.99685 0.0
H561 H 0.13331 0.7555 0.82074 0.0
H562 H 0.09698 0.74307 0.85012 0.0
O563 O 0.14085 0.77022 0.07486 0.0
C564 C 0.15212 0.72183 0.11004 0.0
C565 C 0.10501 0.74165 0.94041 0.0
C566 C 0.12975 0.75245 0.86575 0.0
N567 N 0.1411 0.75177 0.96482 0.0
C568 C 0.12118 0.74487 0.9813 0.0
C569 C 0.14553 0.75547 0.90784 0.0
C570 C 0.10936 0.74549 0.88227 0.0
C571 C 0.22318 0.74154 0.14758 0.0
N572 N 0.2035 0.73635 0.1697 0.0
C573 C 0.24033 0.72712 0.15118 0.0
C574 C 0.23725 0.70729 0.17784 0.0
C575 C 0.21715 0.70213 0.20053 0.0
C576 C 0.20038 0.71694 0.1961 0.0
C577 C 0.18775 0.75428 0.34461 0.0
C578 C 0.15424 0.75186 0.2663 0.0
C579 C 0.19147 0.7558 0.28527 0.0
N580 N 0.17482 0.75446 0.24692 0.0
C581 C 0.14991 0.75027 0.32533 0.0
C582 C 0.16681 0.75147 0.36466 0.0
C583 C 0.14099 0.7799 0.12386 0.0
C584 C 0.19658 0.81028 0.96462 0.0
C585 C 0.15412 0.79823 0.97915 0.0
C586 C 0.15889 0.81873 0.95819 0.0
C587 C 0.18028 0.82475 0.95086 0.0
N588 N 0.17018 0.78404 0.99216 0.0
C589 C 0.1912 0.78992 0.98545 0.0
Co590 Co 0.18281 0.25601 0.94854 0.0
Co591 Co 0.16537 0.25913 0.0903 0.0
O592 O 0.18757 0.25327 0.03189 0.0
C593 C 0.19659 0.21401 0.90288 0.0
O594 O 0.17703 0.21214 0.88219 0.0
C595 C 0.20743 0.2782 0.13755 0.0
O596 O 0.2146 0.28037 0.08464 0.0
O597 O 0.1587 0.28811 0.05413 0.0
O598 O 0.16408 0.28155 0.9599 0.0
H599 H 0.09252 0.28315 0.15794 0.0
H600 H 0.22807 0.25216 0.98761 0.0
O601 O 0.20137 0.23004 0.93488 0.0
H602 H 0.22346 0.32287 0.89236 0.0
H603 H 0.20536 0.25676 0.73928 0.0
H604 H 0.14465 0.264 0.87488 0.0
H605 H 0.19161 0.29948 0.89884 0.0
H606 H 0.21116 0.25363 0.84424 0.0
O607 O 0.18797 0.27202 0.14569 0.0
H608 H 0.12061 0.27522 0.08586 0.0
H609 H 0.16331 0.25576 0.21906 0.0
H610 H 0.13815 0.2673 0.77023 0.0
H611 H 0.26043 0.27486 0.98092 0.0
H612 H 0.16863 0.26365 0.70163 0.0
H613 H 0.25823 0.31055 0.93326 0.0
O614 O 0.15709 0.23736 0.95389 0.0
H615 H 0.21275 0.19898 0.16047 0.0
H616 H 0.13801 0.22304 0.13254 0.0
H617 H 0.14496 0.18717 0.17352 0.0
H618 H 0.18257 0.17496 0.18806 0.0
H619 H 0.20508 0.23457 0.11889 0.0
H620 H 0.13575 0.26366 0.29256 0.0
H621 H 0.10002 0.27739 0.26214 0.0
O622 O 0.14243 0.24515 0.03998 0.0
C623 C 0.15657 0.29311 1.00053 0.0
C624 C 0.10801 0.27715 0.17173 0.0
C625 C 0.13229 0.26625 0.24729 0.0
N626 N 0.14357 0.26499 0.14816 0.0
C627 C 0.12397 0.27259 0.1311 0.0
C628 C 0.14787 0.26189 0.20546 0.0
C629 C 0.11224 0.27393 0.23019 0.0
C630 C 0.22702 0.26755 0.9662 0.0
N631 N 0.20792 0.27446 0.94375 0.0
C632 C 0.24538 0.2804 0.96284 0.0
C633 C 0.24412 0.30044 0.93621 0.0
C634 C 0.22461 0.30738 0.91336 0.0
C635 C 0.20657 0.29411 0.91755 0.0
C636 C 0.19194 0.25841 0.76873 0.0
C637 C 0.15802 0.26244 0.84534 0.0
C638 C 0.19513 0.25667 0.82823 0.0
N639 N 0.17826 0.25868 0.86575 0.0
C640 C 0.15423 0.26431 0.78611 0.0
C641 C 0.17133 0.26226 0.74764 0.0
C642 C 0.14183 0.23601 0.99033 0.0
C643 C 0.19629 0.20416 0.15463 0.0
C644 C 0.15442 0.21784 0.13847 0.0
C645 C 0.15825 0.19752 0.16185 0.0
C646 C 0.17935 0.19068 0.17002 0.0
N647 N 0.1711 0.23107 0.12389 0.0
C648 C 0.19183 0.22438 0.13134 0.0
Co649 Co 0.33563 0.75973 0.44703 0.0
Co650 Co 0.35275 0.75722 0.58913 0.0
O651 O 0.33063 0.76266 0.53024 0.0
C652 C 0.32151 0.80144 0.40017 0.0
O653 O 0.34109 0.80344 0.37964 0.0
C654 C 0.31075 0.73786 0.63631 0.0
O655 O 0.30367 0.73561 0.58336 0.0
O656 O 0.35984 0.72821 0.55373 0.0
O657 O 0.35461 0.73443 0.45926 0.0
H658 H 0.4257 0.73422 0.65835 0.0
H659 H 0.29023 0.7632 0.48532 0.0
O660 O 0.31681 0.78545 0.43247 0.0
H661 H 0.29585 0.69226 0.39183 0.0
H662 H 0.31363 0.75812 0.23746 0.0
H663 H 0.37406 0.75195 0.37414 0.0
H664 H 0.32743 0.71602 0.39823 0.0
H665 H 0.30752 0.76149 0.34225 0.0
O666 O 0.33016 0.74421 0.64453 0.0
H667 H 0.3977 0.74164 0.58569 0.0
H668 H 0.35446 0.76097 0.71783 0.0
H669 H 0.38087 0.74842 0.26968 0.0
H670 H 0.25813 0.74013 0.47868 0.0
H671 H 0.35053 0.75152 0.20052 0.0
H672 H 0.26085 0.70432 0.43191 0.0
O673 O 0.36113 0.77868 0.45231 0.0
H674 H 0.30453 0.81703 0.65724 0.0
H675 H 0.3796 0.79374 0.63083 0.0
H676 H 0.37215 0.82964 0.6709 0.0
H677 H 0.33438 0.84147 0.68467 0.0
H678 H 0.31269 0.78141 0.61659 0.0
H679 H 0.38192 0.75358 0.79191 0.0
H680 H 0.41788 0.74019 0.76231 0.0
O681 O 0.37566 0.77132 0.53879 0.0
C682 C 0.36214 0.72307 0.50029 0.0
C683 C 0.4101 0.74008 0.67178 0.0
C684 C 0.38552 0.75091 0.74674 0.0
N685 N 0.37448 0.75177 0.64743 0.0
C686 C 0.3942 0.74435 0.63083 0.0
C687 C 0.37 0.75498 0.70459 0.0
C688 C 0.4057 0.74342 0.73011 0.0
C689 C 0.29151 0.74775 0.46429 0.0
N690 N 0.31073 0.74099 0.44231 0.0
C691 C 0.27329 0.7347 0.46096 0.0
C692 C 0.27483 0.7146 0.43483 0.0
C693 C 0.29448 0.70781 0.41244 0.0
C694 C 0.31236 0.72128 0.41659 0.0
C695 C 0.32698 0.7567 0.26715 0.0
C696 C 0.36076 0.75327 0.34436 0.0
C697 C 0.32362 0.75858 0.32656 0.0
N698 N 0.34041 0.75687 0.36438 0.0
C699 C 0.36472 0.75127 0.28524 0.0
C700 C 0.34769 0.75301 0.24646 0.0
C701 C 0.37628 0.78033 0.48893 0.0
C702 C 0.32106 0.81202 0.65174 0.0
C703 C 0.36312 0.79876 0.63645 0.0
C704 C 0.359 0.81911 0.65931 0.0
C705 C 0.33781 0.82573 0.66704 0.0
N706 N 0.34662 0.7853 0.62197 0.0
C707 C 0.3258 0.79178 0.62899 0.0
Co708 Co 0.51224 0.08511 0.69069 0.0
Co709 Co 0.51311 0.10168 0.83296 0.0
O710 O 0.50932 0.07939 0.77355 0.0
C711 C 0.46953 0.06332 0.69294 0.0
O712 O 0.46305 0.07518 0.73643 0.0
C713 C 0.53294 0.06016 0.88208 0.0
O714 O 0.53526 0.05273 0.82951 0.0
O715 O 0.54214 0.11029 0.79934 0.0
O716 O 0.53598 0.1057 0.70477 0.0
H717 H 0.53183 0.17556 0.90414 0.0
H718 H 0.51215 0.03952 0.72771 0.0
O719 O 0.48845 0.06488 0.67278 0.0
H720 H 0.58243 0.05063 0.63394 0.0
H721 H 0.51435 0.06485 0.48017 0.0
H722 H 0.5183 0.12444 0.62004 0.0
H723 H 0.55638 0.08032 0.64116 0.0
H724 H 0.51145 0.05782 0.58465 0.0
O725 O 0.52661 0.07964 0.8893 0.0
H726 H 0.5265 0.14733 0.83085 0.0
H727 H 0.50801 0.10305 0.9614 0.0
H728 H 0.52142 0.13216 0.51593 0.0
H729 H 0.53757 0.00924 0.72043 0.0
H730 H 0.51945 0.10224 0.44518 0.0
H731 H 0.57306 0.01473 0.67351 0.0
O732 O 0.49119 0.1089 0.69586 0.0
H733 H 0.45472 0.05058 0.89511 0.0
H734 H 0.47503 0.12667 0.87298 0.0
H735 H 0.43905 0.1175 0.90994 0.0
H736 H 0.42872 0.0792 0.92154 0.0
H737 H 0.49036 0.06044 0.85753 0.0
H738 H 0.51333 0.13074 0.03609 0.0
H739 H 0.52523 0.16734 1.00762 0.0
O740 O 0.49832 0.12397 0.78187 0.0
C741 C 0.54711 0.11333 0.74598 0.0
C742 C 0.52661 0.15969 0.91708 0.0
C743 C 0.51626 0.13452 0.99115 0.0
N744 N 0.51693 0.12357 0.89175 0.0
C745 C 0.52353 0.14364 0.87576 0.0
C746 C 0.51337 0.11887 0.94865 0.0
C747 C 0.52292 0.15505 0.97514 0.0
C748 C 0.52749 0.042 0.70683 0.0
N749 N 0.53282 0.06173 0.6853 0.0
C750 C 0.54186 0.02481 0.70304 0.0
C751 C 0.56177 0.02791 0.6768 0.0
C752 C 0.56706 0.04806 0.6547 0.0
C753 C 0.55229 0.06487 0.65932 0.0
C754 C 0.51529 0.07802 0.51057 0.0
C755 C 0.51756 0.11131 0.58957 0.0
C756 C 0.51363 0.07414 0.56982 0.0
N757 N 0.5149 0.09068 0.60851 0.0
C758 C 0.51928 0.11579 0.53065 0.0
C759 C 0.51815 0.099 0.49097 0.0
C760 C 0.48897 0.12403 0.73243 0.0
C761 C 0.45909 0.06733 0.89065 0.0
C762 C 0.47068 0.10997 0.87775 0.0
C763 C 0.45027 0.10488 0.89883 0.0
C764 C 0.44449 0.08339 0.90534 0.0
N765 N 0.48501 0.09414 0.86385 0.0
C766 C 0.47936 0.07303 0.86973 0.0
Co767 Co 1.00204 0.92563 0.19671 0.0
Co768 Co 1.00667 0.91328 0.34204 0.0
O769 O 1.00724 0.9339 0.27745 0.0
C770 C 0.04333 0.9496 0.18745 0.0
O771 O 0.05056 0.94052 0.23473 0.0
C772 C 0.98704 0.95535 0.38944 0.0
O773 O 0.98524 0.96285 0.33676 0.0
O774 O 0.97738 0.90227 0.31708 0.0
O775 O 0.97963 0.90476 0.22036 0.0
H776 H 0.99499 0.84064 0.43134 0.0
H777 H 1.00121 0.97211 0.22439 0.0
O778 O 0.02442 0.94602 0.16916 0.0
H779 H 0.92877 0.95549 0.15068 0.0
H780 H 0.99262 0.93951 0.9839 0.0
H781 H 0.99529 0.88417 0.1362 0.0
H782 H 0.95639 0.92721 0.15691 0.0
H783 H 0.9985 0.9497 0.08554 0.0
O784 O 0.99329 0.93585 0.39708 0.0
H785 H 0.99621 0.86701 0.35187 0.0
H786 H 0.01561 0.91585 0.46882 0.0
H787 H 0.98922 0.87329 0.03514 0.0
H788 H 0.97416 1.00098 0.21793 0.0
H789 H 0.98785 0.90107 0.95816 0.0
H790 H 0.9376 0.99272 0.1811 0.0
O791 O 0.02421 0.90283 0.20156 0.0
H792 H 0.06368 0.96897 0.38107 0.0
H793 H 0.0472 0.89154 0.37779 0.0
H794 H 0.08351 0.90353 0.40504 0.0
H795 H 0.09193 0.94252 0.40721 0.0
H796 H 0.02778 0.9563 0.35304 0.0
H797 H 0.01436 0.89008 0.5496 0.0
H798 H 1.00409 0.85214 0.53108 0.0
O799 O 0.0212 0.89047 0.2923 0.0
C800 C 0.97051 0.89807 0.266 0.0
C801 C 0.99951 0.85712 0.43996 0.0
C802 C 0.01034 0.88488 0.50634 0.0
N803 N 1.00599 0.89294 0.4056 0.0
C804 C 1.00026 0.87212 0.39511 0.0
C805 C 0.01091 0.89943 0.46043 0.0
C806 C 1.0046 0.86359 0.49591 0.0
C807 C 0.98538 0.96842 0.20793 0.0
N808 N 0.98037 0.94797 0.19143 0.0
C809 C 0.97011 0.98482 0.20455 0.0
C810 C 0.9496 0.98017 0.18396 0.0
C811 C 0.94462 0.95928 0.16698 0.0
C812 C 0.9603 0.94329 0.17097 0.0
C813 C 0.99313 0.92726 0.01706 0.0
C814 C 0.99458 0.89637 0.10301 0.0
C815 C 0.99649 0.93293 0.07471 0.0
N816 N 0.99707 0.91756 0.11687 0.0
C817 C 0.9912 0.8901 0.04583 0.0
C818 C 0.99046 0.90569 1.00266 0.0
C819 C 0.02865 0.88916 0.24071 0.0
C820 C 0.06016 0.95194 0.38085 0.0
C821 C 0.05069 0.90853 0.37853 0.0
C822 C 0.0713 0.91523 0.3941 0.0
C823 C 0.07602 0.9371 0.39534 0.0
N824 N 0.0351 0.92317 0.36492 0.0
C825 C 0.03971 0.94465 0.36551 0.0
Co826 Co 0.50732 0.93052 0.40902 0.0
Co827 Co 0.51117 0.91254 0.26789 0.0
O828 O 0.50509 0.93497 0.32546 0.0
C829 C 0.46514 0.94461 0.45276 0.0
O830 O 0.4631 0.92517 0.47411 0.0
C831 C 0.53078 0.9544 0.22052 0.0
O832 O 0.53279 0.9616 0.27341 0.0
O833 O 0.53991 0.90574 0.30552 0.0
O834 O 0.53286 0.91166 0.39926 0.0
H835 H 0.53505 0.83932 0.20315 0.0
H836 H 0.50382 0.97563 0.36853 0.0
O837 O 0.48133 0.94919 0.42105 0.0
H838 H 0.57396 0.97119 0.46673 0.0
H839 H 0.5069 0.95383 0.61762 0.0
H840 H 0.51473 0.89261 0.48411 0.0
H841 H 0.55053 0.93938 0.46017 0.0
H842 H 0.50444 0.95926 0.51238 0.0
O843 O 0.52454 0.93494 0.21247 0.0
H844 H 0.52686 0.86768 0.27416 0.0
H845 H 0.50866 0.91012 0.13905 0.0
H846 H 0.51735 0.88648 0.58907 0.0
H847 H 0.52656 1.00796 0.37527 0.0
H848 H 0.51341 0.91722 0.65662 0.0
H849 H 0.56196 1.00584 0.42441 0.0
O850 O 0.4886 0.90487 0.40368 0.0
H851 H 0.45176 0.96009 0.19404 0.0
H852 H 0.47519 0.8853 0.22471 0.0
H853 H 0.43963 0.89235 0.182 0.0
H854 H 0.42774 0.92999 0.16607 0.0
H855 H 0.48704 0.95233 0.23734 0.0
H856 H 0.51683 0.88229 0.06659 0.0
H857 H 0.53005 0.84655 0.09851 0.0
O858 O 0.49666 0.88986 0.31821 0.0
C859 C 0.5446 0.90386 0.35939 0.0
C860 C 0.52927 0.85482 0.1887 0.0
C861 C 0.51908 0.87894 0.11206 0.0
N862 N 0.51725 0.89053 0.21084 0.0
C863 C 0.52457 0.87093 0.22872 0.0
C864 C 0.51457 0.89468 0.15331 0.0
C865 C 0.52648 0.85889 0.13 0.0
C866 C 0.51909 0.97462 0.39058 0.0
N867 N 0.52582 0.95559 0.41381 0.0
C868 C 0.53195 0.99296 0.39396 0.0
C869 C 0.55183 0.99175 0.42143 0.0
C870 C 0.55859 0.9723 0.44507 0.0
C871 C 0.54531 0.95428 0.44083 0.0
C872 C 0.50867 0.9403 0.58863 0.0
C873 C 0.51304 0.90609 0.5132 0.0
C874 C 0.50732 0.94328 0.52898 0.0
N875 N 0.50948 0.92627 0.49204 0.0
C876 C 0.51453 0.90251 0.5726 0.0
C877 C 0.51232 0.91976 0.61048 0.0
C878 C 0.48726 0.88951 0.36758 0.0
C879 C 0.45681 0.94362 0.20047 0.0
C880 C 0.47013 0.90172 0.21818 0.0
C881 C 0.44998 0.90562 0.19382 0.0
C882 C 0.44332 0.92673 0.18488 0.0
N883 N 0.48337 0.91836 0.23296 0.0
C884 C 0.47685 0.93911 0.22474 0.0
Co885 Co 0.00934 0.08719 0.91063 0.0
Co886 Co 1.00579 0.10523 0.76981 0.0
O887 O 0.01149 0.08267 0.82718 0.0
C888 C 0.05107 0.07161 0.95396 0.0
O889 O 0.0538 0.09085 0.97604 0.0
C890 C 0.98623 0.06352 0.72173 0.0
O891 O 0.984 0.05622 0.77448 0.0
O892 O 0.97701 0.11213 0.80708 0.0
O893 O 0.98434 0.10678 0.9009 0.0
H894 H 0.98256 0.17871 0.70536 0.0
H895 H 0.01145 0.04195 0.87036 0.0
O896 O 0.03471 0.06775 0.92234 0.0
H897 H 0.94147 0.0486 0.96871 0.0
H898 H 0.00919 0.06388 0.11928 0.0
H899 H 1.00304 0.12529 0.98564 0.0
H900 H 0.96589 0.07965 0.96204 0.0
H901 H 0.01142 0.05837 0.01404 0.0
O902 O 0.99247 0.083 0.714 0.0
H903 H 0.99037 0.15018 0.77624 0.0
H904 H 0.00868 0.10785 0.64104 0.0
H905 H 1.00066 0.1315 0.0906 0.0
H906 H 0.98771 0.01036 0.87724 0.0
H907 H 1.00376 0.10067 0.15822 0.0
H908 H 0.95238 0.01359 0.92643 0.0
O909 O 0.02882 0.11224 0.90511 0.0
H910 H 0.06517 0.05744 0.69682 0.0
H911 H 0.04203 0.13232 0.72728 0.0
H912 H 0.07767 0.12512 0.68514 0.0
H913 H 0.08942 0.08744 0.66931 0.0
H914 H 0.02983 0.06534 0.73958 0.0
H915 H 1.00088 0.13585 0.56871 0.0
H916 H 0.9878 0.17162 0.60074 0.0
O917 O 0.02031 0.12775 0.8206 0.0
C918 C 0.97252 0.11441 0.86097 0.0
C919 C 0.98828 0.1632 0.69087 0.0
C920 C 0.99853 0.13914 0.61417 0.0
N921 N 1.00002 0.12738 0.71287 0.0
C922 C 0.99277 0.147 0.73081 0.0
C923 C 1.00283 0.1233 0.65534 0.0
C924 C 0.99121 0.15921 0.63218 0.0
C925 C 0.99622 0.04345 0.89245 0.0
N926 N 0.99008 0.06269 0.91559 0.0
C927 C 0.98278 0.02552 0.89591 0.0
C928 C 0.96295 0.02736 0.9234 0.0
C929 C 0.9568 0.04701 0.94701 0.0
C930 C 0.97064 0.0646 0.9427 0.0
C931 C 1.00778 0.07745 0.09027 0.0
C932 C 1.00435 0.11177 0.01476 0.0
C933 C 0.00902 0.07443 0.03061 0.0
N934 N 1.00733 0.09149 0.99364 0.0
C935 C 1.00301 0.1154 0.07416 0.0
C936 C 1.00475 0.09809 0.11208 0.0
C937 C 0.03006 0.12776 0.86948 0.0
C938 C 0.06019 0.07393 0.70321 0.0
C939 C 0.04703 0.11588 0.72079 0.0
C940 C 0.06723 0.1119 0.69675 0.0
C941 C 0.07381 0.09077 0.68787 0.0
N942 N 0.03366 0.09929 0.73531 0.0
C943 C 0.04011 0.07852 0.72717 0.0
H944 H 0.14635 0.70649 0.21966 0.0
H945 H 0.05965 0.61656 0.14011 0.0
H946 H 0.12626 0.69421 0.04426 0.0
H947 H 0.07081 0.63896 0.31396 0.0
H948 H 0.08685 0.64138 0.10486 0.0
H949 H 0.12214 0.67881 0.25349 0.0
C950 C 0.13703 0.69788 0.18772 0.0
C951 C 0.13858 0.70299 0.1284 0.0
C952 C 0.0835 0.6408 0.15073 0.0
C953 C 0.11022 0.6707 0.16831 0.0
C954 C 0.06794 0.62649 0.17133 0.0
C955 C 0.06267 0.62549 0.23063 0.0
C956 C 0.09424 0.65437 0.18936 0.0
C957 C 0.07424 0.63895 0.26813 0.0
C958 C 0.12303 0.68199 0.20757 0.0
C959 C 0.12582 0.69094 0.09015 0.0
N960 N 0.08937 0.65281 0.24687 0.0
N961 N 0.11217 0.67544 0.11077 0.0
H962 H 0.57199 0.87732 0.29612 0.0
H963 H 0.62477 0.82277 0.57797 0.0
H964 H 0.55983 0.89938 0.46985 0.0
H965 H 0.64663 0.81075 0.40395 0.0
H966 H 0.60073 0.85087 0.53982 0.0
H967 H 0.59941 0.85271 0.33474 0.0
C968 C 0.57522 0.87728 0.34207 0.0
C969 C 0.56339 0.8906 0.37936 0.0
C970 C 0.61097 0.84214 0.51017 0.0
C971 C 0.59459 0.86203 0.42435 0.0
C972 C 0.62479 0.82614 0.53209 0.0
C973 C 0.63789 0.81416 0.49455 0.0
C974 C 0.61005 0.84614 0.45017 0.0
C975 C 0.63691 0.81931 0.43511 0.0
C976 C 0.59083 0.86311 0.36428 0.0
C977 C 0.56832 0.88949 0.43891 0.0
N978 N 0.62323 0.83464 0.415 0.0
N979 N 0.58327 0.87544 0.45936 0.0
H980 H 0.4478 0.37793 0.81443 0.0
H981 H 0.39083 0.32068 0.542 0.0
H982 H 0.45674 0.39823 0.63768 0.0
H983 H 0.37345 0.30829 0.71951 0.0
H984 H 0.41524 0.34918 0.57594 0.0
H985 H 0.42043 0.35221 0.78081 0.0
C986 C 0.44389 0.37726 0.7689 0.0
C987 C 0.45477 0.39045 0.72925 0.0
C988 C 0.40591 0.34026 0.60731 0.0
C989 C 0.42365 0.36069 0.69004 0.0
C990 C 0.3919 0.32402 0.5878 0.0
C991 C 0.37989 0.31188 0.62752 0.0
C992 C 0.40812 0.34434 0.66704 0.0
C993 C 0.38225 0.31699 0.6867 0.0
C994 C 0.42832 0.36247 0.74955 0.0
C995 C 0.449 0.38853 0.67039 0.0
N996 N 0.39606 0.33259 0.70442 0.0
N997 N 0.43409 0.37396 0.65278 0.0
H998 H 0.89252 0.19658 0.07703 0.0
H999 H 0.94448 0.14006 0.797 0.0
H1000 H 0.86903 0.20614 0.90349 0.0
H1001 H 0.95801 0.11999 0.97176 0.0
H1002 H 0.91685 0.16458 0.83503 0.0
H1003 H 0.91678 0.16851 0.03984 0.0
C1004 C 0.89217 0.19265 0.03149 0.0
C1005 C 0.87857 0.20395 0.99374 0.0
C1006 C 0.92579 0.15464 0.86492 0.0
C1007 C 0.90669 0.17203 0.95041 0.0
C1008 C 0.94153 0.14054 0.84307 0.0
C1009 C 0.95379 0.12779 0.88081 0.0
C1010 C 0.92233 0.15623 0.92505 0.0
C1011 C 0.9492 0.12942 0.94048 0.0
C1012 C 0.90613 0.17667 0.0101 0.0
C1013 C 0.87915 0.19811 0.93474 0.0
N1014 N 0.9341 0.14339 0.96053 0.0
N1015 N 0.89299 0.18284 0.91509 0.0
H1016 H 0.07402 0.3756 0.79158 0.0
H1017 H 0.13116 0.32059 0.06651 0.0
H1018 H 0.06497 0.3967 0.96757 0.0
H1019 H 0.151 0.30868 0.89069 0.0
H1020 H 0.10657 0.34849 0.03069 0.0
H1021 H 0.10215 0.35076 0.82597 0.0
C1022 C 0.07805 0.3753 0.83706 0.0
C1023 C 0.06691 0.38844 0.87631 0.0
C1024 C 0.11647 0.33985 1.00004 0.0
C1025 C 0.09888 0.35971 0.91634 0.0
C1026 C 0.13063 0.32396 0.02064 0.0
C1027 C 0.14332 0.31208 0.98196 0.0
C1028 C 0.11476 0.34385 0.94018 0.0
C1029 C 0.1416 0.31721 0.92262 0.0
C1030 C 0.09406 0.36102 0.85683 0.0
C1031 C 0.07287 0.38702 0.93512 0.0
N1032 N 0.12756 0.33246 0.90373 0.0
N1033 N 0.08817 0.37293 0.95311 0.0
H1034 H 0.97263 0.85465 0.2625 0.0
H1035 H 0.8566 0.83595 0.12242 0.0
H1036 H 0.92898 0.90736 0.23634 0.0
H1037 H 0.91097 0.7952 0.08815 0.0
H1038 H 0.88049 0.86128 0.17296 0.0
H1039 H 0.94734 0.83073 0.21266 0.0
C1040 C 0.95726 0.86097 0.24858 0.0
C1041 C 0.95256 0.88287 0.25561 0.0
C1042 C 0.88728 0.84705 0.15322 0.0
C1043 C 0.92385 0.85577 0.19587 0.0
C1044 C 0.87371 0.83277 0.12353 0.0
C1045 C 0.88194 0.81386 0.09882 0.0
C1046 C 0.90916 0.84199 0.16026 0.0
C1047 C 0.90408 0.80998 0.10438 0.0
C1048 C 0.94303 0.84743 0.21891 0.0
C1049 C 0.93288 0.89044 0.23371 0.0
N1050 N 0.91682 0.82373 0.13493 0.0
N1051 N 0.91925 0.87695 0.20498 0.0
H1052 H 0.38783 0.69619 0.56724 0.0
H1053 H 0.44513 0.64002 0.29396 0.0
H1054 H 0.36793 0.70704 0.39102 0.0
H1055 H 0.45533 0.62074 0.47102 0.0
H1056 H 0.41681 0.66478 0.32765 0.0
H1057 H 0.41276 0.6684 0.53244 0.0
C1058 C 0.38842 0.69261 0.5215 0.0
C1059 C 0.37561 0.70416 0.48239 0.0
C1060 C 0.4252 0.65493 0.35892 0.0
C1061 C 0.40455 0.67251 0.44177 0.0
C1062 C 0.44133 0.64071 0.33957 0.0
C1063 C 0.45284 0.62809 0.37929 0.0
C1064 C 0.42061 0.65671 0.41849 0.0
C1065 C 0.44715 0.63 0.43821 0.0
C1066 C 0.40277 0.67678 0.50147 0.0
C1067 C 0.37741 0.69877 0.42326 0.0
N1068 N 0.43171 0.64401 0.45577 0.0
N1069 N 0.39162 0.68359 0.40492 0.0
H1070 H 0.6272 0.19597 0.53206 0.0
H1071 H 0.57324 0.14058 0.81174 0.0
H1072 H 0.64761 0.20899 0.70677 0.0
H1073 H 0.56303 0.11885 0.63682 0.0
H1074 H 0.60045 0.16597 0.77493 0.0
H1075 H 0.60331 0.16771 0.56977 0.0
C1076 C 0.62693 0.19279 0.57804 0.0
C1077 C 0.63959 0.20507 0.61585 0.0
C1078 C 0.59231 0.15545 0.74482 0.0
C1079 C 0.61188 0.17289 0.65979 0.0
C1080 C 0.57683 0.14085 0.76599 0.0
C1081 C 0.56563 0.12735 0.72779 0.0
C1082 C 0.59654 0.15673 0.68495 0.0
C1083 C 0.571 0.12878 0.66853 0.0
C1084 C 0.61318 0.17669 0.59973 0.0
C1085 C 0.63823 0.20017 0.67542 0.0
N1086 N 0.5858 0.14317 0.64919 0.0
N1087 N 0.62462 0.18471 0.69533 0.0
H1088 H 0.97686 0.3799 0.98674 0.0
H1089 H 0.8898 0.29395 0.88725 0.0
H1090 H 0.97097 0.3595 0.80938 0.0
H1091 H 0.9121 0.29819 0.06327 0.0
H1092 H 0.9181 0.31887 0.85794 0.0
H1093 H 0.9521 0.3514 0.01547 0.0
C1094 C 0.97044 0.36942 0.95365 0.0
C1095 C 0.97602 0.37237 0.89522 0.0
C1096 C 0.91691 0.31426 0.90292 0.0
C1097 C 0.94722 0.33957 0.92833 0.0
C1098 C 0.90067 0.30002 0.9199 0.0
C1099 C 0.89827 0.29398 0.9782 0.0
C1100 C 0.93083 0.32297 0.94446 0.0
C1101 C 0.91311 0.30238 0.01804 0.0
C1102 C 0.9563 0.35305 0.9703 0.0
C1103 C 0.96715 0.35804 0.85477 0.0
N1104 N 0.92853 0.31661 1.00059 0.0
N1105 N 0.95304 0.34247 0.87197 0.0
H1106 H 0.47427 0.13481 0.62449 0.0
H1107 H 0.38777 0.21997 0.7327 0.0
H1108 H 0.47043 0.15509 0.80237 0.0
H1109 H 0.40851 0.21686 0.55505 0.0
H1110 H 0.41629 0.19484 0.75893 0.0
H1111 H 0.44885 0.16309 0.59825 0.0
C1112 C 0.46816 0.14521 0.6582 0.0
C1113 C 0.47452 0.1423 0.71606 0.0
C1114 C 0.41469 0.19972 0.71425 0.0
C1115 C 0.44497 0.17482 0.68586 0.0
C1116 C 0.39832 0.21408 0.69903 0.0
C1117 C 0.39547 0.22056 0.64124 0.0
C1118 C 0.42828 0.19133 0.67143 0.0
C1119 C 0.40989 0.21233 0.59998 0.0
C1120 C 0.45364 0.16144 0.64298 0.0
C1121 C 0.46601 0.15652 0.75738 0.0
N1122 N 0.42545 0.198 0.61574 0.0
N1123 N 0.45153 0.17195 0.74161 0.0
H1124 H 0.54774 0.65683 0.31023 0.0
H1125 H 0.60551 0.72034 0.5689 0.0
H1126 H 0.54363 0.63665 0.48821 0.0
H1127 H 0.62845 0.72225 0.39308 0.0
H1128 H 0.57791 0.6944 0.53938 0.0
H1129 H 0.57256 0.68551 0.33933 0.0
C1130 C 0.55191 0.65843 0.35537 0.0
C1131 C 0.54366 0.64401 0.39655 0.0
C1132 C 0.58896 0.7006 0.5073 0.0
C1133 C 0.57188 0.67719 0.43038 0.0
C1134 C 0.60473 0.71547 0.52412 0.0
C1135 C 0.61966 0.72339 0.48377 0.0
C1136 C 0.58773 0.69385 0.44939 0.0
C1137 C 0.61754 0.7165 0.42606 0.0
C1138 C 0.56614 0.67482 0.37196 0.0
C1139 C 0.54966 0.64716 0.45464 0.0
N1140 N 0.60195 0.70222 0.4107 0.0
N1141 N 0.56329 0.66335 0.46973 0.0
H1142 H 0.10833 0.79624 0.05533 0.0
H1143 H 0.05011 0.86072 0.31244 0.0
H1144 H 0.13149 0.79631 0.23098 0.0
H1145 H 0.04128 0.87627 0.13236 0.0
H1146 H 0.07619 0.83304 0.2844 0.0
H1147 H 0.07996 0.82152 0.08388 0.0
C1148 C 0.10746 0.80143 0.09987 0.0
C1149 C 0.12261 0.79418 0.14048 0.0
C1150 C 0.06848 0.84249 0.25107 0.0
C1151 C 0.08983 0.82303 0.17375 0.0
C1152 C 0.05352 0.85832 0.26707 0.0
C1153 C 0.04353 0.87115 0.22492 0.0
C1154 C 0.07331 0.83913 0.19236 0.0
C1155 C 0.04863 0.86701 0.16664 0.0
C1156 C 0.09124 0.81593 0.11614 0.0
C1157 C 0.1204 0.8015 0.1978 0.0
N1158 N 0.06307 0.85143 0.1522 0.0
N1159 N 0.1044 0.81542 0.21261 0.0
H1160 H 0.96884 0.6586 0.30861 0.0
H1161 H 0.91072 0.7189 0.04409 0.0
H1162 H 0.97355 0.63774 0.13136 0.0
H1163 H 0.89026 0.72587 0.22121 0.0
H1164 H 0.93831 0.6934 0.07585 0.0
H1165 H 0.94447 0.68748 0.27772 0.0
C1166 C 0.96494 0.66012 0.26327 0.0
C1167 C 0.97318 0.64544 0.2228 0.0
C1168 C 0.92782 0.70059 0.10776 0.0
C1169 C 0.94542 0.67872 0.18696 0.0
C1170 C 0.91204 0.71522 0.08962 0.0
C1171 C 0.8978 0.72443 0.12973 0.0
C1172 C 0.9297 0.69528 0.16663 0.0
C1173 C 0.90061 0.71905 0.18841 0.0
C1174 C 0.95095 0.67661 0.24565 0.0
C1175 C 0.96751 0.64843 0.16443 0.0
N1176 N 0.91614 0.70489 0.20498 0.0
N1177 N 0.95407 0.66463 0.14841 0.0
H1178 H 0.04768 0.15963 0.80044 0.0
H1179 H 0.11016 0.21844 0.05997 0.0
H1180 H 0.04429 0.13849 0.97772 0.0
H1181 H 0.12996 0.223 0.88175 0.0
H1182 H 0.0812 0.19396 0.03066 0.0
H1183 H 0.07311 0.18778 0.82978 0.0
C1184 C 0.05209 0.16095 0.84548 0.0
C1185 C 0.04393 0.14637 0.88636 0.0
C1186 C 0.09184 0.20044 0.99801 0.0
C1187 C 0.07289 0.17884 0.92047 0.0
C1188 C 0.10838 0.21448 0.01473 0.0
C1189 C 0.12281 0.22268 0.97355 0.0
C1190 C 0.0894 0.19481 0.9395 0.0
C1191 C 0.11946 0.21697 0.91533 0.0
C1192 C 0.06667 0.17701 0.86222 0.0
C1193 C 0.05025 0.14911 0.94435 0.0
N1194 N 0.1032 0.20345 0.90015 0.0
N1195 N 0.06428 0.16492 0.95955 0.0
H1196 H 0.60685 0.29879 0.5406 0.0
H1197 H 0.54904 0.36272 0.79855 0.0
H1198 H 0.62947 0.2969 0.71664 0.0
H1199 H 0.54533 0.38295 0.62054 0.0
H1200 H 0.57371 0.33389 0.76966 0.0
H1201 H 0.57931 0.32488 0.56974 0.0
C1202 C 0.60601 0.30369 0.58535 0.0
C1203 C 0.62084 0.29575 0.62587 0.0
C1204 C 0.56741 0.34463 0.73697 0.0
C1205 C 0.58899 0.32545 0.6598 0.0
C1206 C 0.55328 0.36111 0.75343 0.0
C1207 C 0.54518 0.37558 0.71218 0.0
C1208 C 0.57323 0.34222 0.6786 0.0
C1209 C 0.55125 0.37241 0.65415 0.0
C1210 C 0.59028 0.31865 0.60195 0.0
C1211 C 0.61864 0.30267 0.68353 0.0
N1212 N 0.5648 0.35612 0.63917 0.0
N1213 N 0.6031 0.31703 0.69867 0.0
H1214 H 0.40779 0.79822 0.55846 0.0
H1215 H 0.46931 0.85796 0.29822 0.0
H1216 H 0.38807 0.79345 0.38029 0.0
H1217 H 0.47371 0.87814 0.47608 0.0
H1218 H 0.44409 0.82962 0.32768 0.0
H1219 H 0.43656 0.82291 0.52899 0.0
C1220 C 0.40954 0.80218 0.5132 0.0
C1221 C 0.39518 0.79384 0.47208 0.0
C1222 C 0.4507 0.84021 0.36022 0.0
C1223 C 0.42838 0.822 0.43784 0.0
C1224 C 0.46518 0.85638 0.34342 0.0
C1225 C 0.47356 0.87075 0.38444 0.0
C1226 C 0.44479 0.83809 0.41866 0.0
C1227 C 0.46756 0.86769 0.4426 0.0
C1228 C 0.42597 0.81635 0.49638 0.0
C1229 C 0.3985 0.79958 0.41384 0.0
N1230 N 0.45362 0.8518 0.45785 0.0
N1231 N 0.41465 0.81323 0.39858 0.0
H1232 H 0.96018 0.53027 0.19579 0.0
H1233 H 0.95101 0.48838 0.87933 0.0
H1234 H 0.94322 0.57104 0.05211 0.0
H1235 H 0.95873 0.44768 0.02829 0.0
H1236 H 0.9385 0.51741 0.94277 0.0
H1237 H 0.95007 0.49896 0.13882 0.0
C1238 C 0.95379 0.53266 0.15274 0.0
C1239 C 0.95299 0.55323 0.12824 0.0
C1240 C 0.94219 0.5019 0.96145 0.0
C1241 C 0.942 0.51743 0.06193 0.0
C1242 C 0.94912 0.48531 0.92511 0.0
C1243 C 0.95592 0.46582 0.94901 0.0
C1244 C 0.94246 0.49885 0.02176 0.0
C1245 C 0.95363 0.46262 1.00855 0.0
C1246 C 0.94805 0.51476 0.12004 0.0
C1247 C 0.94436 0.55543 0.07249 0.0
N1248 N 0.94749 0.47909 0.04304 0.0
N1249 N 0.93976 0.5377 0.04059 0.0
H1250 H 0.82486 0.69773 0.30102 0.0
H1251 H 0.7354 0.71391 0.46546 0.0
H1252 H 0.78218 0.7209 0.16786 0.0
H1253 H 0.69809 0.69776 0.31458 0.0
H1254 H 0.76812 0.70531 0.41234 0.0
H1255 H 0.79366 0.68638 0.35747 0.0
C1256 C 0.80896 0.70002 0.28303 0.0
C1257 C 0.80607 0.71083 0.23033 0.0
C1258 C 0.75277 0.70278 0.39147 0.0
C1259 C 0.77045 0.69822 0.29511 0.0
C1260 C 0.73407 0.70781 0.42179 0.0
C1261 C 0.71406 0.70679 0.39418 0.0
C1262 C 0.75139 0.69708 0.33286 0.0
C1263 C 0.71321 0.69886 0.33748 0.0
C1264 C 0.79118 0.6937 0.31558 0.0
C1265 C 0.78512 0.71307 0.20887 0.0
N1266 N 0.73169 0.69493 0.30806 0.0
N1267 N 0.76807 0.7071 0.24177 0.0
H1268 H 0.56615 0.52656 0.38969 0.0
H1269 H 0.56659 0.49339 0.71839 0.0
H1270 H 0.56292 0.57092 0.53201 0.0
H1271 H 0.56417 0.44892 0.57623 0.0
H1272 H 0.57811 0.52173 0.65148 0.0
H1273 H 0.57825 0.49842 0.45647 0.0
C1274 C 0.56895 0.53056 0.4346 0.0
C1275 C 0.56367 0.55094 0.4557 0.0
C1276 C 0.57579 0.5056 0.63513 0.0
C1277 C 0.57659 0.5189 0.53249 0.0
C1278 C 0.56946 0.48942 0.67348 0.0
C1279 C 0.56458 0.46894 0.65248 0.0
C1280 C 0.5768 0.50119 0.57551 0.0
C1281 C 0.56795 0.46459 0.59382 0.0
C1282 C 0.57562 0.5145 0.47287 0.0
C1283 C 0.56699 0.55532 0.51435 0.0
N1284 N 0.57347 0.48069 0.55712 0.0
N1285 N 0.57286 0.53934 0.55095 0.0
H1286 H 0.82429 0.32576 0.81565 0.0
H1287 H 0.73669 0.30568 0.64753 0.0
H1288 H 0.78131 0.30186 0.94732 0.0
H1289 H 0.69773 0.32262 0.79487 0.0
H1290 H 0.76877 0.31532 0.70219 0.0
H1291 H 0.79321 0.33597 0.75732 0.0
C1292 C 0.80834 0.32313 0.83302 0.0
C1293 C 0.80537 0.31239 0.88581 0.0
C1294 C 0.75317 0.31776 0.72187 0.0
C1295 C 0.7699 0.3237 0.81885 0.0
C1296 C 0.73485 0.31213 0.6907 0.0
C1297 C 0.71457 0.31313 0.7169 0.0
C1298 C 0.75115 0.32403 0.77994 0.0
C1299 C 0.71308 0.32153 0.77304 0.0
C1300 C 0.79064 0.32879 0.79936 0.0
C1301 C 0.78433 0.30968 0.90633 0.0
N1302 N 0.7312 0.32604 0.80335 0.0
N1303 N 0.76736 0.315 0.87236 0.0
H1304 H 0.19518 0.19041 0.8032 0.0
H1305 H 0.32141 0.20104 0.77391 0.0
H1306 H 0.23837 0.21056 0.93854 0.0
H1307 H 0.27781 0.19949 0.6297 0.0
H1308 H 0.29229 0.18962 0.83772 0.0
H1309 H 0.22609 0.17954 0.74505 0.0
C1310 C 0.21111 0.19193 0.82153 0.0
C1311 C 0.21424 0.20187 0.87536 0.0
C1312 C 0.2892 0.19104 0.79184 0.0
C1313 C 0.24959 0.18948 0.80888 0.0
C1314 C 0.30586 0.19731 0.7554 0.0
C1315 C 0.30187 0.20107 0.69675 0.0
C1316 C 0.26835 0.18898 0.76952 0.0
C1317 C 0.28144 0.19653 0.67474 0.0
C1318 C 0.22875 0.18579 0.7881 0.0
C1319 C 0.23525 0.20333 0.89686 0.0
N1320 N 0.26523 0.19114 0.71146 0.0
N1321 N 0.25215 0.19754 0.86315 0.0
H1322 H 0.32293 0.82498 0.30033 0.0
H1323 H 0.19659 0.81482 0.27036 0.0
H1324 H 0.2796 0.80458 0.43529 0.0
H1325 H 0.24045 0.81534 0.12653 0.0
H1326 H 0.22577 0.82606 0.33415 0.0
H1327 H 0.29206 0.83574 0.24193 0.0
C1328 C 0.30698 0.82337 0.31852 0.0
C1329 C 0.3038 0.81341 0.37234 0.0
C1330 C 0.2289 0.82448 0.28833 0.0
C1331 C 0.26851 0.82569 0.30558 0.0
C1332 C 0.21221 0.81832 0.25188 0.0
C1333 C 0.21625 0.81432 0.19337 0.0
C1334 C 0.24981 0.82623 0.26611 0.0
C1335 C 0.23677 0.81852 0.17144 0.0
C1336 C 0.28937 0.82945 0.28494 0.0
C1337 C 0.28277 0.81184 0.39363 0.0
N1338 N 0.25299 0.82384 0.20815 0.0
N1339 N 0.2659 0.81758 0.3598 0.0
H1340 H 0.46088 0.98584 0.41361 0.0
H1341 H 0.45121 0.02594 0.73039 0.0
H1342 H 0.44284 0.94423 0.55462 0.0
H1343 H 0.45647 0.06791 0.58321 0.0
H1344 H 0.43904 0.99701 0.66625 0.0
H1345 H 0.45037 0.01682 0.47143 0.0
C1346 C 0.45417 0.9832 0.45621 0.0
C1347 C 0.45318 0.96248 0.47976 0.0
C1348 C 0.44208 0.01277 0.64816 0.0
C1349 C 0.4417 0.99789 0.54706 0.0
C1350 C 0.44881 0.02929 0.68493 0.0
C1351 C 0.45482 0.04914 0.66167 0.0
C1352 C 0.44182 0.01623 0.58802 0.0
C1353 C 0.45194 0.0527 0.60247 0.0
C1354 C 0.44819 1.0009 0.4894 0.0
C1355 C 0.44414 0.95996 0.53498 0.0
N1356 N 0.44606 0.03627 0.56747 0.0
N1357 N 0.43931 0.9775 0.5674 0.0
H1358 H 0.07402 0.07049 0.05489 0.0
H1359 H 0.05123 0.94619 0.07373 0.0
H1360 H 0.05332 0.03049 0.91327 0.0
H1361 H 0.06477 0.98588 0.22162 0.0
H1362 H 0.06426 0.97466 0.01046 0.0
H1363 H 0.08264 0.03822 0.11031 0.0
C1364 C 0.07194 0.05495 0.03465 0.0
C1365 C 0.06243 0.05314 0.97986 0.0
C1366 C 0.06492 0.97706 0.05674 0.0
C1367 C 0.07206 0.01623 0.04331 0.0
C1368 C 0.05759 0.96077 0.09281 0.0
C1369 C 0.05681 0.96392 0.15263 0.0
C1370 C 0.07089 0.9969 0.08064 0.0
C1371 C 0.06515 0.98297 0.17554 0.0
C1372 C 0.07677 0.03652 0.06654 0.0
C1373 C 0.06021 0.0326 0.95582 0.0
N1374 N 0.07139 0.99906 0.13931 0.0
N1375 N 0.0646 0.01495 0.9881 0.0
H1376 H 0.02959 0.44615 0.60688 0.0
H1377 H 0.02869 0.57046 0.50697 0.0
H1378 H 0.03797 0.49888 0.72544 0.0
H1379 H 0.0352 0.51785 0.38719 0.0
H1380 H 0.03049 0.54464 0.58731 0.0
H1381 H 0.03007 0.47193 0.52623 0.0
C1382 C 0.03169 0.46307 0.61616 0.0
C1383 C 0.03387 0.47012 0.67367 0.0
C1384 C 0.03164 0.53874 0.54345 0.0
C1385 C 0.03407 0.50007 0.58064 0.0
C1386 C 0.03064 0.55355 0.49734 0.0
C1387 C 0.03191 0.54656 0.43959 0.0
C1388 C 0.03365 0.51654 0.53234 0.0
C1389 C 0.03428 0.52423 0.43059 0.0
C1390 C 0.03193 0.47786 0.56989 0.0
C1391 C 0.03636 0.49245 0.68224 0.0
N1392 N 0.03493 0.51017 0.47602 0.0
N1393 N 0.03626 0.50648 0.63671 0.0
H1394 H 0.804 0.7511 0.88409 0.0
H1395 H 0.72753 0.81798 0.6766 0.0
H1396 H 0.79305 0.81823 0.91881 0.0
H1397 H 0.70942 0.75464 0.73391 0.0
H1398 H 0.7563 0.81837 0.7499 0.0
H1399 H 0.77455 0.75182 0.81336 0.0
C1400 C 0.79558 0.76607 0.8766 0.0
C1401 C 0.80118 0.78464 0.90794 0.0
C1402 C 0.74596 0.80444 0.74648 0.0
C1403 C 0.76745 0.78561 0.82537 0.0
C1404 C 0.72951 0.80418 0.70456 0.0
C1405 C 0.71576 0.78632 0.69895 0.0
C1406 C 0.74935 0.7864 0.782 0.0
C1407 C 0.71937 0.76887 0.73661 0.0
C1408 C 0.77865 0.76641 0.83631 0.0
C1409 C 0.78939 0.80349 0.89605 0.0
N1410 N 0.73589 0.76922 0.77564 0.0
N1411 N 0.77335 0.80356 0.85546 0.0
H1412 H 0.48901 0.57118 0.10948 0.0
H1413 H 0.48984 0.44806 0.99911 0.0
H1414 H 0.48297 0.51694 0.22423 0.0
H1415 H 0.48324 0.50222 0.88433 0.0
H1416 H 0.48841 0.47285 0.08177 0.0
H1417 H 0.48798 0.54637 0.02681 0.0
C1418 C 0.48731 0.55413 0.11753 0.0
C1419 C 0.48598 0.54637 0.17458 0.0
C1420 C 0.48715 0.47932 0.03849 0.0
C1421 C 0.48511 0.51753 0.07914 0.0
C1422 C 0.48794 0.46509 0.99105 0.0
C1423 C 0.48657 0.47283 0.934 0.0
C1424 C 0.48523 0.50166 0.02943 0.0
C1425 C 0.48425 0.49527 0.92709 0.0
C1426 C 0.48676 0.53989 0.07008 0.0
C1427 C 0.48395 0.5239 0.18147 0.0
N1428 N 0.48379 0.50875 0.97377 0.0
N1429 N 0.4837 0.51042 0.1348 0.0
H1430 H 0.79224 0.19958 0.1815 0.0
H1431 H 0.71056 0.26526 0.37629 0.0
H1432 H 0.80554 0.26548 0.22582 0.0
H1433 H 0.72892 0.20147 0.42925 0.0
H1434 H 0.73955 0.26485 0.30407 0.0
H1435 H 0.76372 0.19896 0.25569 0.0
C1436 C 0.78922 0.21392 0.20672 0.0
C1437 C 0.80156 0.23257 0.19727 0.0
C1438 C 0.73715 0.2509 0.3313 0.0
C1439 C 0.76826 0.23214 0.28124 0.0
C1440 C 0.72049 0.25104 0.37246 0.0
C1441 C 0.71713 0.23336 0.4094 0.0
C1442 C 0.75032 0.23267 0.32515 0.0
C1443 C 0.73081 0.21549 0.40206 0.0
C1444 C 0.77294 0.21352 0.24916 0.0
C1445 C 0.79669 0.25066 0.23154 0.0
N1446 N 0.74655 0.2155 0.36057 0.0
N1447 N 0.78033 0.25009 0.2711 0.0
H1448 H 0.26934 0.2854 0.47832 0.0
H1449 H 0.25137 0.28375 0.13391 0.0
H1450 H 0.32118 0.27623 0.35721 0.0
H1451 H 0.19945 0.27702 0.25594 0.0
H1452 H 0.27692 0.28481 0.21429 0.0
H1453 H 0.24388 0.28616 0.3978 0.0
C1454 C 0.27551 0.28374 0.43481 0.0
C1455 C 0.29771 0.28081 0.42521 0.0
C1456 C 0.25995 0.28319 0.22366 0.0
C1457 C 0.26812 0.28168 0.33152 0.0
C1458 C 0.24521 0.28269 0.17757 0.0
C1459 C 0.22296 0.28036 0.1875 0.0
C1460 C 0.25264 0.28157 0.28098 0.0
C1461 C 0.21631 0.2789 0.2456 0.0
C1462 C 0.26081 0.28408 0.38864 0.0
C1463 C 0.30436 0.2786 0.36729 0.0
N1464 N 0.23097 0.27958 0.28976 0.0
N1465 N 0.28974 0.27913 0.32301 0.0
H1466 H 0.26685 0.73214 0.6323 0.0
H1467 H 0.24827 0.72932 0.97645 0.0
H1468 H 0.31854 0.73892 0.75482 0.0
H1469 H 0.19664 0.73903 0.85513 0.0
H1470 H 0.27388 0.72895 0.89615 0.0
H1471 H 0.24117 0.73081 0.71244 0.0
C1472 C 0.27293 0.73316 0.67602 0.0
C1473 C 0.29516 0.73558 0.68615 0.0
C1474 C 0.25696 0.73107 0.8869 0.0
C1475 C 0.26533 0.73404 0.77937 0.0
C1476 C 0.24218 0.73118 0.93294 0.0
C1477 C 0.21999 0.73413 0.92322 0.0
C1478 C 0.24976 0.73372 0.82978 0.0
C1479 C 0.21344 0.73663 0.8653 0.0
C1480 C 0.25812 0.7325 0.72197 0.0
C1481 C 0.30171 0.73698 0.74433 0.0
N1482 N 0.22815 0.7363 0.82114 0.0
N1483 N 0.28697 0.73613 0.78836 0.0
H1484 H 0.53668 0.99829 0.22404 0.0
H1485 H 0.53914 0.01633 0.87956 0.0
H1486 H 0.52978 0.94646 0.10201 0.0
H1487 H 0.53039 0.06826 1.00047 0.0
H1488 H 0.5395 0.99086 0.96013 0.0
H1489 H 0.53812 0.02384 0.14366 0.0
C1490 C 0.53566 0.99214 0.18039 0.0
C1491 C 0.53317 0.96991 0.17048 0.0
C1492 C 0.53759 1.00781 0.96924 0.0
C1493 C 0.53483 0.99961 0.07694 0.0
C1494 C 0.53749 0.02252 0.92303 0.0
C1495 C 0.5348 0.04475 0.93253 0.0
C1496 C 0.5352 0.01512 0.02634 0.0
C1497 C 0.53258 0.05142 0.99044 0.0
C1498 C 0.53638 1.00689 0.13428 0.0
C1499 C 0.53177 0.96329 0.11236 0.0
N1500 N 0.53288 0.03677 0.03477 0.0
N1501 N 0.53268 0.97797 0.06818 0.0
H1502 H 0.98802 0.07173 0.60364 0.0
H1503 H 0.98846 0.94702 0.50762 0.0
H1504 H 0.9805 0.01957 0.72457 0.0
H1505 H 0.9811 0.99925 0.38686 0.0
H1506 H 0.98707 0.97312 0.5874 0.0
H1507 H 0.98703 0.04558 0.52401 0.0
C1508 C 0.98601 0.05485 0.61366 0.0
C1509 C 0.98422 0.04808 0.67152 0.0
C1510 C 0.98564 0.97887 0.54344 0.0
C1511 C 0.98343 0.01769 0.57963 0.0
C1512 C 0.9864 0.9639 0.49766 0.0
C1513 C 0.98479 0.97071 0.43979 0.0
C1514 C 0.98354 1.00103 0.53184 0.0
C1515 C 0.98229 0.993 0.43035 0.0
C1516 C 0.98547 0.03985 0.56797 0.0
C1517 C 0.9818 0.02579 0.68105 0.0
N1518 N 0.98189 1.00721 0.47543 0.0
N1519 N 0.98162 0.01154 0.63603 0.0
loop_
_geom_bond_atom_site_label_1
_geom_bond_atom_site_label_2
_geom_bond_distance
_geom_bond_site_symmetry_2
_ccdc_geom_bond_type
Co0 O2 2.143 . S
Co0 O8 2.074 . S
Co0 O11 2.093 1_455 S
Co0 O24 2.097 1_455 S
Co0 N41 2.151 . S
Co0 N49 2.214 . S
Co1 O2 2.160 1_655 S
Co1 O7 2.058 1_655 S
Co1 O17 2.057 1_655 S
Co1 O32 2.037 . S
Co1 N36 2.145 . S
Co1 N57 2.257 . S
O2 Co0 2.143 . S
O2 Co1 2.160 1_455 S
C3 O4 1.278 . S
C3 O11 1.224 . S
O4 C3 1.278 . S
C5 O6 1.245 . S
C5 O17 1.232 . S
O6 C5 1.245 . S
O7 Co1 2.058 1_455 S
O7 C33 1.269 . S
O8 Co0 2.074 . S
O8 C33 1.257 . S
H9 C34 0.930 . S
H10 C40 0.930 . S
O11 Co0 2.093 1_655 S
O11 C3 1.224 . S
H12 C44 0.929 . S
H13 C46 0.920 1_556 S
H14 C47 0.930 . S
H15 C45 0.929 . S
H16 C48 0.928 . S
O17 Co1 2.057 1_455 S
O17 C5 1.232 . S
H18 C37 0.929 . S
H19 C38 0.929 . S
H20 C50 0.931 . S
H21 C42 0.929 . S
H22 C51 0.932 1_556 S
H23 C43 0.931 . S
O24 Co0 2.097 1_655 S
O24 C52 1.214 . S
H25 C53 0.929 . S
H26 C54 0.929 . S
H27 C55 0.930 . S
H28 C56 0.929 . S
H29 C58 0.930 . S
H30 C35 0.930 . S
H31 C39 0.930 . S
O32 Co1 2.037 . S
O32 C52 1.234 . S
C33 O7 1.269 . S
C33 O8 1.257 . S
C34 H9 0.930 . S
C34 C37 1.388 . S
C34 C39 1.418 . S
C35 H30 0.930 . S
C35 C38 1.404 . S
C35 C39 1.353 . S
N36 Co1 2.145 . S
N36 C37 1.397 . S
N36 C38 1.334 . S
C37 H18 0.929 . S
C37 C34 1.388 . S
C37 N36 1.397 . S
C38 H19 0.929 . S
C38 C35 1.404 . S
C38 N36 1.334 . S
C39 H31 0.930 . S
C39 C34 1.418 . S
C39 C35 1.353 . S
C40 H10 0.930 . S
C40 N41 1.330 . S
C40 C42 1.446 . S
N41 Co0 2.151 . S
N41 C40 1.330 . S
N41 C45 1.418 . S
C42 H21 0.929 . S
C42 C40 1.446 . S
C42 C43 1.332 . S
C43 H23 0.931 . S
C43 C42 1.332 . S
C43 C44 1.267 . S
C44 H12 0.929 . S
C44 C43 1.267 . S
C44 C45 1.251 . S
C45 H15 0.929 . S
C45 N41 1.418 . S
C45 C44 1.251 . S
C46 H13 0.920 1_554 S
C46 C48 1.415 . S
C46 C51 1.260 . S
C47 H14 0.930 . S
C47 N49 1.325 . S
C47 C50 1.357 . S
C48 H16 0.928 . S
C48 C46 1.415 . S
C48 N49 1.261 . S
N49 Co0 2.214 . S
N49 C47 1.325 . S
N49 C48 1.261 . S
C50 H20 0.931 . S
C50 C47 1.357 . S
C50 C51 1.311 . S
C51 H22 0.932 1_554 S
C51 C46 1.260 . S
C51 C50 1.311 . S
C52 O24 1.214 . S
C52 O32 1.234 . S
C53 H25 0.929 . S
C53 C56 1.391 . S
C53 C58 1.391 . S
C54 H26 0.929 . S
C54 C55 1.390 . S
C54 N57 1.391 . S
C55 H27 0.930 . S
C55 C54 1.390 . S
C55 C56 1.392 . S
C56 H28 0.929 . S
C56 C53 1.391 . S
C56 C55 1.392 . S
N57 Co1 2.257 . S
N57 C54 1.391 . S
N57 C58 1.388 . S
C58 H29 0.930 . S
C58 C53 1.391 . S
C58 N57 1.388 . S
Co59 O61 2.143 . S
Co59 O67 2.074 . S
Co59 O70 2.093 . S
Co59 O83 2.097 . S
Co59 N100 2.151 . S
Co59 N108 2.214 . S
Co60 O61 2.160 . S
Co60 O66 2.058 . S
Co60 O76 2.057 . S
Co60 O91 2.037 . S
Co60 N95 2.145 . S
Co60 N116 2.257 . S
O61 Co59 2.143 . S
O61 Co60 2.160 . S
C62 O63 1.278 . S
C62 O70 1.224 . S
O63 C62 1.278 . S
C64 O65 1.245 . S
C64 O76 1.232 . S
O65 C64 1.245 . S
O66 Co60 2.058 . S
O66 C92 1.269 . S
O67 Co59 2.074 . S
O67 C92 1.257 . S
H68 C93 0.930 . S
H69 C99 0.930 . S
O70 Co59 2.093 . S
O70 C62 1.224 . S
H71 C103 0.929 . S
H72 C105 0.930 . S
H73 C106 0.930 . S
H74 C104 0.929 . S
H75 C107 0.928 . S
O76 Co60 2.057 . S
O76 C64 1.232 . S
H77 C96 0.929 . S
H78 C97 0.929 . S
H79 C109 0.931 . S
H80 C101 0.929 . S
H81 C110 0.930 . S
H82 C102 0.931 . S
O83 Co59 2.097 . S
O83 C111 1.214 . S
H84 C112 0.929 . S
H85 C113 0.929 . S
H86 C114 0.930 . S
H87 C115 0.929 . S
H88 C117 0.930 . S
H89 C94 0.930 . S
H90 C98 0.930 . S
O91 Co60 2.037 . S
O91 C111 1.234 . S
C92 O66 1.269 . S
C92 O67 1.257 . S
C93 H68 0.930 . S
C93 C96 1.388 . S
C93 C98 1.418 . S
C94 H89 0.930 . S
C94 C97 1.404 . S
C94 C98 1.353 . S
N95 Co60 2.145 . S
N95 C96 1.397 . S
N95 C97 1.334 . S
C96 H77 0.929 . S
C96 C93 1.388 . S
C96 N95 1.397 . S
C97 H78 0.929 . S
C97 C94 1.404 . S
C97 N95 1.334 . S
C98 H90 0.930 . S
C98 C93 1.418 . S
C98 C94 1.353 . S
C99 H69 0.930 . S
C99 N100 1.330 . S
C99 C101 1.446 . S
N100 Co59 2.151 . S
N100 C99 1.330 . S
N100 C104 1.418 . S
C101 H80 0.929 . S
C101 C99 1.446 . S
C101 C102 1.332 . S
C102 H82 0.931 . S
C102 C101 1.332 . S
C102 C103 1.267 . S
C103 H71 0.929 . S
C103 C102 1.267 . S
C103 C104 1.251 . S
C104 H74 0.929 . S
C104 N100 1.418 . S
C104 C103 1.251 . S
C105 H72 0.930 . S
C105 C107 1.406 . S
C105 C110 1.261 . S
C106 H73 0.930 . S
C106 N108 1.325 . S
C106 C109 1.357 . S
C107 H75 0.928 . S
C107 C105 1.406 . S
C107 N108 1.261 . S
N108 Co59 2.214 . S
N108 C106 1.325 . S
N108 C107 1.261 . S
C109 H79 0.931 . S
C109 C106 1.357 . S
C109 C110 1.312 . S
C110 H81 0.930 . S
C110 C105 1.261 . S
C110 C109 1.312 . S
C111 O83 1.214 . S
C111 O91 1.234 . S
C112 H84 0.929 . S
C112 C115 1.391 . S
C112 C117 1.391 . S
C113 H85 0.929 . S
C113 C114 1.390 . S
C113 N116 1.391 . S
C114 H86 0.930 . S
C114 C113 1.390 . S
C114 C115 1.392 . S
C115 H87 0.929 . S
C115 C112 1.391 . S
C115 C114 1.392 . S
N116 Co60 2.257 . S
N116 C113 1.391 . S
N116 C117 1.388 . S
C117 H88 0.930 . S
C117 C112 1.391 . S
C117 N116 1.388 . S
Co118 O120 2.143 . S
Co118 O126 2.074 . S
Co118 O129 2.093 . S
Co118 O142 2.097 . S
Co118 N159 2.151 . S
Co118 N167 2.214 . S
Co119 O120 2.160 . S
Co119 O125 2.058 . S
Co119 O135 2.057 . S
Co119 O150 2.037 . S
Co119 N154 2.145 . S
Co119 N175 2.257 . S
O120 Co118 2.143 . S
O120 Co119 2.160 . S
C121 O122 1.278 . S
C121 O129 1.224 . S
O122 C121 1.278 . S
C123 O124 1.245 . S
C123 O135 1.232 . S
O124 C123 1.245 . S
O125 Co119 2.058 . S
O125 C151 1.269 . S
O126 Co118 2.074 . S
O126 C151 1.257 . S
H127 C152 0.930 . S
H128 C158 0.930 . S
O129 Co118 2.093 . S
O129 C121 1.224 . S
H130 C162 0.929 . S
H131 C164 0.930 . S
H132 C165 0.930 . S
H133 C163 0.929 . S
H134 C166 0.928 . S
O135 Co119 2.057 . S
O135 C123 1.232 . S
H136 C155 0.929 . S
H137 C156 0.929 . S
H138 C168 0.931 . S
H139 C160 0.929 . S
H140 C169 0.930 . S
H141 C161 0.931 . S
O142 Co118 2.097 . S
O142 C170 1.214 . S
H143 C171 0.929 . S
H144 C172 0.929 . S
H145 C173 0.930 . S
H146 C174 0.929 . S
H147 C176 0.930 . S
H148 C153 0.930 1_554 S
H149 C157 0.930 . S
O150 Co119 2.037 . S
O150 C170 1.234 . S
C151 O125 1.269 . S
C151 O126 1.257 . S
C152 H127 0.930 . S
C152 C155 1.388 . S
C152 C157 1.418 . S
C153 H148 0.930 1_556 S
C153 C156 1.404 . S
C153 C157 1.353 . S
N154 Co119 2.145 . S
N154 C155 1.397 . S
N154 C156 1.334 . S
C155 H136 0.929 . S
C155 C152 1.388 . S
C155 N154 1.397 . S
C156 H137 0.929 . S
C156 C153 1.404 . S
C156 N154 1.334 . S
C157 H149 0.930 . S
C157 C152 1.418 . S
C157 C153 1.353 . S
C158 H128 0.930 . S
C158 N159 1.330 . S
C158 C160 1.446 . S
N159 Co118 2.151 . S
N159 C158 1.330 . S
N159 C163 1.418 . S
C160 H139 0.929 . S
C160 C158 1.446 . S
C160 C161 1.332 . S
C161 H141 0.931 . S
C161 C160 1.332 . S
C161 C162 1.267 . S
C162 H130 0.929 . S
C162 C161 1.267 . S
C162 C163 1.251 . S
C163 H133 0.929 . S
C163 N159 1.418 . S
C163 C162 1.251 . S
C164 H131 0.930 . S
C164 C166 1.406 . S
C164 C169 1.261 . S
C165 H132 0.930 . S
C165 N167 1.325 . S
C165 C168 1.357 . S
C166 H134 0.928 . S
C166 C164 1.406 . S
C166 N167 1.261 . S
N167 Co118 2.214 . S
N167 C165 1.325 . S
N167 C166 1.261 . S
C168 H138 0.931 . S
C168 C165 1.357 . S
C168 C169 1.312 . S
C169 H140 0.930 . S
C169 C164 1.261 . S
C169 C168 1.312 . S
C170 O142 1.214 . S
C170 O150 1.234 . S
C171 H143 0.929 . S
C171 C174 1.391 . S
C171 C176 1.391 . S
C172 H144 0.929 . S
C172 C173 1.390 . S
C172 N175 1.391 . S
C173 H145 0.930 . S
C173 C172 1.390 . S
C173 C174 1.392 . S
C174 H146 0.929 . S
C174 C171 1.391 . S
C174 C173 1.392 . S
N175 Co119 2.257 . S
N175 C172 1.391 . S
N175 C176 1.388 . S
C176 H147 0.930 . S
C176 C171 1.391 . S
C176 N175 1.388 . S
Co177 O179 2.143 1_556 S
Co177 O185 2.074 . S
Co177 O188 2.093 . S
Co177 O201 2.097 . S
Co177 N218 2.151 . S
Co177 N226 2.214 . S
Co178 O179 2.160 . S
Co178 O184 2.058 . S
Co178 O194 2.057 . S
Co178 O209 2.037 . S
Co178 N213 2.145 . S
Co178 N234 2.257 . S
O179 Co177 2.143 1_554 S
O179 Co178 2.160 . S
C180 O181 1.278 . S
C180 O188 1.224 . S
O181 C180 1.278 . S
C182 O183 1.245 . S
C182 O194 1.232 . S
O183 C182 1.245 . S
O184 Co178 2.058 . S
O184 C210 1.269 . S
O185 Co177 2.074 . S
O185 C210 1.257 1_556 S
H186 C211 0.930 . S
H187 C217 0.930 . S
O188 Co177 2.093 . S
O188 C180 1.224 . S
H189 C221 0.929 . S
H190 C223 0.930 . S
H191 C224 0.930 . S
H192 C222 0.929 . S
H193 C225 0.928 . S
O194 Co178 2.057 . S
O194 C182 1.232 . S
H195 C214 0.929 . S
H196 C215 0.929 . S
H197 C227 0.931 . S
H198 C219 0.929 . S
H199 C228 0.930 . S
H200 C220 0.931 . S
O201 Co177 2.097 . S
O201 C229 1.214 . S
H202 C230 0.929 . S
H203 C231 0.929 . S
H204 C232 0.930 . S
H205 C233 0.929 . S
H206 C235 0.930 . S
H207 C212 0.930 . S
H208 C216 0.930 . S
O209 Co178 2.037 . S
O209 C229 1.234 1_554 S
C210 O184 1.269 . S
C210 O185 1.257 1_554 S
C211 H186 0.930 . S
C211 C214 1.388 . S
C211 C216 1.418 . S
C212 H207 0.930 . S
C212 C215 1.404 . S
C212 C216 1.353 . S
N213 Co178 2.145 . S
N213 C214 1.397 . S
N213 C215 1.334 . S
C214 H195 0.929 . S
C214 C211 1.388 . S
C214 N213 1.397 . S
C215 H196 0.929 . S
C215 C212 1.404 . S
C215 N213 1.334 . S
C216 H208 0.930 . S
C216 C211 1.418 . S
C216 C212 1.353 . S
C217 H187 0.930 . S
C217 N218 1.330 . S
C217 C219 1.446 . S
N218 Co177 2.151 . S
N218 C217 1.330 . S
N218 C222 1.418 . S
C219 H198 0.929 . S
C219 C217 1.446 . S
C219 C220 1.332 . S
C220 H200 0.931 . S
C220 C219 1.332 . S
C220 C221 1.267 . S
C221 H189 0.929 . S
C221 C220 1.267 . S
C221 C222 1.251 . S
C222 H192 0.929 . S
C222 N218 1.418 . S
C222 C221 1.251 . S
C223 H190 0.930 . S
C223 C225 1.406 . S
C223 C228 1.261 . S
C224 H191 0.930 . S
C224 N226 1.325 . S
C224 C227 1.357 . S
C225 H193 0.928 . S
C225 C223 1.406 . S
C225 N226 1.261 . S
N226 Co177 2.214 . S
N226 C224 1.325 . S
N226 C225 1.261 . S
C227 H197 0.931 . S
C227 C224 1.357 . S
C227 C228 1.312 . S
C228 H199 0.930 . S
C228 C223 1.261 . S
C228 C227 1.312 . S
C229 O201 1.214 . S
C229 O209 1.234 1_556 S
C230 H202 0.929 . S
C230 C233 1.391 . S
C230 C235 1.391 . S
C231 H203 0.929 . S
C231 C232 1.390 . S
C231 N234 1.391 . S
C232 H204 0.930 . S
C232 C231 1.390 . S
C232 C233 1.392 . S
C233 H205 0.929 . S
C233 C230 1.391 . S
C233 C232 1.392 . S
N234 Co178 2.257 . S
N234 C231 1.391 . S
N234 C235 1.388 . S
C235 H206 0.930 . S
C235 C230 1.391 . S
C235 N234 1.388 . S
Co236 O238 2.143 . S
Co236 O244 2.074 . S
Co236 O247 2.093 1_455 S
Co236 O260 2.097 1_455 S
Co236 N277 2.151 . S
Co236 N285 2.214 . S
Co237 O238 2.160 1_655 S
Co237 O243 2.058 1_655 S
Co237 O253 2.057 1_655 S
Co237 O268 2.037 . S
Co237 N272 2.145 . S
Co237 N293 2.257 . S
O238 Co236 2.143 . S
O238 Co237 2.160 1_455 S
C239 O240 1.278 . S
C239 O247 1.224 . S
O240 C239 1.278 . S
C241 O242 1.245 . S
C241 O253 1.232 . S
O242 C241 1.245 . S
O243 Co237 2.058 1_455 S
O243 C269 1.269 . S
O244 Co236 2.074 . S
O244 C269 1.257 . S
H245 C270 0.930 . S
H246 C276 0.930 . S
O247 Co236 2.093 1_655 S
O247 C239 1.224 . S
H248 C280 0.929 . S
H249 C282 0.930 . S
H250 C283 0.940 . S
H251 C281 0.929 . S
H252 C284 0.928 . S
O253 Co237 2.057 1_455 S
O253 C241 1.232 . S
H254 C273 0.929 . S
H255 C274 0.929 . S
H256 C286 0.931 . S
H257 C278 0.929 . S
H258 C287 0.930 . S
H259 C279 0.931 . S
O260 Co236 2.097 1_655 S
O260 C288 1.214 . S
H261 C289 0.929 . S
H262 C290 0.929 . S
H263 C291 0.930 . S
H264 C292 0.929 . S
H265 C294 0.930 . S
H266 C271 0.930 . S
H267 C275 0.930 . S
O268 Co237 2.037 . S
O268 C288 1.234 . S
C269 O243 1.269 . S
C269 O244 1.257 . S
C270 H245 0.930 . S
C270 C273 1.388 . S
C270 C275 1.418 . S
C271 H266 0.930 . S
C271 C274 1.404 . S
C271 C275 1.353 . S
N272 Co237 2.145 . S
N272 C273 1.397 . S
N272 C274 1.334 . S
C273 H254 0.929 . S
C273 C270 1.388 . S
C273 N272 1.397 . S
C274 H255 0.929 . S
C274 C271 1.404 . S
C274 N272 1.334 . S
C275 H267 0.930 . S
C275 C270 1.418 . S
C275 C271 1.353 . S
C276 H246 0.930 . S
C276 N277 1.330 . S
C276 C278 1.446 . S
N277 Co236 2.151 . S
N277 C276 1.330 . S
N277 C281 1.418 . S
C278 H257 0.929 . S
C278 C276 1.446 . S
C278 C279 1.332 . S
C279 H259 0.931 . S
C279 C278 1.332 . S
C279 C280 1.267 . S
C280 H248 0.929 . S
C280 C279 1.267 . S
C280 C281 1.251 . S
C281 H251 0.929 . S
C281 N277 1.418 . S
C281 C280 1.251 . S
C282 H249 0.930 . S
C282 C284 1.406 . S
C282 C287 1.261 . S
C283 H250 0.940 . S
C283 N285 1.326 . S
C283 C286 1.347 1_556 S
C284 H252 0.928 . S
C284 C282 1.406 . S
C284 N285 1.261 1_554 S
N285 Co236 2.214 . S
N285 C283 1.326 . S
N285 C284 1.261 1_556 S
C286 H256 0.931 . S
C286 C283 1.347 1_554 S
C286 C287 1.312 . S
C287 H258 0.930 . S
C287 C282 1.261 . S
C287 C286 1.312 . S
C288 O260 1.214 . S
C288 O268 1.234 . S
C289 H261 0.929 . S
C289 C292 1.391 . S
C289 C294 1.391 . S
C290 H262 0.929 . S
C290 C291 1.390 . S
C290 N293 1.391 . S
C291 H263 0.930 . S
C291 C290 1.390 . S
C291 C292 1.392 . S
C292 H264 0.929 . S
C292 C289 1.391 . S
C292 C291 1.392 . S
N293 Co237 2.257 . S
N293 C290 1.391 . S
N293 C294 1.388 . S
C294 H265 0.930 . S
C294 C289 1.391 . S
C294 N293 1.388 . S
Co295 O297 2.143 . S
Co295 O303 2.074 . S
Co295 O306 2.093 . S
Co295 O319 2.097 . S
Co295 N336 2.151 . S
Co295 N344 2.214 . S
Co296 O297 2.160 . S
Co296 O302 2.058 . S
Co296 O312 2.057 1_554 S
Co296 O327 2.037 . S
Co296 N331 2.145 1_554 S
Co296 N352 2.257 . S
O297 Co295 2.143 . S
O297 Co296 2.160 . S
C298 O299 1.278 . S
C298 O306 1.224 . S
O299 C298 1.278 . S
C300 O301 1.245 1_556 S
C300 O312 1.232 . S
O301 C300 1.245 1_554 S
O302 Co296 2.058 . S
O302 C328 1.269 . S
O303 Co295 2.074 . S
O303 C328 1.257 . S
H304 C329 0.930 . S
H305 C335 0.930 . S
O306 Co295 2.093 . S
O306 C298 1.224 . S
H307 C339 0.929 . S
H308 C341 0.930 . S
H309 C342 0.930 . S
H310 C340 0.929 . S
H311 C343 0.928 . S
O312 Co296 2.057 1_556 S
O312 C300 1.232 . S
H313 C332 0.929 1_554 S
H314 C333 0.929 . S
H315 C345 0.931 . S
H316 C337 0.929 . S
H317 C346 0.930 . S
H318 C338 0.931 . S
O319 Co295 2.097 . S
O319 C347 1.214 . S
H320 C348 0.929 . S
H321 C349 0.929 . S
H322 C350 0.930 . S
H323 C351 0.929 . S
H324 C353 0.930 . S
H325 C330 0.930 . S
H326 C334 0.930 . S
O327 Co296 2.037 . S
O327 C347 1.234 . S
C328 O302 1.269 . S
C328 O303 1.257 . S
C329 H304 0.930 . S
C329 C332 1.388 . S
C329 C334 1.418 . S
C330 H325 0.930 . S
C330 C333 1.404 . S
C330 C334 1.353 . S
N331 Co296 2.145 1_556 S
N331 C332 1.397 . S
N331 C333 1.334 . S
C332 H313 0.929 1_556 S
C332 C329 1.388 . S
C332 N331 1.397 . S
C333 H314 0.929 . S
C333 C330 1.404 . S
C333 N331 1.334 . S
C334 H326 0.930 . S
C334 C329 1.418 . S
C334 C330 1.353 . S
C335 H305 0.930 . S
C335 N336 1.330 . S
C335 C337 1.446 . S
N336 Co295 2.151 . S
N336 C335 1.330 . S
N336 C340 1.418 . S
C337 H316 0.929 . S
C337 C335 1.446 . S
C337 C338 1.332 . S
C338 H318 0.931 . S
C338 C337 1.332 . S
C338 C339 1.267 . S
C339 H307 0.929 . S
C339 C338 1.267 . S
C339 C340 1.251 . S
C340 H310 0.929 . S
C340 N336 1.418 . S
C340 C339 1.251 . S
C341 H308 0.930 . S
C341 C343 1.406 . S
C341 C346 1.261 . S
C342 H309 0.930 . S
C342 N344 1.325 . S
C342 C345 1.357 . S
C343 H311 0.928 . S
C343 C341 1.406 . S
C343 N344 1.261 . S
N344 Co295 2.214 . S
N344 C342 1.325 . S
N344 C343 1.261 . S
C345 H315 0.931 . S
C345 C342 1.357 . S
C345 C346 1.312 . S
C346 H317 0.930 . S
C346 C341 1.261 . S
C346 C345 1.312 . S
C347 O319 1.214 . S
C347 O327 1.234 . S
C348 H320 0.929 . S
C348 C351 1.391 . S
C348 C353 1.391 . S
C349 H321 0.929 . S
C349 C350 1.390 . S
C349 N352 1.391 . S
C350 H322 0.930 . S
C350 C349 1.390 . S
C350 C351 1.392 . S
C351 H323 0.929 . S
C351 C348 1.391 . S
C351 C350 1.392 . S
N352 Co296 2.257 . S
N352 C349 1.391 . S
N352 C353 1.388 . S
C353 H324 0.930 . S
C353 C348 1.391 . S
C353 N352 1.388 . S
Co354 O356 2.143 . S
Co354 O362 2.074 . S
Co354 O365 2.093 . S
Co354 O378 2.097 . S
Co354 N395 2.151 . S
Co354 N403 2.214 . S
Co355 O356 2.160 . S
Co355 O361 2.058 . S
Co355 O371 2.057 . S
Co355 O386 2.037 . S
Co355 N390 2.145 . S
Co355 N411 2.257 . S
O356 Co354 2.143 . S
O356 Co355 2.160 . S
C357 O358 1.278 . S
C357 O365 1.224 . S
O358 C357 1.278 . S
C359 O360 1.245 . S
C359 O371 1.232 . S
O360 C359 1.245 . S
O361 Co355 2.058 . S
O361 C387 1.269 . S
O362 Co354 2.074 . S
O362 C387 1.257 . S
H363 C388 0.930 . S
H364 C394 0.930 . S
O365 Co354 2.093 . S
O365 C357 1.224 . S
H366 C398 0.929 . S
H367 C400 0.930 . S
H368 C401 0.930 . S
H369 C399 0.929 . S
H370 C402 0.928 . S
O371 Co355 2.057 . S
O371 C359 1.232 . S
H372 C391 0.929 . S
H373 C392 0.929 . S
H374 C404 0.931 . S
H375 C396 0.929 . S
H376 C405 0.930 . S
H377 C397 0.931 . S
O378 Co354 2.097 . S
O378 C406 1.214 . S
H379 C407 0.929 . S
H380 C408 0.929 . S
H381 C409 0.930 . S
H382 C410 0.929 . S
H383 C412 0.930 . S
H384 C389 0.930 . S
H385 C393 0.930 . S
O386 Co355 2.037 . S
O386 C406 1.234 . S
C387 O361 1.269 . S
C387 O362 1.257 . S
C388 H363 0.930 . S
C388 C391 1.388 . S
C388 C393 1.418 . S
C389 H384 0.930 . S
C389 C392 1.404 . S
C389 C393 1.353 . S
N390 Co355 2.145 . S
N390 C391 1.397 . S
N390 C392 1.334 . S
C391 H372 0.929 . S
C391 C388 1.388 . S
C391 N390 1.397 . S
C392 H373 0.929 . S
C392 C389 1.404 . S
C392 N390 1.334 . S
C393 H385 0.930 . S
C393 C388 1.418 . S
C393 C389 1.353 . S
C394 H364 0.930 . S
C394 N395 1.330 . S
C394 C396 1.446 . S
N395 Co354 2.151 . S
N395 C394 1.330 . S
N395 C399 1.418 . S
C396 H375 0.929 . S
C396 C394 1.446 . S
C396 C397 1.332 . S
C397 H377 0.931 . S
C397 C396 1.332 . S
C397 C398 1.267 . S
C398 H366 0.929 . S
C398 C397 1.267 . S
C398 C399 1.251 . S
C399 H369 0.929 . S
C399 N395 1.418 . S
C399 C398 1.251 . S
C400 H367 0.930 . S
C400 C402 1.406 . S
C400 C405 1.261 . S
C401 H368 0.930 . S
C401 N403 1.325 . S
C401 C404 1.357 . S
C402 H370 0.928 . S
C402 C400 1.406 . S
C402 N403 1.261 . S
N403 Co354 2.214 . S
N403 C401 1.325 . S
N403 C402 1.261 . S
C404 H374 0.931 . S
C404 C401 1.357 . S
C404 C405 1.312 . S
C405 H376 0.930 . S
C405 C400 1.261 . S
C405 C404 1.312 . S
C406 O378 1.214 . S
C406 O386 1.234 . S
C407 H379 0.929 . S
C407 C410 1.391 . S
C407 C412 1.391 . S
C408 H380 0.929 . S
C408 C409 1.390 . S
C408 N411 1.391 . S
C409 H381 0.930 . S
C409 C408 1.390 . S
C409 C410 1.392 . S
C410 H382 0.929 . S
C410 C407 1.391 . S
C410 C409 1.392 . S
N411 Co355 2.257 . S
N411 C408 1.391 . S
N411 C412 1.388 . S
C412 H383 0.930 . S
C412 C407 1.391 . S
C412 N411 1.388 . S
Co413 O415 2.143 . S
Co413 O421 2.074 . S
Co413 O424 2.093 . S
Co413 O437 2.097 . S
Co413 N454 2.151 . S
Co413 N462 2.214 . S
Co414 O415 2.160 . S
Co414 O420 2.058 . S
Co414 O430 2.057 . S
Co414 O445 2.037 . S
Co414 N449 2.145 . S
Co414 N470 2.257 . S
O415 Co413 2.143 . S
O415 Co414 2.160 . S
C416 O417 1.278 . S
C416 O424 1.224 . S
O417 C416 1.278 . S
C418 O419 1.245 . S
C418 O430 1.232 . S
O419 C418 1.245 . S
O420 Co414 2.058 . S
O420 C446 1.269 . S
O421 Co413 2.074 . S
O421 C446 1.257 . S
H422 C447 0.930 . S
H423 C453 0.930 . S
O424 Co413 2.093 . S
O424 C416 1.224 . S
H425 C457 0.929 . S
H426 C459 0.930 . S
H427 C460 0.930 . S
H428 C458 0.929 . S
H429 C461 0.928 . S
O430 Co414 2.057 . S
O430 C418 1.232 . S
H431 C450 0.929 . S
H432 C451 0.929 . S
H433 C463 0.931 . S
H434 C455 0.929 . S
H435 C464 0.930 . S
H436 C456 0.931 . S
O437 Co413 2.097 . S
O437 C465 1.214 . S
H438 C466 0.929 . S
H439 C467 0.929 . S
H440 C468 0.930 . S
H441 C469 0.929 . S
H442 C471 0.930 . S
H443 C448 0.930 . S
H444 C452 0.930 . S
O445 Co414 2.037 . S
O445 C465 1.234 . S
C446 O420 1.269 . S
C446 O421 1.257 . S
C447 H422 0.930 . S
C447 C450 1.388 . S
C447 C452 1.418 . S
C448 H443 0.930 . S
C448 C451 1.404 . S
C448 C452 1.353 . S
N449 Co414 2.145 . S
N449 C450 1.397 . S
N449 C451 1.334 . S
C450 H431 0.929 . S
C450 C447 1.388 . S
C450 N449 1.397 . S
C451 H432 0.929 . S
C451 C448 1.404 . S
C451 N449 1.334 . S
C452 H444 0.930 . S
C452 C447 1.418 . S
C452 C448 1.353 . S
C453 H423 0.930 . S
C453 N454 1.330 . S
C453 C455 1.446 . S
N454 Co413 2.151 . S
N454 C453 1.330 . S
N454 C458 1.418 . S
C455 H434 0.929 . S
C455 C453 1.446 . S
C455 C456 1.332 . S
C456 H436 0.931 . S
C456 C455 1.332 . S
C456 C457 1.267 . S
C457 H425 0.929 . S
C457 C456 1.267 . S
C457 C458 1.251 . S
C458 H428 0.929 . S
C458 N454 1.418 . S
C458 C457 1.251 . S
C459 H426 0.930 . S
C459 C461 1.406 . S
C459 C464 1.261 . S
C460 H427 0.930 . S
C460 N462 1.325 . S
C460 C463 1.357 . S
C461 H429 0.928 . S
C461 C459 1.406 . S
C461 N462 1.261 . S
N462 Co413 2.214 . S
N462 C460 1.325 . S
N462 C461 1.261 . S
C463 H433 0.931 . S
C463 C460 1.357 . S
C463 C464 1.312 . S
C464 H435 0.930 . S
C464 C459 1.261 . S
C464 C463 1.312 . S
C465 O437 1.214 . S
C465 O445 1.234 . S
C466 H438 0.929 . S
C466 C469 1.391 . S
C466 C471 1.391 . S
C467 H439 0.929 . S
C467 C468 1.390 . S
C467 N470 1.391 . S
C468 H440 0.930 . S
C468 C467 1.390 . S
C468 C469 1.392 . S
C469 H441 0.929 . S
C469 C466 1.391 . S
C469 C468 1.392 . S
N470 Co414 2.257 . S
N470 C467 1.391 . S
N470 C471 1.388 . S
C471 H442 0.930 . S
C471 C466 1.391 . S
C471 N470 1.388 . S
Co472 O474 2.143 . S
Co472 O480 2.074 . S
Co472 O483 2.093 . S
Co472 O496 2.097 . S
Co472 N513 2.151 . S
Co472 N521 2.214 . S
Co473 O474 2.160 . S
Co473 O479 2.058 . S
Co473 O489 2.057 . S
Co473 O504 2.037 . S
Co473 N508 2.145 . S
Co473 N529 2.257 . S
O474 Co472 2.143 . S
O474 Co473 2.160 . S
C475 O476 1.278 . S
C475 O483 1.224 . S
O476 C475 1.278 . S
C477 O478 1.245 . S
C477 O489 1.232 . S
O478 C477 1.245 . S
O479 Co473 2.058 . S
O479 C505 1.269 . S
O480 Co472 2.074 . S
O480 C505 1.257 . S
H481 C506 0.930 . S
H482 C512 0.930 . S
O483 Co472 2.093 . S
O483 C475 1.224 . S
H484 C516 0.929 . S
H485 C518 0.930 . S
H486 C519 0.930 . S
H487 C517 0.929 . S
H488 C520 0.928 . S
O489 Co473 2.057 . S
O489 C477 1.232 . S
H490 C509 0.929 . S
H491 C510 0.929 . S
H492 C522 0.931 . S
H493 C514 0.929 . S
H494 C523 0.930 . S
H495 C515 0.931 . S
O496 Co472 2.097 . S
O496 C524 1.214 . S
H497 C525 0.929 . S
H498 C526 0.929 . S
H499 C527 0.930 . S
H500 C528 0.929 . S
H501 C530 0.930 . S
H502 C507 0.930 . S
H503 C511 0.930 . S
O504 Co473 2.037 . S
O504 C524 1.234 . S
C505 O479 1.269 . S
C505 O480 1.257 . S
C506 H481 0.930 . S
C506 C509 1.388 . S
C506 C511 1.418 . S
C507 H502 0.930 . S
C507 C510 1.404 . S
C507 C511 1.353 . S
N508 Co473 2.145 . S
N508 C509 1.397 . S
N508 C510 1.334 . S
C509 H490 0.929 . S
C509 C506 1.388 . S
C509 N508 1.397 . S
C510 H491 0.929 . S
C510 C507 1.404 . S
C510 N508 1.334 . S
C511 H503 0.930 . S
C511 C506 1.418 . S
C511 C507 1.353 . S
C512 H482 0.930 . S
C512 N513 1.330 . S
C512 C514 1.446 . S
N513 Co472 2.151 . S
N513 C512 1.330 . S
N513 C517 1.418 . S
C514 H493 0.929 . S
C514 C512 1.446 . S
C514 C515 1.332 . S
C515 H495 0.931 . S
C515 C514 1.332 . S
C515 C516 1.267 . S
C516 H484 0.929 . S
C516 C515 1.267 . S
C516 C517 1.251 . S
C517 H487 0.929 . S
C517 N513 1.418 . S
C517 C516 1.251 . S
C518 H485 0.930 . S
C518 C520 1.406 . S
C518 C523 1.261 . S
C519 H486 0.930 . S
C519 N521 1.325 . S
C519 C522 1.357 . S
C520 H488 0.928 . S
C520 C518 1.406 . S
C520 N521 1.261 . S
N521 Co472 2.214 . S
N521 C519 1.325 . S
N521 C520 1.261 . S
C522 H492 0.931 . S
C522 C519 1.357 . S
C522 C523 1.312 . S
C523 H494 0.930 . S
C523 C518 1.261 . S
C523 C522 1.312 . S
C524 O496 1.214 . S
C524 O504 1.234 . S
C525 H497 0.929 . S
C525 C528 1.391 . S
C525 C530 1.391 . S
C526 H498 0.929 . S
C526 C527 1.390 . S
C526 N529 1.391 . S
C527 H499 0.930 . S
C527 C526 1.390 . S
C527 C528 1.392 . S
C528 H500 0.929 . S
C528 C525 1.391 . S
C528 C527 1.392 . S
N529 Co473 2.257 . S
N529 C526 1.391 . S
N529 C530 1.388 . S
C530 H501 0.930 . S
C530 C525 1.391 . S
C530 N529 1.388 . S
Co531 O533 2.143 . S
Co531 O539 2.074 . S
Co531 O542 2.093 . S
Co531 O555 2.097 . S
Co531 N572 2.151 . S
Co531 N580 2.214 . S
Co532 O533 2.160 . S
Co532 O538 2.058 . S
Co532 O548 2.057 1_554 S
Co532 O563 2.037 . S
Co532 N567 2.145 1_554 S
Co532 N588 2.257 . S
O533 Co531 2.143 . S
O533 Co532 2.160 . S
C534 O535 1.278 . S
C534 O542 1.224 . S
O535 C534 1.278 . S
C536 O537 1.245 1_556 S
C536 O548 1.232 . S
O537 C536 1.245 1_554 S
O538 Co532 2.058 . S
O538 C564 1.269 . S
O539 Co531 2.074 . S
O539 C564 1.257 . S
H540 C565 0.930 . S
H541 C571 0.930 . S
O542 Co531 2.093 . S
O542 C534 1.224 . S
H543 C575 0.929 . S
H544 C577 0.930 . S
H545 C578 0.930 . S
H546 C576 0.929 . S
H547 C579 0.928 . S
O548 Co532 2.057 1_556 S
O548 C536 1.232 . S
H549 C568 0.929 1_554 S
H550 C569 0.929 . S
H551 C581 0.931 . S
H552 C573 0.929 . S
H553 C582 0.930 . S
H554 C574 0.931 . S
O555 Co531 2.097 . S
O555 C583 1.214 . S
H556 C584 0.929 . S
H557 C585 0.929 . S
H558 C586 0.930 . S
H559 C587 0.929 . S
H560 C589 0.930 . S
H561 C566 0.930 . S
H562 C570 0.930 . S
O563 Co532 2.037 . S
O563 C583 1.234 . S
C564 O538 1.269 . S
C564 O539 1.257 . S
C565 H540 0.930 . S
C565 C568 1.388 . S
C565 C570 1.418 . S
C566 H561 0.930 . S
C566 C569 1.404 . S
C566 C570 1.353 . S
N567 Co532 2.145 1_556 S
N567 C568 1.397 . S
N567 C569 1.334 . S
C568 H549 0.929 1_556 S
C568 C565 1.388 . S
C568 N567 1.397 . S
C569 H550 0.929 . S
C569 C566 1.404 . S
C569 N567 1.334 . S
C570 H562 0.930 . S
C570 C565 1.418 . S
C570 C566 1.353 . S
C571 H541 0.930 . S
C571 N572 1.330 . S
C571 C573 1.446 . S
N572 Co531 2.151 . S
N572 C571 1.330 . S
N572 C576 1.418 . S
C573 H552 0.929 . S
C573 C571 1.446 . S
C573 C574 1.332 . S
C574 H554 0.931 . S
C574 C573 1.332 . S
C574 C575 1.267 . S
C575 H543 0.929 . S
C575 C574 1.267 . S
C575 C576 1.251 . S
C576 H546 0.929 . S
C576 N572 1.418 . S
C576 C575 1.251 . S
C577 H544 0.930 . S
C577 C579 1.406 . S
C577 C582 1.261 . S
C578 H545 0.930 . S
C578 N580 1.325 . S
C578 C581 1.357 . S
C579 H547 0.928 . S
C579 C577 1.406 . S
C579 N580 1.261 . S
N580 Co531 2.214 . S
N580 C578 1.325 . S
N580 C579 1.261 . S
C581 H551 0.931 . S
C581 C578 1.357 . S
C581 C582 1.312 . S
C582 H553 0.930 . S
C582 C577 1.261 . S
C582 C581 1.312 . S
C583 O555 1.214 . S
C583 O563 1.234 . S
C584 H556 0.929 . S
C584 C587 1.391 . S
C584 C589 1.391 . S
C585 H557 0.929 . S
C585 C586 1.390 . S
C585 N588 1.391 . S
C586 H558 0.930 . S
C586 C585 1.390 . S
C586 C587 1.392 . S
C587 H559 0.929 . S
C587 C584 1.391 . S
C587 C586 1.392 . S
N588 Co532 2.257 . S
N588 C585 1.391 . S
N588 C589 1.388 . S
C589 H560 0.930 . S
C589 C584 1.391 . S
C589 N588 1.388 . S
Co590 O592 2.143 1_556 S
Co590 O598 2.074 . S
Co590 O601 2.093 . S
Co590 O614 2.097 . S
Co590 N631 2.151 . S
Co590 N639 2.214 . S
Co591 O592 2.160 . S
Co591 O597 2.058 . S
Co591 O607 2.057 . S
Co591 O622 2.037 . S
Co591 N626 2.145 . S
Co591 N647 2.257 . S
O592 Co590 2.143 1_554 S
O592 Co591 2.160 . S
C593 O594 1.278 . S
C593 O601 1.224 . S
O594 C593 1.278 . S
C595 O596 1.245 . S
C595 O607 1.232 . S
O596 C595 1.245 . S
O597 Co591 2.058 . S
O597 C623 1.269 . S
O598 Co590 2.074 . S
O598 C623 1.257 1_556 S
H599 C624 0.930 . S
H600 C630 0.930 . S
O601 Co590 2.093 . S
O601 C593 1.224 . S
H602 C634 0.929 . S
H603 C636 0.930 . S
H604 C637 0.930 . S
H605 C635 0.929 . S
H606 C638 0.928 . S
O607 Co591 2.057 . S
O607 C595 1.232 . S
H608 C627 0.929 . S
H609 C628 0.929 . S
H610 C640 0.931 . S
H611 C632 0.929 . S
H612 C641 0.930 . S
H613 C633 0.931 . S
O614 Co590 2.097 . S
O614 C642 1.214 . S
H615 C643 0.929 . S
H616 C644 0.929 . S
H617 C645 0.930 . S
H618 C646 0.929 . S
H619 C648 0.930 . S
H620 C625 0.930 . S
H621 C629 0.930 . S
O622 Co591 2.037 . S
O622 C642 1.234 1_554 S
C623 O597 1.269 . S
C623 O598 1.257 1_554 S
C624 H599 0.930 . S
C624 C627 1.388 . S
C624 C629 1.418 . S
C625 H620 0.930 . S
C625 C628 1.404 . S
C625 C629 1.353 . S
N626 Co591 2.145 . S
N626 C627 1.397 . S
N626 C628 1.334 . S
C627 H608 0.929 . S
C627 C624 1.388 . S
C627 N626 1.397 . S
C628 H609 0.929 . S
C628 C625 1.404 . S
C628 N626 1.334 . S
C629 H621 0.930 . S
C629 C624 1.418 . S
C629 C625 1.353 . S
C630 H600 0.930 . S
C630 N631 1.330 . S
C630 C632 1.446 . S
N631 Co590 2.151 . S
N631 C630 1.330 . S
N631 C635 1.418 . S
C632 H611 0.929 . S
C632 C630 1.446 . S
C632 C633 1.332 . S
C633 H613 0.931 . S
C633 C632 1.332 . S
C633 C634 1.267 . S
C634 H602 0.929 . S
C634 C633 1.267 . S
C634 C635 1.251 . S
C635 H605 0.929 . S
C635 N631 1.418 . S
C635 C634 1.251 . S
C636 H603 0.930 . S
C636 C638 1.406 . S
C636 C641 1.261 . S
C637 H604 0.930 . S
C637 N639 1.325 . S
C637 C640 1.357 . S
C638 H606 0.928 . S
C638 C636 1.406 . S
C638 N639 1.261 . S
N639 Co590 2.214 . S
N639 C637 1.325 . S
N639 C638 1.261 . S
C640 H610 0.931 . S
C640 C637 1.357 . S
C640 C641 1.312 . S
C641 H612 0.930 . S
C641 C636 1.261 . S
C641 C640 1.312 . S
C642 O614 1.214 . S
C642 O622 1.234 1_556 S
C643 H615 0.929 . S
C643 C646 1.391 . S
C643 C648 1.391 . S
C644 H616 0.929 . S
C644 C645 1.390 . S
C644 N647 1.391 . S
C645 H617 0.930 . S
C645 C644 1.390 . S
C645 C646 1.392 . S
C646 H618 0.929 . S
C646 C643 1.391 . S
C646 C645 1.392 . S
N647 Co591 2.257 . S
N647 C644 1.391 . S
N647 C648 1.388 . S
C648 H619 0.930 . S
C648 C643 1.391 . S
C648 N647 1.388 . S
Co649 O651 2.143 . S
Co649 O657 2.074 . S
Co649 O660 2.093 . S
Co649 O673 2.097 . S
Co649 N690 2.151 . S
Co649 N698 2.214 . S
Co650 O651 2.160 . S
Co650 O656 2.058 . S
Co650 O666 2.057 . S
Co650 O681 2.037 . S
Co650 N685 2.145 . S
Co650 N706 2.257 . S
O651 Co649 2.143 . S
O651 Co650 2.160 . S
C652 O653 1.278 . S
C652 O660 1.224 . S
O653 C652 1.278 . S
C654 O655 1.245 . S
C654 O666 1.232 . S
O655 C654 1.245 . S
O656 Co650 2.058 . S
O656 C682 1.269 . S
O657 Co649 2.074 . S
O657 C682 1.257 . S
H658 C683 0.930 . S
H659 C689 0.930 . S
O660 Co649 2.093 . S
O660 C652 1.224 . S
H661 C693 0.929 . S
H662 C695 0.930 . S
H663 C696 0.930 . S
H664 C694 0.929 . S
H665 C697 0.928 . S
O666 Co650 2.057 . S
O666 C654 1.232 . S
H667 C686 0.929 . S
H668 C687 0.929 . S
H669 C699 0.931 . S
H670 C691 0.929 . S
H671 C700 0.930 . S
H672 C692 0.931 . S
O673 Co649 2.097 . S
O673 C701 1.214 . S
H674 C702 0.929 . S
H675 C703 0.929 . S
H676 C704 0.930 . S
H677 C705 0.929 . S
H678 C707 0.930 . S
H679 C684 0.930 . S
H680 C688 0.930 . S
O681 Co650 2.037 . S
O681 C701 1.234 . S
C682 O656 1.269 . S
C682 O657 1.257 . S
C683 H658 0.930 . S
C683 C686 1.388 . S
C683 C688 1.418 . S
C684 H679 0.930 . S
C684 C687 1.404 . S
C684 C688 1.353 . S
N685 Co650 2.145 . S
N685 C686 1.397 . S
N685 C687 1.334 . S
C686 H667 0.929 . S
C686 C683 1.388 . S
C686 N685 1.397 . S
C687 H668 0.929 . S
C687 C684 1.404 . S
C687 N685 1.334 . S
C688 H680 0.930 . S
C688 C683 1.418 . S
C688 C684 1.353 . S
C689 H659 0.930 . S
C689 N690 1.330 . S
C689 C691 1.446 . S
N690 Co649 2.151 . S
N690 C689 1.330 . S
N690 C694 1.418 . S
C691 H670 0.929 . S
C691 C689 1.446 . S
C691 C692 1.332 . S
C692 H672 0.931 . S
C692 C691 1.332 . S
C692 C693 1.267 . S
C693 H661 0.929 . S
C693 C692 1.267 . S
C693 C694 1.251 . S
C694 H664 0.929 . S
C694 N690 1.418 . S
C694 C693 1.251 . S
C695 H662 0.930 . S
C695 C697 1.406 . S
C695 C700 1.261 . S
C696 H663 0.930 . S
C696 N698 1.325 . S
C696 C699 1.357 . S
C697 H665 0.928 . S
C697 C695 1.406 . S
C697 N698 1.261 . S
N698 Co649 2.214 . S
N698 C696 1.325 . S
N698 C697 1.261 . S
C699 H669 0.931 . S
C699 C696 1.357 . S
C699 C700 1.312 . S
C700 H671 0.930 . S
C700 C695 1.261 . S
C700 C699 1.312 . S
C701 O673 1.214 . S
C701 O681 1.234 . S
C702 H674 0.929 . S
C702 C705 1.391 . S
C702 C707 1.391 . S
C703 H675 0.929 . S
C703 C704 1.390 . S
C703 N706 1.391 . S
C704 H676 0.930 . S
C704 C703 1.390 . S
C704 C705 1.392 . S
C705 H677 0.929 . S
C705 C702 1.391 . S
C705 C704 1.392 . S
N706 Co650 2.257 . S
N706 C703 1.391 . S
N706 C707 1.388 . S
C707 H678 0.930 . S
C707 C702 1.391 . S
C707 N706 1.388 . S
Co708 O710 2.143 . S
Co708 O716 2.074 . S
Co708 O719 2.093 . S
Co708 O732 2.097 . S
Co708 N749 2.151 . S
Co708 N757 2.214 . S
Co709 O710 2.160 . S
Co709 O715 2.058 . S
Co709 O725 2.057 . S
Co709 O740 2.037 . S
Co709 N744 2.145 . S
Co709 N765 2.257 . S
O710 Co708 2.143 . S
O710 Co709 2.160 . S
C711 O712 1.278 . S
C711 O719 1.224 . S
O712 C711 1.278 . S
C713 O714 1.245 . S
C713 O725 1.232 . S
O714 C713 1.245 . S
O715 Co709 2.058 . S
O715 C741 1.269 . S
O716 Co708 2.074 . S
O716 C741 1.257 . S
H717 C742 0.930 . S
H718 C748 0.930 . S
O719 Co708 2.093 . S
O719 C711 1.224 . S
H720 C752 0.929 . S
H721 C754 0.930 . S
H722 C755 0.930 . S
H723 C753 0.929 . S
H724 C756 0.928 . S
O725 Co709 2.057 . S
O725 C713 1.232 . S
H726 C745 0.929 . S
H727 C746 0.929 . S
H728 C758 0.931 . S
H729 C750 0.929 . S
H730 C759 0.930 . S
H731 C751 0.931 . S
O732 Co708 2.097 . S
O732 C760 1.214 . S
H733 C761 0.929 . S
H734 C762 0.929 . S
H735 C763 0.930 . S
H736 C764 0.929 . S
H737 C766 0.930 . S
H738 C743 0.930 1_554 S
H739 C747 0.930 . S
O740 Co709 2.037 . S
O740 C760 1.234 . S
C741 O715 1.269 . S
C741 O716 1.257 . S
C742 H717 0.930 . S
C742 C745 1.388 . S
C742 C747 1.418 . S
C743 H738 0.930 1_556 S
C743 C746 1.404 . S
C743 C747 1.353 . S
N744 Co709 2.145 . S
N744 C745 1.397 . S
N744 C746 1.334 . S
C745 H726 0.929 . S
C745 C742 1.388 . S
C745 N744 1.397 . S
C746 H727 0.929 . S
C746 C743 1.404 . S
C746 N744 1.334 . S
C747 H739 0.930 . S
C747 C742 1.418 . S
C747 C743 1.353 . S
C748 H718 0.930 . S
C748 N749 1.330 . S
C748 C750 1.446 . S
N749 Co708 2.151 . S
N749 C748 1.330 . S
N749 C753 1.418 . S
C750 H729 0.929 . S
C750 C748 1.446 . S
C750 C751 1.332 . S
C751 H731 0.931 . S
C751 C750 1.332 . S
C751 C752 1.267 . S
C752 H720 0.929 . S
C752 C751 1.267 . S
C752 C753 1.251 . S
C753 H723 0.929 . S
C753 N749 1.418 . S
C753 C752 1.251 . S
C754 H721 0.930 . S
C754 C756 1.406 . S
C754 C759 1.261 . S
C755 H722 0.930 . S
C755 N757 1.325 . S
C755 C758 1.357 . S
C756 H724 0.928 . S
C756 C754 1.406 . S
C756 N757 1.261 . S
N757 Co708 2.214 . S
N757 C755 1.325 . S
N757 C756 1.261 . S
C758 H728 0.931 . S
C758 C755 1.357 . S
C758 C759 1.312 . S
C759 H730 0.930 . S
C759 C754 1.261 . S
C759 C758 1.312 . S
C760 O732 1.214 . S
C760 O740 1.234 . S
C761 H733 0.929 . S
C761 C764 1.391 . S
C761 C766 1.391 . S
C762 H734 0.929 . S
C762 C763 1.390 . S
C762 N765 1.391 . S
C763 H735 0.930 . S
C763 C762 1.390 . S
C763 C764 1.392 . S
C764 H736 0.929 . S
C764 C761 1.391 . S
C764 C763 1.392 . S
N765 Co709 2.257 . S
N765 C762 1.391 . S
N765 C766 1.388 . S
C766 H737 0.930 . S
C766 C761 1.391 . S
C766 N765 1.388 . S
Co767 O769 2.155 . S
Co767 O775 2.074 . S
Co767 O778 2.093 1_655 S
Co767 O791 2.097 1_655 S
Co767 N808 2.151 . S
Co767 N816 2.214 . S
Co768 O769 2.145 1_455 S
Co768 O774 2.058 1_455 S
Co768 O784 2.052 1_455 S
Co768 O799 2.037 . S
Co768 N803 2.145 . S
Co768 N824 2.257 . S
O769 Co767 2.155 . S
O769 Co768 2.145 1_655 S
C770 O771 1.278 . S
C770 O778 1.224 . S
O771 C770 1.278 . S
C772 O773 1.245 . S
C772 O784 1.242 . S
O773 C772 1.245 . S
O774 Co768 2.058 1_655 S
O774 C800 1.269 . S
O775 Co767 2.074 . S
O775 C800 1.257 . S
H776 C801 0.930 . S
H777 C807 0.930 . S
O778 Co767 2.093 1_455 S
O778 C770 1.224 . S
H779 C811 0.929 . S
H780 C813 0.920 1_556 S
H781 C814 0.930 . S
H782 C812 0.929 . S
H783 C815 0.928 . S
O784 Co768 2.052 1_655 S
O784 C772 1.242 . S
H785 C804 0.929 . S
H786 C805 0.929 . S
H787 C817 0.931 . S
H788 C809 0.929 . S
H789 C818 0.932 1_556 S
H790 C810 0.931 . S
O791 Co767 2.097 1_455 S
O791 C819 1.214 . S
H792 C820 0.929 . S
H793 C821 0.929 . S
H794 C822 0.930 . S
H795 C823 0.929 . S
H796 C825 0.930 . S
H797 C802 0.930 . S
H798 C806 0.930 . S
O799 Co768 2.037 . S
O799 C819 1.234 . S
C800 O774 1.269 . S
C800 O775 1.257 . S
C801 H776 0.930 . S
C801 C804 1.388 . S
C801 C806 1.418 . S
C802 H797 0.930 . S
C802 C805 1.404 . S
C802 C806 1.353 . S
N803 Co768 2.145 . S
N803 C804 1.397 . S
N803 C805 1.334 . S
C804 H785 0.929 . S
C804 C801 1.388 . S
C804 N803 1.397 . S
C805 H786 0.929 . S
C805 C802 1.404 . S
C805 N803 1.334 . S
C806 H798 0.930 . S
C806 C801 1.418 . S
C806 C802 1.353 . S
C807 H777 0.930 . S
C807 N808 1.330 . S
C807 C809 1.446 . S
N808 Co767 2.151 . S
N808 C807 1.330 . S
N808 C812 1.418 . S
C809 H788 0.929 . S
C809 C807 1.446 . S
C809 C810 1.332 . S
C810 H790 0.931 . S
C810 C809 1.332 . S
C810 C811 1.267 . S
C811 H779 0.929 . S
C811 C810 1.267 . S
C811 C812 1.251 . S
C812 H782 0.929 . S
C812 N808 1.418 . S
C812 C811 1.251 . S
C813 H780 0.920 1_554 S
C813 C815 1.415 . S
C813 C818 1.260 . S
C814 H781 0.930 . S
C814 N816 1.325 . S
C814 C817 1.357 . S
C815 H783 0.928 . S
C815 C813 1.415 . S
C815 N816 1.261 . S
N816 Co767 2.214 . S
N816 C814 1.325 . S
N816 C815 1.261 . S
C817 H787 0.931 . S
C817 C814 1.357 . S
C817 C818 1.311 . S
C818 H789 0.932 1_554 S
C818 C813 1.260 . S
C818 C817 1.311 . S
C819 O791 1.214 . S
C819 O799 1.234 . S
C820 H792 0.929 . S
C820 C823 1.391 . S
C820 C825 1.391 . S
C821 H793 0.929 . S
C821 C822 1.390 . S
C821 N824 1.391 . S
C822 H794 0.930 . S
C822 C821 1.390 . S
C822 C823 1.392 . S
C823 H795 0.929 . S
C823 C820 1.391 . S
C823 C822 1.392 . S
N824 Co768 2.257 . S
N824 C821 1.391 . S
N824 C825 1.388 . S
C825 H796 0.930 . S
C825 C820 1.391 . S
C825 N824 1.388 . S
Co826 O828 2.143 . S
Co826 O834 2.074 . S
Co826 O837 2.093 . S
Co826 O850 2.097 . S
Co826 N867 2.151 . S
Co826 N875 2.214 . S
Co827 O828 2.160 . S
Co827 O833 2.058 . S
Co827 O843 2.057 . S
Co827 O858 2.037 . S
Co827 N862 2.145 . S
Co827 N883 2.257 . S
O828 Co826 2.143 . S
O828 Co827 2.160 . S
C829 O830 1.278 . S
C829 O837 1.224 . S
O830 C829 1.278 . S
C831 O832 1.245 . S
C831 O843 1.232 . S
O832 C831 1.245 . S
O833 Co827 2.058 . S
O833 C859 1.269 . S
O834 Co826 2.074 . S
O834 C859 1.257 . S
H835 C860 0.930 . S
H836 C866 0.930 . S
O837 Co826 2.093 . S
O837 C829 1.224 . S
H838 C870 0.929 . S
H839 C872 0.930 . S
H840 C873 0.930 . S
H841 C871 0.929 . S
H842 C874 0.928 . S
O843 Co827 2.057 . S
O843 C831 1.232 . S
H844 C863 0.929 . S
H845 C864 0.929 . S
H846 C876 0.931 . S
H847 C868 0.929 . S
H848 C877 0.930 . S
H849 C869 0.931 . S
O850 Co826 2.097 . S
O850 C878 1.214 . S
H851 C879 0.929 . S
H852 C880 0.929 . S
H853 C881 0.930 . S
H854 C882 0.929 . S
H855 C884 0.930 . S
H856 C861 0.930 . S
H857 C865 0.930 . S
O858 Co827 2.037 . S
O858 C878 1.234 . S
C859 O833 1.269 . S
C859 O834 1.257 . S
C860 H835 0.930 . S
C860 C863 1.388 . S
C860 C865 1.418 . S
C861 H856 0.930 . S
C861 C864 1.404 . S
C861 C865 1.353 . S
N862 Co827 2.145 . S
N862 C863 1.397 . S
N862 C864 1.334 . S
C863 H844 0.929 . S
C863 C860 1.388 . S
C863 N862 1.397 . S
C864 H845 0.929 . S
C864 C861 1.404 . S
C864 N862 1.334 . S
C865 H857 0.930 . S
C865 C860 1.418 . S
C865 C861 1.353 . S
C866 H836 0.930 . S
C866 N867 1.330 . S
C866 C868 1.446 . S
N867 Co826 2.151 . S
N867 C866 1.330 . S
N867 C871 1.418 . S
C868 H847 0.929 . S
C868 C866 1.446 . S
C868 C869 1.332 . S
C869 H849 0.931 . S
C869 C868 1.332 . S
C869 C870 1.267 . S
C870 H838 0.929 . S
C870 C869 1.267 . S
C870 C871 1.251 . S
C871 H841 0.929 . S
C871 N867 1.418 . S
C871 C870 1.251 . S
C872 H839 0.930 . S
C872 C874 1.406 . S
C872 C877 1.261 . S
C873 H840 0.930 . S
C873 N875 1.325 . S
C873 C876 1.357 . S
C874 H842 0.928 . S
C874 C872 1.406 . S
C874 N875 1.261 . S
N875 Co826 2.214 . S
N875 C873 1.325 . S
N875 C874 1.261 . S
C876 H846 0.931 . S
C876 C873 1.357 . S
C876 C877 1.312 . S
C877 H848 0.930 . S
C877 C872 1.261 . S
C877 C876 1.312 . S
C878 O850 1.214 . S
C878 O858 1.234 . S
C879 H851 0.929 . S
C879 C882 1.391 . S
C879 C884 1.391 . S
C880 H852 0.929 . S
C880 C881 1.390 . S
C880 N883 1.391 . S
C881 H853 0.930 . S
C881 C880 1.390 . S
C881 C882 1.392 . S
C882 H854 0.929 . S
C882 C879 1.391 . S
C882 C881 1.392 . S
N883 Co827 2.257 . S
N883 C880 1.391 . S
N883 C884 1.388 . S
C884 H855 0.930 . S
C884 C879 1.391 . S
C884 N883 1.388 . S
Co885 O887 2.155 . S
Co885 O893 2.074 . S
Co885 O896 2.093 1_655 S
Co885 O909 2.097 1_655 S
Co885 N926 2.151 . S
Co885 N934 2.214 . S
Co886 O887 2.145 1_455 S
Co886 O892 2.058 1_455 S
Co886 O902 2.052 1_455 S
Co886 O917 2.037 . S
Co886 N921 2.145 . S
Co886 N942 2.257 . S
O887 Co885 2.155 . S
O887 Co886 2.145 1_655 S
C888 O889 1.278 . S
C888 O896 1.224 . S
O889 C888 1.278 . S
C890 O891 1.245 . S
C890 O902 1.242 . S
O891 C890 1.245 . S
O892 Co886 2.058 1_655 S
O892 C918 1.269 . S
O893 Co885 2.074 . S
O893 C918 1.257 . S
H894 C919 0.930 . S
H895 C925 0.930 . S
O896 Co885 2.093 1_455 S
O896 C888 1.224 . S
H897 C929 0.929 . S
H898 C931 0.930 . S
H899 C932 0.940 . S
H900 C930 0.929 . S
H901 C933 0.928 . S
O902 Co886 2.052 1_655 S
O902 C890 1.242 . S
H903 C922 0.929 . S
H904 C923 0.929 . S
H905 C935 0.931 . S
H906 C927 0.929 . S
H907 C936 0.930 . S
H908 C928 0.931 . S
O909 Co885 2.097 1_455 S
O909 C937 1.214 . S
H910 C938 0.929 . S
H911 C939 0.929 . S
H912 C940 0.930 . S
H913 C941 0.929 . S
H914 C943 0.930 . S
H915 C920 0.930 . S
H916 C924 0.930 . S
O917 Co886 2.037 . S
O917 C937 1.234 . S
C918 O892 1.269 . S
C918 O893 1.257 . S
C919 H894 0.930 . S
C919 C922 1.388 . S
C919 C924 1.418 . S
C920 H915 0.930 . S
C920 C923 1.404 . S
C920 C924 1.353 . S
N921 Co886 2.145 . S
N921 C922 1.397 . S
N921 C923 1.334 . S
C922 H903 0.929 . S
C922 C919 1.388 . S
C922 N921 1.397 . S
C923 H904 0.929 . S
C923 C920 1.404 . S
C923 N921 1.334 . S
C924 H916 0.930 . S
C924 C919 1.418 . S
C924 C920 1.353 . S
C925 H895 0.930 . S
C925 N926 1.330 . S
C925 C927 1.446 . S
N926 Co885 2.151 . S
N926 C925 1.330 . S
N926 C930 1.418 . S
C927 H906 0.929 . S
C927 C925 1.446 . S
C927 C928 1.332 . S
C928 H908 0.931 . S
C928 C927 1.332 . S
C928 C929 1.267 . S
C929 H897 0.929 . S
C929 C928 1.267 . S
C929 C930 1.251 . S
C930 H900 0.929 . S
C930 N926 1.418 . S
C930 C929 1.251 . S
C931 H898 0.930 . S
C931 C933 1.406 . S
C931 C936 1.261 . S
C932 H899 0.940 . S
C932 N934 1.326 . S
C932 C935 1.347 1_556 S
C933 H901 0.928 . S
C933 C931 1.406 . S
C933 N934 1.261 1_554 S
N934 Co885 2.214 . S
N934 C932 1.326 . S
N934 C933 1.261 1_556 S
C935 H905 0.931 . S
C935 C932 1.347 1_554 S
C935 C936 1.312 . S
C936 H907 0.930 . S
C936 C931 1.261 . S
C936 C935 1.312 . S
C937 O909 1.214 . S
C937 O917 1.234 . S
C938 H910 0.929 . S
C938 C941 1.391 . S
C938 C943 1.391 . S
C939 H911 0.929 . S
C939 C940 1.390 . S
C939 N942 1.391 . S
C940 H912 0.930 . S
C940 C939 1.390 . S
C940 C941 1.392 . S
C941 H913 0.929 . S
C941 C938 1.391 . S
C941 C940 1.392 . S
N942 Co886 2.257 . S
N942 C939 1.391 . S
N942 C943 1.388 . S
C943 H914 0.930 . S
C943 C938 1.391 . S
C943 N942 1.388 . S
H944 C950 0.930 . S
H945 C954 0.930 . S
H946 C959 0.929 . S
H947 C957 0.929 . S
H948 C952 0.929 . S
H949 C958 0.929 . S
C950 H944 0.930 . S
C950 C951 1.367 . S
C950 C958 1.378 . S
C951 C950 1.367 . S
C951 C959 1.433 . S
C952 H948 0.929 . S
C952 C954 1.378 . S
C952 C956 1.350 . S
C953 C956 1.463 . S
C953 C958 1.350 . S
C953 N961 1.427 . S
C954 H945 0.930 . S
C954 C952 1.378 . S
C954 C955 1.367 . S
C955 C954 1.367 . S
C955 C957 1.433 . S
C956 C952 1.350 . S
C956 C953 1.463 . S
C956 N960 1.427 . S
C957 H947 0.929 . S
C957 C955 1.433 . S
C957 N960 1.384 . S
C958 H949 0.929 . S
C958 C950 1.378 . S
C958 C953 1.350 . S
C959 H946 0.929 . S
C959 C951 1.433 . S
C959 N961 1.384 . S
N960 C956 1.427 . S
N960 C957 1.384 . S
N961 C953 1.427 . S
N961 C959 1.384 . S
H962 C968 0.930 . S
H963 C972 0.930 . S
H964 C977 0.929 . S
H965 C975 0.929 . S
H966 C970 0.929 . S
H967 C976 0.929 . S
C968 H962 0.930 . S
C968 C969 1.367 . S
C968 C976 1.378 . S
C969 C968 1.367 . S
C969 C977 1.433 . S
C970 H966 0.929 . S
C970 C972 1.378 . S
C970 C974 1.350 . S
C971 C974 1.463 . S
C971 C976 1.350 . S
C971 N979 1.427 . S
C972 H963 0.930 . S
C972 C970 1.378 . S
C972 C973 1.367 . S
C973 C972 1.367 . S
C973 C975 1.433 . S
C974 C970 1.350 . S
C974 C971 1.463 . S
C974 N978 1.427 . S
C975 H965 0.929 . S
C975 C973 1.433 . S
C975 N978 1.384 . S
C976 H967 0.929 . S
C976 C968 1.378 . S
C976 C971 1.350 . S
C977 H964 0.929 . S
C977 C969 1.433 . S
C977 N979 1.384 . S
N978 C974 1.427 . S
N978 C975 1.384 . S
N979 C971 1.427 . S
N979 C977 1.384 . S
H980 C986 0.930 . S
H981 C990 0.930 . S
H982 C995 0.929 . S
H983 C993 0.929 . S
H984 C988 0.929 . S
H985 C994 0.929 . S
C986 H980 0.930 . S
C986 C987 1.367 . S
C986 C994 1.378 . S
C987 C986 1.367 . S
C987 C995 1.433 . S
C988 H984 0.929 . S
C988 C990 1.378 . S
C988 C992 1.350 . S
C989 C992 1.463 . S
C989 C994 1.350 . S
C989 N997 1.427 . S
C990 H981 0.930 . S
C990 C988 1.378 . S
C990 C991 1.367 . S
C991 C990 1.367 . S
C991 C993 1.433 . S
C992 C988 1.350 . S
C992 C989 1.463 . S
C992 N996 1.427 . S
C993 H983 0.929 . S
C993 C991 1.433 . S
C993 N996 1.384 . S
C994 H985 0.929 . S
C994 C986 1.378 . S
C994 C989 1.350 . S
C995 H982 0.929 . S
C995 C987 1.433 . S
C995 N997 1.384 . S
N996 C992 1.427 . S
N996 C993 1.384 . S
N997 C989 1.427 . S
N997 C995 1.384 . S
H998 C1004 0.930 . S
H999 C1008 0.930 . S
H1000 C1013 0.929 . S
H1001 C1011 0.929 . S
H1002 C1006 0.929 . S
H1003 C1012 0.929 . S
C1004 H998 0.930 . S
C1004 C1005 1.367 . S
C1004 C1012 1.378 . S
C1005 C1004 1.367 . S
C1005 C1013 1.433 1_556 S
C1006 H1002 0.929 . S
C1006 C1008 1.378 . S
C1006 C1010 1.350 . S
C1007 C1010 1.463 . S
C1007 C1012 1.350 . S
C1007 N1015 1.427 . S
C1008 H999 0.930 . S
C1008 C1006 1.378 . S
C1008 C1009 1.367 . S
C1009 C1008 1.367 . S
C1009 C1011 1.433 . S
C1010 C1006 1.350 . S
C1010 C1007 1.463 . S
C1010 N1014 1.427 . S
C1011 H1001 0.929 . S
C1011 C1009 1.433 . S
C1011 N1014 1.384 . S
C1012 H1003 0.929 . S
C1012 C1004 1.378 . S
C1012 C1007 1.350 . S
C1013 H1000 0.929 . S
C1013 C1005 1.433 1_554 S
C1013 N1015 1.384 1_554 S
N1014 C1010 1.427 . S
N1014 C1011 1.384 . S
N1015 C1007 1.427 . S
N1015 C1013 1.384 1_556 S
H1016 C1022 0.930 . S
H1017 C1026 0.930 . S
H1018 C1031 0.929 . S
H1019 C1029 0.929 . S
H1020 C1024 0.929 . S
H1021 C1030 0.929 . S
C1022 H1016 0.930 . S
C1022 C1023 1.367 . S
C1022 C1030 1.378 . S
C1023 C1022 1.367 . S
C1023 C1031 1.433 . S
C1024 H1020 0.929 . S
C1024 C1026 1.378 1_556 S
C1024 C1028 1.350 . S
C1025 C1028 1.463 . S
C1025 C1030 1.350 . S
C1025 N1033 1.427 . S
C1026 H1017 0.930 . S
C1026 C1024 1.378 1_554 S
C1026 C1027 1.367 1_554 S
C1027 C1026 1.367 1_556 S
C1027 C1029 1.433 . S
C1028 C1024 1.350 . S
C1028 C1025 1.463 . S
C1028 N1032 1.427 . S
C1029 H1019 0.929 . S
C1029 C1027 1.433 . S
C1029 N1032 1.384 . S
C1030 H1021 0.929 . S
C1030 C1022 1.378 . S
C1030 C1025 1.350 . S
C1031 H1018 0.929 . S
C1031 C1023 1.433 . S
C1031 N1033 1.384 . S
N1032 C1028 1.427 . S
N1032 C1029 1.384 . S
N1033 C1025 1.427 . S
N1033 C1031 1.384 . S
H1034 C1040 0.930 . S
H1035 C1044 0.930 . S
H1036 C1049 0.929 . S
H1037 C1047 0.929 . S
H1038 C1042 0.929 . S
H1039 C1048 0.929 . S
C1040 H1034 0.930 . S
C1040 C1041 1.367 . S
C1040 C1048 1.378 . S
C1041 C1040 1.367 . S
C1041 C1049 1.433 . S
C1042 H1038 0.929 . S
C1042 C1044 1.378 . S
C1042 C1046 1.350 . S
C1043 C1046 1.463 . S
C1043 C1048 1.350 . S
C1043 N1051 1.427 . S
C1044 H1035 0.930 . S
C1044 C1042 1.378 . S
C1044 C1045 1.367 . S
C1045 C1044 1.367 . S
C1045 C1047 1.433 . S
C1046 C1042 1.350 . S
C1046 C1043 1.463 . S
C1046 N1050 1.427 . S
C1047 H1037 0.929 . S
C1047 C1045 1.433 . S
C1047 N1050 1.384 . S
C1048 H1039 0.929 . S
C1048 C1040 1.378 . S
C1048 C1043 1.350 . S
C1049 H1036 0.929 . S
C1049 C1041 1.433 . S
C1049 N1051 1.384 . S
N1050 C1046 1.427 . S
N1050 C1047 1.384 . S
N1051 C1043 1.427 . S
N1051 C1049 1.384 . S
H1052 C1058 0.930 . S
H1053 C1062 0.930 . S
H1054 C1067 0.929 . S
H1055 C1065 0.929 . S
H1056 C1060 0.929 . S
H1057 C1066 0.929 . S
C1058 H1052 0.930 . S
C1058 C1059 1.367 . S
C1058 C1066 1.378 . S
C1059 C1058 1.367 . S
C1059 C1067 1.433 . S
C1060 H1056 0.929 . S
C1060 C1062 1.378 . S
C1060 C1064 1.350 . S
C1061 C1064 1.463 . S
C1061 C1066 1.350 . S
C1061 N1069 1.427 . S
C1062 H1053 0.930 . S
C1062 C1060 1.378 . S
C1062 C1063 1.367 . S
C1063 C1062 1.367 . S
C1063 C1065 1.433 . S
C1064 C1060 1.350 . S
C1064 C1061 1.463 . S
C1064 N1068 1.427 . S
C1065 H1055 0.929 . S
C1065 C1063 1.433 . S
C1065 N1068 1.384 . S
C1066 H1057 0.929 . S
C1066 C1058 1.378 . S
C1066 C1061 1.350 . S
C1067 H1054 0.929 . S
C1067 C1059 1.433 . S
C1067 N1069 1.384 . S
N1068 C1064 1.427 . S
N1068 C1065 1.384 . S
N1069 C1061 1.427 . S
N1069 C1067 1.384 . S
H1070 C1076 0.930 . S
H1071 C1080 0.930 . S
H1072 C1085 0.929 . S
H1073 C1083 0.929 . S
H1074 C1078 0.929 . S
H1075 C1084 0.929 . S
C1076 H1070 0.930 . S
C1076 C1077 1.367 . S
C1076 C1084 1.378 . S
C1077 C1076 1.367 . S
C1077 C1085 1.433 . S
C1078 H1074 0.929 . S
C1078 C1080 1.378 . S
C1078 C1082 1.350 . S
C1079 C1082 1.463 . S
C1079 C1084 1.350 . S
C1079 N1087 1.427 . S
C1080 H1071 0.930 . S
C1080 C1078 1.378 . S
C1080 C1081 1.367 . S
C1081 C1080 1.367 . S
C1081 C1083 1.433 . S
C1082 C1078 1.350 . S
C1082 C1079 1.463 . S
C1082 N1086 1.427 . S
C1083 H1073 0.929 . S
C1083 C1081 1.433 . S
C1083 N1086 1.384 . S
C1084 H1075 0.929 . S
C1084 C1076 1.378 . S
C1084 C1079 1.350 . S
C1085 H1072 0.929 . S
C1085 C1077 1.433 . S
C1085 N1087 1.384 . S
N1086 C1082 1.427 . S
N1086 C1083 1.384 . S
N1087 C1079 1.427 . S
N1087 C1085 1.384 . S
H1088 C1094 0.930 . S
H1089 C1098 0.930 . S
H1090 C1103 0.929 . S
H1091 C1101 0.929 1_554 S
H1092 C1096 0.929 . S
H1093 C1102 0.929 . S
C1094 H1088 0.930 . S
C1094 C1095 1.367 . S
C1094 C1102 1.378 . S
C1095 C1094 1.367 . S
C1095 C1103 1.433 . S
C1096 H1092 0.929 . S
C1096 C1098 1.378 . S
C1096 C1100 1.350 . S
C1097 C1100 1.463 . S
C1097 C1102 1.350 . S
C1097 N1105 1.427 . S
C1098 H1089 0.930 . S
C1098 C1096 1.378 . S
C1098 C1099 1.367 . S
C1099 C1098 1.367 . S
C1099 C1101 1.433 . S
C1100 C1096 1.350 . S
C1100 C1097 1.463 . S
C1100 N1104 1.427 . S
C1101 H1091 0.929 1_556 S
C1101 C1099 1.433 . S
C1101 N1104 1.384 . S
C1102 H1093 0.929 . S
C1102 C1094 1.378 . S
C1102 C1097 1.350 . S
C1103 H1090 0.929 . S
C1103 C1095 1.433 . S
C1103 N1105 1.384 . S
N1104 C1100 1.427 . S
N1104 C1101 1.384 . S
N1105 C1097 1.427 . S
N1105 C1103 1.384 . S
H1106 C1112 0.930 . S
H1107 C1116 0.930 . S
H1108 C1121 0.929 . S
H1109 C1119 0.929 . S
H1110 C1114 0.929 . S
H1111 C1120 0.929 . S
C1112 H1106 0.930 . S
C1112 C1113 1.367 . S
C1112 C1120 1.378 . S
C1113 C1112 1.367 . S
C1113 C1121 1.433 . S
C1114 H1110 0.929 . S
C1114 C1116 1.378 . S
C1114 C1118 1.350 . S
C1115 C1118 1.463 . S
C1115 C1120 1.350 . S
C1115 N1123 1.427 . S
C1116 H1107 0.930 . S
C1116 C1114 1.378 . S
C1116 C1117 1.367 . S
C1117 C1116 1.367 . S
C1117 C1119 1.433 . S
C1118 C1114 1.350 . S
C1118 C1115 1.463 . S
C1118 N1122 1.427 . S
C1119 H1109 0.929 . S
C1119 C1117 1.433 . S
C1119 N1122 1.384 . S
C1120 H1111 0.929 . S
C1120 C1112 1.378 . S
C1120 C1115 1.350 . S
C1121 H1108 0.929 . S
C1121 C1113 1.433 . S
C1121 N1123 1.384 . S
N1122 C1118 1.427 . S
N1122 C1119 1.384 . S
N1123 C1115 1.427 . S
N1123 C1121 1.384 . S
H1124 C1130 0.930 . S
H1125 C1134 0.930 . S
H1126 C1139 0.929 . S
H1127 C1137 0.929 . S
H1128 C1132 0.929 . S
H1129 C1138 0.929 . S
C1130 H1124 0.930 . S
C1130 C1131 1.367 . S
C1130 C1138 1.378 . S
C1131 C1130 1.367 . S
C1131 C1139 1.433 . S
C1132 H1128 0.929 . S
C1132 C1134 1.378 . S
C1132 C1136 1.350 . S
C1133 C1136 1.463 . S
C1133 C1138 1.350 . S
C1133 N1141 1.427 . S
C1134 H1125 0.930 . S
C1134 C1132 1.378 . S
C1134 C1135 1.367 . S
C1135 C1134 1.367 . S
C1135 C1137 1.433 . S
C1136 C1132 1.350 . S
C1136 C1133 1.463 . S
C1136 N1140 1.427 . S
C1137 H1127 0.929 . S
C1137 C1135 1.433 . S
C1137 N1140 1.384 . S
C1138 H1129 0.929 . S
C1138 C1130 1.378 . S
C1138 C1133 1.350 . S
C1139 H1126 0.929 . S
C1139 C1131 1.433 . S
C1139 N1141 1.384 . S
N1140 C1136 1.427 . S
N1140 C1137 1.384 . S
N1141 C1133 1.427 . S
N1141 C1139 1.384 . S
H1142 C1148 0.930 . S
H1143 C1152 0.930 . S
H1144 C1157 0.929 . S
H1145 C1155 0.929 . S
H1146 C1150 0.929 . S
H1147 C1156 0.929 . S
C1148 H1142 0.930 . S
C1148 C1149 1.367 . S
C1148 C1156 1.378 . S
C1149 C1148 1.367 . S
C1149 C1157 1.433 . S
C1150 H1146 0.929 . S
C1150 C1152 1.378 . S
C1150 C1154 1.350 . S
C1151 C1154 1.463 . S
C1151 C1156 1.350 . S
C1151 N1159 1.427 . S
C1152 H1143 0.930 . S
C1152 C1150 1.378 . S
C1152 C1153 1.367 . S
C1153 C1152 1.367 . S
C1153 C1155 1.433 . S
C1154 C1150 1.350 . S
C1154 C1151 1.463 . S
C1154 N1158 1.427 . S
C1155 H1145 0.929 . S
C1155 C1153 1.433 . S
C1155 N1158 1.384 . S
C1156 H1147 0.929 . S
C1156 C1148 1.378 . S
C1156 C1151 1.350 . S
C1157 H1144 0.929 . S
C1157 C1149 1.433 . S
C1157 N1159 1.384 . S
N1158 C1154 1.427 . S
N1158 C1155 1.384 . S
N1159 C1151 1.427 . S
N1159 C1157 1.384 . S
H1160 C1166 0.930 . S
H1161 C1170 0.930 . S
H1162 C1175 0.929 . S
H1163 C1173 0.929 . S
H1164 C1168 0.929 . S
H1165 C1174 0.929 . S
C1166 H1160 0.930 . S
C1166 C1167 1.367 . S
C1166 C1174 1.378 . S
C1167 C1166 1.367 . S
C1167 C1175 1.433 . S
C1168 H1164 0.929 . S
C1168 C1170 1.378 . S
C1168 C1172 1.350 . S
C1169 C1172 1.463 . S
C1169 C1174 1.350 . S
C1169 N1177 1.427 . S
C1170 H1161 0.930 . S
C1170 C1168 1.378 . S
C1170 C1171 1.367 . S
C1171 C1170 1.367 . S
C1171 C1173 1.433 . S
C1172 C1168 1.350 . S
C1172 C1169 1.463 . S
C1172 N1176 1.427 . S
C1173 H1163 0.929 . S
C1173 C1171 1.433 . S
C1173 N1176 1.384 . S
C1174 H1165 0.929 . S
C1174 C1166 1.378 . S
C1174 C1169 1.350 . S
C1175 H1162 0.929 . S
C1175 C1167 1.433 . S
C1175 N1177 1.384 . S
N1176 C1172 1.427 . S
N1176 C1173 1.384 . S
N1177 C1169 1.427 . S
N1177 C1175 1.384 . S
H1178 C1184 0.930 . S
H1179 C1188 0.930 . S
H1180 C1193 0.929 . S
H1181 C1191 0.929 . S
H1182 C1186 0.929 . S
H1183 C1192 0.929 . S
C1184 H1178 0.930 . S
C1184 C1185 1.367 . S
C1184 C1192 1.378 . S
C1185 C1184 1.367 . S
C1185 C1193 1.433 . S
C1186 H1182 0.929 . S
C1186 C1188 1.378 . S
C1186 C1190 1.350 . S
C1187 C1190 1.463 . S
C1187 C1192 1.350 . S
C1187 N1195 1.427 . S
C1188 H1179 0.930 . S
C1188 C1186 1.378 . S
C1188 C1189 1.367 . S
C1189 C1188 1.367 . S
C1189 C1191 1.433 . S
C1190 C1186 1.350 . S
C1190 C1187 1.463 . S
C1190 N1194 1.427 . S
C1191 H1181 0.929 . S
C1191 C1189 1.433 . S
C1191 N1194 1.384 . S
C1192 H1183 0.929 . S
C1192 C1184 1.378 . S
C1192 C1187 1.350 . S
C1193 H1180 0.929 . S
C1193 C1185 1.433 . S
C1193 N1195 1.384 . S
N1194 C1190 1.427 . S
N1194 C1191 1.384 . S
N1195 C1187 1.427 . S
N1195 C1193 1.384 . S
H1196 C1202 0.930 . S
H1197 C1206 0.930 . S
H1198 C1211 0.929 . S
H1199 C1209 0.929 . S
H1200 C1204 0.929 . S
H1201 C1210 0.929 . S
C1202 H1196 0.930 . S
C1202 C1203 1.367 . S
C1202 C1210 1.378 . S
C1203 C1202 1.367 . S
C1203 C1211 1.433 . S
C1204 H1200 0.929 . S
C1204 C1206 1.378 . S
C1204 C1208 1.350 . S
C1205 C1208 1.463 . S
C1205 C1210 1.350 . S
C1205 N1213 1.427 . S
C1206 H1197 0.930 . S
C1206 C1204 1.378 . S
C1206 C1207 1.367 . S
C1207 C1206 1.367 . S
C1207 C1209 1.433 . S
C1208 C1204 1.350 . S
C1208 C1205 1.463 . S
C1208 N1212 1.427 . S
C1209 H1199 0.929 . S
C1209 C1207 1.433 . S
C1209 N1212 1.384 . S
C1210 H1201 0.929 . S
C1210 C1202 1.378 . S
C1210 C1205 1.350 . S
C1211 H1198 0.929 . S
C1211 C1203 1.433 . S
C1211 N1213 1.384 . S
N1212 C1208 1.427 . S
N1212 C1209 1.384 . S
N1213 C1205 1.427 . S
N1213 C1211 1.384 . S
H1214 C1220 0.930 . S
H1215 C1224 0.930 . S
H1216 C1229 0.929 . S
H1217 C1227 0.929 . S
H1218 C1222 0.929 . S
H1219 C1228 0.929 . S
C1220 H1214 0.930 . S
C1220 C1221 1.367 . S
C1220 C1228 1.378 . S
C1221 C1220 1.367 . S
C1221 C1229 1.433 . S
C1222 H1218 0.929 . S
C1222 C1224 1.378 . S
C1222 C1226 1.350 . S
C1223 C1226 1.463 . S
C1223 C1228 1.350 . S
C1223 N1231 1.427 . S
C1224 H1215 0.930 . S
C1224 C1222 1.378 . S
C1224 C1225 1.367 . S
C1225 C1224 1.367 . S
C1225 C1227 1.433 . S
C1226 C1222 1.350 . S
C1226 C1223 1.463 . S
C1226 N1230 1.427 . S
C1227 H1217 0.929 . S
C1227 C1225 1.433 . S
C1227 N1230 1.384 . S
C1228 H1219 0.929 . S
C1228 C1220 1.378 . S
C1228 C1223 1.350 . S
C1229 H1216 0.929 . S
C1229 C1221 1.433 . S
C1229 N1231 1.384 . S
N1230 C1226 1.427 . S
N1230 C1227 1.384 . S
N1231 C1223 1.427 . S
N1231 C1229 1.384 . S
H1232 C1238 0.930 . S
H1233 C1242 0.930 . S
H1234 C1247 0.929 . S
H1235 C1245 0.929 . S
H1236 C1240 0.929 . S
H1237 C1246 0.929 . S
C1238 H1232 0.930 . S
C1238 C1239 1.367 1_455 S
C1238 C1246 1.378 . S
C1239 C1238 1.367 1_655 S
C1239 C1247 1.433 . S
C1240 H1236 0.929 . S
C1240 C1242 1.378 . S
C1240 C1244 1.350 1_556 S
C1241 C1244 1.463 . S
C1241 C1246 1.350 1_655 S
C1241 N1249 1.427 . S
C1242 H1233 0.930 . S
C1242 C1240 1.378 . S
C1242 C1243 1.367 . S
C1243 C1242 1.367 . S
C1243 C1245 1.433 1_655 S
C1244 C1240 1.350 1_554 S
C1244 C1241 1.463 . S
C1244 N1248 1.427 1_655 S
C1245 H1235 0.929 . S
C1245 C1243 1.433 1_455 S
C1245 N1248 1.384 1_556 S
C1246 H1237 0.929 . S
C1246 C1238 1.378 . S
C1246 C1241 1.350 1_455 S
C1247 H1234 0.929 . S
C1247 C1239 1.433 . S
C1247 N1249 1.384 . S
N1248 C1244 1.427 1_455 S
N1248 C1245 1.384 1_554 S
N1249 C1241 1.427 . S
N1249 C1247 1.384 . S
H1250 C1256 0.930 . S
H1251 C1260 0.930 . S
H1252 C1265 0.929 . S
H1253 C1263 0.929 . S
H1254 C1258 0.929 . S
H1255 C1264 0.929 . S
C1256 H1250 0.930 . S
C1256 C1257 1.367 . S
C1256 C1264 1.378 . S
C1257 C1256 1.367 . S
C1257 C1265 1.433 . S
C1258 H1254 0.929 . S
C1258 C1260 1.378 . S
C1258 C1262 1.350 . S
C1259 C1262 1.463 . S
C1259 C1264 1.350 . S
C1259 N1267 1.427 . S
C1260 H1251 0.930 . S
C1260 C1258 1.378 . S
C1260 C1261 1.367 . S
C1261 C1260 1.367 . S
C1261 C1263 1.433 . S
C1262 C1258 1.350 . S
C1262 C1259 1.463 . S
C1262 N1266 1.427 . S
C1263 H1253 0.929 . S
C1263 C1261 1.433 . S
C1263 N1266 1.384 . S
C1264 H1255 0.929 . S
C1264 C1256 1.378 . S
C1264 C1259 1.350 . S
C1265 H1252 0.929 . S
C1265 C1257 1.433 . S
C1265 N1267 1.384 . S
N1266 C1262 1.427 . S
N1266 C1263 1.384 . S
N1267 C1259 1.427 . S
N1267 C1265 1.384 . S
H1268 C1274 0.930 . S
H1269 C1278 0.930 . S
H1270 C1283 0.929 . S
H1271 C1281 0.929 . S
H1272 C1276 0.929 . S
H1273 C1282 0.929 . S
C1274 H1268 0.930 . S
C1274 C1275 1.367 . S
C1274 C1282 1.378 . S
C1275 C1274 1.367 . S
C1275 C1283 1.433 . S
C1276 H1272 0.929 . S
C1276 C1278 1.378 . S
C1276 C1280 1.350 . S
C1277 C1280 1.463 . S
C1277 C1282 1.350 . S
C1277 N1285 1.427 . S
C1278 H1269 0.930 . S
C1278 C1276 1.378 . S
C1278 C1279 1.367 . S
C1279 C1278 1.367 . S
C1279 C1281 1.433 . S
C1280 C1276 1.350 . S
C1280 C1277 1.463 . S
C1280 N1284 1.427 . S
C1281 H1271 0.929 . S
C1281 C1279 1.433 . S
C1281 N1284 1.384 . S
C1282 H1273 0.929 . S
C1282 C1274 1.378 . S
C1282 C1277 1.350 . S
C1283 H1270 0.929 . S
C1283 C1275 1.433 . S
C1283 N1285 1.384 . S
N1284 C1280 1.427 . S
N1284 C1281 1.384 . S
N1285 C1277 1.427 . S
N1285 C1283 1.384 . S
H1286 C1292 0.930 . S
H1287 C1296 0.930 . S
H1288 C1301 0.929 . S
H1289 C1299 0.929 . S
H1290 C1294 0.929 . S
H1291 C1300 0.929 . S
C1292 H1286 0.930 . S
C1292 C1293 1.367 . S
C1292 C1300 1.378 . S
C1293 C1292 1.367 . S
C1293 C1301 1.433 . S
C1294 H1290 0.929 . S
C1294 C1296 1.378 . S
C1294 C1298 1.350 . S
C1295 C1298 1.463 . S
C1295 C1300 1.350 . S
C1295 N1303 1.427 . S
C1296 H1287 0.930 . S
C1296 C1294 1.378 . S
C1296 C1297 1.367 . S
C1297 C1296 1.367 . S
C1297 C1299 1.433 . S
C1298 C1294 1.350 . S
C1298 C1295 1.463 . S
C1298 N1302 1.427 . S
C1299 H1289 0.929 . S
C1299 C1297 1.433 . S
C1299 N1302 1.384 . S
C1300 H1291 0.929 . S
C1300 C1292 1.378 . S
C1300 C1295 1.350 . S
C1301 H1288 0.929 . S
C1301 C1293 1.433 . S
C1301 N1303 1.384 . S
N1302 C1298 1.427 . S
N1302 C1299 1.384 . S
N1303 C1295 1.427 . S
N1303 C1301 1.384 . S
H1304 C1310 0.930 . S
H1305 C1314 0.930 . S
H1306 C1319 0.929 . S
H1307 C1317 0.929 . S
H1308 C1312 0.929 . S
H1309 C1318 0.929 . S
C1310 H1304 0.930 . S
C1310 C1311 1.367 . S
C1310 C1318 1.378 . S
C1311 C1310 1.367 . S
C1311 C1319 1.433 . S
C1312 H1308 0.929 . S
C1312 C1314 1.378 . S
C1312 C1316 1.350 . S
C1313 C1316 1.463 . S
C1313 C1318 1.350 . S
C1313 N1321 1.427 . S
C1314 H1305 0.930 . S
C1314 C1312 1.378 . S
C1314 C1315 1.367 . S
C1315 C1314 1.367 . S
C1315 C1317 1.433 . S
C1316 C1312 1.350 . S
C1316 C1313 1.463 . S
C1316 N1320 1.427 . S
C1317 H1307 0.929 . S
C1317 C1315 1.433 . S
C1317 N1320 1.384 . S
C1318 H1309 0.929 . S
C1318 C1310 1.378 . S
C1318 C1313 1.350 . S
C1319 H1306 0.929 . S
C1319 C1311 1.433 . S
C1319 N1321 1.384 . S
N1320 C1316 1.427 . S
N1320 C1317 1.384 . S
N1321 C1313 1.427 . S
N1321 C1319 1.384 . S
H1322 C1328 0.930 . S
H1323 C1332 0.930 . S
H1324 C1337 0.929 . S
H1325 C1335 0.929 . S
H1326 C1330 0.929 . S
H1327 C1336 0.929 . S
C1328 H1322 0.930 . S
C1328 C1329 1.367 . S
C1328 C1336 1.378 . S
C1329 C1328 1.367 . S
C1329 C1337 1.433 . S
C1330 H1326 0.929 . S
C1330 C1332 1.378 . S
C1330 C1334 1.350 . S
C1331 C1334 1.463 . S
C1331 C1336 1.350 . S
C1331 N1339 1.427 . S
C1332 H1323 0.930 . S
C1332 C1330 1.378 . S
C1332 C1333 1.367 . S
C1333 C1332 1.367 . S
C1333 C1335 1.433 . S
C1334 C1330 1.350 . S
C1334 C1331 1.463 . S
C1334 N1338 1.427 . S
C1335 H1325 0.929 . S
C1335 C1333 1.433 . S
C1335 N1338 1.384 . S
C1336 H1327 0.929 . S
C1336 C1328 1.378 . S
C1336 C1331 1.350 . S
C1337 H1324 0.929 . S
C1337 C1329 1.433 . S
C1337 N1339 1.384 . S
N1338 C1334 1.427 . S
N1338 C1335 1.384 . S
N1339 C1331 1.427 . S
N1339 C1337 1.384 . S
H1340 C1346 0.930 . S
H1341 C1350 0.930 . S
H1342 C1355 0.929 . S
H1343 C1353 0.929 . S
H1344 C1348 0.929 1_565 S
H1345 C1354 0.929 1_545 S
C1346 H1340 0.930 . S
C1346 C1347 1.367 . S
C1346 C1354 1.378 . S
C1347 C1346 1.367 . S
C1347 C1355 1.433 . S
C1348 H1344 0.929 1_545 S
C1348 C1350 1.378 . S
C1348 C1352 1.350 . S
C1349 C1352 1.463 1_565 S
C1349 C1354 1.350 . S
C1349 N1357 1.427 . S
C1350 H1341 0.930 . S
C1350 C1348 1.378 . S
C1350 C1351 1.367 . S
C1351 C1350 1.367 . S
C1351 C1353 1.433 . S
C1352 C1348 1.350 . S
C1352 C1349 1.463 1_545 S
C1352 N1356 1.427 . S
C1353 H1343 0.929 . S
C1353 C1351 1.433 . S
C1353 N1356 1.384 . S
C1354 H1345 0.929 1_565 S
C1354 C1346 1.378 . S
C1354 C1349 1.350 . S
C1355 H1342 0.929 . S
C1355 C1347 1.433 . S
C1355 N1357 1.384 . S
N1356 C1352 1.427 . S
N1356 C1353 1.384 . S
N1357 C1349 1.427 . S
N1357 C1355 1.384 . S
H1358 C1364 0.930 1_554 S
H1359 C1368 0.930 . S
H1360 C1373 0.929 . S
H1361 C1371 0.929 . S
H1362 C1366 0.929 . S
H1363 C1372 0.929 . S
C1364 H1358 0.930 1_556 S
C1364 C1365 1.367 . S
C1364 C1372 1.378 1_556 S
C1365 C1364 1.367 . S
C1365 C1373 1.433 . S
C1366 H1362 0.929 . S
C1366 C1368 1.378 . S
C1366 C1370 1.350 . S
C1367 C1370 1.463 1_545 S
C1367 C1372 1.350 . S
C1367 N1375 1.427 1_554 S
C1368 H1359 0.930 . S
C1368 C1366 1.378 . S
C1368 C1369 1.367 . S
C1369 C1368 1.367 . S
C1369 C1371 1.433 . S
C1370 C1366 1.350 . S
C1370 C1367 1.463 1_565 S
C1370 N1374 1.427 . S
C1371 H1361 0.929 . S
C1371 C1369 1.433 . S
C1371 N1374 1.384 . S
C1372 H1363 0.929 . S
C1372 C1364 1.378 1_554 S
C1372 C1367 1.350 . S
C1373 H1360 0.929 . S
C1373 C1365 1.433 . S
C1373 N1375 1.384 . S
N1374 C1370 1.427 . S
N1374 C1371 1.384 . S
N1375 C1367 1.427 1_556 S
N1375 C1373 1.384 . S
H1376 C1382 0.930 1_655 S
H1377 C1386 0.930 . S
H1378 C1391 0.929 . S
H1379 C1389 0.929 1_655 S
H1380 C1384 0.929 . S
H1381 C1390 0.929 1_655 S
C1382 H1376 0.930 1_455 S
C1382 C1383 1.367 . S
C1382 C1390 1.378 . S
C1383 C1382 1.367 . S
C1383 C1391 1.433 . S
C1384 H1380 0.929 . S
C1384 C1386 1.378 . S
C1384 C1388 1.350 . S
C1385 C1388 1.463 . S
C1385 C1390 1.350 . S
C1385 N1393 1.427 . S
C1386 H1377 0.930 . S
C1386 C1384 1.378 . S
C1386 C1387 1.367 . S
C1387 C1386 1.367 . S
C1387 C1389 1.433 . S
C1388 C1384 1.350 . S
C1388 C1385 1.463 . S
C1388 N1392 1.427 . S
C1389 H1379 0.929 1_455 S
C1389 C1387 1.433 . S
C1389 N1392 1.384 . S
C1390 H1381 0.929 1_455 S
C1390 C1382 1.378 . S
C1390 C1385 1.350 . S
C1391 H1378 0.929 . S
C1391 C1383 1.433 . S
C1391 N1393 1.384 . S
N1392 C1388 1.427 . S
N1392 C1389 1.384 . S
N1393 C1385 1.427 . S
N1393 C1391 1.384 . S
H1394 C1400 0.930 . S
H1395 C1404 0.930 . S
H1396 C1409 0.929 . S
H1397 C1407 0.929 . S
H1398 C1402 0.929 . S
H1399 C1408 0.929 . S
C1400 H1394 0.930 . S
C1400 C1401 1.367 . S
C1400 C1408 1.378 . S
C1401 C1400 1.367 . S
C1401 C1409 1.433 . S
C1402 H1398 0.929 . S
C1402 C1404 1.378 . S
C1402 C1406 1.350 . S
C1403 C1406 1.463 . S
C1403 C1408 1.350 . S
C1403 N1411 1.427 . S
C1404 H1395 0.930 . S
C1404 C1402 1.378 . S
C1404 C1405 1.367 . S
C1405 C1404 1.367 . S
C1405 C1407 1.433 . S
C1406 C1402 1.350 . S
C1406 C1403 1.463 . S
C1406 N1410 1.427 . S
C1407 H1397 0.929 . S
C1407 C1405 1.433 . S
C1407 N1410 1.384 . S
C1408 H1399 0.929 . S
C1408 C1400 1.378 . S
C1408 C1403 1.350 . S
C1409 H1396 0.929 . S
C1409 C1401 1.433 . S
C1409 N1411 1.384 . S
N1410 C1406 1.427 . S
N1410 C1407 1.384 . S
N1411 C1403 1.427 . S
N1411 C1409 1.384 . S
H1412 C1418 0.930 . S
H1413 C1422 0.930 . S
H1414 C1427 0.929 . S
H1415 C1425 0.929 . S
H1416 C1420 0.929 . S
H1417 C1426 0.929 . S
C1418 H1412 0.930 . S
C1418 C1419 1.367 . S
C1418 C1426 1.378 . S
C1419 C1418 1.367 . S
C1419 C1427 1.433 . S
C1420 H1416 0.929 . S
C1420 C1422 1.378 1_554 S
C1420 C1424 1.350 . S
C1421 C1424 1.463 . S
C1421 C1426 1.350 . S
C1421 N1429 1.427 . S
C1422 H1413 0.930 . S
C1422 C1420 1.378 1_556 S
C1422 C1423 1.367 . S
C1423 C1422 1.367 . S
C1423 C1425 1.433 . S
C1424 C1420 1.350 . S
C1424 C1421 1.463 . S
C1424 N1428 1.427 1_554 S
C1425 H1415 0.929 . S
C1425 C1423 1.433 . S
C1425 N1428 1.384 . S
C1426 H1417 0.929 . S
C1426 C1418 1.378 . S
C1426 C1421 1.350 . S
C1427 H1414 0.929 . S
C1427 C1419 1.433 . S
C1427 N1429 1.384 . S
N1428 C1424 1.427 1_556 S
N1428 C1425 1.384 . S
N1429 C1421 1.427 . S
N1429 C1427 1.384 . S
H1430 C1436 0.930 . S
H1431 C1440 0.930 . S
H1432 C1445 0.929 . S
H1433 C1443 0.929 . S
H1434 C1438 0.929 . S
H1435 C1444 0.929 . S
C1436 H1430 0.930 . S
C1436 C1437 1.367 . S
C1436 C1444 1.378 . S
C1437 C1436 1.367 . S
C1437 C1445 1.433 . S
C1438 H1434 0.929 . S
C1438 C1440 1.378 . S
C1438 C1442 1.350 . S
C1439 C1442 1.463 . S
C1439 C1444 1.350 . S
C1439 N1447 1.427 . S
C1440 H1431 0.930 . S
C1440 C1438 1.378 . S
C1440 C1441 1.367 . S
C1441 C1440 1.367 . S
C1441 C1443 1.433 . S
C1442 C1438 1.350 . S
C1442 C1439 1.463 . S
C1442 N1446 1.427 . S
C1443 H1433 0.929 . S
C1443 C1441 1.433 . S
C1443 N1446 1.384 . S
C1444 H1435 0.929 . S
C1444 C1436 1.378 . S
C1444 C1439 1.350 . S
C1445 H1432 0.929 . S
C1445 C1437 1.433 . S
C1445 N1447 1.384 . S
N1446 C1442 1.427 . S
N1446 C1443 1.384 . S
N1447 C1439 1.427 . S
N1447 C1445 1.384 . S
H1448 C1454 0.930 . S
H1449 C1458 0.930 . S
H1450 C1463 0.929 . S
H1451 C1461 0.929 . S
H1452 C1456 0.929 . S
H1453 C1462 0.929 . S
C1454 H1448 0.930 . S
C1454 C1455 1.367 . S
C1454 C1462 1.378 . S
C1455 C1454 1.367 . S
C1455 C1463 1.433 . S
C1456 H1452 0.929 . S
C1456 C1458 1.378 . S
C1456 C1460 1.350 . S
C1457 C1460 1.463 . S
C1457 C1462 1.350 . S
C1457 N1465 1.427 . S
C1458 H1449 0.930 . S
C1458 C1456 1.378 . S
C1458 C1459 1.367 . S
C1459 C1458 1.367 . S
C1459 C1461 1.433 . S
C1460 C1456 1.350 . S
C1460 C1457 1.463 . S
C1460 N1464 1.427 . S
C1461 H1451 0.929 . S
C1461 C1459 1.433 . S
C1461 N1464 1.384 . S
C1462 H1453 0.929 . S
C1462 C1454 1.378 . S
C1462 C1457 1.350 . S
C1463 H1450 0.929 . S
C1463 C1455 1.433 . S
C1463 N1465 1.384 . S
N1464 C1460 1.427 . S
N1464 C1461 1.384 . S
N1465 C1457 1.427 . S
N1465 C1463 1.384 . S
H1466 C1472 0.930 . S
H1467 C1476 0.930 . S
H1468 C1481 0.929 . S
H1469 C1479 0.929 . S
H1470 C1474 0.929 . S
H1471 C1480 0.929 . S
C1472 H1466 0.930 . S
C1472 C1473 1.367 . S
C1472 C1480 1.378 . S
C1473 C1472 1.367 . S
C1473 C1481 1.433 . S
C1474 H1470 0.929 . S
C1474 C1476 1.378 . S
C1474 C1478 1.350 . S
C1475 C1478 1.463 . S
C1475 C1480 1.350 . S
C1475 N1483 1.427 . S
C1476 H1467 0.930 . S
C1476 C1474 1.378 . S
C1476 C1477 1.367 . S
C1477 C1476 1.367 . S
C1477 C1479 1.433 . S
C1478 C1474 1.350 . S
C1478 C1475 1.463 . S
C1478 N1482 1.427 . S
C1479 H1469 0.929 . S
C1479 C1477 1.433 . S
C1479 N1482 1.384 . S
C1480 H1471 0.929 . S
C1480 C1472 1.378 . S
C1480 C1475 1.350 . S
C1481 H1468 0.929 . S
C1481 C1473 1.433 . S
C1481 N1483 1.384 . S
N1482 C1478 1.427 . S
N1482 C1479 1.384 . S
N1483 C1475 1.427 . S
N1483 C1481 1.384 . S
H1484 C1490 0.930 . S
H1485 C1494 0.930 . S
H1486 C1499 0.929 . S
H1487 C1497 0.926 1_554 S
H1488 C1492 0.929 1_565 S
H1489 C1498 0.929 1_545 S
C1490 H1484 0.930 . S
C1490 C1491 1.367 . S
C1490 C1498 1.378 . S
C1491 C1490 1.367 . S
C1491 C1499 1.433 . S
C1492 H1488 0.929 1_545 S
C1492 C1494 1.378 . S
C1492 C1496 1.350 1_556 S
C1493 C1496 1.463 1_565 S
C1493 C1498 1.350 . S
C1493 N1501 1.427 . S
C1494 H1485 0.930 . S
C1494 C1492 1.378 . S
C1494 C1495 1.367 . S
C1495 C1494 1.367 . S
C1495 C1497 1.433 . S
C1496 C1492 1.350 1_554 S
C1496 C1493 1.463 1_545 S
C1496 N1500 1.427 . S
C1497 H1487 0.926 1_556 S
C1497 C1495 1.433 . S
C1497 N1500 1.384 1_556 S
C1498 H1489 0.929 1_565 S
C1498 C1490 1.378 . S
C1498 C1493 1.350 . S
C1499 H1486 0.929 . S
C1499 C1491 1.433 . S
C1499 N1501 1.384 . S
N1500 C1496 1.427 . S
N1500 C1497 1.384 1_554 S
N1501 C1493 1.427 . S
N1501 C1499 1.384 . S
H1502 C1508 0.955 . S
H1503 C1512 0.930 . S
H1504 C1517 0.929 . S
H1505 C1515 0.965 . S
H1506 C1510 0.929 . S
H1507 C1516 0.953 . S
C1508 H1502 0.955 . S
C1508 C1509 1.343 1_455 S
C1508 C1516 1.378 . S
C1509 C1508 1.343 1_655 S
C1509 C1517 1.433 . S
C1510 H1506 0.929 . S
C1510 C1512 1.378 . S
C1510 C1514 1.350 . S
C1511 C1514 1.463 1_545 S
C1511 C1516 1.326 1_655 S
C1511 N1519 1.427 . S
C1512 H1503 0.930 . S
C1512 C1510 1.378 . S
C1512 C1513 1.367 . S
C1513 C1512 1.367 . S
C1513 C1515 1.398 1_655 S
C1514 C1510 1.350 . S
C1514 C1511 1.463 1_565 S
C1514 N1518 1.400 1_655 S
C1515 H1505 0.965 . S
C1515 C1513 1.398 1_455 S
C1515 N1518 1.384 . S
C1516 H1507 0.953 . S
C1516 C1508 1.378 . S
C1516 C1511 1.326 1_455 S
C1517 H1504 0.929 . S
C1517 C1509 1.433 . S
C1517 N1519 1.384 . S
N1518 C1514 1.400 1_455 S
N1518 C1515 1.384 . S
N1519 C1511 1.427 . S
N1519 C1517 1.384 . S
C951 C564 1.795 . S
C955 C33 1.795 . S
C969 C859 1.797 . S
C973 C92 1.797 . S
C987 C151 1.807 . S
C991 C505 1.806 . S
C1005 C210 1.798 1_556 S
C1009 C918 1.797 . S
C1023 C269 1.807 . S
C1027 C623 1.807 1_556 S
C1041 C800 1.797 . S
C1045 C328 1.797 . S
C1059 C682 1.800 . S
C1063 C387 1.799 . S
C1077 C446 1.798 . S
C1081 C741 1.797 . S
C1095 C288 1.519 . S
C1099 C229 1.520 . S
C1113 C760 1.518 . S
C1117 C524 1.520 . S
C1131 C406 1.515 . S
C1135 C111 1.515 . S
C1149 C583 1.515 . S
C1153 C819 1.514 . S
C1167 C52 1.518 . S
C1171 C347 1.515 . S
C1185 C937 1.515 . S
C1189 C642 1.518 . S
C1203 C465 1.515 . S
C1207 C170 1.515 . S
C1221 C701 1.515 . S
C1225 C878 1.516 . S
C1239 C3 0.526 . S
C1243 C239 0.532 . S
C1257 C298 0.526 . S
C1261 C62 0.519 . S
C1275 C357 0.531 . S
C1279 C121 0.535 . S
C1293 C180 0.529 . S
C1297 C416 0.522 . S
C1311 C593 0.517 . S
C1315 C475 0.513 . S
C1329 C652 0.519 . S
C1333 C534 0.514 . S
C1347 C829 0.535 . S
C1351 C711 0.530 . S
C1365 C888 0.512 . S
C1369 C770 0.515 . S
C1383 C241 1.979 . S
C1387 C5 1.981 . S
C1401 C300 1.977 . S
C1405 C64 1.980 . S
C1419 C359 1.981 . S
C1423 C123 1.978 . S
C1437 C182 1.980 . S
C1441 C418 1.977 . S
C1455 C477 1.976 . S
C1459 C595 1.977 . S
C1473 C654 1.976 . S
C1477 C536 1.978 . S
C1491 C831 1.977 . S
C1495 C713 1.975 . S
C1509 C890 1.979 . S
C1513 C772 1.981 . S
