# Generated by pormake.
# Topology rhr-a, (3)-cn, num edge types: 1
# Building blocks:
#     Node 0, Type 0, BuildingBlock: WUSLED_clean_sbu_0, # of connection points: 3
#     Node 1, Type 0, BuildingBlock: WUSLED_clean_sbu_0, # of connection points: 3
#     Node 2, Type 0, BuildingBlock: WUSLED_clean_sbu_0, # of connection points: 3
#     Node 3, Type 0, BuildingBlock: WUSLED_clean_sbu_0, # of connection points: 3
#     Node 4, Type 0, BuildingBlock: WUSLED_clean_sbu_0, # of connection points: 3
#     Node 5, Type 0, BuildingBlock: WUSLED_clean_sbu_0, # of connection points: 3
#     Node 6, Type 0, BuildingBlock: WUSLED_clean_sbu_0, # of connection points: 3
#     Node 7, Type 0, BuildingBlock: WUSLED_clean_sbu_0, # of connection points: 3
#     Node 8, Type 0, BuildingBlock: WUSLED_clean_sbu_0, # of connection points: 3
#     Node 9, Type 0, BuildingBlock: WUSLED_clean_sbu_0, # of connection points: 3
#     Node 10, Type 0, BuildingBlock: WUSLED_clean_sbu_0, # of connection points: 3
#     Node 11, Type 0, BuildingBlock: WUSLED_clean_sbu_0, # of connection points: 3
#     Node 12, Type 0, BuildingBlock: WUSLED_clean_sbu_0, # of connection points: 3
#     Node 13, Type 0, BuildingBlock: WUSLED_clean_sbu_0, # of connection points: 3
#     Node 14, Type 0, BuildingBlock: WUSLED_clean_sbu_0, # of connection points: 3
#     Node 15, Type 0, BuildingBlock: WUSLED_clean_sbu_0, # of connection points: 3
#     Node 16, Type 0, BuildingBlock: WUSLED_clean_sbu_0, # of connection points: 3
#     Node 17, Type 0, BuildingBlock: WUSLED_clean_sbu_0, # of connection points: 3
#     Node 18, Type 0, BuildingBlock: WUSLED_clean_sbu_0, # of connection points: 3
#     Node 19, Type 0, BuildingBlock: WUSLED_clean_sbu_0, # of connection points: 3
#     Node 20, Type 0, BuildingBlock: WUSLED_clean_sbu_0, # of connection points: 3
#     Node 21, Type 0, BuildingBlock: WUSLED_clean_sbu_0, # of connection points: 3
#     Node 22, Type 0, BuildingBlock: WUSLED_clean_sbu_0, # of connection points: 3
#     Node 23, Type 0, BuildingBlock: WUSLED_clean_sbu_0, # of connection points: 3
#     Node 24, Type 0, BuildingBlock: WUSLED_clean_sbu_0, # of connection points: 3
#     Node 25, Type 0, BuildingBlock: WUSLED_clean_sbu_0, # of connection points: 3
#     Node 26, Type 0, BuildingBlock: WUSLED_clean_sbu_0, # of connection points: 3
#     Node 27, Type 0, BuildingBlock: WUSLED_clean_sbu_0, # of connection points: 3
#     Node 28, Type 0, BuildingBlock: WUSLED_clean_sbu_0, # of connection points: 3
#     Node 29, Type 0, BuildingBlock: WUSLED_clean_sbu_0, # of connection points: 3
#     Node 30, Type 0, BuildingBlock: WUSLED_clean_sbu_0, # of connection points: 3
#     Node 31, Type 0, BuildingBlock: WUSLED_clean_sbu_0, # of connection points: 3
#     Node 32, Type 0, BuildingBlock: WUSLED_clean_sbu_0, # of connection points: 3
#     Node 33, Type 0, BuildingBlock: WUSLED_clean_sbu_0, # of connection points: 3
#     Node 34, Type 0, BuildingBlock: WUSLED_clean_sbu_0, # of connection points: 3
#     Node 35, Type 0, BuildingBlock: WUSLED_clean_sbu_0, # of connection points: 3
#     Node 36, Type 0, BuildingBlock: WUSLED_clean_sbu_0, # of connection points: 3
#     Node 37, Type 0, BuildingBlock: WUSLED_clean_sbu_0, # of connection points: 3
#     Node 38, Type 0, BuildingBlock: WUSLED_clean_sbu_0, # of connection points: 3
#     Node 39, Type 0, BuildingBlock: WUSLED_clean_sbu_0, # of connection points: 3
#     Node 40, Type 0, BuildingBlock: WUSLED_clean_sbu_0, # of connection points: 3
#     Node 41, Type 0, BuildingBlock: WUSLED_clean_sbu_0, # of connection points: 3
#     Node 42, Type 0, BuildingBlock: WUSLED_clean_sbu_0, # of connection points: 3
#     Node 43, Type 0, BuildingBlock: WUSLED_clean_sbu_0, # of connection points: 3
#     Node 44, Type 0, BuildingBlock: WUSLED_clean_sbu_0, # of connection points: 3
#     Node 45, Type 0, BuildingBlock: WUSLED_clean_sbu_0, # of connection points: 3
#     Node 46, Type 0, BuildingBlock: WUSLED_clean_sbu_0, # of connection points: 3
#     Node 47, Type 0, BuildingBlock: WUSLED_clean_sbu_0, # of connection points: 3
#     Node 48, Type 0, BuildingBlock: WUSLED_clean_sbu_0, # of connection points: 3
#     Node 49, Type 0, BuildingBlock: WUSLED_clean_sbu_0, # of connection points: 3
#     Node 50, Type 0, BuildingBlock: WUSLED_clean_sbu_0, # of connection points: 3
#     Node 51, Type 0, BuildingBlock: WUSLED_clean_sbu_0, # of connection points: 3
#     Node 52, Type 0, BuildingBlock: WUSLED_clean_sbu_0, # of connection points: 3
#     Node 53, Type 0, BuildingBlock: WUSLED_clean_sbu_0, # of connection points: 3
#     Node 54, Type 0, BuildingBlock: WUSLED_clean_sbu_0, # of connection points: 3
#     Node 55, Type 0, BuildingBlock: WUSLED_clean_sbu_0, # of connection points: 3
#     Node 56, Type 0, BuildingBlock: WUSLED_clean_sbu_0, # of connection points: 3
#     Node 57, Type 0, BuildingBlock: WUSLED_clean_sbu_0, # of connection points: 3
#     Node 58, Type 0, BuildingBlock: WUSLED_clean_sbu_0, # of connection points: 3
#     Node 59, Type 0, BuildingBlock: WUSLED_clean_sbu_0, # of connection points: 3
#     Node 60, Type 0, BuildingBlock: WUSLED_clean_sbu_0, # of connection points: 3
#     Node 61, Type 0, BuildingBlock: WUSLED_clean_sbu_0, # of connection points: 3
#     Node 62, Type 0, BuildingBlock: WUSLED_clean_sbu_0, # of connection points: 3
#     Node 63, Type 0, BuildingBlock: WUSLED_clean_sbu_0, # of connection points: 3
#     Node 64, Type 0, BuildingBlock: WUSLED_clean_sbu_0, # of connection points: 3
#     Node 65, Type 0, BuildingBlock: WUSLED_clean_sbu_0, # of connection points: 3
#     Node 66, Type 0, BuildingBlock: WUSLED_clean_sbu_0, # of connection points: 3
#     Node 67, Type 0, BuildingBlock: WUSLED_clean_sbu_0, # of connection points: 3
#     Node 68, Type 0, BuildingBlock: WUSLED_clean_sbu_0, # of connection points: 3
#     Node 69, Type 0, BuildingBlock: WUSLED_clean_sbu_0, # of connection points: 3
#     Node 70, Type 0, BuildingBlock: WUSLED_clean_sbu_0, # of connection points: 3
#     Node 71, Type 0, BuildingBlock: WUSLED_clean_sbu_0, # of connection points: 3
#     Node 72, Type 0, BuildingBlock: WUSLED_clean_sbu_0, # of connection points: 3
#     Node 73, Type 0, BuildingBlock: WUSLED_clean_sbu_0, # of connection points: 3
#     Node 74, Type 0, BuildingBlock: WUSLED_clean_sbu_0, # of connection points: 3
#     Node 75, Type 0, BuildingBlock: WUSLED_clean_sbu_0, # of connection points: 3
#     Node 76, Type 0, BuildingBlock: WUSLED_clean_sbu_0, # of connection points: 3
#     Node 77, Type 0, BuildingBlock: WUSLED_clean_sbu_0, # of connection points: 3
#     Node 78, Type 0, BuildingBlock: WUSLED_clean_sbu_0, # of connection points: 3
#     Node 79, Type 0, BuildingBlock: WUSLED_clean_sbu_0, # of connection points: 3
#     Node 80, Type 0, BuildingBlock: WUSLED_clean_sbu_0, # of connection points: 3
#     Node 81, Type 0, BuildingBlock: WUSLED_clean_sbu_0, # of connection points: 3
#     Node 82, Type 0, BuildingBlock: WUSLED_clean_sbu_0, # of connection points: 3
#     Node 83, Type 0, BuildingBlock: WUSLED_clean_sbu_0, # of connection points: 3
#     Node 84, Type 0, BuildingBlock: WUSLED_clean_sbu_0, # of connection points: 3
#     Node 85, Type 0, BuildingBlock: WUSLED_clean_sbu_0, # of connection points: 3
#     Node 86, Type 0, BuildingBlock: WUSLED_clean_sbu_0, # of connection points: 3
#     Node 87, Type 0, BuildingBlock: WUSLED_clean_sbu_0, # of connection points: 3
#     Node 88, Type 0, BuildingBlock: WUSLED_clean_sbu_0, # of connection points: 3
#     Node 89, Type 0, BuildingBlock: WUSLED_clean_sbu_0, # of connection points: 3
#     Node 90, Type 0, BuildingBlock: WUSLED_clean_sbu_0, # of connection points: 3
#     Node 91, Type 0, BuildingBlock: WUSLED_clean_sbu_0, # of connection points: 3
#     Node 92, Type 0, BuildingBlock: WUSLED_clean_sbu_0, # of connection points: 3
#     Node 93, Type 0, BuildingBlock: WUSLED_clean_sbu_0, # of connection points: 3
#     Node 94, Type 0, BuildingBlock: WUSLED_clean_sbu_0, # of connection points: 3
#     Node 95, Type 0, BuildingBlock: WUSLED_clean_sbu_0, # of connection points: 3
#     Edge 96, Type (0, 0), None
#     Edge 97, Type (0, 0), None
#     Edge 98, Type (0, 0), None
#     Edge 99, Type (0, 0), None
#     Edge 100, Type (0, 0), None
#     Edge 101, Type (0, 0), None
#     Edge 102, Type (0, 0), None
#     Edge 103, Type (0, 0), None
#     Edge 104, Type (0, 0), None
#     Edge 105, Type (0, 0), None
#     Edge 106, Type (0, 0), None
#     Edge 107, Type (0, 0), None
#     Edge 108, Type (0, 0), None
#     Edge 109, Type (0, 0), None
#     Edge 110, Type (0, 0), None
#     Edge 111, Type (0, 0), None
#     Edge 112, Type (0, 0), None
#     Edge 113, Type (0, 0), None
#     Edge 114, Type (0, 0), None
#     Edge 115, Type (0, 0), None
#     Edge 116, Type (0, 0), None
#     Edge 117, Type (0, 0), None
#     Edge 118, Type (0, 0), None
#     Edge 119, Type (0, 0), None
#     Edge 120, Type (0, 0), None
#     Edge 121, Type (0, 0), None
#     Edge 122, Type (0, 0), None
#     Edge 123, Type (0, 0), None
#     Edge 124, Type (0, 0), None
#     Edge 125, Type (0, 0), None
#     Edge 126, Type (0, 0), None
#     Edge 127, Type (0, 0), None
#     Edge 128, Type (0, 0), None
#     Edge 129, Type (0, 0), None
#     Edge 130, Type (0, 0), None
#     Edge 131, Type (0, 0), None
#     Edge 132, Type (0, 0), None
#     Edge 133, Type (0, 0), None
#     Edge 134, Type (0, 0), None
#     Edge 135, Type (0, 0), None
#     Edge 136, Type (0, 0), None
#     Edge 137, Type (0, 0), None
#     Edge 138, Type (0, 0), None
#     Edge 139, Type (0, 0), None
#     Edge 140, Type (0, 0), None
#     Edge 141, Type (0, 0), None
#     Edge 142, Type (0, 0), None
#     Edge 143, Type (0, 0), None
#     Edge 144, Type (0, 0), None
#     Edge 145, Type (0, 0), None
#     Edge 146, Type (0, 0), None
#     Edge 147, Type (0, 0), None
#     Edge 148, Type (0, 0), None
#     Edge 149, Type (0, 0), None
#     Edge 150, Type (0, 0), None
#     Edge 151, Type (0, 0), None
#     Edge 152, Type (0, 0), None
#     Edge 153, Type (0, 0), None
#     Edge 154, Type (0, 0), None
#     Edge 155, Type (0, 0), None
#     Edge 156, Type (0, 0), None
#     Edge 157, Type (0, 0), None
#     Edge 158, Type (0, 0), None
#     Edge 159, Type (0, 0), None
#     Edge 160, Type (0, 0), None
#     Edge 161, Type (0, 0), None
#     Edge 162, Type (0, 0), None
#     Edge 163, Type (0, 0), None
#     Edge 164, Type (0, 0), None
#     Edge 165, Type (0, 0), None
#     Edge 166, Type (0, 0), None
#     Edge 167, Type (0, 0), None
#     Edge 168, Type (0, 0), None
#     Edge 169, Type (0, 0), None
#     Edge 170, Type (0, 0), None
#     Edge 171, Type (0, 0), None
#     Edge 172, Type (0, 0), None
#     Edge 173, Type (0, 0), None
#     Edge 174, Type (0, 0), None
#     Edge 175, Type (0, 0), None
#     Edge 176, Type (0, 0), None
#     Edge 177, Type (0, 0), None
#     Edge 178, Type (0, 0), None
#     Edge 179, Type (0, 0), None
#     Edge 180, Type (0, 0), None
#     Edge 181, Type (0, 0), None
#     Edge 182, Type (0, 0), None
#     Edge 183, Type (0, 0), None
#     Edge 184, Type (0, 0), None
#     Edge 185, Type (0, 0), None
#     Edge 186, Type (0, 0), None
#     Edge 187, Type (0, 0), None
#     Edge 188, Type (0, 0), None
#     Edge 189, Type (0, 0), None
#     Edge 190, Type (0, 0), None
#     Edge 191, Type (0, 0), None
#     Edge 192, Type (0, 0), None
#     Edge 193, Type (0, 0), None
#     Edge 194, Type (0, 0), None
#     Edge 195, Type (0, 0), None
#     Edge 196, Type (0, 0), None
#     Edge 197, Type (0, 0), None
#     Edge 198, Type (0, 0), None
#     Edge 199, Type (0, 0), None
#     Edge 200, Type (0, 0), None
#     Edge 201, Type (0, 0), None
#     Edge 202, Type (0, 0), None
#     Edge 203, Type (0, 0), None
#     Edge 204, Type (0, 0), None
#     Edge 205, Type (0, 0), None
#     Edge 206, Type (0, 0), None
#     Edge 207, Type (0, 0), None
#     Edge 208, Type (0, 0), None
#     Edge 209, Type (0, 0), None
#     Edge 210, Type (0, 0), None
#     Edge 211, Type (0, 0), None
#     Edge 212, Type (0, 0), None
#     Edge 213, Type (0, 0), None
#     Edge 214, Type (0, 0), None
#     Edge 215, Type (0, 0), None
#     Edge 216, Type (0, 0), None
#     Edge 217, Type (0, 0), None
#     Edge 218, Type (0, 0), None
#     Edge 219, Type (0, 0), None
#     Edge 220, Type (0, 0), None
#     Edge 221, Type (0, 0), None
#     Edge 222, Type (0, 0), None
#     Edge 223, Type (0, 0), None
#     Edge 224, Type (0, 0), None
#     Edge 225, Type (0, 0), None
#     Edge 226, Type (0, 0), None
#     Edge 227, Type (0, 0), None
#     Edge 228, Type (0, 0), None
#     Edge 229, Type (0, 0), None
#     Edge 230, Type (0, 0), None
#     Edge 231, Type (0, 0), None
#     Edge 232, Type (0, 0), None
#     Edge 233, Type (0, 0), None
#     Edge 234, Type (0, 0), None
#     Edge 235, Type (0, 0), None
#     Edge 236, Type (0, 0), None
#     Edge 237, Type (0, 0), None
#     Edge 238, Type (0, 0), None
#     Edge 239, Type (0, 0), None
# Relax obj value: 0.124
# Max RMSD: 0.106
# Mean RMSD: 0.106
data_MOF--net-rhr-a--node1-WUSLED_clean_sbu_0--edge1-none
_symmetry_space_group_name_H-M    P1
_symmetry_Int_Tables_number       1
_symmetry_cell_setting            triclinic
loop_
_symmetry_equiv_pos_as_xyz
'x, y, z'
_cell_length_a     118.237
_cell_length_b     118.26314
_cell_length_c     118.2254
_cell_angle_alpha  90.010347
_cell_angle_beta   89.99332
_cell_angle_gamma 90.002366
loop_
_atom_site_label
_atom_site_type_symbol
_atom_site_fract_x
_atom_site_fract_y
_atom_site_fract_z
_atom_type_partial_charge
C0 C 0.0763 0.28625 0.32922 0.0
C1 C 0.06609 0.28654 0.32312 0.0
C2 C 0.07383 0.30123 0.31081 0.0
C3 C 0.06484 0.29406 0.31397 0.0
C4 C 0.08392 0.30088 0.31707 0.0
C5 C 0.08512 0.29349 0.32614 0.0
U6 U 0.06918 0.26478 0.35356 0.0
O7 O 0.08031 0.25114 0.35991 0.0
O8 O 0.07582 0.26551 0.37086 0.0
C9 C 0.08119 0.25584 0.36995 0.0
C10 C 0.07833 0.27869 0.33889 0.0
C11 C 0.09179 0.25473 0.37634 0.0
C12 C 0.11141 0.2595 0.38046 0.0
C13 C 0.10206 0.25976 0.37307 0.0
C14 C 0.10028 0.24898 0.39408 0.0
C15 C 0.11045 0.25434 0.39115 0.0
C16 C 0.09109 0.24916 0.38676 0.0
C17 C 0.03542 0.2594 0.35198 0.0
C18 C 0.01699 0.25529 0.3599 0.0
C19 C 0.01855 0.26178 0.34051 0.0
C20 C 0.03036 0.2623 0.34166 0.0
C21 C 0.01176 0.25827 0.34965 0.0
C22 C 0.02868 0.25586 0.36104 0.0
C23 C 0.04762 0.26022 0.35394 0.0
O24 O 0.07435 0.28198 0.34873 0.0
O25 O 0.07748 0.26774 0.33714 0.0
O26 O 0.05191 0.26903 0.35917 0.0
O27 O 0.05481 0.25437 0.34778 0.0
H28 H 0.05916 0.28101 0.32542 0.0
H29 H 0.05697 0.29418 0.30929 0.0
H30 H 0.0909 0.30645 0.31504 0.0
H31 H 0.09302 0.29344 0.33079 0.0
H32 H 0.11916 0.26377 0.37808 0.0
H33 H 0.10271 0.26418 0.36508 0.0
H34 H 0.09932 0.24499 0.40228 0.0
H35 H 0.08322 0.2453 0.38945 0.0
H36 H 0.01201 0.25276 0.36717 0.0
H37 H 0.01474 0.26408 0.33251 0.0
H38 H 0.03549 0.26506 0.33459 0.0
H39 H 0.03248 0.25365 0.36909 0.0
C40 C 0.72384 0.07629 0.32915 0.0
C41 C 0.72352 0.06606 0.32309 0.0
C42 C 0.70885 0.07378 0.31074 0.0
C43 C 0.716 0.06479 0.31393 0.0
C44 C 0.70923 0.08389 0.31696 0.0
C45 C 0.71663 0.08512 0.32602 0.0
U46 U 0.7453 0.06917 0.35347 0.0
O47 O 0.75893 0.0803 0.35986 0.0
O48 O 0.74457 0.07575 0.37079 0.0
C49 C 0.75423 0.08114 0.3699 0.0
C50 C 0.73138 0.07833 0.33883 0.0
C51 C 0.75533 0.09171 0.37633 0.0
C52 C 0.75055 0.11132 0.38048 0.0
C53 C 0.75029 0.10198 0.37308 0.0
C54 C 0.76105 0.10017 0.3941 0.0
C55 C 0.7557 0.11034 0.39117 0.0
C56 C 0.76088 0.09099 0.38675 0.0
C57 C 0.75078 0.03544 0.35182 0.0
C58 C 0.75502 0.01702 0.35969 0.0
C59 C 0.74831 0.01856 0.34038 0.0
C60 C 0.74777 0.03036 0.34153 0.0
C61 C 0.75193 0.01178 0.34948 0.0
C62 C 0.75444 0.02871 0.36083 0.0
C63 C 0.74991 0.04762 0.35379 0.0
O64 O 0.7281 0.07432 0.34866 0.0
O65 O 0.74234 0.07752 0.33709 0.0
O66 O 0.74109 0.05187 0.35903 0.0
O67 O 0.75575 0.05484 0.34765 0.0
H68 H 0.72904 0.05913 0.32542 0.0
H69 H 0.71586 0.0569 0.3093 0.0
H70 H 0.70367 0.09088 0.3149 0.0
H71 H 0.71669 0.09303 0.33065 0.0
H72 H 0.74628 0.11907 0.37812 0.0
H73 H 0.74588 0.10265 0.36508 0.0
H74 H 0.76504 0.0992 0.40229 0.0
H75 H 0.76475 0.08312 0.38943 0.0
H76 H 0.75764 0.01205 0.36694 0.0
H77 H 0.74591 0.01474 0.33241 0.0
H78 H 0.7449 0.03548 0.3345 0.0
H79 H 0.75674 0.03251 0.36886 0.0
C80 C 0.93391 0.72376 0.32908 0.0
C81 C 0.9441 0.72347 0.32295 0.0
C82 C 0.93637 0.70874 0.31069 0.0
C83 C 0.94535 0.71594 0.31381 0.0
C84 C 0.92629 0.70908 0.31698 0.0
C85 C 0.9251 0.71649 0.32604 0.0
U86 U 0.94112 0.74529 0.3533 0.0
O87 O 0.93006 0.759 0.35962 0.0
O88 O 0.93455 0.74468 0.37062 0.0
C89 C 0.92918 0.75434 0.36968 0.0
C90 C 0.93188 0.73135 0.33872 0.0
C91 C 0.91852 0.75539 0.37597 0.0
C92 C 0.89894 0.75036 0.37995 0.0
C93 C 0.90836 0.75018 0.37265 0.0
C94 C 0.90981 0.76114 0.39359 0.0
C95 C 0.89975 0.75562 0.3906 0.0
C96 C 0.91906 0.76104 0.38635 0.0
C97 C 0.97487 0.75068 0.35166 0.0
C98 C 0.99326 0.75489 0.3596 0.0
C99 C 0.99176 0.74825 0.34025 0.0
C100 C 0.97996 0.74771 0.34137 0.0
C101 C 0.99852 0.75183 0.34938 0.0
C102 C 0.98157 0.7543 0.36071 0.0
C103 C 0.96268 0.7498 0.35358 0.0
O104 O 0.93588 0.72809 0.34856 0.0
O105 O 0.93275 0.74229 0.33693 0.0
O106 O 0.9584 0.74102 0.35886 0.0
O107 O 0.95548 0.75564 0.34743 0.0
H108 H 0.95102 0.72903 0.32522 0.0
H109 H 0.95321 0.71582 0.30912 0.0
H110 H 0.91932 0.70349 0.31498 0.0
H111 H 0.91721 0.71654 0.33071 0.0
H112 H 0.89128 0.74596 0.37755 0.0
H113 H 0.90784 0.74568 0.36469 0.0
H114 H 0.91064 0.7652 0.40177 0.0
H115 H 0.92686 0.76503 0.38908 0.0
H116 H 0.99822 0.75747 0.36686 0.0
H117 H 0.99561 0.74588 0.33228 0.0
H118 H 0.97485 0.74488 0.33431 0.0
H119 H 0.97774 0.75656 0.36874 0.0
C120 C 0.28636 0.93367 0.32934 0.0
C121 C 0.28665 0.94391 0.32329 0.0
C122 C 0.30132 0.93624 0.31089 0.0
C123 C 0.29415 0.94521 0.31412 0.0
C124 C 0.30096 0.92612 0.31711 0.0
C125 C 0.29358 0.92487 0.32619 0.0
U126 U 0.26526 0.94156 0.35355 0.0
O127 O 0.25124 0.93108 0.36019 0.0
O128 O 0.26566 0.93548 0.37108 0.0
C129 C 0.25594 0.9302 0.37024 0.0
C130 C 0.27886 0.93164 0.33908 0.0
C131 C 0.25488 0.91948 0.37651 0.0
C132 C 0.2596 0.89975 0.38026 0.0
C133 C 0.25987 0.90924 0.37305 0.0
C134 C 0.24919 0.91066 0.39414 0.0
C135 C 0.25449 0.90052 0.391 0.0
C136 C 0.24937 0.91999 0.38697 0.0
C137 C 0.25997 0.9755 0.35144 0.0
C138 C 0.25536 0.99341 0.3603 0.0
C139 C 0.26184 0.993 0.34085 0.0
C140 C 0.26261 0.9812 0.3414 0.0
C141 C 0.25828 0.99924 0.35033 0.0
C142 C 0.25627 0.98165 0.36087 0.0
C143 C 0.26183 0.96327 0.35234 0.0
O144 O 0.28225 0.93564 0.34887 0.0
O145 O 0.26791 0.93264 0.33741 0.0
O146 O 0.27016 0.95898 0.35829 0.0
O147 O 0.2554 0.95597 0.34694 0.0
H148 H 0.28113 0.95084 0.32564 0.0
H149 H 0.29427 0.95311 0.30949 0.0
H150 H 0.30653 0.91915 0.31504 0.0
H151 H 0.29354 0.91695 0.33081 0.0
H152 H 0.26383 0.89203 0.37772 0.0
H153 H 0.26423 0.90871 0.36501 0.0
H154 H 0.24523 0.91148 0.40236 0.0
H155 H 0.24553 0.92782 0.38983 0.0
H156 H 0.25272 0.99798 0.3678 0.0
H157 H 0.26408 0.99725 0.33305 0.0
H158 H 0.26554 0.97655 0.33407 0.0
H159 H 0.25425 0.97736 0.36872 0.0
C160 C 0.07635 0.72378 0.68116 0.0
C161 C 0.06614 0.72348 0.68726 0.0
C162 C 0.07387 0.70879 0.69957 0.0
C163 C 0.06488 0.71596 0.69641 0.0
C164 C 0.08397 0.70916 0.69332 0.0
C165 C 0.08518 0.71655 0.68425 0.0
U166 U 0.06903 0.74517 0.65688 0.0
O167 O 0.08001 0.7589 0.65045 0.0
O168 O 0.07552 0.74452 0.63952 0.0
C169 C 0.08087 0.7542 0.64041 0.0
C170 C 0.07837 0.73133 0.67148 0.0
C171 C 0.0915 0.75527 0.63405 0.0
C172 C 0.11115 0.75049 0.63008 0.0
C173 C 0.10174 0.75025 0.6374 0.0
C174 C 0.10011 0.76097 0.61635 0.0
C175 C 0.11025 0.75563 0.61937 0.0
C176 C 0.09086 0.76081 0.62361 0.0
C177 C 0.03523 0.75056 0.65858 0.0
C178 C 0.0169 0.75491 0.65052 0.0
C179 C 0.01822 0.74816 0.66984 0.0
C180 C 0.03003 0.74758 0.66881 0.0
C181 C 0.01155 0.75182 0.66068 0.0
C182 C 0.02861 0.75427 0.6495 0.0
C183 C 0.04743 0.74953 0.65677 0.0
O184 O 0.07437 0.72802 0.66166 0.0
O185 O 0.07748 0.74228 0.67322 0.0
O186 O 0.05171 0.74076 0.65146 0.0
O187 O 0.05464 0.75548 0.6628 0.0
H188 H 0.0592 0.72901 0.68495 0.0
H189 H 0.057 0.71583 0.70107 0.0
H190 H 0.09095 0.70359 0.69535 0.0
H191 H 0.09308 0.71661 0.6796 0.0
H192 H 0.11888 0.74624 0.63251 0.0
H193 H 0.10235 0.74586 0.64541 0.0
H194 H 0.0992 0.76494 0.60814 0.0
H195 H 0.08301 0.76466 0.62086 0.0
H196 H 0.01202 0.75755 0.64323 0.0
H197 H 0.01431 0.74577 0.67777 0.0
H198 H 0.03507 0.74467 0.67589 0.0
H199 H 0.03251 0.75654 0.64151 0.0
C200 C 0.28638 0.07624 0.68131 0.0
C201 C 0.28667 0.06604 0.68743 0.0
C202 C 0.30141 0.07377 0.69968 0.0
C203 C 0.29421 0.0648 0.69657 0.0
C204 C 0.30107 0.08385 0.69339 0.0
C205 C 0.29365 0.08504 0.68434 0.0
U206 U 0.26485 0.06899 0.6571 0.0
O207 O 0.25112 0.08003 0.65078 0.0
O208 O 0.26544 0.07554 0.63977 0.0
C209 C 0.25578 0.08091 0.64072 0.0
C210 C 0.27879 0.07825 0.67167 0.0
C211 C 0.25472 0.09156 0.63442 0.0
C212 C 0.2598 0.11111 0.6304 0.0
C213 C 0.25997 0.10171 0.63771 0.0
C214 C 0.24894 0.10027 0.61681 0.0
C215 C 0.25451 0.11031 0.61977 0.0
C216 C 0.24903 0.09103 0.62406 0.0
C217 C 0.25948 0.03523 0.65876 0.0
C218 C 0.25526 0.01685 0.65078 0.0
C219 C 0.26188 0.01831 0.67013 0.0
C220 C 0.26243 0.03012 0.66904 0.0
C221 C 0.2583 0.01158 0.66099 0.0
C222 C 0.25585 0.02855 0.64969 0.0
C223 C 0.26039 0.04743 0.65686 0.0
O224 O 0.28204 0.07426 0.66182 0.0
O225 O 0.26784 0.07738 0.67346 0.0
O226 O 0.26916 0.05171 0.65156 0.0
O227 O 0.25452 0.05462 0.663 0.0
H228 H 0.28111 0.05912 0.68517 0.0
H229 H 0.29432 0.05694 0.70126 0.0
H230 H 0.30666 0.09082 0.69539 0.0
H231 H 0.29361 0.09293 0.67967 0.0
H232 H 0.26425 0.11876 0.63278 0.0
H233 H 0.26449 0.10222 0.64566 0.0
H234 H 0.24488 0.09944 0.60863 0.0
H235 H 0.24502 0.08324 0.62135 0.0
H236 H 0.25267 0.01191 0.64351 0.0
H237 H 0.26424 0.01446 0.6781 0.0
H238 H 0.26526 0.03521 0.67611 0.0
H239 H 0.2536 0.03239 0.64167 0.0
C240 C 0.93383 0.28626 0.68124 0.0
C241 C 0.94406 0.28657 0.68731 0.0
C242 C 0.93635 0.30126 0.69964 0.0
C243 C 0.94533 0.29409 0.69646 0.0
C244 C 0.92624 0.30089 0.69341 0.0
C245 C 0.92501 0.29349 0.68435 0.0
U246 U 0.94108 0.26481 0.65698 0.0
O247 O 0.93005 0.25111 0.65058 0.0
O248 O 0.93458 0.26546 0.63963 0.0
C249 C 0.92921 0.25579 0.64053 0.0
C250 C 0.93179 0.27871 0.67158 0.0
C251 C 0.91859 0.25473 0.63417 0.0
C252 C 0.89894 0.25951 0.63021 0.0
C253 C 0.90834 0.25975 0.63753 0.0
C254 C 0.90999 0.24908 0.61645 0.0
C255 C 0.89984 0.2544 0.61949 0.0
C256 C 0.91923 0.24922 0.62372 0.0
C257 C 0.97484 0.25939 0.6587 0.0
C258 C 0.99321 0.25511 0.6507 0.0
C259 C 0.99179 0.26179 0.67004 0.0
C260 C 0.97998 0.26235 0.66896 0.0
C261 C 0.99851 0.25818 0.66089 0.0
C262 C 0.98151 0.25572 0.64963 0.0
C263 C 0.96265 0.26036 0.65682 0.0
O264 O 0.9358 0.28198 0.66175 0.0
O265 O 0.93264 0.26776 0.67333 0.0
O266 O 0.95839 0.26914 0.65152 0.0
O267 O 0.95543 0.25446 0.6629 0.0
H268 H 0.95098 0.28104 0.68499 0.0
H269 H 0.95323 0.29422 0.7011 0.0
H270 H 0.91926 0.30646 0.69546 0.0
H271 H 0.9171 0.29343 0.67972 0.0
H272 H 0.8912 0.26376 0.63266 0.0
H273 H 0.90773 0.26411 0.64556 0.0
H274 H 0.9109 0.24513 0.60823 0.0
H275 H 0.92709 0.24538 0.62096 0.0
H276 H 0.99813 0.2525 0.64343 0.0
H277 H 0.99566 0.26416 0.678 0.0
H278 H 0.97491 0.26523 0.67603 0.0
H279 H 0.97765 0.25346 0.64162 0.0
C280 C 0.72396 0.93427 0.68107 0.0
C281 C 0.72368 0.94442 0.68726 0.0
C282 C 0.70893 0.9366 0.69947 0.0
C283 C 0.71613 0.9456 0.6964 0.0
C284 C 0.70928 0.92657 0.69311 0.0
C285 C 0.71669 0.92543 0.68405 0.0
U286 U 0.74568 0.94097 0.65668 0.0
O287 O 0.75914 0.92948 0.65055 0.0
O288 O 0.74484 0.93402 0.63951 0.0
C289 C 0.75444 0.92856 0.64051 0.0
C290 C 0.73157 0.93227 0.67143 0.0
C291 C 0.75553 0.91796 0.63414 0.0
C292 C 0.75056 0.89841 0.62997 0.0
C293 C 0.75035 0.90775 0.63736 0.0
C294 C 0.7613 0.90943 0.61643 0.0
C295 C 0.75581 0.89933 0.61932 0.0
C296 C 0.76118 0.91861 0.62377 0.0
C297 C 0.75124 0.97459 0.65791 0.0
C298 C 0.75463 0.99324 0.65013 0.0
C299 C 0.74914 0.9912 0.66978 0.0
C300 C 0.74877 0.97941 0.66846 0.0
C301 C 0.75206 0.99822 0.6606 0.0
C302 C 0.75421 0.98156 0.64882 0.0
C303 C 0.75073 0.96242 0.65574 0.0
O304 O 0.72837 0.93623 0.66156 0.0
O305 O 0.74253 0.93301 0.67322 0.0
O306 O 0.74187 0.95814 0.6506 0.0
O307 O 0.75634 0.95528 0.66217 0.0
H308 H 0.72924 0.95135 0.68504 0.0
H309 H 0.71601 0.95343 0.70115 0.0
H310 H 0.70369 0.91958 0.69506 0.0
H311 H 0.71674 0.91758 0.67933 0.0
H312 H 0.74618 0.89071 0.6323 0.0
H313 H 0.74586 0.90714 0.64533 0.0
H314 H 0.76535 0.91036 0.60826 0.0
H315 H 0.76514 0.92644 0.62111 0.0
H316 H 0.75668 0.99839 0.64283 0.0
H317 H 0.74716 0.99483 0.67796 0.0
H318 H 0.74647 0.97411 0.67556 0.0
H319 H 0.75612 0.97795 0.6406 0.0
C320 C 0.32879 0.07616 0.2869 0.0
C321 C 0.32276 0.06591 0.2873 0.0
C322 C 0.31043 0.07368 0.30199 0.0
C323 C 0.31364 0.06466 0.29487 0.0
C324 C 0.31661 0.08381 0.3015 0.0
C325 C 0.32565 0.08502 0.29406 0.0
U326 U 0.35315 0.0692 0.26532 0.0
O327 O 0.35945 0.08046 0.25175 0.0
O328 O 0.37042 0.07593 0.26609 0.0
C329 C 0.3695 0.08132 0.25644 0.0
C330 C 0.33845 0.07819 0.27932 0.0
C331 C 0.37599 0.09186 0.25525 0.0
C332 C 0.38027 0.11149 0.25984 0.0
C333 C 0.37281 0.1022 0.2602 0.0
C334 C 0.3938 0.10016 0.24941 0.0
C335 C 0.39095 0.11039 0.25468 0.0
C336 C 0.38639 0.09103 0.24968 0.0
C337 C 0.35169 0.03549 0.25971 0.0
C338 C 0.35959 0.01708 0.25547 0.0
C339 C 0.34026 0.01861 0.26214 0.0
C340 C 0.3414 0.03041 0.26269 0.0
C341 C 0.34937 0.01183 0.25853 0.0
C342 C 0.36072 0.02877 0.25606 0.0
C343 C 0.35366 0.04769 0.26055 0.0
O344 O 0.3483 0.0742 0.28257 0.0
O345 O 0.3367 0.0774 0.26836 0.0
O346 O 0.35887 0.05193 0.26939 0.0
O347 O 0.34744 0.05489 0.25478 0.0
H348 H 0.32509 0.05895 0.28182 0.0
H349 H 0.30903 0.05675 0.29508 0.0
H350 H 0.31455 0.09083 0.30702 0.0
H351 H 0.33025 0.09295 0.29393 0.0
H352 H 0.37796 0.11929 0.26405 0.0
H353 H 0.36482 0.10295 0.26461 0.0
H354 H 0.40198 0.0991 0.24541 0.0
H355 H 0.38902 0.08311 0.24588 0.0
H356 H 0.36684 0.01212 0.25286 0.0
H357 H 0.33228 0.01478 0.26451 0.0
H358 H 0.33436 0.03553 0.26553 0.0
H359 H 0.36875 0.03257 0.25378 0.0
C360 C 0.93383 0.32896 0.28651 0.0
C361 C 0.94404 0.32286 0.28682 0.0
C362 C 0.93629 0.31057 0.30153 0.0
C363 C 0.94528 0.31371 0.29436 0.0
C364 C 0.9262 0.31684 0.30116 0.0
C365 C 0.925 0.32589 0.29375 0.0
U366 U 0.94102 0.35323 0.26501 0.0
O367 O 0.92992 0.35959 0.25134 0.0
O368 O 0.93445 0.37055 0.26569 0.0
C369 C 0.92908 0.36964 0.25603 0.0
C370 C 0.93182 0.33862 0.27894 0.0
C371 C 0.91847 0.37602 0.25495 0.0
C372 C 0.89885 0.38008 0.25975 0.0
C373 C 0.90822 0.37272 0.25999 0.0
C374 C 0.90993 0.39375 0.24924 0.0
C375 C 0.89978 0.39077 0.2546 0.0
C376 C 0.91914 0.38645 0.2494 0.0
C377 C 0.97477 0.35158 0.25956 0.0
C378 C 0.99318 0.3595 0.25535 0.0
C379 C 0.99166 0.34016 0.26198 0.0
C380 C 0.97985 0.34129 0.26252 0.0
C381 C 0.99843 0.34928 0.2584 0.0
C382 C 0.98148 0.36062 0.25594 0.0
C383 C 0.96258 0.35352 0.26045 0.0
O384 O 0.93583 0.34845 0.28221 0.0
O385 O 0.93266 0.33686 0.26799 0.0
O386 O 0.95832 0.35878 0.26925 0.0
O387 O 0.95537 0.34738 0.2546 0.0
H388 H 0.95097 0.32514 0.28129 0.0
H389 H 0.95315 0.30904 0.29449 0.0
H390 H 0.91921 0.31482 0.30673 0.0
H391 H 0.91711 0.33055 0.29369 0.0
H392 H 0.89111 0.37768 0.26402 0.0
H393 H 0.90759 0.36472 0.2644 0.0
H394 H 0.91086 0.40195 0.24526 0.0
H395 H 0.927 0.38916 0.24553 0.0
H396 H 0.99814 0.36676 0.25276 0.0
H397 H 0.9955 0.33218 0.26434 0.0
H398 H 0.97474 0.33424 0.26536 0.0
H399 H 0.97767 0.36864 0.25368 0.0
C400 C 0.68115 0.93374 0.28642 0.0
C401 C 0.68721 0.94397 0.28672 0.0
C402 C 0.69955 0.93626 0.3014 0.0
C403 C 0.69636 0.94524 0.29424 0.0
C404 C 0.69333 0.92614 0.30103 0.0
C405 C 0.68426 0.92492 0.29364 0.0
U406 U 0.65685 0.94094 0.26498 0.0
O407 O 0.65044 0.92988 0.2513 0.0
O408 O 0.63951 0.9344 0.26568 0.0
C409 C 0.6404 0.92903 0.25601 0.0
C410 C 0.67147 0.9317 0.27887 0.0
C411 C 0.63401 0.91843 0.25492 0.0
C412 C 0.62993 0.89881 0.25973 0.0
C413 C 0.63729 0.90818 0.25998 0.0
C414 C 0.61628 0.90989 0.24919 0.0
C415 C 0.61924 0.89975 0.25457 0.0
C416 C 0.62359 0.9191 0.24936 0.0
C417 C 0.65854 0.9747 0.25954 0.0
C418 C 0.6506 0.99308 0.25528 0.0
C419 C 0.66992 0.99162 0.26199 0.0
C420 C 0.66881 0.97981 0.26254 0.0
C421 C 0.66079 0.99836 0.25836 0.0
C422 C 0.6495 0.98139 0.25587 0.0
C423 C 0.65662 0.9625 0.26047 0.0
O424 O 0.66164 0.93571 0.28216 0.0
O425 O 0.67321 0.93254 0.26791 0.0
O426 O 0.65135 0.95825 0.26927 0.0
O427 O 0.66272 0.95529 0.25459 0.0
H428 H 0.68488 0.95089 0.2812 0.0
H429 H 0.70101 0.95313 0.29437 0.0
H430 H 0.69538 0.91916 0.30659 0.0
H431 H 0.67963 0.91701 0.29358 0.0
H432 H 0.63232 0.89108 0.26402 0.0
H433 H 0.64529 0.90755 0.2644 0.0
H434 H 0.60809 0.91083 0.24519 0.0
H435 H 0.62089 0.92695 0.24548 0.0
H436 H 0.64334 0.99802 0.25266 0.0
H437 H 0.67788 0.99547 0.26438 0.0
H438 H 0.67586 0.97472 0.26541 0.0
H439 H 0.64148 0.97755 0.25359 0.0
C440 C 0.07634 0.68102 0.28642 0.0
C441 C 0.06614 0.68713 0.2867 0.0
C442 C 0.07388 0.69943 0.30141 0.0
C443 C 0.0649 0.69628 0.29422 0.0
C444 C 0.08396 0.69314 0.30107 0.0
C445 C 0.08516 0.68408 0.29367 0.0
U446 U 0.06922 0.65671 0.26491 0.0
O447 O 0.08036 0.65038 0.25126 0.0
O448 O 0.07585 0.63942 0.26562 0.0
C449 C 0.08123 0.64034 0.25596 0.0
C450 C 0.07836 0.67136 0.27885 0.0
C451 C 0.09185 0.63397 0.25487 0.0
C452 C 0.11142 0.62984 0.2598 0.0
C453 C 0.10206 0.63721 0.26004 0.0
C454 C 0.10041 0.61629 0.24906 0.0
C455 C 0.11052 0.6192 0.25454 0.0
C456 C 0.09121 0.62361 0.2492 0.0
C457 C 0.03549 0.65832 0.25949 0.0
C458 C 0.01705 0.65047 0.25529 0.0
C459 C 0.01864 0.66979 0.26198 0.0
C460 C 0.03044 0.66862 0.26249 0.0
C461 C 0.01184 0.6607 0.25837 0.0
C462 C 0.02874 0.64931 0.25585 0.0
C463 C 0.04768 0.65633 0.2603 0.0
O464 O 0.07437 0.66152 0.28212 0.0
O465 O 0.07753 0.67311 0.2679 0.0
O466 O 0.05194 0.6511 0.26911 0.0
O467 O 0.05487 0.66251 0.25448 0.0
H468 H 0.05922 0.68485 0.28115 0.0
H469 H 0.05703 0.70097 0.29434 0.0
H470 H 0.09094 0.69516 0.30665 0.0
H471 H 0.09305 0.67941 0.29363 0.0
H472 H 0.11912 0.63219 0.26418 0.0
H473 H 0.10265 0.64517 0.26453 0.0
H474 H 0.0995 0.60813 0.24499 0.0
H475 H 0.08338 0.62094 0.24524 0.0
H476 H 0.01206 0.64323 0.2527 0.0
H477 H 0.01483 0.67777 0.26436 0.0
H478 H 0.03558 0.67565 0.26533 0.0
H479 H 0.03252 0.64128 0.25356 0.0
C480 C 0.32916 0.93381 0.72393 0.0
C481 C 0.32305 0.94401 0.72365 0.0
C482 C 0.31075 0.93627 0.70895 0.0
C483 C 0.3139 0.94525 0.71613 0.0
C484 C 0.31702 0.92619 0.70929 0.0
C485 C 0.32609 0.92499 0.71669 0.0
U486 U 0.3535 0.94087 0.74544 0.0
O487 O 0.35982 0.92968 0.75906 0.0
O488 O 0.37079 0.93419 0.7447 0.0
C489 C 0.36986 0.9288 0.75435 0.0
C490 C 0.33883 0.93178 0.73149 0.0
C491 C 0.37626 0.9182 0.75547 0.0
C492 C 0.38044 0.89861 0.75063 0.0
C493 C 0.37304 0.90795 0.75037 0.0
C494 C 0.39399 0.90971 0.76127 0.0
C495 C 0.3911 0.89957 0.75585 0.0
C496 C 0.38665 0.91889 0.76109 0.0
C497 C 0.35192 0.97459 0.75088 0.0
C498 C 0.35974 0.99306 0.75506 0.0
C499 C 0.34043 0.99143 0.74835 0.0
C500 C 0.34162 0.97962 0.74785 0.0
C501 C 0.34951 0.99825 0.75196 0.0
C502 C 0.36092 0.98137 0.75451 0.0
C503 C 0.35395 0.9624 0.75011 0.0
O504 O 0.34867 0.93577 0.72822 0.0
O505 O 0.33708 0.9326 0.74245 0.0
O506 O 0.35916 0.95813 0.74128 0.0
O507 O 0.34775 0.95521 0.75591 0.0
H508 H 0.32534 0.95093 0.72919 0.0
H509 H 0.30922 0.95312 0.71601 0.0
H510 H 0.315 0.9192 0.70372 0.0
H511 H 0.33075 0.9171 0.71673 0.0
H512 H 0.37809 0.89088 0.74631 0.0
H513 H 0.36507 0.90731 0.74591 0.0
H514 H 0.40216 0.91067 0.76531 0.0
H515 H 0.38931 0.92675 0.765 0.0
H516 H 0.36697 0.99805 0.75766 0.0
H517 H 0.33245 0.99521 0.74595 0.0
H518 H 0.3346 0.97447 0.74501 0.0
H519 H 0.36895 0.9776 0.75682 0.0
C520 C 0.07642 0.32896 0.72389 0.0
C521 C 0.06619 0.32291 0.72358 0.0
C522 C 0.0739 0.31056 0.7089 0.0
C523 C 0.06491 0.31376 0.71606 0.0
C524 C 0.08401 0.31678 0.70928 0.0
C525 C 0.08524 0.32584 0.71668 0.0
U526 U 0.06924 0.35326 0.74536 0.0
O527 O 0.08033 0.35966 0.75902 0.0
O528 O 0.07579 0.37059 0.74466 0.0
C529 C 0.08117 0.3697 0.75432 0.0
C530 C 0.07846 0.33864 0.73144 0.0
C531 C 0.09176 0.3761 0.75541 0.0
C532 C 0.11138 0.3802 0.75061 0.0
C533 C 0.10202 0.37283 0.75035 0.0
C534 C 0.10027 0.39383 0.76114 0.0
C535 C 0.11043 0.39088 0.75577 0.0
C536 C 0.09107 0.38651 0.76098 0.0
C537 C 0.0355 0.35158 0.75082 0.0
C538 C 0.0171 0.35951 0.75507 0.0
C539 C 0.01859 0.34018 0.74838 0.0
C540 C 0.0304 0.34131 0.74783 0.0
C541 C 0.01184 0.3493 0.752 0.0
C542 C 0.02879 0.36062 0.75448 0.0
C543 C 0.04769 0.35352 0.7499 0.0
O544 O 0.07445 0.34846 0.72816 0.0
O545 O 0.07763 0.3369 0.7424 0.0
O546 O 0.05194 0.35878 0.7411 0.0
O547 O 0.0549 0.3474 0.75577 0.0
H548 H 0.05925 0.32524 0.72911 0.0
H549 H 0.05701 0.30912 0.71593 0.0
H550 H 0.091 0.31472 0.70372 0.0
H551 H 0.09316 0.33047 0.71674 0.0
H552 H 0.11912 0.37782 0.74633 0.0
H553 H 0.10266 0.36483 0.74594 0.0
H554 H 0.09933 0.40202 0.76515 0.0
H555 H 0.08321 0.38921 0.76486 0.0
H556 H 0.01215 0.36676 0.75769 0.0
H557 H 0.01475 0.33222 0.74599 0.0
H558 H 0.0355 0.33426 0.74496 0.0
H559 H 0.03262 0.36864 0.75676 0.0
C560 C 0.68089 0.07669 0.72369 0.0
C561 C 0.68726 0.06665 0.72334 0.0
C562 C 0.69927 0.07473 0.70857 0.0
C563 C 0.69639 0.06565 0.71575 0.0
C564 C 0.69272 0.08463 0.70897 0.0
C565 C 0.68368 0.08559 0.71643 0.0
U566 U 0.65681 0.0691 0.74531 0.0
O567 O 0.65044 0.08009 0.75906 0.0
O568 O 0.63943 0.07553 0.74477 0.0
C569 C 0.64036 0.08091 0.75442 0.0
C570 C 0.67126 0.0785 0.73135 0.0
C571 C 0.63401 0.09154 0.75548 0.0
C572 C 0.63003 0.11117 0.75064 0.0
C573 C 0.63735 0.10177 0.75042 0.0
C574 C 0.61631 0.10016 0.76116 0.0
C575 C 0.61932 0.11029 0.75578 0.0
C576 C 0.62358 0.09092 0.76102 0.0
C577 C 0.65863 0.03532 0.75072 0.0
C578 C 0.65064 0.01696 0.75501 0.0
C579 C 0.66998 0.01837 0.74834 0.0
C580 C 0.66889 0.03018 0.74776 0.0
C581 C 0.66083 0.01165 0.75195 0.0
C582 C 0.64956 0.02866 0.75439 0.0
C583 C 0.65677 0.04751 0.7497 0.0
O584 O 0.66145 0.07443 0.72811 0.0
O585 O 0.6731 0.07759 0.74229 0.0
O586 O 0.6514 0.05177 0.74096 0.0
O587 O 0.66283 0.05475 0.75559 0.0
H588 H 0.68519 0.05966 0.72889 0.0
H589 H 0.70128 0.05791 0.7156 0.0
H590 H 0.69451 0.09167 0.70339 0.0
H591 H 0.67882 0.09336 0.71652 0.0
H592 H 0.63246 0.11889 0.74635 0.0
H593 H 0.64536 0.10236 0.74602 0.0
H594 H 0.6081 0.09927 0.76514 0.0
H595 H 0.62083 0.08309 0.76491 0.0
H596 H 0.64336 0.01204 0.75762 0.0
H597 H 0.67793 0.0145 0.74597 0.0
H598 H 0.67596 0.03525 0.74489 0.0
H599 H 0.64155 0.03252 0.75664 0.0
C600 C 0.93391 0.68112 0.7238 0.0
C601 C 0.94414 0.68719 0.72348 0.0
C602 C 0.93641 0.69951 0.70879 0.0
C603 C 0.9454 0.69633 0.71595 0.0
C604 C 0.9263 0.69328 0.70918 0.0
C605 C 0.92509 0.68422 0.71658 0.0
U606 U 0.94099 0.65681 0.74532 0.0
O607 O 0.92983 0.65047 0.75895 0.0
O608 O 0.93436 0.63951 0.74459 0.0
C609 C 0.92897 0.64042 0.75425 0.0
C610 C 0.93188 0.67146 0.73136 0.0
C611 C 0.91839 0.63401 0.75537 0.0
C612 C 0.89878 0.62986 0.75058 0.0
C613 C 0.90812 0.63726 0.75031 0.0
C614 C 0.90991 0.61627 0.76113 0.0
C615 C 0.89975 0.61919 0.75576 0.0
C616 C 0.9191 0.62361 0.76095 0.0
C617 C 0.97472 0.6584 0.7508 0.0
C618 C 0.99315 0.65052 0.755 0.0
C619 C 0.99159 0.66985 0.74835 0.0
C620 C 0.97978 0.66869 0.74782 0.0
C621 C 0.99837 0.66074 0.75194 0.0
C622 C 0.98145 0.64937 0.75442 0.0
C623 C 0.96253 0.65642 0.74996 0.0
O624 O 0.93588 0.66162 0.7281 0.0
O625 O 0.93269 0.67321 0.74232 0.0
O626 O 0.95827 0.65119 0.74114 0.0
O627 O 0.95533 0.6626 0.75577 0.0
H628 H 0.95107 0.68488 0.729 0.0
H629 H 0.95329 0.70098 0.71581 0.0
H630 H 0.91931 0.69532 0.70362 0.0
H631 H 0.91718 0.67959 0.71665 0.0
H632 H 0.89103 0.63222 0.7463 0.0
H633 H 0.90747 0.64524 0.74588 0.0
H634 H 0.91088 0.60809 0.76515 0.0
H635 H 0.92697 0.62094 0.76483 0.0
H636 H 0.99812 0.64327 0.75759 0.0
H637 H 0.99541 0.67783 0.74598 0.0
H638 H 0.97465 0.67573 0.74498 0.0
H639 H 0.97766 0.64134 0.75669 0.0
C640 C 0.28685 0.32857 0.07634 0.0
C641 C 0.28725 0.32253 0.0661 0.0
C642 C 0.30196 0.31024 0.07386 0.0
C643 C 0.29484 0.31343 0.06484 0.0
C644 C 0.30148 0.31643 0.08399 0.0
C645 C 0.29403 0.32546 0.0852 0.0
U646 U 0.26527 0.35286 0.06927 0.0
O647 O 0.25163 0.35917 0.08043 0.0
O648 O 0.26596 0.37016 0.0759 0.0
C649 C 0.2563 0.36923 0.08127 0.0
C650 C 0.27926 0.33822 0.07836 0.0
C651 C 0.25516 0.37565 0.09185 0.0
C652 C 0.25986 0.37979 0.11148 0.0
C653 C 0.26017 0.3724 0.10214 0.0
C654 C 0.24936 0.39339 0.10031 0.0
C655 C 0.25469 0.39046 0.11049 0.0
C656 C 0.24958 0.38605 0.09112 0.0
C657 C 0.25968 0.35134 0.03553 0.0
C658 C 0.25541 0.35934 0.01717 0.0
C659 C 0.26202 0.33999 0.01858 0.0
C660 C 0.26261 0.34107 0.03039 0.0
C661 C 0.25843 0.34914 0.01187 0.0
C662 C 0.25604 0.36041 0.02887 0.0
C663 C 0.26063 0.35323 0.04773 0.0
O664 O 0.2825 0.34807 0.07437 0.0
O665 O 0.2683 0.33645 0.07755 0.0
O666 O 0.26945 0.35848 0.05197 0.0
O667 O 0.25482 0.34705 0.05493 0.0
H668 H 0.28176 0.32485 0.05914 0.0
H669 H 0.29504 0.30881 0.05693 0.0
H670 H 0.30701 0.31439 0.09101 0.0
H671 H 0.2939 0.33006 0.09313 0.0
H672 H 0.26411 0.37743 0.11925 0.0
H673 H 0.2646 0.36441 0.10281 0.0
H674 H 0.24535 0.40157 0.09933 0.0
H675 H 0.24573 0.38873 0.08324 0.0
H676 H 0.25282 0.36662 0.01225 0.0
H677 H 0.26436 0.33203 0.01471 0.0
H678 H 0.26545 0.33399 0.03546 0.0
H679 H 0.25381 0.36843 0.03273 0.0
C680 C 0.28684 0.68137 0.93402 0.0
C681 C 0.28725 0.68739 0.94428 0.0
C682 C 0.30192 0.69973 0.93653 0.0
C683 C 0.29482 0.69651 0.94554 0.0
C684 C 0.30144 0.69356 0.92637 0.0
C685 C 0.294 0.68453 0.92515 0.0
U686 U 0.26535 0.65704 0.94116 0.0
O687 O 0.2517 0.65066 0.93005 0.0
O688 O 0.26607 0.63973 0.93456 0.0
C689 C 0.25639 0.64062 0.9292 0.0
C690 C 0.27928 0.6717 0.93199 0.0
C691 C 0.25522 0.63416 0.91864 0.0
C692 C 0.25986 0.62996 0.899 0.0
C693 C 0.26021 0.63738 0.90833 0.0
C694 C 0.24938 0.61641 0.91025 0.0
C695 C 0.25467 0.61929 0.90003 0.0
C696 C 0.24963 0.62377 0.91942 0.0
C697 C 0.25977 0.65859 0.97492 0.0
C698 C 0.25541 0.65053 0.99324 0.0
C699 C 0.26211 0.66987 0.99192 0.0
C700 C 0.26272 0.66883 0.98011 0.0
C701 C 0.25847 0.6607 0.99859 0.0
C702 C 0.25607 0.6495 0.98153 0.0
C703 C 0.26079 0.65675 0.96271 0.0
O704 O 0.28255 0.66186 0.93599 0.0
O705 O 0.26832 0.67344 0.93283 0.0
O706 O 0.2696 0.6515 0.95847 0.0
O707 O 0.25493 0.66287 0.9555 0.0
H708 H 0.28178 0.68503 0.95124 0.0
H709 H 0.29503 0.70109 0.95347 0.0
H710 H 0.30695 0.69564 0.91936 0.0
H711 H 0.29386 0.67995 0.91721 0.0
H712 H 0.26408 0.6323 0.89122 0.0
H713 H 0.26463 0.64536 0.90762 0.0
H714 H 0.24535 0.60824 0.91126 0.0
H715 H 0.24581 0.62112 0.92732 0.0
H716 H 0.25277 0.64325 0.99813 0.0
H717 H 0.26448 0.6778 0.99583 0.0
H718 H 0.26562 0.67591 0.97507 0.0
H719 H 0.25382 0.64151 0.97764 0.0
C720 C 0.3293 0.28625 0.93379 0.0
C721 C 0.32325 0.28653 0.94404 0.0
C722 C 0.31085 0.30119 0.93638 0.0
C723 C 0.31408 0.29403 0.94534 0.0
C724 C 0.31706 0.30084 0.92625 0.0
C725 C 0.32614 0.29347 0.92499 0.0
U726 U 0.35348 0.26516 0.94172 0.0
O727 O 0.36013 0.25112 0.93127 0.0
O728 O 0.37102 0.26553 0.93568 0.0
C729 C 0.37018 0.2558 0.9304 0.0
C730 C 0.33904 0.27875 0.93174 0.0
C731 C 0.37645 0.25475 0.91968 0.0
C732 C 0.38018 0.25949 0.89993 0.0
C733 C 0.37297 0.25974 0.90944 0.0
C734 C 0.39406 0.24908 0.91082 0.0
C735 C 0.39091 0.25438 0.90069 0.0
C736 C 0.38691 0.24925 0.92017 0.0
C737 C 0.35131 0.25987 0.97566 0.0
C738 C 0.36024 0.25526 0.99354 0.0
C739 C 0.34077 0.26167 0.9932 0.0
C740 C 0.34127 0.26246 0.9814 0.0
C741 C 0.35028 0.25814 0.99941 0.0
C742 C 0.36077 0.2562 0.98177 0.0
C743 C 0.35214 0.26176 0.96343 0.0
O744 O 0.34882 0.28214 0.93577 0.0
O745 O 0.33737 0.26781 0.93274 0.0
O746 O 0.35814 0.27007 0.95914 0.0
O747 O 0.34678 0.25532 0.95612 0.0
H748 H 0.3256 0.28101 0.95096 0.0
H749 H 0.30945 0.29414 0.95325 0.0
H750 H 0.31499 0.30641 0.91928 0.0
H751 H 0.33076 0.29344 0.91707 0.0
H752 H 0.37762 0.26372 0.89222 0.0
H753 H 0.36493 0.2641 0.90892 0.0
H754 H 0.40229 0.24512 0.91163 0.0
H755 H 0.38977 0.24541 0.92799 0.0
H756 H 0.36776 0.25264 0.99808 0.0
H757 H 0.33298 0.26388 0.99748 0.0
H758 H 0.33392 0.26537 0.97678 0.0
H759 H 0.36862 0.25422 0.97745 0.0
C760 C 0.72386 0.32891 0.93395 0.0
C761 C 0.72358 0.3228 0.94415 0.0
C762 C 0.70885 0.31053 0.93642 0.0
C763 C 0.71604 0.31366 0.9454 0.0
C764 C 0.7092 0.31681 0.92634 0.0
C765 C 0.71661 0.32586 0.92514 0.0
U766 U 0.74538 0.35314 0.94117 0.0
O767 O 0.7591 0.35947 0.93011 0.0
O768 O 0.74477 0.37046 0.93461 0.0
C769 C 0.75443 0.36952 0.92924 0.0
C770 C 0.73145 0.33856 0.93193 0.0
C771 C 0.75548 0.37582 0.91859 0.0
C772 C 0.75047 0.3798 0.89901 0.0
C773 C 0.75028 0.37251 0.90842 0.0
C774 C 0.76124 0.39344 0.90989 0.0
C775 C 0.75573 0.39045 0.89982 0.0
C776 C 0.76113 0.3862 0.91914 0.0
C777 C 0.75078 0.35149 0.97492 0.0
C778 C 0.75503 0.35944 0.99331 0.0
C779 C 0.74834 0.34011 0.99183 0.0
C780 C 0.7478 0.34122 0.98003 0.0
C781 C 0.75196 0.34924 0.99858 0.0
C782 C 0.75444 0.36054 0.98161 0.0
C783 C 0.74988 0.3534 0.96273 0.0
O784 O 0.72819 0.3484 0.93593 0.0
O785 O 0.7424 0.33678 0.93279 0.0
O786 O 0.7411 0.35868 0.95846 0.0
O787 O 0.75574 0.34726 0.95553 0.0
H788 H 0.72913 0.32508 0.95108 0.0
H789 H 0.71593 0.30898 0.95327 0.0
H790 H 0.70361 0.3148 0.91936 0.0
H791 H 0.71665 0.33053 0.91725 0.0
H792 H 0.74608 0.3774 0.89134 0.0
H793 H 0.74579 0.36454 0.90789 0.0
H794 H 0.76529 0.40162 0.91072 0.0
H795 H 0.76511 0.38893 0.92694 0.0
H796 H 0.75764 0.3667 0.99825 0.0
H797 H 0.74596 0.33215 0.99568 0.0
H798 H 0.74493 0.33417 0.97493 0.0
H799 H 0.75671 0.36855 0.97778 0.0
C800 C 0.68136 0.72365 0.93392 0.0
C801 C 0.68743 0.72333 0.94415 0.0
C802 C 0.69972 0.7086 0.93643 0.0
C803 C 0.69656 0.71578 0.94541 0.0
C804 C 0.69348 0.70898 0.92633 0.0
C805 C 0.68444 0.7164 0.92511 0.0
U806 U 0.65715 0.74517 0.94117 0.0
O807 O 0.65081 0.7589 0.93015 0.0
O808 O 0.63981 0.74458 0.93465 0.0
C809 C 0.64074 0.75425 0.9293 0.0
C810 C 0.67171 0.73123 0.93189 0.0
C811 C 0.63441 0.75533 0.91866 0.0
C812 C 0.63039 0.75038 0.89907 0.0
C813 C 0.63772 0.75018 0.90846 0.0
C814 C 0.61674 0.76106 0.91003 0.0
C815 C 0.61972 0.7556 0.89993 0.0
C816 C 0.62401 0.76094 0.91926 0.0
C817 C 0.65882 0.7506 0.97493 0.0
C818 C 0.65078 0.75484 0.99329 0.0
C819 C 0.67015 0.74827 0.99189 0.0
C820 C 0.66909 0.74769 0.98008 0.0
C821 C 0.66098 0.75183 0.9986 0.0
C822 C 0.64972 0.75422 0.98158 0.0
C823 C 0.65697 0.74961 0.96274 0.0
O824 O 0.66187 0.72798 0.93588 0.0
O825 O 0.6735 0.74218 0.93275 0.0
O826 O 0.65165 0.74085 0.95847 0.0
O827 O 0.66308 0.75549 0.95554 0.0
H828 H 0.68514 0.72887 0.95108 0.0
H829 H 0.70121 0.71564 0.9533 0.0
H830 H 0.6955 0.70341 0.91934 0.0
H831 H 0.6798 0.71647 0.9172 0.0
H832 H 0.63278 0.74602 0.89138 0.0
H833 H 0.6457 0.74572 0.90789 0.0
H834 H 0.60855 0.76507 0.91091 0.0
H835 H 0.62129 0.76488 0.92709 0.0
H836 H 0.64348 0.75742 0.9982 0.0
H837 H 0.67811 0.74594 0.99578 0.0
H838 H 0.67618 0.74486 0.97502 0.0
H839 H 0.64171 0.75643 0.97772 0.0
C840 C 0.72389 0.68101 0.07642 0.0
C841 C 0.7236 0.6871 0.0662 0.0
C842 C 0.70891 0.69942 0.07393 0.0
C843 C 0.71607 0.69625 0.06495 0.0
C844 C 0.70927 0.69317 0.08403 0.0
C845 C 0.71666 0.6841 0.08524 0.0
U846 U 0.74529 0.65673 0.06908 0.0
O847 O 0.75903 0.6503 0.08005 0.0
O848 O 0.74464 0.63938 0.07557 0.0
C849 C 0.75432 0.64026 0.08091 0.0
C850 C 0.73144 0.67134 0.07844 0.0
C851 C 0.75539 0.63392 0.09155 0.0
C852 C 0.7506 0.62996 0.1112 0.0
C853 C 0.75036 0.63727 0.10179 0.0
C854 C 0.76108 0.61622 0.10017 0.0
C855 C 0.75573 0.61925 0.11031 0.0
C856 C 0.76092 0.62348 0.09092 0.0
C857 C 0.75068 0.65844 0.03528 0.0
C858 C 0.75503 0.65037 0.01696 0.0
C859 C 0.7483 0.66969 0.01827 0.0
C860 C 0.74771 0.66867 0.03008 0.0
C861 C 0.75195 0.66052 0.0116 0.0
C862 C 0.75439 0.64936 0.02867 0.0
C863 C 0.74963 0.65664 0.04749 0.0
O864 O 0.72814 0.66151 0.07443 0.0
O865 O 0.7424 0.67307 0.07755 0.0
O866 O 0.74087 0.65133 0.05176 0.0
O867 O 0.75559 0.66267 0.0547 0.0
H868 H 0.72912 0.68479 0.05927 0.0
H869 H 0.71595 0.70091 0.05706 0.0
H870 H 0.7037 0.6952 0.09102 0.0
H871 H 0.71671 0.67946 0.09314 0.0
H872 H 0.74634 0.6324 0.11893 0.0
H873 H 0.74597 0.64529 0.10239 0.0
H874 H 0.76505 0.60801 0.09927 0.0
H875 H 0.76478 0.62072 0.08307 0.0
H876 H 0.75767 0.64308 0.01208 0.0
H877 H 0.74591 0.67762 0.01435 0.0
H878 H 0.7448 0.67575 0.03511 0.0
H879 H 0.75665 0.64137 0.03257 0.0
C880 C 0.32929 0.72364 0.07669 0.0
C881 C 0.32328 0.72335 0.06641 0.0
C882 C 0.31083 0.70871 0.07404 0.0
C883 C 0.3141 0.71586 0.06508 0.0
C884 C 0.31699 0.70907 0.08419 0.0
C885 C 0.32607 0.71644 0.08549 0.0
U886 U 0.35344 0.7447 0.06867 0.0
O887 O 0.3601 0.75878 0.07905 0.0
O888 O 0.371 0.74437 0.07463 0.0
C889 C 0.37017 0.75411 0.07989 0.0
C890 C 0.33904 0.73112 0.07873 0.0
C891 C 0.37647 0.75519 0.09059 0.0
C892 C 0.38027 0.75048 0.11033 0.0
C893 C 0.37304 0.75019 0.10084 0.0
C894 C 0.39408 0.76095 0.0994 0.0
C895 C 0.39098 0.75563 0.10954 0.0
C896 C 0.3869 0.76074 0.09007 0.0
C897 C 0.35119 0.75003 0.03473 0.0
C898 C 0.3602 0.75462 0.01689 0.0
C899 C 0.34068 0.74838 0.01715 0.0
C900 C 0.34113 0.74756 0.02896 0.0
C901 C 0.35024 0.75184 0.01098 0.0
C902 C 0.36069 0.75365 0.02866 0.0
C903 C 0.35201 0.74811 0.04696 0.0
O904 O 0.3488 0.72773 0.07466 0.0
O905 O 0.33738 0.74207 0.07775 0.0
O906 O 0.35804 0.73981 0.05122 0.0
O907 O 0.34665 0.75452 0.0543 0.0
H908 H 0.32568 0.72885 0.05949 0.0
H909 H 0.30952 0.71574 0.05715 0.0
H910 H 0.31488 0.70352 0.09117 0.0
H911 H 0.33066 0.71648 0.09343 0.0
H912 H 0.37775 0.74624 0.11805 0.0
H913 H 0.36502 0.74579 0.10138 0.0
H914 H 0.40228 0.76495 0.09856 0.0
H915 H 0.38973 0.76459 0.08224 0.0
H916 H 0.36776 0.75718 0.01238 0.0
H917 H 0.33288 0.74625 0.01283 0.0
H918 H 0.33374 0.7447 0.03355 0.0
H919 H 0.36853 0.75555 0.033 0.0
C920 C 0.68125 0.28626 0.07641 0.0
C921 C 0.68737 0.28655 0.06621 0.0
C922 C 0.69963 0.30129 0.07393 0.0
C923 C 0.69651 0.29409 0.06496 0.0
C924 C 0.69335 0.30094 0.08401 0.0
C925 C 0.6843 0.29353 0.08522 0.0
U926 U 0.65705 0.26475 0.06915 0.0
O927 O 0.65071 0.25101 0.08016 0.0
O928 O 0.63971 0.26533 0.07568 0.0
C929 C 0.64065 0.25567 0.08103 0.0
C930 C 0.67161 0.27868 0.07843 0.0
C931 C 0.63436 0.25461 0.09169 0.0
C932 C 0.63035 0.25969 0.11125 0.0
C933 C 0.63766 0.25986 0.10184 0.0
C934 C 0.61674 0.24884 0.10041 0.0
C935 C 0.61971 0.2544 0.11045 0.0
C936 C 0.624 0.24893 0.09116 0.0
C937 C 0.65872 0.25937 0.03538 0.0
C938 C 0.65073 0.25511 0.01701 0.0
C939 C 0.67007 0.26178 0.01844 0.0
C940 C 0.66898 0.26234 0.03024 0.0
C941 C 0.66092 0.25817 0.01172 0.0
C942 C 0.64965 0.25572 0.02871 0.0
C943 C 0.65685 0.26031 0.04757 0.0
O944 O 0.66177 0.28193 0.07444 0.0
O945 O 0.6734 0.26773 0.07756 0.0
O946 O 0.65154 0.26908 0.05185 0.0
O947 O 0.66297 0.25443 0.05477 0.0
H948 H 0.6851 0.28099 0.05928 0.0
H949 H 0.70119 0.2942 0.05708 0.0
H950 H 0.69535 0.30653 0.09099 0.0
H951 H 0.67962 0.29348 0.09311 0.0
H952 H 0.63273 0.26413 0.1189 0.0
H953 H 0.64561 0.26437 0.10235 0.0
H954 H 0.60857 0.24477 0.09958 0.0
H955 H 0.62128 0.24491 0.08337 0.0
H956 H 0.64345 0.2525 0.01208 0.0
H957 H 0.67802 0.26415 0.01456 0.0
H958 H 0.67605 0.2652 0.03532 0.0
H959 H 0.64165 0.25346 0.03257 0.0
C960 C 0.93625 0.72446 0.68244 0.0
C961 C 0.94589 0.71766 0.68401 0.0
C962 C 0.93728 0.70911 0.7007 0.0
C963 C 0.94643 0.71006 0.69314 0.0
C964 C 0.92809 0.71657 0.69954 0.0
C965 C 0.92759 0.72412 0.69051 0.0
U966 U 0.94235 0.74375 0.65598 0.0
O967 O 0.93572 0.74116 0.63876 0.0
O968 O 0.93055 0.75618 0.64859 0.0
C969 C 0.9301 0.75073 0.63892 0.0
C970 C 0.934 0.7307 0.67187 0.0
C971 C 0.92025 0.7521 0.63147 0.0
C972 C 0.90031 0.75033 0.62659 0.0
C973 C 0.90916 0.74905 0.63447 0.0
C974 C 0.91362 0.75794 0.61299 0.0
C975 C 0.90254 0.7546 0.61567 0.0
C976 C 0.92233 0.75666 0.62077 0.0
C977 C 0.97531 0.75128 0.65922 0.0
C978 C 0.99307 0.76118 0.65653 0.0
C979 C 0.99289 0.74288 0.66574 0.0
C980 C 0.98108 0.74243 0.66461 0.0
C981 C 0.99901 0.7521 0.66135 0.0
C982 C 0.98134 0.76076 0.65548 0.0
C983 C 0.96345 0.75036 0.6557 0.0
O984 O 0.93372 0.74181 0.67241 0.0
O985 O 0.93852 0.72678 0.66249 0.0
O986 O 0.95554 0.75604 0.66105 0.0
O987 O 0.96001 0.7408 0.65118 0.0
H988 H 0.95271 0.7178 0.67789 0.0
H989 H 0.95362 0.70443 0.69383 0.0
H990 H 0.921 0.71617 0.70533 0.0
H991 H 0.92007 0.72927 0.68948 0.0
H992 H 0.89184 0.74767 0.62887 0.0
H993 H 0.9074 0.74555 0.64275 0.0
H994 H 0.9156 0.76144 0.60476 0.0
H995 H 0.93082 0.75915 0.61834 0.0
H996 H 0.99753 0.76846 0.65319 0.0
H997 H 0.99726 0.73573 0.66944 0.0
H998 H 0.97655 0.73499 0.66745 0.0
H999 H 0.97703 0.76763 0.6512 0.0
C1000 C 0.28575 0.93606 0.68266 0.0
C1001 C 0.2925 0.94573 0.68424 0.0
C1002 C 0.30113 0.93711 0.70088 0.0
C1003 C 0.30013 0.94627 0.69335 0.0
C1004 C 0.29371 0.9279 0.69971 0.0
C1005 C 0.28614 0.92738 0.6907 0.0
U1006 U 0.26638 0.94237 0.65636 0.0
O1007 O 0.26879 0.93586 0.63908 0.0
O1008 O 0.2538 0.93074 0.64897 0.0
C1009 C 0.25918 0.9303 0.63926 0.0
C1010 C 0.27946 0.93384 0.67211 0.0
C1011 C 0.25786 0.92038 0.63193 0.0
C1012 C 0.25984 0.90043 0.62722 0.0
C1013 C 0.26113 0.90937 0.63499 0.0
C1014 C 0.2518 0.9135 0.61363 0.0
C1015 C 0.25535 0.9025 0.61636 0.0
C1016 C 0.2531 0.92231 0.62129 0.0
C1017 C 0.25892 0.97536 0.65971 0.0
C1018 C 0.24898 0.99307 0.65691 0.0
C1019 C 0.26727 0.99298 0.66617 0.0
C1020 C 0.26775 0.98117 0.66509 0.0
C1021 C 0.25804 0.99905 0.66173 0.0
C1022 C 0.24943 0.98134 0.65591 0.0
C1023 C 0.25988 0.96349 0.65627 0.0
O1024 O 0.26836 0.93361 0.67271 0.0
O1025 O 0.28336 0.93838 0.66273 0.0
O1026 O 0.25418 0.95558 0.66162 0.0
O1027 O 0.26941 0.96005 0.65169 0.0
H1028 H 0.29232 0.95257 0.67814 0.0
H1029 H 0.30573 0.95348 0.69405 0.0
H1030 H 0.29416 0.92079 0.70548 0.0
H1031 H 0.28101 0.91985 0.68965 0.0
H1032 H 0.26265 0.89203 0.62953 0.0
H1033 H 0.26478 0.90774 0.64323 0.0
H1034 H 0.24812 0.91536 0.60545 0.0
H1035 H 0.25045 0.93073 0.61883 0.0
H1036 H 0.24171 0.99749 0.65352 0.0
H1037 H 0.2744 0.99738 0.66986 0.0
H1038 H 0.27519 0.97668 0.66797 0.0
H1039 H 0.24259 0.97699 0.65164 0.0
C1040 C 0.07402 0.2856 0.68257 0.0
C1041 C 0.06437 0.2924 0.68415 0.0
C1042 C 0.07302 0.30096 0.70082 0.0
C1043 C 0.06386 0.30001 0.69328 0.0
C1044 C 0.0822 0.2935 0.69966 0.0
C1045 C 0.08269 0.28594 0.69063 0.0
U1046 U 0.06772 0.26627 0.65623 0.0
O1047 O 0.07425 0.26873 0.63895 0.0
O1048 O 0.07937 0.25372 0.64883 0.0
C1049 C 0.07982 0.25912 0.63913 0.0
C1050 C 0.07623 0.27933 0.67201 0.0
C1051 C 0.08977 0.25783 0.63182 0.0
C1052 C 0.10977 0.25964 0.62725 0.0
C1053 C 0.10079 0.26097 0.63497 0.0
C1054 C 0.0967 0.25183 0.61352 0.0
C1055 C 0.10773 0.25523 0.61635 0.0
C1056 C 0.08786 0.25317 0.62113 0.0
C1057 C 0.03473 0.25879 0.65956 0.0
C1058 C 0.01702 0.24886 0.65679 0.0
C1059 C 0.01712 0.26715 0.66604 0.0
C1060 C 0.02893 0.26762 0.66494 0.0
C1061 C 0.01104 0.25792 0.66161 0.0
C1062 C 0.02874 0.2493 0.65578 0.0
C1063 C 0.0466 0.25975 0.6561 0.0
O1064 O 0.07646 0.26823 0.67259 0.0
O1065 O 0.07169 0.28324 0.66264 0.0
O1066 O 0.05451 0.25405 0.66144 0.0
O1067 O 0.05004 0.26928 0.65154 0.0
H1068 H 0.05754 0.29226 0.67805 0.0
H1069 H 0.05667 0.30564 0.69398 0.0
H1070 H 0.0893 0.2939 0.70543 0.0
H1071 H 0.09019 0.28078 0.68958 0.0
H1072 H 0.11818 0.26235 0.62965 0.0
H1073 H 0.1024 0.26454 0.64325 0.0
H1074 H 0.09486 0.24821 0.60531 0.0
H1075 H 0.07942 0.25061 0.6186 0.0
H1076 H 0.01259 0.24158 0.65342 0.0
H1077 H 0.01272 0.27428 0.66974 0.0
H1078 H 0.03343 0.27506 0.66782 0.0
H1079 H 0.03309 0.24245 0.6515 0.0
C1080 C 0.72421 0.07565 0.68221 0.0
C1081 C 0.71783 0.06574 0.68389 0.0
C1082 C 0.70888 0.07418 0.70046 0.0
C1083 C 0.71022 0.065 0.693 0.0
C1084 C 0.71596 0.08365 0.6992 0.0
C1085 C 0.7235 0.08438 0.69017 0.0
U1086 U 0.74361 0.06793 0.65673 0.0
O1087 O 0.74193 0.07334 0.63899 0.0
O1088 O 0.75692 0.07837 0.64886 0.0
C1089 C 0.75171 0.07861 0.63905 0.0
C1090 C 0.73065 0.07786 0.67175 0.0
C1091 C 0.75291 0.08869 0.63186 0.0
C1092 C 0.75056 0.10867 0.62738 0.0
C1093 C 0.74938 0.09959 0.63502 0.0
C1094 C 0.75899 0.09595 0.6137 0.0
C1095 C 0.7552 0.10685 0.61655 0.0
C1096 C 0.75781 0.08702 0.62124 0.0
C1097 C 0.75009 0.03443 0.66056 0.0
C1098 C 0.76038 0.01724 0.65627 0.0
C1099 C 0.74282 0.01629 0.66682 0.0
C1100 C 0.74187 0.02807 0.66624 0.0
C1101 C 0.75193 0.01073 0.66156 0.0
C1102 C 0.75947 0.02899 0.6558 0.0
C1103 C 0.74848 0.04656 0.65862 0.0
O1104 O 0.74174 0.0777 0.67251 0.0
O1105 O 0.72676 0.07329 0.66238 0.0
O1106 O 0.73931 0.05019 0.65351 0.0
O1107 O 0.75494 0.05438 0.66317 0.0
H1108 H 0.71831 0.05884 0.67789 0.0
H1109 H 0.7049 0.05759 0.69377 0.0
H1110 H 0.71528 0.09078 0.70493 0.0
H1111 H 0.72838 0.09207 0.68908 0.0
H1112 H 0.74755 0.11698 0.62978 0.0
H1113 H 0.74559 0.10104 0.64324 0.0
H1114 H 0.76278 0.09429 0.60552 0.0
H1115 H 0.76066 0.07869 0.61868 0.0
H1116 H 0.76755 0.0132 0.65224 0.0
H1117 H 0.73614 0.01151 0.67087 0.0
H1118 H 0.73455 0.03217 0.66993 0.0
H1119 H 0.76587 0.0338 0.65132 0.0
C1120 C 0.93609 0.28562 0.32786 0.0
C1121 C 0.94577 0.29237 0.32626 0.0
C1122 C 0.93713 0.30097 0.30961 0.0
C1123 C 0.9463 0.29997 0.31714 0.0
C1124 C 0.92791 0.29356 0.31081 0.0
C1125 C 0.9274 0.28601 0.31984 0.0
U1126 U 0.9425 0.2663 0.35416 0.0
O1127 O 0.93604 0.26871 0.37146 0.0
O1128 O 0.93091 0.2537 0.36159 0.0
C1129 C 0.93049 0.25909 0.3713 0.0
C1130 C 0.93389 0.27934 0.33842 0.0
C1131 C 0.92054 0.25781 0.37862 0.0
C1132 C 0.90057 0.25979 0.38328 0.0
C1133 C 0.90953 0.26103 0.37551 0.0
C1134 C 0.91363 0.25191 0.39696 0.0
C1135 C 0.90263 0.25541 0.39417 0.0
C1136 C 0.92245 0.25315 0.38931 0.0
C1137 C 0.97553 0.25889 0.35081 0.0
C1138 C 0.99323 0.24898 0.35373 0.0
C1139 C 0.99317 0.26719 0.34434 0.0
C1140 C 0.98136 0.26768 0.34539 0.0
C1141 C 0.99924 0.258 0.34886 0.0
C1142 C 0.9815 0.24943 0.35468 0.0
C1143 C 0.96364 0.25987 0.35419 0.0
O1144 O 0.93369 0.26824 0.33783 0.0
O1145 O 0.93843 0.28326 0.34779 0.0
O1146 O 0.95574 0.25413 0.34887 0.0
O1147 O 0.96018 0.26939 0.35876 0.0
H1148 H 0.95261 0.29218 0.33235 0.0
H1149 H 0.95352 0.30557 0.31642 0.0
H1150 H 0.92079 0.294 0.30505 0.0
H1151 H 0.91987 0.28089 0.3209 0.0
H1152 H 0.89217 0.26257 0.38092 0.0
H1153 H 0.90791 0.26461 0.36724 0.0
H1154 H 0.91547 0.24832 0.40519 0.0
H1155 H 0.93088 0.25053 0.39181 0.0
H1156 H 0.99764 0.24172 0.35717 0.0
H1157 H 0.99759 0.27429 0.34061 0.0
H1158 H 0.97687 0.2751 0.34244 0.0
H1159 H 0.97714 0.24262 0.35899 0.0
C1160 C 0.72453 0.93615 0.32771 0.0
C1161 C 0.71774 0.9458 0.32613 0.0
C1162 C 0.70916 0.93714 0.30948 0.0
C1163 C 0.71012 0.9463 0.31701 0.0
C1164 C 0.71662 0.92795 0.31065 0.0
C1165 C 0.72418 0.92747 0.31967 0.0
U1166 U 0.74387 0.94255 0.35401 0.0
O1167 O 0.74147 0.93606 0.3713 0.0
O1168 O 0.75647 0.93095 0.36142 0.0
C1169 C 0.75109 0.93051 0.37113 0.0
C1170 C 0.73081 0.93396 0.33827 0.0
C1171 C 0.75238 0.92055 0.37842 0.0
C1172 C 0.75045 0.90058 0.38301 0.0
C1173 C 0.74916 0.90955 0.37528 0.0
C1174 C 0.75838 0.9136 0.39671 0.0
C1175 C 0.7549 0.9026 0.39389 0.0
C1176 C 0.75708 0.92244 0.38909 0.0
C1177 C 0.75129 0.97556 0.35066 0.0
C1178 C 0.76125 0.99325 0.35348 0.0
C1179 C 0.74294 0.99319 0.34426 0.0
C1180 C 0.74245 0.98139 0.34532 0.0
C1181 C 0.75218 0.99926 0.34869 0.0
C1182 C 0.7608 0.98153 0.35444 0.0
C1183 C 0.75033 0.96368 0.35407 0.0
O1184 O 0.74192 0.93376 0.33768 0.0
O1185 O 0.7269 0.9385 0.34764 0.0
O1186 O 0.75605 0.95578 0.34874 0.0
O1187 O 0.74081 0.96023 0.35865 0.0
H1188 H 0.71789 0.95264 0.33222 0.0
H1189 H 0.70449 0.95349 0.31631 0.0
H1190 H 0.71621 0.92085 0.30488 0.0
H1191 H 0.72934 0.91996 0.32072 0.0
H1192 H 0.74768 0.89218 0.38064 0.0
H1193 H 0.74555 0.90795 0.36702 0.0
H1194 H 0.76203 0.91543 0.40491 0.0
H1195 H 0.7597 0.93086 0.39161 0.0
H1196 H 0.76854 0.99766 0.35685 0.0
H1197 H 0.73581 0.99761 0.3406 0.0
H1198 H 0.735 0.9769 0.34244 0.0
H1199 H 0.76765 0.97716 0.3587 0.0
C1200 C 0.07409 0.72441 0.32771 0.0
C1201 C 0.06441 0.71766 0.32612 0.0
C1202 C 0.07304 0.70904 0.30948 0.0
C1203 C 0.06387 0.71005 0.31701 0.0
C1204 C 0.08225 0.71645 0.31065 0.0
C1205 C 0.08277 0.72402 0.31967 0.0
U1206 U 0.06773 0.74377 0.35399 0.0
O1207 O 0.07421 0.74138 0.37129 0.0
O1208 O 0.07934 0.75637 0.36139 0.0
C1209 C 0.07976 0.75099 0.37111 0.0
C1210 C 0.07631 0.7307 0.33825 0.0
C1211 C 0.0897 0.7523 0.37841 0.0
C1212 C 0.10966 0.75031 0.38309 0.0
C1213 C 0.1007 0.74903 0.37533 0.0
C1214 C 0.09661 0.75834 0.39671 0.0
C1215 C 0.10761 0.7548 0.39394 0.0
C1216 C 0.08779 0.75705 0.38906 0.0
C1217 C 0.03474 0.75121 0.35062 0.0
C1218 C 0.01704 0.76115 0.35342 0.0
C1219 C 0.01711 0.74285 0.34419 0.0
C1220 C 0.02891 0.74237 0.34526 0.0
C1221 C 0.01104 0.75209 0.34862 0.0
C1222 C 0.02876 0.7607 0.35441 0.0
C1223 C 0.04661 0.75024 0.35405 0.0
O1224 O 0.07652 0.7418 0.33766 0.0
O1225 O 0.07176 0.72679 0.34763 0.0
O1226 O 0.05451 0.75595 0.34871 0.0
O1227 O 0.05005 0.74072 0.35863 0.0
H1228 H 0.05757 0.71785 0.33222 0.0
H1229 H 0.05665 0.70445 0.3163 0.0
H1230 H 0.08936 0.71601 0.30488 0.0
H1231 H 0.09031 0.72914 0.32072 0.0
H1232 H 0.11806 0.7475 0.38075 0.0
H1233 H 0.10231 0.74538 0.36708 0.0
H1234 H 0.09477 0.76202 0.4049 0.0
H1235 H 0.07937 0.7597 0.39155 0.0
H1236 H 0.01262 0.76844 0.3568 0.0
H1237 H 0.0127 0.73573 0.3405 0.0
H1238 H 0.03341 0.73493 0.34238 0.0
H1239 H 0.03312 0.76755 0.35867 0.0
C1240 C 0.28566 0.07385 0.32854 0.0
C1241 C 0.29248 0.06423 0.32695 0.0
C1242 C 0.30088 0.07281 0.31015 0.0
C1243 C 0.30001 0.06369 0.31776 0.0
C1244 C 0.29339 0.08196 0.31133 0.0
C1245 C 0.2859 0.08248 0.32043 0.0
U1246 U 0.26666 0.06834 0.35549 0.0
O1247 O 0.26982 0.07529 0.37253 0.0
O1248 O 0.25464 0.08057 0.36294 0.0
C1249 C 0.26034 0.08109 0.37246 0.0
C1250 C 0.27956 0.07617 0.3392 0.0
C1251 C 0.25882 0.09067 0.38027 0.0
C1252 C 0.26022 0.11051 0.38573 0.0
C1253 C 0.26158 0.10191 0.37757 0.0
C1254 C 0.25312 0.09667 0.39905 0.0
C1255 C 0.25617 0.10791 0.39666 0.0
C1256 C 0.25448 0.0882 0.39099 0.0
C1257 C 0.25875 0.03551 0.35255 0.0
C1258 C 0.24897 0.01763 0.35512 0.0
C1259 C 0.26715 0.01806 0.34568 0.0
C1260 C 0.26756 0.02985 0.34698 0.0
C1261 C 0.25801 0.0118 0.35009 0.0
C1262 C 0.24934 0.02936 0.35632 0.0
C1263 C 0.25968 0.04733 0.35626 0.0
O1264 O 0.26845 0.07662 0.33885 0.0
O1265 O 0.28357 0.07168 0.34856 0.0
O1266 O 0.25403 0.05528 0.35091 0.0
O1267 O 0.26934 0.05072 0.36059 0.0
H1268 H 0.29243 0.05745 0.3331 0.0
H1269 H 0.30567 0.05652 0.31705 0.0
H1270 H 0.29372 0.08904 0.30552 0.0
H1271 H 0.28074 0.08998 0.32148 0.0
H1272 H 0.26265 0.11909 0.38363 0.0
H1273 H 0.26491 0.10399 0.36929 0.0
H1274 H 0.24976 0.09437 0.40725 0.0
H1275 H 0.2522 0.07959 0.3932 0.0
H1276 H 0.24175 0.01309 0.35846 0.0
H1277 H 0.27426 0.01379 0.3418 0.0
H1278 H 0.27495 0.03444 0.34411 0.0
H1279 H 0.24249 0.03357 0.36073 0.0
C1280 C 0.68261 0.93622 0.72445 0.0
C1281 C 0.6842 0.94594 0.71776 0.0
C1282 C 0.70085 0.93737 0.70908 0.0
C1283 C 0.69331 0.94653 0.71015 0.0
C1284 C 0.69966 0.92811 0.71643 0.0
C1285 C 0.69064 0.92754 0.72399 0.0
U1286 U 0.65627 0.94244 0.74382 0.0
O1287 O 0.63901 0.93588 0.74137 0.0
O1288 O 0.64891 0.93075 0.75637 0.0
C1289 C 0.6392 0.9303 0.75097 0.0
C1290 C 0.67207 0.93397 0.73073 0.0
C1291 C 0.63188 0.92037 0.75229 0.0
C1292 C 0.62727 0.90037 0.75052 0.0
C1293 C 0.63501 0.90934 0.74917 0.0
C1294 C 0.61357 0.91347 0.75832 0.0
C1295 C 0.61638 0.90243 0.75493 0.0
C1296 C 0.62119 0.9223 0.75696 0.0
C1297 C 0.65954 0.97542 0.75132 0.0
C1298 C 0.65673 0.99314 0.76125 0.0
C1299 C 0.666 0.99305 0.74297 0.0
C1300 C 0.66492 0.98124 0.74249 0.0
C1301 C 0.66155 0.99913 0.7522 0.0
C1302 C 0.65574 0.98141 0.76081 0.0
C1303 C 0.65611 0.96355 0.75035 0.0
O1304 O 0.67265 0.93373 0.74184 0.0
O1305 O 0.66268 0.93849 0.72683 0.0
O1306 O 0.66147 0.95565 0.75605 0.0
O1307 O 0.65155 0.96011 0.74082 0.0
H1308 H 0.67811 0.95278 0.718 0.0
H1309 H 0.69403 0.95378 0.7046 0.0
H1310 H 0.70543 0.921 0.71593 0.0
H1311 H 0.68959 0.91998 0.72906 0.0
H1312 H 0.62965 0.89195 0.74782 0.0
H1313 H 0.64328 0.9077 0.74559 0.0
H1314 H 0.60537 0.91533 0.76195 0.0
H1315 H 0.61868 0.93074 0.75951 0.0
H1316 H 0.65334 0.99756 0.76853 0.0
H1317 H 0.6697 0.99745 0.73584 0.0
H1318 H 0.66781 0.97674 0.73505 0.0
H1319 H 0.65146 0.97706 0.76765 0.0
C1320 C 0.07403 0.68249 0.72456 0.0
C1321 C 0.06436 0.68408 0.71779 0.0
C1322 C 0.07301 0.70072 0.70918 0.0
C1323 C 0.06384 0.6932 0.71017 0.0
C1324 C 0.08222 0.69954 0.71661 0.0
C1325 C 0.08272 0.69052 0.72418 0.0
U1326 U 0.06762 0.65622 0.74391 0.0
O1327 O 0.07409 0.63892 0.74152 0.0
O1328 O 0.0792 0.64881 0.75652 0.0
C1329 C 0.07963 0.6391 0.75114 0.0
C1330 C 0.07623 0.67195 0.73085 0.0
C1331 C 0.08958 0.6318 0.75245 0.0
C1332 C 0.10955 0.62715 0.75048 0.0
C1333 C 0.10059 0.6349 0.7492 0.0
C1334 C 0.0965 0.61351 0.75848 0.0
C1335 C 0.1075 0.61628 0.75495 0.0
C1336 C 0.08768 0.62114 0.75719 0.0
C1337 C 0.0346 0.65958 0.75132 0.0
C1338 C 0.0169 0.65674 0.76126 0.0
C1339 C 0.01696 0.66599 0.74297 0.0
C1340 C 0.02877 0.66494 0.74249 0.0
C1341 C 0.0109 0.66154 0.7522 0.0
C1342 C 0.02863 0.65578 0.76081 0.0
C1343 C 0.04648 0.65618 0.75035 0.0
O1344 O 0.07642 0.67254 0.74196 0.0
O1345 O 0.07168 0.66257 0.72694 0.0
O1346 O 0.05438 0.66151 0.75608 0.0
O1347 O 0.04994 0.65159 0.74083 0.0
H1348 H 0.05752 0.678 0.71797 0.0
H1349 H 0.05663 0.69391 0.70457 0.0
H1350 H 0.08933 0.7053 0.71618 0.0
H1351 H 0.09024 0.68947 0.72931 0.0
H1352 H 0.11795 0.6295 0.74768 0.0
H1353 H 0.10219 0.64314 0.74556 0.0
H1354 H 0.09467 0.60531 0.76214 0.0
H1355 H 0.07926 0.61865 0.75982 0.0
H1356 H 0.01249 0.65335 0.76854 0.0
H1357 H 0.01254 0.66967 0.73584 0.0
H1358 H 0.03326 0.66783 0.73504 0.0
H1359 H 0.03299 0.65151 0.76765 0.0
C1360 C 0.32774 0.07397 0.72464 0.0
C1361 C 0.32613 0.06429 0.7179 0.0
C1362 C 0.30949 0.07293 0.70928 0.0
C1363 C 0.31701 0.06376 0.71029 0.0
C1364 C 0.31069 0.08216 0.71669 0.0
C1365 C 0.31972 0.08267 0.72424 0.0
U1366 U 0.354 0.06751 0.74397 0.0
O1367 O 0.37131 0.07396 0.7416 0.0
O1368 O 0.36143 0.07906 0.75661 0.0
C1369 C 0.37115 0.07949 0.75122 0.0
C1370 C 0.33829 0.07616 0.73093 0.0
C1371 C 0.37843 0.08946 0.7525 0.0
C1372 C 0.38304 0.10943 0.7505 0.0
C1373 C 0.37531 0.10045 0.74924 0.0
C1374 C 0.39672 0.09643 0.7585 0.0
C1375 C 0.39391 0.10742 0.75496 0.0
C1376 C 0.3891 0.08759 0.75723 0.0
C1377 C 0.35061 0.03448 0.75132 0.0
C1378 C 0.35343 0.01679 0.76129 0.0
C1379 C 0.34425 0.01682 0.74296 0.0
C1380 C 0.34529 0.02863 0.74248 0.0
C1381 C 0.34868 0.01077 0.75221 0.0
C1382 C 0.35438 0.02852 0.76083 0.0
C1383 C 0.354 0.04636 0.75036 0.0
O1384 O 0.33769 0.07634 0.74204 0.0
O1385 O 0.34766 0.07162 0.72701 0.0
O1386 O 0.34869 0.05426 0.75611 0.0
O1387 O 0.35859 0.04983 0.74085 0.0
H1388 H 0.3322 0.05743 0.71809 0.0
H1389 H 0.31628 0.05654 0.7047 0.0
H1390 H 0.30494 0.08928 0.71624 0.0
H1391 H 0.32079 0.0902 0.72936 0.0
H1392 H 0.38067 0.11782 0.74769 0.0
H1393 H 0.36705 0.10203 0.74561 0.0
H1394 H 0.40492 0.09462 0.76215 0.0
H1395 H 0.39161 0.07918 0.75988 0.0
H1396 H 0.35681 0.01239 0.76859 0.0
H1397 H 0.34061 0.01239 0.73582 0.0
H1398 H 0.34241 0.0331 0.73502 0.0
H1399 H 0.35861 0.03289 0.76769 0.0
C1400 C 0.93624 0.32758 0.72461 0.0
C1401 C 0.94589 0.32599 0.71781 0.0
C1402 C 0.93723 0.30934 0.70925 0.0
C1403 C 0.9464 0.31687 0.7102 0.0
C1404 C 0.92805 0.31051 0.7167 0.0
C1405 C 0.92756 0.31954 0.72426 0.0
U1406 U 0.94261 0.35389 0.74394 0.0
O1407 O 0.93612 0.37117 0.74152 0.0
O1408 O 0.931 0.36129 0.75653 0.0
C1409 C 0.93056 0.371 0.75114 0.0
C1410 C 0.93404 0.33813 0.73089 0.0
C1411 C 0.92061 0.3783 0.75244 0.0
C1412 C 0.90064 0.38292 0.75051 0.0
C1413 C 0.90961 0.37518 0.74922 0.0
C1414 C 0.91368 0.39659 0.75845 0.0
C1415 C 0.90268 0.39379 0.75495 0.0
C1416 C 0.92251 0.38896 0.75715 0.0
C1417 C 0.97561 0.35054 0.75138 0.0
C1418 C 0.99332 0.35334 0.76133 0.0
C1419 C 0.99324 0.34411 0.74302 0.0
C1420 C 0.98144 0.34518 0.74254 0.0
C1421 C 0.99932 0.34854 0.75226 0.0
C1422 C 0.98159 0.35432 0.76088 0.0
C1423 C 0.96374 0.35397 0.75042 0.0
O1424 O 0.93383 0.33755 0.74199 0.0
O1425 O 0.93859 0.3475 0.72697 0.0
O1426 O 0.95583 0.34863 0.75613 0.0
O1427 O 0.96029 0.35854 0.74089 0.0
H1428 H 0.95273 0.33209 0.71796 0.0
H1429 H 0.95359 0.31616 0.70457 0.0
H1430 H 0.92094 0.30474 0.7163 0.0
H1431 H 0.92005 0.32059 0.72942 0.0
H1432 H 0.89223 0.38055 0.74773 0.0
H1433 H 0.908 0.36692 0.7456 0.0
H1434 H 0.91551 0.40479 0.7621 0.0
H1435 H 0.93094 0.39147 0.75976 0.0
H1436 H 0.99774 0.35671 0.76861 0.0
H1437 H 0.99765 0.34043 0.73588 0.0
H1438 H 0.97694 0.3423 0.73509 0.0
H1439 H 0.97724 0.35858 0.76773 0.0
C1440 C 0.68252 0.07389 0.28578 0.0
C1441 C 0.6841 0.06425 0.29257 0.0
C1442 C 0.70077 0.0729 0.30113 0.0
C1443 C 0.69322 0.06374 0.30018 0.0
C1444 C 0.6996 0.08208 0.29367 0.0
C1445 C 0.69057 0.08257 0.28611 0.0
U1446 U 0.65617 0.06758 0.26645 0.0
O1447 O 0.6389 0.07411 0.2689 0.0
O1448 O 0.64877 0.07922 0.25389 0.0
C1449 C 0.63907 0.07967 0.25929 0.0
C1450 C 0.67196 0.0761 0.2795 0.0
C1451 C 0.63177 0.08962 0.258 0.0
C1452 C 0.6272 0.10962 0.2598 0.0
C1453 C 0.63492 0.10064 0.26113 0.0
C1454 C 0.61346 0.09656 0.25201 0.0
C1455 C 0.6163 0.10759 0.2554 0.0
C1456 C 0.62107 0.08772 0.25335 0.0
C1457 C 0.65951 0.03459 0.25898 0.0
C1458 C 0.65674 0.01687 0.24904 0.0
C1459 C 0.66596 0.01697 0.26734 0.0
C1460 C 0.66487 0.02877 0.26782 0.0
C1461 C 0.66154 0.01088 0.2581 0.0
C1462 C 0.65574 0.0286 0.24949 0.0
C1463 C 0.65606 0.04646 0.25994 0.0
O1464 O 0.67253 0.07633 0.2684 0.0
O1465 O 0.66259 0.07156 0.28342 0.0
O1466 O 0.6614 0.05436 0.25423 0.0
O1467 O 0.6515 0.0499 0.26948 0.0
H1468 H 0.678 0.05742 0.29243 0.0
H1469 H 0.69393 0.05655 0.30582 0.0
H1470 H 0.70537 0.08918 0.29408 0.0
H1471 H 0.68953 0.09007 0.28096 0.0
H1472 H 0.6296 0.11804 0.2625 0.0
H1473 H 0.6432 0.10226 0.2647 0.0
H1474 H 0.60525 0.09472 0.24838 0.0
H1475 H 0.61854 0.07928 0.25079 0.0
H1476 H 0.65337 0.01245 0.24175 0.0
H1477 H 0.66964 0.01256 0.27448 0.0
H1478 H 0.66774 0.03327 0.27527 0.0
H1479 H 0.65147 0.03295 0.24263 0.0
C1480 C 0.93616 0.68243 0.28573 0.0
C1481 C 0.94584 0.68402 0.29247 0.0
C1482 C 0.93721 0.70066 0.30108 0.0
C1483 C 0.94638 0.69314 0.30008 0.0
C1484 C 0.92799 0.69948 0.29368 0.0
C1485 C 0.92747 0.69045 0.28612 0.0
U1486 U 0.94259 0.65616 0.26639 0.0
O1487 O 0.93614 0.63886 0.26877 0.0
O1488 O 0.93103 0.64874 0.25376 0.0
C1489 C 0.9306 0.63902 0.25914 0.0
C1490 C 0.93395 0.67188 0.27944 0.0
C1491 C 0.92064 0.63174 0.25785 0.0
C1492 C 0.90067 0.6271 0.25986 0.0
C1493 C 0.90964 0.63484 0.26112 0.0
C1494 C 0.91369 0.61345 0.25185 0.0
C1495 C 0.9027 0.61623 0.25539 0.0
C1496 C 0.92253 0.62108 0.25312 0.0
C1497 C 0.97561 0.65955 0.25901 0.0
C1498 C 0.9933 0.65673 0.24904 0.0
C1499 C 0.99326 0.66593 0.26737 0.0
C1500 C 0.98145 0.66489 0.26785 0.0
C1501 C 0.99932 0.6615 0.25812 0.0
C1502 C 0.98158 0.65577 0.2495 0.0
C1503 C 0.96373 0.65615 0.25997 0.0
O1504 O 0.93376 0.67247 0.26834 0.0
O1505 O 0.9385 0.66251 0.28336 0.0
O1506 O 0.95583 0.66146 0.25423 0.0
O1507 O 0.96027 0.65156 0.26949 0.0
H1508 H 0.95269 0.67794 0.29228 0.0
H1509 H 0.9536 0.69386 0.30567 0.0
H1510 H 0.92087 0.70523 0.29413 0.0
H1511 H 0.91994 0.68939 0.281 0.0
H1512 H 0.89228 0.62946 0.26268 0.0
H1513 H 0.90805 0.6431 0.26476 0.0
H1514 H 0.91551 0.60525 0.24819 0.0
H1515 H 0.93094 0.61857 0.25046 0.0
H1516 H 0.99771 0.65336 0.24175 0.0
H1517 H 0.99768 0.66959 0.2745 0.0
H1518 H 0.97696 0.66776 0.27531 0.0
H1519 H 0.97721 0.65153 0.24264 0.0
C1520 C 0.32761 0.93617 0.28586 0.0
C1521 C 0.326 0.94583 0.29263 0.0
C1522 C 0.30938 0.93714 0.30126 0.0
C1523 C 0.31689 0.94633 0.30027 0.0
C1524 C 0.31058 0.92794 0.29382 0.0
C1525 C 0.3196 0.92746 0.28624 0.0
U1526 U 0.3539 0.94258 0.26649 0.0
O1527 O 0.37119 0.93608 0.26888 0.0
O1528 O 0.3613 0.93098 0.25387 0.0
C1529 C 0.37101 0.93053 0.25926 0.0
C1530 C 0.33816 0.93399 0.27955 0.0
C1531 C 0.37832 0.92059 0.25794 0.0
C1532 C 0.38297 0.90062 0.25988 0.0
C1533 C 0.37522 0.90958 0.26117 0.0
C1534 C 0.39661 0.91367 0.2519 0.0
C1535 C 0.39383 0.90266 0.25541 0.0
C1536 C 0.38898 0.92249 0.25321 0.0
C1537 C 0.35057 0.9756 0.2591 0.0
C1538 C 0.35341 0.99331 0.24918 0.0
C1539 C 0.34414 0.99322 0.26747 0.0
C1540 C 0.34519 0.98142 0.26793 0.0
C1541 C 0.34859 0.99931 0.25825 0.0
C1542 C 0.35438 0.98159 0.24962 0.0
C1543 C 0.35398 0.96372 0.26005 0.0
O1544 O 0.33756 0.9338 0.26845 0.0
O1545 O 0.34753 0.93854 0.28346 0.0
O1546 O 0.34864 0.95582 0.25432 0.0
O1547 O 0.35856 0.96025 0.26957 0.0
H1548 H 0.33207 0.95269 0.29245 0.0
H1549 H 0.31616 0.95353 0.30588 0.0
H1550 H 0.30484 0.92081 0.29425 0.0
H1551 H 0.32066 0.91995 0.2811 0.0
H1552 H 0.38061 0.89222 0.26266 0.0
H1553 H 0.36696 0.90797 0.2648 0.0
H1554 H 0.40481 0.9155 0.24824 0.0
H1555 H 0.39148 0.93092 0.25058 0.0
H1556 H 0.35681 0.99774 0.24191 0.0
H1557 H 0.34044 0.99763 0.2746 0.0
H1558 H 0.34229 0.97692 0.27537 0.0
H1559 H 0.35866 0.97724 0.24277 0.0
C1560 C 0.07401 0.32753 0.28581 0.0
C1561 C 0.06434 0.32594 0.29258 0.0
C1562 C 0.07298 0.3093 0.30119 0.0
C1563 C 0.06381 0.31683 0.3002 0.0
C1564 C 0.08219 0.31048 0.29377 0.0
C1565 C 0.0827 0.31949 0.2862 0.0
U1566 U 0.06766 0.35381 0.26645 0.0
O1567 O 0.07416 0.3711 0.26886 0.0
O1568 O 0.07927 0.36121 0.25386 0.0
C1569 C 0.07971 0.37092 0.25924 0.0
C1570 C 0.07622 0.33807 0.27952 0.0
C1571 C 0.08965 0.37823 0.25792 0.0
C1572 C 0.10962 0.38288 0.25986 0.0
C1573 C 0.10066 0.37513 0.26115 0.0
C1574 C 0.09656 0.39652 0.25189 0.0
C1575 C 0.10757 0.39375 0.2554 0.0
C1576 C 0.08774 0.38888 0.2532 0.0
C1577 C 0.03465 0.35049 0.25902 0.0
C1578 C 0.01695 0.35333 0.24908 0.0
C1579 C 0.01702 0.34405 0.26736 0.0
C1580 C 0.02883 0.34511 0.26784 0.0
C1581 C 0.01095 0.34851 0.25813 0.0
C1582 C 0.02868 0.3543 0.24953 0.0
C1583 C 0.04653 0.3539 0.25998 0.0
O1584 O 0.07643 0.33747 0.26841 0.0
O1585 O 0.07168 0.34745 0.28343 0.0
O1586 O 0.05443 0.34855 0.25427 0.0
O1587 O 0.04998 0.35847 0.26951 0.0
H1588 H 0.0575 0.33203 0.29239 0.0
H1589 H 0.0566 0.31612 0.3058 0.0
H1590 H 0.0893 0.30472 0.2942 0.0
H1591 H 0.09022 0.32054 0.28107 0.0
H1592 H 0.11802 0.38053 0.26264 0.0
H1593 H 0.10228 0.36688 0.26478 0.0
H1594 H 0.09472 0.40471 0.24823 0.0
H1595 H 0.07931 0.39137 0.25057 0.0
H1596 H 0.01253 0.35672 0.2418 0.0
H1597 H 0.0126 0.34036 0.27449 0.0
H1598 H 0.03332 0.34221 0.27528 0.0
H1599 H 0.03304 0.35857 0.24269 0.0
C1600 C 0.72464 0.68224 0.93626 0.0
C1601 C 0.71785 0.68382 0.94592 0.0
C1602 C 0.70931 0.70051 0.9373 0.0
C1603 C 0.71026 0.69295 0.94645 0.0
C1604 C 0.71676 0.69933 0.92811 0.0
C1605 C 0.72431 0.6903 0.9276 0.0
U1606 U 0.74391 0.65578 0.94239 0.0
O1607 O 0.74133 0.63855 0.93578 0.0
O1608 O 0.75636 0.64838 0.93061 0.0
C1609 C 0.75091 0.6387 0.93016 0.0
C1610 C 0.73088 0.67166 0.93402 0.0
C1611 C 0.75226 0.63127 0.9203 0.0
C1612 C 0.75046 0.6264 0.90035 0.0
C1613 C 0.74919 0.63428 0.90922 0.0
C1614 C 0.7581 0.6128 0.91364 0.0
C1615 C 0.75474 0.61549 0.90257 0.0
C1616 C 0.75683 0.62057 0.92237 0.0
C1617 C 0.75143 0.65904 0.97536 0.0
C1618 C 0.76132 0.65636 0.99312 0.0
C1619 C 0.74301 0.66558 0.99293 0.0
C1620 C 0.74257 0.66443 0.98113 0.0
C1621 C 0.75224 0.66119 0.99906 0.0
C1622 C 0.76091 0.65531 0.9814 0.0
C1623 C 0.75051 0.65552 0.9635 0.0
O1624 O 0.74199 0.67219 0.93375 0.0
O1625 O 0.72695 0.66229 0.93855 0.0
O1626 O 0.7562 0.66086 0.95559 0.0
O1627 O 0.74095 0.651 0.96006 0.0
H1628 H 0.71799 0.67771 0.95274 0.0
H1629 H 0.70463 0.69366 0.95364 0.0
H1630 H 0.71636 0.70511 0.92101 0.0
H1631 H 0.72946 0.68925 0.92008 0.0
H1632 H 0.74779 0.62869 0.8919 0.0
H1633 H 0.74569 0.64256 0.90747 0.0
H1634 H 0.7616 0.60457 0.91561 0.0
H1635 H 0.75933 0.61813 0.93085 0.0
H1636 H 0.7686 0.65302 0.99758 0.0
H1637 H 0.73587 0.66928 0.9973 0.0
H1638 H 0.73514 0.66728 0.9766 0.0
H1639 H 0.76778 0.65102 0.97709 0.0
C1640 C 0.72459 0.3276 0.07414 0.0
C1641 C 0.71784 0.32601 0.06446 0.0
C1642 C 0.70924 0.30936 0.07309 0.0
C1643 C 0.71023 0.31689 0.06392 0.0
C1644 C 0.71665 0.31054 0.08231 0.0
C1645 C 0.72421 0.31956 0.08283 0.0
U1646 U 0.74394 0.35389 0.06779 0.0
O1647 O 0.74153 0.37118 0.07427 0.0
O1648 O 0.75653 0.3613 0.0794 0.0
C1649 C 0.75114 0.37101 0.07982 0.0
C1650 C 0.73087 0.33815 0.07636 0.0
C1651 C 0.75244 0.37831 0.08977 0.0
C1652 C 0.75044 0.38298 0.10973 0.0
C1653 C 0.74918 0.37522 0.10077 0.0
C1654 C 0.75844 0.39661 0.09668 0.0
C1655 C 0.7549 0.39384 0.10767 0.0
C1656 C 0.75718 0.38897 0.08786 0.0
C1657 C 0.75136 0.35051 0.03479 0.0
C1658 C 0.7613 0.35328 0.01708 0.0
C1659 C 0.74298 0.34408 0.01718 0.0
C1660 C 0.74251 0.34516 0.02898 0.0
C1661 C 0.75222 0.34849 0.0111 0.0
C1662 C 0.76086 0.35427 0.02881 0.0
C1663 C 0.75041 0.35396 0.04666 0.0
O1664 O 0.74198 0.33756 0.07658 0.0
O1665 O 0.72696 0.34752 0.07182 0.0
O1666 O 0.75612 0.34862 0.05457 0.0
O1667 O 0.74089 0.35854 0.05011 0.0
H1668 H 0.71803 0.3321 0.05762 0.0
H1669 H 0.70463 0.31618 0.05671 0.0
H1670 H 0.71621 0.30478 0.08942 0.0
H1671 H 0.72933 0.32062 0.09036 0.0
H1672 H 0.74762 0.38064 0.11812 0.0
H1673 H 0.74554 0.36697 0.10238 0.0
H1674 H 0.7621 0.40481 0.09484 0.0
H1675 H 0.75982 0.39145 0.07944 0.0
H1676 H 0.76859 0.35664 0.01265 0.0
H1677 H 0.73584 0.34041 0.01277 0.0
H1678 H 0.73506 0.34231 0.03349 0.0
H1679 H 0.76772 0.35852 0.03316 0.0
C1680 C 0.68261 0.72441 0.0741 0.0
C1681 C 0.68419 0.71764 0.06444 0.0
C1682 C 0.70084 0.70903 0.07308 0.0
C1683 C 0.6933 0.71002 0.06391 0.0
C1684 C 0.69967 0.71647 0.08228 0.0
C1685 C 0.69065 0.72404 0.08279 0.0
U1686 U 0.6563 0.74377 0.0678 0.0
O1687 O 0.63903 0.74134 0.07432 0.0
O1688 O 0.64892 0.75634 0.07945 0.0
C1689 C 0.63921 0.75095 0.07988 0.0
C1690 C 0.67206 0.73069 0.07632 0.0
C1691 C 0.63188 0.75228 0.0898 0.0
C1692 C 0.62715 0.75032 0.10976 0.0
C1693 C 0.63493 0.74903 0.10082 0.0
C1694 C 0.61357 0.75832 0.09667 0.0
C1695 C 0.6163 0.75479 0.10767 0.0
C1696 C 0.62123 0.75703 0.08786 0.0
C1697 C 0.65963 0.75125 0.03482 0.0
C1698 C 0.65682 0.76115 0.01709 0.0
C1699 C 0.66614 0.7429 0.01722 0.0
C1700 C 0.66505 0.74243 0.02902 0.0
C1701 C 0.66168 0.7521 0.01112 0.0
C1702 C 0.65582 0.76071 0.02882 0.0
C1703 C 0.65619 0.75029 0.04668 0.0
O1704 O 0.67266 0.7418 0.07655 0.0
O1705 O 0.66268 0.72679 0.07178 0.0
O1706 O 0.66154 0.75598 0.05459 0.0
O1707 O 0.65161 0.74076 0.05012 0.0
H1708 H 0.6781 0.71781 0.0576 0.0
H1709 H 0.69401 0.7044 0.05671 0.0
H1710 H 0.70544 0.71604 0.08939 0.0
H1711 H 0.68961 0.72917 0.09031 0.0
H1712 H 0.62947 0.74751 0.11816 0.0
H1713 H 0.64318 0.74538 0.10245 0.0
H1714 H 0.60538 0.76199 0.0948 0.0
H1715 H 0.61877 0.75966 0.07943 0.0
H1716 H 0.65343 0.76841 0.01266 0.0
H1717 H 0.66987 0.73578 0.01282 0.0
H1718 H 0.66795 0.735 0.03353 0.0
H1719 H 0.65151 0.76755 0.03316 0.0
C1720 C 0.2858 0.68242 0.07402 0.0
C1721 C 0.29263 0.68401 0.0644 0.0
C1722 C 0.3012 0.70065 0.0731 0.0
C1723 C 0.30025 0.69312 0.06392 0.0
C1724 C 0.2937 0.69947 0.08225 0.0
C1725 C 0.28613 0.69046 0.08271 0.0
U1726 U 0.26646 0.65601 0.0678 0.0
O1727 O 0.26898 0.63877 0.0744 0.0
O1728 O 0.25396 0.64863 0.07954 0.0
C1729 C 0.25938 0.63894 0.07999 0.0
C1730 C 0.27953 0.67185 0.07622 0.0
C1731 C 0.25805 0.63158 0.0899 0.0
C1732 C 0.25993 0.62682 0.10986 0.0
C1733 C 0.2612 0.63464 0.10094 0.0
C1734 C 0.25214 0.61319 0.09669 0.0
C1735 C 0.25557 0.61593 0.10772 0.0
C1736 C 0.25341 0.62089 0.08791 0.0
C1737 C 0.25897 0.65927 0.03483 0.0
C1738 C 0.2491 0.65652 0.01707 0.0
C1739 C 0.26737 0.6658 0.01726 0.0
C1740 C 0.26781 0.66468 0.02906 0.0
C1741 C 0.25817 0.66138 0.01113 0.0
C1742 C 0.24951 0.65549 0.02879 0.0
C1743 C 0.25989 0.65578 0.04669 0.0
O1744 O 0.26842 0.67241 0.07648 0.0
O1745 O 0.28344 0.66247 0.07169 0.0
O1746 O 0.2542 0.66114 0.0546 0.0
O1747 O 0.26944 0.65124 0.05014 0.0
H1748 H 0.29249 0.67792 0.05755 0.0
H1749 H 0.3059 0.69383 0.05674 0.0
H1750 H 0.29409 0.70523 0.08937 0.0
H1751 H 0.28096 0.68941 0.09021 0.0
H1752 H 0.26266 0.62915 0.11828 0.0
H1753 H 0.26476 0.6429 0.10262 0.0
H1754 H 0.24857 0.60497 0.09478 0.0
H1755 H 0.25085 0.61842 0.07946 0.0
H1756 H 0.24184 0.65315 0.01261 0.0
H1757 H 0.27451 0.66952 0.01289 0.0
H1758 H 0.27523 0.66755 0.0336 0.0
H1759 H 0.24265 0.65118 0.03311 0.0
C1760 C 0.32853 0.28549 0.07404 0.0
C1761 C 0.32694 0.29231 0.06441 0.0
C1762 C 0.31013 0.3007 0.07299 0.0
C1763 C 0.31774 0.29983 0.06387 0.0
C1764 C 0.31132 0.29322 0.08215 0.0
C1765 C 0.32042 0.28574 0.08267 0.0
U1766 U 0.35548 0.26651 0.06852 0.0
O1767 O 0.37252 0.26966 0.07545 0.0
O1768 O 0.36293 0.25449 0.08073 0.0
C1769 C 0.37246 0.26019 0.08124 0.0
C1770 C 0.33919 0.27941 0.07636 0.0
C1771 C 0.38026 0.25868 0.09083 0.0
C1772 C 0.38571 0.2601 0.11068 0.0
C1773 C 0.37755 0.26145 0.10208 0.0
C1774 C 0.39903 0.25299 0.09685 0.0
C1775 C 0.39663 0.25605 0.10809 0.0
C1776 C 0.39098 0.25433 0.08836 0.0
C1777 C 0.35254 0.2586 0.03567 0.0
C1778 C 0.35512 0.24884 0.01779 0.0
C1779 C 0.34566 0.267 0.01823 0.0
C1780 C 0.34696 0.26741 0.03002 0.0
C1781 C 0.35007 0.25787 0.01197 0.0
C1782 C 0.35631 0.2492 0.02951 0.0
C1783 C 0.35624 0.25953 0.0475 0.0
O1784 O 0.33884 0.2683 0.07681 0.0
O1785 O 0.34855 0.28342 0.07187 0.0
O1786 O 0.35089 0.25388 0.05545 0.0
O1787 O 0.36057 0.26919 0.05088 0.0
H1788 H 0.33309 0.29226 0.05762 0.0
H1789 H 0.31702 0.30548 0.05669 0.0
H1790 H 0.30551 0.29355 0.08923 0.0
H1791 H 0.32147 0.28058 0.09018 0.0
H1792 H 0.3836 0.26254 0.11926 0.0
H1793 H 0.36927 0.26478 0.10415 0.0
H1794 H 0.40724 0.24963 0.09455 0.0
H1795 H 0.39319 0.25205 0.07976 0.0
H1796 H 0.35846 0.24162 0.01323 0.0
H1797 H 0.34176 0.27411 0.01397 0.0
H1798 H 0.34408 0.27479 0.03463 0.0
H1799 H 0.36072 0.24236 0.03373 0.0
C1800 C 0.28581 0.32747 0.93631 0.0
C1801 C 0.29259 0.32588 0.94596 0.0
C1802 C 0.30122 0.30925 0.93728 0.0
C1803 C 0.30022 0.31677 0.94646 0.0
C1804 C 0.29377 0.31044 0.92809 0.0
C1805 C 0.28619 0.31945 0.92761 0.0
U1806 U 0.26643 0.35378 0.94264 0.0
O1807 O 0.26884 0.37106 0.93612 0.0
O1808 O 0.25384 0.36116 0.931 0.0
C1809 C 0.25923 0.37087 0.93056 0.0
C1810 C 0.27951 0.33802 0.93411 0.0
C1811 C 0.25789 0.3782 0.92064 0.0
C1812 C 0.25984 0.3829 0.90068 0.0
C1813 C 0.26113 0.37513 0.90962 0.0
C1814 C 0.25184 0.3965 0.91377 0.0
C1815 C 0.25536 0.39376 0.90276 0.0
C1816 C 0.25315 0.38884 0.92257 0.0
C1817 C 0.25898 0.35047 0.97564 0.0
C1818 C 0.24909 0.35328 0.99338 0.0
C1819 C 0.26735 0.34396 0.99323 0.0
C1820 C 0.26781 0.34505 0.98143 0.0
C1821 C 0.25814 0.34842 0.99934 0.0
C1822 C 0.24952 0.35428 0.98165 0.0
C1823 C 0.25993 0.35391 0.96377 0.0
O1824 O 0.2684 0.33743 0.93389 0.0
O1825 O 0.28341 0.3474 0.93866 0.0
O1826 O 0.25423 0.34855 0.95587 0.0
O1827 O 0.26945 0.35848 0.96032 0.0
H1828 H 0.29241 0.33195 0.95282 0.0
H1829 H 0.30584 0.31605 0.95366 0.0
H1830 H 0.29419 0.30469 0.92096 0.0
H1831 H 0.28105 0.32051 0.92009 0.0
H1832 H 0.26263 0.38058 0.89227 0.0
H1833 H 0.26478 0.36689 0.90798 0.0
H1834 H 0.24817 0.40469 0.91563 0.0
H1835 H 0.25051 0.39131 0.93101 0.0
H1836 H 0.24183 0.35668 0.99782 0.0
H1837 H 0.27447 0.34024 0.99762 0.0
H1838 H 0.27523 0.34215 0.97691 0.0
H1839 H 0.24268 0.35859 0.97732 0.0
C1840 C 0.68254 0.28556 0.93621 0.0
C1841 C 0.68412 0.29231 0.94589 0.0
C1842 C 0.70078 0.30092 0.93727 0.0
C1843 C 0.69324 0.29992 0.94643 0.0
C1844 C 0.69961 0.2935 0.92805 0.0
C1845 C 0.69059 0.28594 0.92753 0.0
U1846 U 0.65623 0.26621 0.94252 0.0
O1847 O 0.63895 0.26864 0.93601 0.0
O1848 O 0.64884 0.25364 0.93087 0.0
C1849 C 0.63913 0.25903 0.93044 0.0
C1850 C 0.67199 0.27928 0.93398 0.0
C1851 C 0.63181 0.25772 0.92051 0.0
C1852 C 0.62711 0.25971 0.90056 0.0
C1853 C 0.63488 0.26098 0.9095 0.0
C1854 C 0.61349 0.25171 0.91363 0.0
C1855 C 0.61624 0.25524 0.90263 0.0
C1856 C 0.62116 0.25298 0.92244 0.0
C1857 C 0.65959 0.25876 0.9755 0.0
C1858 C 0.65684 0.24883 0.99322 0.0
C1859 C 0.66606 0.26714 0.9931 0.0
C1860 C 0.66496 0.26761 0.9813 0.0
C1861 C 0.66165 0.25791 0.99919 0.0
C1862 C 0.65583 0.24927 0.98149 0.0
C1863 C 0.65613 0.25971 0.96363 0.0
O1864 O 0.67258 0.26818 0.93375 0.0
O1865 O 0.66262 0.28319 0.93853 0.0
O1866 O 0.66147 0.25401 0.95572 0.0
O1867 O 0.65156 0.26924 0.9602 0.0
H1868 H 0.67803 0.29213 0.95272 0.0
H1869 H 0.69395 0.30553 0.95364 0.0
H1870 H 0.70538 0.29394 0.92094 0.0
H1871 H 0.68954 0.28081 0.92 0.0
H1872 H 0.62943 0.26252 0.89216 0.0
H1873 H 0.64313 0.26461 0.90788 0.0
H1874 H 0.6053 0.24805 0.91549 0.0
H1875 H 0.61868 0.25034 0.93087 0.0
H1876 H 0.65348 0.24155 0.99765 0.0
H1877 H 0.66974 0.27428 0.9975 0.0
H1878 H 0.66782 0.27505 0.97679 0.0
H1879 H 0.65157 0.24241 0.97715 0.0
C1880 C 0.32847 0.72451 0.9364 0.0
C1881 C 0.32688 0.71767 0.94601 0.0
C1882 C 0.31009 0.70928 0.93741 0.0
C1883 C 0.31769 0.71013 0.94654 0.0
C1884 C 0.31127 0.71678 0.92827 0.0
C1885 C 0.32036 0.72428 0.92777 0.0
U1886 U 0.35545 0.74351 0.94187 0.0
O1887 O 0.37246 0.74031 0.93485 0.0
O1888 O 0.36286 0.7555 0.9296 0.0
C1889 C 0.37238 0.74978 0.92905 0.0
C1890 C 0.33913 0.73061 0.93409 0.0
C1891 C 0.3802 0.75134 0.91948 0.0
C1892 C 0.38573 0.74988 0.89966 0.0
C1893 C 0.37755 0.74851 0.90825 0.0
C1894 C 0.39895 0.75715 0.91351 0.0
C1895 C 0.39662 0.75402 0.90228 0.0
C1896 C 0.39087 0.75578 0.92197 0.0
C1897 C 0.35264 0.75143 0.97471 0.0
C1898 C 0.35526 0.76113 0.99263 0.0
C1899 C 0.34567 0.74303 0.99212 0.0
C1900 C 0.347 0.74264 0.98034 0.0
C1901 C 0.35011 0.75213 0.99841 0.0
C1902 C 0.35648 0.76078 0.9809 0.0
C1903 C 0.35632 0.75051 0.96288 0.0
O1904 O 0.33878 0.74172 0.93365 0.0
O1905 O 0.34849 0.7266 0.93857 0.0
O1906 O 0.35094 0.75614 0.95494 0.0
O1907 O 0.36063 0.74085 0.95947 0.0
H1908 H 0.33303 0.71771 0.9528 0.0
H1909 H 0.31699 0.70446 0.9537 0.0
H1910 H 0.30546 0.71646 0.92119 0.0
H1911 H 0.32141 0.72945 0.92028 0.0
H1912 H 0.38366 0.74739 0.89109 0.0
H1913 H 0.36931 0.74511 0.90616 0.0
H1914 H 0.40712 0.76058 0.91582 0.0
H1915 H 0.39304 0.75811 0.93058 0.0
H1916 H 0.35865 0.76831 0.99721 0.0
H1917 H 0.34171 0.73594 0.99636 0.0
H1918 H 0.34408 0.73529 0.97571 0.0
H1919 H 0.36095 0.7676 0.97671 0.0
C1920 C 0.57437 0.78568 0.8298 0.0
C1921 C 0.56437 0.7861 0.82337 0.0
C1922 C 0.5726 0.80082 0.81139 0.0
C1923 C 0.56347 0.7937 0.81423 0.0
C1924 C 0.58249 0.80033 0.81796 0.0
C1925 C 0.58334 0.79287 0.82702 0.0
U1926 U 0.56828 0.76368 0.85448 0.0
O1927 O 0.58043 0.75063 0.8602 0.0
O1928 O 0.57591 0.7649 0.87132 0.0
C1929 C 0.58154 0.75541 0.87019 0.0
C1930 C 0.57613 0.77799 0.83942 0.0
C1931 C 0.59221 0.7544 0.87644 0.0
C1932 C 0.61174 0.75955 0.8805 0.0
C1933 C 0.60234 0.75969 0.87317 0.0
C1934 C 0.60091 0.74867 0.89409 0.0
C1935 C 0.61093 0.75426 0.89114 0.0
C1936 C 0.59168 0.74872 0.88681 0.0
C1937 C 0.53483 0.75783 0.85403 0.0
C1938 C 0.5158 0.75662 0.86168 0.0
C1939 C 0.51864 0.75867 0.84148 0.0
C1940 C 0.53039 0.7587 0.84309 0.0
C1941 C 0.51119 0.75782 0.8508 0.0
C1942 C 0.52748 0.75661 0.86325 0.0
C1943 C 0.54701 0.75787 0.85643 0.0
O1944 O 0.57223 0.78114 0.84935 0.0
O1945 O 0.57552 0.76703 0.83762 0.0
O1946 O 0.55132 0.7668 0.86142 0.0
O1947 O 0.55407 0.75255 0.84965 0.0
H1948 H 0.55733 0.78059 0.82541 0.0
H1949 H 0.55574 0.79391 0.80932 0.0
H1950 H 0.58959 0.80584 0.81619 0.0
H1951 H 0.5911 0.79271 0.8319 0.0
H1952 H 0.61938 0.76401 0.87813 0.0
H1953 H 0.60285 0.76421 0.86522 0.0
H1954 H 0.60007 0.7446 0.90226 0.0
H1955 H 0.5839 0.74468 0.88951 0.0
H1956 H 0.5104 0.7561 0.86906 0.0
H1957 H 0.51539 0.75943 0.83296 0.0
H1958 H 0.53596 0.75951 0.83586 0.0
H1959 H 0.53079 0.75581 0.87176 0.0
C1960 C 0.22387 0.57632 0.82923 0.0
C1961 C 0.22357 0.56609 0.82316 0.0
C1962 C 0.20891 0.57381 0.8108 0.0
C1963 C 0.21606 0.56483 0.814 0.0
C1964 C 0.20928 0.58392 0.81703 0.0
C1965 C 0.21666 0.58514 0.82611 0.0
U1966 U 0.24533 0.56921 0.85358 0.0
O1967 O 0.25894 0.58036 0.85997 0.0
O1968 O 0.24456 0.57582 0.87089 0.0
C1969 C 0.25422 0.5812 0.87001 0.0
C1970 C 0.23141 0.57835 0.83891 0.0
C1971 C 0.25532 0.59178 0.87644 0.0
C1972 C 0.25069 0.61144 0.88052 0.0
C1973 C 0.25039 0.60209 0.87314 0.0
C1974 C 0.26102 0.60023 0.89422 0.0
C1975 C 0.25578 0.61044 0.89124 0.0
C1976 C 0.2608 0.59103 0.8869 0.0
C1977 C 0.25079 0.53549 0.85192 0.0
C1978 C 0.25497 0.51704 0.85977 0.0
C1979 C 0.24834 0.51864 0.84043 0.0
C1980 C 0.24782 0.53044 0.84161 0.0
C1981 C 0.25192 0.51183 0.84953 0.0
C1982 C 0.2544 0.52873 0.86093 0.0
C1983 C 0.24996 0.54767 0.85392 0.0
O1984 O 0.22812 0.57434 0.84874 0.0
O1985 O 0.24237 0.57755 0.83718 0.0
O1986 O 0.24113 0.55192 0.85915 0.0
O1987 O 0.25579 0.55489 0.84778 0.0
H1988 H 0.22909 0.55916 0.82549 0.0
H1989 H 0.21593 0.55693 0.80935 0.0
H1990 H 0.20372 0.59091 0.81498 0.0
H1991 H 0.21672 0.59305 0.83074 0.0
H1992 H 0.24653 0.61923 0.8781 0.0
H1993 H 0.24604 0.60278 0.86511 0.0
H1994 H 0.26497 0.59924 0.90244 0.0
H1995 H 0.26458 0.58314 0.88962 0.0
H1996 H 0.25754 0.51205 0.86701 0.0
H1997 H 0.24598 0.51484 0.83244 0.0
H1998 H 0.245 0.53559 0.83457 0.0
H1999 H 0.25667 0.53251 0.86898 0.0
C2000 C 0.4339 0.22377 0.82935 0.0
C2001 C 0.44409 0.2235 0.82321 0.0
C2002 C 0.43633 0.20881 0.8109 0.0
C2003 C 0.44532 0.21599 0.81404 0.0
C2004 C 0.42626 0.20915 0.8172 0.0
C2005 C 0.42508 0.21653 0.82628 0.0
U2006 U 0.44081 0.24527 0.85381 0.0
O2007 O 0.42949 0.25877 0.86015 0.0
O2008 O 0.43403 0.24438 0.87105 0.0
C2009 C 0.42862 0.25402 0.87017 0.0
C2010 C 0.43188 0.23131 0.83904 0.0
C2011 C 0.41807 0.25516 0.87666 0.0
C2012 C 0.39852 0.25029 0.88108 0.0
C2013 C 0.4078 0.25001 0.87358 0.0
C2014 C 0.40973 0.26106 0.89444 0.0
C2015 C 0.39957 0.25559 0.8917 0.0
C2016 C 0.41884 0.26087 0.887 0.0
C2017 C 0.47451 0.25075 0.85227 0.0
C2018 C 0.49307 0.2547 0.85999 0.0
C2019 C 0.49124 0.2483 0.84059 0.0
C2020 C 0.47943 0.24785 0.84188 0.0
C2021 C 0.49816 0.25174 0.84967 0.0
C2022 C 0.48139 0.2542 0.86126 0.0
C2023 C 0.46233 0.2501 0.85441 0.0
O2024 O 0.43587 0.22803 0.84888 0.0
O2025 O 0.43265 0.24228 0.83732 0.0
O2026 O 0.45807 0.24124 0.85957 0.0
O2027 O 0.45513 0.25585 0.84817 0.0
H2028 H 0.45102 0.22905 0.8255 0.0
H2029 H 0.45318 0.21589 0.80934 0.0
H2030 H 0.41928 0.20357 0.81519 0.0
H2031 H 0.4172 0.21656 0.83097 0.0
H2032 H 0.39079 0.24593 0.87885 0.0
H2033 H 0.40708 0.24549 0.86565 0.0
H2034 H 0.41076 0.26516 0.90258 0.0
H2035 H 0.42671 0.26482 0.88955 0.0
H2036 H 0.49814 0.25717 0.86721 0.0
H2037 H 0.49495 0.24601 0.83254 0.0
H2038 H 0.4742 0.24516 0.83486 0.0
H2039 H 0.47771 0.25641 0.86937 0.0
C2040 C 0.78616 0.43441 0.82934 0.0
C2041 C 0.78644 0.44453 0.82311 0.0
C2042 C 0.8012 0.43668 0.81094 0.0
C2043 C 0.794 0.44569 0.81397 0.0
C2044 C 0.80085 0.42667 0.81733 0.0
C2045 C 0.79343 0.42557 0.82639 0.0
U2046 U 0.76437 0.44099 0.85376 0.0
O2047 O 0.75098 0.42939 0.85982 0.0
O2048 O 0.76527 0.43395 0.87088 0.0
C2049 C 0.75569 0.42846 0.86986 0.0
C2050 C 0.77853 0.43243 0.83897 0.0
C2051 C 0.75463 0.41785 0.8762 0.0
C2052 C 0.75962 0.3983 0.88032 0.0
C2053 C 0.7598 0.40765 0.87294 0.0
C2054 C 0.74894 0.40931 0.89393 0.0
C2055 C 0.75442 0.39921 0.891 0.0
C2056 C 0.74903 0.4185 0.88661 0.0
C2057 C 0.75875 0.47458 0.85267 0.0
C2058 C 0.75572 0.49331 0.86044 0.0
C2059 C 0.7607 0.49111 0.84067 0.0
C2060 C 0.76099 0.47932 0.84204 0.0
C2061 C 0.75811 0.49821 0.8499 0.0
C2062 C 0.75605 0.48163 0.8618 0.0
C2063 C 0.75917 0.46241 0.85488 0.0
O2064 O 0.78172 0.43639 0.84885 0.0
O2065 O 0.76757 0.43314 0.83717 0.0
O2066 O 0.76806 0.45814 0.85998 0.0
O2067 O 0.75363 0.45529 0.84837 0.0
H2068 H 0.78087 0.45147 0.8253 0.0
H2069 H 0.79411 0.4535 0.8092 0.0
H2070 H 0.80644 0.41968 0.8154 0.0
H2071 H 0.79338 0.41772 0.83113 0.0
H2072 H 0.76398 0.3906 0.87796 0.0
H2073 H 0.76425 0.40705 0.86496 0.0
H2074 H 0.74493 0.41022 0.90213 0.0
H2075 H 0.74508 0.42632 0.8893 0.0
H2076 H 0.7539 0.49851 0.86777 0.0
H2077 H 0.76253 0.49467 0.83244 0.0
H2078 H 0.76306 0.47397 0.8349 0.0
H2079 H 0.75431 0.47808 0.87007 0.0
C2080 C 0.57436 0.22438 0.18056 0.0
C2081 C 0.56436 0.22397 0.18697 0.0
C2082 C 0.57257 0.20924 0.19896 0.0
C2083 C 0.56345 0.21637 0.19612 0.0
C2084 C 0.58246 0.20973 0.19239 0.0
C2085 C 0.58333 0.21719 0.18334 0.0
U2086 U 0.56826 0.24636 0.15587 0.0
O2087 O 0.58039 0.25943 0.15014 0.0
O2088 O 0.57591 0.24516 0.13903 0.0
C2089 C 0.58152 0.25465 0.14016 0.0
C2090 C 0.57613 0.23207 0.17093 0.0
C2091 C 0.5922 0.25567 0.13392 0.0
C2092 C 0.61172 0.25051 0.12989 0.0
C2093 C 0.60232 0.25039 0.13722 0.0
C2094 C 0.60091 0.26136 0.11627 0.0
C2095 C 0.61093 0.25577 0.11924 0.0
C2096 C 0.59167 0.26133 0.12355 0.0
C2097 C 0.5348 0.2521 0.15628 0.0
C2098 C 0.51576 0.25298 0.14858 0.0
C2099 C 0.51859 0.25172 0.16884 0.0
C2100 C 0.53034 0.25164 0.16724 0.0
C2101 C 0.51115 0.25221 0.15949 0.0
C2102 C 0.52745 0.25295 0.14701 0.0
C2103 C 0.54698 0.2521 0.15389 0.0
O2104 O 0.57226 0.22891 0.161 0.0
O2105 O 0.5755 0.24303 0.17273 0.0
O2106 O 0.55132 0.24318 0.14891 0.0
O2107 O 0.55401 0.25745 0.16067 0.0
H2108 H 0.55733 0.22948 0.18494 0.0
H2109 H 0.55572 0.21617 0.20103 0.0
H2110 H 0.58956 0.20421 0.19417 0.0
H2111 H 0.59109 0.21734 0.17846 0.0
H2112 H 0.61936 0.24605 0.13227 0.0
H2113 H 0.60282 0.24588 0.14517 0.0
H2114 H 0.60008 0.26541 0.10809 0.0
H2115 H 0.5839 0.26536 0.12082 0.0
H2116 H 0.51038 0.25321 0.14117 0.0
H2117 H 0.51533 0.25129 0.17738 0.0
H2118 H 0.5359 0.25114 0.17451 0.0
H2119 H 0.53077 0.25344 0.13848 0.0
C2120 C 0.78637 0.57623 0.1811 0.0
C2121 C 0.78664 0.56605 0.18725 0.0
C2122 C 0.80136 0.5738 0.19952 0.0
C2123 C 0.79416 0.56482 0.1964 0.0
C2124 C 0.80102 0.58386 0.19321 0.0
C2125 C 0.79362 0.58504 0.18414 0.0
U2126 U 0.76484 0.56919 0.15676 0.0
O2127 O 0.75124 0.5804 0.15045 0.0
O2128 O 0.7656 0.57589 0.13949 0.0
C2129 C 0.75595 0.58128 0.14041 0.0
C2130 C 0.7788 0.57824 0.17144 0.0
C2131 C 0.75485 0.59188 0.13402 0.0
C2132 C 0.75978 0.61143 0.12981 0.0
C2133 C 0.76002 0.6021 0.13721 0.0
C2134 C 0.74901 0.60039 0.11631 0.0
C2135 C 0.7545 0.6105 0.11918 0.0
C2136 C 0.74917 0.59121 0.12366 0.0
C2137 C 0.75942 0.53548 0.15831 0.0
C2138 C 0.75545 0.51697 0.1505 0.0
C2139 C 0.7618 0.5187 0.16992 0.0
C2140 C 0.76228 0.53051 0.16869 0.0
C2141 C 0.75837 0.51183 0.16081 0.0
C2142 C 0.75597 0.52865 0.14928 0.0
C2143 C 0.76013 0.54766 0.15625 0.0
O2144 O 0.78206 0.57425 0.1616 0.0
O2145 O 0.76784 0.57743 0.1732 0.0
O2146 O 0.76896 0.55193 0.15105 0.0
O2147 O 0.75435 0.55484 0.16248 0.0
H2148 H 0.78108 0.55912 0.18498 0.0
H2149 H 0.79427 0.55697 0.20111 0.0
H2150 H 0.80661 0.59085 0.1952 0.0
H2151 H 0.79359 0.59292 0.17945 0.0
H2152 H 0.76415 0.61914 0.13213 0.0
H2153 H 0.76453 0.60272 0.14516 0.0
H2154 H 0.74493 0.59945 0.10816 0.0
H2155 H 0.7452 0.58337 0.12102 0.0
H2156 H 0.75299 0.51193 0.14325 0.0
H2157 H 0.76407 0.51496 0.17796 0.0
H2158 H 0.76497 0.5357 0.17574 0.0
H2159 H 0.75379 0.53237 0.14119 0.0
C2160 C 0.43382 0.78627 0.18103 0.0
C2161 C 0.44405 0.78657 0.1871 0.0
C2162 C 0.43633 0.80121 0.19948 0.0
C2163 C 0.44532 0.79407 0.19627 0.0
C2164 C 0.42621 0.80084 0.19327 0.0
C2165 C 0.42499 0.79347 0.18418 0.0
U2166 U 0.44077 0.76484 0.15657 0.0
O2167 O 0.4295 0.75133 0.15015 0.0
O2168 O 0.43409 0.76573 0.13929 0.0
C2169 C 0.42867 0.75609 0.14014 0.0
C2170 C 0.43177 0.77876 0.17133 0.0
C2171 C 0.41814 0.75494 0.13359 0.0
C2172 C 0.39855 0.75963 0.1292 0.0
C2173 C 0.40781 0.75994 0.13671 0.0
C2174 C 0.4099 0.74916 0.11573 0.0
C2175 C 0.39967 0.75447 0.11851 0.0
C2176 C 0.419 0.74938 0.12319 0.0
C2177 C 0.47449 0.75931 0.1582 0.0
C2178 C 0.493 0.75516 0.15046 0.0
C2179 C 0.49127 0.76183 0.16978 0.0
C2180 C 0.47947 0.76232 0.16853 0.0
C2181 C 0.49814 0.75824 0.16072 0.0
C2182 C 0.48132 0.7557 0.14923 0.0
C2183 C 0.4623 0.76006 0.1561 0.0
O2184 O 0.43579 0.78206 0.1615 0.0
O2185 O 0.43253 0.76779 0.17302 0.0
O2186 O 0.45807 0.76892 0.15093 0.0
O2187 O 0.45508 0.75427 0.16227 0.0
H2188 H 0.45098 0.78106 0.18475 0.0
H2189 H 0.45322 0.7942 0.2009 0.0
H2190 H 0.41923 0.80639 0.19534 0.0
H2191 H 0.41707 0.79342 0.17956 0.0
H2192 H 0.39075 0.76386 0.13148 0.0
H2193 H 0.40703 0.76435 0.14471 0.0
H2194 H 0.41099 0.74516 0.10755 0.0
H2195 H 0.42692 0.74554 0.1206 0.0
H2196 H 0.49804 0.75258 0.14325 0.0
H2197 H 0.49502 0.76422 0.17779 0.0
H2198 H 0.47428 0.76514 0.17553 0.0
H2199 H 0.47759 0.7534 0.14117 0.0
C2200 C 0.22396 0.43413 0.18103 0.0
C2201 C 0.22369 0.44429 0.18721 0.0
C2202 C 0.20896 0.43649 0.19944 0.0
C2203 C 0.21616 0.44548 0.19637 0.0
C2204 C 0.20929 0.42646 0.19309 0.0
C2205 C 0.2167 0.42531 0.18403 0.0
U2206 U 0.24562 0.44091 0.15664 0.0
O2207 O 0.25911 0.42949 0.15046 0.0
O2208 O 0.24479 0.43401 0.13945 0.0
C2209 C 0.25441 0.42857 0.14043 0.0
C2210 C 0.23156 0.43212 0.17139 0.0
C2211 C 0.2555 0.41797 0.13406 0.0
C2212 C 0.25068 0.39836 0.12997 0.0
C2213 C 0.25042 0.40773 0.13733 0.0
C2214 C 0.26124 0.40944 0.11633 0.0
C2215 C 0.25586 0.39929 0.11929 0.0
C2216 C 0.26107 0.41864 0.12364 0.0
C2217 C 0.25109 0.47456 0.15797 0.0
C2218 C 0.25452 0.4932 0.15019 0.0
C2219 C 0.24897 0.49119 0.16983 0.0
C2220 C 0.24859 0.4794 0.16851 0.0
C2221 C 0.25194 0.4982 0.16066 0.0
C2222 C 0.25409 0.48152 0.14888 0.0
C2223 C 0.25058 0.46239 0.1558 0.0
O2224 O 0.22833 0.43609 0.16152 0.0
O2225 O 0.24252 0.43288 0.17316 0.0
O2226 O 0.24173 0.4581 0.15065 0.0
O2227 O 0.25623 0.45524 0.16219 0.0
H2228 H 0.22926 0.45121 0.18498 0.0
H2229 H 0.21605 0.45332 0.2011 0.0
H2230 H 0.2037 0.41947 0.19506 0.0
H2231 H 0.21674 0.41744 0.17931 0.0
H2232 H 0.24639 0.39062 0.13236 0.0
H2233 H 0.24599 0.4071 0.14533 0.0
H2234 H 0.26525 0.41037 0.10814 0.0
H2235 H 0.26496 0.42649 0.12094 0.0
H2236 H 0.25661 0.49833 0.1429 0.0
H2237 H 0.24697 0.49483 0.178 0.0
H2238 H 0.24626 0.4741 0.17561 0.0
H2239 H 0.25601 0.47791 0.14068 0.0
C2240 C 0.82926 0.57691 0.78658 0.0
C2241 C 0.82283 0.5669 0.78697 0.0
C2242 C 0.81085 0.57513 0.80168 0.0
C2243 C 0.81368 0.566 0.79455 0.0
C2244 C 0.81745 0.585 0.80123 0.0
C2245 C 0.82651 0.58586 0.79378 0.0
U2246 U 0.85341 0.5692 0.76502 0.0
O2247 O 0.85982 0.58018 0.75128 0.0
O2248 O 0.87078 0.57565 0.76562 0.0
C2249 C 0.86988 0.58101 0.75595 0.0
C2250 C 0.83891 0.57863 0.77892 0.0
C2251 C 0.87625 0.59163 0.75489 0.0
C2252 C 0.88028 0.61125 0.75972 0.0
C2253 C 0.87294 0.60187 0.75996 0.0
C2254 C 0.89396 0.60021 0.74917 0.0
C2255 C 0.89097 0.61035 0.75455 0.0
C2256 C 0.88667 0.59099 0.74932 0.0
C2257 C 0.8516 0.53543 0.75963 0.0
C2258 C 0.85956 0.51705 0.75537 0.0
C2259 C 0.84021 0.51851 0.76201 0.0
C2260 C 0.84132 0.53031 0.76257 0.0
C2261 C 0.84935 0.51177 0.75842 0.0
C2262 C 0.86066 0.52875 0.75598 0.0
C2263 C 0.85348 0.54762 0.76062 0.0
O2264 O 0.84871 0.57454 0.7822 0.0
O2265 O 0.8371 0.5777 0.76799 0.0
O2266 O 0.85882 0.55188 0.76938 0.0
O2267 O 0.84742 0.55485 0.75472 0.0
H2268 H 0.82487 0.55987 0.78146 0.0
H2269 H 0.80875 0.55828 0.79474 0.0
H2270 H 0.8157 0.59208 0.80678 0.0
H2271 H 0.83141 0.5936 0.79366 0.0
H2272 H 0.87787 0.61898 0.764 0.0
H2273 H 0.86494 0.60248 0.76437 0.0
H2274 H 0.90215 0.5993 0.74517 0.0
H2275 H 0.8894 0.58314 0.74543 0.0
H2276 H 0.86683 0.51211 0.75278 0.0
H2277 H 0.83225 0.51466 0.76437 0.0
H2278 H 0.83425 0.5354 0.76543 0.0
H2279 H 0.86868 0.53259 0.75374 0.0
C2280 C 0.43221 0.82937 0.78694 0.0
C2281 C 0.44195 0.82255 0.78751 0.0
C2282 C 0.4331 0.8111 0.80232 0.0
C2283 C 0.44241 0.81347 0.79522 0.0
C2284 C 0.42353 0.81811 0.80169 0.0
C2285 C 0.4231 0.82708 0.79411 0.0
U2286 U 0.44084 0.8532 0.7653 0.0
O2287 O 0.43018 0.8597 0.75136 0.0
O2288 O 0.43474 0.8707 0.76565 0.0
C2289 C 0.4294 0.86979 0.75597 0.0
C2290 C 0.43091 0.83898 0.77915 0.0
C2291 C 0.41875 0.87614 0.75492 0.0
C2292 C 0.3991 0.8801 0.75975 0.0
C2293 C 0.40851 0.87279 0.75997 0.0
C2294 C 0.4101 0.89383 0.74924 0.0
C2295 C 0.39997 0.89081 0.75461 0.0
C2296 C 0.41935 0.88658 0.74938 0.0
C2297 C 0.4747 0.85102 0.75997 0.0
C2298 C 0.49293 0.8593 0.7556 0.0
C2299 C 0.49182 0.83988 0.76207 0.0
C2300 C 0.48002 0.8408 0.76272 0.0
C2301 C 0.49839 0.84915 0.75855 0.0
C2302 C 0.4812 0.86022 0.75634 0.0
C2303 C 0.4625 0.85254 0.76146 0.0
O2304 O 0.43511 0.84873 0.78242 0.0
O2305 O 0.43201 0.83706 0.76824 0.0
O2306 O 0.45825 0.85822 0.77001 0.0
O2307 O 0.45521 0.84679 0.75533 0.0
H2308 H 0.44911 0.82423 0.78205 0.0
H2309 H 0.44992 0.80824 0.79554 0.0
H2310 H 0.41634 0.81677 0.80721 0.0
H2311 H 0.41556 0.83229 0.79385 0.0
H2312 H 0.39138 0.87766 0.76403 0.0
H2313 H 0.40793 0.86478 0.76437 0.0
H2314 H 0.41099 0.90204 0.74526 0.0
H2315 H 0.42719 0.88934 0.7455 0.0
H2316 H 0.49775 0.86665 0.75304 0.0
H2317 H 0.4958 0.83195 0.76434 0.0
H2318 H 0.47508 0.83363 0.76559 0.0
H2319 H 0.47721 0.86821 0.75425 0.0
C2320 C 0.18114 0.4337 0.78643 0.0
C2321 C 0.18721 0.44392 0.78673 0.0
C2322 C 0.19955 0.43621 0.80141 0.0
C2323 C 0.19636 0.44519 0.79425 0.0
C2324 C 0.19331 0.42611 0.80105 0.0
C2325 C 0.18425 0.42488 0.79365 0.0
U2326 U 0.15684 0.44089 0.76496 0.0
O2327 O 0.15045 0.4298 0.7513 0.0
O2328 O 0.13951 0.43434 0.76566 0.0
C2329 C 0.14041 0.42896 0.756 0.0
C2330 C 0.17147 0.43167 0.77888 0.0
C2331 C 0.13401 0.41837 0.75492 0.0
C2332 C 0.12993 0.39875 0.75971 0.0
C2333 C 0.1373 0.40811 0.75996 0.0
C2334 C 0.11627 0.40985 0.7492 0.0
C2335 C 0.11923 0.3997 0.75456 0.0
C2336 C 0.12359 0.41905 0.74936 0.0
C2337 C 0.15853 0.47463 0.75953 0.0
C2338 C 0.15061 0.49304 0.75534 0.0
C2339 C 0.16997 0.49151 0.76193 0.0
C2340 C 0.16884 0.47971 0.76247 0.0
C2341 C 0.16084 0.49828 0.75837 0.0
C2342 C 0.14949 0.48135 0.75593 0.0
C2343 C 0.15659 0.46244 0.76043 0.0
O2344 O 0.16164 0.43568 0.78216 0.0
O2345 O 0.17321 0.4325 0.76792 0.0
O2346 O 0.15133 0.45818 0.76923 0.0
O2347 O 0.16271 0.45523 0.75456 0.0
H2348 H 0.18489 0.45085 0.7812 0.0
H2349 H 0.20101 0.45308 0.79438 0.0
H2350 H 0.19536 0.41913 0.80661 0.0
H2351 H 0.17961 0.41698 0.7936 0.0
H2352 H 0.13232 0.39101 0.76398 0.0
H2353 H 0.1453 0.40747 0.76437 0.0
H2354 H 0.10808 0.41079 0.74521 0.0
H2355 H 0.12088 0.42691 0.74549 0.0
H2356 H 0.14335 0.498 0.75277 0.0
H2357 H 0.17796 0.49534 0.76427 0.0
H2358 H 0.17589 0.4746 0.76529 0.0
H2359 H 0.14145 0.47754 0.75369 0.0
C2360 C 0.57638 0.18097 0.78642 0.0
C2361 C 0.5662 0.18713 0.7867 0.0
C2362 C 0.57397 0.19937 0.80143 0.0
C2363 C 0.56499 0.19628 0.79423 0.0
C2364 C 0.58403 0.19305 0.80109 0.0
C2365 C 0.5852 0.18399 0.79368 0.0
U2366 U 0.56925 0.15667 0.76489 0.0
O2367 O 0.58042 0.15034 0.75126 0.0
O2368 O 0.57591 0.13938 0.76561 0.0
C2369 C 0.58129 0.1403 0.75595 0.0
C2370 C 0.57838 0.17131 0.77884 0.0
C2371 C 0.5919 0.13393 0.75486 0.0
C2372 C 0.61147 0.12978 0.7598 0.0
C2373 C 0.60212 0.13715 0.76003 0.0
C2374 C 0.60045 0.11624 0.74904 0.0
C2375 C 0.61056 0.11913 0.75453 0.0
C2376 C 0.59126 0.12357 0.74919 0.0
C2377 C 0.53552 0.15826 0.7595 0.0
C2378 C 0.51704 0.15041 0.75544 0.0
C2379 C 0.5187 0.16979 0.76191 0.0
C2380 C 0.53051 0.1686 0.76241 0.0
C2381 C 0.51187 0.16068 0.75842 0.0
C2382 C 0.52873 0.14923 0.75598 0.0
C2383 C 0.54771 0.15624 0.76026 0.0
O2384 O 0.57438 0.16147 0.78211 0.0
O2385 O 0.57754 0.17308 0.76789 0.0
O2386 O 0.55199 0.15101 0.76908 0.0
O2387 O 0.5549 0.16244 0.75446 0.0
H2388 H 0.55927 0.18488 0.78114 0.0
H2389 H 0.55714 0.20099 0.79434 0.0
H2390 H 0.59101 0.19503 0.80668 0.0
H2391 H 0.59307 0.17929 0.79364 0.0
H2392 H 0.61917 0.13211 0.76417 0.0
H2393 H 0.60272 0.14511 0.76453 0.0
H2394 H 0.59953 0.10808 0.74497 0.0
H2395 H 0.58343 0.12091 0.74523 0.0
H2396 H 0.51203 0.14316 0.75293 0.0
H2397 H 0.51492 0.17781 0.76422 0.0
H2398 H 0.53567 0.17565 0.76515 0.0
H2399 H 0.53249 0.14116 0.75377 0.0
C2400 C 0.82917 0.43376 0.22393 0.0
C2401 C 0.82302 0.44393 0.22365 0.0
C2402 C 0.81077 0.43615 0.20893 0.0
C2403 C 0.81387 0.44514 0.21612 0.0
C2404 C 0.81709 0.4261 0.20927 0.0
C2405 C 0.82615 0.42493 0.21667 0.0
U2406 U 0.85347 0.44089 0.24546 0.0
O2407 O 0.85979 0.42974 0.2591 0.0
O2408 O 0.87076 0.43424 0.24475 0.0
C2409 C 0.86984 0.42886 0.2544 0.0
C2410 C 0.83883 0.43176 0.23151 0.0
C2411 C 0.8762 0.41824 0.25549 0.0
C2412 C 0.88031 0.39866 0.25059 0.0
C2413 C 0.87295 0.40803 0.25035 0.0
C2414 C 0.89388 0.40968 0.26129 0.0
C2415 C 0.89096 0.39957 0.25583 0.0
C2416 C 0.88657 0.41888 0.26114 0.0
C2417 C 0.85188 0.47462 0.25085 0.0
C2418 C 0.85973 0.49309 0.25491 0.0
C2419 C 0.84034 0.49143 0.24845 0.0
C2420 C 0.84153 0.47963 0.24795 0.0
C2421 C 0.84946 0.49827 0.25194 0.0
C2422 C 0.86091 0.4814 0.25437 0.0
C2423 C 0.85389 0.46243 0.25009 0.0
O2424 O 0.84867 0.43575 0.22824 0.0
O2425 O 0.83706 0.4326 0.24246 0.0
O2426 O 0.85912 0.45815 0.24127 0.0
O2427 O 0.84769 0.45524 0.25589 0.0
H2428 H 0.82527 0.45086 0.22921 0.0
H2429 H 0.80915 0.45299 0.21601 0.0
H2430 H 0.81511 0.41912 0.20368 0.0
H2431 H 0.83085 0.41706 0.21671 0.0
H2432 H 0.87795 0.39095 0.24623 0.0
H2433 H 0.86498 0.40743 0.24586 0.0
H2434 H 0.90205 0.41059 0.26535 0.0
H2435 H 0.88926 0.42671 0.26509 0.0
H2436 H 0.86698 0.4981 0.25743 0.0
H2437 H 0.83232 0.49521 0.24614 0.0
H2438 H 0.83448 0.47447 0.2452 0.0
H2439 H 0.86898 0.47765 0.25659 0.0
C2440 C 0.57643 0.82901 0.22393 0.0
C2441 C 0.56621 0.82294 0.22364 0.0
C2442 C 0.57392 0.8106 0.20895 0.0
C2443 C 0.56494 0.81379 0.21611 0.0
C2444 C 0.58403 0.81684 0.20931 0.0
C2445 C 0.58525 0.8259 0.2167 0.0
U2446 U 0.56925 0.85331 0.24539 0.0
O2447 O 0.58033 0.85971 0.25905 0.0
O2448 O 0.5758 0.87063 0.24468 0.0
C2449 C 0.58117 0.86975 0.25435 0.0
C2450 C 0.57847 0.83868 0.23148 0.0
C2451 C 0.59177 0.87615 0.25543 0.0
C2452 C 0.61139 0.88024 0.25063 0.0
C2453 C 0.60203 0.87287 0.25038 0.0
C2454 C 0.60028 0.89389 0.26115 0.0
C2455 C 0.61043 0.89093 0.25578 0.0
C2456 C 0.59108 0.88657 0.26099 0.0
C2457 C 0.5355 0.85162 0.25082 0.0
C2458 C 0.51708 0.85954 0.255 0.0
C2459 C 0.51861 0.84018 0.24841 0.0
C2460 C 0.53042 0.84132 0.24787 0.0
C2461 C 0.51184 0.84931 0.25197 0.0
C2462 C 0.52878 0.86067 0.25442 0.0
C2463 C 0.54769 0.85357 0.24992 0.0
O2464 O 0.57446 0.84851 0.22819 0.0
O2465 O 0.57763 0.83694 0.24244 0.0
O2466 O 0.55195 0.85882 0.24112 0.0
O2467 O 0.5549 0.84745 0.25579 0.0
H2468 H 0.55928 0.82526 0.22916 0.0
H2469 H 0.55704 0.80914 0.21599 0.0
H2470 H 0.59101 0.81479 0.20374 0.0
H2471 H 0.59316 0.83053 0.21675 0.0
H2472 H 0.61913 0.87786 0.24635 0.0
H2473 H 0.60267 0.86487 0.24597 0.0
H2474 H 0.59933 0.90208 0.26514 0.0
H2475 H 0.58322 0.88927 0.26486 0.0
H2476 H 0.51211 0.8668 0.25757 0.0
H2477 H 0.51478 0.8322 0.24607 0.0
H2478 H 0.53554 0.83427 0.24505 0.0
H2479 H 0.53258 0.8687 0.25666 0.0
C2480 C 0.1809 0.57661 0.22373 0.0
C2481 C 0.18722 0.56655 0.22341 0.0
C2482 C 0.19927 0.57453 0.20863 0.0
C2483 C 0.19636 0.56549 0.21583 0.0
C2484 C 0.19276 0.58447 0.20899 0.0
C2485 C 0.18372 0.58548 0.21645 0.0
U2486 U 0.15678 0.56915 0.24537 0.0
O2487 O 0.15044 0.5802 0.25908 0.0
O2488 O 0.13942 0.57563 0.24479 0.0
C2489 C 0.14037 0.58103 0.25444 0.0
C2490 C 0.17127 0.57847 0.23138 0.0
C2491 C 0.13401 0.59165 0.2555 0.0
C2492 C 0.12999 0.61127 0.25064 0.0
C2493 C 0.13733 0.60188 0.25043 0.0
C2494 C 0.11629 0.60024 0.26117 0.0
C2495 C 0.11929 0.61037 0.25579 0.0
C2496 C 0.12357 0.59101 0.26104 0.0
C2497 C 0.15857 0.5354 0.25078 0.0
C2498 C 0.15064 0.51699 0.25499 0.0
C2499 C 0.17 0.51851 0.24839 0.0
C2500 C 0.16887 0.53032 0.24784 0.0
C2501 C 0.16087 0.51174 0.25195 0.0
C2502 C 0.14952 0.52869 0.2544 0.0
C2503 C 0.15664 0.54759 0.24985 0.0
O2504 O 0.16144 0.57441 0.22815 0.0
O2505 O 0.1731 0.5776 0.24232 0.0
O2506 O 0.1513 0.55184 0.24109 0.0
O2507 O 0.16276 0.55481 0.2557 0.0
H2508 H 0.18512 0.55958 0.22898 0.0
H2509 H 0.20121 0.55773 0.2157 0.0
H2510 H 0.19459 0.59149 0.20339 0.0
H2511 H 0.17889 0.59327 0.21651 0.0
H2512 H 0.13242 0.61899 0.24636 0.0
H2513 H 0.14534 0.60248 0.24602 0.0
H2514 H 0.10808 0.59933 0.26515 0.0
H2515 H 0.12084 0.58317 0.26492 0.0
H2516 H 0.14338 0.51203 0.25756 0.0
H2517 H 0.17798 0.51468 0.24604 0.0
H2518 H 0.17592 0.53543 0.24501 0.0
H2519 H 0.14149 0.5325 0.25663 0.0
C2520 C 0.43222 0.18059 0.22339 0.0
C2521 C 0.44195 0.18741 0.22281 0.0
C2522 C 0.43309 0.19885 0.208 0.0
C2523 C 0.4424 0.19649 0.21509 0.0
C2524 C 0.42352 0.19184 0.20864 0.0
C2525 C 0.4231 0.18287 0.21623 0.0
U2526 U 0.44079 0.15674 0.24505 0.0
O2527 O 0.43007 0.15025 0.25895 0.0
O2528 O 0.43464 0.13925 0.24466 0.0
C2529 C 0.42929 0.14016 0.25434 0.0
C2530 C 0.43093 0.17097 0.23118 0.0
C2531 C 0.41866 0.13379 0.25541 0.0
C2532 C 0.39897 0.12985 0.2507 0.0
C2533 C 0.40839 0.13715 0.25043 0.0
C2534 C 0.41004 0.11609 0.2611 0.0
C2535 C 0.39987 0.11913 0.25582 0.0
C2536 C 0.41929 0.12334 0.26091 0.0
C2537 C 0.47464 0.15889 0.2504 0.0
C2538 C 0.49291 0.1507 0.25479 0.0
C2539 C 0.49172 0.17008 0.24822 0.0
C2540 C 0.47992 0.16911 0.24758 0.0
C2541 C 0.49833 0.16085 0.25178 0.0
C2542 C 0.48118 0.14973 0.25407 0.0
C2543 C 0.46244 0.15726 0.24901 0.0
O2544 O 0.43513 0.16123 0.22791 0.0
O2545 O 0.43201 0.1729 0.24209 0.0
O2546 O 0.4582 0.15166 0.24041 0.0
O2547 O 0.45516 0.16308 0.25509 0.0
H2548 H 0.44912 0.18573 0.22827 0.0
H2549 H 0.44992 0.20172 0.21477 0.0
H2550 H 0.41633 0.19318 0.20313 0.0
H2551 H 0.41557 0.17766 0.2165 0.0
H2552 H 0.39122 0.13231 0.24649 0.0
H2553 H 0.40777 0.14518 0.24606 0.0
H2554 H 0.41095 0.10788 0.26508 0.0
H2555 H 0.42715 0.12058 0.26474 0.0
H2556 H 0.49776 0.14337 0.25738 0.0
H2557 H 0.49567 0.17801 0.24591 0.0
H2558 H 0.47495 0.17624 0.24469 0.0
H2559 H 0.47723 0.14174 0.25621 0.0
C2560 C 0.78653 0.82907 0.57711 0.0
C2561 C 0.78692 0.82264 0.5671 0.0
C2562 C 0.80165 0.81069 0.57533 0.0
C2563 C 0.79451 0.8135 0.5662 0.0
C2564 C 0.80121 0.8173 0.58519 0.0
C2565 C 0.79375 0.82635 0.58605 0.0
U2566 U 0.76497 0.85315 0.5693 0.0
O2567 O 0.75117 0.85957 0.5802 0.0
O2568 O 0.76549 0.87055 0.57567 0.0
C2569 C 0.75582 0.86964 0.58103 0.0
C2570 C 0.77886 0.83872 0.57883 0.0
C2571 C 0.75477 0.87596 0.59168 0.0
C2572 C 0.75969 0.8799 0.6113 0.0
C2573 C 0.75989 0.8726 0.60188 0.0
C2574 C 0.7491 0.89362 0.60036 0.0
C2575 C 0.75452 0.89059 0.61046 0.0
C2576 C 0.74921 0.88638 0.5911 0.0
C2577 C 0.75961 0.85129 0.53551 0.0
C2578 C 0.75533 0.85936 0.51717 0.0
C2579 C 0.76191 0.83998 0.51852 0.0
C2580 C 0.7625 0.84103 0.53033 0.0
C2581 C 0.75834 0.84917 0.51184 0.0
C2582 C 0.75597 0.86039 0.52888 0.0
C2583 C 0.76071 0.85308 0.5477 0.0
O2584 O 0.78213 0.84852 0.57474 0.0
O2585 O 0.76793 0.83688 0.57787 0.0
O2586 O 0.76943 0.85848 0.55197 0.0
O2587 O 0.75475 0.84708 0.55493 0.0
H2588 H 0.7814 0.82466 0.56008 0.0
H2589 H 0.7947 0.80856 0.55848 0.0
H2590 H 0.80676 0.81557 0.59227 0.0
H2591 H 0.79363 0.83126 0.59379 0.0
H2592 H 0.76401 0.87746 0.619 0.0
H2593 H 0.7643 0.8646 0.60243 0.0
H2594 H 0.74511 0.90183 0.5995 0.0
H2595 H 0.74529 0.88914 0.58328 0.0
H2596 H 0.75274 0.86665 0.51227 0.0
H2597 H 0.76424 0.83203 0.51463 0.0
H2598 H 0.76535 0.83394 0.53537 0.0
H2599 H 0.75377 0.8684 0.53277 0.0
C2600 C 0.78656 0.18076 0.43362 0.0
C2601 C 0.78687 0.18704 0.44373 0.0
C2602 C 0.80164 0.19913 0.43579 0.0
C2603 C 0.79444 0.19617 0.44482 0.0
C2604 C 0.80128 0.19268 0.42582 0.0
C2605 C 0.79384 0.18364 0.42476 0.0
U2606 U 0.76503 0.15663 0.44117 0.0
O2607 O 0.75125 0.15023 0.43024 0.0
O2608 O 0.76558 0.13925 0.43475 0.0
C2609 C 0.75591 0.14017 0.42939 0.0
C2610 C 0.77894 0.17112 0.43174 0.0
C2611 C 0.75483 0.13382 0.41876 0.0
C2612 C 0.75967 0.12979 0.39913 0.0
C2613 C 0.75992 0.13712 0.40853 0.0
C2614 C 0.74908 0.11614 0.41015 0.0
C2615 C 0.75448 0.11912 0.40002 0.0
C2616 C 0.74924 0.12341 0.41939 0.0
C2617 C 0.75965 0.15844 0.47498 0.0
C2618 C 0.7554 0.15037 0.49332 0.0
C2619 C 0.76192 0.16976 0.49197 0.0
C2620 C 0.76252 0.16872 0.48016 0.0
C2621 C 0.75838 0.16057 0.49866 0.0
C2622 C 0.75605 0.14933 0.48161 0.0
C2623 C 0.76073 0.15664 0.46278 0.0
O2624 O 0.7822 0.1613 0.43578 0.0
O2625 O 0.768 0.17293 0.43266 0.0
O2626 O 0.76945 0.15126 0.45851 0.0
O2627 O 0.75479 0.16267 0.45555 0.0
H2628 H 0.78131 0.18489 0.45069 0.0
H2629 H 0.79456 0.20099 0.45262 0.0
H2630 H 0.80688 0.19455 0.41881 0.0
H2631 H 0.79378 0.17884 0.41695 0.0
H2632 H 0.76398 0.1322 0.39141 0.0
H2633 H 0.76435 0.14511 0.40794 0.0
H2634 H 0.74506 0.10795 0.41104 0.0
H2635 H 0.74533 0.12069 0.42722 0.0
H2636 H 0.75284 0.14307 0.49822 0.0
H2637 H 0.76422 0.17772 0.49586 0.0
H2638 H 0.76534 0.17582 0.47511 0.0
H2639 H 0.75387 0.14132 0.47772 0.0
C2640 C 0.82929 0.78604 0.43458 0.0
C2641 C 0.82306 0.78633 0.44471 0.0
C2642 C 0.81089 0.80109 0.43685 0.0
C2643 C 0.81392 0.79388 0.44586 0.0
C2644 C 0.81729 0.80073 0.42684 0.0
C2645 C 0.82634 0.79331 0.42574 0.0
U2646 U 0.8537 0.76426 0.44116 0.0
O2647 O 0.85976 0.75087 0.42955 0.0
O2648 O 0.87082 0.76514 0.43411 0.0
C2649 C 0.86979 0.75557 0.42862 0.0
C2650 C 0.83891 0.77841 0.4326 0.0
C2651 C 0.87614 0.75451 0.41801 0.0
C2652 C 0.88025 0.7595 0.39845 0.0
C2653 C 0.87288 0.75967 0.40781 0.0
C2654 C 0.89386 0.74882 0.40946 0.0
C2655 C 0.89093 0.7543 0.39936 0.0
C2656 C 0.88654 0.74891 0.41865 0.0
C2657 C 0.85262 0.75864 0.47475 0.0
C2658 C 0.8604 0.75562 0.49348 0.0
C2659 C 0.84063 0.76058 0.49128 0.0
C2660 C 0.84199 0.76087 0.47949 0.0
C2661 C 0.84986 0.75799 0.49838 0.0
C2662 C 0.86175 0.75595 0.48179 0.0
C2663 C 0.85483 0.75906 0.46258 0.0
O2664 O 0.8488 0.7816 0.43656 0.0
O2665 O 0.83711 0.76746 0.43331 0.0
O2666 O 0.85994 0.76794 0.4583 0.0
O2667 O 0.84831 0.75352 0.45546 0.0
H2668 H 0.82524 0.78076 0.45165 0.0
H2669 H 0.80914 0.794 0.45368 0.0
H2670 H 0.81536 0.80632 0.41984 0.0
H2671 H 0.83109 0.79326 0.41789 0.0
H2672 H 0.87789 0.76387 0.39076 0.0
H2673 H 0.86489 0.76413 0.40722 0.0
H2674 H 0.90206 0.74481 0.41037 0.0
H2675 H 0.88923 0.74496 0.42648 0.0
H2676 H 0.86773 0.75382 0.49868 0.0
H2677 H 0.83239 0.7624 0.49485 0.0
H2678 H 0.83485 0.76292 0.47414 0.0
H2679 H 0.87003 0.75422 0.47824 0.0
C2680 C 0.22388 0.82917 0.43395 0.0
C2681 C 0.22361 0.82306 0.44416 0.0
C2682 C 0.20894 0.81072 0.43642 0.0
C2683 C 0.21611 0.81389 0.4454 0.0
C2684 C 0.20928 0.81699 0.42633 0.0
C2685 C 0.21665 0.82607 0.42513 0.0
U2686 U 0.24535 0.85363 0.44087 0.0
O2687 O 0.25886 0.86 0.42957 0.0
O2688 O 0.24446 0.87088 0.43413 0.0
C2689 C 0.2541 0.87001 0.42871 0.0
C2690 C 0.23141 0.83887 0.43192 0.0
C2691 C 0.25524 0.87651 0.41817 0.0
C2692 C 0.2504 0.88092 0.39861 0.0
C2693 C 0.25011 0.87343 0.40789 0.0
C2694 C 0.26113 0.89429 0.40984 0.0
C2695 C 0.25568 0.89155 0.39967 0.0
C2696 C 0.26093 0.88685 0.41895 0.0
C2697 C 0.25086 0.85205 0.47458 0.0
C2698 C 0.25499 0.85974 0.49311 0.0
C2699 C 0.24828 0.84045 0.49133 0.0
C2700 C 0.24781 0.84172 0.47953 0.0
C2701 C 0.25188 0.84948 0.49823 0.0
C2702 C 0.25448 0.86099 0.48143 0.0
C2703 C 0.25017 0.85418 0.46239 0.0
O2704 O 0.22811 0.8487 0.43592 0.0
O2705 O 0.24238 0.83717 0.43268 0.0
O2706 O 0.2413 0.85934 0.45815 0.0
O2707 O 0.25594 0.84797 0.45518 0.0
H2708 H 0.22914 0.82537 0.45108 0.0
H2709 H 0.216 0.80922 0.45328 0.0
H2710 H 0.20371 0.81495 0.41935 0.0
H2711 H 0.21669 0.83073 0.41723 0.0
H2712 H 0.24606 0.87868 0.39087 0.0
H2713 H 0.2456 0.86549 0.40717 0.0
H2714 H 0.26522 0.90243 0.41088 0.0
H2715 H 0.26486 0.88941 0.42683 0.0
H2716 H 0.25759 0.86693 0.49816 0.0
H2717 H 0.24587 0.83245 0.49506 0.0
H2718 H 0.24498 0.83474 0.47431 0.0
H2719 H 0.25681 0.86905 0.47772 0.0
C2720 C 0.18072 0.22322 0.43226 0.0
C2721 C 0.18754 0.22264 0.44199 0.0
C2722 C 0.19898 0.20783 0.43314 0.0
C2723 C 0.19661 0.21493 0.44245 0.0
C2724 C 0.19196 0.20847 0.42356 0.0
C2725 C 0.183 0.21606 0.42314 0.0
U2726 U 0.15689 0.24489 0.44085 0.0
O2727 O 0.1504 0.25881 0.43016 0.0
O2728 O 0.13939 0.24453 0.43473 0.0
C2729 C 0.1403 0.2542 0.42938 0.0
C2730 C 0.17111 0.23102 0.43096 0.0
C2731 C 0.13394 0.25526 0.41874 0.0
C2732 C 0.12992 0.25039 0.39911 0.0
C2733 C 0.13725 0.25016 0.40851 0.0
C2734 C 0.11625 0.26098 0.41012 0.0
C2735 C 0.11924 0.25557 0.39999 0.0
C2736 C 0.12353 0.26084 0.41936 0.0
C2737 C 0.15906 0.25024 0.4747 0.0
C2738 C 0.15084 0.25463 0.49296 0.0
C2739 C 0.17024 0.24808 0.49179 0.0
C2740 C 0.16928 0.24743 0.47999 0.0
C2741 C 0.16099 0.25164 0.49839 0.0
C2742 C 0.14988 0.25391 0.48123 0.0
C2743 C 0.15746 0.24881 0.46251 0.0
O2744 O 0.16135 0.22776 0.43516 0.0
O2745 O 0.17304 0.24192 0.43205 0.0
O2746 O 0.15183 0.24023 0.45826 0.0
O2747 O 0.16326 0.2549 0.45522 0.0
H2748 H 0.18586 0.22811 0.44915 0.0
H2749 H 0.20184 0.2146 0.44996 0.0
H2750 H 0.19331 0.20295 0.41637 0.0
H2751 H 0.17779 0.21632 0.4156 0.0
H2752 H 0.13233 0.24608 0.3914 0.0
H2753 H 0.14525 0.24573 0.40792 0.0
H2754 H 0.10806 0.265 0.41101 0.0
H2755 H 0.1208 0.26475 0.42719 0.0
H2756 H 0.1435 0.25722 0.4978 0.0
H2757 H 0.17817 0.24578 0.49575 0.0
H2758 H 0.17642 0.24454 0.47503 0.0
H2759 H 0.1419 0.25603 0.47726 0.0
C2760 C 0.22449 0.18039 0.57441 0.0
C2761 C 0.2241 0.18681 0.56441 0.0
C2762 C 0.20936 0.1988 0.57263 0.0
C2763 C 0.2165 0.19595 0.5635 0.0
C2764 C 0.20984 0.19223 0.58251 0.0
C2765 C 0.2173 0.18318 0.58338 0.0
U2766 U 0.24648 0.15571 0.56831 0.0
O2767 O 0.25956 0.14998 0.58044 0.0
O2768 O 0.24528 0.13887 0.57595 0.0
C2769 C 0.25477 0.14 0.58157 0.0
C2770 C 0.23219 0.17077 0.57618 0.0
C2771 C 0.25579 0.13376 0.59224 0.0
C2772 C 0.25062 0.12975 0.61177 0.0
C2773 C 0.2505 0.13706 0.60237 0.0
C2774 C 0.26147 0.11612 0.60096 0.0
C2775 C 0.25588 0.1191 0.61098 0.0
C2776 C 0.26145 0.12339 0.59172 0.0
C2777 C 0.25222 0.15612 0.53484 0.0
C2778 C 0.2531 0.14842 0.5158 0.0
C2779 C 0.25183 0.16867 0.51863 0.0
C2780 C 0.25176 0.16708 0.53039 0.0
C2781 C 0.25233 0.15933 0.51119 0.0
C2782 C 0.25306 0.14686 0.52749 0.0
C2783 C 0.25222 0.15373 0.54702 0.0
O2784 O 0.22903 0.16084 0.57231 0.0
O2785 O 0.24316 0.17257 0.57555 0.0
O2786 O 0.2433 0.14875 0.55137 0.0
O2787 O 0.25757 0.16051 0.55406 0.0
H2788 H 0.22961 0.18477 0.55738 0.0
H2789 H 0.2163 0.20086 0.55577 0.0
H2790 H 0.20432 0.19401 0.58961 0.0
H2791 H 0.21744 0.1783 0.59114 0.0
H2792 H 0.24616 0.13213 0.61941 0.0
H2793 H 0.246 0.14502 0.60287 0.0
H2794 H 0.26552 0.10794 0.60013 0.0
H2795 H 0.26548 0.12066 0.58395 0.0
H2796 H 0.25333 0.14102 0.51042 0.0
H2797 H 0.2514 0.17722 0.51538 0.0
H2798 H 0.25125 0.17434 0.53594 0.0
H2799 H 0.25356 0.13832 0.53081 0.0
C2800 C 0.82916 0.22372 0.57612 0.0
C2801 C 0.823 0.22342 0.56595 0.0
C2802 C 0.81077 0.20869 0.57374 0.0
C2803 C 0.81386 0.21588 0.56475 0.0
C2804 C 0.81709 0.20905 0.5838 0.0
C2805 C 0.82614 0.21647 0.58496 0.0
U2806 U 0.85351 0.24537 0.56927 0.0
O2807 O 0.85972 0.2589 0.58062 0.0
O2808 O 0.87073 0.24458 0.5761 0.0
C2809 C 0.86976 0.2542 0.58152 0.0
C2810 C 0.8388 0.23132 0.57813 0.0
C2811 C 0.87615 0.25531 0.59212 0.0
C2812 C 0.88034 0.25038 0.61168 0.0
C2813 C 0.87294 0.25015 0.60234 0.0
C2814 C 0.89386 0.26112 0.60062 0.0
C2815 C 0.89099 0.25564 0.61073 0.0
C2816 C 0.88651 0.26097 0.59144 0.0
C2817 C 0.85214 0.2508 0.53558 0.0
C2818 C 0.85997 0.25434 0.51699 0.0
C2819 C 0.84035 0.24868 0.5189 0.0
C2820 C 0.84163 0.24826 0.53071 0.0
C2821 C 0.84953 0.25173 0.51195 0.0
C2822 C 0.86124 0.25387 0.52867 0.0
C2823 C 0.85426 0.25023 0.54777 0.0
O2824 O 0.84866 0.22809 0.57416 0.0
O2825 O 0.83702 0.24228 0.57735 0.0
O2826 O 0.85944 0.2414 0.55206 0.0
O2827 O 0.84791 0.25592 0.55492 0.0
H2828 H 0.82524 0.22898 0.55902 0.0
H2829 H 0.80914 0.21575 0.5569 0.0
H2830 H 0.81511 0.20348 0.59079 0.0
H2831 H 0.83084 0.21653 0.59283 0.0
H2832 H 0.87802 0.24602 0.61939 0.0
H2833 H 0.86499 0.24565 0.60296 0.0
H2834 H 0.90202 0.26518 0.59968 0.0
H2835 H 0.88916 0.26492 0.5836 0.0
H2836 H 0.86726 0.2565 0.51189 0.0
H2837 H 0.83221 0.24667 0.51522 0.0
H2838 H 0.83452 0.24588 0.53597 0.0
H2839 H 0.86942 0.25582 0.53232 0.0
C2840 C 0.18108 0.78627 0.57639 0.0
C2841 C 0.1872 0.78654 0.56618 0.0
C2842 C 0.1995 0.80124 0.57392 0.0
C2843 C 0.19636 0.79406 0.56494 0.0
C2844 C 0.19322 0.8009 0.584 0.0
C2845 C 0.18416 0.79351 0.5852 0.0
U2846 U 0.15673 0.76477 0.56934 0.0
O2847 O 0.1504 0.75117 0.58053 0.0
O2848 O 0.13945 0.76553 0.57601 0.0
C2849 C 0.14036 0.75588 0.58139 0.0
C2850 C 0.17141 0.77871 0.57841 0.0
C2851 C 0.13396 0.75477 0.59199 0.0
C2852 C 0.12975 0.75967 0.61156 0.0
C2853 C 0.13716 0.75992 0.60222 0.0
C2854 C 0.11625 0.74894 0.60048 0.0
C2855 C 0.11912 0.75441 0.61061 0.0
C2856 C 0.12359 0.74911 0.59131 0.0
C2857 C 0.15833 0.75931 0.53562 0.0
C2858 C 0.15054 0.75516 0.51714 0.0
C2859 C 0.16986 0.76183 0.51881 0.0
C2860 C 0.16865 0.76232 0.53061 0.0
C2861 C 0.16079 0.75824 0.51197 0.0
C2862 C 0.14934 0.7557 0.52882 0.0
C2863 C 0.15628 0.76007 0.5478 0.0
O2864 O 0.16158 0.78198 0.57441 0.0
O2865 O 0.17316 0.76775 0.57761 0.0
O2866 O 0.15108 0.7689 0.55206 0.0
O2867 O 0.16249 0.75428 0.555 0.0
H2868 H 0.18491 0.781 0.55926 0.0
H2869 H 0.20104 0.79417 0.55707 0.0
H2870 H 0.19524 0.80648 0.59098 0.0
H2871 H 0.17949 0.79347 0.5931 0.0
H2872 H 0.13208 0.76403 0.61928 0.0
H2873 H 0.14511 0.76442 0.60285 0.0
H2874 H 0.10809 0.74487 0.59954 0.0
H2875 H 0.12095 0.74516 0.58346 0.0
H2876 H 0.14332 0.75257 0.51212 0.0
H2877 H 0.17786 0.76422 0.51503 0.0
H2878 H 0.17566 0.76515 0.53579 0.0
H2879 H 0.1413 0.7534 0.53257 0.0
C2880 C 0.4311 0.22338 0.18123 0.0
C2881 C 0.44139 0.21774 0.18331 0.0
C2882 C 0.4331 0.20832 0.19968 0.0
C2883 C 0.44238 0.21025 0.19248 0.0
C2884 C 0.42317 0.21467 0.19802 0.0
C2885 C 0.42216 0.22206 0.18886 0.0
U2886 U 0.44214 0.24219 0.15757 0.0
O2887 O 0.43912 0.24167 0.1392 0.0
O2888 O 0.43453 0.25685 0.14889 0.0
C2889 C 0.43449 0.25177 0.13899 0.0
C2890 C 0.42922 0.23009 0.17087 0.0
C2891 C 0.42435 0.25314 0.13179 0.0
C2892 C 0.40424 0.25087 0.12756 0.0
C2893 C 0.41344 0.24966 0.13507 0.0
C2894 C 0.41679 0.25918 0.11368 0.0
C2895 C 0.40589 0.25549 0.11668 0.0
C2896 C 0.42586 0.25799 0.12111 0.0
C2897 C 0.47529 0.24654 0.16272 0.0
C2898 C 0.49089 0.25653 0.15385 0.0
C2899 C 0.49453 0.24334 0.1691 0.0
C2900 C 0.48299 0.24121 0.16995 0.0
C2901 C 0.49869 0.25093 0.16098 0.0
C2902 C 0.47924 0.25433 0.1547 0.0
C2903 C 0.46336 0.24332 0.16389 0.0
O2904 O 0.43025 0.24111 0.17191 0.0
O2905 O 0.43387 0.22608 0.1616 0.0
O2906 O 0.45943 0.23533 0.15724 0.0
O2907 O 0.45586 0.25107 0.16659 0.0
H2908 H 0.44848 0.21878 0.17761 0.0
H2909 H 0.45016 0.20553 0.19355 0.0
H2910 H 0.41596 0.2136 0.20356 0.0
H2911 H 0.41423 0.22644 0.18752 0.0
H2912 H 0.39596 0.24792 0.13012 0.0
H2913 H 0.41208 0.24589 0.1433 0.0
H2914 H 0.41835 0.26296 0.10548 0.0
H2915 H 0.43417 0.26078 0.11843 0.0
H2916 H 0.49378 0.26253 0.14757 0.0
H2917 H 0.50021 0.23868 0.17456 0.0
H2918 H 0.48007 0.23515 0.17618 0.0
H2919 H 0.47339 0.25855 0.14906 0.0
C2920 C 0.78578 0.4359 0.18263 0.0
C2921 C 0.79248 0.44561 0.18425 0.0
C2922 C 0.80116 0.43696 0.20085 0.0
C2923 C 0.8001 0.44615 0.19336 0.0
C2924 C 0.7938 0.42771 0.19964 0.0
C2925 C 0.78623 0.42718 0.19062 0.0
U2926 U 0.76641 0.44253 0.15647 0.0
O2927 O 0.76868 0.43618 0.13911 0.0
O2928 O 0.75369 0.4311 0.14901 0.0
C2929 C 0.75903 0.43069 0.13927 0.0
C2930 C 0.77946 0.43372 0.17209 0.0
C2931 C 0.75775 0.42071 0.13201 0.0
C2932 C 0.75986 0.40076 0.12739 0.0
C2933 C 0.76111 0.40974 0.13511 0.0
C2934 C 0.75169 0.4137 0.11376 0.0
C2935 C 0.75532 0.40274 0.11654 0.0
C2936 C 0.75294 0.42255 0.12137 0.0
C2937 C 0.75911 0.47561 0.15989 0.0
C2938 C 0.74916 0.49325 0.15681 0.0
C2939 C 0.76733 0.49331 0.16629 0.0
C2940 C 0.76786 0.4815 0.16532 0.0
C2941 C 0.75814 0.49932 0.16168 0.0
C2942 C 0.74965 0.48152 0.15593 0.0
C2943 C 0.76014 0.46369 0.15664 0.0
O2944 O 0.76836 0.43359 0.17272 0.0
O2945 O 0.78337 0.43828 0.16272 0.0
O2946 O 0.75436 0.45581 0.16193 0.0
O2947 O 0.76963 0.46022 0.15201 0.0
H2948 H 0.79224 0.45248 0.17819 0.0
H2949 H 0.80565 0.4534 0.1941 0.0
H2950 H 0.79428 0.42058 0.20538 0.0
H2951 H 0.78115 0.41963 0.18954 0.0
H2952 H 0.76274 0.39239 0.12974 0.0
H2953 H 0.7648 0.40819 0.14335 0.0
H2954 H 0.74797 0.41549 0.10558 0.0
H2955 H 0.75022 0.43094 0.11888 0.0
H2956 H 0.74191 0.49762 0.1533 0.0
H2957 H 0.7744 0.49778 0.17003 0.0
H2958 H 0.77527 0.47705 0.16834 0.0
H2959 H 0.74287 0.47711 0.15161 0.0
C2960 C 0.574 0.78562 0.18264 0.0
C2961 C 0.56435 0.7924 0.18424 0.0
C2962 C 0.57304 0.801 0.20087 0.0
C2963 C 0.56385 0.80002 0.19336 0.0
C2964 C 0.58223 0.79355 0.19968 0.0
C2965 C 0.5827 0.78599 0.19065 0.0
U2966 U 0.56746 0.76627 0.1564 0.0
O2967 O 0.57389 0.76861 0.13907 0.0
O2968 O 0.57897 0.75361 0.14896 0.0
C2969 C 0.57941 0.75898 0.13924 0.0
C2970 C 0.57617 0.77932 0.17209 0.0
C2971 C 0.58939 0.75771 0.13198 0.0
C2972 C 0.60937 0.75973 0.12739 0.0
C2973 C 0.60038 0.76099 0.13511 0.0
C2974 C 0.5964 0.75168 0.11371 0.0
C2975 C 0.60738 0.75524 0.11652 0.0
C2976 C 0.58754 0.75296 0.12131 0.0
C2977 C 0.53439 0.75894 0.15976 0.0
C2978 C 0.51672 0.74896 0.15683 0.0
C2979 C 0.51669 0.76724 0.16609 0.0
C2980 C 0.52851 0.76775 0.1651 0.0
C2981 C 0.51067 0.758 0.1616 0.0
C2982 C 0.52846 0.74944 0.15593 0.0
C2983 C 0.5463 0.75993 0.15644 0.0
O2984 O 0.57632 0.76821 0.17269 0.0
O2985 O 0.57162 0.78323 0.16272 0.0
O2986 O 0.55419 0.75417 0.16174 0.0
O2987 O 0.54977 0.76943 0.15184 0.0
H2988 H 0.55749 0.79223 0.17817 0.0
H2989 H 0.55666 0.80564 0.19408 0.0
H2990 H 0.58935 0.79398 0.20543 0.0
H2991 H 0.59022 0.78084 0.18959 0.0
H2992 H 0.61775 0.76255 0.12977 0.0
H2993 H 0.60194 0.76464 0.14337 0.0
H2994 H 0.59461 0.74801 0.10551 0.0
H2995 H 0.57914 0.75029 0.11879 0.0
H2996 H 0.51235 0.74167 0.15341 0.0
H2997 H 0.51224 0.77436 0.16976 0.0
H2998 H 0.53297 0.7752 0.16802 0.0
H2999 H 0.53286 0.7426 0.15168 0.0
C3000 C 0.22424 0.57522 0.1823 0.0
C3001 C 0.21778 0.56536 0.18399 0.0
C3002 C 0.20888 0.57391 0.20052 0.0
C3003 C 0.21016 0.5647 0.19309 0.0
C3004 C 0.21601 0.58334 0.19924 0.0
C3005 C 0.22357 0.58398 0.19022 0.0
U3006 U 0.24369 0.56779 0.15664 0.0
O3007 O 0.24187 0.5735 0.13901 0.0
O3008 O 0.25683 0.57856 0.14893 0.0
C3009 C 0.25161 0.57884 0.13912 0.0
C3010 C 0.23065 0.57738 0.17181 0.0
C3011 C 0.25284 0.58888 0.13191 0.0
C3012 C 0.25051 0.60884 0.12736 0.0
C3013 C 0.2493 0.5998 0.13503 0.0
C3014 C 0.25898 0.59608 0.11375 0.0
C3015 C 0.25518 0.60698 0.11655 0.0
C3016 C 0.25778 0.58717 0.12131 0.0
C3017 C 0.25049 0.53442 0.16037 0.0
C3018 C 0.26058 0.51703 0.1564 0.0
C3019 C 0.24289 0.51645 0.16676 0.0
C3020 C 0.24211 0.52825 0.16606 0.0
C3021 C 0.25197 0.51071 0.16163 0.0
C3022 C 0.25983 0.52878 0.15579 0.0
C3023 C 0.24913 0.54648 0.15791 0.0
O3024 O 0.24175 0.57731 0.17256 0.0
O3025 O 0.22678 0.57278 0.16245 0.0
O3026 O 0.23983 0.55004 0.15298 0.0
O3027 O 0.25527 0.55434 0.16282 0.0
H3028 H 0.21822 0.55844 0.178 0.0
H3029 H 0.20479 0.55732 0.19388 0.0
H3030 H 0.21537 0.59048 0.20494 0.0
H3031 H 0.22849 0.59163 0.1891 0.0
H3032 H 0.24749 0.61716 0.12973 0.0
H3033 H 0.2455 0.60127 0.14323 0.0
H3034 H 0.26279 0.59438 0.10559 0.0
H3035 H 0.26063 0.57883 0.11879 0.0
H3036 H 0.26773 0.51286 0.15247 0.0
H3037 H 0.23611 0.51179 0.17077 0.0
H3038 H 0.23481 0.5325 0.16958 0.0
H3039 H 0.26633 0.53343 0.15129 0.0
C3040 C 0.43111 0.78657 0.82909 0.0
C3041 C 0.4414 0.79221 0.827 0.0
C3042 C 0.43311 0.80163 0.81064 0.0
C3043 C 0.44239 0.7997 0.81783 0.0
C3044 C 0.42318 0.79527 0.8123 0.0
C3045 C 0.42218 0.78788 0.82145 0.0
U3046 U 0.44216 0.76784 0.85281 0.0
O3047 O 0.43913 0.76842 0.87117 0.0
O3048 O 0.43457 0.7532 0.86154 0.0
C3049 C 0.43452 0.75831 0.87142 0.0
C3050 C 0.42922 0.77987 0.83946 0.0
C3051 C 0.42437 0.75695 0.87861 0.0
C3052 C 0.40424 0.7591 0.88278 0.0
C3053 C 0.41344 0.76032 0.87528 0.0
C3054 C 0.41682 0.75103 0.89677 0.0
C3055 C 0.40589 0.7546 0.89371 0.0
C3056 C 0.4259 0.75223 0.88935 0.0
C3057 C 0.47534 0.7636 0.8477 0.0
C3058 C 0.49092 0.75328 0.85622 0.0
C3059 C 0.4946 0.76711 0.84156 0.0
C3060 C 0.48306 0.76926 0.84074 0.0
C3061 C 0.49874 0.75918 0.84935 0.0
C3062 C 0.47927 0.7555 0.85541 0.0
C3063 C 0.46339 0.76676 0.84652 0.0
O3064 O 0.43029 0.76885 0.83844 0.0
O3065 O 0.43385 0.78391 0.84872 0.0
O3066 O 0.45942 0.77477 0.85312 0.0
O3067 O 0.45593 0.75896 0.84385 0.0
H3068 H 0.44849 0.79117 0.83271 0.0
H3069 H 0.45017 0.80442 0.81677 0.0
H3070 H 0.41597 0.79634 0.80675 0.0
H3071 H 0.41424 0.7835 0.8228 0.0
H3072 H 0.39594 0.76196 0.88018 0.0
H3073 H 0.41207 0.76399 0.86701 0.0
H3074 H 0.41839 0.74734 0.90501 0.0
H3075 H 0.43422 0.74952 0.89207 0.0
H3076 H 0.4938 0.74702 0.86225 0.0
H3077 H 0.5003 0.772 0.83631 0.0
H3078 H 0.48016 0.77557 0.83475 0.0
H3079 H 0.4734 0.75101 0.86083 0.0
C3080 C 0.22452 0.43611 0.82772 0.0
C3081 C 0.21774 0.44576 0.82613 0.0
C3082 C 0.20915 0.43709 0.80949 0.0
C3083 C 0.21012 0.44626 0.81701 0.0
C3084 C 0.2166 0.4279 0.81067 0.0
C3085 C 0.22416 0.42742 0.81969 0.0
U3086 U 0.24387 0.44257 0.85399 0.0
O3087 O 0.2415 0.43612 0.8713 0.0
O3088 O 0.2565 0.43101 0.86141 0.0
C3089 C 0.25112 0.43058 0.87113 0.0
C3090 C 0.23082 0.43393 0.83827 0.0
C3091 C 0.25241 0.42062 0.87841 0.0
C3092 C 0.25042 0.40065 0.88303 0.0
C3093 C 0.24914 0.40962 0.87529 0.0
C3094 C 0.25844 0.41365 0.89669 0.0
C3095 C 0.25489 0.40266 0.89389 0.0
C3096 C 0.25715 0.42249 0.88907 0.0
C3097 C 0.25126 0.4756 0.85063 0.0
C3098 C 0.26121 0.49329 0.85352 0.0
C3099 C 0.24294 0.49326 0.84423 0.0
C3100 C 0.24244 0.48145 0.84526 0.0
C3101 C 0.25217 0.49931 0.84871 0.0
C3102 C 0.26075 0.48156 0.85446 0.0
C3103 C 0.25028 0.46371 0.854 0.0
O3104 O 0.24192 0.43374 0.83767 0.0
O3105 O 0.2269 0.43848 0.84764 0.0
O3106 O 0.25602 0.45582 0.84868 0.0
O3107 O 0.24076 0.46025 0.85859 0.0
H3108 H 0.21791 0.45261 0.83221 0.0
H3109 H 0.2045 0.45346 0.8163 0.0
H3110 H 0.21618 0.42079 0.80491 0.0
H3111 H 0.22931 0.4199 0.82075 0.0
H3112 H 0.2476 0.39226 0.88066 0.0
H3113 H 0.2455 0.40804 0.86704 0.0
H3114 H 0.26211 0.41547 0.90489 0.0
H3115 H 0.25981 0.4309 0.89158 0.0
H3116 H 0.26849 0.49769 0.85693 0.0
H3117 H 0.23583 0.49769 0.84054 0.0
H3118 H 0.235 0.47698 0.84234 0.0
H3119 H 0.26758 0.47718 0.85873 0.0
C3120 C 0.57421 0.22436 0.82773 0.0
C3121 C 0.5645 0.21767 0.8261 0.0
C3122 C 0.57316 0.20898 0.80951 0.0
C3123 C 0.56396 0.21005 0.81699 0.0
C3124 C 0.58242 0.21634 0.81073 0.0
C3125 C 0.58294 0.22391 0.81975 0.0
U3126 U 0.56752 0.24372 0.85388 0.0
O3127 O 0.57384 0.24148 0.87125 0.0
O3128 O 0.57892 0.25647 0.86136 0.0
C3129 C 0.57933 0.25113 0.87109 0.0
C3130 C 0.57638 0.23068 0.83827 0.0
C3131 C 0.58932 0.2524 0.87834 0.0
C3132 C 0.60929 0.25029 0.88292 0.0
C3133 C 0.60029 0.24905 0.87522 0.0
C3134 C 0.59637 0.25845 0.89658 0.0
C3135 C 0.60733 0.25483 0.89378 0.0
C3136 C 0.5875 0.2572 0.88899 0.0
C3137 C 0.5344 0.25098 0.85046 0.0
C3138 C 0.51677 0.26095 0.85359 0.0
C3139 C 0.51667 0.24277 0.84412 0.0
C3140 C 0.52848 0.24223 0.84506 0.0
C3141 C 0.51068 0.25197 0.84874 0.0
C3142 C 0.52851 0.26044 0.85443 0.0
C3143 C 0.54633 0.24994 0.85367 0.0
O3144 O 0.57649 0.24179 0.83764 0.0
O3145 O 0.57182 0.22677 0.84764 0.0
O3146 O 0.55422 0.25575 0.84841 0.0
O3147 O 0.54982 0.24046 0.85831 0.0
H3148 H 0.55762 0.21791 0.83215 0.0
H3149 H 0.55672 0.2045 0.81625 0.0
H3150 H 0.58956 0.21585 0.805 0.0
H3151 H 0.59049 0.22899 0.82083 0.0
H3152 H 0.61766 0.24741 0.88056 0.0
H3153 H 0.60184 0.24535 0.86697 0.0
H3154 H 0.59459 0.26216 0.90478 0.0
H3155 H 0.57911 0.25992 0.8915 0.0
H3156 H 0.51242 0.26821 0.8571 0.0
H3157 H 0.51218 0.2357 0.8404 0.0
H3158 H 0.53292 0.23481 0.84203 0.0
H3159 H 0.53294 0.26723 0.85873 0.0
C3160 C 0.78594 0.57633 0.82806 0.0
C3161 C 0.79223 0.56636 0.82639 0.0
C3162 C 0.80123 0.57468 0.80979 0.0
C3163 C 0.79983 0.56553 0.81727 0.0
C3164 C 0.79423 0.58422 0.81104 0.0
C3165 C 0.78671 0.58503 0.82009 0.0
U3166 U 0.76691 0.56801 0.85344 0.0
O3167 O 0.76852 0.5731 0.87128 0.0
O3168 O 0.75332 0.57783 0.86162 0.0
C3169 C 0.75862 0.57813 0.87139 0.0
C3170 C 0.77948 0.57854 0.83851 0.0
C3171 C 0.75737 0.58824 0.87853 0.0
C3172 C 0.75984 0.60823 0.88298 0.0
C3173 C 0.76101 0.59912 0.87538 0.0
C3174 C 0.75122 0.59561 0.89664 0.0
C3175 C 0.75511 0.60647 0.89379 0.0
C3176 C 0.75239 0.58664 0.88913 0.0
C3177 C 0.76098 0.53437 0.84948 0.0
C3178 C 0.75041 0.5175 0.85436 0.0
C3179 C 0.76762 0.51596 0.84332 0.0
C3180 C 0.76888 0.52771 0.8437 0.0
C3181 C 0.75852 0.51071 0.84888 0.0
C3182 C 0.75161 0.52925 0.85461 0.0
C3183 C 0.76302 0.5465 0.85097 0.0
O3184 O 0.76839 0.57804 0.83778 0.0
O3185 O 0.78352 0.57413 0.84789 0.0
O3186 O 0.7561 0.55421 0.84693 0.0
O3187 O 0.77208 0.5503 0.85615 0.0
H3188 H 0.79169 0.55947 0.8324 0.0
H3189 H 0.80509 0.55807 0.81651 0.0
H3190 H 0.79495 0.59132 0.8053 0.0
H3191 H 0.78189 0.59275 0.82117 0.0
H3192 H 0.76292 0.61651 0.88058 0.0
H3193 H 0.76487 0.60051 0.86718 0.0
H3194 H 0.74737 0.59399 0.9048 0.0
H3195 H 0.74947 0.57833 0.89169 0.0
H3196 H 0.74327 0.5137 0.85866 0.0
H3197 H 0.77407 0.51097 0.83914 0.0
H3198 H 0.77619 0.53157 0.83973 0.0
H3199 H 0.74547 0.5343 0.85918 0.0
C3200 C 0.18266 0.43616 0.22444 0.0
C3201 C 0.18426 0.44587 0.21775 0.0
C3202 C 0.20089 0.43728 0.20906 0.0
C3203 C 0.19337 0.44645 0.21013 0.0
C3204 C 0.1997 0.42802 0.21642 0.0
C3205 C 0.19068 0.42746 0.22399 0.0
U3206 U 0.1564 0.44251 0.24383 0.0
O3207 O 0.1391 0.43602 0.24145 0.0
O3208 O 0.14901 0.4309 0.25644 0.0
C3209 C 0.13929 0.43047 0.25107 0.0
C3210 C 0.17213 0.43393 0.23074 0.0
C3211 C 0.13198 0.42053 0.25239 0.0
C3212 C 0.12731 0.40057 0.25042 0.0
C3213 C 0.13506 0.40953 0.24913 0.0
C3214 C 0.11369 0.41363 0.25845 0.0
C3215 C 0.11645 0.40263 0.25492 0.0
C3216 C 0.12134 0.42244 0.25715 0.0
C3217 C 0.15972 0.47552 0.25128 0.0
C3218 C 0.15682 0.49321 0.26123 0.0
C3219 C 0.16613 0.49317 0.24297 0.0
C3220 C 0.1651 0.48136 0.24247 0.0
C3221 C 0.16165 0.49922 0.2522 0.0
C3222 C 0.15587 0.48148 0.26077 0.0
C3223 C 0.15634 0.46363 0.2503 0.0
O3224 O 0.17273 0.43372 0.24185 0.0
O3225 O 0.16274 0.43847 0.22685 0.0
O3226 O 0.16169 0.45574 0.25601 0.0
O3227 O 0.15175 0.46018 0.24078 0.0
H3228 H 0.17818 0.45272 0.21799 0.0
H3229 H 0.19409 0.4537 0.20458 0.0
H3230 H 0.20545 0.4209 0.21592 0.0
H3231 H 0.18963 0.4199 0.22906 0.0
H3232 H 0.12965 0.39218 0.24762 0.0
H3233 H 0.14331 0.40791 0.24547 0.0
H3234 H 0.10551 0.41547 0.26213 0.0
H3235 H 0.11885 0.43087 0.25979 0.0
H3236 H 0.1534 0.49761 0.26851 0.0
H3237 H 0.16984 0.4976 0.23586 0.0
H3238 H 0.16802 0.47688 0.23503 0.0
H3239 H 0.15159 0.4771 0.2676 0.0
C3240 C 0.57354 0.18289 0.22396 0.0
C3241 C 0.56367 0.18449 0.2175 0.0
C3242 C 0.57207 0.2011 0.20856 0.0
C3243 C 0.56292 0.19359 0.20988 0.0
C3244 C 0.58153 0.19988 0.21566 0.0
C3245 C 0.58225 0.19088 0.22324 0.0
U3246 U 0.56758 0.15658 0.24348 0.0
O3247 O 0.57427 0.13936 0.24102 0.0
O3248 O 0.57939 0.14933 0.25599 0.0
C3249 C 0.57986 0.13962 0.25062 0.0
C3250 C 0.57587 0.17239 0.23029 0.0
C3251 C 0.58972 0.13221 0.25206 0.0
C3252 C 0.60966 0.12737 0.25031 0.0
C3253 C 0.60079 0.13519 0.24891 0.0
C3254 C 0.59642 0.11388 0.25824 0.0
C3255 C 0.60748 0.11654 0.25481 0.0
C3256 C 0.58767 0.1216 0.25683 0.0
C3257 C 0.53459 0.15957 0.2511 0.0
C3258 C 0.51687 0.15658 0.261 0.0
C3259 C 0.51694 0.16603 0.24281 0.0
C3260 C 0.52875 0.165 0.24232 0.0
C3261 C 0.51087 0.16148 0.252 0.0
C3262 C 0.52861 0.15565 0.26054 0.0
C3263 C 0.54649 0.15623 0.25011 0.0
O3264 O 0.57614 0.17303 0.2414 0.0
O3265 O 0.57139 0.16296 0.22645 0.0
O3266 O 0.55437 0.16169 0.25575 0.0
O3267 O 0.54994 0.15168 0.24058 0.0
H3268 H 0.55681 0.17844 0.21794 0.0
H3269 H 0.55553 0.19432 0.20452 0.0
H3270 H 0.58864 0.20562 0.21499 0.0
H3271 H 0.58993 0.18982 0.22813 0.0
H3272 H 0.61811 0.12963 0.24758 0.0
H3273 H 0.60251 0.14341 0.24526 0.0
H3274 H 0.59447 0.10573 0.26193 0.0
H3275 H 0.5792 0.11919 0.2594 0.0
H3276 H 0.51246 0.15312 0.26825 0.0
H3277 H 0.51253 0.16979 0.23572 0.0
H3278 H 0.53324 0.16798 0.23491 0.0
H3279 H 0.53298 0.15133 0.26735 0.0
C3280 C 0.82765 0.57404 0.22451 0.0
C3281 C 0.82604 0.56435 0.2178 0.0
C3282 C 0.80942 0.57298 0.20913 0.0
C3283 C 0.81693 0.5638 0.21018 0.0
C3284 C 0.81062 0.58223 0.21651 0.0
C3285 C 0.81964 0.58275 0.22408 0.0
U3286 U 0.85386 0.56754 0.24389 0.0
O3287 O 0.87119 0.57395 0.24156 0.0
O3288 O 0.86129 0.57905 0.25656 0.0
C3289 C 0.87102 0.57947 0.2512 0.0
C3290 C 0.83818 0.57624 0.23082 0.0
C3291 C 0.8783 0.58943 0.2525 0.0
C3292 C 0.88297 0.60938 0.25044 0.0
C3293 C 0.87522 0.60041 0.24917 0.0
C3294 C 0.89657 0.59638 0.25856 0.0
C3295 C 0.89381 0.60736 0.25496 0.0
C3296 C 0.88894 0.58755 0.25729 0.0
C3297 C 0.85048 0.53449 0.25124 0.0
C3298 C 0.85346 0.51682 0.2612 0.0
C3299 C 0.84408 0.51681 0.24297 0.0
C3300 C 0.84508 0.52862 0.24246 0.0
C3301 C 0.84862 0.51078 0.25218 0.0
C3302 C 0.85438 0.52855 0.26072 0.0
C3303 C 0.8538 0.54639 0.25024 0.0
O3304 O 0.83757 0.5764 0.24193 0.0
O3305 O 0.84756 0.57169 0.22691 0.0
O3306 O 0.84849 0.55428 0.256 0.0
O3307 O 0.85841 0.54985 0.24074 0.0
H3308 H 0.83211 0.55749 0.21802 0.0
H3309 H 0.8162 0.55657 0.20461 0.0
H3310 H 0.80488 0.58935 0.21604 0.0
H3311 H 0.82071 0.59029 0.22918 0.0
H3312 H 0.88063 0.61776 0.24758 0.0
H3313 H 0.86699 0.602 0.24549 0.0
H3314 H 0.90476 0.59457 0.26227 0.0
H3315 H 0.89142 0.57914 0.25998 0.0
H3316 H 0.85692 0.51244 0.26846 0.0
H3317 H 0.84036 0.51237 0.23588 0.0
H3318 H 0.84212 0.53309 0.23503 0.0
H3319 H 0.85867 0.53294 0.26753 0.0
C3320 C 0.43623 0.82751 0.22449 0.0
C3321 C 0.44588 0.82593 0.2177 0.0
C3322 C 0.43721 0.80928 0.2091 0.0
C3323 C 0.44638 0.81681 0.21007 0.0
C3324 C 0.42803 0.81045 0.21656 0.0
C3325 C 0.42755 0.81947 0.22414 0.0
U3326 U 0.4426 0.8538 0.24386 0.0
O3327 O 0.4361 0.87109 0.24145 0.0
O3328 O 0.43098 0.8612 0.25645 0.0
C3329 C 0.43054 0.87091 0.25107 0.0
C3330 C 0.43403 0.83805 0.23079 0.0
C3331 C 0.42061 0.87823 0.25239 0.0
C3332 C 0.40065 0.88291 0.25044 0.0
C3333 C 0.4096 0.87515 0.24915 0.0
C3334 C 0.41372 0.89652 0.25845 0.0
C3335 C 0.40271 0.89377 0.25493 0.0
C3336 C 0.42253 0.88887 0.25714 0.0
C3337 C 0.47561 0.85049 0.25132 0.0
C3338 C 0.4933 0.85337 0.26126 0.0
C3339 C 0.49325 0.84405 0.243 0.0
C3340 C 0.48145 0.8451 0.24251 0.0
C3341 C 0.49931 0.84854 0.25223 0.0
C3342 C 0.48157 0.85433 0.2608 0.0
C3343 C 0.46372 0.85388 0.25034 0.0
O3344 O 0.43382 0.83746 0.2419 0.0
O3345 O 0.43858 0.84743 0.22688 0.0
O3346 O 0.45582 0.84854 0.25605 0.0
O3347 O 0.46028 0.85846 0.24081 0.0
H3348 H 0.45271 0.83202 0.21785 0.0
H3349 H 0.45357 0.81611 0.20444 0.0
H3350 H 0.42092 0.80469 0.21615 0.0
H3351 H 0.42004 0.82051 0.2293 0.0
H3352 H 0.39225 0.88058 0.24764 0.0
H3353 H 0.40797 0.86691 0.2455 0.0
H3354 H 0.41557 0.90471 0.26213 0.0
H3355 H 0.43096 0.89135 0.25978 0.0
H3356 H 0.49771 0.85679 0.26853 0.0
H3357 H 0.49768 0.84034 0.23589 0.0
H3358 H 0.47696 0.84218 0.23507 0.0
H3359 H 0.4772 0.85862 0.26763 0.0
C3360 C 0.18261 0.57392 0.78581 0.0
C3361 C 0.18419 0.56428 0.7926 0.0
C3362 C 0.20084 0.57293 0.80119 0.0
C3363 C 0.19331 0.56377 0.80022 0.0
C3364 C 0.19967 0.58212 0.79374 0.0
C3365 C 0.19065 0.58261 0.78617 0.0
U3366 U 0.15633 0.56752 0.76645 0.0
O3367 O 0.13904 0.574 0.76884 0.0
O3368 O 0.14893 0.57911 0.75384 0.0
C3369 C 0.13922 0.57955 0.75922 0.0
C3370 C 0.17206 0.57612 0.77952 0.0
C3371 C 0.13191 0.58949 0.75791 0.0
C3372 C 0.12725 0.60945 0.7599 0.0
C3373 C 0.135 0.60049 0.76118 0.0
C3374 C 0.11363 0.59641 0.75186 0.0
C3375 C 0.11639 0.6074 0.75541 0.0
C3376 C 0.12126 0.58759 0.75315 0.0
C3377 C 0.15967 0.53451 0.75902 0.0
C3378 C 0.15678 0.51681 0.74907 0.0
C3379 C 0.16611 0.51687 0.76733 0.0
C3380 C 0.16506 0.52867 0.76783 0.0
C3381 C 0.16162 0.51081 0.75811 0.0
C3382 C 0.15582 0.52854 0.74954 0.0
C3383 C 0.15628 0.54639 0.76 0.0
O3384 O 0.17266 0.57632 0.76841 0.0
O3385 O 0.16269 0.57157 0.78343 0.0
O3386 O 0.16162 0.55429 0.75428 0.0
O3387 O 0.1517 0.54984 0.76952 0.0
H3388 H 0.1781 0.55744 0.79244 0.0
H3389 H 0.19401 0.55658 0.80585 0.0
H3390 H 0.20543 0.58923 0.79416 0.0
H3391 H 0.1896 0.59012 0.78102 0.0
H3392 H 0.12959 0.61784 0.76272 0.0
H3393 H 0.14324 0.6021 0.76484 0.0
H3394 H 0.10544 0.59458 0.74818 0.0
H3395 H 0.11878 0.57917 0.7505 0.0
H3396 H 0.15336 0.5124 0.74181 0.0
H3397 H 0.16981 0.51245 0.77445 0.0
H3398 H 0.16798 0.53316 0.77526 0.0
H3399 H 0.15154 0.5329 0.74271 0.0
C3400 C 0.43611 0.18253 0.78589 0.0
C3401 C 0.4458 0.18413 0.79261 0.0
C3402 C 0.43716 0.20075 0.80128 0.0
C3403 C 0.44634 0.19324 0.80024 0.0
C3404 C 0.42792 0.19955 0.79389 0.0
C3405 C 0.42741 0.19054 0.78632 0.0
U3406 U 0.44259 0.1563 0.7665 0.0
O3407 O 0.43616 0.13899 0.76884 0.0
O3408 O 0.43106 0.14888 0.75385 0.0
C3409 C 0.43063 0.13916 0.75921 0.0
C3410 C 0.43391 0.17199 0.77958 0.0
C3411 C 0.42069 0.13186 0.75789 0.0
C3412 C 0.40074 0.12716 0.75993 0.0
C3413 C 0.40969 0.13492 0.7612 0.0
C3414 C 0.41377 0.11358 0.75181 0.0
C3415 C 0.40278 0.11632 0.7554 0.0
C3416 C 0.42259 0.12123 0.75309 0.0
C3417 C 0.47564 0.15966 0.75912 0.0
C3418 C 0.49331 0.15667 0.74917 0.0
C3419 C 0.49332 0.16606 0.76739 0.0
C3420 C 0.48151 0.16506 0.7679 0.0
C3421 C 0.49935 0.16152 0.75818 0.0
C3422 C 0.48158 0.15576 0.74965 0.0
C3423 C 0.46374 0.15634 0.76013 0.0
O3424 O 0.43374 0.17261 0.76847 0.0
O3425 O 0.43846 0.16262 0.78348 0.0
O3426 O 0.45584 0.16165 0.75438 0.0
O3427 O 0.46027 0.15174 0.76963 0.0
H3428 H 0.45266 0.17807 0.79239 0.0
H3429 H 0.45357 0.19396 0.80582 0.0
H3430 H 0.4208 0.2053 0.79436 0.0
H3431 H 0.41986 0.18948 0.78121 0.0
H3432 H 0.39235 0.12948 0.76278 0.0
H3433 H 0.40809 0.14315 0.76489 0.0
H3434 H 0.4156 0.1054 0.74811 0.0
H3435 H 0.431 0.11876 0.75041 0.0
H3436 H 0.4977 0.15321 0.7419 0.0
H3437 H 0.49776 0.16978 0.77448 0.0
H3438 H 0.47704 0.16803 0.77533 0.0
H3439 H 0.47718 0.15146 0.74284 0.0
C3440 C 0.82751 0.43626 0.78595 0.0
C3441 C 0.82592 0.446 0.79261 0.0
C3442 C 0.80929 0.43743 0.80133 0.0
C3443 C 0.81681 0.44659 0.80023 0.0
C3444 C 0.81048 0.42814 0.79401 0.0
C3445 C 0.8195 0.42756 0.78644 0.0
U3446 U 0.8538 0.44254 0.76655 0.0
O3447 O 0.87108 0.43601 0.76896 0.0
O3448 O 0.86117 0.43089 0.75396 0.0
C3449 C 0.87088 0.43045 0.75934 0.0
C3450 C 0.83805 0.43402 0.77965 0.0
C3451 C 0.87821 0.42053 0.758 0.0
C3452 C 0.88292 0.40058 0.75994 0.0
C3453 C 0.87515 0.40951 0.76125 0.0
C3454 C 0.89651 0.41366 0.75192 0.0
C3455 C 0.89377 0.40265 0.75544 0.0
C3456 C 0.88885 0.42246 0.75324 0.0
C3457 C 0.85055 0.47554 0.75908 0.0
C3458 C 0.85343 0.49323 0.74914 0.0
C3459 C 0.84413 0.49318 0.76741 0.0
C3460 C 0.84517 0.48138 0.7679 0.0
C3461 C 0.84861 0.49924 0.75818 0.0
C3462 C 0.85438 0.48151 0.7496 0.0
C3463 C 0.85393 0.46366 0.76006 0.0
O3464 O 0.83744 0.4338 0.76854 0.0
O3465 O 0.84744 0.43855 0.78354 0.0
O3466 O 0.84856 0.45576 0.75435 0.0
O3467 O 0.8585 0.46021 0.76958 0.0
H3468 H 0.83199 0.45285 0.79235 0.0
H3469 H 0.81608 0.45386 0.80576 0.0
H3470 H 0.80473 0.42102 0.79453 0.0
H3471 H 0.82056 0.41999 0.78139 0.0
H3472 H 0.8806 0.39217 0.76274 0.0
H3473 H 0.86691 0.40788 0.7649 0.0
H3474 H 0.90469 0.41552 0.74823 0.0
H3475 H 0.89131 0.43089 0.7506 0.0
H3476 H 0.85684 0.49764 0.74186 0.0
H3477 H 0.84043 0.49761 0.77452 0.0
H3478 H 0.84226 0.4769 0.77533 0.0
H3479 H 0.85866 0.47714 0.74276 0.0
C3480 C 0.5736 0.82718 0.7864 0.0
C3481 C 0.56372 0.82558 0.79285 0.0
C3482 C 0.57212 0.80897 0.8018 0.0
C3483 C 0.56297 0.81648 0.80047 0.0
C3484 C 0.58158 0.81019 0.7947 0.0
C3485 C 0.58231 0.81919 0.78712 0.0
U3486 U 0.56763 0.85348 0.76687 0.0
O3487 O 0.57431 0.8707 0.76932 0.0
O3488 O 0.57943 0.86073 0.75436 0.0
C3489 C 0.5799 0.87045 0.75972 0.0
C3490 C 0.57593 0.83768 0.78006 0.0
C3491 C 0.58977 0.87784 0.75829 0.0
C3492 C 0.60971 0.88267 0.76003 0.0
C3493 C 0.60083 0.87485 0.76143 0.0
C3494 C 0.59649 0.89617 0.75212 0.0
C3495 C 0.60755 0.8935 0.75554 0.0
C3496 C 0.58773 0.88847 0.75353 0.0
C3497 C 0.53465 0.85048 0.75924 0.0
C3498 C 0.51693 0.8535 0.74936 0.0
C3499 C 0.51701 0.84398 0.76751 0.0
C3500 C 0.52881 0.84501 0.76801 0.0
C3501 C 0.51093 0.84856 0.75834 0.0
C3502 C 0.52866 0.85443 0.74982 0.0
C3503 C 0.54655 0.85381 0.76024 0.0
O3504 O 0.5762 0.83704 0.76896 0.0
O3505 O 0.57145 0.84711 0.7839 0.0
O3506 O 0.55443 0.84835 0.7546 0.0
O3507 O 0.54999 0.85836 0.76977 0.0
H3508 H 0.55686 0.83163 0.79241 0.0
H3509 H 0.55556 0.81575 0.80582 0.0
H3510 H 0.58869 0.80445 0.79538 0.0
H3511 H 0.59 0.82026 0.78224 0.0
H3512 H 0.61816 0.88039 0.76275 0.0
H3513 H 0.60254 0.86663 0.76508 0.0
H3514 H 0.59455 0.90433 0.74843 0.0
H3515 H 0.57926 0.89088 0.75097 0.0
H3516 H 0.51251 0.85697 0.74212 0.0
H3517 H 0.5126 0.84019 0.77459 0.0
H3518 H 0.5333 0.84201 0.7754 0.0
H3519 H 0.53303 0.85877 0.74302 0.0
C3520 C 0.2235 0.18105 0.43114 0.0
C3521 C 0.21786 0.18314 0.44143 0.0
C3522 C 0.20845 0.19951 0.43315 0.0
C3523 C 0.21037 0.19231 0.44243 0.0
C3524 C 0.2148 0.19784 0.42321 0.0
C3525 C 0.22218 0.18869 0.42221 0.0
U3526 U 0.24231 0.15739 0.44218 0.0
O3527 O 0.24178 0.13902 0.43916 0.0
O3528 O 0.25696 0.1487 0.43456 0.0
C3529 C 0.25188 0.13881 0.43453 0.0
C3530 C 0.2302 0.17069 0.42925 0.0
C3531 C 0.25325 0.13161 0.42438 0.0
C3532 C 0.25099 0.12738 0.40427 0.0
C3533 C 0.24977 0.13489 0.41347 0.0
C3534 C 0.25928 0.1135 0.41682 0.0
C3535 C 0.2556 0.1165 0.40591 0.0
C3536 C 0.25808 0.12093 0.4259 0.0
C3537 C 0.24665 0.16255 0.47533 0.0
C3538 C 0.25665 0.15369 0.49093 0.0
C3539 C 0.24345 0.16893 0.49457 0.0
C3540 C 0.24132 0.16978 0.48303 0.0
C3541 C 0.25105 0.16081 0.49873 0.0
C3542 C 0.25444 0.15453 0.47928 0.0
C3543 C 0.24343 0.16372 0.4634 0.0
O3544 O 0.24123 0.17172 0.43029 0.0
O3545 O 0.22619 0.16143 0.43391 0.0
O3546 O 0.23544 0.15707 0.45947 0.0
O3547 O 0.25119 0.16641 0.4559 0.0
H3548 H 0.21889 0.17744 0.44853 0.0
H3549 H 0.20565 0.19338 0.4502 0.0
H3550 H 0.21373 0.20339 0.416 0.0
H3551 H 0.22657 0.18733 0.41427 0.0
H3552 H 0.24805 0.12994 0.39598 0.0
H3553 H 0.24601 0.14313 0.41211 0.0
H3554 H 0.26306 0.1053 0.41839 0.0
H3555 H 0.26087 0.11825 0.43421 0.0
H3556 H 0.26265 0.14741 0.49382 0.0
H3557 H 0.23879 0.17439 0.50025 0.0
H3558 H 0.23525 0.17601 0.48011 0.0
H3559 H 0.25867 0.14889 0.47343 0.0
C3560 C 0.22449 0.82754 0.57408 0.0
C3561 C 0.21775 0.82593 0.5644 0.0
C3562 C 0.20912 0.80931 0.57307 0.0
C3563 C 0.21013 0.81682 0.56388 0.0
C3564 C 0.21652 0.81051 0.58229 0.0
C3565 C 0.22409 0.81953 0.58279 0.0
U3566 U 0.24385 0.85377 0.56755 0.0
O3567 O 0.24151 0.87109 0.57397 0.0
O3568 O 0.25652 0.8612 0.57905 0.0
C3569 C 0.25115 0.87092 0.57949 0.0
C3570 C 0.2308 0.83808 0.57626 0.0
C3571 C 0.25243 0.87819 0.58947 0.0
C3572 C 0.25042 0.88278 0.60945 0.0
C3573 C 0.24915 0.87506 0.60045 0.0
C3574 C 0.25845 0.89646 0.59646 0.0
C3575 C 0.2549 0.89365 0.60745 0.0
C3576 C 0.25718 0.88885 0.58761 0.0
C3577 C 0.25117 0.85039 0.53447 0.0
C3578 C 0.26118 0.8533 0.51682 0.0
C3579 C 0.24286 0.84411 0.51676 0.0
C3580 C 0.24234 0.84509 0.52858 0.0
C3581 C 0.25212 0.84857 0.51075 0.0
C3582 C 0.26069 0.85419 0.52855 0.0
C3583 C 0.25018 0.8537 0.54638 0.0
O3584 O 0.24191 0.83747 0.57642 0.0
O3585 O 0.22688 0.84745 0.57172 0.0
O3586 O 0.25595 0.84841 0.55427 0.0
O3587 O 0.24068 0.85831 0.54986 0.0
H3588 H 0.21795 0.832 0.55754 0.0
H3589 H 0.20454 0.81609 0.55666 0.0
H3590 H 0.21607 0.80477 0.58942 0.0
H3591 H 0.22921 0.8206 0.59032 0.0
H3592 H 0.2476 0.88041 0.61783 0.0
H3593 H 0.24551 0.86681 0.60203 0.0
H3594 H 0.26212 0.90466 0.59466 0.0
H3595 H 0.25984 0.89137 0.5792 0.0
H3596 H 0.26848 0.8567 0.51245 0.0
H3597 H 0.23573 0.84048 0.5123 0.0
H3598 H 0.23488 0.84219 0.53303 0.0
H3599 H 0.26754 0.85841 0.53296 0.0
C3600 C 0.18302 0.2238 0.57359 0.0
C3601 C 0.18462 0.21734 0.56372 0.0
C3602 C 0.20122 0.20839 0.57213 0.0
C3603 C 0.19371 0.20971 0.56298 0.0
C3604 C 0.2 0.2155 0.58159 0.0
C3605 C 0.191 0.22308 0.58231 0.0
U3606 U 0.15671 0.24332 0.56763 0.0
O3607 O 0.13949 0.24088 0.57431 0.0
O3608 O 0.14946 0.25583 0.57943 0.0
C3609 C 0.13974 0.25047 0.5799 0.0
C3610 C 0.17252 0.23013 0.57593 0.0
C3611 C 0.13234 0.25191 0.58976 0.0
C3612 C 0.1275 0.25015 0.60971 0.0
C3613 C 0.13533 0.24875 0.60082 0.0
C3614 C 0.11402 0.25809 0.59647 0.0
C3615 C 0.11668 0.25465 0.60753 0.0
C3616 C 0.12173 0.25668 0.58772 0.0
C3617 C 0.15971 0.25095 0.53464 0.0
C3618 C 0.15671 0.26085 0.51693 0.0
C3619 C 0.16616 0.24266 0.517 0.0
C3620 C 0.16514 0.24217 0.5288 0.0
C3621 C 0.16161 0.25185 0.51093 0.0
C3622 C 0.15578 0.26039 0.52867 0.0
C3623 C 0.15637 0.24996 0.54654 0.0
O3624 O 0.17316 0.24124 0.5762 0.0
O3625 O 0.16308 0.2263 0.57144 0.0
O3626 O 0.16184 0.25559 0.55442 0.0
O3627 O 0.15182 0.24042 0.54999 0.0
H3628 H 0.17856 0.21778 0.55686 0.0
H3629 H 0.19444 0.20436 0.55558 0.0
H3630 H 0.20574 0.21482 0.5887 0.0
H3631 H 0.18994 0.22797 0.58999 0.0
H3632 H 0.12977 0.24741 0.61815 0.0
H3633 H 0.14355 0.24509 0.60254 0.0
H3634 H 0.10586 0.26178 0.59453 0.0
H3635 H 0.11932 0.25925 0.57925 0.0
H3636 H 0.15325 0.26809 0.51252 0.0
H3637 H 0.16993 0.23558 0.51258 0.0
H3638 H 0.16812 0.23476 0.53329 0.0
H3639 H 0.15146 0.26719 0.53304 0.0
C3640 C 0.78581 0.18236 0.57407 0.0
C3641 C 0.79252 0.18394 0.56437 0.0
C3642 C 0.80116 0.20061 0.57295 0.0
C3643 C 0.80012 0.19307 0.56379 0.0
C3644 C 0.79378 0.19942 0.5822 0.0
C3645 C 0.78623 0.1904 0.58275 0.0
U3646 U 0.76647 0.15598 0.56789 0.0
O3647 O 0.76897 0.13873 0.57446 0.0
O3648 O 0.75396 0.14859 0.57961 0.0
C3649 C 0.75938 0.1389 0.58005 0.0
C3650 C 0.77954 0.17181 0.57632 0.0
C3651 C 0.75804 0.13152 0.58995 0.0
C3652 C 0.75996 0.12671 0.60989 0.0
C3653 C 0.76123 0.13454 0.601 0.0
C3654 C 0.7521 0.11313 0.59671 0.0
C3655 C 0.75558 0.11583 0.60775 0.0
C3656 C 0.75337 0.12085 0.58795 0.0
C3657 C 0.75896 0.15922 0.5349 0.0
C3658 C 0.74908 0.15636 0.51716 0.0
C3659 C 0.76729 0.16576 0.51729 0.0
C3660 C 0.76776 0.16467 0.5291 0.0
C3661 C 0.75811 0.16126 0.51119 0.0
C3662 C 0.74951 0.15537 0.52889 0.0
C3663 C 0.75992 0.15578 0.54677 0.0
O3664 O 0.76843 0.17237 0.57657 0.0
O3665 O 0.78345 0.16242 0.5718 0.0
O3666 O 0.75422 0.16114 0.55468 0.0
O3667 O 0.76946 0.15124 0.55021 0.0
H3668 H 0.79231 0.17785 0.55753 0.0
H3669 H 0.80569 0.19378 0.55655 0.0
H3670 H 0.79425 0.20519 0.58931 0.0
H3671 H 0.78114 0.18935 0.59031 0.0
H3672 H 0.76273 0.12901 0.61832 0.0
H3673 H 0.76482 0.1428 0.60268 0.0
H3674 H 0.74851 0.10492 0.5948 0.0
H3675 H 0.75078 0.11841 0.5795 0.0
H3676 H 0.74183 0.15294 0.51272 0.0
H3677 H 0.7744 0.16952 0.5129 0.0
H3678 H 0.77517 0.16761 0.53361 0.0
H3679 H 0.74269 0.15104 0.53322 0.0
C3680 C 0.82804 0.7858 0.57653 0.0
C3681 C 0.82636 0.79208 0.56655 0.0
C3682 C 0.80977 0.80108 0.57488 0.0
C3683 C 0.81725 0.79967 0.56572 0.0
C3684 C 0.81103 0.79409 0.58443 0.0
C3685 C 0.82008 0.78658 0.58524 0.0
U3686 U 0.85343 0.76678 0.56819 0.0
O3687 O 0.87126 0.7684 0.57327 0.0
O3688 O 0.86161 0.75319 0.578 0.0
C3689 C 0.87138 0.7585 0.57829 0.0
C3690 C 0.8385 0.77935 0.57873 0.0
C3691 C 0.87852 0.75726 0.58841 0.0
C3692 C 0.88297 0.75971 0.6084 0.0
C3693 C 0.87536 0.76089 0.59929 0.0
C3694 C 0.89662 0.75111 0.59578 0.0
C3695 C 0.89377 0.75498 0.60664 0.0
C3696 C 0.88912 0.75227 0.5868 0.0
C3697 C 0.84945 0.76086 0.53455 0.0
C3698 C 0.85432 0.7503 0.51767 0.0
C3699 C 0.84328 0.7675 0.51614 0.0
C3700 C 0.84367 0.76876 0.52789 0.0
C3701 C 0.84884 0.75841 0.51088 0.0
C3702 C 0.85458 0.7515 0.52942 0.0
C3703 C 0.85094 0.7629 0.54668 0.0
O3704 O 0.83777 0.76826 0.57824 0.0
O3705 O 0.84787 0.78339 0.57432 0.0
O3706 O 0.84691 0.75598 0.55439 0.0
O3707 O 0.85612 0.77196 0.55047 0.0
H3708 H 0.83237 0.79153 0.55965 0.0
H3709 H 0.81647 0.80491 0.55825 0.0
H3710 H 0.8053 0.79482 0.59153 0.0
H3711 H 0.82117 0.78177 0.59297 0.0
H3712 H 0.88056 0.76279 0.61668 0.0
H3713 H 0.86717 0.76474 0.60068 0.0
H3714 H 0.90478 0.74725 0.59416 0.0
H3715 H 0.89168 0.74936 0.57849 0.0
H3716 H 0.85862 0.74316 0.51386 0.0
H3717 H 0.8391 0.77394 0.51115 0.0
H3718 H 0.83969 0.77606 0.53175 0.0
H3719 H 0.85915 0.74536 0.53446 0.0
C3720 C 0.78591 0.82739 0.43641 0.0
C3721 C 0.79257 0.82581 0.44615 0.0
C3722 C 0.80128 0.80917 0.43759 0.0
C3723 C 0.80018 0.8167 0.44675 0.0
C3724 C 0.79396 0.81036 0.4283 0.0
C3725 C 0.78639 0.81937 0.42772 0.0
U3726 U 0.7665 0.8537 0.44262 0.0
O3727 O 0.76893 0.87096 0.43607 0.0
O3728 O 0.75394 0.86105 0.43094 0.0
C3729 C 0.75932 0.87076 0.4305 0.0
C3730 C 0.77961 0.83793 0.43415 0.0
C3731 C 0.75797 0.8781 0.42059 0.0
C3732 C 0.75988 0.88284 0.40064 0.0
C3733 C 0.7612 0.87506 0.40957 0.0
C3734 C 0.75188 0.8964 0.41376 0.0
C3735 C 0.75539 0.89369 0.40274 0.0
C3736 C 0.75321 0.88873 0.42255 0.0
C3737 C 0.75898 0.85046 0.47561 0.0
C3738 C 0.74906 0.85333 0.49332 0.0
C3739 C 0.76731 0.84399 0.49323 0.0
C3740 C 0.76779 0.84506 0.48143 0.0
C3741 C 0.75809 0.84847 0.49931 0.0
C3742 C 0.74951 0.85431 0.48159 0.0
C3743 C 0.75995 0.85387 0.46373 0.0
O3744 O 0.7685 0.83732 0.43392 0.0
O3745 O 0.78349 0.84732 0.43868 0.0
O3746 O 0.75427 0.84849 0.45583 0.0
O3747 O 0.76949 0.85844 0.46029 0.0
H3748 H 0.7923 0.83189 0.45299 0.0
H3749 H 0.80571 0.81598 0.45402 0.0
H3750 H 0.79448 0.8046 0.42118 0.0
H3751 H 0.78134 0.82042 0.42014 0.0
H3752 H 0.76268 0.88054 0.39223 0.0
H3753 H 0.76486 0.86683 0.40791 0.0
H3754 H 0.74819 0.90458 0.41565 0.0
H3755 H 0.75058 0.89118 0.431 0.0
H3756 H 0.7418 0.85675 0.49775 0.0
H3757 H 0.77442 0.84026 0.49764 0.0
H3758 H 0.77522 0.84214 0.47693 0.0
H3759 H 0.74268 0.85861 0.47724 0.0
C3760 C 0.18266 0.7857 0.43625 0.0
C3761 C 0.18425 0.79246 0.44593 0.0
C3762 C 0.20088 0.8011 0.43727 0.0
C3763 C 0.19336 0.80008 0.44645 0.0
C3764 C 0.1997 0.79368 0.42806 0.0
C3765 C 0.19068 0.7861 0.42755 0.0
U3766 U 0.15641 0.76633 0.4427 0.0
O3767 O 0.1391 0.76868 0.43626 0.0
O3768 O 0.149 0.75369 0.43115 0.0
C3769 C 0.13928 0.75905 0.43072 0.0
C3770 C 0.17212 0.7794 0.43406 0.0
C3771 C 0.13199 0.75775 0.42077 0.0
C3772 C 0.12734 0.75974 0.4008 0.0
C3773 C 0.13509 0.76102 0.40977 0.0
C3774 C 0.11371 0.75171 0.41383 0.0
C3775 C 0.11648 0.75525 0.40283 0.0
C3776 C 0.12134 0.75299 0.42266 0.0
C3777 C 0.15977 0.75894 0.47574 0.0
C3778 C 0.15688 0.74895 0.4934 0.0
C3779 C 0.1661 0.76725 0.49342 0.0
C3780 C 0.16509 0.76776 0.48161 0.0
C3781 C 0.16164 0.758 0.49945 0.0
C3782 C 0.15596 0.74943 0.48167 0.0
C3783 C 0.15641 0.75992 0.46384 0.0
O3784 O 0.17273 0.76829 0.43387 0.0
O3785 O 0.16274 0.7833 0.43861 0.0
O3786 O 0.16174 0.75419 0.45594 0.0
O3787 O 0.15182 0.76943 0.46039 0.0
H3788 H 0.17818 0.79226 0.45278 0.0
H3789 H 0.19407 0.80568 0.45367 0.0
H3790 H 0.20545 0.79413 0.42093 0.0
H3791 H 0.18963 0.78098 0.42002 0.0
H3792 H 0.12969 0.76256 0.39241 0.0
H3793 H 0.14333 0.76468 0.40817 0.0
H3794 H 0.10551 0.74803 0.41565 0.0
H3795 H 0.11884 0.75034 0.43108 0.0
H3796 H 0.15348 0.74166 0.49779 0.0
H3797 H 0.16975 0.77438 0.49787 0.0
H3798 H 0.16799 0.77522 0.47715 0.0
H3799 H 0.15172 0.74258 0.47728 0.0
C3800 C 0.82794 0.22413 0.43526 0.0
C3801 C 0.82626 0.21762 0.44508 0.0
C3802 C 0.80974 0.20874 0.43647 0.0
C3803 C 0.81716 0.20998 0.44569 0.0
C3804 C 0.81102 0.21593 0.42708 0.0
C3805 C 0.82003 0.2235 0.42648 0.0
U3806 U 0.85373 0.24362 0.44245 0.0
O3807 O 0.87127 0.2417 0.43652 0.0
O3808 O 0.86132 0.25664 0.43145 0.0
C3809 C 0.87112 0.25141 0.43113 0.0
C3810 C 0.83843 0.23054 0.43311 0.0
C3811 C 0.87835 0.25267 0.42112 0.0
C3812 C 0.88297 0.25036 0.40117 0.0
C3813 C 0.87527 0.24914 0.41019 0.0
C3814 C 0.89652 0.25884 0.41399 0.0
C3815 C 0.89377 0.25504 0.40308 0.0
C3816 C 0.88893 0.25763 0.42287 0.0
C3817 C 0.85007 0.25061 0.47572 0.0
C3818 C 0.85376 0.2606 0.49323 0.0
C3819 C 0.84359 0.2428 0.49357 0.0
C3820 C 0.84441 0.24213 0.48176 0.0
C3821 C 0.84859 0.25187 0.49943 0.0
C3822 C 0.85448 0.25996 0.48149 0.0
C3823 C 0.85287 0.2494 0.46371 0.0
O3824 O 0.8377 0.24164 0.43311 0.0
O3825 O 0.8478 0.22667 0.43771 0.0
O3826 O 0.85768 0.24002 0.46019 0.0
O3827 O 0.84776 0.25536 0.45583 0.0
H3828 H 0.83225 0.21801 0.452 0.0
H3829 H 0.81638 0.20457 0.45304 0.0
H3830 H 0.80532 0.21532 0.41993 0.0
H3831 H 0.82114 0.22846 0.41886 0.0
H3832 H 0.88064 0.24734 0.39284 0.0
H3833 H 0.86708 0.24532 0.40869 0.0
H3834 H 0.90468 0.26265 0.41572 0.0
H3835 H 0.89141 0.26048 0.43123 0.0
H3836 H 0.85758 0.26775 0.49749 0.0
H3837 H 0.83963 0.23592 0.49814 0.0
H3838 H 0.84103 0.23481 0.4774 0.0
H3839 H 0.85896 0.26654 0.47695 0.0
loop_
_geom_bond_atom_site_label_1
_geom_bond_atom_site_label_2
_geom_bond_distance
_geom_bond_site_symmetry_2
_ccdc_geom_bond_type
C0 C1 1.264 . S
C0 C5 1.479 . S
C0 C10 1.465 . S
C1 C0 1.264 . S
C1 C3 1.339 . S
C1 H28 0.931 . S
C2 C3 1.395 . S
C2 C4 1.320 . S
C3 C1 1.339 . S
C3 C2 1.395 . S
C3 H29 0.929 . S
C4 C2 1.320 . S
C4 C5 1.405 . S
C4 H30 0.930 . S
C5 C0 1.479 . S
C5 C4 1.405 . S
C5 H31 0.931 . S
U6 O7 2.454 . S
U6 O8 2.458 . S
U6 C9 2.984 . S
U6 C10 2.847 . S
U6 C23 2.882 . S
U6 O24 2.441 . S
U6 O25 2.420 . S
U6 O26 2.455 . S
U6 O27 2.449 . S
O7 U6 2.454 . S
O7 C9 1.353 . S
O8 U6 2.458 . S
O8 C9 1.286 . S
C9 U6 2.984 . S
C9 O7 1.353 . S
C9 O8 1.286 . S
C9 C11 1.363 . S
C10 C0 1.465 . S
C10 U6 2.847 . S
C10 O24 1.249 . S
C10 O25 1.202 . S
C11 C9 1.363 . S
C11 C13 1.408 . S
C11 C16 1.342 . S
C12 C13 1.310 . S
C12 C15 1.461 . S
C12 H32 0.932 . S
C13 C11 1.408 . S
C13 C12 1.310 . S
C13 H33 0.930 . S
C14 C15 1.474 . S
C14 C16 1.285 . S
C14 H34 0.929 . S
C15 C12 1.461 . S
C15 C14 1.474 . S
C16 C11 1.342 . S
C16 C14 1.285 . S
C16 H35 0.930 . S
C17 C20 1.424 . S
C17 C22 1.245 . S
C17 C23 1.428 . S
C18 C21 1.260 . S
C18 C22 1.477 . S
C18 H36 0.932 . S
C19 C20 1.384 . S
C19 C21 1.479 . S
C19 H37 0.929 . S
C20 C17 1.424 . S
C20 C19 1.384 . S
C20 H38 0.928 . S
C21 C18 1.260 . S
C21 C19 1.479 . S
C22 C17 1.245 . S
C22 C18 1.477 . S
C22 H39 0.932 . S
C23 U6 2.882 . S
C23 C17 1.428 . S
C23 O26 1.301 . S
C23 O27 1.282 . S
O24 U6 2.441 . S
O24 C10 1.249 . S
O25 U6 2.420 . S
O25 C10 1.202 . S
O26 U6 2.455 . S
O26 C23 1.301 . S
O27 U6 2.449 . S
O27 C23 1.282 . S
H28 C1 0.931 . S
H29 C3 0.929 . S
H30 C4 0.930 . S
H31 C5 0.931 . S
H32 C12 0.932 . S
H33 C13 0.930 . S
H34 C14 0.929 . S
H35 C16 0.930 . S
H36 C18 0.932 . S
H37 C19 0.929 . S
H38 C20 0.928 . S
H39 C22 0.932 . S
C40 C41 1.264 . S
C40 C45 1.479 . S
C40 C50 1.465 . S
C41 C40 1.264 . S
C41 C43 1.339 . S
C41 H68 0.931 . S
C42 C43 1.395 . S
C42 C44 1.320 . S
C43 C41 1.339 . S
C43 C42 1.395 . S
C43 H69 0.929 . S
C44 C42 1.320 . S
C44 C45 1.405 . S
C44 H70 0.930 . S
C45 C40 1.479 . S
C45 C44 1.405 . S
C45 H71 0.931 . S
U46 O47 2.454 . S
U46 O48 2.458 . S
U46 C49 2.984 . S
U46 C50 2.847 . S
U46 C63 2.882 . S
U46 O64 2.441 . S
U46 O65 2.420 . S
U46 O66 2.455 . S
U46 O67 2.449 . S
O47 U46 2.454 . S
O47 C49 1.353 . S
O48 U46 2.458 . S
O48 C49 1.286 . S
C49 U46 2.984 . S
C49 O47 1.353 . S
C49 O48 1.286 . S
C49 C51 1.363 . S
C50 C40 1.465 . S
C50 U46 2.847 . S
C50 O64 1.249 . S
C50 O65 1.202 . S
C51 C49 1.363 . S
C51 C53 1.408 . S
C51 C56 1.342 . S
C52 C53 1.310 . S
C52 C55 1.461 . S
C52 H72 0.932 . S
C53 C51 1.408 . S
C53 C52 1.310 . S
C53 H73 0.930 . S
C54 C55 1.474 . S
C54 C56 1.285 . S
C54 H74 0.929 . S
C55 C52 1.461 . S
C55 C54 1.474 . S
C56 C51 1.342 . S
C56 C54 1.285 . S
C56 H75 0.930 . S
C57 C60 1.424 . S
C57 C62 1.245 . S
C57 C63 1.428 . S
C58 C61 1.260 . S
C58 C62 1.477 . S
C58 H76 0.932 . S
C59 C60 1.384 . S
C59 C61 1.479 . S
C59 H77 0.929 . S
C60 C57 1.424 . S
C60 C59 1.384 . S
C60 H78 0.928 . S
C61 C58 1.260 . S
C61 C59 1.479 . S
C62 C57 1.245 . S
C62 C58 1.477 . S
C62 H79 0.932 . S
C63 U46 2.882 . S
C63 C57 1.428 . S
C63 O66 1.301 . S
C63 O67 1.282 . S
O64 U46 2.441 . S
O64 C50 1.249 . S
O65 U46 2.420 . S
O65 C50 1.202 . S
O66 U46 2.455 . S
O66 C63 1.301 . S
O67 U46 2.449 . S
O67 C63 1.282 . S
H68 C41 0.931 . S
H69 C43 0.929 . S
H70 C44 0.930 . S
H71 C45 0.931 . S
H72 C52 0.932 . S
H73 C53 0.930 . S
H74 C54 0.929 . S
H75 C56 0.930 . S
H76 C58 0.932 . S
H77 C59 0.929 . S
H78 C60 0.928 . S
H79 C62 0.932 . S
C80 C81 1.264 . S
C80 C85 1.479 . S
C80 C90 1.465 . S
C81 C80 1.264 . S
C81 C83 1.339 . S
C81 H108 0.931 . S
C82 C83 1.395 . S
C82 C84 1.320 . S
C83 C81 1.339 . S
C83 C82 1.395 . S
C83 H109 0.929 . S
C84 C82 1.320 . S
C84 C85 1.405 . S
C84 H110 0.930 . S
C85 C80 1.479 . S
C85 C84 1.405 . S
C85 H111 0.931 . S
U86 O87 2.454 . S
U86 O88 2.458 . S
U86 C89 2.984 . S
U86 C90 2.847 . S
U86 C103 2.882 . S
U86 O104 2.441 . S
U86 O105 2.420 . S
U86 O106 2.455 . S
U86 O107 2.449 . S
O87 U86 2.454 . S
O87 C89 1.353 . S
O88 U86 2.458 . S
O88 C89 1.286 . S
C89 U86 2.984 . S
C89 O87 1.353 . S
C89 O88 1.286 . S
C89 C91 1.363 . S
C90 C80 1.465 . S
C90 U86 2.847 . S
C90 O104 1.249 . S
C90 O105 1.202 . S
C91 C89 1.363 . S
C91 C93 1.408 . S
C91 C96 1.342 . S
C92 C93 1.310 . S
C92 C95 1.461 . S
C92 H112 0.932 . S
C93 C91 1.408 . S
C93 C92 1.310 . S
C93 H113 0.930 . S
C94 C95 1.474 . S
C94 C96 1.285 . S
C94 H114 0.929 . S
C95 C92 1.461 . S
C95 C94 1.474 . S
C96 C91 1.342 . S
C96 C94 1.285 . S
C96 H115 0.930 . S
C97 C100 1.424 . S
C97 C102 1.245 . S
C97 C103 1.428 . S
C98 C101 1.260 . S
C98 C102 1.477 . S
C98 H116 0.932 . S
C99 C100 1.384 . S
C99 C101 1.479 . S
C99 H117 0.929 . S
C100 C97 1.424 . S
C100 C99 1.384 . S
C100 H118 0.928 . S
C101 C98 1.260 . S
C101 C99 1.479 . S
C102 C97 1.245 . S
C102 C98 1.477 . S
C102 H119 0.932 . S
C103 U86 2.882 . S
C103 C97 1.428 . S
C103 O106 1.301 . S
C103 O107 1.282 . S
O104 U86 2.441 . S
O104 C90 1.249 . S
O105 U86 2.420 . S
O105 C90 1.202 . S
O106 U86 2.455 . S
O106 C103 1.301 . S
O107 U86 2.449 . S
O107 C103 1.282 . S
H108 C81 0.931 . S
H109 C83 0.929 . S
H110 C84 0.930 . S
H111 C85 0.931 . S
H112 C92 0.932 . S
H113 C93 0.930 . S
H114 C94 0.929 . S
H115 C96 0.930 . S
H116 C98 0.932 . S
H117 C99 0.929 . S
H118 C100 0.928 . S
H119 C102 0.932 . S
C120 C121 1.264 . S
C120 C125 1.479 . S
C120 C130 1.465 . S
C121 C120 1.264 . S
C121 C123 1.339 . S
C121 H148 0.931 . S
C122 C123 1.395 . S
C122 C124 1.320 . S
C123 C121 1.339 . S
C123 C122 1.395 . S
C123 H149 0.929 . S
C124 C122 1.320 . S
C124 C125 1.405 . S
C124 H150 0.930 . S
C125 C120 1.479 . S
C125 C124 1.405 . S
C125 H151 0.931 . S
U126 O127 2.454 . S
U126 O128 2.458 . S
U126 C129 2.984 . S
U126 C130 2.847 . S
U126 C143 2.882 . S
U126 O144 2.441 . S
U126 O145 2.420 . S
U126 O146 2.455 . S
U126 O147 2.449 . S
O127 U126 2.454 . S
O127 C129 1.353 . S
O128 U126 2.458 . S
O128 C129 1.286 . S
C129 U126 2.984 . S
C129 O127 1.353 . S
C129 O128 1.286 . S
C129 C131 1.363 . S
C130 C120 1.465 . S
C130 U126 2.847 . S
C130 O144 1.249 . S
C130 O145 1.202 . S
C131 C129 1.363 . S
C131 C133 1.408 . S
C131 C136 1.342 . S
C132 C133 1.310 . S
C132 C135 1.461 . S
C132 H152 0.932 . S
C133 C131 1.408 . S
C133 C132 1.310 . S
C133 H153 0.930 . S
C134 C135 1.474 . S
C134 C136 1.285 . S
C134 H154 0.929 . S
C135 C132 1.461 . S
C135 C134 1.474 . S
C136 C131 1.342 . S
C136 C134 1.285 . S
C136 H155 0.930 . S
C137 C140 1.424 . S
C137 C142 1.245 . S
C137 C143 1.428 . S
C138 C141 1.260 . S
C138 C142 1.477 . S
C138 H156 0.932 . S
C139 C140 1.384 . S
C139 C141 1.479 . S
C139 H157 0.929 . S
C140 C137 1.424 . S
C140 C139 1.384 . S
C140 H158 0.928 . S
C141 C138 1.260 . S
C141 C139 1.479 . S
C142 C137 1.245 . S
C142 C138 1.477 . S
C142 H159 0.932 . S
C143 U126 2.882 . S
C143 C137 1.428 . S
C143 O146 1.301 . S
C143 O147 1.282 . S
O144 U126 2.441 . S
O144 C130 1.249 . S
O145 U126 2.420 . S
O145 C130 1.202 . S
O146 U126 2.455 . S
O146 C143 1.301 . S
O147 U126 2.449 . S
O147 C143 1.282 . S
H148 C121 0.931 . S
H149 C123 0.929 . S
H150 C124 0.930 . S
H151 C125 0.931 . S
H152 C132 0.932 . S
H153 C133 0.930 . S
H154 C134 0.929 . S
H155 C136 0.930 . S
H156 C138 0.932 . S
H157 C139 0.929 . S
H158 C140 0.928 . S
H159 C142 0.932 . S
C160 C161 1.264 . S
C160 C165 1.479 . S
C160 C170 1.465 . S
C161 C160 1.264 . S
C161 C163 1.339 . S
C161 H188 0.931 . S
C162 C163 1.395 . S
C162 C164 1.320 . S
C163 C161 1.339 . S
C163 C162 1.395 . S
C163 H189 0.929 . S
C164 C162 1.320 . S
C164 C165 1.405 . S
C164 H190 0.930 . S
C165 C160 1.479 . S
C165 C164 1.405 . S
C165 H191 0.931 . S
U166 O167 2.454 . S
U166 O168 2.458 . S
U166 C169 2.984 . S
U166 C170 2.847 . S
U166 C183 2.882 . S
U166 O184 2.441 . S
U166 O185 2.420 . S
U166 O186 2.455 . S
U166 O187 2.449 . S
O167 U166 2.454 . S
O167 C169 1.353 . S
O168 U166 2.458 . S
O168 C169 1.286 . S
C169 U166 2.984 . S
C169 O167 1.353 . S
C169 O168 1.286 . S
C169 C171 1.363 . S
C170 C160 1.465 . S
C170 U166 2.847 . S
C170 O184 1.249 . S
C170 O185 1.202 . S
C171 C169 1.363 . S
C171 C173 1.408 . S
C171 C176 1.342 . S
C172 C173 1.310 . S
C172 C175 1.461 . S
C172 H192 0.932 . S
C173 C171 1.408 . S
C173 C172 1.310 . S
C173 H193 0.930 . S
C174 C175 1.474 . S
C174 C176 1.285 . S
C174 H194 0.929 . S
C175 C172 1.461 . S
C175 C174 1.474 . S
C176 C171 1.342 . S
C176 C174 1.285 . S
C176 H195 0.930 . S
C177 C180 1.424 . S
C177 C182 1.245 . S
C177 C183 1.428 . S
C178 C181 1.260 . S
C178 C182 1.477 . S
C178 H196 0.932 . S
C179 C180 1.384 . S
C179 C181 1.479 . S
C179 H197 0.929 . S
C180 C177 1.424 . S
C180 C179 1.384 . S
C180 H198 0.928 . S
C181 C178 1.260 . S
C181 C179 1.479 . S
C182 C177 1.245 . S
C182 C178 1.477 . S
C182 H199 0.932 . S
C183 U166 2.882 . S
C183 C177 1.428 . S
C183 O186 1.301 . S
C183 O187 1.282 . S
O184 U166 2.441 . S
O184 C170 1.249 . S
O185 U166 2.420 . S
O185 C170 1.202 . S
O186 U166 2.455 . S
O186 C183 1.301 . S
O187 U166 2.449 . S
O187 C183 1.282 . S
H188 C161 0.931 . S
H189 C163 0.929 . S
H190 C164 0.930 . S
H191 C165 0.931 . S
H192 C172 0.932 . S
H193 C173 0.930 . S
H194 C174 0.929 . S
H195 C176 0.930 . S
H196 C178 0.932 . S
H197 C179 0.929 . S
H198 C180 0.928 . S
H199 C182 0.932 . S
C200 C201 1.264 . S
C200 C205 1.479 . S
C200 C210 1.465 . S
C201 C200 1.264 . S
C201 C203 1.339 . S
C201 H228 0.931 . S
C202 C203 1.395 . S
C202 C204 1.320 . S
C203 C201 1.339 . S
C203 C202 1.395 . S
C203 H229 0.929 . S
C204 C202 1.320 . S
C204 C205 1.405 . S
C204 H230 0.930 . S
C205 C200 1.479 . S
C205 C204 1.405 . S
C205 H231 0.931 . S
U206 O207 2.454 . S
U206 O208 2.458 . S
U206 C209 2.984 . S
U206 C210 2.847 . S
U206 C223 2.882 . S
U206 O224 2.441 . S
U206 O225 2.420 . S
U206 O226 2.455 . S
U206 O227 2.449 . S
O207 U206 2.454 . S
O207 C209 1.353 . S
O208 U206 2.458 . S
O208 C209 1.286 . S
C209 U206 2.984 . S
C209 O207 1.353 . S
C209 O208 1.286 . S
C209 C211 1.363 . S
C210 C200 1.465 . S
C210 U206 2.847 . S
C210 O224 1.249 . S
C210 O225 1.202 . S
C211 C209 1.363 . S
C211 C213 1.408 . S
C211 C216 1.342 . S
C212 C213 1.310 . S
C212 C215 1.461 . S
C212 H232 0.932 . S
C213 C211 1.408 . S
C213 C212 1.310 . S
C213 H233 0.930 . S
C214 C215 1.474 . S
C214 C216 1.285 . S
C214 H234 0.929 . S
C215 C212 1.461 . S
C215 C214 1.474 . S
C216 C211 1.342 . S
C216 C214 1.285 . S
C216 H235 0.930 . S
C217 C220 1.424 . S
C217 C222 1.245 . S
C217 C223 1.428 . S
C218 C221 1.260 . S
C218 C222 1.477 . S
C218 H236 0.932 . S
C219 C220 1.384 . S
C219 C221 1.479 . S
C219 H237 0.929 . S
C220 C217 1.424 . S
C220 C219 1.384 . S
C220 H238 0.928 . S
C221 C218 1.260 . S
C221 C219 1.479 . S
C222 C217 1.245 . S
C222 C218 1.477 . S
C222 H239 0.932 . S
C223 U206 2.882 . S
C223 C217 1.428 . S
C223 O226 1.301 . S
C223 O227 1.282 . S
O224 U206 2.441 . S
O224 C210 1.249 . S
O225 U206 2.420 . S
O225 C210 1.202 . S
O226 U206 2.455 . S
O226 C223 1.301 . S
O227 U206 2.449 . S
O227 C223 1.282 . S
H228 C201 0.931 . S
H229 C203 0.929 . S
H230 C204 0.930 . S
H231 C205 0.931 . S
H232 C212 0.932 . S
H233 C213 0.930 . S
H234 C214 0.929 . S
H235 C216 0.930 . S
H236 C218 0.932 . S
H237 C219 0.929 . S
H238 C220 0.928 . S
H239 C222 0.932 . S
C240 C241 1.264 . S
C240 C245 1.479 . S
C240 C250 1.465 . S
C241 C240 1.264 . S
C241 C243 1.339 . S
C241 H268 0.931 . S
C242 C243 1.395 . S
C242 C244 1.320 . S
C243 C241 1.339 . S
C243 C242 1.395 . S
C243 H269 0.929 . S
C244 C242 1.320 . S
C244 C245 1.405 . S
C244 H270 0.930 . S
C245 C240 1.479 . S
C245 C244 1.405 . S
C245 H271 0.931 . S
U246 O247 2.454 . S
U246 O248 2.458 . S
U246 C249 2.984 . S
U246 C250 2.847 . S
U246 C263 2.882 . S
U246 O264 2.441 . S
U246 O265 2.420 . S
U246 O266 2.455 . S
U246 O267 2.449 . S
O247 U246 2.454 . S
O247 C249 1.353 . S
O248 U246 2.458 . S
O248 C249 1.286 . S
C249 U246 2.984 . S
C249 O247 1.353 . S
C249 O248 1.286 . S
C249 C251 1.363 . S
C250 C240 1.465 . S
C250 U246 2.847 . S
C250 O264 1.249 . S
C250 O265 1.202 . S
C251 C249 1.363 . S
C251 C253 1.408 . S
C251 C256 1.342 . S
C252 C253 1.310 . S
C252 C255 1.461 . S
C252 H272 0.932 . S
C253 C251 1.408 . S
C253 C252 1.310 . S
C253 H273 0.930 . S
C254 C255 1.474 . S
C254 C256 1.285 . S
C254 H274 0.929 . S
C255 C252 1.461 . S
C255 C254 1.474 . S
C256 C251 1.342 . S
C256 C254 1.285 . S
C256 H275 0.930 . S
C257 C260 1.424 . S
C257 C262 1.245 . S
C257 C263 1.428 . S
C258 C261 1.260 . S
C258 C262 1.477 . S
C258 H276 0.932 . S
C259 C260 1.384 . S
C259 C261 1.479 . S
C259 H277 0.929 . S
C260 C257 1.424 . S
C260 C259 1.384 . S
C260 H278 0.928 . S
C261 C258 1.260 . S
C261 C259 1.479 . S
C262 C257 1.245 . S
C262 C258 1.477 . S
C262 H279 0.932 . S
C263 U246 2.882 . S
C263 C257 1.428 . S
C263 O266 1.301 . S
C263 O267 1.282 . S
O264 U246 2.441 . S
O264 C250 1.249 . S
O265 U246 2.420 . S
O265 C250 1.202 . S
O266 U246 2.455 . S
O266 C263 1.301 . S
O267 U246 2.449 . S
O267 C263 1.282 . S
H268 C241 0.931 . S
H269 C243 0.929 . S
H270 C244 0.930 . S
H271 C245 0.931 . S
H272 C252 0.932 . S
H273 C253 0.930 . S
H274 C254 0.929 . S
H275 C256 0.930 . S
H276 C258 0.932 . S
H277 C259 0.929 . S
H278 C260 0.928 . S
H279 C262 0.932 . S
C280 C281 1.264 . S
C280 C285 1.479 . S
C280 C290 1.465 . S
C281 C280 1.264 . S
C281 C283 1.339 . S
C281 H308 0.931 . S
C282 C283 1.395 . S
C282 C284 1.320 . S
C283 C281 1.339 . S
C283 C282 1.395 . S
C283 H309 0.929 . S
C284 C282 1.320 . S
C284 C285 1.405 . S
C284 H310 0.930 . S
C285 C280 1.479 . S
C285 C284 1.405 . S
C285 H311 0.931 . S
U286 O287 2.454 . S
U286 O288 2.458 . S
U286 C289 2.984 . S
U286 C290 2.847 . S
U286 C303 2.882 . S
U286 O304 2.441 . S
U286 O305 2.420 . S
U286 O306 2.455 . S
U286 O307 2.449 . S
O287 U286 2.454 . S
O287 C289 1.353 . S
O288 U286 2.458 . S
O288 C289 1.286 . S
C289 U286 2.984 . S
C289 O287 1.353 . S
C289 O288 1.286 . S
C289 C291 1.363 . S
C290 C280 1.465 . S
C290 U286 2.847 . S
C290 O304 1.249 . S
C290 O305 1.202 . S
C291 C289 1.363 . S
C291 C293 1.408 . S
C291 C296 1.342 . S
C292 C293 1.310 . S
C292 C295 1.461 . S
C292 H312 0.932 . S
C293 C291 1.408 . S
C293 C292 1.310 . S
C293 H313 0.930 . S
C294 C295 1.474 . S
C294 C296 1.285 . S
C294 H314 0.929 . S
C295 C292 1.461 . S
C295 C294 1.474 . S
C296 C291 1.342 . S
C296 C294 1.285 . S
C296 H315 0.930 . S
C297 C300 1.424 . S
C297 C302 1.245 . S
C297 C303 1.428 . S
C298 C301 1.260 . S
C298 C302 1.477 . S
C298 H316 0.932 . S
C299 C300 1.384 . S
C299 C301 1.479 . S
C299 H317 0.929 . S
C300 C297 1.424 . S
C300 C299 1.384 . S
C300 H318 0.928 . S
C301 C298 1.260 . S
C301 C299 1.479 . S
C302 C297 1.245 . S
C302 C298 1.477 . S
C302 H319 0.932 . S
C303 U286 2.882 . S
C303 C297 1.428 . S
C303 O306 1.301 . S
C303 O307 1.282 . S
O304 U286 2.441 . S
O304 C290 1.249 . S
O305 U286 2.420 . S
O305 C290 1.202 . S
O306 U286 2.455 . S
O306 C303 1.301 . S
O307 U286 2.449 . S
O307 C303 1.282 . S
H308 C281 0.931 . S
H309 C283 0.929 . S
H310 C284 0.930 . S
H311 C285 0.931 . S
H312 C292 0.932 . S
H313 C293 0.930 . S
H314 C294 0.929 . S
H315 C296 0.930 . S
H316 C298 0.932 . S
H317 C299 0.929 . S
H318 C300 0.928 . S
H319 C302 0.932 . S
C320 C321 1.264 . S
C320 C325 1.479 . S
C320 C330 1.465 . S
C321 C320 1.264 . S
C321 C323 1.339 . S
C321 H348 0.931 . S
C322 C323 1.395 . S
C322 C324 1.320 . S
C323 C321 1.339 . S
C323 C322 1.395 . S
C323 H349 0.929 . S
C324 C322 1.320 . S
C324 C325 1.405 . S
C324 H350 0.930 . S
C325 C320 1.479 . S
C325 C324 1.405 . S
C325 H351 0.931 . S
U326 O327 2.454 . S
U326 O328 2.458 . S
U326 C329 2.984 . S
U326 C330 2.847 . S
U326 C343 2.882 . S
U326 O344 2.441 . S
U326 O345 2.420 . S
U326 O346 2.455 . S
U326 O347 2.449 . S
O327 U326 2.454 . S
O327 C329 1.353 . S
O328 U326 2.458 . S
O328 C329 1.286 . S
C329 U326 2.984 . S
C329 O327 1.353 . S
C329 O328 1.286 . S
C329 C331 1.363 . S
C330 C320 1.465 . S
C330 U326 2.847 . S
C330 O344 1.249 . S
C330 O345 1.202 . S
C331 C329 1.363 . S
C331 C333 1.408 . S
C331 C336 1.342 . S
C332 C333 1.310 . S
C332 C335 1.461 . S
C332 H352 0.932 . S
C333 C331 1.408 . S
C333 C332 1.310 . S
C333 H353 0.930 . S
C334 C335 1.474 . S
C334 C336 1.285 . S
C334 H354 0.929 . S
C335 C332 1.461 . S
C335 C334 1.474 . S
C336 C331 1.342 . S
C336 C334 1.285 . S
C336 H355 0.930 . S
C337 C340 1.424 . S
C337 C342 1.245 . S
C337 C343 1.428 . S
C338 C341 1.260 . S
C338 C342 1.477 . S
C338 H356 0.932 . S
C339 C340 1.384 . S
C339 C341 1.479 . S
C339 H357 0.929 . S
C340 C337 1.424 . S
C340 C339 1.384 . S
C340 H358 0.928 . S
C341 C338 1.260 . S
C341 C339 1.479 . S
C342 C337 1.245 . S
C342 C338 1.477 . S
C342 H359 0.932 . S
C343 U326 2.882 . S
C343 C337 1.428 . S
C343 O346 1.301 . S
C343 O347 1.282 . S
O344 U326 2.441 . S
O344 C330 1.249 . S
O345 U326 2.420 . S
O345 C330 1.202 . S
O346 U326 2.455 . S
O346 C343 1.301 . S
O347 U326 2.449 . S
O347 C343 1.282 . S
H348 C321 0.931 . S
H349 C323 0.929 . S
H350 C324 0.930 . S
H351 C325 0.931 . S
H352 C332 0.932 . S
H353 C333 0.930 . S
H354 C334 0.929 . S
H355 C336 0.930 . S
H356 C338 0.932 . S
H357 C339 0.929 . S
H358 C340 0.928 . S
H359 C342 0.932 . S
C360 C361 1.264 . S
C360 C365 1.479 . S
C360 C370 1.465 . S
C361 C360 1.264 . S
C361 C363 1.339 . S
C361 H388 0.931 . S
C362 C363 1.395 . S
C362 C364 1.320 . S
C363 C361 1.339 . S
C363 C362 1.395 . S
C363 H389 0.929 . S
C364 C362 1.320 . S
C364 C365 1.405 . S
C364 H390 0.930 . S
C365 C360 1.479 . S
C365 C364 1.405 . S
C365 H391 0.931 . S
U366 O367 2.454 . S
U366 O368 2.458 . S
U366 C369 2.984 . S
U366 C370 2.847 . S
U366 C383 2.882 . S
U366 O384 2.441 . S
U366 O385 2.420 . S
U366 O386 2.455 . S
U366 O387 2.449 . S
O367 U366 2.454 . S
O367 C369 1.353 . S
O368 U366 2.458 . S
O368 C369 1.286 . S
C369 U366 2.984 . S
C369 O367 1.353 . S
C369 O368 1.286 . S
C369 C371 1.363 . S
C370 C360 1.465 . S
C370 U366 2.847 . S
C370 O384 1.249 . S
C370 O385 1.202 . S
C371 C369 1.363 . S
C371 C373 1.408 . S
C371 C376 1.342 . S
C372 C373 1.310 . S
C372 C375 1.461 . S
C372 H392 0.932 . S
C373 C371 1.408 . S
C373 C372 1.310 . S
C373 H393 0.930 . S
C374 C375 1.474 . S
C374 C376 1.285 . S
C374 H394 0.929 . S
C375 C372 1.461 . S
C375 C374 1.474 . S
C376 C371 1.342 . S
C376 C374 1.285 . S
C376 H395 0.930 . S
C377 C380 1.424 . S
C377 C382 1.245 . S
C377 C383 1.428 . S
C378 C381 1.260 . S
C378 C382 1.477 . S
C378 H396 0.932 . S
C379 C380 1.384 . S
C379 C381 1.479 . S
C379 H397 0.929 . S
C380 C377 1.424 . S
C380 C379 1.384 . S
C380 H398 0.928 . S
C381 C378 1.260 . S
C381 C379 1.479 . S
C382 C377 1.245 . S
C382 C378 1.477 . S
C382 H399 0.932 . S
C383 U366 2.882 . S
C383 C377 1.428 . S
C383 O386 1.301 . S
C383 O387 1.282 . S
O384 U366 2.441 . S
O384 C370 1.249 . S
O385 U366 2.420 . S
O385 C370 1.202 . S
O386 U366 2.455 . S
O386 C383 1.301 . S
O387 U366 2.449 . S
O387 C383 1.282 . S
H388 C361 0.931 . S
H389 C363 0.929 . S
H390 C364 0.930 . S
H391 C365 0.931 . S
H392 C372 0.932 . S
H393 C373 0.930 . S
H394 C374 0.929 . S
H395 C376 0.930 . S
H396 C378 0.932 . S
H397 C379 0.929 . S
H398 C380 0.928 . S
H399 C382 0.932 . S
C400 C401 1.264 . S
C400 C405 1.479 . S
C400 C410 1.465 . S
C401 C400 1.264 . S
C401 C403 1.339 . S
C401 H428 0.931 . S
C402 C403 1.395 . S
C402 C404 1.320 . S
C403 C401 1.339 . S
C403 C402 1.395 . S
C403 H429 0.929 . S
C404 C402 1.320 . S
C404 C405 1.405 . S
C404 H430 0.930 . S
C405 C400 1.479 . S
C405 C404 1.405 . S
C405 H431 0.931 . S
U406 O407 2.454 . S
U406 O408 2.458 . S
U406 C409 2.984 . S
U406 C410 2.847 . S
U406 C423 2.882 . S
U406 O424 2.441 . S
U406 O425 2.420 . S
U406 O426 2.455 . S
U406 O427 2.449 . S
O407 U406 2.454 . S
O407 C409 1.353 . S
O408 U406 2.458 . S
O408 C409 1.286 . S
C409 U406 2.984 . S
C409 O407 1.353 . S
C409 O408 1.286 . S
C409 C411 1.363 . S
C410 C400 1.465 . S
C410 U406 2.847 . S
C410 O424 1.249 . S
C410 O425 1.202 . S
C411 C409 1.363 . S
C411 C413 1.408 . S
C411 C416 1.342 . S
C412 C413 1.310 . S
C412 C415 1.461 . S
C412 H432 0.932 . S
C413 C411 1.408 . S
C413 C412 1.310 . S
C413 H433 0.930 . S
C414 C415 1.474 . S
C414 C416 1.285 . S
C414 H434 0.929 . S
C415 C412 1.461 . S
C415 C414 1.474 . S
C416 C411 1.342 . S
C416 C414 1.285 . S
C416 H435 0.930 . S
C417 C420 1.424 . S
C417 C422 1.245 . S
C417 C423 1.428 . S
C418 C421 1.260 . S
C418 C422 1.477 . S
C418 H436 0.932 . S
C419 C420 1.384 . S
C419 C421 1.479 . S
C419 H437 0.929 . S
C420 C417 1.424 . S
C420 C419 1.384 . S
C420 H438 0.928 . S
C421 C418 1.260 . S
C421 C419 1.479 . S
C422 C417 1.245 . S
C422 C418 1.477 . S
C422 H439 0.932 . S
C423 U406 2.882 . S
C423 C417 1.428 . S
C423 O426 1.301 . S
C423 O427 1.282 . S
O424 U406 2.441 . S
O424 C410 1.249 . S
O425 U406 2.420 . S
O425 C410 1.202 . S
O426 U406 2.455 . S
O426 C423 1.301 . S
O427 U406 2.449 . S
O427 C423 1.282 . S
H428 C401 0.931 . S
H429 C403 0.929 . S
H430 C404 0.930 . S
H431 C405 0.931 . S
H432 C412 0.932 . S
H433 C413 0.930 . S
H434 C414 0.929 . S
H435 C416 0.930 . S
H436 C418 0.932 . S
H437 C419 0.929 . S
H438 C420 0.928 . S
H439 C422 0.932 . S
C440 C441 1.264 . S
C440 C445 1.479 . S
C440 C450 1.465 . S
C441 C440 1.264 . S
C441 C443 1.339 . S
C441 H468 0.931 . S
C442 C443 1.395 . S
C442 C444 1.320 . S
C443 C441 1.339 . S
C443 C442 1.395 . S
C443 H469 0.929 . S
C444 C442 1.320 . S
C444 C445 1.405 . S
C444 H470 0.930 . S
C445 C440 1.479 . S
C445 C444 1.405 . S
C445 H471 0.931 . S
U446 O447 2.454 . S
U446 O448 2.458 . S
U446 C449 2.984 . S
U446 C450 2.847 . S
U446 C463 2.882 . S
U446 O464 2.441 . S
U446 O465 2.420 . S
U446 O466 2.455 . S
U446 O467 2.449 . S
O447 U446 2.454 . S
O447 C449 1.353 . S
O448 U446 2.458 . S
O448 C449 1.286 . S
C449 U446 2.984 . S
C449 O447 1.353 . S
C449 O448 1.286 . S
C449 C451 1.363 . S
C450 C440 1.465 . S
C450 U446 2.847 . S
C450 O464 1.249 . S
C450 O465 1.202 . S
C451 C449 1.363 . S
C451 C453 1.408 . S
C451 C456 1.342 . S
C452 C453 1.310 . S
C452 C455 1.461 . S
C452 H472 0.932 . S
C453 C451 1.408 . S
C453 C452 1.310 . S
C453 H473 0.930 . S
C454 C455 1.474 . S
C454 C456 1.285 . S
C454 H474 0.929 . S
C455 C452 1.461 . S
C455 C454 1.474 . S
C456 C451 1.342 . S
C456 C454 1.285 . S
C456 H475 0.930 . S
C457 C460 1.424 . S
C457 C462 1.245 . S
C457 C463 1.428 . S
C458 C461 1.260 . S
C458 C462 1.477 . S
C458 H476 0.932 . S
C459 C460 1.384 . S
C459 C461 1.479 . S
C459 H477 0.929 . S
C460 C457 1.424 . S
C460 C459 1.384 . S
C460 H478 0.928 . S
C461 C458 1.260 . S
C461 C459 1.479 . S
C462 C457 1.245 . S
C462 C458 1.477 . S
C462 H479 0.932 . S
C463 U446 2.882 . S
C463 C457 1.428 . S
C463 O466 1.301 . S
C463 O467 1.282 . S
O464 U446 2.441 . S
O464 C450 1.249 . S
O465 U446 2.420 . S
O465 C450 1.202 . S
O466 U446 2.455 . S
O466 C463 1.301 . S
O467 U446 2.449 . S
O467 C463 1.282 . S
H468 C441 0.931 . S
H469 C443 0.929 . S
H470 C444 0.930 . S
H471 C445 0.931 . S
H472 C452 0.932 . S
H473 C453 0.930 . S
H474 C454 0.929 . S
H475 C456 0.930 . S
H476 C458 0.932 . S
H477 C459 0.929 . S
H478 C460 0.928 . S
H479 C462 0.932 . S
C480 C481 1.264 . S
C480 C485 1.479 . S
C480 C490 1.465 . S
C481 C480 1.264 . S
C481 C483 1.339 . S
C481 H508 0.931 . S
C482 C483 1.395 . S
C482 C484 1.320 . S
C483 C481 1.339 . S
C483 C482 1.395 . S
C483 H509 0.929 . S
C484 C482 1.320 . S
C484 C485 1.405 . S
C484 H510 0.930 . S
C485 C480 1.479 . S
C485 C484 1.405 . S
C485 H511 0.931 . S
U486 O487 2.454 . S
U486 O488 2.458 . S
U486 C489 2.984 . S
U486 C490 2.847 . S
U486 C503 2.882 . S
U486 O504 2.441 . S
U486 O505 2.420 . S
U486 O506 2.455 . S
U486 O507 2.449 . S
O487 U486 2.454 . S
O487 C489 1.353 . S
O488 U486 2.458 . S
O488 C489 1.286 . S
C489 U486 2.984 . S
C489 O487 1.353 . S
C489 O488 1.286 . S
C489 C491 1.363 . S
C490 C480 1.465 . S
C490 U486 2.847 . S
C490 O504 1.249 . S
C490 O505 1.202 . S
C491 C489 1.363 . S
C491 C493 1.408 . S
C491 C496 1.342 . S
C492 C493 1.310 . S
C492 C495 1.461 . S
C492 H512 0.932 . S
C493 C491 1.408 . S
C493 C492 1.310 . S
C493 H513 0.930 . S
C494 C495 1.474 . S
C494 C496 1.285 . S
C494 H514 0.929 . S
C495 C492 1.461 . S
C495 C494 1.474 . S
C496 C491 1.342 . S
C496 C494 1.285 . S
C496 H515 0.930 . S
C497 C500 1.424 . S
C497 C502 1.245 . S
C497 C503 1.428 . S
C498 C501 1.260 . S
C498 C502 1.477 . S
C498 H516 0.932 . S
C499 C500 1.384 . S
C499 C501 1.479 . S
C499 H517 0.929 . S
C500 C497 1.424 . S
C500 C499 1.384 . S
C500 H518 0.928 . S
C501 C498 1.260 . S
C501 C499 1.479 . S
C502 C497 1.245 . S
C502 C498 1.477 . S
C502 H519 0.932 . S
C503 U486 2.882 . S
C503 C497 1.428 . S
C503 O506 1.301 . S
C503 O507 1.282 . S
O504 U486 2.441 . S
O504 C490 1.249 . S
O505 U486 2.420 . S
O505 C490 1.202 . S
O506 U486 2.455 . S
O506 C503 1.301 . S
O507 U486 2.449 . S
O507 C503 1.282 . S
H508 C481 0.931 . S
H509 C483 0.929 . S
H510 C484 0.930 . S
H511 C485 0.931 . S
H512 C492 0.932 . S
H513 C493 0.930 . S
H514 C494 0.929 . S
H515 C496 0.930 . S
H516 C498 0.932 . S
H517 C499 0.929 . S
H518 C500 0.928 . S
H519 C502 0.932 . S
C520 C521 1.264 . S
C520 C525 1.479 . S
C520 C530 1.465 . S
C521 C520 1.264 . S
C521 C523 1.339 . S
C521 H548 0.931 . S
C522 C523 1.395 . S
C522 C524 1.320 . S
C523 C521 1.339 . S
C523 C522 1.395 . S
C523 H549 0.929 . S
C524 C522 1.320 . S
C524 C525 1.405 . S
C524 H550 0.930 . S
C525 C520 1.479 . S
C525 C524 1.405 . S
C525 H551 0.931 . S
U526 O527 2.454 . S
U526 O528 2.458 . S
U526 C529 2.984 . S
U526 C530 2.847 . S
U526 C543 2.882 . S
U526 O544 2.441 . S
U526 O545 2.420 . S
U526 O546 2.455 . S
U526 O547 2.449 . S
O527 U526 2.454 . S
O527 C529 1.353 . S
O528 U526 2.458 . S
O528 C529 1.286 . S
C529 U526 2.984 . S
C529 O527 1.353 . S
C529 O528 1.286 . S
C529 C531 1.363 . S
C530 C520 1.465 . S
C530 U526 2.847 . S
C530 O544 1.249 . S
C530 O545 1.202 . S
C531 C529 1.363 . S
C531 C533 1.408 . S
C531 C536 1.342 . S
C532 C533 1.310 . S
C532 C535 1.461 . S
C532 H552 0.932 . S
C533 C531 1.408 . S
C533 C532 1.310 . S
C533 H553 0.930 . S
C534 C535 1.474 . S
C534 C536 1.285 . S
C534 H554 0.929 . S
C535 C532 1.461 . S
C535 C534 1.474 . S
C536 C531 1.342 . S
C536 C534 1.285 . S
C536 H555 0.930 . S
C537 C540 1.424 . S
C537 C542 1.245 . S
C537 C543 1.428 . S
C538 C541 1.260 . S
C538 C542 1.477 . S
C538 H556 0.932 . S
C539 C540 1.384 . S
C539 C541 1.479 . S
C539 H557 0.929 . S
C540 C537 1.424 . S
C540 C539 1.384 . S
C540 H558 0.928 . S
C541 C538 1.260 . S
C541 C539 1.479 . S
C542 C537 1.245 . S
C542 C538 1.477 . S
C542 H559 0.932 . S
C543 U526 2.882 . S
C543 C537 1.428 . S
C543 O546 1.301 . S
C543 O547 1.282 . S
O544 U526 2.441 . S
O544 C530 1.249 . S
O545 U526 2.420 . S
O545 C530 1.202 . S
O546 U526 2.455 . S
O546 C543 1.301 . S
O547 U526 2.449 . S
O547 C543 1.282 . S
H548 C521 0.931 . S
H549 C523 0.929 . S
H550 C524 0.930 . S
H551 C525 0.931 . S
H552 C532 0.932 . S
H553 C533 0.930 . S
H554 C534 0.929 . S
H555 C536 0.930 . S
H556 C538 0.932 . S
H557 C539 0.929 . S
H558 C540 0.928 . S
H559 C542 0.932 . S
C560 C561 1.264 . S
C560 C565 1.479 . S
C560 C570 1.465 . S
C561 C560 1.264 . S
C561 C563 1.339 . S
C561 H588 0.931 . S
C562 C563 1.395 . S
C562 C564 1.320 . S
C563 C561 1.339 . S
C563 C562 1.395 . S
C563 H589 0.929 . S
C564 C562 1.320 . S
C564 C565 1.405 . S
C564 H590 0.930 . S
C565 C560 1.479 . S
C565 C564 1.405 . S
C565 H591 0.931 . S
U566 O567 2.454 . S
U566 O568 2.458 . S
U566 C569 2.984 . S
U566 C570 2.847 . S
U566 C583 2.882 . S
U566 O584 2.441 . S
U566 O585 2.420 . S
U566 O586 2.455 . S
U566 O587 2.449 . S
O567 U566 2.454 . S
O567 C569 1.353 . S
O568 U566 2.458 . S
O568 C569 1.286 . S
C569 U566 2.984 . S
C569 O567 1.353 . S
C569 O568 1.286 . S
C569 C571 1.363 . S
C570 C560 1.465 . S
C570 U566 2.847 . S
C570 O584 1.249 . S
C570 O585 1.202 . S
C571 C569 1.363 . S
C571 C573 1.408 . S
C571 C576 1.342 . S
C572 C573 1.310 . S
C572 C575 1.461 . S
C572 H592 0.932 . S
C573 C571 1.408 . S
C573 C572 1.310 . S
C573 H593 0.930 . S
C574 C575 1.474 . S
C574 C576 1.285 . S
C574 H594 0.929 . S
C575 C572 1.461 . S
C575 C574 1.474 . S
C576 C571 1.342 . S
C576 C574 1.285 . S
C576 H595 0.930 . S
C577 C580 1.424 . S
C577 C582 1.245 . S
C577 C583 1.428 . S
C578 C581 1.260 . S
C578 C582 1.477 . S
C578 H596 0.932 . S
C579 C580 1.384 . S
C579 C581 1.479 . S
C579 H597 0.929 . S
C580 C577 1.424 . S
C580 C579 1.384 . S
C580 H598 0.928 . S
C581 C578 1.260 . S
C581 C579 1.479 . S
C582 C577 1.245 . S
C582 C578 1.477 . S
C582 H599 0.932 . S
C583 U566 2.882 . S
C583 C577 1.428 . S
C583 O586 1.301 . S
C583 O587 1.282 . S
O584 U566 2.441 . S
O584 C570 1.249 . S
O585 U566 2.420 . S
O585 C570 1.202 . S
O586 U566 2.455 . S
O586 C583 1.301 . S
O587 U566 2.449 . S
O587 C583 1.282 . S
H588 C561 0.931 . S
H589 C563 0.929 . S
H590 C564 0.930 . S
H591 C565 0.931 . S
H592 C572 0.932 . S
H593 C573 0.930 . S
H594 C574 0.929 . S
H595 C576 0.930 . S
H596 C578 0.932 . S
H597 C579 0.929 . S
H598 C580 0.928 . S
H599 C582 0.932 . S
C600 C601 1.264 . S
C600 C605 1.479 . S
C600 C610 1.465 . S
C601 C600 1.264 . S
C601 C603 1.339 . S
C601 H628 0.931 . S
C602 C603 1.395 . S
C602 C604 1.320 . S
C603 C601 1.339 . S
C603 C602 1.395 . S
C603 H629 0.929 . S
C604 C602 1.320 . S
C604 C605 1.405 . S
C604 H630 0.930 . S
C605 C600 1.479 . S
C605 C604 1.405 . S
C605 H631 0.931 . S
U606 O607 2.454 . S
U606 O608 2.458 . S
U606 C609 2.984 . S
U606 C610 2.847 . S
U606 C623 2.882 . S
U606 O624 2.441 . S
U606 O625 2.420 . S
U606 O626 2.455 . S
U606 O627 2.449 . S
O607 U606 2.454 . S
O607 C609 1.353 . S
O608 U606 2.458 . S
O608 C609 1.286 . S
C609 U606 2.984 . S
C609 O607 1.353 . S
C609 O608 1.286 . S
C609 C611 1.363 . S
C610 C600 1.465 . S
C610 U606 2.847 . S
C610 O624 1.249 . S
C610 O625 1.202 . S
C611 C609 1.363 . S
C611 C613 1.408 . S
C611 C616 1.342 . S
C612 C613 1.310 . S
C612 C615 1.461 . S
C612 H632 0.932 . S
C613 C611 1.408 . S
C613 C612 1.310 . S
C613 H633 0.930 . S
C614 C615 1.474 . S
C614 C616 1.285 . S
C614 H634 0.929 . S
C615 C612 1.461 . S
C615 C614 1.474 . S
C616 C611 1.342 . S
C616 C614 1.285 . S
C616 H635 0.930 . S
C617 C620 1.424 . S
C617 C622 1.245 . S
C617 C623 1.428 . S
C618 C621 1.260 . S
C618 C622 1.477 . S
C618 H636 0.932 . S
C619 C620 1.384 . S
C619 C621 1.479 . S
C619 H637 0.929 . S
C620 C617 1.424 . S
C620 C619 1.384 . S
C620 H638 0.928 . S
C621 C618 1.260 . S
C621 C619 1.479 . S
C622 C617 1.245 . S
C622 C618 1.477 . S
C622 H639 0.932 . S
C623 U606 2.882 . S
C623 C617 1.428 . S
C623 O626 1.301 . S
C623 O627 1.282 . S
O624 U606 2.441 . S
O624 C610 1.249 . S
O625 U606 2.420 . S
O625 C610 1.202 . S
O626 U606 2.455 . S
O626 C623 1.301 . S
O627 U606 2.449 . S
O627 C623 1.282 . S
H628 C601 0.931 . S
H629 C603 0.929 . S
H630 C604 0.930 . S
H631 C605 0.931 . S
H632 C612 0.932 . S
H633 C613 0.930 . S
H634 C614 0.929 . S
H635 C616 0.930 . S
H636 C618 0.932 . S
H637 C619 0.929 . S
H638 C620 0.928 . S
H639 C622 0.932 . S
C640 C641 1.264 . S
C640 C645 1.479 . S
C640 C650 1.465 . S
C641 C640 1.264 . S
C641 C643 1.339 . S
C641 H668 0.931 . S
C642 C643 1.395 . S
C642 C644 1.320 . S
C643 C641 1.339 . S
C643 C642 1.395 . S
C643 H669 0.929 . S
C644 C642 1.320 . S
C644 C645 1.405 . S
C644 H670 0.930 . S
C645 C640 1.479 . S
C645 C644 1.405 . S
C645 H671 0.931 . S
U646 O647 2.454 . S
U646 O648 2.458 . S
U646 C649 2.984 . S
U646 C650 2.847 . S
U646 C663 2.882 . S
U646 O664 2.441 . S
U646 O665 2.420 . S
U646 O666 2.455 . S
U646 O667 2.449 . S
O647 U646 2.454 . S
O647 C649 1.353 . S
O648 U646 2.458 . S
O648 C649 1.286 . S
C649 U646 2.984 . S
C649 O647 1.353 . S
C649 O648 1.286 . S
C649 C651 1.363 . S
C650 C640 1.465 . S
C650 U646 2.847 . S
C650 O664 1.249 . S
C650 O665 1.202 . S
C651 C649 1.363 . S
C651 C653 1.408 . S
C651 C656 1.342 . S
C652 C653 1.310 . S
C652 C655 1.461 . S
C652 H672 0.932 . S
C653 C651 1.408 . S
C653 C652 1.310 . S
C653 H673 0.930 . S
C654 C655 1.474 . S
C654 C656 1.285 . S
C654 H674 0.929 . S
C655 C652 1.461 . S
C655 C654 1.474 . S
C656 C651 1.342 . S
C656 C654 1.285 . S
C656 H675 0.930 . S
C657 C660 1.424 . S
C657 C662 1.245 . S
C657 C663 1.428 . S
C658 C661 1.260 . S
C658 C662 1.477 . S
C658 H676 0.932 . S
C659 C660 1.384 . S
C659 C661 1.479 . S
C659 H677 0.929 . S
C660 C657 1.424 . S
C660 C659 1.384 . S
C660 H678 0.928 . S
C661 C658 1.260 . S
C661 C659 1.479 . S
C662 C657 1.245 . S
C662 C658 1.477 . S
C662 H679 0.932 . S
C663 U646 2.882 . S
C663 C657 1.428 . S
C663 O666 1.301 . S
C663 O667 1.282 . S
O664 U646 2.441 . S
O664 C650 1.249 . S
O665 U646 2.420 . S
O665 C650 1.202 . S
O666 U646 2.455 . S
O666 C663 1.301 . S
O667 U646 2.449 . S
O667 C663 1.282 . S
H668 C641 0.931 . S
H669 C643 0.929 . S
H670 C644 0.930 . S
H671 C645 0.931 . S
H672 C652 0.932 . S
H673 C653 0.930 . S
H674 C654 0.929 . S
H675 C656 0.930 . S
H676 C658 0.932 . S
H677 C659 0.929 . S
H678 C660 0.928 . S
H679 C662 0.932 . S
C680 C681 1.264 . S
C680 C685 1.479 . S
C680 C690 1.465 . S
C681 C680 1.264 . S
C681 C683 1.339 . S
C681 H708 0.931 . S
C682 C683 1.395 . S
C682 C684 1.320 . S
C683 C681 1.339 . S
C683 C682 1.395 . S
C683 H709 0.929 . S
C684 C682 1.320 . S
C684 C685 1.405 . S
C684 H710 0.930 . S
C685 C680 1.479 . S
C685 C684 1.405 . S
C685 H711 0.931 . S
U686 O687 2.454 . S
U686 O688 2.458 . S
U686 C689 2.984 . S
U686 C690 2.847 . S
U686 C703 2.882 . S
U686 O704 2.441 . S
U686 O705 2.420 . S
U686 O706 2.455 . S
U686 O707 2.449 . S
O687 U686 2.454 . S
O687 C689 1.353 . S
O688 U686 2.458 . S
O688 C689 1.286 . S
C689 U686 2.984 . S
C689 O687 1.353 . S
C689 O688 1.286 . S
C689 C691 1.363 . S
C690 C680 1.465 . S
C690 U686 2.847 . S
C690 O704 1.249 . S
C690 O705 1.202 . S
C691 C689 1.363 . S
C691 C693 1.408 . S
C691 C696 1.342 . S
C692 C693 1.310 . S
C692 C695 1.461 . S
C692 H712 0.932 . S
C693 C691 1.408 . S
C693 C692 1.310 . S
C693 H713 0.930 . S
C694 C695 1.474 . S
C694 C696 1.285 . S
C694 H714 0.929 . S
C695 C692 1.461 . S
C695 C694 1.474 . S
C696 C691 1.342 . S
C696 C694 1.285 . S
C696 H715 0.930 . S
C697 C700 1.424 . S
C697 C702 1.245 . S
C697 C703 1.428 . S
C698 C701 1.260 . S
C698 C702 1.477 . S
C698 H716 0.932 . S
C699 C700 1.384 . S
C699 C701 1.479 . S
C699 H717 0.929 . S
C700 C697 1.424 . S
C700 C699 1.384 . S
C700 H718 0.928 . S
C701 C698 1.260 . S
C701 C699 1.479 . S
C702 C697 1.245 . S
C702 C698 1.477 . S
C702 H719 0.932 . S
C703 U686 2.882 . S
C703 C697 1.428 . S
C703 O706 1.301 . S
C703 O707 1.282 . S
O704 U686 2.441 . S
O704 C690 1.249 . S
O705 U686 2.420 . S
O705 C690 1.202 . S
O706 U686 2.455 . S
O706 C703 1.301 . S
O707 U686 2.449 . S
O707 C703 1.282 . S
H708 C681 0.931 . S
H709 C683 0.929 . S
H710 C684 0.930 . S
H711 C685 0.931 . S
H712 C692 0.932 . S
H713 C693 0.930 . S
H714 C694 0.929 . S
H715 C696 0.930 . S
H716 C698 0.932 . S
H717 C699 0.929 . S
H718 C700 0.928 . S
H719 C702 0.932 . S
C720 C721 1.264 . S
C720 C725 1.479 . S
C720 C730 1.465 . S
C721 C720 1.264 . S
C721 C723 1.339 . S
C721 H748 0.931 . S
C722 C723 1.395 . S
C722 C724 1.320 . S
C723 C721 1.339 . S
C723 C722 1.395 . S
C723 H749 0.929 . S
C724 C722 1.320 . S
C724 C725 1.405 . S
C724 H750 0.930 . S
C725 C720 1.479 . S
C725 C724 1.405 . S
C725 H751 0.931 . S
U726 O727 2.454 . S
U726 O728 2.458 . S
U726 C729 2.984 . S
U726 C730 2.847 . S
U726 C743 2.882 . S
U726 O744 2.441 . S
U726 O745 2.420 . S
U726 O746 2.455 . S
U726 O747 2.449 . S
O727 U726 2.454 . S
O727 C729 1.353 . S
O728 U726 2.458 . S
O728 C729 1.286 . S
C729 U726 2.984 . S
C729 O727 1.353 . S
C729 O728 1.286 . S
C729 C731 1.363 . S
C730 C720 1.465 . S
C730 U726 2.847 . S
C730 O744 1.249 . S
C730 O745 1.202 . S
C731 C729 1.363 . S
C731 C733 1.408 . S
C731 C736 1.342 . S
C732 C733 1.310 . S
C732 C735 1.461 . S
C732 H752 0.932 . S
C733 C731 1.408 . S
C733 C732 1.310 . S
C733 H753 0.930 . S
C734 C735 1.474 . S
C734 C736 1.285 . S
C734 H754 0.929 . S
C735 C732 1.461 . S
C735 C734 1.474 . S
C736 C731 1.342 . S
C736 C734 1.285 . S
C736 H755 0.930 . S
C737 C740 1.424 . S
C737 C742 1.245 . S
C737 C743 1.428 . S
C738 C741 1.260 . S
C738 C742 1.477 . S
C738 H756 0.932 . S
C739 C740 1.384 . S
C739 C741 1.479 . S
C739 H757 0.929 . S
C740 C737 1.424 . S
C740 C739 1.384 . S
C740 H758 0.928 . S
C741 C738 1.260 . S
C741 C739 1.479 . S
C742 C737 1.245 . S
C742 C738 1.477 . S
C742 H759 0.932 . S
C743 U726 2.882 . S
C743 C737 1.428 . S
C743 O746 1.301 . S
C743 O747 1.282 . S
O744 U726 2.441 . S
O744 C730 1.249 . S
O745 U726 2.420 . S
O745 C730 1.202 . S
O746 U726 2.455 . S
O746 C743 1.301 . S
O747 U726 2.449 . S
O747 C743 1.282 . S
H748 C721 0.931 . S
H749 C723 0.929 . S
H750 C724 0.930 . S
H751 C725 0.931 . S
H752 C732 0.932 . S
H753 C733 0.930 . S
H754 C734 0.929 . S
H755 C736 0.930 . S
H756 C738 0.932 . S
H757 C739 0.929 . S
H758 C740 0.928 . S
H759 C742 0.932 . S
C760 C761 1.264 . S
C760 C765 1.479 . S
C760 C770 1.465 . S
C761 C760 1.264 . S
C761 C763 1.339 . S
C761 H788 0.931 . S
C762 C763 1.395 . S
C762 C764 1.320 . S
C763 C761 1.339 . S
C763 C762 1.395 . S
C763 H789 0.929 . S
C764 C762 1.320 . S
C764 C765 1.405 . S
C764 H790 0.930 . S
C765 C760 1.479 . S
C765 C764 1.405 . S
C765 H791 0.931 . S
U766 O767 2.454 . S
U766 O768 2.458 . S
U766 C769 2.984 . S
U766 C770 2.847 . S
U766 C783 2.882 . S
U766 O784 2.441 . S
U766 O785 2.420 . S
U766 O786 2.455 . S
U766 O787 2.449 . S
O767 U766 2.454 . S
O767 C769 1.353 . S
O768 U766 2.458 . S
O768 C769 1.286 . S
C769 U766 2.984 . S
C769 O767 1.353 . S
C769 O768 1.286 . S
C769 C771 1.363 . S
C770 C760 1.465 . S
C770 U766 2.847 . S
C770 O784 1.249 . S
C770 O785 1.202 . S
C771 C769 1.363 . S
C771 C773 1.408 . S
C771 C776 1.342 . S
C772 C773 1.310 . S
C772 C775 1.461 . S
C772 H792 0.932 . S
C773 C771 1.408 . S
C773 C772 1.310 . S
C773 H793 0.930 . S
C774 C775 1.474 . S
C774 C776 1.285 . S
C774 H794 0.929 . S
C775 C772 1.461 . S
C775 C774 1.474 . S
C776 C771 1.342 . S
C776 C774 1.285 . S
C776 H795 0.930 . S
C777 C780 1.424 . S
C777 C782 1.245 . S
C777 C783 1.428 . S
C778 C781 1.260 . S
C778 C782 1.477 . S
C778 H796 0.932 . S
C779 C780 1.384 . S
C779 C781 1.479 . S
C779 H797 0.929 . S
C780 C777 1.424 . S
C780 C779 1.384 . S
C780 H798 0.928 . S
C781 C778 1.260 . S
C781 C779 1.479 . S
C782 C777 1.245 . S
C782 C778 1.477 . S
C782 H799 0.932 . S
C783 U766 2.882 . S
C783 C777 1.428 . S
C783 O786 1.301 . S
C783 O787 1.282 . S
O784 U766 2.441 . S
O784 C770 1.249 . S
O785 U766 2.420 . S
O785 C770 1.202 . S
O786 U766 2.455 . S
O786 C783 1.301 . S
O787 U766 2.449 . S
O787 C783 1.282 . S
H788 C761 0.931 . S
H789 C763 0.929 . S
H790 C764 0.930 . S
H791 C765 0.931 . S
H792 C772 0.932 . S
H793 C773 0.930 . S
H794 C774 0.929 . S
H795 C776 0.930 . S
H796 C778 0.932 . S
H797 C779 0.929 . S
H798 C780 0.928 . S
H799 C782 0.932 . S
C800 C801 1.264 . S
C800 C805 1.479 . S
C800 C810 1.465 . S
C801 C800 1.264 . S
C801 C803 1.339 . S
C801 H828 0.931 . S
C802 C803 1.395 . S
C802 C804 1.320 . S
C803 C801 1.339 . S
C803 C802 1.395 . S
C803 H829 0.929 . S
C804 C802 1.320 . S
C804 C805 1.405 . S
C804 H830 0.930 . S
C805 C800 1.479 . S
C805 C804 1.405 . S
C805 H831 0.931 . S
U806 O807 2.454 . S
U806 O808 2.458 . S
U806 C809 2.984 . S
U806 C810 2.847 . S
U806 C823 2.882 . S
U806 O824 2.441 . S
U806 O825 2.420 . S
U806 O826 2.455 . S
U806 O827 2.449 . S
O807 U806 2.454 . S
O807 C809 1.353 . S
O808 U806 2.458 . S
O808 C809 1.286 . S
C809 U806 2.984 . S
C809 O807 1.353 . S
C809 O808 1.286 . S
C809 C811 1.363 . S
C810 C800 1.465 . S
C810 U806 2.847 . S
C810 O824 1.249 . S
C810 O825 1.202 . S
C811 C809 1.363 . S
C811 C813 1.408 . S
C811 C816 1.342 . S
C812 C813 1.310 . S
C812 C815 1.461 . S
C812 H832 0.932 . S
C813 C811 1.408 . S
C813 C812 1.310 . S
C813 H833 0.930 . S
C814 C815 1.474 . S
C814 C816 1.285 . S
C814 H834 0.929 . S
C815 C812 1.461 . S
C815 C814 1.474 . S
C816 C811 1.342 . S
C816 C814 1.285 . S
C816 H835 0.930 . S
C817 C820 1.424 . S
C817 C822 1.245 . S
C817 C823 1.428 . S
C818 C821 1.260 . S
C818 C822 1.477 . S
C818 H836 0.932 . S
C819 C820 1.384 . S
C819 C821 1.479 . S
C819 H837 0.929 . S
C820 C817 1.424 . S
C820 C819 1.384 . S
C820 H838 0.928 . S
C821 C818 1.260 . S
C821 C819 1.479 . S
C822 C817 1.245 . S
C822 C818 1.477 . S
C822 H839 0.932 . S
C823 U806 2.882 . S
C823 C817 1.428 . S
C823 O826 1.301 . S
C823 O827 1.282 . S
O824 U806 2.441 . S
O824 C810 1.249 . S
O825 U806 2.420 . S
O825 C810 1.202 . S
O826 U806 2.455 . S
O826 C823 1.301 . S
O827 U806 2.449 . S
O827 C823 1.282 . S
H828 C801 0.931 . S
H829 C803 0.929 . S
H830 C804 0.930 . S
H831 C805 0.931 . S
H832 C812 0.932 . S
H833 C813 0.930 . S
H834 C814 0.929 . S
H835 C816 0.930 . S
H836 C818 0.932 . S
H837 C819 0.929 . S
H838 C820 0.928 . S
H839 C822 0.932 . S
C840 C841 1.264 . S
C840 C845 1.479 . S
C840 C850 1.465 . S
C841 C840 1.264 . S
C841 C843 1.339 . S
C841 H868 0.931 . S
C842 C843 1.395 . S
C842 C844 1.320 . S
C843 C841 1.339 . S
C843 C842 1.395 . S
C843 H869 0.929 . S
C844 C842 1.320 . S
C844 C845 1.405 . S
C844 H870 0.930 . S
C845 C840 1.479 . S
C845 C844 1.405 . S
C845 H871 0.931 . S
U846 O847 2.454 . S
U846 O848 2.458 . S
U846 C849 2.984 . S
U846 C850 2.847 . S
U846 C863 2.882 . S
U846 O864 2.441 . S
U846 O865 2.420 . S
U846 O866 2.455 . S
U846 O867 2.449 . S
O847 U846 2.454 . S
O847 C849 1.353 . S
O848 U846 2.458 . S
O848 C849 1.286 . S
C849 U846 2.984 . S
C849 O847 1.353 . S
C849 O848 1.286 . S
C849 C851 1.363 . S
C850 C840 1.465 . S
C850 U846 2.847 . S
C850 O864 1.249 . S
C850 O865 1.202 . S
C851 C849 1.363 . S
C851 C853 1.408 . S
C851 C856 1.342 . S
C852 C853 1.310 . S
C852 C855 1.461 . S
C852 H872 0.932 . S
C853 C851 1.408 . S
C853 C852 1.310 . S
C853 H873 0.930 . S
C854 C855 1.474 . S
C854 C856 1.285 . S
C854 H874 0.929 . S
C855 C852 1.461 . S
C855 C854 1.474 . S
C856 C851 1.342 . S
C856 C854 1.285 . S
C856 H875 0.930 . S
C857 C860 1.424 . S
C857 C862 1.245 . S
C857 C863 1.428 . S
C858 C861 1.260 . S
C858 C862 1.477 . S
C858 H876 0.932 . S
C859 C860 1.384 . S
C859 C861 1.479 . S
C859 H877 0.929 . S
C860 C857 1.424 . S
C860 C859 1.384 . S
C860 H878 0.928 . S
C861 C858 1.260 . S
C861 C859 1.479 . S
C862 C857 1.245 . S
C862 C858 1.477 . S
C862 H879 0.932 . S
C863 U846 2.882 . S
C863 C857 1.428 . S
C863 O866 1.301 . S
C863 O867 1.282 . S
O864 U846 2.441 . S
O864 C850 1.249 . S
O865 U846 2.420 . S
O865 C850 1.202 . S
O866 U846 2.455 . S
O866 C863 1.301 . S
O867 U846 2.449 . S
O867 C863 1.282 . S
H868 C841 0.931 . S
H869 C843 0.929 . S
H870 C844 0.930 . S
H871 C845 0.931 . S
H872 C852 0.932 . S
H873 C853 0.930 . S
H874 C854 0.929 . S
H875 C856 0.930 . S
H876 C858 0.932 . S
H877 C859 0.929 . S
H878 C860 0.928 . S
H879 C862 0.932 . S
C880 C881 1.264 . S
C880 C885 1.479 . S
C880 C890 1.465 . S
C881 C880 1.264 . S
C881 C883 1.339 . S
C881 H908 0.931 . S
C882 C883 1.395 . S
C882 C884 1.320 . S
C883 C881 1.339 . S
C883 C882 1.395 . S
C883 H909 0.929 . S
C884 C882 1.320 . S
C884 C885 1.405 . S
C884 H910 0.930 . S
C885 C880 1.479 . S
C885 C884 1.405 . S
C885 H911 0.931 . S
U886 O887 2.454 . S
U886 O888 2.458 . S
U886 C889 2.984 . S
U886 C890 2.847 . S
U886 C903 2.882 . S
U886 O904 2.441 . S
U886 O905 2.420 . S
U886 O906 2.455 . S
U886 O907 2.449 . S
O887 U886 2.454 . S
O887 C889 1.353 . S
O888 U886 2.458 . S
O888 C889 1.286 . S
C889 U886 2.984 . S
C889 O887 1.353 . S
C889 O888 1.286 . S
C889 C891 1.363 . S
C890 C880 1.465 . S
C890 U886 2.847 . S
C890 O904 1.249 . S
C890 O905 1.202 . S
C891 C889 1.363 . S
C891 C893 1.408 . S
C891 C896 1.342 . S
C892 C893 1.310 . S
C892 C895 1.461 . S
C892 H912 0.932 . S
C893 C891 1.408 . S
C893 C892 1.310 . S
C893 H913 0.930 . S
C894 C895 1.474 . S
C894 C896 1.285 . S
C894 H914 0.929 . S
C895 C892 1.461 . S
C895 C894 1.474 . S
C896 C891 1.342 . S
C896 C894 1.285 . S
C896 H915 0.930 . S
C897 C900 1.424 . S
C897 C902 1.245 . S
C897 C903 1.428 . S
C898 C901 1.260 . S
C898 C902 1.477 . S
C898 H916 0.932 . S
C899 C900 1.384 . S
C899 C901 1.479 . S
C899 H917 0.929 . S
C900 C897 1.424 . S
C900 C899 1.384 . S
C900 H918 0.928 . S
C901 C898 1.260 . S
C901 C899 1.479 . S
C902 C897 1.245 . S
C902 C898 1.477 . S
C902 H919 0.932 . S
C903 U886 2.882 . S
C903 C897 1.428 . S
C903 O906 1.301 . S
C903 O907 1.282 . S
O904 U886 2.441 . S
O904 C890 1.249 . S
O905 U886 2.420 . S
O905 C890 1.202 . S
O906 U886 2.455 . S
O906 C903 1.301 . S
O907 U886 2.449 . S
O907 C903 1.282 . S
H908 C881 0.931 . S
H909 C883 0.929 . S
H910 C884 0.930 . S
H911 C885 0.931 . S
H912 C892 0.932 . S
H913 C893 0.930 . S
H914 C894 0.929 . S
H915 C896 0.930 . S
H916 C898 0.932 . S
H917 C899 0.929 . S
H918 C900 0.928 . S
H919 C902 0.932 . S
C920 C921 1.264 . S
C920 C925 1.479 . S
C920 C930 1.465 . S
C921 C920 1.264 . S
C921 C923 1.339 . S
C921 H948 0.931 . S
C922 C923 1.395 . S
C922 C924 1.320 . S
C923 C921 1.339 . S
C923 C922 1.395 . S
C923 H949 0.929 . S
C924 C922 1.320 . S
C924 C925 1.405 . S
C924 H950 0.930 . S
C925 C920 1.479 . S
C925 C924 1.405 . S
C925 H951 0.931 . S
U926 O927 2.454 . S
U926 O928 2.458 . S
U926 C929 2.984 . S
U926 C930 2.847 . S
U926 C943 2.882 . S
U926 O944 2.441 . S
U926 O945 2.420 . S
U926 O946 2.455 . S
U926 O947 2.449 . S
O927 U926 2.454 . S
O927 C929 1.353 . S
O928 U926 2.458 . S
O928 C929 1.286 . S
C929 U926 2.984 . S
C929 O927 1.353 . S
C929 O928 1.286 . S
C929 C931 1.363 . S
C930 C920 1.465 . S
C930 U926 2.847 . S
C930 O944 1.249 . S
C930 O945 1.202 . S
C931 C929 1.363 . S
C931 C933 1.408 . S
C931 C936 1.342 . S
C932 C933 1.310 . S
C932 C935 1.461 . S
C932 H952 0.932 . S
C933 C931 1.408 . S
C933 C932 1.310 . S
C933 H953 0.930 . S
C934 C935 1.474 . S
C934 C936 1.285 . S
C934 H954 0.929 . S
C935 C932 1.461 . S
C935 C934 1.474 . S
C936 C931 1.342 . S
C936 C934 1.285 . S
C936 H955 0.930 . S
C937 C940 1.424 . S
C937 C942 1.245 . S
C937 C943 1.428 . S
C938 C941 1.260 . S
C938 C942 1.477 . S
C938 H956 0.932 . S
C939 C940 1.384 . S
C939 C941 1.479 . S
C939 H957 0.929 . S
C940 C937 1.424 . S
C940 C939 1.384 . S
C940 H958 0.928 . S
C941 C938 1.260 . S
C941 C939 1.479 . S
C942 C937 1.245 . S
C942 C938 1.477 . S
C942 H959 0.932 . S
C943 U926 2.882 . S
C943 C937 1.428 . S
C943 O946 1.301 . S
C943 O947 1.282 . S
O944 U926 2.441 . S
O944 C930 1.249 . S
O945 U926 2.420 . S
O945 C930 1.202 . S
O946 U926 2.455 . S
O946 C943 1.301 . S
O947 U926 2.449 . S
O947 C943 1.282 . S
H948 C921 0.931 . S
H949 C923 0.929 . S
H950 C924 0.930 . S
H951 C925 0.931 . S
H952 C932 0.932 . S
H953 C933 0.930 . S
H954 C934 0.929 . S
H955 C936 0.930 . S
H956 C938 0.932 . S
H957 C939 0.929 . S
H958 C940 0.928 . S
H959 C942 0.932 . S
C960 C961 1.264 . S
C960 C965 1.479 . S
C960 C970 1.465 . S
C961 C960 1.264 . S
C961 C963 1.339 . S
C961 H988 0.931 . S
C962 C963 1.395 . S
C962 C964 1.320 . S
C963 C961 1.339 . S
C963 C962 1.395 . S
C963 H989 0.929 . S
C964 C962 1.320 . S
C964 C965 1.405 . S
C964 H990 0.930 . S
C965 C960 1.479 . S
C965 C964 1.405 . S
C965 H991 0.931 . S
U966 O967 2.454 . S
U966 O968 2.458 . S
U966 C969 2.984 . S
U966 C970 2.847 . S
U966 C983 2.882 . S
U966 O984 2.441 . S
U966 O985 2.420 . S
U966 O986 2.455 . S
U966 O987 2.449 . S
O967 U966 2.454 . S
O967 C969 1.353 . S
O968 U966 2.458 . S
O968 C969 1.286 . S
C969 U966 2.984 . S
C969 O967 1.353 . S
C969 O968 1.286 . S
C969 C971 1.363 . S
C970 C960 1.465 . S
C970 U966 2.847 . S
C970 O984 1.249 . S
C970 O985 1.202 . S
C971 C969 1.363 . S
C971 C973 1.408 . S
C971 C976 1.342 . S
C972 C973 1.310 . S
C972 C975 1.461 . S
C972 H992 0.932 . S
C973 C971 1.408 . S
C973 C972 1.310 . S
C973 H993 0.930 . S
C974 C975 1.474 . S
C974 C976 1.285 . S
C974 H994 0.929 . S
C975 C972 1.461 . S
C975 C974 1.474 . S
C976 C971 1.342 . S
C976 C974 1.285 . S
C976 H995 0.930 . S
C977 C980 1.424 . S
C977 C982 1.245 . S
C977 C983 1.428 . S
C978 C981 1.260 . S
C978 C982 1.477 . S
C978 H996 0.932 . S
C979 C980 1.384 . S
C979 C981 1.479 . S
C979 H997 0.929 . S
C980 C977 1.424 . S
C980 C979 1.384 . S
C980 H998 0.928 . S
C981 C978 1.260 . S
C981 C979 1.479 . S
C982 C977 1.245 . S
C982 C978 1.477 . S
C982 H999 0.932 . S
C983 U966 2.882 . S
C983 C977 1.428 . S
C983 O986 1.301 . S
C983 O987 1.282 . S
O984 U966 2.441 . S
O984 C970 1.249 . S
O985 U966 2.420 . S
O985 C970 1.202 . S
O986 U966 2.455 . S
O986 C983 1.301 . S
O987 U966 2.449 . S
O987 C983 1.282 . S
H988 C961 0.931 . S
H989 C963 0.929 . S
H990 C964 0.930 . S
H991 C965 0.931 . S
H992 C972 0.932 . S
H993 C973 0.930 . S
H994 C974 0.929 . S
H995 C976 0.930 . S
H996 C978 0.932 . S
H997 C979 0.929 . S
H998 C980 0.928 . S
H999 C982 0.932 . S
C1000 C1001 1.264 . S
C1000 C1005 1.479 . S
C1000 C1010 1.465 . S
C1001 C1000 1.264 . S
C1001 C1003 1.339 . S
C1001 H1028 0.931 . S
C1002 C1003 1.395 . S
C1002 C1004 1.320 . S
C1003 C1001 1.339 . S
C1003 C1002 1.395 . S
C1003 H1029 0.929 . S
C1004 C1002 1.320 . S
C1004 C1005 1.405 . S
C1004 H1030 0.930 . S
C1005 C1000 1.479 . S
C1005 C1004 1.405 . S
C1005 H1031 0.931 . S
U1006 O1007 2.454 . S
U1006 O1008 2.458 . S
U1006 C1009 2.984 . S
U1006 C1010 2.847 . S
U1006 C1023 2.882 . S
U1006 O1024 2.441 . S
U1006 O1025 2.420 . S
U1006 O1026 2.455 . S
U1006 O1027 2.449 . S
O1007 U1006 2.454 . S
O1007 C1009 1.353 . S
O1008 U1006 2.458 . S
O1008 C1009 1.286 . S
C1009 U1006 2.984 . S
C1009 O1007 1.353 . S
C1009 O1008 1.286 . S
C1009 C1011 1.363 . S
C1010 C1000 1.465 . S
C1010 U1006 2.847 . S
C1010 O1024 1.249 . S
C1010 O1025 1.202 . S
C1011 C1009 1.363 . S
C1011 C1013 1.408 . S
C1011 C1016 1.342 . S
C1012 C1013 1.310 . S
C1012 C1015 1.461 . S
C1012 H1032 0.932 . S
C1013 C1011 1.408 . S
C1013 C1012 1.310 . S
C1013 H1033 0.930 . S
C1014 C1015 1.474 . S
C1014 C1016 1.285 . S
C1014 H1034 0.929 . S
C1015 C1012 1.461 . S
C1015 C1014 1.474 . S
C1016 C1011 1.342 . S
C1016 C1014 1.285 . S
C1016 H1035 0.930 . S
C1017 C1020 1.424 . S
C1017 C1022 1.245 . S
C1017 C1023 1.428 . S
C1018 C1021 1.260 . S
C1018 C1022 1.477 . S
C1018 H1036 0.932 . S
C1019 C1020 1.384 . S
C1019 C1021 1.479 . S
C1019 H1037 0.929 . S
C1020 C1017 1.424 . S
C1020 C1019 1.384 . S
C1020 H1038 0.928 . S
C1021 C1018 1.260 . S
C1021 C1019 1.479 . S
C1022 C1017 1.245 . S
C1022 C1018 1.477 . S
C1022 H1039 0.932 . S
C1023 U1006 2.882 . S
C1023 C1017 1.428 . S
C1023 O1026 1.301 . S
C1023 O1027 1.282 . S
O1024 U1006 2.441 . S
O1024 C1010 1.249 . S
O1025 U1006 2.420 . S
O1025 C1010 1.202 . S
O1026 U1006 2.455 . S
O1026 C1023 1.301 . S
O1027 U1006 2.449 . S
O1027 C1023 1.282 . S
H1028 C1001 0.931 . S
H1029 C1003 0.929 . S
H1030 C1004 0.930 . S
H1031 C1005 0.931 . S
H1032 C1012 0.932 . S
H1033 C1013 0.930 . S
H1034 C1014 0.929 . S
H1035 C1016 0.930 . S
H1036 C1018 0.932 . S
H1037 C1019 0.929 . S
H1038 C1020 0.928 . S
H1039 C1022 0.932 . S
C1040 C1041 1.264 . S
C1040 C1045 1.479 . S
C1040 C1050 1.465 . S
C1041 C1040 1.264 . S
C1041 C1043 1.339 . S
C1041 H1068 0.931 . S
C1042 C1043 1.395 . S
C1042 C1044 1.320 . S
C1043 C1041 1.339 . S
C1043 C1042 1.395 . S
C1043 H1069 0.929 . S
C1044 C1042 1.320 . S
C1044 C1045 1.405 . S
C1044 H1070 0.930 . S
C1045 C1040 1.479 . S
C1045 C1044 1.405 . S
C1045 H1071 0.931 . S
U1046 O1047 2.454 . S
U1046 O1048 2.458 . S
U1046 C1049 2.984 . S
U1046 C1050 2.847 . S
U1046 C1063 2.882 . S
U1046 O1064 2.441 . S
U1046 O1065 2.420 . S
U1046 O1066 2.455 . S
U1046 O1067 2.449 . S
O1047 U1046 2.454 . S
O1047 C1049 1.353 . S
O1048 U1046 2.458 . S
O1048 C1049 1.286 . S
C1049 U1046 2.984 . S
C1049 O1047 1.353 . S
C1049 O1048 1.286 . S
C1049 C1051 1.363 . S
C1050 C1040 1.465 . S
C1050 U1046 2.847 . S
C1050 O1064 1.249 . S
C1050 O1065 1.202 . S
C1051 C1049 1.363 . S
C1051 C1053 1.408 . S
C1051 C1056 1.342 . S
C1052 C1053 1.310 . S
C1052 C1055 1.461 . S
C1052 H1072 0.932 . S
C1053 C1051 1.408 . S
C1053 C1052 1.310 . S
C1053 H1073 0.930 . S
C1054 C1055 1.474 . S
C1054 C1056 1.285 . S
C1054 H1074 0.929 . S
C1055 C1052 1.461 . S
C1055 C1054 1.474 . S
C1056 C1051 1.342 . S
C1056 C1054 1.285 . S
C1056 H1075 0.930 . S
C1057 C1060 1.424 . S
C1057 C1062 1.245 . S
C1057 C1063 1.428 . S
C1058 C1061 1.260 . S
C1058 C1062 1.477 . S
C1058 H1076 0.932 . S
C1059 C1060 1.384 . S
C1059 C1061 1.479 . S
C1059 H1077 0.929 . S
C1060 C1057 1.424 . S
C1060 C1059 1.384 . S
C1060 H1078 0.928 . S
C1061 C1058 1.260 . S
C1061 C1059 1.479 . S
C1062 C1057 1.245 . S
C1062 C1058 1.477 . S
C1062 H1079 0.932 . S
C1063 U1046 2.882 . S
C1063 C1057 1.428 . S
C1063 O1066 1.301 . S
C1063 O1067 1.282 . S
O1064 U1046 2.441 . S
O1064 C1050 1.249 . S
O1065 U1046 2.420 . S
O1065 C1050 1.202 . S
O1066 U1046 2.455 . S
O1066 C1063 1.301 . S
O1067 U1046 2.449 . S
O1067 C1063 1.282 . S
H1068 C1041 0.931 . S
H1069 C1043 0.929 . S
H1070 C1044 0.930 . S
H1071 C1045 0.931 . S
H1072 C1052 0.932 . S
H1073 C1053 0.930 . S
H1074 C1054 0.929 . S
H1075 C1056 0.930 . S
H1076 C1058 0.932 . S
H1077 C1059 0.929 . S
H1078 C1060 0.928 . S
H1079 C1062 0.932 . S
C1080 C1081 1.264 . S
C1080 C1085 1.479 . S
C1080 C1090 1.465 . S
C1081 C1080 1.264 . S
C1081 C1083 1.339 . S
C1081 H1108 0.931 . S
C1082 C1083 1.395 . S
C1082 C1084 1.320 . S
C1083 C1081 1.339 . S
C1083 C1082 1.395 . S
C1083 H1109 0.929 . S
C1084 C1082 1.320 . S
C1084 C1085 1.405 . S
C1084 H1110 0.930 . S
C1085 C1080 1.479 . S
C1085 C1084 1.405 . S
C1085 H1111 0.931 . S
U1086 O1087 2.454 . S
U1086 O1088 2.458 . S
U1086 C1089 2.984 . S
U1086 C1090 2.847 . S
U1086 C1103 2.882 . S
U1086 O1104 2.441 . S
U1086 O1105 2.420 . S
U1086 O1106 2.455 . S
U1086 O1107 2.449 . S
O1087 U1086 2.454 . S
O1087 C1089 1.353 . S
O1088 U1086 2.458 . S
O1088 C1089 1.286 . S
C1089 U1086 2.984 . S
C1089 O1087 1.353 . S
C1089 O1088 1.286 . S
C1089 C1091 1.363 . S
C1090 C1080 1.465 . S
C1090 U1086 2.847 . S
C1090 O1104 1.249 . S
C1090 O1105 1.202 . S
C1091 C1089 1.363 . S
C1091 C1093 1.408 . S
C1091 C1096 1.342 . S
C1092 C1093 1.310 . S
C1092 C1095 1.461 . S
C1092 H1112 0.932 . S
C1093 C1091 1.408 . S
C1093 C1092 1.310 . S
C1093 H1113 0.930 . S
C1094 C1095 1.474 . S
C1094 C1096 1.285 . S
C1094 H1114 0.929 . S
C1095 C1092 1.461 . S
C1095 C1094 1.474 . S
C1096 C1091 1.342 . S
C1096 C1094 1.285 . S
C1096 H1115 0.930 . S
C1097 C1100 1.424 . S
C1097 C1102 1.245 . S
C1097 C1103 1.428 . S
C1098 C1101 1.260 . S
C1098 C1102 1.477 . S
C1098 H1116 0.932 . S
C1099 C1100 1.384 . S
C1099 C1101 1.479 . S
C1099 H1117 0.929 . S
C1100 C1097 1.424 . S
C1100 C1099 1.384 . S
C1100 H1118 0.928 . S
C1101 C1098 1.260 . S
C1101 C1099 1.479 . S
C1102 C1097 1.245 . S
C1102 C1098 1.477 . S
C1102 H1119 0.932 . S
C1103 U1086 2.882 . S
C1103 C1097 1.428 . S
C1103 O1106 1.301 . S
C1103 O1107 1.282 . S
O1104 U1086 2.441 . S
O1104 C1090 1.249 . S
O1105 U1086 2.420 . S
O1105 C1090 1.202 . S
O1106 U1086 2.455 . S
O1106 C1103 1.301 . S
O1107 U1086 2.449 . S
O1107 C1103 1.282 . S
H1108 C1081 0.931 . S
H1109 C1083 0.929 . S
H1110 C1084 0.930 . S
H1111 C1085 0.931 . S
H1112 C1092 0.932 . S
H1113 C1093 0.930 . S
H1114 C1094 0.929 . S
H1115 C1096 0.930 . S
H1116 C1098 0.932 . S
H1117 C1099 0.929 . S
H1118 C1100 0.928 . S
H1119 C1102 0.932 . S
C1120 C1121 1.264 . S
C1120 C1125 1.479 . S
C1120 C1130 1.465 . S
C1121 C1120 1.264 . S
C1121 C1123 1.339 . S
C1121 H1148 0.931 . S
C1122 C1123 1.395 . S
C1122 C1124 1.320 . S
C1123 C1121 1.339 . S
C1123 C1122 1.395 . S
C1123 H1149 0.929 . S
C1124 C1122 1.320 . S
C1124 C1125 1.405 . S
C1124 H1150 0.930 . S
C1125 C1120 1.479 . S
C1125 C1124 1.405 . S
C1125 H1151 0.931 . S
U1126 O1127 2.454 . S
U1126 O1128 2.458 . S
U1126 C1129 2.984 . S
U1126 C1130 2.847 . S
U1126 C1143 2.882 . S
U1126 O1144 2.441 . S
U1126 O1145 2.420 . S
U1126 O1146 2.455 . S
U1126 O1147 2.449 . S
O1127 U1126 2.454 . S
O1127 C1129 1.353 . S
O1128 U1126 2.458 . S
O1128 C1129 1.286 . S
C1129 U1126 2.984 . S
C1129 O1127 1.353 . S
C1129 O1128 1.286 . S
C1129 C1131 1.363 . S
C1130 C1120 1.465 . S
C1130 U1126 2.847 . S
C1130 O1144 1.249 . S
C1130 O1145 1.202 . S
C1131 C1129 1.363 . S
C1131 C1133 1.408 . S
C1131 C1136 1.342 . S
C1132 C1133 1.310 . S
C1132 C1135 1.461 . S
C1132 H1152 0.932 . S
C1133 C1131 1.408 . S
C1133 C1132 1.310 . S
C1133 H1153 0.930 . S
C1134 C1135 1.474 . S
C1134 C1136 1.285 . S
C1134 H1154 0.929 . S
C1135 C1132 1.461 . S
C1135 C1134 1.474 . S
C1136 C1131 1.342 . S
C1136 C1134 1.285 . S
C1136 H1155 0.930 . S
C1137 C1140 1.424 . S
C1137 C1142 1.245 . S
C1137 C1143 1.428 . S
C1138 C1141 1.260 . S
C1138 C1142 1.477 . S
C1138 H1156 0.932 . S
C1139 C1140 1.384 . S
C1139 C1141 1.479 . S
C1139 H1157 0.929 . S
C1140 C1137 1.424 . S
C1140 C1139 1.384 . S
C1140 H1158 0.928 . S
C1141 C1138 1.260 . S
C1141 C1139 1.479 . S
C1142 C1137 1.245 . S
C1142 C1138 1.477 . S
C1142 H1159 0.932 . S
C1143 U1126 2.882 . S
C1143 C1137 1.428 . S
C1143 O1146 1.301 . S
C1143 O1147 1.282 . S
O1144 U1126 2.441 . S
O1144 C1130 1.249 . S
O1145 U1126 2.420 . S
O1145 C1130 1.202 . S
O1146 U1126 2.455 . S
O1146 C1143 1.301 . S
O1147 U1126 2.449 . S
O1147 C1143 1.282 . S
H1148 C1121 0.931 . S
H1149 C1123 0.929 . S
H1150 C1124 0.930 . S
H1151 C1125 0.931 . S
H1152 C1132 0.932 . S
H1153 C1133 0.930 . S
H1154 C1134 0.929 . S
H1155 C1136 0.930 . S
H1156 C1138 0.932 . S
H1157 C1139 0.929 . S
H1158 C1140 0.928 . S
H1159 C1142 0.932 . S
C1160 C1161 1.264 . S
C1160 C1165 1.479 . S
C1160 C1170 1.465 . S
C1161 C1160 1.264 . S
C1161 C1163 1.339 . S
C1161 H1188 0.931 . S
C1162 C1163 1.395 . S
C1162 C1164 1.320 . S
C1163 C1161 1.339 . S
C1163 C1162 1.395 . S
C1163 H1189 0.929 . S
C1164 C1162 1.320 . S
C1164 C1165 1.405 . S
C1164 H1190 0.930 . S
C1165 C1160 1.479 . S
C1165 C1164 1.405 . S
C1165 H1191 0.931 . S
U1166 O1167 2.454 . S
U1166 O1168 2.458 . S
U1166 C1169 2.984 . S
U1166 C1170 2.847 . S
U1166 C1183 2.882 . S
U1166 O1184 2.441 . S
U1166 O1185 2.420 . S
U1166 O1186 2.455 . S
U1166 O1187 2.449 . S
O1167 U1166 2.454 . S
O1167 C1169 1.353 . S
O1168 U1166 2.458 . S
O1168 C1169 1.286 . S
C1169 U1166 2.984 . S
C1169 O1167 1.353 . S
C1169 O1168 1.286 . S
C1169 C1171 1.363 . S
C1170 C1160 1.465 . S
C1170 U1166 2.847 . S
C1170 O1184 1.249 . S
C1170 O1185 1.202 . S
C1171 C1169 1.363 . S
C1171 C1173 1.408 . S
C1171 C1176 1.342 . S
C1172 C1173 1.310 . S
C1172 C1175 1.461 . S
C1172 H1192 0.932 . S
C1173 C1171 1.408 . S
C1173 C1172 1.310 . S
C1173 H1193 0.930 . S
C1174 C1175 1.474 . S
C1174 C1176 1.285 . S
C1174 H1194 0.929 . S
C1175 C1172 1.461 . S
C1175 C1174 1.474 . S
C1176 C1171 1.342 . S
C1176 C1174 1.285 . S
C1176 H1195 0.930 . S
C1177 C1180 1.424 . S
C1177 C1182 1.245 . S
C1177 C1183 1.428 . S
C1178 C1181 1.260 . S
C1178 C1182 1.477 . S
C1178 H1196 0.932 . S
C1179 C1180 1.384 . S
C1179 C1181 1.479 . S
C1179 H1197 0.929 . S
C1180 C1177 1.424 . S
C1180 C1179 1.384 . S
C1180 H1198 0.928 . S
C1181 C1178 1.260 . S
C1181 C1179 1.479 . S
C1182 C1177 1.245 . S
C1182 C1178 1.477 . S
C1182 H1199 0.932 . S
C1183 U1166 2.882 . S
C1183 C1177 1.428 . S
C1183 O1186 1.301 . S
C1183 O1187 1.282 . S
O1184 U1166 2.441 . S
O1184 C1170 1.249 . S
O1185 U1166 2.420 . S
O1185 C1170 1.202 . S
O1186 U1166 2.455 . S
O1186 C1183 1.301 . S
O1187 U1166 2.449 . S
O1187 C1183 1.282 . S
H1188 C1161 0.931 . S
H1189 C1163 0.929 . S
H1190 C1164 0.930 . S
H1191 C1165 0.931 . S
H1192 C1172 0.932 . S
H1193 C1173 0.930 . S
H1194 C1174 0.929 . S
H1195 C1176 0.930 . S
H1196 C1178 0.932 . S
H1197 C1179 0.929 . S
H1198 C1180 0.928 . S
H1199 C1182 0.932 . S
C1200 C1201 1.264 . S
C1200 C1205 1.479 . S
C1200 C1210 1.465 . S
C1201 C1200 1.264 . S
C1201 C1203 1.339 . S
C1201 H1228 0.931 . S
C1202 C1203 1.395 . S
C1202 C1204 1.320 . S
C1203 C1201 1.339 . S
C1203 C1202 1.395 . S
C1203 H1229 0.929 . S
C1204 C1202 1.320 . S
C1204 C1205 1.405 . S
C1204 H1230 0.930 . S
C1205 C1200 1.479 . S
C1205 C1204 1.405 . S
C1205 H1231 0.931 . S
U1206 O1207 2.454 . S
U1206 O1208 2.458 . S
U1206 C1209 2.984 . S
U1206 C1210 2.847 . S
U1206 C1223 2.882 . S
U1206 O1224 2.441 . S
U1206 O1225 2.420 . S
U1206 O1226 2.455 . S
U1206 O1227 2.449 . S
O1207 U1206 2.454 . S
O1207 C1209 1.353 . S
O1208 U1206 2.458 . S
O1208 C1209 1.286 . S
C1209 U1206 2.984 . S
C1209 O1207 1.353 . S
C1209 O1208 1.286 . S
C1209 C1211 1.363 . S
C1210 C1200 1.465 . S
C1210 U1206 2.847 . S
C1210 O1224 1.249 . S
C1210 O1225 1.202 . S
C1211 C1209 1.363 . S
C1211 C1213 1.408 . S
C1211 C1216 1.342 . S
C1212 C1213 1.310 . S
C1212 C1215 1.461 . S
C1212 H1232 0.932 . S
C1213 C1211 1.408 . S
C1213 C1212 1.310 . S
C1213 H1233 0.930 . S
C1214 C1215 1.474 . S
C1214 C1216 1.285 . S
C1214 H1234 0.929 . S
C1215 C1212 1.461 . S
C1215 C1214 1.474 . S
C1216 C1211 1.342 . S
C1216 C1214 1.285 . S
C1216 H1235 0.930 . S
C1217 C1220 1.424 . S
C1217 C1222 1.245 . S
C1217 C1223 1.428 . S
C1218 C1221 1.260 . S
C1218 C1222 1.477 . S
C1218 H1236 0.932 . S
C1219 C1220 1.384 . S
C1219 C1221 1.479 . S
C1219 H1237 0.929 . S
C1220 C1217 1.424 . S
C1220 C1219 1.384 . S
C1220 H1238 0.928 . S
C1221 C1218 1.260 . S
C1221 C1219 1.479 . S
C1222 C1217 1.245 . S
C1222 C1218 1.477 . S
C1222 H1239 0.932 . S
C1223 U1206 2.882 . S
C1223 C1217 1.428 . S
C1223 O1226 1.301 . S
C1223 O1227 1.282 . S
O1224 U1206 2.441 . S
O1224 C1210 1.249 . S
O1225 U1206 2.420 . S
O1225 C1210 1.202 . S
O1226 U1206 2.455 . S
O1226 C1223 1.301 . S
O1227 U1206 2.449 . S
O1227 C1223 1.282 . S
H1228 C1201 0.931 . S
H1229 C1203 0.929 . S
H1230 C1204 0.930 . S
H1231 C1205 0.931 . S
H1232 C1212 0.932 . S
H1233 C1213 0.930 . S
H1234 C1214 0.929 . S
H1235 C1216 0.930 . S
H1236 C1218 0.932 . S
H1237 C1219 0.929 . S
H1238 C1220 0.928 . S
H1239 C1222 0.932 . S
C1240 C1241 1.264 . S
C1240 C1245 1.479 . S
C1240 C1250 1.465 . S
C1241 C1240 1.264 . S
C1241 C1243 1.339 . S
C1241 H1268 0.931 . S
C1242 C1243 1.395 . S
C1242 C1244 1.320 . S
C1243 C1241 1.339 . S
C1243 C1242 1.395 . S
C1243 H1269 0.929 . S
C1244 C1242 1.320 . S
C1244 C1245 1.405 . S
C1244 H1270 0.930 . S
C1245 C1240 1.479 . S
C1245 C1244 1.405 . S
C1245 H1271 0.931 . S
U1246 O1247 2.454 . S
U1246 O1248 2.458 . S
U1246 C1249 2.984 . S
U1246 C1250 2.847 . S
U1246 C1263 2.882 . S
U1246 O1264 2.441 . S
U1246 O1265 2.420 . S
U1246 O1266 2.455 . S
U1246 O1267 2.449 . S
O1247 U1246 2.454 . S
O1247 C1249 1.353 . S
O1248 U1246 2.458 . S
O1248 C1249 1.286 . S
C1249 U1246 2.984 . S
C1249 O1247 1.353 . S
C1249 O1248 1.286 . S
C1249 C1251 1.363 . S
C1250 C1240 1.465 . S
C1250 U1246 2.847 . S
C1250 O1264 1.249 . S
C1250 O1265 1.202 . S
C1251 C1249 1.363 . S
C1251 C1253 1.408 . S
C1251 C1256 1.342 . S
C1252 C1253 1.310 . S
C1252 C1255 1.461 . S
C1252 H1272 0.932 . S
C1253 C1251 1.408 . S
C1253 C1252 1.310 . S
C1253 H1273 0.930 . S
C1254 C1255 1.474 . S
C1254 C1256 1.285 . S
C1254 H1274 0.929 . S
C1255 C1252 1.461 . S
C1255 C1254 1.474 . S
C1256 C1251 1.342 . S
C1256 C1254 1.285 . S
C1256 H1275 0.930 . S
C1257 C1260 1.424 . S
C1257 C1262 1.245 . S
C1257 C1263 1.428 . S
C1258 C1261 1.260 . S
C1258 C1262 1.477 . S
C1258 H1276 0.932 . S
C1259 C1260 1.384 . S
C1259 C1261 1.479 . S
C1259 H1277 0.929 . S
C1260 C1257 1.424 . S
C1260 C1259 1.384 . S
C1260 H1278 0.928 . S
C1261 C1258 1.260 . S
C1261 C1259 1.479 . S
C1262 C1257 1.245 . S
C1262 C1258 1.477 . S
C1262 H1279 0.932 . S
C1263 U1246 2.882 . S
C1263 C1257 1.428 . S
C1263 O1266 1.301 . S
C1263 O1267 1.282 . S
O1264 U1246 2.441 . S
O1264 C1250 1.249 . S
O1265 U1246 2.420 . S
O1265 C1250 1.202 . S
O1266 U1246 2.455 . S
O1266 C1263 1.301 . S
O1267 U1246 2.449 . S
O1267 C1263 1.282 . S
H1268 C1241 0.931 . S
H1269 C1243 0.929 . S
H1270 C1244 0.930 . S
H1271 C1245 0.931 . S
H1272 C1252 0.932 . S
H1273 C1253 0.930 . S
H1274 C1254 0.929 . S
H1275 C1256 0.930 . S
H1276 C1258 0.932 . S
H1277 C1259 0.929 . S
H1278 C1260 0.928 . S
H1279 C1262 0.932 . S
C1280 C1281 1.264 . S
C1280 C1285 1.479 . S
C1280 C1290 1.465 . S
C1281 C1280 1.264 . S
C1281 C1283 1.339 . S
C1281 H1308 0.931 . S
C1282 C1283 1.395 . S
C1282 C1284 1.320 . S
C1283 C1281 1.339 . S
C1283 C1282 1.395 . S
C1283 H1309 0.929 . S
C1284 C1282 1.320 . S
C1284 C1285 1.405 . S
C1284 H1310 0.930 . S
C1285 C1280 1.479 . S
C1285 C1284 1.405 . S
C1285 H1311 0.931 . S
U1286 O1287 2.454 . S
U1286 O1288 2.458 . S
U1286 C1289 2.984 . S
U1286 C1290 2.847 . S
U1286 C1303 2.882 . S
U1286 O1304 2.441 . S
U1286 O1305 2.420 . S
U1286 O1306 2.455 . S
U1286 O1307 2.449 . S
O1287 U1286 2.454 . S
O1287 C1289 1.353 . S
O1288 U1286 2.458 . S
O1288 C1289 1.286 . S
C1289 U1286 2.984 . S
C1289 O1287 1.353 . S
C1289 O1288 1.286 . S
C1289 C1291 1.363 . S
C1290 C1280 1.465 . S
C1290 U1286 2.847 . S
C1290 O1304 1.249 . S
C1290 O1305 1.202 . S
C1291 C1289 1.363 . S
C1291 C1293 1.408 . S
C1291 C1296 1.342 . S
C1292 C1293 1.310 . S
C1292 C1295 1.461 . S
C1292 H1312 0.932 . S
C1293 C1291 1.408 . S
C1293 C1292 1.310 . S
C1293 H1313 0.930 . S
C1294 C1295 1.474 . S
C1294 C1296 1.285 . S
C1294 H1314 0.929 . S
C1295 C1292 1.461 . S
C1295 C1294 1.474 . S
C1296 C1291 1.342 . S
C1296 C1294 1.285 . S
C1296 H1315 0.930 . S
C1297 C1300 1.424 . S
C1297 C1302 1.245 . S
C1297 C1303 1.428 . S
C1298 C1301 1.260 . S
C1298 C1302 1.477 . S
C1298 H1316 0.932 . S
C1299 C1300 1.384 . S
C1299 C1301 1.479 . S
C1299 H1317 0.929 . S
C1300 C1297 1.424 . S
C1300 C1299 1.384 . S
C1300 H1318 0.928 . S
C1301 C1298 1.260 . S
C1301 C1299 1.479 . S
C1302 C1297 1.245 . S
C1302 C1298 1.477 . S
C1302 H1319 0.932 . S
C1303 U1286 2.882 . S
C1303 C1297 1.428 . S
C1303 O1306 1.301 . S
C1303 O1307 1.282 . S
O1304 U1286 2.441 . S
O1304 C1290 1.249 . S
O1305 U1286 2.420 . S
O1305 C1290 1.202 . S
O1306 U1286 2.455 . S
O1306 C1303 1.301 . S
O1307 U1286 2.449 . S
O1307 C1303 1.282 . S
H1308 C1281 0.931 . S
H1309 C1283 0.929 . S
H1310 C1284 0.930 . S
H1311 C1285 0.931 . S
H1312 C1292 0.932 . S
H1313 C1293 0.930 . S
H1314 C1294 0.929 . S
H1315 C1296 0.930 . S
H1316 C1298 0.932 . S
H1317 C1299 0.929 . S
H1318 C1300 0.928 . S
H1319 C1302 0.932 . S
C1320 C1321 1.264 . S
C1320 C1325 1.479 . S
C1320 C1330 1.465 . S
C1321 C1320 1.264 . S
C1321 C1323 1.339 . S
C1321 H1348 0.931 . S
C1322 C1323 1.395 . S
C1322 C1324 1.320 . S
C1323 C1321 1.339 . S
C1323 C1322 1.395 . S
C1323 H1349 0.929 . S
C1324 C1322 1.320 . S
C1324 C1325 1.405 . S
C1324 H1350 0.930 . S
C1325 C1320 1.479 . S
C1325 C1324 1.405 . S
C1325 H1351 0.931 . S
U1326 O1327 2.454 . S
U1326 O1328 2.458 . S
U1326 C1329 2.984 . S
U1326 C1330 2.847 . S
U1326 C1343 2.882 . S
U1326 O1344 2.441 . S
U1326 O1345 2.420 . S
U1326 O1346 2.455 . S
U1326 O1347 2.449 . S
O1327 U1326 2.454 . S
O1327 C1329 1.353 . S
O1328 U1326 2.458 . S
O1328 C1329 1.286 . S
C1329 U1326 2.984 . S
C1329 O1327 1.353 . S
C1329 O1328 1.286 . S
C1329 C1331 1.363 . S
C1330 C1320 1.465 . S
C1330 U1326 2.847 . S
C1330 O1344 1.249 . S
C1330 O1345 1.202 . S
C1331 C1329 1.363 . S
C1331 C1333 1.408 . S
C1331 C1336 1.342 . S
C1332 C1333 1.310 . S
C1332 C1335 1.461 . S
C1332 H1352 0.932 . S
C1333 C1331 1.408 . S
C1333 C1332 1.310 . S
C1333 H1353 0.930 . S
C1334 C1335 1.474 . S
C1334 C1336 1.285 . S
C1334 H1354 0.929 . S
C1335 C1332 1.461 . S
C1335 C1334 1.474 . S
C1336 C1331 1.342 . S
C1336 C1334 1.285 . S
C1336 H1355 0.930 . S
C1337 C1340 1.424 . S
C1337 C1342 1.245 . S
C1337 C1343 1.428 . S
C1338 C1341 1.260 . S
C1338 C1342 1.477 . S
C1338 H1356 0.932 . S
C1339 C1340 1.384 . S
C1339 C1341 1.479 . S
C1339 H1357 0.929 . S
C1340 C1337 1.424 . S
C1340 C1339 1.384 . S
C1340 H1358 0.928 . S
C1341 C1338 1.260 . S
C1341 C1339 1.479 . S
C1342 C1337 1.245 . S
C1342 C1338 1.477 . S
C1342 H1359 0.932 . S
C1343 U1326 2.882 . S
C1343 C1337 1.428 . S
C1343 O1346 1.301 . S
C1343 O1347 1.282 . S
O1344 U1326 2.441 . S
O1344 C1330 1.249 . S
O1345 U1326 2.420 . S
O1345 C1330 1.202 . S
O1346 U1326 2.455 . S
O1346 C1343 1.301 . S
O1347 U1326 2.449 . S
O1347 C1343 1.282 . S
H1348 C1321 0.931 . S
H1349 C1323 0.929 . S
H1350 C1324 0.930 . S
H1351 C1325 0.931 . S
H1352 C1332 0.932 . S
H1353 C1333 0.930 . S
H1354 C1334 0.929 . S
H1355 C1336 0.930 . S
H1356 C1338 0.932 . S
H1357 C1339 0.929 . S
H1358 C1340 0.928 . S
H1359 C1342 0.932 . S
C1360 C1361 1.264 . S
C1360 C1365 1.479 . S
C1360 C1370 1.465 . S
C1361 C1360 1.264 . S
C1361 C1363 1.339 . S
C1361 H1388 0.931 . S
C1362 C1363 1.395 . S
C1362 C1364 1.320 . S
C1363 C1361 1.339 . S
C1363 C1362 1.395 . S
C1363 H1389 0.929 . S
C1364 C1362 1.320 . S
C1364 C1365 1.405 . S
C1364 H1390 0.930 . S
C1365 C1360 1.479 . S
C1365 C1364 1.405 . S
C1365 H1391 0.931 . S
U1366 O1367 2.454 . S
U1366 O1368 2.458 . S
U1366 C1369 2.984 . S
U1366 C1370 2.847 . S
U1366 C1383 2.882 . S
U1366 O1384 2.441 . S
U1366 O1385 2.420 . S
U1366 O1386 2.455 . S
U1366 O1387 2.449 . S
O1367 U1366 2.454 . S
O1367 C1369 1.353 . S
O1368 U1366 2.458 . S
O1368 C1369 1.286 . S
C1369 U1366 2.984 . S
C1369 O1367 1.353 . S
C1369 O1368 1.286 . S
C1369 C1371 1.363 . S
C1370 C1360 1.465 . S
C1370 U1366 2.847 . S
C1370 O1384 1.249 . S
C1370 O1385 1.202 . S
C1371 C1369 1.363 . S
C1371 C1373 1.408 . S
C1371 C1376 1.342 . S
C1372 C1373 1.310 . S
C1372 C1375 1.461 . S
C1372 H1392 0.932 . S
C1373 C1371 1.408 . S
C1373 C1372 1.310 . S
C1373 H1393 0.930 . S
C1374 C1375 1.474 . S
C1374 C1376 1.285 . S
C1374 H1394 0.929 . S
C1375 C1372 1.461 . S
C1375 C1374 1.474 . S
C1376 C1371 1.342 . S
C1376 C1374 1.285 . S
C1376 H1395 0.930 . S
C1377 C1380 1.424 . S
C1377 C1382 1.245 . S
C1377 C1383 1.428 . S
C1378 C1381 1.260 . S
C1378 C1382 1.477 . S
C1378 H1396 0.932 . S
C1379 C1380 1.384 . S
C1379 C1381 1.479 . S
C1379 H1397 0.929 . S
C1380 C1377 1.424 . S
C1380 C1379 1.384 . S
C1380 H1398 0.928 . S
C1381 C1378 1.260 . S
C1381 C1379 1.479 . S
C1382 C1377 1.245 . S
C1382 C1378 1.477 . S
C1382 H1399 0.932 . S
C1383 U1366 2.882 . S
C1383 C1377 1.428 . S
C1383 O1386 1.301 . S
C1383 O1387 1.282 . S
O1384 U1366 2.441 . S
O1384 C1370 1.249 . S
O1385 U1366 2.420 . S
O1385 C1370 1.202 . S
O1386 U1366 2.455 . S
O1386 C1383 1.301 . S
O1387 U1366 2.449 . S
O1387 C1383 1.282 . S
H1388 C1361 0.931 . S
H1389 C1363 0.929 . S
H1390 C1364 0.930 . S
H1391 C1365 0.931 . S
H1392 C1372 0.932 . S
H1393 C1373 0.930 . S
H1394 C1374 0.929 . S
H1395 C1376 0.930 . S
H1396 C1378 0.932 . S
H1397 C1379 0.929 . S
H1398 C1380 0.928 . S
H1399 C1382 0.932 . S
C1400 C1401 1.264 . S
C1400 C1405 1.479 . S
C1400 C1410 1.465 . S
C1401 C1400 1.264 . S
C1401 C1403 1.339 . S
C1401 H1428 0.931 . S
C1402 C1403 1.395 . S
C1402 C1404 1.320 . S
C1403 C1401 1.339 . S
C1403 C1402 1.395 . S
C1403 H1429 0.929 . S
C1404 C1402 1.320 . S
C1404 C1405 1.405 . S
C1404 H1430 0.930 . S
C1405 C1400 1.479 . S
C1405 C1404 1.405 . S
C1405 H1431 0.931 . S
U1406 O1407 2.454 . S
U1406 O1408 2.458 . S
U1406 C1409 2.984 . S
U1406 C1410 2.847 . S
U1406 C1423 2.882 . S
U1406 O1424 2.441 . S
U1406 O1425 2.420 . S
U1406 O1426 2.455 . S
U1406 O1427 2.449 . S
O1407 U1406 2.454 . S
O1407 C1409 1.353 . S
O1408 U1406 2.458 . S
O1408 C1409 1.286 . S
C1409 U1406 2.984 . S
C1409 O1407 1.353 . S
C1409 O1408 1.286 . S
C1409 C1411 1.363 . S
C1410 C1400 1.465 . S
C1410 U1406 2.847 . S
C1410 O1424 1.249 . S
C1410 O1425 1.202 . S
C1411 C1409 1.363 . S
C1411 C1413 1.408 . S
C1411 C1416 1.342 . S
C1412 C1413 1.310 . S
C1412 C1415 1.461 . S
C1412 H1432 0.932 . S
C1413 C1411 1.408 . S
C1413 C1412 1.310 . S
C1413 H1433 0.930 . S
C1414 C1415 1.474 . S
C1414 C1416 1.285 . S
C1414 H1434 0.929 . S
C1415 C1412 1.461 . S
C1415 C1414 1.474 . S
C1416 C1411 1.342 . S
C1416 C1414 1.285 . S
C1416 H1435 0.930 . S
C1417 C1420 1.424 . S
C1417 C1422 1.245 . S
C1417 C1423 1.428 . S
C1418 C1421 1.260 . S
C1418 C1422 1.477 . S
C1418 H1436 0.932 . S
C1419 C1420 1.384 . S
C1419 C1421 1.479 . S
C1419 H1437 0.929 . S
C1420 C1417 1.424 . S
C1420 C1419 1.384 . S
C1420 H1438 0.928 . S
C1421 C1418 1.260 . S
C1421 C1419 1.479 . S
C1422 C1417 1.245 . S
C1422 C1418 1.477 . S
C1422 H1439 0.932 . S
C1423 U1406 2.882 . S
C1423 C1417 1.428 . S
C1423 O1426 1.301 . S
C1423 O1427 1.282 . S
O1424 U1406 2.441 . S
O1424 C1410 1.249 . S
O1425 U1406 2.420 . S
O1425 C1410 1.202 . S
O1426 U1406 2.455 . S
O1426 C1423 1.301 . S
O1427 U1406 2.449 . S
O1427 C1423 1.282 . S
H1428 C1401 0.931 . S
H1429 C1403 0.929 . S
H1430 C1404 0.930 . S
H1431 C1405 0.931 . S
H1432 C1412 0.932 . S
H1433 C1413 0.930 . S
H1434 C1414 0.929 . S
H1435 C1416 0.930 . S
H1436 C1418 0.932 . S
H1437 C1419 0.929 . S
H1438 C1420 0.928 . S
H1439 C1422 0.932 . S
C1440 C1441 1.264 . S
C1440 C1445 1.479 . S
C1440 C1450 1.465 . S
C1441 C1440 1.264 . S
C1441 C1443 1.339 . S
C1441 H1468 0.931 . S
C1442 C1443 1.395 . S
C1442 C1444 1.320 . S
C1443 C1441 1.339 . S
C1443 C1442 1.395 . S
C1443 H1469 0.929 . S
C1444 C1442 1.320 . S
C1444 C1445 1.405 . S
C1444 H1470 0.930 . S
C1445 C1440 1.479 . S
C1445 C1444 1.405 . S
C1445 H1471 0.931 . S
U1446 O1447 2.454 . S
U1446 O1448 2.458 . S
U1446 C1449 2.984 . S
U1446 C1450 2.847 . S
U1446 C1463 2.882 . S
U1446 O1464 2.441 . S
U1446 O1465 2.420 . S
U1446 O1466 2.455 . S
U1446 O1467 2.449 . S
O1447 U1446 2.454 . S
O1447 C1449 1.353 . S
O1448 U1446 2.458 . S
O1448 C1449 1.286 . S
C1449 U1446 2.984 . S
C1449 O1447 1.353 . S
C1449 O1448 1.286 . S
C1449 C1451 1.363 . S
C1450 C1440 1.465 . S
C1450 U1446 2.847 . S
C1450 O1464 1.249 . S
C1450 O1465 1.202 . S
C1451 C1449 1.363 . S
C1451 C1453 1.408 . S
C1451 C1456 1.342 . S
C1452 C1453 1.310 . S
C1452 C1455 1.461 . S
C1452 H1472 0.932 . S
C1453 C1451 1.408 . S
C1453 C1452 1.310 . S
C1453 H1473 0.930 . S
C1454 C1455 1.474 . S
C1454 C1456 1.285 . S
C1454 H1474 0.929 . S
C1455 C1452 1.461 . S
C1455 C1454 1.474 . S
C1456 C1451 1.342 . S
C1456 C1454 1.285 . S
C1456 H1475 0.930 . S
C1457 C1460 1.424 . S
C1457 C1462 1.245 . S
C1457 C1463 1.428 . S
C1458 C1461 1.260 . S
C1458 C1462 1.477 . S
C1458 H1476 0.932 . S
C1459 C1460 1.384 . S
C1459 C1461 1.479 . S
C1459 H1477 0.929 . S
C1460 C1457 1.424 . S
C1460 C1459 1.384 . S
C1460 H1478 0.928 . S
C1461 C1458 1.260 . S
C1461 C1459 1.479 . S
C1462 C1457 1.245 . S
C1462 C1458 1.477 . S
C1462 H1479 0.932 . S
C1463 U1446 2.882 . S
C1463 C1457 1.428 . S
C1463 O1466 1.301 . S
C1463 O1467 1.282 . S
O1464 U1446 2.441 . S
O1464 C1450 1.249 . S
O1465 U1446 2.420 . S
O1465 C1450 1.202 . S
O1466 U1446 2.455 . S
O1466 C1463 1.301 . S
O1467 U1446 2.449 . S
O1467 C1463 1.282 . S
H1468 C1441 0.931 . S
H1469 C1443 0.929 . S
H1470 C1444 0.930 . S
H1471 C1445 0.931 . S
H1472 C1452 0.932 . S
H1473 C1453 0.930 . S
H1474 C1454 0.929 . S
H1475 C1456 0.930 . S
H1476 C1458 0.932 . S
H1477 C1459 0.929 . S
H1478 C1460 0.928 . S
H1479 C1462 0.932 . S
C1480 C1481 1.264 . S
C1480 C1485 1.479 . S
C1480 C1490 1.465 . S
C1481 C1480 1.264 . S
C1481 C1483 1.339 . S
C1481 H1508 0.931 . S
C1482 C1483 1.395 . S
C1482 C1484 1.320 . S
C1483 C1481 1.339 . S
C1483 C1482 1.395 . S
C1483 H1509 0.929 . S
C1484 C1482 1.320 . S
C1484 C1485 1.405 . S
C1484 H1510 0.930 . S
C1485 C1480 1.479 . S
C1485 C1484 1.405 . S
C1485 H1511 0.931 . S
U1486 O1487 2.454 . S
U1486 O1488 2.458 . S
U1486 C1489 2.984 . S
U1486 C1490 2.847 . S
U1486 C1503 2.882 . S
U1486 O1504 2.441 . S
U1486 O1505 2.420 . S
U1486 O1506 2.455 . S
U1486 O1507 2.449 . S
O1487 U1486 2.454 . S
O1487 C1489 1.353 . S
O1488 U1486 2.458 . S
O1488 C1489 1.286 . S
C1489 U1486 2.984 . S
C1489 O1487 1.353 . S
C1489 O1488 1.286 . S
C1489 C1491 1.363 . S
C1490 C1480 1.465 . S
C1490 U1486 2.847 . S
C1490 O1504 1.249 . S
C1490 O1505 1.202 . S
C1491 C1489 1.363 . S
C1491 C1493 1.408 . S
C1491 C1496 1.342 . S
C1492 C1493 1.310 . S
C1492 C1495 1.461 . S
C1492 H1512 0.932 . S
C1493 C1491 1.408 . S
C1493 C1492 1.310 . S
C1493 H1513 0.930 . S
C1494 C1495 1.474 . S
C1494 C1496 1.285 . S
C1494 H1514 0.929 . S
C1495 C1492 1.461 . S
C1495 C1494 1.474 . S
C1496 C1491 1.342 . S
C1496 C1494 1.285 . S
C1496 H1515 0.930 . S
C1497 C1500 1.424 . S
C1497 C1502 1.245 . S
C1497 C1503 1.428 . S
C1498 C1501 1.260 . S
C1498 C1502 1.477 . S
C1498 H1516 0.932 . S
C1499 C1500 1.384 . S
C1499 C1501 1.479 . S
C1499 H1517 0.929 . S
C1500 C1497 1.424 . S
C1500 C1499 1.384 . S
C1500 H1518 0.928 . S
C1501 C1498 1.260 . S
C1501 C1499 1.479 . S
C1502 C1497 1.245 . S
C1502 C1498 1.477 . S
C1502 H1519 0.932 . S
C1503 U1486 2.882 . S
C1503 C1497 1.428 . S
C1503 O1506 1.301 . S
C1503 O1507 1.282 . S
O1504 U1486 2.441 . S
O1504 C1490 1.249 . S
O1505 U1486 2.420 . S
O1505 C1490 1.202 . S
O1506 U1486 2.455 . S
O1506 C1503 1.301 . S
O1507 U1486 2.449 . S
O1507 C1503 1.282 . S
H1508 C1481 0.931 . S
H1509 C1483 0.929 . S
H1510 C1484 0.930 . S
H1511 C1485 0.931 . S
H1512 C1492 0.932 . S
H1513 C1493 0.930 . S
H1514 C1494 0.929 . S
H1515 C1496 0.930 . S
H1516 C1498 0.932 . S
H1517 C1499 0.929 . S
H1518 C1500 0.928 . S
H1519 C1502 0.932 . S
C1520 C1521 1.264 . S
C1520 C1525 1.479 . S
C1520 C1530 1.465 . S
C1521 C1520 1.264 . S
C1521 C1523 1.339 . S
C1521 H1548 0.931 . S
C1522 C1523 1.395 . S
C1522 C1524 1.320 . S
C1523 C1521 1.339 . S
C1523 C1522 1.395 . S
C1523 H1549 0.929 . S
C1524 C1522 1.320 . S
C1524 C1525 1.405 . S
C1524 H1550 0.930 . S
C1525 C1520 1.479 . S
C1525 C1524 1.405 . S
C1525 H1551 0.931 . S
U1526 O1527 2.454 . S
U1526 O1528 2.458 . S
U1526 C1529 2.984 . S
U1526 C1530 2.847 . S
U1526 C1543 2.882 . S
U1526 O1544 2.441 . S
U1526 O1545 2.420 . S
U1526 O1546 2.455 . S
U1526 O1547 2.449 . S
O1527 U1526 2.454 . S
O1527 C1529 1.353 . S
O1528 U1526 2.458 . S
O1528 C1529 1.286 . S
C1529 U1526 2.984 . S
C1529 O1527 1.353 . S
C1529 O1528 1.286 . S
C1529 C1531 1.363 . S
C1530 C1520 1.465 . S
C1530 U1526 2.847 . S
C1530 O1544 1.249 . S
C1530 O1545 1.202 . S
C1531 C1529 1.363 . S
C1531 C1533 1.408 . S
C1531 C1536 1.342 . S
C1532 C1533 1.310 . S
C1532 C1535 1.461 . S
C1532 H1552 0.932 . S
C1533 C1531 1.408 . S
C1533 C1532 1.310 . S
C1533 H1553 0.930 . S
C1534 C1535 1.474 . S
C1534 C1536 1.285 . S
C1534 H1554 0.929 . S
C1535 C1532 1.461 . S
C1535 C1534 1.474 . S
C1536 C1531 1.342 . S
C1536 C1534 1.285 . S
C1536 H1555 0.930 . S
C1537 C1540 1.424 . S
C1537 C1542 1.245 . S
C1537 C1543 1.428 . S
C1538 C1541 1.260 . S
C1538 C1542 1.477 . S
C1538 H1556 0.932 . S
C1539 C1540 1.384 . S
C1539 C1541 1.479 . S
C1539 H1557 0.929 . S
C1540 C1537 1.424 . S
C1540 C1539 1.384 . S
C1540 H1558 0.928 . S
C1541 C1538 1.260 . S
C1541 C1539 1.479 . S
C1542 C1537 1.245 . S
C1542 C1538 1.477 . S
C1542 H1559 0.932 . S
C1543 U1526 2.882 . S
C1543 C1537 1.428 . S
C1543 O1546 1.301 . S
C1543 O1547 1.282 . S
O1544 U1526 2.441 . S
O1544 C1530 1.249 . S
O1545 U1526 2.420 . S
O1545 C1530 1.202 . S
O1546 U1526 2.455 . S
O1546 C1543 1.301 . S
O1547 U1526 2.449 . S
O1547 C1543 1.282 . S
H1548 C1521 0.931 . S
H1549 C1523 0.929 . S
H1550 C1524 0.930 . S
H1551 C1525 0.931 . S
H1552 C1532 0.932 . S
H1553 C1533 0.930 . S
H1554 C1534 0.929 . S
H1555 C1536 0.930 . S
H1556 C1538 0.932 . S
H1557 C1539 0.929 . S
H1558 C1540 0.928 . S
H1559 C1542 0.932 . S
C1560 C1561 1.264 . S
C1560 C1565 1.479 . S
C1560 C1570 1.465 . S
C1561 C1560 1.264 . S
C1561 C1563 1.339 . S
C1561 H1588 0.931 . S
C1562 C1563 1.395 . S
C1562 C1564 1.320 . S
C1563 C1561 1.339 . S
C1563 C1562 1.395 . S
C1563 H1589 0.929 . S
C1564 C1562 1.320 . S
C1564 C1565 1.405 . S
C1564 H1590 0.930 . S
C1565 C1560 1.479 . S
C1565 C1564 1.405 . S
C1565 H1591 0.931 . S
U1566 O1567 2.454 . S
U1566 O1568 2.458 . S
U1566 C1569 2.984 . S
U1566 C1570 2.847 . S
U1566 C1583 2.882 . S
U1566 O1584 2.441 . S
U1566 O1585 2.420 . S
U1566 O1586 2.455 . S
U1566 O1587 2.449 . S
O1567 U1566 2.454 . S
O1567 C1569 1.353 . S
O1568 U1566 2.458 . S
O1568 C1569 1.286 . S
C1569 U1566 2.984 . S
C1569 O1567 1.353 . S
C1569 O1568 1.286 . S
C1569 C1571 1.363 . S
C1570 C1560 1.465 . S
C1570 U1566 2.847 . S
C1570 O1584 1.249 . S
C1570 O1585 1.202 . S
C1571 C1569 1.363 . S
C1571 C1573 1.408 . S
C1571 C1576 1.342 . S
C1572 C1573 1.310 . S
C1572 C1575 1.461 . S
C1572 H1592 0.932 . S
C1573 C1571 1.408 . S
C1573 C1572 1.310 . S
C1573 H1593 0.930 . S
C1574 C1575 1.474 . S
C1574 C1576 1.285 . S
C1574 H1594 0.929 . S
C1575 C1572 1.461 . S
C1575 C1574 1.474 . S
C1576 C1571 1.342 . S
C1576 C1574 1.285 . S
C1576 H1595 0.930 . S
C1577 C1580 1.424 . S
C1577 C1582 1.245 . S
C1577 C1583 1.428 . S
C1578 C1581 1.260 . S
C1578 C1582 1.477 . S
C1578 H1596 0.932 . S
C1579 C1580 1.384 . S
C1579 C1581 1.479 . S
C1579 H1597 0.929 . S
C1580 C1577 1.424 . S
C1580 C1579 1.384 . S
C1580 H1598 0.928 . S
C1581 C1578 1.260 . S
C1581 C1579 1.479 . S
C1582 C1577 1.245 . S
C1582 C1578 1.477 . S
C1582 H1599 0.932 . S
C1583 U1566 2.882 . S
C1583 C1577 1.428 . S
C1583 O1586 1.301 . S
C1583 O1587 1.282 . S
O1584 U1566 2.441 . S
O1584 C1570 1.249 . S
O1585 U1566 2.420 . S
O1585 C1570 1.202 . S
O1586 U1566 2.455 . S
O1586 C1583 1.301 . S
O1587 U1566 2.449 . S
O1587 C1583 1.282 . S
H1588 C1561 0.931 . S
H1589 C1563 0.929 . S
H1590 C1564 0.930 . S
H1591 C1565 0.931 . S
H1592 C1572 0.932 . S
H1593 C1573 0.930 . S
H1594 C1574 0.929 . S
H1595 C1576 0.930 . S
H1596 C1578 0.932 . S
H1597 C1579 0.929 . S
H1598 C1580 0.928 . S
H1599 C1582 0.932 . S
C1600 C1601 1.264 . S
C1600 C1605 1.479 . S
C1600 C1610 1.465 . S
C1601 C1600 1.264 . S
C1601 C1603 1.339 . S
C1601 H1628 0.931 . S
C1602 C1603 1.395 . S
C1602 C1604 1.320 . S
C1603 C1601 1.339 . S
C1603 C1602 1.395 . S
C1603 H1629 0.929 . S
C1604 C1602 1.320 . S
C1604 C1605 1.405 . S
C1604 H1630 0.930 . S
C1605 C1600 1.479 . S
C1605 C1604 1.405 . S
C1605 H1631 0.931 . S
U1606 O1607 2.454 . S
U1606 O1608 2.458 . S
U1606 C1609 2.984 . S
U1606 C1610 2.847 . S
U1606 C1623 2.882 . S
U1606 O1624 2.441 . S
U1606 O1625 2.420 . S
U1606 O1626 2.455 . S
U1606 O1627 2.449 . S
O1607 U1606 2.454 . S
O1607 C1609 1.353 . S
O1608 U1606 2.458 . S
O1608 C1609 1.286 . S
C1609 U1606 2.984 . S
C1609 O1607 1.353 . S
C1609 O1608 1.286 . S
C1609 C1611 1.363 . S
C1610 C1600 1.465 . S
C1610 U1606 2.847 . S
C1610 O1624 1.249 . S
C1610 O1625 1.202 . S
C1611 C1609 1.363 . S
C1611 C1613 1.408 . S
C1611 C1616 1.342 . S
C1612 C1613 1.310 . S
C1612 C1615 1.461 . S
C1612 H1632 0.932 . S
C1613 C1611 1.408 . S
C1613 C1612 1.310 . S
C1613 H1633 0.930 . S
C1614 C1615 1.474 . S
C1614 C1616 1.285 . S
C1614 H1634 0.929 . S
C1615 C1612 1.461 . S
C1615 C1614 1.474 . S
C1616 C1611 1.342 . S
C1616 C1614 1.285 . S
C1616 H1635 0.930 . S
C1617 C1620 1.424 . S
C1617 C1622 1.245 . S
C1617 C1623 1.428 . S
C1618 C1621 1.260 . S
C1618 C1622 1.477 . S
C1618 H1636 0.932 . S
C1619 C1620 1.384 . S
C1619 C1621 1.479 . S
C1619 H1637 0.929 . S
C1620 C1617 1.424 . S
C1620 C1619 1.384 . S
C1620 H1638 0.928 . S
C1621 C1618 1.260 . S
C1621 C1619 1.479 . S
C1622 C1617 1.245 . S
C1622 C1618 1.477 . S
C1622 H1639 0.932 . S
C1623 U1606 2.882 . S
C1623 C1617 1.428 . S
C1623 O1626 1.301 . S
C1623 O1627 1.282 . S
O1624 U1606 2.441 . S
O1624 C1610 1.249 . S
O1625 U1606 2.420 . S
O1625 C1610 1.202 . S
O1626 U1606 2.455 . S
O1626 C1623 1.301 . S
O1627 U1606 2.449 . S
O1627 C1623 1.282 . S
H1628 C1601 0.931 . S
H1629 C1603 0.929 . S
H1630 C1604 0.930 . S
H1631 C1605 0.931 . S
H1632 C1612 0.932 . S
H1633 C1613 0.930 . S
H1634 C1614 0.929 . S
H1635 C1616 0.930 . S
H1636 C1618 0.932 . S
H1637 C1619 0.929 . S
H1638 C1620 0.928 . S
H1639 C1622 0.932 . S
C1640 C1641 1.264 . S
C1640 C1645 1.479 . S
C1640 C1650 1.465 . S
C1641 C1640 1.264 . S
C1641 C1643 1.339 . S
C1641 H1668 0.931 . S
C1642 C1643 1.395 . S
C1642 C1644 1.320 . S
C1643 C1641 1.339 . S
C1643 C1642 1.395 . S
C1643 H1669 0.929 . S
C1644 C1642 1.320 . S
C1644 C1645 1.405 . S
C1644 H1670 0.930 . S
C1645 C1640 1.479 . S
C1645 C1644 1.405 . S
C1645 H1671 0.931 . S
U1646 O1647 2.454 . S
U1646 O1648 2.458 . S
U1646 C1649 2.984 . S
U1646 C1650 2.847 . S
U1646 C1663 2.882 . S
U1646 O1664 2.441 . S
U1646 O1665 2.420 . S
U1646 O1666 2.455 . S
U1646 O1667 2.449 . S
O1647 U1646 2.454 . S
O1647 C1649 1.353 . S
O1648 U1646 2.458 . S
O1648 C1649 1.286 . S
C1649 U1646 2.984 . S
C1649 O1647 1.353 . S
C1649 O1648 1.286 . S
C1649 C1651 1.363 . S
C1650 C1640 1.465 . S
C1650 U1646 2.847 . S
C1650 O1664 1.249 . S
C1650 O1665 1.202 . S
C1651 C1649 1.363 . S
C1651 C1653 1.408 . S
C1651 C1656 1.342 . S
C1652 C1653 1.310 . S
C1652 C1655 1.461 . S
C1652 H1672 0.932 . S
C1653 C1651 1.408 . S
C1653 C1652 1.310 . S
C1653 H1673 0.930 . S
C1654 C1655 1.474 . S
C1654 C1656 1.285 . S
C1654 H1674 0.929 . S
C1655 C1652 1.461 . S
C1655 C1654 1.474 . S
C1656 C1651 1.342 . S
C1656 C1654 1.285 . S
C1656 H1675 0.930 . S
C1657 C1660 1.424 . S
C1657 C1662 1.245 . S
C1657 C1663 1.428 . S
C1658 C1661 1.260 . S
C1658 C1662 1.477 . S
C1658 H1676 0.932 . S
C1659 C1660 1.384 . S
C1659 C1661 1.479 . S
C1659 H1677 0.929 . S
C1660 C1657 1.424 . S
C1660 C1659 1.384 . S
C1660 H1678 0.928 . S
C1661 C1658 1.260 . S
C1661 C1659 1.479 . S
C1662 C1657 1.245 . S
C1662 C1658 1.477 . S
C1662 H1679 0.932 . S
C1663 U1646 2.882 . S
C1663 C1657 1.428 . S
C1663 O1666 1.301 . S
C1663 O1667 1.282 . S
O1664 U1646 2.441 . S
O1664 C1650 1.249 . S
O1665 U1646 2.420 . S
O1665 C1650 1.202 . S
O1666 U1646 2.455 . S
O1666 C1663 1.301 . S
O1667 U1646 2.449 . S
O1667 C1663 1.282 . S
H1668 C1641 0.931 . S
H1669 C1643 0.929 . S
H1670 C1644 0.930 . S
H1671 C1645 0.931 . S
H1672 C1652 0.932 . S
H1673 C1653 0.930 . S
H1674 C1654 0.929 . S
H1675 C1656 0.930 . S
H1676 C1658 0.932 . S
H1677 C1659 0.929 . S
H1678 C1660 0.928 . S
H1679 C1662 0.932 . S
C1680 C1681 1.264 . S
C1680 C1685 1.479 . S
C1680 C1690 1.465 . S
C1681 C1680 1.264 . S
C1681 C1683 1.339 . S
C1681 H1708 0.931 . S
C1682 C1683 1.395 . S
C1682 C1684 1.320 . S
C1683 C1681 1.339 . S
C1683 C1682 1.395 . S
C1683 H1709 0.929 . S
C1684 C1682 1.320 . S
C1684 C1685 1.405 . S
C1684 H1710 0.930 . S
C1685 C1680 1.479 . S
C1685 C1684 1.405 . S
C1685 H1711 0.931 . S
U1686 O1687 2.454 . S
U1686 O1688 2.458 . S
U1686 C1689 2.984 . S
U1686 C1690 2.847 . S
U1686 C1703 2.882 . S
U1686 O1704 2.441 . S
U1686 O1705 2.420 . S
U1686 O1706 2.455 . S
U1686 O1707 2.449 . S
O1687 U1686 2.454 . S
O1687 C1689 1.353 . S
O1688 U1686 2.458 . S
O1688 C1689 1.286 . S
C1689 U1686 2.984 . S
C1689 O1687 1.353 . S
C1689 O1688 1.286 . S
C1689 C1691 1.363 . S
C1690 C1680 1.465 . S
C1690 U1686 2.847 . S
C1690 O1704 1.249 . S
C1690 O1705 1.202 . S
C1691 C1689 1.363 . S
C1691 C1693 1.408 . S
C1691 C1696 1.342 . S
C1692 C1693 1.310 . S
C1692 C1695 1.461 . S
C1692 H1712 0.932 . S
C1693 C1691 1.408 . S
C1693 C1692 1.310 . S
C1693 H1713 0.930 . S
C1694 C1695 1.474 . S
C1694 C1696 1.285 . S
C1694 H1714 0.929 . S
C1695 C1692 1.461 . S
C1695 C1694 1.474 . S
C1696 C1691 1.342 . S
C1696 C1694 1.285 . S
C1696 H1715 0.930 . S
C1697 C1700 1.424 . S
C1697 C1702 1.245 . S
C1697 C1703 1.428 . S
C1698 C1701 1.260 . S
C1698 C1702 1.477 . S
C1698 H1716 0.932 . S
C1699 C1700 1.384 . S
C1699 C1701 1.479 . S
C1699 H1717 0.929 . S
C1700 C1697 1.424 . S
C1700 C1699 1.384 . S
C1700 H1718 0.928 . S
C1701 C1698 1.260 . S
C1701 C1699 1.479 . S
C1702 C1697 1.245 . S
C1702 C1698 1.477 . S
C1702 H1719 0.932 . S
C1703 U1686 2.882 . S
C1703 C1697 1.428 . S
C1703 O1706 1.301 . S
C1703 O1707 1.282 . S
O1704 U1686 2.441 . S
O1704 C1690 1.249 . S
O1705 U1686 2.420 . S
O1705 C1690 1.202 . S
O1706 U1686 2.455 . S
O1706 C1703 1.301 . S
O1707 U1686 2.449 . S
O1707 C1703 1.282 . S
H1708 C1681 0.931 . S
H1709 C1683 0.929 . S
H1710 C1684 0.930 . S
H1711 C1685 0.931 . S
H1712 C1692 0.932 . S
H1713 C1693 0.930 . S
H1714 C1694 0.929 . S
H1715 C1696 0.930 . S
H1716 C1698 0.932 . S
H1717 C1699 0.929 . S
H1718 C1700 0.928 . S
H1719 C1702 0.932 . S
C1720 C1721 1.264 . S
C1720 C1725 1.479 . S
C1720 C1730 1.465 . S
C1721 C1720 1.264 . S
C1721 C1723 1.339 . S
C1721 H1748 0.931 . S
C1722 C1723 1.395 . S
C1722 C1724 1.320 . S
C1723 C1721 1.339 . S
C1723 C1722 1.395 . S
C1723 H1749 0.929 . S
C1724 C1722 1.320 . S
C1724 C1725 1.405 . S
C1724 H1750 0.930 . S
C1725 C1720 1.479 . S
C1725 C1724 1.405 . S
C1725 H1751 0.931 . S
U1726 O1727 2.454 . S
U1726 O1728 2.458 . S
U1726 C1729 2.984 . S
U1726 C1730 2.847 . S
U1726 C1743 2.882 . S
U1726 O1744 2.441 . S
U1726 O1745 2.420 . S
U1726 O1746 2.455 . S
U1726 O1747 2.449 . S
O1727 U1726 2.454 . S
O1727 C1729 1.353 . S
O1728 U1726 2.458 . S
O1728 C1729 1.286 . S
C1729 U1726 2.984 . S
C1729 O1727 1.353 . S
C1729 O1728 1.286 . S
C1729 C1731 1.363 . S
C1730 C1720 1.465 . S
C1730 U1726 2.847 . S
C1730 O1744 1.249 . S
C1730 O1745 1.202 . S
C1731 C1729 1.363 . S
C1731 C1733 1.408 . S
C1731 C1736 1.342 . S
C1732 C1733 1.310 . S
C1732 C1735 1.461 . S
C1732 H1752 0.932 . S
C1733 C1731 1.408 . S
C1733 C1732 1.310 . S
C1733 H1753 0.930 . S
C1734 C1735 1.474 . S
C1734 C1736 1.285 . S
C1734 H1754 0.929 . S
C1735 C1732 1.461 . S
C1735 C1734 1.474 . S
C1736 C1731 1.342 . S
C1736 C1734 1.285 . S
C1736 H1755 0.930 . S
C1737 C1740 1.424 . S
C1737 C1742 1.245 . S
C1737 C1743 1.428 . S
C1738 C1741 1.260 . S
C1738 C1742 1.477 . S
C1738 H1756 0.932 . S
C1739 C1740 1.384 . S
C1739 C1741 1.479 . S
C1739 H1757 0.929 . S
C1740 C1737 1.424 . S
C1740 C1739 1.384 . S
C1740 H1758 0.928 . S
C1741 C1738 1.260 . S
C1741 C1739 1.479 . S
C1742 C1737 1.245 . S
C1742 C1738 1.477 . S
C1742 H1759 0.932 . S
C1743 U1726 2.882 . S
C1743 C1737 1.428 . S
C1743 O1746 1.301 . S
C1743 O1747 1.282 . S
O1744 U1726 2.441 . S
O1744 C1730 1.249 . S
O1745 U1726 2.420 . S
O1745 C1730 1.202 . S
O1746 U1726 2.455 . S
O1746 C1743 1.301 . S
O1747 U1726 2.449 . S
O1747 C1743 1.282 . S
H1748 C1721 0.931 . S
H1749 C1723 0.929 . S
H1750 C1724 0.930 . S
H1751 C1725 0.931 . S
H1752 C1732 0.932 . S
H1753 C1733 0.930 . S
H1754 C1734 0.929 . S
H1755 C1736 0.930 . S
H1756 C1738 0.932 . S
H1757 C1739 0.929 . S
H1758 C1740 0.928 . S
H1759 C1742 0.932 . S
C1760 C1761 1.264 . S
C1760 C1765 1.479 . S
C1760 C1770 1.465 . S
C1761 C1760 1.264 . S
C1761 C1763 1.339 . S
C1761 H1788 0.931 . S
C1762 C1763 1.395 . S
C1762 C1764 1.320 . S
C1763 C1761 1.339 . S
C1763 C1762 1.395 . S
C1763 H1789 0.929 . S
C1764 C1762 1.320 . S
C1764 C1765 1.405 . S
C1764 H1790 0.930 . S
C1765 C1760 1.479 . S
C1765 C1764 1.405 . S
C1765 H1791 0.931 . S
U1766 O1767 2.454 . S
U1766 O1768 2.458 . S
U1766 C1769 2.984 . S
U1766 C1770 2.847 . S
U1766 C1783 2.882 . S
U1766 O1784 2.441 . S
U1766 O1785 2.420 . S
U1766 O1786 2.455 . S
U1766 O1787 2.449 . S
O1767 U1766 2.454 . S
O1767 C1769 1.353 . S
O1768 U1766 2.458 . S
O1768 C1769 1.286 . S
C1769 U1766 2.984 . S
C1769 O1767 1.353 . S
C1769 O1768 1.286 . S
C1769 C1771 1.363 . S
C1770 C1760 1.465 . S
C1770 U1766 2.847 . S
C1770 O1784 1.249 . S
C1770 O1785 1.202 . S
C1771 C1769 1.363 . S
C1771 C1773 1.408 . S
C1771 C1776 1.342 . S
C1772 C1773 1.310 . S
C1772 C1775 1.461 . S
C1772 H1792 0.932 . S
C1773 C1771 1.408 . S
C1773 C1772 1.310 . S
C1773 H1793 0.930 . S
C1774 C1775 1.474 . S
C1774 C1776 1.285 . S
C1774 H1794 0.929 . S
C1775 C1772 1.461 . S
C1775 C1774 1.474 . S
C1776 C1771 1.342 . S
C1776 C1774 1.285 . S
C1776 H1795 0.930 . S
C1777 C1780 1.424 . S
C1777 C1782 1.245 . S
C1777 C1783 1.428 . S
C1778 C1781 1.260 . S
C1778 C1782 1.477 . S
C1778 H1796 0.932 . S
C1779 C1780 1.384 . S
C1779 C1781 1.479 . S
C1779 H1797 0.929 . S
C1780 C1777 1.424 . S
C1780 C1779 1.384 . S
C1780 H1798 0.928 . S
C1781 C1778 1.260 . S
C1781 C1779 1.479 . S
C1782 C1777 1.245 . S
C1782 C1778 1.477 . S
C1782 H1799 0.932 . S
C1783 U1766 2.882 . S
C1783 C1777 1.428 . S
C1783 O1786 1.301 . S
C1783 O1787 1.282 . S
O1784 U1766 2.441 . S
O1784 C1770 1.249 . S
O1785 U1766 2.420 . S
O1785 C1770 1.202 . S
O1786 U1766 2.455 . S
O1786 C1783 1.301 . S
O1787 U1766 2.449 . S
O1787 C1783 1.282 . S
H1788 C1761 0.931 . S
H1789 C1763 0.929 . S
H1790 C1764 0.930 . S
H1791 C1765 0.931 . S
H1792 C1772 0.932 . S
H1793 C1773 0.930 . S
H1794 C1774 0.929 . S
H1795 C1776 0.930 . S
H1796 C1778 0.932 . S
H1797 C1779 0.929 . S
H1798 C1780 0.928 . S
H1799 C1782 0.932 . S
C1800 C1801 1.264 . S
C1800 C1805 1.479 . S
C1800 C1810 1.465 . S
C1801 C1800 1.264 . S
C1801 C1803 1.339 . S
C1801 H1828 0.931 . S
C1802 C1803 1.395 . S
C1802 C1804 1.320 . S
C1803 C1801 1.339 . S
C1803 C1802 1.395 . S
C1803 H1829 0.929 . S
C1804 C1802 1.320 . S
C1804 C1805 1.405 . S
C1804 H1830 0.930 . S
C1805 C1800 1.479 . S
C1805 C1804 1.405 . S
C1805 H1831 0.931 . S
U1806 O1807 2.454 . S
U1806 O1808 2.458 . S
U1806 C1809 2.984 . S
U1806 C1810 2.847 . S
U1806 C1823 2.882 . S
U1806 O1824 2.441 . S
U1806 O1825 2.420 . S
U1806 O1826 2.455 . S
U1806 O1827 2.449 . S
O1807 U1806 2.454 . S
O1807 C1809 1.353 . S
O1808 U1806 2.458 . S
O1808 C1809 1.286 . S
C1809 U1806 2.984 . S
C1809 O1807 1.353 . S
C1809 O1808 1.286 . S
C1809 C1811 1.363 . S
C1810 C1800 1.465 . S
C1810 U1806 2.847 . S
C1810 O1824 1.249 . S
C1810 O1825 1.202 . S
C1811 C1809 1.363 . S
C1811 C1813 1.408 . S
C1811 C1816 1.342 . S
C1812 C1813 1.310 . S
C1812 C1815 1.461 . S
C1812 H1832 0.932 . S
C1813 C1811 1.408 . S
C1813 C1812 1.310 . S
C1813 H1833 0.930 . S
C1814 C1815 1.474 . S
C1814 C1816 1.285 . S
C1814 H1834 0.929 . S
C1815 C1812 1.461 . S
C1815 C1814 1.474 . S
C1816 C1811 1.342 . S
C1816 C1814 1.285 . S
C1816 H1835 0.930 . S
C1817 C1820 1.424 . S
C1817 C1822 1.245 . S
C1817 C1823 1.428 . S
C1818 C1821 1.260 . S
C1818 C1822 1.477 . S
C1818 H1836 0.932 . S
C1819 C1820 1.384 . S
C1819 C1821 1.479 . S
C1819 H1837 0.929 . S
C1820 C1817 1.424 . S
C1820 C1819 1.384 . S
C1820 H1838 0.928 . S
C1821 C1818 1.260 . S
C1821 C1819 1.479 . S
C1822 C1817 1.245 . S
C1822 C1818 1.477 . S
C1822 H1839 0.932 . S
C1823 U1806 2.882 . S
C1823 C1817 1.428 . S
C1823 O1826 1.301 . S
C1823 O1827 1.282 . S
O1824 U1806 2.441 . S
O1824 C1810 1.249 . S
O1825 U1806 2.420 . S
O1825 C1810 1.202 . S
O1826 U1806 2.455 . S
O1826 C1823 1.301 . S
O1827 U1806 2.449 . S
O1827 C1823 1.282 . S
H1828 C1801 0.931 . S
H1829 C1803 0.929 . S
H1830 C1804 0.930 . S
H1831 C1805 0.931 . S
H1832 C1812 0.932 . S
H1833 C1813 0.930 . S
H1834 C1814 0.929 . S
H1835 C1816 0.930 . S
H1836 C1818 0.932 . S
H1837 C1819 0.929 . S
H1838 C1820 0.928 . S
H1839 C1822 0.932 . S
C1840 C1841 1.264 . S
C1840 C1845 1.479 . S
C1840 C1850 1.465 . S
C1841 C1840 1.264 . S
C1841 C1843 1.339 . S
C1841 H1868 0.931 . S
C1842 C1843 1.395 . S
C1842 C1844 1.320 . S
C1843 C1841 1.339 . S
C1843 C1842 1.395 . S
C1843 H1869 0.929 . S
C1844 C1842 1.320 . S
C1844 C1845 1.405 . S
C1844 H1870 0.930 . S
C1845 C1840 1.479 . S
C1845 C1844 1.405 . S
C1845 H1871 0.931 . S
U1846 O1847 2.454 . S
U1846 O1848 2.458 . S
U1846 C1849 2.984 . S
U1846 C1850 2.847 . S
U1846 C1863 2.882 . S
U1846 O1864 2.441 . S
U1846 O1865 2.420 . S
U1846 O1866 2.455 . S
U1846 O1867 2.449 . S
O1847 U1846 2.454 . S
O1847 C1849 1.353 . S
O1848 U1846 2.458 . S
O1848 C1849 1.286 . S
C1849 U1846 2.984 . S
C1849 O1847 1.353 . S
C1849 O1848 1.286 . S
C1849 C1851 1.363 . S
C1850 C1840 1.465 . S
C1850 U1846 2.847 . S
C1850 O1864 1.249 . S
C1850 O1865 1.202 . S
C1851 C1849 1.363 . S
C1851 C1853 1.408 . S
C1851 C1856 1.342 . S
C1852 C1853 1.310 . S
C1852 C1855 1.461 . S
C1852 H1872 0.932 . S
C1853 C1851 1.408 . S
C1853 C1852 1.310 . S
C1853 H1873 0.930 . S
C1854 C1855 1.474 . S
C1854 C1856 1.285 . S
C1854 H1874 0.929 . S
C1855 C1852 1.461 . S
C1855 C1854 1.474 . S
C1856 C1851 1.342 . S
C1856 C1854 1.285 . S
C1856 H1875 0.930 . S
C1857 C1860 1.424 . S
C1857 C1862 1.245 . S
C1857 C1863 1.428 . S
C1858 C1861 1.260 . S
C1858 C1862 1.477 . S
C1858 H1876 0.932 . S
C1859 C1860 1.384 . S
C1859 C1861 1.479 . S
C1859 H1877 0.929 . S
C1860 C1857 1.424 . S
C1860 C1859 1.384 . S
C1860 H1878 0.928 . S
C1861 C1858 1.260 . S
C1861 C1859 1.479 . S
C1862 C1857 1.245 . S
C1862 C1858 1.477 . S
C1862 H1879 0.932 . S
C1863 U1846 2.882 . S
C1863 C1857 1.428 . S
C1863 O1866 1.301 . S
C1863 O1867 1.282 . S
O1864 U1846 2.441 . S
O1864 C1850 1.249 . S
O1865 U1846 2.420 . S
O1865 C1850 1.202 . S
O1866 U1846 2.455 . S
O1866 C1863 1.301 . S
O1867 U1846 2.449 . S
O1867 C1863 1.282 . S
H1868 C1841 0.931 . S
H1869 C1843 0.929 . S
H1870 C1844 0.930 . S
H1871 C1845 0.931 . S
H1872 C1852 0.932 . S
H1873 C1853 0.930 . S
H1874 C1854 0.929 . S
H1875 C1856 0.930 . S
H1876 C1858 0.932 . S
H1877 C1859 0.929 . S
H1878 C1860 0.928 . S
H1879 C1862 0.932 . S
C1880 C1881 1.264 . S
C1880 C1885 1.479 . S
C1880 C1890 1.465 . S
C1881 C1880 1.264 . S
C1881 C1883 1.339 . S
C1881 H1908 0.931 . S
C1882 C1883 1.395 . S
C1882 C1884 1.320 . S
C1883 C1881 1.339 . S
C1883 C1882 1.395 . S
C1883 H1909 0.929 . S
C1884 C1882 1.320 . S
C1884 C1885 1.405 . S
C1884 H1910 0.930 . S
C1885 C1880 1.479 . S
C1885 C1884 1.405 . S
C1885 H1911 0.931 . S
U1886 O1887 2.454 . S
U1886 O1888 2.458 . S
U1886 C1889 2.984 . S
U1886 C1890 2.847 . S
U1886 C1903 2.882 . S
U1886 O1904 2.441 . S
U1886 O1905 2.420 . S
U1886 O1906 2.455 . S
U1886 O1907 2.449 . S
O1887 U1886 2.454 . S
O1887 C1889 1.353 . S
O1888 U1886 2.458 . S
O1888 C1889 1.286 . S
C1889 U1886 2.984 . S
C1889 O1887 1.353 . S
C1889 O1888 1.286 . S
C1889 C1891 1.363 . S
C1890 C1880 1.465 . S
C1890 U1886 2.847 . S
C1890 O1904 1.249 . S
C1890 O1905 1.202 . S
C1891 C1889 1.363 . S
C1891 C1893 1.408 . S
C1891 C1896 1.342 . S
C1892 C1893 1.310 . S
C1892 C1895 1.461 . S
C1892 H1912 0.932 . S
C1893 C1891 1.408 . S
C1893 C1892 1.310 . S
C1893 H1913 0.930 . S
C1894 C1895 1.474 . S
C1894 C1896 1.285 . S
C1894 H1914 0.929 . S
C1895 C1892 1.461 . S
C1895 C1894 1.474 . S
C1896 C1891 1.342 . S
C1896 C1894 1.285 . S
C1896 H1915 0.930 . S
C1897 C1900 1.424 . S
C1897 C1902 1.245 . S
C1897 C1903 1.428 . S
C1898 C1901 1.260 . S
C1898 C1902 1.477 . S
C1898 H1916 0.932 . S
C1899 C1900 1.384 . S
C1899 C1901 1.479 . S
C1899 H1917 0.929 . S
C1900 C1897 1.424 . S
C1900 C1899 1.384 . S
C1900 H1918 0.928 . S
C1901 C1898 1.260 . S
C1901 C1899 1.479 . S
C1902 C1897 1.245 . S
C1902 C1898 1.477 . S
C1902 H1919 0.932 . S
C1903 U1886 2.882 . S
C1903 C1897 1.428 . S
C1903 O1906 1.301 . S
C1903 O1907 1.282 . S
O1904 U1886 2.441 . S
O1904 C1890 1.249 . S
O1905 U1886 2.420 . S
O1905 C1890 1.202 . S
O1906 U1886 2.455 . S
O1906 C1903 1.301 . S
O1907 U1886 2.449 . S
O1907 C1903 1.282 . S
H1908 C1881 0.931 . S
H1909 C1883 0.929 . S
H1910 C1884 0.930 . S
H1911 C1885 0.931 . S
H1912 C1892 0.932 . S
H1913 C1893 0.930 . S
H1914 C1894 0.929 . S
H1915 C1896 0.930 . S
H1916 C1898 0.932 . S
H1917 C1899 0.929 . S
H1918 C1900 0.928 . S
H1919 C1902 0.932 . S
C1920 C1921 1.264 . S
C1920 C1925 1.479 . S
C1920 C1930 1.465 . S
C1921 C1920 1.264 . S
C1921 C1923 1.339 . S
C1921 H1948 0.931 . S
C1922 C1923 1.395 . S
C1922 C1924 1.320 . S
C1923 C1921 1.339 . S
C1923 C1922 1.395 . S
C1923 H1949 0.929 . S
C1924 C1922 1.320 . S
C1924 C1925 1.405 . S
C1924 H1950 0.930 . S
C1925 C1920 1.479 . S
C1925 C1924 1.405 . S
C1925 H1951 0.931 . S
U1926 O1927 2.454 . S
U1926 O1928 2.458 . S
U1926 C1929 2.984 . S
U1926 C1930 2.847 . S
U1926 C1943 2.882 . S
U1926 O1944 2.441 . S
U1926 O1945 2.420 . S
U1926 O1946 2.455 . S
U1926 O1947 2.449 . S
O1927 U1926 2.454 . S
O1927 C1929 1.353 . S
O1928 U1926 2.458 . S
O1928 C1929 1.286 . S
C1929 U1926 2.984 . S
C1929 O1927 1.353 . S
C1929 O1928 1.286 . S
C1929 C1931 1.363 . S
C1930 C1920 1.465 . S
C1930 U1926 2.847 . S
C1930 O1944 1.249 . S
C1930 O1945 1.202 . S
C1931 C1929 1.363 . S
C1931 C1933 1.408 . S
C1931 C1936 1.342 . S
C1932 C1933 1.310 . S
C1932 C1935 1.461 . S
C1932 H1952 0.932 . S
C1933 C1931 1.408 . S
C1933 C1932 1.310 . S
C1933 H1953 0.930 . S
C1934 C1935 1.474 . S
C1934 C1936 1.285 . S
C1934 H1954 0.929 . S
C1935 C1932 1.461 . S
C1935 C1934 1.474 . S
C1936 C1931 1.342 . S
C1936 C1934 1.285 . S
C1936 H1955 0.930 . S
C1937 C1940 1.424 . S
C1937 C1942 1.245 . S
C1937 C1943 1.428 . S
C1938 C1941 1.260 . S
C1938 C1942 1.477 . S
C1938 H1956 0.932 . S
C1939 C1940 1.384 . S
C1939 C1941 1.479 . S
C1939 H1957 0.929 . S
C1940 C1937 1.424 . S
C1940 C1939 1.384 . S
C1940 H1958 0.928 . S
C1941 C1938 1.260 . S
C1941 C1939 1.479 . S
C1942 C1937 1.245 . S
C1942 C1938 1.477 . S
C1942 H1959 0.932 . S
C1943 U1926 2.882 . S
C1943 C1937 1.428 . S
C1943 O1946 1.301 . S
C1943 O1947 1.282 . S
O1944 U1926 2.441 . S
O1944 C1930 1.249 . S
O1945 U1926 2.420 . S
O1945 C1930 1.202 . S
O1946 U1926 2.455 . S
O1946 C1943 1.301 . S
O1947 U1926 2.449 . S
O1947 C1943 1.282 . S
H1948 C1921 0.931 . S
H1949 C1923 0.929 . S
H1950 C1924 0.930 . S
H1951 C1925 0.931 . S
H1952 C1932 0.932 . S
H1953 C1933 0.930 . S
H1954 C1934 0.929 . S
H1955 C1936 0.930 . S
H1956 C1938 0.932 . S
H1957 C1939 0.929 . S
H1958 C1940 0.928 . S
H1959 C1942 0.932 . S
C1960 C1961 1.264 . S
C1960 C1965 1.479 . S
C1960 C1970 1.465 . S
C1961 C1960 1.264 . S
C1961 C1963 1.339 . S
C1961 H1988 0.931 . S
C1962 C1963 1.395 . S
C1962 C1964 1.320 . S
C1963 C1961 1.339 . S
C1963 C1962 1.395 . S
C1963 H1989 0.929 . S
C1964 C1962 1.320 . S
C1964 C1965 1.405 . S
C1964 H1990 0.930 . S
C1965 C1960 1.479 . S
C1965 C1964 1.405 . S
C1965 H1991 0.931 . S
U1966 O1967 2.454 . S
U1966 O1968 2.458 . S
U1966 C1969 2.984 . S
U1966 C1970 2.847 . S
U1966 C1983 2.882 . S
U1966 O1984 2.441 . S
U1966 O1985 2.420 . S
U1966 O1986 2.455 . S
U1966 O1987 2.449 . S
O1967 U1966 2.454 . S
O1967 C1969 1.353 . S
O1968 U1966 2.458 . S
O1968 C1969 1.286 . S
C1969 U1966 2.984 . S
C1969 O1967 1.353 . S
C1969 O1968 1.286 . S
C1969 C1971 1.363 . S
C1970 C1960 1.465 . S
C1970 U1966 2.847 . S
C1970 O1984 1.249 . S
C1970 O1985 1.202 . S
C1971 C1969 1.363 . S
C1971 C1973 1.408 . S
C1971 C1976 1.342 . S
C1972 C1973 1.310 . S
C1972 C1975 1.461 . S
C1972 H1992 0.932 . S
C1973 C1971 1.408 . S
C1973 C1972 1.310 . S
C1973 H1993 0.930 . S
C1974 C1975 1.474 . S
C1974 C1976 1.285 . S
C1974 H1994 0.929 . S
C1975 C1972 1.461 . S
C1975 C1974 1.474 . S
C1976 C1971 1.342 . S
C1976 C1974 1.285 . S
C1976 H1995 0.930 . S
C1977 C1980 1.424 . S
C1977 C1982 1.245 . S
C1977 C1983 1.428 . S
C1978 C1981 1.260 . S
C1978 C1982 1.477 . S
C1978 H1996 0.932 . S
C1979 C1980 1.384 . S
C1979 C1981 1.479 . S
C1979 H1997 0.929 . S
C1980 C1977 1.424 . S
C1980 C1979 1.384 . S
C1980 H1998 0.928 . S
C1981 C1978 1.260 . S
C1981 C1979 1.479 . S
C1982 C1977 1.245 . S
C1982 C1978 1.477 . S
C1982 H1999 0.932 . S
C1983 U1966 2.882 . S
C1983 C1977 1.428 . S
C1983 O1986 1.301 . S
C1983 O1987 1.282 . S
O1984 U1966 2.441 . S
O1984 C1970 1.249 . S
O1985 U1966 2.420 . S
O1985 C1970 1.202 . S
O1986 U1966 2.455 . S
O1986 C1983 1.301 . S
O1987 U1966 2.449 . S
O1987 C1983 1.282 . S
H1988 C1961 0.931 . S
H1989 C1963 0.929 . S
H1990 C1964 0.930 . S
H1991 C1965 0.931 . S
H1992 C1972 0.932 . S
H1993 C1973 0.930 . S
H1994 C1974 0.929 . S
H1995 C1976 0.930 . S
H1996 C1978 0.932 . S
H1997 C1979 0.929 . S
H1998 C1980 0.928 . S
H1999 C1982 0.932 . S
C2000 C2001 1.264 . S
C2000 C2005 1.479 . S
C2000 C2010 1.465 . S
C2001 C2000 1.264 . S
C2001 C2003 1.339 . S
C2001 H2028 0.931 . S
C2002 C2003 1.395 . S
C2002 C2004 1.320 . S
C2003 C2001 1.339 . S
C2003 C2002 1.395 . S
C2003 H2029 0.929 . S
C2004 C2002 1.320 . S
C2004 C2005 1.405 . S
C2004 H2030 0.930 . S
C2005 C2000 1.479 . S
C2005 C2004 1.405 . S
C2005 H2031 0.931 . S
U2006 O2007 2.454 . S
U2006 O2008 2.458 . S
U2006 C2009 2.984 . S
U2006 C2010 2.847 . S
U2006 C2023 2.882 . S
U2006 O2024 2.441 . S
U2006 O2025 2.420 . S
U2006 O2026 2.455 . S
U2006 O2027 2.449 . S
O2007 U2006 2.454 . S
O2007 C2009 1.353 . S
O2008 U2006 2.458 . S
O2008 C2009 1.286 . S
C2009 U2006 2.984 . S
C2009 O2007 1.353 . S
C2009 O2008 1.286 . S
C2009 C2011 1.363 . S
C2010 C2000 1.465 . S
C2010 U2006 2.847 . S
C2010 O2024 1.249 . S
C2010 O2025 1.202 . S
C2011 C2009 1.363 . S
C2011 C2013 1.408 . S
C2011 C2016 1.342 . S
C2012 C2013 1.310 . S
C2012 C2015 1.461 . S
C2012 H2032 0.932 . S
C2013 C2011 1.408 . S
C2013 C2012 1.310 . S
C2013 H2033 0.930 . S
C2014 C2015 1.474 . S
C2014 C2016 1.285 . S
C2014 H2034 0.929 . S
C2015 C2012 1.461 . S
C2015 C2014 1.474 . S
C2016 C2011 1.342 . S
C2016 C2014 1.285 . S
C2016 H2035 0.930 . S
C2017 C2020 1.424 . S
C2017 C2022 1.245 . S
C2017 C2023 1.428 . S
C2018 C2021 1.260 . S
C2018 C2022 1.477 . S
C2018 H2036 0.932 . S
C2019 C2020 1.384 . S
C2019 C2021 1.479 . S
C2019 H2037 0.929 . S
C2020 C2017 1.424 . S
C2020 C2019 1.384 . S
C2020 H2038 0.928 . S
C2021 C2018 1.260 . S
C2021 C2019 1.479 . S
C2022 C2017 1.245 . S
C2022 C2018 1.477 . S
C2022 H2039 0.932 . S
C2023 U2006 2.882 . S
C2023 C2017 1.428 . S
C2023 O2026 1.301 . S
C2023 O2027 1.282 . S
O2024 U2006 2.441 . S
O2024 C2010 1.249 . S
O2025 U2006 2.420 . S
O2025 C2010 1.202 . S
O2026 U2006 2.455 . S
O2026 C2023 1.301 . S
O2027 U2006 2.449 . S
O2027 C2023 1.282 . S
H2028 C2001 0.931 . S
H2029 C2003 0.929 . S
H2030 C2004 0.930 . S
H2031 C2005 0.931 . S
H2032 C2012 0.932 . S
H2033 C2013 0.930 . S
H2034 C2014 0.929 . S
H2035 C2016 0.930 . S
H2036 C2018 0.932 . S
H2037 C2019 0.929 . S
H2038 C2020 0.928 . S
H2039 C2022 0.932 . S
C2040 C2041 1.264 . S
C2040 C2045 1.479 . S
C2040 C2050 1.465 . S
C2041 C2040 1.264 . S
C2041 C2043 1.339 . S
C2041 H2068 0.931 . S
C2042 C2043 1.395 . S
C2042 C2044 1.320 . S
C2043 C2041 1.339 . S
C2043 C2042 1.395 . S
C2043 H2069 0.929 . S
C2044 C2042 1.320 . S
C2044 C2045 1.405 . S
C2044 H2070 0.930 . S
C2045 C2040 1.479 . S
C2045 C2044 1.405 . S
C2045 H2071 0.931 . S
U2046 O2047 2.454 . S
U2046 O2048 2.458 . S
U2046 C2049 2.984 . S
U2046 C2050 2.847 . S
U2046 C2063 2.882 . S
U2046 O2064 2.441 . S
U2046 O2065 2.420 . S
U2046 O2066 2.455 . S
U2046 O2067 2.449 . S
O2047 U2046 2.454 . S
O2047 C2049 1.353 . S
O2048 U2046 2.458 . S
O2048 C2049 1.286 . S
C2049 U2046 2.984 . S
C2049 O2047 1.353 . S
C2049 O2048 1.286 . S
C2049 C2051 1.363 . S
C2050 C2040 1.465 . S
C2050 U2046 2.847 . S
C2050 O2064 1.249 . S
C2050 O2065 1.202 . S
C2051 C2049 1.363 . S
C2051 C2053 1.408 . S
C2051 C2056 1.342 . S
C2052 C2053 1.310 . S
C2052 C2055 1.461 . S
C2052 H2072 0.932 . S
C2053 C2051 1.408 . S
C2053 C2052 1.310 . S
C2053 H2073 0.930 . S
C2054 C2055 1.474 . S
C2054 C2056 1.285 . S
C2054 H2074 0.929 . S
C2055 C2052 1.461 . S
C2055 C2054 1.474 . S
C2056 C2051 1.342 . S
C2056 C2054 1.285 . S
C2056 H2075 0.930 . S
C2057 C2060 1.424 . S
C2057 C2062 1.245 . S
C2057 C2063 1.428 . S
C2058 C2061 1.260 . S
C2058 C2062 1.477 . S
C2058 H2076 0.932 . S
C2059 C2060 1.384 . S
C2059 C2061 1.479 . S
C2059 H2077 0.929 . S
C2060 C2057 1.424 . S
C2060 C2059 1.384 . S
C2060 H2078 0.928 . S
C2061 C2058 1.260 . S
C2061 C2059 1.479 . S
C2062 C2057 1.245 . S
C2062 C2058 1.477 . S
C2062 H2079 0.932 . S
C2063 U2046 2.882 . S
C2063 C2057 1.428 . S
C2063 O2066 1.301 . S
C2063 O2067 1.282 . S
O2064 U2046 2.441 . S
O2064 C2050 1.249 . S
O2065 U2046 2.420 . S
O2065 C2050 1.202 . S
O2066 U2046 2.455 . S
O2066 C2063 1.301 . S
O2067 U2046 2.449 . S
O2067 C2063 1.282 . S
H2068 C2041 0.931 . S
H2069 C2043 0.929 . S
H2070 C2044 0.930 . S
H2071 C2045 0.931 . S
H2072 C2052 0.932 . S
H2073 C2053 0.930 . S
H2074 C2054 0.929 . S
H2075 C2056 0.930 . S
H2076 C2058 0.932 . S
H2077 C2059 0.929 . S
H2078 C2060 0.928 . S
H2079 C2062 0.932 . S
C2080 C2081 1.264 . S
C2080 C2085 1.479 . S
C2080 C2090 1.465 . S
C2081 C2080 1.264 . S
C2081 C2083 1.339 . S
C2081 H2108 0.931 . S
C2082 C2083 1.395 . S
C2082 C2084 1.320 . S
C2083 C2081 1.339 . S
C2083 C2082 1.395 . S
C2083 H2109 0.929 . S
C2084 C2082 1.320 . S
C2084 C2085 1.405 . S
C2084 H2110 0.930 . S
C2085 C2080 1.479 . S
C2085 C2084 1.405 . S
C2085 H2111 0.931 . S
U2086 O2087 2.454 . S
U2086 O2088 2.458 . S
U2086 C2089 2.984 . S
U2086 C2090 2.847 . S
U2086 C2103 2.882 . S
U2086 O2104 2.441 . S
U2086 O2105 2.420 . S
U2086 O2106 2.455 . S
U2086 O2107 2.449 . S
O2087 U2086 2.454 . S
O2087 C2089 1.353 . S
O2088 U2086 2.458 . S
O2088 C2089 1.286 . S
C2089 U2086 2.984 . S
C2089 O2087 1.353 . S
C2089 O2088 1.286 . S
C2089 C2091 1.363 . S
C2090 C2080 1.465 . S
C2090 U2086 2.847 . S
C2090 O2104 1.249 . S
C2090 O2105 1.202 . S
C2091 C2089 1.363 . S
C2091 C2093 1.408 . S
C2091 C2096 1.342 . S
C2092 C2093 1.310 . S
C2092 C2095 1.461 . S
C2092 H2112 0.932 . S
C2093 C2091 1.408 . S
C2093 C2092 1.310 . S
C2093 H2113 0.930 . S
C2094 C2095 1.474 . S
C2094 C2096 1.285 . S
C2094 H2114 0.929 . S
C2095 C2092 1.461 . S
C2095 C2094 1.474 . S
C2096 C2091 1.342 . S
C2096 C2094 1.285 . S
C2096 H2115 0.930 . S
C2097 C2100 1.424 . S
C2097 C2102 1.245 . S
C2097 C2103 1.428 . S
C2098 C2101 1.260 . S
C2098 C2102 1.477 . S
C2098 H2116 0.932 . S
C2099 C2100 1.384 . S
C2099 C2101 1.479 . S
C2099 H2117 0.929 . S
C2100 C2097 1.424 . S
C2100 C2099 1.384 . S
C2100 H2118 0.928 . S
C2101 C2098 1.260 . S
C2101 C2099 1.479 . S
C2102 C2097 1.245 . S
C2102 C2098 1.477 . S
C2102 H2119 0.932 . S
C2103 U2086 2.882 . S
C2103 C2097 1.428 . S
C2103 O2106 1.301 . S
C2103 O2107 1.282 . S
O2104 U2086 2.441 . S
O2104 C2090 1.249 . S
O2105 U2086 2.420 . S
O2105 C2090 1.202 . S
O2106 U2086 2.455 . S
O2106 C2103 1.301 . S
O2107 U2086 2.449 . S
O2107 C2103 1.282 . S
H2108 C2081 0.931 . S
H2109 C2083 0.929 . S
H2110 C2084 0.930 . S
H2111 C2085 0.931 . S
H2112 C2092 0.932 . S
H2113 C2093 0.930 . S
H2114 C2094 0.929 . S
H2115 C2096 0.930 . S
H2116 C2098 0.932 . S
H2117 C2099 0.929 . S
H2118 C2100 0.928 . S
H2119 C2102 0.932 . S
C2120 C2121 1.264 . S
C2120 C2125 1.479 . S
C2120 C2130 1.465 . S
C2121 C2120 1.264 . S
C2121 C2123 1.339 . S
C2121 H2148 0.931 . S
C2122 C2123 1.395 . S
C2122 C2124 1.320 . S
C2123 C2121 1.339 . S
C2123 C2122 1.395 . S
C2123 H2149 0.929 . S
C2124 C2122 1.320 . S
C2124 C2125 1.405 . S
C2124 H2150 0.930 . S
C2125 C2120 1.479 . S
C2125 C2124 1.405 . S
C2125 H2151 0.931 . S
U2126 O2127 2.454 . S
U2126 O2128 2.458 . S
U2126 C2129 2.984 . S
U2126 C2130 2.847 . S
U2126 C2143 2.882 . S
U2126 O2144 2.441 . S
U2126 O2145 2.420 . S
U2126 O2146 2.455 . S
U2126 O2147 2.449 . S
O2127 U2126 2.454 . S
O2127 C2129 1.353 . S
O2128 U2126 2.458 . S
O2128 C2129 1.286 . S
C2129 U2126 2.984 . S
C2129 O2127 1.353 . S
C2129 O2128 1.286 . S
C2129 C2131 1.363 . S
C2130 C2120 1.465 . S
C2130 U2126 2.847 . S
C2130 O2144 1.249 . S
C2130 O2145 1.202 . S
C2131 C2129 1.363 . S
C2131 C2133 1.408 . S
C2131 C2136 1.342 . S
C2132 C2133 1.310 . S
C2132 C2135 1.461 . S
C2132 H2152 0.932 . S
C2133 C2131 1.408 . S
C2133 C2132 1.310 . S
C2133 H2153 0.930 . S
C2134 C2135 1.474 . S
C2134 C2136 1.285 . S
C2134 H2154 0.929 . S
C2135 C2132 1.461 . S
C2135 C2134 1.474 . S
C2136 C2131 1.342 . S
C2136 C2134 1.285 . S
C2136 H2155 0.930 . S
C2137 C2140 1.424 . S
C2137 C2142 1.245 . S
C2137 C2143 1.428 . S
C2138 C2141 1.260 . S
C2138 C2142 1.477 . S
C2138 H2156 0.932 . S
C2139 C2140 1.384 . S
C2139 C2141 1.479 . S
C2139 H2157 0.929 . S
C2140 C2137 1.424 . S
C2140 C2139 1.384 . S
C2140 H2158 0.928 . S
C2141 C2138 1.260 . S
C2141 C2139 1.479 . S
C2142 C2137 1.245 . S
C2142 C2138 1.477 . S
C2142 H2159 0.932 . S
C2143 U2126 2.882 . S
C2143 C2137 1.428 . S
C2143 O2146 1.301 . S
C2143 O2147 1.282 . S
O2144 U2126 2.441 . S
O2144 C2130 1.249 . S
O2145 U2126 2.420 . S
O2145 C2130 1.202 . S
O2146 U2126 2.455 . S
O2146 C2143 1.301 . S
O2147 U2126 2.449 . S
O2147 C2143 1.282 . S
H2148 C2121 0.931 . S
H2149 C2123 0.929 . S
H2150 C2124 0.930 . S
H2151 C2125 0.931 . S
H2152 C2132 0.932 . S
H2153 C2133 0.930 . S
H2154 C2134 0.929 . S
H2155 C2136 0.930 . S
H2156 C2138 0.932 . S
H2157 C2139 0.929 . S
H2158 C2140 0.928 . S
H2159 C2142 0.932 . S
C2160 C2161 1.264 . S
C2160 C2165 1.479 . S
C2160 C2170 1.465 . S
C2161 C2160 1.264 . S
C2161 C2163 1.339 . S
C2161 H2188 0.931 . S
C2162 C2163 1.395 . S
C2162 C2164 1.320 . S
C2163 C2161 1.339 . S
C2163 C2162 1.395 . S
C2163 H2189 0.929 . S
C2164 C2162 1.320 . S
C2164 C2165 1.405 . S
C2164 H2190 0.930 . S
C2165 C2160 1.479 . S
C2165 C2164 1.405 . S
C2165 H2191 0.931 . S
U2166 O2167 2.454 . S
U2166 O2168 2.458 . S
U2166 C2169 2.984 . S
U2166 C2170 2.847 . S
U2166 C2183 2.882 . S
U2166 O2184 2.441 . S
U2166 O2185 2.420 . S
U2166 O2186 2.455 . S
U2166 O2187 2.449 . S
O2167 U2166 2.454 . S
O2167 C2169 1.353 . S
O2168 U2166 2.458 . S
O2168 C2169 1.286 . S
C2169 U2166 2.984 . S
C2169 O2167 1.353 . S
C2169 O2168 1.286 . S
C2169 C2171 1.363 . S
C2170 C2160 1.465 . S
C2170 U2166 2.847 . S
C2170 O2184 1.249 . S
C2170 O2185 1.202 . S
C2171 C2169 1.363 . S
C2171 C2173 1.408 . S
C2171 C2176 1.342 . S
C2172 C2173 1.310 . S
C2172 C2175 1.461 . S
C2172 H2192 0.932 . S
C2173 C2171 1.408 . S
C2173 C2172 1.310 . S
C2173 H2193 0.930 . S
C2174 C2175 1.474 . S
C2174 C2176 1.285 . S
C2174 H2194 0.929 . S
C2175 C2172 1.461 . S
C2175 C2174 1.474 . S
C2176 C2171 1.342 . S
C2176 C2174 1.285 . S
C2176 H2195 0.930 . S
C2177 C2180 1.424 . S
C2177 C2182 1.245 . S
C2177 C2183 1.428 . S
C2178 C2181 1.260 . S
C2178 C2182 1.477 . S
C2178 H2196 0.932 . S
C2179 C2180 1.384 . S
C2179 C2181 1.479 . S
C2179 H2197 0.929 . S
C2180 C2177 1.424 . S
C2180 C2179 1.384 . S
C2180 H2198 0.928 . S
C2181 C2178 1.260 . S
C2181 C2179 1.479 . S
C2182 C2177 1.245 . S
C2182 C2178 1.477 . S
C2182 H2199 0.932 . S
C2183 U2166 2.882 . S
C2183 C2177 1.428 . S
C2183 O2186 1.301 . S
C2183 O2187 1.282 . S
O2184 U2166 2.441 . S
O2184 C2170 1.249 . S
O2185 U2166 2.420 . S
O2185 C2170 1.202 . S
O2186 U2166 2.455 . S
O2186 C2183 1.301 . S
O2187 U2166 2.449 . S
O2187 C2183 1.282 . S
H2188 C2161 0.931 . S
H2189 C2163 0.929 . S
H2190 C2164 0.930 . S
H2191 C2165 0.931 . S
H2192 C2172 0.932 . S
H2193 C2173 0.930 . S
H2194 C2174 0.929 . S
H2195 C2176 0.930 . S
H2196 C2178 0.932 . S
H2197 C2179 0.929 . S
H2198 C2180 0.928 . S
H2199 C2182 0.932 . S
C2200 C2201 1.264 . S
C2200 C2205 1.479 . S
C2200 C2210 1.465 . S
C2201 C2200 1.264 . S
C2201 C2203 1.339 . S
C2201 H2228 0.931 . S
C2202 C2203 1.395 . S
C2202 C2204 1.320 . S
C2203 C2201 1.339 . S
C2203 C2202 1.395 . S
C2203 H2229 0.929 . S
C2204 C2202 1.320 . S
C2204 C2205 1.405 . S
C2204 H2230 0.930 . S
C2205 C2200 1.479 . S
C2205 C2204 1.405 . S
C2205 H2231 0.931 . S
U2206 O2207 2.454 . S
U2206 O2208 2.458 . S
U2206 C2209 2.984 . S
U2206 C2210 2.847 . S
U2206 C2223 2.882 . S
U2206 O2224 2.441 . S
U2206 O2225 2.420 . S
U2206 O2226 2.455 . S
U2206 O2227 2.449 . S
O2207 U2206 2.454 . S
O2207 C2209 1.353 . S
O2208 U2206 2.458 . S
O2208 C2209 1.286 . S
C2209 U2206 2.984 . S
C2209 O2207 1.353 . S
C2209 O2208 1.286 . S
C2209 C2211 1.363 . S
C2210 C2200 1.465 . S
C2210 U2206 2.847 . S
C2210 O2224 1.249 . S
C2210 O2225 1.202 . S
C2211 C2209 1.363 . S
C2211 C2213 1.408 . S
C2211 C2216 1.342 . S
C2212 C2213 1.310 . S
C2212 C2215 1.461 . S
C2212 H2232 0.932 . S
C2213 C2211 1.408 . S
C2213 C2212 1.310 . S
C2213 H2233 0.930 . S
C2214 C2215 1.474 . S
C2214 C2216 1.285 . S
C2214 H2234 0.929 . S
C2215 C2212 1.461 . S
C2215 C2214 1.474 . S
C2216 C2211 1.342 . S
C2216 C2214 1.285 . S
C2216 H2235 0.930 . S
C2217 C2220 1.424 . S
C2217 C2222 1.245 . S
C2217 C2223 1.428 . S
C2218 C2221 1.260 . S
C2218 C2222 1.477 . S
C2218 H2236 0.932 . S
C2219 C2220 1.384 . S
C2219 C2221 1.479 . S
C2219 H2237 0.929 . S
C2220 C2217 1.424 . S
C2220 C2219 1.384 . S
C2220 H2238 0.928 . S
C2221 C2218 1.260 . S
C2221 C2219 1.479 . S
C2222 C2217 1.245 . S
C2222 C2218 1.477 . S
C2222 H2239 0.932 . S
C2223 U2206 2.882 . S
C2223 C2217 1.428 . S
C2223 O2226 1.301 . S
C2223 O2227 1.282 . S
O2224 U2206 2.441 . S
O2224 C2210 1.249 . S
O2225 U2206 2.420 . S
O2225 C2210 1.202 . S
O2226 U2206 2.455 . S
O2226 C2223 1.301 . S
O2227 U2206 2.449 . S
O2227 C2223 1.282 . S
H2228 C2201 0.931 . S
H2229 C2203 0.929 . S
H2230 C2204 0.930 . S
H2231 C2205 0.931 . S
H2232 C2212 0.932 . S
H2233 C2213 0.930 . S
H2234 C2214 0.929 . S
H2235 C2216 0.930 . S
H2236 C2218 0.932 . S
H2237 C2219 0.929 . S
H2238 C2220 0.928 . S
H2239 C2222 0.932 . S
C2240 C2241 1.264 . S
C2240 C2245 1.479 . S
C2240 C2250 1.465 . S
C2241 C2240 1.264 . S
C2241 C2243 1.339 . S
C2241 H2268 0.931 . S
C2242 C2243 1.395 . S
C2242 C2244 1.320 . S
C2243 C2241 1.339 . S
C2243 C2242 1.395 . S
C2243 H2269 0.929 . S
C2244 C2242 1.320 . S
C2244 C2245 1.405 . S
C2244 H2270 0.930 . S
C2245 C2240 1.479 . S
C2245 C2244 1.405 . S
C2245 H2271 0.931 . S
U2246 O2247 2.454 . S
U2246 O2248 2.458 . S
U2246 C2249 2.984 . S
U2246 C2250 2.847 . S
U2246 C2263 2.882 . S
U2246 O2264 2.441 . S
U2246 O2265 2.420 . S
U2246 O2266 2.455 . S
U2246 O2267 2.449 . S
O2247 U2246 2.454 . S
O2247 C2249 1.353 . S
O2248 U2246 2.458 . S
O2248 C2249 1.286 . S
C2249 U2246 2.984 . S
C2249 O2247 1.353 . S
C2249 O2248 1.286 . S
C2249 C2251 1.363 . S
C2250 C2240 1.465 . S
C2250 U2246 2.847 . S
C2250 O2264 1.249 . S
C2250 O2265 1.202 . S
C2251 C2249 1.363 . S
C2251 C2253 1.408 . S
C2251 C2256 1.342 . S
C2252 C2253 1.310 . S
C2252 C2255 1.461 . S
C2252 H2272 0.932 . S
C2253 C2251 1.408 . S
C2253 C2252 1.310 . S
C2253 H2273 0.930 . S
C2254 C2255 1.474 . S
C2254 C2256 1.285 . S
C2254 H2274 0.929 . S
C2255 C2252 1.461 . S
C2255 C2254 1.474 . S
C2256 C2251 1.342 . S
C2256 C2254 1.285 . S
C2256 H2275 0.930 . S
C2257 C2260 1.424 . S
C2257 C2262 1.245 . S
C2257 C2263 1.428 . S
C2258 C2261 1.260 . S
C2258 C2262 1.477 . S
C2258 H2276 0.932 . S
C2259 C2260 1.384 . S
C2259 C2261 1.479 . S
C2259 H2277 0.929 . S
C2260 C2257 1.424 . S
C2260 C2259 1.384 . S
C2260 H2278 0.928 . S
C2261 C2258 1.260 . S
C2261 C2259 1.479 . S
C2262 C2257 1.245 . S
C2262 C2258 1.477 . S
C2262 H2279 0.932 . S
C2263 U2246 2.882 . S
C2263 C2257 1.428 . S
C2263 O2266 1.301 . S
C2263 O2267 1.282 . S
O2264 U2246 2.441 . S
O2264 C2250 1.249 . S
O2265 U2246 2.420 . S
O2265 C2250 1.202 . S
O2266 U2246 2.455 . S
O2266 C2263 1.301 . S
O2267 U2246 2.449 . S
O2267 C2263 1.282 . S
H2268 C2241 0.931 . S
H2269 C2243 0.929 . S
H2270 C2244 0.930 . S
H2271 C2245 0.931 . S
H2272 C2252 0.932 . S
H2273 C2253 0.930 . S
H2274 C2254 0.929 . S
H2275 C2256 0.930 . S
H2276 C2258 0.932 . S
H2277 C2259 0.929 . S
H2278 C2260 0.928 . S
H2279 C2262 0.932 . S
C2280 C2281 1.264 . S
C2280 C2285 1.479 . S
C2280 C2290 1.465 . S
C2281 C2280 1.264 . S
C2281 C2283 1.339 . S
C2281 H2308 0.931 . S
C2282 C2283 1.395 . S
C2282 C2284 1.320 . S
C2283 C2281 1.339 . S
C2283 C2282 1.395 . S
C2283 H2309 0.929 . S
C2284 C2282 1.320 . S
C2284 C2285 1.405 . S
C2284 H2310 0.930 . S
C2285 C2280 1.479 . S
C2285 C2284 1.405 . S
C2285 H2311 0.931 . S
U2286 O2287 2.454 . S
U2286 O2288 2.458 . S
U2286 C2289 2.984 . S
U2286 C2290 2.847 . S
U2286 C2303 2.882 . S
U2286 O2304 2.441 . S
U2286 O2305 2.420 . S
U2286 O2306 2.455 . S
U2286 O2307 2.449 . S
O2287 U2286 2.454 . S
O2287 C2289 1.353 . S
O2288 U2286 2.458 . S
O2288 C2289 1.286 . S
C2289 U2286 2.984 . S
C2289 O2287 1.353 . S
C2289 O2288 1.286 . S
C2289 C2291 1.363 . S
C2290 C2280 1.465 . S
C2290 U2286 2.847 . S
C2290 O2304 1.249 . S
C2290 O2305 1.202 . S
C2291 C2289 1.363 . S
C2291 C2293 1.408 . S
C2291 C2296 1.342 . S
C2292 C2293 1.310 . S
C2292 C2295 1.461 . S
C2292 H2312 0.932 . S
C2293 C2291 1.408 . S
C2293 C2292 1.310 . S
C2293 H2313 0.930 . S
C2294 C2295 1.474 . S
C2294 C2296 1.285 . S
C2294 H2314 0.929 . S
C2295 C2292 1.461 . S
C2295 C2294 1.474 . S
C2296 C2291 1.342 . S
C2296 C2294 1.285 . S
C2296 H2315 0.930 . S
C2297 C2300 1.424 . S
C2297 C2302 1.245 . S
C2297 C2303 1.428 . S
C2298 C2301 1.260 . S
C2298 C2302 1.477 . S
C2298 H2316 0.932 . S
C2299 C2300 1.384 . S
C2299 C2301 1.479 . S
C2299 H2317 0.929 . S
C2300 C2297 1.424 . S
C2300 C2299 1.384 . S
C2300 H2318 0.928 . S
C2301 C2298 1.260 . S
C2301 C2299 1.479 . S
C2302 C2297 1.245 . S
C2302 C2298 1.477 . S
C2302 H2319 0.932 . S
C2303 U2286 2.882 . S
C2303 C2297 1.428 . S
C2303 O2306 1.301 . S
C2303 O2307 1.282 . S
O2304 U2286 2.441 . S
O2304 C2290 1.249 . S
O2305 U2286 2.420 . S
O2305 C2290 1.202 . S
O2306 U2286 2.455 . S
O2306 C2303 1.301 . S
O2307 U2286 2.449 . S
O2307 C2303 1.282 . S
H2308 C2281 0.931 . S
H2309 C2283 0.929 . S
H2310 C2284 0.930 . S
H2311 C2285 0.931 . S
H2312 C2292 0.932 . S
H2313 C2293 0.930 . S
H2314 C2294 0.929 . S
H2315 C2296 0.930 . S
H2316 C2298 0.932 . S
H2317 C2299 0.929 . S
H2318 C2300 0.928 . S
H2319 C2302 0.932 . S
C2320 C2321 1.264 . S
C2320 C2325 1.479 . S
C2320 C2330 1.465 . S
C2321 C2320 1.264 . S
C2321 C2323 1.339 . S
C2321 H2348 0.931 . S
C2322 C2323 1.395 . S
C2322 C2324 1.320 . S
C2323 C2321 1.339 . S
C2323 C2322 1.395 . S
C2323 H2349 0.929 . S
C2324 C2322 1.320 . S
C2324 C2325 1.405 . S
C2324 H2350 0.930 . S
C2325 C2320 1.479 . S
C2325 C2324 1.405 . S
C2325 H2351 0.931 . S
U2326 O2327 2.454 . S
U2326 O2328 2.458 . S
U2326 C2329 2.984 . S
U2326 C2330 2.847 . S
U2326 C2343 2.882 . S
U2326 O2344 2.441 . S
U2326 O2345 2.420 . S
U2326 O2346 2.455 . S
U2326 O2347 2.449 . S
O2327 U2326 2.454 . S
O2327 C2329 1.353 . S
O2328 U2326 2.458 . S
O2328 C2329 1.286 . S
C2329 U2326 2.984 . S
C2329 O2327 1.353 . S
C2329 O2328 1.286 . S
C2329 C2331 1.363 . S
C2330 C2320 1.465 . S
C2330 U2326 2.847 . S
C2330 O2344 1.249 . S
C2330 O2345 1.202 . S
C2331 C2329 1.363 . S
C2331 C2333 1.408 . S
C2331 C2336 1.342 . S
C2332 C2333 1.310 . S
C2332 C2335 1.461 . S
C2332 H2352 0.932 . S
C2333 C2331 1.408 . S
C2333 C2332 1.310 . S
C2333 H2353 0.930 . S
C2334 C2335 1.474 . S
C2334 C2336 1.285 . S
C2334 H2354 0.929 . S
C2335 C2332 1.461 . S
C2335 C2334 1.474 . S
C2336 C2331 1.342 . S
C2336 C2334 1.285 . S
C2336 H2355 0.930 . S
C2337 C2340 1.424 . S
C2337 C2342 1.245 . S
C2337 C2343 1.428 . S
C2338 C2341 1.260 . S
C2338 C2342 1.477 . S
C2338 H2356 0.932 . S
C2339 C2340 1.384 . S
C2339 C2341 1.479 . S
C2339 H2357 0.929 . S
C2340 C2337 1.424 . S
C2340 C2339 1.384 . S
C2340 H2358 0.928 . S
C2341 C2338 1.260 . S
C2341 C2339 1.479 . S
C2342 C2337 1.245 . S
C2342 C2338 1.477 . S
C2342 H2359 0.932 . S
C2343 U2326 2.882 . S
C2343 C2337 1.428 . S
C2343 O2346 1.301 . S
C2343 O2347 1.282 . S
O2344 U2326 2.441 . S
O2344 C2330 1.249 . S
O2345 U2326 2.420 . S
O2345 C2330 1.202 . S
O2346 U2326 2.455 . S
O2346 C2343 1.301 . S
O2347 U2326 2.449 . S
O2347 C2343 1.282 . S
H2348 C2321 0.931 . S
H2349 C2323 0.929 . S
H2350 C2324 0.930 . S
H2351 C2325 0.931 . S
H2352 C2332 0.932 . S
H2353 C2333 0.930 . S
H2354 C2334 0.929 . S
H2355 C2336 0.930 . S
H2356 C2338 0.932 . S
H2357 C2339 0.929 . S
H2358 C2340 0.928 . S
H2359 C2342 0.932 . S
C2360 C2361 1.264 . S
C2360 C2365 1.479 . S
C2360 C2370 1.465 . S
C2361 C2360 1.264 . S
C2361 C2363 1.339 . S
C2361 H2388 0.931 . S
C2362 C2363 1.395 . S
C2362 C2364 1.320 . S
C2363 C2361 1.339 . S
C2363 C2362 1.395 . S
C2363 H2389 0.929 . S
C2364 C2362 1.320 . S
C2364 C2365 1.405 . S
C2364 H2390 0.930 . S
C2365 C2360 1.479 . S
C2365 C2364 1.405 . S
C2365 H2391 0.931 . S
U2366 O2367 2.454 . S
U2366 O2368 2.458 . S
U2366 C2369 2.984 . S
U2366 C2370 2.847 . S
U2366 C2383 2.882 . S
U2366 O2384 2.441 . S
U2366 O2385 2.420 . S
U2366 O2386 2.455 . S
U2366 O2387 2.449 . S
O2367 U2366 2.454 . S
O2367 C2369 1.353 . S
O2368 U2366 2.458 . S
O2368 C2369 1.286 . S
C2369 U2366 2.984 . S
C2369 O2367 1.353 . S
C2369 O2368 1.286 . S
C2369 C2371 1.363 . S
C2370 C2360 1.465 . S
C2370 U2366 2.847 . S
C2370 O2384 1.249 . S
C2370 O2385 1.202 . S
C2371 C2369 1.363 . S
C2371 C2373 1.408 . S
C2371 C2376 1.342 . S
C2372 C2373 1.310 . S
C2372 C2375 1.461 . S
C2372 H2392 0.932 . S
C2373 C2371 1.408 . S
C2373 C2372 1.310 . S
C2373 H2393 0.930 . S
C2374 C2375 1.474 . S
C2374 C2376 1.285 . S
C2374 H2394 0.929 . S
C2375 C2372 1.461 . S
C2375 C2374 1.474 . S
C2376 C2371 1.342 . S
C2376 C2374 1.285 . S
C2376 H2395 0.930 . S
C2377 C2380 1.424 . S
C2377 C2382 1.245 . S
C2377 C2383 1.428 . S
C2378 C2381 1.260 . S
C2378 C2382 1.477 . S
C2378 H2396 0.932 . S
C2379 C2380 1.384 . S
C2379 C2381 1.479 . S
C2379 H2397 0.929 . S
C2380 C2377 1.424 . S
C2380 C2379 1.384 . S
C2380 H2398 0.928 . S
C2381 C2378 1.260 . S
C2381 C2379 1.479 . S
C2382 C2377 1.245 . S
C2382 C2378 1.477 . S
C2382 H2399 0.932 . S
C2383 U2366 2.882 . S
C2383 C2377 1.428 . S
C2383 O2386 1.301 . S
C2383 O2387 1.282 . S
O2384 U2366 2.441 . S
O2384 C2370 1.249 . S
O2385 U2366 2.420 . S
O2385 C2370 1.202 . S
O2386 U2366 2.455 . S
O2386 C2383 1.301 . S
O2387 U2366 2.449 . S
O2387 C2383 1.282 . S
H2388 C2361 0.931 . S
H2389 C2363 0.929 . S
H2390 C2364 0.930 . S
H2391 C2365 0.931 . S
H2392 C2372 0.932 . S
H2393 C2373 0.930 . S
H2394 C2374 0.929 . S
H2395 C2376 0.930 . S
H2396 C2378 0.932 . S
H2397 C2379 0.929 . S
H2398 C2380 0.928 . S
H2399 C2382 0.932 . S
C2400 C2401 1.264 . S
C2400 C2405 1.479 . S
C2400 C2410 1.465 . S
C2401 C2400 1.264 . S
C2401 C2403 1.339 . S
C2401 H2428 0.931 . S
C2402 C2403 1.395 . S
C2402 C2404 1.320 . S
C2403 C2401 1.339 . S
C2403 C2402 1.395 . S
C2403 H2429 0.929 . S
C2404 C2402 1.320 . S
C2404 C2405 1.405 . S
C2404 H2430 0.930 . S
C2405 C2400 1.479 . S
C2405 C2404 1.405 . S
C2405 H2431 0.931 . S
U2406 O2407 2.454 . S
U2406 O2408 2.458 . S
U2406 C2409 2.984 . S
U2406 C2410 2.847 . S
U2406 C2423 2.882 . S
U2406 O2424 2.441 . S
U2406 O2425 2.420 . S
U2406 O2426 2.455 . S
U2406 O2427 2.449 . S
O2407 U2406 2.454 . S
O2407 C2409 1.353 . S
O2408 U2406 2.458 . S
O2408 C2409 1.286 . S
C2409 U2406 2.984 . S
C2409 O2407 1.353 . S
C2409 O2408 1.286 . S
C2409 C2411 1.363 . S
C2410 C2400 1.465 . S
C2410 U2406 2.847 . S
C2410 O2424 1.249 . S
C2410 O2425 1.202 . S
C2411 C2409 1.363 . S
C2411 C2413 1.408 . S
C2411 C2416 1.342 . S
C2412 C2413 1.310 . S
C2412 C2415 1.461 . S
C2412 H2432 0.932 . S
C2413 C2411 1.408 . S
C2413 C2412 1.310 . S
C2413 H2433 0.930 . S
C2414 C2415 1.474 . S
C2414 C2416 1.285 . S
C2414 H2434 0.929 . S
C2415 C2412 1.461 . S
C2415 C2414 1.474 . S
C2416 C2411 1.342 . S
C2416 C2414 1.285 . S
C2416 H2435 0.930 . S
C2417 C2420 1.424 . S
C2417 C2422 1.245 . S
C2417 C2423 1.428 . S
C2418 C2421 1.260 . S
C2418 C2422 1.477 . S
C2418 H2436 0.932 . S
C2419 C2420 1.384 . S
C2419 C2421 1.479 . S
C2419 H2437 0.929 . S
C2420 C2417 1.424 . S
C2420 C2419 1.384 . S
C2420 H2438 0.928 . S
C2421 C2418 1.260 . S
C2421 C2419 1.479 . S
C2422 C2417 1.245 . S
C2422 C2418 1.477 . S
C2422 H2439 0.932 . S
C2423 U2406 2.882 . S
C2423 C2417 1.428 . S
C2423 O2426 1.301 . S
C2423 O2427 1.282 . S
O2424 U2406 2.441 . S
O2424 C2410 1.249 . S
O2425 U2406 2.420 . S
O2425 C2410 1.202 . S
O2426 U2406 2.455 . S
O2426 C2423 1.301 . S
O2427 U2406 2.449 . S
O2427 C2423 1.282 . S
H2428 C2401 0.931 . S
H2429 C2403 0.929 . S
H2430 C2404 0.930 . S
H2431 C2405 0.931 . S
H2432 C2412 0.932 . S
H2433 C2413 0.930 . S
H2434 C2414 0.929 . S
H2435 C2416 0.930 . S
H2436 C2418 0.932 . S
H2437 C2419 0.929 . S
H2438 C2420 0.928 . S
H2439 C2422 0.932 . S
C2440 C2441 1.264 . S
C2440 C2445 1.479 . S
C2440 C2450 1.465 . S
C2441 C2440 1.264 . S
C2441 C2443 1.339 . S
C2441 H2468 0.931 . S
C2442 C2443 1.395 . S
C2442 C2444 1.320 . S
C2443 C2441 1.339 . S
C2443 C2442 1.395 . S
C2443 H2469 0.929 . S
C2444 C2442 1.320 . S
C2444 C2445 1.405 . S
C2444 H2470 0.930 . S
C2445 C2440 1.479 . S
C2445 C2444 1.405 . S
C2445 H2471 0.931 . S
U2446 O2447 2.454 . S
U2446 O2448 2.458 . S
U2446 C2449 2.984 . S
U2446 C2450 2.847 . S
U2446 C2463 2.882 . S
U2446 O2464 2.441 . S
U2446 O2465 2.420 . S
U2446 O2466 2.455 . S
U2446 O2467 2.449 . S
O2447 U2446 2.454 . S
O2447 C2449 1.353 . S
O2448 U2446 2.458 . S
O2448 C2449 1.286 . S
C2449 U2446 2.984 . S
C2449 O2447 1.353 . S
C2449 O2448 1.286 . S
C2449 C2451 1.363 . S
C2450 C2440 1.465 . S
C2450 U2446 2.847 . S
C2450 O2464 1.249 . S
C2450 O2465 1.202 . S
C2451 C2449 1.363 . S
C2451 C2453 1.408 . S
C2451 C2456 1.342 . S
C2452 C2453 1.310 . S
C2452 C2455 1.461 . S
C2452 H2472 0.932 . S
C2453 C2451 1.408 . S
C2453 C2452 1.310 . S
C2453 H2473 0.930 . S
C2454 C2455 1.474 . S
C2454 C2456 1.285 . S
C2454 H2474 0.929 . S
C2455 C2452 1.461 . S
C2455 C2454 1.474 . S
C2456 C2451 1.342 . S
C2456 C2454 1.285 . S
C2456 H2475 0.930 . S
C2457 C2460 1.424 . S
C2457 C2462 1.245 . S
C2457 C2463 1.428 . S
C2458 C2461 1.260 . S
C2458 C2462 1.477 . S
C2458 H2476 0.932 . S
C2459 C2460 1.384 . S
C2459 C2461 1.479 . S
C2459 H2477 0.929 . S
C2460 C2457 1.424 . S
C2460 C2459 1.384 . S
C2460 H2478 0.928 . S
C2461 C2458 1.260 . S
C2461 C2459 1.479 . S
C2462 C2457 1.245 . S
C2462 C2458 1.477 . S
C2462 H2479 0.932 . S
C2463 U2446 2.882 . S
C2463 C2457 1.428 . S
C2463 O2466 1.301 . S
C2463 O2467 1.282 . S
O2464 U2446 2.441 . S
O2464 C2450 1.249 . S
O2465 U2446 2.420 . S
O2465 C2450 1.202 . S
O2466 U2446 2.455 . S
O2466 C2463 1.301 . S
O2467 U2446 2.449 . S
O2467 C2463 1.282 . S
H2468 C2441 0.931 . S
H2469 C2443 0.929 . S
H2470 C2444 0.930 . S
H2471 C2445 0.931 . S
H2472 C2452 0.932 . S
H2473 C2453 0.930 . S
H2474 C2454 0.929 . S
H2475 C2456 0.930 . S
H2476 C2458 0.932 . S
H2477 C2459 0.929 . S
H2478 C2460 0.928 . S
H2479 C2462 0.932 . S
C2480 C2481 1.264 . S
C2480 C2485 1.479 . S
C2480 C2490 1.465 . S
C2481 C2480 1.264 . S
C2481 C2483 1.339 . S
C2481 H2508 0.931 . S
C2482 C2483 1.395 . S
C2482 C2484 1.320 . S
C2483 C2481 1.339 . S
C2483 C2482 1.395 . S
C2483 H2509 0.929 . S
C2484 C2482 1.320 . S
C2484 C2485 1.405 . S
C2484 H2510 0.930 . S
C2485 C2480 1.479 . S
C2485 C2484 1.405 . S
C2485 H2511 0.931 . S
U2486 O2487 2.454 . S
U2486 O2488 2.458 . S
U2486 C2489 2.984 . S
U2486 C2490 2.847 . S
U2486 C2503 2.882 . S
U2486 O2504 2.441 . S
U2486 O2505 2.420 . S
U2486 O2506 2.455 . S
U2486 O2507 2.449 . S
O2487 U2486 2.454 . S
O2487 C2489 1.353 . S
O2488 U2486 2.458 . S
O2488 C2489 1.286 . S
C2489 U2486 2.984 . S
C2489 O2487 1.353 . S
C2489 O2488 1.286 . S
C2489 C2491 1.363 . S
C2490 C2480 1.465 . S
C2490 U2486 2.847 . S
C2490 O2504 1.249 . S
C2490 O2505 1.202 . S
C2491 C2489 1.363 . S
C2491 C2493 1.408 . S
C2491 C2496 1.342 . S
C2492 C2493 1.310 . S
C2492 C2495 1.461 . S
C2492 H2512 0.932 . S
C2493 C2491 1.408 . S
C2493 C2492 1.310 . S
C2493 H2513 0.930 . S
C2494 C2495 1.474 . S
C2494 C2496 1.285 . S
C2494 H2514 0.929 . S
C2495 C2492 1.461 . S
C2495 C2494 1.474 . S
C2496 C2491 1.342 . S
C2496 C2494 1.285 . S
C2496 H2515 0.930 . S
C2497 C2500 1.424 . S
C2497 C2502 1.245 . S
C2497 C2503 1.428 . S
C2498 C2501 1.260 . S
C2498 C2502 1.477 . S
C2498 H2516 0.932 . S
C2499 C2500 1.384 . S
C2499 C2501 1.479 . S
C2499 H2517 0.929 . S
C2500 C2497 1.424 . S
C2500 C2499 1.384 . S
C2500 H2518 0.928 . S
C2501 C2498 1.260 . S
C2501 C2499 1.479 . S
C2502 C2497 1.245 . S
C2502 C2498 1.477 . S
C2502 H2519 0.932 . S
C2503 U2486 2.882 . S
C2503 C2497 1.428 . S
C2503 O2506 1.301 . S
C2503 O2507 1.282 . S
O2504 U2486 2.441 . S
O2504 C2490 1.249 . S
O2505 U2486 2.420 . S
O2505 C2490 1.202 . S
O2506 U2486 2.455 . S
O2506 C2503 1.301 . S
O2507 U2486 2.449 . S
O2507 C2503 1.282 . S
H2508 C2481 0.931 . S
H2509 C2483 0.929 . S
H2510 C2484 0.930 . S
H2511 C2485 0.931 . S
H2512 C2492 0.932 . S
H2513 C2493 0.930 . S
H2514 C2494 0.929 . S
H2515 C2496 0.930 . S
H2516 C2498 0.932 . S
H2517 C2499 0.929 . S
H2518 C2500 0.928 . S
H2519 C2502 0.932 . S
C2520 C2521 1.264 . S
C2520 C2525 1.479 . S
C2520 C2530 1.465 . S
C2521 C2520 1.264 . S
C2521 C2523 1.339 . S
C2521 H2548 0.931 . S
C2522 C2523 1.395 . S
C2522 C2524 1.320 . S
C2523 C2521 1.339 . S
C2523 C2522 1.395 . S
C2523 H2549 0.929 . S
C2524 C2522 1.320 . S
C2524 C2525 1.405 . S
C2524 H2550 0.930 . S
C2525 C2520 1.479 . S
C2525 C2524 1.405 . S
C2525 H2551 0.931 . S
U2526 O2527 2.454 . S
U2526 O2528 2.458 . S
U2526 C2529 2.984 . S
U2526 C2530 2.847 . S
U2526 C2543 2.882 . S
U2526 O2544 2.441 . S
U2526 O2545 2.420 . S
U2526 O2546 2.455 . S
U2526 O2547 2.449 . S
O2527 U2526 2.454 . S
O2527 C2529 1.353 . S
O2528 U2526 2.458 . S
O2528 C2529 1.286 . S
C2529 U2526 2.984 . S
C2529 O2527 1.353 . S
C2529 O2528 1.286 . S
C2529 C2531 1.363 . S
C2530 C2520 1.465 . S
C2530 U2526 2.847 . S
C2530 O2544 1.249 . S
C2530 O2545 1.202 . S
C2531 C2529 1.363 . S
C2531 C2533 1.408 . S
C2531 C2536 1.342 . S
C2532 C2533 1.310 . S
C2532 C2535 1.461 . S
C2532 H2552 0.932 . S
C2533 C2531 1.408 . S
C2533 C2532 1.310 . S
C2533 H2553 0.930 . S
C2534 C2535 1.474 . S
C2534 C2536 1.285 . S
C2534 H2554 0.929 . S
C2535 C2532 1.461 . S
C2535 C2534 1.474 . S
C2536 C2531 1.342 . S
C2536 C2534 1.285 . S
C2536 H2555 0.930 . S
C2537 C2540 1.424 . S
C2537 C2542 1.245 . S
C2537 C2543 1.428 . S
C2538 C2541 1.260 . S
C2538 C2542 1.477 . S
C2538 H2556 0.932 . S
C2539 C2540 1.384 . S
C2539 C2541 1.479 . S
C2539 H2557 0.929 . S
C2540 C2537 1.424 . S
C2540 C2539 1.384 . S
C2540 H2558 0.928 . S
C2541 C2538 1.260 . S
C2541 C2539 1.479 . S
C2542 C2537 1.245 . S
C2542 C2538 1.477 . S
C2542 H2559 0.932 . S
C2543 U2526 2.882 . S
C2543 C2537 1.428 . S
C2543 O2546 1.301 . S
C2543 O2547 1.282 . S
O2544 U2526 2.441 . S
O2544 C2530 1.249 . S
O2545 U2526 2.420 . S
O2545 C2530 1.202 . S
O2546 U2526 2.455 . S
O2546 C2543 1.301 . S
O2547 U2526 2.449 . S
O2547 C2543 1.282 . S
H2548 C2521 0.931 . S
H2549 C2523 0.929 . S
H2550 C2524 0.930 . S
H2551 C2525 0.931 . S
H2552 C2532 0.932 . S
H2553 C2533 0.930 . S
H2554 C2534 0.929 . S
H2555 C2536 0.930 . S
H2556 C2538 0.932 . S
H2557 C2539 0.929 . S
H2558 C2540 0.928 . S
H2559 C2542 0.932 . S
C2560 C2561 1.264 . S
C2560 C2565 1.479 . S
C2560 C2570 1.465 . S
C2561 C2560 1.264 . S
C2561 C2563 1.339 . S
C2561 H2588 0.931 . S
C2562 C2563 1.395 . S
C2562 C2564 1.320 . S
C2563 C2561 1.339 . S
C2563 C2562 1.395 . S
C2563 H2589 0.929 . S
C2564 C2562 1.320 . S
C2564 C2565 1.405 . S
C2564 H2590 0.930 . S
C2565 C2560 1.479 . S
C2565 C2564 1.405 . S
C2565 H2591 0.931 . S
U2566 O2567 2.454 . S
U2566 O2568 2.458 . S
U2566 C2569 2.984 . S
U2566 C2570 2.847 . S
U2566 C2583 2.882 . S
U2566 O2584 2.441 . S
U2566 O2585 2.420 . S
U2566 O2586 2.455 . S
U2566 O2587 2.449 . S
O2567 U2566 2.454 . S
O2567 C2569 1.353 . S
O2568 U2566 2.458 . S
O2568 C2569 1.286 . S
C2569 U2566 2.984 . S
C2569 O2567 1.353 . S
C2569 O2568 1.286 . S
C2569 C2571 1.363 . S
C2570 C2560 1.465 . S
C2570 U2566 2.847 . S
C2570 O2584 1.249 . S
C2570 O2585 1.202 . S
C2571 C2569 1.363 . S
C2571 C2573 1.408 . S
C2571 C2576 1.342 . S
C2572 C2573 1.310 . S
C2572 C2575 1.461 . S
C2572 H2592 0.932 . S
C2573 C2571 1.408 . S
C2573 C2572 1.310 . S
C2573 H2593 0.930 . S
C2574 C2575 1.474 . S
C2574 C2576 1.285 . S
C2574 H2594 0.929 . S
C2575 C2572 1.461 . S
C2575 C2574 1.474 . S
C2576 C2571 1.342 . S
C2576 C2574 1.285 . S
C2576 H2595 0.930 . S
C2577 C2580 1.424 . S
C2577 C2582 1.245 . S
C2577 C2583 1.428 . S
C2578 C2581 1.260 . S
C2578 C2582 1.477 . S
C2578 H2596 0.932 . S
C2579 C2580 1.384 . S
C2579 C2581 1.479 . S
C2579 H2597 0.929 . S
C2580 C2577 1.424 . S
C2580 C2579 1.384 . S
C2580 H2598 0.928 . S
C2581 C2578 1.260 . S
C2581 C2579 1.479 . S
C2582 C2577 1.245 . S
C2582 C2578 1.477 . S
C2582 H2599 0.932 . S
C2583 U2566 2.882 . S
C2583 C2577 1.428 . S
C2583 O2586 1.301 . S
C2583 O2587 1.282 . S
O2584 U2566 2.441 . S
O2584 C2570 1.249 . S
O2585 U2566 2.420 . S
O2585 C2570 1.202 . S
O2586 U2566 2.455 . S
O2586 C2583 1.301 . S
O2587 U2566 2.449 . S
O2587 C2583 1.282 . S
H2588 C2561 0.931 . S
H2589 C2563 0.929 . S
H2590 C2564 0.930 . S
H2591 C2565 0.931 . S
H2592 C2572 0.932 . S
H2593 C2573 0.930 . S
H2594 C2574 0.929 . S
H2595 C2576 0.930 . S
H2596 C2578 0.932 . S
H2597 C2579 0.929 . S
H2598 C2580 0.928 . S
H2599 C2582 0.932 . S
C2600 C2601 1.264 . S
C2600 C2605 1.479 . S
C2600 C2610 1.465 . S
C2601 C2600 1.264 . S
C2601 C2603 1.339 . S
C2601 H2628 0.931 . S
C2602 C2603 1.395 . S
C2602 C2604 1.320 . S
C2603 C2601 1.339 . S
C2603 C2602 1.395 . S
C2603 H2629 0.929 . S
C2604 C2602 1.320 . S
C2604 C2605 1.405 . S
C2604 H2630 0.930 . S
C2605 C2600 1.479 . S
C2605 C2604 1.405 . S
C2605 H2631 0.931 . S
U2606 O2607 2.454 . S
U2606 O2608 2.458 . S
U2606 C2609 2.984 . S
U2606 C2610 2.847 . S
U2606 C2623 2.882 . S
U2606 O2624 2.441 . S
U2606 O2625 2.420 . S
U2606 O2626 2.455 . S
U2606 O2627 2.449 . S
O2607 U2606 2.454 . S
O2607 C2609 1.353 . S
O2608 U2606 2.458 . S
O2608 C2609 1.286 . S
C2609 U2606 2.984 . S
C2609 O2607 1.353 . S
C2609 O2608 1.286 . S
C2609 C2611 1.363 . S
C2610 C2600 1.465 . S
C2610 U2606 2.847 . S
C2610 O2624 1.249 . S
C2610 O2625 1.202 . S
C2611 C2609 1.363 . S
C2611 C2613 1.408 . S
C2611 C2616 1.342 . S
C2612 C2613 1.310 . S
C2612 C2615 1.461 . S
C2612 H2632 0.932 . S
C2613 C2611 1.408 . S
C2613 C2612 1.310 . S
C2613 H2633 0.930 . S
C2614 C2615 1.474 . S
C2614 C2616 1.285 . S
C2614 H2634 0.929 . S
C2615 C2612 1.461 . S
C2615 C2614 1.474 . S
C2616 C2611 1.342 . S
C2616 C2614 1.285 . S
C2616 H2635 0.930 . S
C2617 C2620 1.424 . S
C2617 C2622 1.245 . S
C2617 C2623 1.428 . S
C2618 C2621 1.260 . S
C2618 C2622 1.477 . S
C2618 H2636 0.932 . S
C2619 C2620 1.384 . S
C2619 C2621 1.479 . S
C2619 H2637 0.929 . S
C2620 C2617 1.424 . S
C2620 C2619 1.384 . S
C2620 H2638 0.928 . S
C2621 C2618 1.260 . S
C2621 C2619 1.479 . S
C2622 C2617 1.245 . S
C2622 C2618 1.477 . S
C2622 H2639 0.932 . S
C2623 U2606 2.882 . S
C2623 C2617 1.428 . S
C2623 O2626 1.301 . S
C2623 O2627 1.282 . S
O2624 U2606 2.441 . S
O2624 C2610 1.249 . S
O2625 U2606 2.420 . S
O2625 C2610 1.202 . S
O2626 U2606 2.455 . S
O2626 C2623 1.301 . S
O2627 U2606 2.449 . S
O2627 C2623 1.282 . S
H2628 C2601 0.931 . S
H2629 C2603 0.929 . S
H2630 C2604 0.930 . S
H2631 C2605 0.931 . S
H2632 C2612 0.932 . S
H2633 C2613 0.930 . S
H2634 C2614 0.929 . S
H2635 C2616 0.930 . S
H2636 C2618 0.932 . S
H2637 C2619 0.929 . S
H2638 C2620 0.928 . S
H2639 C2622 0.932 . S
C2640 C2641 1.264 . S
C2640 C2645 1.479 . S
C2640 C2650 1.465 . S
C2641 C2640 1.264 . S
C2641 C2643 1.339 . S
C2641 H2668 0.931 . S
C2642 C2643 1.395 . S
C2642 C2644 1.320 . S
C2643 C2641 1.339 . S
C2643 C2642 1.395 . S
C2643 H2669 0.929 . S
C2644 C2642 1.320 . S
C2644 C2645 1.405 . S
C2644 H2670 0.930 . S
C2645 C2640 1.479 . S
C2645 C2644 1.405 . S
C2645 H2671 0.931 . S
U2646 O2647 2.454 . S
U2646 O2648 2.458 . S
U2646 C2649 2.984 . S
U2646 C2650 2.847 . S
U2646 C2663 2.882 . S
U2646 O2664 2.441 . S
U2646 O2665 2.420 . S
U2646 O2666 2.455 . S
U2646 O2667 2.449 . S
O2647 U2646 2.454 . S
O2647 C2649 1.353 . S
O2648 U2646 2.458 . S
O2648 C2649 1.286 . S
C2649 U2646 2.984 . S
C2649 O2647 1.353 . S
C2649 O2648 1.286 . S
C2649 C2651 1.363 . S
C2650 C2640 1.465 . S
C2650 U2646 2.847 . S
C2650 O2664 1.249 . S
C2650 O2665 1.202 . S
C2651 C2649 1.363 . S
C2651 C2653 1.408 . S
C2651 C2656 1.342 . S
C2652 C2653 1.310 . S
C2652 C2655 1.461 . S
C2652 H2672 0.932 . S
C2653 C2651 1.408 . S
C2653 C2652 1.310 . S
C2653 H2673 0.930 . S
C2654 C2655 1.474 . S
C2654 C2656 1.285 . S
C2654 H2674 0.929 . S
C2655 C2652 1.461 . S
C2655 C2654 1.474 . S
C2656 C2651 1.342 . S
C2656 C2654 1.285 . S
C2656 H2675 0.930 . S
C2657 C2660 1.424 . S
C2657 C2662 1.245 . S
C2657 C2663 1.428 . S
C2658 C2661 1.260 . S
C2658 C2662 1.477 . S
C2658 H2676 0.932 . S
C2659 C2660 1.384 . S
C2659 C2661 1.479 . S
C2659 H2677 0.929 . S
C2660 C2657 1.424 . S
C2660 C2659 1.384 . S
C2660 H2678 0.928 . S
C2661 C2658 1.260 . S
C2661 C2659 1.479 . S
C2662 C2657 1.245 . S
C2662 C2658 1.477 . S
C2662 H2679 0.932 . S
C2663 U2646 2.882 . S
C2663 C2657 1.428 . S
C2663 O2666 1.301 . S
C2663 O2667 1.282 . S
O2664 U2646 2.441 . S
O2664 C2650 1.249 . S
O2665 U2646 2.420 . S
O2665 C2650 1.202 . S
O2666 U2646 2.455 . S
O2666 C2663 1.301 . S
O2667 U2646 2.449 . S
O2667 C2663 1.282 . S
H2668 C2641 0.931 . S
H2669 C2643 0.929 . S
H2670 C2644 0.930 . S
H2671 C2645 0.931 . S
H2672 C2652 0.932 . S
H2673 C2653 0.930 . S
H2674 C2654 0.929 . S
H2675 C2656 0.930 . S
H2676 C2658 0.932 . S
H2677 C2659 0.929 . S
H2678 C2660 0.928 . S
H2679 C2662 0.932 . S
C2680 C2681 1.264 . S
C2680 C2685 1.479 . S
C2680 C2690 1.465 . S
C2681 C2680 1.264 . S
C2681 C2683 1.339 . S
C2681 H2708 0.931 . S
C2682 C2683 1.395 . S
C2682 C2684 1.320 . S
C2683 C2681 1.339 . S
C2683 C2682 1.395 . S
C2683 H2709 0.929 . S
C2684 C2682 1.320 . S
C2684 C2685 1.405 . S
C2684 H2710 0.930 . S
C2685 C2680 1.479 . S
C2685 C2684 1.405 . S
C2685 H2711 0.931 . S
U2686 O2687 2.454 . S
U2686 O2688 2.458 . S
U2686 C2689 2.984 . S
U2686 C2690 2.847 . S
U2686 C2703 2.882 . S
U2686 O2704 2.441 . S
U2686 O2705 2.420 . S
U2686 O2706 2.455 . S
U2686 O2707 2.449 . S
O2687 U2686 2.454 . S
O2687 C2689 1.353 . S
O2688 U2686 2.458 . S
O2688 C2689 1.286 . S
C2689 U2686 2.984 . S
C2689 O2687 1.353 . S
C2689 O2688 1.286 . S
C2689 C2691 1.363 . S
C2690 C2680 1.465 . S
C2690 U2686 2.847 . S
C2690 O2704 1.249 . S
C2690 O2705 1.202 . S
C2691 C2689 1.363 . S
C2691 C2693 1.408 . S
C2691 C2696 1.342 . S
C2692 C2693 1.310 . S
C2692 C2695 1.461 . S
C2692 H2712 0.932 . S
C2693 C2691 1.408 . S
C2693 C2692 1.310 . S
C2693 H2713 0.930 . S
C2694 C2695 1.474 . S
C2694 C2696 1.285 . S
C2694 H2714 0.929 . S
C2695 C2692 1.461 . S
C2695 C2694 1.474 . S
C2696 C2691 1.342 . S
C2696 C2694 1.285 . S
C2696 H2715 0.930 . S
C2697 C2700 1.424 . S
C2697 C2702 1.245 . S
C2697 C2703 1.428 . S
C2698 C2701 1.260 . S
C2698 C2702 1.477 . S
C2698 H2716 0.932 . S
C2699 C2700 1.384 . S
C2699 C2701 1.479 . S
C2699 H2717 0.929 . S
C2700 C2697 1.424 . S
C2700 C2699 1.384 . S
C2700 H2718 0.928 . S
C2701 C2698 1.260 . S
C2701 C2699 1.479 . S
C2702 C2697 1.245 . S
C2702 C2698 1.477 . S
C2702 H2719 0.932 . S
C2703 U2686 2.882 . S
C2703 C2697 1.428 . S
C2703 O2706 1.301 . S
C2703 O2707 1.282 . S
O2704 U2686 2.441 . S
O2704 C2690 1.249 . S
O2705 U2686 2.420 . S
O2705 C2690 1.202 . S
O2706 U2686 2.455 . S
O2706 C2703 1.301 . S
O2707 U2686 2.449 . S
O2707 C2703 1.282 . S
H2708 C2681 0.931 . S
H2709 C2683 0.929 . S
H2710 C2684 0.930 . S
H2711 C2685 0.931 . S
H2712 C2692 0.932 . S
H2713 C2693 0.930 . S
H2714 C2694 0.929 . S
H2715 C2696 0.930 . S
H2716 C2698 0.932 . S
H2717 C2699 0.929 . S
H2718 C2700 0.928 . S
H2719 C2702 0.932 . S
C2720 C2721 1.264 . S
C2720 C2725 1.479 . S
C2720 C2730 1.465 . S
C2721 C2720 1.264 . S
C2721 C2723 1.339 . S
C2721 H2748 0.931 . S
C2722 C2723 1.395 . S
C2722 C2724 1.320 . S
C2723 C2721 1.339 . S
C2723 C2722 1.395 . S
C2723 H2749 0.929 . S
C2724 C2722 1.320 . S
C2724 C2725 1.405 . S
C2724 H2750 0.930 . S
C2725 C2720 1.479 . S
C2725 C2724 1.405 . S
C2725 H2751 0.931 . S
U2726 O2727 2.454 . S
U2726 O2728 2.458 . S
U2726 C2729 2.984 . S
U2726 C2730 2.847 . S
U2726 C2743 2.882 . S
U2726 O2744 2.441 . S
U2726 O2745 2.420 . S
U2726 O2746 2.455 . S
U2726 O2747 2.449 . S
O2727 U2726 2.454 . S
O2727 C2729 1.353 . S
O2728 U2726 2.458 . S
O2728 C2729 1.286 . S
C2729 U2726 2.984 . S
C2729 O2727 1.353 . S
C2729 O2728 1.286 . S
C2729 C2731 1.363 . S
C2730 C2720 1.465 . S
C2730 U2726 2.847 . S
C2730 O2744 1.249 . S
C2730 O2745 1.202 . S
C2731 C2729 1.363 . S
C2731 C2733 1.408 . S
C2731 C2736 1.342 . S
C2732 C2733 1.310 . S
C2732 C2735 1.461 . S
C2732 H2752 0.932 . S
C2733 C2731 1.408 . S
C2733 C2732 1.310 . S
C2733 H2753 0.930 . S
C2734 C2735 1.474 . S
C2734 C2736 1.285 . S
C2734 H2754 0.929 . S
C2735 C2732 1.461 . S
C2735 C2734 1.474 . S
C2736 C2731 1.342 . S
C2736 C2734 1.285 . S
C2736 H2755 0.930 . S
C2737 C2740 1.424 . S
C2737 C2742 1.245 . S
C2737 C2743 1.428 . S
C2738 C2741 1.260 . S
C2738 C2742 1.477 . S
C2738 H2756 0.932 . S
C2739 C2740 1.384 . S
C2739 C2741 1.479 . S
C2739 H2757 0.929 . S
C2740 C2737 1.424 . S
C2740 C2739 1.384 . S
C2740 H2758 0.928 . S
C2741 C2738 1.260 . S
C2741 C2739 1.479 . S
C2742 C2737 1.245 . S
C2742 C2738 1.477 . S
C2742 H2759 0.932 . S
C2743 U2726 2.882 . S
C2743 C2737 1.428 . S
C2743 O2746 1.301 . S
C2743 O2747 1.282 . S
O2744 U2726 2.441 . S
O2744 C2730 1.249 . S
O2745 U2726 2.420 . S
O2745 C2730 1.202 . S
O2746 U2726 2.455 . S
O2746 C2743 1.301 . S
O2747 U2726 2.449 . S
O2747 C2743 1.282 . S
H2748 C2721 0.931 . S
H2749 C2723 0.929 . S
H2750 C2724 0.930 . S
H2751 C2725 0.931 . S
H2752 C2732 0.932 . S
H2753 C2733 0.930 . S
H2754 C2734 0.929 . S
H2755 C2736 0.930 . S
H2756 C2738 0.932 . S
H2757 C2739 0.929 . S
H2758 C2740 0.928 . S
H2759 C2742 0.932 . S
C2760 C2761 1.264 . S
C2760 C2765 1.479 . S
C2760 C2770 1.465 . S
C2761 C2760 1.264 . S
C2761 C2763 1.339 . S
C2761 H2788 0.931 . S
C2762 C2763 1.395 . S
C2762 C2764 1.320 . S
C2763 C2761 1.339 . S
C2763 C2762 1.395 . S
C2763 H2789 0.929 . S
C2764 C2762 1.320 . S
C2764 C2765 1.405 . S
C2764 H2790 0.930 . S
C2765 C2760 1.479 . S
C2765 C2764 1.405 . S
C2765 H2791 0.931 . S
U2766 O2767 2.454 . S
U2766 O2768 2.458 . S
U2766 C2769 2.984 . S
U2766 C2770 2.847 . S
U2766 C2783 2.882 . S
U2766 O2784 2.441 . S
U2766 O2785 2.420 . S
U2766 O2786 2.455 . S
U2766 O2787 2.449 . S
O2767 U2766 2.454 . S
O2767 C2769 1.353 . S
O2768 U2766 2.458 . S
O2768 C2769 1.286 . S
C2769 U2766 2.984 . S
C2769 O2767 1.353 . S
C2769 O2768 1.286 . S
C2769 C2771 1.363 . S
C2770 C2760 1.465 . S
C2770 U2766 2.847 . S
C2770 O2784 1.249 . S
C2770 O2785 1.202 . S
C2771 C2769 1.363 . S
C2771 C2773 1.408 . S
C2771 C2776 1.342 . S
C2772 C2773 1.310 . S
C2772 C2775 1.461 . S
C2772 H2792 0.932 . S
C2773 C2771 1.408 . S
C2773 C2772 1.310 . S
C2773 H2793 0.930 . S
C2774 C2775 1.474 . S
C2774 C2776 1.285 . S
C2774 H2794 0.929 . S
C2775 C2772 1.461 . S
C2775 C2774 1.474 . S
C2776 C2771 1.342 . S
C2776 C2774 1.285 . S
C2776 H2795 0.930 . S
C2777 C2780 1.424 . S
C2777 C2782 1.245 . S
C2777 C2783 1.428 . S
C2778 C2781 1.260 . S
C2778 C2782 1.477 . S
C2778 H2796 0.932 . S
C2779 C2780 1.384 . S
C2779 C2781 1.479 . S
C2779 H2797 0.929 . S
C2780 C2777 1.424 . S
C2780 C2779 1.384 . S
C2780 H2798 0.928 . S
C2781 C2778 1.260 . S
C2781 C2779 1.479 . S
C2782 C2777 1.245 . S
C2782 C2778 1.477 . S
C2782 H2799 0.932 . S
C2783 U2766 2.882 . S
C2783 C2777 1.428 . S
C2783 O2786 1.301 . S
C2783 O2787 1.282 . S
O2784 U2766 2.441 . S
O2784 C2770 1.249 . S
O2785 U2766 2.420 . S
O2785 C2770 1.202 . S
O2786 U2766 2.455 . S
O2786 C2783 1.301 . S
O2787 U2766 2.449 . S
O2787 C2783 1.282 . S
H2788 C2761 0.931 . S
H2789 C2763 0.929 . S
H2790 C2764 0.930 . S
H2791 C2765 0.931 . S
H2792 C2772 0.932 . S
H2793 C2773 0.930 . S
H2794 C2774 0.929 . S
H2795 C2776 0.930 . S
H2796 C2778 0.932 . S
H2797 C2779 0.929 . S
H2798 C2780 0.928 . S
H2799 C2782 0.932 . S
C2800 C2801 1.264 . S
C2800 C2805 1.479 . S
C2800 C2810 1.465 . S
C2801 C2800 1.264 . S
C2801 C2803 1.339 . S
C2801 H2828 0.931 . S
C2802 C2803 1.395 . S
C2802 C2804 1.320 . S
C2803 C2801 1.339 . S
C2803 C2802 1.395 . S
C2803 H2829 0.929 . S
C2804 C2802 1.320 . S
C2804 C2805 1.405 . S
C2804 H2830 0.930 . S
C2805 C2800 1.479 . S
C2805 C2804 1.405 . S
C2805 H2831 0.931 . S
U2806 O2807 2.454 . S
U2806 O2808 2.458 . S
U2806 C2809 2.984 . S
U2806 C2810 2.847 . S
U2806 C2823 2.882 . S
U2806 O2824 2.441 . S
U2806 O2825 2.420 . S
U2806 O2826 2.455 . S
U2806 O2827 2.449 . S
O2807 U2806 2.454 . S
O2807 C2809 1.353 . S
O2808 U2806 2.458 . S
O2808 C2809 1.286 . S
C2809 U2806 2.984 . S
C2809 O2807 1.353 . S
C2809 O2808 1.286 . S
C2809 C2811 1.363 . S
C2810 C2800 1.465 . S
C2810 U2806 2.847 . S
C2810 O2824 1.249 . S
C2810 O2825 1.202 . S
C2811 C2809 1.363 . S
C2811 C2813 1.408 . S
C2811 C2816 1.342 . S
C2812 C2813 1.310 . S
C2812 C2815 1.461 . S
C2812 H2832 0.932 . S
C2813 C2811 1.408 . S
C2813 C2812 1.310 . S
C2813 H2833 0.930 . S
C2814 C2815 1.474 . S
C2814 C2816 1.285 . S
C2814 H2834 0.929 . S
C2815 C2812 1.461 . S
C2815 C2814 1.474 . S
C2816 C2811 1.342 . S
C2816 C2814 1.285 . S
C2816 H2835 0.930 . S
C2817 C2820 1.424 . S
C2817 C2822 1.245 . S
C2817 C2823 1.428 . S
C2818 C2821 1.260 . S
C2818 C2822 1.477 . S
C2818 H2836 0.932 . S
C2819 C2820 1.384 . S
C2819 C2821 1.479 . S
C2819 H2837 0.929 . S
C2820 C2817 1.424 . S
C2820 C2819 1.384 . S
C2820 H2838 0.928 . S
C2821 C2818 1.260 . S
C2821 C2819 1.479 . S
C2822 C2817 1.245 . S
C2822 C2818 1.477 . S
C2822 H2839 0.932 . S
C2823 U2806 2.882 . S
C2823 C2817 1.428 . S
C2823 O2826 1.301 . S
C2823 O2827 1.282 . S
O2824 U2806 2.441 . S
O2824 C2810 1.249 . S
O2825 U2806 2.420 . S
O2825 C2810 1.202 . S
O2826 U2806 2.455 . S
O2826 C2823 1.301 . S
O2827 U2806 2.449 . S
O2827 C2823 1.282 . S
H2828 C2801 0.931 . S
H2829 C2803 0.929 . S
H2830 C2804 0.930 . S
H2831 C2805 0.931 . S
H2832 C2812 0.932 . S
H2833 C2813 0.930 . S
H2834 C2814 0.929 . S
H2835 C2816 0.930 . S
H2836 C2818 0.932 . S
H2837 C2819 0.929 . S
H2838 C2820 0.928 . S
H2839 C2822 0.932 . S
C2840 C2841 1.264 . S
C2840 C2845 1.479 . S
C2840 C2850 1.465 . S
C2841 C2840 1.264 . S
C2841 C2843 1.339 . S
C2841 H2868 0.931 . S
C2842 C2843 1.395 . S
C2842 C2844 1.320 . S
C2843 C2841 1.339 . S
C2843 C2842 1.395 . S
C2843 H2869 0.929 . S
C2844 C2842 1.320 . S
C2844 C2845 1.405 . S
C2844 H2870 0.930 . S
C2845 C2840 1.479 . S
C2845 C2844 1.405 . S
C2845 H2871 0.931 . S
U2846 O2847 2.454 . S
U2846 O2848 2.458 . S
U2846 C2849 2.984 . S
U2846 C2850 2.847 . S
U2846 C2863 2.882 . S
U2846 O2864 2.441 . S
U2846 O2865 2.420 . S
U2846 O2866 2.455 . S
U2846 O2867 2.449 . S
O2847 U2846 2.454 . S
O2847 C2849 1.353 . S
O2848 U2846 2.458 . S
O2848 C2849 1.286 . S
C2849 U2846 2.984 . S
C2849 O2847 1.353 . S
C2849 O2848 1.286 . S
C2849 C2851 1.363 . S
C2850 C2840 1.465 . S
C2850 U2846 2.847 . S
C2850 O2864 1.249 . S
C2850 O2865 1.202 . S
C2851 C2849 1.363 . S
C2851 C2853 1.408 . S
C2851 C2856 1.342 . S
C2852 C2853 1.310 . S
C2852 C2855 1.461 . S
C2852 H2872 0.932 . S
C2853 C2851 1.408 . S
C2853 C2852 1.310 . S
C2853 H2873 0.930 . S
C2854 C2855 1.474 . S
C2854 C2856 1.285 . S
C2854 H2874 0.929 . S
C2855 C2852 1.461 . S
C2855 C2854 1.474 . S
C2856 C2851 1.342 . S
C2856 C2854 1.285 . S
C2856 H2875 0.930 . S
C2857 C2860 1.424 . S
C2857 C2862 1.245 . S
C2857 C2863 1.428 . S
C2858 C2861 1.260 . S
C2858 C2862 1.477 . S
C2858 H2876 0.932 . S
C2859 C2860 1.384 . S
C2859 C2861 1.479 . S
C2859 H2877 0.929 . S
C2860 C2857 1.424 . S
C2860 C2859 1.384 . S
C2860 H2878 0.928 . S
C2861 C2858 1.260 . S
C2861 C2859 1.479 . S
C2862 C2857 1.245 . S
C2862 C2858 1.477 . S
C2862 H2879 0.932 . S
C2863 U2846 2.882 . S
C2863 C2857 1.428 . S
C2863 O2866 1.301 . S
C2863 O2867 1.282 . S
O2864 U2846 2.441 . S
O2864 C2850 1.249 . S
O2865 U2846 2.420 . S
O2865 C2850 1.202 . S
O2866 U2846 2.455 . S
O2866 C2863 1.301 . S
O2867 U2846 2.449 . S
O2867 C2863 1.282 . S
H2868 C2841 0.931 . S
H2869 C2843 0.929 . S
H2870 C2844 0.930 . S
H2871 C2845 0.931 . S
H2872 C2852 0.932 . S
H2873 C2853 0.930 . S
H2874 C2854 0.929 . S
H2875 C2856 0.930 . S
H2876 C2858 0.932 . S
H2877 C2859 0.929 . S
H2878 C2860 0.928 . S
H2879 C2862 0.932 . S
C2880 C2881 1.264 . S
C2880 C2885 1.479 . S
C2880 C2890 1.465 . S
C2881 C2880 1.264 . S
C2881 C2883 1.339 . S
C2881 H2908 0.931 . S
C2882 C2883 1.395 . S
C2882 C2884 1.320 . S
C2883 C2881 1.339 . S
C2883 C2882 1.395 . S
C2883 H2909 0.929 . S
C2884 C2882 1.320 . S
C2884 C2885 1.405 . S
C2884 H2910 0.930 . S
C2885 C2880 1.479 . S
C2885 C2884 1.405 . S
C2885 H2911 0.931 . S
U2886 O2887 2.454 . S
U2886 O2888 2.458 . S
U2886 C2889 2.984 . S
U2886 C2890 2.847 . S
U2886 C2903 2.882 . S
U2886 O2904 2.441 . S
U2886 O2905 2.420 . S
U2886 O2906 2.455 . S
U2886 O2907 2.449 . S
O2887 U2886 2.454 . S
O2887 C2889 1.353 . S
O2888 U2886 2.458 . S
O2888 C2889 1.286 . S
C2889 U2886 2.984 . S
C2889 O2887 1.353 . S
C2889 O2888 1.286 . S
C2889 C2891 1.363 . S
C2890 C2880 1.465 . S
C2890 U2886 2.847 . S
C2890 O2904 1.249 . S
C2890 O2905 1.202 . S
C2891 C2889 1.363 . S
C2891 C2893 1.408 . S
C2891 C2896 1.342 . S
C2892 C2893 1.310 . S
C2892 C2895 1.461 . S
C2892 H2912 0.932 . S
C2893 C2891 1.408 . S
C2893 C2892 1.310 . S
C2893 H2913 0.930 . S
C2894 C2895 1.474 . S
C2894 C2896 1.285 . S
C2894 H2914 0.929 . S
C2895 C2892 1.461 . S
C2895 C2894 1.474 . S
C2896 C2891 1.342 . S
C2896 C2894 1.285 . S
C2896 H2915 0.930 . S
C2897 C2900 1.424 . S
C2897 C2902 1.245 . S
C2897 C2903 1.428 . S
C2898 C2901 1.260 . S
C2898 C2902 1.477 . S
C2898 H2916 0.932 . S
C2899 C2900 1.384 . S
C2899 C2901 1.479 . S
C2899 H2917 0.929 . S
C2900 C2897 1.424 . S
C2900 C2899 1.384 . S
C2900 H2918 0.928 . S
C2901 C2898 1.260 . S
C2901 C2899 1.479 . S
C2902 C2897 1.245 . S
C2902 C2898 1.477 . S
C2902 H2919 0.932 . S
C2903 U2886 2.882 . S
C2903 C2897 1.428 . S
C2903 O2906 1.301 . S
C2903 O2907 1.282 . S
O2904 U2886 2.441 . S
O2904 C2890 1.249 . S
O2905 U2886 2.420 . S
O2905 C2890 1.202 . S
O2906 U2886 2.455 . S
O2906 C2903 1.301 . S
O2907 U2886 2.449 . S
O2907 C2903 1.282 . S
H2908 C2881 0.931 . S
H2909 C2883 0.929 . S
H2910 C2884 0.930 . S
H2911 C2885 0.931 . S
H2912 C2892 0.932 . S
H2913 C2893 0.930 . S
H2914 C2894 0.929 . S
H2915 C2896 0.930 . S
H2916 C2898 0.932 . S
H2917 C2899 0.929 . S
H2918 C2900 0.928 . S
H2919 C2902 0.932 . S
C2920 C2921 1.264 . S
C2920 C2925 1.479 . S
C2920 C2930 1.465 . S
C2921 C2920 1.264 . S
C2921 C2923 1.339 . S
C2921 H2948 0.931 . S
C2922 C2923 1.395 . S
C2922 C2924 1.320 . S
C2923 C2921 1.339 . S
C2923 C2922 1.395 . S
C2923 H2949 0.929 . S
C2924 C2922 1.320 . S
C2924 C2925 1.405 . S
C2924 H2950 0.930 . S
C2925 C2920 1.479 . S
C2925 C2924 1.405 . S
C2925 H2951 0.931 . S
U2926 O2927 2.454 . S
U2926 O2928 2.458 . S
U2926 C2929 2.984 . S
U2926 C2930 2.847 . S
U2926 C2943 2.882 . S
U2926 O2944 2.441 . S
U2926 O2945 2.420 . S
U2926 O2946 2.455 . S
U2926 O2947 2.449 . S
O2927 U2926 2.454 . S
O2927 C2929 1.353 . S
O2928 U2926 2.458 . S
O2928 C2929 1.286 . S
C2929 U2926 2.984 . S
C2929 O2927 1.353 . S
C2929 O2928 1.286 . S
C2929 C2931 1.363 . S
C2930 C2920 1.465 . S
C2930 U2926 2.847 . S
C2930 O2944 1.249 . S
C2930 O2945 1.202 . S
C2931 C2929 1.363 . S
C2931 C2933 1.408 . S
C2931 C2936 1.342 . S
C2932 C2933 1.310 . S
C2932 C2935 1.461 . S
C2932 H2952 0.932 . S
C2933 C2931 1.408 . S
C2933 C2932 1.310 . S
C2933 H2953 0.930 . S
C2934 C2935 1.474 . S
C2934 C2936 1.285 . S
C2934 H2954 0.929 . S
C2935 C2932 1.461 . S
C2935 C2934 1.474 . S
C2936 C2931 1.342 . S
C2936 C2934 1.285 . S
C2936 H2955 0.930 . S
C2937 C2940 1.424 . S
C2937 C2942 1.245 . S
C2937 C2943 1.428 . S
C2938 C2941 1.260 . S
C2938 C2942 1.477 . S
C2938 H2956 0.932 . S
C2939 C2940 1.384 . S
C2939 C2941 1.479 . S
C2939 H2957 0.929 . S
C2940 C2937 1.424 . S
C2940 C2939 1.384 . S
C2940 H2958 0.928 . S
C2941 C2938 1.260 . S
C2941 C2939 1.479 . S
C2942 C2937 1.245 . S
C2942 C2938 1.477 . S
C2942 H2959 0.932 . S
C2943 U2926 2.882 . S
C2943 C2937 1.428 . S
C2943 O2946 1.301 . S
C2943 O2947 1.282 . S
O2944 U2926 2.441 . S
O2944 C2930 1.249 . S
O2945 U2926 2.420 . S
O2945 C2930 1.202 . S
O2946 U2926 2.455 . S
O2946 C2943 1.301 . S
O2947 U2926 2.449 . S
O2947 C2943 1.282 . S
H2948 C2921 0.931 . S
H2949 C2923 0.929 . S
H2950 C2924 0.930 . S
H2951 C2925 0.931 . S
H2952 C2932 0.932 . S
H2953 C2933 0.930 . S
H2954 C2934 0.929 . S
H2955 C2936 0.930 . S
H2956 C2938 0.932 . S
H2957 C2939 0.929 . S
H2958 C2940 0.928 . S
H2959 C2942 0.932 . S
C2960 C2961 1.264 . S
C2960 C2965 1.479 . S
C2960 C2970 1.465 . S
C2961 C2960 1.264 . S
C2961 C2963 1.339 . S
C2961 H2988 0.931 . S
C2962 C2963 1.395 . S
C2962 C2964 1.320 . S
C2963 C2961 1.339 . S
C2963 C2962 1.395 . S
C2963 H2989 0.929 . S
C2964 C2962 1.320 . S
C2964 C2965 1.405 . S
C2964 H2990 0.930 . S
C2965 C2960 1.479 . S
C2965 C2964 1.405 . S
C2965 H2991 0.931 . S
U2966 O2967 2.454 . S
U2966 O2968 2.458 . S
U2966 C2969 2.984 . S
U2966 C2970 2.847 . S
U2966 C2983 2.882 . S
U2966 O2984 2.441 . S
U2966 O2985 2.420 . S
U2966 O2986 2.455 . S
U2966 O2987 2.449 . S
O2967 U2966 2.454 . S
O2967 C2969 1.353 . S
O2968 U2966 2.458 . S
O2968 C2969 1.286 . S
C2969 U2966 2.984 . S
C2969 O2967 1.353 . S
C2969 O2968 1.286 . S
C2969 C2971 1.363 . S
C2970 C2960 1.465 . S
C2970 U2966 2.847 . S
C2970 O2984 1.249 . S
C2970 O2985 1.202 . S
C2971 C2969 1.363 . S
C2971 C2973 1.408 . S
C2971 C2976 1.342 . S
C2972 C2973 1.310 . S
C2972 C2975 1.461 . S
C2972 H2992 0.932 . S
C2973 C2971 1.408 . S
C2973 C2972 1.310 . S
C2973 H2993 0.930 . S
C2974 C2975 1.474 . S
C2974 C2976 1.285 . S
C2974 H2994 0.929 . S
C2975 C2972 1.461 . S
C2975 C2974 1.474 . S
C2976 C2971 1.342 . S
C2976 C2974 1.285 . S
C2976 H2995 0.930 . S
C2977 C2980 1.424 . S
C2977 C2982 1.245 . S
C2977 C2983 1.428 . S
C2978 C2981 1.260 . S
C2978 C2982 1.477 . S
C2978 H2996 0.932 . S
C2979 C2980 1.384 . S
C2979 C2981 1.479 . S
C2979 H2997 0.929 . S
C2980 C2977 1.424 . S
C2980 C2979 1.384 . S
C2980 H2998 0.928 . S
C2981 C2978 1.260 . S
C2981 C2979 1.479 . S
C2982 C2977 1.245 . S
C2982 C2978 1.477 . S
C2982 H2999 0.932 . S
C2983 U2966 2.882 . S
C2983 C2977 1.428 . S
C2983 O2986 1.301 . S
C2983 O2987 1.282 . S
O2984 U2966 2.441 . S
O2984 C2970 1.249 . S
O2985 U2966 2.420 . S
O2985 C2970 1.202 . S
O2986 U2966 2.455 . S
O2986 C2983 1.301 . S
O2987 U2966 2.449 . S
O2987 C2983 1.282 . S
H2988 C2961 0.931 . S
H2989 C2963 0.929 . S
H2990 C2964 0.930 . S
H2991 C2965 0.931 . S
H2992 C2972 0.932 . S
H2993 C2973 0.930 . S
H2994 C2974 0.929 . S
H2995 C2976 0.930 . S
H2996 C2978 0.932 . S
H2997 C2979 0.929 . S
H2998 C2980 0.928 . S
H2999 C2982 0.932 . S
C3000 C3001 1.264 . S
C3000 C3005 1.479 . S
C3000 C3010 1.465 . S
C3001 C3000 1.264 . S
C3001 C3003 1.339 . S
C3001 H3028 0.931 . S
C3002 C3003 1.395 . S
C3002 C3004 1.320 . S
C3003 C3001 1.339 . S
C3003 C3002 1.395 . S
C3003 H3029 0.929 . S
C3004 C3002 1.320 . S
C3004 C3005 1.405 . S
C3004 H3030 0.930 . S
C3005 C3000 1.479 . S
C3005 C3004 1.405 . S
C3005 H3031 0.931 . S
U3006 O3007 2.454 . S
U3006 O3008 2.458 . S
U3006 C3009 2.984 . S
U3006 C3010 2.847 . S
U3006 C3023 2.882 . S
U3006 O3024 2.441 . S
U3006 O3025 2.420 . S
U3006 O3026 2.455 . S
U3006 O3027 2.449 . S
O3007 U3006 2.454 . S
O3007 C3009 1.353 . S
O3008 U3006 2.458 . S
O3008 C3009 1.286 . S
C3009 U3006 2.984 . S
C3009 O3007 1.353 . S
C3009 O3008 1.286 . S
C3009 C3011 1.363 . S
C3010 C3000 1.465 . S
C3010 U3006 2.847 . S
C3010 O3024 1.249 . S
C3010 O3025 1.202 . S
C3011 C3009 1.363 . S
C3011 C3013 1.408 . S
C3011 C3016 1.342 . S
C3012 C3013 1.310 . S
C3012 C3015 1.461 . S
C3012 H3032 0.932 . S
C3013 C3011 1.408 . S
C3013 C3012 1.310 . S
C3013 H3033 0.930 . S
C3014 C3015 1.474 . S
C3014 C3016 1.285 . S
C3014 H3034 0.929 . S
C3015 C3012 1.461 . S
C3015 C3014 1.474 . S
C3016 C3011 1.342 . S
C3016 C3014 1.285 . S
C3016 H3035 0.930 . S
C3017 C3020 1.424 . S
C3017 C3022 1.245 . S
C3017 C3023 1.428 . S
C3018 C3021 1.260 . S
C3018 C3022 1.477 . S
C3018 H3036 0.932 . S
C3019 C3020 1.384 . S
C3019 C3021 1.479 . S
C3019 H3037 0.929 . S
C3020 C3017 1.424 . S
C3020 C3019 1.384 . S
C3020 H3038 0.928 . S
C3021 C3018 1.260 . S
C3021 C3019 1.479 . S
C3022 C3017 1.245 . S
C3022 C3018 1.477 . S
C3022 H3039 0.932 . S
C3023 U3006 2.882 . S
C3023 C3017 1.428 . S
C3023 O3026 1.301 . S
C3023 O3027 1.282 . S
O3024 U3006 2.441 . S
O3024 C3010 1.249 . S
O3025 U3006 2.420 . S
O3025 C3010 1.202 . S
O3026 U3006 2.455 . S
O3026 C3023 1.301 . S
O3027 U3006 2.449 . S
O3027 C3023 1.282 . S
H3028 C3001 0.931 . S
H3029 C3003 0.929 . S
H3030 C3004 0.930 . S
H3031 C3005 0.931 . S
H3032 C3012 0.932 . S
H3033 C3013 0.930 . S
H3034 C3014 0.929 . S
H3035 C3016 0.930 . S
H3036 C3018 0.932 . S
H3037 C3019 0.929 . S
H3038 C3020 0.928 . S
H3039 C3022 0.932 . S
C3040 C3041 1.264 . S
C3040 C3045 1.479 . S
C3040 C3050 1.465 . S
C3041 C3040 1.264 . S
C3041 C3043 1.339 . S
C3041 H3068 0.931 . S
C3042 C3043 1.395 . S
C3042 C3044 1.320 . S
C3043 C3041 1.339 . S
C3043 C3042 1.395 . S
C3043 H3069 0.929 . S
C3044 C3042 1.320 . S
C3044 C3045 1.405 . S
C3044 H3070 0.930 . S
C3045 C3040 1.479 . S
C3045 C3044 1.405 . S
C3045 H3071 0.931 . S
U3046 O3047 2.454 . S
U3046 O3048 2.458 . S
U3046 C3049 2.984 . S
U3046 C3050 2.847 . S
U3046 C3063 2.882 . S
U3046 O3064 2.441 . S
U3046 O3065 2.420 . S
U3046 O3066 2.455 . S
U3046 O3067 2.449 . S
O3047 U3046 2.454 . S
O3047 C3049 1.353 . S
O3048 U3046 2.458 . S
O3048 C3049 1.286 . S
C3049 U3046 2.984 . S
C3049 O3047 1.353 . S
C3049 O3048 1.286 . S
C3049 C3051 1.363 . S
C3050 C3040 1.465 . S
C3050 U3046 2.847 . S
C3050 O3064 1.249 . S
C3050 O3065 1.202 . S
C3051 C3049 1.363 . S
C3051 C3053 1.408 . S
C3051 C3056 1.342 . S
C3052 C3053 1.310 . S
C3052 C3055 1.461 . S
C3052 H3072 0.932 . S
C3053 C3051 1.408 . S
C3053 C3052 1.310 . S
C3053 H3073 0.930 . S
C3054 C3055 1.474 . S
C3054 C3056 1.285 . S
C3054 H3074 0.929 . S
C3055 C3052 1.461 . S
C3055 C3054 1.474 . S
C3056 C3051 1.342 . S
C3056 C3054 1.285 . S
C3056 H3075 0.930 . S
C3057 C3060 1.424 . S
C3057 C3062 1.245 . S
C3057 C3063 1.428 . S
C3058 C3061 1.260 . S
C3058 C3062 1.477 . S
C3058 H3076 0.932 . S
C3059 C3060 1.384 . S
C3059 C3061 1.479 . S
C3059 H3077 0.929 . S
C3060 C3057 1.424 . S
C3060 C3059 1.384 . S
C3060 H3078 0.928 . S
C3061 C3058 1.260 . S
C3061 C3059 1.479 . S
C3062 C3057 1.245 . S
C3062 C3058 1.477 . S
C3062 H3079 0.932 . S
C3063 U3046 2.882 . S
C3063 C3057 1.428 . S
C3063 O3066 1.301 . S
C3063 O3067 1.282 . S
O3064 U3046 2.441 . S
O3064 C3050 1.249 . S
O3065 U3046 2.420 . S
O3065 C3050 1.202 . S
O3066 U3046 2.455 . S
O3066 C3063 1.301 . S
O3067 U3046 2.449 . S
O3067 C3063 1.282 . S
H3068 C3041 0.931 . S
H3069 C3043 0.929 . S
H3070 C3044 0.930 . S
H3071 C3045 0.931 . S
H3072 C3052 0.932 . S
H3073 C3053 0.930 . S
H3074 C3054 0.929 . S
H3075 C3056 0.930 . S
H3076 C3058 0.932 . S
H3077 C3059 0.929 . S
H3078 C3060 0.928 . S
H3079 C3062 0.932 . S
C3080 C3081 1.264 . S
C3080 C3085 1.479 . S
C3080 C3090 1.465 . S
C3081 C3080 1.264 . S
C3081 C3083 1.339 . S
C3081 H3108 0.931 . S
C3082 C3083 1.395 . S
C3082 C3084 1.320 . S
C3083 C3081 1.339 . S
C3083 C3082 1.395 . S
C3083 H3109 0.929 . S
C3084 C3082 1.320 . S
C3084 C3085 1.405 . S
C3084 H3110 0.930 . S
C3085 C3080 1.479 . S
C3085 C3084 1.405 . S
C3085 H3111 0.931 . S
U3086 O3087 2.454 . S
U3086 O3088 2.458 . S
U3086 C3089 2.984 . S
U3086 C3090 2.847 . S
U3086 C3103 2.882 . S
U3086 O3104 2.441 . S
U3086 O3105 2.420 . S
U3086 O3106 2.455 . S
U3086 O3107 2.449 . S
O3087 U3086 2.454 . S
O3087 C3089 1.353 . S
O3088 U3086 2.458 . S
O3088 C3089 1.286 . S
C3089 U3086 2.984 . S
C3089 O3087 1.353 . S
C3089 O3088 1.286 . S
C3089 C3091 1.363 . S
C3090 C3080 1.465 . S
C3090 U3086 2.847 . S
C3090 O3104 1.249 . S
C3090 O3105 1.202 . S
C3091 C3089 1.363 . S
C3091 C3093 1.408 . S
C3091 C3096 1.342 . S
C3092 C3093 1.310 . S
C3092 C3095 1.461 . S
C3092 H3112 0.932 . S
C3093 C3091 1.408 . S
C3093 C3092 1.310 . S
C3093 H3113 0.930 . S
C3094 C3095 1.474 . S
C3094 C3096 1.285 . S
C3094 H3114 0.929 . S
C3095 C3092 1.461 . S
C3095 C3094 1.474 . S
C3096 C3091 1.342 . S
C3096 C3094 1.285 . S
C3096 H3115 0.930 . S
C3097 C3100 1.424 . S
C3097 C3102 1.245 . S
C3097 C3103 1.428 . S
C3098 C3101 1.260 . S
C3098 C3102 1.477 . S
C3098 H3116 0.932 . S
C3099 C3100 1.384 . S
C3099 C3101 1.479 . S
C3099 H3117 0.929 . S
C3100 C3097 1.424 . S
C3100 C3099 1.384 . S
C3100 H3118 0.928 . S
C3101 C3098 1.260 . S
C3101 C3099 1.479 . S
C3102 C3097 1.245 . S
C3102 C3098 1.477 . S
C3102 H3119 0.932 . S
C3103 U3086 2.882 . S
C3103 C3097 1.428 . S
C3103 O3106 1.301 . S
C3103 O3107 1.282 . S
O3104 U3086 2.441 . S
O3104 C3090 1.249 . S
O3105 U3086 2.420 . S
O3105 C3090 1.202 . S
O3106 U3086 2.455 . S
O3106 C3103 1.301 . S
O3107 U3086 2.449 . S
O3107 C3103 1.282 . S
H3108 C3081 0.931 . S
H3109 C3083 0.929 . S
H3110 C3084 0.930 . S
H3111 C3085 0.931 . S
H3112 C3092 0.932 . S
H3113 C3093 0.930 . S
H3114 C3094 0.929 . S
H3115 C3096 0.930 . S
H3116 C3098 0.932 . S
H3117 C3099 0.929 . S
H3118 C3100 0.928 . S
H3119 C3102 0.932 . S
C3120 C3121 1.264 . S
C3120 C3125 1.479 . S
C3120 C3130 1.465 . S
C3121 C3120 1.264 . S
C3121 C3123 1.339 . S
C3121 H3148 0.931 . S
C3122 C3123 1.395 . S
C3122 C3124 1.320 . S
C3123 C3121 1.339 . S
C3123 C3122 1.395 . S
C3123 H3149 0.929 . S
C3124 C3122 1.320 . S
C3124 C3125 1.405 . S
C3124 H3150 0.930 . S
C3125 C3120 1.479 . S
C3125 C3124 1.405 . S
C3125 H3151 0.931 . S
U3126 O3127 2.454 . S
U3126 O3128 2.458 . S
U3126 C3129 2.984 . S
U3126 C3130 2.847 . S
U3126 C3143 2.882 . S
U3126 O3144 2.441 . S
U3126 O3145 2.420 . S
U3126 O3146 2.455 . S
U3126 O3147 2.449 . S
O3127 U3126 2.454 . S
O3127 C3129 1.353 . S
O3128 U3126 2.458 . S
O3128 C3129 1.286 . S
C3129 U3126 2.984 . S
C3129 O3127 1.353 . S
C3129 O3128 1.286 . S
C3129 C3131 1.363 . S
C3130 C3120 1.465 . S
C3130 U3126 2.847 . S
C3130 O3144 1.249 . S
C3130 O3145 1.202 . S
C3131 C3129 1.363 . S
C3131 C3133 1.408 . S
C3131 C3136 1.342 . S
C3132 C3133 1.310 . S
C3132 C3135 1.461 . S
C3132 H3152 0.932 . S
C3133 C3131 1.408 . S
C3133 C3132 1.310 . S
C3133 H3153 0.930 . S
C3134 C3135 1.474 . S
C3134 C3136 1.285 . S
C3134 H3154 0.929 . S
C3135 C3132 1.461 . S
C3135 C3134 1.474 . S
C3136 C3131 1.342 . S
C3136 C3134 1.285 . S
C3136 H3155 0.930 . S
C3137 C3140 1.424 . S
C3137 C3142 1.245 . S
C3137 C3143 1.428 . S
C3138 C3141 1.260 . S
C3138 C3142 1.477 . S
C3138 H3156 0.932 . S
C3139 C3140 1.384 . S
C3139 C3141 1.479 . S
C3139 H3157 0.929 . S
C3140 C3137 1.424 . S
C3140 C3139 1.384 . S
C3140 H3158 0.928 . S
C3141 C3138 1.260 . S
C3141 C3139 1.479 . S
C3142 C3137 1.245 . S
C3142 C3138 1.477 . S
C3142 H3159 0.932 . S
C3143 U3126 2.882 . S
C3143 C3137 1.428 . S
C3143 O3146 1.301 . S
C3143 O3147 1.282 . S
O3144 U3126 2.441 . S
O3144 C3130 1.249 . S
O3145 U3126 2.420 . S
O3145 C3130 1.202 . S
O3146 U3126 2.455 . S
O3146 C3143 1.301 . S
O3147 U3126 2.449 . S
O3147 C3143 1.282 . S
H3148 C3121 0.931 . S
H3149 C3123 0.929 . S
H3150 C3124 0.930 . S
H3151 C3125 0.931 . S
H3152 C3132 0.932 . S
H3153 C3133 0.930 . S
H3154 C3134 0.929 . S
H3155 C3136 0.930 . S
H3156 C3138 0.932 . S
H3157 C3139 0.929 . S
H3158 C3140 0.928 . S
H3159 C3142 0.932 . S
C3160 C3161 1.264 . S
C3160 C3165 1.479 . S
C3160 C3170 1.465 . S
C3161 C3160 1.264 . S
C3161 C3163 1.339 . S
C3161 H3188 0.931 . S
C3162 C3163 1.395 . S
C3162 C3164 1.320 . S
C3163 C3161 1.339 . S
C3163 C3162 1.395 . S
C3163 H3189 0.929 . S
C3164 C3162 1.320 . S
C3164 C3165 1.405 . S
C3164 H3190 0.930 . S
C3165 C3160 1.479 . S
C3165 C3164 1.405 . S
C3165 H3191 0.931 . S
U3166 O3167 2.454 . S
U3166 O3168 2.458 . S
U3166 C3169 2.984 . S
U3166 C3170 2.847 . S
U3166 C3183 2.882 . S
U3166 O3184 2.441 . S
U3166 O3185 2.420 . S
U3166 O3186 2.455 . S
U3166 O3187 2.449 . S
O3167 U3166 2.454 . S
O3167 C3169 1.353 . S
O3168 U3166 2.458 . S
O3168 C3169 1.286 . S
C3169 U3166 2.984 . S
C3169 O3167 1.353 . S
C3169 O3168 1.286 . S
C3169 C3171 1.363 . S
C3170 C3160 1.465 . S
C3170 U3166 2.847 . S
C3170 O3184 1.249 . S
C3170 O3185 1.202 . S
C3171 C3169 1.363 . S
C3171 C3173 1.408 . S
C3171 C3176 1.342 . S
C3172 C3173 1.310 . S
C3172 C3175 1.461 . S
C3172 H3192 0.932 . S
C3173 C3171 1.408 . S
C3173 C3172 1.310 . S
C3173 H3193 0.930 . S
C3174 C3175 1.474 . S
C3174 C3176 1.285 . S
C3174 H3194 0.929 . S
C3175 C3172 1.461 . S
C3175 C3174 1.474 . S
C3176 C3171 1.342 . S
C3176 C3174 1.285 . S
C3176 H3195 0.930 . S
C3177 C3180 1.424 . S
C3177 C3182 1.245 . S
C3177 C3183 1.428 . S
C3178 C3181 1.260 . S
C3178 C3182 1.477 . S
C3178 H3196 0.932 . S
C3179 C3180 1.384 . S
C3179 C3181 1.479 . S
C3179 H3197 0.929 . S
C3180 C3177 1.424 . S
C3180 C3179 1.384 . S
C3180 H3198 0.928 . S
C3181 C3178 1.260 . S
C3181 C3179 1.479 . S
C3182 C3177 1.245 . S
C3182 C3178 1.477 . S
C3182 H3199 0.932 . S
C3183 U3166 2.882 . S
C3183 C3177 1.428 . S
C3183 O3186 1.301 . S
C3183 O3187 1.282 . S
O3184 U3166 2.441 . S
O3184 C3170 1.249 . S
O3185 U3166 2.420 . S
O3185 C3170 1.202 . S
O3186 U3166 2.455 . S
O3186 C3183 1.301 . S
O3187 U3166 2.449 . S
O3187 C3183 1.282 . S
H3188 C3161 0.931 . S
H3189 C3163 0.929 . S
H3190 C3164 0.930 . S
H3191 C3165 0.931 . S
H3192 C3172 0.932 . S
H3193 C3173 0.930 . S
H3194 C3174 0.929 . S
H3195 C3176 0.930 . S
H3196 C3178 0.932 . S
H3197 C3179 0.929 . S
H3198 C3180 0.928 . S
H3199 C3182 0.932 . S
C3200 C3201 1.264 . S
C3200 C3205 1.479 . S
C3200 C3210 1.465 . S
C3201 C3200 1.264 . S
C3201 C3203 1.339 . S
C3201 H3228 0.931 . S
C3202 C3203 1.395 . S
C3202 C3204 1.320 . S
C3203 C3201 1.339 . S
C3203 C3202 1.395 . S
C3203 H3229 0.929 . S
C3204 C3202 1.320 . S
C3204 C3205 1.405 . S
C3204 H3230 0.930 . S
C3205 C3200 1.479 . S
C3205 C3204 1.405 . S
C3205 H3231 0.931 . S
U3206 O3207 2.454 . S
U3206 O3208 2.458 . S
U3206 C3209 2.984 . S
U3206 C3210 2.847 . S
U3206 C3223 2.882 . S
U3206 O3224 2.441 . S
U3206 O3225 2.420 . S
U3206 O3226 2.455 . S
U3206 O3227 2.449 . S
O3207 U3206 2.454 . S
O3207 C3209 1.353 . S
O3208 U3206 2.458 . S
O3208 C3209 1.286 . S
C3209 U3206 2.984 . S
C3209 O3207 1.353 . S
C3209 O3208 1.286 . S
C3209 C3211 1.363 . S
C3210 C3200 1.465 . S
C3210 U3206 2.847 . S
C3210 O3224 1.249 . S
C3210 O3225 1.202 . S
C3211 C3209 1.363 . S
C3211 C3213 1.408 . S
C3211 C3216 1.342 . S
C3212 C3213 1.310 . S
C3212 C3215 1.461 . S
C3212 H3232 0.932 . S
C3213 C3211 1.408 . S
C3213 C3212 1.310 . S
C3213 H3233 0.930 . S
C3214 C3215 1.474 . S
C3214 C3216 1.285 . S
C3214 H3234 0.929 . S
C3215 C3212 1.461 . S
C3215 C3214 1.474 . S
C3216 C3211 1.342 . S
C3216 C3214 1.285 . S
C3216 H3235 0.930 . S
C3217 C3220 1.424 . S
C3217 C3222 1.245 . S
C3217 C3223 1.428 . S
C3218 C3221 1.260 . S
C3218 C3222 1.477 . S
C3218 H3236 0.932 . S
C3219 C3220 1.384 . S
C3219 C3221 1.479 . S
C3219 H3237 0.929 . S
C3220 C3217 1.424 . S
C3220 C3219 1.384 . S
C3220 H3238 0.928 . S
C3221 C3218 1.260 . S
C3221 C3219 1.479 . S
C3222 C3217 1.245 . S
C3222 C3218 1.477 . S
C3222 H3239 0.932 . S
C3223 U3206 2.882 . S
C3223 C3217 1.428 . S
C3223 O3226 1.301 . S
C3223 O3227 1.282 . S
O3224 U3206 2.441 . S
O3224 C3210 1.249 . S
O3225 U3206 2.420 . S
O3225 C3210 1.202 . S
O3226 U3206 2.455 . S
O3226 C3223 1.301 . S
O3227 U3206 2.449 . S
O3227 C3223 1.282 . S
H3228 C3201 0.931 . S
H3229 C3203 0.929 . S
H3230 C3204 0.930 . S
H3231 C3205 0.931 . S
H3232 C3212 0.932 . S
H3233 C3213 0.930 . S
H3234 C3214 0.929 . S
H3235 C3216 0.930 . S
H3236 C3218 0.932 . S
H3237 C3219 0.929 . S
H3238 C3220 0.928 . S
H3239 C3222 0.932 . S
C3240 C3241 1.264 . S
C3240 C3245 1.479 . S
C3240 C3250 1.465 . S
C3241 C3240 1.264 . S
C3241 C3243 1.339 . S
C3241 H3268 0.931 . S
C3242 C3243 1.395 . S
C3242 C3244 1.320 . S
C3243 C3241 1.339 . S
C3243 C3242 1.395 . S
C3243 H3269 0.929 . S
C3244 C3242 1.320 . S
C3244 C3245 1.405 . S
C3244 H3270 0.930 . S
C3245 C3240 1.479 . S
C3245 C3244 1.405 . S
C3245 H3271 0.931 . S
U3246 O3247 2.454 . S
U3246 O3248 2.458 . S
U3246 C3249 2.984 . S
U3246 C3250 2.847 . S
U3246 C3263 2.882 . S
U3246 O3264 2.441 . S
U3246 O3265 2.420 . S
U3246 O3266 2.455 . S
U3246 O3267 2.449 . S
O3247 U3246 2.454 . S
O3247 C3249 1.353 . S
O3248 U3246 2.458 . S
O3248 C3249 1.286 . S
C3249 U3246 2.984 . S
C3249 O3247 1.353 . S
C3249 O3248 1.286 . S
C3249 C3251 1.363 . S
C3250 C3240 1.465 . S
C3250 U3246 2.847 . S
C3250 O3264 1.249 . S
C3250 O3265 1.202 . S
C3251 C3249 1.363 . S
C3251 C3253 1.408 . S
C3251 C3256 1.342 . S
C3252 C3253 1.310 . S
C3252 C3255 1.461 . S
C3252 H3272 0.932 . S
C3253 C3251 1.408 . S
C3253 C3252 1.310 . S
C3253 H3273 0.930 . S
C3254 C3255 1.474 . S
C3254 C3256 1.285 . S
C3254 H3274 0.929 . S
C3255 C3252 1.461 . S
C3255 C3254 1.474 . S
C3256 C3251 1.342 . S
C3256 C3254 1.285 . S
C3256 H3275 0.930 . S
C3257 C3260 1.424 . S
C3257 C3262 1.245 . S
C3257 C3263 1.428 . S
C3258 C3261 1.260 . S
C3258 C3262 1.477 . S
C3258 H3276 0.932 . S
C3259 C3260 1.384 . S
C3259 C3261 1.479 . S
C3259 H3277 0.929 . S
C3260 C3257 1.424 . S
C3260 C3259 1.384 . S
C3260 H3278 0.928 . S
C3261 C3258 1.260 . S
C3261 C3259 1.479 . S
C3262 C3257 1.245 . S
C3262 C3258 1.477 . S
C3262 H3279 0.932 . S
C3263 U3246 2.882 . S
C3263 C3257 1.428 . S
C3263 O3266 1.301 . S
C3263 O3267 1.282 . S
O3264 U3246 2.441 . S
O3264 C3250 1.249 . S
O3265 U3246 2.420 . S
O3265 C3250 1.202 . S
O3266 U3246 2.455 . S
O3266 C3263 1.301 . S
O3267 U3246 2.449 . S
O3267 C3263 1.282 . S
H3268 C3241 0.931 . S
H3269 C3243 0.929 . S
H3270 C3244 0.930 . S
H3271 C3245 0.931 . S
H3272 C3252 0.932 . S
H3273 C3253 0.930 . S
H3274 C3254 0.929 . S
H3275 C3256 0.930 . S
H3276 C3258 0.932 . S
H3277 C3259 0.929 . S
H3278 C3260 0.928 . S
H3279 C3262 0.932 . S
C3280 C3281 1.264 . S
C3280 C3285 1.479 . S
C3280 C3290 1.465 . S
C3281 C3280 1.264 . S
C3281 C3283 1.339 . S
C3281 H3308 0.931 . S
C3282 C3283 1.395 . S
C3282 C3284 1.320 . S
C3283 C3281 1.339 . S
C3283 C3282 1.395 . S
C3283 H3309 0.929 . S
C3284 C3282 1.320 . S
C3284 C3285 1.405 . S
C3284 H3310 0.930 . S
C3285 C3280 1.479 . S
C3285 C3284 1.405 . S
C3285 H3311 0.931 . S
U3286 O3287 2.454 . S
U3286 O3288 2.458 . S
U3286 C3289 2.984 . S
U3286 C3290 2.847 . S
U3286 C3303 2.882 . S
U3286 O3304 2.441 . S
U3286 O3305 2.420 . S
U3286 O3306 2.455 . S
U3286 O3307 2.449 . S
O3287 U3286 2.454 . S
O3287 C3289 1.353 . S
O3288 U3286 2.458 . S
O3288 C3289 1.286 . S
C3289 U3286 2.984 . S
C3289 O3287 1.353 . S
C3289 O3288 1.286 . S
C3289 C3291 1.363 . S
C3290 C3280 1.465 . S
C3290 U3286 2.847 . S
C3290 O3304 1.249 . S
C3290 O3305 1.202 . S
C3291 C3289 1.363 . S
C3291 C3293 1.408 . S
C3291 C3296 1.342 . S
C3292 C3293 1.310 . S
C3292 C3295 1.461 . S
C3292 H3312 0.932 . S
C3293 C3291 1.408 . S
C3293 C3292 1.310 . S
C3293 H3313 0.930 . S
C3294 C3295 1.474 . S
C3294 C3296 1.285 . S
C3294 H3314 0.929 . S
C3295 C3292 1.461 . S
C3295 C3294 1.474 . S
C3296 C3291 1.342 . S
C3296 C3294 1.285 . S
C3296 H3315 0.930 . S
C3297 C3300 1.424 . S
C3297 C3302 1.245 . S
C3297 C3303 1.428 . S
C3298 C3301 1.260 . S
C3298 C3302 1.477 . S
C3298 H3316 0.932 . S
C3299 C3300 1.384 . S
C3299 C3301 1.479 . S
C3299 H3317 0.929 . S
C3300 C3297 1.424 . S
C3300 C3299 1.384 . S
C3300 H3318 0.928 . S
C3301 C3298 1.260 . S
C3301 C3299 1.479 . S
C3302 C3297 1.245 . S
C3302 C3298 1.477 . S
C3302 H3319 0.932 . S
C3303 U3286 2.882 . S
C3303 C3297 1.428 . S
C3303 O3306 1.301 . S
C3303 O3307 1.282 . S
O3304 U3286 2.441 . S
O3304 C3290 1.249 . S
O3305 U3286 2.420 . S
O3305 C3290 1.202 . S
O3306 U3286 2.455 . S
O3306 C3303 1.301 . S
O3307 U3286 2.449 . S
O3307 C3303 1.282 . S
H3308 C3281 0.931 . S
H3309 C3283 0.929 . S
H3310 C3284 0.930 . S
H3311 C3285 0.931 . S
H3312 C3292 0.932 . S
H3313 C3293 0.930 . S
H3314 C3294 0.929 . S
H3315 C3296 0.930 . S
H3316 C3298 0.932 . S
H3317 C3299 0.929 . S
H3318 C3300 0.928 . S
H3319 C3302 0.932 . S
C3320 C3321 1.264 . S
C3320 C3325 1.479 . S
C3320 C3330 1.465 . S
C3321 C3320 1.264 . S
C3321 C3323 1.339 . S
C3321 H3348 0.931 . S
C3322 C3323 1.395 . S
C3322 C3324 1.320 . S
C3323 C3321 1.339 . S
C3323 C3322 1.395 . S
C3323 H3349 0.929 . S
C3324 C3322 1.320 . S
C3324 C3325 1.405 . S
C3324 H3350 0.930 . S
C3325 C3320 1.479 . S
C3325 C3324 1.405 . S
C3325 H3351 0.931 . S
U3326 O3327 2.454 . S
U3326 O3328 2.458 . S
U3326 C3329 2.984 . S
U3326 C3330 2.847 . S
U3326 C3343 2.882 . S
U3326 O3344 2.441 . S
U3326 O3345 2.420 . S
U3326 O3346 2.455 . S
U3326 O3347 2.449 . S
O3327 U3326 2.454 . S
O3327 C3329 1.353 . S
O3328 U3326 2.458 . S
O3328 C3329 1.286 . S
C3329 U3326 2.984 . S
C3329 O3327 1.353 . S
C3329 O3328 1.286 . S
C3329 C3331 1.363 . S
C3330 C3320 1.465 . S
C3330 U3326 2.847 . S
C3330 O3344 1.249 . S
C3330 O3345 1.202 . S
C3331 C3329 1.363 . S
C3331 C3333 1.408 . S
C3331 C3336 1.342 . S
C3332 C3333 1.310 . S
C3332 C3335 1.461 . S
C3332 H3352 0.932 . S
C3333 C3331 1.408 . S
C3333 C3332 1.310 . S
C3333 H3353 0.930 . S
C3334 C3335 1.474 . S
C3334 C3336 1.285 . S
C3334 H3354 0.929 . S
C3335 C3332 1.461 . S
C3335 C3334 1.474 . S
C3336 C3331 1.342 . S
C3336 C3334 1.285 . S
C3336 H3355 0.930 . S
C3337 C3340 1.424 . S
C3337 C3342 1.245 . S
C3337 C3343 1.428 . S
C3338 C3341 1.260 . S
C3338 C3342 1.477 . S
C3338 H3356 0.932 . S
C3339 C3340 1.384 . S
C3339 C3341 1.479 . S
C3339 H3357 0.929 . S
C3340 C3337 1.424 . S
C3340 C3339 1.384 . S
C3340 H3358 0.928 . S
C3341 C3338 1.260 . S
C3341 C3339 1.479 . S
C3342 C3337 1.245 . S
C3342 C3338 1.477 . S
C3342 H3359 0.932 . S
C3343 U3326 2.882 . S
C3343 C3337 1.428 . S
C3343 O3346 1.301 . S
C3343 O3347 1.282 . S
O3344 U3326 2.441 . S
O3344 C3330 1.249 . S
O3345 U3326 2.420 . S
O3345 C3330 1.202 . S
O3346 U3326 2.455 . S
O3346 C3343 1.301 . S
O3347 U3326 2.449 . S
O3347 C3343 1.282 . S
H3348 C3321 0.931 . S
H3349 C3323 0.929 . S
H3350 C3324 0.930 . S
H3351 C3325 0.931 . S
H3352 C3332 0.932 . S
H3353 C3333 0.930 . S
H3354 C3334 0.929 . S
H3355 C3336 0.930 . S
H3356 C3338 0.932 . S
H3357 C3339 0.929 . S
H3358 C3340 0.928 . S
H3359 C3342 0.932 . S
C3360 C3361 1.264 . S
C3360 C3365 1.479 . S
C3360 C3370 1.465 . S
C3361 C3360 1.264 . S
C3361 C3363 1.339 . S
C3361 H3388 0.931 . S
C3362 C3363 1.395 . S
C3362 C3364 1.320 . S
C3363 C3361 1.339 . S
C3363 C3362 1.395 . S
C3363 H3389 0.929 . S
C3364 C3362 1.320 . S
C3364 C3365 1.405 . S
C3364 H3390 0.930 . S
C3365 C3360 1.479 . S
C3365 C3364 1.405 . S
C3365 H3391 0.931 . S
U3366 O3367 2.454 . S
U3366 O3368 2.458 . S
U3366 C3369 2.984 . S
U3366 C3370 2.847 . S
U3366 C3383 2.882 . S
U3366 O3384 2.441 . S
U3366 O3385 2.420 . S
U3366 O3386 2.455 . S
U3366 O3387 2.449 . S
O3367 U3366 2.454 . S
O3367 C3369 1.353 . S
O3368 U3366 2.458 . S
O3368 C3369 1.286 . S
C3369 U3366 2.984 . S
C3369 O3367 1.353 . S
C3369 O3368 1.286 . S
C3369 C3371 1.363 . S
C3370 C3360 1.465 . S
C3370 U3366 2.847 . S
C3370 O3384 1.249 . S
C3370 O3385 1.202 . S
C3371 C3369 1.363 . S
C3371 C3373 1.408 . S
C3371 C3376 1.342 . S
C3372 C3373 1.310 . S
C3372 C3375 1.461 . S
C3372 H3392 0.932 . S
C3373 C3371 1.408 . S
C3373 C3372 1.310 . S
C3373 H3393 0.930 . S
C3374 C3375 1.474 . S
C3374 C3376 1.285 . S
C3374 H3394 0.929 . S
C3375 C3372 1.461 . S
C3375 C3374 1.474 . S
C3376 C3371 1.342 . S
C3376 C3374 1.285 . S
C3376 H3395 0.930 . S
C3377 C3380 1.424 . S
C3377 C3382 1.245 . S
C3377 C3383 1.428 . S
C3378 C3381 1.260 . S
C3378 C3382 1.477 . S
C3378 H3396 0.932 . S
C3379 C3380 1.384 . S
C3379 C3381 1.479 . S
C3379 H3397 0.929 . S
C3380 C3377 1.424 . S
C3380 C3379 1.384 . S
C3380 H3398 0.928 . S
C3381 C3378 1.260 . S
C3381 C3379 1.479 . S
C3382 C3377 1.245 . S
C3382 C3378 1.477 . S
C3382 H3399 0.932 . S
C3383 U3366 2.882 . S
C3383 C3377 1.428 . S
C3383 O3386 1.301 . S
C3383 O3387 1.282 . S
O3384 U3366 2.441 . S
O3384 C3370 1.249 . S
O3385 U3366 2.420 . S
O3385 C3370 1.202 . S
O3386 U3366 2.455 . S
O3386 C3383 1.301 . S
O3387 U3366 2.449 . S
O3387 C3383 1.282 . S
H3388 C3361 0.931 . S
H3389 C3363 0.929 . S
H3390 C3364 0.930 . S
H3391 C3365 0.931 . S
H3392 C3372 0.932 . S
H3393 C3373 0.930 . S
H3394 C3374 0.929 . S
H3395 C3376 0.930 . S
H3396 C3378 0.932 . S
H3397 C3379 0.929 . S
H3398 C3380 0.928 . S
H3399 C3382 0.932 . S
C3400 C3401 1.264 . S
C3400 C3405 1.479 . S
C3400 C3410 1.465 . S
C3401 C3400 1.264 . S
C3401 C3403 1.339 . S
C3401 H3428 0.931 . S
C3402 C3403 1.395 . S
C3402 C3404 1.320 . S
C3403 C3401 1.339 . S
C3403 C3402 1.395 . S
C3403 H3429 0.929 . S
C3404 C3402 1.320 . S
C3404 C3405 1.405 . S
C3404 H3430 0.930 . S
C3405 C3400 1.479 . S
C3405 C3404 1.405 . S
C3405 H3431 0.931 . S
U3406 O3407 2.454 . S
U3406 O3408 2.458 . S
U3406 C3409 2.984 . S
U3406 C3410 2.847 . S
U3406 C3423 2.882 . S
U3406 O3424 2.441 . S
U3406 O3425 2.420 . S
U3406 O3426 2.455 . S
U3406 O3427 2.449 . S
O3407 U3406 2.454 . S
O3407 C3409 1.353 . S
O3408 U3406 2.458 . S
O3408 C3409 1.286 . S
C3409 U3406 2.984 . S
C3409 O3407 1.353 . S
C3409 O3408 1.286 . S
C3409 C3411 1.363 . S
C3410 C3400 1.465 . S
C3410 U3406 2.847 . S
C3410 O3424 1.249 . S
C3410 O3425 1.202 . S
C3411 C3409 1.363 . S
C3411 C3413 1.408 . S
C3411 C3416 1.342 . S
C3412 C3413 1.310 . S
C3412 C3415 1.461 . S
C3412 H3432 0.932 . S
C3413 C3411 1.408 . S
C3413 C3412 1.310 . S
C3413 H3433 0.930 . S
C3414 C3415 1.474 . S
C3414 C3416 1.285 . S
C3414 H3434 0.929 . S
C3415 C3412 1.461 . S
C3415 C3414 1.474 . S
C3416 C3411 1.342 . S
C3416 C3414 1.285 . S
C3416 H3435 0.930 . S
C3417 C3420 1.424 . S
C3417 C3422 1.245 . S
C3417 C3423 1.428 . S
C3418 C3421 1.260 . S
C3418 C3422 1.477 . S
C3418 H3436 0.932 . S
C3419 C3420 1.384 . S
C3419 C3421 1.479 . S
C3419 H3437 0.929 . S
C3420 C3417 1.424 . S
C3420 C3419 1.384 . S
C3420 H3438 0.928 . S
C3421 C3418 1.260 . S
C3421 C3419 1.479 . S
C3422 C3417 1.245 . S
C3422 C3418 1.477 . S
C3422 H3439 0.932 . S
C3423 U3406 2.882 . S
C3423 C3417 1.428 . S
C3423 O3426 1.301 . S
C3423 O3427 1.282 . S
O3424 U3406 2.441 . S
O3424 C3410 1.249 . S
O3425 U3406 2.420 . S
O3425 C3410 1.202 . S
O3426 U3406 2.455 . S
O3426 C3423 1.301 . S
O3427 U3406 2.449 . S
O3427 C3423 1.282 . S
H3428 C3401 0.931 . S
H3429 C3403 0.929 . S
H3430 C3404 0.930 . S
H3431 C3405 0.931 . S
H3432 C3412 0.932 . S
H3433 C3413 0.930 . S
H3434 C3414 0.929 . S
H3435 C3416 0.930 . S
H3436 C3418 0.932 . S
H3437 C3419 0.929 . S
H3438 C3420 0.928 . S
H3439 C3422 0.932 . S
C3440 C3441 1.264 . S
C3440 C3445 1.479 . S
C3440 C3450 1.465 . S
C3441 C3440 1.264 . S
C3441 C3443 1.339 . S
C3441 H3468 0.931 . S
C3442 C3443 1.395 . S
C3442 C3444 1.320 . S
C3443 C3441 1.339 . S
C3443 C3442 1.395 . S
C3443 H3469 0.929 . S
C3444 C3442 1.320 . S
C3444 C3445 1.405 . S
C3444 H3470 0.930 . S
C3445 C3440 1.479 . S
C3445 C3444 1.405 . S
C3445 H3471 0.931 . S
U3446 O3447 2.454 . S
U3446 O3448 2.458 . S
U3446 C3449 2.984 . S
U3446 C3450 2.847 . S
U3446 C3463 2.882 . S
U3446 O3464 2.441 . S
U3446 O3465 2.420 . S
U3446 O3466 2.455 . S
U3446 O3467 2.449 . S
O3447 U3446 2.454 . S
O3447 C3449 1.353 . S
O3448 U3446 2.458 . S
O3448 C3449 1.286 . S
C3449 U3446 2.984 . S
C3449 O3447 1.353 . S
C3449 O3448 1.286 . S
C3449 C3451 1.363 . S
C3450 C3440 1.465 . S
C3450 U3446 2.847 . S
C3450 O3464 1.249 . S
C3450 O3465 1.202 . S
C3451 C3449 1.363 . S
C3451 C3453 1.408 . S
C3451 C3456 1.342 . S
C3452 C3453 1.310 . S
C3452 C3455 1.461 . S
C3452 H3472 0.932 . S
C3453 C3451 1.408 . S
C3453 C3452 1.310 . S
C3453 H3473 0.930 . S
C3454 C3455 1.474 . S
C3454 C3456 1.285 . S
C3454 H3474 0.929 . S
C3455 C3452 1.461 . S
C3455 C3454 1.474 . S
C3456 C3451 1.342 . S
C3456 C3454 1.285 . S
C3456 H3475 0.930 . S
C3457 C3460 1.424 . S
C3457 C3462 1.245 . S
C3457 C3463 1.428 . S
C3458 C3461 1.260 . S
C3458 C3462 1.477 . S
C3458 H3476 0.932 . S
C3459 C3460 1.384 . S
C3459 C3461 1.479 . S
C3459 H3477 0.929 . S
C3460 C3457 1.424 . S
C3460 C3459 1.384 . S
C3460 H3478 0.928 . S
C3461 C3458 1.260 . S
C3461 C3459 1.479 . S
C3462 C3457 1.245 . S
C3462 C3458 1.477 . S
C3462 H3479 0.932 . S
C3463 U3446 2.882 . S
C3463 C3457 1.428 . S
C3463 O3466 1.301 . S
C3463 O3467 1.282 . S
O3464 U3446 2.441 . S
O3464 C3450 1.249 . S
O3465 U3446 2.420 . S
O3465 C3450 1.202 . S
O3466 U3446 2.455 . S
O3466 C3463 1.301 . S
O3467 U3446 2.449 . S
O3467 C3463 1.282 . S
H3468 C3441 0.931 . S
H3469 C3443 0.929 . S
H3470 C3444 0.930 . S
H3471 C3445 0.931 . S
H3472 C3452 0.932 . S
H3473 C3453 0.930 . S
H3474 C3454 0.929 . S
H3475 C3456 0.930 . S
H3476 C3458 0.932 . S
H3477 C3459 0.929 . S
H3478 C3460 0.928 . S
H3479 C3462 0.932 . S
C3480 C3481 1.264 . S
C3480 C3485 1.479 . S
C3480 C3490 1.465 . S
C3481 C3480 1.264 . S
C3481 C3483 1.339 . S
C3481 H3508 0.931 . S
C3482 C3483 1.395 . S
C3482 C3484 1.320 . S
C3483 C3481 1.339 . S
C3483 C3482 1.395 . S
C3483 H3509 0.929 . S
C3484 C3482 1.320 . S
C3484 C3485 1.405 . S
C3484 H3510 0.930 . S
C3485 C3480 1.479 . S
C3485 C3484 1.405 . S
C3485 H3511 0.931 . S
U3486 O3487 2.454 . S
U3486 O3488 2.458 . S
U3486 C3489 2.984 . S
U3486 C3490 2.847 . S
U3486 C3503 2.882 . S
U3486 O3504 2.441 . S
U3486 O3505 2.420 . S
U3486 O3506 2.455 . S
U3486 O3507 2.449 . S
O3487 U3486 2.454 . S
O3487 C3489 1.353 . S
O3488 U3486 2.458 . S
O3488 C3489 1.286 . S
C3489 U3486 2.984 . S
C3489 O3487 1.353 . S
C3489 O3488 1.286 . S
C3489 C3491 1.363 . S
C3490 C3480 1.465 . S
C3490 U3486 2.847 . S
C3490 O3504 1.249 . S
C3490 O3505 1.202 . S
C3491 C3489 1.363 . S
C3491 C3493 1.408 . S
C3491 C3496 1.342 . S
C3492 C3493 1.310 . S
C3492 C3495 1.461 . S
C3492 H3512 0.932 . S
C3493 C3491 1.408 . S
C3493 C3492 1.310 . S
C3493 H3513 0.930 . S
C3494 C3495 1.474 . S
C3494 C3496 1.285 . S
C3494 H3514 0.929 . S
C3495 C3492 1.461 . S
C3495 C3494 1.474 . S
C3496 C3491 1.342 . S
C3496 C3494 1.285 . S
C3496 H3515 0.930 . S
C3497 C3500 1.424 . S
C3497 C3502 1.245 . S
C3497 C3503 1.428 . S
C3498 C3501 1.260 . S
C3498 C3502 1.477 . S
C3498 H3516 0.932 . S
C3499 C3500 1.384 . S
C3499 C3501 1.479 . S
C3499 H3517 0.929 . S
C3500 C3497 1.424 . S
C3500 C3499 1.384 . S
C3500 H3518 0.928 . S
C3501 C3498 1.260 . S
C3501 C3499 1.479 . S
C3502 C3497 1.245 . S
C3502 C3498 1.477 . S
C3502 H3519 0.932 . S
C3503 U3486 2.882 . S
C3503 C3497 1.428 . S
C3503 O3506 1.301 . S
C3503 O3507 1.282 . S
O3504 U3486 2.441 . S
O3504 C3490 1.249 . S
O3505 U3486 2.420 . S
O3505 C3490 1.202 . S
O3506 U3486 2.455 . S
O3506 C3503 1.301 . S
O3507 U3486 2.449 . S
O3507 C3503 1.282 . S
H3508 C3481 0.931 . S
H3509 C3483 0.929 . S
H3510 C3484 0.930 . S
H3511 C3485 0.931 . S
H3512 C3492 0.932 . S
H3513 C3493 0.930 . S
H3514 C3494 0.929 . S
H3515 C3496 0.930 . S
H3516 C3498 0.932 . S
H3517 C3499 0.929 . S
H3518 C3500 0.928 . S
H3519 C3502 0.932 . S
C3520 C3521 1.264 . S
C3520 C3525 1.479 . S
C3520 C3530 1.465 . S
C3521 C3520 1.264 . S
C3521 C3523 1.339 . S
C3521 H3548 0.931 . S
C3522 C3523 1.395 . S
C3522 C3524 1.320 . S
C3523 C3521 1.339 . S
C3523 C3522 1.395 . S
C3523 H3549 0.929 . S
C3524 C3522 1.320 . S
C3524 C3525 1.405 . S
C3524 H3550 0.930 . S
C3525 C3520 1.479 . S
C3525 C3524 1.405 . S
C3525 H3551 0.931 . S
U3526 O3527 2.454 . S
U3526 O3528 2.458 . S
U3526 C3529 2.984 . S
U3526 C3530 2.847 . S
U3526 C3543 2.882 . S
U3526 O3544 2.441 . S
U3526 O3545 2.420 . S
U3526 O3546 2.455 . S
U3526 O3547 2.449 . S
O3527 U3526 2.454 . S
O3527 C3529 1.353 . S
O3528 U3526 2.458 . S
O3528 C3529 1.286 . S
C3529 U3526 2.984 . S
C3529 O3527 1.353 . S
C3529 O3528 1.286 . S
C3529 C3531 1.363 . S
C3530 C3520 1.465 . S
C3530 U3526 2.847 . S
C3530 O3544 1.249 . S
C3530 O3545 1.202 . S
C3531 C3529 1.363 . S
C3531 C3533 1.408 . S
C3531 C3536 1.342 . S
C3532 C3533 1.310 . S
C3532 C3535 1.461 . S
C3532 H3552 0.932 . S
C3533 C3531 1.408 . S
C3533 C3532 1.310 . S
C3533 H3553 0.930 . S
C3534 C3535 1.474 . S
C3534 C3536 1.285 . S
C3534 H3554 0.929 . S
C3535 C3532 1.461 . S
C3535 C3534 1.474 . S
C3536 C3531 1.342 . S
C3536 C3534 1.285 . S
C3536 H3555 0.930 . S
C3537 C3540 1.424 . S
C3537 C3542 1.245 . S
C3537 C3543 1.428 . S
C3538 C3541 1.260 . S
C3538 C3542 1.477 . S
C3538 H3556 0.932 . S
C3539 C3540 1.384 . S
C3539 C3541 1.479 . S
C3539 H3557 0.929 . S
C3540 C3537 1.424 . S
C3540 C3539 1.384 . S
C3540 H3558 0.928 . S
C3541 C3538 1.260 . S
C3541 C3539 1.479 . S
C3542 C3537 1.245 . S
C3542 C3538 1.477 . S
C3542 H3559 0.932 . S
C3543 U3526 2.882 . S
C3543 C3537 1.428 . S
C3543 O3546 1.301 . S
C3543 O3547 1.282 . S
O3544 U3526 2.441 . S
O3544 C3530 1.249 . S
O3545 U3526 2.420 . S
O3545 C3530 1.202 . S
O3546 U3526 2.455 . S
O3546 C3543 1.301 . S
O3547 U3526 2.449 . S
O3547 C3543 1.282 . S
H3548 C3521 0.931 . S
H3549 C3523 0.929 . S
H3550 C3524 0.930 . S
H3551 C3525 0.931 . S
H3552 C3532 0.932 . S
H3553 C3533 0.930 . S
H3554 C3534 0.929 . S
H3555 C3536 0.930 . S
H3556 C3538 0.932 . S
H3557 C3539 0.929 . S
H3558 C3540 0.928 . S
H3559 C3542 0.932 . S
C3560 C3561 1.264 . S
C3560 C3565 1.479 . S
C3560 C3570 1.465 . S
C3561 C3560 1.264 . S
C3561 C3563 1.339 . S
C3561 H3588 0.931 . S
C3562 C3563 1.395 . S
C3562 C3564 1.320 . S
C3563 C3561 1.339 . S
C3563 C3562 1.395 . S
C3563 H3589 0.929 . S
C3564 C3562 1.320 . S
C3564 C3565 1.405 . S
C3564 H3590 0.930 . S
C3565 C3560 1.479 . S
C3565 C3564 1.405 . S
C3565 H3591 0.931 . S
U3566 O3567 2.454 . S
U3566 O3568 2.458 . S
U3566 C3569 2.984 . S
U3566 C3570 2.847 . S
U3566 C3583 2.882 . S
U3566 O3584 2.441 . S
U3566 O3585 2.420 . S
U3566 O3586 2.455 . S
U3566 O3587 2.449 . S
O3567 U3566 2.454 . S
O3567 C3569 1.353 . S
O3568 U3566 2.458 . S
O3568 C3569 1.286 . S
C3569 U3566 2.984 . S
C3569 O3567 1.353 . S
C3569 O3568 1.286 . S
C3569 C3571 1.363 . S
C3570 C3560 1.465 . S
C3570 U3566 2.847 . S
C3570 O3584 1.249 . S
C3570 O3585 1.202 . S
C3571 C3569 1.363 . S
C3571 C3573 1.408 . S
C3571 C3576 1.342 . S
C3572 C3573 1.310 . S
C3572 C3575 1.461 . S
C3572 H3592 0.932 . S
C3573 C3571 1.408 . S
C3573 C3572 1.310 . S
C3573 H3593 0.930 . S
C3574 C3575 1.474 . S
C3574 C3576 1.285 . S
C3574 H3594 0.929 . S
C3575 C3572 1.461 . S
C3575 C3574 1.474 . S
C3576 C3571 1.342 . S
C3576 C3574 1.285 . S
C3576 H3595 0.930 . S
C3577 C3580 1.424 . S
C3577 C3582 1.245 . S
C3577 C3583 1.428 . S
C3578 C3581 1.260 . S
C3578 C3582 1.477 . S
C3578 H3596 0.932 . S
C3579 C3580 1.384 . S
C3579 C3581 1.479 . S
C3579 H3597 0.929 . S
C3580 C3577 1.424 . S
C3580 C3579 1.384 . S
C3580 H3598 0.928 . S
C3581 C3578 1.260 . S
C3581 C3579 1.479 . S
C3582 C3577 1.245 . S
C3582 C3578 1.477 . S
C3582 H3599 0.932 . S
C3583 U3566 2.882 . S
C3583 C3577 1.428 . S
C3583 O3586 1.301 . S
C3583 O3587 1.282 . S
O3584 U3566 2.441 . S
O3584 C3570 1.249 . S
O3585 U3566 2.420 . S
O3585 C3570 1.202 . S
O3586 U3566 2.455 . S
O3586 C3583 1.301 . S
O3587 U3566 2.449 . S
O3587 C3583 1.282 . S
H3588 C3561 0.931 . S
H3589 C3563 0.929 . S
H3590 C3564 0.930 . S
H3591 C3565 0.931 . S
H3592 C3572 0.932 . S
H3593 C3573 0.930 . S
H3594 C3574 0.929 . S
H3595 C3576 0.930 . S
H3596 C3578 0.932 . S
H3597 C3579 0.929 . S
H3598 C3580 0.928 . S
H3599 C3582 0.932 . S
C3600 C3601 1.264 . S
C3600 C3605 1.479 . S
C3600 C3610 1.465 . S
C3601 C3600 1.264 . S
C3601 C3603 1.339 . S
C3601 H3628 0.931 . S
C3602 C3603 1.395 . S
C3602 C3604 1.320 . S
C3603 C3601 1.339 . S
C3603 C3602 1.395 . S
C3603 H3629 0.929 . S
C3604 C3602 1.320 . S
C3604 C3605 1.405 . S
C3604 H3630 0.930 . S
C3605 C3600 1.479 . S
C3605 C3604 1.405 . S
C3605 H3631 0.931 . S
U3606 O3607 2.454 . S
U3606 O3608 2.458 . S
U3606 C3609 2.984 . S
U3606 C3610 2.847 . S
U3606 C3623 2.882 . S
U3606 O3624 2.441 . S
U3606 O3625 2.420 . S
U3606 O3626 2.455 . S
U3606 O3627 2.449 . S
O3607 U3606 2.454 . S
O3607 C3609 1.353 . S
O3608 U3606 2.458 . S
O3608 C3609 1.286 . S
C3609 U3606 2.984 . S
C3609 O3607 1.353 . S
C3609 O3608 1.286 . S
C3609 C3611 1.363 . S
C3610 C3600 1.465 . S
C3610 U3606 2.847 . S
C3610 O3624 1.249 . S
C3610 O3625 1.202 . S
C3611 C3609 1.363 . S
C3611 C3613 1.408 . S
C3611 C3616 1.342 . S
C3612 C3613 1.310 . S
C3612 C3615 1.461 . S
C3612 H3632 0.932 . S
C3613 C3611 1.408 . S
C3613 C3612 1.310 . S
C3613 H3633 0.930 . S
C3614 C3615 1.474 . S
C3614 C3616 1.285 . S
C3614 H3634 0.929 . S
C3615 C3612 1.461 . S
C3615 C3614 1.474 . S
C3616 C3611 1.342 . S
C3616 C3614 1.285 . S
C3616 H3635 0.930 . S
C3617 C3620 1.424 . S
C3617 C3622 1.245 . S
C3617 C3623 1.428 . S
C3618 C3621 1.260 . S
C3618 C3622 1.477 . S
C3618 H3636 0.932 . S
C3619 C3620 1.384 . S
C3619 C3621 1.479 . S
C3619 H3637 0.929 . S
C3620 C3617 1.424 . S
C3620 C3619 1.384 . S
C3620 H3638 0.928 . S
C3621 C3618 1.260 . S
C3621 C3619 1.479 . S
C3622 C3617 1.245 . S
C3622 C3618 1.477 . S
C3622 H3639 0.932 . S
C3623 U3606 2.882 . S
C3623 C3617 1.428 . S
C3623 O3626 1.301 . S
C3623 O3627 1.282 . S
O3624 U3606 2.441 . S
O3624 C3610 1.249 . S
O3625 U3606 2.420 . S
O3625 C3610 1.202 . S
O3626 U3606 2.455 . S
O3626 C3623 1.301 . S
O3627 U3606 2.449 . S
O3627 C3623 1.282 . S
H3628 C3601 0.931 . S
H3629 C3603 0.929 . S
H3630 C3604 0.930 . S
H3631 C3605 0.931 . S
H3632 C3612 0.932 . S
H3633 C3613 0.930 . S
H3634 C3614 0.929 . S
H3635 C3616 0.930 . S
H3636 C3618 0.932 . S
H3637 C3619 0.929 . S
H3638 C3620 0.928 . S
H3639 C3622 0.932 . S
C3640 C3641 1.264 . S
C3640 C3645 1.479 . S
C3640 C3650 1.465 . S
C3641 C3640 1.264 . S
C3641 C3643 1.339 . S
C3641 H3668 0.931 . S
C3642 C3643 1.395 . S
C3642 C3644 1.320 . S
C3643 C3641 1.339 . S
C3643 C3642 1.395 . S
C3643 H3669 0.929 . S
C3644 C3642 1.320 . S
C3644 C3645 1.405 . S
C3644 H3670 0.930 . S
C3645 C3640 1.479 . S
C3645 C3644 1.405 . S
C3645 H3671 0.931 . S
U3646 O3647 2.454 . S
U3646 O3648 2.458 . S
U3646 C3649 2.984 . S
U3646 C3650 2.847 . S
U3646 C3663 2.882 . S
U3646 O3664 2.441 . S
U3646 O3665 2.420 . S
U3646 O3666 2.455 . S
U3646 O3667 2.449 . S
O3647 U3646 2.454 . S
O3647 C3649 1.353 . S
O3648 U3646 2.458 . S
O3648 C3649 1.286 . S
C3649 U3646 2.984 . S
C3649 O3647 1.353 . S
C3649 O3648 1.286 . S
C3649 C3651 1.363 . S
C3650 C3640 1.465 . S
C3650 U3646 2.847 . S
C3650 O3664 1.249 . S
C3650 O3665 1.202 . S
C3651 C3649 1.363 . S
C3651 C3653 1.408 . S
C3651 C3656 1.342 . S
C3652 C3653 1.310 . S
C3652 C3655 1.461 . S
C3652 H3672 0.932 . S
C3653 C3651 1.408 . S
C3653 C3652 1.310 . S
C3653 H3673 0.930 . S
C3654 C3655 1.474 . S
C3654 C3656 1.285 . S
C3654 H3674 0.929 . S
C3655 C3652 1.461 . S
C3655 C3654 1.474 . S
C3656 C3651 1.342 . S
C3656 C3654 1.285 . S
C3656 H3675 0.930 . S
C3657 C3660 1.424 . S
C3657 C3662 1.245 . S
C3657 C3663 1.428 . S
C3658 C3661 1.260 . S
C3658 C3662 1.477 . S
C3658 H3676 0.932 . S
C3659 C3660 1.384 . S
C3659 C3661 1.479 . S
C3659 H3677 0.929 . S
C3660 C3657 1.424 . S
C3660 C3659 1.384 . S
C3660 H3678 0.928 . S
C3661 C3658 1.260 . S
C3661 C3659 1.479 . S
C3662 C3657 1.245 . S
C3662 C3658 1.477 . S
C3662 H3679 0.932 . S
C3663 U3646 2.882 . S
C3663 C3657 1.428 . S
C3663 O3666 1.301 . S
C3663 O3667 1.282 . S
O3664 U3646 2.441 . S
O3664 C3650 1.249 . S
O3665 U3646 2.420 . S
O3665 C3650 1.202 . S
O3666 U3646 2.455 . S
O3666 C3663 1.301 . S
O3667 U3646 2.449 . S
O3667 C3663 1.282 . S
H3668 C3641 0.931 . S
H3669 C3643 0.929 . S
H3670 C3644 0.930 . S
H3671 C3645 0.931 . S
H3672 C3652 0.932 . S
H3673 C3653 0.930 . S
H3674 C3654 0.929 . S
H3675 C3656 0.930 . S
H3676 C3658 0.932 . S
H3677 C3659 0.929 . S
H3678 C3660 0.928 . S
H3679 C3662 0.932 . S
C3680 C3681 1.264 . S
C3680 C3685 1.479 . S
C3680 C3690 1.465 . S
C3681 C3680 1.264 . S
C3681 C3683 1.339 . S
C3681 H3708 0.931 . S
C3682 C3683 1.395 . S
C3682 C3684 1.320 . S
C3683 C3681 1.339 . S
C3683 C3682 1.395 . S
C3683 H3709 0.929 . S
C3684 C3682 1.320 . S
C3684 C3685 1.405 . S
C3684 H3710 0.930 . S
C3685 C3680 1.479 . S
C3685 C3684 1.405 . S
C3685 H3711 0.931 . S
U3686 O3687 2.454 . S
U3686 O3688 2.458 . S
U3686 C3689 2.984 . S
U3686 C3690 2.847 . S
U3686 C3703 2.882 . S
U3686 O3704 2.441 . S
U3686 O3705 2.420 . S
U3686 O3706 2.455 . S
U3686 O3707 2.449 . S
O3687 U3686 2.454 . S
O3687 C3689 1.353 . S
O3688 U3686 2.458 . S
O3688 C3689 1.286 . S
C3689 U3686 2.984 . S
C3689 O3687 1.353 . S
C3689 O3688 1.286 . S
C3689 C3691 1.363 . S
C3690 C3680 1.465 . S
C3690 U3686 2.847 . S
C3690 O3704 1.249 . S
C3690 O3705 1.202 . S
C3691 C3689 1.363 . S
C3691 C3693 1.408 . S
C3691 C3696 1.342 . S
C3692 C3693 1.310 . S
C3692 C3695 1.461 . S
C3692 H3712 0.932 . S
C3693 C3691 1.408 . S
C3693 C3692 1.310 . S
C3693 H3713 0.930 . S
C3694 C3695 1.474 . S
C3694 C3696 1.285 . S
C3694 H3714 0.929 . S
C3695 C3692 1.461 . S
C3695 C3694 1.474 . S
C3696 C3691 1.342 . S
C3696 C3694 1.285 . S
C3696 H3715 0.930 . S
C3697 C3700 1.424 . S
C3697 C3702 1.245 . S
C3697 C3703 1.428 . S
C3698 C3701 1.260 . S
C3698 C3702 1.477 . S
C3698 H3716 0.932 . S
C3699 C3700 1.384 . S
C3699 C3701 1.479 . S
C3699 H3717 0.929 . S
C3700 C3697 1.424 . S
C3700 C3699 1.384 . S
C3700 H3718 0.928 . S
C3701 C3698 1.260 . S
C3701 C3699 1.479 . S
C3702 C3697 1.245 . S
C3702 C3698 1.477 . S
C3702 H3719 0.932 . S
C3703 U3686 2.882 . S
C3703 C3697 1.428 . S
C3703 O3706 1.301 . S
C3703 O3707 1.282 . S
O3704 U3686 2.441 . S
O3704 C3690 1.249 . S
O3705 U3686 2.420 . S
O3705 C3690 1.202 . S
O3706 U3686 2.455 . S
O3706 C3703 1.301 . S
O3707 U3686 2.449 . S
O3707 C3703 1.282 . S
H3708 C3681 0.931 . S
H3709 C3683 0.929 . S
H3710 C3684 0.930 . S
H3711 C3685 0.931 . S
H3712 C3692 0.932 . S
H3713 C3693 0.930 . S
H3714 C3694 0.929 . S
H3715 C3696 0.930 . S
H3716 C3698 0.932 . S
H3717 C3699 0.929 . S
H3718 C3700 0.928 . S
H3719 C3702 0.932 . S
C3720 C3721 1.264 . S
C3720 C3725 1.479 . S
C3720 C3730 1.465 . S
C3721 C3720 1.264 . S
C3721 C3723 1.339 . S
C3721 H3748 0.931 . S
C3722 C3723 1.395 . S
C3722 C3724 1.320 . S
C3723 C3721 1.339 . S
C3723 C3722 1.395 . S
C3723 H3749 0.929 . S
C3724 C3722 1.320 . S
C3724 C3725 1.405 . S
C3724 H3750 0.930 . S
C3725 C3720 1.479 . S
C3725 C3724 1.405 . S
C3725 H3751 0.931 . S
U3726 O3727 2.454 . S
U3726 O3728 2.458 . S
U3726 C3729 2.984 . S
U3726 C3730 2.847 . S
U3726 C3743 2.882 . S
U3726 O3744 2.441 . S
U3726 O3745 2.420 . S
U3726 O3746 2.455 . S
U3726 O3747 2.449 . S
O3727 U3726 2.454 . S
O3727 C3729 1.353 . S
O3728 U3726 2.458 . S
O3728 C3729 1.286 . S
C3729 U3726 2.984 . S
C3729 O3727 1.353 . S
C3729 O3728 1.286 . S
C3729 C3731 1.363 . S
C3730 C3720 1.465 . S
C3730 U3726 2.847 . S
C3730 O3744 1.249 . S
C3730 O3745 1.202 . S
C3731 C3729 1.363 . S
C3731 C3733 1.408 . S
C3731 C3736 1.342 . S
C3732 C3733 1.310 . S
C3732 C3735 1.461 . S
C3732 H3752 0.932 . S
C3733 C3731 1.408 . S
C3733 C3732 1.310 . S
C3733 H3753 0.930 . S
C3734 C3735 1.474 . S
C3734 C3736 1.285 . S
C3734 H3754 0.929 . S
C3735 C3732 1.461 . S
C3735 C3734 1.474 . S
C3736 C3731 1.342 . S
C3736 C3734 1.285 . S
C3736 H3755 0.930 . S
C3737 C3740 1.424 . S
C3737 C3742 1.245 . S
C3737 C3743 1.428 . S
C3738 C3741 1.260 . S
C3738 C3742 1.477 . S
C3738 H3756 0.932 . S
C3739 C3740 1.384 . S
C3739 C3741 1.479 . S
C3739 H3757 0.929 . S
C3740 C3737 1.424 . S
C3740 C3739 1.384 . S
C3740 H3758 0.928 . S
C3741 C3738 1.260 . S
C3741 C3739 1.479 . S
C3742 C3737 1.245 . S
C3742 C3738 1.477 . S
C3742 H3759 0.932 . S
C3743 U3726 2.882 . S
C3743 C3737 1.428 . S
C3743 O3746 1.301 . S
C3743 O3747 1.282 . S
O3744 U3726 2.441 . S
O3744 C3730 1.249 . S
O3745 U3726 2.420 . S
O3745 C3730 1.202 . S
O3746 U3726 2.455 . S
O3746 C3743 1.301 . S
O3747 U3726 2.449 . S
O3747 C3743 1.282 . S
H3748 C3721 0.931 . S
H3749 C3723 0.929 . S
H3750 C3724 0.930 . S
H3751 C3725 0.931 . S
H3752 C3732 0.932 . S
H3753 C3733 0.930 . S
H3754 C3734 0.929 . S
H3755 C3736 0.930 . S
H3756 C3738 0.932 . S
H3757 C3739 0.929 . S
H3758 C3740 0.928 . S
H3759 C3742 0.932 . S
C3760 C3761 1.264 . S
C3760 C3765 1.479 . S
C3760 C3770 1.465 . S
C3761 C3760 1.264 . S
C3761 C3763 1.339 . S
C3761 H3788 0.931 . S
C3762 C3763 1.395 . S
C3762 C3764 1.320 . S
C3763 C3761 1.339 . S
C3763 C3762 1.395 . S
C3763 H3789 0.929 . S
C3764 C3762 1.320 . S
C3764 C3765 1.405 . S
C3764 H3790 0.930 . S
C3765 C3760 1.479 . S
C3765 C3764 1.405 . S
C3765 H3791 0.931 . S
U3766 O3767 2.454 . S
U3766 O3768 2.458 . S
U3766 C3769 2.984 . S
U3766 C3770 2.847 . S
U3766 C3783 2.882 . S
U3766 O3784 2.441 . S
U3766 O3785 2.420 . S
U3766 O3786 2.455 . S
U3766 O3787 2.449 . S
O3767 U3766 2.454 . S
O3767 C3769 1.353 . S
O3768 U3766 2.458 . S
O3768 C3769 1.286 . S
C3769 U3766 2.984 . S
C3769 O3767 1.353 . S
C3769 O3768 1.286 . S
C3769 C3771 1.363 . S
C3770 C3760 1.465 . S
C3770 U3766 2.847 . S
C3770 O3784 1.249 . S
C3770 O3785 1.202 . S
C3771 C3769 1.363 . S
C3771 C3773 1.408 . S
C3771 C3776 1.342 . S
C3772 C3773 1.310 . S
C3772 C3775 1.461 . S
C3772 H3792 0.932 . S
C3773 C3771 1.408 . S
C3773 C3772 1.310 . S
C3773 H3793 0.930 . S
C3774 C3775 1.474 . S
C3774 C3776 1.285 . S
C3774 H3794 0.929 . S
C3775 C3772 1.461 . S
C3775 C3774 1.474 . S
C3776 C3771 1.342 . S
C3776 C3774 1.285 . S
C3776 H3795 0.930 . S
C3777 C3780 1.424 . S
C3777 C3782 1.245 . S
C3777 C3783 1.428 . S
C3778 C3781 1.260 . S
C3778 C3782 1.477 . S
C3778 H3796 0.932 . S
C3779 C3780 1.384 . S
C3779 C3781 1.479 . S
C3779 H3797 0.929 . S
C3780 C3777 1.424 . S
C3780 C3779 1.384 . S
C3780 H3798 0.928 . S
C3781 C3778 1.260 . S
C3781 C3779 1.479 . S
C3782 C3777 1.245 . S
C3782 C3778 1.477 . S
C3782 H3799 0.932 . S
C3783 U3766 2.882 . S
C3783 C3777 1.428 . S
C3783 O3786 1.301 . S
C3783 O3787 1.282 . S
O3784 U3766 2.441 . S
O3784 C3770 1.249 . S
O3785 U3766 2.420 . S
O3785 C3770 1.202 . S
O3786 U3766 2.455 . S
O3786 C3783 1.301 . S
O3787 U3766 2.449 . S
O3787 C3783 1.282 . S
H3788 C3761 0.931 . S
H3789 C3763 0.929 . S
H3790 C3764 0.930 . S
H3791 C3765 0.931 . S
H3792 C3772 0.932 . S
H3793 C3773 0.930 . S
H3794 C3774 0.929 . S
H3795 C3776 0.930 . S
H3796 C3778 0.932 . S
H3797 C3779 0.929 . S
H3798 C3780 0.928 . S
H3799 C3782 0.932 . S
C3800 C3801 1.264 . S
C3800 C3805 1.479 . S
C3800 C3810 1.465 . S
C3801 C3800 1.264 . S
C3801 C3803 1.339 . S
C3801 H3828 0.931 . S
C3802 C3803 1.395 . S
C3802 C3804 1.320 . S
C3803 C3801 1.339 . S
C3803 C3802 1.395 . S
C3803 H3829 0.929 . S
C3804 C3802 1.320 . S
C3804 C3805 1.405 . S
C3804 H3830 0.930 . S
C3805 C3800 1.479 . S
C3805 C3804 1.405 . S
C3805 H3831 0.931 . S
U3806 O3807 2.454 . S
U3806 O3808 2.458 . S
U3806 C3809 2.984 . S
U3806 C3810 2.847 . S
U3806 C3823 2.882 . S
U3806 O3824 2.441 . S
U3806 O3825 2.420 . S
U3806 O3826 2.455 . S
U3806 O3827 2.449 . S
O3807 U3806 2.454 . S
O3807 C3809 1.353 . S
O3808 U3806 2.458 . S
O3808 C3809 1.286 . S
C3809 U3806 2.984 . S
C3809 O3807 1.353 . S
C3809 O3808 1.286 . S
C3809 C3811 1.363 . S
C3810 C3800 1.465 . S
C3810 U3806 2.847 . S
C3810 O3824 1.249 . S
C3810 O3825 1.202 . S
C3811 C3809 1.363 . S
C3811 C3813 1.408 . S
C3811 C3816 1.342 . S
C3812 C3813 1.310 . S
C3812 C3815 1.461 . S
C3812 H3832 0.932 . S
C3813 C3811 1.408 . S
C3813 C3812 1.310 . S
C3813 H3833 0.930 . S
C3814 C3815 1.474 . S
C3814 C3816 1.285 . S
C3814 H3834 0.929 . S
C3815 C3812 1.461 . S
C3815 C3814 1.474 . S
C3816 C3811 1.342 . S
C3816 C3814 1.285 . S
C3816 H3835 0.930 . S
C3817 C3820 1.424 . S
C3817 C3822 1.245 . S
C3817 C3823 1.428 . S
C3818 C3821 1.260 . S
C3818 C3822 1.477 . S
C3818 H3836 0.932 . S
C3819 C3820 1.384 . S
C3819 C3821 1.479 . S
C3819 H3837 0.929 . S
C3820 C3817 1.424 . S
C3820 C3819 1.384 . S
C3820 H3838 0.928 . S
C3821 C3818 1.260 . S
C3821 C3819 1.479 . S
C3822 C3817 1.245 . S
C3822 C3818 1.477 . S
C3822 H3839 0.932 . S
C3823 U3806 2.882 . S
C3823 C3817 1.428 . S
C3823 O3826 1.301 . S
C3823 O3827 1.282 . S
O3824 U3806 2.441 . S
O3824 C3810 1.249 . S
O3825 U3806 2.420 . S
O3825 C3810 1.202 . S
O3826 U3806 2.455 . S
O3826 C3823 1.301 . S
O3827 U3806 2.449 . S
O3827 C3823 1.282 . S
H3828 C3801 0.931 . S
H3829 C3803 0.929 . S
H3830 C3804 0.930 . S
H3831 C3805 0.931 . S
H3832 C3812 0.932 . S
H3833 C3813 0.930 . S
H3834 C3814 0.929 . S
H3835 C3816 0.930 . S
H3836 C3818 0.932 . S
H3837 C3819 0.929 . S
H3838 C3820 0.928 . S
H3839 C3822 0.932 . S
C15 C2735 3.110 . S
C2615 C55 3.110 . S
C95 C2655 3.110 . S
C2695 C135 3.110 . S
C175 C2855 3.110 . S
C2775 C215 3.110 . S
C2815 C255 3.110 . S
C2575 C295 3.110 . S
C335 C2535 3.110 . S
C375 C2415 3.110 . S
C415 C2455 3.110 . S
C455 C2495 3.110 . S
C2295 C495 3.110 . S
C535 C2335 3.110 . S
C2375 C575 3.110 . S
C615 C2255 3.110 . S
C655 C2215 3.110 . S
C695 C1975 3.110 . S
C735 C2015 3.110 . S
C775 C2055 3.110 . S
C1935 C815 3.110 . S
C2135 C855 3.110 . S
C2175 C895 3.110 . S
C935 C2095 3.110 . S
C3695 C975 3.057 . S
C1015 C3575 3.057 . S
C1055 C3615 3.057 . S
C1095 C3655 3.057 . S
C1135 C3815 3.057 . S
C1175 C3735 3.057 . S
C3775 C1215 3.057 . S
C1255 C3535 3.057 . S
C1295 C3495 3.057 . S
C3375 C1335 3.057 . S
C3415 C1375 3.057 . S
C3455 C1415 3.057 . S
C3255 C1455 3.057 . S
C1495 C3295 3.057 . S
C3335 C1535 3.057 . S
C3215 C1575 3.057 . S
C1615 C3175 3.057 . S
C1655 C2935 3.057 . S
C2975 C1695 3.057 . S
C3015 C1735 3.057 . S
C2895 C1775 3.057 . S
C3095 C1815 3.057 . S
C3135 C1855 3.057 . S
C3055 C1895 3.057 . S
C2 C1562 1.939 . S
C1442 C42 1.939 . S
C82 C1482 1.939 . S
C1522 C122 1.939 . S
C162 C1322 1.939 . S
C202 C1362 1.939 . S
C1402 C242 1.939 . S
C282 C1282 1.939 . S
C1242 C322 1.939 . S
C1122 C362 1.939 . S
C402 C1162 1.939 . S
C442 C1202 1.939 . S
C1002 C482 1.939 . S
C522 C1042 1.939 . S
C562 C1082 1.939 . S
C602 C962 1.939 . S
C1762 C642 1.939 . S
C1882 C682 1.939 . S
C722 C1802 1.939 . S
C762 C1842 1.939 . S
C1602 C802 1.939 . S
C1682 C842 1.939 . S
C1722 C882 1.939 . S
C922 C1642 1.939 . S
C3482 C1922 1.939 . S
C3362 C1962 1.939 . S
C3402 C2002 1.939 . S
C2042 C3442 1.939 . S
C3242 C2082 1.939 . S
C2122 C3282 1.939 . S
C3322 C2162 1.939 . S
C3202 C2202 1.939 . S
C2242 C3162 1.939 . S
C2282 C3042 1.939 . S
C3082 C2322 1.939 . S
C3122 C2362 1.939 . S
C2922 C2402 1.939 . S
C2962 C2442 1.939 . S
C3002 C2482 1.939 . S
C2522 C2882 1.939 . S
C3682 C2562 1.939 . S
C3802 C2602 1.939 . S
C2642 C3722 1.939 . S
C2682 C3762 1.939 . S
C2722 C3522 1.939 . S
C2762 C3602 1.939 . S
C3642 C2802 1.939 . S
C3562 C2842 1.939 . S
C1141 C21 1.753 1_655 S
C1181 C61 1.753 1_565 S
C1221 C101 1.753 1_455 S
C1261 C141 1.753 1_545 S
C981 C181 1.753 1_655 S
C221 C1021 1.753 1_545 S
C261 C1061 1.753 1_655 S
C1101 C301 1.753 1_545 S
C1541 C341 1.753 1_565 S
C381 C1581 1.753 1_655 S
C421 C1461 1.753 1_565 S
C1501 C461 1.753 1_655 S
C501 C1381 1.753 1_565 S
C541 C1421 1.753 1_455 S
C581 C1301 1.753 1_545 S
C1341 C621 1.753 1_455 S
C1821 C661 1.753 1_556 S
C1741 C701 1.753 1_554 S
C1781 C741 1.753 1_554 S
C1661 C781 1.753 1_554 S
C821 C1701 1.753 1_556 S
C1621 C861 1.753 1_556 S
C1901 C901 1.753 1_556 S
C1861 C941 1.753 1_556 S
C1941 C3061 1.753 . S
C1981 C3101 1.753 . S
C2021 C3141 1.753 . S
C3181 C2061 1.753 . S
C2901 C2101 1.753 . S
C2141 C2941 1.753 . S
C2981 C2181 1.753 . S
C3021 C2221 1.753 . S
C2261 C3461 1.753 . S
C2301 C3501 1.753 . S
C2341 C3381 1.753 . S
C3421 C2381 1.753 . S
C2421 C3301 1.753 . S
C2461 C3341 1.753 . S
C2501 C3221 1.753 . S
C2541 C3261 1.753 . S
C2581 C3741 1.753 . S
C3661 C2621 1.753 . S
C2661 C3701 1.753 . S
C3581 C2701 1.753 . S
C3621 C2741 1.753 . S
C2781 C3541 1.753 . S
C3821 C2821 1.753 . S
C3781 C2861 1.753 . S
