# Generated by pormake.
# Topology ukb, (4)-cn, num edge types: 1
# Building blocks:
#     Node 0, Type 0, BuildingBlock: NAHDIM_clean_sbu_0, # of connection points: 4
#     Node 1, Type 0, BuildingBlock: NAHDIM_clean_sbu_0, # of connection points: 4
#     Node 2, Type 0, BuildingBlock: NAHDIM_clean_sbu_0, # of connection points: 4
#     Node 3, Type 0, BuildingBlock: NAHDIM_clean_sbu_0, # of connection points: 4
#     Node 4, Type 0, BuildingBlock: NAHDIM_clean_sbu_0, # of connection points: 4
#     Node 5, Type 0, BuildingBlock: NAHDIM_clean_sbu_0, # of connection points: 4
#     Node 6, Type 0, BuildingBlock: NAHDIM_clean_sbu_0, # of connection points: 4
#     Node 7, Type 0, BuildingBlock: NAHDIM_clean_sbu_0, # of connection points: 4
#     Node 8, Type 0, BuildingBlock: NAHDIM_clean_sbu_0, # of connection points: 4
#     Node 9, Type 0, BuildingBlock: NAHDIM_clean_sbu_0, # of connection points: 4
#     Node 10, Type 0, BuildingBlock: NAHDIM_clean_sbu_0, # of connection points: 4
#     Node 11, Type 0, BuildingBlock: NAHDIM_clean_sbu_0, # of connection points: 4
#     Node 12, Type 0, BuildingBlock: NAHDIM_clean_sbu_0, # of connection points: 4
#     Node 13, Type 0, BuildingBlock: NAHDIM_clean_sbu_0, # of connection points: 4
#     Node 14, Type 0, BuildingBlock: NAHDIM_clean_sbu_0, # of connection points: 4
#     Node 15, Type 0, BuildingBlock: NAHDIM_clean_sbu_0, # of connection points: 4
#     Edge 16, Type (0, 0), BuildingBlock: UVAHIK_clean_linker_0, # of connection points: 2
#     Edge 17, Type (0, 0), BuildingBlock: UVAHIK_clean_linker_0, # of connection points: 2
#     Edge 18, Type (0, 0), BuildingBlock: UVAHIK_clean_linker_0, # of connection points: 2
#     Edge 19, Type (0, 0), BuildingBlock: UVAHIK_clean_linker_0, # of connection points: 2
#     Edge 20, Type (0, 0), BuildingBlock: UVAHIK_clean_linker_0, # of connection points: 2
#     Edge 21, Type (0, 0), BuildingBlock: UVAHIK_clean_linker_0, # of connection points: 2
#     Edge 22, Type (0, 0), BuildingBlock: UVAHIK_clean_linker_0, # of connection points: 2
#     Edge 23, Type (0, 0), BuildingBlock: UVAHIK_clean_linker_0, # of connection points: 2
#     Edge 24, Type (0, 0), BuildingBlock: UVAHIK_clean_linker_0, # of connection points: 2
#     Edge 25, Type (0, 0), BuildingBlock: UVAHIK_clean_linker_0, # of connection points: 2
#     Edge 26, Type (0, 0), BuildingBlock: UVAHIK_clean_linker_0, # of connection points: 2
#     Edge 27, Type (0, 0), BuildingBlock: UVAHIK_clean_linker_0, # of connection points: 2
#     Edge 28, Type (0, 0), BuildingBlock: UVAHIK_clean_linker_0, # of connection points: 2
#     Edge 29, Type (0, 0), BuildingBlock: UVAHIK_clean_linker_0, # of connection points: 2
#     Edge 30, Type (0, 0), BuildingBlock: UVAHIK_clean_linker_0, # of connection points: 2
#     Edge 31, Type (0, 0), BuildingBlock: UVAHIK_clean_linker_0, # of connection points: 2
#     Edge 32, Type (0, 0), BuildingBlock: UVAHIK_clean_linker_0, # of connection points: 2
#     Edge 33, Type (0, 0), BuildingBlock: UVAHIK_clean_linker_0, # of connection points: 2
#     Edge 34, Type (0, 0), BuildingBlock: UVAHIK_clean_linker_0, # of connection points: 2
#     Edge 35, Type (0, 0), BuildingBlock: UVAHIK_clean_linker_0, # of connection points: 2
#     Edge 36, Type (0, 0), BuildingBlock: UVAHIK_clean_linker_0, # of connection points: 2
#     Edge 37, Type (0, 0), BuildingBlock: UVAHIK_clean_linker_0, # of connection points: 2
#     Edge 38, Type (0, 0), BuildingBlock: UVAHIK_clean_linker_0, # of connection points: 2
#     Edge 39, Type (0, 0), BuildingBlock: UVAHIK_clean_linker_0, # of connection points: 2
#     Edge 40, Type (0, 0), BuildingBlock: UVAHIK_clean_linker_0, # of connection points: 2
#     Edge 41, Type (0, 0), BuildingBlock: UVAHIK_clean_linker_0, # of connection points: 2
#     Edge 42, Type (0, 0), BuildingBlock: UVAHIK_clean_linker_0, # of connection points: 2
#     Edge 43, Type (0, 0), BuildingBlock: UVAHIK_clean_linker_0, # of connection points: 2
#     Edge 44, Type (0, 0), BuildingBlock: UVAHIK_clean_linker_0, # of connection points: 2
#     Edge 45, Type (0, 0), BuildingBlock: UVAHIK_clean_linker_0, # of connection points: 2
#     Edge 46, Type (0, 0), BuildingBlock: UVAHIK_clean_linker_0, # of connection points: 2
#     Edge 47, Type (0, 0), BuildingBlock: UVAHIK_clean_linker_0, # of connection points: 2
# Relax obj value: 0.148
# Max RMSD: 0.158
# Mean RMSD: 0.158
data_MOF--net-ukb--node1-NAHDIM_clean_sbu_0--edge1-UVAHIK_clean_linker_0
_symmetry_space_group_name_H-M    P1
_symmetry_Int_Tables_number       1
_symmetry_cell_setting            triclinic
loop_
_symmetry_equiv_pos_as_xyz
'x, y, z'
_cell_length_a     55.342164
_cell_length_b     55.317178
_cell_length_c     48.831552
_cell_angle_alpha  89.997759
_cell_angle_beta   90.000411
_cell_angle_gamma 90.001006
loop_
_atom_site_label
_atom_site_type_symbol
_atom_site_fract_x
_atom_site_fract_y
_atom_site_fract_z
_atom_type_partial_charge
C0 C 0.47066 0.19459 0.19583 0.0
O1 O 0.48387 0.18306 0.1777 0.0
O2 O 0.51164 0.23193 0.15381 0.0
Zn3 Zn 0.51241 0.22304 0.19388 0.0
O4 O 0.53434 0.19456 0.20019 0.0
C5 C 0.52278 0.2728 0.20822 0.0
O6 O 0.5087 0.27763 0.18726 0.0
O7 O 0.47901 0.21382 0.20648 0.0
C8 C 0.55662 0.1955 0.19399 0.0
O9 O 0.56526 0.21528 0.18276 0.0
C10 C 0.51688 0.21713 0.1348 0.0
O11 O 0.52313 0.19492 0.14112 0.0
O12 O 0.526 0.25093 0.21528 0.0
C13 C 0.30035 0.46513 0.69623 0.0
O14 O 0.30769 0.47443 0.6729 0.0
O15 O 0.26955 0.50935 0.65798 0.0
Zn16 Zn 0.27819 0.51096 0.69823 0.0
O17 O 0.30716 0.53241 0.70449 0.0
C18 C 0.22849 0.52263 0.71229 0.0
O19 O 0.22328 0.50925 0.69086 0.0
O20 O 0.28651 0.47758 0.71148 0.0
C21 C 0.30468 0.55526 0.70448 0.0
O22 O 0.28321 0.56454 0.69979 0.0
C23 C 0.27988 0.52207 0.63972 0.0
O24 O 0.29704 0.53719 0.64686 0.0
O25 O 0.25043 0.52505 0.71946 0.0
C26 C 0.03345 0.29981 0.20123 0.0
O27 O 0.02413 0.30728 0.17797 0.0
O28 O 0.98774 0.27121 0.16367 0.0
Zn29 Zn 0.98703 0.27907 0.20402 0.0
O30 O 0.96659 0.30866 0.21032 0.0
C31 C 0.98069 0.23009 0.22459 0.0
O32 O 0.00042 0.22553 0.21053 0.0
O33 O 0.02078 0.28642 0.21676 0.0
C34 C 0.94599 0.31094 0.19909 0.0
O35 O 0.93812 0.29376 0.1828 0.0
C36 C 0.97411 0.25549 0.15264 0.0
O37 O 0.95856 0.24362 0.16787 0.0
O38 O 0.97243 0.25152 0.22513 0.0
C39 C 0.2007 0.03101 0.69819 0.0
O40 O 0.19171 0.01936 0.67707 0.0
O41 O 0.23343 0.98852 0.659 0.0
Zn42 Zn 0.22667 0.98773 0.6995 0.0
O43 O 0.19818 0.96577 0.70626 0.0
C44 C 0.27711 0.97905 0.71306 0.0
O45 O 0.28136 0.99388 0.69261 0.0
O46 O 0.21744 0.02107 0.71201 0.0
C47 C 0.20103 0.94324 0.71015 0.0
O48 O 0.22297 0.93417 0.71001 0.0
C49 C 0.24061 0.96981 0.64629 0.0
O50 O 0.24441 0.94977 0.66003 0.0
O51 O 0.2554 0.97469 0.71993 0.0
C52 C 0.45948 0.28754 0.79203 0.0
O53 O 0.46018 0.27793 0.81662 0.0
O54 O 0.51052 0.27247 0.83297 0.0
Zn55 Zn 0.51182 0.28098 0.79298 0.0
O56 O 0.53388 0.3095 0.78786 0.0
C57 C 0.52066 0.23125 0.77821 0.0
O58 O 0.50433 0.22701 0.79714 0.0
O59 O 0.47895 0.28977 0.77845 0.0
C60 C 0.55483 0.30927 0.7985 0.0
O61 O 0.56152 0.29042 0.81301 0.0
C62 C 0.50802 0.2885 0.85138 0.0
O63 O 0.50569 0.31126 0.84412 0.0
O64 O 0.52608 0.25298 0.77244 0.0
C65 C 0.21469 0.45555 0.29558 0.0
O66 O 0.22328 0.45635 0.32064 0.0
O67 O 0.23104 0.50553 0.33656 0.0
Zn68 Zn 0.22333 0.50745 0.29628 0.0
O69 O 0.19545 0.53024 0.2906 0.0
C70 C 0.27322 0.52015 0.28469 0.0
O71 O 0.27764 0.50833 0.30749 0.0
O72 O 0.21382 0.47485 0.28148 0.0
C73 C 0.19643 0.55158 0.30016 0.0
O74 O 0.21566 0.55827 0.314 0.0
C75 C 0.21461 0.50742 0.3546 0.0
O76 O 0.19207 0.51036 0.34683 0.0
O77 O 0.25167 0.52127 0.27581 0.0
C78 C 0.03085 0.19508 0.80225 0.0
O79 O 0.0171 0.18382 0.82009 0.0
O80 O 0.99081 0.22834 0.84589 0.0
Zn81 Zn 0.99028 0.22505 0.80462 0.0
O82 O 0.96667 0.19916 0.79333 0.0
C83 C 0.9689 0.27232 0.80143 0.0
O84 O 0.96571 0.2684 0.82771 0.0
O85 O 0.0233 0.21475 0.79187 0.0
C86 C 0.94414 0.20127 0.79776 0.0
O87 O 0.93605 0.2208 0.81 0.0
C88 C 0.98162 0.21277 0.86197 0.0
O89 O 0.97157 0.19326 0.85174 0.0
O90 O 0.9798 0.25648 0.78715 0.0
C91 C 0.29708 0.03511 0.30098 0.0
O92 O 0.30584 0.02323 0.32208 0.0
O93 O 0.26326 0.99272 0.33978 0.0
Zn94 Zn 0.27012 0.99239 0.29942 0.0
O95 O 0.2979 0.96963 0.2927 0.0
C96 C 0.21952 0.98354 0.28725 0.0
O97 O 0.21576 0.99697 0.30903 0.0
O98 O 0.28013 0.02556 0.28716 0.0
C99 C 0.2998 0.95852 0.27002 0.0
O100 O 0.28357 0.96232 0.25086 0.0
C101 C 0.26202 0.97274 0.35253 0.0
O102 O 0.26471 0.95249 0.3388 0.0
O103 O 0.24104 0.98003 0.2791 0.0
C104 C 0.54187 0.79619 0.80237 0.0
O105 O 0.53401 0.80271 0.82664 0.0
O106 O 0.49511 0.76739 0.84064 0.0
Zn107 Zn 0.49448 0.77625 0.80051 0.0
O108 O 0.47362 0.80556 0.79439 0.0
C109 C 0.48459 0.72683 0.78398 0.0
O110 O 0.50148 0.7215 0.80189 0.0
O111 O 0.52812 0.78376 0.78699 0.0
C112 C 0.45136 0.80494 0.80075 0.0
O113 O 0.4425 0.78519 0.81185 0.0
C114 C 0.49044 0.78259 0.85944 0.0
O115 O 0.48518 0.80498 0.85276 0.0
O116 O 0.47943 0.74887 0.77957 0.0
C117 C 0.69815 0.54115 0.29848 0.0
O118 O 0.69044 0.53147 0.32143 0.0
O119 O 0.72719 0.49496 0.33656 0.0
Zn120 Zn 0.72135 0.4954 0.29563 0.0
O121 O 0.69423 0.4726 0.28617 0.0
C122 C 0.77222 0.48591 0.28575 0.0
O123 O 0.77528 0.49852 0.30829 0.0
O124 O 0.71239 0.52905 0.28334 0.0
C125 C 0.69683 0.4503 0.29167 0.0
O126 O 0.71695 0.44304 0.30338 0.0
C127 C 0.71134 0.48737 0.35335 0.0
O128 O 0.69038 0.47987 0.34404 0.0
O129 O 0.75101 0.48318 0.27626 0.0
C130 C 0.96162 0.70445 0.80256 0.0
O131 O 0.96737 0.69941 0.82802 0.0
O132 O 0.00833 0.73158 0.84262 0.0
Zn133 Zn 0.01007 0.72276 0.80255 0.0
O134 O 0.0316 0.69382 0.79713 0.0
C135 C 0.01941 0.77219 0.78486 0.0
O136 O 0.00101 0.77771 0.80068 0.0
O137 O 0.97699 0.71516 0.78748 0.0
C138 C 0.05337 0.69485 0.80531 0.0
O139 O 0.06092 0.71448 0.81783 0.0
C140 C 0.0118 0.71612 0.86148 0.0
O141 O 0.01627 0.69354 0.85484 0.0
O142 O 0.02556 0.75019 0.78223 0.0
C143 C 0.79918 0.96154 0.30005 0.0
O144 O 0.8064 0.9703 0.32369 0.0
O145 O 0.76937 0.00673 0.33834 0.0
Zn146 Zn 0.77799 0.00805 0.2981 0.0
O147 O 0.80684 0.02961 0.29205 0.0
C148 C 0.72828 0.01881 0.28369 0.0
O149 O 0.72327 0.00397 0.30392 0.0
O150 O 0.78597 0.97459 0.28472 0.0
C151 C 0.80424 0.05232 0.29461 0.0
O152 O 0.78292 0.06093 0.30134 0.0
C153 C 0.78255 0.01608 0.35686 0.0
O154 O 0.80274 0.02694 0.34995 0.0
O155 O 0.75021 0.02242 0.27718 0.0
C156 C 0.54036 0.72099 0.20539 0.0
O157 O 0.53992 0.73091 0.18096 0.0
O158 O 0.49027 0.73326 0.16234 0.0
Zn159 Zn 0.48795 0.72585 0.20256 0.0
O160 O 0.46648 0.69693 0.208 0.0
C161 C 0.47713 0.77575 0.21519 0.0
O162 O 0.49419 0.78009 0.19712 0.0
O163 O 0.52066 0.7181 0.21839 0.0
C164 C 0.44653 0.69524 0.19526 0.0
O165 O 0.44028 0.71247 0.17814 0.0
C166 C 0.49409 0.71687 0.14464 0.0
O167 O 0.49702 0.69442 0.1528 0.0
O168 O 0.47223 0.754 0.22142 0.0
C169 C 0.79057 0.54459 0.69326 0.0
O170 O 0.78663 0.54189 0.66691 0.0
O171 O 0.77128 0.49452 0.65484 0.0
Zn172 Zn 0.77926 0.49342 0.69513 0.0
O173 O 0.80813 0.4718 0.70054 0.0
C174 C 0.72969 0.48515 0.71397 0.0
O175 O 0.72391 0.50254 0.69685 0.0
O176 O 0.78783 0.52658 0.70914 0.0
C177 C 0.80551 0.44902 0.69894 0.0
O178 O 0.78406 0.44019 0.69327 0.0
C179 C 0.75685 0.47975 0.64345 0.0
O180 O 0.74635 0.46296 0.6583 0.0
O181 O 0.75172 0.47916 0.71666 0.0
C182 C 0.95416 0.78114 0.20471 0.0
O183 O 0.95539 0.77268 0.17962 0.0
O184 O 0.00601 0.76782 0.16423 0.0
Zn185 Zn 0.00672 0.77602 0.20434 0.0
O186 O 0.0269 0.80581 0.20997 0.0
C187 C 0.01995 0.72691 0.21793 0.0
O188 O 0.00548 0.7216 0.19746 0.0
O189 O 0.97339 0.78307 0.21879 0.0
C190 C 0.04765 0.80779 0.19907 0.0
O191 O 0.05579 0.79014 0.1836 0.0
C192 C 0.00318 0.78398 0.14602 0.0
O193 O 0.0002 0.80658 0.15359 0.0
O194 O 0.02255 0.74887 0.22495 0.0
C195 C 0.71453 0.95788 0.70057 0.0
O196 O 0.72127 0.95939 0.67484 0.0
O197 O 0.72962 0.00782 0.65964 0.0
Zn198 Zn 0.72206 0.00983 0.69997 0.0
O199 O 0.69322 0.03133 0.70587 0.0
C200 C 0.77183 0.02243 0.71209 0.0
O201 O 0.77671 0.00745 0.69195 0.0
O202 O 0.71435 0.97686 0.71526 0.0
C203 C 0.69429 0.05337 0.69865 0.0
O204 O 0.71416 0.06148 0.68711 0.0
C205 C 0.71373 0.01164 0.64136 0.0
O206 O 0.69152 0.01689 0.64875 0.0
O207 O 0.75002 0.02536 0.71948 0.0
C208 C 0.43299 0.19586 0.22459 0.0
C209 C 0.44731 0.18426 0.20478 0.0
C210 C 0.41177 0.18496 0.23416 0.0
C211 C 0.36865 0.1347 0.21933 0.0
H212 H 0.35991 0.13409 0.29807 0.0
C213 C 0.32928 0.06647 0.30541 0.0
C214 C 0.30846 0.05799 0.29208 0.0
C215 C 0.34168 0.08659 0.29546 0.0
C216 C 0.36207 0.13408 0.27603 0.0
H217 H 0.45022 0.15247 0.17893 0.0
H218 H 0.41384 0.13336 0.19594 0.0
H219 H 0.39043 0.16027 0.2779 0.0
H220 H 0.28344 0.06486 0.25878 0.0
H221 H 0.30486 0.10037 0.24167 0.0
H222 H 0.34157 0.10727 0.21756 0.0
C223 C 0.41856 0.15105 0.20379 0.0
C224 C 0.37937 0.14936 0.26441 0.0
C225 C 0.43963 0.16194 0.19419 0.0
C226 C 0.29959 0.07082 0.26936 0.0
C227 C 0.31192 0.0911 0.25948 0.0
C228 C 0.35153 0.11928 0.23095 0.0
C229 C 0.40449 0.16225 0.22412 0.0
C230 C 0.38343 0.14925 0.23599 0.0
C231 C 0.33345 0.09889 0.27204 0.0
C232 C 0.34857 0.1182 0.25952 0.0
H233 H 0.43836 0.21314 0.23305 0.0
H234 H 0.40121 0.1942 0.24962 0.0
H235 H 0.37094 0.13455 0.1973 0.0
H236 H 0.3366 0.05705 0.323 0.0
H237 H 0.35836 0.09177 0.30546 0.0
C238 C 0.32605 0.42857 0.68892 0.0
C239 C 0.30967 0.44141 0.70539 0.0
C240 C 0.33665 0.40727 0.69839 0.0
C241 C 0.35319 0.37754 0.76277 0.0
H242 H 0.37207 0.32545 0.71409 0.0
C243 C 0.41684 0.30165 0.79877 0.0
C244 C 0.43687 0.29831 0.78146 0.0
C245 C 0.39669 0.31464 0.78972 0.0
C246 C 0.36685 0.33982 0.72795 0.0
H247 H 0.29066 0.44131 0.74424 0.0
H248 H 0.30904 0.40389 0.76071 0.0
H249 H 0.3444 0.35668 0.69779 0.0
H250 H 0.45084 0.30468 0.74058 0.0
H251 H 0.41578 0.32728 0.72486 0.0
H252 H 0.37618 0.36109 0.79264 0.0
C253 C 0.31396 0.41055 0.74061 0.0
C254 C 0.35106 0.35773 0.71862 0.0
C255 C 0.30336 0.43193 0.73113 0.0
C256 C 0.43577 0.30705 0.75447 0.0
C257 C 0.41558 0.31986 0.74538 0.0
C258 C 0.36888 0.35958 0.77212 0.0
C259 C 0.33108 0.39822 0.72454 0.0
C260 C 0.34464 0.3772 0.73565 0.0
C261 C 0.39608 0.32432 0.76311 0.0
C262 C 0.37644 0.34093 0.75456 0.0
H263 H 0.33129 0.43533 0.66896 0.0
H264 H 0.35001 0.39847 0.6856 0.0
H265 H 0.34887 0.3924 0.77635 0.0
H266 H 0.41709 0.29506 0.81965 0.0
H267 H 0.38182 0.31761 0.80374 0.0
C268 C 0.0705 0.32466 0.19338 0.0
C269 C 0.05746 0.30861 0.21007 0.0
C270 C 0.09206 0.33489 0.2026 0.0
C271 C 0.12237 0.35117 0.26669 0.0
H272 H 0.17459 0.36894 0.2177 0.0
C273 C 0.1995 0.41329 0.30239 0.0
C274 C 0.20341 0.43317 0.28501 0.0
C275 C 0.18607 0.39342 0.29336 0.0
C276 C 0.16018 0.36403 0.23164 0.0
H277 H 0.05748 0.28971 0.249 0.0
H278 H 0.09534 0.30743 0.26502 0.0
H279 H 0.14278 0.34182 0.20165 0.0
H280 H 0.19757 0.44714 0.24402 0.0
H281 H 0.17414 0.41259 0.22836 0.0
H282 H 0.13933 0.37392 0.2964 0.0
C283 C 0.08864 0.3124 0.24496 0.0
C284 C 0.14194 0.34855 0.22245 0.0
C285 C 0.067 0.30218 0.23573 0.0
C286 C 0.19478 0.43218 0.25797 0.0
C287 C 0.18149 0.41228 0.24892 0.0
C288 C 0.14064 0.36656 0.2759 0.0
C289 C 0.10117 0.32925 0.22871 0.0
C290 C 0.12245 0.34251 0.23962 0.0
C291 C 0.17646 0.39296 0.26673 0.0
C292 C 0.15937 0.3737 0.25824 0.0
H293 H 0.0637 0.32997 0.17347 0.0
H294 H 0.10102 0.34804 0.18968 0.0
H295 H 0.10749 0.34716 0.28037 0.0
H296 H 0.20601 0.41343 0.3233 0.0
H297 H 0.1827 0.37866 0.30744 0.0
C298 C 0.16922 0.06308 0.6937 0.0
C299 C 0.18984 0.05415 0.70707 0.0
C300 C 0.15729 0.08351 0.70357 0.0
C301 C 0.14813 0.11663 0.7679 0.0
H302 H 0.1104 0.15844 0.72066 0.0
C303 C 0.06865 0.19529 0.77368 0.0
C304 C 0.05393 0.18409 0.79341 0.0
C305 C 0.08961 0.18382 0.76424 0.0
C306 C 0.12114 0.1473 0.73422 0.0
H307 H 0.21497 0.06049 0.74038 0.0
H308 H 0.19437 0.09654 0.75737 0.0
H309 H 0.14031 0.13144 0.7007 0.0
H310 H 0.05005 0.15242 0.81928 0.0
H311 H 0.08601 0.13234 0.80253 0.0
H312 H 0.129 0.13248 0.80142 0.0
C313 C 0.18711 0.08739 0.73958 0.0
C314 C 0.13808 0.13155 0.72273 0.0
C315 C 0.19898 0.0668 0.72978 0.0
C316 C 0.06096 0.16158 0.80407 0.0
C317 C 0.08178 0.15013 0.79462 0.0
C318 C 0.13136 0.13251 0.7794 0.0
C319 C 0.16579 0.09567 0.72695 0.0
C320 C 0.15114 0.11539 0.73935 0.0
C321 C 0.09624 0.16094 0.77436 0.0
C322 C 0.117 0.14737 0.76263 0.0
H323 H 0.1617 0.05379 0.67613 0.0
H324 H 0.14075 0.08905 0.69354 0.0
H325 H 0.15775 0.10442 0.78138 0.0
H326 H 0.06378 0.2127 0.76518 0.0
H327 H 0.10048 0.19276 0.74883 0.0
C328 C 0.57337 0.8001 0.7656 0.0
C329 C 0.56534 0.80538 0.79225 0.0
C330 C 0.59429 0.81097 0.75526 0.0
C331 C 0.64823 0.84749 0.77536 0.0
H332 H 0.64074 0.87504 0.70285 0.0
C333 C 0.69723 0.93332 0.73893 0.0
C334 C 0.70433 0.93506 0.71137 0.0
C335 C 0.68484 0.91294 0.74833 0.0
C336 C 0.64339 0.86709 0.7229 0.0
H337 H 0.57364 0.82529 0.82937 0.0
H338 H 0.60964 0.84452 0.81125 0.0
H339 H 0.61048 0.84708 0.72011 0.0
H340 H 0.70519 0.91616 0.67243 0.0
H341 H 0.68345 0.88063 0.68889 0.0
H342 H 0.68062 0.86853 0.77851 0.0
C343 C 0.60008 0.83176 0.79839 0.0
C344 C 0.62603 0.851 0.73281 0.0
C345 C 0.57926 0.82086 0.80872 0.0
C346 C 0.69985 0.91546 0.69375 0.0
C347 C 0.68732 0.89514 0.70312 0.0
C348 C 0.66553 0.86371 0.76549 0.0
C349 C 0.60759 0.82736 0.77134 0.0
C350 C 0.6279 0.84149 0.75943 0.0
C351 C 0.6792 0.89392 0.73035 0.0
C352 C 0.66297 0.87413 0.73941 0.0
H353 H 0.56315 0.78809 0.75246 0.0
H354 H 0.59979 0.8069 0.73448 0.0
H355 H 0.65046 0.84012 0.79575 0.0
H356 H 0.7005 0.94805 0.75307 0.0
H357 H 0.67864 0.91265 0.76937 0.0
C358 C 0.56368 0.70085 0.24286 0.0
C359 C 0.56292 0.71024 0.21614 0.0
C360 C 0.58376 0.68783 0.25188 0.0
C361 C 0.63062 0.64864 0.22455 0.0
H362 H 0.65435 0.64958 0.29925 0.0
C363 C 0.69544 0.57496 0.26426 0.0
C364 C 0.68887 0.565 0.28968 0.0
C365 C 0.68497 0.59656 0.2552 0.0
C366 C 0.6479 0.64907 0.27832 0.0
H367 H 0.58321 0.71445 0.17841 0.0
H368 H 0.61828 0.69152 0.19419 0.0
H369 H 0.62696 0.68131 0.2836 0.0
H370 H 0.6669 0.57042 0.32598 0.0
H371 H 0.64843 0.60762 0.31007 0.0
H372 H 0.65054 0.61583 0.21954 0.0
C373 C 0.60323 0.69416 0.20806 0.0
C374 C 0.63228 0.66727 0.26936 0.0
C375 C 0.58319 0.70737 0.19909 0.0
C376 C 0.67234 0.57754 0.30626 0.0
C377 C 0.66188 0.59905 0.29722 0.0
C378 C 0.64614 0.63037 0.23353 0.0
C379 C 0.60348 0.68378 0.23433 0.0
C380 C 0.62296 0.66687 0.24261 0.0
C381 C 0.66774 0.60863 0.2714 0.0
C382 C 0.65441 0.62999 0.26075 0.0
H383 H 0.5484 0.70284 0.25655 0.0
H384 H 0.5833 0.67988 0.27215 0.0
H385 H 0.62354 0.64767 0.2039 0.0
H386 H 0.70825 0.56581 0.25107 0.0
H387 H 0.69009 0.60361 0.23535 0.0
C388 C 0.93255 0.6999 0.76346 0.0
C389 C 0.93859 0.69552 0.79097 0.0
C390 C 0.91203 0.68925 0.75189 0.0
C391 C 0.8557 0.65527 0.76888 0.0
H392 H 0.86728 0.62462 0.6987 0.0
C393 C 0.80579 0.5701 0.73195 0.0
C394 C 0.80091 0.56741 0.70387 0.0
C395 C 0.81828 0.59034 0.74155 0.0
C396 C 0.8635 0.63344 0.71803 0.0
H397 H 0.9272 0.67746 0.82825 0.0
H398 H 0.89186 0.65856 0.80803 0.0
H399 H 0.89723 0.65216 0.71736 0.0
H400 H 0.80404 0.58458 0.66406 0.0
H401 H 0.82586 0.61992 0.68088 0.0
H402 H 0.82238 0.63556 0.76997 0.0
C403 C 0.90268 0.67047 0.7954 0.0
C404 C 0.88069 0.64929 0.72875 0.0
C405 C 0.92311 0.68117 0.80697 0.0
C406 C 0.80767 0.58601 0.6858 0.0
C407 C 0.82025 0.60621 0.69539 0.0
C408 C 0.83854 0.63931 0.75819 0.0
C409 C 0.89717 0.67394 0.76757 0.0
C410 C 0.87729 0.65994 0.75461 0.0
C411 C 0.8262 0.6083 0.72327 0.0
C412 C 0.84253 0.62779 0.73295 0.0
H413 H 0.94399 0.71104 0.75063 0.0
H414 H 0.90808 0.6926 0.73051 0.0
H415 H 0.85232 0.66352 0.78862 0.0
H416 H 0.80074 0.55617 0.74645 0.0
H417 H 0.82277 0.5913 0.76311 0.0
C418 C 0.80149 0.92858 0.26481 0.0
C419 C 0.80782 0.93761 0.29074 0.0
C420 C 0.8114 0.90688 0.25528 0.0
C421 C 0.84618 0.85251 0.27729 0.0
H422 H 0.87247 0.85564 0.20379 0.0
C423 C 0.92987 0.79972 0.24241 0.0
C424 C 0.93137 0.7916 0.21519 0.0
C425 C 0.90975 0.81272 0.25135 0.0
C426 C 0.86482 0.85418 0.22414 0.0
H427 H 0.82872 0.93044 0.32746 0.0
H428 H 0.84626 0.89302 0.31073 0.0
H429 H 0.84608 0.88775 0.21995 0.0
H430 H 0.91224 0.78948 0.17647 0.0
H431 H 0.87708 0.81231 0.19214 0.0
H432 H 0.86594 0.81944 0.2818 0.0
C433 C 0.83341 0.90242 0.29783 0.0
C434 C 0.84966 0.87262 0.23343 0.0
C435 C 0.8235 0.92404 0.30734 0.0
C436 C 0.9117 0.79559 0.19754 0.0
C437 C 0.89161 0.80875 0.20645 0.0
C438 C 0.86143 0.83411 0.26802 0.0
C439 C 0.82783 0.89379 0.2715 0.0
C440 C 0.84072 0.87236 0.26038 0.0
C441 C 0.89072 0.81798 0.23325 0.0
C442 C 0.87145 0.83511 0.24161 0.0
H443 H 0.78931 0.93852 0.2516 0.0
H444 H 0.80649 0.90057 0.23504 0.0
H445 H 0.8392 0.85153 0.29798 0.0
H446 H 0.94466 0.79684 0.25657 0.0
H447 H 0.90973 0.81976 0.27205 0.0
C448 C 0.55433 0.28648 0.24151 0.0
C449 C 0.53716 0.29219 0.2213 0.0
C450 C 0.5699 0.3042 0.25163 0.0
C451 C 0.57998 0.36998 0.25711 0.0
H452 H 0.64758 0.35159 0.25891 0.0
C453 C 0.65717 0.43969 0.26992 0.0
C454 C 0.67738 0.43279 0.28551 0.0
C455 C 0.63909 0.42291 0.26367 0.0
C456 C 0.62876 0.35697 0.25898 0.0
H457 H 0.52211 0.32129 0.19686 0.0
H458 H 0.54938 0.35227 0.21461 0.0
H459 H 0.61725 0.32184 0.24621 0.0
H460 H 0.69413 0.40306 0.30739 0.0
H461 H 0.66243 0.37401 0.29701 0.0
H462 H 0.59153 0.40515 0.26993 0.0
C463 C 0.55072 0.33405 0.22261 0.0
C464 C 0.61137 0.33989 0.25165 0.0
C465 C 0.53517 0.31628 0.21237 0.0
C466 C 0.67892 0.4089 0.2951 0.0
C467 C 0.66078 0.3922 0.28903 0.0
C468 C 0.5974 0.38707 0.26463 0.0
C469 C 0.56861 0.32806 0.24188 0.0
C470 C 0.5868 0.3462 0.25058 0.0
C471 C 0.64074 0.39892 0.27302 0.0
C472 C 0.62202 0.38077 0.26557 0.0
H473 H 0.55626 0.26814 0.24898 0.0
H474 H 0.58325 0.29914 0.26681 0.0
H475 H 0.56114 0.3753 0.25666 0.0
H476 H 0.65547 0.45796 0.26218 0.0
H477 H 0.62408 0.42864 0.25101 0.0
C478 C 0.18528 0.53561 0.71745 0.0
C479 C 0.20944 0.53682 0.72624 0.0
C480 C 0.16777 0.55075 0.72897 0.0
C481 C 0.16264 0.60955 0.76309 0.0
H482 H 0.09724 0.58904 0.77955 0.0
C483 C 0.09386 0.67522 0.81043 0.0
C484 C 0.07031 0.67475 0.79971 0.0
C485 C 0.11035 0.65699 0.80391 0.0
C486 C 0.11537 0.59509 0.77483 0.0
H487 H 0.23394 0.55419 0.75486 0.0
H488 H 0.20341 0.58045 0.77495 0.0
H489 H 0.12687 0.55937 0.7638 0.0
H490 H 0.04541 0.65446 0.77422 0.0
H491 H 0.07433 0.62292 0.7624 0.0
H492 H 0.1512 0.64527 0.77343 0.0
C493 C 0.19807 0.56803 0.7589 0.0
C494 C 0.13234 0.57808 0.76586 0.0
C495 C 0.21553 0.55287 0.74747 0.0
C496 C 0.06342 0.65534 0.78285 0.0
C497 C 0.07997 0.63717 0.77619 0.0
C498 C 0.1457 0.62653 0.77191 0.0
C499 C 0.1741 0.56747 0.74944 0.0
C500 C 0.15614 0.58516 0.75985 0.0
C501 C 0.10373 0.63794 0.78637 0.0
C502 C 0.12184 0.61955 0.77784 0.0
H503 H 0.17998 0.52342 0.70116 0.0
H504 H 0.14948 0.55 0.72112 0.0
H505 H 0.18071 0.61566 0.75812 0.0
H506 H 0.09968 0.6898 0.82369 0.0
H507 H 0.12835 0.65791 0.81253 0.0
C508 C 0.84739 0.06003 0.28146 0.0
C509 C 0.82495 0.06885 0.29055 0.0
C510 C 0.86677 0.07582 0.27722 0.0
C511 C 0.88922 0.13675 0.29503 0.0
H512 H 0.92528 0.13162 0.2272 0.0
C513 C 0.94502 0.21526 0.25116 0.0
C514 C 0.96655 0.2102 0.237 0.0
C515 C 0.93035 0.19655 0.26066 0.0
C516 C 0.91572 0.13305 0.24649 0.0
H517 H 0.80536 0.10112 0.30262 0.0
H518 H 0.83908 0.12859 0.29512 0.0
H519 H 0.8946 0.10148 0.23808 0.0
H520 H 0.99001 0.18144 0.22266 0.0
H521 H 0.96441 0.14869 0.23953 0.0
H522 H 0.91004 0.16853 0.30325 0.0
C523 C 0.84178 0.10946 0.29151 0.0
C524 C 0.8981 0.11579 0.25269 0.0
C525 C 0.82239 0.09372 0.2956 0.0
C526 C 0.97349 0.18596 0.23341 0.0
C527 C 0.95876 0.16719 0.24292 0.0
C528 C 0.90687 0.15395 0.28888 0.0
C529 C 0.86415 0.10071 0.28216 0.0
C530 C 0.88434 0.11773 0.27678 0.0
C531 C 0.93683 0.17229 0.25629 0.0
C532 C 0.92 0.15258 0.26428 0.0
H533 H 0.84997 0.04095 0.27744 0.0
H534 H 0.88385 0.06853 0.2702 0.0
H535 H 0.87921 0.13847 0.31399 0.0
H536 H 0.93911 0.23373 0.25429 0.0
H537 H 0.91344 0.20114 0.27055 0.0
C538 C 0.29212 0.94766 0.74581 0.0
C539 C 0.29711 0.96553 0.72614 0.0
C540 C 0.31064 0.9333 0.75639 0.0
C541 C 0.37133 0.91097 0.73877 0.0
H542 H 0.3706 0.8876 0.81364 0.0
C543 C 0.44427 0.84595 0.78042 0.0
C544 C 0.43551 0.82588 0.79505 0.0
C545 C 0.42896 0.86522 0.77395 0.0
C546 C 0.37098 0.89392 0.79265 0.0
H547 H 0.32565 0.98299 0.70299 0.0
H548 H 0.35808 0.95812 0.72181 0.0
H549 H 0.34128 0.918 0.79923 0.0
H550 H 0.40396 0.8106 0.81492 0.0
H551 H 0.37727 0.84419 0.80359 0.0
H552 H 0.40085 0.88668 0.73213 0.0
C553 C 0.33974 0.95494 0.72867 0.0
C554 C 0.35418 0.91131 0.78438 0.0
C555 C 0.32117 0.96929 0.718 0.0
C556 C 0.41127 0.82576 0.80359 0.0
C557 C 0.39601 0.84509 0.79726 0.0
C558 C 0.38819 0.89367 0.74708 0.0
C559 C 0.33463 0.9365 0.74765 0.0
C560 C 0.35389 0.91975 0.75721 0.0
C561 C 0.40462 0.86491 0.78213 0.0
C562 C 0.38795 0.88467 0.77399 0.0
H563 H 0.27377 0.94424 0.75251 0.0
H564 H 0.30597 0.91908 0.77069 0.0
H565 H 0.37141 0.91677 0.71759 0.0
H566 H 0.46288 0.84665 0.7736 0.0
H567 H 0.43617 0.88036 0.76249 0.0
C568 C 0.55326 0.21589 0.74724 0.0
C569 C 0.53437 0.2111 0.76571 0.0
C570 C 0.56771 0.19714 0.73734 0.0
C571 C 0.58806 0.13603 0.75583 0.0
H572 H 0.61435 0.13619 0.68221 0.0
C573 C 0.65304 0.06162 0.71769 0.0
C574 C 0.67365 0.06979 0.70364 0.0
C575 C 0.63395 0.07741 0.72329 0.0
C576 C 0.60723 0.13597 0.70287 0.0
H577 H 0.51521 0.18272 0.78736 0.0
H578 H 0.54029 0.14993 0.76977 0.0
H579 H 0.58407 0.16619 0.69508 0.0
H580 H 0.69016 0.10083 0.68395 0.0
H581 H 0.65694 0.12838 0.69385 0.0
H582 H 0.61146 0.10604 0.76374 0.0
C583 C 0.54417 0.16826 0.76333 0.0
C584 C 0.58989 0.15315 0.71025 0.0
C585 C 0.52971 0.18704 0.77328 0.0
C586 C 0.67456 0.09396 0.69484 0.0
C587 C 0.65544 0.10971 0.70035 0.0
C588 C 0.60533 0.11882 0.74843 0.0
C589 C 0.56359 0.17315 0.7456 0.0
C590 C 0.58037 0.15361 0.73694 0.0
C591 C 0.63502 0.10167 0.71484 0.0
C592 C 0.61537 0.11882 0.72199 0.0
H593 H 0.55736 0.23422 0.74099 0.0
H594 H 0.58269 0.2016 0.72398 0.0
H595 H 0.5814 0.13608 0.77668 0.0
H596 H 0.65173 0.04307 0.72467 0.0
H597 H 0.61834 0.07062 0.73424 0.0
C598 C 0.43578 0.65734 0.22062 0.0
C599 C 0.43006 0.67469 0.2006 0.0
C600 C 0.41964 0.63866 0.22667 0.0
C601 C 0.35491 0.62369 0.22237 0.0
H602 H 0.37667 0.55897 0.24042 0.0
C603 C 0.28736 0.54805 0.24763 0.0
C604 C 0.29254 0.53422 0.27106 0.0
C605 C 0.30485 0.56325 0.23631 0.0
C606 C 0.37035 0.577 0.23556 0.0
H607 H 0.40325 0.68556 0.17062 0.0
H608 H 0.37525 0.65281 0.18095 0.0
H609 H 0.40596 0.58926 0.22544 0.0
H610 H 0.32051 0.52477 0.3003 0.0
H611 H 0.35099 0.55146 0.28064 0.0
H612 H 0.3194 0.6116 0.23278 0.0
C613 C 0.39202 0.65389 0.19231 0.0
C614 C 0.38711 0.59436 0.22701 0.0
C615 C 0.40813 0.6726 0.1863 0.0
C616 C 0.31591 0.5352 0.28226 0.0
C617 C 0.33343 0.55042 0.27091 0.0
C618 C 0.33818 0.60636 0.23085 0.0
C619 C 0.39744 0.63687 0.21281 0.0
C620 C 0.3796 0.61797 0.22052 0.0
C621 C 0.32794 0.56497 0.24814 0.0
C622 C 0.34571 0.58287 0.23773 0.0
H623 H 0.45252 0.65843 0.23203 0.0
H624 H 0.42427 0.62604 0.2428 0.0
H625 H 0.34855 0.64181 0.21803 0.0
H626 H 0.26958 0.5476 0.23835 0.0
H627 H 0.30019 0.57393 0.21849 0.0
C628 C 0.82251 0.40744 0.70474 0.0
C629 C 0.82597 0.43259 0.70483 0.0
C630 C 0.84136 0.39187 0.71181 0.0
C631 C 0.88693 0.36186 0.71588 0.0
H632 H 0.9249 0.37887 0.77977 0.0
C633 C 0.95872 0.29693 0.75977 0.0
C634 C 0.95777 0.29372 0.78831 0.0
C635 C 0.94617 0.31594 0.74733 0.0
C636 C 0.91447 0.37386 0.76189 0.0
H637 H 0.8522 0.46113 0.71161 0.0
H638 H 0.88522 0.43389 0.7237 0.0
H639 H 0.89568 0.40764 0.76162 0.0
H640 H 0.94366 0.30852 0.82624 0.0
H641 H 0.92161 0.34132 0.8046 0.0
H642 H 0.90485 0.32763 0.71696 0.0
C643 C 0.8678 0.42623 0.71853 0.0
C644 C 0.8979 0.39046 0.75128 0.0
C645 C 0.8489 0.44183 0.71149 0.0
C646 C 0.94477 0.31043 0.8042 0.0
C647 C 0.93224 0.32939 0.79179 0.0
C648 C 0.90346 0.34525 0.72652 0.0
C649 C 0.86416 0.40107 0.71907 0.0
C650 C 0.88357 0.38446 0.7285 0.0
C651 C 0.93244 0.33214 0.76317 0.0
C652 C 0.91706 0.35085 0.75 0.0
H653 H 0.80507 0.39971 0.69975 0.0
H654 H 0.83781 0.37262 0.7124 0.0
H655 H 0.87644 0.35682 0.69806 0.0
H656 H 0.96867 0.28443 0.74696 0.0
H657 H 0.94695 0.31775 0.72526 0.0
C658 C 0.08601 0.8313 0.19322 0.0
C659 C 0.06284 0.82924 0.20474 0.0
C660 C 0.10082 0.85095 0.19971 0.0
C661 C 0.11061 0.89584 0.25393 0.0
H662 H 0.15224 0.92633 0.2002 0.0
C663 C 0.17563 0.97257 0.28422 0.0
C664 C 0.19931 0.97039 0.27412 0.0
C665 C 0.15705 0.95824 0.27358 0.0
C666 C 0.1408 0.91792 0.21546 0.0
H667 H 0.03675 0.84659 0.23149 0.0
H668 H 0.06257 0.88089 0.2427 0.0
H669 H 0.12331 0.89559 0.1856 0.0
H670 H 0.22184 0.95217 0.24415 0.0
H671 H 0.18958 0.92705 0.22592 0.0
H672 H 0.12843 0.91763 0.2839 0.0
C673 C 0.06939 0.86716 0.22891 0.0
C674 C 0.12424 0.90032 0.2071 0.0
C675 C 0.05457 0.84754 0.22238 0.0
C676 C 0.2038 0.9543 0.25243 0.0
C677 C 0.18525 0.93997 0.24183 0.0
C678 C 0.12718 0.91338 0.2623 0.0
C679 C 0.09279 0.86895 0.21789 0.0
C680 C 0.10918 0.88886 0.2263 0.0
C681 C 0.16175 0.94144 0.25263 0.0
C682 C 0.1427 0.92441 0.24323 0.0
H683 H 0.09292 0.81753 0.17954 0.0
H684 H 0.11885 0.85166 0.19111 0.0
H685 H 0.09951 0.88712 0.2693 0.0
H686 H 0.17153 0.9849 0.30081 0.0
H687 H 0.13906 0.96008 0.28205 0.0
C688 C 0.34775 0.56167 0.71872 0.0
C689 C 0.32567 0.57122 0.70944 0.0
C690 C 0.36732 0.57693 0.72413 0.0
C691 C 0.3919 0.63735 0.70897 0.0
H692 H 0.42467 0.6307 0.77874 0.0
C693 C 0.4497 0.71349 0.75512 0.0
C694 C 0.46994 0.70752 0.77113 0.0
C695 C 0.43451 0.69543 0.74499 0.0
C696 C 0.41608 0.63256 0.75893 0.0
H697 H 0.30697 0.6042 0.69806 0.0
H698 H 0.34115 0.63076 0.70737 0.0
H699 H 0.39361 0.60163 0.76583 0.0
H700 H 0.49067 0.6778 0.7881 0.0
H701 H 0.46438 0.64621 0.76994 0.0
H702 H 0.41421 0.66832 0.70205 0.0
C703 C 0.34334 0.61148 0.71038 0.0
C704 C 0.39822 0.61591 0.75158 0.0
C705 C 0.32371 0.59627 0.70524 0.0
C706 C 0.47514 0.68302 0.77597 0.0
C707 C 0.45998 0.66492 0.76571 0.0
C708 C 0.40988 0.65389 0.7162 0.0
C709 C 0.36529 0.602 0.72007 0.0
C710 C 0.38564 0.61841 0.72676 0.0
C711 C 0.43925 0.67093 0.75046 0.0
C712 C 0.42188 0.65197 0.74151 0.0
H713 H 0.34984 0.54244 0.72214 0.0
H714 H 0.38408 0.56912 0.73141 0.0
H715 H 0.38275 0.63948 0.6895 0.0
H716 H 0.44512 0.73218 0.75104 0.0
H717 H 0.41856 0.7008 0.73369 0.0
C718 C 0.93841 0.34992 0.22386 0.0
C719 C 0.93065 0.33218 0.20521 0.0
C720 C 0.92341 0.36936 0.2306 0.0
C721 C 0.86942 0.40334 0.20767 0.0
H722 H 0.86281 0.41889 0.28472 0.0
C723 C 0.78884 0.45713 0.25094 0.0
C724 C 0.79272 0.47273 0.27325 0.0
C725 C 0.80758 0.44277 0.24086 0.0
C726 C 0.86474 0.41513 0.26307 0.0
H727 H 0.90125 0.32128 0.17853 0.0
H728 H 0.87505 0.35508 0.19044 0.0
H729 H 0.89205 0.38855 0.27043 0.0
H730 H 0.81967 0.48626 0.30163 0.0
H731 H 0.8525 0.46141 0.28375 0.0
H732 H 0.84182 0.42968 0.20036 0.0
C733 C 0.89282 0.35408 0.19967 0.0
C734 C 0.88149 0.39769 0.25488 0.0
C735 C 0.90778 0.33461 0.19298 0.0
C736 C 0.81603 0.47433 0.28453 0.0
C737 C 0.83481 0.45998 0.2744 0.0
C738 C 0.85269 0.42084 0.21585 0.0
C739 C 0.90036 0.37154 0.21877 0.0
C740 C 0.88379 0.39134 0.22713 0.0
C741 C 0.83069 0.4437 0.25277 0.0
C742 C 0.84991 0.42669 0.2437 0.0
H743 H 0.95596 0.34865 0.23356 0.0
H744 H 0.92985 0.38267 0.24514 0.0
H745 H 0.87104 0.39912 0.18608 0.0
H746 H 0.7711 0.45542 0.24176 0.0
H747 H 0.80368 0.43025 0.22439 0.0
C748 C 0.05594 0.78532 0.75872 0.0
C749 C 0.03438 0.79138 0.77228 0.0
C750 C 0.07126 0.80333 0.7488 0.0
C751 C 0.08664 0.8675 0.75955 0.0
H752 H 0.12565 0.85728 0.69459 0.0
C753 C 0.15701 0.93711 0.72025 0.0
C754 C 0.17995 0.92732 0.71469 0.0
C755 C 0.13724 0.92193 0.72502 0.0
C756 C 0.11488 0.86035 0.71278 0.0
H757 H 0.01153 0.82115 0.78511 0.0
H758 H 0.0381 0.85268 0.76724 0.0
H759 H 0.09384 0.8285 0.70603 0.0
H760 H 0.20004 0.89398 0.70933 0.0
H761 H 0.16551 0.86756 0.71739 0.0
H762 H 0.10786 0.89938 0.76622 0.0
C763 C 0.04339 0.83396 0.76479 0.0
C764 C 0.0967 0.84385 0.71941 0.0
C765 C 0.02809 0.81589 0.77489 0.0
C766 C 0.18263 0.90209 0.71362 0.0
C767 C 0.16283 0.88695 0.71804 0.0
C768 C 0.10469 0.88414 0.75275 0.0
C769 C 0.06535 0.82789 0.75198 0.0
C770 C 0.08273 0.84691 0.74322 0.0
C771 C 0.13998 0.8967 0.72392 0.0
C772 C 0.11932 0.88043 0.72963 0.0
H773 H 0.06141 0.76663 0.75641 0.0
H774 H 0.08818 0.79794 0.73948 0.0
H775 H 0.07647 0.87029 0.77822 0.0
H776 H 0.15437 0.9565 0.72122 0.0
H777 H 0.11979 0.9299 0.7294 0.0
C778 C 0.59707 0.17522 0.19204 0.0
C779 C 0.57269 0.17481 0.20008 0.0
C780 C 0.61245 0.15607 0.1987 0.0
C781 C 0.61979 0.10732 0.2489 0.0
H782 H 0.66724 0.08291 0.19742 0.0
C783 C 0.68462 0.02995 0.27807 0.0
C784 C 0.70891 0.03312 0.27048 0.0
C785 C 0.66665 0.04498 0.26733 0.0
C786 C 0.6542 0.08964 0.2121 0.0
H787 H 0.54523 0.15373 0.22099 0.0
H788 H 0.57212 0.12035 0.23264 0.0
H789 H 0.63846 0.11375 0.18275 0.0
H790 H 0.73326 0.05409 0.24498 0.0
H791 H 0.70207 0.08045 0.22665 0.0
H792 H 0.63584 0.08378 0.27846 0.0
C793 C 0.57936 0.13558 0.22135 0.0
C794 C 0.63772 0.10728 0.20368 0.0
C795 C 0.56394 0.15466 0.21456 0.0
C796 C 0.71472 0.05112 0.25125 0.0
C797 C 0.69678 0.06617 0.24059 0.0
C798 C 0.63634 0.08978 0.25736 0.0
C799 C 0.60382 0.13615 0.21367 0.0
C800 C 0.62049 0.11648 0.22207 0.0
C801 C 0.67258 0.06353 0.24881 0.0
C802 C 0.65391 0.08089 0.23915 0.0
H803 H 0.60438 0.19046 0.18084 0.0
H804 H 0.63127 0.15714 0.19274 0.0
H805 H 0.60694 0.11429 0.26365 0.0
H806 H 0.67952 0.01616 0.29272 0.0
H807 H 0.64813 0.0422 0.27375 0.0
C808 C 0.4416 0.79048 0.24216 0.0
C809 C 0.46174 0.79562 0.2256 0.0
C810 C 0.42543 0.80875 0.24943 0.0
C811 C 0.38597 0.84613 0.24188 0.0
H812 H 0.40526 0.91053 0.26444 0.0
C813 C 0.31962 0.92615 0.24218 0.0
C814 C 0.31955 0.94092 0.26558 0.0
C815 C 0.33775 0.90892 0.23836 0.0
C816 C 0.39963 0.89258 0.2583 0.0
H817 H 0.48132 0.82424 0.20483 0.0
H818 H 0.45302 0.85618 0.21762 0.0
H819 H 0.43606 0.87935 0.25738 0.0
H820 H 0.33873 0.94952 0.30311 0.0
H821 H 0.37051 0.91943 0.2963 0.0
H822 H 0.34962 0.85927 0.24267 0.0
C823 C 0.4498 0.83798 0.22496 0.0
C824 C 0.41724 0.87481 0.25408 0.0
C825 C 0.46595 0.81966 0.21754 0.0
C826 C 0.33825 0.93838 0.28487 0.0
C827 C 0.35651 0.92125 0.28093 0.0
C828 C 0.36843 0.86391 0.24586 0.0
C829 C 0.42908 0.83259 0.24044 0.0
C830 C 0.41057 0.85141 0.24581 0.0
C831 C 0.35631 0.90619 0.25776 0.0
C832 C 0.37506 0.88734 0.254 0.0
H833 H 0.43789 0.77219 0.24886 0.0
H834 H 0.40982 0.80413 0.26175 0.0
H835 H 0.38029 0.82835 0.2352 0.0
H836 H 0.30551 0.92767 0.2269 0.0
H837 H 0.3373 0.89776 0.22014 0.0
C838 C 0.68631 0.47312 0.72021 0.0
C839 C 0.71074 0.47053 0.7275 0.0
C840 C 0.66885 0.45741 0.73087 0.0
C841 C 0.66386 0.39609 0.7597 0.0
H842 H 0.59876 0.41589 0.77865 0.0
C843 C 0.59526 0.32884 0.80466 0.0
C844 C 0.57183 0.32947 0.79361 0.0
C845 C 0.61175 0.34728 0.79891 0.0
C846 C 0.61684 0.41008 0.77325 0.0
H847 H 0.73581 0.45028 0.75283 0.0
H848 H 0.7054 0.42326 0.77171 0.0
H849 H 0.62839 0.4463 0.76481 0.0
H850 H 0.54713 0.35029 0.7684 0.0
H851 H 0.57601 0.38234 0.75816 0.0
H852 H 0.65235 0.35992 0.76779 0.0
C853 C 0.69976 0.43702 0.75728 0.0
C854 C 0.6338 0.42749 0.76533 0.0
C855 C 0.71718 0.45262 0.74657 0.0
C856 C 0.56506 0.34925 0.77722 0.0
C857 C 0.58156 0.3677 0.77148 0.0
C858 C 0.64696 0.37874 0.76763 0.0
C859 C 0.67548 0.43886 0.74909 0.0
C860 C 0.6575 0.42067 0.7584 0.0
C861 C 0.60519 0.36677 0.78199 0.0
C862 C 0.62324 0.3855 0.77443 0.0
H863 H 0.68075 0.48671 0.70554 0.0
H864 H 0.65034 0.45922 0.72399 0.0
H865 H 0.68179 0.39013 0.75393 0.0
H866 H 0.60101 0.31396 0.81751 0.0
H867 H 0.6297 0.34622 0.80766 0.0
C868 C 0.15689 0.56241 0.27835 0.0
C869 C 0.17646 0.56882 0.2952 0.0
C870 C 0.13854 0.57905 0.27278 0.0
C871 C 0.12696 0.64469 0.27159 0.0
H872 H 0.05989 0.6251 0.26535 0.0
C873 C 0.05168 0.71399 0.25143 0.0
C874 C 0.03497 0.70793 0.23086 0.0
C875 C 0.06748 0.6966 0.26187 0.0
C876 C 0.07857 0.63079 0.26688 0.0
H877 H 0.19175 0.5975 0.32005 0.0
H878 H 0.15958 0.62639 0.31065 0.0
H879 H 0.09038 0.59549 0.27892 0.0
H880 H 0.02113 0.67859 0.20589 0.0
H881 H 0.04884 0.64825 0.22403 0.0
H882 H 0.11524 0.67989 0.25935 0.0
C883 C 0.15863 0.60866 0.30132 0.0
C884 C 0.09604 0.61384 0.27461 0.0
C885 C 0.17702 0.59205 0.30682 0.0
C886 C 0.0338 0.68387 0.2217 0.0
C887 C 0.0496 0.66644 0.23219 0.0
C888 C 0.10951 0.66161 0.26395 0.0
C889 C 0.1393 0.60245 0.284 0.0
C890 C 0.12047 0.62057 0.27689 0.0
C891 C 0.06692 0.67274 0.25202 0.0
C892 C 0.08514 0.65484 0.26135 0.0
H893 H 0.15592 0.54467 0.26905 0.0
H894 H 0.12408 0.57377 0.25909 0.0
H895 H 0.14566 0.6504 0.27264 0.0
H896 H 0.05296 0.73233 0.25908 0.0
H897 H 0.08035 0.70192 0.27745 0.0
C898 C 0.93575 0.16147 0.77514 0.0
C899 C 0.9274 0.18156 0.79004 0.0
C900 C 0.91996 0.14281 0.76795 0.0
C901 C 0.86184 0.11499 0.78677 0.0
H902 H 0.86283 0.09013 0.71253 0.0
C903 C 0.78522 0.05601 0.74291 0.0
C904 C 0.79108 0.03768 0.72412 0.0
C905 C 0.80294 0.07187 0.75246 0.0
C906 C 0.86258 0.09654 0.73348 0.0
H907 H 0.89592 0.19772 0.80917 0.0
H908 H 0.86838 0.16512 0.79659 0.0
H909 H 0.89162 0.12125 0.72605 0.0
H910 H 0.8204 0.02106 0.70143 0.0
H911 H 0.85146 0.04847 0.71853 0.0
H912 H 0.8328 0.09033 0.79425 0.0
C913 C 0.88719 0.16377 0.79064 0.0
C914 C 0.87904 0.11444 0.74119 0.0
C915 C 0.90293 0.18251 0.79768 0.0
C916 C 0.81525 0.03507 0.71578 0.0
C917 C 0.83303 0.05089 0.72544 0.0
C918 C 0.84546 0.09699 0.77911 0.0
C919 C 0.89552 0.14374 0.77566 0.0
C920 C 0.87868 0.12404 0.76783 0.0
C921 C 0.82701 0.06972 0.74357 0.0
C922 C 0.84545 0.08772 0.75229 0.0
H923 H 0.95451 0.16015 0.76897 0.0
H924 H 0.92695 0.1275 0.75661 0.0
H925 H 0.86139 0.12177 0.80757 0.0
H926 H 0.76676 0.0586 0.74971 0.0
H927 H 0.79758 0.08633 0.76612 0.0
C928 C 0.51999 0.20811 0.0847 0.0
C929 C 0.51589 0.22485 0.10582 0.0
C930 C 0.51902 0.21536 0.05732 0.0
C931 C 0.49534 0.26351 0.01219 0.0
H932 H 0.54225 0.23792 0.96081 0.0
C933 C 0.50506 0.29903 0.90121 0.0
C934 C 0.50825 0.28156 0.88063 0.0
C935 C 0.50578 0.29243 0.92884 0.0
C936 C 0.52888 0.24505 0.97486 0.0
H937 H 0.50767 0.26239 0.11479 0.0
H938 H 0.50634 0.27509 0.06702 0.0
H939 H 0.5441 0.2259 0.00876 0.0
H940 H 0.51447 0.24341 0.87291 0.0
H941 H 0.51562 0.23195 0.92103 0.0
H942 H 0.48022 0.28275 0.9782 0.0
C943 C 0.50992 0.25627 0.0716 0.0
C944 C 0.52992 0.23814 0.00233 0.0
C945 C 0.51082 0.24901 0.09899 0.0
C946 C 0.51202 0.25734 0.88825 0.0
C947 C 0.51282 0.25078 0.91583 0.0
C948 C 0.49435 0.27048 0.9847 0.0
C949 C 0.51402 0.23953 0.05044 0.0
C950 C 0.5131 0.2472 0.0213 0.0
C951 C 0.50981 0.26825 0.93643 0.0
C952 C 0.51104 0.26122 0.96572 0.0
H953 H 0.52383 0.18934 0.08926 0.0
H954 H 0.5219 0.20192 0.04152 0.0
H955 H 0.4819 0.27056 0.02619 0.0
H956 H 0.50214 0.31784 0.89602 0.0
H957 H 0.50361 0.30633 0.94426 0.0
C958 C 0.20402 0.5144 0.40379 0.0
C959 C 0.22091 0.50704 0.38401 0.0
C960 C 0.21027 0.51491 0.4315 0.0
C961 C 0.26371 0.51651 0.47723 0.0
H962 H 0.21643 0.501 0.53311 0.0
C963 C 0.25779 0.50074 0.60198 0.0
C964 C 0.27285 0.51971 0.61063 0.0
C965 C 0.25149 0.49839 0.57439 0.0
C966 C 0.22996 0.50513 0.51779 0.0
H967 H 0.25739 0.49381 0.3778 0.0
H968 H 0.26808 0.49402 0.42617 0.0
H969 H 0.20559 0.49718 0.48502 0.0
H970 H 0.2928 0.55132 0.59722 0.0
H971 H 0.28129 0.54765 0.54933 0.0
H972 H 0.28832 0.5237 0.50994 0.0
C973 C 0.2502 0.50003 0.42028 0.0
C974 C 0.22363 0.50327 0.49017 0.0
C975 C 0.24403 0.49977 0.39255 0.0
C976 C 0.2813 0.53639 0.59118 0.0
C977 C 0.27482 0.53418 0.56366 0.0
C978 C 0.27009 0.51817 0.50483 0.0
C979 C 0.23348 0.50784 0.4401 0.0
C980 C 0.24038 0.50909 0.46953 0.0
C981 C 0.25993 0.51509 0.55487 0.0
C982 C 0.25325 0.51269 0.52548 0.0
H983 H 0.18609 0.52024 0.39784 0.0
H984 H 0.19704 0.52139 0.4461 0.0
H985 H 0.277 0.52145 0.46195 0.0
H986 H 0.25109 0.48751 0.61646 0.0
H987 H 0.24028 0.48327 0.56832 0.0
C988 C 0.96226 0.23194 0.11096 0.0
C989 C 0.97562 0.25081 0.12288 0.0
C990 C 0.96364 0.22757 0.08282 0.0
C991 C 0.9783 0.25706 0.01756 0.0
H992 H 0.98455 0.19148 0.99043 0.0
C993 C 0.99433 0.23656 0.90319 0.0
C994 C 0.9819 0.21677 0.89191 0.0
C995 C 0.99426 0.2405 0.93145 0.0
C996 C 0.98252 0.20988 0.99765 0.0
H997 H 0.00094 0.27988 0.11462 0.0
H998 H 0.00326 0.27226 0.0655 0.0
H999 H 0.98288 0.19876 0.03965 0.0
H1000 H 0.95962 0.18562 0.90144 0.0
H1001 H 0.95912 0.19275 0.95063 0.0
H1002 H 0.97758 0.26821 0.97565 0.0
C1003 C 0.99163 0.26094 0.07792 0.0
C1004 C 0.9816 0.21403 0.02584 0.0
C1005 C 0.99039 0.26521 0.10607 0.0
C1006 C 0.96948 0.20097 0.90949 0.0
C1007 C 0.96931 0.20498 0.93772 0.0
C1008 C 0.97908 0.2529 0.98937 0.0
C1009 C 0.97827 0.24208 0.066 0.0
C1010 C 0.97946 0.23767 0.03609 0.0
C1011 C 0.98166 0.22482 0.94905 0.0
C1012 C 0.98117 0.22926 0.97906 0.0
H1013 H 0.95072 0.22051 0.12334 0.0
H1014 H 0.95295 0.21306 0.07416 0.0
H1015 H 0.97632 0.27545 0.02486 0.0
H1016 H 0.00417 0.24902 0.8902 0.0
H1017 H 0.00427 0.25574 0.93951 0.0
C1018 C 0.25508 0.99394 0.39717 0.0
C1019 C 0.25863 0.97233 0.38256 0.0
C1020 C 0.25273 0.99361 0.42565 0.0
C1021 C 0.26809 0.95713 0.48602 0.0
H1022 H 0.21954 0.99621 0.52232 0.0
C1023 C 0.24856 0.94896 0.60172 0.0
C1024 C 0.24361 0.97033 0.61622 0.0
C1025 C 0.2505 0.94925 0.5732 0.0
C1026 C 0.23341 0.98543 0.51253 0.0
H1027 H 0.26215 0.93341 0.38635 0.0
H1028 H 0.25799 0.93287 0.43607 0.0
H1029 H 0.22226 0.99656 0.47247 0.0
H1030 H 0.23723 0.00887 0.6122 0.0
H1031 H 0.24108 0.00946 0.5625 0.0
H1032 H 0.27942 0.94615 0.52601 0.0
C1033 C 0.25726 0.95007 0.42549 0.0
C1034 C 0.23491 0.9856 0.48398 0.0
C1035 C 0.2595 0.95038 0.397 0.0
C1036 C 0.24095 0.99206 0.60162 0.0
C1037 C 0.24299 0.99237 0.57311 0.0
C1038 C 0.26666 0.95704 0.51458 0.0
C1039 C 0.25399 0.97169 0.44012 0.0
C1040 C 0.25225 0.97143 0.47043 0.0
C1041 C 0.24764 0.97095 0.55855 0.0
C1042 C 0.24929 0.97118 0.52818 0.0
H1043 H 0.25433 0.01117 0.38665 0.0
H1044 H 0.25044 0.01059 0.43639 0.0
H1045 H 0.28188 0.9463 0.47617 0.0
H1046 H 0.2506 0.93188 0.61233 0.0
H1047 H 0.25377 0.93237 0.5626 0.0
C1048 C 0.49654 0.75123 0.89585 0.0
C1049 C 0.4914 0.77528 0.88855 0.0
C1050 C 0.49756 0.74442 0.92339 0.0
C1051 C 0.5061 0.76936 0.99272 0.0
H1052 H 0.47583 0.7097 0.01643 0.0
C1053 C 0.49112 0.74703 0.10661 0.0
C1054 C 0.49492 0.72308 0.1152 0.0
C1055 C 0.49151 0.75294 0.07883 0.0
C1056 C 0.48466 0.72625 0.01009 0.0
H1057 H 0.48321 0.81098 0.90444 0.0
H1058 H 0.48486 0.79904 0.95242 0.0
H1059 H 0.4749 0.72084 0.9681 0.0
H1060 H 0.50231 0.68657 0.10132 0.0
H1061 H 0.50325 0.69696 0.05276 0.0
H1062 H 0.51583 0.77483 0.03466 0.0
C1063 C 0.48837 0.78553 0.93687 0.0
C1064 C 0.4841 0.73264 0.98241 0.0
C1065 C 0.48728 0.79233 0.90935 0.0
C1066 C 0.49925 0.70518 0.09537 0.0
C1067 C 0.49966 0.71111 0.06754 0.0
C1068 C 0.5067 0.76296 0.02037 0.0
C1069 C 0.49354 0.76151 0.94419 0.0
C1070 C 0.49467 0.75435 0.97346 0.0
C1071 C 0.49576 0.73506 0.05896 0.0
C1072 C 0.49584 0.74141 0.02941 0.0
H1073 H 0.49983 0.73765 0.88031 0.0
H1074 H 0.50182 0.72582 0.92839 0.0
H1075 H 0.51478 0.786 0.98639 0.0
H1076 H 0.48765 0.76126 0.12134 0.0
H1077 H 0.48809 0.7715 0.0729 0.0
C1078 C 0.76614 0.49651 0.59699 0.0
C1079 C 0.75209 0.48133 0.61372 0.0
C1080 C 0.76186 0.49772 0.56882 0.0
C1081 C 0.71514 0.48753 0.51695 0.0
H1082 H 0.76894 0.48261 0.46638 0.0
C1083 C 0.70043 0.47531 0.4011 0.0
C1084 C 0.71628 0.48717 0.3831 0.0
C1085 C 0.70497 0.47505 0.42922 0.0
C1086 C 0.75374 0.48438 0.48019 0.0
H1087 H 0.72241 0.45571 0.61408 0.0
H1088 H 0.71484 0.45802 0.56491 0.0
H1089 H 0.77645 0.4817 0.51559 0.0
H1090 H 0.74925 0.50823 0.38046 0.0
H1091 H 0.75688 0.50831 0.42963 0.0
H1092 H 0.69241 0.49057 0.48174 0.0
C1093 C 0.72913 0.46897 0.57363 0.0
C1094 C 0.75806 0.48378 0.50837 0.0
C1095 C 0.73356 0.46756 0.60175 0.0
C1096 C 0.73676 0.49883 0.39381 0.0
C1097 C 0.7412 0.49875 0.42199 0.0
C1098 C 0.71082 0.48835 0.48879 0.0
C1099 C 0.7433 0.48399 0.55688 0.0
C1100 C 0.73879 0.4852 0.52701 0.0
C1101 C 0.72536 0.48684 0.44005 0.0
C1102 C 0.73005 0.48661 0.47004 0.0
H1103 H 0.78056 0.50735 0.6056 0.0
H1104 H 0.77292 0.5096 0.55641 0.0
H1105 H 0.69998 0.489 0.53088 0.0
H1106 H 0.68458 0.466 0.39347 0.0
H1107 H 0.69263 0.46531 0.44242 0.0
C1108 C 0.00738 0.75326 0.10871 0.0
C1109 C 0.00354 0.77737 0.11668 0.0
C1110 C 0.00816 0.74701 0.08102 0.0
C1111 C 0.98963 0.76772 0.01244 0.0
H1112 H 0.03872 0.72274 0.98762 0.0
C1113 C 0.00628 0.74764 0.89782 0.0
C1114 C 0.01068 0.72344 0.89059 0.0
C1115 C 0.00538 0.75453 0.92534 0.0
C1116 C 0.02474 0.73511 0.99427 0.0
H1117 H 0.99738 0.81382 0.10181 0.0
H1118 H 0.99887 0.80288 0.05343 0.0
H1119 H 0.03711 0.73422 0.03576 0.0
H1120 H 0.01745 0.68747 0.90658 0.0
H1121 H 0.01562 0.69945 0.95452 0.0
H1122 H 0.97721 0.76854 0.97094 0.0
C1123 C 0.00106 0.78879 0.06863 0.0
C1124 C 0.02382 0.7417 0.02185 0.0
C1125 C 0.00033 0.79507 0.09635 0.0
C1126 C 0.01411 0.70628 0.91144 0.0
C1127 C 0.0132 0.71317 0.93894 0.0
C1128 C 0.99053 0.76111 0.98484 0.0
C1129 C 0.00509 0.76471 0.06067 0.0
C1130 C 0.00621 0.75801 0.03127 0.0
C1131 C 0.00887 0.73737 0.9462 0.0
C1132 C 0.00805 0.74466 0.97546 0.0
H1133 H 0.00985 0.73916 0.12385 0.0
H1134 H 0.01095 0.72824 0.07556 0.0
H1135 H 0.97566 0.78009 0.01913 0.0
H1136 H 0.00364 0.76132 0.88224 0.0
H1137 H 0.00229 0.77337 0.93025 0.0
C1138 C 0.70499 0.02058 0.59214 0.0
C1139 C 0.72032 0.0106 0.61207 0.0
C1140 C 0.71155 0.02025 0.56452 0.0
C1141 C 0.72335 0.00687 0.50599 0.0
H1142 H 0.79072 0.01585 0.48686 0.0
C1143 C 0.75693 0.99886 0.39438 0.0
C1144 C 0.77528 0.01474 0.38593 0.0
C1145 C 0.75025 0.99752 0.42194 0.0
C1146 C 0.77178 0.01357 0.49178 0.0
H1147 H 0.75424 0.99188 0.61868 0.0
H1148 H 0.76534 0.99056 0.57047 0.0
H1149 H 0.77884 0.01568 0.5347 0.0
H1150 H 0.80076 0.04195 0.39962 0.0
H1151 H 0.78863 0.04024 0.44744 0.0
H1152 H 0.71615 0.00591 0.463 0.0
C1153 C 0.74857 0.9993 0.57615 0.0
C1154 C 0.765 0.01308 0.51931 0.0
C1155 C 0.74215 -8e-05 0.6038 0.0
C1156 C 0.78669 0.02938 0.40553 0.0
C1157 C 0.77982 0.02827 0.43301 0.0
C1158 C 0.73009 0.00764 0.47843 0.0
C1159 C 0.73345 0.00965 0.55616 0.0
C1160 C 0.74069 0.00975 0.5268 0.0
C1161 C 0.76158 0.01226 0.44162 0.0
C1162 C 0.7544 0.01105 0.47096 0.0
H1163 H 0.68811 0.02909 0.59791 0.0
H1164 H 0.69964 0.02877 0.54981 0.0
H1165 H 0.7045 0.00393 0.51094 0.0
H1166 H 0.7479 0.98723 0.37975 0.0
H1167 H 0.73642 0.9847 0.42784 0.0
loop_
_geom_bond_atom_site_label_1
_geom_bond_atom_site_label_2
_geom_bond_distance
_geom_bond_site_symmetry_2
_ccdc_geom_bond_type
C0 O1 1.160 . S
C0 O7 1.185 . S
O1 C0 1.160 . S
O2 Zn3 1.899 . S
O2 C10 1.284 . S
Zn3 O2 1.899 . S
Zn3 O4 2.032 . S
Zn3 O7 2.086 . S
Zn3 O12 1.977 . S
O4 Zn3 2.032 . S
O4 C8 1.278 . S
C5 O6 1.203 . S
C5 O12 1.267 . S
O6 C5 1.203 . S
O7 C0 1.185 . S
O7 Zn3 2.086 . S
C8 O4 1.278 . S
C8 O9 1.211 . S
O9 C8 1.211 . S
C10 O2 1.284 . S
C10 O11 1.273 . S
O11 C10 1.273 . S
O12 Zn3 1.977 . S
O12 C5 1.267 . S
C13 O14 1.160 . S
C13 O20 1.185 . S
O14 C13 1.160 . S
O15 Zn16 1.899 . S
O15 C23 1.284 . S
Zn16 O15 1.899 . S
Zn16 O17 2.032 . S
Zn16 O20 2.086 . S
Zn16 O25 1.977 . S
O17 Zn16 2.032 . S
O17 C21 1.278 . S
C18 O19 1.203 . S
C18 O25 1.267 . S
O19 C18 1.203 . S
O20 C13 1.185 . S
O20 Zn16 2.086 . S
C21 O17 1.278 . S
C21 O22 1.211 . S
O22 C21 1.211 . S
C23 O15 1.284 . S
C23 O24 1.273 . S
O24 C23 1.273 . S
O25 Zn16 1.977 . S
O25 C18 1.267 . S
C26 O27 1.160 . S
C26 O33 1.185 . S
O27 C26 1.160 . S
O28 Zn29 1.899 . S
O28 C36 1.284 . S
Zn29 O28 1.899 . S
Zn29 O30 2.032 . S
Zn29 O33 2.086 1_655 S
Zn29 O38 1.977 . S
O30 Zn29 2.032 . S
O30 C34 1.278 . S
C31 O32 1.203 . S
C31 O38 1.267 . S
O32 C31 1.203 . S
O33 C26 1.185 . S
O33 Zn29 2.086 1_455 S
C34 O30 1.278 . S
C34 O35 1.211 . S
O35 C34 1.211 . S
C36 O28 1.284 . S
C36 O37 1.273 . S
O37 C36 1.273 . S
O38 Zn29 1.977 . S
O38 C31 1.267 . S
C39 O40 1.160 . S
C39 O46 1.185 . S
O40 C39 1.160 . S
O41 Zn42 1.899 . S
O41 C49 1.284 . S
Zn42 O41 1.899 . S
Zn42 O43 2.032 . S
Zn42 O46 2.086 1_565 S
Zn42 O51 1.977 . S
O43 Zn42 2.032 . S
O43 C47 1.278 . S
C44 O45 1.203 . S
C44 O51 1.267 . S
O45 C44 1.203 . S
O46 C39 1.185 . S
O46 Zn42 2.086 1_545 S
C47 O43 1.278 . S
C47 O48 1.211 . S
O48 C47 1.211 . S
C49 O41 1.284 . S
C49 O50 1.273 . S
O50 C49 1.273 . S
O51 Zn42 1.977 . S
O51 C44 1.267 . S
C52 O53 1.160 . S
C52 O59 1.185 . S
O53 C52 1.160 . S
O54 Zn55 1.899 . S
O54 C62 1.284 . S
Zn55 O54 1.899 . S
Zn55 O56 2.032 . S
Zn55 O59 2.086 . S
Zn55 O64 1.977 . S
O56 Zn55 2.032 . S
O56 C60 1.278 . S
C57 O58 1.203 . S
C57 O64 1.267 . S
O58 C57 1.203 . S
O59 C52 1.185 . S
O59 Zn55 2.086 . S
C60 O56 1.278 . S
C60 O61 1.211 . S
O61 C60 1.211 . S
C62 O54 1.284 . S
C62 O63 1.273 . S
O63 C62 1.273 . S
O64 Zn55 1.977 . S
O64 C57 1.267 . S
C65 O66 1.160 . S
C65 O72 1.185 . S
O66 C65 1.160 . S
O67 Zn68 1.899 . S
O67 C75 1.284 . S
Zn68 O67 1.899 . S
Zn68 O69 2.032 . S
Zn68 O72 2.086 . S
Zn68 O77 1.977 . S
O69 Zn68 2.032 . S
O69 C73 1.278 . S
C70 O71 1.203 . S
C70 O77 1.267 . S
O71 C70 1.203 . S
O72 C65 1.185 . S
O72 Zn68 2.086 . S
C73 O69 1.278 . S
C73 O74 1.211 . S
O74 C73 1.211 . S
C75 O67 1.284 . S
C75 O76 1.273 . S
O76 C75 1.273 . S
O77 Zn68 1.977 . S
O77 C70 1.267 . S
C78 O79 1.160 . S
C78 O85 1.185 . S
O79 C78 1.160 . S
O80 Zn81 1.899 . S
O80 C88 1.284 . S
Zn81 O80 1.899 . S
Zn81 O82 2.032 . S
Zn81 O85 2.086 1_655 S
Zn81 O90 1.977 . S
O82 Zn81 2.032 . S
O82 C86 1.278 . S
C83 O84 1.203 . S
C83 O90 1.267 . S
O84 C83 1.203 . S
O85 C78 1.185 . S
O85 Zn81 2.086 1_455 S
C86 O82 1.278 . S
C86 O87 1.211 . S
O87 C86 1.211 . S
C88 O80 1.284 . S
C88 O89 1.273 . S
O89 C88 1.273 . S
O90 Zn81 1.977 . S
O90 C83 1.267 . S
C91 O92 1.160 . S
C91 O98 1.185 . S
O92 C91 1.160 . S
O93 Zn94 1.899 . S
O93 C101 1.284 . S
Zn94 O93 1.899 . S
Zn94 O95 2.032 . S
Zn94 O98 2.086 1_565 S
Zn94 O103 1.977 . S
O95 Zn94 2.032 . S
O95 C99 1.278 . S
C96 O97 1.203 . S
C96 O103 1.267 . S
O97 C96 1.203 . S
O98 C91 1.185 . S
O98 Zn94 2.086 1_545 S
C99 O95 1.278 . S
C99 O100 1.211 . S
O100 C99 1.211 . S
C101 O93 1.284 . S
C101 O102 1.273 . S
O102 C101 1.273 . S
O103 Zn94 1.977 . S
O103 C96 1.267 . S
C104 O105 1.160 . S
C104 O111 1.185 . S
O105 C104 1.160 . S
O106 Zn107 1.899 . S
O106 C114 1.284 . S
Zn107 O106 1.899 . S
Zn107 O108 2.032 . S
Zn107 O111 2.086 . S
Zn107 O116 1.977 . S
O108 Zn107 2.032 . S
O108 C112 1.278 . S
C109 O110 1.203 . S
C109 O116 1.267 . S
O110 C109 1.203 . S
O111 C104 1.185 . S
O111 Zn107 2.086 . S
C112 O108 1.278 . S
C112 O113 1.211 . S
O113 C112 1.211 . S
C114 O106 1.284 . S
C114 O115 1.273 . S
O115 C114 1.273 . S
O116 Zn107 1.977 . S
O116 C109 1.267 . S
C117 O118 1.160 . S
C117 O124 1.185 . S
O118 C117 1.160 . S
O119 Zn120 1.899 . S
O119 C127 1.284 . S
Zn120 O119 1.899 . S
Zn120 O121 2.032 . S
Zn120 O124 2.086 . S
Zn120 O129 1.977 . S
O121 Zn120 2.032 . S
O121 C125 1.278 . S
C122 O123 1.203 . S
C122 O129 1.267 . S
O123 C122 1.203 . S
O124 C117 1.185 . S
O124 Zn120 2.086 . S
C125 O121 1.278 . S
C125 O126 1.211 . S
O126 C125 1.211 . S
C127 O119 1.284 . S
C127 O128 1.273 . S
O128 C127 1.273 . S
O129 Zn120 1.977 . S
O129 C122 1.267 . S
C130 O131 1.160 . S
C130 O137 1.185 . S
O131 C130 1.160 . S
O132 Zn133 1.899 . S
O132 C140 1.284 . S
Zn133 O132 1.899 . S
Zn133 O134 2.032 . S
Zn133 O137 2.086 1_455 S
Zn133 O142 1.977 . S
O134 Zn133 2.032 . S
O134 C138 1.278 . S
C135 O136 1.203 . S
C135 O142 1.267 . S
O136 C135 1.203 . S
O137 C130 1.185 . S
O137 Zn133 2.086 1_655 S
C138 O134 1.278 . S
C138 O139 1.211 . S
O139 C138 1.211 . S
C140 O132 1.284 . S
C140 O141 1.273 . S
O141 C140 1.273 . S
O142 Zn133 1.977 . S
O142 C135 1.267 . S
C143 O144 1.160 . S
C143 O150 1.185 . S
O144 C143 1.160 . S
O145 Zn146 1.899 . S
O145 C153 1.284 . S
Zn146 O145 1.899 . S
Zn146 O147 2.032 . S
Zn146 O150 2.086 1_545 S
Zn146 O155 1.977 . S
O147 Zn146 2.032 . S
O147 C151 1.278 . S
C148 O149 1.203 . S
C148 O155 1.267 . S
O149 C148 1.203 . S
O150 C143 1.185 . S
O150 Zn146 2.086 1_565 S
C151 O147 1.278 . S
C151 O152 1.211 . S
O152 C151 1.211 . S
C153 O145 1.284 . S
C153 O154 1.273 . S
O154 C153 1.273 . S
O155 Zn146 1.977 . S
O155 C148 1.267 . S
C156 O157 1.160 . S
C156 O163 1.185 . S
O157 C156 1.160 . S
O158 Zn159 1.899 . S
O158 C166 1.284 . S
Zn159 O158 1.899 . S
Zn159 O160 2.032 . S
Zn159 O163 2.086 . S
Zn159 O168 1.977 . S
O160 Zn159 2.032 . S
O160 C164 1.278 . S
C161 O162 1.203 . S
C161 O168 1.267 . S
O162 C161 1.203 . S
O163 C156 1.185 . S
O163 Zn159 2.086 . S
C164 O160 1.278 . S
C164 O165 1.211 . S
O165 C164 1.211 . S
C166 O158 1.284 . S
C166 O167 1.273 . S
O167 C166 1.273 . S
O168 Zn159 1.977 . S
O168 C161 1.267 . S
C169 O170 1.160 . S
C169 O176 1.185 . S
O170 C169 1.160 . S
O171 Zn172 1.899 . S
O171 C179 1.284 . S
Zn172 O171 1.899 . S
Zn172 O173 2.032 . S
Zn172 O176 2.086 . S
Zn172 O181 1.977 . S
O173 Zn172 2.032 . S
O173 C177 1.278 . S
C174 O175 1.203 . S
C174 O181 1.267 . S
O175 C174 1.203 . S
O176 C169 1.185 . S
O176 Zn172 2.086 . S
C177 O173 1.278 . S
C177 O178 1.211 . S
O178 C177 1.211 . S
C179 O171 1.284 . S
C179 O180 1.273 . S
O180 C179 1.273 . S
O181 Zn172 1.977 . S
O181 C174 1.267 . S
C182 O183 1.160 . S
C182 O189 1.185 . S
O183 C182 1.160 . S
O184 Zn185 1.899 . S
O184 C192 1.284 . S
Zn185 O184 1.899 . S
Zn185 O186 2.032 . S
Zn185 O189 2.086 1_455 S
Zn185 O194 1.977 . S
O186 Zn185 2.032 . S
O186 C190 1.278 . S
C187 O188 1.203 . S
C187 O194 1.267 . S
O188 C187 1.203 . S
O189 C182 1.185 . S
O189 Zn185 2.086 1_655 S
C190 O186 1.278 . S
C190 O191 1.211 . S
O191 C190 1.211 . S
C192 O184 1.284 . S
C192 O193 1.273 . S
O193 C192 1.273 . S
O194 Zn185 1.977 . S
O194 C187 1.267 . S
C195 O196 1.160 . S
C195 O202 1.185 . S
O196 C195 1.160 . S
O197 Zn198 1.899 . S
O197 C205 1.284 . S
Zn198 O197 1.899 . S
Zn198 O199 2.032 . S
Zn198 O202 2.086 1_545 S
Zn198 O207 1.977 . S
O199 Zn198 2.032 . S
O199 C203 1.278 . S
C200 O201 1.203 . S
C200 O207 1.267 . S
O201 C200 1.203 . S
O202 C195 1.185 . S
O202 Zn198 2.086 1_565 S
C203 O199 1.278 . S
C203 O204 1.211 . S
O204 C203 1.211 . S
C205 O197 1.284 . S
C205 O206 1.273 . S
O206 C205 1.273 . S
O207 Zn198 1.977 . S
O207 C200 1.267 . S
C208 C209 1.349 . S
C208 C210 1.327 . S
C208 H233 0.950 . S
C209 C208 1.349 . S
C209 C225 1.349 . S
C210 C208 1.327 . S
C210 C229 1.429 . S
C210 H234 0.950 . S
C211 C228 1.574 . S
C211 C230 1.368 . S
C211 H235 0.949 . S
H212 C216 0.949 . S
C213 C214 1.349 . S
C213 C215 1.327 . S
C213 H236 0.950 . S
C214 C213 1.349 . S
C214 C226 1.349 . S
C215 C213 1.327 . S
C215 C231 1.429 . S
C215 H237 0.950 . S
C216 H212 0.949 . S
C216 C224 1.574 . S
C216 C232 1.368 . S
H217 C225 0.950 . S
H218 C223 0.950 . S
H219 C224 0.949 . S
H220 C226 0.950 . S
H221 C227 0.950 . S
H222 C228 0.949 . S
C223 H218 0.950 . S
C223 C225 1.327 . S
C223 C229 1.429 . S
C224 C216 1.574 . S
C224 H219 0.949 . S
C224 C230 1.368 . S
C225 C209 1.349 . S
C225 H217 0.950 . S
C225 C223 1.327 . S
C226 C214 1.349 . S
C226 H220 0.950 . S
C226 C227 1.327 . S
C227 H221 0.950 . S
C227 C226 1.327 . S
C227 C231 1.429 . S
C228 C211 1.574 . S
C228 H222 0.949 . S
C228 C232 1.368 . S
C229 C210 1.429 . S
C229 C223 1.429 . S
C229 C230 1.523 . S
C230 C211 1.368 . S
C230 C224 1.368 . S
C230 C229 1.523 . S
C231 C215 1.429 . S
C231 C227 1.429 . S
C231 C232 1.523 . S
C232 C216 1.368 . S
C232 C228 1.368 . S
C232 C231 1.523 . S
H233 C208 0.950 . S
H234 C210 0.950 . S
H235 C211 0.949 . S
H236 C213 0.950 . S
H237 C215 0.950 . S
C238 C239 1.349 . S
C238 C240 1.327 . S
C238 H263 0.950 . S
C239 C238 1.349 . S
C239 C255 1.349 . S
C240 C238 1.327 . S
C240 C259 1.429 . S
C240 H264 0.950 . S
C241 C258 1.574 . S
C241 C260 1.368 . S
C241 H265 0.949 . S
H242 C246 0.949 . S
C243 C244 1.349 . S
C243 C245 1.327 . S
C243 H266 0.950 . S
C244 C243 1.349 . S
C244 C256 1.349 . S
C245 C243 1.327 . S
C245 C261 1.429 . S
C245 H267 0.950 . S
C246 H242 0.949 . S
C246 C254 1.574 . S
C246 C262 1.368 . S
H247 C255 0.950 . S
H248 C253 0.950 . S
H249 C254 0.949 . S
H250 C256 0.950 . S
H251 C257 0.950 . S
H252 C258 0.949 . S
C253 H248 0.950 . S
C253 C255 1.327 . S
C253 C259 1.429 . S
C254 C246 1.574 . S
C254 H249 0.949 . S
C254 C260 1.368 . S
C255 C239 1.349 . S
C255 H247 0.950 . S
C255 C253 1.327 . S
C256 C244 1.349 . S
C256 H250 0.950 . S
C256 C257 1.327 . S
C257 H251 0.950 . S
C257 C256 1.327 . S
C257 C261 1.429 . S
C258 C241 1.574 . S
C258 H252 0.949 . S
C258 C262 1.368 . S
C259 C240 1.429 . S
C259 C253 1.429 . S
C259 C260 1.523 . S
C260 C241 1.368 . S
C260 C254 1.368 . S
C260 C259 1.523 . S
C261 C245 1.429 . S
C261 C257 1.429 . S
C261 C262 1.523 . S
C262 C246 1.368 . S
C262 C258 1.368 . S
C262 C261 1.523 . S
H263 C238 0.950 . S
H264 C240 0.950 . S
H265 C241 0.949 . S
H266 C243 0.950 . S
H267 C245 0.950 . S
C268 C269 1.349 . S
C268 C270 1.327 . S
C268 H293 0.950 . S
C269 C268 1.349 . S
C269 C285 1.349 . S
C270 C268 1.327 . S
C270 C289 1.429 . S
C270 H294 0.950 . S
C271 C288 1.574 . S
C271 C290 1.368 . S
C271 H295 0.949 . S
H272 C276 0.949 . S
C273 C274 1.349 . S
C273 C275 1.327 . S
C273 H296 0.950 . S
C274 C273 1.349 . S
C274 C286 1.349 . S
C275 C273 1.327 . S
C275 C291 1.429 . S
C275 H297 0.950 . S
C276 H272 0.949 . S
C276 C284 1.574 . S
C276 C292 1.368 . S
H277 C285 0.950 . S
H278 C283 0.950 . S
H279 C284 0.949 . S
H280 C286 0.950 . S
H281 C287 0.950 . S
H282 C288 0.949 . S
C283 H278 0.950 . S
C283 C285 1.327 . S
C283 C289 1.429 . S
C284 C276 1.574 . S
C284 H279 0.949 . S
C284 C290 1.368 . S
C285 C269 1.349 . S
C285 H277 0.950 . S
C285 C283 1.327 . S
C286 C274 1.349 . S
C286 H280 0.950 . S
C286 C287 1.327 . S
C287 H281 0.950 . S
C287 C286 1.327 . S
C287 C291 1.429 . S
C288 C271 1.574 . S
C288 H282 0.949 . S
C288 C292 1.368 . S
C289 C270 1.429 . S
C289 C283 1.429 . S
C289 C290 1.523 . S
C290 C271 1.368 . S
C290 C284 1.368 . S
C290 C289 1.523 . S
C291 C275 1.429 . S
C291 C287 1.429 . S
C291 C292 1.523 . S
C292 C276 1.368 . S
C292 C288 1.368 . S
C292 C291 1.523 . S
H293 C268 0.950 . S
H294 C270 0.950 . S
H295 C271 0.949 . S
H296 C273 0.950 . S
H297 C275 0.950 . S
C298 C299 1.349 . S
C298 C300 1.327 . S
C298 H323 0.950 . S
C299 C298 1.349 . S
C299 C315 1.349 . S
C300 C298 1.327 . S
C300 C319 1.429 . S
C300 H324 0.950 . S
C301 C318 1.574 . S
C301 C320 1.368 . S
C301 H325 0.949 . S
H302 C306 0.949 . S
C303 C304 1.349 . S
C303 C305 1.327 . S
C303 H326 0.950 . S
C304 C303 1.349 . S
C304 C316 1.349 . S
C305 C303 1.327 . S
C305 C321 1.429 . S
C305 H327 0.950 . S
C306 H302 0.949 . S
C306 C314 1.574 . S
C306 C322 1.368 . S
H307 C315 0.950 . S
H308 C313 0.950 . S
H309 C314 0.949 . S
H310 C316 0.950 . S
H311 C317 0.950 . S
H312 C318 0.949 . S
C313 H308 0.950 . S
C313 C315 1.327 . S
C313 C319 1.429 . S
C314 C306 1.574 . S
C314 H309 0.949 . S
C314 C320 1.368 . S
C315 C299 1.349 . S
C315 H307 0.950 . S
C315 C313 1.327 . S
C316 C304 1.349 . S
C316 H310 0.950 . S
C316 C317 1.327 . S
C317 H311 0.950 . S
C317 C316 1.327 . S
C317 C321 1.429 . S
C318 C301 1.574 . S
C318 H312 0.949 . S
C318 C322 1.368 . S
C319 C300 1.429 . S
C319 C313 1.429 . S
C319 C320 1.523 . S
C320 C301 1.368 . S
C320 C314 1.368 . S
C320 C319 1.523 . S
C321 C305 1.429 . S
C321 C317 1.429 . S
C321 C322 1.523 . S
C322 C306 1.368 . S
C322 C318 1.368 . S
C322 C321 1.523 . S
H323 C298 0.950 . S
H324 C300 0.950 . S
H325 C301 0.949 . S
H326 C303 0.950 . S
H327 C305 0.950 . S
C328 C329 1.349 . S
C328 C330 1.327 . S
C328 H353 0.950 . S
C329 C328 1.349 . S
C329 C345 1.349 . S
C330 C328 1.327 . S
C330 C349 1.429 . S
C330 H354 0.950 . S
C331 C348 1.574 . S
C331 C350 1.368 . S
C331 H355 0.949 . S
H332 C336 0.949 . S
C333 C334 1.349 . S
C333 C335 1.327 . S
C333 H356 0.950 . S
C334 C333 1.349 . S
C334 C346 1.349 . S
C335 C333 1.327 . S
C335 C351 1.429 . S
C335 H357 0.950 . S
C336 H332 0.949 . S
C336 C344 1.574 . S
C336 C352 1.368 . S
H337 C345 0.950 . S
H338 C343 0.950 . S
H339 C344 0.949 . S
H340 C346 0.950 . S
H341 C347 0.950 . S
H342 C348 0.949 . S
C343 H338 0.950 . S
C343 C345 1.327 . S
C343 C349 1.429 . S
C344 C336 1.574 . S
C344 H339 0.949 . S
C344 C350 1.368 . S
C345 C329 1.349 . S
C345 H337 0.950 . S
C345 C343 1.327 . S
C346 C334 1.349 . S
C346 H340 0.950 . S
C346 C347 1.327 . S
C347 H341 0.950 . S
C347 C346 1.327 . S
C347 C351 1.429 . S
C348 C331 1.574 . S
C348 H342 0.949 . S
C348 C352 1.368 . S
C349 C330 1.429 . S
C349 C343 1.429 . S
C349 C350 1.523 . S
C350 C331 1.368 . S
C350 C344 1.368 . S
C350 C349 1.523 . S
C351 C335 1.429 . S
C351 C347 1.429 . S
C351 C352 1.523 . S
C352 C336 1.368 . S
C352 C348 1.368 . S
C352 C351 1.523 . S
H353 C328 0.950 . S
H354 C330 0.950 . S
H355 C331 0.949 . S
H356 C333 0.950 . S
H357 C335 0.950 . S
C358 C359 1.349 . S
C358 C360 1.327 . S
C358 H383 0.950 . S
C359 C358 1.349 . S
C359 C375 1.349 . S
C360 C358 1.327 . S
C360 C379 1.429 . S
C360 H384 0.950 . S
C361 C378 1.574 . S
C361 C380 1.368 . S
C361 H385 0.949 . S
H362 C366 0.949 . S
C363 C364 1.349 . S
C363 C365 1.327 . S
C363 H386 0.950 . S
C364 C363 1.349 . S
C364 C376 1.349 . S
C365 C363 1.327 . S
C365 C381 1.429 . S
C365 H387 0.950 . S
C366 H362 0.949 . S
C366 C374 1.574 . S
C366 C382 1.368 . S
H367 C375 0.950 . S
H368 C373 0.950 . S
H369 C374 0.949 . S
H370 C376 0.950 . S
H371 C377 0.950 . S
H372 C378 0.949 . S
C373 H368 0.950 . S
C373 C375 1.327 . S
C373 C379 1.429 . S
C374 C366 1.574 . S
C374 H369 0.949 . S
C374 C380 1.368 . S
C375 C359 1.349 . S
C375 H367 0.950 . S
C375 C373 1.327 . S
C376 C364 1.349 . S
C376 H370 0.950 . S
C376 C377 1.327 . S
C377 H371 0.950 . S
C377 C376 1.327 . S
C377 C381 1.429 . S
C378 C361 1.574 . S
C378 H372 0.949 . S
C378 C382 1.368 . S
C379 C360 1.429 . S
C379 C373 1.429 . S
C379 C380 1.523 . S
C380 C361 1.368 . S
C380 C374 1.368 . S
C380 C379 1.523 . S
C381 C365 1.429 . S
C381 C377 1.429 . S
C381 C382 1.523 . S
C382 C366 1.368 . S
C382 C378 1.368 . S
C382 C381 1.523 . S
H383 C358 0.950 . S
H384 C360 0.950 . S
H385 C361 0.949 . S
H386 C363 0.950 . S
H387 C365 0.950 . S
C388 C389 1.349 . S
C388 C390 1.327 . S
C388 H413 0.950 . S
C389 C388 1.349 . S
C389 C405 1.349 . S
C390 C388 1.327 . S
C390 C409 1.429 . S
C390 H414 0.950 . S
C391 C408 1.574 . S
C391 C410 1.368 . S
C391 H415 0.949 . S
H392 C396 0.949 . S
C393 C394 1.349 . S
C393 C395 1.327 . S
C393 H416 0.950 . S
C394 C393 1.349 . S
C394 C406 1.349 . S
C395 C393 1.327 . S
C395 C411 1.429 . S
C395 H417 0.950 . S
C396 H392 0.949 . S
C396 C404 1.574 . S
C396 C412 1.368 . S
H397 C405 0.950 . S
H398 C403 0.950 . S
H399 C404 0.949 . S
H400 C406 0.950 . S
H401 C407 0.950 . S
H402 C408 0.949 . S
C403 H398 0.950 . S
C403 C405 1.327 . S
C403 C409 1.429 . S
C404 C396 1.574 . S
C404 H399 0.949 . S
C404 C410 1.368 . S
C405 C389 1.349 . S
C405 H397 0.950 . S
C405 C403 1.327 . S
C406 C394 1.349 . S
C406 H400 0.950 . S
C406 C407 1.327 . S
C407 H401 0.950 . S
C407 C406 1.327 . S
C407 C411 1.429 . S
C408 C391 1.574 . S
C408 H402 0.949 . S
C408 C412 1.368 . S
C409 C390 1.429 . S
C409 C403 1.429 . S
C409 C410 1.523 . S
C410 C391 1.368 . S
C410 C404 1.368 . S
C410 C409 1.523 . S
C411 C395 1.429 . S
C411 C407 1.429 . S
C411 C412 1.523 . S
C412 C396 1.368 . S
C412 C408 1.368 . S
C412 C411 1.523 . S
H413 C388 0.950 . S
H414 C390 0.950 . S
H415 C391 0.949 . S
H416 C393 0.950 . S
H417 C395 0.950 . S
C418 C419 1.349 . S
C418 C420 1.327 . S
C418 H443 0.950 . S
C419 C418 1.349 . S
C419 C435 1.349 . S
C420 C418 1.327 . S
C420 C439 1.429 . S
C420 H444 0.950 . S
C421 C438 1.574 . S
C421 C440 1.368 . S
C421 H445 0.949 . S
H422 C426 0.949 . S
C423 C424 1.349 . S
C423 C425 1.327 . S
C423 H446 0.950 . S
C424 C423 1.349 . S
C424 C436 1.349 . S
C425 C423 1.327 . S
C425 C441 1.429 . S
C425 H447 0.950 . S
C426 H422 0.949 . S
C426 C434 1.574 . S
C426 C442 1.368 . S
H427 C435 0.950 . S
H428 C433 0.950 . S
H429 C434 0.949 . S
H430 C436 0.950 . S
H431 C437 0.950 . S
H432 C438 0.949 . S
C433 H428 0.950 . S
C433 C435 1.327 . S
C433 C439 1.429 . S
C434 C426 1.574 . S
C434 H429 0.949 . S
C434 C440 1.368 . S
C435 C419 1.349 . S
C435 H427 0.950 . S
C435 C433 1.327 . S
C436 C424 1.349 . S
C436 H430 0.950 . S
C436 C437 1.327 . S
C437 H431 0.950 . S
C437 C436 1.327 . S
C437 C441 1.429 . S
C438 C421 1.574 . S
C438 H432 0.949 . S
C438 C442 1.368 . S
C439 C420 1.429 . S
C439 C433 1.429 . S
C439 C440 1.523 . S
C440 C421 1.368 . S
C440 C434 1.368 . S
C440 C439 1.523 . S
C441 C425 1.429 . S
C441 C437 1.429 . S
C441 C442 1.523 . S
C442 C426 1.368 . S
C442 C438 1.368 . S
C442 C441 1.523 . S
H443 C418 0.950 . S
H444 C420 0.950 . S
H445 C421 0.949 . S
H446 C423 0.950 . S
H447 C425 0.950 . S
C448 C449 1.349 . S
C448 C450 1.327 . S
C448 H473 0.950 . S
C449 C448 1.349 . S
C449 C465 1.349 . S
C450 C448 1.327 . S
C450 C469 1.429 . S
C450 H474 0.950 . S
C451 C468 1.574 . S
C451 C470 1.368 . S
C451 H475 0.949 . S
H452 C456 0.949 . S
C453 C454 1.349 . S
C453 C455 1.327 . S
C453 H476 0.950 . S
C454 C453 1.349 . S
C454 C466 1.349 . S
C455 C453 1.327 . S
C455 C471 1.429 . S
C455 H477 0.950 . S
C456 H452 0.949 . S
C456 C464 1.574 . S
C456 C472 1.368 . S
H457 C465 0.950 . S
H458 C463 0.950 . S
H459 C464 0.949 . S
H460 C466 0.950 . S
H461 C467 0.950 . S
H462 C468 0.949 . S
C463 H458 0.950 . S
C463 C465 1.327 . S
C463 C469 1.429 . S
C464 C456 1.574 . S
C464 H459 0.949 . S
C464 C470 1.368 . S
C465 C449 1.349 . S
C465 H457 0.950 . S
C465 C463 1.327 . S
C466 C454 1.349 . S
C466 H460 0.950 . S
C466 C467 1.327 . S
C467 H461 0.950 . S
C467 C466 1.327 . S
C467 C471 1.429 . S
C468 C451 1.574 . S
C468 H462 0.949 . S
C468 C472 1.368 . S
C469 C450 1.429 . S
C469 C463 1.429 . S
C469 C470 1.523 . S
C470 C451 1.368 . S
C470 C464 1.368 . S
C470 C469 1.523 . S
C471 C455 1.429 . S
C471 C467 1.429 . S
C471 C472 1.523 . S
C472 C456 1.368 . S
C472 C468 1.368 . S
C472 C471 1.523 . S
H473 C448 0.950 . S
H474 C450 0.950 . S
H475 C451 0.949 . S
H476 C453 0.950 . S
H477 C455 0.950 . S
C478 C479 1.349 . S
C478 C480 1.327 . S
C478 H503 0.950 . S
C479 C478 1.349 . S
C479 C495 1.349 . S
C480 C478 1.327 . S
C480 C499 1.429 . S
C480 H504 0.950 . S
C481 C498 1.574 . S
C481 C500 1.368 . S
C481 H505 0.949 . S
H482 C486 0.949 . S
C483 C484 1.349 . S
C483 C485 1.327 . S
C483 H506 0.950 . S
C484 C483 1.349 . S
C484 C496 1.349 . S
C485 C483 1.327 . S
C485 C501 1.429 . S
C485 H507 0.950 . S
C486 H482 0.949 . S
C486 C494 1.574 . S
C486 C502 1.368 . S
H487 C495 0.950 . S
H488 C493 0.950 . S
H489 C494 0.949 . S
H490 C496 0.950 . S
H491 C497 0.950 . S
H492 C498 0.949 . S
C493 H488 0.950 . S
C493 C495 1.327 . S
C493 C499 1.429 . S
C494 C486 1.574 . S
C494 H489 0.949 . S
C494 C500 1.368 . S
C495 C479 1.349 . S
C495 H487 0.950 . S
C495 C493 1.327 . S
C496 C484 1.349 . S
C496 H490 0.950 . S
C496 C497 1.327 . S
C497 H491 0.950 . S
C497 C496 1.327 . S
C497 C501 1.429 . S
C498 C481 1.574 . S
C498 H492 0.949 . S
C498 C502 1.368 . S
C499 C480 1.429 . S
C499 C493 1.429 . S
C499 C500 1.523 . S
C500 C481 1.368 . S
C500 C494 1.368 . S
C500 C499 1.523 . S
C501 C485 1.429 . S
C501 C497 1.429 . S
C501 C502 1.523 . S
C502 C486 1.368 . S
C502 C498 1.368 . S
C502 C501 1.523 . S
H503 C478 0.950 . S
H504 C480 0.950 . S
H505 C481 0.949 . S
H506 C483 0.950 . S
H507 C485 0.950 . S
C508 C509 1.349 . S
C508 C510 1.327 . S
C508 H533 0.950 . S
C509 C508 1.349 . S
C509 C525 1.349 . S
C510 C508 1.327 . S
C510 C529 1.429 . S
C510 H534 0.950 . S
C511 C528 1.574 . S
C511 C530 1.368 . S
C511 H535 0.949 . S
H512 C516 0.949 . S
C513 C514 1.349 . S
C513 C515 1.327 . S
C513 H536 0.950 . S
C514 C513 1.349 . S
C514 C526 1.349 . S
C515 C513 1.327 . S
C515 C531 1.429 . S
C515 H537 0.950 . S
C516 H512 0.949 . S
C516 C524 1.574 . S
C516 C532 1.368 . S
H517 C525 0.950 . S
H518 C523 0.950 . S
H519 C524 0.949 . S
H520 C526 0.950 . S
H521 C527 0.950 . S
H522 C528 0.949 . S
C523 H518 0.950 . S
C523 C525 1.327 . S
C523 C529 1.429 . S
C524 C516 1.574 . S
C524 H519 0.949 . S
C524 C530 1.368 . S
C525 C509 1.349 . S
C525 H517 0.950 . S
C525 C523 1.327 . S
C526 C514 1.349 . S
C526 H520 0.950 . S
C526 C527 1.327 . S
C527 H521 0.950 . S
C527 C526 1.327 . S
C527 C531 1.429 . S
C528 C511 1.574 . S
C528 H522 0.949 . S
C528 C532 1.368 . S
C529 C510 1.429 . S
C529 C523 1.429 . S
C529 C530 1.523 . S
C530 C511 1.368 . S
C530 C524 1.368 . S
C530 C529 1.523 . S
C531 C515 1.429 . S
C531 C527 1.429 . S
C531 C532 1.523 . S
C532 C516 1.368 . S
C532 C528 1.368 . S
C532 C531 1.523 . S
H533 C508 0.950 . S
H534 C510 0.950 . S
H535 C511 0.949 . S
H536 C513 0.950 . S
H537 C515 0.950 . S
C538 C539 1.349 . S
C538 C540 1.327 . S
C538 H563 0.950 . S
C539 C538 1.349 . S
C539 C555 1.349 . S
C540 C538 1.327 . S
C540 C559 1.429 . S
C540 H564 0.950 . S
C541 C558 1.574 . S
C541 C560 1.368 . S
C541 H565 0.949 . S
H542 C546 0.949 . S
C543 C544 1.349 . S
C543 C545 1.327 . S
C543 H566 0.950 . S
C544 C543 1.349 . S
C544 C556 1.349 . S
C545 C543 1.327 . S
C545 C561 1.429 . S
C545 H567 0.950 . S
C546 H542 0.949 . S
C546 C554 1.574 . S
C546 C562 1.368 . S
H547 C555 0.950 . S
H548 C553 0.950 . S
H549 C554 0.949 . S
H550 C556 0.950 . S
H551 C557 0.950 . S
H552 C558 0.949 . S
C553 H548 0.950 . S
C553 C555 1.327 . S
C553 C559 1.429 . S
C554 C546 1.574 . S
C554 H549 0.949 . S
C554 C560 1.368 . S
C555 C539 1.349 . S
C555 H547 0.950 . S
C555 C553 1.327 . S
C556 C544 1.349 . S
C556 H550 0.950 . S
C556 C557 1.327 . S
C557 H551 0.950 . S
C557 C556 1.327 . S
C557 C561 1.429 . S
C558 C541 1.574 . S
C558 H552 0.949 . S
C558 C562 1.368 . S
C559 C540 1.429 . S
C559 C553 1.429 . S
C559 C560 1.523 . S
C560 C541 1.368 . S
C560 C554 1.368 . S
C560 C559 1.523 . S
C561 C545 1.429 . S
C561 C557 1.429 . S
C561 C562 1.523 . S
C562 C546 1.368 . S
C562 C558 1.368 . S
C562 C561 1.523 . S
H563 C538 0.950 . S
H564 C540 0.950 . S
H565 C541 0.949 . S
H566 C543 0.950 . S
H567 C545 0.950 . S
C568 C569 1.349 . S
C568 C570 1.327 . S
C568 H593 0.950 . S
C569 C568 1.349 . S
C569 C585 1.349 . S
C570 C568 1.327 . S
C570 C589 1.429 . S
C570 H594 0.950 . S
C571 C588 1.574 . S
C571 C590 1.368 . S
C571 H595 0.949 . S
H572 C576 0.949 . S
C573 C574 1.349 . S
C573 C575 1.327 . S
C573 H596 0.950 . S
C574 C573 1.349 . S
C574 C586 1.349 . S
C575 C573 1.327 . S
C575 C591 1.429 . S
C575 H597 0.950 . S
C576 H572 0.949 . S
C576 C584 1.574 . S
C576 C592 1.368 . S
H577 C585 0.950 . S
H578 C583 0.950 . S
H579 C584 0.949 . S
H580 C586 0.950 . S
H581 C587 0.950 . S
H582 C588 0.949 . S
C583 H578 0.950 . S
C583 C585 1.327 . S
C583 C589 1.429 . S
C584 C576 1.574 . S
C584 H579 0.949 . S
C584 C590 1.368 . S
C585 C569 1.349 . S
C585 H577 0.950 . S
C585 C583 1.327 . S
C586 C574 1.349 . S
C586 H580 0.950 . S
C586 C587 1.327 . S
C587 H581 0.950 . S
C587 C586 1.327 . S
C587 C591 1.429 . S
C588 C571 1.574 . S
C588 H582 0.949 . S
C588 C592 1.368 . S
C589 C570 1.429 . S
C589 C583 1.429 . S
C589 C590 1.523 . S
C590 C571 1.368 . S
C590 C584 1.368 . S
C590 C589 1.523 . S
C591 C575 1.429 . S
C591 C587 1.429 . S
C591 C592 1.523 . S
C592 C576 1.368 . S
C592 C588 1.368 . S
C592 C591 1.523 . S
H593 C568 0.950 . S
H594 C570 0.950 . S
H595 C571 0.949 . S
H596 C573 0.950 . S
H597 C575 0.950 . S
C598 C599 1.349 . S
C598 C600 1.327 . S
C598 H623 0.950 . S
C599 C598 1.349 . S
C599 C615 1.349 . S
C600 C598 1.327 . S
C600 C619 1.429 . S
C600 H624 0.950 . S
C601 C618 1.574 . S
C601 C620 1.368 . S
C601 H625 0.949 . S
H602 C606 0.949 . S
C603 C604 1.349 . S
C603 C605 1.327 . S
C603 H626 0.950 . S
C604 C603 1.349 . S
C604 C616 1.349 . S
C605 C603 1.327 . S
C605 C621 1.429 . S
C605 H627 0.950 . S
C606 H602 0.949 . S
C606 C614 1.574 . S
C606 C622 1.368 . S
H607 C615 0.950 . S
H608 C613 0.950 . S
H609 C614 0.949 . S
H610 C616 0.950 . S
H611 C617 0.950 . S
H612 C618 0.949 . S
C613 H608 0.950 . S
C613 C615 1.327 . S
C613 C619 1.429 . S
C614 C606 1.574 . S
C614 H609 0.949 . S
C614 C620 1.368 . S
C615 C599 1.349 . S
C615 H607 0.950 . S
C615 C613 1.327 . S
C616 C604 1.349 . S
C616 H610 0.950 . S
C616 C617 1.327 . S
C617 H611 0.950 . S
C617 C616 1.327 . S
C617 C621 1.429 . S
C618 C601 1.574 . S
C618 H612 0.949 . S
C618 C622 1.368 . S
C619 C600 1.429 . S
C619 C613 1.429 . S
C619 C620 1.523 . S
C620 C601 1.368 . S
C620 C614 1.368 . S
C620 C619 1.523 . S
C621 C605 1.429 . S
C621 C617 1.429 . S
C621 C622 1.523 . S
C622 C606 1.368 . S
C622 C618 1.368 . S
C622 C621 1.523 . S
H623 C598 0.950 . S
H624 C600 0.950 . S
H625 C601 0.949 . S
H626 C603 0.950 . S
H627 C605 0.950 . S
C628 C629 1.349 . S
C628 C630 1.327 . S
C628 H653 0.950 . S
C629 C628 1.349 . S
C629 C645 1.349 . S
C630 C628 1.327 . S
C630 C649 1.429 . S
C630 H654 0.950 . S
C631 C648 1.574 . S
C631 C650 1.368 . S
C631 H655 0.949 . S
H632 C636 0.949 . S
C633 C634 1.349 . S
C633 C635 1.327 . S
C633 H656 0.950 . S
C634 C633 1.349 . S
C634 C646 1.349 . S
C635 C633 1.327 . S
C635 C651 1.429 . S
C635 H657 0.950 . S
C636 H632 0.949 . S
C636 C644 1.574 . S
C636 C652 1.368 . S
H637 C645 0.950 . S
H638 C643 0.950 . S
H639 C644 0.949 . S
H640 C646 0.950 . S
H641 C647 0.950 . S
H642 C648 0.949 . S
C643 H638 0.950 . S
C643 C645 1.327 . S
C643 C649 1.429 . S
C644 C636 1.574 . S
C644 H639 0.949 . S
C644 C650 1.368 . S
C645 C629 1.349 . S
C645 H637 0.950 . S
C645 C643 1.327 . S
C646 C634 1.349 . S
C646 H640 0.950 . S
C646 C647 1.327 . S
C647 H641 0.950 . S
C647 C646 1.327 . S
C647 C651 1.429 . S
C648 C631 1.574 . S
C648 H642 0.949 . S
C648 C652 1.368 . S
C649 C630 1.429 . S
C649 C643 1.429 . S
C649 C650 1.523 . S
C650 C631 1.368 . S
C650 C644 1.368 . S
C650 C649 1.523 . S
C651 C635 1.429 . S
C651 C647 1.429 . S
C651 C652 1.523 . S
C652 C636 1.368 . S
C652 C648 1.368 . S
C652 C651 1.523 . S
H653 C628 0.950 . S
H654 C630 0.950 . S
H655 C631 0.949 . S
H656 C633 0.950 . S
H657 C635 0.950 . S
C658 C659 1.349 . S
C658 C660 1.327 . S
C658 H683 0.950 . S
C659 C658 1.349 . S
C659 C675 1.349 . S
C660 C658 1.327 . S
C660 C679 1.429 . S
C660 H684 0.950 . S
C661 C678 1.574 . S
C661 C680 1.368 . S
C661 H685 0.949 . S
H662 C666 0.949 . S
C663 C664 1.349 . S
C663 C665 1.327 . S
C663 H686 0.950 . S
C664 C663 1.349 . S
C664 C676 1.349 . S
C665 C663 1.327 . S
C665 C681 1.429 . S
C665 H687 0.950 . S
C666 H662 0.949 . S
C666 C674 1.574 . S
C666 C682 1.368 . S
H667 C675 0.950 . S
H668 C673 0.950 . S
H669 C674 0.949 . S
H670 C676 0.950 . S
H671 C677 0.950 . S
H672 C678 0.949 . S
C673 H668 0.950 . S
C673 C675 1.327 . S
C673 C679 1.429 . S
C674 C666 1.574 . S
C674 H669 0.949 . S
C674 C680 1.368 . S
C675 C659 1.349 . S
C675 H667 0.950 . S
C675 C673 1.327 . S
C676 C664 1.349 . S
C676 H670 0.950 . S
C676 C677 1.327 . S
C677 H671 0.950 . S
C677 C676 1.327 . S
C677 C681 1.429 . S
C678 C661 1.574 . S
C678 H672 0.949 . S
C678 C682 1.368 . S
C679 C660 1.429 . S
C679 C673 1.429 . S
C679 C680 1.523 . S
C680 C661 1.368 . S
C680 C674 1.368 . S
C680 C679 1.523 . S
C681 C665 1.429 . S
C681 C677 1.429 . S
C681 C682 1.523 . S
C682 C666 1.368 . S
C682 C678 1.368 . S
C682 C681 1.523 . S
H683 C658 0.950 . S
H684 C660 0.950 . S
H685 C661 0.949 . S
H686 C663 0.950 . S
H687 C665 0.950 . S
C688 C689 1.349 . S
C688 C690 1.327 . S
C688 H713 0.950 . S
C689 C688 1.349 . S
C689 C705 1.349 . S
C690 C688 1.327 . S
C690 C709 1.429 . S
C690 H714 0.950 . S
C691 C708 1.574 . S
C691 C710 1.368 . S
C691 H715 0.949 . S
H692 C696 0.949 . S
C693 C694 1.349 . S
C693 C695 1.327 . S
C693 H716 0.950 . S
C694 C693 1.349 . S
C694 C706 1.349 . S
C695 C693 1.327 . S
C695 C711 1.429 . S
C695 H717 0.950 . S
C696 H692 0.949 . S
C696 C704 1.574 . S
C696 C712 1.368 . S
H697 C705 0.950 . S
H698 C703 0.950 . S
H699 C704 0.949 . S
H700 C706 0.950 . S
H701 C707 0.950 . S
H702 C708 0.949 . S
C703 H698 0.950 . S
C703 C705 1.327 . S
C703 C709 1.429 . S
C704 C696 1.574 . S
C704 H699 0.949 . S
C704 C710 1.368 . S
C705 C689 1.349 . S
C705 H697 0.950 . S
C705 C703 1.327 . S
C706 C694 1.349 . S
C706 H700 0.950 . S
C706 C707 1.327 . S
C707 H701 0.950 . S
C707 C706 1.327 . S
C707 C711 1.429 . S
C708 C691 1.574 . S
C708 H702 0.949 . S
C708 C712 1.368 . S
C709 C690 1.429 . S
C709 C703 1.429 . S
C709 C710 1.523 . S
C710 C691 1.368 . S
C710 C704 1.368 . S
C710 C709 1.523 . S
C711 C695 1.429 . S
C711 C707 1.429 . S
C711 C712 1.523 . S
C712 C696 1.368 . S
C712 C708 1.368 . S
C712 C711 1.523 . S
H713 C688 0.950 . S
H714 C690 0.950 . S
H715 C691 0.949 . S
H716 C693 0.950 . S
H717 C695 0.950 . S
C718 C719 1.349 . S
C718 C720 1.327 . S
C718 H743 0.950 . S
C719 C718 1.349 . S
C719 C735 1.349 . S
C720 C718 1.327 . S
C720 C739 1.429 . S
C720 H744 0.950 . S
C721 C738 1.574 . S
C721 C740 1.368 . S
C721 H745 0.949 . S
H722 C726 0.949 . S
C723 C724 1.349 . S
C723 C725 1.327 . S
C723 H746 0.950 . S
C724 C723 1.349 . S
C724 C736 1.349 . S
C725 C723 1.327 . S
C725 C741 1.429 . S
C725 H747 0.950 . S
C726 H722 0.949 . S
C726 C734 1.574 . S
C726 C742 1.368 . S
H727 C735 0.950 . S
H728 C733 0.950 . S
H729 C734 0.949 . S
H730 C736 0.950 . S
H731 C737 0.950 . S
H732 C738 0.949 . S
C733 H728 0.950 . S
C733 C735 1.327 . S
C733 C739 1.429 . S
C734 C726 1.574 . S
C734 H729 0.949 . S
C734 C740 1.368 . S
C735 C719 1.349 . S
C735 H727 0.950 . S
C735 C733 1.327 . S
C736 C724 1.349 . S
C736 H730 0.950 . S
C736 C737 1.327 . S
C737 H731 0.950 . S
C737 C736 1.327 . S
C737 C741 1.429 . S
C738 C721 1.574 . S
C738 H732 0.949 . S
C738 C742 1.368 . S
C739 C720 1.429 . S
C739 C733 1.429 . S
C739 C740 1.523 . S
C740 C721 1.368 . S
C740 C734 1.368 . S
C740 C739 1.523 . S
C741 C725 1.429 . S
C741 C737 1.429 . S
C741 C742 1.523 . S
C742 C726 1.368 . S
C742 C738 1.368 . S
C742 C741 1.523 . S
H743 C718 0.950 . S
H744 C720 0.950 . S
H745 C721 0.949 . S
H746 C723 0.950 . S
H747 C725 0.950 . S
C748 C749 1.349 . S
C748 C750 1.327 . S
C748 H773 0.950 . S
C749 C748 1.349 . S
C749 C765 1.349 . S
C750 C748 1.327 . S
C750 C769 1.429 . S
C750 H774 0.950 . S
C751 C768 1.574 . S
C751 C770 1.368 . S
C751 H775 0.949 . S
H752 C756 0.949 . S
C753 C754 1.349 . S
C753 C755 1.327 . S
C753 H776 0.950 . S
C754 C753 1.349 . S
C754 C766 1.349 . S
C755 C753 1.327 . S
C755 C771 1.429 . S
C755 H777 0.950 . S
C756 H752 0.949 . S
C756 C764 1.574 . S
C756 C772 1.368 . S
H757 C765 0.950 . S
H758 C763 0.950 . S
H759 C764 0.949 . S
H760 C766 0.950 . S
H761 C767 0.950 . S
H762 C768 0.949 . S
C763 H758 0.950 . S
C763 C765 1.327 . S
C763 C769 1.429 . S
C764 C756 1.574 . S
C764 H759 0.949 . S
C764 C770 1.368 . S
C765 C749 1.349 . S
C765 H757 0.950 . S
C765 C763 1.327 . S
C766 C754 1.349 . S
C766 H760 0.950 . S
C766 C767 1.327 . S
C767 H761 0.950 . S
C767 C766 1.327 . S
C767 C771 1.429 . S
C768 C751 1.574 . S
C768 H762 0.949 . S
C768 C772 1.368 . S
C769 C750 1.429 . S
C769 C763 1.429 . S
C769 C770 1.523 . S
C770 C751 1.368 . S
C770 C764 1.368 . S
C770 C769 1.523 . S
C771 C755 1.429 . S
C771 C767 1.429 . S
C771 C772 1.523 . S
C772 C756 1.368 . S
C772 C768 1.368 . S
C772 C771 1.523 . S
H773 C748 0.950 . S
H774 C750 0.950 . S
H775 C751 0.949 . S
H776 C753 0.950 . S
H777 C755 0.950 . S
C778 C779 1.349 . S
C778 C780 1.327 . S
C778 H803 0.950 . S
C779 C778 1.349 . S
C779 C795 1.349 . S
C780 C778 1.327 . S
C780 C799 1.429 . S
C780 H804 0.950 . S
C781 C798 1.574 . S
C781 C800 1.368 . S
C781 H805 0.949 . S
H782 C786 0.949 . S
C783 C784 1.349 . S
C783 C785 1.327 . S
C783 H806 0.950 . S
C784 C783 1.349 . S
C784 C796 1.349 . S
C785 C783 1.327 . S
C785 C801 1.429 . S
C785 H807 0.950 . S
C786 H782 0.949 . S
C786 C794 1.574 . S
C786 C802 1.368 . S
H787 C795 0.950 . S
H788 C793 0.950 . S
H789 C794 0.949 . S
H790 C796 0.950 . S
H791 C797 0.950 . S
H792 C798 0.949 . S
C793 H788 0.950 . S
C793 C795 1.327 . S
C793 C799 1.429 . S
C794 C786 1.574 . S
C794 H789 0.949 . S
C794 C800 1.368 . S
C795 C779 1.349 . S
C795 H787 0.950 . S
C795 C793 1.327 . S
C796 C784 1.349 . S
C796 H790 0.950 . S
C796 C797 1.327 . S
C797 H791 0.950 . S
C797 C796 1.327 . S
C797 C801 1.429 . S
C798 C781 1.574 . S
C798 H792 0.949 . S
C798 C802 1.368 . S
C799 C780 1.429 . S
C799 C793 1.429 . S
C799 C800 1.523 . S
C800 C781 1.368 . S
C800 C794 1.368 . S
C800 C799 1.523 . S
C801 C785 1.429 . S
C801 C797 1.429 . S
C801 C802 1.523 . S
C802 C786 1.368 . S
C802 C798 1.368 . S
C802 C801 1.523 . S
H803 C778 0.950 . S
H804 C780 0.950 . S
H805 C781 0.949 . S
H806 C783 0.950 . S
H807 C785 0.950 . S
C808 C809 1.349 . S
C808 C810 1.327 . S
C808 H833 0.950 . S
C809 C808 1.349 . S
C809 C825 1.349 . S
C810 C808 1.327 . S
C810 C829 1.429 . S
C810 H834 0.950 . S
C811 C828 1.574 . S
C811 C830 1.368 . S
C811 H835 0.949 . S
H812 C816 0.949 . S
C813 C814 1.349 . S
C813 C815 1.327 . S
C813 H836 0.950 . S
C814 C813 1.349 . S
C814 C826 1.349 . S
C815 C813 1.327 . S
C815 C831 1.429 . S
C815 H837 0.950 . S
C816 H812 0.949 . S
C816 C824 1.574 . S
C816 C832 1.368 . S
H817 C825 0.950 . S
H818 C823 0.950 . S
H819 C824 0.949 . S
H820 C826 0.950 . S
H821 C827 0.950 . S
H822 C828 0.949 . S
C823 H818 0.950 . S
C823 C825 1.327 . S
C823 C829 1.429 . S
C824 C816 1.574 . S
C824 H819 0.949 . S
C824 C830 1.368 . S
C825 C809 1.349 . S
C825 H817 0.950 . S
C825 C823 1.327 . S
C826 C814 1.349 . S
C826 H820 0.950 . S
C826 C827 1.327 . S
C827 H821 0.950 . S
C827 C826 1.327 . S
C827 C831 1.429 . S
C828 C811 1.574 . S
C828 H822 0.949 . S
C828 C832 1.368 . S
C829 C810 1.429 . S
C829 C823 1.429 . S
C829 C830 1.523 . S
C830 C811 1.368 . S
C830 C824 1.368 . S
C830 C829 1.523 . S
C831 C815 1.429 . S
C831 C827 1.429 . S
C831 C832 1.523 . S
C832 C816 1.368 . S
C832 C828 1.368 . S
C832 C831 1.523 . S
H833 C808 0.950 . S
H834 C810 0.950 . S
H835 C811 0.949 . S
H836 C813 0.950 . S
H837 C815 0.950 . S
C838 C839 1.349 . S
C838 C840 1.327 . S
C838 H863 0.950 . S
C839 C838 1.349 . S
C839 C855 1.349 . S
C840 C838 1.327 . S
C840 C859 1.429 . S
C840 H864 0.950 . S
C841 C858 1.574 . S
C841 C860 1.368 . S
C841 H865 0.949 . S
H842 C846 0.949 . S
C843 C844 1.349 . S
C843 C845 1.327 . S
C843 H866 0.950 . S
C844 C843 1.349 . S
C844 C856 1.349 . S
C845 C843 1.327 . S
C845 C861 1.429 . S
C845 H867 0.950 . S
C846 H842 0.949 . S
C846 C854 1.574 . S
C846 C862 1.368 . S
H847 C855 0.950 . S
H848 C853 0.950 . S
H849 C854 0.949 . S
H850 C856 0.950 . S
H851 C857 0.950 . S
H852 C858 0.949 . S
C853 H848 0.950 . S
C853 C855 1.327 . S
C853 C859 1.429 . S
C854 C846 1.574 . S
C854 H849 0.949 . S
C854 C860 1.368 . S
C855 C839 1.349 . S
C855 H847 0.950 . S
C855 C853 1.327 . S
C856 C844 1.349 . S
C856 H850 0.950 . S
C856 C857 1.327 . S
C857 H851 0.950 . S
C857 C856 1.327 . S
C857 C861 1.429 . S
C858 C841 1.574 . S
C858 H852 0.949 . S
C858 C862 1.368 . S
C859 C840 1.429 . S
C859 C853 1.429 . S
C859 C860 1.523 . S
C860 C841 1.368 . S
C860 C854 1.368 . S
C860 C859 1.523 . S
C861 C845 1.429 . S
C861 C857 1.429 . S
C861 C862 1.523 . S
C862 C846 1.368 . S
C862 C858 1.368 . S
C862 C861 1.523 . S
H863 C838 0.950 . S
H864 C840 0.950 . S
H865 C841 0.949 . S
H866 C843 0.950 . S
H867 C845 0.950 . S
C868 C869 1.349 . S
C868 C870 1.327 . S
C868 H893 0.950 . S
C869 C868 1.349 . S
C869 C885 1.349 . S
C870 C868 1.327 . S
C870 C889 1.429 . S
C870 H894 0.950 . S
C871 C888 1.574 . S
C871 C890 1.368 . S
C871 H895 0.949 . S
H872 C876 0.949 . S
C873 C874 1.349 . S
C873 C875 1.327 . S
C873 H896 0.950 . S
C874 C873 1.349 . S
C874 C886 1.349 . S
C875 C873 1.327 . S
C875 C891 1.429 . S
C875 H897 0.950 . S
C876 H872 0.949 . S
C876 C884 1.574 . S
C876 C892 1.368 . S
H877 C885 0.950 . S
H878 C883 0.950 . S
H879 C884 0.949 . S
H880 C886 0.950 . S
H881 C887 0.950 . S
H882 C888 0.949 . S
C883 H878 0.950 . S
C883 C885 1.327 . S
C883 C889 1.429 . S
C884 C876 1.574 . S
C884 H879 0.949 . S
C884 C890 1.368 . S
C885 C869 1.349 . S
C885 H877 0.950 . S
C885 C883 1.327 . S
C886 C874 1.349 . S
C886 H880 0.950 . S
C886 C887 1.327 . S
C887 H881 0.950 . S
C887 C886 1.327 . S
C887 C891 1.429 . S
C888 C871 1.574 . S
C888 H882 0.949 . S
C888 C892 1.368 . S
C889 C870 1.429 . S
C889 C883 1.429 . S
C889 C890 1.523 . S
C890 C871 1.368 . S
C890 C884 1.368 . S
C890 C889 1.523 . S
C891 C875 1.429 . S
C891 C887 1.429 . S
C891 C892 1.523 . S
C892 C876 1.368 . S
C892 C888 1.368 . S
C892 C891 1.523 . S
H893 C868 0.950 . S
H894 C870 0.950 . S
H895 C871 0.949 . S
H896 C873 0.950 . S
H897 C875 0.950 . S
C898 C899 1.349 . S
C898 C900 1.327 . S
C898 H923 0.950 . S
C899 C898 1.349 . S
C899 C915 1.349 . S
C900 C898 1.327 . S
C900 C919 1.429 . S
C900 H924 0.950 . S
C901 C918 1.574 . S
C901 C920 1.368 . S
C901 H925 0.949 . S
H902 C906 0.949 . S
C903 C904 1.349 . S
C903 C905 1.327 . S
C903 H926 0.950 . S
C904 C903 1.349 . S
C904 C916 1.349 . S
C905 C903 1.327 . S
C905 C921 1.429 . S
C905 H927 0.950 . S
C906 H902 0.949 . S
C906 C914 1.574 . S
C906 C922 1.368 . S
H907 C915 0.950 . S
H908 C913 0.950 . S
H909 C914 0.949 . S
H910 C916 0.950 . S
H911 C917 0.950 . S
H912 C918 0.949 . S
C913 H908 0.950 . S
C913 C915 1.327 . S
C913 C919 1.429 . S
C914 C906 1.574 . S
C914 H909 0.949 . S
C914 C920 1.368 . S
C915 C899 1.349 . S
C915 H907 0.950 . S
C915 C913 1.327 . S
C916 C904 1.349 . S
C916 H910 0.950 . S
C916 C917 1.327 . S
C917 H911 0.950 . S
C917 C916 1.327 . S
C917 C921 1.429 . S
C918 C901 1.574 . S
C918 H912 0.949 . S
C918 C922 1.368 . S
C919 C900 1.429 . S
C919 C913 1.429 . S
C919 C920 1.523 . S
C920 C901 1.368 . S
C920 C914 1.368 . S
C920 C919 1.523 . S
C921 C905 1.429 . S
C921 C917 1.429 . S
C921 C922 1.523 . S
C922 C906 1.368 . S
C922 C918 1.368 . S
C922 C921 1.523 . S
H923 C898 0.950 . S
H924 C900 0.950 . S
H925 C901 0.949 . S
H926 C903 0.950 . S
H927 C905 0.950 . S
C928 C929 1.349 . S
C928 C930 1.327 . S
C928 H953 0.950 . S
C929 C928 1.349 . S
C929 C945 1.349 . S
C930 C928 1.327 . S
C930 C949 1.429 . S
C930 H954 0.950 . S
C931 C948 1.574 1_554 S
C931 C950 1.368 . S
C931 H955 0.949 . S
H932 C936 0.949 . S
C933 C934 1.349 . S
C933 C935 1.327 . S
C933 H956 0.950 . S
C934 C933 1.349 . S
C934 C946 1.349 . S
C935 C933 1.327 . S
C935 C951 1.429 . S
C935 H957 0.950 . S
C936 H932 0.949 . S
C936 C944 1.574 1_556 S
C936 C952 1.368 . S
H937 C945 0.950 . S
H938 C943 0.950 . S
H939 C944 0.949 . S
H940 C946 0.950 . S
H941 C947 0.950 . S
H942 C948 0.949 . S
C943 H938 0.950 . S
C943 C945 1.327 . S
C943 C949 1.429 . S
C944 C936 1.574 1_554 S
C944 H939 0.949 . S
C944 C950 1.368 . S
C945 C929 1.349 . S
C945 H937 0.950 . S
C945 C943 1.327 . S
C946 C934 1.349 . S
C946 H940 0.950 . S
C946 C947 1.327 . S
C947 H941 0.950 . S
C947 C946 1.327 . S
C947 C951 1.429 . S
C948 C931 1.574 1_556 S
C948 H942 0.949 . S
C948 C952 1.368 . S
C949 C930 1.429 . S
C949 C943 1.429 . S
C949 C950 1.523 . S
C950 C931 1.368 . S
C950 C944 1.368 . S
C950 C949 1.523 . S
C951 C935 1.429 . S
C951 C947 1.429 . S
C951 C952 1.523 . S
C952 C936 1.368 . S
C952 C948 1.368 . S
C952 C951 1.523 . S
H953 C928 0.950 . S
H954 C930 0.950 . S
H955 C931 0.949 . S
H956 C933 0.950 . S
H957 C935 0.950 . S
C958 C959 1.349 . S
C958 C960 1.327 . S
C958 H983 0.950 . S
C959 C958 1.349 . S
C959 C975 1.349 . S
C960 C958 1.327 . S
C960 C979 1.429 . S
C960 H984 0.950 . S
C961 C978 1.574 . S
C961 C980 1.368 . S
C961 H985 0.949 . S
H962 C966 0.949 . S
C963 C964 1.349 . S
C963 C965 1.327 . S
C963 H986 0.950 . S
C964 C963 1.349 . S
C964 C976 1.349 . S
C965 C963 1.327 . S
C965 C981 1.429 . S
C965 H987 0.950 . S
C966 H962 0.949 . S
C966 C974 1.574 . S
C966 C982 1.368 . S
H967 C975 0.950 . S
H968 C973 0.950 . S
H969 C974 0.949 . S
H970 C976 0.950 . S
H971 C977 0.950 . S
H972 C978 0.949 . S
C973 H968 0.950 . S
C973 C975 1.327 . S
C973 C979 1.429 . S
C974 C966 1.574 . S
C974 H969 0.949 . S
C974 C980 1.368 . S
C975 C959 1.349 . S
C975 H967 0.950 . S
C975 C973 1.327 . S
C976 C964 1.349 . S
C976 H970 0.950 . S
C976 C977 1.327 . S
C977 H971 0.950 . S
C977 C976 1.327 . S
C977 C981 1.429 . S
C978 C961 1.574 . S
C978 H972 0.949 . S
C978 C982 1.368 . S
C979 C960 1.429 . S
C979 C973 1.429 . S
C979 C980 1.523 . S
C980 C961 1.368 . S
C980 C974 1.368 . S
C980 C979 1.523 . S
C981 C965 1.429 . S
C981 C977 1.429 . S
C981 C982 1.523 . S
C982 C966 1.368 . S
C982 C978 1.368 . S
C982 C981 1.523 . S
H983 C958 0.950 . S
H984 C960 0.950 . S
H985 C961 0.949 . S
H986 C963 0.950 . S
H987 C965 0.950 . S
C988 C989 1.349 . S
C988 C990 1.327 . S
C988 H1013 0.950 . S
C989 C988 1.349 . S
C989 C1005 1.349 . S
C990 C988 1.327 . S
C990 C1009 1.429 . S
C990 H1014 0.950 . S
C991 C1008 1.574 1_554 S
C991 C1010 1.368 . S
C991 H1015 0.949 1_655 S
H992 C996 0.949 . S
C993 C994 1.349 . S
C993 C995 1.327 . S
C993 H1016 0.950 1_655 S
C994 C993 1.349 . S
C994 C1006 1.349 . S
C995 C993 1.327 . S
C995 C1011 1.429 . S
C995 H1017 0.950 1_655 S
C996 H992 0.949 . S
C996 C1004 1.574 1_556 S
C996 C1012 1.368 . S
H997 C1005 0.950 1_455 S
H998 C1003 0.950 1_455 S
H999 C1004 0.949 . S
H1000 C1006 0.950 . S
H1001 C1007 0.950 . S
H1002 C1008 0.949 1_455 S
C1003 H998 0.950 1_655 S
C1003 C1005 1.327 . S
C1003 C1009 1.429 . S
C1004 C996 1.574 1_554 S
C1004 H999 0.949 . S
C1004 C1010 1.368 . S
C1005 C989 1.349 . S
C1005 H997 0.950 1_655 S
C1005 C1003 1.327 . S
C1006 C994 1.349 . S
C1006 H1000 0.950 . S
C1006 C1007 1.327 . S
C1007 H1001 0.950 . S
C1007 C1006 1.327 . S
C1007 C1011 1.429 . S
C1008 C991 1.574 1_556 S
C1008 H1002 0.949 1_655 S
C1008 C1012 1.368 . S
C1009 C990 1.429 . S
C1009 C1003 1.429 . S
C1009 C1010 1.523 . S
C1010 C991 1.368 . S
C1010 C1004 1.368 . S
C1010 C1009 1.523 . S
C1011 C995 1.429 . S
C1011 C1007 1.429 . S
C1011 C1012 1.523 . S
C1012 C996 1.368 . S
C1012 C1008 1.368 . S
C1012 C1011 1.523 . S
H1013 C988 0.950 . S
H1014 C990 0.950 . S
H1015 C991 0.949 1_455 S
H1016 C993 0.950 1_455 S
H1017 C995 0.950 1_455 S
C1018 C1019 1.349 . S
C1018 C1020 1.327 . S
C1018 H1043 0.950 1_565 S
C1019 C1018 1.349 . S
C1019 C1035 1.349 . S
C1020 C1018 1.327 . S
C1020 C1039 1.429 . S
C1020 H1044 0.950 1_565 S
C1021 C1038 1.574 . S
C1021 C1040 1.368 . S
C1021 H1045 0.949 . S
H1022 C1026 0.949 1_545 S
C1023 C1024 1.349 . S
C1023 C1025 1.327 . S
C1023 H1046 0.950 . S
C1024 C1023 1.349 . S
C1024 C1036 1.349 . S
C1025 C1023 1.327 . S
C1025 C1041 1.429 . S
C1025 H1047 0.950 . S
C1026 H1022 0.949 1_565 S
C1026 C1034 1.574 . S
C1026 C1042 1.368 . S
H1027 C1035 0.950 . S
H1028 C1033 0.950 . S
H1029 C1034 0.949 1_545 S
H1030 C1036 0.950 1_545 S
H1031 C1037 0.950 1_545 S
H1032 C1038 0.949 . S
C1033 H1028 0.950 . S
C1033 C1035 1.327 . S
C1033 C1039 1.429 . S
C1034 C1026 1.574 . S
C1034 H1029 0.949 1_565 S
C1034 C1040 1.368 . S
C1035 C1019 1.349 . S
C1035 H1027 0.950 . S
C1035 C1033 1.327 . S
C1036 C1024 1.349 . S
C1036 H1030 0.950 1_565 S
C1036 C1037 1.327 . S
C1037 H1031 0.950 1_565 S
C1037 C1036 1.327 . S
C1037 C1041 1.429 . S
C1038 C1021 1.574 . S
C1038 H1032 0.949 . S
C1038 C1042 1.368 . S
C1039 C1020 1.429 . S
C1039 C1033 1.429 . S
C1039 C1040 1.523 . S
C1040 C1021 1.368 . S
C1040 C1034 1.368 . S
C1040 C1039 1.523 . S
C1041 C1025 1.429 . S
C1041 C1037 1.429 . S
C1041 C1042 1.523 . S
C1042 C1026 1.368 . S
C1042 C1038 1.368 . S
C1042 C1041 1.523 . S
H1043 C1018 0.950 1_545 S
H1044 C1020 0.950 1_545 S
H1045 C1021 0.949 . S
H1046 C1023 0.950 . S
H1047 C1025 0.950 . S
C1048 C1049 1.349 . S
C1048 C1050 1.327 . S
C1048 H1073 0.950 . S
C1049 C1048 1.349 . S
C1049 C1065 1.349 . S
C1050 C1048 1.327 . S
C1050 C1069 1.429 . S
C1050 H1074 0.950 . S
C1051 C1068 1.574 1_556 S
C1051 C1070 1.368 . S
C1051 H1075 0.949 . S
H1052 C1056 0.949 . S
C1053 C1054 1.349 . S
C1053 C1055 1.327 . S
C1053 H1076 0.950 . S
C1054 C1053 1.349 . S
C1054 C1066 1.349 . S
C1055 C1053 1.327 . S
C1055 C1071 1.429 . S
C1055 H1077 0.950 . S
C1056 H1052 0.949 . S
C1056 C1064 1.574 1_554 S
C1056 C1072 1.368 . S
H1057 C1065 0.950 . S
H1058 C1063 0.950 . S
H1059 C1064 0.949 . S
H1060 C1066 0.950 . S
H1061 C1067 0.950 . S
H1062 C1068 0.949 . S
C1063 H1058 0.950 . S
C1063 C1065 1.327 . S
C1063 C1069 1.429 . S
C1064 C1056 1.574 1_556 S
C1064 H1059 0.949 . S
C1064 C1070 1.368 . S
C1065 C1049 1.349 . S
C1065 H1057 0.950 . S
C1065 C1063 1.327 . S
C1066 C1054 1.349 . S
C1066 H1060 0.950 . S
C1066 C1067 1.327 . S
C1067 H1061 0.950 . S
C1067 C1066 1.327 . S
C1067 C1071 1.429 . S
C1068 C1051 1.574 1_554 S
C1068 H1062 0.949 . S
C1068 C1072 1.368 . S
C1069 C1050 1.429 . S
C1069 C1063 1.429 . S
C1069 C1070 1.523 . S
C1070 C1051 1.368 . S
C1070 C1064 1.368 . S
C1070 C1069 1.523 . S
C1071 C1055 1.429 . S
C1071 C1067 1.429 . S
C1071 C1072 1.523 . S
C1072 C1056 1.368 . S
C1072 C1068 1.368 . S
C1072 C1071 1.523 . S
H1073 C1048 0.950 . S
H1074 C1050 0.950 . S
H1075 C1051 0.949 . S
H1076 C1053 0.950 . S
H1077 C1055 0.950 . S
C1078 C1079 1.349 . S
C1078 C1080 1.327 . S
C1078 H1103 0.950 . S
C1079 C1078 1.349 . S
C1079 C1095 1.349 . S
C1080 C1078 1.327 . S
C1080 C1099 1.429 . S
C1080 H1104 0.950 . S
C1081 C1098 1.574 . S
C1081 C1100 1.368 . S
C1081 H1105 0.949 . S
H1082 C1086 0.949 . S
C1083 C1084 1.349 . S
C1083 C1085 1.327 . S
C1083 H1106 0.950 . S
C1084 C1083 1.349 . S
C1084 C1096 1.349 . S
C1085 C1083 1.327 . S
C1085 C1101 1.429 . S
C1085 H1107 0.950 . S
C1086 H1082 0.949 . S
C1086 C1094 1.574 . S
C1086 C1102 1.368 . S
H1087 C1095 0.950 . S
H1088 C1093 0.950 . S
H1089 C1094 0.949 . S
H1090 C1096 0.950 . S
H1091 C1097 0.950 . S
H1092 C1098 0.949 . S
C1093 H1088 0.950 . S
C1093 C1095 1.327 . S
C1093 C1099 1.429 . S
C1094 C1086 1.574 . S
C1094 H1089 0.949 . S
C1094 C1100 1.368 . S
C1095 C1079 1.349 . S
C1095 H1087 0.950 . S
C1095 C1093 1.327 . S
C1096 C1084 1.349 . S
C1096 H1090 0.950 . S
C1096 C1097 1.327 . S
C1097 H1091 0.950 . S
C1097 C1096 1.327 . S
C1097 C1101 1.429 . S
C1098 C1081 1.574 . S
C1098 H1092 0.949 . S
C1098 C1102 1.368 . S
C1099 C1080 1.429 . S
C1099 C1093 1.429 . S
C1099 C1100 1.523 . S
C1100 C1081 1.368 . S
C1100 C1094 1.368 . S
C1100 C1099 1.523 . S
C1101 C1085 1.429 . S
C1101 C1097 1.429 . S
C1101 C1102 1.523 . S
C1102 C1086 1.368 . S
C1102 C1098 1.368 . S
C1102 C1101 1.523 . S
H1103 C1078 0.950 . S
H1104 C1080 0.950 . S
H1105 C1081 0.949 . S
H1106 C1083 0.950 . S
H1107 C1085 0.950 . S
C1108 C1109 1.349 . S
C1108 C1110 1.327 . S
C1108 H1133 0.950 1_455 S
C1109 C1108 1.349 . S
C1109 C1125 1.349 . S
C1110 C1108 1.327 . S
C1110 C1129 1.429 . S
C1110 H1134 0.950 1_455 S
C1111 C1128 1.574 1_554 S
C1111 C1130 1.368 . S
C1111 H1135 0.949 . S
H1112 C1116 0.949 1_655 S
C1113 C1114 1.349 . S
C1113 C1115 1.327 . S
C1113 H1136 0.950 . S
C1114 C1113 1.349 . S
C1114 C1126 1.349 . S
C1115 C1113 1.327 . S
C1115 C1131 1.429 . S
C1115 H1137 0.950 . S
C1116 H1112 0.949 1_455 S
C1116 C1124 1.574 1_556 S
C1116 C1132 1.368 . S
H1117 C1125 0.950 . S
H1118 C1123 0.950 . S
H1119 C1124 0.949 1_655 S
H1120 C1126 0.950 1_655 S
H1121 C1127 0.950 1_655 S
H1122 C1128 0.949 . S
C1123 H1118 0.950 . S
C1123 C1125 1.327 . S
C1123 C1129 1.429 . S
C1124 C1116 1.574 1_554 S
C1124 H1119 0.949 1_455 S
C1124 C1130 1.368 . S
C1125 C1109 1.349 . S
C1125 H1117 0.950 . S
C1125 C1123 1.327 . S
C1126 C1114 1.349 . S
C1126 H1120 0.950 1_455 S
C1126 C1127 1.327 . S
C1127 H1121 0.950 1_455 S
C1127 C1126 1.327 . S
C1127 C1131 1.429 . S
C1128 C1111 1.574 1_556 S
C1128 H1122 0.949 . S
C1128 C1132 1.368 . S
C1129 C1110 1.429 . S
C1129 C1123 1.429 . S
C1129 C1130 1.523 . S
C1130 C1111 1.368 . S
C1130 C1124 1.368 . S
C1130 C1129 1.523 . S
C1131 C1115 1.429 . S
C1131 C1127 1.429 . S
C1131 C1132 1.523 . S
C1132 C1116 1.368 . S
C1132 C1128 1.368 . S
C1132 C1131 1.523 . S
H1133 C1108 0.950 1_655 S
H1134 C1110 0.950 1_655 S
H1135 C1111 0.949 . S
H1136 C1113 0.950 . S
H1137 C1115 0.950 . S
C1138 C1139 1.349 . S
C1138 C1140 1.327 . S
C1138 H1163 0.950 . S
C1139 C1138 1.349 . S
C1139 C1155 1.349 . S
C1140 C1138 1.327 . S
C1140 C1159 1.429 . S
C1140 H1164 0.950 . S
C1141 C1158 1.574 . S
C1141 C1160 1.368 . S
C1141 H1165 0.949 1_545 S
H1142 C1146 0.949 . S
C1143 C1144 1.349 . S
C1143 C1145 1.327 . S
C1143 H1166 0.950 1_545 S
C1144 C1143 1.349 . S
C1144 C1156 1.349 . S
C1145 C1143 1.327 . S
C1145 C1161 1.429 . S
C1145 H1167 0.950 1_545 S
C1146 H1142 0.949 . S
C1146 C1154 1.574 . S
C1146 C1162 1.368 . S
H1147 C1155 0.950 1_565 S
H1148 C1153 0.950 1_565 S
H1149 C1154 0.949 . S
H1150 C1156 0.950 . S
H1151 C1157 0.950 . S
H1152 C1158 0.949 1_565 S
C1153 H1148 0.950 1_545 S
C1153 C1155 1.327 . S
C1153 C1159 1.429 . S
C1154 C1146 1.574 . S
C1154 H1149 0.949 . S
C1154 C1160 1.368 . S
C1155 C1139 1.349 . S
C1155 H1147 0.950 1_545 S
C1155 C1153 1.327 . S
C1156 C1144 1.349 . S
C1156 H1150 0.950 . S
C1156 C1157 1.327 . S
C1157 H1151 0.950 . S
C1157 C1156 1.327 . S
C1157 C1161 1.429 . S
C1158 C1141 1.574 . S
C1158 H1152 0.949 1_545 S
C1158 C1162 1.368 . S
C1159 C1140 1.429 . S
C1159 C1153 1.429 . S
C1159 C1160 1.523 . S
C1160 C1141 1.368 . S
C1160 C1154 1.368 . S
C1160 C1159 1.523 . S
C1161 C1145 1.429 . S
C1161 C1157 1.429 . S
C1161 C1162 1.523 . S
C1162 C1146 1.368 . S
C1162 C1158 1.368 . S
C1162 C1161 1.523 . S
H1163 C1138 0.950 . S
H1164 C1140 0.950 . S
H1165 C1141 0.949 1_565 S
H1166 C1143 0.950 1_565 S
H1167 C1145 0.950 1_565 S
C209 C0 1.039 . S
C214 C91 1.039 . S
C239 C13 1.040 . S
C244 C52 1.040 . S
C269 C26 1.040 . S
C274 C65 1.040 . S
C299 C39 1.039 . S
C304 C78 1.039 . S
C329 C104 1.039 . S
C334 C195 1.039 . S
C359 C156 1.040 . S
C364 C117 1.040 . S
C389 C130 1.040 . S
C394 C169 1.040 . S
C419 C143 1.039 . S
C424 C182 1.039 . S
C449 C5 1.181 . S
C454 C125 1.221 . S
C479 C18 1.181 . S
C484 C138 1.220 . S
C509 C151 1.221 . S
C514 C31 1.181 . S
C539 C44 1.181 . S
C544 C112 1.221 . S
C569 C57 1.181 . S
C574 C203 1.220 . S
C599 C164 1.221 . S
C604 C70 1.181 . S
C629 C177 1.221 . S
C634 C83 1.181 . S
C659 C190 1.221 . S
C664 C96 1.181 . S
C689 C21 1.221 . S
C694 C109 1.181 . S
C719 C34 1.220 . S
C724 C122 1.181 . S
C749 C135 1.181 . S
C754 C47 1.221 . S
C779 C8 1.221 . S
C784 C148 1.181 . S
C809 C161 1.181 . S
C814 C99 1.220 . S
C839 C174 1.181 . S
C844 C60 1.221 . S
C869 C73 1.221 . S
C874 C187 1.181 . S
C899 C86 1.221 . S
C904 C200 1.181 . S
C929 C10 1.517 . S
C934 C62 1.517 . S
C959 C75 1.517 . S
C964 C23 1.517 . S
C989 C36 1.517 . S
C994 C88 1.517 . S
C1019 C101 1.517 . S
C1024 C49 1.517 . S
C1049 C114 1.517 . S
C1054 C166 1.517 . S
C1079 C179 1.517 . S
C1084 C127 1.517 . S
C1109 C192 1.517 . S
C1114 C140 1.517 . S
C1139 C205 1.517 . S
C1144 C153 1.517 . S
