# Generated by pormake.
# Topology umu, (4)-cn, num edge types: 1
# Building blocks:
#     Node 0, Type 0, BuildingBlock: GALJAG_clean_sbu_0, # of connection points: 4
#     Node 1, Type 0, BuildingBlock: GALJAG_clean_sbu_0, # of connection points: 4
#     Node 2, Type 0, BuildingBlock: GALJAG_clean_sbu_0, # of connection points: 4
#     Node 3, Type 0, BuildingBlock: GALJAG_clean_sbu_0, # of connection points: 4
#     Node 4, Type 0, BuildingBlock: GALJAG_clean_sbu_0, # of connection points: 4
#     Node 5, Type 0, BuildingBlock: GALJAG_clean_sbu_0, # of connection points: 4
#     Node 6, Type 0, BuildingBlock: GALJAG_clean_sbu_0, # of connection points: 4
#     Node 7, Type 0, BuildingBlock: GALJAG_clean_sbu_0, # of connection points: 4
#     Node 8, Type 0, BuildingBlock: GALJAG_clean_sbu_0, # of connection points: 4
#     Node 9, Type 0, BuildingBlock: GALJAG_clean_sbu_0, # of connection points: 4
#     Node 10, Type 0, BuildingBlock: GALJAG_clean_sbu_0, # of connection points: 4
#     Node 11, Type 0, BuildingBlock: GALJAG_clean_sbu_0, # of connection points: 4
#     Node 12, Type 0, BuildingBlock: GALJAG_clean_sbu_0, # of connection points: 4
#     Node 13, Type 0, BuildingBlock: GALJAG_clean_sbu_0, # of connection points: 4
#     Node 14, Type 0, BuildingBlock: GALJAG_clean_sbu_0, # of connection points: 4
#     Node 15, Type 0, BuildingBlock: GALJAG_clean_sbu_0, # of connection points: 4
#     Node 16, Type 0, BuildingBlock: GALJAG_clean_sbu_0, # of connection points: 4
#     Node 17, Type 0, BuildingBlock: GALJAG_clean_sbu_0, # of connection points: 4
#     Node 18, Type 0, BuildingBlock: GALJAG_clean_sbu_0, # of connection points: 4
#     Node 19, Type 0, BuildingBlock: GALJAG_clean_sbu_0, # of connection points: 4
#     Node 20, Type 0, BuildingBlock: GALJAG_clean_sbu_0, # of connection points: 4
#     Node 21, Type 0, BuildingBlock: GALJAG_clean_sbu_0, # of connection points: 4
#     Node 22, Type 0, BuildingBlock: GALJAG_clean_sbu_0, # of connection points: 4
#     Node 23, Type 0, BuildingBlock: GALJAG_clean_sbu_0, # of connection points: 4
#     Node 24, Type 0, BuildingBlock: GALJAG_clean_sbu_0, # of connection points: 4
#     Node 25, Type 0, BuildingBlock: GALJAG_clean_sbu_0, # of connection points: 4
#     Node 26, Type 0, BuildingBlock: GALJAG_clean_sbu_0, # of connection points: 4
#     Node 27, Type 0, BuildingBlock: GALJAG_clean_sbu_0, # of connection points: 4
#     Node 28, Type 0, BuildingBlock: GALJAG_clean_sbu_0, # of connection points: 4
#     Node 29, Type 0, BuildingBlock: GALJAG_clean_sbu_0, # of connection points: 4
#     Node 30, Type 0, BuildingBlock: GALJAG_clean_sbu_0, # of connection points: 4
#     Node 31, Type 0, BuildingBlock: GALJAG_clean_sbu_0, # of connection points: 4
#     Edge 32, Type (0, 0), BuildingBlock: TEMPAE_clean_linker_10, # of connection points: 2
#     Edge 33, Type (0, 0), BuildingBlock: TEMPAE_clean_linker_10, # of connection points: 2
#     Edge 34, Type (0, 0), BuildingBlock: TEMPAE_clean_linker_10, # of connection points: 2
#     Edge 35, Type (0, 0), BuildingBlock: TEMPAE_clean_linker_10, # of connection points: 2
#     Edge 36, Type (0, 0), BuildingBlock: TEMPAE_clean_linker_10, # of connection points: 2
#     Edge 37, Type (0, 0), BuildingBlock: TEMPAE_clean_linker_10, # of connection points: 2
#     Edge 38, Type (0, 0), BuildingBlock: TEMPAE_clean_linker_10, # of connection points: 2
#     Edge 39, Type (0, 0), BuildingBlock: TEMPAE_clean_linker_10, # of connection points: 2
#     Edge 40, Type (0, 0), BuildingBlock: TEMPAE_clean_linker_10, # of connection points: 2
#     Edge 41, Type (0, 0), BuildingBlock: TEMPAE_clean_linker_10, # of connection points: 2
#     Edge 42, Type (0, 0), BuildingBlock: TEMPAE_clean_linker_10, # of connection points: 2
#     Edge 43, Type (0, 0), BuildingBlock: TEMPAE_clean_linker_10, # of connection points: 2
#     Edge 44, Type (0, 0), BuildingBlock: TEMPAE_clean_linker_10, # of connection points: 2
#     Edge 45, Type (0, 0), BuildingBlock: TEMPAE_clean_linker_10, # of connection points: 2
#     Edge 46, Type (0, 0), BuildingBlock: TEMPAE_clean_linker_10, # of connection points: 2
#     Edge 47, Type (0, 0), BuildingBlock: TEMPAE_clean_linker_10, # of connection points: 2
#     Edge 48, Type (0, 0), BuildingBlock: TEMPAE_clean_linker_10, # of connection points: 2
#     Edge 49, Type (0, 0), BuildingBlock: TEMPAE_clean_linker_10, # of connection points: 2
#     Edge 50, Type (0, 0), BuildingBlock: TEMPAE_clean_linker_10, # of connection points: 2
#     Edge 51, Type (0, 0), BuildingBlock: TEMPAE_clean_linker_10, # of connection points: 2
#     Edge 52, Type (0, 0), BuildingBlock: TEMPAE_clean_linker_10, # of connection points: 2
#     Edge 53, Type (0, 0), BuildingBlock: TEMPAE_clean_linker_10, # of connection points: 2
#     Edge 54, Type (0, 0), BuildingBlock: TEMPAE_clean_linker_10, # of connection points: 2
#     Edge 55, Type (0, 0), BuildingBlock: TEMPAE_clean_linker_10, # of connection points: 2
#     Edge 56, Type (0, 0), BuildingBlock: TEMPAE_clean_linker_10, # of connection points: 2
#     Edge 57, Type (0, 0), BuildingBlock: TEMPAE_clean_linker_10, # of connection points: 2
#     Edge 58, Type (0, 0), BuildingBlock: TEMPAE_clean_linker_10, # of connection points: 2
#     Edge 59, Type (0, 0), BuildingBlock: TEMPAE_clean_linker_10, # of connection points: 2
#     Edge 60, Type (0, 0), BuildingBlock: TEMPAE_clean_linker_10, # of connection points: 2
#     Edge 61, Type (0, 0), BuildingBlock: TEMPAE_clean_linker_10, # of connection points: 2
#     Edge 62, Type (0, 0), BuildingBlock: TEMPAE_clean_linker_10, # of connection points: 2
#     Edge 63, Type (0, 0), BuildingBlock: TEMPAE_clean_linker_10, # of connection points: 2
#     Edge 64, Type (0, 0), BuildingBlock: TEMPAE_clean_linker_10, # of connection points: 2
#     Edge 65, Type (0, 0), BuildingBlock: TEMPAE_clean_linker_10, # of connection points: 2
#     Edge 66, Type (0, 0), BuildingBlock: TEMPAE_clean_linker_10, # of connection points: 2
#     Edge 67, Type (0, 0), BuildingBlock: TEMPAE_clean_linker_10, # of connection points: 2
#     Edge 68, Type (0, 0), BuildingBlock: TEMPAE_clean_linker_10, # of connection points: 2
#     Edge 69, Type (0, 0), BuildingBlock: TEMPAE_clean_linker_10, # of connection points: 2
#     Edge 70, Type (0, 0), BuildingBlock: TEMPAE_clean_linker_10, # of connection points: 2
#     Edge 71, Type (0, 0), BuildingBlock: TEMPAE_clean_linker_10, # of connection points: 2
#     Edge 72, Type (0, 0), BuildingBlock: TEMPAE_clean_linker_10, # of connection points: 2
#     Edge 73, Type (0, 0), BuildingBlock: TEMPAE_clean_linker_10, # of connection points: 2
#     Edge 74, Type (0, 0), BuildingBlock: TEMPAE_clean_linker_10, # of connection points: 2
#     Edge 75, Type (0, 0), BuildingBlock: TEMPAE_clean_linker_10, # of connection points: 2
#     Edge 76, Type (0, 0), BuildingBlock: TEMPAE_clean_linker_10, # of connection points: 2
#     Edge 77, Type (0, 0), BuildingBlock: TEMPAE_clean_linker_10, # of connection points: 2
#     Edge 78, Type (0, 0), BuildingBlock: TEMPAE_clean_linker_10, # of connection points: 2
#     Edge 79, Type (0, 0), BuildingBlock: TEMPAE_clean_linker_10, # of connection points: 2
#     Edge 80, Type (0, 0), BuildingBlock: TEMPAE_clean_linker_10, # of connection points: 2
#     Edge 81, Type (0, 0), BuildingBlock: TEMPAE_clean_linker_10, # of connection points: 2
#     Edge 82, Type (0, 0), BuildingBlock: TEMPAE_clean_linker_10, # of connection points: 2
#     Edge 83, Type (0, 0), BuildingBlock: TEMPAE_clean_linker_10, # of connection points: 2
#     Edge 84, Type (0, 0), BuildingBlock: TEMPAE_clean_linker_10, # of connection points: 2
#     Edge 85, Type (0, 0), BuildingBlock: TEMPAE_clean_linker_10, # of connection points: 2
#     Edge 86, Type (0, 0), BuildingBlock: TEMPAE_clean_linker_10, # of connection points: 2
#     Edge 87, Type (0, 0), BuildingBlock: TEMPAE_clean_linker_10, # of connection points: 2
#     Edge 88, Type (0, 0), BuildingBlock: TEMPAE_clean_linker_10, # of connection points: 2
#     Edge 89, Type (0, 0), BuildingBlock: TEMPAE_clean_linker_10, # of connection points: 2
#     Edge 90, Type (0, 0), BuildingBlock: TEMPAE_clean_linker_10, # of connection points: 2
#     Edge 91, Type (0, 0), BuildingBlock: TEMPAE_clean_linker_10, # of connection points: 2
#     Edge 92, Type (0, 0), BuildingBlock: TEMPAE_clean_linker_10, # of connection points: 2
#     Edge 93, Type (0, 0), BuildingBlock: TEMPAE_clean_linker_10, # of connection points: 2
#     Edge 94, Type (0, 0), BuildingBlock: TEMPAE_clean_linker_10, # of connection points: 2
#     Edge 95, Type (0, 0), BuildingBlock: TEMPAE_clean_linker_10, # of connection points: 2
# Relax obj value: 0.103
# Max RMSD: 0.078
# Mean RMSD: 0.078
data_MOF--net-umu--node1-GALJAG_clean_sbu_0--edge1-TEMPAE_clean_linker_10
_symmetry_space_group_name_H-M    P1
_symmetry_Int_Tables_number       1
_symmetry_cell_setting            triclinic
loop_
_symmetry_equiv_pos_as_xyz
'x, y, z'
_cell_length_a     80.669397
_cell_length_b     80.672762
_cell_length_c     27.567991
_cell_angle_alpha  89.991509
_cell_angle_beta   89.990291
_cell_angle_gamma 89.995261
loop_
_atom_site_label
_atom_site_type_symbol
_atom_site_fract_x
_atom_site_fract_y
_atom_site_fract_z
_atom_type_partial_charge
In0 In 0.20666 0.1526 0.08086 0.0
O1 O 0.22793 0.14582 0.02865 0.0
O2 O 0.20715 0.15887 0.00101 0.0
C3 C 0.2182 0.14268 0.16778 0.0
C4 C 0.18039 0.13313 0.06204 0.0
C5 C 0.20596 0.18541 0.09675 0.0
O6 O 0.22572 0.13942 0.1287 0.0
O7 O 0.20464 0.15028 0.1626 0.0
O8 O 0.1931 0.17717 0.08683 0.0
O9 O 0.21921 0.17711 0.09876 0.0
C10 C 0.22091 0.1522 0.99217 0.0
O11 O 0.17903 0.14842 0.07051 0.0
O12 O 0.19491 0.12745 0.06605 0.0
In13 In 0.09519 0.96371 0.31683 0.0
O14 O 0.11532 0.9691 0.26147 0.0
O15 O 0.09369 0.98423 0.26031 0.0
C16 C 0.10669 0.97611 0.40148 0.0
C17 C 0.10351 0.93374 0.28146 0.0
C18 C 0.06204 0.9635 0.32967 0.0
O19 O 0.10614 0.98463 0.36317 0.0
O20 O 0.102 0.96132 0.3966 0.0
O21 O 0.07175 0.95493 0.35527 0.0
O22 O 0.06905 0.97219 0.29765 0.0
C23 C 0.10731 0.98046 0.24048 0.0
O24 O 0.09037 0.94115 0.26963 0.0
O25 O 0.11199 0.941 0.31358 0.0
In26 In 0.28114 0.84268 0.56076 0.0
O27 O 0.3078 0.85233 0.5523 0.0
O28 O 0.28815 0.86618 0.5211 0.0
C29 C 0.28695 0.81028 0.57661 0.0
C30 C 0.2624 0.83974 0.48029 0.0
C31 C 0.27071 0.85374 0.64811 0.0
O32 O 0.2976 0.81976 0.55766 0.0
O33 O 0.27345 0.8172 0.58802 0.0
O34 O 0.2616 0.85394 0.61093 0.0
O35 O 0.28519 0.84836 0.64101 0.0
C36 C 0.30353 0.8646 0.5268 0.0
O37 O 0.25812 0.84878 0.51557 0.0
O38 O 0.27567 0.83178 0.48668 0.0
In39 In 0.40764 0.04186 0.82573 0.0
O40 O 0.39782 0.0223 0.7722 0.0
O41 O 0.41887 0.03651 0.75223 0.0
C42 C 0.39701 0.02948 0.91101 0.0
C43 C 0.38945 0.06807 0.79651 0.0
C44 C 0.43973 0.04427 0.84985 0.0
O45 O 0.39536 0.02166 0.8716 0.0
O46 O 0.40344 0.04367 0.90699 0.0
O47 O 0.4303 0.05676 0.84791 0.0
O48 O 0.43285 0.03057 0.84046 0.0
C49 C 0.40859 0.02552 0.74029 0.0
O50 O 0.40504 0.06793 0.79537 0.0
O51 O 0.38297 0.05531 0.81486 0.0
In52 In 0.20037 0.84349 0.05467 0.0
O53 O 0.22015 0.85165 0.10969 0.0
O54 O 0.20021 0.83649 0.1339 0.0
C55 C 0.2141 0.85328 0.97018 0.0
C56 C 0.17305 0.86156 0.0739 0.0
C57 C 0.20119 0.81075 0.03811 0.0
O58 O 0.22044 0.85703 0.01065 0.0
O59 O 0.2007 0.84529 0.97278 0.0
O60 O 0.18868 0.8195 0.02786 0.0
O61 O 0.21326 0.81856 0.05619 0.0
C62 C 0.2133 0.84417 0.14474 0.0
O63 O 0.17283 0.84597 0.07089 0.0
O64 O 0.18687 0.86811 0.06433 0.0
In65 In 0.40608 0.96048 0.31924 0.0
O66 O 0.3955 0.93418 0.32629 0.0
O67 O 0.38095 0.95451 0.35066 0.0
C68 C 0.43846 0.95477 0.30363 0.0
C69 C 0.40946 0.97656 0.40421 0.0
C70 C 0.39612 0.9723 0.23254 0.0
O71 O 0.42872 0.94354 0.31809 0.0
O72 O 0.43181 0.96872 0.2965 0.0
O73 O 0.39487 0.98064 0.27113 0.0
O74 O 0.40195 0.9579 0.23795 0.0
C75 C 0.38238 0.93902 0.34695 0.0
O76 O 0.40285 0.98335 0.36766 0.0
O77 O 0.41473 0.96206 0.39706 0.0
In78 In 0.28742 0.1587 0.57364 0.0
O79 O 0.31122 0.15733 0.61733 0.0
O80 O 0.30478 0.13621 0.57574 0.0
C81 C 0.29097 0.19083 0.55046 0.0
C82 C 0.26876 0.15687 0.655 0.0
C83 C 0.27568 0.14739 0.48833 0.0
O84 O 0.30313 0.18175 0.56174 0.0
O85 O 0.27707 0.18362 0.55005 0.0
O86 O 0.26773 0.14582 0.52754 0.0
O87 O 0.28969 0.15423 0.49246 0.0
C88 C 0.31468 0.14267 0.60565 0.0
O89 O 0.27073 0.14461 0.62723 0.0
O90 O 0.27542 0.17005 0.64034 0.0
In91 In 0.09648 0.0329 0.8225 0.0
O92 O 0.09498 0.05302 0.87927 0.0
O93 O 0.11297 0.05598 0.82354 0.0
C94 C 0.06324 0.03274 0.81478 0.0
C95 C 0.1072 0.01273 0.89395 0.0
C96 C 0.10691 0.02638 0.73142 0.0
O97 O 0.07138 0.04555 0.82578 0.0
O98 O 0.07187 0.01992 0.80734 0.0
O99 O 0.11163 0.01802 0.76753 0.0
O100 O 0.09741 0.03831 0.74149 0.0
C101 C 0.10679 0.06148 0.86252 0.0
O102 O 0.0928 0.0117 0.87634 0.0
O103 O 0.11649 0.02305 0.87306 0.0
In104 In 0.79086 0.83378 0.08058 0.0
O105 O 0.77692 0.82192 0.14311 0.0
O106 O 0.77541 0.84809 0.13656 0.0
C107 C 0.77769 0.8447 0.99606 0.0
C108 C 0.81799 0.84936 0.11536 0.0
C109 C 0.79607 0.80179 0.05888 0.0
O110 O 0.77106 0.84777 0.03654 0.0
O111 O 0.79095 0.83652 0.99846 0.0
O112 O 0.80756 0.81244 0.05688 0.0
O113 O 0.78205 0.80739 0.07113 0.0
C114 C 0.7717 0.83533 0.16083 0.0
O115 O 0.81352 0.83521 0.1293 0.0
O116 O 0.8092 0.85546 0.08201 0.0
In117 In 0.90553 0.03668 0.82433 0.0
O118 O 0.89565 0.01642 0.875 0.0
O119 O 0.90817 0.03712 0.90582 0.0
C120 C 0.89643 0.02317 0.73894 0.0
C121 C 0.88847 0.06494 0.83916 0.0
C122 C 0.93868 0.03449 0.8153 0.0
O123 O 0.89169 0.01725 0.77905 0.0
O124 O 0.90524 0.03602 0.74218 0.0
O125 O 0.93057 0.0468 0.7999 0.0
O126 O 0.93007 0.0233 0.83497 0.0
C127 C 0.9007 0.02362 0.91301 0.0
O128 O 0.90406 0.06425 0.84137 0.0
O129 O 0.88155 0.05158 0.82667 0.0
In130 In 0.70988 0.15464 0.5559 0.0
O131 O 0.72943 0.16064 0.61372 0.0
O132 O 0.71739 0.13735 0.61753 0.0
C133 C 0.72062 0.14329 0.46911 0.0
C134 C 0.68038 0.14263 0.58449 0.0
C135 C 0.70815 0.18767 0.54321 0.0
O136 O 0.72784 0.13975 0.50835 0.0
O137 O 0.70776 0.152 0.47397 0.0
O138 O 0.69556 0.17887 0.55165 0.0
O139 O 0.72167 0.17981 0.54103 0.0
C140 C 0.72742 0.14731 0.63682 0.0
O141 O 0.68609 0.15629 0.5991 0.0
O142 O 0.68922 0.13533 0.55319 0.0
In143 In 0.59506 0.96254 0.32604 0.0
O144 O 0.59677 0.98427 0.37948 0.0
O145 O 0.59526 0.95965 0.40737 0.0
C146 C 0.60187 0.97732 0.24046 0.0
C147 C 0.61925 0.94029 0.34087 0.0
C148 C 0.56226 0.95705 0.32009 0.0
O149 O 0.6063 0.98356 0.28042 0.0
O150 O 0.59426 0.96374 0.24386 0.0
O151 O 0.57276 0.94641 0.30635 0.0
O152 O 0.56834 0.97031 0.33662 0.0
C153 C 0.59666 0.97491 0.41641 0.0
O154 O 0.60433 0.93595 0.33505 0.0
O155 O 0.62198 0.95555 0.33513 0.0
In156 In 0.78623 0.15346 0.05929 0.0
O157 O 0.80825 0.15406 0.00839 0.0
O158 O 0.80718 0.13441 0.05978 0.0
C159 C 0.78897 0.18622 0.07612 0.0
C160 C 0.767 0.14695 0.98135 0.0
C161 C 0.77612 0.14165 0.14618 0.0
O162 O 0.80127 0.17725 0.06567 0.0
O163 O 0.77527 0.17868 0.07794 0.0
O164 O 0.7681 0.13911 0.10761 0.0
O165 O 0.78948 0.14953 0.1405 0.0
C166 C 0.8147 0.1409 0.02428 0.0
O167 O 0.77595 0.13613 0.00131 0.0
O168 O 0.76691 0.16082 0.00246 0.0
In169 In 0.59634 0.04259 0.82669 0.0
O170 O 0.59515 0.06771 0.78903 0.0
O171 O 0.61846 0.0599 0.81599 0.0
C172 C 0.56352 0.04749 0.8382 0.0
C173 C 0.601 0.0203 0.75514 0.0
C174 C 0.60664 0.03124 0.91371 0.0
O175 O 0.57352 0.04788 0.8733 0.0
O176 O 0.57011 0.0449 0.79745 0.0
O177 O 0.60624 0.02213 0.87648 0.0
O178 O 0.60244 0.0461 0.9065 0.0
C179 C 0.6104 0.0707 0.79286 0.0
O180 O 0.58815 0.02052 0.78121 0.0
O181 O 0.61201 0.03059 0.76738 0.0
In182 In 0.71112 0.84565 0.58667 0.0
O183 O 0.73377 0.84592 0.53618 0.0
O184 O 0.71089 0.83638 0.50955 0.0
C185 C 0.72281 0.85613 0.67294 0.0
C186 C 0.69176 0.8699 0.55217 0.0
C187 C 0.70381 0.81404 0.60832 0.0
O188 O 0.73183 0.85554 0.63548 0.0
O189 O 0.70785 0.8522 0.66615 0.0
O190 O 0.69278 0.82433 0.59582 0.0
O191 O 0.71836 0.81976 0.60998 0.0
C192 C 0.72577 0.84003 0.50058 0.0
O193 O 0.68575 0.85765 0.57471 0.0
O194 O 0.70736 0.87048 0.55087 0.0
In195 In 0.90509 0.95571 0.32967 0.0
O196 O 0.90403 0.92878 0.30504 0.0
O197 O 0.88123 0.94099 0.31886 0.0
C198 C 0.93788 0.9567 0.34596 0.0
C199 C 0.90231 0.97225 0.24484 0.0
C200 C 0.89487 0.96603 0.4177 0.0
O201 O 0.93009 0.94327 0.34005 0.0
O202 O 0.92906 0.96963 0.34457 0.0
O203 O 0.89251 0.97441 0.37963 0.0
O204 O 0.90198 0.95227 0.41113 0.0
C205 C 0.88844 0.92804 0.30443 0.0
O206 O 0.89236 0.97462 0.27948 0.0
O207 O 0.91363 0.96196 0.25362 0.0
In208 In 0.70664 0.65955 0.5525 0.0
O209 O 0.67909 0.65628 0.53741 0.0
O210 O 0.69431 0.63472 0.53979 0.0
C211 C 0.70241 0.69163 0.57617 0.0
C212 C 0.7191 0.65813 0.46197 0.0
C213 C 0.72401 0.64839 0.62951 0.0
O214 O 0.69351 0.68037 0.59452 0.0
O215 O 0.71335 0.68659 0.54714 0.0
O216 O 0.73051 0.65702 0.59642 0.0
O217 O 0.70885 0.64521 0.6234 0.0
C218 C 0.6801 0.64075 0.53246 0.0
O219 O 0.72588 0.65059 0.49696 0.0
O220 O 0.70637 0.66631 0.47309 0.0
In221 In 0.59401 0.4559 0.83188 0.0
O222 O 0.586 0.47564 0.77671 0.0
O223 O 0.61068 0.46675 0.77299 0.0
C224 C 0.60621 0.46464 0.91956 0.0
C225 C 0.6062 0.42766 0.79438 0.0
C226 C 0.56146 0.45296 0.85124 0.0
O227 O 0.60832 0.47344 0.88216 0.0
O228 O 0.59869 0.45118 0.91212 0.0
O229 O 0.56998 0.44116 0.83457 0.0
O230 O 0.56931 0.4663 0.85789 0.0
C231 C 0.59961 0.47571 0.75424 0.0
O232 O 0.59246 0.43373 0.78188 0.0
O233 O 0.61352 0.4354 0.82805 0.0
In234 In 0.78937 0.3436 0.06873 0.0
O235 O 0.77092 0.35788 0.0205 0.0
O236 O 0.78672 0.33996 0.98813 0.0
C237 C 0.77386 0.35278 0.15124 0.0
C238 C 0.81836 0.35862 0.04942 0.0
C239 C 0.79034 0.31049 0.08035 0.0
O240 O 0.76655 0.34537 0.11712 0.0
O241 O 0.78893 0.35597 0.1433 0.0
O242 O 0.79986 0.32001 0.10376 0.0
O243 O 0.7804 0.31771 0.05212 0.0
C244 C 0.77552 0.35062 0.98215 0.0
O245 O 0.817 0.34307 0.05212 0.0
O246 O 0.80533 0.36657 0.05945 0.0
In247 In 0.90273 0.52999 0.30659 0.0
O248 O 0.90188 0.50802 0.2537 0.0
O249 O 0.90939 0.53163 0.22723 0.0
C250 C 0.89291 0.517 0.39192 0.0
C251 C 0.87823 0.55084 0.28184 0.0
C252 C 0.93487 0.53598 0.32522 0.0
O253 O 0.89172 0.50906 0.35255 0.0
O254 O 0.89855 0.53152 0.38784 0.0
O255 O 0.92466 0.54752 0.31686 0.0
O256 O 0.92883 0.52155 0.32426 0.0
C257 C 0.9063 0.51668 0.21765 0.0
O258 O 0.89184 0.55601 0.29873 0.0
O259 O 0.8767 0.53529 0.28085 0.0
In260 In 0.70935 0.34502 0.56691 0.0
O261 O 0.68176 0.34472 0.58387 0.0
O262 O 0.69359 0.36813 0.57609 0.0
C263 C 0.70823 0.312 0.55333 0.0
C264 C 0.72302 0.35158 0.65401 0.0
C265 C 0.72512 0.35425 0.4849 0.0
O266 O 0.69871 0.32175 0.53071 0.0
O267 O 0.71821 0.31895 0.58201 0.0
O268 O 0.7324 0.34712 0.5196 0.0
O269 O 0.70996 0.35721 0.49211 0.0
C270 C 0.68052 0.36028 0.58643 0.0
O271 O 0.72772 0.35901 0.61603 0.0
O272 O 0.71184 0.34093 0.64738 0.0
In273 In 0.90848 0.45117 0.79958 0.0
O274 O 0.90876 0.42915 0.85078 0.0
O275 O 0.8872 0.43261 0.80792 0.0
C276 C 0.94007 0.44728 0.77134 0.0
C277 C 0.90774 0.47177 0.87689 0.0
C278 C 0.89539 0.46103 0.71436 0.0
O279 O 0.93135 0.43528 0.78611 0.0
O280 O 0.93277 0.46113 0.77046 0.0
O281 O 0.89409 0.46959 0.75254 0.0
O282 O 0.90262 0.44728 0.71981 0.0
C283 C 0.89432 0.42434 0.84073 0.0
O284 O 0.92097 0.4665 0.85825 0.0
O285 O 0.89475 0.46746 0.85476 0.0
In286 In 0.78554 0.64948 0.04696 0.0
O287 O 0.81045 0.63595 0.05497 0.0
O288 O 0.78932 0.62631 0.0914 0.0
C289 C 0.79859 0.67956 0.0278 0.0
C290 C 0.76598 0.65541 0.12428 0.0
C291 C 0.77165 0.64038 0.96221 0.0
O292 O 0.80505 0.66973 0.05801 0.0
O293 O 0.78594 0.67399 0.00653 0.0
O294 O 0.76387 0.64797 0.99511 0.0
O295 O 0.78645 0.63672 0.9727 0.0
C296 C 0.80467 0.62528 0.084 0.0
O297 O 0.76275 0.64422 0.09369 0.0
O298 O 0.77857 0.66401 0.1145 0.0
In299 In 0.59217 0.53386 0.32772 0.0
O300 O 0.59191 0.55722 0.37295 0.0
O301 O 0.61243 0.55365 0.32558 0.0
C302 C 0.55969 0.53976 0.31338 0.0
C303 C 0.5983 0.51651 0.40952 0.0
C304 C 0.60253 0.51999 0.24311 0.0
O305 O 0.57084 0.55 0.30204 0.0
O306 O 0.56491 0.52645 0.33214 0.0
O307 O 0.6057 0.51355 0.28372 0.0
O308 O 0.59469 0.53343 0.24552 0.0
C309 C 0.60563 0.56256 0.35764 0.0
O310 O 0.58524 0.51441 0.38492 0.0
O311 O 0.60856 0.52649 0.39122 0.0
In312 In 0.28507 0.34759 0.57285 0.0
O313 O 0.26333 0.35279 0.62374 0.0
O314 O 0.28558 0.34272 0.65345 0.0
C315 C 0.27175 0.35638 0.48688 0.0
C316 C 0.3088 0.36964 0.59528 0.0
C317 C 0.28812 0.31469 0.5604 0.0
O318 O 0.26427 0.35876 0.5265 0.0
O319 O 0.28593 0.35 0.49095 0.0
O320 O 0.29961 0.32464 0.54942 0.0
O321 O 0.2752 0.32133 0.57736 0.0
C322 C 0.27108 0.348 0.66115 0.0
O323 O 0.31214 0.3547 0.58579 0.0
O324 O 0.29377 0.37354 0.5903 0.0
In325 In 0.40726 0.53796 0.30756 0.0
O326 O 0.40235 0.515 0.35368 0.0
O327 O 0.42366 0.52954 0.36946 0.0
C328 C 0.39426 0.52511 0.22587 0.0
C329 C 0.38558 0.55787 0.35336 0.0
C330 C 0.43745 0.54952 0.2827 0.0
O331 O 0.4028 0.5168 0.25544 0.0
O332 O 0.39168 0.53996 0.23825 0.0
O333 O 0.42838 0.55676 0.31342 0.0
O334 O 0.43091 0.53703 0.26306 0.0
C335 C 0.41478 0.51728 0.38074 0.0
O336 O 0.39407 0.56299 0.31784 0.0
O337 O 0.38749 0.5428 0.36357 0.0
In338 In 0.20704 0.65446 0.05466 0.0
O339 O 0.18634 0.65484 0.11008 0.0
O340 O 0.18704 0.63445 0.06142 0.0
C341 C 0.20299 0.68677 0.03458 0.0
C342 C 0.22926 0.65103 0.12725 0.0
C343 C 0.21489 0.64227 0.96651 0.0
O344 O 0.19158 0.67799 0.05252 0.0
O345 O 0.21638 0.67921 0.02615 0.0
O346 O 0.22398 0.64009 0.00324 0.0
O347 O 0.20156 0.64995 0.97481 0.0
C348 C 0.18005 0.64125 0.09729 0.0
O349 O 0.22205 0.63879 0.10821 0.0
O350 O 0.22601 0.66476 0.10767 0.0
In351 In 0.09486 0.45905 0.80965 0.0
O352 O 0.11015 0.4754 0.86159 0.0
O353 O 0.08637 0.46712 0.88392 0.0
C354 C 0.10445 0.47498 0.72823 0.0
C355 C 0.10902 0.4305 0.83847 0.0
C356 C 0.06277 0.45503 0.78694 0.0
O357 O 0.09715 0.48218 0.76278 0.0
O358 O 0.10752 0.45985 0.7355 0.0
O359 O 0.07391 0.44585 0.76908 0.0
O360 O 0.06793 0.46617 0.81521 0.0
C361 C 0.09931 0.47502 0.89466 0.0
O362 O 0.09358 0.43282 0.83915 0.0
O363 O 0.11733 0.4423 0.82074 0.0
In364 In 0.28497 0.65303 0.55856 0.0
O365 O 0.26391 0.64962 0.50375 0.0
O366 O 0.2884 0.65384 0.47735 0.0
C367 C 0.26983 0.6451 0.64275 0.0
C368 C 0.30895 0.63039 0.54545 0.0
C369 C 0.28817 0.68613 0.56611 0.0
O370 O 0.2638 0.64116 0.60209 0.0
O371 O 0.28346 0.6527 0.64067 0.0
O372 O 0.29948 0.67632 0.57955 0.0
O373 O 0.27539 0.67924 0.54918 0.0
C374 C 0.27339 0.65108 0.46737 0.0
O375 O 0.31217 0.64557 0.55169 0.0
O376 O 0.29383 0.62663 0.54931 0.0
In377 In 0.09189 0.53962 0.31235 0.0
O378 O 0.09291 0.56743 0.29881 0.0
O379 O 0.1157 0.55435 0.30608 0.0
C380 C 0.05872 0.54224 0.32179 0.0
C381 C 0.09939 0.52594 0.22571 0.0
C382 C 0.1007 0.52373 0.39462 0.0
O383 O 0.06855 0.55045 0.34809 0.0
O384 O 0.06564 0.53281 0.29154 0.0
O385 O 0.09219 0.51693 0.36178 0.0
O386 O 0.10506 0.53841 0.38555 0.0
C387 C 0.10855 0.56793 0.29717 0.0
O388 O 0.10368 0.51918 0.26513 0.0
O389 O 0.09132 0.53918 0.23055 0.0
In390 In 0.20423 0.34184 0.07932 0.0
O391 O 0.17833 0.34129 0.04658 0.0
O392 O 0.1877 0.36453 0.06978 0.0
C393 C 0.20634 0.30942 0.09962 0.0
C394 C 0.2207 0.34455 0.9948 0.0
C395 C 0.21525 0.35319 0.16525 0.0
O396 O 0.19332 0.31769 0.10785 0.0
O397 O 0.21827 0.31759 0.08211 0.0
O398 O 0.22311 0.35564 0.12625 0.0
O399 O 0.20173 0.34551 0.16047 0.0
C400 C 0.17613 0.35671 0.0493 0.0
O401 O 0.22295 0.35474 0.02905 0.0
O402 O 0.21052 0.33313 0.00391 0.0
In403 In 0.40702 0.46688 0.81355 0.0
O404 O 0.39735 0.44037 0.80504 0.0
O405 O 0.38358 0.46035 0.77399 0.0
C406 C 0.43845 0.46192 0.84206 0.0
C407 C 0.41289 0.47818 0.72394 0.0
C408 C 0.39348 0.48283 0.88976 0.0
O409 O 0.42768 0.4506 0.84583 0.0
O410 O 0.43314 0.4755 0.82582 0.0
O411 O 0.40059 0.49036 0.85548 0.0
O412 O 0.39284 0.4673 0.88505 0.0
C413 C 0.38516 0.44491 0.77937 0.0
O414 O 0.40431 0.48633 0.75417 0.0
O415 O 0.41866 0.46466 0.73955 0.0
C416 C 0.10926 0.07779 0.93874 0.0
C417 C 0.11442 0.07499 0.89082 0.0
C418 C 0.11824 0.08828 0.96952 0.0
C419 C 0.13258 0.0963 0.95168 0.0
C420 C 0.13719 0.09441 0.90239 0.0
C421 C 0.12808 0.08367 0.87253 0.0
C422 C 0.11299 0.08993 0.02188 0.0
C423 C 0.15226 0.10302 0.88187 0.0
C424 C 0.15293 0.13138 0.02109 0.0
C425 C 0.16676 0.12332 0.041 0.0
C426 C 0.14137 0.12266 0.99299 0.0
C427 C 0.1436 0.10547 0.98535 0.0
C428 C 0.15698 0.0971 0.00788 0.0
C429 C 0.16849 0.10617 0.03518 0.0
C430 C 0.1273 0.132 0.96934 0.0
C431 C 0.15956 0.07869 0.00137 0.0
H432 H 0.09869 0.0711 0.95309 0.0
H433 H 0.13206 0.08158 0.83547 0.0
H434 H 0.12213 0.08354 0.04544 0.0
H435 H 0.11273 0.10315 0.03294 0.0
H436 H 0.10057 0.08443 0.0286 0.0
H437 H 0.15318 0.1016 0.84188 0.0
H438 H 0.15196 0.11643 0.89077 0.0
H439 H 0.16363 0.09776 0.89854 0.0
H440 H 0.15161 0.14468 0.02529 0.0
H441 H 0.17914 0.09992 0.05066 0.0
H442 H 0.11532 0.12567 0.97627 0.0
H443 H 0.12918 0.13222 0.92947 0.0
H444 H 0.12641 0.14498 0.98251 0.0
H445 H 0.14804 0.07185 0.01046 0.0
H446 H 0.1698 0.07387 0.02434 0.0
H447 H 0.16252 0.07599 0.96286 0.0
C448 C 0.10304 0.91585 0.20787 0.0
C449 C 0.11008 0.91972 0.253 0.0
C450 C 0.11113 0.90516 0.17548 0.0
C451 C 0.12648 0.89805 0.18894 0.0
C452 C 0.133 0.90096 0.23589 0.0
C453 C 0.12476 0.91186 0.2673 0.0
C454 C 0.10381 0.90241 0.12572 0.0
C455 C 0.14921 0.89335 0.25188 0.0
C456 C 0.14649 0.86271 0.11991 0.0
C457 C 0.15924 0.87104 0.09532 0.0
C458 C 0.13516 0.87142 0.14891 0.0
C459 C 0.13654 0.88885 0.15281 0.0
C460 C 0.14862 0.89741 0.12517 0.0
C461 C 0.15991 0.88838 0.09696 0.0
C462 C 0.12245 0.86187 0.17782 0.0
C463 C 0.15024 0.91605 0.12759 0.0
H464 H 0.09171 0.92195 0.19655 0.0
H465 H 0.1302 0.91478 0.30223 0.0
H466 H 0.11132 0.90917 0.0984 0.0
H467 H 0.10414 0.88908 0.11592 0.0
H468 H 0.09081 0.90688 0.12332 0.0
H469 H 0.15172 0.8955 0.29101 0.0
H470 H 0.14919 0.8798 0.24498 0.0
H471 H 0.15954 0.89879 0.23054 0.0
H472 H 0.14594 0.84929 0.11881 0.0
H473 H 0.1697 0.89486 0.07778 0.0
H474 H 0.11003 0.86764 0.17431 0.0
H475 H 0.12585 0.86219 0.21681 0.0
H476 H 0.12163 0.84871 0.16619 0.0
H477 H 0.13803 0.92203 0.12161 0.0
H478 H 0.15915 0.92092 0.10035 0.0
H479 H 0.15458 0.91974 0.16423 0.0
C480 C 0.36026 0.93374 0.40748 0.0
C481 C 0.37059 0.92766 0.37066 0.0
C482 C 0.34986 0.92312 0.43365 0.0
C483 C 0.34948 0.90607 0.42188 0.0
C484 C 0.35967 0.89987 0.38412 0.0
C485 C 0.3703 0.91075 0.35929 0.0
C486 C 0.33941 0.93015 0.47423 0.0
C487 C 0.35925 0.88181 0.36985 0.0
C488 C 0.33196 0.87646 0.51607 0.0
C489 C 0.31543 0.87528 0.50102 0.0
C490 C 0.34328 0.88639 0.49047 0.0
C491 C 0.33797 0.89491 0.44827 0.0
C492 C 0.32136 0.89344 0.43247 0.0
C493 C 0.31024 0.88382 0.45942 0.0
C494 C 0.36082 0.88801 0.50899 0.0
C495 C 0.31531 0.90206 0.38714 0.0
H496 H 0.36062 0.94679 0.41682 0.0
H497 H 0.37833 0.90605 0.3309 0.0
H498 H 0.32607 0.92839 0.46595 0.0
H499 H 0.34202 0.92343 0.50852 0.0
H500 H 0.34171 0.94357 0.48013 0.0
H501 H 0.36778 0.87902 0.33929 0.0
H502 H 0.36272 0.87396 0.40127 0.0
H503 H 0.34647 0.87827 0.35912 0.0
H504 H 0.33596 0.86981 0.54818 0.0
H505 H 0.2975 0.88272 0.44729 0.0
H506 H 0.3635 0.90118 0.51755 0.0
H507 H 0.36973 0.88411 0.48056 0.0
H508 H 0.36302 0.88045 0.54205 0.0
H509 H 0.31609 0.91569 0.39189 0.0
H510 H 0.30229 0.89877 0.37815 0.0
H511 H 0.32332 0.89874 0.35588 0.0
C512 C 0.38718 0.0915 0.73817 0.0
C513 C 0.37962 0.08106 0.77231 0.0
C514 C 0.37771 0.1024 0.70985 0.0
C515 C 0.36034 0.10306 0.71661 0.0
C516 C 0.35275 0.09306 0.75255 0.0
C517 C 0.36248 0.08204 0.77968 0.0
C518 C 0.3862 0.1127 0.67143 0.0
C519 C 0.33428 0.0937 0.76145 0.0
C520 C 0.33575 0.13991 0.67107 0.0
C521 C 0.32794 0.13323 0.63006 0.0
C522 C 0.34666 0.13035 0.69902 0.0
C523 C 0.34999 0.11381 0.68516 0.0
C524 C 0.34276 0.10726 0.64242 0.0
C525 C 0.33171 0.11704 0.61551 0.0
C526 C 0.35402 0.13771 0.74457 0.0
C527 C 0.34628 0.08974 0.62606 0.0
H528 H 0.40043 0.09066 0.73208 0.0
H529 H 0.35663 0.07398 0.80611 0.0
H530 H 0.38167 0.10896 0.63503 0.0
H531 H 0.38311 0.126 0.67619 0.0
H532 H 0.39989 0.11129 0.67228 0.0
H533 H 0.33048 0.08592 0.79279 0.0
H534 H 0.33031 0.10666 0.7683 0.0
H535 H 0.32758 0.08932 0.72873 0.0
H536 H 0.33283 0.15243 0.68256 0.0
H537 H 0.32571 0.11186 0.58375 0.0
H538 H 0.3677 0.1363 0.74444 0.0
H539 H 0.34926 0.13094 0.77673 0.0
H540 H 0.35097 0.15106 0.7487 0.0
H541 H 0.35985 0.08761 0.62397 0.0
H542 H 0.34072 0.08698 0.59009 0.0
H543 H 0.34121 0.08085 0.65293 0.0
C544 C 0.83598 0.87438 0.12335 0.0
C545 C 0.831 0.85884 0.14068 0.0
C546 C 0.84662 0.88446 0.15069 0.0
C547 C 0.85219 0.87891 0.19664 0.0
C548 C 0.84776 0.86294 0.21336 0.0
C549 C 0.83729 0.85304 0.18498 0.0
C550 C 0.85133 0.90133 0.13133 0.0
C551 C 0.85335 0.85666 0.26231 0.0
C552 C 0.88788 0.90246 0.25379 0.0
C553 C 0.87939 0.91407 0.28235 0.0
C554 C 0.87921 0.89062 0.22651 0.0
C555 C 0.86169 0.8903 0.22846 0.0
C556 C 0.85312 0.90145 0.2592 0.0
C557 C 0.86208 0.9133 0.28556 0.0
C558 C 0.88875 0.87899 0.1939 0.0
C559 C 0.83444 0.90128 0.26287 0.0
H560 H 0.83118 0.87886 0.08904 0.0
H561 H 0.83343 0.84104 0.1986 0.0
H562 H 0.84567 0.91111 0.15427 0.0
H563 H 0.86497 0.90302 0.13289 0.0
H564 H 0.84715 0.90318 0.09331 0.0
H565 H 0.84998 0.84346 0.26818 0.0
H566 H 0.86697 0.85799 0.26618 0.0
H567 H 0.84753 0.86421 0.29133 0.0
H568 H 0.90127 0.90308 0.25104 0.0
H569 H 0.8555 0.92224 0.30772 0.0
H570 H 0.88588 0.88184 0.15543 0.0
H571 H 0.88495 0.86597 0.20055 0.0
H572 H 0.90236 0.88 0.19926 0.0
H573 H 0.82895 0.90484 0.22747 0.0
H574 H 0.82977 0.90994 0.29106 0.0
H575 H 0.82999 0.8886 0.2715 0.0
C576 C 0.86166 0.07929 0.85499 0.0
C577 C 0.87899 0.07923 0.85783 0.0
C578 C 0.8523 0.09111 0.88026 0.0
C579 C 0.8605 0.10303 0.90934 0.0
C580 C 0.87803 0.10362 0.91009 0.0
C581 C 0.88708 0.09173 0.88408 0.0
C582 C 0.83361 0.09027 0.87792 0.0
C583 C 0.88719 0.11616 0.94062 0.0
C584 C 0.83383 0.13861 0.95362 0.0
C585 C 0.82843 0.13256 0.99866 0.0
C586 C 0.84484 0.12945 0.92481 0.0
C587 C 0.85066 0.11396 0.94171 0.0
C588 C 0.84602 0.10826 0.98841 0.0
C589 C 0.83489 0.11762 0.01629 0.0
C590 C 0.84949 0.13591 0.87523 0.0
C591 C 0.85216 0.09188 0.00794 0.0
H592 H 0.85536 0.06968 0.83456 0.0
H593 H 0.9005 0.09171 0.88646 0.0
H594 H 0.82863 0.08654 0.91383 0.0
H595 H 0.82838 0.10264 0.86923 0.0
H596 H 0.8292 0.08124 0.85036 0.0
H597 H 0.90072 0.11618 0.93299 0.0
H598 H 0.88225 0.1288 0.93426 0.0
H599 H 0.88533 0.11326 0.97959 0.0
H600 H 0.82886 0.15017 0.93979 0.0
H601 H 0.83079 0.11294 0.05114 0.0
H602 H 0.84361 0.12808 0.84698 0.0
H603 H 0.86309 0.1352 0.86972 0.0
H604 H 0.84543 0.14893 0.86971 0.0
H605 H 0.84698 0.0816 0.98592 0.0
H606 H 0.84855 0.08992 0.0464 0.0
H607 H 0.86586 0.09118 0.00513 0.0
C608 C 0.65846 0.14242 0.64808 0.0
C609 C 0.66619 0.13458 0.60868 0.0
C610 C 0.64744 0.13373 0.6781 0.0
C611 C 0.64407 0.11687 0.66825 0.0
C612 C 0.65085 0.10928 0.62637 0.0
C613 C 0.66187 0.11825 0.59704 0.0
C614 C 0.64036 0.14228 0.72219 0.0
C615 C 0.64737 0.09135 0.61435 0.0
C616 C 0.63557 0.08699 0.77116 0.0
C617 C 0.6185 0.08433 0.76623 0.0
C618 C 0.64392 0.0981 0.74066 0.0
C619 C 0.63496 0.10664 0.7042 0.0
C620 C 0.6176 0.10462 0.70057 0.0
C621 C 0.60954 0.0935 0.73182 0.0
C622 C 0.66244 0.10012 0.74606 0.0
C623 C 0.60766 0.11353 0.66219 0.0
H624 H 0.6617 0.15509 0.65712 0.0
H625 H 0.66776 0.11217 0.5665 0.0
H626 H 0.62689 0.13977 0.72552 0.0
H627 H 0.64643 0.13735 0.7553 0.0
H628 H 0.6423 0.15591 0.72105 0.0
H629 H 0.65212 0.08786 0.57793 0.0
H630 H 0.65334 0.08325 0.64178 0.0
H631 H 0.63385 0.08887 0.6156 0.0
H632 H 0.64251 0.07996 0.79781 0.0
H633 H 0.59633 0.09146 0.7278 0.0
H634 H 0.66569 0.11344 0.74938 0.0
H635 H 0.66877 0.0953 0.71322 0.0
H636 H 0.66736 0.09345 0.77824 0.0
H637 H 0.6106 0.12696 0.66224 0.0
H638 H 0.5941 0.11197 0.66747 0.0
H639 H 0.611 0.10863 0.62589 0.0
C640 C 0.64426 0.93649 0.39177 0.0
C641 C 0.63159 0.92937 0.3639 0.0
C642 C 0.65425 0.92674 0.42189 0.0
C643 C 0.65187 0.90938 0.4229 0.0
C644 C 0.63973 0.90199 0.39271 0.0
C645 C 0.6295 0.91214 0.3641 0.0
C646 C 0.6668 0.93512 0.45435 0.0
C647 C 0.63727 0.88345 0.39158 0.0
C648 C 0.6876 0.88465 0.47465 0.0
C649 C 0.68164 0.88062 0.52092 0.0
C650 C 0.67781 0.89354 0.44179 0.0
C651 C 0.66194 0.89907 0.45634 0.0
C652 C 0.65597 0.89527 0.50345 0.0
C653 C 0.66579 0.88573 0.53493 0.0
C654 C 0.68436 0.89682 0.39134 0.0
C655 C 0.63931 0.90143 0.52072 0.0
H656 H 0.64576 0.94985 0.39226 0.0
H657 H 0.61966 0.90664 0.34266 0.0
H658 H 0.66378 0.93254 0.4929 0.0
H659 H 0.67937 0.93007 0.44742 0.0
H660 H 0.66714 0.94876 0.44898 0.0
H661 H 0.62842 0.87958 0.36284 0.0
H662 H 0.64929 0.8771 0.38538 0.0
H663 H 0.63245 0.87915 0.4271 0.0
H664 H 0.69975 0.88033 0.46348 0.0
H665 H 0.66121 0.88246 0.57065 0.0
H666 H 0.68582 0.91034 0.38555 0.0
H667 H 0.67539 0.89226 0.36389 0.0
H668 H 0.69652 0.89074 0.38485 0.0
H669 H 0.63882 0.91516 0.51811 0.0
H670 H 0.63669 0.89777 0.5588 0.0
H671 H 0.62934 0.89647 0.49716 0.0
C672 C 0.65372 0.63813 0.48618 0.0
C673 C 0.66643 0.63066 0.51309 0.0
C674 C 0.64222 0.62846 0.46059 0.0
C675 C 0.64336 0.61098 0.46285 0.0
C676 C 0.65558 0.60341 0.49231 0.0
C677 C 0.66709 0.61337 0.51673 0.0
C678 C 0.62944 0.63693 0.42918 0.0
C679 C 0.65694 0.58479 0.4965 0.0
C680 C 0.60805 0.58299 0.42479 0.0
C681 C 0.614 0.57678 0.38056 0.0
C682 C 0.61716 0.59469 0.45122 0.0
C683 C 0.63242 0.60046 0.43251 0.0
C684 C 0.63797 0.595 0.38643 0.0
C685 C 0.62873 0.58308 0.36113 0.0
C686 C 0.61095 0.60008 0.50044 0.0
C687 C 0.65405 0.60114 0.36494 0.0
H688 H 0.65329 0.65152 0.48305 0.0
H689 H 0.67689 0.6076 0.53772 0.0
H690 H 0.63216 0.63437 0.39044 0.0
H691 H 0.61689 0.63196 0.43685 0.0
H692 H 0.62928 0.65057 0.43467 0.0
H693 H 0.66626 0.58094 0.52394 0.0
H694 H 0.64476 0.57938 0.50652 0.0
H695 H 0.66053 0.57946 0.46092 0.0
H696 H 0.59666 0.57811 0.44001 0.0
H697 H 0.6333 0.57836 0.32682 0.0
H698 H 0.61134 0.61377 0.50379 0.0
H699 H 0.61915 0.59492 0.52902 0.0
H700 H 0.59808 0.5958 0.50749 0.0
H701 H 0.65456 0.61488 0.36616 0.0
H702 H 0.65571 0.59705 0.32676 0.0
H703 H 0.66462 0.59641 0.38667 0.0
C704 C 0.6298 0.40829 0.77983 0.0
C705 C 0.61419 0.4143 0.76628 0.0
C706 C 0.63878 0.39783 0.74886 0.0
C707 C 0.63203 0.39346 0.70316 0.0
C708 C 0.61588 0.39871 0.69057 0.0
C709 C 0.6071 0.40902 0.72245 0.0
C710 C 0.65589 0.39222 0.76388 0.0
C711 C 0.60828 0.39436 0.64216 0.0
C712 C 0.66494 0.38586 0.60801 0.0
C713 C 0.66604 0.36854 0.6084 0.0
C714 C 0.65323 0.39411 0.63678 0.0
C715 C 0.64255 0.38477 0.66705 0.0
C716 C 0.64293 0.36725 0.66534 0.0
C717 C 0.65464 0.35932 0.63572 0.0
C718 C 0.65295 0.41283 0.63685 0.0
C719 C 0.63174 0.3569 0.69712 0.0
H720 H 0.63528 0.41229 0.81376 0.0
H721 H 0.59502 0.41364 0.71178 0.0
H722 H 0.6572 0.37864 0.75881 0.0
H723 H 0.66531 0.39832 0.74058 0.0
H724 H 0.65865 0.39529 0.80233 0.0
H725 H 0.59491 0.39759 0.64048 0.0
H726 H 0.61484 0.4012 0.61298 0.0
H727 H 0.60971 0.38094 0.6345 0.0
H728 H 0.67369 0.39302 0.58673 0.0
H729 H 0.6555 0.34591 0.63626 0.0
H730 H 0.65738 0.41748 0.67244 0.0
H731 H 0.64011 0.41744 0.63175 0.0
H732 H 0.66093 0.41817 0.60795 0.0
H733 H 0.63568 0.35815 0.7355 0.0
H734 H 0.63212 0.34356 0.68716 0.0
H735 H 0.61874 0.36131 0.69473 0.0
C736 C 0.89267 0.40625 0.91379 0.0
C737 C 0.88571 0.41166 0.86992 0.0
C738 C 0.8836 0.39631 0.94597 0.0
C739 C 0.86728 0.39153 0.93358 0.0
C740 C 0.86056 0.39614 0.88804 0.0
C741 C 0.86984 0.40627 0.85684 0.0
C742 C 0.89112 0.39173 0.9943 0.0
C743 C 0.84328 0.39103 0.87322 0.0
C744 C 0.84419 0.35748 1.00001 0.0
C745 C 0.83294 0.36676 0.02767 0.0
C746 C 0.856 0.36535 0.97059 0.0
C747 C 0.85666 0.38287 0.96952 0.0
C748 C 0.84613 0.39224 0.00015 0.0
C749 C 0.8343 0.38406 0.02864 0.0
C750 C 0.86698 0.35496 0.93832 0.0
C751 C 0.84671 0.41095 0.00077 0.0
H752 H 0.90495 0.41043 0.92413 0.0
H753 H 0.86446 0.41038 0.82287 0.0
H754 H 0.88456 0.39848 0.02367 0.0
H755 H 0.88962 0.37829 0.00147 0.0
H756 H 0.90451 0.39488 0.99623 0.0
H757 H 0.84048 0.39436 0.83498 0.0
H758 H 0.84167 0.37746 0.87773 0.0
H759 H 0.83407 0.39721 0.89703 0.0
H760 H 0.84312 0.34409 0.999 0.0
H761 H 0.82565 0.39126 0.05019 0.0
H762 H 0.88006 0.35909 0.94093 0.0
H763 H 0.86308 0.35653 0.89999 0.0
H764 H 0.86633 0.34157 0.9476 0.0
H765 H 0.85964 0.41533 0.00568 0.0
H766 H 0.8389 0.41629 0.03009 0.0
H767 H 0.84224 0.41584 0.96548 0.0
C768 C 0.83136 0.61017 0.09771 0.0
C769 C 0.81513 0.6138 0.11215 0.0
C770 C 0.84152 0.59993 0.12627 0.0
C771 C 0.83537 0.5936 0.17075 0.0
C772 C 0.81902 0.59738 0.18558 0.0
C773 C 0.80903 0.60725 0.15578 0.0
C774 C 0.85877 0.59582 0.10883 0.0
C775 C 0.81214 0.59116 0.2332 0.0
C776 C 0.85498 0.55506 0.22416 0.0
C777 C 0.86619 0.56182 0.25761 0.0
C778 C 0.84494 0.56529 0.19551 0.0
C779 C 0.84585 0.58268 0.20133 0.0
C780 C 0.8567 0.58957 0.23635 0.0
C781 C 0.86693 0.57904 0.26373 0.0
C782 C 0.83372 0.55749 0.15803 0.0
C783 C 0.85766 0.60806 0.24438 0.0
H784 H 0.83608 0.61527 0.06405 0.0
H785 H 0.79654 0.61024 0.16741 0.0
H786 H 0.86807 0.60028 0.13544 0.0
H787 H 0.86026 0.58217 0.10597 0.0
H788 H 0.86155 0.60145 0.07296 0.0
H789 H 0.79937 0.59572 0.24017 0.0
H790 H 0.81195 0.57741 0.23344 0.0
H791 H 0.82025 0.59518 0.26352 0.0
H792 H 0.85451 0.54175 0.21889 0.0
H793 H 0.87562 0.58427 0.28951 0.0
H794 H 0.83702 0.56215 0.12139 0.0
H795 H 0.82065 0.56105 0.16495 0.0
H796 H 0.83458 0.54375 0.15787 0.0
H797 H 0.86211 0.61425 0.2109 0.0
H798 H 0.86611 0.61136 0.27468 0.0
H799 H 0.84514 0.61307 0.25243 0.0
C800 C 0.33789 0.3783 0.61345 0.0
C801 C 0.32081 0.38093 0.6181 0.0
C802 C 0.34924 0.38829 0.63868 0.0
C803 C 0.34325 0.40076 0.67033 0.0
C804 C 0.326 0.40338 0.6752 0.0
C805 C 0.31499 0.39359 0.64842 0.0
C806 C 0.36758 0.38554 0.63148 0.0
C807 C 0.31912 0.41632 0.70935 0.0
C808 C 0.37085 0.41759 0.77052 0.0
C809 C 0.37476 0.43325 0.75205 0.0
C810 C 0.3607 0.40671 0.74404 0.0
C811 C 0.35493 0.41149 0.69751 0.0
C812 C 0.35945 0.42707 0.67808 0.0
C813 C 0.36907 0.43788 0.70598 0.0
C814 C 0.35573 0.39037 0.76639 0.0
C815 C 0.35396 0.43242 0.62807 0.0
H816 H 0.34236 0.36845 0.59008 0.0
H817 H 0.30176 0.39546 0.65266 0.0
H818 H 0.37354 0.39721 0.61914 0.0
H819 H 0.37345 0.38206 0.66639 0.0
H820 H 0.37019 0.37567 0.60445 0.0
H821 H 0.30536 0.41624 0.71056 0.0
H822 H 0.32391 0.41419 0.74657 0.0
H823 H 0.32328 0.42884 0.69797 0.0
H824 H 0.37534 0.41406 0.80612 0.0
H825 H 0.3724 0.44991 0.69135 0.0
H826 H 0.35922 0.37999 0.74208 0.0
H827 H 0.34206 0.38995 0.77085 0.0
H828 H 0.36159 0.38835 0.80237 0.0
H829 H 0.35705 0.4227 0.60104 0.0
H830 H 0.35984 0.44424 0.61662 0.0
H831 H 0.34031 0.43407 0.62747 0.0
C832 C 0.33812 0.62257 0.52515 0.0
C833 C 0.32121 0.61864 0.52565 0.0
C834 C 0.34947 0.61264 0.49967 0.0
C835 C 0.34362 0.59878 0.47322 0.0
C836 C 0.32662 0.59452 0.47481 0.0
C837 C 0.31565 0.60439 0.50154 0.0
C838 C 0.3676 0.61724 0.49994 0.0
C839 C 0.31987 0.57996 0.44654 0.0
C840 C 0.36833 0.58333 0.36497 0.0
C841 C 0.37514 0.5687 0.38358 0.0
C842 C 0.35812 0.59337 0.39396 0.0
C843 C 0.35514 0.58885 0.44291 0.0
C844 C 0.36247 0.57436 0.46218 0.0
C845 C 0.37219 0.56434 0.43205 0.0
C846 C 0.35018 0.60855 0.37193 0.0
C847 C 0.35992 0.56936 0.51447 0.0
H848 H 0.34243 0.6336 0.54375 0.0
H849 H 0.30255 0.60139 0.50145 0.0
H850 H 0.37525 0.60634 0.5101 0.0
H851 H 0.37148 0.6211 0.46302 0.0
H852 H 0.37032 0.62752 0.52554 0.0
H853 H 0.30635 0.57821 0.45214 0.0
H854 H 0.32219 0.58184 0.40724 0.0
H855 H 0.32634 0.5684 0.45731 0.0
H856 H 0.37065 0.58668 0.3275 0.0
H857 H 0.37768 0.55313 0.44669 0.0
H858 H 0.35362 0.61974 0.39298 0.0
H859 H 0.33648 0.60739 0.37358 0.0
H860 H 0.3539 0.61043 0.33352 0.0
H861 H 0.36316 0.5798 0.53888 0.0
H862 H 0.36751 0.55841 0.52469 0.0
H863 H 0.34668 0.56636 0.52082 0.0
C864 C 0.1093 0.59433 0.25032 0.0
C865 C 0.11768 0.58225 0.27747 0.0
C866 C 0.1181 0.60589 0.22233 0.0
C867 C 0.13563 0.60541 0.22214 0.0
C868 C 0.14411 0.59405 0.25243 0.0
C869 C 0.13502 0.58253 0.27955 0.0
C870 C 0.10864 0.61781 0.19048 0.0
C871 C 0.16282 0.59339 0.25394 0.0
C872 C 0.1604 0.61784 0.1113 0.0
C873 C 0.16687 0.63316 0.12582 0.0
C874 C 0.14953 0.60904 0.14148 0.0
C875 C 0.14518 0.61568 0.18734 0.0
C876 C 0.15106 0.63149 0.20116 0.0
C877 C 0.1618 0.64009 0.1701 0.0
C878 C 0.1433 0.59227 0.12524 0.0
C879 C 0.14673 0.63894 0.24979 0.0
H880 H 0.09588 0.59411 0.24849 0.0
H881 H 0.14151 0.57325 0.30074 0.0
H882 H 0.11368 0.63054 0.19402 0.0
H883 H 0.11005 0.61408 0.15197 0.0
H884 H 0.09521 0.61806 0.19939 0.0
H885 H 0.16746 0.58501 0.2829 0.0
H886 H 0.1676 0.5889 0.21855 0.0
H887 H 0.16801 0.60595 0.26001 0.0
H888 H 0.16424 0.61249 0.07702 0.0
H889 H 0.16677 0.65195 0.18149 0.0
H890 H 0.12962 0.59161 0.1289 0.0
H891 H 0.14864 0.58247 0.14877 0.0
H892 H 0.14668 0.58952 0.08701 0.0
H893 H 0.13317 0.63835 0.25616 0.0
H894 H 0.15081 0.65205 0.25282 0.0
H895 H 0.15279 0.63169 0.27902 0.0
C896 C 0.10771 0.40718 0.8974 0.0
C897 C 0.11684 0.4164 0.86353 0.0
C898 C 0.11556 0.39579 0.92819 0.0
C899 C 0.13288 0.39341 0.92427 0.0
C900 C 0.14195 0.40185 0.88784 0.0
C901 C 0.13383 0.41339 0.85816 0.0
C902 C 0.10552 0.38715 0.96688 0.0
C903 C 0.16039 0.39932 0.88183 0.0
C904 C 0.15938 0.38195 0.03233 0.0
C905 C 0.16271 0.36522 0.02305 0.0
C906 C 0.14886 0.39104 0.00187 0.0
C907 C 0.14182 0.38325 0.96068 0.0
C908 C 0.14447 0.36614 0.95255 0.0
C909 C 0.15479 0.35727 0.98422 0.0
C910 C 0.14597 0.40918 0.01238 0.0
C911 C 0.13735 0.35747 0.90873 0.0
H912 H 0.09456 0.40953 0.90179 0.0
H913 H 0.14089 0.42045 0.83182 0.0
H914 H 0.10824 0.37368 0.96728 0.0
H915 H 0.10897 0.39214 0.003 0.0
H916 H 0.09197 0.38892 0.96166 0.0
H917 H 0.16525 0.40546 0.84868 0.0
H918 H 0.16699 0.40446 0.91377 0.0
H919 H 0.16333 0.3859 0.87994 0.0
H920 H 0.16546 0.38808 0.06247 0.0
H921 H 0.15744 0.34434 0.97676 0.0
H922 H 0.13253 0.41207 0.01112 0.0
H923 H 0.15214 0.41683 0.9842 0.0
H924 H 0.15088 0.41289 0.04843 0.0
H925 H 0.12395 0.36027 0.90488 0.0
H926 H 0.13898 0.34382 0.91062 0.0
H927 H 0.14362 0.36208 0.87553 0.0
C928 C 0.21835 0.15785 0.90376 0.0
C929 C 0.22785 0.15181 0.94257 0.0
C930 C 0.22456 0.15788 0.85633 0.0
C931 C 0.24073 0.15182 0.84745 0.0
C932 C 0.25033 0.14549 0.88634 0.0
C933 C 0.24374 0.14552 0.93355 0.0
C934 C 0.21392 0.16465 0.81583 0.0
C935 C 0.26767 0.13903 0.8782 0.0
C936 C 0.25258 0.1412 0.71755 0.0
C937 C 0.26082 0.15568 0.70316 0.0
C938 C 0.24595 0.13973 0.76451 0.0
C939 C 0.24785 0.15296 0.79783 0.0
C940 C 0.25616 0.16759 0.78337 0.0
C941 C 0.26244 0.16881 0.73613 0.0
C942 C 0.23693 0.12404 0.77848 0.0
C943 C 0.25853 0.18193 0.81793 0.0
H944 H 0.206 0.16264 0.91044 0.0
H945 H 0.25109 0.14081 0.96343 0.0
H946 H 0.21986 0.17581 0.8 0.0
H947 H 0.21276 0.15536 0.78637 0.0
H948 H 0.20129 0.16808 0.82843 0.0
H949 H 0.27325 0.13394 0.91189 0.0
H950 H 0.26756 0.12917 0.85016 0.0
H951 H 0.2757 0.14916 0.8645 0.0
H952 H 0.25135 0.13101 0.69219 0.0
H953 H 0.26893 0.17999 0.72533 0.0
H954 H 0.22405 0.12702 0.78958 0.0
H955 H 0.2431 0.11819 0.8101 0.0
H956 H 0.23649 0.11492 0.74832 0.0
H957 H 0.2463 0.18674 0.82981 0.0
H958 H 0.26564 0.19227 0.80134 0.0
H959 H 0.26519 0.17768 0.85088 0.0
C960 C 0.10355 4e-05 0.17144 0.0
C961 C 0.11191 0.98653 0.19183 0.0
C962 C 0.10543 0.00396 0.12219 0.0
C963 C 0.11572 0.99393 0.09258 0.0
C964 C 0.12489 0.98082 0.11358 0.0
C965 C 0.12298 0.97736 0.16315 0.0
C966 C 0.09569 0.01826 0.1013 0.0
C967 C 0.13587 0.96978 0.08319 0.0
C968 C 0.10115 0.99336 0.96212 0.0
C969 C 0.11159 0.0052 0.94101 0.0
C970 C 0.10309 0.98875 0.01084 0.0
C971 C 0.11561 0.99637 0.03916 0.0
C972 C 0.12686 0.00752 0.01715 0.0
C973 C 0.12479 0.01172 0.96813 0.0
C974 C 0.09105 0.97652 0.03278 0.0
C975 C 0.1403 0.01597 0.04614 0.0
H976 H 0.09502 0.00717 0.19356 0.0
H977 H 0.12939 0.96681 0.1787 0.0
H978 H 0.10392 0.02646 0.07975 0.0
H979 H 0.08599 0.01345 0.07645 0.0
H980 H 0.08957 0.02579 0.12991 0.0
H981 H 0.1436 0.96139 0.10581 0.0
H982 H 0.12806 0.96206 0.05896 0.0
H983 H 0.14413 0.9773 0.05977 0.0
H984 H 0.09098 0.98826 0.94119 0.0
H985 H 0.13286 0.02095 0.95202 0.0
H986 H 0.08273 0.98307 0.05847 0.0
H987 H 0.0978 0.96688 0.05361 0.0
H988 H 0.08331 0.97034 0.0048 0.0
H989 H 0.13459 0.02517 0.07099 0.0
H990 H 0.14933 0.02253 0.02252 0.0
H991 H 0.14708 0.00687 0.06885 0.0
C992 C 0.23404 0.85327 0.20695 0.0
C993 C 0.21996 0.84402 0.19466 0.0
C994 C 0.24044 0.85289 0.25436 0.0
C995 C 0.2326 0.84295 0.29001 0.0
C996 C 0.21831 0.83371 0.27782 0.0
C997 C 0.21214 0.83439 0.23035 0.0
C998 C 0.25568 0.86298 0.26618 0.0
C999 C 0.20967 0.82288 0.31471 0.0
C1000 C 0.25865 0.82869 0.39665 0.0
C1001 C 0.2537 0.83972 0.43317 0.0
C1002 C 0.25174 0.82951 0.35006 0.0
C1003 C 0.23967 0.84173 0.33967 0.0
C1004 C 0.23437 0.8527 0.37665 0.0
C1005 C 0.24142 0.85152 0.42312 0.0
C1006 C 0.25757 0.81745 0.31175 0.0
C1007 C 0.22153 0.8659 0.36684 0.0
H1008 H 0.24009 0.86077 0.17952 0.0
H1009 H 0.20124 0.8272 0.22109 0.0
H1010 H 0.2531 0.87137 0.29715 0.0
H1011 H 0.26591 0.85462 0.27738 0.0
H1012 H 0.25994 0.87053 0.23488 0.0
H1013 H 0.19844 0.81679 0.29968 0.0
H1014 H 0.21829 0.81313 0.32773 0.0
H1015 H 0.20599 0.83037 0.3467 0.0
H1016 H 0.26814 0.81954 0.40427 0.0
H1017 H 0.23764 0.86015 0.45117 0.0
H1018 H 0.26332 0.82432 0.28121 0.0
H1019 H 0.24685 0.8105 0.29683 0.0
H1020 H 0.26674 0.80842 0.32608 0.0
H1021 H 0.22609 0.87445 0.33828 0.0
H1022 H 0.21853 0.87326 0.39976 0.0
H1023 H 0.20996 0.86015 0.35307 0.0
C1024 C 0.42161 0.02189 0.65915 0.0
C1025 C 0.40889 0.01781 0.69172 0.0
C1026 C 0.42185 0.01542 0.61202 0.0
C1027 C 0.40904 0.00462 0.59704 0.0
C1028 C 0.3962 0.00034 0.62982 0.0
C1029 C 0.39629 0.00699 0.67693 0.0
C1030 C 0.4358 0.02019 0.57821 0.0
C1031 C 0.38234 0.98883 0.61502 0.0
C1032 C 0.40194 -0.00062 0.46163 0.0
C1033 C 0.40999 0.98429 0.45273 0.0
C1034 C 0.40147 0.00614 0.50856 0.0
C1035 C 0.40927 0.9976 0.54724 0.0
C1036 C 0.41758 0.98248 0.53825 0.0
C1037 C 0.41783 0.976 0.49111 0.0
C1038 C 0.39251 0.02232 0.51686 0.0
C1039 C 0.42615 0.97308 0.57849 0.0
H1040 H 0.43139 0.03027 0.6704 0.0
H1041 H 0.38641 0.00386 0.70195 0.0
H1042 H 0.44252 0.00893 0.56607 0.0
H1043 H 0.43072 0.02628 0.54534 0.0
H1044 H 0.44482 0.02875 0.59554 0.0
H1045 H 0.37326 0.98679 0.64473 0.0
H1046 H 0.3757 0.994 0.5832 0.0
H1047 H 0.38751 0.97666 0.60392 0.0
H1048 H 0.3958 0.00577 0.43209 0.0
H1049 H 0.42405 0.96431 0.48443 0.0
H1050 H 0.40118 0.03164 0.53208 0.0
H1051 H 0.38244 0.02054 0.54378 0.0
H1052 H 0.38705 0.02738 0.48295 0.0
H1053 H 0.43579 0.98099 0.59544 0.0
H1054 H 0.43209 0.96149 0.56538 0.0
H1055 H 0.41708 0.96985 0.60723 0.0
C1056 C 0.76195 0.82153 0.23648 0.0
C1057 C 0.76357 0.83604 0.20884 0.0
C1058 C 0.75583 0.82205 0.28406 0.0
C1059 C 0.75108 0.83744 0.30437 0.0
C1060 C 0.75229 0.85209 0.27625 0.0
C1061 C 0.7586 0.85122 0.2288 0.0
C1062 C 0.75474 0.80616 0.31289 0.0
C1063 C 0.74712 0.86869 0.29652 0.0
C1064 C 0.72178 0.83611 0.41184 0.0
C1065 C 0.73258 0.83884 0.45093 0.0
C1066 C 0.72761 0.83584 0.36398 0.0
C1067 C 0.74472 0.83812 0.35496 0.0
C1068 C 0.75573 0.84072 0.39429 0.0
C1069 C 0.7495 0.84117 0.4419 0.0
C1070 C 0.71544 0.83324 0.32304 0.0
C1071 C 0.77409 0.84299 0.38603 0.0
H1072 H 0.76583 0.80976 0.22133 0.0
H1073 H 0.75987 0.86247 0.20762 0.0
H1074 H 0.76247 0.80715 0.34604 0.0
H1075 H 0.74178 0.80403 0.32483 0.0
H1076 H 0.75892 0.79521 0.29173 0.0
H1077 H 0.74841 0.87883 0.26952 0.0
H1078 H 0.73403 0.86818 0.30877 0.0
H1079 H 0.75479 0.87175 0.32868 0.0
H1080 H 0.70864 0.83447 0.41854 0.0
H1081 H 0.75786 0.84333 0.47201 0.0
H1082 H 0.71875 0.82191 0.3024 0.0
H1083 H 0.71604 0.84382 0.29737 0.0
H1084 H 0.70248 0.83198 0.33618 0.0
H1085 H 0.77922 0.832 0.36704 0.0
H1086 H 0.78101 0.84478 0.42048 0.0
H1087 H 0.77628 0.85389 0.36234 0.0
C1088 C 0.90502 0.02537 0.00223 0.0
C1089 C 0.89866 0.01671 0.96226 0.0
C1090 C 0.90425 0.01867 0.04905 0.0
C1091 C 0.89689 0.00295 0.05609 0.0
C1092 C 0.88987 0.9944 0.01616 0.0
C1093 C 0.89087 0.00138 0.96957 0.0
C1094 C 0.91193 0.02814 0.09064 0.0
C1095 C 0.88184 0.97763 0.02242 0.0
C1096 C 0.91309 0.97784 0.16195 0.0
C1097 C 0.90077 0.98036 0.19704 0.0
C1098 C 0.91185 0.985 0.11584 0.0
C1099 C 0.89789 0.99487 0.10441 0.0
C1100 C 0.88534 0.99743 0.13958 0.0
C1101 C 0.88696 0.99016 0.18568 0.0
C1102 C 0.92557 0.98209 0.07948 0.0
C1103 C 0.87027 0.00785 0.1285 0.0
H1104 H 0.91097 0.03727 0.99684 0.0
H1105 H 0.88585 0.9947 0.93879 0.0
H1106 H 0.90294 0.02937 0.12088 0.0
H1107 H 0.92279 0.02122 0.10476 0.0
H1108 H 0.91608 0.04073 0.07968 0.0
H1109 H 0.87567 0.97331 0.98869 0.0
H1110 H 0.89137 0.96838 0.03293 0.0
H1111 H 0.87253 0.97806 0.05201 0.0
H1112 H 0.92379 0.97026 0.17054 0.0
H1113 H 0.87737 0.99206 0.21266 0.0
H1114 H 0.93122 0.9941 0.06891 0.0
H1115 H 0.92045 0.97638 0.04609 0.0
H1116 H 0.93547 0.9739 0.09394 0.0
H1117 H 0.87412 0.02071 0.11963 0.0
H1118 H 0.86143 0.00827 0.15936 0.0
H1119 H 0.86376 0.00286 0.09622 0.0
C1120 C 0.74745 0.15546 0.91571 0.0
C1121 C 0.75943 0.14441 0.93318 0.0
C1122 C 0.74186 0.1545 0.86757 0.0
C1123 C 0.74874 0.14248 0.83597 0.0
C1124 C 0.7605 0.13099 0.85389 0.0
C1125 C 0.76556 0.13197 0.90249 0.0
C1126 C 0.72899 0.16672 0.85012 0.0
C1127 C 0.76834 0.11819 0.82116 0.0
C1128 C 0.72623 0.1337 0.7178 0.0
C1129 C 0.73423 0.14462 0.68586 0.0
C1130 C 0.73095 0.13268 0.76668 0.0
C1131 C 0.74426 0.14253 0.78365 0.0
C1132 C 0.75288 0.153 0.75096 0.0
C1133 C 0.74761 0.15408 0.70253 0.0
C1134 C 0.72123 0.12165 0.80059 0.0
C1135 C 0.7674 0.16339 0.76744 0.0
H1136 H 0.74269 0.16507 0.93941 0.0
H1137 H 0.77496 0.12351 0.91576 0.0
H1138 H 0.73459 0.1752 0.82301 0.0
H1139 H 0.71866 0.16009 0.83192 0.0
H1140 H 0.72382 0.17428 0.88021 0.0
H1141 H 0.77661 0.1096 0.84131 0.0
H1142 H 0.75866 0.11081 0.8025 0.0
H1143 H 0.77573 0.12451 0.79266 0.0
H1144 H 0.71574 0.1265 0.70513 0.0
H1145 H 0.7538 0.16253 0.67786 0.0
H1146 H 0.71502 0.12934 0.82858 0.0
H1147 H 0.72967 0.11301 0.81982 0.0
H1148 H 0.71165 0.11428 0.78127 0.0
H1149 H 0.76311 0.17284 0.79384 0.0
H1150 H 0.77357 0.16984 0.73676 0.0
H1151 H 0.77667 0.1555 0.7862 0.0
C1152 C 0.61632 0.01118 0.68101 0.0
C1153 C 0.60188 0.01085 0.70931 0.0
C1154 C 0.61644 0.00456 0.63391 0.0
C1155 C 0.60172 0.99766 0.6146 0.0
C1156 C 0.5873 0.9967 0.64376 0.0
C1157 C 0.5876 0.0032 0.69092 0.0
C1158 C 0.63214 0.00549 0.60422 0.0
C1159 C 0.57134 0.98949 0.62438 0.0
C1160 C 0.5956 0.9977 0.4779 0.0
C1161 C 0.59839 0.98102 0.46659 0.0
C1162 C 0.59676 0.00332 0.526 0.0
C1163 C 0.60113 0.99203 0.5633 0.0
C1164 C 0.60439 0.97527 0.55176 0.0
C1165 C 0.60283 0.96993 0.5036 0.0
C1166 C 0.59301 0.02127 0.53706 0.0
C1167 C 0.60938 0.96293 0.59031 0.0
H1168 H 0.62739 0.01708 0.6951 0.0
H1169 H 0.57637 0.00298 0.71255 0.0
H1170 H 0.63517 0.99315 0.58885 0.0
H1171 H 0.63031 0.0141 0.57329 0.0
H1172 H 0.64288 0.0099 0.62591 0.0
H1173 H 0.56143 0.98906 0.65235 0.0
H1174 H 0.56689 0.99708 0.59343 0.0
H1175 H 0.57346 0.97676 0.6106 0.0
H1176 H 0.59216 0.00627 0.44932 0.0
H1177 H 0.60519 0.95704 0.49486 0.0
H1178 H 0.6038 0.02713 0.55516 0.0
H1179 H 0.58238 0.02206 0.5625 0.0
H1180 H 0.58998 0.02848 0.50389 0.0
H1181 H 0.62033 0.96756 0.61051 0.0
H1182 H 0.61239 0.95058 0.57487 0.0
H1183 H 0.59917 0.96143 0.61691 0.0
C1184 C 0.73959 0.6485 0.39987 0.0
C1185 C 0.72536 0.6576 0.41169 0.0
C1186 C 0.74557 0.64814 0.35204 0.0
C1187 C 0.73709 0.65711 0.31544 0.0
C1188 C 0.72265 0.66619 0.32717 0.0
C1189 C 0.71696 0.66632 0.37516 0.0
C1190 C 0.76102 0.63831 0.34074 0.0
C1191 C 0.7133 0.67589 0.28913 0.0
C1192 C 0.76184 0.66923 0.20412 0.0
C1193 C 0.75717 0.65691 0.17096 0.0
C1194 C 0.75517 0.66959 0.25104 0.0
C1195 C 0.74358 0.65734 0.26507 0.0
C1196 C 0.73839 0.6452 0.23124 0.0
C1197 C 0.74525 0.64514 0.18446 0.0
C1198 C 0.76089 0.68282 0.28603 0.0
C1199 C 0.72598 0.63198 0.24492 0.0
H1200 H 0.74608 0.64172 0.428 0.0
H1201 H 0.70592 0.67335 0.38409 0.0
H1202 H 0.75837 0.62906 0.31199 0.0
H1203 H 0.7708 0.6467 0.32662 0.0
H1204 H 0.76593 0.63173 0.37308 0.0
H1205 H 0.70206 0.68201 0.30405 0.0
H1206 H 0.72147 0.68555 0.27333 0.0
H1207 H 0.7095 0.66757 0.25908 0.0
H1208 H 0.77106 0.67835 0.19382 0.0
H1209 H 0.74165 0.63556 0.15898 0.0
H1210 H 0.76728 0.67697 0.3173 0.0
H1211 H 0.75008 0.6897 0.30059 0.0
H1212 H 0.76951 0.69181 0.26884 0.0
H1213 H 0.73113 0.62415 0.27439 0.0
H1214 H 0.72273 0.62388 0.21378 0.0
H1215 H 0.71448 0.63777 0.25901 0.0
C1216 C 0.61142 0.51737 0.49129 0.0
C1217 C 0.60046 0.50965 0.45886 0.0
C1218 C 0.61228 0.51244 0.54005 0.0
C1219 C 0.60223 0.49921 0.55649 0.0
C1220 C 0.59161 0.49095 0.52342 0.0
C1221 C 0.59069 0.49643 0.47509 0.0
C1222 C 0.62351 0.52178 0.57432 0.0
C1223 C 0.581 0.47652 0.53929 0.0
C1224 C 0.61358 0.47717 0.67374 0.0
C1225 C 0.60156 0.48332 0.70581 0.0
C1226 C 0.61406 0.48234 0.62514 0.0
C1227 C 0.60249 0.49426 0.60854 0.0
C1228 C 0.59083 0.50108 0.6414 0.0
C1229 C 0.59035 0.49536 0.68952 0.0
C1230 C 0.62646 0.47451 0.59109 0.0
C1231 C 0.57857 0.51413 0.62541 0.0
H1232 H 0.61887 0.52774 0.47904 0.0
H1233 H 0.58221 0.49045 0.4501 0.0
H1234 H 0.61599 0.52766 0.60331 0.0
H1235 H 0.63225 0.51313 0.59225 0.0
H1236 H 0.63077 0.53158 0.55558 0.0
H1237 H 0.57425 0.47076 0.50848 0.0
H1238 H 0.58879 0.46692 0.55694 0.0
H1239 H 0.57179 0.48075 0.5665 0.0
H1240 H 0.62214 0.46769 0.68602 0.0
H1241 H 0.58104 0.50012 0.71423 0.0
H1242 H 0.63403 0.48422 0.57317 0.0
H1243 H 0.61982 0.46767 0.56209 0.0
H1244 H 0.63491 0.46576 0.61002 0.0
H1245 H 0.58516 0.52457 0.60765 0.0
H1246 H 0.57119 0.51908 0.65619 0.0
H1247 H 0.56994 0.5088 0.59827 0.0
C1248 C 0.74291 0.36604 0.70977 0.0
C1249 C 0.73007 0.35459 0.70263 0.0
C1250 C 0.7502 0.36799 0.75574 0.0
C1251 C 0.74456 0.35818 0.79504 0.0
C1252 C 0.73116 0.34711 0.78829 0.0
C1253 C 0.72407 0.34549 0.74225 0.0
C1254 C 0.76436 0.38004 0.7618 0.0
C1255 C 0.72482 0.33634 0.82916 0.0
C1256 C 0.77387 0.34451 0.89403 0.0
C1257 C 0.76833 0.35381 0.9338 0.0
C1258 C 0.7667 0.34639 0.84818 0.0
C1259 C 0.7537 0.35795 0.84177 0.0
C1260 C 0.74849 0.36791 0.88125 0.0
C1261 C 0.75584 0.36568 0.92704 0.0
C1262 C 0.77254 0.33542 0.80714 0.0
C1263 C 0.73478 0.38049 0.87552 0.0
H1264 H 0.74748 0.37319 0.6793 0.0
H1265 H 0.71405 0.33671 0.73707 0.0
H1266 H 0.76238 0.3879 0.79432 0.0
H1267 H 0.77607 0.3731 0.76743 0.0
H1268 H 0.76588 0.38819 0.72961 0.0
H1269 H 0.71354 0.32929 0.8188 0.0
H1270 H 0.73458 0.32737 0.83997 0.0
H1271 H 0.72191 0.34402 0.86142 0.0
H1272 H 0.7836 0.33539 0.89892 0.0
H1273 H 0.75162 0.37298 0.95764 0.0
H1274 H 0.77579 0.34303 0.77502 0.0
H1275 H 0.76239 0.32692 0.79618 0.0
H1276 H 0.78349 0.32784 0.81735 0.0
H1277 H 0.73705 0.38837 0.84321 0.0
H1278 H 0.73355 0.38858 0.90792 0.0
H1279 H 0.72282 0.37399 0.86968 0.0
C1280 C 0.90891 0.52148 0.12877 0.0
C1281 C 0.90684 0.51034 0.1674 0.0
C1282 C 0.90878 0.516 0.08055 0.0
C1283 C 0.90674 0.49892 0.07069 0.0
C1284 C 0.90477 0.48757 0.10953 0.0
C1285 C 0.90474 0.49344 0.15752 0.0
C1286 C 0.91077 0.52849 0.04015 0.0
C1287 C 0.90273 0.46924 0.10035 0.0
C1288 C 0.8925 0.48515 0.94559 0.0
C1289 C 0.90752 0.48034 0.92426 0.0
C1290 C 0.89207 0.49149 0.99302 0.0
C1291 C 0.907 0.49291 0.01973 0.0
C1292 C 0.92224 0.48845 0.99789 0.0
C1293 C 0.92232 0.4823 0.95034 0.0
C1294 C 0.87562 0.49635 0.01493 0.0
C1295 C 0.93842 0.48975 0.02522 0.0
H1296 H 0.91041 0.53459 0.13617 0.0
H1297 H 0.90311 0.48481 0.18728 0.0
H1298 H 0.92197 0.52555 0.01844 0.0
H1299 H 0.89998 0.52786 0.01529 0.0
H1300 H 0.9119 0.54138 0.05396 0.0
H1301 H 0.90137 0.46205 0.1345 0.0
H1302 H 0.89165 0.46702 0.07741 0.0
H1303 H 0.91362 0.46443 0.08021 0.0
H1304 H 0.88103 0.48362 0.92561 0.0
H1305 H 0.93397 0.47854 0.93413 0.0
H1306 H 0.87612 0.50934 0.0281 0.0
H1307 H 0.87292 0.48837 0.04674 0.0
H1308 H 0.86525 0.49519 0.98865 0.0
H1309 H 0.94034 0.50265 0.03797 0.0
H1310 H 0.94922 0.48605 0.0027 0.0
H1311 H 0.93801 0.4817 0.05783 0.0
C1312 C 0.24813 0.35519 0.71848 0.0
C1313 C 0.26398 0.34863 0.71047 0.0
C1314 C 0.24133 0.35567 0.76535 0.0
C1315 C 0.25061 0.34936 0.80489 0.0
C1316 C 0.26672 0.34299 0.79706 0.0
C1317 C 0.27322 0.34273 0.74994 0.0
C1318 C 0.22411 0.36259 0.77243 0.0
C1319 C 0.27695 0.33607 0.83826 0.0
C1320 C 0.23796 0.35997 0.93413 0.0
C1321 C 0.22884 0.34586 0.94701 0.0
C1322 C 0.24505 0.36139 0.88774 0.0
C1323 C 0.24304 0.34832 0.8539 0.0
C1324 C 0.23398 0.334 0.86701 0.0
C1325 C 0.22695 0.33297 0.91332 0.0
C1326 C 0.2546 0.37686 0.87482 0.0
C1327 C 0.23169 0.31974 0.83211 0.0
H1328 H 0.241 0.35987 0.6881 0.0
H1329 H 0.28552 0.33771 0.74398 0.0
H1330 H 0.21568 0.35263 0.78515 0.0
H1331 H 0.22424 0.37234 0.8008 0.0
H1332 H 0.21896 0.36794 0.7385 0.0
H1333 H 0.28958 0.33237 0.82645 0.0
H1334 H 0.27809 0.34538 0.86769 0.0
H1335 H 0.27066 0.32506 0.85383 0.0
H1336 H 0.23936 0.36998 0.96003 0.0
H1337 H 0.21994 0.32201 0.92314 0.0
H1338 H 0.24891 0.3829 0.84273 0.0
H1339 H 0.26752 0.37359 0.86485 0.0
H1340 H 0.25494 0.38593 0.90513 0.0
H1341 H 0.22536 0.32412 0.79877 0.0
H1342 H 0.22431 0.30947 0.84807 0.0
H1343 H 0.24395 0.31478 0.82102 0.0
C1344 C 0.43043 0.51252 0.45719 0.0
C1345 C 0.41719 0.50827 0.42668 0.0
C1346 C 0.43118 0.5066 0.50489 0.0
C1347 C 0.4184 0.49617 0.52224 0.0
C1348 C 0.40561 0.49093 0.49058 0.0
C1349 C 0.40517 0.49705 0.44302 0.0
C1350 C 0.44507 0.51235 0.53752 0.0
C1351 C 0.39187 0.47966 0.50779 0.0
C1352 C 0.42403 0.47323 0.64096 0.0
C1353 C 0.41513 0.48336 0.67311 0.0
C1354 C 0.42536 0.47731 0.59173 0.0
C1355 C 0.41763 0.49188 0.57443 0.0
C1356 C 0.4089 0.50233 0.60689 0.0
C1357 C 0.40775 0.49792 0.65596 0.0
C1358 C 0.43477 0.46591 0.55812 0.0
C1359 C 0.40055 0.51802 0.58963 0.0
H1360 H 0.4398 0.52113 0.44458 0.0
H1361 H 0.39494 0.49371 0.41947 0.0
H1362 H 0.44004 0.52085 0.56554 0.0
H1363 H 0.45072 0.50167 0.55672 0.0
H1364 H 0.45493 0.51897 0.51713 0.0
H1365 H 0.38384 0.47542 0.47749 0.0
H1366 H 0.39707 0.46863 0.52637 0.0
H1367 H 0.38404 0.48634 0.53451 0.0
H1368 H 0.42975 0.46193 0.65411 0.0
H1369 H 0.40085 0.50576 0.68072 0.0
H1370 H 0.44463 0.47289 0.53888 0.0
H1371 H 0.42627 0.4609 0.5301 0.0
H1372 H 0.44056 0.45535 0.5777 0.0
H1373 H 0.40975 0.52625 0.57186 0.0
H1374 H 0.39457 0.52495 0.61972 0.0
H1375 H 0.39097 0.51497 0.56218 0.0
C1376 C 0.25071 0.65027 0.40561 0.0
C1377 C 0.26763 0.64966 0.41676 0.0
C1378 C 0.2453 0.64961 0.35724 0.0
C1379 C 0.2571 0.64808 0.31941 0.0
C1380 C 0.27416 0.64696 0.33066 0.0
C1381 C 0.27923 0.64789 0.3792 0.0
C1382 C 0.22699 0.65098 0.34655 0.0
C1383 C 0.28708 0.64508 0.29139 0.0
C1384 C 0.24045 0.63457 0.19677 0.0
C1385 C 0.23859 0.64986 0.17321 0.0
C1386 C 0.24698 0.63371 0.24392 0.0
C1387 C 0.25162 0.6485 0.26798 0.0
C1388 C 0.25042 0.66388 0.24354 0.0
C1389 C 0.24399 0.66436 0.19634 0.0
C1390 C 0.24833 0.61706 0.26862 0.0
C1391 C 0.25524 0.67993 0.268 0.0
H1392 H 0.24173 0.65163 0.4346 0.0
H1393 H 0.29233 0.64724 0.38774 0.0
H1394 H 0.22459 0.66227 0.32465 0.0
H1395 H 0.22283 0.64019 0.3248 0.0
H1396 H 0.2194 0.65162 0.38012 0.0
H1397 H 0.29973 0.64327 0.30644 0.0
H1398 H 0.28403 0.63435 0.26783 0.0
H1399 H 0.28716 0.65628 0.26804 0.0
H1400 H 0.23628 0.62333 0.17903 0.0
H1401 H 0.24256 0.67622 0.17832 0.0
H1402 H 0.23954 0.61651 0.29953 0.0
H1403 H 0.26098 0.61531 0.28358 0.0
H1404 H 0.24554 0.60664 0.24358 0.0
H1405 H 0.24711 0.6821 0.29986 0.0
H1406 H 0.25421 0.69075 0.24325 0.0
H1407 H 0.26816 0.67919 0.28154 0.0
C1408 C 0.09856 0.528 0.1358 0.0
C1409 C 0.10284 0.5189 0.1773 0.0
C1410 C 0.10017 0.52116 0.08939 0.0
C1411 C 0.1062 0.50479 0.08429 0.0
C1412 C 0.11137 0.49583 0.12584 0.0
C1413 C 0.10962 0.50301 0.17204 0.0
C1414 C 0.09452 0.53114 0.04606 0.0
C1415 C 0.11794 0.47837 0.12173 0.0
C1416 C 0.08861 0.48147 0.97701 0.0
C1417 C 0.10148 0.48261 0.94301 0.0
C1418 C 0.09021 0.48829 0.02342 0.0
C1419 C 0.10508 0.49648 0.0363 0.0
C1420 C 0.11824 0.49752 0.00242 0.0
C1421 C 0.11628 0.49057 0.95597 0.0
C1422 C 0.07584 0.48698 0.05838 0.0
C1423 C 0.13427 0.50615 0.01504 0.0
H1424 H 0.09349 0.54037 0.13961 0.0
H1425 H 0.11305 0.49599 0.20402 0.0
H1426 H 0.10413 0.53102 0.01727 0.0
H1427 H 0.08315 0.52548 0.0306 0.0
H1428 H 0.09175 0.54422 0.05566 0.0
H1429 H 0.12337 0.47391 0.15639 0.0
H1430 H 0.1077 0.4699 0.11131 0.0
H1431 H 0.12751 0.4776 0.09292 0.0
H1432 H 0.07716 0.47527 0.96731 0.0
H1433 H 0.1263 0.49137 0.92987 0.0
H1434 H 0.07123 0.49955 0.06759 0.0
H1435 H 0.07994 0.48106 0.09266 0.0
H1436 H 0.06537 0.47967 0.04328 0.0
H1437 H 0.13188 0.51948 0.02197 0.0
H1438 H 0.14364 0.50508 0.98565 0.0
H1439 H 0.13953 0.50085 0.04883 0.0
C1440 C 0.2174 0.21129 0.13278 0.0
C1441 C 0.20561 0.20347 0.10338 0.0
C1442 C 0.21752 0.22859 0.13778 0.0
C1443 C 0.20596 0.23821 0.11132 0.0
C1444 C 0.19394 0.2303 0.08192 0.0
C1445 C 0.19374 0.21297 0.07897 0.0
C1446 C 0.23017 0.23658 0.17069 0.0
C1447 C 0.18171 0.24016 0.05205 0.0
C1448 C 0.19689 0.28332 0.13949 0.0
C1449 C 0.20714 0.29135 0.10592 0.0
C1450 C 0.19695 0.26598 0.14337 0.0
C1451 C 0.20705 0.25655 0.11169 0.0
C1452 C 0.21758 0.26467 0.07815 0.0
C1453 C 0.21768 0.28201 0.07625 0.0
C1454 C 0.18599 0.25773 0.18064 0.0
C1455 C 0.22819 0.25505 0.04285 0.0
H1456 H 0.22648 0.20386 0.152 0.0
H1457 H 0.18468 0.20687 0.05603 0.0
H1458 H 0.23916 0.24379 0.14876 0.0
H1459 H 0.22399 0.24539 0.19578 0.0
H1460 H 0.23712 0.2273 0.19242 0.0
H1461 H 0.17304 0.23208 0.03153 0.0
H1462 H 0.17436 0.24848 0.07577 0.0
H1463 H 0.1885 0.24811 0.02587 0.0
H1464 H 0.18883 0.29061 0.16266 0.0
H1465 H 0.22552 0.28825 0.05001 0.0
H1466 H 0.19327 0.24869 0.20225 0.0
H1467 H 0.17597 0.25074 0.16218 0.0
H1468 H 0.18022 0.26684 0.20572 0.0
H1469 H 0.23658 0.24653 0.06271 0.0
H1470 H 0.23583 0.26328 0.01949 0.0
H1471 H 0.22018 0.24732 0.01922 0.0
C1472 C 0.03353 0.96881 0.29874 0.0
C1473 C 0.0439 0.96303 0.33581 0.0
C1474 C 0.01624 0.96779 0.30306 0.0
C1475 C 0.0092 0.96115 0.34593 0.0
C1476 C 0.01963 0.95568 0.384 0.0
C1477 C 0.03689 0.95653 0.37825 0.0
C1478 C 0.00553 0.97349 0.26134 0.0
C1479 C 0.01254 0.94885 0.43059 0.0
C1480 C 0.96394 0.97179 0.36657 0.0
C1481 C 0.95608 0.95734 0.35029 0.0
C1482 C 0.98129 0.97298 0.36721 0.0
C1483 C 0.99093 0.95952 0.3501 0.0
C1484 C 0.98304 0.94478 0.33457 0.0
C1485 C 0.96569 0.9438 0.33535 0.0
C1486 C 0.9893 0.98876 0.38504 0.0
C1487 C 0.99288 0.93027 0.31535 0.0
H1488 H 0.03893 0.97378 0.2658 0.0
H1489 H 0.04491 0.95216 0.4071 0.0
H1490 H 0.99784 0.96302 0.24809 0.0
H1491 H 0.99692 0.98335 0.27366 0.0
H1492 H 0.01296 0.97836 0.23054 0.0
H1493 H 0.02233 0.94593 0.45763 0.0
H1494 H 0.0038 0.95792 0.4468 0.0
H1495 H 0.00542 0.93739 0.423 0.0
H1496 H 0.95652 0.98224 0.37841 0.0
H1497 H 0.95962 0.93264 0.3225 0.0
H1498 H 0.99567 0.99506 0.35452 0.0
H1499 H -0.00116 0.98589 0.4128 0.0
H1500 H 0.98014 0.99748 0.40096 0.0
H1501 H -0.00027 0.93407 0.28225 0.0
H1502 H 0.98488 0.9195 0.30619 0.0
H1503 H 0.00221 0.92626 0.34246 0.0
C1504 C 0.27923 0.7829 0.61189 0.0
C1505 C 0.2895 0.79226 0.58142 0.0
C1506 C 0.28042 0.76556 0.61319 0.0
C1507 C 0.29187 0.75742 0.5824 0.0
C1508 C 0.30267 0.76686 0.55282 0.0
C1509 C 0.30147 0.78422 0.55307 0.0
C1510 C 0.26894 0.75593 0.64603 0.0
C1511 C 0.31485 0.75863 0.5189 0.0
C1512 C 0.30092 0.71162 0.6018 0.0
C1513 C 0.28961 0.70431 0.56972 0.0
C1514 C 0.30181 0.72894 0.60655 0.0
C1515 C 0.29141 0.73908 0.57771 0.0
C1516 C 0.28023 0.73171 0.54452 0.0
C1517 C 0.27934 0.7144 0.54135 0.0
C1518 C 0.31363 0.73638 0.64299 0.0
C1519 C 0.26915 0.74209 0.51242 0.0
H1520 H 0.27007 0.78912 0.63417 0.0
H1521 H 0.30939 0.79144 0.52935 0.0
H1522 H 0.25973 0.74909 0.62383 0.0
H1523 H 0.27602 0.74662 0.66721 0.0
H1524 H 0.26215 0.76411 0.67165 0.0
H1525 H 0.32326 0.76772 0.50124 0.0
H1526 H 0.32246 0.7494 0.53872 0.0
H1527 H 0.30798 0.75186 0.4902 0.0
H1528 H 0.3088 0.7038 0.62395 0.0
H1529 H 0.27067 0.70876 0.51626 0.0
H1530 H 0.30659 0.74369 0.67017 0.0
H1531 H 0.32228 0.74504 0.62465 0.0
H1532 H 0.32099 0.72679 0.66229 0.0
H1533 H 0.26055 0.74952 0.53507 0.0
H1534 H 0.2617 0.73442 0.48702 0.0
H1535 H 0.27673 0.75092 0.49094 0.0
C1536 C 0.46751 0.03134 0.86072 0.0
C1537 C 0.45774 0.04566 0.85808 0.0
C1538 C 0.48483 0.0324 0.8625 0.0
C1539 C 0.49251 0.04817 0.86134 0.0
C1540 C 0.48268 0.0627 0.86109 0.0
C1541 C 0.46536 0.06127 0.85957 0.0
C1542 C 0.49492 0.01663 0.86316 0.0
C1543 C 0.49045 0.07972 0.85987 0.0
C1544 C 0.53842 0.04978 0.89089 0.0
C1545 C 0.54543 0.049 0.8444 0.0
C1546 C 0.52116 0.04993 0.89711 0.0
C1547 C 0.51076 0.04934 0.85581 0.0
C1548 C 0.5178 0.04905 0.80878 0.0
C1549 C 0.53506 0.04886 0.80366 0.0
C1550 C 0.51405 0.05022 0.94777 0.0
C1551 C 0.50709 0.04849 0.76384 0.0
H1552 H 0.46165 0.01925 0.85991 0.0
H1553 H 0.45783 0.07238 0.85764 0.0
H1554 H 0.50167 0.01531 0.82831 0.0
H1555 H 0.50432 0.0171 0.89248 0.0
H1556 H 0.48708 0.00545 0.86853 0.0
H1557 H 0.48114 0.08973 0.86485 0.0
H1558 H 0.50003 0.08087 0.88853 0.0
H1559 H 0.49672 0.0816 0.82446 0.0
H1560 H 0.54642 0.04988 0.92248 0.0
H1561 H 0.54044 0.04831 0.76765 0.0
H1562 H 0.50732 0.03848 0.95489 0.0
H1563 H 0.50496 0.06046 0.95141 0.0
H1564 H 0.5238 0.05176 0.97588 0.0
H1565 H 0.49977 0.03685 0.76345 0.0
H1566 H 0.51451 0.04912 0.72994 0.0
H1567 H 0.49816 0.05895 0.76403 0.0
C1568 C 0.19024 0.78487 0.00035 0.0
C1569 C 0.20147 0.79265 0.03172 0.0
C1570 C 0.19008 0.76756 0.99556 0.0
C1571 C 0.20109 0.7579 0.0238 0.0
C1572 C 0.21253 0.76574 0.05523 0.0
C1573 C 0.21271 0.78306 0.05835 0.0
C1574 C 0.17801 0.75959 0.96079 0.0
C1575 C 0.22426 0.75584 0.08666 0.0
C1576 C 0.18998 0.71368 0.05611 0.0
C1577 C 0.20129 0.70477 0.02778 0.0
C1578 C 0.1895 0.73103 0.05428 0.0
C1579 C 0.20028 0.73955 0.02233 0.0
C1580 C 0.2111 0.73053 0.99173 0.0
C1581 C 0.21166 0.7132 0.99537 0.0
C1582 C 0.17807 0.74024 0.0883 0.0
C1583 C 0.22244 0.73919 0.95628 0.0
H1584 H 0.18162 0.79232 0.97949 0.0
H1585 H 0.22134 0.78909 0.08281 0.0
H1586 H 0.18468 0.75112 0.93581 0.0
H1587 H 0.16891 0.75201 0.98122 0.0
H1588 H 0.17114 0.7689 0.93893 0.0
H1589 H 0.23242 0.76388 0.10903 0.0
H1590 H 0.21707 0.74764 0.11123 0.0
H1591 H 0.23217 0.74777 0.06377 0.0
H1592 H 0.18203 0.70714 0.0814 0.0
H1593 H 0.22032 0.70625 0.9732 0.0
H1594 H 0.17009 0.74894 0.0677 0.0
H1595 H 0.18552 0.74774 0.11407 0.0
H1596 H 0.17 0.73174 0.10946 0.0
H1597 H 0.21535 0.74829 0.93434 0.0
H1598 H 0.22868 0.73035 0.93138 0.0
H1599 H 0.23209 0.74617 0.97638 0.0
C1600 C 0.46443 0.93984 0.32603 0.0
C1601 C 0.4565 0.95229 0.29926 0.0
C1602 C 0.4818 0.93886 0.32749 0.0
C1603 C 0.49135 0.95038 0.30065 0.0
C1604 C 0.48333 0.9623 0.27113 0.0
C1605 C 0.46599 0.96324 0.27128 0.0
C1606 C 0.48989 0.92617 0.36005 0.0
C1607 C 0.49308 0.97456 0.24111 0.0
C1608 C 0.53357 0.96367 0.34632 0.0
C1609 C 0.54422 0.95447 0.31662 0.0
C1610 C 0.51634 0.962 0.34249 0.0
C1611 C 0.50961 0.95116 0.30722 0.0
C1612 C 0.52032 0.94171 0.27737 0.0
C1613 C 0.53757 0.94333 0.28286 0.0
C1614 C 0.50534 0.97204 0.37572 0.0
C1615 C 0.51358 0.9303 0.23872 0.0
H1616 H 0.45709 0.9314 0.34785 0.0
H1617 H 0.45984 0.97279 0.25021 0.0
H1618 H 0.49964 0.91929 0.3401 0.0
H1619 H 0.49601 0.93258 0.39086 0.0
H1620 H 0.48081 0.91714 0.37486 0.0
H1621 H 0.48505 0.98163 0.21578 0.0
H1622 H 0.49944 0.98349 0.2654 0.0
H1623 H 0.50279 0.96807 0.21981 0.0
H1624 H 0.53872 0.9722 0.37273 0.0
H1625 H 0.54583 0.93629 0.25969 0.0
H1626 H 0.49644 0.9638 0.39472 0.0
H1627 H 0.49798 0.98102 0.35412 0.0
H1628 H 0.51254 0.97903 0.40331 0.0
H1629 H 0.50474 0.92133 0.25483 0.0
H1630 H 0.52355 0.92331 0.21987 0.0
H1631 H 0.50664 0.93765 0.21142 0.0
C1632 C 0.30547 0.21754 0.56556 0.0
C1633 C 0.29256 0.20884 0.5431 0.0
C1634 C 0.30583 0.23492 0.56492 0.0
C1635 C 0.29323 0.2437 0.54003 0.0
C1636 C 0.28079 0.23489 0.51456 0.0
C1637 C 0.28045 0.21753 0.51707 0.0
C1638 C 0.31906 0.24387 0.59348 0.0
C1639 C 0.26744 0.2438 0.48643 0.0
C1640 C 0.28087 0.28615 0.58618 0.0
C1641 C 0.28965 0.29662 0.55493 0.0
C1642 C 0.28217 0.2689 0.5821 0.0
C1643 C 0.29207 0.26199 0.54481 0.0
C1644 C 0.30078 0.27254 0.51261 0.0
C1645 C 0.29969 0.2898 0.5186 0.0
C1646 C 0.27304 0.25807 0.61798 0.0
C1647 C 0.31103 0.26561 0.47154 0.0
H1648 H 0.31478 0.21081 0.58594 0.0
H1649 H 0.27055 0.21076 0.49936 0.0
H1650 H 0.32522 0.25335 0.57065 0.0
H1651 H 0.31326 0.25044 0.62452 0.0
H1652 H 0.32864 0.23527 0.60778 0.0
H1653 H 0.2601 0.2352 0.46342 0.0
H1654 H 0.25886 0.25007 0.51199 0.0
H1655 H 0.27297 0.25352 0.46296 0.0
H1656 H 0.2732 0.29147 0.61449 0.0
H1657 H 0.30636 0.29796 0.4942 0.0
H1658 H 0.28187 0.24957 0.63626 0.0
H1659 H 0.26381 0.25029 0.59874 0.0
H1660 H 0.26648 0.26543 0.64612 0.0
H1661 H 0.32102 0.25757 0.48607 0.0
H1662 H 0.31676 0.27551 0.44907 0.0
H1663 H 0.30315 0.25776 0.44787 0.0
C1664 C 0.96567 0.02327 0.84405 0.0
C1665 C 0.95687 0.03346 0.81198 0.0
C1666 C 0.98304 0.02278 0.84317 0.0
C1667 C 0.99173 0.03238 0.80852 0.0
C1668 C 0.98285 0.04228 0.775 0.0
C1669 C 0.96549 0.04288 0.77758 0.0
C1670 C 0.99209 0.01237 0.88024 0.0
C1671 C 0.99169 0.05237 0.73679 0.0
C1672 C 0.03595 0.04487 0.837 0.0
C1673 C 0.04501 0.03274 0.81215 0.0
C1674 C 0.01859 0.04484 0.83624 0.0
C1675 C 0.01013 0.03264 0.80889 0.0
C1676 C 0.01924 0.02056 0.78285 0.0
C1677 C 0.03662 0.02061 0.78535 0.0
C1678 C 0.0093 0.05769 0.86539 0.0
C1679 C 0.01063 0.00761 0.75237 0.0
H1680 H 0.95899 0.01604 0.87084 0.0
H1681 H 0.95865 0.05066 0.75252 0.0
H1682 H 0.00033 0.00334 0.86183 0.0
H1683 H 6e-05 0.02044 0.90301 0.0
H1684 H 0.98347 0.00547 0.90431 0.0
H1685 H 0.98293 0.05845 0.71129 0.0
H1686 H -0.00067 0.06209 0.75437 0.0
H1687 H 0.00023 0.04434 0.71572 0.0
H1688 H 0.04245 0.05419 0.85799 0.0
H1689 H 0.04365 0.0113 0.76585 0.0
H1690 H 0.00105 0.05148 0.89203 0.0
H1691 H 0.0013 0.06521 0.84116 0.0
H1692 H 0.01775 0.06617 0.88529 0.0
H1693 H 0.00275 -0.00034 0.77571 0.0
H1694 H 0.01954 -0.00042 0.73257 0.0
H1695 H 0.00234 0.01369 0.72561 0.0
C1696 C 0.81238 0.70473 0.06097 0.0
C1697 C 0.80353 0.69708 0.02345 0.0
C1698 C 0.81374 0.72206 0.06311 0.0
C1699 C 0.80628 0.73182 0.02641 0.0
C1700 C 0.79876 0.72403 0.98602 0.0
C1701 C 0.79734 0.70672 0.98525 0.0
C1702 C 0.82176 0.72989 0.10694 0.0
C1703 C 0.79098 0.73399 0.94563 0.0
C1704 C 0.78692 0.77248 0.06471 0.0
C1705 C 0.79881 0.78401 0.04958 0.0
C1706 C 0.78935 0.75548 0.0577 0.0
C1707 C 0.80391 0.74987 0.03414 0.0
C1708 C 0.8159 0.76146 0.01819 0.0
C1709 C 0.81328 0.77845 0.02654 0.0
C1710 C 0.77633 0.7435 0.07582 0.0
C1711 C 0.83141 0.75592 0.99218 0.0
H1712 H 0.81719 0.6973 0.09057 0.0
H1713 H 0.79064 0.70079 0.9559 0.0
H1714 H 0.83 0.74024 0.09605 0.0
H1715 H 0.81199 0.73512 0.13083 0.0
H1716 H 0.82909 0.72078 0.12825 0.0
H1717 H 0.78827 0.72622 0.91332 0.0
H1718 H 0.77917 0.73948 0.95859 0.0
H1719 H 0.79921 0.74434 0.93459 0.0
H1720 H 0.77577 0.77674 0.08282 0.0
H1721 H 0.82247 0.78738 0.01466 0.0
H1722 H 0.782 0.73451 0.10138 0.0
H1723 H 0.77118 0.73632 0.045 0.0
H1724 H 0.76595 0.74988 0.09459 0.0
H1725 H 0.83864 0.74741 0.01564 0.0
H1726 H 0.83944 0.76652 0.98172 0.0
H1727 H 0.82803 0.74892 0.95898 0.0
C1728 C 0.72027 0.21468 0.51713 0.0
C1729 C 0.70722 0.20584 0.53843 0.0
C1730 C 0.71991 0.23205 0.51486 0.0
C1731 C 0.70636 0.24071 0.53547 0.0
C1732 C 0.69299 0.2318 0.55606 0.0
C1733 C 0.6935 0.21443 0.5568 0.0
C1734 C 0.73424 0.24114 0.49172 0.0
C1735 C 0.67849 0.24061 0.57929 0.0
C1736 C 0.7151 0.28381 0.58334 0.0
C1737 C 0.70766 0.29383 0.54801 0.0
C1738 C 0.71465 0.26651 0.57973 0.0
C1739 C 0.70685 0.25906 0.53926 0.0
C1740 C 0.69946 0.26912 0.50311 0.0
C1741 C 0.6998 0.28645 0.5082 0.0
C1742 C 0.72241 0.25621 0.6195 0.0
C1743 C 0.69131 0.26158 0.45905 0.0
H1744 H 0.73082 0.20802 0.50251 0.0
H1745 H 0.68341 0.2076 0.57341 0.0
H1746 H 0.7296 0.25035 0.46509 0.0
H1747 H 0.74121 0.24804 0.51989 0.0
H1748 H 0.74293 0.23258 0.47301 0.0
H1749 H 0.66867 0.23187 0.59129 0.0
H1750 H 0.68286 0.24772 0.61129 0.0
H1751 H 0.67298 0.24962 0.55356 0.0
H1752 H 0.7211 0.2895 0.61434 0.0
H1753 H 0.69412 0.29421 0.48074 0.0
H1754 H 0.73245 0.24839 0.60432 0.0
H1755 H 0.71301 0.24774 0.63533 0.0
H1756 H 0.72767 0.26395 0.64905 0.0
H1757 H 0.70033 0.25365 0.43939 0.0
H1758 H 0.6865 0.27113 0.43368 0.0
H1759 H 0.68088 0.25349 0.47035 0.0
C1760 C 0.78369 0.28266 0.04734 0.0
C1761 C 0.79093 0.29227 0.08398 0.0
C1762 C 0.78413 0.26533 0.04925 0.0
C1763 C 0.79171 0.25741 0.08932 0.0
C1764 C 0.79892 0.26704 0.12674 0.0
C1765 C 0.79861 0.28442 0.12336 0.0
C1766 C 0.77656 0.25551 0.00817 0.0
C1767 C 0.80682 0.25898 0.17042 0.0
C1768 C 0.77746 0.21304 0.1059 0.0
C1769 C 0.79037 0.20425 0.08371 0.0
C1770 C 0.77817 0.23034 0.11052 0.0
C1771 C 0.79197 0.23902 0.09152 0.0
C1772 C 0.80528 0.23015 0.07037 0.0
C1773 C 0.80438 0.21282 0.06716 0.0
C1774 C 0.76389 0.23936 0.13414 0.0
C1775 C 0.82006 0.23899 0.04894 0.0
H1776 H 0.77785 0.2887 0.01665 0.0
H1777 H 0.80414 0.29186 0.15181 0.0
H1778 H 0.78598 0.24711 0.99216 0.0
H1779 H 0.76633 0.24765 0.0221 0.0
H1780 H 0.77158 0.2636 0.97899 0.0
H1781 H 0.81169 0.26823 0.19664 0.0
H1782 H 0.79761 0.25103 0.18923 0.0
H1783 H 0.81715 0.25083 0.15881 0.0
H1784 H 0.76669 0.2064 0.1192 0.0
H1785 H 0.81439 0.20603 0.04996 0.0
H1786 H 0.75707 0.24662 0.10641 0.0
H1787 H 0.76855 0.24824 0.16168 0.0
H1788 H 0.75505 0.23071 0.1519 0.0
H1789 H 0.81605 0.24641 0.01713 0.0
H1790 H 0.82989 0.23024 0.03705 0.0
H1791 H 0.82544 0.24773 0.0757 0.0
C1792 C 0.69132 0.7149 0.627 0.0
C1793 C 0.70018 0.70942 0.58631 0.0
C1794 C 0.68989 0.73193 0.63714 0.0
C1795 C 0.69725 0.74359 0.60533 0.0
C1796 C 0.70579 0.73805 0.56352 0.0
C1797 C 0.70726 0.72105 0.55479 0.0
C1798 C 0.68089 0.73743 0.68237 0.0
C1799 C 0.71364 0.75007 0.52827 0.0
C1800 C 0.68612 0.789 0.59633 0.0
C1801 C 0.70038 0.79629 0.616 0.0
C1802 C 0.68426 0.7717 0.5958 0.0
C1803 C 0.69685 0.76161 0.61604 0.0
C1804 C 0.71053 0.76903 0.63971 0.0
C1805 C 0.71221 0.78631 0.639 0.0
C1806 C 0.66955 0.76425 0.56993 0.0
C1807 C 0.72406 0.75871 0.66249 0.0
H1808 H 0.68587 0.7059 0.65142 0.0
H1809 H 0.71398 0.71685 0.52301 0.0
H1810 H 0.68974 0.74361 0.70732 0.0
H1811 H 0.67118 0.74664 0.67314 0.0
H1812 H 0.67502 0.72688 0.70179 0.0
H1813 H 0.71905 0.74374 0.49618 0.0
H1814 H 0.7043 0.75917 0.51545 0.0
H1815 H 0.72362 0.75713 0.54669 0.0
H1816 H 0.67694 0.79673 0.57864 0.0
H1817 H 0.72313 0.79196 0.65484 0.0
H1818 H 0.66423 0.75387 0.59119 0.0
H1819 H 0.67364 0.75915 0.53451 0.0
H1820 H 0.65968 0.77357 0.5631 0.0
H1821 H 0.71869 0.74853 0.68451 0.0
H1822 H 0.73234 0.76626 0.68594 0.0
H1823 H 0.7317 0.75297 0.63352 0.0
C1824 C 0.5341 0.44035 0.83226 0.0
C1825 C 0.54349 0.4516 0.85944 0.0
C1826 C 0.51675 0.4404 0.83487 0.0
C1827 C 0.50871 0.45165 0.8665 0.0
C1828 C 0.51824 0.46214 0.8968 0.0
C1829 C 0.53555 0.46219 0.89228 0.0
C1830 C 0.50704 0.42934 0.80102 0.0
C1831 C 0.51013 0.47396 0.93198 0.0
C1832 C 0.46764 0.4691 0.82504 0.0
C1833 C 0.45627 0.4593 0.85055 0.0
C1834 C 0.4847 0.46661 0.82986 0.0
C1835 C 0.49057 0.45432 0.86219 0.0
C1836 C 0.47916 0.44461 0.88905 0.0
C1837 C 0.46205 0.44703 0.88226 0.0
C1838 C 0.49641 0.47696 0.79957 0.0
C1839 C 0.48505 0.43175 0.92489 0.0
H1840 H 0.54027 0.43216 0.80683 0.0
H1841 H 0.54286 0.47074 0.91382 0.0
H1842 H 0.49714 0.42268 0.82095 0.0
H1843 H 0.50093 0.43706 0.77288 0.0
H1844 H 0.51507 0.42008 0.7826 0.0
H1845 H 0.51915 0.47908 0.95849 0.0
H1846 H 0.50454 0.48445 0.91171 0.0
H1847 H 0.5 0.46768 0.95211 0.0
H1848 H 0.46318 0.47848 0.80008 0.0
H1849 H 0.45321 0.4395 0.9021 0.0
H1850 H 0.50444 0.46878 0.77733 0.0
H1851 H 0.50463 0.48435 0.82348 0.0
H1852 H 0.48975 0.48559 0.77494 0.0
H1853 H 0.49221 0.42199 0.90583 0.0
H1854 H 0.47461 0.42581 0.94459 0.0
H1855 H 0.4935 0.43755 0.95173 0.0
C1856 C 0.9627 0.5263 0.35206 0.0
C1857 C 0.95272 0.53892 0.33292 0.0
C1858 C 0.97993 0.5282 0.35523 0.0
C1859 C 0.98736 0.54296 0.33799 0.0
C1860 C 0.97728 0.55603 0.32052 0.0
C1861 C 0.96002 0.5539 0.31855 0.0
C1862 C 0.99023 0.51408 0.37488 0.0
C1863 C 0.98478 0.57187 0.3013 0.0
C1864 C 0.03292 0.55014 0.3668 0.0
C1865 C 0.04051 0.54337 0.3256 0.0
C1866 C 0.01556 0.55035 0.37126 0.0
C1867 C 0.00569 0.54388 0.33325 0.0
C1868 C 0.01334 0.5375 0.29099 0.0
C1869 C 0.03065 0.5372 0.28789 0.0
C1870 C 0.00781 0.55703 0.4171 0.0
C1871 C 0.00324 0.53069 0.24933 0.0
H1872 H 0.95705 0.51477 0.36371 0.0
H1873 H 0.95232 0.56368 0.30373 0.0
H1874 H 0.99745 0.50838 0.34495 0.0
H1875 H -0.00077 0.51871 0.4021 0.0
H1876 H 0.98248 0.5043 0.39195 0.0
H1877 H 0.97523 0.58146 0.29377 0.0
H1878 H 0.99387 0.57698 0.3275 0.0
H1879 H 0.99156 0.56923 0.26715 0.0
H1880 H 0.04055 0.55488 0.39605 0.0
H1881 H 0.03649 0.53207 0.25578 0.0
H1882 H 0.00113 0.54693 0.43618 0.0
H1883 H 0.99856 0.56674 0.40822 0.0
H1884 H 0.01717 0.56237 0.4422 0.0
H1885 H 0.99621 0.51963 0.26149 0.0
H1886 H 0.01109 0.52709 0.21792 0.0
H1887 H 0.99408 0.54005 0.23702 0.0
C1888 C 0.967 0.43257 0.78061 0.0
C1889 C 0.95789 0.44571 0.76085 0.0
C1890 C 0.98437 0.43255 0.77855 0.0
C1891 C 0.99268 0.44582 0.75534 0.0
C1892 C 0.98344 0.45834 0.73167 0.0
C1893 C 0.96611 0.45824 0.73521 0.0
C1894 C 0.99379 0.41909 0.80479 0.0
C1895 C 0.99185 0.47249 0.70562 0.0
C1896 C 0.0334 0.45979 0.80929 0.0
C1897 C 0.04495 0.45261 0.77772 0.0
C1898 C 0.01639 0.45748 0.80249 0.0
C1899 C 0.01077 0.44803 0.76249 0.0
C1900 C 0.02235 0.4409 0.73004 0.0
C1901 C 0.03939 0.44313 0.73837 0.0
C1902 C 0.00444 0.4651 0.83839 0.0
C1903 C 0.01673 0.43104 0.68652 0.0
H1904 H 0.96064 0.42286 0.80043 0.0
H1905 H 0.95903 0.46831 0.71938 0.0
H1906 H 0.00404 0.41429 0.78196 0.0
H1907 H -0.00058 0.42432 0.8382 0.0
H1908 H 0.98565 0.40858 0.81528 0.0
H1909 H 0.98306 0.47955 0.68246 0.0
H1910 H 0.99725 0.48114 0.73263 0.0
H1911 H 0.00214 0.46786 0.68264 0.0
H1912 H 0.03768 0.46703 0.83996 0.0
H1913 H 0.04834 0.43763 0.71384 0.0
H1914 H 0.99641 0.45534 0.85428 0.0
H1915 H 0.99624 0.47409 0.81964 0.0
H1916 H 0.0109 0.47165 0.86837 0.0
H1917 H 0.00923 0.42026 0.69839 0.0
H1918 H 0.02731 0.42648 0.66446 0.0
H1919 H 0.00866 0.43883 0.66318 0.0
C1920 C 0.4645 0.54487 0.24166 0.0
C1921 C 0.45529 0.55303 0.27755 0.0
C1922 C 0.48187 0.54474 0.24319 0.0
C1923 C 0.49013 0.5528 0.28183 0.0
C1924 C 0.48092 0.56218 0.31589 0.0
C1925 C 0.46356 0.56226 0.31316 0.0
C1926 C 0.49127 0.53487 0.20563 0.0
C1927 C 0.48929 0.57095 0.35761 0.0
C1928 C 0.5299 0.5326 0.32484 0.0
C1929 C 0.54194 0.54316 0.30535 0.0
C1930 C 0.51299 0.53574 0.31776 0.0
C1931 C 0.50804 0.54968 0.29005 0.0
C1932 C 0.52015 0.56037 0.27011 0.0
C1933 C 0.53699 0.55702 0.27823 0.0
C1934 C 0.50041 0.52411 0.33996 0.0
C1935 C 0.51531 0.57523 0.23997 0.0
H1936 H 0.45813 0.53782 0.21385 0.0
H1937 H 0.45647 0.56857 0.341 0.0
H1938 H 0.50208 0.54199 0.19207 0.0
H1939 H 0.49607 0.52333 0.2224 0.0
H1940 H 0.48332 0.53143 0.17431 0.0
H1941 H 0.4807 0.57946 0.3769 0.0
H1942 H 0.49392 0.56162 0.38392 0.0
H1943 H 0.50014 0.57815 0.3447 0.0
H1944 H 0.53369 0.52191 0.34596 0.0
H1945 H 0.54629 0.5652 0.26297 0.0
H1946 H 0.49276 0.5184 0.311 0.0
H1947 H 0.4919 0.53112 0.36405 0.0
H1948 H 0.50631 0.51405 0.36139 0.0
H1949 H 0.50807 0.57116 0.20789 0.0
H1950 H 0.52626 0.58236 0.22725 0.0
H1951 H 0.50722 0.5836 0.26138 0.0
C1952 C 0.22036 0.14941 0.25552 0.0
C1953 C 0.22562 0.13982 0.21603 0.0
C1954 C 0.22866 0.1487 0.30013 0.0
C1955 C 0.24227 0.13779 0.30581 0.0
C1956 C 0.24703 0.12736 0.26689 0.0
C1957 C 0.2388 0.12869 0.2221 0.0
C1958 C 0.2234 0.16031 0.3403 0.0
C1959 C 0.26113 0.1152 0.27207 0.0
C1960 C 0.27396 0.15147 0.39904 0.0
C1961 C 0.26845 0.1432 0.4407 0.0
C1962 C 0.26586 0.14939 0.35445 0.0
C1963 C 0.25222 0.13839 0.35121 0.0
C1964 C 0.24725 0.12923 0.39256 0.0
C1965 C 0.25526 0.13196 0.43712 0.0
C1966 C 0.27131 0.1597 0.31156 0.0
C1967 C 0.23312 0.11701 0.39015 0.0
H1968 H 0.21025 0.15811 0.25088 0.0
H1969 H 0.24283 0.12121 0.19164 0.0
H1970 H 0.22068 0.15323 0.37383 0.0
H1971 H 0.23367 0.16899 0.34876 0.0
H1972 H 0.21226 0.16768 0.33051 0.0
H1973 H 0.26185 0.10651 0.24087 0.0
H1974 H 0.27304 0.12202 0.27454 0.0
H1975 H 0.25975 0.10791 0.30597 0.0
H1976 H 0.2841 0.16025 0.4018 0.0
H1977 H 0.25107 0.12546 0.46928 0.0
H1978 H 0.26118 0.16827 0.30095 0.0
H1979 H 0.27391 0.15163 0.27991 0.0
H1980 H 0.28257 0.16714 0.31955 0.0
H1981 H 0.22124 0.12377 0.38573 0.0
H1982 H 0.2323 0.10927 0.4234 0.0
H1983 H 0.23456 0.10875 0.35824 0.0
C1984 C 0.10422 0.97583 0.49126 0.0
C1985 C 0.11054 0.98333 0.44933 0.0
C1986 C 0.10568 0.98353 0.5366 0.0
C1987 C 0.11412 -0.00113 0.54028 0.0
C1988 C 0.12141 0.00601 0.49847 0.0
C1989 C 0.11928 0.99828 0.45321 0.0
C1990 C 0.0974 0.97567 0.58005 0.0
C1991 C 0.13098 0.02206 0.50129 0.0
C1992 C 0.09945 0.02591 0.64398 0.0
C1993 C 0.11041 0.02133 0.68103 0.0
C1994 C 0.10093 0.01917 0.59733 0.0
C1995 C 0.11399 0.00795 0.5872 0.0
C1996 C 0.12579 0.00421 0.62361 0.0
C1997 C 0.12369 0.01073 0.67046 0.0
C1998 C 0.08786 0.0232 0.55989 0.0
C1999 C 0.14019 0.99276 0.6137 0.0
H2000 H 0.09736 0.96431 0.4883 0.0
H2001 H 0.12426 0.00403 0.4208 0.0
H2002 H 0.1065 0.97385 0.60971 0.0
H2003 H 0.08756 0.98403 0.59401 0.0
H2004 H 0.0917 0.9635 0.57126 0.0
H2005 H 0.13778 0.02472 0.46713 0.0
H2006 H 0.12232 0.03245 0.50847 0.0
H2007 H 0.13997 0.02165 0.53171 0.0
H2008 H 0.08912 0.03404 0.65215 0.0
H2009 H 0.13225 0.00728 0.69905 0.0
H2010 H 0.08076 0.01182 0.55093 0.0
H2011 H 0.09372 0.02763 0.5259 0.0
H2012 H 0.07902 0.03281 0.57276 0.0
H2013 H 0.13564 0.97984 0.61035 0.0
H2014 H 0.14958 0.99317 0.64315 0.0
H2015 H 0.14627 0.99606 0.57891 0.0
C2016 C 0.23467 0.86852 0.9184 0.0
C2017 C 0.22242 0.85632 0.92329 0.0
C2018 C 0.24314 0.87064 0.87419 0.0
C2019 C 0.23962 0.85993 0.83478 0.0
C2020 C 0.22717 0.84767 0.83966 0.0
C2021 C 0.21857 0.84619 0.88357 0.0
C2022 C 0.25596 0.88418 0.86979 0.0
C2023 C 0.22328 0.83571 0.79902 0.0
C2024 C 0.25023 0.86759 0.70271 0.0
C2025 C 0.26431 0.8576 0.69698 0.0
C2026 C 0.2428 0.86957 0.74842 0.0
C2027 C 0.24927 0.86088 0.78884 0.0
C2028 C 0.26391 0.85135 0.78354 0.0
C2029 C 0.27139 0.85003 0.73774 0.0
C2030 C 0.22753 0.88027 0.75291 0.0
C2031 C 0.271 0.84154 0.82535 0.0
H2032 H 0.23761 0.8764 0.94906 0.0
H2033 H 0.2092 0.83664 0.88736 0.0
H2034 H 0.26844 0.87863 0.8652 0.0
H2035 H 0.25347 0.89184 0.83715 0.0
H2036 H 0.25618 0.89238 0.90216 0.0
H2037 H 0.21338 0.82676 0.80896 0.0
H2038 H 0.21927 0.84261 0.76628 0.0
H2039 H 0.2346 0.82864 0.78914 0.0
H2040 H 0.24483 0.87358 0.67125 0.0
H2041 H 0.28224 0.84223 0.73333 0.0
H2042 H 0.22837 0.8883 0.78551 0.0
H2043 H 0.21644 0.87229 0.75728 0.0
H2044 H 0.22568 0.88823 0.72047 0.0
H2045 H 0.27254 0.84955 0.85771 0.0
H2046 H 0.28317 0.83589 0.81632 0.0
H2047 H 0.26225 0.83148 0.83536 0.0
C2048 C 0.4026 0.02714 0.99933 0.0
C2049 C 0.39359 0.02191 0.9587 0.0
C2050 C 0.40119 0.01885 0.04382 0.0
C2051 C 0.39008 0.00534 0.04819 0.0
C2052 C 0.38025 0.0006 0.00793 0.0
C2053 C 0.38235 0.00876 0.96328 0.0
C2054 C 0.41223 0.02404 0.08541 0.0
C2055 C 0.36785 0.98665 0.01169 0.0
C2056 C 0.40164 0.97366 0.14393 0.0
C2057 C 0.39283 0.97946 0.18427 0.0
C2058 C 0.40046 0.98169 0.09894 0.0
C2059 C 0.38979 0.99552 0.09386 0.0
C2060 C 0.38006 0.00078 0.13379 0.0
C2061 C 0.38194 0.99287 0.17888 0.0
C2062 C 0.41139 0.97596 0.05772 0.0
C2063 C 0.36811 0.01509 0.12933 0.0
H2064 H 0.4114 0.03723 0.99573 0.0
H2065 H 0.37531 0.00477 0.93188 0.0
H2066 H 0.40466 0.02707 0.11777 0.0
H2067 H 0.42053 0.01362 0.0955 0.0
H2068 H 0.42 0.03497 0.07628 0.0
H2069 H 0.35973 0.98591 0.97922 0.0
H2070 H 0.37447 0.97468 0.01564 0.0
H2071 H 0.35998 0.98827 0.04437 0.0
H2072 H 0.41015 0.96336 0.14816 0.0
H2073 H 0.37503 0.99728 0.21004 0.0
H2074 H 0.42027 0.98594 0.04805 0.0
H2075 H 0.40382 0.97336 0.02503 0.0
H2076 H 0.41854 0.96463 0.06706 0.0
H2077 H 0.37512 0.02686 0.12568 0.0
H2078 H 0.35983 0.01611 0.1614 0.0
H2079 H 0.36038 0.0137 0.09628 0.0
C2080 C 0.77309 0.83922 0.90847 0.0
C2081 C 0.77001 0.84911 0.94922 0.0
C2082 C 0.76513 0.84232 0.86422 0.0
C2083 C 0.75423 0.85602 0.86014 0.0
C2084 C 0.75158 0.86647 0.90072 0.0
C2085 C 0.75927 0.8627 0.94518 0.0
C2086 C 0.76794 0.83057 0.82235 0.0
C2087 C 0.7405 0.88151 0.89728 0.0
C2088 C 0.74488 0.86669 0.72881 0.0
C2089 C 0.72967 0.85864 0.72205 0.0
C2090 C 0.75248 0.86705 0.77469 0.0
C2091 C 0.74495 0.85863 0.81408 0.0
C2092 C 0.72927 0.85106 0.80773 0.0
C2093 C 0.7217 0.8514 0.76196 0.0
C2094 C 0.7689 0.87578 0.78045 0.0
C2095 C 0.72101 0.84155 0.84829 0.0
H2096 H 0.78131 0.82864 0.91166 0.0
H2097 H 0.75699 0.87042 0.97665 0.0
H2098 H 0.75597 0.82496 0.81114 0.0
H2099 H 0.77292 0.8374 0.79064 0.0
H2100 H 0.77671 0.82044 0.83165 0.0
H2101 H 0.74106 0.88927 0.93053 0.0
H2102 H 0.74411 0.88921 0.86563 0.0
H2103 H 0.72748 0.87757 0.89154 0.0
H2104 H 0.75101 0.87239 0.69803 0.0
H2105 H 0.70998 0.84506 0.75677 0.0
H2106 H 0.77896 0.86648 0.78382 0.0
H2107 H 0.76897 0.88338 0.81401 0.0
H2108 H 0.77173 0.88392 0.74901 0.0
H2109 H 0.72862 0.83053 0.85753 0.0
H2110 H 0.70836 0.83729 0.83835 0.0
H2111 H 0.72014 0.84929 0.88139 0.0
C2112 C 0.90302 0.01911 0.65169 0.0
C2113 C 0.89322 0.01501 0.69192 0.0
C2114 C 0.90136 0.01058 0.60771 0.0
C2115 C 0.88934 0.99789 0.60346 0.0
C2116 C 0.87893 0.99413 0.64335 0.0
C2117 C 0.88114 0.00261 0.68745 0.0
C2118 C 0.91292 0.01479 0.56634 0.0
C2119 C 0.86569 0.98097 0.63972 0.0
C2120 C 0.8809 0.98638 0.47245 0.0
C2121 C 0.89132 0.97263 0.46655 0.0
C2122 C 0.87916 0.99406 0.51788 0.0
C2123 C 0.88843 0.98809 0.55786 0.0
C2124 C 0.89838 0.97374 0.5525 0.0
C2125 C 0.89955 0.96607 0.50698 0.0
C2126 C 0.86808 0.00906 0.52248 0.0
C2127 C 0.90868 0.96714 0.59397 0.0
H2128 H 0.91243 0.02863 0.65506 0.0
H2129 H 0.8735 -0.00052 0.71847 0.0
H2130 H 0.9204 0.00373 0.55658 0.0
H2131 H 0.90568 0.01835 0.53377 0.0
H2132 H 0.9215 0.0251 0.57547 0.0
H2133 H 0.85764 0.98062 0.67239 0.0
H2134 H 0.85784 0.98317 0.60731 0.0
H2135 H 0.87155 0.96863 0.6352 0.0
H2136 H 0.8744 0.99139 0.4413 0.0
H2137 H 0.90765 0.95546 0.50251 0.0
H2138 H 0.8758 0.02036 0.52619 0.0
H2139 H 0.86027 0.00811 0.55549 0.0
H2140 H 0.85989 0.0106 0.49039 0.0
H2141 H 0.91848 0.97626 0.60324 0.0
H2142 H 0.91471 0.95514 0.58496 0.0
H2143 H 0.90091 0.96541 0.62676 0.0
C2144 C 0.77554 0.14614 0.23545 0.0
C2145 C 0.7694 0.13776 0.19472 0.0
C2146 C 0.76769 0.14477 0.28064 0.0
C2147 C 0.75361 0.13442 0.28549 0.0
C2148 C 0.74806 0.12502 0.24527 0.0
C2149 C 0.75589 0.12698 0.20007 0.0
C2150 C 0.77384 0.15525 0.32234 0.0
C2151 C 0.73341 0.11347 0.2494 0.0
C2152 C 0.74013 0.12734 0.416 0.0
C2153 C 0.72765 0.13932 0.42103 0.0
C2154 C 0.74807 0.12486 0.37118 0.0
C2155 C 0.74375 0.13495 0.33108 0.0
C2156 C 0.73078 0.14669 0.33572 0.0
C2157 C 0.72276 0.14857 0.38047 0.0
C2158 C 0.76148 0.11188 0.36721 0.0
C2159 C 0.72599 0.15793 0.29418 0.0
H2160 H 0.78595 0.15453 0.23144 0.0
H2161 H 0.75119 0.12038 0.1687 0.0
H2162 H 0.76426 0.16455 0.33208 0.0
H2163 H 0.77601 0.14745 0.35483 0.0
H2164 H 0.78551 0.1619 0.31341 0.0
H2165 H 0.73228 0.10522 0.21731 0.0
H2166 H 0.73447 0.10571 0.2825 0.0
H2167 H 0.72185 0.12082 0.25266 0.0
H2168 H 0.74386 0.1201 0.44727 0.0
H2169 H 0.71316 0.15789 0.38426 0.0
H2170 H 0.77374 0.118 0.36394 0.0
H2171 H 0.75965 0.10426 0.33414 0.0
H2172 H 0.76174 0.10357 0.39934 0.0
H2173 H 0.73665 0.16595 0.28436 0.0
H2174 H 0.71526 0.166 0.30324 0.0
H2175 H 0.7228 0.15049 0.26168 0.0
C2176 C 0.59368 0.9824 0.15494 0.0
C2177 C 0.60464 0.98547 0.19326 0.0
C2178 C 0.59561 0.99033 0.11008 0.0
C2179 C 0.60917 0.0012 0.10287 0.0
C2180 C 0.62057 0.004 0.14109 0.0
C2181 C 0.618 0.99631 0.18626 0.0
C2182 C 0.5829 0.98735 0.07077 0.0
C2183 C 0.63545 0.0151 0.13423 0.0
C2184 C 0.61762 0.00941 0.96958 0.0
C2185 C 0.60957 0.02463 0.96289 0.0
C2186 C 0.61861 0.00213 0.0158 0.0
C2187 C 0.61089 0.01003 0.05576 0.0
C2188 C 0.60327 0.02569 0.04939 0.0
C2189 C 0.60292 0.0329 0.00312 0.0
C2190 C 0.62729 0.98567 0.02145 0.0
C2191 C 0.59451 0.03433 0.0907 0.0
H2192 H 0.58328 0.97409 0.16046 0.0
H2193 H 0.62656 0.99857 0.21584 0.0
H2194 H 0.57718 -0.00072 0.0598 0.0
H2195 H 0.58897 0.98204 0.03819 0.0
H2196 H 0.57291 0.97877 0.0826 0.0
H2197 H 0.64368 0.01518 0.16654 0.0
H2198 H 0.64273 0.01096 0.10229 0.0
H2199 H 0.63134 0.02798 0.12691 0.0
H2200 H 0.62287 0.00305 0.93852 0.0
H2201 H 0.59658 0.04463 0.99801 0.0
H2202 H 0.61799 0.97577 0.02764 0.0
H2203 H 0.63563 0.98589 0.05345 0.0
H2204 H 0.63468 0.98239 0.98881 0.0
H2205 H 0.58361 0.02688 0.10205 0.0
H2206 H 0.59017 0.04693 0.08052 0.0
H2207 H 0.60282 0.0354 0.12257 0.0
C2208 C 0.77256 0.62814 0.87865 0.0
C2209 C 0.76453 0.63798 0.91337 0.0
C2210 C 0.76665 0.62732 0.83072 0.0
C2211 C 0.75268 0.6369 0.81721 0.0
C2212 C 0.7443 0.64649 0.85254 0.0
C2213 C 0.75022 0.64675 0.90026 0.0
C2214 C 0.77561 0.6166 0.79431 0.0
C2215 C 0.72949 0.65707 0.83953 0.0
C2216 C 0.74675 0.65284 0.68917 0.0
C2217 C 0.73293 0.64369 0.67414 0.0
C2218 C 0.75386 0.65019 0.73495 0.0
C2219 C 0.74722 0.63781 0.76578 0.0
C2220 C 0.73402 0.62773 0.74923 0.0
C2221 C 0.72686 0.63096 0.70381 0.0
C2222 C 0.76772 0.66142 0.75157 0.0
C2223 C 0.72692 0.61409 0.78046 0.0
H2224 H 0.7836 0.6213 0.88875 0.0
H2225 H 0.744 0.65443 0.92691 0.0
H2226 H 0.76665 0.60873 0.77428 0.0
H2227 H 0.78196 0.62456 0.76727 0.0
H2228 H 0.78501 0.60849 0.81176 0.0
H2229 H 0.72425 0.66362 0.87149 0.0
H2230 H 0.73315 0.66646 0.8121 0.0
H2231 H 0.71962 0.64932 0.82316 0.0
H2232 H 0.75143 0.66272 0.66629 0.0
H2233 H 0.71626 0.62375 0.69197 0.0
H2234 H 0.77824 0.65401 0.76571 0.0
H2235 H 0.76324 0.66938 0.78167 0.0
H2236 H 0.77234 0.66954 0.72195 0.0
H2237 H 0.737 0.60655 0.79666 0.0
H2238 H 0.71856 0.60579 0.75959 0.0
H2239 H 0.71974 0.61961 0.81074 0.0
C2240 C 0.61814 0.4993 0.1926 0.0
C2241 C 0.60623 0.5119 0.19622 0.0
C2242 C 0.62089 0.49108 0.14829 0.0
C2243 C 0.61113 0.49522 0.10731 0.0
C2244 C 0.59925 0.50809 0.11083 0.0
C2245 C 0.59713 0.51641 0.155 0.0
C2246 C 0.63401 0.47778 0.14551 0.0
C2247 C 0.5883 0.51268 0.06842 0.0
C2248 C 0.62051 0.48425 0.97624 0.0
C2249 C 0.60992 0.4707 0.969 0.0
C2250 C 0.62207 0.49161 0.02225 0.0
C2251 C 0.61241 0.48557 0.0614 0.0
C2252 C 0.60233 0.47139 0.05469 0.0
C2253 C 0.60139 0.464 0.00872 0.0
C2254 C 0.63336 0.50638 0.02831 0.0
C2255 C 0.59154 0.46475 0.09505 0.0
H2256 H 0.62526 0.49587 0.22438 0.0
H2257 H 0.58784 0.52609 0.1577 0.0
H2258 H 0.62808 0.46552 0.14015 0.0
H2259 H 0.64225 0.48 0.11391 0.0
H2260 H 0.6417 0.47726 0.17891 0.0
H2261 H 0.5797 0.52302 0.07714 0.0
H2262 H 0.59599 0.51637 0.03689 0.0
H2263 H 0.58084 0.50177 0.05722 0.0
H2264 H 0.62722 0.4894 0.94567 0.0
H2265 H 0.59313 0.45356 0.00327 0.0
H2266 H 0.64071 0.50525 0.06218 0.0
H2267 H 0.62582 0.51783 0.0312 0.0
H2268 H 0.642 0.50778 0.99718 0.0
H2269 H 0.59895 0.46278 0.12841 0.0
H2270 H 0.58544 0.45288 0.08512 0.0
H2271 H 0.58177 0.47397 0.10384 0.0
C2272 C 0.74743 0.34821 0.42512 0.0
C2273 C 0.73323 0.35723 0.4377 0.0
C2274 C 0.7541 0.34916 0.37826 0.0
C2275 C 0.74664 0.35974 0.34354 0.0
C2276 C 0.73284 0.36959 0.35691 0.0
C2277 C 0.72614 0.36804 0.40372 0.0
C2278 C 0.76863 0.33821 0.36521 0.0
C2279 C 0.72484 0.38134 0.32131 0.0
C2280 C 0.77272 0.36744 0.23105 0.0
C2281 C 0.76587 0.35601 0.19844 0.0
C2282 C 0.76604 0.36945 0.27774 0.0
C2283 C 0.75253 0.35943 0.29244 0.0
C2284 C 0.74533 0.34816 0.25914 0.0
C2285 C 0.75196 0.34676 0.21231 0.0
C2286 C 0.77372 0.38193 0.31177 0.0
C2287 C 0.73114 0.337 0.27368 0.0
H2288 H 0.75288 0.33977 0.45125 0.0
H2289 H 0.71521 0.3751 0.41351 0.0
H2290 H 0.76484 0.32926 0.33671 0.0
H2291 H 0.77889 0.34576 0.35012 0.0
H2292 H 0.77337 0.33115 0.39689 0.0
H2293 H 0.71556 0.38952 0.33898 0.0
H2294 H 0.73439 0.38918 0.30358 0.0
H2295 H 0.71854 0.37418 0.29235 0.0
H2296 H 0.78341 0.37469 0.22023 0.0
H2297 H 0.74671 0.33784 0.18724 0.0
H2298 H 0.78015 0.37537 0.34172 0.0
H2299 H 0.76397 0.38981 0.32835 0.0
H2300 H 0.78284 0.39004 0.29308 0.0
H2301 H 0.73516 0.32865 0.30343 0.0
H2302 H 0.72663 0.32929 0.24302 0.0
H2303 H 0.72064 0.34449 0.28763 0.0
C2304 C 0.89984 0.46195 0.62528 0.0
C2305 C 0.89109 0.46757 0.66598 0.0
C2306 C 0.89806 0.46974 0.58013 0.0
C2307 C 0.88682 0.48312 0.57523 0.0
C2308 C 0.87709 0.48808 0.61547 0.0
C2309 C 0.87957 0.48044 0.66073 0.0
C2310 C 0.90903 0.46435 0.5386 0.0
C2311 C 0.86455 0.50189 0.61123 0.0
C2312 C 0.89852 0.51501 0.48027 0.0
C2313 C 0.88975 0.50936 0.43967 0.0
C2314 C 0.89734 0.5068 0.52494 0.0
C2315 C 0.88668 0.49294 0.52952 0.0
C2316 C 0.87705 0.48777 0.4893 0.0
C2317 C 0.87895 0.49586 0.44445 0.0
C2318 C 0.90818 0.51245 0.56647 0.0
C2319 C 0.8651 0.47344 0.49329 0.0
H2320 H 0.90885 0.45207 0.62934 0.0
H2321 H 0.87273 0.48473 0.69216 0.0
H2322 H 0.90145 0.46149 0.50612 0.0
H2323 H 0.91755 0.47461 0.5287 0.0
H2324 H 0.91657 0.45326 0.54777 0.0
H2325 H 0.85619 0.50243 0.64322 0.0
H2326 H 0.87106 0.51395 0.60812 0.0
H2327 H 0.85693 0.50031 0.57802 0.0
H2328 H 0.90697 0.52538 0.47653 0.0
H2329 H 0.87208 0.49157 0.41308 0.0
H2330 H 0.91684 0.50234 0.57676 0.0
H2331 H 0.90049 0.51528 0.59875 0.0
H2332 H 0.91557 0.52363 0.55718 0.0
H2333 H 0.87209 0.46168 0.49712 0.0
H2334 H 0.85694 0.47245 0.46096 0.0
H2335 H 0.85725 0.47482 0.5261 0.0
C2336 C 0.23494 0.36886 0.2183 0.0
C2337 C 0.22212 0.35727 0.21336 0.0
C2338 C 0.24265 0.37142 0.26339 0.0
C2339 C 0.23774 0.36175 0.3038 0.0
C2340 C 0.22441 0.35044 0.29923 0.0
C2341 C 0.21661 0.34852 0.2542 0.0
C2342 C 0.25645 0.38398 0.26731 0.0
C2343 C 0.21905 0.33959 0.34107 0.0
C2344 C 0.26958 0.35028 0.39888 0.0
C2345 C 0.264 0.35926 0.43919 0.0
C2346 C 0.26138 0.35134 0.35423 0.0
C2347 C 0.24756 0.36204 0.3494 0.0
C2348 C 0.24243 0.37184 0.3893 0.0
C2349 C 0.25056 0.37012 0.43412 0.0
C2350 C 0.267 0.34037 0.31297 0.0
C2351 C 0.22809 0.38377 0.38502 0.0
H2352 H 0.23912 0.37573 0.18679 0.0
H2353 H 0.20674 0.33949 0.25041 0.0
H2354 H 0.25478 0.39177 0.30013 0.0
H2355 H 0.2685 0.37748 0.27098 0.0
H2356 H 0.25706 0.39217 0.23496 0.0
H2357 H 0.20797 0.33201 0.33216 0.0
H2358 H 0.22933 0.33111 0.35115 0.0
H2359 H 0.21621 0.34727 0.37337 0.0
H2360 H 0.27993 0.34181 0.40281 0.0
H2361 H 0.24633 0.37716 0.46523 0.0
H2362 H 0.26976 0.34794 0.28039 0.0
H2363 H 0.25692 0.33164 0.3031 0.0
H2364 H 0.27822 0.33305 0.32234 0.0
H2365 H 0.22947 0.39154 0.35205 0.0
H2366 H 0.22707 0.39201 0.41718 0.0
H2367 H 0.21634 0.37675 0.38129 0.0
C2368 C 0.37719 0.48365 0.96664 0.0
C2369 C 0.38847 0.49119 0.93494 0.0
C2370 C 0.37455 0.49005 0.01335 0.0
C2371 C 0.38389 0.5039 0.02902 0.0
C2372 C 0.39452 0.51214 0.99599 0.0
C2373 C 0.39649 0.50581 0.94901 0.0
C2374 C 0.3626 0.48133 0.04688 0.0
C2375 C 0.40498 0.52674 0.01149 0.0
C2376 C 0.37787 0.52644 0.14876 0.0
C2377 C 0.38974 0.51853 0.17777 0.0
C2378 C 0.37501 0.52117 0.10087 0.0
C2379 C 0.3847 0.50813 0.08139 0.0
C2380 C 0.39633 0.49981 0.11118 0.0
C2381 C 0.39851 0.50496 0.1592 0.0
C2382 C 0.36206 0.5299 0.07073 0.0
C2383 C 0.40716 0.48605 0.09164 0.0
H2384 H 0.37083 0.47243 0.95552 0.0
H2385 H 0.40524 0.51163 0.92451 0.0
H2386 H 0.36963 0.47366 0.07319 0.0
H2387 H 0.35522 0.49045 0.06793 0.0
H2388 H 0.354 0.47308 0.02668 0.0
H2389 H 0.41145 0.53264 0.98039 0.0
H2390 H 0.39724 0.53622 0.02975 0.0
H2391 H 0.41443 0.52253 0.03802 0.0
H2392 H 0.371 0.53688 0.16323 0.0
H2393 H 0.40775 0.49886 0.18149 0.0
H2394 H 0.35444 0.52078 0.05048 0.0
H2395 H 0.36822 0.53799 0.04366 0.0
H2396 H 0.35375 0.5377 0.09335 0.0
H2397 H 0.39939 0.47593 0.07677 0.0
H2398 H 0.41546 0.48076 0.11981 0.0
H2399 H 0.41493 0.49084 0.0615 0.0
C2400 C 0.21348 0.64684 0.87735 0.0
C2401 C 0.22052 0.63845 0.9168 0.0
C2402 C 0.22061 0.64591 0.83105 0.0
C2403 C 0.2349 0.63601 0.82387 0.0
C2404 C 0.24125 0.62645 0.86274 0.0
C2405 C 0.23411 0.62796 0.90901 0.0
C2406 C 0.21363 0.65655 0.79087 0.0
C2407 C 0.25617 0.61538 0.85618 0.0
C2408 C 0.24879 0.63001 0.69305 0.0
C2409 C 0.26131 0.64198 0.68926 0.0
C2410 C 0.24041 0.62746 0.73718 0.0
C2411 C 0.24438 0.63745 0.77779 0.0
C2412 C 0.25709 0.6495 0.77402 0.0
C2413 C 0.26553 0.65146 0.73 0.0
C2414 C 0.22726 0.6142 0.74028 0.0
C2415 C 0.26148 0.66066 0.81613 0.0
H2416 H 0.20299 0.65501 0.88325 0.0
H2417 H 0.23951 0.62135 0.9394 0.0
H2418 H 0.22255 0.66661 0.7822 0.0
H2419 H 0.21185 0.64915 0.7574 0.0
H2420 H 0.20159 0.66228 0.801 0.0
H2421 H 0.25784 0.60679 0.88729 0.0
H2422 H 0.25502 0.608 0.82239 0.0
H2423 H 0.26748 0.62311 0.85283 0.0
H2424 H 0.2456 0.6226 0.66161 0.0
H2425 H 0.27515 0.66079 0.7271 0.0
H2426 H 0.21499 0.61997 0.74689 0.0
H2427 H 0.22983 0.60583 0.77132 0.0
H2428 H 0.22651 0.60668 0.7066 0.0
H2429 H 0.25042 0.66788 0.82742 0.0
H2430 H 0.2716 0.66947 0.80706 0.0
H2431 H 0.26543 0.65311 0.84771 0.0
C2432 C 0.11629 0.522 0.47281 0.0
C2433 C 0.10412 0.51565 0.44163 0.0
C2434 C 0.11862 0.51531 0.51934 0.0
C2435 C 0.10825 0.50225 0.53535 0.0
C2436 C 0.09623 0.49553 0.50347 0.0
C2437 C 0.09445 0.50219 0.45677 0.0
C2438 C 0.13185 0.52251 0.55184 0.0
C2439 C 0.08473 0.4818 0.51943 0.0
C2440 C 0.11742 0.47565 0.64583 0.0
C2441 C 0.10729 0.48309 0.68092 0.0
C2442 C 0.11857 0.48226 0.59879 0.0
C2443 C 0.10903 0.49638 0.58643 0.0
C2444 C 0.09922 0.50425 0.62228 0.0
C2445 C 0.09862 0.49761 0.66924 0.0
C2446 C 0.12951 0.4738 0.56191 0.0
C2447 C 0.08867 0.51917 0.6104 0.0
H2448 H 0.12387 0.53235 0.46103 0.0
H2449 H 0.08498 0.4973 0.43281 0.0
H2450 H 0.12596 0.52917 0.58253 0.0
H2451 H 0.13958 0.51247 0.56748 0.0
H2452 H 0.14003 0.53132 0.53219 0.0
H2453 H 0.07644 0.47757 0.48972 0.0
H2454 H 0.09198 0.47103 0.53265 0.0
H2455 H 0.07694 0.48617 0.55006 0.0
H2456 H 0.12421 0.46446 0.65485 0.0
H2457 H 0.09071 0.50336 0.69621 0.0
H2458 H 0.13744 0.48303 0.54312 0.0
H2459 H 0.12171 0.46774 0.53393 0.0
H2460 H 0.13759 0.46423 0.57869 0.0
H2461 H 0.09638 0.52911 0.59416 0.0
H2462 H 0.08229 0.52425 0.64289 0.0
H2463 H 0.07915 0.5157 0.58318 0.0
loop_
_geom_bond_atom_site_label_1
_geom_bond_atom_site_label_2
_geom_bond_distance
_geom_bond_site_symmetry_2
_ccdc_geom_bond_type
In0 O1 2.294 . S
In0 O2 2.326 1_554 S
In0 O6 2.266 . S
In0 O7 2.326 . S
In0 O8 2.266 . S
In0 O9 2.326 . S
In0 O11 2.294 . S
In0 O12 2.326 . S
O1 In0 2.294 . S
O1 C10 1.240 1_554 S
O2 In0 2.326 1_556 S
O2 C10 1.252 . S
C3 O6 1.252 . S
C3 O7 1.260 . S
C4 O11 1.240 . S
C4 O12 1.252 . S
C5 O8 1.252 . S
C5 O9 1.260 . S
O6 In0 2.266 . S
O6 C3 1.252 . S
O7 In0 2.326 . S
O7 C3 1.260 . S
O8 In0 2.266 . S
O8 C5 1.252 . S
O9 In0 2.326 . S
O9 C5 1.260 . S
C10 O1 1.240 1_556 S
C10 O2 1.252 . S
O11 In0 2.294 . S
O11 C4 1.240 . S
O12 In0 2.326 . S
O12 C4 1.252 . S
In13 O14 2.294 . S
In13 O15 2.326 . S
In13 O19 2.266 . S
In13 O20 2.326 . S
In13 O21 2.266 . S
In13 O22 2.326 . S
In13 O24 2.294 . S
In13 O25 2.326 . S
O14 In13 2.294 . S
O14 C23 1.240 . S
O15 In13 2.326 . S
O15 C23 1.252 . S
C16 O19 1.252 . S
C16 O20 1.260 . S
C17 O24 1.240 . S
C17 O25 1.252 . S
C18 O21 1.252 . S
C18 O22 1.260 . S
O19 In13 2.266 . S
O19 C16 1.252 . S
O20 In13 2.326 . S
O20 C16 1.260 . S
O21 In13 2.266 . S
O21 C18 1.252 . S
O22 In13 2.326 . S
O22 C18 1.260 . S
C23 O14 1.240 . S
C23 O15 1.252 . S
O24 In13 2.294 . S
O24 C17 1.240 . S
O25 In13 2.326 . S
O25 C17 1.252 . S
In26 O27 2.294 . S
In26 O28 2.326 . S
In26 O32 2.266 . S
In26 O33 2.326 . S
In26 O34 2.266 . S
In26 O35 2.326 . S
In26 O37 2.294 . S
In26 O38 2.326 . S
O27 In26 2.294 . S
O27 C36 1.240 . S
O28 In26 2.326 . S
O28 C36 1.252 . S
C29 O32 1.252 . S
C29 O33 1.260 . S
C30 O37 1.240 . S
C30 O38 1.252 . S
C31 O34 1.252 . S
C31 O35 1.260 . S
O32 In26 2.266 . S
O32 C29 1.252 . S
O33 In26 2.326 . S
O33 C29 1.260 . S
O34 In26 2.266 . S
O34 C31 1.252 . S
O35 In26 2.326 . S
O35 C31 1.260 . S
C36 O27 1.240 . S
C36 O28 1.252 . S
O37 In26 2.294 . S
O37 C30 1.240 . S
O38 In26 2.326 . S
O38 C30 1.252 . S
In39 O40 2.294 . S
In39 O41 2.326 . S
In39 O45 2.266 . S
In39 O46 2.326 . S
In39 O47 2.266 . S
In39 O48 2.326 . S
In39 O50 2.294 . S
In39 O51 2.326 . S
O40 In39 2.294 . S
O40 C49 1.240 . S
O41 In39 2.326 . S
O41 C49 1.252 . S
C42 O45 1.252 . S
C42 O46 1.260 . S
C43 O50 1.240 . S
C43 O51 1.252 . S
C44 O47 1.252 . S
C44 O48 1.260 . S
O45 In39 2.266 . S
O45 C42 1.252 . S
O46 In39 2.326 . S
O46 C42 1.260 . S
O47 In39 2.266 . S
O47 C44 1.252 . S
O48 In39 2.326 . S
O48 C44 1.260 . S
C49 O40 1.240 . S
C49 O41 1.252 . S
O50 In39 2.294 . S
O50 C43 1.240 . S
O51 In39 2.326 . S
O51 C43 1.252 . S
In52 O53 2.294 . S
In52 O54 2.326 . S
In52 O58 2.266 . S
In52 O59 2.326 1_554 S
In52 O60 2.266 . S
In52 O61 2.326 . S
In52 O63 2.294 . S
In52 O64 2.326 . S
O53 In52 2.294 . S
O53 C62 1.240 . S
O54 In52 2.326 . S
O54 C62 1.252 . S
C55 O58 1.252 1_556 S
C55 O59 1.260 . S
C56 O63 1.240 . S
C56 O64 1.252 . S
C57 O60 1.252 . S
C57 O61 1.260 . S
O58 In52 2.266 . S
O58 C55 1.252 1_554 S
O59 In52 2.326 1_556 S
O59 C55 1.260 . S
O60 In52 2.266 . S
O60 C57 1.252 . S
O61 In52 2.326 . S
O61 C57 1.260 . S
C62 O53 1.240 . S
C62 O54 1.252 . S
O63 In52 2.294 . S
O63 C56 1.240 . S
O64 In52 2.326 . S
O64 C56 1.252 . S
In65 O66 2.294 . S
In65 O67 2.326 . S
In65 O71 2.266 . S
In65 O72 2.326 . S
In65 O73 2.266 . S
In65 O74 2.326 . S
In65 O76 2.294 . S
In65 O77 2.326 . S
O66 In65 2.294 . S
O66 C75 1.240 . S
O67 In65 2.326 . S
O67 C75 1.252 . S
C68 O71 1.252 . S
C68 O72 1.260 . S
C69 O76 1.240 . S
C69 O77 1.252 . S
C70 O73 1.252 . S
C70 O74 1.260 . S
O71 In65 2.266 . S
O71 C68 1.252 . S
O72 In65 2.326 . S
O72 C68 1.260 . S
O73 In65 2.266 . S
O73 C70 1.252 . S
O74 In65 2.326 . S
O74 C70 1.260 . S
C75 O66 1.240 . S
C75 O67 1.252 . S
O76 In65 2.294 . S
O76 C69 1.240 . S
O77 In65 2.326 . S
O77 C69 1.252 . S
In78 O79 2.294 . S
In78 O80 2.326 . S
In78 O84 2.266 . S
In78 O85 2.326 . S
In78 O86 2.266 . S
In78 O87 2.326 . S
In78 O89 2.294 . S
In78 O90 2.326 . S
O79 In78 2.294 . S
O79 C88 1.240 . S
O80 In78 2.326 . S
O80 C88 1.252 . S
C81 O84 1.252 . S
C81 O85 1.260 . S
C82 O89 1.240 . S
C82 O90 1.252 . S
C83 O86 1.252 . S
C83 O87 1.260 . S
O84 In78 2.266 . S
O84 C81 1.252 . S
O85 In78 2.326 . S
O85 C81 1.260 . S
O86 In78 2.266 . S
O86 C83 1.252 . S
O87 In78 2.326 . S
O87 C83 1.260 . S
C88 O79 1.240 . S
C88 O80 1.252 . S
O89 In78 2.294 . S
O89 C82 1.240 . S
O90 In78 2.326 . S
O90 C82 1.252 . S
In91 O92 2.294 . S
In91 O93 2.326 . S
In91 O97 2.266 . S
In91 O98 2.326 . S
In91 O99 2.266 . S
In91 O100 2.326 . S
In91 O102 2.294 . S
In91 O103 2.326 . S
O92 In91 2.294 . S
O92 C101 1.240 . S
O93 In91 2.326 . S
O93 C101 1.252 . S
C94 O97 1.252 . S
C94 O98 1.260 . S
C95 O102 1.240 . S
C95 O103 1.252 . S
C96 O99 1.252 . S
C96 O100 1.260 . S
O97 In91 2.266 . S
O97 C94 1.252 . S
O98 In91 2.326 . S
O98 C94 1.260 . S
O99 In91 2.266 . S
O99 C96 1.252 . S
O100 In91 2.326 . S
O100 C96 1.260 . S
C101 O92 1.240 . S
C101 O93 1.252 . S
O102 In91 2.294 . S
O102 C95 1.240 . S
O103 In91 2.326 . S
O103 C95 1.252 . S
In104 O105 2.294 . S
In104 O106 2.326 . S
In104 O110 2.266 . S
In104 O111 2.326 1_554 S
In104 O112 2.266 . S
In104 O113 2.326 . S
In104 O115 2.294 . S
In104 O116 2.326 . S
O105 In104 2.294 . S
O105 C114 1.240 . S
O106 In104 2.326 . S
O106 C114 1.252 . S
C107 O110 1.252 1_556 S
C107 O111 1.260 . S
C108 O115 1.240 . S
C108 O116 1.252 . S
C109 O112 1.252 . S
C109 O113 1.260 . S
O110 In104 2.266 . S
O110 C107 1.252 1_554 S
O111 In104 2.326 1_556 S
O111 C107 1.260 . S
O112 In104 2.266 . S
O112 C109 1.252 . S
O113 In104 2.326 . S
O113 C109 1.260 . S
C114 O105 1.240 . S
C114 O106 1.252 . S
O115 In104 2.294 . S
O115 C108 1.240 . S
O116 In104 2.326 . S
O116 C108 1.252 . S
In117 O118 2.294 . S
In117 O119 2.326 . S
In117 O123 2.266 . S
In117 O124 2.326 . S
In117 O125 2.266 . S
In117 O126 2.326 . S
In117 O128 2.294 . S
In117 O129 2.326 . S
O118 In117 2.294 . S
O118 C127 1.240 . S
O119 In117 2.326 . S
O119 C127 1.252 . S
C120 O123 1.252 . S
C120 O124 1.260 . S
C121 O128 1.240 . S
C121 O129 1.252 . S
C122 O125 1.252 . S
C122 O126 1.260 . S
O123 In117 2.266 . S
O123 C120 1.252 . S
O124 In117 2.326 . S
O124 C120 1.260 . S
O125 In117 2.266 . S
O125 C122 1.252 . S
O126 In117 2.326 . S
O126 C122 1.260 . S
C127 O118 1.240 . S
C127 O119 1.252 . S
O128 In117 2.294 . S
O128 C121 1.240 . S
O129 In117 2.326 . S
O129 C121 1.252 . S
In130 O131 2.294 . S
In130 O132 2.326 . S
In130 O136 2.266 . S
In130 O137 2.326 . S
In130 O138 2.266 . S
In130 O139 2.326 . S
In130 O141 2.294 . S
In130 O142 2.326 . S
O131 In130 2.294 . S
O131 C140 1.240 . S
O132 In130 2.326 . S
O132 C140 1.252 . S
C133 O136 1.252 . S
C133 O137 1.260 . S
C134 O141 1.240 . S
C134 O142 1.252 . S
C135 O138 1.252 . S
C135 O139 1.260 . S
O136 In130 2.266 . S
O136 C133 1.252 . S
O137 In130 2.326 . S
O137 C133 1.260 . S
O138 In130 2.266 . S
O138 C135 1.252 . S
O139 In130 2.326 . S
O139 C135 1.260 . S
C140 O131 1.240 . S
C140 O132 1.252 . S
O141 In130 2.294 . S
O141 C134 1.240 . S
O142 In130 2.326 . S
O142 C134 1.252 . S
In143 O144 2.294 . S
In143 O145 2.326 . S
In143 O149 2.266 . S
In143 O150 2.326 . S
In143 O151 2.266 . S
In143 O152 2.326 . S
In143 O154 2.294 . S
In143 O155 2.326 . S
O144 In143 2.294 . S
O144 C153 1.240 . S
O145 In143 2.326 . S
O145 C153 1.252 . S
C146 O149 1.252 . S
C146 O150 1.260 . S
C147 O154 1.240 . S
C147 O155 1.252 . S
C148 O151 1.252 . S
C148 O152 1.260 . S
O149 In143 2.266 . S
O149 C146 1.252 . S
O150 In143 2.326 . S
O150 C146 1.260 . S
O151 In143 2.266 . S
O151 C148 1.252 . S
O152 In143 2.326 . S
O152 C148 1.260 . S
C153 O144 1.240 . S
C153 O145 1.252 . S
O154 In143 2.294 . S
O154 C147 1.240 . S
O155 In143 2.326 . S
O155 C147 1.252 . S
In156 O157 2.294 . S
In156 O158 2.326 . S
In156 O162 2.266 . S
In156 O163 2.326 . S
In156 O164 2.266 . S
In156 O165 2.326 . S
In156 O167 2.294 . S
In156 O168 2.326 1_554 S
O157 In156 2.294 . S
O157 C166 1.240 . S
O158 In156 2.326 . S
O158 C166 1.252 . S
C159 O162 1.252 . S
C159 O163 1.260 . S
C160 O167 1.240 1_556 S
C160 O168 1.252 . S
C161 O164 1.252 . S
C161 O165 1.260 . S
O162 In156 2.266 . S
O162 C159 1.252 . S
O163 In156 2.326 . S
O163 C159 1.260 . S
O164 In156 2.266 . S
O164 C161 1.252 . S
O165 In156 2.326 . S
O165 C161 1.260 . S
C166 O157 1.240 . S
C166 O158 1.252 . S
O167 In156 2.294 . S
O167 C160 1.240 1_554 S
O168 In156 2.326 1_556 S
O168 C160 1.252 . S
In169 O170 2.294 . S
In169 O171 2.326 . S
In169 O175 2.266 . S
In169 O176 2.326 . S
In169 O177 2.266 . S
In169 O178 2.326 . S
In169 O180 2.294 . S
In169 O181 2.326 . S
O170 In169 2.294 . S
O170 C179 1.240 . S
O171 In169 2.326 . S
O171 C179 1.252 . S
C172 O175 1.252 . S
C172 O176 1.260 . S
C173 O180 1.240 . S
C173 O181 1.252 . S
C174 O177 1.252 . S
C174 O178 1.260 . S
O175 In169 2.266 . S
O175 C172 1.252 . S
O176 In169 2.326 . S
O176 C172 1.260 . S
O177 In169 2.266 . S
O177 C174 1.252 . S
O178 In169 2.326 . S
O178 C174 1.260 . S
C179 O170 1.240 . S
C179 O171 1.252 . S
O180 In169 2.294 . S
O180 C173 1.240 . S
O181 In169 2.326 . S
O181 C173 1.252 . S
In182 O183 2.294 . S
In182 O184 2.326 . S
In182 O188 2.266 . S
In182 O189 2.326 . S
In182 O190 2.266 . S
In182 O191 2.326 . S
In182 O193 2.294 . S
In182 O194 2.326 . S
O183 In182 2.294 . S
O183 C192 1.240 . S
O184 In182 2.326 . S
O184 C192 1.252 . S
C185 O188 1.252 . S
C185 O189 1.260 . S
C186 O193 1.240 . S
C186 O194 1.252 . S
C187 O190 1.252 . S
C187 O191 1.260 . S
O188 In182 2.266 . S
O188 C185 1.252 . S
O189 In182 2.326 . S
O189 C185 1.260 . S
O190 In182 2.266 . S
O190 C187 1.252 . S
O191 In182 2.326 . S
O191 C187 1.260 . S
C192 O183 1.240 . S
C192 O184 1.252 . S
O193 In182 2.294 . S
O193 C186 1.240 . S
O194 In182 2.326 . S
O194 C186 1.252 . S
In195 O196 2.294 . S
In195 O197 2.326 . S
In195 O201 2.266 . S
In195 O202 2.326 . S
In195 O203 2.266 . S
In195 O204 2.326 . S
In195 O206 2.294 . S
In195 O207 2.326 . S
O196 In195 2.294 . S
O196 C205 1.240 . S
O197 In195 2.326 . S
O197 C205 1.252 . S
C198 O201 1.252 . S
C198 O202 1.260 . S
C199 O206 1.240 . S
C199 O207 1.252 . S
C200 O203 1.252 . S
C200 O204 1.260 . S
O201 In195 2.266 . S
O201 C198 1.252 . S
O202 In195 2.326 . S
O202 C198 1.260 . S
O203 In195 2.266 . S
O203 C200 1.252 . S
O204 In195 2.326 . S
O204 C200 1.260 . S
C205 O196 1.240 . S
C205 O197 1.252 . S
O206 In195 2.294 . S
O206 C199 1.240 . S
O207 In195 2.326 . S
O207 C199 1.252 . S
In208 O209 2.294 . S
In208 O210 2.326 . S
In208 O214 2.266 . S
In208 O215 2.326 . S
In208 O216 2.266 . S
In208 O217 2.326 . S
In208 O219 2.294 . S
In208 O220 2.326 . S
O209 In208 2.294 . S
O209 C218 1.240 . S
O210 In208 2.326 . S
O210 C218 1.252 . S
C211 O214 1.252 . S
C211 O215 1.260 . S
C212 O219 1.240 . S
C212 O220 1.252 . S
C213 O216 1.252 . S
C213 O217 1.260 . S
O214 In208 2.266 . S
O214 C211 1.252 . S
O215 In208 2.326 . S
O215 C211 1.260 . S
O216 In208 2.266 . S
O216 C213 1.252 . S
O217 In208 2.326 . S
O217 C213 1.260 . S
C218 O209 1.240 . S
C218 O210 1.252 . S
O219 In208 2.294 . S
O219 C212 1.240 . S
O220 In208 2.326 . S
O220 C212 1.252 . S
In221 O222 2.294 . S
In221 O223 2.326 . S
In221 O227 2.266 . S
In221 O228 2.326 . S
In221 O229 2.266 . S
In221 O230 2.326 . S
In221 O232 2.294 . S
In221 O233 2.326 . S
O222 In221 2.294 . S
O222 C231 1.240 . S
O223 In221 2.326 . S
O223 C231 1.252 . S
C224 O227 1.252 . S
C224 O228 1.260 . S
C225 O232 1.240 . S
C225 O233 1.252 . S
C226 O229 1.252 . S
C226 O230 1.260 . S
O227 In221 2.266 . S
O227 C224 1.252 . S
O228 In221 2.326 . S
O228 C224 1.260 . S
O229 In221 2.266 . S
O229 C226 1.252 . S
O230 In221 2.326 . S
O230 C226 1.260 . S
C231 O222 1.240 . S
C231 O223 1.252 . S
O232 In221 2.294 . S
O232 C225 1.240 . S
O233 In221 2.326 . S
O233 C225 1.252 . S
In234 O235 2.294 . S
In234 O236 2.326 1_554 S
In234 O240 2.266 . S
In234 O241 2.326 . S
In234 O242 2.266 . S
In234 O243 2.326 . S
In234 O245 2.294 . S
In234 O246 2.326 . S
O235 In234 2.294 . S
O235 C244 1.240 1_554 S
O236 In234 2.326 1_556 S
O236 C244 1.252 . S
C237 O240 1.252 . S
C237 O241 1.260 . S
C238 O245 1.240 . S
C238 O246 1.252 . S
C239 O242 1.252 . S
C239 O243 1.260 . S
O240 In234 2.266 . S
O240 C237 1.252 . S
O241 In234 2.326 . S
O241 C237 1.260 . S
O242 In234 2.266 . S
O242 C239 1.252 . S
O243 In234 2.326 . S
O243 C239 1.260 . S
C244 O235 1.240 1_556 S
C244 O236 1.252 . S
O245 In234 2.294 . S
O245 C238 1.240 . S
O246 In234 2.326 . S
O246 C238 1.252 . S
In247 O248 2.294 . S
In247 O249 2.326 . S
In247 O253 2.266 . S
In247 O254 2.326 . S
In247 O255 2.266 . S
In247 O256 2.326 . S
In247 O258 2.294 . S
In247 O259 2.326 . S
O248 In247 2.294 . S
O248 C257 1.240 . S
O249 In247 2.326 . S
O249 C257 1.252 . S
C250 O253 1.252 . S
C250 O254 1.260 . S
C251 O258 1.240 . S
C251 O259 1.252 . S
C252 O255 1.252 . S
C252 O256 1.260 . S
O253 In247 2.266 . S
O253 C250 1.252 . S
O254 In247 2.326 . S
O254 C250 1.260 . S
O255 In247 2.266 . S
O255 C252 1.252 . S
O256 In247 2.326 . S
O256 C252 1.260 . S
C257 O248 1.240 . S
C257 O249 1.252 . S
O258 In247 2.294 . S
O258 C251 1.240 . S
O259 In247 2.326 . S
O259 C251 1.252 . S
In260 O261 2.294 . S
In260 O262 2.326 . S
In260 O266 2.266 . S
In260 O267 2.326 . S
In260 O268 2.266 . S
In260 O269 2.326 . S
In260 O271 2.294 . S
In260 O272 2.326 . S
O261 In260 2.294 . S
O261 C270 1.240 . S
O262 In260 2.326 . S
O262 C270 1.252 . S
C263 O266 1.252 . S
C263 O267 1.260 . S
C264 O271 1.240 . S
C264 O272 1.252 . S
C265 O268 1.252 . S
C265 O269 1.260 . S
O266 In260 2.266 . S
O266 C263 1.252 . S
O267 In260 2.326 . S
O267 C263 1.260 . S
O268 In260 2.266 . S
O268 C265 1.252 . S
O269 In260 2.326 . S
O269 C265 1.260 . S
C270 O261 1.240 . S
C270 O262 1.252 . S
O271 In260 2.294 . S
O271 C264 1.240 . S
O272 In260 2.326 . S
O272 C264 1.252 . S
In273 O274 2.294 . S
In273 O275 2.326 . S
In273 O279 2.266 . S
In273 O280 2.326 . S
In273 O281 2.266 . S
In273 O282 2.326 . S
In273 O284 2.294 . S
In273 O285 2.326 . S
O274 In273 2.294 . S
O274 C283 1.240 . S
O275 In273 2.326 . S
O275 C283 1.252 . S
C276 O279 1.252 . S
C276 O280 1.260 . S
C277 O284 1.240 . S
C277 O285 1.252 . S
C278 O281 1.252 . S
C278 O282 1.260 . S
O279 In273 2.266 . S
O279 C276 1.252 . S
O280 In273 2.326 . S
O280 C276 1.260 . S
O281 In273 2.266 . S
O281 C278 1.252 . S
O282 In273 2.326 . S
O282 C278 1.260 . S
C283 O274 1.240 . S
C283 O275 1.252 . S
O284 In273 2.294 . S
O284 C277 1.240 . S
O285 In273 2.326 . S
O285 C277 1.252 . S
In286 O287 2.294 . S
In286 O288 2.326 . S
In286 O292 2.266 . S
In286 O293 2.326 . S
In286 O294 2.266 . S
In286 O295 2.326 1_554 S
In286 O297 2.294 . S
In286 O298 2.326 . S
O287 In286 2.294 . S
O287 C296 1.240 . S
O288 In286 2.326 . S
O288 C296 1.252 . S
C289 O292 1.252 . S
C289 O293 1.260 . S
C290 O297 1.240 . S
C290 O298 1.252 . S
C291 O294 1.252 1_556 S
C291 O295 1.260 . S
O292 In286 2.266 . S
O292 C289 1.252 . S
O293 In286 2.326 . S
O293 C289 1.260 . S
O294 In286 2.266 . S
O294 C291 1.252 1_554 S
O295 In286 2.326 1_556 S
O295 C291 1.260 . S
C296 O287 1.240 . S
C296 O288 1.252 . S
O297 In286 2.294 . S
O297 C290 1.240 . S
O298 In286 2.326 . S
O298 C290 1.252 . S
In299 O300 2.294 . S
In299 O301 2.326 . S
In299 O305 2.266 . S
In299 O306 2.326 . S
In299 O307 2.266 . S
In299 O308 2.326 . S
In299 O310 2.294 . S
In299 O311 2.326 . S
O300 In299 2.294 . S
O300 C309 1.240 . S
O301 In299 2.326 . S
O301 C309 1.252 . S
C302 O305 1.252 . S
C302 O306 1.260 . S
C303 O310 1.240 . S
C303 O311 1.252 . S
C304 O307 1.252 . S
C304 O308 1.260 . S
O305 In299 2.266 . S
O305 C302 1.252 . S
O306 In299 2.326 . S
O306 C302 1.260 . S
O307 In299 2.266 . S
O307 C304 1.252 . S
O308 In299 2.326 . S
O308 C304 1.260 . S
C309 O300 1.240 . S
C309 O301 1.252 . S
O310 In299 2.294 . S
O310 C303 1.240 . S
O311 In299 2.326 . S
O311 C303 1.252 . S
In312 O313 2.294 . S
In312 O314 2.326 . S
In312 O318 2.266 . S
In312 O319 2.326 . S
In312 O320 2.266 . S
In312 O321 2.326 . S
In312 O323 2.294 . S
In312 O324 2.326 . S
O313 In312 2.294 . S
O313 C322 1.240 . S
O314 In312 2.326 . S
O314 C322 1.252 . S
C315 O318 1.252 . S
C315 O319 1.260 . S
C316 O323 1.240 . S
C316 O324 1.252 . S
C317 O320 1.252 . S
C317 O321 1.260 . S
O318 In312 2.266 . S
O318 C315 1.252 . S
O319 In312 2.326 . S
O319 C315 1.260 . S
O320 In312 2.266 . S
O320 C317 1.252 . S
O321 In312 2.326 . S
O321 C317 1.260 . S
C322 O313 1.240 . S
C322 O314 1.252 . S
O323 In312 2.294 . S
O323 C316 1.240 . S
O324 In312 2.326 . S
O324 C316 1.252 . S
In325 O326 2.294 . S
In325 O327 2.326 . S
In325 O331 2.266 . S
In325 O332 2.326 . S
In325 O333 2.266 . S
In325 O334 2.326 . S
In325 O336 2.294 . S
In325 O337 2.326 . S
O326 In325 2.294 . S
O326 C335 1.240 . S
O327 In325 2.326 . S
O327 C335 1.252 . S
C328 O331 1.252 . S
C328 O332 1.260 . S
C329 O336 1.240 . S
C329 O337 1.252 . S
C330 O333 1.252 . S
C330 O334 1.260 . S
O331 In325 2.266 . S
O331 C328 1.252 . S
O332 In325 2.326 . S
O332 C328 1.260 . S
O333 In325 2.266 . S
O333 C330 1.252 . S
O334 In325 2.326 . S
O334 C330 1.260 . S
C335 O326 1.240 . S
C335 O327 1.252 . S
O336 In325 2.294 . S
O336 C329 1.240 . S
O337 In325 2.326 . S
O337 C329 1.252 . S
In338 O339 2.294 . S
In338 O340 2.326 . S
In338 O344 2.266 . S
In338 O345 2.326 . S
In338 O346 2.266 . S
In338 O347 2.326 1_554 S
In338 O349 2.294 . S
In338 O350 2.326 . S
O339 In338 2.294 . S
O339 C348 1.240 . S
O340 In338 2.326 . S
O340 C348 1.252 . S
C341 O344 1.252 . S
C341 O345 1.260 . S
C342 O349 1.240 . S
C342 O350 1.252 . S
C343 O346 1.252 1_556 S
C343 O347 1.260 . S
O344 In338 2.266 . S
O344 C341 1.252 . S
O345 In338 2.326 . S
O345 C341 1.260 . S
O346 In338 2.266 . S
O346 C343 1.252 1_554 S
O347 In338 2.326 1_556 S
O347 C343 1.260 . S
C348 O339 1.240 . S
C348 O340 1.252 . S
O349 In338 2.294 . S
O349 C342 1.240 . S
O350 In338 2.326 . S
O350 C342 1.252 . S
In351 O352 2.294 . S
In351 O353 2.326 . S
In351 O357 2.266 . S
In351 O358 2.326 . S
In351 O359 2.266 . S
In351 O360 2.326 . S
In351 O362 2.294 . S
In351 O363 2.326 . S
O352 In351 2.294 . S
O352 C361 1.240 . S
O353 In351 2.326 . S
O353 C361 1.252 . S
C354 O357 1.252 . S
C354 O358 1.260 . S
C355 O362 1.240 . S
C355 O363 1.252 . S
C356 O359 1.252 . S
C356 O360 1.260 . S
O357 In351 2.266 . S
O357 C354 1.252 . S
O358 In351 2.326 . S
O358 C354 1.260 . S
O359 In351 2.266 . S
O359 C356 1.252 . S
O360 In351 2.326 . S
O360 C356 1.260 . S
C361 O352 1.240 . S
C361 O353 1.252 . S
O362 In351 2.294 . S
O362 C355 1.240 . S
O363 In351 2.326 . S
O363 C355 1.252 . S
In364 O365 2.294 . S
In364 O366 2.326 . S
In364 O370 2.266 . S
In364 O371 2.326 . S
In364 O372 2.266 . S
In364 O373 2.326 . S
In364 O375 2.294 . S
In364 O376 2.326 . S
O365 In364 2.294 . S
O365 C374 1.240 . S
O366 In364 2.326 . S
O366 C374 1.252 . S
C367 O370 1.252 . S
C367 O371 1.260 . S
C368 O375 1.240 . S
C368 O376 1.252 . S
C369 O372 1.252 . S
C369 O373 1.260 . S
O370 In364 2.266 . S
O370 C367 1.252 . S
O371 In364 2.326 . S
O371 C367 1.260 . S
O372 In364 2.266 . S
O372 C369 1.252 . S
O373 In364 2.326 . S
O373 C369 1.260 . S
C374 O365 1.240 . S
C374 O366 1.252 . S
O375 In364 2.294 . S
O375 C368 1.240 . S
O376 In364 2.326 . S
O376 C368 1.252 . S
In377 O378 2.294 . S
In377 O379 2.326 . S
In377 O383 2.266 . S
In377 O384 2.326 . S
In377 O385 2.266 . S
In377 O386 2.326 . S
In377 O388 2.294 . S
In377 O389 2.326 . S
O378 In377 2.294 . S
O378 C387 1.240 . S
O379 In377 2.326 . S
O379 C387 1.252 . S
C380 O383 1.252 . S
C380 O384 1.260 . S
C381 O388 1.240 . S
C381 O389 1.252 . S
C382 O385 1.252 . S
C382 O386 1.260 . S
O383 In377 2.266 . S
O383 C380 1.252 . S
O384 In377 2.326 . S
O384 C380 1.260 . S
O385 In377 2.266 . S
O385 C382 1.252 . S
O386 In377 2.326 . S
O386 C382 1.260 . S
C387 O378 1.240 . S
C387 O379 1.252 . S
O388 In377 2.294 . S
O388 C381 1.240 . S
O389 In377 2.326 . S
O389 C381 1.252 . S
In390 O391 2.294 . S
In390 O392 2.326 . S
In390 O396 2.266 . S
In390 O397 2.326 . S
In390 O398 2.266 . S
In390 O399 2.326 . S
In390 O401 2.294 . S
In390 O402 2.326 1_554 S
O391 In390 2.294 . S
O391 C400 1.240 . S
O392 In390 2.326 . S
O392 C400 1.252 . S
C393 O396 1.252 . S
C393 O397 1.260 . S
C394 O401 1.240 1_556 S
C394 O402 1.252 . S
C395 O398 1.252 . S
C395 O399 1.260 . S
O396 In390 2.266 . S
O396 C393 1.252 . S
O397 In390 2.326 . S
O397 C393 1.260 . S
O398 In390 2.266 . S
O398 C395 1.252 . S
O399 In390 2.326 . S
O399 C395 1.260 . S
C400 O391 1.240 . S
C400 O392 1.252 . S
O401 In390 2.294 . S
O401 C394 1.240 1_554 S
O402 In390 2.326 1_556 S
O402 C394 1.252 . S
In403 O404 2.294 . S
In403 O405 2.326 . S
In403 O409 2.266 . S
In403 O410 2.326 . S
In403 O411 2.266 . S
In403 O412 2.326 . S
In403 O414 2.294 . S
In403 O415 2.326 . S
O404 In403 2.294 . S
O404 C413 1.240 . S
O405 In403 2.326 . S
O405 C413 1.252 . S
C406 O409 1.252 . S
C406 O410 1.260 . S
C407 O414 1.240 . S
C407 O415 1.252 . S
C408 O411 1.252 . S
C408 O412 1.260 . S
O409 In403 2.266 . S
O409 C406 1.252 . S
O410 In403 2.326 . S
O410 C406 1.260 . S
O411 In403 2.266 . S
O411 C408 1.252 . S
O412 In403 2.326 . S
O412 C408 1.260 . S
C413 O404 1.240 . S
C413 O405 1.252 . S
O414 In403 2.294 . S
O414 C407 1.240 . S
O415 In403 2.326 . S
O415 C407 1.252 . S
C416 C417 1.391 . S
C416 C418 1.394 . S
C416 H432 0.931 . S
C417 C416 1.391 . S
C417 C421 1.376 . S
C418 C416 1.394 . S
C418 C419 1.369 . S
C418 C422 1.531 1_556 S
C419 C418 1.369 . S
C419 C420 1.410 . S
C419 C427 1.503 . S
C420 C419 1.410 . S
C420 C421 1.392 . S
C420 C423 1.511 . S
C421 C417 1.376 . S
C421 C420 1.392 . S
C421 H433 0.929 . S
C422 C418 1.531 1_554 S
C422 H434 0.960 . S
C422 H435 0.962 . S
C422 H436 0.960 . S
C423 C420 1.511 . S
C423 H437 0.961 . S
C423 H438 0.961 . S
C423 H439 0.961 . S
C424 C425 1.370 1_556 S
C424 C426 1.363 . S
C424 H440 0.931 . S
C425 C424 1.370 1_554 S
C425 C429 1.408 . S
C426 C424 1.363 . S
C426 C427 1.370 . S
C426 C430 1.524 . S
C427 C419 1.503 . S
C427 C426 1.370 . S
C427 C428 1.403 . S
C428 C427 1.403 . S
C428 C429 1.404 1_556 S
C428 C431 1.539 . S
C429 C425 1.408 . S
C429 C428 1.404 1_554 S
C429 H441 0.930 . S
C430 C426 1.524 . S
C430 H442 0.956 . S
C430 H443 0.961 . S
C430 H444 0.961 . S
C431 C428 1.539 . S
C431 H445 0.958 1_556 S
C431 H446 0.961 1_556 S
C431 H447 0.960 . S
H432 C416 0.931 . S
H433 C421 0.929 . S
H434 C422 0.960 . S
H435 C422 0.962 . S
H436 C422 0.960 . S
H437 C423 0.961 . S
H438 C423 0.961 . S
H439 C423 0.961 . S
H440 C424 0.931 . S
H441 C429 0.930 . S
H442 C430 0.956 . S
H443 C430 0.961 . S
H444 C430 0.961 . S
H445 C431 0.958 1_554 S
H446 C431 0.961 1_554 S
H447 C431 0.960 . S
C448 C449 1.391 . S
C448 C450 1.394 . S
C448 H464 0.931 . S
C449 C448 1.391 . S
C449 C453 1.376 . S
C450 C448 1.394 . S
C450 C451 1.369 . S
C450 C454 1.531 . S
C451 C450 1.369 . S
C451 C452 1.410 . S
C451 C459 1.503 . S
C452 C451 1.410 . S
C452 C453 1.392 . S
C452 C455 1.511 . S
C453 C449 1.376 . S
C453 C452 1.392 . S
C453 H465 0.929 . S
C454 C450 1.531 . S
C454 H466 0.960 . S
C454 H467 0.962 . S
C454 H468 0.960 . S
C455 C452 1.511 . S
C455 H469 0.961 . S
C455 H470 0.961 . S
C455 H471 0.961 . S
C456 C457 1.370 . S
C456 C458 1.363 . S
C456 H472 0.931 . S
C457 C456 1.370 . S
C457 C461 1.408 . S
C458 C456 1.363 . S
C458 C459 1.370 . S
C458 C462 1.524 . S
C459 C451 1.503 . S
C459 C458 1.370 . S
C459 C460 1.403 . S
C460 C459 1.403 . S
C460 C461 1.404 . S
C460 C463 1.539 . S
C461 C457 1.408 . S
C461 C460 1.404 . S
C461 H473 0.930 . S
C462 C458 1.524 . S
C462 H474 0.956 . S
C462 H475 0.961 . S
C462 H476 0.961 . S
C463 C460 1.539 . S
C463 H477 0.958 . S
C463 H478 0.961 . S
C463 H479 0.960 . S
H464 C448 0.931 . S
H465 C453 0.929 . S
H466 C454 0.960 . S
H467 C454 0.962 . S
H468 C454 0.960 . S
H469 C455 0.961 . S
H470 C455 0.961 . S
H471 C455 0.961 . S
H472 C456 0.931 . S
H473 C461 0.930 . S
H474 C462 0.956 . S
H475 C462 0.961 . S
H476 C462 0.961 . S
H477 C463 0.958 . S
H478 C463 0.961 . S
H479 C463 0.960 . S
C480 C481 1.391 . S
C480 C482 1.394 . S
C480 H496 0.931 . S
C481 C480 1.391 . S
C481 C485 1.376 . S
C482 C480 1.394 . S
C482 C483 1.369 . S
C482 C486 1.531 . S
C483 C482 1.369 . S
C483 C484 1.410 . S
C483 C491 1.503 . S
C484 C483 1.410 . S
C484 C485 1.392 . S
C484 C487 1.511 . S
C485 C481 1.376 . S
C485 C484 1.392 . S
C485 H497 0.929 . S
C486 C482 1.531 . S
C486 H498 0.960 . S
C486 H499 0.962 . S
C486 H500 0.960 . S
C487 C484 1.511 . S
C487 H501 0.961 . S
C487 H502 0.961 . S
C487 H503 0.961 . S
C488 C489 1.370 . S
C488 C490 1.363 . S
C488 H504 0.931 . S
C489 C488 1.370 . S
C489 C493 1.408 . S
C490 C488 1.363 . S
C490 C491 1.370 . S
C490 C494 1.524 . S
C491 C483 1.503 . S
C491 C490 1.370 . S
C491 C492 1.403 . S
C492 C491 1.403 . S
C492 C493 1.404 . S
C492 C495 1.539 . S
C493 C489 1.408 . S
C493 C492 1.404 . S
C493 H505 0.930 . S
C494 C490 1.524 . S
C494 H506 0.956 . S
C494 H507 0.961 . S
C494 H508 0.961 . S
C495 C492 1.539 . S
C495 H509 0.958 . S
C495 H510 0.961 . S
C495 H511 0.960 . S
H496 C480 0.931 . S
H497 C485 0.929 . S
H498 C486 0.960 . S
H499 C486 0.962 . S
H500 C486 0.960 . S
H501 C487 0.961 . S
H502 C487 0.961 . S
H503 C487 0.961 . S
H504 C488 0.931 . S
H505 C493 0.930 . S
H506 C494 0.956 . S
H507 C494 0.961 . S
H508 C494 0.961 . S
H509 C495 0.958 . S
H510 C495 0.961 . S
H511 C495 0.960 . S
C512 C513 1.391 . S
C512 C514 1.394 . S
C512 H528 0.931 . S
C513 C512 1.391 . S
C513 C517 1.376 . S
C514 C512 1.394 . S
C514 C515 1.369 . S
C514 C518 1.531 . S
C515 C514 1.369 . S
C515 C516 1.410 . S
C515 C523 1.503 . S
C516 C515 1.410 . S
C516 C517 1.392 . S
C516 C519 1.511 . S
C517 C513 1.376 . S
C517 C516 1.392 . S
C517 H529 0.929 . S
C518 C514 1.531 . S
C518 H530 0.960 . S
C518 H531 0.962 . S
C518 H532 0.960 . S
C519 C516 1.511 . S
C519 H533 0.961 . S
C519 H534 0.961 . S
C519 H535 0.961 . S
C520 C521 1.370 . S
C520 C522 1.363 . S
C520 H536 0.931 . S
C521 C520 1.370 . S
C521 C525 1.408 . S
C522 C520 1.363 . S
C522 C523 1.370 . S
C522 C526 1.524 . S
C523 C515 1.503 . S
C523 C522 1.370 . S
C523 C524 1.403 . S
C524 C523 1.403 . S
C524 C525 1.404 . S
C524 C527 1.539 . S
C525 C521 1.408 . S
C525 C524 1.404 . S
C525 H537 0.930 . S
C526 C522 1.524 . S
C526 H538 0.956 . S
C526 H539 0.961 . S
C526 H540 0.961 . S
C527 C524 1.539 . S
C527 H541 0.958 . S
C527 H542 0.961 . S
C527 H543 0.960 . S
H528 C512 0.931 . S
H529 C517 0.929 . S
H530 C518 0.960 . S
H531 C518 0.962 . S
H532 C518 0.960 . S
H533 C519 0.961 . S
H534 C519 0.961 . S
H535 C519 0.961 . S
H536 C520 0.931 . S
H537 C525 0.930 . S
H538 C526 0.956 . S
H539 C526 0.961 . S
H540 C526 0.961 . S
H541 C527 0.958 . S
H542 C527 0.961 . S
H543 C527 0.960 . S
C544 C545 1.391 . S
C544 C546 1.394 . S
C544 H560 0.931 . S
C545 C544 1.391 . S
C545 C549 1.376 . S
C546 C544 1.394 . S
C546 C547 1.369 . S
C546 C550 1.531 . S
C547 C546 1.369 . S
C547 C548 1.410 . S
C547 C555 1.503 . S
C548 C547 1.410 . S
C548 C549 1.392 . S
C548 C551 1.511 . S
C549 C545 1.376 . S
C549 C548 1.392 . S
C549 H561 0.929 . S
C550 C546 1.531 . S
C550 H562 0.960 . S
C550 H563 0.962 . S
C550 H564 0.960 . S
C551 C548 1.511 . S
C551 H565 0.961 . S
C551 H566 0.961 . S
C551 H567 0.961 . S
C552 C553 1.370 . S
C552 C554 1.363 . S
C552 H568 0.931 . S
C553 C552 1.370 . S
C553 C557 1.408 . S
C554 C552 1.363 . S
C554 C555 1.370 . S
C554 C558 1.524 . S
C555 C547 1.503 . S
C555 C554 1.370 . S
C555 C556 1.403 . S
C556 C555 1.403 . S
C556 C557 1.404 . S
C556 C559 1.539 . S
C557 C553 1.408 . S
C557 C556 1.404 . S
C557 H569 0.930 . S
C558 C554 1.524 . S
C558 H570 0.956 . S
C558 H571 0.961 . S
C558 H572 0.961 . S
C559 C556 1.539 . S
C559 H573 0.958 . S
C559 H574 0.961 . S
C559 H575 0.960 . S
H560 C544 0.931 . S
H561 C549 0.929 . S
H562 C550 0.960 . S
H563 C550 0.962 . S
H564 C550 0.960 . S
H565 C551 0.961 . S
H566 C551 0.961 . S
H567 C551 0.961 . S
H568 C552 0.931 . S
H569 C557 0.930 . S
H570 C558 0.956 . S
H571 C558 0.961 . S
H572 C558 0.961 . S
H573 C559 0.958 . S
H574 C559 0.961 . S
H575 C559 0.960 . S
C576 C577 1.391 . S
C576 C578 1.394 . S
C576 H592 0.931 . S
C577 C576 1.391 . S
C577 C581 1.376 . S
C578 C576 1.394 . S
C578 C579 1.369 . S
C578 C582 1.531 . S
C579 C578 1.369 . S
C579 C580 1.410 . S
C579 C587 1.503 . S
C580 C579 1.410 . S
C580 C581 1.392 . S
C580 C583 1.511 . S
C581 C577 1.376 . S
C581 C580 1.392 . S
C581 H593 0.929 . S
C582 C578 1.531 . S
C582 H594 0.960 . S
C582 H595 0.962 . S
C582 H596 0.960 . S
C583 C580 1.511 . S
C583 H597 0.961 . S
C583 H598 0.961 . S
C583 H599 0.961 . S
C584 C585 1.370 1_556 S
C584 C586 1.363 . S
C584 H600 0.931 . S
C585 C584 1.370 1_554 S
C585 C589 1.408 . S
C586 C584 1.363 . S
C586 C587 1.370 . S
C586 C590 1.524 . S
C587 C579 1.503 . S
C587 C586 1.370 . S
C587 C588 1.403 1_556 S
C588 C587 1.403 1_554 S
C588 C589 1.404 . S
C588 C591 1.539 . S
C589 C585 1.408 . S
C589 C588 1.404 . S
C589 H601 0.930 . S
C590 C586 1.524 . S
C590 H602 0.956 . S
C590 H603 0.961 . S
C590 H604 0.961 . S
C591 C588 1.539 . S
C591 H605 0.958 . S
C591 H606 0.961 . S
C591 H607 0.960 . S
H592 C576 0.931 . S
H593 C581 0.929 . S
H594 C582 0.960 . S
H595 C582 0.962 . S
H596 C582 0.960 . S
H597 C583 0.961 . S
H598 C583 0.961 . S
H599 C583 0.961 . S
H600 C584 0.931 . S
H601 C589 0.930 . S
H602 C590 0.956 . S
H603 C590 0.961 . S
H604 C590 0.961 . S
H605 C591 0.958 . S
H606 C591 0.961 . S
H607 C591 0.960 . S
C608 C609 1.391 . S
C608 C610 1.394 . S
C608 H624 0.931 . S
C609 C608 1.391 . S
C609 C613 1.376 . S
C610 C608 1.394 . S
C610 C611 1.369 . S
C610 C614 1.531 . S
C611 C610 1.369 . S
C611 C612 1.410 . S
C611 C619 1.503 . S
C612 C611 1.410 . S
C612 C613 1.392 . S
C612 C615 1.511 . S
C613 C609 1.376 . S
C613 C612 1.392 . S
C613 H625 0.929 . S
C614 C610 1.531 . S
C614 H626 0.960 . S
C614 H627 0.962 . S
C614 H628 0.960 . S
C615 C612 1.511 . S
C615 H629 0.961 . S
C615 H630 0.961 . S
C615 H631 0.961 . S
C616 C617 1.370 . S
C616 C618 1.363 . S
C616 H632 0.931 . S
C617 C616 1.370 . S
C617 C621 1.408 . S
C618 C616 1.363 . S
C618 C619 1.370 . S
C618 C622 1.524 . S
C619 C611 1.503 . S
C619 C618 1.370 . S
C619 C620 1.403 . S
C620 C619 1.403 . S
C620 C621 1.404 . S
C620 C623 1.539 . S
C621 C617 1.408 . S
C621 C620 1.404 . S
C621 H633 0.930 . S
C622 C618 1.524 . S
C622 H634 0.956 . S
C622 H635 0.961 . S
C622 H636 0.961 . S
C623 C620 1.539 . S
C623 H637 0.958 . S
C623 H638 0.961 . S
C623 H639 0.960 . S
H624 C608 0.931 . S
H625 C613 0.929 . S
H626 C614 0.960 . S
H627 C614 0.962 . S
H628 C614 0.960 . S
H629 C615 0.961 . S
H630 C615 0.961 . S
H631 C615 0.961 . S
H632 C616 0.931 . S
H633 C621 0.930 . S
H634 C622 0.956 . S
H635 C622 0.961 . S
H636 C622 0.961 . S
H637 C623 0.958 . S
H638 C623 0.961 . S
H639 C623 0.960 . S
C640 C641 1.391 . S
C640 C642 1.394 . S
C640 H656 0.931 . S
C641 C640 1.391 . S
C641 C645 1.376 . S
C642 C640 1.394 . S
C642 C643 1.369 . S
C642 C646 1.531 . S
C643 C642 1.369 . S
C643 C644 1.410 . S
C643 C651 1.503 . S
C644 C643 1.410 . S
C644 C645 1.392 . S
C644 C647 1.511 . S
C645 C641 1.376 . S
C645 C644 1.392 . S
C645 H657 0.929 . S
C646 C642 1.531 . S
C646 H658 0.960 . S
C646 H659 0.962 . S
C646 H660 0.960 . S
C647 C644 1.511 . S
C647 H661 0.961 . S
C647 H662 0.961 . S
C647 H663 0.961 . S
C648 C649 1.370 . S
C648 C650 1.363 . S
C648 H664 0.931 . S
C649 C648 1.370 . S
C649 C653 1.408 . S
C650 C648 1.363 . S
C650 C651 1.370 . S
C650 C654 1.524 . S
C651 C643 1.503 . S
C651 C650 1.370 . S
C651 C652 1.403 . S
C652 C651 1.403 . S
C652 C653 1.404 . S
C652 C655 1.539 . S
C653 C649 1.408 . S
C653 C652 1.404 . S
C653 H665 0.930 . S
C654 C650 1.524 . S
C654 H666 0.956 . S
C654 H667 0.961 . S
C654 H668 0.961 . S
C655 C652 1.539 . S
C655 H669 0.958 . S
C655 H670 0.961 . S
C655 H671 0.960 . S
H656 C640 0.931 . S
H657 C645 0.929 . S
H658 C646 0.960 . S
H659 C646 0.962 . S
H660 C646 0.960 . S
H661 C647 0.961 . S
H662 C647 0.961 . S
H663 C647 0.961 . S
H664 C648 0.931 . S
H665 C653 0.930 . S
H666 C654 0.956 . S
H667 C654 0.961 . S
H668 C654 0.961 . S
H669 C655 0.958 . S
H670 C655 0.961 . S
H671 C655 0.960 . S
C672 C673 1.391 . S
C672 C674 1.394 . S
C672 H688 0.931 . S
C673 C672 1.391 . S
C673 C677 1.376 . S
C674 C672 1.394 . S
C674 C675 1.369 . S
C674 C678 1.531 . S
C675 C674 1.369 . S
C675 C676 1.410 . S
C675 C683 1.503 . S
C676 C675 1.410 . S
C676 C677 1.392 . S
C676 C679 1.511 . S
C677 C673 1.376 . S
C677 C676 1.392 . S
C677 H689 0.929 . S
C678 C674 1.531 . S
C678 H690 0.960 . S
C678 H691 0.962 . S
C678 H692 0.960 . S
C679 C676 1.511 . S
C679 H693 0.961 . S
C679 H694 0.961 . S
C679 H695 0.961 . S
C680 C681 1.370 . S
C680 C682 1.363 . S
C680 H696 0.931 . S
C681 C680 1.370 . S
C681 C685 1.408 . S
C682 C680 1.363 . S
C682 C683 1.370 . S
C682 C686 1.524 . S
C683 C675 1.503 . S
C683 C682 1.370 . S
C683 C684 1.403 . S
C684 C683 1.403 . S
C684 C685 1.404 . S
C684 C687 1.539 . S
C685 C681 1.408 . S
C685 C684 1.404 . S
C685 H697 0.930 . S
C686 C682 1.524 . S
C686 H698 0.956 . S
C686 H699 0.961 . S
C686 H700 0.961 . S
C687 C684 1.539 . S
C687 H701 0.958 . S
C687 H702 0.961 . S
C687 H703 0.960 . S
H688 C672 0.931 . S
H689 C677 0.929 . S
H690 C678 0.960 . S
H691 C678 0.962 . S
H692 C678 0.960 . S
H693 C679 0.961 . S
H694 C679 0.961 . S
H695 C679 0.961 . S
H696 C680 0.931 . S
H697 C685 0.930 . S
H698 C686 0.956 . S
H699 C686 0.961 . S
H700 C686 0.961 . S
H701 C687 0.958 . S
H702 C687 0.961 . S
H703 C687 0.960 . S
C704 C705 1.391 . S
C704 C706 1.394 . S
C704 H720 0.931 . S
C705 C704 1.391 . S
C705 C709 1.376 . S
C706 C704 1.394 . S
C706 C707 1.369 . S
C706 C710 1.531 . S
C707 C706 1.369 . S
C707 C708 1.410 . S
C707 C715 1.503 . S
C708 C707 1.410 . S
C708 C709 1.392 . S
C708 C711 1.511 . S
C709 C705 1.376 . S
C709 C708 1.392 . S
C709 H721 0.929 . S
C710 C706 1.531 . S
C710 H722 0.960 . S
C710 H723 0.962 . S
C710 H724 0.960 . S
C711 C708 1.511 . S
C711 H725 0.961 . S
C711 H726 0.961 . S
C711 H727 0.961 . S
C712 C713 1.370 . S
C712 C714 1.363 . S
C712 H728 0.931 . S
C713 C712 1.370 . S
C713 C717 1.408 . S
C714 C712 1.363 . S
C714 C715 1.370 . S
C714 C718 1.524 . S
C715 C707 1.503 . S
C715 C714 1.370 . S
C715 C716 1.403 . S
C716 C715 1.403 . S
C716 C717 1.404 . S
C716 C719 1.539 . S
C717 C713 1.408 . S
C717 C716 1.404 . S
C717 H729 0.930 . S
C718 C714 1.524 . S
C718 H730 0.956 . S
C718 H731 0.961 . S
C718 H732 0.961 . S
C719 C716 1.539 . S
C719 H733 0.958 . S
C719 H734 0.961 . S
C719 H735 0.960 . S
H720 C704 0.931 . S
H721 C709 0.929 . S
H722 C710 0.960 . S
H723 C710 0.962 . S
H724 C710 0.960 . S
H725 C711 0.961 . S
H726 C711 0.961 . S
H727 C711 0.961 . S
H728 C712 0.931 . S
H729 C717 0.930 . S
H730 C718 0.956 . S
H731 C718 0.961 . S
H732 C718 0.961 . S
H733 C719 0.958 . S
H734 C719 0.961 . S
H735 C719 0.960 . S
C736 C737 1.391 . S
C736 C738 1.394 . S
C736 H752 0.931 . S
C737 C736 1.391 . S
C737 C741 1.376 . S
C738 C736 1.394 . S
C738 C739 1.369 . S
C738 C742 1.531 . S
C739 C738 1.369 . S
C739 C740 1.410 . S
C739 C747 1.503 . S
C740 C739 1.410 . S
C740 C741 1.392 . S
C740 C743 1.511 . S
C741 C737 1.376 . S
C741 C740 1.392 . S
C741 H753 0.929 . S
C742 C738 1.531 . S
C742 H754 0.960 1_556 S
C742 H755 0.962 . S
C742 H756 0.960 1_556 S
C743 C740 1.511 . S
C743 H757 0.961 . S
C743 H758 0.961 . S
C743 H759 0.961 . S
C744 C745 1.370 1_556 S
C744 C746 1.363 . S
C744 H760 0.931 . S
C745 C744 1.370 1_554 S
C745 C749 1.408 . S
C746 C744 1.363 . S
C746 C747 1.370 . S
C746 C750 1.524 . S
C747 C739 1.503 . S
C747 C746 1.370 . S
C747 C748 1.403 1_556 S
C748 C747 1.403 1_554 S
C748 C749 1.404 . S
C748 C751 1.539 . S
C749 C745 1.408 . S
C749 C748 1.404 . S
C749 H761 0.930 . S
C750 C746 1.524 . S
C750 H762 0.956 . S
C750 H763 0.961 . S
C750 H764 0.961 . S
C751 C748 1.539 . S
C751 H765 0.958 . S
C751 H766 0.961 . S
C751 H767 0.960 1_554 S
H752 C736 0.931 . S
H753 C741 0.929 . S
H754 C742 0.960 1_554 S
H755 C742 0.962 . S
H756 C742 0.960 1_554 S
H757 C743 0.961 . S
H758 C743 0.961 . S
H759 C743 0.961 . S
H760 C744 0.931 . S
H761 C749 0.930 . S
H762 C750 0.956 . S
H763 C750 0.961 . S
H764 C750 0.961 . S
H765 C751 0.958 . S
H766 C751 0.961 . S
H767 C751 0.960 1_556 S
C768 C769 1.391 . S
C768 C770 1.394 . S
C768 H784 0.931 . S
C769 C768 1.391 . S
C769 C773 1.376 . S
C770 C768 1.394 . S
C770 C771 1.369 . S
C770 C774 1.531 . S
C771 C770 1.369 . S
C771 C772 1.410 . S
C771 C779 1.503 . S
C772 C771 1.410 . S
C772 C773 1.392 . S
C772 C775 1.511 . S
C773 C769 1.376 . S
C773 C772 1.392 . S
C773 H785 0.929 . S
C774 C770 1.531 . S
C774 H786 0.960 . S
C774 H787 0.962 . S
C774 H788 0.960 . S
C775 C772 1.511 . S
C775 H789 0.961 . S
C775 H790 0.961 . S
C775 H791 0.961 . S
C776 C777 1.370 . S
C776 C778 1.363 . S
C776 H792 0.931 . S
C777 C776 1.370 . S
C777 C781 1.408 . S
C778 C776 1.363 . S
C778 C779 1.370 . S
C778 C782 1.524 . S
C779 C771 1.503 . S
C779 C778 1.370 . S
C779 C780 1.403 . S
C780 C779 1.403 . S
C780 C781 1.404 . S
C780 C783 1.539 . S
C781 C777 1.408 . S
C781 C780 1.404 . S
C781 H793 0.930 . S
C782 C778 1.524 . S
C782 H794 0.956 . S
C782 H795 0.961 . S
C782 H796 0.961 . S
C783 C780 1.539 . S
C783 H797 0.958 . S
C783 H798 0.961 . S
C783 H799 0.960 . S
H784 C768 0.931 . S
H785 C773 0.929 . S
H786 C774 0.960 . S
H787 C774 0.962 . S
H788 C774 0.960 . S
H789 C775 0.961 . S
H790 C775 0.961 . S
H791 C775 0.961 . S
H792 C776 0.931 . S
H793 C781 0.930 . S
H794 C782 0.956 . S
H795 C782 0.961 . S
H796 C782 0.961 . S
H797 C783 0.958 . S
H798 C783 0.961 . S
H799 C783 0.960 . S
C800 C801 1.391 . S
C800 C802 1.394 . S
C800 H816 0.931 . S
C801 C800 1.391 . S
C801 C805 1.376 . S
C802 C800 1.394 . S
C802 C803 1.369 . S
C802 C806 1.531 . S
C803 C802 1.369 . S
C803 C804 1.410 . S
C803 C811 1.503 . S
C804 C803 1.410 . S
C804 C805 1.392 . S
C804 C807 1.511 . S
C805 C801 1.376 . S
C805 C804 1.392 . S
C805 H817 0.929 . S
C806 C802 1.531 . S
C806 H818 0.960 . S
C806 H819 0.962 . S
C806 H820 0.960 . S
C807 C804 1.511 . S
C807 H821 0.961 . S
C807 H822 0.961 . S
C807 H823 0.961 . S
C808 C809 1.370 . S
C808 C810 1.363 . S
C808 H824 0.931 . S
C809 C808 1.370 . S
C809 C813 1.408 . S
C810 C808 1.363 . S
C810 C811 1.370 . S
C810 C814 1.524 . S
C811 C803 1.503 . S
C811 C810 1.370 . S
C811 C812 1.403 . S
C812 C811 1.403 . S
C812 C813 1.404 . S
C812 C815 1.539 . S
C813 C809 1.408 . S
C813 C812 1.404 . S
C813 H825 0.930 . S
C814 C810 1.524 . S
C814 H826 0.956 . S
C814 H827 0.961 . S
C814 H828 0.961 . S
C815 C812 1.539 . S
C815 H829 0.958 . S
C815 H830 0.961 . S
C815 H831 0.960 . S
H816 C800 0.931 . S
H817 C805 0.929 . S
H818 C806 0.960 . S
H819 C806 0.962 . S
H820 C806 0.960 . S
H821 C807 0.961 . S
H822 C807 0.961 . S
H823 C807 0.961 . S
H824 C808 0.931 . S
H825 C813 0.930 . S
H826 C814 0.956 . S
H827 C814 0.961 . S
H828 C814 0.961 . S
H829 C815 0.958 . S
H830 C815 0.961 . S
H831 C815 0.960 . S
C832 C833 1.391 . S
C832 C834 1.394 . S
C832 H848 0.931 . S
C833 C832 1.391 . S
C833 C837 1.376 . S
C834 C832 1.394 . S
C834 C835 1.369 . S
C834 C838 1.531 . S
C835 C834 1.369 . S
C835 C836 1.410 . S
C835 C843 1.503 . S
C836 C835 1.410 . S
C836 C837 1.392 . S
C836 C839 1.511 . S
C837 C833 1.376 . S
C837 C836 1.392 . S
C837 H849 0.929 . S
C838 C834 1.531 . S
C838 H850 0.960 . S
C838 H851 0.962 . S
C838 H852 0.960 . S
C839 C836 1.511 . S
C839 H853 0.961 . S
C839 H854 0.961 . S
C839 H855 0.961 . S
C840 C841 1.370 . S
C840 C842 1.363 . S
C840 H856 0.931 . S
C841 C840 1.370 . S
C841 C845 1.408 . S
C842 C840 1.363 . S
C842 C843 1.370 . S
C842 C846 1.524 . S
C843 C835 1.503 . S
C843 C842 1.370 . S
C843 C844 1.403 . S
C844 C843 1.403 . S
C844 C845 1.404 . S
C844 C847 1.539 . S
C845 C841 1.408 . S
C845 C844 1.404 . S
C845 H857 0.930 . S
C846 C842 1.524 . S
C846 H858 0.956 . S
C846 H859 0.961 . S
C846 H860 0.961 . S
C847 C844 1.539 . S
C847 H861 0.958 . S
C847 H862 0.961 . S
C847 H863 0.960 . S
H848 C832 0.931 . S
H849 C837 0.929 . S
H850 C838 0.960 . S
H851 C838 0.962 . S
H852 C838 0.960 . S
H853 C839 0.961 . S
H854 C839 0.961 . S
H855 C839 0.961 . S
H856 C840 0.931 . S
H857 C845 0.930 . S
H858 C846 0.956 . S
H859 C846 0.961 . S
H860 C846 0.961 . S
H861 C847 0.958 . S
H862 C847 0.961 . S
H863 C847 0.960 . S
C864 C865 1.391 . S
C864 C866 1.394 . S
C864 H880 0.931 . S
C865 C864 1.391 . S
C865 C869 1.376 . S
C866 C864 1.394 . S
C866 C867 1.369 . S
C866 C870 1.531 . S
C867 C866 1.369 . S
C867 C868 1.410 . S
C867 C875 1.503 . S
C868 C867 1.410 . S
C868 C869 1.392 . S
C868 C871 1.511 . S
C869 C865 1.376 . S
C869 C868 1.392 . S
C869 H881 0.929 . S
C870 C866 1.531 . S
C870 H882 0.960 . S
C870 H883 0.962 . S
C870 H884 0.960 . S
C871 C868 1.511 . S
C871 H885 0.961 . S
C871 H886 0.961 . S
C871 H887 0.961 . S
C872 C873 1.370 . S
C872 C874 1.363 . S
C872 H888 0.931 . S
C873 C872 1.370 . S
C873 C877 1.408 . S
C874 C872 1.363 . S
C874 C875 1.370 . S
C874 C878 1.524 . S
C875 C867 1.503 . S
C875 C874 1.370 . S
C875 C876 1.403 . S
C876 C875 1.403 . S
C876 C877 1.404 . S
C876 C879 1.539 . S
C877 C873 1.408 . S
C877 C876 1.404 . S
C877 H889 0.930 . S
C878 C874 1.524 . S
C878 H890 0.956 . S
C878 H891 0.961 . S
C878 H892 0.961 . S
C879 C876 1.539 . S
C879 H893 0.958 . S
C879 H894 0.961 . S
C879 H895 0.960 . S
H880 C864 0.931 . S
H881 C869 0.929 . S
H882 C870 0.960 . S
H883 C870 0.962 . S
H884 C870 0.960 . S
H885 C871 0.961 . S
H886 C871 0.961 . S
H887 C871 0.961 . S
H888 C872 0.931 . S
H889 C877 0.930 . S
H890 C878 0.956 . S
H891 C878 0.961 . S
H892 C878 0.961 . S
H893 C879 0.958 . S
H894 C879 0.961 . S
H895 C879 0.960 . S
C896 C897 1.391 . S
C896 C898 1.394 . S
C896 H912 0.931 . S
C897 C896 1.391 . S
C897 C901 1.376 . S
C898 C896 1.394 . S
C898 C899 1.369 . S
C898 C902 1.531 . S
C899 C898 1.369 . S
C899 C900 1.410 . S
C899 C907 1.503 . S
C900 C899 1.410 . S
C900 C901 1.392 . S
C900 C903 1.511 . S
C901 C897 1.376 . S
C901 C900 1.392 . S
C901 H913 0.929 . S
C902 C898 1.531 . S
C902 H914 0.960 . S
C902 H915 0.962 . S
C902 H916 0.960 . S
C903 C900 1.511 . S
C903 H917 0.961 . S
C903 H918 0.961 . S
C903 H919 0.961 . S
C904 C905 1.370 . S
C904 C906 1.363 1_554 S
C904 H920 0.931 . S
C905 C904 1.370 . S
C905 C909 1.408 1_554 S
C906 C904 1.363 1_556 S
C906 C907 1.370 . S
C906 C910 1.524 1_556 S
C907 C899 1.503 . S
C907 C906 1.370 . S
C907 C908 1.403 . S
C908 C907 1.403 . S
C908 C909 1.404 . S
C908 C911 1.539 . S
C909 C905 1.408 1_556 S
C909 C908 1.404 . S
C909 H921 0.930 . S
C910 C906 1.524 1_554 S
C910 H922 0.956 . S
C910 H923 0.948 1_554 S
C910 H924 0.961 . S
C911 C908 1.539 . S
C911 H925 0.958 . S
C911 H926 0.961 . S
C911 H927 0.960 . S
H912 C896 0.931 . S
H913 C901 0.929 . S
H914 C902 0.960 . S
H915 C902 0.962 . S
H916 C902 0.960 . S
H917 C903 0.961 . S
H918 C903 0.961 . S
H919 C903 0.961 . S
H920 C904 0.931 . S
H921 C909 0.930 . S
H922 C910 0.956 . S
H923 C910 0.948 1_556 S
H924 C910 0.961 . S
H925 C911 0.958 . S
H926 C911 0.961 . S
H927 C911 0.960 . S
C928 C929 1.391 . S
C928 C930 1.394 . S
C928 H944 0.931 . S
C929 C928 1.391 . S
C929 C933 1.376 . S
C930 C928 1.394 . S
C930 C931 1.369 . S
C930 C934 1.531 . S
C931 C930 1.369 . S
C931 C932 1.410 . S
C931 C939 1.503 . S
C932 C931 1.410 . S
C932 C933 1.392 . S
C932 C935 1.511 . S
C933 C929 1.376 . S
C933 C932 1.392 . S
C933 H945 0.929 . S
C934 C930 1.531 . S
C934 H946 0.960 . S
C934 H947 0.962 . S
C934 H948 0.960 . S
C935 C932 1.511 . S
C935 H949 0.961 . S
C935 H950 0.961 . S
C935 H951 0.961 . S
C936 C937 1.370 . S
C936 C938 1.363 . S
C936 H952 0.931 . S
C937 C936 1.370 . S
C937 C941 1.408 . S
C938 C936 1.363 . S
C938 C939 1.370 . S
C938 C942 1.524 . S
C939 C931 1.503 . S
C939 C938 1.370 . S
C939 C940 1.403 . S
C940 C939 1.403 . S
C940 C941 1.404 . S
C940 C943 1.539 . S
C941 C937 1.408 . S
C941 C940 1.404 . S
C941 H953 0.930 . S
C942 C938 1.524 . S
C942 H954 0.956 . S
C942 H955 0.961 . S
C942 H956 0.961 . S
C943 C940 1.539 . S
C943 H957 0.958 . S
C943 H958 0.961 . S
C943 H959 0.960 . S
H944 C928 0.931 . S
H945 C933 0.929 . S
H946 C934 0.960 . S
H947 C934 0.962 . S
H948 C934 0.960 . S
H949 C935 0.961 . S
H950 C935 0.961 . S
H951 C935 0.961 . S
H952 C936 0.931 . S
H953 C941 0.930 . S
H954 C942 0.956 . S
H955 C942 0.961 . S
H956 C942 0.961 . S
H957 C943 0.958 . S
H958 C943 0.961 . S
H959 C943 0.960 . S
C960 C961 1.391 . S
C960 C962 1.394 1_565 S
C960 H976 0.931 . S
C961 C960 1.391 . S
C961 C965 1.376 . S
C962 C960 1.394 1_545 S
C962 C963 1.377 . S
C962 C966 1.531 . S
C963 C962 1.377 . S
C963 C964 1.383 1_545 S
C963 C971 1.520 . S
C964 C963 1.383 1_565 S
C964 C965 1.392 . S
C964 C967 1.511 . S
C965 C961 1.376 . S
C965 C964 1.392 . S
C965 H977 0.929 . S
C966 C962 1.531 . S
C966 H978 0.960 . S
C966 H979 0.962 . S
C966 H980 0.960 . S
C967 C964 1.511 . S
C967 H981 0.961 . S
C967 H982 0.961 . S
C967 H983 0.961 1_565 S
C968 C969 1.370 1_565 S
C968 C970 1.363 1_556 S
C968 H984 0.931 . S
C969 C968 1.370 1_545 S
C969 C973 1.408 . S
C970 C968 1.363 1_554 S
C970 C971 1.370 1_565 S
C970 C974 1.524 . S
C971 C963 1.520 . S
C971 C970 1.370 1_545 S
C971 C972 1.403 . S
C972 C971 1.403 . S
C972 C973 1.404 1_554 S
C972 C975 1.539 . S
C973 C969 1.408 . S
C973 C972 1.404 1_556 S
C973 H985 0.930 . S
C974 C970 1.524 . S
C974 H986 0.956 . S
C974 H987 0.961 . S
C974 H988 0.954 1_554 S
C975 C972 1.539 . S
C975 H989 0.958 . S
C975 H990 0.961 . S
C975 H991 0.960 . S
H976 C960 0.931 . S
H977 C965 0.929 . S
H978 C966 0.960 . S
H979 C966 0.962 . S
H980 C966 0.960 . S
H981 C967 0.961 . S
H982 C967 0.961 . S
H983 C967 0.961 1_545 S
H984 C968 0.931 . S
H985 C973 0.930 . S
H986 C974 0.956 . S
H987 C974 0.961 . S
H988 C974 0.954 1_556 S
H989 C975 0.958 . S
H990 C975 0.961 . S
H991 C975 0.960 . S
C992 C993 1.391 . S
C992 C994 1.394 . S
C992 H1008 0.931 . S
C993 C992 1.391 . S
C993 C997 1.376 . S
C994 C992 1.394 . S
C994 C995 1.369 . S
C994 C998 1.531 . S
C995 C994 1.369 . S
C995 C996 1.410 . S
C995 C1003 1.503 . S
C996 C995 1.410 . S
C996 C997 1.392 . S
C996 C999 1.511 . S
C997 C993 1.376 . S
C997 C996 1.392 . S
C997 H1009 0.929 . S
C998 C994 1.531 . S
C998 H1010 0.960 . S
C998 H1011 0.962 . S
C998 H1012 0.960 . S
C999 C996 1.511 . S
C999 H1013 0.961 . S
C999 H1014 0.961 . S
C999 H1015 0.961 . S
C1000 C1001 1.370 . S
C1000 C1002 1.363 . S
C1000 H1016 0.931 . S
C1001 C1000 1.370 . S
C1001 C1005 1.408 . S
C1002 C1000 1.363 . S
C1002 C1003 1.370 . S
C1002 C1006 1.524 . S
C1003 C995 1.503 . S
C1003 C1002 1.370 . S
C1003 C1004 1.403 . S
C1004 C1003 1.403 . S
C1004 C1005 1.404 . S
C1004 C1007 1.539 . S
C1005 C1001 1.408 . S
C1005 C1004 1.404 . S
C1005 H1017 0.930 . S
C1006 C1002 1.524 . S
C1006 H1018 0.956 . S
C1006 H1019 0.961 . S
C1006 H1020 0.961 . S
C1007 C1004 1.539 . S
C1007 H1021 0.958 . S
C1007 H1022 0.961 . S
C1007 H1023 0.960 . S
H1008 C992 0.931 . S
H1009 C997 0.929 . S
H1010 C998 0.960 . S
H1011 C998 0.962 . S
H1012 C998 0.960 . S
H1013 C999 0.961 . S
H1014 C999 0.961 . S
H1015 C999 0.961 . S
H1016 C1000 0.931 . S
H1017 C1005 0.930 . S
H1018 C1006 0.956 . S
H1019 C1006 0.961 . S
H1020 C1006 0.961 . S
H1021 C1007 0.958 . S
H1022 C1007 0.961 . S
H1023 C1007 0.960 . S
C1024 C1025 1.391 . S
C1024 C1026 1.394 . S
C1024 H1040 0.931 . S
C1025 C1024 1.391 . S
C1025 C1029 1.376 1_545 S
C1026 C1024 1.394 . S
C1026 C1027 1.369 . S
C1026 C1030 1.531 . S
C1027 C1026 1.369 . S
C1027 C1028 1.410 1_545 S
C1027 C1035 1.503 1_545 S
C1028 C1027 1.410 1_565 S
C1028 C1029 1.392 . S
C1028 C1031 1.511 . S
C1029 C1025 1.376 1_565 S
C1029 C1028 1.392 . S
C1029 H1041 0.929 . S
C1030 C1026 1.531 . S
C1030 H1042 0.960 . S
C1030 H1043 0.962 . S
C1030 H1044 0.960 . S
C1031 C1028 1.511 . S
C1031 H1045 0.961 . S
C1031 H1046 0.961 . S
C1031 H1047 0.961 . S
C1032 C1033 1.370 . S
C1032 C1034 1.363 . S
C1032 H1048 0.931 . S
C1033 C1032 1.370 . S
C1033 C1037 1.408 . S
C1034 C1032 1.363 . S
C1034 C1035 1.370 . S
C1034 C1038 1.524 . S
C1035 C1027 1.503 1_565 S
C1035 C1034 1.370 . S
C1035 C1036 1.403 . S
C1036 C1035 1.403 . S
C1036 C1037 1.404 . S
C1036 C1039 1.539 . S
C1037 C1033 1.408 . S
C1037 C1036 1.404 . S
C1037 H1049 0.930 . S
C1038 C1034 1.524 . S
C1038 H1050 0.956 1_565 S
C1038 H1051 0.961 . S
C1038 H1052 0.961 . S
C1039 C1036 1.539 . S
C1039 H1053 0.958 1_565 S
C1039 H1054 0.961 . S
C1039 H1055 0.960 . S
H1040 C1024 0.931 . S
H1041 C1029 0.929 . S
H1042 C1030 0.960 . S
H1043 C1030 0.962 . S
H1044 C1030 0.960 . S
H1045 C1031 0.961 . S
H1046 C1031 0.961 . S
H1047 C1031 0.961 . S
H1048 C1032 0.931 . S
H1049 C1037 0.930 . S
H1050 C1038 0.956 1_545 S
H1051 C1038 0.961 . S
H1052 C1038 0.961 . S
H1053 C1039 0.958 1_545 S
H1054 C1039 0.961 . S
H1055 C1039 0.960 . S
C1056 C1057 1.391 . S
C1056 C1058 1.394 . S
C1056 H1072 0.931 . S
C1057 C1056 1.391 . S
C1057 C1061 1.376 . S
C1058 C1056 1.394 . S
C1058 C1059 1.369 . S
C1058 C1062 1.531 . S
C1059 C1058 1.369 . S
C1059 C1060 1.410 . S
C1059 C1067 1.503 . S
C1060 C1059 1.410 . S
C1060 C1061 1.392 . S
C1060 C1063 1.511 . S
C1061 C1057 1.376 . S
C1061 C1060 1.392 . S
C1061 H1073 0.929 . S
C1062 C1058 1.531 . S
C1062 H1074 0.960 . S
C1062 H1075 0.962 . S
C1062 H1076 0.960 . S
C1063 C1060 1.511 . S
C1063 H1077 0.961 . S
C1063 H1078 0.961 . S
C1063 H1079 0.961 . S
C1064 C1065 1.370 . S
C1064 C1066 1.363 . S
C1064 H1080 0.931 . S
C1065 C1064 1.370 . S
C1065 C1069 1.408 . S
C1066 C1064 1.363 . S
C1066 C1067 1.370 . S
C1066 C1070 1.524 . S
C1067 C1059 1.503 . S
C1067 C1066 1.370 . S
C1067 C1068 1.403 . S
C1068 C1067 1.403 . S
C1068 C1069 1.404 . S
C1068 C1071 1.539 . S
C1069 C1065 1.408 . S
C1069 C1068 1.404 . S
C1069 H1081 0.930 . S
C1070 C1066 1.524 . S
C1070 H1082 0.956 . S
C1070 H1083 0.961 . S
C1070 H1084 0.961 . S
C1071 C1068 1.539 . S
C1071 H1085 0.958 . S
C1071 H1086 0.961 . S
C1071 H1087 0.960 . S
H1072 C1056 0.931 . S
H1073 C1061 0.929 . S
H1074 C1062 0.960 . S
H1075 C1062 0.962 . S
H1076 C1062 0.960 . S
H1077 C1063 0.961 . S
H1078 C1063 0.961 . S
H1079 C1063 0.961 . S
H1080 C1064 0.931 . S
H1081 C1069 0.930 . S
H1082 C1070 0.956 . S
H1083 C1070 0.961 . S
H1084 C1070 0.961 . S
H1085 C1071 0.958 . S
H1086 C1071 0.961 . S
H1087 C1071 0.960 . S
C1088 C1089 1.391 . S
C1088 C1090 1.394 1_556 S
C1088 H1104 0.931 . S
C1089 C1088 1.391 . S
C1089 C1093 1.376 . S
C1090 C1088 1.394 1_554 S
C1090 C1091 1.369 . S
C1090 C1094 1.531 . S
C1091 C1090 1.369 . S
C1091 C1092 1.410 . S
C1091 C1099 1.502 1_545 S
C1092 C1091 1.410 . S
C1092 C1093 1.392 1_554 S
C1092 C1095 1.511 1_545 S
C1093 C1089 1.376 . S
C1093 C1092 1.392 1_556 S
C1093 H1105 0.929 . S
C1094 C1090 1.531 . S
C1094 H1106 0.960 . S
C1094 H1107 0.962 . S
C1094 H1108 0.960 . S
C1095 C1092 1.511 1_565 S
C1095 H1109 0.961 . S
C1095 H1110 0.961 . S
C1095 H1111 0.961 1_565 S
C1096 C1097 1.370 . S
C1096 C1098 1.363 . S
C1096 H1112 0.931 . S
C1097 C1096 1.370 . S
C1097 C1101 1.408 1_565 S
C1098 C1096 1.363 . S
C1098 C1099 1.375 . S
C1098 C1102 1.524 . S
C1099 C1091 1.502 1_565 S
C1099 C1098 1.375 . S
C1099 C1100 1.400 1_565 S
C1100 C1099 1.400 1_545 S
C1100 C1101 1.404 . S
C1100 C1103 1.539 . S
C1101 C1097 1.408 1_545 S
C1101 C1100 1.404 . S
C1101 H1113 0.930 . S
C1102 C1098 1.524 . S
C1102 H1114 0.956 . S
C1102 H1115 0.961 . S
C1102 H1116 0.961 . S
C1103 C1100 1.539 . S
C1103 H1117 0.958 . S
C1103 H1118 0.961 . S
C1103 H1119 0.960 . S
H1104 C1088 0.931 . S
H1105 C1093 0.929 . S
H1106 C1094 0.960 . S
H1107 C1094 0.962 . S
H1108 C1094 0.960 . S
H1109 C1095 0.961 . S
H1110 C1095 0.961 . S
H1111 C1095 0.961 1_545 S
H1112 C1096 0.931 . S
H1113 C1101 0.930 . S
H1114 C1102 0.956 . S
H1115 C1102 0.961 . S
H1116 C1102 0.961 . S
H1117 C1103 0.958 . S
H1118 C1103 0.961 . S
H1119 C1103 0.960 . S
C1120 C1121 1.391 . S
C1120 C1122 1.394 . S
C1120 H1136 0.931 . S
C1121 C1120 1.391 . S
C1121 C1125 1.376 . S
C1122 C1120 1.394 . S
C1122 C1123 1.369 . S
C1122 C1126 1.531 . S
C1123 C1122 1.369 . S
C1123 C1124 1.410 . S
C1123 C1131 1.503 . S
C1124 C1123 1.410 . S
C1124 C1125 1.392 . S
C1124 C1127 1.511 . S
C1125 C1121 1.376 . S
C1125 C1124 1.392 . S
C1125 H1137 0.929 . S
C1126 C1122 1.531 . S
C1126 H1138 0.960 . S
C1126 H1139 0.962 . S
C1126 H1140 0.960 . S
C1127 C1124 1.511 . S
C1127 H1141 0.961 . S
C1127 H1142 0.961 . S
C1127 H1143 0.961 . S
C1128 C1129 1.370 . S
C1128 C1130 1.363 . S
C1128 H1144 0.931 . S
C1129 C1128 1.370 . S
C1129 C1133 1.408 . S
C1130 C1128 1.363 . S
C1130 C1131 1.370 . S
C1130 C1134 1.524 . S
C1131 C1123 1.503 . S
C1131 C1130 1.370 . S
C1131 C1132 1.403 . S
C1132 C1131 1.403 . S
C1132 C1133 1.404 . S
C1132 C1135 1.539 . S
C1133 C1129 1.408 . S
C1133 C1132 1.404 . S
C1133 H1145 0.930 . S
C1134 C1130 1.524 . S
C1134 H1146 0.956 . S
C1134 H1147 0.961 . S
C1134 H1148 0.961 . S
C1135 C1132 1.539 . S
C1135 H1149 0.958 . S
C1135 H1150 0.961 . S
C1135 H1151 0.960 . S
H1136 C1120 0.931 . S
H1137 C1125 0.929 . S
H1138 C1126 0.960 . S
H1139 C1126 0.962 . S
H1140 C1126 0.960 . S
H1141 C1127 0.961 . S
H1142 C1127 0.961 . S
H1143 C1127 0.961 . S
H1144 C1128 0.931 . S
H1145 C1133 0.930 . S
H1146 C1134 0.956 . S
H1147 C1134 0.961 . S
H1148 C1134 0.961 . S
H1149 C1135 0.958 . S
H1150 C1135 0.961 . S
H1151 C1135 0.960 . S
C1152 C1153 1.391 . S
C1152 C1154 1.394 . S
C1152 H1168 0.931 . S
C1153 C1152 1.391 . S
C1153 C1157 1.376 1_545 S
C1154 C1152 1.394 . S
C1154 C1155 1.394 . S
C1154 C1158 1.531 . S
C1155 C1154 1.394 . S
C1155 C1156 1.393 1_545 S
C1155 C1163 1.496 1_545 S
C1156 C1155 1.393 1_565 S
C1156 C1157 1.392 . S
C1156 C1159 1.511 . S
C1157 C1153 1.376 1_565 S
C1157 C1156 1.392 . S
C1157 H1169 0.929 . S
C1158 C1154 1.531 . S
C1158 H1170 0.960 . S
C1158 H1171 0.962 . S
C1158 H1172 0.960 . S
C1159 C1156 1.511 . S
C1159 H1173 0.961 . S
C1159 H1174 0.961 . S
C1159 H1175 0.961 . S
C1160 C1161 1.370 . S
C1160 C1162 1.363 1_565 S
C1160 H1176 0.931 1_565 S
C1161 C1160 1.370 . S
C1161 C1165 1.408 . S
C1162 C1160 1.363 1_545 S
C1162 C1163 1.370 1_545 S
C1162 C1166 1.524 . S
C1163 C1155 1.496 1_565 S
C1163 C1162 1.370 1_565 S
C1163 C1164 1.403 . S
C1164 C1163 1.403 . S
C1164 C1165 1.404 . S
C1164 C1167 1.539 . S
C1165 C1161 1.408 . S
C1165 C1164 1.404 . S
C1165 H1177 0.930 . S
C1166 C1162 1.524 . S
C1166 H1178 0.956 . S
C1166 H1179 0.961 . S
C1166 H1180 0.961 . S
C1167 C1164 1.539 . S
C1167 H1181 0.958 . S
C1167 H1182 0.961 . S
C1167 H1183 0.960 . S
H1168 C1152 0.931 . S
H1169 C1157 0.929 . S
H1170 C1158 0.960 . S
H1171 C1158 0.962 . S
H1172 C1158 0.960 . S
H1173 C1159 0.961 . S
H1174 C1159 0.961 . S
H1175 C1159 0.961 . S
H1176 C1160 0.931 1_545 S
H1177 C1165 0.930 . S
H1178 C1166 0.956 . S
H1179 C1166 0.961 . S
H1180 C1166 0.961 . S
H1181 C1167 0.958 . S
H1182 C1167 0.961 . S
H1183 C1167 0.960 . S
C1184 C1185 1.391 . S
C1184 C1186 1.394 . S
C1184 H1200 0.931 . S
C1185 C1184 1.391 . S
C1185 C1189 1.376 . S
C1186 C1184 1.394 . S
C1186 C1187 1.369 . S
C1186 C1190 1.531 . S
C1187 C1186 1.369 . S
C1187 C1188 1.410 . S
C1187 C1195 1.503 . S
C1188 C1187 1.410 . S
C1188 C1189 1.392 . S
C1188 C1191 1.511 . S
C1189 C1185 1.376 . S
C1189 C1188 1.392 . S
C1189 H1201 0.929 . S
C1190 C1186 1.531 . S
C1190 H1202 0.960 . S
C1190 H1203 0.962 . S
C1190 H1204 0.960 . S
C1191 C1188 1.511 . S
C1191 H1205 0.961 . S
C1191 H1206 0.961 . S
C1191 H1207 0.961 . S
C1192 C1193 1.370 . S
C1192 C1194 1.363 . S
C1192 H1208 0.931 . S
C1193 C1192 1.370 . S
C1193 C1197 1.408 . S
C1194 C1192 1.363 . S
C1194 C1195 1.370 . S
C1194 C1198 1.524 . S
C1195 C1187 1.503 . S
C1195 C1194 1.370 . S
C1195 C1196 1.403 . S
C1196 C1195 1.403 . S
C1196 C1197 1.404 . S
C1196 C1199 1.539 . S
C1197 C1193 1.408 . S
C1197 C1196 1.404 . S
C1197 H1209 0.930 . S
C1198 C1194 1.524 . S
C1198 H1210 0.956 . S
C1198 H1211 0.961 . S
C1198 H1212 0.961 . S
C1199 C1196 1.539 . S
C1199 H1213 0.958 . S
C1199 H1214 0.961 . S
C1199 H1215 0.960 . S
H1200 C1184 0.931 . S
H1201 C1189 0.929 . S
H1202 C1190 0.960 . S
H1203 C1190 0.962 . S
H1204 C1190 0.960 . S
H1205 C1191 0.961 . S
H1206 C1191 0.961 . S
H1207 C1191 0.961 . S
H1208 C1192 0.931 . S
H1209 C1197 0.930 . S
H1210 C1198 0.956 . S
H1211 C1198 0.961 . S
H1212 C1198 0.961 . S
H1213 C1199 0.958 . S
H1214 C1199 0.961 . S
H1215 C1199 0.960 . S
C1216 C1217 1.391 . S
C1216 C1218 1.394 . S
C1216 H1232 0.931 . S
C1217 C1216 1.391 . S
C1217 C1221 1.376 . S
C1218 C1216 1.394 . S
C1218 C1219 1.369 . S
C1218 C1222 1.531 . S
C1219 C1218 1.369 . S
C1219 C1220 1.410 . S
C1219 C1227 1.503 . S
C1220 C1219 1.410 . S
C1220 C1221 1.392 . S
C1220 C1223 1.511 . S
C1221 C1217 1.376 . S
C1221 C1220 1.392 . S
C1221 H1233 0.929 . S
C1222 C1218 1.531 . S
C1222 H1234 0.960 . S
C1222 H1235 0.962 . S
C1222 H1236 0.960 . S
C1223 C1220 1.511 . S
C1223 H1237 0.961 . S
C1223 H1238 0.961 . S
C1223 H1239 0.961 . S
C1224 C1225 1.370 . S
C1224 C1226 1.363 . S
C1224 H1240 0.931 . S
C1225 C1224 1.370 . S
C1225 C1229 1.408 . S
C1226 C1224 1.363 . S
C1226 C1227 1.370 . S
C1226 C1230 1.524 . S
C1227 C1219 1.503 . S
C1227 C1226 1.370 . S
C1227 C1228 1.403 . S
C1228 C1227 1.403 . S
C1228 C1229 1.404 . S
C1228 C1231 1.539 . S
C1229 C1225 1.408 . S
C1229 C1228 1.404 . S
C1229 H1241 0.930 . S
C1230 C1226 1.524 . S
C1230 H1242 0.956 . S
C1230 H1243 0.961 . S
C1230 H1244 0.961 . S
C1231 C1228 1.539 . S
C1231 H1245 0.958 . S
C1231 H1246 0.961 . S
C1231 H1247 0.960 . S
H1232 C1216 0.931 . S
H1233 C1221 0.929 . S
H1234 C1222 0.960 . S
H1235 C1222 0.962 . S
H1236 C1222 0.960 . S
H1237 C1223 0.961 . S
H1238 C1223 0.961 . S
H1239 C1223 0.961 . S
H1240 C1224 0.931 . S
H1241 C1229 0.930 . S
H1242 C1230 0.956 . S
H1243 C1230 0.961 . S
H1244 C1230 0.961 . S
H1245 C1231 0.958 . S
H1246 C1231 0.961 . S
H1247 C1231 0.960 . S
C1248 C1249 1.391 . S
C1248 C1250 1.394 . S
C1248 H1264 0.931 . S
C1249 C1248 1.391 . S
C1249 C1253 1.376 . S
C1250 C1248 1.394 . S
C1250 C1251 1.369 . S
C1250 C1254 1.531 . S
C1251 C1250 1.369 . S
C1251 C1252 1.410 . S
C1251 C1259 1.503 . S
C1252 C1251 1.410 . S
C1252 C1253 1.392 . S
C1252 C1255 1.511 . S
C1253 C1249 1.376 . S
C1253 C1252 1.392 . S
C1253 H1265 0.929 . S
C1254 C1250 1.531 . S
C1254 H1266 0.960 . S
C1254 H1267 0.962 . S
C1254 H1268 0.960 . S
C1255 C1252 1.511 . S
C1255 H1269 0.961 . S
C1255 H1270 0.961 . S
C1255 H1271 0.961 . S
C1256 C1257 1.370 . S
C1256 C1258 1.363 . S
C1256 H1272 0.931 . S
C1257 C1256 1.370 . S
C1257 C1261 1.408 . S
C1258 C1256 1.363 . S
C1258 C1259 1.370 . S
C1258 C1262 1.524 . S
C1259 C1251 1.503 . S
C1259 C1258 1.370 . S
C1259 C1260 1.403 . S
C1260 C1259 1.403 . S
C1260 C1261 1.404 . S
C1260 C1263 1.539 . S
C1261 C1257 1.408 . S
C1261 C1260 1.404 . S
C1261 H1273 0.930 . S
C1262 C1258 1.524 . S
C1262 H1274 0.956 . S
C1262 H1275 0.961 . S
C1262 H1276 0.961 . S
C1263 C1260 1.539 . S
C1263 H1277 0.958 . S
C1263 H1278 0.961 . S
C1263 H1279 0.960 . S
H1264 C1248 0.931 . S
H1265 C1253 0.929 . S
H1266 C1254 0.960 . S
H1267 C1254 0.962 . S
H1268 C1254 0.960 . S
H1269 C1255 0.961 . S
H1270 C1255 0.961 . S
H1271 C1255 0.961 . S
H1272 C1256 0.931 . S
H1273 C1261 0.930 . S
H1274 C1262 0.956 . S
H1275 C1262 0.961 . S
H1276 C1262 0.961 . S
H1277 C1263 0.958 . S
H1278 C1263 0.961 . S
H1279 C1263 0.960 . S
C1280 C1281 1.391 . S
C1280 C1282 1.394 . S
C1280 H1296 0.931 . S
C1281 C1280 1.391 . S
C1281 C1285 1.376 . S
C1282 C1280 1.394 . S
C1282 C1283 1.369 . S
C1282 C1286 1.531 . S
C1283 C1282 1.369 . S
C1283 C1284 1.410 . S
C1283 C1291 1.503 . S
C1284 C1283 1.410 . S
C1284 C1285 1.392 . S
C1284 C1287 1.511 . S
C1285 C1281 1.376 . S
C1285 C1284 1.392 . S
C1285 H1297 0.929 . S
C1286 C1282 1.531 . S
C1286 H1298 0.960 . S
C1286 H1299 0.962 . S
C1286 H1300 0.960 . S
C1287 C1284 1.511 . S
C1287 H1301 0.961 . S
C1287 H1302 0.961 . S
C1287 H1303 0.961 . S
C1288 C1289 1.370 . S
C1288 C1290 1.363 1_556 S
C1288 H1304 0.931 . S
C1289 C1288 1.370 . S
C1289 C1293 1.408 . S
C1290 C1288 1.363 1_554 S
C1290 C1291 1.370 . S
C1290 C1294 1.524 . S
C1291 C1283 1.503 . S
C1291 C1290 1.370 . S
C1291 C1292 1.403 . S
C1292 C1291 1.403 . S
C1292 C1293 1.404 1_554 S
C1292 C1295 1.539 . S
C1293 C1289 1.408 . S
C1293 C1292 1.404 1_556 S
C1293 H1305 0.930 . S
C1294 C1290 1.524 . S
C1294 H1306 0.956 . S
C1294 H1307 0.961 . S
C1294 H1308 0.961 . S
C1295 C1292 1.539 . S
C1295 H1309 0.958 . S
C1295 H1310 0.961 1_554 S
C1295 H1311 0.960 . S
H1296 C1280 0.931 . S
H1297 C1285 0.929 . S
H1298 C1286 0.960 . S
H1299 C1286 0.962 . S
H1300 C1286 0.960 . S
H1301 C1287 0.961 . S
H1302 C1287 0.961 . S
H1303 C1287 0.961 . S
H1304 C1288 0.931 . S
H1305 C1293 0.930 . S
H1306 C1294 0.956 . S
H1307 C1294 0.961 . S
H1308 C1294 0.961 . S
H1309 C1295 0.958 . S
H1310 C1295 0.961 1_556 S
H1311 C1295 0.960 . S
C1312 C1313 1.391 . S
C1312 C1314 1.394 . S
C1312 H1328 0.931 . S
C1313 C1312 1.391 . S
C1313 C1317 1.376 . S
C1314 C1312 1.394 . S
C1314 C1315 1.369 . S
C1314 C1318 1.531 . S
C1315 C1314 1.369 . S
C1315 C1316 1.410 . S
C1315 C1323 1.503 . S
C1316 C1315 1.410 . S
C1316 C1317 1.392 . S
C1316 C1319 1.511 . S
C1317 C1313 1.376 . S
C1317 C1316 1.392 . S
C1317 H1329 0.929 . S
C1318 C1314 1.531 . S
C1318 H1330 0.960 . S
C1318 H1331 0.962 . S
C1318 H1332 0.960 . S
C1319 C1316 1.511 . S
C1319 H1333 0.961 . S
C1319 H1334 0.961 . S
C1319 H1335 0.961 . S
C1320 C1321 1.370 . S
C1320 C1322 1.363 . S
C1320 H1336 0.931 . S
C1321 C1320 1.370 . S
C1321 C1325 1.408 . S
C1322 C1320 1.363 . S
C1322 C1323 1.370 . S
C1322 C1326 1.524 . S
C1323 C1315 1.503 . S
C1323 C1322 1.370 . S
C1323 C1324 1.403 . S
C1324 C1323 1.403 . S
C1324 C1325 1.404 . S
C1324 C1327 1.539 . S
C1325 C1321 1.408 . S
C1325 C1324 1.404 . S
C1325 H1337 0.930 . S
C1326 C1322 1.524 . S
C1326 H1338 0.956 . S
C1326 H1339 0.961 . S
C1326 H1340 0.961 . S
C1327 C1324 1.539 . S
C1327 H1341 0.958 . S
C1327 H1342 0.961 . S
C1327 H1343 0.960 . S
H1328 C1312 0.931 . S
H1329 C1317 0.929 . S
H1330 C1318 0.960 . S
H1331 C1318 0.962 . S
H1332 C1318 0.960 . S
H1333 C1319 0.961 . S
H1334 C1319 0.961 . S
H1335 C1319 0.961 . S
H1336 C1320 0.931 . S
H1337 C1325 0.930 . S
H1338 C1326 0.956 . S
H1339 C1326 0.961 . S
H1340 C1326 0.961 . S
H1341 C1327 0.958 . S
H1342 C1327 0.961 . S
H1343 C1327 0.960 . S
C1344 C1345 1.391 . S
C1344 C1346 1.394 . S
C1344 H1360 0.931 . S
C1345 C1344 1.391 . S
C1345 C1349 1.376 . S
C1346 C1344 1.394 . S
C1346 C1347 1.369 . S
C1346 C1350 1.531 . S
C1347 C1346 1.369 . S
C1347 C1348 1.410 . S
C1347 C1355 1.503 . S
C1348 C1347 1.410 . S
C1348 C1349 1.392 . S
C1348 C1351 1.511 . S
C1349 C1345 1.376 . S
C1349 C1348 1.392 . S
C1349 H1361 0.929 . S
C1350 C1346 1.531 . S
C1350 H1362 0.960 . S
C1350 H1363 0.962 . S
C1350 H1364 0.960 . S
C1351 C1348 1.511 . S
C1351 H1365 0.961 . S
C1351 H1366 0.961 . S
C1351 H1367 0.961 . S
C1352 C1353 1.370 . S
C1352 C1354 1.363 . S
C1352 H1368 0.931 . S
C1353 C1352 1.370 . S
C1353 C1357 1.408 . S
C1354 C1352 1.363 . S
C1354 C1355 1.370 . S
C1354 C1358 1.524 . S
C1355 C1347 1.503 . S
C1355 C1354 1.370 . S
C1355 C1356 1.403 . S
C1356 C1355 1.403 . S
C1356 C1357 1.404 . S
C1356 C1359 1.539 . S
C1357 C1353 1.408 . S
C1357 C1356 1.404 . S
C1357 H1369 0.930 . S
C1358 C1354 1.524 . S
C1358 H1370 0.956 . S
C1358 H1371 0.961 . S
C1358 H1372 0.961 . S
C1359 C1356 1.539 . S
C1359 H1373 0.958 . S
C1359 H1374 0.961 . S
C1359 H1375 0.960 . S
H1360 C1344 0.931 . S
H1361 C1349 0.929 . S
H1362 C1350 0.960 . S
H1363 C1350 0.962 . S
H1364 C1350 0.960 . S
H1365 C1351 0.961 . S
H1366 C1351 0.961 . S
H1367 C1351 0.961 . S
H1368 C1352 0.931 . S
H1369 C1357 0.930 . S
H1370 C1358 0.956 . S
H1371 C1358 0.961 . S
H1372 C1358 0.961 . S
H1373 C1359 0.958 . S
H1374 C1359 0.961 . S
H1375 C1359 0.960 . S
C1376 C1377 1.391 . S
C1376 C1378 1.394 . S
C1376 H1392 0.931 . S
C1377 C1376 1.391 . S
C1377 C1381 1.376 . S
C1378 C1376 1.394 . S
C1378 C1379 1.369 . S
C1378 C1382 1.531 . S
C1379 C1378 1.369 . S
C1379 C1380 1.410 . S
C1379 C1387 1.503 . S
C1380 C1379 1.410 . S
C1380 C1381 1.392 . S
C1380 C1383 1.511 . S
C1381 C1377 1.376 . S
C1381 C1380 1.392 . S
C1381 H1393 0.929 . S
C1382 C1378 1.531 . S
C1382 H1394 0.960 . S
C1382 H1395 0.962 . S
C1382 H1396 0.960 . S
C1383 C1380 1.511 . S
C1383 H1397 0.961 . S
C1383 H1398 0.961 . S
C1383 H1399 0.961 . S
C1384 C1385 1.370 . S
C1384 C1386 1.363 . S
C1384 H1400 0.931 . S
C1385 C1384 1.370 . S
C1385 C1389 1.408 . S
C1386 C1384 1.363 . S
C1386 C1387 1.370 . S
C1386 C1390 1.524 . S
C1387 C1379 1.503 . S
C1387 C1386 1.370 . S
C1387 C1388 1.403 . S
C1388 C1387 1.403 . S
C1388 C1389 1.404 . S
C1388 C1391 1.539 . S
C1389 C1385 1.408 . S
C1389 C1388 1.404 . S
C1389 H1401 0.930 . S
C1390 C1386 1.524 . S
C1390 H1402 0.956 . S
C1390 H1403 0.961 . S
C1390 H1404 0.961 . S
C1391 C1388 1.539 . S
C1391 H1405 0.958 . S
C1391 H1406 0.961 . S
C1391 H1407 0.960 . S
H1392 C1376 0.931 . S
H1393 C1381 0.929 . S
H1394 C1382 0.960 . S
H1395 C1382 0.962 . S
H1396 C1382 0.960 . S
H1397 C1383 0.961 . S
H1398 C1383 0.961 . S
H1399 C1383 0.961 . S
H1400 C1384 0.931 . S
H1401 C1389 0.930 . S
H1402 C1390 0.956 . S
H1403 C1390 0.961 . S
H1404 C1390 0.961 . S
H1405 C1391 0.958 . S
H1406 C1391 0.961 . S
H1407 C1391 0.960 . S
C1408 C1409 1.391 . S
C1408 C1410 1.394 . S
C1408 H1424 0.931 . S
C1409 C1408 1.391 . S
C1409 C1413 1.376 . S
C1410 C1408 1.394 . S
C1410 C1411 1.369 . S
C1410 C1414 1.531 . S
C1411 C1410 1.369 . S
C1411 C1412 1.410 . S
C1411 C1419 1.503 . S
C1412 C1411 1.410 . S
C1412 C1413 1.392 . S
C1412 C1415 1.511 . S
C1413 C1409 1.376 . S
C1413 C1412 1.392 . S
C1413 H1425 0.929 . S
C1414 C1410 1.531 . S
C1414 H1426 0.960 . S
C1414 H1427 0.962 . S
C1414 H1428 0.960 . S
C1415 C1412 1.511 . S
C1415 H1429 0.961 . S
C1415 H1430 0.961 . S
C1415 H1431 0.961 . S
C1416 C1417 1.370 . S
C1416 C1418 1.363 1_556 S
C1416 H1432 0.931 . S
C1417 C1416 1.370 . S
C1417 C1421 1.408 . S
C1418 C1416 1.363 1_554 S
C1418 C1419 1.370 . S
C1418 C1422 1.524 . S
C1419 C1411 1.503 . S
C1419 C1418 1.370 . S
C1419 C1420 1.403 . S
C1420 C1419 1.403 . S
C1420 C1421 1.404 1_554 S
C1420 C1423 1.539 . S
C1421 C1417 1.408 . S
C1421 C1420 1.404 1_556 S
C1421 H1433 0.930 . S
C1422 C1418 1.524 . S
C1422 H1434 0.956 . S
C1422 H1435 0.961 . S
C1422 H1436 0.961 . S
C1423 C1420 1.539 . S
C1423 H1437 0.958 . S
C1423 H1438 0.961 . S
C1423 H1439 0.960 . S
H1424 C1408 0.931 . S
H1425 C1413 0.929 . S
H1426 C1414 0.960 . S
H1427 C1414 0.962 . S
H1428 C1414 0.960 . S
H1429 C1415 0.961 . S
H1430 C1415 0.961 . S
H1431 C1415 0.961 . S
H1432 C1416 0.931 . S
H1433 C1421 0.930 . S
H1434 C1422 0.956 . S
H1435 C1422 0.961 . S
H1436 C1422 0.961 . S
H1437 C1423 0.958 . S
H1438 C1423 0.961 . S
H1439 C1423 0.960 . S
C1440 C1441 1.391 . S
C1440 C1442 1.394 . S
C1440 H1456 0.931 . S
C1441 C1440 1.391 . S
C1441 C1445 1.376 . S
C1442 C1440 1.394 . S
C1442 C1443 1.369 . S
C1442 C1446 1.531 . S
C1443 C1442 1.369 . S
C1443 C1444 1.410 . S
C1443 C1451 1.503 . S
C1444 C1443 1.410 . S
C1444 C1445 1.392 . S
C1444 C1447 1.511 1_554 S
C1445 C1441 1.376 . S
C1445 C1444 1.392 . S
C1445 H1457 0.929 . S
C1446 C1442 1.531 . S
C1446 H1458 0.960 . S
C1446 H1459 0.962 . S
C1446 H1460 0.960 . S
C1447 C1444 1.511 1_556 S
C1447 H1461 0.961 . S
C1447 H1462 0.961 . S
C1447 H1463 0.961 . S
C1448 C1449 1.370 . S
C1448 C1450 1.363 . S
C1448 H1464 0.931 . S
C1449 C1448 1.370 . S
C1449 C1453 1.408 . S
C1450 C1448 1.363 . S
C1450 C1451 1.370 . S
C1450 C1454 1.524 . S
C1451 C1443 1.503 . S
C1451 C1450 1.370 . S
C1451 C1452 1.403 . S
C1452 C1451 1.403 . S
C1452 C1453 1.404 . S
C1452 C1455 1.539 . S
C1453 C1449 1.408 . S
C1453 C1452 1.404 . S
C1453 H1465 0.930 . S
C1454 C1450 1.524 . S
C1454 H1466 0.956 . S
C1454 H1467 0.961 . S
C1454 H1468 0.961 . S
C1455 C1452 1.539 . S
C1455 H1469 0.958 . S
C1455 H1470 0.961 . S
C1455 H1471 0.960 . S
H1456 C1440 0.931 . S
H1457 C1445 0.929 . S
H1458 C1446 0.960 . S
H1459 C1446 0.962 . S
H1460 C1446 0.960 . S
H1461 C1447 0.961 . S
H1462 C1447 0.961 . S
H1463 C1447 0.961 . S
H1464 C1448 0.931 . S
H1465 C1453 0.930 . S
H1466 C1454 0.956 . S
H1467 C1454 0.961 . S
H1468 C1454 0.961 . S
H1469 C1455 0.958 . S
H1470 C1455 0.961 . S
H1471 C1455 0.960 . S
C1472 C1473 1.391 . S
C1472 C1474 1.394 . S
C1472 H1488 0.931 . S
C1473 C1472 1.391 . S
C1473 C1477 1.376 . S
C1474 C1472 1.394 . S
C1474 C1475 1.369 . S
C1474 C1478 1.531 . S
C1475 C1474 1.369 . S
C1475 C1476 1.410 . S
C1475 C1483 1.503 1_455 S
C1476 C1475 1.410 . S
C1476 C1477 1.392 . S
C1476 C1479 1.511 . S
C1477 C1473 1.376 . S
C1477 C1476 1.392 . S
C1477 H1489 0.929 . S
C1478 C1474 1.531 . S
C1478 H1490 0.960 1_455 S
C1478 H1491 0.921 1_565 S
C1478 H1492 0.960 . S
C1479 C1476 1.511 . S
C1479 H1493 0.961 . S
C1479 H1494 0.961 1_455 S
C1479 H1495 0.961 . S
C1480 C1481 1.370 . S
C1480 C1482 1.363 . S
C1480 H1496 0.931 . S
C1481 C1480 1.370 . S
C1481 C1485 1.408 . S
C1482 C1480 1.363 . S
C1482 C1483 1.370 . S
C1482 C1486 1.524 . S
C1483 C1475 1.503 1_655 S
C1483 C1482 1.370 . S
C1483 C1484 1.403 . S
C1484 C1483 1.403 . S
C1484 C1485 1.404 . S
C1484 C1487 1.539 . S
C1485 C1481 1.408 . S
C1485 C1484 1.404 . S
C1485 H1497 0.930 . S
C1486 C1482 1.524 . S
C1486 H1498 0.983 . S
C1486 H1499 0.918 1_655 S
C1486 H1500 0.961 . S
C1487 C1484 1.539 . S
C1487 H1501 0.958 . S
C1487 H1502 0.961 . S
C1487 H1503 0.968 . S
H1488 C1472 0.931 . S
H1489 C1477 0.929 . S
H1490 C1478 0.960 1_655 S
H1491 C1478 0.921 1_545 S
H1492 C1478 0.960 . S
H1493 C1479 0.961 . S
H1494 C1479 0.961 1_655 S
H1495 C1479 0.961 . S
H1496 C1480 0.931 . S
H1497 C1485 0.930 . S
H1498 C1486 0.983 . S
H1499 C1486 0.918 1_455 S
H1500 C1486 0.961 . S
H1501 C1487 0.958 . S
H1502 C1487 0.961 . S
H1503 C1487 0.968 . S
C1504 C1505 1.391 . S
C1504 C1506 1.394 . S
C1504 H1520 0.931 . S
C1505 C1504 1.391 . S
C1505 C1509 1.376 . S
C1506 C1504 1.394 . S
C1506 C1507 1.369 . S
C1506 C1510 1.531 . S
C1507 C1506 1.369 . S
C1507 C1508 1.410 . S
C1507 C1515 1.503 . S
C1508 C1507 1.410 . S
C1508 C1509 1.392 . S
C1508 C1511 1.511 . S
C1509 C1505 1.376 . S
C1509 C1508 1.392 . S
C1509 H1521 0.929 . S
C1510 C1506 1.531 . S
C1510 H1522 0.960 . S
C1510 H1523 0.962 . S
C1510 H1524 0.960 . S
C1511 C1508 1.511 . S
C1511 H1525 0.961 . S
C1511 H1526 0.961 . S
C1511 H1527 0.961 . S
C1512 C1513 1.370 . S
C1512 C1514 1.363 . S
C1512 H1528 0.931 . S
C1513 C1512 1.370 . S
C1513 C1517 1.408 . S
C1514 C1512 1.363 . S
C1514 C1515 1.370 . S
C1514 C1518 1.524 . S
C1515 C1507 1.503 . S
C1515 C1514 1.370 . S
C1515 C1516 1.403 . S
C1516 C1515 1.403 . S
C1516 C1517 1.404 . S
C1516 C1519 1.539 . S
C1517 C1513 1.408 . S
C1517 C1516 1.404 . S
C1517 H1529 0.930 . S
C1518 C1514 1.524 . S
C1518 H1530 0.956 . S
C1518 H1531 0.961 . S
C1518 H1532 0.961 . S
C1519 C1516 1.539 . S
C1519 H1533 0.958 . S
C1519 H1534 0.961 . S
C1519 H1535 0.960 . S
H1520 C1504 0.931 . S
H1521 C1509 0.929 . S
H1522 C1510 0.960 . S
H1523 C1510 0.962 . S
H1524 C1510 0.960 . S
H1525 C1511 0.961 . S
H1526 C1511 0.961 . S
H1527 C1511 0.961 . S
H1528 C1512 0.931 . S
H1529 C1517 0.930 . S
H1530 C1518 0.956 . S
H1531 C1518 0.961 . S
H1532 C1518 0.961 . S
H1533 C1519 0.958 . S
H1534 C1519 0.961 . S
H1535 C1519 0.960 . S
C1536 C1537 1.391 . S
C1536 C1538 1.394 . S
C1536 H1552 0.931 . S
C1537 C1536 1.391 . S
C1537 C1541 1.376 . S
C1538 C1536 1.394 . S
C1538 C1539 1.369 . S
C1538 C1542 1.538 . S
C1539 C1538 1.369 . S
C1539 C1540 1.410 . S
C1539 C1547 1.503 . S
C1540 C1539 1.410 . S
C1540 C1541 1.392 . S
C1540 C1543 1.511 . S
C1541 C1537 1.376 . S
C1541 C1540 1.392 . S
C1541 H1553 0.929 . S
C1542 C1538 1.538 . S
C1542 H1554 0.959 1_545 S
C1542 H1555 0.962 . S
C1542 H1556 0.953 1_545 S
C1543 C1540 1.511 . S
C1543 H1557 0.961 . S
C1543 H1558 0.961 . S
C1543 H1559 0.961 . S
C1544 C1545 1.370 . S
C1544 C1546 1.363 . S
C1544 H1560 0.931 . S
C1545 C1544 1.370 . S
C1545 C1549 1.408 . S
C1546 C1544 1.363 . S
C1546 C1547 1.370 . S
C1546 C1550 1.524 . S
C1547 C1539 1.503 . S
C1547 C1546 1.370 . S
C1547 C1548 1.403 . S
C1548 C1547 1.403 . S
C1548 C1549 1.404 . S
C1548 C1551 1.539 . S
C1549 C1545 1.408 . S
C1549 C1548 1.404 . S
C1549 H1561 0.930 . S
C1550 C1546 1.524 . S
C1550 H1562 0.956 . S
C1550 H1563 0.961 . S
C1550 H1564 0.961 . S
C1551 C1548 1.539 . S
C1551 H1565 0.958 . S
C1551 H1566 0.961 . S
C1551 H1567 0.960 . S
H1552 C1536 0.931 . S
H1553 C1541 0.929 . S
H1554 C1542 0.959 1_565 S
H1555 C1542 0.962 . S
H1556 C1542 0.953 1_565 S
H1557 C1543 0.961 . S
H1558 C1543 0.961 . S
H1559 C1543 0.961 . S
H1560 C1544 0.931 . S
H1561 C1549 0.930 . S
H1562 C1550 0.956 . S
H1563 C1550 0.961 . S
H1564 C1550 0.961 . S
H1565 C1551 0.958 . S
H1566 C1551 0.961 . S
H1567 C1551 0.960 . S
C1568 C1569 1.391 . S
C1568 C1570 1.394 . S
C1568 H1584 0.931 . S
C1569 C1568 1.391 . S
C1569 C1573 1.376 . S
C1570 C1568 1.394 . S
C1570 C1571 1.369 . S
C1570 C1574 1.531 . S
C1571 C1570 1.369 . S
C1571 C1572 1.410 . S
C1571 C1579 1.503 . S
C1572 C1571 1.410 . S
C1572 C1573 1.392 . S
C1572 C1575 1.511 . S
C1573 C1569 1.376 . S
C1573 C1572 1.392 . S
C1573 H1585 0.929 . S
C1574 C1570 1.531 . S
C1574 H1586 0.960 . S
C1574 H1587 0.962 . S
C1574 H1588 0.960 . S
C1575 C1572 1.511 . S
C1575 H1589 0.961 . S
C1575 H1590 0.961 . S
C1575 H1591 0.961 . S
C1576 C1577 1.370 . S
C1576 C1578 1.363 . S
C1576 H1592 0.931 . S
C1577 C1576 1.370 . S
C1577 C1581 1.408 . S
C1578 C1576 1.363 . S
C1578 C1579 1.370 . S
C1578 C1582 1.524 . S
C1579 C1571 1.503 . S
C1579 C1578 1.370 . S
C1579 C1580 1.403 . S
C1580 C1579 1.403 . S
C1580 C1581 1.404 . S
C1580 C1583 1.539 1_554 S
C1581 C1577 1.408 . S
C1581 C1580 1.404 . S
C1581 H1593 0.930 1_554 S
C1582 C1578 1.524 . S
C1582 H1594 0.956 . S
C1582 H1595 0.961 . S
C1582 H1596 0.961 . S
C1583 C1580 1.539 1_556 S
C1583 H1597 0.958 . S
C1583 H1598 0.961 . S
C1583 H1599 0.960 . S
H1584 C1568 0.931 . S
H1585 C1573 0.929 . S
H1586 C1574 0.960 . S
H1587 C1574 0.962 . S
H1588 C1574 0.960 . S
H1589 C1575 0.961 . S
H1590 C1575 0.961 . S
H1591 C1575 0.961 . S
H1592 C1576 0.931 . S
H1593 C1581 0.930 1_556 S
H1594 C1582 0.956 . S
H1595 C1582 0.961 . S
H1596 C1582 0.961 . S
H1597 C1583 0.958 . S
H1598 C1583 0.961 . S
H1599 C1583 0.960 . S
C1600 C1601 1.391 . S
C1600 C1602 1.394 . S
C1600 H1616 0.931 . S
C1601 C1600 1.391 . S
C1601 C1605 1.376 . S
C1602 C1600 1.394 . S
C1602 C1603 1.369 . S
C1602 C1606 1.531 . S
C1603 C1602 1.369 . S
C1603 C1604 1.410 . S
C1603 C1611 1.503 . S
C1604 C1603 1.410 . S
C1604 C1605 1.392 . S
C1604 C1607 1.511 . S
C1605 C1601 1.376 . S
C1605 C1604 1.392 . S
C1605 H1617 0.929 . S
C1606 C1602 1.531 . S
C1606 H1618 0.960 . S
C1606 H1619 0.962 . S
C1606 H1620 0.960 . S
C1607 C1604 1.511 . S
C1607 H1621 0.961 1_565 S
C1607 H1622 0.961 . S
C1607 H1623 0.961 . S
C1608 C1609 1.370 . S
C1608 C1610 1.363 . S
C1608 H1624 0.931 . S
C1609 C1608 1.370 . S
C1609 C1613 1.408 . S
C1610 C1608 1.363 . S
C1610 C1611 1.370 . S
C1610 C1614 1.524 . S
C1611 C1603 1.503 . S
C1611 C1610 1.370 . S
C1611 C1612 1.403 . S
C1612 C1611 1.403 . S
C1612 C1613 1.404 . S
C1612 C1615 1.539 . S
C1613 C1609 1.408 . S
C1613 C1612 1.404 . S
C1613 H1625 0.930 . S
C1614 C1610 1.524 . S
C1614 H1626 0.956 . S
C1614 H1627 0.961 . S
C1614 H1628 0.961 . S
C1615 C1612 1.539 . S
C1615 H1629 0.958 . S
C1615 H1630 0.961 . S
C1615 H1631 0.960 . S
H1616 C1600 0.931 . S
H1617 C1605 0.929 . S
H1618 C1606 0.960 . S
H1619 C1606 0.962 . S
H1620 C1606 0.960 . S
H1621 C1607 0.961 1_545 S
H1622 C1607 0.961 . S
H1623 C1607 0.961 . S
H1624 C1608 0.931 . S
H1625 C1613 0.930 . S
H1626 C1614 0.956 . S
H1627 C1614 0.961 . S
H1628 C1614 0.961 . S
H1629 C1615 0.958 . S
H1630 C1615 0.961 . S
H1631 C1615 0.960 . S
C1632 C1633 1.391 . S
C1632 C1634 1.394 . S
C1632 H1648 0.931 . S
C1633 C1632 1.391 . S
C1633 C1637 1.376 . S
C1634 C1632 1.394 . S
C1634 C1635 1.369 . S
C1634 C1638 1.531 . S
C1635 C1634 1.369 . S
C1635 C1636 1.410 . S
C1635 C1643 1.503 . S
C1636 C1635 1.410 . S
C1636 C1637 1.392 . S
C1636 C1639 1.511 . S
C1637 C1633 1.376 . S
C1637 C1636 1.392 . S
C1637 H1649 0.929 . S
C1638 C1634 1.531 . S
C1638 H1650 0.960 . S
C1638 H1651 0.962 . S
C1638 H1652 0.960 . S
C1639 C1636 1.511 . S
C1639 H1653 0.961 . S
C1639 H1654 0.961 . S
C1639 H1655 0.961 . S
C1640 C1641 1.370 . S
C1640 C1642 1.363 . S
C1640 H1656 0.931 . S
C1641 C1640 1.370 . S
C1641 C1645 1.408 . S
C1642 C1640 1.363 . S
C1642 C1643 1.370 . S
C1642 C1646 1.524 . S
C1643 C1635 1.503 . S
C1643 C1642 1.370 . S
C1643 C1644 1.403 . S
C1644 C1643 1.403 . S
C1644 C1645 1.404 . S
C1644 C1647 1.539 . S
C1645 C1641 1.408 . S
C1645 C1644 1.404 . S
C1645 H1657 0.930 . S
C1646 C1642 1.524 . S
C1646 H1658 0.956 . S
C1646 H1659 0.961 . S
C1646 H1660 0.961 . S
C1647 C1644 1.539 . S
C1647 H1661 0.958 . S
C1647 H1662 0.961 . S
C1647 H1663 0.960 . S
H1648 C1632 0.931 . S
H1649 C1637 0.929 . S
H1650 C1638 0.960 . S
H1651 C1638 0.962 . S
H1652 C1638 0.960 . S
H1653 C1639 0.961 . S
H1654 C1639 0.961 . S
H1655 C1639 0.961 . S
H1656 C1640 0.931 . S
H1657 C1645 0.930 . S
H1658 C1646 0.956 . S
H1659 C1646 0.961 . S
H1660 C1646 0.961 . S
H1661 C1647 0.958 . S
H1662 C1647 0.961 . S
H1663 C1647 0.960 . S
C1664 C1665 1.391 . S
C1664 C1666 1.394 . S
C1664 H1680 0.931 . S
C1665 C1664 1.391 . S
C1665 C1669 1.376 . S
C1666 C1664 1.394 . S
C1666 C1667 1.369 . S
C1666 C1670 1.531 . S
C1667 C1666 1.369 . S
C1667 C1668 1.410 . S
C1667 C1675 1.503 1_655 S
C1668 C1667 1.410 . S
C1668 C1669 1.392 . S
C1668 C1671 1.511 . S
C1669 C1665 1.376 . S
C1669 C1668 1.392 . S
C1669 H1681 0.929 . S
C1670 C1666 1.531 . S
C1670 H1682 0.960 1_655 S
C1670 H1683 0.962 . S
C1670 H1684 0.960 . S
C1671 C1668 1.511 . S
C1671 H1685 0.961 . S
C1671 H1686 0.961 1_655 S
C1671 H1687 0.961 . S
C1672 C1673 1.370 . S
C1672 C1674 1.363 . S
C1672 H1688 0.931 . S
C1673 C1672 1.370 . S
C1673 C1677 1.408 . S
C1674 C1672 1.363 . S
C1674 C1675 1.370 . S
C1674 C1678 1.524 . S
C1675 C1667 1.503 1_455 S
C1675 C1674 1.370 . S
C1675 C1676 1.403 . S
C1676 C1675 1.403 . S
C1676 C1677 1.404 . S
C1676 C1679 1.539 1_545 S
C1677 C1673 1.408 . S
C1677 C1676 1.404 . S
C1677 H1689 0.930 . S
C1678 C1674 1.524 . S
C1678 H1690 0.983 . S
C1678 H1691 0.918 1_455 S
C1678 H1692 0.961 . S
C1679 C1676 1.539 1_565 S
C1679 H1693 0.958 . S
C1679 H1694 0.961 . S
C1679 H1695 0.957 1_565 S
H1680 C1664 0.931 . S
H1681 C1669 0.929 . S
H1682 C1670 0.960 1_455 S
H1683 C1670 0.962 . S
H1684 C1670 0.960 . S
H1685 C1671 0.961 . S
H1686 C1671 0.961 1_455 S
H1687 C1671 0.961 . S
H1688 C1672 0.931 . S
H1689 C1677 0.930 . S
H1690 C1678 0.983 . S
H1691 C1678 0.918 1_655 S
H1692 C1678 0.961 . S
H1693 C1679 0.958 . S
H1694 C1679 0.961 . S
H1695 C1679 0.957 1_545 S
C1696 C1697 1.391 . S
C1696 C1698 1.394 . S
C1696 H1712 0.931 . S
C1697 C1696 1.391 . S
C1697 C1701 1.376 . S
C1698 C1696 1.394 . S
C1698 C1699 1.369 . S
C1698 C1702 1.531 . S
C1699 C1698 1.369 . S
C1699 C1700 1.410 . S
C1699 C1707 1.503 . S
C1700 C1699 1.410 . S
C1700 C1701 1.392 . S
C1700 C1703 1.511 . S
C1701 C1697 1.376 . S
C1701 C1700 1.392 . S
C1701 H1713 0.929 . S
C1702 C1698 1.531 . S
C1702 H1714 0.960 . S
C1702 H1715 0.962 . S
C1702 H1716 0.960 . S
C1703 C1700 1.511 . S
C1703 H1717 0.961 . S
C1703 H1718 0.961 . S
C1703 H1719 0.961 . S
C1704 C1705 1.370 . S
C1704 C1706 1.363 . S
C1704 H1720 0.931 . S
C1705 C1704 1.370 . S
C1705 C1709 1.408 . S
C1706 C1704 1.363 . S
C1706 C1707 1.370 . S
C1706 C1710 1.524 . S
C1707 C1699 1.503 . S
C1707 C1706 1.370 . S
C1707 C1708 1.403 . S
C1708 C1707 1.403 . S
C1708 C1709 1.404 . S
C1708 C1711 1.539 1_554 S
C1709 C1705 1.408 . S
C1709 C1708 1.404 . S
C1709 H1721 0.930 1_554 S
C1710 C1706 1.524 . S
C1710 H1722 0.956 . S
C1710 H1723 0.961 . S
C1710 H1724 0.961 . S
C1711 C1708 1.539 1_556 S
C1711 H1725 0.958 . S
C1711 H1726 0.961 . S
C1711 H1727 0.960 . S
H1712 C1696 0.931 . S
H1713 C1701 0.929 . S
H1714 C1702 0.960 . S
H1715 C1702 0.962 . S
H1716 C1702 0.960 . S
H1717 C1703 0.961 . S
H1718 C1703 0.961 . S
H1719 C1703 0.961 . S
H1720 C1704 0.931 . S
H1721 C1709 0.930 1_556 S
H1722 C1710 0.956 . S
H1723 C1710 0.961 . S
H1724 C1710 0.961 . S
H1725 C1711 0.958 . S
H1726 C1711 0.961 . S
H1727 C1711 0.960 . S
C1728 C1729 1.391 . S
C1728 C1730 1.394 . S
C1728 H1744 0.931 . S
C1729 C1728 1.391 . S
C1729 C1733 1.376 . S
C1730 C1728 1.394 . S
C1730 C1731 1.369 . S
C1730 C1734 1.531 . S
C1731 C1730 1.369 . S
C1731 C1732 1.410 . S
C1731 C1739 1.503 . S
C1732 C1731 1.410 . S
C1732 C1733 1.392 . S
C1732 C1735 1.511 . S
C1733 C1729 1.376 . S
C1733 C1732 1.392 . S
C1733 H1745 0.929 . S
C1734 C1730 1.531 . S
C1734 H1746 0.960 . S
C1734 H1747 0.962 . S
C1734 H1748 0.960 . S
C1735 C1732 1.511 . S
C1735 H1749 0.961 . S
C1735 H1750 0.961 . S
C1735 H1751 0.961 . S
C1736 C1737 1.370 . S
C1736 C1738 1.363 . S
C1736 H1752 0.931 . S
C1737 C1736 1.370 . S
C1737 C1741 1.408 . S
C1738 C1736 1.363 . S
C1738 C1739 1.370 . S
C1738 C1742 1.524 . S
C1739 C1731 1.503 . S
C1739 C1738 1.370 . S
C1739 C1740 1.403 . S
C1740 C1739 1.403 . S
C1740 C1741 1.404 . S
C1740 C1743 1.539 . S
C1741 C1737 1.408 . S
C1741 C1740 1.404 . S
C1741 H1753 0.930 . S
C1742 C1738 1.524 . S
C1742 H1754 0.956 . S
C1742 H1755 0.961 . S
C1742 H1756 0.961 . S
C1743 C1740 1.539 . S
C1743 H1757 0.958 . S
C1743 H1758 0.961 . S
C1743 H1759 0.960 . S
H1744 C1728 0.931 . S
H1745 C1733 0.929 . S
H1746 C1734 0.960 . S
H1747 C1734 0.962 . S
H1748 C1734 0.960 . S
H1749 C1735 0.961 . S
H1750 C1735 0.961 . S
H1751 C1735 0.961 . S
H1752 C1736 0.931 . S
H1753 C1741 0.930 . S
H1754 C1742 0.956 . S
H1755 C1742 0.961 . S
H1756 C1742 0.961 . S
H1757 C1743 0.958 . S
H1758 C1743 0.961 . S
H1759 C1743 0.960 . S
C1760 C1761 1.391 . S
C1760 C1762 1.394 . S
C1760 H1776 0.931 . S
C1761 C1760 1.391 . S
C1761 C1765 1.376 . S
C1762 C1760 1.394 . S
C1762 C1763 1.369 . S
C1762 C1766 1.539 . S
C1763 C1762 1.369 . S
C1763 C1764 1.410 . S
C1763 C1771 1.503 . S
C1764 C1763 1.410 . S
C1764 C1765 1.392 . S
C1764 C1767 1.511 . S
C1765 C1761 1.376 . S
C1765 C1764 1.392 . S
C1765 H1777 0.929 . S
C1766 C1762 1.539 . S
C1766 H1778 0.957 1_554 S
C1766 H1779 0.967 . S
C1766 H1780 0.950 1_554 S
C1767 C1764 1.511 . S
C1767 H1781 0.961 . S
C1767 H1782 0.961 . S
C1767 H1783 0.961 . S
C1768 C1769 1.370 . S
C1768 C1770 1.363 . S
C1768 H1784 0.931 . S
C1769 C1768 1.370 . S
C1769 C1773 1.408 . S
C1770 C1768 1.363 . S
C1770 C1771 1.370 . S
C1770 C1774 1.524 . S
C1771 C1763 1.503 . S
C1771 C1770 1.370 . S
C1771 C1772 1.403 . S
C1772 C1771 1.403 . S
C1772 C1773 1.404 . S
C1772 C1775 1.539 . S
C1773 C1769 1.408 . S
C1773 C1772 1.404 . S
C1773 H1785 0.930 . S
C1774 C1770 1.524 . S
C1774 H1786 0.956 . S
C1774 H1787 0.961 . S
C1774 H1788 0.961 . S
C1775 C1772 1.539 . S
C1775 H1789 0.958 1_554 S
C1775 H1790 0.961 . S
C1775 H1791 0.960 . S
H1776 C1760 0.931 . S
H1777 C1765 0.929 . S
H1778 C1766 0.957 1_556 S
H1779 C1766 0.967 . S
H1780 C1766 0.950 1_556 S
H1781 C1767 0.961 . S
H1782 C1767 0.961 . S
H1783 C1767 0.961 . S
H1784 C1768 0.931 . S
H1785 C1773 0.930 . S
H1786 C1774 0.956 . S
H1787 C1774 0.961 . S
H1788 C1774 0.961 . S
H1789 C1775 0.958 1_556 S
H1790 C1775 0.961 . S
H1791 C1775 0.960 . S
C1792 C1793 1.391 . S
C1792 C1794 1.394 . S
C1792 H1808 0.931 . S
C1793 C1792 1.391 . S
C1793 C1797 1.376 . S
C1794 C1792 1.394 . S
C1794 C1795 1.369 . S
C1794 C1798 1.531 . S
C1795 C1794 1.369 . S
C1795 C1796 1.410 . S
C1795 C1803 1.503 . S
C1796 C1795 1.410 . S
C1796 C1797 1.392 . S
C1796 C1799 1.511 . S
C1797 C1793 1.376 . S
C1797 C1796 1.392 . S
C1797 H1809 0.929 . S
C1798 C1794 1.531 . S
C1798 H1810 0.960 . S
C1798 H1811 0.962 . S
C1798 H1812 0.960 . S
C1799 C1796 1.511 . S
C1799 H1813 0.961 . S
C1799 H1814 0.961 . S
C1799 H1815 0.961 . S
C1800 C1801 1.370 . S
C1800 C1802 1.363 . S
C1800 H1816 0.931 . S
C1801 C1800 1.370 . S
C1801 C1805 1.408 . S
C1802 C1800 1.363 . S
C1802 C1803 1.370 . S
C1802 C1806 1.524 . S
C1803 C1795 1.503 . S
C1803 C1802 1.370 . S
C1803 C1804 1.403 . S
C1804 C1803 1.403 . S
C1804 C1805 1.404 . S
C1804 C1807 1.539 . S
C1805 C1801 1.408 . S
C1805 C1804 1.404 . S
C1805 H1817 0.930 . S
C1806 C1802 1.524 . S
C1806 H1818 0.956 . S
C1806 H1819 0.961 . S
C1806 H1820 0.961 . S
C1807 C1804 1.539 . S
C1807 H1821 0.958 . S
C1807 H1822 0.961 . S
C1807 H1823 0.960 . S
H1808 C1792 0.931 . S
H1809 C1797 0.929 . S
H1810 C1798 0.960 . S
H1811 C1798 0.962 . S
H1812 C1798 0.960 . S
H1813 C1799 0.961 . S
H1814 C1799 0.961 . S
H1815 C1799 0.961 . S
H1816 C1800 0.931 . S
H1817 C1805 0.930 . S
H1818 C1806 0.956 . S
H1819 C1806 0.961 . S
H1820 C1806 0.961 . S
H1821 C1807 0.958 . S
H1822 C1807 0.961 . S
H1823 C1807 0.960 . S
C1824 C1825 1.391 . S
C1824 C1826 1.394 . S
C1824 H1840 0.931 . S
C1825 C1824 1.391 . S
C1825 C1829 1.376 . S
C1826 C1824 1.394 . S
C1826 C1827 1.369 . S
C1826 C1830 1.531 . S
C1827 C1826 1.369 . S
C1827 C1828 1.410 . S
C1827 C1835 1.503 . S
C1828 C1827 1.410 . S
C1828 C1829 1.392 . S
C1828 C1831 1.511 . S
C1829 C1825 1.376 . S
C1829 C1828 1.392 . S
C1829 H1841 0.929 . S
C1830 C1826 1.531 . S
C1830 H1842 0.960 . S
C1830 H1843 0.962 . S
C1830 H1844 0.960 . S
C1831 C1828 1.511 . S
C1831 H1845 0.961 . S
C1831 H1846 0.961 . S
C1831 H1847 0.961 . S
C1832 C1833 1.370 . S
C1832 C1834 1.363 . S
C1832 H1848 0.931 . S
C1833 C1832 1.370 . S
C1833 C1837 1.408 . S
C1834 C1832 1.363 . S
C1834 C1835 1.370 . S
C1834 C1838 1.524 . S
C1835 C1827 1.503 . S
C1835 C1834 1.370 . S
C1835 C1836 1.403 . S
C1836 C1835 1.403 . S
C1836 C1837 1.404 . S
C1836 C1839 1.539 . S
C1837 C1833 1.408 . S
C1837 C1836 1.404 . S
C1837 H1849 0.930 . S
C1838 C1834 1.524 . S
C1838 H1850 0.956 . S
C1838 H1851 0.961 . S
C1838 H1852 0.961 . S
C1839 C1836 1.539 . S
C1839 H1853 0.958 . S
C1839 H1854 0.961 . S
C1839 H1855 0.960 . S
H1840 C1824 0.931 . S
H1841 C1829 0.929 . S
H1842 C1830 0.960 . S
H1843 C1830 0.962 . S
H1844 C1830 0.960 . S
H1845 C1831 0.961 . S
H1846 C1831 0.961 . S
H1847 C1831 0.961 . S
H1848 C1832 0.931 . S
H1849 C1837 0.930 . S
H1850 C1838 0.956 . S
H1851 C1838 0.961 . S
H1852 C1838 0.961 . S
H1853 C1839 0.958 . S
H1854 C1839 0.961 . S
H1855 C1839 0.960 . S
C1856 C1857 1.391 . S
C1856 C1858 1.394 . S
C1856 H1872 0.931 . S
C1857 C1856 1.391 . S
C1857 C1861 1.376 . S
C1858 C1856 1.394 . S
C1858 C1859 1.369 . S
C1858 C1862 1.531 . S
C1859 C1858 1.369 . S
C1859 C1860 1.410 . S
C1859 C1867 1.503 1_655 S
C1860 C1859 1.410 . S
C1860 C1861 1.392 . S
C1860 C1863 1.511 . S
C1861 C1857 1.376 . S
C1861 C1860 1.392 . S
C1861 H1873 0.929 . S
C1862 C1858 1.531 . S
C1862 H1874 0.960 1_655 S
C1862 H1875 0.962 . S
C1862 H1876 0.960 . S
C1863 C1860 1.511 . S
C1863 H1877 0.961 . S
C1863 H1878 0.961 1_655 S
C1863 H1879 0.961 . S
C1864 C1865 1.370 . S
C1864 C1866 1.363 . S
C1864 H1880 0.931 . S
C1865 C1864 1.370 . S
C1865 C1869 1.408 . S
C1866 C1864 1.363 . S
C1866 C1867 1.370 . S
C1866 C1870 1.524 . S
C1867 C1859 1.503 1_455 S
C1867 C1866 1.370 . S
C1867 C1868 1.403 . S
C1868 C1867 1.403 . S
C1868 C1869 1.404 . S
C1868 C1871 1.539 . S
C1869 C1865 1.408 . S
C1869 C1868 1.404 . S
C1869 H1881 0.930 . S
C1870 C1866 1.524 . S
C1870 H1882 0.983 . S
C1870 H1883 0.918 1_455 S
C1870 H1884 0.961 . S
C1871 C1868 1.539 . S
C1871 H1885 0.958 . S
C1871 H1886 0.961 . S
C1871 H1887 0.968 . S
H1872 C1856 0.931 . S
H1873 C1861 0.929 . S
H1874 C1862 0.960 1_455 S
H1875 C1862 0.962 . S
H1876 C1862 0.960 . S
H1877 C1863 0.961 . S
H1878 C1863 0.961 1_455 S
H1879 C1863 0.961 . S
H1880 C1864 0.931 . S
H1881 C1869 0.930 . S
H1882 C1870 0.983 . S
H1883 C1870 0.918 1_655 S
H1884 C1870 0.961 . S
H1885 C1871 0.958 . S
H1886 C1871 0.961 . S
H1887 C1871 0.968 . S
C1888 C1889 1.391 . S
C1888 C1890 1.394 . S
C1888 H1904 0.931 . S
C1889 C1888 1.391 . S
C1889 C1893 1.376 . S
C1890 C1888 1.394 . S
C1890 C1891 1.369 . S
C1890 C1894 1.531 . S
C1891 C1890 1.369 . S
C1891 C1892 1.410 . S
C1891 C1899 1.503 1_655 S
C1892 C1891 1.410 . S
C1892 C1893 1.392 . S
C1892 C1895 1.511 . S
C1893 C1889 1.376 . S
C1893 C1892 1.392 . S
C1893 H1905 0.929 . S
C1894 C1890 1.531 . S
C1894 H1906 0.960 1_655 S
C1894 H1907 0.962 . S
C1894 H1908 0.960 . S
C1895 C1892 1.511 . S
C1895 H1909 0.961 . S
C1895 H1910 0.961 1_655 S
C1895 H1911 0.961 . S
C1896 C1897 1.370 . S
C1896 C1898 1.363 . S
C1896 H1912 0.931 . S
C1897 C1896 1.370 . S
C1897 C1901 1.408 . S
C1898 C1896 1.363 . S
C1898 C1899 1.370 . S
C1898 C1902 1.524 . S
C1899 C1891 1.503 1_455 S
C1899 C1898 1.370 . S
C1899 C1900 1.403 . S
C1900 C1899 1.403 . S
C1900 C1901 1.404 . S
C1900 C1903 1.539 . S
C1901 C1897 1.408 . S
C1901 C1900 1.404 . S
C1901 H1913 0.930 . S
C1902 C1898 1.524 . S
C1902 H1914 0.983 . S
C1902 H1915 0.918 1_455 S
C1902 H1916 0.961 . S
C1903 C1900 1.539 . S
C1903 H1917 0.958 . S
C1903 H1918 0.961 . S
C1903 H1919 0.968 . S
H1904 C1888 0.931 . S
H1905 C1893 0.929 . S
H1906 C1894 0.960 1_455 S
H1907 C1894 0.962 . S
H1908 C1894 0.960 . S
H1909 C1895 0.961 . S
H1910 C1895 0.961 1_455 S
H1911 C1895 0.961 . S
H1912 C1896 0.931 . S
H1913 C1901 0.930 . S
H1914 C1902 0.983 . S
H1915 C1902 0.918 1_655 S
H1916 C1902 0.961 . S
H1917 C1903 0.958 . S
H1918 C1903 0.961 . S
H1919 C1903 0.968 . S
C1920 C1921 1.391 . S
C1920 C1922 1.394 . S
C1920 H1936 0.931 . S
C1921 C1920 1.391 . S
C1921 C1925 1.376 . S
C1922 C1920 1.394 . S
C1922 C1923 1.369 . S
C1922 C1926 1.531 . S
C1923 C1922 1.369 . S
C1923 C1924 1.410 . S
C1923 C1931 1.503 . S
C1924 C1923 1.410 . S
C1924 C1925 1.392 . S
C1924 C1927 1.511 . S
C1925 C1921 1.376 . S
C1925 C1924 1.392 . S
C1925 H1937 0.929 . S
C1926 C1922 1.531 . S
C1926 H1938 0.960 . S
C1926 H1939 0.962 . S
C1926 H1940 0.960 . S
C1927 C1924 1.511 . S
C1927 H1941 0.961 . S
C1927 H1942 0.961 . S
C1927 H1943 0.961 . S
C1928 C1929 1.370 . S
C1928 C1930 1.363 . S
C1928 H1944 0.931 . S
C1929 C1928 1.370 . S
C1929 C1933 1.408 . S
C1930 C1928 1.363 . S
C1930 C1931 1.370 . S
C1930 C1934 1.524 . S
C1931 C1923 1.503 . S
C1931 C1930 1.370 . S
C1931 C1932 1.403 . S
C1932 C1931 1.403 . S
C1932 C1933 1.404 . S
C1932 C1935 1.539 . S
C1933 C1929 1.408 . S
C1933 C1932 1.404 . S
C1933 H1945 0.930 . S
C1934 C1930 1.524 . S
C1934 H1946 0.956 . S
C1934 H1947 0.961 . S
C1934 H1948 0.961 . S
C1935 C1932 1.539 . S
C1935 H1949 0.958 . S
C1935 H1950 0.961 . S
C1935 H1951 0.960 . S
H1936 C1920 0.931 . S
H1937 C1925 0.929 . S
H1938 C1926 0.960 . S
H1939 C1926 0.962 . S
H1940 C1926 0.960 . S
H1941 C1927 0.961 . S
H1942 C1927 0.961 . S
H1943 C1927 0.961 . S
H1944 C1928 0.931 . S
H1945 C1933 0.930 . S
H1946 C1934 0.956 . S
H1947 C1934 0.961 . S
H1948 C1934 0.961 . S
H1949 C1935 0.958 . S
H1950 C1935 0.961 . S
H1951 C1935 0.960 . S
C1952 C1953 1.391 . S
C1952 C1954 1.394 . S
C1952 H1968 0.931 . S
C1953 C1952 1.391 . S
C1953 C1957 1.376 . S
C1954 C1952 1.394 . S
C1954 C1955 1.369 . S
C1954 C1958 1.531 . S
C1955 C1954 1.369 . S
C1955 C1956 1.410 . S
C1955 C1963 1.503 . S
C1956 C1955 1.410 . S
C1956 C1957 1.392 . S
C1956 C1959 1.511 . S
C1957 C1953 1.376 . S
C1957 C1956 1.392 . S
C1957 H1969 0.929 . S
C1958 C1954 1.531 . S
C1958 H1970 0.960 . S
C1958 H1971 0.962 . S
C1958 H1972 0.960 . S
C1959 C1956 1.511 . S
C1959 H1973 0.961 . S
C1959 H1974 0.961 . S
C1959 H1975 0.961 . S
C1960 C1961 1.370 . S
C1960 C1962 1.363 . S
C1960 H1976 0.931 . S
C1961 C1960 1.370 . S
C1961 C1965 1.408 . S
C1962 C1960 1.363 . S
C1962 C1963 1.370 . S
C1962 C1966 1.524 . S
C1963 C1955 1.503 . S
C1963 C1962 1.370 . S
C1963 C1964 1.403 . S
C1964 C1963 1.403 . S
C1964 C1965 1.404 . S
C1964 C1967 1.539 . S
C1965 C1961 1.408 . S
C1965 C1964 1.404 . S
C1965 H1977 0.930 . S
C1966 C1962 1.524 . S
C1966 H1978 0.956 . S
C1966 H1979 0.961 . S
C1966 H1980 0.961 . S
C1967 C1964 1.539 . S
C1967 H1981 0.958 . S
C1967 H1982 0.961 . S
C1967 H1983 0.960 . S
H1968 C1952 0.931 . S
H1969 C1957 0.929 . S
H1970 C1958 0.960 . S
H1971 C1958 0.962 . S
H1972 C1958 0.960 . S
H1973 C1959 0.961 . S
H1974 C1959 0.961 . S
H1975 C1959 0.961 . S
H1976 C1960 0.931 . S
H1977 C1965 0.930 . S
H1978 C1966 0.956 . S
H1979 C1966 0.961 . S
H1980 C1966 0.961 . S
H1981 C1967 0.958 . S
H1982 C1967 0.961 . S
H1983 C1967 0.960 . S
C1984 C1985 1.391 . S
C1984 C1986 1.394 . S
C1984 H2000 0.931 . S
C1985 C1984 1.391 . S
C1985 C1989 1.376 . S
C1986 C1984 1.394 . S
C1986 C1987 1.369 . S
C1986 C1990 1.531 . S
C1987 C1986 1.369 . S
C1987 C1988 1.393 1_565 S
C1987 C1995 1.503 1_565 S
C1988 C1987 1.393 1_545 S
C1988 C1989 1.380 1_545 S
C1988 C1991 1.541 . S
C1989 C1985 1.376 . S
C1989 C1988 1.380 1_565 S
C1989 H2001 0.928 . S
C1990 C1986 1.531 . S
C1990 H2002 0.960 . S
C1990 H2003 0.962 . S
C1990 H2004 0.960 . S
C1991 C1988 1.541 . S
C1991 H2005 0.961 . S
C1991 H2006 0.961 . S
C1991 H2007 0.961 . S
C1992 C1993 1.370 . S
C1992 C1994 1.363 . S
C1992 H2008 0.931 . S
C1993 C1992 1.370 . S
C1993 C1997 1.454 . S
C1994 C1992 1.363 . S
C1994 C1995 1.370 . S
C1994 C1998 1.524 . S
C1995 C1987 1.503 1_545 S
C1995 C1994 1.370 . S
C1995 C1996 1.403 1_545 S
C1996 C1995 1.403 1_565 S
C1996 C1997 1.382 1_565 S
C1996 C1999 1.539 . S
C1997 C1993 1.454 . S
C1997 C1996 1.382 1_545 S
C1997 H2009 0.909 1_545 S
C1998 C1994 1.524 . S
C1998 H2010 0.956 . S
C1998 H2011 0.961 . S
C1998 H2012 0.961 . S
C1999 C1996 1.539 . S
C1999 H2013 0.958 . S
C1999 H2014 0.961 . S
C1999 H2015 0.960 . S
H2000 C1984 0.931 . S
H2001 C1989 0.928 . S
H2002 C1990 0.960 . S
H2003 C1990 0.962 . S
H2004 C1990 0.960 . S
H2005 C1991 0.961 . S
H2006 C1991 0.961 . S
H2007 C1991 0.961 . S
H2008 C1992 0.931 . S
H2009 C1997 0.909 1_565 S
H2010 C1998 0.956 . S
H2011 C1998 0.961 . S
H2012 C1998 0.961 . S
H2013 C1999 0.958 . S
H2014 C1999 0.961 . S
H2015 C1999 0.960 . S
C2016 C2017 1.391 . S
C2016 C2018 1.394 . S
C2016 H2032 0.931 . S
C2017 C2016 1.391 . S
C2017 C2021 1.376 . S
C2018 C2016 1.394 . S
C2018 C2019 1.369 . S
C2018 C2022 1.531 . S
C2019 C2018 1.369 . S
C2019 C2020 1.410 . S
C2019 C2027 1.503 . S
C2020 C2019 1.410 . S
C2020 C2021 1.392 . S
C2020 C2023 1.511 . S
C2021 C2017 1.376 . S
C2021 C2020 1.392 . S
C2021 H2033 0.929 . S
C2022 C2018 1.531 . S
C2022 H2034 0.960 . S
C2022 H2035 0.962 . S
C2022 H2036 0.960 . S
C2023 C2020 1.511 . S
C2023 H2037 0.961 . S
C2023 H2038 0.961 . S
C2023 H2039 0.961 . S
C2024 C2025 1.370 . S
C2024 C2026 1.363 . S
C2024 H2040 0.931 . S
C2025 C2024 1.370 . S
C2025 C2029 1.408 . S
C2026 C2024 1.363 . S
C2026 C2027 1.370 . S
C2026 C2030 1.524 . S
C2027 C2019 1.503 . S
C2027 C2026 1.370 . S
C2027 C2028 1.403 . S
C2028 C2027 1.403 . S
C2028 C2029 1.404 . S
C2028 C2031 1.539 . S
C2029 C2025 1.408 . S
C2029 C2028 1.404 . S
C2029 H2041 0.930 . S
C2030 C2026 1.524 . S
C2030 H2042 0.956 . S
C2030 H2043 0.961 . S
C2030 H2044 0.961 . S
C2031 C2028 1.539 . S
C2031 H2045 0.958 . S
C2031 H2046 0.961 . S
C2031 H2047 0.960 . S
H2032 C2016 0.931 . S
H2033 C2021 0.929 . S
H2034 C2022 0.960 . S
H2035 C2022 0.962 . S
H2036 C2022 0.960 . S
H2037 C2023 0.961 . S
H2038 C2023 0.961 . S
H2039 C2023 0.961 . S
H2040 C2024 0.931 . S
H2041 C2029 0.930 . S
H2042 C2030 0.956 . S
H2043 C2030 0.961 . S
H2044 C2030 0.961 . S
H2045 C2031 0.958 . S
H2046 C2031 0.961 . S
H2047 C2031 0.960 . S
C2048 C2049 1.391 . S
C2048 C2050 1.394 1_556 S
C2048 H2064 0.931 . S
C2049 C2048 1.391 . S
C2049 C2053 1.376 . S
C2050 C2048 1.394 1_554 S
C2050 C2051 1.369 . S
C2050 C2054 1.531 . S
C2051 C2050 1.369 . S
C2051 C2052 1.410 1_545 S
C2051 C2059 1.503 1_545 S
C2052 C2051 1.410 1_565 S
C2052 C2053 1.392 1_564 S
C2052 C2055 1.511 . S
C2053 C2049 1.376 . S
C2053 C2052 1.392 1_546 S
C2053 H2065 0.929 1_545 S
C2054 C2050 1.531 . S
C2054 H2066 0.960 . S
C2054 H2067 0.962 . S
C2054 H2068 0.960 . S
C2055 C2052 1.511 . S
C2055 H2069 0.961 1_554 S
C2055 H2070 0.961 . S
C2055 H2071 0.961 . S
C2056 C2057 1.370 . S
C2056 C2058 1.363 . S
C2056 H2072 0.931 . S
C2057 C2056 1.370 . S
C2057 C2061 1.408 . S
C2058 C2056 1.363 . S
C2058 C2059 1.370 . S
C2058 C2062 1.524 . S
C2059 C2051 1.503 1_565 S
C2059 C2058 1.370 . S
C2059 C2060 1.403 1_565 S
C2060 C2059 1.403 1_545 S
C2060 C2061 1.404 1_545 S
C2060 C2063 1.539 . S
C2061 C2057 1.408 . S
C2061 C2060 1.404 1_565 S
C2061 H2073 0.930 . S
C2062 C2058 1.524 . S
C2062 H2074 0.956 . S
C2062 H2075 0.961 . S
C2062 H2076 0.961 . S
C2063 C2060 1.539 . S
C2063 H2077 0.958 . S
C2063 H2078 0.961 . S
C2063 H2079 0.960 . S
H2064 C2048 0.931 . S
H2065 C2053 0.929 1_565 S
H2066 C2054 0.960 . S
H2067 C2054 0.962 . S
H2068 C2054 0.960 . S
H2069 C2055 0.961 1_556 S
H2070 C2055 0.961 . S
H2071 C2055 0.961 . S
H2072 C2056 0.931 . S
H2073 C2061 0.930 . S
H2074 C2062 0.956 . S
H2075 C2062 0.961 . S
H2076 C2062 0.961 . S
H2077 C2063 0.958 . S
H2078 C2063 0.961 . S
H2079 C2063 0.960 . S
C2080 C2081 1.391 . S
C2080 C2082 1.394 . S
C2080 H2096 0.931 . S
C2081 C2080 1.391 . S
C2081 C2085 1.376 . S
C2082 C2080 1.394 . S
C2082 C2083 1.369 . S
C2082 C2086 1.531 . S
C2083 C2082 1.369 . S
C2083 C2084 1.410 . S
C2083 C2091 1.503 . S
C2084 C2083 1.410 . S
C2084 C2085 1.392 . S
C2084 C2087 1.511 . S
C2085 C2081 1.376 . S
C2085 C2084 1.392 . S
C2085 H2097 0.929 . S
C2086 C2082 1.531 . S
C2086 H2098 0.960 . S
C2086 H2099 0.962 . S
C2086 H2100 0.960 . S
C2087 C2084 1.511 . S
C2087 H2101 0.961 . S
C2087 H2102 0.961 . S
C2087 H2103 0.961 . S
C2088 C2089 1.370 . S
C2088 C2090 1.363 . S
C2088 H2104 0.931 . S
C2089 C2088 1.370 . S
C2089 C2093 1.408 . S
C2090 C2088 1.363 . S
C2090 C2091 1.370 . S
C2090 C2094 1.524 . S
C2091 C2083 1.503 . S
C2091 C2090 1.370 . S
C2091 C2092 1.403 . S
C2092 C2091 1.403 . S
C2092 C2093 1.404 . S
C2092 C2095 1.539 . S
C2093 C2089 1.408 . S
C2093 C2092 1.404 . S
C2093 H2105 0.930 . S
C2094 C2090 1.524 . S
C2094 H2106 0.956 . S
C2094 H2107 0.961 . S
C2094 H2108 0.961 . S
C2095 C2092 1.539 . S
C2095 H2109 0.958 . S
C2095 H2110 0.961 . S
C2095 H2111 0.960 . S
H2096 C2080 0.931 . S
H2097 C2085 0.929 . S
H2098 C2086 0.960 . S
H2099 C2086 0.962 . S
H2100 C2086 0.960 . S
H2101 C2087 0.961 . S
H2102 C2087 0.961 . S
H2103 C2087 0.961 . S
H2104 C2088 0.931 . S
H2105 C2093 0.930 . S
H2106 C2094 0.956 . S
H2107 C2094 0.961 . S
H2108 C2094 0.961 . S
H2109 C2095 0.958 . S
H2110 C2095 0.961 . S
H2111 C2095 0.960 . S
C2112 C2113 1.391 . S
C2112 C2114 1.394 . S
C2112 H2128 0.931 . S
C2113 C2112 1.391 . S
C2113 C2117 1.376 . S
C2114 C2112 1.394 . S
C2114 C2115 1.361 1_545 S
C2114 C2118 1.531 . S
C2115 C2114 1.361 1_565 S
C2115 C2116 1.411 . S
C2115 C2123 1.508 . S
C2116 C2115 1.411 . S
C2116 C2117 1.392 1_565 S
C2116 C2119 1.511 . S
C2117 C2113 1.376 . S
C2117 C2116 1.392 1_545 S
C2117 H2129 0.929 . S
C2118 C2114 1.531 . S
C2118 H2130 0.985 . S
C2118 H2131 0.962 . S
C2118 H2132 0.960 . S
C2119 C2116 1.511 . S
C2119 H2133 0.961 . S
C2119 H2134 0.961 . S
C2119 H2135 0.961 . S
C2120 C2121 1.367 . S
C2120 C2122 1.364 1_565 S
C2120 H2136 0.933 1_565 S
C2121 C2120 1.367 . S
C2121 C2125 1.408 . S
C2122 C2120 1.364 1_545 S
C2122 C2123 1.370 1_545 S
C2122 C2126 1.524 . S
C2123 C2115 1.508 . S
C2123 C2122 1.370 1_565 S
C2123 C2124 1.403 . S
C2124 C2123 1.403 . S
C2124 C2125 1.404 . S
C2124 C2127 1.539 . S
C2125 C2121 1.408 . S
C2125 C2124 1.404 . S
C2125 H2137 0.930 . S
C2126 C2122 1.524 . S
C2126 H2138 0.956 . S
C2126 H2139 0.961 . S
C2126 H2140 0.961 . S
C2127 C2124 1.539 . S
C2127 H2141 0.958 . S
C2127 H2142 0.961 . S
C2127 H2143 0.960 . S
H2128 C2112 0.931 . S
H2129 C2117 0.929 . S
H2130 C2118 0.985 . S
H2131 C2118 0.962 . S
H2132 C2118 0.960 . S
H2133 C2119 0.961 . S
H2134 C2119 0.961 . S
H2135 C2119 0.961 . S
H2136 C2120 0.933 1_545 S
H2137 C2125 0.930 . S
H2138 C2126 0.956 . S
H2139 C2126 0.961 . S
H2140 C2126 0.961 . S
H2141 C2127 0.958 . S
H2142 C2127 0.961 . S
H2143 C2127 0.960 . S
C2144 C2145 1.391 . S
C2144 C2146 1.394 . S
C2144 H2160 0.931 . S
C2145 C2144 1.391 . S
C2145 C2149 1.376 . S
C2146 C2144 1.394 . S
C2146 C2147 1.369 . S
C2146 C2150 1.531 . S
C2147 C2146 1.369 . S
C2147 C2148 1.410 . S
C2147 C2155 1.503 . S
C2148 C2147 1.410 . S
C2148 C2149 1.392 . S
C2148 C2151 1.511 . S
C2149 C2145 1.376 . S
C2149 C2148 1.392 . S
C2149 H2161 0.929 . S
C2150 C2146 1.531 . S
C2150 H2162 0.960 . S
C2150 H2163 0.962 . S
C2150 H2164 0.960 . S
C2151 C2148 1.511 . S
C2151 H2165 0.961 . S
C2151 H2166 0.961 . S
C2151 H2167 0.961 . S
C2152 C2153 1.370 . S
C2152 C2154 1.363 . S
C2152 H2168 0.931 . S
C2153 C2152 1.370 . S
C2153 C2157 1.408 . S
C2154 C2152 1.363 . S
C2154 C2155 1.370 . S
C2154 C2158 1.524 . S
C2155 C2147 1.503 . S
C2155 C2154 1.370 . S
C2155 C2156 1.403 . S
C2156 C2155 1.403 . S
C2156 C2157 1.404 . S
C2156 C2159 1.539 . S
C2157 C2153 1.408 . S
C2157 C2156 1.404 . S
C2157 H2169 0.930 . S
C2158 C2154 1.524 . S
C2158 H2170 0.956 . S
C2158 H2171 0.961 . S
C2158 H2172 0.961 . S
C2159 C2156 1.539 . S
C2159 H2173 0.958 . S
C2159 H2174 0.961 . S
C2159 H2175 0.960 . S
H2160 C2144 0.931 . S
H2161 C2149 0.929 . S
H2162 C2150 0.960 . S
H2163 C2150 0.962 . S
H2164 C2150 0.960 . S
H2165 C2151 0.961 . S
H2166 C2151 0.961 . S
H2167 C2151 0.961 . S
H2168 C2152 0.931 . S
H2169 C2157 0.930 . S
H2170 C2158 0.956 . S
H2171 C2158 0.961 . S
H2172 C2158 0.961 . S
H2173 C2159 0.958 . S
H2174 C2159 0.961 . S
H2175 C2159 0.960 . S
C2176 C2177 1.391 . S
C2176 C2178 1.394 . S
C2176 H2192 0.931 . S
C2177 C2176 1.391 . S
C2177 C2181 1.376 . S
C2178 C2176 1.394 . S
C2178 C2179 1.367 1_565 S
C2178 C2182 1.531 . S
C2179 C2178 1.367 1_545 S
C2179 C2180 1.408 1_545 S
C2179 C2187 1.505 . S
C2180 C2179 1.408 1_565 S
C2180 C2181 1.416 . S
C2180 C2183 1.494 1_565 S
C2181 C2177 1.376 . S
C2181 C2180 1.416 . S
C2181 H2193 0.929 . S
C2182 C2178 1.531 . S
C2182 H2194 0.960 1_565 S
C2182 H2195 0.962 . S
C2182 H2196 0.960 . S
C2183 C2180 1.494 1_545 S
C2183 H2197 0.943 1_545 S
C2183 H2198 0.961 . S
C2183 H2199 0.961 . S
C2184 C2185 1.303 1_565 S
C2184 C2186 1.385 1_556 S
C2184 H2200 0.980 . S
C2185 C2184 1.303 1_545 S
C2185 C2189 1.408 . S
C2186 C2184 1.385 1_554 S
C2186 C2187 1.370 1_565 S
C2186 C2190 1.524 . S
C2187 C2179 1.505 . S
C2187 C2186 1.370 1_545 S
C2187 C2188 1.403 . S
C2188 C2187 1.403 . S
C2188 C2189 1.404 1_554 S
C2188 C2191 1.539 . S
C2189 C2185 1.408 . S
C2189 C2188 1.404 1_556 S
C2189 H2201 0.930 . S
C2190 C2186 1.524 . S
C2190 H2202 0.956 . S
C2190 H2203 0.961 . S
C2190 H2204 0.961 1_554 S
C2191 C2188 1.539 . S
C2191 H2205 0.958 . S
C2191 H2206 0.961 . S
C2191 H2207 0.960 . S
H2192 C2176 0.931 . S
H2193 C2181 0.929 . S
H2194 C2182 0.960 1_545 S
H2195 C2182 0.962 . S
H2196 C2182 0.960 . S
H2197 C2183 0.943 1_565 S
H2198 C2183 0.961 . S
H2199 C2183 0.961 . S
H2200 C2184 0.980 . S
H2201 C2189 0.930 . S
H2202 C2190 0.956 . S
H2203 C2190 0.961 . S
H2204 C2190 0.961 1_556 S
H2205 C2191 0.958 . S
H2206 C2191 0.961 . S
H2207 C2191 0.960 . S
C2208 C2209 1.391 . S
C2208 C2210 1.394 . S
C2208 H2224 0.931 . S
C2209 C2208 1.391 . S
C2209 C2213 1.376 . S
C2210 C2208 1.394 . S
C2210 C2211 1.369 . S
C2210 C2214 1.531 . S
C2211 C2210 1.369 . S
C2211 C2212 1.410 . S
C2211 C2219 1.503 . S
C2212 C2211 1.410 . S
C2212 C2213 1.392 . S
C2212 C2215 1.511 . S
C2213 C2209 1.376 . S
C2213 C2212 1.392 . S
C2213 H2225 0.929 . S
C2214 C2210 1.531 . S
C2214 H2226 0.960 . S
C2214 H2227 0.962 . S
C2214 H2228 0.960 . S
C2215 C2212 1.511 . S
C2215 H2229 0.961 . S
C2215 H2230 0.961 . S
C2215 H2231 0.961 . S
C2216 C2217 1.370 . S
C2216 C2218 1.363 . S
C2216 H2232 0.931 . S
C2217 C2216 1.370 . S
C2217 C2221 1.408 . S
C2218 C2216 1.363 . S
C2218 C2219 1.370 . S
C2218 C2222 1.524 . S
C2219 C2211 1.503 . S
C2219 C2218 1.370 . S
C2219 C2220 1.403 . S
C2220 C2219 1.403 . S
C2220 C2221 1.404 . S
C2220 C2223 1.539 . S
C2221 C2217 1.408 . S
C2221 C2220 1.404 . S
C2221 H2233 0.930 . S
C2222 C2218 1.524 . S
C2222 H2234 0.956 . S
C2222 H2235 0.961 . S
C2222 H2236 0.961 . S
C2223 C2220 1.539 . S
C2223 H2237 0.958 . S
C2223 H2238 0.961 . S
C2223 H2239 0.960 . S
H2224 C2208 0.931 . S
H2225 C2213 0.929 . S
H2226 C2214 0.960 . S
H2227 C2214 0.962 . S
H2228 C2214 0.960 . S
H2229 C2215 0.961 . S
H2230 C2215 0.961 . S
H2231 C2215 0.961 . S
H2232 C2216 0.931 . S
H2233 C2221 0.930 . S
H2234 C2222 0.956 . S
H2235 C2222 0.961 . S
H2236 C2222 0.961 . S
H2237 C2223 0.958 . S
H2238 C2223 0.961 . S
H2239 C2223 0.960 . S
C2240 C2241 1.391 . S
C2240 C2242 1.394 . S
C2240 H2256 0.931 . S
C2241 C2240 1.391 . S
C2241 C2245 1.376 . S
C2242 C2240 1.394 . S
C2242 C2243 1.369 . S
C2242 C2246 1.531 . S
C2243 C2242 1.369 . S
C2243 C2244 1.410 . S
C2243 C2251 1.503 . S
C2244 C2243 1.410 . S
C2244 C2245 1.392 . S
C2244 C2247 1.511 . S
C2245 C2241 1.376 . S
C2245 C2244 1.392 . S
C2245 H2257 0.929 . S
C2246 C2242 1.531 . S
C2246 H2258 0.960 . S
C2246 H2259 0.962 . S
C2246 H2260 0.960 . S
C2247 C2244 1.511 . S
C2247 H2261 0.961 . S
C2247 H2262 0.961 . S
C2247 H2263 0.961 . S
C2248 C2249 1.370 . S
C2248 C2250 1.363 1_556 S
C2248 H2264 0.931 . S
C2249 C2248 1.370 . S
C2249 C2253 1.408 . S
C2250 C2248 1.363 1_554 S
C2250 C2251 1.370 . S
C2250 C2254 1.524 . S
C2251 C2243 1.503 . S
C2251 C2250 1.370 . S
C2251 C2252 1.403 . S
C2252 C2251 1.403 . S
C2252 C2253 1.404 1_554 S
C2252 C2255 1.539 . S
C2253 C2249 1.408 . S
C2253 C2252 1.404 1_556 S
C2253 H2265 0.930 . S
C2254 C2250 1.524 . S
C2254 H2266 0.956 . S
C2254 H2267 0.961 . S
C2254 H2268 0.961 1_554 S
C2255 C2252 1.539 . S
C2255 H2269 0.958 . S
C2255 H2270 0.961 . S
C2255 H2271 0.960 . S
H2256 C2240 0.931 . S
H2257 C2245 0.929 . S
H2258 C2246 0.960 . S
H2259 C2246 0.962 . S
H2260 C2246 0.960 . S
H2261 C2247 0.961 . S
H2262 C2247 0.961 . S
H2263 C2247 0.961 . S
H2264 C2248 0.931 . S
H2265 C2253 0.930 . S
H2266 C2254 0.956 . S
H2267 C2254 0.961 . S
H2268 C2254 0.961 1_556 S
H2269 C2255 0.958 . S
H2270 C2255 0.961 . S
H2271 C2255 0.960 . S
C2272 C2273 1.391 . S
C2272 C2274 1.394 . S
C2272 H2288 0.931 . S
C2273 C2272 1.391 . S
C2273 C2277 1.376 . S
C2274 C2272 1.394 . S
C2274 C2275 1.369 . S
C2274 C2278 1.531 . S
C2275 C2274 1.369 . S
C2275 C2276 1.410 . S
C2275 C2283 1.503 . S
C2276 C2275 1.410 . S
C2276 C2277 1.392 . S
C2276 C2279 1.511 . S
C2277 C2273 1.376 . S
C2277 C2276 1.392 . S
C2277 H2289 0.929 . S
C2278 C2274 1.531 . S
C2278 H2290 0.960 . S
C2278 H2291 0.962 . S
C2278 H2292 0.960 . S
C2279 C2276 1.511 . S
C2279 H2293 0.961 . S
C2279 H2294 0.961 . S
C2279 H2295 0.961 . S
C2280 C2281 1.370 . S
C2280 C2282 1.363 . S
C2280 H2296 0.931 . S
C2281 C2280 1.370 . S
C2281 C2285 1.408 . S
C2282 C2280 1.363 . S
C2282 C2283 1.370 . S
C2282 C2286 1.524 . S
C2283 C2275 1.503 . S
C2283 C2282 1.370 . S
C2283 C2284 1.403 . S
C2284 C2283 1.403 . S
C2284 C2285 1.404 . S
C2284 C2287 1.539 . S
C2285 C2281 1.408 . S
C2285 C2284 1.404 . S
C2285 H2297 0.930 . S
C2286 C2282 1.524 . S
C2286 H2298 0.956 . S
C2286 H2299 0.961 . S
C2286 H2300 0.961 . S
C2287 C2284 1.539 . S
C2287 H2301 0.958 . S
C2287 H2302 0.961 . S
C2287 H2303 0.960 . S
H2288 C2272 0.931 . S
H2289 C2277 0.929 . S
H2290 C2278 0.960 . S
H2291 C2278 0.962 . S
H2292 C2278 0.960 . S
H2293 C2279 0.961 . S
H2294 C2279 0.961 . S
H2295 C2279 0.961 . S
H2296 C2280 0.931 . S
H2297 C2285 0.930 . S
H2298 C2286 0.956 . S
H2299 C2286 0.961 . S
H2300 C2286 0.961 . S
H2301 C2287 0.958 . S
H2302 C2287 0.961 . S
H2303 C2287 0.960 . S
C2304 C2305 1.391 . S
C2304 C2306 1.394 . S
C2304 H2320 0.931 . S
C2305 C2304 1.391 . S
C2305 C2309 1.376 . S
C2306 C2304 1.394 . S
C2306 C2307 1.369 . S
C2306 C2310 1.531 . S
C2307 C2306 1.369 . S
C2307 C2308 1.410 . S
C2307 C2315 1.503 . S
C2308 C2307 1.410 . S
C2308 C2309 1.392 . S
C2308 C2311 1.511 . S
C2309 C2305 1.376 . S
C2309 C2308 1.392 . S
C2309 H2321 0.929 . S
C2310 C2306 1.531 . S
C2310 H2322 0.960 . S
C2310 H2323 0.962 . S
C2310 H2324 0.960 . S
C2311 C2308 1.511 . S
C2311 H2325 0.961 . S
C2311 H2326 0.961 . S
C2311 H2327 0.961 . S
C2312 C2313 1.370 . S
C2312 C2314 1.363 . S
C2312 H2328 0.931 . S
C2313 C2312 1.370 . S
C2313 C2317 1.408 . S
C2314 C2312 1.363 . S
C2314 C2315 1.370 . S
C2314 C2318 1.524 . S
C2315 C2307 1.503 . S
C2315 C2314 1.370 . S
C2315 C2316 1.403 . S
C2316 C2315 1.403 . S
C2316 C2317 1.404 . S
C2316 C2319 1.539 . S
C2317 C2313 1.408 . S
C2317 C2316 1.404 . S
C2317 H2329 0.930 . S
C2318 C2314 1.524 . S
C2318 H2330 0.956 . S
C2318 H2331 0.961 . S
C2318 H2332 0.961 . S
C2319 C2316 1.539 . S
C2319 H2333 0.958 . S
C2319 H2334 0.961 . S
C2319 H2335 0.960 . S
H2320 C2304 0.931 . S
H2321 C2309 0.929 . S
H2322 C2310 0.960 . S
H2323 C2310 0.962 . S
H2324 C2310 0.960 . S
H2325 C2311 0.961 . S
H2326 C2311 0.961 . S
H2327 C2311 0.961 . S
H2328 C2312 0.931 . S
H2329 C2317 0.930 . S
H2330 C2318 0.956 . S
H2331 C2318 0.961 . S
H2332 C2318 0.961 . S
H2333 C2319 0.958 . S
H2334 C2319 0.961 . S
H2335 C2319 0.960 . S
C2336 C2337 1.391 . S
C2336 C2338 1.394 . S
C2336 H2352 0.931 . S
C2337 C2336 1.391 . S
C2337 C2341 1.376 . S
C2338 C2336 1.394 . S
C2338 C2339 1.369 . S
C2338 C2342 1.531 . S
C2339 C2338 1.369 . S
C2339 C2340 1.410 . S
C2339 C2347 1.503 . S
C2340 C2339 1.410 . S
C2340 C2341 1.392 . S
C2340 C2343 1.511 . S
C2341 C2337 1.376 . S
C2341 C2340 1.392 . S
C2341 H2353 0.929 . S
C2342 C2338 1.531 . S
C2342 H2354 0.960 . S
C2342 H2355 0.962 . S
C2342 H2356 0.960 . S
C2343 C2340 1.511 . S
C2343 H2357 0.961 . S
C2343 H2358 0.961 . S
C2343 H2359 0.961 . S
C2344 C2345 1.370 . S
C2344 C2346 1.363 . S
C2344 H2360 0.931 . S
C2345 C2344 1.370 . S
C2345 C2349 1.408 . S
C2346 C2344 1.363 . S
C2346 C2347 1.370 . S
C2346 C2350 1.524 . S
C2347 C2339 1.503 . S
C2347 C2346 1.370 . S
C2347 C2348 1.403 . S
C2348 C2347 1.403 . S
C2348 C2349 1.404 . S
C2348 C2351 1.539 . S
C2349 C2345 1.408 . S
C2349 C2348 1.404 . S
C2349 H2361 0.930 . S
C2350 C2346 1.524 . S
C2350 H2362 0.956 . S
C2350 H2363 0.961 . S
C2350 H2364 0.961 . S
C2351 C2348 1.539 . S
C2351 H2365 0.958 . S
C2351 H2366 0.961 . S
C2351 H2367 0.960 . S
H2352 C2336 0.931 . S
H2353 C2341 0.929 . S
H2354 C2342 0.960 . S
H2355 C2342 0.962 . S
H2356 C2342 0.960 . S
H2357 C2343 0.961 . S
H2358 C2343 0.961 . S
H2359 C2343 0.961 . S
H2360 C2344 0.931 . S
H2361 C2349 0.930 . S
H2362 C2350 0.956 . S
H2363 C2350 0.961 . S
H2364 C2350 0.961 . S
H2365 C2351 0.958 . S
H2366 C2351 0.961 . S
H2367 C2351 0.960 . S
C2368 C2369 1.391 . S
C2368 C2370 1.394 1_556 S
C2368 H2384 0.931 . S
C2369 C2368 1.391 . S
C2369 C2373 1.376 . S
C2370 C2368 1.394 1_554 S
C2370 C2371 1.369 . S
C2370 C2374 1.531 . S
C2371 C2370 1.369 . S
C2371 C2372 1.410 . S
C2371 C2379 1.503 . S
C2372 C2371 1.410 . S
C2372 C2373 1.392 1_554 S
C2372 C2375 1.511 . S
C2373 C2369 1.376 . S
C2373 C2372 1.392 1_556 S
C2373 H2385 0.929 . S
C2374 C2370 1.531 . S
C2374 H2386 0.960 . S
C2374 H2387 0.962 . S
C2374 H2388 0.960 . S
C2375 C2372 1.511 . S
C2375 H2389 0.961 1_554 S
C2375 H2390 0.961 . S
C2375 H2391 0.961 . S
C2376 C2377 1.370 . S
C2376 C2378 1.363 . S
C2376 H2392 0.931 . S
C2377 C2376 1.370 . S
C2377 C2381 1.408 . S
C2378 C2376 1.363 . S
C2378 C2379 1.370 . S
C2378 C2382 1.524 . S
C2379 C2371 1.503 . S
C2379 C2378 1.370 . S
C2379 C2380 1.403 . S
C2380 C2379 1.403 . S
C2380 C2381 1.404 . S
C2380 C2383 1.539 . S
C2381 C2377 1.408 . S
C2381 C2380 1.404 . S
C2381 H2393 0.930 . S
C2382 C2378 1.524 . S
C2382 H2394 0.956 . S
C2382 H2395 0.961 . S
C2382 H2396 0.961 . S
C2383 C2380 1.539 . S
C2383 H2397 0.958 . S
C2383 H2398 0.961 . S
C2383 H2399 0.960 . S
H2384 C2368 0.931 . S
H2385 C2373 0.929 . S
H2386 C2374 0.960 . S
H2387 C2374 0.962 . S
H2388 C2374 0.960 . S
H2389 C2375 0.961 1_556 S
H2390 C2375 0.961 . S
H2391 C2375 0.961 . S
H2392 C2376 0.931 . S
H2393 C2381 0.930 . S
H2394 C2382 0.956 . S
H2395 C2382 0.961 . S
H2396 C2382 0.961 . S
H2397 C2383 0.958 . S
H2398 C2383 0.961 . S
H2399 C2383 0.960 . S
C2400 C2401 1.391 . S
C2400 C2402 1.394 . S
C2400 H2416 0.931 . S
C2401 C2400 1.391 . S
C2401 C2405 1.376 . S
C2402 C2400 1.394 . S
C2402 C2403 1.369 . S
C2402 C2406 1.531 . S
C2403 C2402 1.369 . S
C2403 C2404 1.410 . S
C2403 C2411 1.503 . S
C2404 C2403 1.410 . S
C2404 C2405 1.392 . S
C2404 C2407 1.511 . S
C2405 C2401 1.376 . S
C2405 C2404 1.392 . S
C2405 H2417 0.929 . S
C2406 C2402 1.531 . S
C2406 H2418 0.960 . S
C2406 H2419 0.962 . S
C2406 H2420 0.960 . S
C2407 C2404 1.511 . S
C2407 H2421 0.961 . S
C2407 H2422 0.961 . S
C2407 H2423 0.961 . S
C2408 C2409 1.370 . S
C2408 C2410 1.363 . S
C2408 H2424 0.931 . S
C2409 C2408 1.370 . S
C2409 C2413 1.408 . S
C2410 C2408 1.363 . S
C2410 C2411 1.370 . S
C2410 C2414 1.524 . S
C2411 C2403 1.503 . S
C2411 C2410 1.370 . S
C2411 C2412 1.403 . S
C2412 C2411 1.403 . S
C2412 C2413 1.404 . S
C2412 C2415 1.539 . S
C2413 C2409 1.408 . S
C2413 C2412 1.404 . S
C2413 H2425 0.930 . S
C2414 C2410 1.524 . S
C2414 H2426 0.956 . S
C2414 H2427 0.961 . S
C2414 H2428 0.961 . S
C2415 C2412 1.539 . S
C2415 H2429 0.958 . S
C2415 H2430 0.961 . S
C2415 H2431 0.960 . S
H2416 C2400 0.931 . S
H2417 C2405 0.929 . S
H2418 C2406 0.960 . S
H2419 C2406 0.962 . S
H2420 C2406 0.960 . S
H2421 C2407 0.961 . S
H2422 C2407 0.961 . S
H2423 C2407 0.961 . S
H2424 C2408 0.931 . S
H2425 C2413 0.930 . S
H2426 C2414 0.956 . S
H2427 C2414 0.961 . S
H2428 C2414 0.961 . S
H2429 C2415 0.958 . S
H2430 C2415 0.961 . S
H2431 C2415 0.960 . S
C2432 C2433 1.391 . S
C2432 C2434 1.394 . S
C2432 H2448 0.931 . S
C2433 C2432 1.391 . S
C2433 C2437 1.376 . S
C2434 C2432 1.394 . S
C2434 C2435 1.369 . S
C2434 C2438 1.531 . S
C2435 C2434 1.369 . S
C2435 C2436 1.410 . S
C2435 C2443 1.503 . S
C2436 C2435 1.410 . S
C2436 C2437 1.392 . S
C2436 C2439 1.511 . S
C2437 C2433 1.376 . S
C2437 C2436 1.392 . S
C2437 H2449 0.929 . S
C2438 C2434 1.531 . S
C2438 H2450 0.960 . S
C2438 H2451 0.962 . S
C2438 H2452 0.960 . S
C2439 C2436 1.511 . S
C2439 H2453 0.961 . S
C2439 H2454 0.961 . S
C2439 H2455 0.961 . S
C2440 C2441 1.370 . S
C2440 C2442 1.363 . S
C2440 H2456 0.931 . S
C2441 C2440 1.370 . S
C2441 C2445 1.408 . S
C2442 C2440 1.363 . S
C2442 C2443 1.370 . S
C2442 C2446 1.524 . S
C2443 C2435 1.503 . S
C2443 C2442 1.370 . S
C2443 C2444 1.403 . S
C2444 C2443 1.403 . S
C2444 C2445 1.404 . S
C2444 C2447 1.539 . S
C2445 C2441 1.408 . S
C2445 C2444 1.404 . S
C2445 H2457 0.930 . S
C2446 C2442 1.524 . S
C2446 H2458 0.956 . S
C2446 H2459 0.961 . S
C2446 H2460 0.961 . S
C2447 C2444 1.539 . S
C2447 H2461 0.958 . S
C2447 H2462 0.961 . S
C2447 H2463 0.960 . S
H2448 C2432 0.931 . S
H2449 C2437 0.929 . S
H2450 C2438 0.960 . S
H2451 C2438 0.962 . S
H2452 C2438 0.960 . S
H2453 C2439 0.961 . S
H2454 C2439 0.961 . S
H2455 C2439 0.961 . S
H2456 C2440 0.931 . S
H2457 C2445 0.930 . S
H2458 C2446 0.956 . S
H2459 C2446 0.961 . S
H2460 C2446 0.961 . S
H2461 C2447 0.958 . S
H2462 C2447 0.961 . S
H2463 C2447 0.960 . S
C417 C101 1.589 . S
C425 C4 1.605 . S
C449 C17 1.598 . S
C457 C56 1.601 . S
C481 C75 1.619 . S
C489 C36 1.593 . S
C513 C43 1.596 . S
C521 C88 1.602 . S
C545 C108 1.585 . S
C553 C205 1.609 . S
C577 C121 1.577 . S
C585 C166 1.611 . S
C609 C134 1.616 . S
C617 C179 1.593 . S
C641 C147 1.577 . S
C649 C186 1.610 . S
C673 C218 1.576 . S
C681 C309 1.610 . S
C705 C225 1.605 . S
C713 C270 1.599 . S
C737 C283 1.584 . S
C745 C238 1.607 . S
C769 C296 1.586 . S
C777 C251 1.607 . S
C801 C316 1.614 . S
C809 C413 1.597 . S
C833 C368 1.618 . S
C841 C329 1.594 . S
C865 C387 1.607 . S
C873 C348 1.596 . S
C897 C355 1.617 . S
C905 C400 1.593 . S
C929 C10 0.859 . S
C937 C82 0.851 . S
C961 C23 0.882 . S
C969 C95 0.855 . S
C993 C62 0.853 . S
C1001 C30 0.870 . S
C1025 C49 0.848 . S
C1033 C69 0.854 . S
C1057 C114 0.837 . S
C1065 C192 0.864 . S
C1089 C127 0.845 . S
C1097 C199 0.870 . S
C1121 C160 0.836 . S
C1129 C140 0.866 . S
C1153 C173 0.879 . S
C1161 C153 0.857 . S
C1185 C212 0.863 . S
C1193 C290 0.868 . S
C1217 C303 0.837 . S
C1225 C231 0.861 . S
C1249 C264 0.862 . S
C1257 C244 0.868 . S
C1281 C257 0.836 . S
C1289 C277 0.863 . S
C1313 C322 0.849 . S
C1321 C394 0.857 . S
C1345 C335 0.846 . S
C1353 C407 0.870 . S
C1377 C374 0.840 . S
C1385 C342 0.862 . S
C1409 C381 0.871 . S
C1417 C361 0.863 . S
C1441 C5 1.614 . S
C1449 C393 1.622 . S
C1473 C18 1.617 . S
C1481 C198 1.624 . S
C1505 C29 1.615 . S
C1513 C369 1.622 . S
C1537 C44 1.612 . S
C1545 C172 1.621 . S
C1569 C57 1.628 . S
C1577 C341 1.628 . S
C1601 C68 1.630 . S
C1609 C148 1.628 . S
C1633 C81 1.630 . S
C1641 C317 1.628 . S
C1665 C122 1.619 . S
C1673 C94 1.625 . S
C1697 C289 1.629 . S
C1705 C109 1.628 . S
C1729 C135 1.628 . S
C1737 C263 1.627 . S
C1761 C239 1.618 . S
C1769 C159 1.624 . S
C1793 C211 1.627 . S
C1801 C187 1.627 . S
C1825 C226 1.629 . S
C1833 C406 1.628 . S
C1857 C252 1.612 . S
C1865 C380 1.621 . S
C1889 C276 1.630 . S
C1897 C356 1.629 . S
C1921 C330 1.630 . S
C1929 C302 1.628 . S
C1953 C3 1.504 . S
C1961 C83 1.503 . S
C1985 C16 1.504 . S
C1993 C96 1.503 . S
C2017 C55 1.489 . S
C2025 C31 1.497 . S
C2049 C42 1.505 . S
C2057 C70 1.504 . S
C2081 C107 1.489 . S
C2089 C185 1.499 . S
C2113 C120 1.492 . S
C2121 C200 1.501 . S
C2145 C161 1.490 . S
C2153 C133 1.500 . S
C2177 C146 1.494 . S
C2185 C174 1.502 . S
C2209 C291 1.504 . S
C2217 C213 1.504 . S
C2241 C304 1.491 . S
C2249 C224 1.499 . S
C2273 C265 1.493 . S
C2281 C237 1.498 . S
C2305 C278 1.503 . S
C2313 C250 1.502 . S
C2337 C395 1.505 . S
C2345 C315 1.502 . S
C2369 C408 1.492 . S
C2377 C328 1.497 . S
C2401 C343 1.490 . S
C2409 C367 1.499 . S
C2433 C382 1.492 . S
C2441 C354 1.497 . S
