# Generated by pormake.
# Topology uoe, (4)-cn, num edge types: 1
# Building blocks:
#     Node 0, Type 0, BuildingBlock: QUQFOY_clean_sbu_3, # of connection points: 4
#     Node 1, Type 0, BuildingBlock: QUQFOY_clean_sbu_3, # of connection points: 4
#     Node 2, Type 0, BuildingBlock: QUQFOY_clean_sbu_3, # of connection points: 4
#     Node 3, Type 0, BuildingBlock: QUQFOY_clean_sbu_3, # of connection points: 4
#     Node 4, Type 0, BuildingBlock: QUQFOY_clean_sbu_3, # of connection points: 4
#     Node 5, Type 0, BuildingBlock: QUQFOY_clean_sbu_3, # of connection points: 4
#     Node 6, Type 0, BuildingBlock: QUQFOY_clean_sbu_3, # of connection points: 4
#     Node 7, Type 0, BuildingBlock: QUQFOY_clean_sbu_3, # of connection points: 4
#     Node 8, Type 0, BuildingBlock: QUQFOY_clean_sbu_3, # of connection points: 4
#     Node 9, Type 0, BuildingBlock: QUQFOY_clean_sbu_3, # of connection points: 4
#     Node 10, Type 0, BuildingBlock: QUQFOY_clean_sbu_3, # of connection points: 4
#     Node 11, Type 0, BuildingBlock: QUQFOY_clean_sbu_3, # of connection points: 4
#     Node 12, Type 0, BuildingBlock: QUQFOY_clean_sbu_3, # of connection points: 4
#     Node 13, Type 0, BuildingBlock: QUQFOY_clean_sbu_3, # of connection points: 4
#     Node 14, Type 0, BuildingBlock: QUQFOY_clean_sbu_3, # of connection points: 4
#     Node 15, Type 0, BuildingBlock: QUQFOY_clean_sbu_3, # of connection points: 4
#     Node 16, Type 0, BuildingBlock: QUQFOY_clean_sbu_3, # of connection points: 4
#     Node 17, Type 0, BuildingBlock: QUQFOY_clean_sbu_3, # of connection points: 4
#     Node 18, Type 0, BuildingBlock: QUQFOY_clean_sbu_3, # of connection points: 4
#     Node 19, Type 0, BuildingBlock: QUQFOY_clean_sbu_3, # of connection points: 4
#     Node 20, Type 0, BuildingBlock: QUQFOY_clean_sbu_3, # of connection points: 4
#     Node 21, Type 0, BuildingBlock: QUQFOY_clean_sbu_3, # of connection points: 4
#     Node 22, Type 0, BuildingBlock: QUQFOY_clean_sbu_3, # of connection points: 4
#     Node 23, Type 0, BuildingBlock: QUQFOY_clean_sbu_3, # of connection points: 4
#     Node 24, Type 0, BuildingBlock: QUQFOY_clean_sbu_3, # of connection points: 4
#     Node 25, Type 0, BuildingBlock: QUQFOY_clean_sbu_3, # of connection points: 4
#     Node 26, Type 0, BuildingBlock: QUQFOY_clean_sbu_3, # of connection points: 4
#     Node 27, Type 0, BuildingBlock: QUQFOY_clean_sbu_3, # of connection points: 4
#     Node 28, Type 0, BuildingBlock: QUQFOY_clean_sbu_3, # of connection points: 4
#     Node 29, Type 0, BuildingBlock: QUQFOY_clean_sbu_3, # of connection points: 4
#     Node 30, Type 0, BuildingBlock: QUQFOY_clean_sbu_3, # of connection points: 4
#     Node 31, Type 0, BuildingBlock: QUQFOY_clean_sbu_3, # of connection points: 4
#     Edge 32, Type (0, 0), None
#     Edge 33, Type (0, 0), None
#     Edge 34, Type (0, 0), None
#     Edge 35, Type (0, 0), None
#     Edge 36, Type (0, 0), None
#     Edge 37, Type (0, 0), None
#     Edge 38, Type (0, 0), None
#     Edge 39, Type (0, 0), None
#     Edge 40, Type (0, 0), None
#     Edge 41, Type (0, 0), None
#     Edge 42, Type (0, 0), None
#     Edge 43, Type (0, 0), None
#     Edge 44, Type (0, 0), None
#     Edge 45, Type (0, 0), None
#     Edge 46, Type (0, 0), None
#     Edge 47, Type (0, 0), None
#     Edge 48, Type (0, 0), None
#     Edge 49, Type (0, 0), None
#     Edge 50, Type (0, 0), None
#     Edge 51, Type (0, 0), None
#     Edge 52, Type (0, 0), None
#     Edge 53, Type (0, 0), None
#     Edge 54, Type (0, 0), None
#     Edge 55, Type (0, 0), None
#     Edge 56, Type (0, 0), None
#     Edge 57, Type (0, 0), None
#     Edge 58, Type (0, 0), None
#     Edge 59, Type (0, 0), None
#     Edge 60, Type (0, 0), None
#     Edge 61, Type (0, 0), None
#     Edge 62, Type (0, 0), None
#     Edge 63, Type (0, 0), None
#     Edge 64, Type (0, 0), None
#     Edge 65, Type (0, 0), None
#     Edge 66, Type (0, 0), None
#     Edge 67, Type (0, 0), None
#     Edge 68, Type (0, 0), None
#     Edge 69, Type (0, 0), None
#     Edge 70, Type (0, 0), None
#     Edge 71, Type (0, 0), None
#     Edge 72, Type (0, 0), None
#     Edge 73, Type (0, 0), None
#     Edge 74, Type (0, 0), None
#     Edge 75, Type (0, 0), None
#     Edge 76, Type (0, 0), None
#     Edge 77, Type (0, 0), None
#     Edge 78, Type (0, 0), None
#     Edge 79, Type (0, 0), None
#     Edge 80, Type (0, 0), None
#     Edge 81, Type (0, 0), None
#     Edge 82, Type (0, 0), None
#     Edge 83, Type (0, 0), None
#     Edge 84, Type (0, 0), None
#     Edge 85, Type (0, 0), None
#     Edge 86, Type (0, 0), None
#     Edge 87, Type (0, 0), None
#     Edge 88, Type (0, 0), None
#     Edge 89, Type (0, 0), None
#     Edge 90, Type (0, 0), None
#     Edge 91, Type (0, 0), None
#     Edge 92, Type (0, 0), None
#     Edge 93, Type (0, 0), None
#     Edge 94, Type (0, 0), None
#     Edge 95, Type (0, 0), None
# Relax obj value: 0.163
# Max RMSD: 0.206
# Mean RMSD: 0.206
data_MOF--net-uoe--node1-QUQFOY_clean_sbu_3--edge1-none
_symmetry_space_group_name_H-M    P1
_symmetry_Int_Tables_number       1
_symmetry_cell_setting            triclinic
loop_
_symmetry_equiv_pos_as_xyz
'x, y, z'
_cell_length_a     38.506871
_cell_length_b     38.441737
_cell_length_c     13.625509
_cell_angle_alpha  89.991747
_cell_angle_beta   90.012525
_cell_angle_gamma 90.034443
loop_
_atom_site_label
_atom_site_type_symbol
_atom_site_fract_x
_atom_site_fract_y
_atom_site_fract_z
_atom_type_partial_charge
C0 C 0.08061 0.46718 0.78473 0.0
O1 O 0.08038 0.49652 0.82735 0.0
Cd2 Cd 0.06321 0.50558 -0.00415 0.0
O3 O 0.07419 0.43948 0.83244 0.0
Cd4 Cd 0.06061 0.42606 0.00487 0.0
C5 C -0.01549 0.46535 -0.01747 0.0
O6 O 0.08663 0.46745 0.11731 0.0
O7 O 0.03785 0.44214 0.15652 0.0
O8 O 0.11065 0.3958 0.03776 0.0
C9 C 0.06472 0.45865 0.18294 0.0
O10 O 0.0015 0.49341 -0.00475 0.0
C11 C 0.09654 0.36909 0.07495 0.0
O12 O -0.00037 0.43597 -0.02582 0.0
O13 O 0.0639 0.365 0.06397 0.0
C14 C 0.71581 0.83116 0.03432 0.0
O15 O 0.68653 0.83144 0.077 0.0
Cd16 Cd 0.67729 0.81446 0.24564 0.0
O17 O 0.74336 0.82433 0.08205 0.0
Cd18 Cd 0.75665 0.81079 0.25464 0.0
C19 C 0.71648 0.73511 0.2333 0.0
O20 O 0.71567 0.83733 0.36712 0.0
O21 O 0.74031 0.78817 0.4063 0.0
O22 O 0.7873 0.8607 0.28663 0.0
C23 C 0.72413 0.81524 0.43272 0.0
O24 O 0.68874 0.75255 0.24571 0.0
C25 C 0.81374 0.84642 0.32465 0.0
O26 O 0.74605 0.74981 0.22463 0.0
O27 O 0.81754 0.81367 0.31437 0.0
C28 C 0.35074 0.46504 0.28488 0.0
O29 O 0.351 0.4357 0.3275 0.0
Cd30 Cd 0.36822 0.42666 0.49598 0.0
O31 O 0.35711 0.49275 0.33261 0.0
Cd32 Cd 0.37058 0.50622 0.50511 0.0
C33 C 0.4468 0.46718 0.48273 0.0
O34 O 0.34479 0.46471 0.61747 0.0
O35 O 0.3935 0.49019 0.6567 0.0
O36 O 0.32028 0.53602 0.53838 0.0
C37 C 0.36669 0.47357 0.68309 0.0
O38 O 0.42986 0.43908 0.49529 0.0
C39 C 0.33418 0.5629 0.57521 0.0
O40 O 0.43163 0.49655 0.47452 0.0
O41 O 0.36677 0.56727 0.56394 0.0
C42 C 0.7157 0.10108 0.53454 0.0
O43 O 0.74499 0.10098 0.57723 0.0
Cd44 Cd 0.75412 0.11804 0.74585 0.0
O45 O 0.68811 0.10777 0.58222 0.0
Cd46 Cd 0.67475 0.12133 0.75471 0.0
C47 C 0.71456 0.1972 0.73307 0.0
O48 O 0.71584 0.09501 0.86735 0.0
O49 O 0.691 0.1441 0.90628 0.0
O50 O 0.64428 0.07133 0.7873 0.0
C51 C 0.70727 0.11709 0.93284 0.0
O52 O 0.74239 0.1799 0.74561 0.0
C53 C 0.61773 0.08556 0.82476 0.0
O54 O 0.68506 0.18235 0.72445 0.0
O55 O 0.61382 0.11827 0.81398 0.0
C56 C 0.08068 0.46588 0.67716 0.0
O57 O 0.08082 0.43654 0.63452 0.0
Cd58 Cd 0.06384 0.42733 0.46587 0.0
O59 O 0.07398 0.49351 0.62943 0.0
Cd60 Cd 0.06047 0.50682 0.45692 0.0
C61 C -0.01523 0.46683 0.47855 0.0
O62 O 0.08676 0.4657 0.34429 0.0
O63 O 0.03776 0.4906 0.30534 0.0
O64 O 0.11037 0.53739 0.42469 0.0
C65 C 0.06471 0.47429 0.2788 0.0
O66 O 0.00206 0.43896 0.46601 0.0
C67 C 0.09616 0.56394 0.38693 0.0
O68 O -0.00042 0.49638 0.48716 0.0
O69 O 0.06348 0.56783 0.39745 0.0
C70 C 0.71709 0.83115 0.92674 0.0
O71 O 0.74638 0.83075 0.88411 0.0
Cd72 Cd 0.7553 0.81357 0.71555 0.0
O73 O 0.68939 0.82491 0.87901 0.0
Cd74 Cd 0.67585 0.81144 0.70651 0.0
C75 C 0.71461 0.73498 0.72883 0.0
O76 O 0.71735 0.83724 0.59417 0.0
O77 O 0.69177 0.78854 0.55483 0.0
O78 O 0.64592 0.86174 0.67308 0.0
C79 C 0.70845 0.81535 0.52851 0.0
O80 O 0.74271 0.75185 0.71618 0.0
C81 C 0.61908 0.84771 0.63655 0.0
O82 O 0.68535 0.75028 0.73711 0.0
O83 O 0.61485 0.81506 0.64801 0.0
C84 C 0.35069 0.46635 0.1773 0.0
O85 O 0.35056 0.49569 0.13466 0.0
Cd86 Cd 0.3676 0.50489 -0.03393 0.0
O87 O 0.35738 0.43872 0.12959 0.0
Cd88 Cd 0.3708 0.42537 -0.04295 0.0
C89 C 0.44659 0.46515 -0.02134 0.0
O90 O 0.34467 0.46659 0.84442 0.0
O91 O 0.39362 0.44156 0.80553 0.0
O92 O 0.32065 0.39526 0.92449 0.0
C93 C 0.36671 0.45795 0.77898 0.0
O94 O 0.42932 0.49304 -0.03372 0.0
C95 C 0.33465 0.36856 0.88698 0.0
O96 O 0.43176 0.4356 -0.01281 0.0
O97 O 0.36728 0.36438 0.89774 0.0
C98 C 0.71441 0.10109 0.42695 0.0
O99 O 0.68512 0.10132 0.38431 0.0
Cd100 Cd 0.67608 0.11851 0.21579 0.0
O101 O 0.74207 0.10748 0.37924 0.0
Cd102 Cd 0.7555 0.12099 0.20671 0.0
C103 C 0.71642 0.19729 0.22891 0.0
O104 O 0.7141 0.09508 0.09429 0.0
O105 O 0.73945 0.14392 0.05513 0.0
O106 O 0.78544 0.07073 0.1733 0.0
C107 C 0.72289 0.11705 0.02871 0.0
O108 O 0.6884 0.18028 0.21635 0.0
C109 C 0.81222 0.08477 0.13651 0.0
O110 O 0.74576 0.18212 0.2372 0.0
O111 O 0.81646 0.11742 0.14789 0.0
C112 C 0.85099 0.46454 0.17629 0.0
O113 O 0.85122 0.43521 0.13364 0.0
Cd114 Cd 0.86831 0.42626 -0.03499 0.0
O115 O 0.85726 0.49227 0.12852 0.0
Cd116 Cd 0.87048 0.50589 -0.04403 0.0
C117 C 0.9468 0.46703 -0.0219 0.0
O118 O 0.84494 0.46431 0.84341 0.0
O119 O 0.89351 0.49011 0.80436 0.0
O120 O 0.81992 0.53526 0.92264 0.0
C121 C 0.86684 0.47328 0.7779 0.0
O122 O 0.92988 0.43891 -0.03433 0.0
C123 C 0.8336 0.56234 0.88629 0.0
O124 O 0.93161 0.49639 -0.01371 0.0
O125 O 0.86615 0.56697 0.89776 0.0
C126 C 0.2163 0.10121 0.9272 0.0
O127 O 0.24559 0.10132 0.88455 0.0
Cd128 Cd 0.25462 0.11843 0.71596 0.0
O129 O 0.18866 0.10769 0.87946 0.0
Cd130 Cd 0.17524 0.12118 0.70692 0.0
C131 C 0.21452 0.19731 0.72875 0.0
O132 O 0.2165 0.09511 0.59445 0.0
O133 O 0.19141 0.14405 0.55537 0.0
O134 O 0.14499 0.07106 0.67398 0.0
C135 C 0.20782 0.11713 0.52889 0.0
O136 O 0.24246 0.1802 0.71622 0.0
C137 C 0.11834 0.0852 0.6368 0.0
O138 O 0.18512 0.18226 0.73727 0.0
O139 O 0.1143 0.11789 0.64782 0.0
C140 C 0.58038 0.46774 0.67641 0.0
O141 O 0.58014 0.49707 0.63373 0.0
Cd142 Cd 0.56307 0.50607 0.46507 0.0
O143 O 0.57408 0.44001 0.62867 0.0
Cd144 Cd 0.56075 0.42647 0.45613 0.0
C145 C 0.48451 0.46552 0.47826 0.0
O146 O 0.58647 0.46798 0.34358 0.0
O147 O 0.53783 0.44234 0.30449 0.0
O148 O 0.61108 0.39668 0.42297 0.0
C149 C 0.56456 0.45906 0.27802 0.0
O150 O 0.50145 0.49362 0.46567 0.0
C151 C 0.59718 0.36975 0.38637 0.0
O152 O 0.49969 0.43616 0.48654 0.0
O153 O 0.56459 0.36538 0.3977 0.0
C154 C 0.21517 0.83114 0.42738 0.0
O155 O 0.18589 0.8312 0.38469 0.0
Cd156 Cd 0.17676 0.81415 0.21607 0.0
O157 O 0.24277 0.82452 0.37969 0.0
Cd158 Cd 0.25611 0.81101 0.20713 0.0
C159 C 0.21648 0.73507 0.22865 0.0
O160 O 0.21497 0.83728 0.09458 0.0
O161 O 0.23987 0.78825 0.05554 0.0
O162 O 0.28652 0.86105 0.17457 0.0
C163 C 0.22356 0.81523 0.02904 0.0
O164 O 0.18862 0.75232 0.21616 0.0
C165 C 0.31307 0.84686 0.13702 0.0
O166 O 0.24595 0.74997 0.23729 0.0
O167 O 0.31703 0.81414 0.14776 0.0
C168 C 0.85106 0.46585 0.28387 0.0
O169 O 0.85098 0.49519 0.32646 0.0
Cd170 Cd 0.86809 0.50443 0.49492 0.0
O171 O 0.85777 0.43822 0.33161 0.0
Cd172 Cd 0.87132 0.42491 0.50422 0.0
C173 C 0.94709 0.4647 0.48248 0.0
O174 O 0.84502 0.46616 0.6164 0.0
O175 O 0.89402 0.44133 0.65582 0.0
O176 O 0.8213 0.39457 0.53675 0.0
C177 C 0.86702 0.45762 0.68207 0.0
O178 O 0.92983 0.49259 0.4948 0.0
C179 C 0.83539 0.36799 0.57465 0.0
O180 O 0.93226 0.43515 0.47403 0.0
O181 O 0.86805 0.36395 0.56414 0.0
C182 C 0.21501 0.10121 0.03479 0.0
O183 O 0.18572 0.10123 0.07742 0.0
Cd184 Cd 0.17662 0.11834 0.24596 0.0
O185 O 0.24263 0.1078 0.0825 0.0
Cd186 Cd 0.25603 0.12131 0.25504 0.0
C187 C 0.21653 0.19736 0.23305 0.0
O188 O 0.21479 0.09515 0.36747 0.0
O189 O 0.23992 0.1441 0.40669 0.0
O190 O 0.28615 0.07114 0.28781 0.0
C191 C 0.22347 0.11716 0.43306 0.0
O192 O 0.18861 0.18017 0.24554 0.0
C193 C 0.31284 0.08521 0.32506 0.0
O194 O 0.24596 0.18239 0.22469 0.0
O195 O 0.31698 0.11791 0.31417 0.0
C196 C 0.58031 0.46645 0.78399 0.0
O197 O 0.58043 0.43711 0.82665 0.0
Cd198 Cd 0.56338 0.42787 -0.00481 0.0
O199 O 0.57356 0.49407 0.83166 0.0
Cd200 Cd 0.55992 0.50736 0.00417 0.0
C201 C 0.48427 0.4673 -0.01746 0.0
O202 O 0.58641 0.46625 0.11655 0.0
O203 O 0.53735 0.49094 0.15583 0.0
O204 O 0.60967 0.53819 0.03629 0.0
C205 C 0.56439 0.47474 0.18219 0.0
O206 O 0.50158 0.43945 -0.00489 0.0
C207 C 0.59536 0.5646 0.07442 0.0
O208 O 0.49905 0.49686 -0.02611 0.0
O209 O 0.56266 0.56834 0.06414 0.0
C210 C 0.21646 0.83114 0.53497 0.0
O211 O 0.24575 0.83096 0.57764 0.0
Cd212 Cd 0.25476 0.81382 0.74622 0.0
O213 O 0.1888 0.8247 0.58266 0.0
Cd214 Cd 0.17532 0.8112 0.75516 0.0
C215 C 0.21454 0.73498 0.73303 0.0
O216 O 0.21667 0.83722 0.86757 0.0
O217 O 0.19136 0.78837 0.90686 0.0
O218 O 0.14523 0.86141 0.78812 0.0
C219 C 0.2079 0.81526 0.93321 0.0
O220 O 0.24253 0.75204 0.74566 0.0
C221 C 0.11849 0.84733 0.82505 0.0
O222 O 0.18518 0.75008 0.72468 0.0
O223 O 0.11434 0.81465 0.81395 0.0
C224 C 0.58028 -0.0327 0.28514 0.0
O225 O 0.58012 -0.00336 0.32777 0.0
Cd226 Cd 0.56299 0.00569 0.49631 0.0
O227 O 0.57387 0.9396 0.33291 0.0
Cd228 Cd 0.56051 0.92612 0.50544 0.0
C229 C 0.48434 0.96524 0.48317 0.0
O230 O 0.58622 -0.03241 0.61803 0.0
O231 O 0.53748 0.94208 0.65688 0.0
O232 O 0.6109 0.89652 0.53894 0.0
C233 C 0.56425 0.95872 0.68346 0.0
O234 O 0.50136 -0.0067 0.49563 0.0
C235 C 0.59708 0.86956 0.57558 0.0
O236 O 0.49944 0.93583 0.47497 0.0
O237 O 0.56451 0.86507 0.56409 0.0
C238 C 0.21478 0.33125 0.53456 0.0
O239 O 0.18549 0.33114 0.5772 0.0
Cd240 Cd 0.17643 0.31401 0.74577 0.0
O241 O 0.24241 0.32474 0.58229 0.0
Cd242 Cd 0.25578 0.31114 0.75478 0.0
C243 C 0.2164 0.23507 0.73284 0.0
O244 O 0.21457 0.3373 0.86729 0.0
O245 O 0.23955 0.28829 0.90629 0.0
O246 O 0.28621 0.36115 0.78781 0.0
C247 C 0.22322 0.31526 0.93282 0.0
O248 O 0.18847 0.25219 0.74545 0.0
C249 C 0.31279 0.3469 0.82505 0.0
O250 O 0.2458 0.2501 0.7243 0.0
O251 O 0.31673 0.3142 0.81398 0.0
C252 C 0.85066 0.96494 0.78513 0.0
O253 O 0.8508 0.93561 0.82781 0.0
Cd254 Cd 0.86783 0.92655 -0.00352 0.0
O255 O 0.85705 -0.00735 0.83286 0.0
Cd256 Cd 0.8704 0.00614 0.00542 0.0
C257 C 0.94652 -0.03314 -0.01649 0.0
O258 O 0.84453 0.9647 0.11793 0.0
O259 O 0.89324 -0.00981 0.15709 0.0
O260 O 0.82015 0.03607 0.03834 0.0
C261 C 0.86645 -0.02645 0.18352 0.0
O262 O 0.92949 0.93881 -0.00395 0.0
C263 C 0.8341 0.06291 0.07526 0.0
O264 O 0.93143 -0.00373 -0.02485 0.0
O265 O 0.86671 0.06721 0.06412 0.0
C266 C 0.21567 0.60111 0.03412 0.0
O267 O 0.24496 0.60106 0.07679 0.0
Cd268 Cd 0.25409 0.61821 0.24532 0.0
O269 O 0.18808 0.6078 0.0818 0.0
Cd270 Cd 0.17478 0.62141 0.2543 0.0
C271 C 0.21443 0.69732 0.23255 0.0
O272 O 0.21589 0.59509 0.36687 0.0
O273 O 0.1911 0.64419 0.40583 0.0
O274 O 0.14432 0.57142 0.28684 0.0
C275 C 0.20733 0.61716 0.43238 0.0
O276 O 0.24228 0.68006 0.24509 0.0
C277 C 0.11781 0.58564 0.32458 0.0
O278 O 0.18496 0.68242 0.22394 0.0
O279 O 0.11389 0.61836 0.31393 0.0
C280 C 0.58023 0.96599 0.17757 0.0
O281 O 0.58024 0.93665 0.13497 0.0
Cd282 Cd 0.56308 0.92747 -0.0335 0.0
O283 O 0.57359 -0.00637 0.12984 0.0
Cd284 Cd 0.56002 0.00696 -0.04269 0.0
C285 C 0.48417 -0.03268 -0.02079 0.0
O286 O 0.58617 0.96571 0.84491 0.0
O287 O 0.53719 -0.00936 0.80582 0.0
O288 O 0.61006 0.03722 0.92445 0.0
C289 C 0.56415 -0.02568 0.77938 0.0
O290 O 0.50136 0.9394 -0.03322 0.0
C291 C 0.59597 0.06387 0.88687 0.0
O292 O 0.49907 -0.00316 -0.01235 0.0
O293 O 0.56333 0.06796 0.89771 0.0
C294 C 0.21607 0.33127 0.42698 0.0
O295 O 0.24536 0.33127 0.38435 0.0
Cd296 Cd 0.25446 0.31414 0.21581 0.0
O297 O 0.18845 0.32467 0.37927 0.0
Cd298 Cd 0.17507 0.31115 0.20675 0.0
C299 C 0.21458 0.23512 0.22883 0.0
O300 O 0.2163 0.33729 0.0942 0.0
O301 O 0.19117 0.28832 0.05518 0.0
O302 O 0.14496 0.36133 0.17398 0.0
C303 C 0.2076 0.31526 0.02869 0.0
O304 O 0.2425 0.25231 0.2163 0.0
C305 C 0.11828 0.34725 0.13668 0.0
O306 O 0.18515 0.25008 0.23719 0.0
O307 O 0.11414 0.31456 0.14758 0.0
C308 C 0.85072 -0.03377 0.67754 0.0
O309 O 0.8507 -0.00443 0.63488 0.0
Cd310 Cd 0.86775 0.00476 0.46632 0.0
O311 O 0.85737 0.93859 0.62988 0.0
Cd312 Cd 0.87096 0.92525 0.45737 0.0
C313 C 0.94674 0.96508 0.47896 0.0
O314 O 0.84459 -0.03356 0.34499 0.0
O315 O 0.89356 0.94157 0.30567 0.0
O316 O 0.82111 0.89459 0.42508 0.0
C317 C 0.86657 0.95786 0.27933 0.0
O318 O 0.92952 -0.00701 0.4664 0.0
C319 C 0.83536 0.86809 0.38719 0.0
O320 O 0.93186 0.93557 0.48761 0.0
O321 O 0.86804 0.86425 0.39768 0.0
C322 C 0.21438 0.60107 0.92654 0.0
O323 O 0.18509 0.60124 0.88388 0.0
Cd324 Cd 0.17607 0.61838 0.7153 0.0
O325 O 0.24203 0.60749 0.87883 0.0
Cd326 Cd 0.2555 0.62098 0.70634 0.0
C327 C 0.21631 0.69721 0.72861 0.0
O328 O 0.21415 0.59507 0.59377 0.0
O329 O 0.2395 0.64394 0.5548 0.0
O330 O 0.28544 0.57071 0.67301 0.0
C331 C 0.22294 0.61708 0.52828 0.0
O332 O 0.18832 0.68016 0.71598 0.0
C333 C 0.31225 0.58475 0.63634 0.0
O334 O 0.24567 0.6821 0.7369 0.0
O335 O 0.31649 0.61741 0.64775 0.0
C336 C 0.35062 0.96528 0.6769 0.0
O337 O 0.35077 0.93595 0.63426 0.0
Cd338 Cd 0.36788 0.92687 0.46571 0.0
O339 O 0.35708 -0.00702 0.62919 0.0
Cd340 Cd 0.3706 0.00643 0.45672 0.0
C341 C 0.44664 -0.03298 0.47882 0.0
O342 O 0.34455 0.96506 0.34429 0.0
O343 O 0.39335 -0.00965 0.30504 0.0
O344 O 0.32053 0.03663 0.42384 0.0
C345 C 0.36647 -0.02616 0.27865 0.0
O346 O 0.42959 0.93899 0.46619 0.0
C347 C 0.33461 0.06337 0.3867 0.0
O348 O 0.43158 -0.00356 0.48719 0.0
O349 O 0.36724 0.06749 0.39771 0.0
C350 C 0.71479 0.60113 0.42808 0.0
O351 O 0.74408 0.60088 0.38544 0.0
Cd352 Cd 0.75333 0.618 0.21695 0.0
O353 O 0.68725 0.60803 0.38036 0.0
Cd354 Cd 0.67403 0.62172 0.20779 0.0
C355 C 0.71418 0.69737 0.2295 0.0
O356 O 0.715 0.59512 0.09537 0.0
O357 O 0.69055 0.64439 0.05627 0.0
O358 O 0.64329 0.57188 0.17553 0.0
C359 C 0.70661 0.61725 0.0298 0.0
O360 O 0.74191 0.67992 0.21707 0.0
C361 C 0.61693 0.58621 0.13731 0.0
O362 O 0.6846 0.68268 0.23808 0.0
O363 O 0.61317 0.61897 0.14762 0.0
C364 C 0.08033 -0.03304 0.17697 0.0
O365 O 0.08015 -0.00369 0.13436 0.0
Cd366 Cd 0.06292 0.00539 -0.03409 0.0
O367 O 0.07386 0.93928 0.12925 0.0
Cd368 Cd 0.06032 0.92586 -0.04325 0.0
C369 C -0.01578 0.96509 -0.02086 0.0
O370 O 0.08619 -0.03271 0.84431 0.0
O371 O 0.03737 0.94199 0.80528 0.0
O372 O 0.11056 0.896 0.92331 0.0
C373 C 0.06423 0.95851 0.77878 0.0
O374 O 0.00125 -0.00687 -0.03339 0.0
C375 C 0.09661 0.86915 0.8864 0.0
O376 O -0.0007 0.93567 -0.01265 0.0
O377 O 0.06402 0.86482 0.89774 0.0
C378 C 0.71562 0.33114 0.92758 0.0
O379 O 0.68634 0.33122 0.8849 0.0
Cd380 Cd 0.67717 0.31413 0.71634 0.0
O381 O 0.74321 0.32444 0.8799 0.0
Cd382 Cd 0.75653 0.3108 0.70739 0.0
C383 C 0.71668 0.23495 0.72911 0.0
O384 O 0.71545 0.33719 0.59489 0.0
O385 O 0.74015 0.28805 0.55586 0.0
O386 O 0.78714 0.3607 0.67455 0.0
C387 C 0.72396 0.31511 0.52935 0.0
O388 O 0.68886 0.25226 0.71656 0.0
C389 C 0.81363 0.34639 0.63701 0.0
O390 O 0.74618 0.24979 0.7377 0.0
O391 O 0.81746 0.31367 0.64789 0.0
C392 C 0.35058 -0.03342 0.78448 0.0
O393 O 0.35054 -0.00408 0.82712 0.0
Cd394 Cd 0.36755 0.00509 -0.00425 0.0
O395 O 0.35718 0.93893 0.83221 0.0
Cd396 Cd 0.37064 0.92558 0.00477 0.0
C397 C 0.44648 0.9653 -0.01682 0.0
O398 O 0.34446 -0.03319 0.11728 0.0
O399 O 0.39339 0.94178 0.15637 0.0
O400 O 0.32065 0.8952 0.03731 0.0
C401 C 0.36647 0.95816 0.18282 0.0
O402 O 0.42928 -0.00678 -0.00435 0.0
C403 C 0.33478 0.86858 0.07489 0.0
O404 O 0.43158 0.93579 -0.02539 0.0
O405 O 0.36744 0.86457 0.06416 0.0
C406 C 0.7135 0.60107 0.53566 0.0
O407 O 0.68422 0.60147 0.57829 0.0
Cd408 Cd 0.67534 0.61865 0.74688 0.0
O409 O 0.74121 0.60727 0.5834 0.0
Cd410 Cd 0.75479 0.62069 0.75589 0.0
C411 C 0.71612 0.6972 0.7334 0.0
O412 O 0.71328 0.59509 0.86848 0.0
O413 O 0.73895 0.6438 0.90738 0.0
O414 O 0.7845 0.57029 0.7899 0.0
C415 C 0.72222 0.61705 -0.06607 0.0
O416 O 0.68801 0.68034 0.74604 0.0
C417 C 0.81147 0.58425 0.82586 0.0
O418 O 0.74538 0.68188 0.7252 0.0
O419 O 0.81584 0.61687 0.8139 0.0
C420 C 0.08038 0.96566 0.28455 0.0
O421 O 0.0804 0.93631 0.32719 0.0
Cd422 Cd 0.0633 0.92717 0.49574 0.0
O423 O 0.07378 -0.0067 0.33227 0.0
Cd424 Cd 0.06033 0.00667 0.50478 0.0
C425 C -0.01557 -0.03289 0.48293 0.0
O426 O 0.0863 0.9654 0.61748 0.0
O427 O 0.03737 -0.0095 0.65616 0.0
O428 O 0.1105 0.03668 0.53793 0.0
C429 C 0.06425 -0.02592 0.68282 0.0
O430 O 0.00161 0.93918 0.49536 0.0
C431 C 0.09651 0.06344 0.57508 0.0
O432 O -0.00066 -0.00338 0.47447 0.0
O433 O 0.0639 0.06769 0.5639 0.0
C434 C 0.71691 0.33119 0.03517 0.0
O435 O 0.7462 0.33095 0.07783 0.0
Cd436 Cd 0.75519 0.31379 0.24642 0.0
O437 O 0.68924 0.32483 0.08288 0.0
Cd438 Cd 0.67575 0.31141 0.25543 0.0
C439 C 0.71474 0.23506 0.2333 0.0
O440 O 0.71718 0.3372 0.36796 0.0
O441 O 0.69169 0.28841 0.407 0.0
O442 O 0.64599 0.36177 0.28893 0.0
C443 C 0.70833 0.31522 0.43348 0.0
O444 O 0.74277 0.25205 0.24582 0.0
C445 C 0.61911 0.34782 0.32546 0.0
O446 O 0.68541 0.25024 0.22502 0.0
O447 O 0.61476 0.31518 0.31393 0.0
loop_
_geom_bond_atom_site_label_1
_geom_bond_atom_site_label_2
_geom_bond_distance
_geom_bond_site_symmetry_2
_ccdc_geom_bond_type
C0 O1 1.306 . S
C0 O3 1.160 . S
O1 C0 1.306 . S
O1 Cd2 2.228 1_556 S
Cd2 O1 2.228 1_554 S
Cd2 O6 2.273 . S
Cd2 O10 2.277 . S
O3 C0 1.160 . S
O3 Cd4 2.203 1_556 S
Cd4 O3 2.203 1_554 S
Cd4 O6 2.411 . S
Cd4 O7 2.333 . S
Cd4 O8 2.352 . S
Cd4 O12 2.277 . S
Cd4 O13 2.356 . S
C5 O10 1.209 . S
C5 O12 1.226 . S
O6 Cd2 2.273 . S
O6 Cd4 2.411 . S
O6 C9 1.320 . S
O7 Cd4 2.333 . S
O7 C9 1.214 . S
O8 Cd4 2.352 . S
O8 C11 1.258 . S
C9 O6 1.320 . S
C9 O7 1.214 . S
O10 Cd2 2.277 . S
O10 C5 1.209 . S
C11 O8 1.258 . S
C11 O13 1.282 . S
O12 Cd4 2.277 . S
O12 C5 1.226 . S
O13 Cd4 2.356 . S
O13 C11 1.282 . S
C14 O15 1.306 . S
C14 O17 1.160 . S
O15 C14 1.306 . S
O15 Cd16 2.228 . S
Cd16 O15 2.228 . S
Cd16 O20 2.273 . S
Cd16 O24 2.277 . S
O17 C14 1.160 . S
O17 Cd18 2.203 . S
Cd18 O17 2.203 . S
Cd18 O20 2.411 . S
Cd18 O21 2.333 . S
Cd18 O22 2.352 . S
Cd18 O26 2.277 . S
Cd18 O27 2.356 . S
C19 O24 1.209 . S
C19 O26 1.226 . S
O20 Cd16 2.273 . S
O20 Cd18 2.411 . S
O20 C23 1.320 . S
O21 Cd18 2.333 . S
O21 C23 1.214 . S
O22 Cd18 2.352 . S
O22 C25 1.258 . S
C23 O20 1.320 . S
C23 O21 1.214 . S
O24 Cd16 2.277 . S
O24 C19 1.209 . S
C25 O22 1.258 . S
C25 O27 1.282 . S
O26 Cd18 2.277 . S
O26 C19 1.226 . S
O27 Cd18 2.356 . S
O27 C25 1.282 . S
C28 O29 1.306 . S
C28 O31 1.160 . S
O29 C28 1.306 . S
O29 Cd30 2.228 . S
Cd30 O29 2.228 . S
Cd30 O34 2.273 . S
Cd30 O38 2.277 . S
O31 C28 1.160 . S
O31 Cd32 2.203 . S
Cd32 O31 2.203 . S
Cd32 O34 2.411 . S
Cd32 O35 2.333 . S
Cd32 O36 2.352 . S
Cd32 O40 2.277 . S
Cd32 O41 2.356 . S
C33 O38 1.209 . S
C33 O40 1.226 . S
O34 Cd30 2.273 . S
O34 Cd32 2.411 . S
O34 C37 1.320 . S
O35 Cd32 2.333 . S
O35 C37 1.214 . S
O36 Cd32 2.352 . S
O36 C39 1.258 . S
C37 O34 1.320 . S
C37 O35 1.214 . S
O38 Cd30 2.277 . S
O38 C33 1.209 . S
C39 O36 1.258 . S
C39 O41 1.282 . S
O40 Cd32 2.277 . S
O40 C33 1.226 . S
O41 Cd32 2.356 . S
O41 C39 1.282 . S
C42 O43 1.306 . S
C42 O45 1.160 . S
O43 C42 1.306 . S
O43 Cd44 2.228 . S
Cd44 O43 2.228 . S
Cd44 O48 2.273 . S
Cd44 O52 2.277 . S
O45 C42 1.160 . S
O45 Cd46 2.203 . S
Cd46 O45 2.203 . S
Cd46 O48 2.411 . S
Cd46 O49 2.333 1_556 S
Cd46 O50 2.352 . S
Cd46 O54 2.277 . S
Cd46 O55 2.356 . S
C47 O52 1.209 . S
C47 O54 1.226 . S
O48 Cd44 2.273 . S
O48 Cd46 2.411 . S
O48 C51 1.320 1_556 S
O49 Cd46 2.333 1_554 S
O49 C51 1.214 . S
O50 Cd46 2.352 . S
O50 C53 1.258 . S
C51 O48 1.320 1_554 S
C51 O49 1.214 . S
O52 Cd44 2.277 . S
O52 C47 1.209 . S
C53 O50 1.258 . S
C53 O55 1.282 . S
O54 Cd46 2.277 . S
O54 C47 1.226 . S
O55 Cd46 2.356 . S
O55 C53 1.282 . S
C56 O57 1.306 . S
C56 O59 1.160 . S
O57 C56 1.306 . S
O57 Cd58 2.228 . S
Cd58 O57 2.228 . S
Cd58 O62 2.273 . S
Cd58 O66 2.277 . S
O59 C56 1.160 . S
O59 Cd60 2.203 . S
Cd60 O59 2.203 . S
Cd60 O62 2.411 . S
Cd60 O63 2.333 . S
Cd60 O64 2.352 . S
Cd60 O68 2.277 . S
Cd60 O69 2.356 . S
C61 O66 1.209 . S
C61 O68 1.226 . S
O62 Cd58 2.273 . S
O62 Cd60 2.411 . S
O62 C65 1.320 . S
O63 Cd60 2.333 . S
O63 C65 1.214 . S
O64 Cd60 2.352 . S
O64 C67 1.258 . S
C65 O62 1.320 . S
C65 O63 1.214 . S
O66 Cd58 2.277 . S
O66 C61 1.209 . S
C67 O64 1.258 . S
C67 O69 1.282 . S
O68 Cd60 2.277 . S
O68 C61 1.226 . S
O69 Cd60 2.356 . S
O69 C67 1.282 . S
C70 O71 1.306 . S
C70 O73 1.160 . S
O71 C70 1.306 . S
O71 Cd72 2.228 . S
Cd72 O71 2.228 . S
Cd72 O76 2.273 . S
Cd72 O80 2.277 . S
O73 C70 1.160 . S
O73 Cd74 2.203 . S
Cd74 O73 2.203 . S
Cd74 O76 2.411 . S
Cd74 O77 2.333 . S
Cd74 O78 2.352 . S
Cd74 O82 2.277 . S
Cd74 O83 2.356 . S
C75 O80 1.209 . S
C75 O82 1.226 . S
O76 Cd72 2.273 . S
O76 Cd74 2.411 . S
O76 C79 1.320 . S
O77 Cd74 2.333 . S
O77 C79 1.214 . S
O78 Cd74 2.352 . S
O78 C81 1.258 . S
C79 O76 1.320 . S
C79 O77 1.214 . S
O80 Cd72 2.277 . S
O80 C75 1.209 . S
C81 O78 1.258 . S
C81 O83 1.282 . S
O82 Cd74 2.277 . S
O82 C75 1.226 . S
O83 Cd74 2.356 . S
O83 C81 1.282 . S
C84 O85 1.306 . S
C84 O87 1.160 . S
O85 C84 1.306 . S
O85 Cd86 2.228 . S
Cd86 O85 2.228 . S
Cd86 O90 2.273 1_554 S
Cd86 O94 2.277 . S
O87 C84 1.160 . S
O87 Cd88 2.203 . S
Cd88 O87 2.203 . S
Cd88 O90 2.411 1_554 S
Cd88 O91 2.333 1_554 S
Cd88 O92 2.352 . S
Cd88 O96 2.277 . S
Cd88 O97 2.356 1_554 S
C89 O94 1.209 . S
C89 O96 1.226 . S
O90 Cd86 2.273 1_556 S
O90 Cd88 2.411 1_556 S
O90 C93 1.320 . S
O91 Cd88 2.333 1_556 S
O91 C93 1.214 . S
O92 Cd88 2.352 . S
O92 C95 1.258 1_554 S
C93 O90 1.320 . S
C93 O91 1.214 . S
O94 Cd86 2.277 . S
O94 C89 1.209 . S
C95 O92 1.258 1_556 S
C95 O97 1.282 . S
O96 Cd88 2.277 . S
O96 C89 1.226 . S
O97 Cd88 2.356 1_556 S
O97 C95 1.282 . S
C98 O99 1.306 . S
C98 O101 1.160 . S
O99 C98 1.306 . S
O99 Cd100 2.228 . S
Cd100 O99 2.228 . S
Cd100 O104 2.273 . S
Cd100 O108 2.277 . S
O101 C98 1.160 . S
O101 Cd102 2.203 . S
Cd102 O101 2.203 . S
Cd102 O104 2.411 . S
Cd102 O105 2.333 . S
Cd102 O106 2.352 . S
Cd102 O110 2.277 . S
Cd102 O111 2.356 . S
C103 O108 1.209 . S
C103 O110 1.226 . S
O104 Cd100 2.273 . S
O104 Cd102 2.411 . S
O104 C107 1.320 . S
O105 Cd102 2.333 . S
O105 C107 1.214 . S
O106 Cd102 2.352 . S
O106 C109 1.258 . S
C107 O104 1.320 . S
C107 O105 1.214 . S
O108 Cd100 2.277 . S
O108 C103 1.209 . S
C109 O106 1.258 . S
C109 O111 1.282 . S
O110 Cd102 2.277 . S
O110 C103 1.226 . S
O111 Cd102 2.356 . S
O111 C109 1.282 . S
C112 O113 1.306 . S
C112 O115 1.160 . S
O113 C112 1.306 . S
O113 Cd114 2.228 . S
Cd114 O113 2.228 . S
Cd114 O118 2.273 1_554 S
Cd114 O122 2.277 . S
O115 C112 1.160 . S
O115 Cd116 2.203 . S
Cd116 O115 2.203 . S
Cd116 O118 2.411 1_554 S
Cd116 O119 2.333 1_554 S
Cd116 O120 2.352 . S
Cd116 O124 2.277 . S
Cd116 O125 2.356 1_554 S
C117 O122 1.209 . S
C117 O124 1.226 . S
O118 Cd114 2.273 1_556 S
O118 Cd116 2.411 1_556 S
O118 C121 1.320 . S
O119 Cd116 2.333 1_556 S
O119 C121 1.214 . S
O120 Cd116 2.352 . S
O120 C123 1.258 1_554 S
C121 O118 1.320 . S
C121 O119 1.214 . S
O122 Cd114 2.277 . S
O122 C117 1.209 . S
C123 O120 1.258 1_556 S
C123 O125 1.282 . S
O124 Cd116 2.277 . S
O124 C117 1.226 . S
O125 Cd116 2.356 1_556 S
O125 C123 1.282 . S
C126 O127 1.306 . S
C126 O129 1.160 . S
O127 C126 1.306 . S
O127 Cd128 2.228 . S
Cd128 O127 2.228 . S
Cd128 O132 2.273 . S
Cd128 O136 2.277 . S
O129 C126 1.160 . S
O129 Cd130 2.203 . S
Cd130 O129 2.203 . S
Cd130 O132 2.411 . S
Cd130 O133 2.333 . S
Cd130 O134 2.352 . S
Cd130 O138 2.277 . S
Cd130 O139 2.356 . S
C131 O136 1.209 . S
C131 O138 1.226 . S
O132 Cd128 2.273 . S
O132 Cd130 2.411 . S
O132 C135 1.320 . S
O133 Cd130 2.333 . S
O133 C135 1.214 . S
O134 Cd130 2.352 . S
O134 C137 1.258 . S
C135 O132 1.320 . S
C135 O133 1.214 . S
O136 Cd128 2.277 . S
O136 C131 1.209 . S
C137 O134 1.258 . S
C137 O139 1.282 . S
O138 Cd130 2.277 . S
O138 C131 1.226 . S
O139 Cd130 2.356 . S
O139 C137 1.282 . S
C140 O141 1.306 . S
C140 O143 1.160 . S
O141 C140 1.306 . S
O141 Cd142 2.228 . S
Cd142 O141 2.228 . S
Cd142 O146 2.273 . S
Cd142 O150 2.277 . S
O143 C140 1.160 . S
O143 Cd144 2.203 . S
Cd144 O143 2.203 . S
Cd144 O146 2.411 . S
Cd144 O147 2.333 . S
Cd144 O148 2.352 . S
Cd144 O152 2.277 . S
Cd144 O153 2.356 . S
C145 O150 1.209 . S
C145 O152 1.226 . S
O146 Cd142 2.273 . S
O146 Cd144 2.411 . S
O146 C149 1.320 . S
O147 Cd144 2.333 . S
O147 C149 1.214 . S
O148 Cd144 2.352 . S
O148 C151 1.258 . S
C149 O146 1.320 . S
C149 O147 1.214 . S
O150 Cd142 2.277 . S
O150 C145 1.209 . S
C151 O148 1.258 . S
C151 O153 1.282 . S
O152 Cd144 2.277 . S
O152 C145 1.226 . S
O153 Cd144 2.356 . S
O153 C151 1.282 . S
C154 O155 1.306 . S
C154 O157 1.160 . S
O155 C154 1.306 . S
O155 Cd156 2.228 . S
Cd156 O155 2.228 . S
Cd156 O160 2.273 . S
Cd156 O164 2.277 . S
O157 C154 1.160 . S
O157 Cd158 2.203 . S
Cd158 O157 2.203 . S
Cd158 O160 2.411 . S
Cd158 O161 2.333 . S
Cd158 O162 2.352 . S
Cd158 O166 2.277 . S
Cd158 O167 2.356 . S
C159 O164 1.209 . S
C159 O166 1.226 . S
O160 Cd156 2.273 . S
O160 Cd158 2.411 . S
O160 C163 1.320 . S
O161 Cd158 2.333 . S
O161 C163 1.214 . S
O162 Cd158 2.352 . S
O162 C165 1.258 . S
C163 O160 1.320 . S
C163 O161 1.214 . S
O164 Cd156 2.277 . S
O164 C159 1.209 . S
C165 O162 1.258 . S
C165 O167 1.282 . S
O166 Cd158 2.277 . S
O166 C159 1.226 . S
O167 Cd158 2.356 . S
O167 C165 1.282 . S
C168 O169 1.306 . S
C168 O171 1.160 . S
O169 C168 1.306 . S
O169 Cd170 2.228 . S
Cd170 O169 2.228 . S
Cd170 O174 2.273 . S
Cd170 O178 2.277 . S
O171 C168 1.160 . S
O171 Cd172 2.203 . S
Cd172 O171 2.203 . S
Cd172 O174 2.411 . S
Cd172 O175 2.333 . S
Cd172 O176 2.352 . S
Cd172 O180 2.277 . S
Cd172 O181 2.356 . S
C173 O178 1.209 . S
C173 O180 1.226 . S
O174 Cd170 2.273 . S
O174 Cd172 2.411 . S
O174 C177 1.320 . S
O175 Cd172 2.333 . S
O175 C177 1.214 . S
O176 Cd172 2.352 . S
O176 C179 1.258 . S
C177 O174 1.320 . S
C177 O175 1.214 . S
O178 Cd170 2.277 . S
O178 C173 1.209 . S
C179 O176 1.258 . S
C179 O181 1.282 . S
O180 Cd172 2.277 . S
O180 C173 1.226 . S
O181 Cd172 2.356 . S
O181 C179 1.282 . S
C182 O183 1.306 . S
C182 O185 1.160 . S
O183 C182 1.306 . S
O183 Cd184 2.228 . S
Cd184 O183 2.228 . S
Cd184 O188 2.273 . S
Cd184 O192 2.277 . S
O185 C182 1.160 . S
O185 Cd186 2.203 . S
Cd186 O185 2.203 . S
Cd186 O188 2.411 . S
Cd186 O189 2.333 . S
Cd186 O190 2.352 . S
Cd186 O194 2.277 . S
Cd186 O195 2.356 . S
C187 O192 1.209 . S
C187 O194 1.226 . S
O188 Cd184 2.273 . S
O188 Cd186 2.411 . S
O188 C191 1.320 . S
O189 Cd186 2.333 . S
O189 C191 1.214 . S
O190 Cd186 2.352 . S
O190 C193 1.258 . S
C191 O188 1.320 . S
C191 O189 1.214 . S
O192 Cd184 2.277 . S
O192 C187 1.209 . S
C193 O190 1.258 . S
C193 O195 1.282 . S
O194 Cd186 2.277 . S
O194 C187 1.226 . S
O195 Cd186 2.356 . S
O195 C193 1.282 . S
C196 O197 1.306 . S
C196 O199 1.160 . S
O197 C196 1.306 . S
O197 Cd198 2.228 1_556 S
Cd198 O197 2.228 1_554 S
Cd198 O202 2.273 . S
Cd198 O206 2.277 . S
O199 C196 1.160 . S
O199 Cd200 2.203 1_556 S
Cd200 O199 2.203 1_554 S
Cd200 O202 2.411 . S
Cd200 O203 2.333 . S
Cd200 O204 2.352 . S
Cd200 O208 2.277 . S
Cd200 O209 2.356 . S
C201 O206 1.209 . S
C201 O208 1.226 . S
O202 Cd198 2.273 . S
O202 Cd200 2.411 . S
O202 C205 1.320 . S
O203 Cd200 2.333 . S
O203 C205 1.214 . S
O204 Cd200 2.352 . S
O204 C207 1.258 . S
C205 O202 1.320 . S
C205 O203 1.214 . S
O206 Cd198 2.277 . S
O206 C201 1.209 . S
C207 O204 1.258 . S
C207 O209 1.282 . S
O208 Cd200 2.277 . S
O208 C201 1.226 . S
O209 Cd200 2.356 . S
O209 C207 1.282 . S
C210 O211 1.306 . S
C210 O213 1.160 . S
O211 C210 1.306 . S
O211 Cd212 2.228 . S
Cd212 O211 2.228 . S
Cd212 O216 2.273 . S
Cd212 O220 2.277 . S
O213 C210 1.160 . S
O213 Cd214 2.203 . S
Cd214 O213 2.203 . S
Cd214 O216 2.411 . S
Cd214 O217 2.333 1_556 S
Cd214 O218 2.352 . S
Cd214 O222 2.277 . S
Cd214 O223 2.356 . S
C215 O220 1.209 . S
C215 O222 1.226 . S
O216 Cd212 2.273 . S
O216 Cd214 2.411 . S
O216 C219 1.320 1_556 S
O217 Cd214 2.333 1_554 S
O217 C219 1.214 . S
O218 Cd214 2.352 . S
O218 C221 1.258 . S
C219 O216 1.320 1_554 S
C219 O217 1.214 . S
O220 Cd212 2.277 . S
O220 C215 1.209 . S
C221 O218 1.258 . S
C221 O223 1.282 . S
O222 Cd214 2.277 . S
O222 C215 1.226 . S
O223 Cd214 2.356 . S
O223 C221 1.282 . S
C224 O225 1.306 . S
C224 O227 1.160 1_545 S
O225 C224 1.306 . S
O225 Cd226 2.228 . S
Cd226 O225 2.228 . S
Cd226 O230 2.273 . S
Cd226 O234 2.277 . S
O227 C224 1.160 1_565 S
O227 Cd228 2.203 . S
Cd228 O227 2.203 . S
Cd228 O230 2.411 1_565 S
Cd228 O231 2.333 . S
Cd228 O232 2.352 . S
Cd228 O236 2.277 . S
Cd228 O237 2.356 . S
C229 O234 1.209 1_565 S
C229 O236 1.226 . S
O230 Cd226 2.273 . S
O230 Cd228 2.411 1_545 S
O230 C233 1.320 . S
O231 Cd228 2.333 . S
O231 C233 1.214 1_565 S
O232 Cd228 2.352 . S
O232 C235 1.258 . S
C233 O230 1.320 . S
C233 O231 1.214 1_545 S
O234 Cd226 2.277 . S
O234 C229 1.209 1_545 S
C235 O232 1.258 . S
C235 O237 1.282 . S
O236 Cd228 2.277 . S
O236 C229 1.226 . S
O237 Cd228 2.356 . S
O237 C235 1.282 . S
C238 O239 1.306 . S
C238 O241 1.160 . S
O239 C238 1.306 . S
O239 Cd240 2.228 . S
Cd240 O239 2.228 . S
Cd240 O244 2.273 . S
Cd240 O248 2.277 . S
O241 C238 1.160 . S
O241 Cd242 2.203 . S
Cd242 O241 2.203 . S
Cd242 O244 2.411 . S
Cd242 O245 2.333 1_556 S
Cd242 O246 2.352 . S
Cd242 O250 2.277 . S
Cd242 O251 2.356 . S
C243 O248 1.209 . S
C243 O250 1.226 . S
O244 Cd240 2.273 . S
O244 Cd242 2.411 . S
O244 C247 1.320 1_556 S
O245 Cd242 2.333 1_554 S
O245 C247 1.214 . S
O246 Cd242 2.352 . S
O246 C249 1.258 . S
C247 O244 1.320 1_554 S
C247 O245 1.214 . S
O248 Cd240 2.277 . S
O248 C243 1.209 . S
C249 O246 1.258 . S
C249 O251 1.282 . S
O250 Cd242 2.277 . S
O250 C243 1.226 . S
O251 Cd242 2.356 . S
O251 C249 1.282 . S
C252 O253 1.306 . S
C252 O255 1.160 1_565 S
O253 C252 1.306 . S
O253 Cd254 2.228 1_556 S
Cd254 O253 2.228 1_554 S
Cd254 O258 2.273 . S
Cd254 O262 2.277 . S
O255 C252 1.160 1_545 S
O255 Cd256 2.203 1_556 S
Cd256 O255 2.203 1_554 S
Cd256 O258 2.411 1_545 S
Cd256 O259 2.333 . S
Cd256 O260 2.352 . S
Cd256 O264 2.277 . S
Cd256 O265 2.356 . S
C257 O262 1.209 1_545 S
C257 O264 1.226 . S
O258 Cd254 2.273 . S
O258 Cd256 2.411 1_565 S
O258 C261 1.320 . S
O259 Cd256 2.333 . S
O259 C261 1.214 1_545 S
O260 Cd256 2.352 . S
O260 C263 1.258 . S
C261 O258 1.320 . S
C261 O259 1.214 1_565 S
O262 Cd254 2.277 . S
O262 C257 1.209 1_565 S
C263 O260 1.258 . S
C263 O265 1.282 . S
O264 Cd256 2.277 . S
O264 C257 1.226 . S
O265 Cd256 2.356 . S
O265 C263 1.282 . S
C266 O267 1.306 . S
C266 O269 1.160 . S
O267 C266 1.306 . S
O267 Cd268 2.228 . S
Cd268 O267 2.228 . S
Cd268 O272 2.273 . S
Cd268 O276 2.277 . S
O269 C266 1.160 . S
O269 Cd270 2.203 . S
Cd270 O269 2.203 . S
Cd270 O272 2.411 . S
Cd270 O273 2.333 . S
Cd270 O274 2.352 . S
Cd270 O278 2.277 . S
Cd270 O279 2.356 . S
C271 O276 1.209 . S
C271 O278 1.226 . S
O272 Cd268 2.273 . S
O272 Cd270 2.411 . S
O272 C275 1.320 . S
O273 Cd270 2.333 . S
O273 C275 1.214 . S
O274 Cd270 2.352 . S
O274 C277 1.258 . S
C275 O272 1.320 . S
C275 O273 1.214 . S
O276 Cd268 2.277 . S
O276 C271 1.209 . S
C277 O274 1.258 . S
C277 O279 1.282 . S
O278 Cd270 2.277 . S
O278 C271 1.226 . S
O279 Cd270 2.356 . S
O279 C277 1.282 . S
C280 O281 1.306 . S
C280 O283 1.160 1_565 S
O281 C280 1.306 . S
O281 Cd282 2.228 . S
Cd282 O281 2.228 . S
Cd282 O286 2.273 1_554 S
Cd282 O290 2.277 . S
O283 C280 1.160 1_545 S
O283 Cd284 2.203 . S
Cd284 O283 2.203 . S
Cd284 O286 2.411 1_544 S
Cd284 O287 2.333 1_554 S
Cd284 O288 2.352 . S
Cd284 O292 2.277 . S
Cd284 O293 2.356 1_554 S
C285 O290 1.209 1_545 S
C285 O292 1.226 . S
O286 Cd282 2.273 1_556 S
O286 Cd284 2.411 1_566 S
O286 C289 1.320 . S
O287 Cd284 2.333 1_556 S
O287 C289 1.214 1_545 S
O288 Cd284 2.352 . S
O288 C291 1.258 1_554 S
C289 O286 1.320 . S
C289 O287 1.214 1_565 S
O290 Cd282 2.277 . S
O290 C285 1.209 1_565 S
C291 O288 1.258 1_556 S
C291 O293 1.282 . S
O292 Cd284 2.277 . S
O292 C285 1.226 . S
O293 Cd284 2.356 1_556 S
O293 C291 1.282 . S
C294 O295 1.306 . S
C294 O297 1.160 . S
O295 C294 1.306 . S
O295 Cd296 2.228 . S
Cd296 O295 2.228 . S
Cd296 O300 2.273 . S
Cd296 O304 2.277 . S
O297 C294 1.160 . S
O297 Cd298 2.203 . S
Cd298 O297 2.203 . S
Cd298 O300 2.411 . S
Cd298 O301 2.333 . S
Cd298 O302 2.352 . S
Cd298 O306 2.277 . S
Cd298 O307 2.356 . S
C299 O304 1.209 . S
C299 O306 1.226 . S
O300 Cd296 2.273 . S
O300 Cd298 2.411 . S
O300 C303 1.320 . S
O301 Cd298 2.333 . S
O301 C303 1.214 . S
O302 Cd298 2.352 . S
O302 C305 1.258 . S
C303 O300 1.320 . S
C303 O301 1.214 . S
O304 Cd296 2.277 . S
O304 C299 1.209 . S
C305 O302 1.258 . S
C305 O307 1.282 . S
O306 Cd298 2.277 . S
O306 C299 1.226 . S
O307 Cd298 2.356 . S
O307 C305 1.282 . S
C308 O309 1.306 . S
C308 O311 1.160 1_545 S
O309 C308 1.306 . S
O309 Cd310 2.228 . S
Cd310 O309 2.228 . S
Cd310 O314 2.273 . S
Cd310 O318 2.277 . S
O311 C308 1.160 1_565 S
O311 Cd312 2.203 . S
Cd312 O311 2.203 . S
Cd312 O314 2.411 1_565 S
Cd312 O315 2.333 . S
Cd312 O316 2.352 . S
Cd312 O320 2.277 . S
Cd312 O321 2.356 . S
C313 O318 1.209 1_565 S
C313 O320 1.226 . S
O314 Cd310 2.273 . S
O314 Cd312 2.411 1_545 S
O314 C317 1.320 . S
O315 Cd312 2.333 . S
O315 C317 1.214 1_565 S
O316 Cd312 2.352 . S
O316 C319 1.258 . S
C317 O314 1.320 . S
C317 O315 1.214 1_545 S
O318 Cd310 2.277 . S
O318 C313 1.209 1_545 S
C319 O316 1.258 . S
C319 O321 1.282 . S
O320 Cd312 2.277 . S
O320 C313 1.226 . S
O321 Cd312 2.356 . S
O321 C319 1.282 . S
C322 O323 1.306 . S
C322 O325 1.160 . S
O323 C322 1.306 . S
O323 Cd324 2.228 . S
Cd324 O323 2.228 . S
Cd324 O328 2.273 . S
Cd324 O332 2.277 . S
O325 C322 1.160 . S
O325 Cd326 2.203 . S
Cd326 O325 2.203 . S
Cd326 O328 2.411 . S
Cd326 O329 2.333 . S
Cd326 O330 2.352 . S
Cd326 O334 2.277 . S
Cd326 O335 2.356 . S
C327 O332 1.209 . S
C327 O334 1.226 . S
O328 Cd324 2.273 . S
O328 Cd326 2.411 . S
O328 C331 1.320 . S
O329 Cd326 2.333 . S
O329 C331 1.214 . S
O330 Cd326 2.352 . S
O330 C333 1.258 . S
C331 O328 1.320 . S
C331 O329 1.214 . S
O332 Cd324 2.277 . S
O332 C327 1.209 . S
C333 O330 1.258 . S
C333 O335 1.282 . S
O334 Cd326 2.277 . S
O334 C327 1.226 . S
O335 Cd326 2.356 . S
O335 C333 1.282 . S
C336 O337 1.306 . S
C336 O339 1.160 1_565 S
O337 C336 1.306 . S
O337 Cd338 2.228 . S
Cd338 O337 2.228 . S
Cd338 O342 2.273 . S
Cd338 O346 2.277 . S
O339 C336 1.160 1_545 S
O339 Cd340 2.203 . S
Cd340 O339 2.203 . S
Cd340 O342 2.411 1_545 S
Cd340 O343 2.333 . S
Cd340 O344 2.352 . S
Cd340 O348 2.277 . S
Cd340 O349 2.356 . S
C341 O346 1.209 1_545 S
C341 O348 1.226 . S
O342 Cd338 2.273 . S
O342 Cd340 2.411 1_565 S
O342 C345 1.320 . S
O343 Cd340 2.333 . S
O343 C345 1.214 1_545 S
O344 Cd340 2.352 . S
O344 C347 1.258 . S
C345 O342 1.320 . S
C345 O343 1.214 1_565 S
O346 Cd338 2.277 . S
O346 C341 1.209 1_565 S
C347 O344 1.258 . S
C347 O349 1.282 . S
O348 Cd340 2.277 . S
O348 C341 1.226 . S
O349 Cd340 2.356 . S
O349 C347 1.282 . S
C350 O351 1.306 . S
C350 O353 1.160 . S
O351 C350 1.306 . S
O351 Cd352 2.228 . S
Cd352 O351 2.228 . S
Cd352 O356 2.273 . S
Cd352 O360 2.277 . S
O353 C350 1.160 . S
O353 Cd354 2.203 . S
Cd354 O353 2.203 . S
Cd354 O356 2.411 . S
Cd354 O357 2.333 . S
Cd354 O358 2.352 . S
Cd354 O362 2.277 . S
Cd354 O363 2.356 . S
C355 O360 1.209 . S
C355 O362 1.226 . S
O356 Cd352 2.273 . S
O356 Cd354 2.411 . S
O356 C359 1.320 . S
O357 Cd354 2.333 . S
O357 C359 1.214 . S
O358 Cd354 2.352 . S
O358 C361 1.258 . S
C359 O356 1.320 . S
C359 O357 1.214 . S
O360 Cd352 2.277 . S
O360 C355 1.209 . S
C361 O358 1.258 . S
C361 O363 1.282 . S
O362 Cd354 2.277 . S
O362 C355 1.226 . S
O363 Cd354 2.356 . S
O363 C361 1.282 . S
C364 O365 1.306 . S
C364 O367 1.160 1_545 S
O365 C364 1.306 . S
O365 Cd366 2.228 . S
Cd366 O365 2.228 . S
Cd366 O370 2.273 1_554 S
Cd366 O374 2.277 . S
O367 C364 1.160 1_565 S
O367 Cd368 2.203 . S
Cd368 O367 2.203 . S
Cd368 O370 2.411 1_564 S
Cd368 O371 2.333 1_554 S
Cd368 O372 2.352 . S
Cd368 O376 2.277 . S
Cd368 O377 2.356 1_554 S
C369 O374 1.209 1_565 S
C369 O376 1.226 . S
O370 Cd366 2.273 1_556 S
O370 Cd368 2.411 1_546 S
O370 C373 1.320 . S
O371 Cd368 2.333 1_556 S
O371 C373 1.214 1_565 S
O372 Cd368 2.352 . S
O372 C375 1.258 1_554 S
C373 O370 1.320 . S
C373 O371 1.214 1_545 S
O374 Cd366 2.277 . S
O374 C369 1.209 1_545 S
C375 O372 1.258 1_556 S
C375 O377 1.282 . S
O376 Cd368 2.277 . S
O376 C369 1.226 . S
O377 Cd368 2.356 1_556 S
O377 C375 1.282 . S
C378 O379 1.306 . S
C378 O381 1.160 . S
O379 C378 1.306 . S
O379 Cd380 2.228 . S
Cd380 O379 2.228 . S
Cd380 O384 2.273 . S
Cd380 O388 2.277 . S
O381 C378 1.160 . S
O381 Cd382 2.203 . S
Cd382 O381 2.203 . S
Cd382 O384 2.411 . S
Cd382 O385 2.333 . S
Cd382 O386 2.352 . S
Cd382 O390 2.277 . S
Cd382 O391 2.356 . S
C383 O388 1.209 . S
C383 O390 1.226 . S
O384 Cd380 2.273 . S
O384 Cd382 2.411 . S
O384 C387 1.320 . S
O385 Cd382 2.333 . S
O385 C387 1.214 . S
O386 Cd382 2.352 . S
O386 C389 1.258 . S
C387 O384 1.320 . S
C387 O385 1.214 . S
O388 Cd380 2.277 . S
O388 C383 1.209 . S
C389 O386 1.258 . S
C389 O391 1.282 . S
O390 Cd382 2.277 . S
O390 C383 1.226 . S
O391 Cd382 2.356 . S
O391 C389 1.282 . S
C392 O393 1.306 . S
C392 O395 1.160 1_545 S
O393 C392 1.306 . S
O393 Cd394 2.228 1_556 S
Cd394 O393 2.228 1_554 S
Cd394 O398 2.273 . S
Cd394 O402 2.277 . S
O395 C392 1.160 1_565 S
O395 Cd396 2.203 1_556 S
Cd396 O395 2.203 1_554 S
Cd396 O398 2.411 1_565 S
Cd396 O399 2.333 . S
Cd396 O400 2.352 . S
Cd396 O404 2.277 . S
Cd396 O405 2.356 . S
C397 O402 1.209 1_565 S
C397 O404 1.226 . S
O398 Cd394 2.273 . S
O398 Cd396 2.411 1_545 S
O398 C401 1.320 . S
O399 Cd396 2.333 . S
O399 C401 1.214 1_565 S
O400 Cd396 2.352 . S
O400 C403 1.258 . S
C401 O398 1.320 . S
C401 O399 1.214 1_545 S
O402 Cd394 2.277 . S
O402 C397 1.209 1_545 S
C403 O400 1.258 . S
C403 O405 1.282 . S
O404 Cd396 2.277 . S
O404 C397 1.226 . S
O405 Cd396 2.356 . S
O405 C403 1.282 . S
C406 O407 1.306 . S
C406 O409 1.160 . S
O407 C406 1.306 . S
O407 Cd408 2.228 . S
Cd408 O407 2.228 . S
Cd408 O412 2.273 . S
Cd408 O416 2.277 . S
O409 C406 1.160 . S
O409 Cd410 2.203 . S
Cd410 O409 2.203 . S
Cd410 O412 2.411 . S
Cd410 O413 2.333 1_556 S
Cd410 O414 2.352 . S
Cd410 O418 2.277 . S
Cd410 O419 2.356 . S
C411 O416 1.209 . S
C411 O418 1.226 . S
O412 Cd408 2.273 . S
O412 Cd410 2.411 . S
O412 C415 1.320 1_556 S
O413 Cd410 2.333 1_554 S
O413 C415 1.214 . S
O414 Cd410 2.352 . S
O414 C417 1.258 . S
C415 O412 1.320 1_554 S
C415 O413 1.214 . S
O416 Cd408 2.277 . S
O416 C411 1.209 . S
C417 O414 1.258 . S
C417 O419 1.282 . S
O418 Cd410 2.277 . S
O418 C411 1.226 . S
O419 Cd410 2.356 . S
O419 C417 1.282 . S
C420 O421 1.306 . S
C420 O423 1.160 1_565 S
O421 C420 1.306 . S
O421 Cd422 2.228 . S
Cd422 O421 2.228 . S
Cd422 O426 2.273 . S
Cd422 O430 2.277 . S
O423 C420 1.160 1_545 S
O423 Cd424 2.203 . S
Cd424 O423 2.203 . S
Cd424 O426 2.411 1_545 S
Cd424 O427 2.333 . S
Cd424 O428 2.352 . S
Cd424 O432 2.277 . S
Cd424 O433 2.356 . S
C425 O430 1.209 1_545 S
C425 O432 1.226 . S
O426 Cd422 2.273 . S
O426 Cd424 2.411 1_565 S
O426 C429 1.320 . S
O427 Cd424 2.333 . S
O427 C429 1.214 1_545 S
O428 Cd424 2.352 . S
O428 C431 1.258 . S
C429 O426 1.320 . S
C429 O427 1.214 1_565 S
O430 Cd422 2.277 . S
O430 C425 1.209 1_565 S
C431 O428 1.258 . S
C431 O433 1.282 . S
O432 Cd424 2.277 . S
O432 C425 1.226 . S
O433 Cd424 2.356 . S
O433 C431 1.282 . S
C434 O435 1.306 . S
C434 O437 1.160 . S
O435 C434 1.306 . S
O435 Cd436 2.228 . S
Cd436 O435 2.228 . S
Cd436 O440 2.273 . S
Cd436 O444 2.277 . S
O437 C434 1.160 . S
O437 Cd438 2.203 . S
Cd438 O437 2.203 . S
Cd438 O440 2.411 . S
Cd438 O441 2.333 . S
Cd438 O442 2.352 . S
Cd438 O446 2.277 . S
Cd438 O447 2.356 . S
C439 O444 1.209 . S
C439 O446 1.226 . S
O440 Cd436 2.273 . S
O440 Cd438 2.411 . S
O440 C443 1.320 . S
O441 Cd438 2.333 . S
O441 C443 1.214 . S
O442 Cd438 2.352 . S
O442 C445 1.258 . S
C443 O440 1.320 . S
C443 O441 1.214 . S
O444 Cd436 2.277 . S
O444 C439 1.209 . S
C445 O442 1.258 . S
C445 O447 1.282 . S
O446 Cd438 2.277 . S
O446 C439 1.226 . S
O447 Cd438 2.356 . S
O447 C445 1.282 . S
C117 C5 1.624 1_655 S
C19 C355 1.623 . S
C33 C145 1.624 . S
C47 C383 1.623 . S
C61 C173 1.624 1_455 S
C411 C75 1.623 . S
C201 C89 1.624 . S
C439 C103 1.623 . S
C243 C131 1.623 . S
C159 C271 1.623 . S
C187 C299 1.623 . S
C327 C215 1.623 . S
C341 C229 1.624 1_545 S
C257 C369 1.624 1_645 S
C285 C397 1.624 1_545 S
C425 C313 1.624 1_445 S
C0 C56 1.521 . S
C70 C14 1.520 1_556 S
C84 C28 1.521 . S
C42 C98 1.520 . S
C112 C168 1.521 . S
C126 C182 1.520 1_556 S
C196 C140 1.521 . S
C210 C154 1.520 . S
C280 C224 1.521 1_565 S
C294 C238 1.521 . S
C252 C308 1.521 1_565 S
C322 C266 1.520 1_556 S
C392 C336 1.521 1_545 S
C350 C406 1.521 . S
C420 C364 1.521 1_565 S
C434 C378 1.520 1_554 S
C65 C9 1.140 . S
C79 C23 1.139 . S
C37 C93 1.140 . S
C107 C51 1.140 . S
C177 C121 1.140 . S
C135 C191 1.139 . S
C205 C149 1.140 . S
C219 C163 1.140 . S
C233 C289 1.140 1_545 S
C303 C247 1.139 . S
C317 C261 1.140 1_545 S
C331 C275 1.139 . S
C401 C345 1.140 1_545 S
C359 C415 1.139 . S
C373 C429 1.140 1_545 S
C387 C443 1.139 . S
C11 C305 1.833 . S
C319 C25 1.833 . S
C39 C333 1.833 . S
C53 C291 1.833 . S
C277 C67 1.833 . S
C235 C81 1.833 . S
C249 C95 1.833 . S
C109 C263 1.833 . S
C123 C417 1.833 . S
C431 C137 1.833 . S
C445 C151 1.833 . S
C403 C165 1.833 . S
C389 C179 1.833 . S
C347 C193 1.833 . S
C207 C361 1.833 . S
C221 C375 1.833 . S
