# Generated by pormake.
# Topology npo, (4)-cn, num edge types: 1
# Building blocks:
#     Node 0, Type 0, BuildingBlock: ICAMEG_clean_sbu_1, # of connection points: 4
#     Node 1, Type 0, BuildingBlock: ICAMEG_clean_sbu_1, # of connection points: 4
#     Node 2, Type 0, BuildingBlock: ICAMEG_clean_sbu_1, # of connection points: 4
#     Node 3, Type 0, BuildingBlock: ICAMEG_clean_sbu_1, # of connection points: 4
#     Node 4, Type 0, BuildingBlock: ICAMEG_clean_sbu_1, # of connection points: 4
#     Node 5, Type 0, BuildingBlock: ICAMEG_clean_sbu_1, # of connection points: 4
#     Edge 6, Type (0, 0), BuildingBlock: MIFKUJ_clean_linker_0, # of connection points: 2
#     Edge 7, Type (0, 0), BuildingBlock: MIFKUJ_clean_linker_0, # of connection points: 2
#     Edge 8, Type (0, 0), BuildingBlock: MIFKUJ_clean_linker_0, # of connection points: 2
#     Edge 9, Type (0, 0), BuildingBlock: MIFKUJ_clean_linker_0, # of connection points: 2
#     Edge 10, Type (0, 0), BuildingBlock: MIFKUJ_clean_linker_0, # of connection points: 2
#     Edge 11, Type (0, 0), BuildingBlock: MIFKUJ_clean_linker_0, # of connection points: 2
#     Edge 12, Type (0, 0), BuildingBlock: MIFKUJ_clean_linker_0, # of connection points: 2
#     Edge 13, Type (0, 0), BuildingBlock: MIFKUJ_clean_linker_0, # of connection points: 2
#     Edge 14, Type (0, 0), BuildingBlock: MIFKUJ_clean_linker_0, # of connection points: 2
#     Edge 15, Type (0, 0), BuildingBlock: MIFKUJ_clean_linker_0, # of connection points: 2
#     Edge 16, Type (0, 0), BuildingBlock: MIFKUJ_clean_linker_0, # of connection points: 2
#     Edge 17, Type (0, 0), BuildingBlock: MIFKUJ_clean_linker_0, # of connection points: 2
# Relax obj value: 0.245
# Max RMSD: 0.244
# Mean RMSD: 0.244
data_MOF--net-npo--node1-ICAMEG_clean_sbu_1--edge1-MIFKUJ_clean_linker_0
_symmetry_space_group_name_H-M    P1
_symmetry_Int_Tables_number       1
_symmetry_cell_setting            triclinic
loop_
_symmetry_equiv_pos_as_xyz
'x, y, z'
_cell_length_a     59.354148
_cell_length_b     59.365546
_cell_length_c     33.336004
_cell_angle_alpha  90.077325
_cell_angle_beta   90.070264
_cell_angle_gamma 120.1096
loop_
_atom_site_label
_atom_site_type_symbol
_atom_site_fract_x
_atom_site_fract_y
_atom_site_fract_z
_atom_type_partial_charge
Co0 Co 0.57353 0.12569 0.19976 0.0
Co1 Co 0.56175 0.11727 0.30192 0.0
O2 O 0.55902 0.10352 0.24729 0.0
C3 C 0.51826 0.08876 0.17403 0.0
O4 O 0.50942 0.08899 0.21001 0.0
C5 C 0.58352 0.09047 0.34916 0.0
O6 O 0.60349 0.1136 0.35709 0.0
O7 O 0.6004 0.14061 0.29626 0.0
O8 O 0.60537 0.15005 0.23042 0.0
H9 H 0.59229 0.1872 0.40747 0.0
H10 H 0.5554 0.0693 0.19625 0.0
O11 O 0.54251 0.10186 0.16658 0.0
H12 H 0.64713 0.11294 0.15298 0.0
H13 H 0.59412 0.14415 0.05266 0.0
H14 H 0.60119 0.18268 0.18649 0.0
H15 H 0.62633 0.13858 0.17088 0.0
H16 H 0.57656 0.11609 0.11226 0.0
O17 O 0.56629 0.08821 0.32394 0.0
H18 H 0.58879 0.16983 0.33909 0.0
H19 H 0.53884 0.09297 0.38117 0.0
H20 H 0.61918 0.21145 0.12774 0.0
H21 H 0.57531 0.04282 0.17834 0.0
H22 H 0.6157 0.1922 0.0602 0.0
H23 H 0.62147 0.06464 0.15645 0.0
O24 O 0.55671 0.14645 0.21463 0.0
H25 H 0.47687 0.03295 0.29081 0.0
H26 H 0.51835 0.12582 0.3276 0.0
H27 H 0.47066 0.09808 0.33243 0.0
H28 H 0.44961 0.05126 0.31412 0.0
H29 H 0.52448 0.06145 0.28588 0.0
H30 H 0.54154 0.10949 0.44982 0.0
H31 H 0.56859 0.15693 0.46348 0.0
O32 O 0.55693 0.14603 0.28188 0.0
C33 C 0.61418 0.15338 0.26612 0.0
C34 C 0.58057 0.16648 0.40198 0.0
C35 C 0.55213 0.12288 0.42578 0.0
N36 N 0.56389 0.1304 0.35613 0.0
C37 C 0.5786 0.15653 0.36333 0.0
C38 C 0.55067 0.11363 0.38679 0.0
C39 C 0.56726 0.14949 0.43338 0.0
C40 C 0.57553 0.07894 0.18686 0.0
N41 N 0.5898 0.1055 0.18504 0.0
C42 C 0.58668 0.06385 0.17673 0.0
C43 C 0.6126 0.0761 0.1645 0.0
C44 C 0.62701 0.10319 0.16262 0.0
C45 C 0.61522 0.11765 0.1731 0.0
C46 C 0.59578 0.15277 0.08193 0.0
C47 C 0.59973 0.17415 0.15725 0.0
C48 C 0.5858 0.13697 0.11578 0.0
N49 N 0.58795 0.14773 0.15288 0.0
C50 C 0.6099 0.19054 0.12407 0.0
C51 C 0.6079 0.17973 0.08619 0.0
C52 C 0.55377 0.15457 0.24861 0.0
C53 C 0.48582 0.0533 0.29903 0.0
C54 C 0.50935 0.1055 0.31933 0.0
C55 C 0.48233 0.08987 0.32227 0.0
C56 C 0.47054 0.0636 0.31203 0.0
N57 N 0.52424 0.09524 0.3067 0.0
C58 C 0.51279 0.06951 0.29649 0.0
Co59 Co 0.43765 0.55996 0.70361 0.0
Co60 Co 0.43983 0.56024 0.8066 0.0
O61 O 0.44978 0.55215 0.75419 0.0
C62 C 0.43807 0.5097 0.68381 0.0
O63 O 0.44469 0.50673 0.72016 0.0
C64 C 0.49477 0.56967 0.82157 0.0
O65 O 0.49792 0.56418 0.78457 0.0
O66 O 0.45465 0.59743 0.79063 0.0
O67 O 0.43959 0.59154 0.72778 0.0
H68 H 0.40096 0.60033 0.89546 0.0
H69 H 0.484 0.55292 0.70328 0.0
O70 O 0.43481 0.52878 0.67542 0.0
H71 H 0.51484 0.64041 0.64763 0.0
H72 H 0.43354 0.56847 0.55368 0.0
H73 H 0.3993 0.57654 0.6843 0.0
H74 H 0.46912 0.613 0.66836 0.0
H75 H 0.44948 0.55945 0.6165 0.0
O76 O 0.47397 0.56924 0.8321 0.0
H77 H 0.41337 0.58924 0.83104 0.0
H78 H 0.44561 0.5492 0.8924 0.0
H79 H 0.38299 0.58594 0.62223 0.0
H80 H 0.52974 0.5795 0.68246 0.0
H81 H 0.40012 0.58193 0.55629 0.0
H82 H 0.5455 0.62366 0.65442 0.0
O83 O 0.40075 0.53863 0.72124 0.0
H84 H 0.43862 0.47503 0.81869 0.0
H85 H 0.39017 0.52083 0.84507 0.0
H86 H 0.37079 0.4747 0.86391 0.0
H87 H 0.39512 0.45147 0.85094 0.0
H88 H 0.45719 0.52101 0.80032 0.0
H89 H 0.43376 0.56011 0.95745 0.0
H90 H 0.41115 0.58575 0.95928 0.0
O91 O 0.40509 0.55177 0.7851 0.0
C92 C 0.4492 0.60567 0.75884 0.0
C93 C 0.41074 0.58909 0.89505 0.0
C94 C 0.42918 0.56655 0.92984 0.0
N95 N 0.43007 0.56845 0.85786 0.0
C96 C 0.41778 0.5827 0.85865 0.0
C97 C 0.43591 0.5605 0.89289 0.0
C98 C 0.41649 0.58092 0.93085 0.0
C99 C 0.4905 0.57189 0.69065 0.0
N100 N 0.47368 0.58113 0.68658 0.0
C101 C 0.51653 0.58696 0.67911 0.0
C102 C 0.52538 0.61175 0.66346 0.0
C103 C 0.50819 0.62116 0.65966 0.0
C104 C 0.48231 0.60554 0.67153 0.0
C105 C 0.42595 0.57033 0.58223 0.0
C106 C 0.40695 0.57484 0.65577 0.0
C107 C 0.43485 0.56518 0.61793 0.0
N108 N 0.42544 0.56759 0.65414 0.0
C109 C 0.3976 0.58016 0.6207 0.0
C110 C 0.4072 0.57788 0.58371 0.0
C111 C 0.3912 0.54097 0.75417 0.0
C112 C 0.42791 0.48497 0.82482 0.0
C113 C 0.40093 0.51093 0.8393 0.0
C114 C 0.38984 0.48477 0.85009 0.0
C115 C 0.40348 0.47175 0.8428 0.0
N116 N 0.42508 0.52392 0.82209 0.0
C117 C 0.43845 0.51117 0.81467 0.0
Co118 Co 0.87938 0.44994 0.29246 0.0
Co119 Co 0.878 0.44949 0.18913 0.0
O120 O 0.89712 0.45711 0.24022 0.0
C121 C 0.91002 0.49905 0.33762 0.0
O122 O 0.88822 0.49953 0.34096 0.0
C123 C 0.92187 0.43822 0.17277 0.0
O124 O 0.93054 0.44363 0.20977 0.0
O125 O 0.85426 0.41268 0.20621 0.0
O126 O 0.84805 0.41833 0.27087 0.0
H127 H 0.79667 0.413 0.1052 0.0
H128 H 0.93294 0.45818 0.29042 0.0
O129 O 0.91057 0.48152 0.31603 0.0
H130 H 0.87796 0.36904 0.3419 0.0
H131 H 0.87344 0.44075 0.4431 0.0
H132 H 0.82594 0.43504 0.31854 0.0
H133 H 0.85868 0.39615 0.32487 0.0
H134 H 0.89546 0.44957 0.37757 0.0
O135 O 0.90144 0.43865 0.16231 0.0
H136 H 0.82187 0.42356 0.16816 0.0
H137 H 0.89263 0.45808 0.10225 0.0
H138 H 0.80318 0.42605 0.38342 0.0
H139 H 0.95308 0.43185 0.30766 0.0
H140 H 0.82696 0.42889 0.44633 0.0
H141 H 0.92551 0.3869 0.33349 0.0
O142 O 0.86333 0.47125 0.27718 0.0
H143 H 0.96421 0.53275 0.17533 0.0
H144 H 0.86999 0.48966 0.1484 0.0
H145 H 0.89822 0.53526 0.12812 0.0
H146 H 0.94579 0.55712 0.14127 0.0
H147 H 0.93526 0.48743 0.19571 0.0
H148 H 0.86813 0.44754 0.03868 0.0
H149 H 0.8198 0.42498 0.03991 0.0
O150 O 0.85391 0.46026 0.21243 0.0
C151 C 0.84166 0.40456 0.23903 0.0
C152 C 0.81772 0.42289 0.10433 0.0
C153 C 0.85783 0.44224 0.06697 0.0
N154 N 0.85872 0.44157 0.13898 0.0
C155 C 0.83212 0.429 0.13987 0.0
C156 C 0.87159 0.44805 0.10309 0.0
C157 C 0.83071 0.4296 0.06768 0.0
C158 C 0.92084 0.43872 0.30192 0.0
N159 N 0.89467 0.42876 0.30659 0.0
C160 C 0.93234 0.42386 0.3115 0.0
C161 C 0.91686 0.39863 0.32594 0.0
C162 C 0.89018 0.38859 0.33062 0.0
C163 C 0.87935 0.40401 0.32071 0.0
C164 C 0.86286 0.43945 0.41591 0.0
C165 C 0.83644 0.43634 0.34576 0.0
C166 C 0.87523 0.44442 0.3787 0.0
N167 N 0.86202 0.44287 0.3442 0.0
C168 C 0.82344 0.43121 0.38242 0.0
C169 C 0.83679 0.43281 0.4177 0.0
C170 C 0.85173 0.47061 0.24461 0.0
C171 C 0.94355 0.52338 0.16911 0.0
C172 C 0.8906 0.49894 0.15438 0.0
C173 C 0.90653 0.52482 0.14273 0.0
C174 C 0.9332 0.53706 0.15009 0.0
N175 N 0.90087 0.48545 0.17257 0.0
C176 C 0.92699 0.49752 0.18034 0.0
Co177 Co 0.43997 0.87322 0.81987 0.0
Co178 Co 0.43266 0.8828 0.71878 0.0
O179 O 0.44565 0.89577 0.77323 0.0
C180 C 0.42361 0.911 0.85027 0.0
O181 O 0.41685 0.91436 0.81425 0.0
C182 C 0.48053 0.90684 0.66948 0.0
O183 O 0.47513 0.88305 0.66089 0.0
O184 O 0.44576 0.85759 0.7212 0.0
O185 O 0.44788 0.85033 0.78682 0.0
H186 H 0.38614 0.81371 0.61371 0.0
H187 H 0.47683 0.93009 0.82408 0.0
O188 O 0.43239 0.89562 0.85584 0.0
H189 H 0.52906 0.88919 0.85764 0.0
H190 H 0.44772 0.85406 0.96493 0.0
H191 H 0.41322 0.81609 0.8317 0.0
H192 H 0.48214 0.86222 0.84295 0.0
H193 H 0.45504 0.8824 0.90662 0.0
O194 O 0.46664 0.91049 0.69508 0.0
H195 H 0.40276 0.8304 0.68156 0.0
H196 H 0.43418 0.90818 0.64052 0.0
H197 H 0.4057 0.78704 0.88914 0.0
H198 H 0.5236 0.95785 0.83918 0.0
H199 H 0.42299 0.806 0.95637 0.0
H200 H 0.55008 0.93741 0.85598 0.0
O201 O 0.40196 0.85097 0.80709 0.0
H202 H 0.43924 0.97013 0.73415 0.0
H203 H 0.38155 0.87805 0.6973 0.0
H204 H 0.36451 0.90831 0.69563 0.0
H205 H 0.39348 0.95476 0.71399 0.0
H206 H 0.45536 0.93909 0.736 0.0
H207 H 0.41791 0.89231 0.57227 0.0
H208 H 0.39376 0.84475 0.55845 0.0
O209 O 0.39891 0.85543 0.74071 0.0
C210 C 0.45007 0.84613 0.75003 0.0
C211 C 0.3967 0.83447 0.61933 0.0
C212 C 0.41455 0.87858 0.59605 0.0
N213 N 0.41956 0.87025 0.66502 0.0
C214 C 0.40618 0.84405 0.65769 0.0
C215 C 0.42373 0.88745 0.63477 0.0
C216 C 0.40098 0.8519 0.58833 0.0
C217 C 0.48818 0.92104 0.83152 0.0
N218 N 0.47677 0.89453 0.83245 0.0
C219 C 0.51468 0.93687 0.83997 0.0
C220 C 0.52953 0.92538 0.84936 0.0
C221 C 0.51776 0.89834 0.85025 0.0
C222 C 0.49121 0.88314 0.84163 0.0
C223 C 0.44008 0.84556 0.9358 0.0
C224 C 0.42091 0.82451 0.86081 0.0
C225 C 0.44406 0.86152 0.90268 0.0
N226 N 0.43459 0.85093 0.86573 0.0
C227 C 0.41654 0.80795 0.89325 0.0
C228 C 0.42622 0.8186 0.93096 0.0
C229 C 0.38903 0.84497 0.77428 0.0
C230 C 0.42645 0.94995 0.72598 0.0
C231 C 0.39421 0.89815 0.70568 0.0
C232 C 0.38449 0.91524 0.70449 0.0
C233 C 0.40076 0.9413 0.71474 0.0
N234 N 0.41944 0.90678 0.71666 0.0
C235 C 0.4355 0.93231 0.72679 0.0
Co236 Co 0.55336 0.43286 0.20034 0.0
Co237 Co 0.56504 0.44408 0.30283 0.0
O238 O 0.5495 0.44718 0.25194 0.0
C239 C 0.56294 0.48671 0.17568 0.0
O240 O 0.56452 0.49515 0.21257 0.0
C241 C 0.5104 0.43116 0.3281 0.0
O242 O 0.5024 0.4306 0.29121 0.0
O243 O 0.55067 0.40585 0.29475 0.0
O244 O 0.54853 0.40128 0.22797 0.0
H245 H 0.61622 0.41548 0.38761 0.0
H246 H 0.51493 0.45078 0.20682 0.0
O247 O 0.55857 0.46378 0.16877 0.0
H248 H 0.46356 0.35796 0.16997 0.0
H249 H 0.53789 0.41108 0.05301 0.0
H250 H 0.58142 0.40554 0.1756 0.0
H251 H 0.51114 0.37923 0.17853 0.0
H252 H 0.53308 0.42916 0.11692 0.0
O253 O 0.5335 0.43613 0.3352 0.0
H254 H 0.59618 0.41955 0.32524 0.0
H255 H 0.56746 0.46259 0.3871 0.0
H256 H 0.58652 0.38698 0.11237 0.0
H257 H 0.46746 0.43044 0.19789 0.0
H258 H 0.56467 0.38971 0.05047 0.0
H259 H 0.4414 0.38365 0.17946 0.0
O260 O 0.59199 0.44982 0.20742 0.0
H261 H 0.56059 0.52646 0.3102 0.0
H262 H 0.61741 0.48852 0.32466 0.0
H263 H 0.63566 0.53558 0.33554 0.0
H264 H 0.60712 0.55483 0.32866 0.0
H265 H 0.54335 0.47966 0.29861 0.0
H266 H 0.58698 0.45876 0.45017 0.0
H267 H 0.61166 0.43516 0.45068 0.0
O268 O 0.59725 0.45167 0.27413 0.0
C269 C 0.54687 0.39231 0.26308 0.0
C270 C 0.60556 0.42587 0.38776 0.0
C271 C 0.58913 0.45013 0.42288 0.0
N272 N 0.58078 0.44142 0.35241 0.0
C273 C 0.59422 0.42829 0.3525 0.0
C274 C 0.57806 0.45218 0.38706 0.0
C275 C 0.60298 0.43689 0.42314 0.0
C276 C 0.50383 0.43053 0.19832 0.0
N277 N 0.5159 0.41629 0.193 0.0
C278 C 0.4769 0.41906 0.19352 0.0
C279 C 0.46228 0.39279 0.18327 0.0
C280 C 0.4747 0.37836 0.17799 0.0
C281 C 0.50166 0.39049 0.18307 0.0
C282 C 0.54748 0.40975 0.07978 0.0
C283 C 0.57174 0.4067 0.14885 0.0
C284 C 0.54489 0.42001 0.11607 0.0
N285 N 0.55687 0.41831 0.15007 0.0
C286 C 0.57475 0.3962 0.11311 0.0
C287 C 0.5625 0.39775 0.07838 0.0
C288 C 0.60608 0.45436 0.23868 0.0
C289 C 0.57321 0.51829 0.31345 0.0
C290 C 0.60491 0.49675 0.32117 0.0
C291 C 0.61534 0.52342 0.32757 0.0
C292 C 0.59932 0.5342 0.32374 0.0
N293 N 0.57923 0.4812 0.31135 0.0
C294 C 0.56348 0.49171 0.3072 0.0
Co295 Co 0.11982 0.54617 0.6976 0.0
Co296 Co 0.1266 0.56928 0.7946 0.0
O297 O 0.10494 0.55079 0.74755 0.0
C298 C 0.08659 0.56685 0.66403 0.0
O299 O 0.09432 0.58469 0.69223 0.0
C300 C 0.0856 0.51934 0.83065 0.0
O301 O 0.08686 0.50657 0.79936 0.0
O302 O 0.1437 0.54759 0.79413 0.0
O303 O 0.14572 0.5413 0.72831 0.0
H304 H 0.21014 0.61557 0.87307 0.0
H305 H 0.06316 0.51452 0.71192 0.0
O306 O 0.09427 0.55033 0.66388 0.0
H307 H 0.09294 0.45098 0.69645 0.0
H308 H 0.1168 0.51103 0.5587 0.0
H309 H 0.17368 0.56574 0.66865 0.0
H310 H 0.12389 0.49804 0.69042 0.0
H311 H 0.0979 0.51669 0.62111 0.0
O312 O 0.09945 0.54404 0.83232 0.0
H313 H 0.18273 0.59293 0.81434 0.0
H314 H 0.11603 0.58498 0.87439 0.0
H315 H 0.19338 0.5603 0.60704 0.0
H316 H 0.0314 0.46759 0.71765 0.0
H317 H 0.16487 0.53281 0.55145 0.0
H318 H 0.04627 0.43546 0.71007 0.0
O319 O 0.14498 0.58446 0.69429 0.0
H320 H 0.05068 0.58452 0.79052 0.0
H321 H 0.14632 0.62643 0.79836 0.0
H322 H 0.12584 0.65372 0.79719 0.0
H323 H 0.07767 0.63275 0.79342 0.0
H324 H 0.07203 0.55799 0.79123 0.0
H325 H 0.14274 0.60751 0.9338 0.0
H326 H 0.19014 0.62295 0.93341 0.0
O327 O 0.15451 0.59526 0.75932 0.0
C328 C 0.15212 0.5404 0.76443 0.0
C329 C 0.1895 0.60891 0.87364 0.0
C330 C 0.15167 0.60438 0.90772 0.0
N331 N 0.1478 0.58766 0.84089 0.0
C332 C 0.17388 0.59614 0.84042 0.0
C333 C 0.13664 0.59161 0.874 0.0
C334 C 0.17827 0.61303 0.90749 0.0
C335 C 0.06973 0.50064 0.70828 0.0
N336 N 0.09539 0.50904 0.70096 0.0
C337 C 0.05168 0.4741 0.71169 0.0
C338 C 0.06004 0.45609 0.70749 0.0
C339 C 0.08623 0.46478 0.69991 0.0
C340 C 0.10372 0.49148 0.69675 0.0
C341 C 0.12943 0.52308 0.58268 0.0
C342 C 0.16112 0.55368 0.64467 0.0
C343 C 0.11883 0.52646 0.61802 0.0
N344 N 0.13465 0.54155 0.64851 0.0
C345 C 0.1724 0.55071 0.60981 0.0
C346 C 0.1564 0.53529 0.57864 0.0
C347 C 0.15856 0.60028 0.72211 0.0
C348 C 0.07168 0.59388 0.79234 0.0
C349 C 0.12536 0.61717 0.79661 0.0
C350 C 0.11387 0.63272 0.79605 0.0
C351 C 0.08684 0.62094 0.79392 0.0
N352 N 0.11036 0.59063 0.79515 0.0
C353 C 0.08386 0.57895 0.79292 0.0
H354 H 0.54466 0.1794 0.18618 0.0
H355 H 0.53904 0.21747 0.19056 0.0
H356 H 0.54553 0.21728 0.31949 0.0
H357 H 0.54999 0.17891 0.31564 0.0
H358 H 0.51098 0.22981 0.30186 0.0
H359 H 0.59817 0.25829 0.25835 0.0
H360 H 0.63186 0.25828 0.21508 0.0
H361 H 0.60135 0.2788 0.11349 0.0
H362 H 0.56729 0.27863 0.1561 0.0
H363 H 0.55051 0.36635 0.32938 0.0
H364 H 0.54793 0.3237 0.32985 0.0
H365 H 0.53042 0.31508 0.20329 0.0
H366 H 0.533 0.35706 0.20232 0.0
H367 H 0.57094 0.30739 0.22188 0.0
H368 H 0.48383 0.2797 0.27014 0.0
H369 H 0.45203 0.28048 0.31686 0.0
H370 H 0.48574 0.26022 0.41443 0.0
H371 H 0.51796 0.25966 0.36836 0.0
C372 C 0.54454 0.18726 0.21547 0.0
C373 C 0.54804 0.17616 0.25046 0.0
C374 C 0.54149 0.20913 0.21795 0.0
C375 C 0.54239 0.22059 0.25536 0.0
C376 C 0.54483 0.2089 0.2903 0.0
C377 C 0.54752 0.18693 0.28792 0.0
C378 C 0.54199 0.24537 0.2583 0.0
C379 C 0.52427 0.24684 0.28462 0.0
C380 C 0.55931 0.26765 0.2359 0.0
C381 C 0.58004 0.26821 0.21033 0.0
C382 C 0.59858 0.26267 0.22674 0.0
C383 C 0.61774 0.26271 0.20235 0.0
C384 C 0.61869 0.26845 0.16154 0.0
C385 C 0.60056 0.27431 0.14509 0.0
C386 C 0.58134 0.27428 0.16936 0.0
C387 C 0.54565 0.35514 0.30186 0.0
C388 C 0.54203 0.36528 0.26585 0.0
C389 C 0.54423 0.33081 0.30215 0.0
C390 C 0.53911 0.31632 0.2665 0.0
C391 C 0.53457 0.326 0.23105 0.0
C392 C 0.53595 0.35009 0.2307 0.0
C393 C 0.53974 0.29168 0.265 0.0
C394 C 0.55765 0.29032 0.23905 0.0
C395 C 0.52294 0.26972 0.28828 0.0
C396 C 0.50347 0.2699 0.31589 0.0
C397 C 0.48459 0.27562 0.30162 0.0
C398 C 0.46646 0.27598 0.32797 0.0
C399 C 0.46691 0.27048 0.36861 0.0
C400 C 0.48544 0.26452 0.38296 0.0
C401 C 0.50362 0.26415 0.35674 0.0
H402 H 0.45286 0.27077 0.38896 0.0
H403 H 0.63351 0.26842 0.14268 0.0
H404 H 0.36439 0.54029 0.82089 0.0
H405 H 0.32061 0.53327 0.82486 0.0
H406 H 0.31035 0.51746 0.69777 0.0
H407 H 0.35487 0.52498 0.69321 0.0
H408 H 0.29704 0.55263 0.71908 0.0
H409 H 0.27716 0.46895 0.76789 0.0
H410 H 0.28272 0.43808 0.81032 0.0
H411 H 0.26867 0.47078 0.91577 0.0
H412 H 0.26341 0.50212 0.87403 0.0
H413 H 0.167 0.51586 0.71074 0.0
H414 H 0.20416 0.50955 0.71455 0.0
H415 H 0.22088 0.5415 0.83421 0.0
H416 H 0.1829 0.54771 0.83102 0.0
H417 H 0.22951 0.49622 0.81764 0.0
H418 H 0.25679 0.58347 0.77112 0.0
H419 H 0.25155 0.6152 0.7306 0.0
H420 H 0.25087 0.57515 0.6228 0.0
H421 H 0.25653 0.54334 0.66288 0.0
C422 C 0.35283 0.53489 0.7937 0.0
C423 C 0.36329 0.53324 0.75662 0.0
C424 C 0.32762 0.53073 0.79617 0.0
C425 C 0.31205 0.52455 0.76175 0.0
C426 C 0.32204 0.52211 0.72478 0.0
C427 C 0.34743 0.5263 0.72224 0.0
C428 C 0.28633 0.52296 0.76415 0.0
C429 C 0.28214 0.53989 0.74011 0.0
C430 C 0.26718 0.50703 0.79263 0.0
C431 C 0.27008 0.48802 0.81781 0.0
C432 C 0.27543 0.46968 0.80015 0.0
C433 C 0.27851 0.45208 0.82407 0.0
C434 C 0.2761 0.45251 0.86572 0.0
C435 C 0.27054 0.47049 0.88351 0.0
C436 C 0.26748 0.48815 0.85972 0.0
C437 C 0.178 0.52101 0.73842 0.0
C438 C 0.17195 0.5325 0.77053 0.0
C439 C 0.19936 0.51739 0.74044 0.0
C440 C 0.21538 0.52533 0.77441 0.0
C441 C 0.20863 0.53523 0.80772 0.0
C442 C 0.18698 0.53879 0.80582 0.0
C443 C 0.2405 0.52578 0.77258 0.0
C444 C 0.2445 0.50876 0.7966 0.0
C445 C 0.25963 0.54166 0.7443 0.0
C446 C 0.25692 0.56101 0.71994 0.0
C447 C 0.25549 0.58144 0.73877 0.0
C448 C 0.25247 0.59945 0.71588 0.0
C449 C 0.25068 0.59712 0.67412 0.0
C450 C 0.25223 0.57692 0.65515 0.0
C451 C 0.2555 0.55899 0.67792 0.0
H452 H 0.24817 0.611 0.65648 0.0
H453 H 0.2785 0.43887 0.88419 0.0
H454 H 0.65448 0.17004 0.21383 0.0
H455 H 0.69537 0.21106 0.21528 0.0
H456 H 0.67632 0.22786 0.33221 0.0
H457 H 0.635 0.1863 0.33095 0.0
H458 H 0.68736 0.26656 0.2767 0.0
H459 H 0.72755 0.21874 0.32178 0.0
H460 H 0.73767 0.18323 0.32114 0.0
H461 H 0.77138 0.20654 0.20396 0.0
H462 H 0.76113 0.24199 0.20361 0.0
H463 H 0.80582 0.38493 0.29916 0.0
H464 H 0.76852 0.34142 0.30558 0.0
H465 H 0.78627 0.32019 0.1911 0.0
H466 H 0.82419 0.3642 0.18431 0.0
H467 H 0.77663 0.28355 0.24862 0.0
H468 H 0.72717 0.32192 0.19582 0.0
H469 H 0.71242 0.35394 0.18974 0.0
H470 H 0.69614 0.34781 0.31596 0.0
H471 H 0.70975 0.31488 0.3224 0.0
C472 C 0.65916 0.18206 0.24033 0.0
C473 C 0.64127 0.17496 0.27206 0.0
C474 C 0.6827 0.20555 0.24119 0.0
C475 C 0.68894 0.22259 0.2738 0.0
C476 C 0.67186 0.21496 0.30671 0.0
C477 C 0.64832 0.19115 0.30606 0.0
C478 C 0.71169 0.24938 0.27097 0.0
C479 C 0.707 0.2703 0.27156 0.0
C480 C 0.73709 0.25418 0.26242 0.0
C481 C 0.74339 0.23293 0.26257 0.0
C482 C 0.73694 0.21618 0.29573 0.0
C483 C 0.74273 0.19608 0.29557 0.0
C484 C 0.75512 0.1926 0.2625 0.0
C485 C 0.76178 0.20926 0.22955 0.0
C486 C 0.75601 0.22938 0.22954 0.0
C487 C 0.80189 0.37118 0.27508 0.0
C488 C 0.81824 0.37814 0.24125 0.0
C489 C 0.78031 0.34626 0.27873 0.0
C490 C 0.7744 0.32756 0.24871 0.0
C491 C 0.79045 0.33436 0.21463 0.0
C492 C 0.81208 0.35951 0.21075 0.0
C493 C 0.75222 0.30064 0.25434 0.0
C494 C 0.75703 0.27976 0.25421 0.0
C495 C 0.7268 0.29572 0.26283 0.0
C496 C 0.71977 0.31628 0.25966 0.0
C497 C 0.72062 0.32758 0.2223 0.0
C498 C 0.7123 0.34573 0.21874 0.0
C499 C 0.70367 0.35317 0.25252 0.0
C500 C 0.70294 0.34213 0.28985 0.0
C501 C 0.71072 0.32355 0.29341 0.0
H502 H 0.69744 0.36739 0.24972 0.0
H503 H 0.75959 0.17703 0.26244 0.0
H504 H 0.48178 0.83477 0.7931 0.0
H505 H 0.48506 0.79569 0.78908 0.0
H506 H 0.43541 0.77086 0.68444 0.0
H507 H 0.43165 0.81017 0.68897 0.0
H508 H 0.41819 0.7332 0.73936 0.0
H509 H 0.49998 0.78824 0.67797 0.0
H510 H 0.54331 0.82715 0.66943 0.0
H511 H 0.56884 0.81052 0.78033 0.0
H512 H 0.52552 0.77169 0.78987 0.0
H513 H 0.43495 0.62648 0.69801 0.0
H514 H 0.43842 0.66883 0.6947 0.0
H515 H 0.47456 0.68819 0.81151 0.0
H516 H 0.4709 0.64505 0.8156 0.0
H517 H 0.49917 0.72843 0.74857 0.0
H518 H 0.41572 0.67291 0.80882 0.0
H519 H 0.37253 0.63338 0.81399 0.0
H520 H 0.35026 0.65084 0.70079 0.0
H521 H 0.39354 0.69025 0.69453 0.0
C522 C 0.47192 0.82127 0.76879 0.0
C523 C 0.45633 0.82547 0.74152 0.0
C524 C 0.47397 0.79896 0.76633 0.0
C525 C 0.4606 0.78035 0.73636 0.0
C526 C 0.44596 0.78503 0.70778 0.0
C527 C 0.444 0.80757 0.71014 0.0
C528 C 0.46014 0.75512 0.73761 0.0
C529 C 0.43591 0.73215 0.74059 0.0
C530 C 0.48327 0.75379 0.74038 0.0
C531 C 0.5094 0.77714 0.73479 0.0
C532 C 0.51475 0.79299 0.70072 0.0
C533 C 0.53933 0.81501 0.69567 0.0
C534 C 0.5588 0.82134 0.72436 0.0
C535 C 0.55373 0.80561 0.75814 0.0
C536 C 0.52917 0.78356 0.76336 0.0
C537 C 0.44372 0.63956 0.72322 0.0
C538 C 0.45256 0.63217 0.75729 0.0
C539 C 0.44564 0.66385 0.72114 0.0
C540 C 0.45652 0.68149 0.75292 0.0
C541 C 0.46603 0.6747 0.78669 0.0
C542 C 0.46388 0.65008 0.78902 0.0
C543 C 0.45732 0.70676 0.75051 0.0
C544 C 0.48154 0.72963 0.74727 0.0
C545 C 0.43419 0.70799 0.74711 0.0
C546 C 0.40801 0.68442 0.75101 0.0
C547 C 0.40172 0.66821 0.78483 0.0
C548 C 0.3772 0.64583 0.78798 0.0
C549 C 0.35869 0.63956 0.75768 0.0
C550 C 0.36464 0.6557 0.72421 0.0
C551 C 0.38916 0.67807 0.72085 0.0
H552 H 0.33971 0.62222 0.76017 0.0
H553 H 0.57782 0.8384 0.72039 0.0
H554 H 0.64159 0.46834 0.29908 0.0
H555 H 0.68618 0.47789 0.29539 0.0
H556 H 0.67935 0.46728 0.16704 0.0
H557 H 0.6338 0.45717 0.17039 0.0
H558 H 0.702 0.44174 0.20215 0.0
H559 H 0.71513 0.52789 0.20626 0.0
H560 H 0.70874 0.56341 0.23116 0.0
H561 H 0.73962 0.55992 0.34604 0.0
H562 H 0.74584 0.5241 0.32204 0.0
H563 H 0.83188 0.48192 0.17906 0.0
H564 H 0.79471 0.48837 0.17632 0.0
H565 H 0.78994 0.48557 0.30539 0.0
H566 H 0.82808 0.47982 0.30866 0.0
H567 H 0.77474 0.52077 0.26522 0.0
H568 H 0.75693 0.43169 0.26301 0.0
H569 H 0.76807 0.39957 0.23712 0.0
H570 H 0.74721 0.40987 0.11799 0.0
H571 H 0.73663 0.44264 0.14304 0.0
C572 C 0.64942 0.46829 0.26979 0.0
C573 C 0.63397 0.46213 0.23491 0.0
C574 C 0.67511 0.47387 0.26782 0.0
C575 C 0.68626 0.4737 0.23093 0.0
C576 C 0.67112 0.46768 0.19583 0.0
C577 C 0.64517 0.46205 0.19776 0.0
C578 C 0.71341 0.47878 0.23002 0.0
C579 C 0.71794 0.45925 0.21524 0.0
C580 C 0.73418 0.50137 0.24797 0.0
C581 C 0.73081 0.52318 0.26239 0.0
C582 C 0.72042 0.53458 0.23691 0.0
C583 C 0.71684 0.55479 0.25086 0.0
C584 C 0.72373 0.56389 0.29018 0.0
C585 C 0.73429 0.55285 0.3156 0.0
C586 C 0.73788 0.53262 0.30181 0.0
C587 C 0.8236 0.48347 0.20706 0.0
C588 C 0.83277 0.4799 0.24411 0.0
C589 C 0.80229 0.48721 0.20536 0.0
C590 C 0.78938 0.487 0.24057 0.0
C591 C 0.79972 0.48576 0.27787 0.0
C592 C 0.8214 0.48231 0.27966 0.0
C593 C 0.76304 0.48375 0.23767 0.0
C594 C 0.75872 0.50345 0.25185 0.0
C595 C 0.74243 0.46133 0.2193 0.0
C596 C 0.74617 0.43975 0.20484 0.0
C597 C 0.75471 0.4271 0.23129 0.0
C598 C 0.76111 0.40892 0.21674 0.0
C599 C 0.75855 0.40285 0.17589 0.0
C600 C 0.74928 0.4147 0.1496 0.0
C601 C 0.74308 0.43308 0.16395 0.0
H602 H 0.76352 0.38877 0.16469 0.0
H603 H 0.72093 0.57952 0.30093 0.0
H604 H 0.36288 0.80725 0.8317 0.0
H605 H 0.32174 0.76612 0.82239 0.0
H606 H 0.31316 0.79099 0.70478 0.0
H607 H 0.35376 0.83176 0.71357 0.0
H608 H 0.26849 0.75088 0.80016 0.0
H609 H 0.30244 0.74208 0.64143 0.0
H610 H 0.344 0.75793 0.60535 0.0
H611 H 0.38257 0.76112 0.71604 0.0
H612 H 0.34122 0.74498 0.75264 0.0
H613 H 0.15991 0.64607 0.70951 0.0
H614 H 0.19873 0.68951 0.71508 0.0
H615 H 0.24696 0.65441 0.72453 0.0
H616 H 0.20816 0.61112 0.71776 0.0
H617 H 0.27308 0.69882 0.68697 0.0
H618 H 0.22333 0.66997 0.80865 0.0
H619 H 0.18389 0.6538 0.85028 0.0
H620 H 0.17982 0.72234 0.82352 0.0
H621 H 0.21911 0.73888 0.78135 0.0
C622 C 0.35188 0.80426 0.80432 0.0
C623 C 0.36187 0.82275 0.77323 0.0
C624 C 0.32839 0.78074 0.79905 0.0
C625 C 0.31468 0.77541 0.76263 0.0
C626 C 0.32361 0.79461 0.73291 0.0
C627 C 0.3469 0.81798 0.7381 0.0
C628 C 0.29256 0.74906 0.75358 0.0
C629 C 0.26941 0.73947 0.77545 0.0
C630 C 0.29407 0.73396 0.72191 0.0
C631 C 0.31875 0.74251 0.69977 0.0
C632 C 0.31974 0.74597 0.65799 0.0
C633 C 0.34328 0.75505 0.63747 0.0
C634 C 0.36592 0.76059 0.65841 0.0
C635 C 0.36505 0.75691 0.69987 0.0
C636 C 0.34157 0.74781 0.72051 0.0
C637 C 0.17897 0.64783 0.71087 0.0
C638 C 0.18133 0.6255 0.71231 0.0
C639 C 0.20108 0.67256 0.71475 0.0
C640 C 0.22574 0.67521 0.72115 0.0
C641 C 0.2282 0.65289 0.7197 0.0
C642 C 0.20613 0.62822 0.71552 0.0
C643 C 0.24852 0.70074 0.73288 0.0
C644 C 0.27196 0.71018 0.71159 0.0
C645 C 0.24748 0.71533 0.76588 0.0
C646 C 0.22404 0.70557 0.7916 0.0
C647 C 0.21397 0.68155 0.8115 0.0
C648 C 0.19168 0.67234 0.83524 0.0
C649 C 0.17936 0.687 0.83951 0.0
C650 C 0.18938 0.71099 0.82017 0.0
C651 C 0.21168 0.72033 0.7964 0.0
H652 H 0.16206 0.67976 0.85783 0.0
H653 H 0.38413 0.76773 0.6425 0.0
H654 H 0.42661 0.90152 0.92918 0.0
H655 H 0.43471 0.9305 0.9858 0.0
H656 H 0.43017 0.98587 0.90756 0.0
H657 H 0.4221 0.95674 0.85003 0.0
H658 H 0.47775 0.97841 0.9909 0.0
H659 H 0.41038 0.02167 0.96978 0.0
H660 H 0.36689 0.00873 0.94241 0.0
H661 H 0.34168 0.92843 0.96597 0.0
H662 H 0.38487 0.94091 0.99397 0.0
H663 H 0.52758 0.09476 0.09407 0.0
H664 H 0.50335 0.06389 0.04081 0.0
H665 H 0.4453 0.01372 0.12611 0.0
H666 H 0.46968 0.04484 0.18027 0.0
H667 H 0.42592 0.01664 0.04304 0.0
H668 H 0.48783 0.99935 0.11151 0.0
H669 H 0.53116 0.01283 0.13992 0.0
H670 H 0.56574 0.03844 0.0237 0.0
H671 H 0.52262 0.0255 0.99473 0.0
C672 C 0.42701 0.91971 0.92387 0.0
C673 C 0.42408 0.92698 0.88489 0.0
C674 C 0.43161 0.93625 0.9564 0.0
C675 C 0.43323 0.96042 0.95095 0.0
C676 C 0.42885 0.96722 0.91249 0.0
C677 C 0.42425 0.95057 0.87966 0.0
C678 C 0.442 0.97922 0.98489 0.0
C679 C 0.4663 0.98664 1.00227 0.0
C680 C 0.42709 0.98995 0.99994 0.0
C681 C 0.40096 0.98223 0.98357 0.0
C682 C 0.39552 0.00127 0.96923 0.0
C683 C 0.37093 0.99401 0.9536 0.0
C684 C 0.35156 0.96777 0.95232 0.0
C685 C 0.35673 0.94874 0.96681 0.0
C686 C 0.38128 0.95589 0.9825 0.0
C687 C 0.50945 0.07738 0.10159 0.0
C688 C 0.50079 0.072 0.14156 0.0
C689 C 0.49553 0.05984 0.07098 0.0
C690 C 0.4727 0.03644 0.07958 0.0
C691 C 0.46287 0.03176 0.1189 0.0
C692 C 0.47684 0.04948 0.14979 0.0
C693 C 0.46158 0.01571 0.04854 0.0
C694 C 0.43712 0.00815 0.03164 0.0
C695 C 0.4762 0.00459 0.03392 0.0
C696 C 0.50203 0.01162 0.05103 0.0
C697 C 0.50469 0.00798 0.09207 0.0
C698 C 0.52922 0.01553 0.10827 0.0
C699 C 0.5512 0.02654 0.08365 0.0
C700 C 0.54869 0.02993 0.04274 0.0
C701 C 0.52421 0.02246 0.0264 0.0
H702 H 0.57018 0.03238 0.09622 0.0
H703 H 0.33254 0.96219 0.94019 0.0
H704 H 0.47065 0.44226 0.3311 0.0
H705 H 0.45095 0.44838 0.39188 0.0
H706 H 0.49527 0.4244 0.46478 0.0
H707 H 0.51479 0.41816 0.40457 0.0
H708 H 0.44672 0.4073 0.4965 0.0
H709 H 0.51901 0.4867 0.44742 0.0
H710 H 0.54361 0.52007 0.39625 0.0
H711 H 0.48122 0.53665 0.38655 0.0
H712 H 0.45601 0.50298 0.43717 0.0
H713 H 0.45995 0.47827 0.67975 0.0
H714 H 0.46559 0.45795 0.61924 0.0
H715 H 0.42216 0.48488 0.55034 0.0
H716 H 0.41656 0.50513 0.6101 0.0
H717 H 0.46796 0.49878 0.51574 0.0
H718 H 0.3971 0.42034 0.57075 0.0
H719 H 0.3742 0.38699 0.62268 0.0
H720 H 0.43606 0.36935 0.6235 0.0
H721 H 0.45952 0.40286 0.57194 0.0
C722 C 0.47562 0.43763 0.36 0.0
C723 C 0.49447 0.43001 0.36306 0.0
C724 C 0.46447 0.44125 0.39473 0.0
C725 C 0.47193 0.43719 0.43293 0.0
C726 C 0.48924 0.42769 0.43573 0.0
C727 C 0.50048 0.42427 0.40121 0.0
C728 C 0.4641 0.44545 0.47001 0.0
C729 C 0.45141 0.42731 0.50083 0.0
C730 C 0.47022 0.47155 0.47565 0.0
C731 C 0.48549 0.49211 0.44572 0.0
C732 C 0.51045 0.49733 0.43415 0.0
C733 C 0.52451 0.5163 0.40527 0.0
C734 C 0.51395 0.53042 0.38807 0.0
C735 C 0.48934 0.52565 0.39983 0.0
C736 C 0.47516 0.50662 0.42861 0.0
C737 C 0.45113 0.47934 0.6519 0.0
C738 C 0.43801 0.49351 0.64975 0.0
C739 C 0.45438 0.46774 0.61729 0.0
C740 C 0.44438 0.46998 0.58013 0.0
C741 C 0.43022 0.48304 0.57852 0.0
C742 C 0.42701 0.49459 0.61285 0.0
C743 C 0.45021 0.46057 0.54227 0.0
C744 C 0.46286 0.47865 0.51135 0.0
C745 C 0.44429 0.4345 0.53684 0.0
C746 C 0.43018 0.41429 0.56775 0.0
C747 C 0.40593 0.4095 0.58224 0.0
C748 C 0.39282 0.39054 0.61156 0.0
C749 C 0.40369 0.3761 0.62645 0.0
C750 C 0.42767 0.38056 0.61197 0.0
C751 C 0.44087 0.39952 0.58267 0.0
H752 H 0.39352 0.36143 0.64915 0.0
H753 H 0.52486 0.5451 0.3657 0.0
H754 H 0.04041 0.47184 0.83146 0.0
H755 H 0.0116 0.4507 0.88921 0.0
H756 H 0.06445 0.51409 0.96554 0.0
H757 H 0.0928 0.5355 0.90822 0.0
H758 H 0.04428 0.46116 0.9985 0.0
H759 H 0.01668 0.51741 0.93541 0.0
H760 H 0.0015 0.53241 0.87793 0.0
H761 H 0.93461 0.45599 0.86523 0.0
H762 H 0.94966 0.44044 0.9223 0.0
H763 H 0.97501 0.46248 0.17069 0.0
H764 H 0.00209 0.46901 0.11188 0.0
H765 H 0.93335 0.41885 0.0424 0.0
H766 H 0.90619 0.41346 0.1007 0.0
H767 H 0.95978 0.4592 1.00202 0.0
H768 H 0.983 0.40319 0.06917 0.0
H769 H 0.99757 0.38629 0.12492 0.0
H770 H 0.07094 0.45774 0.12839 0.0
H771 H 0.05669 0.47523 0.07302 0.0
C772 C 0.04592 0.4811 0.86064 0.0
C773 C 0.06873 0.50539 0.86527 0.0
C774 C 0.0295 0.46904 0.89354 0.0
C775 C 0.03597 0.48085 0.93162 0.0
C776 C 0.05918 0.50461 0.93648 0.0
C777 C 0.07524 0.5169 0.9036 0.0
C778 C 0.01795 0.46949 0.96613 0.0
C779 C 0.02579 0.46071 0.9995 0.0
C780 C 0.99358 0.4683 0.96682 0.0
C781 C 0.98446 0.47769 0.93275 0.0
C782 C 0.99887 0.50375 0.92011 0.0
C783 C 0.99027 0.51236 0.88766 0.0
C784 C 0.96715 0.49514 0.86785 0.0
C785 C 0.95255 0.46929 0.88054 0.0
C786 C 0.9611 0.46057 0.91294 0.0
C787 C 0.96575 0.45227 0.14318 0.0
C788 C 0.93848 0.43739 0.14035 0.0
C789 C 0.98127 0.45597 0.10944 0.0
C790 C 0.9699 0.4443 0.07243 0.0
C791 C 0.9427 0.42821 0.07036 0.0
C792 C 0.92717 0.42497 0.10382 0.0
C793 C 0.986 0.45083 0.03521 0.0
C794 C 0.97793 0.45897 1.00119 0.0
C795 C 0.00998 0.45102 0.0338 0.0
C796 C 0.01868 0.44059 0.0671 0.0
C797 C 0.00217 0.41538 0.082 0.0
C798 C 0.01038 0.40568 0.11351 0.0
C799 C 0.03514 0.42095 0.13024 0.0
C800 C 0.05176 0.44594 0.11542 0.0
C801 C 0.04364 0.45574 0.08393 0.0
H802 H 0.04146 0.41341 0.15463 0.0
H803 H 0.96051 0.50184 0.84274 0.0
H804 H 0.53681 0.04552 0.35871 0.0
H805 H 0.52405 0.01462 0.41381 0.0
H806 H 0.60298 0.05472 0.45851 0.0
H807 H 0.61568 0.08647 0.40421 0.0
H808 H 0.53395 0.98047 0.4418 0.0
H809 H 0.60336 0.05376 0.56001 0.0
H810 H 0.62692 0.10107 0.57318 0.0
H811 H 0.56979 0.10906 0.50545 0.0
H812 H 0.54576 0.06177 0.49207 0.0
H813 H 0.51625 0.90776 0.61684 0.0
H814 H 0.53905 0.93954 0.56378 0.0
H815 H 0.50634 0.98568 0.60622 0.0
H816 H 0.48409 0.95439 0.66004 0.0
H817 H 0.55363 0.01681 0.57984 0.0
H818 H 0.47788 0.94108 0.5291 0.0
H819 H 0.44903 0.89414 0.51639 0.0
H820 H 0.50962 0.89192 0.44942 0.0
H821 H 0.53897 0.93881 0.46215 0.0
C822 C 0.55162 0.04756 0.37978 0.0
C823 C 0.57725 0.06869 0.37721 0.0
C824 C 0.54426 0.02983 0.41143 0.0
C825 C 0.56237 0.03262 0.44102 0.0
C826 C 0.58844 0.05252 0.43676 0.0
C827 C 0.59575 0.07054 0.40543 0.0
C828 C 0.55351 0.01555 0.47719 0.0
C829 C 0.53845 0.98846 0.47194 0.0
C830 C 0.55882 0.02586 0.51672 0.0
C831 C 0.57295 0.05428 0.52471 0.0
C832 C 0.59581 0.06561 0.54799 0.0
C833 C 0.60924 0.09242 0.55544 0.0
C834 C 0.5999 0.10806 0.53997 0.0
C835 C 0.57705 0.09692 0.51716 0.0
C836 C 0.56354 0.07012 0.5096 0.0
C837 C 0.51434 0.92495 0.61542 0.0
C838 C 0.49816 0.92839 0.64251 0.0
C839 C 0.52727 0.94304 0.58488 0.0
C840 C 0.52393 0.96471 0.58033 0.0
C841 C 0.50915 0.96908 0.60893 0.0
C842 C 0.49644 0.95114 0.63979 0.0
C843 C 0.53424 0.98179 0.54436 0.0
C844 C 0.54948 0.00884 0.54967 0.0
C845 C 0.52838 0.97153 0.50486 0.0
C846 C 0.51071 0.94338 0.49693 0.0
C847 C 0.48511 0.93054 0.51189 0.0
C848 C 0.46866 0.90396 0.50468 0.0
C849 C 0.47751 0.89005 0.48224 0.0
C850 C 0.50281 0.90272 0.46686 0.0
C851 C 0.51936 0.9293 0.47404 0.0
H852 H 0.46475 0.86947 0.47669 0.0
H853 H 0.61033 0.1288 0.54577 0.0
H854 H 0.5248 0.54655 0.82431 0.0
H855 H 0.54403 0.53934 0.88463 0.0
H856 H 0.52222 0.58693 0.95354 0.0
H857 H 0.50291 0.59409 0.8936 0.0
H858 H 0.57003 0.59196 0.97933 0.0
H859 H 0.48172 0.52615 0.95346 0.0
H860 H 0.44508 0.49343 0.91301 0.0
H861 H 0.48459 0.45004 0.89796 0.0
H862 H 0.52167 0.48276 0.938 0.0
H863 H 0.55551 0.52912 0.17295 0.0
H864 H 0.55094 0.55014 0.11231 0.0
H865 H 0.56738 0.50036 0.03861 0.0
H866 H 0.5719 0.47951 0.09828 0.0
H867 H 0.52287 0.49839 0.01606 0.0
H868 H 0.61092 0.56499 0.04772 0.0
H869 H 0.64562 0.59805 0.09074 0.0
H870 H 0.60443 0.64019 0.09827 0.0
H871 H 0.56928 0.60717 0.05572 0.0
C872 C 0.52492 0.55621 0.85197 0.0
C873 C 0.51221 0.57074 0.85427 0.0
C874 C 0.53578 0.55196 0.88648 0.0
C875 C 0.53426 0.56235 0.92369 0.0
C876 C 0.52363 0.57874 0.92522 0.0
C877 C 0.51255 0.58275 0.89092 0.0
C878 C 0.54045 0.55338 0.96157 0.0
C879 C 0.55968 0.57154 0.98754 0.0
C880 C 0.52681 0.52677 0.97241 0.0
C881 C 0.50459 0.50705 0.94833 0.0
C882 C 0.4827 0.50976 0.94122 0.0
C883 C 0.46183 0.49119 0.91841 0.0
C884 C 0.46253 0.46969 0.90281 0.0
C885 C 0.4841 0.46672 0.91002 0.0
C886 C 0.50504 0.48526 0.93279 0.0
C887 C 0.55862 0.52306 0.14383 0.0
C888 C 0.56376 0.50243 0.1405 0.0
C889 C 0.55601 0.53506 0.10919 0.0
C890 C 0.55868 0.52671 0.07084 0.0
C891 C 0.56501 0.507 0.06777 0.0
C892 C 0.56757 0.49507 0.10206 0.0
C893 C 0.55301 0.53682 0.0336 0.0
C894 C 0.53352 0.51882 0.00784 0.0
C895 C 0.56621 0.56357 0.0234 0.0
C896 C 0.58734 0.58346 0.04888 0.0
C897 C 0.60915 0.58118 0.05883 0.0
C898 C 0.62892 0.59994 0.08307 0.0
C899 C 0.6272 0.62117 0.09732 0.0
C900 C 0.60572 0.62372 0.08726 0.0
C901 C 0.58588 0.605 0.06306 0.0
H902 H 0.64252 0.63567 0.11608 0.0
H903 H 0.44632 0.45528 0.88526 0.0
H904 H 0.05513 0.58881 0.65918 0.0
H905 H 0.02678 0.58548 0.60267 0.0
H906 H 0.05248 0.54006 0.53639 0.0
H907 H 0.08043 0.54324 0.59185 0.0
H908 H 0.05126 0.57704 0.48927 0.0
H909 H 0.99555 0.51066 0.58464 0.0
H910 H 0.97485 0.49495 0.65063 0.0
H911 H 0.93953 0.54262 0.64185 0.0
H912 H 0.96035 0.55889 0.57598 0.0
H913 H 0.95543 0.49809 0.3472 0.0
H914 H 0.98728 0.51793 0.4012 0.0
H915 H 0.94547 0.55437 0.44744 0.0
H916 H 0.9133 0.53434 0.39371 0.0
H917 H 0.95531 0.53002 0.50593 0.0
H918 H 0.00578 0.59095 0.40475 0.0
H919 H 0.02614 0.60574 0.33836 0.0
H920 H 0.07132 0.56848 0.35734 0.0
H921 H 0.05096 0.55314 0.42364 0.0
C922 C 0.05477 0.57825 0.63244 0.0
C923 C 0.06987 0.56609 0.63026 0.0
C924 C 0.03856 0.57632 0.60024 0.0
C925 C 0.03747 0.56245 0.5653 0.0
C926 C 0.05302 0.55091 0.56289 0.0
C927 C 0.06888 0.55259 0.59494 0.0
C928 C 0.01965 0.55886 0.53138 0.0
C929 C 0.03027 0.56676 0.49285 0.0
C930 C 0.9923 0.54604 0.53617 0.0
C931 C 0.97978 0.53626 0.57569 0.0
C932 C 0.98357 0.51797 0.59696 0.0
C933 C 0.97177 0.50893 0.6343 0.0
C934 C 0.95596 0.51785 0.65049 0.0
C935 C 0.95184 0.53578 0.62932 0.0
C936 C 0.96363 0.54492 0.59199 0.0
C937 C 0.95326 0.51076 0.3683 0.0
C938 C 0.93173 0.51457 0.36603 0.0
C939 C 0.97155 0.52215 0.39923 0.0
C940 C 0.96888 0.53777 0.42841 0.0
C941 C 0.94795 0.54238 0.42535 0.0
C942 C 0.92963 0.531 0.39442 0.0
C943 C 0.98688 0.54764 0.46351 0.0
C944 C 0.9763 0.54086 0.50228 0.0
C945 C 0.01429 0.56148 0.45891 0.0
C946 C 0.0267 0.57075 0.4191 0.0
C947 C 0.01992 0.58575 0.39467 0.0
C948 C 0.03148 0.59426 0.35706 0.0
C949 C 0.04998 0.58802 0.34361 0.0
C950 C 0.05698 0.5733 0.36779 0.0
C951 C 0.04546 0.56472 0.40542 0.0
H952 H 0.05891 0.59462 0.31448 0.0
H953 H 0.94683 0.51082 0.6794 0.0
loop_
_geom_bond_atom_site_label_1
_geom_bond_atom_site_label_2
_geom_bond_distance
_geom_bond_site_symmetry_2
_ccdc_geom_bond_type
Co0 O2 2.143 . S
Co0 O8 2.074 . S
Co0 O11 2.093 . S
Co0 O24 2.097 . S
Co0 N41 2.151 . S
Co0 N49 2.214 . S
Co1 O2 2.160 . S
Co1 O7 2.058 . S
Co1 O17 2.057 . S
Co1 O32 2.037 . S
Co1 N36 2.145 . S
Co1 N57 2.257 . S
O2 Co0 2.143 . S
O2 Co1 2.160 . S
C3 O4 1.278 . S
C3 O11 1.224 . S
O4 C3 1.278 . S
C5 O6 1.245 . S
C5 O17 1.232 . S
O6 C5 1.245 . S
O7 Co1 2.058 . S
O7 C33 1.269 . S
O8 Co0 2.074 . S
O8 C33 1.257 . S
H9 C34 0.930 . S
H10 C40 0.930 . S
O11 Co0 2.093 . S
O11 C3 1.224 . S
H12 C44 0.929 . S
H13 C46 0.930 . S
H14 C47 0.930 . S
H15 C45 0.929 . S
H16 C48 0.928 . S
O17 Co1 2.057 . S
O17 C5 1.232 . S
H18 C37 0.929 . S
H19 C38 0.929 . S
H20 C50 0.931 . S
H21 C42 0.929 . S
H22 C51 0.930 . S
H23 C43 0.931 . S
O24 Co0 2.097 . S
O24 C52 1.214 . S
H25 C53 0.929 . S
H26 C54 0.929 . S
H27 C55 0.930 . S
H28 C56 0.929 . S
H29 C58 0.930 . S
H30 C35 0.930 . S
H31 C39 0.930 . S
O32 Co1 2.037 . S
O32 C52 1.234 . S
C33 O7 1.269 . S
C33 O8 1.257 . S
C34 H9 0.930 . S
C34 C37 1.388 . S
C34 C39 1.418 . S
C35 H30 0.930 . S
C35 C38 1.404 . S
C35 C39 1.353 . S
N36 Co1 2.145 . S
N36 C37 1.397 . S
N36 C38 1.334 . S
C37 H18 0.929 . S
C37 C34 1.388 . S
C37 N36 1.397 . S
C38 H19 0.929 . S
C38 C35 1.404 . S
C38 N36 1.334 . S
C39 H31 0.930 . S
C39 C34 1.418 . S
C39 C35 1.353 . S
C40 H10 0.930 . S
C40 N41 1.330 . S
C40 C42 1.446 . S
N41 Co0 2.151 . S
N41 C40 1.330 . S
N41 C45 1.418 . S
C42 H21 0.929 . S
C42 C40 1.446 . S
C42 C43 1.332 . S
C43 H23 0.931 . S
C43 C42 1.332 . S
C43 C44 1.267 . S
C44 H12 0.929 . S
C44 C43 1.267 . S
C44 C45 1.251 . S
C45 H15 0.929 . S
C45 N41 1.418 . S
C45 C44 1.251 . S
C46 H13 0.930 . S
C46 C48 1.406 . S
C46 C51 1.261 . S
C47 H14 0.930 . S
C47 N49 1.325 . S
C47 C50 1.357 . S
C48 H16 0.928 . S
C48 C46 1.406 . S
C48 N49 1.261 . S
N49 Co0 2.214 . S
N49 C47 1.325 . S
N49 C48 1.261 . S
C50 H20 0.931 . S
C50 C47 1.357 . S
C50 C51 1.312 . S
C51 H22 0.930 . S
C51 C46 1.261 . S
C51 C50 1.312 . S
C52 O24 1.214 . S
C52 O32 1.234 . S
C53 H25 0.929 . S
C53 C56 1.391 . S
C53 C58 1.391 . S
C54 H26 0.929 . S
C54 C55 1.390 . S
C54 N57 1.391 . S
C55 H27 0.930 . S
C55 C54 1.390 . S
C55 C56 1.392 . S
C56 H28 0.929 . S
C56 C53 1.391 . S
C56 C55 1.392 . S
N57 Co1 2.257 . S
N57 C54 1.391 . S
N57 C58 1.388 . S
C58 H29 0.930 . S
C58 C53 1.391 . S
C58 N57 1.388 . S
Co59 O61 2.143 . S
Co59 O67 2.074 . S
Co59 O70 2.093 . S
Co59 O83 2.097 . S
Co59 N100 2.151 . S
Co59 N108 2.214 . S
Co60 O61 2.160 . S
Co60 O66 2.058 . S
Co60 O76 2.057 . S
Co60 O91 2.037 . S
Co60 N95 2.145 . S
Co60 N116 2.257 . S
O61 Co59 2.143 . S
O61 Co60 2.160 . S
C62 O63 1.278 . S
C62 O70 1.224 . S
O63 C62 1.278 . S
C64 O65 1.245 . S
C64 O76 1.232 . S
O65 C64 1.245 . S
O66 Co60 2.058 . S
O66 C92 1.269 . S
O67 Co59 2.074 . S
O67 C92 1.257 . S
H68 C93 0.930 . S
H69 C99 0.930 . S
O70 Co59 2.093 . S
O70 C62 1.224 . S
H71 C103 0.929 . S
H72 C105 0.930 . S
H73 C106 0.930 . S
H74 C104 0.929 . S
H75 C107 0.928 . S
O76 Co60 2.057 . S
O76 C64 1.232 . S
H77 C96 0.929 . S
H78 C97 0.929 . S
H79 C109 0.931 . S
H80 C101 0.929 . S
H81 C110 0.930 . S
H82 C102 0.931 . S
O83 Co59 2.097 . S
O83 C111 1.214 . S
H84 C112 0.929 . S
H85 C113 0.929 . S
H86 C114 0.930 . S
H87 C115 0.929 . S
H88 C117 0.930 . S
H89 C94 0.930 . S
H90 C98 0.930 . S
O91 Co60 2.037 . S
O91 C111 1.234 . S
C92 O66 1.269 . S
C92 O67 1.257 . S
C93 H68 0.930 . S
C93 C96 1.388 . S
C93 C98 1.418 . S
C94 H89 0.930 . S
C94 C97 1.404 . S
C94 C98 1.353 . S
N95 Co60 2.145 . S
N95 C96 1.397 . S
N95 C97 1.334 . S
C96 H77 0.929 . S
C96 C93 1.388 . S
C96 N95 1.397 . S
C97 H78 0.929 . S
C97 C94 1.404 . S
C97 N95 1.334 . S
C98 H90 0.930 . S
C98 C93 1.418 . S
C98 C94 1.353 . S
C99 H69 0.930 . S
C99 N100 1.330 . S
C99 C101 1.446 . S
N100 Co59 2.151 . S
N100 C99 1.330 . S
N100 C104 1.418 . S
C101 H80 0.929 . S
C101 C99 1.446 . S
C101 C102 1.332 . S
C102 H82 0.931 . S
C102 C101 1.332 . S
C102 C103 1.267 . S
C103 H71 0.929 . S
C103 C102 1.267 . S
C103 C104 1.251 . S
C104 H74 0.929 . S
C104 N100 1.418 . S
C104 C103 1.251 . S
C105 H72 0.930 . S
C105 C107 1.406 . S
C105 C110 1.261 . S
C106 H73 0.930 . S
C106 N108 1.325 . S
C106 C109 1.357 . S
C107 H75 0.928 . S
C107 C105 1.406 . S
C107 N108 1.261 . S
N108 Co59 2.214 . S
N108 C106 1.325 . S
N108 C107 1.261 . S
C109 H79 0.931 . S
C109 C106 1.357 . S
C109 C110 1.312 . S
C110 H81 0.930 . S
C110 C105 1.261 . S
C110 C109 1.312 . S
C111 O83 1.214 . S
C111 O91 1.234 . S
C112 H84 0.929 . S
C112 C115 1.391 . S
C112 C117 1.391 . S
C113 H85 0.929 . S
C113 C114 1.390 . S
C113 N116 1.391 . S
C114 H86 0.930 . S
C114 C113 1.390 . S
C114 C115 1.392 . S
C115 H87 0.929 . S
C115 C112 1.391 . S
C115 C114 1.392 . S
N116 Co60 2.257 . S
N116 C113 1.391 . S
N116 C117 1.388 . S
C117 H88 0.930 . S
C117 C112 1.391 . S
C117 N116 1.388 . S
Co118 O120 2.143 . S
Co118 O126 2.074 . S
Co118 O129 2.093 . S
Co118 O142 2.097 . S
Co118 N159 2.151 . S
Co118 N167 2.214 . S
Co119 O120 2.160 . S
Co119 O125 2.058 . S
Co119 O135 2.057 . S
Co119 O150 2.037 . S
Co119 N154 2.145 . S
Co119 N175 2.257 . S
O120 Co118 2.143 . S
O120 Co119 2.160 . S
C121 O122 1.278 . S
C121 O129 1.224 . S
O122 C121 1.278 . S
C123 O124 1.245 . S
C123 O135 1.232 . S
O124 C123 1.245 . S
O125 Co119 2.058 . S
O125 C151 1.269 . S
O126 Co118 2.074 . S
O126 C151 1.257 . S
H127 C152 0.930 . S
H128 C158 0.930 . S
O129 Co118 2.093 . S
O129 C121 1.224 . S
H130 C162 0.929 . S
H131 C164 0.930 . S
H132 C165 0.930 . S
H133 C163 0.929 . S
H134 C166 0.928 . S
O135 Co119 2.057 . S
O135 C123 1.232 . S
H136 C155 0.929 . S
H137 C156 0.929 . S
H138 C168 0.931 . S
H139 C160 0.929 . S
H140 C169 0.930 . S
H141 C161 0.931 . S
O142 Co118 2.097 . S
O142 C170 1.214 . S
H143 C171 0.929 . S
H144 C172 0.929 . S
H145 C173 0.930 . S
H146 C174 0.929 . S
H147 C176 0.930 . S
H148 C153 0.930 . S
H149 C157 0.930 . S
O150 Co119 2.037 . S
O150 C170 1.234 . S
C151 O125 1.269 . S
C151 O126 1.257 . S
C152 H127 0.930 . S
C152 C155 1.388 . S
C152 C157 1.418 . S
C153 H148 0.930 . S
C153 C156 1.404 . S
C153 C157 1.353 . S
N154 Co119 2.145 . S
N154 C155 1.397 . S
N154 C156 1.334 . S
C155 H136 0.929 . S
C155 C152 1.388 . S
C155 N154 1.397 . S
C156 H137 0.929 . S
C156 C153 1.404 . S
C156 N154 1.334 . S
C157 H149 0.930 . S
C157 C152 1.418 . S
C157 C153 1.353 . S
C158 H128 0.930 . S
C158 N159 1.330 . S
C158 C160 1.446 . S
N159 Co118 2.151 . S
N159 C158 1.330 . S
N159 C163 1.418 . S
C160 H139 0.929 . S
C160 C158 1.446 . S
C160 C161 1.332 . S
C161 H141 0.931 . S
C161 C160 1.332 . S
C161 C162 1.267 . S
C162 H130 0.929 . S
C162 C161 1.267 . S
C162 C163 1.251 . S
C163 H133 0.929 . S
C163 N159 1.418 . S
C163 C162 1.251 . S
C164 H131 0.930 . S
C164 C166 1.406 . S
C164 C169 1.261 . S
C165 H132 0.930 . S
C165 N167 1.325 . S
C165 C168 1.357 . S
C166 H134 0.928 . S
C166 C164 1.406 . S
C166 N167 1.261 . S
N167 Co118 2.214 . S
N167 C165 1.325 . S
N167 C166 1.261 . S
C168 H138 0.931 . S
C168 C165 1.357 . S
C168 C169 1.312 . S
C169 H140 0.930 . S
C169 C164 1.261 . S
C169 C168 1.312 . S
C170 O142 1.214 . S
C170 O150 1.234 . S
C171 H143 0.929 . S
C171 C174 1.391 . S
C171 C176 1.391 . S
C172 H144 0.929 . S
C172 C173 1.390 . S
C172 N175 1.391 . S
C173 H145 0.930 . S
C173 C172 1.390 . S
C173 C174 1.392 . S
C174 H146 0.929 . S
C174 C171 1.391 . S
C174 C173 1.392 . S
N175 Co119 2.257 . S
N175 C172 1.391 . S
N175 C176 1.388 . S
C176 H147 0.930 . S
C176 C171 1.391 . S
C176 N175 1.388 . S
Co177 O179 2.143 . S
Co177 O185 2.074 . S
Co177 O188 2.093 . S
Co177 O201 2.097 . S
Co177 N218 2.151 . S
Co177 N226 2.214 . S
Co178 O179 2.160 . S
Co178 O184 2.058 . S
Co178 O194 2.057 . S
Co178 O209 2.037 . S
Co178 N213 2.145 . S
Co178 N234 2.257 . S
O179 Co177 2.143 . S
O179 Co178 2.160 . S
C180 O181 1.278 . S
C180 O188 1.224 . S
O181 C180 1.278 . S
C182 O183 1.245 . S
C182 O194 1.232 . S
O183 C182 1.245 . S
O184 Co178 2.058 . S
O184 C210 1.269 . S
O185 Co177 2.074 . S
O185 C210 1.257 . S
H186 C211 0.930 . S
H187 C217 0.930 . S
O188 Co177 2.093 . S
O188 C180 1.224 . S
H189 C221 0.929 . S
H190 C223 0.930 . S
H191 C224 0.930 . S
H192 C222 0.929 . S
H193 C225 0.928 . S
O194 Co178 2.057 . S
O194 C182 1.232 . S
H195 C214 0.929 . S
H196 C215 0.929 . S
H197 C227 0.931 . S
H198 C219 0.929 . S
H199 C228 0.930 . S
H200 C220 0.931 . S
O201 Co177 2.097 . S
O201 C229 1.214 . S
H202 C230 0.929 . S
H203 C231 0.929 . S
H204 C232 0.930 . S
H205 C233 0.929 . S
H206 C235 0.930 . S
H207 C212 0.930 . S
H208 C216 0.930 . S
O209 Co178 2.037 . S
O209 C229 1.234 . S
C210 O184 1.269 . S
C210 O185 1.257 . S
C211 H186 0.930 . S
C211 C214 1.388 . S
C211 C216 1.418 . S
C212 H207 0.930 . S
C212 C215 1.404 . S
C212 C216 1.353 . S
N213 Co178 2.145 . S
N213 C214 1.397 . S
N213 C215 1.334 . S
C214 H195 0.929 . S
C214 C211 1.388 . S
C214 N213 1.397 . S
C215 H196 0.929 . S
C215 C212 1.404 . S
C215 N213 1.334 . S
C216 H208 0.930 . S
C216 C211 1.418 . S
C216 C212 1.353 . S
C217 H187 0.930 . S
C217 N218 1.330 . S
C217 C219 1.446 . S
N218 Co177 2.151 . S
N218 C217 1.330 . S
N218 C222 1.418 . S
C219 H198 0.929 . S
C219 C217 1.446 . S
C219 C220 1.332 . S
C220 H200 0.931 . S
C220 C219 1.332 . S
C220 C221 1.267 . S
C221 H189 0.929 . S
C221 C220 1.267 . S
C221 C222 1.251 . S
C222 H192 0.929 . S
C222 N218 1.418 . S
C222 C221 1.251 . S
C223 H190 0.930 . S
C223 C225 1.406 . S
C223 C228 1.261 . S
C224 H191 0.930 . S
C224 N226 1.325 . S
C224 C227 1.357 . S
C225 H193 0.928 . S
C225 C223 1.406 . S
C225 N226 1.261 . S
N226 Co177 2.214 . S
N226 C224 1.325 . S
N226 C225 1.261 . S
C227 H197 0.931 . S
C227 C224 1.357 . S
C227 C228 1.312 . S
C228 H199 0.930 . S
C228 C223 1.261 . S
C228 C227 1.312 . S
C229 O201 1.214 . S
C229 O209 1.234 . S
C230 H202 0.929 . S
C230 C233 1.391 . S
C230 C235 1.391 . S
C231 H203 0.929 . S
C231 C232 1.390 . S
C231 N234 1.391 . S
C232 H204 0.930 . S
C232 C231 1.390 . S
C232 C233 1.392 . S
C233 H205 0.929 . S
C233 C230 1.391 . S
C233 C232 1.392 . S
N234 Co178 2.257 . S
N234 C231 1.391 . S
N234 C235 1.388 . S
C235 H206 0.930 . S
C235 C230 1.391 . S
C235 N234 1.388 . S
Co236 O238 2.143 . S
Co236 O244 2.074 . S
Co236 O247 2.093 . S
Co236 O260 2.097 . S
Co236 N277 2.151 . S
Co236 N285 2.214 . S
Co237 O238 2.160 . S
Co237 O243 2.058 . S
Co237 O253 2.057 . S
Co237 O268 2.037 . S
Co237 N272 2.145 . S
Co237 N293 2.257 . S
O238 Co236 2.143 . S
O238 Co237 2.160 . S
C239 O240 1.278 . S
C239 O247 1.224 . S
O240 C239 1.278 . S
C241 O242 1.245 . S
C241 O253 1.232 . S
O242 C241 1.245 . S
O243 Co237 2.058 . S
O243 C269 1.269 . S
O244 Co236 2.074 . S
O244 C269 1.257 . S
H245 C270 0.930 . S
H246 C276 0.930 . S
O247 Co236 2.093 . S
O247 C239 1.224 . S
H248 C280 0.929 . S
H249 C282 0.930 . S
H250 C283 0.930 . S
H251 C281 0.929 . S
H252 C284 0.928 . S
O253 Co237 2.057 . S
O253 C241 1.232 . S
H254 C273 0.929 . S
H255 C274 0.929 . S
H256 C286 0.931 . S
H257 C278 0.929 . S
H258 C287 0.930 . S
H259 C279 0.931 . S
O260 Co236 2.097 . S
O260 C288 1.214 . S
H261 C289 0.929 . S
H262 C290 0.929 . S
H263 C291 0.930 . S
H264 C292 0.929 . S
H265 C294 0.930 . S
H266 C271 0.930 . S
H267 C275 0.930 . S
O268 Co237 2.037 . S
O268 C288 1.234 . S
C269 O243 1.269 . S
C269 O244 1.257 . S
C270 H245 0.930 . S
C270 C273 1.388 . S
C270 C275 1.418 . S
C271 H266 0.930 . S
C271 C274 1.404 . S
C271 C275 1.353 . S
N272 Co237 2.145 . S
N272 C273 1.397 . S
N272 C274 1.334 . S
C273 H254 0.929 . S
C273 C270 1.388 . S
C273 N272 1.397 . S
C274 H255 0.929 . S
C274 C271 1.404 . S
C274 N272 1.334 . S
C275 H267 0.930 . S
C275 C270 1.418 . S
C275 C271 1.353 . S
C276 H246 0.930 . S
C276 N277 1.330 . S
C276 C278 1.446 . S
N277 Co236 2.151 . S
N277 C276 1.330 . S
N277 C281 1.418 . S
C278 H257 0.929 . S
C278 C276 1.446 . S
C278 C279 1.332 . S
C279 H259 0.931 . S
C279 C278 1.332 . S
C279 C280 1.267 . S
C280 H248 0.929 . S
C280 C279 1.267 . S
C280 C281 1.251 . S
C281 H251 0.929 . S
C281 N277 1.418 . S
C281 C280 1.251 . S
C282 H249 0.930 . S
C282 C284 1.406 . S
C282 C287 1.261 . S
C283 H250 0.930 . S
C283 N285 1.325 . S
C283 C286 1.357 . S
C284 H252 0.928 . S
C284 C282 1.406 . S
C284 N285 1.261 . S
N285 Co236 2.214 . S
N285 C283 1.325 . S
N285 C284 1.261 . S
C286 H256 0.931 . S
C286 C283 1.357 . S
C286 C287 1.312 . S
C287 H258 0.930 . S
C287 C282 1.261 . S
C287 C286 1.312 . S
C288 O260 1.214 . S
C288 O268 1.234 . S
C289 H261 0.929 . S
C289 C292 1.391 . S
C289 C294 1.391 . S
C290 H262 0.929 . S
C290 C291 1.390 . S
C290 N293 1.391 . S
C291 H263 0.930 . S
C291 C290 1.390 . S
C291 C292 1.392 . S
C292 H264 0.929 . S
C292 C289 1.391 . S
C292 C291 1.392 . S
N293 Co237 2.257 . S
N293 C290 1.391 . S
N293 C294 1.388 . S
C294 H265 0.930 . S
C294 C289 1.391 . S
C294 N293 1.388 . S
Co295 O297 2.143 . S
Co295 O303 2.074 . S
Co295 O306 2.093 . S
Co295 O319 2.097 . S
Co295 N336 2.151 . S
Co295 N344 2.214 . S
Co296 O297 2.160 . S
Co296 O302 2.058 . S
Co296 O312 2.057 . S
Co296 O327 2.037 . S
Co296 N331 2.145 . S
Co296 N352 2.257 . S
O297 Co295 2.143 . S
O297 Co296 2.160 . S
C298 O299 1.278 . S
C298 O306 1.224 . S
O299 C298 1.278 . S
C300 O301 1.245 . S
C300 O312 1.232 . S
O301 C300 1.245 . S
O302 Co296 2.058 . S
O302 C328 1.269 . S
O303 Co295 2.074 . S
O303 C328 1.257 . S
H304 C329 0.930 . S
H305 C335 0.930 . S
O306 Co295 2.093 . S
O306 C298 1.224 . S
H307 C339 0.929 . S
H308 C341 0.930 . S
H309 C342 0.930 . S
H310 C340 0.929 . S
H311 C343 0.928 . S
O312 Co296 2.057 . S
O312 C300 1.232 . S
H313 C332 0.929 . S
H314 C333 0.929 . S
H315 C345 0.931 . S
H316 C337 0.929 . S
H317 C346 0.930 . S
H318 C338 0.931 . S
O319 Co295 2.097 . S
O319 C347 1.214 . S
H320 C348 0.929 . S
H321 C349 0.929 . S
H322 C350 0.930 . S
H323 C351 0.929 . S
H324 C353 0.930 . S
H325 C330 0.930 . S
H326 C334 0.930 . S
O327 Co296 2.037 . S
O327 C347 1.234 . S
C328 O302 1.269 . S
C328 O303 1.257 . S
C329 H304 0.930 . S
C329 C332 1.388 . S
C329 C334 1.418 . S
C330 H325 0.930 . S
C330 C333 1.404 . S
C330 C334 1.353 . S
N331 Co296 2.145 . S
N331 C332 1.397 . S
N331 C333 1.334 . S
C332 H313 0.929 . S
C332 C329 1.388 . S
C332 N331 1.397 . S
C333 H314 0.929 . S
C333 C330 1.404 . S
C333 N331 1.334 . S
C334 H326 0.930 . S
C334 C329 1.418 . S
C334 C330 1.353 . S
C335 H305 0.930 . S
C335 N336 1.330 . S
C335 C337 1.446 . S
N336 Co295 2.151 . S
N336 C335 1.330 . S
N336 C340 1.418 . S
C337 H316 0.929 . S
C337 C335 1.446 . S
C337 C338 1.332 . S
C338 H318 0.931 . S
C338 C337 1.332 . S
C338 C339 1.267 . S
C339 H307 0.929 . S
C339 C338 1.267 . S
C339 C340 1.251 . S
C340 H310 0.929 . S
C340 N336 1.418 . S
C340 C339 1.251 . S
C341 H308 0.930 . S
C341 C343 1.406 . S
C341 C346 1.261 . S
C342 H309 0.930 . S
C342 N344 1.325 . S
C342 C345 1.357 . S
C343 H311 0.928 . S
C343 C341 1.406 . S
C343 N344 1.261 . S
N344 Co295 2.214 . S
N344 C342 1.325 . S
N344 C343 1.261 . S
C345 H315 0.931 . S
C345 C342 1.357 . S
C345 C346 1.312 . S
C346 H317 0.930 . S
C346 C341 1.261 . S
C346 C345 1.312 . S
C347 O319 1.214 . S
C347 O327 1.234 . S
C348 H320 0.929 . S
C348 C351 1.391 . S
C348 C353 1.391 . S
C349 H321 0.929 . S
C349 C350 1.390 . S
C349 N352 1.391 . S
C350 H322 0.930 . S
C350 C349 1.390 . S
C350 C351 1.392 . S
C351 H323 0.929 . S
C351 C348 1.391 . S
C351 C350 1.392 . S
N352 Co296 2.257 . S
N352 C349 1.391 . S
N352 C353 1.388 . S
C353 H324 0.930 . S
C353 C348 1.391 . S
C353 N352 1.388 . S
H354 C372 0.951 . S
H355 C374 0.951 . S
H356 C376 0.950 . S
H357 C377 0.950 . S
H358 C379 0.950 . S
H359 C382 0.950 . S
H360 C383 0.950 . S
H361 C385 0.950 . S
H362 C386 0.950 . S
H363 C387 0.951 . S
H364 C389 0.951 . S
H365 C391 0.950 . S
H366 C392 0.950 . S
H367 C394 0.950 . S
H368 C397 0.950 . S
H369 C398 0.950 . S
H370 C400 0.950 . S
H371 C401 0.950 . S
C372 H354 0.951 . S
C372 C373 1.366 . S
C372 C374 1.388 . S
C373 C372 1.366 . S
C373 C377 1.385 . S
C374 H355 0.951 . S
C374 C372 1.388 . S
C374 C375 1.366 . S
C375 C374 1.366 . S
C375 C376 1.414 . S
C375 C378 1.499 . S
C376 H356 0.950 . S
C376 C375 1.414 . S
C376 C377 1.374 . S
C377 H357 0.950 . S
C377 C373 1.385 . S
C377 C376 1.374 . S
C378 C375 1.499 . S
C378 C379 1.373 . S
C378 C380 1.389 . S
C379 H358 0.950 . S
C379 C378 1.373 . S
C379 C395 1.377 . S
C380 C378 1.389 . S
C380 C381 1.524 . S
C380 C394 1.377 . S
C381 C380 1.524 . S
C381 C382 1.397 . S
C381 C386 1.363 . S
C382 H359 0.950 . S
C382 C381 1.397 . S
C382 C383 1.334 . S
C383 H360 0.950 . S
C383 C382 1.334 . S
C383 C384 1.287 . S
C384 C383 1.287 . S
C384 C385 1.524 . S
C384 H403 0.913 . S
C385 H361 0.950 . S
C385 C384 1.524 . S
C385 C386 1.415 . S
C386 H362 0.950 . S
C386 C381 1.363 . S
C386 C385 1.415 . S
C387 H363 0.951 . S
C387 C388 1.366 . S
C387 C389 1.388 . S
C388 C387 1.366 . S
C388 C392 1.385 . S
C389 H364 0.951 . S
C389 C387 1.388 . S
C389 C390 1.366 . S
C390 C389 1.366 . S
C390 C391 1.414 . S
C390 C393 1.499 . S
C391 H365 0.950 . S
C391 C390 1.414 . S
C391 C392 1.374 . S
C392 H366 0.950 . S
C392 C388 1.385 . S
C392 C391 1.374 . S
C393 C390 1.499 . S
C393 C394 1.373 . S
C393 C395 1.389 . S
C394 H367 0.950 . S
C394 C380 1.377 . S
C394 C393 1.373 . S
C395 C379 1.377 . S
C395 C393 1.389 . S
C395 C396 1.524 . S
C396 C395 1.524 . S
C396 C397 1.397 . S
C396 C401 1.363 . S
C397 H368 0.950 . S
C397 C396 1.397 . S
C397 C398 1.334 . S
C398 H369 0.950 . S
C398 C397 1.334 . S
C398 C399 1.287 . S
C399 C398 1.287 . S
C399 C400 1.524 . S
C399 H402 0.999 . S
C400 H370 0.950 . S
C400 C399 1.524 . S
C400 C401 1.415 . S
C401 H371 0.950 . S
C401 C396 1.363 . S
C401 C400 1.415 . S
H402 C399 0.999 . S
H403 C384 0.913 . S
H404 C422 0.951 . S
H405 C424 0.951 . S
H406 C426 0.950 . S
H407 C427 0.950 . S
H408 C429 0.950 . S
H409 C432 0.950 . S
H410 C433 0.950 . S
H411 C435 0.950 . S
H412 C436 0.950 . S
H413 C437 0.951 . S
H414 C439 0.951 . S
H415 C441 0.950 . S
H416 C442 0.950 . S
H417 C444 0.950 . S
H418 C447 0.950 . S
H419 C448 0.950 . S
H420 C450 0.950 . S
H421 C451 0.950 . S
C422 H404 0.951 . S
C422 C423 1.366 . S
C422 C424 1.388 . S
C423 C422 1.366 . S
C423 C427 1.385 . S
C424 H405 0.951 . S
C424 C422 1.388 . S
C424 C425 1.366 . S
C425 C424 1.366 . S
C425 C426 1.414 . S
C425 C428 1.499 . S
C426 H406 0.950 . S
C426 C425 1.414 . S
C426 C427 1.374 . S
C427 H407 0.950 . S
C427 C423 1.385 . S
C427 C426 1.374 . S
C428 C425 1.499 . S
C428 C429 1.373 . S
C428 C430 1.389 . S
C429 H408 0.950 . S
C429 C428 1.373 . S
C429 C445 1.377 . S
C430 C428 1.389 . S
C430 C431 1.524 . S
C430 C444 1.377 . S
C431 C430 1.524 . S
C431 C432 1.397 . S
C431 C436 1.363 . S
C432 H409 0.950 . S
C432 C431 1.397 . S
C432 C433 1.334 . S
C433 H410 0.950 . S
C433 C432 1.334 . S
C433 C434 1.287 . S
C434 C433 1.287 . S
C434 C435 1.524 . S
C434 H453 0.913 . S
C435 H411 0.950 . S
C435 C434 1.524 . S
C435 C436 1.415 . S
C436 H412 0.950 . S
C436 C431 1.363 . S
C436 C435 1.415 . S
C437 H413 0.951 . S
C437 C438 1.366 . S
C437 C439 1.388 . S
C438 C437 1.366 . S
C438 C442 1.385 . S
C439 H414 0.951 . S
C439 C437 1.388 . S
C439 C440 1.366 . S
C440 C439 1.366 . S
C440 C441 1.414 . S
C440 C443 1.499 . S
C441 H415 0.950 . S
C441 C440 1.414 . S
C441 C442 1.374 . S
C442 H416 0.950 . S
C442 C438 1.385 . S
C442 C441 1.374 . S
C443 C440 1.499 . S
C443 C444 1.373 . S
C443 C445 1.389 . S
C444 H417 0.950 . S
C444 C430 1.377 . S
C444 C443 1.373 . S
C445 C429 1.377 . S
C445 C443 1.389 . S
C445 C446 1.524 . S
C446 C445 1.524 . S
C446 C447 1.397 . S
C446 C451 1.363 . S
C447 H418 0.950 . S
C447 C446 1.397 . S
C447 C448 1.334 . S
C448 H419 0.950 . S
C448 C447 1.334 . S
C448 C449 1.287 . S
C449 C448 1.287 . S
C449 C450 1.524 . S
C449 H452 0.999 . S
C450 H420 0.950 . S
C450 C449 1.524 . S
C450 C451 1.415 . S
C451 H421 0.950 . S
C451 C446 1.363 . S
C451 C450 1.415 . S
H452 C449 0.999 . S
H453 C434 0.913 . S
H454 C472 0.951 . S
H455 C474 0.951 . S
H456 C476 0.950 . S
H457 C477 0.950 . S
H458 C479 0.950 . S
H459 C482 0.950 . S
H460 C483 0.950 . S
H461 C485 0.950 . S
H462 C486 0.950 . S
H463 C487 0.951 . S
H464 C489 0.951 . S
H465 C491 0.950 . S
H466 C492 0.950 . S
H467 C494 0.950 . S
H468 C497 0.950 . S
H469 C498 0.950 . S
H470 C500 0.950 . S
H471 C501 0.950 . S
C472 H454 0.951 . S
C472 C473 1.366 . S
C472 C474 1.388 . S
C473 C472 1.366 . S
C473 C477 1.385 . S
C474 H455 0.951 . S
C474 C472 1.388 . S
C474 C475 1.366 . S
C475 C474 1.366 . S
C475 C476 1.414 . S
C475 C478 1.499 . S
C476 H456 0.950 . S
C476 C475 1.414 . S
C476 C477 1.374 . S
C477 H457 0.950 . S
C477 C473 1.385 . S
C477 C476 1.374 . S
C478 C475 1.499 . S
C478 C479 1.373 . S
C478 C480 1.389 . S
C479 H458 0.950 . S
C479 C478 1.373 . S
C479 C495 1.377 . S
C480 C478 1.389 . S
C480 C481 1.524 . S
C480 C494 1.377 . S
C481 C480 1.524 . S
C481 C482 1.397 . S
C481 C486 1.363 . S
C482 H459 0.950 . S
C482 C481 1.397 . S
C482 C483 1.334 . S
C483 H460 0.950 . S
C483 C482 1.334 . S
C483 C484 1.287 . S
C484 C483 1.287 . S
C484 C485 1.524 . S
C484 H503 0.913 . S
C485 H461 0.950 . S
C485 C484 1.524 . S
C485 C486 1.415 . S
C486 H462 0.950 . S
C486 C481 1.363 . S
C486 C485 1.415 . S
C487 H463 0.951 . S
C487 C488 1.366 . S
C487 C489 1.388 . S
C488 C487 1.366 . S
C488 C492 1.385 . S
C489 H464 0.951 . S
C489 C487 1.388 . S
C489 C490 1.366 . S
C490 C489 1.366 . S
C490 C491 1.414 . S
C490 C493 1.499 . S
C491 H465 0.950 . S
C491 C490 1.414 . S
C491 C492 1.374 . S
C492 H466 0.950 . S
C492 C488 1.385 . S
C492 C491 1.374 . S
C493 C490 1.499 . S
C493 C494 1.373 . S
C493 C495 1.389 . S
C494 H467 0.950 . S
C494 C480 1.377 . S
C494 C493 1.373 . S
C495 C479 1.377 . S
C495 C493 1.389 . S
C495 C496 1.524 . S
C496 C495 1.524 . S
C496 C497 1.397 . S
C496 C501 1.363 . S
C497 H468 0.950 . S
C497 C496 1.397 . S
C497 C498 1.334 . S
C498 H469 0.950 . S
C498 C497 1.334 . S
C498 C499 1.287 . S
C499 C498 1.287 . S
C499 C500 1.524 . S
C499 H502 0.999 . S
C500 H470 0.950 . S
C500 C499 1.524 . S
C500 C501 1.415 . S
C501 H471 0.950 . S
C501 C496 1.363 . S
C501 C500 1.415 . S
H502 C499 0.999 . S
H503 C484 0.913 . S
H504 C522 0.951 . S
H505 C524 0.951 . S
H506 C526 0.950 . S
H507 C527 0.950 . S
H508 C529 0.950 . S
H509 C532 0.950 . S
H510 C533 0.950 . S
H511 C535 0.950 . S
H512 C536 0.950 . S
H513 C537 0.951 . S
H514 C539 0.951 . S
H515 C541 0.950 . S
H516 C542 0.950 . S
H517 C544 0.950 . S
H518 C547 0.950 . S
H519 C548 0.950 . S
H520 C550 0.950 . S
H521 C551 0.950 . S
C522 H504 0.951 . S
C522 C523 1.366 . S
C522 C524 1.388 . S
C523 C522 1.366 . S
C523 C527 1.385 . S
C524 H505 0.951 . S
C524 C522 1.388 . S
C524 C525 1.366 . S
C525 C524 1.366 . S
C525 C526 1.414 . S
C525 C528 1.499 . S
C526 H506 0.950 . S
C526 C525 1.414 . S
C526 C527 1.374 . S
C527 H507 0.950 . S
C527 C523 1.385 . S
C527 C526 1.374 . S
C528 C525 1.499 . S
C528 C529 1.373 . S
C528 C530 1.389 . S
C529 H508 0.950 . S
C529 C528 1.373 . S
C529 C545 1.377 . S
C530 C528 1.389 . S
C530 C531 1.524 . S
C530 C544 1.377 . S
C531 C530 1.524 . S
C531 C532 1.397 . S
C531 C536 1.363 . S
C532 H509 0.950 . S
C532 C531 1.397 . S
C532 C533 1.334 . S
C533 H510 0.950 . S
C533 C532 1.334 . S
C533 C534 1.287 . S
C534 C533 1.287 . S
C534 C535 1.524 . S
C534 H553 0.913 . S
C535 H511 0.950 . S
C535 C534 1.524 . S
C535 C536 1.415 . S
C536 H512 0.950 . S
C536 C531 1.363 . S
C536 C535 1.415 . S
C537 H513 0.951 . S
C537 C538 1.366 . S
C537 C539 1.388 . S
C538 C537 1.366 . S
C538 C542 1.385 . S
C539 H514 0.951 . S
C539 C537 1.388 . S
C539 C540 1.366 . S
C540 C539 1.366 . S
C540 C541 1.414 . S
C540 C543 1.499 . S
C541 H515 0.950 . S
C541 C540 1.414 . S
C541 C542 1.374 . S
C542 H516 0.950 . S
C542 C538 1.385 . S
C542 C541 1.374 . S
C543 C540 1.499 . S
C543 C544 1.373 . S
C543 C545 1.389 . S
C544 H517 0.950 . S
C544 C530 1.377 . S
C544 C543 1.373 . S
C545 C529 1.377 . S
C545 C543 1.389 . S
C545 C546 1.524 . S
C546 C545 1.524 . S
C546 C547 1.397 . S
C546 C551 1.363 . S
C547 H518 0.950 . S
C547 C546 1.397 . S
C547 C548 1.334 . S
C548 H519 0.950 . S
C548 C547 1.334 . S
C548 C549 1.287 . S
C549 C548 1.287 . S
C549 C550 1.524 . S
C549 H552 0.999 . S
C550 H520 0.950 . S
C550 C549 1.524 . S
C550 C551 1.415 . S
C551 H521 0.950 . S
C551 C546 1.363 . S
C551 C550 1.415 . S
H552 C549 0.999 . S
H553 C534 0.913 . S
H554 C572 0.951 . S
H555 C574 0.951 . S
H556 C576 0.950 . S
H557 C577 0.950 . S
H558 C579 0.950 . S
H559 C582 0.950 . S
H560 C583 0.950 . S
H561 C585 0.950 . S
H562 C586 0.950 . S
H563 C587 0.951 . S
H564 C589 0.951 . S
H565 C591 0.950 . S
H566 C592 0.950 . S
H567 C594 0.950 . S
H568 C597 0.950 . S
H569 C598 0.950 . S
H570 C600 0.950 . S
H571 C601 0.950 . S
C572 H554 0.951 . S
C572 C573 1.366 . S
C572 C574 1.388 . S
C573 C572 1.366 . S
C573 C577 1.385 . S
C574 H555 0.951 . S
C574 C572 1.388 . S
C574 C575 1.366 . S
C575 C574 1.366 . S
C575 C576 1.414 . S
C575 C578 1.499 . S
C576 H556 0.950 . S
C576 C575 1.414 . S
C576 C577 1.374 . S
C577 H557 0.950 . S
C577 C573 1.385 . S
C577 C576 1.374 . S
C578 C575 1.499 . S
C578 C579 1.373 . S
C578 C580 1.389 . S
C579 H558 0.950 . S
C579 C578 1.373 . S
C579 C595 1.377 . S
C580 C578 1.389 . S
C580 C581 1.524 . S
C580 C594 1.377 . S
C581 C580 1.524 . S
C581 C582 1.397 . S
C581 C586 1.363 . S
C582 H559 0.950 . S
C582 C581 1.397 . S
C582 C583 1.334 . S
C583 H560 0.950 . S
C583 C582 1.334 . S
C583 C584 1.287 . S
C584 C583 1.287 . S
C584 C585 1.524 . S
C584 H603 0.913 . S
C585 H561 0.950 . S
C585 C584 1.524 . S
C585 C586 1.415 . S
C586 H562 0.950 . S
C586 C581 1.363 . S
C586 C585 1.415 . S
C587 H563 0.951 . S
C587 C588 1.366 . S
C587 C589 1.388 . S
C588 C587 1.366 . S
C588 C592 1.385 . S
C589 H564 0.951 . S
C589 C587 1.388 . S
C589 C590 1.366 . S
C590 C589 1.366 . S
C590 C591 1.414 . S
C590 C593 1.499 . S
C591 H565 0.950 . S
C591 C590 1.414 . S
C591 C592 1.374 . S
C592 H566 0.950 . S
C592 C588 1.385 . S
C592 C591 1.374 . S
C593 C590 1.499 . S
C593 C594 1.373 . S
C593 C595 1.389 . S
C594 H567 0.950 . S
C594 C580 1.377 . S
C594 C593 1.373 . S
C595 C579 1.377 . S
C595 C593 1.389 . S
C595 C596 1.524 . S
C596 C595 1.524 . S
C596 C597 1.397 . S
C596 C601 1.363 . S
C597 H568 0.950 . S
C597 C596 1.397 . S
C597 C598 1.334 . S
C598 H569 0.950 . S
C598 C597 1.334 . S
C598 C599 1.287 . S
C599 C598 1.287 . S
C599 C600 1.524 . S
C599 H602 0.999 . S
C600 H570 0.950 . S
C600 C599 1.524 . S
C600 C601 1.415 . S
C601 H571 0.950 . S
C601 C596 1.363 . S
C601 C600 1.415 . S
H602 C599 0.999 . S
H603 C584 0.913 . S
H604 C622 0.951 . S
H605 C624 0.951 . S
H606 C626 0.950 . S
H607 C627 0.950 . S
H608 C629 0.950 . S
H609 C632 0.950 . S
H610 C633 0.950 . S
H611 C635 0.950 . S
H612 C636 0.950 . S
H613 C637 0.951 . S
H614 C639 0.951 . S
H615 C641 0.950 . S
H616 C642 0.950 . S
H617 C644 0.950 . S
H618 C647 0.950 . S
H619 C648 0.950 . S
H620 C650 0.950 . S
H621 C651 0.950 . S
C622 H604 0.951 . S
C622 C623 1.366 . S
C622 C624 1.388 . S
C623 C622 1.366 . S
C623 C627 1.385 . S
C624 H605 0.951 . S
C624 C622 1.388 . S
C624 C625 1.366 . S
C625 C624 1.366 . S
C625 C626 1.414 . S
C625 C628 1.499 . S
C626 H606 0.950 . S
C626 C625 1.414 . S
C626 C627 1.374 . S
C627 H607 0.950 . S
C627 C623 1.385 . S
C627 C626 1.374 . S
C628 C625 1.499 . S
C628 C629 1.373 . S
C628 C630 1.389 . S
C629 H608 0.950 . S
C629 C628 1.373 . S
C629 C645 1.377 . S
C630 C628 1.389 . S
C630 C631 1.524 . S
C630 C644 1.377 . S
C631 C630 1.524 . S
C631 C632 1.397 . S
C631 C636 1.363 . S
C632 H609 0.950 . S
C632 C631 1.397 . S
C632 C633 1.334 . S
C633 H610 0.950 . S
C633 C632 1.334 . S
C633 C634 1.287 . S
C634 C633 1.287 . S
C634 C635 1.524 . S
C634 H653 0.913 . S
C635 H611 0.950 . S
C635 C634 1.524 . S
C635 C636 1.415 . S
C636 H612 0.950 . S
C636 C631 1.363 . S
C636 C635 1.415 . S
C637 H613 0.951 . S
C637 C638 1.366 . S
C637 C639 1.388 . S
C638 C637 1.366 . S
C638 C642 1.385 . S
C639 H614 0.951 . S
C639 C637 1.388 . S
C639 C640 1.366 . S
C640 C639 1.366 . S
C640 C641 1.414 . S
C640 C643 1.499 . S
C641 H615 0.950 . S
C641 C640 1.414 . S
C641 C642 1.374 . S
C642 H616 0.950 . S
C642 C638 1.385 . S
C642 C641 1.374 . S
C643 C640 1.499 . S
C643 C644 1.373 . S
C643 C645 1.389 . S
C644 H617 0.950 . S
C644 C630 1.377 . S
C644 C643 1.373 . S
C645 C629 1.377 . S
C645 C643 1.389 . S
C645 C646 1.524 . S
C646 C645 1.524 . S
C646 C647 1.397 . S
C646 C651 1.363 . S
C647 H618 0.950 . S
C647 C646 1.397 . S
C647 C648 1.334 . S
C648 H619 0.950 . S
C648 C647 1.334 . S
C648 C649 1.287 . S
C649 C648 1.287 . S
C649 C650 1.524 . S
C649 H652 0.999 . S
C650 H620 0.950 . S
C650 C649 1.524 . S
C650 C651 1.415 . S
C651 H621 0.950 . S
C651 C646 1.363 . S
C651 C650 1.415 . S
H652 C649 0.999 . S
H653 C634 0.913 . S
H654 C672 0.951 . S
H655 C674 0.951 . S
H656 C676 0.950 . S
H657 C677 0.950 . S
H658 C679 0.967 . S
H659 C682 0.950 . S
H660 C683 0.950 . S
H661 C685 0.950 . S
H662 C686 0.950 . S
H663 C687 0.951 . S
H664 C689 0.951 . S
H665 C691 0.950 . S
H666 C692 0.950 . S
H667 C694 0.969 . S
H668 C697 0.950 . S
H669 C698 0.950 . S
H670 C700 0.950 . S
H671 C701 0.950 . S
C672 H654 0.951 . S
C672 C673 1.366 . S
C672 C674 1.388 . S
C673 C672 1.366 . S
C673 C677 1.385 . S
C674 H655 0.951 . S
C674 C672 1.388 . S
C674 C675 1.366 . S
C675 C674 1.366 . S
C675 C676 1.414 . S
C675 C678 1.499 . S
C676 H656 0.950 . S
C676 C675 1.414 . S
C676 C677 1.374 . S
C677 H657 0.950 . S
C677 C673 1.385 . S
C677 C676 1.374 . S
C678 C675 1.499 . S
C678 C679 1.375 . S
C678 C680 1.389 . S
C679 H658 0.967 . S
C679 C678 1.375 . S
C679 C695 1.359 1_566 S
C680 C678 1.389 . S
C680 C681 1.524 . S
C680 C694 1.357 1_566 S
C681 C680 1.524 . S
C681 C682 1.397 . S
C681 C686 1.363 1_556 S
C682 H659 0.950 . S
C682 C681 1.397 . S
C682 C683 1.334 . S
C683 H660 0.950 . S
C683 C682 1.334 . S
C683 C684 1.287 . S
C684 C683 1.287 . S
C684 C685 1.524 1_556 S
C684 H703 0.913 . S
C685 H661 0.950 . S
C685 C684 1.524 1_554 S
C685 C686 1.415 . S
C686 H662 0.950 . S
C686 C681 1.363 1_554 S
C686 C685 1.415 . S
C687 H663 0.951 . S
C687 C688 1.366 . S
C687 C689 1.388 . S
C688 C687 1.366 . S
C688 C692 1.385 . S
C689 H664 0.951 . S
C689 C687 1.388 . S
C689 C690 1.366 . S
C690 C689 1.366 . S
C690 C691 1.414 . S
C690 C693 1.499 . S
C691 H665 0.950 . S
C691 C690 1.414 . S
C691 C692 1.374 . S
C692 H666 0.950 . S
C692 C688 1.385 . S
C692 C691 1.374 . S
C693 C690 1.499 . S
C693 C694 1.376 . S
C693 C695 1.389 . S
C694 H667 0.969 . S
C694 C680 1.357 1_544 S
C694 C693 1.376 . S
C695 C679 1.359 1_544 S
C695 C693 1.389 . S
C695 C696 1.524 . S
C696 C695 1.524 . S
C696 C697 1.397 . S
C696 C701 1.363 1_554 S
C697 H668 0.950 . S
C697 C696 1.397 . S
C697 C698 1.334 . S
C698 H669 0.950 . S
C698 C697 1.334 . S
C698 C699 1.287 . S
C699 C698 1.287 . S
C699 C700 1.524 1_554 S
C699 H702 0.999 . S
C700 H670 0.950 . S
C700 C699 1.524 1_556 S
C700 C701 1.415 . S
C701 H671 0.950 . S
C701 C696 1.363 1_556 S
C701 C700 1.415 . S
H702 C699 0.999 . S
H703 C684 0.913 . S
H704 C722 0.951 . S
H705 C724 0.951 . S
H706 C726 0.950 . S
H707 C727 0.950 . S
H708 C729 0.950 . S
H709 C732 0.950 . S
H710 C733 0.950 . S
H711 C735 0.950 . S
H712 C736 0.950 . S
H713 C737 0.951 . S
H714 C739 0.951 . S
H715 C741 0.950 . S
H716 C742 0.950 . S
H717 C744 0.950 . S
H718 C747 0.950 . S
H719 C748 0.950 . S
H720 C750 0.950 . S
H721 C751 0.950 . S
C722 H704 0.951 . S
C722 C723 1.366 . S
C722 C724 1.388 . S
C723 C722 1.366 . S
C723 C727 1.385 . S
C724 H705 0.951 . S
C724 C722 1.388 . S
C724 C725 1.366 . S
C725 C724 1.366 . S
C725 C726 1.414 . S
C725 C728 1.499 . S
C726 H706 0.950 . S
C726 C725 1.414 . S
C726 C727 1.374 . S
C727 H707 0.950 . S
C727 C723 1.385 . S
C727 C726 1.374 . S
C728 C725 1.499 . S
C728 C729 1.373 . S
C728 C730 1.389 . S
C729 H708 0.950 . S
C729 C728 1.373 . S
C729 C745 1.377 . S
C730 C728 1.389 . S
C730 C731 1.524 . S
C730 C744 1.377 . S
C731 C730 1.524 . S
C731 C732 1.397 . S
C731 C736 1.363 . S
C732 H709 0.950 . S
C732 C731 1.397 . S
C732 C733 1.334 . S
C733 H710 0.950 . S
C733 C732 1.334 . S
C733 C734 1.287 . S
C734 C733 1.287 . S
C734 C735 1.524 . S
C734 H753 0.913 . S
C735 H711 0.950 . S
C735 C734 1.524 . S
C735 C736 1.415 . S
C736 H712 0.950 . S
C736 C731 1.363 . S
C736 C735 1.415 . S
C737 H713 0.951 . S
C737 C738 1.366 . S
C737 C739 1.388 . S
C738 C737 1.366 . S
C738 C742 1.385 . S
C739 H714 0.951 . S
C739 C737 1.388 . S
C739 C740 1.366 . S
C740 C739 1.366 . S
C740 C741 1.414 . S
C740 C743 1.499 . S
C741 H715 0.950 . S
C741 C740 1.414 . S
C741 C742 1.374 . S
C742 H716 0.950 . S
C742 C738 1.385 . S
C742 C741 1.374 . S
C743 C740 1.499 . S
C743 C744 1.373 . S
C743 C745 1.389 . S
C744 H717 0.950 . S
C744 C730 1.377 . S
C744 C743 1.373 . S
C745 C729 1.377 . S
C745 C743 1.389 . S
C745 C746 1.524 . S
C746 C745 1.524 . S
C746 C747 1.397 . S
C746 C751 1.363 . S
C747 H718 0.950 . S
C747 C746 1.397 . S
C747 C748 1.334 . S
C748 H719 0.950 . S
C748 C747 1.334 . S
C748 C749 1.287 . S
C749 C748 1.287 . S
C749 C750 1.524 . S
C749 H752 0.999 . S
C750 H720 0.950 . S
C750 C749 1.524 . S
C750 C751 1.415 . S
C751 H721 0.950 . S
C751 C746 1.363 . S
C751 C750 1.415 . S
H752 C749 0.999 . S
H753 C734 0.913 . S
H754 C772 0.951 . S
H755 C774 0.951 . S
H756 C776 0.950 . S
H757 C777 0.950 . S
H758 C779 0.950 . S
H759 C782 0.950 1_455 S
H760 C783 0.956 . S
H761 C785 0.950 . S
H762 C786 0.950 . S
H763 C787 0.951 . S
H764 C789 0.951 . S
H765 C791 0.950 . S
H766 C792 0.950 . S
H767 C794 0.951 . S
H768 C797 0.950 1_655 S
H769 C798 0.955 . S
H770 C800 0.950 . S
H771 C801 0.950 . S
C772 H754 0.951 . S
C772 C773 1.366 . S
C772 C774 1.388 . S
C773 C772 1.366 . S
C773 C777 1.385 . S
C774 H755 0.951 . S
C774 C772 1.388 . S
C774 C775 1.366 . S
C775 C774 1.366 . S
C775 C776 1.414 . S
C775 C778 1.499 . S
C776 H756 0.950 . S
C776 C775 1.414 . S
C776 C777 1.374 . S
C777 H757 0.950 . S
C777 C773 1.385 . S
C777 C776 1.374 . S
C778 C775 1.499 . S
C778 C779 1.374 1_556 S
C778 C780 1.389 1_455 S
C779 H758 0.950 . S
C779 C778 1.374 1_554 S
C779 C795 1.376 . S
C780 C778 1.389 1_655 S
C780 C781 1.524 . S
C780 C794 1.388 . S
C781 C780 1.524 . S
C781 C782 1.397 . S
C781 C786 1.363 . S
C782 H759 0.950 1_655 S
C782 C781 1.397 . S
C782 C783 1.334 . S
C783 H760 0.956 . S
C783 C782 1.334 . S
C783 C784 1.287 . S
C784 C783 1.287 . S
C784 C785 1.524 . S
C784 H803 0.913 . S
C785 H761 0.950 . S
C785 C784 1.524 . S
C785 C786 1.415 . S
C786 H762 0.950 . S
C786 C781 1.363 . S
C786 C785 1.415 . S
C787 H763 0.951 . S
C787 C788 1.366 . S
C787 C789 1.388 . S
C788 C787 1.366 . S
C788 C792 1.385 . S
C789 H764 0.951 . S
C789 C787 1.388 . S
C789 C790 1.366 . S
C790 C789 1.366 . S
C790 C791 1.414 . S
C790 C793 1.499 . S
C791 H765 0.950 . S
C791 C790 1.414 . S
C791 C792 1.374 . S
C792 H766 0.950 . S
C792 C788 1.385 . S
C792 C791 1.374 . S
C793 C790 1.499 . S
C793 C794 1.362 1_554 S
C793 C795 1.389 1_655 S
C794 H767 0.951 . S
C794 C780 1.388 . S
C794 C793 1.362 1_556 S
C795 C779 1.376 . S
C795 C793 1.389 1_455 S
C795 C796 1.524 . S
C796 C795 1.524 . S
C796 C797 1.397 . S
C796 C801 1.363 . S
C797 H768 0.950 1_455 S
C797 C796 1.397 . S
C797 C798 1.334 . S
C798 H769 0.955 . S
C798 C797 1.334 . S
C798 C799 1.287 . S
C799 C798 1.287 . S
C799 C800 1.524 . S
C799 H802 0.999 . S
C800 H770 0.950 . S
C800 C799 1.524 . S
C800 C801 1.415 . S
C801 H771 0.950 . S
C801 C796 1.363 . S
C801 C800 1.415 . S
H802 C799 0.999 . S
H803 C784 0.913 . S
H804 C822 0.951 . S
H805 C824 0.951 . S
H806 C826 0.950 . S
H807 C827 0.950 . S
H808 C829 0.950 . S
H809 C832 0.950 . S
H810 C833 0.950 . S
H811 C835 0.950 . S
H812 C836 0.950 . S
H813 C837 0.951 . S
H814 C839 0.951 . S
H815 C841 0.950 . S
H816 C842 0.950 . S
H817 C844 0.950 . S
H818 C847 0.950 . S
H819 C848 0.950 . S
H820 C850 0.950 . S
H821 C851 0.950 . S
C822 H804 0.951 . S
C822 C823 1.366 . S
C822 C824 1.388 . S
C823 C822 1.366 . S
C823 C827 1.385 . S
C824 H805 0.951 . S
C824 C822 1.388 . S
C824 C825 1.366 . S
C825 C824 1.366 . S
C825 C826 1.414 . S
C825 C828 1.499 . S
C826 H806 0.950 . S
C826 C825 1.414 . S
C826 C827 1.374 . S
C827 H807 0.950 . S
C827 C823 1.385 . S
C827 C826 1.374 . S
C828 C825 1.499 . S
C828 C829 1.373 1_545 S
C828 C830 1.389 . S
C829 H808 0.950 . S
C829 C828 1.373 1_565 S
C829 C845 1.377 . S
C830 C828 1.389 . S
C830 C831 1.524 . S
C830 C844 1.377 . S
C831 C830 1.524 . S
C831 C832 1.397 . S
C831 C836 1.363 . S
C832 H809 0.950 . S
C832 C831 1.397 . S
C832 C833 1.334 . S
C833 H810 0.950 . S
C833 C832 1.334 . S
C833 C834 1.287 . S
C834 C833 1.287 . S
C834 C835 1.524 . S
C834 H853 0.913 . S
C835 H811 0.950 . S
C835 C834 1.524 . S
C835 C836 1.415 . S
C836 H812 0.950 . S
C836 C831 1.363 . S
C836 C835 1.415 . S
C837 H813 0.951 . S
C837 C838 1.366 . S
C837 C839 1.388 . S
C838 C837 1.366 . S
C838 C842 1.385 . S
C839 H814 0.951 . S
C839 C837 1.388 . S
C839 C840 1.366 . S
C840 C839 1.366 . S
C840 C841 1.414 . S
C840 C843 1.499 . S
C841 H815 0.950 . S
C841 C840 1.414 . S
C841 C842 1.374 . S
C842 H816 0.950 . S
C842 C838 1.385 . S
C842 C841 1.374 . S
C843 C840 1.499 . S
C843 C844 1.373 1_565 S
C843 C845 1.389 . S
C844 H817 0.950 . S
C844 C830 1.377 . S
C844 C843 1.373 1_545 S
C845 C829 1.377 . S
C845 C843 1.389 . S
C845 C846 1.524 . S
C846 C845 1.524 . S
C846 C847 1.397 . S
C846 C851 1.363 . S
C847 H818 0.950 . S
C847 C846 1.397 . S
C847 C848 1.334 . S
C848 H819 0.950 . S
C848 C847 1.334 . S
C848 C849 1.287 . S
C849 C848 1.287 . S
C849 C850 1.524 . S
C849 H852 0.999 . S
C850 H820 0.950 . S
C850 C849 1.524 . S
C850 C851 1.415 . S
C851 H821 0.950 . S
C851 C846 1.363 . S
C851 C850 1.415 . S
H852 C849 0.999 . S
H853 C834 0.913 . S
H854 C872 0.951 . S
H855 C874 0.951 . S
H856 C876 0.950 . S
H857 C877 0.950 . S
H858 C879 0.950 . S
H859 C882 0.950 . S
H860 C883 0.950 . S
H861 C885 0.950 . S
H862 C886 0.950 . S
H863 C887 0.951 . S
H864 C889 0.951 . S
H865 C891 0.950 . S
H866 C892 0.950 . S
H867 C894 0.950 1_556 S
H868 C897 0.950 . S
H869 C898 0.950 . S
H870 C900 0.950 . S
H871 C901 0.950 . S
C872 H854 0.951 . S
C872 C873 1.366 . S
C872 C874 1.388 . S
C873 C872 1.366 . S
C873 C877 1.385 . S
C874 H855 0.951 . S
C874 C872 1.388 . S
C874 C875 1.366 . S
C875 C874 1.366 . S
C875 C876 1.414 . S
C875 C878 1.499 . S
C876 H856 0.950 . S
C876 C875 1.414 . S
C876 C877 1.374 . S
C877 H857 0.950 . S
C877 C873 1.385 . S
C877 C876 1.374 . S
C878 C875 1.499 . S
C878 C879 1.373 1_556 S
C878 C880 1.389 . S
C879 H858 0.950 . S
C879 C878 1.373 1_554 S
C879 C895 1.377 . S
C880 C878 1.389 . S
C880 C881 1.524 . S
C880 C894 1.377 1_556 S
C881 C880 1.524 . S
C881 C882 1.397 . S
C881 C886 1.363 . S
C882 H859 0.950 . S
C882 C881 1.397 . S
C882 C883 1.334 . S
C883 H860 0.950 . S
C883 C882 1.334 . S
C883 C884 1.287 . S
C884 C883 1.287 . S
C884 C885 1.524 . S
C884 H903 0.913 . S
C885 H861 0.950 . S
C885 C884 1.524 . S
C885 C886 1.415 . S
C886 H862 0.950 . S
C886 C881 1.363 . S
C886 C885 1.415 . S
C887 H863 0.951 . S
C887 C888 1.366 . S
C887 C889 1.388 . S
C888 C887 1.366 . S
C888 C892 1.385 . S
C889 H864 0.951 . S
C889 C887 1.388 . S
C889 C890 1.366 . S
C890 C889 1.366 . S
C890 C891 1.414 . S
C890 C893 1.499 . S
C891 H865 0.950 . S
C891 C890 1.414 . S
C891 C892 1.374 . S
C892 H866 0.950 . S
C892 C888 1.385 . S
C892 C891 1.374 . S
C893 C890 1.499 . S
C893 C894 1.373 . S
C893 C895 1.389 . S
C894 H867 0.950 1_554 S
C894 C880 1.377 1_554 S
C894 C893 1.373 . S
C895 C879 1.377 . S
C895 C893 1.389 . S
C895 C896 1.524 . S
C896 C895 1.524 . S
C896 C897 1.397 . S
C896 C901 1.363 . S
C897 H868 0.950 . S
C897 C896 1.397 . S
C897 C898 1.334 . S
C898 H869 0.950 . S
C898 C897 1.334 . S
C898 C899 1.287 . S
C899 C898 1.287 . S
C899 C900 1.524 . S
C899 H902 0.999 . S
C900 H870 0.950 . S
C900 C899 1.524 . S
C900 C901 1.415 . S
C901 H871 0.950 . S
C901 C896 1.363 . S
C901 C900 1.415 . S
H902 C899 0.999 . S
H903 C884 0.913 . S
H904 C922 0.951 . S
H905 C924 0.951 . S
H906 C926 0.950 . S
H907 C927 0.950 . S
H908 C929 0.950 . S
H909 C932 0.950 1_455 S
H910 C933 0.950 . S
H911 C935 0.950 . S
H912 C936 0.950 . S
H913 C937 0.951 . S
H914 C939 0.951 . S
H915 C941 0.950 . S
H916 C942 0.950 . S
H917 C944 0.950 . S
H918 C947 0.950 1_655 S
H919 C948 0.950 . S
H920 C950 0.950 . S
H921 C951 0.950 . S
C922 H904 0.951 . S
C922 C923 1.366 . S
C922 C924 1.388 . S
C923 C922 1.366 . S
C923 C927 1.385 . S
C924 H905 0.951 . S
C924 C922 1.388 . S
C924 C925 1.366 . S
C925 C924 1.366 . S
C925 C926 1.414 . S
C925 C928 1.499 . S
C926 H906 0.950 . S
C926 C925 1.414 . S
C926 C927 1.374 . S
C927 H907 0.950 . S
C927 C923 1.385 . S
C927 C926 1.374 . S
C928 C925 1.499 . S
C928 C929 1.373 . S
C928 C930 1.389 1_455 S
C929 H908 0.950 . S
C929 C928 1.373 . S
C929 C945 1.377 . S
C930 C928 1.389 1_655 S
C930 C931 1.524 . S
C930 C944 1.377 . S
C931 C930 1.524 . S
C931 C932 1.397 . S
C931 C936 1.363 . S
C932 H909 0.950 1_655 S
C932 C931 1.397 . S
C932 C933 1.334 . S
C933 H910 0.950 . S
C933 C932 1.334 . S
C933 C934 1.287 . S
C934 C933 1.287 . S
C934 C935 1.524 . S
C934 H953 0.913 . S
C935 H911 0.950 . S
C935 C934 1.524 . S
C935 C936 1.415 . S
C936 H912 0.950 . S
C936 C931 1.363 . S
C936 C935 1.415 . S
C937 H913 0.951 . S
C937 C938 1.366 . S
C937 C939 1.388 . S
C938 C937 1.366 . S
C938 C942 1.385 . S
C939 H914 0.951 . S
C939 C937 1.388 . S
C939 C940 1.366 . S
C940 C939 1.366 . S
C940 C941 1.414 . S
C940 C943 1.499 . S
C941 H915 0.950 . S
C941 C940 1.414 . S
C941 C942 1.374 . S
C942 H916 0.950 . S
C942 C938 1.385 . S
C942 C941 1.374 . S
C943 C940 1.499 . S
C943 C944 1.373 . S
C943 C945 1.389 1_655 S
C944 H917 0.950 . S
C944 C930 1.377 . S
C944 C943 1.373 . S
C945 C929 1.377 . S
C945 C943 1.389 1_455 S
C945 C946 1.524 . S
C946 C945 1.524 . S
C946 C947 1.397 . S
C946 C951 1.363 . S
C947 H918 0.950 1_455 S
C947 C946 1.397 . S
C947 C948 1.334 . S
C948 H919 0.950 . S
C948 C947 1.334 . S
C948 C949 1.287 . S
C949 C948 1.287 . S
C949 C950 1.524 . S
C949 H952 0.999 . S
C950 H920 0.950 . S
C950 C949 1.524 . S
C950 C951 1.415 . S
C951 H921 0.950 . S
C951 C946 1.363 . S
C951 C950 1.415 . S
H952 C949 0.999 . S
H953 C934 0.913 . S
C373 C52 1.162 . S
C388 C269 1.155 . S
C423 C111 1.162 . S
C438 C328 1.156 . S
C473 C33 1.156 . S
C488 C151 1.156 . S
C523 C210 1.156 . S
C538 C92 1.156 . S
C573 C288 1.162 . S
C588 C170 1.162 . S
C623 C229 1.163 . S
C638 C347 1.162 . S
C673 C180 1.465 . S
C688 C3 1.465 . S
C723 C241 1.473 . S
C738 C62 1.464 . S
C773 C300 1.473 . S
C788 C123 1.473 . S
C823 C5 1.474 . S
C838 C182 1.474 . S
C873 C64 1.473 . S
C888 C239 1.465 . S
C923 C298 1.464 . S
C938 C121 1.464 . S
