# Generated by pormake.
# Topology ull, (4)-cn, num edge types: 1
# Building blocks:
#     Node 0, Type 0, BuildingBlock: AZAVOO_clean_sbu_0, # of connection points: 4
#     Node 1, Type 0, BuildingBlock: AZAVOO_clean_sbu_0, # of connection points: 4
#     Node 2, Type 0, BuildingBlock: AZAVOO_clean_sbu_0, # of connection points: 4
#     Node 3, Type 0, BuildingBlock: AZAVOO_clean_sbu_0, # of connection points: 4
#     Node 4, Type 0, BuildingBlock: AZAVOO_clean_sbu_0, # of connection points: 4
#     Node 5, Type 0, BuildingBlock: AZAVOO_clean_sbu_0, # of connection points: 4
#     Node 6, Type 0, BuildingBlock: AZAVOO_clean_sbu_0, # of connection points: 4
#     Node 7, Type 0, BuildingBlock: AZAVOO_clean_sbu_0, # of connection points: 4
#     Node 8, Type 0, BuildingBlock: AZAVOO_clean_sbu_0, # of connection points: 4
#     Node 9, Type 0, BuildingBlock: AZAVOO_clean_sbu_0, # of connection points: 4
#     Node 10, Type 0, BuildingBlock: AZAVOO_clean_sbu_0, # of connection points: 4
#     Node 11, Type 0, BuildingBlock: AZAVOO_clean_sbu_0, # of connection points: 4
#     Node 12, Type 0, BuildingBlock: AZAVOO_clean_sbu_0, # of connection points: 4
#     Node 13, Type 0, BuildingBlock: AZAVOO_clean_sbu_0, # of connection points: 4
#     Node 14, Type 0, BuildingBlock: AZAVOO_clean_sbu_0, # of connection points: 4
#     Node 15, Type 0, BuildingBlock: AZAVOO_clean_sbu_0, # of connection points: 4
#     Node 16, Type 0, BuildingBlock: AZAVOO_clean_sbu_0, # of connection points: 4
#     Node 17, Type 0, BuildingBlock: AZAVOO_clean_sbu_0, # of connection points: 4
#     Node 18, Type 0, BuildingBlock: AZAVOO_clean_sbu_0, # of connection points: 4
#     Node 19, Type 0, BuildingBlock: AZAVOO_clean_sbu_0, # of connection points: 4
#     Node 20, Type 0, BuildingBlock: AZAVOO_clean_sbu_0, # of connection points: 4
#     Node 21, Type 0, BuildingBlock: AZAVOO_clean_sbu_0, # of connection points: 4
#     Node 22, Type 0, BuildingBlock: AZAVOO_clean_sbu_0, # of connection points: 4
#     Node 23, Type 0, BuildingBlock: AZAVOO_clean_sbu_0, # of connection points: 4
#     Node 24, Type 0, BuildingBlock: AZAVOO_clean_sbu_0, # of connection points: 4
#     Node 25, Type 0, BuildingBlock: AZAVOO_clean_sbu_0, # of connection points: 4
#     Node 26, Type 0, BuildingBlock: AZAVOO_clean_sbu_0, # of connection points: 4
#     Node 27, Type 0, BuildingBlock: AZAVOO_clean_sbu_0, # of connection points: 4
#     Node 28, Type 0, BuildingBlock: AZAVOO_clean_sbu_0, # of connection points: 4
#     Node 29, Type 0, BuildingBlock: AZAVOO_clean_sbu_0, # of connection points: 4
#     Node 30, Type 0, BuildingBlock: AZAVOO_clean_sbu_0, # of connection points: 4
#     Node 31, Type 0, BuildingBlock: AZAVOO_clean_sbu_0, # of connection points: 4
#     Node 32, Type 0, BuildingBlock: AZAVOO_clean_sbu_0, # of connection points: 4
#     Node 33, Type 0, BuildingBlock: AZAVOO_clean_sbu_0, # of connection points: 4
#     Node 34, Type 0, BuildingBlock: AZAVOO_clean_sbu_0, # of connection points: 4
#     Node 35, Type 0, BuildingBlock: AZAVOO_clean_sbu_0, # of connection points: 4
#     Node 36, Type 0, BuildingBlock: AZAVOO_clean_sbu_0, # of connection points: 4
#     Node 37, Type 0, BuildingBlock: AZAVOO_clean_sbu_0, # of connection points: 4
#     Node 38, Type 0, BuildingBlock: AZAVOO_clean_sbu_0, # of connection points: 4
#     Node 39, Type 0, BuildingBlock: AZAVOO_clean_sbu_0, # of connection points: 4
#     Node 40, Type 0, BuildingBlock: AZAVOO_clean_sbu_0, # of connection points: 4
#     Node 41, Type 0, BuildingBlock: AZAVOO_clean_sbu_0, # of connection points: 4
#     Node 42, Type 0, BuildingBlock: AZAVOO_clean_sbu_0, # of connection points: 4
#     Node 43, Type 0, BuildingBlock: AZAVOO_clean_sbu_0, # of connection points: 4
#     Node 44, Type 0, BuildingBlock: AZAVOO_clean_sbu_0, # of connection points: 4
#     Node 45, Type 0, BuildingBlock: AZAVOO_clean_sbu_0, # of connection points: 4
#     Node 46, Type 0, BuildingBlock: AZAVOO_clean_sbu_0, # of connection points: 4
#     Node 47, Type 0, BuildingBlock: AZAVOO_clean_sbu_0, # of connection points: 4
#     Edge 48, Type (0, 0), BuildingBlock: OJICUG_clean_linker_0, # of connection points: 2
#     Edge 49, Type (0, 0), BuildingBlock: OJICUG_clean_linker_0, # of connection points: 2
#     Edge 50, Type (0, 0), BuildingBlock: OJICUG_clean_linker_0, # of connection points: 2
#     Edge 51, Type (0, 0), BuildingBlock: OJICUG_clean_linker_0, # of connection points: 2
#     Edge 52, Type (0, 0), BuildingBlock: OJICUG_clean_linker_0, # of connection points: 2
#     Edge 53, Type (0, 0), BuildingBlock: OJICUG_clean_linker_0, # of connection points: 2
#     Edge 54, Type (0, 0), BuildingBlock: OJICUG_clean_linker_0, # of connection points: 2
#     Edge 55, Type (0, 0), BuildingBlock: OJICUG_clean_linker_0, # of connection points: 2
#     Edge 56, Type (0, 0), BuildingBlock: OJICUG_clean_linker_0, # of connection points: 2
#     Edge 57, Type (0, 0), BuildingBlock: OJICUG_clean_linker_0, # of connection points: 2
#     Edge 58, Type (0, 0), BuildingBlock: OJICUG_clean_linker_0, # of connection points: 2
#     Edge 59, Type (0, 0), BuildingBlock: OJICUG_clean_linker_0, # of connection points: 2
#     Edge 60, Type (0, 0), BuildingBlock: OJICUG_clean_linker_0, # of connection points: 2
#     Edge 61, Type (0, 0), BuildingBlock: OJICUG_clean_linker_0, # of connection points: 2
#     Edge 62, Type (0, 0), BuildingBlock: OJICUG_clean_linker_0, # of connection points: 2
#     Edge 63, Type (0, 0), BuildingBlock: OJICUG_clean_linker_0, # of connection points: 2
#     Edge 64, Type (0, 0), BuildingBlock: OJICUG_clean_linker_0, # of connection points: 2
#     Edge 65, Type (0, 0), BuildingBlock: OJICUG_clean_linker_0, # of connection points: 2
#     Edge 66, Type (0, 0), BuildingBlock: OJICUG_clean_linker_0, # of connection points: 2
#     Edge 67, Type (0, 0), BuildingBlock: OJICUG_clean_linker_0, # of connection points: 2
#     Edge 68, Type (0, 0), BuildingBlock: OJICUG_clean_linker_0, # of connection points: 2
#     Edge 69, Type (0, 0), BuildingBlock: OJICUG_clean_linker_0, # of connection points: 2
#     Edge 70, Type (0, 0), BuildingBlock: OJICUG_clean_linker_0, # of connection points: 2
#     Edge 71, Type (0, 0), BuildingBlock: OJICUG_clean_linker_0, # of connection points: 2
#     Edge 72, Type (0, 0), BuildingBlock: OJICUG_clean_linker_0, # of connection points: 2
#     Edge 73, Type (0, 0), BuildingBlock: OJICUG_clean_linker_0, # of connection points: 2
#     Edge 74, Type (0, 0), BuildingBlock: OJICUG_clean_linker_0, # of connection points: 2
#     Edge 75, Type (0, 0), BuildingBlock: OJICUG_clean_linker_0, # of connection points: 2
#     Edge 76, Type (0, 0), BuildingBlock: OJICUG_clean_linker_0, # of connection points: 2
#     Edge 77, Type (0, 0), BuildingBlock: OJICUG_clean_linker_0, # of connection points: 2
#     Edge 78, Type (0, 0), BuildingBlock: OJICUG_clean_linker_0, # of connection points: 2
#     Edge 79, Type (0, 0), BuildingBlock: OJICUG_clean_linker_0, # of connection points: 2
#     Edge 80, Type (0, 0), BuildingBlock: OJICUG_clean_linker_0, # of connection points: 2
#     Edge 81, Type (0, 0), BuildingBlock: OJICUG_clean_linker_0, # of connection points: 2
#     Edge 82, Type (0, 0), BuildingBlock: OJICUG_clean_linker_0, # of connection points: 2
#     Edge 83, Type (0, 0), BuildingBlock: OJICUG_clean_linker_0, # of connection points: 2
#     Edge 84, Type (0, 0), BuildingBlock: OJICUG_clean_linker_0, # of connection points: 2
#     Edge 85, Type (0, 0), BuildingBlock: OJICUG_clean_linker_0, # of connection points: 2
#     Edge 86, Type (0, 0), BuildingBlock: OJICUG_clean_linker_0, # of connection points: 2
#     Edge 87, Type (0, 0), BuildingBlock: OJICUG_clean_linker_0, # of connection points: 2
#     Edge 88, Type (0, 0), BuildingBlock: OJICUG_clean_linker_0, # of connection points: 2
#     Edge 89, Type (0, 0), BuildingBlock: OJICUG_clean_linker_0, # of connection points: 2
#     Edge 90, Type (0, 0), BuildingBlock: OJICUG_clean_linker_0, # of connection points: 2
#     Edge 91, Type (0, 0), BuildingBlock: OJICUG_clean_linker_0, # of connection points: 2
#     Edge 92, Type (0, 0), BuildingBlock: OJICUG_clean_linker_0, # of connection points: 2
#     Edge 93, Type (0, 0), BuildingBlock: OJICUG_clean_linker_0, # of connection points: 2
#     Edge 94, Type (0, 0), BuildingBlock: OJICUG_clean_linker_0, # of connection points: 2
#     Edge 95, Type (0, 0), BuildingBlock: OJICUG_clean_linker_0, # of connection points: 2
#     Edge 96, Type (0, 0), BuildingBlock: OJICUG_clean_linker_0, # of connection points: 2
#     Edge 97, Type (0, 0), BuildingBlock: OJICUG_clean_linker_0, # of connection points: 2
#     Edge 98, Type (0, 0), BuildingBlock: OJICUG_clean_linker_0, # of connection points: 2
#     Edge 99, Type (0, 0), BuildingBlock: OJICUG_clean_linker_0, # of connection points: 2
#     Edge 100, Type (0, 0), BuildingBlock: OJICUG_clean_linker_0, # of connection points: 2
#     Edge 101, Type (0, 0), BuildingBlock: OJICUG_clean_linker_0, # of connection points: 2
#     Edge 102, Type (0, 0), BuildingBlock: OJICUG_clean_linker_0, # of connection points: 2
#     Edge 103, Type (0, 0), BuildingBlock: OJICUG_clean_linker_0, # of connection points: 2
#     Edge 104, Type (0, 0), BuildingBlock: OJICUG_clean_linker_0, # of connection points: 2
#     Edge 105, Type (0, 0), BuildingBlock: OJICUG_clean_linker_0, # of connection points: 2
#     Edge 106, Type (0, 0), BuildingBlock: OJICUG_clean_linker_0, # of connection points: 2
#     Edge 107, Type (0, 0), BuildingBlock: OJICUG_clean_linker_0, # of connection points: 2
#     Edge 108, Type (0, 0), BuildingBlock: OJICUG_clean_linker_0, # of connection points: 2
#     Edge 109, Type (0, 0), BuildingBlock: OJICUG_clean_linker_0, # of connection points: 2
#     Edge 110, Type (0, 0), BuildingBlock: OJICUG_clean_linker_0, # of connection points: 2
#     Edge 111, Type (0, 0), BuildingBlock: OJICUG_clean_linker_0, # of connection points: 2
#     Edge 112, Type (0, 0), BuildingBlock: OJICUG_clean_linker_0, # of connection points: 2
#     Edge 113, Type (0, 0), BuildingBlock: OJICUG_clean_linker_0, # of connection points: 2
#     Edge 114, Type (0, 0), BuildingBlock: OJICUG_clean_linker_0, # of connection points: 2
#     Edge 115, Type (0, 0), BuildingBlock: OJICUG_clean_linker_0, # of connection points: 2
#     Edge 116, Type (0, 0), BuildingBlock: OJICUG_clean_linker_0, # of connection points: 2
#     Edge 117, Type (0, 0), BuildingBlock: OJICUG_clean_linker_0, # of connection points: 2
#     Edge 118, Type (0, 0), BuildingBlock: OJICUG_clean_linker_0, # of connection points: 2
#     Edge 119, Type (0, 0), BuildingBlock: OJICUG_clean_linker_0, # of connection points: 2
#     Edge 120, Type (0, 0), BuildingBlock: OJICUG_clean_linker_0, # of connection points: 2
#     Edge 121, Type (0, 0), BuildingBlock: OJICUG_clean_linker_0, # of connection points: 2
#     Edge 122, Type (0, 0), BuildingBlock: OJICUG_clean_linker_0, # of connection points: 2
#     Edge 123, Type (0, 0), BuildingBlock: OJICUG_clean_linker_0, # of connection points: 2
#     Edge 124, Type (0, 0), BuildingBlock: OJICUG_clean_linker_0, # of connection points: 2
#     Edge 125, Type (0, 0), BuildingBlock: OJICUG_clean_linker_0, # of connection points: 2
#     Edge 126, Type (0, 0), BuildingBlock: OJICUG_clean_linker_0, # of connection points: 2
#     Edge 127, Type (0, 0), BuildingBlock: OJICUG_clean_linker_0, # of connection points: 2
#     Edge 128, Type (0, 0), BuildingBlock: OJICUG_clean_linker_0, # of connection points: 2
#     Edge 129, Type (0, 0), BuildingBlock: OJICUG_clean_linker_0, # of connection points: 2
#     Edge 130, Type (0, 0), BuildingBlock: OJICUG_clean_linker_0, # of connection points: 2
#     Edge 131, Type (0, 0), BuildingBlock: OJICUG_clean_linker_0, # of connection points: 2
#     Edge 132, Type (0, 0), BuildingBlock: OJICUG_clean_linker_0, # of connection points: 2
#     Edge 133, Type (0, 0), BuildingBlock: OJICUG_clean_linker_0, # of connection points: 2
#     Edge 134, Type (0, 0), BuildingBlock: OJICUG_clean_linker_0, # of connection points: 2
#     Edge 135, Type (0, 0), BuildingBlock: OJICUG_clean_linker_0, # of connection points: 2
#     Edge 136, Type (0, 0), BuildingBlock: OJICUG_clean_linker_0, # of connection points: 2
#     Edge 137, Type (0, 0), BuildingBlock: OJICUG_clean_linker_0, # of connection points: 2
#     Edge 138, Type (0, 0), BuildingBlock: OJICUG_clean_linker_0, # of connection points: 2
#     Edge 139, Type (0, 0), BuildingBlock: OJICUG_clean_linker_0, # of connection points: 2
#     Edge 140, Type (0, 0), BuildingBlock: OJICUG_clean_linker_0, # of connection points: 2
#     Edge 141, Type (0, 0), BuildingBlock: OJICUG_clean_linker_0, # of connection points: 2
#     Edge 142, Type (0, 0), BuildingBlock: OJICUG_clean_linker_0, # of connection points: 2
#     Edge 143, Type (0, 0), BuildingBlock: OJICUG_clean_linker_0, # of connection points: 2
# Relax obj value: 0.232
# Max RMSD: 0.268
# Mean RMSD: 0.256
data_MOF--net-ull--node1-AZAVOO_clean_sbu_0--edge1-OJICUG_clean_linker_0
_symmetry_space_group_name_H-M    P1
_symmetry_Int_Tables_number       1
_symmetry_cell_setting            triclinic
loop_
_symmetry_equiv_pos_as_xyz
'x, y, z'
_cell_length_a     42.536118
_cell_length_b     44.339815
_cell_length_c     44.345354
_cell_angle_alpha  89.992715
_cell_angle_beta   90.003335
_cell_angle_gamma 89.935387
loop_
_atom_site_label
_atom_site_type_symbol
_atom_site_fract_x
_atom_site_fract_y
_atom_site_fract_z
_atom_type_partial_charge
Mg0 Mg 0.045 0.33672 0.18091 0.0
O1 O 0.00043 0.33831 0.15159 0.0
O2 O 0.95953 0.34445 0.18261 0.0
Mg3 Mg 0.97721 0.34378 0.23129 0.0
C4 C 0.97099 0.34169 0.15614 0.0
C5 C 0.07158 0.33387 0.11429 0.0
O6 O 0.04612 0.31797 0.10916 0.0
O7 O 0.04195 0.38725 0.19067 0.0
O8 O 0.00271 0.38856 0.22419 0.0
O9 O 0.04075 0.28623 0.18631 0.0
O10 O 0.01987 0.32024 0.21665 0.0
C11 C 0.02456 0.40158 0.20934 0.0
C12 C 0.0243 0.29239 0.21011 0.0
O13 O 0.07655 0.34442 0.14047 0.0
Mg14 Mg 0.62331 0.95931 0.15726 0.0
O15 O 0.67059 0.95673 0.18111 0.0
O16 O 0.71014 0.95704 0.14786 0.0
Mg17 Mg 0.68715 0.96082 0.10157 0.0
C18 C 0.69989 0.95638 0.17489 0.0
C19 C 0.56974 0.96789 0.20404 0.0
O20 O 0.55366 0.95581 0.18181 0.0
O21 O 0.63198 0.00944 0.14947 0.0
O22 O 0.6705 0.00809 0.11517 0.0
O23 O 0.62084 0.90896 0.15089 0.0
O24 O 0.64363 0.94099 0.11953 0.0
C25 C 0.65159 0.02269 0.13219 0.0
C26 C 0.63698 0.91364 0.12658 0.0
O27 O 0.59936 0.97013 0.20148 0.0
Mg28 Mg 0.97301 0.66055 0.18362 0.0
O29 O 0.01522 0.65097 0.15344 0.0
O30 O 0.05666 0.64143 0.18282 0.0
Mg31 Mg 0.04184 0.64896 0.23174 0.0
C32 C 0.04401 0.64372 0.15683 0.0
C33 C 0.91274 0.6617 0.14501 0.0
O34 O 0.90192 0.67229 0.17067 0.0
O35 O 0.9697 0.611 0.19767 0.0
O36 O 0.00982 0.60785 0.23004 0.0
O37 O 0.98348 0.71014 0.18383 0.0
O38 O 0.00221 0.67735 0.21679 0.0
C39 C 0.98574 0.59643 0.21724 0.0
C40 C 0.00096 0.70468 0.20712 0.0
O41 O 0.94134 0.65377 0.1433 0.0
Mg42 Mg 0.36393 0.01089 0.1562 0.0
O43 O 0.31953 0.01171 0.18545 0.0
O44 O 0.27731 0.01631 0.15568 0.0
Mg45 Mg 0.2947 0.01831 0.10712 0.0
C46 C 0.2898 0.01362 0.18171 0.0
C47 C 0.38913 -0.00514 0.22307 0.0
O48 O 0.36376 0.00824 0.23333 0.0
O49 O 0.35267 0.96248 0.14231 0.0
O50 O 0.31184 0.96948 0.11135 0.0
O51 O 0.36808 0.06164 0.15591 0.0
O52 O 0.34014 0.03477 0.12369 0.0
C53 C 0.33176 0.95225 0.12437 0.0
C54 C 0.34912 0.06075 0.13308 0.0
O55 O 0.3943 -0.00618 0.19484 0.0
Mg56 Mg 0.04146 0.64231 0.80557 0.0
O57 O 0.99673 0.63527 0.83413 0.0
O58 O 0.95759 0.62836 0.80122 0.0
Mg59 Mg 0.97571 0.63383 0.75309 0.0
C60 C 0.96787 0.62988 0.82823 0.0
C61 C 0.06905 0.6437 0.87216 0.0
O62 O 0.04305 0.65837 0.87857 0.0
O63 O 0.0425 0.59247 0.7925 0.0
O64 O 0.00418 0.59029 0.75803 0.0
O65 O 0.03333 0.69264 0.80367 0.0
O66 O 0.01554 0.6596 0.77066 0.0
C67 C 0.02661 0.578 0.77277 0.0
C68 C 0.01763 0.68716 0.77925 0.0
O69 O 0.07355 0.63415 0.84552 0.0
Mg70 Mg 0.35987 0.98067 0.81796 0.0
O71 O 0.31252 0.98013 0.79404 0.0
O72 O 0.27341 0.97542 0.82739 0.0
Mg73 Mg 0.29656 0.97364 0.87377 0.0
C74 C 0.28332 0.97827 0.80039 0.0
C75 C 0.41218 -0.00718 0.77025 0.0
O76 O 0.42826 0.97592 0.78911 0.0
O77 O 0.35064 0.02913 0.83279 0.0
O78 O 0.31282 0.02245 0.86716 0.0
O79 O 0.36322 0.92992 0.81746 0.0
O80 O 0.34025 0.95708 0.85305 0.0
C81 C 0.33138 0.03953 0.85228 0.0
C82 C 0.34717 0.93104 0.84225 0.0
O83 O 0.38321 -0.00251 0.77531 0.0
Mg84 Mg 0.95403 0.33494 0.80756 0.0
O85 O -0.0029 0.34347 0.83762 0.0
O86 O 0.03659 0.35712 0.80735 0.0
Mg87 Mg 0.02026 0.35425 0.75843 0.0
C88 C 0.02545 0.35201 0.83358 0.0
C89 C 0.9268 0.32419 0.87306 0.0
O90 O 0.95377 0.31034 0.87727 0.0
O91 O 0.94803 0.38532 0.79836 0.0
O92 O 0.987 0.39418 0.76564 0.0
O93 O 0.96708 0.28607 0.80156 0.0
O94 O 0.98258 0.32328 0.7721 0.0
C95 C 0.96282 0.40284 0.78039 0.0
C96 C 0.98288 0.29497 0.77823 0.0
O97 O 0.9211 0.33657 0.84781 0.0
Mg98 Mg 0.62123 0.01027 0.82772 0.0
O99 O 0.66727 0.01816 0.80233 0.0
O100 O 0.70714 0.01981 0.83521 0.0
Mg101 Mg 0.68631 0.01262 0.88198 0.0
C102 C 0.69652 0.02096 0.80832 0.0
C103 C 0.56673 -0.007 0.78649 0.0
O104 O 0.5525 -0.00053 0.81199 0.0
O105 O 0.63466 0.96094 0.83424 0.0
O106 O 0.6733 0.96434 0.8682 0.0
O107 O 0.61403 0.06007 0.83541 0.0
O108 O 0.64097 0.02963 0.86529 0.0
C109 C 0.65533 0.94875 0.85117 0.0
C110 C 0.63149 0.05643 0.85907 0.0
O111 O 0.59608 -0.00227 0.78446 0.0
Mg112 Mg 0.19233 0.0422 0.33885 0.0
O113 O 0.16551 -0.00192 0.34181 0.0
O114 O 0.20095 0.96085 0.34297 0.0
Mg115 Mg 0.24981 0.98084 0.33462 0.0
C116 C 0.17259 0.97025 0.3441 0.0
C117 C 0.1223 0.06392 0.34215 0.0
O118 O 0.11916 0.04211 0.32233 0.0
O119 O 0.20976 0.03579 0.38676 0.0
O120 O 0.24952 0.00307 0.3814 0.0
O121 O 0.18957 0.04217 0.28873 0.0
O122 O 0.22805 0.02145 0.31505 0.0
C123 C 0.23323 0.02125 0.39741 0.0
C124 C 0.21574 0.0272 0.28917 0.0
O125 O 0.14912 0.06864 0.35389 0.0
Mg126 Mg 0.95107 0.17541 0.33615 0.0
O127 O 0.99651 0.14813 0.34319 0.0
O128 O 0.03456 0.1812 0.35377 0.0
Mg129 Mg 0.01464 0.22893 0.35123 0.0
C130 C 0.02502 0.15419 0.34989 0.0
C131 C 0.92663 0.10849 0.32753 0.0
O132 O 0.95308 0.10494 0.31266 0.0
O133 O 0.947 0.18515 0.38658 0.0
O134 O 0.98436 0.22007 0.39295 0.0
O135 O 0.96152 0.18088 0.28665 0.0
O136 O 0.97646 0.21221 0.32256 0.0
C137 C 0.96171 0.20411 0.40309 0.0
C138 C 0.97605 0.20532 0.29445 0.0
O139 O 0.92063 0.13368 0.33989 0.0
Mg140 Mg 0.81111 0.94452 0.32561 0.0
O141 O 0.83793 0.98906 0.32363 0.0
O142 O 0.80169 0.0256 0.32295 0.0
Mg143 Mg 0.75277 0.00482 0.31792 0.0
C144 C 0.8303 0.01689 0.32386 0.0
C145 C 0.8818 0.92317 0.33057 0.0
O146 O 0.88634 0.94522 0.31128 0.0
O147 O 0.79541 0.95493 0.37352 0.0
O148 O 0.755 0.98652 0.3662 0.0
O149 O 0.8108 0.9396 0.27531 0.0
O150 O 0.77428 0.96279 0.30201 0.0
C151 C 0.77184 0.96992 0.38337 0.0
C152 C 0.78435 0.95411 0.27613 0.0
O153 O 0.85443 0.91872 0.34114 0.0
Mg154 Mg 0.05362 0.81328 0.34415 0.0
O155 O 0.00685 0.83896 0.34337 0.0
O156 O 0.96843 0.80473 0.34089 0.0
Mg157 Mg 0.99056 0.75789 0.33769 0.0
C158 C 0.97776 0.83204 0.3425 0.0
C159 C 0.07596 0.8798 0.34513 0.0
O160 O 0.05369 0.88195 0.32472 0.0
O161 O 0.04504 0.79815 0.39258 0.0
O162 O 0.0086 0.76236 0.38622 0.0
O163 O 0.05606 0.81439 0.2937 0.0
O164 O 0.0344 0.77791 0.32082 0.0
C165 C 0.02724 0.77743 0.40305 0.0
C166 C 0.04123 0.78894 0.29485 0.0
O167 O 0.08019 0.85488 0.35863 0.0
Mg168 Mg 0.17608 0.95035 0.65015 0.0
O169 O 0.14855 -0.00569 0.64568 0.0
O170 O 0.18435 0.031 0.64201 0.0
Mg171 Mg 0.23351 0.01175 0.65091 0.0
C172 C 0.15585 0.02194 0.64188 0.0
C173 C 0.10693 0.92621 0.64998 0.0
O174 O 0.10373 0.94819 0.6696 0.0
O175 O 0.19341 0.9541 0.60172 0.0
O176 O 0.23374 0.98627 0.60595 0.0
O177 O 0.17462 0.95243 0.70055 0.0
O178 O 0.21197 0.9722 0.67227 0.0
C179 C 0.2176 0.9673 0.5908 0.0
C180 C 0.20081 0.96721 0.69872 0.0
O181 O 0.1333 0.92247 0.63702 0.0
Mg182 Mg 0.04448 0.18524 0.64079 0.0
O183 O 0.99479 0.16461 0.63732 0.0
O184 O 0.96143 0.20352 0.63501 0.0
Mg185 Mg 0.98836 0.24781 0.63851 0.0
C186 C 0.96691 0.17521 0.63512 0.0
C187 C 0.06183 0.11553 0.64183 0.0
O188 O 0.03775 0.11342 0.66026 0.0
O189 O 0.04348 0.19907 0.59117 0.0
O190 O 0.01099 0.23877 0.5926 0.0
O191 O 0.04097 0.18722 0.69159 0.0
O192 O 0.02693 0.22358 0.66033 0.0
C193 C 0.02946 0.2211 0.57829 0.0
C194 C 0.02954 0.214 0.68751 0.0
O195 O 0.06833 0.14082 0.62995 0.0
Mg196 Mg 0.81273 0.04876 0.6614 0.0
O197 O 0.836 0.00243 0.66485 0.0
O198 O 0.7974 0.9683 0.66383 0.0
Mg199 Mg 0.74986 0.99222 0.66414 0.0
C200 C 0.82653 0.97513 0.66474 0.0
C201 C 0.85784 0.09756 0.63987 0.0
O202 O 0.82985 0.10943 0.63573 0.0
O203 O 0.80013 0.04033 0.6121 0.0
O204 O 0.7583 0.01006 0.61645 0.0
O205 O 0.80873 0.05219 0.71177 0.0
O206 O 0.7725 0.03286 0.6819 0.0
C207 C 0.77693 0.02608 0.60051 0.0
C208 C 0.78154 0.03941 0.70871 0.0
O209 O 0.85966 0.0707 0.64973 0.0
Mg210 Mg 0.9396 0.81019 0.66115 0.0
O211 O 0.98477 0.83767 0.65427 0.0
O212 O 0.02288 0.8055 0.6413 0.0
Mg213 Mg 0.0031 0.75758 0.64257 0.0
C214 C 0.01313 0.83222 0.64655 0.0
C215 C 0.91668 0.87778 0.67034 0.0
O216 O 0.9438 0.88113 0.68409 0.0
O217 O 0.93463 0.80282 0.61037 0.0
O218 O 0.97171 0.76804 0.60198 0.0
O219 O 0.9511 0.80224 0.71026 0.0
O220 O 0.96528 0.77273 0.6726 0.0
C221 C 0.94889 0.78445 0.59285 0.0
C222 C 0.96537 0.77813 0.70102 0.0
O223 O 0.90948 0.85235 0.65915 0.0
Mg224 Mg 0.36342 0.16515 0.97322 0.0
O225 O 0.31755 0.19111 0.97126 0.0
O226 O 0.27653 0.16015 0.966 0.0
Mg227 Mg 0.29731 0.11262 0.96492 0.0
C228 C 0.28808 0.18653 0.96887 0.0
C229 C 0.41563 0.21452 0.98391 0.0
O230 O 0.43189 0.19735 0.96546 0.0
O231 O 0.35207 0.15107 0.02152 0.0
O232 O 0.3128 0.11844 0.01406 0.0
O233 O 0.36805 0.1649 0.92252 0.0
O234 O 0.34276 0.13066 0.94945 0.0
C235 C 0.33167 0.13248 0.03153 0.0
C236 C 0.35086 0.14083 0.92348 0.0
O237 O 0.38751 0.20737 0.99024 0.0
Mg238 Mg 0.36353 0.82768 0.00148 0.0
O239 O 0.31987 0.79829 0.00341 0.0
O240 O 0.27704 0.82712 0.00808 0.0
Mg241 Mg 0.29398 0.87593 0.00978 0.0
C242 C 0.29014 0.80135 0.00544 0.0
C243 C 0.42091 0.78945 0.98189 0.0
O244 O 0.43518 0.81378 0.99178 0.0
O245 O 0.35114 0.841 0.9533 0.0
O246 O 0.31013 0.87169 0.96066 0.0
O247 O 0.36858 0.82834 0.05212 0.0
O248 O 0.34043 0.86067 0.02546 0.0
C249 C 0.32987 0.85867 0.94324 0.0
C250 C 0.34975 0.8513 0.05137 0.0
O251 O 0.39125 0.78771 0.98418 0.0
Mg252 Mg 0.18698 0.34337 0.95085 0.0
O253 O 0.16049 0.34216 -0.00459 0.0
O254 O 0.19655 0.34049 0.03204 0.0
Mg255 Mg 0.24534 0.33508 0.01091 0.0
C256 C 0.16799 0.34185 0.02325 0.0
C257 C 0.11727 0.34628 0.92872 0.0
O258 O 0.11463 0.32458 0.94874 0.0
O259 O 0.20392 0.39102 0.96043 0.0
O260 O 0.24431 0.38323 0.99185 0.0
O261 O 0.18514 0.29324 0.94692 0.0
O262 O 0.22324 0.31866 0.96922 0.0
C263 C 0.22785 0.40055 0.97505 0.0
C264 C 0.21148 0.29308 0.96158 0.0
O265 O 0.14354 0.35956 0.92568 0.0
Mg266 Mg 0.61948 0.15538 0.02547 0.0
O267 O 0.66631 0.18115 0.02516 0.0
O268 O 0.70592 0.14804 0.02902 0.0
Mg269 Mg 0.68457 0.10103 0.03153 0.0
C270 C 0.69567 0.17498 0.02638 0.0
C271 C 0.59879 0.22384 0.00932 0.0
O272 O 0.62538 0.2327 0.02143 0.0
O273 O 0.62879 0.14103 0.9768 0.0
O274 O 0.66736 0.10727 0.98304 0.0
O275 O 0.6164 0.15486 0.07647 0.0
O276 O 0.64108 0.12121 0.04837 0.0
C277 C 0.6483 0.12187 0.96618 0.0
C278 C 0.63354 0.13078 0.07467 0.0
O279 O 0.5917 0.196 0.00915 0.0
Mg280 Mg 0.82759 0.65754 0.96448 0.0
O281 O 0.84641 0.66026 0.01285 0.0
O282 O 0.80404 0.66133 0.04276 0.0
Mg283 Mg 0.75925 0.66314 0.01466 0.0
C284 C 0.83379 0.66083 0.03902 0.0
C285 C 0.87141 0.62999 0.91959 0.0
O286 O 0.84275 0.62294 0.91106 0.0
O287 O 0.8126 0.60901 0.97247 0.0
O288 O 0.76754 0.61495 -0.0022 0.0
O289 O 0.82568 0.7079 0.95905 0.0
O290 O 0.78724 0.67974 0.97681 0.0
C291 C 0.78743 0.5983 0.98402 0.0
C292 C 0.79729 0.70599 0.96943 0.0
O293 O 0.87489 0.64388 0.94445 0.0
Mg294 Mg 0.62983 0.81563 0.95936 0.0
O295 O 0.6786 0.79492 0.9599 0.0
O296 O 0.7161 0.82996 0.95587 0.0
Mg297 Mg 0.68987 0.87484 0.95288 0.0
C298 C 0.70749 0.80257 0.95887 0.0
C299 C 0.58042 0.76618 0.97556 0.0
O300 O 0.56192 0.78527 0.96141 0.0
O301 O 0.63775 0.83098 0.00784 0.0
O302 O 0.67378 0.86716 0.00154 0.0
O303 O 0.62743 0.81529 0.90835 0.0
O304 O 0.64753 0.8518 0.93627 0.0
C305 C 0.65596 0.85125 0.01843 0.0
C306 C 0.64178 0.84098 0.91004 0.0
O307 O 0.60969 0.77154 0.97654 0.0
Mg308 Mg 0.19534 0.64219 0.02849 0.0
O309 O 0.16569 0.64178 0.9858 0.0
O310 O 0.19933 0.64176 0.94711 0.0
Mg311 Mg 0.24951 0.64798 0.96508 0.0
C312 C 0.17137 0.64084 0.9576 0.0
C313 C 0.12797 0.64056 0.05529 0.0
O314 O 0.12404 0.66123 0.0344 0.0
O315 O 0.21112 0.59437 0.01931 0.0
O316 O 0.24992 0.6002 0.98575 0.0
O317 O 0.19293 0.69202 0.03104 0.0
O318 O 0.23015 0.66658 0.00722 0.0
C319 C 0.23391 0.58381 0.00383 0.0
C320 C 0.21827 0.6922 0.01484 0.0
O321 O 0.15419 0.62696 0.05711 0.0
Mg322 Mg 0.80999 0.32387 0.03631 0.0
O323 O 0.8373 0.32068 0.99204 0.0
O324 O 0.80112 0.32132 0.95545 0.0
Mg325 Mg 0.75178 0.31828 0.9758 0.0
C326 C 0.82974 0.32117 0.96418 0.0
C327 C 0.88059 0.32723 0.06011 0.0
O328 O 0.88575 0.30687 0.03916 0.0
O329 O 0.79656 0.37215 0.02527 0.0
O330 O 0.75587 0.36678 -0.00631 0.0
O331 O 0.8079 0.27376 0.0416 0.0
O332 O 0.77241 0.30118 0.01782 0.0
C333 C 0.7737 0.38316 0.01012 0.0
C334 C 0.78171 0.27509 0.02674 0.0
O335 O 0.85329 0.33859 0.06279 0.0
Mg336 Mg 0.54079 0.83769 0.67433 0.0
O337 O 0.49033 0.83941 0.65547 0.0
O338 O 0.45835 0.8343 0.69511 0.0
Mg339 Mg 0.48733 0.8281 0.738 0.0
C340 C 0.46277 0.83797 0.66686 0.0
C341 C 0.55764 0.84111 0.60595 0.0
O342 O 0.53695 0.81917 0.60456 0.0
O343 O 0.53599 0.88521 0.69364 0.0
O344 O 0.50553 0.87654 0.73382 0.0
O345 O 0.54194 0.78709 0.67008 0.0
O346 O 0.52686 0.81239 0.71061 0.0
C347 C 0.5219 0.89429 0.71743 0.0
C348 C 0.53145 0.78698 0.69747 0.0
O349 O 0.56186 0.85472 0.63079 0.0
Mg350 Mg 0.1349 0.46759 0.66327 0.0
O351 O 0.1815 0.46771 0.68831 0.0
O352 O 0.22169 0.46743 0.65587 0.0
Mg353 Mg 0.19988 0.46663 0.60878 0.0
C354 C 0.2109 0.46798 0.68271 0.0
C355 C 0.08041 0.48061 0.7078 0.0
O356 O 0.06463 0.46862 0.68533 0.0
O357 O 0.14186 0.51705 0.65108 0.0
O358 O 0.18016 0.51409 0.61667 0.0
O359 O 0.13374 0.4167 0.66001 0.0
O360 O 0.15634 0.44722 0.62716 0.0
C361 C 0.16034 0.52938 0.63206 0.0
C362 C 0.14997 0.42023 0.63555 0.0
O363 O 0.11017 0.48138 0.70631 0.0
Mg364 Mg 0.45564 0.15848 0.68459 0.0
O365 O 0.49862 0.15251 0.65406 0.0
O366 O 0.5397 0.14075 0.68312 0.0
Mg367 Mg 0.5237 0.14202 0.73232 0.0
C368 C 0.52753 0.14552 0.65725 0.0
C369 C 0.42876 0.16913 0.61969 0.0
O370 O 0.45467 0.18497 0.61692 0.0
O371 O 0.45303 0.10779 0.69252 0.0
O372 O 0.493 0.10032 0.72444 0.0
O373 O 0.46588 0.20774 0.69094 0.0
O374 O 0.4838 0.17111 0.71999 0.0
C375 C 0.46923 0.09064 0.70972 0.0
C376 C 0.48243 0.19943 0.71403 0.0
O377 O 0.42306 0.15565 0.64435 0.0
Mg378 Mg 0.85289 0.50162 0.65947 0.0
O379 O 0.8092 0.50582 0.68788 0.0
O380 O 0.7661 0.51182 0.65989 0.0
Mg381 Mg 0.78387 0.51241 0.61112 0.0
C382 C 0.77957 0.50899 0.68544 0.0
C383 C 0.90291 0.49386 0.71236 0.0
O384 O 0.91709 0.51693 0.6997 0.0
O385 O 0.83864 0.45394 0.64616 0.0
O386 O 0.79825 0.46264 0.61513 0.0
O387 O 0.86005 0.55195 0.65857 0.0
O388 O 0.83141 0.5263 0.62582 0.0
C389 C 0.81731 0.44457 0.62821 0.0
C390 C 0.84169 0.55186 0.63527 0.0
O391 O 0.87781 0.4836 0.70084 0.0
Mg392 Mg 0.53937 0.13115 0.2985 0.0
O393 O 0.49177 0.12889 0.3229 0.0
O394 O 0.45488 0.12536 0.28719 0.0
Mg395 Mg 0.47804 0.12712 0.24085 0.0
C396 C 0.46304 0.12647 0.31488 0.0
C397 C 0.56043 0.13416 0.3667 0.0
O398 O 0.53572 0.15178 0.36923 0.0
O399 O 0.5365 0.08113 0.28695 0.0
O400 O 0.50088 0.08114 0.24985 0.0
O401 O 0.53623 0.1817 0.29533 0.0
O402 O 0.51871 0.14975 0.26101 0.0
C403 C 0.52059 0.0674 0.26674 0.0
C404 C 0.52239 0.17715 0.26972 0.0
O405 O 0.5664 0.12181 0.34151 0.0
Mg406 Mg 0.87061 0.48255 0.32329 0.0
O407 O 0.82553 0.4788 0.2958 0.0
O408 O 0.78458 0.47275 0.32684 0.0
Mg409 Mg 0.80383 0.47297 0.37479 0.0
C410 C 0.79612 0.47542 0.30041 0.0
C411 C 0.92626 0.50293 0.28496 0.0
O412 O 0.93997 0.49279 0.30951 0.0
O413 O 0.85734 0.53058 0.33645 0.0
O414 O 0.81773 0.52245 0.36853 0.0
O415 O 0.87694 0.43198 0.32397 0.0
O416 O 0.84966 0.45839 0.35724 0.0
C417 C 0.83626 0.54026 0.35451 0.0
C418 C 0.85877 0.4326 0.34739 0.0
O419 O 0.89668 0.50031 0.2825 0.0
Mg420 Mg 0.44326 0.8296 0.30402 0.0
O421 O 0.48811 0.83626 0.3321 0.0
O422 O 0.52684 0.84797 0.30015 0.0
Mg423 Mg 0.50767 0.84672 0.25203 0.0
C424 C 0.51671 0.84325 0.32683 0.0
C425 C 0.41871 0.81998 0.37083 0.0
O426 O 0.44539 0.80544 0.37425 0.0
O427 O 0.43893 0.88036 0.29597 0.0
O428 O 0.47665 0.88779 0.26169 0.0
O429 O 0.45463 0.78035 0.29736 0.0
O430 O 0.46946 0.81724 0.26715 0.0
C431 C 0.45371 0.89746 0.27761 0.0
C432 C 0.46956 0.78899 0.27341 0.0
O433 O 0.41236 0.83216 0.34563 0.0
Mg434 Mg 0.12718 0.51945 0.31696 0.0
O435 O 0.17351 0.52375 0.29142 0.0
O436 O 0.21329 0.5282 0.32406 0.0
Mg437 Mg 0.19186 0.52792 0.37125 0.0
C438 C 0.2028 0.52624 0.29717 0.0
C439 C 0.07343 0.50174 0.27337 0.0
O440 O 0.05723 0.5133 0.29581 0.0
O441 O 0.1402 0.4711 0.3295 0.0
O442 O 0.17798 0.47863 0.36378 0.0
O443 O 0.11986 0.57005 0.32015 0.0
O444 O 0.14641 0.54231 0.3527 0.0
C445 C 0.16021 0.46111 0.34853 0.0
C446 C 0.13658 0.56838 0.34449 0.0
O447 O 0.10322 0.50275 0.27444 0.0
Mg448 Mg 0.6915 0.5336 0.8486 0.0
O449 O 0.66971 0.48672 0.853 0.0
O450 O 0.70996 0.45428 0.8504 0.0
Mg451 Mg 0.75552 0.47914 0.83965 0.0
C452 C 0.68074 0.45994 0.85398 0.0
C453 C 0.62132 0.55354 0.85323 0.0
O454 O 0.61862 0.53271 0.83232 0.0
O455 O 0.71285 0.52873 0.89525 0.0
O456 O 0.75547 0.50025 0.88691 0.0
O457 O 0.68499 0.53372 0.79868 0.0
O458 O 0.72712 0.5166 0.82225 0.0
C459 C 0.73835 0.51638 0.90426 0.0
C460 C 0.71249 0.52125 0.79729 0.0
O461 O 0.6477 0.55709 0.86621 0.0
Mg462 Mg 0.46461 0.68067 0.82812 0.0
O463 O 0.50598 0.64944 0.83977 0.0
O464 O 0.54791 0.67876 0.84758 0.0
Mg465 Mg 0.53481 0.72756 0.83673 0.0
C466 C 0.53482 0.65287 0.84697 0.0
C467 C 0.43419 0.61712 0.82675 0.0
O468 O 0.45993 0.61173 0.81128 0.0
O469 O 0.46219 0.69783 0.87663 0.0
O470 O 0.50298 0.72952 0.87817 0.0
O471 O 0.47455 0.67756 0.77846 0.0
O472 O 0.49525 0.71125 0.80927 0.0
C473 C 0.47861 0.71778 0.89019 0.0
C474 C 0.49318 0.70027 0.78249 0.0
O475 O 0.42958 0.64333 0.83742 0.0
Mg476 Mg 0.31974 0.45343 0.83521 0.0
O477 O 0.34533 0.49837 0.83289 0.0
O478 O 0.30885 0.53466 0.83256 0.0
Mg479 Mg 0.26024 0.51279 0.82917 0.0
C480 C 0.33753 0.52615 0.83291 0.0
C481 C 0.36201 0.40173 0.85561 0.0
O482 O 0.33374 0.38979 0.85593 0.0
O483 O 0.3049 0.46287 0.88361 0.0
O484 O 0.26418 0.49428 0.87737 0.0
O485 O 0.31915 0.44948 0.78504 0.0
O486 O 0.28181 0.47103 0.81215 0.0
C487 C 0.28148 0.47764 0.8941 0.0
C488 C 0.29243 0.46349 0.78607 0.0
O489 O 0.36478 0.42952 0.84916 0.0
Mg490 Mg 0.54724 0.31379 0.84664 0.0
O491 O 0.49759 0.33331 0.85277 0.0
O492 O 0.46502 0.29426 0.85853 0.0
Mg493 Mg 0.49306 0.25045 0.85501 0.0
C494 C 0.47009 0.3226 0.85709 0.0
C495 C 0.59819 0.3573 0.86163 0.0
O496 O 0.61031 0.33032 0.8657 0.0
O497 O 0.55037 0.30222 0.8967 0.0
O498 O 0.51894 0.2619 0.8988 0.0
O499 O 0.54012 0.30999 0.79647 0.0
O500 O 0.52952 0.27426 0.82963 0.0
C501 C 0.53794 0.28041 0.91125 0.0
C502 C 0.5298 0.2831 0.80207 0.0
O503 O 0.56951 0.3594 0.85403 0.0
Mg504 Mg 0.69087 0.44676 0.14747 0.0
O505 O 0.66449 0.49156 0.14768 0.0
O506 O 0.70116 0.52762 0.1458 0.0
Mg507 Mg 0.75007 0.50649 0.1498 0.0
C508 C 0.67243 0.51926 0.14619 0.0
C509 C 0.62088 0.42315 0.14742 0.0
O510 O 0.61761 0.44362 0.16862 0.0
O511 O 0.70508 0.45413 0.09881 0.0
O512 O 0.74608 0.48548 0.10254 0.0
O513 O 0.6914 0.44529 0.19767 0.0
O514 O 0.72834 0.46614 0.16955 0.0
C515 C 0.72828 0.46816 0.08709 0.0
C516 C 0.71769 0.45992 0.19596 0.0
O517 O 0.64714 0.42059 0.134 0.0
Mg518 Mg 0.55193 0.67912 0.14545 0.0
O519 O 0.5077 0.64972 0.14163 0.0
O520 O 0.46696 0.68041 0.13309 0.0
Mg521 Mg 0.48446 0.72907 0.13368 0.0
C522 C 0.47848 0.65406 0.13669 0.0
C523 C 0.57803 0.61264 0.15156 0.0
O524 O 0.55222 0.60855 0.16729 0.0
O525 O 0.55189 0.68792 0.09468 0.0
O526 O 0.51194 0.72046 0.09016 0.0
O527 O 0.54413 0.68472 0.19541 0.0
O528 O 0.52556 0.71503 0.16013 0.0
C529 C 0.53471 0.70547 0.07879 0.0
C530 C 0.52777 0.7083 0.1882 0.0
O531 O 0.58356 0.6383 0.14002 0.0
Mg532 Mg 0.31744 0.53523 0.14769 0.0
O533 O 0.34359 0.49042 0.15264 0.0
O534 O 0.30661 0.45463 0.15257 0.0
Mg535 Mg 0.25777 0.47629 0.15365 0.0
C536 C 0.33541 0.46273 0.15303 0.0
C537 C 0.38794 0.55797 0.14693 0.0
O538 O 0.39115 0.53826 0.16884 0.0
O539 O 0.30489 0.52354 0.09933 0.0
O540 O 0.26366 0.49273 0.10477 0.0
O541 O 0.31467 0.54171 0.19757 0.0
O542 O 0.2789 0.51832 0.17015 0.0
C543 C 0.28203 0.50849 0.08826 0.0
C544 C 0.28812 0.5275 0.19619 0.0
O545 O 0.36168 0.56017 0.13345 0.0
Mg546 Mg 0.45623 0.30268 0.14823 0.0
O547 O 0.50065 0.33186 0.14466 0.0
O548 O 0.54056 0.30114 0.13322 0.0
Mg549 Mg 0.5229 0.25251 0.13295 0.0
C550 C 0.52957 0.32744 0.13837 0.0
C551 C 0.43018 0.36933 0.15725 0.0
O552 O 0.45662 0.37343 0.17199 0.0
O553 O 0.45502 0.29561 0.09717 0.0
O554 O 0.49379 0.26207 0.09066 0.0
O555 O 0.4645 0.29411 0.1978 0.0
O556 O 0.48251 0.2659 0.16065 0.0
C557 C 0.47099 0.2778 0.0804 0.0
C558 C 0.48022 0.27062 0.1891 0.0
O559 O 0.4245 0.34386 0.14531 0.0
Mg560 Mg 0.86149 0.66244 0.4782 0.0
O561 O 0.8153 0.68938 0.47745 0.0
O562 O 0.77534 0.65729 0.47042 0.0
Mg563 Mg 0.79567 0.60992 0.46706 0.0
C564 C 0.78593 0.6839 0.47454 0.0
C565 C 0.88333 0.72983 0.49647 0.0
O566 O 0.85737 0.73947 0.48368 0.0
O567 O 0.84983 0.64617 0.52588 0.0
O568 O 0.81094 0.61363 0.51638 0.0
O569 O 0.86685 0.66448 0.42759 0.0
O570 O 0.84023 0.62982 0.4526 0.0
C571 C 0.82947 0.62693 0.53473 0.0
C572 C 0.84913 0.64076 0.42721 0.0
O573 O 0.88965 0.70181 0.49685 0.0
Mg574 Mg 0.85435 0.32208 0.50518 0.0
O575 O 0.80658 0.29991 0.50099 0.0
O576 O 0.76752 0.33349 0.50426 0.0
Mg577 Mg 0.79182 0.37915 0.50917 0.0
C578 C 0.77741 0.30654 0.5009 0.0
C579 C 0.90408 0.27007 0.49669 0.0
O580 O 0.92007 0.28628 0.51617 0.0
O581 O 0.84995 0.33876 0.45671 0.0
O582 O 0.8121 0.37346 0.46163 0.0
O583 O 0.85287 0.31985 0.55597 0.0
O584 O 0.83375 0.35715 0.52835 0.0
C585 C 0.83187 0.35886 0.44555 0.0
C586 C 0.83783 0.34521 0.55444 0.0
O587 O 0.8768 0.27867 0.4889 0.0
Mg588 Mg 0.67921 0.83498 0.4462 0.0
O589 O 0.64986 0.83802 0.48897 0.0
O590 O 0.6837 0.84173 0.52734 0.0
Mg591 Mg 0.73378 0.83377 0.50999 0.0
C592 C 0.65571 0.84161 0.51691 0.0
C593 C 0.6103 0.83611 0.42084 0.0
O594 O 0.60625 0.81674 0.44291 0.0
O595 O 0.69498 0.88354 0.45212 0.0
O596 O 0.73377 0.87963 0.48607 0.0
O597 O 0.67863 0.78466 0.44704 0.0
O598 O 0.71475 0.81285 0.46893 0.0
C599 C 0.71793 0.89488 0.46689 0.0
C600 C 0.70417 0.78639 0.46287 0.0
O601 O 0.63712 0.84824 0.41727 0.0
Mg602 Mg 0.11564 0.65721 0.51554 0.0
O603 O 0.16352 0.68023 0.51774 0.0
O604 O 0.20221 0.64618 0.52086 0.0
Mg605 Mg 0.17827 0.60024 0.51875 0.0
C606 C 0.19264 0.67343 0.5196 0.0
C607 C 0.0637 0.70537 0.50156 0.0
O608 O 0.0454 0.68373 0.51161 0.0
O609 O 0.12493 0.64598 0.46594 0.0
O610 O 0.16318 0.61163 0.47046 0.0
O611 O 0.11292 0.65468 0.56624 0.0
O612 O 0.13489 0.62035 0.53671 0.0
C613 C 0.14483 0.62779 0.45432 0.0
C614 C 0.12888 0.62996 0.56342 0.0
O615 O 0.09328 0.70152 0.50193 0.0
Mg616 Mg 0.32208 0.16229 0.4507 0.0
O617 O 0.34646 0.16606 0.49632 0.0
O618 O 0.30822 0.16635 0.53094 0.0
Mg619 Mg 0.26034 0.16902 0.50776 0.0
C620 C 0.33728 0.16628 0.52372 0.0
C621 C 0.36259 0.13557 0.40191 0.0
O622 O 0.33351 0.1312 0.39292 0.0
O623 O 0.30767 0.1141 0.4611 0.0
O624 O 0.26543 0.12054 0.49049 0.0
O625 O 0.3207 0.21239 0.44504 0.0
O626 O 0.28359 0.18517 0.46669 0.0
C627 C 0.28373 0.10366 0.47504 0.0
C628 C 0.29366 0.21119 0.45844 0.0
O629 O 0.36716 0.14756 0.42755 0.0
Mg630 Mg 0.13303 0.33076 0.46608 0.0
O631 O 0.18 0.30653 0.46313 0.0
O632 O 0.2195 0.33956 0.45946 0.0
Mg633 Mg 0.1968 0.38617 0.46067 0.0
C634 C 0.20924 0.31258 0.46108 0.0
C635 C 0.07999 0.28472 0.47925 0.0
O636 O 0.06371 0.30608 0.46588 0.0
O637 O 0.14409 0.34236 0.51504 0.0
O638 O 0.18228 0.37653 0.50955 0.0
O639 O 0.1283 0.33305 0.41553 0.0
O640 O 0.15252 0.36683 0.44393 0.0
C641 C 0.1641 0.3607 0.52616 0.0
C642 C 0.14476 0.35752 0.41753 0.0
O643 O 0.10961 0.28751 0.48117 0.0
Mg644 Mg 0.67929 0.15286 0.52744 0.0
O645 O 0.65054 0.14546 0.48477 0.0
O646 O 0.68536 0.14273 0.44708 0.0
Mg647 Mg 0.73443 0.15542 0.46436 0.0
C648 C 0.65723 0.14118 0.45706 0.0
C649 C 0.6121 0.14968 0.55563 0.0
O650 O 0.60652 0.16918 0.53397 0.0
O651 O 0.69958 0.10564 0.52403 0.0
O652 O 0.73901 0.11122 0.49103 0.0
O653 O 0.67372 0.20283 0.52443 0.0
O654 O 0.71232 0.1768 0.50368 0.0
C655 C 0.72409 0.09571 0.51063 0.0
C656 C 0.69929 0.20252 0.50857 0.0
O657 O 0.63914 0.13764 0.55752 0.0
Mg658 Mg 0.30879 0.8207 0.53832 0.0
O659 O 0.33364 0.81907 0.49276 0.0
O660 O 0.29619 0.82047 0.45745 0.0
Mg661 Mg 0.2479 0.81722 0.47989 0.0
C662 C 0.32509 0.82007 0.4652 0.0
C663 C 0.35251 0.83568 0.5904 0.0
O664 O 0.32471 0.83287 0.60302 0.0
O665 O 0.29443 0.86971 0.53054 0.0
O666 O 0.25305 0.86458 0.49973 0.0
O667 O 0.30642 0.77022 0.54107 0.0
O668 O 0.26993 0.79922 0.52082 0.0
C669 C 0.27072 0.88071 0.51653 0.0
C670 C 0.27947 0.77262 0.52766 0.0
O671 O 0.3546 0.8331 0.56193 0.0
C672 C 0.0271 0.47188 0.25629 0.0
C673 C 0.05797 0.48174 0.2512 0.0
H674 H 0.99169 0.43951 0.24605 0.0
C675 C 0.07528 0.46877 0.22747 0.0
H676 H 0.01332 0.48091 0.27464 0.0
C677 C 0.06311 0.44431 0.21133 0.0
C678 C 0.03342 0.43248 0.21869 0.0
H679 H 0.09907 0.47609 0.22278 0.0
H680 H 0.07798 0.43325 0.19487 0.0
C681 C 0.01482 0.44776 0.24001 0.0
C682 C 0.5223 -0.00481 0.22266 0.0
C683 C 0.55366 0.98636 0.22708 0.0
H684 H 0.48677 0.02786 0.23244 0.0
C685 C 0.5711 -3e-05 0.25031 0.0
H686 H 0.50814 0.98491 0.20517 0.0
C687 C 0.55884 0.02461 0.26604 0.0
C688 C 0.52904 0.0361 0.25857 0.0
H689 H 0.59519 -0.00673 0.25461 0.0
H690 H 0.57389 0.0363 0.28188 0.0
C691 C 0.5101 0.01992 0.23824 0.0
C692 C 0.94389 0.55661 0.22083 0.0
C693 C 0.97348 0.56771 0.22955 0.0
H694 H 0.90576 0.52687 0.23137 0.0
C695 C 0.98913 0.55389 0.25386 0.0
H696 H 0.93123 0.56663 0.20214 0.0
C697 C 0.97428 0.53175 0.27094 0.0
C698 C 0.94383 0.52216 0.26361 0.0
H699 H 0.01205 0.56163 0.26118 0.0
H700 H 0.986 0.52356 0.291 0.0
C701 C 0.92922 0.53394 0.23768 0.0
C702 C 0.41126 0.93679 0.28125 0.0
C703 C 0.44084 0.92766 0.27031 0.0
H704 H 0.37156 0.966 0.27495 0.0
C705 C 0.45557 0.94526 0.24802 0.0
H706 H 0.39937 0.92393 0.2986 0.0
C707 C 0.43949 0.96894 0.23429 0.0
C708 C 0.40865 0.97596 0.24298 0.0
H709 H 0.47858 0.93931 0.23939 0.0
H710 H 0.45038 0.98049 0.21548 0.0
C711 C 0.39532 0.96092 0.26774 0.0
C712 C 0.03252 0.50745 0.72601 0.0
C713 C 0.06416 0.49963 0.73032 0.0
H714 H 0.99549 0.53821 0.73664 0.0
C715 C 0.08126 0.51394 0.7534 0.0
H716 H 0.01872 0.49677 0.70851 0.0
C717 C 0.06796 0.53782 0.76958 0.0
C718 C 0.0374 0.54786 0.76281 0.0
H719 H 0.10562 0.50813 0.75753 0.0
H720 H 0.0825 0.54987 0.78559 0.0
C721 C 0.01926 0.53133 0.74209 0.0
C722 C 0.41122 0.02925 0.72725 0.0
C723 C 0.42856 0.01197 0.748 0.0
H724 H 0.4108 0.06759 0.69803 0.0
C725 C 0.46103 0.01686 0.75056 0.0
H726 H 0.38619 0.02567 0.72445 0.0
C727 C 0.47518 0.04084 0.7354 0.0
C728 C 0.45705 0.06038 0.71743 0.0
H729 H 0.475 0.00395 0.76631 0.0
H730 H 0.49979 0.04545 0.73972 0.0
C731 C 0.42538 0.0532 0.71198 0.0
C732 C 0.95123 0.47555 0.73841 0.0
C733 C 0.91836 0.47633 0.73643 0.0
H734 H 0.99151 0.45158 0.75462 0.0
C735 C 0.90056 0.45684 0.75465 0.0
H736 H 0.96534 0.49036 0.7246 0.0
C737 C 0.9154 0.43487 0.77218 0.0
C738 C 0.94825 0.4317 0.77125 0.0
H739 H 0.8751 0.45729 0.75384 0.0
H740 H 0.90095 0.41865 0.78408 0.0
C741 C 0.96611 0.4533 0.75556 0.0
C742 C 0.56682 0.96466 0.73758 0.0
C743 C 0.55105 0.97349 0.76402 0.0
H744 H 0.56957 0.93272 0.70147 0.0
C745 C 0.52225 0.95981 0.77116 0.0
H746 H 0.58893 0.975 0.73131 0.0
C747 C 0.51107 0.93576 0.754 0.0
C748 C 0.52859 0.92473 0.72948 0.0
H749 H 0.5094 0.96614 0.79127 0.0
H750 H 0.48984 0.92443 0.76133 0.0
C751 C 0.55563 0.9405 0.72038 0.0
C752 C 0.22678 0.04695 0.44689 0.0
C753 C 0.24616 0.03145 0.4265 0.0
H754 H 0.22404 0.08165 0.48003 0.0
C755 C 0.27895 0.03293 0.43016 0.0
H756 H 0.20142 0.04566 0.44499 0.0
C757 C 0.29202 0.05404 0.44983 0.0
C758 C 0.27236 0.07343 0.46635 0.0
H759 H 0.29454 0.02082 0.41509 0.0
H760 H 0.31722 0.05753 0.44941 0.0
C761 C 0.23986 0.06758 0.46703 0.0
C762 C 0.90181 0.22662 0.46087 0.0
C763 C 0.9197 0.24625 0.47887 0.0
H764 H 0.90143 0.19678 0.42299 0.0
C765 C 0.95252 0.24615 0.47595 0.0
H766 H 0.87644 0.22593 0.46295 0.0
C767 C 0.96688 0.22956 0.45301 0.0
C768 C 0.94859 0.21262 0.43275 0.0
H769 H 0.96681 0.26101 0.48953 0.0
H770 H 0.99199 0.23197 0.44964 0.0
C771 C 0.91617 0.20973 0.43811 0.0
C772 C 0.76406 0.92705 0.45526 0.0
C773 C 0.73121 0.92348 0.45577 0.0
H774 H 0.8033 0.94533 0.43128 0.0
C775 C 0.71247 0.94312 0.43866 0.0
H776 H 0.77917 0.91253 0.46855 0.0
C777 C 0.72639 0.96243 0.41773 0.0
C778 C 0.75913 0.96167 0.41322 0.0
H779 H 0.68708 0.94123 0.43908 0.0
H780 H 0.71117 0.97486 0.40256 0.0
C781 C 0.77797 0.94583 0.43383 0.0
C782 C 0.06127 0.77139 0.4485 0.0
C783 C 0.0323 0.76642 0.43415 0.0
H784 H 0.09397 0.75583 0.48167 0.0
C785 C 0.01095 0.74595 0.44709 0.0
H786 H 0.07813 0.78723 0.43933 0.0
C787 C 0.01998 0.72805 0.47152 0.0
C788 C 0.05062 0.73014 0.48313 0.0
H789 H 0.98818 0.74204 0.43687 0.0
H790 H 0.00396 0.71079 0.47941 0.0
C791 C 0.07042 0.75328 0.47272 0.0
C792 C 0.21283 0.9382 0.54297 0.0
C793 C 0.2316 0.95452 0.56318 0.0
H794 H 0.211 0.90246 0.51089 0.0
C795 C 0.26452 0.95215 0.56104 0.0
H796 H 0.18744 0.93996 0.54383 0.0
C797 C 0.27809 0.93008 0.54272 0.0
C798 C 0.25893 0.91066 0.52582 0.0
H799 H 0.27967 0.96469 0.57614 0.0
H800 H 0.30323 0.92635 0.54408 0.0
C801 C 0.22646 0.91669 0.52408 0.0
C802 C 0.0687 0.2228 0.53637 0.0
C803 C 0.03871 0.23011 0.54747 0.0
H804 H 0.10547 0.2345 0.50556 0.0
C805 C 0.02021 0.25104 0.53156 0.0
H806 H 0.0835 0.20669 0.54805 0.0
C807 C 0.03273 0.26685 0.50717 0.0
C808 C 0.06405 0.26219 0.49842 0.0
H809 H 0.99685 0.25688 0.53939 0.0
H810 H 0.01875 0.28454 0.49696 0.0
C811 C 0.08135 0.23886 0.51212 0.0
C812 C 0.73519 0.02961 0.56129 0.0
C813 C 0.76679 0.03413 0.56964 0.0
H814 H 0.6964 0.04613 0.53533 0.0
C815 C 0.7858 0.05253 0.55144 0.0
H816 H 0.71994 0.0151 0.5744 0.0
C817 C 0.77232 0.06974 0.52842 0.0
C818 C 0.73961 0.06912 0.52384 0.0
H819 H 0.81036 0.05603 0.5569 0.0
H820 H 0.78686 0.08618 0.51696 0.0
C821 C 0.72159 0.04734 0.53882 0.0
C822 C 0.93422 0.74279 0.52056 0.0
C823 C 0.90265 0.75013 0.5151 0.0
H824 H 0.97421 0.74892 0.54886 0.0
C825 C 0.88872 0.77385 0.53129 0.0
H826 H 0.94568 0.72496 0.50795 0.0
C827 C 0.90497 0.78748 0.55512 0.0
C828 C 0.9354 0.77763 0.56283 0.0
H829 H 0.86442 0.78004 0.52735 0.0
H830 H 0.89274 0.80386 0.56893 0.0
C831 C 0.95055 0.75658 0.54403 0.0
C832 C 0.4272 0.27431 0.04305 0.0
C833 C 0.45913 0.27008 0.05001 0.0
H834 H 0.38822 0.25985 0.01621 0.0
C835 C 0.47777 0.25253 0.03052 0.0
H836 H 0.41221 0.28784 0.05746 0.0
C837 C 0.46398 0.23648 0.00689 0.0
C838 C 0.43137 0.23771 0.00241 0.0
H839 H 0.50255 0.24913 0.03506 0.0
H840 H 0.47839 0.22103 -0.006 0.0
C841 C 0.41339 0.2581 0.01953 0.0
C842 C 0.46894 0.77307 0.95407 0.0
C843 C 0.43802 0.76718 0.96329 0.0
H844 H 0.5065 0.76143 0.92441 0.0
C845 C 0.42248 0.7417 0.95172 0.0
H846 H 0.48163 0.79243 0.96263 0.0
C847 C 0.43666 0.72395 0.92949 0.0
C848 C 0.46665 0.73137 0.91846 0.0
H849 H 0.39869 0.7364 0.95862 0.0
H850 H 0.42333 0.70559 0.91971 0.0
C851 C 0.48319 0.75525 0.93204 0.0
C852 C 0.23681 0.47047 0.92957 0.0
C853 C 0.26938 0.469 0.92412 0.0
H854 H 0.19748 0.44933 0.95091 0.0
C855 C 0.2883 0.45202 0.94376 0.0
H856 H 0.22157 0.48388 0.9153 0.0
C857 C 0.27441 0.43269 0.96473 0.0
C858 C 0.2415 0.4297 0.9657 0.0
H859 H 0.31354 0.45103 0.94061 0.0
H860 H 0.28949 0.41728 0.97701 0.0
C861 C 0.2229 0.45064 0.95003 0.0
C862 C 0.54925 0.23621 0.98245 0.0
C863 C 0.57997 0.24447 0.99045 0.0
H864 H 0.51134 0.24194 0.9515 0.0
C865 C 0.5939 0.26946 0.97628 0.0
H866 H 0.53777 0.21733 -0.00666 0.0
C867 C 0.57876 0.28357 0.95202 0.0
C868 C 0.54951 0.27285 0.94179 0.0
H869 H 0.61753 0.2764 0.98213 0.0
H870 H 0.59116 0.30102 0.93976 0.0
C871 C 0.53411 0.25034 0.95846 0.0
C872 C 0.78446 0.52935 0.93618 0.0
C873 C 0.75167 0.52667 0.93317 0.0
H874 H 0.82214 0.5545 0.9557 0.0
C875 C 0.73217 0.54056 0.95459 0.0
H876 H 0.80018 0.51841 0.92037 0.0
C877 C 0.74485 0.56087 0.97527 0.0
C878 C 0.77707 0.56804 0.97418 0.0
H879 H 0.70685 0.53822 0.9533 0.0
H880 H 0.72877 0.57365 0.98926 0.0
C881 C 0.79711 0.5501 0.95648 0.0
C882 C 0.5756 0.70907 0.03838 0.0
C883 C 0.54426 0.71298 0.04762 0.0
H884 H 0.61175 0.7228 0.00776 0.0
C885 C 0.52364 0.72933 0.02898 0.0
H886 H 0.59204 0.69644 0.05211 0.0
C887 C 0.53495 0.74446 0.00365 0.0
C888 C 0.56704 0.74356 -0.00356 0.0
H889 H 0.49921 0.73239 0.03522 0.0
H890 H 0.51903 0.75892 0.99136 0.0
C891 C 0.58693 0.72433 0.01301 0.0
C892 C 0.22722 0.53385 0.02834 0.0
C893 C 0.24682 0.55447 0.01343 0.0
H894 H 0.22362 0.50141 0.06368 0.0
C895 C 0.27958 0.55131 0.01616 0.0
H896 H 0.2019 0.53537 0.02609 0.0
C897 C 0.29208 0.53228 0.03821 0.0
C898 C 0.27192 0.51592 0.05724 0.0
H899 H 0.29535 0.56656 0.00454 0.0
H900 H 0.31709 0.53326 0.04276 0.0
C901 C 0.23977 0.51437 0.04995 0.0
C902 C 0.71885 0.44169 0.03846 0.0
C903 C 0.73941 0.45763 0.0574 0.0
H904 H 0.7141 0.40559 0.00699 0.0
C905 C 0.77196 0.45568 0.05215 0.0
H906 H 0.69363 0.44329 0.04156 0.0
C907 C 0.78376 0.43361 0.03277 0.0
C908 C 0.76308 0.41384 0.01803 0.0
H909 H 0.78845 0.46811 0.066 0.0
H910 H 0.80891 0.42976 0.03214 0.0
C911 C 0.73066 0.42007 0.01859 0.0
C912 C 0.99579 0.25597 0.2813 0.0
C913 C 0.98989 0.2262 0.27228 0.0
H914 H 0.01069 0.2999 0.26865 0.0
C915 C 0.99567 0.2178 0.24219 0.0
H916 H 0.99135 0.26331 0.30422 0.0
C917 C 0.00729 0.23907 0.22154 0.0
C918 C 0.01239 0.26902 0.23071 0.0
H919 H 0.99119 0.19496 0.23469 0.0
H920 H 0.01174 0.23231 0.19846 0.0
C921 C 0.00661 0.27711 0.26077 0.0
C922 C 0.73321 0.96745 0.25277 0.0
C923 C 0.76441 0.95771 0.24921 0.0
H924 H 0.68844 0.97421 0.23228 0.0
C925 C 0.77482 0.94855 0.22057 0.0
H926 H 0.72433 0.97448 0.27455 0.0
C927 C 0.75404 0.94846 0.19609 0.0
C928 C 0.72249 0.95708 0.20008 0.0
H929 H 0.79873 0.94081 0.21723 0.0
H930 H 0.76244 0.94094 0.17429 0.0
C931 C 0.71246 0.96695 0.22856 0.0
C932 C 0.03999 0.72147 0.24508 0.0
C933 C 0.01641 0.72896 0.22427 0.0
H934 H 0.06615 0.73507 0.28384 0.0
C935 C 0.00454 0.75862 0.22378 0.0
H936 H 0.05011 0.69916 0.24574 0.0
C937 C 0.01418 0.77952 0.24564 0.0
C938 C 0.03564 0.77072 0.26797 0.0
H939 H 0.98626 0.76498 0.208 0.0
H940 H 0.00338 0.80164 0.24635 0.0
C941 C 0.04929 0.74206 0.26688 0.0
C942 C 0.22024 0.028 0.23295 0.0
C943 C 0.23251 0.01948 0.2611 0.0
H944 H 0.22879 0.03283 0.18564 0.0
C945 C 0.2626 0.00647 0.26247 0.0
H946 H 0.19709 0.03804 0.23118 0.0
C947 C 0.28077 0.00361 0.23647 0.0
C948 C 0.26926 0.01371 0.20856 0.0
H949 H 0.27272 -0.00043 0.28378 0.0
H950 H 0.30408 -0.00598 0.23839 0.0
C951 C 0.23844 0.02507 0.20688 0.0
C952 C -0.0029 0.70465 0.73017 0.0
C953 C 0.00396 0.71122 0.7604 0.0
H954 H 0.98025 0.72062 0.68799 0.0
C955 C -0.00128 0.74059 0.77128 0.0
H956 H 0.0012 0.68237 0.72093 0.0
C957 C 0.98622 0.76284 0.75214 0.0
C958 C 0.97962 0.75604 0.72182 0.0
H959 H 0.00397 0.74623 0.79451 0.0
H960 H 0.98187 0.78524 0.76096 0.0
C961 C 0.98536 0.72677 0.71112 0.0
C962 C 0.24974 0.98687 0.7222 0.0
C963 C 0.21944 0.9748 0.7257 0.0
H964 H 0.29361 -0.00267 0.74299 0.0
C965 C 0.20914 0.96652 0.75463 0.0
H966 H 0.25846 -0.00652 0.70025 0.0
C967 C 0.22948 0.96872 0.77933 0.0
C968 C 0.26047 0.97898 0.77536 0.0
H969 H 0.1859 0.95714 0.758 0.0
H970 H 0.22135 0.96116 0.80121 0.0
C971 C 0.27005 0.98883 0.74672 0.0
C972 C 0.0102 0.22255 0.74059 0.0
C973 C 0.02007 0.23381 0.71254 0.0
H974 H 0.99031 0.23331 0.78388 0.0
C975 C 0.02031 0.26504 0.70767 0.0
H976 H 0.00998 0.1985 0.74487 0.0
C977 C 0.0098 0.28471 0.72981 0.0
C978 C -0.00166 0.27369 0.75736 0.0
H979 H 0.02828 0.27442 0.68643 0.0
H980 H 0.00951 0.30857 0.72465 0.0
C981 C -0.00092 0.24242 0.76285 0.0
C982 C 0.77111 0.03738 0.76436 0.0
C983 C 0.76077 0.03326 0.73459 0.0
H984 H 0.75888 0.03665 0.81121 0.0
C985 C 0.72944 0.02471 0.72937 0.0
H986 H 0.7951 0.04408 0.76902 0.0
C987 C 0.70871 0.02076 0.75332 0.0
C988 C 0.71883 0.02508 0.78312 0.0
H989 H 0.7206 0.02165 0.70668 0.0
H990 H 0.68468 0.01435 0.74837 0.0
C991 C 0.75034 0.03317 0.78846 0.0
C992 C 0.21701 0.23693 0.95785 0.0
C993 C 0.22904 0.26495 0.96707 0.0
H994 H 0.22629 0.18986 0.95123 0.0
C995 C 0.25964 0.26642 0.97883 0.0
H996 H 0.19348 0.23515 0.94867 0.0
C997 C 0.27841 0.24075 0.97998 0.0
C998 C 0.26696 0.21293 0.96959 0.0
H999 H 0.26968 0.28764 0.98608 0.0
H1000 H 0.30217 0.2429 0.98852 0.0
C1001 C 0.2358 0.21105 0.95923 0.0
C1002 C 0.26565 0.71993 -0.00294 0.0
C1003 C 0.23478 0.72062 0.00823 0.0
H1004 H 0.3074 0.74489 0.98763 0.0
C1005 C 0.22134 0.74844 0.01626 0.0
H1006 H 0.27668 0.69883 0.99072 0.0
C1007 C 0.23897 0.77493 0.01446 0.0
C1008 C 0.27044 0.77397 0.00489 0.0
H1009 H 0.19755 0.74964 0.0249 0.0
H1010 H 0.2283 0.79593 0.02161 0.0
C1011 C 0.28335 0.74631 -0.00445 0.0
C1012 C 0.7709 0.22005 0.03381 0.0
C1013 C 0.76137 0.24841 0.02305 0.0
H1014 H 0.75752 0.1745 0.04338 0.0
C1015 C 0.7307 0.25189 0.01178 0.0
H1016 H 0.79436 0.2167 0.0427 0.0
C1017 C 0.70954 0.22792 0.0125 0.0
C1018 C 0.71862 0.19987 0.02434 0.0
H1019 H 0.72256 0.27346 0.00338 0.0
H1020 H 0.68597 0.23149 0.00401 0.0
C1021 C 0.74975 0.19594 0.03431 0.0
C1022 C 0.74402 0.7274 0.97732 0.0
C1023 C 0.77574 0.73204 0.96993 0.0
H1024 H 0.69784 0.74574 0.97938 0.0
C1025 C 0.78537 0.76067 0.95996 0.0
H1026 H 0.73567 0.70562 0.98485 0.0
C1027 C 0.76336 0.78396 0.95665 0.0
C1028 C 0.73141 0.77879 0.96299 0.0
H1029 H 0.80966 0.76483 0.95394 0.0
H1030 H 0.77121 0.8057 0.94847 0.0
C1031 C 0.72215 0.75041 0.97382 0.0
C1032 C 0.53421 0.73474 0.76298 0.0
C1033 C 0.50852 0.71585 0.75713 0.0
H1034 H 0.56156 0.77224 0.74804 0.0
C1035 C 0.49427 0.71666 0.72849 0.0
H1036 H 0.54613 0.73419 0.78448 0.0
C1037 C 0.5035 0.73839 0.70728 0.0
C1038 C 0.527 0.75924 0.71474 0.0
H1039 H 0.47432 0.70236 0.72345 0.0
H1040 H 0.49067 0.74046 0.68628 0.0
C1041 C 0.54318 0.75642 0.74207 0.0
C1042 C 0.24194 0.47792 0.76175 0.0
C1043 C 0.27322 0.46821 0.75881 0.0
H1044 H 0.1978 0.48527 0.74012 0.0
C1045 C 0.28459 0.46021 0.73015 0.0
H1046 H 0.23239 0.48417 0.78351 0.0
C1047 C 0.26463 0.46091 0.70507 0.0
C1048 C 0.23292 0.46925 0.7084 0.0
H1049 H 0.3086 0.4526 0.72723 0.0
H1050 H 0.27375 0.45397 0.68335 0.0
C1051 C 0.22199 0.4783 0.73688 0.0
C1052 C 0.51904 0.2314 0.78412 0.0
C1053 C 0.51912 0.26247 0.77819 0.0
H1054 H 0.50814 0.18738 0.7684 0.0
C1055 C 0.50907 0.27288 0.74985 0.0
H1056 H 0.52709 0.22265 0.8056 0.0
C1057 C 0.49784 0.25241 0.72826 0.0
C1058 C 0.49718 0.22133 0.73466 0.0
H1059 H 0.5091 0.29676 0.74472 0.0
H1060 H 0.48922 0.26089 0.7069 0.0
C1061 C 0.50844 0.21111 0.7626 0.0
C1062 C 0.72927 0.51893 0.71352 0.0
C1063 C 0.7608 0.50944 0.71343 0.0
H1064 H 0.68894 0.52996 0.74037 0.0
C1065 C 0.77504 0.50119 0.74081 0.0
H1066 H 0.71761 0.52528 0.69274 0.0
C1067 C 0.7587 0.50371 0.76783 0.0
C1068 C 0.72771 0.51453 0.7682 0.0
H1069 H 0.79917 0.49339 0.74157 0.0
H1070 H 0.77092 0.49819 0.78851 0.0
C1071 C 0.71285 0.52154 0.74075 0.0
C1072 C 0.5057 0.23106 0.26117 0.0
C1073 C 0.51223 0.20204 0.25001 0.0
H1074 H 0.48993 0.27597 0.2505 0.0
C1075 C 0.50956 0.19652 0.219 0.0
H1076 H 0.50774 0.23585 0.28504 0.0
C1077 C 0.50032 0.2193 0.19945 0.0
C1078 C 0.49288 0.24814 0.21041 0.0
H1079 H 0.51481 0.1745 0.20966 0.0
H1080 H 0.49819 0.21393 0.1757 0.0
C1081 C 0.49565 0.25394 0.24148 0.0
C1082 C 0.74364 0.46419 0.27731 0.0
C1083 C 0.77489 0.47402 0.27412 0.0
H1084 H 0.70083 0.45215 0.25495 0.0
C1085 C 0.78607 0.48166 0.24532 0.0
H1086 H 0.73428 0.45825 0.29923 0.0
C1087 C 0.76686 0.47842 0.2201 0.0
C1088 C 0.73611 0.46731 0.22309 0.0
H1089 H 0.8099 0.48961 0.24211 0.0
H1090 H 0.77659 0.4836 0.19814 0.0
C1091 C 0.72445 0.46075 0.25198 0.0
C1092 C 0.50509 0.75756 0.20255 0.0
C1093 C 0.51283 0.72795 0.21086 0.0
H1094 H 0.48595 0.79982 0.21584 0.0
C1095 C 0.50679 0.71826 0.24049 0.0
H1096 H 0.50972 0.76584 0.18 0.0
C1097 C 0.49265 0.73795 0.26128 0.0
C1098 C 0.48516 0.76766 0.25276 0.0
H1099 H 0.51264 0.69552 0.24743 0.0
H1100 H 0.48776 0.73006 0.28391 0.0
C1101 C 0.49169 0.77719 0.22325 0.0
C1102 C 0.27775 0.53374 0.25146 0.0
C1103 C 0.26756 0.52445 0.2228 0.0
H1104 H 0.26524 0.54166 0.29758 0.0
C1105 C 0.23632 0.51492 0.21908 0.0
H1106 H 0.30167 0.54132 0.25496 0.0
C1107 C 0.2154 0.51557 0.24324 0.0
C1108 C 0.22531 0.52547 0.2718 0.0
H1109 H 0.22765 0.50782 0.19725 0.0
H1110 H 0.19138 0.50841 0.23945 0.0
C1111 C 0.25685 0.53408 0.2758 0.0
C1112 C 0.73281 0.70581 0.46362 0.0
C1113 C 0.76345 0.70934 0.47502 0.0
H1114 H 0.68974 0.72749 0.45111 0.0
C1115 C 0.77278 0.73771 0.48582 0.0
H1116 H 0.7248 0.68416 0.45533 0.0
C1117 C 0.75262 0.76243 0.48361 0.0
C1118 C 0.72272 0.75931 0.47048 0.0
H1119 H 0.79592 0.74103 0.49538 0.0
H1120 H 0.76109 0.78423 0.491 0.0
C1121 C 0.71266 0.7306 0.46129 0.0
C1122 C 0.74529 0.22894 0.48646 0.0
C1123 C 0.71572 0.2306 0.50041 0.0
H1124 H 0.78793 0.25178 0.47568 0.0
C1125 C 0.70469 0.25867 0.5107 0.0
H1126 H 0.75443 0.20775 0.4781 0.0
C1127 C 0.72405 0.28411 0.50929 0.0
C1128 C 0.75472 0.28166 0.4978 0.0
H1129 H 0.68193 0.26063 0.52148 0.0
H1130 H 0.71574 0.30514 0.51885 0.0
C1131 C 0.76464 0.25417 0.48528 0.0
C1132 C 0.26852 0.71707 0.53017 0.0
C1133 C 0.25884 0.7464 0.52257 0.0
H1134 H 0.25509 0.67075 0.53516 0.0
C1135 C 0.22785 0.75113 0.51267 0.0
H1136 H 0.29223 0.71279 0.53797 0.0
C1137 C 0.20662 0.72733 0.51142 0.0
C1138 C 0.21589 0.69813 0.51984 0.0
H1139 H 0.21952 0.77345 0.50682 0.0
H1140 H 0.18278 0.73197 0.50417 0.0
C1141 C 0.24723 0.69307 0.52865 0.0
C1142 C 0.26333 0.29125 0.45315 0.0
C1143 C 0.2318 0.28731 0.4618 0.0
H1144 H 0.30797 0.27008 0.4454 0.0
C1145 C 0.22171 0.25875 0.47141 0.0
H1146 H 0.27181 0.31307 0.44579 0.0
C1147 C 0.24237 0.23445 0.47158 0.0
C1148 C 0.27357 0.23802 0.46192 0.0
H1149 H 0.19769 0.25501 0.47861 0.0
H1150 H 0.23345 0.21262 0.47838 0.0
C1151 C 0.28405 0.26672 0.45305 0.0
C1152 C 0.12603 0.34729 0.09817 0.0
C1153 C 0.09556 0.33771 0.09055 0.0
H1154 H 0.17283 0.35598 0.0829 0.0
C1155 C 0.08868 0.33086 0.06036 0.0
H1156 H 0.13208 0.35274 0.12126 0.0
C1157 C 0.112 0.33307 0.03828 0.0
C1158 C 0.14274 0.34171 0.0461 0.0
H1159 H 0.06536 0.32355 0.05381 0.0
H1160 H 0.10613 0.3272 0.01525 0.0
C1161 C 0.14943 0.34906 0.07621 0.0
C1162 C 0.62128 0.07112 0.13155 0.0
C1163 C 0.65 0.05571 0.12825 0.0
H1164 H 0.59364 0.10897 0.11715 0.0
C1165 C 0.67567 0.07084 0.11533 0.0
H1166 H 0.60117 0.06009 0.14168 0.0
C1167 C 0.6714 0.09883 0.10169 0.0
C1168 C 0.64145 0.11198 0.10075 0.0
H1169 H 0.6983 0.05981 0.11315 0.0
H1170 H 0.69064 0.10852 0.08895 0.0
C1171 C 0.61702 0.09925 0.11777 0.0
C1172 C 0.9054 0.65451 0.08947 0.0
C1173 C 0.89248 0.66067 0.118 0.0
H1174 H 0.89711 0.64996 0.04208 0.0
C1175 C 0.86018 0.66671 0.12035 0.0
H1176 H 0.93027 0.64986 0.08691 0.0
C1177 C 0.84118 0.66665 0.0947 0.0
C1178 C 0.85411 0.66079 0.06609 0.0
H1179 H 0.84953 0.67154 0.142 0.0
H1180 H 0.81636 0.67146 0.09733 0.0
C1181 C 0.88644 0.6547 0.06375 0.0
C1182 C 0.36589 0.87849 0.09787 0.0
C1183 C 0.34189 0.86905 0.07831 0.0
H1184 H 0.38144 0.91279 0.12845 0.0
C1185 C 0.31229 0.88285 0.08006 0.0
H1186 H 0.38896 0.86816 0.09683 0.0
C1187 C 0.30794 0.9083 0.09799 0.0
C1188 C 0.33323 0.92046 0.11434 0.0
H1189 H 0.29322 0.87548 0.06568 0.0
H1190 H 0.28553 0.9199 0.09697 0.0
C1191 C 0.36159 0.90415 0.11584 0.0
C1192 C 0.12477 0.63194 0.88555 0.0
C1193 C 0.09449 0.64088 0.89468 0.0
H1194 H 0.17275 0.62508 0.89817 0.0
C1195 C 0.08935 0.64842 0.92503 0.0
H1196 H 0.12955 0.62597 0.86231 0.0
C1197 C 0.11416 0.64762 0.94571 0.0
C1198 C 0.14466 0.63967 0.9363 0.0
H1199 H 0.06627 0.65529 0.93275 0.0
H1200 H 0.10959 0.65402 0.96887 0.0
C1201 C 0.1496 0.63154 0.90608 0.0
C1202 C 0.30816 0.08434 0.87753 0.0
C1203 C 0.33329 0.07147 0.8615 0.0
H1204 H 0.29392 0.11802 0.90918 0.0
C1205 C 0.36191 0.08725 0.85971 0.0
H1206 H 0.2856 0.07307 0.87875 0.0
C1207 C 0.36661 0.11313 0.87724 0.0
C1208 C 0.34271 0.12332 0.89654 0.0
H1209 H 0.38164 0.07795 0.84735 0.0
H1210 H 0.38988 0.12301 0.87826 0.0
C1211 C 0.31287 0.11008 0.89493 0.0
C1212 C 0.84778 0.33085 0.91146 0.0
C1213 C 0.85486 0.32211 0.94114 0.0
H1214 H 0.86494 0.33872 0.8669 0.0
C1215 C 0.88605 0.3145 0.94848 0.0
H1216 H 0.82405 0.33705 0.90509 0.0
C1217 C 0.90955 0.31521 0.92641 0.0
C1218 C 0.90237 0.32397 0.89675 0.0
H1219 H 0.89226 0.30766 0.97116 0.0
H1220 H 0.93332 0.30898 0.93261 0.0
C1221 C 0.87128 0.33196 0.88958 0.0
C1222 C 0.6785 0.87396 0.8829 0.0
C1223 C 0.64919 0.85958 0.88368 0.0
H1224 H 0.70369 0.9139 0.87115 0.0
C1225 C 0.62447 0.87096 0.86608 0.0
H1226 H 0.69797 0.86532 0.89609 0.0
C1227 C 0.62762 0.89898 0.85182 0.0
C1228 C 0.65551 0.91568 0.85526 0.0
H1229 H 0.60157 0.86027 0.86658 0.0
H1230 H 0.60714 0.90895 0.84125 0.0
C1231 C 0.68167 0.90186 0.86879 0.0
C1232 C 0.06602 0.07958 0.33578 0.0
C1233 C 0.09612 0.08524 0.3476 0.0
H1234 H 0.01974 0.09679 0.32754 0.0
C1235 C 0.10161 0.11262 0.36265 0.0
H1236 H 0.06098 0.05862 0.32422 0.0
C1237 C 0.07811 0.13455 0.36432 0.0
C1238 C 0.04845 0.1295 0.35128 0.0
H1239 H 0.12448 0.11766 0.37213 0.0
H1240 H 0.08347 0.15581 0.3752 0.0
C1241 C 0.04235 0.10143 0.33775 0.0
C1242 C 0.9099 0.055 0.31854 0.0
C1243 C 0.90257 0.0845 0.32774 0.0
H1244 H 0.89281 0.01032 0.31032 0.0
C1245 C 0.87152 0.09134 0.33617 0.0
H1246 H 0.93363 0.04907 0.31194 0.0
C1247 C 0.84814 0.06937 0.33485 0.0
C1248 C 0.85535 0.03991 0.32548 0.0
H1249 H 0.86505 0.11388 0.34329 0.0
H1250 H 0.82441 0.07549 0.34127 0.0
C1251 C 0.88654 0.03283 0.31765 0.0
C1252 C 0.93843 0.90754 0.32895 0.0
C1253 C 0.9071 0.90112 0.33666 0.0
H1254 H 0.98554 0.8908 0.32518 0.0
C1255 C 0.8997 0.87248 0.34822 0.0
H1256 H 0.94485 0.92944 0.32008 0.0
C1257 C 0.92282 0.85026 0.35068 0.0
C1258 C 0.95397 0.85635 0.34215 0.0
H1259 H 0.87577 0.86679 0.35434 0.0
H1260 H 0.91618 0.82815 0.35889 0.0
C1261 C 0.96172 0.88543 0.33194 0.0
C1262 C 0.11654 0.95501 0.33687 0.0
C1263 C 0.14699 0.94807 0.3471 0.0
H1264 H 0.07005 0.93867 0.32816 0.0
C1265 C 0.153 0.91938 0.35918 0.0
H1266 H 0.11121 0.97698 0.32749 0.0
C1267 C 0.12931 0.89769 0.36007 0.0
C1268 C 0.09932 0.9041 0.34837 0.0
H1269 H 0.17615 0.91353 0.36753 0.0
H1270 H 0.13492 0.87549 0.36875 0.0
C1271 C 0.09299 0.93311 0.33724 0.0
C1272 C 0.02917 0.88543 0.65833 0.0
C1273 C 0.03589 0.85745 0.64485 0.0
H1274 H 0.04635 0.92916 0.67052 0.0
C1275 C 0.06527 0.85329 0.63092 0.0
H1276 H 0.00677 0.88942 0.66921 0.0
C1277 C 0.08781 0.87617 0.6314 0.0
C1278 C 0.08165 0.90361 0.64613 0.0
H1279 H 0.07112 0.83213 0.62007 0.0
H1280 H 0.11048 0.87188 0.62112 0.0
C1281 C 0.05188 0.90821 0.65911 0.0
C1282 C 0.10018 0.03878 0.65002 0.0
C1283 C 0.13052 0.04458 0.63883 0.0
H1284 H 0.05451 0.0568 0.65988 0.0
C1285 C 0.13702 0.07294 0.62625 0.0
H1286 H 0.09446 0.0171 0.65984 0.0
C1287 C 0.11409 0.09543 0.62588 0.0
C1288 C 0.08427 0.09025 0.63855 0.0
H1289 H 0.16007 0.07798 0.61717 0.0
H1290 H 0.12024 0.11728 0.61671 0.0
C1291 C 0.07731 0.06151 0.65009 0.0
C1292 C 0.90965 0.16555 0.62677 0.0
C1293 C 0.9397 0.15434 0.63381 0.0
H1294 H 0.86055 0.15646 0.62281 0.0
C1295 C 0.94297 0.12355 0.64086 0.0
H1296 H 0.90624 0.18905 0.62094 0.0
C1297 C 0.91653 0.10475 0.64204 0.0
C1298 C 0.88637 0.11633 0.63599 0.0
H1299 H 0.96579 0.11417 0.64634 0.0
H1300 H 0.91965 0.08134 0.64835 0.0
C1301 C 0.88337 0.14679 0.62777 0.0
C1302 C 0.86283 0.89745 0.65972 0.0
C1303 C 0.89402 0.90297 0.66857 0.0
H1304 H 0.81714 0.91578 0.65174 0.0
C1305 C 0.90305 0.93255 0.67586 0.0
H1306 H 0.85509 0.87489 0.654 0.0
C1307 C 0.88125 0.95615 0.67429 0.0
C1308 C 0.84995 0.9505 0.6658 0.0
H1309 H 0.92695 0.9375 0.68267 0.0
H1310 H 0.88885 0.97872 0.6801 0.0
C1311 C 0.84102 0.92089 0.65852 0.0
C1312 C 0.31159 0.08888 0.10115 0.0
C1313 C 0.341 0.08762 0.11533 0.0
H1314 H 0.28524 0.10501 0.06349 0.0
C1315 C 0.36482 0.10746 0.10609 0.0
H1316 H 0.29265 0.07427 0.10835 0.0
C1317 C 0.36068 0.12513 0.08021 0.0
C1318 C 0.33265 0.12301 0.06348 0.0
H1319 H 0.38775 0.10682 0.11673 0.0
H1320 H 0.38047 0.13791 0.0717 0.0
C1321 C 0.3074 0.10648 0.07545 0.0
C1322 C 0.30972 0.9029 0.87399 0.0
C1323 C 0.33909 0.90409 0.85975 0.0
H1324 H 0.2834 0.8866 0.91155 0.0
C1325 C 0.36292 0.88417 0.86881 0.0
H1326 H 0.29083 0.9177 0.86694 0.0
C1327 C 0.35881 0.86636 0.89459 0.0
C1328 C 0.3308 0.86843 0.91137 0.0
H1329 H 0.38582 0.88484 0.85812 0.0
H1330 H 0.37861 0.85345 0.90294 0.0
C1331 C 0.30554 0.88512 0.89956 0.0
C1332 C 0.07564 0.36952 0.85713 0.0
C1333 C 0.04691 0.35411 0.85976 0.0
H1334 H 0.1201 0.37968 0.87708 0.0
C1335 C 0.04011 0.3389 0.8868 0.0
H1336 H 0.08144 0.38176 0.83673 0.0
C1337 C 0.06245 0.3375 0.90992 0.0
C1338 C 0.09183 0.35158 0.90657 0.0
H1339 H 0.01816 0.32688 0.88959 0.0
H1340 H 0.05709 0.3245 0.92995 0.0
C1341 C 0.09777 0.36844 0.88034 0.0
C1342 C 0.61855 0.1159 0.91768 0.0
C1343 C 0.64673 0.11315 0.93407 0.0
H1344 H 0.59169 0.09989 0.87993 0.0
C1345 C 0.67203 0.09736 0.92119 0.0
H1346 H 0.59871 0.1281 0.92697 0.0
C1347 C 0.66801 0.08146 0.89441 0.0
C1348 C 0.63868 0.0811 0.88003 0.0
H1349 H 0.69429 0.09544 0.93292 0.0
H1350 H 0.68721 0.06775 0.88611 0.0
C1351 C 0.61455 0.09989 0.89071 0.0
C1352 C 0.9154 0.61366 0.8475 0.0
C1353 C 0.94497 0.62653 0.8532 0.0
H1354 H 0.86943 0.60406 0.8641 0.0
C1355 C 0.95139 0.63773 0.88225 0.0
H1356 H 0.9098 0.60442 0.82553 0.0
C1357 C 0.92798 0.63767 0.90453 0.0
C1358 C 0.89788 0.62618 0.89819 0.0
H1359 H 0.97399 0.64771 0.88738 0.0
H1360 H 0.9331 0.64763 0.92627 0.0
C1361 C 0.89223 0.61336 0.86972 0.0
C1362 C 0.62235 0.86963 0.09489 0.0
C1363 C 0.64553 0.88941 0.10562 0.0
H1364 H 0.60753 0.84154 0.05819 0.0
C1365 C 0.67457 0.89093 0.09082 0.0
H1366 H 0.5997 0.86826 0.10598 0.0
C1367 C 0.67901 0.87597 0.06357 0.0
C1368 C 0.65442 0.85924 0.0507 0.0
H1369 H 0.69303 0.90553 0.09912 0.0
H1370 H 0.70089 0.87936 0.05153 0.0
C1371 C 0.62678 0.85454 0.06747 0.0
C1372 C 0.09313 0.62508 0.13203 0.0
C1373 C 0.06381 0.6395 0.12978 0.0
H1374 H 0.13614 0.61344 0.10999 0.0
C1375 C 0.0544 0.65139 0.10179 0.0
H1376 H 0.10089 0.61539 0.15319 0.0
C1377 C 0.07473 0.65051 0.07706 0.0
C1378 C 0.10464 0.63734 0.07973 0.0
H1379 H 0.03189 0.66256 0.0993 0.0
H1380 H 0.0674 0.661 0.05614 0.0
C1381 C 0.11325 0.6238 0.10719 0.0
C1382 C 0.91845 0.35232 0.13312 0.0
C1383 C 0.94909 0.34084 0.13018 0.0
H1384 H 0.87307 0.35758 0.11315 0.0
C1385 C 0.95783 0.32697 0.10291 0.0
H1386 H 0.91104 0.36336 0.15373 0.0
C1387 C 0.93589 0.32336 0.07965 0.0
C1388 C 0.90492 0.33391 0.08306 0.0
H1389 H 0.98124 0.31784 0.09995 0.0
H1390 H 0.94299 0.31167 0.05932 0.0
C1391 C 0.8967 0.3491 0.10976 0.0
C1392 C 0.5997 0.83209 0.53138 0.0
C1393 C 0.62921 0.84465 0.53815 0.0
H1394 H 0.55368 0.82108 0.54769 0.0
C1395 C 0.63365 0.85892 0.56606 0.0
H1396 H 0.5956 0.82103 0.50997 0.0
C1397 C 0.60952 0.8595 0.58733 0.0
C1398 C 0.58065 0.84527 0.58137 0.0
H1399 H 0.65601 0.86913 0.57172 0.0
H1400 H 0.61412 0.86983 0.60901 0.0
C1401 C 0.5757 0.83214 0.55294 0.0
C1402 C 0.12577 0.57486 0.62684 0.0
C1403 C 0.15547 0.56122 0.62343 0.0
H1404 H 0.09396 0.6086 0.61014 0.0
C1405 C 0.17848 0.57593 0.60614 0.0
H1406 H 0.1076 0.56415 0.64017 0.0
C1407 C 0.17064 0.60124 0.58914 0.0
C1408 C 0.13979 0.61232 0.58934 0.0
H1409 H 0.20178 0.56635 0.6036 0.0
H1410 H 0.18799 0.61059 0.57393 0.0
C1411 C 0.11795 0.60037 0.60977 0.0
C1412 C 0.35264 0.15781 0.57738 0.0
C1413 C 0.361 0.16653 0.54801 0.0
H1414 H 0.3676 0.15146 0.62293 0.0
C1415 C 0.39205 0.17569 0.54223 0.0
H1416 H 0.32896 0.15047 0.58252 0.0
C1417 C 0.41417 0.17658 0.56552 0.0
C1418 C 0.40573 0.16786 0.59487 0.0
H1419 H 0.39916 0.1826 0.51981 0.0
H1420 H 0.43786 0.18399 0.56052 0.0
C1421 C 0.37483 0.15825 0.60051 0.0
C1422 C 0.79888 0.37711 0.58064 0.0
C1423 C 0.82785 0.36206 0.58126 0.0
H1424 H 0.77228 0.41491 0.59605 0.0
C1425 C 0.85009 0.36978 0.60327 0.0
H1426 H 0.78115 0.37108 0.56419 0.0
C1427 C 0.84519 0.39513 0.62151 0.0
C1428 C 0.81796 0.41285 0.61781 0.0
H1429 H 0.87266 0.35844 0.60404 0.0
H1430 H 0.86406 0.40247 0.63617 0.0
C1431 C 0.79388 0.40224 0.59889 0.0
C1432 C 0.57711 0.14401 0.42001 0.0
C1433 C 0.58385 0.13241 0.39125 0.0
H1434 H 0.59503 0.1555 0.46365 0.0
C1435 C 0.6142 0.12131 0.38529 0.0
H1436 H 0.5539 0.15259 0.4253 0.0
C1437 C 0.63779 0.12335 0.40703 0.0
C1438 C 0.63144 0.13608 0.43536 0.0
H1439 H 0.62017 0.11214 0.36339 0.0
H1440 H 0.6612 0.11552 0.40139 0.0
C1441 C 0.60065 0.14561 0.44197 0.0
C1442 C 0.86391 0.58942 0.36252 0.0
C1443 C 0.8361 0.5723 0.36358 0.0
H1444 H 0.88969 0.62605 0.38217 0.0
C1445 C 0.80995 0.58389 0.37909 0.0
H1446 H 0.88438 0.5812 0.35052 0.0
C1447 C 0.81302 0.60951 0.39699 0.0
C1448 C 0.84219 0.62393 0.39954 0.0
H1449 H 0.78796 0.57159 0.3797 0.0
H1450 H 0.79342 0.61632 0.41102 0.0
C1451 C 0.86693 0.61522 0.38049 0.0
C1452 C 0.34149 0.82953 0.41193 0.0
C1453 C 0.3494 0.82068 0.44138 0.0
H1454 H 0.3572 0.83659 0.36674 0.0
C1455 C 0.3806 0.81221 0.44768 0.0
H1456 H 0.31773 0.83637 0.40636 0.0
C1457 C 0.40326 0.81207 0.42482 0.0
C1458 C 0.39523 0.82081 0.39536 0.0
H1459 H 0.38743 0.80524 0.47016 0.0
H1460 H 0.42702 0.80512 0.43023 0.0
C1461 C 0.36418 0.82979 0.38923 0.0
C1462 C 0.18532 0.41701 0.37338 0.0
C1463 C 0.15987 0.42892 0.35705 0.0
H1464 H 0.20064 0.38362 0.40488 0.0
C1465 C 0.13214 0.41184 0.35452 0.0
H1466 H 0.20725 0.4293 0.37517 0.0
C1467 C 0.12843 0.38553 0.37162 0.0
C1468 C 0.15242 0.37624 0.39127 0.0
H1469 H 0.1122 0.42036 0.34191 0.0
H1470 H 0.10571 0.37451 0.372 0.0
C1471 C 0.18157 0.39088 0.39041 0.0
C1472 C 0.60377 0.60451 0.87054 0.0
C1473 C 0.59666 0.5769 0.85653 0.0
H1474 H 0.58983 0.6502 0.87835 0.0
C1475 C 0.56727 0.57345 0.84245 0.0
H1476 H 0.62615 0.60794 0.88167 0.0
C1477 C 0.54625 0.5977 0.84082 0.0
C1478 C 0.55447 0.62595 0.85284 0.0
H1479 H 0.56103 0.55241 0.83158 0.0
H1480 H 0.52435 0.59474 0.82872 0.0
C1481 C 0.58302 0.62883 0.86849 0.0
C1482 C 0.41686 0.56343 0.82293 0.0
C1483 C 0.40992 0.59359 0.82992 0.0
H1484 H 0.39949 0.51839 0.81866 0.0
C1485 C 0.37925 0.60126 0.83888 0.0
H1486 H 0.44032 0.55683 0.81606 0.0
C1487 C 0.35576 0.57933 0.84003 0.0
C1488 C 0.36258 0.5492 0.83267 0.0
H1489 H 0.37317 0.62435 0.84437 0.0
H1490 H 0.33224 0.58601 0.84662 0.0
C1491 C 0.39347 0.54141 0.82449 0.0
C1492 C 0.38651 0.35128 0.86467 0.0
C1493 C 0.39008 0.38226 0.85905 0.0
H1494 H 0.40877 0.30827 0.86858 0.0
C1495 C 0.4205 0.39388 0.85473 0.0
H1496 H 0.36344 0.34159 0.86824 0.0
C1497 C 0.44665 0.37468 0.85488 0.0
C1498 C 0.44291 0.34347 0.85934 0.0
H1499 H 0.42407 0.41767 0.8504 0.0
H1500 H 0.46967 0.38423 0.85075 0.0
C1501 C 0.41257 0.33212 0.86481 0.0
C1502 C 0.60634 0.41313 0.85713 0.0
C1503 C 0.61859 0.38418 0.86257 0.0
H1504 H 0.61639 0.45995 0.85028 0.0
C1505 C 0.65107 0.38077 0.86711 0.0
H1506 H 0.58137 0.41647 0.85365 0.0
C1507 C 0.67108 0.40553 0.86498 0.0
C1508 C 0.65905 0.43433 0.85848 0.0
H1509 H 0.66126 0.35881 0.8715 0.0
H1510 H 0.69608 0.40195 0.86798 0.0
C1511 C 0.62639 0.43802 0.85521 0.0
C1512 C 0.58086 0.3508 0.12386 0.0
C1513 C 0.5515 0.35333 0.13816 0.0
H1514 H 0.62546 0.37103 0.11504 0.0
C1515 C 0.54411 0.3802 0.15346 0.0
H1516 H 0.58717 0.33053 0.11163 0.0
C1517 C 0.56625 0.40343 0.15566 0.0
C1518 C 0.59603 0.40039 0.14225 0.0
H1519 H 0.52169 0.38287 0.16471 0.0
H1520 H 0.5603 0.42344 0.16847 0.0
C1521 C 0.60277 0.37412 0.1257 0.0
C1522 C 0.65482 0.57224 0.13712 0.0
C1523 C 0.64765 0.54263 0.14597 0.0
H1524 H 0.63838 0.61743 0.13162 0.0
C1525 C 0.61694 0.53589 0.15558 0.0
H1526 H 0.67819 0.57812 0.12942 0.0
C1527 C 0.59413 0.55855 0.15714 0.0
C1528 C 0.6015 0.58826 0.14872 0.0
H1529 H 0.61071 0.51327 0.1626 0.0
H1530 H 0.57082 0.55285 0.16514 0.0
C1531 C 0.63195 0.59476 0.13829 0.0
C1532 C 0.42733 0.63032 0.12252 0.0
C1533 C 0.45686 0.62795 0.13649 0.0
H1534 H 0.38274 0.60984 0.11426 0.0
C1535 C 0.46465 0.60112 0.15168 0.0
H1536 H 0.42075 0.65058 0.11039 0.0
C1537 C 0.44267 0.57779 0.15421 0.0
C1538 C 0.41269 0.58068 0.14119 0.0
H1539 H 0.48722 0.59863 0.1627 0.0
H1540 H 0.44887 0.55785 0.16701 0.0
C1541 C 0.4056 0.60687 0.12462 0.0
C1542 C 0.37545 0.3868 0.14675 0.0
C1543 C 0.40635 0.39355 0.15567 0.0
H1544 H 0.32889 0.40321 0.13918 0.0
C1545 C 0.41393 0.42339 0.16346 0.0
H1546 H 0.36882 0.36401 0.14068 0.0
C1547 C 0.39101 0.44602 0.16231 0.0
C1548 C 0.35999 0.43912 0.1538 0.0
H1549 H 0.43757 0.42928 0.17035 0.0
H1550 H 0.3975 0.46882 0.16847 0.0
C1551 C 0.3525 0.40926 0.14602 0.0
C1552 C 0.86034 0.59805 0.6089 0.0
C1553 C 0.83543 0.57906 0.61729 0.0
H1554 H 0.87797 0.62879 0.5756 0.0
C1555 C 0.80644 0.58182 0.60254 0.0
H1556 H 0.88298 0.59624 0.61997 0.0
C1557 C 0.80355 0.60026 0.57728 0.0
C1558 C 0.82968 0.61618 0.56627 0.0
H1559 H 0.78668 0.56792 0.60907 0.0
H1560 H 0.78155 0.60008 0.56494 0.0
C1561 C 0.85749 0.61658 0.58343 0.0
C1562 C 0.87297 0.38616 0.37564 0.0
C1563 C 0.84971 0.40539 0.36404 0.0
H1564 H 0.88538 0.35555 0.41116 0.0
C1565 C 0.81888 0.40322 0.37494 0.0
H1566 H 0.89696 0.38764 0.36757 0.0
C1567 C 0.81226 0.38515 0.39981 0.0
C1568 C 0.83642 0.36901 0.41416 0.0
H1569 H 0.80045 0.41743 0.36586 0.0
H1570 H 0.7888 0.38586 0.40932 0.0
C1571 C 0.86634 0.36794 0.40065 0.0
C1572 C 0.56931 0.85713 0.34806 0.0
C1573 C 0.53941 0.84429 0.35216 0.0
H1574 H 0.61494 0.86506 0.36665 0.0
C1575 C 0.5322 0.83091 0.38007 0.0
H1576 H 0.57556 0.86785 0.32695 0.0
C1577 C 0.55492 0.8291 0.40281 0.0
C1578 C 0.58519 0.84093 0.39823 0.0
H1579 H 0.50939 0.82084 0.384 0.0
H1580 H 0.54897 0.8178 0.42369 0.0
C1581 C 0.59188 0.85562 0.37089 0.0
C1582 C 0.17211 0.61034 0.40797 0.0
C1583 C 0.14497 0.62235 0.42146 0.0
H1584 H 0.1909 0.58476 0.37132 0.0
C1585 C 0.11703 0.62383 0.40458 0.0
H1586 H 0.19416 0.60951 0.42019 0.0
C1587 C 0.11524 0.60962 0.37638 0.0
C1588 C 0.1414 0.59397 0.36499 0.0
H1589 H 0.0958 0.63314 0.41438 0.0
H1590 H 0.09261 0.60788 0.36531 0.0
C1591 C 0.17033 0.59631 0.37993 0.0
C1592 C 0.40709 0.11853 0.33019 0.0
C1593 C 0.43809 0.12604 0.33817 0.0
H1594 H 0.35919 0.1152 0.34411 0.0
C1595 C 0.44452 0.1344 0.36814 0.0
H1596 H 0.40133 0.11167 0.30741 0.0
C1597 C 0.42018 0.13654 0.38929 0.0
C1598 C 0.38901 0.13015 0.38089 0.0
H1599 H 0.46816 0.14022 0.37506 0.0
H1600 H 0.42567 0.14396 0.41195 0.0
C1601 C 0.38289 0.12046 0.35131 0.0
C1602 C 0.18651 0.39626 0.59972 0.0
C1603 C 0.15776 0.39532 0.61511 0.0
H1604 H 0.21128 0.38538 0.5593 0.0
C1605 C 0.13368 0.37656 0.60436 0.0
H1606 H 0.20556 0.41022 0.6079 0.0
C1607 C 0.13682 0.36236 0.5763 0.0
C1608 C 0.16407 0.3669 0.5589 0.0
H1609 H 0.1112 0.37569 0.61583 0.0
H1610 H 0.11681 0.35043 0.56705 0.0
C1611 C 0.18967 0.38216 0.57182 0.0
C1612 C 0.59817 0.1313 0.60726 0.0
C1613 C 0.58905 0.14541 0.58024 0.0
H1614 H 0.58601 0.12041 0.65276 0.0
C1615 C 0.55864 0.15762 0.57804 0.0
H1616 H 0.62143 0.12162 0.60971 0.0
C1617 C 0.53821 0.15674 0.60273 0.0
C1618 C 0.54793 0.14396 0.63023 0.0
H1619 H 0.55087 0.16853 0.55749 0.0
H1620 H 0.51523 0.16701 0.60052 0.0
C1621 C 0.57791 0.13074 0.63202 0.0
C1622 C 0.40449 0.84061 0.65941 0.0
C1623 C 0.43484 0.83966 0.64686 0.0
H1624 H 0.35497 0.84044 0.65154 0.0
C1625 C 0.43793 0.83927 0.61527 0.0
H1626 H 0.40112 0.84118 0.68362 0.0
C1627 C 0.41124 0.83883 0.59674 0.0
C1628 C 0.38094 0.83885 0.60946 0.0
H1629 H 0.46095 0.8386 0.60483 0.0
H1630 H 0.41436 0.8378 0.57253 0.0
C1631 C 0.37792 0.84025 0.64097 0.0
loop_
_geom_bond_atom_site_label_1
_geom_bond_atom_site_label_2
_geom_bond_distance
_geom_bond_site_symmetry_2
_ccdc_geom_bond_type
Mg0 O1 2.028 . S
Mg0 O7 1.986 . S
Mg0 O9 2.114 . S
Mg0 O10 2.251 . S
Mg0 O13 2.010 . S
O1 Mg0 2.028 . S
O1 C4 1.250 1_455 S
O2 Mg3 2.028 . S
O2 C4 1.248 . S
Mg3 O2 2.028 . S
Mg3 O8 2.032 1_655 S
Mg3 O10 2.079 1_655 S
C4 O1 1.250 1_655 S
C4 O2 1.248 . S
C5 O6 1.264 . S
C5 O13 1.249 . S
O6 C5 1.264 . S
O7 Mg0 1.986 . S
O7 C11 1.246 . S
O8 Mg3 2.032 1_455 S
O8 C11 1.259 . S
O9 Mg0 2.114 . S
O9 C12 1.252 . S
O10 Mg0 2.251 . S
O10 Mg3 2.079 1_455 S
O10 C12 1.273 . S
C11 O7 1.246 . S
C11 O8 1.259 . S
C12 O9 1.252 . S
C12 O10 1.273 . S
O13 Mg0 2.010 . S
O13 C5 1.249 . S
Mg14 O15 2.028 . S
Mg14 O21 1.986 . S
Mg14 O23 2.114 1_545 S
Mg14 O24 2.251 1_545 S
Mg14 O27 2.010 . S
O15 Mg14 2.028 . S
O15 C18 1.250 . S
O16 Mg17 2.028 . S
O16 C18 1.248 . S
Mg17 O16 2.028 . S
Mg17 O22 2.032 . S
Mg17 O24 2.079 1_545 S
C18 O15 1.250 . S
C18 O16 1.248 . S
C19 O20 1.264 . S
C19 O27 1.249 . S
O20 C19 1.264 . S
O21 Mg14 1.986 . S
O21 C25 1.246 . S
O22 Mg17 2.032 . S
O22 C25 1.259 . S
O23 Mg14 2.114 1_565 S
O23 C26 1.252 . S
O24 Mg14 2.251 1_565 S
O24 Mg17 2.079 1_565 S
O24 C26 1.273 . S
C25 O21 1.246 . S
C25 O22 1.259 . S
C26 O23 1.252 . S
C26 O24 1.273 . S
O27 Mg14 2.010 . S
O27 C19 1.249 . S
Mg28 O29 2.028 . S
Mg28 O35 1.986 . S
Mg28 O37 2.114 . S
Mg28 O38 2.251 . S
Mg28 O41 2.010 . S
O29 Mg28 2.028 . S
O29 C32 1.250 1_655 S
O30 Mg31 2.028 . S
O30 C32 1.248 . S
Mg31 O30 2.028 . S
Mg31 O36 2.032 1_455 S
Mg31 O38 2.079 1_455 S
C32 O29 1.250 1_455 S
C32 O30 1.248 . S
C33 O34 1.264 . S
C33 O41 1.249 . S
O34 C33 1.264 . S
O35 Mg28 1.986 . S
O35 C39 1.246 . S
O36 Mg31 2.032 1_655 S
O36 C39 1.259 . S
O37 Mg28 2.114 . S
O37 C40 1.252 . S
O38 Mg28 2.251 . S
O38 Mg31 2.079 1_655 S
O38 C40 1.273 . S
C39 O35 1.246 . S
C39 O36 1.259 . S
C40 O37 1.252 . S
C40 O38 1.273 . S
O41 Mg28 2.010 . S
O41 C33 1.249 . S
Mg42 O43 2.028 . S
Mg42 O49 1.986 . S
Mg42 O51 2.114 1_565 S
Mg42 O52 2.251 1_565 S
Mg42 O55 2.010 . S
O43 Mg42 2.028 . S
O43 C46 1.250 . S
O44 Mg45 2.028 . S
O44 C46 1.248 . S
Mg45 O44 2.028 . S
Mg45 O50 2.032 . S
Mg45 O52 2.079 1_565 S
C46 O43 1.250 . S
C46 O44 1.248 . S
C47 O48 1.264 . S
C47 O55 1.249 . S
O48 C47 1.264 . S
O49 Mg42 1.986 . S
O49 C53 1.246 . S
O50 Mg45 2.032 . S
O50 C53 1.259 . S
O51 Mg42 2.114 1_545 S
O51 C54 1.252 . S
O52 Mg42 2.251 1_545 S
O52 Mg45 2.079 1_545 S
O52 C54 1.273 . S
C53 O49 1.246 . S
C53 O50 1.259 . S
C54 O51 1.252 . S
C54 O52 1.273 . S
O55 Mg42 2.010 . S
O55 C47 1.249 . S
Mg56 O57 2.028 . S
Mg56 O63 1.986 . S
Mg56 O65 2.114 . S
Mg56 O66 2.251 . S
Mg56 O69 2.010 . S
O57 Mg56 2.028 . S
O57 C60 1.250 1_455 S
O58 Mg59 2.028 . S
O58 C60 1.248 . S
Mg59 O58 2.028 . S
Mg59 O64 2.032 1_655 S
Mg59 O66 2.079 1_655 S
C60 O57 1.250 1_655 S
C60 O58 1.248 . S
C61 O62 1.264 . S
C61 O69 1.249 . S
O62 C61 1.264 . S
O63 Mg56 1.986 . S
O63 C67 1.246 . S
O64 Mg59 2.032 1_455 S
O64 C67 1.259 . S
O65 Mg56 2.114 . S
O65 C68 1.252 . S
O66 Mg56 2.251 . S
O66 Mg59 2.079 1_455 S
O66 C68 1.273 . S
C67 O63 1.246 . S
C67 O64 1.259 . S
C68 O65 1.252 . S
C68 O66 1.273 . S
O69 Mg56 2.010 . S
O69 C61 1.249 . S
Mg70 O71 2.028 . S
Mg70 O77 1.986 . S
Mg70 O79 2.114 1_545 S
Mg70 O80 2.251 1_545 S
Mg70 O83 2.010 . S
O71 Mg70 2.028 . S
O71 C74 1.250 . S
O72 Mg73 2.028 . S
O72 C74 1.248 . S
Mg73 O72 2.028 . S
Mg73 O78 2.032 . S
Mg73 O80 2.079 1_545 S
C74 O71 1.250 . S
C74 O72 1.248 . S
C75 O76 1.264 . S
C75 O83 1.249 . S
O76 C75 1.264 . S
O77 Mg70 1.986 . S
O77 C81 1.246 . S
O78 Mg73 2.032 . S
O78 C81 1.259 . S
O79 Mg70 2.114 1_565 S
O79 C82 1.252 . S
O80 Mg70 2.251 1_565 S
O80 Mg73 2.079 1_565 S
O80 C82 1.273 . S
C81 O77 1.246 . S
C81 O78 1.259 . S
C82 O79 1.252 . S
C82 O80 1.273 . S
O83 Mg70 2.010 . S
O83 C75 1.249 . S
Mg84 O85 2.028 . S
Mg84 O91 1.986 . S
Mg84 O93 2.114 . S
Mg84 O94 2.251 . S
Mg84 O97 2.010 . S
O85 Mg84 2.028 . S
O85 C88 1.250 1_655 S
O86 Mg87 2.028 . S
O86 C88 1.248 . S
Mg87 O86 2.028 . S
Mg87 O92 2.032 1_455 S
Mg87 O94 2.079 1_455 S
C88 O85 1.250 1_455 S
C88 O86 1.248 . S
C89 O90 1.264 . S
C89 O97 1.249 . S
O90 C89 1.264 . S
O91 Mg84 1.986 . S
O91 C95 1.246 . S
O92 Mg87 2.032 1_655 S
O92 C95 1.259 . S
O93 Mg84 2.114 . S
O93 C96 1.252 . S
O94 Mg84 2.251 . S
O94 Mg87 2.079 1_655 S
O94 C96 1.273 . S
C95 O91 1.246 . S
C95 O92 1.259 . S
C96 O93 1.252 . S
C96 O94 1.273 . S
O97 Mg84 2.010 . S
O97 C89 1.249 . S
Mg98 O99 2.028 . S
Mg98 O105 1.986 . S
Mg98 O107 2.114 1_565 S
Mg98 O108 2.251 1_565 S
Mg98 O111 2.010 . S
O99 Mg98 2.028 . S
O99 C102 1.250 . S
O100 Mg101 2.028 . S
O100 C102 1.248 . S
Mg101 O100 2.028 . S
Mg101 O106 2.032 . S
Mg101 O108 2.079 1_565 S
C102 O99 1.250 . S
C102 O100 1.248 . S
C103 O104 1.264 . S
C103 O111 1.249 . S
O104 C103 1.264 . S
O105 Mg98 1.986 . S
O105 C109 1.246 . S
O106 Mg101 2.032 . S
O106 C109 1.259 . S
O107 Mg98 2.114 1_545 S
O107 C110 1.252 . S
O108 Mg98 2.251 1_545 S
O108 Mg101 2.079 1_545 S
O108 C110 1.273 . S
C109 O105 1.246 . S
C109 O106 1.259 . S
C110 O107 1.252 . S
C110 O108 1.273 . S
O111 Mg98 2.010 . S
O111 C103 1.249 . S
Mg112 O113 2.028 . S
Mg112 O119 1.986 . S
Mg112 O121 2.114 . S
Mg112 O122 2.251 . S
Mg112 O125 2.010 . S
O113 Mg112 2.028 . S
O113 C116 1.250 1_545 S
O114 Mg115 2.028 . S
O114 C116 1.248 . S
Mg115 O114 2.028 . S
Mg115 O120 2.032 1_565 S
Mg115 O122 2.079 1_565 S
C116 O113 1.250 1_565 S
C116 O114 1.248 . S
C117 O118 1.264 . S
C117 O125 1.249 . S
O118 C117 1.264 . S
O119 Mg112 1.986 . S
O119 C123 1.246 . S
O120 Mg115 2.032 1_545 S
O120 C123 1.259 . S
O121 Mg112 2.114 . S
O121 C124 1.252 . S
O122 Mg112 2.251 . S
O122 Mg115 2.079 1_545 S
O122 C124 1.273 . S
C123 O119 1.246 . S
C123 O120 1.259 . S
C124 O121 1.252 . S
C124 O122 1.273 . S
O125 Mg112 2.010 . S
O125 C117 1.249 . S
Mg126 O127 2.028 . S
Mg126 O133 1.986 . S
Mg126 O135 2.114 . S
Mg126 O136 2.251 . S
Mg126 O139 2.010 . S
O127 Mg126 2.028 . S
O127 C130 1.250 1_655 S
O128 Mg129 2.028 . S
O128 C130 1.248 . S
Mg129 O128 2.028 . S
Mg129 O134 2.032 1_455 S
Mg129 O136 2.079 1_455 S
C130 O127 1.250 1_455 S
C130 O128 1.248 . S
C131 O132 1.264 . S
C131 O139 1.249 . S
O132 C131 1.264 . S
O133 Mg126 1.986 . S
O133 C137 1.246 . S
O134 Mg129 2.032 1_655 S
O134 C137 1.259 . S
O135 Mg126 2.114 . S
O135 C138 1.252 . S
O136 Mg126 2.251 . S
O136 Mg129 2.079 1_655 S
O136 C138 1.273 . S
C137 O133 1.246 . S
C137 O134 1.259 . S
C138 O135 1.252 . S
C138 O136 1.273 . S
O139 Mg126 2.010 . S
O139 C131 1.249 . S
Mg140 O141 2.028 . S
Mg140 O147 1.986 . S
Mg140 O149 2.114 . S
Mg140 O150 2.251 . S
Mg140 O153 2.010 . S
O141 Mg140 2.028 . S
O141 C144 1.250 1_565 S
O142 Mg143 2.028 . S
O142 C144 1.248 . S
Mg143 O142 2.028 . S
Mg143 O148 2.032 1_545 S
Mg143 O150 2.079 1_545 S
C144 O141 1.250 1_545 S
C144 O142 1.248 . S
C145 O146 1.264 . S
C145 O153 1.249 . S
O146 C145 1.264 . S
O147 Mg140 1.986 . S
O147 C151 1.246 . S
O148 Mg143 2.032 1_565 S
O148 C151 1.259 . S
O149 Mg140 2.114 . S
O149 C152 1.252 . S
O150 Mg140 2.251 . S
O150 Mg143 2.079 1_565 S
O150 C152 1.273 . S
C151 O147 1.246 . S
C151 O148 1.259 . S
C152 O149 1.252 . S
C152 O150 1.273 . S
O153 Mg140 2.010 . S
O153 C145 1.249 . S
Mg154 O155 2.028 . S
Mg154 O161 1.986 . S
Mg154 O163 2.114 . S
Mg154 O164 2.251 . S
Mg154 O167 2.010 . S
O155 Mg154 2.028 . S
O155 C158 1.250 1_455 S
O156 Mg157 2.028 . S
O156 C158 1.248 . S
Mg157 O156 2.028 . S
Mg157 O162 2.032 1_655 S
Mg157 O164 2.079 1_655 S
C158 O155 1.250 1_655 S
C158 O156 1.248 . S
C159 O160 1.264 . S
C159 O167 1.249 . S
O160 C159 1.264 . S
O161 Mg154 1.986 . S
O161 C165 1.246 . S
O162 Mg157 2.032 1_455 S
O162 C165 1.259 . S
O163 Mg154 2.114 . S
O163 C166 1.252 . S
O164 Mg154 2.251 . S
O164 Mg157 2.079 1_455 S
O164 C166 1.273 . S
C165 O161 1.246 . S
C165 O162 1.259 . S
C166 O163 1.252 . S
C166 O164 1.273 . S
O167 Mg154 2.010 . S
O167 C159 1.249 . S
Mg168 O169 2.028 . S
Mg168 O175 1.986 . S
Mg168 O177 2.114 . S
Mg168 O178 2.251 . S
Mg168 O181 2.010 . S
O169 Mg168 2.028 . S
O169 C172 1.250 1_565 S
O170 Mg171 2.028 . S
O170 C172 1.248 . S
Mg171 O170 2.028 . S
Mg171 O176 2.032 1_545 S
Mg171 O178 2.079 1_545 S
C172 O169 1.250 1_545 S
C172 O170 1.248 . S
C173 O174 1.264 . S
C173 O181 1.249 . S
O174 C173 1.264 . S
O175 Mg168 1.986 . S
O175 C179 1.246 . S
O176 Mg171 2.032 1_565 S
O176 C179 1.259 . S
O177 Mg168 2.114 . S
O177 C180 1.252 . S
O178 Mg168 2.251 . S
O178 Mg171 2.079 1_565 S
O178 C180 1.273 . S
C179 O175 1.246 . S
C179 O176 1.259 . S
C180 O177 1.252 . S
C180 O178 1.273 . S
O181 Mg168 2.010 . S
O181 C173 1.249 . S
Mg182 O183 2.028 . S
Mg182 O189 1.986 . S
Mg182 O191 2.114 . S
Mg182 O192 2.251 . S
Mg182 O195 2.010 . S
O183 Mg182 2.028 . S
O183 C186 1.250 1_455 S
O184 Mg185 2.028 . S
O184 C186 1.248 . S
Mg185 O184 2.028 . S
Mg185 O190 2.032 1_655 S
Mg185 O192 2.079 1_655 S
C186 O183 1.250 1_655 S
C186 O184 1.248 . S
C187 O188 1.264 . S
C187 O195 1.249 . S
O188 C187 1.264 . S
O189 Mg182 1.986 . S
O189 C193 1.246 . S
O190 Mg185 2.032 1_455 S
O190 C193 1.259 . S
O191 Mg182 2.114 . S
O191 C194 1.252 . S
O192 Mg182 2.251 . S
O192 Mg185 2.079 1_455 S
O192 C194 1.273 . S
C193 O189 1.246 . S
C193 O190 1.259 . S
C194 O191 1.252 . S
C194 O192 1.273 . S
O195 Mg182 2.010 . S
O195 C187 1.249 . S
Mg196 O197 2.028 . S
Mg196 O203 1.986 . S
Mg196 O205 2.114 . S
Mg196 O206 2.251 . S
Mg196 O209 2.010 . S
O197 Mg196 2.028 . S
O197 C200 1.250 1_545 S
O198 Mg199 2.028 . S
O198 C200 1.248 . S
Mg199 O198 2.028 . S
Mg199 O204 2.032 1_565 S
Mg199 O206 2.079 1_565 S
C200 O197 1.250 1_565 S
C200 O198 1.248 . S
C201 O202 1.264 . S
C201 O209 1.249 . S
O202 C201 1.264 . S
O203 Mg196 1.986 . S
O203 C207 1.246 . S
O204 Mg199 2.032 1_545 S
O204 C207 1.259 . S
O205 Mg196 2.114 . S
O205 C208 1.252 . S
O206 Mg196 2.251 . S
O206 Mg199 2.079 1_545 S
O206 C208 1.273 . S
C207 O203 1.246 . S
C207 O204 1.259 . S
C208 O205 1.252 . S
C208 O206 1.273 . S
O209 Mg196 2.010 . S
O209 C201 1.249 . S
Mg210 O211 2.028 . S
Mg210 O217 1.986 . S
Mg210 O219 2.114 . S
Mg210 O220 2.251 . S
Mg210 O223 2.010 . S
O211 Mg210 2.028 . S
O211 C214 1.250 1_655 S
O212 Mg213 2.028 . S
O212 C214 1.248 . S
Mg213 O212 2.028 . S
Mg213 O218 2.032 1_455 S
Mg213 O220 2.079 1_455 S
C214 O211 1.250 1_455 S
C214 O212 1.248 . S
C215 O216 1.264 . S
C215 O223 1.249 . S
O216 C215 1.264 . S
O217 Mg210 1.986 . S
O217 C221 1.246 . S
O218 Mg213 2.032 1_655 S
O218 C221 1.259 . S
O219 Mg210 2.114 . S
O219 C222 1.252 . S
O220 Mg210 2.251 . S
O220 Mg213 2.079 1_655 S
O220 C222 1.273 . S
C221 O217 1.246 . S
C221 O218 1.259 . S
C222 O219 1.252 . S
C222 O220 1.273 . S
O223 Mg210 2.010 . S
O223 C215 1.249 . S
Mg224 O225 2.028 . S
Mg224 O231 1.986 . S
Mg224 O233 2.114 1_554 S
Mg224 O234 2.251 1_554 S
Mg224 O237 2.010 . S
O225 Mg224 2.028 . S
O225 C228 1.250 . S
O226 Mg227 2.028 . S
O226 C228 1.248 . S
Mg227 O226 2.028 . S
Mg227 O232 2.032 . S
Mg227 O234 2.079 1_554 S
C228 O225 1.250 . S
C228 O226 1.248 . S
C229 O230 1.264 . S
C229 O237 1.249 . S
O230 C229 1.264 . S
O231 Mg224 1.986 . S
O231 C235 1.246 . S
O232 Mg227 2.032 . S
O232 C235 1.259 . S
O233 Mg224 2.114 1_556 S
O233 C236 1.252 . S
O234 Mg224 2.251 1_556 S
O234 Mg227 2.079 1_556 S
O234 C236 1.273 . S
C235 O231 1.246 . S
C235 O232 1.259 . S
C236 O233 1.252 . S
C236 O234 1.273 . S
O237 Mg224 2.010 . S
O237 C229 1.249 . S
Mg238 O239 2.028 . S
Mg238 O245 1.986 . S
Mg238 O247 2.114 1_556 S
Mg238 O248 2.251 1_556 S
Mg238 O251 2.010 . S
O239 Mg238 2.028 . S
O239 C242 1.250 . S
O240 Mg241 2.028 . S
O240 C242 1.248 . S
Mg241 O240 2.028 . S
Mg241 O246 2.032 . S
Mg241 O248 2.079 1_556 S
C242 O239 1.250 . S
C242 O240 1.248 . S
C243 O244 1.264 . S
C243 O251 1.249 . S
O244 C243 1.264 . S
O245 Mg238 1.986 . S
O245 C249 1.246 . S
O246 Mg241 2.032 . S
O246 C249 1.259 . S
O247 Mg238 2.114 1_554 S
O247 C250 1.252 . S
O248 Mg238 2.251 1_554 S
O248 Mg241 2.079 1_554 S
O248 C250 1.273 . S
C249 O245 1.246 . S
C249 O246 1.259 . S
C250 O247 1.252 . S
C250 O248 1.273 . S
O251 Mg238 2.010 . S
O251 C243 1.249 . S
Mg252 O253 2.028 . S
Mg252 O259 1.986 . S
Mg252 O261 2.114 . S
Mg252 O262 2.251 . S
Mg252 O265 2.010 . S
O253 Mg252 2.028 . S
O253 C256 1.250 1_556 S
O254 Mg255 2.028 . S
O254 C256 1.248 . S
Mg255 O254 2.028 . S
Mg255 O260 2.032 1_554 S
Mg255 O262 2.079 1_554 S
C256 O253 1.250 1_554 S
C256 O254 1.248 . S
C257 O258 1.264 . S
C257 O265 1.249 . S
O258 C257 1.264 . S
O259 Mg252 1.986 . S
O259 C263 1.246 . S
O260 Mg255 2.032 1_556 S
O260 C263 1.259 . S
O261 Mg252 2.114 . S
O261 C264 1.252 . S
O262 Mg252 2.251 . S
O262 Mg255 2.079 1_556 S
O262 C264 1.273 . S
C263 O259 1.246 . S
C263 O260 1.259 . S
C264 O261 1.252 . S
C264 O262 1.273 . S
O265 Mg252 2.010 . S
O265 C257 1.249 . S
Mg266 O267 2.028 . S
Mg266 O273 1.986 . S
Mg266 O275 2.114 1_556 S
Mg266 O276 2.251 1_556 S
Mg266 O279 2.010 . S
O267 Mg266 2.028 . S
O267 C270 1.250 . S
O268 Mg269 2.028 . S
O268 C270 1.248 . S
Mg269 O268 2.028 . S
Mg269 O274 2.032 . S
Mg269 O276 2.079 1_556 S
C270 O267 1.250 . S
C270 O268 1.248 . S
C271 O272 1.264 . S
C271 O279 1.249 . S
O272 C271 1.264 . S
O273 Mg266 1.986 . S
O273 C277 1.246 . S
O274 Mg269 2.032 . S
O274 C277 1.259 . S
O275 Mg266 2.114 1_554 S
O275 C278 1.252 . S
O276 Mg266 2.251 1_554 S
O276 Mg269 2.079 1_554 S
O276 C278 1.273 . S
C277 O273 1.246 . S
C277 O274 1.259 . S
C278 O275 1.252 . S
C278 O276 1.273 . S
O279 Mg266 2.010 . S
O279 C271 1.249 . S
Mg280 O281 2.028 . S
Mg280 O287 1.986 . S
Mg280 O289 2.114 . S
Mg280 O290 2.251 . S
Mg280 O293 2.010 . S
O281 Mg280 2.028 . S
O281 C284 1.250 1_556 S
O282 Mg283 2.028 . S
O282 C284 1.248 . S
Mg283 O282 2.028 . S
Mg283 O288 2.032 1_554 S
Mg283 O290 2.079 1_554 S
C284 O281 1.250 1_554 S
C284 O282 1.248 . S
C285 O286 1.264 . S
C285 O293 1.249 . S
O286 C285 1.264 . S
O287 Mg280 1.986 . S
O287 C291 1.246 . S
O288 Mg283 2.032 1_556 S
O288 C291 1.259 . S
O289 Mg280 2.114 . S
O289 C292 1.252 . S
O290 Mg280 2.251 . S
O290 Mg283 2.079 1_556 S
O290 C292 1.273 . S
C291 O287 1.246 . S
C291 O288 1.259 . S
C292 O289 1.252 . S
C292 O290 1.273 . S
O293 Mg280 2.010 . S
O293 C285 1.249 . S
Mg294 O295 2.028 . S
Mg294 O301 1.986 . S
Mg294 O303 2.114 1_554 S
Mg294 O304 2.251 1_554 S
Mg294 O307 2.010 . S
O295 Mg294 2.028 . S
O295 C298 1.250 . S
O296 Mg297 2.028 . S
O296 C298 1.248 . S
Mg297 O296 2.028 . S
Mg297 O302 2.032 . S
Mg297 O304 2.079 1_554 S
C298 O295 1.250 . S
C298 O296 1.248 . S
C299 O300 1.264 . S
C299 O307 1.249 . S
O300 C299 1.264 . S
O301 Mg294 1.986 . S
O301 C305 1.246 . S
O302 Mg297 2.032 . S
O302 C305 1.259 . S
O303 Mg294 2.114 1_556 S
O303 C306 1.252 . S
O304 Mg294 2.251 1_556 S
O304 Mg297 2.079 1_556 S
O304 C306 1.273 . S
C305 O301 1.246 . S
C305 O302 1.259 . S
C306 O303 1.252 . S
C306 O304 1.273 . S
O307 Mg294 2.010 . S
O307 C299 1.249 . S
Mg308 O309 2.028 . S
Mg308 O315 1.986 . S
Mg308 O317 2.114 . S
Mg308 O318 2.251 . S
Mg308 O321 2.010 . S
O309 Mg308 2.028 . S
O309 C312 1.250 1_554 S
O310 Mg311 2.028 . S
O310 C312 1.248 . S
Mg311 O310 2.028 . S
Mg311 O316 2.032 1_556 S
Mg311 O318 2.079 1_556 S
C312 O309 1.250 1_556 S
C312 O310 1.248 . S
C313 O314 1.264 . S
C313 O321 1.249 . S
O314 C313 1.264 . S
O315 Mg308 1.986 . S
O315 C319 1.246 . S
O316 Mg311 2.032 1_554 S
O316 C319 1.259 . S
O317 Mg308 2.114 . S
O317 C320 1.252 . S
O318 Mg308 2.251 . S
O318 Mg311 2.079 1_554 S
O318 C320 1.273 . S
C319 O315 1.246 . S
C319 O316 1.259 . S
C320 O317 1.252 . S
C320 O318 1.273 . S
O321 Mg308 2.010 . S
O321 C313 1.249 . S
Mg322 O323 2.028 . S
Mg322 O329 1.986 . S
Mg322 O331 2.114 . S
Mg322 O332 2.251 . S
Mg322 O335 2.010 . S
O323 Mg322 2.028 . S
O323 C326 1.250 1_554 S
O324 Mg325 2.028 . S
O324 C326 1.248 . S
Mg325 O324 2.028 . S
Mg325 O330 2.032 1_556 S
Mg325 O332 2.079 1_556 S
C326 O323 1.250 1_556 S
C326 O324 1.248 . S
C327 O328 1.264 . S
C327 O335 1.249 . S
O328 C327 1.264 . S
O329 Mg322 1.986 . S
O329 C333 1.246 . S
O330 Mg325 2.032 1_554 S
O330 C333 1.259 . S
O331 Mg322 2.114 . S
O331 C334 1.252 . S
O332 Mg322 2.251 . S
O332 Mg325 2.079 1_554 S
O332 C334 1.273 . S
C333 O329 1.246 . S
C333 O330 1.259 . S
C334 O331 1.252 . S
C334 O332 1.273 . S
O335 Mg322 2.010 . S
O335 C327 1.249 . S
Mg336 O337 2.028 . S
Mg336 O343 1.986 . S
Mg336 O345 2.114 . S
Mg336 O346 2.251 . S
Mg336 O349 2.010 . S
O337 Mg336 2.028 . S
O337 C340 1.250 . S
O338 Mg339 2.028 . S
O338 C340 1.248 . S
Mg339 O338 2.028 . S
Mg339 O344 2.032 . S
Mg339 O346 2.079 . S
C340 O337 1.250 . S
C340 O338 1.248 . S
C341 O342 1.264 . S
C341 O349 1.249 . S
O342 C341 1.264 . S
O343 Mg336 1.986 . S
O343 C347 1.246 . S
O344 Mg339 2.032 . S
O344 C347 1.259 . S
O345 Mg336 2.114 . S
O345 C348 1.252 . S
O346 Mg336 2.251 . S
O346 Mg339 2.079 . S
O346 C348 1.273 . S
C347 O343 1.246 . S
C347 O344 1.259 . S
C348 O345 1.252 . S
C348 O346 1.273 . S
O349 Mg336 2.010 . S
O349 C341 1.249 . S
Mg350 O351 2.028 . S
Mg350 O357 1.986 . S
Mg350 O359 2.114 . S
Mg350 O360 2.251 . S
Mg350 O363 2.010 . S
O351 Mg350 2.028 . S
O351 C354 1.250 . S
O352 Mg353 2.028 . S
O352 C354 1.248 . S
Mg353 O352 2.028 . S
Mg353 O358 2.032 . S
Mg353 O360 2.079 . S
C354 O351 1.250 . S
C354 O352 1.248 . S
C355 O356 1.264 . S
C355 O363 1.249 . S
O356 C355 1.264 . S
O357 Mg350 1.986 . S
O357 C361 1.246 . S
O358 Mg353 2.032 . S
O358 C361 1.259 . S
O359 Mg350 2.114 . S
O359 C362 1.252 . S
O360 Mg350 2.251 . S
O360 Mg353 2.079 . S
O360 C362 1.273 . S
C361 O357 1.246 . S
C361 O358 1.259 . S
C362 O359 1.252 . S
C362 O360 1.273 . S
O363 Mg350 2.010 . S
O363 C355 1.249 . S
Mg364 O365 2.028 . S
Mg364 O371 1.986 . S
Mg364 O373 2.114 . S
Mg364 O374 2.251 . S
Mg364 O377 2.010 . S
O365 Mg364 2.028 . S
O365 C368 1.250 . S
O366 Mg367 2.028 . S
O366 C368 1.248 . S
Mg367 O366 2.028 . S
Mg367 O372 2.032 . S
Mg367 O374 2.079 . S
C368 O365 1.250 . S
C368 O366 1.248 . S
C369 O370 1.264 . S
C369 O377 1.249 . S
O370 C369 1.264 . S
O371 Mg364 1.986 . S
O371 C375 1.246 . S
O372 Mg367 2.032 . S
O372 C375 1.259 . S
O373 Mg364 2.114 . S
O373 C376 1.252 . S
O374 Mg364 2.251 . S
O374 Mg367 2.079 . S
O374 C376 1.273 . S
C375 O371 1.246 . S
C375 O372 1.259 . S
C376 O373 1.252 . S
C376 O374 1.273 . S
O377 Mg364 2.010 . S
O377 C369 1.249 . S
Mg378 O379 2.028 . S
Mg378 O385 1.986 . S
Mg378 O387 2.114 . S
Mg378 O388 2.251 . S
Mg378 O391 2.010 . S
O379 Mg378 2.028 . S
O379 C382 1.250 . S
O380 Mg381 2.028 . S
O380 C382 1.248 . S
Mg381 O380 2.028 . S
Mg381 O386 2.032 . S
Mg381 O388 2.079 . S
C382 O379 1.250 . S
C382 O380 1.248 . S
C383 O384 1.264 . S
C383 O391 1.249 . S
O384 C383 1.264 . S
O385 Mg378 1.986 . S
O385 C389 1.246 . S
O386 Mg381 2.032 . S
O386 C389 1.259 . S
O387 Mg378 2.114 . S
O387 C390 1.252 . S
O388 Mg378 2.251 . S
O388 Mg381 2.079 . S
O388 C390 1.273 . S
C389 O385 1.246 . S
C389 O386 1.259 . S
C390 O387 1.252 . S
C390 O388 1.273 . S
O391 Mg378 2.010 . S
O391 C383 1.249 . S
Mg392 O393 2.028 . S
Mg392 O399 1.986 . S
Mg392 O401 2.114 . S
Mg392 O402 2.251 . S
Mg392 O405 2.010 . S
O393 Mg392 2.028 . S
O393 C396 1.250 . S
O394 Mg395 2.028 . S
O394 C396 1.248 . S
Mg395 O394 2.028 . S
Mg395 O400 2.032 . S
Mg395 O402 2.079 . S
C396 O393 1.250 . S
C396 O394 1.248 . S
C397 O398 1.264 . S
C397 O405 1.249 . S
O398 C397 1.264 . S
O399 Mg392 1.986 . S
O399 C403 1.246 . S
O400 Mg395 2.032 . S
O400 C403 1.259 . S
O401 Mg392 2.114 . S
O401 C404 1.252 . S
O402 Mg392 2.251 . S
O402 Mg395 2.079 . S
O402 C404 1.273 . S
C403 O399 1.246 . S
C403 O400 1.259 . S
C404 O401 1.252 . S
C404 O402 1.273 . S
O405 Mg392 2.010 . S
O405 C397 1.249 . S
Mg406 O407 2.028 . S
Mg406 O413 1.986 . S
Mg406 O415 2.114 . S
Mg406 O416 2.251 . S
Mg406 O419 2.010 . S
O407 Mg406 2.028 . S
O407 C410 1.250 . S
O408 Mg409 2.028 . S
O408 C410 1.248 . S
Mg409 O408 2.028 . S
Mg409 O414 2.032 . S
Mg409 O416 2.079 . S
C410 O407 1.250 . S
C410 O408 1.248 . S
C411 O412 1.264 . S
C411 O419 1.249 . S
O412 C411 1.264 . S
O413 Mg406 1.986 . S
O413 C417 1.246 . S
O414 Mg409 2.032 . S
O414 C417 1.259 . S
O415 Mg406 2.114 . S
O415 C418 1.252 . S
O416 Mg406 2.251 . S
O416 Mg409 2.079 . S
O416 C418 1.273 . S
C417 O413 1.246 . S
C417 O414 1.259 . S
C418 O415 1.252 . S
C418 O416 1.273 . S
O419 Mg406 2.010 . S
O419 C411 1.249 . S
Mg420 O421 2.028 . S
Mg420 O427 1.986 . S
Mg420 O429 2.114 . S
Mg420 O430 2.251 . S
Mg420 O433 2.010 . S
O421 Mg420 2.028 . S
O421 C424 1.250 . S
O422 Mg423 2.028 . S
O422 C424 1.248 . S
Mg423 O422 2.028 . S
Mg423 O428 2.032 . S
Mg423 O430 2.079 . S
C424 O421 1.250 . S
C424 O422 1.248 . S
C425 O426 1.264 . S
C425 O433 1.249 . S
O426 C425 1.264 . S
O427 Mg420 1.986 . S
O427 C431 1.246 . S
O428 Mg423 2.032 . S
O428 C431 1.259 . S
O429 Mg420 2.114 . S
O429 C432 1.252 . S
O430 Mg420 2.251 . S
O430 Mg423 2.079 . S
O430 C432 1.273 . S
C431 O427 1.246 . S
C431 O428 1.259 . S
C432 O429 1.252 . S
C432 O430 1.273 . S
O433 Mg420 2.010 . S
O433 C425 1.249 . S
Mg434 O435 2.028 . S
Mg434 O441 1.986 . S
Mg434 O443 2.114 . S
Mg434 O444 2.251 . S
Mg434 O447 2.010 . S
O435 Mg434 2.028 . S
O435 C438 1.250 . S
O436 Mg437 2.028 . S
O436 C438 1.248 . S
Mg437 O436 2.028 . S
Mg437 O442 2.032 . S
Mg437 O444 2.079 . S
C438 O435 1.250 . S
C438 O436 1.248 . S
C439 O440 1.264 . S
C439 O447 1.249 . S
O440 C439 1.264 . S
O441 Mg434 1.986 . S
O441 C445 1.246 . S
O442 Mg437 2.032 . S
O442 C445 1.259 . S
O443 Mg434 2.114 . S
O443 C446 1.252 . S
O444 Mg434 2.251 . S
O444 Mg437 2.079 . S
O444 C446 1.273 . S
C445 O441 1.246 . S
C445 O442 1.259 . S
C446 O443 1.252 . S
C446 O444 1.273 . S
O447 Mg434 2.010 . S
O447 C439 1.249 . S
Mg448 O449 2.028 . S
Mg448 O455 1.986 . S
Mg448 O457 2.114 . S
Mg448 O458 2.251 . S
Mg448 O461 2.010 . S
O449 Mg448 2.028 . S
O449 C452 1.250 . S
O450 Mg451 2.028 . S
O450 C452 1.248 . S
Mg451 O450 2.028 . S
Mg451 O456 2.032 . S
Mg451 O458 2.079 . S
C452 O449 1.250 . S
C452 O450 1.248 . S
C453 O454 1.264 . S
C453 O461 1.249 . S
O454 C453 1.264 . S
O455 Mg448 1.986 . S
O455 C459 1.246 . S
O456 Mg451 2.032 . S
O456 C459 1.259 . S
O457 Mg448 2.114 . S
O457 C460 1.252 . S
O458 Mg448 2.251 . S
O458 Mg451 2.079 . S
O458 C460 1.273 . S
C459 O455 1.246 . S
C459 O456 1.259 . S
C460 O457 1.252 . S
C460 O458 1.273 . S
O461 Mg448 2.010 . S
O461 C453 1.249 . S
Mg462 O463 2.028 . S
Mg462 O469 1.986 . S
Mg462 O471 2.114 . S
Mg462 O472 2.251 . S
Mg462 O475 2.010 . S
O463 Mg462 2.028 . S
O463 C466 1.250 . S
O464 Mg465 2.028 . S
O464 C466 1.248 . S
Mg465 O464 2.028 . S
Mg465 O470 2.032 . S
Mg465 O472 2.079 . S
C466 O463 1.250 . S
C466 O464 1.248 . S
C467 O468 1.264 . S
C467 O475 1.249 . S
O468 C467 1.264 . S
O469 Mg462 1.986 . S
O469 C473 1.246 . S
O470 Mg465 2.032 . S
O470 C473 1.259 . S
O471 Mg462 2.114 . S
O471 C474 1.252 . S
O472 Mg462 2.251 . S
O472 Mg465 2.079 . S
O472 C474 1.273 . S
C473 O469 1.246 . S
C473 O470 1.259 . S
C474 O471 1.252 . S
C474 O472 1.273 . S
O475 Mg462 2.010 . S
O475 C467 1.249 . S
Mg476 O477 2.028 . S
Mg476 O483 1.986 . S
Mg476 O485 2.114 . S
Mg476 O486 2.251 . S
Mg476 O489 2.010 . S
O477 Mg476 2.028 . S
O477 C480 1.250 . S
O478 Mg479 2.028 . S
O478 C480 1.248 . S
Mg479 O478 2.028 . S
Mg479 O484 2.032 . S
Mg479 O486 2.079 . S
C480 O477 1.250 . S
C480 O478 1.248 . S
C481 O482 1.264 . S
C481 O489 1.249 . S
O482 C481 1.264 . S
O483 Mg476 1.986 . S
O483 C487 1.246 . S
O484 Mg479 2.032 . S
O484 C487 1.259 . S
O485 Mg476 2.114 . S
O485 C488 1.252 . S
O486 Mg476 2.251 . S
O486 Mg479 2.079 . S
O486 C488 1.273 . S
C487 O483 1.246 . S
C487 O484 1.259 . S
C488 O485 1.252 . S
C488 O486 1.273 . S
O489 Mg476 2.010 . S
O489 C481 1.249 . S
Mg490 O491 2.028 . S
Mg490 O497 1.986 . S
Mg490 O499 2.114 . S
Mg490 O500 2.251 . S
Mg490 O503 2.010 . S
O491 Mg490 2.028 . S
O491 C494 1.250 . S
O492 Mg493 2.028 . S
O492 C494 1.248 . S
Mg493 O492 2.028 . S
Mg493 O498 2.032 . S
Mg493 O500 2.079 . S
C494 O491 1.250 . S
C494 O492 1.248 . S
C495 O496 1.264 . S
C495 O503 1.249 . S
O496 C495 1.264 . S
O497 Mg490 1.986 . S
O497 C501 1.246 . S
O498 Mg493 2.032 . S
O498 C501 1.259 . S
O499 Mg490 2.114 . S
O499 C502 1.252 . S
O500 Mg490 2.251 . S
O500 Mg493 2.079 . S
O500 C502 1.273 . S
C501 O497 1.246 . S
C501 O498 1.259 . S
C502 O499 1.252 . S
C502 O500 1.273 . S
O503 Mg490 2.010 . S
O503 C495 1.249 . S
Mg504 O505 2.028 . S
Mg504 O511 1.986 . S
Mg504 O513 2.114 . S
Mg504 O514 2.251 . S
Mg504 O517 2.010 . S
O505 Mg504 2.028 . S
O505 C508 1.250 . S
O506 Mg507 2.028 . S
O506 C508 1.248 . S
Mg507 O506 2.028 . S
Mg507 O512 2.032 . S
Mg507 O514 2.079 . S
C508 O505 1.250 . S
C508 O506 1.248 . S
C509 O510 1.264 . S
C509 O517 1.249 . S
O510 C509 1.264 . S
O511 Mg504 1.986 . S
O511 C515 1.246 . S
O512 Mg507 2.032 . S
O512 C515 1.259 . S
O513 Mg504 2.114 . S
O513 C516 1.252 . S
O514 Mg504 2.251 . S
O514 Mg507 2.079 . S
O514 C516 1.273 . S
C515 O511 1.246 . S
C515 O512 1.259 . S
C516 O513 1.252 . S
C516 O514 1.273 . S
O517 Mg504 2.010 . S
O517 C509 1.249 . S
Mg518 O519 2.028 . S
Mg518 O525 1.986 . S
Mg518 O527 2.114 . S
Mg518 O528 2.251 . S
Mg518 O531 2.010 . S
O519 Mg518 2.028 . S
O519 C522 1.250 . S
O520 Mg521 2.028 . S
O520 C522 1.248 . S
Mg521 O520 2.028 . S
Mg521 O526 2.032 . S
Mg521 O528 2.079 . S
C522 O519 1.250 . S
C522 O520 1.248 . S
C523 O524 1.264 . S
C523 O531 1.249 . S
O524 C523 1.264 . S
O525 Mg518 1.986 . S
O525 C529 1.246 . S
O526 Mg521 2.032 . S
O526 C529 1.259 . S
O527 Mg518 2.114 . S
O527 C530 1.252 . S
O528 Mg518 2.251 . S
O528 Mg521 2.079 . S
O528 C530 1.273 . S
C529 O525 1.246 . S
C529 O526 1.259 . S
C530 O527 1.252 . S
C530 O528 1.273 . S
O531 Mg518 2.010 . S
O531 C523 1.249 . S
Mg532 O533 2.028 . S
Mg532 O539 1.986 . S
Mg532 O541 2.114 . S
Mg532 O542 2.251 . S
Mg532 O545 2.010 . S
O533 Mg532 2.028 . S
O533 C536 1.250 . S
O534 Mg535 2.028 . S
O534 C536 1.248 . S
Mg535 O534 2.028 . S
Mg535 O540 2.032 . S
Mg535 O542 2.079 . S
C536 O533 1.250 . S
C536 O534 1.248 . S
C537 O538 1.264 . S
C537 O545 1.249 . S
O538 C537 1.264 . S
O539 Mg532 1.986 . S
O539 C543 1.246 . S
O540 Mg535 2.032 . S
O540 C543 1.259 . S
O541 Mg532 2.114 . S
O541 C544 1.252 . S
O542 Mg532 2.251 . S
O542 Mg535 2.079 . S
O542 C544 1.273 . S
C543 O539 1.246 . S
C543 O540 1.259 . S
C544 O541 1.252 . S
C544 O542 1.273 . S
O545 Mg532 2.010 . S
O545 C537 1.249 . S
Mg546 O547 2.028 . S
Mg546 O553 1.986 . S
Mg546 O555 2.114 . S
Mg546 O556 2.251 . S
Mg546 O559 2.010 . S
O547 Mg546 2.028 . S
O547 C550 1.250 . S
O548 Mg549 2.028 . S
O548 C550 1.248 . S
Mg549 O548 2.028 . S
Mg549 O554 2.032 . S
Mg549 O556 2.079 . S
C550 O547 1.250 . S
C550 O548 1.248 . S
C551 O552 1.264 . S
C551 O559 1.249 . S
O552 C551 1.264 . S
O553 Mg546 1.986 . S
O553 C557 1.246 . S
O554 Mg549 2.032 . S
O554 C557 1.259 . S
O555 Mg546 2.114 . S
O555 C558 1.252 . S
O556 Mg546 2.251 . S
O556 Mg549 2.079 . S
O556 C558 1.273 . S
C557 O553 1.246 . S
C557 O554 1.259 . S
C558 O555 1.252 . S
C558 O556 1.273 . S
O559 Mg546 2.010 . S
O559 C551 1.249 . S
Mg560 O561 2.028 . S
Mg560 O567 1.986 . S
Mg560 O569 2.114 . S
Mg560 O570 2.251 . S
Mg560 O573 2.010 . S
O561 Mg560 2.028 . S
O561 C564 1.250 . S
O562 Mg563 2.028 . S
O562 C564 1.248 . S
Mg563 O562 2.028 . S
Mg563 O568 2.032 . S
Mg563 O570 2.079 . S
C564 O561 1.250 . S
C564 O562 1.248 . S
C565 O566 1.264 . S
C565 O573 1.249 . S
O566 C565 1.264 . S
O567 Mg560 1.986 . S
O567 C571 1.246 . S
O568 Mg563 2.032 . S
O568 C571 1.259 . S
O569 Mg560 2.114 . S
O569 C572 1.252 . S
O570 Mg560 2.251 . S
O570 Mg563 2.079 . S
O570 C572 1.273 . S
C571 O567 1.246 . S
C571 O568 1.259 . S
C572 O569 1.252 . S
C572 O570 1.273 . S
O573 Mg560 2.010 . S
O573 C565 1.249 . S
Mg574 O575 2.028 . S
Mg574 O581 1.986 . S
Mg574 O583 2.114 . S
Mg574 O584 2.251 . S
Mg574 O587 2.010 . S
O575 Mg574 2.028 . S
O575 C578 1.250 . S
O576 Mg577 2.028 . S
O576 C578 1.248 . S
Mg577 O576 2.028 . S
Mg577 O582 2.032 . S
Mg577 O584 2.079 . S
C578 O575 1.250 . S
C578 O576 1.248 . S
C579 O580 1.264 . S
C579 O587 1.249 . S
O580 C579 1.264 . S
O581 Mg574 1.986 . S
O581 C585 1.246 . S
O582 Mg577 2.032 . S
O582 C585 1.259 . S
O583 Mg574 2.114 . S
O583 C586 1.252 . S
O584 Mg574 2.251 . S
O584 Mg577 2.079 . S
O584 C586 1.273 . S
C585 O581 1.246 . S
C585 O582 1.259 . S
C586 O583 1.252 . S
C586 O584 1.273 . S
O587 Mg574 2.010 . S
O587 C579 1.249 . S
Mg588 O589 2.028 . S
Mg588 O595 1.986 . S
Mg588 O597 2.114 . S
Mg588 O598 2.251 . S
Mg588 O601 2.010 . S
O589 Mg588 2.028 . S
O589 C592 1.250 . S
O590 Mg591 2.028 . S
O590 C592 1.248 . S
Mg591 O590 2.028 . S
Mg591 O596 2.032 . S
Mg591 O598 2.079 . S
C592 O589 1.250 . S
C592 O590 1.248 . S
C593 O594 1.264 . S
C593 O601 1.249 . S
O594 C593 1.264 . S
O595 Mg588 1.986 . S
O595 C599 1.246 . S
O596 Mg591 2.032 . S
O596 C599 1.259 . S
O597 Mg588 2.114 . S
O597 C600 1.252 . S
O598 Mg588 2.251 . S
O598 Mg591 2.079 . S
O598 C600 1.273 . S
C599 O595 1.246 . S
C599 O596 1.259 . S
C600 O597 1.252 . S
C600 O598 1.273 . S
O601 Mg588 2.010 . S
O601 C593 1.249 . S
Mg602 O603 2.028 . S
Mg602 O609 1.986 . S
Mg602 O611 2.114 . S
Mg602 O612 2.251 . S
Mg602 O615 2.010 . S
O603 Mg602 2.028 . S
O603 C606 1.250 . S
O604 Mg605 2.028 . S
O604 C606 1.248 . S
Mg605 O604 2.028 . S
Mg605 O610 2.032 . S
Mg605 O612 2.079 . S
C606 O603 1.250 . S
C606 O604 1.248 . S
C607 O608 1.264 . S
C607 O615 1.249 . S
O608 C607 1.264 . S
O609 Mg602 1.986 . S
O609 C613 1.246 . S
O610 Mg605 2.032 . S
O610 C613 1.259 . S
O611 Mg602 2.114 . S
O611 C614 1.252 . S
O612 Mg602 2.251 . S
O612 Mg605 2.079 . S
O612 C614 1.273 . S
C613 O609 1.246 . S
C613 O610 1.259 . S
C614 O611 1.252 . S
C614 O612 1.273 . S
O615 Mg602 2.010 . S
O615 C607 1.249 . S
Mg616 O617 2.028 . S
Mg616 O623 1.986 . S
Mg616 O625 2.114 . S
Mg616 O626 2.251 . S
Mg616 O629 2.010 . S
O617 Mg616 2.028 . S
O617 C620 1.250 . S
O618 Mg619 2.028 . S
O618 C620 1.248 . S
Mg619 O618 2.028 . S
Mg619 O624 2.032 . S
Mg619 O626 2.079 . S
C620 O617 1.250 . S
C620 O618 1.248 . S
C621 O622 1.264 . S
C621 O629 1.249 . S
O622 C621 1.264 . S
O623 Mg616 1.986 . S
O623 C627 1.246 . S
O624 Mg619 2.032 . S
O624 C627 1.259 . S
O625 Mg616 2.114 . S
O625 C628 1.252 . S
O626 Mg616 2.251 . S
O626 Mg619 2.079 . S
O626 C628 1.273 . S
C627 O623 1.246 . S
C627 O624 1.259 . S
C628 O625 1.252 . S
C628 O626 1.273 . S
O629 Mg616 2.010 . S
O629 C621 1.249 . S
Mg630 O631 2.028 . S
Mg630 O637 1.986 . S
Mg630 O639 2.114 . S
Mg630 O640 2.251 . S
Mg630 O643 2.010 . S
O631 Mg630 2.028 . S
O631 C634 1.250 . S
O632 Mg633 2.028 . S
O632 C634 1.248 . S
Mg633 O632 2.028 . S
Mg633 O638 2.032 . S
Mg633 O640 2.079 . S
C634 O631 1.250 . S
C634 O632 1.248 . S
C635 O636 1.264 . S
C635 O643 1.249 . S
O636 C635 1.264 . S
O637 Mg630 1.986 . S
O637 C641 1.246 . S
O638 Mg633 2.032 . S
O638 C641 1.259 . S
O639 Mg630 2.114 . S
O639 C642 1.252 . S
O640 Mg630 2.251 . S
O640 Mg633 2.079 . S
O640 C642 1.273 . S
C641 O637 1.246 . S
C641 O638 1.259 . S
C642 O639 1.252 . S
C642 O640 1.273 . S
O643 Mg630 2.010 . S
O643 C635 1.249 . S
Mg644 O645 2.028 . S
Mg644 O651 1.986 . S
Mg644 O653 2.114 . S
Mg644 O654 2.251 . S
Mg644 O657 2.010 . S
O645 Mg644 2.028 . S
O645 C648 1.250 . S
O646 Mg647 2.028 . S
O646 C648 1.248 . S
Mg647 O646 2.028 . S
Mg647 O652 2.032 . S
Mg647 O654 2.079 . S
C648 O645 1.250 . S
C648 O646 1.248 . S
C649 O650 1.264 . S
C649 O657 1.249 . S
O650 C649 1.264 . S
O651 Mg644 1.986 . S
O651 C655 1.246 . S
O652 Mg647 2.032 . S
O652 C655 1.259 . S
O653 Mg644 2.114 . S
O653 C656 1.252 . S
O654 Mg644 2.251 . S
O654 Mg647 2.079 . S
O654 C656 1.273 . S
C655 O651 1.246 . S
C655 O652 1.259 . S
C656 O653 1.252 . S
C656 O654 1.273 . S
O657 Mg644 2.010 . S
O657 C649 1.249 . S
Mg658 O659 2.028 . S
Mg658 O665 1.986 . S
Mg658 O667 2.114 . S
Mg658 O668 2.251 . S
Mg658 O671 2.010 . S
O659 Mg658 2.028 . S
O659 C662 1.250 . S
O660 Mg661 2.028 . S
O660 C662 1.248 . S
Mg661 O660 2.028 . S
Mg661 O666 2.032 . S
Mg661 O668 2.079 . S
C662 O659 1.250 . S
C662 O660 1.248 . S
C663 O664 1.264 . S
C663 O671 1.249 . S
O664 C663 1.264 . S
O665 Mg658 1.986 . S
O665 C669 1.246 . S
O666 Mg661 2.032 . S
O666 C669 1.259 . S
O667 Mg658 2.114 . S
O667 C670 1.252 . S
O668 Mg658 2.251 . S
O668 Mg661 2.079 . S
O668 C670 1.273 . S
C669 O665 1.246 . S
C669 O666 1.259 . S
C670 O667 1.252 . S
C670 O668 1.273 . S
O671 Mg658 2.010 . S
O671 C663 1.249 . S
C672 C673 1.387 . S
C672 H676 0.950 . S
C672 C681 1.390 . S
C673 C672 1.387 . S
C673 C675 1.387 . S
H674 C681 0.950 . S
C675 C673 1.387 . S
C675 C677 1.390 . S
C675 H679 0.950 . S
H676 C672 0.950 . S
C677 C675 1.390 . S
C677 C678 1.387 . S
C677 H680 0.950 . S
C678 C677 1.387 . S
C678 C681 1.387 . S
H679 C675 0.950 . S
H680 C677 0.950 . S
C681 C672 1.390 . S
C681 H674 0.950 . S
C681 C678 1.387 . S
C682 C683 1.387 . S
C682 H686 0.950 . S
C682 C691 1.390 . S
C683 C682 1.387 . S
C683 C685 1.387 . S
H684 C691 0.950 . S
C685 C683 1.387 . S
C685 C687 1.390 . S
C685 H689 0.950 . S
H686 C682 0.950 . S
C687 C685 1.390 . S
C687 C688 1.387 . S
C687 H690 0.950 . S
C688 C687 1.387 . S
C688 C691 1.387 . S
H689 C685 0.950 . S
H690 C687 0.950 . S
C691 C682 1.390 . S
C691 H684 0.950 . S
C691 C688 1.387 . S
C692 C693 1.387 . S
C692 H696 0.950 . S
C692 C701 1.390 . S
C693 C692 1.387 . S
C693 C695 1.387 . S
H694 C701 0.950 . S
C695 C693 1.387 . S
C695 C697 1.390 . S
C695 H699 0.950 . S
H696 C692 0.950 . S
C697 C695 1.390 . S
C697 C698 1.387 . S
C697 H700 0.950 . S
C698 C697 1.387 . S
C698 C701 1.387 . S
H699 C695 0.950 . S
H700 C697 0.950 . S
C701 C692 1.390 . S
C701 H694 0.950 . S
C701 C698 1.387 . S
C702 C703 1.387 . S
C702 H706 0.950 . S
C702 C711 1.390 . S
C703 C702 1.387 . S
C703 C705 1.387 . S
H704 C711 0.950 . S
C705 C703 1.387 . S
C705 C707 1.390 . S
C705 H709 0.950 . S
H706 C702 0.950 . S
C707 C705 1.390 . S
C707 C708 1.387 . S
C707 H710 0.950 . S
C708 C707 1.387 . S
C708 C711 1.387 . S
H709 C705 0.950 . S
H710 C707 0.950 . S
C711 C702 1.390 . S
C711 H704 0.950 . S
C711 C708 1.387 . S
C712 C713 1.387 . S
C712 H716 0.950 . S
C712 C721 1.390 . S
C713 C712 1.387 . S
C713 C715 1.387 . S
H714 C721 0.950 . S
C715 C713 1.387 . S
C715 C717 1.390 . S
C715 H719 0.950 . S
H716 C712 0.950 . S
C717 C715 1.390 . S
C717 C718 1.387 . S
C717 H720 0.950 . S
C718 C717 1.387 . S
C718 C721 1.387 . S
H719 C715 0.950 . S
H720 C717 0.950 . S
C721 C712 1.390 . S
C721 H714 0.950 . S
C721 C718 1.387 . S
C722 C723 1.387 . S
C722 H726 0.950 . S
C722 C731 1.390 . S
C723 C722 1.387 . S
C723 C725 1.387 . S
H724 C731 0.950 . S
C725 C723 1.387 . S
C725 C727 1.390 . S
C725 H729 0.950 . S
H726 C722 0.950 . S
C727 C725 1.390 . S
C727 C728 1.387 . S
C727 H730 0.950 . S
C728 C727 1.387 . S
C728 C731 1.387 . S
H729 C725 0.950 . S
H730 C727 0.950 . S
C731 C722 1.390 . S
C731 H724 0.950 . S
C731 C728 1.387 . S
C732 C733 1.387 . S
C732 H736 0.950 . S
C732 C741 1.390 . S
C733 C732 1.387 . S
C733 C735 1.387 . S
H734 C741 0.950 . S
C735 C733 1.387 . S
C735 C737 1.390 . S
C735 H739 0.950 . S
H736 C732 0.950 . S
C737 C735 1.390 . S
C737 C738 1.387 . S
C737 H740 0.950 . S
C738 C737 1.387 . S
C738 C741 1.387 . S
H739 C735 0.950 . S
H740 C737 0.950 . S
C741 C732 1.390 . S
C741 H734 0.950 . S
C741 C738 1.387 . S
C742 C743 1.387 . S
C742 H746 0.950 . S
C742 C751 1.390 . S
C743 C742 1.387 . S
C743 C745 1.387 . S
H744 C751 0.950 . S
C745 C743 1.387 . S
C745 C747 1.390 . S
C745 H749 0.950 . S
H746 C742 0.950 . S
C747 C745 1.390 . S
C747 C748 1.387 . S
C747 H750 0.950 . S
C748 C747 1.387 . S
C748 C751 1.387 . S
H749 C745 0.950 . S
H750 C747 0.950 . S
C751 C742 1.390 . S
C751 H744 0.950 . S
C751 C748 1.387 . S
C752 C753 1.387 . S
C752 H756 0.950 . S
C752 C761 1.390 . S
C753 C752 1.387 . S
C753 C755 1.387 . S
H754 C761 0.950 . S
C755 C753 1.387 . S
C755 C757 1.390 . S
C755 H759 0.950 . S
H756 C752 0.950 . S
C757 C755 1.390 . S
C757 C758 1.387 . S
C757 H760 0.950 . S
C758 C757 1.387 . S
C758 C761 1.387 . S
H759 C755 0.950 . S
H760 C757 0.950 . S
C761 C752 1.390 . S
C761 H754 0.950 . S
C761 C758 1.387 . S
C762 C763 1.387 . S
C762 H766 0.950 . S
C762 C771 1.390 . S
C763 C762 1.387 . S
C763 C765 1.387 . S
H764 C771 0.950 . S
C765 C763 1.387 . S
C765 C767 1.390 . S
C765 H769 0.950 . S
H766 C762 0.950 . S
C767 C765 1.390 . S
C767 C768 1.387 . S
C767 H770 0.950 . S
C768 C767 1.387 . S
C768 C771 1.387 . S
H769 C765 0.950 . S
H770 C767 0.950 . S
C771 C762 1.390 . S
C771 H764 0.950 . S
C771 C768 1.387 . S
C772 C773 1.387 . S
C772 H776 0.950 . S
C772 C781 1.390 . S
C773 C772 1.387 . S
C773 C775 1.387 . S
H774 C781 0.950 . S
C775 C773 1.387 . S
C775 C777 1.390 . S
C775 H779 0.950 . S
H776 C772 0.950 . S
C777 C775 1.390 . S
C777 C778 1.387 . S
C777 H780 0.950 . S
C778 C777 1.387 . S
C778 C781 1.387 . S
H779 C775 0.950 . S
H780 C777 0.950 . S
C781 C772 1.390 . S
C781 H774 0.950 . S
C781 C778 1.387 . S
C782 C783 1.387 . S
C782 H786 0.950 . S
C782 C791 1.390 . S
C783 C782 1.387 . S
C783 C785 1.387 . S
H784 C791 0.950 . S
C785 C783 1.387 . S
C785 C787 1.390 . S
C785 H789 0.950 . S
H786 C782 0.950 . S
C787 C785 1.390 . S
C787 C788 1.387 . S
C787 H790 0.950 . S
C788 C787 1.387 . S
C788 C791 1.387 . S
H789 C785 0.950 . S
H790 C787 0.950 . S
C791 C782 1.390 . S
C791 H784 0.950 . S
C791 C788 1.387 . S
C792 C793 1.387 . S
C792 H796 0.950 . S
C792 C801 1.390 . S
C793 C792 1.387 . S
C793 C795 1.387 . S
H794 C801 0.950 . S
C795 C793 1.387 . S
C795 C797 1.390 . S
C795 H799 0.950 . S
H796 C792 0.950 . S
C797 C795 1.390 . S
C797 C798 1.387 . S
C797 H800 0.950 . S
C798 C797 1.387 . S
C798 C801 1.387 . S
H799 C795 0.950 . S
H800 C797 0.950 . S
C801 C792 1.390 . S
C801 H794 0.950 . S
C801 C798 1.387 . S
C802 C803 1.387 . S
C802 H806 0.950 . S
C802 C811 1.390 . S
C803 C802 1.387 . S
C803 C805 1.387 . S
H804 C811 0.950 . S
C805 C803 1.387 . S
C805 C807 1.390 . S
C805 H809 0.950 . S
H806 C802 0.950 . S
C807 C805 1.390 . S
C807 C808 1.387 . S
C807 H810 0.950 . S
C808 C807 1.387 . S
C808 C811 1.387 . S
H809 C805 0.950 . S
H810 C807 0.950 . S
C811 C802 1.390 . S
C811 H804 0.950 . S
C811 C808 1.387 . S
C812 C813 1.387 . S
C812 H816 0.950 . S
C812 C821 1.390 . S
C813 C812 1.387 . S
C813 C815 1.387 . S
H814 C821 0.950 . S
C815 C813 1.387 . S
C815 C817 1.390 . S
C815 H819 0.950 . S
H816 C812 0.950 . S
C817 C815 1.390 . S
C817 C818 1.387 . S
C817 H820 0.950 . S
C818 C817 1.387 . S
C818 C821 1.387 . S
H819 C815 0.950 . S
H820 C817 0.950 . S
C821 C812 1.390 . S
C821 H814 0.950 . S
C821 C818 1.387 . S
C822 C823 1.387 . S
C822 H826 0.950 . S
C822 C831 1.390 . S
C823 C822 1.387 . S
C823 C825 1.387 . S
H824 C831 0.950 . S
C825 C823 1.387 . S
C825 C827 1.390 . S
C825 H829 0.950 . S
H826 C822 0.950 . S
C827 C825 1.390 . S
C827 C828 1.387 . S
C827 H830 0.950 . S
C828 C827 1.387 . S
C828 C831 1.387 . S
H829 C825 0.950 . S
H830 C827 0.950 . S
C831 C822 1.390 . S
C831 H824 0.950 . S
C831 C828 1.387 . S
C832 C833 1.387 . S
C832 H836 0.950 . S
C832 C841 1.390 . S
C833 C832 1.387 . S
C833 C835 1.387 . S
H834 C841 0.950 . S
C835 C833 1.387 . S
C835 C837 1.390 . S
C835 H839 0.950 . S
H836 C832 0.950 . S
C837 C835 1.390 . S
C837 C838 1.387 . S
C837 H840 0.950 . S
C838 C837 1.387 . S
C838 C841 1.387 . S
H839 C835 0.950 . S
H840 C837 0.950 . S
C841 C832 1.390 . S
C841 H834 0.950 . S
C841 C838 1.387 . S
C842 C843 1.387 . S
C842 H846 0.950 . S
C842 C851 1.390 . S
C843 C842 1.387 . S
C843 C845 1.387 . S
H844 C851 0.950 . S
C845 C843 1.387 . S
C845 C847 1.390 . S
C845 H849 0.950 . S
H846 C842 0.950 . S
C847 C845 1.390 . S
C847 C848 1.387 . S
C847 H850 0.950 . S
C848 C847 1.387 . S
C848 C851 1.387 . S
H849 C845 0.950 . S
H850 C847 0.950 . S
C851 C842 1.390 . S
C851 H844 0.950 . S
C851 C848 1.387 . S
C852 C853 1.387 . S
C852 H856 0.950 . S
C852 C861 1.390 . S
C853 C852 1.387 . S
C853 C855 1.387 . S
H854 C861 0.950 . S
C855 C853 1.387 . S
C855 C857 1.390 . S
C855 H859 0.950 . S
H856 C852 0.950 . S
C857 C855 1.390 . S
C857 C858 1.387 . S
C857 H860 0.950 . S
C858 C857 1.387 . S
C858 C861 1.387 . S
H859 C855 0.950 . S
H860 C857 0.950 . S
C861 C852 1.390 . S
C861 H854 0.950 . S
C861 C858 1.387 . S
C862 C863 1.387 . S
C862 H866 0.950 . S
C862 C871 1.390 . S
C863 C862 1.387 . S
C863 C865 1.387 . S
H864 C871 0.950 . S
C865 C863 1.387 . S
C865 C867 1.390 . S
C865 H869 0.950 . S
H866 C862 0.950 . S
C867 C865 1.390 . S
C867 C868 1.387 . S
C867 H870 0.950 . S
C868 C867 1.387 . S
C868 C871 1.387 . S
H869 C865 0.950 . S
H870 C867 0.950 . S
C871 C862 1.390 . S
C871 H864 0.950 . S
C871 C868 1.387 . S
C872 C873 1.387 . S
C872 H876 0.950 . S
C872 C881 1.390 . S
C873 C872 1.387 . S
C873 C875 1.387 . S
H874 C881 0.950 . S
C875 C873 1.387 . S
C875 C877 1.390 . S
C875 H879 0.950 . S
H876 C872 0.950 . S
C877 C875 1.390 . S
C877 C878 1.387 . S
C877 H880 0.950 . S
C878 C877 1.387 . S
C878 C881 1.387 . S
H879 C875 0.950 . S
H880 C877 0.950 . S
C881 C872 1.390 . S
C881 H874 0.950 . S
C881 C878 1.387 . S
C882 C883 1.387 . S
C882 H886 0.950 . S
C882 C891 1.390 . S
C883 C882 1.387 . S
C883 C885 1.387 . S
H884 C891 0.950 . S
C885 C883 1.387 . S
C885 C887 1.390 . S
C885 H889 0.950 . S
H886 C882 0.950 . S
C887 C885 1.390 . S
C887 C888 1.387 . S
C887 H890 0.950 . S
C888 C887 1.387 . S
C888 C891 1.387 . S
H889 C885 0.950 . S
H890 C887 0.950 . S
C891 C882 1.390 . S
C891 H884 0.950 . S
C891 C888 1.387 . S
C892 C893 1.387 . S
C892 H896 0.950 . S
C892 C901 1.390 . S
C893 C892 1.387 . S
C893 C895 1.387 . S
H894 C901 0.950 . S
C895 C893 1.387 . S
C895 C897 1.390 . S
C895 H899 0.950 . S
H896 C892 0.950 . S
C897 C895 1.390 . S
C897 C898 1.387 . S
C897 H900 0.950 . S
C898 C897 1.387 . S
C898 C901 1.387 . S
H899 C895 0.950 . S
H900 C897 0.950 . S
C901 C892 1.390 . S
C901 H894 0.950 . S
C901 C898 1.387 . S
C902 C903 1.387 . S
C902 H906 0.950 . S
C902 C911 1.390 . S
C903 C902 1.387 . S
C903 C905 1.387 . S
H904 C911 0.950 . S
C905 C903 1.387 . S
C905 C907 1.390 . S
C905 H909 0.950 . S
H906 C902 0.950 . S
C907 C905 1.390 . S
C907 C908 1.387 . S
C907 H910 0.950 . S
C908 C907 1.387 . S
C908 C911 1.387 . S
H909 C905 0.950 . S
H910 C907 0.950 . S
C911 C902 1.390 . S
C911 H904 0.950 . S
C911 C908 1.387 . S
C912 C913 1.387 . S
C912 H916 0.950 . S
C912 C921 1.390 1_655 S
C913 C912 1.387 . S
C913 C915 1.387 . S
H914 C921 0.950 . S
C915 C913 1.387 . S
C915 C917 1.390 1_655 S
C915 H919 0.950 . S
H916 C912 0.950 . S
C917 C915 1.390 1_455 S
C917 C918 1.387 . S
C917 H920 0.950 . S
C918 C917 1.387 . S
C918 C921 1.387 . S
H919 C915 0.950 . S
H920 C917 0.950 . S
C921 C912 1.390 1_455 S
C921 H914 0.950 . S
C921 C918 1.387 . S
C922 C923 1.387 1_545 S
C922 H926 0.950 . S
C922 C931 1.390 . S
C923 C922 1.387 1_565 S
C923 C925 1.387 . S
H924 C931 0.950 . S
C925 C923 1.387 . S
C925 C927 1.390 . S
C925 H929 0.950 . S
H926 C922 0.950 . S
C927 C925 1.390 . S
C927 C928 1.387 1_565 S
C927 H930 0.950 . S
C928 C927 1.387 1_545 S
C928 C931 1.387 . S
H929 C925 0.950 . S
H930 C927 0.950 . S
C931 C922 1.390 . S
C931 H924 0.950 . S
C931 C928 1.387 . S
C932 C933 1.387 1_455 S
C932 H936 0.950 . S
C932 C941 1.390 . S
C933 C932 1.387 1_655 S
C933 C935 1.387 . S
H934 C941 0.950 . S
C935 C933 1.387 . S
C935 C937 1.390 . S
C935 H939 0.950 . S
H936 C932 0.950 . S
C937 C935 1.390 . S
C937 C938 1.387 1_655 S
C937 H940 0.950 . S
C938 C937 1.387 1_455 S
C938 C941 1.387 . S
H939 C935 0.950 . S
H940 C937 0.950 . S
C941 C932 1.390 . S
C941 H934 0.950 . S
C941 C938 1.387 . S
C942 C943 1.387 . S
C942 H946 0.950 . S
C942 C951 1.390 . S
C943 C942 1.387 . S
C943 C945 1.387 1_545 S
H944 C951 0.950 . S
C945 C943 1.387 1_565 S
C945 C947 1.390 . S
C945 H949 0.950 . S
H946 C942 0.950 . S
C947 C945 1.390 . S
C947 C948 1.387 . S
C947 H950 0.950 . S
C948 C947 1.387 . S
C948 C951 1.387 1_565 S
H949 C945 0.950 . S
H950 C947 0.950 . S
C951 C942 1.390 . S
C951 H944 0.950 . S
C951 C948 1.387 1_545 S
C952 C953 1.387 . S
C952 H956 0.950 . S
C952 C961 1.390 1_455 S
C953 C952 1.387 . S
C953 C955 1.387 . S
H954 C961 0.950 . S
C955 C953 1.387 . S
C955 C957 1.390 1_455 S
C955 H959 0.950 . S
H956 C952 0.950 . S
C957 C955 1.390 1_655 S
C957 C958 1.387 . S
C957 H960 0.950 . S
C958 C957 1.387 . S
C958 C961 1.387 . S
H959 C955 0.950 . S
H960 C957 0.950 . S
C961 C952 1.390 1_655 S
C961 H954 0.950 . S
C961 C958 1.387 . S
C962 C963 1.387 1_545 S
C962 H966 0.950 . S
C962 C971 1.390 . S
C963 C962 1.387 1_565 S
C963 C965 1.387 . S
H964 C971 0.950 . S
C965 C963 1.387 . S
C965 C967 1.390 . S
C965 H969 0.950 . S
H966 C962 0.950 . S
C967 C965 1.390 . S
C967 C968 1.387 1_565 S
C967 H970 0.950 . S
C968 C967 1.387 1_545 S
C968 C971 1.387 . S
H969 C965 0.950 . S
H970 C967 0.950 . S
C971 C962 1.390 . S
C971 H964 0.950 . S
C971 C968 1.387 . S
C972 C973 1.387 . S
C972 H976 0.950 . S
C972 C981 1.390 1_455 S
C973 C972 1.387 . S
C973 C975 1.387 . S
H974 C981 0.950 . S
C975 C973 1.387 . S
C975 C977 1.390 1_455 S
C975 H979 0.950 . S
H976 C972 0.950 . S
C977 C975 1.390 1_655 S
C977 C978 1.387 . S
C977 H980 0.950 . S
C978 C977 1.387 . S
C978 C981 1.387 . S
H979 C975 0.950 . S
H980 C977 0.950 . S
C981 C972 1.390 1_655 S
C981 H974 0.950 . S
C981 C978 1.387 . S
C982 C983 1.387 . S
C982 H986 0.950 . S
C982 C991 1.390 . S
C983 C982 1.387 . S
C983 C985 1.387 1_545 S
H984 C991 0.950 . S
C985 C983 1.387 1_565 S
C985 C987 1.390 . S
C985 H989 0.950 . S
H986 C982 0.950 . S
C987 C985 1.390 . S
C987 C988 1.387 . S
C987 H990 0.950 . S
C988 C987 1.387 . S
C988 C991 1.387 1_565 S
H989 C985 0.950 . S
H990 C987 0.950 . S
C991 C982 1.390 . S
C991 H984 0.950 . S
C991 C988 1.387 1_545 S
C992 C993 1.387 . S
C992 H996 0.950 . S
C992 C1001 1.390 . S
C993 C992 1.387 . S
C993 C995 1.387 1_556 S
H994 C1001 0.950 . S
C995 C993 1.387 1_554 S
C995 C997 1.390 . S
C995 H999 0.950 . S
H996 C992 0.950 . S
C997 C995 1.390 . S
C997 C998 1.387 . S
C997 H1000 0.950 . S
C998 C997 1.387 . S
C998 C1001 1.387 1_554 S
H999 C995 0.950 . S
H1000 C997 0.950 . S
C1001 C992 1.390 . S
C1001 H994 0.950 . S
C1001 C998 1.387 1_556 S
C1002 C1003 1.387 1_556 S
C1002 H1006 0.950 . S
C1002 C1011 1.390 . S
C1003 C1002 1.387 1_554 S
C1003 C1005 1.387 . S
H1004 C1011 0.950 . S
C1005 C1003 1.387 . S
C1005 C1007 1.390 . S
C1005 H1009 0.950 . S
H1006 C1002 0.950 . S
C1007 C1005 1.390 . S
C1007 C1008 1.387 1_554 S
C1007 H1010 0.950 . S
C1008 C1007 1.387 1_556 S
C1008 C1011 1.387 . S
H1009 C1005 0.950 . S
H1010 C1007 0.950 . S
C1011 C1002 1.390 . S
C1011 H1004 0.950 . S
C1011 C1008 1.387 . S
C1012 C1013 1.387 . S
C1012 H1016 0.950 . S
C1012 C1021 1.390 . S
C1013 C1012 1.387 . S
C1013 C1015 1.387 1_554 S
H1014 C1021 0.950 . S
C1015 C1013 1.387 1_556 S
C1015 C1017 1.390 . S
C1015 H1019 0.950 . S
H1016 C1012 0.950 . S
C1017 C1015 1.390 . S
C1017 C1018 1.387 . S
C1017 H1020 0.950 . S
C1018 C1017 1.387 . S
C1018 C1021 1.387 1_556 S
H1019 C1015 0.950 . S
H1020 C1017 0.950 . S
C1021 C1012 1.390 . S
C1021 H1014 0.950 . S
C1021 C1018 1.387 1_554 S
C1022 C1023 1.387 1_554 S
C1022 H1026 0.950 . S
C1022 C1031 1.390 . S
C1023 C1022 1.387 1_556 S
C1023 C1025 1.387 . S
H1024 C1031 0.950 . S
C1025 C1023 1.387 . S
C1025 C1027 1.390 . S
C1025 H1029 0.950 . S
H1026 C1022 0.950 . S
C1027 C1025 1.390 . S
C1027 C1028 1.387 1_556 S
C1027 H1030 0.950 . S
C1028 C1027 1.387 1_554 S
C1028 C1031 1.387 . S
H1029 C1025 0.950 . S
H1030 C1027 0.950 . S
C1031 C1022 1.390 . S
C1031 H1024 0.950 . S
C1031 C1028 1.387 . S
C1032 C1033 1.387 . S
C1032 H1036 0.950 . S
C1032 C1041 1.390 . S
C1033 C1032 1.387 . S
C1033 C1035 1.387 . S
H1034 C1041 0.950 . S
C1035 C1033 1.387 . S
C1035 C1037 1.390 . S
C1035 H1039 0.950 . S
H1036 C1032 0.950 . S
C1037 C1035 1.390 . S
C1037 C1038 1.387 . S
C1037 H1040 0.950 . S
C1038 C1037 1.387 . S
C1038 C1041 1.387 . S
H1039 C1035 0.950 . S
H1040 C1037 0.950 . S
C1041 C1032 1.390 . S
C1041 H1034 0.950 . S
C1041 C1038 1.387 . S
C1042 C1043 1.387 . S
C1042 H1046 0.950 . S
C1042 C1051 1.390 . S
C1043 C1042 1.387 . S
C1043 C1045 1.387 . S
H1044 C1051 0.950 . S
C1045 C1043 1.387 . S
C1045 C1047 1.390 . S
C1045 H1049 0.950 . S
H1046 C1042 0.950 . S
C1047 C1045 1.390 . S
C1047 C1048 1.387 . S
C1047 H1050 0.950 . S
C1048 C1047 1.387 . S
C1048 C1051 1.387 . S
H1049 C1045 0.950 . S
H1050 C1047 0.950 . S
C1051 C1042 1.390 . S
C1051 H1044 0.950 . S
C1051 C1048 1.387 . S
C1052 C1053 1.387 . S
C1052 H1056 0.950 . S
C1052 C1061 1.390 . S
C1053 C1052 1.387 . S
C1053 C1055 1.387 . S
H1054 C1061 0.950 . S
C1055 C1053 1.387 . S
C1055 C1057 1.390 . S
C1055 H1059 0.950 . S
H1056 C1052 0.950 . S
C1057 C1055 1.390 . S
C1057 C1058 1.387 . S
C1057 H1060 0.950 . S
C1058 C1057 1.387 . S
C1058 C1061 1.387 . S
H1059 C1055 0.950 . S
H1060 C1057 0.950 . S
C1061 C1052 1.390 . S
C1061 H1054 0.950 . S
C1061 C1058 1.387 . S
C1062 C1063 1.387 . S
C1062 H1066 0.950 . S
C1062 C1071 1.390 . S
C1063 C1062 1.387 . S
C1063 C1065 1.387 . S
H1064 C1071 0.950 . S
C1065 C1063 1.387 . S
C1065 C1067 1.390 . S
C1065 H1069 0.950 . S
H1066 C1062 0.950 . S
C1067 C1065 1.390 . S
C1067 C1068 1.387 . S
C1067 H1070 0.950 . S
C1068 C1067 1.387 . S
C1068 C1071 1.387 . S
H1069 C1065 0.950 . S
H1070 C1067 0.950 . S
C1071 C1062 1.390 . S
C1071 H1064 0.950 . S
C1071 C1068 1.387 . S
C1072 C1073 1.387 . S
C1072 H1076 0.950 . S
C1072 C1081 1.390 . S
C1073 C1072 1.387 . S
C1073 C1075 1.387 . S
H1074 C1081 0.950 . S
C1075 C1073 1.387 . S
C1075 C1077 1.390 . S
C1075 H1079 0.950 . S
H1076 C1072 0.950 . S
C1077 C1075 1.390 . S
C1077 C1078 1.387 . S
C1077 H1080 0.950 . S
C1078 C1077 1.387 . S
C1078 C1081 1.387 . S
H1079 C1075 0.950 . S
H1080 C1077 0.950 . S
C1081 C1072 1.390 . S
C1081 H1074 0.950 . S
C1081 C1078 1.387 . S
C1082 C1083 1.387 . S
C1082 H1086 0.950 . S
C1082 C1091 1.390 . S
C1083 C1082 1.387 . S
C1083 C1085 1.387 . S
H1084 C1091 0.950 . S
C1085 C1083 1.387 . S
C1085 C1087 1.390 . S
C1085 H1089 0.950 . S
H1086 C1082 0.950 . S
C1087 C1085 1.390 . S
C1087 C1088 1.387 . S
C1087 H1090 0.950 . S
C1088 C1087 1.387 . S
C1088 C1091 1.387 . S
H1089 C1085 0.950 . S
H1090 C1087 0.950 . S
C1091 C1082 1.390 . S
C1091 H1084 0.950 . S
C1091 C1088 1.387 . S
C1092 C1093 1.387 . S
C1092 H1096 0.950 . S
C1092 C1101 1.390 . S
C1093 C1092 1.387 . S
C1093 C1095 1.387 . S
H1094 C1101 0.950 . S
C1095 C1093 1.387 . S
C1095 C1097 1.390 . S
C1095 H1099 0.950 . S
H1096 C1092 0.950 . S
C1097 C1095 1.390 . S
C1097 C1098 1.387 . S
C1097 H1100 0.950 . S
C1098 C1097 1.387 . S
C1098 C1101 1.387 . S
H1099 C1095 0.950 . S
H1100 C1097 0.950 . S
C1101 C1092 1.390 . S
C1101 H1094 0.950 . S
C1101 C1098 1.387 . S
C1102 C1103 1.387 . S
C1102 H1106 0.950 . S
C1102 C1111 1.390 . S
C1103 C1102 1.387 . S
C1103 C1105 1.387 . S
H1104 C1111 0.950 . S
C1105 C1103 1.387 . S
C1105 C1107 1.390 . S
C1105 H1109 0.950 . S
H1106 C1102 0.950 . S
C1107 C1105 1.390 . S
C1107 C1108 1.387 . S
C1107 H1110 0.950 . S
C1108 C1107 1.387 . S
C1108 C1111 1.387 . S
H1109 C1105 0.950 . S
H1110 C1107 0.950 . S
C1111 C1102 1.390 . S
C1111 H1104 0.950 . S
C1111 C1108 1.387 . S
C1112 C1113 1.387 . S
C1112 H1116 0.950 . S
C1112 C1121 1.390 . S
C1113 C1112 1.387 . S
C1113 C1115 1.387 . S
H1114 C1121 0.950 . S
C1115 C1113 1.387 . S
C1115 C1117 1.390 . S
C1115 H1119 0.950 . S
H1116 C1112 0.950 . S
C1117 C1115 1.390 . S
C1117 C1118 1.387 . S
C1117 H1120 0.950 . S
C1118 C1117 1.387 . S
C1118 C1121 1.387 . S
H1119 C1115 0.950 . S
H1120 C1117 0.950 . S
C1121 C1112 1.390 . S
C1121 H1114 0.950 . S
C1121 C1118 1.387 . S
C1122 C1123 1.387 . S
C1122 H1126 0.950 . S
C1122 C1131 1.390 . S
C1123 C1122 1.387 . S
C1123 C1125 1.387 . S
H1124 C1131 0.950 . S
C1125 C1123 1.387 . S
C1125 C1127 1.390 . S
C1125 H1129 0.950 . S
H1126 C1122 0.950 . S
C1127 C1125 1.390 . S
C1127 C1128 1.387 . S
C1127 H1130 0.950 . S
C1128 C1127 1.387 . S
C1128 C1131 1.387 . S
H1129 C1125 0.950 . S
H1130 C1127 0.950 . S
C1131 C1122 1.390 . S
C1131 H1124 0.950 . S
C1131 C1128 1.387 . S
C1132 C1133 1.387 . S
C1132 H1136 0.950 . S
C1132 C1141 1.390 . S
C1133 C1132 1.387 . S
C1133 C1135 1.387 . S
H1134 C1141 0.950 . S
C1135 C1133 1.387 . S
C1135 C1137 1.390 . S
C1135 H1139 0.950 . S
H1136 C1132 0.950 . S
C1137 C1135 1.390 . S
C1137 C1138 1.387 . S
C1137 H1140 0.950 . S
C1138 C1137 1.387 . S
C1138 C1141 1.387 . S
H1139 C1135 0.950 . S
H1140 C1137 0.950 . S
C1141 C1132 1.390 . S
C1141 H1134 0.950 . S
C1141 C1138 1.387 . S
C1142 C1143 1.387 . S
C1142 H1146 0.950 . S
C1142 C1151 1.390 . S
C1143 C1142 1.387 . S
C1143 C1145 1.387 . S
H1144 C1151 0.950 . S
C1145 C1143 1.387 . S
C1145 C1147 1.390 . S
C1145 H1149 0.950 . S
H1146 C1142 0.950 . S
C1147 C1145 1.390 . S
C1147 C1148 1.387 . S
C1147 H1150 0.950 . S
C1148 C1147 1.387 . S
C1148 C1151 1.387 . S
H1149 C1145 0.950 . S
H1150 C1147 0.950 . S
C1151 C1142 1.390 . S
C1151 H1144 0.950 . S
C1151 C1148 1.387 . S
C1152 C1153 1.387 . S
C1152 H1156 0.950 . S
C1152 C1161 1.390 . S
C1153 C1152 1.387 . S
C1153 C1155 1.387 . S
H1154 C1161 0.950 . S
C1155 C1153 1.387 . S
C1155 C1157 1.390 . S
C1155 H1159 0.950 . S
H1156 C1152 0.950 . S
C1157 C1155 1.390 . S
C1157 C1158 1.387 . S
C1157 H1160 0.950 . S
C1158 C1157 1.387 . S
C1158 C1161 1.387 . S
H1159 C1155 0.950 . S
H1160 C1157 0.950 . S
C1161 C1152 1.390 . S
C1161 H1154 0.950 . S
C1161 C1158 1.387 . S
C1162 C1163 1.387 . S
C1162 H1166 0.950 . S
C1162 C1171 1.390 . S
C1163 C1162 1.387 . S
C1163 C1165 1.387 . S
H1164 C1171 0.950 . S
C1165 C1163 1.387 . S
C1165 C1167 1.390 . S
C1165 H1169 0.950 . S
H1166 C1162 0.950 . S
C1167 C1165 1.390 . S
C1167 C1168 1.387 . S
C1167 H1170 0.950 . S
C1168 C1167 1.387 . S
C1168 C1171 1.387 . S
H1169 C1165 0.950 . S
H1170 C1167 0.950 . S
C1171 C1162 1.390 . S
C1171 H1164 0.950 . S
C1171 C1168 1.387 . S
C1172 C1173 1.387 . S
C1172 H1176 0.950 . S
C1172 C1181 1.390 . S
C1173 C1172 1.387 . S
C1173 C1175 1.387 . S
H1174 C1181 0.950 . S
C1175 C1173 1.387 . S
C1175 C1177 1.390 . S
C1175 H1179 0.950 . S
H1176 C1172 0.950 . S
C1177 C1175 1.390 . S
C1177 C1178 1.387 . S
C1177 H1180 0.950 . S
C1178 C1177 1.387 . S
C1178 C1181 1.387 . S
H1179 C1175 0.950 . S
H1180 C1177 0.950 . S
C1181 C1172 1.390 . S
C1181 H1174 0.950 . S
C1181 C1178 1.387 . S
C1182 C1183 1.387 . S
C1182 H1186 0.950 . S
C1182 C1191 1.390 . S
C1183 C1182 1.387 . S
C1183 C1185 1.387 . S
H1184 C1191 0.950 . S
C1185 C1183 1.387 . S
C1185 C1187 1.390 . S
C1185 H1189 0.950 . S
H1186 C1182 0.950 . S
C1187 C1185 1.390 . S
C1187 C1188 1.387 . S
C1187 H1190 0.950 . S
C1188 C1187 1.387 . S
C1188 C1191 1.387 . S
H1189 C1185 0.950 . S
H1190 C1187 0.950 . S
C1191 C1182 1.390 . S
C1191 H1184 0.950 . S
C1191 C1188 1.387 . S
C1192 C1193 1.387 . S
C1192 H1196 0.950 . S
C1192 C1201 1.390 . S
C1193 C1192 1.387 . S
C1193 C1195 1.387 . S
H1194 C1201 0.950 . S
C1195 C1193 1.387 . S
C1195 C1197 1.390 . S
C1195 H1199 0.950 . S
H1196 C1192 0.950 . S
C1197 C1195 1.390 . S
C1197 C1198 1.387 . S
C1197 H1200 0.950 . S
C1198 C1197 1.387 . S
C1198 C1201 1.387 . S
H1199 C1195 0.950 . S
H1200 C1197 0.950 . S
C1201 C1192 1.390 . S
C1201 H1194 0.950 . S
C1201 C1198 1.387 . S
C1202 C1203 1.387 . S
C1202 H1206 0.950 . S
C1202 C1211 1.390 . S
C1203 C1202 1.387 . S
C1203 C1205 1.387 . S
H1204 C1211 0.950 . S
C1205 C1203 1.387 . S
C1205 C1207 1.390 . S
C1205 H1209 0.950 . S
H1206 C1202 0.950 . S
C1207 C1205 1.390 . S
C1207 C1208 1.387 . S
C1207 H1210 0.950 . S
C1208 C1207 1.387 . S
C1208 C1211 1.387 . S
H1209 C1205 0.950 . S
H1210 C1207 0.950 . S
C1211 C1202 1.390 . S
C1211 H1204 0.950 . S
C1211 C1208 1.387 . S
C1212 C1213 1.387 . S
C1212 H1216 0.950 . S
C1212 C1221 1.390 . S
C1213 C1212 1.387 . S
C1213 C1215 1.387 . S
H1214 C1221 0.950 . S
C1215 C1213 1.387 . S
C1215 C1217 1.390 . S
C1215 H1219 0.950 . S
H1216 C1212 0.950 . S
C1217 C1215 1.390 . S
C1217 C1218 1.387 . S
C1217 H1220 0.950 . S
C1218 C1217 1.387 . S
C1218 C1221 1.387 . S
H1219 C1215 0.950 . S
H1220 C1217 0.950 . S
C1221 C1212 1.390 . S
C1221 H1214 0.950 . S
C1221 C1218 1.387 . S
C1222 C1223 1.387 . S
C1222 H1226 0.950 . S
C1222 C1231 1.390 . S
C1223 C1222 1.387 . S
C1223 C1225 1.387 . S
H1224 C1231 0.950 . S
C1225 C1223 1.387 . S
C1225 C1227 1.390 . S
C1225 H1229 0.950 . S
H1226 C1222 0.950 . S
C1227 C1225 1.390 . S
C1227 C1228 1.387 . S
C1227 H1230 0.950 . S
C1228 C1227 1.387 . S
C1228 C1231 1.387 . S
H1229 C1225 0.950 . S
H1230 C1227 0.950 . S
C1231 C1222 1.390 . S
C1231 H1224 0.950 . S
C1231 C1228 1.387 . S
C1232 C1233 1.387 . S
C1232 H1236 0.950 . S
C1232 C1241 1.390 . S
C1233 C1232 1.387 . S
C1233 C1235 1.387 . S
H1234 C1241 0.950 . S
C1235 C1233 1.387 . S
C1235 C1237 1.390 . S
C1235 H1239 0.950 . S
H1236 C1232 0.950 . S
C1237 C1235 1.390 . S
C1237 C1238 1.387 . S
C1237 H1240 0.950 . S
C1238 C1237 1.387 . S
C1238 C1241 1.387 . S
H1239 C1235 0.950 . S
H1240 C1237 0.950 . S
C1241 C1232 1.390 . S
C1241 H1234 0.950 . S
C1241 C1238 1.387 . S
C1242 C1243 1.387 . S
C1242 H1246 0.950 . S
C1242 C1251 1.390 . S
C1243 C1242 1.387 . S
C1243 C1245 1.387 . S
H1244 C1251 0.950 . S
C1245 C1243 1.387 . S
C1245 C1247 1.390 . S
C1245 H1249 0.950 . S
H1246 C1242 0.950 . S
C1247 C1245 1.390 . S
C1247 C1248 1.387 . S
C1247 H1250 0.950 . S
C1248 C1247 1.387 . S
C1248 C1251 1.387 . S
H1249 C1245 0.950 . S
H1250 C1247 0.950 . S
C1251 C1242 1.390 . S
C1251 H1244 0.950 . S
C1251 C1248 1.387 . S
C1252 C1253 1.387 . S
C1252 H1256 0.950 . S
C1252 C1261 1.390 . S
C1253 C1252 1.387 . S
C1253 C1255 1.387 . S
H1254 C1261 0.950 . S
C1255 C1253 1.387 . S
C1255 C1257 1.390 . S
C1255 H1259 0.950 . S
H1256 C1252 0.950 . S
C1257 C1255 1.390 . S
C1257 C1258 1.387 . S
C1257 H1260 0.950 . S
C1258 C1257 1.387 . S
C1258 C1261 1.387 . S
H1259 C1255 0.950 . S
H1260 C1257 0.950 . S
C1261 C1252 1.390 . S
C1261 H1254 0.950 . S
C1261 C1258 1.387 . S
C1262 C1263 1.387 . S
C1262 H1266 0.950 . S
C1262 C1271 1.390 . S
C1263 C1262 1.387 . S
C1263 C1265 1.387 . S
H1264 C1271 0.950 . S
C1265 C1263 1.387 . S
C1265 C1267 1.390 . S
C1265 H1269 0.950 . S
H1266 C1262 0.950 . S
C1267 C1265 1.390 . S
C1267 C1268 1.387 . S
C1267 H1270 0.950 . S
C1268 C1267 1.387 . S
C1268 C1271 1.387 . S
H1269 C1265 0.950 . S
H1270 C1267 0.950 . S
C1271 C1262 1.390 . S
C1271 H1264 0.950 . S
C1271 C1268 1.387 . S
C1272 C1273 1.387 . S
C1272 H1276 0.950 . S
C1272 C1281 1.390 . S
C1273 C1272 1.387 . S
C1273 C1275 1.387 . S
H1274 C1281 0.950 . S
C1275 C1273 1.387 . S
C1275 C1277 1.390 . S
C1275 H1279 0.950 . S
H1276 C1272 0.950 . S
C1277 C1275 1.390 . S
C1277 C1278 1.387 . S
C1277 H1280 0.950 . S
C1278 C1277 1.387 . S
C1278 C1281 1.387 . S
H1279 C1275 0.950 . S
H1280 C1277 0.950 . S
C1281 C1272 1.390 . S
C1281 H1274 0.950 . S
C1281 C1278 1.387 . S
C1282 C1283 1.387 . S
C1282 H1286 0.950 . S
C1282 C1291 1.390 . S
C1283 C1282 1.387 . S
C1283 C1285 1.387 . S
H1284 C1291 0.950 . S
C1285 C1283 1.387 . S
C1285 C1287 1.390 . S
C1285 H1289 0.950 . S
H1286 C1282 0.950 . S
C1287 C1285 1.390 . S
C1287 C1288 1.387 . S
C1287 H1290 0.950 . S
C1288 C1287 1.387 . S
C1288 C1291 1.387 . S
H1289 C1285 0.950 . S
H1290 C1287 0.950 . S
C1291 C1282 1.390 . S
C1291 H1284 0.950 . S
C1291 C1288 1.387 . S
C1292 C1293 1.387 . S
C1292 H1296 0.950 . S
C1292 C1301 1.390 . S
C1293 C1292 1.387 . S
C1293 C1295 1.387 . S
H1294 C1301 0.950 . S
C1295 C1293 1.387 . S
C1295 C1297 1.390 . S
C1295 H1299 0.950 . S
H1296 C1292 0.950 . S
C1297 C1295 1.390 . S
C1297 C1298 1.387 . S
C1297 H1300 0.950 . S
C1298 C1297 1.387 . S
C1298 C1301 1.387 . S
H1299 C1295 0.950 . S
H1300 C1297 0.950 . S
C1301 C1292 1.390 . S
C1301 H1294 0.950 . S
C1301 C1298 1.387 . S
C1302 C1303 1.387 . S
C1302 H1306 0.950 . S
C1302 C1311 1.390 . S
C1303 C1302 1.387 . S
C1303 C1305 1.387 . S
H1304 C1311 0.950 . S
C1305 C1303 1.387 . S
C1305 C1307 1.390 . S
C1305 H1309 0.950 . S
H1306 C1302 0.950 . S
C1307 C1305 1.390 . S
C1307 C1308 1.387 . S
C1307 H1310 0.950 . S
C1308 C1307 1.387 . S
C1308 C1311 1.387 . S
H1309 C1305 0.950 . S
H1310 C1307 0.950 . S
C1311 C1302 1.390 . S
C1311 H1304 0.950 . S
C1311 C1308 1.387 . S
C1312 C1313 1.387 . S
C1312 H1316 0.950 . S
C1312 C1321 1.390 . S
C1313 C1312 1.387 . S
C1313 C1315 1.387 . S
H1314 C1321 0.950 . S
C1315 C1313 1.387 . S
C1315 C1317 1.390 . S
C1315 H1319 0.950 . S
H1316 C1312 0.950 . S
C1317 C1315 1.390 . S
C1317 C1318 1.387 . S
C1317 H1320 0.950 . S
C1318 C1317 1.387 . S
C1318 C1321 1.387 . S
H1319 C1315 0.950 . S
H1320 C1317 0.950 . S
C1321 C1312 1.390 . S
C1321 H1314 0.950 . S
C1321 C1318 1.387 . S
C1322 C1323 1.387 . S
C1322 H1326 0.950 . S
C1322 C1331 1.390 . S
C1323 C1322 1.387 . S
C1323 C1325 1.387 . S
H1324 C1331 0.950 . S
C1325 C1323 1.387 . S
C1325 C1327 1.390 . S
C1325 H1329 0.950 . S
H1326 C1322 0.950 . S
C1327 C1325 1.390 . S
C1327 C1328 1.387 . S
C1327 H1330 0.950 . S
C1328 C1327 1.387 . S
C1328 C1331 1.387 . S
H1329 C1325 0.950 . S
H1330 C1327 0.950 . S
C1331 C1322 1.390 . S
C1331 H1324 0.950 . S
C1331 C1328 1.387 . S
C1332 C1333 1.387 . S
C1332 H1336 0.950 . S
C1332 C1341 1.390 . S
C1333 C1332 1.387 . S
C1333 C1335 1.387 . S
H1334 C1341 0.950 . S
C1335 C1333 1.387 . S
C1335 C1337 1.390 . S
C1335 H1339 0.950 . S
H1336 C1332 0.950 . S
C1337 C1335 1.390 . S
C1337 C1338 1.387 . S
C1337 H1340 0.950 . S
C1338 C1337 1.387 . S
C1338 C1341 1.387 . S
H1339 C1335 0.950 . S
H1340 C1337 0.950 . S
C1341 C1332 1.390 . S
C1341 H1334 0.950 . S
C1341 C1338 1.387 . S
C1342 C1343 1.387 . S
C1342 H1346 0.950 . S
C1342 C1351 1.390 . S
C1343 C1342 1.387 . S
C1343 C1345 1.387 . S
H1344 C1351 0.950 . S
C1345 C1343 1.387 . S
C1345 C1347 1.390 . S
C1345 H1349 0.950 . S
H1346 C1342 0.950 . S
C1347 C1345 1.390 . S
C1347 C1348 1.387 . S
C1347 H1350 0.950 . S
C1348 C1347 1.387 . S
C1348 C1351 1.387 . S
H1349 C1345 0.950 . S
H1350 C1347 0.950 . S
C1351 C1342 1.390 . S
C1351 H1344 0.950 . S
C1351 C1348 1.387 . S
C1352 C1353 1.387 . S
C1352 H1356 0.950 . S
C1352 C1361 1.390 . S
C1353 C1352 1.387 . S
C1353 C1355 1.387 . S
H1354 C1361 0.950 . S
C1355 C1353 1.387 . S
C1355 C1357 1.390 . S
C1355 H1359 0.950 . S
H1356 C1352 0.950 . S
C1357 C1355 1.390 . S
C1357 C1358 1.387 . S
C1357 H1360 0.950 . S
C1358 C1357 1.387 . S
C1358 C1361 1.387 . S
H1359 C1355 0.950 . S
H1360 C1357 0.950 . S
C1361 C1352 1.390 . S
C1361 H1354 0.950 . S
C1361 C1358 1.387 . S
C1362 C1363 1.387 . S
C1362 H1366 0.950 . S
C1362 C1371 1.390 . S
C1363 C1362 1.387 . S
C1363 C1365 1.387 . S
H1364 C1371 0.950 . S
C1365 C1363 1.387 . S
C1365 C1367 1.390 . S
C1365 H1369 0.950 . S
H1366 C1362 0.950 . S
C1367 C1365 1.390 . S
C1367 C1368 1.387 . S
C1367 H1370 0.950 . S
C1368 C1367 1.387 . S
C1368 C1371 1.387 . S
H1369 C1365 0.950 . S
H1370 C1367 0.950 . S
C1371 C1362 1.390 . S
C1371 H1364 0.950 . S
C1371 C1368 1.387 . S
C1372 C1373 1.387 . S
C1372 H1376 0.950 . S
C1372 C1381 1.390 . S
C1373 C1372 1.387 . S
C1373 C1375 1.387 . S
H1374 C1381 0.950 . S
C1375 C1373 1.387 . S
C1375 C1377 1.390 . S
C1375 H1379 0.950 . S
H1376 C1372 0.950 . S
C1377 C1375 1.390 . S
C1377 C1378 1.387 . S
C1377 H1380 0.950 . S
C1378 C1377 1.387 . S
C1378 C1381 1.387 . S
H1379 C1375 0.950 . S
H1380 C1377 0.950 . S
C1381 C1372 1.390 . S
C1381 H1374 0.950 . S
C1381 C1378 1.387 . S
C1382 C1383 1.387 . S
C1382 H1386 0.950 . S
C1382 C1391 1.390 . S
C1383 C1382 1.387 . S
C1383 C1385 1.387 . S
H1384 C1391 0.950 . S
C1385 C1383 1.387 . S
C1385 C1387 1.390 . S
C1385 H1389 0.950 . S
H1386 C1382 0.950 . S
C1387 C1385 1.390 . S
C1387 C1388 1.387 . S
C1387 H1390 0.950 . S
C1388 C1387 1.387 . S
C1388 C1391 1.387 . S
H1389 C1385 0.950 . S
H1390 C1387 0.950 . S
C1391 C1382 1.390 . S
C1391 H1384 0.950 . S
C1391 C1388 1.387 . S
C1392 C1393 1.387 . S
C1392 H1396 0.950 . S
C1392 C1401 1.390 . S
C1393 C1392 1.387 . S
C1393 C1395 1.387 . S
H1394 C1401 0.950 . S
C1395 C1393 1.387 . S
C1395 C1397 1.390 . S
C1395 H1399 0.950 . S
H1396 C1392 0.950 . S
C1397 C1395 1.390 . S
C1397 C1398 1.387 . S
C1397 H1400 0.950 . S
C1398 C1397 1.387 . S
C1398 C1401 1.387 . S
H1399 C1395 0.950 . S
H1400 C1397 0.950 . S
C1401 C1392 1.390 . S
C1401 H1394 0.950 . S
C1401 C1398 1.387 . S
C1402 C1403 1.387 . S
C1402 H1406 0.950 . S
C1402 C1411 1.390 . S
C1403 C1402 1.387 . S
C1403 C1405 1.387 . S
H1404 C1411 0.950 . S
C1405 C1403 1.387 . S
C1405 C1407 1.390 . S
C1405 H1409 0.950 . S
H1406 C1402 0.950 . S
C1407 C1405 1.390 . S
C1407 C1408 1.387 . S
C1407 H1410 0.950 . S
C1408 C1407 1.387 . S
C1408 C1411 1.387 . S
H1409 C1405 0.950 . S
H1410 C1407 0.950 . S
C1411 C1402 1.390 . S
C1411 H1404 0.950 . S
C1411 C1408 1.387 . S
C1412 C1413 1.387 . S
C1412 H1416 0.950 . S
C1412 C1421 1.390 . S
C1413 C1412 1.387 . S
C1413 C1415 1.387 . S
H1414 C1421 0.950 . S
C1415 C1413 1.387 . S
C1415 C1417 1.390 . S
C1415 H1419 0.950 . S
H1416 C1412 0.950 . S
C1417 C1415 1.390 . S
C1417 C1418 1.387 . S
C1417 H1420 0.950 . S
C1418 C1417 1.387 . S
C1418 C1421 1.387 . S
H1419 C1415 0.950 . S
H1420 C1417 0.950 . S
C1421 C1412 1.390 . S
C1421 H1414 0.950 . S
C1421 C1418 1.387 . S
C1422 C1423 1.387 . S
C1422 H1426 0.950 . S
C1422 C1431 1.390 . S
C1423 C1422 1.387 . S
C1423 C1425 1.387 . S
H1424 C1431 0.950 . S
C1425 C1423 1.387 . S
C1425 C1427 1.390 . S
C1425 H1429 0.950 . S
H1426 C1422 0.950 . S
C1427 C1425 1.390 . S
C1427 C1428 1.387 . S
C1427 H1430 0.950 . S
C1428 C1427 1.387 . S
C1428 C1431 1.387 . S
H1429 C1425 0.950 . S
H1430 C1427 0.950 . S
C1431 C1422 1.390 . S
C1431 H1424 0.950 . S
C1431 C1428 1.387 . S
C1432 C1433 1.387 . S
C1432 H1436 0.950 . S
C1432 C1441 1.390 . S
C1433 C1432 1.387 . S
C1433 C1435 1.387 . S
H1434 C1441 0.950 . S
C1435 C1433 1.387 . S
C1435 C1437 1.390 . S
C1435 H1439 0.950 . S
H1436 C1432 0.950 . S
C1437 C1435 1.390 . S
C1437 C1438 1.387 . S
C1437 H1440 0.950 . S
C1438 C1437 1.387 . S
C1438 C1441 1.387 . S
H1439 C1435 0.950 . S
H1440 C1437 0.950 . S
C1441 C1432 1.390 . S
C1441 H1434 0.950 . S
C1441 C1438 1.387 . S
C1442 C1443 1.387 . S
C1442 H1446 0.950 . S
C1442 C1451 1.390 . S
C1443 C1442 1.387 . S
C1443 C1445 1.387 . S
H1444 C1451 0.950 . S
C1445 C1443 1.387 . S
C1445 C1447 1.390 . S
C1445 H1449 0.950 . S
H1446 C1442 0.950 . S
C1447 C1445 1.390 . S
C1447 C1448 1.387 . S
C1447 H1450 0.950 . S
C1448 C1447 1.387 . S
C1448 C1451 1.387 . S
H1449 C1445 0.950 . S
H1450 C1447 0.950 . S
C1451 C1442 1.390 . S
C1451 H1444 0.950 . S
C1451 C1448 1.387 . S
C1452 C1453 1.387 . S
C1452 H1456 0.950 . S
C1452 C1461 1.390 . S
C1453 C1452 1.387 . S
C1453 C1455 1.387 . S
H1454 C1461 0.950 . S
C1455 C1453 1.387 . S
C1455 C1457 1.390 . S
C1455 H1459 0.950 . S
H1456 C1452 0.950 . S
C1457 C1455 1.390 . S
C1457 C1458 1.387 . S
C1457 H1460 0.950 . S
C1458 C1457 1.387 . S
C1458 C1461 1.387 . S
H1459 C1455 0.950 . S
H1460 C1457 0.950 . S
C1461 C1452 1.390 . S
C1461 H1454 0.950 . S
C1461 C1458 1.387 . S
C1462 C1463 1.387 . S
C1462 H1466 0.950 . S
C1462 C1471 1.390 . S
C1463 C1462 1.387 . S
C1463 C1465 1.387 . S
H1464 C1471 0.950 . S
C1465 C1463 1.387 . S
C1465 C1467 1.390 . S
C1465 H1469 0.950 . S
H1466 C1462 0.950 . S
C1467 C1465 1.390 . S
C1467 C1468 1.387 . S
C1467 H1470 0.950 . S
C1468 C1467 1.387 . S
C1468 C1471 1.387 . S
H1469 C1465 0.950 . S
H1470 C1467 0.950 . S
C1471 C1462 1.390 . S
C1471 H1464 0.950 . S
C1471 C1468 1.387 . S
C1472 C1473 1.387 . S
C1472 H1476 0.950 . S
C1472 C1481 1.390 . S
C1473 C1472 1.387 . S
C1473 C1475 1.387 . S
H1474 C1481 0.950 . S
C1475 C1473 1.387 . S
C1475 C1477 1.390 . S
C1475 H1479 0.950 . S
H1476 C1472 0.950 . S
C1477 C1475 1.390 . S
C1477 C1478 1.387 . S
C1477 H1480 0.950 . S
C1478 C1477 1.387 . S
C1478 C1481 1.387 . S
H1479 C1475 0.950 . S
H1480 C1477 0.950 . S
C1481 C1472 1.390 . S
C1481 H1474 0.950 . S
C1481 C1478 1.387 . S
C1482 C1483 1.387 . S
C1482 H1486 0.950 . S
C1482 C1491 1.390 . S
C1483 C1482 1.387 . S
C1483 C1485 1.387 . S
H1484 C1491 0.950 . S
C1485 C1483 1.387 . S
C1485 C1487 1.390 . S
C1485 H1489 0.950 . S
H1486 C1482 0.950 . S
C1487 C1485 1.390 . S
C1487 C1488 1.387 . S
C1487 H1490 0.950 . S
C1488 C1487 1.387 . S
C1488 C1491 1.387 . S
H1489 C1485 0.950 . S
H1490 C1487 0.950 . S
C1491 C1482 1.390 . S
C1491 H1484 0.950 . S
C1491 C1488 1.387 . S
C1492 C1493 1.387 . S
C1492 H1496 0.950 . S
C1492 C1501 1.390 . S
C1493 C1492 1.387 . S
C1493 C1495 1.387 . S
H1494 C1501 0.950 . S
C1495 C1493 1.387 . S
C1495 C1497 1.390 . S
C1495 H1499 0.950 . S
H1496 C1492 0.950 . S
C1497 C1495 1.390 . S
C1497 C1498 1.387 . S
C1497 H1500 0.950 . S
C1498 C1497 1.387 . S
C1498 C1501 1.387 . S
H1499 C1495 0.950 . S
H1500 C1497 0.950 . S
C1501 C1492 1.390 . S
C1501 H1494 0.950 . S
C1501 C1498 1.387 . S
C1502 C1503 1.387 . S
C1502 H1506 0.950 . S
C1502 C1511 1.390 . S
C1503 C1502 1.387 . S
C1503 C1505 1.387 . S
H1504 C1511 0.950 . S
C1505 C1503 1.387 . S
C1505 C1507 1.390 . S
C1505 H1509 0.950 . S
H1506 C1502 0.950 . S
C1507 C1505 1.390 . S
C1507 C1508 1.387 . S
C1507 H1510 0.950 . S
C1508 C1507 1.387 . S
C1508 C1511 1.387 . S
H1509 C1505 0.950 . S
H1510 C1507 0.950 . S
C1511 C1502 1.390 . S
C1511 H1504 0.950 . S
C1511 C1508 1.387 . S
C1512 C1513 1.387 . S
C1512 H1516 0.950 . S
C1512 C1521 1.390 . S
C1513 C1512 1.387 . S
C1513 C1515 1.387 . S
H1514 C1521 0.950 . S
C1515 C1513 1.387 . S
C1515 C1517 1.390 . S
C1515 H1519 0.950 . S
H1516 C1512 0.950 . S
C1517 C1515 1.390 . S
C1517 C1518 1.387 . S
C1517 H1520 0.950 . S
C1518 C1517 1.387 . S
C1518 C1521 1.387 . S
H1519 C1515 0.950 . S
H1520 C1517 0.950 . S
C1521 C1512 1.390 . S
C1521 H1514 0.950 . S
C1521 C1518 1.387 . S
C1522 C1523 1.387 . S
C1522 H1526 0.950 . S
C1522 C1531 1.390 . S
C1523 C1522 1.387 . S
C1523 C1525 1.387 . S
H1524 C1531 0.950 . S
C1525 C1523 1.387 . S
C1525 C1527 1.390 . S
C1525 H1529 0.950 . S
H1526 C1522 0.950 . S
C1527 C1525 1.390 . S
C1527 C1528 1.387 . S
C1527 H1530 0.950 . S
C1528 C1527 1.387 . S
C1528 C1531 1.387 . S
H1529 C1525 0.950 . S
H1530 C1527 0.950 . S
C1531 C1522 1.390 . S
C1531 H1524 0.950 . S
C1531 C1528 1.387 . S
C1532 C1533 1.387 . S
C1532 H1536 0.950 . S
C1532 C1541 1.390 . S
C1533 C1532 1.387 . S
C1533 C1535 1.387 . S
H1534 C1541 0.950 . S
C1535 C1533 1.387 . S
C1535 C1537 1.390 . S
C1535 H1539 0.950 . S
H1536 C1532 0.950 . S
C1537 C1535 1.390 . S
C1537 C1538 1.387 . S
C1537 H1540 0.950 . S
C1538 C1537 1.387 . S
C1538 C1541 1.387 . S
H1539 C1535 0.950 . S
H1540 C1537 0.950 . S
C1541 C1532 1.390 . S
C1541 H1534 0.950 . S
C1541 C1538 1.387 . S
C1542 C1543 1.387 . S
C1542 H1546 0.950 . S
C1542 C1551 1.390 . S
C1543 C1542 1.387 . S
C1543 C1545 1.387 . S
H1544 C1551 0.950 . S
C1545 C1543 1.387 . S
C1545 C1547 1.390 . S
C1545 H1549 0.950 . S
H1546 C1542 0.950 . S
C1547 C1545 1.390 . S
C1547 C1548 1.387 . S
C1547 H1550 0.950 . S
C1548 C1547 1.387 . S
C1548 C1551 1.387 . S
H1549 C1545 0.950 . S
H1550 C1547 0.950 . S
C1551 C1542 1.390 . S
C1551 H1544 0.950 . S
C1551 C1548 1.387 . S
C1552 C1553 1.387 . S
C1552 H1556 0.950 . S
C1552 C1561 1.390 . S
C1553 C1552 1.387 . S
C1553 C1555 1.387 . S
H1554 C1561 0.950 . S
C1555 C1553 1.387 . S
C1555 C1557 1.390 . S
C1555 H1559 0.950 . S
H1556 C1552 0.950 . S
C1557 C1555 1.390 . S
C1557 C1558 1.387 . S
C1557 H1560 0.950 . S
C1558 C1557 1.387 . S
C1558 C1561 1.387 . S
H1559 C1555 0.950 . S
H1560 C1557 0.950 . S
C1561 C1552 1.390 . S
C1561 H1554 0.950 . S
C1561 C1558 1.387 . S
C1562 C1563 1.387 . S
C1562 H1566 0.950 . S
C1562 C1571 1.390 . S
C1563 C1562 1.387 . S
C1563 C1565 1.387 . S
H1564 C1571 0.950 . S
C1565 C1563 1.387 . S
C1565 C1567 1.390 . S
C1565 H1569 0.950 . S
H1566 C1562 0.950 . S
C1567 C1565 1.390 . S
C1567 C1568 1.387 . S
C1567 H1570 0.950 . S
C1568 C1567 1.387 . S
C1568 C1571 1.387 . S
H1569 C1565 0.950 . S
H1570 C1567 0.950 . S
C1571 C1562 1.390 . S
C1571 H1564 0.950 . S
C1571 C1568 1.387 . S
C1572 C1573 1.387 . S
C1572 H1576 0.950 . S
C1572 C1581 1.390 . S
C1573 C1572 1.387 . S
C1573 C1575 1.387 . S
H1574 C1581 0.950 . S
C1575 C1573 1.387 . S
C1575 C1577 1.390 . S
C1575 H1579 0.950 . S
H1576 C1572 0.950 . S
C1577 C1575 1.390 . S
C1577 C1578 1.387 . S
C1577 H1580 0.950 . S
C1578 C1577 1.387 . S
C1578 C1581 1.387 . S
H1579 C1575 0.950 . S
H1580 C1577 0.950 . S
C1581 C1572 1.390 . S
C1581 H1574 0.950 . S
C1581 C1578 1.387 . S
C1582 C1583 1.387 . S
C1582 H1586 0.950 . S
C1582 C1591 1.390 . S
C1583 C1582 1.387 . S
C1583 C1585 1.387 . S
H1584 C1591 0.950 . S
C1585 C1583 1.387 . S
C1585 C1587 1.390 . S
C1585 H1589 0.950 . S
H1586 C1582 0.950 . S
C1587 C1585 1.390 . S
C1587 C1588 1.387 . S
C1587 H1590 0.950 . S
C1588 C1587 1.387 . S
C1588 C1591 1.387 . S
H1589 C1585 0.950 . S
H1590 C1587 0.950 . S
C1591 C1582 1.390 . S
C1591 H1584 0.950 . S
C1591 C1588 1.387 . S
C1592 C1593 1.387 . S
C1592 H1596 0.950 . S
C1592 C1601 1.390 . S
C1593 C1592 1.387 . S
C1593 C1595 1.387 . S
H1594 C1601 0.950 . S
C1595 C1593 1.387 . S
C1595 C1597 1.390 . S
C1595 H1599 0.950 . S
H1596 C1592 0.950 . S
C1597 C1595 1.390 . S
C1597 C1598 1.387 . S
C1597 H1600 0.950 . S
C1598 C1597 1.387 . S
C1598 C1601 1.387 . S
H1599 C1595 0.950 . S
H1600 C1597 0.950 . S
C1601 C1592 1.390 . S
C1601 H1594 0.950 . S
C1601 C1598 1.387 . S
C1602 C1603 1.387 . S
C1602 H1606 0.950 . S
C1602 C1611 1.390 . S
C1603 C1602 1.387 . S
C1603 C1605 1.387 . S
H1604 C1611 0.950 . S
C1605 C1603 1.387 . S
C1605 C1607 1.390 . S
C1605 H1609 0.950 . S
H1606 C1602 0.950 . S
C1607 C1605 1.390 . S
C1607 C1608 1.387 . S
C1607 H1610 0.950 . S
C1608 C1607 1.387 . S
C1608 C1611 1.387 . S
H1609 C1605 0.950 . S
H1610 C1607 0.950 . S
C1611 C1602 1.390 . S
C1611 H1604 0.950 . S
C1611 C1608 1.387 . S
C1612 C1613 1.387 . S
C1612 H1616 0.950 . S
C1612 C1621 1.390 . S
C1613 C1612 1.387 . S
C1613 C1615 1.387 . S
H1614 C1621 0.950 . S
C1615 C1613 1.387 . S
C1615 C1617 1.390 . S
C1615 H1619 0.950 . S
H1616 C1612 0.950 . S
C1617 C1615 1.390 . S
C1617 C1618 1.387 . S
C1617 H1620 0.950 . S
C1618 C1617 1.387 . S
C1618 C1621 1.387 . S
H1619 C1615 0.950 . S
H1620 C1617 0.950 . S
C1621 C1612 1.390 . S
C1621 H1614 0.950 . S
C1621 C1618 1.387 . S
C1622 C1623 1.387 . S
C1622 H1626 0.950 . S
C1622 C1631 1.390 . S
C1623 C1622 1.387 . S
C1623 C1625 1.387 . S
H1624 C1631 0.950 . S
C1625 C1623 1.387 . S
C1625 C1627 1.390 . S
C1625 H1629 0.950 . S
H1626 C1622 0.950 . S
C1627 C1625 1.390 . S
C1627 C1628 1.387 . S
C1627 H1630 0.950 . S
C1628 C1627 1.387 . S
C1628 C1631 1.387 . S
H1629 C1625 0.950 . S
H1630 C1627 0.950 . S
C1631 C1622 1.390 . S
C1631 H1624 0.950 . S
C1631 C1628 1.387 . S
C673 C439 1.183 . S
C678 C11 1.313 . S
C683 C19 1.182 . S
C688 C403 1.313 . S
C693 C39 1.311 . S
C698 C411 1.188 . S
C703 C431 1.312 . S
C708 C47 1.184 . S
C713 C355 1.183 . S
C718 C67 1.313 . S
C723 C75 1.188 . S
C728 C375 1.311 . S
C733 C383 1.183 . S
C738 C95 1.313 . S
C743 C103 1.188 . S
C748 C347 1.311 . S
C753 C123 1.330 . S
C758 C627 1.330 . S
C763 C579 1.189 . S
C768 C137 1.311 . S
C773 C599 1.331 . S
C778 C151 1.331 . S
C783 C165 1.311 . S
C788 C607 1.188 . S
C793 C179 1.330 . S
C798 C669 1.331 . S
C803 C193 1.311 . S
C808 C635 1.188 . S
C813 C207 1.331 . S
C818 C655 1.331 . S
C823 C565 1.187 . S
C828 C221 1.312 . S
C833 C557 1.312 . S
C838 C229 1.183 . S
C843 C243 1.183 . S
C848 C473 1.313 . S
C853 C487 1.331 . S
C858 C263 1.330 . S
C863 C271 1.187 . S
C868 C501 1.312 . S
C873 C459 1.330 . S
C878 C291 1.330 . S
C883 C529 1.312 . S
C888 C299 1.188 . S
C893 C319 1.328 . S
C898 C543 1.329 . S
C903 C515 1.328 . S
C908 C333 1.329 . S
C913 C138 1.336 . S
C918 C12 1.336 . S
C923 C152 1.345 . S
C928 C18 1.315 . S
C933 C40 1.334 . S
C938 C166 1.335 . S
C943 C124 1.345 . S
C948 C46 1.314 . S
C953 C68 1.336 . S
C958 C222 1.336 . S
C963 C180 1.345 . S
C968 C74 1.315 . S
C973 C194 1.334 . S
C978 C96 1.334 . S
C983 C208 1.346 . S
C988 C102 1.315 . S
C993 C264 1.346 . S
C998 C228 1.315 . S
C1003 C320 1.346 . S
C1008 C242 1.315 . S
C1013 C334 1.345 . S
C1018 C270 1.315 . S
C1023 C292 1.345 . S
C1028 C298 1.314 . S
C1033 C474 1.335 . S
C1038 C348 1.336 . S
C1043 C488 1.345 . S
C1048 C354 1.315 . S
C1053 C502 1.336 . S
C1058 C376 1.335 . S
C1063 C382 1.313 . S
C1068 C460 1.344 . S
C1073 C404 1.334 . S
C1078 C558 1.334 . S
C1083 C410 1.315 . S
C1088 C516 1.346 . S
C1093 C530 1.336 . S
C1098 C432 1.336 . S
C1103 C544 1.346 . S
C1108 C438 1.315 . S
C1113 C564 1.315 . S
C1118 C600 1.346 . S
C1123 C656 1.345 . S
C1128 C578 1.314 . S
C1133 C670 1.344 . S
C1138 C606 1.313 . S
C1143 C634 1.315 . S
C1148 C628 1.346 . S
C1153 C5 1.214 . S
C1158 C256 1.329 . S
C1163 C25 1.475 . S
C1168 C278 1.431 . S
C1173 C33 1.213 . S
C1178 C284 1.331 . S
C1183 C250 1.432 . S
C1188 C53 1.477 . S
C1193 C61 1.214 . S
C1198 C312 1.330 . S
C1203 C81 1.476 . S
C1208 C236 1.429 . S
C1213 C326 1.329 . S
C1218 C89 1.214 . S
C1223 C306 1.432 . S
C1228 C109 1.477 . S
C1233 C117 1.248 . S
C1238 C130 1.350 . S
C1243 C131 1.208 . S
C1248 C144 1.331 . S
C1253 C145 1.248 . S
C1258 C158 1.351 . S
C1263 C116 1.331 . S
C1268 C159 1.208 . S
C1273 C214 1.350 . S
C1278 C173 1.249 . S
C1283 C172 1.332 . S
C1288 C187 1.208 . S
C1293 C186 1.350 . S
C1298 C201 1.249 . S
C1303 C215 1.214 . S
C1308 C200 1.329 . S
C1313 C54 1.431 . S
C1318 C235 1.477 . S
C1323 C82 1.432 . S
C1328 C249 1.477 . S
C1333 C88 1.350 . S
C1338 C257 1.254 . S
C1343 C277 1.475 . S
C1348 C110 1.432 . S
C1353 C60 1.350 . S
C1358 C285 1.249 . S
C1363 C26 1.429 . S
C1368 C305 1.475 . S
C1373 C32 1.350 . S
C1378 C313 1.254 . S
C1383 C4 1.350 . S
C1388 C327 1.254 . S
C1393 C592 1.332 . S
C1398 C341 1.208 . S
C1403 C361 1.474 . S
C1408 C614 1.430 . S
C1413 C620 1.330 . S
C1418 C369 1.214 . S
C1423 C586 1.429 . S
C1428 C389 1.476 . S
C1433 C397 1.208 . S
C1438 C648 1.331 . S
C1443 C417 1.476 . S
C1448 C572 1.432 . S
C1453 C662 1.330 . S
C1458 C425 1.214 . S
C1463 C445 1.477 . S
C1468 C642 1.430 . S
C1473 C453 1.254 . S
C1478 C466 1.349 . S
C1483 C467 1.208 . S
C1488 C480 1.332 . S
C1493 C481 1.249 . S
C1498 C494 1.349 . S
C1503 C495 1.213 . S
C1508 C452 1.331 . S
C1513 C550 1.350 . S
C1518 C509 1.254 . S
C1523 C508 1.329 . S
C1528 C523 1.214 . S
C1533 C522 1.349 . S
C1538 C537 1.254 . S
C1543 C551 1.214 . S
C1548 C536 1.329 . S
C1553 C390 1.429 . S
C1558 C571 1.475 . S
C1563 C418 1.431 . S
C1568 C585 1.475 . S
C1573 C424 1.350 . S
C1578 C593 1.254 . S
C1583 C613 1.475 . S
C1588 C446 1.429 . S
C1593 C396 1.350 . S
C1598 C621 1.249 . S
C1603 C362 1.430 . S
C1608 C641 1.477 . S
C1613 C649 1.254 . S
C1618 C368 1.350 . S
C1623 C340 1.350 . S
C1628 C663 1.249 . S
