# Generated by pormake.
# Topology uku, (4)-cn, num edge types: 1
# Building blocks:
#     Node 0, Type 0, BuildingBlock: ICAMEG_clean_sbu_1, # of connection points: 4
#     Node 1, Type 0, BuildingBlock: ICAMEG_clean_sbu_1, # of connection points: 4
#     Node 2, Type 0, BuildingBlock: ICAMEG_clean_sbu_1, # of connection points: 4
#     Node 3, Type 0, BuildingBlock: ICAMEG_clean_sbu_1, # of connection points: 4
#     Node 4, Type 0, BuildingBlock: ICAMEG_clean_sbu_1, # of connection points: 4
#     Node 5, Type 0, BuildingBlock: ICAMEG_clean_sbu_1, # of connection points: 4
#     Node 6, Type 0, BuildingBlock: ICAMEG_clean_sbu_1, # of connection points: 4
#     Node 7, Type 0, BuildingBlock: ICAMEG_clean_sbu_1, # of connection points: 4
#     Node 8, Type 0, BuildingBlock: ICAMEG_clean_sbu_1, # of connection points: 4
#     Node 9, Type 0, BuildingBlock: ICAMEG_clean_sbu_1, # of connection points: 4
#     Node 10, Type 0, BuildingBlock: ICAMEG_clean_sbu_1, # of connection points: 4
#     Node 11, Type 0, BuildingBlock: ICAMEG_clean_sbu_1, # of connection points: 4
#     Edge 12, Type (0, 0), BuildingBlock: CIFDUS_clean_linker_0, # of connection points: 2
#     Edge 13, Type (0, 0), BuildingBlock: CIFDUS_clean_linker_0, # of connection points: 2
#     Edge 14, Type (0, 0), BuildingBlock: CIFDUS_clean_linker_0, # of connection points: 2
#     Edge 15, Type (0, 0), BuildingBlock: CIFDUS_clean_linker_0, # of connection points: 2
#     Edge 16, Type (0, 0), BuildingBlock: CIFDUS_clean_linker_0, # of connection points: 2
#     Edge 17, Type (0, 0), BuildingBlock: CIFDUS_clean_linker_0, # of connection points: 2
#     Edge 18, Type (0, 0), BuildingBlock: CIFDUS_clean_linker_0, # of connection points: 2
#     Edge 19, Type (0, 0), BuildingBlock: CIFDUS_clean_linker_0, # of connection points: 2
#     Edge 20, Type (0, 0), BuildingBlock: CIFDUS_clean_linker_0, # of connection points: 2
#     Edge 21, Type (0, 0), BuildingBlock: CIFDUS_clean_linker_0, # of connection points: 2
#     Edge 22, Type (0, 0), BuildingBlock: CIFDUS_clean_linker_0, # of connection points: 2
#     Edge 23, Type (0, 0), BuildingBlock: CIFDUS_clean_linker_0, # of connection points: 2
#     Edge 24, Type (0, 0), BuildingBlock: CIFDUS_clean_linker_0, # of connection points: 2
#     Edge 25, Type (0, 0), BuildingBlock: CIFDUS_clean_linker_0, # of connection points: 2
#     Edge 26, Type (0, 0), BuildingBlock: CIFDUS_clean_linker_0, # of connection points: 2
#     Edge 27, Type (0, 0), BuildingBlock: CIFDUS_clean_linker_0, # of connection points: 2
#     Edge 28, Type (0, 0), BuildingBlock: CIFDUS_clean_linker_0, # of connection points: 2
#     Edge 29, Type (0, 0), BuildingBlock: CIFDUS_clean_linker_0, # of connection points: 2
#     Edge 30, Type (0, 0), BuildingBlock: CIFDUS_clean_linker_0, # of connection points: 2
#     Edge 31, Type (0, 0), BuildingBlock: CIFDUS_clean_linker_0, # of connection points: 2
#     Edge 32, Type (0, 0), BuildingBlock: CIFDUS_clean_linker_0, # of connection points: 2
#     Edge 33, Type (0, 0), BuildingBlock: CIFDUS_clean_linker_0, # of connection points: 2
#     Edge 34, Type (0, 0), BuildingBlock: CIFDUS_clean_linker_0, # of connection points: 2
#     Edge 35, Type (0, 0), BuildingBlock: CIFDUS_clean_linker_0, # of connection points: 2
# Relax obj value: 0.342
# Max RMSD: 0.222
# Mean RMSD: 0.222
data_MOF--net-uku--node1-ICAMEG_clean_sbu_1--edge1-CIFDUS_clean_linker_0
_symmetry_space_group_name_H-M    P1
_symmetry_Int_Tables_number       1
_symmetry_cell_setting            triclinic
loop_
_symmetry_equiv_pos_as_xyz
'x, y, z'
_cell_length_a     38.245632
_cell_length_b     38.21803
_cell_length_c     38.269072
_cell_angle_alpha  90.006853
_cell_angle_beta   89.977651
_cell_angle_gamma 89.997454
loop_
_atom_site_label
_atom_site_type_symbol
_atom_site_fract_x
_atom_site_fract_y
_atom_site_fract_z
_atom_type_partial_charge
Co0 Co 0.08608 0.14669 0.65842 0.0
Co1 Co 0.13144 0.20811 0.61049 0.0
O2 O 0.09588 0.17151 0.61502 0.0
C3 C 0.09033 0.07284 0.6363 0.0
O4 O 0.11713 0.06994 0.65755 0.0
C5 C 0.06659 0.23906 0.58255 0.0
O6 O 0.05128 0.23041 0.61203 0.0
O7 O 0.11317 0.23347 0.65253 0.0
O8 O 0.09438 0.18959 0.68669 0.0
H9 H 0.22536 0.28946 0.65325 0.0
H10 H 0.03511 0.14407 0.6002 0.0
O11 O 0.07663 0.10279 0.63099 0.0
H12 H 0.97057 0.19546 0.69924 0.0
H13 H 0.0194 0.06329 0.73585 0.0
H14 H 0.12004 0.14357 0.72794 0.0
H15 H 0.03203 0.17726 0.70605 0.0
H16 H 0.03126 0.09571 0.68143 0.0
O17 O 0.09933 0.23456 0.57897 0.0
H18 H 0.18117 0.24282 0.6588 0.0
H19 H 0.15635 0.25206 0.55102 0.0
H20 H 0.10904 0.11178 0.78292 0.0
H21 H 0.97359 0.1616 0.59231 0.0
H22 H 0.05842 0.07127 0.78712 0.0
H23 H 0.94091 0.18762 0.64203 0.0
O24 O 0.13672 0.13468 0.6631 0.0
H25 H 0.12197 0.14399 0.49614 0.0
H26 H 0.20277 0.18711 0.58679 0.0
H27 H 0.22629 0.1551 0.53602 0.0
H28 H 0.18578 0.13341 0.49016 0.0
H29 H 0.09954 0.17575 0.54753 0.0
H30 H 0.20015 0.29896 0.54435 0.0
H31 H 0.23509 0.31788 0.59569 0.0
O32 O 0.16437 0.18164 0.64095 0.0
C33 C 0.10258 0.22153 0.6819 0.0
C34 C 0.21035 0.28141 0.63067 0.0
C35 C 0.19615 0.28678 0.56956 0.0
N36 N 0.16626 0.24466 0.60526 0.0
C37 C 0.18533 0.25496 0.63364 0.0
C38 C 0.17131 0.26029 0.57353 0.0
C39 C 0.21577 0.29736 0.59837 0.0
C40 C 0.02098 0.155 0.62209 0.0
N41 N 0.03717 0.15951 0.65361 0.0
C42 C 0.98617 0.16502 0.61741 0.0
C43 C 0.96788 0.17969 0.64529 0.0
C44 C 0.98452 0.18414 0.67738 0.0
C45 C 0.01939 0.1739 0.68106 0.0
C46 C 0.04153 0.08088 0.73436 0.0
C47 C 0.09792 0.12605 0.72957 0.0
C48 C 0.0484 0.09929 0.7036 0.0
N49 N 0.07633 0.12154 0.70149 0.0
C50 C 0.09183 0.1081 0.76077 0.0
C51 C 0.06343 0.08537 0.76311 0.0
C52 C 0.16435 0.15266 0.65747 0.0
C53 C 0.1399 0.15336 0.51592 0.0
C54 C 0.18496 0.17756 0.56709 0.0
C55 C 0.19844 0.15955 0.53832 0.0
C56 C 0.1757 0.14741 0.51259 0.0
N57 N 0.14983 0.18341 0.57012 0.0
C58 C 0.12736 0.17146 0.54505 0.0
Co59 Co 0.94428 0.85689 0.67936 0.0
Co60 Co 0.88978 0.80956 0.62612 0.0
O61 O 0.93155 0.83784 0.634 0.0
C62 C 0.95021 0.92187 0.63568 0.0
O63 O 0.91714 0.91965 0.62672 0.0
C64 C 0.94777 0.76826 0.59682 0.0
O65 O 0.96274 0.77065 0.6276 0.0
O66 O 0.90208 0.77752 0.66559 0.0
O67 O 0.92619 0.81469 0.70401 0.0
H68 H 0.78124 0.74423 0.661 0.0
H69 H 0.99695 0.85219 0.62272 0.0
O70 O 0.9638 0.89932 0.65598 0.0
H71 H 0.04582 0.78348 0.7202 0.0
H72 H 0.02217 0.92209 0.76315 0.0
H73 H 0.90972 0.86065 0.74865 0.0
H74 H 0.98902 0.81337 0.72638 0.0
H75 H 0.00611 0.89618 0.70637 0.0
O76 O 0.91709 0.78035 0.59238 0.0
H77 H 0.83356 0.78057 0.67099 0.0
H78 H 0.85805 0.77708 0.56278 0.0
H79 H 0.92488 0.88593 0.80596 0.0
H80 H 0.05397 0.82297 0.61549 0.0
H81 H 0.98147 0.91693 0.81348 0.0
H82 H 0.07872 0.78822 0.66442 0.0
O83 O 0.89723 0.87915 0.68387 0.0
H84 H 0.91355 0.8811 0.51845 0.0
H85 H 0.82443 0.84651 0.60495 0.0
H86 H 0.80856 0.8874 0.55771 0.0
H87 H 0.85327 0.90488 0.51397 0.0
H88 H 0.92838 0.84054 0.56629 0.0
H89 H 0.8061 0.74047 0.55164 0.0
H90 H 0.76722 0.72392 0.60095 0.0
O91 O 0.86204 0.83899 0.65914 0.0
C92 C 0.91312 0.78504 0.69619 0.0
C93 C 0.79793 0.75133 0.63928 0.0
C94 C 0.81192 0.74918 0.57791 0.0
N95 N 0.84872 0.78108 0.61747 0.0
C96 C 0.82755 0.77197 0.64477 0.0
C97 C 0.84134 0.76983 0.58439 0.0
C98 C 0.7901 0.73992 0.60559 0.0
C99 C 0.00768 0.83738 0.64426 0.0
N100 N 0.98966 0.83454 0.67498 0.0
C101 C 0.03993 0.8208 0.63996 0.0
C102 C 0.05377 0.80124 0.6674 0.0
C103 C 0.0353 0.79854 0.69868 0.0
C104 C 0.00308 0.81543 0.70201 0.0
C105 C 0.99747 0.90859 0.76022 0.0
C106 C 0.93449 0.87392 0.75176 0.0
C107 C 0.98819 0.89393 0.7281 0.0
N108 N 0.9571 0.87671 0.72425 0.0
C109 C 0.94289 0.88826 0.78425 0.0
C110 C 0.97462 0.90568 0.78845 0.0
C111 C 0.86693 0.86641 0.67757 0.0
C112 C 0.89381 0.87361 0.5373 0.0
C113 C 0.84407 0.85409 0.58611 0.0
C114 C 0.83491 0.87719 0.55936 0.0
C115 C 0.86 0.88697 0.53482 0.0
N116 N 0.87725 0.84099 0.5883 0.0
C117 C 0.90202 0.85055 0.56439 0.0
Co118 Co 0.06968 0.85363 0.33032 0.0
Co119 Co 0.10783 0.79771 0.38854 0.0
O120 O 0.072 0.83224 0.37653 0.0
C121 C 0.06049 0.91512 0.37851 0.0
O122 O 0.08722 0.90515 0.3976 0.0
C123 C 0.04128 0.76661 0.41284 0.0
O124 O 0.02838 0.77246 0.3816 0.0
O125 O 0.09418 0.76813 0.3478 0.0
O126 O 0.08623 0.8097 0.30729 0.0
H127 H 0.20649 0.71448 0.36379 0.0
H128 H 0.00767 0.85491 0.37673 0.0
O129 O 0.05183 0.89797 0.35139 0.0
H130 H 0.96824 0.79572 0.26926 0.0
H131 H 0.01678 0.92936 0.23638 0.0
H132 H 0.11651 0.85425 0.26861 0.0
H133 H 0.02869 0.81747 0.2744 0.0
H134 H 0.0189 0.90075 0.2941 0.0
O135 O 0.07323 0.77335 0.41916 0.0
H136 H 0.16228 0.75906 0.34907 0.0
H137 H 0.12778 0.76133 0.45456 0.0
H138 H 0.11531 0.88212 0.21053 0.0
H139 H 0.94685 0.83395 0.37257 0.0
H140 H 0.06516 0.92 0.19408 0.0
H141 H 0.9268 0.804 0.31857 0.0
O142 O 0.11902 0.86977 0.33528 0.0
H143 H 0.08539 0.87189 0.49469 0.0
H144 H 0.17588 0.82402 0.41627 0.0
H145 H 0.19332 0.86177 0.46552 0.0
H146 H 0.14792 0.8859 0.50521 0.0
H147 H 0.06904 0.83438 0.44489 0.0
H148 H 0.17148 0.7166 0.47039 0.0
H149 H 0.2113 0.69295 0.42485 0.0
O150 O 0.14351 0.8219 0.35882 0.0
C151 C 0.09081 0.77784 0.31605 0.0
C152 C 0.18936 0.72465 0.38389 0.0
C153 C 0.16967 0.7258 0.4437 0.0
N154 N 0.14262 0.76294 0.40095 0.0
C155 C 0.16432 0.74995 0.37572 0.0
C156 C 0.14492 0.75107 0.43456 0.0
C157 C 0.19202 0.71256 0.41815 0.0
C158 C 0.99908 0.84217 0.35302 0.0
N159 N 0.02177 0.8374 0.32584 0.0
C160 C 0.96463 0.83025 0.35087 0.0
C161 C 0.95342 0.81339 0.32059 0.0
C162 C 0.97667 0.80869 0.29294 0.0
C163 C 0.01094 0.82091 0.29606 0.0
C164 C 0.03875 0.91288 0.24323 0.0
C165 C 0.09452 0.87055 0.26161 0.0
C166 C 0.04014 0.89669 0.27592 0.0
N167 N 0.06771 0.87568 0.28467 0.0
C168 C 0.09402 0.88633 0.2287 0.0
C169 C 0.0659 0.9076 0.2195 0.0
C170 C 0.14575 0.85131 0.34318 0.0
C171 C 0.10542 0.86146 0.47764 0.0
C172 C 0.15594 0.83455 0.43331 0.0
C173 C 0.16599 0.85584 0.46122 0.0
C174 C 0.14051 0.86934 0.4835 0.0
N175 N 0.12147 0.82685 0.42778 0.0
C176 C 0.09634 0.84007 0.44947 0.0
Co177 Co 0.91779 0.14331 0.33481 0.0
Co178 Co 0.8709 0.19369 0.39267 0.0
O179 O 0.90951 0.16138 0.38195 0.0
C180 C 0.93764 0.08271 0.38309 0.0
O181 O 0.93307 0.10071 0.41192 0.0
C182 C 0.93274 0.22734 0.4252 0.0
O183 O 0.94906 0.22478 0.39511 0.0
O184 O 0.88637 0.22673 0.35519 0.0
O185 O 0.90368 0.18889 0.31393 0.0
H186 H 0.77029 0.27331 0.36413 0.0
H187 H 0.97423 0.14418 0.38943 0.0
O188 O 0.9322 0.09623 0.35313 0.0
H189 H 0.02444 0.20435 0.28741 0.0
H190 H 0.98131 0.07465 0.24192 0.0
H191 H 0.87886 0.14853 0.26802 0.0
H192 H 0.96445 0.1812 0.28535 0.0
H193 H 0.97234 0.09847 0.30114 0.0
O194 O 0.90108 0.21759 0.42787 0.0
H195 H 0.8181 0.23213 0.35081 0.0
H196 H 0.84312 0.22465 0.45869 0.0
H197 H 0.88705 0.12556 0.20838 0.0
H198 H 0.0343 0.16639 0.39245 0.0
H199 H 0.93857 0.08832 0.195 0.0
H200 H 0.05996 0.19684 0.3412 0.0
O201 O 0.86859 0.12645 0.33236 0.0
H202 H 0.88721 0.11468 0.49644 0.0
H203 H 0.80214 0.16213 0.41206 0.0
H204 H 0.78225 0.12057 0.45712 0.0
H205 H 0.82491 0.09661 0.4998 0.0
H206 H 0.90604 0.15602 0.45072 0.0
H207 H 0.79571 0.26593 0.47315 0.0
H208 H 0.75884 0.29047 0.42569 0.0
O209 O 0.83938 0.1701 0.35845 0.0
C210 C 0.89492 0.2195 0.32373 0.0
C211 C 0.78614 0.26274 0.38505 0.0
C212 C 0.80044 0.25864 0.44623 0.0
N213 N 0.83331 0.22588 0.40394 0.0
C214 C 0.81321 0.23936 0.37768 0.0
C215 C 0.82731 0.23534 0.43787 0.0
C216 C 0.77974 0.27239 0.41959 0.0
C217 C 0.98516 0.15649 0.36669 0.0
N218 N 0.96583 0.1603 0.3369 0.0
C219 C 0.01926 0.16944 0.36869 0.0
C220 C 0.0336 0.18663 0.33999 0.0
C221 C 0.01369 0.19085 0.30983 0.0
C222 C 0.97966 0.17762 0.30883 0.0
C223 C 0.95879 0.0909 0.24741 0.0
C224 C 0.90148 0.13254 0.26238 0.0
C225 C 0.9535 0.10437 0.28093 0.0
N226 N 0.92523 0.12511 0.288 0.0
C227 C 0.90592 0.11952 0.22856 0.0
C228 C 0.93481 0.09859 0.22109 0.0
C229 C 0.8403 0.14264 0.33958 0.0
C230 C 0.86836 0.12494 0.478 0.0
C231 C 0.82093 0.15161 0.43031 0.0
C232 C 0.80948 0.12819 0.45589 0.0
C233 C 0.83342 0.11479 0.47985 0.0
N234 N 0.85527 0.16143 0.42864 0.0
C235 C 0.87886 0.14842 0.45207 0.0
Co236 Co 0.66821 0.05728 0.14028 0.0
Co237 Co 0.61707 0.11141 0.19066 0.0
O238 O 0.62353 0.07128 0.15983 0.0
C239 C 0.62622 0.0607 0.07457 0.0
O240 O 0.6205 0.09422 0.07952 0.0
C241 C 0.58809 0.05108 0.22855 0.0
O242 O 0.61887 0.03646 0.22432 0.0
O243 O 0.65673 0.0966 0.22134 0.0
O244 O 0.69329 0.07016 0.18386 0.0
H245 H 0.65476 0.21537 0.26166 0.0
H246 H 0.6083 0.00806 0.13983 0.0
O247 O 0.64421 0.04311 0.09626 0.0
H248 H 0.70145 0.94751 0.2052 0.0
H249 H 0.74779 0.9798 0.06946 0.0
H250 H 0.73962 0.08753 0.13992 0.0
H251 H 0.71163 0.00616 0.18035 0.0
H252 H 0.69177 0.99729 0.09619 0.0
O253 O 0.58328 0.08258 0.21872 0.0
H254 H 0.66335 0.16516 0.22209 0.0
H255 H 0.55481 0.14202 0.22609 0.0
H256 H 0.79621 0.07085 0.1139 0.0
H257 H 0.59709 0.94931 0.16394 0.0
H258 H 0.80055 0.01663 0.07837 0.0
H259 H 0.64382 0.91867 0.19702 0.0
O260 O 0.67605 0.10562 0.12221 0.0
H261 H 0.50764 0.09431 0.11991 0.0
H262 H 0.59705 0.17919 0.15776 0.0
H263 H 0.54956 0.19851 0.11869 0.0
H264 H 0.50437 0.15594 0.09958 0.0
H265 H 0.55572 0.07602 0.15871 0.0
H266 H 0.54505 0.19186 0.26593 0.0
H267 H 0.59525 0.22899 0.28386 0.0
O268 O 0.65045 0.14033 0.16235 0.0
C269 C 0.68633 0.08317 0.21367 0.0
C270 C 0.63266 0.19944 0.25397 0.0
C271 C 0.5711 0.18621 0.2564 0.0
N272 N 0.60958 0.15082 0.22166 0.0
C273 C 0.63735 0.17103 0.2315 0.0
C274 C 0.57679 0.15798 0.23393 0.0
C275 C 0.59927 0.20705 0.26644 0.0
C276 C 0.6289 0.99477 0.15389 0.0
N277 N 0.66064 0.01052 0.15861 0.0
C278 C 0.62235 0.96154 0.16759 0.0
C279 C 0.64855 0.94441 0.1862 0.0
C280 C 0.68087 0.96059 0.19084 0.0
C281 C 0.68647 0.99386 0.17681 0.0
C282 C 0.74625 0.00344 0.08495 0.0
C283 C 0.74134 0.06378 0.12469 0.0
C284 C 0.71458 0.01352 0.1001 0.0
N285 N 0.71249 0.04326 0.11984 0.0
C286 C 0.77344 0.05452 0.10993 0.0
C287 C 0.77585 0.02411 0.08997 0.0
C288 C 0.66996 0.13572 0.13559 0.0
C289 C 0.52711 0.11312 0.12814 0.0
C290 C 0.57755 0.16048 0.14948 0.0
C291 C 0.55068 0.17159 0.12741 0.0
C292 C 0.52532 0.1477 0.11671 0.0
N293 N 0.57905 0.12656 0.1607 0.0
C294 C 0.55435 0.10295 0.15021 0.0
Co295 Co 0.31541 0.94745 0.15913 0.0
Co296 Co 0.37432 0.89503 0.20343 0.0
O297 O 0.36276 0.93554 0.17388 0.0
C298 C 0.36047 0.96277 0.09506 0.0
O299 O 0.38916 0.9502 0.10901 0.0
C300 C 0.40385 0.95662 0.23919 0.0
O301 O 0.37251 0.97051 0.2374 0.0
O302 O 0.3367 0.90656 0.23807 0.0
O303 O 0.29654 0.93415 0.2055 0.0
H304 H 0.34969 0.78669 0.27369 0.0
H305 H 0.37377 0.99907 0.15524 0.0
O306 O 0.33159 0.96199 0.1116 0.0
H307 H 0.28174 0.05704 0.22426 0.0
H308 H 0.22257 0.01938 0.09917 0.0
H309 H 0.24673 0.91262 0.16738 0.0
H310 H 0.27256 0.99776 0.20071 0.0
H311 H 0.28251 0.00587 0.11867 0.0
O312 O 0.40861 0.92515 0.22928 0.0
H313 H 0.33452 0.83724 0.23664 0.0
H314 H 0.44118 0.86791 0.23282 0.0
H315 H 0.18633 0.92536 0.14877 0.0
H316 H 0.38381 0.05851 0.17763 0.0
H317 H 0.17394 0.97907 0.11438 0.0
H318 H 0.33768 0.08794 0.21261 0.0
O319 O 0.30851 0.8988 0.14173 0.0
H320 H 0.47848 0.91934 0.12684 0.0
H321 H 0.39463 0.82958 0.16617 0.0
H322 H 0.44031 0.81376 0.12355 0.0
H323 H 0.48274 0.85877 0.10369 0.0
H324 H 0.43208 0.93421 0.16897 0.0
H325 H 0.45751 0.8178 0.27002 0.0
H326 H 0.4116 0.77671 0.29062 0.0
O327 O 0.34052 0.86458 0.17735 0.0
C328 C 0.30654 0.92025 0.23395 0.0
C329 C 0.36994 0.80439 0.26486 0.0
C330 C 0.43044 0.82189 0.26284 0.0
N331 N 0.38692 0.85549 0.23258 0.0
C332 C 0.3615 0.83305 0.24385 0.0
C333 C 0.42102 0.85028 0.24189 0.0
C334 C 0.40467 0.79882 0.27437 0.0
C335 C 0.35328 0.01174 0.16985 0.0
N336 N 0.32243 0.99487 0.17631 0.0
C337 C 0.35923 0.04542 0.1827 0.0
C338 C 0.33339 0.06187 0.20242 0.0
C339 C 0.30204 0.04453 0.209 0.0
C340 C 0.29703 0.01086 0.19573 0.0
C341 C 0.22763 0.99591 0.11417 0.0
C342 C 0.24153 0.93615 0.1526 0.0
C343 C 0.26155 0.98805 0.12517 0.0
N344 N 0.26812 0.95855 0.1443 0.0
C345 C 0.20728 0.94318 0.14205 0.0
C346 C 0.20036 0.97329 0.12273 0.0
C347 C 0.3181 0.86877 0.15297 0.0
C348 C 0.46018 0.89948 0.13533 0.0
C349 C 0.41277 0.84943 0.15743 0.0
C350 C 0.4387 0.84026 0.13341 0.0
C351 C 0.46253 0.86551 0.12231 0.0
N352 N 0.41061 0.88282 0.17007 0.0
C353 C 0.43391 0.9077 0.15932 0.0
Co354 Co 0.67366 0.93228 0.84866 0.0
Co355 Co 0.61794 0.87896 0.80267 0.0
O356 O 0.62766 0.91996 0.83128 0.0
C357 C 0.63042 0.93434 0.91307 0.0
O358 O 0.62057 0.90197 0.90708 0.0
C359 C 0.59012 0.93911 0.76379 0.0
O360 O 0.6219 0.95203 0.76514 0.0
O361 O 0.65696 0.8905 0.76979 0.0
O362 O 0.69647 0.91591 0.80492 0.0
H363 H 0.64739 0.77023 0.73497 0.0
H364 H 0.6166 0.98483 0.84865 0.0
O365 O 0.65178 0.94961 0.89269 0.0
H366 H 0.7104 0.03646 0.77683 0.0
H367 H 0.75965 0.00866 0.91275 0.0
H368 H 0.74339 0.89832 0.84794 0.0
H369 H 0.7183 0.9787 0.80445 0.0
H370 H 0.70179 0.9928 0.88909 0.0
O371 O 0.58435 0.90825 0.775 0.0
H372 H 0.66015 0.82169 0.77172 0.0
H373 H 0.55278 0.85005 0.7713 0.0
H374 H 0.80175 0.91331 0.87086 0.0
H375 H 0.6077 0.04274 0.82173 0.0
H376 H 0.81016 0.96884 0.90354 0.0
H377 H 0.65477 0.06889 0.78542 0.0
O378 O 0.67948 0.88449 0.86888 0.0
H379 H 0.5127 0.90462 0.87723 0.0
H380 H 0.59595 0.8137 0.83924 0.0
H381 H 0.54934 0.7985 0.88111 0.0
H382 H 0.50724 0.84412 0.90031 0.0
H383 H 0.55989 0.91878 0.8357 0.0
H384 H 0.53887 0.79904 0.7343 0.0
H385 H 0.58636 0.75864 0.71602 0.0
O386 O 0.65103 0.84964 0.83085 0.0
C387 C 0.68764 0.90229 0.77587 0.0
C388 C 0.62645 0.78759 0.74284 0.0
C389 C 0.56555 0.80379 0.74242 0.0
N390 N 0.6072 0.8387 0.7738 0.0
C391 C 0.63351 0.81671 0.76372 0.0
C392 C 0.5736 0.83268 0.76328 0.0
C393 C 0.59221 0.78112 0.73219 0.0
C394 C 0.63737 0.99618 0.83321 0.0
N395 N 0.66801 0.97844 0.82827 0.0
C396 C 0.63211 0.02894 0.81792 0.0
C397 C 0.6585 0.04356 0.79748 0.0
C398 C 0.68971 0.02535 0.79263 0.0
C399 C 0.69401 0.99262 0.80827 0.0
C400 C 0.75633 0.98442 0.8985 0.0
C401 C 0.74688 0.92263 0.86195 0.0
C402 C 0.72361 0.97526 0.88511 0.0
N403 N 0.71928 0.94478 0.86692 0.0
C404 C 0.77997 0.93093 0.87495 0.0
C405 C 0.78466 0.96207 0.89331 0.0
C406 C 0.67152 0.85426 0.85684 0.0
C407 C 0.53082 0.88448 0.86898 0.0
C408 C 0.57781 0.83373 0.84755 0.0
C409 C 0.55142 0.82494 0.87121 0.0
C410 C 0.5278 0.85055 0.88195 0.0
N411 N 0.58054 0.86704 0.83485 0.0
C412 C 0.55753 0.89231 0.84535 0.0
Co413 Co 0.33503 0.08187 0.85815 0.0
Co414 Co 0.39276 0.11767 0.7988 0.0
O415 O 0.3813 0.08504 0.83676 0.0
C416 C 0.38593 0.07133 0.91868 0.0
O417 O 0.41365 0.07892 0.89997 0.0
C418 C 0.41394 0.04824 0.77249 0.0
O419 O 0.38218 0.03757 0.77997 0.0
O420 O 0.35129 0.10266 0.77081 0.0
O421 O 0.31194 0.08961 0.81226 0.0
H422 H 0.36818 0.21082 0.70944 0.0
H423 H 0.38776 0.02471 0.86476 0.0
O424 O 0.35539 0.07316 0.90552 0.0
H425 H 0.28218 0.96806 0.81753 0.0
H426 H 0.24328 0.03292 0.93923 0.0
H427 H 0.27012 0.12364 0.85161 0.0
H428 H 0.28223 0.03105 0.83113 0.0
H429 H 0.30113 0.03496 0.91087 0.0
O430 O 0.4221 0.08028 0.77666 0.0
H431 H 0.35364 0.17053 0.75761 0.0
H432 H 0.45807 0.13276 0.75901 0.0
H433 H 0.21175 0.12228 0.87899 0.0
H434 H 0.38871 0.96165 0.85216 0.0
H435 H 0.19804 0.07671 0.9232 0.0
H436 H 0.3357 0.93283 0.8282 0.0
O437 O 0.33549 0.13329 0.86725 0.0
H438 H 0.50233 0.10011 0.86929 0.0
H439 H 0.42102 0.18722 0.82 0.0
H440 H 0.4718 0.20716 0.8543 0.0
H441 H 0.51297 0.16347 0.87911 0.0
H442 H 0.45095 0.08127 0.8353 0.0
H443 H 0.47372 0.17252 0.7107 0.0
H444 H 0.42862 0.21199 0.68565 0.0
O445 O 0.36381 0.1555 0.82073 0.0
C446 C 0.3203 0.09507 0.78054 0.0
C447 C 0.38808 0.19379 0.72016 0.0
C448 C 0.4473 0.17226 0.72084 0.0
N449 N 0.40497 0.14937 0.76115 0.0
C450 C 0.38001 0.17095 0.74748 0.0
C451 C 0.43825 0.14973 0.74812 0.0
C452 C 0.42199 0.19441 0.70681 0.0
C453 C 0.36437 0.01246 0.85492 0.0
N454 N 0.33485 0.03175 0.84897 0.0
C455 C 0.36515 0.97667 0.84758 0.0
C456 C 0.33545 0.96054 0.83404 0.0
C457 C 0.30545 0.9803 0.82799 0.0
C458 C 0.30568 0.01604 0.83557 0.0
C459 C 0.24893 0.05291 0.92001 0.0
C460 C 0.2643 0.10361 0.87069 0.0
C461 C 0.28172 0.05431 0.90399 0.0
N462 N 0.28904 0.0794 0.8796 0.0
C463 C 0.23122 0.10302 0.88616 0.0
C464 C 0.22356 0.07747 0.91099 0.0
C465 C 0.34505 0.15903 0.84814 0.0
C466 C 0.4846 0.11941 0.85859 0.0
C467 C 0.4386 0.16801 0.831 0.0
C468 C 0.46742 0.17948 0.85025 0.0
C469 C 0.49053 0.15495 0.86413 0.0
N470 N 0.43294 0.13309 0.82569 0.0
C471 C 0.45551 0.10891 0.83919 0.0
Co472 Co 0.15544 0.67892 0.0643 0.0
Co473 Co 0.18967 0.62151 0.12408 0.0
O474 O 0.16814 0.63174 0.0788 0.0
C475 C 0.08769 0.64265 0.04676 0.0
O476 O 0.0834 0.63257 0.07929 0.0
C477 C 0.23369 0.58504 0.07189 0.0
O478 O 0.23591 0.61473 0.05477 0.0
O479 O 0.2272 0.65747 0.11623 0.0
O480 O 0.19628 0.69915 0.08909 0.0
H481 H 0.24248 0.65133 0.24055 0.0
H482 H 0.16229 0.62273 0.01139 0.0
O483 O 0.11446 0.66026 0.0379 0.0
H484 H 0.24719 0.71314 0.97608 0.0
H485 H 0.11206 0.76982 0.97938 0.0
H486 H 0.1534 0.74809 0.09946 0.0
H487 H 0.20988 0.72172 0.02791 0.0
H488 H 0.12906 0.71043 0.99789 0.0
O489 O 0.2185 0.58411 0.10145 0.0
H490 H 0.21518 0.66414 0.18362 0.0
H491 H 0.21058 0.55557 0.16026 0.0
H492 H 0.13699 0.80793 0.08193 0.0
H493 H 0.19883 0.61319 0.95916 0.0
H494 H 0.11612 0.81911 0.0215 0.0
H495 H 0.24176 0.65855 0.94126 0.0
O496 O 0.12689 0.68521 0.10765 0.0
H497 H 0.1106 0.52192 0.09058 0.0
H498 H 0.14268 0.60464 0.18406 0.0
H499 H 0.09524 0.56218 0.19418 0.0
H500 H 0.07897 0.52033 0.14726 0.0
H501 H 0.15763 0.56505 0.08145 0.0
H502 H 0.23815 0.54161 0.21682 0.0
H503 H 0.25416 0.58968 0.25747 0.0
O504 O 0.16039 0.65786 0.1475 0.0
C505 C 0.22334 0.68894 0.10553 0.0
C506 C 0.23558 0.63015 0.22309 0.0
C507 C 0.2332 0.56858 0.20974 0.0
N508 N 0.21118 0.61064 0.16868 0.0
C509 C 0.22004 0.63724 0.19084 0.0
C510 C 0.21771 0.57665 0.17769 0.0
C511 C 0.24215 0.59556 0.23255 0.0
C512 C 0.18065 0.64276 0.00358 0.0
N513 N 0.18391 0.67278 0.02271 0.0
C514 C 0.20137 0.63714 0.97405 0.0
C515 C 0.2255 0.66256 0.96407 0.0
C516 C 0.22859 0.69318 0.98362 0.0
C517 C 0.20749 0.69785 0.01305 0.0
C518 C 0.12111 0.76528 0.00579 0.0
C519 C 0.14446 0.75273 0.07308 0.0
C520 C 0.13067 0.73167 0.01646 0.0
N521 N 0.14231 0.72577 0.04972 0.0
C522 C 0.13515 0.78668 0.06332 0.0
C523 C 0.12342 0.79293 0.02942 0.0
C524 C 0.13534 0.67834 0.13929 0.0
C525 C 0.11748 0.53997 0.11125 0.0
C526 C 0.13564 0.58669 0.16345 0.0
C527 C 0.10882 0.56261 0.16937 0.0
C528 C 0.09972 0.53912 0.14304 0.0
N529 N 0.15301 0.58732 0.13224 0.0
C530 C 0.14417 0.56441 0.10628 0.0
Co531 Co 0.15375 0.33205 0.92416 0.0
Co532 Co 0.20444 0.39204 0.87912 0.0
O533 O 0.17111 0.37972 0.91639 0.0
C534 C 0.08897 0.37764 0.93205 0.0
O535 O 0.10271 0.40356 0.91427 0.0
C536 C 0.23548 0.42228 0.94374 0.0
O537 O 0.22979 0.39238 0.95965 0.0
O538 O 0.23722 0.35349 0.89297 0.0
O539 O 0.20069 0.31229 0.91342 0.0
H540 H 0.28392 0.36798 0.7773 0.0
H541 H 0.14605 0.38733 0.97807 0.0
O542 O 0.10582 0.34926 0.93647 0.0
H543 H 0.20904 0.29128 0.03658 0.0
H544 H 0.08564 0.23754 0.98606 0.0
H545 H 0.16239 0.26508 0.8862 0.0
H546 H 0.19001 0.28544 0.9753 0.0
H547 H 0.10824 0.29736 0.97762 0.0
O548 O 0.22848 0.42551 0.9114 0.0
H549 H 0.24208 0.35269 0.82387 0.0
H550 H 0.23699 0.45905 0.85563 0.0
H551 H 0.14074 0.2048 0.89391 0.0
H552 H 0.16406 0.39416 0.0395 0.0
H553 H 0.10202 0.19071 0.9441 0.0
H554 H 0.19598 0.34598 0.06915 0.0
O555 O 0.13989 0.32812 0.8739 0.0
H556 H 0.12733 0.49664 0.89965 0.0
H557 H 0.17388 0.41523 0.81118 0.0
H558 H 0.13355 0.46213 0.79307 0.0
H559 H 0.11009 0.50336 0.83744 0.0
H560 H 0.16721 0.44897 0.91672 0.0
H561 H 0.27894 0.47547 0.80953 0.0
H562 H 0.30264 0.42978 0.76989 0.0
O563 O 0.18075 0.35968 0.84584 0.0
C564 C 0.23087 0.32251 0.90376 0.0
C565 C 0.2738 0.38813 0.79441 0.0
C566 C 0.27104 0.44844 0.81253 0.0
N567 N 0.23719 0.40489 0.84255 0.0
C568 C 0.2501 0.37962 0.82085 0.0
C569 C 0.2474 0.43896 0.8387 0.0
C570 C 0.2843 0.4228 0.79028 0.0
C571 C 0.15966 0.36612 0.99081 0.0
N572 N 0.16723 0.33608 0.97295 0.0
C573 C 0.1699 0.37019 0.02561 0.0
C574 C 0.18787 0.34318 0.0422 0.0
C575 C 0.19527 0.31253 0.02392 0.0
C576 C 0.1847 0.30944 0.98913 0.0
C577 C 0.10248 0.24335 0.96407 0.0
C578 C 0.14569 0.25914 0.90821 0.0
C579 C 0.11522 0.27723 0.95905 0.0
N580 N 0.13664 0.28474 0.93144 0.0
C581 C 0.13345 0.22496 0.91239 0.0
C582 C 0.1117 0.21708 0.94054 0.0
C583 C 0.15512 0.33835 0.84595 0.0
C584 C 0.13742 0.47887 0.88005 0.0
C585 C 0.16351 0.43279 0.83071 0.0
C586 C 0.14082 0.45944 0.82026 0.0
C587 C 0.12771 0.48259 0.84516 0.0
N588 N 0.17289 0.42926 0.86499 0.0
C589 C 0.16016 0.45191 0.88954 0.0
Co590 Co 0.84048 0.65821 0.9222 0.0
Co591 Co 0.79071 0.60333 0.87167 0.0
O592 O 0.82177 0.61215 0.91125 0.0
C593 C 0.91585 0.64255 0.9305 0.0
O594 O 0.92164 0.6644 0.90464 0.0
C595 C 0.75629 0.57104 0.9328 0.0
O596 O 0.75953 0.60124 0.94883 0.0
O597 O 0.75852 0.64176 0.8867 0.0
O598 O 0.79677 0.68177 0.90617 0.0
H599 H 0.71619 0.63627 0.76867 0.0
H600 H 0.84107 0.6028 0.97647 0.0
O601 O 0.88455 0.63524 0.9393 0.0
H602 H 0.77155 0.69905 0.02682 0.0
H603 H 0.9057 0.74605 0.99582 0.0
H604 H 0.84188 0.72651 0.88559 0.0
H605 H 0.79757 0.70471 0.96815 0.0
H606 H 0.88073 0.68813 0.98224 0.0
O607 O 0.76486 0.56832 0.90078 0.0
H608 H 0.75609 0.64737 0.81803 0.0
H609 H 0.75802 0.53891 0.84218 0.0
H610 H 0.86632 0.78485 0.89818 0.0
H611 H 0.81589 0.59621 0.0354 0.0
H612 H 0.89853 0.79492 0.95363 0.0
H613 H 0.78073 0.64452 0.06092 0.0
O614 O 0.85947 0.66206 0.87373 0.0
H615 H 0.86711 0.49766 0.88898 0.0
H616 H 0.823 0.58349 0.8035 0.0
H617 H 0.8637 0.53738 0.7841 0.0
H618 H 0.88594 0.49395 0.82697 0.0
H619 H 0.82667 0.54441 0.90734 0.0
H620 H 0.71792 0.52666 0.79321 0.0
H621 H 0.69684 0.57553 0.75599 0.0
O622 O 0.81677 0.63743 0.84176 0.0
C623 C 0.76633 0.67299 0.89581 0.0
C624 C 0.72525 0.61474 0.78465 0.0
C625 C 0.72618 0.55323 0.79847 0.0
N626 N 0.75947 0.59382 0.83289 0.0
C627 C 0.7479 0.62086 0.81261 0.0
C628 C 0.74879 0.56034 0.82623 0.0
C629 C 0.71438 0.58066 0.77758 0.0
C630 C 0.82618 0.62413 0.98754 0.0
N631 N 0.82097 0.65419 0.9689 0.0
C632 C 0.81184 0.62017 0.02087 0.0
C633 C 0.79204 0.64724 0.03513 0.0
C634 C 0.78684 0.67783 0.016 0.0
C635 C 0.80154 0.68084 0.98272 0.0
C636 C 0.89171 0.742 0.97158 0.0
C637 C 0.8558 0.73068 0.90981 0.0
C638 C 0.87753 0.70925 0.96374 0.0
N639 N 0.85982 0.70393 0.93316 0.0
C640 C 0.8696 0.76378 0.91678 0.0
C641 C 0.88767 0.7694 0.9479 0.0
C642 C 0.84446 0.65589 0.84451 0.0
C643 C 0.85753 0.51638 0.87004 0.0
C644 C 0.83269 0.56481 0.82235 0.0
C645 C 0.85566 0.53869 0.81119 0.0
C646 C 0.86812 0.51433 0.83525 0.0
N647 N 0.82229 0.56656 0.85649 0.0
C648 C 0.83453 0.54286 0.88026 0.0
Co649 Co 0.85059 0.31757 0.06719 0.0
Co650 Co 0.81048 0.37724 0.12175 0.0
O651 O 0.83743 0.36546 0.07953 0.0
C652 C 0.91389 0.36161 0.04555 0.0
O653 O 0.90021 0.39122 0.05622 0.0
C654 C 0.77184 0.41132 0.064 0.0
O655 O 0.77209 0.38108 0.04773 0.0
O656 O 0.77374 0.3416 0.11062 0.0
O657 O 0.80515 0.29945 0.0848 0.0
H658 H 0.7434 0.35158 0.23175 0.0
H659 H 0.85127 0.37482 0.01396 0.0
O660 O 0.89737 0.33282 0.04887 0.0
H661 H 0.77452 0.2836 0.96526 0.0
H662 H 0.90367 0.22336 0.99177 0.0
H663 H 0.84383 0.2491 0.10301 0.0
H664 H 0.80306 0.27513 0.0223 0.0
H665 H 0.88627 0.28374 0.0064 0.0
O666 O 0.78461 0.4138 0.09461 0.0
H667 H 0.77732 0.33672 0.17899 0.0
H668 H 0.78618 0.44444 0.15313 0.0
H669 H 0.86042 0.18831 0.08922 0.0
H670 H 0.82364 0.3842 0.95678 0.0
H671 H 0.89058 0.17511 0.03325 0.0
H672 H 0.78482 0.33843 0.93198 0.0
O673 O 0.87174 0.31079 0.1143 0.0
H674 H 0.89109 0.47809 0.09652 0.0
H675 H 0.85151 0.39405 0.18592 0.0
H676 H 0.89711 0.43711 0.20079 0.0
H677 H 0.91713 0.47962 0.15595 0.0
H678 H 0.84588 0.43429 0.08261 0.0
H679 H 0.7521 0.46045 0.20547 0.0
H680 H 0.73057 0.41385 0.24528 0.0
O681 O 0.83627 0.3414 0.14979 0.0
C682 C 0.77714 0.31048 0.09895 0.0
C683 C 0.75269 0.37213 0.21465 0.0
C684 C 0.75753 0.43323 0.19987 0.0
N685 N 0.78385 0.38968 0.16307 0.0
C686 C 0.77198 0.36388 0.18476 0.0
C687 C 0.77673 0.424 0.17021 0.0
C688 C 0.74548 0.40707 0.2222 0.0
C689 C 0.8351 0.35443 0.00324 0.0
N690 N 0.82948 0.32414 0.02137 0.0
C691 C 0.81922 0.36004 0.97086 0.0
C692 C 0.79735 0.33441 0.95701 0.0
C693 C 0.79155 0.30367 0.97568 0.0
C694 C 0.8078 0.29903 0.00802 0.0
C695 C 0.89048 0.22877 0.01621 0.0
C696 C 0.85675 0.24356 0.0785 0.0
C697 C 0.88065 0.26293 0.0247 0.0
N698 N 0.86381 0.26993 0.05544 0.0
C699 C 0.86617 0.20909 0.07088 0.0
C700 C 0.88312 0.20171 0.03949 0.0
C701 C 0.86078 0.31933 0.14469 0.0
C702 C 0.88257 0.45972 0.1163 0.0
C703 C 0.86029 0.41221 0.16614 0.0
C704 C 0.88601 0.43667 0.17478 0.0
C705 C 0.8972 0.46054 0.14963 0.0
N706 N 0.84607 0.41155 0.13338 0.0
C707 C 0.85689 0.43491 0.10861 0.0
H708 H 0.00162 0.24508 0.43195 0.0
H709 H 0.90696 0.22965 0.4916 0.0
H710 H 0.93949 0.23595 0.54582 0.0
H711 H 0.9956 0.23949 0.57648 0.0
H712 H 0.09044 0.25451 0.51708 0.0
H713 H 0.05696 0.25535 0.46296 0.0
C714 C 0.98801 0.24367 0.45678 0.0
C715 C 0.95197 0.23648 0.45755 0.0
C716 C 0.00692 0.24711 0.4881 0.0
C717 C 0.93475 0.23492 0.49007 0.0
C718 C 0.95333 0.23846 0.52123 0.0
C719 C 0.0089 0.24367 0.55179 0.0
C720 C 0.04552 0.24652 0.55093 0.0
C721 C 0.98956 0.24365 0.52059 0.0
C722 C 0.06227 0.252 0.51861 0.0
C723 C 0.04316 0.25234 0.48753 0.0
H724 H 0.0604 0.74995 0.47906 0.0
H725 H 0.96966 0.76616 0.41394 0.0
H726 H 0.93195 0.76369 0.46545 0.0
H727 H 0.9257 0.76421 0.52931 0.0
H728 H 0.01696 0.75048 0.59435 0.0
H729 H 0.05343 0.74433 0.5424 0.0
C730 C 0.03231 0.75239 0.47599 0.0
C731 C 0.01793 0.75863 0.44268 0.0
C732 C 0.01089 0.75168 0.50575 0.0
C733 C 0.98146 0.7614 0.43922 0.0
C734 C 0.95988 0.76019 0.46872 0.0
C735 C 0.95348 0.75926 0.53219 0.0
C736 C 0.96859 0.75818 0.56576 0.0
C737 C 0.97444 0.75644 0.50218 0.0
C738 C 0.0046 0.75155 0.56891 0.0
C739 C 0.02554 0.74819 0.53918 0.0
H740 H 0.47169 0.93626 0.24612 0.0
H741 H 0.40562 0.02787 0.24598 0.0
H742 H 0.45719 0.0655 0.2459 0.0
H743 H 0.52084 0.07228 0.23951 0.0
H744 H 0.58668 0.98047 0.23933 0.0
H745 H 0.53543 0.94321 0.24623 0.0
C746 C 0.46851 0.96446 0.24667 0.0
C747 C 0.43476 0.97916 0.24565 0.0
C748 C 0.49828 0.98599 0.24628 0.0
C749 C 0.43122 0.01577 0.24662 0.0
C750 C 0.46074 0.03737 0.24641 0.0
C751 C 0.52406 0.04416 0.24155 0.0
C752 C 0.55761 0.02925 0.23852 0.0
C753 C 0.49438 0.02275 0.24526 0.0
C754 C 0.56124 0.99274 0.24143 0.0
C755 C 0.53188 0.97133 0.24526 0.0
H756 H 0.52066 0.92304 0.76565 0.0
H757 H 0.59213 0.00834 0.74616 0.0
H758 H 0.54326 0.04925 0.74392 0.0
H759 H 0.48111 0.06173 0.75345 0.0
H760 H 0.40968 0.97679 0.77441 0.0
H761 H 0.45765 0.93487 0.76974 0.0
C762 C 0.52555 0.95047 0.76028 0.0
C763 C 0.56014 0.96257 0.75635 0.0
C764 C 0.49734 0.97403 0.75958 0.0
C765 C 0.56587 0.99824 0.74938 0.0
C766 C 0.53791 0.02174 0.74824 0.0
C767 C 0.47589 0.034 0.75652 0.0
C768 C 0.44184 0.02251 0.76456 0.0
C769 C 0.50366 0.01006 0.75424 0.0
C770 C 0.43559 0.98644 0.76824 0.0
C771 C 0.46307 0.96242 0.76572 0.0
H772 H 0.23657 0.43078 0.01465 0.0
H773 H 0.25392 0.48611 0.91782 0.0
H774 H 0.25905 0.54113 0.9495 0.0
H775 H 0.25196 0.57455 0.00377 0.0
H776 H 0.23308 0.51958 0.1005 0.0
H777 H 0.23578 0.46371 0.06989 0.0
C778 C 0.24218 0.45474 0.00054 0.0
C779 C 0.24448 0.45423 0.96386 0.0
C780 C 0.24459 0.48658 0.01889 0.0
C781 C 0.2517 0.48566 0.94604 0.0
C782 C 0.2546 0.51725 0.96413 0.0
C783 C 0.24916 0.55035 0.01831 0.0
C784 C 0.24201 0.55141 0.05435 0.0
C785 C 0.25009 0.51819 0.00044 0.0
C786 C 0.23841 0.51967 0.0727 0.0
C787 C 0.23982 0.48761 0.05519 0.0
H788 H 0.75419 0.56348 0.00361 0.0
H789 H 0.74526 0.50521 0.90737 0.0
H790 H 0.74577 0.45038 0.93992 0.0
H791 H 0.75536 0.41879 0.99501 0.0
H792 H 0.76626 0.4772 0.09099 0.0
H793 H 0.75816 0.53188 0.05927 0.0
C794 C 0.75164 0.53885 0.98978 0.0
C795 C 0.74997 0.53857 0.95306 0.0
C796 C 0.7527 0.50726 0.0086 0.0
C797 C 0.74676 0.50629 0.93562 0.0
C798 C 0.74719 0.47483 0.95421 0.0
C799 C 0.75534 0.44342 0.00911 0.0
C800 C 0.7617 0.44378 0.04531 0.0
C801 C 0.75118 0.47496 0.99062 0.0
C802 C 0.76164 0.47604 0.06309 0.0
C803 C 0.75706 0.50742 0.04496 0.0
H804 H 0.17518 0.10027 0.7046 0.0
H805 H 0.22965 0.17884 0.64443 0.0
H806 H 0.28421 0.16411 0.67359 0.0
H807 H 0.31531 0.13338 0.72064 0.0
H808 H 0.25949 0.0582 0.78349 0.0
H809 H 0.20721 0.0666 0.74848 0.0
C810 C 0.19904 0.11384 0.69745 0.0
C811 C 0.19807 0.14076 0.67247 0.0
C812 C 0.23032 0.10589 0.71494 0.0
C813 C 0.22939 0.15808 0.66366 0.0
C814 C 0.26074 0.14972 0.68037 0.0
C815 C 0.29194 0.11835 0.72622 0.0
C816 C 0.29136 0.0954 0.75488 0.0
C817 C 0.26136 0.12428 0.70669 0.0
C818 C 0.26072 0.07621 0.7618 0.0
C819 C 0.23065 0.08109 0.74182 0.0
H820 H 0.75267 0.93095 0.77657 0.0
H821 H 0.68619 0.86254 0.71605 0.0
H822 H 0.73558 0.848 0.67818 0.0
H823 H 0.7985 0.8502 0.66615 0.0
H824 H 0.86505 0.91762 0.72777 0.0
H825 H 0.81435 0.93726 0.76121 0.0
C826 C 0.74869 0.9132 0.75483 0.0
C827 C 0.71569 0.8976 0.74947 0.0
C828 C 0.77725 0.90458 0.73353 0.0
C829 C 0.7112 0.87491 0.72091 0.0
C830 C 0.73951 0.86644 0.69934 0.0
C831 C 0.802 0.86954 0.68659 0.0
C832 C 0.83577 0.8821 0.69461 0.0
C833 C 0.77282 0.88042 0.706 0.0
C834 C 0.83952 0.90737 0.72103 0.0
C835 C 0.81053 0.91854 0.74027 0.0
H836 H 0.29754 0.86726 0.28095 0.0
H837 H 0.25422 0.9661 0.24824 0.0
H838 H 0.20133 0.95484 0.28161 0.0
H839 H 0.16413 0.91357 0.31343 0.0
H840 H 0.20683 0.8141 0.34579 0.0
H841 H 0.26283 0.829 0.31947 0.0
C842 C 0.27695 0.88672 0.28193 0.0
C843 C 0.27967 0.91722 0.26163 0.0
C844 C 0.24601 0.87967 0.30061 0.0
C845 C 0.25264 0.94216 0.26316 0.0
C846 C 0.22223 0.93569 0.28217 0.0
C847 C 0.18577 0.8953 0.31514 0.0
C848 C 0.18089 0.86254 0.33106 0.0
C849 C 0.21804 0.90392 0.29982 0.0
C850 C 0.20953 0.83943 0.33339 0.0
C851 C 0.24171 0.84788 0.31832 0.0
H852 H 0.69099 0.12357 0.27243 0.0
H853 H 0.7481 0.04756 0.2114 0.0
H854 H 0.79982 0.05696 0.24696 0.0
H855 H 0.83083 0.09082 0.29145 0.0
H856 H 0.77463 0.16859 0.35115 0.0
H857 H 0.72095 0.15425 0.32022 0.0
C858 C 0.71452 0.10859 0.2673 0.0
C859 C 0.71552 0.08506 0.23908 0.0
C860 C 0.74469 0.1147 0.2874 0.0
C861 C 0.74642 0.06598 0.23282 0.0
C862 C 0.77621 0.07141 0.25309 0.0
C863 C 0.80678 0.10433 0.29808 0.0
C864 C 0.80704 0.13093 0.32344 0.0
C865 C 0.77594 0.09637 0.27983 0.0
C866 C 0.77546 0.1481 0.33162 0.0
C867 C 0.74461 0.13997 0.3139 0.0
H868 H 0.66417 0.20437 0.15568 0.0
H869 H 0.71749 0.13696 0.08221 0.0
H870 H 0.75248 0.18619 0.06214 0.0
H871 H 0.77157 0.2465 0.06882 0.0
H872 H 0.71992 0.31458 0.14262 0.0
H873 H 0.68024 0.2669 0.15871 0.0
C874 C 0.68315 0.20044 0.13499 0.0
C875 C 0.68829 0.1667 0.12079 0.0
C876 C 0.70355 0.22894 0.12364 0.0
C877 C 0.71294 0.1624 0.09383 0.0
C878 C 0.73307 0.19059 0.08232 0.0
C879 C 0.75135 0.2513 0.08808 0.0
C880 C 0.74904 0.28418 0.10465 0.0
C881 C 0.7291 0.22373 0.09754 0.0
C882 C 0.72239 0.28965 0.12938 0.0
C883 C 0.69982 0.26228 0.13877 0.0
H884 H 0.22673 0.75421 0.0786 0.0
H885 H 0.27744 0.6868 0.15358 0.0
H886 H 0.31299 0.73637 0.17371 0.0
H887 H 0.32591 0.80004 0.17289 0.0
H888 H 0.27229 0.86613 0.09844 0.0
H889 H 0.24152 0.81556 0.07538 0.0
C890 C 0.24581 0.74992 0.09908 0.0
C891 C 0.24917 0.71663 0.11461 0.0
C892 C 0.2654 0.77848 0.11091 0.0
C893 C 0.27429 0.71199 0.14102 0.0
C894 C 0.29444 0.74044 0.15271 0.0
C895 C 0.30771 0.80338 0.15143 0.0
C896 C 0.30136 0.83714 0.13767 0.0
C897 C 0.28963 0.77401 0.13832 0.0
C898 C 0.27769 0.84073 0.10979 0.0
C899 C 0.26003 0.81176 0.0965 0.0
H900 H 0.77047 0.73937 0.92081 0.0
H901 H 0.70435 0.6716 0.85929 0.0
H902 H 0.66761 0.72163 0.8437 0.0
H903 H 0.6577 0.78534 0.84321 0.0
H904 H 0.72454 0.85249 0.90481 0.0
H905 H 0.75742 0.8017 0.92478 0.0
C906 C 0.74775 0.73525 0.90439 0.0
C907 C 0.7405 0.70165 0.89098 0.0
C908 C 0.72701 0.76412 0.89527 0.0
C909 C 0.7107 0.69707 0.86996 0.0
C910 C 0.68976 0.72574 0.86087 0.0
C911 C 0.67919 0.78892 0.86132 0.0
C912 C 0.68874 0.82293 0.87215 0.0
C913 C 0.69821 0.75953 0.87267 0.0
C914 C 0.71656 0.82682 0.89587 0.0
C915 C 0.73549 0.79774 0.90728 0.0
H916 H 0.31137 0.18019 0.90735 0.0
H917 H 0.3488 0.21831 0.80794 0.0
H918 H 0.32092 0.2747 0.81856 0.0
H919 H 0.28017 0.31103 0.85324 0.0
H920 H 0.2429 0.27213 0.95213 0.0
H921 H 0.27687 0.21885 0.94489 0.0
C922 C 0.31382 0.2009 0.88813 0.0
C923 C 0.33176 0.19461 0.85667 0.0
C924 C 0.29763 0.23335 0.8943 0.0
C925 C 0.33495 0.22211 0.83232 0.0
C926 C 0.31896 0.25449 0.83834 0.0
C927 C 0.28024 0.2913 0.87356 0.0
C928 C 0.2585 0.29536 0.90294 0.0
C929 C 0.29947 0.26016 0.86886 0.0
C930 C 0.25882 0.26942 0.92899 0.0
C931 C 0.27826 0.23884 0.92484 0.0
H932 H 0.07515 0.78657 0.24725 0.0
H933 H 0.11728 0.71119 0.32006 0.0
H934 H 0.13191 0.6723 0.2715 0.0
H935 H 0.13764 0.66246 0.20853 0.0
H936 H 0.09461 0.73739 0.1358 0.0
H937 H 0.07481 0.77357 0.1846 0.0
C938 C 0.08698 0.7614 0.25273 0.0
C939 C 0.09535 0.75204 0.2874 0.0
C940 C 0.09526 0.73919 0.22473 0.0
C941 C 0.11061 0.7192 0.29374 0.0
C942 C 0.11909 0.69698 0.26595 0.0
C943 C 0.12343 0.6864 0.20319 0.0
C944 C 0.11801 0.69731 0.16838 0.0
C945 C 0.11225 0.7071 0.23133 0.0
C946 C 0.09928 0.72833 0.1622 0.0
C947 C 0.0881 0.74914 0.19013 0.0
H948 H 0.13698 0.28361 0.69125 0.0
H949 H 0.06958 0.21002 0.74408 0.0
H950 H 0.07748 0.24125 0.79882 0.0
H951 H 0.10805 0.2859 0.83326 0.0
H952 H 0.17786 0.35773 0.78098 0.0
H953 H 0.16446 0.33082 0.72503 0.0
C954 C 0.1235 0.27476 0.71455 0.0
C955 C 0.10284 0.24435 0.71333 0.0
C956 C 0.12895 0.2923 0.74645 0.0
C957 C 0.08572 0.23327 0.74403 0.0
C958 C 0.09035 0.25103 0.77555 0.0
C959 C 0.12001 0.296 0.80962 0.0
C960 C 0.14406 0.32377 0.81165 0.0
C961 C 0.11265 0.28002 0.77731 0.0
C962 C 0.15931 0.33635 0.78052 0.0
C963 C 0.1517 0.32094 0.74833 0.0
H964 H 0.89581 0.70521 0.83913 0.0
H965 H 0.82289 0.64528 0.77712 0.0
H966 H 0.8401 0.67753 0.72501 0.0
H967 H 0.87228 0.72615 0.69771 0.0
H968 H 0.94312 0.78745 0.76079 0.0
H969 H 0.93056 0.75107 0.81122 0.0
C970 C 0.88397 0.69882 0.81418 0.0
C971 C 0.85793 0.67292 0.81232 0.0
C972 C 0.89352 0.71788 0.78425 0.0
C973 C 0.84292 0.66517 0.77958 0.0
C974 C 0.85269 0.68366 0.74964 0.0
C975 C 0.88539 0.73121 0.72232 0.0
C976 C 0.90856 0.75966 0.72522 0.0
C977 C 0.87746 0.71058 0.75176 0.0
C978 C 0.92514 0.76584 0.75753 0.0
C979 C 0.91789 0.74508 0.7866 0.0
H980 H 0.92037 0.21602 0.2577 0.0
H981 H 0.86088 0.28301 0.32644 0.0
H982 H 0.84718 0.32148 0.27714 0.0
H983 H 0.8475 0.33259 0.21369 0.0
H984 H 0.90662 0.26436 0.14562 0.0
H985 H 0.92518 0.22992 0.19585 0.0
C986 C 0.90484 0.23929 0.26223 0.0
C987 C 0.89143 0.24633 0.29584 0.0
C988 C 0.89672 0.26091 0.2338 0.0
C989 C 0.87155 0.27684 0.30096 0.0
C990 C 0.86353 0.29874 0.27269 0.0
C991 C 0.86479 0.31044 0.20978 0.0
C992 C 0.87533 0.30099 0.17568 0.0
C993 C 0.87523 0.29049 0.23884 0.0
C994 C 0.89794 0.27229 0.17137 0.0
C995 C 0.90853 0.25248 0.20013 0.0
H996 H 0.02245 0.06811 0.6144 0.0
H997 H 0.11354 0.00556 0.63777 0.0
H998 H 0.07822 0.95253 0.63532 0.0
H999 H 0.02068 0.92497 0.63467 0.0
H1000 H 0.92874 0.98688 0.61367 0.0
H1001 H 0.96529 0.03911 0.6066 0.0
C1002 C 0.03478 0.04282 0.61809 0.0
C1003 C 0.0706 0.04088 0.62668 0.0
C1004 C 0.01406 0.01238 0.61758 0.0
C1005 C 0.08604 0.00786 0.63143 0.0
C1006 C 0.06581 0.97751 0.63019 0.0
C1007 C 0.0086 0.94981 0.62809 0.0
C1008 C 0.97198 0.95219 0.62529 0.0
C1009 C 0.02964 0.97963 0.62464 0.0
C1010 C 0.95684 0.98439 0.61613 0.0
C1011 C 0.97773 0.01427 0.61226 0.0
H1012 H 0.99027 0.05826 0.42488 0.0
H1013 H 0.92024 0.02858 0.34167 0.0
H1014 H 0.95091 0.9731 0.3348 0.0
H1015 H 0.99991 0.93552 0.34871 0.0
H1016 H 0.07307 0.96486 0.42938 0.0
H1017 H 0.03883 0.01793 0.44116 0.0
C1018 C 0.98136 0.0392 0.40588 0.0
C1019 C 0.95292 0.04728 0.38393 0.0
C1020 C 0.99997 0.00765 0.40124 0.0
C1021 C 0.94198 0.0228 0.35888 0.0
C1022 C 0.95961 0.99118 0.35482 0.0
C1023 C 0.00855 0.95339 0.36896 0.0
C1024 C 0.03938 0.9464 0.38778 0.0
C1025 C 0.9891 0.98378 0.37521 0.0
C1026 C 0.04962 0.96971 0.4143 0.0
C1027 C 0.03002 1.00005 0.42103 0.0
H1028 H 0.62311 0.0041 0.9215 0.0
H1029 H 0.61393 0.90596 0.97642 0.0
H1030 H 0.607 0.93737 0.03177 0.0
H1031 H 0.61184 0.99228 0.06489 0.0
H1032 H 0.62044 0.09045 0.00994 0.0
H1033 H 0.61858 0.05949 0.95396 0.0
C1034 C 0.61901 0.98963 0.94555 0.0
C1035 C 0.61965 0.95282 0.94513 0.0
C1036 C 0.6151 0.00785 0.97713 0.0
C1037 C 0.61367 0.93431 0.97622 0.0
C1038 C 0.60991 0.95225 0.00783 0.0
C1039 C 0.61257 0.00692 0.0406 0.0
C1040 C 0.61679 0.0435 0.0414 0.0
C1041 C 0.6118 0.98894 0.00868 0.0
C1042 C 0.6172 0.06229 0.00991 0.0
C1043 C 0.61645 0.04457 0.97795 0.0
H1044 H 0.41755 0.98387 0.05608 0.0
H1045 H 0.30449 0.98578 0.05851 0.0
H1046 H 0.30337 0.02258 0.00721 0.0
H1047 H 0.33329 0.05426 0.96205 0.0
H1048 H 0.44566 0.04962 0.95344 0.0
H1049 H 0.44827 0.01493 0.00747 0.0
C1050 C 0.39274 0.9921 0.04515 0.0
C1051 C 0.36119 0.98221 0.06154 0.0
C1052 C 0.39209 0.01325 0.0149 0.0
C1053 C 0.32924 0.99318 0.04694 0.0
C1054 C 0.32848 0.01435 0.0175 0.0
C1055 C 0.3585 0.04563 0.97163 0.0
C1056 C 0.38918 0.05432 0.9534 0.0
C1057 C 0.35963 0.02466 0.00146 0.0
C1058 C 0.42157 0.0434 0.96697 0.0
C1059 C 0.42303 0.02328 0.99768 0.0
H1060 H 0.98549 0.64894 0.91833 0.0
H1061 H 0.91155 0.61482 0.9964 0.0
H1062 H 0.95873 0.6086 0.03892 0.0
H1063 H 0.02032 0.61919 0.05577 0.0
H1064 H 0.09349 0.65344 0.97684 0.0
H1065 H 0.04749 0.65298 0.93316 0.0
C1066 C 0.97973 0.63963 0.94448 0.0
C1067 C 0.94497 0.63277 0.95416 0.0
C1068 C 0.0069 0.63646 0.96895 0.0
C1069 C 0.93807 0.62038 0.98813 0.0
C1070 C 0.96504 0.617 0.01261 0.0
C1071 C 0.02628 0.62601 0.02892 0.0
C1072 C 0.06024 0.63696 0.01992 0.0
C1073 C 0.99947 0.62592 0.00362 0.0
C1074 C 0.0675 0.64547 0.98483 0.0
C1075 C 0.04118 0.64521 0.95967 0.0
H1076 H 0.05284 0.32694 0.96526 0.0
H1077 H 0.04845 0.43697 0.9405 0.0
H1078 H 0.99435 0.4425 0.97468 0.0
H1079 H 0.94842 0.4155 0.01234 0.0
H1080 H 0.95551 0.30521 0.0362 0.0
H1081 H 0.00889 0.30069 0.00223 0.0
C1082 C 0.0403 0.35228 0.96729 0.0
C1083 C 0.05492 0.38151 0.9504 0.0
C1084 C 0.00976 0.3553 0.98721 0.0
C1085 C 0.03777 0.41396 0.95312 0.0
C1086 C 0.00694 0.41717 0.97284 0.0
C1087 C 0.96189 0.39062 0.01035 0.0
C1088 C 0.94788 0.36076 0.02689 0.0
C1089 C 0.99277 0.38799 0.99025 0.0
C1090 C 0.96551 0.32861 0.02372 0.0
C1091 C 0.99608 0.32592 0.00421 0.0
loop_
_geom_bond_atom_site_label_1
_geom_bond_atom_site_label_2
_geom_bond_distance
_geom_bond_site_symmetry_2
_ccdc_geom_bond_type
Co0 O2 2.143 . S
Co0 O8 2.074 . S
Co0 O11 2.093 . S
Co0 O24 2.097 . S
Co0 N41 2.151 . S
Co0 N49 2.214 . S
Co1 O2 2.160 . S
Co1 O7 2.058 . S
Co1 O17 2.057 . S
Co1 O32 2.037 . S
Co1 N36 2.145 . S
Co1 N57 2.257 . S
O2 Co0 2.143 . S
O2 Co1 2.160 . S
C3 O4 1.278 . S
C3 O11 1.224 . S
O4 C3 1.278 . S
C5 O6 1.245 . S
C5 O17 1.232 . S
O6 C5 1.245 . S
O7 Co1 2.058 . S
O7 C33 1.269 . S
O8 Co0 2.074 . S
O8 C33 1.257 . S
H9 C34 0.930 . S
H10 C40 0.930 . S
O11 Co0 2.093 . S
O11 C3 1.224 . S
H12 C44 0.929 . S
H13 C46 0.930 . S
H14 C47 0.930 . S
H15 C45 0.929 . S
H16 C48 0.928 . S
O17 Co1 2.057 . S
O17 C5 1.232 . S
H18 C37 0.929 . S
H19 C38 0.929 . S
H20 C50 0.931 . S
H21 C42 0.929 . S
H22 C51 0.930 . S
H23 C43 0.931 . S
O24 Co0 2.097 . S
O24 C52 1.214 . S
H25 C53 0.929 . S
H26 C54 0.929 . S
H27 C55 0.930 . S
H28 C56 0.929 . S
H29 C58 0.930 . S
H30 C35 0.930 . S
H31 C39 0.930 . S
O32 Co1 2.037 . S
O32 C52 1.234 . S
C33 O7 1.269 . S
C33 O8 1.257 . S
C34 H9 0.930 . S
C34 C37 1.388 . S
C34 C39 1.418 . S
C35 H30 0.930 . S
C35 C38 1.404 . S
C35 C39 1.353 . S
N36 Co1 2.145 . S
N36 C37 1.397 . S
N36 C38 1.334 . S
C37 H18 0.929 . S
C37 C34 1.388 . S
C37 N36 1.397 . S
C38 H19 0.929 . S
C38 C35 1.404 . S
C38 N36 1.334 . S
C39 H31 0.930 . S
C39 C34 1.418 . S
C39 C35 1.353 . S
C40 H10 0.930 . S
C40 N41 1.330 1_655 S
C40 C42 1.446 . S
N41 Co0 2.151 . S
N41 C40 1.330 1_455 S
N41 C45 1.418 . S
C42 H21 0.929 . S
C42 C40 1.446 . S
C42 C43 1.332 . S
C43 H23 0.931 . S
C43 C42 1.332 . S
C43 C44 1.267 . S
C44 H12 0.929 . S
C44 C43 1.267 . S
C44 C45 1.251 1_655 S
C45 H15 0.929 . S
C45 N41 1.418 . S
C45 C44 1.251 1_455 S
C46 H13 0.930 . S
C46 C48 1.406 . S
C46 C51 1.261 . S
C47 H14 0.930 . S
C47 N49 1.325 . S
C47 C50 1.357 . S
C48 H16 0.928 . S
C48 C46 1.406 . S
C48 N49 1.261 . S
N49 Co0 2.214 . S
N49 C47 1.325 . S
N49 C48 1.261 . S
C50 H20 0.931 . S
C50 C47 1.357 . S
C50 C51 1.312 . S
C51 H22 0.930 . S
C51 C46 1.261 . S
C51 C50 1.312 . S
C52 O24 1.214 . S
C52 O32 1.234 . S
C53 H25 0.929 . S
C53 C56 1.391 . S
C53 C58 1.391 . S
C54 H26 0.929 . S
C54 C55 1.390 . S
C54 N57 1.391 . S
C55 H27 0.930 . S
C55 C54 1.390 . S
C55 C56 1.392 . S
C56 H28 0.929 . S
C56 C53 1.391 . S
C56 C55 1.392 . S
N57 Co1 2.257 . S
N57 C54 1.391 . S
N57 C58 1.388 . S
C58 H29 0.930 . S
C58 C53 1.391 . S
C58 N57 1.388 . S
Co59 O61 2.143 . S
Co59 O67 2.074 . S
Co59 O70 2.093 . S
Co59 O83 2.097 . S
Co59 N100 2.151 . S
Co59 N108 2.214 . S
Co60 O61 2.160 . S
Co60 O66 2.058 . S
Co60 O76 2.057 . S
Co60 O91 2.037 . S
Co60 N95 2.145 . S
Co60 N116 2.257 . S
O61 Co59 2.143 . S
O61 Co60 2.160 . S
C62 O63 1.278 . S
C62 O70 1.224 . S
O63 C62 1.278 . S
C64 O65 1.245 . S
C64 O76 1.232 . S
O65 C64 1.245 . S
O66 Co60 2.058 . S
O66 C92 1.269 . S
O67 Co59 2.074 . S
O67 C92 1.257 . S
H68 C93 0.930 . S
H69 C99 0.930 . S
O70 Co59 2.093 . S
O70 C62 1.224 . S
H71 C103 0.929 . S
H72 C105 0.930 . S
H73 C106 0.930 . S
H74 C104 0.929 . S
H75 C107 0.928 . S
O76 Co60 2.057 . S
O76 C64 1.232 . S
H77 C96 0.929 . S
H78 C97 0.929 . S
H79 C109 0.931 . S
H80 C101 0.929 . S
H81 C110 0.930 . S
H82 C102 0.931 . S
O83 Co59 2.097 . S
O83 C111 1.214 . S
H84 C112 0.929 . S
H85 C113 0.929 . S
H86 C114 0.930 . S
H87 C115 0.929 . S
H88 C117 0.930 . S
H89 C94 0.930 . S
H90 C98 0.930 . S
O91 Co60 2.037 . S
O91 C111 1.234 . S
C92 O66 1.269 . S
C92 O67 1.257 . S
C93 H68 0.930 . S
C93 C96 1.388 . S
C93 C98 1.418 . S
C94 H89 0.930 . S
C94 C97 1.404 . S
C94 C98 1.353 . S
N95 Co60 2.145 . S
N95 C96 1.397 . S
N95 C97 1.334 . S
C96 H77 0.929 . S
C96 C93 1.388 . S
C96 N95 1.397 . S
C97 H78 0.929 . S
C97 C94 1.404 . S
C97 N95 1.334 . S
C98 H90 0.930 . S
C98 C93 1.418 . S
C98 C94 1.353 . S
C99 H69 0.930 . S
C99 N100 1.330 1_455 S
C99 C101 1.446 . S
N100 Co59 2.151 . S
N100 C99 1.330 1_655 S
N100 C104 1.418 . S
C101 H80 0.929 . S
C101 C99 1.446 . S
C101 C102 1.332 . S
C102 H82 0.931 . S
C102 C101 1.332 . S
C102 C103 1.267 . S
C103 H71 0.929 . S
C103 C102 1.267 . S
C103 C104 1.251 1_455 S
C104 H74 0.929 . S
C104 N100 1.418 . S
C104 C103 1.251 1_655 S
C105 H72 0.930 . S
C105 C107 1.406 . S
C105 C110 1.261 . S
C106 H73 0.930 . S
C106 N108 1.325 . S
C106 C109 1.357 . S
C107 H75 0.928 . S
C107 C105 1.406 . S
C107 N108 1.261 . S
N108 Co59 2.214 . S
N108 C106 1.325 . S
N108 C107 1.261 . S
C109 H79 0.931 . S
C109 C106 1.357 . S
C109 C110 1.312 . S
C110 H81 0.930 . S
C110 C105 1.261 . S
C110 C109 1.312 . S
C111 O83 1.214 . S
C111 O91 1.234 . S
C112 H84 0.929 . S
C112 C115 1.391 . S
C112 C117 1.391 . S
C113 H85 0.929 . S
C113 C114 1.390 . S
C113 N116 1.391 . S
C114 H86 0.930 . S
C114 C113 1.390 . S
C114 C115 1.392 . S
C115 H87 0.929 . S
C115 C112 1.391 . S
C115 C114 1.392 . S
N116 Co60 2.257 . S
N116 C113 1.391 . S
N116 C117 1.388 . S
C117 H88 0.930 . S
C117 C112 1.391 . S
C117 N116 1.388 . S
Co118 O120 2.143 . S
Co118 O126 2.074 . S
Co118 O129 2.093 . S
Co118 O142 2.097 . S
Co118 N159 2.151 . S
Co118 N167 2.214 . S
Co119 O120 2.160 . S
Co119 O125 2.058 . S
Co119 O135 2.057 . S
Co119 O150 2.037 . S
Co119 N154 2.145 . S
Co119 N175 2.257 . S
O120 Co118 2.143 . S
O120 Co119 2.160 . S
C121 O122 1.278 . S
C121 O129 1.224 . S
O122 C121 1.278 . S
C123 O124 1.245 . S
C123 O135 1.232 . S
O124 C123 1.245 . S
O125 Co119 2.058 . S
O125 C151 1.269 . S
O126 Co118 2.074 . S
O126 C151 1.257 . S
H127 C152 0.930 . S
H128 C158 0.930 . S
O129 Co118 2.093 . S
O129 C121 1.224 . S
H130 C162 0.929 . S
H131 C164 0.930 . S
H132 C165 0.930 . S
H133 C163 0.929 . S
H134 C166 0.928 . S
O135 Co119 2.057 . S
O135 C123 1.232 . S
H136 C155 0.929 . S
H137 C156 0.929 . S
H138 C168 0.931 . S
H139 C160 0.929 . S
H140 C169 0.930 . S
H141 C161 0.931 . S
O142 Co118 2.097 . S
O142 C170 1.214 . S
H143 C171 0.929 . S
H144 C172 0.929 . S
H145 C173 0.930 . S
H146 C174 0.929 . S
H147 C176 0.930 . S
H148 C153 0.930 . S
H149 C157 0.930 . S
O150 Co119 2.037 . S
O150 C170 1.234 . S
C151 O125 1.269 . S
C151 O126 1.257 . S
C152 H127 0.930 . S
C152 C155 1.388 . S
C152 C157 1.418 . S
C153 H148 0.930 . S
C153 C156 1.404 . S
C153 C157 1.353 . S
N154 Co119 2.145 . S
N154 C155 1.397 . S
N154 C156 1.334 . S
C155 H136 0.929 . S
C155 C152 1.388 . S
C155 N154 1.397 . S
C156 H137 0.929 . S
C156 C153 1.404 . S
C156 N154 1.334 . S
C157 H149 0.930 . S
C157 C152 1.418 . S
C157 C153 1.353 . S
C158 H128 0.930 . S
C158 N159 1.330 1_655 S
C158 C160 1.446 . S
N159 Co118 2.151 . S
N159 C158 1.330 1_455 S
N159 C163 1.418 . S
C160 H139 0.929 . S
C160 C158 1.446 . S
C160 C161 1.332 . S
C161 H141 0.931 . S
C161 C160 1.332 . S
C161 C162 1.267 . S
C162 H130 0.929 . S
C162 C161 1.267 . S
C162 C163 1.251 1_655 S
C163 H133 0.929 . S
C163 N159 1.418 . S
C163 C162 1.251 1_455 S
C164 H131 0.930 . S
C164 C166 1.406 . S
C164 C169 1.261 . S
C165 H132 0.930 . S
C165 N167 1.325 . S
C165 C168 1.357 . S
C166 H134 0.928 . S
C166 C164 1.406 . S
C166 N167 1.261 . S
N167 Co118 2.214 . S
N167 C165 1.325 . S
N167 C166 1.261 . S
C168 H138 0.931 . S
C168 C165 1.357 . S
C168 C169 1.312 . S
C169 H140 0.930 . S
C169 C164 1.261 . S
C169 C168 1.312 . S
C170 O142 1.214 . S
C170 O150 1.234 . S
C171 H143 0.929 . S
C171 C174 1.391 . S
C171 C176 1.391 . S
C172 H144 0.929 . S
C172 C173 1.390 . S
C172 N175 1.391 . S
C173 H145 0.930 . S
C173 C172 1.390 . S
C173 C174 1.392 . S
C174 H146 0.929 . S
C174 C171 1.391 . S
C174 C173 1.392 . S
N175 Co119 2.257 . S
N175 C172 1.391 . S
N175 C176 1.388 . S
C176 H147 0.930 . S
C176 C171 1.391 . S
C176 N175 1.388 . S
Co177 O179 2.143 . S
Co177 O185 2.074 . S
Co177 O188 2.093 . S
Co177 O201 2.097 . S
Co177 N218 2.151 . S
Co177 N226 2.214 . S
Co178 O179 2.160 . S
Co178 O184 2.058 . S
Co178 O194 2.057 . S
Co178 O209 2.037 . S
Co178 N213 2.145 . S
Co178 N234 2.257 . S
O179 Co177 2.143 . S
O179 Co178 2.160 . S
C180 O181 1.278 . S
C180 O188 1.224 . S
O181 C180 1.278 . S
C182 O183 1.245 . S
C182 O194 1.232 . S
O183 C182 1.245 . S
O184 Co178 2.058 . S
O184 C210 1.269 . S
O185 Co177 2.074 . S
O185 C210 1.257 . S
H186 C211 0.930 . S
H187 C217 0.930 . S
O188 Co177 2.093 . S
O188 C180 1.224 . S
H189 C221 0.929 . S
H190 C223 0.930 . S
H191 C224 0.930 . S
H192 C222 0.929 . S
H193 C225 0.928 . S
O194 Co178 2.057 . S
O194 C182 1.232 . S
H195 C214 0.929 . S
H196 C215 0.929 . S
H197 C227 0.931 . S
H198 C219 0.929 . S
H199 C228 0.930 . S
H200 C220 0.931 . S
O201 Co177 2.097 . S
O201 C229 1.214 . S
H202 C230 0.929 . S
H203 C231 0.929 . S
H204 C232 0.930 . S
H205 C233 0.929 . S
H206 C235 0.930 . S
H207 C212 0.930 . S
H208 C216 0.930 . S
O209 Co178 2.037 . S
O209 C229 1.234 . S
C210 O184 1.269 . S
C210 O185 1.257 . S
C211 H186 0.930 . S
C211 C214 1.388 . S
C211 C216 1.418 . S
C212 H207 0.930 . S
C212 C215 1.404 . S
C212 C216 1.353 . S
N213 Co178 2.145 . S
N213 C214 1.397 . S
N213 C215 1.334 . S
C214 H195 0.929 . S
C214 C211 1.388 . S
C214 N213 1.397 . S
C215 H196 0.929 . S
C215 C212 1.404 . S
C215 N213 1.334 . S
C216 H208 0.930 . S
C216 C211 1.418 . S
C216 C212 1.353 . S
C217 H187 0.930 . S
C217 N218 1.330 1_455 S
C217 C219 1.446 . S
N218 Co177 2.151 . S
N218 C217 1.330 1_655 S
N218 C222 1.418 . S
C219 H198 0.929 . S
C219 C217 1.446 . S
C219 C220 1.332 . S
C220 H200 0.931 . S
C220 C219 1.332 . S
C220 C221 1.267 . S
C221 H189 0.929 . S
C221 C220 1.267 . S
C221 C222 1.251 1_455 S
C222 H192 0.929 . S
C222 N218 1.418 . S
C222 C221 1.251 1_655 S
C223 H190 0.930 . S
C223 C225 1.406 . S
C223 C228 1.261 . S
C224 H191 0.930 . S
C224 N226 1.325 . S
C224 C227 1.357 . S
C225 H193 0.928 . S
C225 C223 1.406 . S
C225 N226 1.261 . S
N226 Co177 2.214 . S
N226 C224 1.325 . S
N226 C225 1.261 . S
C227 H197 0.931 . S
C227 C224 1.357 . S
C227 C228 1.312 . S
C228 H199 0.930 . S
C228 C223 1.261 . S
C228 C227 1.312 . S
C229 O201 1.214 . S
C229 O209 1.234 . S
C230 H202 0.929 . S
C230 C233 1.391 . S
C230 C235 1.391 . S
C231 H203 0.929 . S
C231 C232 1.390 . S
C231 N234 1.391 . S
C232 H204 0.930 . S
C232 C231 1.390 . S
C232 C233 1.392 . S
C233 H205 0.929 . S
C233 C230 1.391 . S
C233 C232 1.392 . S
N234 Co178 2.257 . S
N234 C231 1.391 . S
N234 C235 1.388 . S
C235 H206 0.930 . S
C235 C230 1.391 . S
C235 N234 1.388 . S
Co236 O238 2.143 . S
Co236 O244 2.074 . S
Co236 O247 2.093 . S
Co236 O260 2.097 . S
Co236 N277 2.151 . S
Co236 N285 2.214 . S
Co237 O238 2.160 . S
Co237 O243 2.058 . S
Co237 O253 2.057 . S
Co237 O268 2.037 . S
Co237 N272 2.145 . S
Co237 N293 2.257 . S
O238 Co236 2.143 . S
O238 Co237 2.160 . S
C239 O240 1.278 . S
C239 O247 1.224 . S
O240 C239 1.278 . S
C241 O242 1.245 . S
C241 O253 1.232 . S
O242 C241 1.245 . S
O243 Co237 2.058 . S
O243 C269 1.269 . S
O244 Co236 2.074 . S
O244 C269 1.257 . S
H245 C270 0.930 . S
H246 C276 0.930 . S
O247 Co236 2.093 . S
O247 C239 1.224 . S
H248 C280 0.929 . S
H249 C282 0.930 . S
H250 C283 0.930 . S
H251 C281 0.929 . S
H252 C284 0.928 . S
O253 Co237 2.057 . S
O253 C241 1.232 . S
H254 C273 0.929 . S
H255 C274 0.929 . S
H256 C286 0.931 . S
H257 C278 0.929 . S
H258 C287 0.930 . S
H259 C279 0.931 . S
O260 Co236 2.097 . S
O260 C288 1.214 . S
H261 C289 0.929 . S
H262 C290 0.929 . S
H263 C291 0.930 . S
H264 C292 0.929 . S
H265 C294 0.930 . S
H266 C271 0.930 . S
H267 C275 0.930 . S
O268 Co237 2.037 . S
O268 C288 1.234 . S
C269 O243 1.269 . S
C269 O244 1.257 . S
C270 H245 0.930 . S
C270 C273 1.388 . S
C270 C275 1.418 . S
C271 H266 0.930 . S
C271 C274 1.404 . S
C271 C275 1.353 . S
N272 Co237 2.145 . S
N272 C273 1.397 . S
N272 C274 1.334 . S
C273 H254 0.929 . S
C273 C270 1.388 . S
C273 N272 1.397 . S
C274 H255 0.929 . S
C274 C271 1.404 . S
C274 N272 1.334 . S
C275 H267 0.930 . S
C275 C270 1.418 . S
C275 C271 1.353 . S
C276 H246 0.930 . S
C276 N277 1.330 1_565 S
C276 C278 1.446 . S
N277 Co236 2.151 . S
N277 C276 1.330 1_545 S
N277 C281 1.418 . S
C278 H257 0.929 . S
C278 C276 1.446 . S
C278 C279 1.332 . S
C279 H259 0.931 . S
C279 C278 1.332 . S
C279 C280 1.267 . S
C280 H248 0.929 . S
C280 C279 1.267 . S
C280 C281 1.251 1_565 S
C281 H251 0.929 . S
C281 N277 1.418 . S
C281 C280 1.251 1_545 S
C282 H249 0.930 . S
C282 C284 1.406 . S
C282 C287 1.261 . S
C283 H250 0.930 . S
C283 N285 1.325 . S
C283 C286 1.357 . S
C284 H252 0.928 . S
C284 C282 1.406 . S
C284 N285 1.261 . S
N285 Co236 2.214 . S
N285 C283 1.325 . S
N285 C284 1.261 . S
C286 H256 0.931 . S
C286 C283 1.357 . S
C286 C287 1.312 . S
C287 H258 0.930 . S
C287 C282 1.261 . S
C287 C286 1.312 . S
C288 O260 1.214 . S
C288 O268 1.234 . S
C289 H261 0.929 . S
C289 C292 1.391 . S
C289 C294 1.391 . S
C290 H262 0.929 . S
C290 C291 1.390 . S
C290 N293 1.391 . S
C291 H263 0.930 . S
C291 C290 1.390 . S
C291 C292 1.392 . S
C292 H264 0.929 . S
C292 C289 1.391 . S
C292 C291 1.392 . S
N293 Co237 2.257 . S
N293 C290 1.391 . S
N293 C294 1.388 . S
C294 H265 0.930 . S
C294 C289 1.391 . S
C294 N293 1.388 . S
Co295 O297 2.143 . S
Co295 O303 2.074 . S
Co295 O306 2.093 . S
Co295 O319 2.097 . S
Co295 N336 2.151 . S
Co295 N344 2.214 . S
Co296 O297 2.160 . S
Co296 O302 2.058 . S
Co296 O312 2.057 . S
Co296 O327 2.037 . S
Co296 N331 2.145 . S
Co296 N352 2.257 . S
O297 Co295 2.143 . S
O297 Co296 2.160 . S
C298 O299 1.278 . S
C298 O306 1.224 . S
O299 C298 1.278 . S
C300 O301 1.245 . S
C300 O312 1.232 . S
O301 C300 1.245 . S
O302 Co296 2.058 . S
O302 C328 1.269 . S
O303 Co295 2.074 . S
O303 C328 1.257 . S
H304 C329 0.930 . S
H305 C335 0.930 . S
O306 Co295 2.093 . S
O306 C298 1.224 . S
H307 C339 0.929 . S
H308 C341 0.930 . S
H309 C342 0.930 . S
H310 C340 0.929 . S
H311 C343 0.928 . S
O312 Co296 2.057 . S
O312 C300 1.232 . S
H313 C332 0.929 . S
H314 C333 0.929 . S
H315 C345 0.931 . S
H316 C337 0.929 . S
H317 C346 0.930 . S
H318 C338 0.931 . S
O319 Co295 2.097 . S
O319 C347 1.214 . S
H320 C348 0.929 . S
H321 C349 0.929 . S
H322 C350 0.930 . S
H323 C351 0.929 . S
H324 C353 0.930 . S
H325 C330 0.930 . S
H326 C334 0.930 . S
O327 Co296 2.037 . S
O327 C347 1.234 . S
C328 O302 1.269 . S
C328 O303 1.257 . S
C329 H304 0.930 . S
C329 C332 1.388 . S
C329 C334 1.418 . S
C330 H325 0.930 . S
C330 C333 1.404 . S
C330 C334 1.353 . S
N331 Co296 2.145 . S
N331 C332 1.397 . S
N331 C333 1.334 . S
C332 H313 0.929 . S
C332 C329 1.388 . S
C332 N331 1.397 . S
C333 H314 0.929 . S
C333 C330 1.404 . S
C333 N331 1.334 . S
C334 H326 0.930 . S
C334 C329 1.418 . S
C334 C330 1.353 . S
C335 H305 0.930 . S
C335 N336 1.330 1_545 S
C335 C337 1.446 . S
N336 Co295 2.151 . S
N336 C335 1.330 1_565 S
N336 C340 1.418 . S
C337 H316 0.929 . S
C337 C335 1.446 . S
C337 C338 1.332 . S
C338 H318 0.931 . S
C338 C337 1.332 . S
C338 C339 1.267 . S
C339 H307 0.929 . S
C339 C338 1.267 . S
C339 C340 1.251 1_545 S
C340 H310 0.929 . S
C340 N336 1.418 . S
C340 C339 1.251 1_565 S
C341 H308 0.930 . S
C341 C343 1.406 . S
C341 C346 1.261 . S
C342 H309 0.930 . S
C342 N344 1.325 . S
C342 C345 1.357 . S
C343 H311 0.928 . S
C343 C341 1.406 . S
C343 N344 1.261 . S
N344 Co295 2.214 . S
N344 C342 1.325 . S
N344 C343 1.261 . S
C345 H315 0.931 . S
C345 C342 1.357 . S
C345 C346 1.312 . S
C346 H317 0.930 . S
C346 C341 1.261 . S
C346 C345 1.312 . S
C347 O319 1.214 . S
C347 O327 1.234 . S
C348 H320 0.929 . S
C348 C351 1.391 . S
C348 C353 1.391 . S
C349 H321 0.929 . S
C349 C350 1.390 . S
C349 N352 1.391 . S
C350 H322 0.930 . S
C350 C349 1.390 . S
C350 C351 1.392 . S
C351 H323 0.929 . S
C351 C348 1.391 . S
C351 C350 1.392 . S
N352 Co296 2.257 . S
N352 C349 1.391 . S
N352 C353 1.388 . S
C353 H324 0.930 . S
C353 C348 1.391 . S
C353 N352 1.388 . S
Co354 O356 2.143 . S
Co354 O362 2.074 . S
Co354 O365 2.093 . S
Co354 O378 2.097 . S
Co354 N395 2.151 . S
Co354 N403 2.214 . S
Co355 O356 2.160 . S
Co355 O361 2.058 . S
Co355 O371 2.057 . S
Co355 O386 2.037 . S
Co355 N390 2.145 . S
Co355 N411 2.257 . S
O356 Co354 2.143 . S
O356 Co355 2.160 . S
C357 O358 1.278 . S
C357 O365 1.224 . S
O358 C357 1.278 . S
C359 O360 1.245 . S
C359 O371 1.232 . S
O360 C359 1.245 . S
O361 Co355 2.058 . S
O361 C387 1.269 . S
O362 Co354 2.074 . S
O362 C387 1.257 . S
H363 C388 0.930 . S
H364 C394 0.930 . S
O365 Co354 2.093 . S
O365 C357 1.224 . S
H366 C398 0.929 . S
H367 C400 0.930 . S
H368 C401 0.930 . S
H369 C399 0.929 . S
H370 C402 0.928 . S
O371 Co355 2.057 . S
O371 C359 1.232 . S
H372 C391 0.929 . S
H373 C392 0.929 . S
H374 C404 0.931 . S
H375 C396 0.929 . S
H376 C405 0.930 . S
H377 C397 0.931 . S
O378 Co354 2.097 . S
O378 C406 1.214 . S
H379 C407 0.929 . S
H380 C408 0.929 . S
H381 C409 0.930 . S
H382 C410 0.929 . S
H383 C412 0.930 . S
H384 C389 0.930 . S
H385 C393 0.930 . S
O386 Co355 2.037 . S
O386 C406 1.234 . S
C387 O361 1.269 . S
C387 O362 1.257 . S
C388 H363 0.930 . S
C388 C391 1.388 . S
C388 C393 1.418 . S
C389 H384 0.930 . S
C389 C392 1.404 . S
C389 C393 1.353 . S
N390 Co355 2.145 . S
N390 C391 1.397 . S
N390 C392 1.334 . S
C391 H372 0.929 . S
C391 C388 1.388 . S
C391 N390 1.397 . S
C392 H373 0.929 . S
C392 C389 1.404 . S
C392 N390 1.334 . S
C393 H385 0.930 . S
C393 C388 1.418 . S
C393 C389 1.353 . S
C394 H364 0.930 . S
C394 N395 1.330 1_545 S
C394 C396 1.446 . S
N395 Co354 2.151 . S
N395 C394 1.330 1_565 S
N395 C399 1.418 . S
C396 H375 0.929 . S
C396 C394 1.446 . S
C396 C397 1.332 . S
C397 H377 0.931 . S
C397 C396 1.332 . S
C397 C398 1.267 . S
C398 H366 0.929 . S
C398 C397 1.267 . S
C398 C399 1.251 1_545 S
C399 H369 0.929 . S
C399 N395 1.418 . S
C399 C398 1.251 1_565 S
C400 H367 0.930 . S
C400 C402 1.406 . S
C400 C405 1.261 . S
C401 H368 0.930 . S
C401 N403 1.325 . S
C401 C404 1.357 . S
C402 H370 0.928 . S
C402 C400 1.406 . S
C402 N403 1.261 . S
N403 Co354 2.214 . S
N403 C401 1.325 . S
N403 C402 1.261 . S
C404 H374 0.931 . S
C404 C401 1.357 . S
C404 C405 1.312 . S
C405 H376 0.930 . S
C405 C400 1.261 . S
C405 C404 1.312 . S
C406 O378 1.214 . S
C406 O386 1.234 . S
C407 H379 0.929 . S
C407 C410 1.391 . S
C407 C412 1.391 . S
C408 H380 0.929 . S
C408 C409 1.390 . S
C408 N411 1.391 . S
C409 H381 0.930 . S
C409 C408 1.390 . S
C409 C410 1.392 . S
C410 H382 0.929 . S
C410 C407 1.391 . S
C410 C409 1.392 . S
N411 Co355 2.257 . S
N411 C408 1.391 . S
N411 C412 1.388 . S
C412 H383 0.930 . S
C412 C407 1.391 . S
C412 N411 1.388 . S
Co413 O415 2.143 . S
Co413 O421 2.074 . S
Co413 O424 2.093 . S
Co413 O437 2.097 . S
Co413 N454 2.151 . S
Co413 N462 2.214 . S
Co414 O415 2.160 . S
Co414 O420 2.058 . S
Co414 O430 2.057 . S
Co414 O445 2.037 . S
Co414 N449 2.145 . S
Co414 N470 2.257 . S
O415 Co413 2.143 . S
O415 Co414 2.160 . S
C416 O417 1.278 . S
C416 O424 1.224 . S
O417 C416 1.278 . S
C418 O419 1.245 . S
C418 O430 1.232 . S
O419 C418 1.245 . S
O420 Co414 2.058 . S
O420 C446 1.269 . S
O421 Co413 2.074 . S
O421 C446 1.257 . S
H422 C447 0.930 . S
H423 C453 0.930 . S
O424 Co413 2.093 . S
O424 C416 1.224 . S
H425 C457 0.929 . S
H426 C459 0.930 . S
H427 C460 0.930 . S
H428 C458 0.929 . S
H429 C461 0.928 . S
O430 Co414 2.057 . S
O430 C418 1.232 . S
H431 C450 0.929 . S
H432 C451 0.929 . S
H433 C463 0.931 . S
H434 C455 0.929 . S
H435 C464 0.930 . S
H436 C456 0.931 . S
O437 Co413 2.097 . S
O437 C465 1.214 . S
H438 C466 0.929 . S
H439 C467 0.929 . S
H440 C468 0.930 . S
H441 C469 0.929 . S
H442 C471 0.930 . S
H443 C448 0.930 . S
H444 C452 0.930 . S
O445 Co414 2.037 . S
O445 C465 1.234 . S
C446 O420 1.269 . S
C446 O421 1.257 . S
C447 H422 0.930 . S
C447 C450 1.388 . S
C447 C452 1.418 . S
C448 H443 0.930 . S
C448 C451 1.404 . S
C448 C452 1.353 . S
N449 Co414 2.145 . S
N449 C450 1.397 . S
N449 C451 1.334 . S
C450 H431 0.929 . S
C450 C447 1.388 . S
C450 N449 1.397 . S
C451 H432 0.929 . S
C451 C448 1.404 . S
C451 N449 1.334 . S
C452 H444 0.930 . S
C452 C447 1.418 . S
C452 C448 1.353 . S
C453 H423 0.930 . S
C453 N454 1.330 1_565 S
C453 C455 1.446 . S
N454 Co413 2.151 . S
N454 C453 1.330 1_545 S
N454 C458 1.418 . S
C455 H434 0.929 . S
C455 C453 1.446 . S
C455 C456 1.332 . S
C456 H436 0.931 . S
C456 C455 1.332 . S
C456 C457 1.267 . S
C457 H425 0.929 . S
C457 C456 1.267 . S
C457 C458 1.251 1_565 S
C458 H428 0.929 . S
C458 N454 1.418 . S
C458 C457 1.251 1_545 S
C459 H426 0.930 . S
C459 C461 1.406 . S
C459 C464 1.261 . S
C460 H427 0.930 . S
C460 N462 1.325 . S
C460 C463 1.357 . S
C461 H429 0.928 . S
C461 C459 1.406 . S
C461 N462 1.261 . S
N462 Co413 2.214 . S
N462 C460 1.325 . S
N462 C461 1.261 . S
C463 H433 0.931 . S
C463 C460 1.357 . S
C463 C464 1.312 . S
C464 H435 0.930 . S
C464 C459 1.261 . S
C464 C463 1.312 . S
C465 O437 1.214 . S
C465 O445 1.234 . S
C466 H438 0.929 . S
C466 C469 1.391 . S
C466 C471 1.391 . S
C467 H439 0.929 . S
C467 C468 1.390 . S
C467 N470 1.391 . S
C468 H440 0.930 . S
C468 C467 1.390 . S
C468 C469 1.392 . S
C469 H441 0.929 . S
C469 C466 1.391 . S
C469 C468 1.392 . S
N470 Co414 2.257 . S
N470 C467 1.391 . S
N470 C471 1.388 . S
C471 H442 0.930 . S
C471 C466 1.391 . S
C471 N470 1.388 . S
Co472 O474 2.143 . S
Co472 O480 2.074 . S
Co472 O483 2.093 . S
Co472 O496 2.097 . S
Co472 N513 2.151 . S
Co472 N521 2.214 . S
Co473 O474 2.160 . S
Co473 O479 2.058 . S
Co473 O489 2.057 . S
Co473 O504 2.037 . S
Co473 N508 2.145 . S
Co473 N529 2.257 . S
O474 Co472 2.143 . S
O474 Co473 2.160 . S
C475 O476 1.278 . S
C475 O483 1.224 . S
O476 C475 1.278 . S
C477 O478 1.245 . S
C477 O489 1.232 . S
O478 C477 1.245 . S
O479 Co473 2.058 . S
O479 C505 1.269 . S
O480 Co472 2.074 . S
O480 C505 1.257 . S
H481 C506 0.930 . S
H482 C512 0.930 . S
O483 Co472 2.093 . S
O483 C475 1.224 . S
H484 C516 0.929 . S
H485 C518 0.930 . S
H486 C519 0.930 . S
H487 C517 0.929 . S
H488 C520 0.928 . S
O489 Co473 2.057 . S
O489 C477 1.232 . S
H490 C509 0.929 . S
H491 C510 0.929 . S
H492 C522 0.931 . S
H493 C514 0.929 . S
H494 C523 0.930 . S
H495 C515 0.931 . S
O496 Co472 2.097 . S
O496 C524 1.214 . S
H497 C525 0.929 . S
H498 C526 0.929 . S
H499 C527 0.930 . S
H500 C528 0.929 . S
H501 C530 0.930 . S
H502 C507 0.930 . S
H503 C511 0.930 . S
O504 Co473 2.037 . S
O504 C524 1.234 . S
C505 O479 1.269 . S
C505 O480 1.257 . S
C506 H481 0.930 . S
C506 C509 1.388 . S
C506 C511 1.418 . S
C507 H502 0.930 . S
C507 C510 1.404 . S
C507 C511 1.353 . S
N508 Co473 2.145 . S
N508 C509 1.397 . S
N508 C510 1.334 . S
C509 H490 0.929 . S
C509 C506 1.388 . S
C509 N508 1.397 . S
C510 H491 0.929 . S
C510 C507 1.404 . S
C510 N508 1.334 . S
C511 H503 0.930 . S
C511 C506 1.418 . S
C511 C507 1.353 . S
C512 H482 0.930 . S
C512 N513 1.330 1_556 S
C512 C514 1.446 . S
N513 Co472 2.151 . S
N513 C512 1.330 1_554 S
N513 C517 1.418 . S
C514 H493 0.929 . S
C514 C512 1.446 . S
C514 C515 1.332 . S
C515 H495 0.931 . S
C515 C514 1.332 . S
C515 C516 1.267 . S
C516 H484 0.929 . S
C516 C515 1.267 . S
C516 C517 1.251 1_556 S
C517 H487 0.929 . S
C517 N513 1.418 . S
C517 C516 1.251 1_554 S
C518 H485 0.930 . S
C518 C520 1.406 . S
C518 C523 1.261 . S
C519 H486 0.930 . S
C519 N521 1.325 . S
C519 C522 1.357 . S
C520 H488 0.928 . S
C520 C518 1.406 . S
C520 N521 1.261 . S
N521 Co472 2.214 . S
N521 C519 1.325 . S
N521 C520 1.261 . S
C522 H492 0.931 . S
C522 C519 1.357 . S
C522 C523 1.312 . S
C523 H494 0.930 . S
C523 C518 1.261 . S
C523 C522 1.312 . S
C524 O496 1.214 . S
C524 O504 1.234 . S
C525 H497 0.929 . S
C525 C528 1.391 . S
C525 C530 1.391 . S
C526 H498 0.929 . S
C526 C527 1.390 . S
C526 N529 1.391 . S
C527 H499 0.930 . S
C527 C526 1.390 . S
C527 C528 1.392 . S
C528 H500 0.929 . S
C528 C525 1.391 . S
C528 C527 1.392 . S
N529 Co473 2.257 . S
N529 C526 1.391 . S
N529 C530 1.388 . S
C530 H501 0.930 . S
C530 C525 1.391 . S
C530 N529 1.388 . S
Co531 O533 2.143 . S
Co531 O539 2.074 . S
Co531 O542 2.093 . S
Co531 O555 2.097 . S
Co531 N572 2.151 . S
Co531 N580 2.214 . S
Co532 O533 2.160 . S
Co532 O538 2.058 . S
Co532 O548 2.057 . S
Co532 O563 2.037 . S
Co532 N567 2.145 . S
Co532 N588 2.257 . S
O533 Co531 2.143 . S
O533 Co532 2.160 . S
C534 O535 1.278 . S
C534 O542 1.224 . S
O535 C534 1.278 . S
C536 O537 1.245 . S
C536 O548 1.232 . S
O537 C536 1.245 . S
O538 Co532 2.058 . S
O538 C564 1.269 . S
O539 Co531 2.074 . S
O539 C564 1.257 . S
H540 C565 0.930 . S
H541 C571 0.930 . S
O542 Co531 2.093 . S
O542 C534 1.224 . S
H543 C575 0.929 . S
H544 C577 0.930 . S
H545 C578 0.930 . S
H546 C576 0.929 . S
H547 C579 0.928 . S
O548 Co532 2.057 . S
O548 C536 1.232 . S
H549 C568 0.929 . S
H550 C569 0.929 . S
H551 C581 0.931 . S
H552 C573 0.929 . S
H553 C582 0.930 . S
H554 C574 0.931 . S
O555 Co531 2.097 . S
O555 C583 1.214 . S
H556 C584 0.929 . S
H557 C585 0.929 . S
H558 C586 0.930 . S
H559 C587 0.929 . S
H560 C589 0.930 . S
H561 C566 0.930 . S
H562 C570 0.930 . S
O563 Co532 2.037 . S
O563 C583 1.234 . S
C564 O538 1.269 . S
C564 O539 1.257 . S
C565 H540 0.930 . S
C565 C568 1.388 . S
C565 C570 1.418 . S
C566 H561 0.930 . S
C566 C569 1.404 . S
C566 C570 1.353 . S
N567 Co532 2.145 . S
N567 C568 1.397 . S
N567 C569 1.334 . S
C568 H549 0.929 . S
C568 C565 1.388 . S
C568 N567 1.397 . S
C569 H550 0.929 . S
C569 C566 1.404 . S
C569 N567 1.334 . S
C570 H562 0.930 . S
C570 C565 1.418 . S
C570 C566 1.353 . S
C571 H541 0.930 . S
C571 N572 1.330 1_554 S
C571 C573 1.446 . S
N572 Co531 2.151 . S
N572 C571 1.330 1_556 S
N572 C576 1.418 . S
C573 H552 0.929 . S
C573 C571 1.446 . S
C573 C574 1.332 . S
C574 H554 0.931 . S
C574 C573 1.332 . S
C574 C575 1.267 . S
C575 H543 0.929 . S
C575 C574 1.267 . S
C575 C576 1.251 1_554 S
C576 H546 0.929 . S
C576 N572 1.418 . S
C576 C575 1.251 1_556 S
C577 H544 0.930 . S
C577 C579 1.406 . S
C577 C582 1.261 . S
C578 H545 0.930 . S
C578 N580 1.325 . S
C578 C581 1.357 . S
C579 H547 0.928 . S
C579 C577 1.406 . S
C579 N580 1.261 . S
N580 Co531 2.214 . S
N580 C578 1.325 . S
N580 C579 1.261 . S
C581 H551 0.931 . S
C581 C578 1.357 . S
C581 C582 1.312 . S
C582 H553 0.930 . S
C582 C577 1.261 . S
C582 C581 1.312 . S
C583 O555 1.214 . S
C583 O563 1.234 . S
C584 H556 0.929 . S
C584 C587 1.391 . S
C584 C589 1.391 . S
C585 H557 0.929 . S
C585 C586 1.390 . S
C585 N588 1.391 . S
C586 H558 0.930 . S
C586 C585 1.390 . S
C586 C587 1.392 . S
C587 H559 0.929 . S
C587 C584 1.391 . S
C587 C586 1.392 . S
N588 Co532 2.257 . S
N588 C585 1.391 . S
N588 C589 1.388 . S
C589 H560 0.930 . S
C589 C584 1.391 . S
C589 N588 1.388 . S
Co590 O592 2.143 . S
Co590 O598 2.074 . S
Co590 O601 2.093 . S
Co590 O614 2.097 . S
Co590 N631 2.151 . S
Co590 N639 2.214 . S
Co591 O592 2.160 . S
Co591 O597 2.058 . S
Co591 O607 2.057 . S
Co591 O622 2.037 . S
Co591 N626 2.145 . S
Co591 N647 2.257 . S
O592 Co590 2.143 . S
O592 Co591 2.160 . S
C593 O594 1.278 . S
C593 O601 1.224 . S
O594 C593 1.278 . S
C595 O596 1.245 . S
C595 O607 1.232 . S
O596 C595 1.245 . S
O597 Co591 2.058 . S
O597 C623 1.269 . S
O598 Co590 2.074 . S
O598 C623 1.257 . S
H599 C624 0.930 . S
H600 C630 0.930 . S
O601 Co590 2.093 . S
O601 C593 1.224 . S
H602 C634 0.929 . S
H603 C636 0.930 . S
H604 C637 0.930 . S
H605 C635 0.929 . S
H606 C638 0.928 . S
O607 Co591 2.057 . S
O607 C595 1.232 . S
H608 C627 0.929 . S
H609 C628 0.929 . S
H610 C640 0.931 . S
H611 C632 0.929 . S
H612 C641 0.930 . S
H613 C633 0.931 . S
O614 Co590 2.097 . S
O614 C642 1.214 . S
H615 C643 0.929 . S
H616 C644 0.929 . S
H617 C645 0.930 . S
H618 C646 0.929 . S
H619 C648 0.930 . S
H620 C625 0.930 . S
H621 C629 0.930 . S
O622 Co591 2.037 . S
O622 C642 1.234 . S
C623 O597 1.269 . S
C623 O598 1.257 . S
C624 H599 0.930 . S
C624 C627 1.388 . S
C624 C629 1.418 . S
C625 H620 0.930 . S
C625 C628 1.404 . S
C625 C629 1.353 . S
N626 Co591 2.145 . S
N626 C627 1.397 . S
N626 C628 1.334 . S
C627 H608 0.929 . S
C627 C624 1.388 . S
C627 N626 1.397 . S
C628 H609 0.929 . S
C628 C625 1.404 . S
C628 N626 1.334 . S
C629 H621 0.930 . S
C629 C624 1.418 . S
C629 C625 1.353 . S
C630 H600 0.930 . S
C630 N631 1.330 1_554 S
C630 C632 1.446 . S
N631 Co590 2.151 . S
N631 C630 1.330 1_556 S
N631 C635 1.418 . S
C632 H611 0.929 . S
C632 C630 1.446 . S
C632 C633 1.332 . S
C633 H613 0.931 . S
C633 C632 1.332 . S
C633 C634 1.267 . S
C634 H602 0.929 . S
C634 C633 1.267 . S
C634 C635 1.251 1_554 S
C635 H605 0.929 . S
C635 N631 1.418 . S
C635 C634 1.251 1_556 S
C636 H603 0.930 . S
C636 C638 1.406 . S
C636 C641 1.261 . S
C637 H604 0.930 . S
C637 N639 1.325 . S
C637 C640 1.357 . S
C638 H606 0.928 . S
C638 C636 1.406 . S
C638 N639 1.261 . S
N639 Co590 2.214 . S
N639 C637 1.325 . S
N639 C638 1.261 . S
C640 H610 0.931 . S
C640 C637 1.357 . S
C640 C641 1.312 . S
C641 H612 0.930 . S
C641 C636 1.261 . S
C641 C640 1.312 . S
C642 O614 1.214 . S
C642 O622 1.234 . S
C643 H615 0.929 . S
C643 C646 1.391 . S
C643 C648 1.391 . S
C644 H616 0.929 . S
C644 C645 1.390 . S
C644 N647 1.391 . S
C645 H617 0.930 . S
C645 C644 1.390 . S
C645 C646 1.392 . S
C646 H618 0.929 . S
C646 C643 1.391 . S
C646 C645 1.392 . S
N647 Co591 2.257 . S
N647 C644 1.391 . S
N647 C648 1.388 . S
C648 H619 0.930 . S
C648 C643 1.391 . S
C648 N647 1.388 . S
Co649 O651 2.143 . S
Co649 O657 2.074 . S
Co649 O660 2.093 . S
Co649 O673 2.097 . S
Co649 N690 2.151 . S
Co649 N698 2.214 . S
Co650 O651 2.160 . S
Co650 O656 2.058 . S
Co650 O666 2.057 . S
Co650 O681 2.037 . S
Co650 N685 2.145 . S
Co650 N706 2.257 . S
O651 Co649 2.143 . S
O651 Co650 2.160 . S
C652 O653 1.278 . S
C652 O660 1.224 . S
O653 C652 1.278 . S
C654 O655 1.245 . S
C654 O666 1.232 . S
O655 C654 1.245 . S
O656 Co650 2.058 . S
O656 C682 1.269 . S
O657 Co649 2.074 . S
O657 C682 1.257 . S
H658 C683 0.930 . S
H659 C689 0.930 . S
O660 Co649 2.093 . S
O660 C652 1.224 . S
H661 C693 0.929 . S
H662 C695 0.930 . S
H663 C696 0.930 . S
H664 C694 0.929 . S
H665 C697 0.928 . S
O666 Co650 2.057 . S
O666 C654 1.232 . S
H667 C686 0.929 . S
H668 C687 0.929 . S
H669 C699 0.931 . S
H670 C691 0.929 . S
H671 C700 0.930 . S
H672 C692 0.931 . S
O673 Co649 2.097 . S
O673 C701 1.214 . S
H674 C702 0.929 . S
H675 C703 0.929 . S
H676 C704 0.930 . S
H677 C705 0.929 . S
H678 C707 0.930 . S
H679 C684 0.930 . S
H680 C688 0.930 . S
O681 Co650 2.037 . S
O681 C701 1.234 . S
C682 O656 1.269 . S
C682 O657 1.257 . S
C683 H658 0.930 . S
C683 C686 1.388 . S
C683 C688 1.418 . S
C684 H679 0.930 . S
C684 C687 1.404 . S
C684 C688 1.353 . S
N685 Co650 2.145 . S
N685 C686 1.397 . S
N685 C687 1.334 . S
C686 H667 0.929 . S
C686 C683 1.388 . S
C686 N685 1.397 . S
C687 H668 0.929 . S
C687 C684 1.404 . S
C687 N685 1.334 . S
C688 H680 0.930 . S
C688 C683 1.418 . S
C688 C684 1.353 . S
C689 H659 0.930 . S
C689 N690 1.330 1_556 S
C689 C691 1.446 . S
N690 Co649 2.151 . S
N690 C689 1.330 1_554 S
N690 C694 1.418 . S
C691 H670 0.929 . S
C691 C689 1.446 . S
C691 C692 1.332 . S
C692 H672 0.931 . S
C692 C691 1.332 . S
C692 C693 1.267 . S
C693 H661 0.929 . S
C693 C692 1.267 . S
C693 C694 1.251 1_556 S
C694 H664 0.929 . S
C694 N690 1.418 . S
C694 C693 1.251 1_554 S
C695 H662 0.930 . S
C695 C697 1.406 . S
C695 C700 1.261 . S
C696 H663 0.930 . S
C696 N698 1.325 . S
C696 C699 1.357 . S
C697 H665 0.928 . S
C697 C695 1.406 . S
C697 N698 1.261 . S
N698 Co649 2.214 . S
N698 C696 1.325 . S
N698 C697 1.261 . S
C699 H669 0.931 . S
C699 C696 1.357 . S
C699 C700 1.312 . S
C700 H671 0.930 . S
C700 C695 1.261 . S
C700 C699 1.312 . S
C701 O673 1.214 . S
C701 O681 1.234 . S
C702 H674 0.929 . S
C702 C705 1.391 . S
C702 C707 1.391 . S
C703 H675 0.929 . S
C703 C704 1.390 . S
C703 N706 1.391 . S
C704 H676 0.930 . S
C704 C703 1.390 . S
C704 C705 1.392 . S
C705 H677 0.929 . S
C705 C702 1.391 . S
C705 C704 1.392 . S
N706 Co650 2.257 . S
N706 C703 1.391 . S
N706 C707 1.388 . S
C707 H678 0.930 . S
C707 C702 1.391 . S
C707 N706 1.388 . S
H708 C714 0.930 . S
H709 C717 0.930 . S
H710 C718 0.930 . S
H711 C719 0.930 . S
H712 C722 0.930 . S
H713 C723 0.930 . S
C714 H708 0.930 . S
C714 C715 1.355 . S
C714 C716 1.402 1_655 S
C715 C714 1.355 . S
C715 C717 1.419 . S
C716 C714 1.402 1_455 S
C716 C721 1.424 1_455 S
C716 C723 1.423 . S
C717 H709 0.930 . S
C717 C715 1.419 . S
C717 C718 1.362 . S
C718 H710 0.930 . S
C718 C717 1.362 . S
C718 C721 1.423 . S
C719 H711 0.930 . S
C719 C720 1.355 . S
C719 C721 1.402 1_455 S
C720 C719 1.355 . S
C720 C722 1.419 . S
C721 C716 1.424 1_655 S
C721 C718 1.423 . S
C721 C719 1.402 1_655 S
C722 H712 0.930 . S
C722 C720 1.419 . S
C722 C723 1.362 . S
C723 H713 0.930 . S
C723 C716 1.423 . S
C723 C722 1.362 . S
H724 C730 0.930 . S
H725 C733 0.930 1_655 S
H726 C734 0.930 . S
H727 C735 0.930 . S
H728 C738 0.930 1_455 S
H729 C739 0.930 . S
C730 H724 0.930 . S
C730 C731 1.355 . S
C730 C732 1.415 . S
C731 C730 1.355 . S
C731 C733 1.419 . S
C732 C730 1.415 . S
C732 C737 1.425 1_455 S
C732 C739 1.409 . S
C733 H725 0.930 1_455 S
C733 C731 1.419 . S
C733 C734 1.362 1_455 S
C734 H726 0.930 . S
C734 C733 1.362 1_655 S
C734 C737 1.409 . S
C735 H727 0.930 . S
C735 C736 1.355 . S
C735 C737 1.415 . S
C736 C735 1.355 . S
C736 C738 1.419 . S
C737 C732 1.425 1_655 S
C737 C734 1.409 . S
C737 C735 1.415 . S
C738 H728 0.930 1_655 S
C738 C736 1.419 . S
C738 C739 1.362 1_655 S
C739 H729 0.930 . S
C739 C732 1.409 . S
C739 C738 1.362 1_455 S
H740 C746 0.930 . S
H741 C749 0.930 1_545 S
H742 C750 0.930 . S
H743 C751 0.930 . S
H744 C754 0.930 1_565 S
H745 C755 0.930 . S
C746 H740 0.930 . S
C746 C747 1.355 . S
C746 C748 1.415 . S
C747 C746 1.355 . S
C747 C749 1.419 . S
C748 C746 1.415 . S
C748 C753 1.425 1_565 S
C748 C755 1.409 . S
C749 H741 0.930 1_565 S
C749 C747 1.419 . S
C749 C750 1.362 1_565 S
C750 H742 0.930 . S
C750 C749 1.362 1_545 S
C750 C753 1.409 . S
C751 H743 0.930 . S
C751 C752 1.355 . S
C751 C753 1.415 . S
C752 C751 1.355 . S
C752 C754 1.419 . S
C753 C748 1.425 1_545 S
C753 C750 1.409 . S
C753 C751 1.415 . S
C754 H744 0.930 1_545 S
C754 C752 1.419 . S
C754 C755 1.362 1_545 S
C755 H745 0.930 . S
C755 C748 1.409 . S
C755 C754 1.362 1_565 S
H756 C762 0.930 . S
H757 C765 0.930 . S
H758 C766 0.930 . S
H759 C767 0.930 . S
H760 C770 0.930 . S
H761 C771 0.930 . S
C762 H756 0.930 . S
C762 C763 1.355 . S
C762 C764 1.415 . S
C763 C762 1.355 . S
C763 C765 1.419 . S
C764 C762 1.415 . S
C764 C769 1.425 1_565 S
C764 C771 1.409 . S
C765 H757 0.930 . S
C765 C763 1.419 . S
C765 C766 1.362 1_565 S
C766 H758 0.930 . S
C766 C765 1.362 1_545 S
C766 C769 1.409 . S
C767 H759 0.930 . S
C767 C768 1.355 . S
C767 C769 1.415 . S
C768 C767 1.355 . S
C768 C770 1.419 . S
C769 C764 1.425 1_545 S
C769 C766 1.409 . S
C769 C767 1.415 . S
C770 H760 0.930 . S
C770 C768 1.419 . S
C770 C771 1.362 1_545 S
C771 H761 0.930 . S
C771 C764 1.409 . S
C771 C770 1.362 1_565 S
H772 C778 0.930 . S
H773 C781 0.930 . S
H774 C782 0.930 . S
H775 C783 0.930 . S
H776 C786 0.930 . S
H777 C787 0.930 . S
C778 H772 0.930 . S
C778 C779 1.355 . S
C778 C780 1.415 1_556 S
C779 C778 1.355 . S
C779 C781 1.419 . S
C780 C778 1.415 1_554 S
C780 C785 1.425 1_554 S
C780 C787 1.409 . S
C781 H773 0.930 . S
C781 C779 1.419 . S
C781 C782 1.362 . S
C782 H774 0.930 . S
C782 C781 1.362 . S
C782 C785 1.409 . S
C783 H775 0.930 . S
C783 C784 1.355 . S
C783 C785 1.415 1_554 S
C784 C783 1.355 . S
C784 C786 1.419 . S
C785 C780 1.425 1_556 S
C785 C782 1.409 . S
C785 C783 1.415 1_556 S
C786 H776 0.930 . S
C786 C784 1.419 . S
C786 C787 1.362 . S
C787 H777 0.930 . S
C787 C780 1.409 . S
C787 C786 1.362 . S
H788 C794 0.930 1_554 S
H789 C797 0.930 . S
H790 C798 0.930 . S
H791 C799 0.930 1_556 S
H792 C802 0.930 . S
H793 C803 0.930 . S
C794 H788 0.930 1_556 S
C794 C795 1.355 . S
C794 C796 1.415 1_556 S
C795 C794 1.355 . S
C795 C797 1.419 . S
C796 C794 1.415 1_554 S
C796 C801 1.425 1_554 S
C796 C803 1.409 . S
C797 H789 0.930 . S
C797 C795 1.419 . S
C797 C798 1.362 . S
C798 H790 0.930 . S
C798 C797 1.362 . S
C798 C801 1.409 . S
C799 H791 0.930 1_554 S
C799 C800 1.355 . S
C799 C801 1.415 1_554 S
C800 C799 1.355 . S
C800 C802 1.419 . S
C801 C796 1.425 1_556 S
C801 C798 1.409 . S
C801 C799 1.415 1_556 S
C802 H792 0.930 . S
C802 C800 1.419 . S
C802 C803 1.362 . S
C803 H793 0.930 . S
C803 C796 1.409 . S
C803 C802 1.362 . S
H804 C810 0.930 . S
H805 C813 0.930 . S
H806 C814 0.930 . S
H807 C815 0.930 . S
H808 C818 0.930 . S
H809 C819 0.930 . S
C810 H804 0.930 . S
C810 C811 1.355 . S
C810 C812 1.415 . S
C811 C810 1.355 . S
C811 C813 1.419 . S
C812 C810 1.415 . S
C812 C817 1.425 . S
C812 C819 1.409 . S
C813 H805 0.930 . S
C813 C811 1.419 . S
C813 C814 1.362 . S
C814 H806 0.930 . S
C814 C813 1.362 . S
C814 C817 1.409 . S
C815 H807 0.930 . S
C815 C816 1.355 . S
C815 C817 1.415 . S
C816 C815 1.355 . S
C816 C818 1.419 . S
C817 C812 1.425 . S
C817 C814 1.409 . S
C817 C815 1.415 . S
C818 H808 0.930 . S
C818 C816 1.419 . S
C818 C819 1.362 . S
C819 H809 0.930 . S
C819 C812 1.409 . S
C819 C818 1.362 . S
H820 C826 0.930 . S
H821 C829 0.930 . S
H822 C830 0.930 . S
H823 C831 0.930 . S
H824 C834 0.930 . S
H825 C835 0.930 . S
C826 H820 0.930 . S
C826 C827 1.355 . S
C826 C828 1.415 . S
C827 C826 1.355 . S
C827 C829 1.419 . S
C828 C826 1.415 . S
C828 C833 1.425 . S
C828 C835 1.409 . S
C829 H821 0.930 . S
C829 C827 1.419 . S
C829 C830 1.362 . S
C830 H822 0.930 . S
C830 C829 1.362 . S
C830 C833 1.409 . S
C831 H823 0.930 . S
C831 C832 1.355 . S
C831 C833 1.415 . S
C832 C831 1.355 . S
C832 C834 1.419 . S
C833 C828 1.425 . S
C833 C830 1.409 . S
C833 C831 1.415 . S
C834 H824 0.930 . S
C834 C832 1.419 . S
C834 C835 1.362 . S
C835 H825 0.930 . S
C835 C828 1.409 . S
C835 C834 1.362 . S
H836 C842 0.930 . S
H837 C845 0.930 . S
H838 C846 0.930 . S
H839 C847 0.930 . S
H840 C850 0.930 . S
H841 C851 0.930 . S
C842 H836 0.930 . S
C842 C843 1.355 . S
C842 C844 1.415 . S
C843 C842 1.355 . S
C843 C845 1.419 . S
C844 C842 1.415 . S
C844 C849 1.425 . S
C844 C851 1.409 . S
C845 H837 0.930 . S
C845 C843 1.419 . S
C845 C846 1.362 . S
C846 H838 0.930 . S
C846 C845 1.362 . S
C846 C849 1.409 . S
C847 H839 0.930 . S
C847 C848 1.355 . S
C847 C849 1.415 . S
C848 C847 1.355 . S
C848 C850 1.419 . S
C849 C844 1.425 . S
C849 C846 1.409 . S
C849 C847 1.415 . S
C850 H840 0.930 . S
C850 C848 1.419 . S
C850 C851 1.362 . S
C851 H841 0.930 . S
C851 C844 1.409 . S
C851 C850 1.362 . S
H852 C858 0.930 . S
H853 C861 0.930 . S
H854 C862 0.930 . S
H855 C863 0.930 . S
H856 C866 0.930 . S
H857 C867 0.930 . S
C858 H852 0.930 . S
C858 C859 1.355 . S
C858 C860 1.415 . S
C859 C858 1.355 . S
C859 C861 1.419 . S
C860 C858 1.415 . S
C860 C865 1.425 . S
C860 C867 1.409 . S
C861 H853 0.930 . S
C861 C859 1.419 . S
C861 C862 1.362 . S
C862 H854 0.930 . S
C862 C861 1.362 . S
C862 C865 1.409 . S
C863 H855 0.930 . S
C863 C864 1.355 . S
C863 C865 1.415 . S
C864 C863 1.355 . S
C864 C866 1.419 . S
C865 C860 1.425 . S
C865 C862 1.409 . S
C865 C863 1.415 . S
C866 H856 0.930 . S
C866 C864 1.419 . S
C866 C867 1.362 . S
C867 H857 0.930 . S
C867 C860 1.409 . S
C867 C866 1.362 . S
H868 C874 0.930 . S
H869 C877 0.930 . S
H870 C878 0.930 . S
H871 C879 0.930 . S
H872 C882 0.930 . S
H873 C883 0.930 . S
C874 H868 0.930 . S
C874 C875 1.355 . S
C874 C876 1.415 . S
C875 C874 1.355 . S
C875 C877 1.419 . S
C876 C874 1.415 . S
C876 C881 1.425 . S
C876 C883 1.409 . S
C877 H869 0.930 . S
C877 C875 1.419 . S
C877 C878 1.362 . S
C878 H870 0.930 . S
C878 C877 1.362 . S
C878 C881 1.409 . S
C879 H871 0.930 . S
C879 C880 1.355 . S
C879 C881 1.415 . S
C880 C879 1.355 . S
C880 C882 1.419 . S
C881 C876 1.425 . S
C881 C878 1.409 . S
C881 C879 1.415 . S
C882 H872 0.930 . S
C882 C880 1.419 . S
C882 C883 1.362 . S
C883 H873 0.930 . S
C883 C876 1.409 . S
C883 C882 1.362 . S
H884 C890 0.930 . S
H885 C893 0.930 . S
H886 C894 0.930 . S
H887 C895 0.930 . S
H888 C898 0.930 . S
H889 C899 0.930 . S
C890 H884 0.930 . S
C890 C891 1.355 . S
C890 C892 1.415 . S
C891 C890 1.355 . S
C891 C893 1.419 . S
C892 C890 1.415 . S
C892 C897 1.425 . S
C892 C899 1.409 . S
C893 H885 0.930 . S
C893 C891 1.419 . S
C893 C894 1.362 . S
C894 H886 0.930 . S
C894 C893 1.362 . S
C894 C897 1.409 . S
C895 H887 0.930 . S
C895 C896 1.355 . S
C895 C897 1.415 . S
C896 C895 1.355 . S
C896 C898 1.419 . S
C897 C892 1.425 . S
C897 C894 1.409 . S
C897 C895 1.415 . S
C898 H888 0.930 . S
C898 C896 1.419 . S
C898 C899 1.362 . S
C899 H889 0.930 . S
C899 C892 1.409 . S
C899 C898 1.362 . S
H900 C906 0.930 . S
H901 C909 0.930 . S
H902 C910 0.930 . S
H903 C911 0.930 . S
H904 C914 0.930 . S
H905 C915 0.930 . S
C906 H900 0.930 . S
C906 C907 1.355 . S
C906 C908 1.415 . S
C907 C906 1.355 . S
C907 C909 1.419 . S
C908 C906 1.415 . S
C908 C913 1.425 . S
C908 C915 1.409 . S
C909 H901 0.930 . S
C909 C907 1.419 . S
C909 C910 1.362 . S
C910 H902 0.930 . S
C910 C909 1.362 . S
C910 C913 1.409 . S
C911 H903 0.930 . S
C911 C912 1.355 . S
C911 C913 1.415 . S
C912 C911 1.355 . S
C912 C914 1.419 . S
C913 C908 1.425 . S
C913 C910 1.409 . S
C913 C911 1.415 . S
C914 H904 0.930 . S
C914 C912 1.419 . S
C914 C915 1.362 . S
C915 H905 0.930 . S
C915 C908 1.409 . S
C915 C914 1.362 . S
H916 C922 0.930 . S
H917 C925 0.930 . S
H918 C926 0.930 . S
H919 C927 0.930 . S
H920 C930 0.930 . S
H921 C931 0.930 . S
C922 H916 0.930 . S
C922 C923 1.355 . S
C922 C924 1.415 . S
C923 C922 1.355 . S
C923 C925 1.419 . S
C924 C922 1.415 . S
C924 C929 1.425 . S
C924 C931 1.409 . S
C925 H917 0.930 . S
C925 C923 1.419 . S
C925 C926 1.362 . S
C926 H918 0.930 . S
C926 C925 1.362 . S
C926 C929 1.409 . S
C927 H919 0.930 . S
C927 C928 1.355 . S
C927 C929 1.415 . S
C928 C927 1.355 . S
C928 C930 1.419 . S
C929 C924 1.425 . S
C929 C926 1.409 . S
C929 C927 1.415 . S
C930 H920 0.930 . S
C930 C928 1.419 . S
C930 C931 1.362 . S
C931 H921 0.930 . S
C931 C924 1.409 . S
C931 C930 1.362 . S
H932 C938 0.930 . S
H933 C941 0.930 . S
H934 C942 0.930 . S
H935 C943 0.930 . S
H936 C946 0.930 . S
H937 C947 0.930 . S
C938 H932 0.930 . S
C938 C939 1.355 . S
C938 C940 1.415 . S
C939 C938 1.355 . S
C939 C941 1.419 . S
C940 C938 1.415 . S
C940 C945 1.425 . S
C940 C947 1.409 . S
C941 H933 0.930 . S
C941 C939 1.419 . S
C941 C942 1.362 . S
C942 H934 0.930 . S
C942 C941 1.362 . S
C942 C945 1.409 . S
C943 H935 0.930 . S
C943 C944 1.355 . S
C943 C945 1.415 . S
C944 C943 1.355 . S
C944 C946 1.419 . S
C945 C940 1.425 . S
C945 C942 1.409 . S
C945 C943 1.415 . S
C946 H936 0.930 . S
C946 C944 1.419 . S
C946 C947 1.362 . S
C947 H937 0.930 . S
C947 C940 1.409 . S
C947 C946 1.362 . S
H948 C954 0.930 . S
H949 C957 0.930 . S
H950 C958 0.930 . S
H951 C959 0.930 . S
H952 C962 0.930 . S
H953 C963 0.930 . S
C954 H948 0.930 . S
C954 C955 1.355 . S
C954 C956 1.415 . S
C955 C954 1.355 . S
C955 C957 1.419 . S
C956 C954 1.415 . S
C956 C961 1.425 . S
C956 C963 1.409 . S
C957 H949 0.930 . S
C957 C955 1.419 . S
C957 C958 1.362 . S
C958 H950 0.930 . S
C958 C957 1.362 . S
C958 C961 1.409 . S
C959 H951 0.930 . S
C959 C960 1.355 . S
C959 C961 1.415 . S
C960 C959 1.355 . S
C960 C962 1.419 . S
C961 C956 1.425 . S
C961 C958 1.409 . S
C961 C959 1.415 . S
C962 H952 0.930 . S
C962 C960 1.419 . S
C962 C963 1.362 . S
C963 H953 0.930 . S
C963 C956 1.409 . S
C963 C962 1.362 . S
H964 C970 0.930 . S
H965 C973 0.930 . S
H966 C974 0.930 . S
H967 C975 0.930 . S
H968 C978 0.930 . S
H969 C979 0.930 . S
C970 H964 0.930 . S
C970 C971 1.355 . S
C970 C972 1.415 . S
C971 C970 1.355 . S
C971 C973 1.419 . S
C972 C970 1.415 . S
C972 C977 1.425 . S
C972 C979 1.409 . S
C973 H965 0.930 . S
C973 C971 1.419 . S
C973 C974 1.362 . S
C974 H966 0.930 . S
C974 C973 1.362 . S
C974 C977 1.409 . S
C975 H967 0.930 . S
C975 C976 1.355 . S
C975 C977 1.415 . S
C976 C975 1.355 . S
C976 C978 1.419 . S
C977 C972 1.425 . S
C977 C974 1.409 . S
C977 C975 1.415 . S
C978 H968 0.930 . S
C978 C976 1.419 . S
C978 C979 1.362 . S
C979 H969 0.930 . S
C979 C972 1.409 . S
C979 C978 1.362 . S
H980 C986 0.930 . S
H981 C989 0.930 . S
H982 C990 0.930 . S
H983 C991 0.930 . S
H984 C994 0.930 . S
H985 C995 0.930 . S
C986 H980 0.930 . S
C986 C987 1.355 . S
C986 C988 1.415 . S
C987 C986 1.355 . S
C987 C989 1.419 . S
C988 C986 1.415 . S
C988 C993 1.425 . S
C988 C995 1.409 . S
C989 H981 0.930 . S
C989 C987 1.419 . S
C989 C990 1.362 . S
C990 H982 0.930 . S
C990 C989 1.362 . S
C990 C993 1.409 . S
C991 H983 0.930 . S
C991 C992 1.355 . S
C991 C993 1.415 . S
C992 C991 1.355 . S
C992 C994 1.419 . S
C993 C988 1.425 . S
C993 C990 1.409 . S
C993 C991 1.415 . S
C994 H984 0.930 . S
C994 C992 1.419 . S
C994 C995 1.362 . S
C995 H985 0.930 . S
C995 C988 1.409 . S
C995 C994 1.362 . S
H996 C1002 0.930 1_655 S
H997 C1005 0.930 . S
H998 C1006 0.930 . S
H999 C1007 0.930 1_455 S
H1000 C1010 0.930 . S
H1001 C1011 0.930 . S
C1002 H996 0.930 1_455 S
C1002 C1003 1.355 . S
C1002 C1004 1.415 1_455 S
C1003 C1002 1.355 . S
C1003 C1005 1.419 . S
C1004 C1002 1.415 1_655 S
C1004 C1009 1.425 1_645 S
C1004 C1011 1.409 . S
C1005 H997 0.930 . S
C1005 C1003 1.419 . S
C1005 C1006 1.362 1_545 S
C1006 H998 0.930 . S
C1006 C1005 1.362 1_565 S
C1006 C1009 1.409 . S
C1007 H999 0.930 1_655 S
C1007 C1008 1.355 . S
C1007 C1009 1.415 1_655 S
C1008 C1007 1.355 . S
C1008 C1010 1.419 . S
C1009 C1004 1.425 1_465 S
C1009 C1006 1.409 . S
C1009 C1007 1.415 1_455 S
C1010 H1000 0.930 . S
C1010 C1008 1.419 . S
C1010 C1011 1.362 1_565 S
C1011 H1001 0.930 . S
C1011 C1004 1.409 . S
C1011 C1010 1.362 1_545 S
H1012 C1018 0.930 1_455 S
H1013 C1021 0.930 . S
H1014 C1022 0.930 . S
H1015 C1023 0.930 1_655 S
H1016 C1026 0.930 . S
H1017 C1027 0.930 . S
C1018 H1012 0.930 1_655 S
C1018 C1019 1.355 . S
C1018 C1020 1.415 1_655 S
C1019 C1018 1.355 . S
C1019 C1021 1.419 . S
C1020 C1018 1.415 1_455 S
C1020 C1025 1.425 1_445 S
C1020 C1027 1.409 . S
C1021 H1013 0.930 . S
C1021 C1019 1.419 . S
C1021 C1022 1.362 1_545 S
C1022 H1014 0.930 . S
C1022 C1021 1.362 1_565 S
C1022 C1025 1.409 . S
C1023 H1015 0.930 1_455 S
C1023 C1024 1.355 . S
C1023 C1025 1.415 1_455 S
C1024 C1023 1.355 . S
C1024 C1026 1.419 . S
C1025 C1020 1.425 1_665 S
C1025 C1022 1.409 . S
C1025 C1023 1.415 1_655 S
C1026 H1016 0.930 . S
C1026 C1024 1.419 . S
C1026 C1027 1.362 1_565 S
C1027 H1017 0.930 . S
C1027 C1020 1.409 . S
C1027 C1026 1.362 1_545 S
H1028 C1034 0.930 . S
H1029 C1037 0.930 . S
H1030 C1038 0.930 1_554 S
H1031 C1039 0.930 . S
H1032 C1042 0.930 . S
H1033 C1043 0.930 1_556 S
C1034 H1028 0.930 . S
C1034 C1035 1.355 . S
C1034 C1036 1.415 1_565 S
C1035 C1034 1.355 . S
C1035 C1037 1.419 . S
C1036 C1034 1.415 1_545 S
C1036 C1041 1.425 1_546 S
C1036 C1043 1.409 1_556 S
C1037 H1029 0.930 . S
C1037 C1035 1.419 . S
C1037 C1038 1.362 . S
C1038 H1030 0.930 1_556 S
C1038 C1037 1.362 . S
C1038 C1041 1.409 1_556 S
C1039 H1031 0.930 . S
C1039 C1040 1.355 . S
C1039 C1041 1.415 1_545 S
C1040 C1039 1.355 . S
C1040 C1042 1.419 . S
C1041 C1036 1.425 1_564 S
C1041 C1038 1.409 1_554 S
C1041 C1039 1.415 1_565 S
C1042 H1032 0.930 . S
C1042 C1040 1.419 . S
C1042 C1043 1.362 . S
C1043 H1033 0.930 1_554 S
C1043 C1036 1.409 1_554 S
C1043 C1042 1.362 . S
H1044 C1050 0.930 . S
H1045 C1053 0.930 . S
H1046 C1054 0.930 . S
H1047 C1055 0.930 . S
H1048 C1058 0.930 . S
H1049 C1059 0.930 . S
C1050 H1044 0.930 . S
C1050 C1051 1.355 . S
C1050 C1052 1.415 1_554 S
C1051 C1050 1.355 . S
C1051 C1053 1.419 1_565 S
C1052 C1050 1.415 1_556 S
C1052 C1057 1.425 1_566 S
C1052 C1059 1.409 . S
C1053 H1045 0.930 . S
C1053 C1051 1.419 1_545 S
C1053 C1054 1.362 . S
C1054 H1046 0.930 . S
C1054 C1053 1.362 . S
C1054 C1057 1.409 . S
C1055 H1047 0.930 . S
C1055 C1056 1.355 . S
C1055 C1057 1.415 1_556 S
C1056 C1055 1.355 . S
C1056 C1058 1.419 1_545 S
C1057 C1052 1.425 1_544 S
C1057 C1054 1.409 . S
C1057 C1055 1.415 1_554 S
C1058 H1048 0.930 . S
C1058 C1056 1.419 1_565 S
C1058 C1059 1.362 . S
C1059 H1049 0.930 . S
C1059 C1052 1.409 . S
C1059 C1058 1.362 . S
H1060 C1066 0.930 . S
H1061 C1069 0.930 . S
H1062 C1070 0.930 . S
H1063 C1071 0.930 . S
H1064 C1074 0.930 . S
H1065 C1075 0.930 . S
C1066 H1060 0.930 . S
C1066 C1067 1.355 . S
C1066 C1068 1.415 1_655 S
C1067 C1066 1.355 . S
C1067 C1069 1.419 1_556 S
C1068 C1066 1.415 1_455 S
C1068 C1073 1.425 1_456 S
C1068 C1075 1.409 . S
C1069 H1061 0.930 . S
C1069 C1067 1.419 1_554 S
C1069 C1070 1.362 . S
C1070 H1062 0.930 . S
C1070 C1069 1.362 . S
C1070 C1073 1.409 . S
C1071 H1063 0.930 . S
C1071 C1072 1.355 . S
C1071 C1073 1.415 1_455 S
C1072 C1071 1.355 . S
C1072 C1074 1.419 1_554 S
C1073 C1068 1.425 1_654 S
C1073 C1070 1.409 . S
C1073 C1071 1.415 1_655 S
C1074 H1064 0.930 . S
C1074 C1072 1.419 1_556 S
C1074 C1075 1.362 . S
C1075 H1065 0.930 . S
C1075 C1068 1.409 . S
C1075 C1074 1.362 . S
H1076 C1082 0.930 . S
H1077 C1085 0.930 . S
H1078 C1086 0.930 . S
H1079 C1087 0.930 . S
H1080 C1090 0.930 . S
H1081 C1091 0.930 . S
C1082 H1076 0.930 . S
C1082 C1083 1.355 . S
C1082 C1084 1.415 . S
C1083 C1082 1.355 . S
C1083 C1085 1.419 . S
C1084 C1082 1.415 . S
C1084 C1089 1.425 1_456 S
C1084 C1091 1.409 1_455 S
C1085 H1077 0.930 . S
C1085 C1083 1.419 . S
C1085 C1086 1.362 1_556 S
C1086 H1078 0.930 . S
C1086 C1085 1.362 1_554 S
C1086 C1089 1.409 1_455 S
C1087 H1079 0.930 . S
C1087 C1088 1.355 . S
C1087 C1089 1.415 . S
C1088 C1087 1.355 . S
C1088 C1090 1.419 . S
C1089 C1084 1.425 1_654 S
C1089 C1086 1.409 1_655 S
C1089 C1087 1.415 . S
C1090 H1080 0.930 . S
C1090 C1088 1.419 . S
C1090 C1091 1.362 1_554 S
C1091 H1081 0.930 . S
C1091 C1084 1.409 1_655 S
C1091 C1090 1.362 1_556 S
C715 C182 1.120 . S
C720 C5 1.074 . S
C731 C123 1.063 . S
C736 C64 1.055 . S
C747 C300 1.079 . S
C752 C241 1.046 . S
C763 C359 1.100 . S
C768 C418 1.045 . S
C779 C536 1.064 . S
C784 C477 1.119 . S
C795 C595 1.082 . S
C800 C654 1.120 . S
C811 C52 1.272 . S
C816 C446 1.241 . S
C827 C387 1.158 . S
C832 C111 1.257 . S
C843 C328 1.242 . S
C848 C170 1.271 . S
C859 C269 1.185 . S
C864 C229 1.269 . S
C875 C288 1.252 . S
C880 C682 1.229 . S
C891 C505 1.169 . S
C896 C347 1.250 . S
C907 C623 1.254 . S
C912 C406 1.267 . S
C923 C465 1.268 . S
C928 C564 1.253 . S
C939 C151 1.248 . S
C944 C524 1.258 . S
C955 C33 1.205 . S
C960 C583 1.271 . S
C971 C642 1.266 . S
C976 C92 1.174 . S
C987 C210 1.243 . S
C992 C701 1.256 . S
C1003 C3 1.284 . S
C1008 C62 1.286 . S
C1019 C180 1.282 . S
C1024 C121 1.293 . S
C1035 C357 1.290 . S
C1040 C239 1.283 . S
C1051 C298 1.304 . S
C1056 C416 1.303 . S
C1067 C593 1.306 . S
C1072 C475 1.298 . S
C1083 C534 1.303 . S
C1088 C652 1.288 . S
