# Generated by pormake.
# Topology wir, (6)-cn, num edge types: 1
# Building blocks:
#     Node 0, Type 0, BuildingBlock: VOLQOD_clean_sbu_1, # of connection points: 6
#     Node 1, Type 0, BuildingBlock: VOLQOD_clean_sbu_1, # of connection points: 6
#     Node 2, Type 0, BuildingBlock: VOLQOD_clean_sbu_1, # of connection points: 6
#     Node 3, Type 0, BuildingBlock: VOLQOD_clean_sbu_1, # of connection points: 6
#     Node 4, Type 0, BuildingBlock: VOLQOD_clean_sbu_1, # of connection points: 6
#     Node 5, Type 0, BuildingBlock: VOLQOD_clean_sbu_1, # of connection points: 6
#     Node 6, Type 0, BuildingBlock: VOLQOD_clean_sbu_1, # of connection points: 6
#     Node 7, Type 0, BuildingBlock: VOLQOD_clean_sbu_1, # of connection points: 6
#     Node 8, Type 0, BuildingBlock: VOLQOD_clean_sbu_1, # of connection points: 6
#     Node 9, Type 0, BuildingBlock: VOLQOD_clean_sbu_1, # of connection points: 6
#     Node 10, Type 0, BuildingBlock: VOLQOD_clean_sbu_1, # of connection points: 6
#     Node 11, Type 0, BuildingBlock: VOLQOD_clean_sbu_1, # of connection points: 6
#     Node 12, Type 0, BuildingBlock: VOLQOD_clean_sbu_1, # of connection points: 6
#     Node 13, Type 0, BuildingBlock: VOLQOD_clean_sbu_1, # of connection points: 6
#     Node 14, Type 0, BuildingBlock: VOLQOD_clean_sbu_1, # of connection points: 6
#     Node 15, Type 0, BuildingBlock: VOLQOD_clean_sbu_1, # of connection points: 6
#     Node 16, Type 0, BuildingBlock: VOLQOD_clean_sbu_1, # of connection points: 6
#     Node 17, Type 0, BuildingBlock: VOLQOD_clean_sbu_1, # of connection points: 6
#     Node 18, Type 0, BuildingBlock: VOLQOD_clean_sbu_1, # of connection points: 6
#     Node 19, Type 0, BuildingBlock: VOLQOD_clean_sbu_1, # of connection points: 6
#     Node 20, Type 0, BuildingBlock: VOLQOD_clean_sbu_1, # of connection points: 6
#     Node 21, Type 0, BuildingBlock: VOLQOD_clean_sbu_1, # of connection points: 6
#     Node 22, Type 0, BuildingBlock: VOLQOD_clean_sbu_1, # of connection points: 6
#     Node 23, Type 0, BuildingBlock: VOLQOD_clean_sbu_1, # of connection points: 6
#     Node 24, Type 0, BuildingBlock: VOLQOD_clean_sbu_1, # of connection points: 6
#     Node 25, Type 0, BuildingBlock: VOLQOD_clean_sbu_1, # of connection points: 6
#     Node 26, Type 0, BuildingBlock: VOLQOD_clean_sbu_1, # of connection points: 6
#     Node 27, Type 0, BuildingBlock: VOLQOD_clean_sbu_1, # of connection points: 6
#     Node 28, Type 0, BuildingBlock: VOLQOD_clean_sbu_1, # of connection points: 6
#     Node 29, Type 0, BuildingBlock: VOLQOD_clean_sbu_1, # of connection points: 6
#     Node 30, Type 0, BuildingBlock: VOLQOD_clean_sbu_1, # of connection points: 6
#     Node 31, Type 0, BuildingBlock: VOLQOD_clean_sbu_1, # of connection points: 6
#     Edge 32, Type (0, 0), BuildingBlock: CIFDUS_clean_linker_0, # of connection points: 2
#     Edge 33, Type (0, 0), BuildingBlock: CIFDUS_clean_linker_0, # of connection points: 2
#     Edge 34, Type (0, 0), BuildingBlock: CIFDUS_clean_linker_0, # of connection points: 2
#     Edge 35, Type (0, 0), BuildingBlock: CIFDUS_clean_linker_0, # of connection points: 2
#     Edge 36, Type (0, 0), BuildingBlock: CIFDUS_clean_linker_0, # of connection points: 2
#     Edge 37, Type (0, 0), BuildingBlock: CIFDUS_clean_linker_0, # of connection points: 2
#     Edge 38, Type (0, 0), BuildingBlock: CIFDUS_clean_linker_0, # of connection points: 2
#     Edge 39, Type (0, 0), BuildingBlock: CIFDUS_clean_linker_0, # of connection points: 2
#     Edge 40, Type (0, 0), BuildingBlock: CIFDUS_clean_linker_0, # of connection points: 2
#     Edge 41, Type (0, 0), BuildingBlock: CIFDUS_clean_linker_0, # of connection points: 2
#     Edge 42, Type (0, 0), BuildingBlock: CIFDUS_clean_linker_0, # of connection points: 2
#     Edge 43, Type (0, 0), BuildingBlock: CIFDUS_clean_linker_0, # of connection points: 2
#     Edge 44, Type (0, 0), BuildingBlock: CIFDUS_clean_linker_0, # of connection points: 2
#     Edge 45, Type (0, 0), BuildingBlock: CIFDUS_clean_linker_0, # of connection points: 2
#     Edge 46, Type (0, 0), BuildingBlock: CIFDUS_clean_linker_0, # of connection points: 2
#     Edge 47, Type (0, 0), BuildingBlock: CIFDUS_clean_linker_0, # of connection points: 2
#     Edge 48, Type (0, 0), BuildingBlock: CIFDUS_clean_linker_0, # of connection points: 2
#     Edge 49, Type (0, 0), BuildingBlock: CIFDUS_clean_linker_0, # of connection points: 2
#     Edge 50, Type (0, 0), BuildingBlock: CIFDUS_clean_linker_0, # of connection points: 2
#     Edge 51, Type (0, 0), BuildingBlock: CIFDUS_clean_linker_0, # of connection points: 2
#     Edge 52, Type (0, 0), BuildingBlock: CIFDUS_clean_linker_0, # of connection points: 2
#     Edge 53, Type (0, 0), BuildingBlock: CIFDUS_clean_linker_0, # of connection points: 2
#     Edge 54, Type (0, 0), BuildingBlock: CIFDUS_clean_linker_0, # of connection points: 2
#     Edge 55, Type (0, 0), BuildingBlock: CIFDUS_clean_linker_0, # of connection points: 2
#     Edge 56, Type (0, 0), BuildingBlock: CIFDUS_clean_linker_0, # of connection points: 2
#     Edge 57, Type (0, 0), BuildingBlock: CIFDUS_clean_linker_0, # of connection points: 2
#     Edge 58, Type (0, 0), BuildingBlock: CIFDUS_clean_linker_0, # of connection points: 2
#     Edge 59, Type (0, 0), BuildingBlock: CIFDUS_clean_linker_0, # of connection points: 2
#     Edge 60, Type (0, 0), BuildingBlock: CIFDUS_clean_linker_0, # of connection points: 2
#     Edge 61, Type (0, 0), BuildingBlock: CIFDUS_clean_linker_0, # of connection points: 2
#     Edge 62, Type (0, 0), BuildingBlock: CIFDUS_clean_linker_0, # of connection points: 2
#     Edge 63, Type (0, 0), BuildingBlock: CIFDUS_clean_linker_0, # of connection points: 2
#     Edge 64, Type (0, 0), BuildingBlock: CIFDUS_clean_linker_0, # of connection points: 2
#     Edge 65, Type (0, 0), BuildingBlock: CIFDUS_clean_linker_0, # of connection points: 2
#     Edge 66, Type (0, 0), BuildingBlock: CIFDUS_clean_linker_0, # of connection points: 2
#     Edge 67, Type (0, 0), BuildingBlock: CIFDUS_clean_linker_0, # of connection points: 2
#     Edge 68, Type (0, 0), BuildingBlock: CIFDUS_clean_linker_0, # of connection points: 2
#     Edge 69, Type (0, 0), BuildingBlock: CIFDUS_clean_linker_0, # of connection points: 2
#     Edge 70, Type (0, 0), BuildingBlock: CIFDUS_clean_linker_0, # of connection points: 2
#     Edge 71, Type (0, 0), BuildingBlock: CIFDUS_clean_linker_0, # of connection points: 2
#     Edge 72, Type (0, 0), BuildingBlock: CIFDUS_clean_linker_0, # of connection points: 2
#     Edge 73, Type (0, 0), BuildingBlock: CIFDUS_clean_linker_0, # of connection points: 2
#     Edge 74, Type (0, 0), BuildingBlock: CIFDUS_clean_linker_0, # of connection points: 2
#     Edge 75, Type (0, 0), BuildingBlock: CIFDUS_clean_linker_0, # of connection points: 2
#     Edge 76, Type (0, 0), BuildingBlock: CIFDUS_clean_linker_0, # of connection points: 2
#     Edge 77, Type (0, 0), BuildingBlock: CIFDUS_clean_linker_0, # of connection points: 2
#     Edge 78, Type (0, 0), BuildingBlock: CIFDUS_clean_linker_0, # of connection points: 2
#     Edge 79, Type (0, 0), BuildingBlock: CIFDUS_clean_linker_0, # of connection points: 2
#     Edge 80, Type (0, 0), BuildingBlock: CIFDUS_clean_linker_0, # of connection points: 2
#     Edge 81, Type (0, 0), BuildingBlock: CIFDUS_clean_linker_0, # of connection points: 2
#     Edge 82, Type (0, 0), BuildingBlock: CIFDUS_clean_linker_0, # of connection points: 2
#     Edge 83, Type (0, 0), BuildingBlock: CIFDUS_clean_linker_0, # of connection points: 2
#     Edge 84, Type (0, 0), BuildingBlock: CIFDUS_clean_linker_0, # of connection points: 2
#     Edge 85, Type (0, 0), BuildingBlock: CIFDUS_clean_linker_0, # of connection points: 2
#     Edge 86, Type (0, 0), BuildingBlock: CIFDUS_clean_linker_0, # of connection points: 2
#     Edge 87, Type (0, 0), BuildingBlock: CIFDUS_clean_linker_0, # of connection points: 2
#     Edge 88, Type (0, 0), BuildingBlock: CIFDUS_clean_linker_0, # of connection points: 2
#     Edge 89, Type (0, 0), BuildingBlock: CIFDUS_clean_linker_0, # of connection points: 2
#     Edge 90, Type (0, 0), BuildingBlock: CIFDUS_clean_linker_0, # of connection points: 2
#     Edge 91, Type (0, 0), BuildingBlock: CIFDUS_clean_linker_0, # of connection points: 2
#     Edge 92, Type (0, 0), BuildingBlock: CIFDUS_clean_linker_0, # of connection points: 2
#     Edge 93, Type (0, 0), BuildingBlock: CIFDUS_clean_linker_0, # of connection points: 2
#     Edge 94, Type (0, 0), BuildingBlock: CIFDUS_clean_linker_0, # of connection points: 2
#     Edge 95, Type (0, 0), BuildingBlock: CIFDUS_clean_linker_0, # of connection points: 2
#     Edge 96, Type (0, 0), BuildingBlock: CIFDUS_clean_linker_0, # of connection points: 2
#     Edge 97, Type (0, 0), BuildingBlock: CIFDUS_clean_linker_0, # of connection points: 2
#     Edge 98, Type (0, 0), BuildingBlock: CIFDUS_clean_linker_0, # of connection points: 2
#     Edge 99, Type (0, 0), BuildingBlock: CIFDUS_clean_linker_0, # of connection points: 2
#     Edge 100, Type (0, 0), BuildingBlock: CIFDUS_clean_linker_0, # of connection points: 2
#     Edge 101, Type (0, 0), BuildingBlock: CIFDUS_clean_linker_0, # of connection points: 2
#     Edge 102, Type (0, 0), BuildingBlock: CIFDUS_clean_linker_0, # of connection points: 2
#     Edge 103, Type (0, 0), BuildingBlock: CIFDUS_clean_linker_0, # of connection points: 2
#     Edge 104, Type (0, 0), BuildingBlock: CIFDUS_clean_linker_0, # of connection points: 2
#     Edge 105, Type (0, 0), BuildingBlock: CIFDUS_clean_linker_0, # of connection points: 2
#     Edge 106, Type (0, 0), BuildingBlock: CIFDUS_clean_linker_0, # of connection points: 2
#     Edge 107, Type (0, 0), BuildingBlock: CIFDUS_clean_linker_0, # of connection points: 2
#     Edge 108, Type (0, 0), BuildingBlock: CIFDUS_clean_linker_0, # of connection points: 2
#     Edge 109, Type (0, 0), BuildingBlock: CIFDUS_clean_linker_0, # of connection points: 2
#     Edge 110, Type (0, 0), BuildingBlock: CIFDUS_clean_linker_0, # of connection points: 2
#     Edge 111, Type (0, 0), BuildingBlock: CIFDUS_clean_linker_0, # of connection points: 2
#     Edge 112, Type (0, 0), BuildingBlock: CIFDUS_clean_linker_0, # of connection points: 2
#     Edge 113, Type (0, 0), BuildingBlock: CIFDUS_clean_linker_0, # of connection points: 2
#     Edge 114, Type (0, 0), BuildingBlock: CIFDUS_clean_linker_0, # of connection points: 2
#     Edge 115, Type (0, 0), BuildingBlock: CIFDUS_clean_linker_0, # of connection points: 2
#     Edge 116, Type (0, 0), BuildingBlock: CIFDUS_clean_linker_0, # of connection points: 2
#     Edge 117, Type (0, 0), BuildingBlock: CIFDUS_clean_linker_0, # of connection points: 2
#     Edge 118, Type (0, 0), BuildingBlock: CIFDUS_clean_linker_0, # of connection points: 2
#     Edge 119, Type (0, 0), BuildingBlock: CIFDUS_clean_linker_0, # of connection points: 2
#     Edge 120, Type (0, 0), BuildingBlock: CIFDUS_clean_linker_0, # of connection points: 2
#     Edge 121, Type (0, 0), BuildingBlock: CIFDUS_clean_linker_0, # of connection points: 2
#     Edge 122, Type (0, 0), BuildingBlock: CIFDUS_clean_linker_0, # of connection points: 2
#     Edge 123, Type (0, 0), BuildingBlock: CIFDUS_clean_linker_0, # of connection points: 2
#     Edge 124, Type (0, 0), BuildingBlock: CIFDUS_clean_linker_0, # of connection points: 2
#     Edge 125, Type (0, 0), BuildingBlock: CIFDUS_clean_linker_0, # of connection points: 2
#     Edge 126, Type (0, 0), BuildingBlock: CIFDUS_clean_linker_0, # of connection points: 2
#     Edge 127, Type (0, 0), BuildingBlock: CIFDUS_clean_linker_0, # of connection points: 2
# Relax obj value: 0.344
# Max RMSD: 0.208
# Mean RMSD: 0.208
data_MOF--net-wir--node1-VOLQOD_clean_sbu_1--edge1-CIFDUS_clean_linker_0
_symmetry_space_group_name_H-M    P1
_symmetry_Int_Tables_number       1
_symmetry_cell_setting            triclinic
loop_
_symmetry_equiv_pos_as_xyz
'x, y, z'
_cell_length_a     38.18109
_cell_length_b     38.20666
_cell_length_c     78.54823
_cell_angle_alpha  89.771253
_cell_angle_beta   89.794985
_cell_angle_gamma 90.020055
loop_
_atom_site_label
_atom_site_type_symbol
_atom_site_fract_x
_atom_site_fract_y
_atom_site_fract_z
_atom_type_partial_charge
O0 O 0.11039 0.06908 0.30963 0.0
Zn1 Zn 0.13571 0.10016 0.29314 0.0
O2 O 0.17699 0.11961 0.30404 0.0
Zn3 Zn 0.22112 0.10271 0.2943 0.0
Zn4 Zn 0.17745 0.10966 0.32806 0.0
Zn5 Zn 0.17322 0.16906 0.30088 0.0
O6 O 0.24377 0.14093 0.27959 0.0
O7 O 0.20411 0.18307 0.28223 0.0
O8 O 0.15112 0.07054 0.27351 0.0
O9 O 0.20879 0.06583 0.27734 0.0
O10 O 0.25418 0.08086 0.31243 0.0
O11 O 0.21931 0.08271 0.33503 0.0
O12 O 0.18051 0.15336 0.34181 0.0
O13 O 0.09955 0.13734 0.28611 0.0
O14 O 0.18854 0.19326 0.32158 0.0
O15 O 0.12475 0.1862 0.29484 0.0
C16 C 0.11265 0.06537 0.3257 0.0
C17 C 0.23143 0.17073 0.27525 0.0
C18 C 0.24813 0.07409 0.32815 0.0
C19 C 0.1808 0.05754 0.26952 0.0
C20 C 0.18831 0.18432 0.33716 0.0
C21 C 0.09862 0.17039 0.28844 0.0
O22 O 0.13597 0.08116 0.3343 0.0
O23 O 0.13472 0.83322 0.54588 0.0
Zn24 Zn 0.10692 0.86955 0.53358 0.0
O25 O 0.09975 0.90948 0.54829 0.0
Zn26 Zn 0.11693 0.95272 0.5386 0.0
Zn27 Zn 0.12291 0.90334 0.56982 0.0
Zn28 Zn 0.05051 0.91316 0.55169 0.0
O29 O 0.07734 0.97842 0.52711 0.0
O30 O 0.03077 0.94819 0.5357 0.0
O31 O 0.13725 0.88419 0.51387 0.0
O32 O 0.15094 0.93944 0.52031 0.0
O33 O 0.14119 0.98339 0.55644 0.0
O34 O 0.15431 0.94311 0.57581 0.0
O35 O 0.08851 0.90574 0.58886 0.0
O36 O 0.06138 0.84432 0.5275 0.0
O37 O 0.04207 0.92773 0.57557 0.0
O38 O 0.02545 0.868 0.54652 0.0
C39 C 0.15023 0.8325 0.56016 0.0
C40 C 0.04448 0.97253 0.52685 0.0
C41 C 0.15595 0.97444 0.57037 0.0
C42 C 0.15487 0.9121 0.51122 0.0
C43 C 0.05892 0.92096 0.58915 0.0
C44 C 0.03203 0.84471 0.53538 0.0
O45 O 0.14852 0.85804 0.57049 0.0
O46 O 0.3855 0.90095 0.80078 0.0
Zn47 Zn 0.36529 0.86852 0.78389 0.0
O48 O 0.32407 0.84689 0.79381 0.0
Zn49 Zn 0.28087 0.86368 0.78358 0.0
Zn50 Zn 0.32064 0.8544 0.81786 0.0
Zn51 Zn 0.33069 0.79796 0.78991 0.0
O52 O 0.25955 0.82435 0.76977 0.0
O53 O 0.3022 0.78455 0.77038 0.0
O54 O 0.35192 0.89769 0.76377 0.0
O55 O 0.29383 0.90026 0.76634 0.0
O56 O 0.24663 0.88617 0.80101 0.0
O57 O 0.27832 0.88137 0.82445 0.0
O58 O 0.31533 0.80924 0.8306 0.0
O59 O 0.40495 0.83399 0.77872 0.0
O60 O 0.31213 0.77123 0.80939 0.0
O61 O 0.38119 0.7833 0.786 0.0
C62 C 0.38259 0.9023 0.81688 0.0
C63 C 0.27328 0.79578 0.76458 0.0
C64 C 0.25079 0.89158 0.81694 0.0
C65 C 0.32231 0.90975 0.75915 0.0
C66 C 0.30878 0.77869 0.82503 0.0
C67 C 0.40762 0.80102 0.78109 0.0
O68 O 0.36095 0.88317 0.82508 0.0
O69 O 0.31698 0.14993 0.05593 0.0
Zn70 Zn 0.35025 0.13597 0.03784 0.0
O71 O 0.37311 0.09352 0.04533 0.0
Zn72 Zn 0.35368 0.05193 0.03477 0.0
Zn73 Zn 0.36967 0.08725 0.06951 0.0
Zn74 Zn 0.42109 0.10031 0.03929 0.0
O75 O 0.38986 0.03238 0.01844 0.0
O76 O 0.43158 0.07315 0.01881 0.0
O77 O 0.31996 0.1256 0.01771 0.0
O78 O 0.31358 0.06773 0.02011 0.0
O79 O 0.33645 0.01449 0.05223 0.0
O80 O 0.34988 0.04139 0.07619 0.0
O81 O 0.41671 0.08783 0.08041 0.0
O82 O 0.38415 0.17764 0.03429 0.0
O83 O 0.45067 0.08146 0.05761 0.0
O84 O 0.43542 0.15096 0.03587 0.0
C85 C 0.3147 0.1424 0.07167 0.0
C86 C 0.4183 0.0455 0.01263 0.0
C87 C 0.33742 0.01512 0.06851 0.0
C88 C 0.30498 0.09707 0.01351 0.0
C89 C 0.44616 0.08059 0.07363 0.0
C90 C 0.41761 0.1789 0.03419 0.0
O91 O 0.33572 0.12119 0.07884 0.0
O92 O 0.10855 0.89871 0.14892 0.0
Zn93 Zn 0.12684 0.87353 0.16905 0.0
O94 O 0.17128 0.8522 0.16299 0.0
Zn95 Zn 0.21171 0.87445 0.17371 0.0
Zn96 Zn 0.17839 0.85267 0.13881 0.0
Zn97 Zn 0.16717 0.80478 0.17043 0.0
O98 O 0.23418 0.8407 0.19105 0.0
O99 O 0.19317 0.79937 0.19146 0.0
O100 O 0.13444 0.90835 0.18763 0.0
O101 O 0.19264 0.91304 0.18824 0.0
O102 O 0.24615 0.89621 0.15587 0.0
O103 O 0.2191 0.8815 0.13204 0.0
O104 O 0.18831 0.80472 0.1302 0.0
O105 O 0.0881 0.83833 0.17519 0.0
O106 O 0.18843 0.77256 0.15376 0.0
O107 O 0.11761 0.78861 0.17452 0.0
C108 C 0.11369 0.89459 0.13305 0.0
C109 C 0.2203 0.81338 0.19774 0.0
C110 C 0.24402 0.89688 0.13959 0.0
C111 C 0.1623 0.92249 0.19328 0.0
C112 C 0.19389 0.77588 0.13789 0.0
C113 C 0.08889 0.80504 0.17633 0.0
O114 O 0.13767 0.87469 0.12732 0.0
O115 O 0.34431 0.82378 0.41206 0.0
Zn116 Zn 0.37286 0.84383 0.43042 0.0
O117 O 0.39173 0.88771 0.42193 0.0
Zn118 Zn 0.37096 0.92862 0.43227 0.0
Zn119 Zn 0.38746 0.89287 0.39778 0.0
Zn120 Zn 0.43994 0.88529 0.42748 0.0
O121 O 0.40606 0.95068 0.44831 0.0
O122 O 0.44798 0.91024 0.44874 0.0
O123 O 0.33884 0.85326 0.44961 0.0
O124 O 0.33178 0.91097 0.44674 0.0
O125 O 0.351 0.96413 0.41481 0.0
O126 O 0.36018 0.93471 0.39102 0.0
O127 O 0.43403 0.90205 0.38705 0.0
O128 O 0.41037 0.80572 0.43479 0.0
O129 O 0.46729 0.90999 0.40985 0.0
O130 O 0.45844 0.83628 0.42947 0.0
C131 C 0.34332 0.82878 0.39609 0.0
C132 C 0.43412 0.93791 0.45459 0.0
C133 C 0.34833 0.96139 0.39865 0.0
C134 C 0.3229 0.88167 0.45328 0.0
C135 C 0.46218 0.91279 0.39395 0.0
C136 C 0.44358 0.80725 0.43281 0.0
O137 O 0.36126 0.85243 0.38864 0.0
O138 O 0.39394 0.08405 0.64777 0.0
Zn139 Zn 0.37719 0.1136 0.66702 0.0
O140 O 0.33189 0.13315 0.66059 0.0
Zn141 Zn 0.29247 0.11113 0.67239 0.0
Zn142 Zn 0.32387 0.129 0.63655 0.0
Zn143 Zn 0.33408 0.18167 0.66602 0.0
O144 O 0.27028 0.14539 0.68915 0.0
O145 O 0.30717 0.19013 0.68668 0.0
O146 O 0.37065 0.08037 0.68676 0.0
O147 O 0.31268 0.07343 0.68686 0.0
O148 O 0.25669 0.08818 0.65611 0.0
O149 O 0.2812 0.10205 0.63142 0.0
O150 O 0.31589 0.17513 0.62551 0.0
O151 O 0.41514 0.15116 0.67164 0.0
O152 O 0.31256 0.2103 0.64784 0.0
O153 O 0.38292 0.19924 0.67 0.0
C154 C 0.38594 0.08265 0.63207 0.0
C155 C 0.28172 0.17508 0.6941 0.0
C156 C 0.25696 0.08729 0.63985 0.0
C157 C 0.34304 0.06506 0.69218 0.0
C158 C 0.30853 0.20463 0.63206 0.0
C159 C 0.41245 0.18448 0.67215 0.0
O160 O 0.36168 0.10143 0.62579 0.0
O161 O 0.14466 0.14284 0.91057 0.0
Zn162 Zn 0.10908 0.11465 0.92304 0.0
O163 O 0.09697 0.07417 0.90933 0.0
Zn164 Zn 0.1138 0.0306 0.9191 0.0
Zn165 Zn 0.11582 0.07716 0.88665 0.0
Zn166 Zn 0.04707 0.07405 0.90824 0.0
O167 O 0.074 0.00685 0.93145 0.0
O168 O 0.02841 0.04096 0.92557 0.0
O169 O 0.13418 0.09843 0.94407 0.0
O170 O 0.14785 0.04326 0.93743 0.0
O171 O 0.1374 -0.00208 0.90153 0.0
O172 O 0.14155 0.03415 0.87954 0.0
O173 O 0.07758 0.07973 0.86945 0.0
O174 O 0.06789 0.14871 0.92709 0.0
O175 O 0.03334 0.05923 0.88506 0.0
O176 O 0.02562 0.12163 0.91307 0.0
C177 C 0.15784 0.14096 0.89573 0.0
C178 C 0.04195 0.01529 0.93352 0.0
C179 C 0.14703 0.00436 0.88623 0.0
C180 C 0.15102 0.07013 0.94691 0.0
C181 C 0.04725 0.06611 0.87067 0.0
C182 C 0.03668 0.14815 0.92126 0.0
O183 O 0.14835 0.1176 0.88518 0.0
O184 O 0.91404 0.91045 0.66618 0.0
Zn185 Zn 0.88358 0.87722 0.6791 0.0
O186 O 0.84305 0.86554 0.6655 0.0
Zn187 Zn 0.7995 0.8851 0.67421 0.0
Zn188 Zn 0.84921 0.88045 0.64246 0.0
Zn189 Zn 0.84021 0.81619 0.6653 0.0
O190 O 0.77351 0.84757 0.68769 0.0
O191 O 0.80565 0.80053 0.68209 0.0
O192 O 0.86741 0.90492 0.69924 0.0
O193 O 0.81369 0.92159 0.69131 0.0
O194 O 0.76836 0.90593 0.65494 0.0
O195 O 0.80731 0.90447 0.63398 0.0
O196 O 0.85282 0.84006 0.62634 0.0
O197 O 0.91514 0.83484 0.68431 0.0
O198 O 0.82583 0.80075 0.64258 0.0
O199 O 0.88561 0.79298 0.67115 0.0
C200 C 0.91237 0.92299 0.65121 0.0
C201 C 0.78051 0.81519 0.68988 0.0
C202 C 0.77692 0.91182 0.63942 0.0
C203 C 0.84033 0.92421 0.70106 0.0
C204 C 0.83597 0.81149 0.62806 0.0
C205 C 0.91251 0.80321 0.67924 0.0
O206 O 0.88912 0.91326 0.64068 0.0
O207 O 0.83717 0.13745 0.39781 0.0
Zn208 Zn 0.86209 0.12242 0.41874 0.0
O209 O 0.88549 0.07838 0.41446 0.0
Zn210 Zn 0.8629 0.03902 0.426 0.0
Zn211 Zn 0.88691 0.06884 0.39058 0.0
Zn212 Zn 0.93258 0.08442 0.42227 0.0
O213 O 0.89685 0.0179 0.44341 0.0
O214 O 0.93707 0.06012 0.44415 0.0
O215 O 0.82763 0.11687 0.43781 0.0
O216 O 0.82469 0.05891 0.44071 0.0
O217 O 0.84127 0.00345 0.40884 0.0
O218 O 0.85821 0.028 0.38458 0.0
O219 O 0.93516 0.05741 0.38276 0.0
O220 O 0.89611 0.16224 0.42369 0.0
O221 O 0.96624 0.06177 0.40644 0.0
O222 O 0.94721 0.13512 0.42479 0.0
C223 C 0.84412 0.13144 0.38224 0.0
C224 C 0.92329 0.03259 0.45038 0.0
C225 C 0.84188 0.00408 0.39252 0.0
C226 C 0.81472 0.08962 0.44482 0.0
C227 C 0.9637 0.05351 0.39084 0.0
C228 C 0.92932 0.16321 0.42526 0.0
O229 O 0.86608 0.1082 0.37773 0.0
O230 O 0.59494 0.09736 0.15653 0.0
Zn231 Zn 0.62325 0.12537 0.17271 0.0
O232 O 0.66378 0.1438 0.16088 0.0
Zn233 Zn 0.70838 0.1224 0.16711 0.0
Zn234 Zn 0.65854 0.14075 0.13692 0.0
Zn235 Zn 0.66417 0.19184 0.16664 0.0
O236 O 0.73758 0.15765 0.18056 0.0
O237 O 0.69706 0.19851 0.18513 0.0
O238 O 0.64058 0.0928 0.19099 0.0
O239 O 0.6969 0.08463 0.18411 0.0
O240 O 0.73479 0.10116 0.14617 0.0
O241 O 0.69412 0.11008 0.12662 0.0
O242 O 0.66788 0.18664 0.1255 0.0
O243 O 0.5883 0.16343 0.18051 0.0
O244 O 0.68344 0.21907 0.14755 0.0
O245 O 0.61673 0.21146 0.17284 0.0
C246 C 0.59224 0.10021 0.14046 0.0
C247 C 0.72702 0.1854 0.18804 0.0
C248 C 0.72358 0.09763 0.13091 0.0
C249 C 0.66996 0.07737 0.19314 0.0
C250 C 0.68161 0.21419 0.13163 0.0
C251 C 0.58922 0.19664 0.17856 0.0
O252 O 0.61286 0.11927 0.13162 0.0
O253 O 0.6513 0.8556 0.90646 0.0
Zn254 Zn 0.61869 0.87518 0.92363 0.0
O255 O 0.59482 0.91461 0.91364 0.0
Zn256 Zn 0.61241 0.96016 0.92095 0.0
Zn257 Zn 0.59672 0.91298 0.88944 0.0
Zn258 Zn 0.54753 0.90815 0.92068 0.0
O259 O 0.57443 0.98407 0.93508 0.0
O260 O 0.53782 0.93949 0.93955 0.0
O261 O 0.64868 0.89291 0.94244 0.0
O262 O 0.65166 0.95049 0.93738 0.0
O263 O 0.63036 0.99128 0.90068 0.0
O264 O 0.6185 0.95527 0.87948 0.0
O265 O 0.54894 0.91303 0.87946 0.0
O266 O 0.58598 0.83425 0.93029 0.0
O267 O 0.51644 0.92349 0.90237 0.0
O268 O 0.53397 0.85837 0.9266 0.0
C269 C 0.65026 0.85626 0.89031 0.0
C270 C 0.54795 0.97048 0.94264 0.0
C271 C 0.63041 0.98423 0.88475 0.0
C272 C 0.66147 0.92313 0.94546 0.0
C273 C 0.52009 0.92198 0.88636 0.0
C274 C 0.55261 0.83177 0.93018 0.0
O275 O 0.62765 0.87423 0.8822 0.0
O276 O 0.89045 0.09674 0.79936 0.0
Zn277 Zn 0.86281 0.13062 0.78551 0.0
O278 O 0.82212 0.14519 0.79844 0.0
Zn279 Zn 0.77753 0.12834 0.7897 0.0
Zn280 Zn 0.82543 0.1306 0.82161 0.0
Zn281 Zn 0.82276 0.1948 0.79784 0.0
O282 O 0.75574 0.16663 0.77509 0.0
O283 O 0.79259 0.21093 0.77899 0.0
O284 O 0.84566 0.10221 0.76569 0.0
O285 O 0.78992 0.09087 0.77293 0.0
O286 O 0.74404 0.10892 0.80882 0.0
O287 O 0.78277 0.10695 0.82972 0.0
O288 O 0.82679 0.17139 0.83711 0.0
O289 O 0.89785 0.17097 0.7805 0.0
O290 O 0.80405 0.21152 0.81985 0.0
O291 O 0.87136 0.21459 0.79389 0.0
C292 C 0.88811 0.08622 0.81468 0.0
C293 C 0.76657 0.1974 0.77139 0.0
C294 C 0.75211 0.10145 0.82424 0.0
C295 C 0.81689 0.08559 0.76362 0.0
C296 C 0.81061 0.2001 0.83474 0.0
C297 C 0.89798 0.20242 0.78606 0.0
O298 O 0.86497 0.09793 0.82484 0.0
O299 O 0.64862 0.13659 0.56659 0.0
Zn300 Zn 0.63175 0.11887 0.54429 0.0
O301 O 0.60499 0.07776 0.54883 0.0
Zn302 Zn 0.62738 0.03494 0.54251 0.0
Zn303 Zn 0.59419 0.07431 0.57203 0.0
Zn304 Zn 0.56273 0.08306 0.53632 0.0
O305 O 0.59247 0.00857 0.52781 0.0
O306 O 0.56861 0.0555 0.51559 0.0
O307 O 0.67075 0.10652 0.5279 0.0
O308 O 0.66789 0.04814 0.52774 0.0
O309 O 0.64559 0.00755 0.5635 0.0
O310 O 0.62446 0.04059 0.58425 0.0
O311 O 0.54561 0.05776 0.57475 0.0
O312 O 0.6012 0.15923 0.53573 0.0
O313 O 0.52269 0.06139 0.54889 0.0
O314 O 0.54999 0.1336 0.53164 0.0
C315 C 0.62828 0.14064 0.57935 0.0
C316 C 0.57309 0.02254 0.51639 0.0
C317 C 0.6426 0.01466 0.57935 0.0
C318 C 0.68185 0.07677 0.52281 0.0
C319 C 0.52044 0.05273 0.56449 0.0
C320 C 0.56875 0.16114 0.532 0.0
O321 O 0.60202 0.12075 0.58194 0.0
O322 O 0.58931 0.91898 0.30683 0.0
Zn323 Zn 0.61107 0.887 0.28989 0.0
O324 O 0.65345 0.86604 0.29901 0.0
Zn325 Zn 0.69603 0.8839 0.28782 0.0
Zn326 Zn 0.65623 0.87429 0.32319 0.0
Zn327 Zn 0.64839 0.81667 0.29564 0.0
O328 O 0.71733 0.84505 0.273 0.0
O329 O 0.68056 0.80084 0.27793 0.0
O330 O 0.62325 0.91654 0.26997 0.0
O331 O 0.68132 0.92214 0.27128 0.0
O332 O 0.73158 0.90349 0.30561 0.0
O333 O 0.70058 0.89711 0.32935 0.0
O334 O 0.65589 0.83008 0.33703 0.0
O335 O 0.57282 0.85163 0.2844 0.0
O336 O 0.66132 0.79117 0.31637 0.0
O337 O 0.5995 0.80138 0.28962 0.0
C338 C 0.59443 0.92295 0.32267 0.0
C339 C 0.70699 0.8137 0.27036 0.0
C340 C 0.72834 0.90679 0.32178 0.0
C341 C 0.65174 0.93033 0.26481 0.0
C342 C 0.66148 0.79897 0.33204 0.0
C343 C 0.57223 0.81834 0.28538 0.0
O344 O 0.6182 0.90604 0.33047 0.0
O345 O 0.83264 0.84201 0.04911 0.0
Zn346 Zn 0.86636 0.86569 0.03374 0.0
O347 O 0.88246 0.90806 0.04452 0.0
Zn348 Zn 0.86117 0.94984 0.03481 0.0
Zn349 Zn 0.87356 0.9071 0.06837 0.0
Zn350 Zn 0.93167 0.90828 0.04138 0.0
O351 O 0.89607 0.97254 0.01845 0.0
O352 O 0.94263 0.93817 0.0217 0.0
O353 O 0.83834 0.87851 0.01327 0.0
O354 O 0.82238 0.93326 0.01952 0.0
O355 O 0.84247 0.98398 0.05347 0.0
O356 O 0.85274 0.95124 0.0763 0.0
O357 O 0.91803 0.90417 0.08149 0.0
O358 O 0.90514 0.82945 0.02956 0.0
O359 O 0.95444 0.9262 0.06208 0.0
O360 O 0.95161 0.86016 0.03718 0.0
C361 C 0.82485 0.84619 0.06469 0.0
C362 C 0.9268 0.96283 0.01403 0.0
C363 C 0.84186 0.97946 0.06964 0.0
C364 C 0.81916 0.90537 0.01073 0.0
C365 C 0.94714 0.91822 0.07741 0.0
C366 C 0.93799 0.83148 0.03233 0.0
O367 O 0.83971 0.8692 0.07384 0.0
O368 O 0.60861 0.59341 0.812 0.0
Zn369 Zn 0.62655 0.61839 0.79149 0.0
O370 O 0.6679 0.64459 0.79786 0.0
Zn371 Zn 0.7112 0.6273 0.78789 0.0
Zn372 Zn 0.67441 0.64462 0.822 0.0
Zn373 Zn 0.65933 0.69141 0.79017 0.0
O374 O 0.73091 0.66338 0.77122 0.0
O375 O 0.68546 0.6996 0.76907 0.0
O376 O 0.63984 0.58259 0.77388 0.0
O377 O 0.6981 0.5868 0.77351 0.0
O378 O 0.74665 0.60889 0.80575 0.0
O379 O 0.71597 0.61773 0.82929 0.0
O380 O 0.683 0.69287 0.83014 0.0
O381 O 0.58527 0.64969 0.78426 0.0
O382 O 0.67839 0.72512 0.80671 0.0
O383 O 0.6082 0.70266 0.78645 0.0
C384 C 0.6123 0.59934 0.82782 0.0
C385 C 0.71513 0.68885 0.76394 0.0
C386 C 0.74307 0.60602 0.8219 0.0
C387 C 0.66981 0.57241 0.76862 0.0
C388 C 0.68604 0.72196 0.82235 0.0
C389 C 0.5819 0.68295 0.78385 0.0
O390 O 0.63432 0.62146 0.83341 0.0
O391 O 0.65472 0.3534 0.05021 0.0
Zn392 Zn 0.62004 0.38108 0.03704 0.0
O393 O 0.60439 0.42026 0.0508 0.0
Zn394 Zn 0.62027 0.4649 0.04159 0.0
Zn395 Zn 0.62102 0.41744 0.07385 0.0
Zn396 Zn 0.5543 0.41728 0.05084 0.0
O397 O 0.58033 0.4873 0.02878 0.0
O398 O 0.53611 0.45055 0.0336 0.0
O399 O 0.64716 0.39887 0.0169 0.0
O400 O 0.65665 0.45472 0.02373 0.0
O401 O 0.64147 0.49762 0.05979 0.0
O402 O 0.64482 0.461 0.08167 0.0
O403 O 0.58124 0.41267 0.09023 0.0
O404 O 0.58099 0.34588 0.03141 0.0
O405 O 0.53698 0.42971 0.07385 0.0
O406 O 0.53559 0.36882 0.04496 0.0
C407 C 0.66591 0.35517 0.06539 0.0
C408 C 0.54896 0.47724 0.02611 0.0
C409 C 0.65008 0.49106 0.0752 0.0
C410 C 0.66255 0.42811 0.01439 0.0
C411 C 0.54994 0.42346 0.08847 0.0
C412 C 0.54923 0.34383 0.03653 0.0
O413 O 0.65449 0.37799 0.0758 0.0
O414 O 0.92279 0.40958 0.2955 0.0
Zn415 Zn 0.90148 0.37641 0.27904 0.0
O416 O 0.85915 0.3569 0.28917 0.0
Zn417 Zn 0.81727 0.37508 0.27875 0.0
Zn418 Zn 0.85557 0.36705 0.31298 0.0
Zn419 Zn 0.86208 0.30739 0.28615 0.0
O420 O 0.79821 0.33903 0.26275 0.0
O421 O 0.83332 0.29318 0.26641 0.0
O422 O 0.88893 0.40745 0.25913 0.0
O423 O 0.83207 0.41552 0.26442 0.0
O424 O 0.77967 0.39155 0.29583 0.0
O425 O 0.81018 0.38845 0.31965 0.0
O426 O 0.85634 0.32345 0.32678 0.0
O427 O 0.93953 0.33904 0.27477 0.0
O428 O 0.84379 0.28421 0.30689 0.0
O429 O 0.91165 0.29068 0.28265 0.0
C430 C 0.9164 0.41646 0.31101 0.0
C431 C 0.80821 0.30829 0.25874 0.0
C432 C 0.78205 0.39581 0.3119 0.0
C433 C 0.86025 0.42392 0.25668 0.0
C434 C 0.84605 0.29312 0.32243 0.0
C435 C 0.93953 0.30611 0.2778 0.0
O436 O 0.89241 0.40069 0.31931 0.0
O437 O 0.82593 0.65648 0.5515 0.0
Zn438 Zn 0.85281 0.63227 0.53337 0.0
O439 O 0.87216 0.58895 0.54255 0.0
Zn440 Zn 0.85268 0.5463 0.53267 0.0
Zn441 Zn 0.86717 0.58645 0.56688 0.0
Zn442 Zn 0.92078 0.59151 0.53735 0.0
O443 O 0.8903 0.52103 0.51833 0.0
O444 O 0.93144 0.56211 0.51809 0.0
O445 O 0.81997 0.62055 0.51433 0.0
O446 O 0.81625 0.56227 0.5159 0.0
O447 O 0.8295 0.51415 0.55111 0.0
O448 O 0.8384 0.54609 0.5742 0.0
O449 O 0.91322 0.57824 0.57836 0.0
O450 O 0.88994 0.66878 0.52655 0.0
O451 O 0.94861 0.57256 0.55614 0.0
O452 O 0.93854 0.63945 0.53209 0.0
C453 C 0.82614 0.65327 0.56761 0.0
C454 C 0.91932 0.53336 0.51272 0.0
C455 C 0.826 0.51899 0.56717 0.0
C456 C 0.80698 0.59153 0.5094 0.0
C457 C 0.94278 0.57008 0.57198 0.0
C458 C 0.92324 0.66745 0.52757 0.0
O459 O 0.84295 0.62905 0.57517 0.0
O460 O 0.58328 0.40245 0.66624 0.0
Zn461 Zn 0.61573 0.37024 0.67856 0.0
O462 O 0.65785 0.36402 0.6653 0.0
Zn463 Zn 0.69884 0.38501 0.675 0.0
Zn464 Zn 0.65235 0.38063 0.6427 0.0
Zn465 Zn 0.66504 0.31535 0.66356 0.0
O466 O 0.72491 0.34836 0.68894 0.0
O467 O 0.69568 0.30004 0.68231 0.0
O468 O 0.62833 0.39563 0.69995 0.0
O469 O 0.68036 0.41818 0.69253 0.0
O470 O 0.72968 0.40984 0.65656 0.0
O471 O 0.69362 0.40729 0.63451 0.0
O472 O 0.64902 0.33985 0.62723 0.0
O473 O 0.58763 0.32472 0.68136 0.0
O474 O 0.68652 0.30599 0.64105 0.0
O475 O 0.6194 0.28846 0.66564 0.0
C476 C 0.58474 0.4164 0.65154 0.0
C477 C 0.71846 0.31586 0.69118 0.0
C478 C 0.72271 0.41636 0.6409 0.0
C479 C 0.65364 0.41689 0.70239 0.0
C480 C 0.67062 0.31453 0.62749 0.0
C481 C 0.59153 0.29516 0.67401 0.0
O482 O 0.60986 0.41009 0.64131 0.0
O483 O 0.83018 0.34801 0.90797 0.0
Zn484 Zn 0.86478 0.36932 0.9236 0.0
O485 O 0.88156 0.41249 0.91329 0.0
Zn486 Zn 0.86282 0.4538 0.92449 0.0
Zn487 Zn 0.86893 0.41571 0.88969 0.0
Zn488 Zn 0.93139 0.41076 0.91489 0.0
O489 O 0.90047 0.4741 0.93952 0.0
O490 O 0.94671 0.44065 0.93388 0.0
O491 O 0.83664 0.38063 0.94449 0.0
O492 O 0.82498 0.43733 0.94049 0.0
O493 O 0.84319 0.49096 0.90768 0.0
O494 O 0.84759 0.46113 0.88369 0.0
O495 O 0.91088 0.41394 0.87464 0.0
O496 O 0.90333 0.33197 0.92722 0.0
O497 O 0.95196 0.42819 0.89332 0.0
O498 O 0.95021 0.36191 0.91911 0.0
C499 C 0.82035 0.35476 0.89287 0.0
C500 C 0.93209 0.46495 0.9423 0.0
C501 C 0.83919 0.48878 0.89156 0.0
C502 C 0.81964 0.40835 0.94824 0.0
C503 C 0.94158 0.42472 0.87805 0.0
C504 C 0.93621 0.33344 0.9242 0.0
O505 O 0.83401 0.37934 0.88414 0.0
O506 O 0.89716 0.60573 0.16584 0.0
Zn507 Zn 0.86776 0.63978 0.17856 0.0
O508 O 0.82638 0.65071 0.16531 0.0
Zn509 Zn 0.78337 0.63602 0.1765 0.0
Zn510 Zn 0.82798 0.62915 0.14324 0.0
Zn511 Zn 0.82677 0.70017 0.16236 0.0
O512 O 0.76307 0.67785 0.18911 0.0
O513 O 0.79528 0.72208 0.1792 0.0
O514 O 0.85371 0.61336 0.19952 0.0
O515 O 0.7975 0.60121 0.19437 0.0
O516 O 0.74857 0.61218 0.15974 0.0
O517 O 0.78516 0.60194 0.13831 0.0
O518 O 0.82672 0.66462 0.12457 0.0
O519 O 0.9003 0.6817 0.18231 0.0
O520 O 0.80954 0.71101 0.13934 0.0
O521 O 0.8749 0.72127 0.16573 0.0
C522 C 0.8945 0.59108 0.15142 0.0
C523 C 0.77141 0.71026 0.18893 0.0
C524 C 0.75506 0.59912 0.14507 0.0
C525 C 0.82556 0.59666 0.20289 0.0
C526 C 0.81338 0.69507 0.12528 0.0
C527 C 0.90061 0.71154 0.17492 0.0
O528 O 0.86936 0.598 0.14136 0.0
O529 O 0.64117 0.62256 0.39535 0.0
Zn530 Zn 0.61669 0.5949 0.41322 0.0
O531 O 0.60194 0.55115 0.40299 0.0
Zn532 Zn 0.62396 0.51039 0.41348 0.0
Zn533 Zn 0.61029 0.5492 0.37893 0.0
Zn534 Zn 0.55268 0.55003 0.40645 0.0
O535 O 0.58961 0.48676 0.42989 0.0
O536 O 0.54429 0.52274 0.42692 0.0
O537 O 0.65123 0.5852 0.432 0.0
O538 O 0.66119 0.5281 0.42897 0.0
O539 O 0.64808 0.47798 0.39587 0.0
O540 O 0.64362 0.51153 0.37286 0.0
O541 O 0.56671 0.5361 0.3663 0.0
O542 O 0.57597 0.62654 0.42089 0.0
O543 O 0.52914 0.5263 0.38738 0.0
O544 O 0.53076 0.59753 0.41046 0.0
C545 C 0.64367 0.6201 0.37924 0.0
C546 C 0.55969 0.49806 0.43471 0.0
C547 C 0.65498 0.48413 0.38017 0.0
C548 C 0.66785 0.55737 0.43596 0.0
C549 C 0.53752 0.52435 0.37175 0.0
C550 C 0.54333 0.62476 0.41749 0.0
O551 O 0.63108 0.59425 0.37109 0.0
O552 O 0.39209 0.39358 0.16192 0.0
Zn553 Zn 0.36522 0.3624 0.17776 0.0
O554 O 0.32329 0.34619 0.16636 0.0
Zn555 Zn 0.27904 0.36035 0.17649 0.0
Zn556 Zn 0.32181 0.36158 0.14319 0.0
Zn557 Zn 0.32583 0.29665 0.16721 0.0
O558 O 0.25912 0.32101 0.191 0.0
O559 O 0.29904 0.27957 0.18704 0.0
O560 O 0.3495 0.39288 0.19724 0.0
O561 O 0.2915 0.39674 0.1933 0.0
O562 O 0.24381 0.38162 0.15913 0.0
O563 O 0.28073 0.39066 0.13775 0.0
O564 O 0.31403 0.3215 0.12786 0.0
O565 O 0.40035 0.32262 0.18347 0.0
O566 O 0.30384 0.27849 0.14636 0.0
O567 O 0.37509 0.27851 0.16995 0.0
C568 C 0.38864 0.40132 0.14626 0.0
C569 C 0.27235 0.29132 0.19481 0.0
C570 C 0.25051 0.39388 0.14428 0.0
C571 C 0.31946 0.40564 0.20094 0.0
C572 C 0.30239 0.29114 0.13138 0.0
C573 C 0.40122 0.2912 0.17788 0.0
O574 O 0.3637 0.38936 0.13732 0.0
O575 O 0.32858 0.64583 0.91244 0.0
Zn576 Zn 0.36001 0.62085 0.92863 0.0
O577 O 0.38096 0.58084 0.91713 0.0
Zn578 Zn 0.36542 0.53599 0.92628 0.0
Zn579 Zn 0.37126 0.58049 0.89316 0.0
Zn580 Zn 0.43025 0.58624 0.92049 0.0
O581 O 0.40338 0.51517 0.94123 0.0
O582 O 0.44454 0.55627 0.9397 0.0
O583 O 0.32934 0.60339 0.94778 0.0
O584 O 0.32664 0.546 0.94264 0.0
O585 O 0.34698 0.502 0.90785 0.0
O586 O 0.3469 0.53726 0.8854 0.0
O587 O 0.4156 0.58059 0.87965 0.0
O588 O 0.39584 0.65879 0.93535 0.0
O589 O 0.45533 0.5714 0.89977 0.0
O590 O 0.44516 0.63599 0.92554 0.0
C591 C 0.32463 0.6436 0.89643 0.0
C592 C 0.43228 0.52835 0.94625 0.0
C593 C 0.34025 0.50773 0.89214 0.0
C594 C 0.3167 0.57302 0.95081 0.0
C595 C 0.44665 0.57297 0.88418 0.0
C596 C 0.42854 0.66155 0.93205 0.0
O597 O 0.34082 0.62086 0.88758 0.0
O598 O 0.08431 0.58746 0.65559 0.0
Zn599 Zn 0.11345 0.61409 0.67187 0.0
O600 O 0.15729 0.62626 0.66061 0.0
Zn601 Zn 0.19706 0.60355 0.67146 0.0
Zn602 Zn 0.15758 0.61516 0.6367 0.0
Zn603 Zn 0.16108 0.6757 0.66235 0.0
O604 O 0.22181 0.63814 0.68693 0.0
O605 O 0.19181 0.68652 0.68122 0.0
O606 O 0.12236 0.58123 0.69142 0.0
O607 O 0.17816 0.56639 0.68719 0.0
O608 O 0.23056 0.58155 0.65389 0.0
O609 O 0.19889 0.5861 0.63034 0.0
O610 O 0.16381 0.65811 0.62207 0.0
O611 O 0.0835 0.6566 0.67838 0.0
O612 O 0.18148 0.69614 0.64148 0.0
O613 O 0.11535 0.69962 0.6674 0.0
C614 C 0.08728 0.57991 0.63991 0.0
C615 C 0.21476 0.67024 0.68975 0.0
C616 C 0.22646 0.57614 0.63796 0.0
C617 C 0.14891 0.56227 0.69487 0.0
C618 C 0.17791 0.68715 0.62604 0.0
C619 C 0.08743 0.6889 0.67462 0.0
O620 O 0.11368 0.58956 0.63108 0.0
O621 O 0.15531 0.34846 0.40438 0.0
Zn622 Zn 0.12595 0.36907 0.42255 0.0
O623 O 0.1066 0.41252 0.41435 0.0
Zn624 Zn 0.12628 0.45352 0.42565 0.0
Zn625 Zn 0.1137 0.4175 0.39031 0.0
Zn626 Zn 0.05732 0.40819 0.41848 0.0
O627 O 0.08802 0.47474 0.44089 0.0
O628 O 0.04572 0.43477 0.43888 0.0
O629 O 0.15767 0.3781 0.44198 0.0
O630 O 0.16416 0.43607 0.44146 0.0
O631 O 0.14907 0.48883 0.40839 0.0
O632 O 0.14227 0.45866 0.3846 0.0
O633 O 0.06907 0.42758 0.37851 0.0
O634 O 0.08962 0.33157 0.42799 0.0
O635 O 0.03099 0.43077 0.39983 0.0
O636 O 0.04011 0.35829 0.42141 0.0
C637 C 0.15681 0.35296 0.38837 0.0
C638 C 0.05851 0.462 0.44568 0.0
C639 C 0.15363 0.48538 0.39231 0.0
C640 C 0.17238 0.4059 0.44726 0.0
C641 C 0.03902 0.43564 0.38431 0.0
C642 C 0.05653 0.33078 0.42591 0.0
O643 O 0.13944 0.37686 0.38088 0.0
O644 O 0.40125 0.57588 0.29282 0.0
Zn645 Zn 0.37452 0.61412 0.28151 0.0
O646 O 0.33545 0.62742 0.2956 0.0
Zn647 Zn 0.29101 0.61273 0.28623 0.0
Zn648 Zn 0.33936 0.6081 0.31807 0.0
Zn649 Zn 0.33787 0.67696 0.29673 0.0
O650 O 0.26872 0.65421 0.27417 0.0
O651 O 0.30533 0.69774 0.28012 0.0
O652 O 0.35675 0.59345 0.26017 0.0
O653 O 0.3028 0.57748 0.26803 0.0
O654 O 0.25798 0.59131 0.30462 0.0
O655 O 0.29558 0.58492 0.32583 0.0
O656 O 0.34417 0.64593 0.33526 0.0
O657 O 0.41001 0.65304 0.2776 0.0
O658 O 0.32359 0.69014 0.31977 0.0
O659 O 0.386 0.69675 0.29189 0.0
C660 C 0.39984 0.56257 0.30765 0.0
C661 C 0.27866 0.68596 0.27242 0.0
C662 C 0.26498 0.58144 0.31983 0.0
C663 C 0.32903 0.57552 0.25791 0.0
C664 C 0.33043 0.67619 0.33409 0.0
C665 C 0.41145 0.68411 0.28341 0.0
O666 O 0.37808 0.57335 0.31879 0.0
O667 O 0.14134 0.63909 0.05759 0.0
Zn668 Zn 0.11011 0.61517 0.04134 0.0
O669 O 0.09541 0.57124 0.05143 0.0
Zn670 Zn 0.11802 0.53142 0.04044 0.0
Zn671 Zn 0.10495 0.56945 0.07541 0.0
Zn672 Zn 0.04593 0.57013 0.04855 0.0
O673 O 0.0831 0.50807 0.02451 0.0
O674 O 0.03576 0.54078 0.02889 0.0
O675 O 0.14015 0.60634 0.02104 0.0
O676 O 0.15558 0.5506 0.02488 0.0
O677 O 0.14008 0.49707 0.05795 0.0
O678 O 0.13187 0.52706 0.08174 0.0
O679 O 0.06089 0.56436 0.08902 0.0
O680 O 0.07017 0.64933 0.03638 0.0
O681 O 0.02345 0.54901 0.06883 0.0
O682 O 0.02425 0.61785 0.04431 0.0
C683 C 0.14812 0.63487 0.07328 0.0
C684 C 0.05176 0.51689 0.0208 0.0
C685 C 0.14348 0.50027 0.07409 0.0
C686 C 0.15915 0.58004 0.01731 0.0
C687 C 0.03169 0.55139 0.08443 0.0
C688 C 0.03729 0.6466 0.03898 0.0
O689 O 0.13419 0.61038 0.08203 0.0
O690 O 0.10255 0.398 0.80706 0.0
Zn691 Zn 0.12441 0.3676 0.78947 0.0
O692 O 0.16733 0.34833 0.7991 0.0
Zn693 Zn 0.21019 0.36641 0.78869 0.0
Zn694 Zn 0.17094 0.35616 0.8232 0.0
Zn695 Zn 0.16389 0.29918 0.79531 0.0
O696 O 0.23358 0.32802 0.77472 0.0
O697 O 0.19253 0.28674 0.77563 0.0
O698 O 0.13708 0.39855 0.76936 0.0
O699 O 0.19531 0.40183 0.77142 0.0
O700 O 0.24381 0.39042 0.80591 0.0
O701 O 0.21232 0.38448 0.82946 0.0
O702 O 0.1786 0.31154 0.83595 0.0
O703 O 0.08645 0.33017 0.78418 0.0
O704 O 0.18438 0.27382 0.81474 0.0
O705 O 0.11463 0.28172 0.79134 0.0
C706 C 0.10649 0.40039 0.8231 0.0
C707 C 0.22094 0.29893 0.76962 0.0
C708 C 0.23952 0.39559 0.82187 0.0
C709 C 0.16658 0.41092 0.76446 0.0
C710 C 0.18736 0.28157 0.83036 0.0
C711 C 0.08675 0.29701 0.78647 0.0
O712 O 0.12995 0.38336 0.83108 0.0
O713 O 0.34247 0.34403 0.54884 0.0
Zn714 Zn 0.37522 0.36998 0.53358 0.0
O715 O 0.39383 0.40971 0.5458 0.0
Zn716 Zn 0.37939 0.45449 0.53631 0.0
Zn717 Zn 0.38117 0.40914 0.56936 0.0
Zn718 Zn 0.44333 0.40488 0.54428 0.0
O719 O 0.41975 0.47559 0.52287 0.0
O720 O 0.4597 0.43346 0.52514 0.0
O721 O 0.34634 0.38709 0.51394 0.0
O722 O 0.34311 0.4445 0.51876 0.0
O723 O 0.35669 0.48734 0.55411 0.0
O724 O 0.35218 0.44993 0.57566 0.0
O725 O 0.42297 0.41492 0.58436 0.0
O726 O 0.41268 0.33369 0.52725 0.0
O727 O 0.46465 0.4241 0.56507 0.0
O728 O 0.45943 0.35515 0.54019 0.0
C729 C 0.33725 0.34502 0.56482 0.0
C730 C 0.44888 0.46177 0.51848 0.0
C731 C 0.34613 0.47975 0.56916 0.0
C732 C 0.334 0.41734 0.51052 0.0
C733 C 0.45367 0.42508 0.58034 0.0
C734 C 0.44441 0.33049 0.53214 0.0
O735 O 0.35261 0.36711 0.57433 0.0
H736 H 0.20293 0.25229 0.33123 0.0
H737 H 0.18668 0.17739 0.37187 0.0
H738 H 0.18336 0.225 0.39244 0.0
H739 H 0.17319 0.28708 0.39759 0.0
H740 H 0.18206 0.36123 0.35615 0.0
H741 H 0.20079 0.3145 0.33709 0.0
C742 C 0.19919 0.24624 0.34462 0.0
C743 C 0.19386 0.21155 0.34998 0.0
C744 C 0.19569 0.27359 0.35615 0.0
C745 C 0.19005 0.20405 0.36741 0.0
C746 C 0.18808 0.23121 0.37915 0.0
C747 C 0.18008 0.29315 0.38449 0.0
C748 C 0.17556 0.32718 0.37809 0.0
C749 C 0.18901 0.26603 0.37348 0.0
C750 C 0.18474 0.33492 0.36118 0.0
C751 C 0.19537 0.30829 0.35032 0.0
H752 H 0.00816 0.96834 0.59459 0.0
H753 H 0.07466 0.89414 0.62052 0.0
H754 H 0.03857 0.89897 0.64613 0.0
H755 H 0.98015 0.91118 0.65742 0.0
H756 H 0.90997 0.97813 0.62938 0.0
H757 H 0.9561 0.99094 0.60869 0.0
C758 C 0.01508 0.95372 0.60596 0.0
C759 C 0.04283 0.92972 0.60554 0.0
C760 C 0.99355 0.95558 0.62028 0.0
C761 C 0.05265 0.91203 0.62047 0.0
C762 C 0.03207 0.9148 0.6351 0.0
C763 C 0.97561 0.92989 0.64723 0.0
C764 C 0.94184 0.94304 0.64449 0.0
C765 C 0.0012 0.93462 0.63469 0.0
C766 C 0.93589 0.96739 0.63142 0.0
C767 C 0.96206 0.9743 0.61951 0.0
H768 H 0.30217 0.78305 0.8594 0.0
H769 H 0.2915 0.71152 0.81723 0.0
H770 H 0.28549 0.66267 0.83691 0.0
H771 H 0.29624 0.63952 0.86527 0.0
H772 H 0.31168 0.71016 0.9073 0.0
H773 H 0.30117 0.76018 0.8886 0.0
C774 C 0.29794 0.75686 0.85453 0.0
C775 C 0.29872 0.75068 0.83693 0.0
C776 C 0.29529 0.72873 0.86589 0.0
C777 C 0.29213 0.71681 0.83076 0.0
C778 C 0.28853 0.68884 0.84199 0.0
C779 C 0.2963 0.66586 0.87041 0.0
C780 C 0.30592 0.67142 0.88737 0.0
C781 C 0.29205 0.69433 0.85948 0.0
C782 C 0.30486 0.70538 0.89414 0.0
C783 C 0.29928 0.734 0.88342 0.0
H784 H 0.5916 0.07642 0.10854 0.0
H785 H 0.52686 0.08843 0.15324 0.0
H786 H 0.47438 0.07729 0.13633 0.0
H787 H 0.44731 0.07601 0.10809 0.0
H788 H 0.51298 0.06736 0.06334 0.0
H789 H 0.56485 0.06498 0.0811 0.0
C790 C 0.566 0.07579 0.1146 0.0
C791 C 0.56263 0.08407 0.13185 0.0
C792 C 0.53622 0.07061 0.10478 0.0
C793 C 0.52975 0.08237 0.13984 0.0
C794 C 0.49982 0.07636 0.13018 0.0
C795 C 0.47293 0.0731 0.10225 0.0
C796 C 0.47645 0.07313 0.08446 0.0
C797 C 0.50273 0.0724 0.11249 0.0
C798 C 0.50966 0.06833 0.07703 0.0
C799 C 0.53936 0.06688 0.08715 0.0
H800 H 0.20448 0.77219 0.10388 0.0
H801 H 0.20033 0.70862 0.14946 0.0
H802 H 0.19306 0.65622 0.13233 0.0
H803 H 0.17347 0.63159 0.10536 0.0
H804 H 0.17307 0.69624 0.0601 0.0
H805 H 0.19709 0.74494 0.07615 0.0
C806 C 0.20286 0.74679 0.11006 0.0
C807 C 0.20129 0.74437 0.12786 0.0
C808 C 0.19718 0.71704 0.10022 0.0
C809 C 0.20051 0.71124 0.13572 0.0
C810 C 0.19618 0.68126 0.12595 0.0
C811 C 0.17925 0.65613 0.09894 0.0
C812 C 0.17016 0.66087 0.08181 0.0
C813 C 0.19202 0.6843 0.10831 0.0
C814 C 0.17895 0.6923 0.07346 0.0
C815 C 0.19266 0.72019 0.08261 0.0
H816 H 0.60031 0.94317 0.35536 0.0
H817 H 0.52867 0.94313 0.31297 0.0
H818 H 0.47915 0.94706 0.33251 0.0
H819 H 0.45706 0.93354 0.36108 0.0
H820 H 0.52934 0.92736 0.40319 0.0
H821 H 0.57772 0.94259 0.38433 0.0
C822 C 0.57388 0.94514 0.35039 0.0
C823 C 0.56789 0.94106 0.33291 0.0
C824 C 0.54563 0.94498 0.36166 0.0
C825 C 0.53383 0.94522 0.32648 0.0
C826 C 0.50546 0.94698 0.33765 0.0
C827 C 0.48334 0.93599 0.36616 0.0
C828 C 0.48996 0.92786 0.38328 0.0
C829 C 0.51112 0.94391 0.3552 0.0
C830 C 0.52379 0.93249 0.3899 0.0
C831 C 0.55146 0.94133 0.37916 0.0
H832 H 0.30633 0.34752 0.59557 0.0
H833 H 0.32212 0.28032 0.55218 0.0
H834 H 0.30562 0.2294 0.56925 0.0
H835 H 0.30196 0.20373 0.59774 0.0
H836 H 0.29169 0.27117 0.64152 0.0
H837 H 0.29017 0.32231 0.623 0.0
C838 C 0.30529 0.3218 0.58977 0.0
C839 C 0.3167 0.31724 0.57295 0.0
C840 C 0.29743 0.29268 0.59979 0.0
C841 C 0.31408 0.28422 0.56528 0.0
C842 C 0.30494 0.25509 0.57505 0.0
C843 C 0.29863 0.22955 0.60321 0.0
C844 C 0.29854 0.23389 0.62094 0.0
C845 C 0.29902 0.25887 0.59257 0.0
C846 C 0.293 0.2673 0.62787 0.0
C847 C 0.2921 0.29657 0.61731 0.0
H848 H 0.98775 0.02869 0.8683 0.0
H849 H 0.0601 0.09071 0.83845 0.0
H850 H 0.01801 0.09316 0.81516 0.0
H851 H 0.95638 0.09034 0.80684 0.0
H852 H 0.88221 0.03569 0.83884 0.0
H853 H 0.9295 0.01656 0.85753 0.0
C854 C 0.99456 0.04226 0.85658 0.0
C855 C 0.02622 0.06074 0.8553 0.0
C856 C 0.96979 0.04488 0.84367 0.0
C857 C 0.03539 0.07706 0.83986 0.0
C858 C 0.01134 0.0785 0.82656 0.0
C859 C 0.95089 0.07308 0.81754 0.0
C860 C 0.91616 0.06489 0.82181 0.0
C861 C 0.97774 0.06438 0.8288 0.0
C862 C 0.90896 0.04258 0.8356 0.0
C863 C 0.93587 0.03193 0.84631 0.0
H864 H 0.79898 0.75156 0.62792 0.0
H865 H 0.85608 0.82221 0.59488 0.0
H866 H 0.84987 0.78101 0.57134 0.0
H867 H 0.83718 0.72126 0.56196 0.0
H868 H 0.78757 0.64846 0.59652 0.0
H869 H 0.78076 0.69475 0.61769 0.0
C870 C 0.80984 0.75822 0.61555 0.0
C871 C 0.82882 0.78938 0.61323 0.0
C872 C 0.80722 0.73411 0.60238 0.0
C873 C 0.84196 0.79799 0.59703 0.0
C874 C 0.83835 0.77453 0.58359 0.0
C875 C 0.82377 0.71602 0.57392 0.0
C876 C 0.81281 0.68192 0.57788 0.0
C877 C 0.82224 0.74198 0.58635 0.0
C878 C 0.79606 0.67479 0.59339 0.0
C879 C 0.7925 0.70106 0.60547 0.0
H880 H 0.96838 0.03531 0.35761 0.0
H881 H 0.02998 0.04618 0.40333 0.0
H882 H 0.08365 0.04145 0.38669 0.0
H883 H 0.11193 0.04755 0.359 0.0
H884 H 0.05007 0.04215 0.31316 0.0
H885 H -0.00226 0.03008 0.33005 0.0
C886 C 0.99352 0.03598 0.36399 0.0
C887 C -0.00472 0.04245 0.38155 0.0
C888 C 0.02423 0.03442 0.35431 0.0
C889 C 0.02796 0.04217 0.38973 0.0
C890 C 0.05868 0.03947 0.38023 0.0
C891 C 0.08715 0.04293 0.35267 0.0
C892 C 0.08451 0.04711 0.33496 0.0
C893 C 0.05701 0.03769 0.36245 0.0
C894 C 0.05259 0.03984 0.32685 0.0
C895 C 0.0226 0.0332 0.3365 0.0
H896 H 0.70328 0.35484 0.0944 0.0
H897 H 0.6752 0.29018 0.05164 0.0
H898 H 0.68571 0.23765 0.06853 0.0
H899 H 0.6855 0.21219 0.09718 0.0
H900 H 0.70759 0.27802 0.14046 0.0
H901 H 0.71681 0.32788 0.12167 0.0
C902 C 0.70059 0.32921 0.08863 0.0
C903 C 0.68679 0.32617 0.07221 0.0
C904 C 0.70443 0.29935 0.09869 0.0
C905 C 0.68486 0.29308 0.06451 0.0
C906 C 0.69043 0.26302 0.07422 0.0
C907 C 0.69292 0.2373 0.10247 0.0
C908 C 0.69418 0.24191 0.12016 0.0
C909 C 0.69725 0.26608 0.09166 0.0
C910 C 0.70521 0.27415 0.12686 0.0
C911 C 0.71066 0.30267 0.11614 0.0
H912 H 0.37724 0.92252 0.84949 0.0
H913 H 0.446 0.92645 0.80577 0.0
H914 H 0.49551 0.93985 0.82412 0.0
H915 H 0.52055 0.93583 0.85265 0.0
H916 H 0.45196 0.92697 0.89633 0.0
H917 H 0.40098 0.93017 0.8779 0.0
C918 C 0.40293 0.92719 0.84397 0.0
C919 C 0.40849 0.92209 0.82653 0.0
C920 C 0.43138 0.93308 0.85459 0.0
C921 C 0.44138 0.9295 0.8193 0.0
C922 C 0.46975 0.93681 0.82978 0.0
C923 C 0.49443 0.93502 0.85812 0.0
C924 C 0.48985 0.92973 0.87565 0.0
C925 C 0.46534 0.93614 0.84748 0.0
C926 C 0.45603 0.9301 0.88276 0.0
C927 C 0.42688 0.93202 0.87226 0.0
H928 H 0.77771 0.26259 0.83408 0.0
H929 H 0.82019 0.18498 0.86843 0.0
H930 H 0.81474 0.22576 0.89206 0.0
H931 H 0.81284 0.28672 0.90072 0.0
H932 H 0.77919 0.36606 0.86511 0.0
H933 H 0.76441 0.32101 0.84441 0.0
C934 C 0.78526 0.25436 0.84678 0.0
C935 C 0.80088 0.22157 0.84942 0.0
C936 C 0.78346 0.27829 0.86008 0.0
C937 C 0.80928 0.21069 0.86602 0.0
C938 C 0.80602 0.23389 0.87954 0.0
C939 C 0.801 0.29405 0.88868 0.0
C940 C 0.7983 0.32941 0.88406 0.0
C941 C 0.79536 0.26839 0.87644 0.0
C942 C 0.7823 0.33879 0.86864 0.0
C943 C 0.7742 0.31312 0.85678 0.0
H944 H 0.51004 0.01731 0.59364 0.0
H945 H 0.45511 0.06453 0.55151 0.0
H946 H 0.40242 0.06978 0.56899 0.0
H947 H 0.3797 0.0773 0.59785 0.0
H948 H 0.43853 0.03755 0.64067 0.0
H949 H 0.48186 0.01282 0.62137 0.0
C950 C 0.48614 0.02775 0.58816 0.0
C951 C 0.48666 0.0421 0.57171 0.0
C952 C 0.45705 0.033 0.59858 0.0
C953 C 0.45542 0.05414 0.56436 0.0
C954 C 0.42546 0.05755 0.57441 0.0
C955 C 0.40161 0.0626 0.60296 0.0
C956 C 0.40692 0.06067 0.62063 0.0
C957 C 0.42713 0.04982 0.59186 0.0
C958 C 0.43463 0.04048 0.62709 0.0
C959 C 0.45935 0.02623 0.61607 0.0
H960 H 0.68118 0.73297 0.32513 0.0
H961 H 0.65228 0.80101 0.36668 0.0
H962 H 0.65036 0.75069 0.386 0.0
H963 H 0.64783 0.6871 0.38972 0.0
H964 H 0.67109 0.61941 0.34724 0.0
H965 H 0.68465 0.67028 0.32953 0.0
C966 C 0.67476 0.73696 0.33845 0.0
C967 C 0.66597 0.77044 0.34441 0.0
C968 C 0.67249 0.70803 0.34922 0.0
C969 C 0.65865 0.77532 0.36177 0.0
C970 C 0.65745 0.7466 0.37278 0.0
C971 C 0.65662 0.68347 0.3767 0.0
C972 C 0.65801 0.64977 0.36965 0.0
C973 C 0.66296 0.71275 0.36645 0.0
C974 C 0.66939 0.64527 0.3528 0.0
C975 C 0.67708 0.67426 0.3427 0.0
H976 H 0.04669 0.91058 0.13994 0.0
H977 H 0.1238 0.91069 0.0996 0.0
H978 H 0.07824 0.92412 0.0788 0.0
H979 H 0.01624 0.92646 0.07185 0.0
H980 H 0.93864 0.91954 0.11188 0.0
H981 H 0.98496 0.91839 0.13324 0.0
C982 C 0.05364 0.91439 0.12665 0.0
C983 C 0.08826 0.90935 0.12118 0.0
C984 C 0.02725 0.92032 0.11477 0.0
C985 C 0.09708 0.91412 0.10397 0.0
C986 C 0.07111 0.92167 0.09212 0.0
C987 C 0.00941 0.92533 0.08527 0.0
C988 C 0.97426 0.92251 0.09035 0.0
C989 C 0.03601 0.92334 0.09733 0.0
C990 C 0.96568 0.92114 0.10773 0.0
C991 C 0.99207 0.92054 0.11991 0.0
H992 H 0.66929 0.86367 0.85755 0.0
H993 H 0.68339 0.79739 0.90162 0.0
H994 H 0.70607 0.75075 0.88357 0.0
H995 H 0.70618 0.72483 0.85525 0.0
H996 H 0.68601 0.78977 0.8112 0.0
H997 H 0.68243 0.84126 0.82925 0.0
C998 C 0.6781 0.83927 0.86321 0.0
C999 C 0.67333 0.83313 0.88065 0.0
C1000 C 0.68957 0.81225 0.85274 0.0
C1001 C 0.68609 0.8022 0.88808 0.0
C1002 C 0.69887 0.7755 0.87777 0.0
C1003 C 0.70178 0.75037 0.84956 0.0
C1004 C 0.69459 0.75339 0.83212 0.0
C1005 C 0.69823 0.77949 0.86004 0.0
C1006 C 0.69045 0.78669 0.82474 0.0
C1007 C 0.68831 0.81613 0.83503 0.0
H1008 H 0.45764 0.39731 0.15264 0.0
H1009 H 0.38157 0.4469 0.12002 0.0
H1010 H 0.42794 0.46468 0.10033 0.0
H1011 H 0.48702 0.45511 0.08983 0.0
H1012 H 0.56214 0.39972 0.12084 0.0
H1013 H 0.51934 0.39564 0.14394 0.0
C1014 C 0.4515 0.41304 0.1415 0.0
C1015 C 0.41652 0.42042 0.1375 0.0
C1016 C 0.47794 0.42137 0.12983 0.0
C1017 C 0.40851 0.44065 0.1231 0.0
C1018 C 0.4349 0.45061 0.11185 0.0
C1019 C 0.49422 0.44253 0.10172 0.0
C1020 C 0.52715 0.42669 0.10347 0.0
C1021 C 0.46928 0.43925 0.11462 0.0
C1022 C 0.53659 0.41149 0.1191 0.0
C1023 C 0.51216 0.40911 0.13229 0.0
H1024 H 0.82928 0.19925 0.38703 0.0
H1025 H 0.83266 0.11871 0.34868 0.0
H1026 H 0.82817 0.16306 0.32629 0.0
H1027 H 0.83409 0.22419 0.31794 0.0
H1028 H 0.83738 0.30462 0.35644 0.0
H1029 H 0.82853 0.26061 0.3786 0.0
C1030 C 0.82793 0.19137 0.37378 0.0
C1031 C 0.83169 0.15607 0.36937 0.0
C1032 C 0.82748 0.21694 0.36108 0.0
C1033 C 0.83012 0.14598 0.35224 0.0
C1034 C 0.82782 0.17125 0.33949 0.0
C1035 C 0.83244 0.23218 0.33116 0.0
C1036 C 0.83721 0.26737 0.33562 0.0
C1037 C 0.82834 0.20679 0.34379 0.0
C1038 C 0.83457 0.27747 0.35275 0.0
C1039 C 0.82933 0.25241 0.36541 0.0
H1040 H 0.9422 0.56508 0.60646 0.0
H1041 H 0.00839 0.55039 0.56231 0.0
H1042 H 0.05927 0.54366 0.5805 0.0
H1043 H 0.08601 0.55365 0.60809 0.0
H1044 H 0.02061 0.57202 0.65213 0.0
H1045 H 0.9683 0.56422 0.63488 0.0
C1046 C 0.96765 0.55984 0.60085 0.0
C1047 C 0.97178 0.55956 0.5831 0.0
C1048 C -0.00302 0.55671 0.61133 0.0
C1049 C 0.0047 0.55175 0.57597 0.0
C1050 C 0.03384 0.54778 0.58634 0.0
C1051 C 0.06032 0.55517 0.614 0.0
C1052 C 0.05707 0.56467 0.63113 0.0
C1053 C 0.03048 0.55206 0.60394 0.0
C1054 C 0.02374 0.56542 0.63881 0.0
C1055 C 0.9938 0.56124 0.62895 0.0
H1056 H 0.68175 0.18721 0.5787 0.0
H1057 H 0.58312 0.16393 0.60357 0.0
H1058 H 0.5861 0.21876 0.61901 0.0
H1059 H 0.61665 0.27265 0.62565 0.0
H1060 H 0.7173 0.29459 0.60314 0.0
H1061 H 0.71321 0.2411 0.58592 0.0
C1062 C 0.66102 0.19407 0.58756 0.0
C1063 C 0.63228 0.17168 0.58997 0.0
C1064 C 0.66288 0.22555 0.59642 0.0
C1065 C 0.60564 0.18071 0.60154 0.0
C1066 C 0.6071 0.21214 0.61027 0.0
C1067 C 0.63721 0.26591 0.61664 0.0
C1068 C 0.6667 0.28722 0.61507 0.0
C1069 C 0.63541 0.23474 0.60769 0.0
C1070 C 0.69407 0.27839 0.60401 0.0
C1071 C 0.69186 0.24784 0.59442 0.0
H1072 H 0.03882 0.4099 0.81504 0.0
H1073 H 0.116 0.43266 0.85345 0.0
H1074 H 0.06977 0.44998 0.87324 0.0
H1075 H 0.00842 0.44646 0.88116 0.0
H1076 H 0.93123 0.41657 0.84383 0.0
H1077 H 0.97655 0.41484 0.82187 0.0
C1078 C 0.0455 0.41969 0.82757 0.0
C1079 C 0.08041 0.41945 0.83302 0.0
C1080 C 0.01883 0.42763 0.83911 0.0
C1081 C 0.08903 0.43216 0.8492 0.0
C1082 C 0.06269 0.4419 0.86049 0.0
C1083 C 0.00133 0.44007 0.86817 0.0
C1084 C 0.96685 0.43045 0.86421 0.0
C1085 C 0.02756 0.43772 0.85587 0.0
C1086 C 0.95786 0.42323 0.84725 0.0
C1087 C 0.98371 0.42223 0.83471 0.0
H1088 H 0.82471 0.77758 0.05811 0.0
H1089 H 0.77851 0.85599 0.09052 0.0
H1090 H 0.7614 0.81089 0.11103 0.0
H1091 H 0.77494 0.75373 0.1228 0.0
H1092 H 0.83069 0.67775 0.09249 0.0
H1093 H 0.82815 0.71693 0.06789 0.0
C1094 C 0.80962 0.78449 0.06935 0.0
C1095 C 0.80346 0.81976 0.07317 0.0
C1096 C 0.80257 0.75894 0.08162 0.0
C1097 C 0.78389 0.82881 0.08762 0.0
C1098 C 0.77441 0.80313 0.09935 0.0
C1099 C 0.78604 0.74548 0.11072 0.0
C1100 C 0.80442 0.71379 0.10958 0.0
C1101 C 0.78617 0.76873 0.09705 0.0
C1102 C 0.81732 0.70261 0.09375 0.0
C1103 C 0.81591 0.72498 0.07971 0.0
H1104 H 0.54137 0.5259 0.33725 0.0
H1105 H 0.47402 0.495 0.37899 0.0
H1106 H 0.42399 0.4934 0.35995 0.0
H1107 H 0.39796 0.51777 0.33421 0.0
H1108 H 0.46459 0.55424 0.29336 0.0
H1109 H 0.51628 0.53522 0.30897 0.0
C1110 C 0.51596 0.51784 0.34208 0.0
C1111 C 0.51093 0.51242 0.3596 0.0
C1112 C 0.48704 0.51832 0.33122 0.0
C1113 C 0.47821 0.50069 0.36561 0.0
C1114 C 0.44956 0.49973 0.35475 0.0
C1115 C 0.42377 0.52044 0.32851 0.0
C1116 C 0.42779 0.53881 0.31315 0.0
C1117 C 0.45331 0.51122 0.33791 0.0
C1118 C 0.46101 0.54095 0.30545 0.0
C1119 C 0.49062 0.53039 0.31444 0.0
H1120 H 0.27794 0.22515 0.1342 0.0
H1121 H 0.29465 0.30871 0.09784 0.0
H1122 H 0.28616 0.26795 0.07446 0.0
H1123 H 0.29213 0.20759 0.06529 0.0
H1124 H 0.28603 0.1238 0.10217 0.0
H1125 H 0.27037 0.16549 0.12436 0.0
C1126 C 0.27905 0.23461 0.12117 0.0
C1127 C 0.28881 0.26927 0.11765 0.0
C1128 C 0.27601 0.21083 0.10789 0.0
C1129 C 0.28862 0.28165 0.10079 0.0
C1130 C 0.28363 0.25843 0.08743 0.0
C1131 C 0.286 0.19835 0.07804 0.0
C1132 C 0.29164 0.16325 0.08243 0.0
C1133 C 0.28008 0.22263 0.0909 0.0
C1134 C 0.28285 0.15114 0.09878 0.0
C1135 C 0.2742 0.17494 0.11145 0.0
H1136 H 0.51609 0.56706 0.88955 0.0
H1137 H 0.43834 0.56821 0.8497 0.0
H1138 H 0.48464 0.56947 0.8282 0.0
H1139 H 0.54617 0.57972 0.82116 0.0
H1140 H 0.62292 0.58491 0.86129 0.0
H1141 H 0.57785 0.57089 0.88238 0.0
C1142 C 0.50918 0.56705 0.87617 0.0
C1143 C 0.47394 0.56836 0.8712 0.0
C1144 C 0.53571 0.56902 0.86398 0.0
C1145 C 0.46539 0.56788 0.85382 0.0
C1146 C 0.49179 0.56856 0.84154 0.0
C1147 C 0.55313 0.57687 0.83448 0.0
C1148 C 0.58746 0.5837 0.83981 0.0
C1149 C 0.52693 0.57055 0.84653 0.0
C1150 C 0.59638 0.58014 0.85704 0.0
C1151 C 0.5707 0.57225 0.86905 0.0
H1152 H 0.15993 0.68592 0.59258 0.0
H1153 H 0.21773 0.7456 0.62969 0.0
H1154 H 0.22172 0.79465 0.60998 0.0
H1155 H 0.1976 0.8244 0.58519 0.0
H1156 H 0.13647 0.76645 0.5488 0.0
H1157 H 0.1461 0.71261 0.56492 0.0
C1158 C 0.17412 0.70934 0.59618 0.0
C1159 C 0.18734 0.71269 0.61275 0.0
C1160 C 0.17552 0.73786 0.58496 0.0
C1161 C 0.20635 0.74284 0.61716 0.0
C1162 C 0.20873 0.7709 0.60589 0.0
C1163 C 0.18719 0.79979 0.58056 0.0
C1164 C 0.16545 0.79946 0.56624 0.0
C1165 C 0.19162 0.76937 0.5902 0.0
C1166 C 0.15291 0.76738 0.56 0.0
C1167 C 0.15811 0.73664 0.56929 0.0
H1168 H 0.0474 0.45087 0.35091 0.0
H1169 H 0.97056 0.45047 0.39144 0.0
H1170 H 0.92373 0.45676 0.37072 0.0
H1171 H 0.90508 0.44552 0.34169 0.0
H1172 H 0.98196 0.43793 0.30144 0.0
H1173 H 0.02824 0.45341 0.32133 0.0
C1174 C 0.02046 0.45284 0.35523 0.0
C1175 C 0.01218 0.44839 0.37252 0.0
C1176 C 0.99366 0.45494 0.34327 0.0
C1177 C 0.97741 0.45254 0.37808 0.0
C1178 C 0.95062 0.4562 0.36626 0.0
C1179 C 0.93186 0.44824 0.33719 0.0
C1180 C 0.94057 0.43886 0.32047 0.0
C1181 C 0.95841 0.45478 0.34885 0.0
C1182 C 0.97489 0.44402 0.31447 0.0
C1183 C 0.00139 0.45254 0.32586 0.0
H1184 H 0.34304 0.75978 0.4012 0.0
H1185 H 0.30505 0.84097 0.36772 0.0
H1186 H 0.28945 0.79715 0.34646 0.0
H1187 H 0.29905 0.73898 0.33547 0.0
H1188 H 0.34643 0.65936 0.36712 0.0
H1189 H 0.3454 0.69927 0.39134 0.0
C1190 C 0.33027 0.76759 0.38945 0.0
C1191 C 0.32546 0.80312 0.3857 0.0
C1192 C 0.32386 0.74271 0.37695 0.0
C1193 C 0.30919 0.8135 0.37056 0.0
C1194 C 0.3005 0.78858 0.35847 0.0
C1195 C 0.30883 0.73011 0.3477 0.0
C1196 C 0.32407 0.69689 0.34942 0.0
C1197 C 0.30979 0.75353 0.36116 0.0
C1198 C 0.33544 0.68528 0.36545 0.0
C1199 C 0.33484 0.70801 0.37926 0.0
H1200 H 0.89354 0.54643 0.12496 0.0
H1201 H 0.96146 0.58893 0.16353 0.0
H1202 H 0.01274 0.57186 0.14698 0.0
H1203 H 0.03642 0.55973 0.11863 0.0
H1204 H 0.96752 0.52204 0.0792 0.0
H1205 H 0.91862 0.52185 0.0991 0.0
C1206 C 0.9196 0.55107 0.12995 0.0
C1207 C 0.92387 0.57018 0.14499 0.0
C1208 C 0.94878 0.54275 0.12004 0.0
C1209 C 0.95759 0.57493 0.15172 0.0
C1210 C 0.98693 0.56546 0.1422 0.0
C1211 C 0.01089 0.55071 0.11449 0.0
C1212 C 0.00516 0.54249 0.09733 0.0
C1213 C 0.98263 0.55176 0.12582 0.0
C1214 C 0.97229 0.5297 0.09225 0.0
C1215 C 0.94429 0.52952 0.10362 0.0
H1216 H 0.18662 0.28403 0.86486 0.0
H1217 H 0.21469 0.21782 0.82248 0.0
H1218 H 0.21907 0.16762 0.84146 0.0
H1219 H 0.19935 0.14088 0.86795 0.0
H1220 H 0.16522 0.2061 0.90956 0.0
H1221 H 0.18053 0.2584 0.89332 0.0
C1222 C 0.19451 0.2588 0.85985 0.0
C1223 C 0.19863 0.25415 0.84226 0.0
C1224 C 0.19577 0.2298 0.87071 0.0
C1225 C 0.21002 0.22167 0.83596 0.0
C1226 C 0.21267 0.19297 0.84679 0.0
C1227 C 0.19628 0.16655 0.87364 0.0
C1228 C 0.17964 0.16989 0.88947 0.0
C1229 C 0.20314 0.19635 0.86391 0.0
C1230 C 0.17712 0.203 0.89712 0.0
C1231 C 0.18553 0.23294 0.88778 0.0
H1232 H 0.44583 0.41924 0.61462 0.0
H1233 H 0.51415 0.46136 0.57563 0.0
H1234 H 0.55846 0.47406 0.59687 0.0
H1235 H 0.58244 0.45991 0.62461 0.0
H1236 H 0.51703 0.41122 0.66282 0.0
H1237 H 0.46633 0.4165 0.64419 0.0
C1238 C 0.47015 0.43178 0.61084 0.0
C1239 C 0.4774 0.43798 0.59356 0.0
C1240 C 0.49599 0.43804 0.62303 0.0
C1241 C 0.50856 0.45512 0.58883 0.0
C1242 C 0.53381 0.46266 0.60096 0.0
C1243 C 0.55681 0.45154 0.62906 0.0
C1244 C 0.55361 0.43379 0.64462 0.0
C1245 C 0.52858 0.45225 0.61787 0.0
C1246 C 0.52022 0.42427 0.65064 0.0
C1247 C 0.49132 0.42678 0.63989 0.0
H1248 H 0.09177 0.24128 0.28431 0.0
H1249 H 0.03224 0.14526 0.28362 0.0
H1250 H 0.9783 0.17852 0.27934 0.0
H1251 H 0.94745 0.235 0.27743 0.0
H1252 H 0.00695 0.33105 0.27732 0.0
H1253 H 0.0613 0.29767 0.28007 0.0
C1254 C 0.06703 0.22756 0.28313 0.0
C1255 C 0.06621 0.19068 0.28444 0.0
C1256 C 0.036 0.24691 0.28052 0.0
C1257 C 0.03384 0.1735 0.28267 0.0
C1258 C 0.00289 0.19256 0.28027 0.0
C1259 C 0.97231 0.24871 0.27783 0.0
C1260 C 0.97289 0.28566 0.27725 0.0
C1261 C 0.00356 0.22929 0.2794 0.0
C1262 C 0.00552 0.30275 0.27767 0.0
C1263 C 0.03668 0.28363 0.27935 0.0
H1264 H 0.90736 0.73534 0.53514 0.0
H1265 H 0.98878 0.6701 0.51418 0.0
H1266 H 0.02873 0.72 0.51319 0.0
H1267 H 0.04241 0.78084 0.52072 0.0
H1268 H 0.96241 0.84521 0.54362 0.0
H1269 H 0.92029 0.79735 0.54138 0.0
C1270 C 0.93361 0.7323 0.53003 0.0
C1271 C 0.94504 0.69909 0.52468 0.0
C1272 C 0.95695 0.76094 0.53005 0.0
C1273 C 0.97936 0.69539 0.51838 0.0
C1274 C 0.00228 0.7239 0.51786 0.0
C1275 C 0.01563 0.78459 0.52499 0.0
C1276 C 0.00574 0.81663 0.53238 0.0
C1277 C 0.99167 0.75662 0.52404 0.0
C1278 C 0.97091 0.82081 0.53798 0.0
C1279 C 0.94673 0.79342 0.53669 0.0
H1280 H 0.42269 0.73076 0.78246 0.0
H1281 H 0.47154 0.83186 0.77583 0.0
H1282 H 0.52915 0.80428 0.77531 0.0
H1283 H 0.56618 0.75192 0.77825 0.0
H1284 H 0.51766 0.65062 0.78454 0.0
H1285 H 0.45974 0.67779 0.78354 0.0
C1286 C 0.44588 0.7468 0.78077 0.0
C1287 C 0.44249 0.78352 0.77928 0.0
C1288 C 0.47919 0.73071 0.78047 0.0
C1289 C 0.47306 0.80365 0.77701 0.0
C1290 C 0.50616 0.78787 0.77676 0.0
C1291 C 0.54298 0.73566 0.77928 0.0
C1292 C 0.54655 0.69915 0.78156 0.0
C1293 C 0.50961 0.75149 0.7787 0.0
C1294 C 0.51596 0.67869 0.78275 0.0
C1295 C 0.48272 0.69427 0.78224 0.0
H1296 H 0.48689 0.19098 0.02713 0.0
H1297 H 0.39082 0.24466 0.03959 0.0
H1298 H 0.42251 0.30025 0.04096 0.0
H1299 H 0.47824 0.33345 0.04006 0.0
H1300 H 0.57379 0.2797 0.02665 0.0
H1301 H 0.54162 0.22475 0.02417 0.0
C1302 C 0.47274 0.21485 0.03002 0.0
C1303 C 0.43637 0.21334 0.03334 0.0
C1304 C 0.49116 0.24691 0.0307 0.0
C1305 C 0.41868 0.24479 0.03693 0.0
C1306 C 0.43687 0.27668 0.0378 0.0
C1307 C 0.49204 0.30978 0.03647 0.0
C1308 C 0.52862 0.31097 0.03365 0.0
C1309 C 0.47323 0.27804 0.03492 0.0
C1310 C 0.54578 0.27988 0.02889 0.0
C1311 C 0.52736 0.24827 0.02752 0.0
H1312 H 0.96665 0.6943 0.18555 0.0
H1313 H 0.9054 0.78109 0.16682 0.0
H1314 H 0.95738 0.81834 0.16674 0.0
H1315 H 0.02116 0.82565 0.17047 0.0
H1316 H 0.08269 0.73787 0.18784 0.0
H1317 H 0.02995 0.70205 0.19006 0.0
C1318 C 0.96454 0.72147 0.18163 0.0
C1319 C 0.93198 0.73473 0.1762 0.0
C1320 C 0.99479 0.7427 0.18129 0.0
C1321 C 0.93002 0.77 0.17102 0.0
C1322 C 0.95981 0.79141 0.17096 0.0
C1323 C 0.02298 0.79882 0.17494 0.0
C1324 C 0.056 0.78459 0.17898 0.0
C1325 C 0.99248 0.77796 0.17586 0.0
C1326 C 0.05776 0.74958 0.18457 0.0
C1327 C 0.02754 0.72899 0.18585 0.0
H1328 H 0.42392 0.73937 0.42636 0.0
H1329 H 0.51338 0.80271 0.43939 0.0
H1330 H 0.55175 0.75202 0.43661 0.0
H1331 H 0.56086 0.69035 0.42881 0.0
H1332 H 0.47186 0.62725 0.41471 0.0
H1333 H 0.43283 0.6768 0.41955 0.0
C1334 C 0.45171 0.74193 0.42887 0.0
C1335 C 0.4656 0.77496 0.43312 0.0
C1336 C 0.47399 0.71265 0.42686 0.0
C1337 C 0.50185 0.77775 0.43607 0.0
C1338 C 0.52393 0.74872 0.43444 0.0
C1339 C 0.53291 0.68728 0.42691 0.0
C1340 C 0.51957 0.65489 0.42132 0.0
C1341 C 0.51044 0.71614 0.42956 0.0
C1342 C 0.48313 0.65174 0.41892 0.0
C1343 C 0.46065 0.68015 0.42171 0.0
H1344 H 0.52395 0.3042 0.68482 0.0
H1345 H 0.5934 0.22687 0.66336 0.0
H1346 H 0.54516 0.18497 0.66188 0.0
H1347 H 0.48206 0.17089 0.66543 0.0
H1348 H 0.41274 0.24987 0.68553 0.0
H1349 H 0.46181 0.28996 0.68887 0.0
C1350 C 0.52871 0.27808 0.67999 0.0
C1351 C 0.56249 0.26888 0.67428 0.0
C1352 C 0.50063 0.2542 0.67886 0.0
C1353 C 0.56781 0.23487 0.66789 0.0
C1354 C 0.54014 0.21079 0.66701 0.0
C1355 C 0.47781 0.19672 0.67071 0.0
C1356 C 0.4436 0.20721 0.6752 0.0
C1357 C 0.50627 0.22022 0.67229 0.0
C1358 C 0.43863 0.24103 0.68186 0.0
C1359 C 0.46675 0.26408 0.6838 0.0
H1360 H 0.05442 0.21657 0.92762 0.0
H1361 H 0.96526 0.1496 0.91914 0.0
H1362 H 0.92615 0.20008 0.92047 0.0
H1363 H 0.91712 0.26406 0.92264 0.0
H1364 H 0.00677 0.33125 0.92935 0.0
H1365 H 0.04532 0.28034 0.93021 0.0
C1366 C 0.0264 0.21294 0.92626 0.0
C1367 C 0.01298 0.1791 0.92332 0.0
C1368 C 0.00393 0.24237 0.92665 0.0
C1369 C 0.97652 0.17519 0.92137 0.0
C1370 C 0.95402 0.20414 0.92213 0.0
C1371 C 0.94503 0.26754 0.9245 0.0
C1372 C 0.95884 0.30165 0.92598 0.0
C1373 C 0.96739 0.23798 0.92457 0.0
C1374 C -0.00474 0.30547 0.92813 0.0
C1375 C 0.01743 0.27628 0.92862 0.0
H1376 H 0.01781 0.67575 0.68003 0.0
H1377 H 0.09277 0.76002 0.67645 0.0
H1378 H 0.04579 0.80289 0.67941 0.0
H1379 H 0.98273 0.81682 0.68082 0.0
H1380 H 0.90766 0.73251 0.68248 0.0
H1381 H 0.95506 0.68963 0.68268 0.0
C1382 C 0.02392 0.70347 0.68012 0.0
C1383 C 0.05885 0.71452 0.67796 0.0
C1384 C -0.0034 0.72816 0.68144 0.0
C1385 C 0.06615 0.75066 0.67797 0.0
C1386 C 0.03926 0.77528 0.67968 0.0
C1387 C 0.97682 0.78909 0.68155 0.0
C1388 C 0.94168 0.77794 0.68167 0.0
C1389 C 0.00429 0.7644 0.68112 0.0
C1390 C 0.93447 0.74183 0.68233 0.0
C1391 C 0.96158 0.71724 0.68241 0.0
H1392 H -0.00098 0.17541 0.43076 0.0
H1393 H 0.90085 0.22885 0.42261 0.0
H1394 H 0.93111 0.28514 0.42272 0.0
H1395 H 0.9858 0.31929 0.42386 0.0
H1396 H 0.08389 0.26574 0.43211 0.0
H1397 H 0.05326 0.20974 0.43329 0.0
C1398 C 0.98413 0.19934 0.42911 0.0
C1399 C 0.94759 0.19764 0.42662 0.0
C1400 C 0.00174 0.23179 0.42915 0.0
C1401 C 0.92891 0.22913 0.42458 0.0
C1402 C 0.94624 0.26145 0.42459 0.0
C1403 C 0.00052 0.29543 0.42602 0.0
C1404 C 0.03725 0.29697 0.42781 0.0
C1405 C 0.98271 0.2631 0.42667 0.0
C1406 C 0.05569 0.26559 0.43067 0.0
C1407 C 0.03817 0.23342 0.43132 0.0
H1408 H 0.52055 0.17562 0.17902 0.0
H1409 H 0.58573 0.26716 0.18413 0.0
H1410 H 0.53374 0.3043 0.18565 0.0
H1411 H 0.46942 0.31154 0.18357 0.0
H1412 H 0.40479 0.22003 0.17683 0.0
H1413 H 0.45642 0.18258 0.17799 0.0
C1414 C 0.5234 0.20362 0.18075 0.0
C1415 C 0.5572 0.2184 0.18151 0.0
C1416 C 0.49326 0.22509 0.18118 0.0
C1417 C 0.56017 0.25492 0.18349 0.0
C1418 C 0.53037 0.27628 0.18433 0.0
C1419 C 0.46659 0.28339 0.18257 0.0
C1420 C 0.43305 0.26881 0.18009 0.0
C1421 C 0.49672 0.26179 0.18289 0.0
C1422 C 0.43013 0.23217 0.17865 0.0
C1423 C 0.45974 0.21061 0.17932 0.0
H1424 H 0.4829 0.81836 0.93569 0.0
H1425 H 0.58268 0.76656 0.9301 0.0
H1426 H 0.5535 0.70963 0.93099 0.0
H1427 H 0.49925 0.6744 0.93151 0.0
H1428 H 0.39961 0.72618 0.93774 0.0
H1429 H 0.42913 0.7829 0.93856 0.0
C1430 C 0.49839 0.79465 0.93483 0.0
C1431 C 0.5351 0.79703 0.93273 0.0
C1432 C 0.48138 0.7618 0.93539 0.0
C1433 C 0.55452 0.76579 0.93176 0.0
C1434 C 0.53778 0.7331 0.93219 0.0
C1435 C 0.48394 0.69803 0.93321 0.0
C1436 C 0.44706 0.69576 0.93446 0.0
C1437 C 0.50116 0.73076 0.93372 0.0
C1438 C 0.42791 0.72686 0.93677 0.0
C1439 C 0.44481 0.75944 0.93717 0.0
H1440 H 0.01774 0.31827 0.78664 0.0
H1441 H 0.08267 0.2266 0.78118 0.0
H1442 H 0.03069 0.1897 0.77933 0.0
H1443 H 0.96642 0.18253 0.78079 0.0
H1444 H 0.9015 0.27373 0.78778 0.0
H1445 H 0.95328 0.31123 0.78739 0.0
C1446 C 0.02053 0.29029 0.78484 0.0
C1447 C 0.05434 0.27545 0.78405 0.0
C1448 C 0.99028 0.26885 0.78413 0.0
C1449 C 0.05717 0.23894 0.78191 0.0
C1450 C 0.02735 0.21769 0.78084 0.0
C1451 C 0.96354 0.21064 0.782 0.0
C1452 C 0.92985 0.22509 0.78427 0.0
C1453 C 0.9937 0.23221 0.78215 0.0
C1454 C 0.92693 0.26167 0.78605 0.0
C1455 C 0.95664 0.28326 0.78584 0.0
H1456 H 0.5144 0.31745 0.53622 0.0
H1457 H 0.41763 0.26761 0.52165 0.0
H1458 H 0.44786 0.21151 0.51919 0.0
H1459 H 0.501 0.17568 0.52289 0.0
H1460 H 0.59784 0.22575 0.53723 0.0
H1461 H 0.56843 0.28241 0.53786 0.0
C1462 C 0.49989 0.2944 0.53239 0.0
C1463 C 0.46359 0.29693 0.52926 0.0
C1464 C 0.51749 0.26207 0.53096 0.0
C1465 C 0.44548 0.26665 0.52416 0.0
C1466 C 0.46278 0.23444 0.52279 0.0
C1467 C 0.51585 0.199 0.52595 0.0
C1468 C 0.55171 0.19614 0.53007 0.0
C1469 C 0.49868 0.2317 0.52639 0.0
C1470 C 0.57033 0.22689 0.53396 0.0
C1471 C 0.55345 0.25942 0.53441 0.0
H1472 H 0.56351 0.74898 0.27856 0.0
H1473 H 0.50554 0.84424 0.28718 0.0
H1474 H 0.45058 0.81142 0.28677 0.0
H1475 H 0.41918 0.75501 0.28581 0.0
H1476 H 0.47717 0.66017 0.27615 0.0
H1477 H 0.53173 0.69347 0.27505 0.0
C1478 C 0.53884 0.76264 0.28019 0.0
C1479 C 0.53876 0.79904 0.28302 0.0
C1480 C 0.50726 0.74362 0.27986 0.0
C1481 C 0.50646 0.8163 0.28494 0.0
C1482 C 0.47498 0.7975 0.2848 0.0
C1483 C 0.44373 0.74166 0.28335 0.0
C1484 C 0.44402 0.70504 0.28121 0.0
C1485 C 0.47509 0.76106 0.28257 0.0
C1486 C 0.47607 0.68827 0.27783 0.0
C1487 C 0.50736 0.7073 0.27726 0.0
H1488 H 0.91847 0.7624 0.0335 0.0
H1489 H 0.00906 0.82935 0.02888 0.0
H1490 H 0.0475 0.77838 0.02964 0.0
H1491 H 0.05592 0.7149 0.03317 0.0
H1492 H 0.96556 0.64797 0.03903 0.0
H1493 H 0.92689 0.69851 0.03622 0.0
C1494 C 0.94659 0.76581 0.03242 0.0
C1495 C 0.96072 0.79982 0.0311 0.0
C1496 C 0.96878 0.73627 0.03324 0.0
C1497 C -0.00266 0.80361 0.02994 0.0
C1498 C 0.01943 0.77441 0.0304 0.0
C1499 C 0.02777 0.71126 0.0337 0.0
C1500 C 0.01386 0.67747 0.03634 0.0
C1501 C 0.00552 0.74062 0.0323 0.0
C1502 C 0.9772 0.67354 0.03707 0.0
C1503 C 0.95495 0.70251 0.03545 0.0
H1504 H 0.20645 0.23102 0.26204 0.0
H1505 H 0.2882 0.1541 0.25511 0.0
H1506 H 0.3071 0.18424 0.22906 0.0
H1507 H 0.29926 0.23147 0.20818 0.0
H1508 H 0.21647 0.30728 0.21522 0.0
H1509 H 0.19845 0.27754 0.24136 0.0
C1510 C 0.22861 0.22077 0.25497 0.0
C1511 C 0.24595 0.19029 0.26057 0.0
C1512 C 0.23868 0.23762 0.23994 0.0
C1513 C 0.27452 0.17757 0.25115 0.0
C1514 C 0.28514 0.19464 0.23621 0.0
C1515 C 0.27706 0.24141 0.21532 0.0
C1516 C 0.25914 0.27157 0.2097 0.0
C1517 C 0.26711 0.22444 0.23042 0.0
C1518 C 0.2306 0.28409 0.2192 0.0
C1519 C 0.22044 0.26723 0.23419 0.0
H1520 H 0.97838 0.05914 0.46742 0.0
H1521 H 0.90441 0.97352 0.46847 0.0
H1522 H 0.93364 0.94937 0.49364 0.0
H1523 H 0.98244 0.95091 0.51397 0.0
H1524 H 0.05765 0.03529 0.51151 0.0
H1525 H 0.02503 0.06207 0.48818 0.0
C1526 C 0.96839 0.0352 0.4731 0.0
C1527 C 0.93939 0.01794 0.46594 0.0
C1528 C 0.98544 0.02142 0.48731 0.0
C1529 C 0.92682 0.98716 0.47364 0.0
C1530 C 0.94349 0.97342 0.48803 0.0
C1531 C 0.99138 0.97548 0.50852 0.0
C1532 C 0.02243 0.99116 0.51443 0.0
C1533 C 0.9731 0.99013 0.4948 0.0
C1534 C 0.0339 0.02274 0.50714 0.0
C1535 C 0.01535 0.03795 0.49378 0.0
H1536 H 0.29302 0.73213 0.75306 0.0
H1537 H 0.21657 0.81412 0.74534 0.0
H1538 H 0.19252 0.78216 0.72121 0.0
H1539 H 0.19429 0.73243 0.70222 0.0
H1540 H 0.27013 0.64987 0.70975 0.0
H1541 H 0.29394 0.68134 0.73425 0.0
C1542 C 0.27101 0.74307 0.74615 0.0
C1543 C 0.25667 0.77558 0.75092 0.0
C1544 C 0.2576 0.72479 0.73228 0.0
C1545 C 0.22802 0.78916 0.74193 0.0
C1546 C 0.2144 0.77101 0.72811 0.0
C1547 C 0.21622 0.72123 0.70909 0.0
C1548 C 0.23071 0.68897 0.70408 0.0
C1549 C 0.22928 0.73908 0.72312 0.0
C1550 C 0.25872 0.67475 0.71332 0.0
C1551 C 0.27219 0.69265 0.72731 0.0
H1552 H 0.47831 0.06746 -0.00247 0.0
H1553 H 0.4009 0.98484 -0.00366 0.0
H1554 H 0.43417 0.95532 0.97405 0.0
H1555 H 0.48547 0.95217 0.95589 0.0
H1556 H 0.56372 0.0339 0.95713 0.0
H1557 H 0.52923 0.06503 0.97863 0.0
C1558 C 0.46856 0.04302 -0.0076 0.0
C1559 C 0.43725 0.0282 -0.00133 0.0
C1560 C 0.48785 0.02616 0.97972 0.0
C1561 C 0.42496 -0.00331 -0.00821 0.0
C1562 C 0.44395 0.97982 0.97907 0.0
C1563 C 0.49521 0.97678 0.96083 0.0
C1564 C 0.52732 0.99059 0.95506 0.0
C1565 C 0.47552 0.99419 0.97312 0.0
C1566 C 0.53914 0.02273 0.96143 0.0
C1567 C 0.51949 0.04043 0.97371 0.0
H1568 H 0.30378 0.74636 0.25879 0.0
H1569 H 0.21435 0.67699 0.25806 0.0
H1570 H 0.18785 0.71233 0.2356 0.0
H1571 H 0.19174 0.7599 0.21534 0.0
H1572 H 0.28197 0.82822 0.21454 0.0
H1573 H 0.30661 0.79608 0.23882 0.0
C1574 C 0.27828 0.73918 0.25388 0.0
C1575 C 0.26103 0.709 0.26004 0.0
C1576 C 0.2636 0.75913 0.24072 0.0
C1577 C 0.22817 0.69994 0.25347 0.0
C1578 C 0.21306 0.7201 0.24063 0.0
C1579 C 0.21685 0.76802 0.22039 0.0
C1580 C 0.23524 0.79624 0.21297 0.0
C1581 C 0.23088 0.74926 0.234 0.0
C1582 C 0.26743 0.80649 0.21994 0.0
C1583 C 0.28147 0.7881 0.23378 0.0
H1584 H 0.51286 0.04257 0.50187 0.0
H1585 H 0.58184 0.95371 0.50753 0.0
H1586 H 0.54246 0.91851 0.4899 0.0
H1587 H 0.49016 0.91439 0.47217 0.0
H1588 H 0.42176 0.00386 0.46659 0.0
H1589 H 0.45933 0.0376 0.48552 0.0
C1590 C 0.51958 0.01557 0.49915 0.0
C1591 C 0.55055 0.00083 0.50564 0.0
C1592 C 0.49685 -0.00429 0.48929 0.0
C1593 C 0.55831 0.9656 0.50246 0.0
C1594 C 0.5358 0.94556 0.49247 0.0
C1595 C 0.48326 0.94122 0.47515 0.0
C1596 C 0.45346 0.95682 0.46782 0.0
C1597 C 0.5052 0.96053 0.48574 0.0
C1598 C 0.4446 0.99135 0.47203 0.0
C1599 C 0.46617 0.01068 0.48274 0.0
H1600 H 0.30455 0.23502 0.70833 0.0
H1601 H 0.22461 0.15542 0.71329 0.0
H1602 H 0.19987 0.18646 0.73774 0.0
H1603 H 0.20046 0.23648 0.75695 0.0
H1604 H 0.28007 0.31634 0.75159 0.0
H1605 H 0.3059 0.28418 0.72782 0.0
C1606 C 0.28165 0.22429 0.71468 0.0
C1607 C 0.26625 0.193 0.70891 0.0
C1608 C 0.26772 0.24215 0.72859 0.0
C1609 C 0.23683 0.17949 0.71743 0.0
C1610 C 0.22275 0.1972 0.73139 0.0
C1611 C 0.22356 0.24694 0.75066 0.0
C1612 C 0.23827 0.27891 0.75599 0.0
C1613 C 0.23794 0.2286 0.73698 0.0
C1614 C 0.26825 0.29185 0.74773 0.0
C1615 C 0.28293 0.27355 0.73414 0.0
H1616 H 0.98066 0.03773 0.94728 0.0
H1617 H 0.05796 0.95543 0.95088 0.0
H1618 H 0.02897 0.93261 0.9763 0.0
H1619 H 0.9841 0.93779 -0.00193 0.0
H1620 H 0.90662 0.01996 -0.00497 0.0
H1621 H 0.9339 0.04153 0.96872 0.0
C1622 C 0.9909 0.01447 0.95345 0.0
C1623 C 0.02151 -0.00168 0.94721 0.0
C1624 C 0.97457 0.00194 0.96826 0.0
C1625 C 0.0345 0.96836 0.95543 0.0
C1626 C 0.01808 0.95543 0.97002 0.0
C1627 C 0.97315 0.9606 -0.00822 0.0
C1628 C 0.94358 0.97754 -0.00137 0.0
C1629 C 0.98859 0.97246 0.97669 0.0
C1630 C 0.92954 0.00666 -0.0099 0.0
C1631 C 0.94501 0.01886 0.97504 0.0
H1632 H 0.69285 0.74924 0.74965 0.0
H1633 H 0.77323 0.67006 0.7455 0.0
H1634 H 0.79896 0.70152 0.72132 0.0
H1635 H 0.79932 0.75188 0.70219 0.0
H1636 H 0.7203 0.83223 0.70708 0.0
H1637 H 0.69276 0.79921 0.73028 0.0
C1638 C 0.71594 0.73865 0.74345 0.0
C1639 C 0.73117 0.70731 0.74937 0.0
C1640 C 0.73061 0.7569 0.72974 0.0
C1641 C 0.76115 0.69418 0.74123 0.0
C1642 C 0.77576 0.71208 0.7274 0.0
C1643 C 0.77584 0.76214 0.70817 0.0
C1644 C 0.76178 0.79448 0.70289 0.0
C1645 C 0.76075 0.7435 0.72165 0.0
C1646 C 0.73158 0.80743 0.71091 0.0
C1647 C 0.71594 0.78862 0.72418 0.0
H1648 H 0.82282 0.24326 0.24655 0.0
H1649 H 0.7551 0.33269 0.23898 0.0
H1650 H 0.72632 0.30292 0.21559 0.0
H1651 H 0.71905 0.25172 0.19813 0.0
H1652 H 0.78453 0.16083 0.20554 0.0
H1653 H 0.81638 0.19162 0.2281 0.0
C1654 C 0.80176 0.25625 0.23979 0.0
C1655 C 0.79093 0.29007 0.2446 0.0
C1656 C 0.78521 0.23896 0.22635 0.0
C1657 C 0.76379 0.30662 0.23564 0.0
C1658 C 0.74738 0.28968 0.22223 0.0
C1659 C 0.74028 0.23843 0.20465 0.0
C1660 C 0.74917 0.20388 0.20038 0.0
C1661 C 0.75771 0.25586 0.21762 0.0
C1662 C 0.77722 0.18743 0.20867 0.0
C1663 C 0.79521 0.20493 0.2216 0.0
H1664 H 0.69743 0.2535 0.70406 0.0
H1665 H 0.77254 0.33649 0.71176 0.0
H1666 H 0.79266 0.30776 0.73784 0.0
H1667 H 0.78815 0.25982 0.75846 0.0
H1668 H 0.71237 0.17733 0.75084 0.0
H1669 H 0.69262 0.20592 0.72472 0.0
C1670 C 0.71852 0.26522 0.71129 0.0
C1671 C 0.73367 0.29703 0.70587 0.0
C1672 C 0.72933 0.24905 0.72639 0.0
C1673 C 0.7606 0.31196 0.71558 0.0
C1674 C 0.77193 0.29566 0.73053 0.0
C1675 C 0.76708 0.24813 0.75121 0.0
C1676 C 0.75171 0.21643 0.75666 0.0
C1677 C 0.75621 0.2644 0.73612 0.0
C1678 C 0.72455 0.20174 0.74701 0.0
C1679 C 0.71342 0.21794 0.73202 0.0
H1680 H 0.72977 0.83226 0.2388 0.0
H1681 H 0.71968 0.74467 0.27325 0.0
H1682 H 0.73606 0.70431 0.25062 0.0
H1683 H 0.75108 0.6936 0.22084 0.0
H1684 H 0.76206 0.78067 0.18614 0.0
H1685 H 0.74662 0.8215 0.20888 0.0
C1686 C 0.73204 0.80443 0.24136 0.0
C1687 C 0.72391 0.79136 0.2576 0.0
C1688 C 0.74058 0.78123 0.22815 0.0
C1689 C 0.7261 0.75521 0.2608 0.0
C1690 C 0.7351 0.73211 0.24785 0.0
C1691 C 0.74946 0.72146 0.21821 0.0
C1692 C 0.75709 0.73413 0.20185 0.0
C1693 C 0.74166 0.74475 0.23141 0.0
C1694 C 0.75586 0.77035 0.19866 0.0
C1695 C 0.74738 0.79371 0.21167 0.0
H1696 H 0.48999 0.45209 0.01151 0.0
H1697 H 0.56297 0.53849 0.00929 0.0
H1698 H 0.53356 0.56111 -0.01601 0.0
H1699 H 0.48893 0.55512 0.96215 0.0
H1700 H 0.41622 0.46845 0.96402 0.0
H1701 H 0.4445 0.44667 -0.01015 0.0
C1702 C 0.49925 0.47615 0.00566 0.0
C1703 C 0.52862 0.49364 0.0123 0.0
C1704 C 0.48277 0.48853 -0.00906 0.0
C1705 C 0.5404 0.52458 0.00445 0.0
C1706 C 0.52375 0.53739 -0.01006 0.0
C1707 C 0.47928 0.53131 0.96809 0.0
C1708 C 0.4506 0.5133 0.96108 0.0
C1709 C 0.4953 0.51925 -0.01704 0.0
C1710 C 0.43838 0.48268 0.96908 0.0
C1711 C 0.45439 0.47035 -0.01611 0.0
H1712 H 0.98332 0.55239 0.50138 0.0
H1713 H 0.9044 0.47213 0.49574 0.0
H1714 H 0.94151 0.44265 0.47467 0.0
H1715 H -0.00453 0.44067 0.45784 0.0
H1716 H 0.07375 0.52159 0.46354 0.0
H1717 H 0.03714 0.5501 0.48497 0.0
C1718 C 0.97394 0.52844 0.4956 0.0
C1719 C 0.94092 0.51452 0.5001 0.0
C1720 C -0.00479 0.51191 0.48361 0.0
C1721 C 0.92959 0.48338 0.49249 0.0
C1722 C 0.95079 0.4666 0.48047 0.0
C1723 C 0.00472 0.46454 0.46375 0.0
C1724 C 0.03737 0.47908 0.45904 0.0
C1725 C 0.98354 0.48078 0.47593 0.0
C1726 C 0.0488 0.50991 0.4669 0.0
C1727 C 0.02787 0.52619 0.47912 0.0
H1728 H 0.98917 0.53653 0.00821 0.0
H1729 H 0.07441 0.4642 -0.00034 0.0
H1730 H 0.0453 0.44298 0.97394 0.0
H1731 H -0.00415 0.44535 0.95415 0.0
H1732 H 0.91126 0.51833 0.96303 0.0
H1733 H 0.94074 0.53957 -0.01155 0.0
C1734 C 0.0015 0.51595 0.00084 0.0
C1735 C 0.0339 0.50182 0.00591 0.0
C1736 C 0.98502 0.5044 -0.01391 0.0
C1737 C 0.04941 0.47537 -0.00392 0.0
C1738 C 0.03288 0.4634 -0.01864 0.0
C1739 C 0.98393 0.46613 0.96154 0.0
C1740 C 0.95135 0.48026 0.95669 0.0
C1741 C 0.00077 0.47789 0.97624 0.0
C1742 C 0.93629 0.50705 0.96646 0.0
C1743 C 0.95303 0.51907 -0.01897 0.0
H1744 H 0.50775 0.43464 0.50437 0.0
H1745 H 0.4341 0.52006 0.49952 0.0
H1746 H 0.46214 0.53794 0.47292 0.0
H1747 H 0.50483 0.52753 0.45071 0.0
H1748 H 0.57875 0.4423 0.45501 0.0
H1749 H 0.55239 0.42551 0.48237 0.0
C1750 C 0.49796 0.45743 0.49762 0.0
C1751 C 0.46868 0.47592 0.50388 0.0
C1752 C 0.51369 0.46707 0.48221 0.0
C1753 C 0.45652 0.50539 0.49499 0.0
C1754 C 0.47237 0.51546 0.47974 0.0
C1755 C 0.51523 0.50505 0.45749 0.0
C1756 C 0.54348 0.48584 0.45072 0.0
C1757 C 0.50043 0.49604 0.47313 0.0
C1758 C 0.55682 0.45725 0.45988 0.0
C1759 C 0.5419 0.44782 0.47553 0.0
H1760 H 0.25097 0.07277 0.36268 0.0
H1761 H 0.30291 0.03213 0.31804 0.0
H1762 H 0.33995 -0.00469 0.33618 0.0
H1763 H 0.35424 0.97154 0.36449 0.0
H1764 H 0.30239 0.01242 0.4091 0.0
H1765 H 0.26869 0.05258 0.39112 0.0
C1766 C 0.27056 0.05604 0.35686 0.0
C1767 C 0.27383 0.05494 0.33894 0.0
C1768 C 0.29159 0.03491 0.36737 0.0
C1769 C 0.29976 0.03352 0.33173 0.0
C1770 C 0.32081 0.01233 0.34212 0.0
C1771 C 0.33571 0.98938 0.37034 0.0
C1772 C 0.33056 0.98861 0.38817 0.0
C1773 C 0.31643 0.0123 0.35991 0.0
C1774 C 0.30686 0.01235 0.39548 0.0
C1775 C 0.28749 0.03521 0.38517 0.0
H1776 H 0.23937 0.09561 0.60671 0.0
H1777 H 0.21739 0.0314 0.65079 0.0
H1778 H 0.18361 0.99111 0.63303 0.0
H1779 H 0.16445 0.97189 0.60463 0.0
H1780 H 0.18567 0.03678 0.56069 0.0
H1781 H 0.216 0.07908 0.57879 0.0
C1782 C 0.22684 0.07301 0.61251 0.0
C1783 C 0.23117 0.06638 0.63007 0.0
C1784 C 0.20786 0.04987 0.60219 0.0
C1785 C 0.21439 0.03723 0.63737 0.0
C1786 C 0.19536 0.01402 0.62717 0.0
C1787 C 0.17578 -0.00472 0.59899 0.0
C1788 C 0.17339 0.00087 0.58125 0.0
C1789 C 0.19269 0.01965 0.60951 0.0
C1790 C 0.1874 0.03171 0.57424 0.0
C1791 C 0.2047 0.05588 0.5846 0.0
H1792 H 0.14841 9e-05 0.85169 0.0
H1793 H 0.18554 0.94779 0.89694 0.0
H1794 H 0.21901 0.90684 0.87931 0.0
H1795 H 0.24081 0.88861 0.85117 0.0
H1796 H 0.20248 0.93979 0.80585 0.0
H1797 H 0.16593 0.97824 0.8234 0.0
C1798 C 0.1637 0.97962 0.85772 0.0
C1799 C 0.16484 0.97735 0.87567 0.0
C1800 C 0.18261 0.95602 0.84748 0.0
C1801 C 0.18426 0.95024 0.88322 0.0
C1802 C 0.20348 0.92689 0.87312 0.0
C1803 C 0.2242 0.90796 0.84508 0.0
C1804 C 0.22469 0.91153 0.82717 0.0
C1805 C 0.2033 0.92992 0.85526 0.0
C1806 C 0.20262 0.93641 0.81955 0.0
C1807 C 0.18189 0.95855 0.82961 0.0
H1808 H 0.24992 0.89594 0.10505 0.0
H1809 H 0.29364 0.94494 0.14964 0.0
H1810 H 0.32838 0.98387 0.13135 0.0
H1811 H 0.3425 0.00696 0.10289 0.0
H1812 H 0.29745 0.95895 0.05835 0.0
H1813 H 0.26714 0.91637 0.07655 0.0
C1814 C 0.26724 0.91491 0.11086 0.0
C1815 C 0.26881 0.91762 0.12881 0.0
C1816 C 0.28672 0.9375 0.10027 0.0
C1817 C 0.29179 0.94219 0.13596 0.0
C1818 C 0.31154 0.96458 0.12547 0.0
C1819 C 0.32628 0.98705 0.09707 0.0
C1820 C 0.32207 0.98649 0.07917 0.0
C1821 C 0.30861 0.96295 0.10763 0.0
C1822 C 0.30119 0.96016 0.07199 0.0
C1823 C 0.28374 0.93587 0.08243 0.0
H1824 H 0.71677 0.95065 0.6445 0.0
H1825 H 0.78044 0.90344 0.60529 0.0
H1826 H 0.74355 0.92865 0.58338 0.0
H1827 H 0.69544 0.96724 0.57492 0.0
H1828 H 0.6321 0.01599 0.61375 0.0
H1829 H 0.6661 0.98707 0.6359 0.0
C1830 C 0.72229 0.94565 0.63118 0.0
C1831 C 0.75167 0.92554 0.62665 0.0
C1832 C 0.70104 0.96069 0.61841 0.0
C1833 C 0.75838 0.91931 0.60925 0.0
C1834 C 0.73721 0.93364 0.59661 0.0
C1835 C 0.68879 0.97121 0.58821 0.0
C1836 C 0.66137 0.99398 0.59256 0.0
C1837 C 0.70882 0.95488 0.60099 0.0
C1838 C 0.65327 -0.00117 0.60993 0.0
C1839 C 0.67273 0.98229 0.62268 0.0
H1840 H 0.84633 0.9946 0.35829 0.0
H1841 H 0.79151 0.95681 0.40291 0.0
H1842 H 0.75339 0.92147 0.38476 0.0
H1843 H 0.73281 0.90531 0.3563 0.0
H1844 H 0.78654 0.94435 0.31162 0.0
H1845 H 0.82824 0.97525 0.32987 0.0
C1846 C 0.82625 0.97844 0.36415 0.0
C1847 C 0.82165 0.97872 0.38204 0.0
C1848 C 0.80414 0.95867 0.35361 0.0
C1849 C 0.79571 0.95721 0.38927 0.0
C1850 C 0.77378 0.93714 0.37886 0.0
C1851 C 0.75372 0.92042 0.35045 0.0
C1852 C 0.7562 0.9228 0.3325 0.0
C1853 C 0.77729 0.93833 0.36102 0.0
C1854 C 0.78387 0.9421 0.32531 0.0
C1855 C 0.80763 0.95985 0.33577 0.0
H1856 H 0.7855 0.02295 0.06539 0.0
H1857 H 0.86608 0.99434 0.1011 0.0
H1858 H 0.83799 0.0292 0.12323 0.0
H1859 H 0.78761 0.06417 0.1333 0.0
H1860 H 0.70618 0.09097 0.0975 0.0
H1861 H 0.73717 0.06081 0.07496 0.0
C1862 C 0.79728 0.02508 0.07789 0.0
C1863 C 0.82782 0.00612 0.08155 0.0
C1864 C 0.7804 0.04447 0.0908 0.0
C1865 C 0.84248 0.00867 0.09794 0.0
C1866 C 0.82633 0.02847 0.11067 0.0
C1867 C 0.77675 0.06355 0.12056 0.0
C1868 C 0.74432 0.07967 0.11734 0.0
C1869 C 0.79474 0.04581 0.10741 0.0
C1870 C 0.73088 0.07863 0.10061 0.0
C1871 C 0.74866 0.06139 0.08755 0.0
H1872 H 0.67491 0.04036 0.8891 0.0
H1873 H 0.61988 0.98231 0.85051 0.0
H1874 H 0.64953 0.01538 0.82823 0.0
H1875 H 0.69571 0.0572 0.81932 0.0
H1876 H 0.75127 0.11439 0.858 0.0
H1877 H 0.71686 0.08599 0.8802 0.0
C1878 C 0.66898 0.03535 0.87584 0.0
C1879 C 0.64544 0.00847 0.87164 0.0
C1880 C 0.68656 0.05431 0.86289 0.0
C1881 C 0.63821 0.00247 0.85427 0.0
C1882 C 0.65518 0.02144 0.8414 0.0
C1883 C 0.69975 0.06389 0.83257 0.0
C1884 C 0.72637 0.08762 0.8369 0.0
C1885 C 0.68011 0.04688 0.8455 0.0
C1886 C 0.7313 0.09584 0.85423 0.0
C1887 C 0.71161 0.07958 0.86702 0.0
H1888 H 0.74874 0.60668 0.85641 0.0
H1889 H 0.79523 0.56136 0.81142 0.0
H1890 H 0.83123 0.52318 0.82932 0.0
H1891 H 0.84515 0.49898 0.8575 0.0
H1892 H 0.79822 0.5436 0.90252 0.0
H1893 H 0.76683 0.58611 0.88478 0.0
C1894 C 0.767 0.58872 0.85047 0.0
C1895 C 0.76891 0.58665 0.83251 0.0
C1896 C 0.78729 0.56659 0.86084 0.0
C1897 C 0.79312 0.56354 0.82513 0.0
C1898 C 0.81357 0.54155 0.83538 0.0
C1899 C 0.82826 0.51816 0.8635 0.0
C1900 C 0.82366 0.51774 0.88136 0.0
C1901 C 0.81017 0.54226 0.85321 0.0
C1902 C 0.80218 0.54323 0.88886 0.0
C1903 C 0.78411 0.56742 0.87869 0.0
H1904 H 0.64869 0.49594 0.10978 0.0
H1905 H 0.6905 0.54651 0.06489 0.0
H1906 H 0.72463 0.58612 0.0828 0.0
H1907 H 0.74628 0.60293 0.11107 0.0
H1908 H 0.7033 0.5542 0.15612 0.0
H1909 H 0.66544 0.51752 0.1383 0.0
C1910 C 0.66505 0.51585 0.10391 0.0
C1911 C 0.66739 0.51794 0.08596 0.0
C1912 C 0.68436 0.53874 0.11432 0.0
C1913 C 0.68823 0.54427 0.0786 0.0
C1914 C 0.70786 0.56682 0.08886 0.0
C1915 C 0.72829 0.58456 0.11701 0.0
C1916 C 0.72783 0.58098 0.13491 0.0
C1917 C 0.70667 0.56379 0.1067 0.0
C1918 C 0.70407 0.55749 0.14242 0.0
C1919 C 0.68265 0.53637 0.13221 0.0
H1920 H 0.77231 0.39108 0.34615 0.0
H1921 H 0.72529 0.43313 0.30054 0.0
H1922 H 0.68027 0.46193 0.31777 0.0
H1923 H 0.65715 0.47868 0.34579 0.0
H1924 H 0.7037 0.43644 0.39145 0.0
H1925 H 0.7459 0.40372 0.37412 0.0
C1926 C 0.75209 0.40638 0.33993 0.0
C1927 C 0.75249 0.41031 0.32203 0.0
C1928 C 0.72632 0.42283 0.34993 0.0
C1929 C 0.72572 0.42973 0.31423 0.0
C1930 C 0.70005 0.4463 0.3241 0.0
C1931 C 0.67635 0.4621 0.35199 0.0
C1932 C 0.67751 0.46036 0.36995 0.0
C1933 C 0.70053 0.44356 0.34196 0.0
C1934 C 0.70219 0.43829 0.3777 0.0
C1935 C 0.72645 0.41975 0.36778 0.0
H1936 H 0.72403 0.41562 0.60631 0.0
H1937 H 0.7785 0.45823 0.64961 0.0
H1938 H 0.81636 0.49211 0.63039 0.0
H1939 H 0.83143 0.51216 0.60149 0.0
H1940 H 0.77749 0.46905 0.55815 0.0
H1941 H 0.74204 0.43242 0.57729 0.0
C1942 C 0.74427 0.43222 0.61161 0.0
C1943 C 0.74809 0.43468 0.62947 0.0
C1944 C 0.76593 0.45151 0.60047 0.0
C1945 C 0.77488 0.45586 0.63599 0.0
C1946 C 0.79644 0.47532 0.62499 0.0
C1947 C 0.81204 0.49463 0.59616 0.0
C1948 C 0.8069 0.49369 0.57833 0.0
C1949 C 0.79181 0.47374 0.60723 0.0
C1950 C 0.78204 0.47036 0.57174 0.0
C1951 C 0.76166 0.44955 0.58271 0.0
H1952 H 0.24726 0.395 0.10994 0.0
H1953 H 0.19306 0.43199 0.15467 0.0
H1954 H 0.15347 0.46637 0.13656 0.0
H1955 H 0.13772 0.48938 0.10822 0.0
H1956 H 0.19171 0.45154 0.06356 0.0
H1957 H 0.22789 0.41357 0.08152 0.0
C1958 C 0.22663 0.41042 0.11577 0.0
C1959 C 0.22344 0.41137 0.13369 0.0
C1960 C 0.20411 0.42997 0.10529 0.0
C1961 C 0.19614 0.43088 0.14097 0.0
C1962 C 0.17365 0.45064 0.1306 0.0
C1963 C 0.15721 0.47261 0.10236 0.0
C1964 C 0.16228 0.47367 0.08451 0.0
C1965 C 0.17791 0.45093 0.11278 0.0
C1966 C 0.18725 0.45132 0.07718 0.0
C1967 C 0.20806 0.42976 0.08748 0.0
H1968 H 0.34004 0.50438 0.85748 0.0
H1969 H 0.30285 0.44986 0.90226 0.0
H1970 H 0.2705 0.40898 0.88425 0.0
H1971 H 0.24941 0.39151 0.856 0.0
H1972 H 0.28714 0.44517 0.81111 0.0
H1973 H 0.32309 0.48342 0.82898 0.0
C1974 C 0.32504 0.48342 0.86334 0.0
C1975 C 0.32358 0.48052 0.88129 0.0
C1976 C 0.3066 0.45994 0.85288 0.0
C1977 C 0.30444 0.45282 0.88856 0.0
C1978 C 0.28583 0.4295 0.87825 0.0
C1979 C 0.26573 0.41139 0.85006 0.0
C1980 C 0.26524 0.4157 0.83219 0.0
C1981 C 0.28621 0.43323 0.86042 0.0
C1982 C 0.28699 0.44123 0.82477 0.0
C1983 C 0.30738 0.46323 0.83502 0.0
H1984 H 0.34249 0.48214 0.60352 0.0
H1985 H 0.3036 0.53342 0.55835 0.0
H1986 H 0.26393 0.56875 0.57591 0.0
H1987 H 0.23747 0.58169 0.60387 0.0
H1988 H 0.27753 0.53116 0.64902 0.0
H1989 H 0.31978 0.49878 0.63162 0.0
C1990 C 0.32554 0.50127 0.59749 0.0
C1991 C 0.32571 0.50488 0.5796 0.0
C1992 C 0.30288 0.52132 0.60765 0.0
C1993 C 0.30402 0.53016 0.57205 0.0
C1994 C 0.28118 0.55016 0.58209 0.0
C1995 C 0.25552 0.56366 0.60993 0.0
C1996 C 0.25399 0.55845 0.62774 0.0
C1997 C 0.2799 0.5454 0.59986 0.0
C1998 C 0.27804 0.53554 0.63539 0.0
C1999 C 0.30213 0.51699 0.62543 0.0
H2000 H 0.14569 0.49843 0.35868 0.0
H2001 H 0.20662 0.52983 0.40217 0.0
H2002 H 0.24543 0.56391 0.38342 0.0
H2003 H 0.26491 0.58005 0.35444 0.0
H2004 H 0.20352 0.54879 0.31104 0.0
H2005 H 0.16183 0.51924 0.33006 0.0
C2006 C 0.16723 0.51307 0.36412 0.0
C2007 C 0.17346 0.51127 0.38184 0.0
C2008 C 0.18951 0.53221 0.35325 0.0
C2009 C 0.20116 0.53081 0.38866 0.0
C2010 C 0.2235 0.55003 0.37789 0.0
C2011 C 0.24232 0.56689 0.3491 0.0
C2012 C 0.23768 0.56616 0.33124 0.0
C2013 C 0.21844 0.55013 0.36013 0.0
C2014 C 0.20786 0.54963 0.32465 0.0
C2015 C 0.18408 0.53267 0.33554 0.0
H2016 H 0.12721 0.03178 0.25062 0.0
H2017 H 0.23966 0.02725 0.25643 0.0
H2018 H 0.24368 0.9861 0.23295 0.0
H2019 H 0.21551 0.95086 0.2112 0.0
H2020 H 0.10306 0.95424 0.20546 0.0
H2021 H 0.09895 -0.00326 0.22851 0.0
C2022 C 0.15261 0.02184 0.24675 0.0
C2023 C 0.18304 0.03255 0.25531 0.0
C2024 C 0.1548 -0.0019 0.23326 0.0
C2025 C 0.21576 0.01939 0.25012 0.0
C2026 C 0.21814 -0.00411 0.23667 0.0
C2027 C 0.19006 0.961 0.21488 0.0
C2028 C 0.15966 0.94939 0.20662 0.0
C2029 C 0.18784 0.98503 0.2282 0.0
C2030 C 0.12691 0.96271 0.21164 0.0
C2031 C 0.12451 0.98697 0.22482 0.0
H2032 H 0.19047 0.85552 0.49982 0.0
H2033 H 0.18384 0.96792 0.49486 0.0
H2034 H 0.23569 0.96811 0.47661 0.0
H2035 H 0.28371 0.93692 0.46314 0.0
H2036 H 0.29192 0.82462 0.46848 0.0
H2037 H 0.23862 0.82393 0.48583 0.0
C2038 C 0.20007 0.87997 0.49451 0.0
C2039 C 0.18334 0.91165 0.49858 0.0
C2040 C 0.23036 0.87999 0.4844 0.0
C2041 C 0.19633 0.94322 0.49187 0.0
C2042 C 0.22601 0.94337 0.48152 0.0
C2043 C 0.27401 0.9122 0.4681 0.0
C2044 C 0.29189 0.88087 0.46455 0.0
C2045 C 0.24347 0.91198 0.47793 0.0
C2046 C 0.27879 0.84915 0.47109 0.0
C2047 C 0.24823 0.84871 0.48093 0.0
H2048 H 0.29004 0.02591 0.70483 0.0
H2049 H 0.40226 0.03927 0.70749 0.0
H2050 H 0.40589 0.99109 0.728 0.0
H2051 H 0.37686 0.94613 0.74548 0.0
H2052 H 0.26448 0.93394 0.74269 0.0
H2053 H 0.26141 0.98086 0.72169 0.0
C2054 C 0.31538 0.01843 0.70986 0.0
C2055 C 0.34582 0.03629 0.70468 0.0
C2056 C 0.31727 0.99089 0.72155 0.0
C2057 C 0.37839 0.02603 0.71131 0.0
C2058 C 0.3805 -0.00153 0.72301 0.0
C2059 C 0.35173 0.95354 0.74019 0.0
C2060 C 0.32094 0.93662 0.74567 0.0
C2061 C 0.35006 0.9808 0.72824 0.0
C2062 C 0.28856 0.94664 0.73875 0.0
C2063 C 0.28675 0.97348 0.72675 0.0
H2064 H 0.18261 0.12563 0.96169 0.0
H2065 H 0.17872 0.01269 0.96252 0.0
H2066 H 0.22603 0.01119 -0.01666 0.0
H2067 H 0.26964 0.04178 0.00043 0.0
H2068 H 0.27485 0.15473 -0.00109 0.0
H2069 H 0.22591 0.1563 0.97906 0.0
C2070 C 0.1918 0.1007 0.9666 0.0
C2071 C 0.17717 0.06933 0.96064 0.0
C2072 C 0.21947 0.1 0.97825 0.0
C2073 C 0.18965 0.0372 0.96692 0.0
C2074 C 0.21672 0.03631 0.97877 0.0
C2075 C 0.26013 0.06679 -0.00423 0.0
C2076 C 0.27599 0.09806 0.00113 0.0
C2077 C 0.23209 0.06753 -0.01565 0.0
C2078 C 0.26327 0.13021 -0.00506 0.0
C2079 C 0.23519 0.13117 -0.01636 0.0
H2080 H 0.78615 0.96513 0.71143 0.0
H2081 H 0.89657 0.94673 0.71934 0.0
H2082 H 0.89923 -0.00374 0.73871 0.0
H2083 H 0.87056 0.04516 0.75312 0.0
H2084 H 0.7598 0.06229 0.74632 0.0
H2085 H 0.75702 0.01304 0.72656 0.0
C2086 C 0.81077 0.97184 0.71744 0.0
C2087 C 0.84109 0.95229 0.71389 0.0
C2088 C 0.81216 0.00032 0.72859 0.0
C2089 C 0.87275 0.96122 0.72188 0.0
C2090 C 0.8744 0.98968 0.73289 0.0
C2091 C 0.84591 0.03832 0.74715 0.0
C2092 C 0.81552 0.05742 0.75096 0.0
C2093 C 0.84435 0.00955 0.73621 0.0
C2094 C 0.78356 0.04792 0.74348 0.0
C2095 C 0.78194 0.01977 0.73225 0.0
H2096 H 0.70561 0.1291 0.50212 0.0
H2097 H 0.72084 0.01986 0.51444 0.0
H2098 H 0.7629 0.01437 0.49127 0.0
H2099 H 0.79367 0.03966 0.46703 0.0
H2100 H 0.77913 0.14873 0.4543 0.0
H2101 H 0.73823 0.1551 0.47811 0.0
C2102 C 0.71846 0.10423 0.49985 0.0
C2103 C 0.70999 0.07493 0.50994 0.0
C2104 C 0.74237 0.10106 0.48634 0.0
C2105 C 0.72671 0.0428 0.50679 0.0
C2106 C 0.75072 0.03957 0.49353 0.0
C2107 C 0.78145 0.06483 0.46937 0.0
C2108 C 0.78919 0.09358 0.45882 0.0
C2109 C 0.75832 0.06836 0.48309 0.0
C2110 C 0.77348 0.12612 0.4622 0.0
C2111 C 0.75017 0.12981 0.47583 0.0
H2112 H 0.70585 0.96166 0.24784 0.0
H2113 H 0.59289 0.95985 0.25158 0.0
H2114 H 0.58881 0.00527 0.22996 0.0
H2115 H 0.61687 0.04566 0.21012 0.0
H2116 H 0.72963 0.0474 0.20572 0.0
H2117 H 0.73409 0.00185 0.2275 0.0
C2118 C 0.68036 0.97119 0.24392 0.0
C2119 C 0.6498 0.95735 0.25136 0.0
C2120 C 0.67808 -0.00266 0.23139 0.0
C2121 C 0.61693 0.96991 0.24606 0.0
C2122 C 0.61449 -0.00401 0.23371 0.0
C2123 C 0.64246 0.03621 0.21395 0.0
C2124 C 0.67282 0.04999 0.20636 0.0
C2125 C 0.64486 0.00992 0.22633 0.0
C2126 C 0.70578 0.03718 0.21136 0.0
C2127 C 0.70839 0.01116 0.22382 0.0
H2128 H 0.77865 0.95857 -0.00113 0.0
H2129 H 0.79722 0.84755 -0.00643 0.0
H2130 H 0.74954 0.84344 0.9732 0.0
H2131 H 0.70239 0.87092 0.95722 0.0
H2132 H 0.68422 0.98204 0.96171 0.0
H2133 H 0.73204 0.98647 -0.01778 0.0
C2134 C 0.77231 0.93348 -0.00676 0.0
C2135 C 0.7914 0.90343 -0.00222 0.0
C2136 C 0.7449 0.93126 -0.0185 0.0
C2137 C 0.78302 0.87115 -0.00972 0.0
C2138 C 0.75567 0.8687 0.97868 0.0
C2139 C 0.7087 0.8961 0.96276 0.0
C2140 C 0.68969 0.92605 0.95808 0.0
C2141 C 0.73636 0.89852 0.97429 0.0
C2142 C 0.69853 0.95858 0.96515 0.0
C2143 C 0.72582 0.96114 0.97686 0.0
H2144 H 0.61841 0.52698 0.75934 0.0
H2145 H 0.72732 0.55255 0.75061 0.0
H2146 H 0.73214 0.50535 0.73011 0.0
H2147 H 0.70537 0.45842 0.71401 0.0
H2148 H 0.5966 0.43211 0.72229 0.0
H2149 H 0.59202 0.47782 0.74385 0.0
C2150 C 0.64316 0.52222 0.75293 0.0
C2151 C 0.67234 0.54339 0.75641 0.0
C2152 C 0.64589 0.49489 0.74116 0.0
C2153 C 0.70438 0.53667 0.74816 0.0
C2154 C 0.70723 0.50969 0.73643 0.0
C2155 C 0.68064 0.46253 0.72055 0.0
C2156 C 0.65133 0.44214 0.71646 0.0
C2157 C 0.67812 0.48886 0.73276 0.0
C2158 C 0.6196 0.44752 0.72521 0.0
C2159 C 0.6169 0.47374 0.73747 0.0
H2160 H 0.78187 0.46219 0.96138 0.0
H2161 H 0.79392 0.34984 0.96401 0.0
H2162 H 0.74518 0.3461 -0.01595 0.0
H2163 H 0.6992 0.37453 0.00074 0.0
H2164 H 0.68815 0.48692 -0.0011 0.0
H2165 H 0.73633 0.49074 0.97841 0.0
C2166 C 0.77393 0.43686 0.96636 0.0
C2167 C 0.79154 0.40636 0.96117 0.0
C2168 C 0.74591 0.43485 0.97788 0.0
C2169 C 0.78096 0.37379 0.96782 0.0
C2170 C 0.75296 0.37157 0.97922 0.0
C2171 C 0.70708 0.39984 -0.00428 0.0
C2172 C 0.69001 0.43037 0.0012 0.0
C2173 C 0.73518 0.4019 -0.01574 0.0
C2174 C 0.70089 0.46303 -0.00517 0.0
C2175 C 0.72845 0.46524 -0.01684 0.0
H2176 H 0.8043 0.4646 0.24927 0.0
H2177 H 0.91544 0.4546 0.23987 0.0
H2178 H 0.91486 0.50931 0.22366 0.0
H2179 H 0.88261 0.55926 0.21191 0.0
H2180 H 0.77126 0.56797 0.22068 0.0
H2181 H 0.77234 0.51454 0.23787 0.0
C2182 C 0.82847 0.4742 0.24365 0.0
C2183 C 0.85986 0.45543 0.24575 0.0
C2184 C 0.82799 0.50563 0.23449 0.0
C2185 C 0.89086 0.46839 0.23836 0.0
C2186 C 0.8906 0.49978 0.22919 0.0
C2187 C 0.85869 0.54982 0.21785 0.0
C2188 C 0.82693 0.56759 0.21518 0.0
C2189 C 0.85933 0.51863 0.22725 0.0
C2190 C 0.79602 0.55473 0.22264 0.0
C2191 C 0.79659 0.52413 0.23236 0.0
H2192 H 0.69314 0.61471 0.45245 0.0
H2193 H 0.7036 0.50225 0.44947 0.0
H2194 H 0.74737 0.50319 0.47185 0.0
H2195 H 0.78218 0.5354 0.49238 0.0
H2196 H 0.77289 0.64785 0.49549 0.0
H2197 H 0.72911 0.64732 0.47288 0.0
C2198 C 0.70501 0.59042 0.45668 0.0
C2199 C 0.69499 0.5585 0.44929 0.0
C2200 C 0.73031 0.59106 0.46958 0.0
C2201 C 0.71077 0.52725 0.45489 0.0
C2202 C 0.73581 0.52769 0.46772 0.0
C2203 C 0.77057 0.55984 0.48818 0.0
C2204 C 0.78069 0.59157 0.49567 0.0
C2205 C 0.74565 0.55939 0.47518 0.0
C2206 C 0.76557 0.62301 0.48993 0.0
C2207 C 0.74052 0.62275 0.47702 0.0
H2208 H 0.28175 0.52349 0.25311 0.0
H2209 H 0.37887 0.5658 0.23344 0.0
H2210 H 0.38559 0.51539 0.21489 0.0
H2211 H 0.36509 0.45836 0.20498 0.0
H2212 H 0.26708 0.417 0.22365 0.0
H2213 H 0.25986 0.46777 0.24222 0.0
C2214 C 0.30413 0.52196 0.2446 0.0
C2215 C 0.32985 0.54822 0.24476 0.0
C2216 C 0.30809 0.49277 0.23409 0.0
C2217 C 0.35871 0.54584 0.23363 0.0
C2218 C 0.36276 0.51693 0.22309 0.0
C2219 C 0.34247 0.46034 0.21332 0.0
C2220 C 0.31695 0.43403 0.21328 0.0
C2221 C 0.33798 0.48996 0.22347 0.0
C2222 C 0.28717 0.43704 0.2237 0.0
C2223 C 0.28294 0.46606 0.23419 0.0
H2224 H 0.27502 0.62363 0.96402 0.0
H2225 H 0.2962 0.51271 0.96653 0.0
H2226 H 0.24901 0.50506 -0.0128 0.0
H2227 H 0.2016 0.52968 0.00435 0.0
H2228 H 0.17952 0.64045 0.0014 0.0
H2229 H 0.22712 0.64819 -0.01901 0.0
C2230 C 0.26946 0.59783 0.96918 0.0
C2231 C 0.2891 0.56884 0.9638 0.0
C2232 C 0.24201 0.5935 -0.01912 0.0
C2233 C 0.28136 0.53548 0.97045 0.0
C2234 C 0.2544 0.53104 -0.01774 0.0
C2235 C 0.20712 0.55552 -0.00076 0.0
C2236 C 0.18702 0.58438 0.00441 0.0
C2237 C 0.23447 0.55984 -0.0125 0.0
C2238 C 0.1945 0.61769 -0.0024 0.0
C2239 C 0.2218 0.62221 -0.01403 0.0
H2240 H 0.20052 0.52014 0.70668 0.0
H2241 H 0.09017 0.54203 0.71254 0.0
H2242 H 0.08546 0.49607 0.73414 0.0
H2243 H 0.11306 0.45032 0.75174 0.0
H2244 H 0.22374 0.42994 0.7459 0.0
H2245 H 0.22773 0.47458 0.72382 0.0
C2246 C 0.17537 0.51492 0.71263 0.0
C2247 C 0.1458 0.53458 0.708 0.0
C2248 C 0.17285 0.48865 0.72504 0.0
C2249 C 0.11344 0.52738 0.7159 0.0
C2250 C 0.11068 0.50105 0.72824 0.0
C2251 C 0.13797 0.4555 0.74554 0.0
C2252 C 0.16803 0.43687 0.7505 0.0
C2253 C 0.14026 0.48158 0.73294 0.0
C2254 C 0.20019 0.44403 0.74242 0.0
C2255 C 0.20255 0.46956 0.72977 0.0
H2256 H 0.21473 0.45757 0.45904 0.0
H2257 H 0.19501 0.34644 0.4631 0.0
H2258 H 0.24457 0.34004 0.48225 0.0
H2259 H 0.29318 0.36578 0.49793 0.0
H2260 H 0.31244 0.47695 0.49446 0.0
H2261 H 0.26351 0.48339 0.47478 0.0
C2262 C 0.22113 0.43198 0.46417 0.0
C2263 C 0.20114 0.40259 0.45964 0.0
C2264 C 0.24974 0.42837 0.47514 0.0
C2265 C 0.20992 0.36957 0.46637 0.0
C2266 C 0.23833 0.3658 0.47729 0.0
C2267 C 0.28693 0.39136 0.49273 0.0
C2268 C 0.30642 0.4208 0.49759 0.0
C2269 C 0.25847 0.39498 0.4817 0.0
C2270 C 0.29775 0.45386 0.49091 0.0
C2271 C 0.26975 0.4576 0.4797 0.0
loop_
_geom_bond_atom_site_label_1
_geom_bond_atom_site_label_2
_geom_bond_distance
_geom_bond_site_symmetry_2
_ccdc_geom_bond_type
O0 Zn1 1.953 . S
O0 C16 1.225 . S
Zn1 O0 1.953 . S
Zn1 O2 1.949 . S
Zn1 O8 1.919 . S
Zn1 O13 1.924 . S
O2 Zn1 1.949 . S
O2 Zn3 1.923 . S
O2 Zn4 1.950 . S
O2 Zn5 1.945 . S
Zn3 O2 1.923 . S
Zn3 O6 1.933 . S
Zn3 O9 1.941 . S
Zn3 O10 1.965 . S
Zn4 O2 1.950 . S
Zn4 O11 1.938 . S
Zn4 O12 1.906 . S
Zn4 O22 1.953 . S
Zn5 O2 1.945 . S
Zn5 O7 1.932 . S
Zn5 O14 1.977 . S
Zn5 O15 1.910 . S
O6 Zn3 1.933 . S
O6 C17 1.226 . S
O7 Zn5 1.932 . S
O7 C17 1.307 . S
O8 Zn1 1.919 . S
O8 C19 1.253 . S
O9 Zn3 1.941 . S
O9 C19 1.283 . S
O10 Zn3 1.965 . S
O10 C18 1.303 . S
O11 Zn4 1.938 . S
O11 C18 1.247 . S
O12 Zn4 1.906 . S
O12 C20 1.304 . S
O13 Zn1 1.924 . S
O13 C21 1.311 . S
O14 Zn5 1.977 . S
O14 C20 1.272 . S
O15 Zn5 1.910 . S
O15 C21 1.231 . S
C16 O0 1.225 . S
C16 O22 1.298 . S
C17 O6 1.226 . S
C17 O7 1.307 . S
C18 O10 1.303 . S
C18 O11 1.247 . S
C19 O8 1.253 . S
C19 O9 1.283 . S
C20 O12 1.304 . S
C20 O14 1.272 . S
C21 O13 1.311 . S
C21 O15 1.231 . S
O22 Zn4 1.953 . S
O22 C16 1.298 . S
O23 Zn24 1.953 . S
O23 C39 1.225 . S
Zn24 O23 1.953 . S
Zn24 O25 1.949 . S
Zn24 O31 1.919 . S
Zn24 O36 1.924 . S
O25 Zn24 1.949 . S
O25 Zn26 1.923 . S
O25 Zn27 1.950 . S
O25 Zn28 1.945 . S
Zn26 O25 1.923 . S
Zn26 O29 1.933 . S
Zn26 O32 1.941 . S
Zn26 O33 1.965 . S
Zn27 O25 1.950 . S
Zn27 O34 1.938 . S
Zn27 O35 1.906 . S
Zn27 O45 1.953 . S
Zn28 O25 1.945 . S
Zn28 O30 1.932 . S
Zn28 O37 1.977 . S
Zn28 O38 1.910 . S
O29 Zn26 1.933 . S
O29 C40 1.226 . S
O30 Zn28 1.932 . S
O30 C40 1.307 . S
O31 Zn24 1.919 . S
O31 C42 1.253 . S
O32 Zn26 1.941 . S
O32 C42 1.283 . S
O33 Zn26 1.965 . S
O33 C41 1.303 . S
O34 Zn27 1.938 . S
O34 C41 1.247 . S
O35 Zn27 1.906 . S
O35 C43 1.304 . S
O36 Zn24 1.924 . S
O36 C44 1.311 . S
O37 Zn28 1.977 . S
O37 C43 1.272 . S
O38 Zn28 1.910 . S
O38 C44 1.231 . S
C39 O23 1.225 . S
C39 O45 1.298 . S
C40 O29 1.226 . S
C40 O30 1.307 . S
C41 O33 1.303 . S
C41 O34 1.247 . S
C42 O31 1.253 . S
C42 O32 1.283 . S
C43 O35 1.304 . S
C43 O37 1.272 . S
C44 O36 1.311 . S
C44 O38 1.231 . S
O45 Zn27 1.953 . S
O45 C39 1.298 . S
O46 Zn47 1.953 . S
O46 C62 1.225 . S
Zn47 O46 1.953 . S
Zn47 O48 1.949 . S
Zn47 O54 1.919 . S
Zn47 O59 1.924 . S
O48 Zn47 1.949 . S
O48 Zn49 1.923 . S
O48 Zn50 1.950 . S
O48 Zn51 1.945 . S
Zn49 O48 1.923 . S
Zn49 O52 1.933 . S
Zn49 O55 1.941 . S
Zn49 O56 1.965 . S
Zn50 O48 1.950 . S
Zn50 O57 1.938 . S
Zn50 O58 1.906 . S
Zn50 O68 1.953 . S
Zn51 O48 1.945 . S
Zn51 O53 1.932 . S
Zn51 O60 1.977 . S
Zn51 O61 1.910 . S
O52 Zn49 1.933 . S
O52 C63 1.226 . S
O53 Zn51 1.932 . S
O53 C63 1.307 . S
O54 Zn47 1.919 . S
O54 C65 1.253 . S
O55 Zn49 1.941 . S
O55 C65 1.283 . S
O56 Zn49 1.965 . S
O56 C64 1.303 . S
O57 Zn50 1.938 . S
O57 C64 1.247 . S
O58 Zn50 1.906 . S
O58 C66 1.304 . S
O59 Zn47 1.924 . S
O59 C67 1.311 . S
O60 Zn51 1.977 . S
O60 C66 1.272 . S
O61 Zn51 1.910 . S
O61 C67 1.231 . S
C62 O46 1.225 . S
C62 O68 1.298 . S
C63 O52 1.226 . S
C63 O53 1.307 . S
C64 O56 1.303 . S
C64 O57 1.247 . S
C65 O54 1.253 . S
C65 O55 1.283 . S
C66 O58 1.304 . S
C66 O60 1.272 . S
C67 O59 1.311 . S
C67 O61 1.231 . S
O68 Zn50 1.953 . S
O68 C62 1.298 . S
O69 Zn70 1.953 . S
O69 C85 1.225 . S
Zn70 O69 1.953 . S
Zn70 O71 1.949 . S
Zn70 O77 1.919 . S
Zn70 O82 1.924 . S
O71 Zn70 1.949 . S
O71 Zn72 1.923 . S
O71 Zn73 1.950 . S
O71 Zn74 1.945 . S
Zn72 O71 1.923 . S
Zn72 O75 1.933 . S
Zn72 O78 1.941 . S
Zn72 O79 1.965 . S
Zn73 O71 1.950 . S
Zn73 O80 1.938 . S
Zn73 O81 1.906 . S
Zn73 O91 1.953 . S
Zn74 O71 1.945 . S
Zn74 O76 1.932 . S
Zn74 O83 1.977 . S
Zn74 O84 1.910 . S
O75 Zn72 1.933 . S
O75 C86 1.226 . S
O76 Zn74 1.932 . S
O76 C86 1.307 . S
O77 Zn70 1.919 . S
O77 C88 1.253 . S
O78 Zn72 1.941 . S
O78 C88 1.283 . S
O79 Zn72 1.965 . S
O79 C87 1.303 . S
O80 Zn73 1.938 . S
O80 C87 1.247 . S
O81 Zn73 1.906 . S
O81 C89 1.304 . S
O82 Zn70 1.924 . S
O82 C90 1.311 . S
O83 Zn74 1.977 . S
O83 C89 1.272 . S
O84 Zn74 1.910 . S
O84 C90 1.231 . S
C85 O69 1.225 . S
C85 O91 1.298 . S
C86 O75 1.226 . S
C86 O76 1.307 . S
C87 O79 1.303 . S
C87 O80 1.247 . S
C88 O77 1.253 . S
C88 O78 1.283 . S
C89 O81 1.304 . S
C89 O83 1.272 . S
C90 O82 1.311 . S
C90 O84 1.231 . S
O91 Zn73 1.953 . S
O91 C85 1.298 . S
O92 Zn93 1.953 . S
O92 C108 1.225 . S
Zn93 O92 1.953 . S
Zn93 O94 1.949 . S
Zn93 O100 1.919 . S
Zn93 O105 1.924 . S
O94 Zn93 1.949 . S
O94 Zn95 1.923 . S
O94 Zn96 1.950 . S
O94 Zn97 1.945 . S
Zn95 O94 1.923 . S
Zn95 O98 1.933 . S
Zn95 O101 1.941 . S
Zn95 O102 1.965 . S
Zn96 O94 1.950 . S
Zn96 O103 1.938 . S
Zn96 O104 1.906 . S
Zn96 O114 1.953 . S
Zn97 O94 1.945 . S
Zn97 O99 1.932 . S
Zn97 O106 1.977 . S
Zn97 O107 1.910 . S
O98 Zn95 1.933 . S
O98 C109 1.226 . S
O99 Zn97 1.932 . S
O99 C109 1.307 . S
O100 Zn93 1.919 . S
O100 C111 1.253 . S
O101 Zn95 1.941 . S
O101 C111 1.283 . S
O102 Zn95 1.965 . S
O102 C110 1.303 . S
O103 Zn96 1.938 . S
O103 C110 1.247 . S
O104 Zn96 1.906 . S
O104 C112 1.304 . S
O105 Zn93 1.924 . S
O105 C113 1.311 . S
O106 Zn97 1.977 . S
O106 C112 1.272 . S
O107 Zn97 1.910 . S
O107 C113 1.231 . S
C108 O92 1.225 . S
C108 O114 1.298 . S
C109 O98 1.226 . S
C109 O99 1.307 . S
C110 O102 1.303 . S
C110 O103 1.247 . S
C111 O100 1.253 . S
C111 O101 1.283 . S
C112 O104 1.304 . S
C112 O106 1.272 . S
C113 O105 1.311 . S
C113 O107 1.231 . S
O114 Zn96 1.953 . S
O114 C108 1.298 . S
O115 Zn116 1.953 . S
O115 C131 1.225 . S
Zn116 O115 1.953 . S
Zn116 O117 1.949 . S
Zn116 O123 1.919 . S
Zn116 O128 1.924 . S
O117 Zn116 1.949 . S
O117 Zn118 1.923 . S
O117 Zn119 1.950 . S
O117 Zn120 1.945 . S
Zn118 O117 1.923 . S
Zn118 O121 1.933 . S
Zn118 O124 1.941 . S
Zn118 O125 1.965 . S
Zn119 O117 1.950 . S
Zn119 O126 1.938 . S
Zn119 O127 1.906 . S
Zn119 O137 1.953 . S
Zn120 O117 1.945 . S
Zn120 O122 1.932 . S
Zn120 O129 1.977 . S
Zn120 O130 1.910 . S
O121 Zn118 1.933 . S
O121 C132 1.226 . S
O122 Zn120 1.932 . S
O122 C132 1.307 . S
O123 Zn116 1.919 . S
O123 C134 1.253 . S
O124 Zn118 1.941 . S
O124 C134 1.283 . S
O125 Zn118 1.965 . S
O125 C133 1.303 . S
O126 Zn119 1.938 . S
O126 C133 1.247 . S
O127 Zn119 1.906 . S
O127 C135 1.304 . S
O128 Zn116 1.924 . S
O128 C136 1.311 . S
O129 Zn120 1.977 . S
O129 C135 1.272 . S
O130 Zn120 1.910 . S
O130 C136 1.231 . S
C131 O115 1.225 . S
C131 O137 1.298 . S
C132 O121 1.226 . S
C132 O122 1.307 . S
C133 O125 1.303 . S
C133 O126 1.247 . S
C134 O123 1.253 . S
C134 O124 1.283 . S
C135 O127 1.304 . S
C135 O129 1.272 . S
C136 O128 1.311 . S
C136 O130 1.231 . S
O137 Zn119 1.953 . S
O137 C131 1.298 . S
O138 Zn139 1.953 . S
O138 C154 1.225 . S
Zn139 O138 1.953 . S
Zn139 O140 1.949 . S
Zn139 O146 1.919 . S
Zn139 O151 1.924 . S
O140 Zn139 1.949 . S
O140 Zn141 1.923 . S
O140 Zn142 1.950 . S
O140 Zn143 1.945 . S
Zn141 O140 1.923 . S
Zn141 O144 1.933 . S
Zn141 O147 1.941 . S
Zn141 O148 1.965 . S
Zn142 O140 1.950 . S
Zn142 O149 1.938 . S
Zn142 O150 1.906 . S
Zn142 O160 1.953 . S
Zn143 O140 1.945 . S
Zn143 O145 1.932 . S
Zn143 O152 1.977 . S
Zn143 O153 1.910 . S
O144 Zn141 1.933 . S
O144 C155 1.226 . S
O145 Zn143 1.932 . S
O145 C155 1.307 . S
O146 Zn139 1.919 . S
O146 C157 1.253 . S
O147 Zn141 1.941 . S
O147 C157 1.283 . S
O148 Zn141 1.965 . S
O148 C156 1.303 . S
O149 Zn142 1.938 . S
O149 C156 1.247 . S
O150 Zn142 1.906 . S
O150 C158 1.304 . S
O151 Zn139 1.924 . S
O151 C159 1.311 . S
O152 Zn143 1.977 . S
O152 C158 1.272 . S
O153 Zn143 1.910 . S
O153 C159 1.231 . S
C154 O138 1.225 . S
C154 O160 1.298 . S
C155 O144 1.226 . S
C155 O145 1.307 . S
C156 O148 1.303 . S
C156 O149 1.247 . S
C157 O146 1.253 . S
C157 O147 1.283 . S
C158 O150 1.304 . S
C158 O152 1.272 . S
C159 O151 1.311 . S
C159 O153 1.231 . S
O160 Zn142 1.953 . S
O160 C154 1.298 . S
O161 Zn162 1.953 . S
O161 C177 1.225 . S
Zn162 O161 1.953 . S
Zn162 O163 1.949 . S
Zn162 O169 1.919 . S
Zn162 O174 1.924 . S
O163 Zn162 1.949 . S
O163 Zn164 1.923 . S
O163 Zn165 1.950 . S
O163 Zn166 1.945 . S
Zn164 O163 1.923 . S
Zn164 O167 1.933 . S
Zn164 O170 1.941 . S
Zn164 O171 1.965 . S
Zn165 O163 1.950 . S
Zn165 O172 1.938 . S
Zn165 O173 1.906 . S
Zn165 O183 1.953 . S
Zn166 O163 1.945 . S
Zn166 O168 1.932 . S
Zn166 O175 1.977 . S
Zn166 O176 1.910 . S
O167 Zn164 1.933 . S
O167 C178 1.226 . S
O168 Zn166 1.932 . S
O168 C178 1.307 . S
O169 Zn162 1.919 . S
O169 C180 1.253 . S
O170 Zn164 1.941 . S
O170 C180 1.283 . S
O171 Zn164 1.965 . S
O171 C179 1.303 . S
O172 Zn165 1.938 . S
O172 C179 1.247 . S
O173 Zn165 1.906 . S
O173 C181 1.304 . S
O174 Zn162 1.924 . S
O174 C182 1.311 . S
O175 Zn166 1.977 . S
O175 C181 1.272 . S
O176 Zn166 1.910 . S
O176 C182 1.231 . S
C177 O161 1.225 . S
C177 O183 1.298 . S
C178 O167 1.226 . S
C178 O168 1.307 . S
C179 O171 1.303 . S
C179 O172 1.247 . S
C180 O169 1.253 . S
C180 O170 1.283 . S
C181 O173 1.304 . S
C181 O175 1.272 . S
C182 O174 1.311 . S
C182 O176 1.231 . S
O183 Zn165 1.953 . S
O183 C177 1.298 . S
O184 Zn185 1.953 . S
O184 C200 1.225 . S
Zn185 O184 1.953 . S
Zn185 O186 1.949 . S
Zn185 O192 1.919 . S
Zn185 O197 1.924 . S
O186 Zn185 1.949 . S
O186 Zn187 1.923 . S
O186 Zn188 1.950 . S
O186 Zn189 1.945 . S
Zn187 O186 1.923 . S
Zn187 O190 1.933 . S
Zn187 O193 1.941 . S
Zn187 O194 1.965 . S
Zn188 O186 1.950 . S
Zn188 O195 1.938 . S
Zn188 O196 1.906 . S
Zn188 O206 1.953 . S
Zn189 O186 1.945 . S
Zn189 O191 1.932 . S
Zn189 O198 1.977 . S
Zn189 O199 1.910 . S
O190 Zn187 1.933 . S
O190 C201 1.226 . S
O191 Zn189 1.932 . S
O191 C201 1.307 . S
O192 Zn185 1.919 . S
O192 C203 1.253 . S
O193 Zn187 1.941 . S
O193 C203 1.283 . S
O194 Zn187 1.965 . S
O194 C202 1.303 . S
O195 Zn188 1.938 . S
O195 C202 1.247 . S
O196 Zn188 1.906 . S
O196 C204 1.304 . S
O197 Zn185 1.924 . S
O197 C205 1.311 . S
O198 Zn189 1.977 . S
O198 C204 1.272 . S
O199 Zn189 1.910 . S
O199 C205 1.231 . S
C200 O184 1.225 . S
C200 O206 1.298 . S
C201 O190 1.226 . S
C201 O191 1.307 . S
C202 O194 1.303 . S
C202 O195 1.247 . S
C203 O192 1.253 . S
C203 O193 1.283 . S
C204 O196 1.304 . S
C204 O198 1.272 . S
C205 O197 1.311 . S
C205 O199 1.231 . S
O206 Zn188 1.953 . S
O206 C200 1.298 . S
O207 Zn208 1.953 . S
O207 C223 1.225 . S
Zn208 O207 1.953 . S
Zn208 O209 1.949 . S
Zn208 O215 1.919 . S
Zn208 O220 1.924 . S
O209 Zn208 1.949 . S
O209 Zn210 1.923 . S
O209 Zn211 1.950 . S
O209 Zn212 1.945 . S
Zn210 O209 1.923 . S
Zn210 O213 1.933 . S
Zn210 O216 1.941 . S
Zn210 O217 1.965 . S
Zn211 O209 1.950 . S
Zn211 O218 1.938 . S
Zn211 O219 1.906 . S
Zn211 O229 1.953 . S
Zn212 O209 1.945 . S
Zn212 O214 1.932 . S
Zn212 O221 1.977 . S
Zn212 O222 1.910 . S
O213 Zn210 1.933 . S
O213 C224 1.226 . S
O214 Zn212 1.932 . S
O214 C224 1.307 . S
O215 Zn208 1.919 . S
O215 C226 1.253 . S
O216 Zn210 1.941 . S
O216 C226 1.283 . S
O217 Zn210 1.965 . S
O217 C225 1.303 . S
O218 Zn211 1.938 . S
O218 C225 1.247 . S
O219 Zn211 1.906 . S
O219 C227 1.304 . S
O220 Zn208 1.924 . S
O220 C228 1.311 . S
O221 Zn212 1.977 . S
O221 C227 1.272 . S
O222 Zn212 1.910 . S
O222 C228 1.231 . S
C223 O207 1.225 . S
C223 O229 1.298 . S
C224 O213 1.226 . S
C224 O214 1.307 . S
C225 O217 1.303 . S
C225 O218 1.247 . S
C226 O215 1.253 . S
C226 O216 1.283 . S
C227 O219 1.304 . S
C227 O221 1.272 . S
C228 O220 1.311 . S
C228 O222 1.231 . S
O229 Zn211 1.953 . S
O229 C223 1.298 . S
O230 Zn231 1.953 . S
O230 C246 1.225 . S
Zn231 O230 1.953 . S
Zn231 O232 1.949 . S
Zn231 O238 1.919 . S
Zn231 O243 1.924 . S
O232 Zn231 1.949 . S
O232 Zn233 1.923 . S
O232 Zn234 1.950 . S
O232 Zn235 1.945 . S
Zn233 O232 1.923 . S
Zn233 O236 1.933 . S
Zn233 O239 1.941 . S
Zn233 O240 1.965 . S
Zn234 O232 1.950 . S
Zn234 O241 1.938 . S
Zn234 O242 1.906 . S
Zn234 O252 1.953 . S
Zn235 O232 1.945 . S
Zn235 O237 1.932 . S
Zn235 O244 1.977 . S
Zn235 O245 1.910 . S
O236 Zn233 1.933 . S
O236 C247 1.226 . S
O237 Zn235 1.932 . S
O237 C247 1.307 . S
O238 Zn231 1.919 . S
O238 C249 1.253 . S
O239 Zn233 1.941 . S
O239 C249 1.283 . S
O240 Zn233 1.965 . S
O240 C248 1.303 . S
O241 Zn234 1.938 . S
O241 C248 1.247 . S
O242 Zn234 1.906 . S
O242 C250 1.304 . S
O243 Zn231 1.924 . S
O243 C251 1.311 . S
O244 Zn235 1.977 . S
O244 C250 1.272 . S
O245 Zn235 1.910 . S
O245 C251 1.231 . S
C246 O230 1.225 . S
C246 O252 1.298 . S
C247 O236 1.226 . S
C247 O237 1.307 . S
C248 O240 1.303 . S
C248 O241 1.247 . S
C249 O238 1.253 . S
C249 O239 1.283 . S
C250 O242 1.304 . S
C250 O244 1.272 . S
C251 O243 1.311 . S
C251 O245 1.231 . S
O252 Zn234 1.953 . S
O252 C246 1.298 . S
O253 Zn254 1.953 . S
O253 C269 1.225 . S
Zn254 O253 1.953 . S
Zn254 O255 1.949 . S
Zn254 O261 1.919 . S
Zn254 O266 1.924 . S
O255 Zn254 1.949 . S
O255 Zn256 1.923 . S
O255 Zn257 1.950 . S
O255 Zn258 1.945 . S
Zn256 O255 1.923 . S
Zn256 O259 1.933 . S
Zn256 O262 1.941 . S
Zn256 O263 1.965 . S
Zn257 O255 1.950 . S
Zn257 O264 1.938 . S
Zn257 O265 1.906 . S
Zn257 O275 1.953 . S
Zn258 O255 1.945 . S
Zn258 O260 1.932 . S
Zn258 O267 1.977 . S
Zn258 O268 1.910 . S
O259 Zn256 1.933 . S
O259 C270 1.226 . S
O260 Zn258 1.932 . S
O260 C270 1.307 . S
O261 Zn254 1.919 . S
O261 C272 1.253 . S
O262 Zn256 1.941 . S
O262 C272 1.283 . S
O263 Zn256 1.965 . S
O263 C271 1.303 . S
O264 Zn257 1.938 . S
O264 C271 1.247 . S
O265 Zn257 1.906 . S
O265 C273 1.304 . S
O266 Zn254 1.924 . S
O266 C274 1.311 . S
O267 Zn258 1.977 . S
O267 C273 1.272 . S
O268 Zn258 1.910 . S
O268 C274 1.231 . S
C269 O253 1.225 . S
C269 O275 1.298 . S
C270 O259 1.226 . S
C270 O260 1.307 . S
C271 O263 1.303 . S
C271 O264 1.247 . S
C272 O261 1.253 . S
C272 O262 1.283 . S
C273 O265 1.304 . S
C273 O267 1.272 . S
C274 O266 1.311 . S
C274 O268 1.231 . S
O275 Zn257 1.953 . S
O275 C269 1.298 . S
O276 Zn277 1.953 . S
O276 C292 1.225 . S
Zn277 O276 1.953 . S
Zn277 O278 1.949 . S
Zn277 O284 1.919 . S
Zn277 O289 1.924 . S
O278 Zn277 1.949 . S
O278 Zn279 1.923 . S
O278 Zn280 1.950 . S
O278 Zn281 1.945 . S
Zn279 O278 1.923 . S
Zn279 O282 1.933 . S
Zn279 O285 1.941 . S
Zn279 O286 1.965 . S
Zn280 O278 1.950 . S
Zn280 O287 1.938 . S
Zn280 O288 1.906 . S
Zn280 O298 1.953 . S
Zn281 O278 1.945 . S
Zn281 O283 1.932 . S
Zn281 O290 1.977 . S
Zn281 O291 1.910 . S
O282 Zn279 1.933 . S
O282 C293 1.226 . S
O283 Zn281 1.932 . S
O283 C293 1.307 . S
O284 Zn277 1.919 . S
O284 C295 1.253 . S
O285 Zn279 1.941 . S
O285 C295 1.283 . S
O286 Zn279 1.965 . S
O286 C294 1.303 . S
O287 Zn280 1.938 . S
O287 C294 1.247 . S
O288 Zn280 1.906 . S
O288 C296 1.304 . S
O289 Zn277 1.924 . S
O289 C297 1.311 . S
O290 Zn281 1.977 . S
O290 C296 1.272 . S
O291 Zn281 1.910 . S
O291 C297 1.231 . S
C292 O276 1.225 . S
C292 O298 1.298 . S
C293 O282 1.226 . S
C293 O283 1.307 . S
C294 O286 1.303 . S
C294 O287 1.247 . S
C295 O284 1.253 . S
C295 O285 1.283 . S
C296 O288 1.304 . S
C296 O290 1.272 . S
C297 O289 1.311 . S
C297 O291 1.231 . S
O298 Zn280 1.953 . S
O298 C292 1.298 . S
O299 Zn300 1.953 . S
O299 C315 1.225 . S
Zn300 O299 1.953 . S
Zn300 O301 1.949 . S
Zn300 O307 1.919 . S
Zn300 O312 1.924 . S
O301 Zn300 1.949 . S
O301 Zn302 1.923 . S
O301 Zn303 1.950 . S
O301 Zn304 1.945 . S
Zn302 O301 1.923 . S
Zn302 O305 1.933 . S
Zn302 O308 1.941 . S
Zn302 O309 1.965 . S
Zn303 O301 1.950 . S
Zn303 O310 1.938 . S
Zn303 O311 1.906 . S
Zn303 O321 1.953 . S
Zn304 O301 1.945 . S
Zn304 O306 1.932 . S
Zn304 O313 1.977 . S
Zn304 O314 1.910 . S
O305 Zn302 1.933 . S
O305 C316 1.226 . S
O306 Zn304 1.932 . S
O306 C316 1.307 . S
O307 Zn300 1.919 . S
O307 C318 1.253 . S
O308 Zn302 1.941 . S
O308 C318 1.283 . S
O309 Zn302 1.965 . S
O309 C317 1.303 . S
O310 Zn303 1.938 . S
O310 C317 1.247 . S
O311 Zn303 1.906 . S
O311 C319 1.304 . S
O312 Zn300 1.924 . S
O312 C320 1.311 . S
O313 Zn304 1.977 . S
O313 C319 1.272 . S
O314 Zn304 1.910 . S
O314 C320 1.231 . S
C315 O299 1.225 . S
C315 O321 1.298 . S
C316 O305 1.226 . S
C316 O306 1.307 . S
C317 O309 1.303 . S
C317 O310 1.247 . S
C318 O307 1.253 . S
C318 O308 1.283 . S
C319 O311 1.304 . S
C319 O313 1.272 . S
C320 O312 1.311 . S
C320 O314 1.231 . S
O321 Zn303 1.953 . S
O321 C315 1.298 . S
O322 Zn323 1.953 . S
O322 C338 1.225 . S
Zn323 O322 1.953 . S
Zn323 O324 1.949 . S
Zn323 O330 1.919 . S
Zn323 O335 1.924 . S
O324 Zn323 1.949 . S
O324 Zn325 1.923 . S
O324 Zn326 1.950 . S
O324 Zn327 1.945 . S
Zn325 O324 1.923 . S
Zn325 O328 1.933 . S
Zn325 O331 1.941 . S
Zn325 O332 1.965 . S
Zn326 O324 1.950 . S
Zn326 O333 1.938 . S
Zn326 O334 1.906 . S
Zn326 O344 1.953 . S
Zn327 O324 1.945 . S
Zn327 O329 1.932 . S
Zn327 O336 1.977 . S
Zn327 O337 1.910 . S
O328 Zn325 1.933 . S
O328 C339 1.226 . S
O329 Zn327 1.932 . S
O329 C339 1.307 . S
O330 Zn323 1.919 . S
O330 C341 1.253 . S
O331 Zn325 1.941 . S
O331 C341 1.283 . S
O332 Zn325 1.965 . S
O332 C340 1.303 . S
O333 Zn326 1.938 . S
O333 C340 1.247 . S
O334 Zn326 1.906 . S
O334 C342 1.304 . S
O335 Zn323 1.924 . S
O335 C343 1.311 . S
O336 Zn327 1.977 . S
O336 C342 1.272 . S
O337 Zn327 1.910 . S
O337 C343 1.231 . S
C338 O322 1.225 . S
C338 O344 1.298 . S
C339 O328 1.226 . S
C339 O329 1.307 . S
C340 O332 1.303 . S
C340 O333 1.247 . S
C341 O330 1.253 . S
C341 O331 1.283 . S
C342 O334 1.304 . S
C342 O336 1.272 . S
C343 O335 1.311 . S
C343 O337 1.231 . S
O344 Zn326 1.953 . S
O344 C338 1.298 . S
O345 Zn346 1.953 . S
O345 C361 1.225 . S
Zn346 O345 1.953 . S
Zn346 O347 1.949 . S
Zn346 O353 1.919 . S
Zn346 O358 1.924 . S
O347 Zn346 1.949 . S
O347 Zn348 1.923 . S
O347 Zn349 1.950 . S
O347 Zn350 1.945 . S
Zn348 O347 1.923 . S
Zn348 O351 1.933 . S
Zn348 O354 1.941 . S
Zn348 O355 1.965 . S
Zn349 O347 1.950 . S
Zn349 O356 1.938 . S
Zn349 O357 1.906 . S
Zn349 O367 1.953 . S
Zn350 O347 1.945 . S
Zn350 O352 1.932 . S
Zn350 O359 1.977 . S
Zn350 O360 1.910 . S
O351 Zn348 1.933 . S
O351 C362 1.226 . S
O352 Zn350 1.932 . S
O352 C362 1.307 . S
O353 Zn346 1.919 . S
O353 C364 1.253 . S
O354 Zn348 1.941 . S
O354 C364 1.283 . S
O355 Zn348 1.965 . S
O355 C363 1.303 . S
O356 Zn349 1.938 . S
O356 C363 1.247 . S
O357 Zn349 1.906 . S
O357 C365 1.304 . S
O358 Zn346 1.924 . S
O358 C366 1.311 . S
O359 Zn350 1.977 . S
O359 C365 1.272 . S
O360 Zn350 1.910 . S
O360 C366 1.231 . S
C361 O345 1.225 . S
C361 O367 1.298 . S
C362 O351 1.226 . S
C362 O352 1.307 . S
C363 O355 1.303 . S
C363 O356 1.247 . S
C364 O353 1.253 . S
C364 O354 1.283 . S
C365 O357 1.304 . S
C365 O359 1.272 . S
C366 O358 1.311 . S
C366 O360 1.231 . S
O367 Zn349 1.953 . S
O367 C361 1.298 . S
O368 Zn369 1.953 . S
O368 C384 1.225 . S
Zn369 O368 1.953 . S
Zn369 O370 1.949 . S
Zn369 O376 1.919 . S
Zn369 O381 1.924 . S
O370 Zn369 1.949 . S
O370 Zn371 1.923 . S
O370 Zn372 1.950 . S
O370 Zn373 1.945 . S
Zn371 O370 1.923 . S
Zn371 O374 1.933 . S
Zn371 O377 1.941 . S
Zn371 O378 1.965 . S
Zn372 O370 1.950 . S
Zn372 O379 1.938 . S
Zn372 O380 1.906 . S
Zn372 O390 1.953 . S
Zn373 O370 1.945 . S
Zn373 O375 1.932 . S
Zn373 O382 1.977 . S
Zn373 O383 1.910 . S
O374 Zn371 1.933 . S
O374 C385 1.226 . S
O375 Zn373 1.932 . S
O375 C385 1.307 . S
O376 Zn369 1.919 . S
O376 C387 1.253 . S
O377 Zn371 1.941 . S
O377 C387 1.283 . S
O378 Zn371 1.965 . S
O378 C386 1.303 . S
O379 Zn372 1.938 . S
O379 C386 1.247 . S
O380 Zn372 1.906 . S
O380 C388 1.304 . S
O381 Zn369 1.924 . S
O381 C389 1.311 . S
O382 Zn373 1.977 . S
O382 C388 1.272 . S
O383 Zn373 1.910 . S
O383 C389 1.231 . S
C384 O368 1.225 . S
C384 O390 1.298 . S
C385 O374 1.226 . S
C385 O375 1.307 . S
C386 O378 1.303 . S
C386 O379 1.247 . S
C387 O376 1.253 . S
C387 O377 1.283 . S
C388 O380 1.304 . S
C388 O382 1.272 . S
C389 O381 1.311 . S
C389 O383 1.231 . S
O390 Zn372 1.953 . S
O390 C384 1.298 . S
O391 Zn392 1.953 . S
O391 C407 1.225 . S
Zn392 O391 1.953 . S
Zn392 O393 1.949 . S
Zn392 O399 1.919 . S
Zn392 O404 1.924 . S
O393 Zn392 1.949 . S
O393 Zn394 1.923 . S
O393 Zn395 1.950 . S
O393 Zn396 1.945 . S
Zn394 O393 1.923 . S
Zn394 O397 1.933 . S
Zn394 O400 1.941 . S
Zn394 O401 1.965 . S
Zn395 O393 1.950 . S
Zn395 O402 1.938 . S
Zn395 O403 1.906 . S
Zn395 O413 1.953 . S
Zn396 O393 1.945 . S
Zn396 O398 1.932 . S
Zn396 O405 1.977 . S
Zn396 O406 1.910 . S
O397 Zn394 1.933 . S
O397 C408 1.226 . S
O398 Zn396 1.932 . S
O398 C408 1.307 . S
O399 Zn392 1.919 . S
O399 C410 1.253 . S
O400 Zn394 1.941 . S
O400 C410 1.283 . S
O401 Zn394 1.965 . S
O401 C409 1.303 . S
O402 Zn395 1.938 . S
O402 C409 1.247 . S
O403 Zn395 1.906 . S
O403 C411 1.304 . S
O404 Zn392 1.924 . S
O404 C412 1.311 . S
O405 Zn396 1.977 . S
O405 C411 1.272 . S
O406 Zn396 1.910 . S
O406 C412 1.231 . S
C407 O391 1.225 . S
C407 O413 1.298 . S
C408 O397 1.226 . S
C408 O398 1.307 . S
C409 O401 1.303 . S
C409 O402 1.247 . S
C410 O399 1.253 . S
C410 O400 1.283 . S
C411 O403 1.304 . S
C411 O405 1.272 . S
C412 O404 1.311 . S
C412 O406 1.231 . S
O413 Zn395 1.953 . S
O413 C407 1.298 . S
O414 Zn415 1.953 . S
O414 C430 1.225 . S
Zn415 O414 1.953 . S
Zn415 O416 1.949 . S
Zn415 O422 1.919 . S
Zn415 O427 1.924 . S
O416 Zn415 1.949 . S
O416 Zn417 1.923 . S
O416 Zn418 1.950 . S
O416 Zn419 1.945 . S
Zn417 O416 1.923 . S
Zn417 O420 1.933 . S
Zn417 O423 1.941 . S
Zn417 O424 1.965 . S
Zn418 O416 1.950 . S
Zn418 O425 1.938 . S
Zn418 O426 1.906 . S
Zn418 O436 1.953 . S
Zn419 O416 1.945 . S
Zn419 O421 1.932 . S
Zn419 O428 1.977 . S
Zn419 O429 1.910 . S
O420 Zn417 1.933 . S
O420 C431 1.226 . S
O421 Zn419 1.932 . S
O421 C431 1.307 . S
O422 Zn415 1.919 . S
O422 C433 1.253 . S
O423 Zn417 1.941 . S
O423 C433 1.283 . S
O424 Zn417 1.965 . S
O424 C432 1.303 . S
O425 Zn418 1.938 . S
O425 C432 1.247 . S
O426 Zn418 1.906 . S
O426 C434 1.304 . S
O427 Zn415 1.924 . S
O427 C435 1.311 . S
O428 Zn419 1.977 . S
O428 C434 1.272 . S
O429 Zn419 1.910 . S
O429 C435 1.231 . S
C430 O414 1.225 . S
C430 O436 1.298 . S
C431 O420 1.226 . S
C431 O421 1.307 . S
C432 O424 1.303 . S
C432 O425 1.247 . S
C433 O422 1.253 . S
C433 O423 1.283 . S
C434 O426 1.304 . S
C434 O428 1.272 . S
C435 O427 1.311 . S
C435 O429 1.231 . S
O436 Zn418 1.953 . S
O436 C430 1.298 . S
O437 Zn438 1.953 . S
O437 C453 1.225 . S
Zn438 O437 1.953 . S
Zn438 O439 1.949 . S
Zn438 O445 1.919 . S
Zn438 O450 1.924 . S
O439 Zn438 1.949 . S
O439 Zn440 1.923 . S
O439 Zn441 1.950 . S
O439 Zn442 1.945 . S
Zn440 O439 1.923 . S
Zn440 O443 1.933 . S
Zn440 O446 1.941 . S
Zn440 O447 1.965 . S
Zn441 O439 1.950 . S
Zn441 O448 1.938 . S
Zn441 O449 1.906 . S
Zn441 O459 1.953 . S
Zn442 O439 1.945 . S
Zn442 O444 1.932 . S
Zn442 O451 1.977 . S
Zn442 O452 1.910 . S
O443 Zn440 1.933 . S
O443 C454 1.226 . S
O444 Zn442 1.932 . S
O444 C454 1.307 . S
O445 Zn438 1.919 . S
O445 C456 1.253 . S
O446 Zn440 1.941 . S
O446 C456 1.283 . S
O447 Zn440 1.965 . S
O447 C455 1.303 . S
O448 Zn441 1.938 . S
O448 C455 1.247 . S
O449 Zn441 1.906 . S
O449 C457 1.304 . S
O450 Zn438 1.924 . S
O450 C458 1.311 . S
O451 Zn442 1.977 . S
O451 C457 1.272 . S
O452 Zn442 1.910 . S
O452 C458 1.231 . S
C453 O437 1.225 . S
C453 O459 1.298 . S
C454 O443 1.226 . S
C454 O444 1.307 . S
C455 O447 1.303 . S
C455 O448 1.247 . S
C456 O445 1.253 . S
C456 O446 1.283 . S
C457 O449 1.304 . S
C457 O451 1.272 . S
C458 O450 1.311 . S
C458 O452 1.231 . S
O459 Zn441 1.953 . S
O459 C453 1.298 . S
O460 Zn461 1.953 . S
O460 C476 1.225 . S
Zn461 O460 1.953 . S
Zn461 O462 1.949 . S
Zn461 O468 1.919 . S
Zn461 O473 1.924 . S
O462 Zn461 1.949 . S
O462 Zn463 1.923 . S
O462 Zn464 1.950 . S
O462 Zn465 1.945 . S
Zn463 O462 1.923 . S
Zn463 O466 1.933 . S
Zn463 O469 1.941 . S
Zn463 O470 1.965 . S
Zn464 O462 1.950 . S
Zn464 O471 1.938 . S
Zn464 O472 1.906 . S
Zn464 O482 1.953 . S
Zn465 O462 1.945 . S
Zn465 O467 1.932 . S
Zn465 O474 1.977 . S
Zn465 O475 1.910 . S
O466 Zn463 1.933 . S
O466 C477 1.226 . S
O467 Zn465 1.932 . S
O467 C477 1.307 . S
O468 Zn461 1.919 . S
O468 C479 1.253 . S
O469 Zn463 1.941 . S
O469 C479 1.283 . S
O470 Zn463 1.965 . S
O470 C478 1.303 . S
O471 Zn464 1.938 . S
O471 C478 1.247 . S
O472 Zn464 1.906 . S
O472 C480 1.304 . S
O473 Zn461 1.924 . S
O473 C481 1.311 . S
O474 Zn465 1.977 . S
O474 C480 1.272 . S
O475 Zn465 1.910 . S
O475 C481 1.231 . S
C476 O460 1.225 . S
C476 O482 1.298 . S
C477 O466 1.226 . S
C477 O467 1.307 . S
C478 O470 1.303 . S
C478 O471 1.247 . S
C479 O468 1.253 . S
C479 O469 1.283 . S
C480 O472 1.304 . S
C480 O474 1.272 . S
C481 O473 1.311 . S
C481 O475 1.231 . S
O482 Zn464 1.953 . S
O482 C476 1.298 . S
O483 Zn484 1.953 . S
O483 C499 1.225 . S
Zn484 O483 1.953 . S
Zn484 O485 1.949 . S
Zn484 O491 1.919 . S
Zn484 O496 1.924 . S
O485 Zn484 1.949 . S
O485 Zn486 1.923 . S
O485 Zn487 1.950 . S
O485 Zn488 1.945 . S
Zn486 O485 1.923 . S
Zn486 O489 1.933 . S
Zn486 O492 1.941 . S
Zn486 O493 1.965 . S
Zn487 O485 1.950 . S
Zn487 O494 1.938 . S
Zn487 O495 1.906 . S
Zn487 O505 1.953 . S
Zn488 O485 1.945 . S
Zn488 O490 1.932 . S
Zn488 O497 1.977 . S
Zn488 O498 1.910 . S
O489 Zn486 1.933 . S
O489 C500 1.226 . S
O490 Zn488 1.932 . S
O490 C500 1.307 . S
O491 Zn484 1.919 . S
O491 C502 1.253 . S
O492 Zn486 1.941 . S
O492 C502 1.283 . S
O493 Zn486 1.965 . S
O493 C501 1.303 . S
O494 Zn487 1.938 . S
O494 C501 1.247 . S
O495 Zn487 1.906 . S
O495 C503 1.304 . S
O496 Zn484 1.924 . S
O496 C504 1.311 . S
O497 Zn488 1.977 . S
O497 C503 1.272 . S
O498 Zn488 1.910 . S
O498 C504 1.231 . S
C499 O483 1.225 . S
C499 O505 1.298 . S
C500 O489 1.226 . S
C500 O490 1.307 . S
C501 O493 1.303 . S
C501 O494 1.247 . S
C502 O491 1.253 . S
C502 O492 1.283 . S
C503 O495 1.304 . S
C503 O497 1.272 . S
C504 O496 1.311 . S
C504 O498 1.231 . S
O505 Zn487 1.953 . S
O505 C499 1.298 . S
O506 Zn507 1.953 . S
O506 C522 1.225 . S
Zn507 O506 1.953 . S
Zn507 O508 1.949 . S
Zn507 O514 1.919 . S
Zn507 O519 1.924 . S
O508 Zn507 1.949 . S
O508 Zn509 1.923 . S
O508 Zn510 1.950 . S
O508 Zn511 1.945 . S
Zn509 O508 1.923 . S
Zn509 O512 1.933 . S
Zn509 O515 1.941 . S
Zn509 O516 1.965 . S
Zn510 O508 1.950 . S
Zn510 O517 1.938 . S
Zn510 O518 1.906 . S
Zn510 O528 1.953 . S
Zn511 O508 1.945 . S
Zn511 O513 1.932 . S
Zn511 O520 1.977 . S
Zn511 O521 1.910 . S
O512 Zn509 1.933 . S
O512 C523 1.226 . S
O513 Zn511 1.932 . S
O513 C523 1.307 . S
O514 Zn507 1.919 . S
O514 C525 1.253 . S
O515 Zn509 1.941 . S
O515 C525 1.283 . S
O516 Zn509 1.965 . S
O516 C524 1.303 . S
O517 Zn510 1.938 . S
O517 C524 1.247 . S
O518 Zn510 1.906 . S
O518 C526 1.304 . S
O519 Zn507 1.924 . S
O519 C527 1.311 . S
O520 Zn511 1.977 . S
O520 C526 1.272 . S
O521 Zn511 1.910 . S
O521 C527 1.231 . S
C522 O506 1.225 . S
C522 O528 1.298 . S
C523 O512 1.226 . S
C523 O513 1.307 . S
C524 O516 1.303 . S
C524 O517 1.247 . S
C525 O514 1.253 . S
C525 O515 1.283 . S
C526 O518 1.304 . S
C526 O520 1.272 . S
C527 O519 1.311 . S
C527 O521 1.231 . S
O528 Zn510 1.953 . S
O528 C522 1.298 . S
O529 Zn530 1.953 . S
O529 C545 1.225 . S
Zn530 O529 1.953 . S
Zn530 O531 1.949 . S
Zn530 O537 1.919 . S
Zn530 O542 1.924 . S
O531 Zn530 1.949 . S
O531 Zn532 1.923 . S
O531 Zn533 1.950 . S
O531 Zn534 1.945 . S
Zn532 O531 1.923 . S
Zn532 O535 1.933 . S
Zn532 O538 1.941 . S
Zn532 O539 1.965 . S
Zn533 O531 1.950 . S
Zn533 O540 1.938 . S
Zn533 O541 1.906 . S
Zn533 O551 1.953 . S
Zn534 O531 1.945 . S
Zn534 O536 1.932 . S
Zn534 O543 1.977 . S
Zn534 O544 1.910 . S
O535 Zn532 1.933 . S
O535 C546 1.226 . S
O536 Zn534 1.932 . S
O536 C546 1.307 . S
O537 Zn530 1.919 . S
O537 C548 1.253 . S
O538 Zn532 1.941 . S
O538 C548 1.283 . S
O539 Zn532 1.965 . S
O539 C547 1.303 . S
O540 Zn533 1.938 . S
O540 C547 1.247 . S
O541 Zn533 1.906 . S
O541 C549 1.304 . S
O542 Zn530 1.924 . S
O542 C550 1.311 . S
O543 Zn534 1.977 . S
O543 C549 1.272 . S
O544 Zn534 1.910 . S
O544 C550 1.231 . S
C545 O529 1.225 . S
C545 O551 1.298 . S
C546 O535 1.226 . S
C546 O536 1.307 . S
C547 O539 1.303 . S
C547 O540 1.247 . S
C548 O537 1.253 . S
C548 O538 1.283 . S
C549 O541 1.304 . S
C549 O543 1.272 . S
C550 O542 1.311 . S
C550 O544 1.231 . S
O551 Zn533 1.953 . S
O551 C545 1.298 . S
O552 Zn553 1.953 . S
O552 C568 1.225 . S
Zn553 O552 1.953 . S
Zn553 O554 1.949 . S
Zn553 O560 1.919 . S
Zn553 O565 1.924 . S
O554 Zn553 1.949 . S
O554 Zn555 1.923 . S
O554 Zn556 1.950 . S
O554 Zn557 1.945 . S
Zn555 O554 1.923 . S
Zn555 O558 1.933 . S
Zn555 O561 1.941 . S
Zn555 O562 1.965 . S
Zn556 O554 1.950 . S
Zn556 O563 1.938 . S
Zn556 O564 1.906 . S
Zn556 O574 1.953 . S
Zn557 O554 1.945 . S
Zn557 O559 1.932 . S
Zn557 O566 1.977 . S
Zn557 O567 1.910 . S
O558 Zn555 1.933 . S
O558 C569 1.226 . S
O559 Zn557 1.932 . S
O559 C569 1.307 . S
O560 Zn553 1.919 . S
O560 C571 1.253 . S
O561 Zn555 1.941 . S
O561 C571 1.283 . S
O562 Zn555 1.965 . S
O562 C570 1.303 . S
O563 Zn556 1.938 . S
O563 C570 1.247 . S
O564 Zn556 1.906 . S
O564 C572 1.304 . S
O565 Zn553 1.924 . S
O565 C573 1.311 . S
O566 Zn557 1.977 . S
O566 C572 1.272 . S
O567 Zn557 1.910 . S
O567 C573 1.231 . S
C568 O552 1.225 . S
C568 O574 1.298 . S
C569 O558 1.226 . S
C569 O559 1.307 . S
C570 O562 1.303 . S
C570 O563 1.247 . S
C571 O560 1.253 . S
C571 O561 1.283 . S
C572 O564 1.304 . S
C572 O566 1.272 . S
C573 O565 1.311 . S
C573 O567 1.231 . S
O574 Zn556 1.953 . S
O574 C568 1.298 . S
O575 Zn576 1.953 . S
O575 C591 1.225 . S
Zn576 O575 1.953 . S
Zn576 O577 1.949 . S
Zn576 O583 1.919 . S
Zn576 O588 1.924 . S
O577 Zn576 1.949 . S
O577 Zn578 1.923 . S
O577 Zn579 1.950 . S
O577 Zn580 1.945 . S
Zn578 O577 1.923 . S
Zn578 O581 1.933 . S
Zn578 O584 1.941 . S
Zn578 O585 1.965 . S
Zn579 O577 1.950 . S
Zn579 O586 1.938 . S
Zn579 O587 1.906 . S
Zn579 O597 1.953 . S
Zn580 O577 1.945 . S
Zn580 O582 1.932 . S
Zn580 O589 1.977 . S
Zn580 O590 1.910 . S
O581 Zn578 1.933 . S
O581 C592 1.226 . S
O582 Zn580 1.932 . S
O582 C592 1.307 . S
O583 Zn576 1.919 . S
O583 C594 1.253 . S
O584 Zn578 1.941 . S
O584 C594 1.283 . S
O585 Zn578 1.965 . S
O585 C593 1.303 . S
O586 Zn579 1.938 . S
O586 C593 1.247 . S
O587 Zn579 1.906 . S
O587 C595 1.304 . S
O588 Zn576 1.924 . S
O588 C596 1.311 . S
O589 Zn580 1.977 . S
O589 C595 1.272 . S
O590 Zn580 1.910 . S
O590 C596 1.231 . S
C591 O575 1.225 . S
C591 O597 1.298 . S
C592 O581 1.226 . S
C592 O582 1.307 . S
C593 O585 1.303 . S
C593 O586 1.247 . S
C594 O583 1.253 . S
C594 O584 1.283 . S
C595 O587 1.304 . S
C595 O589 1.272 . S
C596 O588 1.311 . S
C596 O590 1.231 . S
O597 Zn579 1.953 . S
O597 C591 1.298 . S
O598 Zn599 1.953 . S
O598 C614 1.225 . S
Zn599 O598 1.953 . S
Zn599 O600 1.949 . S
Zn599 O606 1.919 . S
Zn599 O611 1.924 . S
O600 Zn599 1.949 . S
O600 Zn601 1.923 . S
O600 Zn602 1.950 . S
O600 Zn603 1.945 . S
Zn601 O600 1.923 . S
Zn601 O604 1.933 . S
Zn601 O607 1.941 . S
Zn601 O608 1.965 . S
Zn602 O600 1.950 . S
Zn602 O609 1.938 . S
Zn602 O610 1.906 . S
Zn602 O620 1.953 . S
Zn603 O600 1.945 . S
Zn603 O605 1.932 . S
Zn603 O612 1.977 . S
Zn603 O613 1.910 . S
O604 Zn601 1.933 . S
O604 C615 1.226 . S
O605 Zn603 1.932 . S
O605 C615 1.307 . S
O606 Zn599 1.919 . S
O606 C617 1.253 . S
O607 Zn601 1.941 . S
O607 C617 1.283 . S
O608 Zn601 1.965 . S
O608 C616 1.303 . S
O609 Zn602 1.938 . S
O609 C616 1.247 . S
O610 Zn602 1.906 . S
O610 C618 1.304 . S
O611 Zn599 1.924 . S
O611 C619 1.311 . S
O612 Zn603 1.977 . S
O612 C618 1.272 . S
O613 Zn603 1.910 . S
O613 C619 1.231 . S
C614 O598 1.225 . S
C614 O620 1.298 . S
C615 O604 1.226 . S
C615 O605 1.307 . S
C616 O608 1.303 . S
C616 O609 1.247 . S
C617 O606 1.253 . S
C617 O607 1.283 . S
C618 O610 1.304 . S
C618 O612 1.272 . S
C619 O611 1.311 . S
C619 O613 1.231 . S
O620 Zn602 1.953 . S
O620 C614 1.298 . S
O621 Zn622 1.953 . S
O621 C637 1.225 . S
Zn622 O621 1.953 . S
Zn622 O623 1.949 . S
Zn622 O629 1.919 . S
Zn622 O634 1.924 . S
O623 Zn622 1.949 . S
O623 Zn624 1.923 . S
O623 Zn625 1.950 . S
O623 Zn626 1.945 . S
Zn624 O623 1.923 . S
Zn624 O627 1.933 . S
Zn624 O630 1.941 . S
Zn624 O631 1.965 . S
Zn625 O623 1.950 . S
Zn625 O632 1.938 . S
Zn625 O633 1.906 . S
Zn625 O643 1.953 . S
Zn626 O623 1.945 . S
Zn626 O628 1.932 . S
Zn626 O635 1.977 . S
Zn626 O636 1.910 . S
O627 Zn624 1.933 . S
O627 C638 1.226 . S
O628 Zn626 1.932 . S
O628 C638 1.307 . S
O629 Zn622 1.919 . S
O629 C640 1.253 . S
O630 Zn624 1.941 . S
O630 C640 1.283 . S
O631 Zn624 1.965 . S
O631 C639 1.303 . S
O632 Zn625 1.938 . S
O632 C639 1.247 . S
O633 Zn625 1.906 . S
O633 C641 1.304 . S
O634 Zn622 1.924 . S
O634 C642 1.311 . S
O635 Zn626 1.977 . S
O635 C641 1.272 . S
O636 Zn626 1.910 . S
O636 C642 1.231 . S
C637 O621 1.225 . S
C637 O643 1.298 . S
C638 O627 1.226 . S
C638 O628 1.307 . S
C639 O631 1.303 . S
C639 O632 1.247 . S
C640 O629 1.253 . S
C640 O630 1.283 . S
C641 O633 1.304 . S
C641 O635 1.272 . S
C642 O634 1.311 . S
C642 O636 1.231 . S
O643 Zn625 1.953 . S
O643 C637 1.298 . S
O644 Zn645 1.953 . S
O644 C660 1.225 . S
Zn645 O644 1.953 . S
Zn645 O646 1.949 . S
Zn645 O652 1.919 . S
Zn645 O657 1.924 . S
O646 Zn645 1.949 . S
O646 Zn647 1.923 . S
O646 Zn648 1.950 . S
O646 Zn649 1.945 . S
Zn647 O646 1.923 . S
Zn647 O650 1.933 . S
Zn647 O653 1.941 . S
Zn647 O654 1.965 . S
Zn648 O646 1.950 . S
Zn648 O655 1.938 . S
Zn648 O656 1.906 . S
Zn648 O666 1.953 . S
Zn649 O646 1.945 . S
Zn649 O651 1.932 . S
Zn649 O658 1.977 . S
Zn649 O659 1.910 . S
O650 Zn647 1.933 . S
O650 C661 1.226 . S
O651 Zn649 1.932 . S
O651 C661 1.307 . S
O652 Zn645 1.919 . S
O652 C663 1.253 . S
O653 Zn647 1.941 . S
O653 C663 1.283 . S
O654 Zn647 1.965 . S
O654 C662 1.303 . S
O655 Zn648 1.938 . S
O655 C662 1.247 . S
O656 Zn648 1.906 . S
O656 C664 1.304 . S
O657 Zn645 1.924 . S
O657 C665 1.311 . S
O658 Zn649 1.977 . S
O658 C664 1.272 . S
O659 Zn649 1.910 . S
O659 C665 1.231 . S
C660 O644 1.225 . S
C660 O666 1.298 . S
C661 O650 1.226 . S
C661 O651 1.307 . S
C662 O654 1.303 . S
C662 O655 1.247 . S
C663 O652 1.253 . S
C663 O653 1.283 . S
C664 O656 1.304 . S
C664 O658 1.272 . S
C665 O657 1.311 . S
C665 O659 1.231 . S
O666 Zn648 1.953 . S
O666 C660 1.298 . S
O667 Zn668 1.953 . S
O667 C683 1.225 . S
Zn668 O667 1.953 . S
Zn668 O669 1.949 . S
Zn668 O675 1.919 . S
Zn668 O680 1.924 . S
O669 Zn668 1.949 . S
O669 Zn670 1.923 . S
O669 Zn671 1.950 . S
O669 Zn672 1.945 . S
Zn670 O669 1.923 . S
Zn670 O673 1.933 . S
Zn670 O676 1.941 . S
Zn670 O677 1.965 . S
Zn671 O669 1.950 . S
Zn671 O678 1.938 . S
Zn671 O679 1.906 . S
Zn671 O689 1.953 . S
Zn672 O669 1.945 . S
Zn672 O674 1.932 . S
Zn672 O681 1.977 . S
Zn672 O682 1.910 . S
O673 Zn670 1.933 . S
O673 C684 1.226 . S
O674 Zn672 1.932 . S
O674 C684 1.307 . S
O675 Zn668 1.919 . S
O675 C686 1.253 . S
O676 Zn670 1.941 . S
O676 C686 1.283 . S
O677 Zn670 1.965 . S
O677 C685 1.303 . S
O678 Zn671 1.938 . S
O678 C685 1.247 . S
O679 Zn671 1.906 . S
O679 C687 1.304 . S
O680 Zn668 1.924 . S
O680 C688 1.311 . S
O681 Zn672 1.977 . S
O681 C687 1.272 . S
O682 Zn672 1.910 . S
O682 C688 1.231 . S
C683 O667 1.225 . S
C683 O689 1.298 . S
C684 O673 1.226 . S
C684 O674 1.307 . S
C685 O677 1.303 . S
C685 O678 1.247 . S
C686 O675 1.253 . S
C686 O676 1.283 . S
C687 O679 1.304 . S
C687 O681 1.272 . S
C688 O680 1.311 . S
C688 O682 1.231 . S
O689 Zn671 1.953 . S
O689 C683 1.298 . S
O690 Zn691 1.953 . S
O690 C706 1.225 . S
Zn691 O690 1.953 . S
Zn691 O692 1.949 . S
Zn691 O698 1.919 . S
Zn691 O703 1.924 . S
O692 Zn691 1.949 . S
O692 Zn693 1.923 . S
O692 Zn694 1.950 . S
O692 Zn695 1.945 . S
Zn693 O692 1.923 . S
Zn693 O696 1.933 . S
Zn693 O699 1.941 . S
Zn693 O700 1.965 . S
Zn694 O692 1.950 . S
Zn694 O701 1.938 . S
Zn694 O702 1.906 . S
Zn694 O712 1.953 . S
Zn695 O692 1.945 . S
Zn695 O697 1.932 . S
Zn695 O704 1.977 . S
Zn695 O705 1.910 . S
O696 Zn693 1.933 . S
O696 C707 1.226 . S
O697 Zn695 1.932 . S
O697 C707 1.307 . S
O698 Zn691 1.919 . S
O698 C709 1.253 . S
O699 Zn693 1.941 . S
O699 C709 1.283 . S
O700 Zn693 1.965 . S
O700 C708 1.303 . S
O701 Zn694 1.938 . S
O701 C708 1.247 . S
O702 Zn694 1.906 . S
O702 C710 1.304 . S
O703 Zn691 1.924 . S
O703 C711 1.311 . S
O704 Zn695 1.977 . S
O704 C710 1.272 . S
O705 Zn695 1.910 . S
O705 C711 1.231 . S
C706 O690 1.225 . S
C706 O712 1.298 . S
C707 O696 1.226 . S
C707 O697 1.307 . S
C708 O700 1.303 . S
C708 O701 1.247 . S
C709 O698 1.253 . S
C709 O699 1.283 . S
C710 O702 1.304 . S
C710 O704 1.272 . S
C711 O703 1.311 . S
C711 O705 1.231 . S
O712 Zn694 1.953 . S
O712 C706 1.298 . S
O713 Zn714 1.953 . S
O713 C729 1.225 . S
Zn714 O713 1.953 . S
Zn714 O715 1.949 . S
Zn714 O721 1.919 . S
Zn714 O726 1.924 . S
O715 Zn714 1.949 . S
O715 Zn716 1.923 . S
O715 Zn717 1.950 . S
O715 Zn718 1.945 . S
Zn716 O715 1.923 . S
Zn716 O719 1.933 . S
Zn716 O722 1.941 . S
Zn716 O723 1.965 . S
Zn717 O715 1.950 . S
Zn717 O724 1.938 . S
Zn717 O725 1.906 . S
Zn717 O735 1.953 . S
Zn718 O715 1.945 . S
Zn718 O720 1.932 . S
Zn718 O727 1.977 . S
Zn718 O728 1.910 . S
O719 Zn716 1.933 . S
O719 C730 1.226 . S
O720 Zn718 1.932 . S
O720 C730 1.307 . S
O721 Zn714 1.919 . S
O721 C732 1.253 . S
O722 Zn716 1.941 . S
O722 C732 1.283 . S
O723 Zn716 1.965 . S
O723 C731 1.303 . S
O724 Zn717 1.938 . S
O724 C731 1.247 . S
O725 Zn717 1.906 . S
O725 C733 1.304 . S
O726 Zn714 1.924 . S
O726 C734 1.311 . S
O727 Zn718 1.977 . S
O727 C733 1.272 . S
O728 Zn718 1.910 . S
O728 C734 1.231 . S
C729 O713 1.225 . S
C729 O735 1.298 . S
C730 O719 1.226 . S
C730 O720 1.307 . S
C731 O723 1.303 . S
C731 O724 1.247 . S
C732 O721 1.253 . S
C732 O722 1.283 . S
C733 O725 1.304 . S
C733 O727 1.272 . S
C734 O726 1.311 . S
C734 O728 1.231 . S
O735 Zn717 1.953 . S
O735 C729 1.298 . S
H736 C742 0.930 . S
H737 C745 0.930 . S
H738 C746 0.930 . S
H739 C747 0.930 . S
H740 C750 0.930 . S
H741 C751 0.930 . S
C742 H736 0.930 . S
C742 C743 1.355 . S
C742 C744 1.415 . S
C743 C742 1.355 . S
C743 C745 1.419 . S
C744 C742 1.415 . S
C744 C749 1.425 . S
C744 C751 1.409 . S
C745 H737 0.930 . S
C745 C743 1.419 . S
C745 C746 1.362 . S
C746 H738 0.930 . S
C746 C745 1.362 . S
C746 C749 1.409 . S
C747 H739 0.930 . S
C747 C748 1.355 . S
C747 C749 1.415 . S
C748 C747 1.355 . S
C748 C750 1.419 . S
C749 C744 1.425 . S
C749 C746 1.409 . S
C749 C747 1.415 . S
C750 H740 0.930 . S
C750 C748 1.419 . S
C750 C751 1.362 . S
C751 H741 0.930 . S
C751 C744 1.409 . S
C751 C750 1.362 . S
H752 C758 0.930 . S
H753 C761 0.930 . S
H754 C762 0.930 . S
H755 C763 0.930 . S
H756 C766 0.930 . S
H757 C767 0.930 . S
C758 H752 0.930 . S
C758 C759 1.355 1_655 S
C758 C760 1.415 . S
C759 C758 1.355 1_455 S
C759 C761 1.419 . S
C760 C758 1.415 . S
C760 C765 1.425 . S
C760 C767 1.409 . S
C761 H753 0.930 . S
C761 C759 1.419 . S
C761 C762 1.362 . S
C762 H754 0.930 . S
C762 C761 1.362 . S
C762 C765 1.409 1_455 S
C763 H755 0.930 . S
C763 C764 1.355 . S
C763 C765 1.415 . S
C764 C763 1.355 . S
C764 C766 1.419 . S
C765 C760 1.425 . S
C765 C762 1.409 1_655 S
C765 C763 1.415 . S
C766 H756 0.930 . S
C766 C764 1.419 . S
C766 C767 1.362 . S
C767 H757 0.930 . S
C767 C760 1.409 . S
C767 C766 1.362 . S
H768 C774 0.930 . S
H769 C777 0.930 . S
H770 C778 0.930 . S
H771 C779 0.930 . S
H772 C782 0.930 . S
H773 C783 0.930 . S
C774 H768 0.930 . S
C774 C775 1.355 . S
C774 C776 1.415 . S
C775 C774 1.355 . S
C775 C777 1.419 . S
C776 C774 1.415 . S
C776 C781 1.425 . S
C776 C783 1.409 . S
C777 H769 0.930 . S
C777 C775 1.419 . S
C777 C778 1.362 . S
C778 H770 0.930 . S
C778 C777 1.362 . S
C778 C781 1.409 . S
C779 H771 0.930 . S
C779 C780 1.355 . S
C779 C781 1.415 . S
C780 C779 1.355 . S
C780 C782 1.419 . S
C781 C776 1.425 . S
C781 C778 1.409 . S
C781 C779 1.415 . S
C782 H772 0.930 . S
C782 C780 1.419 . S
C782 C783 1.362 . S
C783 H773 0.930 . S
C783 C776 1.409 . S
C783 C782 1.362 . S
H784 C790 0.930 . S
H785 C793 0.930 . S
H786 C794 0.930 . S
H787 C795 0.930 . S
H788 C798 0.930 . S
H789 C799 0.930 . S
C790 H784 0.930 . S
C790 C791 1.355 . S
C790 C792 1.415 . S
C791 C790 1.355 . S
C791 C793 1.419 . S
C792 C790 1.415 . S
C792 C797 1.425 . S
C792 C799 1.409 . S
C793 H785 0.930 . S
C793 C791 1.419 . S
C793 C794 1.362 . S
C794 H786 0.930 . S
C794 C793 1.362 . S
C794 C797 1.409 . S
C795 H787 0.930 . S
C795 C796 1.355 . S
C795 C797 1.415 . S
C796 C795 1.355 . S
C796 C798 1.419 . S
C797 C792 1.425 . S
C797 C794 1.409 . S
C797 C795 1.415 . S
C798 H788 0.930 . S
C798 C796 1.419 . S
C798 C799 1.362 . S
C799 H789 0.930 . S
C799 C792 1.409 . S
C799 C798 1.362 . S
H800 C806 0.930 . S
H801 C809 0.930 . S
H802 C810 0.930 . S
H803 C811 0.930 . S
H804 C814 0.930 . S
H805 C815 0.930 . S
C806 H800 0.930 . S
C806 C807 1.355 . S
C806 C808 1.415 . S
C807 C806 1.355 . S
C807 C809 1.419 . S
C808 C806 1.415 . S
C808 C813 1.425 . S
C808 C815 1.409 . S
C809 H801 0.930 . S
C809 C807 1.419 . S
C809 C810 1.362 . S
C810 H802 0.930 . S
C810 C809 1.362 . S
C810 C813 1.409 . S
C811 H803 0.930 . S
C811 C812 1.355 . S
C811 C813 1.415 . S
C812 C811 1.355 . S
C812 C814 1.419 . S
C813 C808 1.425 . S
C813 C810 1.409 . S
C813 C811 1.415 . S
C814 H804 0.930 . S
C814 C812 1.419 . S
C814 C815 1.362 . S
C815 H805 0.930 . S
C815 C808 1.409 . S
C815 C814 1.362 . S
H816 C822 0.930 . S
H817 C825 0.930 . S
H818 C826 0.930 . S
H819 C827 0.930 . S
H820 C830 0.930 . S
H821 C831 0.930 . S
C822 H816 0.930 . S
C822 C823 1.355 . S
C822 C824 1.415 . S
C823 C822 1.355 . S
C823 C825 1.419 . S
C824 C822 1.415 . S
C824 C829 1.425 . S
C824 C831 1.409 . S
C825 H817 0.930 . S
C825 C823 1.419 . S
C825 C826 1.362 . S
C826 H818 0.930 . S
C826 C825 1.362 . S
C826 C829 1.409 . S
C827 H819 0.930 . S
C827 C828 1.355 . S
C827 C829 1.415 . S
C828 C827 1.355 . S
C828 C830 1.419 . S
C829 C824 1.425 . S
C829 C826 1.409 . S
C829 C827 1.415 . S
C830 H820 0.930 . S
C830 C828 1.419 . S
C830 C831 1.362 . S
C831 H821 0.930 . S
C831 C824 1.409 . S
C831 C830 1.362 . S
H832 C838 0.930 . S
H833 C841 0.930 . S
H834 C842 0.930 . S
H835 C843 0.930 . S
H836 C846 0.930 . S
H837 C847 0.930 . S
C838 H832 0.930 . S
C838 C839 1.355 . S
C838 C840 1.415 . S
C839 C838 1.355 . S
C839 C841 1.419 . S
C840 C838 1.415 . S
C840 C845 1.425 . S
C840 C847 1.409 . S
C841 H833 0.930 . S
C841 C839 1.419 . S
C841 C842 1.362 . S
C842 H834 0.930 . S
C842 C841 1.362 . S
C842 C845 1.409 . S
C843 H835 0.930 . S
C843 C844 1.355 . S
C843 C845 1.415 . S
C844 C843 1.355 . S
C844 C846 1.419 . S
C845 C840 1.425 . S
C845 C842 1.409 . S
C845 C843 1.415 . S
C846 H836 0.930 . S
C846 C844 1.419 . S
C846 C847 1.362 . S
C847 H837 0.930 . S
C847 C840 1.409 . S
C847 C846 1.362 . S
H848 C854 0.930 . S
H849 C857 0.930 . S
H850 C858 0.930 . S
H851 C859 0.930 . S
H852 C862 0.930 . S
H853 C863 0.930 . S
C854 H848 0.930 . S
C854 C855 1.355 . S
C854 C856 1.415 1_455 S
C855 C854 1.355 . S
C855 C857 1.419 . S
C856 C854 1.415 1_655 S
C856 C861 1.425 . S
C856 C863 1.409 . S
C857 H849 0.930 . S
C857 C855 1.419 . S
C857 C858 1.362 1_455 S
C858 H850 0.930 . S
C858 C857 1.362 1_655 S
C858 C861 1.409 . S
C859 H851 0.930 . S
C859 C860 1.355 . S
C859 C861 1.415 . S
C860 C859 1.355 . S
C860 C862 1.419 . S
C861 C856 1.425 . S
C861 C858 1.409 . S
C861 C859 1.415 . S
C862 H852 0.930 . S
C862 C860 1.419 . S
C862 C863 1.362 . S
C863 H853 0.930 . S
C863 C856 1.409 . S
C863 C862 1.362 . S
H864 C870 0.930 . S
H865 C873 0.930 . S
H866 C874 0.930 . S
H867 C875 0.930 . S
H868 C878 0.930 . S
H869 C879 0.930 . S
C870 H864 0.930 . S
C870 C871 1.355 . S
C870 C872 1.415 . S
C871 C870 1.355 . S
C871 C873 1.419 . S
C872 C870 1.415 . S
C872 C877 1.425 . S
C872 C879 1.409 . S
C873 H865 0.930 . S
C873 C871 1.419 . S
C873 C874 1.362 . S
C874 H866 0.930 . S
C874 C873 1.362 . S
C874 C877 1.409 . S
C875 H867 0.930 . S
C875 C876 1.355 . S
C875 C877 1.415 . S
C876 C875 1.355 . S
C876 C878 1.419 . S
C877 C872 1.425 . S
C877 C874 1.409 . S
C877 C875 1.415 . S
C878 H868 0.930 . S
C878 C876 1.419 . S
C878 C879 1.362 . S
C879 H869 0.930 . S
C879 C872 1.409 . S
C879 C878 1.362 . S
H880 C886 0.930 . S
H881 C889 0.930 . S
H882 C890 0.930 . S
H883 C891 0.930 . S
H884 C894 0.930 . S
H885 C895 0.930 . S
C886 H880 0.930 . S
C886 C887 1.355 . S
C886 C888 1.415 1_655 S
C887 C886 1.355 . S
C887 C889 1.419 1_655 S
C888 C886 1.415 1_455 S
C888 C893 1.425 . S
C888 C895 1.409 . S
C889 H881 0.930 . S
C889 C887 1.419 1_455 S
C889 C890 1.362 . S
C890 H882 0.930 . S
C890 C889 1.362 . S
C890 C893 1.409 . S
C891 H883 0.930 . S
C891 C892 1.355 . S
C891 C893 1.415 . S
C892 C891 1.355 . S
C892 C894 1.419 . S
C893 C888 1.425 . S
C893 C890 1.409 . S
C893 C891 1.415 . S
C894 H884 0.930 . S
C894 C892 1.419 . S
C894 C895 1.362 . S
C895 H885 0.930 . S
C895 C888 1.409 . S
C895 C894 1.362 . S
H896 C902 0.930 . S
H897 C905 0.930 . S
H898 C906 0.930 . S
H899 C907 0.930 . S
H900 C910 0.930 . S
H901 C911 0.930 . S
C902 H896 0.930 . S
C902 C903 1.355 . S
C902 C904 1.415 . S
C903 C902 1.355 . S
C903 C905 1.419 . S
C904 C902 1.415 . S
C904 C909 1.425 . S
C904 C911 1.409 . S
C905 H897 0.930 . S
C905 C903 1.419 . S
C905 C906 1.362 . S
C906 H898 0.930 . S
C906 C905 1.362 . S
C906 C909 1.409 . S
C907 H899 0.930 . S
C907 C908 1.355 . S
C907 C909 1.415 . S
C908 C907 1.355 . S
C908 C910 1.419 . S
C909 C904 1.425 . S
C909 C906 1.409 . S
C909 C907 1.415 . S
C910 H900 0.930 . S
C910 C908 1.419 . S
C910 C911 1.362 . S
C911 H901 0.930 . S
C911 C904 1.409 . S
C911 C910 1.362 . S
H912 C918 0.930 . S
H913 C921 0.930 . S
H914 C922 0.930 . S
H915 C923 0.930 . S
H916 C926 0.930 . S
H917 C927 0.930 . S
C918 H912 0.930 . S
C918 C919 1.355 . S
C918 C920 1.415 . S
C919 C918 1.355 . S
C919 C921 1.419 . S
C920 C918 1.415 . S
C920 C925 1.425 . S
C920 C927 1.409 . S
C921 H913 0.930 . S
C921 C919 1.419 . S
C921 C922 1.362 . S
C922 H914 0.930 . S
C922 C921 1.362 . S
C922 C925 1.409 . S
C923 H915 0.930 . S
C923 C924 1.355 . S
C923 C925 1.415 . S
C924 C923 1.355 . S
C924 C926 1.419 . S
C925 C920 1.425 . S
C925 C922 1.409 . S
C925 C923 1.415 . S
C926 H916 0.930 . S
C926 C924 1.419 . S
C926 C927 1.362 . S
C927 H917 0.930 . S
C927 C920 1.409 . S
C927 C926 1.362 . S
H928 C934 0.930 . S
H929 C937 0.930 . S
H930 C938 0.930 . S
H931 C939 0.930 . S
H932 C942 0.930 . S
H933 C943 0.930 . S
C934 H928 0.930 . S
C934 C935 1.355 . S
C934 C936 1.415 . S
C935 C934 1.355 . S
C935 C937 1.419 . S
C936 C934 1.415 . S
C936 C941 1.425 . S
C936 C943 1.409 . S
C937 H929 0.930 . S
C937 C935 1.419 . S
C937 C938 1.362 . S
C938 H930 0.930 . S
C938 C937 1.362 . S
C938 C941 1.409 . S
C939 H931 0.930 . S
C939 C940 1.355 . S
C939 C941 1.415 . S
C940 C939 1.355 . S
C940 C942 1.419 . S
C941 C936 1.425 . S
C941 C938 1.409 . S
C941 C939 1.415 . S
C942 H932 0.930 . S
C942 C940 1.419 . S
C942 C943 1.362 . S
C943 H933 0.930 . S
C943 C936 1.409 . S
C943 C942 1.362 . S
H944 C950 0.930 . S
H945 C953 0.930 . S
H946 C954 0.930 . S
H947 C955 0.930 . S
H948 C958 0.930 . S
H949 C959 0.930 . S
C950 H944 0.930 . S
C950 C951 1.355 . S
C950 C952 1.415 . S
C951 C950 1.355 . S
C951 C953 1.419 . S
C952 C950 1.415 . S
C952 C957 1.425 . S
C952 C959 1.409 . S
C953 H945 0.930 . S
C953 C951 1.419 . S
C953 C954 1.362 . S
C954 H946 0.930 . S
C954 C953 1.362 . S
C954 C957 1.409 . S
C955 H947 0.930 . S
C955 C956 1.355 . S
C955 C957 1.415 . S
C956 C955 1.355 . S
C956 C958 1.419 . S
C957 C952 1.425 . S
C957 C954 1.409 . S
C957 C955 1.415 . S
C958 H948 0.930 . S
C958 C956 1.419 . S
C958 C959 1.362 . S
C959 H949 0.930 . S
C959 C952 1.409 . S
C959 C958 1.362 . S
H960 C966 0.930 . S
H961 C969 0.930 . S
H962 C970 0.930 . S
H963 C971 0.930 . S
H964 C974 0.930 . S
H965 C975 0.930 . S
C966 H960 0.930 . S
C966 C967 1.355 . S
C966 C968 1.415 . S
C967 C966 1.355 . S
C967 C969 1.419 . S
C968 C966 1.415 . S
C968 C973 1.425 . S
C968 C975 1.409 . S
C969 H961 0.930 . S
C969 C967 1.419 . S
C969 C970 1.362 . S
C970 H962 0.930 . S
C970 C969 1.362 . S
C970 C973 1.409 . S
C971 H963 0.930 . S
C971 C972 1.355 . S
C971 C973 1.415 . S
C972 C971 1.355 . S
C972 C974 1.419 . S
C973 C968 1.425 . S
C973 C970 1.409 . S
C973 C971 1.415 . S
C974 H964 0.930 . S
C974 C972 1.419 . S
C974 C975 1.362 . S
C975 H965 0.930 . S
C975 C968 1.409 . S
C975 C974 1.362 . S
H976 C982 0.930 . S
H977 C985 0.930 . S
H978 C986 0.930 . S
H979 C987 0.930 . S
H980 C990 0.930 . S
H981 C991 0.930 . S
C982 H976 0.930 . S
C982 C983 1.355 . S
C982 C984 1.415 . S
C983 C982 1.355 . S
C983 C985 1.419 . S
C984 C982 1.415 . S
C984 C989 1.425 . S
C984 C991 1.409 . S
C985 H977 0.930 . S
C985 C983 1.419 . S
C985 C986 1.362 . S
C986 H978 0.930 . S
C986 C985 1.362 . S
C986 C989 1.409 . S
C987 H979 0.930 . S
C987 C988 1.355 1_455 S
C987 C989 1.415 . S
C988 C987 1.355 1_655 S
C988 C990 1.419 . S
C989 C984 1.425 . S
C989 C986 1.409 . S
C989 C987 1.415 . S
C990 H980 0.930 . S
C990 C988 1.419 . S
C990 C991 1.362 1_655 S
C991 H981 0.930 . S
C991 C984 1.409 . S
C991 C990 1.362 1_455 S
H992 C998 0.930 . S
H993 C1001 0.930 . S
H994 C1002 0.930 . S
H995 C1003 0.930 . S
H996 C1006 0.930 . S
H997 C1007 0.930 . S
C998 H992 0.930 . S
C998 C999 1.355 . S
C998 C1000 1.415 . S
C999 C998 1.355 . S
C999 C1001 1.419 . S
C1000 C998 1.415 . S
C1000 C1005 1.425 . S
C1000 C1007 1.409 . S
C1001 H993 0.930 . S
C1001 C999 1.419 . S
C1001 C1002 1.362 . S
C1002 H994 0.930 . S
C1002 C1001 1.362 . S
C1002 C1005 1.409 . S
C1003 H995 0.930 . S
C1003 C1004 1.355 . S
C1003 C1005 1.415 . S
C1004 C1003 1.355 . S
C1004 C1006 1.419 . S
C1005 C1000 1.425 . S
C1005 C1002 1.409 . S
C1005 C1003 1.415 . S
C1006 H996 0.930 . S
C1006 C1004 1.419 . S
C1006 C1007 1.362 . S
C1007 H997 0.930 . S
C1007 C1000 1.409 . S
C1007 C1006 1.362 . S
H1008 C1014 0.930 . S
H1009 C1017 0.930 . S
H1010 C1018 0.930 . S
H1011 C1019 0.930 . S
H1012 C1022 0.930 . S
H1013 C1023 0.930 . S
C1014 H1008 0.930 . S
C1014 C1015 1.355 . S
C1014 C1016 1.415 . S
C1015 C1014 1.355 . S
C1015 C1017 1.419 . S
C1016 C1014 1.415 . S
C1016 C1021 1.425 . S
C1016 C1023 1.409 . S
C1017 H1009 0.930 . S
C1017 C1015 1.419 . S
C1017 C1018 1.362 . S
C1018 H1010 0.930 . S
C1018 C1017 1.362 . S
C1018 C1021 1.409 . S
C1019 H1011 0.930 . S
C1019 C1020 1.355 . S
C1019 C1021 1.415 . S
C1020 C1019 1.355 . S
C1020 C1022 1.419 . S
C1021 C1016 1.425 . S
C1021 C1018 1.409 . S
C1021 C1019 1.415 . S
C1022 H1012 0.930 . S
C1022 C1020 1.419 . S
C1022 C1023 1.362 . S
C1023 H1013 0.930 . S
C1023 C1016 1.409 . S
C1023 C1022 1.362 . S
H1024 C1030 0.930 . S
H1025 C1033 0.930 . S
H1026 C1034 0.930 . S
H1027 C1035 0.930 . S
H1028 C1038 0.930 . S
H1029 C1039 0.930 . S
C1030 H1024 0.930 . S
C1030 C1031 1.355 . S
C1030 C1032 1.415 . S
C1031 C1030 1.355 . S
C1031 C1033 1.419 . S
C1032 C1030 1.415 . S
C1032 C1037 1.425 . S
C1032 C1039 1.409 . S
C1033 H1025 0.930 . S
C1033 C1031 1.419 . S
C1033 C1034 1.362 . S
C1034 H1026 0.930 . S
C1034 C1033 1.362 . S
C1034 C1037 1.409 . S
C1035 H1027 0.930 . S
C1035 C1036 1.355 . S
C1035 C1037 1.415 . S
C1036 C1035 1.355 . S
C1036 C1038 1.419 . S
C1037 C1032 1.425 . S
C1037 C1034 1.409 . S
C1037 C1035 1.415 . S
C1038 H1028 0.930 . S
C1038 C1036 1.419 . S
C1038 C1039 1.362 . S
C1039 H1029 0.930 . S
C1039 C1032 1.409 . S
C1039 C1038 1.362 . S
H1040 C1046 0.930 . S
H1041 C1049 0.930 . S
H1042 C1050 0.930 . S
H1043 C1051 0.930 . S
H1044 C1054 0.930 . S
H1045 C1055 0.930 1_655 S
C1046 H1040 0.930 . S
C1046 C1047 1.355 . S
C1046 C1048 1.415 1_655 S
C1047 C1046 1.355 . S
C1047 C1049 1.419 1_655 S
C1048 C1046 1.415 1_455 S
C1048 C1053 1.425 . S
C1048 C1055 1.409 . S
C1049 H1041 0.930 . S
C1049 C1047 1.419 1_455 S
C1049 C1050 1.362 . S
C1050 H1042 0.930 . S
C1050 C1049 1.362 . S
C1050 C1053 1.409 . S
C1051 H1043 0.930 . S
C1051 C1052 1.355 . S
C1051 C1053 1.415 . S
C1052 C1051 1.355 . S
C1052 C1054 1.419 . S
C1053 C1048 1.425 . S
C1053 C1050 1.409 . S
C1053 C1051 1.415 . S
C1054 H1044 0.930 . S
C1054 C1052 1.419 . S
C1054 C1055 1.362 . S
C1055 H1045 0.930 1_455 S
C1055 C1048 1.409 . S
C1055 C1054 1.362 . S
H1056 C1062 0.930 . S
H1057 C1065 0.930 . S
H1058 C1066 0.930 . S
H1059 C1067 0.930 . S
H1060 C1070 0.930 . S
H1061 C1071 0.930 . S
C1062 H1056 0.930 . S
C1062 C1063 1.355 . S
C1062 C1064 1.415 . S
C1063 C1062 1.355 . S
C1063 C1065 1.419 . S
C1064 C1062 1.415 . S
C1064 C1069 1.425 . S
C1064 C1071 1.409 . S
C1065 H1057 0.930 . S
C1065 C1063 1.419 . S
C1065 C1066 1.362 . S
C1066 H1058 0.930 . S
C1066 C1065 1.362 . S
C1066 C1069 1.409 . S
C1067 H1059 0.930 . S
C1067 C1068 1.355 . S
C1067 C1069 1.415 . S
C1068 C1067 1.355 . S
C1068 C1070 1.419 . S
C1069 C1064 1.425 . S
C1069 C1066 1.409 . S
C1069 C1067 1.415 . S
C1070 H1060 0.930 . S
C1070 C1068 1.419 . S
C1070 C1071 1.362 . S
C1071 H1061 0.930 . S
C1071 C1064 1.409 . S
C1071 C1070 1.362 . S
H1072 C1078 0.930 . S
H1073 C1081 0.930 . S
H1074 C1082 0.930 . S
H1075 C1083 0.930 . S
H1076 C1086 0.932 . S
H1077 C1087 0.930 . S
C1078 H1072 0.930 . S
C1078 C1079 1.355 . S
C1078 C1080 1.415 . S
C1079 C1078 1.355 . S
C1079 C1081 1.419 . S
C1080 C1078 1.415 . S
C1080 C1085 1.425 . S
C1080 C1087 1.409 . S
C1081 H1073 0.930 . S
C1081 C1079 1.419 . S
C1081 C1082 1.362 . S
C1082 H1074 0.930 . S
C1082 C1081 1.362 . S
C1082 C1085 1.409 . S
C1083 H1075 0.930 . S
C1083 C1084 1.355 . S
C1083 C1085 1.415 1_655 S
C1084 C1083 1.355 . S
C1084 C1086 1.419 1_655 S
C1085 C1080 1.425 . S
C1085 C1082 1.409 . S
C1085 C1083 1.415 1_455 S
C1086 H1076 0.932 . S
C1086 C1084 1.419 1_455 S
C1086 C1087 1.362 . S
C1087 H1077 0.930 . S
C1087 C1080 1.409 . S
C1087 C1086 1.362 . S
H1088 C1094 0.930 . S
H1089 C1097 0.930 . S
H1090 C1098 0.930 . S
H1091 C1099 0.930 . S
H1092 C1102 0.930 . S
H1093 C1103 0.930 . S
C1094 H1088 0.930 . S
C1094 C1095 1.355 . S
C1094 C1096 1.415 . S
C1095 C1094 1.355 . S
C1095 C1097 1.419 . S
C1096 C1094 1.415 . S
C1096 C1101 1.425 . S
C1096 C1103 1.409 . S
C1097 H1089 0.930 . S
C1097 C1095 1.419 . S
C1097 C1098 1.362 . S
C1098 H1090 0.930 . S
C1098 C1097 1.362 . S
C1098 C1101 1.409 . S
C1099 H1091 0.930 . S
C1099 C1100 1.355 . S
C1099 C1101 1.415 . S
C1100 C1099 1.355 . S
C1100 C1102 1.419 . S
C1101 C1096 1.425 . S
C1101 C1098 1.409 . S
C1101 C1099 1.415 . S
C1102 H1092 0.930 . S
C1102 C1100 1.419 . S
C1102 C1103 1.362 . S
C1103 H1093 0.930 . S
C1103 C1096 1.409 . S
C1103 C1102 1.362 . S
H1104 C1110 0.930 . S
H1105 C1113 0.930 . S
H1106 C1114 0.930 . S
H1107 C1115 0.930 . S
H1108 C1118 0.930 . S
H1109 C1119 0.930 . S
C1110 H1104 0.930 . S
C1110 C1111 1.355 . S
C1110 C1112 1.415 . S
C1111 C1110 1.355 . S
C1111 C1113 1.419 . S
C1112 C1110 1.415 . S
C1112 C1117 1.425 . S
C1112 C1119 1.409 . S
C1113 H1105 0.930 . S
C1113 C1111 1.419 . S
C1113 C1114 1.362 . S
C1114 H1106 0.930 . S
C1114 C1113 1.362 . S
C1114 C1117 1.409 . S
C1115 H1107 0.930 . S
C1115 C1116 1.355 . S
C1115 C1117 1.415 . S
C1116 C1115 1.355 . S
C1116 C1118 1.419 . S
C1117 C1112 1.425 . S
C1117 C1114 1.409 . S
C1117 C1115 1.415 . S
C1118 H1108 0.930 . S
C1118 C1116 1.419 . S
C1118 C1119 1.362 . S
C1119 H1109 0.930 . S
C1119 C1112 1.409 . S
C1119 C1118 1.362 . S
H1120 C1126 0.930 . S
H1121 C1129 0.930 . S
H1122 C1130 0.930 . S
H1123 C1131 0.930 . S
H1124 C1134 0.930 . S
H1125 C1135 0.930 . S
C1126 H1120 0.930 . S
C1126 C1127 1.355 . S
C1126 C1128 1.415 . S
C1127 C1126 1.355 . S
C1127 C1129 1.419 . S
C1128 C1126 1.415 . S
C1128 C1133 1.425 . S
C1128 C1135 1.409 . S
C1129 H1121 0.930 . S
C1129 C1127 1.419 . S
C1129 C1130 1.362 . S
C1130 H1122 0.930 . S
C1130 C1129 1.362 . S
C1130 C1133 1.409 . S
C1131 H1123 0.930 . S
C1131 C1132 1.355 . S
C1131 C1133 1.415 . S
C1132 C1131 1.355 . S
C1132 C1134 1.419 . S
C1133 C1128 1.425 . S
C1133 C1130 1.409 . S
C1133 C1131 1.415 . S
C1134 H1124 0.930 . S
C1134 C1132 1.419 . S
C1134 C1135 1.362 . S
C1135 H1125 0.930 . S
C1135 C1128 1.409 . S
C1135 C1134 1.362 . S
H1136 C1142 0.930 . S
H1137 C1145 0.930 . S
H1138 C1146 0.930 . S
H1139 C1147 0.930 . S
H1140 C1150 0.930 . S
H1141 C1151 0.930 . S
C1142 H1136 0.930 . S
C1142 C1143 1.355 . S
C1142 C1144 1.415 . S
C1143 C1142 1.355 . S
C1143 C1145 1.419 . S
C1144 C1142 1.415 . S
C1144 C1149 1.425 . S
C1144 C1151 1.409 . S
C1145 H1137 0.930 . S
C1145 C1143 1.419 . S
C1145 C1146 1.362 . S
C1146 H1138 0.930 . S
C1146 C1145 1.362 . S
C1146 C1149 1.409 . S
C1147 H1139 0.930 . S
C1147 C1148 1.355 . S
C1147 C1149 1.415 . S
C1148 C1147 1.355 . S
C1148 C1150 1.419 . S
C1149 C1144 1.425 . S
C1149 C1146 1.409 . S
C1149 C1147 1.415 . S
C1150 H1140 0.930 . S
C1150 C1148 1.419 . S
C1150 C1151 1.362 . S
C1151 H1141 0.930 . S
C1151 C1144 1.409 . S
C1151 C1150 1.362 . S
H1152 C1158 0.930 . S
H1153 C1161 0.930 . S
H1154 C1162 0.930 . S
H1155 C1163 0.930 . S
H1156 C1166 0.930 . S
H1157 C1167 0.930 . S
C1158 H1152 0.930 . S
C1158 C1159 1.355 . S
C1158 C1160 1.415 . S
C1159 C1158 1.355 . S
C1159 C1161 1.419 . S
C1160 C1158 1.415 . S
C1160 C1165 1.425 . S
C1160 C1167 1.409 . S
C1161 H1153 0.930 . S
C1161 C1159 1.419 . S
C1161 C1162 1.362 . S
C1162 H1154 0.930 . S
C1162 C1161 1.362 . S
C1162 C1165 1.409 . S
C1163 H1155 0.930 . S
C1163 C1164 1.355 . S
C1163 C1165 1.415 . S
C1164 C1163 1.355 . S
C1164 C1166 1.419 . S
C1165 C1160 1.425 . S
C1165 C1162 1.409 . S
C1165 C1163 1.415 . S
C1166 H1156 0.930 . S
C1166 C1164 1.419 . S
C1166 C1167 1.362 . S
C1167 H1157 0.930 . S
C1167 C1160 1.409 . S
C1167 C1166 1.362 . S
H1168 C1174 0.930 . S
H1169 C1177 0.930 . S
H1170 C1178 0.930 . S
H1171 C1179 0.930 . S
H1172 C1182 0.930 . S
H1173 C1183 0.930 1_455 S
C1174 H1168 0.930 . S
C1174 C1175 1.355 . S
C1174 C1176 1.415 1_455 S
C1175 C1174 1.355 . S
C1175 C1177 1.419 1_455 S
C1176 C1174 1.415 1_655 S
C1176 C1181 1.425 . S
C1176 C1183 1.409 . S
C1177 H1169 0.930 . S
C1177 C1175 1.419 1_655 S
C1177 C1178 1.362 . S
C1178 H1170 0.930 . S
C1178 C1177 1.362 . S
C1178 C1181 1.409 . S
C1179 H1171 0.930 . S
C1179 C1180 1.355 . S
C1179 C1181 1.415 . S
C1180 C1179 1.355 . S
C1180 C1182 1.419 . S
C1181 C1176 1.425 . S
C1181 C1178 1.409 . S
C1181 C1179 1.415 . S
C1182 H1172 0.930 . S
C1182 C1180 1.419 . S
C1182 C1183 1.362 . S
C1183 H1173 0.930 1_655 S
C1183 C1176 1.409 . S
C1183 C1182 1.362 . S
H1184 C1190 0.930 . S
H1185 C1193 0.930 . S
H1186 C1194 0.930 . S
H1187 C1195 0.930 . S
H1188 C1198 0.930 . S
H1189 C1199 0.930 . S
C1190 H1184 0.930 . S
C1190 C1191 1.355 . S
C1190 C1192 1.415 . S
C1191 C1190 1.355 . S
C1191 C1193 1.419 . S
C1192 C1190 1.415 . S
C1192 C1197 1.425 . S
C1192 C1199 1.409 . S
C1193 H1185 0.930 . S
C1193 C1191 1.419 . S
C1193 C1194 1.362 . S
C1194 H1186 0.930 . S
C1194 C1193 1.362 . S
C1194 C1197 1.409 . S
C1195 H1187 0.930 . S
C1195 C1196 1.355 . S
C1195 C1197 1.415 . S
C1196 C1195 1.355 . S
C1196 C1198 1.419 . S
C1197 C1192 1.425 . S
C1197 C1194 1.409 . S
C1197 C1195 1.415 . S
C1198 H1188 0.930 . S
C1198 C1196 1.419 . S
C1198 C1199 1.362 . S
C1199 H1189 0.930 . S
C1199 C1192 1.409 . S
C1199 C1198 1.362 . S
H1200 C1206 0.930 . S
H1201 C1209 0.930 . S
H1202 C1210 0.930 . S
H1203 C1211 0.930 . S
H1204 C1214 0.930 1_455 S
H1205 C1215 0.930 . S
C1206 H1200 0.930 . S
C1206 C1207 1.355 . S
C1206 C1208 1.415 . S
C1207 C1206 1.355 . S
C1207 C1209 1.419 . S
C1208 C1206 1.415 . S
C1208 C1213 1.425 . S
C1208 C1215 1.409 . S
C1209 H1201 0.930 . S
C1209 C1207 1.419 . S
C1209 C1210 1.362 . S
C1210 H1202 0.930 . S
C1210 C1209 1.362 . S
C1210 C1213 1.409 . S
C1211 H1203 0.930 . S
C1211 C1212 1.355 . S
C1211 C1213 1.415 1_455 S
C1212 C1211 1.355 . S
C1212 C1214 1.419 1_455 S
C1213 C1208 1.425 . S
C1213 C1210 1.409 . S
C1213 C1211 1.415 1_655 S
C1214 H1204 0.930 1_655 S
C1214 C1212 1.419 1_655 S
C1214 C1215 1.362 . S
C1215 H1205 0.930 . S
C1215 C1208 1.409 . S
C1215 C1214 1.362 . S
H1216 C1222 0.930 . S
H1217 C1225 0.930 . S
H1218 C1226 0.930 . S
H1219 C1227 0.930 . S
H1220 C1230 0.930 . S
H1221 C1231 0.930 . S
C1222 H1216 0.930 . S
C1222 C1223 1.355 . S
C1222 C1224 1.415 . S
C1223 C1222 1.355 . S
C1223 C1225 1.419 . S
C1224 C1222 1.415 . S
C1224 C1229 1.425 . S
C1224 C1231 1.409 . S
C1225 H1217 0.930 . S
C1225 C1223 1.419 . S
C1225 C1226 1.362 . S
C1226 H1218 0.930 . S
C1226 C1225 1.362 . S
C1226 C1229 1.409 . S
C1227 H1219 0.930 . S
C1227 C1228 1.355 . S
C1227 C1229 1.415 . S
C1228 C1227 1.355 . S
C1228 C1230 1.419 . S
C1229 C1224 1.425 . S
C1229 C1226 1.409 . S
C1229 C1227 1.415 . S
C1230 H1220 0.930 . S
C1230 C1228 1.419 . S
C1230 C1231 1.362 . S
C1231 H1221 0.930 . S
C1231 C1224 1.409 . S
C1231 C1230 1.362 . S
H1232 C1238 0.930 . S
H1233 C1241 0.930 . S
H1234 C1242 0.930 . S
H1235 C1243 0.930 . S
H1236 C1246 0.930 . S
H1237 C1247 0.930 . S
C1238 H1232 0.930 . S
C1238 C1239 1.355 . S
C1238 C1240 1.415 . S
C1239 C1238 1.355 . S
C1239 C1241 1.419 . S
C1240 C1238 1.415 . S
C1240 C1245 1.425 . S
C1240 C1247 1.409 . S
C1241 H1233 0.930 . S
C1241 C1239 1.419 . S
C1241 C1242 1.362 . S
C1242 H1234 0.930 . S
C1242 C1241 1.362 . S
C1242 C1245 1.409 . S
C1243 H1235 0.930 . S
C1243 C1244 1.355 . S
C1243 C1245 1.415 . S
C1244 C1243 1.355 . S
C1244 C1246 1.419 . S
C1245 C1240 1.425 . S
C1245 C1242 1.409 . S
C1245 C1243 1.415 . S
C1246 H1236 0.930 . S
C1246 C1244 1.419 . S
C1246 C1247 1.362 . S
C1247 H1237 0.930 . S
C1247 C1240 1.409 . S
C1247 C1246 1.362 . S
H1248 C1254 0.930 . S
H1249 C1257 0.930 . S
H1250 C1258 0.930 1_655 S
H1251 C1259 0.930 . S
H1252 C1262 0.930 . S
H1253 C1263 0.930 1_455 S
C1254 H1248 0.930 . S
C1254 C1255 1.355 . S
C1254 C1256 1.415 . S
C1255 C1254 1.355 . S
C1255 C1257 1.419 . S
C1256 C1254 1.415 . S
C1256 C1261 1.425 1_455 S
C1256 C1263 1.409 1_455 S
C1257 H1249 0.930 . S
C1257 C1255 1.419 . S
C1257 C1258 1.362 . S
C1258 H1250 0.930 1_455 S
C1258 C1257 1.362 . S
C1258 C1261 1.409 1_455 S
C1259 H1251 0.930 . S
C1259 C1260 1.355 . S
C1259 C1261 1.415 . S
C1260 C1259 1.355 . S
C1260 C1262 1.419 . S
C1261 C1256 1.425 1_655 S
C1261 C1258 1.409 1_655 S
C1261 C1259 1.415 . S
C1262 H1252 0.930 . S
C1262 C1260 1.419 . S
C1262 C1263 1.362 . S
C1263 H1253 0.930 1_655 S
C1263 C1256 1.409 1_655 S
C1263 C1262 1.362 . S
H1264 C1270 0.930 . S
H1265 C1273 0.930 . S
H1266 C1274 0.930 . S
H1267 C1275 0.930 . S
H1268 C1278 0.930 . S
H1269 C1279 0.930 . S
C1270 H1264 0.930 . S
C1270 C1271 1.355 . S
C1270 C1272 1.415 . S
C1271 C1270 1.355 . S
C1271 C1273 1.419 . S
C1272 C1270 1.415 . S
C1272 C1277 1.425 1_655 S
C1272 C1279 1.409 . S
C1273 H1265 0.930 . S
C1273 C1271 1.419 . S
C1273 C1274 1.362 1_655 S
C1274 H1266 0.930 . S
C1274 C1273 1.362 1_455 S
C1274 C1277 1.409 . S
C1275 H1267 0.930 . S
C1275 C1276 1.355 . S
C1275 C1277 1.415 . S
C1276 C1275 1.355 . S
C1276 C1278 1.419 . S
C1277 C1272 1.425 1_455 S
C1277 C1274 1.409 . S
C1277 C1275 1.415 . S
C1278 H1268 0.930 . S
C1278 C1276 1.419 . S
C1278 C1279 1.362 1_455 S
C1279 H1269 0.930 . S
C1279 C1272 1.409 . S
C1279 C1278 1.362 1_655 S
H1280 C1286 0.930 . S
H1281 C1289 0.930 . S
H1282 C1290 0.930 . S
H1283 C1291 0.930 . S
H1284 C1294 0.930 . S
H1285 C1295 0.930 . S
C1286 H1280 0.930 . S
C1286 C1287 1.355 . S
C1286 C1288 1.415 . S
C1287 C1286 1.355 . S
C1287 C1289 1.419 . S
C1288 C1286 1.415 . S
C1288 C1293 1.425 . S
C1288 C1295 1.409 . S
C1289 H1281 0.930 . S
C1289 C1287 1.419 . S
C1289 C1290 1.362 . S
C1290 H1282 0.930 . S
C1290 C1289 1.362 . S
C1290 C1293 1.409 . S
C1291 H1283 0.930 . S
C1291 C1292 1.355 . S
C1291 C1293 1.415 . S
C1292 C1291 1.355 . S
C1292 C1294 1.419 . S
C1293 C1288 1.425 . S
C1293 C1290 1.409 . S
C1293 C1291 1.415 . S
C1294 H1284 0.930 . S
C1294 C1292 1.419 . S
C1294 C1295 1.362 . S
C1295 H1285 0.930 . S
C1295 C1288 1.409 . S
C1295 C1294 1.362 . S
H1296 C1302 0.930 . S
H1297 C1305 0.930 . S
H1298 C1306 0.930 . S
H1299 C1307 0.930 . S
H1300 C1310 0.930 . S
H1301 C1311 0.930 . S
C1302 H1296 0.930 . S
C1302 C1303 1.355 . S
C1302 C1304 1.415 . S
C1303 C1302 1.355 . S
C1303 C1305 1.419 . S
C1304 C1302 1.415 . S
C1304 C1309 1.425 . S
C1304 C1311 1.409 . S
C1305 H1297 0.930 . S
C1305 C1303 1.419 . S
C1305 C1306 1.362 . S
C1306 H1298 0.930 . S
C1306 C1305 1.362 . S
C1306 C1309 1.409 . S
C1307 H1299 0.930 . S
C1307 C1308 1.355 . S
C1307 C1309 1.415 . S
C1308 C1307 1.355 . S
C1308 C1310 1.419 . S
C1309 C1304 1.425 . S
C1309 C1306 1.409 . S
C1309 C1307 1.415 . S
C1310 H1300 0.930 . S
C1310 C1308 1.419 . S
C1310 C1311 1.362 . S
C1311 H1301 0.930 . S
C1311 C1304 1.409 . S
C1311 C1310 1.362 . S
H1312 C1318 0.930 . S
H1313 C1321 0.930 . S
H1314 C1322 0.930 . S
H1315 C1323 0.930 . S
H1316 C1326 0.930 . S
H1317 C1327 0.930 . S
C1318 H1312 0.930 . S
C1318 C1319 1.355 . S
C1318 C1320 1.415 1_655 S
C1319 C1318 1.355 . S
C1319 C1321 1.419 . S
C1320 C1318 1.415 1_455 S
C1320 C1325 1.425 1_455 S
C1320 C1327 1.409 . S
C1321 H1313 0.930 . S
C1321 C1319 1.419 . S
C1321 C1322 1.362 . S
C1322 H1314 0.930 . S
C1322 C1321 1.362 . S
C1322 C1325 1.409 . S
C1323 H1315 0.930 . S
C1323 C1324 1.355 . S
C1323 C1325 1.415 1_455 S
C1324 C1323 1.355 . S
C1324 C1326 1.419 . S
C1325 C1320 1.425 1_655 S
C1325 C1322 1.409 . S
C1325 C1323 1.415 1_655 S
C1326 H1316 0.930 . S
C1326 C1324 1.419 . S
C1326 C1327 1.362 . S
C1327 H1317 0.930 . S
C1327 C1320 1.409 . S
C1327 C1326 1.362 . S
H1328 C1334 0.930 . S
H1329 C1337 0.930 . S
H1330 C1338 0.930 . S
H1331 C1339 0.930 . S
H1332 C1342 0.930 . S
H1333 C1343 0.930 . S
C1334 H1328 0.930 . S
C1334 C1335 1.355 . S
C1334 C1336 1.415 . S
C1335 C1334 1.355 . S
C1335 C1337 1.419 . S
C1336 C1334 1.415 . S
C1336 C1341 1.425 . S
C1336 C1343 1.409 . S
C1337 H1329 0.930 . S
C1337 C1335 1.419 . S
C1337 C1338 1.362 . S
C1338 H1330 0.930 . S
C1338 C1337 1.362 . S
C1338 C1341 1.409 . S
C1339 H1331 0.930 . S
C1339 C1340 1.355 . S
C1339 C1341 1.415 . S
C1340 C1339 1.355 . S
C1340 C1342 1.419 . S
C1341 C1336 1.425 . S
C1341 C1338 1.409 . S
C1341 C1339 1.415 . S
C1342 H1332 0.930 . S
C1342 C1340 1.419 . S
C1342 C1343 1.362 . S
C1343 H1333 0.930 . S
C1343 C1336 1.409 . S
C1343 C1342 1.362 . S
H1344 C1350 0.930 . S
H1345 C1353 0.930 . S
H1346 C1354 0.930 . S
H1347 C1355 0.930 . S
H1348 C1358 0.930 . S
H1349 C1359 0.930 . S
C1350 H1344 0.930 . S
C1350 C1351 1.355 . S
C1350 C1352 1.415 . S
C1351 C1350 1.355 . S
C1351 C1353 1.419 . S
C1352 C1350 1.415 . S
C1352 C1357 1.425 . S
C1352 C1359 1.409 . S
C1353 H1345 0.930 . S
C1353 C1351 1.419 . S
C1353 C1354 1.362 . S
C1354 H1346 0.930 . S
C1354 C1353 1.362 . S
C1354 C1357 1.409 . S
C1355 H1347 0.930 . S
C1355 C1356 1.355 . S
C1355 C1357 1.415 . S
C1356 C1355 1.355 . S
C1356 C1358 1.419 . S
C1357 C1352 1.425 . S
C1357 C1354 1.409 . S
C1357 C1355 1.415 . S
C1358 H1348 0.930 . S
C1358 C1356 1.419 . S
C1358 C1359 1.362 . S
C1359 H1349 0.930 . S
C1359 C1352 1.409 . S
C1359 C1358 1.362 . S
H1360 C1366 0.930 . S
H1361 C1369 0.930 . S
H1362 C1370 0.930 . S
H1363 C1371 0.930 . S
H1364 C1374 0.930 . S
H1365 C1375 0.930 . S
C1366 H1360 0.930 . S
C1366 C1367 1.355 . S
C1366 C1368 1.415 . S
C1367 C1366 1.355 . S
C1367 C1369 1.419 . S
C1368 C1366 1.415 . S
C1368 C1373 1.425 1_455 S
C1368 C1375 1.409 . S
C1369 H1361 0.930 . S
C1369 C1367 1.419 . S
C1369 C1370 1.362 1_455 S
C1370 H1362 0.930 . S
C1370 C1369 1.362 1_655 S
C1370 C1373 1.409 . S
C1371 H1363 0.930 . S
C1371 C1372 1.355 . S
C1371 C1373 1.415 . S
C1372 C1371 1.355 . S
C1372 C1374 1.419 . S
C1373 C1368 1.425 1_655 S
C1373 C1370 1.409 . S
C1373 C1371 1.415 . S
C1374 H1364 0.930 . S
C1374 C1372 1.419 . S
C1374 C1375 1.362 1_655 S
C1375 H1365 0.930 . S
C1375 C1368 1.409 . S
C1375 C1374 1.362 1_455 S
H1376 C1382 0.930 . S
H1377 C1385 0.930 . S
H1378 C1386 0.930 . S
H1379 C1387 0.930 . S
H1380 C1390 0.930 . S
H1381 C1391 0.930 . S
C1382 H1376 0.930 . S
C1382 C1383 1.355 . S
C1382 C1384 1.415 1_455 S
C1383 C1382 1.355 . S
C1383 C1385 1.419 . S
C1384 C1382 1.415 1_655 S
C1384 C1389 1.425 1_655 S
C1384 C1391 1.409 . S
C1385 H1377 0.930 . S
C1385 C1383 1.419 . S
C1385 C1386 1.362 . S
C1386 H1378 0.930 . S
C1386 C1385 1.362 . S
C1386 C1389 1.409 . S
C1387 H1379 0.930 . S
C1387 C1388 1.355 . S
C1387 C1389 1.415 1_655 S
C1388 C1387 1.355 . S
C1388 C1390 1.419 . S
C1389 C1384 1.425 1_455 S
C1389 C1386 1.409 . S
C1389 C1387 1.415 1_455 S
C1390 H1380 0.930 . S
C1390 C1388 1.419 . S
C1390 C1391 1.362 . S
C1391 H1381 0.930 . S
C1391 C1384 1.409 . S
C1391 C1390 1.362 . S
H1392 C1398 0.930 . S
H1393 C1401 0.930 . S
H1394 C1402 0.930 . S
H1395 C1403 0.930 . S
H1396 C1406 0.930 . S
H1397 C1407 0.930 . S
C1398 H1392 0.930 . S
C1398 C1399 1.355 . S
C1398 C1400 1.415 1_655 S
C1399 C1398 1.355 . S
C1399 C1401 1.419 . S
C1400 C1398 1.415 1_455 S
C1400 C1405 1.425 1_455 S
C1400 C1407 1.409 . S
C1401 H1393 0.930 . S
C1401 C1399 1.419 . S
C1401 C1402 1.362 . S
C1402 H1394 0.930 . S
C1402 C1401 1.362 . S
C1402 C1405 1.409 . S
C1403 H1395 0.930 . S
C1403 C1404 1.355 . S
C1403 C1405 1.415 1_455 S
C1404 C1403 1.355 . S
C1404 C1406 1.419 . S
C1405 C1400 1.425 1_655 S
C1405 C1402 1.409 . S
C1405 C1403 1.415 1_655 S
C1406 H1396 0.930 . S
C1406 C1404 1.419 . S
C1406 C1407 1.362 . S
C1407 H1397 0.930 . S
C1407 C1400 1.409 . S
C1407 C1406 1.362 . S
H1408 C1414 0.930 . S
H1409 C1417 0.930 . S
H1410 C1418 0.930 . S
H1411 C1419 0.930 . S
H1412 C1422 0.930 . S
H1413 C1423 0.930 . S
C1414 H1408 0.930 . S
C1414 C1415 1.355 . S
C1414 C1416 1.415 . S
C1415 C1414 1.355 . S
C1415 C1417 1.419 . S
C1416 C1414 1.415 . S
C1416 C1421 1.425 . S
C1416 C1423 1.409 . S
C1417 H1409 0.930 . S
C1417 C1415 1.419 . S
C1417 C1418 1.362 . S
C1418 H1410 0.930 . S
C1418 C1417 1.362 . S
C1418 C1421 1.409 . S
C1419 H1411 0.930 . S
C1419 C1420 1.355 . S
C1419 C1421 1.415 . S
C1420 C1419 1.355 . S
C1420 C1422 1.419 . S
C1421 C1416 1.425 . S
C1421 C1418 1.409 . S
C1421 C1419 1.415 . S
C1422 H1412 0.930 . S
C1422 C1420 1.419 . S
C1422 C1423 1.362 . S
C1423 H1413 0.930 . S
C1423 C1416 1.409 . S
C1423 C1422 1.362 . S
H1424 C1430 0.930 . S
H1425 C1433 0.930 . S
H1426 C1434 0.930 . S
H1427 C1435 0.930 . S
H1428 C1438 0.930 . S
H1429 C1439 0.930 . S
C1430 H1424 0.930 . S
C1430 C1431 1.355 . S
C1430 C1432 1.415 . S
C1431 C1430 1.355 . S
C1431 C1433 1.419 . S
C1432 C1430 1.415 . S
C1432 C1437 1.425 . S
C1432 C1439 1.409 . S
C1433 H1425 0.930 . S
C1433 C1431 1.419 . S
C1433 C1434 1.362 . S
C1434 H1426 0.930 . S
C1434 C1433 1.362 . S
C1434 C1437 1.409 . S
C1435 H1427 0.930 . S
C1435 C1436 1.355 . S
C1435 C1437 1.415 . S
C1436 C1435 1.355 . S
C1436 C1438 1.419 . S
C1437 C1432 1.425 . S
C1437 C1434 1.409 . S
C1437 C1435 1.415 . S
C1438 H1428 0.930 . S
C1438 C1436 1.419 . S
C1438 C1439 1.362 . S
C1439 H1429 0.930 . S
C1439 C1432 1.409 . S
C1439 C1438 1.362 . S
H1440 C1446 0.930 . S
H1441 C1449 0.930 . S
H1442 C1450 0.930 . S
H1443 C1451 0.930 . S
H1444 C1454 0.930 . S
H1445 C1455 0.930 . S
C1446 H1440 0.930 . S
C1446 C1447 1.355 . S
C1446 C1448 1.415 1_455 S
C1447 C1446 1.355 . S
C1447 C1449 1.419 . S
C1448 C1446 1.415 1_655 S
C1448 C1453 1.425 1_655 S
C1448 C1455 1.409 . S
C1449 H1441 0.930 . S
C1449 C1447 1.419 . S
C1449 C1450 1.362 . S
C1450 H1442 0.930 . S
C1450 C1449 1.362 . S
C1450 C1453 1.409 . S
C1451 H1443 0.930 . S
C1451 C1452 1.355 . S
C1451 C1453 1.415 1_655 S
C1452 C1451 1.355 . S
C1452 C1454 1.419 . S
C1453 C1448 1.425 1_455 S
C1453 C1450 1.409 . S
C1453 C1451 1.415 1_455 S
C1454 H1444 0.930 . S
C1454 C1452 1.419 . S
C1454 C1455 1.362 . S
C1455 H1445 0.930 . S
C1455 C1448 1.409 . S
C1455 C1454 1.362 . S
H1456 C1462 0.930 . S
H1457 C1465 0.930 . S
H1458 C1466 0.930 . S
H1459 C1467 0.930 . S
H1460 C1470 0.930 . S
H1461 C1471 0.930 . S
C1462 H1456 0.930 . S
C1462 C1463 1.355 . S
C1462 C1464 1.415 . S
C1463 C1462 1.355 . S
C1463 C1465 1.419 . S
C1464 C1462 1.415 . S
C1464 C1469 1.425 . S
C1464 C1471 1.409 . S
C1465 H1457 0.930 . S
C1465 C1463 1.419 . S
C1465 C1466 1.362 . S
C1466 H1458 0.930 . S
C1466 C1465 1.362 . S
C1466 C1469 1.409 . S
C1467 H1459 0.930 . S
C1467 C1468 1.355 . S
C1467 C1469 1.415 . S
C1468 C1467 1.355 . S
C1468 C1470 1.419 . S
C1469 C1464 1.425 . S
C1469 C1466 1.409 . S
C1469 C1467 1.415 . S
C1470 H1460 0.930 . S
C1470 C1468 1.419 . S
C1470 C1471 1.362 . S
C1471 H1461 0.930 . S
C1471 C1464 1.409 . S
C1471 C1470 1.362 . S
H1472 C1478 0.930 . S
H1473 C1481 0.930 . S
H1474 C1482 0.930 . S
H1475 C1483 0.930 . S
H1476 C1486 0.930 . S
H1477 C1487 0.930 . S
C1478 H1472 0.930 . S
C1478 C1479 1.355 . S
C1478 C1480 1.415 . S
C1479 C1478 1.355 . S
C1479 C1481 1.419 . S
C1480 C1478 1.415 . S
C1480 C1485 1.425 . S
C1480 C1487 1.409 . S
C1481 H1473 0.930 . S
C1481 C1479 1.419 . S
C1481 C1482 1.362 . S
C1482 H1474 0.930 . S
C1482 C1481 1.362 . S
C1482 C1485 1.409 . S
C1483 H1475 0.930 . S
C1483 C1484 1.355 . S
C1483 C1485 1.415 . S
C1484 C1483 1.355 . S
C1484 C1486 1.419 . S
C1485 C1480 1.425 . S
C1485 C1482 1.409 . S
C1485 C1483 1.415 . S
C1486 H1476 0.930 . S
C1486 C1484 1.419 . S
C1486 C1487 1.362 . S
C1487 H1477 0.930 . S
C1487 C1480 1.409 . S
C1487 C1486 1.362 . S
H1488 C1494 0.930 . S
H1489 C1497 0.930 . S
H1490 C1498 0.930 . S
H1491 C1499 0.930 . S
H1492 C1502 0.930 . S
H1493 C1503 0.930 . S
C1494 H1488 0.930 . S
C1494 C1495 1.355 . S
C1494 C1496 1.415 . S
C1495 C1494 1.355 . S
C1495 C1497 1.419 . S
C1496 C1494 1.415 . S
C1496 C1501 1.425 1_655 S
C1496 C1503 1.409 . S
C1497 H1489 0.930 . S
C1497 C1495 1.419 . S
C1497 C1498 1.362 1_655 S
C1498 H1490 0.930 . S
C1498 C1497 1.362 1_455 S
C1498 C1501 1.409 . S
C1499 H1491 0.930 . S
C1499 C1500 1.355 . S
C1499 C1501 1.415 . S
C1500 C1499 1.355 . S
C1500 C1502 1.419 . S
C1501 C1496 1.425 1_455 S
C1501 C1498 1.409 . S
C1501 C1499 1.415 . S
C1502 H1492 0.930 . S
C1502 C1500 1.419 . S
C1502 C1503 1.362 1_455 S
C1503 H1493 0.930 . S
C1503 C1496 1.409 . S
C1503 C1502 1.362 1_655 S
H1504 C1510 0.930 . S
H1505 C1513 0.930 . S
H1506 C1514 0.930 . S
H1507 C1515 0.930 . S
H1508 C1518 0.930 . S
H1509 C1519 0.930 . S
C1510 H1504 0.930 . S
C1510 C1511 1.355 . S
C1510 C1512 1.415 . S
C1511 C1510 1.355 . S
C1511 C1513 1.419 . S
C1512 C1510 1.415 . S
C1512 C1517 1.425 . S
C1512 C1519 1.409 . S
C1513 H1505 0.930 . S
C1513 C1511 1.419 . S
C1513 C1514 1.362 . S
C1514 H1506 0.930 . S
C1514 C1513 1.362 . S
C1514 C1517 1.409 . S
C1515 H1507 0.930 . S
C1515 C1516 1.355 . S
C1515 C1517 1.415 . S
C1516 C1515 1.355 . S
C1516 C1518 1.419 . S
C1517 C1512 1.425 . S
C1517 C1514 1.409 . S
C1517 C1515 1.415 . S
C1518 H1508 0.930 . S
C1518 C1516 1.419 . S
C1518 C1519 1.362 . S
C1519 H1509 0.930 . S
C1519 C1512 1.409 . S
C1519 C1518 1.362 . S
H1520 C1526 0.930 . S
H1521 C1529 0.930 . S
H1522 C1530 0.930 . S
H1523 C1531 0.930 . S
H1524 C1534 0.930 . S
H1525 C1535 0.930 . S
C1526 H1520 0.930 . S
C1526 C1527 1.355 . S
C1526 C1528 1.415 1_655 S
C1527 C1526 1.355 . S
C1527 C1529 1.419 1_545 S
C1528 C1526 1.415 1_455 S
C1528 C1533 1.425 1_445 S
C1528 C1535 1.409 . S
C1529 H1521 0.930 . S
C1529 C1527 1.419 1_565 S
C1529 C1530 1.362 . S
C1530 H1522 0.930 . S
C1530 C1529 1.362 . S
C1530 C1533 1.409 . S
C1531 H1523 0.930 . S
C1531 C1532 1.355 . S
C1531 C1533 1.415 1_455 S
C1532 C1531 1.355 . S
C1532 C1534 1.419 1_565 S
C1533 C1528 1.425 1_665 S
C1533 C1530 1.409 . S
C1533 C1531 1.415 1_655 S
C1534 H1524 0.930 . S
C1534 C1532 1.419 1_545 S
C1534 C1535 1.362 . S
C1535 H1525 0.930 . S
C1535 C1528 1.409 . S
C1535 C1534 1.362 . S
H1536 C1542 0.930 . S
H1537 C1545 0.930 . S
H1538 C1546 0.930 . S
H1539 C1547 0.930 . S
H1540 C1550 0.930 . S
H1541 C1551 0.930 . S
C1542 H1536 0.930 . S
C1542 C1543 1.355 . S
C1542 C1544 1.415 . S
C1543 C1542 1.355 . S
C1543 C1545 1.419 . S
C1544 C1542 1.415 . S
C1544 C1549 1.425 . S
C1544 C1551 1.409 . S
C1545 H1537 0.930 . S
C1545 C1543 1.419 . S
C1545 C1546 1.362 . S
C1546 H1538 0.930 . S
C1546 C1545 1.362 . S
C1546 C1549 1.409 . S
C1547 H1539 0.930 . S
C1547 C1548 1.355 . S
C1547 C1549 1.415 . S
C1548 C1547 1.355 . S
C1548 C1550 1.419 . S
C1549 C1544 1.425 . S
C1549 C1546 1.409 . S
C1549 C1547 1.415 . S
C1550 H1540 0.930 . S
C1550 C1548 1.419 . S
C1550 C1551 1.362 . S
C1551 H1541 0.930 . S
C1551 C1544 1.409 . S
C1551 C1550 1.362 . S
H1552 C1558 0.930 . S
H1553 C1561 0.929 1_565 S
H1554 C1562 0.930 . S
H1555 C1563 0.930 . S
H1556 C1566 0.929 1_545 S
H1557 C1567 0.930 . S
C1558 H1552 0.930 . S
C1558 C1559 1.355 . S
C1558 C1560 1.415 . S
C1559 C1558 1.355 . S
C1559 C1561 1.419 . S
C1560 C1558 1.415 . S
C1560 C1565 1.425 1_544 S
C1560 C1567 1.409 . S
C1561 H1553 0.929 1_545 S
C1561 C1559 1.419 . S
C1561 C1562 1.362 1_544 S
C1562 H1554 0.930 . S
C1562 C1561 1.362 1_566 S
C1562 C1565 1.409 . S
C1563 H1555 0.930 . S
C1563 C1564 1.355 . S
C1563 C1565 1.415 . S
C1564 C1563 1.355 . S
C1564 C1566 1.419 . S
C1565 C1560 1.425 1_566 S
C1565 C1562 1.409 . S
C1565 C1563 1.415 . S
C1566 H1556 0.929 1_565 S
C1566 C1564 1.419 . S
C1566 C1567 1.362 1_566 S
C1567 H1557 0.930 . S
C1567 C1560 1.409 . S
C1567 C1566 1.362 1_544 S
H1568 C1574 0.930 . S
H1569 C1577 0.930 . S
H1570 C1578 0.930 . S
H1571 C1579 0.930 . S
H1572 C1582 0.930 . S
H1573 C1583 0.930 . S
C1574 H1568 0.930 . S
C1574 C1575 1.355 . S
C1574 C1576 1.415 . S
C1575 C1574 1.355 . S
C1575 C1577 1.419 . S
C1576 C1574 1.415 . S
C1576 C1581 1.425 . S
C1576 C1583 1.409 . S
C1577 H1569 0.930 . S
C1577 C1575 1.419 . S
C1577 C1578 1.362 . S
C1578 H1570 0.930 . S
C1578 C1577 1.362 . S
C1578 C1581 1.409 . S
C1579 H1571 0.930 . S
C1579 C1580 1.355 . S
C1579 C1581 1.415 . S
C1580 C1579 1.355 . S
C1580 C1582 1.419 . S
C1581 C1576 1.425 . S
C1581 C1578 1.409 . S
C1581 C1579 1.415 . S
C1582 H1572 0.930 . S
C1582 C1580 1.419 . S
C1582 C1583 1.362 . S
C1583 H1573 0.930 . S
C1583 C1576 1.409 . S
C1583 C1582 1.362 . S
H1584 C1590 0.930 . S
H1585 C1593 0.930 . S
H1586 C1594 0.930 . S
H1587 C1595 0.930 . S
H1588 C1598 0.930 . S
H1589 C1599 0.930 . S
C1590 H1584 0.930 . S
C1590 C1591 1.355 . S
C1590 C1592 1.415 . S
C1591 C1590 1.355 . S
C1591 C1593 1.419 . S
C1592 C1590 1.415 . S
C1592 C1597 1.425 1_545 S
C1592 C1599 1.409 . S
C1593 H1585 0.930 . S
C1593 C1591 1.419 . S
C1593 C1594 1.362 1_545 S
C1594 H1586 0.930 . S
C1594 C1593 1.362 1_565 S
C1594 C1597 1.409 . S
C1595 H1587 0.930 . S
C1595 C1596 1.355 . S
C1595 C1597 1.415 . S
C1596 C1595 1.355 . S
C1596 C1598 1.419 . S
C1597 C1592 1.425 1_565 S
C1597 C1594 1.409 . S
C1597 C1595 1.415 . S
C1598 H1588 0.930 . S
C1598 C1596 1.419 . S
C1598 C1599 1.362 1_565 S
C1599 H1589 0.930 . S
C1599 C1592 1.409 . S
C1599 C1598 1.362 1_545 S
H1600 C1606 0.930 . S
H1601 C1609 0.930 . S
H1602 C1610 0.930 . S
H1603 C1611 0.930 . S
H1604 C1614 0.930 . S
H1605 C1615 0.930 . S
C1606 H1600 0.930 . S
C1606 C1607 1.355 . S
C1606 C1608 1.415 . S
C1607 C1606 1.355 . S
C1607 C1609 1.419 . S
C1608 C1606 1.415 . S
C1608 C1613 1.425 . S
C1608 C1615 1.409 . S
C1609 H1601 0.930 . S
C1609 C1607 1.419 . S
C1609 C1610 1.362 . S
C1610 H1602 0.930 . S
C1610 C1609 1.362 . S
C1610 C1613 1.409 . S
C1611 H1603 0.930 . S
C1611 C1612 1.355 . S
C1611 C1613 1.415 . S
C1612 C1611 1.355 . S
C1612 C1614 1.419 . S
C1613 C1608 1.425 . S
C1613 C1610 1.409 . S
C1613 C1611 1.415 . S
C1614 H1604 0.930 . S
C1614 C1612 1.419 . S
C1614 C1615 1.362 . S
C1615 H1605 0.930 . S
C1615 C1608 1.409 . S
C1615 C1614 1.362 . S
H1616 C1622 0.930 . S
H1617 C1625 0.930 . S
H1618 C1626 0.930 . S
H1619 C1627 0.930 . S
H1620 C1630 0.930 . S
H1621 C1631 0.930 . S
C1622 H1616 0.930 . S
C1622 C1623 1.355 . S
C1622 C1624 1.415 1_556 S
C1623 C1622 1.355 . S
C1623 C1625 1.419 . S
C1624 C1622 1.415 1_554 S
C1624 C1629 1.425 1_444 S
C1624 C1631 1.409 . S
C1625 H1617 0.930 . S
C1625 C1623 1.419 . S
C1625 C1626 1.362 1_445 S
C1626 H1618 0.930 . S
C1626 C1625 1.362 1_665 S
C1626 C1629 1.409 . S
C1627 H1619 0.930 . S
C1627 C1628 1.355 . S
C1627 C1629 1.415 1_554 S
C1628 C1627 1.355 . S
C1628 C1630 1.419 . S
C1629 C1624 1.425 1_666 S
C1629 C1626 1.409 . S
C1629 C1627 1.415 1_556 S
C1630 H1620 0.930 . S
C1630 C1628 1.419 . S
C1630 C1631 1.362 1_665 S
C1631 H1621 0.930 . S
C1631 C1624 1.409 . S
C1631 C1630 1.362 1_445 S
H1632 C1638 0.930 . S
H1633 C1641 0.930 . S
H1634 C1642 0.930 . S
H1635 C1643 0.930 . S
H1636 C1646 0.930 . S
H1637 C1647 0.930 . S
C1638 H1632 0.930 . S
C1638 C1639 1.355 . S
C1638 C1640 1.415 . S
C1639 C1638 1.355 . S
C1639 C1641 1.419 . S
C1640 C1638 1.415 . S
C1640 C1645 1.425 . S
C1640 C1647 1.409 . S
C1641 H1633 0.930 . S
C1641 C1639 1.419 . S
C1641 C1642 1.362 . S
C1642 H1634 0.930 . S
C1642 C1641 1.362 . S
C1642 C1645 1.409 . S
C1643 H1635 0.930 . S
C1643 C1644 1.355 . S
C1643 C1645 1.415 . S
C1644 C1643 1.355 . S
C1644 C1646 1.419 . S
C1645 C1640 1.425 . S
C1645 C1642 1.409 . S
C1645 C1643 1.415 . S
C1646 H1636 0.930 . S
C1646 C1644 1.419 . S
C1646 C1647 1.362 . S
C1647 H1637 0.930 . S
C1647 C1640 1.409 . S
C1647 C1646 1.362 . S
H1648 C1654 0.930 . S
H1649 C1657 0.930 . S
H1650 C1658 0.930 . S
H1651 C1659 0.930 . S
H1652 C1662 0.930 . S
H1653 C1663 0.930 . S
C1654 H1648 0.930 . S
C1654 C1655 1.355 . S
C1654 C1656 1.415 . S
C1655 C1654 1.355 . S
C1655 C1657 1.419 . S
C1656 C1654 1.415 . S
C1656 C1661 1.425 . S
C1656 C1663 1.409 . S
C1657 H1649 0.930 . S
C1657 C1655 1.419 . S
C1657 C1658 1.362 . S
C1658 H1650 0.930 . S
C1658 C1657 1.362 . S
C1658 C1661 1.409 . S
C1659 H1651 0.930 . S
C1659 C1660 1.355 . S
C1659 C1661 1.415 . S
C1660 C1659 1.355 . S
C1660 C1662 1.419 . S
C1661 C1656 1.425 . S
C1661 C1658 1.409 . S
C1661 C1659 1.415 . S
C1662 H1652 0.930 . S
C1662 C1660 1.419 . S
C1662 C1663 1.362 . S
C1663 H1653 0.930 . S
C1663 C1656 1.409 . S
C1663 C1662 1.362 . S
H1664 C1670 0.930 . S
H1665 C1673 0.930 . S
H1666 C1674 0.930 . S
H1667 C1675 0.930 . S
H1668 C1678 0.930 . S
H1669 C1679 0.930 . S
C1670 H1664 0.930 . S
C1670 C1671 1.355 . S
C1670 C1672 1.415 . S
C1671 C1670 1.355 . S
C1671 C1673 1.419 . S
C1672 C1670 1.415 . S
C1672 C1677 1.425 . S
C1672 C1679 1.409 . S
C1673 H1665 0.930 . S
C1673 C1671 1.419 . S
C1673 C1674 1.362 . S
C1674 H1666 0.930 . S
C1674 C1673 1.362 . S
C1674 C1677 1.409 . S
C1675 H1667 0.930 . S
C1675 C1676 1.355 . S
C1675 C1677 1.415 . S
C1676 C1675 1.355 . S
C1676 C1678 1.419 . S
C1677 C1672 1.425 . S
C1677 C1674 1.409 . S
C1677 C1675 1.415 . S
C1678 H1668 0.930 . S
C1678 C1676 1.419 . S
C1678 C1679 1.362 . S
C1679 H1669 0.930 . S
C1679 C1672 1.409 . S
C1679 C1678 1.362 . S
H1680 C1686 0.930 . S
H1681 C1689 0.930 . S
H1682 C1690 0.930 . S
H1683 C1691 0.930 . S
H1684 C1694 0.930 . S
H1685 C1695 0.930 . S
C1686 H1680 0.930 . S
C1686 C1687 1.355 . S
C1686 C1688 1.415 . S
C1687 C1686 1.355 . S
C1687 C1689 1.419 . S
C1688 C1686 1.415 . S
C1688 C1693 1.425 . S
C1688 C1695 1.409 . S
C1689 H1681 0.930 . S
C1689 C1687 1.419 . S
C1689 C1690 1.362 . S
C1690 H1682 0.930 . S
C1690 C1689 1.362 . S
C1690 C1693 1.409 . S
C1691 H1683 0.930 . S
C1691 C1692 1.355 . S
C1691 C1693 1.415 . S
C1692 C1691 1.355 . S
C1692 C1694 1.419 . S
C1693 C1688 1.425 . S
C1693 C1690 1.409 . S
C1693 C1691 1.415 . S
C1694 H1684 0.930 . S
C1694 C1692 1.419 . S
C1694 C1695 1.362 . S
C1695 H1685 0.930 . S
C1695 C1688 1.409 . S
C1695 C1694 1.362 . S
H1696 C1702 0.930 . S
H1697 C1705 0.930 . S
H1698 C1706 0.943 . S
H1699 C1707 0.930 . S
H1700 C1710 0.930 . S
H1701 C1711 0.943 . S
C1702 H1696 0.930 . S
C1702 C1703 1.355 . S
C1702 C1704 1.415 . S
C1703 C1702 1.355 . S
C1703 C1705 1.419 . S
C1704 C1702 1.415 . S
C1704 C1709 1.425 1_554 S
C1704 C1711 1.415 . S
C1705 H1697 0.930 . S
C1705 C1703 1.419 . S
C1705 C1706 1.345 1_554 S
C1706 H1698 0.943 . S
C1706 C1705 1.345 1_556 S
C1706 C1709 1.415 . S
C1707 H1699 0.930 . S
C1707 C1708 1.355 . S
C1707 C1709 1.415 . S
C1708 C1707 1.355 . S
C1708 C1710 1.419 . S
C1709 C1704 1.425 1_556 S
C1709 C1706 1.415 . S
C1709 C1707 1.415 . S
C1710 H1700 0.930 . S
C1710 C1708 1.419 . S
C1710 C1711 1.345 1_556 S
C1711 H1701 0.943 . S
C1711 C1704 1.415 . S
C1711 C1710 1.345 1_554 S
H1712 C1718 0.921 1_455 S
H1713 C1721 0.930 . S
H1714 C1722 0.930 . S
H1715 C1723 0.921 1_655 S
H1716 C1726 0.930 . S
H1717 C1727 0.930 . S
C1718 H1712 0.921 1_655 S
C1718 C1719 1.355 . S
C1718 C1720 1.415 1_655 S
C1719 C1718 1.355 . S
C1719 C1721 1.419 . S
C1720 C1718 1.415 1_455 S
C1720 C1725 1.425 1_455 S
C1720 C1727 1.409 . S
C1721 H1713 0.930 . S
C1721 C1719 1.419 . S
C1721 C1722 1.362 . S
C1722 H1714 0.930 . S
C1722 C1721 1.362 . S
C1722 C1725 1.409 . S
C1723 H1715 0.921 1_455 S
C1723 C1724 1.355 . S
C1723 C1725 1.415 1_455 S
C1724 C1723 1.355 . S
C1724 C1726 1.419 . S
C1725 C1720 1.425 1_655 S
C1725 C1722 1.409 . S
C1725 C1723 1.415 1_655 S
C1726 H1716 0.930 . S
C1726 C1724 1.419 . S
C1726 C1727 1.362 . S
C1727 H1717 0.930 . S
C1727 C1720 1.409 . S
C1727 C1726 1.362 . S
H1728 C1734 0.930 1_655 S
H1729 C1737 0.930 . S
H1730 C1738 0.930 . S
H1731 C1739 0.930 1_455 S
H1732 C1742 0.930 . S
H1733 C1743 0.930 . S
C1734 H1728 0.930 1_455 S
C1734 C1735 1.355 . S
C1734 C1736 1.415 1_455 S
C1735 C1734 1.355 . S
C1735 C1737 1.419 . S
C1736 C1734 1.415 1_655 S
C1736 C1741 1.425 1_654 S
C1736 C1743 1.409 . S
C1737 H1729 0.930 . S
C1737 C1735 1.419 . S
C1737 C1738 1.362 1_554 S
C1738 H1730 0.930 . S
C1738 C1737 1.362 1_556 S
C1738 C1741 1.409 . S
C1739 H1731 0.930 1_655 S
C1739 C1740 1.355 . S
C1739 C1741 1.415 1_655 S
C1740 C1739 1.355 . S
C1740 C1742 1.419 . S
C1741 C1736 1.425 1_456 S
C1741 C1738 1.409 . S
C1741 C1739 1.415 1_455 S
C1742 H1732 0.930 . S
C1742 C1740 1.419 . S
C1742 C1743 1.362 1_556 S
C1743 H1733 0.930 . S
C1743 C1736 1.409 . S
C1743 C1742 1.362 1_554 S
H1744 C1750 0.930 . S
H1745 C1753 0.930 . S
H1746 C1754 0.930 . S
H1747 C1755 0.930 . S
H1748 C1758 0.930 . S
H1749 C1759 0.930 . S
C1750 H1744 0.930 . S
C1750 C1751 1.355 . S
C1750 C1752 1.415 . S
C1751 C1750 1.355 . S
C1751 C1753 1.419 . S
C1752 C1750 1.415 . S
C1752 C1757 1.425 . S
C1752 C1759 1.409 . S
C1753 H1745 0.930 . S
C1753 C1751 1.419 . S
C1753 C1754 1.362 . S
C1754 H1746 0.930 . S
C1754 C1753 1.362 . S
C1754 C1757 1.409 . S
C1755 H1747 0.930 . S
C1755 C1756 1.355 . S
C1755 C1757 1.415 . S
C1756 C1755 1.355 . S
C1756 C1758 1.419 . S
C1757 C1752 1.425 . S
C1757 C1754 1.409 . S
C1757 C1755 1.415 . S
C1758 H1748 0.930 . S
C1758 C1756 1.419 . S
C1758 C1759 1.362 . S
C1759 H1749 0.930 . S
C1759 C1752 1.409 . S
C1759 C1758 1.362 . S
H1760 C1766 0.930 . S
H1761 C1769 0.930 . S
H1762 C1770 0.926 1_565 S
H1763 C1771 0.930 . S
H1764 C1774 0.930 . S
H1765 C1775 0.930 . S
C1766 H1760 0.930 . S
C1766 C1767 1.355 . S
C1766 C1768 1.415 . S
C1767 C1766 1.355 . S
C1767 C1769 1.419 . S
C1768 C1766 1.415 . S
C1768 C1773 1.425 . S
C1768 C1775 1.409 . S
C1769 H1761 0.930 . S
C1769 C1767 1.419 . S
C1769 C1770 1.365 . S
C1770 H1762 0.926 1_545 S
C1770 C1769 1.365 . S
C1770 C1773 1.410 . S
C1771 H1763 0.930 . S
C1771 C1772 1.355 . S
C1771 C1773 1.415 1_565 S
C1772 C1771 1.355 . S
C1772 C1774 1.419 1_565 S
C1773 C1768 1.425 . S
C1773 C1770 1.410 . S
C1773 C1771 1.415 1_545 S
C1774 H1764 0.930 . S
C1774 C1772 1.419 1_545 S
C1774 C1775 1.362 . S
C1775 H1765 0.930 . S
C1775 C1768 1.409 . S
C1775 C1774 1.362 . S
H1776 C1782 0.930 . S
H1777 C1785 0.930 . S
H1778 C1786 0.930 1_565 S
H1779 C1787 0.930 . S
H1780 C1790 0.930 . S
H1781 C1791 0.930 . S
C1782 H1776 0.930 . S
C1782 C1783 1.355 . S
C1782 C1784 1.415 . S
C1783 C1782 1.355 . S
C1783 C1785 1.419 . S
C1784 C1782 1.415 . S
C1784 C1789 1.425 . S
C1784 C1791 1.409 . S
C1785 H1777 0.930 . S
C1785 C1783 1.419 . S
C1785 C1786 1.362 . S
C1786 H1778 0.930 1_545 S
C1786 C1785 1.362 . S
C1786 C1789 1.409 . S
C1787 H1779 0.930 . S
C1787 C1788 1.355 . S
C1787 C1789 1.415 1_565 S
C1788 C1787 1.355 . S
C1788 C1790 1.419 1_565 S
C1789 C1784 1.425 . S
C1789 C1786 1.409 . S
C1789 C1787 1.415 1_545 S
C1790 H1780 0.930 . S
C1790 C1788 1.419 1_545 S
C1790 C1791 1.362 . S
C1791 H1781 0.930 . S
C1791 C1784 1.409 . S
C1791 C1790 1.362 . S
H1792 C1798 0.930 . S
H1793 C1801 0.930 . S
H1794 C1802 0.930 . S
H1795 C1803 0.930 . S
H1796 C1806 0.930 . S
H1797 C1807 0.930 . S
C1798 H1792 0.930 . S
C1798 C1799 1.355 . S
C1798 C1800 1.415 1_545 S
C1799 C1798 1.355 . S
C1799 C1801 1.419 . S
C1800 C1798 1.415 1_565 S
C1800 C1805 1.425 . S
C1800 C1807 1.409 . S
C1801 H1793 0.930 . S
C1801 C1799 1.419 . S
C1801 C1802 1.362 1_545 S
C1802 H1794 0.930 . S
C1802 C1801 1.362 1_565 S
C1802 C1805 1.409 . S
C1803 H1795 0.930 . S
C1803 C1804 1.355 . S
C1803 C1805 1.415 . S
C1804 C1803 1.355 . S
C1804 C1806 1.419 . S
C1805 C1800 1.425 . S
C1805 C1802 1.409 . S
C1805 C1803 1.415 . S
C1806 H1796 0.930 . S
C1806 C1804 1.419 . S
C1806 C1807 1.362 . S
C1807 H1797 0.930 . S
C1807 C1800 1.409 . S
C1807 C1806 1.362 . S
H1808 C1814 0.930 . S
H1809 C1817 0.930 . S
H1810 C1818 0.930 . S
H1811 C1819 0.930 . S
H1812 C1822 0.930 . S
H1813 C1823 0.930 . S
C1814 H1808 0.930 . S
C1814 C1815 1.355 . S
C1814 C1816 1.415 . S
C1815 C1814 1.355 . S
C1815 C1817 1.419 . S
C1816 C1814 1.415 . S
C1816 C1821 1.425 . S
C1816 C1823 1.409 1_565 S
C1817 H1809 0.930 . S
C1817 C1815 1.419 . S
C1817 C1818 1.362 . S
C1818 H1810 0.930 . S
C1818 C1817 1.362 . S
C1818 C1821 1.409 . S
C1819 H1811 0.930 . S
C1819 C1820 1.355 1_565 S
C1819 C1821 1.415 . S
C1820 C1819 1.355 1_545 S
C1820 C1822 1.419 . S
C1821 C1816 1.425 . S
C1821 C1818 1.409 . S
C1821 C1819 1.415 . S
C1822 H1812 0.930 . S
C1822 C1820 1.419 . S
C1822 C1823 1.362 . S
C1823 H1813 0.930 . S
C1823 C1816 1.409 1_545 S
C1823 C1822 1.362 . S
H1824 C1830 0.930 . S
H1825 C1833 0.930 . S
H1826 C1834 0.930 . S
H1827 C1835 0.930 . S
H1828 C1838 0.930 . S
H1829 C1839 0.930 . S
C1830 H1824 0.930 . S
C1830 C1831 1.355 . S
C1830 C1832 1.415 . S
C1831 C1830 1.355 . S
C1831 C1833 1.419 . S
C1832 C1830 1.415 . S
C1832 C1837 1.425 . S
C1832 C1839 1.409 . S
C1833 H1825 0.930 . S
C1833 C1831 1.419 . S
C1833 C1834 1.362 . S
C1834 H1826 0.930 . S
C1834 C1833 1.362 . S
C1834 C1837 1.409 . S
C1835 H1827 0.930 . S
C1835 C1836 1.355 . S
C1835 C1837 1.415 1_545 S
C1836 C1835 1.355 . S
C1836 C1838 1.419 . S
C1837 C1832 1.425 . S
C1837 C1834 1.409 . S
C1837 C1835 1.415 1_565 S
C1838 H1828 0.930 . S
C1838 C1836 1.419 . S
C1838 C1839 1.362 1_545 S
C1839 H1829 0.930 . S
C1839 C1832 1.409 . S
C1839 C1838 1.362 1_565 S
H1840 C1846 0.930 . S
H1841 C1849 0.930 . S
H1842 C1850 0.930 . S
H1843 C1851 0.930 . S
H1844 C1854 0.930 . S
H1845 C1855 0.930 . S
C1846 H1840 0.930 . S
C1846 C1847 1.355 . S
C1846 C1848 1.415 1_545 S
C1847 C1846 1.355 . S
C1847 C1849 1.419 . S
C1848 C1846 1.415 1_565 S
C1848 C1853 1.425 . S
C1848 C1855 1.409 . S
C1849 H1841 0.930 . S
C1849 C1847 1.419 . S
C1849 C1850 1.362 1_545 S
C1850 H1842 0.930 . S
C1850 C1849 1.362 1_565 S
C1850 C1853 1.409 . S
C1851 H1843 0.930 . S
C1851 C1852 1.355 . S
C1851 C1853 1.415 . S
C1852 C1851 1.355 . S
C1852 C1854 1.419 . S
C1853 C1848 1.425 . S
C1853 C1850 1.409 . S
C1853 C1851 1.415 . S
C1854 H1844 0.930 . S
C1854 C1852 1.419 . S
C1854 C1855 1.362 . S
C1855 H1845 0.930 . S
C1855 C1848 1.409 . S
C1855 C1854 1.362 . S
H1856 C1862 0.930 . S
H1857 C1865 0.930 . S
H1858 C1866 0.930 . S
H1859 C1867 0.930 . S
H1860 C1870 0.930 . S
H1861 C1871 0.930 . S
C1862 H1856 0.930 . S
C1862 C1863 1.355 1_545 S
C1862 C1864 1.415 . S
C1863 C1862 1.355 1_565 S
C1863 C1865 1.419 . S
C1864 C1862 1.415 . S
C1864 C1869 1.425 . S
C1864 C1871 1.409 . S
C1865 H1857 0.930 . S
C1865 C1863 1.419 . S
C1865 C1866 1.362 . S
C1866 H1858 0.930 . S
C1866 C1865 1.362 . S
C1866 C1869 1.409 1_565 S
C1867 H1859 0.930 . S
C1867 C1868 1.355 . S
C1867 C1869 1.415 . S
C1868 C1867 1.355 . S
C1868 C1870 1.419 . S
C1869 C1864 1.425 . S
C1869 C1866 1.409 1_545 S
C1869 C1867 1.415 . S
C1870 H1860 0.930 . S
C1870 C1868 1.419 . S
C1870 C1871 1.362 . S
C1871 H1861 0.930 . S
C1871 C1864 1.409 . S
C1871 C1870 1.362 . S
H1872 C1878 0.930 . S
H1873 C1881 0.930 . S
H1874 C1882 0.930 . S
H1875 C1883 0.930 . S
H1876 C1886 0.930 . S
H1877 C1887 0.930 . S
C1878 H1872 0.930 . S
C1878 C1879 1.355 . S
C1878 C1880 1.415 1_565 S
C1879 C1878 1.355 . S
C1879 C1881 1.419 . S
C1880 C1878 1.415 1_545 S
C1880 C1885 1.425 . S
C1880 C1887 1.409 . S
C1881 H1873 0.930 . S
C1881 C1879 1.419 . S
C1881 C1882 1.362 1_565 S
C1882 H1874 0.930 . S
C1882 C1881 1.362 1_545 S
C1882 C1885 1.409 . S
C1883 H1875 0.930 . S
C1883 C1884 1.355 . S
C1883 C1885 1.415 . S
C1884 C1883 1.355 . S
C1884 C1886 1.419 . S
C1885 C1880 1.425 . S
C1885 C1882 1.409 . S
C1885 C1883 1.415 . S
C1886 H1876 0.930 . S
C1886 C1884 1.419 . S
C1886 C1887 1.362 . S
C1887 H1877 0.930 . S
C1887 C1880 1.409 . S
C1887 C1886 1.362 . S
H1888 C1894 0.930 . S
H1889 C1897 0.930 . S
H1890 C1898 0.930 . S
H1891 C1899 0.930 . S
H1892 C1902 0.930 . S
H1893 C1903 0.930 . S
C1894 H1888 0.930 . S
C1894 C1895 1.355 . S
C1894 C1896 1.415 . S
C1895 C1894 1.355 . S
C1895 C1897 1.419 . S
C1896 C1894 1.415 . S
C1896 C1901 1.425 . S
C1896 C1903 1.409 . S
C1897 H1889 0.930 . S
C1897 C1895 1.419 . S
C1897 C1898 1.362 . S
C1898 H1890 0.930 . S
C1898 C1897 1.362 . S
C1898 C1901 1.409 . S
C1899 H1891 0.930 . S
C1899 C1900 1.355 . S
C1899 C1901 1.415 . S
C1900 C1899 1.355 . S
C1900 C1902 1.419 . S
C1901 C1896 1.425 . S
C1901 C1898 1.409 . S
C1901 C1899 1.415 . S
C1902 H1892 0.930 . S
C1902 C1900 1.419 . S
C1902 C1903 1.362 . S
C1903 H1893 0.930 . S
C1903 C1896 1.409 . S
C1903 C1902 1.362 . S
H1904 C1910 0.930 . S
H1905 C1913 0.930 . S
H1906 C1914 0.930 . S
H1907 C1915 0.930 . S
H1908 C1918 0.930 . S
H1909 C1919 0.930 . S
C1910 H1904 0.930 . S
C1910 C1911 1.355 . S
C1910 C1912 1.415 . S
C1911 C1910 1.355 . S
C1911 C1913 1.419 . S
C1912 C1910 1.415 . S
C1912 C1917 1.425 . S
C1912 C1919 1.409 . S
C1913 H1905 0.930 . S
C1913 C1911 1.419 . S
C1913 C1914 1.362 . S
C1914 H1906 0.930 . S
C1914 C1913 1.362 . S
C1914 C1917 1.409 . S
C1915 H1907 0.930 . S
C1915 C1916 1.355 . S
C1915 C1917 1.415 . S
C1916 C1915 1.355 . S
C1916 C1918 1.419 . S
C1917 C1912 1.425 . S
C1917 C1914 1.409 . S
C1917 C1915 1.415 . S
C1918 H1908 0.930 . S
C1918 C1916 1.419 . S
C1918 C1919 1.362 . S
C1919 H1909 0.930 . S
C1919 C1912 1.409 . S
C1919 C1918 1.362 . S
H1920 C1926 0.930 . S
H1921 C1929 0.930 . S
H1922 C1930 0.930 . S
H1923 C1931 0.930 . S
H1924 C1934 0.930 . S
H1925 C1935 0.930 . S
C1926 H1920 0.930 . S
C1926 C1927 1.355 . S
C1926 C1928 1.415 . S
C1927 C1926 1.355 . S
C1927 C1929 1.419 . S
C1928 C1926 1.415 . S
C1928 C1933 1.425 . S
C1928 C1935 1.409 . S
C1929 H1921 0.930 . S
C1929 C1927 1.419 . S
C1929 C1930 1.362 . S
C1930 H1922 0.930 . S
C1930 C1929 1.362 . S
C1930 C1933 1.409 . S
C1931 H1923 0.930 . S
C1931 C1932 1.355 . S
C1931 C1933 1.415 . S
C1932 C1931 1.355 . S
C1932 C1934 1.419 . S
C1933 C1928 1.425 . S
C1933 C1930 1.409 . S
C1933 C1931 1.415 . S
C1934 H1924 0.930 . S
C1934 C1932 1.419 . S
C1934 C1935 1.362 . S
C1935 H1925 0.930 . S
C1935 C1928 1.409 . S
C1935 C1934 1.362 . S
H1936 C1942 0.930 . S
H1937 C1945 0.930 . S
H1938 C1946 0.930 . S
H1939 C1947 0.930 . S
H1940 C1950 0.930 . S
H1941 C1951 0.930 . S
C1942 H1936 0.930 . S
C1942 C1943 1.355 . S
C1942 C1944 1.415 . S
C1943 C1942 1.355 . S
C1943 C1945 1.419 . S
C1944 C1942 1.415 . S
C1944 C1949 1.425 . S
C1944 C1951 1.409 . S
C1945 H1937 0.930 . S
C1945 C1943 1.419 . S
C1945 C1946 1.362 . S
C1946 H1938 0.930 . S
C1946 C1945 1.362 . S
C1946 C1949 1.409 . S
C1947 H1939 0.930 . S
C1947 C1948 1.355 . S
C1947 C1949 1.415 . S
C1948 C1947 1.355 . S
C1948 C1950 1.419 . S
C1949 C1944 1.425 . S
C1949 C1946 1.409 . S
C1949 C1947 1.415 . S
C1950 H1940 0.930 . S
C1950 C1948 1.419 . S
C1950 C1951 1.362 . S
C1951 H1941 0.930 . S
C1951 C1944 1.409 . S
C1951 C1950 1.362 . S
H1952 C1958 0.930 . S
H1953 C1961 0.930 . S
H1954 C1962 0.930 . S
H1955 C1963 0.930 . S
H1956 C1966 0.930 . S
H1957 C1967 0.930 . S
C1958 H1952 0.930 . S
C1958 C1959 1.355 . S
C1958 C1960 1.415 . S
C1959 C1958 1.355 . S
C1959 C1961 1.419 . S
C1960 C1958 1.415 . S
C1960 C1965 1.425 . S
C1960 C1967 1.409 . S
C1961 H1953 0.930 . S
C1961 C1959 1.419 . S
C1961 C1962 1.362 . S
C1962 H1954 0.930 . S
C1962 C1961 1.362 . S
C1962 C1965 1.409 . S
C1963 H1955 0.930 . S
C1963 C1964 1.355 . S
C1963 C1965 1.415 . S
C1964 C1963 1.355 . S
C1964 C1966 1.419 . S
C1965 C1960 1.425 . S
C1965 C1962 1.409 . S
C1965 C1963 1.415 . S
C1966 H1956 0.930 . S
C1966 C1964 1.419 . S
C1966 C1967 1.362 . S
C1967 H1957 0.930 . S
C1967 C1960 1.409 . S
C1967 C1966 1.362 . S
H1968 C1974 0.930 . S
H1969 C1977 0.930 . S
H1970 C1978 0.930 . S
H1971 C1979 0.930 . S
H1972 C1982 0.930 . S
H1973 C1983 0.930 . S
C1974 H1968 0.930 . S
C1974 C1975 1.355 . S
C1974 C1976 1.415 . S
C1975 C1974 1.355 . S
C1975 C1977 1.419 . S
C1976 C1974 1.415 . S
C1976 C1981 1.425 . S
C1976 C1983 1.409 . S
C1977 H1969 0.930 . S
C1977 C1975 1.419 . S
C1977 C1978 1.362 . S
C1978 H1970 0.930 . S
C1978 C1977 1.362 . S
C1978 C1981 1.409 . S
C1979 H1971 0.930 . S
C1979 C1980 1.355 . S
C1979 C1981 1.415 . S
C1980 C1979 1.355 . S
C1980 C1982 1.419 . S
C1981 C1976 1.425 . S
C1981 C1978 1.409 . S
C1981 C1979 1.415 . S
C1982 H1972 0.930 . S
C1982 C1980 1.419 . S
C1982 C1983 1.362 . S
C1983 H1973 0.930 . S
C1983 C1976 1.409 . S
C1983 C1982 1.362 . S
H1984 C1990 0.930 . S
H1985 C1993 0.930 . S
H1986 C1994 0.930 . S
H1987 C1995 0.930 . S
H1988 C1998 0.930 . S
H1989 C1999 0.930 . S
C1990 H1984 0.930 . S
C1990 C1991 1.355 . S
C1990 C1992 1.415 . S
C1991 C1990 1.355 . S
C1991 C1993 1.419 . S
C1992 C1990 1.415 . S
C1992 C1997 1.425 . S
C1992 C1999 1.409 . S
C1993 H1985 0.930 . S
C1993 C1991 1.419 . S
C1993 C1994 1.362 . S
C1994 H1986 0.930 . S
C1994 C1993 1.362 . S
C1994 C1997 1.409 . S
C1995 H1987 0.930 . S
C1995 C1996 1.355 . S
C1995 C1997 1.415 . S
C1996 C1995 1.355 . S
C1996 C1998 1.419 . S
C1997 C1992 1.425 . S
C1997 C1994 1.409 . S
C1997 C1995 1.415 . S
C1998 H1988 0.930 . S
C1998 C1996 1.419 . S
C1998 C1999 1.362 . S
C1999 H1989 0.930 . S
C1999 C1992 1.409 . S
C1999 C1998 1.362 . S
H2000 C2006 0.930 . S
H2001 C2009 0.930 . S
H2002 C2010 0.930 . S
H2003 C2011 0.930 . S
H2004 C2014 0.930 . S
H2005 C2015 0.930 . S
C2006 H2000 0.930 . S
C2006 C2007 1.355 . S
C2006 C2008 1.415 . S
C2007 C2006 1.355 . S
C2007 C2009 1.419 . S
C2008 C2006 1.415 . S
C2008 C2013 1.425 . S
C2008 C2015 1.409 . S
C2009 H2001 0.930 . S
C2009 C2007 1.419 . S
C2009 C2010 1.362 . S
C2010 H2002 0.930 . S
C2010 C2009 1.362 . S
C2010 C2013 1.409 . S
C2011 H2003 0.930 . S
C2011 C2012 1.355 . S
C2011 C2013 1.415 . S
C2012 C2011 1.355 . S
C2012 C2014 1.419 . S
C2013 C2008 1.425 . S
C2013 C2010 1.409 . S
C2013 C2011 1.415 . S
C2014 H2004 0.930 . S
C2014 C2012 1.419 . S
C2014 C2015 1.362 . S
C2015 H2005 0.930 . S
C2015 C2008 1.409 . S
C2015 C2014 1.362 . S
H2016 C2022 0.930 . S
H2017 C2025 0.930 . S
H2018 C2026 0.930 . S
H2019 C2027 0.930 . S
H2020 C2030 0.930 . S
H2021 C2031 0.930 . S
C2022 H2016 0.930 . S
C2022 C2023 1.355 . S
C2022 C2024 1.415 . S
C2023 C2022 1.355 . S
C2023 C2025 1.419 . S
C2024 C2022 1.415 . S
C2024 C2029 1.425 1_545 S
C2024 C2031 1.409 . S
C2025 H2017 0.930 . S
C2025 C2023 1.419 . S
C2025 C2026 1.362 1_545 S
C2026 H2018 0.930 . S
C2026 C2025 1.362 1_565 S
C2026 C2029 1.409 . S
C2027 H2019 0.930 . S
C2027 C2028 1.355 . S
C2027 C2029 1.415 . S
C2028 C2027 1.355 . S
C2028 C2030 1.419 . S
C2029 C2024 1.425 1_565 S
C2029 C2026 1.409 . S
C2029 C2027 1.415 . S
C2030 H2020 0.930 . S
C2030 C2028 1.419 . S
C2030 C2031 1.362 1_565 S
C2031 H2021 0.930 . S
C2031 C2024 1.409 . S
C2031 C2030 1.362 1_545 S
H2032 C2038 0.930 . S
H2033 C2041 0.930 . S
H2034 C2042 0.930 . S
H2035 C2043 0.930 . S
H2036 C2046 0.930 . S
H2037 C2047 0.930 . S
C2038 H2032 0.930 . S
C2038 C2039 1.355 . S
C2038 C2040 1.415 . S
C2039 C2038 1.355 . S
C2039 C2041 1.419 . S
C2040 C2038 1.415 . S
C2040 C2045 1.425 . S
C2040 C2047 1.409 . S
C2041 H2033 0.930 . S
C2041 C2039 1.419 . S
C2041 C2042 1.362 . S
C2042 H2034 0.930 . S
C2042 C2041 1.362 . S
C2042 C2045 1.409 . S
C2043 H2035 0.930 . S
C2043 C2044 1.355 . S
C2043 C2045 1.415 . S
C2044 C2043 1.355 . S
C2044 C2046 1.419 . S
C2045 C2040 1.425 . S
C2045 C2042 1.409 . S
C2045 C2043 1.415 . S
C2046 H2036 0.930 . S
C2046 C2044 1.419 . S
C2046 C2047 1.362 . S
C2047 H2037 0.930 . S
C2047 C2040 1.409 . S
C2047 C2046 1.362 . S
H2048 C2054 0.930 . S
H2049 C2057 0.930 . S
H2050 C2058 0.930 . S
H2051 C2059 0.930 . S
H2052 C2062 0.930 . S
H2053 C2063 0.930 . S
C2054 H2048 0.930 . S
C2054 C2055 1.355 . S
C2054 C2056 1.415 . S
C2055 C2054 1.355 . S
C2055 C2057 1.419 . S
C2056 C2054 1.415 . S
C2056 C2061 1.425 1_545 S
C2056 C2063 1.409 . S
C2057 H2049 0.930 . S
C2057 C2055 1.419 . S
C2057 C2058 1.362 1_545 S
C2058 H2050 0.930 . S
C2058 C2057 1.362 1_565 S
C2058 C2061 1.409 . S
C2059 H2051 0.930 . S
C2059 C2060 1.355 . S
C2059 C2061 1.415 . S
C2060 C2059 1.355 . S
C2060 C2062 1.419 . S
C2061 C2056 1.425 1_565 S
C2061 C2058 1.409 . S
C2061 C2059 1.415 . S
C2062 H2052 0.930 . S
C2062 C2060 1.419 . S
C2062 C2063 1.362 1_565 S
C2063 H2053 0.930 . S
C2063 C2056 1.409 . S
C2063 C2062 1.362 1_545 S
H2064 C2070 0.904 1_554 S
H2065 C2073 0.930 . S
H2066 C2074 0.930 . S
H2067 C2075 0.904 1_556 S
H2068 C2078 0.930 . S
H2069 C2079 0.930 . S
C2070 H2064 0.904 1_556 S
C2070 C2071 1.355 . S
C2070 C2072 1.415 1_556 S
C2071 C2070 1.355 . S
C2071 C2073 1.419 . S
C2072 C2070 1.415 1_554 S
C2072 C2077 1.425 1_554 S
C2072 C2079 1.409 . S
C2073 H2065 0.930 . S
C2073 C2071 1.419 . S
C2073 C2074 1.362 . S
C2074 H2066 0.930 . S
C2074 C2073 1.362 . S
C2074 C2077 1.409 . S
C2075 H2067 0.904 1_554 S
C2075 C2076 1.355 . S
C2075 C2077 1.415 1_554 S
C2076 C2075 1.355 . S
C2076 C2078 1.419 . S
C2077 C2072 1.425 1_556 S
C2077 C2074 1.409 . S
C2077 C2075 1.415 1_556 S
C2078 H2068 0.930 . S
C2078 C2076 1.419 . S
C2078 C2079 1.362 . S
C2079 H2069 0.930 . S
C2079 C2072 1.409 . S
C2079 C2078 1.362 . S
H2080 C2086 0.930 . S
H2081 C2089 0.930 . S
H2082 C2090 0.930 . S
H2083 C2091 0.930 . S
H2084 C2094 0.930 . S
H2085 C2095 0.930 . S
C2086 H2080 0.930 . S
C2086 C2087 1.355 . S
C2086 C2088 1.415 . S
C2087 C2086 1.355 . S
C2087 C2089 1.419 . S
C2088 C2086 1.415 . S
C2088 C2093 1.425 1_565 S
C2088 C2095 1.409 . S
C2089 H2081 0.930 . S
C2089 C2087 1.419 . S
C2089 C2090 1.362 1_565 S
C2090 H2082 0.930 . S
C2090 C2089 1.362 1_545 S
C2090 C2093 1.409 . S
C2091 H2083 0.930 . S
C2091 C2092 1.355 . S
C2091 C2093 1.415 . S
C2092 C2091 1.355 . S
C2092 C2094 1.419 . S
C2093 C2088 1.425 1_545 S
C2093 C2090 1.409 . S
C2093 C2091 1.415 . S
C2094 H2084 0.930 . S
C2094 C2092 1.419 . S
C2094 C2095 1.362 1_545 S
C2095 H2085 0.930 . S
C2095 C2088 1.409 . S
C2095 C2094 1.362 1_565 S
H2096 C2102 0.930 . S
H2097 C2105 0.930 . S
H2098 C2106 0.930 . S
H2099 C2107 0.930 . S
H2100 C2110 0.930 . S
H2101 C2111 0.930 . S
C2102 H2096 0.930 . S
C2102 C2103 1.355 . S
C2102 C2104 1.415 . S
C2103 C2102 1.355 . S
C2103 C2105 1.419 . S
C2104 C2102 1.415 . S
C2104 C2109 1.425 . S
C2104 C2111 1.409 . S
C2105 H2097 0.930 . S
C2105 C2103 1.419 . S
C2105 C2106 1.362 . S
C2106 H2098 0.930 . S
C2106 C2105 1.362 . S
C2106 C2109 1.409 . S
C2107 H2099 0.930 . S
C2107 C2108 1.355 . S
C2107 C2109 1.415 . S
C2108 C2107 1.355 . S
C2108 C2110 1.419 . S
C2109 C2104 1.425 . S
C2109 C2106 1.409 . S
C2109 C2107 1.415 . S
C2110 H2100 0.930 . S
C2110 C2108 1.419 . S
C2110 C2111 1.362 . S
C2111 H2101 0.930 . S
C2111 C2104 1.409 . S
C2111 C2110 1.362 . S
H2112 C2118 0.930 . S
H2113 C2121 0.930 . S
H2114 C2122 0.930 . S
H2115 C2123 0.930 . S
H2116 C2126 0.930 . S
H2117 C2127 0.930 . S
C2118 H2112 0.930 . S
C2118 C2119 1.355 . S
C2118 C2120 1.415 1_565 S
C2119 C2118 1.355 . S
C2119 C2121 1.419 . S
C2120 C2118 1.415 1_545 S
C2120 C2125 1.425 1_545 S
C2120 C2127 1.409 . S
C2121 H2113 0.930 . S
C2121 C2119 1.419 . S
C2121 C2122 1.362 . S
C2122 H2114 0.930 . S
C2122 C2121 1.362 . S
C2122 C2125 1.409 . S
C2123 H2115 0.930 . S
C2123 C2124 1.355 . S
C2123 C2125 1.415 1_545 S
C2124 C2123 1.355 . S
C2124 C2126 1.419 . S
C2125 C2120 1.425 1_565 S
C2125 C2122 1.409 . S
C2125 C2123 1.415 1_565 S
C2126 H2116 0.930 . S
C2126 C2124 1.419 . S
C2126 C2127 1.362 . S
C2127 H2117 0.930 . S
C2127 C2120 1.409 . S
C2127 C2126 1.362 . S
H2128 C2134 0.930 . S
H2129 C2137 0.930 . S
H2130 C2138 0.930 . S
H2131 C2139 0.930 . S
H2132 C2142 0.930 . S
H2133 C2143 0.930 . S
C2134 H2128 0.930 . S
C2134 C2135 1.355 . S
C2134 C2136 1.415 1_554 S
C2135 C2134 1.355 . S
C2135 C2137 1.419 . S
C2136 C2134 1.415 1_556 S
C2136 C2141 1.425 1_556 S
C2136 C2143 1.409 . S
C2137 H2129 0.930 . S
C2137 C2135 1.419 . S
C2137 C2138 1.362 . S
C2138 H2130 0.930 . S
C2138 C2137 1.362 . S
C2138 C2141 1.409 . S
C2139 H2131 0.930 . S
C2139 C2140 1.355 . S
C2139 C2141 1.415 1_556 S
C2140 C2139 1.355 . S
C2140 C2142 1.419 . S
C2141 C2136 1.425 1_554 S
C2141 C2138 1.409 . S
C2141 C2139 1.415 1_554 S
C2142 H2132 0.930 . S
C2142 C2140 1.419 . S
C2142 C2143 1.362 . S
C2143 H2133 0.930 . S
C2143 C2136 1.409 . S
C2143 C2142 1.362 . S
H2144 C2150 0.930 . S
H2145 C2153 0.930 . S
H2146 C2154 0.930 . S
H2147 C2155 0.930 . S
H2148 C2158 0.930 . S
H2149 C2159 0.930 . S
C2150 H2144 0.930 . S
C2150 C2151 1.355 . S
C2150 C2152 1.415 . S
C2151 C2150 1.355 . S
C2151 C2153 1.419 . S
C2152 C2150 1.415 . S
C2152 C2157 1.425 . S
C2152 C2159 1.409 . S
C2153 H2145 0.930 . S
C2153 C2151 1.419 . S
C2153 C2154 1.362 . S
C2154 H2146 0.930 . S
C2154 C2153 1.362 . S
C2154 C2157 1.409 . S
C2155 H2147 0.930 . S
C2155 C2156 1.355 . S
C2155 C2157 1.415 . S
C2156 C2155 1.355 . S
C2156 C2158 1.419 . S
C2157 C2152 1.425 . S
C2157 C2154 1.409 . S
C2157 C2155 1.415 . S
C2158 H2148 0.930 . S
C2158 C2156 1.419 . S
C2158 C2159 1.362 . S
C2159 H2149 0.930 . S
C2159 C2152 1.409 . S
C2159 C2158 1.362 . S
H2160 C2166 0.930 . S
H2161 C2169 0.930 . S
H2162 C2170 0.930 . S
H2163 C2171 0.930 . S
H2164 C2174 0.930 . S
H2165 C2175 0.930 . S
C2166 H2160 0.930 . S
C2166 C2167 1.355 . S
C2166 C2168 1.415 . S
C2167 C2166 1.355 . S
C2167 C2169 1.419 . S
C2168 C2166 1.415 . S
C2168 C2173 1.425 1_556 S
C2168 C2175 1.409 . S
C2169 H2161 0.930 . S
C2169 C2167 1.419 . S
C2169 C2170 1.362 1_556 S
C2170 H2162 0.930 . S
C2170 C2169 1.362 1_554 S
C2170 C2173 1.409 . S
C2171 H2163 0.930 . S
C2171 C2172 1.355 . S
C2171 C2173 1.415 . S
C2172 C2171 1.355 . S
C2172 C2174 1.419 . S
C2173 C2168 1.425 1_554 S
C2173 C2170 1.409 . S
C2173 C2171 1.415 . S
C2174 H2164 0.930 . S
C2174 C2172 1.419 . S
C2174 C2175 1.362 1_554 S
C2175 H2165 0.930 . S
C2175 C2168 1.409 . S
C2175 C2174 1.362 1_556 S
H2176 C2182 0.930 . S
H2177 C2185 0.930 . S
H2178 C2186 0.930 . S
H2179 C2187 0.930 . S
H2180 C2190 0.930 . S
H2181 C2191 0.930 . S
C2182 H2176 0.930 . S
C2182 C2183 1.355 . S
C2182 C2184 1.415 . S
C2183 C2182 1.355 . S
C2183 C2185 1.419 . S
C2184 C2182 1.415 . S
C2184 C2189 1.425 . S
C2184 C2191 1.409 . S
C2185 H2177 0.930 . S
C2185 C2183 1.419 . S
C2185 C2186 1.362 . S
C2186 H2178 0.930 . S
C2186 C2185 1.362 . S
C2186 C2189 1.409 . S
C2187 H2179 0.930 . S
C2187 C2188 1.355 . S
C2187 C2189 1.415 . S
C2188 C2187 1.355 . S
C2188 C2190 1.419 . S
C2189 C2184 1.425 . S
C2189 C2186 1.409 . S
C2189 C2187 1.415 . S
C2190 H2180 0.930 . S
C2190 C2188 1.419 . S
C2190 C2191 1.362 . S
C2191 H2181 0.930 . S
C2191 C2184 1.409 . S
C2191 C2190 1.362 . S
H2192 C2198 0.930 . S
H2193 C2201 0.930 . S
H2194 C2202 0.930 . S
H2195 C2203 0.930 . S
H2196 C2206 0.930 . S
H2197 C2207 0.930 . S
C2198 H2192 0.930 . S
C2198 C2199 1.355 . S
C2198 C2200 1.415 . S
C2199 C2198 1.355 . S
C2199 C2201 1.419 . S
C2200 C2198 1.415 . S
C2200 C2205 1.425 . S
C2200 C2207 1.409 . S
C2201 H2193 0.930 . S
C2201 C2199 1.419 . S
C2201 C2202 1.362 . S
C2202 H2194 0.930 . S
C2202 C2201 1.362 . S
C2202 C2205 1.409 . S
C2203 H2195 0.930 . S
C2203 C2204 1.355 . S
C2203 C2205 1.415 . S
C2204 C2203 1.355 . S
C2204 C2206 1.419 . S
C2205 C2200 1.425 . S
C2205 C2202 1.409 . S
C2205 C2203 1.415 . S
C2206 H2196 0.930 . S
C2206 C2204 1.419 . S
C2206 C2207 1.362 . S
C2207 H2197 0.930 . S
C2207 C2200 1.409 . S
C2207 C2206 1.362 . S
H2208 C2214 0.930 . S
H2209 C2217 0.930 . S
H2210 C2218 0.930 . S
H2211 C2219 0.930 . S
H2212 C2222 0.930 . S
H2213 C2223 0.930 . S
C2214 H2208 0.930 . S
C2214 C2215 1.355 . S
C2214 C2216 1.415 . S
C2215 C2214 1.355 . S
C2215 C2217 1.419 . S
C2216 C2214 1.415 . S
C2216 C2221 1.425 . S
C2216 C2223 1.409 . S
C2217 H2209 0.930 . S
C2217 C2215 1.419 . S
C2217 C2218 1.362 . S
C2218 H2210 0.930 . S
C2218 C2217 1.362 . S
C2218 C2221 1.409 . S
C2219 H2211 0.930 . S
C2219 C2220 1.355 . S
C2219 C2221 1.415 . S
C2220 C2219 1.355 . S
C2220 C2222 1.419 . S
C2221 C2216 1.425 . S
C2221 C2218 1.409 . S
C2221 C2219 1.415 . S
C2222 H2212 0.930 . S
C2222 C2220 1.419 . S
C2222 C2223 1.362 . S
C2223 H2213 0.930 . S
C2223 C2216 1.409 . S
C2223 C2222 1.362 . S
H2224 C2230 0.930 1_554 S
H2225 C2233 0.930 . S
H2226 C2234 0.930 . S
H2227 C2235 0.930 1_556 S
H2228 C2238 0.930 . S
H2229 C2239 0.930 . S
C2230 H2224 0.930 1_556 S
C2230 C2231 1.355 . S
C2230 C2232 1.415 1_556 S
C2231 C2230 1.355 . S
C2231 C2233 1.419 . S
C2232 C2230 1.415 1_554 S
C2232 C2237 1.425 1_554 S
C2232 C2239 1.409 . S
C2233 H2225 0.930 . S
C2233 C2231 1.419 . S
C2233 C2234 1.362 . S
C2234 H2226 0.930 . S
C2234 C2233 1.362 . S
C2234 C2237 1.409 . S
C2235 H2227 0.930 1_554 S
C2235 C2236 1.355 . S
C2235 C2237 1.415 1_554 S
C2236 C2235 1.355 . S
C2236 C2238 1.419 . S
C2237 C2232 1.425 1_556 S
C2237 C2234 1.409 . S
C2237 C2235 1.415 1_556 S
C2238 H2228 0.930 . S
C2238 C2236 1.419 . S
C2238 C2239 1.362 . S
C2239 H2229 0.930 . S
C2239 C2232 1.409 . S
C2239 C2238 1.362 . S
H2240 C2246 0.930 . S
H2241 C2249 0.930 . S
H2242 C2250 0.930 . S
H2243 C2251 0.930 . S
H2244 C2254 0.930 . S
H2245 C2255 0.930 . S
C2246 H2240 0.930 . S
C2246 C2247 1.355 . S
C2246 C2248 1.415 . S
C2247 C2246 1.355 . S
C2247 C2249 1.419 . S
C2248 C2246 1.415 . S
C2248 C2253 1.425 . S
C2248 C2255 1.409 . S
C2249 H2241 0.930 . S
C2249 C2247 1.419 . S
C2249 C2250 1.362 . S
C2250 H2242 0.930 . S
C2250 C2249 1.362 . S
C2250 C2253 1.409 . S
C2251 H2243 0.930 . S
C2251 C2252 1.355 . S
C2251 C2253 1.415 . S
C2252 C2251 1.355 . S
C2252 C2254 1.419 . S
C2253 C2248 1.425 . S
C2253 C2250 1.409 . S
C2253 C2251 1.415 . S
C2254 H2244 0.930 . S
C2254 C2252 1.419 . S
C2254 C2255 1.362 . S
C2255 H2245 0.930 . S
C2255 C2248 1.409 . S
C2255 C2254 1.362 . S
H2256 C2262 0.930 . S
H2257 C2265 0.930 . S
H2258 C2266 0.930 . S
H2259 C2267 0.930 . S
H2260 C2270 0.930 . S
H2261 C2271 0.930 . S
C2262 H2256 0.930 . S
C2262 C2263 1.355 . S
C2262 C2264 1.415 . S
C2263 C2262 1.355 . S
C2263 C2265 1.419 . S
C2264 C2262 1.415 . S
C2264 C2269 1.425 . S
C2264 C2271 1.409 . S
C2265 H2257 0.930 . S
C2265 C2263 1.419 . S
C2265 C2266 1.362 . S
C2266 H2258 0.930 . S
C2266 C2265 1.362 . S
C2266 C2269 1.409 . S
C2267 H2259 0.930 . S
C2267 C2268 1.355 . S
C2267 C2269 1.415 . S
C2268 C2267 1.355 . S
C2268 C2270 1.419 . S
C2269 C2264 1.425 . S
C2269 C2266 1.409 . S
C2269 C2267 1.415 . S
C2270 H2260 0.930 . S
C2270 C2268 1.419 . S
C2270 C2271 1.362 . S
C2271 H2261 0.930 . S
C2271 C2264 1.409 . S
C2271 C2270 1.362 . S
C743 C20 0.879 . S
C748 C637 0.802 . S
C759 C43 0.786 . S
C764 C200 0.842 . S
C775 C66 0.816 . S
C780 C591 0.837 . S
C791 C246 0.818 . S
C796 C89 0.857 . S
C807 C112 0.867 . S
C812 C683 0.813 . S
C823 C338 0.797 . S
C828 C135 0.896 . S
C839 C729 0.805 . S
C844 C158 0.883 . S
C855 C181 0.896 . S
C860 C292 0.797 . S
C871 C204 0.736 . S
C876 C453 0.864 . S
C887 C227 0.825 . S
C892 C16 0.833 . S
C903 C407 0.846 . S
C908 C250 0.793 . S
C919 C62 0.839 . S
C924 C273 0.810 . S
C935 C296 0.887 . S
C940 C499 0.799 . S
C951 C319 0.889 . S
C956 C154 0.801 . S
C967 C342 0.796 . S
C972 C545 0.838 . S
C983 C108 0.800 . S
C988 C365 0.886 . S
C999 C269 0.860 . S
C1004 C388 0.755 . S
C1015 C568 0.862 . S
C1020 C411 0.739 . S
C1031 C223 0.863 . S
C1036 C434 0.737 . S
C1047 C457 0.792 . S
C1052 C614 0.847 . S
C1063 C315 0.797 . S
C1068 C480 0.896 . S
C1079 C706 0.797 . S
C1084 C503 0.893 . S
C1095 C361 0.816 . S
C1100 C526 0.847 . S
C1111 C549 0.825 . S
C1116 C660 0.833 . S
C1127 C572 0.738 . S
C1132 C85 0.863 . S
C1143 C595 0.768 . S
C1148 C384 0.849 . S
C1159 C618 0.876 . S
C1164 C39 0.809 . S
C1175 C641 0.890 . S
C1180 C430 0.801 . S
C1191 C131 0.851 . S
C1196 C664 0.765 . S
C1207 C522 0.862 . S
C1212 C687 0.747 . S
C1223 C710 0.836 . S
C1228 C177 0.828 . S
C1239 C733 0.853 . S
C1244 C476 0.820 . S
C1255 C21 1.317 . S
C1260 C435 1.319 . S
C1271 C458 1.300 . S
C1276 C44 1.299 . S
C1287 C67 1.348 . S
C1292 C389 1.347 . S
C1303 C90 1.331 . S
C1308 C412 1.329 . S
C1319 C527 1.288 . S
C1324 C113 1.288 . S
C1335 C136 1.290 . S
C1340 C550 1.291 . S
C1351 C481 1.287 . S
C1356 C159 1.287 . S
C1367 C182 1.289 . S
C1372 C504 1.290 . S
C1383 C619 1.289 . S
C1388 C205 1.290 . S
C1399 C228 1.340 . S
C1404 C642 1.338 . S
C1415 C251 1.290 . S
C1420 C573 1.291 . S
C1431 C274 1.320 . S
C1436 C596 1.322 . S
C1447 C711 1.287 . S
C1452 C297 1.287 . S
C1463 C734 1.328 . S
C1468 C320 1.327 . S
C1479 C343 1.348 . S
C1484 C665 1.347 . S
C1495 C366 1.287 . S
C1500 C688 1.288 . S
C1511 C17 1.546 . S
C1516 C569 1.546 . S
C1527 C224 1.568 . S
C1532 C40 1.568 . S
C1543 C63 1.527 . S
C1548 C615 1.527 . S
C1559 C86 1.558 . S
C1564 C270 1.558 . S
C1575 C661 1.526 . S
C1580 C109 1.526 . S
C1591 C316 1.537 . S
C1596 C132 1.537 . S
C1607 C155 1.568 . S
C1612 C707 1.568 . S
C1623 C178 1.553 . S
C1628 C362 1.553 . S
C1639 C385 1.530 . S
C1644 C201 1.530 . S
C1655 C431 1.556 . S
C1660 C247 1.556 . S
C1671 C477 1.524 . S
C1676 C293 1.524 . S
C1687 C339 1.526 . S
C1692 C523 1.526 . S
C1703 C408 1.566 . S
C1708 C592 1.566 . S
C1719 C454 1.546 . S
C1724 C638 1.546 . S
C1735 C684 1.569 . S
C1740 C500 1.569 . S
C1751 C730 1.569 . S
C1756 C546 1.569 . S
C1767 C18 1.761 . S
C1772 C133 1.726 . S
C1783 C156 1.748 . S
C1788 C41 1.757 . S
C1799 C179 1.755 . S
C1804 C64 1.751 . S
C1815 C110 1.721 . S
C1820 C87 1.759 . S
C1831 C202 1.728 . S
C1836 C317 1.721 . S
C1847 C225 1.762 . S
C1852 C340 1.737 . S
C1863 C363 1.733 . S
C1868 C248 1.718 . S
C1879 C271 1.715 . S
C1884 C294 1.747 . S
C1895 C386 1.734 . S
C1900 C501 1.762 . S
C1911 C409 1.731 . S
C1916 C524 1.762 . S
C1927 C432 1.715 . S
C1932 C547 1.748 . S
C1943 C478 1.720 . S
C1948 C455 1.758 . S
C1959 C570 1.760 . S
C1964 C685 1.723 . S
C1975 C593 1.740 . S
C1980 C708 1.761 . S
C1991 C731 1.716 . S
C1996 C616 1.740 . S
C2007 C639 1.719 . S
C2012 C662 1.757 . S
C2023 C19 1.436 . S
C2028 C111 1.438 . S
C2039 C42 1.440 . S
C2044 C134 1.437 . S
C2055 C157 1.437 . S
C2060 C65 1.439 . S
C2071 C180 1.436 . S
C2076 C88 1.436 . S
C2087 C203 1.439 . S
C2092 C295 1.443 . S
C2103 C318 1.501 . S
C2108 C226 1.498 . S
C2119 C341 1.483 . S
C2124 C249 1.489 . S
C2135 C364 1.443 . S
C2140 C272 1.448 . S
C2151 C387 1.495 . S
C2156 C479 1.489 . S
C2167 C502 1.497 . S
C2172 C410 1.500 . S
C2183 C433 1.493 . S
C2188 C525 1.498 . S
C2199 C548 1.493 . S
C2204 C456 1.488 . S
C2215 C663 1.486 . S
C2220 C571 1.492 . S
C2231 C594 1.439 . S
C2236 C686 1.437 . S
C2247 C617 1.485 . S
C2252 C709 1.491 . S
C2263 C640 1.484 . S
C2268 C732 1.490 . S
