# Generated by pormake.
# Topology ukt, (4)-cn, num edge types: 1
# Building blocks:
#     Node 0, Type 0, BuildingBlock: KUFVIS_clean_sbu_0, # of connection points: 4
#     Node 1, Type 0, BuildingBlock: KUFVIS_clean_sbu_0, # of connection points: 4
#     Node 2, Type 0, BuildingBlock: KUFVIS_clean_sbu_0, # of connection points: 4
#     Node 3, Type 0, BuildingBlock: KUFVIS_clean_sbu_0, # of connection points: 4
#     Node 4, Type 0, BuildingBlock: KUFVIS_clean_sbu_0, # of connection points: 4
#     Node 5, Type 0, BuildingBlock: KUFVIS_clean_sbu_0, # of connection points: 4
#     Node 6, Type 0, BuildingBlock: KUFVIS_clean_sbu_0, # of connection points: 4
#     Node 7, Type 0, BuildingBlock: KUFVIS_clean_sbu_0, # of connection points: 4
#     Node 8, Type 0, BuildingBlock: KUFVIS_clean_sbu_0, # of connection points: 4
#     Node 9, Type 0, BuildingBlock: KUFVIS_clean_sbu_0, # of connection points: 4
#     Node 10, Type 0, BuildingBlock: KUFVIS_clean_sbu_0, # of connection points: 4
#     Node 11, Type 0, BuildingBlock: KUFVIS_clean_sbu_0, # of connection points: 4
#     Node 12, Type 0, BuildingBlock: KUFVIS_clean_sbu_0, # of connection points: 4
#     Node 13, Type 0, BuildingBlock: KUFVIS_clean_sbu_0, # of connection points: 4
#     Node 14, Type 0, BuildingBlock: KUFVIS_clean_sbu_0, # of connection points: 4
#     Node 15, Type 0, BuildingBlock: KUFVIS_clean_sbu_0, # of connection points: 4
#     Edge 16, Type (0, 0), BuildingBlock: OJICUG_clean_linker_0, # of connection points: 2
#     Edge 17, Type (0, 0), BuildingBlock: OJICUG_clean_linker_0, # of connection points: 2
#     Edge 18, Type (0, 0), BuildingBlock: OJICUG_clean_linker_0, # of connection points: 2
#     Edge 19, Type (0, 0), BuildingBlock: OJICUG_clean_linker_0, # of connection points: 2
#     Edge 20, Type (0, 0), BuildingBlock: OJICUG_clean_linker_0, # of connection points: 2
#     Edge 21, Type (0, 0), BuildingBlock: OJICUG_clean_linker_0, # of connection points: 2
#     Edge 22, Type (0, 0), BuildingBlock: OJICUG_clean_linker_0, # of connection points: 2
#     Edge 23, Type (0, 0), BuildingBlock: OJICUG_clean_linker_0, # of connection points: 2
#     Edge 24, Type (0, 0), BuildingBlock: OJICUG_clean_linker_0, # of connection points: 2
#     Edge 25, Type (0, 0), BuildingBlock: OJICUG_clean_linker_0, # of connection points: 2
#     Edge 26, Type (0, 0), BuildingBlock: OJICUG_clean_linker_0, # of connection points: 2
#     Edge 27, Type (0, 0), BuildingBlock: OJICUG_clean_linker_0, # of connection points: 2
#     Edge 28, Type (0, 0), BuildingBlock: OJICUG_clean_linker_0, # of connection points: 2
#     Edge 29, Type (0, 0), BuildingBlock: OJICUG_clean_linker_0, # of connection points: 2
#     Edge 30, Type (0, 0), BuildingBlock: OJICUG_clean_linker_0, # of connection points: 2
#     Edge 31, Type (0, 0), BuildingBlock: OJICUG_clean_linker_0, # of connection points: 2
#     Edge 32, Type (0, 0), BuildingBlock: OJICUG_clean_linker_0, # of connection points: 2
#     Edge 33, Type (0, 0), BuildingBlock: OJICUG_clean_linker_0, # of connection points: 2
#     Edge 34, Type (0, 0), BuildingBlock: OJICUG_clean_linker_0, # of connection points: 2
#     Edge 35, Type (0, 0), BuildingBlock: OJICUG_clean_linker_0, # of connection points: 2
#     Edge 36, Type (0, 0), BuildingBlock: OJICUG_clean_linker_0, # of connection points: 2
#     Edge 37, Type (0, 0), BuildingBlock: OJICUG_clean_linker_0, # of connection points: 2
#     Edge 38, Type (0, 0), BuildingBlock: OJICUG_clean_linker_0, # of connection points: 2
#     Edge 39, Type (0, 0), BuildingBlock: OJICUG_clean_linker_0, # of connection points: 2
#     Edge 40, Type (0, 0), BuildingBlock: OJICUG_clean_linker_0, # of connection points: 2
#     Edge 41, Type (0, 0), BuildingBlock: OJICUG_clean_linker_0, # of connection points: 2
#     Edge 42, Type (0, 0), BuildingBlock: OJICUG_clean_linker_0, # of connection points: 2
#     Edge 43, Type (0, 0), BuildingBlock: OJICUG_clean_linker_0, # of connection points: 2
#     Edge 44, Type (0, 0), BuildingBlock: OJICUG_clean_linker_0, # of connection points: 2
#     Edge 45, Type (0, 0), BuildingBlock: OJICUG_clean_linker_0, # of connection points: 2
#     Edge 46, Type (0, 0), BuildingBlock: OJICUG_clean_linker_0, # of connection points: 2
#     Edge 47, Type (0, 0), BuildingBlock: OJICUG_clean_linker_0, # of connection points: 2
# Relax obj value: 0.281
# Max RMSD: 0.185
# Mean RMSD: 0.185
data_MOF--net-ukt--node1-KUFVIS_clean_sbu_0--edge1-OJICUG_clean_linker_0
_symmetry_space_group_name_H-M    P1
_symmetry_Int_Tables_number       1
_symmetry_cell_setting            triclinic
loop_
_symmetry_equiv_pos_as_xyz
'x, y, z'
_cell_length_a     30.77471
_cell_length_b     30.805652
_cell_length_c     25.477504
_cell_angle_alpha  90.119547
_cell_angle_beta   90.065655
_cell_angle_gamma 89.99913
loop_
_atom_site_label
_atom_site_type_symbol
_atom_site_fract_x
_atom_site_fract_y
_atom_site_fract_z
_atom_type_partial_charge
Mn0 Mn 0.5543 0.13556 0.09088 0.0
Mn1 Mn 0.63022 0.19955 0.14225 0.0
C2 C 0.62618 0.12314 0.07131 0.0
C3 C 0.51531 0.07205 0.07729 0.0
C4 C 0.58583 0.22336 0.04711 0.0
O5 O 0.52005 0.1628 0.1516 0.0
O6 O 0.56912 0.21615 0.15963 0.0
C7 C 0.61184 0.17948 0.2536 0.0
N8 N 0.64068 0.18188 0.21313 0.0
C9 C 0.70043 0.18859 0.2733 0.0
C10 C 0.67111 0.18864 0.31521 0.0
C11 C 0.62674 0.18248 0.3055 0.0
C12 C 0.68379 0.18398 0.22241 0.0
H13 H 0.57761 0.17661 0.24662 0.0
C14 C 0.53114 0.20055 0.16757 0.0
O15 O 0.50266 0.10866 0.05707 0.0
O16 O 0.5448 0.07436 0.11362 0.0
N17 N 0.69115 0.19069 0.13182 0.0
C18 C 0.71527 0.19939 0.08826 0.0
C19 C 0.76072 0.19739 0.09113 0.0
C20 C 0.78099 0.19369 0.14027 0.0
C21 C 0.75558 0.19094 0.1854 0.0
C22 C 0.71055 0.18692 0.17928 0.0
H23 H 0.69993 0.20754 0.0515 0.0
O24 O 0.59503 0.11231 0.04002 0.0
O25 O 0.61519 0.14122 0.11632 0.0
O26 O 0.5546 0.19627 0.05306 0.0
O27 O 0.62181 0.21942 0.07107 0.0
C28 C 0.773 0.19544 0.23615 0.0
C29 C 0.74517 0.19597 0.27985 0.0
H30 H 0.68231 0.19403 0.35484 0.0
H31 H 0.60389 0.18193 0.33777 0.0
H32 H 0.77983 0.20089 0.05585 0.0
H33 H 0.81591 0.19478 0.14381 0.0
H34 H 0.80749 0.20073 0.2418 0.0
H35 H 0.75842 0.20284 0.31824 0.0
Mn36 Mn 0.35935 0.54394 0.07976 0.0
Mn37 Mn 0.32285 0.62725 0.15309 0.0
C38 C 0.38181 0.61377 0.06049 0.0
C39 C 0.41593 0.49798 0.05873 0.0
C40 C 0.27134 0.5892 0.06258 0.0
O41 O 0.33044 0.51141 0.14124 0.0
O42 O 0.30783 0.57077 0.18489 0.0
C43 C 0.38741 0.60888 0.23613 0.0
N44 N 0.36932 0.63725 0.20146 0.0
C45 C 0.42855 0.68742 0.21259 0.0
C46 C 0.44783 0.65873 0.24839 0.0
C47 C 0.42684 0.61957 0.26076 0.0
C48 C 0.38882 0.67541 0.19023 0.0
H49 H 0.37244 0.57786 0.24389 0.0
C50 C 0.31024 0.52969 0.17922 0.0
O51 O 0.37709 0.49085 0.04011 0.0
O52 O 0.41858 0.52451 0.098 0.0
N53 N 0.33387 0.68458 0.12878 0.0
C54 C 0.30922 0.70927 0.09603 0.0
C55 C 0.32301 0.75136 0.08358 0.0
C56 C 0.3615 0.76785 0.10586 0.0
C57 C 0.38533 0.74224 0.14093 0.0
C58 C 0.36902 0.70119 0.15326 0.0
H59 H 0.27993 0.69647 0.07853 0.0
O60 O 0.38612 0.58282 0.02704 0.0
O61 O 0.36574 0.60267 0.10586 0.0
O62 O 0.29832 0.55879 0.051 0.0
O63 O 0.27725 0.61689 0.09985 0.0
C64 C 0.42545 0.75498 0.16255 0.0
C65 C 0.44775 0.72686 0.19692 0.0
H66 H 0.47876 0.66636 0.26651 0.0
H67 H 0.44158 0.5972 0.28822 0.0
H68 H 0.30449 0.77025 0.05582 0.0
H69 H 0.37278 0.80001 0.09584 0.0
H70 H 0.43992 0.78581 0.15204 0.0
H71 H 0.47954 0.73607 0.21126 0.0
Mn72 Mn 0.93856 0.36906 0.07309 0.0
Mn73 Mn 0.85422 0.32828 0.13763 0.0
C74 C 0.86909 0.38773 0.04424 0.0
C75 C 0.98404 0.42781 0.06354 0.0
C76 C 0.90962 0.27714 0.05954 0.0
O77 O 0.96556 0.33733 0.13703 0.0
O78 O 0.905 0.33382 0.18541 0.0
C79 C 0.84042 0.40489 0.20498 0.0
N80 N 0.82385 0.37404 0.17227 0.0
C81 C 0.75532 0.4113 0.16706 0.0
C82 C 0.77194 0.44383 0.19989 0.0
C83 C 0.81448 0.44039 0.21943 0.0
C84 C 0.78291 0.37702 0.15336 0.0
H85 H 0.8737 0.40319 0.21833 0.0
C86 C 0.94505 0.32481 0.17805 0.0
O87 O 0.99467 0.39013 0.04399 0.0
O88 O 0.95282 0.42822 0.09751 0.0
N89 N 0.8028 0.32127 0.09684 0.0
C90 C 0.79535 0.29324 0.05656 0.0
C91 C 0.7547 0.29262 0.03207 0.0
C92 C 0.72222 0.32097 0.04921 0.0
C93 C 0.73032 0.34958 0.09094 0.0
C94 C 0.7713 0.34798 0.11463 0.0
H95 H 0.82038 0.27207 0.04249 0.0
O96 O 0.9028 0.39584 0.016 0.0
O97 O 0.87757 0.37101 0.09 0.0
O98 O 0.93095 0.30896 0.04025 0.0
O99 O 0.88414 0.28069 0.09934 0.0
C100 C 0.70068 0.38167 0.10742 0.0
C101 C 0.71353 0.41311 0.14456 0.0
H102 H 0.75256 0.47204 0.20964 0.0
H103 H 0.82752 0.46551 0.2447 0.0
H104 H 0.74868 0.27085 0.99948 0.0
H105 H 0.69214 0.32154 0.02817 0.0
H106 H 0.66877 0.38399 0.08998 0.0
H107 H 0.69147 0.43928 0.15426 0.0
Mn108 Mn 0.13781 0.94876 0.08772 0.0
Mn109 Mn 0.17515 0.86359 0.15629 0.0
C110 C 0.11535 0.87967 0.06472 0.0
C111 C 0.08024 0.99527 0.07317 0.0
C112 C 0.22567 0.90446 0.06697 0.0
O113 O 0.16852 0.97931 0.14936 0.0
O114 O 0.19025 0.91894 0.19123 0.0
C115 C 0.11044 0.87906 0.23981 0.0
N116 N 0.12878 0.85179 0.204 0.0
C117 C 0.06962 0.80117 0.212 0.0
C118 C 0.05008 0.82873 0.24895 0.0
C119 C 0.07089 0.86754 0.26347 0.0
C120 C 0.10941 0.81398 0.19062 0.0
H121 H 0.12526 0.9099 0.24916 0.0
C122 C 0.18864 0.96013 0.1866 0.0
O123 O 0.11815 0.00322 0.05243 0.0
O124 O 0.07935 0.96696 0.11042 0.0
N125 N 0.16433 0.80719 0.12882 0.0
C126 C 0.18893 0.78391 0.09452 0.0
C127 C 0.17527 0.74231 0.07963 0.0
C128 C 0.13699 0.72477 0.10111 0.0
C129 C 0.11314 0.74895 0.13768 0.0
C130 C 0.12931 0.78957 0.15234 0.0
H131 H 0.21806 0.79752 0.07768 0.0
O132 O 0.10958 0.91191 0.03364 0.0
O133 O 0.13225 0.88925 0.11026 0.0
O134 O 0.19823 0.93477 0.05623 0.0
O135 O 0.22033 0.87617 0.10358 0.0
C136 C 0.07313 0.73525 0.15855 0.0
C137 C 0.05067 0.76211 0.19428 0.0
H138 H 0.01908 0.82049 0.26637 0.0
H139 H 0.05593 0.88905 0.29183 0.0
H140 H 0.19378 0.72469 0.05063 0.0
H141 H 0.1258 0.69296 0.08932 0.0
H142 H 0.05884 0.7047 0.14642 0.0
H143 H 0.01898 0.75219 0.20814 0.0
Mn144 Mn 0.54497 0.35373 0.42966 0.0
Mn145 Mn 0.62496 0.31181 0.35513 0.0
C146 C 0.61638 0.37229 0.44762 0.0
C147 C 0.50225 0.41364 0.44924 0.0
C148 C 0.58365 0.26221 0.44535 0.0
O149 O 0.51014 0.32747 0.36802 0.0
O150 O 0.56763 0.303 0.32217 0.0
C151 C 0.61312 0.37973 0.27467 0.0
N152 N 0.63967 0.35795 0.30836 0.0
C153 C 0.69559 0.41205 0.29949 0.0
C154 C 0.66871 0.43518 0.265 0.0
C155 C 0.62758 0.41859 0.25188 0.0
C156 C 0.67965 0.37323 0.3203 0.0
H157 H 0.58067 0.36824 0.2665 0.0
C158 C 0.52683 0.30794 0.32852 0.0
O159 O 0.49317 0.37575 0.46911 0.0
O160 O 0.52961 0.41405 0.41086 0.0
N161 N 0.68282 0.31694 0.38057 0.0
C162 C 0.70451 0.28985 0.41355 0.0
C163 C 0.74748 0.29944 0.42733 0.0
C164 C 0.76809 0.33605 0.4057 0.0
C165 C 0.74546 0.36244 0.37035 0.0
C166 C 0.70312 0.35041 0.35698 0.0
H167 H 0.68867 0.26199 0.43051 0.0
O168 O 0.58617 0.37835 0.48167 0.0
O169 O 0.60373 0.35604 0.40291 0.0
O170 O 0.55601 0.29162 0.45877 0.0
O171 O 0.6103 0.26628 0.40676 0.0
C172 C 0.76247 0.40117 0.3496 0.0
C173 C 0.73687 0.42675 0.31573 0.0
H174 H 0.67916 0.46583 0.24859 0.0
H175 H 0.60662 0.43632 0.22536 0.0
H176 H 0.76376 0.27923 0.45578 0.0
H177 H 0.8011 0.344 0.41633 0.0
H178 H 0.79458 0.4123 0.36077 0.0
H179 H 0.7492 0.45778 0.30276 0.0
Mn180 Mn 0.13551 0.54492 0.42569 0.0
Mn181 Mn 0.17454 0.6284 0.35525 0.0
C182 C 0.1146 0.61491 0.44712 0.0
C183 C 0.07786 0.49871 0.44216 0.0
C184 C 0.22429 0.58808 0.44559 0.0
O185 O 0.16459 0.51283 0.36388 0.0
O186 O 0.18872 0.57218 0.32192 0.0
C187 C 0.11008 0.61253 0.27126 0.0
N188 N 0.12857 0.64004 0.30676 0.0
C189 C 0.07038 0.69151 0.29662 0.0
C190 C 0.05071 0.66375 0.25993 0.0
C191 C 0.07097 0.62437 0.24666 0.0
C192 C 0.10976 0.67839 0.31889 0.0
H193 H 0.12445 0.58133 0.26279 0.0
C194 C 0.18546 0.53111 0.3266 0.0
O195 O 0.11602 0.49103 0.4624 0.0
O196 O 0.07626 0.52718 0.40505 0.0
N197 N 0.16457 0.68553 0.38095 0.0
C198 C 0.18965 0.70925 0.41436 0.0
C199 C 0.1768 0.7515 0.42759 0.0
C200 C 0.13876 0.76912 0.40548 0.0
C201 C 0.11445 0.74444 0.36981 0.0
C202 C 0.12991 0.70322 0.35664 0.0
H203 H 0.21861 0.6956 0.43167 0.0
O204 O 0.10875 0.58334 0.47924 0.0
O205 O 0.1309 0.60423 0.40162 0.0
O206 O 0.1965 0.5581 0.45613 0.0
O207 O 0.21943 0.61624 0.40873 0.0
C208 C 0.07467 0.7583 0.34835 0.0
C209 C 0.05191 0.73111 0.31321 0.0
H210 H 0.02005 0.67228 0.24178 0.0
H211 H 0.05592 0.6027 0.21852 0.0
H212 H 0.19573 0.76959 0.45579 0.0
H213 H 0.12812 0.8014 0.41603 0.0
H214 H 0.06083 0.78929 0.35955 0.0
H215 H 0.02038 0.74119 0.29892 0.0
Mn216 Mn 0.94151 0.12456 0.4064 0.0
Mn217 Mn 0.8504 0.16335 0.35101 0.0
C218 C 0.87446 0.0999 0.43526 0.0
C219 C 0.99114 0.06924 0.41699 0.0
C220 C 0.89601 0.20901 0.44011 0.0
O221 O 0.96676 0.15792 0.34286 0.0
O222 O 0.90302 0.18517 0.31539 0.0
C223 C 0.86031 0.1151 0.25105 0.0
N224 N 0.83725 0.1235 0.29553 0.0
C225 C 0.77994 0.0753 0.26838 0.0
C226 C 0.80313 0.066 0.22237 0.0
C227 C 0.84354 0.08595 0.21372 0.0
C228 C 0.79868 0.104 0.30458 0.0
H229 H 0.89105 0.13085 0.24383 0.0
C230 C 0.94433 0.18288 0.31312 0.0
O231 O -0.00109 0.10773 0.43614 0.0
O232 O 0.9608 0.06671 0.38185 0.0
N233 N 0.79621 0.14645 0.38006 0.0
C234 C 0.77419 0.16653 0.41946 0.0
C235 C 0.73244 0.15236 0.43221 0.0
C236 C 0.71271 0.11913 0.40252 0.0
C237 C 0.73473 0.10144 0.35939 0.0
C238 C 0.77684 0.11628 0.34935 0.0
H239 H 0.78869 0.19289 0.44134 0.0
O240 O 0.90911 0.09444 0.46263 0.0
O241 O 0.8802 0.11741 0.38898 0.0
O242 O 0.92903 0.1836 0.44223 0.0
O243 O 0.8636 0.20326 0.40908 0.0
C244 C 0.71567 0.07153 0.32438 0.0
C245 C 0.73831 0.05839 0.27892 0.0
H246 H 0.78995 0.04412 0.19307 0.0
H247 H 0.86147 0.07924 0.1781 0.0
H248 H 0.71586 0.16785 0.46442 0.0
H249 H 0.67999 0.1087 0.41136 0.0
H250 H 0.68312 0.05942 0.33122 0.0
H251 H 0.72294 0.03616 0.25162 0.0
Mn252 Mn 0.36951 0.94402 0.42593 0.0
Mn253 Mn 0.33147 0.86029 0.35474 0.0
C254 C 0.39045 0.87417 0.44776 0.0
C255 C 0.42683 0.98971 0.44381 0.0
C256 C 0.28051 0.90153 0.44356 0.0
O257 O 0.34041 0.97576 0.36424 0.0
O258 O 0.3182 0.91634 0.32044 0.0
C259 C 0.39766 0.87476 0.27272 0.0
N260 N 0.37822 0.84773 0.30782 0.0
C261 C 0.43602 0.79554 0.29977 0.0
C262 C 0.45667 0.82283 0.26355 0.0
C263 C 0.4371 0.86234 0.24943 0.0
C264 C 0.39642 0.8093 0.32084 0.0
H265 H 0.38376 0.90605 0.26365 0.0
C266 C 0.32056 0.95744 0.32608 0.0
O267 O 0.38842 -0.00215 0.46304 0.0
O268 O 0.42863 0.96188 0.40584 0.0
N269 N 0.34052 0.80339 0.38144 0.0
C270 C 0.31478 0.78039 0.41467 0.0
C271 C 0.32711 0.73828 0.42901 0.0
C272 C 0.36527 0.71997 0.40809 0.0
C273 C 0.39025 0.74387 0.37245 0.0
C274 C 0.37539 0.78507 0.3583 0.0
H275 H 0.28573 0.79454 0.43111 0.0
O276 O 0.39617 0.90593 0.47976 0.0
O277 O 0.37439 0.88463 0.40207 0.0
O278 O 0.3085 0.93095 0.45546 0.0
O279 O 0.28568 0.87341 0.4066 0.0
C280 C 0.43008 0.72924 0.35189 0.0
C281 C 0.45363 0.75574 0.31693 0.0
H282 H 0.48756 0.81383 0.24636 0.0
H283 H 0.45291 0.88362 0.22163 0.0
H284 H 0.30767 0.72081 0.45715 0.0
H285 H 0.37541 0.68777 0.41963 0.0
H286 H 0.44332 0.69814 0.36356 0.0
H287 H 0.48505 0.74493 0.30304 0.0
Mn288 Mn 0.45404 0.85996 0.93173 0.0
Mn289 Mn 0.36957 0.82493 0.85874 0.0
C290 C 0.38443 0.88365 0.95165 0.0
C291 C 0.50215 0.91578 0.95082 0.0
C292 C 0.40762 0.77283 0.94861 0.0
O293 O 0.48551 0.82933 0.87027 0.0
O294 O 0.42555 0.80966 0.82557 0.0
C295 C 0.38695 0.88967 0.77587 0.0
N296 N 0.35906 0.87157 0.81104 0.0
C297 C 0.30753 0.92948 0.79915 0.0
C298 C 0.3357 0.94875 0.76276 0.0
C299 C 0.37535 0.92848 0.75063 0.0
C300 C 0.32057 0.89051 0.82235 0.0
H301 H 0.41821 0.87512 0.76804 0.0
C302 C 0.46669 0.81027 0.8317 0.0
O303 O 0.50813 0.87725 0.97061 0.0
O304 O 0.47474 0.91841 0.91247 0.0
N305 N 0.31251 0.83593 0.88424 0.0
C306 C 0.28821 0.81104 0.91709 0.0
C307 C 0.24589 0.82416 0.92963 0.0
C308 C 0.22867 0.8622 0.90727 0.0
C309 C 0.25382 0.88621 0.87191 0.0
C310 C 0.29526 0.87066 0.85972 0.0
H311 H 0.30142 0.78198 0.93447 0.0
O312 O 0.41587 0.88817 0.98443 0.0
O313 O 0.39507 0.86718 0.90624 0.0
O314 O 0.43803 0.79959 0.96108 0.0
O315 O 0.38034 0.77904 0.91104 0.0
C316 C 0.24 0.92554 0.84939 0.0
C317 C 0.26749 0.94785 0.81434 0.0
H318 H 0.32727 0.9791 0.74395 0.0
H319 H 0.39731 0.94323 0.72271 0.0
H320 H 0.22728 0.80529 0.95729 0.0
H321 H 0.19624 0.87285 0.9173 0.0
H322 H 0.20872 0.9393 0.85949 0.0
H323 H 0.25732 0.97898 0.79908 0.0
Mn324 Mn 0.62014 0.4496 0.90826 0.0
Mn325 Mn 0.65565 0.3615 0.84305 0.0
C326 C 0.59226 0.38209 0.93106 0.0
C327 C 0.56566 0.4995 0.92152 0.0
C328 C 0.70701 0.40405 0.9312 0.0
O329 O 0.65468 0.4769 0.84761 0.0
O330 O 0.67063 0.41521 0.80429 0.0
C331 C 0.58978 0.37348 0.76014 0.0
N332 N 0.60936 0.34734 0.79615 0.0
C333 C 0.55239 0.29426 0.78883 0.0
C334 C 0.53159 0.32058 0.75161 0.0
C335 C 0.55068 0.3601 0.7367 0.0
C336 C 0.59164 0.30894 0.81003 0.0
H337 H 0.60325 0.40485 0.75057 0.0
C338 C 0.67254 0.45641 0.80964 0.0
O339 O 0.60409 0.50575 0.94179 0.0
O340 O 0.56327 0.47141 0.88377 0.0
N341 N 0.64545 0.30616 0.8739 0.0
C342 C 0.67016 0.28487 0.90999 0.0
C343 C 0.65908 0.24231 0.92425 0.0
C344 C 0.62259 0.22228 0.90137 0.0
C345 C 0.59811 0.24478 0.86386 0.0
C346 C 0.6123 0.28609 0.84911 0.0
H347 H 0.69821 0.30024 0.92745 0.0
O348 O 0.58751 0.41548 0.96082 0.0
O349 O 0.6122 0.38971 0.88679 0.0
O350 O 0.67894 0.43349 0.94281 0.0
O351 O 0.70175 0.37602 0.89426 0.0
C352 C 0.55881 0.2291 0.84289 0.0
C353 C 0.5351 0.25467 0.80702 0.0
H354 H 0.50092 0.31086 0.73433 0.0
H355 H 0.53473 0.38068 0.70819 0.0
H356 H 0.67827 0.2254 0.9533 0.0
H357 H 0.61293 0.19008 0.91343 0.0
H358 H 0.54583 0.19812 0.85541 0.0
H359 H 0.50387 0.24325 0.7931 0.0
Mn360 Mn 0.04595 0.63835 0.92118 0.0
Mn361 Mn 0.13159 0.67437 0.85204 0.0
C362 C 0.11496 0.61463 0.94338 0.0
C363 C -0.00223 0.58257 0.93707 0.0
C364 C 0.09194 0.72526 0.94196 0.0
O365 O 0.01563 0.66912 0.85937 0.0
O366 O 0.07623 0.69023 0.81739 0.0
C367 C 0.11489 0.60981 0.76847 0.0
N368 N 0.14255 0.62778 0.80418 0.0
C369 C 0.19191 0.5675 0.79654 0.0
C370 C 0.16394 0.54836 0.75966 0.0
C371 C 0.12558 0.56992 0.745 0.0
C372 C 0.17998 0.60769 0.81762 0.0
H373 H 0.08433 0.6252 0.75908 0.0
C374 C 0.03496 0.68889 0.82199 0.0
O375 O 0.99107 0.62093 0.95723 0.0
O376 O 0.02607 0.58018 0.89973 0.0
N377 N 0.18802 0.66279 0.87907 0.0
C378 C 0.21207 0.68738 0.91267 0.0
C379 C 0.2536 0.67317 0.9272 0.0
C380 C 0.27019 0.63423 0.90628 0.0
C381 C 0.24527 0.61046 0.87027 0.0
C382 C 0.2049 0.62731 0.85569 0.0
H383 H 0.19917 0.71699 0.92916 0.0
O384 O 0.08281 0.60973 0.97492 0.0
O385 O 0.10535 0.63168 0.89797 0.0
O386 O 0.06118 0.69835 0.95233 0.0
O387 O 0.12006 0.7198 0.9051 0.0
C388 C 0.25796 0.56993 0.8499 0.0
C389 C 0.2305 0.54776 0.8145 0.0
H390 H 0.17154 0.51711 0.74242 0.0
H391 H 0.10376 0.55527 0.71672 0.0
H392 H 0.27189 0.69179 0.95551 0.0
H393 H 0.30183 0.62252 0.91807 0.0
H394 H 0.2882 0.55505 0.86215 0.0
H395 H 0.23963 0.51571 0.80101 0.0
Mn396 Mn 0.86863 0.04627 0.93293 0.0
Mn397 Mn 0.83395 0.13086 0.86108 0.0
C398 C 0.89566 0.11466 0.95104 0.0
C399 C 0.92341 -0.00306 0.94855 0.0
C400 C 0.78451 0.09719 0.95558 0.0
O401 O 0.8345 0.01526 0.87408 0.0
O402 O 0.81477 0.07513 0.8299 0.0
C403 C 0.89504 0.10845 0.77567 0.0
N404 N 0.87945 0.138 0.81077 0.0
C405 C 0.9409 0.18492 0.79696 0.0
C406 C 0.95756 0.15506 0.76056 0.0
C407 C 0.93423 0.11692 0.74938 0.0
C408 C 0.9013 0.17511 0.82099 0.0
H409 H 0.87827 0.07818 0.76878 0.0
C410 C 0.81464 0.03408 0.83636 0.0
O411 O 0.88553 0.99213 0.9707 0.0
O412 O 0.92512 0.02333 0.90926 0.0
N413 N 0.84862 0.18773 0.88429 0.0
C414 C 0.82526 0.21453 0.91602 0.0
C415 C 0.84038 0.25675 0.92539 0.0
C416 C 0.87955 0.27076 0.90265 0.0
C417 C 0.90201 0.24296 0.86862 0.0
C418 C 0.8838 0.2023 0.8582 0.0
H419 H 0.79533 0.20367 0.93387 0.0
O420 O 0.9009 0.08315 0.98335 0.0
O421 O 0.8769 0.10447 0.90673 0.0
O422 O 0.81037 0.06559 0.96667 0.0
O423 O 0.78988 0.12327 0.91664 0.0
C424 C 0.94229 0.25331 0.8458 0.0
C425 C 0.96242 0.2236 0.81132 0.0
H426 H 0.98817 0.16109 0.74094 0.0
H427 H 0.94695 0.09364 0.72148 0.0
H428 H 0.82196 0.2781 0.95034 0.0
H429 H 0.89217 0.30275 0.91141 0.0
H430 H 0.95831 0.28368 0.85506 0.0
H431 H 0.99405 0.23128 0.79532 0.0
Mn432 Mn 0.45042 0.62913 0.5895 0.0
Mn433 Mn 0.36606 0.66912 0.65784 0.0
C434 C 0.38056 0.60849 0.5666 0.0
C435 C 0.49594 0.57057 0.57437 0.0
C436 C 0.40803 0.71787 0.56801 0.0
O437 O 0.48179 0.65895 0.65157 0.0
O438 O 0.42189 0.6834 0.69239 0.0
C439 C 0.38045 0.60491 0.74208 0.0
N440 N 0.35346 0.62344 0.70612 0.0
C441 C 0.30201 0.56504 0.71439 0.0
C442 C 0.32926 0.54533 0.75151 0.0
C443 C 0.36835 0.56569 0.76598 0.0
C444 C 0.31535 0.60454 0.69287 0.0
H445 H 0.41152 0.61933 0.75136 0.0
C446 C 0.46308 0.68026 0.68832 0.0
O447 O 0.50457 0.60839 0.55399 0.0
O448 O 0.46731 0.56999 0.61139 0.0
N449 N 0.30928 0.65925 0.63084 0.0
C450 C 0.28618 0.68422 0.59682 0.0
C451 C 0.24421 0.67128 0.58233 0.0
C452 C 0.22622 0.63323 0.60376 0.0
C453 C 0.25024 0.60903 0.6401 0.0
C454 C 0.29117 0.62462 0.65456 0.0
H455 H 0.30015 0.71313 0.57994 0.0
O456 O 0.41267 0.60201 0.5354 0.0
O457 O 0.39064 0.62518 0.61214 0.0
O458 O 0.43799 0.68983 0.55809 0.0
O459 O 0.37937 0.71349 0.60444 0.0
C460 C 0.23611 0.56921 0.66093 0.0
C461 C 0.26275 0.54648 0.69661 0.0
H462 H 0.32056 0.51456 0.76909 0.0
H463 H 0.38962 0.5506 0.79445 0.0
H464 H 0.22663 0.69013 0.55367 0.0
H465 H 0.19418 0.62251 0.59211 0.0
H466 H 0.20537 0.55528 0.64881 0.0
H467 H 0.25247 0.51494 0.71047 0.0
Mn468 Mn 0.86391 0.43557 0.58088 0.0
Mn469 Mn 0.825 0.35267 0.65265 0.0
C470 C 0.88591 0.36546 0.56142 0.0
C471 C 0.92081 0.48261 0.56482 0.0
C472 C 0.7757 0.39157 0.56104 0.0
O473 O 0.83249 0.46798 0.64061 0.0
O474 O 0.81026 0.40915 0.68517 0.0
C475 C 0.89018 0.37021 0.73508 0.0
N476 N 0.87133 0.34186 0.70087 0.0
C477 C 0.93098 0.29183 0.70942 0.0
C478 C 0.9511 0.32059 0.74457 0.0
C479 C 0.93027 0.35961 0.75813 0.0
C480 C 0.89073 0.30381 0.68852 0.0
H481 H 0.87541 0.40127 0.7434 0.0
C482 C 0.81191 0.45014 0.67844 0.0
O483 O 0.8828 0.48931 0.5437 0.0
O484 O 0.92243 0.45477 0.60267 0.0
N485 N 0.8351 0.2952 0.62789 0.0
C486 C 0.80944 0.27045 0.5962 0.0
C487 C 0.82262 0.22816 0.5834 0.0
C488 C 0.86159 0.2116 0.60424 0.0
C489 C 0.88632 0.2372 0.63857 0.0
C490 C 0.87043 0.27831 0.65155 0.0
H491 H 0.77978 0.28336 0.57984 0.0
O492 O 0.89264 0.39675 0.52915 0.0
O493 O 0.86848 0.3767 0.60606 0.0
O494 O 0.80374 0.42101 0.54938 0.0
O495 O 0.78018 0.36426 0.59894 0.0
C496 C 0.9268 0.22433 0.65898 0.0
C497 C 0.94987 0.25243 0.69276 0.0
H498 H 0.9826 0.31312 0.76128 0.0
H499 H 0.94568 0.38202 0.78512 0.0
H500 H 0.80325 0.20907 0.55656 0.0
H501 H 0.87242 0.17934 0.59385 0.0
H502 H 0.94097 0.19345 0.6479 0.0
H503 H 0.982 0.24323 0.70584 0.0
Mn504 Mn 0.05012 0.8636 0.57594 0.0
Mn505 Mn 0.13314 0.82705 0.65011 0.0
C506 C 0.12037 0.88469 0.55619 0.0
C507 C 0.00387 0.91985 0.55386 0.0
C508 C 0.09381 0.77457 0.56117 0.0
O509 O 0.01737 0.83577 0.63808 0.0
O510 O 0.07651 0.81394 0.68283 0.0
C511 C 0.11713 0.89333 0.73199 0.0
N512 N 0.14467 0.87404 0.69724 0.0
C513 C 0.19757 0.93085 0.70845 0.0
C514 C 0.1698 0.95131 0.74442 0.0
C515 C 0.12962 0.93219 0.75669 0.0
C516 C 0.18366 0.89185 0.68585 0.0
H517 H 0.08551 0.87967 0.73992 0.0
C518 C 0.03542 0.81636 0.6768 0.0
O519 O 0.99684 0.88075 0.53615 0.0
O520 O 0.03104 0.92334 0.59243 0.0
N521 N 0.19065 0.8361 0.62502 0.0
C522 C 0.21448 0.81006 0.59287 0.0
C523 C 0.25715 0.82197 0.58033 0.0
C524 C 0.27518 0.85997 0.60203 0.0
C525 C 0.25047 0.88516 0.63678 0.0
C526 C 0.20863 0.8708 0.64901 0.0
H527 H 0.20064 0.78101 0.57599 0.0
O528 O 0.08939 0.88913 0.52276 0.0
O529 O 0.10905 0.86951 0.60193 0.0
O530 O 0.06415 0.80203 0.54858 0.0
O531 O 0.1215 0.78058 0.59839 0.0
C532 C 0.26513 0.92452 0.65861 0.0
C533 C 0.23808 0.94803 0.69312 0.0
H534 H 0.17893 0.98171 0.7628 0.0
H535 H 0.10796 0.94786 0.78428 0.0
H536 H 0.27537 0.80224 0.55311 0.0
H537 H 0.30787 0.86971 0.59198 0.0
H538 H 0.29676 0.93739 0.6484 0.0
H539 H 0.24894 0.97913 0.70791 0.0
Mn540 Mn 0.63475 0.03724 0.59007 0.0
Mn541 Mn 0.67268 0.12442 0.65426 0.0
C542 C 0.60967 0.10567 0.56586 0.0
C543 C 0.5785 0.98932 0.57707 0.0
C544 C 0.72201 0.08137 0.5651 0.0
O545 O 0.66673 0.00869 0.65244 0.0
O546 O 0.6886 0.07046 0.69118 0.0
C547 C 0.60843 0.10992 0.73823 0.0
N548 N 0.62693 0.13709 0.70254 0.0
C549 C 0.56673 0.18664 0.70835 0.0
C550 C 0.54689 0.15901 0.74484 0.0
C551 C 0.56822 0.12089 0.76058 0.0
C552 C 0.60715 0.17438 0.68824 0.0
H553 H 0.62345 0.07935 0.74814 0.0
C554 C 0.68697 0.02919 0.68869 0.0
O555 O 0.61665 0.98153 0.55692 0.0
O556 O 0.57693 0.01819 0.61394 0.0
N557 N 0.66113 0.17979 0.62511 0.0
C558 C 0.68486 0.2019 0.58903 0.0
C559 C 0.67106 0.24316 0.57345 0.0
C560 C 0.63327 0.26138 0.59564 0.0
C561 C 0.61004 0.23811 0.63343 0.0
C562 C 0.62666 0.19805 0.64915 0.0
H563 H 0.7136 0.18776 0.57171 0.0
O564 O 0.60463 0.07256 0.53574 0.0
O565 O 0.62854 0.09737 0.61068 0.0
O566 O 0.69422 0.05101 0.55639 0.0
O567 O 0.71745 0.11068 0.60086 0.0
C568 C 0.56971 0.25166 0.65363 0.0
C569 C 0.54719 0.22488 0.68924 0.0
H570 H 0.51519 0.16655 0.76082 0.0
H571 H 0.55304 0.09934 0.7886 0.0
H572 H 0.68915 0.25977 0.54338 0.0
H573 H 0.62155 0.29275 0.58318 0.0
H574 H 0.55491 0.2816 0.64036 0.0
H575 H 0.51487 0.23406 0.70164 0.0
C576 C 0.60683 0.29924 0.0343 0.0
C577 C 0.58063 0.26446 0.01804 0.0
H578 H 0.6315 0.36201 0.01741 0.0
C579 C 0.55315 0.27021 0.9744 0.0
H580 H 0.62585 0.29765 0.07008 0.0
C581 C 0.55616 0.30866 0.94442 0.0
C582 C 0.58769 0.34009 0.95724 0.0
H583 H 0.53109 0.24468 0.96232 0.0
H584 H 0.5351 0.31323 0.91082 0.0
C585 C 0.61046 0.33609 0.00412 0.0
C586 C 0.183 0.57189 0.95927 0.0
C587 C 0.15834 0.60981 0.96612 0.0
H588 H 0.23939 0.53586 0.98351 0.0
C589 C 0.16972 0.63897 0.00571 0.0
H590 H 0.17333 0.54779 0.93053 0.0
C591 C 0.20566 0.63146 0.03743 0.0
C592 C 0.23186 0.59471 0.02977 0.0
H593 H 0.15005 0.66749 0.01216 0.0
H594 H 0.21282 0.65451 0.06824 0.0
C595 C 0.22022 0.56482 0.99016 0.0
C596 C 0.87161 0.16732 0.0155 0.0
C597 C 0.89919 0.15802 0.97355 0.0
H598 H 0.85547 0.21057 0.07656 0.0
C599 C 0.93452 0.18558 0.96322 0.0
H600 H 0.84576 0.14517 0.02636 0.0
C601 C 0.93917 0.22458 0.99149 0.0
C602 C 0.90986 0.23474 0.03211 0.0
H603 H 0.95788 0.17729 0.93305 0.0
H604 H 0.96518 0.24669 0.98136 0.0
C605 C 0.87744 0.20464 0.04475 0.0
C606 C 0.32955 0.85786 0.01254 0.0
C607 C 0.34058 0.88725 0.97321 0.0
H608 H 0.28605 0.841 0.07374 0.0
C609 C 0.31455 0.92409 0.96525 0.0
H610 H 0.35014 0.83015 0.01992 0.0
C611 C 0.27657 0.92999 0.99508 0.0
C612 C 0.26542 0.89996 0.03455 0.0
H613 H 0.3238 0.9483 0.9366 0.0
H614 H 0.25647 0.95819 0.98781 0.0
C615 C 0.29277 0.86417 0.04303 0.0
C616 C 0.6223 0.19329 0.4668 0.0
C617 C 0.58798 0.22205 0.47759 0.0
H618 H 0.65548 0.135 0.48855 0.0
C619 C 0.56008 0.21228 0.51991 0.0
H620 H 0.64391 0.19853 0.43411 0.0
C621 C 0.56736 0.17505 0.55098 0.0
C622 C 0.6036 0.14842 0.54137 0.0
H623 H 0.53285 0.23322 0.52903 0.0
H624 H 0.54495 0.1672 0.5823 0.0
C625 C 0.62965 0.1572 0.49814 0.0
C626 C 0.32735 0.63444 0.5033 0.0
C627 C 0.33715 0.60533 0.54346 0.0
H628 H 0.28539 0.65108 0.44017 0.0
C629 C 0.31084 0.56858 0.55047 0.0
H630 H 0.34837 0.66192 0.49647 0.0
C631 C 0.27365 0.56264 0.51915 0.0
C632 C 0.26358 0.59248 0.47903 0.0
H633 H 0.31926 0.54445 0.57962 0.0
H634 H 0.25327 0.53455 0.52589 0.0
C635 C 0.29131 0.62809 0.47132 0.0
C636 C 0.85485 0.31201 0.50223 0.0
C637 C 0.88686 0.32179 0.53911 0.0
H638 H 0.83395 0.27014 0.44103 0.0
C639 C 0.92358 0.29491 0.54318 0.0
H640 H 0.8272 0.33327 0.49759 0.0
C641 C 0.92682 0.25733 0.51195 0.0
C642 C 0.89414 0.24752 0.47497 0.0
H643 H 0.94976 0.30325 0.5698 0.0
H644 H 0.95503 0.23662 0.51607 0.0
C645 C 0.85859 0.2757 0.47035 0.0
C646 C 0.1908 0.92398 0.54315 0.0
C647 C 0.16446 0.88735 0.53544 0.0
H648 H 0.24952 0.95695 0.52091 0.0
C649 C 0.17556 0.85713 0.49698 0.0
H650 H 0.18152 0.9488 0.57115 0.0
C651 C 0.21271 0.86242 0.46694 0.0
C652 C 0.24035 0.89801 0.4752 0.0
H653 H 0.15473 0.82952 0.49015 0.0
H654 H 0.21958 0.83859 0.43691 0.0
C655 C 0.22916 0.92886 0.51387 0.0
C656 C 0.43134 0.7205 0.01971 0.0
C657 C 0.40172 0.73297 0.98024 0.0
H658 H 0.44811 0.6721 0.07738 0.0
C659 C 0.36507 0.70691 0.97104 0.0
H660 H 0.46019 0.73958 0.02746 0.0
C661 C 0.35758 0.67008 1.00088 0.0
C662 C 0.38652 0.65777 0.0402 0.0
H663 H 0.34213 0.71471 0.94035 0.0
H664 H 0.3293 0.65038 0.99305 0.0
C665 C 0.42419 0.68246 0.04881 0.0
C666 C 0.78126 0.37333 0.94401 0.0
C667 C 0.74834 0.40154 0.96136 0.0
H668 H 0.84511 0.34853 0.9568 0.0
C669 C 0.75587 0.42651 0.00696 0.0
H670 H 0.77763 0.35445 0.90836 0.0
C671 C 0.79475 0.42166 0.03558 0.0
C672 C 0.82612 0.39144 0.01926 0.0
H673 H 0.73167 0.44929 0.02087 0.0
H674 H 0.80035 0.4415 0.07005 0.0
C675 C 0.81978 0.36917 0.97208 0.0
C676 C 0.06763 0.77429 0.01617 0.0
C677 C 0.09728 0.76407 0.97582 0.0
H678 H 0.05032 0.81958 0.07733 0.0
C679 C 0.13352 0.79103 0.96847 0.0
H680 H 0.0391 0.75445 0.02265 0.0
C681 C 0.14055 0.8266 1.00094 0.0
C682 C 0.11157 0.83655 0.04128 0.0
H683 H 0.15647 0.78492 0.93724 0.0
H684 H 0.16838 0.84722 0.99426 0.0
C685 C 0.07431 0.81095 0.04803 0.0
C686 C 0.70421 0.09692 0.07031 0.0
C687 C 0.66995 0.121 0.04835 0.0
H688 H 0.7681 0.0701 0.05783 0.0
C689 C 0.6741 0.13666 0.99704 0.0
H690 H 0.70118 0.08333 0.1093 0.0
C691 C 0.7114 0.12934 0.96799 0.0
C692 C 0.74567 0.1048 0.98878 0.0
H693 H 0.64765 0.15416 0.97896 0.0
H694 H 0.71267 0.14207 0.9284 0.0
C695 C 0.74202 0.08888 0.04057 0.0
C696 C 0.36861 0.78481 0.54143 0.0
C697 C 0.40429 0.75699 0.53444 0.0
H698 H 0.33554 0.84205 0.51601 0.0
C699 C 0.43487 0.76691 0.49507 0.0
H700 H 0.34498 0.77899 0.57194 0.0
C701 C 0.42966 0.80416 0.46389 0.0
C702 C 0.39294 0.83066 0.47032 0.0
H703 H 0.463 0.74642 0.4889 0.0
H704 H 0.45436 0.81253 0.4354 0.0
C705 C 0.36302 0.8209 0.50962 0.0
C706 C 0.70915 0.35107 0.53589 0.0
C707 C 0.73635 0.38697 0.52797 0.0
H708 H 0.65159 0.31761 0.51181 0.0
C709 C 0.72529 0.41721 0.48863 0.0
H710 H 0.71598 0.32752 0.56615 0.0
C711 C 0.6871 0.4117 0.45896 0.0
C712 C 0.66095 0.37499 0.4669 0.0
H713 H 0.74536 0.44548 0.48174 0.0
H714 H 0.67763 0.43627 0.43083 0.0
C715 C 0.67229 0.34522 0.5054 0.0
C716 C 0.14014 0.66974 0.50874 0.0
C717 C 0.11104 0.6587 0.46892 0.0
H718 H 0.1569 0.71375 0.5699 0.0
C719 C 0.07425 0.6847 0.46054 0.0
H720 H 0.16773 0.64907 0.51638 0.0
C721 C 0.0683 0.7228 0.49012 0.0
C722 C 0.09822 0.73419 0.52981 0.0
H723 H 0.05016 0.67541 0.4316 0.0
H724 H 0.0402 0.74293 0.48231 0.0
C725 C 0.13382 0.70675 0.53903 0.0
C726 C 0.79287 0.11568 0.54217 0.0
C727 C 0.76112 0.08426 0.53106 0.0
H728 H 0.85215 0.14594 0.51835 0.0
C729 C 0.76681 0.0574 0.48661 0.0
H730 H 0.79047 0.13599 0.57673 0.0
C731 C 0.80297 0.06292 0.4535 0.0
C732 C 0.8332 0.09596 0.46384 0.0
H733 H 0.74323 0.03251 0.4771 0.0
H734 H 0.80731 0.04154 0.42012 0.0
C735 C 0.82825 0.12142 0.50897 0.0
C736 C 0.52719 0.95416 0.03341 0.0
C737 C 0.51114 0.95597 0.98168 0.0
H738 H 0.54008 0.98908 0.10495 0.0
C739 C 0.49475 0.99585 0.96332 0.0
H740 H 0.53919 0.92388 0.04935 0.0
C741 C 0.4934 0.03244 0.99577 0.0
C742 C 0.50926 0.03083 0.04746 0.0
H743 H 0.48155 -0.00137 0.92404 0.0
H744 H 0.48085 0.06242 0.9796 0.0
C745 C 0.52662 0.99128 0.06575 0.0
C746 C 0.49556 0.50848 0.04297 0.0
C747 C 0.45495 0.49366 0.02462 0.0
H748 H 0.56155 0.52439 0.0247 0.0
C749 C 0.45045 0.48467 0.97076 0.0
H750 H 0.50012 0.51664 0.08399 0.0
C751 C 0.48557 0.49024 0.93637 0.0
C752 C 0.52625 0.50489 0.9548 0.0
H753 H 0.41946 0.47444 0.9548 0.0
H754 H 0.48113 0.48191 0.89538 0.0
C755 C 0.5306 0.51417 0.00861 0.0
C756 C 0.00475 0.50238 0.94889 0.0
C757 C 0.98928 0.54253 0.9678 0.0
H758 H 0.01768 0.43547 0.96491 0.0
C759 C 0.97521 0.54502 0.02018 0.0
H760 H 0.01661 0.49927 0.90904 0.0
C761 C 0.97663 0.50836 0.05267 0.0
C762 C 0.99237 0.46831 0.03373 0.0
H763 H 0.96416 0.57555 0.03657 0.0
H764 H 0.96453 0.51118 0.09245 0.0
C765 C 0.00655 0.46592 0.98143 0.0
C766 C 0.04134 0.00843 0.98826 0.0
C767 C 0.03954 0.00115 0.04262 0.0
H768 H 0.00673 0.01003 0.9154 0.0
C769 C -0.00051 0.98872 0.06481 0.0
H770 H 0.07178 0.01666 0.96944 0.0
C771 C 0.96232 0.98368 0.03358 0.0
C772 C 0.9641 0.991 0.97921 0.0
H773 H 0.99707 0.98187 0.1064 0.0
H774 H 0.9319 0.97539 0.0524 0.0
C775 C 0.00421 0.00328 0.957 0.0
C776 C 0.48791 0.48996 0.56485 0.0
C777 C 0.50288 0.52971 0.54427 0.0
H778 H 0.47402 0.42271 0.55074 0.0
C779 C 0.5148 0.53118 0.4911 0.0
H780 H 0.47764 0.48771 0.60541 0.0
C781 C 0.51154 0.49408 0.45938 0.0
C782 C 0.49637 0.45438 0.47989 0.0
H783 H 0.52534 0.56133 0.47342 0.0
H784 H 0.52171 0.49635 0.41878 0.0
C785 C 0.48465 0.45285 0.53312 0.0
C786 C 0.99703 0.50353 0.45121 0.0
C787 C 0.03729 0.48984 0.47179 0.0
H788 H 0.92914 0.51404 0.46486 0.0
C789 C 0.03911 0.47693 0.52459 0.0
H790 H 0.9945 0.51452 0.41096 0.0
C791 C 0.00173 0.47779 0.55592 0.0
C792 C 0.96147 0.49146 0.53532 0.0
H793 H 0.06967 0.46734 0.54224 0.0
H794 H 0.00426 0.46679 0.59617 0.0
C795 C 0.95967 0.50441 0.48253 0.0
C796 C 0.98255 0.95389 0.46785 0.0
C797 C 0.9966 0.95859 0.52009 0.0
H798 H 0.97187 0.98451 0.39348 0.0
C799 C 0.01249 -0.00061 0.53628 0.0
H800 H 0.97121 0.92278 0.45347 0.0
C801 C 0.01426 0.03444 0.50141 0.0
C802 C -0.00018 0.02994 0.44931 0.0
H803 H 0.02445 0.00416 0.57588 0.0
H804 H 0.02556 0.06551 0.51599 0.0
C805 C 0.98409 0.98908 0.43299 0.0
C806 C 0.49842 -0.00137 0.56405 0.0
C807 C 0.53868 0.98369 0.54481 0.0
H808 H 0.43211 0.01453 0.54698 0.0
C809 C 0.54219 0.97408 0.49104 0.0
H810 H 0.49471 0.00722 0.60505 0.0
C811 C 0.50664 0.97968 0.45744 0.0
C812 C 0.46641 0.99471 0.47662 0.0
H813 H 0.57286 0.96371 0.4744 0.0
H814 H 0.51043 0.97121 0.4164 0.0
C815 C 0.46281 0.00414 0.53042 0.0
C816 C 0.49271 0.24048 0.29645 0.0
C817 C 0.50005 0.28518 0.28896 0.0
H818 H 0.495 0.17698 0.26156 0.0
C819 C 0.50119 0.30103 0.2374 0.0
H820 H 0.4926 0.22719 0.33581 0.0
C821 C 0.50293 0.27221 0.19486 0.0
C822 C 0.50365 0.22704 0.20318 0.0
H823 H 0.50751 0.33513 0.23034 0.0
H824 H 0.51025 0.28518 0.15635 0.0
C825 C 0.49424 0.21152 0.25372 0.0
C826 C 0.2039 0.50354 0.23761 0.0
C827 C 0.21436 0.50619 0.29119 0.0
H828 H 0.22781 0.50588 0.15866 0.0
C829 C 0.25829 0.50236 0.30596 0.0
H830 H 0.17056 0.50784 0.22493 0.0
C831 C 0.29129 0.50235 0.2679 0.0
C832 C 0.28092 0.50509 0.21431 0.0
H833 H 0.26744 0.50571 0.34687 0.0
H834 H 0.32472 0.50581 0.28061 0.0
C835 C 0.23689 0.50239 0.19955 0.0
C836 C 0.97046 0.2488 0.1933 0.0
C837 C 0.96369 0.29101 0.21325 0.0
H838 H 0.9701 0.18024 0.20987 0.0
C839 C 0.96151 0.29643 0.26791 0.0
H840 H 0.97079 0.24336 0.15128 0.0
C841 C 0.96263 0.26034 0.3015 0.0
C842 C 0.96467 0.21778 0.2813 0.0
H843 H 0.95504 0.32821 0.28444 0.0
H844 H 0.95674 0.26549 0.34299 0.0
C845 C 0.97025 0.21249 0.22691 0.0
C846 C 0.24702 0.98622 0.31021 0.0
C847 C 0.29012 0.98204 0.2924 0.0
H848 H 0.17941 0.98315 0.28943 0.0
C849 C 0.29799 0.9844 0.23823 0.0
H850 H 0.23987 0.98307 0.35168 0.0
C851 C 0.26322 0.98591 0.20254 0.0
C852 C 0.21998 0.98363 0.22032 0.0
H853 H 0.33063 0.97982 0.22329 0.0
H854 H 0.27025 0.98245 0.16105 0.0
C855 C 0.21221 0.98632 0.27451 0.0
C856 C 0.49251 0.78784 0.7432 0.0
C857 C 0.49011 0.77925 0.79726 0.0
H858 H 0.48853 0.76164 0.66526 0.0
C859 C 0.49201 0.73566 0.81373 0.0
H860 H 0.48953 0.82088 0.72916 0.0
C861 C 0.49008 0.70154 0.77703 0.0
C862 C 0.48759 0.7103 0.72302 0.0
H863 H 0.48864 0.72791 0.85501 0.0
H864 H 0.48539 0.66871 0.79111 0.0
C865 C 0.49184 0.75369 0.7065 0.0
C866 C 0.7372 0.47779 0.68869 0.0
C867 C 0.77949 0.4747 0.70953 0.0
H868 H 0.66874 0.47473 0.70487 0.0
C869 C 0.7848 0.4783 0.76412 0.0
H870 H 0.73198 0.47358 0.64691 0.0
C871 C 0.74841 0.48045 0.79732 0.0
C872 C 0.70603 0.47754 0.77667 0.0
H873 H 0.81673 0.47446 0.78144 0.0
H874 H 0.75354 0.47831 0.83933 0.0
C875 C 0.7008 0.47843 0.72193 0.0
C876 C 0.00881 0.79647 0.76557 0.0
C877 C 0.01072 0.78694 0.71168 0.0
H878 H 0.01235 0.77136 0.84391 0.0
C879 C 0.0072 0.74322 0.69594 0.0
H880 H 0.01299 0.82961 0.779 0.0
C881 C 0.00822 0.70964 0.7332 0.0
C882 C 0.01136 0.71919 0.78699 0.0
H883 H 0.01011 0.73474 0.65478 0.0
H884 H 0.01175 0.67646 0.71967 0.0
C885 C 0.00856 0.76291 0.80284 0.0
C886 C 0.76048 0.00278 0.71085 0.0
C887 C 0.71662 0.00692 0.72573 0.0
H888 H 0.82716 0.00758 0.73534 0.0
C889 C 0.70669 0.00746 0.77954 0.0
H890 H 0.76925 0.00389 0.66968 0.0
C891 C 0.73999 0.00866 0.8173 0.0
C892 C 0.78389 0.01025 0.80198 0.0
H893 H 0.67342 0.01222 0.79221 0.0
H894 H 0.73129 0.01413 0.85799 0.0
C895 C 0.7938 0.00499 0.74854 0.0
loop_
_geom_bond_atom_site_label_1
_geom_bond_atom_site_label_2
_geom_bond_distance
_geom_bond_site_symmetry_2
_ccdc_geom_bond_type
Mn0 O5 2.095 . S
Mn0 O15 2.162 . S
Mn0 O16 2.297 . S
Mn0 O24 2.385 1_554 S
Mn0 O25 2.209 . S
Mn0 O26 2.095 1_554 S
Mn1 O6 2.121 . S
Mn1 N8 2.257 . S
Mn1 N17 2.282 . S
Mn1 O25 2.215 . S
Mn1 O27 2.117 . S
C2 O24 1.234 1_554 S
C2 O25 1.283 . S
C3 O15 1.281 . S
C3 O16 1.236 . S
C4 O26 1.241 1_554 S
C4 O27 1.264 . S
O5 Mn0 2.095 . S
O5 C14 1.250 . S
O6 Mn1 2.121 . S
O6 C14 1.258 . S
C7 N8 1.326 . S
C7 C11 1.460 . S
C7 H13 0.929 . S
N8 Mn1 2.257 . S
N8 C7 1.326 . S
N8 C12 1.362 . S
C9 C10 1.258 . S
C9 C12 1.431 . S
C9 C29 1.449 . S
C10 C9 1.258 . S
C10 C11 1.477 . S
C10 H30 0.931 . S
C11 C7 1.460 . S
C11 C10 1.477 . S
C11 H31 0.930 . S
C12 N8 1.362 . S
C12 C9 1.431 . S
C12 C22 1.476 . S
H13 C7 0.929 . S
C14 O5 1.250 . S
C14 O6 1.258 . S
O15 Mn0 2.162 . S
O15 C3 1.281 . S
O16 Mn0 2.297 . S
O16 C3 1.236 . S
N17 Mn1 2.282 . S
N17 C18 1.328 1_554 S
N17 C22 1.318 . S
C18 N17 1.328 1_556 S
C18 C19 1.457 . S
C18 H23 0.929 . S
C19 C18 1.457 . S
C19 C20 1.291 . S
C19 H32 0.931 . S
C20 C19 1.291 . S
C20 C21 1.373 1_556 S
C20 H33 0.929 . S
C21 C20 1.373 1_554 S
C21 C22 1.396 . S
C21 C28 1.403 . S
C22 C12 1.476 . S
C22 N17 1.318 . S
C22 C21 1.396 . S
H23 C18 0.929 . S
O24 Mn0 2.385 1_556 S
O24 C2 1.234 1_556 S
O25 Mn0 2.209 . S
O25 Mn1 2.215 . S
O25 C2 1.283 . S
O26 Mn0 2.095 1_556 S
O26 C4 1.241 1_556 S
O27 Mn1 2.117 . S
O27 C4 1.264 . S
C28 C21 1.403 . S
C28 C29 1.399 . S
C28 H34 0.929 . S
C29 C9 1.449 . S
C29 C28 1.399 . S
C29 H35 0.930 . S
H30 C10 0.931 . S
H31 C11 0.930 . S
H32 C19 0.931 . S
H33 C20 0.929 . S
H34 C28 0.929 . S
H35 C29 0.930 . S
Mn36 O41 2.095 . S
Mn36 O51 2.162 . S
Mn36 O52 2.297 . S
Mn36 O60 2.385 1_554 S
Mn36 O61 2.209 . S
Mn36 O62 2.095 1_554 S
Mn37 O42 2.121 . S
Mn37 N44 2.257 . S
Mn37 N53 2.282 . S
Mn37 O61 2.215 . S
Mn37 O63 2.117 . S
C38 O60 1.234 1_554 S
C38 O61 1.283 . S
C39 O51 1.281 . S
C39 O52 1.236 . S
C40 O62 1.241 1_554 S
C40 O63 1.264 . S
O41 Mn36 2.095 . S
O41 C50 1.250 . S
O42 Mn37 2.121 . S
O42 C50 1.258 . S
C43 N44 1.326 . S
C43 C47 1.460 . S
C43 H49 0.929 . S
N44 Mn37 2.257 . S
N44 C43 1.326 . S
N44 C48 1.362 . S
C45 C46 1.258 . S
C45 C48 1.431 . S
C45 C65 1.449 . S
C46 C45 1.258 . S
C46 C47 1.477 . S
C46 H66 0.931 . S
C47 C43 1.460 . S
C47 C46 1.477 . S
C47 H67 0.930 . S
C48 N44 1.362 . S
C48 C45 1.431 . S
C48 C58 1.476 . S
H49 C43 0.929 . S
C50 O41 1.250 . S
C50 O42 1.258 . S
O51 Mn36 2.162 . S
O51 C39 1.281 . S
O52 Mn36 2.297 . S
O52 C39 1.236 . S
N53 Mn37 2.282 . S
N53 C54 1.328 1_554 S
N53 C58 1.318 . S
C54 N53 1.328 1_556 S
C54 C55 1.457 . S
C54 H59 0.929 . S
C55 C54 1.457 . S
C55 C56 1.291 . S
C55 H68 0.931 . S
C56 C55 1.291 . S
C56 C57 1.373 1_556 S
C56 H69 0.929 . S
C57 C56 1.373 1_554 S
C57 C58 1.396 . S
C57 C64 1.403 . S
C58 C48 1.476 . S
C58 N53 1.318 . S
C58 C57 1.396 . S
H59 C54 0.929 . S
O60 Mn36 2.385 1_556 S
O60 C38 1.234 1_556 S
O61 Mn36 2.209 . S
O61 Mn37 2.215 . S
O61 C38 1.283 . S
O62 Mn36 2.095 1_556 S
O62 C40 1.241 1_556 S
O63 Mn37 2.117 . S
O63 C40 1.264 . S
C64 C57 1.403 . S
C64 C65 1.399 . S
C64 H70 0.929 . S
C65 C45 1.449 . S
C65 C64 1.399 . S
C65 H71 0.930 . S
H66 C46 0.931 . S
H67 C47 0.930 . S
H68 C55 0.931 . S
H69 C56 0.929 . S
H70 C64 0.929 . S
H71 C65 0.930 . S
Mn72 O77 2.095 . S
Mn72 O87 2.162 1_655 S
Mn72 O88 2.297 . S
Mn72 O96 2.385 1_554 S
Mn72 O97 2.209 . S
Mn72 O98 2.095 1_554 S
Mn73 O78 2.121 . S
Mn73 N80 2.257 . S
Mn73 N89 2.282 . S
Mn73 O97 2.215 . S
Mn73 O99 2.117 . S
C74 O96 1.234 1_554 S
C74 O97 1.283 . S
C75 O87 1.281 . S
C75 O88 1.236 1_455 S
C76 O98 1.241 1_554 S
C76 O99 1.264 . S
O77 Mn72 2.095 . S
O77 C86 1.250 . S
O78 Mn73 2.121 . S
O78 C86 1.258 . S
C79 N80 1.326 . S
C79 C83 1.460 . S
C79 H85 0.929 . S
N80 Mn73 2.257 . S
N80 C79 1.326 . S
N80 C84 1.362 . S
C81 C82 1.258 . S
C81 C84 1.431 . S
C81 C101 1.449 . S
C82 C81 1.258 . S
C82 C83 1.477 . S
C82 H102 0.931 . S
C83 C79 1.460 . S
C83 C82 1.477 . S
C83 H103 0.930 . S
C84 N80 1.362 . S
C84 C81 1.431 . S
C84 C94 1.476 . S
H85 C79 0.929 . S
C86 O77 1.250 . S
C86 O78 1.258 . S
O87 Mn72 2.162 1_455 S
O87 C75 1.281 . S
O88 Mn72 2.297 . S
O88 C75 1.236 1_655 S
N89 Mn73 2.282 . S
N89 C90 1.328 1_554 S
N89 C94 1.318 . S
C90 N89 1.328 1_556 S
C90 C91 1.457 . S
C90 H95 0.929 . S
C91 C90 1.457 . S
C91 C92 1.291 . S
C91 H104 0.931 . S
C92 C91 1.291 . S
C92 C93 1.373 1_556 S
C92 H105 0.929 . S
C93 C92 1.373 1_554 S
C93 C94 1.396 . S
C93 C100 1.403 . S
C94 C84 1.476 . S
C94 N89 1.318 . S
C94 C93 1.396 . S
H95 C90 0.929 . S
O96 Mn72 2.385 1_556 S
O96 C74 1.234 1_556 S
O97 Mn72 2.209 . S
O97 Mn73 2.215 . S
O97 C74 1.283 . S
O98 Mn72 2.095 1_556 S
O98 C76 1.241 1_556 S
O99 Mn73 2.117 . S
O99 C76 1.264 . S
C100 C93 1.403 . S
C100 C101 1.399 . S
C100 H106 0.929 . S
C101 C81 1.449 . S
C101 C100 1.399 . S
C101 H107 0.930 . S
H102 C82 0.931 . S
H103 C83 0.930 . S
H104 C91 0.931 . S
H105 C92 0.929 . S
H106 C100 0.929 . S
H107 C101 0.930 . S
Mn108 O113 2.095 . S
Mn108 O123 2.162 1_565 S
Mn108 O124 2.297 . S
Mn108 O132 2.385 1_554 S
Mn108 O133 2.209 . S
Mn108 O134 2.095 1_554 S
Mn109 O114 2.121 . S
Mn109 N116 2.257 . S
Mn109 N125 2.282 . S
Mn109 O133 2.215 . S
Mn109 O135 2.117 . S
C110 O132 1.234 1_554 S
C110 O133 1.283 . S
C111 O123 1.281 . S
C111 O124 1.236 1_545 S
C112 O134 1.241 1_554 S
C112 O135 1.264 . S
O113 Mn108 2.095 . S
O113 C122 1.250 . S
O114 Mn109 2.121 . S
O114 C122 1.258 . S
C115 N116 1.326 . S
C115 C119 1.460 . S
C115 H121 0.929 . S
N116 Mn109 2.257 . S
N116 C115 1.326 . S
N116 C120 1.362 . S
C117 C118 1.258 . S
C117 C120 1.431 . S
C117 C137 1.449 . S
C118 C117 1.258 . S
C118 C119 1.477 . S
C118 H138 0.931 . S
C119 C115 1.460 . S
C119 C118 1.477 . S
C119 H139 0.930 . S
C120 N116 1.362 . S
C120 C117 1.431 . S
C120 C130 1.476 . S
H121 C115 0.929 . S
C122 O113 1.250 . S
C122 O114 1.258 . S
O123 Mn108 2.162 1_545 S
O123 C111 1.281 . S
O124 Mn108 2.297 . S
O124 C111 1.236 1_565 S
N125 Mn109 2.282 . S
N125 C126 1.328 1_554 S
N125 C130 1.318 . S
C126 N125 1.328 1_556 S
C126 C127 1.457 . S
C126 H131 0.929 . S
C127 C126 1.457 . S
C127 C128 1.291 . S
C127 H140 0.931 . S
C128 C127 1.291 . S
C128 C129 1.373 1_556 S
C128 H141 0.929 . S
C129 C128 1.373 1_554 S
C129 C130 1.396 . S
C129 C136 1.403 . S
C130 C120 1.476 . S
C130 N125 1.318 . S
C130 C129 1.396 . S
H131 C126 0.929 . S
O132 Mn108 2.385 1_556 S
O132 C110 1.234 1_556 S
O133 Mn108 2.209 . S
O133 Mn109 2.215 . S
O133 C110 1.283 . S
O134 Mn108 2.095 1_556 S
O134 C112 1.241 1_556 S
O135 Mn109 2.117 . S
O135 C112 1.264 . S
C136 C129 1.403 . S
C136 C137 1.399 . S
C136 H142 0.929 . S
C137 C117 1.449 . S
C137 C136 1.399 . S
C137 H143 0.930 . S
H138 C118 0.931 . S
H139 C119 0.930 . S
H140 C127 0.931 . S
H141 C128 0.929 . S
H142 C136 0.929 . S
H143 C137 0.930 . S
Mn144 O149 2.095 . S
Mn144 O159 2.162 . S
Mn144 O160 2.297 . S
Mn144 O168 2.385 . S
Mn144 O169 2.209 . S
Mn144 O170 2.094 . S
Mn145 O150 2.121 . S
Mn145 N152 2.257 . S
Mn145 N161 2.282 . S
Mn145 O169 2.215 . S
Mn145 O171 2.117 . S
C146 O168 1.234 . S
C146 O169 1.283 . S
C147 O159 1.281 . S
C147 O160 1.236 . S
C148 O170 1.240 . S
C148 O171 1.264 . S
O149 Mn144 2.095 . S
O149 C158 1.250 . S
O150 Mn145 2.121 . S
O150 C158 1.258 . S
C151 N152 1.326 . S
C151 C155 1.460 . S
C151 H157 0.929 . S
N152 Mn145 2.257 . S
N152 C151 1.326 . S
N152 C156 1.362 . S
C153 C154 1.258 . S
C153 C156 1.431 . S
C153 C173 1.449 . S
C154 C153 1.258 . S
C154 C155 1.477 . S
C154 H174 0.931 . S
C155 C151 1.460 . S
C155 C154 1.477 . S
C155 H175 0.930 . S
C156 N152 1.362 . S
C156 C153 1.431 . S
C156 C166 1.476 . S
H157 C151 0.929 . S
C158 O149 1.250 . S
C158 O150 1.258 . S
O159 Mn144 2.162 . S
O159 C147 1.281 . S
O160 Mn144 2.297 . S
O160 C147 1.236 . S
N161 Mn145 2.282 . S
N161 C162 1.328 . S
N161 C166 1.318 . S
C162 N161 1.328 . S
C162 C163 1.457 . S
C162 H167 0.929 . S
C163 C162 1.457 . S
C163 C164 1.291 . S
C163 H176 0.931 . S
C164 C163 1.291 . S
C164 C165 1.373 . S
C164 H177 0.929 . S
C165 C164 1.373 . S
C165 C166 1.396 . S
C165 C172 1.403 . S
C166 C156 1.476 . S
C166 N161 1.318 . S
C166 C165 1.396 . S
H167 C162 0.929 . S
O168 Mn144 2.385 . S
O168 C146 1.234 . S
O169 Mn144 2.209 . S
O169 Mn145 2.215 . S
O169 C146 1.283 . S
O170 Mn144 2.094 . S
O170 C148 1.240 . S
O171 Mn145 2.117 . S
O171 C148 1.264 . S
C172 C165 1.403 . S
C172 C173 1.399 . S
C172 H178 0.929 . S
C173 C153 1.449 . S
C173 C172 1.399 . S
C173 H179 0.930 . S
H174 C154 0.931 . S
H175 C155 0.930 . S
H176 C163 0.931 . S
H177 C164 0.929 . S
H178 C172 0.929 . S
H179 C173 0.930 . S
Mn180 O185 2.095 . S
Mn180 O195 2.162 . S
Mn180 O196 2.297 . S
Mn180 O204 2.385 . S
Mn180 O205 2.209 . S
Mn180 O206 2.094 . S
Mn181 O186 2.121 . S
Mn181 N188 2.257 . S
Mn181 N197 2.282 . S
Mn181 O205 2.215 . S
Mn181 O207 2.117 . S
C182 O204 1.234 . S
C182 O205 1.283 . S
C183 O195 1.281 . S
C183 O196 1.236 . S
C184 O206 1.240 . S
C184 O207 1.264 . S
O185 Mn180 2.095 . S
O185 C194 1.250 . S
O186 Mn181 2.121 . S
O186 C194 1.258 . S
C187 N188 1.326 . S
C187 C191 1.460 . S
C187 H193 0.929 . S
N188 Mn181 2.257 . S
N188 C187 1.326 . S
N188 C192 1.362 . S
C189 C190 1.258 . S
C189 C192 1.431 . S
C189 C209 1.449 . S
C190 C189 1.258 . S
C190 C191 1.477 . S
C190 H210 0.931 . S
C191 C187 1.460 . S
C191 C190 1.477 . S
C191 H211 0.930 . S
C192 N188 1.362 . S
C192 C189 1.431 . S
C192 C202 1.476 . S
H193 C187 0.929 . S
C194 O185 1.250 . S
C194 O186 1.258 . S
O195 Mn180 2.162 . S
O195 C183 1.281 . S
O196 Mn180 2.297 . S
O196 C183 1.236 . S
N197 Mn181 2.282 . S
N197 C198 1.328 . S
N197 C202 1.318 . S
C198 N197 1.328 . S
C198 C199 1.457 . S
C198 H203 0.929 . S
C199 C198 1.457 . S
C199 C200 1.291 . S
C199 H212 0.931 . S
C200 C199 1.291 . S
C200 C201 1.373 . S
C200 H213 0.929 . S
C201 C200 1.373 . S
C201 C202 1.396 . S
C201 C208 1.403 . S
C202 C192 1.476 . S
C202 N197 1.318 . S
C202 C201 1.396 . S
H203 C198 0.929 . S
O204 Mn180 2.385 . S
O204 C182 1.234 . S
O205 Mn180 2.209 . S
O205 Mn181 2.215 . S
O205 C182 1.283 . S
O206 Mn180 2.094 . S
O206 C184 1.240 . S
O207 Mn181 2.117 . S
O207 C184 1.264 . S
C208 C201 1.403 . S
C208 C209 1.399 . S
C208 H214 0.929 . S
C209 C189 1.449 . S
C209 C208 1.399 . S
C209 H215 0.930 . S
H210 C190 0.931 . S
H211 C191 0.930 . S
H212 C199 0.931 . S
H213 C200 0.929 . S
H214 C208 0.929 . S
H215 C209 0.930 . S
Mn216 O221 2.095 . S
Mn216 O231 2.162 1_655 S
Mn216 O232 2.297 . S
Mn216 O240 2.385 . S
Mn216 O241 2.209 . S
Mn216 O242 2.094 . S
Mn217 O222 2.121 . S
Mn217 N224 2.257 . S
Mn217 N233 2.282 . S
Mn217 O241 2.215 . S
Mn217 O243 2.117 . S
C218 O240 1.234 . S
C218 O241 1.283 . S
C219 O231 1.281 . S
C219 O232 1.236 1_455 S
C220 O242 1.240 . S
C220 O243 1.264 . S
O221 Mn216 2.095 . S
O221 C230 1.250 . S
O222 Mn217 2.121 . S
O222 C230 1.258 . S
C223 N224 1.326 . S
C223 C227 1.460 . S
C223 H229 0.929 . S
N224 Mn217 2.257 . S
N224 C223 1.326 . S
N224 C228 1.362 . S
C225 C226 1.258 . S
C225 C228 1.431 . S
C225 C245 1.449 . S
C226 C225 1.258 . S
C226 C227 1.477 . S
C226 H246 0.931 . S
C227 C223 1.460 . S
C227 C226 1.477 . S
C227 H247 0.930 . S
C228 N224 1.362 . S
C228 C225 1.431 . S
C228 C238 1.476 . S
H229 C223 0.929 . S
C230 O221 1.250 . S
C230 O222 1.258 . S
O231 Mn216 2.162 1_455 S
O231 C219 1.281 . S
O232 Mn216 2.297 . S
O232 C219 1.236 1_655 S
N233 Mn217 2.282 . S
N233 C234 1.328 . S
N233 C238 1.318 . S
C234 N233 1.328 . S
C234 C235 1.457 . S
C234 H239 0.929 . S
C235 C234 1.457 . S
C235 C236 1.291 . S
C235 H248 0.931 . S
C236 C235 1.291 . S
C236 C237 1.373 . S
C236 H249 0.929 . S
C237 C236 1.373 . S
C237 C238 1.396 . S
C237 C244 1.403 . S
C238 C228 1.476 . S
C238 N233 1.318 . S
C238 C237 1.396 . S
H239 C234 0.929 . S
O240 Mn216 2.385 . S
O240 C218 1.234 . S
O241 Mn216 2.209 . S
O241 Mn217 2.215 . S
O241 C218 1.283 . S
O242 Mn216 2.094 . S
O242 C220 1.240 . S
O243 Mn217 2.117 . S
O243 C220 1.264 . S
C244 C237 1.403 . S
C244 C245 1.399 . S
C244 H250 0.929 . S
C245 C225 1.449 . S
C245 C244 1.399 . S
C245 H251 0.930 . S
H246 C226 0.931 . S
H247 C227 0.930 . S
H248 C235 0.931 . S
H249 C236 0.929 . S
H250 C244 0.929 . S
H251 C245 0.930 . S
Mn252 O257 2.095 . S
Mn252 O267 2.162 1_565 S
Mn252 O268 2.297 . S
Mn252 O276 2.385 . S
Mn252 O277 2.209 . S
Mn252 O278 2.094 . S
Mn253 O258 2.121 . S
Mn253 N260 2.257 . S
Mn253 N269 2.282 . S
Mn253 O277 2.215 . S
Mn253 O279 2.117 . S
C254 O276 1.234 . S
C254 O277 1.283 . S
C255 O267 1.281 . S
C255 O268 1.236 1_545 S
C256 O278 1.240 . S
C256 O279 1.264 . S
O257 Mn252 2.095 . S
O257 C266 1.250 . S
O258 Mn253 2.121 . S
O258 C266 1.258 . S
C259 N260 1.326 . S
C259 C263 1.460 . S
C259 H265 0.929 . S
N260 Mn253 2.257 . S
N260 C259 1.326 . S
N260 C264 1.362 . S
C261 C262 1.258 . S
C261 C264 1.431 . S
C261 C281 1.449 . S
C262 C261 1.258 . S
C262 C263 1.477 . S
C262 H282 0.931 . S
C263 C259 1.460 . S
C263 C262 1.477 . S
C263 H283 0.930 . S
C264 N260 1.362 . S
C264 C261 1.431 . S
C264 C274 1.476 . S
H265 C259 0.929 . S
C266 O257 1.250 . S
C266 O258 1.258 . S
O267 Mn252 2.162 1_545 S
O267 C255 1.281 . S
O268 Mn252 2.297 . S
O268 C255 1.236 1_565 S
N269 Mn253 2.282 . S
N269 C270 1.328 . S
N269 C274 1.318 . S
C270 N269 1.328 . S
C270 C271 1.457 . S
C270 H275 0.929 . S
C271 C270 1.457 . S
C271 C272 1.291 . S
C271 H284 0.931 . S
C272 C271 1.291 . S
C272 C273 1.373 . S
C272 H285 0.929 . S
C273 C272 1.373 . S
C273 C274 1.396 . S
C273 C280 1.403 . S
C274 C264 1.476 . S
C274 N269 1.318 . S
C274 C273 1.396 . S
H275 C270 0.929 . S
O276 Mn252 2.385 . S
O276 C254 1.234 . S
O277 Mn252 2.209 . S
O277 Mn253 2.215 . S
O277 C254 1.283 . S
O278 Mn252 2.094 . S
O278 C256 1.240 . S
O279 Mn253 2.117 . S
O279 C256 1.264 . S
C280 C273 1.403 . S
C280 C281 1.399 . S
C280 H286 0.929 . S
C281 C261 1.449 . S
C281 C280 1.399 . S
C281 H287 0.930 . S
H282 C262 0.931 . S
H283 C263 0.930 . S
H284 C271 0.931 . S
H285 C272 0.929 . S
H286 C280 0.929 . S
H287 C281 0.930 . S
Mn288 O293 2.095 . S
Mn288 O303 2.162 . S
Mn288 O304 2.297 . S
Mn288 O312 2.385 1_556 S
Mn288 O313 2.209 . S
Mn288 O314 2.095 1_556 S
Mn289 O294 2.121 . S
Mn289 N296 2.257 . S
Mn289 N305 2.282 . S
Mn289 O313 2.215 . S
Mn289 O315 2.117 . S
C290 O312 1.234 1_556 S
C290 O313 1.283 . S
C291 O303 1.281 . S
C291 O304 1.236 . S
C292 O314 1.241 1_556 S
C292 O315 1.264 . S
O293 Mn288 2.095 . S
O293 C302 1.250 . S
O294 Mn289 2.121 . S
O294 C302 1.258 . S
C295 N296 1.326 . S
C295 C299 1.460 . S
C295 H301 0.929 . S
N296 Mn289 2.257 . S
N296 C295 1.326 . S
N296 C300 1.362 . S
C297 C298 1.258 . S
C297 C300 1.431 . S
C297 C317 1.449 . S
C298 C297 1.258 . S
C298 C299 1.477 . S
C298 H318 0.931 . S
C299 C295 1.460 . S
C299 C298 1.477 . S
C299 H319 0.930 . S
C300 N296 1.362 . S
C300 C297 1.431 . S
C300 C310 1.476 . S
H301 C295 0.929 . S
C302 O293 1.250 . S
C302 O294 1.258 . S
O303 Mn288 2.162 . S
O303 C291 1.281 . S
O304 Mn288 2.297 . S
O304 C291 1.236 . S
N305 Mn289 2.282 . S
N305 C306 1.328 1_556 S
N305 C310 1.318 . S
C306 N305 1.328 1_554 S
C306 C307 1.457 . S
C306 H311 0.929 . S
C307 C306 1.457 . S
C307 C308 1.291 . S
C307 H320 0.931 . S
C308 C307 1.291 . S
C308 C309 1.373 1_554 S
C308 H321 0.929 . S
C309 C308 1.373 1_556 S
C309 C310 1.396 . S
C309 C316 1.403 . S
C310 C300 1.476 . S
C310 N305 1.318 . S
C310 C309 1.396 . S
H311 C306 0.929 . S
O312 Mn288 2.385 1_554 S
O312 C290 1.234 1_554 S
O313 Mn288 2.209 . S
O313 Mn289 2.215 . S
O313 C290 1.283 . S
O314 Mn288 2.095 1_554 S
O314 C292 1.241 1_554 S
O315 Mn289 2.117 . S
O315 C292 1.264 . S
C316 C309 1.403 . S
C316 C317 1.399 . S
C316 H322 0.929 . S
C317 C297 1.449 . S
C317 C316 1.399 . S
C317 H323 0.930 . S
H318 C298 0.931 . S
H319 C299 0.930 . S
H320 C307 0.931 . S
H321 C308 0.929 . S
H322 C316 0.929 . S
H323 C317 0.930 . S
Mn324 O329 2.095 . S
Mn324 O339 2.162 . S
Mn324 O340 2.297 . S
Mn324 O348 2.385 1_556 S
Mn324 O349 2.209 . S
Mn324 O350 2.095 1_556 S
Mn325 O330 2.121 . S
Mn325 N332 2.257 . S
Mn325 N341 2.282 . S
Mn325 O349 2.215 . S
Mn325 O351 2.117 . S
C326 O348 1.234 1_556 S
C326 O349 1.283 . S
C327 O339 1.281 . S
C327 O340 1.236 . S
C328 O350 1.241 1_556 S
C328 O351 1.264 . S
O329 Mn324 2.095 . S
O329 C338 1.250 . S
O330 Mn325 2.121 . S
O330 C338 1.258 . S
C331 N332 1.326 . S
C331 C335 1.460 . S
C331 H337 0.929 . S
N332 Mn325 2.257 . S
N332 C331 1.326 . S
N332 C336 1.362 . S
C333 C334 1.258 . S
C333 C336 1.431 . S
C333 C353 1.449 . S
C334 C333 1.258 . S
C334 C335 1.477 . S
C334 H354 0.931 . S
C335 C331 1.460 . S
C335 C334 1.477 . S
C335 H355 0.930 . S
C336 N332 1.362 . S
C336 C333 1.431 . S
C336 C346 1.476 . S
H337 C331 0.929 . S
C338 O329 1.250 . S
C338 O330 1.258 . S
O339 Mn324 2.162 . S
O339 C327 1.281 . S
O340 Mn324 2.297 . S
O340 C327 1.236 . S
N341 Mn325 2.282 . S
N341 C342 1.328 1_556 S
N341 C346 1.318 . S
C342 N341 1.328 1_554 S
C342 C343 1.457 . S
C342 H347 0.929 . S
C343 C342 1.457 . S
C343 C344 1.291 . S
C343 H356 0.931 . S
C344 C343 1.291 . S
C344 C345 1.373 1_554 S
C344 H357 0.929 . S
C345 C344 1.373 1_556 S
C345 C346 1.396 . S
C345 C352 1.403 . S
C346 C336 1.476 . S
C346 N341 1.318 . S
C346 C345 1.396 . S
H347 C342 0.929 . S
O348 Mn324 2.385 1_554 S
O348 C326 1.234 1_554 S
O349 Mn324 2.209 . S
O349 Mn325 2.215 . S
O349 C326 1.283 . S
O350 Mn324 2.095 1_554 S
O350 C328 1.241 1_554 S
O351 Mn325 2.117 . S
O351 C328 1.264 . S
C352 C345 1.403 . S
C352 C353 1.399 . S
C352 H358 0.929 . S
C353 C333 1.449 . S
C353 C352 1.399 . S
C353 H359 0.930 . S
H354 C334 0.931 . S
H355 C335 0.930 . S
H356 C343 0.931 . S
H357 C344 0.929 . S
H358 C352 0.929 . S
H359 C353 0.930 . S
Mn360 O365 2.095 . S
Mn360 O375 2.162 1_455 S
Mn360 O376 2.297 . S
Mn360 O384 2.385 1_556 S
Mn360 O385 2.209 . S
Mn360 O386 2.095 1_556 S
Mn361 O366 2.121 . S
Mn361 N368 2.257 . S
Mn361 N377 2.282 . S
Mn361 O385 2.215 . S
Mn361 O387 2.117 . S
C362 O384 1.234 1_556 S
C362 O385 1.283 . S
C363 O375 1.281 . S
C363 O376 1.236 1_655 S
C364 O386 1.241 1_556 S
C364 O387 1.264 . S
O365 Mn360 2.095 . S
O365 C374 1.250 . S
O366 Mn361 2.121 . S
O366 C374 1.258 . S
C367 N368 1.326 . S
C367 C371 1.460 . S
C367 H373 0.929 . S
N368 Mn361 2.257 . S
N368 C367 1.326 . S
N368 C372 1.362 . S
C369 C370 1.258 . S
C369 C372 1.431 . S
C369 C389 1.449 . S
C370 C369 1.258 . S
C370 C371 1.477 . S
C370 H390 0.931 . S
C371 C367 1.460 . S
C371 C370 1.477 . S
C371 H391 0.930 . S
C372 N368 1.362 . S
C372 C369 1.431 . S
C372 C382 1.476 . S
H373 C367 0.929 . S
C374 O365 1.250 . S
C374 O366 1.258 . S
O375 Mn360 2.162 1_655 S
O375 C363 1.281 . S
O376 Mn360 2.297 . S
O376 C363 1.236 1_455 S
N377 Mn361 2.282 . S
N377 C378 1.328 1_556 S
N377 C382 1.318 . S
C378 N377 1.328 1_554 S
C378 C379 1.457 . S
C378 H383 0.929 . S
C379 C378 1.457 . S
C379 C380 1.291 . S
C379 H392 0.931 . S
C380 C379 1.291 . S
C380 C381 1.373 1_554 S
C380 H393 0.929 . S
C381 C380 1.373 1_556 S
C381 C382 1.396 . S
C381 C388 1.403 . S
C382 C372 1.476 . S
C382 N377 1.318 . S
C382 C381 1.396 . S
H383 C378 0.929 . S
O384 Mn360 2.385 1_554 S
O384 C362 1.234 1_554 S
O385 Mn360 2.209 . S
O385 Mn361 2.215 . S
O385 C362 1.283 . S
O386 Mn360 2.095 1_554 S
O386 C364 1.241 1_554 S
O387 Mn361 2.117 . S
O387 C364 1.264 . S
C388 C381 1.403 . S
C388 C389 1.399 . S
C388 H394 0.929 . S
C389 C369 1.449 . S
C389 C388 1.399 . S
C389 H395 0.930 . S
H390 C370 0.931 . S
H391 C371 0.930 . S
H392 C379 0.931 . S
H393 C380 0.929 . S
H394 C388 0.929 . S
H395 C389 0.930 . S
Mn396 O401 2.095 . S
Mn396 O411 2.162 1_545 S
Mn396 O412 2.297 . S
Mn396 O420 2.385 1_556 S
Mn396 O421 2.209 . S
Mn396 O422 2.095 1_556 S
Mn397 O402 2.121 . S
Mn397 N404 2.257 . S
Mn397 N413 2.282 . S
Mn397 O421 2.215 . S
Mn397 O423 2.117 . S
C398 O420 1.234 1_556 S
C398 O421 1.283 . S
C399 O411 1.281 . S
C399 O412 1.236 1_565 S
C400 O422 1.241 1_556 S
C400 O423 1.264 . S
O401 Mn396 2.095 . S
O401 C410 1.250 . S
O402 Mn397 2.121 . S
O402 C410 1.258 . S
C403 N404 1.326 . S
C403 C407 1.460 . S
C403 H409 0.929 . S
N404 Mn397 2.257 . S
N404 C403 1.326 . S
N404 C408 1.362 . S
C405 C406 1.258 . S
C405 C408 1.431 . S
C405 C425 1.449 . S
C406 C405 1.258 . S
C406 C407 1.477 . S
C406 H426 0.931 . S
C407 C403 1.460 . S
C407 C406 1.477 . S
C407 H427 0.930 . S
C408 N404 1.362 . S
C408 C405 1.431 . S
C408 C418 1.476 . S
H409 C403 0.929 . S
C410 O401 1.250 . S
C410 O402 1.258 . S
O411 Mn396 2.162 1_565 S
O411 C399 1.281 . S
O412 Mn396 2.297 . S
O412 C399 1.236 1_545 S
N413 Mn397 2.282 . S
N413 C414 1.328 1_556 S
N413 C418 1.318 . S
C414 N413 1.328 1_554 S
C414 C415 1.457 . S
C414 H419 0.929 . S
C415 C414 1.457 . S
C415 C416 1.291 . S
C415 H428 0.931 . S
C416 C415 1.291 . S
C416 C417 1.373 1_554 S
C416 H429 0.929 . S
C417 C416 1.373 1_556 S
C417 C418 1.396 . S
C417 C424 1.403 . S
C418 C408 1.476 . S
C418 N413 1.318 . S
C418 C417 1.396 . S
H419 C414 0.929 . S
O420 Mn396 2.385 1_554 S
O420 C398 1.234 1_554 S
O421 Mn396 2.209 . S
O421 Mn397 2.215 . S
O421 C398 1.283 . S
O422 Mn396 2.095 1_554 S
O422 C400 1.241 1_554 S
O423 Mn397 2.117 . S
O423 C400 1.264 . S
C424 C417 1.403 . S
C424 C425 1.399 . S
C424 H430 0.929 . S
C425 C405 1.449 . S
C425 C424 1.399 . S
C425 H431 0.930 . S
H426 C406 0.931 . S
H427 C407 0.930 . S
H428 C415 0.931 . S
H429 C416 0.929 . S
H430 C424 0.929 . S
H431 C425 0.930 . S
Mn432 O437 2.095 . S
Mn432 O447 2.162 . S
Mn432 O448 2.297 . S
Mn432 O456 2.385 . S
Mn432 O457 2.209 . S
Mn432 O458 2.094 . S
Mn433 O438 2.121 . S
Mn433 N440 2.257 . S
Mn433 N449 2.282 . S
Mn433 O457 2.215 . S
Mn433 O459 2.117 . S
C434 O456 1.234 . S
C434 O457 1.283 . S
C435 O447 1.281 . S
C435 O448 1.236 . S
C436 O458 1.240 . S
C436 O459 1.264 . S
O437 Mn432 2.095 . S
O437 C446 1.250 . S
O438 Mn433 2.121 . S
O438 C446 1.258 . S
C439 N440 1.326 . S
C439 C443 1.460 . S
C439 H445 0.929 . S
N440 Mn433 2.257 . S
N440 C439 1.326 . S
N440 C444 1.362 . S
C441 C442 1.258 . S
C441 C444 1.431 . S
C441 C461 1.449 . S
C442 C441 1.258 . S
C442 C443 1.477 . S
C442 H462 0.931 . S
C443 C439 1.460 . S
C443 C442 1.477 . S
C443 H463 0.930 . S
C444 N440 1.362 . S
C444 C441 1.431 . S
C444 C454 1.476 . S
H445 C439 0.929 . S
C446 O437 1.250 . S
C446 O438 1.258 . S
O447 Mn432 2.162 . S
O447 C435 1.281 . S
O448 Mn432 2.297 . S
O448 C435 1.236 . S
N449 Mn433 2.282 . S
N449 C450 1.328 . S
N449 C454 1.318 . S
C450 N449 1.328 . S
C450 C451 1.457 . S
C450 H455 0.929 . S
C451 C450 1.457 . S
C451 C452 1.291 . S
C451 H464 0.931 . S
C452 C451 1.291 . S
C452 C453 1.373 . S
C452 H465 0.929 . S
C453 C452 1.373 . S
C453 C454 1.396 . S
C453 C460 1.403 . S
C454 C444 1.476 . S
C454 N449 1.318 . S
C454 C453 1.396 . S
H455 C450 0.929 . S
O456 Mn432 2.385 . S
O456 C434 1.234 . S
O457 Mn432 2.209 . S
O457 Mn433 2.215 . S
O457 C434 1.283 . S
O458 Mn432 2.094 . S
O458 C436 1.240 . S
O459 Mn433 2.117 . S
O459 C436 1.264 . S
C460 C453 1.403 . S
C460 C461 1.399 . S
C460 H466 0.929 . S
C461 C441 1.449 . S
C461 C460 1.399 . S
C461 H467 0.930 . S
H462 C442 0.931 . S
H463 C443 0.930 . S
H464 C451 0.931 . S
H465 C452 0.929 . S
H466 C460 0.929 . S
H467 C461 0.930 . S
Mn468 O473 2.095 . S
Mn468 O483 2.162 . S
Mn468 O484 2.297 . S
Mn468 O492 2.385 . S
Mn468 O493 2.209 . S
Mn468 O494 2.094 . S
Mn469 O474 2.121 . S
Mn469 N476 2.257 . S
Mn469 N485 2.282 . S
Mn469 O493 2.215 . S
Mn469 O495 2.117 . S
C470 O492 1.234 . S
C470 O493 1.283 . S
C471 O483 1.281 . S
C471 O484 1.236 . S
C472 O494 1.240 . S
C472 O495 1.264 . S
O473 Mn468 2.095 . S
O473 C482 1.250 . S
O474 Mn469 2.121 . S
O474 C482 1.258 . S
C475 N476 1.326 . S
C475 C479 1.460 . S
C475 H481 0.929 . S
N476 Mn469 2.257 . S
N476 C475 1.326 . S
N476 C480 1.362 . S
C477 C478 1.258 . S
C477 C480 1.431 . S
C477 C497 1.449 . S
C478 C477 1.258 . S
C478 C479 1.477 . S
C478 H498 0.931 . S
C479 C475 1.460 . S
C479 C478 1.477 . S
C479 H499 0.930 . S
C480 N476 1.362 . S
C480 C477 1.431 . S
C480 C490 1.476 . S
H481 C475 0.929 . S
C482 O473 1.250 . S
C482 O474 1.258 . S
O483 Mn468 2.162 . S
O483 C471 1.281 . S
O484 Mn468 2.297 . S
O484 C471 1.236 . S
N485 Mn469 2.282 . S
N485 C486 1.328 . S
N485 C490 1.318 . S
C486 N485 1.328 . S
C486 C487 1.457 . S
C486 H491 0.929 . S
C487 C486 1.457 . S
C487 C488 1.291 . S
C487 H500 0.931 . S
C488 C487 1.291 . S
C488 C489 1.373 . S
C488 H501 0.929 . S
C489 C488 1.373 . S
C489 C490 1.396 . S
C489 C496 1.403 . S
C490 C480 1.476 . S
C490 N485 1.318 . S
C490 C489 1.396 . S
H491 C486 0.929 . S
O492 Mn468 2.385 . S
O492 C470 1.234 . S
O493 Mn468 2.209 . S
O493 Mn469 2.215 . S
O493 C470 1.283 . S
O494 Mn468 2.094 . S
O494 C472 1.240 . S
O495 Mn469 2.117 . S
O495 C472 1.264 . S
C496 C489 1.403 . S
C496 C497 1.399 . S
C496 H502 0.929 . S
C497 C477 1.449 . S
C497 C496 1.399 . S
C497 H503 0.930 . S
H498 C478 0.931 . S
H499 C479 0.930 . S
H500 C487 0.931 . S
H501 C488 0.929 . S
H502 C496 0.929 . S
H503 C497 0.930 . S
Mn504 O509 2.095 . S
Mn504 O519 2.162 1_455 S
Mn504 O520 2.297 . S
Mn504 O528 2.385 . S
Mn504 O529 2.209 . S
Mn504 O530 2.094 . S
Mn505 O510 2.121 . S
Mn505 N512 2.257 . S
Mn505 N521 2.282 . S
Mn505 O529 2.215 . S
Mn505 O531 2.117 . S
C506 O528 1.234 . S
C506 O529 1.283 . S
C507 O519 1.281 . S
C507 O520 1.236 1_655 S
C508 O530 1.240 . S
C508 O531 1.264 . S
O509 Mn504 2.095 . S
O509 C518 1.250 . S
O510 Mn505 2.121 . S
O510 C518 1.258 . S
C511 N512 1.326 . S
C511 C515 1.460 . S
C511 H517 0.929 . S
N512 Mn505 2.257 . S
N512 C511 1.326 . S
N512 C516 1.362 . S
C513 C514 1.258 . S
C513 C516 1.431 . S
C513 C533 1.449 . S
C514 C513 1.258 . S
C514 C515 1.477 . S
C514 H534 0.931 . S
C515 C511 1.460 . S
C515 C514 1.477 . S
C515 H535 0.930 . S
C516 N512 1.362 . S
C516 C513 1.431 . S
C516 C526 1.476 . S
H517 C511 0.929 . S
C518 O509 1.250 . S
C518 O510 1.258 . S
O519 Mn504 2.162 1_655 S
O519 C507 1.281 . S
O520 Mn504 2.297 . S
O520 C507 1.236 1_455 S
N521 Mn505 2.282 . S
N521 C522 1.328 . S
N521 C526 1.318 . S
C522 N521 1.328 . S
C522 C523 1.457 . S
C522 H527 0.929 . S
C523 C522 1.457 . S
C523 C524 1.291 . S
C523 H536 0.931 . S
C524 C523 1.291 . S
C524 C525 1.373 . S
C524 H537 0.929 . S
C525 C524 1.373 . S
C525 C526 1.396 . S
C525 C532 1.403 . S
C526 C516 1.476 . S
C526 N521 1.318 . S
C526 C525 1.396 . S
H527 C522 0.929 . S
O528 Mn504 2.385 . S
O528 C506 1.234 . S
O529 Mn504 2.209 . S
O529 Mn505 2.215 . S
O529 C506 1.283 . S
O530 Mn504 2.094 . S
O530 C508 1.240 . S
O531 Mn505 2.117 . S
O531 C508 1.264 . S
C532 C525 1.403 . S
C532 C533 1.399 . S
C532 H538 0.929 . S
C533 C513 1.449 . S
C533 C532 1.399 . S
C533 H539 0.930 . S
H534 C514 0.931 . S
H535 C515 0.930 . S
H536 C523 0.931 . S
H537 C524 0.929 . S
H538 C532 0.929 . S
H539 C533 0.930 . S
Mn540 O545 2.095 . S
Mn540 O555 2.162 1_545 S
Mn540 O556 2.297 . S
Mn540 O564 2.385 . S
Mn540 O565 2.209 . S
Mn540 O566 2.094 . S
Mn541 O546 2.121 . S
Mn541 N548 2.257 . S
Mn541 N557 2.282 . S
Mn541 O565 2.215 . S
Mn541 O567 2.117 . S
C542 O564 1.234 . S
C542 O565 1.283 . S
C543 O555 1.281 . S
C543 O556 1.236 1_565 S
C544 O566 1.240 . S
C544 O567 1.264 . S
O545 Mn540 2.095 . S
O545 C554 1.250 . S
O546 Mn541 2.121 . S
O546 C554 1.258 . S
C547 N548 1.326 . S
C547 C551 1.460 . S
C547 H553 0.929 . S
N548 Mn541 2.257 . S
N548 C547 1.326 . S
N548 C552 1.362 . S
C549 C550 1.258 . S
C549 C552 1.431 . S
C549 C569 1.449 . S
C550 C549 1.258 . S
C550 C551 1.477 . S
C550 H570 0.931 . S
C551 C547 1.460 . S
C551 C550 1.477 . S
C551 H571 0.930 . S
C552 N548 1.362 . S
C552 C549 1.431 . S
C552 C562 1.476 . S
H553 C547 0.929 . S
C554 O545 1.250 . S
C554 O546 1.258 . S
O555 Mn540 2.162 1_565 S
O555 C543 1.281 . S
O556 Mn540 2.297 . S
O556 C543 1.236 1_545 S
N557 Mn541 2.282 . S
N557 C558 1.328 . S
N557 C562 1.318 . S
C558 N557 1.328 . S
C558 C559 1.457 . S
C558 H563 0.929 . S
C559 C558 1.457 . S
C559 C560 1.291 . S
C559 H572 0.931 . S
C560 C559 1.291 . S
C560 C561 1.373 . S
C560 H573 0.929 . S
C561 C560 1.373 . S
C561 C562 1.396 . S
C561 C568 1.403 . S
C562 C552 1.476 . S
C562 N557 1.318 . S
C562 C561 1.396 . S
H563 C558 0.929 . S
O564 Mn540 2.385 . S
O564 C542 1.234 . S
O565 Mn540 2.209 . S
O565 Mn541 2.215 . S
O565 C542 1.283 . S
O566 Mn540 2.094 . S
O566 C544 1.240 . S
O567 Mn541 2.117 . S
O567 C544 1.264 . S
C568 C561 1.403 . S
C568 C569 1.399 . S
C568 H574 0.929 . S
C569 C549 1.449 . S
C569 C568 1.399 . S
C569 H575 0.930 . S
H570 C550 0.931 . S
H571 C551 0.930 . S
H572 C559 0.931 . S
H573 C560 0.929 . S
H574 C568 0.929 . S
H575 C569 0.930 . S
C576 C577 1.387 1_554 S
C576 H580 0.950 . S
C576 C585 1.390 . S
C577 C576 1.387 1_556 S
C577 C579 1.387 . S
H578 C585 0.950 . S
C579 C577 1.387 . S
C579 C581 1.390 . S
C579 H583 0.950 . S
H580 C576 0.950 . S
C581 C579 1.390 . S
C581 C582 1.387 . S
C581 H584 0.950 . S
C582 C581 1.387 . S
C582 C585 1.387 1_556 S
H583 C579 0.950 . S
H584 C581 0.950 . S
C585 C576 1.390 . S
C585 H578 0.950 . S
C585 C582 1.387 1_554 S
C586 C587 1.387 . S
C586 H590 0.950 . S
C586 C595 1.390 . S
C587 C586 1.387 . S
C587 C589 1.387 1_556 S
H588 C595 0.950 . S
C589 C587 1.387 1_554 S
C589 C591 1.390 . S
C589 H593 0.950 . S
H590 C586 0.950 . S
C591 C589 1.390 . S
C591 C592 1.387 1_554 S
C591 H594 0.950 . S
C592 C591 1.387 1_556 S
C592 C595 1.387 . S
H593 C589 0.950 . S
H594 C591 0.950 . S
C595 C586 1.390 . S
C595 H588 0.950 . S
C595 C592 1.387 . S
C596 C597 1.387 1_554 S
C596 H600 0.950 . S
C596 C605 1.390 . S
C597 C596 1.387 1_556 S
C597 C599 1.387 . S
H598 C605 0.950 . S
C599 C597 1.387 . S
C599 C601 1.390 . S
C599 H603 0.950 . S
H600 C596 0.950 . S
C601 C599 1.390 . S
C601 C602 1.387 . S
C601 H604 0.950 . S
C602 C601 1.387 . S
C602 C605 1.387 1_556 S
H603 C599 0.950 . S
H604 C601 0.950 . S
C605 C596 1.390 . S
C605 H598 0.950 . S
C605 C602 1.387 1_554 S
C606 C607 1.387 1_554 S
C606 H610 0.950 . S
C606 C615 1.390 . S
C607 C606 1.387 1_556 S
C607 C609 1.387 . S
H608 C615 0.950 . S
C609 C607 1.387 . S
C609 C611 1.390 . S
C609 H613 0.950 . S
H610 C606 0.950 . S
C611 C609 1.390 . S
C611 C612 1.387 . S
C611 H614 0.950 . S
C612 C611 1.387 . S
C612 C615 1.387 1_556 S
H613 C609 0.950 . S
H614 C611 0.950 . S
C615 C606 1.390 . S
C615 H608 0.950 . S
C615 C612 1.387 1_554 S
C616 C617 1.387 . S
C616 H620 0.950 . S
C616 C625 1.390 . S
C617 C616 1.387 . S
C617 C619 1.387 . S
H618 C625 0.950 . S
C619 C617 1.387 . S
C619 C621 1.390 . S
C619 H623 0.950 . S
H620 C616 0.950 . S
C621 C619 1.390 . S
C621 C622 1.387 . S
C621 H624 0.950 . S
C622 C621 1.387 . S
C622 C625 1.387 . S
H623 C619 0.950 . S
H624 C621 0.950 . S
C625 C616 1.390 . S
C625 H618 0.950 . S
C625 C622 1.387 . S
C626 C627 1.387 . S
C626 H630 0.950 . S
C626 C635 1.390 . S
C627 C626 1.387 . S
C627 C629 1.387 . S
H628 C635 0.950 . S
C629 C627 1.387 . S
C629 C631 1.390 . S
C629 H633 0.950 . S
H630 C626 0.950 . S
C631 C629 1.390 . S
C631 C632 1.387 . S
C631 H634 0.950 . S
C632 C631 1.387 . S
C632 C635 1.387 . S
H633 C629 0.950 . S
H634 C631 0.950 . S
C635 C626 1.390 . S
C635 H628 0.950 . S
C635 C632 1.387 . S
C636 C637 1.387 . S
C636 H640 0.950 . S
C636 C645 1.390 . S
C637 C636 1.387 . S
C637 C639 1.387 . S
H638 C645 0.950 . S
C639 C637 1.387 . S
C639 C641 1.390 . S
C639 H643 0.950 . S
H640 C636 0.950 . S
C641 C639 1.390 . S
C641 C642 1.387 . S
C641 H644 0.950 . S
C642 C641 1.387 . S
C642 C645 1.387 . S
H643 C639 0.950 . S
H644 C641 0.950 . S
C645 C636 1.390 . S
C645 H638 0.950 . S
C645 C642 1.387 . S
C646 C647 1.387 . S
C646 H650 0.950 . S
C646 C655 1.390 . S
C647 C646 1.387 . S
C647 C649 1.387 . S
H648 C655 0.950 . S
C649 C647 1.387 . S
C649 C651 1.390 . S
C649 H653 0.950 . S
H650 C646 0.950 . S
C651 C649 1.390 . S
C651 C652 1.387 . S
C651 H654 0.950 . S
C652 C651 1.387 . S
C652 C655 1.387 . S
H653 C649 0.950 . S
H654 C651 0.950 . S
C655 C646 1.390 . S
C655 H648 0.950 . S
C655 C652 1.387 . S
C656 C657 1.387 . S
C656 H660 0.950 . S
C656 C665 1.390 . S
C657 C656 1.387 . S
C657 C659 1.387 1_554 S
H658 C665 0.950 . S
C659 C657 1.387 1_556 S
C659 C661 1.390 . S
C659 H663 0.950 . S
H660 C656 0.950 . S
C661 C659 1.390 . S
C661 C662 1.387 1_556 S
C661 H664 0.950 . S
C662 C661 1.387 1_554 S
C662 C665 1.387 . S
H663 C659 0.950 . S
H664 C661 0.950 . S
C665 C656 1.390 . S
C665 H658 0.950 . S
C665 C662 1.387 . S
C666 C667 1.387 1_556 S
C666 H670 0.950 . S
C666 C675 1.390 . S
C667 C666 1.387 1_554 S
C667 C669 1.387 . S
H668 C675 0.950 . S
C669 C667 1.387 . S
C669 C671 1.390 . S
C669 H673 0.950 . S
H670 C666 0.950 . S
C671 C669 1.390 . S
C671 C672 1.387 . S
C671 H674 0.950 . S
C672 C671 1.387 . S
C672 C675 1.387 1_554 S
H673 C669 0.950 . S
H674 C671 0.950 . S
C675 C666 1.390 . S
C675 H668 0.950 . S
C675 C672 1.387 1_556 S
C676 C677 1.387 . S
C676 H680 0.950 . S
C676 C685 1.390 . S
C677 C676 1.387 . S
C677 C679 1.387 1_554 S
H678 C685 0.950 . S
C679 C677 1.387 1_556 S
C679 C681 1.390 . S
C679 H683 0.950 . S
H680 C676 0.950 . S
C681 C679 1.390 . S
C681 C682 1.387 1_556 S
C681 H684 0.950 . S
C682 C681 1.387 1_554 S
C682 C685 1.387 . S
H683 C679 0.950 . S
H684 C681 0.950 . S
C685 C676 1.390 . S
C685 H678 0.950 . S
C685 C682 1.387 . S
C686 C687 1.387 . S
C686 H690 0.950 . S
C686 C695 1.390 . S
C687 C686 1.387 . S
C687 C689 1.387 1_554 S
H688 C695 0.950 . S
C689 C687 1.387 1_556 S
C689 C691 1.390 . S
C689 H693 0.950 . S
H690 C686 0.950 . S
C691 C689 1.390 . S
C691 C692 1.387 1_556 S
C691 H694 0.950 . S
C692 C691 1.387 1_554 S
C692 C695 1.387 . S
H693 C689 0.950 . S
H694 C691 0.950 . S
C695 C686 1.390 . S
C695 H688 0.950 . S
C695 C692 1.387 . S
C696 C697 1.387 . S
C696 H700 0.950 . S
C696 C705 1.390 . S
C697 C696 1.387 . S
C697 C699 1.387 . S
H698 C705 0.950 . S
C699 C697 1.387 . S
C699 C701 1.390 . S
C699 H703 0.950 . S
H700 C696 0.950 . S
C701 C699 1.390 . S
C701 C702 1.387 . S
C701 H704 0.950 . S
C702 C701 1.387 . S
C702 C705 1.387 . S
H703 C699 0.950 . S
H704 C701 0.950 . S
C705 C696 1.390 . S
C705 H698 0.950 . S
C705 C702 1.387 . S
C706 C707 1.387 . S
C706 H710 0.950 . S
C706 C715 1.390 . S
C707 C706 1.387 . S
C707 C709 1.387 . S
H708 C715 0.950 . S
C709 C707 1.387 . S
C709 C711 1.390 . S
C709 H713 0.950 . S
H710 C706 0.950 . S
C711 C709 1.390 . S
C711 C712 1.387 . S
C711 H714 0.950 . S
C712 C711 1.387 . S
C712 C715 1.387 . S
H713 C709 0.950 . S
H714 C711 0.950 . S
C715 C706 1.390 . S
C715 H708 0.950 . S
C715 C712 1.387 . S
C716 C717 1.387 . S
C716 H720 0.950 . S
C716 C725 1.390 . S
C717 C716 1.387 . S
C717 C719 1.387 . S
H718 C725 0.950 . S
C719 C717 1.387 . S
C719 C721 1.390 . S
C719 H723 0.950 . S
H720 C716 0.950 . S
C721 C719 1.390 . S
C721 C722 1.387 . S
C721 H724 0.950 . S
C722 C721 1.387 . S
C722 C725 1.387 . S
H723 C719 0.950 . S
H724 C721 0.950 . S
C725 C716 1.390 . S
C725 H718 0.950 . S
C725 C722 1.387 . S
C726 C727 1.387 . S
C726 H730 0.950 . S
C726 C735 1.390 . S
C727 C726 1.387 . S
C727 C729 1.387 . S
H728 C735 0.950 . S
C729 C727 1.387 . S
C729 C731 1.390 . S
C729 H733 0.950 . S
H730 C726 0.950 . S
C731 C729 1.390 . S
C731 C732 1.387 . S
C731 H734 0.950 . S
C732 C731 1.387 . S
C732 C735 1.387 . S
H733 C729 0.950 . S
H734 C731 0.950 . S
C735 C726 1.390 . S
C735 H728 0.950 . S
C735 C732 1.387 . S
C736 C737 1.387 1_554 S
C736 H740 0.950 . S
C736 C745 1.390 1_565 S
C737 C736 1.387 1_556 S
C737 C739 1.387 . S
H738 C745 0.950 . S
C739 C737 1.387 . S
C739 C741 1.390 1_565 S
C739 H743 0.950 . S
H740 C736 0.950 . S
C741 C739 1.390 1_545 S
C741 C742 1.387 1_556 S
C741 H744 0.950 . S
C742 C741 1.387 1_554 S
C742 C745 1.387 . S
H743 C739 0.950 . S
H744 C741 0.950 . S
C745 C736 1.390 1_545 S
C745 H738 0.950 . S
C745 C742 1.387 . S
C746 C747 1.387 . S
C746 H750 0.950 . S
C746 C755 1.390 . S
C747 C746 1.387 . S
C747 C749 1.387 1_554 S
H748 C755 0.950 . S
C749 C747 1.387 1_556 S
C749 C751 1.390 . S
C749 H753 0.950 . S
H750 C746 0.950 . S
C751 C749 1.390 . S
C751 C752 1.387 . S
C751 H754 0.950 . S
C752 C751 1.387 . S
C752 C755 1.387 1_556 S
H753 C749 0.950 . S
H754 C751 0.950 . S
C755 C746 1.390 . S
C755 H748 0.950 . S
C755 C752 1.387 1_554 S
C756 C757 1.387 . S
C756 H760 0.950 . S
C756 C765 1.390 . S
C757 C756 1.387 . S
C757 C759 1.387 1_656 S
H758 C765 0.950 . S
C759 C757 1.387 1_454 S
C759 C761 1.390 . S
C759 H763 0.950 . S
H760 C756 0.950 . S
C761 C759 1.390 . S
C761 C762 1.387 . S
C761 H764 0.950 . S
C762 C761 1.387 . S
C762 C765 1.387 1_454 S
H763 C759 0.950 . S
H764 C761 0.950 . S
C765 C756 1.390 . S
C765 H758 0.950 . S
C765 C762 1.387 1_656 S
C766 C767 1.387 1_556 S
C766 H770 0.950 . S
C766 C775 1.390 1_455 S
C767 C766 1.387 1_554 S
C767 C769 1.387 1_545 S
H768 C775 0.950 . S
C769 C767 1.387 1_565 S
C769 C771 1.390 1_455 S
C769 H773 0.950 . S
H770 C766 0.950 . S
C771 C769 1.390 1_655 S
C771 C772 1.387 1_554 S
C771 H774 0.950 . S
C772 C771 1.387 1_556 S
C772 C775 1.387 1_565 S
H773 C769 0.950 . S
H774 C771 0.950 . S
C775 C766 1.390 1_655 S
C775 H768 0.950 . S
C775 C772 1.387 1_545 S
C776 C777 1.387 . S
C776 H780 0.950 . S
C776 C785 1.390 . S
C777 C776 1.387 . S
C777 C779 1.387 . S
H778 C785 0.950 . S
C779 C777 1.387 . S
C779 C781 1.390 . S
C779 H783 0.950 . S
H780 C776 0.950 . S
C781 C779 1.390 . S
C781 C782 1.387 . S
C781 H784 0.950 . S
C782 C781 1.387 . S
C782 C785 1.387 . S
H783 C779 0.950 . S
H784 C781 0.950 . S
C785 C776 1.390 . S
C785 H778 0.950 . S
C785 C782 1.387 . S
C786 C787 1.387 . S
C786 H790 0.950 . S
C786 C795 1.390 1_455 S
C787 C786 1.387 . S
C787 C789 1.387 . S
H788 C795 0.950 . S
C789 C787 1.387 . S
C789 C791 1.390 1_455 S
C789 H793 0.950 . S
H790 C786 0.950 . S
C791 C789 1.390 1_655 S
C791 C792 1.387 . S
C791 H794 0.950 . S
C792 C791 1.387 . S
C792 C795 1.387 . S
H793 C789 0.950 . S
H794 C791 0.950 . S
C795 C786 1.390 1_655 S
C795 H788 0.950 . S
C795 C792 1.387 . S
C796 C797 1.387 . S
C796 H800 0.950 . S
C796 C805 1.390 1_565 S
C797 C796 1.387 . S
C797 C799 1.387 1_655 S
H798 C805 0.950 . S
C799 C797 1.387 1_455 S
C799 C801 1.390 1_565 S
C799 H803 0.950 . S
H800 C796 0.950 . S
C801 C799 1.390 1_545 S
C801 C802 1.387 . S
C801 H804 0.950 . S
C802 C801 1.387 . S
C802 C805 1.387 1_455 S
H803 C799 0.950 . S
H804 C801 0.950 . S
C805 C796 1.390 1_545 S
C805 H798 0.950 . S
C805 C802 1.387 1_655 S
C806 C807 1.387 1_545 S
C806 H810 0.950 . S
C806 C815 1.390 . S
C807 C806 1.387 1_565 S
C807 C809 1.387 . S
H808 C815 0.950 . S
C809 C807 1.387 . S
C809 C811 1.390 . S
C809 H813 0.950 . S
H810 C806 0.950 . S
C811 C809 1.390 . S
C811 C812 1.387 1_565 S
C811 H814 0.950 . S
C812 C811 1.387 1_545 S
C812 C815 1.387 . S
H813 C809 0.950 . S
H814 C811 0.950 . S
C815 C806 1.390 . S
C815 H808 0.950 . S
C815 C812 1.387 . S
C816 C817 1.387 . S
C816 H820 0.950 . S
C816 C825 1.390 . S
C817 C816 1.387 . S
C817 C819 1.387 . S
H818 C825 0.950 . S
C819 C817 1.387 . S
C819 C821 1.390 . S
C819 H823 0.950 . S
H820 C816 0.950 . S
C821 C819 1.390 . S
C821 C822 1.387 . S
C821 H824 0.950 . S
C822 C821 1.387 . S
C822 C825 1.387 . S
H823 C819 0.950 . S
H824 C821 0.950 . S
C825 C816 1.390 . S
C825 H818 0.950 . S
C825 C822 1.387 . S
C826 C827 1.387 . S
C826 H830 0.950 . S
C826 C835 1.390 . S
C827 C826 1.387 . S
C827 C829 1.387 . S
H828 C835 0.950 . S
C829 C827 1.387 . S
C829 C831 1.390 . S
C829 H833 0.950 . S
H830 C826 0.950 . S
C831 C829 1.390 . S
C831 C832 1.387 . S
C831 H834 0.950 . S
C832 C831 1.387 . S
C832 C835 1.387 . S
H833 C829 0.950 . S
H834 C831 0.950 . S
C835 C826 1.390 . S
C835 H828 0.950 . S
C835 C832 1.387 . S
C836 C837 1.387 1_455 S
C836 H840 0.950 . S
C836 C845 1.390 . S
C837 C836 1.387 1_655 S
C837 C839 1.387 . S
H838 C845 0.950 . S
C839 C837 1.387 . S
C839 C841 1.390 . S
C839 H843 0.950 . S
H840 C836 0.950 . S
C841 C839 1.390 . S
C841 C842 1.387 . S
C841 H844 0.950 . S
C842 C841 1.387 . S
C842 C845 1.387 1_655 S
H843 C839 0.950 . S
H844 C841 0.950 . S
C845 C836 1.390 . S
C845 H838 0.950 . S
C845 C842 1.387 1_455 S
C846 C847 1.387 . S
C846 H850 0.950 . S
C846 C855 1.390 . S
C847 C846 1.387 . S
C847 C849 1.387 1_565 S
H848 C855 0.950 . S
C849 C847 1.387 1_545 S
C849 C851 1.390 . S
C849 H853 0.950 . S
H850 C846 0.950 . S
C851 C849 1.390 . S
C851 C852 1.387 1_545 S
C851 H854 0.950 . S
C852 C851 1.387 1_565 S
C852 C855 1.387 . S
H853 C849 0.950 . S
H854 C851 0.950 . S
C855 C846 1.390 . S
C855 H848 0.950 . S
C855 C852 1.387 . S
C856 C857 1.387 . S
C856 H860 0.950 . S
C856 C865 1.390 . S
C857 C856 1.387 . S
C857 C859 1.387 . S
H858 C865 0.950 . S
C859 C857 1.387 . S
C859 C861 1.390 . S
C859 H863 0.950 . S
H860 C856 0.950 . S
C861 C859 1.390 . S
C861 C862 1.387 . S
C861 H864 0.950 . S
C862 C861 1.387 . S
C862 C865 1.387 . S
H863 C859 0.950 . S
H864 C861 0.950 . S
C865 C856 1.390 . S
C865 H858 0.950 . S
C865 C862 1.387 . S
C866 C867 1.387 . S
C866 H870 0.950 . S
C866 C875 1.390 . S
C867 C866 1.387 . S
C867 C869 1.387 . S
H868 C875 0.950 . S
C869 C867 1.387 . S
C869 C871 1.390 . S
C869 H873 0.950 . S
H870 C866 0.950 . S
C871 C869 1.390 . S
C871 C872 1.387 . S
C871 H874 0.950 . S
C872 C871 1.387 . S
C872 C875 1.387 . S
H873 C869 0.950 . S
H874 C871 0.950 . S
C875 C866 1.390 . S
C875 H868 0.950 . S
C875 C872 1.387 . S
C876 C877 1.387 . S
C876 H880 0.950 . S
C876 C885 1.390 . S
C877 C876 1.387 . S
C877 C879 1.387 1_455 S
H878 C885 0.950 . S
C879 C877 1.387 1_655 S
C879 C881 1.390 . S
C879 H883 0.950 . S
H880 C876 0.950 . S
C881 C879 1.390 . S
C881 C882 1.387 1_655 S
C881 H884 0.950 . S
C882 C881 1.387 1_455 S
C882 C885 1.387 . S
H883 C879 0.950 . S
H884 C881 0.950 . S
C885 C876 1.390 . S
C885 H878 0.950 . S
C885 C882 1.387 . S
C886 C887 1.387 1_565 S
C886 H890 0.950 . S
C886 C895 1.390 . S
C887 C886 1.387 1_545 S
C887 C889 1.387 . S
H888 C895 0.950 . S
C889 C887 1.387 . S
C889 C891 1.390 . S
C889 H893 0.950 . S
H890 C886 0.950 . S
C891 C889 1.390 . S
C891 C892 1.387 . S
C891 H894 0.950 . S
C892 C891 1.387 . S
C892 C895 1.387 1_545 S
H893 C889 0.950 . S
H894 C891 0.950 . S
C895 C886 1.390 . S
C895 H888 0.950 . S
C895 C892 1.387 1_565 S
C577 C4 0.998 1_556 S
C582 C326 1.077 . S
C587 C362 1.075 . S
C592 C40 0.993 1_556 S
C597 C398 1.077 . S
C602 C76 0.998 1_556 S
C607 C290 1.077 . S
C612 C112 0.999 1_556 S
C617 C148 0.998 . S
C622 C542 1.077 . S
C627 C434 1.077 . S
C632 C184 0.998 . S
C637 C470 1.077 . S
C642 C220 0.998 . S
C647 C506 1.075 . S
C652 C256 0.996 . S
C657 C292 0.998 1_554 S
C662 C38 1.077 . S
C667 C328 0.996 1_554 S
C672 C74 1.075 . S
C677 C364 0.999 1_554 S
C682 C110 1.077 . S
C687 C2 1.077 . S
C692 C400 0.998 1_554 S
C697 C436 0.992 . S
C702 C254 1.075 . S
C707 C472 0.993 . S
C712 C146 1.075 . S
C717 C182 1.075 . S
C722 C508 0.992 . S
C727 C544 0.992 . S
C732 C218 1.075 . S
C737 C291 1.886 . S
C742 C3 1.886 . S
C747 C39 1.886 . S
C752 C327 1.886 . S
C757 C363 1.888 . S
C762 C75 1.888 . S
C767 C111 1.888 . S
C772 C399 1.888 . S
C777 C435 1.889 . S
C782 C147 1.889 . S
C787 C183 1.886 . S
C792 C471 1.886 . S
C797 C507 1.886 . S
C802 C219 1.886 . S
C807 C543 1.889 . S
C812 C255 1.889 . S
C817 C158 1.530 . S
C822 C14 1.530 . S
C827 C194 1.533 . S
C832 C50 1.533 . S
C837 C86 1.530 . S
C842 C230 1.530 . S
C847 C266 1.533 . S
C852 C122 1.533 . S
C857 C302 1.533 . S
C862 C446 1.533 . S
C867 C482 1.533 . S
C872 C338 1.533 . S
C877 C518 1.530 . S
C882 C374 1.530 . S
C887 C554 1.533 . S
C892 C410 1.533 . S
