# Generated by pormake.
# Topology unm, (4)-cn, num edge types: 1
# Building blocks:
#     Node 0, Type 0, BuildingBlock: UXUYUI_clean_sbu_0, # of connection points: 4
#     Node 1, Type 0, BuildingBlock: UXUYUI_clean_sbu_0, # of connection points: 4
#     Node 2, Type 0, BuildingBlock: UXUYUI_clean_sbu_0, # of connection points: 4
#     Node 3, Type 0, BuildingBlock: UXUYUI_clean_sbu_0, # of connection points: 4
#     Node 4, Type 0, BuildingBlock: UXUYUI_clean_sbu_0, # of connection points: 4
#     Node 5, Type 0, BuildingBlock: UXUYUI_clean_sbu_0, # of connection points: 4
#     Node 6, Type 0, BuildingBlock: UXUYUI_clean_sbu_0, # of connection points: 4
#     Node 7, Type 0, BuildingBlock: UXUYUI_clean_sbu_0, # of connection points: 4
#     Edge 8, Type (0, 0), BuildingBlock: TEMPAE_clean_linker_10, # of connection points: 2
#     Edge 9, Type (0, 0), BuildingBlock: TEMPAE_clean_linker_10, # of connection points: 2
#     Edge 10, Type (0, 0), BuildingBlock: TEMPAE_clean_linker_10, # of connection points: 2
#     Edge 11, Type (0, 0), BuildingBlock: TEMPAE_clean_linker_10, # of connection points: 2
#     Edge 12, Type (0, 0), BuildingBlock: TEMPAE_clean_linker_10, # of connection points: 2
#     Edge 13, Type (0, 0), BuildingBlock: TEMPAE_clean_linker_10, # of connection points: 2
#     Edge 14, Type (0, 0), BuildingBlock: TEMPAE_clean_linker_10, # of connection points: 2
#     Edge 15, Type (0, 0), BuildingBlock: TEMPAE_clean_linker_10, # of connection points: 2
#     Edge 16, Type (0, 0), BuildingBlock: TEMPAE_clean_linker_10, # of connection points: 2
#     Edge 17, Type (0, 0), BuildingBlock: TEMPAE_clean_linker_10, # of connection points: 2
#     Edge 18, Type (0, 0), BuildingBlock: TEMPAE_clean_linker_10, # of connection points: 2
#     Edge 19, Type (0, 0), BuildingBlock: TEMPAE_clean_linker_10, # of connection points: 2
#     Edge 20, Type (0, 0), BuildingBlock: TEMPAE_clean_linker_10, # of connection points: 2
#     Edge 21, Type (0, 0), BuildingBlock: TEMPAE_clean_linker_10, # of connection points: 2
#     Edge 22, Type (0, 0), BuildingBlock: TEMPAE_clean_linker_10, # of connection points: 2
#     Edge 23, Type (0, 0), BuildingBlock: TEMPAE_clean_linker_10, # of connection points: 2
# Relax obj value: 0.260
# Max RMSD: 0.186
# Mean RMSD: 0.185
data_MOF--net-unm--node1-UXUYUI_clean_sbu_0--edge1-TEMPAE_clean_linker_10
_symmetry_space_group_name_H-M    P1
_symmetry_Int_Tables_number       1
_symmetry_cell_setting            triclinic
loop_
_symmetry_equiv_pos_as_xyz
'x, y, z'
_cell_length_a     38.284844
_cell_length_b     38.182593
_cell_length_c     62.683444
_cell_angle_alpha  89.978956
_cell_angle_beta   89.999003
_cell_angle_gamma 90.005568
loop_
_atom_site_label
_atom_site_type_symbol
_atom_site_fract_x
_atom_site_fract_y
_atom_site_fract_z
_atom_type_partial_charge
Li0 Li 0.07159 0.26229 0.15059 0.0
Li1 Li 0.10825 0.22772 0.17661 0.0
Li2 Li 0.08332 0.2021 0.1423 0.0
Li3 Li 0.04574 0.21625 0.17154 0.0
C4 C 0.13598 0.26759 0.13677 0.0
N5 N 0.17048 0.3236 0.11839 0.0
C6 C 0.162 0.28531 0.1481 0.0
C7 C 0.12778 0.27816 0.116 0.0
C8 C 0.17908 0.3136 0.13855 0.0
C9 C 0.14542 0.3066 0.10703 0.0
C10 C 0.04819 0.271 0.19792 0.0
C11 C 0.03058 0.27021 0.23484 0.0
N12 N 0.00324 0.29153 0.23002 0.0
C13 C 0.02012 0.29316 0.19334 0.0
C14 C 0.05364 0.25954 0.21883 0.0
C15 C 0.99759 0.30314 0.20979 0.0
C16 C 0.03633 0.3132 0.12642 0.0
N17 N 0.06315 0.30799 0.14026 0.0
C18 C 0.07366 0.36946 0.14253 0.0
C19 C 0.08184 0.33517 0.14833 0.0
C20 C 0.04556 0.37569 0.12862 0.0
C21 C 0.02709 0.34705 0.1203 0.0
H22 H 0.02131 0.29118 0.12072 0.0
H23 H 0.10239 0.33023 0.15978 0.0
C24 C 0.1738 0.20715 0.19383 0.0
N25 N 0.14771 0.23122 0.19499 0.0
C26 C 0.20484 0.2122 0.20522 0.0
C27 C 0.18123 0.26634 0.21903 0.0
C28 C 0.15067 0.26021 0.20744 0.0
C29 C 0.2091 0.24246 0.21775 0.0
H30 H 0.17092 0.18462 0.18352 0.0
H31 H 0.12975 0.27922 0.20778 0.0
C32 C 0.02229 0.2115 0.12413 0.0
N33 N 0.99167 0.17923 0.08936 0.0
C34 C 0.99794 0.18466 0.12714 0.0
C35 C 0.03093 0.22203 0.10342 0.0
C36 C 0.98273 0.1687 0.10936 0.0
C37 C 0.01525 0.20532 0.08606 0.0
C38 C 0.07244 0.15591 0.18496 0.0
C39 C 0.04615 0.13333 0.17792 0.0
C40 C 0.08596 0.15227 0.20555 0.0
C41 C 0.03347 0.10759 0.19174 0.0
C42 C 0.07266 0.12612 0.21887 0.0
N43 N 0.04688 0.10455 0.21176 0.0
C44 C 0.12021 0.18329 0.1056 0.0
C45 C 0.07365 0.14433 0.11304 0.0
C46 C 0.12583 0.1675 0.08586 0.0
N47 N 0.09376 0.17236 0.11843 0.0
C48 C 0.07815 0.12789 0.09326 0.0
C49 C 0.10406 0.14002 0.07919 0.0
H50 H 0.13623 0.2052 0.1103 0.0
H51 H 0.05308 0.13574 0.12362 0.0
C52 C 0.97427 0.22387 0.17668 0.0
N53 N 0.00212 0.2087 0.18649 0.0
C54 C 0.94224 0.22667 0.1871 0.0
C55 C 0.96743 0.19744 0.21759 0.0
C56 C 0.99919 0.19528 0.20654 0.0
C57 C 0.93866 0.21408 0.20801 0.0
H58 H 0.97736 0.23553 0.16109 0.0
H59 H 0.02187 0.1848 0.21452 0.0
O60 O 0.11859 0.24011 0.14596 0.0
O61 O 0.06979 0.25997 0.18193 0.0
O62 O 0.03777 0.22722 0.14133 0.0
O63 O 0.08538 0.18108 0.17165 0.0
H64 H 0.16891 0.27743 0.1641 0.0
H65 H 0.10773 0.26479 0.107 0.0
H66 H 0.19917 0.32762 0.14717 0.0
H67 H 0.13914 0.3152 0.09104 0.0
H68 H 0.03429 0.26134 0.25108 0.0
H69 H 0.0155 0.30211 0.1772 0.0
H70 H 0.07512 0.24216 0.22258 0.0
H71 H 0.97554 0.31999 0.20646 0.0
H72 H 0.08807 0.39091 0.14963 0.0
H73 H 0.00522 0.35085 0.10958 0.0
H74 H 0.22575 0.1933 0.20357 0.0
H75 H 0.18319 0.28979 0.22867 0.0
H76 H 0.99116 0.17589 0.14302 0.0
H77 H 0.04983 0.24261 0.10076 0.0
H78 H 0.96397 0.1478 0.11147 0.0
H79 H 0.02191 0.21302 0.06995 0.0
H80 H 0.03552 0.13581 0.162 0.0
H81 H 0.1064 0.16952 0.21119 0.0
H82 H 0.01299 0.09003 0.18657 0.0
H83 H 0.08277 0.12303 0.23488 0.0
H84 H 0.14599 0.17787 0.07551 0.0
H85 H 0.0611 0.10645 0.08885 0.0
H86 H 0.92071 0.23947 0.17904 0.0
H87 H 0.96594 0.18786 0.23382 0.0
Li88 Li 0.29323 0.57426 0.63769 0.0
Li89 Li 0.27492 0.60498 0.67169 0.0
Li90 Li 0.27999 0.53943 0.66997 0.0
Li91 Li 0.23368 0.5697 0.65134 0.0
C92 C 0.35026 0.55942 0.66527 0.0
N93 N 0.41455 0.52673 0.66333 0.0
C94 C 0.37832 0.57233 0.67715 0.0
C95 C 0.35486 0.52988 0.65243 0.0
C96 C 0.41064 0.55544 0.67595 0.0
C97 C 0.38756 0.51372 0.65165 0.0
C98 C 0.23146 0.63288 0.63527 0.0
C99 C 0.18138 0.66906 0.64295 0.0
N100 N 0.17472 0.67164 0.6217 0.0
C101 C 0.22417 0.63593 0.61351 0.0
C102 C 0.20994 0.64959 0.65014 0.0
C103 C 0.19534 0.65563 0.60697 0.0
C104 C 0.29617 0.57228 0.59422 0.0
N105 N 0.31737 0.5775 0.6113 0.0
C106 C 0.36586 0.58931 0.58832 0.0
C107 C 0.35174 0.58568 0.60883 0.0
C108 C 0.3441 0.58518 0.57045 0.0
C109 C 0.30896 0.57626 0.57356 0.0
H110 H 0.26902 0.56559 0.59672 0.0
H111 H 0.36798 0.59 0.62269 0.0
C112 C 0.27012 0.6462 0.70929 0.0
N113 N 0.27862 0.6466 0.68825 0.0
C114 C 0.26579 0.67764 0.72042 0.0
C115 C 0.28153 0.70912 0.68838 0.0
C116 C 0.28517 0.67711 0.67783 0.0
C117 C 0.27063 0.70978 0.70982 0.0
H118 H 0.26501 0.62152 0.71716 0.0
H119 H 0.29172 0.67663 0.66104 0.0
C120 C 0.25646 0.5003 0.63257 0.0
N121 N 0.2417 0.43423 0.61699 0.0
C122 C 0.22704 0.48214 0.63977 0.0
C123 C 0.27814 0.48501 0.61722 0.0
C124 C 0.22008 0.44874 0.63176 0.0
C125 C 0.2703 0.45154 0.60961 0.0
C126 C 0.21399 0.56002 0.69439 0.0
C127 C 0.20266 0.52524 0.69521 0.0
C128 C 0.19603 0.5856 0.706 0.0
C129 C 0.17335 0.51668 0.70741 0.0
C130 C 0.16681 0.576 0.718 0.0
N131 N 0.15616 0.54203 0.71845 0.0
C132 C 0.28317 0.49861 0.70741 0.0
C133 C 0.29687 0.46706 0.67598 0.0
C134 C 0.2817 0.46755 0.7192 0.0
N135 N 0.28934 0.49769 0.68605 0.0
C136 C 0.29551 0.43539 0.68712 0.0
C137 C 0.28668 0.43529 0.70887 0.0
H138 H 0.27721 0.52331 0.71505 0.0
H139 H 0.30244 0.46688 0.65912 0.0
C140 C 0.18146 0.55054 0.62216 0.0
N141 N 0.18673 0.56582 0.64148 0.0
C142 C 0.14766 0.54312 0.61517 0.0
C143 C 0.12532 0.56973 0.64737 0.0
C144 C 0.15949 0.57681 0.65362 0.0
C145 C 0.11905 0.55177 0.62817 0.0
H146 H 0.2036 0.54315 0.61244 0.0
H147 H 0.16415 0.59045 0.66836 0.0
O148 O 0.31846 0.57564 0.66635 0.0
O149 O 0.25899 0.61294 0.64206 0.0
O150 O 0.26394 0.53302 0.64024 0.0
O151 O 0.24279 0.56898 0.68263 0.0
H152 H 0.37514 0.59517 0.6872 0.0
H153 H 0.33348 0.51964 0.6431 0.0
H154 H 0.43261 0.56515 0.68504 0.0
H155 H 0.39148 0.49086 0.64175 0.0
H156 H 0.1644 0.68196 0.65429 0.0
H157 H 0.2405 0.62317 0.60179 0.0
H158 H 0.21484 0.64704 0.66706 0.0
H159 H 0.18934 0.65816 0.59017 0.0
H160 H 0.39308 0.5964 0.58643 0.0
H161 H 0.29152 0.57265 0.56013 0.0
H162 H 0.25713 0.67669 0.73685 0.0
H163 H 0.28637 0.7331 0.67965 0.0
H164 H 0.20948 0.49385 0.65121 0.0
H165 H 0.30089 0.49876 0.61132 0.0
H166 H 0.1974 0.4344 0.63722 0.0
H167 H 0.28696 0.43932 0.59782 0.0
H168 H 0.21648 0.50497 0.68669 0.0
H169 H 0.20409 0.61272 0.70541 0.0
H170 H 0.16433 0.48985 0.70815 0.0
H171 H 0.15252 0.59559 0.72691 0.0
H172 H 0.27472 0.46867 0.73593 0.0
H173 H 0.30024 0.41114 0.67864 0.0
H174 H 0.14403 0.53002 0.60001 0.0
H175 H 0.10421 0.5769 0.65799 0.0
Li176 Li 0.89837 0.77594 0.17581 0.0
Li177 Li 0.93693 0.73909 0.1531 0.0
Li178 Li 0.96014 0.78573 0.17322 0.0
Li179 Li 0.92625 0.7997 0.14257 0.0
C180 C 0.94943 0.74128 0.20458 0.0
N181 N 0.97845 0.73804 0.24492 0.0
C182 C 0.97575 0.717 0.20907 0.0
C183 C 0.93776 0.7638 0.22066 0.0
C184 C 0.99017 0.71586 0.22953 0.0
C185 C 0.95271 0.76171 0.24095 0.0
C186 C 0.86448 0.73725 0.14432 0.0
C187 C 0.81046 0.71715 0.12876 0.0
N188 N 0.80957 0.69031 0.14302 0.0
C189 C 0.86307 0.70939 0.15879 0.0
C190 C 0.83801 0.74115 0.12917 0.0
C191 C 0.83508 0.68597 0.15789 0.0
C192 C 0.82965 0.79652 0.18767 0.0
N193 N 0.85623 0.77405 0.19211 0.0
C194 C 0.82041 0.74277 0.21688 0.0
C195 C 0.8522 0.74757 0.20641 0.0
C196 C 0.79226 0.7652 0.21245 0.0
C197 C 0.79724 0.79255 0.19772 0.0
H198 H 0.83339 0.81695 0.17593 0.0
H199 H 0.87332 0.72936 0.20917 0.0
C200 C 0.97958 0.68231 0.15063 0.0
N201 N 0.94802 0.69347 0.14351 0.0
C202 C 0.9911 0.64861 0.14603 0.0
C203 C 0.93833 0.63911 0.12562 0.0
C204 C 0.92775 0.67315 0.13068 0.0
C205 C 0.97004 0.62631 0.13376 0.0
H206 H 0.99568 0.69967 0.16004 0.0
H207 H 0.90331 0.68308 0.12456 0.0
C208 C 0.93703 0.85024 0.18042 0.0
N209 N 0.96803 0.90781 0.19914 0.0
C210 C 0.96483 0.86712 0.17027 0.0
C211 C 0.92473 0.86277 0.19996 0.0
C212 C 0.98025 0.89613 0.18005 0.0
C213 C 0.94081 0.89191 0.20919 0.0
C214 C 0.98082 0.76644 0.12283 0.0
C215 C 0.01542 0.77129 0.11635 0.0
C216 C 0.95619 0.75403 0.10818 0.0
C217 C 0.0248 0.76373 0.09531 0.0
C218 C 0.9666 0.74679 0.08729 0.0
N219 N 0.0004 0.75174 0.08133 0.0
C220 C 0.03044 0.77718 0.18045 0.0
C221 C 0.00533 0.81209 0.20765 0.0
C222 C 0.06219 0.7761 0.19127 0.0
N223 N 0.00268 0.79471 0.18875 0.0
C224 C 0.0367 0.8115 0.21914 0.0
C225 C 0.06553 0.79293 0.21106 0.0
H226 H 0.02747 0.76256 0.16582 0.0
H227 H 0.9828 0.82501 0.21435 0.0
C228 C 0.88663 0.83238 0.11039 0.0
N229 N 0.91955 0.8288 0.1182 0.0
C230 C 0.88117 0.84788 0.09048 0.0
C231 C 0.9435 0.85677 0.08737 0.0
C232 C 0.94768 0.84173 0.10753 0.0
C233 C 0.90997 0.85925 0.07846 0.0
H234 H 0.86478 0.82184 0.11924 0.0
H235 H 0.97357 0.83879 0.11416 0.0
O236 O 0.93559 0.74356 0.18448 0.0
O237 O 0.89127 0.76096 0.14513 0.0
O238 O 0.9216 0.82186 0.17112 0.0
O239 O 0.9714 0.77412 0.1434 0.0
H240 H 0.98506 0.69927 0.19691 0.0
H241 H 0.9178 0.78313 0.21741 0.0
H242 H 0.01069 0.69733 0.23318 0.0
H243 H 0.94406 0.77912 0.25349 0.0
H244 H 0.78978 0.71989 0.11712 0.0
H245 H 0.88342 0.70572 0.17052 0.0
H246 H 0.8387 0.76251 0.11782 0.0
H247 H 0.83366 0.66433 0.169 0.0
H248 H 0.81755 0.72097 0.2278 0.0
H249 H 0.77627 0.81054 0.19393 0.0
H250 H 0.01612 0.63998 0.15216 0.0
H251 H 0.92148 0.62269 0.11599 0.0
H252 H 0.97455 0.85769 0.1551 0.0
H253 H 0.90309 0.85002 0.20793 0.0
H254 H 0.00194 0.90935 0.17246 0.0
H255 H 0.93169 0.90185 0.22436 0.0
H256 H 0.03481 0.78101 0.12743 0.0
H257 H 0.92928 0.75017 0.11275 0.0
H258 H 0.05147 0.76744 0.09008 0.0
H259 H 0.94779 0.73727 0.07579 0.0
H260 H 0.08343 0.76087 0.18464 0.0
H261 H 0.03818 0.82483 0.23436 0.0
H262 H 0.85495 0.8492 0.08404 0.0
H263 H 0.96627 0.86549 0.07859 0.0
Li264 Li 0.71316 0.46106 0.67466 0.0
Li265 Li 0.76124 0.43232 0.65619 0.0
Li266 Li 0.70199 0.42553 0.64386 0.0
Li267 Li 0.71998 0.39543 0.67644 0.0
C268 C 0.7482 0.49977 0.6432 0.0
N269 N 0.78596 0.56126 0.63961 0.0
C270 C 0.76724 0.51253 0.66058 0.0
C271 C 0.74871 0.51818 0.62392 0.0
C272 C 0.78604 0.54369 0.65848 0.0
C273 C 0.76788 0.54923 0.62244 0.0
C274 C 0.77843 0.41722 0.69885 0.0
C275 C 0.82194 0.3719 0.70254 0.0
N276 N 0.8311 0.3852 0.72187 0.0
C277 C 0.7884 0.43053 0.71871 0.0
C278 C 0.79546 0.38777 0.69065 0.0
C279 C 0.81505 0.41395 0.73011 0.0
C280 C 0.71066 0.50355 0.71132 0.0
N281 N 0.70196 0.50246 0.69032 0.0
C282 C 0.69225 0.56427 0.68986 0.0
C283 C 0.69151 0.5317 0.6797 0.0
C284 C 0.70336 0.56654 0.71118 0.0
C285 C 0.71136 0.5355 0.72217 0.0
H286 H 0.71899 0.47989 0.71931 0.0
H287 H 0.68493 0.5301 0.66295 0.0
C288 C 0.82117 0.43282 0.62835 0.0
N289 N 0.80922 0.43963 0.64836 0.0
C290 C 0.85556 0.44094 0.62272 0.0
C291 C 0.86444 0.4639 0.65819 0.0
C292 C 0.83014 0.45511 0.66314 0.0
C293 C 0.87765 0.4568 0.63776 0.0
H294 H 0.80395 0.42199 0.61651 0.0
H295 H 0.81996 0.46193 0.67862 0.0
C296 C 0.64369 0.42035 0.66468 0.0
N297 N 0.57734 0.41256 0.6481 0.0
C298 C 0.62786 0.38739 0.66439 0.0
C299 C 0.62576 0.44942 0.6567 0.0
C300 C 0.59429 0.38398 0.65591 0.0
C301 C 0.59224 0.44491 0.64833 0.0
C302 C 0.75254 0.36943 0.63135 0.0
C303 C 0.75041 0.38068 0.61016 0.0
C304 C 0.76946 0.3379 0.63606 0.0
C305 C 0.76536 0.36031 0.59406 0.0
C306 C 0.78413 0.3183 0.61952 0.0
N307 N 0.78177 0.3298 0.59904 0.0
C308 C 0.6725 0.4477 0.60487 0.0
C309 C 0.66143 0.3883 0.61342 0.0
C310 C 0.65844 0.44313 0.58451 0.0
N311 N 0.67458 0.42025 0.61859 0.0
C312 C 0.64653 0.3827 0.59336 0.0
C313 C 0.64592 0.41002 0.57826 0.0
H314 H 0.68329 0.47276 0.60939 0.0
H315 H 0.66385 0.36679 0.62455 0.0
C316 C 0.72411 0.35522 0.71454 0.0
N317 N 0.71738 0.35383 0.69326 0.0
C318 C 0.72948 0.3244 0.7261 0.0
C319 C 0.71792 0.29122 0.69403 0.0
C320 C 0.71324 0.32272 0.68302 0.0
C321 C 0.72721 0.2919 0.7157 0.0
H322 H 0.72694 0.3803 0.72235 0.0
H323 H 0.70785 0.3224 0.66609 0.0
O324 O 0.72969 0.46914 0.64478 0.0
O325 O 0.75215 0.43303 0.68757 0.0
O326 O 0.67679 0.4241 0.67247 0.0
O327 O 0.73718 0.38841 0.64735 0.0
H328 H 0.76757 0.49857 0.67558 0.0
H329 H 0.73457 0.50855 0.61018 0.0
H330 H 0.80073 0.55387 0.67186 0.0
H331 H 0.76843 0.56374 0.60762 0.0
H332 H 0.83522 0.34903 0.69639 0.0
H333 H 0.77572 0.45344 0.72527 0.0
H334 H 0.78833 0.37728 0.67527 0.0
H335 H 0.82297 0.42394 0.74552 0.0
H336 H 0.68555 0.58759 0.6809 0.0
H337 H 0.72023 0.53614 0.73858 0.0
H338 H 0.86461 0.43511 0.60675 0.0
H339 H 0.88009 0.47715 0.67011 0.0
H340 H 0.64152 0.36465 0.67048 0.0
H341 H 0.63779 0.47508 0.65678 0.0
H342 H 0.58174 0.35861 0.65547 0.0
H343 H 0.57811 0.46711 0.64197 0.0
H344 H 0.73808 0.40527 0.60617 0.0
H345 H 0.77124 0.32857 0.65232 0.0
H346 H 0.76404 0.36885 0.57763 0.0
H347 H 0.79732 0.29389 0.62296 0.0
H348 H 0.65907 0.46494 0.57348 0.0
H349 H 0.63656 0.35693 0.58956 0.0
H350 H 0.73612 0.32597 0.74287 0.0
H351 H 0.71601 0.26669 0.68544 0.0
Li352 Li 0.5456 0.28109 0.33023 0.0
Li353 Li 0.58238 0.2957 0.35983 0.0
Li354 Li 0.60831 0.27093 0.32543 0.0
Li355 Li 0.57201 0.23518 0.35105 0.0
C356 C 0.57099 0.34301 0.31819 0.0
N357 N 0.54402 0.39602 0.29317 0.0
C358 C 0.54394 0.36402 0.32592 0.0
C359 C 0.58456 0.34906 0.29783 0.0
C360 C 0.53056 0.39063 0.31299 0.0
C361 C 0.57053 0.37601 0.2854 0.0
C362 C 0.521 0.28311 0.37789 0.0
C363 C 0.51365 0.28641 0.41607 0.0
N364 N 0.48838 0.31105 0.41336 0.0
C365 C 0.4949 0.30844 0.37549 0.0
C366 C 0.53036 0.2719 0.39834 0.0
C367 C 0.47871 0.32221 0.39362 0.0
C368 C 0.47404 0.27339 0.32452 0.0
N369 N 0.50217 0.28873 0.31511 0.0
C370 C 0.46777 0.30272 0.28433 0.0
C371 C 0.4996 0.30331 0.29535 0.0
C372 C 0.4384 0.28674 0.29367 0.0
C373 C 0.44185 0.27229 0.31415 0.0
H374 H 0.47695 0.26051 0.33977 0.0
H375 H 0.52247 0.31397 0.28767 0.0
C376 C 0.62078 0.31741 0.39555 0.0
N377 N 0.59203 0.32549 0.3838 0.0
C378 C 0.62639 0.3333 0.41529 0.0
C379 C 0.57354 0.36685 0.41016 0.0
C380 C 0.56939 0.35086 0.39024 0.0
C381 C 0.60196 0.35747 0.42309 0.0
H382 H 0.63873 0.29761 0.38999 0.0
H383 H 0.54718 0.3575 0.38044 0.0
C384 C 0.54912 0.22713 0.30356 0.0
N385 N 0.50447 0.20694 0.27122 0.0
C386 C 0.52143 0.20435 0.30787 0.0
C387 C 0.55434 0.23939 0.28279 0.0
C388 C 0.49907 0.19453 0.2913 0.0
C389 C 0.53143 0.22891 0.26666 0.0
C390 C 0.63646 0.23176 0.36557 0.0
C391 C 0.66216 0.21365 0.35421 0.0
C392 C 0.62928 0.22236 0.38668 0.0
C393 C 0.67996 0.18612 0.36408 0.0
C394 C 0.64761 0.19465 0.39597 0.0
N395 N 0.67234 0.17724 0.38458 0.0
C396 C 0.67411 0.29259 0.30915 0.0
C397 C 0.65157 0.24016 0.29433 0.0
C398 C 0.70539 0.28833 0.2979 0.0
N399 N 0.64818 0.26847 0.30731 0.0
C400 C 0.68236 0.23487 0.2828 0.0
C401 C 0.71004 0.25887 0.28472 0.0
H402 H 0.67084 0.31463 0.31981 0.0
H403 H 0.63085 0.22096 0.29356 0.0
C404 C 0.53786 0.18269 0.3747 0.0
N405 N 0.56473 0.18908 0.3611 0.0
C406 C 0.52962 0.14842 0.38052 0.0
C407 C 0.57717 0.12802 0.35836 0.0
C408 C 0.58438 0.16269 0.35292 0.0
C409 C 0.54907 0.12052 0.37205 0.0
H410 H 0.52191 0.20404 0.38038 0.0
H411 H 0.60501 0.16852 0.34168 0.0
O412 O 0.58458 0.31698 0.33061 0.0
O413 O 0.53736 0.26946 0.36033 0.0
O414 O 0.57055 0.23797 0.31969 0.0
O415 O 0.61835 0.25845 0.35607 0.0
H416 H 0.53323 0.35963 0.34167 0.0
H417 H 0.60559 0.33304 0.29167 0.0
H418 H 0.50948 0.40699 0.3187 0.0
H419 H 0.58067 0.38096 0.26958 0.0
H420 H 0.52083 0.27814 0.43199 0.0
H421 H 0.48756 0.31781 0.35984 0.0
H422 H 0.55051 0.25242 0.40053 0.0
H423 H 0.45861 0.34194 0.392 0.0
H424 H 0.46634 0.3141 0.26853 0.0
H425 H 0.42026 0.25888 0.32176 0.0
H426 H 0.64862 0.32541 0.42484 0.0
H427 H 0.55437 0.38569 0.41562 0.0
H428 H 0.51699 0.19477 0.3239 0.0
H429 H 0.57552 0.25727 0.27926 0.0
H430 H 0.47734 0.17716 0.29442 0.0
H431 H 0.53496 0.2384 0.25055 0.0
H432 H 0.66822 0.2206 0.33791 0.0
H433 H 0.60962 0.23618 0.39574 0.0
H434 H 0.69979 0.17178 0.35544 0.0
H435 H 0.64215 0.18698 0.41225 0.0
H436 H 0.72585 0.3077 0.29968 0.0
H437 H 0.68491 0.21153 0.27312 0.0
H438 H 0.5073 0.14376 0.39074 0.0
H439 H 0.59293 0.10728 0.35156 0.0
Li440 Li 0.22362 0.10707 0.82664 0.0
Li441 Li 0.20273 0.07263 0.85875 0.0
Li442 Li 0.26228 0.06871 0.84683 0.0
Li443 Li 0.2178 0.03992 0.82626 0.0
C444 C 0.26208 0.12721 0.86892 0.0
N445 N 0.3141 0.15761 0.89319 0.0
C446 C 0.26788 0.11595 0.88983 0.0
C447 C 0.28262 0.15403 0.86036 0.0
C448 C 0.29435 0.13161 0.90184 0.0
C449 C 0.3088 0.16906 0.8729 0.0
C450 C 0.14558 0.07702 0.83343 0.0
C451 C 0.09308 0.04802 0.84519 0.0
N452 N 0.075 0.07836 0.84241 0.0
C453 C 0.12652 0.10787 0.83058 0.0
C454 C 0.12879 0.04679 0.84067 0.0
C455 C 0.09082 0.10802 0.83523 0.0
C456 C 0.22844 0.14738 0.78915 0.0
N457 N 0.22137 0.14908 0.81037 0.0
C458 C 0.22081 0.21168 0.80914 0.0
C459 C 0.21669 0.18031 0.82039 0.0
C460 C 0.23002 0.21077 0.78743 0.0
C461 C 0.23305 0.17806 0.77733 0.0
H462 H 0.23206 0.12215 0.78162 0.0
H463 H 0.21128 0.18085 0.83733 0.0
C464 C 0.18817 0.05565 0.90096 0.0
N465 N 0.17597 0.07538 0.88451 0.0
C466 C 0.17363 0.05866 0.92125 0.0
C467 C 0.13425 0.1027 0.90757 0.0
C468 C 0.14954 0.0987 0.88742 0.0
C469 C 0.14658 0.08275 0.92487 0.0
H470 H 0.21031 0.03856 0.89853 0.0
H471 H 0.14119 0.11517 0.87438 0.0
C472 C 0.28872 0.06676 0.80717 0.0
N473 N 0.35518 0.0585 0.79069 0.0
C474 C 0.30458 0.03379 0.80712 0.0
C475 C 0.30655 0.09548 0.79862 0.0
C476 C 0.33823 0.03017 0.79879 0.0
C477 C 0.34016 0.09078 0.79041 0.0
C478 C 0.22892 0.99517 0.85947 0.0
C479 C 0.25577 0.97275 0.85298 0.0
C480 C 0.19925 0.9812 0.86933 0.0
C481 C 0.25238 0.93673 0.8563 0.0
C482 C 0.19689 0.94503 0.87243 0.0
N483 N 0.22326 0.92373 0.86588 0.0
C484 C 0.31586 0.03776 0.871 0.0
C485 C 0.33502 0.08508 0.84954 0.0
C486 C 0.35015 0.03007 0.87683 0.0
N487 N 0.30911 0.06395 0.85691 0.0
C488 C 0.3697 0.0783 0.85488 0.0
C489 C 0.37763 0.0498 0.86818 0.0
H490 H 0.2947 0.02213 0.87725 0.0
H491 H 0.32892 0.10663 0.83904 0.0
C492 C 0.22658 0.0013 0.78861 0.0
N493 N 0.20995 0.00035 0.80776 0.0
C494 C 0.2292 0.97116 0.77612 0.0
C495 C 0.19505 0.94011 0.80238 0.0
C496 C 0.19263 0.97109 0.8142 0.0
C497 C 0.21468 0.93951 0.78341 0.0
H498 H 0.2392 0.02512 0.7834 0.0
H499 H 0.17831 0.97116 0.829 0.0
O500 O 0.23675 0.11173 0.85678 0.0
O501 O 0.18055 0.07644 0.82913 0.0
O502 O 0.25585 0.07085 0.81541 0.0
O503 O 0.23185 0.03059 0.8564 0.0
H504 H 0.25237 0.09508 0.89664 0.0
H505 H 0.27876 0.16277 0.84411 0.0
H506 H 0.29926 0.12303 0.91801 0.0
H507 H 0.32503 0.1897 0.86645 0.0
H508 H 0.07974 0.02488 0.85092 0.0
H509 H 0.13923 0.13146 0.82495 0.0
H510 H 0.14324 0.02272 0.84289 0.0
H511 H 0.07572 0.13172 0.83319 0.0
H512 H 0.21843 0.23632 0.81756 0.0
H513 H 0.23964 0.17621 0.76057 0.0
H514 H 0.18465 0.04348 0.93421 0.0
H515 H 0.11356 0.12172 0.90969 0.0
H516 H 0.29106 0.01123 0.81344 0.0
H517 H 0.29492 0.12127 0.7987 0.0
H518 H 0.35085 0.00482 0.79876 0.0
H519 H 0.35436 0.11283 0.78391 0.0
H520 H 0.27905 0.983 0.8455 0.0
H521 H 0.17794 0.99795 0.8742 0.0
H522 H 0.27292 0.91912 0.85129 0.0
H523 H 0.174 0.93389 0.87993 0.0
H524 H 0.35515 0.0079 0.88717 0.0
H525 H 0.39015 0.09463 0.84827 0.0
H526 H 0.24343 0.97246 0.76121 0.0
H527 H 0.18313 0.91657 0.80868 0.0
Li528 Li 0.45951 0.72124 0.32749 0.0
Li529 Li 0.42439 0.70246 0.35662 0.0
Li530 Li 0.39716 0.72973 0.32569 0.0
Li531 Li 0.43382 0.7643 0.35033 0.0
C532 C 0.43816 0.65162 0.32627 0.0
N533 N 0.46906 0.58622 0.32569 0.0
C534 C 0.4706 0.6464 0.33602 0.0
C535 C 0.42149 0.62358 0.31621 0.0
C536 C 0.48577 0.61315 0.33556 0.0
C537 C 0.43752 0.59071 0.31609 0.0
C538 C 0.47881 0.73385 0.37873 0.0
C539 C 0.4649 0.74732 0.41536 0.0
N540 N 0.49909 0.74312 0.42066 0.0
C541 C 0.51381 0.72977 0.38454 0.0
C542 C 0.45413 0.74281 0.39426 0.0
C543 C 0.52354 0.73455 0.40582 0.0
C544 C 0.52816 0.73637 0.31924 0.0
N545 N 0.50189 0.71594 0.3117 0.0
C546 C 0.5362 0.7001 0.28129 0.0
C547 C 0.50544 0.69734 0.29331 0.0
C548 C 0.56322 0.72228 0.28832 0.0
C549 C 0.55914 0.73986 0.30782 0.0
H550 H 0.52448 0.75107 0.3338 0.0
H551 H 0.48391 0.68163 0.28753 0.0
C552 C 0.38526 0.66473 0.38685 0.0
N553 N 0.41821 0.66977 0.37939 0.0
C554 C 0.37987 0.64769 0.4063 0.0
C555 C 0.44232 0.63995 0.40952 0.0
C556 C 0.44645 0.65657 0.38983 0.0
C557 C 0.40876 0.63627 0.41822 0.0
H558 H 0.36332 0.67562 0.37825 0.0
H559 H 0.47241 0.66084 0.38358 0.0
C560 C 0.44783 0.77069 0.29928 0.0
N561 N 0.47835 0.78174 0.2599 0.0
C562 C 0.47215 0.79763 0.29656 0.0
C563 C 0.43888 0.7495 0.28193 0.0
C564 C 0.48737 0.80272 0.27654 0.0
C565 C 0.45458 0.75553 0.26215 0.0
C566 C 0.36157 0.76335 0.35841 0.0
C567 C 0.36033 0.79322 0.34552 0.0
C568 C 0.33461 0.75696 0.37293 0.0
C569 C 0.33205 0.81613 0.34732 0.0
C570 C 0.3068 0.78054 0.37428 0.0
N571 N 0.30608 0.80937 0.36154 0.0
C572 C 0.3293 0.70983 0.31144 0.0
C573 C 0.35182 0.7619 0.29614 0.0
C574 C 0.29719 0.71506 0.30123 0.0
N575 N 0.35568 0.73329 0.30884 0.0
C576 C 0.32029 0.76815 0.28568 0.0
C577 C 0.29222 0.74488 0.28839 0.0
H578 H 0.33285 0.68767 0.32198 0.0
H579 H 0.37286 0.78061 0.29468 0.0
C580 C 0.47586 0.82056 0.35698 0.0
N581 N 0.4439 0.80841 0.36271 0.0
C582 C 0.48732 0.85312 0.36402 0.0
C583 C 0.43323 0.85968 0.38356 0.0
C584 C 0.4229 0.82669 0.37622 0.0
C585 C 0.46569 0.87336 0.37723 0.0
H586 H 0.49232 0.80494 0.34671 0.0
H587 H 0.39814 0.81591 0.38123 0.0
O588 O 0.42256 0.68387 0.32646 0.0
O589 O 0.46906 0.72897 0.35793 0.0
O590 O 0.43354 0.76439 0.31892 0.0
O591 O 0.38855 0.74 0.35664 0.0
H592 H 0.48404 0.6677 0.34384 0.0
H593 H 0.39637 0.6272 0.30858 0.0
H594 H 0.51085 0.60875 0.34305 0.0
H595 H 0.42489 0.56877 0.30836 0.0
H596 H 0.44606 0.75412 0.42754 0.0
H597 H 0.53323 0.72283 0.37272 0.0
H598 H 0.42692 0.74608 0.39015 0.0
H599 H 0.55054 0.73139 0.41054 0.0
H600 H 0.53824 0.68621 0.26629 0.0
H601 H 0.5795 0.7567 0.31404 0.0
H602 H 0.35361 0.6455 0.41259 0.0
H603 H 0.46517 0.63129 0.41823 0.0
H604 H 0.47935 0.81434 0.30976 0.0
H605 H 0.42043 0.72825 0.28382 0.0
H606 H 0.5064 0.82333 0.27424 0.0
H607 H 0.44805 0.7392 0.24863 0.0
H608 H 0.38101 0.79883 0.3343 0.0
H609 H 0.33514 0.73399 0.38304 0.0
H610 H 0.33076 0.83931 0.33742 0.0
H611 H 0.28575 0.77588 0.38544 0.0
H612 H 0.27614 0.69664 0.30394 0.0
H613 H 0.31781 0.79123 0.27574 0.0
H614 H 0.51239 0.8628 0.3586 0.0
H615 H 0.41604 0.87439 0.39395 0.0
Li616 Li 0.78102 0.96052 0.82769 0.0
Li617 Li 0.73423 0.93181 0.84648 0.0
Li618 Li 0.79377 0.92501 0.85967 0.0
Li619 Li 0.77356 0.89517 0.82562 0.0
C620 C 0.76085 0.00126 0.86396 0.0
N621 N 0.75105 0.06985 0.87667 0.0
C622 C 0.73317 0.02085 0.85567 0.0
C623 C 0.78326 0.01641 0.87896 0.0
C624 C 0.72872 0.05552 0.86223 0.0
C625 C 0.77795 0.05116 0.88512 0.0
C626 C 0.7126 0.93919 0.80403 0.0
C627 C 0.66405 0.91901 0.78276 0.0
N628 N 0.65225 0.9525 0.78118 0.0
C629 C 0.70012 0.97344 0.80202 0.0
C630 C 0.69456 0.91176 0.79417 0.0
C631 C 0.66953 0.97962 0.79048 0.0
C632 C 0.78209 0.00228 0.79073 0.0
N633 N 0.79145 0.00202 0.81166 0.0
C634 C 0.80177 0.06376 0.81086 0.0
C635 C 0.80278 0.03164 0.82152 0.0
C636 C 0.78963 0.06522 0.78974 0.0
C637 C 0.78102 0.03378 0.77938 0.0
H638 H 0.77334 0.97835 0.78321 0.0
H639 H 0.81095 0.03078 0.83798 0.0
C640 C 0.6833 0.95622 0.87499 0.0
N641 N 0.68755 0.93769 0.85665 0.0
C642 C 0.64994 0.96534 0.88198 0.0
C643 C 0.62581 0.93347 0.85212 0.0
C644 C 0.65962 0.92502 0.84574 0.0
C645 C 0.6207 0.95479 0.87011 0.0
H646 H 0.70589 0.96477 0.88391 0.0
H647 H 0.66345 0.9089 0.83186 0.0
C648 C 0.85047 0.93817 0.83095 0.0
N649 N 0.9157 0.96909 0.83082 0.0
C650 C 0.87636 0.92607 0.81709 0.0
C651 C 0.8577 0.96602 0.84471 0.0
C652 C 0.90921 0.94204 0.81727 0.0
C653 C 0.89084 0.9813 0.84442 0.0
C654 C 0.72992 0.86916 0.86295 0.0
C655 C 0.72242 0.86891 0.88477 0.0
C656 C 0.70801 0.85133 0.8488 0.0
C657 C 0.69298 0.8509 0.89206 0.0
C658 C 0.67886 0.83359 0.85672 0.0
N659 N 0.67199 0.83377 0.87801 0.0
C660 C 0.79867 0.92802 0.90312 0.0
C661 C 0.85222 0.90952 0.88776 0.0
C662 C 0.81194 0.92326 0.9236 0.0
N663 N 0.81859 0.9206 0.88576 0.0
C664 C 0.86685 0.90504 0.90808 0.0
C665 C 0.84627 0.91135 0.92622 0.0
H666 H 0.7721 0.93699 0.90098 0.0
H667 H 0.8674 0.90354 0.87368 0.0
C668 C 0.76896 0.85643 0.78722 0.0
N669 N 0.7758 0.85413 0.80846 0.0
C670 C 0.76378 0.82607 0.77518 0.0
C671 C 0.7753 0.79159 0.80676 0.0
C672 C 0.77989 0.82261 0.81824 0.0
C673 C 0.76616 0.79313 0.78508 0.0
H674 H 0.76584 0.88187 0.77987 0.0
H675 H 0.78501 0.82161 0.8352 0.0
O676 O 0.76594 0.96733 0.85762 0.0
O677 O 0.74271 0.93259 0.81513 0.0
O678 O 0.81812 0.92299 0.83083 0.0
O679 O 0.7581 0.88739 0.8554 0.0
H680 H 0.71512 0.00934 0.84446 0.0
H681 H 0.80467 0.00156 0.88569 0.0
H682 H 0.70746 0.071 0.85588 0.0
H683 H 0.79522 0.06328 0.89661 0.0
H684 H 0.64969 0.89798 0.77523 0.0
H685 H 0.71402 0.99511 0.80911 0.0
H686 H 0.70355 0.88504 0.79567 0.0
H687 H 0.65958 0.006 0.78885 0.0
H688 H 0.80926 0.08737 0.81927 0.0
H689 H 0.77148 0.03378 0.76311 0.0
H690 H 0.64709 0.9811 0.89623 0.0
H691 H 0.60402 0.92467 0.84249 0.0
H692 H 0.87111 0.90457 0.80629 0.0
H693 H 0.83796 0.9757 0.85551 0.0
H694 H 0.92952 0.93294 0.80664 0.0
H695 H 0.89679 0.00287 0.855 0.0
H696 H 0.73903 0.88257 0.89595 0.0
H697 H 0.71308 0.85169 0.83183 0.0
H698 H 0.68681 0.85057 0.9089 0.0
H699 H 0.66157 0.81987 0.84593 0.0
H700 H 0.79545 0.9285 0.93728 0.0
H701 H 0.89342 0.89565 0.90963 0.0
H702 H 0.75716 0.82833 0.75844 0.0
H703 H 0.77714 0.76673 0.81502 0.0
C704 C 0.14036 0.12025 0.04819 0.0
C705 C 0.10728 0.12596 0.05716 0.0
C706 C 0.14407 0.11108 0.02664 0.0
C707 C 0.11397 0.10742 0.0137 0.0
C708 C 0.08043 0.11176 0.02285 0.0
C709 C 0.07747 0.12101 0.04448 0.0
C710 C 0.18032 0.10648 0.01755 0.0
C711 C 0.04773 0.10798 0.0096 0.0
C712 C 0.12961 0.12311 0.95464 0.0
C713 C 0.13373 0.08886 0.94696 0.0
C714 C 0.12181 0.12946 0.97619 0.0
C715 C 0.11796 0.10087 0.9904 0.0
C716 C 0.12049 0.06621 0.98255 0.0
C717 C 0.1284 0.06062 0.96094 0.0
C718 C 0.11935 0.16682 0.98392 0.0
C719 C 0.11623 0.03504 0.99715 0.0
H720 H 0.16346 0.12359 0.05798 0.0
H721 H 0.05185 0.12578 0.05124 0.0
H722 H 0.18265 0.08055 0.00971 0.0
H723 H 0.1852 0.1267 0.00519 0.0
H724 H 0.20094 0.10863 0.02996 0.0
H725 H 0.02365 0.10922 0.01946 0.0
H726 H 0.04668 0.12923 0.99753 0.0
H727 H 0.04802 0.08276 1.00082 0.0
H728 H 0.13409 0.14507 0.94403 0.0
H729 H 0.1311 0.03408 0.95503 0.0
H730 H 0.14125 0.17239 0.99501 0.0
H731 H 0.09471 0.17084 0.99291 0.0
H732 H 0.12037 0.186 0.97061 0.0
H733 H 0.1381 0.03433 0.00875 0.0
H734 H 0.11588 0.00989 0.98824 0.0
H735 H 0.09168 0.03732 0.00644 0.0
C736 C 0.38551 0.57276 0.54042 0.0
C737 C 0.35714 0.59165 0.54858 0.0
C738 C 0.39646 0.57747 0.51919 0.0
C739 C 0.37905 0.6022 0.5061 0.0
C740 C 0.35093 0.62192 0.51453 0.0
C741 C 0.3401 0.61612 0.5356 0.0
C742 C 0.42611 0.55555 0.51064 0.0
C743 C 0.33215 0.6491 0.50129 0.0
C744 C 0.42249 0.64083 0.457 0.0
C745 C 0.40407 0.62427 0.44052 0.0
C746 C 0.41547 0.63304 0.47846 0.0
C747 C 0.38985 0.60762 0.48351 0.0
C748 C 0.37239 0.58959 0.46687 0.0
C749 C 0.3794 0.59847 0.44554 0.0
C750 C 0.43412 0.65339 0.49569 0.0
C751 C 0.34541 0.56183 0.4716 0.0
H752 H 0.39848 0.55367 0.55048 0.0
H753 H 0.3183 0.63088 0.54202 0.0
H754 H 0.41684 0.53971 0.49692 0.0
H755 H 0.44736 0.5727 0.50468 0.0
H756 H 0.43703 0.53762 0.5229 0.0
H757 H 0.31174 0.66316 0.51052 0.0
H758 H 0.35111 0.66858 0.49506 0.0
H759 H 0.31961 0.63645 0.48732 0.0
H760 H 0.44125 0.66114 0.45312 0.0
H761 H 0.36527 0.58559 0.43277 0.0
H762 H 0.44582 0.63529 0.50754 0.0
H763 H 0.41507 0.67009 0.50431 0.0
H764 H 0.45507 0.67043 0.48915 0.0
H765 H 0.35591 0.54254 0.4832 0.0
H766 H 0.33703 0.54768 0.45699 0.0
H767 H 0.32209 0.57409 0.47898 0.0
C768 C 0.88044 0.89625 0.05085 0.0
C769 C 0.90522 0.87066 0.05606 0.0
C770 C 0.87365 0.90493 0.02947 0.0
C771 C 0.89145 0.88693 0.01296 0.0
C772 C 0.9171 0.86163 0.01821 0.0
C773 C 0.9239 0.85404 0.03972 0.0
C774 C 0.84664 0.93258 0.02455 0.0
C775 C 0.9361 0.84132 0.00111 0.0
C776 C 0.84238 0.87921 0.9606 0.0
C777 C 0.8595 0.90399 0.94789 0.0
C778 C 0.8531 0.87288 0.98163 0.0
C779 C 0.88114 0.89245 0.99031 0.0
C780 C 0.89869 0.91743 0.97745 0.0
C781 C 0.88787 0.92263 0.95624 0.0
C782 C 0.83419 0.84546 0.99461 0.0
C783 C 0.92823 0.93922 0.98627 0.0
H784 H 0.86613 0.90919 0.06352 0.0
H785 H 0.94278 0.83394 0.04376 0.0
H786 H 0.85734 0.95201 0.01312 0.0
H787 H 0.82359 0.92024 0.0169 0.0
H788 H 0.83778 0.94657 0.03911 0.0
H789 H 0.95687 0.82422 0.0078 0.0
H790 H 0.91721 0.82468 0.99229 0.0
H791 H 0.94808 0.85945 0.98938 0.0
H792 H 0.8205 0.86476 0.95401 0.0
H793 H 0.90086 0.94198 0.94636 0.0
H794 H 0.82117 0.85794 0.00847 0.0
H795 H 0.85311 0.82609 0.00099 0.0
H796 H 0.81414 0.83132 0.98513 0.0
H797 H 0.91867 0.95511 0.99989 0.0
H798 H 0.93952 0.95711 0.9741 0.0
H799 H 0.94926 0.92201 0.99243 0.0
C800 C 0.63638 0.38494 0.45257 0.0
C801 C 0.60496 0.37048 0.44527 0.0
C802 C 0.64079 0.39382 0.47413 0.0
C803 C 0.61339 0.38728 0.4888 0.0
C804 C 0.58126 0.3735 0.48137 0.0
C805 C 0.57733 0.36556 0.45963 0.0
C806 C 0.6752 0.40912 0.48133 0.0
C807 C 0.55169 0.36549 0.49654 0.0
C808 C 0.64261 0.37135 0.54586 0.0
C809 C 0.6349 0.40346 0.55574 0.0
C810 C 0.63466 0.36543 0.52431 0.0
C811 C 0.61935 0.39253 0.51207 0.0
C812 C 0.61103 0.42483 0.5219 0.0
C813 C 0.61853 0.42977 0.54364 0.0
C814 C 0.64348 0.33038 0.51452 0.0
C815 C 0.59506 0.45449 0.5093 0.0
H816 H 0.65769 0.38882 0.44142 0.0
H817 H 0.55318 0.35393 0.454 0.0
H818 H 0.67069 0.43326 0.49079 0.0
H819 H 0.68889 0.39017 0.49182 0.0
H820 H 0.69258 0.41555 0.46769 0.0
H821 H 0.52762 0.35714 0.48805 0.0
H822 H 0.5597 0.34423 0.50758 0.0
H823 H 0.54552 0.38877 0.50642 0.0
H824 H 0.65589 0.351 0.55476 0.0
H825 H 0.61184 0.45446 0.5511 0.0
H826 H 0.6641 0.33376 0.50226 0.0
H827 H 0.62021 0.31928 0.50642 0.0
H828 H 0.65287 0.31121 0.52656 0.0
H829 H 0.61316 0.46254 0.49637 0.0
H830 H 0.58933 0.47769 0.51941 0.0
H831 H 0.57047 0.44576 0.50161 0.0
C832 C 0.25709 0.28368 0.22848 0.0
C833 C 0.24282 0.24981 0.22876 0.0
C834 C 0.289 0.29107 0.23859 0.0
C835 C 0.30717 0.26396 0.24928 0.0
C836 C 0.29296 0.22969 0.24959 0.0
C837 C 0.26102 0.22302 0.23931 0.0
C838 C 0.30334 0.3279 0.23778 0.0
C839 C 0.31143 0.2001 0.26091 0.0
C840 C 0.40454 0.27367 0.26024 0.0
C841 C 0.4048 0.28325 0.28186 0.0
C842 C 0.37298 0.26779 0.24935 0.0
C843 C 0.34085 0.27148 0.26034 0.0
C844 C 0.34091 0.28181 0.28203 0.0
C845 C 0.37282 0.28761 0.2925 0.0
C846 C 0.37403 0.25689 0.22621 0.0
C847 C 0.30724 0.2862 0.2943 0.0
H848 H 0.24353 0.30442 0.22006 0.0
H849 H 0.25003 0.19687 0.23977 0.0
H850 H 0.30666 0.33821 0.2542 0.0
H851 H 0.3295 0.32785 0.23017 0.0
H852 H 0.28607 0.346 0.22876 0.0
H853 H 0.29712 0.17489 0.25951 0.0
H854 H 0.33804 0.19664 0.25423 0.0
H855 H 0.31446 0.2065 0.27808 0.0
H856 H 0.42909 0.26974 0.25197 0.0
H857 H 0.37276 0.29544 0.30912 0.0
H858 H 0.35803 0.27503 0.21643 0.0
H859 H 0.36259 0.23035 0.22444 0.0
H860 H 0.40104 0.25651 0.21974 0.0
H861 H 0.2902 0.30556 0.28619 0.0
H862 H 0.31173 0.29502 0.31096 0.0
H863 H 0.29285 0.26098 0.2947 0.0
C864 C 0.24644 0.77099 0.70928 0.0
C865 C 0.26255 0.74366 0.72063 0.0
C866 C 0.23807 0.80286 0.71921 0.0
C867 C 0.24546 0.80748 0.74114 0.0
C868 C 0.26139 0.77999 0.75279 0.0
C869 C 0.26994 0.74853 0.74238 0.0
C870 C 0.2214 0.83164 0.70618 0.0
C871 C 0.26946 0.78383 0.77625 0.0
C872 C 0.25475 0.90001 0.76271 0.0
C873 C 0.22187 0.90592 0.77201 0.0
C874 C 0.26259 0.8683 0.75246 0.0
C875 C 0.23721 0.8414 0.75178 0.0
C876 C 0.20403 0.84698 0.76118 0.0
C877 C 0.19668 0.87923 0.77105 0.0
C878 C 0.29817 0.86354 0.74246 0.0
C879 C 0.17637 0.8188 0.76094 0.0
H880 H 0.23984 0.76735 0.69262 0.0
H881 H 0.2827 0.72784 0.75127 0.0
H882 H 0.19564 0.83866 0.71306 0.0
H883 H 0.23792 0.8555 0.70672 0.0
H884 H 0.21761 0.824 0.68924 0.0
H885 H 0.28083 0.75959 0.78318 0.0
H886 H 0.28815 0.80566 0.7787 0.0
H887 H 0.2453 0.79046 0.78515 0.0
H888 H 0.27479 0.91997 0.76375 0.0
H889 H 0.17108 0.88353 0.77793 0.0
H890 H 0.29533 0.85693 0.72531 0.0
H891 H 0.31199 0.84139 0.7502 0.0
H892 H 0.31466 0.88736 0.74386 0.0
H893 H 0.16975 0.81183 0.74424 0.0
H894 H 0.1521 0.82703 0.76925 0.0
H895 H 0.18649 0.79475 0.76873 0.0
C896 C 0.60872 0.76225 0.27316 0.0
C897 C 0.59514 0.72827 0.27528 0.0
C898 C 0.63994 0.76845 0.26207 0.0
C899 C 0.65805 0.74002 0.25275 0.0
C900 C 0.64397 0.70577 0.25424 0.0
C901 C 0.61263 0.7003 0.26549 0.0
C902 C 0.65392 0.80539 0.26076 0.0
C903 C 0.66248 0.6748 0.24445 0.0
C904 C 0.72684 0.76105 0.21079 0.0
C905 C 0.75776 0.75933 0.22277 0.0
C906 C 0.69421 0.75444 0.22026 0.0
C907 C 0.69244 0.74606 0.24224 0.0
C908 C 0.72356 0.74439 0.25442 0.0
C909 C 0.7558 0.75099 0.24454 0.0
C910 C 0.66163 0.75635 0.20673 0.0
C911 C 0.72278 0.73587 0.27794 0.0
H912 H 0.59494 0.78411 0.28029 0.0
H913 H 0.60236 0.67398 0.26713 0.0
H914 H 0.6796 0.80691 0.26891 0.0
H915 H 0.65816 0.81288 0.24386 0.0
H916 H 0.63603 0.82476 0.2682 0.0
H917 H 0.64716 0.65022 0.24598 0.0
H918 H 0.66765 0.67975 0.2273 0.0
H919 H 0.68814 0.671 0.25234 0.0
H920 H 0.72821 0.76697 0.1939 0.0
H921 H 0.77954 0.74998 0.25393 0.0
H922 H 0.64368 0.77654 0.21318 0.0
H923 H 0.64759 0.73095 0.20728 0.0
H924 H 0.66749 0.76277 0.18982 0.0
H925 H 0.70711 0.75577 0.28657 0.0
H926 H 0.74934 0.73502 0.28506 0.0
H927 H 0.71 0.71013 0.28053 0.0
C928 C 0.71516 0.22938 0.72555 0.0
C929 C 0.73654 0.25907 0.72705 0.0
C930 C 0.72428 0.19799 0.73585 0.0
C931 C 0.75582 0.19612 0.74763 0.0
C932 C 0.77761 0.226 0.74906 0.0
C933 C 0.76758 0.25717 0.73888 0.0
C934 C 0.70009 0.16688 0.73422 0.0
C935 C 0.81167 0.22493 0.76119 0.0
C936 C 0.76445 0.1256 0.79011 0.0
C937 C 0.78299 0.09944 0.77923 0.0
C938 C 0.75556 0.1572 0.78005 0.0
C939 C 0.76583 0.16301 0.75864 0.0
C940 C 0.78519 0.13698 0.74769 0.0
C941 C 0.79329 0.10536 0.75807 0.0
C942 C 0.73451 0.18406 0.79218 0.0
C943 C 0.7971 0.14243 0.72498 0.0
H944 H 0.69108 0.23085 0.71649 0.0
H945 H 0.78443 0.27994 0.73979 0.0
H946 H 0.71394 0.14451 0.72675 0.0
H947 H 0.69191 0.15841 0.7504 0.0
H948 H 0.67634 0.17274 0.72468 0.0
H949 H 0.82588 0.25027 0.7605 0.0
H950 H 0.80672 0.21833 0.77816 0.0
H951 H 0.82875 0.20413 0.75458 0.0
H952 H 0.75593 0.12088 0.80636 0.0
H953 H 0.80774 0.08524 0.74965 0.0
H954 H 0.70937 0.18886 0.78387 0.0
H955 H 0.74874 0.20935 0.7927 0.0
H956 H 0.72886 0.17567 0.8088 0.0
H957 H 0.77409 0.14562 0.71439 0.0
H958 H 0.81307 0.12021 0.719 0.0
H959 H 0.81275 0.16681 0.72378 0.0
C960 C 0.77571 0.2586 0.28417 0.0
C961 C 0.74392 0.25244 0.27364 0.0
C962 C 0.80784 0.25193 0.27412 0.0
C963 C 0.80829 0.23872 0.25301 0.0
C964 C 0.77634 0.23239 0.2423 0.0
C965 C 0.74458 0.23934 0.25272 0.0
C966 C 0.84132 0.25903 0.28609 0.0
C967 C 0.77568 0.21847 0.21976 0.0
C968 C 0.88923 0.25308 0.21898 0.0
C969 C 0.90568 0.22027 0.22001 0.0
C970 C 0.85774 0.25946 0.22975 0.0
C971 C 0.84219 0.23239 0.24191 0.0
C972 C 0.85885 0.19931 0.24326 0.0
C973 C 0.89048 0.19368 0.23235 0.0
C974 C 0.84105 0.29519 0.22805 0.0
C975 C 0.84304 0.16975 0.25601 0.0
H976 H 0.77549 0.26814 0.30045 0.0
H977 H 0.7202 0.23486 0.24437 0.0
H978 H 0.857 0.23467 0.28724 0.0
H979 H 0.85728 0.2785 0.27728 0.0
H980 H 0.83651 0.26909 0.30245 0.0
H981 H 0.74867 0.21417 0.21384 0.0
H982 H 0.78904 0.23714 0.20892 0.0
H983 H 0.79012 0.19332 0.21891 0.0
H984 H 0.90119 0.27398 0.20982 0.0
H985 H 0.90299 0.16824 0.23313 0.0
H986 H 0.8378 0.30672 0.24417 0.0
H987 H 0.81462 0.29281 0.22093 0.0
H988 H 0.85669 0.31354 0.21815 0.0
H989 H 0.83931 0.17801 0.27283 0.0
H990 H 0.85953 0.14582 0.25577 0.0
H991 H 0.81689 0.16312 0.24954 0.0
C992 C 0.25978 0.37561 0.71057 0.0
C993 C 0.28005 0.40177 0.72026 0.0
C994 C 0.2516 0.34447 0.72138 0.0
C995 C 0.26416 0.33918 0.74237 0.0
C996 C 0.28498 0.36531 0.75217 0.0
C997 C 0.29251 0.39638 0.74104 0.0
C998 C 0.22907 0.31743 0.71043 0.0
C999 C 0.29919 0.36047 0.77445 0.0
C1000 C 0.21703 0.2733 0.77776 0.0
C1001 C 0.23832 0.24361 0.7757 0.0
C1002 C 0.22511 0.30458 0.767 0.0
C1003 C 0.25541 0.30632 0.75405 0.0
C1004 C 0.2771 0.27647 0.75203 0.0
C1005 C 0.26823 0.24548 0.7628 0.0
C1006 C 0.20112 0.33571 0.76938 0.0
C1007 C 0.30978 0.27733 0.73855 0.0
H1008 H 0.24955 0.37986 0.69465 0.0
H1009 H 0.30833 0.41643 0.74856 0.0
H1010 H 0.24318 0.29211 0.70948 0.0
H1011 H 0.20498 0.31287 0.71987 0.0
H1012 H 0.22148 0.32549 0.69404 0.0
H1013 H 0.31548 0.38298 0.77966 0.0
H1014 H 0.27734 0.35722 0.7859 0.0
H1015 H 0.31523 0.3363 0.77521 0.0
H1016 H 0.19379 0.27193 0.78759 0.0
H1017 H 0.28511 0.2228 0.76144 0.0
H1018 H 0.19099 0.34368 0.75352 0.0
H1019 H 0.2158 0.35833 0.77595 0.0
H1020 H 0.17861 0.33011 0.78003 0.0
H1021 H 0.303 0.28357 0.72177 0.0
H1022 H 0.3241 0.25203 0.73887 0.0
H1023 H 0.3275 0.2983 0.7443 0.0
C1024 C 0.24447 0.78665 0.27819 0.0
C1025 C 0.25782 0.75239 0.2783 0.0
C1026 C 0.21265 0.79454 0.26816 0.0
C1027 C 0.19359 0.76753 0.258 0.0
C1028 C 0.20655 0.73277 0.25838 0.0
C1029 C 0.23849 0.72562 0.26854 0.0
C1030 C 0.19965 0.83188 0.2682 0.0
C1031 C 0.18699 0.70326 0.2477 0.0
C1032 C 0.09725 0.78104 0.24536 0.0
C1033 C 0.09836 0.78915 0.22353 0.0
C1034 C 0.12805 0.77435 0.25686 0.0
C1035 C 0.16072 0.77584 0.2463 0.0
C1036 C 0.16204 0.78482 0.2244 0.0
C1037 C 0.13088 0.79136 0.2133 0.0
C1038 C 0.12557 0.76486 0.2802 0.0
C1039 C 0.19635 0.78694 0.21258 0.0
H1040 H 0.2589 0.80738 0.28605 0.0
H1041 H 0.24874 0.69916 0.26842 0.0
H1042 H 0.19774 0.8417 0.25158 0.0
H1043 H 0.17306 0.83311 0.2752 0.0
H1044 H 0.21705 0.84965 0.27737 0.0
H1045 H 0.19988 0.6775 0.25014 0.0
H1046 H 0.15994 0.70177 0.25397 0.0
H1047 H 0.18511 0.70834 0.23031 0.0
H1048 H 0.07219 0.77881 0.25329 0.0
H1049 H 0.13194 0.798 0.19649 0.0
H1050 H 0.14207 0.78274 0.28984 0.0
H1051 H 0.13561 0.73792 0.2827 0.0
H1052 H 0.09833 0.76617 0.28626 0.0
H1053 H 0.21396 0.80596 0.22055 0.0
H1054 H 0.19294 0.79501 0.19568 0.0
H1055 H 0.20955 0.76108 0.21293 0.0
C1056 C 0.72898 0.62676 0.71034 0.0
C1057 C 0.7098 0.60112 0.72129 0.0
C1058 C 0.73793 0.65855 0.72017 0.0
C1059 C 0.72714 0.66503 0.74141 0.0
C1060 C 0.70706 0.63957 0.75238 0.0
C1061 C 0.69886 0.6078 0.74224 0.0
C1062 C 0.7597 0.68481 0.70801 0.0
C1063 C 0.69463 0.64572 0.77492 0.0
C1064 C 0.77799 0.73071 0.77485 0.0
C1065 C 0.757 0.76068 0.77326 0.0
C1066 C 0.76876 0.69952 0.76439 0.0
C1067 C 0.73752 0.69813 0.75229 0.0
C1068 C 0.71625 0.72833 0.75062 0.0
C1069 C 0.72635 0.75929 0.76102 0.0
C1070 C 0.79239 0.66802 0.76633 0.0
C1071 C 0.68257 0.7278 0.73809 0.0
H1072 H 0.73801 0.62147 0.69426 0.0
H1073 H 0.68391 0.58808 0.7507 0.0
H1074 H 0.74604 0.7104 0.70731 0.0
H1075 H 0.78483 0.68914 0.71642 0.0
H1076 H 0.76537 0.6761 0.69146 0.0
H1077 H 0.678 0.62398 0.78089 0.0
H1078 H 0.71741 0.64858 0.78572 0.0
H1079 H 0.6795 0.67046 0.77578 0.0
H1080 H 0.80179 0.73177 0.7842 0.0
H1081 H 0.70976 0.78224 0.76001 0.0
H1082 H 0.80064 0.65915 0.75024 0.0
H1083 H 0.77804 0.64602 0.77386 0.0
H1084 H 0.8161 0.67362 0.77596 0.0
H1085 H 0.68784 0.72055 0.72126 0.0
H1086 H 0.669 0.75351 0.73834 0.0
H1087 H 0.66474 0.70764 0.74474 0.0
C1088 C 0.97859 0.57391 0.11022 0.0
C1089 C 0.98063 0.58946 0.13043 0.0
C1090 C 0.98897 0.53899 0.10714 0.0
C1091 C 0.00127 0.51932 0.12475 0.0
C1092 C 0.00313 0.53491 0.1452 0.0
C1093 C 0.99284 0.56979 0.14777 0.0
C1094 C 0.98688 0.52318 0.08511 0.0
C1095 C 0.01576 0.51467 0.16444 0.0
C1096 C 0.99825 0.42044 0.1267 0.0
C1097 C 0.03368 0.41193 0.1245 0.0
C1098 C 0.98698 0.45529 0.12562 0.0
C1099 C 0.01178 0.48219 0.12217 0.0
C1100 C 0.0473 0.47358 0.11873 0.0
C1101 C 0.05788 0.43848 0.12005 0.0
C1102 C 0.94892 0.46347 0.12955 0.0
C1103 C 0.0744 0.50156 0.11478 0.0
H1104 H 0.96935 0.5892 0.09678 0.0
H1105 H 0.9939 0.58162 0.16348 0.0
H1106 H 0.01306 0.51383 0.0801 0.0
H1107 H 0.9693 0.50008 0.08529 0.0
H1108 H 0.97711 0.54213 0.07306 0.0
H1109 H 0.01561 0.53074 0.17921 0.0
H1110 H 0.99894 0.49139 0.16703 0.0
H1111 H 0.04272 0.50507 0.16167 0.0
H1112 H 0.97952 0.4 0.13036 0.0
H1113 H 0.08524 0.43186 0.1181 0.0
H1114 H 0.93882 0.48157 0.11716 0.0
H1115 H 0.9461 0.47681 0.14519 0.0
H1116 H 0.93248 0.4395 0.12969 0.0
H1117 H 0.06536 0.51996 0.10225 0.0
H1118 H 0.09993 0.49032 0.10986 0.0
H1119 H 0.0784 0.51699 0.12958 0.0
C1120 C 0.92132 0.48278 0.61237 0.0
C1121 C 0.91383 0.4674 0.6322 0.0
C1122 C 0.95478 0.49594 0.60788 0.0
C1123 C 0.98103 0.49414 0.62373 0.0
C1124 C 0.97395 0.47753 0.64345 0.0
C1125 C 0.94057 0.46405 0.64734 0.0
C1126 C 0.96166 0.51283 0.58652 0.0
C1127 C 0.00126 0.47513 0.66081 0.0
C1128 C 0.07796 0.50564 0.61486 0.0
C1129 C 0.08324 0.53953 0.62293 0.0
C1130 C 0.0443 0.49138 0.61336 0.0
C1131 C 0.0154 0.51126 0.62048 0.0
C1132 C 0.02028 0.54629 0.62722 0.0
C1133 C 0.05414 0.56012 0.62816 0.0
C1134 C 0.04 0.4542 0.60561 0.0
C1135 C 0.99009 0.56832 0.635 0.0
H1136 H 0.90076 0.4857 0.60063 0.0
H1137 H 0.93521 0.45144 0.66248 0.0
H1138 H 0.96488 0.54149 0.58861 0.0
H1139 H 0.98629 0.50267 0.57953 0.0
H1140 H 0.94003 0.5082 0.57505 0.0
H1141 H 0.9917 0.46073 0.67506 0.0
H1142 H 0.02492 0.46171 0.65471 0.0
H1143 H 0.00919 0.50185 0.66582 0.0
H1144 H 0.10022 0.48938 0.61087 0.0
H1145 H 0.05793 0.58663 0.63388 0.0
H1146 H 0.01731 0.45204 0.59468 0.0
H1147 H 0.03495 0.43674 0.61942 0.0
H1148 H 0.06371 0.44463 0.59722 0.0
H1149 H 0.96827 0.56763 0.62338 0.0
H1150 H 0.99774 0.59604 0.63768 0.0
H1151 H 0.98015 0.55744 0.65026 0.0
C1152 C 0.52728 0.07313 0.39644 0.0
C1153 C 0.53829 0.08381 0.3761 0.0
C1154 C 0.51504 0.03895 0.39998 0.0
C1155 C 0.51381 0.01506 0.38276 0.0
C1156 C 0.52537 0.02556 0.36228 0.0
C1157 C 0.53739 0.0598 0.3592 0.0
C1158 C 0.50301 0.02855 0.42202 0.0
C1159 C 0.52442 0.00081 0.34347 0.0
C1160 C 0.51098 0.91663 0.38864 0.0
C1161 C 0.47631 0.90948 0.38288 0.0
C1162 C 0.52308 0.95118 0.39014 0.0
C1163 C 0.49991 0.97912 0.38575 0.0
C1164 C 0.46426 0.97211 0.38149 0.0
C1165 C 0.45286 0.93729 0.38012 0.0
C1166 C 0.56119 0.95761 0.39491 0.0
C1167 C 0.43873 0.00125 0.3768 0.0
H1168 H 0.52819 0.09154 0.40959 0.0
H1169 H 0.54522 0.06806 0.34336 0.0
H1170 H 0.47493 0.02139 0.4216 0.0
H1171 H 0.51756 0.0051 0.42752 0.0
H1172 H 0.50669 0.04989 0.43385 0.0
H1173 H 0.53507 0.01289 0.32872 0.0
H1174 H 0.53975 0.97688 0.3471 0.0
H1175 H 0.49712 0.99249 0.34035 0.0
H1176 H 0.52901 0.89512 0.39114 0.0
H1177 H 0.42609 0.93187 0.37555 0.0
H1178 H 0.56419 0.97867 0.40696 0.0
H1179 H 0.57461 0.96644 0.38017 0.0
H1180 H 0.57451 0.93366 0.40083 0.0
H1181 H 0.44112 0.02244 0.38881 0.0
H1182 H 0.41128 0.99182 0.3766 0.0
H1183 H 0.44478 0.01281 0.36097 0.0
C1184 C 0.43698 0.03692 0.85398 0.0
C1185 C 0.4143 0.0388 0.87149 0.0
C1186 C 0.47089 0.02377 0.85623 0.0
C1187 C 0.48244 0.01229 0.87651 0.0
C1188 C 0.46003 0.01494 0.89439 0.0
C1189 C 0.42608 0.02807 0.89164 0.0
C1190 C 0.494 0.02121 0.83674 0.0
C1191 C 0.47167 0.00327 0.91627 0.0
C1192 C 0.55603 0.94647 0.87324 0.0
C1193 C 0.58536 0.9682 0.87525 0.0
C1194 C 0.52218 0.96019 0.87482 0.0
C1195 C 0.51764 0.99645 0.8786 0.0
C1196 C 0.5471 0.01809 0.882 0.0
C1197 C 0.58065 0.00372 0.88022 0.0
C1198 C 0.49134 0.93625 0.87118 0.0
C1199 C 0.54327 0.05686 0.88616 0.0
H1200 H 0.42777 0.04461 0.8383 0.0
H1201 H 0.40863 0.02975 0.90523 0.0
H1202 H 0.5189 0.03533 0.83953 0.0
H1203 H 0.50058 0.99338 0.83361 0.0
H1204 H 0.48137 0.03225 0.82227 0.0
H1205 H 0.45176 0.00882 0.92871 0.0
H1206 H 0.47699 0.97471 0.91614 0.0
H1207 H 0.49639 0.01658 0.9207 0.0
H1208 H 0.55956 0.91889 0.86976 0.0
H1209 H 0.60319 0.02075 0.8816 0.0
H1210 H 0.47851 0.94314 0.85587 0.0
H1211 H 0.47168 0.93967 0.884 0.0
H1212 H 0.49913 0.90824 0.87056 0.0
H1213 H 0.53433 0.07012 0.87138 0.0
H1214 H 0.56827 0.06902 0.89127 0.0
H1215 H 0.52328 0.06169 0.89862 0.0
loop_
_geom_bond_atom_site_label_1
_geom_bond_atom_site_label_2
_geom_bond_distance
_geom_bond_site_symmetry_2
_ccdc_geom_bond_type
Li0 N17 1.990 . S
Li0 O60 1.956 . S
Li0 O61 1.970 . S
Li0 O62 1.961 . S
Li1 N25 1.990 . S
Li1 O60 1.970 . S
Li1 O61 1.956 . S
Li1 O63 1.961 . S
Li2 N47 1.990 . S
Li2 O60 1.961 . S
Li2 O62 1.956 . S
Li2 O63 1.970 . S
Li3 N53 1.990 1_455 S
Li3 O61 1.961 . S
Li3 O62 1.970 . S
Li3 O63 1.956 . S
C4 C6 1.348 . S
C4 C7 1.356 . S
C4 O60 1.325 . S
N5 C8 1.314 . S
N5 C9 1.279 . S
C6 C4 1.348 . S
C6 C8 1.353 . S
C6 H64 0.929 . S
C7 C4 1.356 . S
C7 C9 1.358 . S
C7 H65 0.930 . S
C8 N5 1.314 . S
C8 C6 1.353 . S
C8 H66 0.930 . S
C9 N5 1.279 . S
C9 C7 1.358 . S
C9 H67 0.930 . S
C10 C13 1.348 . S
C10 C14 1.356 . S
C10 O61 1.325 . S
C11 N12 1.279 . S
C11 C14 1.358 . S
C11 H68 0.930 . S
N12 C11 1.279 . S
N12 C15 1.314 . S
C13 C10 1.348 . S
C13 C15 1.353 . S
C13 H69 0.929 . S
C14 C10 1.356 . S
C14 C11 1.358 . S
C14 H70 0.930 . S
C15 N12 1.314 . S
C15 C13 1.353 . S
C15 H71 0.930 . S
C16 N17 1.314 . S
C16 C21 1.353 . S
C16 H22 0.930 . S
N17 Li0 1.990 . S
N17 C16 1.314 . S
N17 C19 1.279 . S
C18 C19 1.358 . S
C18 C20 1.356 . S
C18 H72 0.930 . S
C19 N17 1.279 . S
C19 C18 1.358 . S
C19 H23 0.930 . S
C20 C18 1.356 . S
C20 C21 1.348 . S
C21 C16 1.353 . S
C21 C20 1.348 . S
C21 H73 0.929 1_455 S
H22 C16 0.930 . S
H23 C19 0.930 . S
C24 N25 1.314 . S
C24 C26 1.353 . S
C24 H30 0.930 . S
N25 Li1 1.990 . S
N25 C24 1.314 . S
N25 C28 1.279 . S
C26 C24 1.353 . S
C26 C29 1.348 . S
C26 H74 0.929 . S
C27 C28 1.358 . S
C27 C29 1.356 . S
C27 H75 0.930 . S
C28 N25 1.279 . S
C28 C27 1.358 . S
C28 H31 0.930 . S
C29 C26 1.348 . S
C29 C27 1.356 . S
H30 C24 0.930 . S
H31 C28 0.930 . S
C32 C34 1.348 . S
C32 C35 1.356 . S
C32 O62 1.325 1_655 S
N33 C36 1.314 . S
N33 C37 1.279 . S
C34 C32 1.348 . S
C34 C36 1.353 . S
C34 H76 0.929 . S
C35 C32 1.356 . S
C35 C37 1.358 . S
C35 H77 0.930 1_655 S
C36 N33 1.314 . S
C36 C34 1.353 . S
C36 H78 0.930 . S
C37 N33 1.279 . S
C37 C35 1.358 . S
C37 H79 0.930 . S
C38 C39 1.348 . S
C38 C40 1.356 . S
C38 O63 1.325 . S
C39 C38 1.348 . S
C39 C41 1.353 . S
C39 H80 0.929 . S
C40 C38 1.356 . S
C40 C42 1.358 . S
C40 H81 0.930 . S
C41 C39 1.353 . S
C41 N43 1.314 . S
C41 H82 0.930 . S
C42 C40 1.358 . S
C42 N43 1.279 . S
C42 H83 0.930 . S
N43 C41 1.314 . S
N43 C42 1.279 . S
C44 C46 1.353 . S
C44 N47 1.314 . S
C44 H50 0.930 . S
C45 N47 1.279 . S
C45 C48 1.358 . S
C45 H51 0.930 . S
C46 C44 1.353 . S
C46 C49 1.348 . S
C46 H84 0.929 . S
N47 Li2 1.990 . S
N47 C44 1.314 . S
N47 C45 1.279 . S
C48 C45 1.358 . S
C48 C49 1.356 . S
C48 H85 0.930 . S
C49 C46 1.348 . S
C49 C48 1.356 . S
H50 C44 0.930 . S
H51 C45 0.930 . S
C52 N53 1.314 . S
C52 C54 1.353 . S
C52 H58 0.930 . S
N53 Li3 1.990 1_655 S
N53 C52 1.314 . S
N53 C56 1.279 . S
C54 C52 1.353 . S
C54 C57 1.348 . S
C54 H86 0.929 . S
C55 C56 1.358 . S
C55 C57 1.356 . S
C55 H87 0.930 . S
C56 N53 1.279 . S
C56 C55 1.358 . S
C56 H59 0.930 . S
C57 C54 1.348 . S
C57 C55 1.356 . S
H58 C52 0.930 . S
H59 C56 0.930 . S
O60 Li0 1.956 . S
O60 Li1 1.970 . S
O60 Li2 1.961 . S
O60 C4 1.325 . S
O61 Li0 1.970 . S
O61 Li1 1.956 . S
O61 Li3 1.961 . S
O61 C10 1.325 . S
O62 Li0 1.961 . S
O62 Li2 1.956 . S
O62 Li3 1.970 . S
O62 C32 1.325 1_455 S
O63 Li1 1.961 . S
O63 Li2 1.970 . S
O63 Li3 1.956 . S
O63 C38 1.325 . S
H64 C6 0.929 . S
H65 C7 0.930 . S
H66 C8 0.930 . S
H67 C9 0.930 . S
H68 C11 0.930 . S
H69 C13 0.929 . S
H70 C14 0.930 . S
H71 C15 0.930 . S
H72 C18 0.930 . S
H73 C21 0.929 1_655 S
H74 C26 0.929 . S
H75 C27 0.930 . S
H76 C34 0.929 . S
H77 C35 0.930 1_455 S
H78 C36 0.930 . S
H79 C37 0.930 . S
H80 C39 0.929 . S
H81 C40 0.930 . S
H82 C41 0.930 . S
H83 C42 0.930 . S
H84 C46 0.929 . S
H85 C48 0.930 . S
H86 C54 0.929 . S
H87 C55 0.930 . S
Li88 N105 1.990 . S
Li88 O148 1.956 . S
Li88 O149 1.970 . S
Li88 O150 1.961 . S
Li89 N113 1.990 . S
Li89 O148 1.970 . S
Li89 O149 1.956 . S
Li89 O151 1.961 . S
Li90 N135 1.990 . S
Li90 O148 1.961 . S
Li90 O150 1.956 . S
Li90 O151 1.970 . S
Li91 N141 1.990 . S
Li91 O149 1.961 . S
Li91 O150 1.970 . S
Li91 O151 1.956 . S
C92 C94 1.348 . S
C92 C95 1.356 . S
C92 O148 1.325 . S
N93 C96 1.314 . S
N93 C97 1.279 . S
C94 C92 1.348 . S
C94 C96 1.353 . S
C94 H152 0.929 . S
C95 C92 1.356 . S
C95 C97 1.358 . S
C95 H153 0.930 . S
C96 N93 1.314 . S
C96 C94 1.353 . S
C96 H154 0.930 . S
C97 N93 1.279 . S
C97 C95 1.358 . S
C97 H155 0.930 . S
C98 C101 1.348 . S
C98 C102 1.356 . S
C98 O149 1.325 . S
C99 N100 1.279 . S
C99 C102 1.358 . S
C99 H156 0.930 . S
N100 C99 1.279 . S
N100 C103 1.314 . S
C101 C98 1.348 . S
C101 C103 1.353 . S
C101 H157 0.929 . S
C102 C98 1.356 . S
C102 C99 1.358 . S
C102 H158 0.930 . S
C103 N100 1.314 . S
C103 C101 1.353 . S
C103 H159 0.930 . S
C104 N105 1.314 . S
C104 C109 1.353 . S
C104 H110 0.930 . S
N105 Li88 1.990 . S
N105 C104 1.314 . S
N105 C107 1.279 . S
C106 C107 1.358 . S
C106 C108 1.356 . S
C106 H160 0.930 . S
C107 N105 1.279 . S
C107 C106 1.358 . S
C107 H111 0.930 . S
C108 C106 1.356 . S
C108 C109 1.348 . S
C109 C104 1.353 . S
C109 C108 1.348 . S
C109 H161 0.929 . S
H110 C104 0.930 . S
H111 C107 0.930 . S
C112 N113 1.314 . S
C112 C114 1.353 . S
C112 H118 0.930 . S
N113 Li89 1.990 . S
N113 C112 1.314 . S
N113 C116 1.279 . S
C114 C112 1.353 . S
C114 C117 1.348 . S
C114 H162 0.929 . S
C115 C116 1.358 . S
C115 C117 1.356 . S
C115 H163 0.930 . S
C116 N113 1.279 . S
C116 C115 1.358 . S
C116 H119 0.930 . S
C117 C114 1.348 . S
C117 C115 1.356 . S
H118 C112 0.930 . S
H119 C116 0.930 . S
C120 C122 1.348 . S
C120 C123 1.356 . S
C120 O150 1.325 . S
N121 C124 1.314 . S
N121 C125 1.279 . S
C122 C120 1.348 . S
C122 C124 1.353 . S
C122 H164 0.929 . S
C123 C120 1.356 . S
C123 C125 1.358 . S
C123 H165 0.930 . S
C124 N121 1.314 . S
C124 C122 1.353 . S
C124 H166 0.930 . S
C125 N121 1.279 . S
C125 C123 1.358 . S
C125 H167 0.930 . S
C126 C127 1.348 . S
C126 C128 1.356 . S
C126 O151 1.325 . S
C127 C126 1.348 . S
C127 C129 1.353 . S
C127 H168 0.929 . S
C128 C126 1.356 . S
C128 C130 1.358 . S
C128 H169 0.930 . S
C129 C127 1.353 . S
C129 N131 1.314 . S
C129 H170 0.930 . S
C130 C128 1.358 . S
C130 N131 1.279 . S
C130 H171 0.930 . S
N131 C129 1.314 . S
N131 C130 1.279 . S
C132 C134 1.353 . S
C132 N135 1.314 . S
C132 H138 0.930 . S
C133 N135 1.279 . S
C133 C136 1.358 . S
C133 H139 0.930 . S
C134 C132 1.353 . S
C134 C137 1.348 . S
C134 H172 0.929 . S
N135 Li90 1.990 . S
N135 C132 1.314 . S
N135 C133 1.279 . S
C136 C133 1.358 . S
C136 C137 1.356 . S
C136 H173 0.930 . S
C137 C134 1.348 . S
C137 C136 1.356 . S
H138 C132 0.930 . S
H139 C133 0.930 . S
C140 N141 1.314 . S
C140 C142 1.353 . S
C140 H146 0.930 . S
N141 Li91 1.990 . S
N141 C140 1.314 . S
N141 C144 1.279 . S
C142 C140 1.353 . S
C142 C145 1.348 . S
C142 H174 0.929 . S
C143 C144 1.358 . S
C143 C145 1.356 . S
C143 H175 0.930 . S
C144 N141 1.279 . S
C144 C143 1.358 . S
C144 H147 0.930 . S
C145 C142 1.348 . S
C145 C143 1.356 . S
H146 C140 0.930 . S
H147 C144 0.930 . S
O148 Li88 1.956 . S
O148 Li89 1.970 . S
O148 Li90 1.961 . S
O148 C92 1.325 . S
O149 Li88 1.970 . S
O149 Li89 1.956 . S
O149 Li91 1.961 . S
O149 C98 1.325 . S
O150 Li88 1.961 . S
O150 Li90 1.956 . S
O150 Li91 1.970 . S
O150 C120 1.325 . S
O151 Li89 1.961 . S
O151 Li90 1.970 . S
O151 Li91 1.956 . S
O151 C126 1.325 . S
H152 C94 0.929 . S
H153 C95 0.930 . S
H154 C96 0.930 . S
H155 C97 0.930 . S
H156 C99 0.930 . S
H157 C101 0.929 . S
H158 C102 0.930 . S
H159 C103 0.930 . S
H160 C106 0.930 . S
H161 C109 0.929 . S
H162 C114 0.929 . S
H163 C115 0.930 . S
H164 C122 0.929 . S
H165 C123 0.930 . S
H166 C124 0.930 . S
H167 C125 0.930 . S
H168 C127 0.929 . S
H169 C128 0.930 . S
H170 C129 0.930 . S
H171 C130 0.930 . S
H172 C134 0.929 . S
H173 C136 0.930 . S
H174 C142 0.929 . S
H175 C143 0.930 . S
Li176 N193 1.990 . S
Li176 O236 1.956 . S
Li176 O237 1.970 . S
Li176 O238 1.961 . S
Li177 N201 1.990 . S
Li177 O236 1.970 . S
Li177 O237 1.956 . S
Li177 O239 1.961 . S
Li178 N223 1.990 1_655 S
Li178 O236 1.961 . S
Li178 O238 1.956 . S
Li178 O239 1.970 . S
Li179 N229 1.990 . S
Li179 O237 1.961 . S
Li179 O238 1.970 . S
Li179 O239 1.956 . S
C180 C182 1.348 . S
C180 C183 1.356 . S
C180 O236 1.325 . S
N181 C184 1.314 . S
N181 C185 1.279 . S
C182 C180 1.348 . S
C182 C184 1.353 . S
C182 H240 0.929 . S
C183 C180 1.356 . S
C183 C185 1.358 . S
C183 H241 0.930 . S
C184 N181 1.314 . S
C184 C182 1.353 . S
C184 H242 0.930 . S
C185 N181 1.279 . S
C185 C183 1.358 . S
C185 H243 0.930 . S
C186 C189 1.348 . S
C186 C190 1.356 . S
C186 O237 1.325 . S
C187 N188 1.279 . S
C187 C190 1.358 . S
C187 H244 0.930 . S
N188 C187 1.279 . S
N188 C191 1.314 . S
C189 C186 1.348 . S
C189 C191 1.353 . S
C189 H245 0.929 . S
C190 C186 1.356 . S
C190 C187 1.358 . S
C190 H246 0.930 . S
C191 N188 1.314 . S
C191 C189 1.353 . S
C191 H247 0.930 . S
C192 N193 1.314 . S
C192 C197 1.353 . S
C192 H198 0.930 . S
N193 Li176 1.990 . S
N193 C192 1.314 . S
N193 C195 1.279 . S
C194 C195 1.358 . S
C194 C196 1.356 . S
C194 H248 0.930 . S
C195 N193 1.279 . S
C195 C194 1.358 . S
C195 H199 0.930 . S
C196 C194 1.356 . S
C196 C197 1.348 . S
C197 C192 1.353 . S
C197 C196 1.348 . S
C197 H249 0.929 . S
H198 C192 0.930 . S
H199 C195 0.930 . S
C200 N201 1.314 . S
C200 C202 1.353 . S
C200 H206 0.930 . S
N201 Li177 1.990 . S
N201 C200 1.314 . S
N201 C204 1.279 . S
C202 C200 1.353 . S
C202 C205 1.348 . S
C202 H250 0.929 1_655 S
C203 C204 1.358 . S
C203 C205 1.356 . S
C203 H251 0.930 . S
C204 N201 1.279 . S
C204 C203 1.358 . S
C204 H207 0.930 . S
C205 C202 1.348 . S
C205 C203 1.356 . S
H206 C200 0.930 . S
H207 C204 0.930 . S
C208 C210 1.348 . S
C208 C211 1.356 . S
C208 O238 1.325 . S
N209 C212 1.314 . S
N209 C213 1.279 . S
C210 C208 1.348 . S
C210 C212 1.353 . S
C210 H252 0.929 . S
C211 C208 1.356 . S
C211 C213 1.358 . S
C211 H253 0.930 . S
C212 N209 1.314 . S
C212 C210 1.353 . S
C212 H254 0.930 . S
C213 N209 1.279 . S
C213 C211 1.358 . S
C213 H255 0.930 . S
C214 C215 1.348 . S
C214 C216 1.356 . S
C214 O239 1.325 1_455 S
C215 C214 1.348 . S
C215 C217 1.353 . S
C215 H256 0.929 . S
C216 C214 1.356 . S
C216 C218 1.358 . S
C216 H257 0.930 1_455 S
C217 C215 1.353 . S
C217 N219 1.314 . S
C217 H258 0.930 . S
C218 C216 1.358 . S
C218 N219 1.279 . S
C218 H259 0.930 . S
N219 C217 1.314 . S
N219 C218 1.279 . S
C220 C222 1.353 . S
C220 N223 1.314 . S
C220 H226 0.930 . S
C221 N223 1.279 . S
C221 C224 1.358 . S
C221 H227 0.930 . S
C222 C220 1.353 . S
C222 C225 1.348 . S
C222 H260 0.929 . S
N223 Li178 1.990 1_455 S
N223 C220 1.314 . S
N223 C221 1.279 . S
C224 C221 1.358 . S
C224 C225 1.356 . S
C224 H261 0.930 . S
C225 C222 1.348 . S
C225 C224 1.356 . S
H226 C220 0.930 . S
H227 C221 0.930 . S
C228 N229 1.314 . S
C228 C230 1.353 . S
C228 H234 0.930 . S
N229 Li179 1.990 . S
N229 C228 1.314 . S
N229 C232 1.279 . S
C230 C228 1.353 . S
C230 C233 1.348 . S
C230 H262 0.929 . S
C231 C232 1.358 . S
C231 C233 1.356 . S
C231 H263 0.930 . S
C232 N229 1.279 . S
C232 C231 1.358 . S
C232 H235 0.930 . S
C233 C230 1.348 . S
C233 C231 1.356 . S
H234 C228 0.930 . S
H235 C232 0.930 . S
O236 Li176 1.956 . S
O236 Li177 1.970 . S
O236 Li178 1.961 . S
O236 C180 1.325 . S
O237 Li176 1.970 . S
O237 Li177 1.956 . S
O237 Li179 1.961 . S
O237 C186 1.325 . S
O238 Li176 1.961 . S
O238 Li178 1.956 . S
O238 Li179 1.970 . S
O238 C208 1.325 . S
O239 Li177 1.961 . S
O239 Li178 1.970 . S
O239 Li179 1.956 . S
O239 C214 1.325 1_655 S
H240 C182 0.929 . S
H241 C183 0.930 . S
H242 C184 0.930 . S
H243 C185 0.930 . S
H244 C187 0.930 . S
H245 C189 0.929 . S
H246 C190 0.930 . S
H247 C191 0.930 . S
H248 C194 0.930 . S
H249 C197 0.929 . S
H250 C202 0.929 1_455 S
H251 C203 0.930 . S
H252 C210 0.929 . S
H253 C211 0.930 . S
H254 C212 0.930 . S
H255 C213 0.930 . S
H256 C215 0.929 . S
H257 C216 0.930 1_655 S
H258 C217 0.930 . S
H259 C218 0.930 . S
H260 C222 0.929 . S
H261 C224 0.930 . S
H262 C230 0.929 . S
H263 C231 0.930 . S
Li264 N281 1.990 . S
Li264 O324 1.956 . S
Li264 O325 1.970 . S
Li264 O326 1.961 . S
Li265 N289 1.990 . S
Li265 O324 1.970 . S
Li265 O325 1.956 . S
Li265 O327 1.961 . S
Li266 N311 1.990 . S
Li266 O324 1.961 . S
Li266 O326 1.956 . S
Li266 O327 1.970 . S
Li267 N317 1.990 . S
Li267 O325 1.961 . S
Li267 O326 1.970 . S
Li267 O327 1.956 . S
C268 C270 1.348 . S
C268 C271 1.356 . S
C268 O324 1.325 . S
N269 C272 1.314 . S
N269 C273 1.279 . S
C270 C268 1.348 . S
C270 C272 1.353 . S
C270 H328 0.929 . S
C271 C268 1.356 . S
C271 C273 1.358 . S
C271 H329 0.930 . S
C272 N269 1.314 . S
C272 C270 1.353 . S
C272 H330 0.930 . S
C273 N269 1.279 . S
C273 C271 1.358 . S
C273 H331 0.930 . S
C274 C277 1.348 . S
C274 C278 1.356 . S
C274 O325 1.325 . S
C275 N276 1.279 . S
C275 C278 1.358 . S
C275 H332 0.930 . S
N276 C275 1.279 . S
N276 C279 1.314 . S
C277 C274 1.348 . S
C277 C279 1.353 . S
C277 H333 0.929 . S
C278 C274 1.356 . S
C278 C275 1.358 . S
C278 H334 0.930 . S
C279 N276 1.314 . S
C279 C277 1.353 . S
C279 H335 0.930 . S
C280 N281 1.314 . S
C280 C285 1.353 . S
C280 H286 0.930 . S
N281 Li264 1.990 . S
N281 C280 1.314 . S
N281 C283 1.279 . S
C282 C283 1.358 . S
C282 C284 1.356 . S
C282 H336 0.930 . S
C283 N281 1.279 . S
C283 C282 1.358 . S
C283 H287 0.930 . S
C284 C282 1.356 . S
C284 C285 1.348 . S
C285 C280 1.353 . S
C285 C284 1.348 . S
C285 H337 0.929 . S
H286 C280 0.930 . S
H287 C283 0.930 . S
C288 N289 1.314 . S
C288 C290 1.353 . S
C288 H294 0.930 . S
N289 Li265 1.990 . S
N289 C288 1.314 . S
N289 C292 1.279 . S
C290 C288 1.353 . S
C290 C293 1.348 . S
C290 H338 0.929 . S
C291 C292 1.358 . S
C291 C293 1.356 . S
C291 H339 0.930 . S
C292 N289 1.279 . S
C292 C291 1.358 . S
C292 H295 0.930 . S
C293 C290 1.348 . S
C293 C291 1.356 . S
H294 C288 0.930 . S
H295 C292 0.930 . S
C296 C298 1.348 . S
C296 C299 1.356 . S
C296 O326 1.325 . S
N297 C300 1.314 . S
N297 C301 1.279 . S
C298 C296 1.348 . S
C298 C300 1.353 . S
C298 H340 0.929 . S
C299 C296 1.356 . S
C299 C301 1.358 . S
C299 H341 0.930 . S
C300 N297 1.314 . S
C300 C298 1.353 . S
C300 H342 0.930 . S
C301 N297 1.279 . S
C301 C299 1.358 . S
C301 H343 0.930 . S
C302 C303 1.348 . S
C302 C304 1.356 . S
C302 O327 1.325 . S
C303 C302 1.348 . S
C303 C305 1.353 . S
C303 H344 0.929 . S
C304 C302 1.356 . S
C304 C306 1.358 . S
C304 H345 0.930 . S
C305 C303 1.353 . S
C305 N307 1.314 . S
C305 H346 0.930 . S
C306 C304 1.358 . S
C306 N307 1.279 . S
C306 H347 0.930 . S
N307 C305 1.314 . S
N307 C306 1.279 . S
C308 C310 1.353 . S
C308 N311 1.314 . S
C308 H314 0.930 . S
C309 N311 1.279 . S
C309 C312 1.358 . S
C309 H315 0.930 . S
C310 C308 1.353 . S
C310 C313 1.348 . S
C310 H348 0.929 . S
N311 Li266 1.990 . S
N311 C308 1.314 . S
N311 C309 1.279 . S
C312 C309 1.358 . S
C312 C313 1.356 . S
C312 H349 0.930 . S
C313 C310 1.348 . S
C313 C312 1.356 . S
H314 C308 0.930 . S
H315 C309 0.930 . S
C316 N317 1.314 . S
C316 C318 1.353 . S
C316 H322 0.930 . S
N317 Li267 1.990 . S
N317 C316 1.314 . S
N317 C320 1.279 . S
C318 C316 1.353 . S
C318 C321 1.348 . S
C318 H350 0.929 . S
C319 C320 1.358 . S
C319 C321 1.356 . S
C319 H351 0.930 . S
C320 N317 1.279 . S
C320 C319 1.358 . S
C320 H323 0.930 . S
C321 C318 1.348 . S
C321 C319 1.356 . S
H322 C316 0.930 . S
H323 C320 0.930 . S
O324 Li264 1.956 . S
O324 Li265 1.970 . S
O324 Li266 1.961 . S
O324 C268 1.325 . S
O325 Li264 1.970 . S
O325 Li265 1.956 . S
O325 Li267 1.961 . S
O325 C274 1.325 . S
O326 Li264 1.961 . S
O326 Li266 1.956 . S
O326 Li267 1.970 . S
O326 C296 1.325 . S
O327 Li265 1.961 . S
O327 Li266 1.970 . S
O327 Li267 1.956 . S
O327 C302 1.325 . S
H328 C270 0.929 . S
H329 C271 0.930 . S
H330 C272 0.930 . S
H331 C273 0.930 . S
H332 C275 0.930 . S
H333 C277 0.929 . S
H334 C278 0.930 . S
H335 C279 0.930 . S
H336 C282 0.930 . S
H337 C285 0.929 . S
H338 C290 0.929 . S
H339 C291 0.930 . S
H340 C298 0.929 . S
H341 C299 0.930 . S
H342 C300 0.930 . S
H343 C301 0.930 . S
H344 C303 0.929 . S
H345 C304 0.930 . S
H346 C305 0.930 . S
H347 C306 0.930 . S
H348 C310 0.929 . S
H349 C312 0.930 . S
H350 C318 0.929 . S
H351 C319 0.930 . S
Li352 N369 1.990 . S
Li352 O412 1.956 . S
Li352 O413 1.970 . S
Li352 O414 1.961 . S
Li353 N377 1.990 . S
Li353 O412 1.970 . S
Li353 O413 1.956 . S
Li353 O415 1.961 . S
Li354 N399 1.990 . S
Li354 O412 1.961 . S
Li354 O414 1.956 . S
Li354 O415 1.970 . S
Li355 N405 1.990 . S
Li355 O413 1.961 . S
Li355 O414 1.970 . S
Li355 O415 1.956 . S
C356 C358 1.348 . S
C356 C359 1.356 . S
C356 O412 1.325 . S
N357 C360 1.314 . S
N357 C361 1.279 . S
C358 C356 1.348 . S
C358 C360 1.353 . S
C358 H416 0.929 . S
C359 C356 1.356 . S
C359 C361 1.358 . S
C359 H417 0.930 . S
C360 N357 1.314 . S
C360 C358 1.353 . S
C360 H418 0.930 . S
C361 N357 1.279 . S
C361 C359 1.358 . S
C361 H419 0.930 . S
C362 C365 1.348 . S
C362 C366 1.356 . S
C362 O413 1.325 . S
C363 N364 1.279 . S
C363 C366 1.358 . S
C363 H420 0.930 . S
N364 C363 1.279 . S
N364 C367 1.314 . S
C365 C362 1.348 . S
C365 C367 1.353 . S
C365 H421 0.929 . S
C366 C362 1.356 . S
C366 C363 1.358 . S
C366 H422 0.930 . S
C367 N364 1.314 . S
C367 C365 1.353 . S
C367 H423 0.930 . S
C368 N369 1.314 . S
C368 C373 1.353 . S
C368 H374 0.930 . S
N369 Li352 1.990 . S
N369 C368 1.314 . S
N369 C371 1.279 . S
C370 C371 1.358 . S
C370 C372 1.356 . S
C370 H424 0.930 . S
C371 N369 1.279 . S
C371 C370 1.358 . S
C371 H375 0.930 . S
C372 C370 1.356 . S
C372 C373 1.348 . S
C373 C368 1.353 . S
C373 C372 1.348 . S
C373 H425 0.929 . S
H374 C368 0.930 . S
H375 C371 0.930 . S
C376 N377 1.314 . S
C376 C378 1.353 . S
C376 H382 0.930 . S
N377 Li353 1.990 . S
N377 C376 1.314 . S
N377 C380 1.279 . S
C378 C376 1.353 . S
C378 C381 1.348 . S
C378 H426 0.929 . S
C379 C380 1.358 . S
C379 C381 1.356 . S
C379 H427 0.930 . S
C380 N377 1.279 . S
C380 C379 1.358 . S
C380 H383 0.930 . S
C381 C378 1.348 . S
C381 C379 1.356 . S
H382 C376 0.930 . S
H383 C380 0.930 . S
C384 C386 1.348 . S
C384 C387 1.356 . S
C384 O414 1.325 . S
N385 C388 1.314 . S
N385 C389 1.279 . S
C386 C384 1.348 . S
C386 C388 1.353 . S
C386 H428 0.929 . S
C387 C384 1.356 . S
C387 C389 1.358 . S
C387 H429 0.930 . S
C388 N385 1.314 . S
C388 C386 1.353 . S
C388 H430 0.930 . S
C389 N385 1.279 . S
C389 C387 1.358 . S
C389 H431 0.930 . S
C390 C391 1.348 . S
C390 C392 1.356 . S
C390 O415 1.325 . S
C391 C390 1.348 . S
C391 C393 1.353 . S
C391 H432 0.929 . S
C392 C390 1.356 . S
C392 C394 1.358 . S
C392 H433 0.930 . S
C393 C391 1.353 . S
C393 N395 1.314 . S
C393 H434 0.930 . S
C394 C392 1.358 . S
C394 N395 1.279 . S
C394 H435 0.930 . S
N395 C393 1.314 . S
N395 C394 1.279 . S
C396 C398 1.353 . S
C396 N399 1.314 . S
C396 H402 0.930 . S
C397 N399 1.279 . S
C397 C400 1.358 . S
C397 H403 0.930 . S
C398 C396 1.353 . S
C398 C401 1.348 . S
C398 H436 0.929 . S
N399 Li354 1.990 . S
N399 C396 1.314 . S
N399 C397 1.279 . S
C400 C397 1.358 . S
C400 C401 1.356 . S
C400 H437 0.930 . S
C401 C398 1.348 . S
C401 C400 1.356 . S
H402 C396 0.930 . S
H403 C397 0.930 . S
C404 N405 1.314 . S
C404 C406 1.353 . S
C404 H410 0.930 . S
N405 Li355 1.990 . S
N405 C404 1.314 . S
N405 C408 1.279 . S
C406 C404 1.353 . S
C406 C409 1.348 . S
C406 H438 0.929 . S
C407 C408 1.358 . S
C407 C409 1.356 . S
C407 H439 0.930 . S
C408 N405 1.279 . S
C408 C407 1.358 . S
C408 H411 0.930 . S
C409 C406 1.348 . S
C409 C407 1.356 . S
H410 C404 0.930 . S
H411 C408 0.930 . S
O412 Li352 1.956 . S
O412 Li353 1.970 . S
O412 Li354 1.961 . S
O412 C356 1.325 . S
O413 Li352 1.970 . S
O413 Li353 1.956 . S
O413 Li355 1.961 . S
O413 C362 1.325 . S
O414 Li352 1.961 . S
O414 Li354 1.956 . S
O414 Li355 1.970 . S
O414 C384 1.325 . S
O415 Li353 1.961 . S
O415 Li354 1.970 . S
O415 Li355 1.956 . S
O415 C390 1.325 . S
H416 C358 0.929 . S
H417 C359 0.930 . S
H418 C360 0.930 . S
H419 C361 0.930 . S
H420 C363 0.930 . S
H421 C365 0.929 . S
H422 C366 0.930 . S
H423 C367 0.930 . S
H424 C370 0.930 . S
H425 C373 0.929 . S
H426 C378 0.929 . S
H427 C379 0.930 . S
H428 C386 0.929 . S
H429 C387 0.930 . S
H430 C388 0.930 . S
H431 C389 0.930 . S
H432 C391 0.929 . S
H433 C392 0.930 . S
H434 C393 0.930 . S
H435 C394 0.930 . S
H436 C398 0.929 . S
H437 C400 0.930 . S
H438 C406 0.929 . S
H439 C407 0.930 . S
Li440 N457 1.990 . S
Li440 O500 1.956 . S
Li440 O501 1.970 . S
Li440 O502 1.961 . S
Li441 N465 1.990 . S
Li441 O500 1.970 . S
Li441 O501 1.956 . S
Li441 O503 1.961 . S
Li442 N487 1.990 . S
Li442 O500 1.961 . S
Li442 O502 1.956 . S
Li442 O503 1.970 . S
Li443 N493 1.990 1_545 S
Li443 O501 1.961 . S
Li443 O502 1.970 . S
Li443 O503 1.956 . S
C444 C446 1.348 . S
C444 C447 1.356 . S
C444 O500 1.325 . S
N445 C448 1.314 . S
N445 C449 1.279 . S
C446 C444 1.348 . S
C446 C448 1.353 . S
C446 H504 0.929 . S
C447 C444 1.356 . S
C447 C449 1.358 . S
C447 H505 0.930 . S
C448 N445 1.314 . S
C448 C446 1.353 . S
C448 H506 0.930 . S
C449 N445 1.279 . S
C449 C447 1.358 . S
C449 H507 0.930 . S
C450 C453 1.348 . S
C450 C454 1.356 . S
C450 O501 1.325 . S
C451 N452 1.279 . S
C451 C454 1.358 . S
C451 H508 0.930 . S
N452 C451 1.279 . S
N452 C455 1.314 . S
C453 C450 1.348 . S
C453 C455 1.353 . S
C453 H509 0.929 . S
C454 C450 1.356 . S
C454 C451 1.358 . S
C454 H510 0.930 . S
C455 N452 1.314 . S
C455 C453 1.353 . S
C455 H511 0.930 . S
C456 N457 1.314 . S
C456 C461 1.353 . S
C456 H462 0.930 . S
N457 Li440 1.990 . S
N457 C456 1.314 . S
N457 C459 1.279 . S
C458 C459 1.358 . S
C458 C460 1.356 . S
C458 H512 0.930 . S
C459 N457 1.279 . S
C459 C458 1.358 . S
C459 H463 0.930 . S
C460 C458 1.356 . S
C460 C461 1.348 . S
C461 C456 1.353 . S
C461 C460 1.348 . S
C461 H513 0.929 . S
H462 C456 0.930 . S
H463 C459 0.930 . S
C464 N465 1.314 . S
C464 C466 1.353 . S
C464 H470 0.930 . S
N465 Li441 1.990 . S
N465 C464 1.314 . S
N465 C468 1.279 . S
C466 C464 1.353 . S
C466 C469 1.348 . S
C466 H514 0.929 . S
C467 C468 1.358 . S
C467 C469 1.356 . S
C467 H515 0.930 . S
C468 N465 1.279 . S
C468 C467 1.358 . S
C468 H471 0.930 . S
C469 C466 1.348 . S
C469 C467 1.356 . S
H470 C464 0.930 . S
H471 C468 0.930 . S
C472 C474 1.348 . S
C472 C475 1.356 . S
C472 O502 1.325 . S
N473 C476 1.314 . S
N473 C477 1.279 . S
C474 C472 1.348 . S
C474 C476 1.353 . S
C474 H516 0.944 . S
C475 C472 1.356 . S
C475 C477 1.358 . S
C475 H517 0.930 . S
C476 N473 1.314 . S
C476 C474 1.353 . S
C476 H518 0.930 1_545 S
C477 N473 1.279 . S
C477 C475 1.358 . S
C477 H519 0.930 . S
C478 C479 1.348 . S
C478 C480 1.356 . S
C478 O503 1.325 1_565 S
C479 C478 1.348 . S
C479 C481 1.353 . S
C479 H520 0.929 . S
C480 C478 1.356 . S
C480 C482 1.358 . S
C480 H521 0.930 . S
C481 C479 1.353 . S
C481 N483 1.314 . S
C481 H522 0.930 . S
C482 C480 1.358 . S
C482 N483 1.279 . S
C482 H523 0.930 . S
N483 C481 1.314 . S
N483 C482 1.279 . S
C484 C486 1.353 . S
C484 N487 1.314 . S
C484 H490 0.930 . S
C485 N487 1.279 . S
C485 C488 1.358 . S
C485 H491 0.930 . S
C486 C484 1.353 . S
C486 C489 1.348 . S
C486 H524 0.929 . S
N487 Li442 1.990 . S
N487 C484 1.314 . S
N487 C485 1.279 . S
C488 C485 1.358 . S
C488 C489 1.356 . S
C488 H525 0.930 . S
C489 C486 1.348 . S
C489 C488 1.356 . S
H490 C484 0.930 . S
H491 C485 0.930 . S
C492 N493 1.314 . S
C492 C494 1.353 . S
C492 H498 0.930 1_565 S
N493 Li443 1.990 1_565 S
N493 C492 1.314 . S
N493 C496 1.279 . S
C494 C492 1.353 . S
C494 C497 1.348 . S
C494 H526 0.929 . S
C495 C496 1.358 . S
C495 C497 1.356 . S
C495 H527 0.930 . S
C496 N493 1.279 . S
C496 C495 1.358 . S
C496 H499 0.930 . S
C497 C494 1.348 . S
C497 C495 1.356 . S
H498 C492 0.930 1_545 S
H499 C496 0.930 . S
O500 Li440 1.956 . S
O500 Li441 1.970 . S
O500 Li442 1.961 . S
O500 C444 1.325 . S
O501 Li440 1.970 . S
O501 Li441 1.956 . S
O501 Li443 1.961 . S
O501 C450 1.325 . S
O502 Li440 1.961 . S
O502 Li442 1.956 . S
O502 Li443 1.970 . S
O502 C472 1.325 . S
O503 Li441 1.961 . S
O503 Li442 1.970 . S
O503 Li443 1.956 . S
O503 C478 1.325 1_545 S
H504 C446 0.929 . S
H505 C447 0.930 . S
H506 C448 0.930 . S
H507 C449 0.930 . S
H508 C451 0.930 . S
H509 C453 0.929 . S
H510 C454 0.930 . S
H511 C455 0.930 . S
H512 C458 0.930 . S
H513 C461 0.929 . S
H514 C466 0.929 . S
H515 C467 0.930 . S
H516 C474 0.944 . S
H517 C475 0.930 . S
H518 C476 0.930 1_565 S
H519 C477 0.930 . S
H520 C479 0.929 . S
H521 C480 0.930 . S
H522 C481 0.930 . S
H523 C482 0.930 . S
H524 C486 0.929 . S
H525 C488 0.930 . S
H526 C494 0.929 . S
H527 C495 0.930 . S
Li528 N545 1.990 . S
Li528 O588 1.956 . S
Li528 O589 1.970 . S
Li528 O590 1.961 . S
Li529 N553 1.990 . S
Li529 O588 1.970 . S
Li529 O589 1.956 . S
Li529 O591 1.961 . S
Li530 N575 1.990 . S
Li530 O588 1.961 . S
Li530 O590 1.956 . S
Li530 O591 1.970 . S
Li531 N581 1.990 . S
Li531 O589 1.961 . S
Li531 O590 1.970 . S
Li531 O591 1.956 . S
C532 C534 1.348 . S
C532 C535 1.356 . S
C532 O588 1.325 . S
N533 C536 1.314 . S
N533 C537 1.279 . S
C534 C532 1.348 . S
C534 C536 1.353 . S
C534 H592 0.929 . S
C535 C532 1.356 . S
C535 C537 1.358 . S
C535 H593 0.930 . S
C536 N533 1.314 . S
C536 C534 1.353 . S
C536 H594 0.930 . S
C537 N533 1.279 . S
C537 C535 1.358 . S
C537 H595 0.930 . S
C538 C541 1.348 . S
C538 C542 1.356 . S
C538 O589 1.325 . S
C539 N540 1.279 . S
C539 C542 1.358 . S
C539 H596 0.930 . S
N540 C539 1.279 . S
N540 C543 1.314 . S
C541 C538 1.348 . S
C541 C543 1.353 . S
C541 H597 0.929 . S
C542 C538 1.356 . S
C542 C539 1.358 . S
C542 H598 0.930 . S
C543 N540 1.314 . S
C543 C541 1.353 . S
C543 H599 0.930 . S
C544 N545 1.314 . S
C544 C549 1.353 . S
C544 H550 0.930 . S
N545 Li528 1.990 . S
N545 C544 1.314 . S
N545 C547 1.279 . S
C546 C547 1.358 . S
C546 C548 1.356 . S
C546 H600 0.930 . S
C547 N545 1.279 . S
C547 C546 1.358 . S
C547 H551 0.930 . S
C548 C546 1.356 . S
C548 C549 1.348 . S
C549 C544 1.353 . S
C549 C548 1.348 . S
C549 H601 0.929 . S
H550 C544 0.930 . S
H551 C547 0.930 . S
C552 N553 1.314 . S
C552 C554 1.353 . S
C552 H558 0.930 . S
N553 Li529 1.990 . S
N553 C552 1.314 . S
N553 C556 1.279 . S
C554 C552 1.353 . S
C554 C557 1.348 . S
C554 H602 0.929 . S
C555 C556 1.358 . S
C555 C557 1.356 . S
C555 H603 0.930 . S
C556 N553 1.279 . S
C556 C555 1.358 . S
C556 H559 0.930 . S
C557 C554 1.348 . S
C557 C555 1.356 . S
H558 C552 0.930 . S
H559 C556 0.930 . S
C560 C562 1.348 . S
C560 C563 1.356 . S
C560 O590 1.325 . S
N561 C564 1.314 . S
N561 C565 1.279 . S
C562 C560 1.348 . S
C562 C564 1.353 . S
C562 H604 0.929 . S
C563 C560 1.356 . S
C563 C565 1.358 . S
C563 H605 0.930 . S
C564 N561 1.314 . S
C564 C562 1.353 . S
C564 H606 0.930 . S
C565 N561 1.279 . S
C565 C563 1.358 . S
C565 H607 0.930 . S
C566 C567 1.348 . S
C566 C568 1.356 . S
C566 O591 1.325 . S
C567 C566 1.348 . S
C567 C569 1.353 . S
C567 H608 0.929 . S
C568 C566 1.356 . S
C568 C570 1.358 . S
C568 H609 0.930 . S
C569 C567 1.353 . S
C569 N571 1.314 . S
C569 H610 0.930 . S
C570 C568 1.358 . S
C570 N571 1.279 . S
C570 H611 0.930 . S
N571 C569 1.314 . S
N571 C570 1.279 . S
C572 C574 1.353 . S
C572 N575 1.314 . S
C572 H578 0.930 . S
C573 N575 1.279 . S
C573 C576 1.358 . S
C573 H579 0.930 . S
C574 C572 1.353 . S
C574 C577 1.348 . S
C574 H612 0.929 . S
N575 Li530 1.990 . S
N575 C572 1.314 . S
N575 C573 1.279 . S
C576 C573 1.358 . S
C576 C577 1.356 . S
C576 H613 0.930 . S
C577 C574 1.348 . S
C577 C576 1.356 . S
H578 C572 0.930 . S
H579 C573 0.930 . S
C580 N581 1.314 . S
C580 C582 1.353 . S
C580 H586 0.930 . S
N581 Li531 1.990 . S
N581 C580 1.314 . S
N581 C584 1.279 . S
C582 C580 1.353 . S
C582 C585 1.348 . S
C582 H614 0.929 . S
C583 C584 1.358 . S
C583 C585 1.356 . S
C583 H615 0.930 . S
C584 N581 1.279 . S
C584 C583 1.358 . S
C584 H587 0.930 . S
C585 C582 1.348 . S
C585 C583 1.356 . S
H586 C580 0.930 . S
H587 C584 0.930 . S
O588 Li528 1.956 . S
O588 Li529 1.970 . S
O588 Li530 1.961 . S
O588 C532 1.325 . S
O589 Li528 1.970 . S
O589 Li529 1.956 . S
O589 Li531 1.961 . S
O589 C538 1.325 . S
O590 Li528 1.961 . S
O590 Li530 1.956 . S
O590 Li531 1.970 . S
O590 C560 1.325 . S
O591 Li529 1.961 . S
O591 Li530 1.970 . S
O591 Li531 1.956 . S
O591 C566 1.325 . S
H592 C534 0.929 . S
H593 C535 0.930 . S
H594 C536 0.930 . S
H595 C537 0.930 . S
H596 C539 0.930 . S
H597 C541 0.929 . S
H598 C542 0.930 . S
H599 C543 0.930 . S
H600 C546 0.930 . S
H601 C549 0.929 . S
H602 C554 0.929 . S
H603 C555 0.930 . S
H604 C562 0.929 . S
H605 C563 0.930 . S
H606 C564 0.930 . S
H607 C565 0.930 . S
H608 C567 0.929 . S
H609 C568 0.930 . S
H610 C569 0.930 . S
H611 C570 0.930 . S
H612 C574 0.929 . S
H613 C576 0.930 . S
H614 C582 0.929 . S
H615 C583 0.930 . S
Li616 N633 1.990 1_565 S
Li616 O676 1.956 . S
Li616 O677 1.970 . S
Li616 O678 1.961 . S
Li617 N641 1.990 . S
Li617 O676 1.970 . S
Li617 O677 1.956 . S
Li617 O679 1.961 . S
Li618 N663 1.990 . S
Li618 O676 1.961 . S
Li618 O678 1.956 . S
Li618 O679 1.970 . S
Li619 N669 1.990 . S
Li619 O677 1.961 . S
Li619 O678 1.970 . S
Li619 O679 1.956 . S
C620 C622 1.348 . S
C620 C623 1.356 . S
C620 O676 1.325 1_545 S
N621 C624 1.314 . S
N621 C625 1.279 . S
C622 C620 1.348 . S
C622 C624 1.353 . S
C622 H680 0.929 . S
C623 C620 1.356 . S
C623 C625 1.358 . S
C623 H681 0.930 . S
C624 N621 1.314 . S
C624 C622 1.353 . S
C624 H682 0.930 . S
C625 N621 1.279 . S
C625 C623 1.358 . S
C625 H683 0.930 . S
C626 C629 1.348 . S
C626 C630 1.356 . S
C626 O677 1.325 . S
C627 N628 1.279 . S
C627 C630 1.358 . S
C627 H684 0.930 . S
N628 C627 1.279 . S
N628 C631 1.314 . S
C629 C626 1.348 . S
C629 C631 1.353 . S
C629 H685 0.944 . S
C630 C626 1.356 . S
C630 C627 1.358 . S
C630 H686 0.930 . S
C631 N628 1.314 . S
C631 C629 1.353 . S
C631 H687 0.930 1_565 S
C632 N633 1.314 . S
C632 C637 1.353 . S
C632 H638 0.930 1_545 S
N633 Li616 1.990 1_545 S
N633 C632 1.314 . S
N633 C635 1.279 . S
C634 C635 1.358 . S
C634 C636 1.356 . S
C634 H688 0.930 . S
C635 N633 1.279 . S
C635 C634 1.358 . S
C635 H639 0.930 . S
C636 C634 1.356 . S
C636 C637 1.348 . S
C637 C632 1.353 . S
C637 C636 1.348 . S
C637 H689 0.929 . S
H638 C632 0.930 1_565 S
H639 C635 0.930 . S
C640 N641 1.314 . S
C640 C642 1.353 . S
C640 H646 0.930 . S
N641 Li617 1.990 . S
N641 C640 1.314 . S
N641 C644 1.279 . S
C642 C640 1.353 . S
C642 C645 1.348 . S
C642 H690 0.929 . S
C643 C644 1.358 . S
C643 C645 1.356 . S
C643 H691 0.930 . S
C644 N641 1.279 . S
C644 C643 1.358 . S
C644 H647 0.930 . S
C645 C642 1.348 . S
C645 C643 1.356 . S
H646 C640 0.930 . S
H647 C644 0.930 . S
C648 C650 1.348 . S
C648 C651 1.356 . S
C648 O678 1.325 . S
N649 C652 1.314 . S
N649 C653 1.279 . S
C650 C648 1.348 . S
C650 C652 1.353 . S
C650 H692 0.929 . S
C651 C648 1.356 . S
C651 C653 1.358 . S
C651 H693 0.930 . S
C652 N649 1.314 . S
C652 C650 1.353 . S
C652 H694 0.930 . S
C653 N649 1.279 . S
C653 C651 1.358 . S
C653 H695 0.930 . S
C654 C655 1.348 . S
C654 C656 1.356 . S
C654 O679 1.325 . S
C655 C654 1.348 . S
C655 C657 1.353 . S
C655 H696 0.929 . S
C656 C654 1.356 . S
C656 C658 1.358 . S
C656 H697 0.930 . S
C657 C655 1.353 . S
C657 N659 1.314 . S
C657 H698 0.930 . S
C658 C656 1.358 . S
C658 N659 1.279 . S
C658 H699 0.930 . S
N659 C657 1.314 . S
N659 C658 1.279 . S
C660 C662 1.353 . S
C660 N663 1.314 . S
C660 H666 0.930 . S
C661 N663 1.279 . S
C661 C664 1.358 . S
C661 H667 0.930 . S
C662 C660 1.353 . S
C662 C665 1.348 . S
C662 H700 0.929 . S
N663 Li618 1.990 . S
N663 C660 1.314 . S
N663 C661 1.279 . S
C664 C661 1.358 . S
C664 C665 1.356 . S
C664 H701 0.930 . S
C665 C662 1.348 . S
C665 C664 1.356 . S
H666 C660 0.930 . S
H667 C661 0.930 . S
C668 N669 1.314 . S
C668 C670 1.353 . S
C668 H674 0.930 . S
N669 Li619 1.990 . S
N669 C668 1.314 . S
N669 C672 1.279 . S
C670 C668 1.353 . S
C670 C673 1.348 . S
C670 H702 0.929 . S
C671 C672 1.358 . S
C671 C673 1.356 . S
C671 H703 0.930 . S
C672 N669 1.279 . S
C672 C671 1.358 . S
C672 H675 0.930 . S
C673 C670 1.348 . S
C673 C671 1.356 . S
H674 C668 0.930 . S
H675 C672 0.930 . S
O676 Li616 1.956 . S
O676 Li617 1.970 . S
O676 Li618 1.961 . S
O676 C620 1.325 1_565 S
O677 Li616 1.970 . S
O677 Li617 1.956 . S
O677 Li619 1.961 . S
O677 C626 1.325 . S
O678 Li616 1.961 . S
O678 Li618 1.956 . S
O678 Li619 1.970 . S
O678 C648 1.325 . S
O679 Li617 1.961 . S
O679 Li618 1.970 . S
O679 Li619 1.956 . S
O679 C654 1.325 . S
H680 C622 0.929 . S
H681 C623 0.930 . S
H682 C624 0.930 . S
H683 C625 0.930 . S
H684 C627 0.930 . S
H685 C629 0.944 . S
H686 C630 0.930 . S
H687 C631 0.930 1_545 S
H688 C634 0.930 . S
H689 C637 0.929 . S
H690 C642 0.929 . S
H691 C643 0.930 . S
H692 C650 0.929 . S
H693 C651 0.930 . S
H694 C652 0.930 . S
H695 C653 0.930 . S
H696 C655 0.929 . S
H697 C656 0.930 . S
H698 C657 0.930 . S
H699 C658 0.930 . S
H700 C662 0.929 . S
H701 C664 0.930 . S
H702 C670 0.929 . S
H703 C671 0.930 . S
C704 C705 1.391 . S
C704 C706 1.394 . S
C704 H720 0.931 . S
C705 C704 1.391 . S
C705 C709 1.376 . S
C706 C704 1.394 . S
C706 C707 1.369 . S
C706 C710 1.531 . S
C707 C706 1.369 . S
C707 C708 1.410 . S
C707 C715 1.503 1_554 S
C708 C707 1.410 . S
C708 C709 1.392 . S
C708 C711 1.511 1_554 S
C709 C705 1.376 . S
C709 C708 1.392 . S
C709 H721 0.929 . S
C710 C706 1.531 . S
C710 H722 0.960 . S
C710 H723 0.962 . S
C710 H724 0.960 . S
C711 C708 1.511 1_556 S
C711 H725 0.961 . S
C711 H726 0.961 . S
C711 H727 0.961 . S
C712 C713 1.370 . S
C712 C714 1.363 . S
C712 H728 0.931 . S
C713 C712 1.370 . S
C713 C717 1.408 . S
C714 C712 1.363 . S
C714 C715 1.370 . S
C714 C718 1.524 . S
C715 C707 1.503 1_556 S
C715 C714 1.370 . S
C715 C716 1.403 . S
C716 C715 1.403 . S
C716 C717 1.404 . S
C716 C719 1.539 1_556 S
C717 C713 1.408 . S
C717 C716 1.404 . S
C717 H729 0.930 . S
C718 C714 1.524 . S
C718 H730 0.956 . S
C718 H731 0.961 . S
C718 H732 0.961 . S
C719 C716 1.539 1_554 S
C719 H733 0.958 . S
C719 H734 0.961 1_554 S
C719 H735 0.960 . S
H720 C704 0.931 . S
H721 C709 0.929 . S
H722 C710 0.960 . S
H723 C710 0.962 . S
H724 C710 0.960 . S
H725 C711 0.961 . S
H726 C711 0.961 . S
H727 C711 0.961 . S
H728 C712 0.931 . S
H729 C717 0.930 . S
H730 C718 0.956 . S
H731 C718 0.961 . S
H732 C718 0.961 . S
H733 C719 0.958 . S
H734 C719 0.961 1_556 S
H735 C719 0.960 . S
C736 C737 1.391 . S
C736 C738 1.394 . S
C736 H752 0.931 . S
C737 C736 1.391 . S
C737 C741 1.376 . S
C738 C736 1.394 . S
C738 C739 1.369 . S
C738 C742 1.531 . S
C739 C738 1.369 . S
C739 C740 1.410 . S
C739 C747 1.503 . S
C740 C739 1.410 . S
C740 C741 1.392 . S
C740 C743 1.511 . S
C741 C737 1.376 . S
C741 C740 1.392 . S
C741 H753 0.929 . S
C742 C738 1.531 . S
C742 H754 0.960 . S
C742 H755 0.962 . S
C742 H756 0.960 . S
C743 C740 1.511 . S
C743 H757 0.961 . S
C743 H758 0.961 . S
C743 H759 0.961 . S
C744 C745 1.370 . S
C744 C746 1.363 . S
C744 H760 0.931 . S
C745 C744 1.370 . S
C745 C749 1.408 . S
C746 C744 1.363 . S
C746 C747 1.370 . S
C746 C750 1.524 . S
C747 C739 1.503 . S
C747 C746 1.370 . S
C747 C748 1.403 . S
C748 C747 1.403 . S
C748 C749 1.404 . S
C748 C751 1.539 . S
C749 C745 1.408 . S
C749 C748 1.404 . S
C749 H761 0.930 . S
C750 C746 1.524 . S
C750 H762 0.956 . S
C750 H763 0.961 . S
C750 H764 0.961 . S
C751 C748 1.539 . S
C751 H765 0.958 . S
C751 H766 0.961 . S
C751 H767 0.960 . S
H752 C736 0.931 . S
H753 C741 0.929 . S
H754 C742 0.960 . S
H755 C742 0.962 . S
H756 C742 0.960 . S
H757 C743 0.961 . S
H758 C743 0.961 . S
H759 C743 0.961 . S
H760 C744 0.931 . S
H761 C749 0.930 . S
H762 C750 0.956 . S
H763 C750 0.961 . S
H764 C750 0.961 . S
H765 C751 0.958 . S
H766 C751 0.961 . S
H767 C751 0.960 . S
C768 C769 1.391 . S
C768 C770 1.394 . S
C768 H784 0.931 . S
C769 C768 1.391 . S
C769 C773 1.376 . S
C770 C768 1.394 . S
C770 C771 1.369 . S
C770 C774 1.531 . S
C771 C770 1.369 . S
C771 C772 1.410 . S
C771 C779 1.503 1_554 S
C772 C771 1.410 . S
C772 C773 1.392 . S
C772 C775 1.511 1_554 S
C773 C769 1.376 . S
C773 C772 1.392 . S
C773 H785 0.929 . S
C774 C770 1.531 . S
C774 H786 0.960 . S
C774 H787 0.962 . S
C774 H788 0.960 . S
C775 C772 1.511 1_556 S
C775 H789 0.961 . S
C775 H790 0.961 . S
C775 H791 0.961 . S
C776 C777 1.370 . S
C776 C778 1.363 . S
C776 H792 0.931 . S
C777 C776 1.370 . S
C777 C781 1.408 . S
C778 C776 1.363 . S
C778 C779 1.370 . S
C778 C782 1.524 . S
C779 C771 1.503 1_556 S
C779 C778 1.370 . S
C779 C780 1.403 . S
C780 C779 1.403 . S
C780 C781 1.404 . S
C780 C783 1.539 . S
C781 C777 1.408 . S
C781 C780 1.404 . S
C781 H793 0.930 . S
C782 C778 1.524 . S
C782 H794 0.956 1_556 S
C782 H795 0.961 . S
C782 H796 0.961 . S
C783 C780 1.539 . S
C783 H797 0.958 . S
C783 H798 0.961 . S
C783 H799 0.960 . S
H784 C768 0.931 . S
H785 C773 0.929 . S
H786 C774 0.960 . S
H787 C774 0.962 . S
H788 C774 0.960 . S
H789 C775 0.961 . S
H790 C775 0.961 . S
H791 C775 0.961 . S
H792 C776 0.931 . S
H793 C781 0.930 . S
H794 C782 0.956 1_554 S
H795 C782 0.961 . S
H796 C782 0.961 . S
H797 C783 0.958 . S
H798 C783 0.961 . S
H799 C783 0.960 . S
C800 C801 1.391 . S
C800 C802 1.394 . S
C800 H816 0.931 . S
C801 C800 1.391 . S
C801 C805 1.376 . S
C802 C800 1.394 . S
C802 C803 1.369 . S
C802 C806 1.531 . S
C803 C802 1.369 . S
C803 C804 1.410 . S
C803 C811 1.503 . S
C804 C803 1.410 . S
C804 C805 1.392 . S
C804 C807 1.511 . S
C805 C801 1.376 . S
C805 C804 1.392 . S
C805 H817 0.929 . S
C806 C802 1.531 . S
C806 H818 0.960 . S
C806 H819 0.962 . S
C806 H820 0.960 . S
C807 C804 1.511 . S
C807 H821 0.961 . S
C807 H822 0.961 . S
C807 H823 0.961 . S
C808 C809 1.370 . S
C808 C810 1.363 . S
C808 H824 0.931 . S
C809 C808 1.370 . S
C809 C813 1.408 . S
C810 C808 1.363 . S
C810 C811 1.370 . S
C810 C814 1.524 . S
C811 C803 1.503 . S
C811 C810 1.370 . S
C811 C812 1.403 . S
C812 C811 1.403 . S
C812 C813 1.404 . S
C812 C815 1.539 . S
C813 C809 1.408 . S
C813 C812 1.404 . S
C813 H825 0.930 . S
C814 C810 1.524 . S
C814 H826 0.956 . S
C814 H827 0.961 . S
C814 H828 0.961 . S
C815 C812 1.539 . S
C815 H829 0.958 . S
C815 H830 0.961 . S
C815 H831 0.960 . S
H816 C800 0.931 . S
H817 C805 0.929 . S
H818 C806 0.960 . S
H819 C806 0.962 . S
H820 C806 0.960 . S
H821 C807 0.961 . S
H822 C807 0.961 . S
H823 C807 0.961 . S
H824 C808 0.931 . S
H825 C813 0.930 . S
H826 C814 0.956 . S
H827 C814 0.961 . S
H828 C814 0.961 . S
H829 C815 0.958 . S
H830 C815 0.961 . S
H831 C815 0.960 . S
C832 C833 1.391 . S
C832 C834 1.394 . S
C832 H848 0.931 . S
C833 C832 1.391 . S
C833 C837 1.376 . S
C834 C832 1.394 . S
C834 C835 1.369 . S
C834 C838 1.531 . S
C835 C834 1.369 . S
C835 C836 1.410 . S
C835 C843 1.503 . S
C836 C835 1.410 . S
C836 C837 1.392 . S
C836 C839 1.511 . S
C837 C833 1.376 . S
C837 C836 1.392 . S
C837 H849 0.929 . S
C838 C834 1.531 . S
C838 H850 0.960 . S
C838 H851 0.962 . S
C838 H852 0.960 . S
C839 C836 1.511 . S
C839 H853 0.961 . S
C839 H854 0.961 . S
C839 H855 0.961 . S
C840 C841 1.370 . S
C840 C842 1.363 . S
C840 H856 0.931 . S
C841 C840 1.370 . S
C841 C845 1.408 . S
C842 C840 1.363 . S
C842 C843 1.370 . S
C842 C846 1.524 . S
C843 C835 1.503 . S
C843 C842 1.370 . S
C843 C844 1.403 . S
C844 C843 1.403 . S
C844 C845 1.404 . S
C844 C847 1.539 . S
C845 C841 1.408 . S
C845 C844 1.404 . S
C845 H857 0.930 . S
C846 C842 1.524 . S
C846 H858 0.956 . S
C846 H859 0.961 . S
C846 H860 0.961 . S
C847 C844 1.539 . S
C847 H861 0.958 . S
C847 H862 0.961 . S
C847 H863 0.960 . S
H848 C832 0.931 . S
H849 C837 0.929 . S
H850 C838 0.960 . S
H851 C838 0.962 . S
H852 C838 0.960 . S
H853 C839 0.961 . S
H854 C839 0.961 . S
H855 C839 0.961 . S
H856 C840 0.931 . S
H857 C845 0.930 . S
H858 C846 0.956 . S
H859 C846 0.961 . S
H860 C846 0.961 . S
H861 C847 0.958 . S
H862 C847 0.961 . S
H863 C847 0.960 . S
C864 C865 1.391 . S
C864 C866 1.394 . S
C864 H880 0.931 . S
C865 C864 1.391 . S
C865 C869 1.376 . S
C866 C864 1.394 . S
C866 C867 1.369 . S
C866 C870 1.531 . S
C867 C866 1.369 . S
C867 C868 1.410 . S
C867 C875 1.503 . S
C868 C867 1.410 . S
C868 C869 1.392 . S
C868 C871 1.511 . S
C869 C865 1.376 . S
C869 C868 1.392 . S
C869 H881 0.929 . S
C870 C866 1.531 . S
C870 H882 0.960 . S
C870 H883 0.962 . S
C870 H884 0.960 . S
C871 C868 1.511 . S
C871 H885 0.961 . S
C871 H886 0.961 . S
C871 H887 0.961 . S
C872 C873 1.370 . S
C872 C874 1.363 . S
C872 H888 0.931 . S
C873 C872 1.370 . S
C873 C877 1.408 . S
C874 C872 1.363 . S
C874 C875 1.370 . S
C874 C878 1.524 . S
C875 C867 1.503 . S
C875 C874 1.370 . S
C875 C876 1.403 . S
C876 C875 1.403 . S
C876 C877 1.404 . S
C876 C879 1.539 . S
C877 C873 1.408 . S
C877 C876 1.404 . S
C877 H889 0.930 . S
C878 C874 1.524 . S
C878 H890 0.956 . S
C878 H891 0.961 . S
C878 H892 0.961 . S
C879 C876 1.539 . S
C879 H893 0.958 . S
C879 H894 0.961 . S
C879 H895 0.960 . S
H880 C864 0.931 . S
H881 C869 0.929 . S
H882 C870 0.960 . S
H883 C870 0.962 . S
H884 C870 0.960 . S
H885 C871 0.961 . S
H886 C871 0.961 . S
H887 C871 0.961 . S
H888 C872 0.931 . S
H889 C877 0.930 . S
H890 C878 0.956 . S
H891 C878 0.961 . S
H892 C878 0.961 . S
H893 C879 0.958 . S
H894 C879 0.961 . S
H895 C879 0.960 . S
C896 C897 1.391 . S
C896 C898 1.394 . S
C896 H912 0.931 . S
C897 C896 1.391 . S
C897 C901 1.376 . S
C898 C896 1.394 . S
C898 C899 1.369 . S
C898 C902 1.531 . S
C899 C898 1.369 . S
C899 C900 1.410 . S
C899 C907 1.503 . S
C900 C899 1.410 . S
C900 C901 1.392 . S
C900 C903 1.511 . S
C901 C897 1.376 . S
C901 C900 1.392 . S
C901 H913 0.929 . S
C902 C898 1.531 . S
C902 H914 0.960 . S
C902 H915 0.962 . S
C902 H916 0.960 . S
C903 C900 1.511 . S
C903 H917 0.961 . S
C903 H918 0.961 . S
C903 H919 0.961 . S
C904 C905 1.370 . S
C904 C906 1.363 . S
C904 H920 0.931 . S
C905 C904 1.370 . S
C905 C909 1.408 . S
C906 C904 1.363 . S
C906 C907 1.370 . S
C906 C910 1.524 . S
C907 C899 1.503 . S
C907 C906 1.370 . S
C907 C908 1.403 . S
C908 C907 1.403 . S
C908 C909 1.404 . S
C908 C911 1.539 . S
C909 C905 1.408 . S
C909 C908 1.404 . S
C909 H921 0.930 . S
C910 C906 1.524 . S
C910 H922 0.956 . S
C910 H923 0.961 . S
C910 H924 0.961 . S
C911 C908 1.539 . S
C911 H925 0.958 . S
C911 H926 0.961 . S
C911 H927 0.960 . S
H912 C896 0.931 . S
H913 C901 0.929 . S
H914 C902 0.960 . S
H915 C902 0.962 . S
H916 C902 0.960 . S
H917 C903 0.961 . S
H918 C903 0.961 . S
H919 C903 0.961 . S
H920 C904 0.931 . S
H921 C909 0.930 . S
H922 C910 0.956 . S
H923 C910 0.961 . S
H924 C910 0.961 . S
H925 C911 0.958 . S
H926 C911 0.961 . S
H927 C911 0.960 . S
C928 C929 1.391 . S
C928 C930 1.394 . S
C928 H944 0.931 . S
C929 C928 1.391 . S
C929 C933 1.376 . S
C930 C928 1.394 . S
C930 C931 1.369 . S
C930 C934 1.531 . S
C931 C930 1.369 . S
C931 C932 1.410 . S
C931 C939 1.503 . S
C932 C931 1.410 . S
C932 C933 1.392 . S
C932 C935 1.511 . S
C933 C929 1.376 . S
C933 C932 1.392 . S
C933 H945 0.929 . S
C934 C930 1.531 . S
C934 H946 0.960 . S
C934 H947 0.962 . S
C934 H948 0.960 . S
C935 C932 1.511 . S
C935 H949 0.961 . S
C935 H950 0.961 . S
C935 H951 0.961 . S
C936 C937 1.370 . S
C936 C938 1.363 . S
C936 H952 0.931 . S
C937 C936 1.370 . S
C937 C941 1.408 . S
C938 C936 1.363 . S
C938 C939 1.370 . S
C938 C942 1.524 . S
C939 C931 1.503 . S
C939 C938 1.370 . S
C939 C940 1.403 . S
C940 C939 1.403 . S
C940 C941 1.404 . S
C940 C943 1.539 . S
C941 C937 1.408 . S
C941 C940 1.404 . S
C941 H953 0.930 . S
C942 C938 1.524 . S
C942 H954 0.956 . S
C942 H955 0.961 . S
C942 H956 0.961 . S
C943 C940 1.539 . S
C943 H957 0.958 . S
C943 H958 0.961 . S
C943 H959 0.960 . S
H944 C928 0.931 . S
H945 C933 0.929 . S
H946 C934 0.960 . S
H947 C934 0.962 . S
H948 C934 0.960 . S
H949 C935 0.961 . S
H950 C935 0.961 . S
H951 C935 0.961 . S
H952 C936 0.931 . S
H953 C941 0.930 . S
H954 C942 0.956 . S
H955 C942 0.961 . S
H956 C942 0.961 . S
H957 C943 0.958 . S
H958 C943 0.961 . S
H959 C943 0.960 . S
C960 C961 1.391 . S
C960 C962 1.394 . S
C960 H976 0.931 . S
C961 C960 1.391 . S
C961 C965 1.376 . S
C962 C960 1.394 . S
C962 C963 1.369 . S
C962 C966 1.531 . S
C963 C962 1.369 . S
C963 C964 1.410 . S
C963 C971 1.503 . S
C964 C963 1.410 . S
C964 C965 1.392 . S
C964 C967 1.511 . S
C965 C961 1.376 . S
C965 C964 1.392 . S
C965 H977 0.929 . S
C966 C962 1.531 . S
C966 H978 0.960 . S
C966 H979 0.962 . S
C966 H980 0.960 . S
C967 C964 1.511 . S
C967 H981 0.961 . S
C967 H982 0.961 . S
C967 H983 0.961 . S
C968 C969 1.370 . S
C968 C970 1.363 . S
C968 H984 0.931 . S
C969 C968 1.370 . S
C969 C973 1.408 . S
C970 C968 1.363 . S
C970 C971 1.370 . S
C970 C974 1.524 . S
C971 C963 1.503 . S
C971 C970 1.370 . S
C971 C972 1.403 . S
C972 C971 1.403 . S
C972 C973 1.404 . S
C972 C975 1.539 . S
C973 C969 1.408 . S
C973 C972 1.404 . S
C973 H985 0.930 . S
C974 C970 1.524 . S
C974 H986 0.956 . S
C974 H987 0.961 . S
C974 H988 0.961 . S
C975 C972 1.539 . S
C975 H989 0.958 . S
C975 H990 0.961 . S
C975 H991 0.960 . S
H976 C960 0.931 . S
H977 C965 0.929 . S
H978 C966 0.960 . S
H979 C966 0.962 . S
H980 C966 0.960 . S
H981 C967 0.961 . S
H982 C967 0.961 . S
H983 C967 0.961 . S
H984 C968 0.931 . S
H985 C973 0.930 . S
H986 C974 0.956 . S
H987 C974 0.961 . S
H988 C974 0.961 . S
H989 C975 0.958 . S
H990 C975 0.961 . S
H991 C975 0.960 . S
C992 C993 1.391 . S
C992 C994 1.394 . S
C992 H1008 0.931 . S
C993 C992 1.391 . S
C993 C997 1.376 . S
C994 C992 1.394 . S
C994 C995 1.369 . S
C994 C998 1.531 . S
C995 C994 1.369 . S
C995 C996 1.410 . S
C995 C1003 1.503 . S
C996 C995 1.410 . S
C996 C997 1.392 . S
C996 C999 1.511 . S
C997 C993 1.376 . S
C997 C996 1.392 . S
C997 H1009 0.929 . S
C998 C994 1.531 . S
C998 H1010 0.960 . S
C998 H1011 0.962 . S
C998 H1012 0.960 . S
C999 C996 1.511 . S
C999 H1013 0.961 . S
C999 H1014 0.961 . S
C999 H1015 0.961 . S
C1000 C1001 1.370 . S
C1000 C1002 1.363 . S
C1000 H1016 0.931 . S
C1001 C1000 1.370 . S
C1001 C1005 1.408 . S
C1002 C1000 1.363 . S
C1002 C1003 1.370 . S
C1002 C1006 1.524 . S
C1003 C995 1.503 . S
C1003 C1002 1.370 . S
C1003 C1004 1.403 . S
C1004 C1003 1.403 . S
C1004 C1005 1.404 . S
C1004 C1007 1.539 . S
C1005 C1001 1.408 . S
C1005 C1004 1.404 . S
C1005 H1017 0.930 . S
C1006 C1002 1.524 . S
C1006 H1018 0.956 . S
C1006 H1019 0.961 . S
C1006 H1020 0.961 . S
C1007 C1004 1.539 . S
C1007 H1021 0.958 . S
C1007 H1022 0.961 . S
C1007 H1023 0.960 . S
H1008 C992 0.931 . S
H1009 C997 0.929 . S
H1010 C998 0.960 . S
H1011 C998 0.962 . S
H1012 C998 0.960 . S
H1013 C999 0.961 . S
H1014 C999 0.961 . S
H1015 C999 0.961 . S
H1016 C1000 0.931 . S
H1017 C1005 0.930 . S
H1018 C1006 0.956 . S
H1019 C1006 0.961 . S
H1020 C1006 0.961 . S
H1021 C1007 0.958 . S
H1022 C1007 0.961 . S
H1023 C1007 0.960 . S
C1024 C1025 1.391 . S
C1024 C1026 1.394 . S
C1024 H1040 0.931 . S
C1025 C1024 1.391 . S
C1025 C1029 1.376 . S
C1026 C1024 1.394 . S
C1026 C1027 1.369 . S
C1026 C1030 1.531 . S
C1027 C1026 1.369 . S
C1027 C1028 1.410 . S
C1027 C1035 1.503 . S
C1028 C1027 1.410 . S
C1028 C1029 1.392 . S
C1028 C1031 1.511 . S
C1029 C1025 1.376 . S
C1029 C1028 1.392 . S
C1029 H1041 0.929 . S
C1030 C1026 1.531 . S
C1030 H1042 0.960 . S
C1030 H1043 0.962 . S
C1030 H1044 0.960 . S
C1031 C1028 1.511 . S
C1031 H1045 0.961 . S
C1031 H1046 0.961 . S
C1031 H1047 0.961 . S
C1032 C1033 1.370 . S
C1032 C1034 1.363 . S
C1032 H1048 0.931 . S
C1033 C1032 1.370 . S
C1033 C1037 1.408 . S
C1034 C1032 1.363 . S
C1034 C1035 1.370 . S
C1034 C1038 1.524 . S
C1035 C1027 1.503 . S
C1035 C1034 1.370 . S
C1035 C1036 1.403 . S
C1036 C1035 1.403 . S
C1036 C1037 1.404 . S
C1036 C1039 1.539 . S
C1037 C1033 1.408 . S
C1037 C1036 1.404 . S
C1037 H1049 0.930 . S
C1038 C1034 1.524 . S
C1038 H1050 0.956 . S
C1038 H1051 0.961 . S
C1038 H1052 0.961 . S
C1039 C1036 1.539 . S
C1039 H1053 0.958 . S
C1039 H1054 0.961 . S
C1039 H1055 0.960 . S
H1040 C1024 0.931 . S
H1041 C1029 0.929 . S
H1042 C1030 0.960 . S
H1043 C1030 0.962 . S
H1044 C1030 0.960 . S
H1045 C1031 0.961 . S
H1046 C1031 0.961 . S
H1047 C1031 0.961 . S
H1048 C1032 0.931 . S
H1049 C1037 0.930 . S
H1050 C1038 0.956 . S
H1051 C1038 0.961 . S
H1052 C1038 0.961 . S
H1053 C1039 0.958 . S
H1054 C1039 0.961 . S
H1055 C1039 0.960 . S
C1056 C1057 1.391 . S
C1056 C1058 1.394 . S
C1056 H1072 0.931 . S
C1057 C1056 1.391 . S
C1057 C1061 1.376 . S
C1058 C1056 1.394 . S
C1058 C1059 1.369 . S
C1058 C1062 1.531 . S
C1059 C1058 1.369 . S
C1059 C1060 1.410 . S
C1059 C1067 1.503 . S
C1060 C1059 1.410 . S
C1060 C1061 1.392 . S
C1060 C1063 1.511 . S
C1061 C1057 1.376 . S
C1061 C1060 1.392 . S
C1061 H1073 0.929 . S
C1062 C1058 1.531 . S
C1062 H1074 0.960 . S
C1062 H1075 0.962 . S
C1062 H1076 0.960 . S
C1063 C1060 1.511 . S
C1063 H1077 0.961 . S
C1063 H1078 0.961 . S
C1063 H1079 0.961 . S
C1064 C1065 1.370 . S
C1064 C1066 1.363 . S
C1064 H1080 0.931 . S
C1065 C1064 1.370 . S
C1065 C1069 1.408 . S
C1066 C1064 1.363 . S
C1066 C1067 1.370 . S
C1066 C1070 1.524 . S
C1067 C1059 1.503 . S
C1067 C1066 1.370 . S
C1067 C1068 1.403 . S
C1068 C1067 1.403 . S
C1068 C1069 1.404 . S
C1068 C1071 1.539 . S
C1069 C1065 1.408 . S
C1069 C1068 1.404 . S
C1069 H1081 0.930 . S
C1070 C1066 1.524 . S
C1070 H1082 0.956 . S
C1070 H1083 0.961 . S
C1070 H1084 0.961 . S
C1071 C1068 1.539 . S
C1071 H1085 0.958 . S
C1071 H1086 0.961 . S
C1071 H1087 0.960 . S
H1072 C1056 0.931 . S
H1073 C1061 0.929 . S
H1074 C1062 0.960 . S
H1075 C1062 0.962 . S
H1076 C1062 0.960 . S
H1077 C1063 0.961 . S
H1078 C1063 0.961 . S
H1079 C1063 0.961 . S
H1080 C1064 0.931 . S
H1081 C1069 0.930 . S
H1082 C1070 0.956 . S
H1083 C1070 0.961 . S
H1084 C1070 0.961 . S
H1085 C1071 0.958 . S
H1086 C1071 0.961 . S
H1087 C1071 0.960 . S
C1088 C1089 1.391 . S
C1088 C1090 1.394 . S
C1088 H1104 0.931 . S
C1089 C1088 1.391 . S
C1089 C1093 1.376 . S
C1090 C1088 1.394 . S
C1090 C1091 1.369 . S
C1090 C1094 1.531 . S
C1091 C1090 1.369 . S
C1091 C1092 1.410 1_655 S
C1091 C1099 1.503 1_655 S
C1092 C1091 1.410 1_455 S
C1092 C1093 1.392 1_455 S
C1092 C1095 1.511 . S
C1093 C1089 1.376 . S
C1093 C1092 1.392 1_655 S
C1093 H1105 0.929 . S
C1094 C1090 1.531 . S
C1094 H1106 0.960 . S
C1094 H1107 0.962 . S
C1094 H1108 0.960 . S
C1095 C1092 1.511 . S
C1095 H1109 0.961 . S
C1095 H1110 0.961 . S
C1095 H1111 0.961 . S
C1096 C1097 1.370 . S
C1096 C1098 1.355 1_455 S
C1096 H1112 0.931 . S
C1097 C1096 1.370 . S
C1097 C1101 1.408 . S
C1098 C1096 1.355 1_655 S
C1098 C1099 1.363 1_655 S
C1098 C1102 1.541 . S
C1099 C1091 1.503 1_455 S
C1099 C1098 1.363 1_455 S
C1099 C1100 1.403 . S
C1100 C1099 1.403 . S
C1100 C1101 1.404 . S
C1100 C1103 1.539 . S
C1101 C1097 1.408 . S
C1101 C1100 1.404 . S
C1101 H1113 0.930 . S
C1102 C1098 1.541 . S
C1102 H1114 0.956 . S
C1102 H1115 0.961 . S
C1102 H1116 0.961 . S
C1103 C1100 1.539 . S
C1103 H1117 0.958 . S
C1103 H1118 0.961 . S
C1103 H1119 0.960 . S
H1104 C1088 0.931 . S
H1105 C1093 0.929 . S
H1106 C1094 0.960 . S
H1107 C1094 0.962 . S
H1108 C1094 0.960 . S
H1109 C1095 0.961 . S
H1110 C1095 0.961 . S
H1111 C1095 0.961 . S
H1112 C1096 0.931 . S
H1113 C1101 0.930 . S
H1114 C1102 0.956 . S
H1115 C1102 0.961 . S
H1116 C1102 0.961 . S
H1117 C1103 0.958 . S
H1118 C1103 0.961 . S
H1119 C1103 0.960 . S
C1120 C1121 1.391 . S
C1120 C1122 1.394 . S
C1120 H1136 0.931 . S
C1121 C1120 1.391 . S
C1121 C1125 1.376 . S
C1122 C1120 1.394 . S
C1122 C1123 1.369 . S
C1122 C1126 1.531 . S
C1123 C1122 1.369 . S
C1123 C1124 1.410 . S
C1123 C1131 1.503 1_655 S
C1124 C1123 1.410 . S
C1124 C1125 1.392 . S
C1124 C1127 1.511 . S
C1125 C1121 1.376 . S
C1125 C1124 1.392 . S
C1125 H1137 0.929 . S
C1126 C1122 1.531 . S
C1126 H1138 0.960 1_655 S
C1126 H1139 0.962 1_655 S
C1126 H1140 0.960 . S
C1127 C1124 1.511 . S
C1127 H1141 0.961 . S
C1127 H1142 0.961 . S
C1127 H1143 0.961 . S
C1128 C1129 1.370 . S
C1128 C1130 1.363 . S
C1128 H1144 0.931 . S
C1129 C1128 1.370 . S
C1129 C1133 1.408 . S
C1130 C1128 1.363 . S
C1130 C1131 1.370 . S
C1130 C1134 1.524 . S
C1131 C1123 1.503 1_455 S
C1131 C1130 1.370 . S
C1131 C1132 1.403 . S
C1132 C1131 1.403 . S
C1132 C1133 1.404 . S
C1132 C1135 1.539 1_455 S
C1133 C1129 1.408 . S
C1133 C1132 1.404 . S
C1133 H1145 0.930 . S
C1134 C1130 1.524 . S
C1134 H1146 0.956 . S
C1134 H1147 0.961 . S
C1134 H1148 0.961 . S
C1135 C1132 1.539 1_655 S
C1135 H1149 0.958 . S
C1135 H1150 0.961 . S
C1135 H1151 0.960 . S
H1136 C1120 0.931 . S
H1137 C1125 0.929 . S
H1138 C1126 0.960 1_455 S
H1139 C1126 0.962 1_455 S
H1140 C1126 0.960 . S
H1141 C1127 0.961 . S
H1142 C1127 0.961 . S
H1143 C1127 0.961 . S
H1144 C1128 0.931 . S
H1145 C1133 0.930 . S
H1146 C1134 0.956 . S
H1147 C1134 0.961 . S
H1148 C1134 0.961 . S
H1149 C1135 0.958 . S
H1150 C1135 0.961 . S
H1151 C1135 0.960 . S
C1152 C1153 1.391 . S
C1152 C1154 1.394 . S
C1152 H1168 0.931 . S
C1153 C1152 1.391 . S
C1153 C1157 1.376 . S
C1154 C1152 1.394 . S
C1154 C1155 1.369 . S
C1154 C1158 1.531 . S
C1155 C1154 1.369 . S
C1155 C1156 1.410 . S
C1155 C1163 1.503 1_545 S
C1156 C1155 1.410 . S
C1156 C1157 1.392 . S
C1156 C1159 1.511 . S
C1157 C1153 1.376 . S
C1157 C1156 1.392 . S
C1157 H1169 0.929 . S
C1158 C1154 1.531 . S
C1158 H1170 0.960 . S
C1158 H1171 0.962 . S
C1158 H1172 0.960 . S
C1159 C1156 1.511 . S
C1159 H1173 0.961 . S
C1159 H1174 0.961 1_545 S
C1159 H1175 0.961 . S
C1160 C1161 1.370 . S
C1160 C1162 1.363 . S
C1160 H1176 0.931 . S
C1161 C1160 1.370 . S
C1161 C1165 1.408 . S
C1162 C1160 1.363 . S
C1162 C1163 1.370 . S
C1162 C1166 1.524 . S
C1163 C1155 1.503 1_565 S
C1163 C1162 1.370 . S
C1163 C1164 1.403 . S
C1164 C1163 1.403 . S
C1164 C1165 1.404 . S
C1164 C1167 1.539 1_565 S
C1165 C1161 1.408 . S
C1165 C1164 1.404 . S
C1165 H1177 0.930 . S
C1166 C1162 1.524 . S
C1166 H1178 0.956 . S
C1166 H1179 0.961 . S
C1166 H1180 0.961 . S
C1167 C1164 1.539 1_545 S
C1167 H1181 0.958 . S
C1167 H1182 0.961 . S
C1167 H1183 0.960 . S
H1168 C1152 0.931 . S
H1169 C1157 0.929 . S
H1170 C1158 0.960 . S
H1171 C1158 0.962 . S
H1172 C1158 0.960 . S
H1173 C1159 0.961 . S
H1174 C1159 0.961 1_565 S
H1175 C1159 0.961 . S
H1176 C1160 0.931 . S
H1177 C1165 0.930 . S
H1178 C1166 0.956 . S
H1179 C1166 0.961 . S
H1180 C1166 0.961 . S
H1181 C1167 0.958 . S
H1182 C1167 0.961 . S
H1183 C1167 0.960 . S
C1184 C1185 1.391 . S
C1184 C1186 1.394 . S
C1184 H1200 0.931 . S
C1185 C1184 1.391 . S
C1185 C1189 1.376 . S
C1186 C1184 1.394 . S
C1186 C1187 1.369 . S
C1186 C1190 1.531 1_545 S
C1187 C1186 1.369 . S
C1187 C1188 1.410 . S
C1187 C1195 1.503 1_545 S
C1188 C1187 1.410 . S
C1188 C1189 1.392 . S
C1188 C1191 1.511 . S
C1189 C1185 1.376 . S
C1189 C1188 1.392 . S
C1189 H1201 0.929 . S
C1190 C1186 1.531 1_565 S
C1190 H1202 0.960 . S
C1190 H1203 0.962 . S
C1190 H1204 0.960 . S
C1191 C1188 1.511 . S
C1191 H1205 0.961 . S
C1191 H1206 0.961 . S
C1191 H1207 0.961 . S
C1192 C1193 1.370 . S
C1192 C1194 1.363 . S
C1192 H1208 0.931 . S
C1193 C1192 1.370 . S
C1193 C1197 1.408 . S
C1194 C1192 1.363 . S
C1194 C1195 1.370 . S
C1194 C1198 1.524 . S
C1195 C1187 1.503 1_565 S
C1195 C1194 1.370 . S
C1195 C1196 1.403 1_565 S
C1196 C1195 1.403 1_545 S
C1196 C1197 1.404 1_545 S
C1196 C1199 1.539 . S
C1197 C1193 1.408 . S
C1197 C1196 1.404 1_565 S
C1197 H1209 0.930 . S
C1198 C1194 1.524 . S
C1198 H1210 0.956 . S
C1198 H1211 0.961 . S
C1198 H1212 0.961 . S
C1199 C1196 1.539 . S
C1199 H1213 0.958 . S
C1199 H1214 0.961 . S
C1199 H1215 0.960 . S
H1200 C1184 0.931 . S
H1201 C1189 0.929 . S
H1202 C1190 0.960 . S
H1203 C1190 0.962 . S
H1204 C1190 0.960 . S
H1205 C1191 0.961 . S
H1206 C1191 0.961 . S
H1207 C1191 0.961 . S
H1208 C1192 0.931 . S
H1209 C1197 0.930 . S
H1210 C1198 0.956 . S
H1211 C1198 0.961 . S
H1212 C1198 0.961 . S
H1213 C1199 0.958 . S
H1214 C1199 0.961 . S
H1215 C1199 0.960 . S
C705 C49 1.311 . S
C713 C469 1.312 . S
C737 C108 1.312 . S
C745 C557 1.303 . S
C769 C233 1.317 . S
C777 C665 1.311 . S
C801 C381 1.312 . S
C809 C313 1.312 . S
C833 C29 1.898 . S
C841 C372 1.821 . S
C865 C117 1.870 . S
C873 C497 1.849 . S
C897 C548 1.799 . S
C905 C196 1.904 . S
C929 C321 1.874 . S
C937 C636 1.847 . S
C961 C401 1.876 . S
C969 C57 1.834 . S
C993 C137 1.838 . S
C1001 C460 1.897 . S
C1025 C577 1.885 . S
C1033 C225 1.828 . S
C1057 C284 1.858 . S
C1065 C673 1.891 . S
C1089 C205 0.220 . S
C1097 C20 0.303 . S
C1121 C293 0.201 . S
C1129 C145 0.306 . S
C1153 C409 0.136 . S
C1161 C585 0.286 . S
C1185 C489 0.318 . S
C1193 C645 0.211 . S
