# Generated by pormake.
# Topology una, (4)-cn, num edge types: 1
# Building blocks:
#     Node 0, Type 0, BuildingBlock: QUQFOY_clean_sbu_1, # of connection points: 4
#     Node 1, Type 0, BuildingBlock: QUQFOY_clean_sbu_1, # of connection points: 4
#     Node 2, Type 0, BuildingBlock: QUQFOY_clean_sbu_1, # of connection points: 4
#     Node 3, Type 0, BuildingBlock: QUQFOY_clean_sbu_1, # of connection points: 4
#     Node 4, Type 0, BuildingBlock: QUQFOY_clean_sbu_1, # of connection points: 4
#     Node 5, Type 0, BuildingBlock: QUQFOY_clean_sbu_1, # of connection points: 4
#     Node 6, Type 0, BuildingBlock: QUQFOY_clean_sbu_1, # of connection points: 4
#     Node 7, Type 0, BuildingBlock: QUQFOY_clean_sbu_1, # of connection points: 4
#     Node 8, Type 0, BuildingBlock: QUQFOY_clean_sbu_1, # of connection points: 4
#     Node 9, Type 0, BuildingBlock: QUQFOY_clean_sbu_1, # of connection points: 4
#     Node 10, Type 0, BuildingBlock: QUQFOY_clean_sbu_1, # of connection points: 4
#     Node 11, Type 0, BuildingBlock: QUQFOY_clean_sbu_1, # of connection points: 4
#     Edge 12, Type (0, 0), BuildingBlock: CIFDUS_clean_linker_0, # of connection points: 2
#     Edge 13, Type (0, 0), BuildingBlock: CIFDUS_clean_linker_0, # of connection points: 2
#     Edge 14, Type (0, 0), BuildingBlock: CIFDUS_clean_linker_0, # of connection points: 2
#     Edge 15, Type (0, 0), BuildingBlock: CIFDUS_clean_linker_0, # of connection points: 2
#     Edge 16, Type (0, 0), BuildingBlock: CIFDUS_clean_linker_0, # of connection points: 2
#     Edge 17, Type (0, 0), BuildingBlock: CIFDUS_clean_linker_0, # of connection points: 2
#     Edge 18, Type (0, 0), BuildingBlock: CIFDUS_clean_linker_0, # of connection points: 2
#     Edge 19, Type (0, 0), BuildingBlock: CIFDUS_clean_linker_0, # of connection points: 2
#     Edge 20, Type (0, 0), BuildingBlock: CIFDUS_clean_linker_0, # of connection points: 2
#     Edge 21, Type (0, 0), BuildingBlock: CIFDUS_clean_linker_0, # of connection points: 2
#     Edge 22, Type (0, 0), BuildingBlock: CIFDUS_clean_linker_0, # of connection points: 2
#     Edge 23, Type (0, 0), BuildingBlock: CIFDUS_clean_linker_0, # of connection points: 2
#     Edge 24, Type (0, 0), BuildingBlock: CIFDUS_clean_linker_0, # of connection points: 2
#     Edge 25, Type (0, 0), BuildingBlock: CIFDUS_clean_linker_0, # of connection points: 2
#     Edge 26, Type (0, 0), BuildingBlock: CIFDUS_clean_linker_0, # of connection points: 2
#     Edge 27, Type (0, 0), BuildingBlock: CIFDUS_clean_linker_0, # of connection points: 2
#     Edge 28, Type (0, 0), BuildingBlock: CIFDUS_clean_linker_0, # of connection points: 2
#     Edge 29, Type (0, 0), BuildingBlock: CIFDUS_clean_linker_0, # of connection points: 2
#     Edge 30, Type (0, 0), BuildingBlock: CIFDUS_clean_linker_0, # of connection points: 2
#     Edge 31, Type (0, 0), BuildingBlock: CIFDUS_clean_linker_0, # of connection points: 2
#     Edge 32, Type (0, 0), BuildingBlock: CIFDUS_clean_linker_0, # of connection points: 2
#     Edge 33, Type (0, 0), BuildingBlock: CIFDUS_clean_linker_0, # of connection points: 2
#     Edge 34, Type (0, 0), BuildingBlock: CIFDUS_clean_linker_0, # of connection points: 2
#     Edge 35, Type (0, 0), BuildingBlock: CIFDUS_clean_linker_0, # of connection points: 2
# Relax obj value: 0.102
# Max RMSD: 0.098
# Mean RMSD: 0.098
data_MOF--net-una--node1-QUQFOY_clean_sbu_1--edge1-CIFDUS_clean_linker_0
_symmetry_space_group_name_H-M    P1
_symmetry_Int_Tables_number       1
_symmetry_cell_setting            triclinic
loop_
_symmetry_equiv_pos_as_xyz
'x, y, z'
_cell_length_a     51.708821
_cell_length_b     51.328736
_cell_length_c     19.842233
_cell_angle_alpha  89.957711
_cell_angle_beta   90.513547
_cell_angle_gamma 119.67401
loop_
_atom_site_label
_atom_site_type_symbol
_atom_site_fract_x
_atom_site_fract_y
_atom_site_fract_z
_atom_type_partial_charge
O0 O 0.15498 0.49993 0.1098 0.0
Cd1 Cd 0.14953 0.45742 0.09341 0.0
Cd2 Cd 0.20499 0.48807 0.03946 0.0
O3 O 0.19938 0.52391 0.06364 0.0
O4 O 0.10569 0.42847 0.08467 0.0
O5 O 0.13665 0.44068 -0.0008 0.0
C6 C 0.10965 0.42631 0.02116 0.0
C7 C 0.22837 0.49085 0.93856 0.0
C8 C 0.17775 0.5243 0.09244 0.0
C9 C 0.19835 0.44939 0.15906 0.0
O10 O 0.2153 0.46745 0.11477 0.0
O11 O 0.17085 0.44195 0.16043 0.0
O12 O 0.24248 0.50858 0.98792 0.0
O13 O 0.20053 0.47152 0.94557 0.0
O14 O 0.69716 0.14071 0.29779 0.0
Cd15 Cd 0.73388 0.1362 0.27172 0.0
Cd16 Cd 0.75376 0.19345 0.21723 0.0
O17 O 0.71426 0.1863 0.25661 0.0
O18 O 0.72002 0.09237 0.25989 0.0
O19 O 0.73482 0.12427 0.17497 0.0
C20 C 0.72403 0.09699 0.19585 0.0
C21 C 0.77178 0.22447 0.12423 0.0
C22 C 0.69414 0.16351 0.28663 0.0
C23 C 0.79312 0.1855 0.32108 0.0
O24 O 0.78851 0.20134 0.27908 0.0
O25 O 0.77356 0.15808 0.32974 0.0
O26 O 0.77091 0.23485 0.18253 0.0
O27 O 0.76058 0.19586 0.11736 0.0
O28 O 0.59081 0.67376 0.44511 0.0
Cd29 Cd 0.6299 0.71343 0.42642 0.0
Cd30 Cd 0.59196 0.73208 0.37865 0.0
O31 O 0.56083 0.68802 0.39928 0.0
O32 O 0.66195 0.70246 0.41634 0.0
O33 O 0.64525 0.71797 0.33125 0.0
C34 C 0.66208 0.70758 0.35255 0.0
C35 C 0.58748 0.75317 0.27874 0.0
C36 C 0.56478 0.66806 0.42779 0.0
C37 C 0.63075 0.7662 0.49722 0.0
O38 O 0.61 0.76228 0.45664 0.0
O39 O 0.64255 0.74949 0.49402 0.0
O40 O 0.56843 0.74631 0.32626 0.0
O41 O 0.60887 0.7473 0.28685 0.0
O42 O 0.95186 0.57759 0.61755 0.0
Cd43 Cd 0.95407 0.61877 0.60378 0.0
Cd44 Cd 0.89873 0.58426 0.55024 0.0
O45 O 0.90753 0.54991 0.57096 0.0
O46 O 0.99715 0.64967 0.59308 0.0
O47 O 0.96422 0.63551 0.50977 0.0
C48 C 0.99155 0.6512 0.53006 0.0
C49 C 0.87713 0.58388 0.44713 0.0
C50 C 0.93078 0.55209 0.5988 0.0
C51 C 0.90427 0.62292 0.67083 0.0
O52 O 0.88779 0.604 0.62657 0.0
O53 O 0.93219 0.63235 0.67216 0.0
O54 O 0.86163 0.56629 0.49505 0.0
O55 O 0.90532 0.60126 0.45685 0.0
O56 O 0.4047 0.92409 0.78016 0.0
Cd57 Cd 0.3686 0.93077 0.76367 0.0
Cd58 Cd 0.34242 0.87332 0.71524 0.0
O59 O 0.38253 0.87705 0.74483 0.0
O60 O 0.38315 0.97414 0.74027 0.0
O61 O 0.36084 0.93683 0.66727 0.0
C62 C 0.37417 0.96532 0.6792 0.0
C63 C 0.32203 0.85095 0.61186 0.0
C64 C 0.40524 0.89992 0.76928 0.0
C65 C 0.31237 0.88525 0.83187 0.0
O66 O 0.31184 0.86715 0.78767 0.0
O67 O 0.3336 0.91236 0.83331 0.0
O68 O 0.32076 0.8351 0.66335 0.0
O69 O 0.3356 0.87972 0.61832 0.0
O70 O 0.50867 0.39384 0.94936 0.0
Cd71 Cd 0.46845 0.3548 0.93332 0.0
Cd72 Cd 0.50338 0.33443 0.88197 0.0
O73 O 0.53644 0.37826 0.899 0.0
O74 O 0.43699 0.36666 0.92141 0.0
O75 O 0.45227 0.34916 0.83826 0.0
C76 C 0.43615 0.36046 0.85804 0.0
C77 C 0.50135 0.31088 0.78059 0.0
C78 C 0.53396 0.39879 0.92898 0.0
C79 C 0.4678 0.30229 0.00409 0.0
O80 O 0.48738 0.30542 0.96177 0.0
O81 O 0.45633 0.31931 0.00188 0.0
O82 O 0.52229 0.31713 0.82408 0.0
O83 O 0.48203 0.31913 0.79347 0.0
O84 O 0.59043 0.93511 0.80719 0.0
Cd85 Cd 0.63115 0.93723 0.82246 0.0
Cd86 Cd 0.59706 0.8817 0.87452 0.0
O87 O 0.56338 0.8918 0.85814 0.0
O88 O 0.66175 0.98086 0.83172 0.0
O89 O 0.6483 0.94903 0.9166 0.0
C90 C 0.66351 0.97629 0.89522 0.0
C91 C 0.59925 0.85953 0.9751 0.0
C92 C 0.56536 0.91458 0.828 0.0
C93 C 0.63266 0.88597 0.75142 0.0
O94 O 0.61339 0.86935 0.7941 0.0
O95 O 0.64367 0.91438 0.75352 0.0
O96 O 0.5785 0.84507 0.93113 0.0
O97 O 0.61829 0.88728 0.96326 0.0
O98 O 0.69331 0.56993 0.97101 0.0
Cd99 Cd 0.72915 0.61302 0.98487 0.0
Cd100 Cd 0.75536 0.58316 0.03849 0.0
O101 O 0.71563 0.54597 0.01132 0.0
O102 O 0.71286 0.64122 0.99288 0.0
O103 O 0.73417 0.63098 0.07801 0.0
C104 C 0.72032 0.6445 0.05593 0.0
C105 C 0.77628 0.58284 0.14219 0.0
C106 C 0.6929 0.54553 0.98507 0.0
C107 C 0.78549 0.62245 0.91876 0.0
O108 O 0.78596 0.60563 0.96499 0.0
O109 O 0.76434 0.62846 0.9156 0.0
O110 O 0.77705 0.56731 0.09215 0.0
O111 O 0.76277 0.59809 0.13427 0.0
O112 O 0.14457 0.67723 0.13126 0.0
Cd113 Cd 0.14309 0.71632 0.14887 0.0
Cd114 Cd 0.19865 0.73581 0.19958 0.0
O115 O 0.18948 0.69304 0.17392 0.0
O116 O 0.10018 0.70456 0.16079 0.0
O117 O 0.13325 0.72188 0.244 0.0
C118 C 0.10591 0.71076 0.22414 0.0
C119 C 0.22078 0.75492 0.3036 0.0
C120 C 0.16581 0.67246 0.14655 0.0
C121 C 0.19293 0.77046 0.08246 0.0
O122 O 0.20953 0.76754 0.12568 0.0
O123 O 0.16497 0.75218 0.08154 0.0
O124 O 0.23596 0.75352 0.25406 0.0
O125 O 0.19261 0.74469 0.29484 0.0
O126 O 0.51009 0.13199 0.31235 0.0
Cd127 Cd 0.47107 0.1329 0.32975 0.0
Cd128 Cd 0.50786 0.18909 0.37959 0.0
O129 O 0.53854 0.17495 0.36441 0.0
O130 O 0.43894 0.09134 0.35454 0.0
O131 O 0.45978 0.12898 0.42729 0.0
C132 C 0.44174 0.10082 0.41599 0.0
C133 C 0.51274 0.21645 0.47676 0.0
C134 C 0.53551 0.15169 0.3345 0.0
C135 C 0.47019 0.18421 0.25762 0.0
O136 O 0.49059 0.2009 0.29902 0.0
O137 O 0.45834 0.15573 0.26077 0.0
O138 O 0.53194 0.22751 0.42921 0.0
O139 O 0.49094 0.18939 0.47017 0.0
O140 O 0.40725 0.49546 0.46648 0.0
Cd141 Cd 0.37102 0.4526 0.47855 0.0
Cd142 Cd 0.34521 0.48137 0.5359 0.0
O143 O 0.3863 0.51826 0.51799 0.0
O144 O 0.38613 0.42351 0.48956 0.0
O145 O 0.36554 0.43546 0.5723 0.0
C146 C 0.37875 0.42111 0.55227 0.0
C147 C 0.32136 0.47913 0.63626 0.0
C148 C 0.40843 0.51938 0.48792 0.0
C149 C 0.31557 0.44581 0.41047 0.0
O150 O 0.31605 0.46307 0.45673 0.0
O151 O 0.33549 0.43804 0.40878 0.0
O152 O 0.32546 0.49862 0.59072 0.0
O153 O 0.33188 0.46133 0.62609 0.0
O154 O 0.94043 0.38885 0.62788 0.0
Cd155 Cd 0.94686 0.35263 0.65062 0.0
Cd156 Cd 0.88876 0.32935 0.70356 0.0
O157 O 0.89468 0.36933 0.667 0.0
O158 O 0.99081 0.36836 0.66087 0.0
O159 O 0.95981 0.35127 0.74654 0.0
C160 C 0.98683 0.36351 0.72484 0.0
C161 C 0.85723 0.30893 0.79438 0.0
C162 C 0.91717 0.39071 0.63903 0.0
C163 C 0.8997 0.29269 0.59798 0.0
O164 O 0.8832 0.29579 0.64014 0.0
O165 O 0.92658 0.31344 0.5903 0.0
O166 O 0.84715 0.30977 0.7355 0.0
O167 O 0.88568 0.32129 0.80304 0.0
H168 H 0.2454 0.44016 0.14615 0.0
H169 H 0.18283 0.43781 0.29163 0.0
H170 H 0.21232 0.43296 0.38301 0.0
H171 H 0.2594 0.43646 0.42191 0.0
H172 H 0.32137 0.43754 0.27643 0.0
H173 H 0.28838 0.43532 0.18445 0.0
C174 C 0.2379 0.43796 0.1978 0.0
C175 C 0.21214 0.43972 0.21223 0.0
C176 C 0.255 0.4352 0.24997 0.0
C177 C 0.20249 0.43647 0.27919 0.0
C178 C 0.21951 0.43394 0.33147 0.0
C179 C 0.26538 0.43556 0.37003 0.0
C180 C 0.29298 0.43752 0.35592 0.0
C181 C 0.24631 0.43433 0.31756 0.0
C182 C 0.30028 0.43599 0.28861 0.0
C183 C 0.28151 0.43498 0.23604 0.0
H184 H 0.90622 0.28727 0.46285 0.0
H185 H 0.85959 0.23681 0.63806 0.0
H186 H 0.8246 0.19533 0.56688 0.0
H187 H 0.80148 0.17774 0.45461 0.0
H188 H 0.84673 0.22954 0.27962 0.0
H189 H 0.88789 0.26541 0.34996 0.0
C190 C 0.8891 0.26673 0.48534 0.0
C191 C 0.8854 0.26524 0.55553 0.0
C192 C 0.86828 0.24322 0.44382 0.0
C193 C 0.86281 0.23858 0.58399 0.0
C194 C 0.84261 0.21487 0.54329 0.0
C195 C 0.82085 0.19626 0.43181 0.0
C196 C 0.82086 0.2011 0.36212 0.0
C197 C 0.8442 0.21751 0.473 0.0
C198 C 0.84605 0.22545 0.33334 0.0
C199 C 0.8696 0.24612 0.37358 0.0
H200 H 0.6372 0.82177 0.48567 0.0
H201 H 0.6421 0.76149 0.62986 0.0
H202 H 0.64568 0.79487 0.72219 0.0
H203 H 0.64133 0.83817 0.76207 0.0
H204 H 0.63959 0.90007 0.61774 0.0
H205 H 0.64131 0.86941 0.52508 0.0
C206 C 0.63968 0.8163 0.53728 0.0
C207 C 0.63912 0.78908 0.55111 0.0
C208 C 0.64208 0.83579 0.58992 0.0
C209 C 0.6426 0.78234 0.61799 0.0
C210 C 0.64442 0.80132 0.67077 0.0
C211 C 0.64197 0.84524 0.71029 0.0
C212 C 0.64007 0.8712 0.69662 0.0
C213 C 0.64329 0.82765 0.65743 0.0
C214 C 0.64116 0.88029 0.62948 0.0
C215 C 0.6419 0.86261 0.57653 0.0
H216 H 0.85533 0.62909 0.65651 0.0
H217 H 0.92013 0.63553 0.80367 0.0
H218 H 0.89033 0.63961 0.89406 0.0
H219 H 0.84266 0.63448 0.93178 0.0
H220 H 0.7786 0.62962 0.78445 0.0
H221 H 0.81153 0.63237 0.69342 0.0
C222 C 0.8632 0.63198 0.70831 0.0
C223 C 0.88973 0.63163 0.72352 0.0
C224 C 0.84599 0.63442 0.75989 0.0
C225 C 0.89985 0.63576 0.79065 0.0
C226 C 0.88269 0.63788 0.84236 0.0
C227 C 0.83622 0.63473 0.8797 0.0
C228 C 0.80806 0.63155 0.86486 0.0
C229 C 0.85527 0.63625 0.82771 0.0
C230 C 0.80014 0.63217 0.79725 0.0
C231 C 0.81887 0.63345 0.74519 0.0
H232 H 0.2547 0.84137 0.81982 0.0
H233 H 0.31973 0.90042 0.96542 0.0
H234 H 0.28657 0.87152 0.05733 0.0
H235 H 0.2423 0.82524 0.09564 0.0
H236 H 0.17654 0.76715 0.95009 0.0
H237 H 0.20652 0.8001 0.85875 0.0
C238 C 0.26128 0.84834 0.8717 0.0
C239 C 0.28977 0.87284 0.88585 0.0
C240 C 0.2421 0.83157 0.92419 0.0
C241 C 0.29792 0.88177 0.95317 0.0
C242 C 0.27906 0.86505 0.00575 0.0
C243 C 0.23424 0.82017 0.04399 0.0
C244 C 0.20739 0.79358 0.02953 0.0
C245 C 0.25158 0.83928 0.99182 0.0
C246 C 0.19705 0.78745 0.96257 0.0
C247 C 0.21433 0.80619 0.91029 0.0
H248 H 0.46303 0.23288 0.26916 0.0
H249 H 0.46006 0.16887 0.12443 0.0
H250 H 0.45655 0.19883 0.03221 0.0
H251 H 0.46026 0.24629 0.9928 0.0
H252 H 0.46003 0.3087 0.13765 0.0
H253 H 0.4584 0.27617 0.22999 0.0
C254 C 0.46101 0.22523 0.21744 0.0
C255 C 0.46208 0.19886 0.20344 0.0
C256 C 0.45862 0.24239 0.16487 0.0
C257 C 0.45917 0.189 0.13641 0.0
C258 C 0.45739 0.20626 0.08371 0.0
C259 C 0.45922 0.25242 0.04462 0.0
C260 C 0.46051 0.27997 0.05855 0.0
C261 C 0.45795 0.23342 0.09728 0.0
C262 C 0.45891 0.28757 0.12571 0.0
C263 C 0.45823 0.26907 0.17848 0.0
H264 H 0.13244 0.53718 0.09905 0.0
H265 H 0.22791 0.5774 0.11487 0.0
H266 H 0.23261 0.62652 0.13352 0.0
H267 H 0.2099 0.65829 0.14408 0.0
H268 H 0.11475 0.61926 0.12202 0.0
H269 H 0.10966 0.56964 0.10654 0.0
C270 C 0.1542 0.5567 0.10704 0.0
C271 C 0.17977 0.55363 0.10591 0.0
C272 C 0.15685 0.58516 0.1161 0.0
C273 C 0.20789 0.57918 0.11535 0.0
C274 C 0.21062 0.60729 0.12603 0.0
C275 C 0.18802 0.63895 0.13588 0.0
C276 C 0.16276 0.64253 0.13441 0.0
C277 C 0.18529 0.61059 0.12619 0.0
C278 C 0.13461 0.6172 0.12312 0.0
C279 C 0.13166 0.58877 0.11453 0.0
H280 H 0.63633 0.11831 0.27788 0.0
H281 H 0.69138 0.21057 0.33885 0.0
H282 H 0.64719 0.21458 0.36166 0.0
H283 H 0.59329 0.19304 0.35844 0.0
H284 H 0.53737 0.1018 0.29084 0.0
H285 H 0.58138 0.09627 0.27598 0.0
C286 C 0.63851 0.13907 0.29718 0.0
C287 C 0.66702 0.16407 0.30715 0.0
C288 C 0.61288 0.14154 0.30807 0.0
C289 C 0.66964 0.19105 0.33091 0.0
C290 C 0.6444 0.19339 0.34375 0.0
C291 C 0.5906 0.17185 0.34071 0.0
C292 C 0.56199 0.14791 0.32571 0.0
C293 C 0.61595 0.16897 0.33145 0.0
C294 C 0.55911 0.12068 0.30249 0.0
C295 C 0.58428 0.11747 0.29416 0.0
H296 H 0.46628 0.53249 0.47442 0.0
H297 H 0.41036 0.57294 0.47603 0.0
H298 H 0.45353 0.62216 0.45665 0.0
H299 H 0.50708 0.6539 0.4392 0.0
H300 H 0.5641 0.61476 0.44484 0.0
H301 H 0.52077 0.56501 0.46176 0.0
C302 C 0.46362 0.5521 0.47032 0.0
C303 C 0.43512 0.54901 0.47633 0.0
C304 C 0.48875 0.58061 0.4607 0.0
C305 C 0.43204 0.57468 0.4718 0.0
C306 C 0.45672 0.60286 0.46059 0.0
C307 C 0.51005 0.63448 0.44405 0.0
C308 C 0.53876 0.63802 0.44033 0.0
C309 C 0.48516 0.60611 0.45499 0.0
C310 C 0.54224 0.61267 0.44766 0.0
C311 C 0.51746 0.5842 0.45712 0.0
H312 H 0.88743 0.49393 0.58303 0.0
H313 H 0.98057 0.54887 0.63359 0.0
H314 H 0.98531 0.50399 0.64515 0.0
H315 H 0.96258 0.44871 0.6436 0.0
H316 H 0.86881 0.39432 0.59923 0.0
H317 H 0.86487 0.4393 0.58163 0.0
C318 C 0.90881 0.49616 0.59651 0.0
C319 C 0.93357 0.52481 0.60748 0.0
C320 C 0.91132 0.47026 0.60375 0.0
C321 C 0.96106 0.52714 0.62521 0.0
C322 C 0.96384 0.50145 0.63157 0.0
C323 C 0.94142 0.4468 0.62915 0.0
C324 C 0.91607 0.41825 0.62224 0.0
C325 C 0.9391 0.47286 0.62109 0.0
C326 C 0.88865 0.41606 0.60477 0.0
C327 C 0.88635 0.44176 0.59488 0.0
H328 H 0.46275 0.94575 0.77423 0.0
H329 H 0.40885 0.84992 0.79732 0.0
H330 H 0.45339 0.84614 0.81948 0.0
H331 H 0.5077 0.86978 0.83036 0.0
H332 H 0.56212 0.96514 0.80045 0.0
H333 H 0.51747 0.96935 0.78278 0.0
C334 C 0.46078 0.92409 0.78455 0.0
C335 C 0.43249 0.89818 0.78442 0.0
C336 C 0.48661 0.92196 0.79572 0.0
C337 C 0.43034 0.87021 0.79695 0.0
C338 C 0.45581 0.86802 0.8097 0.0
C339 C 0.50981 0.89152 0.82022 0.0
C340 C 0.53824 0.91711 0.817 0.0
C341 C 0.48407 0.8937 0.80888 0.0
C342 C 0.54053 0.94505 0.80303 0.0
C343 C 0.51499 0.94749 0.79306 0.0
H344 H 0.59179 0.4122 0.92912 0.0
H345 H 0.53626 0.45232 0.95391 0.0
H346 H 0.58049 0.50153 0.97047 0.0
H347 H 0.63516 0.5332 0.97892 0.0
H348 H 0.6901 0.49205 0.96123 0.0
H349 H 0.64598 0.44334 0.94062 0.0
C350 C 0.58934 0.43172 0.93796 0.0
C351 C 0.56074 0.42858 0.93998 0.0
C352 C 0.61482 0.45982 0.94866 0.0
C353 C 0.55799 0.45407 0.9523 0.0
C354 C 0.58329 0.48225 0.96159 0.0
C355 C 0.63744 0.51358 0.97016 0.0
C356 C 0.66589 0.51628 0.97126 0.0
C357 C 0.61184 0.48541 0.95993 0.0
C358 C 0.66846 0.49058 0.96079 0.0
C359 C 0.64324 0.4627 0.94894 0.0
H360 H 0.31064 0.52151 0.68699 0.0
H361 H 0.29221 0.43079 0.71909 0.0
H362 H 0.25936 0.42544 0.81261 0.0
H363 H 0.23588 0.44686 0.88524 0.0
H364 H 0.25793 0.53883 0.85819 0.0
H365 H 0.28901 0.54339 0.76153 0.0
C366 C 0.29949 0.50059 0.7146 0.0
C367 C 0.3037 0.47655 0.69625 0.0
C368 C 0.28101 0.49784 0.76841 0.0
C369 C 0.28941 0.44967 0.73273 0.0
C370 C 0.27048 0.44653 0.78578 0.0
C371 C 0.24721 0.46766 0.85724 0.0
C372 C 0.24436 0.49232 0.87707 0.0
C373 C 0.26598 0.47042 0.80376 0.0
C374 C 0.25967 0.51954 0.84251 0.0
C375 C 0.2775 0.52217 0.78778 0.0
H376 H 0.76192 0.21474 0.98975 0.0
H377 H 0.81861 0.28055 0.13705 0.0
H378 H 0.85017 0.31322 0.04777 0.0
H379 H 0.86353 0.32154 0.92794 0.0
H380 H 0.80465 0.25777 0.78002 0.0
H381 H 0.77197 0.22589 0.86909 0.0
C382 C 0.78101 0.23638 0.00196 0.0
C383 C 0.78817 0.24519 0.06945 0.0
C384 C 0.79873 0.25531 0.95038 0.0
C385 C 0.81268 0.27339 0.08513 0.0
C386 C 0.83083 0.29201 0.03424 0.0
C387 C 0.84339 0.30078 0.91553 0.0
C388 C 0.83652 0.29174 0.84814 0.0
C389 C 0.82437 0.28296 0.96677 0.0
C390 C 0.81024 0.26509 0.83195 0.0
C391 C 0.79164 0.24682 0.88272 0.0
H392 H 0.63195 0.80205 0.21947 0.0
H393 H 0.53783 0.73953 0.20622 0.0
H394 H 0.53308 0.76714 0.1107 0.0
H395 H 0.55563 0.80937 0.03229 0.0
H396 H 0.64892 0.87463 0.05138 0.0
H397 H 0.6541 0.84603 0.14419 0.0
C398 C 0.61054 0.7944 0.1949 0.0
C399 C 0.58534 0.76864 0.21851 0.0
C400 C 0.6078 0.8111 0.14199 0.0
C401 C 0.5575 0.75921 0.18804 0.0
C402 C 0.55478 0.77503 0.1338 0.0
C403 C 0.57706 0.81739 0.05699 0.0
C404 C 0.60187 0.84396 0.03504 0.0
C405 C 0.57974 0.8011 0.11068 0.0
C406 C 0.62946 0.8543 0.06779 0.0
C407 C 0.63247 0.83785 0.12046 0.0
H408 H 0.82418 0.58141 0.43411 0.0
H409 H 0.89794 0.5887 0.31976 0.0
H410 H 0.87256 0.58821 0.21439 0.0
H411 H 0.82902 0.585 0.15549 0.0
H412 H 0.75771 0.58318 0.27002 0.0
H413 H 0.78249 0.58237 0.3754 0.0
C414 C 0.83458 0.58286 0.38596 0.0
C415 C 0.86257 0.58467 0.38401 0.0
C416 C 0.82034 0.58358 0.32617 0.0
C417 C 0.87632 0.58719 0.32192 0.0
C418 C 0.86181 0.58686 0.26193 0.0
C419 C 0.81899 0.58443 0.20367 0.0
C420 C 0.79153 0.58376 0.20561 0.0
C421 C 0.83378 0.58493 0.26354 0.0
C422 C 0.77886 0.58364 0.26784 0.0
C423 C 0.79296 0.5831 0.32782 0.0
H424 H 0.27482 0.80366 0.31863 0.0
H425 H 0.19973 0.73791 0.43068 0.0
H426 H 0.22539 0.76117 0.53694 0.0
H427 H 0.26922 0.80044 0.59729 0.0
H428 H 0.34173 0.86945 0.48473 0.0
H429 H 0.31713 0.84476 0.37871 0.0
C430 C 0.2642 0.79444 0.36646 0.0
C431 C 0.23571 0.76901 0.36745 0.0
C432 C 0.27862 0.80852 0.42679 0.0
C433 C 0.22173 0.75749 0.42922 0.0
C434 C 0.2364 0.77072 0.48972 0.0
C435 C 0.2796 0.8099 0.5494 0.0
C436 C 0.3073 0.83637 0.54823 0.0
C437 C 0.26484 0.79623 0.48903 0.0
C438 C 0.32041 0.84898 0.48634 0.0
C439 C 0.30639 0.83488 0.42597 0.0
H440 H 0.54532 0.30585 0.72038 0.0
H441 H 0.45137 0.27573 0.70619 0.0
H442 H 0.44618 0.24219 0.61303 0.0
H443 H 0.4684 0.22076 0.537 0.0
H444 H 0.56301 0.25423 0.54537 0.0
H445 H 0.56797 0.28692 0.64022 0.0
C446 C 0.52375 0.29205 0.69659 0.0
C447 C 0.49874 0.29308 0.72012 0.0
C448 C 0.52105 0.27321 0.64271 0.0
C449 C 0.47097 0.27538 0.68857 0.0
C450 C 0.46796 0.25607 0.6357 0.0
C451 C 0.48999 0.23507 0.56022 0.0
C452 C 0.51526 0.23491 0.53553 0.0
C453 C 0.4928 0.25459 0.61282 0.0
C454 C 0.54329 0.25397 0.56433 0.0
C455 C 0.54613 0.27266 0.61823 0.0
H456 H 0.10988 0.42189 0.88363 0.0
H457 H 0.05082 0.39346 0.05379 0.0
H458 H 1.00779 0.37014 0.9779 0.0
H459 H 0.98658 0.36033 0.86277 0.0
H460 H 1.04569 0.3894 0.69266 0.0
H461 H 0.08869 0.40964 0.76866 0.0
C462 C 0.08762 0.41031 0.90421 0.0
C463 C 0.08375 0.40959 0.97456 0.0
C464 C 0.0628 0.39712 0.8601 0.0
C465 C 0.05462 0.39449 2e-05 0.0
C466 C 1.0299 0.38116 0.95655 0.0
C467 C 1.00885 0.37082 0.84225 0.0
C468 C 1.01273 0.37337 0.77184 0.0
C469 C 1.03367 0.38272 0.88643 0.0
C470 C 1.04187 0.38711 0.74647 0.0
C471 C 0.06658 0.39878 0.78999 0.0
H472 H 0.66782 0.97471 0.03261 0.0
H473 H 0.69654 0.03585 0.86464 0.0
H474 H 0.71917 0.07847 0.94215 0.0
H475 H 0.72797 0.09869 0.05804 0.0
H476 H 0.69884 0.03745 0.22587 0.0
H477 H 0.6795 0.99491 0.14832 0.0
C478 C 0.67936 0.99733 0.01285 0.0
C479 C 0.6803 1.00191 0.94264 0.0
C480 C 0.69214 1.0219 0.05788 0.0
C481 C 0.69536 1.0315 0.91827 0.0
C482 C 0.70827 0.05599 0.96267 0.0
C483 C 0.71766 0.07606 0.07772 0.0
C484 C 0.7148 0.07143 0.14795 0.0
C485 C 0.70635 0.05151 0.03264 0.0
C486 C 0.70136 0.04184 0.17224 0.0
C487 C 0.69019 1.0174 0.12782 0.0
H488 H 0.72917 0.65242 0.19243 0.0
H489 H 0.69062 0.67452 0.02339 0.0
H490 H 0.67118 0.69797 0.09927 0.0
H491 H 0.66193 0.70913 0.21454 0.0
H492 H 0.69983 0.68632 0.38368 0.0
H493 H 0.72277 0.66665 0.30714 0.0
C494 C 0.71682 0.66267 0.17204 0.0
C495 C 0.71131 0.66149 0.10207 0.0
C496 C 0.70539 0.67596 0.2162 0.0
C497 C 0.69521 0.67494 0.07686 0.0
C498 C 0.68398 0.68836 0.12034 0.0
C499 C 0.67554 0.70024 0.23469 0.0
C500 C 0.67897 0.69918 0.30504 0.0
C501 C 0.68847 0.68856 0.19024 0.0
C502 C 0.69668 0.68745 0.32994 0.0
C503 C 0.70979 0.67607 0.28611 0.0
H504 H 0.11003 0.71652 0.36143 0.0
H505 H 1.04647 0.6864 0.19694 0.0
H506 H 1.00556 0.6674 0.27685 0.0
H507 H 0.98753 0.6556 0.39344 0.0
H508 H 0.05106 0.68502 0.55791 0.0
H509 H 0.09201 0.70812 0.47827 0.0
C510 C 0.08725 0.70618 0.34298 0.0
C511 C 0.08145 0.70281 0.27305 0.0
C512 C 0.06368 0.69493 0.38937 0.0
C513 C 0.05171 0.68929 0.25033 0.0
C514 C 1.02822 0.6783 0.29609 0.0
C515 C 1.01031 0.66741 0.41199 0.0
C516 C 1.01609 0.66836 0.48176 0.0
C517 C 1.03389 0.68043 0.36573 0.0
C518 C 1.04584 0.6838 0.50462 0.0
C519 C 0.06935 0.69699 0.45902 0.0
H520 H 0.40455 0.04014 0.40934 0.0
H521 H 0.44626 0.11369 0.55076 0.0
H522 H 0.42752 0.07856 0.64469 0.0
H523 H 0.40248 1.02662 0.68695 0.0
H524 H 0.36109 0.95313 0.54527 0.0
H525 H 0.3763 0.98846 0.45184 0.0
C526 C 0.40923 0.04856 0.46068 0.0
C527 C 0.42698 0.07961 0.47265 0.0
C528 C 0.39859 1.02815 0.51474 0.0
C529 C 0.43273 0.08998 0.53974 0.0
C530 C 0.42209 0.06985 0.59367 0.0
C531 C 0.39649 1.01831 0.63571 0.0
C532 C 0.38078 0.98715 0.62344 0.0
C533 C 0.4055 0.03883 0.58183 0.0
C534 C 0.3732 0.97692 0.55651 0.0
C535 C 0.38197 0.99715 0.50284 0.0
H536 H 0.37063 0.41566 0.68881 0.0
H537 H 0.40656 0.38892 0.52435 0.0
H538 H 0.4254 0.36576 0.60369 0.0
H539 H 0.43502 0.35626 0.72046 0.0
H540 H 0.39997 0.38387 0.8851 0.0
H541 H 0.37736 0.40313 0.80528 0.0
C542 C 0.38227 0.40446 0.67018 0.0
C543 C 0.38723 0.40423 0.60047 0.0
C544 C 0.3934 0.39139 0.71633 0.0
C545 C 0.40242 0.38958 0.57756 0.0
C546 C 0.4133 0.37634 0.62301 0.0
C547 C 0.42209 0.36611 0.73895 0.0
C548 C 0.41937 0.36865 0.80896 0.0
C549 C 0.40941 0.37756 0.69262 0.0
C550 C 0.40255 0.3816 0.83168 0.0
C551 C 0.38964 0.39274 0.78597 0.0
loop_
_geom_bond_atom_site_label_1
_geom_bond_atom_site_label_2
_geom_bond_distance
_geom_bond_site_symmetry_2
_ccdc_geom_bond_type
O0 Cd1 2.223 . S
O0 C8 1.315 . S
Cd1 O0 2.223 . S
Cd1 O4 2.297 . S
Cd1 O5 2.439 1_554 S
Cd1 O11 2.240 . S
Cd2 O3 2.240 . S
Cd2 O10 2.223 . S
Cd2 O12 2.297 1_554 S
Cd2 O13 2.439 1_554 S
O3 Cd2 2.240 . S
O3 C8 1.279 . S
O4 Cd1 2.297 . S
O4 C6 1.247 1_554 S
O5 Cd1 2.439 1_556 S
O5 C6 1.208 . S
C6 O4 1.247 1_556 S
C6 O5 1.208 . S
C7 O12 1.247 . S
C7 O13 1.208 . S
C8 O0 1.315 . S
C8 O3 1.279 . S
C9 O10 1.315 . S
C9 O11 1.279 . S
O10 Cd2 2.223 . S
O10 C9 1.315 . S
O11 Cd1 2.240 . S
O11 C9 1.279 . S
O12 Cd2 2.297 1_556 S
O12 C7 1.247 . S
O13 Cd2 2.439 1_556 S
O13 C7 1.208 . S
O14 Cd15 2.223 . S
O14 C22 1.315 . S
Cd15 O14 2.223 . S
Cd15 O18 2.297 . S
Cd15 O19 2.439 . S
Cd15 O25 2.240 . S
Cd16 O17 2.240 . S
Cd16 O24 2.223 . S
Cd16 O26 2.297 . S
Cd16 O27 2.439 . S
O17 Cd16 2.240 . S
O17 C22 1.279 . S
O18 Cd15 2.297 . S
O18 C20 1.247 . S
O19 Cd15 2.439 . S
O19 C20 1.208 . S
C20 O18 1.247 . S
C20 O19 1.208 . S
C21 O26 1.247 . S
C21 O27 1.208 . S
C22 O14 1.315 . S
C22 O17 1.279 . S
C23 O24 1.315 . S
C23 O25 1.279 . S
O24 Cd16 2.223 . S
O24 C23 1.315 . S
O25 Cd15 2.240 . S
O25 C23 1.279 . S
O26 Cd16 2.297 . S
O26 C21 1.247 . S
O27 Cd16 2.439 . S
O27 C21 1.208 . S
O28 Cd29 2.223 . S
O28 C36 1.315 . S
Cd29 O28 2.223 . S
Cd29 O32 2.297 . S
Cd29 O33 2.439 . S
Cd29 O39 2.240 . S
Cd30 O31 2.240 . S
Cd30 O38 2.223 . S
Cd30 O40 2.297 . S
Cd30 O41 2.439 . S
O31 Cd30 2.240 . S
O31 C36 1.279 . S
O32 Cd29 2.297 . S
O32 C34 1.247 . S
O33 Cd29 2.439 . S
O33 C34 1.208 . S
C34 O32 1.247 . S
C34 O33 1.208 . S
C35 O40 1.247 . S
C35 O41 1.208 . S
C36 O28 1.315 . S
C36 O31 1.279 . S
C37 O38 1.315 . S
C37 O39 1.279 . S
O38 Cd30 2.223 . S
O38 C37 1.315 . S
O39 Cd29 2.240 . S
O39 C37 1.279 . S
O40 Cd30 2.297 . S
O40 C35 1.247 . S
O41 Cd30 2.439 . S
O41 C35 1.208 . S
O42 Cd43 2.223 . S
O42 C50 1.315 . S
Cd43 O42 2.223 . S
Cd43 O46 2.297 . S
Cd43 O47 2.439 . S
Cd43 O53 2.240 . S
Cd44 O45 2.240 . S
Cd44 O52 2.223 . S
Cd44 O54 2.297 . S
Cd44 O55 2.439 . S
O45 Cd44 2.240 . S
O45 C50 1.279 . S
O46 Cd43 2.297 . S
O46 C48 1.247 . S
O47 Cd43 2.439 . S
O47 C48 1.208 . S
C48 O46 1.247 . S
C48 O47 1.208 . S
C49 O54 1.247 . S
C49 O55 1.208 . S
C50 O42 1.315 . S
C50 O45 1.279 . S
C51 O52 1.315 . S
C51 O53 1.279 . S
O52 Cd44 2.223 . S
O52 C51 1.315 . S
O53 Cd43 2.240 . S
O53 C51 1.279 . S
O54 Cd44 2.297 . S
O54 C49 1.247 . S
O55 Cd44 2.439 . S
O55 C49 1.208 . S
O56 Cd57 2.223 . S
O56 C64 1.315 . S
Cd57 O56 2.223 . S
Cd57 O60 2.297 . S
Cd57 O61 2.439 . S
Cd57 O67 2.240 . S
Cd58 O59 2.240 . S
Cd58 O66 2.223 . S
Cd58 O68 2.297 . S
Cd58 O69 2.439 . S
O59 Cd58 2.240 . S
O59 C64 1.279 . S
O60 Cd57 2.297 . S
O60 C62 1.247 . S
O61 Cd57 2.439 . S
O61 C62 1.208 . S
C62 O60 1.247 . S
C62 O61 1.208 . S
C63 O68 1.247 . S
C63 O69 1.208 . S
C64 O56 1.315 . S
C64 O59 1.279 . S
C65 O66 1.315 . S
C65 O67 1.279 . S
O66 Cd58 2.223 . S
O66 C65 1.315 . S
O67 Cd57 2.240 . S
O67 C65 1.279 . S
O68 Cd58 2.297 . S
O68 C63 1.247 . S
O69 Cd58 2.439 . S
O69 C63 1.208 . S
O70 Cd71 2.223 . S
O70 C78 1.315 . S
Cd71 O70 2.223 . S
Cd71 O74 2.297 . S
Cd71 O75 2.439 . S
Cd71 O81 2.240 . S
Cd72 O73 2.240 . S
Cd72 O80 2.223 . S
Cd72 O82 2.297 . S
Cd72 O83 2.439 . S
O73 Cd72 2.240 . S
O73 C78 1.279 . S
O74 Cd71 2.297 . S
O74 C76 1.247 . S
O75 Cd71 2.439 . S
O75 C76 1.208 . S
C76 O74 1.247 . S
C76 O75 1.208 . S
C77 O82 1.247 . S
C77 O83 1.208 . S
C78 O70 1.315 . S
C78 O73 1.279 . S
C79 O80 1.315 . S
C79 O81 1.279 . S
O80 Cd72 2.223 . S
O80 C79 1.315 . S
O81 Cd71 2.240 . S
O81 C79 1.279 . S
O82 Cd72 2.297 . S
O82 C77 1.247 . S
O83 Cd72 2.439 . S
O83 C77 1.208 . S
O84 Cd85 2.223 . S
O84 C92 1.315 . S
Cd85 O84 2.223 . S
Cd85 O88 2.297 . S
Cd85 O89 2.439 . S
Cd85 O95 2.240 . S
Cd86 O87 2.240 . S
Cd86 O94 2.223 . S
Cd86 O96 2.297 . S
Cd86 O97 2.439 . S
O87 Cd86 2.240 . S
O87 C92 1.279 . S
O88 Cd85 2.297 . S
O88 C90 1.247 . S
O89 Cd85 2.439 . S
O89 C90 1.208 . S
C90 O88 1.247 . S
C90 O89 1.208 . S
C91 O96 1.244 1_554 S
C91 O97 1.208 1_554 S
C92 O84 1.315 . S
C92 O87 1.279 . S
C93 O94 1.315 . S
C93 O95 1.279 . S
O94 Cd86 2.223 . S
O94 C93 1.315 . S
O95 Cd85 2.240 . S
O95 C93 1.279 . S
O96 Cd86 2.297 . S
O96 C91 1.244 1_556 S
O97 Cd86 2.439 . S
O97 C91 1.208 1_556 S
O98 Cd99 2.223 . S
O98 C106 1.315 . S
Cd99 O98 2.223 . S
Cd99 O102 2.297 1_556 S
Cd99 O103 2.439 1_556 S
Cd99 O109 2.240 . S
Cd100 O101 2.240 . S
Cd100 O108 2.223 1_554 S
Cd100 O110 2.297 . S
Cd100 O111 2.439 . S
O101 Cd100 2.240 . S
O101 C106 1.279 1_554 S
O102 Cd99 2.297 1_554 S
O102 C104 1.247 . S
O103 Cd99 2.439 1_554 S
O103 C104 1.208 . S
C104 O102 1.247 . S
C104 O103 1.208 . S
C105 O110 1.247 . S
C105 O111 1.208 . S
C106 O98 1.315 . S
C106 O101 1.279 1_556 S
C107 O108 1.315 . S
C107 O109 1.279 . S
O108 Cd100 2.223 1_556 S
O108 C107 1.315 . S
O109 Cd99 2.240 . S
O109 C107 1.279 . S
O110 Cd100 2.297 . S
O110 C105 1.247 . S
O111 Cd100 2.439 . S
O111 C105 1.208 . S
O112 Cd113 2.223 . S
O112 C120 1.315 . S
Cd113 O112 2.223 . S
Cd113 O116 2.297 . S
Cd113 O117 2.439 . S
Cd113 O123 2.240 . S
Cd114 O115 2.240 . S
Cd114 O122 2.223 . S
Cd114 O124 2.297 . S
Cd114 O125 2.439 . S
O115 Cd114 2.240 . S
O115 C120 1.279 . S
O116 Cd113 2.297 . S
O116 C118 1.247 . S
O117 Cd113 2.439 . S
O117 C118 1.208 . S
C118 O116 1.247 . S
C118 O117 1.208 . S
C119 O124 1.247 . S
C119 O125 1.208 . S
C120 O112 1.315 . S
C120 O115 1.279 . S
C121 O122 1.315 . S
C121 O123 1.279 . S
O122 Cd114 2.223 . S
O122 C121 1.315 . S
O123 Cd113 2.240 . S
O123 C121 1.279 . S
O124 Cd114 2.297 . S
O124 C119 1.247 . S
O125 Cd114 2.439 . S
O125 C119 1.208 . S
O126 Cd127 2.223 . S
O126 C134 1.315 . S
Cd127 O126 2.223 . S
Cd127 O130 2.297 . S
Cd127 O131 2.439 . S
Cd127 O137 2.240 . S
Cd128 O129 2.240 . S
Cd128 O136 2.223 . S
Cd128 O138 2.297 . S
Cd128 O139 2.439 . S
O129 Cd128 2.240 . S
O129 C134 1.279 . S
O130 Cd127 2.297 . S
O130 C132 1.247 . S
O131 Cd127 2.439 . S
O131 C132 1.208 . S
C132 O130 1.247 . S
C132 O131 1.208 . S
C133 O138 1.247 . S
C133 O139 1.208 . S
C134 O126 1.315 . S
C134 O129 1.279 . S
C135 O136 1.315 . S
C135 O137 1.279 . S
O136 Cd128 2.223 . S
O136 C135 1.315 . S
O137 Cd127 2.240 . S
O137 C135 1.279 . S
O138 Cd128 2.297 . S
O138 C133 1.247 . S
O139 Cd128 2.439 . S
O139 C133 1.208 . S
O140 Cd141 2.223 . S
O140 C148 1.315 . S
Cd141 O140 2.223 . S
Cd141 O144 2.297 . S
Cd141 O145 2.439 . S
Cd141 O151 2.240 . S
Cd142 O143 2.240 . S
Cd142 O150 2.223 . S
Cd142 O152 2.297 . S
Cd142 O153 2.439 . S
O143 Cd142 2.240 . S
O143 C148 1.279 . S
O144 Cd141 2.297 . S
O144 C146 1.247 . S
O145 Cd141 2.439 . S
O145 C146 1.208 . S
C146 O144 1.247 . S
C146 O145 1.208 . S
C147 O152 1.247 . S
C147 O153 1.208 . S
C148 O140 1.315 . S
C148 O143 1.279 . S
C149 O150 1.315 . S
C149 O151 1.279 . S
O150 Cd142 2.223 . S
O150 C149 1.315 . S
O151 Cd141 2.240 . S
O151 C149 1.279 . S
O152 Cd142 2.297 . S
O152 C147 1.247 . S
O153 Cd142 2.439 . S
O153 C147 1.208 . S
O154 Cd155 2.223 . S
O154 C162 1.315 . S
Cd155 O154 2.223 . S
Cd155 O158 2.297 . S
Cd155 O159 2.439 . S
Cd155 O165 2.240 . S
Cd156 O157 2.240 . S
Cd156 O164 2.223 . S
Cd156 O166 2.297 . S
Cd156 O167 2.439 . S
O157 Cd156 2.240 . S
O157 C162 1.279 . S
O158 Cd155 2.297 . S
O158 C160 1.247 . S
O159 Cd155 2.439 . S
O159 C160 1.208 . S
C160 O158 1.247 . S
C160 O159 1.208 . S
C161 O166 1.247 . S
C161 O167 1.208 . S
C162 O154 1.315 . S
C162 O157 1.279 . S
C163 O164 1.315 . S
C163 O165 1.279 . S
O164 Cd156 2.223 . S
O164 C163 1.315 . S
O165 Cd155 2.240 . S
O165 C163 1.279 . S
O166 Cd156 2.297 . S
O166 C161 1.247 . S
O167 Cd156 2.439 . S
O167 C161 1.208 . S
H168 C174 0.930 . S
H169 C177 0.930 . S
H170 C178 0.930 . S
H171 C179 0.930 . S
H172 C182 0.930 . S
H173 C183 0.930 . S
C174 H168 0.930 . S
C174 C175 1.355 . S
C174 C176 1.415 . S
C175 C174 1.355 . S
C175 C177 1.419 . S
C176 C174 1.415 . S
C176 C181 1.425 . S
C176 C183 1.409 . S
C177 H169 0.930 . S
C177 C175 1.419 . S
C177 C178 1.362 . S
C178 H170 0.930 . S
C178 C177 1.362 . S
C178 C181 1.409 . S
C179 H171 0.930 . S
C179 C180 1.355 . S
C179 C181 1.415 . S
C180 C179 1.355 . S
C180 C182 1.419 . S
C181 C176 1.425 . S
C181 C178 1.409 . S
C181 C179 1.415 . S
C182 H172 0.930 . S
C182 C180 1.419 . S
C182 C183 1.362 . S
C183 H173 0.930 . S
C183 C176 1.409 . S
C183 C182 1.362 . S
H184 C190 0.930 . S
H185 C193 0.930 . S
H186 C194 0.930 . S
H187 C195 0.930 . S
H188 C198 0.930 . S
H189 C199 0.930 . S
C190 H184 0.930 . S
C190 C191 1.355 . S
C190 C192 1.415 . S
C191 C190 1.355 . S
C191 C193 1.419 . S
C192 C190 1.415 . S
C192 C197 1.425 . S
C192 C199 1.409 . S
C193 H185 0.930 . S
C193 C191 1.419 . S
C193 C194 1.362 . S
C194 H186 0.930 . S
C194 C193 1.362 . S
C194 C197 1.409 . S
C195 H187 0.930 . S
C195 C196 1.355 . S
C195 C197 1.415 . S
C196 C195 1.355 . S
C196 C198 1.419 . S
C197 C192 1.425 . S
C197 C194 1.409 . S
C197 C195 1.415 . S
C198 H188 0.930 . S
C198 C196 1.419 . S
C198 C199 1.362 . S
C199 H189 0.930 . S
C199 C192 1.409 . S
C199 C198 1.362 . S
H200 C206 0.930 . S
H201 C209 0.930 . S
H202 C210 0.930 . S
H203 C211 0.930 . S
H204 C214 0.930 . S
H205 C215 0.930 . S
C206 H200 0.930 . S
C206 C207 1.355 . S
C206 C208 1.415 . S
C207 C206 1.355 . S
C207 C209 1.419 . S
C208 C206 1.415 . S
C208 C213 1.425 . S
C208 C215 1.409 . S
C209 H201 0.930 . S
C209 C207 1.419 . S
C209 C210 1.362 . S
C210 H202 0.930 . S
C210 C209 1.362 . S
C210 C213 1.409 . S
C211 H203 0.930 . S
C211 C212 1.355 . S
C211 C213 1.415 . S
C212 C211 1.355 . S
C212 C214 1.419 . S
C213 C208 1.425 . S
C213 C210 1.409 . S
C213 C211 1.415 . S
C214 H204 0.930 . S
C214 C212 1.419 . S
C214 C215 1.362 . S
C215 H205 0.930 . S
C215 C208 1.409 . S
C215 C214 1.362 . S
H216 C222 0.930 . S
H217 C225 0.930 . S
H218 C226 0.930 . S
H219 C227 0.930 . S
H220 C230 0.930 . S
H221 C231 0.930 . S
C222 H216 0.930 . S
C222 C223 1.355 . S
C222 C224 1.415 . S
C223 C222 1.355 . S
C223 C225 1.419 . S
C224 C222 1.415 . S
C224 C229 1.425 . S
C224 C231 1.409 . S
C225 H217 0.930 . S
C225 C223 1.419 . S
C225 C226 1.362 . S
C226 H218 0.930 . S
C226 C225 1.362 . S
C226 C229 1.409 . S
C227 H219 0.930 . S
C227 C228 1.355 . S
C227 C229 1.415 . S
C228 C227 1.355 . S
C228 C230 1.419 . S
C229 C224 1.425 . S
C229 C226 1.409 . S
C229 C227 1.415 . S
C230 H220 0.930 . S
C230 C228 1.419 . S
C230 C231 1.362 . S
C231 H221 0.930 . S
C231 C224 1.409 . S
C231 C230 1.362 . S
H232 C238 0.930 . S
H233 C241 0.930 . S
H234 C242 0.930 1_554 S
H235 C243 0.930 . S
H236 C246 0.930 . S
H237 C247 0.930 . S
C238 H232 0.930 . S
C238 C239 1.355 . S
C238 C240 1.415 . S
C239 C238 1.355 . S
C239 C241 1.419 . S
C240 C238 1.415 . S
C240 C245 1.425 . S
C240 C247 1.409 . S
C241 H233 0.930 . S
C241 C239 1.419 . S
C241 C242 1.362 . S
C242 H234 0.930 1_556 S
C242 C241 1.362 . S
C242 C245 1.409 . S
C243 H235 0.930 . S
C243 C244 1.355 . S
C243 C245 1.415 1_554 S
C244 C243 1.355 . S
C244 C246 1.419 1_554 S
C245 C240 1.425 . S
C245 C242 1.409 . S
C245 C243 1.415 1_556 S
C246 H236 0.930 . S
C246 C244 1.419 1_556 S
C246 C247 1.362 . S
C247 H237 0.930 . S
C247 C240 1.409 . S
C247 C246 1.362 . S
H248 C254 0.930 . S
H249 C257 0.930 . S
H250 C258 0.930 . S
H251 C259 0.930 . S
H252 C262 0.930 . S
H253 C263 0.930 . S
C254 H248 0.930 . S
C254 C255 1.355 . S
C254 C256 1.415 . S
C255 C254 1.355 . S
C255 C257 1.419 . S
C256 C254 1.415 . S
C256 C261 1.425 . S
C256 C263 1.409 . S
C257 H249 0.930 . S
C257 C255 1.419 . S
C257 C258 1.362 . S
C258 H250 0.930 . S
C258 C257 1.362 . S
C258 C261 1.409 . S
C259 H251 0.930 . S
C259 C260 1.355 . S
C259 C261 1.415 . S
C260 C259 1.355 . S
C260 C262 1.419 . S
C261 C256 1.425 . S
C261 C258 1.409 . S
C261 C259 1.415 . S
C262 H252 0.930 . S
C262 C260 1.419 . S
C262 C263 1.362 . S
C263 H253 0.930 . S
C263 C256 1.409 . S
C263 C262 1.362 . S
H264 C270 0.930 . S
H265 C273 0.930 . S
H266 C274 0.930 . S
H267 C275 0.930 . S
H268 C278 0.930 . S
H269 C279 0.930 . S
C270 H264 0.930 . S
C270 C271 1.355 . S
C270 C272 1.415 . S
C271 C270 1.355 . S
C271 C273 1.419 . S
C272 C270 1.415 . S
C272 C277 1.425 . S
C272 C279 1.409 . S
C273 H265 0.930 . S
C273 C271 1.419 . S
C273 C274 1.362 . S
C274 H266 0.930 . S
C274 C273 1.362 . S
C274 C277 1.409 . S
C275 H267 0.930 . S
C275 C276 1.355 . S
C275 C277 1.415 . S
C276 C275 1.355 . S
C276 C278 1.419 . S
C277 C272 1.425 . S
C277 C274 1.409 . S
C277 C275 1.415 . S
C278 H268 0.930 . S
C278 C276 1.419 . S
C278 C279 1.362 . S
C279 H269 0.930 . S
C279 C272 1.409 . S
C279 C278 1.362 . S
H280 C286 0.930 . S
H281 C289 0.930 . S
H282 C290 0.930 . S
H283 C291 0.930 . S
H284 C294 0.930 . S
H285 C295 0.930 . S
C286 H280 0.930 . S
C286 C287 1.355 . S
C286 C288 1.415 . S
C287 C286 1.355 . S
C287 C289 1.419 . S
C288 C286 1.415 . S
C288 C293 1.425 . S
C288 C295 1.409 . S
C289 H281 0.930 . S
C289 C287 1.419 . S
C289 C290 1.362 . S
C290 H282 0.930 . S
C290 C289 1.362 . S
C290 C293 1.409 . S
C291 H283 0.930 . S
C291 C292 1.355 . S
C291 C293 1.415 . S
C292 C291 1.355 . S
C292 C294 1.419 . S
C293 C288 1.425 . S
C293 C290 1.409 . S
C293 C291 1.415 . S
C294 H284 0.930 . S
C294 C292 1.419 . S
C294 C295 1.362 . S
C295 H285 0.930 . S
C295 C288 1.409 . S
C295 C294 1.362 . S
H296 C302 0.930 . S
H297 C305 0.930 . S
H298 C306 0.930 . S
H299 C307 0.930 . S
H300 C310 0.930 . S
H301 C311 0.930 . S
C302 H296 0.930 . S
C302 C303 1.355 . S
C302 C304 1.415 . S
C303 C302 1.355 . S
C303 C305 1.419 . S
C304 C302 1.415 . S
C304 C309 1.425 . S
C304 C311 1.409 . S
C305 H297 0.930 . S
C305 C303 1.419 . S
C305 C306 1.362 . S
C306 H298 0.930 . S
C306 C305 1.362 . S
C306 C309 1.409 . S
C307 H299 0.930 . S
C307 C308 1.355 . S
C307 C309 1.415 . S
C308 C307 1.355 . S
C308 C310 1.419 . S
C309 C304 1.425 . S
C309 C306 1.409 . S
C309 C307 1.415 . S
C310 H300 0.930 . S
C310 C308 1.419 . S
C310 C311 1.362 . S
C311 H301 0.930 . S
C311 C304 1.409 . S
C311 C310 1.362 . S
H312 C318 0.930 . S
H313 C321 0.930 . S
H314 C322 0.930 . S
H315 C323 0.930 . S
H316 C326 0.930 . S
H317 C327 0.930 . S
C318 H312 0.930 . S
C318 C319 1.355 . S
C318 C320 1.415 . S
C319 C318 1.355 . S
C319 C321 1.419 . S
C320 C318 1.415 . S
C320 C325 1.425 . S
C320 C327 1.409 . S
C321 H313 0.930 . S
C321 C319 1.419 . S
C321 C322 1.362 . S
C322 H314 0.930 . S
C322 C321 1.362 . S
C322 C325 1.409 . S
C323 H315 0.930 . S
C323 C324 1.355 . S
C323 C325 1.415 . S
C324 C323 1.355 . S
C324 C326 1.419 . S
C325 C320 1.425 . S
C325 C322 1.409 . S
C325 C323 1.415 . S
C326 H316 0.930 . S
C326 C324 1.419 . S
C326 C327 1.362 . S
C327 H317 0.930 . S
C327 C320 1.409 . S
C327 C326 1.362 . S
H328 C334 0.930 . S
H329 C337 0.930 . S
H330 C338 0.930 . S
H331 C339 0.930 . S
H332 C342 0.930 . S
H333 C343 0.930 . S
C334 H328 0.930 . S
C334 C335 1.355 . S
C334 C336 1.415 . S
C335 C334 1.355 . S
C335 C337 1.419 . S
C336 C334 1.415 . S
C336 C341 1.425 . S
C336 C343 1.409 . S
C337 H329 0.930 . S
C337 C335 1.419 . S
C337 C338 1.362 . S
C338 H330 0.930 . S
C338 C337 1.362 . S
C338 C341 1.409 . S
C339 H331 0.930 . S
C339 C340 1.355 . S
C339 C341 1.415 . S
C340 C339 1.355 . S
C340 C342 1.419 . S
C341 C336 1.425 . S
C341 C338 1.409 . S
C341 C339 1.415 . S
C342 H332 0.930 . S
C342 C340 1.419 . S
C342 C343 1.362 . S
C343 H333 0.930 . S
C343 C336 1.409 . S
C343 C342 1.362 . S
H344 C350 0.930 . S
H345 C353 0.930 . S
H346 C354 0.930 . S
H347 C355 0.930 . S
H348 C358 0.930 . S
H349 C359 0.930 . S
C350 H344 0.930 . S
C350 C351 1.355 . S
C350 C352 1.415 . S
C351 C350 1.355 . S
C351 C353 1.419 . S
C352 C350 1.415 . S
C352 C357 1.425 . S
C352 C359 1.409 . S
C353 H345 0.930 . S
C353 C351 1.419 . S
C353 C354 1.362 . S
C354 H346 0.930 . S
C354 C353 1.362 . S
C354 C357 1.409 . S
C355 H347 0.930 . S
C355 C356 1.355 . S
C355 C357 1.415 . S
C356 C355 1.355 . S
C356 C358 1.419 . S
C357 C352 1.425 . S
C357 C354 1.409 . S
C357 C355 1.415 . S
C358 H348 0.930 . S
C358 C356 1.419 . S
C358 C359 1.362 . S
C359 H349 0.930 . S
C359 C352 1.409 . S
C359 C358 1.362 . S
H360 C366 0.930 . S
H361 C369 0.930 . S
H362 C370 0.930 . S
H363 C371 0.930 . S
H364 C374 0.930 . S
H365 C375 0.930 . S
C366 H360 0.930 . S
C366 C367 1.355 . S
C366 C368 1.415 . S
C367 C366 1.355 . S
C367 C369 1.419 . S
C368 C366 1.415 . S
C368 C373 1.425 . S
C368 C375 1.409 . S
C369 H361 0.930 . S
C369 C367 1.419 . S
C369 C370 1.362 . S
C370 H362 0.930 . S
C370 C369 1.362 . S
C370 C373 1.409 . S
C371 H363 0.930 . S
C371 C372 1.355 . S
C371 C373 1.415 . S
C372 C371 1.355 . S
C372 C374 1.419 . S
C373 C368 1.425 . S
C373 C370 1.409 . S
C373 C371 1.415 . S
C374 H364 0.930 . S
C374 C372 1.419 . S
C374 C375 1.362 . S
C375 H365 0.930 . S
C375 C368 1.409 . S
C375 C374 1.362 . S
H376 C382 0.930 . S
H377 C385 0.930 . S
H378 C386 0.930 . S
H379 C387 0.930 . S
H380 C390 0.930 . S
H381 C391 0.930 . S
C382 H376 0.930 . S
C382 C383 1.355 1_556 S
C382 C384 1.415 . S
C383 C382 1.355 1_554 S
C383 C385 1.419 . S
C384 C382 1.415 . S
C384 C389 1.425 . S
C384 C391 1.409 . S
C385 H377 0.930 . S
C385 C383 1.419 . S
C385 C386 1.362 . S
C386 H378 0.930 . S
C386 C385 1.362 . S
C386 C389 1.409 1_554 S
C387 H379 0.930 . S
C387 C388 1.355 . S
C387 C389 1.415 . S
C388 C387 1.355 . S
C388 C390 1.419 . S
C389 C384 1.425 . S
C389 C386 1.409 1_556 S
C389 C387 1.415 . S
C390 H380 0.930 . S
C390 C388 1.419 . S
C390 C391 1.362 . S
C391 H381 0.930 . S
C391 C384 1.409 . S
C391 C390 1.362 . S
H392 C398 0.930 . S
H393 C401 0.930 . S
H394 C402 0.930 . S
H395 C403 0.930 . S
H396 C406 0.930 1_556 S
H397 C407 0.930 . S
C398 H392 0.930 . S
C398 C399 1.355 . S
C398 C400 1.415 . S
C399 C398 1.355 . S
C399 C401 1.419 . S
C400 C398 1.415 . S
C400 C405 1.425 . S
C400 C407 1.409 . S
C401 H393 0.930 . S
C401 C399 1.419 . S
C401 C402 1.362 . S
C402 H394 0.930 . S
C402 C401 1.362 . S
C402 C405 1.409 . S
C403 H395 0.930 . S
C403 C404 1.355 . S
C403 C405 1.415 . S
C404 C403 1.355 . S
C404 C406 1.419 . S
C405 C400 1.425 . S
C405 C402 1.409 . S
C405 C403 1.415 . S
C406 H396 0.930 1_554 S
C406 C404 1.419 . S
C406 C407 1.362 . S
C407 H397 0.930 . S
C407 C400 1.409 . S
C407 C406 1.362 . S
H408 C414 0.930 . S
H409 C417 0.930 . S
H410 C418 0.930 . S
H411 C419 0.930 . S
H412 C422 0.930 . S
H413 C423 0.930 . S
C414 H408 0.930 . S
C414 C415 1.355 . S
C414 C416 1.415 . S
C415 C414 1.355 . S
C415 C417 1.419 . S
C416 C414 1.415 . S
C416 C421 1.425 . S
C416 C423 1.409 . S
C417 H409 0.930 . S
C417 C415 1.419 . S
C417 C418 1.362 . S
C418 H410 0.930 . S
C418 C417 1.362 . S
C418 C421 1.409 . S
C419 H411 0.930 . S
C419 C420 1.355 . S
C419 C421 1.415 . S
C420 C419 1.355 . S
C420 C422 1.419 . S
C421 C416 1.425 . S
C421 C418 1.409 . S
C421 C419 1.415 . S
C422 H412 0.930 . S
C422 C420 1.419 . S
C422 C423 1.362 . S
C423 H413 0.930 . S
C423 C416 1.409 . S
C423 C422 1.362 . S
H424 C430 0.930 . S
H425 C433 0.930 . S
H426 C434 0.930 . S
H427 C435 0.930 . S
H428 C438 0.930 . S
H429 C439 0.930 . S
C430 H424 0.930 . S
C430 C431 1.355 . S
C430 C432 1.415 . S
C431 C430 1.355 . S
C431 C433 1.419 . S
C432 C430 1.415 . S
C432 C437 1.425 . S
C432 C439 1.409 . S
C433 H425 0.930 . S
C433 C431 1.419 . S
C433 C434 1.362 . S
C434 H426 0.930 . S
C434 C433 1.362 . S
C434 C437 1.409 . S
C435 H427 0.930 . S
C435 C436 1.355 . S
C435 C437 1.415 . S
C436 C435 1.355 . S
C436 C438 1.419 . S
C437 C432 1.425 . S
C437 C434 1.409 . S
C437 C435 1.415 . S
C438 H428 0.930 . S
C438 C436 1.419 . S
C438 C439 1.362 . S
C439 H429 0.930 . S
C439 C432 1.409 . S
C439 C438 1.362 . S
H440 C446 0.930 . S
H441 C449 0.930 . S
H442 C450 0.930 . S
H443 C451 0.930 . S
H444 C454 0.930 . S
H445 C455 0.930 . S
C446 H440 0.930 . S
C446 C447 1.355 . S
C446 C448 1.415 . S
C447 C446 1.355 . S
C447 C449 1.419 . S
C448 C446 1.415 . S
C448 C453 1.425 . S
C448 C455 1.409 . S
C449 H441 0.930 . S
C449 C447 1.419 . S
C449 C450 1.362 . S
C450 H442 0.930 . S
C450 C449 1.362 . S
C450 C453 1.409 . S
C451 H443 0.930 . S
C451 C452 1.355 . S
C451 C453 1.415 . S
C452 C451 1.355 . S
C452 C454 1.419 . S
C453 C448 1.425 . S
C453 C450 1.409 . S
C453 C451 1.415 . S
C454 H444 0.930 . S
C454 C452 1.419 . S
C454 C455 1.362 . S
C455 H445 0.930 . S
C455 C448 1.409 . S
C455 C454 1.362 . S
H456 C462 0.930 . S
H457 C465 0.930 . S
H458 C466 0.930 1_655 S
H459 C467 0.930 . S
H460 C470 0.930 . S
H461 C471 0.930 1_455 S
C462 H456 0.930 . S
C462 C463 1.355 . S
C462 C464 1.415 . S
C463 C462 1.355 . S
C463 C465 1.419 . S
C464 C462 1.415 . S
C464 C469 1.425 1_455 S
C464 C471 1.409 1_455 S
C465 H457 0.930 . S
C465 C463 1.419 . S
C465 C466 1.362 . S
C466 H458 0.930 1_455 S
C466 C465 1.362 . S
C466 C469 1.409 1_455 S
C467 H459 0.930 . S
C467 C468 1.355 . S
C467 C469 1.415 . S
C468 C467 1.355 . S
C468 C470 1.419 . S
C469 C464 1.425 1_655 S
C469 C466 1.409 1_655 S
C469 C467 1.415 . S
C470 H460 0.930 . S
C470 C468 1.419 . S
C470 C471 1.362 . S
C471 H461 0.930 1_655 S
C471 C464 1.409 1_655 S
C471 C470 1.362 . S
H472 C478 0.930 . S
H473 C481 0.930 . S
H474 C482 0.930 . S
H475 C483 0.930 . S
H476 C486 0.930 . S
H477 C487 0.930 . S
C478 H472 0.930 . S
C478 C479 1.355 1_554 S
C478 C480 1.415 . S
C479 C478 1.355 1_556 S
C479 C481 1.419 . S
C480 C478 1.415 . S
C480 C485 1.425 1_565 S
C480 C487 1.409 . S
C481 H473 0.930 . S
C481 C479 1.419 . S
C481 C482 1.362 1_565 S
C482 H474 0.930 . S
C482 C481 1.362 1_545 S
C482 C485 1.409 1_556 S
C483 H475 0.930 . S
C483 C484 1.355 . S
C483 C485 1.415 . S
C484 C483 1.355 . S
C484 C486 1.419 . S
C485 C480 1.425 1_545 S
C485 C482 1.409 1_554 S
C485 C483 1.415 . S
C486 H476 0.930 . S
C486 C484 1.419 . S
C486 C487 1.362 1_545 S
C487 H477 0.930 . S
C487 C480 1.409 . S
C487 C486 1.362 1_565 S
H488 C494 0.930 . S
H489 C497 0.930 . S
H490 C498 0.930 . S
H491 C499 0.930 . S
H492 C502 0.930 . S
H493 C503 0.930 . S
C494 H488 0.930 . S
C494 C495 1.355 . S
C494 C496 1.415 . S
C495 C494 1.355 . S
C495 C497 1.419 . S
C496 C494 1.415 . S
C496 C501 1.425 . S
C496 C503 1.409 . S
C497 H489 0.930 . S
C497 C495 1.419 . S
C497 C498 1.362 . S
C498 H490 0.930 . S
C498 C497 1.362 . S
C498 C501 1.409 . S
C499 H491 0.930 . S
C499 C500 1.355 . S
C499 C501 1.415 . S
C500 C499 1.355 . S
C500 C502 1.419 . S
C501 C496 1.425 . S
C501 C498 1.409 . S
C501 C499 1.415 . S
C502 H492 0.930 . S
C502 C500 1.419 . S
C502 C503 1.362 . S
C503 H493 0.930 . S
C503 C496 1.409 . S
C503 C502 1.362 . S
H504 C510 0.930 . S
H505 C513 0.930 . S
H506 C514 0.930 . S
H507 C515 0.930 . S
H508 C518 0.930 . S
H509 C519 0.930 . S
C510 H504 0.930 . S
C510 C511 1.355 . S
C510 C512 1.415 . S
C511 C510 1.355 . S
C511 C513 1.419 . S
C512 C510 1.415 . S
C512 C517 1.425 1_455 S
C512 C519 1.409 . S
C513 H505 0.930 . S
C513 C511 1.419 . S
C513 C514 1.362 1_455 S
C514 H506 0.930 . S
C514 C513 1.362 1_655 S
C514 C517 1.409 . S
C515 H507 0.930 . S
C515 C516 1.355 . S
C515 C517 1.415 . S
C516 C515 1.355 . S
C516 C518 1.419 . S
C517 C512 1.425 1_655 S
C517 C514 1.409 . S
C517 C515 1.415 . S
C518 H508 0.930 . S
C518 C516 1.419 . S
C518 C519 1.362 1_655 S
C519 H509 0.930 . S
C519 C512 1.409 . S
C519 C518 1.362 1_455 S
H520 C526 0.930 . S
H521 C529 0.930 . S
H522 C530 0.930 . S
H523 C531 0.930 . S
H524 C534 0.930 . S
H525 C535 0.930 . S
C526 H520 0.930 . S
C526 C527 1.355 . S
C526 C528 1.415 1_545 S
C527 C526 1.355 . S
C527 C529 1.419 . S
C528 C526 1.415 1_565 S
C528 C533 1.425 1_565 S
C528 C535 1.409 . S
C529 H521 0.930 . S
C529 C527 1.419 . S
C529 C530 1.362 . S
C530 H522 0.930 . S
C530 C529 1.362 . S
C530 C533 1.409 . S
C531 H523 0.930 . S
C531 C532 1.355 . S
C531 C533 1.415 1_565 S
C532 C531 1.355 . S
C532 C534 1.419 . S
C533 C528 1.425 1_545 S
C533 C530 1.409 . S
C533 C531 1.415 1_545 S
C534 H524 0.930 . S
C534 C532 1.419 . S
C534 C535 1.362 . S
C535 H525 0.930 . S
C535 C528 1.409 . S
C535 C534 1.362 . S
H536 C542 0.930 . S
H537 C545 0.930 . S
H538 C546 0.930 . S
H539 C547 0.930 . S
H540 C550 0.930 . S
H541 C551 0.930 . S
C542 H536 0.930 . S
C542 C543 1.355 . S
C542 C544 1.415 . S
C543 C542 1.355 . S
C543 C545 1.419 . S
C544 C542 1.415 . S
C544 C549 1.425 . S
C544 C551 1.409 . S
C545 H537 0.930 . S
C545 C543 1.419 . S
C545 C546 1.362 . S
C546 H538 0.930 . S
C546 C545 1.362 . S
C546 C549 1.409 . S
C547 H539 0.930 . S
C547 C548 1.355 . S
C547 C549 1.415 . S
C548 C547 1.355 . S
C548 C550 1.419 . S
C549 C544 1.425 . S
C549 C546 1.409 . S
C549 C547 1.415 . S
C550 H540 0.930 . S
C550 C548 1.419 . S
C550 C551 1.362 . S
C551 H541 0.930 . S
C551 C544 1.409 . S
C551 C550 1.362 . S
C175 C9 2.005 . S
C180 C149 2.026 . S
C191 C163 1.986 . S
C196 C23 1.981 . S
C207 C37 2.032 . S
C212 C93 2.031 . S
C223 C51 2.014 . S
C228 C107 2.032 . S
C239 C65 2.027 . S
C244 C121 2.034 . S
C255 C135 2.032 . S
C260 C79 2.014 1_554 S
C271 C8 1.640 . S
C276 C120 1.608 . S
C287 C22 1.640 . S
C292 C134 1.609 . S
C303 C148 1.616 . S
C308 C36 1.610 . S
C319 C50 1.604 . S
C324 C162 1.632 . S
C335 C64 1.633 . S
C340 C92 1.604 . S
C351 C78 1.609 . S
C356 C106 1.640 . S
C367 C147 0.906 . S
C372 C7 0.816 . S
C383 C21 0.882 . S
C388 C161 0.847 . S
C399 C35 0.828 . S
C404 C91 0.901 . S
C415 C49 0.819 . S
C420 C105 0.893 . S
C431 C119 0.824 . S
C436 C63 0.888 . S
C447 C77 0.909 . S
C452 C133 0.807 . S
C463 C6 1.547 . S
C468 C160 1.552 . S
C479 C90 1.554 . S
C484 C20 1.549 . S
C495 C104 1.547 . S
C500 C34 1.551 . S
C511 C118 1.547 . S
C516 C48 1.550 . S
C527 C132 1.555 . S
C532 C62 1.559 . S
C543 C146 1.549 . S
C548 C76 1.547 . S
