# Generated by pormake.
# Topology smd, (6)-cn, num edge types: 1
# Building blocks:
#     Node 0, Type 0, BuildingBlock: UKALOJ_clean_sbu_0, # of connection points: 6
#     Node 1, Type 0, BuildingBlock: UKALOJ_clean_sbu_0, # of connection points: 6
#     Node 2, Type 0, BuildingBlock: UKALOJ_clean_sbu_0, # of connection points: 6
#     Node 3, Type 0, BuildingBlock: UKALOJ_clean_sbu_0, # of connection points: 6
#     Node 4, Type 0, BuildingBlock: UKALOJ_clean_sbu_0, # of connection points: 6
#     Node 5, Type 0, BuildingBlock: UKALOJ_clean_sbu_0, # of connection points: 6
#     Node 6, Type 0, BuildingBlock: UKALOJ_clean_sbu_0, # of connection points: 6
#     Node 7, Type 0, BuildingBlock: UKALOJ_clean_sbu_0, # of connection points: 6
#     Node 8, Type 0, BuildingBlock: UKALOJ_clean_sbu_0, # of connection points: 6
#     Node 9, Type 0, BuildingBlock: UKALOJ_clean_sbu_0, # of connection points: 6
#     Node 10, Type 0, BuildingBlock: UKALOJ_clean_sbu_0, # of connection points: 6
#     Node 11, Type 0, BuildingBlock: UKALOJ_clean_sbu_0, # of connection points: 6
#     Node 12, Type 0, BuildingBlock: UKALOJ_clean_sbu_0, # of connection points: 6
#     Node 13, Type 0, BuildingBlock: UKALOJ_clean_sbu_0, # of connection points: 6
#     Node 14, Type 0, BuildingBlock: UKALOJ_clean_sbu_0, # of connection points: 6
#     Node 15, Type 0, BuildingBlock: UKALOJ_clean_sbu_0, # of connection points: 6
#     Node 16, Type 0, BuildingBlock: UKALOJ_clean_sbu_0, # of connection points: 6
#     Node 17, Type 0, BuildingBlock: UKALOJ_clean_sbu_0, # of connection points: 6
#     Edge 18, Type (0, 0), BuildingBlock: XIVTED_clean_linker_0, # of connection points: 2
#     Edge 19, Type (0, 0), BuildingBlock: XIVTED_clean_linker_0, # of connection points: 2
#     Edge 20, Type (0, 0), BuildingBlock: XIVTED_clean_linker_0, # of connection points: 2
#     Edge 21, Type (0, 0), BuildingBlock: XIVTED_clean_linker_0, # of connection points: 2
#     Edge 22, Type (0, 0), BuildingBlock: XIVTED_clean_linker_0, # of connection points: 2
#     Edge 23, Type (0, 0), BuildingBlock: XIVTED_clean_linker_0, # of connection points: 2
#     Edge 24, Type (0, 0), BuildingBlock: XIVTED_clean_linker_0, # of connection points: 2
#     Edge 25, Type (0, 0), BuildingBlock: XIVTED_clean_linker_0, # of connection points: 2
#     Edge 26, Type (0, 0), BuildingBlock: XIVTED_clean_linker_0, # of connection points: 2
#     Edge 27, Type (0, 0), BuildingBlock: XIVTED_clean_linker_0, # of connection points: 2
#     Edge 28, Type (0, 0), BuildingBlock: XIVTED_clean_linker_0, # of connection points: 2
#     Edge 29, Type (0, 0), BuildingBlock: XIVTED_clean_linker_0, # of connection points: 2
#     Edge 30, Type (0, 0), BuildingBlock: XIVTED_clean_linker_0, # of connection points: 2
#     Edge 31, Type (0, 0), BuildingBlock: XIVTED_clean_linker_0, # of connection points: 2
#     Edge 32, Type (0, 0), BuildingBlock: XIVTED_clean_linker_0, # of connection points: 2
#     Edge 33, Type (0, 0), BuildingBlock: XIVTED_clean_linker_0, # of connection points: 2
#     Edge 34, Type (0, 0), BuildingBlock: XIVTED_clean_linker_0, # of connection points: 2
#     Edge 35, Type (0, 0), BuildingBlock: XIVTED_clean_linker_0, # of connection points: 2
#     Edge 36, Type (0, 0), BuildingBlock: XIVTED_clean_linker_0, # of connection points: 2
#     Edge 37, Type (0, 0), BuildingBlock: XIVTED_clean_linker_0, # of connection points: 2
#     Edge 38, Type (0, 0), BuildingBlock: XIVTED_clean_linker_0, # of connection points: 2
#     Edge 39, Type (0, 0), BuildingBlock: XIVTED_clean_linker_0, # of connection points: 2
#     Edge 40, Type (0, 0), BuildingBlock: XIVTED_clean_linker_0, # of connection points: 2
#     Edge 41, Type (0, 0), BuildingBlock: XIVTED_clean_linker_0, # of connection points: 2
#     Edge 42, Type (0, 0), BuildingBlock: XIVTED_clean_linker_0, # of connection points: 2
#     Edge 43, Type (0, 0), BuildingBlock: XIVTED_clean_linker_0, # of connection points: 2
#     Edge 44, Type (0, 0), BuildingBlock: XIVTED_clean_linker_0, # of connection points: 2
#     Edge 45, Type (0, 0), BuildingBlock: XIVTED_clean_linker_0, # of connection points: 2
#     Edge 46, Type (0, 0), BuildingBlock: XIVTED_clean_linker_0, # of connection points: 2
#     Edge 47, Type (0, 0), BuildingBlock: XIVTED_clean_linker_0, # of connection points: 2
#     Edge 48, Type (0, 0), BuildingBlock: XIVTED_clean_linker_0, # of connection points: 2
#     Edge 49, Type (0, 0), BuildingBlock: XIVTED_clean_linker_0, # of connection points: 2
#     Edge 50, Type (0, 0), BuildingBlock: XIVTED_clean_linker_0, # of connection points: 2
#     Edge 51, Type (0, 0), BuildingBlock: XIVTED_clean_linker_0, # of connection points: 2
#     Edge 52, Type (0, 0), BuildingBlock: XIVTED_clean_linker_0, # of connection points: 2
#     Edge 53, Type (0, 0), BuildingBlock: XIVTED_clean_linker_0, # of connection points: 2
#     Edge 54, Type (0, 0), BuildingBlock: XIVTED_clean_linker_0, # of connection points: 2
#     Edge 55, Type (0, 0), BuildingBlock: XIVTED_clean_linker_0, # of connection points: 2
#     Edge 56, Type (0, 0), BuildingBlock: XIVTED_clean_linker_0, # of connection points: 2
#     Edge 57, Type (0, 0), BuildingBlock: XIVTED_clean_linker_0, # of connection points: 2
#     Edge 58, Type (0, 0), BuildingBlock: XIVTED_clean_linker_0, # of connection points: 2
#     Edge 59, Type (0, 0), BuildingBlock: XIVTED_clean_linker_0, # of connection points: 2
#     Edge 60, Type (0, 0), BuildingBlock: XIVTED_clean_linker_0, # of connection points: 2
#     Edge 61, Type (0, 0), BuildingBlock: XIVTED_clean_linker_0, # of connection points: 2
#     Edge 62, Type (0, 0), BuildingBlock: XIVTED_clean_linker_0, # of connection points: 2
#     Edge 63, Type (0, 0), BuildingBlock: XIVTED_clean_linker_0, # of connection points: 2
#     Edge 64, Type (0, 0), BuildingBlock: XIVTED_clean_linker_0, # of connection points: 2
#     Edge 65, Type (0, 0), BuildingBlock: XIVTED_clean_linker_0, # of connection points: 2
#     Edge 66, Type (0, 0), BuildingBlock: XIVTED_clean_linker_0, # of connection points: 2
#     Edge 67, Type (0, 0), BuildingBlock: XIVTED_clean_linker_0, # of connection points: 2
#     Edge 68, Type (0, 0), BuildingBlock: XIVTED_clean_linker_0, # of connection points: 2
#     Edge 69, Type (0, 0), BuildingBlock: XIVTED_clean_linker_0, # of connection points: 2
#     Edge 70, Type (0, 0), BuildingBlock: XIVTED_clean_linker_0, # of connection points: 2
#     Edge 71, Type (0, 0), BuildingBlock: XIVTED_clean_linker_0, # of connection points: 2
# Relax obj value: 0.257
# Max RMSD: 0.241
# Mean RMSD: 0.201
data_MOF--net-smd--node1-UKALOJ_clean_sbu_0--edge1-XIVTED_clean_linker_0
_symmetry_space_group_name_H-M    P1
_symmetry_Int_Tables_number       1
_symmetry_cell_setting            triclinic
loop_
_symmetry_equiv_pos_as_xyz
'x, y, z'
_cell_length_a     85.221813
_cell_length_b     77.562574
_cell_length_c     15.479554
_cell_angle_alpha  88.850619
_cell_angle_beta   88.87935
_cell_angle_gamma 120.21311
loop_
_atom_site_label
_atom_site_type_symbol
_atom_site_fract_x
_atom_site_fract_y
_atom_site_fract_z
_atom_type_partial_charge
Zn0 Zn 0.05499 0.34356 0.36622 0.0
O1 O 0.03477 0.31396 0.37181 0.0
C2 C 0.06783 0.34071 0.54271 0.0
Zn3 Zn 0.07599 0.33468 0.36621 0.0
C4 C 0.03815 0.29995 0.3822 0.0
O5 O 0.05457 0.30409 0.38495 0.0
C6 C 0.09223 0.37864 0.34785 0.0
O7 O 0.07302 0.33247 0.23146 0.0
O8 O 0.05374 0.34348 0.23055 0.0
N9 N 0.09412 0.32499 0.36072 0.0
C10 C 0.10987 0.33116 0.31586 0.0
C11 C 0.10414 0.30504 0.39007 0.0
N12 N 0.09061 0.30879 0.40673 0.0
N13 N 0.11641 0.31886 0.33331 0.0
C14 C 0.02172 0.34484 0.43735 0.0
C15 C 0.02621 0.373 0.39026 0.0
N16 N 0.03606 0.35231 0.3808 0.0
N17 N 0.03875 0.36976 0.35103 0.0
N18 N 1.01543 0.35758 0.44497 0.0
H19 H 1.00713 0.31306 0.43297 0.0
H20 H 1.00206 0.32186 0.52835 0.0
H21 H 0.02345 0.32254 0.51645 0.0
C22 C 1.01322 0.32459 0.48214 0.0
C23 C 0.11823 0.34847 0.25194 0.0
H24 H 0.10768 0.35078 0.22232 0.0
H25 H 0.12609 0.34608 0.20035 0.0
H26 H 0.12759 0.36219 0.28596 0.0
O27 O 0.09702 0.36551 0.3471 0.0
O28 O 0.07554 0.37319 0.35836 0.0
C29 C 0.06322 0.33759 0.1898 0.0
O30 O 0.05673 0.34379 0.50142 0.0
O31 O 0.07867 0.33689 0.50137 0.0
Zn32 Zn 0.84069 0.90994 0.51732 0.0
O33 O 0.84485 0.93871 0.50472 0.0
C34 C 0.8571 0.91351 0.34061 0.0
Zn35 Zn 0.87054 0.92287 0.51755 0.0
C36 C 0.86058 0.95395 0.49505 0.0
O37 O 0.87443 0.95189 0.49681 0.0
C38 C 0.84997 0.87855 0.54334 0.0
O39 O 0.86927 0.92583 0.65155 0.0
O40 O 0.8395 0.91134 0.65426 0.0
N41 N 0.89787 0.93502 0.51947 0.0
C42 C 0.90846 0.92974 0.56264 0.0
C43 C 0.92591 0.95522 0.482 0.0
N44 N 0.90874 0.95092 0.46983 0.0
N45 N 0.9261 0.94213 0.53982 0.0
C46 C 0.80341 0.89973 0.44739 0.0
C47 C 0.78482 0.87671 0.53572 0.0
N48 N 0.81323 0.89799 0.51073 0.0
N49 N 0.80163 0.88379 0.56596 0.0
N50 N 0.7856 0.88636 0.46093 0.0
H51 H 0.82372 0.92845 0.39108 0.0
H52 H 0.80105 0.91932 0.35432 0.0
H53 H 0.81429 0.90863 0.31752 0.0
C54 C 0.81108 0.91497 0.37391 0.0
C55 C 0.90157 0.91311 0.62985 0.0
H56 H 0.88929 0.91118 0.66446 0.0
H57 H 0.91213 0.91605 0.67748 0.0
H58 H 0.89792 0.89895 0.59793 0.0
O59 O 0.86608 0.89338 0.54081 0.0
O60 O 0.83673 0.88134 0.53125 0.0
C61 C 0.85433 0.91912 0.69418 0.0
O62 O 0.84234 0.90834 0.38216 0.0
O63 O 0.87168 0.92002 0.38158 0.0
Zn64 Zn 0.30167 0.13692 0.3316 0.0
O65 O 0.29843 0.16185 0.33805 0.0
C66 C 0.28515 0.12409 0.50994 0.0
Zn67 Zn 0.27151 0.11823 0.33312 0.0
C68 C 0.28316 0.16101 0.34228 0.0
O69 O 0.26862 0.14409 0.34142 0.0
C70 C 0.29088 0.09476 0.31987 0.0
O71 O 0.27284 0.1211 0.19791 0.0
O72 O 0.30265 0.13934 0.19472 0.0
N73 N 0.24401 0.09985 0.33041 0.0
C74 C 0.23348 0.0809 0.361 0.0
C75 C 0.21621 0.08919 0.29713 0.0
N76 N 0.23325 0.105 0.29088 0.0
N77 N 0.21606 0.07382 0.3401 0.0
C78 C 0.33956 0.16673 0.39782 0.0
C79 C 0.3567 0.16024 0.32041 0.0
N80 N 0.3293 0.15452 0.33578 0.0
N81 N 0.34009 0.15086 0.28657 0.0
N82 N 0.35677 0.17032 0.39056 0.0
H83 H 0.31842 0.17023 0.46188 0.0
H84 H 0.34116 0.19012 0.47518 0.0
H85 H 0.33342 0.16689 0.53271 0.0
C86 C 0.33252 0.17372 0.47076 0.0
C87 C 0.24004 0.06965 0.41514 0.0
H88 H 0.2436 0.0607 0.37255 0.0
H89 H 0.22925 0.0593 0.46238 0.0
H90 H 0.25222 0.07984 0.45072 0.0
O91 O 0.27518 0.0929 0.32147 0.0
O92 O 0.30476 0.11196 0.32476 0.0
C93 C 0.28781 0.13067 0.15499 0.0
O94 O 0.30011 0.13361 0.46728 0.0
O95 O 0.27041 0.11579 0.46984 0.0
Zn96 Zn 0.08724 0.89429 0.51043 0.0
O97 O 0.11148 0.92256 0.48761 0.0
C98 C 0.07447 0.89807 0.33507 0.0
Zn99 Zn 0.07096 0.90942 0.51185 0.0
C100 C 0.11026 0.93821 0.481 0.0
O101 O 0.09479 0.9367 0.48909 0.0
C102 C 0.04758 0.86572 0.54585 0.0
O103 O 0.07478 0.91236 0.64595 0.0
O104 O 0.09067 0.89717 0.64611 0.0
N105 N 0.05721 0.92451 0.51455 0.0
C106 C 0.04251 0.92177 0.56048 0.0
C107 C 0.05068 0.9469 0.47457 0.0
N108 N 0.06234 0.94021 0.46167 0.0
N109 N 0.0381 0.93556 0.53622 0.0
C110 C 0.11232 0.87963 0.4361 0.0
C111 C 0.10944 0.85768 0.52984 0.0
N112 N 0.1018 0.87982 0.50199 0.0
N113 N 0.10017 0.86628 0.5606 0.0
N114 N 0.11715 0.86582 0.45171 0.0
H115 H 0.11804 0.90701 0.36781 0.0
H116 H 0.13222 0.89696 0.33552 0.0
H117 H 0.10915 0.88524 0.3035 0.0
C118 C 0.11828 0.89312 0.3567 0.0
C119 C 0.03296 0.90624 0.63138 0.0
H120 H 0.04201 0.90146 0.65991 0.0
H121 H 0.02771 0.912 0.68272 0.0
H122 H 0.02125 0.89305 0.60438 0.0
O123 O 0.0469 0.88166 0.53623 0.0
O124 O 0.06279 0.86648 0.53577 0.0
C125 C 0.08331 0.90549 0.68721 0.0
O126 O 0.08307 0.89123 0.37572 0.0
O127 O 0.06745 0.9066 0.37669 0.0
Zn128 Zn 0.31225 0.33832 0.30764 0.0
O129 O 0.3063 0.30872 0.31397 0.0
C130 C 0.29586 0.33396 0.48548 0.0
Zn131 Zn 0.28258 0.32736 0.30922 0.0
C132 C 0.29025 0.29394 0.32017 0.0
O133 O 0.27695 0.29704 0.32019 0.0
C134 C 0.30535 0.37202 0.29555 0.0
O135 O 0.28408 0.32643 0.1743 0.0
O136 O 0.31354 0.33795 0.17122 0.0
N137 N 0.25541 0.31699 0.30696 0.0
C138 C 0.24552 0.32408 0.26981 0.0
C139 C 0.22703 0.29703 0.33887 0.0
N140 N 0.24388 0.30015 0.34954 0.0
N141 N 0.22767 0.31185 0.28926 0.0
C142 C 0.34805 0.3425 0.37371 0.0
C143 C 0.36828 0.36855 0.30474 0.0
N144 N 0.33942 0.34791 0.31634 0.0
N145 N 0.35207 0.36398 0.27284 0.0
N146 N 0.36615 0.35519 0.36763 0.0
H147 H 0.32395 0.31839 0.44168 0.0
H148 H 0.34295 0.31475 0.43135 0.0
H149 H 0.34344 0.33219 0.50676 0.0
C150 C 0.33888 0.32607 0.44194 0.0
C151 C 0.25324 0.34227 0.21088 0.0
H152 H 0.26546 0.34437 0.17473 0.0
H153 H 0.24304 0.34109 0.16429 0.0
H154 H 0.25723 0.35559 0.25007 0.0
O155 O 0.28885 0.35796 0.29757 0.0
O156 O 0.31796 0.36788 0.30015 0.0
C157 C 0.29882 0.33196 0.13152 0.0
O158 O 0.31046 0.339 0.44278 0.0
O159 O 0.28128 0.32829 0.44551 0.0
Zn160 Zn 0.84172 0.10373 0.50213 0.0
O161 O 0.84581 0.07957 0.48891 0.0
C162 C 0.8562 0.11772 0.32349 0.0
Zn163 Zn 0.87161 0.12468 0.49917 0.0
C164 C 0.86175 0.0823 0.48082 0.0
O165 O 0.87531 0.09982 0.48366 0.0
C166 C 0.85103 0.14574 0.52389 0.0
O167 O 0.8719 0.1215 0.63386 0.0
O168 O 0.84226 0.10133 0.63898 0.0
N169 N 0.89914 0.14247 0.49081 0.0
C170 C 0.91082 0.16088 0.51768 0.0
C171 C 0.92626 0.15119 0.44475 0.0
N172 N 0.9088 0.13644 0.44614 0.0
N173 N 0.92793 0.16673 0.48911 0.0
C174 C 0.80363 0.07023 0.45281 0.0
C175 C 0.78603 0.0779 0.51958 0.0
N176 N 0.81403 0.08556 0.50343 0.0
N177 N 0.80304 0.09022 0.54535 0.0
N178 N 0.78605 0.06529 0.46109 0.0
H179 H 0.81492 0.05135 0.44944 0.0
H180 H 0.79981 0.04698 0.36428 0.0
H181 H 0.82219 0.06905 0.35964 0.0
C182 C 0.81045 0.05885 0.4026 0.0
C183 C 0.90557 0.17255 0.57555 0.0
H184 H 0.8946 0.16233 0.62228 0.0
H185 H 0.91741 0.18358 0.61145 0.0
H186 H 0.90045 0.18062 0.5359 0.0
O187 O 0.86732 0.14932 0.51812 0.0
O188 O 0.83802 0.12808 0.51549 0.0
C189 C 0.85718 0.11087 0.67771 0.0
O190 O 0.84165 0.10664 0.3673 0.0
O191 O 0.87099 0.12763 0.36243 0.0
Zn192 Zn 0.72881 0.66507 0.97868 0.0
O193 O 0.72941 0.66597 0.11385 0.0
C194 C 0.70948 0.68921 0.97669 0.0
Zn195 Zn 0.74821 0.69786 0.97163 0.0
C196 C 0.73886 0.68226 0.15194 0.0
O197 O 0.74832 0.69843 0.10762 0.0
C198 C 0.73767 0.68038 0.79823 0.0
O199 O 0.77032 0.69274 0.97261 0.0
O200 O 0.75248 0.66038 0.97646 0.0
N201 N 0.76623 0.72797 0.96031 0.0
C202 C 0.77935 0.73846 0.89911 0.0
C203 C 0.77839 0.75949 -0.01782 0.0
N204 N 0.76576 0.74107 0.01235 0.0
N205 N 0.78705 0.75819 0.91108 0.0
C206 C 0.69467 0.6221 0.01294 0.0
C207 C 0.70472 0.60434 0.95874 0.0
N208 N 0.71188 0.63466 -0.01625 0.0
N209 N 0.71804 0.62353 0.9503 0.0
N210 N 0.68983 0.60295 -0.00236 0.0
H211 H 0.69184 0.64188 0.09881 0.0
H212 H 0.67305 0.6164 0.10465 0.0
H213 H 0.67588 0.63267 0.01344 0.0
C214 C 0.68318 0.62859 0.06073 0.0
C215 C 0.78512 0.72961 0.82849 0.0
H216 H 0.78231 0.71445 0.84627 0.0
H217 H 0.79986 0.73926 0.81273 0.0
H218 H 0.77769 0.72873 0.7694 0.0
O219 O 0.74731 0.69658 0.83611 0.0
O220 O 0.72831 0.66434 0.84294 0.0
C221 C 0.76854 0.67549 0.97403 0.0
O222 O 0.70589 0.67108 -0.01915 0.0
O223 O 0.72605 0.70307 0.97197 0.0
Zn224 Zn 0.48216 0.20521 0.96658 0.0
O225 O 0.49016 0.23526 0.95153 0.0
C226 C 0.49734 0.20668 0.78832 0.0
Zn227 Zn 0.51108 0.21286 0.96366 0.0
C228 C 0.5066 0.24918 0.94799 0.0
O229 O 0.51904 0.2447 0.95353 0.0
C230 C 0.48498 0.16852 -0.01537 0.0
O231 O 0.51009 0.21382 0.09925 0.0
O232 O 0.48186 0.20755 0.10202 0.0
N233 N 0.538 0.22105 0.9634 0.0
C234 C 0.54743 0.21318 -0.00082 0.0
C235 C 0.56652 0.24007 0.93089 0.0
N236 N 0.54992 0.23773 0.92105 0.0
N237 N 0.56538 0.22485 -0.02054 0.0
C238 C 0.44711 0.20303 0.90151 0.0
C239 C 0.42642 0.17913 -0.02082 0.0
N240 N 0.45547 0.19773 0.96078 0.0
N241 N 0.44256 0.18304 0.00975 0.0
N242 N 0.42891 0.19162 0.91175 0.0
H243 H 0.47137 0.22497 0.82711 0.0
H244 H 0.45298 0.22979 0.83122 0.0
H245 H 0.45149 0.21039 0.76535 0.0
C246 C 0.45648 0.21785 0.82746 0.0
C247 C 0.53915 0.19483 0.05714 0.0
H248 H 0.52702 0.19311 0.0928 0.0
H249 H 0.54912 0.19547 0.10391 0.0
H250 H 0.53486 0.18157 0.01715 0.0
O251 O 0.50202 0.18072 0.97399 0.0
O252 O 0.47412 0.1752 -0.01603 0.0
C253 C 0.49605 0.21106 0.14185 0.0
O254 O 0.48295 0.20246 0.8313 0.0
O255 O 0.51188 0.21192 0.8279 0.0
Zn256 Zn 0.91772 0.40065 -0.00469 0.0
O257 O 0.89128 0.37618 -0.00129 0.0
C258 C 0.91317 0.41338 0.81881 0.0
Zn259 Zn 0.90704 0.42164 -0.0032 0.0
C260 C 0.87723 0.37788 -0.00337 0.0
O261 O 0.87926 0.39538 -0.00513 0.0
C262 C 0.94812 0.44297 -0.00531 0.0
O263 O 0.9062 0.41951 0.1322 0.0
O264 O 0.91765 0.39964 0.13176 0.0
N265 N 0.8966 0.44053 -0.00085 0.0
C266 C 0.90273 0.45895 0.02989 0.0
C267 C 0.87783 0.45058 0.96875 0.0
N268 N 0.8811 0.43539 0.96145 0.0
N269 N 0.89123 0.46565 0.01106 0.0
C270 C 0.92736 0.37035 0.92362 0.0
C271 C 0.95159 0.37796 -0.01077 0.0
N272 N 0.92872 0.38261 -0.01279 0.0
N273 N 0.94364 0.38705 0.02887 0.0
N274 N 0.94179 0.36759 0.92205 0.0
H275 H 0.89857 0.35566 0.90371 0.0
H276 H 0.91052 0.34628 0.841 0.0
H277 H 0.91248 0.36977 0.81151 0.0
C278 C 0.91132 0.35993 0.86686 0.0
C279 C 0.91929 0.46969 0.08269 0.0
H280 H 0.92158 0.45889 0.12037 0.0
H281 H 0.91792 0.47985 0.12762 0.0
H282 H 0.93132 0.47868 0.03886 0.0
O283 O 0.93522 0.44681 -0.00135 0.0
O284 O 0.94426 0.42496 -0.00841 0.0
C285 C 0.91178 0.40938 0.17326 0.0
O286 O 0.91788 0.40248 0.85981 0.0
O287 O 0.90792 0.42357 0.86058 0.0
Zn288 Zn 0.72245 0.20999 0.96557 0.0
O289 O 0.72278 0.2089 0.10079 0.0
C290 C 0.70485 0.16465 0.96578 0.0
Zn291 Zn 0.7426 0.19967 0.96485 0.0
C292 C 0.73234 0.2034 0.14223 0.0
O293 O 0.74236 0.19827 0.10117 0.0
C294 C 0.73222 0.20591 0.78803 0.0
O295 O 0.76345 0.22961 0.96736 0.0
O296 O 0.74489 0.2413 0.96455 0.0
N297 N 0.76191 0.19123 0.95358 0.0
C298 C 0.77524 0.19678 0.89228 0.0
C299 C 0.77501 0.17377 0.97056 0.0
N300 N 0.7619 0.17703 0.00267 0.0
N301 N 0.78353 0.18598 0.90116 0.0
C302 C 0.6871 0.2121 0.00303 0.0
C303 C 0.69464 0.24034 0.9434 0.0
N304 N 0.70415 0.21978 0.96946 0.0
N305 N 0.70877 0.23731 0.93256 0.0
N306 N 0.68082 0.22473 -0.0128 0.0
H307 H 0.68686 0.18998 0.09025 0.0
H308 H 0.66742 0.19336 0.10253 0.0
H309 H 0.66949 0.1805 0.0113 0.0
C310 C 0.67717 0.19292 0.05533 0.0
C311 C 0.78057 0.21298 0.82382 0.0
H312 H 0.79543 0.22063 0.80946 0.0
H313 H 0.77364 0.20632 0.76343 0.0
H314 H 0.77692 0.22416 0.84279 0.0
O315 O 0.74201 0.20081 0.82937 0.0
O316 O 0.7223 0.21103 0.82938 0.0
C317 C 0.76109 0.2445 0.96645 0.0
O318 O 0.70076 0.1784 0.96707 0.0
O319 O 0.72154 0.16959 0.9643 0.0
Zn320 Zn 0.91427 0.65839 0.97867 0.0
O321 O 0.91339 0.65896 0.11397 0.0
C322 C 0.95536 0.67992 -0.01618 0.0
Zn323 Zn 0.92666 0.69156 0.97391 0.0
C324 C 0.91882 0.6751 0.15348 0.0
O325 O 0.92492 0.69151 0.11041 0.0
C326 C 0.92228 0.67435 0.79904 0.0
O327 O 0.90053 0.68865 0.96722 0.0
O328 O 0.88736 0.65597 0.97597 0.0
N329 N 0.93936 0.72215 0.96666 0.0
C330 C 0.94118 0.73467 0.90049 0.0
C331 C 0.96102 0.75191 -0.0087 0.0
N332 N 0.95156 0.733 0.02372 0.0
N333 N 0.95477 0.75336 0.91386 0.0
C334 C 0.90758 0.61523 0.0168 0.0
C335 C 0.88278 0.59735 0.95353 0.0
N336 N 0.90235 0.6277 -0.01669 0.0
N337 N 0.8869 0.61651 0.94432 0.0
N338 N 0.89558 0.59608 -0.00164 0.0
H339 H 0.92671 0.63525 0.10696 0.0
H340 H 0.92149 0.60965 0.11889 0.0
H341 H 0.93578 0.62526 0.0296 0.0
C342 C 0.92377 0.62171 0.07168 0.0
C343 C 0.92973 0.72886 0.82243 0.0
H344 H 0.91657 0.71494 0.83548 0.0
H345 H 0.92722 0.74107 0.80259 0.0
H346 H 0.93717 0.7268 0.76804 0.0
O347 O 0.92849 0.69066 0.83789 0.0
O348 O 0.91512 0.65801 0.84282 0.0
C349 C 0.88602 0.67166 0.97043 0.0
O350 O 0.94169 0.66227 -0.01863 0.0
O351 O 0.95259 0.69454 -0.01838 0.0
Zn352 Zn 0.52271 0.42537 0.94406 0.0
O353 O 0.52115 0.42307 0.07921 0.0
C354 C 0.50025 0.44558 0.94931 0.0
Zn355 Zn 0.49282 0.40394 0.94596 0.0
C356 C 0.50641 0.41223 0.12238 0.0
O357 O 0.49172 0.40193 0.08294 0.0
C358 C 0.50942 0.41769 0.7675 0.0
O359 O 0.49786 0.38024 0.94148 0.0
O360 O 0.52745 0.40009 0.9406 0.0
N361 N 0.46535 0.38484 0.94107 0.0
C362 C 0.45554 0.37299 0.87708 0.0
C363 C 0.43762 0.37809 0.95537 0.0
N364 N 0.45406 0.3876 -0.00914 0.0
N365 N 0.43814 0.36885 0.88337 0.0
C366 C 0.5598 0.4634 -0.01918 0.0
C367 C 0.57872 0.45752 0.91519 0.0
N368 N 0.55018 0.44529 0.94594 0.0
N369 N 0.562 0.44167 0.90542 0.0
N370 N 0.57773 0.47144 0.96184 0.0
H371 H 0.53933 0.46101 0.07257 0.0
H372 H 0.56167 0.48236 0.08501 0.0
H373 H 0.54806 0.4819 -0.00333 0.0
C374 C 0.55175 0.47263 0.03746 0.0
C375 C 0.46316 0.36665 0.80423 0.0
H376 H 0.47723 0.3702 0.81535 0.0
H377 H 0.45466 0.3503 0.79742 0.0
H378 H 0.4626 0.37386 0.74275 0.0
O379 O 0.49462 0.40702 0.81021 0.0
O380 O 0.52407 0.42739 0.80748 0.0
C381 C 0.51369 0.38248 0.93924 0.0
O382 O 0.51675 0.44969 0.94751 0.0
O383 O 0.48769 0.42748 0.94966 0.0
Zn384 Zn 0.36849 0.98647 0.04366 0.0
O385 O 0.34613 0.95755 0.05088 0.0
C386 C 0.37926 0.98123 0.21917 0.0
Zn387 Zn 0.38777 0.97485 0.04089 0.0
C388 C 0.34773 0.94215 0.05292 0.0
O389 O 0.36369 0.94441 0.04974 0.0
C390 C 0.40719 0.01981 0.03284 0.0
O391 O 0.3869 0.97451 0.90571 0.0
O392 O 0.3681 0.98607 0.90758 0.0
N393 N 0.40499 0.96332 0.03579 0.0
C394 C 0.42221 0.97021 0.06076 0.0
C395 C 0.4135 0.94229 0.00282 0.0
N396 N 0.39966 0.94596 -8e-05 0.0
N397 N 0.42791 0.95732 0.04025 0.0
C398 C 0.33939 0.99732 0.10299 0.0
C399 C 0.34089 0.01653 -0.00103 0.0
N400 N 0.35157 0.99807 0.04383 0.0
N401 N 0.35234 1.00989 0.97891 0.0
N402 N 0.33259 1.00886 0.0766 0.0
H403 H 0.33452 0.97102 0.17608 0.0
H404 H 0.31925 0.98011 0.20312 0.0
H405 H 0.34229 0.99322 0.23721 0.0
C406 C 0.33347 0.98456 0.18434 0.0
C407 C 0.43289 0.98888 0.10971 0.0
H408 H 0.44068 1.00163 0.0631 0.0
H409 H 0.44259 0.98757 0.15223 0.0
H410 H 0.4237 0.992 0.14949 0.0
O411 O 0.41077 1.0057 0.03143 0.0
O412 O 0.39071 0.01547 0.0371 0.0
C413 C 0.37739 0.9802 0.8654 0.0
O414 O 0.36963 0.98687 0.17938 0.0
O415 O 0.3884 0.97522 0.1766 0.0
Zn416 Zn 0.13943 0.54919 0.07887 0.0
O417 O 0.14563 0.57854 0.06215 0.0
C418 C 0.15321 0.55147 0.90192 0.0
Zn419 Zn 0.16968 0.56021 0.0777 0.0
C420 C 0.16159 0.59353 0.05722 0.0
O421 O 0.17516 0.59085 0.06283 0.0
C422 C 0.14622 0.51564 0.10176 0.0
O423 O 0.1706 0.56264 0.21255 0.0
O424 O 0.14132 0.55226 0.21449 0.0
N425 N 0.19753 0.56999 0.06618 0.0
C426 C 0.2083 0.56325 0.09762 0.0
C427 C 0.2246 0.58727 0.0083 0.0
N428 N 0.20784 0.58501 0.01124 0.0
N429 N 0.22538 0.57386 0.06203 0.0
C430 C 0.0966 0.52673 0.05132 0.0
C431 C 0.08898 0.54274 0.13605 0.0
N432 N 0.11192 0.5406 0.08869 0.0
N433 N 0.10704 0.55047 0.1411 0.0
N434 N 0.08188 0.52779 0.07989 0.0
H435 H 0.09613 0.51705 0.9227 0.0
H436 H 0.08388 0.49705 0.00244 0.0
H437 H 0.10843 0.51041 -0.00456 0.0
C438 C 0.09623 0.51186 -0.0101 0.0
C439 C 0.20157 0.54519 0.15644 0.0
H440 H 0.18992 0.54314 0.19765 0.0
H441 H 0.21246 0.54635 0.198 0.0
H442 H 0.19705 0.53189 0.11652 0.0
O443 O 0.16283 0.52944 0.09405 0.0
O444 O 0.13379 0.52007 0.09641 0.0
C445 C 0.15593 0.55792 0.25466 0.0
O446 O 0.13849 0.5465 0.94408 0.0
O447 O 0.16786 0.55743 0.94204 0.0
Zn448 Zn 0.60022 0.76249 0.02328 0.0
O449 O 0.60015 0.76376 0.88751 0.0
C450 C 0.62562 0.74572 0.01003 0.0
Zn451 Zn 0.62939 0.78644 0.0164 0.0
C452 C 0.61439 0.77572 0.84283 0.0
O453 O 0.62895 0.78743 0.88056 0.0
C454 C 0.61504 0.77275 0.19711 0.0
O455 O 0.62271 0.80875 0.02045 0.0
O456 O 0.59364 0.78702 0.02794 0.0
N457 N 0.65646 0.80727 0.01543 0.0
C458 C 0.66606 0.82089 0.07453 0.0
C459 C 0.6851 0.81911 -0.01056 0.0
N460 N 0.66833 0.80634 0.96204 0.0
N461 N 0.68403 0.82828 0.06049 0.0
C462 C 0.56109 0.72413 0.00124 0.0
C463 C 0.54535 0.73252 0.07966 0.0
N464 N 0.57267 0.74216 0.03295 0.0
N465 N 0.56278 0.74723 0.08153 0.0
N466 N 0.54376 0.71772 0.02981 0.0
H467 H 0.57944 0.72444 0.90286 0.0
H468 H 0.55588 0.7051 0.89321 0.0
H469 H 0.56956 0.70305 0.9758 0.0
C470 C 0.56679 0.71361 0.93911 0.0
C471 C 0.65798 0.82754 0.14435 0.0
H472 H 0.64509 0.82629 0.12512 0.0
H473 H 0.6676 0.84325 0.16019 0.0
H474 H 0.65515 0.81812 0.20364 0.0
O475 O 0.62926 0.78462 0.15267 0.0
O476 O 0.60053 0.76147 0.15888 0.0
C477 C 0.6065 0.80521 0.02576 0.0
O478 O 0.60847 0.73907 0.01753 0.0
O479 O 0.63639 0.76442 0.00958 0.0
Zn480 Zn 0.40376 0.54611 0.0803 0.0
O481 O 0.42566 0.57444 0.0567 0.0
C482 C 0.39159 0.54751 0.90522 0.0
Zn483 Zn 0.38447 0.55815 0.08225 0.0
C484 C 0.42427 0.58996 0.05198 0.0
O485 O 0.40855 0.5882 0.06127 0.0
C486 C 0.36559 0.51394 0.11477 0.0
O487 O 0.38608 0.56149 0.21736 0.0
O488 O 0.40548 0.55068 0.21502 0.0
N489 N 0.36664 0.56935 0.07329 0.0
C490 C 0.34956 0.56297 0.10502 0.0
C491 C 0.35634 0.58723 0.01631 0.0
N492 N 0.37076 0.58452 0.01874 0.0
N493 N 0.34277 0.57396 0.06996 0.0
C494 C 0.43243 0.53266 0.03536 0.0
C495 C 0.43403 0.52075 0.1579 0.0
N496 N 0.42107 0.53472 0.09086 0.0
N497 N 0.4222 0.52734 0.1669 0.0
N498 N 0.44068 0.52387 0.07588 0.0
H499 H 0.43556 0.55424 0.93705 0.0
H500 H 0.4498 0.54338 0.92027 0.0
H501 H 0.42579 0.52893 0.90245 0.0
C502 C 0.43622 0.54035 0.94344 0.0
C503 C 0.33909 0.54494 0.16379 0.0
H504 H 0.34838 0.54332 0.20807 0.0
H505 H 0.32842 0.54577 0.20229 0.0
H506 H 0.33235 0.53149 0.12414 0.0
O507 O 0.36197 0.52789 0.1043 0.0
O508 O 0.38186 0.51777 0.10606 0.0
C509 C 0.39635 0.55676 0.25731 0.0
O510 O 0.40122 0.54188 0.94537 0.0
O511 O 0.38321 0.55452 0.9473 0.0
Zn512 Zn 0.629 0.97907 0.01435 0.0
O513 O 0.62208 0.94929 0.02804 0.0
C514 C 0.6131 0.9767 0.19253 0.0
Zn515 Zn 0.59981 0.97067 0.01678 0.0
C516 C 0.60581 0.93489 0.03125 0.0
O517 O 0.59294 0.9388 0.02659 0.0
C518 C 0.62527 0.01537 -0.003 0.0
O519 O 0.60129 0.97 0.88129 0.0
O520 O 0.62977 0.97727 0.87846 0.0
N521 N 0.57255 0.96165 0.01094 0.0
C522 C 0.56226 0.96934 0.03871 0.0
C523 C 0.5446 0.94194 -0.02055 0.0
N524 N 0.56149 0.94465 0.97411 0.0
N525 N 0.54463 0.95724 0.01944 0.0
C526 C 0.66559 0.98638 0.08379 0.0
C527 C 0.68473 1.00803 -0.00746 0.0
N528 N 0.65608 0.98837 0.01963 0.0
N529 N 0.66802 1.00168 0.96252 0.0
N530 N 0.68359 0.99879 0.06904 0.0
H531 H 0.64436 0.95855 0.14173 0.0
H532 H 0.66685 0.9666 0.17957 0.0
H533 H 0.65464 0.97865 0.21388 0.0
C534 C 0.65737 0.97163 0.15865 0.0
C535 C 0.56938 0.98799 0.0888 0.0
H536 H 0.57342 1.00086 0.04312 0.0
H537 H 0.55879 0.98699 0.13482 0.0
H538 H 0.5815 0.99071 0.1247 0.0
O539 O 0.6082 1.00297 0.0056 0.0
O540 O 0.63617 1.00878 -0.00106 0.0
C541 C 0.61547 0.97329 0.83863 0.0
O542 O 0.62761 0.98108 0.15008 0.0
O543 O 0.59855 0.97128 0.15254 0.0
Zn544 Zn 0.17418 0.76672 0.06426 0.0
O545 O 0.17432 0.76398 0.19938 0.0
C546 C 0.15469 0.78949 0.08592 0.0
Zn547 Zn 0.14346 0.74687 0.066 0.0
C548 C 0.15933 0.75403 0.24215 0.0
O549 O 0.14447 0.74521 0.20245 0.0
C550 C 0.15838 0.75958 0.88803 0.0
O551 O 0.14699 0.72185 0.05555 0.0
O552 O 0.17676 0.74077 0.05213 0.0
N553 N 0.11513 0.72818 0.07233 0.0
C554 C 0.10131 0.73024 0.04209 0.0
C555 C 0.08941 0.70169 0.10608 0.0
N556 N 0.1076 0.71038 0.11194 0.0
N557 N 0.08496 0.71381 0.06284 0.0
C558 C 0.21431 0.8031 0.08547 0.0
C559 C 0.22962 0.79444 0.00579 0.0
N560 N 0.20244 0.78504 0.05455 0.0
N561 N 0.21209 0.77975 0.00534 0.0
N562 N 0.2315 0.80944 0.05519 0.0
H563 H 0.1972 0.80298 0.18989 0.0
H564 H 0.22057 0.82304 0.19101 0.0
H565 H 0.20535 0.82368 0.11332 0.0
C566 C 0.20909 0.8138 0.14904 0.0
C567 C 0.10401 0.74786 -0.01171 0.0
H568 H 0.09325 0.7432 0.9401 0.0
H569 H 0.10329 0.75875 0.0311 0.0
H570 H 0.11747 0.75538 0.95432 0.0
O571 O 0.14348 0.74907 0.93064 0.0
O572 O 0.17314 0.76887 0.92796 0.0
C573 C 0.16263 0.72351 0.05068 0.0
O574 O 0.17055 0.79175 0.07977 0.0
O575 O 0.14085 0.77226 0.07826 0.0
H576 H 0.11217 0.48351 0.10911 0.0
H577 H 0.12532 0.39583 0.25772 0.0
H578 H 0.16794 0.50028 0.15233 0.0
H579 H 0.08792 0.40984 0.38662 0.0
H580 H 0.14159 0.4301 0.19307 0.0
H581 H 0.10236 0.45083 0.17492 0.0
C582 C 0.12242 0.48027 0.1313 0.0
C583 C 0.14093 0.49484 0.12648 0.0
C584 C 0.13006 0.42564 0.23718 0.0
C585 C 0.12962 0.45727 0.20185 0.0
C586 C 0.12086 0.40623 0.27437 0.0
C587 C 0.10508 0.39993 0.32644 0.0
C588 C 0.12314 0.4384 0.25174 0.0
C589 C 0.0998 0.41392 0.34559 0.0
C590 C 0.11677 0.46163 0.16919 0.0
C591 C 0.15354 0.48953 0.15538 0.0
N592 N 0.10857 0.43231 0.30688 0.0
N593 N 0.14765 0.47109 0.19269 0.0
H594 H 0.7509 0.87556 0.5032 0.0
H595 H 0.71841 0.85673 0.01554 0.0
H596 H 0.78654 0.88249 0.28726 0.0
H597 H 0.68331 0.82392 0.23514 0.0
H598 H 0.74377 0.87373 0.1138 0.0
H599 H 0.72555 0.86365 0.40405 0.0
C600 C 0.75343 0.87494 0.43481 0.0
C601 C 0.77094 0.88067 0.40294 0.0
C602 C 0.73037 0.86308 0.14023 0.0
C603 C 0.74229 0.8672 0.2899 0.0
C604 C 0.71598 0.85346 0.08444 0.0
C605 C 0.69861 0.83948 0.11755 0.0
C606 C 0.72725 0.85863 0.22952 0.0
C607 C 0.69617 0.83537 0.20717 0.0
C608 C 0.73905 0.86819 0.3785 0.0
C609 C 0.77353 0.87927 0.31402 0.0
N610 N 0.71031 0.84496 0.26006 0.0
N611 N 0.75937 0.87275 0.26052 0.0
H612 H 0.31844 0.0896 0.37349 0.0
H613 H 0.30438 0.01229 0.0223 0.0
H614 H 0.26933 0.06131 0.2297 0.0
H615 H 0.33848 0.02224 0.23912 0.0
H616 H 0.29049 0.02921 0.0974 0.0
H617 H 0.32537 0.06416 0.32767 0.0
C618 C 0.30897 0.0778 0.33331 0.0
C619 C 0.29336 0.07758 0.30479 0.0
C620 C 0.30068 0.02723 0.12945 0.0
C621 C 0.3014 0.0487 0.25043 0.0
C622 C 0.30858 0.01763 0.08663 0.0
C623 C 0.32234 0.01566 0.1253 0.0
C624 C 0.30702 0.03538 0.21035 0.0
C625 C 0.32759 0.02303 0.20812 0.0
C626 C 0.31291 0.06327 0.30729 0.0
C627 C 0.2815 0.06196 0.25305 0.0
N628 N 0.32012 0.03283 0.24736 0.0
N629 N 0.28596 0.04833 0.22593 0.0
H630 H 0.3668 0.14575 0.46211 0.0
H631 H 0.42104 0.21861 0.84215 0.0
H632 H 0.37333 0.20431 0.48123 0.0
H633 H 0.40801 0.1574 0.83199 0.0
H634 H 0.40371 0.21425 0.71121 0.0
H635 H 0.3832 0.15071 0.59518 0.0
C636 C 0.37202 0.15982 0.4939 0.0
C637 C 0.36877 0.17465 0.46107 0.0
C638 C 0.40447 0.20171 0.73817 0.0
C639 C 0.38715 0.18033 0.61468 0.0
C640 C 0.41428 0.2042 0.81277 0.0
C641 C 0.41597 0.18836 0.84695 0.0
C642 C 0.39643 0.18327 0.69769 0.0
C643 C 0.40688 0.1699 0.80762 0.0
C644 C 0.38115 0.16257 0.57045 0.0
C645 C 0.37548 0.19249 0.50524 0.0
N646 N 0.39765 0.16791 0.73455 0.0
N647 N 0.38435 0.19485 0.58017 0.0
H648 H 0.93989 0.37482 0.75118 0.0
H649 H 0.01836 0.35318 0.61559 0.0
H650 H 0.96218 0.34998 0.92901 0.0
H651 H 0.98679 0.36326 0.4289 0.0
H652 H 0.9982 0.35255 0.7316 0.0
H653 H 0.95633 0.37029 0.63243 0.0
C654 C 0.94766 0.36765 0.76505 0.0
C655 C 0.94916 0.36212 0.85016 0.0
C656 C 0.99551 0.3547 0.66535 0.0
C657 C 0.96902 0.35805 0.71427 0.0
C658 C 1.00699 0.35506 0.59936 0.0
C659 C 1.00384 0.35776 0.51294 0.0
C660 C 0.98098 0.35753 0.64494 0.0
C661 C 0.98942 0.36088 0.4949 0.0
C662 C 0.95734 0.3654 0.69705 0.0
C663 C 0.96047 0.35414 0.86424 0.0
N664 N 0.97846 0.36066 0.56053 0.0
N665 N 0.97008 0.35247 0.79707 0.0
H666 H 0.82363 0.84253 0.49142 0.0
H667 H 0.8179 0.79198 0.94905 0.0
H668 H 0.86606 0.87006 0.67491 0.0
H669 H 0.7828 0.7613 0.74071 0.0
H670 H 0.83736 0.81995 0.84741 0.0
H671 H 0.81072 0.81116 0.57541 0.0
C672 C 0.83054 0.84173 0.54809 0.0
C673 C 0.84588 0.8588 0.57648 0.0
C674 C 0.82559 0.80691 0.82366 0.0
C675 C 0.83078 0.82328 0.67529 0.0
C676 C 0.81449 0.79111 0.88166 0.0
C677 C 0.799 0.77431 0.85249 0.0
C678 C 0.82087 0.80593 0.73654 0.0
C679 C 0.79493 0.77377 0.765 0.0
C680 C 0.8231 0.82388 0.59656 0.0
C681 C 0.85428 0.85712 0.65066 0.0
N682 N 0.80572 0.78939 0.71029 0.0
N683 N 0.84636 0.83975 0.69885 0.0
H684 H 0.04322 0.82827 0.56753 0.0
H685 H 0.96215 0.79154 0.90973 0.0
H686 H 1.01515 0.86095 0.60564 0.0
H687 H 0.97198 0.7498 0.77421 0.0
H688 H 0.98292 0.81816 0.80547 0.0
H689 H 0.01837 0.79964 0.64762 0.0
C690 C 0.03175 0.82937 0.5916 0.0
C691 C 0.03141 0.84719 0.5806 0.0
C692 C 0.98029 0.8031 0.79777 0.0
C693 C 1.0032 0.8147 0.67387 0.0
C694 C 0.96851 0.78803 0.85706 0.0
C695 C 0.96527 0.76859 0.84908 0.0
C696 C 0.98923 0.79869 0.732 0.0
C697 C 0.97398 0.76464 0.781 0.0
C698 C 0.01759 0.81304 0.63738 0.0
C699 C 1.01615 0.84769 0.61325 0.0
N700 N 0.98576 0.77961 0.72555 0.0
N701 N 1.00282 0.83184 0.65968 0.0
H702 H 0.38642 0.3885 0.45462 0.0
H703 H 0.42254 0.33613 0.7842 0.0
H704 H 0.3749 0.32811 0.42841 0.0
H705 H 0.4281 0.39393 0.81741 0.0
H706 H 0.40634 0.33295 0.65007 0.0
H707 H 0.40425 0.39154 0.58106 0.0
C708 C 0.38795 0.376 0.47492 0.0
C709 C 0.37907 0.35798 0.43209 0.0
C710 C 0.41103 0.34627 0.68705 0.0
C711 C 0.39906 0.36106 0.5777 0.0
C712 C 0.4202 0.34803 0.76339 0.0
C713 C 0.42657 0.36528 0.81155 0.0
C714 C 0.40838 0.36195 0.6589 0.0
C715 C 0.42317 0.38029 0.78255 0.0
C716 C 0.39792 0.37761 0.54763 0.0
C717 C 0.3813 0.34211 0.46107 0.0
N718 N 0.4144 0.37832 0.70803 0.0
N719 N 0.39098 0.34395 0.53264 0.0
H720 H 0.77852 0.17983 0.731 0.0
H721 H 0.86734 0.17139 0.65405 0.0
H722 H 0.81549 0.1878 0.93242 0.0
H723 H 0.82354 0.1516 0.47731 0.0
H724 H 0.85285 0.18566 0.7434 0.0
H725 H 0.79874 0.17689 0.62644 0.0
C726 C 0.79114 0.18135 0.75268 0.0
C727 C 0.79559 0.18442 0.83983 0.0
C728 C 0.84669 0.17867 0.68383 0.0
C729 C 0.81862 0.18051 0.72108 0.0
C730 C 0.8551 0.17083 0.63213 0.0
C731 C 0.84655 0.16032 0.55842 0.0
C732 C 0.82977 0.17606 0.66083 0.0
C733 C 0.83052 0.1596 0.53377 0.0
C734 C 0.80262 0.17953 0.6932 0.0
C735 C 0.81172 0.18549 0.86551 0.0
N736 N 0.82253 0.16713 0.58538 0.0
N737 N 0.82269 0.18348 0.80631 0.0
H738 H 0.71821 1.00878 0.02996 0.0
H739 H 0.75122 0.03996 0.51241 0.0
H740 H 0.68262 1.00463 0.24107 0.0
H741 H 0.78699 0.06379 0.28684 0.0
H742 H 0.72564 0.02072 0.41803 0.0
H743 H 0.74374 0.02292 0.12821 0.0
C744 C 0.71572 1.01042 0.09734 0.0
C745 C 0.69818 1.0049 0.12797 0.0
C746 C 0.73916 0.02994 0.38942 0.0
C747 C 0.72712 0.02114 0.2401 0.0
C748 C 0.75367 0.04084 0.44312 0.0
C749 C 0.77122 0.05293 0.4073 0.0
C750 C 0.7423 0.03128 0.29937 0.0
C751 C 0.77375 0.05399 0.31705 0.0
C752 C 0.73023 0.01851 0.15316 0.0
C753 C 0.69566 1.00767 0.21547 0.0
N754 N 0.75946 0.04325 0.26614 0.0
N755 N 0.70996 0.01558 0.26842 0.0
H756 H 0.14598 0.8608 0.47364 0.0
H757 H 0.12585 0.79495 0.06111 0.0
H758 H 0.10487 0.85217 0.2943 0.0
H759 H 0.17689 0.81987 0.18889 0.0
H760 H 0.11829 0.81655 0.14313 0.0
H761 H 0.15775 0.84585 0.37073 0.0
C762 C 0.13962 0.85592 0.41211 0.0
C763 C 0.1247 0.85793 0.39132 0.0
C764 C 0.13131 0.81758 0.15208 0.0
C765 C 0.13774 0.84073 0.27439 0.0
C766 C 0.13564 0.8053 0.10502 0.0
C767 C 0.152 0.80562 0.11827 0.0
C768 C 0.14325 0.82994 0.21427 0.0
C769 C 0.1642 0.81928 0.17613 0.0
C770 C 0.14634 0.84753 0.35335 0.0
C771 C 0.11669 0.85127 0.31146 0.0
N772 N 0.15943 0.83065 0.22327 0.0
N773 N 0.12321 0.84283 0.25614 0.0
H774 H 0.33199 0.48554 0.05608 0.0
H775 H 0.33334 0.40355 0.36814 0.0
H776 H 0.36941 0.49775 0.26064 0.0
H777 H 0.28902 0.38844 0.19858 0.0
H778 H 0.3446 0.43873 0.33675 0.0
H779 H 0.31376 0.45067 0.11296 0.0
C780 C 0.33608 0.48098 0.11394 0.0
C781 C 0.35224 0.49431 0.15345 0.0
C782 C 0.33228 0.42786 0.30682 0.0
C783 C 0.33182 0.4549 0.21799 0.0
C784 C 0.32586 0.40773 0.32489 0.0
C785 C 0.31031 0.39314 0.28558 0.0
C786 C 0.32338 0.43359 0.2471 0.0
C787 C 0.30106 0.39933 0.23035 0.0
C788 C 0.32578 0.46114 0.14616 0.0
C789 C 0.35711 0.48779 0.22782 0.0
N790 N 0.30792 0.41916 0.21138 0.0
N791 N 0.34707 0.46859 0.25707 0.0
H792 H 0.96454 0.47715 0.0894 0.0
H793 H 0.06588 0.50903 0.92954 0.0
H794 H 0.9762 0.44377 0.90539 0.0
H795 H 0.05347 0.52132 0.18466 0.0
H796 H 0.0334 0.49001 0.9033 0.0
H797 H 0.99751 0.49914 0.10662 0.0
C798 C 0.97402 0.47475 0.05123 0.0
C799 C 0.96764 0.45864 -0.00415 0.0
C800 C 0.03784 0.4968 0.96522 0.0
C801 C 1.00522 0.48361 0.01508 0.0
C802 C 0.05648 0.50742 -0.01897 0.0
C803 C 0.06267 0.51625 0.06111 0.0
C804 C 0.02519 0.49542 0.02868 0.0
C805 C 0.04947 0.5146 0.12241 0.0
C806 C 0.99279 0.48714 0.06168 0.0
C807 C 0.98054 0.45601 0.9489 0.0
N808 N 0.03145 0.50445 0.10502 0.0
N809 N 0.99864 0.46832 0.95942 0.0
H810 H 0.71322 0.72441 0.9194 0.0
H811 H 0.61627 0.70766 0.07949 0.0
H812 H 0.67279 0.66738 0.03204 0.0
H813 H 0.65503 0.75539 0.90847 0.0
H814 H 0.63511 0.69158 0.06782 0.0
H815 H 0.69115 0.73533 0.92202 0.0
C816 C 0.69962 0.71407 0.94472 0.0
C817 C 0.69502 0.69488 0.97559 0.0
C818 C 0.63928 0.70544 0.03214 0.0
C819 C 0.66914 0.70758 -0.02058 0.0
C820 C 0.62846 0.71455 0.03834 0.0
C821 C 0.63409 0.73305 -0.00455 0.0
C822 C 0.6558 0.71496 -0.0171 0.0
C823 C 0.65015 0.74132 0.94373 0.0
C824 C 0.68689 0.72034 0.94598 0.0
C825 C 0.67699 0.68227 0.00717 0.0
N826 N 0.66034 0.73239 0.93964 0.0
N827 N 0.66475 0.68888 0.00901 0.0
H828 H 0.45673 0.14563 0.09327 0.0
H829 H 0.44331 0.03901 0.97088 0.0
H830 H 0.49495 0.14186 0.91946 0.0
H831 H 0.40355 0.04978 0.09645 0.0
H832 H 0.465 0.0755 0.96597 0.0
H833 H 0.44026 0.10967 0.11309 0.0
C834 C 0.46174 0.13717 0.05946 0.0
C835 C 0.47712 0.1468 0.00376 0.0
C836 C 0.45154 0.06973 -0.00509 0.0
C837 C 0.45789 0.105 0.02497 0.0
C838 C 0.4392 0.04895 -0.00197 0.0
C839 C 0.4215 0.0413 0.0334 0.0
C840 C 0.44613 0.08274 0.02882 0.0
C841 C 0.41691 0.05487 0.06754 0.0
C842 C 0.45226 0.11652 0.07064 0.0
C843 C 0.48311 0.135 0.96287 0.0
N844 N 0.42905 0.07472 0.06429 0.0
N845 N 0.47332 0.1146 0.97332 0.0
H846 H 0.66802 0.14538 0.01437 0.0
H847 H 0.65418 0.03862 0.89229 0.0
H848 H 0.70961 0.13426 0.91462 0.0
H849 H 0.61541 0.0422 0.06293 0.0
H850 H 0.67155 0.07472 0.8789 0.0
H851 H 0.64617 0.109 0.01585 0.0
C852 C 0.67253 0.13539 -0.00778 0.0
C853 C 0.69076 0.14299 0.96453 0.0
C854 C 0.65922 0.06779 0.91909 0.0
C855 C 0.66585 0.10151 0.96528 0.0
C856 C 0.64919 0.04705 0.92648 0.0
C857 C 0.63335 0.03726 -0.02049 0.0
C858 C 0.65366 0.07926 0.96546 0.0
C859 C 0.62752 0.04912 0.02125 0.0
C860 C 0.66008 0.11464 -0.00654 0.0
C861 C 0.69581 0.12926 0.93705 0.0
N862 N 0.6378 0.06957 0.01416 0.0
N863 N 0.68351 0.10941 0.93796 0.0
H864 H 0.07132 0.73908 0.06541 0.0
H865 H 0.9682 0.65329 -0.01142 0.0
H866 H 0.05606 0.67776 0.02798 0.0
H867 H 0.98625 0.71612 -0.00293 0.0
H868 H 0.99984 0.66133 0.0049 0.0
H869 H 0.04001 0.73054 0.04176 0.0
C870 C 0.06152 0.72391 0.05016 0.0
C871 C 0.06658 0.70927 0.04605 0.0
C872 C 0.99684 0.67333 0.00296 0.0
C873 C 0.03018 0.69908 0.02228 0.0
C874 C 0.97874 0.66873 -0.00632 0.0
C875 C 0.97441 0.68399 -0.00855 0.0
C876 C 1.01073 0.69334 0.0105 0.0
C877 C 0.98878 0.70377 -0.00163 0.0
C878 C 0.04349 0.71894 0.03776 0.0
C879 C 0.05285 0.68958 0.03079 0.0
N880 N 1.00614 0.70781 0.00774 0.0
N881 N 0.03535 0.68506 0.0194 0.0
H882 H 0.43668 0.50373 0.9291 0.0
H883 H 0.51721 0.48171 0.02979 0.0
H884 H 0.4706 0.5272 0.14852 0.0
H885 H 0.4711 0.44447 0.87698 0.0
H886 H 0.50504 0.50432 0.04992 0.0
H887 H 0.45412 0.48793 0.88466 0.0
C888 C 0.44813 0.50601 0.96651 0.0
C889 C 0.45236 0.51696 0.042 0.0
C890 C 0.49777 0.49132 0.01102 0.0
C891 C 0.47215 0.49859 -0.0072 0.0
C892 C 0.50477 0.47854 -0.00096 0.0
C893 C 0.49508 0.46116 0.9521 0.0
C894 C 0.48118 0.48682 0.97443 0.0
C895 C 0.47892 0.45762 0.91429 0.0
C896 C 0.45796 0.49682 0.94177 0.0
C897 C 0.46699 0.51891 0.08976 0.0
N898 N 0.47248 0.47027 0.92639 0.0
N899 N 0.47634 0.50978 0.06459 0.0
H900 H 0.15034 0.35126 0.31987 0.0
H901 H 0.19473 0.2832 0.24239 0.0
H902 H 0.11968 0.28794 0.28198 0.0
H903 H 0.22563 0.34554 0.29961 0.0
H904 H 0.16748 0.286 0.23163 0.0
H905 H 0.17846 0.35095 0.28696 0.0
C906 C 0.14954 0.33741 0.30229 0.0
C907 C 0.13276 0.31961 0.30283 0.0
C908 C 0.18027 0.29918 0.24509 0.0
C909 C 0.16471 0.31898 0.26753 0.0
C910 C 0.19577 0.29756 0.25108 0.0
C911 C 0.21239 0.31419 0.27092 0.0
C912 C 0.18137 0.31754 0.26052 0.0
C913 C 0.21314 0.33248 0.28223 0.0
C914 C 0.16556 0.33718 0.28436 0.0
C915 C 0.13243 0.30193 0.28226 0.0
N916 N 0.19779 0.33364 0.2777 0.0
N917 N 0.14816 0.30203 0.26597 0.0
H918 H 0.89036 0.07773 0.52797 0.0
H919 H 0.83432 0.96172 0.44672 0.0
H920 H 0.8391 0.04813 0.40181 0.0
H921 H 0.8909 0.99098 0.51076 0.0
H922 H 0.83659 0.99396 0.4288 0.0
H923 H 0.89204 0.04707 0.51917 0.0
C924 C 0.87956 0.06484 0.49788 0.0
C925 C 0.86425 0.06513 0.46812 0.0
C926 C 0.8486 0.99345 0.44612 0.0
C927 C 0.86608 0.03039 0.45772 0.0
C928 C 0.84728 0.97498 0.45675 0.0
C929 C 0.86242 0.97368 0.48081 0.0
C930 C 0.86511 1.01085 0.461 0.0
C931 C 0.8789 0.9914 0.49236 0.0
C932 C 0.88052 0.04741 0.49287 0.0
C933 C 0.85073 0.04824 0.42879 0.0
N934 N 0.87978 1.00935 0.48332 0.0
N935 N 0.85188 0.0315 0.42547 0.0
H936 H 0.14507 0.94736 0.43624 0.0
H937 H 0.18276 0.06515 0.39763 0.0
H938 H 0.11205 0.97426 0.48144 0.0
H939 H 0.21401 0.03816 0.31888 0.0
H940 H 0.1568 0.03183 0.43283 0.0
H941 H 0.17104 0.98058 0.39962 0.0
C942 C 0.14331 0.96024 0.43888 0.0
C943 C 0.12638 0.95804 0.46189 0.0
C944 C 0.16936 0.03318 0.40817 0.0
C945 C 0.15591 0.99596 0.41989 0.0
C946 C 0.18409 0.05215 0.38795 0.0
C947 C 0.20059 0.05432 0.35766 0.0
C948 C 0.17116 0.01628 0.39741 0.0
C949 C 0.20169 0.0371 0.34516 0.0
C950 C 0.15809 0.97916 0.41763 0.0
C951 C 0.12483 0.97522 0.46387 0.0
N952 N 0.18721 0.01878 0.36556 0.0
N953 N 0.13939 0.99342 0.4432 0.0
H954 H 0.25832 0.25749 0.31648 0.0
H955 H 0.31145 0.19755 0.37566 0.0
H956 H 0.31621 0.28401 0.34365 0.0
H957 H 0.25433 0.16754 0.32158 0.0
H958 H 0.31205 0.22904 0.37644 0.0
H959 H 0.25528 0.22419 0.32844 0.0
C960 C 0.27034 0.25633 0.32515 0.0
C961 C 0.28756 0.27358 0.32858 0.0
C962 C 0.29932 0.21565 0.36437 0.0
C963 C 0.28417 0.23577 0.34274 0.0
C964 C 0.29896 0.19756 0.36391 0.0
C965 C 0.28285 0.17985 0.34759 0.0
C966 C 0.28346 0.21626 0.34797 0.0
C967 C 0.26707 0.18088 0.33407 0.0
C968 C 0.26859 0.23737 0.33191 0.0
C969 C 0.30267 0.27122 0.34004 0.0
N970 N 0.26778 0.19886 0.33396 0.0
N971 N 0.3006 0.25276 0.34662 0.0
H972 H 0.92965 0.202 0.45703 0.0
H973 H 0.03814 0.26692 0.45182 0.0
H974 H 0.96254 0.17546 0.50864 0.0
H975 H 1.00312 0.28622 0.34185 0.0
H976 H 1.01124 0.23399 0.48574 0.0
H977 H 0.95709 0.23433 0.43391 0.0
C978 C 0.94268 0.20312 0.46604 0.0
C979 C 0.94388 0.18619 0.48684 0.0
C980 C 1.00955 0.24549 0.45403 0.0
C981 C 0.97546 0.223 0.45646 0.0
C982 C 0.02486 0.26419 0.43426 0.0
C983 C 0.02281 0.27938 0.39512 0.0
C984 C 0.99221 0.24217 0.43468 0.0
C985 C 1.00532 0.2751 0.37376 0.0
C986 C 0.95838 0.22152 0.45126 0.0
C987 C 0.96116 0.18831 0.49355 0.0
N988 N 0.99073 0.25699 0.3943 0.0
N989 N 0.97635 0.20643 0.4783 0.0
H990 H 0.03634 0.96859 0.56788 0.0
H991 H 0.92834 0.90857 0.55013 0.0
H992 H 1.0035 0.90485 0.54704 0.0
H993 H 0.95971 0.97249 0.56941 0.0
H994 H 0.95566 0.90673 0.57034 0.0
H995 H 1.00852 0.97037 0.58734 0.0
C996 C 0.02325 0.95497 0.5693 0.0
C997 C 0.02214 0.93652 0.55797 0.0
C998 C 0.9566 0.92117 0.57169 0.0
C999 C 0.99045 0.93834 0.5786 0.0
C1000 C 0.94092 0.92218 0.56135 0.0
C1001 C 0.94174 0.94068 0.56027 0.0
C1002 C 0.97334 0.93885 0.57912 0.0
C1003 C 0.95859 0.95796 0.57051 0.0
C1004 C 1.00743 0.95595 0.58032 0.0
C1005 C 1.00497 0.91926 0.55892 0.0
N1006 N 0.97381 0.95666 0.57901 0.0
N1007 N 0.9898 0.92061 0.56854 0.0
H1008 H 0.85108 0.63848 -0.01662 0.0
H1009 H 0.80376 0.70575 0.9593 0.0
H1010 H 0.87958 0.70271 0.95409 0.0
H1011 H 0.772 0.6415 -0.01583 0.0
H1012 H 0.83134 0.70393 0.95706 0.0
H1013 H 0.82203 0.63829 -0.01669 0.0
C1014 C 0.85129 0.65252 0.97675 0.0
C1015 C 0.86796 0.67065 0.96887 0.0
C1016 C 0.81841 0.69014 0.96302 0.0
C1017 C 0.83466 0.67051 0.96889 0.0
C1018 C 0.8025 0.69116 0.9644 0.0
C1019 C 0.78532 0.67375 0.97218 0.0
C1020 C 0.81748 0.67155 0.96956 0.0
C1021 C 0.78487 0.65534 0.97815 0.0
C1022 C 0.83467 0.65239 0.9768 0.0
C1023 C 0.86723 0.68833 0.96056 0.0
N1024 N 0.80068 0.65472 0.97686 0.0
N1025 N 0.85101 0.68778 0.96089 0.0
H1026 H 0.54318 0.37737 0.9735 0.0
H1027 H 0.4846 0.26074 0.87641 0.0
H1028 H 0.48782 0.34593 0.89075 0.0
H1029 H 0.53698 0.2852 -0.00878 0.0
H1030 H 0.48827 0.29366 0.86678 0.0
H1031 H 0.54366 0.34575 0.96867 0.0
C1032 C 0.53122 0.36394 0.95382 0.0
C1033 C 0.51539 0.36433 0.93317 0.0
C1034 C 0.49908 0.29205 0.89413 0.0
C1035 C 0.5159 0.32834 0.927 0.0
C1036 C 0.49698 0.27311 0.89959 0.0
C1037 C 0.5104 0.27005 0.93565 0.0
C1038 C 0.51468 0.30843 0.92573 0.0
C1039 C 0.52627 0.28687 0.96318 0.0
C1040 C 0.5315 0.34592 0.95132 0.0
C1041 C 0.5003 0.34647 0.9082 0.0
N1042 N 0.52791 0.30538 0.95852 0.0
N1043 N 0.50096 0.32939 0.90597 0.0
H1044 H 0.79643 0.25405 0.96353 0.0
H1045 H 0.84264 0.37322 -0.01901 0.0
H1046 H 0.76346 0.28179 0.9743 0.0
H1047 H 0.87019 0.33961 0.00736 0.0
H1048 H 0.81353 0.34136 0.97275 0.0
H1049 H 0.82342 0.28645 0.97124 0.0
C1050 C 0.79479 0.26698 0.96754 0.0
C1051 C 0.77745 0.26497 0.96866 0.0
C1052 C 0.82601 0.34109 -0.01949 0.0
C1053 C 0.80895 0.30288 0.97783 0.0
C1054 C 0.84262 0.35926 -0.01469 0.0
C1055 C 0.85903 0.35925 -0.00547 0.0
C1056 C 0.82587 0.32284 -0.0154 0.0
C1057 C 0.85808 0.34062 -0.00028 0.0
C1058 C 0.81036 0.28565 0.97211 0.0
C1059 C 0.7765 0.28256 0.97341 0.0
N1060 N 0.84195 0.32341 -0.00554 0.0
N1061 N 0.79203 0.30079 0.97792 0.0
H1062 H 0.92486 0.59088 -0.01464 0.0
H1063 H 0.86402 0.47212 0.05672 0.0
H1064 H 0.86726 0.55975 0.04374 0.0
H1065 H 0.92135 0.50264 -0.00773 0.0
H1066 H 0.86555 0.50442 0.06516 0.0
H1067 H 0.9246 0.55926 0.00141 0.0
C1068 C 0.91224 0.57748 0.00375 0.0
C1069 C 0.8961 0.578 0.01502 0.0
C1070 C 0.87787 0.50411 0.05029 0.0
C1071 C 0.89556 0.54159 0.03067 0.0
C1072 C 0.87699 0.48568 0.04562 0.0
C1073 C 0.89262 0.4847 0.02525 0.0
C1074 C 0.89451 0.52181 0.0333 0.0
C1075 C 0.90908 0.5027 0.01058 0.0
C1076 C 0.91205 0.55936 0.01189 0.0
C1077 C 0.88 0.55999 0.03506 0.0
N1078 N 0.90958 0.52051 0.01444 0.0
N1079 N 0.88012 0.54255 0.04209 0.0
H1080 H 0.57943 0.50739 0.95042 0.0
H1081 H 0.68529 0.56759 0.05257 0.0
H1082 H 0.61072 0.4795 0.01279 0.0
H1083 H 0.65576 0.59625 0.96986 0.0
H1084 H 0.65707 0.53536 0.0561 0.0
H1085 H 0.60608 0.54012 0.97426 0.0
C1086 C 0.5918 0.50814 0.97108 0.0
C1087 C 0.59282 0.49071 -0.01873 0.0
C1088 C 0.65665 0.54869 0.03831 0.0
C1089 C 0.62351 0.5281 0.00639 0.0
C1090 C 0.67275 0.56708 0.03661 0.0
C1091 C 0.67281 0.58461 0.01195 0.0
C1092 C 0.64043 0.54772 0.01406 0.0
C1093 C 0.65624 0.58316 -0.00881 0.0
C1094 C 0.60707 0.52683 -0.01618 0.0
C1095 C 0.6094 0.49259 0.00473 0.0
N1096 N 0.64073 0.565 -0.00792 0.0
N1097 N 0.62407 0.51092 0.01643 0.0
H1098 H 0.67496 0.25335 0.04654 0.0
H1099 H 0.56793 0.1913 0.97261 0.0
H1100 H 0.64724 0.19221 0.96975 0.0
H1101 H 0.59774 0.25357 0.0319 0.0
H1102 H 0.59563 0.18945 -0.00817 0.0
H1103 H 0.64575 0.25193 0.06216 0.0
C1104 C 0.66262 0.23952 0.0343 0.0
C1105 C 0.66346 0.22285 0.00761 0.0
C1106 C 0.59603 0.20344 0.00197 0.0
C1107 C 0.62991 0.22111 0.02354 0.0
C1108 C 0.5802 0.20443 -0.00818 0.0
C1109 C 0.58059 0.22259 0.00151 0.0
C1110 C 0.61231 0.22076 0.02168 0.0
C1111 C 0.59694 0.23932 0.02392 0.0
C1112 C 0.64595 0.23869 0.04301 0.0
C1113 C 0.64713 0.20527 -0.0079 0.0
N1114 N 0.61212 0.23803 0.03288 0.0
N1115 N 0.631 0.2049 -0.00051 0.0
H1116 H 0.54139 0.99043 0.00207 0.0
H1117 H 0.43333 0.92723 0.08821 0.0
H1118 H 0.51133 0.92762 0.07071 0.0
H1119 H 0.4619 0.98971 0.01328 0.0
H1120 H 0.46235 0.92807 0.09379 0.0
H1121 H 0.51321 0.99163 0.01824 0.0
C1122 C 0.52896 0.97701 0.02246 0.0
C1123 C 0.52874 0.95894 0.03632 0.0
C1124 C 0.46237 0.9417 0.07705 0.0
C1125 C 0.49636 0.96005 0.05274 0.0
C1126 C 0.44578 0.9412 0.07398 0.0
C1127 C 0.4452 0.95846 0.05156 0.0
C1128 C 0.47863 0.95958 0.05639 0.0
C1129 C 0.46174 0.97617 0.03304 0.0
C1130 C 0.51283 0.97764 0.0308 0.0
C1131 C 0.51209 0.94184 0.05964 0.0
N1132 N 0.47777 0.97626 0.03541 0.0
N1133 N 0.49663 0.94281 0.06694 0.0
H1134 H 0.19313 0.71982 0.0637 0.0
H1135 H 0.1359 0.60172 0.00441 0.0
H1136 H 0.13546 0.68558 0.02383 0.0
H1137 H 0.19158 0.63104 0.08281 0.0
H1138 H 0.13731 0.63362 -0.00394 0.0
H1139 H 0.19442 0.68886 0.05804 0.0
C1140 C 0.18078 0.70586 0.05334 0.0
C1141 C 0.16413 0.70531 0.04453 0.0
C1142 C 0.1493 0.63324 0.01504 0.0
C1143 C 0.16557 0.66999 0.03765 0.0
C1144 C 0.14852 0.61493 0.01981 0.0
C1145 C 0.1636 0.61359 0.04541 0.0
C1146 C 0.16526 0.65063 0.0363 0.0
C1147 C 0.17962 0.63138 0.06311 0.0
C1148 C 0.18154 0.68822 0.0503 0.0
C1149 C 0.14858 0.6868 0.03139 0.0
N1150 N 0.18001 0.64921 0.05889 0.0
N1151 N 0.14971 0.66999 0.0284 0.0
H1152 H 0.53799 0.67985 0.01709 0.0
H1153 H 0.42941 0.62832 0.0544 0.0
H1154 H 0.5105 0.71371 0.01936 0.0
H1155 H 0.4582 0.59634 0.01625 0.0
H1156 H 0.45859 0.65992 0.0383 0.0
H1157 H 0.5086 0.64916 0.01171 0.0
C1158 C 0.52585 0.68092 0.01397 0.0
C1159 C 0.52681 0.69949 0.01679 0.0
C1160 C 0.45843 0.64593 0.03301 0.0
C1161 C 0.49285 0.66419 0.01453 0.0
C1162 C 0.44177 0.62791 0.04216 0.0
C1163 C 0.44128 0.60958 0.03745 0.0
C1164 C 0.47468 0.64559 0.01926 0.0
C1165 C 0.4578 0.61002 0.02131 0.0
C1166 C 0.50897 0.66332 0.01215 0.0
C1167 C 0.5104 0.69972 0.01682 0.0
N1168 N 0.47371 0.62762 0.01334 0.0
N1169 N 0.49413 0.6824 0.01619 0.0
H1170 H 0.57447 0.80703 0.01313 0.0
H1171 H 0.62895 0.92444 0.0987 0.0
H1172 H 0.63206 0.84374 0.04991 0.0
H1173 H 0.57614 0.898 -0.0129 0.0
H1174 H 0.62695 0.89231 0.10311 0.0
H1175 H 0.57185 0.83745 0.02009 0.0
C1176 C 0.58649 0.82132 0.02306 0.0
C1177 C 0.60352 0.82265 0.0311 0.0
C1178 C 0.61569 0.89331 0.07751 0.0
C1179 C 0.60057 0.85732 0.03992 0.0
C1180 C 0.61681 0.91182 0.07517 0.0
C1181 C 0.60281 0.91419 0.04144 0.0
C1182 C 0.60049 0.87659 0.04524 0.0
C1183 C 0.58731 0.89694 0.01341 0.0
C1184 C 0.58499 0.83866 0.02676 0.0
C1185 C 0.61861 0.84166 0.04346 0.0
N1186 N 0.58661 0.87885 0.0151 0.0
N1187 N 0.61673 0.85798 0.04766 0.0
H1188 H 0.31277 0.93421 0.06748 0.0
H1189 H 0.2654 0.81488 0.06477 0.0
H1190 H 0.34377 0.90423 0.05176 0.0
H1191 H 0.23635 0.84702 0.06068 0.0
H1192 H 0.29415 0.8468 0.06807 0.0
H1193 H 0.28489 0.90207 0.07374 0.0
C1194 C 0.31379 0.92086 0.06534 0.0
C1195 C 0.33083 0.9221 0.05863 0.0
C1196 C 0.28147 0.84686 0.06753 0.0
C1197 C 0.29844 0.88474 0.06599 0.0
C1198 C 0.26505 0.82864 0.06584 0.0
C1199 C 0.24832 0.82814 0.06473 0.0
C1200 C 0.28126 0.86485 0.06734 0.0
C1201 C 0.24873 0.84648 0.06487 0.0
C1202 C 0.29773 0.9024 0.06899 0.0
C1203 C 0.33102 0.90408 0.0567 0.0
N1204 N 0.26486 0.86398 0.06611 0.0
N1205 N 0.31509 0.88616 0.06017 0.0
H1206 H 0.323 0.57294 0.21321 0.0
H1207 H 0.24326 0.56899 0.92848 0.0
H1208 H 0.32155 0.56967 0.93607 0.0
H1209 H 0.24321 0.57285 0.20536 0.0
H1210 H 0.27104 0.56709 0.9328 0.0
H1211 H 0.29307 0.57068 0.21531 0.0
C1212 C 0.31619 0.5713 0.15306 0.0
C1213 C 0.32459 0.57106 0.07442 0.0
C1214 C 0.26492 0.56812 -0.00699 0.0
C1215 C 0.29059 0.56905 0.07584 0.0
C1216 C 0.24902 0.56915 -0.00958 0.0
C1217 C 0.24071 0.57068 0.0667 0.0
C1218 C 0.27291 0.5689 0.0726 0.0
C1219 C 0.24888 0.57111 0.14528 0.0
C1220 C 0.29919 0.57022 0.15411 0.0
C1221 C 0.31548 0.56973 -0.00194 0.0
N1222 N 0.26455 0.5703 0.14622 0.0
N1223 N 0.29908 0.56877 0.00068 0.0
H1224 H 0.08336 0.32771 0.08456 0.0
H1225 H 0.04661 0.34906 0.64786 0.0
H1226 H 0.04406 0.34729 0.07802 0.0
H1227 H 0.08808 0.33264 0.65444 0.0
H1228 H 0.04522 0.34809 0.80532 0.0
H1229 H 0.08475 0.32871 0.92709 0.0
C1230 C 0.07494 0.33214 0.05002 0.0
C1231 C 0.06354 0.33741 0.09455 0.0
C1232 C 0.05466 0.34474 0.77242 0.0
C1233 C 0.06517 0.33868 0.91405 0.0
C1234 C 0.05549 0.34531 0.68244 0.0
C1235 C 0.0675 0.34092 0.63793 0.0
C1236 C 0.06589 0.3397 0.81841 0.0
C1237 C 0.07865 0.33616 0.68614 0.0
C1238 C 0.0758 0.33276 0.96002 0.0
C1239 C 0.05302 0.34309 0.04633 0.0
N1240 N 0.07754 0.33563 0.7739 0.0
N1241 N 0.0541 0.34359 0.95858 0.0
H1242 H 0.88641 0.93221 0.22698 0.0
H1243 H 0.8251 0.90219 0.8091 0.0
H1244 H 0.82811 0.89393 0.23695 0.0
H1245 H 0.88377 0.93557 0.7968 0.0
H1246 H 0.82587 0.90011 0.9667 0.0
H1247 H 0.88578 0.93393 0.06915 0.0
C1248 C 0.8735 0.92406 0.19598 0.0
C1249 C 0.85726 0.91314 0.24523 0.0
C1250 C 0.83857 0.90793 0.92945 0.0
C1251 C 0.8564 0.91521 0.06497 0.0
C1252 C 0.83813 0.90923 0.83951 0.0
C1253 C 0.85438 0.91908 0.78966 0.0
C1254 C 0.85538 0.91659 0.96979 0.0
C1255 C 0.87088 0.92782 0.83259 0.0
C1256 C 0.87313 0.92513 0.10593 0.0
C1257 C 0.84092 0.90289 0.20166 0.0
N1258 N 0.87096 0.92635 0.92009 0.0
N1259 N 0.84089 0.90426 0.11412 0.0
H1260 H 0.31709 0.14587 0.04079 0.0
H1261 H 0.25592 0.11079 0.62303 0.0
H1262 H 0.25843 0.11522 0.05216 0.0
H1263 H 0.31416 0.13645 0.61393 0.0
H1264 H 0.25655 0.1127 0.78048 0.0
H1265 H 0.31638 0.14371 0.88344 0.0
C1266 C 0.30408 0.13881 0.0102 0.0
C1267 C 0.2878 0.1307 0.05967 0.0
C1268 C 0.26919 0.1179 0.74397 0.0
C1269 C 0.28688 0.12804 0.87995 0.0
C1270 C 0.26882 0.11674 0.65415 0.0
C1271 C 0.28504 0.12369 0.60525 0.0
C1272 C 0.28589 0.12607 0.78504 0.0
C1273 C 0.30137 0.13124 0.64894 0.0
C1274 C 0.30367 0.13749 0.92043 0.0
C1275 C 0.27132 0.12165 0.01662 0.0
N1276 N 0.30139 0.13231 0.7363 0.0
N1277 N 0.27129 0.12055 0.92927 0.0
H1278 H 0.07072 0.92411 0.79222 0.0
H1279 H 0.08241 0.87548 0.22898 0.0
H1280 H 0.09491 0.8868 0.80006 0.0
H1281 H 0.06573 0.91959 0.22355 0.0
H1282 H 0.08533 0.87787 0.07137 0.0
H1283 H 0.06769 0.92165 0.94964 0.0
C1284 C 0.07555 0.91553 0.82707 0.0
C1285 C 0.08312 0.90567 0.78276 0.0
C1286 C 0.08103 0.88703 0.1046 0.0
C1287 C 0.07944 0.90257 0.96334 0.0
C1288 C 0.0794 0.88571 0.19466 0.0
C1289 C 0.07412 0.89761 0.23964 0.0
C1290 C 0.07725 0.90027 0.05895 0.0
C1291 C 0.06988 0.91017 0.19158 0.0
C1292 C 0.07376 0.91409 0.91704 0.0
C1293 C 0.08908 0.89472 0.83148 0.0
N1294 N 0.07162 0.91124 0.10384 0.0
N1295 N 0.08702 0.89338 0.91914 0.0
H1296 H 0.32761 0.34347 0.0169 0.0
H1297 H 0.26703 0.32225 0.59999 0.0
H1298 H 0.26972 0.32059 0.0293 0.0
H1299 H 0.32505 0.34603 0.58773 0.0
H1300 H 0.26773 0.3216 0.7578 0.0
H1301 H 0.32692 0.34427 0.85912 0.0
C1302 C 0.31476 0.33855 -0.01352 0.0
C1303 C 0.29871 0.33194 0.03629 0.0
C1304 C 0.28031 0.32698 0.72049 0.0
C1305 C 0.29782 0.3329 0.85611 0.0
C1306 C 0.27991 0.32739 0.63045 0.0
C1307 C 0.29599 0.33416 0.58068 0.0
C1308 C 0.29689 0.33337 0.76086 0.0
C1309 C 0.31231 0.34063 0.62352 0.0
C1310 C 0.31437 0.33905 0.89645 0.0
C1311 C 0.28243 0.32578 -0.00652 0.0
N1312 N 0.31233 0.34004 0.71112 0.0
N1313 N 0.28242 0.32643 0.90588 0.0
H1314 H 0.82693 0.09759 0.22176 0.0
H1315 H 0.88647 0.13075 0.77964 0.0
H1316 H 0.88505 0.13743 0.20779 0.0
H1317 H 0.82825 0.09164 0.79326 0.0
H1318 H 0.88625 0.133 0.93651 0.0
H1319 H 0.82713 0.09545 0.06484 0.0
C1320 C 0.83973 0.10603 0.18566 0.0
C1321 C 0.85601 0.11772 0.22806 0.0
C1322 C 0.87353 0.12387 0.90528 0.0
C1323 C 0.85634 0.11515 0.04817 0.0
C1324 C 0.87364 0.12249 0.81565 0.0
C1325 C 0.85734 0.11096 0.77315 0.0
C1326 C 0.857 0.11366 0.95299 0.0
C1327 C 0.84114 0.10067 0.82326 0.0
C1328 C 0.83983 0.10473 0.09599 0.0
C1329 C 0.87218 0.12826 0.17784 0.0
N1330 N 0.84138 0.10231 0.91053 0.0
N1331 N 0.87193 0.12667 0.09054 0.0
H1332 H 0.75597 0.71436 0.25543 0.0
H1333 H 0.72279 0.64806 0.69505 0.0
H1334 H 0.7215 0.65019 0.26504 0.0
H1335 H 0.75159 0.71251 0.68501 0.0
H1336 H 0.72294 0.64843 0.53717 0.0
H1337 H 0.7555 0.71391 0.4132 0.0
C1338 C 0.74831 0.70018 0.2907 0.0
C1339 C 0.73877 0.68229 0.24709 0.0
C1340 C 0.72925 0.66249 0.56959 0.0
C1341 C 0.73817 0.68166 0.42739 0.0
C1342 C 0.72916 0.66228 0.65966 0.0
C1343 C 0.73738 0.68029 0.70315 0.0
C1344 C 0.73763 0.68083 0.52288 0.0
C1345 C 0.7454 0.69828 0.65414 0.0
C1346 C 0.74802 0.69993 0.38075 0.0
C1347 C 0.72905 0.66435 0.29604 0.0
N1348 N 0.74536 0.6981 0.56658 0.0
N1349 N 0.72903 0.66449 0.38364 0.0
H1350 H 0.52594 0.21659 0.67502 0.0
H1351 H 0.46795 0.2032 0.25527 0.0
H1352 H 0.46856 0.19648 0.68462 0.0
H1353 H 0.52425 0.21867 0.24544 0.0
H1354 H 0.46813 0.2017 0.41305 0.0
H1355 H 0.52572 0.21797 0.51733 0.0
C1356 C 0.51328 0.21237 0.644 0.0
C1357 C 0.49726 0.20648 0.69306 0.0
C1358 C 0.48045 0.20545 0.37631 0.0
C1359 C 0.49693 0.20817 0.51277 0.0
C1360 C 0.48037 0.20638 0.28626 0.0
C1361 C 0.4961 0.21107 0.23713 0.0
C1362 C 0.49639 0.20927 0.41743 0.0
C1363 C 0.5118 0.215 0.28071 0.0
C1364 C 0.51316 0.21321 0.55397 0.0
C1365 C 0.48125 0.20121 0.64941 0.0
N1366 N 0.51153 0.21399 0.36837 0.0
N1367 N 0.48151 0.20224 0.56174 0.0
H1368 H 0.92448 0.39137 0.28308 0.0
H1369 H 0.89883 0.42973 0.70999 0.0
H1370 H 0.89939 0.42784 0.28016 0.0
H1371 H 0.92835 0.39797 0.71078 0.0
H1372 H 0.89843 0.42875 0.5523 0.0
H1373 H 0.92519 0.39275 0.44058 0.0
C1374 C 0.91907 0.39961 0.31554 0.0
C1375 C 0.91186 0.40949 0.26846 0.0
C1376 C 0.90499 0.42199 0.58705 0.0
C1377 C 0.91268 0.41119 0.44838 0.0
C1378 C 0.90526 0.42259 0.67701 0.0
C1379 C 0.91346 0.41371 0.72358 0.0
C1380 C 0.913 0.41246 0.54354 0.0
C1381 C 0.9216 0.40468 0.67758 0.0
C1382 C 0.91953 0.40044 0.40541 0.0
C1383 C 0.90507 0.41999 0.31386 0.0
N1384 N 0.92112 0.40423 0.59011 0.0
N1385 N 0.90565 0.42055 0.4013 0.0
H1386 H 0.7136 0.21515 0.24729 0.0
H1387 H 0.74691 0.18935 0.6839 0.0
H1388 H 0.75001 0.19163 0.25398 0.0
H1389 H 0.71698 0.22064 0.67581 0.0
H1390 H 0.74698 0.18863 0.52683 0.0
H1391 H 0.71334 0.21564 0.40459 0.0
C1392 C 0.72154 0.21006 0.28184 0.0
C1393 C 0.73189 0.20337 0.23743 0.0
C1394 C 0.74047 0.19574 0.55929 0.0
C1395 C 0.73161 0.2039 0.4176 0.0
C1396 C 0.74052 0.19628 0.64905 0.0
C1397 C 0.73217 0.20536 0.69297 0.0
C1398 C 0.73188 0.2042 0.51298 0.0
C1399 C 0.72364 0.21357 0.64448 0.0
C1400 C 0.7214 0.21038 0.37169 0.0
C1401 C 0.74187 0.19693 0.2856 0.0
N1402 N 0.72372 0.2128 0.55691 0.0
N1403 N 0.74148 0.19735 0.37324 0.0
H1404 H 0.9038 0.64243 0.2639 0.0
H1405 H 0.94273 0.70584 0.68637 0.0
H1406 H 0.93387 0.7069 0.2599 0.0
H1407 H 0.90314 0.64288 0.69479 0.0
H1408 H 0.94156 0.70619 0.52908 0.0
H1409 H 0.90507 0.64202 0.42116 0.0
C1410 C 0.9106 0.65652 0.29612 0.0
C1411 C 0.91872 0.67475 0.24875 0.0
C1412 C 0.93308 0.69231 0.56534 0.0
C1413 C 0.92035 0.67434 0.42863 0.0
C1414 C 0.93366 0.69213 0.65519 0.0
C1415 C 0.92272 0.67441 0.70381 0.0
C1416 C 0.9216 0.67458 0.52375 0.0
C1417 C 0.91174 0.6569 0.65979 0.0
C1418 C 0.91132 0.65625 0.38591 0.0
C1419 C 0.92737 0.69251 0.29391 0.0
N1420 N 0.91142 0.65744 0.57214 0.0
N1421 N 0.92802 0.69186 0.38143 0.0
H1422 H 0.4773 0.3944 0.23766 0.0
H1423 H 0.53867 0.43218 0.65375 0.0
H1424 H 0.53585 0.43057 0.2239 0.0
H1425 H 0.48022 0.40436 0.66439 0.0
H1426 H 0.53798 0.4307 0.49609 0.0
H1427 H 0.47808 0.39623 0.39521 0.0
C1428 C 0.4903 0.40263 0.26775 0.0
C1429 C 0.50652 0.41234 0.21762 0.0
C1430 C 0.5253 0.42492 0.53302 0.0
C1431 C 0.50752 0.41457 0.39741 0.0
C1432 C 0.52571 0.42582 0.62293 0.0
C1433 C 0.50946 0.41811 0.67225 0.0
C1434 C 0.50853 0.41624 0.49238 0.0
C1435 C 0.49304 0.41006 0.62901 0.0
C1436 C 0.49075 0.40375 0.35759 0.0
C1437 C 0.523 0.42287 0.25998 0.0
N1438 N 0.49298 0.40924 0.54158 0.0
N1439 N 0.52307 0.42369 0.34741 0.0
H1440 H 0.39424 0.96533 0.32629 0.0
H1441 H 0.36049 0.9937 0.75786 0.0
H1442 H 0.36539 0.99782 0.32857 0.0
H1443 H 0.39439 0.96698 0.75642 0.0
H1444 H 0.36122 0.99422 0.60014 0.0
H1445 H 0.39385 0.96501 0.48415 0.0
C1446 C 0.38782 0.97239 0.35995 0.0
C1447 C 0.37962 0.9814 0.31425 0.0
C1448 C 0.3685 0.98825 0.63435 0.0
C1449 C 0.37909 0.98105 0.49454 0.0
C1450 C 0.36806 0.98791 0.72438 0.0
C1451 C 0.3774 0.9803 0.77027 0.0
C1452 C 0.37831 0.98088 0.58998 0.0
C1453 C 0.38701 0.97301 0.72359 0.0
C1454 C 0.38758 0.97219 0.45002 0.0
C1455 C 0.37156 0.99038 0.36111 0.0
N1456 N 0.3872 0.97347 0.63591 0.0
N1457 N 0.37145 0.98993 0.44873 0.0
H1458 H 0.18233 0.56151 0.79249 0.0
H1459 H 0.12692 0.54839 0.36412 0.0
H1460 H 0.12502 0.54169 0.79408 0.0
H1461 H 0.18395 0.56689 0.36252 0.0
H1462 H 0.12606 0.54629 0.52171 0.0
H1463 H 0.18315 0.56346 0.63492 0.0
C1464 C 0.16988 0.55746 0.75971 0.0
C1465 C 0.15358 0.55146 0.80657 0.0
C1466 C 0.13877 0.55086 0.48693 0.0
C1467 C 0.15446 0.55381 0.62606 0.0
C1468 C 0.13929 0.55212 0.3969 0.0
C1469 C 0.15554 0.55783 0.35003 0.0
C1470 C 0.1546 0.55532 0.53053 0.0
C1471 C 0.17114 0.56246 0.39601 0.0
C1472 C 0.17038 0.55863 0.66968 0.0
C1473 C 0.13789 0.5464 0.76059 0.0
N1474 N 0.17027 0.56106 0.48375 0.0
N1475 N 0.13874 0.54775 0.67283 0.0
H1476 H 0.58535 0.75392 0.74186 0.0
H1477 H 0.64455 0.79028 0.29954 0.0
H1478 H 0.6429 0.79668 0.72726 0.0
H1479 H 0.58599 0.7545 0.31146 0.0
H1480 H 0.6444 0.79131 0.45688 0.0
H1481 H 0.58548 0.75268 0.58449 0.0
C1482 C 0.598 0.76311 0.70555 0.0
C1483 C 0.61414 0.77545 0.7477 0.0
C1484 C 0.63158 0.78328 0.42507 0.0
C1485 C 0.61439 0.77398 0.56773 0.0
C1486 C 0.63165 0.78275 0.33518 0.0
C1487 C 0.61524 0.77255 0.29227 0.0
C1488 C 0.61498 0.77342 0.4724 0.0
C1489 C 0.59896 0.76259 0.34192 0.0
C1490 C 0.59806 0.76237 0.61572 0.0
C1491 C 0.63014 0.78699 0.69741 0.0
N1492 N 0.59924 0.76332 0.42944 0.0
N1493 N 0.62986 0.78593 0.61 0.0
H1494 H 0.37174 0.55771 0.80138 0.0
H1495 H 0.41655 0.54714 0.36145 0.0
H1496 H 0.41071 0.5377 0.79112 0.0
H1497 H 0.37647 0.56559 0.37086 0.0
H1498 H 0.41496 0.54417 0.51889 0.0
H1499 H 0.37316 0.56051 0.6439 0.0
C1500 C 0.38051 0.55376 0.76606 0.0
C1501 C 0.39116 0.54748 0.80974 0.0
C1502 C 0.40656 0.54894 0.48661 0.0
C1503 C 0.39297 0.55086 0.62906 0.0
C1504 C 0.40751 0.55073 0.39662 0.0
C1505 C 0.39663 0.55665 0.35277 0.0
C1506 C 0.39462 0.55307 0.53339 0.0
C1507 C 0.38514 0.56104 0.4019 0.0
C1508 C 0.38136 0.55543 0.67603 0.0
C1509 C 0.40226 0.54258 0.76037 0.0
N1510 N 0.3844 0.55911 0.48959 0.0
N1511 N 0.40293 0.54445 0.67269 0.0
H1512 H 0.64432 0.98519 0.72412 0.0
H1513 H 0.58378 0.96043 0.30608 0.0
H1514 H 0.58631 0.96147 0.73627 0.0
H1515 H 0.64241 0.99417 0.29584 0.0
H1516 H 0.58428 0.95931 0.46391 0.0
H1517 H 0.64375 0.98655 0.56627 0.0
C1518 C 0.63146 0.98017 0.69361 0.0
C1519 C 0.61535 0.97324 0.74336 0.0
C1520 C 0.59703 0.96695 0.42704 0.0
C1521 C 0.61461 0.97483 0.56318 0.0
C1522 C 0.59675 0.96764 0.337 0.0
C1523 C 0.61309 0.9771 0.28774 0.0
C1524 C 0.61377 0.97575 0.46796 0.0
C1525 C 0.62951 0.98625 0.33117 0.0
C1526 C 0.63115 0.98104 0.60358 0.0
C1527 C 0.59908 0.96698 0.70046 0.0
N1528 N 0.62944 0.98525 0.4188 0.0
N1529 N 0.59912 0.96792 0.61284 0.0
H1530 H 0.12983 0.73483 0.35399 0.0
H1531 H 0.18791 0.77892 0.77635 0.0
H1532 H 0.18816 0.77316 0.34766 0.0
H1533 H 0.12955 0.7408 0.78231 0.0
H1534 H 0.18824 0.77731 0.61904 0.0
H1535 H 0.1295 0.73665 0.51116 0.0
C1536 C 0.14259 0.74353 0.38566 0.0
C1537 C 0.15905 0.75385 0.33756 0.0
C1538 C 0.17536 0.76935 0.65474 0.0
C1539 C 0.15875 0.75613 0.51748 0.0
C1540 C 0.17515 0.77031 0.74457 0.0
C1541 C 0.15868 0.75994 0.7926 0.0
C1542 C 0.15899 0.75791 0.61258 0.0
C1543 C 0.14257 0.74901 0.74793 0.0
C1544 C 0.14238 0.74461 0.47543 0.0
C1545 C 0.17515 0.76493 0.38211 0.0
N1546 N 0.14314 0.74823 0.66045 0.0
N1547 N 0.17459 0.76581 0.46956 0.0
loop_
_geom_bond_atom_site_label_1
_geom_bond_atom_site_label_2
_geom_bond_distance
_geom_bond_site_symmetry_2
_ccdc_geom_bond_type
Zn0 O1 2.055 . S
Zn0 O8 2.046 . S
Zn0 N16 2.036 . S
Zn0 O28 2.053 . S
Zn0 O30 2.066 . S
O1 Zn0 2.055 . S
O1 C4 1.259 . S
C2 O30 1.256 . S
C2 O31 1.244 . S
Zn3 O5 2.046 . S
Zn3 O7 2.055 . S
Zn3 N9 2.036 . S
Zn3 O27 2.066 . S
Zn3 O31 2.053 . S
C4 O1 1.259 . S
C4 O5 1.254 . S
O5 Zn3 2.046 . S
O5 C4 1.254 . S
C6 O27 1.256 . S
C6 O28 1.244 . S
O7 Zn3 2.055 . S
O7 C29 1.259 . S
O8 Zn0 2.046 . S
O8 C29 1.254 . S
N9 Zn3 2.036 . S
N9 C10 1.298 . S
N9 N12 1.398 . S
C10 N9 1.298 . S
C10 N13 1.367 . S
C10 C23 1.481 . S
C11 N12 1.299 . S
C11 N13 1.379 . S
N12 N9 1.398 . S
N12 C11 1.299 . S
N13 C10 1.367 . S
N13 C11 1.379 . S
C14 N16 1.298 1_655 S
C14 N18 1.367 . S
C14 C22 1.481 . S
C15 N17 1.235 1_655 S
C15 N18 1.403 . S
N16 Zn0 2.036 . S
N16 C14 1.298 1_455 S
N16 N17 1.398 . S
N17 C15 1.235 1_455 S
N17 N16 1.398 . S
N18 C14 1.367 . S
N18 C15 1.403 . S
H19 C22 0.980 . S
H20 C22 0.981 . S
H21 C22 0.981 . S
C22 C14 1.481 . S
C22 H19 0.980 . S
C22 H20 0.981 . S
C22 H21 0.981 . S
C23 C10 1.481 . S
C23 H24 0.980 . S
C23 H25 0.981 . S
C23 H26 0.981 . S
H24 C23 0.980 . S
H25 C23 0.981 . S
H26 C23 0.981 . S
O27 Zn3 2.066 . S
O27 C6 1.256 . S
O28 Zn0 2.053 . S
O28 C6 1.244 . S
C29 O7 1.259 . S
C29 O8 1.254 . S
O30 Zn0 2.066 . S
O30 C2 1.256 . S
O31 C2 1.244 . S
O31 Zn3 2.053 . S
Zn32 O33 2.055 . S
Zn32 O40 2.046 . S
Zn32 N48 2.036 . S
Zn32 O60 2.053 . S
Zn32 O62 2.066 . S
O33 Zn32 2.055 . S
O33 C36 1.259 . S
C34 O62 1.256 . S
C34 O63 1.244 . S
Zn35 O37 2.046 . S
Zn35 O39 2.055 . S
Zn35 N41 2.036 . S
Zn35 O59 2.066 . S
Zn35 O63 2.053 . S
C36 O33 1.259 . S
C36 O37 1.254 . S
O37 Zn35 2.046 . S
O37 C36 1.254 . S
C38 O59 1.256 . S
C38 O60 1.244 . S
O39 Zn35 2.055 . S
O39 C61 1.259 . S
O40 Zn32 2.046 . S
O40 C61 1.254 . S
N41 Zn35 2.036 . S
N41 C42 1.298 . S
N41 N44 1.398 . S
C42 N41 1.298 . S
C42 N45 1.367 . S
C42 C55 1.481 . S
C43 N44 1.299 . S
C43 N45 1.379 . S
N44 N41 1.398 . S
N44 C43 1.299 . S
N45 C42 1.367 . S
N45 C43 1.379 . S
C46 N48 1.298 . S
C46 N50 1.367 . S
C46 C54 1.481 . S
C47 N49 1.299 . S
C47 N50 1.379 . S
N48 Zn32 2.036 . S
N48 C46 1.298 . S
N48 N49 1.398 . S
N49 C47 1.299 . S
N49 N48 1.398 . S
N50 C46 1.367 . S
N50 C47 1.379 . S
H51 C54 0.980 . S
H52 C54 0.981 . S
H53 C54 0.981 . S
C54 C46 1.481 . S
C54 H51 0.980 . S
C54 H52 0.981 . S
C54 H53 0.981 . S
C55 C42 1.481 . S
C55 H56 0.980 . S
C55 H57 0.981 . S
C55 H58 0.981 . S
H56 C55 0.980 . S
H57 C55 0.981 . S
H58 C55 0.981 . S
O59 Zn35 2.066 . S
O59 C38 1.256 . S
O60 Zn32 2.053 . S
O60 C38 1.244 . S
C61 O39 1.259 . S
C61 O40 1.254 . S
O62 Zn32 2.066 . S
O62 C34 1.256 . S
O63 C34 1.244 . S
O63 Zn35 2.053 . S
Zn64 O65 2.055 . S
Zn64 O72 2.046 . S
Zn64 N80 2.036 . S
Zn64 O92 2.053 . S
Zn64 O94 2.066 . S
O65 Zn64 2.055 . S
O65 C68 1.259 . S
C66 O94 1.256 . S
C66 O95 1.244 . S
Zn67 O69 2.046 . S
Zn67 O71 2.055 . S
Zn67 N73 2.036 . S
Zn67 O91 2.066 . S
Zn67 O95 2.053 . S
C68 O65 1.259 . S
C68 O69 1.254 . S
O69 Zn67 2.046 . S
O69 C68 1.254 . S
C70 O91 1.256 . S
C70 O92 1.244 . S
O71 Zn67 2.055 . S
O71 C93 1.259 . S
O72 Zn64 2.046 . S
O72 C93 1.254 . S
N73 Zn67 2.036 . S
N73 C74 1.298 . S
N73 N76 1.398 . S
C74 N73 1.298 . S
C74 N77 1.367 . S
C74 C87 1.481 . S
C75 N76 1.299 . S
C75 N77 1.379 . S
N76 N73 1.398 . S
N76 C75 1.299 . S
N77 C74 1.367 . S
N77 C75 1.379 . S
C78 N80 1.298 . S
C78 N82 1.367 . S
C78 C86 1.481 . S
C79 N81 1.299 . S
C79 N82 1.379 . S
N80 Zn64 2.036 . S
N80 C78 1.298 . S
N80 N81 1.398 . S
N81 C79 1.299 . S
N81 N80 1.398 . S
N82 C78 1.367 . S
N82 C79 1.379 . S
H83 C86 0.980 . S
H84 C86 0.981 . S
H85 C86 0.981 . S
C86 C78 1.481 . S
C86 H83 0.980 . S
C86 H84 0.981 . S
C86 H85 0.981 . S
C87 C74 1.481 . S
C87 H88 0.980 . S
C87 H89 0.981 . S
C87 H90 0.981 . S
H88 C87 0.980 . S
H89 C87 0.981 . S
H90 C87 0.981 . S
O91 Zn67 2.066 . S
O91 C70 1.256 . S
O92 Zn64 2.053 . S
O92 C70 1.244 . S
C93 O71 1.259 . S
C93 O72 1.254 . S
O94 Zn64 2.066 . S
O94 C66 1.256 . S
O95 C66 1.244 . S
O95 Zn67 2.053 . S
Zn96 O97 2.055 . S
Zn96 O104 2.046 . S
Zn96 N112 2.036 . S
Zn96 O124 2.053 . S
Zn96 O126 2.066 . S
O97 Zn96 2.055 . S
O97 C100 1.259 . S
C98 O126 1.256 . S
C98 O127 1.244 . S
Zn99 O101 2.046 . S
Zn99 O103 2.055 . S
Zn99 N105 2.036 . S
Zn99 O123 2.066 . S
Zn99 O127 2.053 . S
C100 O97 1.259 . S
C100 O101 1.254 . S
O101 Zn99 2.046 . S
O101 C100 1.254 . S
C102 O123 1.256 . S
C102 O124 1.244 . S
O103 Zn99 2.055 . S
O103 C125 1.259 . S
O104 Zn96 2.046 . S
O104 C125 1.254 . S
N105 Zn99 2.036 . S
N105 C106 1.298 . S
N105 N108 1.398 . S
C106 N105 1.298 . S
C106 N109 1.367 . S
C106 C119 1.481 . S
C107 N108 1.299 . S
C107 N109 1.379 . S
N108 N105 1.398 . S
N108 C107 1.299 . S
N109 C106 1.367 . S
N109 C107 1.379 . S
C110 N112 1.298 . S
C110 N114 1.367 . S
C110 C118 1.481 . S
C111 N113 1.299 . S
C111 N114 1.379 . S
N112 Zn96 2.036 . S
N112 C110 1.298 . S
N112 N113 1.398 . S
N113 C111 1.299 . S
N113 N112 1.398 . S
N114 C110 1.367 . S
N114 C111 1.379 . S
H115 C118 0.980 . S
H116 C118 0.981 . S
H117 C118 0.981 . S
C118 C110 1.481 . S
C118 H115 0.980 . S
C118 H116 0.981 . S
C118 H117 0.981 . S
C119 C106 1.481 . S
C119 H120 0.980 . S
C119 H121 0.981 . S
C119 H122 0.981 . S
H120 C119 0.980 . S
H121 C119 0.981 . S
H122 C119 0.981 . S
O123 Zn99 2.066 . S
O123 C102 1.256 . S
O124 Zn96 2.053 . S
O124 C102 1.244 . S
C125 O103 1.259 . S
C125 O104 1.254 . S
O126 Zn96 2.066 . S
O126 C98 1.256 . S
O127 C98 1.244 . S
O127 Zn99 2.053 . S
Zn128 O129 2.055 . S
Zn128 O136 2.046 . S
Zn128 N144 2.036 . S
Zn128 O156 2.053 . S
Zn128 O158 2.066 . S
O129 Zn128 2.055 . S
O129 C132 1.259 . S
C130 O158 1.256 . S
C130 O159 1.244 . S
Zn131 O133 2.046 . S
Zn131 O135 2.055 . S
Zn131 N137 2.036 . S
Zn131 O155 2.066 . S
Zn131 O159 2.053 . S
C132 O129 1.259 . S
C132 O133 1.254 . S
O133 Zn131 2.046 . S
O133 C132 1.254 . S
C134 O155 1.256 . S
C134 O156 1.244 . S
O135 Zn131 2.055 . S
O135 C157 1.259 . S
O136 Zn128 2.046 . S
O136 C157 1.254 . S
N137 Zn131 2.036 . S
N137 C138 1.298 . S
N137 N140 1.398 . S
C138 N137 1.298 . S
C138 N141 1.367 . S
C138 C151 1.481 . S
C139 N140 1.299 . S
C139 N141 1.379 . S
N140 N137 1.398 . S
N140 C139 1.299 . S
N141 C138 1.367 . S
N141 C139 1.379 . S
C142 N144 1.298 . S
C142 N146 1.367 . S
C142 C150 1.481 . S
C143 N145 1.299 . S
C143 N146 1.379 . S
N144 Zn128 2.036 . S
N144 C142 1.298 . S
N144 N145 1.398 . S
N145 C143 1.299 . S
N145 N144 1.398 . S
N146 C142 1.367 . S
N146 C143 1.379 . S
H147 C150 0.980 . S
H148 C150 0.981 . S
H149 C150 0.981 . S
C150 C142 1.481 . S
C150 H147 0.980 . S
C150 H148 0.981 . S
C150 H149 0.981 . S
C151 C138 1.481 . S
C151 H152 0.980 . S
C151 H153 0.981 . S
C151 H154 0.981 . S
H152 C151 0.980 . S
H153 C151 0.981 . S
H154 C151 0.981 . S
O155 Zn131 2.066 . S
O155 C134 1.256 . S
O156 Zn128 2.053 . S
O156 C134 1.244 . S
C157 O135 1.259 . S
C157 O136 1.254 . S
O158 Zn128 2.066 . S
O158 C130 1.256 . S
O159 C130 1.244 . S
O159 Zn131 2.053 . S
Zn160 O161 2.055 . S
Zn160 O168 2.046 . S
Zn160 N176 2.036 . S
Zn160 O188 2.053 . S
Zn160 O190 2.066 . S
O161 Zn160 2.055 . S
O161 C164 1.259 . S
C162 O190 1.256 . S
C162 O191 1.244 . S
Zn163 O165 2.046 . S
Zn163 O167 2.055 . S
Zn163 N169 2.036 . S
Zn163 O187 2.066 . S
Zn163 O191 2.053 . S
C164 O161 1.259 . S
C164 O165 1.254 . S
O165 Zn163 2.046 . S
O165 C164 1.254 . S
C166 O187 1.256 . S
C166 O188 1.244 . S
O167 Zn163 2.055 . S
O167 C189 1.259 . S
O168 Zn160 2.046 . S
O168 C189 1.254 . S
N169 Zn163 2.036 . S
N169 C170 1.298 . S
N169 N172 1.398 . S
C170 N169 1.298 . S
C170 N173 1.367 . S
C170 C183 1.481 . S
C171 N172 1.299 . S
C171 N173 1.379 . S
N172 N169 1.398 . S
N172 C171 1.299 . S
N173 C170 1.367 . S
N173 C171 1.379 . S
C174 N176 1.298 . S
C174 N178 1.367 . S
C174 C182 1.481 . S
C175 N177 1.299 . S
C175 N178 1.379 . S
N176 Zn160 2.036 . S
N176 C174 1.298 . S
N176 N177 1.398 . S
N177 C175 1.299 . S
N177 N176 1.398 . S
N178 C174 1.367 . S
N178 C175 1.379 . S
H179 C182 0.980 . S
H180 C182 0.981 . S
H181 C182 0.981 . S
C182 C174 1.481 . S
C182 H179 0.980 . S
C182 H180 0.981 . S
C182 H181 0.981 . S
C183 C170 1.481 . S
C183 H184 0.980 . S
C183 H185 0.981 . S
C183 H186 0.981 . S
H184 C183 0.980 . S
H185 C183 0.981 . S
H186 C183 0.981 . S
O187 Zn163 2.066 . S
O187 C166 1.256 . S
O188 Zn160 2.053 . S
O188 C166 1.244 . S
C189 O167 1.259 . S
C189 O168 1.254 . S
O190 Zn160 2.066 . S
O190 C162 1.256 . S
O191 C162 1.244 . S
O191 Zn163 2.053 . S
Zn192 O193 2.055 1_556 S
Zn192 O200 2.046 . S
Zn192 N208 2.036 . S
Zn192 O220 2.053 . S
Zn192 O222 2.066 . S
O193 Zn192 2.055 1_554 S
O193 C196 1.259 . S
C194 O222 1.256 . S
C194 O223 1.244 . S
Zn195 O197 2.046 1_556 S
Zn195 O199 2.055 . S
Zn195 N201 2.036 . S
Zn195 O219 2.066 . S
Zn195 O223 2.053 . S
C196 O193 1.259 . S
C196 O197 1.254 . S
O197 Zn195 2.046 1_554 S
O197 C196 1.254 . S
C198 O219 1.256 . S
C198 O220 1.244 . S
O199 Zn195 2.055 . S
O199 C221 1.259 . S
O200 Zn192 2.046 . S
O200 C221 1.254 . S
N201 Zn195 2.036 . S
N201 C202 1.298 . S
N201 N204 1.398 . S
C202 N201 1.298 . S
C202 N205 1.367 . S
C202 C215 1.481 . S
C203 N204 1.299 . S
C203 N205 1.379 . S
N204 N201 1.398 . S
N204 C203 1.299 . S
N205 C202 1.367 . S
N205 C203 1.379 . S
C206 N208 1.298 . S
C206 N210 1.367 . S
C206 C214 1.481 1_556 S
C207 N209 1.299 . S
C207 N210 1.379 . S
N208 Zn192 2.036 . S
N208 C206 1.298 . S
N208 N209 1.398 . S
N209 C207 1.299 . S
N209 N208 1.398 . S
N210 C206 1.367 . S
N210 C207 1.379 . S
H211 C214 0.980 . S
H212 C214 0.981 . S
H213 C214 0.981 . S
C214 C206 1.481 1_554 S
C214 H211 0.980 . S
C214 H212 0.981 . S
C214 H213 0.981 . S
C215 C202 1.481 . S
C215 H216 0.980 . S
C215 H217 0.981 . S
C215 H218 0.981 . S
H216 C215 0.980 . S
H217 C215 0.981 . S
H218 C215 0.981 . S
O219 Zn195 2.066 . S
O219 C198 1.256 . S
O220 Zn192 2.053 . S
O220 C198 1.244 . S
C221 O199 1.259 . S
C221 O200 1.254 . S
O222 Zn192 2.066 . S
O222 C194 1.256 . S
O223 C194 1.244 . S
O223 Zn195 2.053 . S
Zn224 O225 2.055 . S
Zn224 O232 2.046 1_556 S
Zn224 N240 2.036 . S
Zn224 O252 2.053 . S
Zn224 O254 2.066 . S
O225 Zn224 2.055 . S
O225 C228 1.259 . S
C226 O254 1.256 . S
C226 O255 1.244 . S
Zn227 O229 2.046 . S
Zn227 O231 2.055 1_556 S
Zn227 N233 2.036 . S
Zn227 O251 2.066 . S
Zn227 O255 2.053 . S
C228 O225 1.259 . S
C228 O229 1.254 . S
O229 Zn227 2.046 . S
O229 C228 1.254 . S
C230 O251 1.256 . S
C230 O252 1.244 . S
O231 Zn227 2.055 1_554 S
O231 C253 1.259 . S
O232 Zn224 2.046 1_554 S
O232 C253 1.254 . S
N233 Zn227 2.036 . S
N233 C234 1.298 . S
N233 N236 1.398 . S
C234 N233 1.298 . S
C234 N237 1.367 . S
C234 C247 1.481 1_556 S
C235 N236 1.299 . S
C235 N237 1.379 . S
N236 N233 1.398 . S
N236 C235 1.299 . S
N237 C234 1.367 . S
N237 C235 1.379 . S
C238 N240 1.298 . S
C238 N242 1.367 . S
C238 C246 1.481 . S
C239 N241 1.299 . S
C239 N242 1.379 . S
N240 Zn224 2.036 . S
N240 C238 1.298 . S
N240 N241 1.398 . S
N241 C239 1.299 . S
N241 N240 1.398 . S
N242 C238 1.367 . S
N242 C239 1.379 . S
H243 C246 0.980 . S
H244 C246 0.981 . S
H245 C246 0.981 . S
C246 C238 1.481 . S
C246 H243 0.980 . S
C246 H244 0.981 . S
C246 H245 0.981 . S
C247 C234 1.481 1_554 S
C247 H248 0.980 . S
C247 H249 0.981 . S
C247 H250 0.981 . S
H248 C247 0.980 . S
H249 C247 0.981 . S
H250 C247 0.981 . S
O251 Zn227 2.066 . S
O251 C230 1.256 . S
O252 Zn224 2.053 . S
O252 C230 1.244 . S
C253 O231 1.259 . S
C253 O232 1.254 . S
O254 Zn224 2.066 . S
O254 C226 1.256 . S
O255 C226 1.244 . S
O255 Zn227 2.053 . S
Zn256 O257 2.055 . S
Zn256 O264 2.046 1_556 S
Zn256 N272 2.036 . S
Zn256 O284 2.053 . S
Zn256 O286 2.066 . S
O257 Zn256 2.055 . S
O257 C260 1.259 . S
C258 O286 1.256 . S
C258 O287 1.244 . S
Zn259 O261 2.046 . S
Zn259 O263 2.055 1_556 S
Zn259 N265 2.036 . S
Zn259 O283 2.066 . S
Zn259 O287 2.053 . S
C260 O257 1.259 . S
C260 O261 1.254 . S
O261 Zn259 2.046 . S
O261 C260 1.254 . S
C262 O283 1.256 . S
C262 O284 1.244 . S
O263 Zn259 2.055 1_554 S
O263 C285 1.259 . S
O264 Zn256 2.046 1_554 S
O264 C285 1.254 . S
N265 Zn259 2.036 . S
N265 C266 1.298 . S
N265 N268 1.398 . S
C266 N265 1.298 . S
C266 N269 1.367 . S
C266 C279 1.481 1_556 S
C267 N268 1.299 . S
C267 N269 1.379 . S
N268 N265 1.398 . S
N268 C267 1.299 . S
N269 C266 1.367 . S
N269 C267 1.379 . S
C270 N272 1.298 . S
C270 N274 1.367 . S
C270 C278 1.481 . S
C271 N273 1.299 . S
C271 N274 1.379 . S
N272 Zn256 2.036 . S
N272 C270 1.298 . S
N272 N273 1.398 . S
N273 C271 1.299 . S
N273 N272 1.398 . S
N274 C270 1.367 . S
N274 C271 1.379 . S
H275 C278 0.980 . S
H276 C278 0.981 . S
H277 C278 0.981 . S
C278 C270 1.481 . S
C278 H275 0.980 . S
C278 H276 0.981 . S
C278 H277 0.981 . S
C279 C266 1.481 1_554 S
C279 H280 0.980 . S
C279 H281 0.981 . S
C279 H282 0.981 . S
H280 C279 0.980 . S
H281 C279 0.981 . S
H282 C279 0.981 . S
O283 Zn259 2.066 . S
O283 C262 1.256 . S
O284 Zn256 2.053 . S
O284 C262 1.244 . S
C285 O263 1.259 . S
C285 O264 1.254 . S
O286 Zn256 2.066 . S
O286 C258 1.256 . S
O287 C258 1.244 . S
O287 Zn259 2.053 . S
Zn288 O289 2.055 1_556 S
Zn288 O296 2.046 . S
Zn288 N304 2.036 . S
Zn288 O316 2.053 . S
Zn288 O318 2.066 . S
O289 Zn288 2.055 1_554 S
O289 C292 1.259 . S
C290 O318 1.256 . S
C290 O319 1.244 . S
Zn291 O293 2.046 1_556 S
Zn291 O295 2.055 . S
Zn291 N297 2.036 . S
Zn291 O315 2.066 . S
Zn291 O319 2.053 . S
C292 O289 1.259 . S
C292 O293 1.254 . S
O293 Zn291 2.046 1_554 S
O293 C292 1.254 . S
C294 O315 1.256 . S
C294 O316 1.244 . S
O295 Zn291 2.055 . S
O295 C317 1.259 . S
O296 Zn288 2.046 . S
O296 C317 1.254 . S
N297 Zn291 2.036 . S
N297 C298 1.298 . S
N297 N300 1.398 . S
C298 N297 1.298 . S
C298 N301 1.367 . S
C298 C311 1.481 . S
C299 N300 1.299 . S
C299 N301 1.379 . S
N300 N297 1.398 . S
N300 C299 1.299 . S
N301 C298 1.367 . S
N301 C299 1.379 . S
C302 N304 1.298 . S
C302 N306 1.367 . S
C302 C310 1.481 1_556 S
C303 N305 1.299 . S
C303 N306 1.379 . S
N304 Zn288 2.036 . S
N304 C302 1.298 . S
N304 N305 1.398 . S
N305 C303 1.299 . S
N305 N304 1.398 . S
N306 C302 1.367 . S
N306 C303 1.379 . S
H307 C310 0.980 . S
H308 C310 0.981 . S
H309 C310 0.981 . S
C310 C302 1.481 1_554 S
C310 H307 0.980 . S
C310 H308 0.981 . S
C310 H309 0.981 . S
C311 C298 1.481 . S
C311 H312 0.980 . S
C311 H313 0.981 . S
C311 H314 0.981 . S
H312 C311 0.980 . S
H313 C311 0.981 . S
H314 C311 0.981 . S
O315 Zn291 2.066 . S
O315 C294 1.256 . S
O316 Zn288 2.053 . S
O316 C294 1.244 . S
C317 O295 1.259 . S
C317 O296 1.254 . S
O318 Zn288 2.066 . S
O318 C290 1.256 . S
O319 C290 1.244 . S
O319 Zn291 2.053 . S
Zn320 O321 2.055 1_556 S
Zn320 O328 2.046 . S
Zn320 N336 2.036 . S
Zn320 O348 2.053 . S
Zn320 O350 2.066 . S
O321 Zn320 2.055 1_554 S
O321 C324 1.259 . S
C322 O350 1.256 . S
C322 O351 1.244 . S
Zn323 O325 2.046 1_556 S
Zn323 O327 2.055 . S
Zn323 N329 2.036 . S
Zn323 O347 2.066 . S
Zn323 O351 2.053 . S
C324 O321 1.259 . S
C324 O325 1.254 . S
O325 Zn323 2.046 1_554 S
O325 C324 1.254 . S
C326 O347 1.256 . S
C326 O348 1.244 . S
O327 Zn323 2.055 . S
O327 C349 1.259 . S
O328 Zn320 2.046 . S
O328 C349 1.254 . S
N329 Zn323 2.036 . S
N329 C330 1.298 . S
N329 N332 1.398 . S
C330 N329 1.298 . S
C330 N333 1.367 . S
C330 C343 1.481 . S
C331 N332 1.299 . S
C331 N333 1.379 . S
N332 N329 1.398 . S
N332 C331 1.299 . S
N333 C330 1.367 . S
N333 C331 1.379 . S
C334 N336 1.298 . S
C334 N338 1.367 . S
C334 C342 1.481 1_556 S
C335 N337 1.299 . S
C335 N338 1.379 . S
N336 Zn320 2.036 . S
N336 C334 1.298 . S
N336 N337 1.398 . S
N337 C335 1.299 . S
N337 N336 1.398 . S
N338 C334 1.367 . S
N338 C335 1.379 . S
H339 C342 0.980 . S
H340 C342 0.981 . S
H341 C342 0.981 . S
C342 C334 1.481 1_554 S
C342 H339 0.980 . S
C342 H340 0.981 . S
C342 H341 0.981 . S
C343 C330 1.481 . S
C343 H344 0.980 . S
C343 H345 0.981 . S
C343 H346 0.981 . S
H344 C343 0.980 . S
H345 C343 0.981 . S
H346 C343 0.981 . S
O347 Zn323 2.066 . S
O347 C326 1.256 . S
O348 Zn320 2.053 . S
O348 C326 1.244 . S
C349 O327 1.259 . S
C349 O328 1.254 . S
O350 Zn320 2.066 . S
O350 C322 1.256 . S
O351 C322 1.244 . S
O351 Zn323 2.053 . S
Zn352 O353 2.055 1_556 S
Zn352 O360 2.046 . S
Zn352 N368 2.036 . S
Zn352 O380 2.053 . S
Zn352 O382 2.066 . S
O353 Zn352 2.055 1_554 S
O353 C356 1.259 . S
C354 O382 1.256 . S
C354 O383 1.244 . S
Zn355 O357 2.046 1_556 S
Zn355 O359 2.055 . S
Zn355 N361 2.036 . S
Zn355 O379 2.066 . S
Zn355 O383 2.053 . S
C356 O353 1.259 . S
C356 O357 1.254 . S
O357 Zn355 2.046 1_554 S
O357 C356 1.254 . S
C358 O379 1.256 . S
C358 O380 1.244 . S
O359 Zn355 2.055 . S
O359 C381 1.259 . S
O360 Zn352 2.046 . S
O360 C381 1.254 . S
N361 Zn355 2.036 . S
N361 C362 1.298 . S
N361 N364 1.398 . S
C362 N361 1.298 . S
C362 N365 1.367 . S
C362 C375 1.481 . S
C363 N364 1.299 . S
C363 N365 1.379 . S
N364 N361 1.398 . S
N364 C363 1.299 . S
N365 C362 1.367 . S
N365 C363 1.379 . S
C366 N368 1.298 . S
C366 N370 1.367 . S
C366 C374 1.481 1_556 S
C367 N369 1.299 . S
C367 N370 1.379 . S
N368 Zn352 2.036 . S
N368 C366 1.298 . S
N368 N369 1.398 . S
N369 C367 1.299 . S
N369 N368 1.398 . S
N370 C366 1.367 . S
N370 C367 1.379 . S
H371 C374 0.980 . S
H372 C374 0.981 . S
H373 C374 0.981 . S
C374 C366 1.481 1_554 S
C374 H371 0.980 . S
C374 H372 0.981 . S
C374 H373 0.981 . S
C375 C362 1.481 . S
C375 H376 0.980 . S
C375 H377 0.981 . S
C375 H378 0.981 . S
H376 C375 0.980 . S
H377 C375 0.981 . S
H378 C375 0.981 . S
O379 Zn355 2.066 . S
O379 C358 1.256 . S
O380 Zn352 2.053 . S
O380 C358 1.244 . S
C381 O359 1.259 . S
C381 O360 1.254 . S
O382 Zn352 2.066 . S
O382 C354 1.256 . S
O383 C354 1.244 . S
O383 Zn355 2.053 . S
Zn384 O385 2.055 . S
Zn384 O392 2.046 1_554 S
Zn384 N400 2.036 1_565 S
Zn384 O412 2.053 1_565 S
Zn384 O414 2.066 . S
O385 Zn384 2.055 . S
O385 C388 1.259 . S
C386 O414 1.256 . S
C386 O415 1.244 . S
Zn387 O389 2.046 . S
Zn387 O391 2.055 1_554 S
Zn387 N393 2.036 . S
Zn387 O411 2.066 1_565 S
Zn387 O415 2.053 . S
C388 O385 1.259 . S
C388 O389 1.254 . S
O389 Zn387 2.046 . S
O389 C388 1.254 . S
C390 O411 1.256 . S
C390 O412 1.244 . S
O391 Zn387 2.055 1_556 S
O391 C413 1.259 . S
O392 Zn384 2.046 1_556 S
O392 C413 1.254 . S
N393 Zn387 2.036 . S
N393 C394 1.298 . S
N393 N396 1.398 . S
C394 N393 1.298 . S
C394 N397 1.367 . S
C394 C407 1.481 1_554 S
C395 N396 1.299 . S
C395 N397 1.379 . S
N396 N393 1.398 . S
N396 C395 1.299 . S
N397 C394 1.367 . S
N397 C395 1.379 . S
C398 N400 1.303 1_565 S
C398 N402 1.337 1_565 S
C398 C406 1.502 . S
C399 N401 1.299 . S
C399 N402 1.379 . S
N400 Zn384 2.036 1_545 S
N400 C398 1.303 1_545 S
N400 N401 1.398 . S
N401 C399 1.299 . S
N401 N400 1.398 . S
N402 C398 1.337 1_545 S
N402 C399 1.379 . S
H403 C406 0.980 . S
H404 C406 0.981 . S
H405 C406 0.981 . S
C406 C398 1.502 . S
C406 H403 0.980 . S
C406 H404 0.981 . S
C406 H405 0.981 . S
C407 C394 1.481 1_556 S
C407 H408 0.980 . S
C407 H409 0.981 . S
C407 H410 0.981 . S
H408 C407 0.980 . S
H409 C407 0.981 . S
H410 C407 0.981 . S
O411 Zn387 2.066 1_545 S
O411 C390 1.256 . S
O412 Zn384 2.053 1_545 S
O412 C390 1.244 . S
C413 O391 1.259 . S
C413 O392 1.254 . S
O414 Zn384 2.066 . S
O414 C386 1.256 . S
O415 C386 1.244 . S
O415 Zn387 2.053 . S
Zn416 O417 2.055 . S
Zn416 O424 2.046 . S
Zn416 N432 2.036 . S
Zn416 O444 2.053 . S
Zn416 O446 2.066 . S
O417 Zn416 2.055 . S
O417 C420 1.259 . S
C418 O446 1.256 . S
C418 O447 1.244 . S
Zn419 O421 2.046 . S
Zn419 O423 2.055 . S
Zn419 N425 2.036 . S
Zn419 O443 2.066 . S
Zn419 O447 2.053 . S
C420 O417 1.259 . S
C420 O421 1.254 . S
O421 Zn419 2.046 . S
O421 C420 1.254 . S
C422 O443 1.256 . S
C422 O444 1.244 . S
O423 Zn419 2.055 . S
O423 C445 1.259 . S
O424 Zn416 2.046 . S
O424 C445 1.254 . S
N425 Zn419 2.036 . S
N425 C426 1.298 . S
N425 N428 1.398 . S
C426 N425 1.298 . S
C426 N429 1.367 . S
C426 C439 1.481 . S
C427 N428 1.299 . S
C427 N429 1.379 . S
N428 N425 1.398 . S
N428 C427 1.299 . S
N429 C426 1.367 . S
N429 C427 1.379 . S
C430 N432 1.298 . S
C430 N434 1.367 . S
C430 C438 1.481 . S
C431 N433 1.299 . S
C431 N434 1.379 . S
N432 Zn416 2.036 . S
N432 C430 1.298 . S
N432 N433 1.398 . S
N433 C431 1.299 . S
N433 N432 1.398 . S
N434 C430 1.367 . S
N434 C431 1.379 . S
H435 C438 0.980 . S
H436 C438 0.981 . S
H437 C438 0.981 . S
C438 C430 1.481 . S
C438 H435 0.980 . S
C438 H436 0.981 . S
C438 H437 0.981 . S
C439 C426 1.481 . S
C439 H440 0.980 . S
C439 H441 0.981 . S
C439 H442 0.981 . S
H440 C439 0.980 . S
H441 C439 0.981 . S
H442 C439 0.981 . S
O443 Zn419 2.066 . S
O443 C422 1.256 . S
O444 Zn416 2.053 . S
O444 C422 1.244 . S
C445 O423 1.259 . S
C445 O424 1.254 . S
O446 Zn416 2.066 . S
O446 C418 1.256 . S
O447 C418 1.244 . S
O447 Zn419 2.053 . S
Zn448 O449 2.055 1_554 S
Zn448 O456 2.046 . S
Zn448 N464 2.036 . S
Zn448 O476 2.053 . S
Zn448 O478 2.066 . S
O449 Zn448 2.055 1_556 S
O449 C452 1.259 . S
C450 O478 1.256 . S
C450 O479 1.244 . S
Zn451 O453 2.046 1_554 S
Zn451 O455 2.055 . S
Zn451 N457 2.036 . S
Zn451 O475 2.066 . S
Zn451 O479 2.053 . S
C452 O449 1.259 . S
C452 O453 1.254 . S
O453 Zn451 2.046 1_556 S
O453 C452 1.254 . S
C454 O475 1.256 . S
C454 O476 1.244 . S
O455 Zn451 2.055 . S
O455 C477 1.259 . S
O456 Zn448 2.046 . S
O456 C477 1.254 . S
N457 Zn451 2.036 . S
N457 C458 1.298 . S
N457 N460 1.398 . S
C458 N457 1.298 . S
C458 N461 1.367 . S
C458 C471 1.481 . S
C459 N460 1.299 . S
C459 N461 1.379 . S
N460 N457 1.398 . S
N460 C459 1.299 . S
N461 C458 1.367 . S
N461 C459 1.379 . S
C462 N464 1.298 . S
C462 N466 1.367 . S
C462 C470 1.481 1_554 S
C463 N465 1.299 . S
C463 N466 1.379 . S
N464 Zn448 2.036 . S
N464 C462 1.298 . S
N464 N465 1.398 . S
N465 C463 1.299 . S
N465 N464 1.398 . S
N466 C462 1.367 . S
N466 C463 1.379 . S
H467 C470 0.980 . S
H468 C470 0.981 . S
H469 C470 0.981 . S
C470 C462 1.481 1_556 S
C470 H467 0.980 . S
C470 H468 0.981 . S
C470 H469 0.981 . S
C471 C458 1.481 . S
C471 H472 0.980 . S
C471 H473 0.981 . S
C471 H474 0.981 . S
H472 C471 0.980 . S
H473 C471 0.981 . S
H474 C471 0.981 . S
O475 Zn451 2.066 . S
O475 C454 1.256 . S
O476 Zn448 2.053 . S
O476 C454 1.244 . S
C477 O455 1.259 . S
C477 O456 1.254 . S
O478 Zn448 2.066 . S
O478 C450 1.256 . S
O479 C450 1.244 . S
O479 Zn451 2.053 . S
Zn480 O481 2.055 . S
Zn480 O488 2.046 . S
Zn480 N496 2.036 . S
Zn480 O508 2.053 . S
Zn480 O510 2.066 . S
O481 Zn480 2.055 . S
O481 C484 1.259 . S
C482 O510 1.256 . S
C482 O511 1.244 . S
Zn483 O485 2.046 . S
Zn483 O487 2.055 . S
Zn483 N489 2.036 . S
Zn483 O507 2.066 . S
Zn483 O511 2.053 . S
C484 O481 1.259 . S
C484 O485 1.254 . S
O485 Zn483 2.046 . S
O485 C484 1.254 . S
C486 O507 1.256 . S
C486 O508 1.244 . S
O487 Zn483 2.055 . S
O487 C509 1.259 . S
O488 Zn480 2.046 . S
O488 C509 1.254 . S
N489 Zn483 2.036 . S
N489 C490 1.298 . S
N489 N492 1.398 . S
C490 N489 1.298 . S
C490 N493 1.367 . S
C490 C503 1.481 . S
C491 N492 1.299 . S
C491 N493 1.379 . S
N492 N489 1.398 . S
N492 C491 1.299 . S
N493 C490 1.367 . S
N493 C491 1.379 . S
C494 N496 1.298 . S
C494 N498 1.367 . S
C494 C502 1.481 . S
C495 N497 1.299 . S
C495 N498 1.379 . S
N496 Zn480 2.036 . S
N496 C494 1.298 . S
N496 N497 1.398 . S
N497 C495 1.299 . S
N497 N496 1.398 . S
N498 C494 1.367 . S
N498 C495 1.379 . S
H499 C502 0.980 . S
H500 C502 0.981 . S
H501 C502 0.981 . S
C502 C494 1.481 . S
C502 H499 0.980 . S
C502 H500 0.981 . S
C502 H501 0.981 . S
C503 C490 1.481 . S
C503 H504 0.980 . S
C503 H505 0.981 . S
C503 H506 0.981 . S
H504 C503 0.980 . S
H505 C503 0.981 . S
H506 C503 0.981 . S
O507 Zn483 2.066 . S
O507 C486 1.256 . S
O508 Zn480 2.053 . S
O508 C486 1.244 . S
C509 O487 1.259 . S
C509 O488 1.254 . S
O510 Zn480 2.066 . S
O510 C482 1.256 . S
O511 C482 1.244 . S
O511 Zn483 2.053 . S
Zn512 O513 2.055 . S
Zn512 O520 2.046 1_554 S
Zn512 N528 2.036 . S
Zn512 O540 2.053 . S
Zn512 O542 2.066 . S
O513 Zn512 2.055 . S
O513 C516 1.259 . S
C514 O542 1.256 . S
C514 O543 1.244 . S
Zn515 O517 2.046 . S
Zn515 O519 2.055 1_554 S
Zn515 N521 2.036 . S
Zn515 O539 2.066 . S
Zn515 O543 2.053 . S
C516 O513 1.259 . S
C516 O517 1.254 . S
O517 Zn515 2.046 . S
O517 C516 1.254 . S
C518 O539 1.264 . S
C518 O540 1.282 . S
O519 Zn515 2.055 1_556 S
O519 C541 1.259 . S
O520 Zn512 2.046 1_556 S
O520 C541 1.254 . S
N521 Zn515 2.036 . S
N521 C522 1.298 . S
N521 N524 1.398 . S
C522 N521 1.298 . S
C522 N525 1.367 . S
C522 C535 1.481 1_554 S
C523 N524 1.299 . S
C523 N525 1.379 . S
N524 N521 1.398 . S
N524 C523 1.299 . S
N525 C522 1.367 . S
N525 C523 1.379 . S
C526 N528 1.298 . S
C526 N530 1.367 . S
C526 C534 1.481 . S
C527 N529 1.289 . S
C527 N530 1.406 . S
N528 Zn512 2.036 . S
N528 C526 1.298 . S
N528 N529 1.398 . S
N529 C527 1.289 . S
N529 N528 1.398 . S
N530 C526 1.367 . S
N530 C527 1.406 . S
H531 C534 0.980 . S
H532 C534 0.981 . S
H533 C534 0.981 . S
C534 C526 1.481 . S
C534 H531 0.980 . S
C534 H532 0.981 . S
C534 H533 0.981 . S
C535 C522 1.481 1_556 S
C535 H536 0.980 . S
C535 H537 0.981 . S
C535 H538 0.981 . S
H536 C535 0.980 . S
H537 C535 0.981 . S
H538 C535 0.981 . S
O539 Zn515 2.066 . S
O539 C518 1.264 . S
O540 Zn512 2.053 . S
O540 C518 1.282 . S
C541 O519 1.259 . S
C541 O520 1.254 . S
O542 Zn512 2.066 . S
O542 C514 1.256 . S
O543 C514 1.244 . S
O543 Zn515 2.053 . S
Zn544 O545 2.055 . S
Zn544 O552 2.046 . S
Zn544 N560 2.036 . S
Zn544 O572 2.053 . S
Zn544 O574 2.066 . S
O545 Zn544 2.055 . S
O545 C548 1.259 . S
C546 O574 1.256 . S
C546 O575 1.244 . S
Zn547 O549 2.046 . S
Zn547 O551 2.055 . S
Zn547 N553 2.036 . S
Zn547 O571 2.066 . S
Zn547 O575 2.053 . S
C548 O545 1.259 . S
C548 O549 1.254 . S
O549 Zn547 2.046 . S
O549 C548 1.254 . S
C550 O571 1.256 . S
C550 O572 1.244 . S
O551 Zn547 2.055 . S
O551 C573 1.259 . S
O552 Zn544 2.046 . S
O552 C573 1.254 . S
N553 Zn547 2.036 . S
N553 C554 1.298 . S
N553 N556 1.398 . S
C554 N553 1.298 . S
C554 N557 1.367 . S
C554 C567 1.481 . S
C555 N556 1.299 . S
C555 N557 1.379 . S
N556 N553 1.398 . S
N556 C555 1.299 . S
N557 C554 1.367 . S
N557 C555 1.379 . S
C558 N560 1.298 . S
C558 N562 1.367 . S
C558 C566 1.481 . S
C559 N561 1.299 . S
C559 N562 1.379 . S
N560 Zn544 2.036 . S
N560 C558 1.298 . S
N560 N561 1.398 . S
N561 C559 1.299 . S
N561 N560 1.398 . S
N562 C558 1.367 . S
N562 C559 1.379 . S
H563 C566 0.980 . S
H564 C566 0.981 . S
H565 C566 0.981 . S
C566 C558 1.481 . S
C566 H563 0.980 . S
C566 H564 0.981 . S
C566 H565 0.981 . S
C567 C554 1.481 . S
C567 H568 0.980 . S
C567 H569 0.981 . S
C567 H570 0.981 . S
H568 C567 0.980 . S
H569 C567 0.981 . S
H570 C567 0.981 . S
O571 Zn547 2.066 . S
O571 C550 1.256 . S
O572 Zn544 2.053 . S
O572 C550 1.244 . S
C573 O551 1.259 . S
C573 O552 1.254 . S
O574 Zn544 2.066 . S
O574 C546 1.256 . S
O575 C546 1.244 . S
O575 Zn547 2.053 . S
H576 C582 0.930 . S
H577 C586 0.930 . S
H578 C591 0.929 . S
H579 C589 0.929 . S
H580 C584 0.929 . S
H581 C590 0.929 . S
C582 H576 0.930 . S
C582 C583 1.367 . S
C582 C590 1.378 . S
C583 C582 1.367 . S
C583 C591 1.433 . S
C584 H580 0.929 . S
C584 C586 1.378 . S
C584 C588 1.350 . S
C585 C588 1.463 . S
C585 C590 1.350 . S
C585 N593 1.427 . S
C586 H577 0.930 . S
C586 C584 1.378 . S
C586 C587 1.367 . S
C587 C586 1.367 . S
C587 C589 1.433 . S
C588 C584 1.350 . S
C588 C585 1.463 . S
C588 N592 1.427 . S
C589 H579 0.929 . S
C589 C587 1.433 . S
C589 N592 1.384 . S
C590 H581 0.929 . S
C590 C582 1.378 . S
C590 C585 1.350 . S
C591 H578 0.929 . S
C591 C583 1.433 . S
C591 N593 1.384 . S
N592 C588 1.427 . S
N592 C589 1.384 . S
N593 C585 1.427 . S
N593 C591 1.384 . S
H594 C600 0.930 . S
H595 C604 0.930 . S
H596 C609 0.929 . S
H597 C607 0.929 . S
H598 C602 0.929 . S
H599 C608 0.929 . S
C600 H594 0.930 . S
C600 C601 1.367 . S
C600 C608 1.378 . S
C601 C600 1.367 . S
C601 C609 1.433 . S
C602 H598 0.929 . S
C602 C604 1.378 . S
C602 C606 1.350 . S
C603 C606 1.463 . S
C603 C608 1.350 . S
C603 N611 1.427 . S
C604 H595 0.930 . S
C604 C602 1.378 . S
C604 C605 1.367 . S
C605 C604 1.367 . S
C605 C607 1.433 . S
C606 C602 1.350 . S
C606 C603 1.463 . S
C606 N610 1.427 . S
C607 H597 0.929 . S
C607 C605 1.433 . S
C607 N610 1.384 . S
C608 H599 0.929 . S
C608 C600 1.378 . S
C608 C603 1.350 . S
C609 H596 0.929 . S
C609 C601 1.433 . S
C609 N611 1.384 . S
N610 C606 1.427 . S
N610 C607 1.384 . S
N611 C603 1.427 . S
N611 C609 1.384 . S
H612 C618 0.930 . S
H613 C622 0.930 . S
H614 C627 0.929 . S
H615 C625 0.929 . S
H616 C620 0.929 . S
H617 C626 0.929 . S
C618 H612 0.930 . S
C618 C619 1.367 . S
C618 C626 1.378 . S
C619 C618 1.367 . S
C619 C627 1.433 . S
C620 H616 0.929 . S
C620 C622 1.378 . S
C620 C624 1.350 . S
C621 C624 1.463 . S
C621 C626 1.350 . S
C621 N629 1.427 . S
C622 H613 0.930 . S
C622 C620 1.378 . S
C622 C623 1.367 . S
C623 C622 1.367 . S
C623 C625 1.433 . S
C624 C620 1.350 . S
C624 C621 1.463 . S
C624 N628 1.427 . S
C625 H615 0.929 . S
C625 C623 1.433 . S
C625 N628 1.384 . S
C626 H617 0.929 . S
C626 C618 1.378 . S
C626 C621 1.350 . S
C627 H614 0.929 . S
C627 C619 1.433 . S
C627 N629 1.384 . S
N628 C624 1.427 . S
N628 C625 1.384 . S
N629 C621 1.427 . S
N629 C627 1.384 . S
H630 C636 0.930 . S
H631 C640 0.930 . S
H632 C645 0.929 . S
H633 C643 0.929 . S
H634 C638 0.929 . S
H635 C644 0.929 . S
C636 H630 0.930 . S
C636 C637 1.367 . S
C636 C644 1.378 . S
C637 C636 1.367 . S
C637 C645 1.433 . S
C638 H634 0.929 . S
C638 C640 1.378 . S
C638 C642 1.350 . S
C639 C642 1.463 . S
C639 C644 1.350 . S
C639 N647 1.427 . S
C640 H631 0.930 . S
C640 C638 1.378 . S
C640 C641 1.367 . S
C641 C640 1.367 . S
C641 C643 1.433 . S
C642 C638 1.350 . S
C642 C639 1.463 . S
C642 N646 1.427 . S
C643 H633 0.929 . S
C643 C641 1.433 . S
C643 N646 1.384 . S
C644 H635 0.929 . S
C644 C636 1.378 . S
C644 C639 1.350 . S
C645 H632 0.929 . S
C645 C637 1.433 . S
C645 N647 1.384 . S
N646 C642 1.427 . S
N646 C643 1.384 . S
N647 C639 1.427 . S
N647 C645 1.384 . S
H648 C654 0.930 . S
H649 C658 0.930 . S
H650 C663 0.929 . S
H651 C661 0.929 . S
H652 C656 0.929 . S
H653 C662 0.929 . S
C654 H648 0.930 . S
C654 C655 1.367 . S
C654 C662 1.378 . S
C655 C654 1.367 . S
C655 C663 1.433 . S
C656 H652 0.929 . S
C656 C658 1.378 . S
C656 C660 1.350 . S
C657 C660 1.463 . S
C657 C662 1.350 . S
C657 N665 1.427 . S
C658 H649 0.930 . S
C658 C656 1.378 . S
C658 C659 1.367 . S
C659 C658 1.367 . S
C659 C661 1.433 . S
C660 C656 1.350 . S
C660 C657 1.463 . S
C660 N664 1.427 . S
C661 H651 0.929 . S
C661 C659 1.433 . S
C661 N664 1.384 . S
C662 H653 0.929 . S
C662 C654 1.378 . S
C662 C657 1.350 . S
C663 H650 0.929 . S
C663 C655 1.433 . S
C663 N665 1.384 . S
N664 C660 1.427 . S
N664 C661 1.384 . S
N665 C657 1.427 . S
N665 C663 1.384 . S
H666 C672 0.930 . S
H667 C676 0.930 . S
H668 C681 0.929 . S
H669 C679 0.929 . S
H670 C674 0.929 . S
H671 C680 0.929 . S
C672 H666 0.930 . S
C672 C673 1.367 . S
C672 C680 1.378 . S
C673 C672 1.367 . S
C673 C681 1.433 . S
C674 H670 0.929 . S
C674 C676 1.378 . S
C674 C678 1.350 . S
C675 C678 1.463 . S
C675 C680 1.350 . S
C675 N683 1.427 . S
C676 H667 0.930 . S
C676 C674 1.378 . S
C676 C677 1.367 . S
C677 C676 1.367 . S
C677 C679 1.433 . S
C678 C674 1.350 . S
C678 C675 1.463 . S
C678 N682 1.427 . S
C679 H669 0.929 . S
C679 C677 1.433 . S
C679 N682 1.384 . S
C680 H671 0.929 . S
C680 C672 1.378 . S
C680 C675 1.350 . S
C681 H668 0.929 . S
C681 C673 1.433 . S
C681 N683 1.384 . S
N682 C678 1.427 . S
N682 C679 1.384 . S
N683 C675 1.427 . S
N683 C681 1.384 . S
H684 C690 0.930 . S
H685 C694 0.930 . S
H686 C699 0.929 . S
H687 C697 0.929 . S
H688 C692 0.929 . S
H689 C698 0.929 . S
C690 H684 0.930 . S
C690 C691 1.367 . S
C690 C698 1.378 . S
C691 C690 1.367 . S
C691 C699 1.433 . S
C692 H688 0.929 . S
C692 C694 1.378 . S
C692 C696 1.350 . S
C693 C696 1.463 . S
C693 C698 1.350 1_655 S
C693 N701 1.427 . S
C694 H685 0.930 . S
C694 C692 1.378 . S
C694 C695 1.367 . S
C695 C694 1.367 . S
C695 C697 1.433 . S
C696 C692 1.350 . S
C696 C693 1.463 . S
C696 N700 1.427 . S
C697 H687 0.929 . S
C697 C695 1.433 . S
C697 N700 1.384 . S
C698 H689 0.929 . S
C698 C690 1.378 . S
C698 C693 1.350 1_455 S
C699 H686 0.929 . S
C699 C691 1.433 . S
C699 N701 1.384 1_455 S
N700 C696 1.427 . S
N700 C697 1.384 . S
N701 C693 1.427 . S
N701 C699 1.384 1_655 S
H702 C708 0.930 . S
H703 C712 0.930 . S
H704 C717 0.929 . S
H705 C715 0.929 . S
H706 C710 0.929 . S
H707 C716 0.929 . S
C708 H702 0.930 . S
C708 C709 1.367 . S
C708 C716 1.378 . S
C709 C708 1.367 . S
C709 C717 1.433 . S
C710 H706 0.929 . S
C710 C712 1.378 . S
C710 C714 1.350 . S
C711 C714 1.463 . S
C711 C716 1.350 . S
C711 N719 1.427 . S
C712 H703 0.930 . S
C712 C710 1.378 . S
C712 C713 1.367 . S
C713 C712 1.367 . S
C713 C715 1.433 . S
C714 C710 1.350 . S
C714 C711 1.463 . S
C714 N718 1.427 . S
C715 H705 0.929 . S
C715 C713 1.433 . S
C715 N718 1.384 . S
C716 H707 0.929 . S
C716 C708 1.378 . S
C716 C711 1.350 . S
C717 H704 0.929 . S
C717 C709 1.433 . S
C717 N719 1.384 . S
N718 C714 1.427 . S
N718 C715 1.384 . S
N719 C711 1.427 . S
N719 C717 1.384 . S
H720 C726 0.930 . S
H721 C730 0.930 . S
H722 C735 0.929 . S
H723 C733 0.929 . S
H724 C728 0.929 . S
H725 C734 0.929 . S
C726 H720 0.930 . S
C726 C727 1.367 . S
C726 C734 1.378 . S
C727 C726 1.367 . S
C727 C735 1.433 . S
C728 H724 0.929 . S
C728 C730 1.378 . S
C728 C732 1.350 . S
C729 C732 1.463 . S
C729 C734 1.350 . S
C729 N737 1.427 . S
C730 H721 0.930 . S
C730 C728 1.378 . S
C730 C731 1.367 . S
C731 C730 1.367 . S
C731 C733 1.433 . S
C732 C728 1.350 . S
C732 C729 1.463 . S
C732 N736 1.427 . S
C733 H723 0.929 . S
C733 C731 1.433 . S
C733 N736 1.384 . S
C734 H725 0.929 . S
C734 C726 1.378 . S
C734 C729 1.350 . S
C735 H722 0.929 . S
C735 C727 1.433 . S
C735 N737 1.384 . S
N736 C732 1.427 . S
N736 C733 1.384 . S
N737 C729 1.427 . S
N737 C735 1.384 . S
H738 C744 0.930 . S
H739 C748 0.930 1_565 S
H740 C753 0.929 . S
H741 C751 0.929 . S
H742 C746 0.929 . S
H743 C752 0.929 . S
C744 H738 0.930 . S
C744 C745 1.367 1_545 S
C744 C752 1.378 . S
C745 C744 1.367 1_565 S
C745 C753 1.433 . S
C746 H742 0.929 . S
C746 C748 1.378 1_565 S
C746 C750 1.350 1_565 S
C747 C750 1.467 1_565 S
C747 C752 1.332 1_565 S
C747 N755 1.443 . S
C748 H739 0.930 1_545 S
C748 C746 1.378 1_545 S
C748 C749 1.367 . S
C749 C748 1.367 . S
C749 C751 1.433 . S
C750 C746 1.350 1_545 S
C750 C747 1.467 1_545 S
C750 N754 1.427 . S
C751 H741 0.929 . S
C751 C749 1.433 . S
C751 N754 1.384 . S
C752 H743 0.929 . S
C752 C744 1.378 . S
C752 C747 1.332 1_545 S
C753 H740 0.929 . S
C753 C745 1.433 . S
C753 N755 1.384 . S
N754 C750 1.427 . S
N754 C751 1.384 . S
N755 C747 1.443 . S
N755 C753 1.384 . S
H756 C762 0.930 . S
H757 C766 0.930 . S
H758 C771 0.929 . S
H759 C769 0.929 . S
H760 C764 0.929 . S
H761 C770 0.929 . S
C762 H756 0.930 . S
C762 C763 1.367 . S
C762 C770 1.378 . S
C763 C762 1.367 . S
C763 C771 1.433 . S
C764 H760 0.929 . S
C764 C766 1.378 . S
C764 C768 1.350 . S
C765 C768 1.463 . S
C765 C770 1.350 . S
C765 N773 1.427 . S
C766 H757 0.930 . S
C766 C764 1.378 . S
C766 C767 1.367 . S
C767 C766 1.367 . S
C767 C769 1.433 . S
C768 C764 1.350 . S
C768 C765 1.463 . S
C768 N772 1.427 . S
C769 H759 0.929 . S
C769 C767 1.433 . S
C769 N772 1.384 . S
C770 H761 0.929 . S
C770 C762 1.378 . S
C770 C765 1.350 . S
C771 H758 0.929 . S
C771 C763 1.433 . S
C771 N773 1.384 . S
N772 C768 1.427 . S
N772 C769 1.384 . S
N773 C765 1.427 . S
N773 C771 1.384 . S
H774 C780 0.930 . S
H775 C784 0.930 . S
H776 C789 0.929 . S
H777 C787 0.929 . S
H778 C782 0.929 . S
H779 C788 0.929 . S
C780 H774 0.930 . S
C780 C781 1.367 . S
C780 C788 1.378 . S
C781 C780 1.367 . S
C781 C789 1.433 . S
C782 H778 0.929 . S
C782 C784 1.378 . S
C782 C786 1.350 . S
C783 C786 1.463 . S
C783 C788 1.350 . S
C783 N791 1.427 . S
C784 H775 0.930 . S
C784 C782 1.378 . S
C784 C785 1.367 . S
C785 C784 1.367 . S
C785 C787 1.433 . S
C786 C782 1.350 . S
C786 C783 1.463 . S
C786 N790 1.427 . S
C787 H777 0.929 . S
C787 C785 1.433 . S
C787 N790 1.384 . S
C788 H779 0.929 . S
C788 C780 1.378 . S
C788 C783 1.350 . S
C789 H776 0.929 . S
C789 C781 1.433 . S
C789 N791 1.384 . S
N790 C786 1.427 . S
N790 C787 1.384 . S
N791 C783 1.427 . S
N791 C789 1.384 . S
H792 C798 0.930 . S
H793 C802 0.930 . S
H794 C807 0.929 . S
H795 C805 0.929 . S
H796 C800 0.929 1_556 S
H797 C806 0.929 . S
C798 H792 0.930 . S
C798 C799 1.367 1_554 S
C798 C806 1.378 . S
C799 C798 1.367 1_556 S
C799 C807 1.433 . S
C800 H796 0.929 1_554 S
C800 C802 1.378 . S
C800 C804 1.350 . S
C801 C804 1.463 1_655 S
C801 C806 1.350 . S
C801 N809 1.427 1_554 S
C802 H793 0.930 . S
C802 C800 1.378 . S
C802 C803 1.367 . S
C803 C802 1.367 . S
C803 C805 1.433 . S
C804 C800 1.350 . S
C804 C801 1.463 1_455 S
C804 N808 1.427 . S
C805 H795 0.929 . S
C805 C803 1.433 . S
C805 N808 1.384 . S
C806 H797 0.929 . S
C806 C798 1.378 . S
C806 C801 1.350 . S
C807 H794 0.929 . S
C807 C799 1.433 . S
C807 N809 1.384 . S
N808 C804 1.427 . S
N808 C805 1.384 . S
N809 C801 1.427 1_556 S
N809 C807 1.384 . S
H810 C816 0.930 . S
H811 C820 0.930 . S
H812 C825 0.929 . S
H813 C823 0.929 . S
H814 C818 0.929 . S
H815 C824 0.929 . S
C816 H810 0.930 . S
C816 C817 1.367 . S
C816 C824 1.378 . S
C817 C816 1.367 . S
C817 C825 1.433 1_556 S
C818 H814 0.929 . S
C818 C820 1.378 . S
C818 C822 1.350 . S
C819 C822 1.463 1_556 S
C819 C824 1.350 . S
C819 N827 1.427 1_556 S
C820 H811 0.930 . S
C820 C818 1.378 . S
C820 C821 1.367 . S
C821 C820 1.367 . S
C821 C823 1.433 1_554 S
C822 C818 1.350 . S
C822 C819 1.463 1_554 S
C822 N826 1.427 1_554 S
C823 H813 0.929 . S
C823 C821 1.433 1_556 S
C823 N826 1.384 . S
C824 H815 0.929 . S
C824 C816 1.378 . S
C824 C819 1.350 . S
C825 H812 0.929 . S
C825 C817 1.433 1_554 S
C825 N827 1.384 . S
N826 C822 1.427 1_556 S
N826 C823 1.384 . S
N827 C819 1.427 1_554 S
N827 C825 1.384 . S
H828 C834 0.930 . S
H829 C838 0.930 . S
H830 C843 0.929 . S
H831 C841 0.929 . S
H832 C836 0.929 . S
H833 C842 0.929 . S
C834 H828 0.930 . S
C834 C835 1.367 . S
C834 C842 1.378 . S
C835 C834 1.367 . S
C835 C843 1.433 1_556 S
C836 H832 0.929 . S
C836 C838 1.378 . S
C836 C840 1.350 . S
C837 C840 1.463 1_556 S
C837 C842 1.350 . S
C837 N845 1.427 1_556 S
C838 H829 0.930 . S
C838 C836 1.378 . S
C838 C839 1.367 . S
C839 C838 1.367 . S
C839 C841 1.433 1_554 S
C840 C836 1.350 . S
C840 C837 1.463 1_554 S
C840 N844 1.427 1_554 S
C841 H831 0.929 . S
C841 C839 1.433 1_556 S
C841 N844 1.384 . S
C842 H833 0.929 . S
C842 C834 1.378 . S
C842 C837 1.350 . S
C843 H830 0.929 . S
C843 C835 1.433 1_554 S
C843 N845 1.384 . S
N844 C840 1.427 1_556 S
N844 C841 1.384 . S
N845 C837 1.427 1_554 S
N845 C843 1.384 . S
H846 C852 0.930 . S
H847 C856 0.930 . S
H848 C861 0.929 . S
H849 C859 0.929 . S
H850 C854 0.929 . S
H851 C860 0.929 . S
C852 H846 0.930 . S
C852 C853 1.367 1_554 S
C852 C860 1.378 . S
C853 C852 1.367 1_556 S
C853 C861 1.433 . S
C854 H850 0.929 . S
C854 C856 1.378 . S
C854 C858 1.350 1_556 S
C855 C858 1.463 1_556 S
C855 C860 1.350 1_556 S
C855 N863 1.427 . S
C856 H847 0.930 . S
C856 C854 1.378 . S
C856 C857 1.367 1_556 S
C857 C856 1.367 1_554 S
C857 C859 1.433 . S
C858 C854 1.350 1_554 S
C858 C855 1.463 1_554 S
C858 N862 1.427 . S
C859 H849 0.929 . S
C859 C857 1.433 . S
C859 N862 1.384 . S
C860 H851 0.929 . S
C860 C852 1.378 . S
C860 C855 1.350 1_554 S
C861 H848 0.929 . S
C861 C853 1.433 . S
C861 N863 1.384 . S
N862 C858 1.427 . S
N862 C859 1.384 . S
N863 C855 1.427 . S
N863 C861 1.384 . S
H864 C870 0.930 . S
H865 C874 0.930 . S
H866 C879 0.929 . S
H867 C877 0.929 . S
H868 C872 0.929 . S
H869 C878 0.929 . S
C870 H864 0.930 . S
C870 C871 1.367 . S
C870 C878 1.378 . S
C871 C870 1.367 . S
C871 C879 1.433 1_554 S
C872 H868 0.929 . S
C872 C874 1.378 . S
C872 C876 1.350 1_556 S
C873 C876 1.463 1_455 S
C873 C878 1.350 . S
C873 N881 1.427 1_554 S
C874 H865 0.930 . S
C874 C872 1.378 . S
C874 C875 1.367 . S
C875 C874 1.367 . S
C875 C877 1.433 1_556 S
C876 C872 1.350 1_554 S
C876 C873 1.463 1_655 S
C876 N880 1.427 . S
C877 H867 0.929 . S
C877 C875 1.433 1_554 S
C877 N880 1.384 . S
C878 H869 0.929 . S
C878 C870 1.378 . S
C878 C873 1.350 . S
C879 H866 0.929 . S
C879 C871 1.433 1_556 S
C879 N881 1.384 . S
N880 C876 1.427 . S
N880 C877 1.384 . S
N881 C873 1.427 1_556 S
N881 C879 1.384 . S
H882 C888 0.930 . S
H883 C892 0.930 . S
H884 C897 0.929 . S
H885 C895 0.929 . S
H886 C890 0.929 . S
H887 C896 0.929 . S
C888 H882 0.930 . S
C888 C889 1.367 . S
C888 C896 1.378 . S
C889 C888 1.367 . S
C889 C897 1.433 . S
C890 H886 0.929 . S
C890 C892 1.378 . S
C890 C894 1.350 . S
C891 C894 1.463 1_554 S
C891 C896 1.350 . S
C891 N899 1.427 . S
C892 H883 0.930 . S
C892 C890 1.378 . S
C892 C893 1.367 . S
C893 C892 1.367 . S
C893 C895 1.433 . S
C894 C890 1.350 . S
C894 C891 1.463 1_556 S
C894 N898 1.427 . S
C895 H885 0.929 . S
C895 C893 1.433 . S
C895 N898 1.384 . S
C896 H887 0.929 . S
C896 C888 1.378 . S
C896 C891 1.350 . S
C897 H884 0.929 . S
C897 C889 1.433 . S
C897 N899 1.384 . S
N898 C894 1.427 . S
N898 C895 1.384 . S
N899 C891 1.427 . S
N899 C897 1.384 . S
H900 C906 0.930 . S
H901 C910 0.930 . S
H902 C915 0.929 . S
H903 C913 0.929 . S
H904 C908 0.929 . S
H905 C914 0.929 . S
C906 H900 0.930 . S
C906 C907 1.367 . S
C906 C914 1.378 . S
C907 C906 1.367 . S
C907 C915 1.433 . S
C908 H904 0.929 . S
C908 C910 1.378 . S
C908 C912 1.350 . S
C909 C912 1.463 . S
C909 C914 1.350 . S
C909 N917 1.427 . S
C910 H901 0.930 . S
C910 C908 1.378 . S
C910 C911 1.367 . S
C911 C910 1.367 . S
C911 C913 1.433 . S
C912 C908 1.350 . S
C912 C909 1.463 . S
C912 N916 1.427 . S
C913 H903 0.929 . S
C913 C911 1.433 . S
C913 N916 1.384 . S
C914 H905 0.929 . S
C914 C906 1.378 . S
C914 C909 1.350 . S
C915 H902 0.929 . S
C915 C907 1.433 . S
C915 N917 1.384 . S
N916 C912 1.427 . S
N916 C913 1.384 . S
N917 C909 1.427 . S
N917 C915 1.384 . S
H918 C924 0.930 . S
H919 C928 0.930 . S
H920 C933 0.929 . S
H921 C931 0.929 . S
H922 C926 0.929 . S
H923 C932 0.929 . S
C924 H918 0.930 . S
C924 C925 1.367 . S
C924 C932 1.378 . S
C925 C924 1.367 . S
C925 C933 1.433 . S
C926 H922 0.929 . S
C926 C928 1.378 . S
C926 C930 1.378 . S
C927 C930 1.402 1_545 S
C927 C932 1.350 . S
C927 N935 1.427 . S
C928 H919 0.930 . S
C928 C926 1.378 . S
C928 C929 1.367 . S
C929 C928 1.367 . S
C929 C931 1.433 . S
C930 C926 1.378 . S
C930 C927 1.402 1_565 S
C930 N934 1.459 . S
C931 H921 0.929 . S
C931 C929 1.433 . S
C931 N934 1.384 . S
C932 H923 0.929 . S
C932 C924 1.378 . S
C932 C927 1.350 . S
C933 H920 0.929 . S
C933 C925 1.433 . S
C933 N935 1.384 . S
N934 C930 1.459 . S
N934 C931 1.384 . S
N935 C927 1.427 . S
N935 C933 1.384 . S
H936 C942 0.930 . S
H937 C946 0.930 . S
H938 C951 0.929 . S
H939 C949 0.929 . S
H940 C944 0.929 . S
H941 C950 0.929 . S
C942 H936 0.930 . S
C942 C943 1.367 . S
C942 C950 1.378 . S
C943 C942 1.367 . S
C943 C951 1.433 . S
C944 H940 0.929 . S
C944 C946 1.378 . S
C944 C948 1.350 . S
C945 C948 1.463 1_565 S
C945 C950 1.350 . S
C945 N953 1.427 . S
C946 H937 0.930 . S
C946 C944 1.378 . S
C946 C947 1.367 . S
C947 C946 1.367 . S
C947 C949 1.433 . S
C948 C944 1.350 . S
C948 C945 1.463 1_545 S
C948 N952 1.427 . S
C949 H939 0.929 . S
C949 C947 1.433 . S
C949 N952 1.384 . S
C950 H941 0.929 . S
C950 C942 1.378 . S
C950 C945 1.350 . S
C951 H938 0.929 . S
C951 C943 1.433 . S
C951 N953 1.384 . S
N952 C948 1.427 . S
N952 C949 1.384 . S
N953 C945 1.427 . S
N953 C951 1.384 . S
H954 C960 0.930 . S
H955 C964 0.930 . S
H956 C969 0.929 . S
H957 C967 0.929 . S
H958 C962 0.929 . S
H959 C968 0.929 . S
C960 H954 0.930 . S
C960 C961 1.367 . S
C960 C968 1.378 . S
C961 C960 1.367 . S
C961 C969 1.433 . S
C962 H958 0.929 . S
C962 C964 1.378 . S
C962 C966 1.350 . S
C963 C966 1.463 . S
C963 C968 1.350 . S
C963 N971 1.427 . S
C964 H955 0.930 . S
C964 C962 1.378 . S
C964 C965 1.367 . S
C965 C964 1.367 . S
C965 C967 1.433 . S
C966 C962 1.350 . S
C966 C963 1.463 . S
C966 N970 1.427 . S
C967 H957 0.929 . S
C967 C965 1.433 . S
C967 N970 1.384 . S
C968 H959 0.929 . S
C968 C960 1.378 . S
C968 C963 1.350 . S
C969 H956 0.929 . S
C969 C961 1.433 . S
C969 N971 1.384 . S
N970 C966 1.427 . S
N970 C967 1.384 . S
N971 C963 1.427 . S
N971 C969 1.384 . S
H972 C978 0.930 . S
H973 C982 0.930 . S
H974 C987 0.929 . S
H975 C985 0.929 . S
H976 C980 0.929 . S
H977 C986 0.929 . S
C978 H972 0.930 . S
C978 C979 1.367 . S
C978 C986 1.378 . S
C979 C978 1.367 . S
C979 C987 1.433 . S
C980 H976 0.929 . S
C980 C982 1.378 1_655 S
C980 C984 1.350 . S
C981 C984 1.463 . S
C981 C986 1.350 . S
C981 N989 1.427 . S
C982 H973 0.930 . S
C982 C980 1.378 1_455 S
C982 C983 1.367 . S
C983 C982 1.367 . S
C983 C985 1.433 1_455 S
C984 C980 1.350 . S
C984 C981 1.463 . S
C984 N988 1.427 . S
C985 H975 0.929 . S
C985 C983 1.433 1_655 S
C985 N988 1.384 . S
C986 H977 0.929 . S
C986 C978 1.378 . S
C986 C981 1.350 . S
C987 H974 0.929 . S
C987 C979 1.433 . S
C987 N989 1.384 . S
N988 C984 1.427 . S
N988 C985 1.384 . S
N989 C981 1.427 . S
N989 C987 1.384 . S
H990 C996 0.930 1_455 S
H991 C1000 0.930 . S
H992 C1005 0.929 . S
H993 C1003 0.929 . S
H994 C998 0.929 . S
H995 C1004 0.929 . S
C996 H990 0.930 1_655 S
C996 C997 1.367 . S
C996 C1004 1.378 . S
C997 C996 1.367 . S
C997 C1005 1.433 . S
C998 H994 0.929 . S
C998 C1000 1.378 . S
C998 C1002 1.350 . S
C999 C1002 1.463 . S
C999 C1004 1.350 . S
C999 N1007 1.427 . S
C1000 H991 0.930 . S
C1000 C998 1.378 . S
C1000 C1001 1.367 . S
C1001 C1000 1.367 . S
C1001 C1003 1.433 . S
C1002 C998 1.350 . S
C1002 C999 1.463 . S
C1002 N1006 1.427 . S
C1003 H993 0.929 . S
C1003 C1001 1.433 . S
C1003 N1006 1.384 . S
C1004 H995 0.929 . S
C1004 C996 1.378 . S
C1004 C999 1.350 . S
C1005 H992 0.929 . S
C1005 C997 1.433 . S
C1005 N1007 1.384 . S
N1006 C1002 1.427 . S
N1006 C1003 1.384 . S
N1007 C999 1.427 . S
N1007 C1005 1.384 . S
H1008 C1014 0.930 . S
H1009 C1018 0.930 . S
H1010 C1023 0.929 . S
H1011 C1021 0.929 . S
H1012 C1016 0.929 . S
H1013 C1022 0.929 . S
C1014 H1008 0.930 . S
C1014 C1015 1.367 . S
C1014 C1022 1.378 . S
C1015 C1014 1.367 . S
C1015 C1023 1.433 . S
C1016 H1012 0.929 . S
C1016 C1018 1.378 . S
C1016 C1020 1.350 . S
C1017 C1020 1.463 . S
C1017 C1022 1.350 . S
C1017 N1025 1.427 . S
C1018 H1009 0.930 . S
C1018 C1016 1.378 . S
C1018 C1019 1.367 . S
C1019 C1018 1.367 . S
C1019 C1021 1.433 . S
C1020 C1016 1.350 . S
C1020 C1017 1.463 . S
C1020 N1024 1.427 . S
C1021 H1011 0.929 . S
C1021 C1019 1.433 . S
C1021 N1024 1.384 . S
C1022 H1013 0.929 . S
C1022 C1014 1.378 . S
C1022 C1017 1.350 . S
C1023 H1010 0.929 . S
C1023 C1015 1.433 . S
C1023 N1025 1.384 . S
N1024 C1020 1.427 . S
N1024 C1021 1.384 . S
N1025 C1017 1.427 . S
N1025 C1023 1.384 . S
H1026 C1032 0.930 . S
H1027 C1036 0.930 . S
H1028 C1041 0.929 . S
H1029 C1039 0.929 . S
H1030 C1034 0.929 . S
H1031 C1040 0.929 . S
C1032 H1026 0.930 . S
C1032 C1033 1.367 . S
C1032 C1040 1.378 . S
C1033 C1032 1.367 . S
C1033 C1041 1.433 . S
C1034 H1030 0.929 . S
C1034 C1036 1.378 . S
C1034 C1038 1.350 . S
C1035 C1038 1.463 . S
C1035 C1040 1.350 . S
C1035 N1043 1.427 . S
C1036 H1027 0.930 . S
C1036 C1034 1.378 . S
C1036 C1037 1.367 . S
C1037 C1036 1.367 . S
C1037 C1039 1.433 . S
C1038 C1034 1.350 . S
C1038 C1035 1.463 . S
C1038 N1042 1.427 . S
C1039 H1029 0.929 . S
C1039 C1037 1.433 . S
C1039 N1042 1.384 . S
C1040 H1031 0.929 . S
C1040 C1032 1.378 . S
C1040 C1035 1.350 . S
C1041 H1028 0.929 . S
C1041 C1033 1.433 . S
C1041 N1043 1.384 . S
N1042 C1038 1.427 . S
N1042 C1039 1.384 . S
N1043 C1035 1.427 . S
N1043 C1041 1.384 . S
H1044 C1050 0.930 . S
H1045 C1054 0.930 . S
H1046 C1059 0.929 . S
H1047 C1057 0.929 . S
H1048 C1052 0.929 . S
H1049 C1058 0.929 . S
C1050 H1044 0.930 . S
C1050 C1051 1.367 . S
C1050 C1058 1.378 . S
C1051 C1050 1.367 . S
C1051 C1059 1.433 . S
C1052 H1048 0.929 . S
C1052 C1054 1.378 . S
C1052 C1056 1.350 . S
C1053 C1056 1.463 . S
C1053 C1058 1.350 . S
C1053 N1061 1.427 . S
C1054 H1045 0.930 . S
C1054 C1052 1.378 . S
C1054 C1055 1.367 . S
C1055 C1054 1.367 . S
C1055 C1057 1.433 . S
C1056 C1052 1.350 . S
C1056 C1053 1.463 . S
C1056 N1060 1.427 . S
C1057 H1047 0.929 . S
C1057 C1055 1.433 . S
C1057 N1060 1.384 . S
C1058 H1049 0.929 . S
C1058 C1050 1.378 . S
C1058 C1053 1.350 . S
C1059 H1046 0.929 . S
C1059 C1051 1.433 . S
C1059 N1061 1.384 . S
N1060 C1056 1.427 . S
N1060 C1057 1.384 . S
N1061 C1053 1.427 . S
N1061 C1059 1.384 . S
H1062 C1068 0.930 1_554 S
H1063 C1072 0.930 . S
H1064 C1077 0.929 . S
H1065 C1075 0.929 1_554 S
H1066 C1070 0.929 . S
H1067 C1076 0.929 1_554 S
C1068 H1062 0.930 1_556 S
C1068 C1069 1.367 . S
C1068 C1076 1.378 . S
C1069 C1068 1.367 . S
C1069 C1077 1.433 . S
C1070 H1066 0.929 . S
C1070 C1072 1.378 . S
C1070 C1074 1.350 . S
C1071 C1074 1.463 . S
C1071 C1076 1.350 . S
C1071 N1079 1.427 . S
C1072 H1063 0.930 . S
C1072 C1070 1.378 . S
C1072 C1073 1.367 . S
C1073 C1072 1.367 . S
C1073 C1075 1.433 . S
C1074 C1070 1.350 . S
C1074 C1071 1.463 . S
C1074 N1078 1.427 . S
C1075 H1065 0.929 1_556 S
C1075 C1073 1.433 . S
C1075 N1078 1.384 . S
C1076 H1067 0.929 1_556 S
C1076 C1068 1.378 . S
C1076 C1071 1.350 . S
C1077 H1064 0.929 . S
C1077 C1069 1.433 . S
C1077 N1079 1.384 . S
N1078 C1074 1.427 . S
N1078 C1075 1.384 . S
N1079 C1071 1.427 . S
N1079 C1077 1.384 . S
H1080 C1086 0.930 . S
H1081 C1090 0.933 . S
H1082 C1095 0.929 1_554 S
H1083 C1093 0.929 . S
H1084 C1088 0.929 1_554 S
H1085 C1094 0.929 . S
C1086 H1080 0.930 . S
C1086 C1087 1.367 . S
C1086 C1094 1.378 . S
C1087 C1086 1.367 . S
C1087 C1095 1.433 . S
C1088 H1084 0.929 1_556 S
C1088 C1090 1.377 1_556 S
C1088 C1092 1.350 . S
C1089 C1092 1.463 . S
C1089 C1094 1.350 . S
C1089 N1097 1.427 . S
C1090 H1081 0.933 . S
C1090 C1088 1.377 1_554 S
C1090 C1091 1.364 1_554 S
C1091 C1090 1.364 1_556 S
C1091 C1093 1.433 . S
C1092 C1088 1.350 . S
C1092 C1089 1.463 . S
C1092 N1096 1.427 . S
C1093 H1083 0.929 . S
C1093 C1091 1.433 . S
C1093 N1096 1.384 . S
C1094 H1085 0.929 . S
C1094 C1086 1.378 . S
C1094 C1089 1.350 . S
C1095 H1082 0.929 1_556 S
C1095 C1087 1.433 . S
C1095 N1097 1.384 . S
N1096 C1092 1.427 . S
N1096 C1093 1.384 . S
N1097 C1089 1.427 . S
N1097 C1095 1.384 . S
H1098 C1104 0.930 . S
H1099 C1108 0.930 . S
H1100 C1113 0.929 . S
H1101 C1111 0.929 . S
H1102 C1106 0.929 . S
H1103 C1112 0.929 . S
C1104 H1098 0.930 . S
C1104 C1105 1.367 . S
C1104 C1112 1.378 . S
C1105 C1104 1.367 . S
C1105 C1113 1.433 . S
C1106 H1102 0.929 . S
C1106 C1108 1.378 . S
C1106 C1110 1.350 . S
C1107 C1110 1.463 . S
C1107 C1112 1.350 . S
C1107 N1115 1.427 . S
C1108 H1099 0.930 . S
C1108 C1106 1.378 . S
C1108 C1109 1.367 . S
C1109 C1108 1.367 . S
C1109 C1111 1.433 . S
C1110 C1106 1.350 . S
C1110 C1107 1.463 . S
C1110 N1114 1.427 . S
C1111 H1101 0.929 . S
C1111 C1109 1.433 . S
C1111 N1114 1.384 . S
C1112 H1103 0.929 . S
C1112 C1104 1.378 . S
C1112 C1107 1.350 . S
C1113 H1100 0.929 . S
C1113 C1105 1.433 . S
C1113 N1115 1.384 . S
N1114 C1110 1.427 . S
N1114 C1111 1.384 . S
N1115 C1107 1.427 . S
N1115 C1113 1.384 . S
H1116 C1122 0.930 1_556 S
H1117 C1126 0.930 . S
H1118 C1131 0.929 . S
H1119 C1129 0.929 1_556 S
H1120 C1124 0.929 . S
H1121 C1130 0.929 1_556 S
C1122 H1116 0.930 1_554 S
C1122 C1123 1.367 . S
C1122 C1130 1.378 . S
C1123 C1122 1.367 . S
C1123 C1131 1.433 . S
C1124 H1120 0.929 . S
C1124 C1126 1.378 . S
C1124 C1128 1.350 . S
C1125 C1128 1.463 . S
C1125 C1130 1.350 . S
C1125 N1133 1.427 . S
C1126 H1117 0.930 . S
C1126 C1124 1.378 . S
C1126 C1127 1.367 . S
C1127 C1126 1.367 . S
C1127 C1129 1.433 . S
C1128 C1124 1.350 . S
C1128 C1125 1.463 . S
C1128 N1132 1.427 . S
C1129 H1119 0.929 1_554 S
C1129 C1127 1.433 . S
C1129 N1132 1.384 . S
C1130 H1121 0.929 1_554 S
C1130 C1122 1.378 . S
C1130 C1125 1.350 . S
C1131 H1118 0.929 . S
C1131 C1123 1.433 . S
C1131 N1133 1.384 . S
N1132 C1128 1.427 . S
N1132 C1129 1.384 . S
N1133 C1125 1.427 . S
N1133 C1131 1.384 . S
H1134 C1140 0.930 . S
H1135 C1144 0.930 . S
H1136 C1149 0.929 . S
H1137 C1147 0.929 . S
H1138 C1142 0.929 . S
H1139 C1148 0.929 . S
C1140 H1134 0.930 . S
C1140 C1141 1.367 . S
C1140 C1148 1.378 . S
C1141 C1140 1.367 . S
C1141 C1149 1.433 . S
C1142 H1138 0.929 . S
C1142 C1144 1.378 . S
C1142 C1146 1.350 . S
C1143 C1146 1.463 . S
C1143 C1148 1.350 . S
C1143 N1151 1.427 . S
C1144 H1135 0.930 . S
C1144 C1142 1.378 . S
C1144 C1145 1.367 . S
C1145 C1144 1.367 . S
C1145 C1147 1.433 . S
C1146 C1142 1.350 . S
C1146 C1143 1.463 . S
C1146 N1150 1.427 . S
C1147 H1137 0.929 . S
C1147 C1145 1.433 . S
C1147 N1150 1.384 . S
C1148 H1139 0.929 . S
C1148 C1140 1.378 . S
C1148 C1143 1.350 . S
C1149 H1136 0.929 . S
C1149 C1141 1.433 . S
C1149 N1151 1.384 . S
N1150 C1146 1.427 . S
N1150 C1147 1.384 . S
N1151 C1143 1.427 . S
N1151 C1149 1.384 . S
H1152 C1158 0.930 . S
H1153 C1162 0.930 . S
H1154 C1167 0.929 . S
H1155 C1165 0.929 . S
H1156 C1160 0.929 . S
H1157 C1166 0.929 . S
C1158 H1152 0.930 . S
C1158 C1159 1.367 . S
C1158 C1166 1.378 . S
C1159 C1158 1.367 . S
C1159 C1167 1.433 . S
C1160 H1156 0.929 . S
C1160 C1162 1.378 . S
C1160 C1164 1.350 . S
C1161 C1164 1.463 . S
C1161 C1166 1.350 . S
C1161 N1169 1.427 . S
C1162 H1153 0.930 . S
C1162 C1160 1.378 . S
C1162 C1163 1.367 . S
C1163 C1162 1.367 . S
C1163 C1165 1.433 . S
C1164 C1160 1.350 . S
C1164 C1161 1.463 . S
C1164 N1168 1.427 . S
C1165 H1155 0.929 . S
C1165 C1163 1.433 . S
C1165 N1168 1.384 . S
C1166 H1157 0.929 . S
C1166 C1158 1.378 . S
C1166 C1161 1.350 . S
C1167 H1154 0.929 . S
C1167 C1159 1.433 . S
C1167 N1169 1.384 . S
N1168 C1164 1.427 . S
N1168 C1165 1.384 . S
N1169 C1161 1.427 . S
N1169 C1167 1.384 . S
H1170 C1176 0.930 . S
H1171 C1180 0.930 . S
H1172 C1185 0.929 . S
H1173 C1183 0.929 . S
H1174 C1178 0.929 . S
H1175 C1184 0.929 . S
C1176 H1170 0.930 . S
C1176 C1177 1.367 . S
C1176 C1184 1.378 . S
C1177 C1176 1.367 . S
C1177 C1185 1.433 . S
C1178 H1174 0.929 . S
C1178 C1180 1.378 . S
C1178 C1182 1.350 . S
C1179 C1182 1.463 . S
C1179 C1184 1.350 . S
C1179 N1187 1.427 . S
C1180 H1171 0.930 . S
C1180 C1178 1.378 . S
C1180 C1181 1.367 . S
C1181 C1180 1.367 . S
C1181 C1183 1.433 . S
C1182 C1178 1.350 . S
C1182 C1179 1.463 . S
C1182 N1186 1.427 . S
C1183 H1173 0.929 . S
C1183 C1181 1.433 . S
C1183 N1186 1.384 . S
C1184 H1175 0.929 . S
C1184 C1176 1.378 . S
C1184 C1179 1.350 . S
C1185 H1172 0.929 . S
C1185 C1177 1.433 . S
C1185 N1187 1.384 . S
N1186 C1182 1.427 . S
N1186 C1183 1.384 . S
N1187 C1179 1.427 . S
N1187 C1185 1.384 . S
H1188 C1194 0.930 . S
H1189 C1198 0.930 . S
H1190 C1203 0.929 . S
H1191 C1201 0.929 . S
H1192 C1196 0.929 . S
H1193 C1202 0.929 . S
C1194 H1188 0.930 . S
C1194 C1195 1.367 . S
C1194 C1202 1.378 . S
C1195 C1194 1.367 . S
C1195 C1203 1.433 . S
C1196 H1192 0.929 . S
C1196 C1198 1.378 . S
C1196 C1200 1.350 . S
C1197 C1200 1.463 . S
C1197 C1202 1.350 . S
C1197 N1205 1.427 . S
C1198 H1189 0.930 . S
C1198 C1196 1.378 . S
C1198 C1199 1.367 . S
C1199 C1198 1.367 . S
C1199 C1201 1.433 . S
C1200 C1196 1.350 . S
C1200 C1197 1.463 . S
C1200 N1204 1.427 . S
C1201 H1191 0.929 . S
C1201 C1199 1.433 . S
C1201 N1204 1.384 . S
C1202 H1193 0.929 . S
C1202 C1194 1.378 . S
C1202 C1197 1.350 . S
C1203 H1190 0.929 . S
C1203 C1195 1.433 . S
C1203 N1205 1.384 . S
N1204 C1200 1.427 . S
N1204 C1201 1.384 . S
N1205 C1197 1.427 . S
N1205 C1203 1.384 . S
H1206 C1212 0.930 . S
H1207 C1216 0.930 . S
H1208 C1221 0.929 . S
H1209 C1219 0.929 . S
H1210 C1214 0.929 . S
H1211 C1220 0.929 . S
C1212 H1206 0.930 . S
C1212 C1213 1.367 . S
C1212 C1220 1.378 . S
C1213 C1212 1.367 . S
C1213 C1221 1.433 . S
C1214 H1210 0.929 . S
C1214 C1216 1.378 . S
C1214 C1218 1.350 . S
C1215 C1218 1.463 . S
C1215 C1220 1.350 . S
C1215 N1223 1.427 . S
C1216 H1207 0.930 . S
C1216 C1214 1.378 . S
C1216 C1217 1.367 . S
C1217 C1216 1.367 . S
C1217 C1219 1.433 . S
C1218 C1214 1.350 . S
C1218 C1215 1.463 . S
C1218 N1222 1.427 . S
C1219 H1209 0.929 . S
C1219 C1217 1.433 . S
C1219 N1222 1.384 . S
C1220 H1211 0.929 . S
C1220 C1212 1.378 . S
C1220 C1215 1.350 . S
C1221 H1208 0.929 . S
C1221 C1213 1.433 . S
C1221 N1223 1.384 . S
N1222 C1218 1.427 . S
N1222 C1219 1.384 . S
N1223 C1215 1.427 . S
N1223 C1221 1.384 . S
H1224 C1230 0.930 . S
H1225 C1234 0.930 . S
H1226 C1239 0.929 . S
H1227 C1237 0.929 . S
H1228 C1232 0.929 . S
H1229 C1238 0.929 . S
C1230 H1224 0.930 . S
C1230 C1231 1.367 . S
C1230 C1238 1.378 . S
C1231 C1230 1.367 . S
C1231 C1239 1.433 . S
C1232 H1228 0.929 . S
C1232 C1234 1.378 . S
C1232 C1236 1.350 . S
C1233 C1236 1.463 . S
C1233 C1238 1.350 1_556 S
C1233 N1241 1.427 1_556 S
C1234 H1225 0.930 . S
C1234 C1232 1.378 . S
C1234 C1235 1.367 . S
C1235 C1234 1.367 . S
C1235 C1237 1.433 . S
C1236 C1232 1.350 . S
C1236 C1233 1.463 . S
C1236 N1240 1.427 . S
C1237 H1227 0.929 . S
C1237 C1235 1.433 . S
C1237 N1240 1.384 . S
C1238 H1229 0.929 . S
C1238 C1230 1.378 . S
C1238 C1233 1.350 1_554 S
C1239 H1226 0.929 . S
C1239 C1231 1.433 . S
C1239 N1241 1.384 . S
N1240 C1236 1.427 . S
N1240 C1237 1.384 . S
N1241 C1233 1.427 1_554 S
N1241 C1239 1.384 . S
H1242 C1248 0.930 . S
H1243 C1252 0.930 . S
H1244 C1257 0.929 . S
H1245 C1255 0.929 . S
H1246 C1250 0.929 . S
H1247 C1256 0.929 . S
C1248 H1242 0.930 . S
C1248 C1249 1.367 . S
C1248 C1256 1.378 . S
C1249 C1248 1.367 . S
C1249 C1257 1.433 . S
C1250 H1246 0.929 . S
C1250 C1252 1.378 . S
C1250 C1254 1.350 . S
C1251 C1254 1.463 1_554 S
C1251 C1256 1.350 . S
C1251 N1259 1.427 . S
C1252 H1243 0.930 . S
C1252 C1250 1.378 . S
C1252 C1253 1.367 . S
C1253 C1252 1.367 . S
C1253 C1255 1.433 . S
C1254 C1250 1.350 . S
C1254 C1251 1.463 1_556 S
C1254 N1258 1.427 . S
C1255 H1245 0.929 . S
C1255 C1253 1.433 . S
C1255 N1258 1.384 . S
C1256 H1247 0.929 . S
C1256 C1248 1.378 . S
C1256 C1251 1.350 . S
C1257 H1244 0.929 . S
C1257 C1249 1.433 . S
C1257 N1259 1.384 . S
N1258 C1254 1.427 . S
N1258 C1255 1.384 . S
N1259 C1251 1.427 . S
N1259 C1257 1.384 . S
H1260 C1266 0.930 . S
H1261 C1270 0.930 . S
H1262 C1275 0.929 . S
H1263 C1273 0.929 . S
H1264 C1268 0.929 . S
H1265 C1274 0.929 1_556 S
C1266 H1260 0.930 . S
C1266 C1267 1.367 . S
C1266 C1274 1.378 . S
C1267 C1266 1.367 . S
C1267 C1275 1.433 . S
C1268 H1264 0.929 . S
C1268 C1270 1.378 . S
C1268 C1272 1.350 . S
C1269 C1272 1.463 . S
C1269 C1274 1.350 1_556 S
C1269 N1277 1.427 1_556 S
C1270 H1261 0.930 . S
C1270 C1268 1.378 . S
C1270 C1271 1.367 . S
C1271 C1270 1.367 . S
C1271 C1273 1.433 . S
C1272 C1268 1.350 . S
C1272 C1269 1.463 . S
C1272 N1276 1.427 . S
C1273 H1263 0.929 . S
C1273 C1271 1.433 . S
C1273 N1276 1.384 . S
C1274 H1265 0.929 1_554 S
C1274 C1266 1.378 . S
C1274 C1269 1.350 1_554 S
C1275 H1262 0.929 . S
C1275 C1267 1.433 . S
C1275 N1277 1.384 . S
N1276 C1272 1.427 . S
N1276 C1273 1.384 . S
N1277 C1269 1.427 1_554 S
N1277 C1275 1.384 . S
H1278 C1284 0.930 . S
H1279 C1288 0.930 . S
H1280 C1293 0.929 . S
H1281 C1291 0.929 . S
H1282 C1286 0.929 . S
H1283 C1292 0.929 . S
C1284 H1278 0.930 . S
C1284 C1285 1.367 . S
C1284 C1292 1.378 . S
C1285 C1284 1.367 . S
C1285 C1293 1.433 . S
C1286 H1282 0.929 . S
C1286 C1288 1.378 . S
C1286 C1290 1.350 . S
C1287 C1290 1.463 1_556 S
C1287 C1292 1.350 . S
C1287 N1295 1.427 . S
C1288 H1279 0.930 . S
C1288 C1286 1.378 . S
C1288 C1289 1.367 . S
C1289 C1288 1.367 . S
C1289 C1291 1.433 . S
C1290 C1286 1.350 . S
C1290 C1287 1.463 1_554 S
C1290 N1294 1.427 . S
C1291 H1281 0.929 . S
C1291 C1289 1.433 . S
C1291 N1294 1.384 . S
C1292 H1283 0.929 . S
C1292 C1284 1.378 . S
C1292 C1287 1.350 . S
C1293 H1280 0.929 . S
C1293 C1285 1.433 . S
C1293 N1295 1.384 . S
N1294 C1290 1.427 . S
N1294 C1291 1.384 . S
N1295 C1287 1.427 . S
N1295 C1293 1.384 . S
H1296 C1302 0.930 . S
H1297 C1306 0.930 . S
H1298 C1311 0.929 . S
H1299 C1309 0.929 . S
H1300 C1304 0.929 . S
H1301 C1310 0.929 1_556 S
C1302 H1296 0.930 . S
C1302 C1303 1.367 . S
C1302 C1310 1.378 . S
C1303 C1302 1.367 . S
C1303 C1311 1.433 . S
C1304 H1300 0.929 . S
C1304 C1306 1.378 . S
C1304 C1308 1.350 . S
C1305 C1308 1.463 . S
C1305 C1310 1.350 1_556 S
C1305 N1313 1.427 1_556 S
C1306 H1297 0.930 . S
C1306 C1304 1.378 . S
C1306 C1307 1.367 . S
C1307 C1306 1.367 . S
C1307 C1309 1.433 . S
C1308 C1304 1.350 . S
C1308 C1305 1.463 . S
C1308 N1312 1.427 . S
C1309 H1299 0.929 . S
C1309 C1307 1.433 . S
C1309 N1312 1.384 . S
C1310 H1301 0.929 1_554 S
C1310 C1302 1.378 . S
C1310 C1305 1.350 1_554 S
C1311 H1298 0.929 . S
C1311 C1303 1.433 . S
C1311 N1313 1.384 . S
N1312 C1308 1.427 . S
N1312 C1309 1.384 . S
N1313 C1305 1.427 1_554 S
N1313 C1311 1.384 . S
H1314 C1320 0.930 . S
H1315 C1324 0.930 . S
H1316 C1329 0.929 . S
H1317 C1327 0.929 . S
H1318 C1322 0.929 . S
H1319 C1328 0.929 . S
C1320 H1314 0.930 . S
C1320 C1321 1.367 . S
C1320 C1328 1.378 . S
C1321 C1320 1.367 . S
C1321 C1329 1.433 . S
C1322 H1318 0.929 . S
C1322 C1324 1.378 . S
C1322 C1326 1.350 . S
C1323 C1326 1.463 1_554 S
C1323 C1328 1.350 . S
C1323 N1331 1.427 . S
C1324 H1315 0.930 . S
C1324 C1322 1.378 . S
C1324 C1325 1.367 . S
C1325 C1324 1.367 . S
C1325 C1327 1.433 . S
C1326 C1322 1.350 . S
C1326 C1323 1.463 1_556 S
C1326 N1330 1.427 . S
C1327 H1317 0.929 . S
C1327 C1325 1.433 . S
C1327 N1330 1.384 . S
C1328 H1319 0.929 . S
C1328 C1320 1.378 . S
C1328 C1323 1.350 . S
C1329 H1316 0.929 . S
C1329 C1321 1.433 . S
C1329 N1331 1.384 . S
N1330 C1326 1.427 . S
N1330 C1327 1.384 . S
N1331 C1323 1.427 . S
N1331 C1329 1.384 . S
H1332 C1338 0.930 . S
H1333 C1342 0.930 . S
H1334 C1347 0.929 . S
H1335 C1345 0.929 . S
H1336 C1340 0.929 . S
H1337 C1346 0.929 . S
C1338 H1332 0.930 . S
C1338 C1339 1.367 . S
C1338 C1346 1.378 . S
C1339 C1338 1.367 . S
C1339 C1347 1.433 . S
C1340 H1336 0.929 . S
C1340 C1342 1.378 . S
C1340 C1344 1.350 . S
C1341 C1344 1.463 . S
C1341 C1346 1.350 . S
C1341 N1349 1.427 . S
C1342 H1333 0.930 . S
C1342 C1340 1.378 . S
C1342 C1343 1.367 . S
C1343 C1342 1.367 . S
C1343 C1345 1.433 . S
C1344 C1340 1.350 . S
C1344 C1341 1.463 . S
C1344 N1348 1.427 . S
C1345 H1335 0.929 . S
C1345 C1343 1.433 . S
C1345 N1348 1.384 . S
C1346 H1337 0.929 . S
C1346 C1338 1.378 . S
C1346 C1341 1.350 . S
C1347 H1334 0.929 . S
C1347 C1339 1.433 . S
C1347 N1349 1.384 . S
N1348 C1344 1.427 . S
N1348 C1345 1.384 . S
N1349 C1341 1.427 . S
N1349 C1347 1.384 . S
H1350 C1356 0.930 . S
H1351 C1360 0.930 . S
H1352 C1365 0.929 . S
H1353 C1363 0.929 . S
H1354 C1358 0.929 . S
H1355 C1364 0.929 . S
C1356 H1350 0.930 . S
C1356 C1357 1.367 . S
C1356 C1364 1.378 . S
C1357 C1356 1.367 . S
C1357 C1365 1.433 . S
C1358 H1354 0.929 . S
C1358 C1360 1.378 . S
C1358 C1362 1.350 . S
C1359 C1362 1.463 . S
C1359 C1364 1.350 . S
C1359 N1367 1.427 . S
C1360 H1351 0.930 . S
C1360 C1358 1.378 . S
C1360 C1361 1.367 . S
C1361 C1360 1.367 . S
C1361 C1363 1.433 . S
C1362 C1358 1.350 . S
C1362 C1359 1.463 . S
C1362 N1366 1.427 . S
C1363 H1353 0.929 . S
C1363 C1361 1.433 . S
C1363 N1366 1.384 . S
C1364 H1355 0.929 . S
C1364 C1356 1.378 . S
C1364 C1359 1.350 . S
C1365 H1352 0.929 . S
C1365 C1357 1.433 . S
C1365 N1367 1.384 . S
N1366 C1362 1.427 . S
N1366 C1363 1.384 . S
N1367 C1359 1.427 . S
N1367 C1365 1.384 . S
H1368 C1374 0.930 . S
H1369 C1378 0.930 . S
H1370 C1383 0.929 . S
H1371 C1381 0.929 . S
H1372 C1376 0.929 . S
H1373 C1382 0.929 . S
C1374 H1368 0.930 . S
C1374 C1375 1.367 . S
C1374 C1382 1.378 . S
C1375 C1374 1.367 . S
C1375 C1383 1.433 . S
C1376 H1372 0.929 . S
C1376 C1378 1.378 . S
C1376 C1380 1.350 . S
C1377 C1380 1.463 . S
C1377 C1382 1.350 . S
C1377 N1385 1.427 . S
C1378 H1369 0.930 . S
C1378 C1376 1.378 . S
C1378 C1379 1.367 . S
C1379 C1378 1.367 . S
C1379 C1381 1.433 . S
C1380 C1376 1.350 . S
C1380 C1377 1.463 . S
C1380 N1384 1.427 . S
C1381 H1371 0.929 . S
C1381 C1379 1.433 . S
C1381 N1384 1.384 . S
C1382 H1373 0.929 . S
C1382 C1374 1.378 . S
C1382 C1377 1.350 . S
C1383 H1370 0.929 . S
C1383 C1375 1.433 . S
C1383 N1385 1.384 . S
N1384 C1380 1.427 . S
N1384 C1381 1.384 . S
N1385 C1377 1.427 . S
N1385 C1383 1.384 . S
H1386 C1392 0.930 . S
H1387 C1396 0.930 . S
H1388 C1401 0.929 . S
H1389 C1399 0.929 . S
H1390 C1394 0.929 . S
H1391 C1400 0.929 . S
C1392 H1386 0.930 . S
C1392 C1393 1.367 . S
C1392 C1400 1.378 . S
C1393 C1392 1.367 . S
C1393 C1401 1.433 . S
C1394 H1390 0.929 . S
C1394 C1396 1.378 . S
C1394 C1398 1.350 . S
C1395 C1398 1.463 . S
C1395 C1400 1.350 . S
C1395 N1403 1.427 . S
C1396 H1387 0.930 . S
C1396 C1394 1.378 . S
C1396 C1397 1.367 . S
C1397 C1396 1.367 . S
C1397 C1399 1.433 . S
C1398 C1394 1.350 . S
C1398 C1395 1.463 . S
C1398 N1402 1.427 . S
C1399 H1389 0.929 . S
C1399 C1397 1.433 . S
C1399 N1402 1.384 . S
C1400 H1391 0.929 . S
C1400 C1392 1.378 . S
C1400 C1395 1.350 . S
C1401 H1388 0.929 . S
C1401 C1393 1.433 . S
C1401 N1403 1.384 . S
N1402 C1398 1.427 . S
N1402 C1399 1.384 . S
N1403 C1395 1.427 . S
N1403 C1401 1.384 . S
H1404 C1410 0.930 . S
H1405 C1414 0.930 . S
H1406 C1419 0.929 . S
H1407 C1417 0.929 . S
H1408 C1412 0.929 . S
H1409 C1418 0.929 . S
C1410 H1404 0.930 . S
C1410 C1411 1.367 . S
C1410 C1418 1.378 . S
C1411 C1410 1.367 . S
C1411 C1419 1.433 . S
C1412 H1408 0.929 . S
C1412 C1414 1.378 . S
C1412 C1416 1.350 . S
C1413 C1416 1.463 . S
C1413 C1418 1.350 . S
C1413 N1421 1.427 . S
C1414 H1405 0.930 . S
C1414 C1412 1.378 . S
C1414 C1415 1.367 . S
C1415 C1414 1.367 . S
C1415 C1417 1.433 . S
C1416 C1412 1.350 . S
C1416 C1413 1.463 . S
C1416 N1420 1.427 . S
C1417 H1407 0.929 . S
C1417 C1415 1.433 . S
C1417 N1420 1.384 . S
C1418 H1409 0.929 . S
C1418 C1410 1.378 . S
C1418 C1413 1.350 . S
C1419 H1406 0.929 . S
C1419 C1411 1.433 . S
C1419 N1421 1.384 . S
N1420 C1416 1.427 . S
N1420 C1417 1.384 . S
N1421 C1413 1.427 . S
N1421 C1419 1.384 . S
H1422 C1428 0.930 . S
H1423 C1432 0.930 . S
H1424 C1437 0.929 . S
H1425 C1435 0.929 . S
H1426 C1430 0.929 . S
H1427 C1436 0.929 . S
C1428 H1422 0.930 . S
C1428 C1429 1.367 . S
C1428 C1436 1.378 . S
C1429 C1428 1.367 . S
C1429 C1437 1.433 . S
C1430 H1426 0.929 . S
C1430 C1432 1.378 . S
C1430 C1434 1.350 . S
C1431 C1434 1.463 . S
C1431 C1436 1.350 . S
C1431 N1439 1.427 . S
C1432 H1423 0.930 . S
C1432 C1430 1.378 . S
C1432 C1433 1.367 . S
C1433 C1432 1.367 . S
C1433 C1435 1.433 . S
C1434 C1430 1.350 . S
C1434 C1431 1.463 . S
C1434 N1438 1.427 . S
C1435 H1425 0.929 . S
C1435 C1433 1.433 . S
C1435 N1438 1.384 . S
C1436 H1427 0.929 . S
C1436 C1428 1.378 . S
C1436 C1431 1.350 . S
C1437 H1424 0.929 . S
C1437 C1429 1.433 . S
C1437 N1439 1.384 . S
N1438 C1434 1.427 . S
N1438 C1435 1.384 . S
N1439 C1431 1.427 . S
N1439 C1437 1.384 . S
H1440 C1446 0.930 . S
H1441 C1450 0.930 . S
H1442 C1455 0.929 . S
H1443 C1453 0.929 . S
H1444 C1448 0.929 . S
H1445 C1454 0.929 . S
C1446 H1440 0.930 . S
C1446 C1447 1.367 . S
C1446 C1454 1.378 . S
C1447 C1446 1.367 . S
C1447 C1455 1.433 . S
C1448 H1444 0.929 . S
C1448 C1450 1.378 . S
C1448 C1452 1.350 . S
C1449 C1452 1.463 . S
C1449 C1454 1.350 . S
C1449 N1457 1.427 . S
C1450 H1441 0.930 . S
C1450 C1448 1.378 . S
C1450 C1451 1.367 . S
C1451 C1450 1.367 . S
C1451 C1453 1.433 . S
C1452 C1448 1.350 . S
C1452 C1449 1.463 . S
C1452 N1456 1.427 . S
C1453 H1443 0.929 . S
C1453 C1451 1.433 . S
C1453 N1456 1.384 . S
C1454 H1445 0.929 . S
C1454 C1446 1.378 . S
C1454 C1449 1.350 . S
C1455 H1442 0.929 . S
C1455 C1447 1.433 . S
C1455 N1457 1.384 . S
N1456 C1452 1.427 . S
N1456 C1453 1.384 . S
N1457 C1449 1.427 . S
N1457 C1455 1.384 . S
H1458 C1464 0.930 . S
H1459 C1468 0.930 . S
H1460 C1473 0.929 . S
H1461 C1471 0.929 . S
H1462 C1466 0.929 . S
H1463 C1472 0.929 . S
C1464 H1458 0.930 . S
C1464 C1465 1.367 . S
C1464 C1472 1.378 . S
C1465 C1464 1.367 . S
C1465 C1473 1.433 . S
C1466 H1462 0.929 . S
C1466 C1468 1.378 . S
C1466 C1470 1.350 . S
C1467 C1470 1.463 . S
C1467 C1472 1.350 . S
C1467 N1475 1.427 . S
C1468 H1459 0.930 . S
C1468 C1466 1.378 . S
C1468 C1469 1.367 . S
C1469 C1468 1.367 . S
C1469 C1471 1.433 . S
C1470 C1466 1.350 . S
C1470 C1467 1.463 . S
C1470 N1474 1.427 . S
C1471 H1461 0.929 . S
C1471 C1469 1.433 . S
C1471 N1474 1.384 . S
C1472 H1463 0.929 . S
C1472 C1464 1.378 . S
C1472 C1467 1.350 . S
C1473 H1460 0.929 . S
C1473 C1465 1.433 . S
C1473 N1475 1.384 . S
N1474 C1470 1.427 . S
N1474 C1471 1.384 . S
N1475 C1467 1.427 . S
N1475 C1473 1.384 . S
H1476 C1482 0.930 . S
H1477 C1486 0.930 . S
H1478 C1491 0.929 . S
H1479 C1489 0.929 . S
H1480 C1484 0.929 . S
H1481 C1490 0.929 . S
C1482 H1476 0.930 . S
C1482 C1483 1.367 . S
C1482 C1490 1.378 . S
C1483 C1482 1.367 . S
C1483 C1491 1.433 . S
C1484 H1480 0.929 . S
C1484 C1486 1.378 . S
C1484 C1488 1.350 . S
C1485 C1488 1.463 . S
C1485 C1490 1.350 . S
C1485 N1493 1.427 . S
C1486 H1477 0.930 . S
C1486 C1484 1.378 . S
C1486 C1487 1.367 . S
C1487 C1486 1.367 . S
C1487 C1489 1.433 . S
C1488 C1484 1.350 . S
C1488 C1485 1.463 . S
C1488 N1492 1.427 . S
C1489 H1479 0.929 . S
C1489 C1487 1.433 . S
C1489 N1492 1.384 . S
C1490 H1481 0.929 . S
C1490 C1482 1.378 . S
C1490 C1485 1.350 . S
C1491 H1478 0.929 . S
C1491 C1483 1.433 . S
C1491 N1493 1.384 . S
N1492 C1488 1.427 . S
N1492 C1489 1.384 . S
N1493 C1485 1.427 . S
N1493 C1491 1.384 . S
H1494 C1500 0.930 . S
H1495 C1504 0.930 . S
H1496 C1509 0.929 . S
H1497 C1507 0.929 . S
H1498 C1502 0.929 . S
H1499 C1508 0.929 . S
C1500 H1494 0.930 . S
C1500 C1501 1.367 . S
C1500 C1508 1.378 . S
C1501 C1500 1.367 . S
C1501 C1509 1.433 . S
C1502 H1498 0.929 . S
C1502 C1504 1.378 . S
C1502 C1506 1.350 . S
C1503 C1506 1.463 . S
C1503 C1508 1.350 . S
C1503 N1511 1.427 . S
C1504 H1495 0.930 . S
C1504 C1502 1.378 . S
C1504 C1505 1.367 . S
C1505 C1504 1.367 . S
C1505 C1507 1.433 . S
C1506 C1502 1.350 . S
C1506 C1503 1.463 . S
C1506 N1510 1.427 . S
C1507 H1497 0.929 . S
C1507 C1505 1.433 . S
C1507 N1510 1.384 . S
C1508 H1499 0.929 . S
C1508 C1500 1.378 . S
C1508 C1503 1.350 . S
C1509 H1496 0.929 . S
C1509 C1501 1.433 . S
C1509 N1511 1.384 . S
N1510 C1506 1.427 . S
N1510 C1507 1.384 . S
N1511 C1503 1.427 . S
N1511 C1509 1.384 . S
H1512 C1518 0.930 . S
H1513 C1522 0.930 . S
H1514 C1527 0.929 . S
H1515 C1525 0.929 . S
H1516 C1520 0.929 . S
H1517 C1526 0.929 . S
C1518 H1512 0.930 . S
C1518 C1519 1.367 . S
C1518 C1526 1.378 . S
C1519 C1518 1.367 . S
C1519 C1527 1.433 . S
C1520 H1516 0.929 . S
C1520 C1522 1.378 . S
C1520 C1524 1.350 . S
C1521 C1524 1.463 . S
C1521 C1526 1.350 . S
C1521 N1529 1.427 . S
C1522 H1513 0.930 . S
C1522 C1520 1.378 . S
C1522 C1523 1.367 . S
C1523 C1522 1.367 . S
C1523 C1525 1.433 . S
C1524 C1520 1.350 . S
C1524 C1521 1.463 . S
C1524 N1528 1.427 . S
C1525 H1515 0.929 . S
C1525 C1523 1.433 . S
C1525 N1528 1.384 . S
C1526 H1517 0.929 . S
C1526 C1518 1.378 . S
C1526 C1521 1.350 . S
C1527 H1514 0.929 . S
C1527 C1519 1.433 . S
C1527 N1529 1.384 . S
N1528 C1524 1.427 . S
N1528 C1525 1.384 . S
N1529 C1521 1.427 . S
N1529 C1527 1.384 . S
H1530 C1536 0.930 . S
H1531 C1540 0.930 . S
H1532 C1545 0.929 . S
H1533 C1543 0.929 . S
H1534 C1538 0.929 . S
H1535 C1544 0.929 . S
C1536 H1530 0.930 . S
C1536 C1537 1.367 . S
C1536 C1544 1.378 . S
C1537 C1536 1.367 . S
C1537 C1545 1.433 . S
C1538 H1534 0.929 . S
C1538 C1540 1.378 . S
C1538 C1542 1.350 . S
C1539 C1542 1.463 . S
C1539 C1544 1.350 . S
C1539 N1547 1.427 . S
C1540 H1531 0.930 . S
C1540 C1538 1.378 . S
C1540 C1541 1.367 . S
C1541 C1540 1.367 . S
C1541 C1543 1.433 . S
C1542 C1538 1.350 . S
C1542 C1539 1.463 . S
C1542 N1546 1.427 . S
C1543 H1533 0.929 . S
C1543 C1541 1.433 . S
C1543 N1546 1.384 . S
C1544 H1535 0.929 . S
C1544 C1536 1.378 . S
C1544 C1539 1.350 . S
C1545 H1532 0.929 . S
C1545 C1537 1.433 . S
C1545 N1547 1.384 . S
N1546 C1542 1.427 . S
N1546 C1543 1.384 . S
N1547 C1539 1.427 . S
N1547 C1545 1.384 . S
C583 C422 2.116 . S
C587 C6 2.103 . S
C601 N50 1.145 . S
C605 N461 1.187 . S
C619 C70 1.583 . S
C623 N402 1.535 . S
C637 N82 1.015 . S
C641 N242 1.060 . S
C655 N274 0.801 . S
C659 N18 0.830 . S
C673 C38 1.290 . S
C677 N205 1.244 . S
C691 C102 1.381 . S
C695 N333 1.288 . S
C709 N146 1.022 . S
C713 N365 1.008 . S
C727 N301 1.553 . S
C731 C166 1.568 . S
C745 N530 1.164 . S
C749 N178 1.160 . S
C763 N114 1.470 . S
C767 C546 1.547 . S
C781 C486 2.142 . S
C785 C134 2.133 . S
C799 C262 2.028 . S
C803 N434 1.954 . S
C817 C194 2.826 . S
C821 C450 2.782 . S
C835 C230 2.328 . S
C839 C390 2.349 . S
C853 C290 2.444 . S
C857 C518 2.373 1_545 S
C871 N557 2.056 . S
C875 C322 2.223 . S
C889 N498 1.661 . S
C893 C354 1.715 . S
C907 N13 1.188 . S
C911 N141 1.183 . S
C925 C164 0.639 . S
C929 C36 0.642 . S
C943 C100 1.093 . S
C947 N77 1.056 . S
C961 C132 1.160 . S
C965 C68 1.143 . S
C979 N173 1.196 . S
C983 C4 1.221 . S
C997 N109 1.242 1_655 S
C1001 N45 1.252 . S
C1015 C349 2.026 . S
C1019 C221 2.017 . S
C1033 C381 1.447 . S
C1037 C228 1.453 . S
C1051 C317 1.772 . S
C1055 C260 1.767 . S
C1069 N338 1.308 . S
C1073 N269 1.305 . S
C1087 N370 1.424 . S
C1091 N210 1.394 . S
C1105 N306 1.468 . S
C1109 N237 1.482 . S
C1123 N525 1.673 . S
C1127 N397 1.666 . S
C1141 C573 2.087 . S
C1145 C420 2.080 . S
C1159 N466 1.811 . S
C1163 C484 1.842 . S
C1177 C477 1.803 . S
C1181 C516 1.815 . S
C1195 C388 2.080 . S
C1199 N562 2.047 . S
C1213 N493 2.063 . S
C1217 N429 2.073 . S
C1231 C29 1.416 . S
C1235 C2 1.421 . S
C1249 C34 1.425 . S
C1253 C61 1.425 . S
C1267 C93 1.425 . S
C1271 C66 1.427 . S
C1285 C125 1.417 . S
C1289 C98 1.419 . S
C1303 C157 1.423 . S
C1307 C130 1.426 . S
C1321 C162 1.423 . S
C1325 C189 1.423 . S
C1339 C196 1.418 . S
C1343 C198 1.422 . S
C1357 C226 1.426 . S
C1361 C253 1.424 . S
C1375 C285 1.428 . S
C1379 C258 1.430 . S
C1393 C292 1.414 . S
C1397 C294 1.420 . S
C1411 C324 1.417 . S
C1415 C326 1.419 . S
C1429 C356 1.430 . S
C1433 C358 1.430 . S
C1447 C386 1.420 . S
C1451 C413 1.415 . S
C1465 C418 1.421 1_556 S
C1469 C445 1.418 . S
C1483 C452 1.418 . S
C1487 C454 1.421 . S
C1501 C482 1.418 1_556 S
C1505 C509 1.412 . S
C1519 C541 1.421 . S
C1523 C514 1.424 . S
C1537 C548 1.419 . S
C1541 C550 1.422 1_556 S
