# Generated by pormake.
# Topology vbn, (6)-cn, num edge types: 1
# Building blocks:
#     Node 0, Type 0, BuildingBlock: IZENUY_clean_sbu_0, # of connection points: 6
#     Node 1, Type 0, BuildingBlock: IZENUY_clean_sbu_0, # of connection points: 6
#     Node 2, Type 0, BuildingBlock: IZENUY_clean_sbu_0, # of connection points: 6
#     Node 3, Type 0, BuildingBlock: IZENUY_clean_sbu_0, # of connection points: 6
#     Node 4, Type 0, BuildingBlock: IZENUY_clean_sbu_0, # of connection points: 6
#     Node 5, Type 0, BuildingBlock: IZENUY_clean_sbu_0, # of connection points: 6
#     Node 6, Type 0, BuildingBlock: IZENUY_clean_sbu_0, # of connection points: 6
#     Node 7, Type 0, BuildingBlock: IZENUY_clean_sbu_0, # of connection points: 6
#     Edge 8, Type (0, 0), BuildingBlock: KIFKEQ_clean_linker_1, # of connection points: 2
#     Edge 9, Type (0, 0), BuildingBlock: KIFKEQ_clean_linker_1, # of connection points: 2
#     Edge 10, Type (0, 0), BuildingBlock: KIFKEQ_clean_linker_1, # of connection points: 2
#     Edge 11, Type (0, 0), BuildingBlock: KIFKEQ_clean_linker_1, # of connection points: 2
#     Edge 12, Type (0, 0), BuildingBlock: KIFKEQ_clean_linker_1, # of connection points: 2
#     Edge 13, Type (0, 0), BuildingBlock: KIFKEQ_clean_linker_1, # of connection points: 2
#     Edge 14, Type (0, 0), BuildingBlock: KIFKEQ_clean_linker_1, # of connection points: 2
#     Edge 15, Type (0, 0), BuildingBlock: KIFKEQ_clean_linker_1, # of connection points: 2
#     Edge 16, Type (0, 0), BuildingBlock: KIFKEQ_clean_linker_1, # of connection points: 2
#     Edge 17, Type (0, 0), BuildingBlock: KIFKEQ_clean_linker_1, # of connection points: 2
#     Edge 18, Type (0, 0), BuildingBlock: KIFKEQ_clean_linker_1, # of connection points: 2
#     Edge 19, Type (0, 0), BuildingBlock: KIFKEQ_clean_linker_1, # of connection points: 2
#     Edge 20, Type (0, 0), BuildingBlock: KIFKEQ_clean_linker_1, # of connection points: 2
#     Edge 21, Type (0, 0), BuildingBlock: KIFKEQ_clean_linker_1, # of connection points: 2
#     Edge 22, Type (0, 0), BuildingBlock: KIFKEQ_clean_linker_1, # of connection points: 2
#     Edge 23, Type (0, 0), BuildingBlock: KIFKEQ_clean_linker_1, # of connection points: 2
#     Edge 24, Type (0, 0), BuildingBlock: KIFKEQ_clean_linker_1, # of connection points: 2
#     Edge 25, Type (0, 0), BuildingBlock: KIFKEQ_clean_linker_1, # of connection points: 2
#     Edge 26, Type (0, 0), BuildingBlock: KIFKEQ_clean_linker_1, # of connection points: 2
#     Edge 27, Type (0, 0), BuildingBlock: KIFKEQ_clean_linker_1, # of connection points: 2
#     Edge 28, Type (0, 0), BuildingBlock: KIFKEQ_clean_linker_1, # of connection points: 2
#     Edge 29, Type (0, 0), BuildingBlock: KIFKEQ_clean_linker_1, # of connection points: 2
#     Edge 30, Type (0, 0), BuildingBlock: KIFKEQ_clean_linker_1, # of connection points: 2
#     Edge 31, Type (0, 0), BuildingBlock: KIFKEQ_clean_linker_1, # of connection points: 2
# Relax obj value: 0.241
# Max RMSD: 0.242
# Mean RMSD: 0.242
data_MOF--net-vbn--node1-IZENUY_clean_sbu_0--edge1-KIFKEQ_clean_linker_1
_symmetry_space_group_name_H-M    P1
_symmetry_Int_Tables_number       1
_symmetry_cell_setting            triclinic
loop_
_symmetry_equiv_pos_as_xyz
'x, y, z'
_cell_length_a     25.858706
_cell_length_b     28.394838
_cell_length_c     46.545371
_cell_angle_alpha  90.026844
_cell_angle_beta   90.038375
_cell_angle_gamma 90.033675
loop_
_atom_site_label
_atom_site_type_symbol
_atom_site_fract_x
_atom_site_fract_y
_atom_site_fract_z
_atom_type_partial_charge
Fe0 Fe 0.42852 0.35668 0.41503 0.0
Fe1 Fe 0.39038 0.28251 0.45713 0.0
O2 O 0.38402 0.31219 0.42413 0.0
Fe3 Fe 0.33291 0.29819 0.40051 0.0
O4 O 0.30787 0.35708 0.4029 0.0
O5 O 0.38159 0.39223 0.39433 0.0
O6 O 0.40947 0.39113 0.44572 0.0
C7 C 0.41664 0.37736 0.47101 0.0
C8 C 0.41991 0.31151 0.36387 0.0
O9 O 0.41936 0.33353 0.47646 0.0
C10 C 0.3562 0.21046 0.41838 0.0
O11 O 0.48346 0.32949 0.43465 0.0
O12 O 0.45315 0.26027 0.44695 0.0
O13 O 0.37099 0.31081 0.36736 0.0
O14 O 0.44933 0.32428 0.38395 0.0
C15 C 0.28653 0.29533 0.45601 0.0
O16 O 0.36233 0.22631 0.44376 0.0
O17 O 0.35465 0.23825 0.39736 0.0
C18 C 0.49104 0.28755 0.44332 0.0
O19 O 0.32832 0.30366 0.46891 0.0
O20 O 0.28646 0.28315 0.42967 0.0
C21 C 0.333 0.39404 0.39798 0.0
Fe22 Fe 0.1889 0.22332 0.89873 0.0
Fe23 Fe 0.09184 0.16698 0.9135 0.0
O24 O 0.14013 0.20739 0.9235 0.0
Fe25 Fe 0.14054 0.23081 0.95853 0.0
O26 O 0.20268 0.20501 0.96553 0.0
O27 O 0.23971 0.23266 0.92664 0.0
O28 O 0.21121 0.1631 0.89662 0.0
C29 C 0.18307 0.12806 0.89103 0.0
C30 C 0.17119 0.30826 0.92296 0.0
O31 O 0.1343 0.13277 0.88932 0.0
C32 C 0.03799 0.23331 0.94915 0.0
O33 O 0.1465 0.21703 0.86654 0.0
O34 O 0.06961 0.20504 0.88521 0.0
O35 O 0.16939 0.28804 0.94739 0.0
O36 O 0.16938 0.28434 0.90014 0.0
C37 C 0.11035 0.13538 0.96718 0.0
O38 O 0.04109 0.1934 0.93677 0.0
O39 O 0.07811 0.25742 0.95339 0.0
C40 C 0.09733 0.21771 0.86439 0.0
O41 O 0.11189 0.12666 0.94083 0.0
O42 O 0.11172 0.17778 0.97596 0.0
C43 C 0.24288 0.21625 0.95204 0.0
Fe44 Fe 0.92771 0.16671 0.61957 0.0
Fe45 Fe 0.88866 0.23913 0.57665 0.0
O46 O 0.88335 0.21117 0.61028 0.0
Fe47 Fe 0.83308 0.22665 0.6341 0.0
O48 O 0.80744 0.16754 0.63307 0.0
O49 O 0.8812 0.13211 0.64102 0.0
O50 O 0.90761 0.1313 0.58945 0.0
C51 C 0.91459 0.14404 0.56397 0.0
C52 C 0.92105 0.21302 0.6705 0.0
O53 O 0.91739 0.18759 0.55796 0.0
C54 C 0.85626 0.31331 0.61411 0.0
O55 O 0.98228 0.19333 0.59929 0.0
O56 O 0.95171 0.26202 0.58588 0.0
O57 O 0.87213 0.21566 0.66715 0.0
O58 O 0.94958 0.19959 0.65019 0.0
C59 C 0.78501 0.22641 0.57897 0.0
O60 O 0.86062 0.29572 0.58909 0.0
O61 O 0.85533 0.28695 0.63585 0.0
C62 C 0.98968 0.23498 0.58998 0.0
O63 O 0.82636 0.21708 0.56592 0.0
O64 O 0.78582 0.24025 0.60502 0.0
C65 C 0.83251 0.13047 0.63792 0.0
Fe66 Fe 0.59028 0.35584 0.12178 0.0
Fe67 Fe 0.62853 0.28481 0.07779 0.0
O68 O 0.63518 0.31256 0.11138 0.0
Fe69 Fe 0.68666 0.29777 0.1345 0.0
O70 O 0.71112 0.3569 0.13313 0.0
O71 O 0.63718 0.39032 0.14337 0.0
O72 O 0.60913 0.39229 0.09233 0.0
C73 C 0.60303 0.38089 0.06652 0.0
C74 C 0.59989 0.30809 0.17175 0.0
O75 O 0.60015 0.33754 0.0595 0.0
C76 C 0.66275 0.21086 0.11514 0.0
O77 O 0.53531 0.33019 0.10121 0.0
O78 O 0.56607 0.26202 0.08767 0.0
O79 O 0.64879 0.30851 0.16802 0.0
O80 O 0.56994 0.3209 0.15191 0.0
C81 C 0.73234 0.29571 0.07843 0.0
O82 O 0.65616 0.22777 0.09005 0.0
O83 O 0.66522 0.2377 0.1366 0.0
C84 C 0.52808 0.28881 0.09154 0.0
O85 O 0.69044 0.30598 0.06626 0.0
O86 O 0.73306 0.28428 0.10492 0.0
C87 C 0.68566 0.39314 0.13933 0.0
Fe88 Fe 0.59143 0.6665 0.62193 0.0
Fe89 Fe 0.63346 0.73618 0.57834 0.0
O90 O 0.63769 0.709 0.61222 0.0
Fe91 Fe 0.6883 0.72338 0.63619 0.0
O92 O 0.71175 0.66352 0.63579 0.0
O93 O 0.63616 0.63164 0.64437 0.0
O94 O 0.61111 0.62928 0.59299 0.0
C95 C 0.60689 0.64034 0.56703 0.0
C96 C 0.59908 0.71419 0.67202 0.0
O97 O 0.60523 0.68359 0.55977 0.0
C98 C 0.66713 0.81048 0.61588 0.0
O99 O 0.53815 0.69278 0.60044 0.0
O100 O 0.57089 0.76006 0.58669 0.0
O101 O 0.6482 0.71399 0.66907 0.0
O102 O 0.57025 0.7019 0.65155 0.0
C103 C 0.73661 0.72495 0.58077 0.0
O104 O 0.6613 0.79321 0.59079 0.0
O105 O 0.66812 0.78396 0.63754 0.0
C106 C 0.53227 0.7338 0.58998 0.0
O107 O 0.6954 0.71365 0.5683 0.0
O108 O 0.73651 0.736 0.60731 0.0
C109 C 0.68481 0.62789 0.64161 0.0
Fe110 Fe 0.92753 0.85706 0.11807 0.0
Fe111 Fe 0.88721 0.78211 0.07708 0.0
O112 O 0.88275 0.81219 0.1101 0.0
Fe113 Fe 0.83306 0.79832 0.13461 0.0
O114 O 0.80782 0.85722 0.1327 0.0
O115 O 0.88184 0.89307 0.13919 0.0
O116 O 0.90664 0.89057 0.08737 0.0
C117 C 0.91344 0.87636 0.06215 0.0
C118 C 0.92218 0.81337 0.16986 0.0
O119 O 0.91578 0.83245 0.05705 0.0
C120 C 0.85466 0.7105 0.11639 0.0
O121 O 0.9814 0.82912 0.09795 0.0
O122 O 0.95027 0.75968 0.0865 0.0
O123 O 0.87316 0.81077 0.16704 0.0
O124 O 0.95018 0.82599 0.14916 0.0
C125 C 0.78365 0.79599 0.07992 0.0
O126 O 0.85933 0.72629 0.09095 0.0
O127 O 0.85477 0.73831 0.13742 0.0
C128 C 0.98842 0.78688 0.08959 0.0
O129 O 0.82476 0.80363 0.06624 0.0
O130 O 0.78493 0.78356 0.10621 0.0
C131 C 0.83304 0.89442 0.13673 0.0
Fe132 Fe 0.09195 0.85673 0.41376 0.0
Fe133 Fe 0.13038 0.78517 0.45721 0.0
O134 O 0.1364 0.81279 0.42359 0.0
Fe135 Fe 0.18698 0.79735 0.40002 0.0
O136 O 0.21237 0.85628 0.40115 0.0
O137 O 0.13859 0.89071 0.39186 0.0
O138 O 0.11229 0.89274 0.44316 0.0
C139 C 0.10635 0.88131 0.46895 0.0
C140 C 0.099 0.80954 0.36348 0.0
O141 O 0.10295 0.83799 0.47582 0.0
C142 C 0.1629 0.71078 0.41967 0.0
O143 O 0.03724 0.83137 0.43464 0.0
O144 O 0.06758 0.76288 0.44782 0.0
O145 O 0.14805 0.80826 0.3668 0.0
O146 O 0.07021 0.82253 0.38376 0.0
C147 C 0.23394 0.79475 0.45582 0.0
O148 O 0.15721 0.72789 0.44477 0.0
O149 O 0.16469 0.7375 0.39815 0.0
C150 C 0.02982 0.79013 0.44453 0.0
O151 O 0.19258 0.80612 0.46809 0.0
O152 O 0.23409 0.78341 0.4293 0.0
C153 C 0.18721 0.89291 0.39543 0.0
Fe154 Fe 0.38355 0.73808 0.95821 0.0
Fe155 Fe 0.33151 0.72343 0.89975 0.0
O156 O 0.38106 0.70979 0.92454 0.0
Fe157 Fe 0.42757 0.66672 0.91618 0.0
O158 O 0.4069 0.6308 0.94586 0.0
O159 O 0.41284 0.68733 0.97754 0.0
O160 O 0.32149 0.71433 0.9678 0.0
C161 C 0.28056 0.72226 0.95402 0.0
C162 C 0.48543 0.73664 0.94683 0.0
O163 O 0.28218 0.73564 0.92791 0.0
C164 C 0.42209 0.7126 0.86515 0.0
O165 O 0.35435 0.79387 0.94513 0.0
O166 O 0.35129 0.78451 0.89831 0.0
O167 O 0.47981 0.69486 0.93741 0.0
O168 O 0.44643 0.76271 0.95025 0.0
C169 C 0.33525 0.62719 0.89597 0.0
O170 O 0.37294 0.71364 0.86755 0.0
O171 O 0.45 0.7002 0.88597 0.0
C172 C 0.35035 0.81108 0.91999 0.0
O173 O 0.30815 0.66332 0.90022 0.0
O174 O 0.38395 0.63068 0.89393 0.0
C175 C 0.41161 0.64371 0.97148 0.0
H176 H 0.15109 0.97987 0.37858 0.0
H177 H 0.28551 0.9098 0.4136 0.0
H178 H 0.19562 0.05577 0.38338 0.0
H179 H 0.32908 0.98529 0.41868 0.0
H180 H 0.35238 0.13747 0.45719 0.0
H181 H 0.31288 0.05985 0.45004 0.0
H182 H 0.27811 0.09578 0.36207 0.0
H183 H 0.31803 0.17255 0.36879 0.0
C184 C 0.19015 0.98055 0.38698 0.0
C185 C 0.21476 0.93871 0.39549 0.0
C186 C 0.21559 0.02391 0.38976 0.0
C187 C 0.26565 0.02626 0.40156 0.0
C188 C 0.29037 0.98449 0.40977 0.0
C189 C 0.26542 0.94123 0.40657 0.0
C190 C 0.33703 0.12855 0.43622 0.0
C191 C 0.33843 0.16136 0.41363 0.0
C192 C 0.31435 0.08421 0.43215 0.0
C193 C 0.29198 0.07217 0.40557 0.0
C194 C 0.29445 0.10444 0.38286 0.0
C195 C 0.31778 0.1483 0.38674 0.0
H196 H 0.15248 0.36907 0.87889 0.0
H197 H 0.22989 0.35896 0.9609 0.0
H198 H 0.19106 0.44672 0.87121 0.0
H199 H 0.26897 0.43647 0.953 0.0
H200 H 0.37982 0.54259 0.90875 0.0
H201 H 0.33638 0.46715 0.91644 0.0
H202 H 0.19043 0.53013 0.89313 0.0
H203 H 0.23365 0.60587 0.8858 0.0
C204 C 0.17709 0.3838 0.89547 0.0
C205 C 0.18794 0.35802 0.92056 0.0
C206 C 0.19918 0.42819 0.89105 0.0
C207 C 0.23341 0.4474 0.91137 0.0
C208 C 0.24314 0.42226 0.93684 0.0
C209 C 0.22027 0.37818 0.94151 0.0
C210 C 0.33862 0.5402 0.90477 0.0
C211 C 0.31026 0.58017 0.89644 0.0
C212 C 0.31367 0.49715 0.90955 0.0
C213 C 0.25996 0.4929 0.90564 0.0
C214 C 0.23187 0.53238 0.89628 0.0
C215 C 0.25665 0.57567 0.89202 0.0
H216 H 0.64127 0.54229 0.63011 0.0
H217 H 0.78594 0.60815 0.65344 0.0
H218 H 0.68623 0.4673 0.62316 0.0
H219 H 0.83051 0.53283 0.64716 0.0
H220 H 0.86952 0.37058 0.66064 0.0
H221 H 0.82838 0.44696 0.66952 0.0
H222 H 0.75798 0.44164 0.5855 0.0
H223 H 0.79985 0.36585 0.57633 0.0
C224 C 0.68239 0.54051 0.63441 0.0
C225 C 0.71004 0.5811 0.64239 0.0
C226 C 0.70817 0.49775 0.63013 0.0
C227 C 0.76189 0.49449 0.63437 0.0
C228 C 0.78911 0.53443 0.64374 0.0
C229 C 0.76355 0.57744 0.6474 0.0
C230 C 0.84607 0.38622 0.64387 0.0
C231 C 0.83825 0.36243 0.61771 0.0
C232 C 0.82245 0.42976 0.64899 0.0
C233 C 0.78959 0.44982 0.62832 0.0
C234 C 0.78273 0.42664 0.60191 0.0
C235 C 0.80723 0.3836 0.59653 0.0
H236 H 0.6695 0.14018 0.07475 0.0
H237 H 0.69601 0.16978 0.16476 0.0
H238 H 0.70903 0.06237 0.0811 0.0
H239 H 0.73605 0.09305 0.17064 0.0
H240 H 0.86712 0.98147 0.15449 0.0
H241 H 0.82162 0.05681 0.14958 0.0
H242 H 0.69151 0.98529 0.11118 0.0
H243 H 0.73607 0.91025 0.11641 0.0
C244 C 0.68307 0.13001 0.09587 0.0
C245 C 0.67972 0.16141 0.11915 0.0
C246 C 0.70578 0.0856 0.09948 0.0
C247 C 0.72616 0.0722 0.12629 0.0
C248 C 0.72134 0.10287 0.14968 0.0
C249 C 0.69799 0.14673 0.14625 0.0
C250 C 0.82861 0.98182 0.14533 0.0
C251 C 0.80508 0.93986 0.13612 0.0
C252 C 0.80263 0.02482 0.1425 0.0
C253 C 0.75319 0.02667 0.12989 0.0
C254 C 0.72969 0.9848 0.12077 0.0
C255 C 0.75514 0.94184 0.12406 0.0
H256 H 0.73625 0.1128 0.61667 0.0
H257 H 0.8668 0.04418 0.65678 0.0
H258 H 0.69318 0.03688 0.61126 0.0
H259 H 0.82293 0.96809 0.65168 0.0
H260 H 0.70069 0.85192 0.66543 0.0
H261 H 0.73906 0.92939 0.67149 0.0
H262 H 0.71158 0.95988 0.582 0.0
H263 H 0.67364 0.88135 0.5755 0.0
C264 C 0.75549 0.08162 0.62474 0.0
C265 C 0.8049 0.08464 0.63741 0.0
C266 C 0.73093 0.03811 0.62134 0.0
C267 C 0.75474 0.99666 0.63096 0.0
C268 C 0.80359 0.99962 0.64421 0.0
C269 C 0.82867 0.04312 0.64715 0.0
C270 C 0.70223 0.87505 0.64696 0.0
C271 C 0.68412 0.86012 0.61986 0.0
C272 C 0.72465 0.9194 0.65049 0.0
C273 C 0.72877 0.95041 0.6272 0.0
C274 C 0.70881 0.93656 0.60034 0.0
C275 C 0.68705 0.89167 0.59664 0.0
H276 H 0.81549 0.67364 0.166 0.0
H277 H 0.85071 0.63714 0.07794 0.0
H278 H 0.77515 0.59703 0.17291 0.0
H279 H 0.81081 0.5598 0.08526 0.0
H280 H 0.78418 0.4105 0.12193 0.0
H281 H 0.82736 0.48608 0.11707 0.0
H282 H 0.69287 0.55614 0.1514 0.0
H283 H 0.64864 0.48001 0.15598 0.0
C284 C 0.81534 0.6491 0.14818 0.0
C285 C 0.83641 0.66164 0.12132 0.0
C286 C 0.79176 0.60537 0.15216 0.0
C287 C 0.78949 0.57279 0.12959 0.0
C288 C 0.81214 0.5844 0.10304 0.0
C289 C 0.83505 0.62857 0.09887 0.0
C290 C 0.76373 0.44183 0.12878 0.0
C291 C 0.71285 0.43912 0.13949 0.0
C292 C 0.78849 0.48516 0.12573 0.0
C293 C 0.76337 0.52684 0.13369 0.0
C294 C 0.71312 0.52433 0.1452 0.0
C295 C 0.68785 0.48085 0.14785 0.0
H296 H 0.23683 0.41049 0.41921 0.0
H297 H 0.36672 0.48082 0.37945 0.0
H298 H 0.19258 0.48563 0.4244 0.0
H299 H 0.3215 0.55633 0.38437 0.0
H300 H 0.19551 0.66946 0.36996 0.0
H301 H 0.23577 0.59279 0.36406 0.0
H302 H 0.21047 0.56275 0.4538 0.0
H303 H 0.17071 0.64044 0.46015 0.0
C304 C 0.25574 0.44191 0.4112 0.0
C305 C 0.30527 0.43962 0.39868 0.0
C306 C 0.23046 0.48495 0.41447 0.0
C307 C 0.25368 0.52663 0.40488 0.0
C308 C 0.3027 0.5245 0.39182 0.0
C309 C 0.32854 0.48139 0.38899 0.0
C310 C 0.19791 0.64655 0.38851 0.0
C311 C 0.18 0.66135 0.41565 0.0
C312 C 0.22142 0.60274 0.38507 0.0
C313 C 0.22677 0.57224 0.40851 0.0
C314 C 0.20681 0.58581 0.43538 0.0
C315 C 0.18395 0.63015 0.43899 0.0
H316 H 0.13744 0.04298 0.90186 0.0
H317 H 0.2838 0.10616 0.87922 0.0
H318 H 0.18068 0.96722 0.90909 0.0
H319 H 0.32662 0.03009 0.88573 0.0
H320 H 0.3647 0.86797 0.87337 0.0
H321 H 0.32424 0.94444 0.86389 0.0
H322 H 0.25066 0.9398 0.947 0.0
H323 H 0.29188 0.86387 0.95679 0.0
C324 C 0.17856 0.04048 0.89775 0.0
C325 C 0.20714 0.08063 0.88994 0.0
C326 C 0.20339 0.99723 0.9022 0.0
C327 C 0.25709 0.99293 0.89825 0.0
C328 C 0.28521 0.0324 0.88893 0.0
C329 C 0.26062 0.07588 0.88513 0.0
C330 C 0.34061 0.88371 0.88981 0.0
C331 C 0.33185 0.86008 0.91592 0.0
C332 C 0.31737 0.92735 0.88434 0.0
C333 C 0.28389 0.94777 0.90458 0.0
C334 C 0.27587 0.92461 0.9309 0.0
C335 C 0.3 0.88145 0.93664 0.0
H336 H 0.50468 0.36749 0.50186 0.0
H337 H 0.38403 0.46654 0.48133 0.0
H338 H 0.55815 0.43091 0.51997 0.0
H339 H 0.43479 0.53008 0.50236 0.0
H340 H 0.54776 0.64566 0.51775 0.0
H341 H 0.5025 0.58001 0.49491 0.0
H342 H 0.57769 0.48342 0.5536 0.0
H343 H 0.6259 0.54767 0.57382 0.0
C344 C 0.48876 0.40273 0.50247 0.0
C345 C 0.44027 0.41216 0.49037 0.0
C346 C 0.51948 0.43947 0.51284 0.0
C347 C 0.50154 0.48643 0.5124 0.0
C348 C 0.45109 0.49499 0.5022 0.0
C349 C 0.42122 0.45841 0.49086 0.0
C350 C 0.55597 0.61009 0.52481 0.0
C351 C 0.58995 0.60192 0.54776 0.0
C352 C 0.52905 0.57238 0.51227 0.0
C353 C 0.53487 0.526 0.52285 0.0
C354 C 0.57183 0.51801 0.54446 0.0
C355 C 0.59953 0.55524 0.55631 0.0
H356 H 0.88467 0.96691 0.05306 0.0
H357 H 0.99899 0.86347 0.02945 0.0
H358 H 0.9376 0.02885 0.03199 0.0
H359 H 0.05445 0.92523 1.01086 0.0
H360 H 0.12278 0.04249 0.95685 0.0
H361 H 0.07295 0.97889 0.97688 0.0
H362 H 1.00985 0.07416 0.0405 0.0
H363 H 0.0569 0.13928 0.01831 0.0
C364 C 0.92085 0.95747 0.04282 0.0
C365 C 0.93762 0.91049 0.04259 0.0
C366 C 0.95195 0.99307 0.03143 0.0
C367 C 1.00128 0.98265 0.02032 0.0
C368 C 0.01672 0.93506 0.0189 0.0
C369 C 0.98482 0.89935 0.02947 0.0
C370 C 0.09877 0.04984 0.97539 0.0
C371 C 0.093 0.09614 0.98564 0.0
C372 C 0.07018 0.01304 0.98708 0.0
C373 C 0.03603 0.02113 1.01001 0.0
C374 C 0.03416 0.06674 0.02213 0.0
C375 C 0.06209 0.10402 1.00991 0.0
H376 H 0.88281 0.05414 0.55486 0.0
H377 H 1.00225 0.15371 0.53298 0.0
H378 H 0.93379 0.99057 0.53412 0.0
H379 H 0.05611 0.09042 0.51539 0.0
H380 H 0.1246 0.97412 0.46211 0.0
H381 H 0.07594 0.03792 0.4822 0.0
H382 H 1.00155 0.94096 0.541 0.0
H383 H 0.04711 0.87561 0.51815 0.0
C384 C 0.91981 0.06234 0.54515 0.0
C385 C 0.93843 0.10875 0.5451 0.0
C386 C 0.94982 0.02577 0.53397 0.0
C387 C 1.00004 0.03456 0.52348 0.0
C388 C 0.01759 0.08163 0.52267 0.0
C389 C 0.98666 0.11831 0.53278 0.0
C390 C 0.0983 0.96634 0.47961 0.0
C391 C 0.089 0.91961 0.48816 0.0
C392 C 0.07034 1.00335 0.49142 0.0
C393 C 0.03351 0.99515 0.51304 0.0
C394 C 0.02798 0.94875 0.52363 0.0
C395 C 0.05507 0.91122 0.51109 0.0
H396 H 0.37878 0.55444 0.98127 0.0
H397 H 0.49925 0.65345 1.00244 0.0
H398 H 0.4294 0.49077 1.00218 0.0
H399 H 0.5527 0.59001 0.02026 0.0
H400 H 0.6216 0.47364 0.07326 0.0
H401 H 0.57274 0.53756 0.05344 0.0
H402 H 0.49664 0.44068 0.99516 0.0
H403 H 0.54245 0.37523 0.01776 0.0
C404 C 0.41587 0.56253 0.99097 0.0
C405 C 0.43487 0.6088 0.99079 0.0
C406 C 0.44569 0.52587 1.00221 0.0
C407 C 0.49609 0.53443 1.01252 0.0
C408 C 0.51402 0.58141 1.01314 0.0
C409 C 0.48331 0.61819 1.00295 0.0
C410 C 0.59487 0.4659 0.05593 0.0
C411 C 0.58525 0.41918 0.04744 0.0
C412 C 0.56679 0.50298 0.04428 0.0
C413 C 0.52947 0.49487 0.02288 0.0
C414 C 0.52348 0.44844 1.01236 0.0
C415 C 0.55073 0.41084 0.02475 0.0
H416 H 0.64239 0.32297 0.22517 0.0
H417 H 0.50361 0.2749 0.18277 0.0
H418 H 0.59783 0.31963 0.27139 0.0
H419 H 0.45968 0.26944 0.2288 0.0
H420 H 0.37749 0.32287 0.31004 0.0
H421 H 0.42231 0.31753 0.26394 0.0
H422 H 0.56162 0.27349 0.30777 0.0
H423 H 0.51745 0.28093 0.35359 0.0
C424 C 0.60278 0.31061 0.22583 0.0
C425 C 0.57647 0.29951 0.20034 0.0
C426 C 0.57705 0.30859 0.25234 0.0
C427 C 0.52466 0.29471 0.25399 0.0
C428 C 0.4994 0.28149 0.22848 0.0
C429 C 0.52482 0.28416 0.20206 0.0
C430 C 0.41748 0.31156 0.30969 0.0
C431 C 0.44398 0.30273 0.33544 0.0
C432 C 0.44333 0.30834 0.28325 0.0
C433 C 0.49605 0.29547 0.28196 0.0
C434 C 0.52161 0.28469 0.30778 0.0
C435 C 0.49606 0.28857 0.33411 0.0
H436 H 0.99458 0.20833 0.85211 0.0
H437 H 0.1404 0.24542 0.81287 0.0
H438 H 0.95216 0.21295 0.80588 0.0
H439 H 0.09713 0.25226 0.76637 0.0
H440 H 0.02104 0.19475 0.68511 0.0
H441 H 0.06248 0.20245 0.73133 0.0
H442 H 0.9208 0.25772 0.76722 0.0
H443 H 0.87818 0.24801 0.72059 0.0
C444 C 0.01762 0.21829 0.83365 0.0
C445 C 0.07129 0.22591 0.83627 0.0
C446 C 0.99294 0.22136 0.80701 0.0
C447 C 0.02097 0.23268 0.78211 0.0
C448 C 0.0743 0.24243 0.78491 0.0
C449 C 0.0992 0.23884 0.81163 0.0
C450 C 0.99843 0.20876 0.70274 0.0
C451 C 0.94589 0.22044 0.69903 0.0
C452 C 0.02263 0.21366 0.72937 0.0
C453 C 0.99538 0.23091 0.75324 0.0
C454 C 0.94301 0.24366 0.74947 0.0
C455 C 0.91849 0.2383 0.72271 0.0
H456 H 0.38112 0.74836 0.81495 0.0
H457 H 0.52255 0.69408 0.85168 0.0
H458 H 0.42494 0.75769 0.76876 0.0
H459 H 0.56523 0.70126 0.80576 0.0
H460 H 0.64381 0.74129 0.72341 0.0
H461 H 0.60111 0.74939 0.77006 0.0
H462 H 0.45524 0.7109 0.7311 0.0
H463 H 0.49689 0.70507 0.68492 0.0
C464 C 0.42139 0.73835 0.81319 0.0
C465 C 0.44801 0.7202 0.83703 0.0
C466 C 0.4466 0.74349 0.78668 0.0
C467 C 0.49883 0.73005 0.78332 0.0
C468 C 0.52547 0.71285 0.80742 0.0
C469 C 0.50058 0.70827 0.83385 0.0
C470 C 0.60257 0.73511 0.72485 0.0
C471 C 0.5741 0.72216 0.70038 0.0
C472 C 0.578 0.73947 0.75162 0.0
C473 C 0.52451 0.73057 0.75455 0.0
C474 C 0.49611 0.71888 0.72984 0.0
C475 C 0.5204 0.71503 0.70322 0.0
H476 H 0.022 0.83392 0.18383 0.0
H477 H 0.88132 0.777 0.21995 0.0
H478 H 0.0647 0.82645 0.22978 0.0
H479 H 0.92516 0.76756 0.26618 0.0
H480 H 0.14389 0.78409 0.31178 0.0
H481 H 0.10115 0.77724 0.26499 0.0
H482 H 0.95518 0.8139 0.30428 0.0
H483 H 0.99683 0.81858 0.35053 0.0
C484 C 1.00017 0.81919 0.20154 0.0
C485 C 0.94783 0.80647 0.19817 0.0
C486 C 0.02509 0.81443 0.22798 0.0
C487 C 0.9987 0.79633 0.2519 0.0
C488 C 0.94663 0.78239 0.24839 0.0
C489 C 0.9214 0.78764 0.22187 0.0
C490 C 0.10263 0.79013 0.31038 0.0
C491 C 0.07414 0.80227 0.33496 0.0
C492 C 0.07804 0.7865 0.28353 0.0
C493 C 0.0245 0.79524 0.28067 0.0
C494 C 0.9961 0.8061 0.30548 0.0
C495 C 0.02041 0.80929 0.33215 0.0
H496 H 0.52312 0.20083 0.46137 0.0
H497 H 0.56848 0.34736 0.46032 0.0
H498 H 0.59245 0.18381 0.49536 0.0
H499 H 0.63748 0.33021 0.49459 0.0
H500 H 0.70731 0.29158 0.58287 0.0
H501 H 0.63835 0.30524 0.54759 0.0
H502 H 0.68952 0.18418 0.49917 0.0
H503 H 0.7582 0.17074 0.53421 0.0
C504 C 0.54849 0.22924 0.46794 0.0
C505 C 0.53993 0.27554 0.45827 0.0
C506 C 0.58805 0.2195 0.48752 0.0
C507 C 0.61962 0.25587 0.49807 0.0
C508 C 0.61297 0.30167 0.48725 0.0
C509 C 0.5739 0.31132 0.46731 0.0
C510 C 0.70292 0.26734 0.56505 0.0
C511 C 0.73781 0.22999 0.56129 0.0
C512 C 0.66407 0.27553 0.54465 0.0
C513 C 0.65905 0.24607 0.52046 0.0
C514 C 0.69243 0.20741 0.51757 0.0
C515 C 0.73162 0.19968 0.53765 0.0
H516 H 0.02742 0.30399 0.98857 0.0
H517 H 0.94236 0.19094 0.94788 0.0
H518 H 0.95478 0.31865 0.02053 0.0
H519 H 0.86907 0.20659 0.97981 0.0
H520 H 0.73342 0.29063 0.0201 0.0
H521 H 0.80619 0.27623 0.98851 0.0
H522 H 0.90854 0.2711 0.06168 0.0
H523 H 0.83481 0.28497 0.09396 0.0
C524 C 0.99301 0.28262 0.9861 0.0
C525 C 0.9908 0.2462 0.96552 0.0
C526 C 0.95164 0.29081 1.0047 0.0
C527 C 0.90668 0.26343 1.00286 0.0
C528 C 0.90347 0.22817 0.98168 0.0
C529 C 0.94528 0.21938 0.96332 0.0
C530 C 0.77133 0.28666 0.02969 0.0
C531 C 0.77823 0.28909 0.05971 0.0
C532 C 0.81296 0.27802 1.01146 0.0
C533 C 0.86282 0.27231 0.02263 0.0
C534 C 0.8703 0.27551 0.05255 0.0
C535 C 0.82823 0.28337 0.07099 0.0
H536 H 0.06683 0.17481 0.57325 0.0
H537 H 0.02263 0.32158 0.57207 0.0
H538 H 0.13672 0.19173 0.5395 0.0
H539 H 0.09318 0.33841 0.53877 0.0
H540 H 0.26171 0.34899 0.50206 0.0
H541 H 0.19211 0.33584 0.53661 0.0
H542 H 0.13736 0.21858 0.48594 0.0
H543 H 0.20694 0.23215 0.45104 0.0
C544 C 0.07268 0.21085 0.56635 0.0
C545 C 0.03879 0.24678 0.57519 0.0
C546 C 0.1123 0.22037 0.54673 0.0
C547 C 0.11968 0.2662 0.53613 0.0
C548 C 0.08815 0.30271 0.54647 0.0
C549 C 0.04793 0.29306 0.56565 0.0
C550 C 0.23421 0.32093 0.49805 0.0
C551 C 0.2395 0.29169 0.47384 0.0
C552 C 0.19451 0.31338 0.51784 0.0
C553 C 0.1598 0.27587 0.51412 0.0
C554 C 0.16408 0.2474 0.48947 0.0
C555 C 0.20335 0.25552 0.46933 0.0
H556 H 0.45752 0.3493 0.06769 0.0
H557 H 0.49302 0.20159 0.07764 0.0
H558 H 0.39107 0.32944 0.03228 0.0
H559 H 0.42785 0.18186 0.04192 0.0
H560 H 0.27101 0.16283 0.99746 0.0
H561 H 0.33675 0.18056 0.03317 0.0
H562 H 0.38718 0.29962 0.9826 0.0
H563 H 0.31991 0.28231 0.94697 0.0
C564 C 0.45022 0.31255 0.06289 0.0
C565 C 0.48027 0.27696 0.07562 0.0
C566 C 0.41291 0.30123 0.04217 0.0
C567 C 0.4047 0.2541 0.03391 0.0
C568 C 0.43297 0.21848 0.04779 0.0
C569 C 0.47023 0.22977 0.06837 0.0
C570 C 0.29685 0.19223 0.99365 0.0
C571 C 0.29047 0.22107 0.96937 0.0
C572 C 0.33452 0.20246 1.01417 0.0
C573 C 0.36686 0.24187 1.01097 0.0
C574 C 0.36221 0.26949 0.98595 0.0
C575 C 0.32442 0.25909 0.96526 0.0
H576 H 0.51619 0.81034 0.55556 0.0
H577 H 0.44265 0.6824 0.58522 0.0
H578 H 0.44595 0.82277 0.5216 0.0
H579 H 0.37173 0.69573 0.55135 0.0
H580 H 0.23068 0.77443 0.51252 0.0
H581 H 0.30177 0.75953 0.54511 0.0
H582 H 0.41032 0.77847 0.47567 0.0
H583 H 0.33807 0.79316 0.44227 0.0
C584 C 0.48473 0.78515 0.55519 0.0
C585 C 0.48514 0.74525 0.57322 0.0
C586 C 0.44488 0.79209 0.53542 0.0
C587 C 0.40403 0.75984 0.53356 0.0
C588 C 0.40308 0.721 0.55231 0.0
C589 C 0.44342 0.7136 0.57184 0.0
C590 C 0.26962 0.7756 0.50398 0.0
C591 C 0.27879 0.78545 0.47474 0.0
C592 C 0.31029 0.7666 0.52273 0.0
C593 C 0.36136 0.76779 0.51292 0.0
C594 C 0.37104 0.77757 0.48372 0.0
C595 C 0.32992 0.78581 0.46465 0.0
H596 H 0.06552 0.84588 0.0713 0.0
H597 H 0.01943 0.69952 0.07218 0.0
H598 H 0.13349 0.82739 0.03672 0.0
H599 H 0.08759 0.68119 0.03779 0.0
H600 H 0.25269 0.66644 0.99839 0.0
H601 H 0.18402 0.68062 0.03324 0.0
H602 H 0.13359 0.80128 0.98421 0.0
H603 H 0.20266 0.78693 0.94917 0.0
C604 C 0.07057 0.80961 0.06466 0.0
C605 C 0.03673 0.77423 0.07435 0.0
C606 C 0.10901 0.79919 0.04452 0.0
C607 C 0.11507 0.75304 0.03413 0.0
C608 C 0.08361 0.71713 0.04529 0.0
C609 C 0.04474 0.72762 0.0651 0.0
C610 C 0.22615 0.69536 0.99473 0.0
C611 C 0.23268 0.72545 0.97104 0.0
C612 C 0.18699 0.70354 1.01471 0.0
C613 C 0.15395 0.74239 1.01164 0.0
C614 C 0.15907 0.77143 0.98729 0.0
C615 C 0.19795 0.76283 0.96701 0.0
H616 H 0.94565 0.84699 0.45428 0.0
H617 H 1.00777 0.70915 0.47364 0.0
H618 H 0.87612 0.83345 0.48894 0.0
H619 H 0.93907 0.69644 0.50846 0.0
H620 H 0.8414 0.71804 0.59185 0.0
H621 H 0.91216 0.73454 0.55777 0.0
H622 H 0.80043 0.77549 0.49354 0.0
H623 H 0.73079 0.75888 0.52684 0.0
C624 C 0.94409 0.8136 0.46549 0.0
C625 C 0.98238 0.77924 0.46111 0.0
C626 C 0.90462 0.80606 0.48553 0.0
C627 C 0.90305 0.76429 0.50176 0.0
C628 C 0.94015 0.72936 0.49671 0.0
C629 C 0.97907 0.73653 0.47644 0.0
C630 C 0.83231 0.73074 0.5705 0.0
C631 C 0.78072 0.7365 0.56189 0.0
C632 C 0.87252 0.74 0.55103 0.0
C633 C 0.8615 0.75622 0.52305 0.0
C634 C 0.81002 0.76332 0.51495 0.0
C635 C 0.77018 0.75333 0.53403 0.0
H636 H 0.75596 0.85213 0.03555 0.0
H637 H 0.70452 0.7326 0.08521 0.0
H638 H 0.68469 0.84019 1.00179 0.0
H639 H 0.63339 0.72018 0.05106 0.0
H640 H 0.5647 0.67836 0.96269 0.0
H641 H 0.63393 0.69574 0.99672 0.0
H642 H 0.5844 0.84068 1.00071 0.0
H643 H 0.51425 0.82333 0.96708 0.0
C644 C 0.72877 0.82379 0.03947 0.0
C645 C 0.73551 0.79335 0.06299 0.0
C646 C 0.68813 0.81696 0.02015 0.0
C647 C 0.65403 0.77896 0.02365 0.0
C648 C 0.65961 0.74944 0.04774 0.0
C649 C 0.69979 0.75686 0.06744 0.0
C650 C 0.56895 0.71415 0.9704 0.0
C651 C 0.53359 0.74939 0.9623 0.0
C652 C 0.60824 0.7239 0.99017 0.0
C653 C 0.6138 0.76931 1.00173 0.0
C654 C 0.58068 0.80528 0.99226 0.0
C655 C 0.54073 0.79536 0.9729 0.0
loop_
_geom_bond_atom_site_label_1
_geom_bond_atom_site_label_2
_geom_bond_distance
_geom_bond_site_symmetry_2
_ccdc_geom_bond_type
Fe0 O2 1.918 . S
Fe0 O5 1.997 . S
Fe0 O6 2.002 . S
Fe0 O11 1.976 . S
Fe0 O14 1.996 . S
Fe1 O2 1.918 . S
Fe1 O9 1.997 . S
Fe1 O12 1.996 . S
Fe1 O16 1.976 . S
Fe1 O19 2.002 . S
O2 Fe0 1.918 . S
O2 Fe1 1.918 . S
O2 Fe3 1.918 . S
Fe3 O2 1.918 . S
Fe3 O4 2.002 . S
Fe3 O13 1.976 . S
Fe3 O17 1.996 . S
Fe3 O20 1.997 . S
O4 Fe3 2.002 . S
O4 C21 1.295 . S
O5 Fe0 1.997 . S
O5 C21 1.235 . S
O6 Fe0 2.002 . S
O6 C7 1.295 . S
C7 O6 1.295 . S
C7 O9 1.235 . S
C8 O13 1.287 . S
C8 O14 1.255 . S
O9 Fe1 1.997 . S
O9 C7 1.235 . S
C10 O16 1.287 . S
C10 O17 1.255 . S
O11 Fe0 1.976 . S
O11 C18 1.287 . S
O12 Fe1 1.996 . S
O12 C18 1.255 . S
O13 Fe3 1.976 . S
O13 C8 1.287 . S
O14 Fe0 1.996 . S
O14 C8 1.255 . S
C15 O19 1.295 . S
C15 O20 1.235 . S
O16 Fe1 1.976 . S
O16 C10 1.287 . S
O17 Fe3 1.996 . S
O17 C10 1.255 . S
C18 O11 1.287 . S
C18 O12 1.255 . S
O19 Fe1 2.002 . S
O19 C15 1.295 . S
O20 Fe3 1.997 . S
O20 C15 1.235 . S
C21 O4 1.295 . S
C21 O5 1.235 . S
Fe22 O24 1.918 . S
Fe22 O27 1.997 . S
Fe22 O28 2.002 . S
Fe22 O33 1.976 . S
Fe22 O36 1.996 . S
Fe23 O24 1.918 . S
Fe23 O31 1.997 . S
Fe23 O34 1.996 . S
Fe23 O38 1.976 . S
Fe23 O41 2.002 . S
O24 Fe22 1.918 . S
O24 Fe23 1.918 . S
O24 Fe25 1.918 . S
Fe25 O24 1.918 . S
Fe25 O26 2.002 . S
Fe25 O35 1.976 . S
Fe25 O39 1.996 . S
Fe25 O42 1.997 . S
O26 Fe25 2.002 . S
O26 C43 1.295 . S
O27 Fe22 1.997 . S
O27 C43 1.235 . S
O28 Fe22 2.002 . S
O28 C29 1.295 . S
C29 O28 1.295 . S
C29 O31 1.235 . S
C30 O35 1.287 . S
C30 O36 1.255 . S
O31 Fe23 1.997 . S
O31 C29 1.235 . S
C32 O38 1.285 1_655 S
C32 O39 1.246 1_655 S
O33 Fe22 1.976 . S
O33 C40 1.287 . S
O34 Fe23 1.996 . S
O34 C40 1.255 . S
O35 Fe25 1.976 . S
O35 C30 1.287 . S
O36 Fe22 1.996 . S
O36 C30 1.255 . S
C37 O41 1.295 . S
C37 O42 1.235 . S
O38 Fe23 1.976 . S
O38 C32 1.285 1_455 S
O39 Fe25 1.996 . S
O39 C32 1.246 1_455 S
C40 O33 1.287 . S
C40 O34 1.255 . S
O41 Fe23 2.002 . S
O41 C37 1.295 . S
O42 Fe25 1.997 . S
O42 C37 1.235 . S
C43 O26 1.295 . S
C43 O27 1.235 . S
Fe44 O46 1.918 . S
Fe44 O49 1.997 . S
Fe44 O50 2.002 . S
Fe44 O55 1.976 . S
Fe44 O58 1.996 . S
Fe45 O46 1.918 . S
Fe45 O53 1.997 . S
Fe45 O56 1.996 . S
Fe45 O60 1.976 . S
Fe45 O63 2.002 . S
O46 Fe44 1.918 . S
O46 Fe45 1.918 . S
O46 Fe47 1.918 . S
Fe47 O46 1.918 . S
Fe47 O48 2.002 . S
Fe47 O57 1.976 . S
Fe47 O61 1.996 . S
Fe47 O64 1.997 . S
O48 Fe47 2.002 . S
O48 C65 1.295 . S
O49 Fe44 1.997 . S
O49 C65 1.235 . S
O50 Fe44 2.002 . S
O50 C51 1.295 . S
C51 O50 1.295 . S
C51 O53 1.235 . S
C52 O57 1.287 . S
C52 O58 1.255 . S
O53 Fe45 1.997 . S
O53 C51 1.235 . S
C54 O60 1.287 . S
C54 O61 1.255 . S
O55 Fe44 1.976 . S
O55 C62 1.285 1_655 S
O56 Fe45 1.996 . S
O56 C62 1.246 1_655 S
O57 Fe47 1.976 . S
O57 C52 1.287 . S
O58 Fe44 1.996 . S
O58 C52 1.255 . S
C59 O63 1.295 . S
C59 O64 1.235 . S
O60 Fe45 1.976 . S
O60 C54 1.287 . S
O61 Fe47 1.996 . S
O61 C54 1.255 . S
C62 O55 1.285 1_455 S
C62 O56 1.246 1_455 S
O63 Fe45 2.002 . S
O63 C59 1.295 . S
O64 Fe47 1.997 . S
O64 C59 1.235 . S
C65 O48 1.295 . S
C65 O49 1.235 . S
Fe66 O68 1.918 . S
Fe66 O71 1.997 . S
Fe66 O72 2.002 . S
Fe66 O77 1.976 . S
Fe66 O80 1.996 . S
Fe67 O68 1.918 . S
Fe67 O75 1.997 . S
Fe67 O78 1.996 . S
Fe67 O82 1.976 . S
Fe67 O85 2.002 . S
O68 Fe66 1.918 . S
O68 Fe67 1.918 . S
O68 Fe69 1.918 . S
Fe69 O68 1.918 . S
Fe69 O70 2.002 . S
Fe69 O79 1.976 . S
Fe69 O83 1.996 . S
Fe69 O86 1.997 . S
O70 Fe69 2.002 . S
O70 C87 1.295 . S
O71 Fe66 1.997 . S
O71 C87 1.235 . S
O72 Fe66 2.002 . S
O72 C73 1.295 . S
C73 O72 1.295 . S
C73 O75 1.235 . S
C74 O79 1.287 . S
C74 O80 1.255 . S
O75 Fe67 1.997 . S
O75 C73 1.235 . S
C76 O82 1.287 . S
C76 O83 1.255 . S
O77 Fe66 1.976 . S
O77 C84 1.287 . S
O78 Fe67 1.996 . S
O78 C84 1.255 . S
O79 Fe69 1.976 . S
O79 C74 1.287 . S
O80 Fe66 1.996 . S
O80 C74 1.255 . S
C81 O85 1.295 . S
C81 O86 1.235 . S
O82 Fe67 1.976 . S
O82 C76 1.287 . S
O83 Fe69 1.996 . S
O83 C76 1.255 . S
C84 O77 1.287 . S
C84 O78 1.255 . S
O85 Fe67 2.002 . S
O85 C81 1.295 . S
O86 Fe69 1.997 . S
O86 C81 1.235 . S
C87 O70 1.295 . S
C87 O71 1.235 . S
Fe88 O90 1.918 . S
Fe88 O93 1.997 . S
Fe88 O94 2.002 . S
Fe88 O99 1.976 . S
Fe88 O102 1.996 . S
Fe89 O90 1.918 . S
Fe89 O97 1.997 . S
Fe89 O100 1.996 . S
Fe89 O104 1.976 . S
Fe89 O107 2.002 . S
O90 Fe88 1.918 . S
O90 Fe89 1.918 . S
O90 Fe91 1.918 . S
Fe91 O90 1.918 . S
Fe91 O92 2.002 . S
Fe91 O101 1.976 . S
Fe91 O105 1.996 . S
Fe91 O108 1.997 . S
O92 Fe91 2.002 . S
O92 C109 1.295 . S
O93 Fe88 1.997 . S
O93 C109 1.235 . S
O94 Fe88 2.002 . S
O94 C95 1.295 . S
C95 O94 1.295 . S
C95 O97 1.235 . S
C96 O101 1.287 . S
C96 O102 1.255 . S
O97 Fe89 1.997 . S
O97 C95 1.235 . S
C98 O104 1.287 . S
C98 O105 1.255 . S
O99 Fe88 1.976 . S
O99 C106 1.287 . S
O100 Fe89 1.996 . S
O100 C106 1.255 . S
O101 Fe91 1.976 . S
O101 C96 1.287 . S
O102 Fe88 1.996 . S
O102 C96 1.255 . S
C103 O107 1.295 . S
C103 O108 1.235 . S
O104 Fe89 1.976 . S
O104 C98 1.287 . S
O105 Fe91 1.996 . S
O105 C98 1.255 . S
C106 O99 1.287 . S
C106 O100 1.255 . S
O107 Fe89 2.002 . S
O107 C103 1.295 . S
O108 Fe91 1.997 . S
O108 C103 1.235 . S
C109 O92 1.295 . S
C109 O93 1.235 . S
Fe110 O112 1.918 . S
Fe110 O115 1.997 . S
Fe110 O116 2.002 . S
Fe110 O121 1.976 . S
Fe110 O124 1.996 . S
Fe111 O112 1.918 . S
Fe111 O119 1.997 . S
Fe111 O122 1.996 . S
Fe111 O126 1.976 . S
Fe111 O129 2.002 . S
O112 Fe110 1.918 . S
O112 Fe111 1.918 . S
O112 Fe113 1.918 . S
Fe113 O112 1.918 . S
Fe113 O114 2.002 . S
Fe113 O123 1.976 . S
Fe113 O127 1.996 . S
Fe113 O130 1.997 . S
O114 Fe113 2.002 . S
O114 C131 1.295 . S
O115 Fe110 1.997 . S
O115 C131 1.235 . S
O116 Fe110 2.002 . S
O116 C117 1.295 . S
C117 O116 1.295 . S
C117 O119 1.235 . S
C118 O123 1.287 . S
C118 O124 1.255 . S
O119 Fe111 1.997 . S
O119 C117 1.235 . S
C120 O126 1.287 . S
C120 O127 1.255 . S
O121 Fe110 1.976 . S
O121 C128 1.285 1_655 S
O122 Fe111 1.996 . S
O122 C128 1.246 1_655 S
O123 Fe113 1.976 . S
O123 C118 1.287 . S
O124 Fe110 1.996 . S
O124 C118 1.255 . S
C125 O129 1.295 . S
C125 O130 1.235 . S
O126 Fe111 1.976 . S
O126 C120 1.287 . S
O127 Fe113 1.996 . S
O127 C120 1.255 . S
C128 O121 1.285 1_455 S
C128 O122 1.246 1_455 S
O129 Fe111 2.002 . S
O129 C125 1.295 . S
O130 Fe113 1.997 . S
O130 C125 1.235 . S
C131 O114 1.295 . S
C131 O115 1.235 . S
Fe132 O134 1.918 . S
Fe132 O137 1.997 . S
Fe132 O138 2.002 . S
Fe132 O143 1.976 . S
Fe132 O146 1.996 . S
Fe133 O134 1.918 . S
Fe133 O141 1.997 . S
Fe133 O144 1.996 . S
Fe133 O148 1.976 . S
Fe133 O151 2.002 . S
O134 Fe132 1.918 . S
O134 Fe133 1.918 . S
O134 Fe135 1.918 . S
Fe135 O134 1.918 . S
Fe135 O136 2.002 . S
Fe135 O145 1.976 . S
Fe135 O149 1.996 . S
Fe135 O152 1.997 . S
O136 Fe135 2.002 . S
O136 C153 1.295 . S
O137 Fe132 1.997 . S
O137 C153 1.235 . S
O138 Fe132 2.002 . S
O138 C139 1.295 . S
C139 O138 1.295 . S
C139 O141 1.235 . S
C140 O145 1.287 . S
C140 O146 1.255 . S
O141 Fe133 1.997 . S
O141 C139 1.235 . S
C142 O148 1.287 . S
C142 O149 1.255 . S
O143 Fe132 1.976 . S
O143 C150 1.285 1_455 S
O144 Fe133 1.996 . S
O144 C150 1.246 1_455 S
O145 Fe135 1.976 . S
O145 C140 1.287 . S
O146 Fe132 1.996 . S
O146 C140 1.255 . S
C147 O151 1.295 . S
C147 O152 1.235 . S
O148 Fe133 1.976 . S
O148 C142 1.287 . S
O149 Fe135 1.996 . S
O149 C142 1.255 . S
C150 O143 1.285 1_655 S
C150 O144 1.246 1_655 S
O151 Fe133 2.002 . S
O151 C147 1.295 . S
O152 Fe135 1.997 . S
O152 C147 1.235 . S
C153 O136 1.295 . S
C153 O137 1.235 . S
Fe154 O156 1.918 . S
Fe154 O159 1.997 . S
Fe154 O160 2.002 . S
Fe154 O165 1.976 . S
Fe154 O168 1.996 . S
Fe155 O156 1.918 . S
Fe155 O163 1.997 . S
Fe155 O166 1.996 . S
Fe155 O170 1.976 . S
Fe155 O173 2.002 . S
O156 Fe154 1.918 . S
O156 Fe155 1.918 . S
O156 Fe157 1.918 . S
Fe157 O156 1.918 . S
Fe157 O158 2.002 . S
Fe157 O167 1.976 . S
Fe157 O171 1.996 . S
Fe157 O174 1.997 . S
O158 Fe157 2.002 . S
O158 C175 1.295 . S
O159 Fe154 1.997 . S
O159 C175 1.235 . S
O160 Fe154 2.002 . S
O160 C161 1.295 . S
C161 O160 1.295 . S
C161 O163 1.235 . S
C162 O167 1.287 . S
C162 O168 1.255 . S
O163 Fe155 1.997 . S
O163 C161 1.235 . S
C164 O170 1.287 . S
C164 O171 1.255 . S
O165 Fe154 1.976 . S
O165 C172 1.287 . S
O166 Fe155 1.996 . S
O166 C172 1.255 . S
O167 Fe157 1.976 . S
O167 C162 1.287 . S
O168 Fe154 1.996 . S
O168 C162 1.255 . S
C169 O173 1.295 . S
C169 O174 1.235 . S
O170 Fe155 1.976 . S
O170 C164 1.287 . S
O171 Fe157 1.996 . S
O171 C164 1.255 . S
C172 O165 1.287 . S
C172 O166 1.255 . S
O173 Fe155 2.002 . S
O173 C169 1.295 . S
O174 Fe157 1.997 . S
O174 C169 1.235 . S
C175 O158 1.295 . S
C175 O159 1.235 . S
H176 C184 0.950 . S
H177 C189 0.950 . S
H178 C186 0.950 . S
H179 C188 0.950 . S
H180 C190 0.950 . S
H181 C192 0.950 . S
H182 C194 0.950 . S
H183 C195 0.950 . S
C184 H176 0.950 . S
C184 C185 1.386 . S
C184 C186 1.391 1_565 S
C185 C184 1.386 . S
C185 C189 1.393 . S
C186 H178 0.950 . S
C186 C184 1.391 1_545 S
C186 C187 1.400 . S
C187 C186 1.400 . S
C187 C188 1.398 1_545 S
C187 C193 1.491 . S
C188 H179 0.950 . S
C188 C187 1.398 1_565 S
C188 C189 1.391 . S
C189 H177 0.950 . S
C189 C185 1.393 . S
C189 C188 1.391 . S
C190 H180 0.950 . S
C190 C191 1.386 . S
C190 C192 1.391 . S
C191 C190 1.386 . S
C191 C195 1.393 . S
C192 H181 0.950 . S
C192 C190 1.391 . S
C192 C193 1.400 . S
C193 C187 1.491 . S
C193 C192 1.400 . S
C193 C194 1.398 . S
C194 H182 0.950 . S
C194 C193 1.398 . S
C194 C195 1.391 . S
C195 H183 0.950 . S
C195 C191 1.393 . S
C195 C194 1.391 . S
H196 C204 0.950 . S
H197 C209 0.950 . S
H198 C206 0.950 . S
H199 C208 0.950 . S
H200 C210 0.950 . S
H201 C212 0.950 . S
H202 C214 0.950 . S
H203 C215 0.950 . S
C204 H196 0.950 . S
C204 C205 1.386 . S
C204 C206 1.391 . S
C205 C204 1.386 . S
C205 C209 1.393 . S
C206 H198 0.950 . S
C206 C204 1.391 . S
C206 C207 1.400 . S
C207 C206 1.400 . S
C207 C208 1.398 . S
C207 C213 1.491 . S
C208 H199 0.950 . S
C208 C207 1.398 . S
C208 C209 1.391 . S
C209 H197 0.950 . S
C209 C205 1.393 . S
C209 C208 1.391 . S
C210 H200 0.950 . S
C210 C211 1.386 . S
C210 C212 1.391 . S
C211 C210 1.386 . S
C211 C215 1.393 . S
C212 H201 0.950 . S
C212 C210 1.391 . S
C212 C213 1.400 . S
C213 C207 1.491 . S
C213 C212 1.400 . S
C213 C214 1.398 . S
C214 H202 0.950 . S
C214 C213 1.398 . S
C214 C215 1.391 . S
C215 H203 0.950 . S
C215 C211 1.393 . S
C215 C214 1.391 . S
H216 C224 0.950 . S
H217 C229 0.950 . S
H218 C226 0.950 . S
H219 C228 0.950 . S
H220 C230 0.950 . S
H221 C232 0.950 . S
H222 C234 0.950 . S
H223 C235 0.950 . S
C224 H216 0.950 . S
C224 C225 1.386 . S
C224 C226 1.391 . S
C225 C224 1.386 . S
C225 C229 1.393 . S
C226 H218 0.950 . S
C226 C224 1.391 . S
C226 C227 1.400 . S
C227 C226 1.400 . S
C227 C228 1.398 . S
C227 C233 1.491 . S
C228 H219 0.950 . S
C228 C227 1.398 . S
C228 C229 1.391 . S
C229 H217 0.950 . S
C229 C225 1.393 . S
C229 C228 1.391 . S
C230 H220 0.950 . S
C230 C231 1.386 . S
C230 C232 1.391 . S
C231 C230 1.386 . S
C231 C235 1.393 . S
C232 H221 0.950 . S
C232 C230 1.391 . S
C232 C233 1.400 . S
C233 C227 1.491 . S
C233 C232 1.400 . S
C233 C234 1.398 . S
C234 H222 0.950 . S
C234 C233 1.398 . S
C234 C235 1.391 . S
C235 H223 0.950 . S
C235 C231 1.393 . S
C235 C234 1.391 . S
H236 C244 0.950 . S
H237 C249 0.950 . S
H238 C246 0.950 . S
H239 C248 0.950 . S
H240 C250 0.950 . S
H241 C252 0.950 . S
H242 C254 0.950 . S
H243 C255 0.950 . S
C244 H236 0.950 . S
C244 C245 1.386 . S
C244 C246 1.391 . S
C245 C244 1.386 . S
C245 C249 1.393 . S
C246 H238 0.950 . S
C246 C244 1.391 . S
C246 C247 1.400 . S
C247 C246 1.400 . S
C247 C248 1.398 . S
C247 C253 1.491 . S
C248 H239 0.950 . S
C248 C247 1.398 . S
C248 C249 1.391 . S
C249 H237 0.950 . S
C249 C245 1.393 . S
C249 C248 1.391 . S
C250 H240 0.950 . S
C250 C251 1.386 . S
C250 C252 1.391 1_565 S
C251 C250 1.386 . S
C251 C255 1.393 . S
C252 H241 0.950 . S
C252 C250 1.391 1_545 S
C252 C253 1.400 . S
C253 C247 1.491 . S
C253 C252 1.400 . S
C253 C254 1.398 1_545 S
C254 H242 0.950 . S
C254 C253 1.398 1_565 S
C254 C255 1.391 . S
C255 H243 0.950 . S
C255 C251 1.393 . S
C255 C254 1.391 . S
H256 C264 0.950 . S
H257 C269 0.950 . S
H258 C266 0.950 . S
H259 C268 0.950 . S
H260 C270 0.950 . S
H261 C272 0.950 . S
H262 C274 0.950 . S
H263 C275 0.950 . S
C264 H256 0.950 . S
C264 C265 1.386 . S
C264 C266 1.391 . S
C265 C264 1.386 . S
C265 C269 1.393 . S
C266 H258 0.950 . S
C266 C264 1.391 . S
C266 C267 1.400 1_545 S
C267 C266 1.400 1_565 S
C267 C268 1.398 . S
C267 C273 1.491 . S
C268 H259 0.950 . S
C268 C267 1.398 . S
C268 C269 1.391 1_565 S
C269 H257 0.950 . S
C269 C265 1.393 . S
C269 C268 1.391 1_545 S
C270 H260 0.950 . S
C270 C271 1.386 . S
C270 C272 1.391 . S
C271 C270 1.386 . S
C271 C275 1.393 . S
C272 H261 0.950 . S
C272 C270 1.391 . S
C272 C273 1.400 . S
C273 C267 1.491 . S
C273 C272 1.400 . S
C273 C274 1.398 . S
C274 H262 0.950 . S
C274 C273 1.398 . S
C274 C275 1.391 . S
C275 H263 0.950 . S
C275 C271 1.393 . S
C275 C274 1.391 . S
H276 C284 0.950 . S
H277 C289 0.950 . S
H278 C286 0.950 . S
H279 C288 0.950 . S
H280 C290 0.950 . S
H281 C292 0.950 . S
H282 C294 0.950 . S
H283 C295 0.950 . S
C284 H276 0.950 . S
C284 C285 1.386 . S
C284 C286 1.391 . S
C285 C284 1.386 . S
C285 C289 1.393 . S
C286 H278 0.950 . S
C286 C284 1.391 . S
C286 C287 1.400 . S
C287 C286 1.400 . S
C287 C288 1.398 . S
C287 C293 1.491 . S
C288 H279 0.950 . S
C288 C287 1.398 . S
C288 C289 1.391 . S
C289 H277 0.950 . S
C289 C285 1.393 . S
C289 C288 1.391 . S
C290 H280 0.950 . S
C290 C291 1.386 . S
C290 C292 1.391 . S
C291 C290 1.386 . S
C291 C295 1.393 . S
C292 H281 0.950 . S
C292 C290 1.391 . S
C292 C293 1.400 . S
C293 C287 1.491 . S
C293 C292 1.400 . S
C293 C294 1.398 . S
C294 H282 0.950 . S
C294 C293 1.398 . S
C294 C295 1.391 . S
C295 H283 0.950 . S
C295 C291 1.393 . S
C295 C294 1.391 . S
H296 C304 0.950 . S
H297 C309 0.950 . S
H298 C306 0.950 . S
H299 C308 0.950 . S
H300 C310 0.950 . S
H301 C312 0.950 . S
H302 C314 0.950 . S
H303 C315 0.950 . S
C304 H296 0.950 . S
C304 C305 1.386 . S
C304 C306 1.391 . S
C305 C304 1.386 . S
C305 C309 1.393 . S
C306 H298 0.950 . S
C306 C304 1.391 . S
C306 C307 1.400 . S
C307 C306 1.400 . S
C307 C308 1.398 . S
C307 C313 1.491 . S
C308 H299 0.950 . S
C308 C307 1.398 . S
C308 C309 1.391 . S
C309 H297 0.950 . S
C309 C305 1.393 . S
C309 C308 1.391 . S
C310 H300 0.950 . S
C310 C311 1.386 . S
C310 C312 1.391 . S
C311 C310 1.386 . S
C311 C315 1.393 . S
C312 H301 0.950 . S
C312 C310 1.391 . S
C312 C313 1.400 . S
C313 C307 1.491 . S
C313 C312 1.400 . S
C313 C314 1.398 . S
C314 H302 0.950 . S
C314 C313 1.398 . S
C314 C315 1.391 . S
C315 H303 0.950 . S
C315 C311 1.393 . S
C315 C314 1.391 . S
H316 C324 0.950 . S
H317 C329 0.950 . S
H318 C326 0.950 . S
H319 C328 0.950 . S
H320 C330 0.950 . S
H321 C332 0.950 . S
H322 C334 0.950 . S
H323 C335 0.950 . S
C324 H316 0.950 . S
C324 C325 1.386 . S
C324 C326 1.391 1_545 S
C325 C324 1.386 . S
C325 C329 1.393 . S
C326 H318 0.950 . S
C326 C324 1.391 1_565 S
C326 C327 1.400 . S
C327 C326 1.400 . S
C327 C328 1.398 . S
C327 C333 1.491 . S
C328 H319 0.950 . S
C328 C327 1.398 . S
C328 C329 1.391 1_565 S
C329 H317 0.950 . S
C329 C325 1.393 . S
C329 C328 1.391 1_545 S
C330 H320 0.950 . S
C330 C331 1.386 . S
C330 C332 1.391 . S
C331 C330 1.386 . S
C331 C335 1.393 . S
C332 H321 0.950 . S
C332 C330 1.391 . S
C332 C333 1.400 . S
C333 C327 1.491 . S
C333 C332 1.400 . S
C333 C334 1.398 . S
C334 H322 0.950 . S
C334 C333 1.398 . S
C334 C335 1.391 . S
C335 H323 0.950 . S
C335 C331 1.393 . S
C335 C334 1.391 . S
H336 C344 0.950 . S
H337 C349 0.950 . S
H338 C346 0.950 . S
H339 C348 0.950 . S
H340 C350 0.950 . S
H341 C352 0.950 . S
H342 C354 0.950 . S
H343 C355 0.950 . S
C344 H336 0.950 . S
C344 C345 1.386 . S
C344 C346 1.391 . S
C345 C344 1.386 . S
C345 C349 1.393 . S
C346 H338 0.950 . S
C346 C344 1.391 . S
C346 C347 1.400 . S
C347 C346 1.400 . S
C347 C348 1.398 . S
C347 C353 1.491 . S
C348 H339 0.950 . S
C348 C347 1.398 . S
C348 C349 1.391 . S
C349 H337 0.950 . S
C349 C345 1.393 . S
C349 C348 1.391 . S
C350 H340 0.950 . S
C350 C351 1.386 . S
C350 C352 1.391 . S
C351 C350 1.386 . S
C351 C355 1.393 . S
C352 H341 0.950 . S
C352 C350 1.391 . S
C352 C353 1.400 . S
C353 C347 1.491 . S
C353 C352 1.400 . S
C353 C354 1.398 . S
C354 H342 0.950 . S
C354 C353 1.398 . S
C354 C355 1.391 . S
C355 H343 0.950 . S
C355 C351 1.393 . S
C355 C354 1.391 . S
H356 C364 0.950 1_556 S
H357 C369 0.950 . S
H358 C366 0.950 . S
H359 C368 0.950 . S
H360 C370 0.950 1_554 S
H361 C372 0.950 . S
H362 C374 0.950 . S
H363 C375 0.950 . S
C364 H356 0.950 1_554 S
C364 C365 1.386 . S
C364 C366 1.391 1_554 S
C365 C364 1.386 . S
C365 C369 1.393 . S
C366 H358 0.950 . S
C366 C364 1.391 1_556 S
C366 C367 1.400 1_556 S
C367 C366 1.400 1_554 S
C367 C368 1.398 1_655 S
C367 C373 1.491 1_664 S
C368 H359 0.950 . S
C368 C367 1.398 1_455 S
C368 C369 1.391 1_455 S
C369 H357 0.950 . S
C369 C365 1.393 . S
C369 C368 1.391 1_655 S
C370 H360 0.950 1_556 S
C370 C371 1.386 . S
C370 C372 1.391 1_556 S
C371 C370 1.386 . S
C371 C375 1.393 . S
C372 H361 0.950 . S
C372 C370 1.391 1_554 S
C372 C373 1.400 1_554 S
C373 C367 1.491 1_446 S
C373 C372 1.400 1_556 S
C373 C374 1.398 1_455 S
C374 H362 0.950 . S
C374 C373 1.398 1_655 S
C374 C375 1.391 1_655 S
C375 H363 0.950 . S
C375 C371 1.393 . S
C375 C374 1.391 1_455 S
H376 C384 0.950 . S
H377 C389 0.950 . S
H378 C386 0.950 . S
H379 C388 0.934 1_455 S
H380 C390 0.950 . S
H381 C392 0.950 . S
H382 C394 0.934 1_655 S
H383 C395 0.950 . S
C384 H376 0.950 . S
C384 C385 1.386 . S
C384 C386 1.391 . S
C385 C384 1.386 . S
C385 C389 1.393 . S
C386 H378 0.950 . S
C386 C384 1.391 . S
C386 C387 1.400 . S
C387 C386 1.400 . S
C387 C388 1.404 . S
C387 C393 1.491 1_645 S
C388 H379 0.934 1_655 S
C388 C387 1.404 . S
C388 C389 1.402 . S
C389 H377 0.950 . S
C389 C385 1.393 . S
C389 C388 1.402 . S
C390 H380 0.950 . S
C390 C391 1.386 . S
C390 C392 1.391 . S
C391 C390 1.386 . S
C391 C395 1.393 . S
C392 H381 0.950 . S
C392 C390 1.391 . S
C392 C393 1.400 . S
C393 C387 1.491 1_465 S
C393 C392 1.400 . S
C393 C394 1.404 . S
C394 H382 0.934 1_455 S
C394 C393 1.404 . S
C394 C395 1.402 . S
C395 H383 0.950 . S
C395 C391 1.393 . S
C395 C394 1.402 . S
H396 C404 0.950 . S
H397 C409 0.950 . S
H398 C406 0.950 . S
H399 C408 0.950 . S
H400 C410 0.950 . S
H401 C412 0.950 . S
H402 C414 0.950 . S
H403 C415 0.950 . S
C404 H396 0.950 . S
C404 C405 1.386 . S
C404 C406 1.391 . S
C405 C404 1.386 . S
C405 C409 1.393 . S
C406 H398 0.950 . S
C406 C404 1.391 . S
C406 C407 1.400 . S
C407 C406 1.400 . S
C407 C408 1.398 . S
C407 C413 1.491 1_556 S
C408 H399 0.950 . S
C408 C407 1.398 . S
C408 C409 1.391 . S
C409 H397 0.950 . S
C409 C405 1.393 . S
C409 C408 1.391 . S
C410 H400 0.950 . S
C410 C411 1.386 . S
C410 C412 1.391 . S
C411 C410 1.386 . S
C411 C415 1.393 . S
C412 H401 0.950 . S
C412 C410 1.391 . S
C412 C413 1.400 . S
C413 C407 1.491 1_554 S
C413 C412 1.400 . S
C413 C414 1.398 . S
C414 H402 0.950 . S
C414 C413 1.398 . S
C414 C415 1.391 . S
C415 H403 0.950 . S
C415 C411 1.393 . S
C415 C414 1.391 . S
H416 C424 0.950 . S
H417 C429 0.950 . S
H418 C426 0.950 . S
H419 C428 0.950 . S
H420 C430 0.950 . S
H421 C432 0.950 . S
H422 C434 0.950 . S
H423 C435 0.950 . S
C424 H416 0.950 . S
C424 C425 1.386 . S
C424 C426 1.391 . S
C425 C424 1.386 . S
C425 C429 1.393 . S
C426 H418 0.950 . S
C426 C424 1.391 . S
C426 C427 1.400 . S
C427 C426 1.400 . S
C427 C428 1.398 . S
C427 C433 1.491 . S
C428 H419 0.950 . S
C428 C427 1.398 . S
C428 C429 1.391 . S
C429 H417 0.950 . S
C429 C425 1.393 . S
C429 C428 1.391 . S
C430 H420 0.950 . S
C430 C431 1.386 . S
C430 C432 1.391 . S
C431 C430 1.386 . S
C431 C435 1.393 . S
C432 H421 0.950 . S
C432 C430 1.391 . S
C432 C433 1.400 . S
C433 C427 1.491 . S
C433 C432 1.400 . S
C433 C434 1.398 . S
C434 H422 0.950 . S
C434 C433 1.398 . S
C434 C435 1.391 . S
C435 H423 0.950 . S
C435 C431 1.393 . S
C435 C434 1.391 . S
H436 C444 0.950 1_655 S
H437 C449 0.950 . S
H438 C446 0.950 . S
H439 C448 0.950 . S
H440 C450 0.950 1_455 S
H441 C452 0.950 . S
H442 C454 0.950 . S
H443 C455 0.950 . S
C444 H436 0.950 1_455 S
C444 C445 1.386 . S
C444 C446 1.391 1_455 S
C445 C444 1.386 . S
C445 C449 1.393 . S
C446 H438 0.950 . S
C446 C444 1.391 1_655 S
C446 C447 1.400 1_655 S
C447 C446 1.400 1_455 S
C447 C448 1.398 . S
C447 C453 1.491 1_455 S
C448 H439 0.950 . S
C448 C447 1.398 . S
C448 C449 1.391 . S
C449 H437 0.950 . S
C449 C445 1.393 . S
C449 C448 1.391 . S
C450 H440 0.950 1_655 S
C450 C451 1.386 . S
C450 C452 1.391 1_655 S
C451 C450 1.386 . S
C451 C455 1.393 . S
C452 H441 0.950 . S
C452 C450 1.391 1_455 S
C452 C453 1.400 1_455 S
C453 C447 1.491 1_655 S
C453 C452 1.400 1_655 S
C453 C454 1.398 . S
C454 H442 0.950 . S
C454 C453 1.398 . S
C454 C455 1.391 . S
C455 H443 0.950 . S
C455 C451 1.393 . S
C455 C454 1.391 . S
H456 C464 0.950 . S
H457 C469 0.950 . S
H458 C466 0.950 . S
H459 C468 0.950 . S
H460 C470 0.950 . S
H461 C472 0.950 . S
H462 C474 0.950 . S
H463 C475 0.950 . S
C464 H456 0.950 . S
C464 C465 1.386 . S
C464 C466 1.391 . S
C465 C464 1.386 . S
C465 C469 1.393 . S
C466 H458 0.950 . S
C466 C464 1.391 . S
C466 C467 1.400 . S
C467 C466 1.400 . S
C467 C468 1.398 . S
C467 C473 1.491 . S
C468 H459 0.950 . S
C468 C467 1.398 . S
C468 C469 1.391 . S
C469 H457 0.950 . S
C469 C465 1.393 . S
C469 C468 1.391 . S
C470 H460 0.950 . S
C470 C471 1.386 . S
C470 C472 1.391 . S
C471 C470 1.386 . S
C471 C475 1.393 . S
C472 H461 0.950 . S
C472 C470 1.391 . S
C472 C473 1.400 . S
C473 C467 1.491 . S
C473 C472 1.400 . S
C473 C474 1.398 . S
C474 H462 0.950 . S
C474 C473 1.398 . S
C474 C475 1.391 . S
C475 H463 0.950 . S
C475 C471 1.393 . S
C475 C474 1.391 . S
H476 C484 0.950 . S
H477 C489 0.950 . S
H478 C486 0.950 . S
H479 C488 0.950 . S
H480 C490 0.950 . S
H481 C492 0.950 . S
H482 C494 0.950 . S
H483 C495 0.950 . S
C484 H476 0.950 . S
C484 C485 1.386 . S
C484 C486 1.391 . S
C485 C484 1.386 . S
C485 C489 1.393 . S
C486 H478 0.950 . S
C486 C484 1.391 . S
C486 C487 1.400 . S
C487 C486 1.400 . S
C487 C488 1.398 . S
C487 C493 1.491 1_655 S
C488 H479 0.950 . S
C488 C487 1.398 . S
C488 C489 1.391 . S
C489 H477 0.950 . S
C489 C485 1.393 . S
C489 C488 1.391 . S
C490 H480 0.950 . S
C490 C491 1.386 . S
C490 C492 1.391 . S
C491 C490 1.386 . S
C491 C495 1.393 . S
C492 H481 0.950 . S
C492 C490 1.391 . S
C492 C493 1.400 . S
C493 C487 1.491 1_455 S
C493 C492 1.400 . S
C493 C494 1.398 . S
C494 H482 0.950 . S
C494 C493 1.398 . S
C494 C495 1.391 . S
C495 H483 0.950 . S
C495 C491 1.393 . S
C495 C494 1.391 . S
H496 C504 0.950 . S
H497 C509 0.950 . S
H498 C506 0.950 . S
H499 C508 0.950 . S
H500 C510 0.950 . S
H501 C512 0.950 . S
H502 C514 0.950 . S
H503 C515 0.950 . S
C504 H496 0.950 . S
C504 C505 1.386 . S
C504 C506 1.391 . S
C505 C504 1.386 . S
C505 C509 1.393 . S
C506 H498 0.950 . S
C506 C504 1.391 . S
C506 C507 1.400 . S
C507 C506 1.400 . S
C507 C508 1.398 . S
C507 C513 1.491 . S
C508 H499 0.950 . S
C508 C507 1.398 . S
C508 C509 1.391 . S
C509 H497 0.950 . S
C509 C505 1.393 . S
C509 C508 1.391 . S
C510 H500 0.950 . S
C510 C511 1.386 . S
C510 C512 1.391 . S
C511 C510 1.386 . S
C511 C515 1.393 . S
C512 H501 0.950 . S
C512 C510 1.391 . S
C512 C513 1.400 . S
C513 C507 1.491 . S
C513 C512 1.400 . S
C513 C514 1.398 . S
C514 H502 0.950 . S
C514 C513 1.398 . S
C514 C515 1.391 . S
C515 H503 0.950 . S
C515 C511 1.393 . S
C515 C514 1.391 . S
H516 C524 0.950 . S
H517 C529 0.950 . S
H518 C526 0.950 . S
H519 C528 0.950 . S
H520 C530 0.950 . S
H521 C532 0.950 . S
H522 C534 0.950 . S
H523 C535 0.950 . S
C524 H516 0.950 . S
C524 C525 1.386 . S
C524 C526 1.391 . S
C525 C524 1.386 . S
C525 C529 1.393 . S
C526 H518 0.950 . S
C526 C524 1.391 . S
C526 C527 1.400 . S
C527 C526 1.400 . S
C527 C528 1.398 . S
C527 C533 1.509 . S
C528 H519 0.950 . S
C528 C527 1.398 . S
C528 C529 1.391 . S
C529 H517 0.950 . S
C529 C525 1.393 . S
C529 C528 1.391 . S
C530 H520 0.950 . S
C530 C531 1.386 . S
C530 C532 1.391 1_554 S
C531 C530 1.386 . S
C531 C535 1.393 . S
C532 H521 0.950 . S
C532 C530 1.391 1_556 S
C532 C533 1.402 . S
C533 C527 1.509 . S
C533 C532 1.402 . S
C533 C534 1.378 1_556 S
C534 H522 0.950 . S
C534 C533 1.378 1_554 S
C534 C535 1.391 . S
C535 H523 0.950 . S
C535 C531 1.393 . S
C535 C534 1.391 . S
H536 C544 0.950 . S
H537 C549 0.950 . S
H538 C546 0.950 . S
H539 C548 0.950 . S
H540 C550 0.950 . S
H541 C552 0.950 . S
H542 C554 0.950 . S
H543 C555 0.950 . S
C544 H536 0.950 . S
C544 C545 1.386 . S
C544 C546 1.391 . S
C545 C544 1.386 . S
C545 C549 1.393 . S
C546 H538 0.950 . S
C546 C544 1.391 . S
C546 C547 1.400 . S
C547 C546 1.400 . S
C547 C548 1.398 . S
C547 C553 1.491 . S
C548 H539 0.950 . S
C548 C547 1.398 . S
C548 C549 1.391 . S
C549 H537 0.950 . S
C549 C545 1.393 . S
C549 C548 1.391 . S
C550 H540 0.950 . S
C550 C551 1.386 . S
C550 C552 1.391 . S
C551 C550 1.386 . S
C551 C555 1.393 . S
C552 H541 0.950 . S
C552 C550 1.391 . S
C552 C553 1.400 . S
C553 C547 1.491 . S
C553 C552 1.400 . S
C553 C554 1.398 . S
C554 H542 0.950 . S
C554 C553 1.398 . S
C554 C555 1.391 . S
C555 H543 0.950 . S
C555 C551 1.393 . S
C555 C554 1.391 . S
H556 C564 0.950 . S
H557 C569 0.950 . S
H558 C566 0.950 . S
H559 C568 0.950 . S
H560 C570 0.950 . S
H561 C572 0.950 1_554 S
H562 C574 0.950 . S
H563 C575 0.950 . S
C564 H556 0.950 . S
C564 C565 1.386 . S
C564 C566 1.391 . S
C565 C564 1.386 . S
C565 C569 1.393 . S
C566 H558 0.950 . S
C566 C564 1.391 . S
C566 C567 1.400 . S
C567 C566 1.400 . S
C567 C568 1.398 . S
C567 C573 1.491 . S
C568 H559 0.950 . S
C568 C567 1.398 . S
C568 C569 1.391 . S
C569 H557 0.950 . S
C569 C565 1.393 . S
C569 C568 1.391 . S
C570 H560 0.950 . S
C570 C571 1.386 . S
C570 C572 1.391 . S
C571 C570 1.386 . S
C571 C575 1.393 . S
C572 H561 0.950 1_556 S
C572 C570 1.391 . S
C572 C573 1.400 1_556 S
C573 C567 1.491 . S
C573 C572 1.400 1_554 S
C573 C574 1.398 1_554 S
C574 H562 0.950 . S
C574 C573 1.398 1_556 S
C574 C575 1.391 . S
C575 H563 0.950 . S
C575 C571 1.393 . S
C575 C574 1.391 . S
H576 C584 0.950 . S
H577 C589 0.950 . S
H578 C586 0.950 . S
H579 C588 0.950 . S
H580 C590 0.950 . S
H581 C592 0.950 . S
H582 C594 0.950 . S
H583 C595 0.950 . S
C584 H576 0.950 . S
C584 C585 1.386 . S
C584 C586 1.391 . S
C585 C584 1.386 . S
C585 C589 1.393 . S
C586 H578 0.950 . S
C586 C584 1.391 . S
C586 C587 1.400 . S
C587 C586 1.400 . S
C587 C588 1.398 . S
C587 C593 1.491 . S
C588 H579 0.950 . S
C588 C587 1.398 . S
C588 C589 1.391 . S
C589 H577 0.950 . S
C589 C585 1.393 . S
C589 C588 1.391 . S
C590 H580 0.950 . S
C590 C591 1.386 . S
C590 C592 1.391 . S
C591 C590 1.386 . S
C591 C595 1.393 . S
C592 H581 0.950 . S
C592 C590 1.391 . S
C592 C593 1.400 . S
C593 C587 1.491 . S
C593 C592 1.400 . S
C593 C594 1.398 . S
C594 H582 0.950 . S
C594 C593 1.398 . S
C594 C595 1.391 . S
C595 H583 0.950 . S
C595 C591 1.393 . S
C595 C594 1.391 . S
H596 C604 0.950 . S
H597 C609 0.950 . S
H598 C606 0.950 . S
H599 C608 0.950 . S
H600 C610 0.950 . S
H601 C612 0.950 . S
H602 C614 0.950 . S
H603 C615 0.950 . S
C604 H596 0.950 . S
C604 C605 1.386 . S
C604 C606 1.391 . S
C605 C604 1.386 . S
C605 C609 1.393 . S
C606 H598 0.950 . S
C606 C604 1.391 . S
C606 C607 1.400 . S
C607 C606 1.400 . S
C607 C608 1.398 . S
C607 C613 1.509 . S
C608 H599 0.950 . S
C608 C607 1.398 . S
C608 C609 1.391 . S
C609 H597 0.950 . S
C609 C605 1.393 . S
C609 C608 1.391 . S
C610 H600 0.950 . S
C610 C611 1.386 . S
C610 C612 1.391 1_556 S
C611 C610 1.386 . S
C611 C615 1.393 . S
C612 H601 0.950 . S
C612 C610 1.391 1_554 S
C612 C613 1.403 . S
C613 C607 1.509 . S
C613 C612 1.403 . S
C613 C614 1.376 1_554 S
C614 H602 0.950 . S
C614 C613 1.376 1_556 S
C614 C615 1.391 . S
C615 H603 0.950 . S
C615 C611 1.393 . S
C615 C614 1.391 . S
H616 C624 0.950 . S
H617 C629 0.943 1_455 S
H618 C626 0.950 . S
H619 C628 0.950 . S
H620 C630 0.950 . S
H621 C632 0.950 . S
H622 C634 0.950 . S
H623 C635 0.950 . S
C624 H616 0.950 . S
C624 C625 1.386 . S
C624 C626 1.391 . S
C625 C624 1.386 . S
C625 C629 1.393 . S
C626 H618 0.950 . S
C626 C624 1.391 . S
C626 C627 1.400 . S
C627 C626 1.400 . S
C627 C628 1.398 . S
C627 C633 1.491 . S
C628 H619 0.950 . S
C628 C627 1.398 . S
C628 C629 1.391 . S
C629 H617 0.943 1_655 S
C629 C625 1.393 . S
C629 C628 1.391 . S
C630 H620 0.950 . S
C630 C631 1.386 . S
C630 C632 1.391 . S
C631 C630 1.386 . S
C631 C635 1.393 . S
C632 H621 0.950 . S
C632 C630 1.391 . S
C632 C633 1.400 . S
C633 C627 1.491 . S
C633 C632 1.400 . S
C633 C634 1.398 . S
C634 H622 0.950 . S
C634 C633 1.398 . S
C634 C635 1.391 . S
C635 H623 0.950 . S
C635 C631 1.393 . S
C635 C634 1.391 . S
H636 C644 0.950 . S
H637 C649 0.950 . S
H638 C646 0.950 . S
H639 C648 0.936 1_556 S
H640 C650 0.950 . S
H641 C652 0.950 . S
H642 C654 0.950 . S
H643 C655 0.950 . S
C644 H636 0.950 . S
C644 C645 1.386 . S
C644 C646 1.391 . S
C645 C644 1.386 . S
C645 C649 1.393 . S
C646 H638 0.950 . S
C646 C644 1.391 . S
C646 C647 1.400 1_554 S
C647 C646 1.400 1_556 S
C647 C648 1.398 1_556 S
C647 C653 1.491 . S
C648 H639 0.936 1_554 S
C648 C647 1.398 1_554 S
C648 C649 1.391 . S
C649 H637 0.950 . S
C649 C645 1.393 . S
C649 C648 1.391 . S
C650 H640 0.950 . S
C650 C651 1.386 . S
C650 C652 1.391 . S
C651 C650 1.386 . S
C651 C655 1.393 . S
C652 H641 0.950 . S
C652 C650 1.391 . S
C652 C653 1.400 . S
C653 C647 1.491 . S
C653 C652 1.400 . S
C653 C654 1.398 . S
C654 H642 0.950 . S
C654 C653 1.398 . S
C654 C655 1.391 . S
C655 H643 0.950 . S
C655 C651 1.393 . S
C655 C654 1.391 . S
C185 C153 1.548 . S
C191 C10 1.537 . S
C205 C30 1.547 . S
C211 C169 1.560 . S
C225 C109 1.548 . S
C231 C54 1.534 . S
C245 C76 1.533 . S
C251 C131 1.558 . S
C265 C65 1.551 . S
C271 C98 1.543 . S
C285 C120 1.531 . S
C291 C87 1.557 . S
C305 C21 1.550 . S
C311 C142 1.542 . S
C325 C29 1.562 . S
C331 C172 1.544 . S
C345 C7 0.973 . S
C351 C95 0.973 . S
C365 C117 0.972 . S
C371 C37 0.972 . S
C385 C51 0.977 . S
C391 C139 0.977 . S
C405 C175 0.957 . S
C411 C73 0.957 . S
C425 C74 1.547 . S
C431 C8 1.547 . S
C445 C40 1.555 . S
C451 C52 1.548 . S
C465 C164 1.551 . S
C471 C96 1.546 . S
C485 C118 1.557 . S
C491 C140 1.556 . S
C505 C18 1.488 . S
C511 C59 1.506 . S
C525 C32 1.495 . S
C531 C81 1.499 . S
C545 C62 1.472 . S
C551 C15 1.493 . S
C565 C84 1.460 . S
C571 C43 1.495 . S
C585 C106 1.460 . S
C591 C147 1.505 . S
C605 C128 1.495 . S
C611 C161 1.512 . S
C625 C150 1.490 . S
C631 C103 1.495 . S
C645 C125 1.499 . S
C651 C162 1.458 . S
