# Generated by pormake.
# Topology wkj, (6)-cn, num edge types: 1
# Building blocks:
#     Node 0, Type 0, BuildingBlock: BETDEL_clean_sbu_0, # of connection points: 6
#     Node 1, Type 0, BuildingBlock: BETDEL_clean_sbu_0, # of connection points: 6
#     Node 2, Type 0, BuildingBlock: BETDEL_clean_sbu_0, # of connection points: 6
#     Node 3, Type 0, BuildingBlock: BETDEL_clean_sbu_0, # of connection points: 6
#     Node 4, Type 0, BuildingBlock: BETDEL_clean_sbu_0, # of connection points: 6
#     Node 5, Type 0, BuildingBlock: BETDEL_clean_sbu_0, # of connection points: 6
#     Node 6, Type 0, BuildingBlock: BETDEL_clean_sbu_0, # of connection points: 6
#     Node 7, Type 0, BuildingBlock: BETDEL_clean_sbu_0, # of connection points: 6
#     Node 8, Type 0, BuildingBlock: BETDEL_clean_sbu_0, # of connection points: 6
#     Node 9, Type 0, BuildingBlock: BETDEL_clean_sbu_0, # of connection points: 6
#     Node 10, Type 0, BuildingBlock: BETDEL_clean_sbu_0, # of connection points: 6
#     Node 11, Type 0, BuildingBlock: BETDEL_clean_sbu_0, # of connection points: 6
#     Edge 12, Type (0, 0), BuildingBlock: XUDNAN_clean_linker_2, # of connection points: 2
#     Edge 13, Type (0, 0), BuildingBlock: XUDNAN_clean_linker_2, # of connection points: 2
#     Edge 14, Type (0, 0), BuildingBlock: XUDNAN_clean_linker_2, # of connection points: 2
#     Edge 15, Type (0, 0), BuildingBlock: XUDNAN_clean_linker_2, # of connection points: 2
#     Edge 16, Type (0, 0), BuildingBlock: XUDNAN_clean_linker_2, # of connection points: 2
#     Edge 17, Type (0, 0), BuildingBlock: XUDNAN_clean_linker_2, # of connection points: 2
#     Edge 18, Type (0, 0), BuildingBlock: XUDNAN_clean_linker_2, # of connection points: 2
#     Edge 19, Type (0, 0), BuildingBlock: XUDNAN_clean_linker_2, # of connection points: 2
#     Edge 20, Type (0, 0), BuildingBlock: XUDNAN_clean_linker_2, # of connection points: 2
#     Edge 21, Type (0, 0), BuildingBlock: XUDNAN_clean_linker_2, # of connection points: 2
#     Edge 22, Type (0, 0), BuildingBlock: XUDNAN_clean_linker_2, # of connection points: 2
#     Edge 23, Type (0, 0), BuildingBlock: XUDNAN_clean_linker_2, # of connection points: 2
#     Edge 24, Type (0, 0), BuildingBlock: XUDNAN_clean_linker_2, # of connection points: 2
#     Edge 25, Type (0, 0), BuildingBlock: XUDNAN_clean_linker_2, # of connection points: 2
#     Edge 26, Type (0, 0), BuildingBlock: XUDNAN_clean_linker_2, # of connection points: 2
#     Edge 27, Type (0, 0), BuildingBlock: XUDNAN_clean_linker_2, # of connection points: 2
#     Edge 28, Type (0, 0), BuildingBlock: XUDNAN_clean_linker_2, # of connection points: 2
#     Edge 29, Type (0, 0), BuildingBlock: XUDNAN_clean_linker_2, # of connection points: 2
#     Edge 30, Type (0, 0), BuildingBlock: XUDNAN_clean_linker_2, # of connection points: 2
#     Edge 31, Type (0, 0), BuildingBlock: XUDNAN_clean_linker_2, # of connection points: 2
#     Edge 32, Type (0, 0), BuildingBlock: XUDNAN_clean_linker_2, # of connection points: 2
#     Edge 33, Type (0, 0), BuildingBlock: XUDNAN_clean_linker_2, # of connection points: 2
#     Edge 34, Type (0, 0), BuildingBlock: XUDNAN_clean_linker_2, # of connection points: 2
#     Edge 35, Type (0, 0), BuildingBlock: XUDNAN_clean_linker_2, # of connection points: 2
#     Edge 36, Type (0, 0), BuildingBlock: XUDNAN_clean_linker_2, # of connection points: 2
#     Edge 37, Type (0, 0), BuildingBlock: XUDNAN_clean_linker_2, # of connection points: 2
#     Edge 38, Type (0, 0), BuildingBlock: XUDNAN_clean_linker_2, # of connection points: 2
#     Edge 39, Type (0, 0), BuildingBlock: XUDNAN_clean_linker_2, # of connection points: 2
#     Edge 40, Type (0, 0), BuildingBlock: XUDNAN_clean_linker_2, # of connection points: 2
#     Edge 41, Type (0, 0), BuildingBlock: XUDNAN_clean_linker_2, # of connection points: 2
#     Edge 42, Type (0, 0), BuildingBlock: XUDNAN_clean_linker_2, # of connection points: 2
#     Edge 43, Type (0, 0), BuildingBlock: XUDNAN_clean_linker_2, # of connection points: 2
#     Edge 44, Type (0, 0), BuildingBlock: XUDNAN_clean_linker_2, # of connection points: 2
#     Edge 45, Type (0, 0), BuildingBlock: XUDNAN_clean_linker_2, # of connection points: 2
#     Edge 46, Type (0, 0), BuildingBlock: XUDNAN_clean_linker_2, # of connection points: 2
#     Edge 47, Type (0, 0), BuildingBlock: XUDNAN_clean_linker_2, # of connection points: 2
# Relax obj value: 0.371
# Max RMSD: 0.192
# Mean RMSD: 0.192
data_MOF--net-wkj--node1-BETDEL_clean_sbu_0--edge1-XUDNAN_clean_linker_2
_symmetry_space_group_name_H-M    P1
_symmetry_Int_Tables_number       1
_symmetry_cell_setting            triclinic
loop_
_symmetry_equiv_pos_as_xyz
'x, y, z'
_cell_length_a     48.406758
_cell_length_b     48.374958
_cell_length_c     26.054786
_cell_angle_alpha  90.351293
_cell_angle_beta   89.738619
_cell_angle_gamma 119.5969
loop_
_atom_site_label
_atom_site_type_symbol
_atom_site_fract_x
_atom_site_fract_y
_atom_site_fract_z
_atom_type_partial_charge
Dy0 Dy 0.41919 0.08022 0.32491 0.0
C1 C 0.49627 0.20081 0.22939 0.0
C2 C 0.37644 0.03954 0.39364 0.0
Dy3 Dy 0.46958 0.14338 0.27773 0.0
O4 O 0.38324 0.06864 0.3862 0.0
O5 O 0.39321 0.03202 0.36301 0.0
O6 O 0.38481 0.08836 0.27791 0.0
O7 O 0.42373 0.12676 0.3122 0.0
C8 C 0.39941 0.11876 0.28559 0.0
C9 C 0.48749 0.10028 0.27833 0.0
O10 O 0.48348 0.15512 0.36224 0.0
O11 O 0.45227 0.10332 0.3918 0.0
O12 O 0.51165 0.19059 0.25729 0.0
O13 O 0.46615 0.18015 0.23114 0.0
O14 O 0.49802 0.12293 0.24456 0.0
O15 O 0.47048 0.10369 0.31174 0.0
O16 O 0.42004 0.05966 0.24852 0.0
O17 O 0.44246 0.1093 0.20942 0.0
C18 C 0.4743 0.13349 0.39968 0.0
C19 C 0.42794 0.07728 0.20643 0.0
Dy20 Dy 0.39753 0.50812 0.62292 0.0
C21 C 0.36936 0.59343 0.51544 0.0
C22 C 0.39849 0.46975 0.69712 0.0
Dy23 Dy 0.39196 0.56021 0.56833 0.0
O24 O 0.38114 0.4832 0.69717 0.0
O25 O 0.41579 0.47692 0.6556 0.0
O26 O 0.34791 0.47416 0.593 0.0
O27 O 0.36036 0.52042 0.61381 0.0
C28 C 0.3386 0.495 0.59599 0.0
C29 C 0.45041 0.57082 0.56562 0.0
O30 O 0.40118 0.58072 0.65048 0.0
O31 O 0.4143 0.54459 0.68567 0.0
O32 O 0.39371 0.60584 0.54623 0.0
O33 O 0.35626 0.56264 0.51712 0.0
O34 O 0.43865 0.58034 0.5297 0.0
O35 O 0.43108 0.55782 0.60205 0.0
O36 O 0.41247 0.49934 0.54638 0.0
O37 O 0.38898 0.52469 0.50517 0.0
C38 C 0.41126 0.57027 0.68993 0.0
C39 C 0.4023 0.506 0.50376 0.0
Dy40 Dy 0.87784 0.3133 1.03266 0.0
C41 C 0.80628 0.35953 0.92453 0.0
C42 C 0.90981 0.29655 0.10049 0.0
Dy43 Dy 0.84867 0.35255 0.98313 0.0
O44 O 0.87939 0.28045 0.09222 0.0
O45 O 0.92269 0.32065 0.06961 0.0
O46 O 0.84276 0.27038 0.98779 0.0
O47 O 0.83136 0.30511 1.01277 0.0
C48 C 0.82208 0.28024 0.98654 0.0
C49 C 0.90127 0.38482 1.0357 0.0
O50 O 0.82952 0.34921 0.06299 0.0
O51 O 0.86022 0.33 0.10149 0.0
O52 O 0.83181 0.38304 0.94455 0.0
O53 O 0.80441 0.33255 0.93589 0.0
O54 O 0.88132 0.39546 1.0301 0.0
O55 O 0.8939 0.36096 1.00789 0.0
O56 O 0.90292 0.32336 0.95558 0.0
O57 O 0.8795 0.3505 0.91714 0.0
C58 C 0.84038 0.3417 0.10435 0.0
C59 C 0.89928 0.33851 0.91564 0.0
Dy60 Dy 0.49355 0.88645 0.33674 0.0
C61 C 0.408 0.77714 0.22035 0.0
C62 C 0.53894 0.93339 0.39587 0.0
Dy63 Dy 0.44185 0.83296 0.27305 0.0
O64 O 0.54003 0.90891 0.37824 0.0
O65 O 0.51353 0.93311 0.37901 0.0
O66 O 0.50585 0.84976 0.36386 0.0
O67 O 0.4911 0.84819 0.28829 0.0
C68 C 0.49985 0.83485 0.32042 0.0
C69 C 0.43167 0.88115 0.28383 0.0
O70 O 0.42608 0.81661 0.35688 0.0
O71 O 0.45621 0.86552 0.39676 0.0
O72 O 0.39582 0.79118 0.24732 0.0
O73 O 0.43869 0.79341 0.22382 0.0
O74 O 0.41958 0.86066 0.24636 0.0
O75 O 0.44446 0.87183 0.31663 0.0
O76 O 0.50587 0.9108 0.26091 0.0
O77 O 0.47037 0.86923 0.20868 0.0
C78 C 0.43314 0.83563 0.39819 0.0
C79 C 0.49377 0.89945 0.21487 0.0
Dy80 Dy 0.62033 0.52127 0.6359 0.0
C81 C 0.5985 0.4114 0.5166 0.0
C82 C 0.63357 0.57046 0.70167 0.0
Dy83 Dy 0.59774 0.45942 0.57073 0.0
O84 O 0.64145 0.54874 0.70796 0.0
O85 O 0.61839 0.56576 0.65836 0.0
O86 O 0.66734 0.52294 0.64759 0.0
O87 O 0.64182 0.50356 0.58083 0.0
C88 C 0.66583 0.50807 0.60537 0.0
C89 C 0.55263 0.47353 0.59304 0.0
O90 O 0.59802 0.44207 0.65266 0.0
O91 O 0.59418 0.48249 0.69403 0.0
O92 O 0.57397 0.40916 0.54094 0.0
O93 O 0.62252 0.43982 0.52226 0.0
O94 O 0.55083 0.45563 0.55404 0.0
O95 O 0.5758 0.47829 0.62072 0.0
O96 O 0.61665 0.54 0.55773 0.0
O97 O 0.60391 0.49495 0.5072 0.0
C98 C 0.59231 0.45414 0.69508 0.0
C99 C 0.61051 0.52527 0.51209 0.0
Dy100 Dy 0.07196 0.59844 1.04774 0.0
C101 C 0.1633 0.61151 0.89902 0.0
C102 C 0.04143 0.59775 0.13684 0.0
Dy103 Dy 0.11844 0.58947 0.97389 0.0
O104 O 0.07081 0.61729 0.12559 0.0
O105 O 0.02791 0.57998 0.0968 0.0
O106 O 0.09154 0.64812 1.01565 0.0
O107 O 0.1201 0.62682 1.02163 0.0
C108 C 0.11927 0.65092 1.00632 0.0
C109 C 0.07704 0.53645 1.01723 0.0
O110 O 0.14209 0.592 1.05038 0.0
O111 O 0.09813 0.5826 0.09969 0.0
O112 O 0.15664 0.58712 0.928 0.0
O113 O 0.14479 0.623 0.91017 0.0
O114 O 0.10235 0.53899 0.99451 0.0
O115 O 0.07308 0.55975 1.00659 0.0
O116 O 0.04044 0.58211 0.97802 0.0
O117 O 0.07646 0.57952 0.92055 0.0
C118 C 0.12604 0.58427 0.09461 0.0
C119 C 0.04795 0.57665 0.93107 0.0
Dy120 Dy 0.89532 0.47479 0.51435 0.0
C121 C 0.77508 0.41678 0.61713 0.0
C122 C 0.95279 0.50839 0.46793 0.0
Dy123 Dy 0.83258 0.43828 0.569 0.0
O124 O 0.93636 0.52027 0.48782 0.0
O125 O 0.93831 0.47783 0.4752 0.0
O126 O 0.87361 0.50137 0.47628 0.0
O127 O 0.86328 0.48761 0.55268 0.0
C128 C 0.85801 0.5014 0.5167 0.0
C129 C 0.86324 0.40598 0.56483 0.0
O130 O 0.81827 0.42634 0.48355 0.0
O131 O 0.86853 0.44448 0.44828 0.0
O132 O 0.78465 0.39924 0.59386 0.0
O133 O 0.79639 0.44637 0.61061 0.0
O134 O 0.8461 0.40506 0.60398 0.0
O135 O 0.86309 0.42399 0.53011 0.0
O136 O 0.91421 0.4804 0.59456 0.0
O137 O 0.86616 0.46385 0.63594 0.0
C138 C 0.83728 0.42918 0.44375 0.0
C139 C 0.89778 0.47708 0.63703 0.0
Dy140 Dy 0.32463 0.89721 0.79127 0.0
C141 C 0.35761 0.82439 0.92276 0.0
C142 C 0.31177 0.92298 0.70843 0.0
Dy143 Dy 0.3566 0.86552 0.8538 0.0
O144 O 0.31059 0.93121 0.75579 0.0
O145 O 0.31955 0.90102 0.70728 0.0
O146 O 0.27788 0.86739 0.83255 0.0
O147 O 0.30999 0.85079 0.82175 0.0
C148 C 0.28462 0.84519 0.84353 0.0
C149 C 0.39418 0.91167 0.79105 0.0
O150 O 0.34805 0.8382 0.77927 0.0
O151 O 0.33904 0.87296 0.73025 0.0
O152 O 0.38097 0.84165 0.89169 0.0
O153 O 0.33476 0.83086 0.91771 0.0
O154 O 0.40112 0.89007 0.806 0.0
O155 O 0.37143 0.90993 0.81694 0.0
O156 O 0.34627 0.93291 0.85727 0.0
O157 O 0.36029 0.90351 0.91132 0.0
C158 C 0.3455 0.84929 0.73389 0.0
C159 C 0.35677 0.92888 0.90264 0.0
Dy160 Dy 0.42672 0.36436 0.08888 0.0
C161 C 0.5213 0.35311 0.20388 0.0
C162 C 0.38587 0.36885 1.02225 0.0
Dy163 Dy 0.48212 0.3686 0.15157 0.0
O164 O 0.38498 0.34277 1.03623 0.0
O165 O 0.40748 0.39229 1.04893 0.0
O166 O 0.40735 0.31232 0.08008 0.0
O167 O 0.43137 0.33469 0.14813 0.0
C168 C 0.41853 0.30889 0.12302 0.0
C169 C 0.49379 0.42299 0.10874 0.0
O170 O 0.49397 0.35692 0.0704 0.0
O171 O 0.46037 0.36904 1.0251 0.0
O172 O 0.52904 0.38121 0.18711 0.0
O173 O 0.49186 0.33335 0.19236 0.0
O174 O 0.50776 0.42195 0.15074 0.0
O175 O 0.47699 0.39547 0.09173 0.0
O176 O 0.4211 0.38735 0.16062 0.0
O177 O 0.45855 0.3845 0.21311 0.0
C178 C 0.48371 0.36206 1.02558 0.0
C179 C 0.43614 0.39267 0.2054 0.0
Dy180 Dy 0.05882 0.41317 0.48765 0.0
C181 C 0.13422 0.53032 0.59973 0.0
C182 C 0.0251 0.36589 0.41868 0.0
Dy183 Dy 0.08939 0.47772 0.55166 0.0
O184 O 0.05518 0.38646 0.41516 0.0
O185 O 0.01337 0.37072 0.46058 0.0
O186 O 0.09583 0.40178 0.51929 0.0
O187 O 0.10506 0.44839 0.51275 0.0
C188 C 0.11572 0.43145 0.52987 0.0
C189 C 0.02768 0.452 0.53052 0.0
O190 O 0.10539 0.49702 0.4724 0.0
O191 O 0.07652 0.45053 0.42406 0.0
O192 O 0.11364 0.53019 0.56747 0.0
O193 O 0.12923 0.50166 0.6072 0.0
O194 O 0.04114 0.47154 0.56889 0.0
O195 O 0.04877 0.45122 0.50347 0.0
O196 O 0.03591 0.39615 0.56624 0.0
O197 O 0.06818 0.44122 0.6155 0.0
C198 C 0.09603 0.48197 0.42752 0.0
C199 C 0.04488 0.41113 0.61152 0.0
Dy200 Dy 0.57203 0.07195 0.80184 0.0
C201 C 0.54615 0.15733 0.92433 0.0
C202 C 0.58038 0.03862 0.72501 0.0
Dy203 Dy 0.54776 0.11269 0.86269 0.0
O204 O 0.57597 0.0627 0.71993 0.0
O205 O 0.58029 0.03189 0.77364 0.0
O206 O 0.62238 0.11208 0.80202 0.0
O207 O 0.59141 0.11017 0.85856 0.0
C208 C 0.61817 0.12764 0.83887 0.0
C209 C 0.50488 0.06743 0.80151 0.0
O210 O 0.56043 0.13776 0.78559 0.0
O211 O 0.5586 0.0957 0.7403 0.0
O212 O 0.52291 0.12822 0.91936 0.0
O213 O 0.57027 0.1618 0.89631 0.0
O214 O 0.50264 0.09216 0.81536 0.0
O215 O 0.52713 0.06723 0.82574 0.0
O216 O 0.55387 0.0412 0.87348 0.0
O217 O 0.54409 0.07651 0.9227 0.0
C218 C 0.55818 0.12284 0.74146 0.0
C219 C 0.5457 0.04962 0.91771 0.0
Dy220 Dy 0.57823 0.6579 0.09472 0.0
C221 C 0.46847 0.63615 0.21074 0.0
C222 C 0.62242 0.66891 1.01978 0.0
Dy223 Dy 0.51094 0.63158 0.14772 0.0
O224 O 0.60792 0.68515 1.0268 0.0
O225 O 0.61449 0.64819 1.05634 0.0
O226 O 0.59753 0.70096 0.14615 0.0
O227 O 0.54948 0.67739 0.12297 0.0
C228 C 0.56981 0.69895 0.15126 0.0
C229 C 0.51863 0.59128 0.08903 0.0
O230 O 0.49824 0.64191 0.06997 0.0
O231 O 0.5437 0.64795 1.02833 0.0
O232 O 0.46376 0.60984 0.18885 0.0
O233 O 0.49629 0.6594 0.19869 0.0
O234 O 0.49033 0.58744 0.09798 0.0
O235 O 0.53904 0.61292 0.11684 0.0
O236 O 0.58757 0.63805 0.16767 0.0
O237 O 0.53926 0.62285 0.21011 0.0
C238 C 0.51468 0.64469 1.02744 0.0
C239 C 0.56849 0.6262 0.20868 0.0
H240 H 0.40805 0.17609 0.31608 0.0
H241 H 0.3829 0.11289 0.18469 0.0
H242 H 0.38489 0.15514 0.12901 0.0
H243 H 0.3615 0.2149 0.27439 0.0
H244 H 0.39058 0.25281 0.30041 0.0
H245 H 0.38435 0.21658 0.32995 0.0
H246 H 0.44418 0.23506 0.3198 0.0
H247 H 0.45025 0.27109 0.29015 0.0
H248 H 0.46214 0.24556 0.25709 0.0
H249 H 0.39366 0.20505 0.08742 0.0
H250 H 0.40406 0.25831 0.06221 0.0
H251 H 0.4232 0.28966 0.22097 0.0
C252 C 0.40216 0.17102 0.27579 0.0
C253 C 0.39514 0.14144 0.25437 0.0
C254 C 0.38786 0.13538 0.20163 0.0
C255 C 0.38913 0.15925 0.16981 0.0
C256 C 0.39695 0.18857 0.19186 0.0
C257 C 0.40261 0.1943 0.2438 0.0
C258 C 0.41094 0.22799 0.25765 0.0
C259 C 0.38531 0.22806 0.29266 0.0
C260 C 0.44389 0.24601 0.2826 0.0
C261 C 0.4106 0.2409 0.20496 0.0
C262 C 0.4021 0.21754 0.16776 0.0
C263 C 0.4 0.22343 0.1162 0.0
C264 C 0.40604 0.25378 0.10231 0.0
C265 C 0.41438 0.278 0.13969 0.0
C266 C 0.41704 0.27159 0.19166 0.0
H267 H 0.28296 0.43825 0.57784 0.0
H268 H 0.32135 0.53993 0.59796 0.0
H269 H 0.26867 0.53373 0.5833 0.0
H270 H 0.22449 0.42514 0.48143 0.0
H271 H 0.19392 0.38824 0.50793 0.0
H272 H 0.23515 0.40017 0.51766 0.0
H273 H 0.22608 0.39539 0.61601 0.0
H274 H 0.18482 0.3835 0.60658 0.0
H275 H 0.20929 0.41714 0.64706 0.0
H276 H 0.21485 0.5185 0.55904 0.0
H277 H 0.15861 0.49363 0.53697 0.0
H278 H 0.14994 0.40013 0.54683 0.0
C279 C 0.28013 0.45909 0.57871 0.0
C280 C 0.30639 0.48974 0.58718 0.0
C281 C 0.30179 0.51642 0.58968 0.0
C282 C 0.2719 0.51314 0.58185 0.0
C283 C 0.24659 0.48285 0.57315 0.0
C284 C 0.24997 0.45613 0.57247 0.0
C285 C 0.21798 0.42633 0.56461 0.0
C286 C 0.21789 0.40895 0.51495 0.0
C287 C 0.20902 0.40429 0.61136 0.0
C288 C 0.19648 0.44081 0.56009 0.0
C289 C 0.21389 0.47351 0.5646 0.0
C290 C 0.20059 0.49285 0.55742 0.0
C291 C 0.16841 0.47841 0.54579 0.0
C292 C 0.14943 0.44491 0.54353 0.0
C293 C 0.16367 0.42575 0.55039 0.0
H294 H 0.80033 0.24264 0.901 0.0
H295 H 0.77012 0.27567 1.03347 0.0
H296 H 0.71407 0.24252 1.00738 0.0
H297 H 0.73995 0.24227 0.81417 0.0
H298 H 0.73486 0.20771 0.77946 0.0
H299 H 0.77272 0.23467 0.80792 0.0
H300 H 0.77163 0.188 0.85803 0.0
H301 H 0.73387 0.16091 0.82971 0.0
H302 H 0.73805 0.16368 0.89855 0.0
H303 H 0.66169 0.20059 0.97346 0.0
H304 H 0.61629 0.15705 0.92795 0.0
H305 H 0.68031 0.15707 0.81098 0.0
C306 C 0.7818 0.24284 0.9242 0.0
C307 C 0.78916 0.26116 0.96939 0.0
C308 C 0.76466 0.26153 0.99872 0.0
C309 C 0.73286 0.24288 0.98423 0.0
C310 C 0.72621 0.2248 0.93959 0.0
C311 C 0.74996 0.22513 0.90939 0.0
C312 C 0.7363 0.20378 0.86296 0.0
C313 C 0.74657 0.22328 0.81318 0.0
C314 C 0.74551 0.17754 0.86232 0.0
C315 C 0.70118 0.19036 0.87309 0.0
C316 C 0.69585 0.20271 0.91756 0.0
C317 C 0.66543 0.19153 0.93756 0.0
C318 C 0.63974 0.16702 0.91126 0.0
C319 C 0.64467 0.15467 0.86498 0.0
C320 C 0.67577 0.16672 0.84557 0.0
H321 H 0.53437 0.72653 0.1291 0.0
H322 H 0.58895 0.71535 0.25036 0.0
H323 H 0.5737 0.74593 0.30977 0.0
H324 H 0.55832 0.80759 0.16032 0.0
H325 H 0.52071 0.80404 0.14279 0.0
H326 H 0.53399 0.77929 0.11192 0.0
H327 H 0.48164 0.72889 0.13912 0.0
H328 H 0.46861 0.75403 0.1695 0.0
H329 H 0.47019 0.72336 0.2058 0.0
H330 H 0.55108 0.77679 0.35595 0.0
H331 H 0.52939 0.81168 0.38195 0.0
H332 H 0.49557 0.80753 0.22676 0.0
C333 C 0.54301 0.73056 0.16824 0.0
C334 C 0.5626 0.71865 0.18568 0.0
C335 C 0.57398 0.72455 0.23665 0.0
C336 C 0.56522 0.74158 0.27059 0.0
C337 C 0.54565 0.75295 0.25234 0.0
C338 C 0.53522 0.74819 0.20202 0.0
C339 C 0.51674 0.76511 0.1906 0.0
C340 C 0.53346 0.79052 0.14897 0.0
C341 C 0.48227 0.74141 0.17536 0.0
C342 C 0.51821 0.78 0.24241 0.0
C343 C 0.53439 0.77222 0.27786 0.0
C344 C 0.53846 0.78311 0.32845 0.0
C345 C 0.52606 0.80285 0.34287 0.0
C346 C 0.51037 0.81188 0.30653 0.0
C347 C 0.50653 0.80028 0.25578 0.0
H348 H 0.72067 0.51898 0.65198 0.0
H349 H 0.67279 0.49688 0.50472 0.0
H350 H 0.71916 0.49733 0.464 0.0
H351 H 0.80051 0.57204 0.60129 0.0
H352 H 0.81939 0.55884 0.64686 0.0
H353 H 0.7831 0.55853 0.66384 0.0
H354 H 0.75671 0.49872 0.68578 0.0
H355 H 0.79292 0.49899 0.66909 0.0
H356 H 0.75608 0.47121 0.63824 0.0
H357 H 0.77041 0.49923 0.43971 0.0
H358 H 0.82064 0.4974 0.43561 0.0
H359 H 0.83435 0.51743 0.59877 0.0
C360 C 0.72005 0.51433 0.61116 0.0
C361 C 0.69315 0.50754 0.58155 0.0
C362 C 0.69305 0.50159 0.52823 0.0
C363 C 0.7194 0.50217 0.50465 0.0
C364 C 0.74567 0.50903 0.5349 0.0
C365 C 0.74616 0.51491 0.58701 0.0
C366 C 0.77674 0.52031 0.61126 0.0
C367 C 0.79607 0.55446 0.63202 0.0
C368 C 0.77019 0.4958 0.65357 0.0
C369 C 0.7928 0.51525 0.56509 0.0
C370 C 0.7749 0.50958 0.52111 0.0
C371 C 0.78473 0.50379 0.47381 0.0
C372 C 0.81328 0.50295 0.47174 0.0
C373 C 0.83108 0.50731 0.51688 0.0
C374 C 0.82104 0.51412 0.56377 0.0
H375 H 0.22439 0.82434 0.88298 0.0
H376 H 0.29449 0.79509 0.85257 0.0
H377 H 0.26109 0.74457 0.8965 0.0
H378 H 0.19517 0.78591 1.00485 0.0
H379 H 0.15391 0.77199 0.99094 0.0
H380 H 0.18432 0.80764 0.96102 0.0
H381 H 0.16231 0.78387 0.87122 0.0
H382 H 0.1317 0.74824 0.90087 0.0
H383 H 0.15781 0.74572 0.85385 0.0
H384 H 0.22347 0.70013 0.94928 0.0
H385 H 0.17715 0.65689 0.99187 0.0
H386 H 0.12536 0.70836 0.97474 0.0
C387 C 0.23267 0.80732 0.88603 0.0
C388 C 0.26285 0.81432 0.86708 0.0
C389 C 0.27233 0.79099 0.86953 0.0
C390 C 0.25339 0.76206 0.89394 0.0
C391 C 0.22433 0.75623 0.9137 0.0
C392 C 0.21335 0.77755 0.90859 0.0
C393 C 0.17967 0.76353 0.92916 0.0
C394 C 0.1782 0.78346 0.97417 0.0
C395 C 0.15651 0.76013 0.88621 0.0
C396 C 0.17387 0.73129 0.94715 0.0
C397 C 0.20041 0.72817 0.93877 0.0
C398 C 0.20215 0.70178 0.95479 0.0
C399 C 0.17565 0.67732 0.97881 0.0
C400 C 0.14725 0.67871 0.98454 0.0
C401 C 0.1465 0.70634 0.96943 0.0
H402 H 0.49512 0.16116 0.95897 0.0
H403 H 0.59741 0.20588 0.97088 0.0
H404 H 0.59678 0.23926 1.04241 0.0
H405 H 0.49087 0.23704 1.00431 0.0
H406 H 0.45393 0.21174 1.03679 0.0
H407 H 0.46325 0.19884 0.97729 0.0
H408 H 0.45495 0.14724 1.02118 0.0
H409 H 0.44507 0.15981 0.07967 0.0
H410 H 0.4768 0.15041 0.07888 0.0
H411 H 0.5836 0.25246 0.12666 0.0
H412 H 0.559 0.24355 0.21226 0.0
H413 H 0.4659 0.19932 0.14241 0.0
C414 C 0.51739 0.17897 0.9755 0.0
C415 C 0.54624 0.18103 0.96001 0.0
C416 C 0.57507 0.2042 0.98227 0.0
C417 C 0.57493 0.22342 1.02263 0.0
C418 C 0.54588 0.22 1.03882 0.0
C419 C 0.51765 0.19897 1.01483 0.0
C420 C 0.48932 0.19637 1.04387 0.0
C421 C 0.47341 0.21194 1.01376 0.0
C422 C 0.46519 0.16143 1.05669 0.0
C423 C 0.5057 0.21572 0.09137 0.0
C424 C 0.53847 0.2301 0.08704 0.0
C425 C 0.55815 0.24257 0.12993 0.0
C426 C 0.54402 0.23761 0.17862 0.0
C427 C 0.51063 0.22059 0.18365 0.0
C428 C 0.49155 0.2128 0.13934 0.0
H429 H 0.40966 0.58997 0.24141 0.0
H430 H 0.47973 0.68902 0.26423 0.0
H431 H 0.44779 0.69276 0.33477 0.0
H432 H 0.33668 0.59729 0.28807 0.0
H433 H 0.32018 0.55894 0.3183 0.0
H434 H 0.34252 0.56653 0.25945 0.0
H435 H 0.38027 0.54994 0.3029 0.0
H436 H 0.3576 0.54177 0.36071 0.0
H437 H 0.39978 0.56918 0.36196 0.0
H438 H 0.41862 0.68221 0.41548 0.0
H439 H 0.3978 0.65743 0.49942 0.0
H440 H 0.34267 0.56602 0.425 0.0
C441 C 0.41746 0.61268 0.26007 0.0
C442 C 0.44686 0.63924 0.24729 0.0
C443 C 0.45697 0.66848 0.27306 0.0
C444 C 0.43883 0.67088 0.31301 0.0
C445 C 0.41041 0.6439 0.32637 0.0
C446 C 0.39953 0.61538 0.30019 0.0
C447 C 0.37157 0.5886 0.3276 0.0
C448 C 0.34092 0.57718 0.29649 0.0
C449 C 0.37773 0.56082 0.339 0.0
C450 C 0.3708 0.60572 0.3761 0.0
C451 C 0.39253 0.63792 0.37372 0.0
C452 C 0.40073 0.65734 0.41729 0.0
C453 C 0.38865 0.64313 0.46498 0.0
C454 C 0.3687 0.60988 0.46847 0.0
C455 C 0.35741 0.59161 0.42312 0.0
H456 H 0.80913 0.41427 0.89217 0.0
H457 H 0.75496 0.31187 0.87631 0.0
H458 H 0.72492 0.31734 0.80485 0.0
H459 H 0.74142 0.43009 0.84147 0.0
H460 H 0.771 0.46552 0.80986 0.0
H461 H 0.77988 0.45387 0.87052 0.0
H462 H 0.82943 0.45465 0.83035 0.0
H463 H 0.82089 0.46695 0.7709 0.0
H464 H 0.82468 0.43168 0.77296 0.0
H465 H 0.71407 0.33303 0.72197 0.0
H466 H 0.7262 0.35719 0.63612 0.0
H467 H 0.78409 0.4498 0.70476 0.0
C468 C 0.78992 0.3931 0.87496 0.0
C469 C 0.78431 0.36275 0.88941 0.0
C470 C 0.75953 0.3354 0.86576 0.0
C471 C 0.74212 0.33829 0.82542 0.0
C472 C 0.74933 0.36868 0.80985 0.0
C473 C 0.77232 0.39569 0.83461 0.0
C474 C 0.77984 0.42539 0.80492 0.0
C475 C 0.76727 0.44486 0.8334 0.0
C476 C 0.81579 0.44577 0.79411 0.0
C477 C 0.76084 0.41065 0.75648 0.0
C478 C 0.74211 0.37799 0.76108 0.0
C479 C 0.72757 0.35863 0.7184 0.0
C480 C 0.73443 0.37254 0.6696 0.0
C481 C 0.75569 0.40541 0.66406 0.0
C482 C 0.76676 0.42487 0.70815 0.0
H483 H 0.40602 0.81398 0.94954 0.0
H484 H 0.30629 0.78137 0.97631 0.0
H485 H 0.30527 0.74602 1.04452 0.0
H486 H 0.40385 0.73526 0.99446 0.0
H487 H 0.44234 0.75862 1.02362 0.0
H488 H 0.43291 0.77188 0.96506 0.0
H489 H 0.44729 0.82587 1.00812 0.0
H490 H 0.45734 0.81297 0.06558 0.0
H491 H 0.42826 0.82597 0.06774 0.0
H492 H 0.31806 0.72956 0.12373 0.0
H493 H 0.3444 0.73803 0.20735 0.0
H494 H 0.43539 0.776 0.13117 0.0
C495 C 0.38379 0.79834 0.96858 0.0
C496 C 0.35632 0.80029 0.95811 0.0
C497 C 0.32765 0.78018 0.98405 0.0
C498 C 0.32675 0.75969 1.0224 0.0
C499 C 0.35466 0.75933 1.03402 0.0
C500 C 0.38267 0.77791 1.00739 0.0
C501 C 0.41065 0.77839 1.03389 0.0
C502 C 0.42316 0.75992 1.00237 0.0
C503 C 0.43737 0.8128 1.04451 0.0
C504 C 0.3947 0.76073 0.08276 0.0
C505 C 0.36208 0.74853 0.08097 0.0
C506 C 0.34329 0.73781 0.12512 0.0
C507 C 0.35838 0.74254 0.17265 0.0
C508 C 0.39179 0.75763 0.17524 0.0
C509 C 0.4097 0.76372 0.12975 0.0
H510 H 0.58195 0.39344 0.23301 0.0
H511 H 0.50254 0.29993 0.26059 0.0
H512 H 0.52549 0.29781 0.34373 0.0
H513 H 0.64384 0.37966 0.31588 0.0
H514 H 0.66248 0.42075 0.33556 0.0
H515 H 0.64694 0.40945 0.27138 0.0
H516 H 0.61316 0.43686 0.28531 0.0
H517 H 0.62814 0.44786 0.34903 0.0
H518 H 0.58584 0.42495 0.33872 0.0
H519 H 0.5431 0.31525 0.4316 0.0
H520 H 0.55809 0.34737 0.51106 0.0
H521 H 0.63135 0.42739 0.4283 0.0
C522 C 0.5705 0.37185 0.25542 0.0
C523 C 0.54019 0.34705 0.2416 0.0
C524 C 0.52552 0.3192 0.27138 0.0
C525 C 0.53863 0.31781 0.31843 0.0
C526 C 0.56712 0.3441 0.33392 0.0
C527 C 0.58372 0.37013 0.30215 0.0
C528 C 0.61068 0.39742 0.33069 0.0
C529 C 0.64289 0.40207 0.31229 0.0
C530 C 0.60928 0.42853 0.32568 0.0
C531 C 0.60362 0.38452 0.38484 0.0
C532 C 0.57905 0.3533 0.38579 0.0
C533 C 0.56341 0.339 0.4315 0.0
C534 C 0.57193 0.3574 0.47651 0.0
C535 C 0.59621 0.38949 0.47551 0.0
C536 C 0.61351 0.40247 0.43003 0.0
H537 H 0.19443 0.58248 0.86087 0.0
H538 H 0.17456 0.65879 0.83214 0.0
H539 H 0.18727 0.65843 0.74106 0.0
H540 H 0.25335 0.60258 0.73536 0.0
H541 H 0.23776 0.56039 0.728 0.0
H542 H 0.24543 0.57801 0.79126 0.0
H543 H 0.18759 0.53836 0.81717 0.0
H544 H 0.17968 0.5211 0.75469 0.0
H545 H 0.15531 0.53662 0.78013 0.0
H546 H 0.17481 0.63364 0.65811 0.0
H547 H 0.14532 0.59141 0.59449 0.0
H548 H 0.17509 0.53113 0.66992 0.0
C549 C 0.19488 0.60036 0.83559 0.0
C550 C 0.18296 0.62007 0.85254 0.0
C551 C 0.18338 0.64321 0.81938 0.0
C552 C 0.19083 0.6433 0.7675 0.0
C553 C 0.19834 0.6205 0.74988 0.0
C554 C 0.20197 0.6003 0.78345 0.0
C555 C 0.20276 0.5734 0.75466 0.0
C556 C 0.23686 0.57895 0.75216 0.0
C557 C 0.17992 0.5405 0.77801 0.0
C558 C 0.19215 0.57774 0.70227 0.0
C559 C 0.19177 0.60616 0.6992 0.0
C560 C 0.17631 0.61206 0.6591 0.0
C561 C 0.15928 0.58784 0.62333 0.0
C562 C 0.1579 0.55818 0.62815 0.0
C563 C 0.17619 0.5539 0.66572 0.0
H564 H 0.36919 0.92799 1.00807 0.0
H565 H 0.36985 -0.00956 0.88868 0.0
H566 H 0.38892 0.03455 0.95121 0.0
H567 H 0.34069 0.96024 0.1091 0.0
H568 H 0.36423 0.95624 0.15885 0.0
H569 H 0.35149 0.92957 0.10454 0.0
H570 H 0.40976 0.94501 0.0863 0.0
H571 H 0.42256 0.97217 0.13992 0.0
H572 H 0.43906 -0.01373 0.07707 0.0
H573 H 0.40927 0.07342 1.02801 0.0
H574 H 0.42524 0.10129 0.11185 0.0
H575 H 0.41002 0.01419 0.18338 0.0
C576 C 0.37334 0.95093 0.99496 0.0
C577 C 0.36779 0.95528 0.94264 0.0
C578 C 0.37354 -0.01406 0.92802 0.0
C579 C 0.3846 0.01141 0.96349 0.0
C580 C 0.38975 0.00634 1.01445 0.0
C581 C 0.38402 0.97673 1.03033 0.0
C582 C 0.39042 0.97747 0.08788 0.0
C583 C 0.35988 0.95451 0.1168 0.0
C584 C 0.41707 0.96976 0.09829 0.0
C585 C 0.40094 0.01203 0.1017 0.0
C586 C 0.40055 0.02836 1.05867 0.0
C587 C 0.40954 0.06065 0.0618 0.0
C588 C 0.41883 0.07649 0.10978 0.0
C589 C 0.41913 0.06035 0.15485 0.0
C590 C 0.41003 0.02752 0.15014 0.0
H591 H 0.44899 0.40044 0.31275 0.0
H592 H 0.40543 0.4264 0.1907 0.0
H593 H 0.39292 0.45735 0.25189 0.0
H594 H 0.39088 0.39296 0.41303 0.0
H595 H 0.42037 0.40907 0.46308 0.0
H596 H 0.42537 0.38797 0.40982 0.0
H597 H 0.47997 0.43589 0.39429 0.0
H598 H 0.47565 0.46013 0.44304 0.0
H599 H 0.48344 0.47336 0.37718 0.0
H600 H 0.38526 0.48702 0.32587 0.0
H601 H 0.38185 0.51124 0.40768 0.0
H602 H 0.42911 0.46698 0.48518 0.0
C603 C 0.43665 0.41245 0.29893 0.0
C604 C 0.42824 0.41046 0.24603 0.0
C605 C 0.4121 0.42689 0.23043 0.0
C606 C 0.40486 0.44482 0.26515 0.0
C607 C 0.41337 0.4463 0.31652 0.0
C608 C 0.42857 0.43026 0.33372 0.0
C609 C 0.4348 0.436 0.39142 0.0
C610 C 0.41678 0.40463 0.42109 0.0
C611 C 0.4706 0.45233 0.4023 0.0
C612 C 0.42123 0.45806 0.40345 0.0
C613 C 0.40889 0.46352 0.35949 0.0
C614 C 0.39481 0.48277 0.36053 0.0
C615 C 0.39298 0.49658 0.40745 0.0
C616 C 0.40508 0.49134 0.45361 0.0
C617 C 0.41952 0.47171 0.45101 0.0
H618 H 0.02739 0.43711 0.69232 0.0
H619 H 0.01556 0.34747 0.63601 0.0
H620 H -0.02138 0.31955 0.70795 0.0
H621 H 0.01816 0.42262 0.82941 0.0
H622 H -0.00606 0.44111 0.8374 0.0
H623 H 0.02263 0.45343 0.78605 0.0
H624 H -0.02332 0.44028 0.71891 0.0
H625 H 0.94974 0.42963 0.77267 0.0
H626 H 0.94181 0.40171 0.72106 0.0
H627 H 0.94345 0.30155 0.78986 0.0
H628 H 0.90925 0.29434 0.86541 0.0
H629 H 0.93618 0.39399 0.85981 0.0
C630 C 0.01759 0.41166 0.69572 0.0
C631 C 0.02524 0.3947 0.65864 0.0
C632 C 0.01069 0.36122 0.66388 0.0
C633 C -0.01052 0.3451 0.70472 0.0
C634 C -0.01821 0.36243 0.73957 0.0
C635 C -0.00511 0.39493 0.73461 0.0
C636 C -0.0202 0.40747 0.77314 0.0
C637 C 0.00513 0.43266 0.8086 0.0
C638 C 0.96091 0.42059 0.74486 0.0
C639 C 0.95747 0.37736 0.80261 0.0
C640 C 0.95915 0.35163 0.78278 0.0
C641 C 0.94173 0.32154 0.80494 0.0
C642 C 0.92228 0.31762 0.84803 0.0
C643 C 0.91937 0.34332 0.8684 0.0
C644 C 0.93723 0.37361 0.84479 0.0
H645 H 0.47919 0.89377 0.10674 0.0
H646 H 0.53535 0.96265 0.22477 0.0
H647 H 0.55216 0.0055 0.16333 0.0
H648 H 0.53816 0.9349 1.00334 0.0
H649 H 0.50901 0.92669 0.95413 0.0
H650 H 0.49959 0.89975 1.00725 0.0
H651 H 0.45038 0.90536 1.02851 0.0
H652 H 0.45965 0.93227 0.97538 0.0
H653 H 0.45526 0.94439 1.03898 0.0
H654 H 0.56121 0.04281 0.09307 0.0
H655 H 0.56752 0.07199 1.01288 0.0
H656 H 0.51173 0.98266 0.93193 0.0
C657 C 0.49532 0.91779 0.11948 0.0
C658 C 0.50557 0.92401 0.17184 0.0
C659 C 0.52676 0.95624 0.18582 0.0
C660 C 0.53656 0.98128 0.15091 0.0
C661 C 0.52591 0.97456 0.10056 0.0
C662 C 0.50629 0.94369 0.08409 0.0
C663 C 0.4998 0.94399 1.02644 0.0
C664 C 0.51239 0.92521 0.99598 0.0
C665 C 0.46414 0.93069 1.01676 0.0
C666 C 0.51878 0.97968 1.01388 0.0
C667 C 0.53305 -0.00338 1.05796 0.0
C668 C 0.55052 0.02977 1.05809 0.0
C669 C 0.55392 0.04626 1.01213 0.0
C670 C 0.54061 0.02999 0.9655 0.0
C671 C 0.52275 -0.00402 0.96655 0.0
H672 H 0.56623 0.50778 0.43136 0.0
H673 H 0.65504 0.58596 0.48641 0.0
H674 H 0.65525 0.61898 0.41398 0.0
H675 H 0.57302 0.52038 0.2966 0.0
H676 H 0.53327 0.51368 0.28749 0.0
H677 H 0.54171 0.49506 0.34015 0.0
H678 H 0.52079 0.52193 0.40726 0.0
H679 H 0.50981 0.5366 0.35191 0.0
H680 H 0.53461 0.56366 0.40121 0.0
H681 H 0.64636 0.64329 0.33171 0.0
H682 H 0.62611 0.65899 0.25657 0.0
H683 H 0.53793 0.56944 0.2643 0.0
C684 C 0.58572 0.53185 0.4285 0.0
C685 C 0.61086 0.54396 0.46518 0.0
C686 C 0.63566 0.5758 0.45912 0.0
C687 C 0.63592 0.59485 0.41793 0.0
C688 C 0.61043 0.58251 0.38352 0.0
C689 C 0.58527 0.55203 0.38942 0.0
C690 C 0.559 0.54594 0.35103 0.0
C691 C 0.5513 0.51705 0.31678 0.0
C692 C 0.52926 0.54174 0.37944 0.0
C693 C 0.57413 0.57682 0.32033 0.0
C694 C 0.60392 0.59758 0.33969 0.0
C695 C 0.62287 0.62727 0.31697 0.0
C696 C 0.61116 0.63605 0.27406 0.0
C697 C 0.58027 0.61582 0.25441 0.0
C698 C 0.56151 0.58576 0.27845 0.0
H699 H 0.05079 0.56344 0.82633 0.0
H700 H -0.01494 0.55807 0.94506 0.0
H701 H 0.94076 0.532 0.88428 0.0
H702 H 0.01028 0.57962 0.7202 0.0
H703 H 0.01806 0.55621 0.6744 0.0
H704 H 0.0451 0.57547 0.72689 0.0
H705 H 0.03899 0.52161 0.75282 0.0
H706 H 0.01052 0.50106 0.70257 0.0
H707 H 0.00028 0.48925 0.76866 0.0
H708 H 0.90228 0.50444 0.8115 0.0
H709 H 0.87362 0.48083 0.73071 0.0
H710 H 0.96283 0.50389 0.65653 0.0
C711 C 0.02715 0.55712 0.83946 0.0
C712 C 0.02188 0.56313 0.89117 0.0
C713 C -0.00973 0.55414 0.90612 0.0
C714 C 0.96468 0.5391 0.8717 0.0
C715 C 0.97059 0.53321 0.82155 0.0
C716 C 0.00109 0.54234 0.80508 0.0
C717 C 0.00063 0.53316 0.74877 0.0
C718 C 0.01965 0.56289 0.71561 0.0
C719 C 0.01337 0.50987 0.74276 0.0
C720 C 0.96514 0.5171 0.73658 0.0
C721 C 0.94832 0.51745 0.77928 0.0
C722 C 0.91531 0.50416 0.77783 0.0
C723 C 0.8991 0.49057 0.73161 0.0
C724 C 0.91557 0.49016 0.68676 0.0
C725 C 0.94922 0.5036 0.6898 0.0
H726 H 0.48122 0.05876 0.3526 0.0
H727 H 0.49674 0.07741 0.18927 0.0
H728 H 0.48794 0.02334 0.1748 0.0
H729 H 0.51819 0.00449 0.35842 0.0
H730 H 0.48928 0.97993 0.40579 0.0
H731 H 0.50317 0.02202 0.40409 0.0
H732 H 0.44455 0.00924 0.39783 0.0
H733 H 0.43079 0.96726 0.3972 0.0
H734 H 0.42024 -0.01511 0.34558 0.0
H735 H 0.46384 0.96621 0.17542 0.0
H736 H 0.43798 0.9091 0.19214 0.0
H737 H 0.44621 0.92732 0.35638 0.0
C738 C 0.484 0.05168 0.31423 0.0
C739 C 0.48949 0.07163 0.27193 0.0
C740 C 0.49276 0.06215 0.22199 0.0
C741 C 0.48777 0.03161 0.21343 0.0
C742 C 0.48071 0.01176 0.2556 0.0
C743 C 0.48002 0.02159 0.3053 0.0
C744 C 0.46961 -0.00539 0.34308 0.0
C745 C 0.49671 0.00064 0.38 0.0
C746 C 0.43952 -0.01133 0.37262 0.0
C747 C 0.46272 0.96779 0.30625 0.0
C748 C 0.46891 0.97832 0.25606 0.0
C749 C 0.45975 0.95768 0.2145 0.0
C750 C 0.44493 0.92533 0.22448 0.0
C751 C 0.44135 0.91431 0.27555 0.0
C752 C 0.44982 0.93559 0.31707 0.0
H753 H 0.48214 0.57445 0.65221 0.0
H754 H 0.49404 0.59484 0.48991 0.0
H755 H 0.54347 0.59296 0.49047 0.0
H756 H 0.58054 0.60215 0.66908 0.0
H757 H 0.56808 0.57188 0.7178 0.0
H758 H 0.5516 0.59814 0.71639 0.0
H759 H 0.49546 0.54949 0.71449 0.0
H760 H 0.51134 0.5231 0.71447 0.0
H761 H 0.48484 0.52029 0.66379 0.0
H762 H 0.54307 0.54436 0.4907 0.0
H763 H 0.5383 0.49231 0.50492 0.0
H764 H 0.54542 0.50876 0.66855 0.0
C765 C 0.49659 0.58031 0.61788 0.0
C766 C 0.48421 0.58286 0.57059 0.0
C767 C 0.50305 0.59172 0.52614 0.0
C768 C 0.53136 0.59108 0.52641 0.0
C769 C 0.53941 0.5809 0.57104 0.0
C770 C 0.52479 0.5791 0.61799 0.0
C771 C 0.53319 0.56124 0.65707 0.0
C772 C 0.55999 0.58475 0.69217 0.0
C773 C 0.50445 0.5371 0.68917 0.0
C774 C 0.5451 0.545 0.62095 0.0
C775 C 0.54816 0.55655 0.57142 0.0
C776 C 0.54494 0.53735 0.5292 0.0
C777 C 0.54137 0.50746 0.53753 0.0
C778 C 0.54434 0.4983 0.5873 0.0
C779 C 0.54537 0.51673 0.6298 0.0
H780 H 0.95217 0.37757 1.02854 0.0
H781 H 0.90918 0.4199 0.12196 0.0
H782 H 0.95928 0.45163 0.16713 0.0
H783 H 0.03513 0.40999 0.12664 0.0
H784 H 0.05437 0.41218 0.0668 0.0
H785 H 0.01595 0.37835 0.07994 0.0
H786 H -0.00039 0.39146 0.99117 0.0
H787 H 0.03713 0.42646 0.98464 0.0
H788 H 0.00145 0.42946 0.9833 0.0
H789 H 0.00673 0.49719 0.1526 0.0
H790 H 0.04321 0.53993 0.0974 0.0
H791 H 0.06708 0.47675 1.01664 0.0
C792 C 0.95349 0.39234 0.06081 0.0
C793 C 0.92771 0.39715 0.07157 0.0
C794 C 0.9291 0.41648 0.11287 0.0
C795 C 0.95754 0.43424 0.13911 0.0
C796 C -0.01542 0.43365 0.12138 0.0
C797 C -0.01741 0.4115 0.085 0.0
C798 C 0.01477 0.42168 1.06055 0.0
C799 C 0.03089 0.40447 0.08504 0.0
C800 C 0.01306 0.41709 1.00148 0.0
C801 C 0.03176 0.45616 0.07645 0.0
C802 C 0.01499 0.46194 0.11457 0.0
C803 C 0.02068 0.49264 0.12477 0.0
C804 C 0.04136 0.51707 0.09287 0.0
C805 C 0.05792 0.51144 1.05362 0.0
C806 C 0.05478 0.48125 1.04755 0.0
H807 H -0.01115 0.41805 0.45219 0.0
H808 H -0.00598 0.42659 0.61662 0.0
H809 H 0.94627 0.37526 0.62548 0.0
H810 H 0.9313 0.41873 0.44315 0.0
H811 H 0.90441 0.38889 0.3985 0.0
H812 H 0.94622 0.40315 0.39411 0.0
H813 H 0.93856 0.34807 0.40052 0.0
H814 H 0.89608 0.33158 0.40354 0.0
H815 H 0.91622 0.32186 0.45211 0.0
H816 H 0.89195 0.33489 0.62112 0.0
H817 H 0.86206 0.3629 0.63236 0.0
H818 H 0.87608 0.38903 0.47262 0.0
C819 C -0.02027 0.4081 0.48969 0.0
C820 C -0.0041 0.42456 0.53403 0.0
C821 C -0.01708 0.41291 0.58252 0.0
C822 C 0.95584 0.38337 0.58745 0.0
C823 C 0.93887 0.36758 0.54326 0.0
C824 C 0.95008 0.38062 0.49486 0.0
C825 C 0.92264 0.37022 0.45833 0.0
C826 C 0.92636 0.39689 0.42152 0.0
C827 C 0.9181 0.34119 0.4269 0.0
C828 C 0.8962 0.36021 0.49785 0.0
C829 C 0.9043 0.34991 0.54244 0.0
C830 C 0.8869 0.34489 0.58778 0.0
C831 C 0.87052 0.3615 0.59439 0.0
C832 C 0.86958 0.37998 0.5539 0.0
C833 C 0.8785 0.37591 0.50411 0.0
H834 H 0.37514 0.95049 0.75192 0.0
H835 H 0.43307 0.90804 0.71796 0.0
H836 H 0.46022 0.94731 0.65047 0.0
H837 H 0.41491 0.00984 0.60642 0.0
H838 H 0.40583 0.03711 0.63919 0.0
H839 H 0.37579 -0.00401 0.63263 0.0
H840 H 0.36785 -0.00586 0.73158 0.0
H841 H 0.39797 0.03508 0.73443 0.0
H842 H 0.4018 0.00642 0.77309 0.0
H843 H 0.50042 -0.00311 0.67852 0.0
H844 H 0.52298 0.02986 0.75354 0.0
H845 H 0.45319 0.05993 0.74943 0.0
C846 C 0.39257 0.94902 0.72778 0.0
C847 C 0.40385 0.9283 0.74172 0.0
C848 C 0.42556 0.92525 0.70976 0.0
C849 C 0.44043 0.94708 0.6704 0.0
C850 C 0.43504 0.97297 0.66685 0.0
C851 C 0.40813 0.97167 0.68911 0.0
C852 C 0.41178 0.00472 0.69057 0.0
C853 C 0.40148 0.0123 0.63914 0.0
C854 C 0.39386 0.01037 0.73522 0.0
C855 C 0.44746 0.0235 0.69485 0.0
C856 C 0.46063 0.0055 0.67523 0.0
C857 C 0.49055 0.0115 0.69148 0.0
C858 C 0.50381 0.0307 0.73428 0.0
C859 C 0.49083 0.04863 0.75487 0.0
C860 C 0.46379 0.04691 0.7324 0.0
H861 H 0.48001 0.54781 1.01874 0.0
H862 H 0.57539 0.59548 0.07753 0.0
H863 H 0.58824 0.56083 1.02961 0.0
H864 H 0.45506 0.48778 1.04773 0.0
H865 H 0.43672 0.45918 0.99646 0.0
H866 H 0.44264 0.49845 0.98941 0.0
H867 H 0.47362 0.50413 0.90482 0.0
H868 H 0.46743 0.4645 0.91375 0.0
H869 H 0.5069 0.49751 0.90465 0.0
H870 H 0.58094 0.51084 1.04119 0.0
H871 H 0.55685 0.46476 0.09807 0.0
H872 H 0.46442 0.43734 1.03604 0.0
C873 C 0.50391 0.55144 1.01824 0.0
C874 C 0.52694 0.57448 1.05059 0.0
C875 C 0.55792 0.57906 1.05093 0.0
C876 C 0.56531 0.55899 1.02347 0.0
C877 C 0.5407 0.53246 0.99957 0.0
C878 C 0.51073 0.52967 0.99319 0.0
C879 C 0.48638 0.49549 0.98124 0.0
C880 C 0.45331 0.48462 1.00534 0.0
C881 C 0.48342 0.49006 0.92273 0.0
C882 C 0.50356 0.47958 1.00408 0.0
C883 C 0.53601 0.50077 1.00733 0.0
C884 C 0.55575 0.4943 1.03821 0.0
C885 C 0.54188 0.4686 0.07162 0.0
C886 C 0.50874 0.44898 0.07238 0.0
C887 C 0.48982 0.45293 1.03582 0.0
H888 H 0.32498 0.9122 0.61225 0.0
H889 H 0.297 0.97082 0.70014 0.0
H890 H 0.30165 0.00158 0.62164 0.0
H891 H 0.38571 0.97421 0.54128 0.0
H892 H 0.37791 0.94843 0.48688 0.0
H893 H 0.3679 0.93213 0.55044 0.0
H894 H 0.30914 0.89552 0.51155 0.0
H895 H 0.32219 0.91655 0.45157 0.0
H896 H 0.28898 0.91509 0.48552 0.0
H897 H 0.31628 0.02983 0.53802 0.0
H898 H 0.34314 0.05626 0.45793 0.0
H899 H 0.36451 0.98068 0.4259 0.0
C900 C 0.31884 0.93088 0.61465 0.0
C901 C 0.31015 0.93899 0.66182 0.0
C902 C 0.30321 0.96408 0.66402 0.0
C903 C 0.30569 0.98151 0.61966 0.0
C904 C 0.31511 0.97337 0.57386 0.0
C905 C 0.32168 0.94868 0.57114 0.0
C906 C 0.33545 0.94735 0.51945 0.0
C907 C 0.36865 0.95069 0.52486 0.0
C908 C 0.3126 0.91682 0.49029 0.0
C909 C 0.33731 0.97624 0.49433 0.0
C910 C 0.32459 -0.00966 0.5258 0.0
C911 C 0.32582 0.01874 0.51279 0.0
C912 C 0.34125 0.0336 0.46728 0.0
C913 C 0.35579 0.02036 0.43586 0.0
C914 C 0.35309 -0.00906 0.44885 0.0
H915 H 0.36772 0.41021 0.98475 0.0
H916 H 0.39394 0.33974 0.9399 0.0
H917 H 0.39954 0.35724 0.85014 0.0
H918 H 0.32103 0.39988 0.8625 0.0
H919 H 0.33212 0.44134 0.86216 0.0
H920 H 0.32733 0.42116 0.92224 0.0
H921 H 0.38479 0.46374 0.94841 0.0
H922 H 0.38895 0.4836 0.88839 0.0
H923 H 0.41713 0.4713 0.90559 0.0
H924 H 0.41147 0.38864 0.76879 0.0
H925 H 0.41731 0.42458 0.69667 0.0
H926 H 0.37816 0.47035 0.79294 0.0
C927 C 0.37334 0.39771 0.95555 0.0
C928 C 0.37998 0.37347 0.96882 0.0
C929 C 0.38803 0.35794 0.93013 0.0
C930 C 0.39162 0.3679 0.87912 0.0
C931 C 0.38602 0.39267 0.86735 0.0
C932 C 0.37584 0.40654 0.904 0.0
C933 C 0.37111 0.43245 0.88086 0.0
C934 C 0.3358 0.42314 0.88199 0.0
C935 C 0.39173 0.46466 0.90749 0.0
C936 C 0.38234 0.43234 0.82668 0.0
C937 C 0.39089 0.40929 0.81949 0.0
C938 C 0.40405 0.40627 0.77339 0.0
C939 C 0.40761 0.42686 0.73297 0.0
C940 C 0.39778 0.4497 0.73942 0.0
C941 C 0.38533 0.4526 0.78688 0.0
H942 H 0.9699 0.33741 0.1308 0.0
H943 H 0.8839 0.25289 0.17812 0.0
H944 H 0.90669 0.25758 0.26486 0.0
H945 H 0.02834 0.32804 0.20761 0.0
H946 H 0.05021 0.37001 0.22174 0.0
H947 H 0.02865 0.35619 0.16234 0.0
H948 H -0.00467 0.38543 0.18538 0.0
H949 H 0.02054 0.40034 0.24097 0.0
H950 H -0.02206 0.37909 0.248 0.0
H951 H 0.93528 0.278 0.3505 0.0
H952 H 0.96933 0.30903 0.42391 0.0
H953 H 0.03702 0.37814 0.31791 0.0
C954 C 0.95637 0.31913 0.15874 0.0
C955 C 0.92541 0.2945 0.14764 0.0
C956 C 0.90793 0.27166 0.18573 0.0
C957 C 0.92062 0.27425 0.23512 0.0
C958 C 0.95082 0.29973 0.2455 0.0
C959 C 0.96853 0.32155 0.20804 0.0
C960 C -0.00134 0.34873 0.22977 0.0
C961 C 0.02822 0.35086 0.20382 0.0
C962 C -0.00184 0.38026 0.22575 0.0
C963 C -0.00422 0.33847 0.28501 0.0
C964 C 0.9677 0.31056 0.29392 0.0
C965 C 0.95782 0.29924 0.34366 0.0
C966 C -0.02283 0.31696 0.38506 0.0
C967 C 0.00613 0.34526 0.37613 0.0
C968 C 0.01563 0.3558 0.32553 0.0
H969 H 0.56181 0.04346 0.63098 0.0
H970 H 0.59953 -0.00692 0.71711 0.0
H971 H 0.59998 0.96491 0.63678 0.0
H972 H 0.50872 0.97811 0.55497 0.0
H973 H 0.51367 0.00361 0.50147 0.0
H974 H 0.51905 0.01875 0.56599 0.0
H975 H 0.57805 0.0643 0.53822 0.0
H976 H 0.56906 0.04679 0.47492 0.0
H977 H 0.6036 0.05172 0.5088 0.0
H978 H 0.59414 0.94162 0.54561 0.0
H979 H 0.57589 0.92001 0.45835 0.0
H980 H 0.54061 -0.01418 0.43686 0.0
C981 C 0.57067 0.02684 0.63316 0.0
C982 C 0.58107 0.02064 0.67989 0.0
C983 C 0.59164 -0.00184 0.68136 0.0
C984 C 0.59217 0.98235 0.63599 0.0
C985 C 0.5819 -0.01059 0.59024 0.0
C986 C 0.57099 0.0109 0.58905 0.0
C987 C 0.55845 0.01263 0.53703 0.0
C988 C 0.52292 0.00273 0.54001 0.0
C989 C 0.57842 0.04581 0.51333 0.0
C990 C 0.56348 -0.01165 0.50858 0.0
C991 C 0.57759 0.97556 0.53932 0.0
C992 C 0.58329 0.95167 0.52133 0.0
C993 C 0.57306 0.93974 0.4716 0.0
C994 C 0.5569 0.95143 0.4411 0.0
C995 C 0.55309 0.9767 0.45925 0.0
H996 H 0.63782 0.62394 0.99033 0.0
H997 H 0.63232 0.70534 0.93464 0.0
H998 H 0.63981 0.69207 0.84573 0.0
H999 H 0.6967 0.62712 0.89196 0.0
H1000 H 0.67715 0.58434 0.88857 0.0
H1001 H 0.67707 0.60371 0.94785 0.0
H1002 H 0.61631 0.57007 0.94967 0.0
H1003 H 0.61494 0.55165 0.88911 0.0
H1004 H 0.59309 0.5726 0.89783 0.0
H1005 H 0.63957 0.66488 0.76165 0.0
H1006 H 0.63565 0.6282 0.69125 0.0
H1007 H 0.64141 0.56529 0.80298 0.0
C1008 C 0.63956 0.63975 0.95968 0.0
C1009 C 0.63495 0.66593 0.96941 0.0
C1010 C 0.6363 0.68545 0.92808 0.0
C1011 C 0.6404 0.678 0.87741 0.0
C1012 C 0.64343 0.65114 0.86879 0.0
C1013 C 0.64364 0.63264 0.90897 0.0
C1014 C 0.64466 0.60363 0.88941 0.0
C1015 C 0.67575 0.60479 0.90538 0.0
C1016 C 0.61548 0.57269 0.90754 0.0
C1017 C 0.64378 0.60803 0.83214 0.0
C1018 C 0.64331 0.63564 0.82073 0.0
C1019 C 0.6404 0.64344 0.7702 0.0
C1020 C 0.63787 0.62241 0.73053 0.0
C1021 C 0.63802 0.59395 0.74185 0.0
C1022 C 0.64154 0.58709 0.79318 0.0
H1023 H 0.00281 0.60358 0.20891 0.0
H1024 H 0.06418 0.56336 0.18149 0.0
H1025 H 0.05328 0.54075 0.26832 0.0
H1026 H 0.02529 0.6238 0.34451 0.0
H1027 H -0.01429 0.61397 0.36406 0.0
H1028 H -0.00062 0.62837 0.3001 0.0
H1029 H 0.95121 0.5782 0.26154 0.0
H1030 H 0.93724 0.56399 0.3253 0.0
H1031 H 0.94396 0.53938 0.28048 0.0
H1032 H 0.03001 0.51623 0.35271 0.0
H1033 H -0.00172 0.49497 0.43236 0.0
H1034 H 0.95739 0.55604 0.40949 0.0
C1035 C 0.01382 0.59 0.22148 0.0
C1036 C 0.03378 0.58462 0.18863 0.0
C1037 C 0.04829 0.56716 0.20605 0.0
C1038 C 0.04242 0.55435 0.25533 0.0
C1039 C 0.02239 0.5597 0.28696 0.0
C1040 C 0.00857 0.57738 0.27111 0.0
C1041 C -0.01248 0.57899 0.31257 0.0
C1042 C 0.00025 0.61333 0.33142 0.0
C1043 C 0.95294 0.56425 0.29385 0.0
C1044 C -0.00899 0.55874 0.35331 0.0
C1045 C 0.01114 0.54771 0.33779 0.0
C1046 C 0.01491 0.52541 0.36622 0.0
C1047 C -0.00303 0.51353 0.41128 0.0
C1048 C 0.97629 0.52463 0.42746 0.0
C1049 C 0.97403 0.54811 0.3989 0.0
H1050 H 0.48218 0.09262 0.46123 0.0
H1051 H 0.50445 0.19096 0.45391 0.0
H1052 H 0.52901 0.20034 0.54076 0.0
H1053 H 0.46271 0.07883 0.59469 0.0
H1054 H 0.48093 0.05428 0.60054 0.0
H1055 H 0.46485 0.05692 0.53998 0.0
H1056 H 0.51962 0.07291 0.49973 0.0
H1057 H 0.53644 0.0732 0.56144 0.0
H1058 H 0.55447 0.10825 0.52217 0.0
H1059 H 0.54894 0.19666 0.63423 0.0
H1060 H 0.56484 0.18181 0.71578 0.0
H1061 H 0.53145 0.08684 0.65537 0.0
C1062 C 0.49207 0.11623 0.47771 0.0
C1063 C 0.49094 0.14098 0.45064 0.0
C1064 C 0.50491 0.17157 0.47367 0.0
C1065 C 0.51882 0.17702 0.52319 0.0
C1066 C 0.51909 0.15179 0.54902 0.0
C1067 C 0.50634 0.12211 0.52629 0.0
C1068 C 0.51018 0.09893 0.56019 0.0
C1069 C 0.47771 0.0706 0.5747 0.0
C1070 C 0.53144 0.08767 0.53417 0.0
C1071 C 0.52655 0.11971 0.60639 0.0
C1072 C 0.53149 0.15016 0.59986 0.0
C1073 C 0.5454 0.17292 0.63902 0.0
C1074 C 0.55441 0.1643 0.68539 0.0
C1075 C 0.54999 0.13329 0.69225 0.0
C1076 C 0.53587 0.11098 0.65166 0.0
H1077 H 0.41044 0.54633 0.7851 0.0
H1078 H 0.44102 0.63546 0.70626 0.0
H1079 H 0.46924 0.66477 0.78519 0.0
H1080 H 0.39886 0.57369 0.91311 0.0
H1081 H 0.41208 0.5495 0.94557 0.0
H1082 H 0.39259 0.53712 0.88421 0.0
H1083 H 0.44123 0.5333 0.85033 0.0
H1084 H 0.46086 0.54702 0.91125 0.0
H1085 H 0.48021 0.56795 0.85333 0.0
H1086 H 0.49969 0.684 0.87171 0.0
H1087 H 0.52408 0.69098 0.95801 0.0
H1088 H 0.4708 0.58927 0.98116 0.0
C1089 C 0.42248 0.57207 0.78463 0.0
C1090 C 0.42323 0.58856 0.73922 0.0
C1091 C 0.43955 0.62223 0.7405 0.0
C1092 C 0.45591 0.63905 0.7852 0.0
C1093 C 0.45539 0.62195 0.8288 0.0
C1094 C 0.43847 0.58912 0.82899 0.0
C1095 C 0.44176 0.57607 0.88021 0.0
C1096 C 0.4094 0.55803 0.9074 0.0
C1097 C 0.45692 0.55483 0.87329 0.0
C1098 C 0.4639 0.60659 0.90865 0.0
C1099 C 0.47164 0.63288 0.87843 0.0
C1100 C 0.49323 0.66353 0.89576 0.0
C1101 C 0.50702 0.66733 0.94485 0.0
C1102 C 0.49899 0.64076 0.97659 0.0
C1103 C 0.47702 0.61006 0.95809 0.0
H1104 H 0.85657 0.39977 0.14703 0.0
H1105 H 0.8055 0.29897 0.17929 0.0
H1106 H 0.79269 0.31031 0.26667 0.0
H1107 H 0.89372 0.42093 0.27085 0.0
H1108 H 0.89393 0.45827 0.27412 0.0
H1109 H 0.89515 0.44163 0.21274 0.0
H1110 H 0.84528 0.44433 0.18453 0.0
H1111 H 0.84366 0.46053 0.24623 0.0
H1112 H 0.80958 0.42497 0.22272 0.0
H1113 H 0.78617 0.3336 0.35248 0.0
H1114 H 0.79436 0.36583 0.43131 0.0
H1115 H 0.85527 0.4513 0.34604 0.0
C1116 C 0.84255 0.38011 0.17243 0.0
C1117 C 0.83166 0.34842 0.15613 0.0
C1118 C 0.81375 0.32337 0.19078 0.0
C1119 C 0.80631 0.32964 0.24044 0.0
C1120 C 0.81762 0.36122 0.2556 0.0
C1121 C 0.83599 0.38606 0.22281 0.0
C1122 C 0.84839 0.41788 0.25008 0.0
C1123 C 0.88495 0.43572 0.25208 0.0
C1124 C 0.83598 0.43812 0.22434 0.0
C1125 C 0.834 0.4072 0.30323 0.0
C1126 C 0.81571 0.37446 0.30544 0.0
C1127 C 0.80036 0.35924 0.35091 0.0
C1128 C 0.80475 0.37776 0.39548 0.0
C1129 C 0.82481 0.41116 0.39474 0.0
C1130 C 0.83915 0.42591 0.34759 0.0
H1131 H 0.40946 0.86938 0.44559 0.0
H1132 H 0.41332 0.78225 0.45994 0.0
H1133 H 0.38883 0.77402 0.54693 0.0
H1134 H 0.42985 0.89697 0.57028 0.0
H1135 H 0.40304 0.91252 0.57663 0.0
H1136 H 0.4178 0.91004 0.51428 0.0
H1137 H 0.36098 0.87797 0.4813 0.0
H1138 H 0.34361 0.87681 0.54325 0.0
H1139 H 0.33368 0.84041 0.51027 0.0
H1140 H 0.36868 0.7797 0.63864 0.0
H1141 H 0.35165 0.79567 0.71824 0.0
H1142 H 0.3595 0.87791 0.63936 0.0
C1143 C 0.40453 0.84813 0.46654 0.0
C1144 C 0.41307 0.82627 0.44565 0.0
C1145 C 0.40648 0.799 0.47461 0.0
C1146 C 0.39282 0.79436 0.52431 0.0
C1147 C 0.38545 0.81697 0.54427 0.0
C1148 C 0.39065 0.84302 0.51549 0.0
C1149 C 0.38115 0.86422 0.54487 0.0
C1150 C 0.40965 0.89791 0.55189 0.0
C1151 C 0.35325 0.86494 0.51825 0.0
C1152 C 0.37076 0.84686 0.5956 0.0
C1153 C 0.37326 0.81959 0.59491 0.0
C1154 C 0.36625 0.80076 0.63888 0.0
C1155 C 0.35656 0.81004 0.68412 0.0
C1156 C 0.35362 0.83782 0.68535 0.0
C1157 C 0.36074 0.85616 0.63997 0.0
H1158 H 0.55525 0.46069 0.76812 0.0
H1159 H 0.5985 0.40316 0.73086 0.0
H1160 H 0.57677 0.37297 0.81201 0.0
H1161 H 0.56811 0.4657 0.90299 0.0
H1162 H 0.53058 0.46281 0.91883 0.0
H1163 H 0.5495 0.47997 0.85867 0.0
H1164 H 0.49943 0.4398 0.80907 0.0
H1165 H 0.47971 0.42282 0.86885 0.0
H1166 H 0.48286 0.39781 0.82034 0.0
H1167 H 0.55056 0.35041 0.90369 0.0
H1168 H 0.52008 0.33608 0.98602 0.0
H1169 H 0.49257 0.40716 0.95585 0.0
C1170 C 0.56037 0.44182 0.7768 0.0
C1171 C 0.57901 0.43465 0.74294 0.0
C1172 C 0.58443 0.40928 0.75597 0.0
C1173 C 0.57219 0.39204 0.80221 0.0
C1174 C 0.55403 0.39999 0.83487 0.0
C1175 C 0.54789 0.42413 0.82192 0.0
C1176 C 0.52721 0.428 0.8619 0.0
C1177 C 0.54495 0.46111 0.88702 0.0
C1178 C 0.49544 0.42173 0.83864 0.0
C1179 C 0.52239 0.40228 0.89964 0.0
C1180 C 0.53827 0.38647 0.88435 0.0
C1181 C 0.53782 0.36255 0.9153 0.0
C1182 C 0.52051 0.35455 0.9622 0.0
C1183 C 0.50332 0.36996 0.97737 0.0
C1184 C 0.50473 0.39423 0.9453 0.0
H1185 H 0.08436 0.46326 0.32433 0.0
H1186 H 0.13486 0.54643 0.42215 0.0
H1187 H 0.15437 0.58043 0.346 0.0
H1188 H 0.14576 0.49241 0.22141 0.0
H1189 H 0.11695 0.47575 0.1705 0.0
H1190 H 0.10831 0.45682 0.23243 0.0
H1191 H 0.05672 0.46086 0.24053 0.0
H1192 H 0.0654 0.47729 0.17712 0.0
H1193 H 0.05896 0.49859 0.22852 0.0
H1194 H 0.16585 0.6067 0.25966 0.0
H1195 H 0.16428 0.62282 0.17022 0.0
H1196 H 0.10747 0.5239 0.12653 0.0
C1197 C 0.09972 0.48858 0.32976 0.0
C1198 C 0.10795 0.50187 0.37987 0.0
C1199 C 0.12806 0.53528 0.3847 0.0
C1200 C 0.13949 0.55499 0.34143 0.0
C1201 C 0.13102 0.54123 0.29286 0.0
C1202 C 0.11155 0.5088 0.28665 0.0
C1203 C 0.10516 0.50043 0.22993 0.0
C1204 C 0.11993 0.48015 0.21256 0.0
C1205 C 0.06939 0.48333 0.21848 0.0
C1206 C 0.12247 0.53335 0.20567 0.0
C1207 C 0.13798 0.55646 0.24267 0.0
C1208 C 0.1543 0.58875 0.23021 0.0
C1209 C 0.15372 0.59777 0.17911 0.0
C1210 C 0.13694 0.57469 0.14087 0.0
C1211 C 0.12167 0.54204 0.15439 0.0
loop_
_geom_bond_atom_site_label_1
_geom_bond_atom_site_label_2
_geom_bond_distance
_geom_bond_site_symmetry_2
_ccdc_geom_bond_type
Dy0 O4 2.398 . S
Dy0 O5 2.491 . S
Dy0 O6 2.403 . S
Dy0 O7 2.664 . S
Dy0 O11 2.326 . S
Dy0 O15 2.310 . S
Dy0 O16 2.351 . S
C1 O12 1.185 . S
C1 O13 1.355 . S
C2 O4 1.185 . S
C2 O5 1.355 . S
Dy3 O7 2.310 . S
Dy3 O10 2.351 . S
Dy3 O12 2.398 . S
Dy3 O13 2.491 . S
Dy3 O14 2.403 . S
Dy3 O15 2.664 . S
Dy3 O17 2.326 . S
O4 Dy0 2.398 . S
O4 C2 1.185 . S
O5 Dy0 2.491 . S
O5 C2 1.355 . S
O6 Dy0 2.403 . S
O6 C8 1.254 . S
O7 Dy0 2.664 . S
O7 Dy3 2.310 . S
O7 C8 1.268 . S
C8 O6 1.254 . S
C8 O7 1.268 . S
C9 O14 1.254 . S
C9 O15 1.268 . S
O10 Dy3 2.351 . S
O10 C18 1.249 . S
O11 Dy0 2.326 . S
O11 C18 1.267 . S
O12 C1 1.185 . S
O12 Dy3 2.398 . S
O13 C1 1.355 . S
O13 Dy3 2.491 . S
O14 Dy3 2.403 . S
O14 C9 1.254 . S
O15 Dy0 2.310 . S
O15 Dy3 2.664 . S
O15 C9 1.268 . S
O16 Dy0 2.351 . S
O16 C19 1.249 . S
O17 Dy3 2.326 . S
O17 C19 1.267 . S
C18 O10 1.249 . S
C18 O11 1.267 . S
C19 O16 1.249 . S
C19 O17 1.267 . S
Dy20 O24 2.398 . S
Dy20 O25 2.491 . S
Dy20 O26 2.403 . S
Dy20 O27 2.664 . S
Dy20 O31 2.326 . S
Dy20 O35 2.310 . S
Dy20 O36 2.351 . S
C21 O32 1.185 . S
C21 O33 1.355 . S
C22 O24 1.185 . S
C22 O25 1.355 . S
Dy23 O27 2.310 . S
Dy23 O30 2.351 . S
Dy23 O32 2.398 . S
Dy23 O33 2.491 . S
Dy23 O34 2.403 . S
Dy23 O35 2.664 . S
Dy23 O37 2.326 . S
O24 Dy20 2.398 . S
O24 C22 1.185 . S
O25 Dy20 2.491 . S
O25 C22 1.355 . S
O26 Dy20 2.403 . S
O26 C28 1.254 . S
O27 Dy20 2.664 . S
O27 Dy23 2.310 . S
O27 C28 1.268 . S
C28 O26 1.254 . S
C28 O27 1.268 . S
C29 O34 1.254 . S
C29 O35 1.268 . S
O30 Dy23 2.351 . S
O30 C38 1.249 . S
O31 Dy20 2.326 . S
O31 C38 1.267 . S
O32 C21 1.185 . S
O32 Dy23 2.398 . S
O33 C21 1.355 . S
O33 Dy23 2.491 . S
O34 Dy23 2.403 . S
O34 C29 1.254 . S
O35 Dy20 2.310 . S
O35 Dy23 2.664 . S
O35 C29 1.268 . S
O36 Dy20 2.351 . S
O36 C39 1.249 . S
O37 Dy23 2.326 . S
O37 C39 1.267 . S
C38 O30 1.249 . S
C38 O31 1.267 . S
C39 O36 1.249 . S
C39 O37 1.267 . S
Dy40 O44 2.398 1_556 S
Dy40 O45 2.491 1_556 S
Dy40 O46 2.403 . S
Dy40 O47 2.664 . S
Dy40 O51 2.326 . S
Dy40 O55 2.310 . S
Dy40 O56 2.351 . S
C41 O52 1.185 . S
C41 O53 1.355 . S
C42 O44 1.185 . S
C42 O45 1.355 . S
Dy43 O47 2.310 . S
Dy43 O50 2.351 . S
Dy43 O52 2.398 . S
Dy43 O53 2.491 . S
Dy43 O54 2.403 . S
Dy43 O55 2.664 . S
Dy43 O57 2.326 . S
O44 Dy40 2.398 1_554 S
O44 C42 1.185 . S
O45 Dy40 2.491 1_554 S
O45 C42 1.355 . S
O46 Dy40 2.403 . S
O46 C48 1.254 . S
O47 Dy40 2.664 . S
O47 Dy43 2.310 . S
O47 C48 1.268 . S
C48 O46 1.254 . S
C48 O47 1.268 . S
C49 O54 1.254 . S
C49 O55 1.268 . S
O50 Dy43 2.351 . S
O50 C58 1.249 . S
O51 Dy40 2.326 . S
O51 C58 1.267 . S
O52 C41 1.185 . S
O52 Dy43 2.398 . S
O53 C41 1.355 . S
O53 Dy43 2.491 . S
O54 Dy43 2.403 . S
O54 C49 1.254 . S
O55 Dy40 2.310 . S
O55 Dy43 2.664 . S
O55 C49 1.268 . S
O56 Dy40 2.351 . S
O56 C59 1.249 . S
O57 Dy43 2.326 . S
O57 C59 1.267 . S
C58 O50 1.249 . S
C58 O51 1.267 . S
C59 O56 1.249 . S
C59 O57 1.267 . S
Dy60 O64 2.398 . S
Dy60 O65 2.491 . S
Dy60 O66 2.403 . S
Dy60 O67 2.664 . S
Dy60 O71 2.326 . S
Dy60 O75 2.310 . S
Dy60 O76 2.351 . S
C61 O72 1.185 . S
C61 O73 1.355 . S
C62 O64 1.185 . S
C62 O65 1.355 . S
Dy63 O67 2.310 . S
Dy63 O70 2.351 . S
Dy63 O72 2.398 . S
Dy63 O73 2.491 . S
Dy63 O74 2.403 . S
Dy63 O75 2.664 . S
Dy63 O77 2.326 . S
O64 Dy60 2.398 . S
O64 C62 1.185 . S
O65 Dy60 2.491 . S
O65 C62 1.355 . S
O66 Dy60 2.403 . S
O66 C68 1.254 . S
O67 Dy60 2.664 . S
O67 Dy63 2.310 . S
O67 C68 1.268 . S
C68 O66 1.254 . S
C68 O67 1.268 . S
C69 O74 1.254 . S
C69 O75 1.268 . S
O70 Dy63 2.351 . S
O70 C78 1.249 . S
O71 Dy60 2.326 . S
O71 C78 1.267 . S
O72 C61 1.185 . S
O72 Dy63 2.398 . S
O73 C61 1.355 . S
O73 Dy63 2.491 . S
O74 Dy63 2.403 . S
O74 C69 1.254 . S
O75 Dy60 2.310 . S
O75 Dy63 2.664 . S
O75 C69 1.268 . S
O76 Dy60 2.351 . S
O76 C79 1.249 . S
O77 Dy63 2.326 . S
O77 C79 1.267 . S
C78 O70 1.249 . S
C78 O71 1.267 . S
C79 O76 1.249 . S
C79 O77 1.267 . S
Dy80 O84 2.398 . S
Dy80 O85 2.491 . S
Dy80 O86 2.403 . S
Dy80 O87 2.664 . S
Dy80 O91 2.326 . S
Dy80 O95 2.310 . S
Dy80 O96 2.351 . S
C81 O92 1.185 . S
C81 O93 1.355 . S
C82 O84 1.185 . S
C82 O85 1.355 . S
Dy83 O87 2.310 . S
Dy83 O90 2.351 . S
Dy83 O92 2.398 . S
Dy83 O93 2.491 . S
Dy83 O94 2.403 . S
Dy83 O95 2.664 . S
Dy83 O97 2.326 . S
O84 Dy80 2.398 . S
O84 C82 1.185 . S
O85 Dy80 2.491 . S
O85 C82 1.355 . S
O86 Dy80 2.403 . S
O86 C88 1.254 . S
O87 Dy80 2.664 . S
O87 Dy83 2.310 . S
O87 C88 1.268 . S
C88 O86 1.254 . S
C88 O87 1.268 . S
C89 O94 1.254 . S
C89 O95 1.268 . S
O90 Dy83 2.351 . S
O90 C98 1.249 . S
O91 Dy80 2.326 . S
O91 C98 1.267 . S
O92 C81 1.185 . S
O92 Dy83 2.398 . S
O93 C81 1.355 . S
O93 Dy83 2.491 . S
O94 Dy83 2.403 . S
O94 C89 1.254 . S
O95 Dy80 2.310 . S
O95 Dy83 2.664 . S
O95 C89 1.268 . S
O96 Dy80 2.351 . S
O96 C99 1.249 . S
O97 Dy83 2.326 . S
O97 C99 1.267 . S
C98 O90 1.249 . S
C98 O91 1.267 . S
C99 O96 1.249 . S
C99 O97 1.267 . S
Dy100 O104 2.398 1_556 S
Dy100 O105 2.491 1_556 S
Dy100 O106 2.403 . S
Dy100 O107 2.664 . S
Dy100 O111 2.326 . S
Dy100 O115 2.310 . S
Dy100 O116 2.351 . S
C101 O112 1.185 . S
C101 O113 1.355 . S
C102 O104 1.185 . S
C102 O105 1.355 . S
Dy103 O107 2.310 . S
Dy103 O110 2.351 . S
Dy103 O112 2.398 . S
Dy103 O113 2.491 . S
Dy103 O114 2.403 . S
Dy103 O115 2.664 . S
Dy103 O117 2.326 . S
O104 Dy100 2.398 1_554 S
O104 C102 1.185 . S
O105 Dy100 2.491 1_554 S
O105 C102 1.355 . S
O106 Dy100 2.403 . S
O106 C108 1.254 . S
O107 Dy100 2.664 . S
O107 Dy103 2.310 . S
O107 C108 1.268 . S
C108 O106 1.254 . S
C108 O107 1.268 . S
C109 O114 1.254 . S
C109 O115 1.268 . S
O110 Dy103 2.351 . S
O110 C118 1.249 . S
O111 Dy100 2.326 . S
O111 C118 1.267 . S
O112 C101 1.185 . S
O112 Dy103 2.398 . S
O113 C101 1.355 . S
O113 Dy103 2.491 . S
O114 Dy103 2.403 . S
O114 C109 1.254 . S
O115 Dy100 2.310 . S
O115 Dy103 2.664 . S
O115 C109 1.268 . S
O116 Dy100 2.351 . S
O116 C119 1.249 . S
O117 Dy103 2.326 . S
O117 C119 1.267 . S
C118 O110 1.249 . S
C118 O111 1.267 . S
C119 O116 1.249 . S
C119 O117 1.267 . S
Dy120 O124 2.398 . S
Dy120 O125 2.491 . S
Dy120 O126 2.403 . S
Dy120 O127 2.664 . S
Dy120 O131 2.326 . S
Dy120 O135 2.310 . S
Dy120 O136 2.351 . S
C121 O132 1.185 . S
C121 O133 1.355 . S
C122 O124 1.185 . S
C122 O125 1.355 . S
Dy123 O127 2.310 . S
Dy123 O130 2.351 . S
Dy123 O132 2.398 . S
Dy123 O133 2.491 . S
Dy123 O134 2.403 . S
Dy123 O135 2.664 . S
Dy123 O137 2.326 . S
O124 Dy120 2.398 . S
O124 C122 1.185 . S
O125 Dy120 2.491 . S
O125 C122 1.355 . S
O126 Dy120 2.403 . S
O126 C128 1.254 . S
O127 Dy120 2.664 . S
O127 Dy123 2.310 . S
O127 C128 1.268 . S
C128 O126 1.254 . S
C128 O127 1.268 . S
C129 O134 1.254 . S
C129 O135 1.268 . S
O130 Dy123 2.351 . S
O130 C138 1.249 . S
O131 Dy120 2.326 . S
O131 C138 1.267 . S
O132 C121 1.185 . S
O132 Dy123 2.398 . S
O133 C121 1.355 . S
O133 Dy123 2.491 . S
O134 Dy123 2.403 . S
O134 C129 1.254 . S
O135 Dy120 2.310 . S
O135 Dy123 2.664 . S
O135 C129 1.268 . S
O136 Dy120 2.351 . S
O136 C139 1.249 . S
O137 Dy123 2.326 . S
O137 C139 1.267 . S
C138 O130 1.249 . S
C138 O131 1.267 . S
C139 O136 1.249 . S
C139 O137 1.267 . S
Dy140 O144 2.398 . S
Dy140 O145 2.491 . S
Dy140 O146 2.403 . S
Dy140 O147 2.664 . S
Dy140 O151 2.326 . S
Dy140 O155 2.310 . S
Dy140 O156 2.351 . S
C141 O152 1.185 . S
C141 O153 1.355 . S
C142 O144 1.185 . S
C142 O145 1.355 . S
Dy143 O147 2.310 . S
Dy143 O150 2.351 . S
Dy143 O152 2.398 . S
Dy143 O153 2.491 . S
Dy143 O154 2.403 . S
Dy143 O155 2.664 . S
Dy143 O157 2.326 . S
O144 Dy140 2.398 . S
O144 C142 1.185 . S
O145 Dy140 2.491 . S
O145 C142 1.355 . S
O146 Dy140 2.403 . S
O146 C148 1.254 . S
O147 Dy140 2.664 . S
O147 Dy143 2.310 . S
O147 C148 1.268 . S
C148 O146 1.254 . S
C148 O147 1.268 . S
C149 O154 1.254 . S
C149 O155 1.268 . S
O150 Dy143 2.351 . S
O150 C158 1.249 . S
O151 Dy140 2.326 . S
O151 C158 1.267 . S
O152 C141 1.185 . S
O152 Dy143 2.398 . S
O153 C141 1.355 . S
O153 Dy143 2.491 . S
O154 Dy143 2.403 . S
O154 C149 1.254 . S
O155 Dy140 2.310 . S
O155 Dy143 2.664 . S
O155 C149 1.268 . S
O156 Dy140 2.351 . S
O156 C159 1.249 . S
O157 Dy143 2.326 . S
O157 C159 1.267 . S
C158 O150 1.249 . S
C158 O151 1.267 . S
C159 O156 1.249 . S
C159 O157 1.267 . S
Dy160 O164 2.398 1_554 S
Dy160 O165 2.491 1_554 S
Dy160 O166 2.403 . S
Dy160 O167 2.664 . S
Dy160 O171 2.326 . S
Dy160 O175 2.310 . S
Dy160 O176 2.351 . S
C161 O172 1.185 . S
C161 O173 1.355 . S
C162 O164 1.185 . S
C162 O165 1.355 . S
Dy163 O167 2.310 . S
Dy163 O170 2.351 . S
Dy163 O172 2.398 . S
Dy163 O173 2.491 . S
Dy163 O174 2.403 . S
Dy163 O175 2.664 . S
Dy163 O177 2.326 . S
O164 Dy160 2.398 1_556 S
O164 C162 1.185 . S
O165 Dy160 2.491 1_556 S
O165 C162 1.355 . S
O166 Dy160 2.403 . S
O166 C168 1.254 . S
O167 Dy160 2.664 . S
O167 Dy163 2.310 . S
O167 C168 1.268 . S
C168 O166 1.254 . S
C168 O167 1.268 . S
C169 O174 1.254 . S
C169 O175 1.268 . S
O170 Dy163 2.351 . S
O170 C178 1.249 . S
O171 Dy160 2.326 . S
O171 C178 1.267 . S
O172 C161 1.185 . S
O172 Dy163 2.398 . S
O173 C161 1.355 . S
O173 Dy163 2.491 . S
O174 Dy163 2.403 . S
O174 C169 1.254 . S
O175 Dy160 2.310 . S
O175 Dy163 2.664 . S
O175 C169 1.268 . S
O176 Dy160 2.351 . S
O176 C179 1.249 . S
O177 Dy163 2.326 . S
O177 C179 1.267 . S
C178 O170 1.249 . S
C178 O171 1.267 . S
C179 O176 1.249 . S
C179 O177 1.267 . S
Dy180 O184 2.398 . S
Dy180 O185 2.491 . S
Dy180 O186 2.403 . S
Dy180 O187 2.664 . S
Dy180 O191 2.326 . S
Dy180 O195 2.310 . S
Dy180 O196 2.351 . S
C181 O192 1.185 . S
C181 O193 1.355 . S
C182 O184 1.185 . S
C182 O185 1.355 . S
Dy183 O187 2.310 . S
Dy183 O190 2.351 . S
Dy183 O192 2.398 . S
Dy183 O193 2.491 . S
Dy183 O194 2.403 . S
Dy183 O195 2.664 . S
Dy183 O197 2.326 . S
O184 Dy180 2.398 . S
O184 C182 1.185 . S
O185 Dy180 2.491 . S
O185 C182 1.355 . S
O186 Dy180 2.403 . S
O186 C188 1.254 . S
O187 Dy180 2.664 . S
O187 Dy183 2.310 . S
O187 C188 1.268 . S
C188 O186 1.254 . S
C188 O187 1.268 . S
C189 O194 1.254 . S
C189 O195 1.268 . S
O190 Dy183 2.351 . S
O190 C198 1.249 . S
O191 Dy180 2.326 . S
O191 C198 1.267 . S
O192 C181 1.185 . S
O192 Dy183 2.398 . S
O193 C181 1.355 . S
O193 Dy183 2.491 . S
O194 Dy183 2.403 . S
O194 C189 1.254 . S
O195 Dy180 2.310 . S
O195 Dy183 2.664 . S
O195 C189 1.268 . S
O196 Dy180 2.351 . S
O196 C199 1.249 . S
O197 Dy183 2.326 . S
O197 C199 1.267 . S
C198 O190 1.249 . S
C198 O191 1.267 . S
C199 O196 1.249 . S
C199 O197 1.267 . S
Dy200 O204 2.398 . S
Dy200 O205 2.491 . S
Dy200 O206 2.403 . S
Dy200 O207 2.664 . S
Dy200 O211 2.326 . S
Dy200 O215 2.310 . S
Dy200 O216 2.351 . S
C201 O212 1.185 . S
C201 O213 1.355 . S
C202 O204 1.185 . S
C202 O205 1.355 . S
Dy203 O207 2.310 . S
Dy203 O210 2.351 . S
Dy203 O212 2.398 . S
Dy203 O213 2.491 . S
Dy203 O214 2.403 . S
Dy203 O215 2.664 . S
Dy203 O217 2.326 . S
O204 Dy200 2.398 . S
O204 C202 1.185 . S
O205 Dy200 2.491 . S
O205 C202 1.355 . S
O206 Dy200 2.403 . S
O206 C208 1.254 . S
O207 Dy200 2.664 . S
O207 Dy203 2.310 . S
O207 C208 1.268 . S
C208 O206 1.254 . S
C208 O207 1.268 . S
C209 O214 1.254 . S
C209 O215 1.268 . S
O210 Dy203 2.351 . S
O210 C218 1.249 . S
O211 Dy200 2.326 . S
O211 C218 1.267 . S
O212 C201 1.185 . S
O212 Dy203 2.398 . S
O213 C201 1.355 . S
O213 Dy203 2.491 . S
O214 Dy203 2.403 . S
O214 C209 1.254 . S
O215 Dy200 2.310 . S
O215 Dy203 2.664 . S
O215 C209 1.268 . S
O216 Dy200 2.351 . S
O216 C219 1.249 . S
O217 Dy203 2.326 . S
O217 C219 1.267 . S
C218 O210 1.249 . S
C218 O211 1.267 . S
C219 O216 1.249 . S
C219 O217 1.267 . S
Dy220 O224 2.398 1_554 S
Dy220 O225 2.491 1_554 S
Dy220 O226 2.403 . S
Dy220 O227 2.664 . S
Dy220 O231 2.326 . S
Dy220 O235 2.310 . S
Dy220 O236 2.351 . S
C221 O232 1.185 . S
C221 O233 1.355 . S
C222 O224 1.185 . S
C222 O225 1.355 . S
Dy223 O227 2.310 . S
Dy223 O230 2.351 . S
Dy223 O232 2.398 . S
Dy223 O233 2.491 . S
Dy223 O234 2.403 . S
Dy223 O235 2.664 . S
Dy223 O237 2.326 . S
O224 Dy220 2.398 1_556 S
O224 C222 1.185 . S
O225 Dy220 2.491 1_556 S
O225 C222 1.355 . S
O226 Dy220 2.403 . S
O226 C228 1.254 . S
O227 Dy220 2.664 . S
O227 Dy223 2.310 . S
O227 C228 1.268 . S
C228 O226 1.254 . S
C228 O227 1.268 . S
C229 O234 1.254 . S
C229 O235 1.268 . S
O230 Dy223 2.351 . S
O230 C238 1.249 . S
O231 Dy220 2.326 . S
O231 C238 1.267 . S
O232 C221 1.185 . S
O232 Dy223 2.398 . S
O233 C221 1.355 . S
O233 Dy223 2.491 . S
O234 Dy223 2.403 . S
O234 C229 1.254 . S
O235 Dy220 2.310 . S
O235 Dy223 2.664 . S
O235 C229 1.268 . S
O236 Dy220 2.351 . S
O236 C239 1.249 . S
O237 Dy223 2.326 . S
O237 C239 1.267 . S
C238 O230 1.249 . S
C238 O231 1.267 . S
C239 O236 1.249 . S
C239 O237 1.267 . S
H240 C252 0.930 . S
H241 C254 0.930 . S
H242 C255 0.930 . S
H243 C259 0.959 . S
H244 C259 0.959 . S
H245 C259 0.961 . S
H246 C260 0.960 . S
H247 C260 0.961 . S
H248 C260 0.959 . S
H249 C263 0.929 . S
H250 C264 0.931 . S
H251 C266 0.930 . S
C252 H240 0.930 . S
C252 C253 1.399 . S
C252 C257 1.399 . S
C253 C252 1.399 . S
C253 C254 1.376 . S
C254 H241 0.930 . S
C254 C253 1.376 . S
C254 C255 1.388 . S
C255 H242 0.930 . S
C255 C254 1.388 . S
C255 C256 1.390 . S
C256 C255 1.390 . S
C256 C257 1.394 . S
C256 C262 1.465 . S
C257 C252 1.399 . S
C257 C256 1.394 . S
C257 C258 1.516 . S
C258 C257 1.516 . S
C258 C259 1.502 . S
C258 C260 1.561 . S
C258 C261 1.526 . S
C259 H243 0.959 . S
C259 H244 0.959 . S
C259 H245 0.961 . S
C259 C258 1.502 . S
C260 H246 0.960 . S
C260 H247 0.961 . S
C260 H248 0.959 . S
C260 C258 1.561 . S
C261 C258 1.526 . S
C261 C262 1.396 . S
C261 C266 1.390 . S
C262 C256 1.465 . S
C262 C261 1.396 . S
C262 C263 1.399 . S
C263 H249 0.929 . S
C263 C262 1.399 . S
C263 C264 1.385 . S
C264 H250 0.931 . S
C264 C263 1.385 . S
C264 C265 1.389 . S
C265 C264 1.389 . S
C265 C266 1.387 . S
C266 H251 0.930 . S
C266 C261 1.390 . S
C266 C265 1.387 . S
H267 C279 0.930 . S
H268 C281 0.930 . S
H269 C282 0.930 . S
H270 C286 0.959 . S
H271 C286 0.959 . S
H272 C286 0.961 . S
H273 C287 0.960 . S
H274 C287 0.961 . S
H275 C287 0.959 . S
H276 C290 0.929 . S
H277 C291 0.931 . S
H278 C293 0.930 . S
C279 H267 0.930 . S
C279 C280 1.399 . S
C279 C284 1.399 . S
C280 C279 1.399 . S
C280 C281 1.376 . S
C281 H268 0.930 . S
C281 C280 1.376 . S
C281 C282 1.388 . S
C282 H269 0.930 . S
C282 C281 1.388 . S
C282 C283 1.390 . S
C283 C282 1.390 . S
C283 C284 1.394 . S
C283 C289 1.465 . S
C284 C279 1.399 . S
C284 C283 1.394 . S
C284 C285 1.516 . S
C285 C284 1.516 . S
C285 C286 1.502 . S
C285 C287 1.561 . S
C285 C288 1.526 . S
C286 H270 0.959 . S
C286 H271 0.959 . S
C286 H272 0.961 . S
C286 C285 1.502 . S
C287 H273 0.960 . S
C287 H274 0.961 . S
C287 H275 0.959 . S
C287 C285 1.561 . S
C288 C285 1.526 . S
C288 C289 1.396 . S
C288 C293 1.390 . S
C289 C283 1.465 . S
C289 C288 1.396 . S
C289 C290 1.399 . S
C290 H276 0.929 . S
C290 C289 1.399 . S
C290 C291 1.385 . S
C291 H277 0.931 . S
C291 C290 1.385 . S
C291 C292 1.389 . S
C292 C291 1.389 . S
C292 C293 1.387 . S
C293 H278 0.930 . S
C293 C288 1.390 . S
C293 C292 1.387 . S
H294 C306 0.930 . S
H295 C308 0.930 . S
H296 C309 0.930 . S
H297 C313 0.959 . S
H298 C313 0.959 . S
H299 C313 0.961 . S
H300 C314 0.960 . S
H301 C314 0.961 . S
H302 C314 0.959 . S
H303 C317 0.929 . S
H304 C318 0.931 . S
H305 C320 0.930 . S
C306 H294 0.930 . S
C306 C307 1.399 . S
C306 C311 1.399 . S
C307 C306 1.399 . S
C307 C308 1.376 . S
C308 H295 0.930 . S
C308 C307 1.376 . S
C308 C309 1.388 . S
C309 H296 0.930 . S
C309 C308 1.388 . S
C309 C310 1.390 . S
C310 C309 1.390 . S
C310 C311 1.394 . S
C310 C316 1.465 . S
C311 C306 1.399 . S
C311 C310 1.394 . S
C311 C312 1.516 . S
C312 C311 1.516 . S
C312 C313 1.502 . S
C312 C314 1.561 . S
C312 C315 1.526 . S
C313 H297 0.959 . S
C313 H298 0.959 . S
C313 H299 0.961 . S
C313 C312 1.502 . S
C314 H300 0.960 . S
C314 H301 0.961 . S
C314 H302 0.959 . S
C314 C312 1.561 . S
C315 C312 1.526 . S
C315 C316 1.396 . S
C315 C320 1.390 . S
C316 C310 1.465 . S
C316 C315 1.396 . S
C316 C317 1.399 . S
C317 H303 0.929 . S
C317 C316 1.399 . S
C317 C318 1.385 . S
C318 H304 0.931 . S
C318 C317 1.385 . S
C318 C319 1.389 . S
C319 C318 1.389 . S
C319 C320 1.387 . S
C320 H305 0.930 . S
C320 C315 1.390 . S
C320 C319 1.387 . S
H321 C333 0.930 . S
H322 C335 0.930 . S
H323 C336 0.930 . S
H324 C340 0.959 . S
H325 C340 0.959 . S
H326 C340 0.961 . S
H327 C341 0.960 . S
H328 C341 0.961 . S
H329 C341 0.959 . S
H330 C344 0.929 . S
H331 C345 0.931 . S
H332 C347 0.930 . S
C333 H321 0.930 . S
C333 C334 1.399 . S
C333 C338 1.399 . S
C334 C333 1.399 . S
C334 C335 1.376 . S
C335 H322 0.930 . S
C335 C334 1.376 . S
C335 C336 1.388 . S
C336 H323 0.930 . S
C336 C335 1.388 . S
C336 C337 1.390 . S
C337 C336 1.390 . S
C337 C338 1.394 . S
C337 C343 1.465 . S
C338 C333 1.399 . S
C338 C337 1.394 . S
C338 C339 1.516 . S
C339 C338 1.516 . S
C339 C340 1.502 . S
C339 C341 1.561 . S
C339 C342 1.526 . S
C340 H324 0.959 . S
C340 H325 0.959 . S
C340 H326 0.961 . S
C340 C339 1.502 . S
C341 H327 0.960 . S
C341 H328 0.961 . S
C341 H329 0.959 . S
C341 C339 1.561 . S
C342 C339 1.526 . S
C342 C343 1.396 . S
C342 C347 1.390 . S
C343 C337 1.465 . S
C343 C342 1.396 . S
C343 C344 1.399 . S
C344 H330 0.929 . S
C344 C343 1.399 . S
C344 C345 1.385 . S
C345 H331 0.931 . S
C345 C344 1.385 . S
C345 C346 1.389 . S
C346 C345 1.389 . S
C346 C347 1.387 . S
C347 H332 0.930 . S
C347 C342 1.390 . S
C347 C346 1.387 . S
H348 C360 0.930 . S
H349 C362 0.930 . S
H350 C363 0.930 . S
H351 C367 0.959 . S
H352 C367 0.959 . S
H353 C367 0.961 . S
H354 C368 0.960 . S
H355 C368 0.961 . S
H356 C368 0.959 . S
H357 C371 0.929 . S
H358 C372 0.931 . S
H359 C374 0.930 . S
C360 H348 0.930 . S
C360 C361 1.399 . S
C360 C365 1.399 . S
C361 C360 1.399 . S
C361 C362 1.376 . S
C362 H349 0.930 . S
C362 C361 1.376 . S
C362 C363 1.388 . S
C363 H350 0.930 . S
C363 C362 1.388 . S
C363 C364 1.390 . S
C364 C363 1.390 . S
C364 C365 1.394 . S
C364 C370 1.465 . S
C365 C360 1.399 . S
C365 C364 1.394 . S
C365 C366 1.516 . S
C366 C365 1.516 . S
C366 C367 1.502 . S
C366 C368 1.561 . S
C366 C369 1.526 . S
C367 H351 0.959 . S
C367 H352 0.959 . S
C367 H353 0.961 . S
C367 C366 1.502 . S
C368 H354 0.960 . S
C368 H355 0.961 . S
C368 H356 0.959 . S
C368 C366 1.561 . S
C369 C366 1.526 . S
C369 C370 1.396 . S
C369 C374 1.390 . S
C370 C364 1.465 . S
C370 C369 1.396 . S
C370 C371 1.399 . S
C371 H357 0.929 . S
C371 C370 1.399 . S
C371 C372 1.385 . S
C372 H358 0.931 . S
C372 C371 1.385 . S
C372 C373 1.389 . S
C373 C372 1.389 . S
C373 C374 1.387 . S
C374 H359 0.930 . S
C374 C369 1.390 . S
C374 C373 1.387 . S
H375 C387 0.930 . S
H376 C389 0.930 . S
H377 C390 0.930 . S
H378 C394 0.959 . S
H379 C394 0.959 . S
H380 C394 0.961 . S
H381 C395 0.960 . S
H382 C395 0.961 . S
H383 C395 0.959 . S
H384 C398 0.929 . S
H385 C399 0.931 . S
H386 C401 0.930 . S
C387 H375 0.930 . S
C387 C388 1.399 . S
C387 C392 1.399 . S
C388 C387 1.399 . S
C388 C389 1.376 . S
C389 H376 0.930 . S
C389 C388 1.376 . S
C389 C390 1.388 . S
C390 H377 0.930 . S
C390 C389 1.388 . S
C390 C391 1.390 . S
C391 C390 1.390 . S
C391 C392 1.394 . S
C391 C397 1.465 . S
C392 C387 1.399 . S
C392 C391 1.394 . S
C392 C393 1.516 . S
C393 C392 1.516 . S
C393 C394 1.502 . S
C393 C395 1.561 . S
C393 C396 1.526 . S
C394 H378 0.959 . S
C394 H379 0.959 . S
C394 H380 0.961 . S
C394 C393 1.502 . S
C395 H381 0.960 . S
C395 H382 0.961 . S
C395 H383 0.959 . S
C395 C393 1.561 . S
C396 C393 1.526 . S
C396 C397 1.396 . S
C396 C401 1.390 . S
C397 C391 1.465 . S
C397 C396 1.396 . S
C397 C398 1.399 . S
C398 H384 0.929 . S
C398 C397 1.399 . S
C398 C399 1.385 . S
C399 H385 0.931 . S
C399 C398 1.385 . S
C399 C400 1.389 . S
C400 C399 1.389 . S
C400 C401 1.387 . S
C401 H386 0.930 . S
C401 C396 1.390 . S
C401 C400 1.387 . S
H402 C414 0.930 . S
H403 C416 0.930 . S
H404 C417 0.930 . S
H405 C421 0.959 . S
H406 C421 0.959 . S
H407 C421 0.961 . S
H408 C422 0.960 . S
H409 C422 0.961 1_554 S
H410 C422 0.959 . S
H411 C425 0.929 . S
H412 C426 0.931 . S
H413 C428 0.930 . S
C414 H402 0.930 . S
C414 C415 1.399 . S
C414 C419 1.399 . S
C415 C414 1.399 . S
C415 C416 1.376 . S
C416 H403 0.930 . S
C416 C415 1.376 . S
C416 C417 1.388 . S
C417 H404 0.930 . S
C417 C416 1.388 . S
C417 C418 1.390 . S
C418 C417 1.390 . S
C418 C419 1.394 . S
C418 C424 1.465 1_556 S
C419 C414 1.399 . S
C419 C418 1.394 . S
C419 C420 1.516 1_556 S
C420 C419 1.516 1_554 S
C420 C421 1.502 . S
C420 C422 1.561 1_554 S
C420 C423 1.526 . S
C421 H405 0.959 . S
C421 H406 0.959 . S
C421 H407 0.961 . S
C421 C420 1.502 . S
C422 H408 0.960 . S
C422 H409 0.961 1_556 S
C422 H410 0.959 . S
C422 C420 1.561 1_556 S
C423 C420 1.526 . S
C423 C424 1.396 . S
C423 C428 1.390 . S
C424 C418 1.465 1_554 S
C424 C423 1.396 . S
C424 C425 1.399 . S
C425 H411 0.929 . S
C425 C424 1.399 . S
C425 C426 1.385 . S
C426 H412 0.931 . S
C426 C425 1.385 . S
C426 C427 1.389 . S
C427 C426 1.389 . S
C427 C428 1.387 . S
C428 H413 0.930 . S
C428 C423 1.390 . S
C428 C427 1.387 . S
H429 C441 0.930 . S
H430 C443 0.930 . S
H431 C444 0.930 . S
H432 C448 0.959 . S
H433 C448 0.959 . S
H434 C448 0.961 . S
H435 C449 0.960 . S
H436 C449 0.961 . S
H437 C449 0.959 . S
H438 C452 0.929 . S
H439 C453 0.931 . S
H440 C455 0.930 . S
C441 H429 0.930 . S
C441 C442 1.399 . S
C441 C446 1.399 . S
C442 C441 1.399 . S
C442 C443 1.376 . S
C443 H430 0.930 . S
C443 C442 1.376 . S
C443 C444 1.388 . S
C444 H431 0.930 . S
C444 C443 1.388 . S
C444 C445 1.390 . S
C445 C444 1.390 . S
C445 C446 1.394 . S
C445 C451 1.465 . S
C446 C441 1.399 . S
C446 C445 1.394 . S
C446 C447 1.516 . S
C447 C446 1.516 . S
C447 C448 1.502 . S
C447 C449 1.561 . S
C447 C450 1.526 . S
C448 H432 0.959 . S
C448 H433 0.959 . S
C448 H434 0.961 . S
C448 C447 1.502 . S
C449 H435 0.960 . S
C449 H436 0.961 . S
C449 H437 0.959 . S
C449 C447 1.561 . S
C450 C447 1.526 . S
C450 C451 1.396 . S
C450 C455 1.390 . S
C451 C445 1.465 . S
C451 C450 1.396 . S
C451 C452 1.399 . S
C452 H438 0.929 . S
C452 C451 1.399 . S
C452 C453 1.385 . S
C453 H439 0.931 . S
C453 C452 1.385 . S
C453 C454 1.389 . S
C454 C453 1.389 . S
C454 C455 1.387 . S
C455 H440 0.930 . S
C455 C450 1.390 . S
C455 C454 1.387 . S
H456 C468 0.930 . S
H457 C470 0.930 . S
H458 C471 0.930 . S
H459 C475 0.959 . S
H460 C475 0.959 . S
H461 C475 0.961 . S
H462 C476 0.960 . S
H463 C476 0.961 . S
H464 C476 0.959 . S
H465 C479 0.929 . S
H466 C480 0.931 . S
H467 C482 0.930 . S
C468 H456 0.930 . S
C468 C469 1.399 . S
C468 C473 1.399 . S
C469 C468 1.399 . S
C469 C470 1.376 . S
C470 H457 0.930 . S
C470 C469 1.376 . S
C470 C471 1.388 . S
C471 H458 0.930 . S
C471 C470 1.388 . S
C471 C472 1.390 . S
C472 C471 1.390 . S
C472 C473 1.394 . S
C472 C478 1.465 . S
C473 C468 1.399 . S
C473 C472 1.394 . S
C473 C474 1.516 . S
C474 C473 1.516 . S
C474 C475 1.502 . S
C474 C476 1.561 . S
C474 C477 1.526 . S
C475 H459 0.959 . S
C475 H460 0.959 . S
C475 H461 0.961 . S
C475 C474 1.502 . S
C476 H462 0.960 . S
C476 H463 0.961 . S
C476 H464 0.959 . S
C476 C474 1.561 . S
C477 C474 1.526 . S
C477 C478 1.396 . S
C477 C482 1.390 . S
C478 C472 1.465 . S
C478 C477 1.396 . S
C478 C479 1.399 . S
C479 H465 0.929 . S
C479 C478 1.399 . S
C479 C480 1.385 . S
C480 H466 0.931 . S
C480 C479 1.385 . S
C480 C481 1.389 . S
C481 C480 1.389 . S
C481 C482 1.387 . S
C482 H467 0.930 . S
C482 C477 1.390 . S
C482 C481 1.387 . S
H483 C495 0.930 . S
H484 C497 0.930 . S
H485 C498 0.930 . S
H486 C502 0.959 . S
H487 C502 0.959 . S
H488 C502 0.961 . S
H489 C503 0.960 . S
H490 C503 0.961 1_554 S
H491 C503 0.959 . S
H492 C506 0.929 . S
H493 C507 0.931 . S
H494 C509 0.930 . S
C495 H483 0.930 . S
C495 C496 1.399 . S
C495 C500 1.399 . S
C496 C495 1.399 . S
C496 C497 1.376 . S
C497 H484 0.930 . S
C497 C496 1.376 . S
C497 C498 1.388 . S
C498 H485 0.930 . S
C498 C497 1.388 . S
C498 C499 1.390 . S
C499 C498 1.390 . S
C499 C500 1.394 . S
C499 C505 1.465 1_556 S
C500 C495 1.399 . S
C500 C499 1.394 . S
C500 C501 1.516 1_556 S
C501 C500 1.516 1_554 S
C501 C502 1.502 . S
C501 C503 1.561 1_554 S
C501 C504 1.526 . S
C502 H486 0.959 . S
C502 H487 0.959 . S
C502 H488 0.961 . S
C502 C501 1.502 . S
C503 H489 0.960 . S
C503 H490 0.961 1_556 S
C503 H491 0.959 . S
C503 C501 1.561 1_556 S
C504 C501 1.526 . S
C504 C505 1.396 . S
C504 C509 1.390 . S
C505 C499 1.465 1_554 S
C505 C504 1.396 . S
C505 C506 1.399 . S
C506 H492 0.929 . S
C506 C505 1.399 . S
C506 C507 1.385 . S
C507 H493 0.931 . S
C507 C506 1.385 . S
C507 C508 1.389 . S
C508 C507 1.389 . S
C508 C509 1.387 . S
C509 H494 0.930 . S
C509 C504 1.390 . S
C509 C508 1.387 . S
H510 C522 0.930 . S
H511 C524 0.930 . S
H512 C525 0.930 . S
H513 C529 0.959 . S
H514 C529 0.959 . S
H515 C529 0.961 . S
H516 C530 0.960 . S
H517 C530 0.961 . S
H518 C530 0.959 . S
H519 C533 0.929 . S
H520 C534 0.931 . S
H521 C536 0.930 . S
C522 H510 0.930 . S
C522 C523 1.399 . S
C522 C527 1.399 . S
C523 C522 1.399 . S
C523 C524 1.376 . S
C524 H511 0.930 . S
C524 C523 1.376 . S
C524 C525 1.388 . S
C525 H512 0.930 . S
C525 C524 1.388 . S
C525 C526 1.390 . S
C526 C525 1.390 . S
C526 C527 1.394 . S
C526 C532 1.465 . S
C527 C522 1.399 . S
C527 C526 1.394 . S
C527 C528 1.516 . S
C528 C527 1.516 . S
C528 C529 1.502 . S
C528 C530 1.561 . S
C528 C531 1.526 . S
C529 H513 0.959 . S
C529 H514 0.959 . S
C529 H515 0.961 . S
C529 C528 1.502 . S
C530 H516 0.960 . S
C530 H517 0.961 . S
C530 H518 0.959 . S
C530 C528 1.561 . S
C531 C528 1.526 . S
C531 C532 1.396 . S
C531 C536 1.390 . S
C532 C526 1.465 . S
C532 C531 1.396 . S
C532 C533 1.399 . S
C533 H519 0.929 . S
C533 C532 1.399 . S
C533 C534 1.385 . S
C534 H520 0.931 . S
C534 C533 1.385 . S
C534 C535 1.389 . S
C535 C534 1.389 . S
C535 C536 1.387 . S
C536 H521 0.930 . S
C536 C531 1.390 . S
C536 C535 1.387 . S
H537 C549 0.930 . S
H538 C551 0.930 . S
H539 C552 0.930 . S
H540 C556 0.959 . S
H541 C556 0.959 . S
H542 C556 0.961 . S
H543 C557 0.960 . S
H544 C557 0.961 . S
H545 C557 0.959 . S
H546 C560 0.929 . S
H547 C561 0.931 . S
H548 C563 0.930 . S
C549 H537 0.930 . S
C549 C550 1.399 . S
C549 C554 1.399 . S
C550 C549 1.399 . S
C550 C551 1.376 . S
C551 H538 0.930 . S
C551 C550 1.376 . S
C551 C552 1.388 . S
C552 H539 0.930 . S
C552 C551 1.388 . S
C552 C553 1.390 . S
C553 C552 1.390 . S
C553 C554 1.394 . S
C553 C559 1.465 . S
C554 C549 1.399 . S
C554 C553 1.394 . S
C554 C555 1.516 . S
C555 C554 1.516 . S
C555 C556 1.502 . S
C555 C557 1.561 . S
C555 C558 1.526 . S
C556 H540 0.959 . S
C556 H541 0.959 . S
C556 H542 0.961 . S
C556 C555 1.502 . S
C557 H543 0.960 . S
C557 H544 0.961 . S
C557 H545 0.959 . S
C557 C555 1.561 . S
C558 C555 1.526 . S
C558 C559 1.396 . S
C558 C563 1.390 . S
C559 C553 1.465 . S
C559 C558 1.396 . S
C559 C560 1.399 . S
C560 H546 0.929 . S
C560 C559 1.399 . S
C560 C561 1.385 . S
C561 H547 0.931 . S
C561 C560 1.385 . S
C561 C562 1.389 . S
C562 C561 1.389 . S
C562 C563 1.387 . S
C563 H548 0.930 . S
C563 C558 1.390 . S
C563 C562 1.387 . S
H564 C576 0.929 1_545 S
H565 C578 0.930 . S
H566 C579 0.930 1_554 S
H567 C583 0.959 . S
H568 C583 0.959 . S
H569 C583 0.961 . S
H570 C584 0.960 . S
H571 C584 0.961 . S
H572 C584 0.959 . S
H573 C587 0.929 . S
H574 C588 0.931 . S
H575 C590 0.930 . S
C576 H564 0.929 1_565 S
C576 C577 1.399 . S
C576 C581 1.399 . S
C577 C576 1.399 . S
C577 C578 1.376 . S
C578 H565 0.930 . S
C578 C577 1.376 . S
C578 C579 1.388 . S
C579 H566 0.930 1_556 S
C579 C578 1.388 . S
C579 C580 1.390 . S
C580 C579 1.390 . S
C580 C581 1.394 . S
C580 C586 1.465 1_556 S
C581 C576 1.399 . S
C581 C580 1.394 . S
C581 C582 1.516 1_565 S
C582 C581 1.516 1_545 S
C582 C583 1.502 . S
C582 C584 1.561 . S
C582 C585 1.526 1_556 S
C583 H567 0.959 . S
C583 H568 0.959 . S
C583 H569 0.961 . S
C583 C582 1.502 . S
C584 H570 0.960 . S
C584 H571 0.961 . S
C584 H572 0.959 . S
C584 C582 1.561 . S
C585 C582 1.526 1_554 S
C585 C586 1.396 1_545 S
C585 C590 1.390 . S
C586 C580 1.465 1_554 S
C586 C585 1.396 1_565 S
C586 C587 1.399 . S
C587 H573 0.929 . S
C587 C586 1.399 . S
C587 C588 1.385 1_565 S
C588 H574 0.931 . S
C588 C587 1.385 1_545 S
C588 C589 1.389 . S
C589 C588 1.389 . S
C589 C590 1.387 . S
C590 H575 0.930 . S
C590 C585 1.390 . S
C590 C589 1.387 . S
H591 C603 0.930 . S
H592 C605 0.930 . S
H593 C606 0.930 . S
H594 C610 0.959 . S
H595 C610 0.959 . S
H596 C610 0.961 . S
H597 C611 0.960 . S
H598 C611 0.961 . S
H599 C611 0.959 . S
H600 C614 0.929 . S
H601 C615 0.931 . S
H602 C617 0.930 . S
C603 H591 0.930 . S
C603 C604 1.399 . S
C603 C608 1.399 . S
C604 C603 1.399 . S
C604 C605 1.376 . S
C605 H592 0.930 . S
C605 C604 1.376 . S
C605 C606 1.388 . S
C606 H593 0.930 . S
C606 C605 1.388 . S
C606 C607 1.390 . S
C607 C606 1.390 . S
C607 C608 1.394 . S
C607 C613 1.465 . S
C608 C603 1.399 . S
C608 C607 1.394 . S
C608 C609 1.516 . S
C609 C608 1.516 . S
C609 C610 1.502 . S
C609 C611 1.561 . S
C609 C612 1.526 . S
C610 H594 0.959 . S
C610 H595 0.959 . S
C610 H596 0.961 . S
C610 C609 1.502 . S
C611 H597 0.960 . S
C611 H598 0.961 . S
C611 H599 0.959 . S
C611 C609 1.561 . S
C612 C609 1.526 . S
C612 C613 1.396 . S
C612 C617 1.390 . S
C613 C607 1.465 . S
C613 C612 1.396 . S
C613 C614 1.399 . S
C614 H600 0.929 . S
C614 C613 1.399 . S
C614 C615 1.385 . S
C615 H601 0.931 . S
C615 C614 1.385 . S
C615 C616 1.389 . S
C616 C615 1.389 . S
C616 C617 1.387 . S
C617 H602 0.930 . S
C617 C612 1.390 . S
C617 C616 1.387 . S
H618 C630 0.930 . S
H619 C632 0.930 . S
H620 C633 0.930 . S
H621 C637 0.959 . S
H622 C637 0.959 . S
H623 C637 0.961 . S
H624 C638 0.960 . S
H625 C638 0.961 . S
H626 C638 0.946 1_455 S
H627 C641 0.929 . S
H628 C642 0.931 . S
H629 C644 0.930 . S
C630 H618 0.930 . S
C630 C631 1.399 . S
C630 C635 1.399 . S
C631 C630 1.399 . S
C631 C632 1.376 . S
C632 H619 0.930 . S
C632 C631 1.376 . S
C632 C633 1.388 . S
C633 H620 0.930 . S
C633 C632 1.388 . S
C633 C634 1.390 . S
C634 C633 1.390 . S
C634 C635 1.394 . S
C634 C640 1.465 . S
C635 C630 1.399 . S
C635 C634 1.394 . S
C635 C636 1.516 1_455 S
C636 C635 1.516 1_655 S
C636 C637 1.502 . S
C636 C638 1.561 . S
C636 C639 1.526 . S
C637 H621 0.959 . S
C637 H622 0.959 . S
C637 H623 0.961 . S
C637 C636 1.502 . S
C638 H624 0.960 . S
C638 H625 0.961 . S
C638 H626 0.946 1_655 S
C638 C636 1.561 . S
C639 C636 1.526 . S
C639 C640 1.396 1_655 S
C639 C644 1.390 . S
C640 C634 1.465 . S
C640 C639 1.396 1_455 S
C640 C641 1.399 . S
C641 H627 0.929 . S
C641 C640 1.399 . S
C641 C642 1.385 1_455 S
C642 H628 0.931 . S
C642 C641 1.385 1_655 S
C642 C643 1.389 . S
C643 C642 1.389 . S
C643 C644 1.387 . S
C644 H629 0.930 . S
C644 C639 1.390 . S
C644 C643 1.387 . S
H645 C657 0.930 . S
H646 C659 0.930 . S
H647 C660 0.930 . S
H648 C664 0.959 . S
H649 C664 0.959 . S
H650 C664 0.961 . S
H651 C665 0.960 . S
H652 C665 0.961 . S
H653 C665 0.959 . S
H654 C668 0.929 . S
H655 C669 0.931 . S
H656 C671 0.930 . S
C657 H645 0.930 . S
C657 C658 1.399 . S
C657 C662 1.399 . S
C658 C657 1.399 . S
C658 C659 1.376 . S
C659 H646 0.930 . S
C659 C658 1.376 . S
C659 C660 1.388 . S
C660 H647 0.930 . S
C660 C659 1.388 . S
C660 C661 1.390 . S
C661 C660 1.390 . S
C661 C662 1.394 . S
C661 C667 1.448 1_564 S
C662 C657 1.399 . S
C662 C661 1.394 . S
C662 C663 1.516 1_565 S
C663 C662 1.516 1_545 S
C663 C664 1.502 . S
C663 C665 1.561 . S
C663 C666 1.526 1_554 S
C664 H648 0.959 . S
C664 H649 0.959 . S
C664 H650 0.961 . S
C664 C663 1.502 . S
C665 H651 0.960 . S
C665 H652 0.961 . S
C665 H653 0.959 . S
C665 C663 1.561 . S
C666 C663 1.526 1_556 S
C666 C667 1.436 . S
C666 C671 1.390 . S
C667 C661 1.448 1_546 S
C667 C666 1.436 . S
C667 C668 1.384 1_545 S
C668 H654 0.929 . S
C668 C667 1.384 1_565 S
C668 C669 1.385 1_565 S
C669 H655 0.931 . S
C669 C668 1.385 1_545 S
C669 C670 1.389 . S
C670 C669 1.389 . S
C670 C671 1.387 . S
C671 H656 0.930 . S
C671 C666 1.390 . S
C671 C670 1.387 . S
H672 C684 0.930 . S
H673 C686 0.930 . S
H674 C687 0.930 . S
H675 C691 0.959 . S
H676 C691 0.959 . S
H677 C691 0.961 . S
H678 C692 0.960 . S
H679 C692 0.961 . S
H680 C692 0.959 . S
H681 C695 0.929 . S
H682 C696 0.931 . S
H683 C698 0.930 . S
C684 H672 0.930 . S
C684 C685 1.399 . S
C684 C689 1.399 . S
C685 C684 1.399 . S
C685 C686 1.376 . S
C686 H673 0.930 . S
C686 C685 1.376 . S
C686 C687 1.388 . S
C687 H674 0.930 . S
C687 C686 1.388 . S
C687 C688 1.390 . S
C688 C687 1.390 . S
C688 C689 1.394 . S
C688 C694 1.465 . S
C689 C684 1.399 . S
C689 C688 1.394 . S
C689 C690 1.516 . S
C690 C689 1.516 . S
C690 C691 1.502 . S
C690 C692 1.561 . S
C690 C693 1.526 . S
C691 H675 0.959 . S
C691 H676 0.959 . S
C691 H677 0.961 . S
C691 C690 1.502 . S
C692 H678 0.960 . S
C692 H679 0.961 . S
C692 H680 0.959 . S
C692 C690 1.561 . S
C693 C690 1.526 . S
C693 C694 1.396 . S
C693 C698 1.390 . S
C694 C688 1.465 . S
C694 C693 1.396 . S
C694 C695 1.399 . S
C695 H681 0.929 . S
C695 C694 1.399 . S
C695 C696 1.385 . S
C696 H682 0.931 . S
C696 C695 1.385 . S
C696 C697 1.389 . S
C697 C696 1.389 . S
C697 C698 1.387 . S
C698 H683 0.930 . S
C698 C693 1.390 . S
C698 C697 1.387 . S
H699 C711 0.930 . S
H700 C713 0.930 . S
H701 C714 0.930 . S
H702 C718 0.988 . S
H703 C718 0.976 . S
H704 C718 0.951 1_455 S
H705 C719 0.960 . S
H706 C719 0.961 . S
H707 C719 0.959 . S
H708 C722 0.929 . S
H709 C723 0.931 . S
H710 C725 0.930 . S
C711 H699 0.930 . S
C711 C712 1.399 . S
C711 C716 1.399 . S
C712 C711 1.399 . S
C712 C713 1.376 . S
C713 H700 0.930 . S
C713 C712 1.376 . S
C713 C714 1.388 . S
C714 H701 0.930 . S
C714 C713 1.388 . S
C714 C715 1.390 . S
C715 C714 1.390 . S
C715 C716 1.394 . S
C715 C721 1.465 1_455 S
C716 C711 1.399 . S
C716 C715 1.394 . S
C716 C717 1.516 . S
C717 C716 1.516 . S
C717 C718 1.469 1_455 S
C717 C719 1.561 . S
C717 C720 1.526 1_455 S
C718 H702 0.988 . S
C718 H703 0.976 . S
C718 H704 0.951 1_655 S
C718 C717 1.469 1_655 S
C719 H705 0.960 . S
C719 H706 0.961 . S
C719 H707 0.959 . S
C719 C717 1.561 . S
C720 C717 1.526 1_655 S
C720 C721 1.396 . S
C720 C725 1.390 . S
C721 C715 1.465 1_655 S
C721 C720 1.396 . S
C721 C722 1.399 . S
C722 H708 0.929 . S
C722 C721 1.399 . S
C722 C723 1.385 . S
C723 H709 0.931 . S
C723 C722 1.385 . S
C723 C724 1.389 . S
C724 C723 1.389 . S
C724 C725 1.387 . S
C725 H710 0.930 . S
C725 C720 1.390 . S
C725 C724 1.387 . S
H726 C738 0.930 . S
H727 C740 0.930 . S
H728 C741 0.930 1_565 S
H729 C745 0.959 . S
H730 C745 0.959 . S
H731 C745 0.961 . S
H732 C746 0.960 1_545 S
H733 C746 0.961 . S
H734 C746 0.959 . S
H735 C749 0.929 . S
H736 C750 0.931 . S
H737 C752 0.930 . S
C738 H726 0.930 . S
C738 C739 1.399 . S
C738 C743 1.399 . S
C739 C738 1.399 . S
C739 C740 1.376 . S
C740 H727 0.930 . S
C740 C739 1.376 . S
C740 C741 1.388 . S
C741 H728 0.930 1_545 S
C741 C740 1.388 . S
C741 C742 1.404 . S
C742 C741 1.404 . S
C742 C743 1.410 . S
C742 C748 1.436 1_545 S
C743 C738 1.399 . S
C743 C742 1.410 . S
C743 C744 1.516 . S
C744 C743 1.516 . S
C744 C745 1.502 . S
C744 C746 1.561 1_545 S
C744 C747 1.526 1_545 S
C745 H729 0.959 . S
C745 H730 0.959 . S
C745 H731 0.961 . S
C745 C744 1.502 . S
C746 H732 0.960 1_565 S
C746 H733 0.961 . S
C746 H734 0.959 . S
C746 C744 1.561 1_565 S
C747 C744 1.526 1_565 S
C747 C748 1.396 . S
C747 C752 1.390 . S
C748 C742 1.436 1_565 S
C748 C747 1.396 . S
C748 C749 1.399 . S
C749 H735 0.929 . S
C749 C748 1.399 . S
C749 C750 1.385 . S
C750 H736 0.931 . S
C750 C749 1.385 . S
C750 C751 1.389 . S
C751 C750 1.389 . S
C751 C752 1.387 . S
C752 H737 0.930 . S
C752 C747 1.390 . S
C752 C751 1.387 . S
H753 C765 0.930 . S
H754 C767 0.930 . S
H755 C768 0.930 . S
H756 C772 0.959 . S
H757 C772 0.959 . S
H758 C772 0.961 . S
H759 C773 0.960 . S
H760 C773 0.961 . S
H761 C773 0.959 . S
H762 C776 0.929 . S
H763 C777 0.931 . S
H764 C779 0.930 . S
C765 H753 0.930 . S
C765 C766 1.399 . S
C765 C770 1.399 . S
C766 C765 1.399 . S
C766 C767 1.376 . S
C767 H754 0.930 . S
C767 C766 1.376 . S
C767 C768 1.388 . S
C768 H755 0.930 . S
C768 C767 1.388 . S
C768 C769 1.390 . S
C769 C768 1.390 . S
C769 C770 1.394 . S
C769 C775 1.465 . S
C770 C765 1.399 . S
C770 C769 1.394 . S
C770 C771 1.516 . S
C771 C770 1.516 . S
C771 C772 1.502 . S
C771 C773 1.561 . S
C771 C774 1.526 . S
C772 H756 0.959 . S
C772 H757 0.959 . S
C772 H758 0.961 . S
C772 C771 1.502 . S
C773 H759 0.960 . S
C773 H760 0.961 . S
C773 H761 0.959 . S
C773 C771 1.561 . S
C774 C771 1.526 . S
C774 C775 1.396 . S
C774 C779 1.390 . S
C775 C769 1.465 . S
C775 C774 1.396 . S
C775 C776 1.399 . S
C776 H762 0.929 . S
C776 C775 1.399 . S
C776 C777 1.385 . S
C777 H763 0.931 . S
C777 C776 1.385 . S
C777 C778 1.389 . S
C778 C777 1.389 . S
C778 C779 1.387 . S
C779 H764 0.930 . S
C779 C774 1.390 . S
C779 C778 1.387 . S
H780 C792 0.930 . S
H781 C794 0.930 . S
H782 C795 0.930 1_554 S
H783 C799 0.959 . S
H784 C799 0.959 . S
H785 C799 0.961 . S
H786 C800 0.960 . S
H787 C800 0.961 . S
H788 C800 0.959 . S
H789 C803 0.929 1_554 S
H790 C804 0.931 . S
H791 C806 0.930 . S
C792 H780 0.930 . S
C792 C793 1.399 . S
C792 C797 1.399 . S
C793 C792 1.399 . S
C793 C794 1.376 . S
C794 H781 0.930 . S
C794 C793 1.376 . S
C794 C795 1.388 . S
C795 H782 0.930 1_556 S
C795 C794 1.388 . S
C795 C796 1.390 . S
C796 C795 1.390 . S
C796 C797 1.394 . S
C796 C802 1.465 1_655 S
C797 C792 1.399 . S
C797 C796 1.394 . S
C797 C798 1.516 1_655 S
C798 C797 1.516 1_455 S
C798 C799 1.502 . S
C798 C800 1.561 1_455 S
C798 C801 1.526 . S
C799 H783 0.959 . S
C799 H784 0.959 . S
C799 H785 0.961 . S
C799 C798 1.502 . S
C800 H786 0.960 . S
C800 H787 0.961 . S
C800 H788 0.959 . S
C800 C798 1.561 1_655 S
C801 C798 1.526 . S
C801 C802 1.396 . S
C801 C806 1.390 . S
C802 C796 1.465 1_455 S
C802 C801 1.396 . S
C802 C803 1.399 . S
C803 H789 0.929 1_556 S
C803 C802 1.399 . S
C803 C804 1.385 . S
C804 H790 0.931 . S
C804 C803 1.385 . S
C804 C805 1.389 . S
C805 C804 1.389 . S
C805 C806 1.387 . S
C806 H791 0.930 . S
C806 C801 1.390 . S
C806 C805 1.387 . S
H807 C819 0.930 . S
H808 C821 0.930 . S
H809 C822 0.930 1_655 S
H810 C826 0.959 . S
H811 C826 0.959 . S
H812 C826 0.961 . S
H813 C827 0.982 . S
H814 C827 0.961 . S
H815 C827 0.959 . S
H816 C830 0.929 . S
H817 C831 0.931 . S
H818 C833 0.930 . S
C819 H807 0.930 . S
C819 C820 1.399 . S
C819 C824 1.399 . S
C820 C819 1.399 . S
C820 C821 1.376 . S
C821 H808 0.930 . S
C821 C820 1.376 . S
C821 C822 1.388 . S
C822 H809 0.930 1_455 S
C822 C821 1.388 . S
C822 C823 1.390 . S
C823 C822 1.390 . S
C823 C824 1.394 . S
C823 C829 1.465 1_455 S
C824 C819 1.399 . S
C824 C823 1.394 . S
C824 C825 1.516 . S
C825 C824 1.516 . S
C825 C826 1.502 . S
C825 C827 1.561 1_455 S
C825 C828 1.526 1_455 S
C826 H810 0.959 . S
C826 H811 0.959 . S
C826 H812 0.961 . S
C826 C825 1.502 . S
C827 H813 0.982 . S
C827 H814 0.961 . S
C827 H815 0.959 . S
C827 C825 1.561 1_655 S
C828 C825 1.526 1_655 S
C828 C829 1.396 . S
C828 C833 1.390 . S
C829 C823 1.465 1_655 S
C829 C828 1.396 . S
C829 C830 1.399 . S
C830 H816 0.929 . S
C830 C829 1.399 . S
C830 C831 1.385 . S
C831 H817 0.931 . S
C831 C830 1.385 . S
C831 C832 1.389 . S
C832 C831 1.389 . S
C832 C833 1.387 . S
C833 H818 0.930 . S
C833 C828 1.390 . S
C833 C832 1.387 . S
H834 C846 0.930 . S
H835 C848 0.930 . S
H836 C849 0.930 . S
H837 C853 0.959 . S
H838 C853 0.959 . S
H839 C853 0.961 . S
H840 C854 0.960 . S
H841 C854 0.961 . S
H842 C854 0.959 . S
H843 C857 0.929 . S
H844 C858 0.931 . S
H845 C860 0.930 . S
C846 H834 0.930 . S
C846 C847 1.399 . S
C846 C851 1.399 . S
C847 C846 1.399 . S
C847 C848 1.376 . S
C848 H835 0.930 . S
C848 C847 1.376 . S
C848 C849 1.388 . S
C849 H836 0.930 . S
C849 C848 1.388 . S
C849 C850 1.390 . S
C850 C849 1.390 . S
C850 C851 1.394 . S
C850 C856 1.465 1_565 S
C851 C846 1.399 . S
C851 C850 1.394 . S
C851 C852 1.516 1_565 S
C852 C851 1.516 1_545 S
C852 C853 1.502 . S
C852 C854 1.561 1_545 S
C852 C855 1.526 . S
C853 H837 0.959 . S
C853 H838 0.959 . S
C853 H839 0.961 . S
C853 C852 1.502 . S
C854 H840 0.960 . S
C854 H841 0.961 . S
C854 H842 0.959 . S
C854 C852 1.561 1_565 S
C855 C852 1.526 . S
C855 C856 1.396 . S
C855 C860 1.390 . S
C856 C850 1.465 1_545 S
C856 C855 1.396 . S
C856 C857 1.399 . S
C857 H843 0.929 . S
C857 C856 1.399 . S
C857 C858 1.385 . S
C858 H844 0.931 . S
C858 C857 1.385 . S
C858 C859 1.389 . S
C859 C858 1.389 . S
C859 C860 1.387 . S
C860 H845 0.930 . S
C860 C855 1.390 . S
C860 C859 1.387 . S
H861 C873 0.930 . S
H862 C875 0.930 . S
H863 C876 0.930 . S
H864 C880 0.959 . S
H865 C880 0.959 1_556 S
H866 C880 0.961 1_556 S
H867 C881 0.960 . S
H868 C881 0.961 . S
H869 C881 0.959 . S
H870 C884 0.929 . S
H871 C885 0.931 . S
H872 C887 0.930 . S
C873 H861 0.930 . S
C873 C874 1.399 . S
C873 C878 1.399 . S
C874 C873 1.399 . S
C874 C875 1.376 . S
C875 H862 0.930 . S
C875 C874 1.376 . S
C875 C876 1.388 . S
C876 H863 0.930 . S
C876 C875 1.388 . S
C876 C877 1.390 . S
C877 C876 1.390 . S
C877 C878 1.394 . S
C877 C883 1.465 . S
C878 C873 1.399 . S
C878 C877 1.394 . S
C878 C879 1.516 . S
C879 C878 1.516 . S
C879 C880 1.502 . S
C879 C881 1.561 1_554 S
C879 C882 1.526 . S
C880 H864 0.959 . S
C880 H865 0.959 1_554 S
C880 H866 0.961 1_554 S
C880 C879 1.502 . S
C881 H867 0.960 . S
C881 H868 0.961 . S
C881 H869 0.959 . S
C881 C879 1.561 1_556 S
C882 C879 1.526 . S
C882 C883 1.396 . S
C882 C887 1.390 . S
C883 C877 1.465 . S
C883 C882 1.396 . S
C883 C884 1.399 . S
C884 H870 0.929 . S
C884 C883 1.399 . S
C884 C885 1.385 . S
C885 H871 0.931 . S
C885 C884 1.385 . S
C885 C886 1.389 . S
C886 C885 1.389 . S
C886 C887 1.387 . S
C887 H872 0.930 . S
C887 C882 1.390 . S
C887 C886 1.387 . S
H888 C900 0.930 . S
H889 C902 0.930 . S
H890 C903 0.956 . S
H891 C907 0.959 . S
H892 C907 0.959 . S
H893 C907 0.961 . S
H894 C908 0.960 . S
H895 C908 0.961 . S
H896 C908 0.959 . S
H897 C911 0.929 . S
H898 C912 0.931 . S
H899 C914 0.930 . S
C900 H888 0.930 . S
C900 C901 1.399 . S
C900 C905 1.399 . S
C901 C900 1.399 . S
C901 C902 1.376 . S
C902 H889 0.930 . S
C902 C901 1.376 . S
C902 C903 1.370 1_565 S
C903 H890 0.956 . S
C903 C902 1.370 1_545 S
C903 C904 1.382 1_545 S
C904 C903 1.382 1_565 S
C904 C905 1.394 . S
C904 C910 1.465 1_565 S
C905 C900 1.399 . S
C905 C904 1.394 . S
C905 C906 1.516 . S
C906 C905 1.516 . S
C906 C907 1.502 . S
C906 C908 1.561 . S
C906 C909 1.526 1_565 S
C907 H891 0.959 . S
C907 H892 0.959 . S
C907 H893 0.961 . S
C907 C906 1.502 . S
C908 H894 0.960 . S
C908 H895 0.961 . S
C908 H896 0.959 . S
C908 C906 1.561 . S
C909 C906 1.526 1_545 S
C909 C910 1.396 . S
C909 C914 1.390 . S
C910 C904 1.465 1_545 S
C910 C909 1.396 . S
C910 C911 1.399 . S
C911 H897 0.929 . S
C911 C910 1.399 . S
C911 C912 1.385 . S
C912 H898 0.931 . S
C912 C911 1.385 . S
C912 C913 1.389 . S
C913 C912 1.389 . S
C913 C914 1.387 . S
C914 H899 0.930 . S
C914 C909 1.390 . S
C914 C913 1.387 . S
H915 C927 0.930 . S
H916 C929 0.930 . S
H917 C930 0.930 . S
H918 C934 0.959 . S
H919 C934 0.959 . S
H920 C934 0.961 . S
H921 C935 0.960 . S
H922 C935 0.961 . S
H923 C935 0.959 . S
H924 C938 0.929 . S
H925 C939 0.931 . S
H926 C941 0.930 . S
C927 H915 0.930 . S
C927 C928 1.399 . S
C927 C932 1.399 . S
C928 C927 1.399 . S
C928 C929 1.376 . S
C929 H916 0.930 . S
C929 C928 1.376 . S
C929 C930 1.388 . S
C930 H917 0.930 . S
C930 C929 1.388 . S
C930 C931 1.390 . S
C931 C930 1.390 . S
C931 C932 1.394 . S
C931 C937 1.465 . S
C932 C927 1.399 . S
C932 C931 1.394 . S
C932 C933 1.516 . S
C933 C932 1.516 . S
C933 C934 1.502 . S
C933 C935 1.561 . S
C933 C936 1.526 . S
C934 H918 0.959 . S
C934 H919 0.959 . S
C934 H920 0.961 . S
C934 C933 1.502 . S
C935 H921 0.960 . S
C935 H922 0.961 . S
C935 H923 0.959 . S
C935 C933 1.561 . S
C936 C933 1.526 . S
C936 C937 1.396 . S
C936 C941 1.390 . S
C937 C931 1.465 . S
C937 C936 1.396 . S
C937 C938 1.399 . S
C938 H924 0.929 . S
C938 C937 1.399 . S
C938 C939 1.385 . S
C939 H925 0.931 . S
C939 C938 1.385 . S
C939 C940 1.389 . S
C940 C939 1.389 . S
C940 C941 1.387 . S
C941 H926 0.930 . S
C941 C936 1.390 . S
C941 C940 1.387 . S
H942 C954 0.930 . S
H943 C956 0.930 . S
H944 C957 0.930 . S
H945 C961 0.959 . S
H946 C961 0.959 . S
H947 C961 0.961 . S
H948 C962 0.960 . S
H949 C962 0.961 . S
H950 C962 0.959 . S
H951 C965 0.929 . S
H952 C966 0.931 . S
H953 C968 0.930 . S
C954 H942 0.930 . S
C954 C955 1.399 . S
C954 C959 1.399 . S
C955 C954 1.399 . S
C955 C956 1.376 . S
C956 H943 0.930 . S
C956 C955 1.376 . S
C956 C957 1.388 . S
C957 H944 0.930 . S
C957 C956 1.388 . S
C957 C958 1.390 . S
C958 C957 1.390 . S
C958 C959 1.394 . S
C958 C964 1.465 . S
C959 C954 1.399 . S
C959 C958 1.394 . S
C959 C960 1.516 1_655 S
C960 C959 1.516 1_455 S
C960 C961 1.502 . S
C960 C962 1.561 . S
C960 C963 1.526 . S
C961 H945 0.959 . S
C961 H946 0.959 . S
C961 H947 0.961 . S
C961 C960 1.502 . S
C962 H948 0.960 . S
C962 H949 0.961 . S
C962 H950 0.959 . S
C962 C960 1.561 . S
C963 C960 1.526 . S
C963 C964 1.396 1_455 S
C963 C968 1.390 . S
C964 C958 1.465 . S
C964 C963 1.396 1_655 S
C964 C965 1.399 . S
C965 H951 0.929 . S
C965 C964 1.399 . S
C965 C966 1.385 1_655 S
C966 H952 0.931 . S
C966 C965 1.385 1_455 S
C966 C967 1.389 . S
C967 C966 1.389 . S
C967 C968 1.387 . S
C968 H953 0.930 . S
C968 C963 1.390 . S
C968 C967 1.387 . S
H969 C981 0.930 . S
H970 C983 0.930 . S
H971 C984 0.930 . S
H972 C988 0.959 . S
H973 C988 0.959 . S
H974 C988 0.961 . S
H975 C989 0.960 . S
H976 C989 0.961 . S
H977 C989 0.959 . S
H978 C992 0.929 . S
H979 C993 0.931 . S
H980 C995 0.930 . S
C981 H969 0.930 . S
C981 C982 1.399 . S
C981 C986 1.399 . S
C982 C981 1.399 . S
C982 C983 1.376 . S
C983 H970 0.930 . S
C983 C982 1.376 . S
C983 C984 1.388 1_545 S
C984 H971 0.930 . S
C984 C983 1.388 1_565 S
C984 C985 1.381 1_565 S
C985 C984 1.381 1_545 S
C985 C986 1.422 . S
C985 C991 1.451 1_545 S
C986 C981 1.399 . S
C986 C985 1.422 . S
C986 C987 1.516 . S
C987 C986 1.516 . S
C987 C988 1.502 . S
C987 C989 1.561 . S
C987 C990 1.526 1_545 S
C988 H972 0.959 . S
C988 H973 0.959 . S
C988 H974 0.961 . S
C988 C987 1.502 . S
C989 H975 0.960 . S
C989 H976 0.961 . S
C989 H977 0.959 . S
C989 C987 1.561 . S
C990 C987 1.526 1_565 S
C990 C991 1.396 . S
C990 C995 1.390 . S
C991 C985 1.451 1_565 S
C991 C990 1.396 . S
C991 C992 1.399 . S
C992 H978 0.929 . S
C992 C991 1.399 . S
C992 C993 1.385 . S
C993 H979 0.931 . S
C993 C992 1.385 . S
C993 C994 1.389 . S
C994 C993 1.389 . S
C994 C995 1.387 . S
C995 H980 0.930 . S
C995 C990 1.390 . S
C995 C994 1.387 . S
H996 C1008 0.930 . S
H997 C1010 0.930 . S
H998 C1011 0.930 . S
H999 C1015 0.959 . S
H1000 C1015 0.959 . S
H1001 C1015 0.961 . S
H1002 C1016 0.960 . S
H1003 C1016 0.961 . S
H1004 C1016 0.959 . S
H1005 C1019 0.929 . S
H1006 C1020 0.931 . S
H1007 C1022 0.930 . S
C1008 H996 0.930 . S
C1008 C1009 1.399 . S
C1008 C1013 1.399 . S
C1009 C1008 1.399 . S
C1009 C1010 1.376 . S
C1010 H997 0.930 . S
C1010 C1009 1.376 . S
C1010 C1011 1.388 . S
C1011 H998 0.930 . S
C1011 C1010 1.388 . S
C1011 C1012 1.390 . S
C1012 C1011 1.390 . S
C1012 C1013 1.394 . S
C1012 C1018 1.465 . S
C1013 C1008 1.399 . S
C1013 C1012 1.394 . S
C1013 C1014 1.516 . S
C1014 C1013 1.516 . S
C1014 C1015 1.502 . S
C1014 C1016 1.561 . S
C1014 C1017 1.526 . S
C1015 H999 0.959 . S
C1015 H1000 0.959 . S
C1015 H1001 0.961 . S
C1015 C1014 1.502 . S
C1016 H1002 0.960 . S
C1016 H1003 0.961 . S
C1016 H1004 0.959 . S
C1016 C1014 1.561 . S
C1017 C1014 1.526 . S
C1017 C1018 1.396 . S
C1017 C1022 1.390 . S
C1018 C1012 1.465 . S
C1018 C1017 1.396 . S
C1018 C1019 1.399 . S
C1019 H1005 0.929 . S
C1019 C1018 1.399 . S
C1019 C1020 1.385 . S
C1020 H1006 0.931 . S
C1020 C1019 1.385 . S
C1020 C1021 1.389 . S
C1021 C1020 1.389 . S
C1021 C1022 1.387 . S
C1022 H1007 0.930 . S
C1022 C1017 1.390 . S
C1022 C1021 1.387 . S
H1023 C1035 0.930 . S
H1024 C1037 0.930 . S
H1025 C1038 0.930 . S
H1026 C1042 0.959 . S
H1027 C1042 0.959 . S
H1028 C1042 0.961 . S
H1029 C1043 0.960 . S
H1030 C1043 0.961 . S
H1031 C1043 0.959 . S
H1032 C1046 0.929 . S
H1033 C1047 0.931 . S
H1034 C1049 0.930 . S
C1035 H1023 0.930 . S
C1035 C1036 1.399 . S
C1035 C1040 1.399 . S
C1036 C1035 1.399 . S
C1036 C1037 1.376 . S
C1037 H1024 0.930 . S
C1037 C1036 1.376 . S
C1037 C1038 1.388 . S
C1038 H1025 0.930 . S
C1038 C1037 1.388 . S
C1038 C1039 1.390 . S
C1039 C1038 1.390 . S
C1039 C1040 1.394 . S
C1039 C1045 1.465 . S
C1040 C1035 1.399 . S
C1040 C1039 1.394 . S
C1040 C1041 1.516 1_455 S
C1041 C1040 1.516 1_655 S
C1041 C1042 1.502 . S
C1041 C1043 1.561 . S
C1041 C1044 1.526 . S
C1042 H1026 0.959 . S
C1042 H1027 0.959 . S
C1042 H1028 0.961 . S
C1042 C1041 1.502 . S
C1043 H1029 0.960 . S
C1043 H1030 0.961 . S
C1043 H1031 0.959 . S
C1043 C1041 1.561 . S
C1044 C1041 1.526 . S
C1044 C1045 1.396 1_655 S
C1044 C1049 1.390 . S
C1045 C1039 1.465 . S
C1045 C1044 1.396 1_455 S
C1045 C1046 1.399 . S
C1046 H1032 0.929 . S
C1046 C1045 1.399 . S
C1046 C1047 1.385 1_455 S
C1047 H1033 0.931 . S
C1047 C1046 1.385 1_655 S
C1047 C1048 1.389 . S
C1048 C1047 1.389 . S
C1048 C1049 1.387 . S
C1049 H1034 0.930 . S
C1049 C1044 1.390 . S
C1049 C1048 1.387 . S
H1050 C1062 0.930 . S
H1051 C1064 0.930 . S
H1052 C1065 0.930 . S
H1053 C1069 0.959 . S
H1054 C1069 0.959 . S
H1055 C1069 0.961 . S
H1056 C1070 0.960 . S
H1057 C1070 0.961 . S
H1058 C1070 0.959 . S
H1059 C1073 0.929 . S
H1060 C1074 0.931 . S
H1061 C1076 0.930 . S
C1062 H1050 0.930 . S
C1062 C1063 1.399 . S
C1062 C1067 1.399 . S
C1063 C1062 1.399 . S
C1063 C1064 1.376 . S
C1064 H1051 0.930 . S
C1064 C1063 1.376 . S
C1064 C1065 1.388 . S
C1065 H1052 0.930 . S
C1065 C1064 1.388 . S
C1065 C1066 1.390 . S
C1066 C1065 1.390 . S
C1066 C1067 1.394 . S
C1066 C1072 1.465 . S
C1067 C1062 1.399 . S
C1067 C1066 1.394 . S
C1067 C1068 1.516 . S
C1068 C1067 1.516 . S
C1068 C1069 1.502 . S
C1068 C1070 1.561 . S
C1068 C1071 1.526 . S
C1069 H1053 0.959 . S
C1069 H1054 0.959 . S
C1069 H1055 0.961 . S
C1069 C1068 1.502 . S
C1070 H1056 0.960 . S
C1070 H1057 0.961 . S
C1070 H1058 0.959 . S
C1070 C1068 1.561 . S
C1071 C1068 1.526 . S
C1071 C1072 1.396 . S
C1071 C1076 1.390 . S
C1072 C1066 1.465 . S
C1072 C1071 1.396 . S
C1072 C1073 1.399 . S
C1073 H1059 0.929 . S
C1073 C1072 1.399 . S
C1073 C1074 1.385 . S
C1074 H1060 0.931 . S
C1074 C1073 1.385 . S
C1074 C1075 1.389 . S
C1075 C1074 1.389 . S
C1075 C1076 1.387 . S
C1076 H1061 0.930 . S
C1076 C1071 1.390 . S
C1076 C1075 1.387 . S
H1077 C1089 0.930 . S
H1078 C1091 0.930 . S
H1079 C1092 0.930 . S
H1080 C1096 0.959 . S
H1081 C1096 0.959 . S
H1082 C1096 0.961 . S
H1083 C1097 0.960 . S
H1084 C1097 0.961 . S
H1085 C1097 0.959 . S
H1086 C1100 0.929 . S
H1087 C1101 0.931 . S
H1088 C1103 0.930 . S
C1089 H1077 0.930 . S
C1089 C1090 1.399 . S
C1089 C1094 1.399 . S
C1090 C1089 1.399 . S
C1090 C1091 1.376 . S
C1091 H1078 0.930 . S
C1091 C1090 1.376 . S
C1091 C1092 1.388 . S
C1092 H1079 0.930 . S
C1092 C1091 1.388 . S
C1092 C1093 1.390 . S
C1093 C1092 1.390 . S
C1093 C1094 1.394 . S
C1093 C1099 1.465 . S
C1094 C1089 1.399 . S
C1094 C1093 1.394 . S
C1094 C1095 1.516 . S
C1095 C1094 1.516 . S
C1095 C1096 1.502 . S
C1095 C1097 1.561 . S
C1095 C1098 1.526 . S
C1096 H1080 0.959 . S
C1096 H1081 0.959 . S
C1096 H1082 0.961 . S
C1096 C1095 1.502 . S
C1097 H1083 0.960 . S
C1097 H1084 0.961 . S
C1097 H1085 0.959 . S
C1097 C1095 1.561 . S
C1098 C1095 1.526 . S
C1098 C1099 1.396 . S
C1098 C1103 1.390 . S
C1099 C1093 1.465 . S
C1099 C1098 1.396 . S
C1099 C1100 1.399 . S
C1100 H1086 0.929 . S
C1100 C1099 1.399 . S
C1100 C1101 1.385 . S
C1101 H1087 0.931 . S
C1101 C1100 1.385 . S
C1101 C1102 1.389 . S
C1102 C1101 1.389 . S
C1102 C1103 1.387 . S
C1103 H1088 0.930 . S
C1103 C1098 1.390 . S
C1103 C1102 1.387 . S
H1104 C1116 0.930 . S
H1105 C1118 0.930 . S
H1106 C1119 0.930 . S
H1107 C1123 0.959 . S
H1108 C1123 0.959 . S
H1109 C1123 0.961 . S
H1110 C1124 0.960 . S
H1111 C1124 0.961 . S
H1112 C1124 0.959 . S
H1113 C1127 0.929 . S
H1114 C1128 0.931 . S
H1115 C1130 0.930 . S
C1116 H1104 0.930 . S
C1116 C1117 1.399 . S
C1116 C1121 1.399 . S
C1117 C1116 1.399 . S
C1117 C1118 1.376 . S
C1118 H1105 0.930 . S
C1118 C1117 1.376 . S
C1118 C1119 1.388 . S
C1119 H1106 0.930 . S
C1119 C1118 1.388 . S
C1119 C1120 1.390 . S
C1120 C1119 1.390 . S
C1120 C1121 1.394 . S
C1120 C1126 1.465 . S
C1121 C1116 1.399 . S
C1121 C1120 1.394 . S
C1121 C1122 1.516 . S
C1122 C1121 1.516 . S
C1122 C1123 1.502 . S
C1122 C1124 1.561 . S
C1122 C1125 1.526 . S
C1123 H1107 0.959 . S
C1123 H1108 0.959 . S
C1123 H1109 0.961 . S
C1123 C1122 1.502 . S
C1124 H1110 0.960 . S
C1124 H1111 0.961 . S
C1124 H1112 0.959 . S
C1124 C1122 1.561 . S
C1125 C1122 1.526 . S
C1125 C1126 1.396 . S
C1125 C1130 1.390 . S
C1126 C1120 1.465 . S
C1126 C1125 1.396 . S
C1126 C1127 1.399 . S
C1127 H1113 0.929 . S
C1127 C1126 1.399 . S
C1127 C1128 1.385 . S
C1128 H1114 0.931 . S
C1128 C1127 1.385 . S
C1128 C1129 1.389 . S
C1129 C1128 1.389 . S
C1129 C1130 1.387 . S
C1130 H1115 0.930 . S
C1130 C1125 1.390 . S
C1130 C1129 1.387 . S
H1131 C1143 0.930 . S
H1132 C1145 0.930 . S
H1133 C1146 0.930 . S
H1134 C1150 0.959 . S
H1135 C1150 0.959 . S
H1136 C1150 0.961 . S
H1137 C1151 0.960 . S
H1138 C1151 0.961 . S
H1139 C1151 0.959 . S
H1140 C1154 0.929 . S
H1141 C1155 0.931 . S
H1142 C1157 0.930 . S
C1143 H1131 0.930 . S
C1143 C1144 1.399 . S
C1143 C1148 1.399 . S
C1144 C1143 1.399 . S
C1144 C1145 1.376 . S
C1145 H1132 0.930 . S
C1145 C1144 1.376 . S
C1145 C1146 1.388 . S
C1146 H1133 0.930 . S
C1146 C1145 1.388 . S
C1146 C1147 1.390 . S
C1147 C1146 1.390 . S
C1147 C1148 1.394 . S
C1147 C1153 1.465 . S
C1148 C1143 1.399 . S
C1148 C1147 1.394 . S
C1148 C1149 1.516 . S
C1149 C1148 1.516 . S
C1149 C1150 1.502 . S
C1149 C1151 1.561 . S
C1149 C1152 1.526 . S
C1150 H1134 0.959 . S
C1150 H1135 0.959 . S
C1150 H1136 0.961 . S
C1150 C1149 1.502 . S
C1151 H1137 0.960 . S
C1151 H1138 0.961 . S
C1151 H1139 0.959 . S
C1151 C1149 1.561 . S
C1152 C1149 1.526 . S
C1152 C1153 1.396 . S
C1152 C1157 1.390 . S
C1153 C1147 1.465 . S
C1153 C1152 1.396 . S
C1153 C1154 1.399 . S
C1154 H1140 0.929 . S
C1154 C1153 1.399 . S
C1154 C1155 1.385 . S
C1155 H1141 0.931 . S
C1155 C1154 1.385 . S
C1155 C1156 1.389 . S
C1156 C1155 1.389 . S
C1156 C1157 1.387 . S
C1157 H1142 0.930 . S
C1157 C1152 1.390 . S
C1157 C1156 1.387 . S
H1158 C1170 0.930 . S
H1159 C1172 0.930 . S
H1160 C1173 0.930 . S
H1161 C1177 0.959 . S
H1162 C1177 0.959 . S
H1163 C1177 0.961 . S
H1164 C1178 0.960 . S
H1165 C1178 0.961 . S
H1166 C1178 0.959 . S
H1167 C1181 0.929 . S
H1168 C1182 0.931 . S
H1169 C1184 0.930 . S
C1170 H1158 0.930 . S
C1170 C1171 1.399 . S
C1170 C1175 1.399 . S
C1171 C1170 1.399 . S
C1171 C1172 1.376 . S
C1172 H1159 0.930 . S
C1172 C1171 1.376 . S
C1172 C1173 1.388 . S
C1173 H1160 0.930 . S
C1173 C1172 1.388 . S
C1173 C1174 1.390 . S
C1174 C1173 1.390 . S
C1174 C1175 1.394 . S
C1174 C1180 1.465 . S
C1175 C1170 1.399 . S
C1175 C1174 1.394 . S
C1175 C1176 1.516 . S
C1176 C1175 1.516 . S
C1176 C1177 1.502 . S
C1176 C1178 1.561 . S
C1176 C1179 1.526 . S
C1177 H1161 0.959 . S
C1177 H1162 0.959 . S
C1177 H1163 0.961 . S
C1177 C1176 1.502 . S
C1178 H1164 0.960 . S
C1178 H1165 0.961 . S
C1178 H1166 0.959 . S
C1178 C1176 1.561 . S
C1179 C1176 1.526 . S
C1179 C1180 1.396 . S
C1179 C1184 1.390 . S
C1180 C1174 1.465 . S
C1180 C1179 1.396 . S
C1180 C1181 1.399 . S
C1181 H1167 0.929 . S
C1181 C1180 1.399 . S
C1181 C1182 1.385 . S
C1182 H1168 0.931 . S
C1182 C1181 1.385 . S
C1182 C1183 1.389 . S
C1183 C1182 1.389 . S
C1183 C1184 1.387 . S
C1184 H1169 0.930 . S
C1184 C1179 1.390 . S
C1184 C1183 1.387 . S
H1185 C1197 0.930 . S
H1186 C1199 0.930 . S
H1187 C1200 0.930 . S
H1188 C1204 0.959 . S
H1189 C1204 0.959 . S
H1190 C1204 0.961 . S
H1191 C1205 0.960 . S
H1192 C1205 0.961 . S
H1193 C1205 0.959 . S
H1194 C1208 0.929 . S
H1195 C1209 0.931 . S
H1196 C1211 0.930 . S
C1197 H1185 0.930 . S
C1197 C1198 1.399 . S
C1197 C1202 1.399 . S
C1198 C1197 1.399 . S
C1198 C1199 1.376 . S
C1199 H1186 0.930 . S
C1199 C1198 1.376 . S
C1199 C1200 1.388 . S
C1200 H1187 0.930 . S
C1200 C1199 1.388 . S
C1200 C1201 1.390 . S
C1201 C1200 1.390 . S
C1201 C1202 1.394 . S
C1201 C1207 1.465 . S
C1202 C1197 1.399 . S
C1202 C1201 1.394 . S
C1202 C1203 1.516 . S
C1203 C1202 1.516 . S
C1203 C1204 1.502 . S
C1203 C1205 1.561 . S
C1203 C1206 1.526 . S
C1204 H1188 0.959 . S
C1204 H1189 0.959 . S
C1204 H1190 0.961 . S
C1204 C1203 1.502 . S
C1205 H1191 0.960 . S
C1205 H1192 0.961 . S
C1205 H1193 0.959 . S
C1205 C1203 1.561 . S
C1206 C1203 1.526 . S
C1206 C1207 1.396 . S
C1206 C1211 1.390 . S
C1207 C1201 1.465 . S
C1207 C1206 1.396 . S
C1207 C1208 1.399 . S
C1208 H1194 0.929 . S
C1208 C1207 1.399 . S
C1208 C1209 1.385 . S
C1209 H1195 0.931 . S
C1209 C1208 1.385 . S
C1209 C1210 1.389 . S
C1210 C1209 1.389 . S
C1210 C1211 1.387 . S
C1211 H1196 0.930 . S
C1211 C1206 1.390 . S
C1211 C1210 1.387 . S
C253 C8 1.225 . S
C265 C168 1.251 . S
C280 C28 1.264 . S
C292 C188 1.247 . S
C307 C48 1.223 . S
C319 C208 1.209 . S
C334 C228 1.245 . S
C346 C68 1.263 . S
C361 C88 1.209 . S
C373 C128 1.228 . S
C388 C148 1.255 . S
C400 C108 1.265 . S
C415 C201 0.503 . S
C427 C1 0.605 . S
C442 C221 0.652 . S
C454 C21 0.504 . S
C469 C41 0.656 . S
C481 C121 0.506 . S
C496 C141 0.510 . S
C508 C61 0.591 . S
C523 C161 0.641 . S
C535 C81 0.500 . S
C550 C101 0.670 . S
C562 C181 0.580 . S
C577 C159 2.164 . S
C589 C19 2.132 . S
C604 C179 2.125 . S
C616 C39 2.113 . S
C631 C199 2.148 . S
C643 C59 2.111 . S
C658 C79 2.163 . S
C670 C219 2.144 . S
C685 C99 2.156 . S
C697 C239 2.117 . S
C712 C119 2.117 . S
C724 C139 2.119 . S
C739 C9 0.900 . S
C751 C69 0.776 . S
C766 C29 0.896 . S
C778 C89 0.778 . S
C793 C49 0.836 . S
C805 C109 0.920 . S
C820 C189 0.890 . S
C832 C129 0.783 . S
C847 C149 0.838 . S
C859 C209 0.918 . S
C874 C229 0.893 . S
C886 C169 0.780 . S
C901 C142 0.936 . S
C913 C2 0.988 . S
C928 C162 0.983 . S
C940 C22 0.892 . S
C955 C42 0.992 . S
C967 C182 0.901 . S
C982 C202 0.929 . S
C994 C62 0.990 . S
C1009 C222 0.890 . S
C1021 C82 0.964 . S
C1036 C102 0.989 . S
C1048 C122 0.895 . S
C1063 C18 2.539 . S
C1075 C218 2.533 . S
C1090 C38 2.533 . S
C1102 C238 2.542 1_556 S
C1117 C58 2.547 1_554 S
C1129 C138 2.544 . S
C1144 C78 2.539 . S
C1156 C158 2.533 . S
C1171 C98 2.545 . S
C1183 C178 2.536 1_556 S
C1198 C198 2.533 . S
C1210 C118 2.543 1_554 S
