# Generated by pormake.
# Topology yfh, (5)-cn, num edge types: 1
# Building blocks:
#     Node 0, Type 0, BuildingBlock: XOMCOT_clean_sbu_1, # of connection points: 5
#     Node 1, Type 0, BuildingBlock: XOMCOT_clean_sbu_1, # of connection points: 5
#     Node 2, Type 0, BuildingBlock: XOMCOT_clean_sbu_1, # of connection points: 5
#     Node 3, Type 0, BuildingBlock: XOMCOT_clean_sbu_1, # of connection points: 5
#     Node 4, Type 0, BuildingBlock: XOMCOT_clean_sbu_1, # of connection points: 5
#     Node 5, Type 0, BuildingBlock: XOMCOT_clean_sbu_1, # of connection points: 5
#     Node 6, Type 0, BuildingBlock: XOMCOT_clean_sbu_1, # of connection points: 5
#     Node 7, Type 0, BuildingBlock: XOMCOT_clean_sbu_1, # of connection points: 5
#     Edge 8, Type (0, 0), BuildingBlock: CIFDUS_clean_linker_0, # of connection points: 2
#     Edge 9, Type (0, 0), BuildingBlock: CIFDUS_clean_linker_0, # of connection points: 2
#     Edge 10, Type (0, 0), BuildingBlock: CIFDUS_clean_linker_0, # of connection points: 2
#     Edge 11, Type (0, 0), BuildingBlock: CIFDUS_clean_linker_0, # of connection points: 2
#     Edge 12, Type (0, 0), BuildingBlock: CIFDUS_clean_linker_0, # of connection points: 2
#     Edge 13, Type (0, 0), BuildingBlock: CIFDUS_clean_linker_0, # of connection points: 2
#     Edge 14, Type (0, 0), BuildingBlock: CIFDUS_clean_linker_0, # of connection points: 2
#     Edge 15, Type (0, 0), BuildingBlock: CIFDUS_clean_linker_0, # of connection points: 2
#     Edge 16, Type (0, 0), BuildingBlock: CIFDUS_clean_linker_0, # of connection points: 2
#     Edge 17, Type (0, 0), BuildingBlock: CIFDUS_clean_linker_0, # of connection points: 2
#     Edge 18, Type (0, 0), BuildingBlock: CIFDUS_clean_linker_0, # of connection points: 2
#     Edge 19, Type (0, 0), BuildingBlock: CIFDUS_clean_linker_0, # of connection points: 2
#     Edge 20, Type (0, 0), BuildingBlock: CIFDUS_clean_linker_0, # of connection points: 2
#     Edge 21, Type (0, 0), BuildingBlock: CIFDUS_clean_linker_0, # of connection points: 2
#     Edge 22, Type (0, 0), BuildingBlock: CIFDUS_clean_linker_0, # of connection points: 2
#     Edge 23, Type (0, 0), BuildingBlock: CIFDUS_clean_linker_0, # of connection points: 2
#     Edge 24, Type (0, 0), BuildingBlock: CIFDUS_clean_linker_0, # of connection points: 2
#     Edge 25, Type (0, 0), BuildingBlock: CIFDUS_clean_linker_0, # of connection points: 2
#     Edge 26, Type (0, 0), BuildingBlock: CIFDUS_clean_linker_0, # of connection points: 2
#     Edge 27, Type (0, 0), BuildingBlock: CIFDUS_clean_linker_0, # of connection points: 2
# Relax obj value: 0.402
# Max RMSD: 0.274
# Mean RMSD: 0.274
data_MOF--net-yfh--node1-XOMCOT_clean_sbu_1--edge1-CIFDUS_clean_linker_0
_symmetry_space_group_name_H-M    P1
_symmetry_Int_Tables_number       1
_symmetry_cell_setting            triclinic
loop_
_symmetry_equiv_pos_as_xyz
'x, y, z'
_cell_length_a     24.454782
_cell_length_b     24.265432
_cell_length_c     54.228085
_cell_angle_alpha  89.993072
_cell_angle_beta   90.322173
_cell_angle_gamma 90.152099
loop_
_atom_site_label
_atom_site_type_symbol
_atom_site_fract_x
_atom_site_fract_y
_atom_site_fract_z
_atom_type_partial_charge
C0 C 0.36698 0.09952 0.0545 0.0
C1 C 0.33576 0.10309 0.03335 0.0
N2 N 0.29621 0.14072 0.03712 0.0
N3 N 0.3475 0.13529 0.07127 0.0
C4 C 0.304 0.1591 0.0603 0.0
H5 H 0.40264 0.07392 0.05724 0.0
Co6 Co 0.37715 0.14958 0.10205 0.0
C7 C 0.35139 0.2684 0.10976 0.0
O8 O 0.40231 0.27698 0.11647 0.0
N9 N 0.40724 0.16313 0.13409 0.0
C10 C 0.4609 0.18727 0.16576 0.0
C11 C 0.45415 0.18931 0.14067 0.0
C12 C 0.38628 0.14611 0.1559 0.0
N13 N 0.41826 0.15981 0.17532 0.0
O14 O 0.3181 0.10708 0.11561 0.0
H15 H 0.48223 0.20943 0.12829 0.0
H16 H 0.34914 0.12233 0.15767 0.0
O17 O 0.33554 0.21949 0.10417 0.0
C18 C 0.33411 0.05692 0.11597 0.0
O19 O 0.38617 0.04722 0.11193 0.0
N20 N 0.43653 0.18337 0.08644 0.0
C21 C 0.51851 0.19676 0.05147 0.0
C22 C 0.47229 0.23088 0.05119 0.0
C23 C 0.43131 0.22306 0.06868 0.0
C24 C 0.4825 0.15185 0.08766 0.0
C25 C 0.52466 0.15895 0.07083 0.0
H26 H 0.39313 0.24457 0.0661 0.0
H27 H 0.48469 0.1182 0.10071 0.0
H28 H 0.28003 0.19144 0.06862 0.0
H29 H 0.34258 0.08093 0.01633 0.0
H30 H 0.49492 0.20432 0.17612 0.0
H31 H 0.46509 0.25939 0.03615 0.0
H32 H 0.5597 0.1318 0.07175 0.0
C33 C 0.43884 0.87105 0.30377 0.0
C34 C 0.43246 0.84048 0.28251 0.0
N35 N 0.39217 0.80331 0.28617 0.0
N36 N 0.40248 0.85344 0.32059 0.0
C37 C 0.37508 0.812 0.30944 0.0
H38 H 0.46763 0.90434 0.30673 0.0
Co39 Co 0.39311 0.88079 0.35219 0.0
C40 C 0.27832 0.85412 0.36395 0.0
O41 O 0.27261 0.90478 0.372 0.0
N42 N 0.38417 0.90737 0.38502 0.0
C43 C 0.36676 0.95514 0.41922 0.0
C44 C 0.36706 0.95652 0.3939 0.0
C45 C 0.39316 0.87691 0.40558 0.0
N46 N 0.38352 0.90498 0.42659 0.0
O47 O 0.43791 0.82128 0.36367 0.0
H48 H 0.35371 0.99124 0.38306 0.0
H49 H 0.40737 0.83485 0.40527 0.0
O50 O 0.32489 0.83812 0.35595 0.0
C51 C 0.48693 0.83956 0.36491 0.0
O52 O 0.49469 0.8929 0.36243 0.0
N53 N 0.35678 0.94134 0.33843 0.0
C54 C 0.34156 1.02365 0.30318 0.0
C55 C 0.30644 0.97781 0.30398 0.0
C56 C 0.31494 0.93682 0.3217 0.0
C57 C 0.38909 0.98715 0.33871 0.0
C58 C 0.38083 0.02969 0.32194 0.0
H59 H 0.29234 0.89877 0.3198 0.0
H60 H 0.42446 0.98869 0.35076 0.0
H61 H 0.34191 0.78962 0.31791 0.0
H62 H 0.45556 0.84555 0.2657 0.0
H63 H 0.35467 0.98859 0.43117 0.0
H64 H 0.27649 0.97061 0.28955 0.0
H65 H 0.40848 0.06462 0.32228 0.0
C66 C 0.64545 0.93757 0.55867 0.0
C67 C 0.6744 0.93486 0.53693 0.0
N68 N 0.71836 0.90238 0.54067 0.0
N69 N 0.67073 0.90609 0.57572 0.0
C70 C 0.71526 0.88615 0.56435 0.0
H71 H 0.60769 0.95963 0.56165 0.0
Co72 Co 0.65021 0.89061 0.60779 0.0
C73 C 0.6762 0.77194 0.61361 0.0
O74 O 0.62764 0.76459 0.6233 0.0
N75 N 0.63116 0.87509 0.64104 0.0
C76 C 0.5915 0.8547 0.67692 0.0
C77 C 0.58438 0.85726 0.65175 0.0
C78 C 0.66618 0.88126 0.66024 0.0
N79 N 0.64299 0.87039 0.68216 0.0
O80 O 0.71303 0.93257 0.6183 0.0
H81 H 0.54697 0.8466 0.64224 0.0
H82 H 0.70825 0.89415 0.65842 0.0
O83 O 0.6911 0.82042 0.60697 0.0
C84 C 0.69736 0.98237 0.62131 0.0
O85 O 0.64459 0.99242 0.6204 0.0
N86 N 0.58617 0.85804 0.59547 0.0
C87 C 0.50116 0.85974 0.56109 0.0
C88 C 0.54381 0.82137 0.55895 0.0
C89 C 0.58614 0.82117 0.5764 0.0
C90 C 0.5424 0.8917 0.59901 0.0
C91 C 0.49857 0.89178 0.58256 0.0
H92 H 0.6223 0.79754 0.57227 0.0
H93 H 0.54425 0.92329 0.61306 0.0
H94 H 0.74394 0.85832 0.57301 0.0
H95 H 0.66333 0.95436 0.51967 0.0
H96 H 0.56044 0.84468 0.69034 0.0
H97 H 0.54817 0.7965 0.54251 0.0
H98 H 0.46604 0.92134 0.58523 0.0
C99 C 0.61891 0.18672 0.8031 0.0
C100 C 0.63076 0.21871 0.78283 0.0
N101 N 0.67004 0.25521 0.78926 0.0
N102 N 0.65083 0.20279 0.82211 0.0
C103 C 0.68065 0.24512 0.81326 0.0
H104 H 0.59079 0.15227 0.80366 0.0
Co105 Co 0.65661 0.16806 0.8524 0.0
C106 C 0.76997 0.19559 0.86943 0.0
O107 O 0.77596 0.14546 0.8781 0.0
N108 N 0.66189 0.13247 0.88356 0.0
C109 C 0.67582 0.0724 0.91406 0.0
C110 C 0.68055 0.08147 0.88921 0.0
C111 C 0.6465 0.15341 0.9056 0.0
N112 N 0.654 0.11761 0.92437 0.0
O113 O 0.61037 0.22452 0.86579 0.0
H114 H 0.6978 0.05232 0.87644 0.0
H115 H 0.62872 0.19377 0.90786 0.0
O116 O 0.72416 0.20991 0.85981 0.0
C117 C 0.56088 0.20733 0.86485 0.0
O118 O 0.55223 0.15554 0.85885 0.0
N119 N 0.69459 0.11141 0.83683 0.0
C120 C 0.72117 0.03277 0.80135 0.0
C121 C 0.75797 0.07538 0.80739 0.0
C122 C 0.74313 0.11538 0.82461 0.0
C123 C 0.65978 0.06877 0.83217 0.0
C124 C 0.6723 0.02891 0.81472 0.0
H125 H 0.76852 0.15157 0.82622 0.0
H126 H 0.62006 0.06808 0.84084 0.0
H127 H 0.71074 0.26734 0.82399 0.0
H128 H 0.61393 0.21327 0.7645 0.0
H129 H 0.68761 0.03522 0.9237 0.0
H130 H 0.79611 0.08034 0.79759 0.0
H131 H 0.64142 0.99836 0.81037 0.0
C132 C 0.88417 0.44192 0.65962 0.0
C133 C 0.85739 0.44134 0.68192 0.0
N134 N 0.8126 0.40927 0.67953 0.0
N135 N 0.85683 0.40935 0.64359 0.0
C136 C 0.81306 0.39088 0.65611 0.0
H137 H 0.92196 0.46323 0.65556 0.0
Co138 Co 0.87577 0.39187 0.61152 0.0
C139 C 0.84967 0.2727 0.60744 0.0
O140 O 0.89832 0.26513 0.59795 0.0
N141 N 0.89383 0.37476 0.57819 0.0
C142 C 0.9338 0.35063 0.54288 0.0
C143 C 0.93966 0.35336 0.56808 0.0
C144 C 0.86057 0.38339 0.55852 0.0
N145 N 0.88404 0.37 0.5369 0.0
O146 O 0.81242 0.43258 0.60109 0.0
H147 H 0.97555 0.34004 0.57805 0.0
H148 H 0.81964 0.39962 0.5598 0.0
O149 O 0.83467 0.32147 0.61354 0.0
C150 C 0.8278 0.48251 0.59795 0.0
O151 O 0.88057 0.49299 0.59843 0.0
N152 N 0.94039 0.36036 0.62376 0.0
C153 C 0.02787 0.36222 0.65693 0.0
C154 C 0.98453 0.32475 0.66002 0.0
C155 C 0.94099 0.3245 0.64321 0.0
C156 C 0.98444 0.39338 0.61935 0.0
C157 C 0.02936 0.39361 0.63523 0.0
H158 H 0.90472 0.30155 0.64804 0.0
H159 H 0.98231 0.42409 0.60492 0.0
H160 H 0.78314 0.36254 0.64856 0.0
H161 H 0.8704 0.46187 0.69868 0.0
H162 H 0.96471 0.33756 0.52994 0.0
H163 H 0.98087 0.30048 0.67669 0.0
H164 H 0.06231 0.42246 0.63181 0.0
C165 C 0.12374 0.38664 0.91521 0.0
C166 C 0.13291 0.35536 0.93606 0.0
N167 N 0.16101 0.30995 0.92947 0.0
N168 N 0.14667 0.3612 0.89576 0.0
C169 C 0.16745 0.31409 0.9049 0.0
H170 H 0.1044 0.42665 0.91449 0.0
Co171 Co 0.15539 0.38573 0.86365 0.0
C172 C 0.27159 0.35807 0.85347 0.0
O173 O 0.27871 0.40806 0.8448 0.0
N174 N 0.16403 0.40918 0.83028 0.0
C175 C 0.18349 0.45366 0.79536 0.0
C176 C 0.18558 0.45591 0.82066 0.0
C177 C 0.14999 0.37914 0.81014 0.0
N178 N 0.16088 0.40526 0.78875 0.0
O179 O 0.11044 0.32465 0.85345 0.0
H180 H 0.20337 0.48946 0.83103 0.0
H181 H 0.13115 0.33892 0.81095 0.0
O182 O 0.22411 0.34309 0.86089 0.0
C183 C 0.06118 0.34231 0.85355 0.0
O184 O 0.05346 0.39544 0.85667 0.0
N185 N 0.19169 0.44817 0.87607 0.0
C186 C 0.20346 0.53267 0.9105 0.0
C187 C 0.23935 0.48761 0.91068 0.0
C188 C 0.23258 0.44546 0.89335 0.0
C189 C 0.15959 0.49387 0.87446 0.0
C190 C 0.16593 0.53733 0.89098 0.0
H191 H 0.255 0.40772 0.89622 0.0
H192 H 0.12519 0.49428 0.86184 0.0
H193 H 0.18839 0.28394 0.89377 0.0
H194 H 0.12266 0.36691 0.95474 0.0
H195 H 0.19796 0.48518 0.78286 0.0
H196 H 0.26808 0.48162 0.9257 0.0
H197 H 0.13776 0.57164 0.88996 0.0
C198 C 0.18614 0.59613 0.15693 0.0
C199 C 0.21865 0.60476 0.17746 0.0
N200 N 0.24222 0.65484 0.17539 0.0
N201 N 0.1892 0.64061 0.14211 0.0
C202 C 0.22333 0.67559 0.15394 0.0
H203 H 0.16226 0.55961 0.15292 0.0
Co204 Co 0.15602 0.64979 0.11147 0.0
C205 C 0.18011 0.76778 0.09956 0.0
O206 O 0.1297 0.77506 0.0918 0.0
N207 N 0.12286 0.65897 0.07984 0.0
C208 C 0.06594 0.67694 0.04859 0.0
C209 C 0.07277 0.67856 0.07372 0.0
C210 C 0.14562 0.64654 0.05782 0.0
N211 N 0.11177 0.65645 0.03858 0.0
O212 O 0.21457 0.60743 0.09761 0.0
H213 H 0.04275 0.69417 0.08642 0.0
H214 H 0.18593 0.62912 0.0558 0.0
O215 O 0.19543 0.72001 0.10688 0.0
C216 C 0.19804 0.55738 0.09662 0.0
O217 O 0.146 0.54755 0.10076 0.0
N218 N 0.09704 0.68262 0.12727 0.0
C219 C 1.01513 0.69636 0.16228 0.0
C220 C 0.05627 0.73644 0.15933 0.0
C221 C 0.09773 0.72817 0.14206 0.0
C222 C 0.05594 0.6449 0.12907 0.0
C223 C 1.01429 0.65126 0.14614 0.0
H224 H 0.13242 0.7557 0.14233 0.0
H225 H 0.05773 0.60744 0.11831 0.0
H226 H 0.23352 0.71622 0.1473 0.0
H227 H 0.22492 0.5761 0.19249 0.0
H228 H 0.02984 0.68984 0.03854 0.0
H229 H 0.05876 0.77179 0.17147 0.0
H230 H 0.98468 0.61832 0.14807 0.0
C231 C 0.93427 0.69803 0.41552 0.0
C232 C 0.92088 0.72926 0.43582 0.0
N233 N 0.86837 0.74556 0.43343 0.0
N234 N 0.89051 0.69484 0.40041 0.0
C235 C 0.851 0.72335 0.41198 0.0
H236 H 0.97395 0.68071 0.41155 0.0
Co237 Co 0.88855 0.66627 0.36874 0.0
C238 C 0.77989 0.69959 0.34906 0.0
O239 O 0.77563 0.65219 0.33749 0.0
N240 N 0.88733 0.63879 0.33628 0.0
C241 C 0.89192 0.58947 0.3017 0.0
C242 C 0.88433 0.58722 0.32688 0.0
C243 C 0.89556 0.67128 0.31642 0.0
N244 N 0.89937 0.64249 0.29537 0.0
O245 O 0.93755 0.72436 0.35896 0.0
H246 H 0.87957 0.54991 0.3375 0.0
H247 H 0.90144 0.71543 0.31736 0.0
O248 O 0.82355 0.71086 0.36121 0.0
C249 C 0.98641 0.70602 0.35782 0.0
O250 O 0.99416 0.65284 0.3608 0.0
N251 N 0.84731 0.60691 0.38055 0.0
C252 C 0.81697 0.52613 0.41451 0.0
C253 C 0.77967 0.5669 0.40706 0.0
C254 C 0.79608 0.60783 0.39052 0.0
C255 C 0.88221 0.56501 0.386 0.0
C256 C 0.86789 0.52408 0.40274 0.0
H257 H 0.76937 0.64256 0.38807 0.0
H258 H 0.92362 0.56641 0.37911 0.0
H259 H 0.81023 0.72826 0.40464 0.0
H260 H 0.94849 0.74056 0.45064 0.0
H261 H 0.89585 0.55468 0.28934 0.0
H262 H 0.73982 0.5701 0.41553 0.0
H263 H 0.89887 0.49462 0.40815 0.0
H264 H 0.31516 0.15262 -0.01125 0.0
H265 H 0.19614 0.18388 0.04533 0.0
H266 H 0.14077 0.23699 0.01616 0.0
H267 H 0.13018 0.28028 0.97533 0.0
H268 H 0.25278 0.2514 0.91979 0.0
H269 H 0.30172 0.19054 0.94753 0.0
C270 C 0.27648 0.16988 -0.00546 0.0
C271 C 0.25989 0.16459 0.01915 0.0
C272 C 0.2455 0.20104 0.97784 0.0
C273 C 0.21004 0.18802 0.02651 0.0
C274 C 0.17841 0.21834 0.00985 0.0
C275 C 0.16748 0.26054 0.9693 0.0
C276 C 0.18742 0.2706 0.94545 0.0
C277 C 0.19646 0.22627 -0.01439 0.0
C278 C 0.23561 0.24401 0.93783 0.0
C279 C 0.26413 0.20939 0.95379 0.0
H280 H 0.25195 0.63627 0.22435 0.0
H281 H 0.31576 0.73527 0.16487 0.0
H282 H 0.37008 0.78862 0.19399 0.0
H283 H 0.39469 0.81146 0.23654 0.0
H284 H 0.33483 0.70988 0.29597 0.0
H285 H 0.28433 0.65313 0.26663 0.0
C286 C 0.27838 0.66885 0.21768 0.0
C287 C 0.27864 0.68227 0.19246 0.0
C288 C 0.31011 0.69929 0.23455 0.0
C289 C 0.31326 0.72488 0.18423 0.0
C290 C 0.3448 0.7553 0.20087 0.0
C291 C 0.37154 0.77636 0.24311 0.0
C292 C 0.36798 0.76583 0.26854 0.0
C293 C 0.34276 0.74354 0.22612 0.0
C294 C 0.33732 0.72008 0.27659 0.0
C295 C 0.30857 0.68727 0.25979 0.0
H296 H 0.89288 0.77324 0.48059 0.0
H297 H 0.77379 0.8003 0.42262 0.0
H298 H 0.71857 0.85447 0.4504 0.0
H299 H 0.70059 0.88943 0.49192 0.0
H300 H 0.82174 0.86737 0.54919 0.0
H301 H 0.87995 0.81714 0.52069 0.0
C302 C 0.85534 0.79145 0.47381 0.0
C303 C 0.83745 0.78107 0.44954 0.0
C304 C 0.82388 0.82376 0.48978 0.0
C305 C 0.78833 0.80551 0.44132 0.0
C306 C 0.75667 0.83726 0.45717 0.0
C307 C 0.74022 0.87479 0.49804 0.0
C308 C 0.75624 0.88135 0.52277 0.0
C309 C 0.7736 0.84593 0.48155 0.0
C310 C 0.80775 0.86175 0.53039 0.0
C311 C 0.84118 0.8331 0.51409 0.0
H312 H 0.83922 0.38854 0.72665 0.0
H313 H 0.70508 0.38659 0.67482 0.0
H314 H 0.64659 0.3419 0.70538 0.0
H315 H 0.63626 0.29701 0.74566 0.0
H316 H 0.77323 0.29447 0.79631 0.0
H317 H 0.82723 0.34854 0.76774 0.0
C318 C 0.79684 0.37947 0.72229 0.0
C319 C 0.77643 0.39058 0.69857 0.0
C320 C 0.76399 0.35274 0.73972 0.0
C321 C 0.72168 0.37783 0.69295 0.0
C322 C 0.68833 0.35232 0.71038 0.0
C323 C 0.67787 0.30827 0.75047 0.0
C324 C 0.70033 0.29126 0.77314 0.0
C325 C 0.7095 0.33831 0.73362 0.0
C326 C 0.75419 0.30726 0.77921 0.0
C327 C 0.78552 0.33795 0.76275 0.0
H328 H 0.63936 0.21312 0.94932 0.0
H329 H 0.62865 0.03608 0.95643 0.0
H330 H 0.59174 0.04584 -0.00239 0.0
H331 H 0.55385 0.10367 0.02969 0.0
H332 H 0.55998 0.28076 0.02297 0.0
H333 H 0.60644 0.27187 0.98323 0.0
C334 C 0.62893 0.17668 0.95985 0.0
C335 C 0.63656 0.12393 0.94957 0.0
C336 C 0.60647 0.18254 -0.01651 0.0
C337 C 0.62388 0.07718 0.96379 0.0
C338 C 0.60229 0.08268 -0.01265 0.0
C339 C 0.56672 0.14051 0.01997 0.0
C340 C 0.5538 0.19284 0.02938 0.0
C341 C 0.59248 0.13506 -0.00285 0.0
C342 C 0.56935 0.24 0.01607 0.0
C343 C 0.59583 0.23491 -0.00663 0.0
H344 H 0.4333 0.06128 0.28114 0.0
H345 H 0.25742 0.06176 0.27369 0.0
H346 H 0.26553 0.10678 0.23343 0.0
H347 H 0.32353 0.14058 0.19933 0.0
H348 H 0.49908 0.13878 0.20801 0.0
H349 H 0.48987 0.10149 0.24937 0.0
C350 C 0.39641 0.0727 0.27123 0.0
C351 C 0.34475 0.05833 0.28061 0.0
C352 C 0.40137 0.09827 0.24825 0.0
C353 C 0.29773 0.072 0.26688 0.0
C354 C 0.30235 0.09777 0.24387 0.0
C355 C 0.35966 0.13213 0.21034 0.0
C356 C 0.41193 0.14223 0.2005 0.0
C357 C 0.35409 0.11003 0.23416 0.0
C358 C 0.45839 0.13199 0.21515 0.0
C359 C 0.45319 0.11025 0.23877 0.0
H360 H 0.40276 0.96931 0.46618 0.0
H361 H 0.38948 0.79932 0.44345 0.0
H362 H 0.4198 0.76939 0.48423 0.0
H363 H 0.45746 0.79204 0.52537 0.0
H364 H 0.47225 0.96318 0.54659 0.0
H365 H 0.43158 0.99151 0.50787 0.0
C366 C 0.40521 0.92566 0.47016 0.0
C367 C 0.3946 0.88687 0.45148 0.0
C368 C 0.42267 0.9087 0.49359 0.0
C369 C 0.39865 0.83037 0.45718 0.0
C370 C 0.4157 0.81311 0.4806 0.0
C371 C 0.45121 0.83547 0.52162 0.0
C372 C 0.46781 0.87512 0.53911 0.0
C373 C 0.42915 0.852 0.49878 0.0
C374 C 0.45891 0.93132 0.53392 0.0
C375 C 0.43626 0.94785 0.51153 0.0
H376 H 0.68729 0.92657 0.79268 0.0
H377 H 0.76893 0.06425 0.75789 0.0
H378 H 0.75965 1.01999 0.7181 0.0
H379 H 0.71319 0.9524 0.69236 0.0
H380 H 0.6212 0.82045 0.7257 0.0
H381 H 0.64781 0.85342 0.76678 0.0
C382 C 0.70335 0.94688 0.77645 0.0
C383 C 0.72786 0.99937 0.77851 0.0
C384 C 0.69464 0.92295 0.7532 0.0
C385 C 0.75022 1.02382 0.75725 0.0
C386 C 0.74416 0.9989 0.73426 0.0
C387 C 0.70017 0.92981 0.70855 0.0
C388 C 0.665 0.88423 0.70603 0.0
C389 C 0.71421 0.94992 0.73192 0.0
C390 C 0.64772 0.85609 0.72725 0.0
C391 C 0.66304 0.87486 0.75068 0.0
H392 H 0.14105 0.46964 0.74931 0.0
H393 H 0.14735 0.29986 0.77274 0.0
H394 H 0.11181 0.27037 0.73269 0.0
H395 H 0.07192 0.29371 0.69214 0.0
H396 H 0.06308 0.4648 0.67029 0.0
H397 H 0.10895 0.49221 0.70802 0.0
C398 C 0.13586 0.42609 0.74558 0.0
C399 C 0.14622 0.38723 0.76422 0.0
C400 C 0.11521 0.40944 0.72259 0.0
C401 C 0.13857 0.3309 0.75897 0.0
C402 C 0.11851 0.31393 0.73599 0.0
C403 C 0.08047 0.33693 0.69553 0.0
C404 C 0.06402 0.37683 0.67816 0.0
C405 C 0.10541 0.35298 0.71784 0.0
C406 C 0.07611 0.43269 0.68286 0.0
C407 C 0.10178 0.44872 0.7047 0.0
H408 H 0.1085 0.56467 0.93123 0.0
H409 H 0.28348 0.57555 0.94103 0.0
H410 H 0.27039 0.61881 0.9814 0.0
H411 H 0.2087 0.64694 0.01501 0.0
H412 H 0.03404 0.63241 0.00455 0.0
H413 H 0.04778 0.59908 0.96283 0.0
C414 C 0.14401 0.57801 0.94173 0.0
C415 C 0.19697 0.56713 0.93297 0.0
C416 C 0.13619 0.60206 0.96488 0.0
C417 C 0.24227 0.58325 0.94736 0.0
C418 C 0.23479 0.60792 0.97043 0.0
C419 C 0.17366 0.63653 0.00361 0.0
C420 C 0.12038 0.64185 0.01311 0.0
C421 C 0.18185 0.61628 0.97963 0.0
C422 C 0.07545 0.6293 -0.00219 0.0
C423 C 0.08325 0.60977 0.97394 0.0
H424 H 0.04309 0.72672 0.20887 0.0
H425 H 0.9082 0.66175 0.16603 0.0
H426 H 0.85934 0.63933 0.20392 0.0
H427 H 0.85932 0.63005 0.24951 0.0
H428 H 0.99235 0.69988 0.29152 0.0
H429 H 0.03744 0.72932 0.25362 0.0
C430 C 1.00224 0.70944 0.20763 0.0
C431 C 0.97984 0.69531 0.18454 0.0
C432 C 0.97439 0.69677 0.22941 0.0
C433 C 0.92701 0.67209 0.18356 0.0
C434 C 0.89902 0.65917 0.20522 0.0
C435 C 0.8979 0.65214 0.25014 0.0
C436 C 0.92296 0.66256 0.27299 0.0
C437 C 0.92313 0.66967 0.22826 0.0
C438 C 0.9726 0.69168 0.27396 0.0
C439 C 0.99831 0.70838 0.25236 0.0
H440 H 0.85096 0.42101 0.42502 0.0
H441 H 0.76495 0.55934 0.45653 0.0
H442 H 0.771 0.5177 0.49704 0.0
H443 H 0.81526 0.45191 0.52447 0.0
H444 H 0.90855 0.31756 0.49425 0.0
H445 H 0.88659 0.34872 0.45245 0.0
C446 C 0.83302 0.44183 0.44069 0.0
C447 C 0.8083 0.49379 0.43754 0.0
C448 C 0.83926 0.41914 0.46436 0.0
C449 C 0.78385 0.5192 0.45805 0.0
C450 C 0.78802 0.49579 0.48146 0.0
C451 C 0.8296 0.42841 0.50882 0.0
C452 C 0.86409 0.38282 0.51251 0.0
C453 C 0.81778 0.44718 0.48495 0.0
C454 C 0.8828 0.3534 0.49189 0.0
C455 C 0.87008 0.3711 0.46801 0.0
H456 H 0.15097 0.87644 0.09875 0.0
H457 H 0.28919 0.76927 0.11095 0.0
H458 H 0.34725 0.84924 0.11932 0.0
H459 H 0.35967 0.94927 0.12177 0.0
H460 H 0.2223 0.05734 0.10964 0.0
H461 H 0.16266 0.97714 0.10322 0.0
C462 C 0.19388 0.87049 0.1031 0.0
C463 C 0.21577 0.81669 0.10387 0.0
C464 C 0.227 0.91679 0.10819 0.0
C465 C 0.27127 0.80999 0.10999 0.0
C466 C 0.30449 0.85577 0.11488 0.0
C467 C 0.31652 0.95546 0.11798 0.0
C468 C 0.29556 1.00943 0.11615 0.0
C469 C 0.28286 0.90929 0.11391 0.0
C470 C 0.23949 1.01641 0.11135 0.0
C471 C 0.2055 0.97051 0.10743 0.0
H472 H 0.6737 0.66751 0.34327 0.0
H473 H 0.7739 0.80599 0.36521 0.0
H474 H 0.69177 0.85954 0.37407 0.0
H475 H 0.5919 0.86792 0.37447 0.0
H476 H 0.49108 0.72938 0.35337 0.0
H477 H 0.57325 0.67436 0.34587 0.0
C478 C 0.67763 0.70961 0.34975 0.0
C479 C 0.73002 0.73308 0.35311 0.0
C480 C 0.63018 0.73978 0.3553 0.0
C481 C 0.7342 0.78719 0.36214 0.0
C482 C 0.68724 0.81771 0.36734 0.0
C483 C 0.58778 0.82545 0.36849 0.0
C484 C 0.53533 0.80283 0.36443 0.0
C485 C 0.63509 0.79448 0.36392 0.0
C486 C 0.53084 0.74767 0.35683 0.0
C487 C 0.57787 0.71642 0.35229 0.0
H488 H 0.67348 0.08915 0.63112 0.0
H489 H 0.80762 0.98286 0.61151 0.0
H490 H 0.86667 0.06364 0.60601 0.0
H491 H 0.87818 0.16444 0.60412 0.0
H492 H 0.74347 0.2704 0.62346 0.0
H493 H 0.68643 0.18948 0.63152 0.0
C494 C 0.71583 0.08344 0.62588 0.0
C495 C 0.73599 0.02982 0.62163 0.0
C496 C 0.74916 0.13006 0.62238 0.0
C497 C 0.79105 1.02345 0.61502 0.0
C498 C 0.82469 0.06972 0.61168 0.0
C499 C 0.83633 0.17001 0.61011 0.0
C500 C 0.815 0.22371 0.61288 0.0
C501 C 0.80384 0.12324 0.61482 0.0
C502 C 0.76089 0.2298 0.62099 0.0
C503 C 0.72828 0.18347 0.62564 0.0
H504 H 0.45475 0.17854 0.87125 0.0
H505 H 0.55925 0.32026 0.86126 0.0
H506 H 0.47857 0.37927 0.85701 0.0
H507 H 0.37862 0.38931 0.85336 0.0
H508 H 0.27429 0.24762 0.86403 0.0
H509 H 0.35486 0.18971 0.87062 0.0
C510 C 0.46 0.22249 0.86843 0.0
C511 C 0.51312 0.2449 0.86646 0.0
C512 C 0.41347 0.25594 0.86575 0.0
C513 C 0.51901 0.30195 0.86299 0.0
C514 C 0.47282 0.33561 0.86033 0.0
C515 C 0.37338 0.3457 0.85705 0.0
C516 C 0.3203 0.32267 0.85775 0.0
C517 C 0.4199 0.31282 0.86115 0.0
C518 C 0.31449 0.26633 0.86311 0.0
C519 C 0.3606 0.23324 0.86694 0.0
H520 H 0.85097 0.58942 0.58804 0.0
H521 H 0.71815 0.48218 0.60911 0.0
H522 H 0.65944 0.56259 0.61551 0.0
H523 H 0.64795 0.66344 0.61761 0.0
H524 H 0.78165 0.77007 0.59683 0.0
H525 H 0.83814 0.68955 0.58807 0.0
C526 C 0.80897 0.58341 0.59379 0.0
C527 C 0.78909 0.52965 0.59816 0.0
C528 C 0.7759 0.62979 0.59783 0.0
C529 C 0.73446 0.5229 0.60547 0.0
C530 C 0.70104 0.56895 0.60933 0.0
C531 C 0.68948 0.66921 0.61119 0.0
C532 C 0.71065 0.72301 0.60816 0.0
C533 C 0.7217 0.62262 0.60604 0.0
C534 C 0.76434 0.72939 0.5995 0.0
C535 C 0.79665 0.68329 0.59443 0.0
H536 H 0.87681 0.16376 0.87142 0.0
H537 H 0.77433 0.30553 0.85838 0.0
H538 H 0.85541 0.36181 0.85043 0.0
H539 H 0.95502 0.37134 0.84818 0.0
H540 H 0.05822 0.23005 0.86082 0.0
H541 H 0.97695 0.17259 0.86745 0.0
C542 C 0.87212 0.2071 0.86705 0.0
C543 C 0.81935 0.23053 0.86583 0.0
C544 C 0.91898 0.23906 0.86214 0.0
C545 C 0.81426 0.28649 0.85962 0.0
C546 C 0.86065 0.31865 0.855 0.0
C547 C 0.95992 0.32783 0.85217 0.0
C548 C 1.01283 0.30508 0.85405 0.0
C549 C 0.91315 0.2954 0.85626 0.0
C550 C 1.01813 0.24857 0.8591 0.0
C551 C 0.97163 0.21585 0.86311 0.0
H552 H 0.17108 0.44989 0.09057 0.0
H553 H 0.31016 0.55747 0.10091 0.0
H554 H 0.36971 0.47706 0.1057 0.0
H555 H 0.38092 0.37667 0.10959 0.0
H556 H 0.2414 0.26939 0.09949 0.0
H557 H 0.18308 0.34962 0.09224 0.0
C558 C 0.21456 0.45593 0.09361 0.0
C559 C 0.23608 0.50983 0.09546 0.0
C560 C 0.24822 0.4096 0.09677 0.0
C561 C 0.29254 0.51663 0.09925 0.0
C562 C 0.32649 0.47061 0.10222 0.0
C563 C 0.33771 0.37065 0.10587 0.0
C564 C 0.31548 0.31685 0.10542 0.0
C565 C 0.30454 0.41697 0.10152 0.0
C566 C 0.25956 0.31013 0.10015 0.0
C567 C 0.22623 0.35604 0.09594 0.0
H568 H 0.1721 0.88584 0.36731 0.0
H569 H 0.27327 0.74374 0.35345 0.0
H570 H 0.19138 0.68648 0.34865 0.0
H571 H 0.09154 0.6763 0.34983 0.0
H572 H 0.99022 0.81841 0.36329 0.0
H573 H 0.072 0.87655 0.36635 0.0
C574 C 0.1764 0.84228 0.36332 0.0
C575 C 0.22894 0.81896 0.36108 0.0
C576 C 0.12915 0.80981 0.36031 0.0
C577 C 0.23348 0.76266 0.35547 0.0
C578 C 0.18664 0.72995 0.35266 0.0
C579 C 0.08719 0.72011 0.35324 0.0
C580 C 0.03473 0.74294 0.35646 0.0
C581 C 0.13433 0.75304 0.35521 0.0
C582 C 0.02998 0.79982 0.36066 0.0
C583 C 0.07678 0.83297 0.36258 0.0
loop_
_geom_bond_atom_site_label_1
_geom_bond_atom_site_label_2
_geom_bond_distance
_geom_bond_site_symmetry_2
_ccdc_geom_bond_type
C0 C1 1.351 . S
C0 N3 1.368 . S
C0 H5 0.931 . S
C1 C0 1.351 . S
C1 N2 1.373 . S
C1 H29 0.930 . S
N2 C1 1.373 . S
N2 C4 1.340 . S
N3 C0 1.368 . S
N3 C4 1.321 . S
N3 Co6 2.135 . S
C4 N2 1.340 . S
C4 N3 1.321 . S
C4 H28 0.930 . S
H5 C0 0.931 . S
Co6 N3 2.135 . S
Co6 N9 2.121 . S
Co6 O14 2.055 . S
Co6 O17 2.039 . S
Co6 N20 2.140 . S
C7 O8 1.227 . S
C7 O17 1.265 . S
O8 C7 1.227 . S
N9 Co6 2.121 . S
N9 C11 1.375 . S
N9 C12 1.313 . S
C10 C11 1.338 . S
C10 N13 1.377 . S
C10 H30 0.930 . S
C11 N9 1.375 . S
C11 C10 1.338 . S
C11 H15 0.931 . S
C12 N9 1.313 . S
C12 N13 1.344 . S
C12 H16 0.930 . S
N13 C10 1.377 . S
N13 C12 1.344 . S
O14 Co6 2.055 . S
O14 C18 1.253 . S
H15 C11 0.931 . S
H16 C12 0.930 . S
O17 Co6 2.039 . S
O17 C7 1.265 . S
C18 O14 1.253 . S
C18 O19 1.227 . S
O19 C18 1.227 . S
N20 Co6 2.140 . S
N20 C23 1.346 . S
N20 C24 1.345 . S
C21 C22 1.387 . S
C21 C25 1.391 . S
C22 C21 1.387 . S
C22 C23 1.369 . S
C22 H31 0.929 . S
C23 N20 1.346 . S
C23 C22 1.369 . S
C23 H26 0.928 . S
C24 N20 1.345 . S
C24 C25 1.371 . S
C24 H27 0.931 . S
C25 C21 1.391 . S
C25 C24 1.371 . S
C25 H32 0.930 . S
H26 C23 0.928 . S
H27 C24 0.931 . S
H28 C4 0.930 . S
H29 C1 0.930 . S
H30 C10 0.930 . S
H31 C22 0.929 . S
H32 C25 0.930 . S
C33 C34 1.351 . S
C33 N36 1.368 . S
C33 H38 0.931 . S
C34 C33 1.351 . S
C34 N35 1.373 . S
C34 H62 0.930 . S
N35 C34 1.373 . S
N35 C37 1.340 . S
N36 C33 1.368 . S
N36 C37 1.321 . S
N36 Co39 2.135 . S
C37 N35 1.340 . S
C37 N36 1.321 . S
C37 H61 0.930 . S
H38 C33 0.931 . S
Co39 N36 2.135 . S
Co39 N42 2.121 . S
Co39 O47 2.055 . S
Co39 O50 2.039 . S
Co39 N53 2.140 . S
C40 O41 1.227 . S
C40 O50 1.265 . S
O41 C40 1.227 . S
N42 Co39 2.121 . S
N42 C44 1.375 . S
N42 C45 1.313 . S
C43 C44 1.338 . S
C43 N46 1.377 . S
C43 H63 0.930 . S
C44 N42 1.375 . S
C44 C43 1.338 . S
C44 H48 0.931 . S
C45 N42 1.313 . S
C45 N46 1.344 . S
C45 H49 0.930 . S
N46 C43 1.377 . S
N46 C45 1.344 . S
O47 Co39 2.055 . S
O47 C51 1.253 . S
H48 C44 0.931 . S
H49 C45 0.930 . S
O50 Co39 2.039 . S
O50 C40 1.265 . S
C51 O47 1.253 . S
C51 O52 1.227 . S
O52 C51 1.227 . S
N53 Co39 2.140 . S
N53 C56 1.346 . S
N53 C57 1.345 . S
C54 C55 1.387 1_545 S
C54 C58 1.391 . S
C55 C54 1.387 1_565 S
C55 C56 1.369 . S
C55 H64 0.929 . S
C56 N53 1.346 . S
C56 C55 1.369 . S
C56 H59 0.928 . S
C57 N53 1.345 . S
C57 C58 1.371 1_565 S
C57 H60 0.931 . S
C58 C54 1.391 . S
C58 C57 1.371 1_545 S
C58 H65 0.930 . S
H59 C56 0.928 . S
H60 C57 0.931 . S
H61 C37 0.930 . S
H62 C34 0.930 . S
H63 C43 0.930 . S
H64 C55 0.929 . S
H65 C58 0.930 . S
C66 C67 1.351 . S
C66 N69 1.368 . S
C66 H71 0.931 . S
C67 C66 1.351 . S
C67 N68 1.373 . S
C67 H95 0.930 . S
N68 C67 1.373 . S
N68 C70 1.340 . S
N69 C66 1.368 . S
N69 C70 1.321 . S
N69 Co72 2.135 . S
C70 N68 1.340 . S
C70 N69 1.321 . S
C70 H94 0.930 . S
H71 C66 0.931 . S
Co72 N69 2.135 . S
Co72 N75 2.121 . S
Co72 O80 2.055 . S
Co72 O83 2.039 . S
Co72 N86 2.140 . S
C73 O74 1.227 . S
C73 O83 1.265 . S
O74 C73 1.227 . S
N75 Co72 2.121 . S
N75 C77 1.375 . S
N75 C78 1.313 . S
C76 C77 1.338 . S
C76 N79 1.377 . S
C76 H96 0.930 . S
C77 N75 1.375 . S
C77 C76 1.338 . S
C77 H81 0.931 . S
C78 N75 1.313 . S
C78 N79 1.344 . S
C78 H82 0.930 . S
N79 C76 1.377 . S
N79 C78 1.344 . S
O80 Co72 2.055 . S
O80 C84 1.253 . S
H81 C77 0.931 . S
H82 C78 0.930 . S
O83 Co72 2.039 . S
O83 C73 1.265 . S
C84 O80 1.253 . S
C84 O85 1.227 . S
O85 C84 1.227 . S
N86 Co72 2.140 . S
N86 C89 1.346 . S
N86 C90 1.345 . S
C87 C88 1.387 . S
C87 C91 1.391 . S
C88 C87 1.387 . S
C88 C89 1.369 . S
C88 H97 0.929 . S
C89 N86 1.346 . S
C89 C88 1.369 . S
C89 H92 0.928 . S
C90 N86 1.345 . S
C90 C91 1.371 . S
C90 H93 0.931 . S
C91 C87 1.391 . S
C91 C90 1.371 . S
C91 H98 0.930 . S
H92 C89 0.928 . S
H93 C90 0.931 . S
H94 C70 0.930 . S
H95 C67 0.930 . S
H96 C76 0.930 . S
H97 C88 0.929 . S
H98 C91 0.930 . S
C99 C100 1.351 . S
C99 N102 1.368 . S
C99 H104 0.931 . S
C100 C99 1.351 . S
C100 N101 1.373 . S
C100 H128 0.930 . S
N101 C100 1.373 . S
N101 C103 1.340 . S
N102 C99 1.368 . S
N102 C103 1.321 . S
N102 Co105 2.135 . S
C103 N101 1.340 . S
C103 N102 1.321 . S
C103 H127 0.930 . S
H104 C99 0.931 . S
Co105 N102 2.135 . S
Co105 N108 2.121 . S
Co105 O113 2.055 . S
Co105 O116 2.039 . S
Co105 N119 2.140 . S
C106 O107 1.227 . S
C106 O116 1.265 . S
O107 C106 1.227 . S
N108 Co105 2.121 . S
N108 C110 1.375 . S
N108 C111 1.313 . S
C109 C110 1.338 . S
C109 N112 1.377 . S
C109 H129 0.930 . S
C110 N108 1.375 . S
C110 C109 1.338 . S
C110 H114 0.931 . S
C111 N108 1.313 . S
C111 N112 1.344 . S
C111 H115 0.930 . S
N112 C109 1.377 . S
N112 C111 1.344 . S
O113 Co105 2.055 . S
O113 C117 1.253 . S
H114 C110 0.931 . S
H115 C111 0.930 . S
O116 Co105 2.039 . S
O116 C106 1.265 . S
C117 O113 1.253 . S
C117 O118 1.227 . S
O118 C117 1.227 . S
N119 Co105 2.140 . S
N119 C122 1.346 . S
N119 C123 1.345 . S
C120 C121 1.387 1_565 S
C120 C124 1.391 . S
C121 C120 1.387 1_545 S
C121 C122 1.369 . S
C121 H130 0.929 . S
C122 N119 1.346 . S
C122 C121 1.369 . S
C122 H125 0.928 . S
C123 N119 1.345 . S
C123 C124 1.371 1_545 S
C123 H126 0.931 . S
C124 C120 1.391 . S
C124 C123 1.371 1_565 S
C124 H131 0.930 . S
H125 C122 0.928 . S
H126 C123 0.931 . S
H127 C103 0.930 . S
H128 C100 0.930 . S
H129 C109 0.930 . S
H130 C121 0.929 . S
H131 C124 0.930 . S
C132 C133 1.351 . S
C132 N135 1.368 . S
C132 H137 0.931 . S
C133 C132 1.351 . S
C133 N134 1.373 . S
C133 H161 0.930 . S
N134 C133 1.373 . S
N134 C136 1.340 . S
N135 C132 1.368 . S
N135 C136 1.321 . S
N135 Co138 2.135 . S
C136 N134 1.340 . S
C136 N135 1.321 . S
C136 H160 0.930 . S
H137 C132 0.931 . S
Co138 N135 2.135 . S
Co138 N141 2.121 . S
Co138 O146 2.055 . S
Co138 O149 2.039 . S
Co138 N152 2.140 . S
C139 O140 1.227 . S
C139 O149 1.265 . S
O140 C139 1.227 . S
N141 Co138 2.121 . S
N141 C143 1.375 . S
N141 C144 1.313 . S
C142 C143 1.338 . S
C142 N145 1.377 . S
C142 H162 0.930 . S
C143 N141 1.375 . S
C143 C142 1.338 . S
C143 H147 0.931 . S
C144 N141 1.313 . S
C144 N145 1.344 . S
C144 H148 0.930 . S
N145 C142 1.377 . S
N145 C144 1.344 . S
O146 Co138 2.055 . S
O146 C150 1.253 . S
H147 C143 0.931 . S
H148 C144 0.930 . S
O149 Co138 2.039 . S
O149 C139 1.265 . S
C150 O146 1.253 . S
C150 O151 1.227 . S
O151 C150 1.227 . S
N152 Co138 2.140 . S
N152 C155 1.346 . S
N152 C156 1.345 . S
C153 C154 1.387 1_455 S
C153 C157 1.391 . S
C154 C153 1.387 1_655 S
C154 C155 1.369 . S
C154 H163 0.929 . S
C155 N152 1.346 . S
C155 C154 1.369 . S
C155 H158 0.928 . S
C156 N152 1.345 . S
C156 C157 1.371 1_655 S
C156 H159 0.931 . S
C157 C153 1.391 . S
C157 C156 1.371 1_455 S
C157 H164 0.930 . S
H158 C155 0.928 . S
H159 C156 0.931 . S
H160 C136 0.930 . S
H161 C133 0.930 . S
H162 C142 0.930 . S
H163 C154 0.929 . S
H164 C157 0.930 . S
C165 C166 1.351 . S
C165 N168 1.368 . S
C165 H170 0.931 . S
C166 C165 1.351 . S
C166 N167 1.373 . S
C166 H194 0.930 . S
N167 C166 1.373 . S
N167 C169 1.340 . S
N168 C165 1.368 . S
N168 C169 1.321 . S
N168 Co171 2.135 . S
C169 N167 1.340 . S
C169 N168 1.321 . S
C169 H193 0.930 . S
H170 C165 0.931 . S
Co171 N168 2.135 . S
Co171 N174 2.121 . S
Co171 O179 2.055 . S
Co171 O182 2.039 . S
Co171 N185 2.140 . S
C172 O173 1.227 . S
C172 O182 1.265 . S
O173 C172 1.227 . S
N174 Co171 2.121 . S
N174 C176 1.375 . S
N174 C177 1.313 . S
C175 C176 1.338 . S
C175 N178 1.377 . S
C175 H195 0.930 . S
C176 N174 1.375 . S
C176 C175 1.338 . S
C176 H180 0.931 . S
C177 N174 1.313 . S
C177 N178 1.344 . S
C177 H181 0.930 . S
N178 C175 1.377 . S
N178 C177 1.344 . S
O179 Co171 2.055 . S
O179 C183 1.253 . S
H180 C176 0.931 . S
H181 C177 0.930 . S
O182 Co171 2.039 . S
O182 C172 1.265 . S
C183 O179 1.253 . S
C183 O184 1.227 . S
O184 C183 1.227 . S
N185 Co171 2.140 . S
N185 C188 1.346 . S
N185 C189 1.345 . S
C186 C187 1.387 . S
C186 C190 1.391 . S
C187 C186 1.387 . S
C187 C188 1.369 . S
C187 H196 0.929 . S
C188 N185 1.346 . S
C188 C187 1.369 . S
C188 H191 0.928 . S
C189 N185 1.345 . S
C189 C190 1.371 . S
C189 H192 0.931 . S
C190 C186 1.391 . S
C190 C189 1.371 . S
C190 H197 0.930 . S
H191 C188 0.928 . S
H192 C189 0.931 . S
H193 C169 0.930 . S
H194 C166 0.930 . S
H195 C175 0.930 . S
H196 C187 0.929 . S
H197 C190 0.930 . S
C198 C199 1.351 . S
C198 N201 1.368 . S
C198 H203 0.931 . S
C199 C198 1.351 . S
C199 N200 1.373 . S
C199 H227 0.930 . S
N200 C199 1.373 . S
N200 C202 1.340 . S
N201 C198 1.368 . S
N201 C202 1.321 . S
N201 Co204 2.135 . S
C202 N200 1.340 . S
C202 N201 1.321 . S
C202 H226 0.930 . S
H203 C198 0.931 . S
Co204 N201 2.135 . S
Co204 N207 2.121 . S
Co204 O212 2.055 . S
Co204 O215 2.039 . S
Co204 N218 2.140 . S
C205 O206 1.227 . S
C205 O215 1.265 . S
O206 C205 1.227 . S
N207 Co204 2.121 . S
N207 C209 1.375 . S
N207 C210 1.313 . S
C208 C209 1.338 . S
C208 N211 1.377 . S
C208 H228 0.930 . S
C209 N207 1.375 . S
C209 C208 1.338 . S
C209 H213 0.931 . S
C210 N207 1.313 . S
C210 N211 1.344 . S
C210 H214 0.930 . S
N211 C208 1.377 . S
N211 C210 1.344 . S
O212 Co204 2.055 . S
O212 C216 1.253 . S
H213 C209 0.931 . S
H214 C210 0.930 . S
O215 Co204 2.039 . S
O215 C205 1.265 . S
C216 O212 1.253 . S
C216 O217 1.227 . S
O217 C216 1.227 . S
N218 Co204 2.140 . S
N218 C221 1.346 . S
N218 C222 1.345 . S
C219 C220 1.387 1_655 S
C219 C223 1.391 . S
C220 C219 1.387 1_455 S
C220 C221 1.369 . S
C220 H229 0.929 . S
C221 N218 1.346 . S
C221 C220 1.369 . S
C221 H224 0.928 . S
C222 N218 1.345 . S
C222 C223 1.371 1_455 S
C222 H225 0.931 . S
C223 C219 1.391 . S
C223 C222 1.371 1_655 S
C223 H230 0.930 . S
H224 C221 0.928 . S
H225 C222 0.931 . S
H226 C202 0.930 . S
H227 C199 0.930 . S
H228 C208 0.930 . S
H229 C220 0.929 . S
H230 C223 0.930 . S
C231 C232 1.351 . S
C231 N234 1.368 . S
C231 H236 0.931 . S
C232 C231 1.351 . S
C232 N233 1.373 . S
C232 H260 0.930 . S
N233 C232 1.373 . S
N233 C235 1.340 . S
N234 C231 1.368 . S
N234 C235 1.321 . S
N234 Co237 2.135 . S
C235 N233 1.340 . S
C235 N234 1.321 . S
C235 H259 0.930 . S
H236 C231 0.931 . S
Co237 N234 2.135 . S
Co237 N240 2.121 . S
Co237 O245 2.055 . S
Co237 O248 2.039 . S
Co237 N251 2.140 . S
C238 O239 1.227 . S
C238 O248 1.265 . S
O239 C238 1.227 . S
N240 Co237 2.121 . S
N240 C242 1.375 . S
N240 C243 1.313 . S
C241 C242 1.338 . S
C241 N244 1.377 . S
C241 H261 0.930 . S
C242 N240 1.375 . S
C242 C241 1.338 . S
C242 H246 0.931 . S
C243 N240 1.313 . S
C243 N244 1.344 . S
C243 H247 0.930 . S
N244 C241 1.377 . S
N244 C243 1.344 . S
O245 Co237 2.055 . S
O245 C249 1.253 . S
H246 C242 0.931 . S
H247 C243 0.930 . S
O248 Co237 2.039 . S
O248 C238 1.265 . S
C249 O245 1.253 . S
C249 O250 1.227 . S
O250 C249 1.227 . S
N251 Co237 2.140 . S
N251 C254 1.346 . S
N251 C255 1.345 . S
C252 C253 1.387 . S
C252 C256 1.391 . S
C253 C252 1.387 . S
C253 C254 1.369 . S
C253 H262 0.929 . S
C254 N251 1.346 . S
C254 C253 1.369 . S
C254 H257 0.928 . S
C255 N251 1.345 . S
C255 C256 1.371 . S
C255 H258 0.931 . S
C256 C252 1.391 . S
C256 C255 1.371 . S
C256 H263 0.930 . S
H257 C254 0.928 . S
H258 C255 0.931 . S
H259 C235 0.930 . S
H260 C232 0.930 . S
H261 C241 0.930 . S
H262 C253 0.929 . S
H263 C256 0.930 . S
H264 C270 0.930 . S
H265 C273 0.930 . S
H266 C274 0.930 . S
H267 C275 0.930 . S
H268 C278 0.930 . S
H269 C279 0.930 . S
C270 H264 0.930 . S
C270 C271 1.355 . S
C270 C272 1.415 1_554 S
C271 C270 1.355 . S
C271 C273 1.419 . S
C272 C270 1.415 1_556 S
C272 C277 1.425 1_556 S
C272 C279 1.409 . S
C273 H265 0.930 . S
C273 C271 1.419 . S
C273 C274 1.362 . S
C274 H266 0.930 . S
C274 C273 1.362 . S
C274 C277 1.409 . S
C275 H267 0.930 . S
C275 C276 1.355 . S
C275 C277 1.415 1_556 S
C276 C275 1.355 . S
C276 C278 1.419 . S
C277 C272 1.425 1_554 S
C277 C274 1.409 . S
C277 C275 1.415 1_554 S
C278 H268 0.930 . S
C278 C276 1.419 . S
C278 C279 1.362 . S
C279 H269 0.930 . S
C279 C272 1.409 . S
C279 C278 1.362 . S
H280 C286 0.930 . S
H281 C289 0.930 . S
H282 C290 0.930 . S
H283 C291 0.930 . S
H284 C294 0.930 . S
H285 C295 0.930 . S
C286 H280 0.930 . S
C286 C287 1.355 . S
C286 C288 1.415 . S
C287 C286 1.355 . S
C287 C289 1.419 . S
C288 C286 1.415 . S
C288 C293 1.425 . S
C288 C295 1.409 . S
C289 H281 0.930 . S
C289 C287 1.419 . S
C289 C290 1.362 . S
C290 H282 0.930 . S
C290 C289 1.362 . S
C290 C293 1.409 . S
C291 H283 0.930 . S
C291 C292 1.355 . S
C291 C293 1.415 . S
C292 C291 1.355 . S
C292 C294 1.419 . S
C293 C288 1.425 . S
C293 C290 1.409 . S
C293 C291 1.415 . S
C294 H284 0.930 . S
C294 C292 1.419 . S
C294 C295 1.362 . S
C295 H285 0.930 . S
C295 C288 1.409 . S
C295 C294 1.362 . S
H296 C302 0.930 . S
H297 C305 0.930 . S
H298 C306 0.930 . S
H299 C307 0.930 . S
H300 C310 0.930 . S
H301 C311 0.930 . S
C302 H296 0.930 . S
C302 C303 1.355 . S
C302 C304 1.415 . S
C303 C302 1.355 . S
C303 C305 1.419 . S
C304 C302 1.415 . S
C304 C309 1.425 . S
C304 C311 1.409 . S
C305 H297 0.930 . S
C305 C303 1.419 . S
C305 C306 1.362 . S
C306 H298 0.930 . S
C306 C305 1.362 . S
C306 C309 1.409 . S
C307 H299 0.930 . S
C307 C308 1.355 . S
C307 C309 1.415 . S
C308 C307 1.355 . S
C308 C310 1.419 . S
C309 C304 1.425 . S
C309 C306 1.409 . S
C309 C307 1.415 . S
C310 H300 0.930 . S
C310 C308 1.419 . S
C310 C311 1.362 . S
C311 H301 0.930 . S
C311 C304 1.409 . S
C311 C310 1.362 . S
H312 C318 0.930 . S
H313 C321 0.930 . S
H314 C322 0.930 . S
H315 C323 0.930 . S
H316 C326 0.930 . S
H317 C327 0.930 . S
C318 H312 0.930 . S
C318 C319 1.355 . S
C318 C320 1.415 . S
C319 C318 1.355 . S
C319 C321 1.419 . S
C320 C318 1.415 . S
C320 C325 1.425 . S
C320 C327 1.409 . S
C321 H313 0.930 . S
C321 C319 1.419 . S
C321 C322 1.362 . S
C322 H314 0.930 . S
C322 C321 1.362 . S
C322 C325 1.409 . S
C323 H315 0.930 . S
C323 C324 1.355 . S
C323 C325 1.415 . S
C324 C323 1.355 . S
C324 C326 1.419 . S
C325 C320 1.425 . S
C325 C322 1.409 . S
C325 C323 1.415 . S
C326 H316 0.930 . S
C326 C324 1.419 . S
C326 C327 1.362 . S
C327 H317 0.930 . S
C327 C320 1.409 . S
C327 C326 1.362 . S
H328 C334 0.930 . S
H329 C337 0.930 . S
H330 C338 0.930 1_554 S
H331 C339 0.930 . S
H332 C342 0.930 . S
H333 C343 0.933 . S
C334 H328 0.930 . S
C334 C335 1.355 . S
C334 C336 1.415 . S
C335 C334 1.355 . S
C335 C337 1.419 . S
C336 C334 1.415 . S
C336 C341 1.425 1_556 S
C336 C343 1.409 1_556 S
C337 H329 0.930 . S
C337 C335 1.419 . S
C337 C338 1.362 . S
C338 H330 0.930 1_556 S
C338 C337 1.362 . S
C338 C341 1.409 1_556 S
C339 H331 0.930 . S
C339 C340 1.355 . S
C339 C341 1.415 . S
C340 C339 1.355 . S
C340 C342 1.419 . S
C341 C336 1.425 1_554 S
C341 C338 1.409 1_554 S
C341 C339 1.415 . S
C342 H332 0.930 . S
C342 C340 1.419 . S
C342 C343 1.362 . S
C343 H333 0.933 . S
C343 C336 1.409 1_554 S
C343 C342 1.362 . S
H344 C350 0.930 . S
H345 C353 0.930 . S
H346 C354 0.930 . S
H347 C355 0.930 . S
H348 C358 0.930 . S
H349 C359 0.930 . S
C350 H344 0.930 . S
C350 C351 1.355 . S
C350 C352 1.415 . S
C351 C350 1.355 . S
C351 C353 1.419 . S
C352 C350 1.415 . S
C352 C357 1.425 . S
C352 C359 1.409 . S
C353 H345 0.930 . S
C353 C351 1.419 . S
C353 C354 1.362 . S
C354 H346 0.930 . S
C354 C353 1.362 . S
C354 C357 1.409 . S
C355 H347 0.930 . S
C355 C356 1.355 . S
C355 C357 1.415 . S
C356 C355 1.355 . S
C356 C358 1.419 . S
C357 C352 1.425 . S
C357 C354 1.409 . S
C357 C355 1.415 . S
C358 H348 0.930 . S
C358 C356 1.419 . S
C358 C359 1.362 . S
C359 H349 0.930 . S
C359 C352 1.409 . S
C359 C358 1.362 . S
H360 C366 0.930 . S
H361 C369 0.930 . S
H362 C370 0.930 . S
H363 C371 0.930 . S
H364 C374 0.930 . S
H365 C375 0.930 . S
C366 H360 0.930 . S
C366 C367 1.355 . S
C366 C368 1.415 . S
C367 C366 1.355 . S
C367 C369 1.419 . S
C368 C366 1.415 . S
C368 C373 1.425 . S
C368 C375 1.409 . S
C369 H361 0.930 . S
C369 C367 1.419 . S
C369 C370 1.362 . S
C370 H362 0.930 . S
C370 C369 1.362 . S
C370 C373 1.409 . S
C371 H363 0.930 . S
C371 C372 1.355 . S
C371 C373 1.415 . S
C372 C371 1.355 . S
C372 C374 1.419 . S
C373 C368 1.425 . S
C373 C370 1.409 . S
C373 C371 1.415 . S
C374 H364 0.930 . S
C374 C372 1.419 . S
C374 C375 1.362 . S
C375 H365 0.930 . S
C375 C368 1.409 . S
C375 C374 1.362 . S
H376 C382 0.930 . S
H377 C385 0.946 . S
H378 C386 0.930 . S
H379 C387 0.930 . S
H380 C390 0.930 . S
H381 C391 0.930 . S
C382 H376 0.930 . S
C382 C383 1.355 . S
C382 C384 1.415 . S
C383 C382 1.355 . S
C383 C385 1.401 1_565 S
C384 C382 1.415 . S
C384 C389 1.425 . S
C384 C391 1.409 . S
C385 H377 0.946 . S
C385 C383 1.401 1_545 S
C385 C386 1.364 . S
C386 H378 0.930 . S
C386 C385 1.364 . S
C386 C389 1.409 1_545 S
C387 H379 0.930 . S
C387 C388 1.355 . S
C387 C389 1.415 . S
C388 C387 1.355 . S
C388 C390 1.419 . S
C389 C384 1.425 . S
C389 C386 1.409 1_565 S
C389 C387 1.415 . S
C390 H380 0.930 . S
C390 C388 1.419 . S
C390 C391 1.362 . S
C391 H381 0.930 . S
C391 C384 1.409 . S
C391 C390 1.362 . S
H392 C398 0.930 . S
H393 C401 0.930 . S
H394 C402 0.930 . S
H395 C403 0.930 . S
H396 C406 0.930 . S
H397 C407 0.930 . S
C398 H392 0.930 . S
C398 C399 1.355 . S
C398 C400 1.415 . S
C399 C398 1.355 . S
C399 C401 1.419 . S
C400 C398 1.415 . S
C400 C405 1.425 . S
C400 C407 1.409 . S
C401 H393 0.930 . S
C401 C399 1.419 . S
C401 C402 1.362 . S
C402 H394 0.930 . S
C402 C401 1.362 . S
C402 C405 1.409 . S
C403 H395 0.930 . S
C403 C404 1.355 . S
C403 C405 1.415 . S
C404 C403 1.355 . S
C404 C406 1.419 . S
C405 C400 1.425 . S
C405 C402 1.409 . S
C405 C403 1.415 . S
C406 H396 0.930 . S
C406 C404 1.419 . S
C406 C407 1.362 . S
C407 H397 0.930 . S
C407 C400 1.409 . S
C407 C406 1.362 . S
H408 C414 0.930 . S
H409 C417 0.930 . S
H410 C418 0.930 1_554 S
H411 C419 0.930 . S
H412 C422 0.930 1_655 S
H413 C423 0.906 1_656 S
C414 H408 0.930 . S
C414 C415 1.355 . S
C414 C416 1.415 . S
C415 C414 1.355 . S
C415 C417 1.419 . S
C416 C414 1.415 . S
C416 C421 1.425 1_556 S
C416 C423 1.393 1_556 S
C417 H409 0.930 . S
C417 C415 1.419 . S
C417 C418 1.362 . S
C418 H410 0.930 1_556 S
C418 C417 1.362 . S
C418 C421 1.409 1_556 S
C419 H411 0.930 . S
C419 C420 1.355 . S
C419 C421 1.415 . S
C420 C419 1.355 . S
C420 C422 1.419 . S
C421 C416 1.425 1_554 S
C421 C418 1.409 1_554 S
C421 C419 1.415 . S
C422 H412 0.930 1_455 S
C422 C420 1.419 . S
C422 C423 1.403 . S
C423 H413 0.906 1_454 S
C423 C416 1.393 1_554 S
C423 C422 1.403 . S
H424 C430 0.930 . S
H425 C433 0.930 . S
H426 C434 0.930 . S
H427 C435 0.930 . S
H428 C438 0.930 . S
H429 C439 0.930 1_455 S
C430 H424 0.930 . S
C430 C431 1.355 . S
C430 C432 1.415 . S
C431 C430 1.355 . S
C431 C433 1.419 . S
C432 C430 1.415 . S
C432 C437 1.425 . S
C432 C439 1.409 . S
C433 H425 0.930 . S
C433 C431 1.419 . S
C433 C434 1.362 . S
C434 H426 0.930 . S
C434 C433 1.362 . S
C434 C437 1.409 . S
C435 H427 0.930 . S
C435 C436 1.355 . S
C435 C437 1.415 . S
C436 C435 1.355 . S
C436 C438 1.419 . S
C437 C432 1.425 . S
C437 C434 1.409 . S
C437 C435 1.415 . S
C438 H428 0.930 . S
C438 C436 1.419 . S
C438 C439 1.362 . S
C439 H429 0.930 1_655 S
C439 C432 1.409 . S
C439 C438 1.362 . S
H440 C446 0.930 . S
H441 C449 0.930 . S
H442 C450 0.930 . S
H443 C451 0.930 . S
H444 C454 0.930 . S
H445 C455 0.930 . S
C446 H440 0.930 . S
C446 C447 1.355 . S
C446 C448 1.415 . S
C447 C446 1.355 . S
C447 C449 1.419 . S
C448 C446 1.415 . S
C448 C453 1.425 . S
C448 C455 1.409 . S
C449 H441 0.930 . S
C449 C447 1.419 . S
C449 C450 1.362 . S
C450 H442 0.930 . S
C450 C449 1.362 . S
C450 C453 1.409 . S
C451 H443 0.930 . S
C451 C452 1.355 . S
C451 C453 1.415 . S
C452 C451 1.355 . S
C452 C454 1.419 . S
C453 C448 1.425 . S
C453 C450 1.409 . S
C453 C451 1.415 . S
C454 H444 0.930 . S
C454 C452 1.419 . S
C454 C455 1.362 . S
C455 H445 0.930 . S
C455 C448 1.409 . S
C455 C454 1.362 . S
H456 C462 0.930 . S
H457 C465 0.930 . S
H458 C466 0.930 . S
H459 C467 0.930 . S
H460 C470 0.930 . S
H461 C471 0.930 . S
C462 H456 0.930 . S
C462 C463 1.355 . S
C462 C464 1.415 . S
C463 C462 1.355 . S
C463 C465 1.419 . S
C464 C462 1.415 . S
C464 C469 1.425 . S
C464 C471 1.409 . S
C465 H457 0.930 . S
C465 C463 1.419 . S
C465 C466 1.362 . S
C466 H458 0.930 . S
C466 C465 1.362 . S
C466 C469 1.409 . S
C467 H459 0.930 . S
C467 C468 1.355 . S
C467 C469 1.415 . S
C468 C467 1.355 . S
C468 C470 1.419 . S
C469 C464 1.425 . S
C469 C466 1.409 . S
C469 C467 1.415 . S
C470 H460 0.930 . S
C470 C468 1.419 . S
C470 C471 1.362 . S
C471 H461 0.930 . S
C471 C464 1.409 . S
C471 C470 1.362 . S
H472 C478 0.930 . S
H473 C481 0.930 . S
H474 C482 0.930 . S
H475 C483 0.930 . S
H476 C486 0.930 . S
H477 C487 0.930 . S
C478 H472 0.930 . S
C478 C479 1.355 . S
C478 C480 1.415 . S
C479 C478 1.355 . S
C479 C481 1.419 . S
C480 C478 1.415 . S
C480 C485 1.425 . S
C480 C487 1.409 . S
C481 H473 0.930 . S
C481 C479 1.419 . S
C481 C482 1.362 . S
C482 H474 0.930 . S
C482 C481 1.362 . S
C482 C485 1.409 . S
C483 H475 0.930 . S
C483 C484 1.355 . S
C483 C485 1.415 . S
C484 C483 1.355 . S
C484 C486 1.419 . S
C485 C480 1.425 . S
C485 C482 1.409 . S
C485 C483 1.415 . S
C486 H476 0.930 . S
C486 C484 1.419 . S
C486 C487 1.362 . S
C487 H477 0.930 . S
C487 C480 1.409 . S
C487 C486 1.362 . S
H488 C494 0.930 . S
H489 C497 0.930 . S
H490 C498 0.930 . S
H491 C499 0.930 . S
H492 C502 0.930 . S
H493 C503 0.930 . S
C494 H488 0.930 . S
C494 C495 1.355 . S
C494 C496 1.415 . S
C495 C494 1.355 . S
C495 C497 1.419 . S
C496 C494 1.415 . S
C496 C501 1.425 . S
C496 C503 1.409 . S
C497 H489 0.930 . S
C497 C495 1.419 . S
C497 C498 1.362 . S
C498 H490 0.930 . S
C498 C497 1.362 . S
C498 C501 1.409 . S
C499 H491 0.930 . S
C499 C500 1.355 . S
C499 C501 1.415 . S
C500 C499 1.355 . S
C500 C502 1.419 . S
C501 C496 1.425 . S
C501 C498 1.409 . S
C501 C499 1.415 . S
C502 H492 0.930 . S
C502 C500 1.419 . S
C502 C503 1.362 . S
C503 H493 0.930 . S
C503 C496 1.409 . S
C503 C502 1.362 . S
H504 C510 0.930 . S
H505 C513 0.930 . S
H506 C514 0.930 . S
H507 C515 0.930 . S
H508 C518 0.930 . S
H509 C519 0.930 . S
C510 H504 0.930 . S
C510 C511 1.355 . S
C510 C512 1.415 . S
C511 C510 1.355 . S
C511 C513 1.419 . S
C512 C510 1.415 . S
C512 C517 1.425 . S
C512 C519 1.409 . S
C513 H505 0.930 . S
C513 C511 1.419 . S
C513 C514 1.362 . S
C514 H506 0.930 . S
C514 C513 1.362 . S
C514 C517 1.409 . S
C515 H507 0.930 . S
C515 C516 1.355 . S
C515 C517 1.415 . S
C516 C515 1.355 . S
C516 C518 1.419 . S
C517 C512 1.425 . S
C517 C514 1.409 . S
C517 C515 1.415 . S
C518 H508 0.930 . S
C518 C516 1.419 . S
C518 C519 1.362 . S
C519 H509 0.930 . S
C519 C512 1.409 . S
C519 C518 1.362 . S
H520 C526 0.930 . S
H521 C529 0.930 . S
H522 C530 0.930 . S
H523 C531 0.930 . S
H524 C534 0.930 . S
H525 C535 0.930 . S
C526 H520 0.930 . S
C526 C527 1.355 . S
C526 C528 1.415 . S
C527 C526 1.355 . S
C527 C529 1.419 . S
C528 C526 1.415 . S
C528 C533 1.425 . S
C528 C535 1.409 . S
C529 H521 0.930 . S
C529 C527 1.419 . S
C529 C530 1.362 . S
C530 H522 0.930 . S
C530 C529 1.362 . S
C530 C533 1.409 . S
C531 H523 0.930 . S
C531 C532 1.355 . S
C531 C533 1.415 . S
C532 C531 1.355 . S
C532 C534 1.419 . S
C533 C528 1.425 . S
C533 C530 1.409 . S
C533 C531 1.415 . S
C534 H524 0.930 . S
C534 C532 1.419 . S
C534 C535 1.362 . S
C535 H525 0.930 . S
C535 C528 1.409 . S
C535 C534 1.362 . S
H536 C542 0.930 . S
H537 C545 0.930 . S
H538 C546 0.930 . S
H539 C547 0.930 . S
H540 C550 0.930 1_455 S
H541 C551 0.930 . S
C542 H536 0.930 . S
C542 C543 1.355 . S
C542 C544 1.415 . S
C543 C542 1.355 . S
C543 C545 1.419 . S
C544 C542 1.415 . S
C544 C549 1.425 . S
C544 C551 1.409 . S
C545 H537 0.930 . S
C545 C543 1.419 . S
C545 C546 1.362 . S
C546 H538 0.930 . S
C546 C545 1.362 . S
C546 C549 1.409 . S
C547 H539 0.930 . S
C547 C548 1.355 . S
C547 C549 1.415 . S
C548 C547 1.355 . S
C548 C550 1.419 . S
C549 C544 1.425 . S
C549 C546 1.409 . S
C549 C547 1.415 . S
C550 H540 0.930 1_655 S
C550 C548 1.419 . S
C550 C551 1.362 . S
C551 H541 0.930 . S
C551 C544 1.409 . S
C551 C550 1.362 . S
H552 C558 0.930 . S
H553 C561 0.930 . S
H554 C562 0.930 . S
H555 C563 0.930 . S
H556 C566 0.930 . S
H557 C567 0.930 . S
C558 H552 0.930 . S
C558 C559 1.355 . S
C558 C560 1.415 . S
C559 C558 1.355 . S
C559 C561 1.419 . S
C560 C558 1.415 . S
C560 C565 1.425 . S
C560 C567 1.409 . S
C561 H553 0.930 . S
C561 C559 1.419 . S
C561 C562 1.362 . S
C562 H554 0.930 . S
C562 C561 1.362 . S
C562 C565 1.409 . S
C563 H555 0.930 . S
C563 C564 1.355 . S
C563 C565 1.415 . S
C564 C563 1.355 . S
C564 C566 1.419 . S
C565 C560 1.425 . S
C565 C562 1.409 . S
C565 C563 1.415 . S
C566 H556 0.930 . S
C566 C564 1.419 . S
C566 C567 1.362 . S
C567 H557 0.930 . S
C567 C560 1.409 . S
C567 C566 1.362 . S
H568 C574 0.930 . S
H569 C577 0.930 . S
H570 C578 0.930 . S
H571 C579 0.930 . S
H572 C582 0.930 1_655 S
H573 C583 0.930 . S
C574 H568 0.930 . S
C574 C575 1.355 . S
C574 C576 1.415 . S
C575 C574 1.355 . S
C575 C577 1.419 . S
C576 C574 1.415 . S
C576 C581 1.425 . S
C576 C583 1.409 . S
C577 H569 0.930 . S
C577 C575 1.419 . S
C577 C578 1.362 . S
C578 H570 0.930 . S
C578 C577 1.362 . S
C578 C581 1.409 . S
C579 H571 0.930 . S
C579 C580 1.355 . S
C579 C581 1.415 . S
C580 C579 1.355 . S
C580 C582 1.419 . S
C581 C576 1.425 . S
C581 C578 1.409 . S
C581 C579 1.415 . S
C582 H572 0.930 1_455 S
C582 C580 1.419 . S
C582 C583 1.362 . S
C583 H573 0.930 . S
C583 C576 1.409 . S
C583 C582 1.362 . S
C271 N2 0.501 . S
C276 N167 0.494 . S
C287 N200 0.526 . S
C292 N35 0.452 . S
C303 N233 0.523 . S
C308 N68 0.459 . S
C319 N134 0.470 . S
C324 N101 0.518 . S
C335 N112 1.428 . S
C340 C21 1.389 . S
C351 C54 1.358 . S
C356 N13 1.408 . S
C367 N46 1.327 . S
C372 C87 1.318 . S
C383 C120 1.294 . S
C388 N79 1.335 . S
C399 N178 1.378 . S
C404 C153 1.382 . S
C415 C186 1.384 . S
C420 N211 1.425 . S
C431 C219 1.375 . S
C436 N244 1.371 . S
C447 C252 1.341 . S
C452 N145 1.393 . S
C463 C205 1.760 . S
C468 C18 1.848 1_565 S
C479 C238 1.767 . S
C484 C51 1.858 . S
C495 C84 1.863 1_545 S
C500 C139 1.815 . S
C511 C117 1.854 . S
C516 C172 1.758 . S
C527 C150 1.850 . S
C532 C73 1.797 . S
C543 C106 1.791 . S
C548 C183 1.863 1_655 S
C559 C216 1.856 . S
C564 C7 1.761 . S
C575 C40 1.777 . S
C580 C249 1.861 1_455 S
