# Generated by pormake.
# Topology crb, (4)-cn, num edge types: 1
# Building blocks:
#     Node 0, Type 0, BuildingBlock: NAHDIM_clean_sbu_0, # of connection points: 4
#     Node 1, Type 0, BuildingBlock: NAHDIM_clean_sbu_0, # of connection points: 4
#     Node 2, Type 0, BuildingBlock: NAHDIM_clean_sbu_0, # of connection points: 4
#     Node 3, Type 0, BuildingBlock: NAHDIM_clean_sbu_0, # of connection points: 4
#     Node 4, Type 0, BuildingBlock: NAHDIM_clean_sbu_0, # of connection points: 4
#     Node 5, Type 0, BuildingBlock: NAHDIM_clean_sbu_0, # of connection points: 4
#     Node 6, Type 0, BuildingBlock: NAHDIM_clean_sbu_0, # of connection points: 4
#     Node 7, Type 0, BuildingBlock: NAHDIM_clean_sbu_0, # of connection points: 4
#     Edge 8, Type (0, 0), BuildingBlock: EZIPEK_clean_linker_0, # of connection points: 2
#     Edge 9, Type (0, 0), BuildingBlock: EZIPEK_clean_linker_0, # of connection points: 2
#     Edge 10, Type (0, 0), BuildingBlock: EZIPEK_clean_linker_0, # of connection points: 2
#     Edge 11, Type (0, 0), BuildingBlock: EZIPEK_clean_linker_0, # of connection points: 2
#     Edge 12, Type (0, 0), BuildingBlock: EZIPEK_clean_linker_0, # of connection points: 2
#     Edge 13, Type (0, 0), BuildingBlock: EZIPEK_clean_linker_0, # of connection points: 2
#     Edge 14, Type (0, 0), BuildingBlock: EZIPEK_clean_linker_0, # of connection points: 2
#     Edge 15, Type (0, 0), BuildingBlock: EZIPEK_clean_linker_0, # of connection points: 2
#     Edge 16, Type (0, 0), BuildingBlock: EZIPEK_clean_linker_0, # of connection points: 2
#     Edge 17, Type (0, 0), BuildingBlock: EZIPEK_clean_linker_0, # of connection points: 2
#     Edge 18, Type (0, 0), BuildingBlock: EZIPEK_clean_linker_0, # of connection points: 2
#     Edge 19, Type (0, 0), BuildingBlock: EZIPEK_clean_linker_0, # of connection points: 2
#     Edge 20, Type (0, 0), BuildingBlock: EZIPEK_clean_linker_0, # of connection points: 2
#     Edge 21, Type (0, 0), BuildingBlock: EZIPEK_clean_linker_0, # of connection points: 2
#     Edge 22, Type (0, 0), BuildingBlock: EZIPEK_clean_linker_0, # of connection points: 2
#     Edge 23, Type (0, 0), BuildingBlock: EZIPEK_clean_linker_0, # of connection points: 2
# Relax obj value: 0.033
# Max RMSD: 0.066
# Mean RMSD: 0.066
data_MOF--net-crb--node1-NAHDIM_clean_sbu_0--edge1-EZIPEK_clean_linker_0
_symmetry_space_group_name_H-M    P1
_symmetry_Int_Tables_number       1
_symmetry_cell_setting            triclinic
loop_
_symmetry_equiv_pos_as_xyz
'x, y, z'
_cell_length_a     30.694859
_cell_length_b     32.410083
_cell_length_c     18.333252
_cell_angle_alpha  89.959128
_cell_angle_beta   90.086905
_cell_angle_gamma 89.720768
loop_
_atom_site_label
_atom_site_type_symbol
_atom_site_fract_x
_atom_site_fract_y
_atom_site_fract_z
_atom_type_partial_charge
C0 C 0.30767 0.27725 0.18669 0.0
O1 O 0.34996 0.27209 0.1803 0.0
O2 O 0.38095 0.31497 0.05672 0.0
Zn3 Zn 0.31602 0.32377 0.053 0.0
O4 O 0.29037 0.29354 0.96832 0.0
C5 C 0.32749 0.40964 0.07988 0.0
O6 O 0.35889 0.39535 0.1217 0.0
O7 O 0.28725 0.29961 0.14106 0.0
C8 C 0.28061 0.31026 0.90788 0.0
O9 O 0.28906 0.34947 0.89688 0.0
C10 C 0.40445 0.32082 0.00077 0.0
O11 O 0.38617 0.33168 0.9388 0.0
O12 O 0.30327 0.38465 0.04543 0.0
C13 C 0.70587 0.26597 0.90029 0.0
O14 O 0.67176 0.24661 0.92636 0.0
O15 O 0.61893 0.31593 0.99197 0.0
Zn16 Zn 0.68319 0.32436 0.01158 0.0
O17 O 0.70289 0.29518 0.10394 0.0
C18 C 0.6688 0.41061 0.04769 0.0
O19 O 0.63665 0.3957 0.08656 0.0
O20 O 0.71721 0.3002 0.928 0.0
C21 C 0.71427 0.31418 0.16146 0.0
O22 O 0.71333 0.35463 0.16277 0.0
C23 C 0.59092 0.31457 0.04284 0.0
O24 O 0.60373 0.31609 0.1111 0.0
O25 O 0.69432 0.38605 0.01425 0.0
C26 C 0.68928 0.72229 0.18517 0.0
O27 O 0.64697 0.72786 0.18026 0.0
O28 O 0.61437 0.6851 0.05777 0.0
Zn29 Zn 0.67917 0.67421 0.05276 0.0
O30 O 0.70653 0.70225 0.9668 0.0
C31 C 0.66682 0.58803 0.01726 0.0
O32 O 0.63591 0.60272 0.97492 0.0
O33 O 0.70881 0.69961 0.13909 0.0
C34 C 0.71242 0.6868 0.90403 0.0
O35 O 0.69843 0.64951 0.88948 0.0
C36 C 0.59034 0.68977 0.00186 0.0
O37 O 0.60767 0.68842 0.93647 0.0
O38 O 0.69056 0.61271 0.05347 0.0
C39 C 0.29992 0.7246 0.88613 0.0
O40 O 0.33961 0.7374 0.89962 0.0
O41 O 0.38156 0.67523 -0.00237 0.0
Zn42 Zn 0.31649 0.66917 0.00796 0.0
O43 O 0.29765 0.69456 0.10305 0.0
C44 C 0.32306 0.58708 0.05941 0.0
O45 O 0.34721 0.6058 0.10825 0.0
O46 O 0.28363 0.69595 0.92463 0.0
C47 C 0.26058 0.68652 0.13011 0.0
O48 O 0.23409 0.66153 0.0955 0.0
C49 C 0.40314 0.70547 0.02262 0.0
O50 O 0.38288 0.73604 0.05535 0.0
O51 O 0.30444 0.60815 0.00979 0.0
C52 C 0.8109 0.78018 0.69321 0.0
O53 O 0.85331 0.78451 0.69846 0.0
O54 O 0.88503 0.8064 0.5576 0.0
Zn55 Zn 0.82066 0.81995 0.55255 0.0
O56 O 0.79193 0.79453 0.46526 0.0
C57 C 0.83625 0.90628 0.52229 0.0
O58 O 0.86863 0.8915 0.48344 0.0
O59 O 0.79077 0.79409 0.63786 0.0
C60 C 0.79121 0.80902 0.40097 0.0
O61 O 0.81195 0.84329 0.38592 0.0
C62 C 0.9096 0.8023 0.50234 0.0
O63 O 0.89309 0.80571 0.43651 0.0
O64 O 0.81087 0.88166 0.55525 0.0
C65 C 0.20974 0.76017 0.4047 0.0
O66 O 0.2046 0.73685 0.46264 0.0
O67 O 0.11729 0.81755 0.50863 0.0
Zn68 Zn 0.18239 0.82403 0.5032 0.0
O69 O 0.21288 0.79629 0.58771 0.0
C70 C 0.16897 0.90953 0.53522 0.0
O71 O 0.13545 0.89441 0.57052 0.0
O72 O 0.20278 0.79877 0.40893 0.0
C73 C 0.20159 0.80237 0.65347 0.0
O74 O 0.1688 0.8272 0.66793 0.0
C75 C 0.09668 0.78447 0.52156 0.0
O76 O 0.11807 0.75011 0.5349 0.0
O77 O 0.19526 0.88514 0.50312 0.0
C78 C 0.18952 0.21092 0.69582 0.0
O79 O 0.14797 0.20237 0.70311 0.0
O80 O 0.11573 0.18531 0.55885 0.0
Zn81 Zn 0.18044 0.17336 0.55324 0.0
O82 O 0.20833 0.19998 0.46624 0.0
C83 C 0.16739 0.08728 0.51962 0.0
O84 O 0.136 0.10223 0.47854 0.0
O85 O 0.20968 0.20003 0.63857 0.0
C86 C 0.20854 0.18682 0.40109 0.0
O87 O 0.18783 0.1528 0.38428 0.0
C88 C 0.09096 0.19143 0.50427 0.0
O89 O 0.1073 0.19111 0.43815 0.0
O90 O 0.19154 0.11177 0.55546 0.0
C91 C 0.78564 0.23298 0.41624 0.0
O92 O 0.79335 0.25603 0.47366 0.0
O93 O 0.88269 0.176 0.51255 0.0
Zn94 Zn 0.81732 0.16889 0.51068 0.0
O95 O 0.78763 0.19469 0.59782 0.0
C96 C 0.83107 0.08392 0.54438 0.0
O97 O 0.8623 0.09978 0.58433 0.0
O98 O 0.79335 0.19447 0.41881 0.0
C99 C 0.80332 0.19348 0.66195 0.0
O100 O 0.84085 0.17508 0.67371 0.0
C101 C 0.90386 0.20797 0.53081 0.0
O102 O 0.88302 0.24125 0.55241 0.0
O103 O 0.80573 0.10773 0.50885 0.0
C104 C 0.30542 0.47842 0.13043 0.0
C105 C 0.32167 0.45471 0.0713 0.0
C106 C 0.33737 0.51786 0.0027 0.0
C107 C 0.31967 0.54156 0.06077 0.0
N108 N 0.27917 0.54494 0.17306 0.0
N109 N 0.34588 0.45068 0.94629 0.0
C110 C 0.30147 0.52196 0.12277 0.0
C111 C 0.33503 0.47409 0.00565 0.0
N112 N 0.29426 0.45931 0.19422 0.0
N113 N 0.35893 0.53704 0.947 0.0
H114 H 0.34668 0.41853 0.94714 0.0
H115 H 0.35096 0.46295 0.89452 0.0
H116 H 0.36192 0.56899 0.94299 0.0
H117 H 0.37705 0.52135 0.90779 0.0
H118 H 0.28733 0.47508 0.24229 0.0
H119 H 0.29416 0.4273 0.20036 0.0
H120 H 0.2614 0.53225 0.21578 0.0
H121 H 0.27516 0.57684 0.16851 0.0
C122 C 0.4725 0.28074 0.02924 0.0
C123 C 0.45247 0.31827 0.00707 0.0
C124 C 0.52413 0.3507 -0.00427 0.0
C125 C 0.54376 0.3147 0.02574 0.0
N126 N 0.53703 0.24633 0.07644 0.0
N127 N 0.45812 0.39115 0.98179 0.0
C128 C 0.51801 0.27997 0.04422 0.0
C129 C 0.47798 0.35378 -0.00697 0.0
N130 N 0.4483 0.24548 0.03319 0.0
N131 N 0.54942 0.38217 0.97016 0.0
H132 H 0.42441 0.39513 0.98152 0.0
H133 H 0.4749 0.41897 0.97974 0.0
H134 H 0.58326 0.38225 0.97365 0.0
H135 H 0.53705 0.40684 0.94001 0.0
H136 H 0.46167 0.2163 0.0417 0.0
H137 H 0.41502 0.24478 0.0216 0.0
H138 H 0.51943 0.22225 0.09949 0.0
H139 H 0.57062 0.24346 0.08385 0.0
C140 C 0.67283 0.47431 0.96936 0.0
C141 C 0.67316 0.45592 0.03973 0.0
C142 C 0.66841 0.5244 0.09585 0.0
C143 C 0.67192 0.5428 0.02581 0.0
N144 N 0.68793 0.5353 0.8977 0.0
N145 N 0.68152 0.46379 0.16991 0.0
C146 C 0.6774 0.51774 0.96308 0.0
C147 C 0.67416 0.4811 0.103 0.0
N148 N 0.66544 0.45087 0.90864 0.0
N149 N 0.65704 0.54772 0.15505 0.0
H150 H 0.68664 0.43225 0.17726 0.0
H151 H 0.68698 0.48114 0.21683 0.0
H152 H 0.65096 0.57934 0.15228 0.0
H153 H 0.64938 0.53499 0.2056 0.0
H154 H 0.66019 0.46355 0.85711 0.0
H155 H 0.66013 0.41916 0.91039 0.0
H156 H 0.69661 0.51813 0.8519 0.0
H157 H 0.69241 0.56696 0.8913 0.0
C158 C 0.47538 0.73273 0.98006 0.0
C159 C 0.45132 0.70375 0.02147 0.0
C160 C 0.51809 0.6649 0.04809 0.0
C161 C 0.54265 0.69516 0.01031 0.0
N162 N 0.54604 0.76231 0.95367 0.0
N163 N 0.4507 0.64866 0.10988 0.0
C164 C 0.52168 0.73039 0.97999 0.0
C165 C 0.47297 0.6717 0.05993 0.0
N166 N 0.45401 0.76161 0.93887 0.0
N167 N 0.53726 0.62875 0.06983 0.0
H168 H 0.41789 0.65368 0.12175 0.0
H169 H 0.46572 0.62766 0.14498 0.0
H170 H 0.57012 0.62206 0.06182 0.0
H171 H 0.51975 0.60375 0.08989 0.0
H172 H 0.46952 0.78039 0.9009 0.0
H173 H 0.42021 0.76483 0.93868 0.0
H174 H 0.53276 0.79056 0.93785 0.0
H175 H 0.58002 0.7621 0.954 0.0
C176 C 0.82675 0.97565 0.46401 0.0
C177 C 0.83018 0.95154 0.52838 0.0
C178 C 0.82414 0.01429 0.60226 0.0
C179 C 0.82743 0.03851 0.53806 0.0
N180 N 0.83938 0.04198 0.40781 0.0
N181 N 0.839 0.9484 0.65937 0.0
C182 C 0.83045 0.0192 0.46874 0.0
C183 C 0.83039 0.9709 0.59785 0.0
N184 N 0.81882 0.95706 0.39847 0.0
N185 N 0.81404 0.03262 0.66723 0.0
H186 H 0.84503 0.91673 0.65876 0.0
H187 H 0.84425 0.96178 0.71026 0.0
H188 H 0.80836 0.06425 0.67218 0.0
H189 H 0.80693 0.01603 0.71439 0.0
H190 H 0.81166 0.97347 0.35101 0.0
H191 H 0.81482 0.92529 0.39312 0.0
H192 H 0.8467 0.02875 0.35749 0.0
H193 H 0.84372 0.07384 0.40862 0.0
C194 C 0.02426 0.76051 0.47327 0.0
C195 C 0.04844 0.78549 0.52213 0.0
C196 C 0.98183 0.8224 0.55675 0.0
C197 C 0.95709 0.79542 0.51198 0.0
N198 N 0.9537 0.73244 0.44196 0.0
N199 N 0.04883 0.83263 0.62385 0.0
C200 C 0.97799 0.76253 0.47448 0.0
C201 C 0.02675 0.8141 0.56808 0.0
N202 N 0.04529 0.7364 0.42318 0.0
N203 N 0.96329 0.85727 0.58527 0.0
H204 H 0.08153 0.82642 0.63505 0.0
H205 H 0.03363 0.85062 0.66351 0.0
H206 H 0.93087 0.8656 0.57682 0.0
H207 H 0.98122 0.88015 0.61138 0.0
H208 H 0.0292 0.72121 0.38102 0.0
H209 H 0.07912 0.73442 0.41953 0.0
H210 H 0.96725 0.70565 0.42009 0.0
H211 H 0.91973 0.73212 0.44355 0.0
C212 C 0.17981 0.01874 0.46018 0.0
C213 C 0.17356 0.04199 0.52486 0.0
C214 C 0.17542 0.97817 0.5966 0.0
C215 C 0.17457 0.95487 0.53115 0.0
N216 N 0.16944 0.95332 0.3995 0.0
N217 N 0.15931 0.04353 0.6545 0.0
C218 C 0.17543 0.97516 0.46247 0.0
C219 C 0.17011 0.02171 0.59328 0.0
N220 N 0.19093 0.03822 0.39681 0.0
N221 N 0.18221 0.95876 0.66189 0.0
H222 H 0.15414 0.07533 0.65456 0.0
H223 H 0.1516 0.02957 0.70399 0.0
H224 H 0.1871 0.92696 0.66617 0.0
H225 H 0.18744 0.97455 0.71057 0.0
H226 H 0.20013 0.02248 0.34971 0.0
H227 H 0.19545 0.07003 0.39355 0.0
H228 H 0.16488 0.96729 0.34885 0.0
H229 H 0.16494 0.92148 0.39829 0.0
C230 C 0.97591 0.23457 0.48508 0.0
C231 C 0.95218 0.20664 0.52933 0.0
C232 C 0.01917 0.16776 0.55481 0.0
C233 C 0.04345 0.19738 0.515 0.0
N234 N 0.04624 0.26411 0.45669 0.0
N235 N 0.953 0.15332 0.62121 0.0
C236 C 0.0222 0.23234 0.48432 0.0
C237 C 0.97438 0.17523 0.5687 0.0
N238 N 0.95435 0.26197 0.44112 0.0
N239 N 0.0381 0.13145 0.57632 0.0
H240 H 0.92054 0.15888 0.63463 0.0
H241 H 0.96864 0.13294 0.6567 0.0
H242 H 0.07053 0.12396 0.56605 0.0
H243 H 0.02049 0.10697 0.59812 0.0
H244 H 0.96986 0.27973 0.40163 0.0
H245 H 0.92051 0.26449 0.43957 0.0
H246 H 0.03261 0.29215 0.44041 0.0
H247 H 0.08022 0.26413 0.45682 0.0
C248 C 0.26587 0.18907 0.3038 0.0
C249 C 0.23329 0.20963 0.34503 0.0
C250 C 0.25394 0.27544 0.28946 0.0
C251 C 0.28297 0.25412 0.24244 0.0
N252 N 0.30876 0.18916 0.19345 0.0
N253 N 0.19009 0.27097 0.36623 0.0
C254 C 0.28685 0.21049 0.24637 0.0
C255 C 0.22554 0.25248 0.33488 0.0
N256 N 0.27824 0.14969 0.32124 0.0
N257 N 0.25452 0.31757 0.29274 0.0
H258 H 0.16767 0.25498 0.39808 0.0
H259 H 0.18048 0.30114 0.35458 0.0
H260 H 0.27567 0.33552 0.26169 0.0
H261 H 0.23716 0.33446 0.33143 0.0
H262 H 0.30502 0.13503 0.29767 0.0
H263 H 0.26471 0.13313 0.36432 0.0
H264 H 0.30859 0.15707 0.18998 0.0
H265 H 0.32321 0.20331 0.14858 0.0
C266 C 0.7069 0.26296 0.26402 0.0
C267 C 0.73298 0.29122 0.22422 0.0
C268 C 0.7943 0.27932 0.30801 0.0
C269 C 0.76794 0.25188 0.34884 0.0
N270 N 0.69861 0.21987 0.37177 0.0
N271 N 0.80358 0.31986 0.1978 0.0
C272 C 0.72423 0.24383 0.32789 0.0
C273 C 0.77722 0.29786 0.24362 0.0
N274 N 0.66568 0.25423 0.24029 0.0
N275 N 0.83555 0.28808 0.33162 0.0
H276 H 0.79265 0.33288 0.14902 0.0
H277 H 0.83712 0.32249 0.20424 0.0
H278 H 0.85032 0.27294 0.37539 0.0
H279 H 0.8546 0.31172 0.31058 0.0
H280 H 0.64647 0.23067 0.26108 0.0
H281 H 0.65098 0.26931 0.19651 0.0
H282 H 0.66529 0.21592 0.36469 0.0
H283 H 0.71011 0.20545 0.41893 0.0
C284 C 0.77325 0.74458 0.33206 0.0
C285 C 0.76603 0.78734 0.34395 0.0
C286 C 0.71172 0.7882 0.24612 0.0
C287 C 0.71494 0.74459 0.24085 0.0
N288 N 0.74289 0.6803 0.28898 0.0
N289 N 0.72168 0.84806 0.32276 0.0
C290 C 0.7441 0.72245 0.28666 0.0
C291 C 0.73343 0.80876 0.30387 0.0
N292 N 0.80885 0.7254 0.36179 0.0
N293 N 0.68964 0.81033 0.19427 0.0
H294 H 0.73569 0.86398 0.36618 0.0
H295 H 0.69494 0.86329 0.30002 0.0
H296 H 0.67459 0.79678 0.14933 0.0
H297 H 0.69022 0.84244 0.19172 0.0
H298 H 0.81796 0.69527 0.34885 0.0
H299 H 0.83188 0.74083 0.39337 0.0
H300 H 0.7604 0.66288 0.32688 0.0
H301 H 0.7211 0.66291 0.25815 0.0
C302 C 0.19489 0.74496 0.27286 0.0
C303 C 0.22275 0.74136 0.33443 0.0
C304 C 0.27286 0.69793 0.26396 0.0
C305 C 0.24741 0.70519 0.20047 0.0
N306 N 0.1885 0.74186 0.14133 0.0
N307 N 0.29198 0.72069 0.38559 0.0
C308 C 0.20953 0.7304 0.204 0.0
C309 C 0.26279 0.71953 0.32923 0.0
N310 N 0.15376 0.76074 0.28065 0.0
N311 N 0.30556 0.66915 0.26283 0.0
H312 H 0.28611 0.73665 0.434 0.0
H313 H 0.32361 0.70911 0.38176 0.0
H314 H 0.31342 0.65205 0.21652 0.0
H315 H 0.32208 0.65937 0.30944 0.0
H316 H 0.13044 0.75994 0.23935 0.0
H317 H 0.14145 0.77108 0.33041 0.0
H318 H 0.16357 0.76378 0.14004 0.0
H319 H 0.1986 0.73248 0.08962 0.0
C320 C 0.24625 0.80692 0.76796 0.0
C321 C 0.22611 0.78233 0.71362 0.0
C322 C 0.25744 0.71999 0.7691 0.0
C323 C 0.27394 0.74424 0.82728 0.0
N324 N 0.27635 0.80968 0.88995 0.0
N325 N 0.20547 0.71491 0.67004 0.0
C326 C 0.2662 0.78744 0.82896 0.0
C327 C 0.22973 0.73866 0.71625 0.0
N328 N 0.24809 0.84882 0.75982 0.0
N329 N 0.26968 0.67955 0.76247 0.0
H330 H 0.18422 0.72736 0.63135 0.0
H331 H 0.20324 0.68296 0.67469 0.0
H332 H 0.29053 0.66483 0.79927 0.0
H333 H 0.26249 0.66167 0.71687 0.0
H334 H 0.26644 0.86781 0.79374 0.0
H335 H 0.23485 0.86432 0.71507 0.0
H336 H 0.26721 0.84041 0.89709 0.0
H337 H 0.29009 0.79645 0.93654 0.0
C338 C 0.27636 0.24783 0.82785 0.0
C339 C 0.25783 0.28565 0.85182 0.0
C340 C 0.19633 0.27609 0.76848 0.0
C341 C 0.21231 0.23615 0.75099 0.0
N342 N 0.26343 0.18082 0.77394 0.0
N343 N 0.19562 0.33161 0.85641 0.0
C344 C 0.25124 0.22109 0.78341 0.0
C345 C 0.21655 0.29874 0.82529 0.0
N346 N 0.31852 0.23812 0.84527 0.0
N347 N 0.16309 0.29328 0.72888 0.0
H348 H 0.20859 0.34849 0.8996 0.0
H349 H 0.16349 0.33957 0.84425 0.0
H350 H 0.14801 0.27831 0.68539 0.0
H351 H 0.15345 0.32399 0.73443 0.0
H352 H 0.33509 0.21297 0.82314 0.0
H353 H 0.33842 0.25743 0.87612 0.0
H354 H 0.28904 0.16705 0.80244 0.0
H355 H 0.24538 0.16 0.74296 0.0
C356 C 0.74856 0.20716 0.84658 0.0
C357 C 0.73129 0.24768 0.83959 0.0
C358 C 0.76614 0.25435 0.71998 0.0
C359 C 0.77894 0.21225 0.72338 0.0
N360 N 0.77462 0.14619 0.78402 0.0
N361 N 0.71651 0.30705 0.76358 0.0
C362 C 0.76809 0.18794 0.78511 0.0
C363 C 0.73813 0.27059 0.77462 0.0
N364 N 0.74795 0.18758 0.91264 0.0
N365 N 0.78208 0.27933 0.66627 0.0
H366 H 0.69483 0.3196 0.80137 0.0
H367 H 0.71677 0.32278 0.714 0.0
H368 H 0.80374 0.26896 0.62646 0.0
H369 H 0.77737 0.31118 0.66556 0.0
H370 H 0.76417 0.15981 0.92247 0.0
H371 H 0.73509 0.20099 0.95965 0.0
H372 H 0.76305 0.12652 0.82449 0.0
H373 H 0.78768 0.13062 0.73931 0.0
C374 C 0.77597 0.69324 0.81912 0.0
C375 C 0.73731 0.71033 0.84914 0.0
C376 C 0.75083 0.77529 0.78485 0.0
C377 C 0.78663 0.75658 0.7487 0.0
N378 N 0.82789 0.69498 0.72015 0.0
N379 N 0.68351 0.76495 0.85078 0.0
C380 C 0.79781 0.71478 0.76271 0.0
C381 C 0.72348 0.75068 0.82937 0.0
N382 N 0.79303 0.65739 0.84656 0.0
N383 N 0.74382 0.81684 0.7787 0.0
H384 H 0.66209 0.74757 0.88224 0.0
H385 H 0.66985 0.79237 0.83159 0.0
H386 H 0.76367 0.83607 0.74762 0.0
H387 H 0.72099 0.83285 0.80987 0.0
H388 H 0.82361 0.64605 0.83191 0.0
H389 H 0.7788 0.64104 0.88925 0.0
H390 H 0.83368 0.66332 0.72304 0.0
H391 H 0.84405 0.70924 0.67704 0.0
loop_
_geom_bond_atom_site_label_1
_geom_bond_atom_site_label_2
_geom_bond_distance
_geom_bond_site_symmetry_2
_ccdc_geom_bond_type
C0 O1 1.160 . S
C0 O7 1.185 . S
O1 C0 1.160 . S
O2 Zn3 1.899 . S
O2 C10 1.284 . S
Zn3 O2 1.899 . S
Zn3 O4 2.032 . S
Zn3 O7 2.086 . S
Zn3 O12 1.977 . S
O4 Zn3 2.032 . S
O4 C8 1.278 1_554 S
C5 O6 1.203 . S
C5 O12 1.267 . S
O6 C5 1.203 . S
O7 C0 1.185 . S
O7 Zn3 2.086 . S
C8 O4 1.278 1_556 S
C8 O9 1.211 . S
O9 C8 1.211 . S
C10 O2 1.284 . S
C10 O11 1.273 1_554 S
O11 C10 1.273 1_556 S
O12 Zn3 1.977 . S
O12 C5 1.267 . S
C13 O14 1.160 . S
C13 O20 1.185 . S
O14 C13 1.160 . S
O15 Zn16 1.899 1_556 S
O15 C23 1.284 1_556 S
Zn16 O15 1.899 1_554 S
Zn16 O17 2.032 . S
Zn16 O20 2.086 1_554 S
Zn16 O25 1.977 . S
O17 Zn16 2.032 . S
O17 C21 1.278 . S
C18 O19 1.203 . S
C18 O25 1.267 . S
O19 C18 1.203 . S
O20 C13 1.185 . S
O20 Zn16 2.086 1_556 S
C21 O17 1.278 . S
C21 O22 1.211 . S
O22 C21 1.211 . S
C23 O15 1.284 1_554 S
C23 O24 1.273 . S
O24 C23 1.273 . S
O25 Zn16 1.977 . S
O25 C18 1.267 . S
C26 O27 1.160 . S
C26 O33 1.185 . S
O27 C26 1.160 . S
O28 Zn29 1.899 . S
O28 C36 1.284 . S
Zn29 O28 1.899 . S
Zn29 O30 2.032 . S
Zn29 O33 2.086 . S
Zn29 O38 1.977 . S
O30 Zn29 2.032 . S
O30 C34 1.278 1_554 S
C31 O32 1.203 . S
C31 O38 1.267 . S
O32 C31 1.203 . S
O33 C26 1.185 . S
O33 Zn29 2.086 . S
C34 O30 1.278 1_556 S
C34 O35 1.211 . S
O35 C34 1.211 . S
C36 O28 1.284 . S
C36 O37 1.273 1_554 S
O37 C36 1.273 1_556 S
O38 Zn29 1.977 . S
O38 C31 1.267 . S
C39 O40 1.160 . S
C39 O46 1.185 . S
O40 C39 1.160 . S
O41 Zn42 1.899 1_556 S
O41 C49 1.284 1_556 S
Zn42 O41 1.899 1_554 S
Zn42 O43 2.032 . S
Zn42 O46 2.086 1_554 S
Zn42 O51 1.977 . S
O43 Zn42 2.032 . S
O43 C47 1.278 . S
C44 O45 1.203 . S
C44 O51 1.267 . S
O45 C44 1.203 . S
O46 C39 1.185 . S
O46 Zn42 2.086 1_556 S
C47 O43 1.278 . S
C47 O48 1.211 . S
O48 C47 1.211 . S
C49 O41 1.284 1_554 S
C49 O50 1.273 . S
O50 C49 1.273 . S
O51 Zn42 1.977 . S
O51 C44 1.267 . S
C52 O53 1.160 . S
C52 O59 1.185 . S
O53 C52 1.160 . S
O54 Zn55 1.899 . S
O54 C62 1.284 . S
Zn55 O54 1.899 . S
Zn55 O56 2.032 . S
Zn55 O59 2.086 . S
Zn55 O64 1.977 . S
O56 Zn55 2.032 . S
O56 C60 1.278 . S
C57 O58 1.203 . S
C57 O64 1.267 . S
O58 C57 1.203 . S
O59 C52 1.185 . S
O59 Zn55 2.086 . S
C60 O56 1.278 . S
C60 O61 1.211 . S
O61 C60 1.211 . S
C62 O54 1.284 . S
C62 O63 1.273 . S
O63 C62 1.273 . S
O64 Zn55 1.977 . S
O64 C57 1.267 . S
C65 O66 1.160 . S
C65 O72 1.185 . S
O66 C65 1.160 . S
O67 Zn68 1.899 . S
O67 C75 1.284 . S
Zn68 O67 1.899 . S
Zn68 O69 2.032 . S
Zn68 O72 2.086 . S
Zn68 O77 1.977 . S
O69 Zn68 2.032 . S
O69 C73 1.278 . S
C70 O71 1.203 . S
C70 O77 1.267 . S
O71 C70 1.203 . S
O72 C65 1.185 . S
O72 Zn68 2.086 . S
C73 O69 1.278 . S
C73 O74 1.211 . S
O74 C73 1.211 . S
C75 O67 1.284 . S
C75 O76 1.273 . S
O76 C75 1.273 . S
O77 Zn68 1.977 . S
O77 C70 1.267 . S
C78 O79 1.160 . S
C78 O85 1.185 . S
O79 C78 1.160 . S
O80 Zn81 1.899 . S
O80 C88 1.284 . S
Zn81 O80 1.899 . S
Zn81 O82 2.032 . S
Zn81 O85 2.086 . S
Zn81 O90 1.977 . S
O82 Zn81 2.032 . S
O82 C86 1.278 . S
C83 O84 1.203 . S
C83 O90 1.267 . S
O84 C83 1.203 . S
O85 C78 1.185 . S
O85 Zn81 2.086 . S
C86 O82 1.278 . S
C86 O87 1.211 . S
O87 C86 1.211 . S
C88 O80 1.284 . S
C88 O89 1.273 . S
O89 C88 1.273 . S
O90 Zn81 1.977 . S
O90 C83 1.267 . S
C91 O92 1.160 . S
C91 O98 1.185 . S
O92 C91 1.160 . S
O93 Zn94 1.899 . S
O93 C101 1.284 . S
Zn94 O93 1.899 . S
Zn94 O95 2.032 . S
Zn94 O98 2.086 . S
Zn94 O103 1.977 . S
O95 Zn94 2.032 . S
O95 C99 1.278 . S
C96 O97 1.203 . S
C96 O103 1.267 . S
O97 C96 1.203 . S
O98 C91 1.185 . S
O98 Zn94 2.086 . S
C99 O95 1.278 . S
C99 O100 1.211 . S
O100 C99 1.211 . S
C101 O93 1.284 . S
C101 O102 1.273 . S
O102 C101 1.273 . S
O103 Zn94 1.977 . S
O103 C96 1.267 . S
C104 C105 1.363 . S
C104 C110 1.379 . S
C104 N112 1.356 . S
C105 C104 1.363 . S
C105 C111 1.363 1_554 S
C106 C107 1.363 1_556 S
C106 C111 1.379 . S
C106 N113 1.356 . S
C107 C106 1.363 1_554 S
C107 C110 1.363 . S
N108 C110 1.356 . S
N108 H120 0.984 . S
N108 H121 0.985 . S
N109 C111 1.356 . S
N109 H114 0.984 . S
N109 H115 0.985 . S
C110 C104 1.379 . S
C110 C107 1.363 . S
C110 N108 1.356 . S
C111 C105 1.363 1_556 S
C111 C106 1.379 . S
C111 N109 1.356 . S
N112 C104 1.356 . S
N112 H118 0.984 . S
N112 H119 0.984 . S
N113 C106 1.356 . S
N113 H116 0.984 . S
N113 H117 0.985 . S
H114 N109 0.984 . S
H115 N109 0.985 . S
H116 N113 0.984 . S
H117 N113 0.985 . S
H118 N112 0.984 . S
H119 N112 0.984 . S
H120 N108 0.984 . S
H121 N108 0.985 . S
C122 C123 1.363 . S
C122 C128 1.379 . S
C122 N130 1.356 . S
C123 C122 1.363 . S
C123 C129 1.363 . S
C124 C125 1.361 1_556 S
C124 C129 1.378 1_556 S
C124 N131 1.358 . S
C125 C124 1.361 1_554 S
C125 C128 1.363 . S
N126 C128 1.356 . S
N126 H138 0.984 . S
N126 H139 0.985 . S
N127 C129 1.356 1_556 S
N127 H132 0.984 . S
N127 H133 0.985 . S
C128 C122 1.379 . S
C128 C125 1.363 . S
C128 N126 1.356 . S
C129 C123 1.363 . S
C129 C124 1.378 1_554 S
C129 N127 1.356 1_554 S
N130 C122 1.356 . S
N130 H136 0.984 . S
N130 H137 0.984 . S
N131 C124 1.358 . S
N131 H134 0.984 . S
N131 H135 0.985 . S
H132 N127 0.984 . S
H133 N127 0.985 . S
H134 N131 0.984 . S
H135 N131 0.985 . S
H136 N130 0.984 . S
H137 N130 0.984 . S
H138 N126 0.984 . S
H139 N126 0.985 . S
C140 C141 1.363 1_556 S
C140 C146 1.379 . S
C140 N148 1.356 . S
C141 C140 1.363 1_554 S
C141 C147 1.363 . S
C142 C143 1.363 . S
C142 C147 1.379 . S
C142 N149 1.356 . S
C143 C142 1.363 . S
C143 C146 1.363 1_554 S
N144 C146 1.356 . S
N144 H156 0.984 . S
N144 H157 0.985 . S
N145 C147 1.356 . S
N145 H150 0.984 . S
N145 H151 0.985 . S
C146 C140 1.379 . S
C146 C143 1.363 1_556 S
C146 N144 1.356 . S
C147 C141 1.363 . S
C147 C142 1.379 . S
C147 N145 1.356 . S
N148 C140 1.356 . S
N148 H154 0.984 . S
N148 H155 0.984 . S
N149 C142 1.356 . S
N149 H152 0.984 . S
N149 H153 0.985 . S
H150 N145 0.984 . S
H151 N145 0.985 . S
H152 N149 0.984 . S
H153 N149 0.985 . S
H154 N148 0.984 . S
H155 N148 0.984 . S
H156 N144 0.984 . S
H157 N144 0.985 . S
C158 C159 1.361 1_556 S
C158 C164 1.378 1_556 S
C158 N166 1.359 . S
C159 C158 1.361 1_554 S
C159 C165 1.363 . S
C160 C161 1.363 . S
C160 C165 1.379 . S
C160 N167 1.356 . S
C161 C160 1.363 . S
C161 C164 1.363 . S
N162 C164 1.356 1_556 S
N162 H174 0.984 . S
N162 H175 0.985 . S
N163 C165 1.356 . S
N163 H168 0.984 . S
N163 H169 0.985 . S
C164 C158 1.378 1_554 S
C164 C161 1.363 . S
C164 N162 1.356 1_554 S
C165 C159 1.363 . S
C165 C160 1.379 . S
C165 N163 1.356 . S
N166 C158 1.359 . S
N166 H172 0.984 . S
N166 H173 0.984 . S
N167 C160 1.356 . S
N167 H170 0.984 . S
N167 H171 0.985 . S
H168 N163 0.984 . S
H169 N163 0.985 . S
H170 N167 0.984 . S
H171 N167 0.985 . S
H172 N166 0.984 . S
H173 N166 0.984 . S
H174 N162 0.984 . S
H175 N162 0.985 . S
C176 C177 1.363 . S
C176 C182 1.379 1_565 S
C176 N184 1.356 . S
C177 C176 1.363 . S
C177 C183 1.363 . S
C178 C179 1.363 . S
C178 C183 1.379 1_545 S
C178 N185 1.356 . S
C179 C178 1.363 . S
C179 C182 1.363 . S
N180 C182 1.356 . S
N180 H192 0.984 . S
N180 H193 0.985 . S
N181 C183 1.356 . S
N181 H186 0.984 . S
N181 H187 0.985 . S
C182 C176 1.379 1_545 S
C182 C179 1.363 . S
C182 N180 1.356 . S
C183 C177 1.363 . S
C183 C178 1.379 1_565 S
C183 N181 1.356 . S
N184 C176 1.356 . S
N184 H190 0.984 . S
N184 H191 0.984 . S
N185 C178 1.356 . S
N185 H188 0.984 . S
N185 H189 0.985 . S
H186 N181 0.984 . S
H187 N181 0.985 . S
H188 N185 0.984 . S
H189 N185 0.985 . S
H190 N184 0.984 . S
H191 N184 0.984 . S
H192 N180 0.984 . S
H193 N180 0.985 . S
C194 C195 1.363 . S
C194 C200 1.379 1_455 S
C194 N202 1.356 . S
C195 C194 1.363 . S
C195 C201 1.363 . S
C196 C197 1.363 . S
C196 C201 1.379 1_655 S
C196 N203 1.356 . S
C197 C196 1.363 . S
C197 C200 1.363 . S
N198 C200 1.356 . S
N198 H210 0.984 . S
N198 H211 0.985 . S
N199 C201 1.356 . S
N199 H204 0.984 . S
N199 H205 0.985 . S
C200 C194 1.379 1_655 S
C200 C197 1.363 . S
C200 N198 1.356 . S
C201 C195 1.363 . S
C201 C196 1.379 1_455 S
C201 N199 1.356 . S
N202 C194 1.356 . S
N202 H208 0.984 . S
N202 H209 0.984 . S
N203 C196 1.356 . S
N203 H206 0.984 . S
N203 H207 0.985 . S
H204 N199 0.984 . S
H205 N199 0.985 . S
H206 N203 0.984 . S
H207 N203 0.985 . S
H208 N202 0.984 . S
H209 N202 0.984 . S
H210 N198 0.984 . S
H211 N198 0.985 . S
C212 C213 1.363 . S
C212 C218 1.379 1_545 S
C212 N220 1.356 . S
C213 C212 1.363 . S
C213 C219 1.363 . S
C214 C215 1.363 . S
C214 C219 1.379 1_565 S
C214 N221 1.356 . S
C215 C214 1.363 . S
C215 C218 1.363 . S
N216 C218 1.356 . S
N216 H228 0.984 . S
N216 H229 0.985 . S
N217 C219 1.356 . S
N217 H222 0.984 . S
N217 H223 0.985 . S
C218 C212 1.379 1_565 S
C218 C215 1.363 . S
C218 N216 1.356 . S
C219 C213 1.363 . S
C219 C214 1.379 1_545 S
C219 N217 1.356 . S
N220 C212 1.356 . S
N220 H226 0.984 . S
N220 H227 0.984 . S
N221 C214 1.356 . S
N221 H224 0.984 . S
N221 H225 0.985 . S
H222 N217 0.984 . S
H223 N217 0.985 . S
H224 N221 0.984 . S
H225 N221 0.985 . S
H226 N220 0.984 . S
H227 N220 0.984 . S
H228 N216 0.984 . S
H229 N216 0.985 . S
C230 C231 1.363 . S
C230 C236 1.379 1_655 S
C230 N238 1.356 . S
C231 C230 1.363 . S
C231 C237 1.363 . S
C232 C233 1.363 . S
C232 C237 1.379 1_455 S
C232 N239 1.356 . S
C233 C232 1.363 . S
C233 C236 1.363 . S
N234 C236 1.356 . S
N234 H246 0.984 . S
N234 H247 0.985 . S
N235 C237 1.356 . S
N235 H240 0.984 . S
N235 H241 0.985 . S
C236 C230 1.379 1_455 S
C236 C233 1.363 . S
C236 N234 1.356 . S
C237 C231 1.363 . S
C237 C232 1.379 1_655 S
C237 N235 1.356 . S
N238 C230 1.356 . S
N238 H244 0.984 . S
N238 H245 0.984 . S
N239 C232 1.356 . S
N239 H242 0.984 . S
N239 H243 0.985 . S
H240 N235 0.984 . S
H241 N235 0.985 . S
H242 N239 0.984 . S
H243 N239 0.985 . S
H244 N238 0.984 . S
H245 N238 0.984 . S
H246 N234 0.984 . S
H247 N234 0.985 . S
C248 C249 1.363 . S
C248 C254 1.379 . S
C248 N256 1.356 . S
C249 C248 1.363 . S
C249 C255 1.363 . S
C250 C251 1.363 . S
C250 C255 1.379 . S
C250 N257 1.356 . S
C251 C250 1.363 . S
C251 C254 1.363 . S
N252 C254 1.356 . S
N252 H264 0.984 . S
N252 H265 0.985 . S
N253 C255 1.356 . S
N253 H258 0.984 . S
N253 H259 0.985 . S
C254 C248 1.379 . S
C254 C251 1.363 . S
C254 N252 1.356 . S
C255 C249 1.363 . S
C255 C250 1.379 . S
C255 N253 1.356 . S
N256 C248 1.356 . S
N256 H262 0.984 . S
N256 H263 0.984 . S
N257 C250 1.356 . S
N257 H260 0.984 . S
N257 H261 0.985 . S
H258 N253 0.984 . S
H259 N253 0.985 . S
H260 N257 0.984 . S
H261 N257 0.985 . S
H262 N256 0.984 . S
H263 N256 0.984 . S
H264 N252 0.984 . S
H265 N252 0.985 . S
C266 C267 1.363 . S
C266 C272 1.379 . S
C266 N274 1.356 . S
C267 C266 1.363 . S
C267 C273 1.363 . S
C268 C269 1.363 . S
C268 C273 1.379 . S
C268 N275 1.356 . S
C269 C268 1.363 . S
C269 C272 1.363 . S
N270 C272 1.356 . S
N270 H282 0.984 . S
N270 H283 0.985 . S
N271 C273 1.356 . S
N271 H276 0.984 . S
N271 H277 0.985 . S
C272 C266 1.379 . S
C272 C269 1.363 . S
C272 N270 1.356 . S
C273 C267 1.363 . S
C273 C268 1.379 . S
C273 N271 1.356 . S
N274 C266 1.356 . S
N274 H280 0.984 . S
N274 H281 0.984 . S
N275 C268 1.356 . S
N275 H278 0.984 . S
N275 H279 0.985 . S
H276 N271 0.984 . S
H277 N271 0.985 . S
H278 N275 0.984 . S
H279 N275 0.985 . S
H280 N274 0.984 . S
H281 N274 0.984 . S
H282 N270 0.984 . S
H283 N270 0.985 . S
C284 C285 1.363 . S
C284 C290 1.379 . S
C284 N292 1.356 . S
C285 C284 1.363 . S
C285 C291 1.363 . S
C286 C287 1.363 . S
C286 C291 1.379 . S
C286 N293 1.356 . S
C287 C286 1.363 . S
C287 C290 1.363 . S
N288 C290 1.356 . S
N288 H300 0.984 . S
N288 H301 0.985 . S
N289 C291 1.356 . S
N289 H294 0.984 . S
N289 H295 0.985 . S
C290 C284 1.379 . S
C290 C287 1.363 . S
C290 N288 1.356 . S
C291 C285 1.363 . S
C291 C286 1.379 . S
C291 N289 1.356 . S
N292 C284 1.356 . S
N292 H298 0.984 . S
N292 H299 0.984 . S
N293 C286 1.356 . S
N293 H296 0.984 . S
N293 H297 0.985 . S
H294 N289 0.984 . S
H295 N289 0.985 . S
H296 N293 0.984 . S
H297 N293 0.985 . S
H298 N292 0.984 . S
H299 N292 0.984 . S
H300 N288 0.984 . S
H301 N288 0.985 . S
C302 C303 1.363 . S
C302 C308 1.379 . S
C302 N310 1.356 . S
C303 C302 1.363 . S
C303 C309 1.363 . S
C304 C305 1.363 . S
C304 C309 1.379 . S
C304 N311 1.356 . S
C305 C304 1.363 . S
C305 C308 1.363 . S
N306 C308 1.356 . S
N306 H318 0.984 . S
N306 H319 0.985 . S
N307 C309 1.356 . S
N307 H312 0.984 . S
N307 H313 0.985 . S
C308 C302 1.379 . S
C308 C305 1.363 . S
C308 N306 1.356 . S
C309 C303 1.363 . S
C309 C304 1.379 . S
C309 N307 1.356 . S
N310 C302 1.356 . S
N310 H316 0.984 . S
N310 H317 0.984 . S
N311 C304 1.356 . S
N311 H314 0.984 . S
N311 H315 0.985 . S
H312 N307 0.984 . S
H313 N307 0.985 . S
H314 N311 0.984 . S
H315 N311 0.985 . S
H316 N310 0.984 . S
H317 N310 0.984 . S
H318 N306 0.984 . S
H319 N306 0.985 . S
C320 C321 1.363 . S
C320 C326 1.379 . S
C320 N328 1.356 . S
C321 C320 1.363 . S
C321 C327 1.363 . S
C322 C323 1.363 . S
C322 C327 1.379 . S
C322 N329 1.356 . S
C323 C322 1.363 . S
C323 C326 1.363 . S
N324 C326 1.356 . S
N324 H336 0.984 . S
N324 H337 0.985 . S
N325 C327 1.356 . S
N325 H330 0.984 . S
N325 H331 0.985 . S
C326 C320 1.379 . S
C326 C323 1.363 . S
C326 N324 1.356 . S
C327 C321 1.363 . S
C327 C322 1.379 . S
C327 N325 1.356 . S
N328 C320 1.356 . S
N328 H334 0.984 . S
N328 H335 0.984 . S
N329 C322 1.356 . S
N329 H332 0.984 . S
N329 H333 0.985 . S
H330 N325 0.984 . S
H331 N325 0.985 . S
H332 N329 0.984 . S
H333 N329 0.985 . S
H334 N328 0.984 . S
H335 N328 0.984 . S
H336 N324 0.984 . S
H337 N324 0.985 . S
C338 C339 1.363 . S
C338 C344 1.379 . S
C338 N346 1.356 . S
C339 C338 1.363 . S
C339 C345 1.363 . S
C340 C341 1.363 . S
C340 C345 1.379 . S
C340 N347 1.356 . S
C341 C340 1.363 . S
C341 C344 1.363 . S
N342 C344 1.356 . S
N342 H354 0.984 . S
N342 H355 0.985 . S
N343 C345 1.356 . S
N343 H348 0.984 . S
N343 H349 0.985 . S
C344 C338 1.379 . S
C344 C341 1.363 . S
C344 N342 1.356 . S
C345 C339 1.363 . S
C345 C340 1.379 . S
C345 N343 1.356 . S
N346 C338 1.356 . S
N346 H352 0.984 . S
N346 H353 0.984 . S
N347 C340 1.356 . S
N347 H350 0.984 . S
N347 H351 0.985 . S
H348 N343 0.984 . S
H349 N343 0.985 . S
H350 N347 0.984 . S
H351 N347 0.985 . S
H352 N346 0.984 . S
H353 N346 0.984 . S
H354 N342 0.984 . S
H355 N342 0.985 . S
C356 C357 1.363 . S
C356 C362 1.379 . S
C356 N364 1.356 . S
C357 C356 1.363 . S
C357 C363 1.363 . S
C358 C359 1.363 . S
C358 C363 1.379 . S
C358 N365 1.356 . S
C359 C358 1.363 . S
C359 C362 1.363 . S
N360 C362 1.356 . S
N360 H372 0.984 . S
N360 H373 0.985 . S
N361 C363 1.356 . S
N361 H366 0.984 . S
N361 H367 0.985 . S
C362 C356 1.379 . S
C362 C359 1.363 . S
C362 N360 1.356 . S
C363 C357 1.363 . S
C363 C358 1.379 . S
C363 N361 1.356 . S
N364 C356 1.356 . S
N364 H370 0.984 . S
N364 H371 0.984 . S
N365 C358 1.356 . S
N365 H368 0.984 . S
N365 H369 0.985 . S
H366 N361 0.984 . S
H367 N361 0.985 . S
H368 N365 0.984 . S
H369 N365 0.985 . S
H370 N364 0.984 . S
H371 N364 0.984 . S
H372 N360 0.984 . S
H373 N360 0.985 . S
C374 C375 1.363 . S
C374 C380 1.379 . S
C374 N382 1.356 . S
C375 C374 1.363 . S
C375 C381 1.363 . S
C376 C377 1.363 . S
C376 C381 1.379 . S
C376 N383 1.356 . S
C377 C376 1.363 . S
C377 C380 1.363 . S
N378 C380 1.356 . S
N378 H390 0.984 . S
N378 H391 0.985 . S
N379 C381 1.356 . S
N379 H384 0.984 . S
N379 H385 0.985 . S
C380 C374 1.379 . S
C380 C377 1.363 . S
C380 N378 1.356 . S
C381 C375 1.363 . S
C381 C376 1.379 . S
C381 N379 1.356 . S
N382 C374 1.356 . S
N382 H388 0.984 . S
N382 H389 0.984 . S
N383 C376 1.356 . S
N383 H386 0.984 . S
N383 H387 0.985 . S
H384 N379 0.984 . S
H385 N379 0.985 . S
H386 N383 0.984 . S
H387 N383 0.985 . S
H388 N382 0.984 . S
H389 N382 0.984 . S
H390 N378 0.984 . S
H391 N378 0.985 . S
C105 C5 1.452 . S
C107 C44 1.452 . S
C123 C10 1.470 . S
C125 C23 1.470 . S
C141 C18 1.452 . S
C143 C31 1.452 . S
C159 C49 1.470 . S
C161 C36 1.470 . S
C177 C57 1.452 . S
C179 C96 1.452 . S
C195 C75 1.470 . S
C197 C62 1.470 . S
C213 C83 1.452 . S
C215 C70 1.452 . S
C231 C101 1.470 . S
C233 C88 1.470 . S
C249 C86 1.420 . S
C251 C0 1.421 . S
C267 C21 1.420 . S
C269 C91 1.421 . S
C285 C60 1.420 . S
C287 C26 1.421 . S
C303 C65 1.421 . S
C305 C47 1.420 . S
C321 C73 1.420 . S
C323 C39 1.421 . S
C339 C8 1.420 . S
C341 C78 1.421 . S
C357 C13 1.421 . S
C359 C99 1.420 . S
C375 C34 1.420 . S
C377 C52 1.421 . S
