# Generated by pormake.
# Topology mon, (4)-cn, num edge types: 1
# Building blocks:
#     Node 0, Type 0, BuildingBlock: UXUYUI_clean_sbu_0, # of connection points: 4
#     Node 1, Type 0, BuildingBlock: UXUYUI_clean_sbu_0, # of connection points: 4
#     Node 2, Type 0, BuildingBlock: UXUYUI_clean_sbu_0, # of connection points: 4
#     Node 3, Type 0, BuildingBlock: UXUYUI_clean_sbu_0, # of connection points: 4
#     Node 4, Type 0, BuildingBlock: UXUYUI_clean_sbu_0, # of connection points: 4
#     Node 5, Type 0, BuildingBlock: UXUYUI_clean_sbu_0, # of connection points: 4
#     Node 6, Type 0, BuildingBlock: UXUYUI_clean_sbu_0, # of connection points: 4
#     Node 7, Type 0, BuildingBlock: UXUYUI_clean_sbu_0, # of connection points: 4
#     Node 8, Type 0, BuildingBlock: UXUYUI_clean_sbu_0, # of connection points: 4
#     Node 9, Type 0, BuildingBlock: UXUYUI_clean_sbu_0, # of connection points: 4
#     Node 10, Type 0, BuildingBlock: UXUYUI_clean_sbu_0, # of connection points: 4
#     Node 11, Type 0, BuildingBlock: UXUYUI_clean_sbu_0, # of connection points: 4
#     Node 12, Type 0, BuildingBlock: UXUYUI_clean_sbu_0, # of connection points: 4
#     Node 13, Type 0, BuildingBlock: UXUYUI_clean_sbu_0, # of connection points: 4
#     Node 14, Type 0, BuildingBlock: UXUYUI_clean_sbu_0, # of connection points: 4
#     Node 15, Type 0, BuildingBlock: UXUYUI_clean_sbu_0, # of connection points: 4
#     Edge 16, Type (0, 0), BuildingBlock: EZIPEK_clean_linker_0, # of connection points: 2
#     Edge 17, Type (0, 0), BuildingBlock: EZIPEK_clean_linker_0, # of connection points: 2
#     Edge 18, Type (0, 0), BuildingBlock: EZIPEK_clean_linker_0, # of connection points: 2
#     Edge 19, Type (0, 0), BuildingBlock: EZIPEK_clean_linker_0, # of connection points: 2
#     Edge 20, Type (0, 0), BuildingBlock: EZIPEK_clean_linker_0, # of connection points: 2
#     Edge 21, Type (0, 0), BuildingBlock: EZIPEK_clean_linker_0, # of connection points: 2
#     Edge 22, Type (0, 0), BuildingBlock: EZIPEK_clean_linker_0, # of connection points: 2
#     Edge 23, Type (0, 0), BuildingBlock: EZIPEK_clean_linker_0, # of connection points: 2
#     Edge 24, Type (0, 0), BuildingBlock: EZIPEK_clean_linker_0, # of connection points: 2
#     Edge 25, Type (0, 0), BuildingBlock: EZIPEK_clean_linker_0, # of connection points: 2
#     Edge 26, Type (0, 0), BuildingBlock: EZIPEK_clean_linker_0, # of connection points: 2
#     Edge 27, Type (0, 0), BuildingBlock: EZIPEK_clean_linker_0, # of connection points: 2
#     Edge 28, Type (0, 0), BuildingBlock: EZIPEK_clean_linker_0, # of connection points: 2
#     Edge 29, Type (0, 0), BuildingBlock: EZIPEK_clean_linker_0, # of connection points: 2
#     Edge 30, Type (0, 0), BuildingBlock: EZIPEK_clean_linker_0, # of connection points: 2
#     Edge 31, Type (0, 0), BuildingBlock: EZIPEK_clean_linker_0, # of connection points: 2
#     Edge 32, Type (0, 0), BuildingBlock: EZIPEK_clean_linker_0, # of connection points: 2
#     Edge 33, Type (0, 0), BuildingBlock: EZIPEK_clean_linker_0, # of connection points: 2
#     Edge 34, Type (0, 0), BuildingBlock: EZIPEK_clean_linker_0, # of connection points: 2
#     Edge 35, Type (0, 0), BuildingBlock: EZIPEK_clean_linker_0, # of connection points: 2
#     Edge 36, Type (0, 0), BuildingBlock: EZIPEK_clean_linker_0, # of connection points: 2
#     Edge 37, Type (0, 0), BuildingBlock: EZIPEK_clean_linker_0, # of connection points: 2
#     Edge 38, Type (0, 0), BuildingBlock: EZIPEK_clean_linker_0, # of connection points: 2
#     Edge 39, Type (0, 0), BuildingBlock: EZIPEK_clean_linker_0, # of connection points: 2
#     Edge 40, Type (0, 0), BuildingBlock: EZIPEK_clean_linker_0, # of connection points: 2
#     Edge 41, Type (0, 0), BuildingBlock: EZIPEK_clean_linker_0, # of connection points: 2
#     Edge 42, Type (0, 0), BuildingBlock: EZIPEK_clean_linker_0, # of connection points: 2
#     Edge 43, Type (0, 0), BuildingBlock: EZIPEK_clean_linker_0, # of connection points: 2
#     Edge 44, Type (0, 0), BuildingBlock: EZIPEK_clean_linker_0, # of connection points: 2
#     Edge 45, Type (0, 0), BuildingBlock: EZIPEK_clean_linker_0, # of connection points: 2
#     Edge 46, Type (0, 0), BuildingBlock: EZIPEK_clean_linker_0, # of connection points: 2
#     Edge 47, Type (0, 0), BuildingBlock: EZIPEK_clean_linker_0, # of connection points: 2
# Relax obj value: 0.204
# Max RMSD: 0.157
# Mean RMSD: 0.156
data_MOF--net-mon--node1-UXUYUI_clean_sbu_0--edge1-EZIPEK_clean_linker_0
_symmetry_space_group_name_H-M    P1
_symmetry_Int_Tables_number       1
_symmetry_cell_setting            triclinic
loop_
_symmetry_equiv_pos_as_xyz
'x, y, z'
_cell_length_a     40.709082
_cell_length_b     40.664101
_cell_length_c     100.85865
_cell_angle_alpha  90.002847
_cell_angle_beta   89.995322
_cell_angle_gamma 90.008886
loop_
_atom_site_label
_atom_site_type_symbol
_atom_site_fract_x
_atom_site_fract_y
_atom_site_fract_z
_atom_type_partial_charge
Li0 Li 0.00677 0.0331 0.57167 0.0
Li1 Li 0.00657 0.07039 0.59093 0.0
Li2 Li 0.03745 0.01643 0.59185 0.0
Li3 Li 0.97804 0.01848 0.59278 0.0
C4 C 0.07232 0.0654 0.57378 0.0
N5 N 0.1284 0.08628 0.56081 0.0
C6 C 0.07638 0.0986 0.57056 0.0
C7 C 0.09704 0.04291 0.57055 0.0
C8 C 0.10482 0.10864 0.56396 0.0
C9 C 0.12514 0.05393 0.56395 0.0
C10 C 0.94739 0.07989 0.57793 0.0
C11 C 0.9086 0.12027 0.58577 0.0
N12 N 0.90547 0.13202 0.5732 0.0
C13 C 0.94363 0.09222 0.56507 0.0
C14 C 0.92958 0.09386 0.58835 0.0
C15 C 0.92237 0.11863 0.5629 0.0
C16 C 0.98236 0.01153 0.54709 0.0
N17 N 0.00407 0.03237 0.55286 0.0
C18 C 0.01839 0.05467 0.53176 0.0
C19 C 0.02254 0.05314 0.54546 0.0
C20 C 0.99339 0.03623 0.52544 0.0
C21 C 0.97728 0.01245 0.5334 0.0
H22 H 0.96879 0.9943 0.55316 0.0
H23 H 0.04043 0.06881 0.55016 0.0
C24 C 0.01787 0.12572 0.60761 0.0
N25 N 0.00811 0.11574 0.59535 0.0
C26 C 0.02093 0.15928 0.61043 0.0
C27 C 0.00299 0.17135 0.58809 0.0
C28 C 0.00098 0.13775 0.58563 0.0
C29 C 0.01332 0.18239 0.60056 0.0
H30 H 0.02391 0.10763 0.61508 0.0
H31 H 0.9946 0.12923 0.57583 0.0
C32 C 0.01852 0.96337 0.57487 0.0
N33 N 0.04444 0.90926 0.56201 0.0
C34 C 0.00687 0.93183 0.57776 0.0
C35 C 0.04298 0.9674 0.56529 0.0
C36 C 0.02041 0.90477 0.5712 0.0
C37 C 0.05586 0.93975 0.55894 0.0
C38 C 0.9958 0.03072 0.61752 0.0
C39 C 0.00604 0.003 0.62459 0.0
C40 C 0.9708 0.05057 0.62262 0.0
C41 C 0.99053 0.99518 0.63654 0.0
C42 C 0.95589 0.04191 0.6346 0.0
N43 N 0.96595 0.0146 0.64124 0.0
C44 C 0.10223 0.01126 0.60213 0.0
C45 C 0.07193 0.96147 0.60116 0.0
C46 C 0.12878 0.99501 0.60798 0.0
N47 N 0.07464 0.99426 0.5988 0.0
C48 C 0.09785 0.94426 0.6069 0.0
C49 C 0.12656 0.96112 0.61041 0.0
H50 H 0.10337 0.03749 0.60041 0.0
H51 H 0.0493 0.94881 0.59892 0.0
C52 C 0.91054 0.00615 0.59937 0.0
N53 N 0.94207 0.99521 0.60013 0.0
C54 C 0.885 0.98732 0.6047 0.0
C55 C 0.925 0.94661 0.61146 0.0
C56 C 0.94963 0.96607 0.60597 0.0
C57 C 0.89234 0.9572 0.61078 0.0
H58 H 0.90518 0.02919 0.59451 0.0
H59 H 0.9749 0.95791 0.6063 0.0
O60 O 0.04462 0.05521 0.58032 0.0
O61 O 0.96832 0.05421 0.58024 0.0
O62 O 0.00551 0.99008 0.58124 0.0
O63 O 0.01014 0.03834 0.60565 0.0
H64 H 0.05769 0.11642 0.57304 0.0
H65 H 0.09482 0.01727 0.5732 0.0
H66 H 0.10816 0.13423 0.56134 0.0
H67 H 0.14441 0.03676 0.56138 0.0
H68 H 0.8948 0.13144 0.59375 0.0
H69 H 0.95713 0.08165 0.55688 0.0
H70 H 0.93208 0.08455 0.59833 0.0
H71 H 0.91933 0.12852 0.55302 0.0
H72 H 0.03545 0.06999 0.52644 0.0
H73 H 0.96107 0.99412 0.52927 0.0
H74 H 0.02936 0.16713 0.62011 0.0
H75 H 0.9974 0.18861 0.58022 0.0
H76 H 0.98768 0.92826 0.58504 0.0
H77 H 0.05166 0.99162 0.56268 0.0
H78 H 0.01177 0.88022 0.57341 0.0
H79 H 0.07485 0.94254 0.55152 0.0
H80 H 0.02548 0.98747 0.62081 0.0
H81 H 0.96299 0.07239 0.61738 0.0
H82 H 0.998 0.97364 0.64206 0.0
H83 H 0.93634 0.05692 0.63862 0.0
H84 H 0.15056 0.00867 0.61076 0.0
H85 H 0.09531 0.91819 0.60885 0.0
H86 H 0.85988 0.99592 0.604 0.0
H87 H 0.93125 0.92337 0.61607 0.0
Li88 Li 0.24047 0.72273 0.84484 0.0
Li89 Li 0.19024 0.75392 0.84187 0.0
Li90 Li 0.23342 0.75474 0.82414 0.0
Li91 Li 0.2398 0.78424 0.84531 0.0
C92 C 0.20467 0.68677 0.82492 0.0
N93 N 0.2001 0.62574 0.81297 0.0
C94 C 0.17853 0.66578 0.82795 0.0
C95 C 0.22823 0.67685 0.81565 0.0
C96 C 0.17673 0.63498 0.82185 0.0
C97 C 0.22556 0.64588 0.80976 0.0
C98 C 0.19762 0.74883 0.86791 0.0
C99 C 0.1561 0.77067 0.88251 0.0
N100 N 0.15271 0.74049 0.88816 0.0
C101 C 0.19394 0.71809 0.87393 0.0
C102 C 0.17879 0.77543 0.8723 0.0
C103 C 0.17104 0.71436 0.88414 0.0
C104 C 0.2859 0.6943 0.86129 0.0
N105 N 0.26151 0.68604 0.85272 0.0
C106 C 0.27268 0.62885 0.85575 0.0
C107 C 0.25425 0.65407 0.85 0.0
C108 C 0.2984 0.63687 0.86439 0.0
C109 C 0.30479 0.66993 0.86729 0.0
H110 H 0.29102 0.71995 0.86325 0.0
H111 H 0.2346 0.64802 0.84327 0.0
C112 C 0.12539 0.77778 0.84035 0.0
N113 N 0.14433 0.75257 0.8448 0.0
C114 C 0.0913 0.77634 0.84165 0.0
C115 C 0.09699 0.72336 0.85235 0.0
C116 C 0.13093 0.72574 0.85077 0.0
C117 C 0.07692 0.7487 0.84758 0.0
H118 H 0.1367 0.79864 0.83553 0.0
H119 H 0.14657 0.70595 0.8541 0.0
C120 C 0.30224 0.74561 0.83284 0.0
N121 N 0.36551 0.72756 0.82603 0.0
C122 C 0.32782 0.76846 0.83361 0.0
C123 C 0.30894 0.71349 0.8287 0.0
C124 C 0.3596 0.75891 0.83008 0.0
C125 C 0.34105 0.70485 0.8253 0.0
C126 C 0.20675 0.82506 0.8298 0.0
C127 C 0.22114 0.83938 0.81863 0.0
C128 C 0.19301 0.84507 0.83961 0.0
C129 C 0.22195 0.87362 0.81753 0.0
C130 C 0.19436 0.87921 0.83816 0.0
N131 N 0.2087 0.89266 0.82725 0.0
C132 C 0.21752 0.74738 0.79727 0.0
C133 C 0.27168 0.76675 0.80116 0.0
C134 C 0.22263 0.74822 0.78359 0.0
N135 N 0.24198 0.75637 0.8057 0.0
C136 C 0.27787 0.76791 0.78756 0.0
C137 C 0.25313 0.75852 0.77867 0.0
H138 H 0.19409 0.73947 0.80121 0.0
H139 H 0.29046 0.77434 0.80807 0.0
C140 C 0.26108 0.82375 0.86657 0.0
N141 N 0.26085 0.82095 0.85314 0.0
C142 C 0.28045 0.84769 0.87268 0.0
C143 C 0.29786 0.86619 0.85098 0.0
C144 C 0.27835 0.84176 0.8453 0.0
C145 C 0.29957 0.86869 0.86481 0.0
H146 H 0.24735 0.80649 0.87256 0.0
H147 H 0.27839 0.83839 0.83468 0.0
O148 O 0.20663 0.7171 0.83076 0.0
O149 O 0.21962 0.75286 0.85781 0.0
O150 O 0.27103 0.75456 0.8364 0.0
O151 O 0.20597 0.7916 0.8311 0.0
H152 H 0.15986 0.6731 0.83497 0.0
H153 H 0.24825 0.6929 0.81294 0.0
H154 H 0.15671 0.61845 0.82417 0.0
H155 H 0.24368 0.6379 0.8026 0.0
H156 H 0.14116 0.79097 0.88593 0.0
H157 H 0.20839 0.69727 0.87067 0.0
H158 H 0.18152 0.79941 0.86779 0.0
H159 H 0.16777 0.69067 0.88883 0.0
H160 H 0.26733 0.60345 0.85333 0.0
H161 H 0.32461 0.67676 0.87391 0.0
H162 H 0.07626 0.79617 0.83784 0.0
H163 H 0.08642 0.7017 0.85692 0.0
H164 H 0.32324 0.79334 0.8369 0.0
H165 H 0.28973 0.69524 0.82832 0.0
H166 H 0.37959 0.7764 0.83059 0.0
H167 H 0.34656 0.68004 0.82213 0.0
H168 H 0.23173 0.82424 0.81091 0.0
H169 H 0.18164 0.83435 0.84828 0.0
H170 H 0.23315 0.88506 0.80897 0.0
H171 H 0.18403 0.89502 0.84571 0.0
H172 H 0.20309 0.74092 0.77692 0.0
H173 H 0.30159 0.77611 0.78399 0.0
H174 H 0.28159 0.84897 0.8834 0.0
H175 H 0.31266 0.8819 0.84469 0.0
Li176 Li 0.53972 0.984 0.09707 0.0
Li177 Li 0.47763 0.98129 0.09596 0.0
Li178 Li 0.51078 0.93445 0.0932 0.0
Li179 Li 0.50946 0.97238 0.07531 0.0
C180 C 0.5053 0.93912 0.1187 0.0
N181 N 0.49987 0.88901 0.13706 0.0
C182 C 0.47492 0.92413 0.12097 0.0
C183 C 0.53287 0.92885 0.12584 0.0
C184 C 0.4727 0.89876 0.13027 0.0
C185 C 0.52962 0.90343 0.13508 0.0
C186 C 0.50586 0.04554 0.0868 0.0
C187 C 0.49127 0.09657 0.07609 0.0
N188 N 0.50222 0.11347 0.08685 0.0
C189 C 0.51707 0.06348 0.09774 0.0
C190 C 0.49297 0.06226 0.07586 0.0
C191 C 0.51497 0.09776 0.09758 0.0
C192 C 0.59853 0.01994 0.09625 0.0
N193 N 0.57564 0.00671 0.10449 0.0
C194 C 0.6005 0.03213 0.1233 0.0
C195 C 0.5764 0.01195 0.1178 0.0
C196 C 0.62378 0.04687 0.11498 0.0
C197 C 0.62312 0.04028 0.10134 0.0
H198 H 0.59694 0.01557 0.08569 0.0
H199 H 0.55744 0.0016 0.12404 0.0
C200 C 0.40985 0.98183 0.10257 0.0
N201 N 0.43818 -0.00042 0.10314 0.0
C202 C 0.38041 0.99535 0.10712 0.0
C203 C 0.41003 0.04455 0.11333 0.0
C204 C 0.43887 0.0301 0.10865 0.0
C205 C 0.38045 0.02717 0.11243 0.0
H206 H 0.41003 0.95728 0.09847 0.0
H207 H 0.46173 0.04328 0.10941 0.0
C208 C 0.56596 0.92475 0.07878 0.0
N209 N 0.59968 0.86953 0.07049 0.0
C210 C 0.55149 0.90298 0.06978 0.0
C211 C 0.59768 0.91867 0.08346 0.0
C212 C 0.5689 0.87512 0.06575 0.0
C213 C 0.61431 0.89056 0.07916 0.0
C214 C 0.44491 0.95296 0.07466 0.0
C215 C 0.42555 0.92749 0.0696 0.0
C216 C 0.43677 0.98555 0.07173 0.0
C217 C 0.39835 0.93507 0.06172 0.0
C218 C 0.40937 0.99214 0.06384 0.0
N219 N 0.39088 0.96697 0.05904 0.0
C220 C 0.48604 0.87007 0.09382 0.0
C221 C 0.5407 0.87433 0.10181 0.0
C222 C 0.48667 0.83602 0.0954 0.0
N223 N 0.51298 0.88837 0.09682 0.0
C224 C 0.54248 0.84031 0.10347 0.0
C225 C 0.51531 0.82094 0.10007 0.0
H226 H 0.46422 0.88191 0.09005 0.0
H227 H 0.5616 0.8895 0.10431 0.0
C228 C 0.52758 0.00632 0.05207 0.0
N229 N 0.51128 0.97954 0.05675 0.0
C230 C 0.52896 0.01238 0.03845 0.0
C231 C 0.49751 0.96271 0.03475 0.0
C232 C 0.49663 0.95768 0.04843 0.0
C233 C 0.5137 0.99039 0.02971 0.0
H234 H 0.53946 0.02296 0.05893 0.0
H235 H 0.48433 0.93629 0.05239 0.0
O236 O 0.50809 0.96335 0.10938 0.0
O237 O 0.50852 0.01194 0.08663 0.0
O238 O 0.54914 0.95188 0.083 0.0
O239 O 0.47189 0.94572 0.08225 0.0
H240 H 0.4534 0.9317 0.11547 0.0
H241 H 0.55663 0.93999 0.12412 0.0
H242 H 0.44941 0.88674 0.13205 0.0
H243 H 0.55079 0.89504 0.1406 0.0
H244 H 0.48131 0.10977 0.06769 0.0
H245 H 0.52676 0.05109 0.10636 0.0
H246 H 0.48443 0.04897 0.06723 0.0
H247 H 0.52343 0.11188 0.10601 0.0
H248 H 0.60035 0.03713 0.13385 0.0
H249 H 0.6407 0.05162 0.09471 0.0
H250 H 0.35785 0.98135 0.1064 0.0
H251 H 0.41071 0.06909 0.1175 0.0
H252 H 0.52685 0.90725 0.06616 0.0
H253 H 0.6092 0.93538 0.09041 0.0
H254 H 0.5579 0.85788 0.0589 0.0
H255 H 0.63882 0.88542 0.08275 0.0
H256 H 0.43157 0.90208 0.07165 0.0
H257 H 0.45118 0.00555 0.07561 0.0
H258 H 0.3832 0.91558 0.05773 0.0
H259 H 0.40278 0.01728 0.06156 0.0
H260 H 0.46536 0.82152 0.09272 0.0
H261 H 0.56489 0.82917 0.10712 0.0
H262 H 0.5418 0.03385 0.03477 0.0
H263 H 0.48571 0.94528 0.02818 0.0
Li264 Li 0.27094 0.27197 0.34328 0.0
Li265 Li 0.32305 0.2461 0.34152 0.0
Li266 Li 0.28153 0.24178 0.32292 0.0
Li267 Li 0.2752 0.21296 0.34487 0.0
C268 C 0.30537 0.31393 0.32756 0.0
N269 N 0.30557 0.38098 0.32313 0.0
C270 C 0.31494 0.33551 0.33763 0.0
C271 C 0.296 0.32644 0.31521 0.0
C272 C 0.31481 0.36933 0.3352 0.0
C273 C 0.29627 0.36042 0.31317 0.0
C274 C 0.31619 0.24978 0.3669 0.0
C275 C 0.35953 0.22751 0.38052 0.0
N276 N 0.3638 0.25756 0.38618 0.0
C277 C 0.32096 0.28043 0.37288 0.0
C278 C 0.33553 0.22306 0.37078 0.0
C279 C 0.34515 0.28386 0.38261 0.0
C280 C 0.23859 0.30714 0.36326 0.0
N281 N 0.24633 0.30835 0.35015 0.0
C282 C 0.21639 0.35854 0.3476 0.0
C283 C 0.23518 0.33309 0.34224 0.0
C284 C 0.20843 0.35789 0.3611 0.0
C285 C 0.21956 0.33186 0.36899 0.0
H286 H 0.24673 0.28661 0.36922 0.0
H287 H 0.24027 0.33279 0.33174 0.0
C288 C 0.38822 0.22368 0.34021 0.0
N289 N 0.36927 0.24918 0.34441 0.0
C290 C 0.42228 0.22499 0.34157 0.0
C291 C 0.41679 0.27863 0.35169 0.0
C292 C 0.38283 0.2764 0.35003 0.0
C293 C 0.43679 0.25282 0.34728 0.0
H294 H 0.37693 0.20254 0.33561 0.0
H295 H 0.3674 0.29649 0.35316 0.0
C296 C 0.21191 0.24954 0.33707 0.0
N297 N 0.15032 0.27397 0.34295 0.0
C298 C 0.19643 0.2408 0.34892 0.0
C299 C 0.19611 0.27068 0.3282 0.0
C300 C 0.16528 0.25345 0.35172 0.0
C301 C 0.16497 0.28279 0.33136 0.0
C302 C 0.30979 0.17343 0.32944 0.0
C303 C 0.29405 0.15931 0.31852 0.0
C304 C 0.3248 0.15319 0.33887 0.0
C305 C 0.29329 0.1251 0.31728 0.0
C306 C 0.32343 0.11909 0.33729 0.0
N307 N 0.30782 0.10586 0.32663 0.0
C308 C 0.30288 0.24437 0.29661 0.0
C309 C 0.24588 0.23358 0.29902 0.0
C310 C 0.30005 0.24361 0.28282 0.0
N311 N 0.27596 0.23961 0.30435 0.0
C312 C 0.24191 0.23272 0.28527 0.0
C313 C 0.26923 0.23791 0.27707 0.0
H314 H 0.32647 0.249 0.30118 0.0
H315 H 0.22502 0.22948 0.30544 0.0
C316 C 0.2614 0.17082 0.36633 0.0
N317 N 0.25786 0.17455 0.35306 0.0
C318 C 0.24924 0.14287 0.37268 0.0
C319 C 0.22852 0.12384 0.35171 0.0
C320 C 0.24083 0.15231 0.34578 0.0
C321 C 0.23423 0.1173 0.36532 0.0
H322 H 0.27304 0.18995 0.37209 0.0
H323 H 0.23648 0.15687 0.33537 0.0
O324 O 0.30538 0.28072 0.32969 0.0
O325 O 0.29293 0.24599 0.35721 0.0
O326 O 0.24259 0.23781 0.33426 0.0
O327 O 0.31026 0.20687 0.33096 0.0
H328 H 0.32163 0.32632 0.34731 0.0
H329 H 0.28846 0.31011 0.30731 0.0
H330 H 0.32189 0.38632 0.34295 0.0
H331 H 0.28903 0.37045 0.30368 0.0
H332 H 0.37482 0.20709 0.38355 0.0
H333 H 0.30651 0.3015 0.36992 0.0
H334 H 0.33228 0.19921 0.36624 0.0
H335 H 0.34921 0.30747 0.38727 0.0
H336 H 0.20756 0.37812 0.34125 0.0
H337 H 0.21332 0.33057 0.37942 0.0
H338 H 0.43722 0.20477 0.33803 0.0
H339 H 0.42742 0.30045 0.35611 0.0
H340 H 0.20845 0.22465 0.35593 0.0
H341 H 0.20796 0.278 0.31906 0.0
H342 H 0.15304 0.247 0.36088 0.0
H343 H 0.1525 0.29932 0.32463 0.0
H344 H 0.28229 0.17455 0.31113 0.0
H345 H 0.33713 0.16369 0.34737 0.0
H346 H 0.28105 0.11383 0.30892 0.0
H347 H 0.33473 0.10314 0.34456 0.0
H348 H 0.32155 0.24763 0.2767 0.0
H349 H 0.21785 0.22816 0.28106 0.0
H350 H 0.25099 0.14277 0.38332 0.0
H351 H 0.21379 0.10786 0.34557 0.0
Li352 Li 0.98231 0.988 0.40413 0.0
Li353 Li 0.04261 0.98747 0.40497 0.0
Li354 Li 0.00992 0.93758 0.40815 0.0
Li355 Li 0.01057 0.98066 0.4254 0.0
C356 C 0.01829 0.94314 0.3823 0.0
N357 N 0.02957 0.89549 0.36331 0.0
C358 C 0.0497 0.93911 0.37695 0.0
C359 C 0.99254 0.92318 0.3779 0.0
C360 C 0.05491 0.91485 0.36736 0.0
C361 C 0.99878 0.89913 0.36833 0.0
C362 C 0.02684 0.04848 0.41381 0.0
C363 C 0.06863 0.08454 0.4225 0.0
N364 N 0.05889 0.10833 0.41387 0.0
C365 C 0.01708 0.07332 0.40509 0.0
C366 C 0.05265 0.05414 0.42265 0.0
C367 C 0.03365 0.10341 0.40526 0.0
C368 C 0.93211 0.0345 0.40363 0.0
N369 N 0.94622 0.01008 0.39639 0.0
C370 C 0.91062 0.02099 0.37811 0.0
C371 C 0.93594 0.00283 0.38391 0.0
C372 C 0.89617 0.04673 0.38529 0.0
C373 C 0.90676 0.05324 0.39823 0.0
H374 H 0.94108 0.03979 0.41349 0.0
H375 H 0.94785 0.98345 0.37837 0.0
C376 C 0.11122 0.99354 0.40151 0.0
N377 N 0.08157 0.00585 0.39778 0.0
C378 C 0.14014 0.00722 0.39652 0.0
C379 C 0.10743 0.04569 0.38385 0.0
C380 C 0.07914 0.03097 0.38894 0.0
C381 C 0.13829 0.03388 0.38774 0.0
H382 H 0.11239 0.97307 0.40832 0.0
H383 H 0.05521 0.03965 0.38589 0.0
C384 C 0.93931 0.95851 0.41881 0.0
N385 N 0.87206 0.96771 0.41893 0.0
C386 C 0.92453 0.97695 0.42886 0.0
C387 C 0.91985 0.94444 0.40889 0.0
C388 C 0.89049 0.98137 0.42874 0.0
C389 C 0.88591 0.94948 0.4091 0.0
C390 C 0.06544 0.94187 0.4292 0.0
C391 C 0.06022 0.90983 0.43377 0.0
C392 C 0.0886 0.96187 0.4355 0.0
C393 C 0.07817 0.89841 0.44464 0.0
C394 C 0.10598 0.94956 0.44636 0.0
N395 N 0.10045 0.91836 0.45067 0.0
C396 C 0.03752 0.87679 0.40068 0.0
C397 C 0.98343 0.87361 0.40939 0.0
C398 C 0.03887 0.84266 0.39938 0.0
N399 N 0.01005 0.89144 0.40558 0.0
C400 C 0.98386 0.83941 0.40841 0.0
C401 C 0.01191 0.82375 0.40343 0.0
H402 H 0.05858 0.8916 0.39804 0.0
H403 H 0.96219 0.88589 0.41349 0.0
C404 C 0.99623 0.02242 0.44637 0.0
N405 N 0.00767 0.9917 0.44371 0.0
C406 C 0.9916 0.03262 0.45942 0.0
C407 C 0.01084 0.97948 0.46687 0.0
C408 C 0.01453 0.97007 0.45363 0.0
C409 C 0.99914 0.01107 0.46982 0.0
H410 H 0.99003 0.03882 0.43832 0.0
H411 H 0.02233 0.94539 0.45131 0.0
O412 O 0.01281 0.96643 0.39183 0.0
O413 O 0.01128 0.01869 0.41364 0.0
O414 O 0.97269 0.95473 0.41853 0.0
O415 O 0.04834 0.95344 0.41849 0.0
H416 H 0.0699 0.95437 0.38022 0.0
H417 H 0.9681 0.92593 0.38196 0.0
H418 H 0.07912 0.91135 0.36318 0.0
H419 H 0.97915 0.88331 0.36493 0.0
H420 H 0.08876 0.08922 0.42924 0.0
H421 H 0.99714 0.06928 0.39818 0.0
H422 H 0.06029 0.03522 0.42952 0.0
H423 H 0.0265 0.12282 0.39852 0.0
H424 H 0.90297 0.01567 0.36805 0.0
H425 H 0.89612 0.07314 0.40394 0.0
H426 H 0.1637 0.99739 0.39956 0.0
H427 H 0.10532 0.06602 0.37697 0.0
H428 H 0.93917 0.98795 0.43663 0.0
H429 H 0.9309 0.93018 0.40102 0.0
H430 H 0.87874 0.99574 0.43642 0.0
H431 H 0.8706 0.939 0.40142 0.0
H432 H 0.04233 0.89401 0.42908 0.0
H433 H 0.09314 0.98663 0.43203 0.0
H434 H 0.0743 0.87371 0.44831 0.0
H435 H 0.1239 0.96481 0.45135 0.0
H436 H 0.06093 0.83107 0.39561 0.0
H437 H 0.96283 0.82525 0.41168 0.0
H438 H 0.98215 0.05703 0.46141 0.0
H439 H 0.01643 0.96219 0.47472 0.0
Li440 Li 0.27893 0.78915 0.65406 0.0
Li441 Li 0.28974 0.75969 0.67632 0.0
Li442 Li 0.32874 0.75772 0.65786 0.0
Li443 Li 0.27827 0.72939 0.65599 0.0
C444 C 0.34121 0.81583 0.66806 0.0
N445 N 0.39911 0.8512 0.66823 0.0
C446 C 0.3631 0.81267 0.67865 0.0
C447 C 0.34866 0.83702 0.65757 0.0
C448 C 0.39229 0.83075 0.67854 0.0
C449 C 0.37809 0.85468 0.65784 0.0
C450 C 0.21937 0.74655 0.66512 0.0
C451 C 0.18048 0.70835 0.6745 0.0
N452 N 0.15883 0.71588 0.66469 0.0
C453 C 0.19678 0.75387 0.65511 0.0
C454 C 0.21118 0.72365 0.67491 0.0
C455 C 0.16629 0.73811 0.65508 0.0
C456 C 0.24258 0.8198 0.6343 0.0
N457 N 0.25844 0.82543 0.64593 0.0
C458 C 0.23966 0.88105 0.64635 0.0
C459 C 0.25777 0.85536 0.65194 0.0
C460 C 0.22188 0.8754 0.63465 0.0
C461 C 0.22389 0.84461 0.62847 0.0
H462 H 0.24359 0.79565 0.62981 0.0
H463 H 0.27059 0.85897 0.66122 0.0
C464 C 0.3096 0.7531 0.70288 0.0
N465 N 0.28426 0.7621 0.69488 0.0
C466 C 0.30564 0.75309 0.71662 0.0
C467 C 0.24975 0.772 0.71359 0.0
C468 C 0.25483 0.77178 0.69991 0.0
C469 C 0.27532 0.76237 0.72205 0.0
H470 H 0.33266 0.7454 0.69854 0.0
H471 H 0.2352 0.7789 0.69328 0.0
C472 C 0.31449 0.74159 0.63181 0.0
N473 N 0.34537 0.71068 0.61085 0.0
C474 C 0.32534 0.70918 0.6331 0.0
C475 C 0.31918 0.75828 0.61985 0.0
C476 C 0.34093 0.69397 0.6224 0.0
C477 C 0.3349 0.74224 0.60937 0.0
C478 C 0.31675 0.69035 0.67391 0.0
C479 C 0.33935 0.66885 0.6681 0.0
C480 C 0.29847 0.67998 0.68488 0.0
C481 C 0.34269 0.63704 0.67316 0.0
C482 C 0.30254 0.648 0.68965 0.0
N483 N 0.32435 0.62735 0.68373 0.0
C484 C 0.39366 0.74184 0.66379 0.0
C485 C 0.38794 0.77173 0.64371 0.0
C486 C 0.42772 0.74159 0.66243 0.0
N487 N 0.37461 0.75677 0.65451 0.0
C488 C 0.42197 0.77205 0.64194 0.0
C489 C 0.44208 0.75692 0.65143 0.0
H490 H 0.38237 0.73067 0.67239 0.0
H491 H 0.37221 0.784 0.63663 0.0
C492 C 0.24211 0.69749 0.63635 0.0
N493 N 0.25454 0.69281 0.64873 0.0
C494 C 0.22208 0.67368 0.63054 0.0
C495 C 0.22786 0.64055 0.6503 0.0
C496 C 0.24787 0.66499 0.65573 0.0
C497 C 0.2146 0.64503 0.63761 0.0
H498 H 0.24698 0.72019 0.63113 0.0
H499 H 0.25697 0.66213 0.66567 0.0
O500 O 0.31282 0.7979 0.66784 0.0
O501 O 0.24931 0.7618 0.66535 0.0
O502 O 0.29945 0.75713 0.64219 0.0
O503 O 0.31374 0.72185 0.66928 0.0
H504 H 0.35772 0.79624 0.6868 0.0
H505 H 0.33203 0.83953 0.64926 0.0
H506 H 0.40957 0.82844 0.68663 0.0
H507 H 0.38428 0.87106 0.64977 0.0
H508 H 0.17385 0.6905 0.68199 0.0
H509 H 0.20273 0.77149 0.64746 0.0
H510 H 0.22838 0.71766 0.68271 0.0
H511 H 0.14857 0.74349 0.64738 0.0
H512 H 0.23851 0.90464 0.65132 0.0
H513 H 0.21041 0.8396 0.61943 0.0
H514 H 0.32577 0.74554 0.72295 0.0
H515 H 0.22611 0.77929 0.71755 0.0
H516 H 0.32158 0.69588 0.64223 0.0
H517 H 0.31088 0.78342 0.61871 0.0
H518 H 0.34947 0.66887 0.62326 0.0
H519 H 0.33879 0.75487 0.60006 0.0
H520 H 0.35443 0.67668 0.65985 0.0
H521 H 0.28106 0.69627 0.68959 0.0
H522 H 0.36 0.62012 0.66873 0.0
H523 H 0.28836 0.6396 0.69807 0.0
H524 H 0.44277 0.72999 0.66995 0.0
H525 H 0.43254 0.78434 0.63342 0.0
H526 H 0.21181 0.67793 0.62078 0.0
H527 H 0.22206 0.61882 0.65605 0.0
Li528 Li 0.5147 0.06356 0.90941 0.0
Li529 Li 0.51572 0.02658 0.92725 0.0
Li530 Li 0.54461 0.0142 0.9065 0.0
Li531 Li 0.48327 0.01277 0.90695 0.0
C532 C 0.57266 0.0767 0.92033 0.0
N533 N 0.60977 0.13352 0.92176 0.0
C534 C 0.56357 0.10203 0.92896 0.0
C535 C 0.60075 0.08022 0.91248 0.0
C536 C 0.58261 0.13058 0.92952 0.0
C537 C 0.61916 0.10915 0.91333 0.0
C538 C 0.45704 0.05213 0.93072 0.0
C539 C 0.41233 0.03335 0.94446 0.0
N540 N 0.41981 0.0569 0.95355 0.0
C541 C 0.46405 0.07639 0.94012 0.0
C542 C 0.43081 0.03059 0.93283 0.0
C543 C 0.44504 0.0783 0.95163 0.0
C544 C 0.48529 0.12582 0.90931 0.0
N545 N 0.51256 0.10942 0.90521 0.0
C546 C 0.53643 0.15929 0.89717 0.0
C547 C 0.5375 0.12528 0.89887 0.0
C548 C 0.50916 0.17676 0.90183 0.0
C549 C 0.48302 0.15977 0.90769 0.0
H550 H 0.46557 0.11265 0.91412 0.0
H551 H 0.55865 0.11175 0.89547 0.0
C552 C 0.53837 0.03663 0.95352 0.0
N553 N 0.51642 0.02002 0.94588 0.0
C554 C 0.53856 0.03228 0.96724 0.0
C555 C 0.49397 0.99334 0.96494 0.0
C556 C 0.49474 0.99832 0.95125 0.0
C557 C 0.51603 0.01056 0.97302 0.0
H558 H 0.5558 0.05314 0.94897 0.0
H559 H 0.47797 0.98504 0.94489 0.0
C560 C 0.52031 0.05397 0.88345 0.0
N561 N 0.5342 0.09688 0.86294 0.0
C562 C 0.49531 0.07301 0.87785 0.0
C563 C 0.55239 0.05679 0.87862 0.0
C564 C 0.50284 0.09458 0.8675 0.0
C565 C 0.5589 0.07858 0.86824 0.0
C566 C 0.53156 0.95674 0.91823 0.0
C567 C 0.52593 0.9309 0.90938 0.0
C568 C 0.55593 0.95373 0.92791 0.0
C569 C 0.54494 0.9024 0.91035 0.0
C570 C 0.57439 0.92482 0.92855 0.0
N571 N 0.56856 0.89997 0.91983 0.0
C572 C 0.61029 0.99025 0.90513 0.0
C573 C 0.57409 0.97296 0.88804 0.0
C574 C 0.63563 0.97121 0.89982 0.0
N575 N 0.58037 0.9908 0.89914 0.0
C576 C 0.59851 0.95327 0.88251 0.0
C577 C 0.62959 0.95221 0.88847 0.0
H578 H 0.61426 0.00415 0.91413 0.0
H579 H 0.54987 0.97363 0.88364 0.0
C580 C 0.4296 0.00235 0.88962 0.0
N581 N 0.4462 0.9903 0.90026 0.0
C582 C 0.40391 0.98433 0.88402 0.0
C583 C 0.41239 0.94234 0.90068 0.0
C584 C 0.43792 0.96114 0.90594 0.0
C585 C 0.39549 0.95381 0.8895 0.0
H586 H 0.43679 0.02555 0.8853 0.0
H587 H 0.45161 0.95223 0.9144 0.0
O588 O 0.55442 0.04847 0.91967 0.0
O589 O 0.47591 0.04937 0.91955 0.0
O590 O 0.51348 0.03284 0.89365 0.0
O591 O 0.51395 0.98523 0.91717 0.0
H592 H 0.54185 0.09984 0.93506 0.0
H593 H 0.608 0.06108 0.90564 0.0
H594 H 0.57576 0.15043 0.9361 0.0
H595 H 0.64084 0.11227 0.90726 0.0
H596 H 0.3921 0.01669 0.94627 0.0
H597 H 0.48413 0.09339 0.9386 0.0
H598 H 0.42494 0.01177 0.92565 0.0
H599 H 0.45038 0.09677 0.95904 0.0
H600 H 0.55693 0.17193 0.8926 0.0
H601 H 0.46169 0.17281 0.91137 0.0
H602 H 0.55601 0.04567 0.97329 0.0
H603 H 0.47646 0.97625 0.96918 0.0
H604 H 0.47047 0.07159 0.88159 0.0
H605 H 0.57218 0.0427 0.88292 0.0
H606 H 0.48377 0.10959 0.86313 0.0
H607 H 0.58363 0.08108 0.86444 0.0
H608 H 0.50736 0.93302 0.90174 0.0
H609 H 0.56081 0.97367 0.93474 0.0
H610 H 0.541 0.88226 0.90352 0.0
H611 H 0.59344 0.92218 0.93595 0.0
H612 H 0.65941 0.9707 0.90463 0.0
H613 H 0.59317 0.93875 0.87377 0.0
H614 H 0.39132 0.99362 0.87533 0.0
H615 H 0.40643 0.91875 0.90505 0.0
Li616 Li 0.23757 0.2398 0.17421 0.0
Li617 Li 0.24472 0.20894 0.15262 0.0
Li618 Li 0.24611 0.27018 0.15351 0.0
Li619 Li 0.19616 0.24092 0.15702 0.0
C620 C 0.30751 0.2402 0.16634 0.0
N621 N 0.37168 0.24365 0.17517 0.0
C622 C 0.32614 0.21154 0.16772 0.0
C623 C 0.32168 0.27067 0.16928 0.0
C624 C 0.35848 0.21378 0.17226 0.0
C625 C 0.35411 0.27189 0.17377 0.0
C626 C 0.18466 0.18411 0.16843 0.0
C627 C 0.14537 0.1452 0.15984 0.0
N628 N 0.12645 0.14976 0.1708 0.0
C629 C 0.16492 0.18835 0.17963 0.0
C630 C 0.17494 0.16231 0.15846 0.0
C631 C 0.13551 0.1708 0.18063 0.0
C632 C 0.22127 0.25131 0.20073 0.0
N633 N 0.24501 0.23834 0.19281 0.0
C634 C 0.27745 0.22403 0.21169 0.0
C635 C 0.27262 0.22455 0.19799 0.0
C636 C 0.25346 0.23754 0.22004 0.0
C637 C 0.22505 0.25122 0.21448 0.0
H638 H 0.19941 0.26177 0.19633 0.0
H639 H 0.2908 0.21384 0.19152 0.0
C640 C 0.26999 0.17075 0.13174 0.0
N641 N 0.26211 0.17065 0.14478 0.0
C642 C 0.2818 0.14223 0.1257 0.0
C643 C 0.27854 0.11454 0.14675 0.0
C644 C 0.26662 0.14355 0.15237 0.0
C645 C 0.28451 0.11246 0.13293 0.0
H646 H 0.26738 0.19314 0.12604 0.0
H647 H 0.26131 0.14463 0.16288 0.0
C648 C 0.21525 0.30768 0.17385 0.0
N649 N 0.22046 0.36773 0.18648 0.0
C650 C 0.18969 0.33053 0.173 0.0
C651 C 0.24332 0.31525 0.1812 0.0
C652 C 0.19284 0.3608 0.17942 0.0
C653 C 0.24552 0.34576 0.1875 0.0
C654 C 0.20884 0.26027 0.13098 0.0
C655 C 0.19272 0.28938 0.13447 0.0
C656 C 0.21062 0.25102 0.11766 0.0
C657 C 0.17871 0.30879 0.12454 0.0
C658 C 0.19629 0.2711 0.10802 0.0
N659 N 0.18077 0.29934 0.11164 0.0
C660 C 0.29531 0.29903 0.13859 0.0
C661 C 0.25741 0.33829 0.14688 0.0
C662 C 0.31413 0.32384 0.13282 0.0
N663 N 0.26786 0.30665 0.14562 0.0
C664 C 0.27564 0.36394 0.14134 0.0
C665 C 0.30446 0.3567 0.13432 0.0
H666 H 0.30282 0.27361 0.13766 0.0
H667 H 0.23513 0.34373 0.15223 0.0
C668 C 0.13122 0.25467 0.16415 0.0
N669 N 0.15012 0.24132 0.15444 0.0
C670 C 0.0971 0.25445 0.163 0.0
C671 C 0.10263 0.22719 0.14177 0.0
C672 C 0.13668 0.2277 0.14338 0.0
C673 C 0.08265 0.24054 0.15172 0.0
H674 H 0.14271 0.26503 0.17288 0.0
H675 H 0.15239 0.21693 0.13591 0.0
O676 O 0.2759 0.23839 0.1618 0.0
O677 O 0.21313 0.20159 0.16712 0.0
O678 O 0.2124 0.27799 0.16757 0.0
O679 O 0.22283 0.24077 0.14049 0.0
H680 H 0.31564 0.18778 0.16539 0.0
H681 H 0.30799 0.29321 0.16798 0.0
H682 H 0.37311 0.19177 0.17346 0.0
H683 H 0.36536 0.2953 0.17609 0.0
H684 H 0.13742 0.12838 0.15218 0.0
H685 H 0.17209 0.20524 0.1874 0.0
H686 H 0.18991 0.15892 0.1497 0.0
H687 H 0.11987 0.17395 0.18921 0.0
H688 H 0.29956 0.21316 0.21576 0.0
H689 H 0.20609 0.26172 0.22071 0.0
H690 H 0.28948 0.14434 0.11549 0.0
H691 H 0.2837 0.0948 0.15353 0.0
H692 H 0.16775 0.325 0.16736 0.0
H693 H 0.26306 0.29768 0.18214 0.0
H694 H 0.17332 0.37879 0.1788 0.0
H695 H 0.26711 0.35193 0.19324 0.0
H696 H 0.19094 0.29694 0.1447 0.0
H697 H 0.22294 0.22853 0.11479 0.0
H698 H 0.16618 0.33137 0.12711 0.0
H699 H 0.19749 0.26424 0.09767 0.0
H700 H 0.33631 0.31758 0.12745 0.0
H701 H 0.26759 0.38914 0.14261 0.0
H702 H 0.08212 0.26484 0.17082 0.0
H703 H 0.09196 0.2162 0.13299 0.0
Li704 Li 0.78616 0.25478 0.17659 0.0
Li705 Li 0.77916 0.28512 0.15496 0.0
Li706 Li 0.77517 0.22719 0.15603 0.0
Li707 Li 0.82826 0.25117 0.15802 0.0
C708 C 0.71726 0.24381 0.16563 0.0
N709 N 0.65789 0.21084 0.16582 0.0
C710 C 0.69432 0.24923 0.15556 0.0
C711 C 0.70994 0.22171 0.17583 0.0
C712 C 0.66446 0.23232 0.15583 0.0
C713 C 0.67981 0.20526 0.17574 0.0
C714 C 0.82152 0.31987 0.17393 0.0
C715 C 0.85687 0.36725 0.17586 0.0
N716 N 0.83596 0.3804 0.18495 0.0
C717 C 0.80039 0.33386 0.18329 0.0
C718 C 0.85004 0.33665 0.1702 0.0
C719 C 0.80812 0.36448 0.18874 0.0
C720 C 0.80454 0.24417 0.20312 0.0
N721 N 0.78035 0.25605 0.19516 0.0
C722 C 0.74718 0.26949 0.21392 0.0
C723 C 0.75206 0.26862 0.20024 0.0
C724 C 0.7717 0.25732 0.22234 0.0
C725 C 0.80069 0.24458 0.21688 0.0
H726 H 0.82673 0.23432 0.19875 0.0
H727 H 0.73334 0.278 0.19364 0.0
C728 C 0.74079 0.31647 0.13632 0.0
N729 N 0.76066 0.32312 0.14682 0.0
C730 C 0.72227 0.34141 0.1305 0.0
C731 C 0.74674 0.38017 0.14578 0.0
C732 C 0.76459 0.35437 0.15139 0.0
C733 C 0.72462 0.37347 0.13548 0.0
H734 H 0.73857 0.29147 0.13276 0.0
H735 H 0.78076 0.35932 0.15959 0.0
C736 C 0.81496 0.18315 0.1685 0.0
N737 N 0.82527 0.11621 0.16661 0.0
C738 C 0.82687 0.16956 0.15672 0.0
C739 C 0.80847 0.1628 0.17935 0.0
C740 C 0.83185 0.13563 0.15595 0.0
C741 C 0.81382 0.12898 0.17819 0.0
C742 C 0.81452 0.26931 0.13236 0.0
C743 C 0.81559 0.25596 0.1196 0.0
C744 C 0.83005 0.2993 0.1349 0.0
C745 C 0.83221 0.27288 0.10958 0.0
C746 C 0.84639 0.31549 0.12462 0.0
N747 N 0.84714 0.30205 0.11227 0.0
C748 C 0.74385 0.19302 0.13555 0.0
C749 C 0.74091 0.16552 0.15627 0.0
C750 C 0.72458 0.16877 0.12961 0.0
N751 N 0.75144 0.19107 0.14866 0.0
C752 C 0.72155 0.14075 0.15074 0.0
C753 C 0.71305 0.14252 0.1373 0.0
H754 H 0.7521 0.21387 0.1298 0.0
H755 H 0.74669 0.16484 0.16671 0.0
C756 C 0.89383 0.25918 0.16486 0.0
N757 N 0.87393 0.24767 0.15509 0.0
C758 C 0.92785 0.25747 0.16348 0.0
C759 C 0.92026 0.23138 0.14212 0.0
C760 C 0.88631 0.23384 0.14387 0.0
C761 C 0.94122 0.24343 0.15202 0.0
H762 H 0.8832 0.26961 0.17374 0.0
H763 H 0.86987 0.22458 0.13633 0.0
O764 O 0.74677 0.25995 0.1655 0.0
O765 O 0.81468 0.28966 0.16862 0.0
O766 O 0.80942 0.21621 0.16939 0.0
O767 O 0.79861 0.25268 0.14226 0.0
H768 H 0.69949 0.26623 0.1476 0.0
H769 H 0.72757 0.21683 0.18361 0.0
H770 H 0.64653 0.2362 0.14807 0.0
H771 H 0.67394 0.18791 0.18352 0.0
H772 H 0.87882 0.38052 0.17305 0.0
H773 H 0.77799 0.32151 0.18614 0.0
H774 H 0.86673 0.32622 0.16299 0.0
H775 H 0.79192 0.37564 0.19596 0.0
H776 H 0.72458 0.27948 0.21791 0.0
H777 H 0.81999 0.23503 0.22319 0.0
H778 H 0.70553 0.3356 0.12249 0.0
H779 H 0.74915 0.40481 0.14974 0.0
H780 H 0.83171 0.185 0.14821 0.0
H781 H 0.79917 0.17302 0.18853 0.0
H782 H 0.84085 0.12471 0.14687 0.0
H783 H 0.80879 0.11288 0.18648 0.0
H784 H 0.80385 0.23267 0.11747 0.0
H785 H 0.82947 0.31006 0.14466 0.0
H786 H 0.83328 0.2628 0.09966 0.0
H787 H 0.85849 0.33874 0.12645 0.0
H788 H 0.71809 0.17082 0.11923 0.0
H789 H 0.71265 0.12086 0.15691 0.0
H790 H 0.94358 0.26674 0.1713 0.0
H791 H 0.93008 0.22026 0.13321 0.0
Li792 Li 0.74169 0.742 0.67325 0.0
Li793 Li 0.74492 0.71097 0.6524 0.0
Li794 Li 0.74938 0.7727 0.6523 0.0
Li795 Li 0.69727 0.7445 0.65605 0.0
C796 C 0.80974 0.7439 0.66572 0.0
N797 N 0.87192 0.75285 0.67613 0.0
C798 C 0.83131 0.71729 0.66681 0.0
C799 C 0.82003 0.77516 0.66972 0.0
C800 C 0.86257 0.72228 0.67216 0.0
C801 C 0.85149 0.77916 0.67501 0.0
C802 C 0.71061 0.67341 0.669 0.0
C803 C 0.69367 0.61913 0.66221 0.0
N804 N 0.70894 0.60622 0.67301 0.0
C805 C 0.72593 0.65965 0.68009 0.0
C806 C 0.69412 0.65305 0.66003 0.0
C807 C 0.72486 0.62561 0.68193 0.0
C808 C 0.72447 0.75266 0.69959 0.0
N809 N 0.74962 0.74197 0.69184 0.0
C810 C 0.78304 0.7322 0.71091 0.0
C811 C 0.77845 0.73152 0.6972 0.0
C812 C 0.7575 0.74324 0.7191 0.0
C813 C 0.72788 0.75347 0.71336 0.0
H814 H 0.70173 0.76055 0.69505 0.0
H815 H 0.79779 0.72234 0.69092 0.0
C816 C 0.75782 0.66793 0.63115 0.0
N817 N 0.76092 0.67165 0.64444 0.0
C818 C 0.76908 0.63942 0.62493 0.0
C819 C 0.78754 0.61952 0.64612 0.0
C820 C 0.77612 0.64849 0.65191 0.0
C821 C 0.78266 0.6133 0.63243 0.0
H822 H 0.74718 0.68747 0.6253 0.0
H823 H 0.77978 0.65268 0.66239 0.0
C824 C 0.71699 0.81167 0.67187 0.0
N825 N 0.71719 0.87414 0.68269 0.0
C826 C 0.69152 0.83362 0.66903 0.0
C827 C 0.74223 0.82133 0.68042 0.0
C828 C 0.69216 0.86515 0.67453 0.0
C829 C 0.74197 0.85305 0.68574 0.0
C830 C 0.70281 0.74667 0.63 0.0
C831 C 0.69994 0.77652 0.62323 0.0
C832 C 0.68218 0.72045 0.62668 0.0
C833 C 0.67608 0.77979 0.61336 0.0
C834 C 0.65858 0.72472 0.61678 0.0
N835 N 0.65603 0.75406 0.61038 0.0
C836 C 0.80138 0.80405 0.63941 0.0
C837 C 0.75588 0.83914 0.6434 0.0
C838 C 0.81897 0.82991 0.63375 0.0
N839 N 0.77069 0.80922 0.64429 0.0
C840 C 0.77259 0.86573 0.63779 0.0
C841 C 0.8046 0.86113 0.63303 0.0
H842 H 0.81228 0.77985 0.64001 0.0
H843 H 0.7311 0.84236 0.64696 0.0
C844 C 0.6317 0.72372 0.65865 0.0
N845 N 0.65112 0.74792 0.65365 0.0
C846 C 0.59763 0.72573 0.65742 0.0
C847 C 0.6042 0.77744 0.64585 0.0
C848 C 0.63815 0.7745 0.64735 0.0
C849 C 0.58369 0.75293 0.65103 0.0
H850 H 0.64263 0.70308 0.66374 0.0
H851 H 0.65417 0.79351 0.64357 0.0
O852 O 0.77898 0.73934 0.66054 0.0
O853 O 0.71166 0.70665 0.66696 0.0
O854 O 0.71665 0.78068 0.66657 0.0
O855 O 0.7257 0.74316 0.63981 0.0
H856 H 0.82396 0.693 0.66364 0.0
H857 H 0.80411 0.79621 0.66862 0.0
H858 H 0.87941 0.70185 0.67315 0.0
H859 H 0.85971 0.80321 0.67817 0.0
H860 H 0.68121 0.60305 0.65529 0.0
H861 H 0.7387 0.67502 0.68716 0.0
H862 H 0.68203 0.66331 0.65143 0.0
H863 H 0.73675 0.6146 0.69043 0.0
H864 H 0.8061 0.72393 0.71511 0.0
H865 H 0.7077 0.76196 0.71946 0.0
H866 H 0.76787 0.63927 0.61428 0.0
H867 H 0.80107 0.60294 0.65244 0.0
H868 H 0.67156 0.82648 0.66257 0.0
H869 H 0.76161 0.80446 0.68307 0.0
H870 H 0.67274 0.88245 0.67232 0.0
H871 H 0.76141 0.86083 0.69235 0.0
H872 H 0.71581 0.79701 0.62564 0.0
H873 H 0.6842 0.69716 0.63179 0.0
H874 H 0.67346 0.8028 0.60808 0.0
H875 H 0.64226 0.70473 0.61419 0.0
H876 H 0.84358 0.82568 0.63004 0.0
H877 H 0.76081 0.88956 0.63719 0.0
H878 H 0.58228 0.70654 0.66156 0.0
H879 H 0.59399 0.79876 0.6409 0.0
Li880 Li 0.69203 0.25398 0.34246 0.0
Li881 Li 0.74233 0.22438 0.34462 0.0
Li882 Li 0.74284 0.28322 0.34643 0.0
Li883 Li 0.73344 0.25581 0.32452 0.0
C884 C 0.70564 0.23226 0.36772 0.0
N885 N 0.67509 0.19291 0.38636 0.0
C886 C 0.69186 0.20216 0.36398 0.0
C887 C 0.70382 0.24234 0.38095 0.0
C888 C 0.67655 0.18262 0.37355 0.0
C889 C 0.68828 0.22211 0.39023 0.0
C890 C 0.7059 0.18889 0.32432 0.0
C891 C 0.72673 0.15101 0.30795 0.0
N892 N 0.70125 0.13034 0.31053 0.0
C893 C 0.67982 0.16735 0.32676 0.0
C894 C 0.72949 0.18072 0.3148 0.0
C895 C 0.67796 0.13783 0.31972 0.0
C896 C 0.62742 0.24241 0.33507 0.0
N897 N 0.64614 0.25409 0.34518 0.0
C898 C 0.59834 0.26685 0.35791 0.0
C899 C 0.63246 0.26612 0.35649 0.0
C900 C 0.57854 0.25492 0.34761 0.0
C901 C 0.59329 0.24248 0.3361 0.0
H902 H 0.63908 0.23334 0.32615 0.0
H903 H 0.648 0.27551 0.36431 0.0
C904 C 0.78087 0.19273 0.36334 0.0
N905 N 0.76399 0.18666 0.35196 0.0
C906 C 0.80046 0.16837 0.36901 0.0
C907 C 0.78366 0.13125 0.35155 0.0
C908 C 0.76456 0.15644 0.34616 0.0
C909 C 0.80225 0.13746 0.36296 0.0
H910 H 0.77992 0.21692 0.36778 0.0
H911 H 0.75097 0.15187 0.33721 0.0
C912 C 0.68961 0.31979 0.33562 0.0
N913 N 0.6498 0.37285 0.34145 0.0
C914 C 0.67437 0.33729 0.32541 0.0
C915 C 0.68458 0.3292 0.34879 0.0
C916 C 0.65434 0.36408 0.32857 0.0
C917 C 0.66438 0.35611 0.35154 0.0
C918 C 0.80349 0.24327 0.33802 0.0
C919 C 0.8219 0.25396 0.3489 0.0
C920 C 0.81665 0.2198 0.32941 0.0
C921 C 0.85313 0.24075 0.35104 0.0
C922 C 0.84801 0.20727 0.33186 0.0
N923 N 0.86544 0.21789 0.34254 0.0
C924 C 0.76652 0.32122 0.36774 0.0
C925 C 0.77834 0.34218 0.34629 0.0
C926 C 0.7854 0.3459 0.3736 0.0
N927 N 0.7638 0.31964 0.35432 0.0
C928 C 0.79749 0.36724 0.35173 0.0
C929 C 0.80152 0.36878 0.36551 0.0
H930 H 0.75502 0.30263 0.37382 0.0
H931 H 0.77594 0.33995 0.33564 0.0
C932 C 0.71418 0.25436 0.29782 0.0
N933 N 0.74016 0.25896 0.30607 0.0
C934 C 0.7188 0.25473 0.2841 0.0
C935 C 0.77671 0.26497 0.28773 0.0
C936 C 0.77096 0.26448 0.30136 0.0
C937 C 0.75042 0.25985 0.279 0.0
H938 H 0.69003 0.24989 0.30191 0.0
H939 H 0.79109 0.26806 0.30821 0.0
O940 O 0.72057 0.25206 0.35854 0.0
O941 O 0.7076 0.2182 0.33096 0.0
O942 O 0.70885 0.2932 0.33269 0.0
O943 O 0.7729 0.256 0.33574 0.0
H944 H 0.69299 0.19387 0.35384 0.0
H945 H 0.71419 0.26563 0.38402 0.0
H946 H 0.66583 0.15926 0.37078 0.0
H947 H 0.68669 0.22964 0.40049 0.0
H948 H 0.74488 0.14435 0.30058 0.0
H949 H 0.66116 0.1734 0.33401 0.0
H950 H 0.7499 0.19693 0.3128 0.0
H951 H 0.65796 0.1209 0.32153 0.0
H952 H 0.5875 0.27678 0.36686 0.0
H953 H 0.57851 0.23332 0.32797 0.0
H954 H 0.81471 0.1738 0.37781 0.0
H955 H 0.78476 0.10755 0.34667 0.0
H956 H 0.67792 0.33017 0.31517 0.0
H957 H 0.69585 0.31568 0.35683 0.0
H958 H 0.64237 0.37786 0.32077 0.0
H959 H 0.6602 0.36362 0.36169 0.0
H960 H 0.81213 0.27207 0.35568 0.0
H961 H 0.80284 0.21136 0.32091 0.0
H962 H 0.86758 0.24867 0.35945 0.0
H963 H 0.85847 0.18904 0.32529 0.0
H964 H 0.78839 0.34644 0.38427 0.0
H965 H 0.80992 0.38453 0.34528 0.0
H966 H 0.69811 0.25069 0.27755 0.0
H967 H 0.80136 0.26896 0.28402 0.0
Li968 Li 0.7729 0.77316 0.84321 0.0
Li969 Li 0.82225 0.74267 0.84026 0.0
Li970 Li 0.78308 0.74366 0.82235 0.0
Li971 Li 0.77217 0.71205 0.84349 0.0
C972 C 0.80556 0.81177 0.82458 0.0
N973 N 0.80047 0.8743 0.81408 0.0
C974 C 0.83039 0.83485 0.82681 0.0
C975 C 0.77825 0.82041 0.81696 0.0
C976 C 0.82733 0.86637 0.82144 0.0
C977 C 0.7761 0.85215 0.81174 0.0
C978 C 0.8063 0.76024 0.86651 0.0
C979 C 0.81163 0.77004 0.88999 0.0
N980 N 0.83096 0.79656 0.88741 0.0
C981 C 0.8262 0.7876 0.86409 0.0
C982 C 0.79892 0.75136 0.87955 0.0
C983 C 0.83845 0.80564 0.87478 0.0
C984 C 0.72028 0.80381 0.85533 0.0
N985 N 0.75152 0.80953 0.85118 0.0
C986 C 0.74959 0.86444 0.85961 0.0
C987 C 0.76646 0.83904 0.85323 0.0
C988 C 0.7171 0.85924 0.86373 0.0
C989 C 0.70239 0.82858 0.86155 0.0
H990 H 0.70933 0.77987 0.85385 0.0
H991 H 0.79155 0.84276 0.8501 0.0
C992 C 0.88709 0.75707 0.83401 0.0
N993 N 0.86808 0.74276 0.84346 0.0
C994 C 0.92111 0.75761 0.83542 0.0
C995 C 0.91533 0.7288 0.8563 0.0
C996 C 0.88132 0.72886 0.8545 0.0
C997 C 0.93542 0.7433 0.84665 0.0
H998 H 0.87576 0.76771 0.82532 0.0
H999 H 0.86549 0.7175 0.8618 0.0
C1000 C 0.71278 0.74269 0.82828 0.0
N1001 N 0.65069 0.74154 0.81722 0.0
C1002 C 0.69657 0.71276 0.82634 0.0
C1003 C 0.69726 0.77206 0.82471 0.0
C1004 C 0.66523 0.71269 0.8207 0.0
C1005 C 0.66591 0.77095 0.8191 0.0
C1006 C 0.83466 0.68817 0.8275 0.0
C1007 C 0.85173 0.69249 0.81561 0.0
C1008 C 0.84785 0.66805 0.8374 0.0
C1009 C 0.88185 0.67662 0.81382 0.0
C1010 C 0.87804 0.65262 0.83523 0.0
N1011 N 0.89425 0.65716 0.82358 0.0
C1012 C 0.80149 0.75849 0.79619 0.0
C1013 C 0.75112 0.72947 0.79782 0.0
C1014 C 0.79915 0.75897 0.78238 0.0
N1015 N 0.77761 0.74397 0.80359 0.0
C1016 C 0.74753 0.72981 0.78407 0.0
C1017 C 0.77182 0.7446 0.77623 0.0
H1018 H 0.82253 0.76945 0.80103 0.0
H1019 H 0.73294 0.71731 0.80383 0.0
C1020 C 0.72174 0.68396 0.85775 0.0
N1021 N 0.74969 0.67619 0.85109 0.0
C1022 C 0.70274 0.65929 0.86348 0.0
C1023 C 0.74223 0.6191 0.85577 0.0
C1024 C 0.7602 0.64457 0.84995 0.0
C1025 C 0.71298 0.62647 0.86251 0.0
H1026 H 0.71409 0.70938 0.85845 0.0
H1027 H 0.78235 0.63911 0.84447 0.0
O1028 O 0.80812 0.78096 0.82991 0.0
O1029 O 0.79377 0.74226 0.85622 0.0
O1030 O 0.74333 0.74323 0.83394 0.0
O1031 O 0.80537 0.70388 0.82951 0.0
H1032 H 0.8517 0.82852 0.8327 0.0
H1033 H 0.75901 0.80276 0.81503 0.0
H1034 H 0.84629 0.88453 0.82313 0.0
H1035 H 0.75509 0.85917 0.80582 0.0
H1036 H 0.8061 0.76346 0.90014 0.0
H1037 H 0.83212 0.79492 0.85407 0.0
H1038 H 0.78347 0.73027 0.88158 0.0
H1039 H 0.85387 0.82687 0.87305 0.0
H1040 H 0.76163 0.88782 0.8613 0.0
H1041 H 0.67743 0.82381 0.86475 0.0
H1042 H 0.93617 0.76878 0.82779 0.0
H1043 H 0.92588 0.71739 0.86502 0.0
H1044 H 0.70822 0.68979 0.82901 0.0
H1045 H 0.70911 0.7955 0.82636 0.0
H1046 H 0.65248 0.6897 0.81907 0.0
H1047 H 0.65364 0.79348 0.81628 0.0
H1048 H 0.84191 0.70801 0.80786 0.0
H1049 H 0.83523 0.66489 0.84675 0.0
H1050 H 0.89538 0.6798 0.80468 0.0
H1051 H 0.88866 0.63717 0.84283 0.0
H1052 H 0.81839 0.77037 0.77656 0.0
H1053 H 0.72629 0.71829 0.77956 0.0
H1054 H 0.68029 0.66569 0.86864 0.0
H1055 H 0.75071 0.59395 0.85489 0.0
Li1056 Li 0.5077 0.52677 0.07438 0.0
Li1057 Li 0.5059 0.56625 0.09291 0.0
Li1058 Li 0.53768 0.51572 0.09549 0.0
Li1059 Li 0.47745 0.51644 0.09446 0.0
C1060 C 0.56298 0.57366 0.07571 0.0
N1061 N 0.59941 0.61963 0.06188 0.0
C1062 C 0.54771 0.60145 0.07035 0.0
C1063 C 0.59672 0.56914 0.07393 0.0
C1064 C 0.56657 0.62446 0.06343 0.0
C1065 C 0.61471 0.59266 0.06692 0.0
C1066 C 0.43614 0.54888 0.08071 0.0
C1067 C 0.3826 0.55816 0.09027 0.0
N1068 N 0.3688 0.54012 0.08038 0.0
C1069 C 0.42138 0.53068 0.07058 0.0
C1070 C 0.41657 0.56296 0.09059 0.0
C1071 C 0.38732 0.52644 0.07061 0.0
C1072 C 0.49168 0.49226 0.05118 0.0
N1073 N 0.50859 0.51895 0.05564 0.0
C1074 C 0.52508 0.53239 0.03355 0.0
C1075 C 0.5253 0.53879 0.04713 0.0
C1076 C 0.50755 0.5053 0.02874 0.0
C1077 C 0.49079 0.48493 0.03766 0.0
H1078 H 0.47864 0.47678 0.05813 0.0
H1079 H 0.53878 0.55964 0.05077 0.0
C1080 C 0.53488 0.62481 0.10248 0.0
N1081 N 0.5073 0.61198 0.09687 0.0
C1082 C 0.53773 0.65869 0.10433 0.0
C1083 C 0.48381 0.66544 0.09459 0.0
C1084 C 0.48188 0.63143 0.09303 0.0
C1085 C 0.51213 0.67925 0.10016 0.0
H1086 H 0.55501 0.60877 0.10514 0.0
H1087 H 0.46064 0.62065 0.0883 0.0
C1088 C 0.52637 0.46239 0.07899 0.0
N1089 N 0.56364 0.41449 0.06669 0.0
C1090 C 0.5157 0.42973 0.0789 0.0
C1091 C 0.55602 0.4707 0.07284 0.0
C1092 C 0.53489 0.40587 0.07263 0.0
C1093 C 0.57449 0.44613 0.06667 0.0
C1094 C 0.51048 0.55654 0.1186 0.0
C1095 C 0.5407 0.55815 0.12514 0.0
C1096 C 0.48482 0.57712 0.12261 0.0
C1097 C 0.54492 0.58071 0.13545 0.0
C1098 C 0.49004 0.59942 0.13294 0.0
N1099 N 0.51974 0.60075 0.13908 0.0
C1100 C 0.60408 0.51031 0.10427 0.0
C1101 C 0.57052 0.46307 0.10705 0.0
C1102 C 0.631 0.49378 0.1097 0.0
N1103 N 0.57472 0.49465 0.10299 0.0
C1104 C 0.59675 0.44557 0.11239 0.0
C1105 C 0.62737 0.46096 0.11371 0.0
H1106 H 0.60644 0.53568 0.10121 0.0
H1107 H 0.54673 0.45147 0.1061 0.0
C1108 C 0.42972 0.46692 0.09411 0.0
N1109 N 0.44046 0.49334 0.10114 0.0
C1110 C 0.40522 0.44663 0.09926 0.0
C1111 C 0.40232 0.48196 0.11854 0.0
C1112 C 0.42713 0.5014 0.11306 0.0
C1113 C 0.39177 0.45383 0.11172 0.0
H1114 H 0.44093 0.46111 0.08467 0.0
H1115 H 0.43638 0.52235 0.11849 0.0
O1116 O 0.54521 0.55112 0.0828 0.0
O1117 O 0.46957 0.55243 0.08109 0.0
O1118 O 0.50774 0.48594 0.08513 0.0
O1119 O 0.50604 0.53492 0.10834 0.0
H1120 H 0.52148 0.60493 0.07129 0.0
H1121 H 0.60888 0.54757 0.07784 0.0
H1122 H 0.55507 0.64606 0.05923 0.0
H1123 H 0.64085 0.58945 0.06547 0.0
H1124 H 0.36722 0.56869 0.09792 0.0
H1125 H 0.43603 0.51979 0.06281 0.0
H1126 H 0.42751 0.57708 0.09852 0.0
H1127 H 0.37562 0.51224 0.06286 0.0
H1128 H 0.53827 0.54848 0.02684 0.0
H1129 H 0.47708 0.4638 0.03418 0.0
H1130 H 0.56 0.66887 0.10854 0.0
H1131 H 0.46385 0.68089 0.09118 0.0
H1132 H 0.49285 0.42288 0.08364 0.0
H1133 H 0.56474 0.49579 0.07279 0.0
H1134 H 0.52694 0.38049 0.07248 0.0
H1135 H 0.59746 0.45221 0.06187 0.0
H1136 H 0.56074 0.54227 0.12227 0.0
H1137 H 0.46129 0.5763 0.11767 0.0
H1138 H 0.56825 0.58231 0.14055 0.0
H1139 H 0.4705 0.61573 0.13604 0.0
H1140 H 0.65432 0.50633 0.11077 0.0
H1141 H 0.59323 0.42034 0.11553 0.0
H1142 H 0.39754 0.42502 0.0938 0.0
H1143 H 0.39237 0.48801 0.1282 0.0
Li1144 Li 0.97736 0.48504 0.59521 0.0
Li1145 Li 0.03874 0.48874 0.59718 0.0
Li1146 Li 0.01141 0.4742 0.57593 0.0
Li1147 Li 0.01149 0.43623 0.59391 0.0
C1148 C 0.99812 0.54731 0.58704 0.0
N1149 N 0.97701 0.61172 0.58914 0.0
C1150 C 0.00915 0.56714 0.59746 0.0
C1151 C 0.97677 0.56045 0.57757 0.0
C1152 C 0.9981 0.59958 0.59838 0.0
C1153 C 0.96624 0.593 0.57884 0.0
C1154 C 0.00179 0.44528 0.61913 0.0
C1155 C 0.02295 0.40943 0.63614 0.0
N1156 N 0.99207 0.39781 0.63831 0.0
C1157 C 0.97026 0.43309 0.62155 0.0
C1158 C 0.02837 0.43347 0.62649 0.0
C1159 C 0.96586 0.40906 0.63128 0.0
C1160 C 0.90815 0.48869 0.59844 0.0
N1161 N 0.93723 0.50307 0.60171 0.0
C1162 C 0.90947 0.54381 0.6146 0.0
C1163 C 0.93842 0.52961 0.6099 0.0
C1164 C 0.87921 0.53006 0.61102 0.0
C1165 C 0.8786 0.50193 0.603 0.0
H1166 H 0.90784 0.46681 0.59238 0.0
H1167 H 0.96184 0.53962 0.61287 0.0
C1168 C 0.09612 0.52652 0.59666 0.0
N1169 N 0.0739 0.5121 0.60487 0.0
C1170 C 0.12074 0.54664 0.60185 0.0
C1171 C 0.09953 0.53591 0.62386 0.0
C1172 C 0.07526 0.51609 0.61824 0.0
C1173 C 0.12224 0.55173 0.61558 0.0
H1174 H 0.09409 0.52307 0.58605 0.0
H1175 H 0.05689 0.50471 0.62448 0.0
C1176 C 0.95257 0.44494 0.5722 0.0
N1177 N 0.91118 0.43941 0.5506 0.0
C1178 C 0.94716 0.41427 0.56632 0.0
C1179 C 0.93674 0.47272 0.56714 0.0
C1180 C 0.92618 0.412 0.5554 0.0
C1181 C 0.91598 0.46945 0.5562 0.0
C1182 C 0.0655 0.43194 0.57601 0.0
C1183 C 0.04778 0.40599 0.57042 0.0
C1184 C 0.09874 0.43577 0.57294 0.0
C1185 C 0.06363 0.38425 0.56182 0.0
C1186 C 0.11372 0.41354 0.56427 0.0
N1187 N 0.096 0.38845 0.55894 0.0
C1188 C 0.02299 0.51082 0.55274 0.0
C1189 C 0.00857 0.45526 0.54859 0.0
C1190 C 0.02461 0.51722 0.53915 0.0
N1191 N 0.01471 0.48034 0.55718 0.0
C1192 C 0.00979 0.46059 0.53494 0.0
C1193 C 0.01769 0.49192 0.53015 0.0
H1194 H 0.02818 0.53022 0.55976 0.0
H1195 H 0.00246 0.43115 0.55228 0.0
C1196 C 0.98624 0.3725 0.59692 0.0
N1197 N 0.01368 0.39107 0.59856 0.0
C1198 C 0.98755 0.33858 0.59882 0.0
C1199 C 0.04476 0.3439 0.605 0.0
C1200 C 0.04252 0.37769 0.6027 0.0
C1201 C 0.01724 0.32395 0.60265 0.0
H1202 H 0.96356 0.38398 0.59382 0.0
H1203 H 0.0639 0.39319 0.60392 0.0
O1204 O 0.00883 0.51551 0.58593 0.0
O1205 O 0.00672 0.46794 0.60932 0.0
O1206 O 0.97354 0.44782 0.58275 0.0
O1207 O 0.05067 0.45339 0.58458 0.0
H1208 H 0.0257 0.55751 0.60488 0.0
H1209 H 0.96858 0.54581 0.56926 0.0
H1210 H 0.00624 0.61508 0.60645 0.0
H1211 H 0.94962 0.60342 0.5716 0.0
H1212 H 0.0433 0.39989 0.64186 0.0
H1213 H 0.94949 0.44179 0.61585 0.0
H1214 H 0.05299 0.4424 0.62462 0.0
H1215 H 0.94163 0.39925 0.63322 0.0
H1216 H 0.91062 0.56519 0.62099 0.0
H1217 H 0.85553 0.4905 0.60028 0.0
H1218 H 0.13786 0.55878 0.59525 0.0
H1219 H 0.10005 0.53967 0.63449 0.0
H1220 H 0.95938 0.3925 0.57002 0.0
H1221 H 0.94045 0.49652 0.57164 0.0
H1222 H 0.92193 0.38846 0.5507 0.0
H1223 H 0.90367 0.49079 0.55216 0.0
H1224 H 0.022 0.40274 0.57262 0.0
H1225 H 0.11281 0.45573 0.57721 0.0
H1226 H 0.05018 0.36407 0.55741 0.0
H1227 H 0.13943 0.41622 0.56179 0.0
H1228 H 0.03095 0.54163 0.53569 0.0
H1229 H 0.00448 0.44057 0.52819 0.0
H1230 H 0.96586 0.3238 0.59701 0.0
H1231 H 0.06796 0.33324 0.60803 0.0
Li1232 Li 0.47284 0.48233 0.906 0.0
Li1233 Li 0.53267 0.48185 0.90557 0.0
Li1234 Li 0.50124 0.43156 0.9086 0.0
Li1235 Li 0.50441 0.47243 0.92615 0.0
C1236 C 0.50522 0.43911 0.88291 0.0
N1237 N 0.51314 0.39225 0.86333 0.0
C1238 C 0.53561 0.43534 0.87664 0.0
C1239 C 0.4788 0.41921 0.87916 0.0
C1240 C 0.53912 0.4115 0.86677 0.0
C1241 C 0.48333 0.39558 0.86927 0.0
C1242 C 0.51749 0.54216 0.91292 0.0
C1243 C 0.56144 0.58102 0.91643 0.0
N1244 N 0.54801 0.60118 0.90714 0.0
C1245 C 0.50408 0.56331 0.90342 0.0
C1246 C 0.54636 0.55111 0.9195 0.0
C1247 C 0.51989 0.59303 0.90064 0.0
C1248 C 0.42182 0.52863 0.90637 0.0
N1249 N 0.43563 0.50423 0.89903 0.0
C1250 C 0.40019 0.51604 0.8808 0.0
C1251 C 0.42512 0.49732 0.88655 0.0
C1252 C 0.38653 0.54221 0.88796 0.0
C1253 C 0.39703 0.54813 0.90097 0.0
H1254 H 0.43104 0.53374 0.91621 0.0
H1255 H 0.43685 0.47807 0.88089 0.0
C1256 C 0.60066 0.49582 0.90171 0.0
N1257 N 0.56958 0.50138 0.89731 0.0
C1258 C 0.62707 0.51263 0.89602 0.0
C1259 C 0.58887 0.53993 0.88128 0.0
C1260 C 0.56339 0.52216 0.88706 0.0
C1261 C 0.62103 0.53556 0.88591 0.0
H1262 H 0.60485 0.47879 0.90976 0.0
H1263 H 0.53845 0.52554 0.88364 0.0
C1264 C 0.43249 0.45244 0.92163 0.0
N1265 N 0.36606 0.46402 0.92471 0.0
C1266 C 0.42122 0.47154 0.93222 0.0
C1267 C 0.41 0.43909 0.91265 0.0
C1268 C 0.38752 0.47711 0.9336 0.0
C1269 C 0.37651 0.4453 0.91436 0.0
C1270 C 0.5568 0.43587 0.92939 0.0
C1271 C 0.55151 0.40406 0.9342 0.0
C1272 C 0.57741 0.45729 0.93634 0.0
C1273 C 0.56675 0.39431 0.94597 0.0
C1274 C 0.5921 0.44663 0.9481 0.0
N1275 N 0.58651 0.41563 0.95263 0.0
C1276 C 0.5287 0.37196 0.90008 0.0
C1277 C 0.47489 0.36745 0.90899 0.0
C1278 C 0.53043 0.338 0.89834 0.0
N1279 N 0.50123 0.38585 0.90532 0.0
C1280 C 0.47569 0.33336 0.90756 0.0
C1281 C 0.50384 0.31847 0.90229 0.0
H1282 H 0.54949 0.38725 0.89753 0.0
H1283 H 0.45366 0.37916 0.91336 0.0
C1284 C 0.51123 0.50815 0.95016 0.0
N1285 N 0.50506 0.47808 0.94482 0.0
C1286 C 0.51164 0.51221 0.96389 0.0
C1287 C 0.49887 0.4544 0.96635 0.0
C1288 C 0.49856 0.45149 0.95257 0.0
C1289 C 0.5055 0.48506 0.97207 0.0
H1290 H 0.5156 0.52899 0.94377 0.0
H1291 H 0.49312 0.42804 0.94801 0.0
O1292 O 0.50146 0.46191 0.89277 0.0
O1293 O 0.50272 0.51266 0.91561 0.0
O1294 O 0.46543 0.44743 0.91989 0.0
O1295 O 0.5415 0.44618 0.91805 0.0
H1296 H 0.55636 0.45043 0.87944 0.0
H1297 H 0.4552 0.42156 0.884 0.0
H1298 H 0.56253 0.40821 0.86187 0.0
H1299 H 0.46319 0.3798 0.86636 0.0
H1300 H 0.58388 0.58815 0.9214 0.0
H1301 H 0.48202 0.5567 0.89809 0.0
H1302 H 0.55731 0.53492 0.92676 0.0
H1303 H 0.50988 0.60954 0.89326 0.0
H1304 H 0.39259 0.5111 0.8707 0.0
H1305 H 0.38697 0.56832 0.90669 0.0
H1306 H 0.65174 0.50859 0.89969 0.0
H1307 H 0.58353 0.55729 0.87342 0.0
H1308 H 0.43828 0.48226 0.93921 0.0
H1309 H 0.41834 0.4245 0.90434 0.0
H1310 H 0.37845 0.49196 0.94171 0.0
H1311 H 0.35884 0.43534 0.90743 0.0
H1312 H 0.53552 0.38719 0.929 0.0
H1313 H 0.58166 0.48202 0.9328 0.0
H1314 H 0.56274 0.36982 0.94984 0.0
H1315 H 0.60787 0.46305 0.95364 0.0
H1316 H 0.55257 0.32696 0.89438 0.0
H1317 H 0.45498 0.31867 0.91079 0.0
H1318 H 0.51658 0.53621 0.9681 0.0
H1319 H 0.49382 0.43312 0.97247 0.0
Li1320 Li 0.01358 0.56831 0.41016 0.0
Li1321 Li 0.01493 0.52813 0.42758 0.0
Li1322 Li 0.04281 0.51675 0.40594 0.0
Li1323 Li 0.98212 0.51512 0.40794 0.0
C1324 C 0.0745 0.57649 0.42 0.0
N1325 N 0.11717 0.62931 0.42075 0.0
C1326 C 0.06861 0.60275 0.42864 0.0
C1327 C 0.10228 0.57693 0.41186 0.0
C1328 C 0.0904 0.62929 0.42883 0.0
C1329 C 0.12353 0.60388 0.41237 0.0
C1330 C 0.95822 0.55664 0.43211 0.0
C1331 C 0.91429 0.54144 0.44693 0.0
N1332 N 0.92444 0.56491 0.45563 0.0
C1333 C 0.96801 0.58084 0.44113 0.0
C1334 C 0.93101 0.53693 0.43497 0.0
C1335 C 0.95069 0.58454 0.45299 0.0
C1336 C 0.98664 0.63181 0.41104 0.0
N1337 N 0.01269 0.61421 0.40647 0.0
C1338 C 0.03868 0.66313 0.39857 0.0
C1339 C 0.0381 0.62902 0.40005 0.0
C1340 C 0.01258 0.6818 0.40357 0.0
C1341 C 0.98605 0.66593 0.40966 0.0
H1342 H 0.96662 0.61941 0.41599 0.0
H1343 H 0.05837 0.61448 0.3964 0.0
C1344 C 0.04033 0.5371 0.45351 0.0
N1345 N 0.01706 0.52134 0.44621 0.0
C1346 C 0.04137 0.53306 0.46725 0.0
C1347 C 0.99483 0.49625 0.46565 0.0
C1348 C 0.99466 0.50104 0.45196 0.0
C1349 C 0.01835 0.51247 0.4734 0.0
H1350 H 0.058 0.55286 0.44867 0.0
H1351 H 0.97642 0.48888 0.4459 0.0
C1352 C 0.01282 0.53602 0.38113 0.0
N1353 N 0.01992 0.53069 0.35394 0.0
C1354 C 0.00318 0.50729 0.37458 0.0
C1355 C 0.02555 0.56225 0.37378 0.0
C1356 C 0.0071 0.50501 0.36085 0.0
C1357 C 0.02909 0.55903 0.36006 0.0
C1358 C 0.01224 0.45409 0.41463 0.0
C1359 C 0.01737 0.44166 0.40188 0.0
C1360 C 0.00465 0.43248 0.42497 0.0
C1361 C 0.01427 0.40792 0.39962 0.0
C1362 C 0.00168 0.39888 0.42231 0.0
N1363 N 0.00649 0.3874 0.4098 0.0
C1364 C 0.09321 0.47055 0.40507 0.0
C1365 C 0.08903 0.50179 0.38528 0.0
C1366 C 0.11668 0.45008 0.39929 0.0
N1367 N 0.07919 0.49513 0.39789 0.0
C1368 C 0.1123 0.48181 0.37908 0.0
C1369 C 0.12569 0.45524 0.38606 0.0
H1370 H 0.08508 0.46598 0.41511 0.0
H1371 H 0.07825 0.52192 0.37988 0.0
C1372 C 0.92957 0.50499 0.39008 0.0
N1373 N 0.94376 0.49401 0.40146 0.0
C1374 C 0.90416 0.48712 0.3842 0.0
C1375 C 0.907 0.44832 0.40235 0.0
C1376 C 0.93232 0.46691 0.40787 0.0
C1377 C 0.89329 0.45807 0.39024 0.0
H1378 H 0.93885 0.52692 0.38531 0.0
H1379 H 0.94341 0.45927 0.41709 0.0
O1380 O 0.05334 0.55039 0.41957 0.0
O1381 O 0.97535 0.55209 0.42059 0.0
O1382 O 0.00928 0.53883 0.39459 0.0
O1383 O 0.01501 0.48712 0.41708 0.0
H1384 H 0.04722 0.60284 0.43499 0.0
H1385 H 0.10727 0.55676 0.40516 0.0
H1386 H 0.08598 0.64991 0.43537 0.0
H1387 H 0.14504 0.60463 0.40608 0.0
H1388 H 0.89331 0.52623 0.44932 0.0
H1389 H 0.98896 0.59635 0.43904 0.0
H1390 H 0.92305 0.51817 0.42808 0.0
H1391 H 0.95818 0.60296 0.46012 0.0
H1392 H 0.05948 0.67487 0.39383 0.0
H1393 H 0.96562 0.6799 0.41362 0.0
H1394 H 0.05983 0.54582 0.47302 0.0
H1395 H 0.97677 0.48022 0.47018 0.0
H1396 H 0.9924 0.48705 0.37996 0.0
H1397 H 0.03279 0.58481 0.3786 0.0
H1398 H -0.00019 0.48286 0.35569 0.0
H1399 H 0.03912 0.57907 0.35429 0.0
H1400 H 0.02419 0.45777 0.39386 0.0
H1401 H 0.00096 0.44153 0.43494 0.0
H1402 H 0.0182 0.39803 0.38979 0.0
H1403 H 0.99561 0.38193 0.43021 0.0
H1404 H 0.1267 0.42967 0.40488 0.0
H1405 H 0.11902 0.48637 0.36886 0.0
H1406 H 0.8939 0.49516 0.37484 0.0
H1407 H 0.8989 0.42602 0.40724 0.0
C1408 C 0.99664 0.23562 0.61154 0.0
C1409 C 0.01771 0.21822 0.6028 0.0
C1410 C 0.03933 0.27013 0.59419 0.0
C1411 C 0.01963 0.28756 0.60344 0.0
N1412 N 0.98592 0.28679 0.6231 0.0
N1413 N 0.06548 0.21851 0.58865 0.0
C1414 C 0.00033 0.27022 0.61285 0.0
C1415 C 0.0412 0.23541 0.59507 0.0
N1416 N 0.97201 0.21949 0.61807 0.0
N1417 N 0.05468 0.28639 0.58407 0.0
H1418 H 0.06792 0.193 0.58928 0.0
H1419 H 0.08506 0.23004 0.58389 0.0
H1420 H 0.05314 0.31175 0.5827 0.0
H1421 H 0.06636 0.27433 0.57627 0.0
H1422 H 0.95373 0.23158 0.6234 0.0
H1423 H 0.96819 0.19422 0.61728 0.0
H1424 H 0.97413 0.27504 0.63095 0.0
H1425 H 0.98856 0.3121 0.62443 0.0
C1426 C 0.98773 0.76521 0.85646 0.0
C1427 C 0.97163 0.74263 0.84793 0.0
C1428 C 0.02451 0.72424 0.8391 0.0
C1429 C 0.04072 0.74558 0.84811 0.0
N1430 N 0.03865 0.78161 0.86707 0.0
N1431 N 0.97421 0.69589 0.83326 0.0
C1432 C 0.02257 0.76464 0.85733 0.0
C1433 C 0.98992 0.72063 0.83991 0.0
N1434 N 0.9698 0.78798 0.86332 0.0
N1435 N 0.04199 0.70853 0.8294 0.0
H1436 H 0.94883 0.69252 0.83366 0.0
H1437 H 0.98648 0.67699 0.82836 0.0
H1438 H 0.06742 0.71051 0.82844 0.0
H1439 H 0.03107 0.69567 0.82164 0.0
H1440 H 0.98029 0.80746 0.86851 0.0
H1441 H 0.9442 0.78887 0.86307 0.0
H1442 H 0.02672 0.79323 0.87491 0.0
H1443 H 0.06419 0.78175 0.86796 0.0
C1444 C 0.52994 0.73219 0.08983 0.0
C1445 C 0.5157 0.71544 0.10075 0.0
C1446 C 0.50615 0.76786 0.11213 0.0
C1447 C 0.51729 0.78463 0.10065 0.0
N1448 N 0.53769 0.78385 0.07821 0.0
N1449 N 0.48859 0.71625 0.12198 0.0
C1450 C 0.52885 0.76709 0.08942 0.0
C1451 C 0.50349 0.73298 0.11187 0.0
N1452 N 0.54481 0.71465 0.07993 0.0
N1453 N 0.4986 0.78536 0.12331 0.0
H1454 H 0.48736 0.69063 0.12233 0.0
H1455 H 0.47584 0.72757 0.12967 0.0
H1456 H 0.49976 0.81098 0.12372 0.0
H1457 H 0.49347 0.77464 0.13244 0.0
H1458 H 0.55883 0.72527 0.07244 0.0
H1459 H 0.5452 0.68901 0.07967 0.0
H1460 H 0.54254 0.77259 0.06915 0.0
H1461 H 0.53829 0.80945 0.07767 0.0
C1462 C 0.52511 0.2336 0.35667 0.0
C1463 C 0.54225 0.25634 0.34855 0.0
C1464 C 0.49028 0.27667 0.33952 0.0
C1465 C 0.47304 0.25526 0.34819 0.0
N1466 N 0.47337 0.21836 0.36689 0.0
N1467 N 0.5415 0.30435 0.33452 0.0
C1468 C 0.49028 0.23523 0.35736 0.0
C1469 C 0.5249 0.27941 0.34068 0.0
N1470 N 0.54199 0.20964 0.36331 0.0
N1471 N 0.47378 0.29324 0.32978 0.0
H1472 H 0.56692 0.30723 0.33522 0.0
H1473 H 0.52985 0.32388 0.32978 0.0
H1474 H 0.4484 0.29179 0.32851 0.0
H1475 H 0.48551 0.30625 0.32225 0.0
H1476 H 0.53061 0.19014 0.36817 0.0
H1477 H 0.56754 0.20775 0.36311 0.0
H1478 H 0.48471 0.20601 0.37469 0.0
H1479 H 0.44782 0.21912 0.3677 0.0
C1480 C 0.02798 0.77039 0.41391 0.0
C1481 C 0.01356 0.7874 0.40309 0.0
C1482 C 0.0018 0.73516 0.3919 0.0
C1483 C 0.01388 0.71817 0.40317 0.0
N1484 N 0.03648 0.71846 0.42527 0.0
N1485 N 0.98486 0.78716 0.3822 0.0
C1486 C 0.02657 0.73548 0.41427 0.0
C1487 C 3e-05 0.7701 0.39216 0.0
N1488 N 0.04341 0.7877 0.42375 0.0
N1489 N 0.99256 0.71781 0.38089 0.0
H1490 H 0.98436 0.81279 0.38179 0.0
H1491 H 0.97122 0.77618 0.37468 0.0
H1492 H 0.99264 0.69217 0.38053 0.0
H1493 H 0.98678 0.72856 0.37183 0.0
H1494 H 0.05769 0.77694 0.43112 0.0
H1495 H 0.04374 0.81333 0.42414 0.0
H1496 H 0.04228 0.72944 0.43429 0.0
H1497 H 0.03722 0.69284 0.4257 0.0
C1498 C 0.49485 0.73542 0.64189 0.0
C1499 C 0.47832 0.75809 0.65024 0.0
C1500 C 0.53088 0.77781 0.65897 0.0
C1501 C 0.54749 0.75612 0.65022 0.0
N1502 N 0.5462 0.71902 0.63159 0.0
N1503 N 0.47999 0.80539 0.66462 0.0
C1504 C 0.52971 0.73635 0.64112 0.0
C1505 C 0.4962 0.78074 0.65812 0.0
N1506 N 0.47729 0.71225 0.63508 0.0
N1507 N 0.5481 0.79451 0.66847 0.0
H1508 H 0.45454 0.80813 0.66426 0.0
H1509 H 0.49184 0.82475 0.66939 0.0
H1510 H 0.57358 0.7932 0.66939 0.0
H1511 H 0.53699 0.8077 0.6761 0.0
H1512 H 0.48805 0.69267 0.63005 0.0
H1513 H 0.45169 0.71122 0.63521 0.0
H1514 H 0.53459 0.70678 0.62383 0.0
H1515 H 0.57175 0.71915 0.63078 0.0
C1516 C 0.52035 0.26539 0.9128 0.0
C1517 C 0.50636 0.28222 0.90184 0.0
C1518 C 0.49744 0.23001 0.89024 0.0
C1519 C 0.50907 0.21312 0.90161 0.0
N1520 N 0.52924 0.21352 0.9241 0.0
N1521 N 0.47938 0.28169 0.88058 0.0
C1522 C 0.51999 0.23049 0.91299 0.0
C1523 C 0.49436 0.26485 0.89065 0.0
N1524 N 0.53448 0.28288 0.92289 0.0
N1525 N 0.48986 0.21269 0.87902 0.0
H1526 H 0.47778 0.3073 0.88037 0.0
H1527 H 0.46688 0.27048 0.87281 0.0
H1528 H 0.49093 0.18708 0.87854 0.0
H1529 H 0.48451 0.22354 0.86993 0.0
H1530 H 0.5485 0.27232 0.93039 0.0
H1531 H 0.53412 0.3085 0.92338 0.0
H1532 H 0.53361 0.22447 0.93326 0.0
H1533 H 0.53074 0.18793 0.92446 0.0
C1534 C 0.02888 0.21226 0.15549 0.0
C1535 C 0.04643 0.23972 0.15048 0.0
C1536 C 0.99483 0.26676 0.14432 0.0
C1537 C 0.97732 0.24093 0.1506 0.0
N1538 N 0.9766 0.18985 0.16273 0.0
N1539 N 0.04727 0.29378 0.1407 0.0
C1540 C 0.99405 0.21373 0.15626 0.0
C1541 C 0.02972 0.26709 0.14495 0.0
N1542 N 0.0456 0.1847 0.15936 0.0
N1543 N 0.97801 0.29074 0.13766 0.0
H1544 H 0.07289 0.29433 0.14053 0.0
H1545 H 0.03669 0.31609 0.13801 0.0
H1546 H 0.95241 0.2917 0.13731 0.0
H1547 H 0.98916 0.3084 0.13171 0.0
H1548 H 0.03433 0.16256 0.16181 0.0
H1549 H 0.07116 0.18312 0.15922 0.0
H1550 H 0.9873 0.17146 0.16845 0.0
H1551 H 0.95098 0.18936 0.16298 0.0
C1552 C 0.01389 0.04665 0.48927 0.0
C1553 C 0.99389 0.02159 0.48374 0.0
C1554 C 0.9619 0.02013 0.50432 0.0
C1555 C 0.98687 0.0388 0.5106 0.0
N1556 N 0.01422 0.08976 0.50557 0.0
N1557 N 0.94598 0.98666 0.48553 0.0
C1558 C 0.00688 0.05816 0.50218 0.0
C1559 C 0.96683 0.00907 0.49109 0.0
N1560 N 0.04003 0.05905 0.48241 0.0
N1561 N 0.93183 0.01752 0.51019 0.0
H1562 H 0.94743 0.97953 0.47561 0.0
H1563 H 0.92831 0.97398 0.49098 0.0
H1564 H 0.92637 0.03015 0.51893 0.0
H1565 H 0.91151 0.00684 0.50562 0.0
H1566 H 0.05668 0.07541 0.48669 0.0
H1567 H 0.04654 0.05098 0.47296 0.0
H1568 H 0.02637 0.10589 0.4992 0.0
H1569 H 0.00367 0.10085 0.51389 0.0
C1570 C 0.2599 0.79025 0.75751 0.0
C1571 C 0.25914 0.75954 0.76418 0.0
C1572 C 0.26646 0.73064 0.74308 0.0
C1573 C 0.27009 0.7614 0.73659 0.0
N1574 N 0.27582 0.82035 0.73779 0.0
N1575 N 0.26716 0.70077 0.76387 0.0
C1576 C 0.26838 0.79122 0.74386 0.0
C1577 C 0.26398 0.72976 0.75712 0.0
N1578 N 0.25148 0.81836 0.76413 0.0
N1579 N 0.26425 0.70237 0.73578 0.0
H1580 H 0.26541 0.69913 0.77417 0.0
H1581 H 0.27429 0.67882 0.7594 0.0
H1582 H 0.26594 0.70198 0.72547 0.0
H1583 H 0.25799 0.67967 0.73984 0.0
H1584 H 0.24806 0.84095 0.75947 0.0
H1585 H 0.24516 0.81866 0.77416 0.0
H1586 H 0.27848 0.84246 0.74289 0.0
H1587 H 0.28215 0.82202 0.72779 0.0
C1588 C 0.49103 0.01704 0.00926 0.0
C1589 C 0.51474 0.99618 0.01522 0.0
C1590 C 0.53798 0.9832 0.99343 0.0
C1591 C 0.51567 0.00571 0.98756 0.0
N1592 N 0.47403 0.0475 0.98974 0.0
N1593 N 0.56359 0.96294 0.01355 0.0
C1594 C 0.49303 0.02363 0.99544 0.0
C1595 C 0.53905 0.98025 0.00746 0.0
N1596 N 0.4661 0.02978 0.01677 0.0
N1597 N 0.55745 0.964 0.98554 0.0
H1598 H 0.56481 0.95975 0.02381 0.0
H1599 H 0.58408 0.95378 0.00861 0.0
H1600 H 0.55776 0.96592 0.97522 0.0
H1601 H 0.57155 0.94454 0.98907 0.0
H1602 H 0.44596 0.04208 0.0128 0.0
H1603 H 0.46428 0.02608 0.02698 0.0
H1604 H 0.45967 0.06394 0.99512 0.0
H1605 H 0.47437 0.05254 0.9796 0.0
C1606 C 0.26597 0.26721 0.24125 0.0
C1607 C 0.25804 0.23747 0.23463 0.0
C1608 C 0.26076 0.20748 0.25568 0.0
C1609 C 0.26552 0.23772 0.26244 0.0
N1610 N 0.2675 0.29701 0.26205 0.0
N1611 N 0.2428 0.18018 0.23559 0.0
C1612 C 0.26673 0.26781 0.25533 0.0
C1613 C 0.25405 0.20779 0.24186 0.0
N1614 N 0.27371 0.29465 0.23406 0.0
N1615 N 0.26365 0.17843 0.26241 0.0
H1616 H 0.23769 0.17942 0.22546 0.0
H1617 H 0.23594 0.15885 0.24058 0.0
H1618 H 0.26852 0.17723 0.27256 0.0
H1619 H 0.26399 0.15555 0.25778 0.0
H1620 H 0.28315 0.31604 0.23827 0.0
H1621 H 0.27339 0.29518 0.22371 0.0
H1622 H 0.26477 0.31979 0.25746 0.0
H1623 H 0.26807 0.29848 0.27237 0.0
C1624 C 0.76992 0.28796 0.24389 0.0
C1625 C 0.76683 0.25786 0.23689 0.0
C1626 C 0.75611 0.22866 0.25769 0.0
C1627 C 0.75615 0.2592 0.26449 0.0
N1628 N 0.7581 0.31846 0.26398 0.0
N1629 N 0.75212 0.20039 0.2366 0.0
C1630 C 0.76171 0.28905 0.25757 0.0
C1631 C 0.7586 0.22838 0.24364 0.0
N1632 N 0.78157 0.31528 0.23753 0.0
N1633 N 0.75471 0.19988 0.26469 0.0
H1634 H 0.75389 0.19916 0.22629 0.0
H1635 H 0.74242 0.17915 0.24083 0.0
H1636 H 0.7528 0.19907 0.275 0.0
H1637 H 0.75821 0.17684 0.26042 0.0
H1638 H 0.78775 0.33699 0.2424 0.0
H1639 H 0.78772 0.31544 0.22748 0.0
H1640 H 0.75827 0.34109 0.25915 0.0
H1641 H 0.75219 0.32023 0.27402 0.0
C1642 C 0.7634 0.77415 0.74054 0.0
C1643 C 0.76161 0.74367 0.73372 0.0
C1644 C 0.77081 0.7142 0.75456 0.0
C1645 C 0.76883 0.74443 0.76155 0.0
N1646 N 0.75744 0.8027 0.76147 0.0
N1647 N 0.75749 0.68448 0.73448 0.0
C1648 C 0.76354 0.77434 0.75462 0.0
C1649 C 0.76362 0.71359 0.7408 0.0
N1650 N 0.76597 0.80286 0.73356 0.0
N1651 N 0.78064 0.68627 0.76098 0.0
H1652 H 0.75169 0.68299 0.72443 0.0
H1653 H 0.75515 0.66215 0.73945 0.0
H1654 H 0.78673 0.68581 0.77102 0.0
H1655 H 0.7858 0.66431 0.75608 0.0
H1656 H 0.77084 0.82548 0.73799 0.0
H1657 H 0.76627 0.80372 0.72322 0.0
H1658 H 0.74998 0.82446 0.75693 0.0
H1659 H 0.7569 0.80379 0.7718 0.0
C1660 C 0.47715 0.50124 0.9931 0.0
C1661 C 0.50558 0.48893 0.98666 0.0
C1662 C 0.53365 0.48345 0.00804 0.0
C1663 C 0.50641 0.49868 0.01431 0.0
N1664 N 0.45388 0.52588 0.01288 0.0
N1665 N 0.56218 0.47161 0.98746 0.0
C1666 C 0.47852 0.50853 0.00687 0.0
C1667 C 0.53421 0.48085 0.99399 0.0
N1668 N 0.44867 0.50526 0.9861 0.0
N1669 N 0.55856 0.47078 0.01557 0.0
H1670 H 0.5633 0.46878 0.97719 0.0
H1671 H 0.5849 0.46898 0.99207 0.0
H1672 H 0.55905 0.4725 0.02589 0.0
H1673 H 0.57741 0.45634 0.01174 0.0
H1674 H 0.42615 0.51064 0.99048 0.0
H1675 H 0.4469 0.50064 0.97595 0.0
H1676 H 0.43473 0.53702 0.00772 0.0
H1677 H 0.45377 0.5313 0.02298 0.0
C1678 C 0.99243 0.51587 0.50961 0.0
C1679 C 0.01844 0.49815 0.51567 0.0
C1680 C 0.0433 0.48806 0.49392 0.0
C1681 C 0.01874 0.50797 0.48799 0.0
N1682 N 0.9733 0.54561 0.49026 0.0
N1683 N 0.07155 0.4722 0.51409 0.0
C1684 C 0.99425 0.52329 0.49586 0.0
C1685 C 0.04476 0.48563 0.50796 0.0
N1686 N 0.96545 0.52456 0.51689 0.0
N1687 N 0.0645 0.47056 0.48611 0.0
H1688 H 0.07347 0.46999 0.52436 0.0
H1689 H 0.09303 0.46586 0.5091 0.0
H1690 H 0.06424 0.47175 0.47578 0.0
H1691 H 0.08052 0.45283 0.4898 0.0
H1692 H 0.94414 0.53424 0.51272 0.0
H1693 H 0.96319 0.5196 0.52699 0.0
H1694 H 0.95726 0.56021 0.49574 0.0
H1695 H 0.97388 0.55165 0.48021 0.0
C1696 C 0.1697 0.90823 0.63586 0.0
C1697 C 0.19952 0.90085 0.62919 0.0
C1698 C 0.18248 0.93472 0.6103 0.0
C1699 C 0.15335 0.94316 0.61724 0.0
N1700 N 0.12302 0.94486 0.63775 0.0
N1701 N 0.2377 0.91251 0.61155 0.0
C1702 C 0.14823 0.93214 0.63041 0.0
C1703 C 0.207 0.91588 0.61686 0.0
N1704 N 0.16097 0.89116 0.647 0.0
N1705 N 0.18606 0.9434 0.59729 0.0
H1706 H 0.25625 0.899 0.61617 0.0
H1707 H 0.24569 0.92546 0.60325 0.0
H1708 H 0.16876 0.95741 0.59217 0.0
H1709 H 0.20498 0.93472 0.59129 0.0
H1710 H 0.13785 0.8929 0.65137 0.0
H1711 H 0.17569 0.87306 0.65127 0.0
H1712 H 0.12004 0.94026 0.64784 0.0
H1713 H 0.10689 0.9626 0.63407 0.0
C1714 C 0.35773 0.88265 0.87052 0.0
C1715 C 0.32389 0.89096 0.87105 0.0
C1716 C 0.33669 0.93956 0.88447 0.0
C1717 C 0.37065 0.93267 0.88297 0.0
N1718 N 0.41392 0.90149 0.8725 0.0
N1719 N 0.28115 0.92948 0.87671 0.0
C1720 C 0.3813 0.90531 0.87539 0.0
C1721 C 0.31332 0.92006 0.87753 0.0
N1722 N 0.36728 0.85258 0.86582 0.0
N1723 N 0.32679 0.96408 0.89284 0.0
H1724 H 0.26339 0.91567 0.87175 0.0
H1725 H 0.27254 0.95215 0.88002 0.0
H1726 H 0.34327 0.97902 0.89798 0.0
H1727 H 0.30238 0.96802 0.89548 0.0
H1728 H 0.39123 0.84376 0.86657 0.0
H1729 H 0.3508 0.83507 0.86224 0.0
H1730 H 0.42271 0.88412 0.8658 0.0
H1731 H 0.43204 0.91757 0.87588 0.0
C1732 C 0.33714 0.03705 0.12971 0.0
C1733 C 0.34943 0.04276 0.11675 0.0
C1734 C 0.3036 0.08014 0.11255 0.0
C1735 C 0.29765 0.08139 0.12638 0.0
N1736 N 0.28875 0.04098 0.1434 0.0
N1737 N 0.34206 0.06684 0.09505 0.0
C1738 C 0.30852 0.05401 0.13386 0.0
C1739 C 0.33166 0.06305 0.10783 0.0
N1740 N 0.35299 0.01616 0.13814 0.0
N1741 N 0.28045 0.09185 0.104 0.0
H1742 H 0.36188 0.05382 0.09112 0.0
H1743 H 0.33202 0.08421 0.08862 0.0
H1744 H 0.25795 0.10081 0.10744 0.0
H1745 H 0.2819 0.08904 0.09375 0.0
H1746 H 0.34654 0.01392 0.14811 0.0
H1747 H 0.37368 0.00267 0.13536 0.0
H1748 H 0.29424 0.01925 0.14841 0.0
H1749 H 0.26475 0.04947 0.14475 0.0
C1750 C 0.17852 0.04378 0.36922 0.0
C1751 C 0.16865 0.04937 0.38255 0.0
C1752 C 0.21715 0.08372 0.38576 0.0
C1753 C 0.22042 0.08647 0.37184 0.0
N1754 N 0.22202 0.05051 0.35298 0.0
N1755 N 0.17982 0.0743 0.40389 0.0
C1756 C 0.20635 0.06086 0.36419 0.0
C1757 C 0.18852 0.06891 0.39101 0.0
N1758 N 0.16102 0.02285 0.36132 0.0
N1759 N 0.24338 0.08983 0.39377 0.0
H1760 H 0.15879 0.06425 0.40819 0.0
H1761 H 0.19242 0.09086 0.40994 0.0
H1762 H 0.26667 0.09427 0.3898 0.0
H1763 H 0.24301 0.0855 0.40396 0.0
H1764 H 0.16484 0.02087 0.35114 0.0
H1765 H 0.14166 0.00854 0.36488 0.0
H1766 H 0.2148 0.03002 0.34751 0.0
H1767 H 0.24465 0.06042 0.35017 0.0
C1768 C 0.83782 0.0649 0.38207 0.0
C1769 C 0.87161 0.06852 0.37897 0.0
C1770 C 0.85888 0.11393 0.36389 0.0
C1771 C 0.82562 0.11255 0.36803 0.0
N1772 N 0.7833 0.08914 0.38181 0.0
N1773 N 0.91533 0.0989 0.3684 0.0
C1774 C 0.81498 0.0886 0.37731 0.0
C1775 C 0.88244 0.09362 0.37023 0.0
N1776 N 0.82759 0.03842 0.38934 0.0
N1777 N 0.86779 0.13429 0.35371 0.0
H1778 H 0.93346 0.08438 0.37277 0.0
H1779 H 0.92481 0.1192 0.36341 0.0
H1780 H 0.85121 0.14978 0.34891 0.0
H1781 H 0.89085 0.13387 0.34925 0.0
H1782 H 0.80301 0.03246 0.39085 0.0
H1783 H 0.84378 0.0208 0.39307 0.0
H1784 H 0.77487 0.07479 0.38964 0.0
H1785 H 0.76573 0.10559 0.37823 0.0
C1786 C 0.67991 0.06212 0.12328 0.0
C1787 C 0.64708 0.07136 0.12043 0.0
C1788 C 0.65697 0.12633 0.1295 0.0
C1789 C 0.69044 0.11792 0.13146 0.0
N1790 N 0.7353 0.07989 0.12861 0.0
N1791 N 0.60547 0.11339 0.11865 0.0
C1792 C 0.70238 0.08634 0.1279 0.0
C1793 C 0.63591 0.10383 0.12291 0.0
N1794 N 0.68931 0.03001 0.12192 0.0
N1795 N 0.64506 0.15539 0.13435 0.0
H1796 H 0.58915 0.09752 0.11388 0.0
H1797 H 0.59736 0.13766 0.11883 0.0
H1798 H 0.65978 0.17266 0.13915 0.0
H1799 H 0.62018 0.16129 0.13459 0.0
H1800 H 0.71178 0.02092 0.12521 0.0
H1801 H 0.67361 0.01177 0.11834 0.0
H1802 H 0.74606 0.05863 0.12484 0.0
H1803 H 0.75238 0.09696 0.13208 0.0
C1804 C 0.68722 0.9134 0.86344 0.0
C1805 C 0.69829 0.88545 0.87058 0.0
C1806 C 0.66507 0.90171 0.88972 0.0
C1807 C 0.65536 0.93055 0.88284 0.0
N1808 N 0.66324 0.96787 0.86454 0.0
N1809 N 0.70452 0.85734 0.89148 0.0
C1810 C 0.66842 0.93769 0.87012 0.0
C1811 C 0.68937 0.88102 0.88406 0.0
N1812 N 0.69321 0.91598 0.85014 0.0
N1813 N 0.64994 0.89312 0.90132 0.0
H1814 H 0.72278 0.84201 0.88767 0.0
H1815 H 0.70134 0.85508 0.90169 0.0
H1816 H 0.6317 0.90734 0.90576 0.0
H1817 H 0.65345 0.8705 0.90595 0.0
H1818 H 0.68256 0.93394 0.84416 0.0
H1819 H 0.70665 0.89861 0.84482 0.0
H1820 H 0.67483 0.97564 0.85588 0.0
H1821 H 0.64983 0.98636 0.86925 0.0
C1822 C 0.83984 0.91135 0.63569 0.0
C1823 C 0.82337 0.88883 0.62723 0.0
C1824 C 0.84991 0.91317 0.60777 0.0
C1825 C 0.86603 0.93596 0.6162 0.0
N1826 N 0.87178 0.96157 0.63761 0.0
N1827 N 0.80687 0.87234 0.60528 0.0
C1828 C 0.85944 0.93662 0.63 0.0
C1829 C 0.82655 0.89107 0.61326 0.0
N1830 N 0.83792 0.90763 0.64914 0.0
N1831 N 0.85794 0.9118 0.59461 0.0
H1832 H 0.78961 0.85578 0.60902 0.0
H1833 H 0.80558 0.87511 0.59504 0.0
H1834 H 0.87422 0.92823 0.59015 0.0
H1835 H 0.85012 0.8932 0.58827 0.0
H1836 H 0.85231 0.92075 0.65583 0.0
H1837 H 0.82335 0.88977 0.65368 0.0
H1838 H 0.86526 0.96542 0.64746 0.0
H1839 H 0.88657 0.98021 0.63374 0.0
C1840 C 0.70634 0.41144 0.11733 0.0
C1841 C 0.70222 0.39933 0.13041 0.0
C1842 C 0.65385 0.43436 0.1333 0.0
C1843 C 0.6551 0.44251 0.11965 0.0
N1844 N 0.68055 0.43646 0.09817 0.0
N1845 N 0.66963 0.39578 0.15039 0.0
C1846 C 0.681 0.43068 0.11152 0.0
C1847 C 0.67547 0.41005 0.13834 0.0
N1848 N 0.73467 0.40487 0.11055 0.0
N1849 N 0.63221 0.4502 0.14147 0.0
H1850 H 0.68458 0.37756 0.15444 0.0
H1851 H 0.64837 0.39996 0.15589 0.0
H1852 H 0.61614 0.46835 0.13809 0.0
H1853 H 0.63239 0.44767 0.15174 0.0
H1854 H 0.74053 0.41566 0.10149 0.0
H1855 H 0.75373 0.39091 0.11457 0.0
H1856 H 0.69669 0.42532 0.09154 0.0
H1857 H 0.66247 0.45052 0.09354 0.0
C1858 C 0.85897 0.38516 0.3713 0.0
C1859 C 0.8249 0.39252 0.37143 0.0
C1860 C 0.83539 0.44269 0.38422 0.0
C1861 C 0.86958 0.43629 0.3834 0.0
N1862 N 0.9146 0.40506 0.37426 0.0
N1863 N 0.78064 0.43007 0.37612 0.0
C1864 C 0.88158 0.40857 0.37636 0.0
C1865 C 0.81307 0.42186 0.37734 0.0
N1866 N 0.86961 0.35528 0.36677 0.0
N1867 N 0.8243 0.46807 0.39191 0.0
H1868 H 0.7636 0.41511 0.37129 0.0
H1869 H 0.77104 0.4527 0.37899 0.0
H1870 H 0.84004 0.48416 0.39687 0.0
H1871 H 0.79963 0.47192 0.39412 0.0
H1872 H 0.89363 0.34693 0.36786 0.0
H1873 H 0.8539 0.33755 0.36282 0.0
H1874 H 0.92463 0.38744 0.36796 0.0
H1875 H 0.93203 0.42153 0.37793 0.0
C1876 C 0.83768 0.53948 0.62907 0.0
C1877 C 0.84822 0.54495 0.61582 0.0
C1878 C 0.79991 0.57929 0.61214 0.0
C1879 C 0.79602 0.58214 0.62603 0.0
N1880 N 0.79308 0.54599 0.6448 0.0
N1881 N 0.83772 0.56874 0.59423 0.0
C1882 C 0.8095 0.55645 0.6338 0.0
C1883 C 0.82863 0.56411 0.60712 0.0
N1884 N 0.85494 0.5189 0.63719 0.0
N1885 N 0.77417 0.58592 0.60394 0.0
H1886 H 0.8586 0.55799 0.59009 0.0
H1887 H 0.82553 0.58516 0.58799 0.0
H1888 H 0.75085 0.59102 0.60775 0.0
H1889 H 0.77484 0.58155 0.59376 0.0
H1890 H 0.85046 0.51701 0.64733 0.0
H1891 H 0.87478 0.5049 0.63386 0.0
H1892 H 0.79994 0.52543 0.6503 0.0
H1893 H 0.77031 0.55596 0.6474 0.0
C1894 C 0.67588 0.5771 0.86058 0.0
C1895 C 0.6928 0.60016 0.86865 0.0
C1896 C 0.66335 0.5803 0.88823 0.0
C1897 C 0.64793 0.5559 0.88031 0.0
N1898 N 0.64569 0.5258 0.85973 0.0
N1899 N 0.70911 0.61788 0.8905 0.0
C1900 C 0.65623 0.5526 0.86672 0.0
C1901 C 0.68862 0.59984 0.88261 0.0
N1902 N 0.67706 0.57963 0.84708 0.0
N1903 N 0.6527 0.58614 0.90087 0.0
H1904 H 0.72828 0.63209 0.88671 0.0
H1905 H 0.70919 0.61611 0.90081 0.0
H1906 H 0.63375 0.57293 0.90533 0.0
H1907 H 0.66065 0.60607 0.90651 0.0
H1908 H 0.66229 0.5657 0.84078 0.0
H1909 H 0.69061 0.59761 0.84214 0.0
H1910 H 0.65359 0.52051 0.85014 0.0
H1911 H 0.63162 0.50714 0.864 0.0
C1912 C 0.37512 0.58745 0.87176 0.0
C1913 C 0.36328 0.56517 0.88149 0.0
C1914 C 0.30869 0.59035 0.88029 0.0
C1915 C 0.32 0.61093 0.86989 0.0
N1916 N 0.36163 0.62437 0.85374 0.0
N1917 N 0.31789 0.5412 0.89342 0.0
C1918 C 0.35254 0.60802 0.86501 0.0
C1919 C 0.32973 0.56535 0.88528 0.0
N1920 N 0.4081 0.59002 0.86939 0.0
N1921 N 0.27836 0.59551 0.88572 0.0
H1922 H 0.33268 0.52254 0.89726 0.0
H1923 H 0.29302 0.53802 0.89545 0.0
H1924 H 0.2622 0.61349 0.88228 0.0
H1925 H 0.27018 0.58374 0.89428 0.0
H1926 H 0.41836 0.60838 0.8635 0.0
H1927 H 0.42564 0.57571 0.87424 0.0
H1928 H 0.38396 0.62047 0.84895 0.0
H1929 H 0.34568 0.63958 0.84845 0.0
C1930 C 0.13496 0.6068 0.6254 0.0
C1931 C 0.14613 0.57543 0.62122 0.0
C1932 C 0.20276 0.59059 0.62682 0.0
C1933 C 0.19111 0.62078 0.63207 0.0
N1934 N 0.14577 0.65547 0.63851 0.0
N1935 N 0.18948 0.53525 0.61957 0.0
C1936 C 0.15707 0.62828 0.63197 0.0
C1937 C 0.17975 0.56667 0.62237 0.0
N1938 N 0.1035 0.61651 0.62269 0.0
N1939 N 0.2358 0.58522 0.62573 0.0
H1940 H 0.17331 0.51719 0.6162 0.0
H1941 H 0.21294 0.52633 0.62156 0.0
H1942 H 0.25333 0.6021 0.62899 0.0
H1943 H 0.24589 0.5653 0.62068 0.0
H1944 H 0.09505 0.6404 0.62417 0.0
H1945 H 0.08648 0.60152 0.61786 0.0
H1946 H 0.12094 0.66027 0.64007 0.0
H1947 H 0.16124 0.67186 0.64341 0.0
C1948 C 0.13242 0.40328 0.37309 0.0
C1949 C 0.147 0.43114 0.3792 0.0
C1950 C 0.20196 0.41095 0.37351 0.0
C1951 C 0.18732 0.38377 0.36695 0.0
N1952 N 0.13917 0.35576 0.3588 0.0
N1953 N 0.19457 0.46433 0.38393 0.0
C1954 C 0.15266 0.38047 0.36623 0.0
C1955 C 0.18152 0.43582 0.37903 0.0
N1956 N 0.09928 0.39822 0.37418 0.0
N1957 N 0.2354 0.41252 0.3747 0.0
H1958 H 0.18032 0.48262 0.38835 0.0
H1959 H 0.21911 0.471 0.38289 0.0
H1960 H 0.25117 0.39548 0.3703 0.0
H1961 H 0.24763 0.42952 0.38062 0.0
H1962 H 0.08758 0.37656 0.37138 0.0
H1963 H 0.08341 0.41496 0.37869 0.0
H1964 H 0.11427 0.35409 0.35657 0.0
H1965 H 0.1532 0.33787 0.35403 0.0
C1966 C 0.33613 0.42721 0.11289 0.0
C1967 C 0.36843 0.43052 0.118 0.0
C1968 C 0.35627 0.38969 0.13516 0.0
C1969 C 0.32555 0.38341 0.12904 0.0
N1970 N 0.28749 0.39306 0.11113 0.0
N1971 N 0.41131 0.41115 0.13261 0.0
C1972 C 0.31569 0.40142 0.11766 0.0
C1973 C 0.37907 0.41083 0.1288 0.0
N1974 N 0.32479 0.44916 0.10371 0.0
N1975 N 0.36336 0.37601 0.14721 0.0
H1976 H 0.42904 0.42593 0.12811 0.0
H1977 H 0.42114 0.39461 0.13942 0.0
H1978 H 0.34714 0.36055 0.15225 0.0
H1979 H 0.38391 0.38245 0.1528 0.0
H1980 H 0.30042 0.4501 0.1006 0.0
H1981 H 0.33912 0.46839 0.10003 0.0
H1982 H 0.28089 0.40285 0.10197 0.0
H1983 H 0.27186 0.37436 0.11434 0.0
loop_
_geom_bond_atom_site_label_1
_geom_bond_atom_site_label_2
_geom_bond_distance
_geom_bond_site_symmetry_2
_ccdc_geom_bond_type
Li0 N17 1.990 . S
Li0 O60 1.956 . S
Li0 O61 1.970 1_455 S
Li0 O62 1.961 1_545 S
Li1 N25 1.990 . S
Li1 O60 1.970 . S
Li1 O61 1.956 1_455 S
Li1 O63 1.961 . S
Li2 N47 1.977 1_545 S
Li2 O60 1.961 . S
Li2 O62 1.956 1_545 S
Li2 O63 1.970 . S
Li3 N53 1.990 . S
Li3 O61 1.961 . S
Li3 O62 1.970 1_645 S
Li3 O63 1.956 1_655 S
C4 C6 1.348 . S
C4 C7 1.356 . S
C4 O60 1.325 . S
N5 C8 1.314 . S
N5 C9 1.279 . S
C6 C4 1.348 . S
C6 C8 1.353 . S
C6 H64 0.929 . S
C7 C4 1.356 . S
C7 C9 1.358 . S
C7 H65 0.930 . S
C8 N5 1.314 . S
C8 C6 1.353 . S
C8 H66 0.930 . S
C9 N5 1.279 . S
C9 C7 1.358 . S
C9 H67 0.930 . S
C10 C13 1.348 . S
C10 C14 1.356 . S
C10 O61 1.325 . S
C11 N12 1.279 . S
C11 C14 1.358 . S
C11 H68 0.930 . S
N12 C11 1.279 . S
N12 C15 1.314 . S
C13 C10 1.348 . S
C13 C15 1.353 . S
C13 H69 0.929 . S
C14 C10 1.356 . S
C14 C11 1.358 . S
C14 H70 0.930 . S
C15 N12 1.314 . S
C15 C13 1.353 . S
C15 H71 0.930 . S
C16 N17 1.314 1_655 S
C16 C21 1.348 1_545 S
C16 H22 0.930 1_545 S
N17 Li0 1.990 . S
N17 C16 1.314 1_455 S
N17 C19 1.279 . S
C18 C19 1.358 . S
C18 C20 1.356 . S
C18 H72 0.930 . S
C19 N17 1.279 . S
C19 C18 1.358 . S
C19 H23 0.930 . S
C20 C18 1.356 . S
C20 C21 1.332 1_445 S
C21 C16 1.348 1_565 S
C21 C20 1.332 1_665 S
C21 H73 0.951 . S
H22 C16 0.930 1_565 S
H23 C19 0.930 . S
C24 N25 1.314 . S
C24 C26 1.353 . S
C24 H30 0.930 . S
N25 Li1 1.990 . S
N25 C24 1.314 . S
N25 C28 1.279 1_455 S
C26 C24 1.353 . S
C26 C29 1.348 . S
C26 H74 0.929 . S
C27 C28 1.358 . S
C27 C29 1.356 1_655 S
C27 H75 0.930 . S
C28 N25 1.279 1_655 S
C28 C27 1.358 . S
C28 H31 0.930 . S
C29 C26 1.348 . S
C29 C27 1.356 1_455 S
H30 C24 0.930 . S
H31 C28 0.930 . S
C32 C34 1.348 1_455 S
C32 C35 1.356 . S
C32 O62 1.325 . S
N33 C36 1.314 1_455 S
N33 C37 1.279 . S
C34 C32 1.348 1_655 S
C34 C36 1.353 . S
C34 H76 0.929 . S
C35 C32 1.356 . S
C35 C37 1.358 . S
C35 H77 0.930 . S
C36 N33 1.314 1_655 S
C36 C34 1.353 . S
C36 H78 0.930 . S
C37 N33 1.279 . S
C37 C35 1.358 . S
C37 H79 0.930 . S
C38 C39 1.348 . S
C38 C40 1.356 1_455 S
C38 O63 1.325 . S
C39 C38 1.348 . S
C39 C41 1.353 . S
C39 H80 0.929 . S
C40 C38 1.356 1_655 S
C40 C42 1.358 . S
C40 H81 0.930 . S
C41 C39 1.353 . S
C41 N43 1.314 . S
C41 H82 0.930 . S
C42 C40 1.358 . S
C42 N43 1.279 1_655 S
C42 H83 0.930 . S
N43 C41 1.314 . S
N43 C42 1.279 1_455 S
C44 C46 1.353 . S
C44 N47 1.299 1_545 S
C44 H50 0.930 . S
C45 N47 1.308 . S
C45 C48 1.358 . S
C45 H51 0.930 . S
C46 C44 1.353 . S
C46 C49 1.348 1_545 S
C46 H84 0.929 . S
N47 Li2 1.977 1_565 S
N47 C44 1.299 1_565 S
N47 C45 1.308 . S
C48 C45 1.358 . S
C48 C49 1.356 . S
C48 H85 0.930 . S
C49 C46 1.348 1_565 S
C49 C48 1.356 . S
H50 C44 0.930 . S
H51 C45 0.930 . S
C52 N53 1.314 1_565 S
C52 C54 1.353 . S
C52 H58 0.933 . S
N53 Li3 1.990 . S
N53 C52 1.314 1_545 S
N53 C56 1.279 1_545 S
C54 C52 1.353 . S
C54 C57 1.348 . S
C54 H86 0.929 . S
C55 C56 1.358 . S
C55 C57 1.356 . S
C55 H87 0.930 . S
C56 N53 1.279 1_565 S
C56 C55 1.358 . S
C56 H59 0.930 1_565 S
C57 C54 1.348 . S
C57 C55 1.356 . S
H58 C52 0.933 . S
H59 C56 0.930 1_545 S
O60 Li0 1.956 . S
O60 Li1 1.970 . S
O60 Li2 1.961 . S
O60 C4 1.325 . S
O61 Li0 1.970 1_655 S
O61 Li1 1.956 1_655 S
O61 Li3 1.961 . S
O61 C10 1.325 . S
O62 Li0 1.961 1_565 S
O62 Li2 1.956 1_565 S
O62 Li3 1.970 1_465 S
O62 C32 1.325 . S
O63 Li1 1.961 . S
O63 Li2 1.970 . S
O63 Li3 1.956 1_455 S
O63 C38 1.325 . S
H64 C6 0.929 . S
H65 C7 0.930 . S
H66 C8 0.930 . S
H67 C9 0.930 . S
H68 C11 0.930 . S
H69 C13 0.929 . S
H70 C14 0.930 . S
H71 C15 0.930 . S
H72 C18 0.930 . S
H73 C21 0.951 . S
H74 C26 0.929 . S
H75 C27 0.930 . S
H76 C34 0.929 . S
H77 C35 0.930 . S
H78 C36 0.930 . S
H79 C37 0.930 . S
H80 C39 0.929 . S
H81 C40 0.930 . S
H82 C41 0.930 . S
H83 C42 0.930 . S
H84 C46 0.929 . S
H85 C48 0.930 . S
H86 C54 0.929 . S
H87 C55 0.930 . S
Li88 N105 1.990 . S
Li88 O148 1.956 . S
Li88 O149 1.970 . S
Li88 O150 1.961 . S
Li89 N113 1.990 . S
Li89 O148 1.970 . S
Li89 O149 1.956 . S
Li89 O151 1.961 . S
Li90 N135 1.990 . S
Li90 O148 1.961 . S
Li90 O150 1.956 . S
Li90 O151 1.970 . S
Li91 N141 1.990 . S
Li91 O149 1.961 . S
Li91 O150 1.970 . S
Li91 O151 1.956 . S
C92 C94 1.348 . S
C92 C95 1.356 . S
C92 O148 1.325 . S
N93 C96 1.314 . S
N93 C97 1.279 . S
C94 C92 1.348 . S
C94 C96 1.353 . S
C94 H152 0.929 . S
C95 C92 1.356 . S
C95 C97 1.358 . S
C95 H153 0.930 . S
C96 N93 1.314 . S
C96 C94 1.353 . S
C96 H154 0.930 . S
C97 N93 1.279 . S
C97 C95 1.358 . S
C97 H155 0.930 . S
C98 C101 1.348 . S
C98 C102 1.356 . S
C98 O149 1.325 . S
C99 N100 1.279 . S
C99 C102 1.358 . S
C99 H156 0.930 . S
N100 C99 1.279 . S
N100 C103 1.314 . S
C101 C98 1.348 . S
C101 C103 1.353 . S
C101 H157 0.929 . S
C102 C98 1.356 . S
C102 C99 1.358 . S
C102 H158 0.930 . S
C103 N100 1.314 . S
C103 C101 1.353 . S
C103 H159 0.930 . S
C104 N105 1.314 . S
C104 C109 1.353 . S
C104 H110 0.930 . S
N105 Li88 1.990 . S
N105 C104 1.314 . S
N105 C107 1.279 . S
C106 C107 1.358 . S
C106 C108 1.356 . S
C106 H160 0.930 . S
C107 N105 1.279 . S
C107 C106 1.358 . S
C107 H111 0.930 . S
C108 C106 1.356 . S
C108 C109 1.348 . S
C109 C104 1.353 . S
C109 C108 1.348 . S
C109 H161 0.929 . S
H110 C104 0.930 . S
H111 C107 0.930 . S
C112 N113 1.314 . S
C112 C114 1.353 . S
C112 H118 0.930 . S
N113 Li89 1.990 . S
N113 C112 1.314 . S
N113 C116 1.279 . S
C114 C112 1.353 . S
C114 C117 1.348 . S
C114 H162 0.929 . S
C115 C116 1.358 . S
C115 C117 1.356 . S
C115 H163 0.930 . S
C116 N113 1.279 . S
C116 C115 1.358 . S
C116 H119 0.930 . S
C117 C114 1.348 . S
C117 C115 1.356 . S
H118 C112 0.930 . S
H119 C116 0.930 . S
C120 C122 1.348 . S
C120 C123 1.356 . S
C120 O150 1.325 . S
N121 C124 1.314 . S
N121 C125 1.279 . S
C122 C120 1.348 . S
C122 C124 1.353 . S
C122 H164 0.929 . S
C123 C120 1.356 . S
C123 C125 1.358 . S
C123 H165 0.930 . S
C124 N121 1.314 . S
C124 C122 1.353 . S
C124 H166 0.930 . S
C125 N121 1.279 . S
C125 C123 1.358 . S
C125 H167 0.930 . S
C126 C127 1.348 . S
C126 C128 1.356 . S
C126 O151 1.325 . S
C127 C126 1.348 . S
C127 C129 1.353 . S
C127 H168 0.929 . S
C128 C126 1.356 . S
C128 C130 1.358 . S
C128 H169 0.930 . S
C129 C127 1.353 . S
C129 N131 1.314 . S
C129 H170 0.930 . S
C130 C128 1.358 . S
C130 N131 1.279 . S
C130 H171 0.930 . S
N131 C129 1.314 . S
N131 C130 1.279 . S
C132 C134 1.353 . S
C132 N135 1.314 . S
C132 H138 0.930 . S
C133 N135 1.279 . S
C133 C136 1.358 . S
C133 H139 0.930 . S
C134 C132 1.353 . S
C134 C137 1.348 . S
C134 H172 0.929 . S
N135 Li90 1.990 . S
N135 C132 1.314 . S
N135 C133 1.279 . S
C136 C133 1.358 . S
C136 C137 1.356 . S
C136 H173 0.930 . S
C137 C134 1.348 . S
C137 C136 1.356 . S
H138 C132 0.930 . S
H139 C133 0.930 . S
C140 N141 1.314 . S
C140 C142 1.353 . S
C140 H146 0.930 . S
N141 Li91 1.990 . S
N141 C140 1.314 . S
N141 C144 1.279 . S
C142 C140 1.353 . S
C142 C145 1.348 . S
C142 H174 0.929 . S
C143 C144 1.358 . S
C143 C145 1.356 . S
C143 H175 0.930 . S
C144 N141 1.279 . S
C144 C143 1.358 . S
C144 H147 0.930 . S
C145 C142 1.348 . S
C145 C143 1.356 . S
H146 C140 0.930 . S
H147 C144 0.930 . S
O148 Li88 1.956 . S
O148 Li89 1.970 . S
O148 Li90 1.961 . S
O148 C92 1.325 . S
O149 Li88 1.970 . S
O149 Li89 1.956 . S
O149 Li91 1.961 . S
O149 C98 1.325 . S
O150 Li88 1.961 . S
O150 Li90 1.956 . S
O150 Li91 1.970 . S
O150 C120 1.325 . S
O151 Li89 1.961 . S
O151 Li90 1.970 . S
O151 Li91 1.956 . S
O151 C126 1.325 . S
H152 C94 0.929 . S
H153 C95 0.930 . S
H154 C96 0.930 . S
H155 C97 0.930 . S
H156 C99 0.930 . S
H157 C101 0.929 . S
H158 C102 0.930 . S
H159 C103 0.930 . S
H160 C106 0.930 . S
H161 C109 0.929 . S
H162 C114 0.929 . S
H163 C115 0.930 . S
H164 C122 0.929 . S
H165 C123 0.930 . S
H166 C124 0.930 . S
H167 C125 0.930 . S
H168 C127 0.929 . S
H169 C128 0.930 . S
H170 C129 0.930 . S
H171 C130 0.930 . S
H172 C134 0.929 . S
H173 C136 0.930 . S
H174 C142 0.929 . S
H175 C143 0.930 . S
Li176 N193 1.990 . S
Li176 O236 1.956 . S
Li176 O237 1.970 1_565 S
Li176 O238 1.961 . S
Li177 N201 1.978 1_565 S
Li177 O236 1.970 . S
Li177 O237 1.956 1_565 S
Li177 O239 1.961 . S
Li178 N223 1.990 . S
Li178 O236 1.961 . S
Li178 O238 1.956 . S
Li178 O239 1.970 . S
Li179 N229 1.990 . S
Li179 O237 1.961 1_565 S
Li179 O238 1.970 . S
Li179 O239 1.956 . S
C180 C182 1.348 . S
C180 C183 1.356 . S
C180 O236 1.325 . S
N181 C184 1.314 . S
N181 C185 1.279 . S
C182 C180 1.348 . S
C182 C184 1.353 . S
C182 H240 0.929 . S
C183 C180 1.356 . S
C183 C185 1.358 . S
C183 H241 0.930 . S
C184 N181 1.314 . S
C184 C182 1.353 . S
C184 H242 0.930 . S
C185 N181 1.279 . S
C185 C183 1.358 . S
C185 H243 0.930 . S
C186 C189 1.348 . S
C186 C190 1.356 . S
C186 O237 1.325 . S
C187 N188 1.279 . S
C187 C190 1.358 . S
C187 H244 0.930 . S
N188 C187 1.279 . S
N188 C191 1.314 . S
C189 C186 1.348 . S
C189 C191 1.353 . S
C189 H245 0.929 . S
C190 C186 1.356 . S
C190 C187 1.358 . S
C190 H246 0.930 . S
C191 N188 1.314 . S
C191 C189 1.353 . S
C191 H247 0.930 . S
C192 N193 1.314 1_545 S
C192 C197 1.353 . S
C192 H198 0.933 . S
N193 Li176 1.990 . S
N193 C192 1.314 1_565 S
N193 C195 1.279 1_565 S
C194 C195 1.358 . S
C194 C196 1.356 . S
C194 H248 0.930 . S
C195 N193 1.279 1_545 S
C195 C194 1.358 . S
C195 H199 0.930 1_545 S
C196 C194 1.356 . S
C196 C197 1.348 . S
C197 C192 1.353 . S
C197 C196 1.348 . S
C197 H249 0.929 . S
H198 C192 0.933 . S
H199 C195 0.930 1_565 S
C200 N201 1.300 1_565 S
C200 C202 1.353 . S
C200 H206 0.930 . S
N201 Li177 1.978 1_545 S
N201 C200 1.300 1_545 S
N201 C204 1.307 . S
C202 C200 1.353 . S
C202 C205 1.348 1_565 S
C202 H250 0.929 . S
C203 C204 1.358 . S
C203 C205 1.356 . S
C203 H251 0.930 . S
C204 N201 1.307 . S
C204 C203 1.358 . S
C204 H207 0.930 . S
C205 C202 1.348 1_545 S
C205 C203 1.356 . S
H206 C200 0.930 . S
H207 C204 0.930 . S
C208 C210 1.348 . S
C208 C211 1.356 . S
C208 O238 1.325 . S
N209 C212 1.314 . S
N209 C213 1.279 . S
C210 C208 1.348 . S
C210 C212 1.353 . S
C210 H252 0.929 . S
C211 C208 1.356 . S
C211 C213 1.358 . S
C211 H253 0.930 . S
C212 N209 1.314 . S
C212 C210 1.353 . S
C212 H254 0.930 . S
C213 N209 1.279 . S
C213 C211 1.358 . S
C213 H255 0.930 . S
C214 C215 1.348 . S
C214 C216 1.356 . S
C214 O239 1.325 . S
C215 C214 1.348 . S
C215 C217 1.353 . S
C215 H256 0.929 . S
C216 C214 1.356 . S
C216 C218 1.358 . S
C216 H257 0.930 . S
C217 C215 1.353 . S
C217 N219 1.314 . S
C217 H258 0.930 . S
C218 C216 1.358 . S
C218 N219 1.279 . S
C218 H259 0.930 . S
N219 C217 1.314 . S
N219 C218 1.279 . S
C220 C222 1.353 . S
C220 N223 1.314 . S
C220 H226 0.930 . S
C221 N223 1.279 . S
C221 C224 1.358 . S
C221 H227 0.930 . S
C222 C220 1.353 . S
C222 C225 1.348 . S
C222 H260 0.929 . S
N223 Li178 1.990 . S
N223 C220 1.314 . S
N223 C221 1.279 . S
C224 C221 1.358 . S
C224 C225 1.356 . S
C224 H261 0.930 . S
C225 C222 1.348 . S
C225 C224 1.356 . S
H226 C220 0.930 . S
H227 C221 0.930 . S
C228 N229 1.314 . S
C228 C230 1.348 1_565 S
C228 H234 0.930 1_565 S
N229 Li179 1.990 . S
N229 C228 1.314 . S
N229 C232 1.279 . S
C230 C228 1.348 1_545 S
C230 C233 1.332 1_545 S
C230 H262 0.950 . S
C231 C232 1.358 . S
C231 C233 1.356 . S
C231 H263 0.930 . S
C232 N229 1.279 . S
C232 C231 1.358 . S
C232 H235 0.930 . S
C233 C230 1.332 1_565 S
C233 C231 1.356 . S
H234 C228 0.930 1_545 S
H235 C232 0.930 . S
O236 Li176 1.956 . S
O236 Li177 1.970 . S
O236 Li178 1.961 . S
O236 C180 1.325 . S
O237 Li176 1.970 1_545 S
O237 Li177 1.956 1_545 S
O237 Li179 1.961 1_545 S
O237 C186 1.325 . S
O238 Li176 1.961 . S
O238 Li178 1.956 . S
O238 Li179 1.970 . S
O238 C208 1.325 . S
O239 Li177 1.961 . S
O239 Li178 1.970 . S
O239 Li179 1.956 . S
O239 C214 1.325 . S
H240 C182 0.929 . S
H241 C183 0.930 . S
H242 C184 0.930 . S
H243 C185 0.930 . S
H244 C187 0.930 . S
H245 C189 0.929 . S
H246 C190 0.930 . S
H247 C191 0.930 . S
H248 C194 0.930 . S
H249 C197 0.929 . S
H250 C202 0.929 . S
H251 C203 0.930 . S
H252 C210 0.929 . S
H253 C211 0.930 . S
H254 C212 0.930 . S
H255 C213 0.930 . S
H256 C215 0.929 . S
H257 C216 0.930 . S
H258 C217 0.930 . S
H259 C218 0.930 . S
H260 C222 0.929 . S
H261 C224 0.930 . S
H262 C230 0.950 . S
H263 C231 0.930 . S
Li264 N281 1.990 . S
Li264 O324 1.956 . S
Li264 O325 1.970 . S
Li264 O326 1.961 . S
Li265 N289 1.990 . S
Li265 O324 1.970 . S
Li265 O325 1.956 . S
Li265 O327 1.961 . S
Li266 N311 1.990 . S
Li266 O324 1.961 . S
Li266 O326 1.956 . S
Li266 O327 1.970 . S
Li267 N317 1.990 . S
Li267 O325 1.961 . S
Li267 O326 1.970 . S
Li267 O327 1.956 . S
C268 C270 1.348 . S
C268 C271 1.356 . S
C268 O324 1.325 . S
N269 C272 1.314 . S
N269 C273 1.279 . S
C270 C268 1.348 . S
C270 C272 1.353 . S
C270 H328 0.929 . S
C271 C268 1.356 . S
C271 C273 1.358 . S
C271 H329 0.930 . S
C272 N269 1.314 . S
C272 C270 1.353 . S
C272 H330 0.930 . S
C273 N269 1.279 . S
C273 C271 1.358 . S
C273 H331 0.930 . S
C274 C277 1.348 . S
C274 C278 1.356 . S
C274 O325 1.325 . S
C275 N276 1.279 . S
C275 C278 1.358 . S
C275 H332 0.930 . S
N276 C275 1.279 . S
N276 C279 1.314 . S
C277 C274 1.348 . S
C277 C279 1.353 . S
C277 H333 0.929 . S
C278 C274 1.356 . S
C278 C275 1.358 . S
C278 H334 0.930 . S
C279 N276 1.314 . S
C279 C277 1.353 . S
C279 H335 0.930 . S
C280 N281 1.314 . S
C280 C285 1.353 . S
C280 H286 0.930 . S
N281 Li264 1.990 . S
N281 C280 1.314 . S
N281 C283 1.279 . S
C282 C283 1.358 . S
C282 C284 1.356 . S
C282 H336 0.930 . S
C283 N281 1.279 . S
C283 C282 1.358 . S
C283 H287 0.930 . S
C284 C282 1.356 . S
C284 C285 1.348 . S
C285 C280 1.353 . S
C285 C284 1.348 . S
C285 H337 0.929 . S
H286 C280 0.930 . S
H287 C283 0.930 . S
C288 N289 1.314 . S
C288 C290 1.353 . S
C288 H294 0.930 . S
N289 Li265 1.990 . S
N289 C288 1.314 . S
N289 C292 1.279 . S
C290 C288 1.353 . S
C290 C293 1.348 . S
C290 H338 0.929 . S
C291 C292 1.358 . S
C291 C293 1.356 . S
C291 H339 0.930 . S
C292 N289 1.279 . S
C292 C291 1.358 . S
C292 H295 0.930 . S
C293 C290 1.348 . S
C293 C291 1.356 . S
H294 C288 0.930 . S
H295 C292 0.930 . S
C296 C298 1.348 . S
C296 C299 1.356 . S
C296 O326 1.325 . S
N297 C300 1.314 . S
N297 C301 1.279 . S
C298 C296 1.348 . S
C298 C300 1.353 . S
C298 H340 0.929 . S
C299 C296 1.356 . S
C299 C301 1.358 . S
C299 H341 0.930 . S
C300 N297 1.314 . S
C300 C298 1.353 . S
C300 H342 0.930 . S
C301 N297 1.279 . S
C301 C299 1.358 . S
C301 H343 0.930 . S
C302 C303 1.348 . S
C302 C304 1.356 . S
C302 O327 1.325 . S
C303 C302 1.348 . S
C303 C305 1.353 . S
C303 H344 0.929 . S
C304 C302 1.356 . S
C304 C306 1.358 . S
C304 H345 0.930 . S
C305 C303 1.353 . S
C305 N307 1.314 . S
C305 H346 0.930 . S
C306 C304 1.358 . S
C306 N307 1.279 . S
C306 H347 0.930 . S
N307 C305 1.314 . S
N307 C306 1.279 . S
C308 C310 1.353 . S
C308 N311 1.314 . S
C308 H314 0.930 . S
C309 N311 1.279 . S
C309 C312 1.358 . S
C309 H315 0.930 . S
C310 C308 1.353 . S
C310 C313 1.348 . S
C310 H348 0.929 . S
N311 Li266 1.990 . S
N311 C308 1.314 . S
N311 C309 1.279 . S
C312 C309 1.358 . S
C312 C313 1.356 . S
C312 H349 0.930 . S
C313 C310 1.348 . S
C313 C312 1.356 . S
H314 C308 0.930 . S
H315 C309 0.930 . S
C316 N317 1.314 . S
C316 C318 1.353 . S
C316 H322 0.930 . S
N317 Li267 1.990 . S
N317 C316 1.314 . S
N317 C320 1.279 . S
C318 C316 1.353 . S
C318 C321 1.348 . S
C318 H350 0.929 . S
C319 C320 1.358 . S
C319 C321 1.356 . S
C319 H351 0.930 . S
C320 N317 1.279 . S
C320 C319 1.358 . S
C320 H323 0.930 . S
C321 C318 1.348 . S
C321 C319 1.356 . S
H322 C316 0.930 . S
H323 C320 0.930 . S
O324 Li264 1.956 . S
O324 Li265 1.970 . S
O324 Li266 1.961 . S
O324 C268 1.325 . S
O325 Li264 1.970 . S
O325 Li265 1.956 . S
O325 Li267 1.961 . S
O325 C274 1.325 . S
O326 Li264 1.961 . S
O326 Li266 1.956 . S
O326 Li267 1.970 . S
O326 C296 1.325 . S
O327 Li265 1.961 . S
O327 Li266 1.970 . S
O327 Li267 1.956 . S
O327 C302 1.325 . S
H328 C270 0.929 . S
H329 C271 0.930 . S
H330 C272 0.930 . S
H331 C273 0.930 . S
H332 C275 0.930 . S
H333 C277 0.929 . S
H334 C278 0.930 . S
H335 C279 0.930 . S
H336 C282 0.930 . S
H337 C285 0.929 . S
H338 C290 0.929 . S
H339 C291 0.930 . S
H340 C298 0.929 . S
H341 C299 0.930 . S
H342 C300 0.930 . S
H343 C301 0.930 . S
H344 C303 0.929 . S
H345 C304 0.930 . S
H346 C305 0.930 . S
H347 C306 0.930 . S
H348 C310 0.929 . S
H349 C312 0.930 . S
H350 C318 0.929 . S
H351 C319 0.930 . S
Li352 N369 1.990 . S
Li352 O412 1.956 1_655 S
Li352 O413 1.970 1_665 S
Li352 O414 1.961 . S
Li353 N377 1.977 1_565 S
Li353 O412 1.970 . S
Li353 O413 1.956 1_565 S
Li353 O415 1.961 . S
Li354 N399 1.990 . S
Li354 O412 1.961 . S
Li354 O414 1.956 1_455 S
Li354 O415 1.970 . S
Li355 N405 1.990 . S
Li355 O413 1.961 1_565 S
Li355 O414 1.970 1_455 S
Li355 O415 1.956 . S
C356 C358 1.348 . S
C356 C359 1.356 1_455 S
C356 O412 1.325 . S
N357 C360 1.314 . S
N357 C361 1.279 1_455 S
C358 C356 1.348 . S
C358 C360 1.353 . S
C358 H416 0.929 . S
C359 C356 1.356 1_655 S
C359 C361 1.358 . S
C359 H417 0.930 . S
C360 N357 1.314 . S
C360 C358 1.353 . S
C360 H418 0.930 . S
C361 N357 1.279 1_655 S
C361 C359 1.358 . S
C361 H419 0.930 . S
C362 C365 1.348 1_455 S
C362 C366 1.356 . S
C362 O413 1.325 . S
C363 N364 1.279 . S
C363 C366 1.358 . S
C363 H420 0.930 . S
N364 C363 1.279 . S
N364 C367 1.314 1_455 S
C365 C362 1.348 1_655 S
C365 C367 1.353 . S
C365 H421 0.929 . S
C366 C362 1.356 . S
C366 C363 1.358 . S
C366 H422 0.930 . S
C367 N364 1.314 1_655 S
C367 C365 1.353 . S
C367 H423 0.930 . S
C368 N369 1.314 1_545 S
C368 C373 1.353 . S
C368 H374 0.933 . S
N369 Li352 1.990 . S
N369 C368 1.314 1_565 S
N369 C371 1.279 1_565 S
C370 C371 1.358 . S
C370 C372 1.356 . S
C370 H424 0.930 . S
C371 N369 1.279 1_545 S
C371 C370 1.358 . S
C371 H375 0.930 1_545 S
C372 C370 1.356 . S
C372 C373 1.348 . S
C373 C368 1.353 . S
C373 C372 1.348 . S
C373 H425 0.929 . S
H374 C368 0.933 . S
H375 C371 0.930 1_565 S
C376 N377 1.299 1_565 S
C376 C378 1.353 . S
C376 H382 0.930 . S
N377 Li353 1.977 1_545 S
N377 C376 1.299 1_545 S
N377 C380 1.308 . S
C378 C376 1.353 . S
C378 C381 1.348 1_565 S
C378 H426 0.929 . S
C379 C380 1.358 . S
C379 C381 1.356 . S
C379 H427 0.930 . S
C380 N377 1.308 . S
C380 C379 1.358 . S
C380 H383 0.930 . S
C381 C378 1.348 1_545 S
C381 C379 1.356 . S
H382 C376 0.930 . S
H383 C380 0.930 . S
C384 C386 1.348 . S
C384 C387 1.356 . S
C384 O414 1.325 . S
N385 C388 1.314 . S
N385 C389 1.279 . S
C386 C384 1.348 . S
C386 C388 1.353 . S
C386 H428 0.929 . S
C387 C384 1.356 . S
C387 C389 1.358 . S
C387 H429 0.930 . S
C388 N385 1.314 . S
C388 C386 1.353 . S
C388 H430 0.930 . S
C389 N385 1.279 . S
C389 C387 1.358 . S
C389 H431 0.930 . S
C390 C391 1.348 . S
C390 C392 1.356 . S
C390 O415 1.325 . S
C391 C390 1.348 . S
C391 C393 1.353 . S
C391 H432 0.929 . S
C392 C390 1.356 . S
C392 C394 1.358 . S
C392 H433 0.930 . S
C393 C391 1.353 . S
C393 N395 1.314 . S
C393 H434 0.930 . S
C394 C392 1.358 . S
C394 N395 1.279 . S
C394 H435 0.930 . S
N395 C393 1.314 . S
N395 C394 1.279 . S
C396 C398 1.353 . S
C396 N399 1.314 . S
C396 H402 0.930 . S
C397 N399 1.279 1_655 S
C397 C400 1.358 . S
C397 H403 0.930 . S
C398 C396 1.353 . S
C398 C401 1.348 . S
C398 H436 0.929 . S
N399 Li354 1.990 . S
N399 C396 1.314 . S
N399 C397 1.279 1_455 S
C400 C397 1.358 . S
C400 C401 1.356 1_655 S
C400 H437 0.930 . S
C401 C398 1.348 . S
C401 C400 1.356 1_455 S
H402 C396 0.930 . S
H403 C397 0.930 . S
C404 N405 1.314 1_655 S
C404 C406 1.348 1_565 S
C404 H410 0.930 1_565 S
N405 Li355 1.990 . S
N405 C404 1.314 1_455 S
N405 C408 1.279 . S
C406 C404 1.348 1_545 S
C406 C409 1.332 1_645 S
C406 H438 0.951 . S
C407 C408 1.358 . S
C407 C409 1.356 . S
C407 H439 0.930 . S
C408 N405 1.279 . S
C408 C407 1.358 . S
C408 H411 0.930 . S
C409 C406 1.332 1_465 S
C409 C407 1.356 . S
H410 C404 0.930 1_545 S
H411 C408 0.930 . S
O412 Li352 1.956 1_455 S
O412 Li353 1.970 . S
O412 Li354 1.961 . S
O412 C356 1.325 . S
O413 Li352 1.970 1_445 S
O413 Li353 1.956 1_545 S
O413 Li355 1.961 1_545 S
O413 C362 1.325 . S
O414 Li352 1.961 . S
O414 Li354 1.956 1_655 S
O414 Li355 1.970 1_655 S
O414 C384 1.325 . S
O415 Li353 1.961 . S
O415 Li354 1.970 . S
O415 Li355 1.956 . S
O415 C390 1.325 . S
H416 C358 0.929 . S
H417 C359 0.930 . S
H418 C360 0.930 . S
H419 C361 0.930 . S
H420 C363 0.930 . S
H421 C365 0.929 . S
H422 C366 0.930 . S
H423 C367 0.930 . S
H424 C370 0.930 . S
H425 C373 0.929 . S
H426 C378 0.929 . S
H427 C379 0.930 . S
H428 C386 0.929 . S
H429 C387 0.930 . S
H430 C388 0.930 . S
H431 C389 0.930 . S
H432 C391 0.929 . S
H433 C392 0.930 . S
H434 C393 0.930 . S
H435 C394 0.930 . S
H436 C398 0.929 . S
H437 C400 0.930 . S
H438 C406 0.951 . S
H439 C407 0.930 . S
Li440 N457 1.990 . S
Li440 O500 1.956 . S
Li440 O501 1.970 . S
Li440 O502 1.961 . S
Li441 N465 1.990 . S
Li441 O500 1.970 . S
Li441 O501 1.956 . S
Li441 O503 1.961 . S
Li442 N487 1.990 . S
Li442 O500 1.961 . S
Li442 O502 1.956 . S
Li442 O503 1.970 . S
Li443 N493 1.990 . S
Li443 O501 1.961 . S
Li443 O502 1.970 . S
Li443 O503 1.956 . S
C444 C446 1.348 . S
C444 C447 1.356 . S
C444 O500 1.325 . S
N445 C448 1.314 . S
N445 C449 1.279 . S
C446 C444 1.348 . S
C446 C448 1.353 . S
C446 H504 0.929 . S
C447 C444 1.356 . S
C447 C449 1.358 . S
C447 H505 0.930 . S
C448 N445 1.314 . S
C448 C446 1.353 . S
C448 H506 0.930 . S
C449 N445 1.279 . S
C449 C447 1.358 . S
C449 H507 0.930 . S
C450 C453 1.348 . S
C450 C454 1.356 . S
C450 O501 1.325 . S
C451 N452 1.279 . S
C451 C454 1.358 . S
C451 H508 0.930 . S
N452 C451 1.279 . S
N452 C455 1.314 . S
C453 C450 1.348 . S
C453 C455 1.353 . S
C453 H509 0.929 . S
C454 C450 1.356 . S
C454 C451 1.358 . S
C454 H510 0.930 . S
C455 N452 1.314 . S
C455 C453 1.353 . S
C455 H511 0.930 . S
C456 N457 1.314 . S
C456 C461 1.353 . S
C456 H462 0.930 . S
N457 Li440 1.990 . S
N457 C456 1.314 . S
N457 C459 1.279 . S
C458 C459 1.358 . S
C458 C460 1.356 . S
C458 H512 0.930 . S
C459 N457 1.279 . S
C459 C458 1.358 . S
C459 H463 0.930 . S
C460 C458 1.356 . S
C460 C461 1.348 . S
C461 C456 1.353 . S
C461 C460 1.348 . S
C461 H513 0.929 . S
H462 C456 0.930 . S
H463 C459 0.930 . S
C464 N465 1.314 . S
C464 C466 1.353 . S
C464 H470 0.930 . S
N465 Li441 1.990 . S
N465 C464 1.314 . S
N465 C468 1.279 . S
C466 C464 1.353 . S
C466 C469 1.348 . S
C466 H514 0.929 . S
C467 C468 1.358 . S
C467 C469 1.356 . S
C467 H515 0.930 . S
C468 N465 1.279 . S
C468 C467 1.358 . S
C468 H471 0.930 . S
C469 C466 1.348 . S
C469 C467 1.356 . S
H470 C464 0.930 . S
H471 C468 0.930 . S
C472 C474 1.348 . S
C472 C475 1.356 . S
C472 O502 1.325 . S
N473 C476 1.314 . S
N473 C477 1.279 . S
C474 C472 1.348 . S
C474 C476 1.353 . S
C474 H516 0.929 . S
C475 C472 1.356 . S
C475 C477 1.358 . S
C475 H517 0.930 . S
C476 N473 1.314 . S
C476 C474 1.353 . S
C476 H518 0.930 . S
C477 N473 1.279 . S
C477 C475 1.358 . S
C477 H519 0.930 . S
C478 C479 1.348 . S
C478 C480 1.356 . S
C478 O503 1.325 . S
C479 C478 1.348 . S
C479 C481 1.353 . S
C479 H520 0.929 . S
C480 C478 1.356 . S
C480 C482 1.358 . S
C480 H521 0.930 . S
C481 C479 1.353 . S
C481 N483 1.314 . S
C481 H522 0.930 . S
C482 C480 1.358 . S
C482 N483 1.279 . S
C482 H523 0.930 . S
N483 C481 1.314 . S
N483 C482 1.279 . S
C484 C486 1.353 . S
C484 N487 1.314 . S
C484 H490 0.930 . S
C485 N487 1.279 . S
C485 C488 1.358 . S
C485 H491 0.930 . S
C486 C484 1.353 . S
C486 C489 1.348 . S
C486 H524 0.929 . S
N487 Li442 1.990 . S
N487 C484 1.314 . S
N487 C485 1.279 . S
C488 C485 1.358 . S
C488 C489 1.356 . S
C488 H525 0.930 . S
C489 C486 1.348 . S
C489 C488 1.356 . S
H490 C484 0.930 . S
H491 C485 0.930 . S
C492 N493 1.314 . S
C492 C494 1.353 . S
C492 H498 0.930 . S
N493 Li443 1.990 . S
N493 C492 1.314 . S
N493 C496 1.279 . S
C494 C492 1.353 . S
C494 C497 1.348 . S
C494 H526 0.929 . S
C495 C496 1.358 . S
C495 C497 1.356 . S
C495 H527 0.930 . S
C496 N493 1.279 . S
C496 C495 1.358 . S
C496 H499 0.930 . S
C497 C494 1.348 . S
C497 C495 1.356 . S
H498 C492 0.930 . S
H499 C496 0.930 . S
O500 Li440 1.956 . S
O500 Li441 1.970 . S
O500 Li442 1.961 . S
O500 C444 1.325 . S
O501 Li440 1.970 . S
O501 Li441 1.956 . S
O501 Li443 1.961 . S
O501 C450 1.325 . S
O502 Li440 1.961 . S
O502 Li442 1.956 . S
O502 Li443 1.970 . S
O502 C472 1.325 . S
O503 Li441 1.961 . S
O503 Li442 1.970 . S
O503 Li443 1.956 . S
O503 C478 1.325 . S
H504 C446 0.929 . S
H505 C447 0.930 . S
H506 C448 0.930 . S
H507 C449 0.930 . S
H508 C451 0.930 . S
H509 C453 0.929 . S
H510 C454 0.930 . S
H511 C455 0.930 . S
H512 C458 0.930 . S
H513 C461 0.929 . S
H514 C466 0.929 . S
H515 C467 0.930 . S
H516 C474 0.929 . S
H517 C475 0.930 . S
H518 C476 0.930 . S
H519 C477 0.930 . S
H520 C479 0.929 . S
H521 C480 0.930 . S
H522 C481 0.930 . S
H523 C482 0.930 . S
H524 C486 0.929 . S
H525 C488 0.930 . S
H526 C494 0.929 . S
H527 C495 0.930 . S
Li528 N545 1.990 . S
Li528 O588 1.956 . S
Li528 O589 1.970 . S
Li528 O590 1.961 . S
Li529 N553 1.990 . S
Li529 O588 1.970 . S
Li529 O589 1.956 . S
Li529 O591 1.961 1_545 S
Li530 N575 1.990 . S
Li530 O588 1.961 . S
Li530 O590 1.956 . S
Li530 O591 1.970 1_545 S
Li531 N581 1.978 1_545 S
Li531 O589 1.961 . S
Li531 O590 1.970 . S
Li531 O591 1.956 1_545 S
C532 C534 1.348 . S
C532 C535 1.356 . S
C532 O588 1.325 . S
N533 C536 1.314 . S
N533 C537 1.279 . S
C534 C532 1.348 . S
C534 C536 1.353 . S
C534 H592 0.929 . S
C535 C532 1.356 . S
C535 C537 1.358 . S
C535 H593 0.930 . S
C536 N533 1.314 . S
C536 C534 1.353 . S
C536 H594 0.930 . S
C537 N533 1.279 . S
C537 C535 1.358 . S
C537 H595 0.930 . S
C538 C541 1.348 . S
C538 C542 1.356 . S
C538 O589 1.325 . S
C539 N540 1.279 . S
C539 C542 1.358 . S
C539 H596 0.930 . S
N540 C539 1.279 . S
N540 C543 1.314 . S
C541 C538 1.348 . S
C541 C543 1.353 . S
C541 H597 0.929 . S
C542 C538 1.356 . S
C542 C539 1.358 . S
C542 H598 0.930 . S
C543 N540 1.314 . S
C543 C541 1.353 . S
C543 H599 0.930 . S
C544 N545 1.314 . S
C544 C549 1.353 . S
C544 H550 0.930 . S
N545 Li528 1.990 . S
N545 C544 1.314 . S
N545 C547 1.279 . S
C546 C547 1.358 . S
C546 C548 1.356 . S
C546 H600 0.930 . S
C547 N545 1.279 . S
C547 C546 1.358 . S
C547 H551 0.930 . S
C548 C546 1.356 . S
C548 C549 1.348 . S
C549 C544 1.353 . S
C549 C548 1.348 . S
C549 H601 0.929 . S
H550 C544 0.930 . S
H551 C547 0.930 . S
C552 N553 1.314 . S
C552 C554 1.348 1_545 S
C552 H558 0.930 1_545 S
N553 Li529 1.990 . S
N553 C552 1.314 . S
N553 C556 1.279 . S
C554 C552 1.348 1_565 S
C554 C557 1.332 1_565 S
C554 H602 0.950 . S
C555 C556 1.358 . S
C555 C557 1.356 . S
C555 H603 0.930 . S
C556 N553 1.279 . S
C556 C555 1.358 . S
C556 H559 0.930 . S
C557 C554 1.332 1_545 S
C557 C555 1.356 . S
H558 C552 0.930 1_565 S
H559 C556 0.930 . S
C560 C562 1.348 . S
C560 C563 1.356 . S
C560 O590 1.325 . S
N561 C564 1.314 . S
N561 C565 1.279 . S
C562 C560 1.348 . S
C562 C564 1.353 . S
C562 H604 0.929 . S
C563 C560 1.356 . S
C563 C565 1.358 . S
C563 H605 0.930 . S
C564 N561 1.314 . S
C564 C562 1.353 . S
C564 H606 0.930 . S
C565 N561 1.279 . S
C565 C563 1.358 . S
C565 H607 0.930 . S
C566 C567 1.348 . S
C566 C568 1.356 . S
C566 O591 1.325 . S
C567 C566 1.348 . S
C567 C569 1.353 . S
C567 H608 0.929 . S
C568 C566 1.356 . S
C568 C570 1.358 . S
C568 H609 0.930 . S
C569 C567 1.353 . S
C569 N571 1.314 . S
C569 H610 0.930 . S
C570 C568 1.358 . S
C570 N571 1.279 . S
C570 H611 0.930 . S
N571 C569 1.314 . S
N571 C570 1.279 . S
C572 C574 1.353 . S
C572 N575 1.314 1_565 S
C572 H578 0.933 . S
C573 N575 1.279 1_565 S
C573 C576 1.358 . S
C573 H579 0.930 1_565 S
C574 C572 1.353 . S
C574 C577 1.348 . S
C574 H612 0.929 . S
N575 Li530 1.990 . S
N575 C572 1.314 1_545 S
N575 C573 1.279 1_545 S
C576 C573 1.358 . S
C576 C577 1.356 . S
C576 H613 0.930 . S
C577 C574 1.348 . S
C577 C576 1.356 . S
H578 C572 0.933 . S
H579 C573 0.930 1_545 S
C580 N581 1.300 1_545 S
C580 C582 1.353 . S
C580 H586 0.930 . S
N581 Li531 1.978 1_565 S
N581 C580 1.300 1_565 S
N581 C584 1.307 . S
C582 C580 1.353 . S
C582 C585 1.348 1_545 S
C582 H614 0.929 . S
C583 C584 1.358 . S
C583 C585 1.356 . S
C583 H615 0.930 . S
C584 N581 1.307 . S
C584 C583 1.358 . S
C584 H587 0.930 . S
C585 C582 1.348 1_565 S
C585 C583 1.356 . S
H586 C580 0.930 . S
H587 C584 0.930 . S
O588 Li528 1.956 . S
O588 Li529 1.970 . S
O588 Li530 1.961 . S
O588 C532 1.325 . S
O589 Li528 1.970 . S
O589 Li529 1.956 . S
O589 Li531 1.961 . S
O589 C538 1.325 . S
O590 Li528 1.961 . S
O590 Li530 1.956 . S
O590 Li531 1.970 . S
O590 C560 1.325 . S
O591 Li529 1.961 1_565 S
O591 Li530 1.970 1_565 S
O591 Li531 1.956 1_565 S
O591 C566 1.325 . S
H592 C534 0.929 . S
H593 C535 0.930 . S
H594 C536 0.930 . S
H595 C537 0.930 . S
H596 C539 0.930 . S
H597 C541 0.929 . S
H598 C542 0.930 . S
H599 C543 0.930 . S
H600 C546 0.930 . S
H601 C549 0.929 . S
H602 C554 0.950 . S
H603 C555 0.930 . S
H604 C562 0.929 . S
H605 C563 0.930 . S
H606 C564 0.930 . S
H607 C565 0.930 . S
H608 C567 0.929 . S
H609 C568 0.930 . S
H610 C569 0.930 . S
H611 C570 0.930 . S
H612 C574 0.929 . S
H613 C576 0.930 . S
H614 C582 0.929 . S
H615 C583 0.930 . S
Li616 N633 1.990 . S
Li616 O676 1.956 . S
Li616 O677 1.970 . S
Li616 O678 1.961 . S
Li617 N641 1.990 . S
Li617 O676 1.970 . S
Li617 O677 1.956 . S
Li617 O679 1.961 . S
Li618 N663 1.990 . S
Li618 O676 1.961 . S
Li618 O678 1.956 . S
Li618 O679 1.970 . S
Li619 N669 1.990 . S
Li619 O677 1.961 . S
Li619 O678 1.970 . S
Li619 O679 1.956 . S
C620 C622 1.348 . S
C620 C623 1.356 . S
C620 O676 1.325 . S
N621 C624 1.314 . S
N621 C625 1.279 . S
C622 C620 1.348 . S
C622 C624 1.353 . S
C622 H680 0.929 . S
C623 C620 1.356 . S
C623 C625 1.358 . S
C623 H681 0.930 . S
C624 N621 1.314 . S
C624 C622 1.353 . S
C624 H682 0.930 . S
C625 N621 1.279 . S
C625 C623 1.358 . S
C625 H683 0.930 . S
C626 C629 1.348 . S
C626 C630 1.356 . S
C626 O677 1.325 . S
C627 N628 1.279 . S
C627 C630 1.358 . S
C627 H684 0.930 . S
N628 C627 1.279 . S
N628 C631 1.314 . S
C629 C626 1.348 . S
C629 C631 1.353 . S
C629 H685 0.929 . S
C630 C626 1.356 . S
C630 C627 1.358 . S
C630 H686 0.930 . S
C631 N628 1.314 . S
C631 C629 1.353 . S
C631 H687 0.930 . S
C632 N633 1.314 . S
C632 C637 1.353 . S
C632 H638 0.930 . S
N633 Li616 1.990 . S
N633 C632 1.314 . S
N633 C635 1.279 . S
C634 C635 1.358 . S
C634 C636 1.356 . S
C634 H688 0.930 . S
C635 N633 1.279 . S
C635 C634 1.358 . S
C635 H639 0.930 . S
C636 C634 1.356 . S
C636 C637 1.348 . S
C637 C632 1.353 . S
C637 C636 1.348 . S
C637 H689 0.929 . S
H638 C632 0.930 . S
H639 C635 0.930 . S
C640 N641 1.314 . S
C640 C642 1.353 . S
C640 H646 0.930 . S
N641 Li617 1.990 . S
N641 C640 1.314 . S
N641 C644 1.279 . S
C642 C640 1.353 . S
C642 C645 1.348 . S
C642 H690 0.929 . S
C643 C644 1.358 . S
C643 C645 1.356 . S
C643 H691 0.930 . S
C644 N641 1.279 . S
C644 C643 1.358 . S
C644 H647 0.930 . S
C645 C642 1.348 . S
C645 C643 1.356 . S
H646 C640 0.930 . S
H647 C644 0.930 . S
C648 C650 1.348 . S
C648 C651 1.356 . S
C648 O678 1.325 . S
N649 C652 1.314 . S
N649 C653 1.279 . S
C650 C648 1.348 . S
C650 C652 1.353 . S
C650 H692 0.929 . S
C651 C648 1.356 . S
C651 C653 1.358 . S
C651 H693 0.930 . S
C652 N649 1.314 . S
C652 C650 1.353 . S
C652 H694 0.930 . S
C653 N649 1.279 . S
C653 C651 1.358 . S
C653 H695 0.930 . S
C654 C655 1.348 . S
C654 C656 1.356 . S
C654 O679 1.325 . S
C655 C654 1.348 . S
C655 C657 1.353 . S
C655 H696 0.929 . S
C656 C654 1.356 . S
C656 C658 1.358 . S
C656 H697 0.930 . S
C657 C655 1.353 . S
C657 N659 1.314 . S
C657 H698 0.930 . S
C658 C656 1.358 . S
C658 N659 1.279 . S
C658 H699 0.930 . S
N659 C657 1.314 . S
N659 C658 1.279 . S
C660 C662 1.353 . S
C660 N663 1.314 . S
C660 H666 0.930 . S
C661 N663 1.279 . S
C661 C664 1.358 . S
C661 H667 0.930 . S
C662 C660 1.353 . S
C662 C665 1.348 . S
C662 H700 0.929 . S
N663 Li618 1.990 . S
N663 C660 1.314 . S
N663 C661 1.279 . S
C664 C661 1.358 . S
C664 C665 1.356 . S
C664 H701 0.930 . S
C665 C662 1.348 . S
C665 C664 1.356 . S
H666 C660 0.930 . S
H667 C661 0.930 . S
C668 N669 1.314 . S
C668 C670 1.353 . S
C668 H674 0.930 . S
N669 Li619 1.990 . S
N669 C668 1.314 . S
N669 C672 1.279 . S
C670 C668 1.353 . S
C670 C673 1.348 . S
C670 H702 0.929 . S
C671 C672 1.358 . S
C671 C673 1.356 . S
C671 H703 0.930 . S
C672 N669 1.279 . S
C672 C671 1.358 . S
C672 H675 0.930 . S
C673 C670 1.348 . S
C673 C671 1.356 . S
H674 C668 0.930 . S
H675 C672 0.930 . S
O676 Li616 1.956 . S
O676 Li617 1.970 . S
O676 Li618 1.961 . S
O676 C620 1.325 . S
O677 Li616 1.970 . S
O677 Li617 1.956 . S
O677 Li619 1.961 . S
O677 C626 1.325 . S
O678 Li616 1.961 . S
O678 Li618 1.956 . S
O678 Li619 1.970 . S
O678 C648 1.325 . S
O679 Li617 1.961 . S
O679 Li618 1.970 . S
O679 Li619 1.956 . S
O679 C654 1.325 . S
H680 C622 0.929 . S
H681 C623 0.930 . S
H682 C624 0.930 . S
H683 C625 0.930 . S
H684 C627 0.930 . S
H685 C629 0.929 . S
H686 C630 0.930 . S
H687 C631 0.930 . S
H688 C634 0.930 . S
H689 C637 0.929 . S
H690 C642 0.929 . S
H691 C643 0.930 . S
H692 C650 0.929 . S
H693 C651 0.930 . S
H694 C652 0.930 . S
H695 C653 0.930 . S
H696 C655 0.929 . S
H697 C656 0.930 . S
H698 C657 0.930 . S
H699 C658 0.930 . S
H700 C662 0.929 . S
H701 C664 0.930 . S
H702 C670 0.929 . S
H703 C671 0.930 . S
Li704 N721 1.990 . S
Li704 O764 1.956 . S
Li704 O765 1.970 . S
Li704 O766 1.961 . S
Li705 N729 1.990 . S
Li705 O764 1.970 . S
Li705 O765 1.956 . S
Li705 O767 1.961 . S
Li706 N751 1.990 . S
Li706 O764 1.961 . S
Li706 O766 1.956 . S
Li706 O767 1.970 . S
Li707 N757 1.990 . S
Li707 O765 1.961 . S
Li707 O766 1.970 . S
Li707 O767 1.956 . S
C708 C710 1.348 . S
C708 C711 1.356 . S
C708 O764 1.325 . S
N709 C712 1.314 . S
N709 C713 1.279 . S
C710 C708 1.348 . S
C710 C712 1.353 . S
C710 H768 0.929 . S
C711 C708 1.356 . S
C711 C713 1.358 . S
C711 H769 0.930 . S
C712 N709 1.314 . S
C712 C710 1.353 . S
C712 H770 0.930 . S
C713 N709 1.279 . S
C713 C711 1.358 . S
C713 H771 0.930 . S
C714 C717 1.348 . S
C714 C718 1.356 . S
C714 O765 1.325 . S
C715 N716 1.279 . S
C715 C718 1.358 . S
C715 H772 0.930 . S
N716 C715 1.279 . S
N716 C719 1.314 . S
C717 C714 1.348 . S
C717 C719 1.353 . S
C717 H773 0.929 . S
C718 C714 1.356 . S
C718 C715 1.358 . S
C718 H774 0.930 . S
C719 N716 1.314 . S
C719 C717 1.353 . S
C719 H775 0.930 . S
C720 N721 1.314 . S
C720 C725 1.353 . S
C720 H726 0.930 . S
N721 Li704 1.990 . S
N721 C720 1.314 . S
N721 C723 1.279 . S
C722 C723 1.358 . S
C722 C724 1.356 . S
C722 H776 0.930 . S
C723 N721 1.279 . S
C723 C722 1.358 . S
C723 H727 0.930 . S
C724 C722 1.356 . S
C724 C725 1.348 . S
C725 C720 1.353 . S
C725 C724 1.348 . S
C725 H777 0.929 . S
H726 C720 0.930 . S
H727 C723 0.930 . S
C728 N729 1.314 . S
C728 C730 1.353 . S
C728 H734 0.930 . S
N729 Li705 1.990 . S
N729 C728 1.314 . S
N729 C732 1.279 . S
C730 C728 1.353 . S
C730 C733 1.348 . S
C730 H778 0.929 . S
C731 C732 1.358 . S
C731 C733 1.356 . S
C731 H779 0.930 . S
C732 N729 1.279 . S
C732 C731 1.358 . S
C732 H735 0.930 . S
C733 C730 1.348 . S
C733 C731 1.356 . S
H734 C728 0.930 . S
H735 C732 0.930 . S
C736 C738 1.348 . S
C736 C739 1.356 . S
C736 O766 1.325 . S
N737 C740 1.314 . S
N737 C741 1.279 . S
C738 C736 1.348 . S
C738 C740 1.353 . S
C738 H780 0.929 . S
C739 C736 1.356 . S
C739 C741 1.358 . S
C739 H781 0.930 . S
C740 N737 1.314 . S
C740 C738 1.353 . S
C740 H782 0.930 . S
C741 N737 1.279 . S
C741 C739 1.358 . S
C741 H783 0.930 . S
C742 C743 1.348 . S
C742 C744 1.356 . S
C742 O767 1.325 . S
C743 C742 1.348 . S
C743 C745 1.353 . S
C743 H784 0.929 . S
C744 C742 1.356 . S
C744 C746 1.358 . S
C744 H785 0.930 . S
C745 C743 1.353 . S
C745 N747 1.314 . S
C745 H786 0.930 . S
C746 C744 1.358 . S
C746 N747 1.279 . S
C746 H787 0.930 . S
N747 C745 1.314 . S
N747 C746 1.279 . S
C748 C750 1.353 . S
C748 N751 1.314 . S
C748 H754 0.930 . S
C749 N751 1.279 . S
C749 C752 1.358 . S
C749 H755 0.930 . S
C750 C748 1.353 . S
C750 C753 1.348 . S
C750 H788 0.929 . S
N751 Li706 1.990 . S
N751 C748 1.314 . S
N751 C749 1.279 . S
C752 C749 1.358 . S
C752 C753 1.356 . S
C752 H789 0.930 . S
C753 C750 1.348 . S
C753 C752 1.356 . S
H754 C748 0.930 . S
H755 C749 0.930 . S
C756 N757 1.314 . S
C756 C758 1.353 . S
C756 H762 0.930 . S
N757 Li707 1.990 . S
N757 C756 1.314 . S
N757 C760 1.279 . S
C758 C756 1.353 . S
C758 C761 1.348 . S
C758 H790 0.929 . S
C759 C760 1.358 . S
C759 C761 1.356 . S
C759 H791 0.930 . S
C760 N757 1.279 . S
C760 C759 1.358 . S
C760 H763 0.930 . S
C761 C758 1.348 . S
C761 C759 1.356 . S
H762 C756 0.930 . S
H763 C760 0.930 . S
O764 Li704 1.956 . S
O764 Li705 1.970 . S
O764 Li706 1.961 . S
O764 C708 1.325 . S
O765 Li704 1.970 . S
O765 Li705 1.956 . S
O765 Li707 1.961 . S
O765 C714 1.325 . S
O766 Li704 1.961 . S
O766 Li706 1.956 . S
O766 Li707 1.970 . S
O766 C736 1.325 . S
O767 Li705 1.961 . S
O767 Li706 1.970 . S
O767 Li707 1.956 . S
O767 C742 1.325 . S
H768 C710 0.929 . S
H769 C711 0.930 . S
H770 C712 0.930 . S
H771 C713 0.930 . S
H772 C715 0.930 . S
H773 C717 0.929 . S
H774 C718 0.930 . S
H775 C719 0.930 . S
H776 C722 0.930 . S
H777 C725 0.929 . S
H778 C730 0.929 . S
H779 C731 0.930 . S
H780 C738 0.929 . S
H781 C739 0.930 . S
H782 C740 0.930 . S
H783 C741 0.930 . S
H784 C743 0.929 . S
H785 C744 0.930 . S
H786 C745 0.930 . S
H787 C746 0.930 . S
H788 C750 0.929 . S
H789 C752 0.930 . S
H790 C758 0.929 . S
H791 C759 0.930 . S
Li792 N809 1.990 . S
Li792 O852 1.956 . S
Li792 O853 1.970 . S
Li792 O854 1.961 . S
Li793 N817 1.990 . S
Li793 O852 1.970 . S
Li793 O853 1.956 . S
Li793 O855 1.961 . S
Li794 N839 1.990 . S
Li794 O852 1.961 . S
Li794 O854 1.956 . S
Li794 O855 1.970 . S
Li795 N845 1.990 . S
Li795 O853 1.961 . S
Li795 O854 1.970 . S
Li795 O855 1.956 . S
C796 C798 1.348 . S
C796 C799 1.356 . S
C796 O852 1.325 . S
N797 C800 1.314 . S
N797 C801 1.279 . S
C798 C796 1.348 . S
C798 C800 1.353 . S
C798 H856 0.929 . S
C799 C796 1.356 . S
C799 C801 1.358 . S
C799 H857 0.930 . S
C800 N797 1.314 . S
C800 C798 1.353 . S
C800 H858 0.930 . S
C801 N797 1.279 . S
C801 C799 1.358 . S
C801 H859 0.930 . S
C802 C805 1.348 . S
C802 C806 1.356 . S
C802 O853 1.325 . S
C803 N804 1.279 . S
C803 C806 1.358 . S
C803 H860 0.930 . S
N804 C803 1.279 . S
N804 C807 1.314 . S
C805 C802 1.348 . S
C805 C807 1.353 . S
C805 H861 0.929 . S
C806 C802 1.356 . S
C806 C803 1.358 . S
C806 H862 0.930 . S
C807 N804 1.314 . S
C807 C805 1.353 . S
C807 H863 0.930 . S
C808 N809 1.314 . S
C808 C813 1.353 . S
C808 H814 0.930 . S
N809 Li792 1.990 . S
N809 C808 1.314 . S
N809 C811 1.279 . S
C810 C811 1.358 . S
C810 C812 1.356 . S
C810 H864 0.930 . S
C811 N809 1.279 . S
C811 C810 1.358 . S
C811 H815 0.930 . S
C812 C810 1.356 . S
C812 C813 1.348 . S
C813 C808 1.353 . S
C813 C812 1.348 . S
C813 H865 0.929 . S
H814 C808 0.930 . S
H815 C811 0.930 . S
C816 N817 1.314 . S
C816 C818 1.353 . S
C816 H822 0.930 . S
N817 Li793 1.990 . S
N817 C816 1.314 . S
N817 C820 1.279 . S
C818 C816 1.353 . S
C818 C821 1.348 . S
C818 H866 0.929 . S
C819 C820 1.358 . S
C819 C821 1.356 . S
C819 H867 0.930 . S
C820 N817 1.279 . S
C820 C819 1.358 . S
C820 H823 0.930 . S
C821 C818 1.348 . S
C821 C819 1.356 . S
H822 C816 0.930 . S
H823 C820 0.930 . S
C824 C826 1.348 . S
C824 C827 1.356 . S
C824 O854 1.325 . S
N825 C828 1.314 . S
N825 C829 1.279 . S
C826 C824 1.348 . S
C826 C828 1.353 . S
C826 H868 0.929 . S
C827 C824 1.356 . S
C827 C829 1.358 . S
C827 H869 0.930 . S
C828 N825 1.314 . S
C828 C826 1.353 . S
C828 H870 0.930 . S
C829 N825 1.279 . S
C829 C827 1.358 . S
C829 H871 0.930 . S
C830 C831 1.348 . S
C830 C832 1.356 . S
C830 O855 1.325 . S
C831 C830 1.348 . S
C831 C833 1.353 . S
C831 H872 0.929 . S
C832 C830 1.356 . S
C832 C834 1.358 . S
C832 H873 0.930 . S
C833 C831 1.353 . S
C833 N835 1.314 . S
C833 H874 0.930 . S
C834 C832 1.358 . S
C834 N835 1.279 . S
C834 H875 0.930 . S
N835 C833 1.314 . S
N835 C834 1.279 . S
C836 C838 1.353 . S
C836 N839 1.314 . S
C836 H842 0.930 . S
C837 N839 1.279 . S
C837 C840 1.358 . S
C837 H843 0.930 . S
C838 C836 1.353 . S
C838 C841 1.348 . S
C838 H876 0.929 . S
N839 Li794 1.990 . S
N839 C836 1.314 . S
N839 C837 1.279 . S
C840 C837 1.358 . S
C840 C841 1.356 . S
C840 H877 0.930 . S
C841 C838 1.348 . S
C841 C840 1.356 . S
H842 C836 0.930 . S
H843 C837 0.930 . S
C844 N845 1.314 . S
C844 C846 1.353 . S
C844 H850 0.930 . S
N845 Li795 1.990 . S
N845 C844 1.314 . S
N845 C848 1.279 . S
C846 C844 1.353 . S
C846 C849 1.348 . S
C846 H878 0.929 . S
C847 C848 1.358 . S
C847 C849 1.356 . S
C847 H879 0.930 . S
C848 N845 1.279 . S
C848 C847 1.358 . S
C848 H851 0.930 . S
C849 C846 1.348 . S
C849 C847 1.356 . S
H850 C844 0.930 . S
H851 C848 0.930 . S
O852 Li792 1.956 . S
O852 Li793 1.970 . S
O852 Li794 1.961 . S
O852 C796 1.325 . S
O853 Li792 1.970 . S
O853 Li793 1.956 . S
O853 Li795 1.961 . S
O853 C802 1.325 . S
O854 Li792 1.961 . S
O854 Li794 1.956 . S
O854 Li795 1.970 . S
O854 C824 1.325 . S
O855 Li793 1.961 . S
O855 Li794 1.970 . S
O855 Li795 1.956 . S
O855 C830 1.325 . S
H856 C798 0.929 . S
H857 C799 0.930 . S
H858 C800 0.930 . S
H859 C801 0.930 . S
H860 C803 0.930 . S
H861 C805 0.929 . S
H862 C806 0.930 . S
H863 C807 0.930 . S
H864 C810 0.930 . S
H865 C813 0.929 . S
H866 C818 0.929 . S
H867 C819 0.930 . S
H868 C826 0.929 . S
H869 C827 0.930 . S
H870 C828 0.930 . S
H871 C829 0.930 . S
H872 C831 0.929 . S
H873 C832 0.930 . S
H874 C833 0.930 . S
H875 C834 0.930 . S
H876 C838 0.929 . S
H877 C840 0.930 . S
H878 C846 0.929 . S
H879 C847 0.930 . S
Li880 N897 1.990 . S
Li880 O940 1.956 . S
Li880 O941 1.970 . S
Li880 O942 1.961 . S
Li881 N905 1.990 . S
Li881 O940 1.970 . S
Li881 O941 1.956 . S
Li881 O943 1.961 . S
Li882 N927 1.990 . S
Li882 O940 1.961 . S
Li882 O942 1.956 . S
Li882 O943 1.970 . S
Li883 N933 1.990 . S
Li883 O941 1.961 . S
Li883 O942 1.970 . S
Li883 O943 1.956 . S
C884 C886 1.348 . S
C884 C887 1.356 . S
C884 O940 1.325 . S
N885 C888 1.314 . S
N885 C889 1.279 . S
C886 C884 1.348 . S
C886 C888 1.353 . S
C886 H944 0.929 . S
C887 C884 1.356 . S
C887 C889 1.358 . S
C887 H945 0.930 . S
C888 N885 1.314 . S
C888 C886 1.353 . S
C888 H946 0.930 . S
C889 N885 1.279 . S
C889 C887 1.358 . S
C889 H947 0.930 . S
C890 C893 1.348 . S
C890 C894 1.356 . S
C890 O941 1.325 . S
C891 N892 1.279 . S
C891 C894 1.358 . S
C891 H948 0.930 . S
N892 C891 1.279 . S
N892 C895 1.314 . S
C893 C890 1.348 . S
C893 C895 1.353 . S
C893 H949 0.929 . S
C894 C890 1.356 . S
C894 C891 1.358 . S
C894 H950 0.930 . S
C895 N892 1.314 . S
C895 C893 1.353 . S
C895 H951 0.930 . S
C896 N897 1.314 . S
C896 C901 1.353 . S
C896 H902 0.930 . S
N897 Li880 1.990 . S
N897 C896 1.314 . S
N897 C899 1.279 . S
C898 C899 1.358 . S
C898 C900 1.356 . S
C898 H952 0.930 . S
C899 N897 1.279 . S
C899 C898 1.358 . S
C899 H903 0.930 . S
C900 C898 1.356 . S
C900 C901 1.348 . S
C901 C896 1.353 . S
C901 C900 1.348 . S
C901 H953 0.929 . S
H902 C896 0.930 . S
H903 C899 0.930 . S
C904 N905 1.314 . S
C904 C906 1.353 . S
C904 H910 0.930 . S
N905 Li881 1.990 . S
N905 C904 1.314 . S
N905 C908 1.279 . S
C906 C904 1.353 . S
C906 C909 1.348 . S
C906 H954 0.929 . S
C907 C908 1.358 . S
C907 C909 1.356 . S
C907 H955 0.930 . S
C908 N905 1.279 . S
C908 C907 1.358 . S
C908 H911 0.930 . S
C909 C906 1.348 . S
C909 C907 1.356 . S
H910 C904 0.930 . S
H911 C908 0.930 . S
C912 C914 1.348 . S
C912 C915 1.356 . S
C912 O942 1.325 . S
N913 C916 1.314 . S
N913 C917 1.279 . S
C914 C912 1.348 . S
C914 C916 1.353 . S
C914 H956 0.929 . S
C915 C912 1.356 . S
C915 C917 1.358 . S
C915 H957 0.930 . S
C916 N913 1.314 . S
C916 C914 1.353 . S
C916 H958 0.930 . S
C917 N913 1.279 . S
C917 C915 1.358 . S
C917 H959 0.930 . S
C918 C919 1.348 . S
C918 C920 1.356 . S
C918 O943 1.325 . S
C919 C918 1.348 . S
C919 C921 1.353 . S
C919 H960 0.929 . S
C920 C918 1.356 . S
C920 C922 1.358 . S
C920 H961 0.930 . S
C921 C919 1.353 . S
C921 N923 1.314 . S
C921 H962 0.930 . S
C922 C920 1.358 . S
C922 N923 1.279 . S
C922 H963 0.930 . S
N923 C921 1.314 . S
N923 C922 1.279 . S
C924 C926 1.353 . S
C924 N927 1.314 . S
C924 H930 0.930 . S
C925 N927 1.279 . S
C925 C928 1.358 . S
C925 H931 0.930 . S
C926 C924 1.353 . S
C926 C929 1.348 . S
C926 H964 0.929 . S
N927 Li882 1.990 . S
N927 C924 1.314 . S
N927 C925 1.279 . S
C928 C925 1.358 . S
C928 C929 1.356 . S
C928 H965 0.930 . S
C929 C926 1.348 . S
C929 C928 1.356 . S
H930 C924 0.930 . S
H931 C925 0.930 . S
C932 N933 1.314 . S
C932 C934 1.353 . S
C932 H938 0.930 . S
N933 Li883 1.990 . S
N933 C932 1.314 . S
N933 C936 1.279 . S
C934 C932 1.353 . S
C934 C937 1.348 . S
C934 H966 0.929 . S
C935 C936 1.358 . S
C935 C937 1.356 . S
C935 H967 0.930 . S
C936 N933 1.279 . S
C936 C935 1.358 . S
C936 H939 0.930 . S
C937 C934 1.348 . S
C937 C935 1.356 . S
H938 C932 0.930 . S
H939 C936 0.930 . S
O940 Li880 1.956 . S
O940 Li881 1.970 . S
O940 Li882 1.961 . S
O940 C884 1.325 . S
O941 Li880 1.970 . S
O941 Li881 1.956 . S
O941 Li883 1.961 . S
O941 C890 1.325 . S
O942 Li880 1.961 . S
O942 Li882 1.956 . S
O942 Li883 1.970 . S
O942 C912 1.325 . S
O943 Li881 1.961 . S
O943 Li882 1.970 . S
O943 Li883 1.956 . S
O943 C918 1.325 . S
H944 C886 0.929 . S
H945 C887 0.930 . S
H946 C888 0.930 . S
H947 C889 0.930 . S
H948 C891 0.930 . S
H949 C893 0.929 . S
H950 C894 0.930 . S
H951 C895 0.930 . S
H952 C898 0.930 . S
H953 C901 0.929 . S
H954 C906 0.929 . S
H955 C907 0.930 . S
H956 C914 0.929 . S
H957 C915 0.930 . S
H958 C916 0.930 . S
H959 C917 0.930 . S
H960 C919 0.929 . S
H961 C920 0.930 . S
H962 C921 0.930 . S
H963 C922 0.930 . S
H964 C926 0.929 . S
H965 C928 0.930 . S
H966 C934 0.929 . S
H967 C935 0.930 . S
Li968 N985 1.990 . S
Li968 O1028 1.956 . S
Li968 O1029 1.970 . S
Li968 O1030 1.961 . S
Li969 N993 1.990 . S
Li969 O1028 1.970 . S
Li969 O1029 1.956 . S
Li969 O1031 1.961 . S
Li970 N1015 1.990 . S
Li970 O1028 1.961 . S
Li970 O1030 1.956 . S
Li970 O1031 1.970 . S
Li971 N1021 1.990 . S
Li971 O1029 1.961 . S
Li971 O1030 1.970 . S
Li971 O1031 1.956 . S
C972 C974 1.348 . S
C972 C975 1.356 . S
C972 O1028 1.325 . S
N973 C976 1.314 . S
N973 C977 1.279 . S
C974 C972 1.348 . S
C974 C976 1.353 . S
C974 H1032 0.929 . S
C975 C972 1.356 . S
C975 C977 1.358 . S
C975 H1033 0.930 . S
C976 N973 1.314 . S
C976 C974 1.353 . S
C976 H1034 0.930 . S
C977 N973 1.279 . S
C977 C975 1.358 . S
C977 H1035 0.930 . S
C978 C981 1.348 . S
C978 C982 1.356 . S
C978 O1029 1.325 . S
C979 N980 1.279 . S
C979 C982 1.358 . S
C979 H1036 0.930 . S
N980 C979 1.279 . S
N980 C983 1.314 . S
C981 C978 1.348 . S
C981 C983 1.353 . S
C981 H1037 0.929 . S
C982 C978 1.356 . S
C982 C979 1.358 . S
C982 H1038 0.930 . S
C983 N980 1.314 . S
C983 C981 1.353 . S
C983 H1039 0.930 . S
C984 N985 1.314 . S
C984 C989 1.353 . S
C984 H990 0.930 . S
N985 Li968 1.990 . S
N985 C984 1.314 . S
N985 C987 1.279 . S
C986 C987 1.358 . S
C986 C988 1.356 . S
C986 H1040 0.930 . S
C987 N985 1.279 . S
C987 C986 1.358 . S
C987 H991 0.930 . S
C988 C986 1.356 . S
C988 C989 1.348 . S
C989 C984 1.353 . S
C989 C988 1.348 . S
C989 H1041 0.929 . S
H990 C984 0.930 . S
H991 C987 0.930 . S
C992 N993 1.314 . S
C992 C994 1.353 . S
C992 H998 0.930 . S
N993 Li969 1.990 . S
N993 C992 1.314 . S
N993 C996 1.279 . S
C994 C992 1.353 . S
C994 C997 1.348 . S
C994 H1042 0.929 . S
C995 C996 1.358 . S
C995 C997 1.356 . S
C995 H1043 0.930 . S
C996 N993 1.279 . S
C996 C995 1.358 . S
C996 H999 0.930 . S
C997 C994 1.348 . S
C997 C995 1.356 . S
H998 C992 0.930 . S
H999 C996 0.930 . S
C1000 C1002 1.348 . S
C1000 C1003 1.356 . S
C1000 O1030 1.325 . S
N1001 C1004 1.314 . S
N1001 C1005 1.279 . S
C1002 C1000 1.348 . S
C1002 C1004 1.353 . S
C1002 H1044 0.929 . S
C1003 C1000 1.356 . S
C1003 C1005 1.358 . S
C1003 H1045 0.930 . S
C1004 N1001 1.314 . S
C1004 C1002 1.353 . S
C1004 H1046 0.930 . S
C1005 N1001 1.279 . S
C1005 C1003 1.358 . S
C1005 H1047 0.930 . S
C1006 C1007 1.348 . S
C1006 C1008 1.356 . S
C1006 O1031 1.325 . S
C1007 C1006 1.348 . S
C1007 C1009 1.353 . S
C1007 H1048 0.929 . S
C1008 C1006 1.356 . S
C1008 C1010 1.358 . S
C1008 H1049 0.930 . S
C1009 C1007 1.353 . S
C1009 N1011 1.314 . S
C1009 H1050 0.930 . S
C1010 C1008 1.358 . S
C1010 N1011 1.279 . S
C1010 H1051 0.930 . S
N1011 C1009 1.314 . S
N1011 C1010 1.279 . S
C1012 C1014 1.353 . S
C1012 N1015 1.314 . S
C1012 H1018 0.930 . S
C1013 N1015 1.279 . S
C1013 C1016 1.358 . S
C1013 H1019 0.930 . S
C1014 C1012 1.353 . S
C1014 C1017 1.348 . S
C1014 H1052 0.929 . S
N1015 Li970 1.990 . S
N1015 C1012 1.314 . S
N1015 C1013 1.279 . S
C1016 C1013 1.358 . S
C1016 C1017 1.356 . S
C1016 H1053 0.930 . S
C1017 C1014 1.348 . S
C1017 C1016 1.356 . S
H1018 C1012 0.930 . S
H1019 C1013 0.930 . S
C1020 N1021 1.314 . S
C1020 C1022 1.353 . S
C1020 H1026 0.930 . S
N1021 Li971 1.990 . S
N1021 C1020 1.314 . S
N1021 C1024 1.279 . S
C1022 C1020 1.353 . S
C1022 C1025 1.348 . S
C1022 H1054 0.929 . S
C1023 C1024 1.358 . S
C1023 C1025 1.356 . S
C1023 H1055 0.930 . S
C1024 N1021 1.279 . S
C1024 C1023 1.358 . S
C1024 H1027 0.930 . S
C1025 C1022 1.348 . S
C1025 C1023 1.356 . S
H1026 C1020 0.930 . S
H1027 C1024 0.930 . S
O1028 Li968 1.956 . S
O1028 Li969 1.970 . S
O1028 Li970 1.961 . S
O1028 C972 1.325 . S
O1029 Li968 1.970 . S
O1029 Li969 1.956 . S
O1029 Li971 1.961 . S
O1029 C978 1.325 . S
O1030 Li968 1.961 . S
O1030 Li970 1.956 . S
O1030 Li971 1.970 . S
O1030 C1000 1.325 . S
O1031 Li969 1.961 . S
O1031 Li970 1.970 . S
O1031 Li971 1.956 . S
O1031 C1006 1.325 . S
H1032 C974 0.929 . S
H1033 C975 0.930 . S
H1034 C976 0.930 . S
H1035 C977 0.930 . S
H1036 C979 0.930 . S
H1037 C981 0.929 . S
H1038 C982 0.930 . S
H1039 C983 0.930 . S
H1040 C986 0.930 . S
H1041 C989 0.929 . S
H1042 C994 0.929 . S
H1043 C995 0.930 . S
H1044 C1002 0.929 . S
H1045 C1003 0.930 . S
H1046 C1004 0.930 . S
H1047 C1005 0.930 . S
H1048 C1007 0.929 . S
H1049 C1008 0.930 . S
H1050 C1009 0.930 . S
H1051 C1010 0.930 . S
H1052 C1014 0.929 . S
H1053 C1016 0.930 . S
H1054 C1022 0.929 . S
H1055 C1023 0.930 . S
Li1056 N1073 1.990 . S
Li1056 O1116 1.956 . S
Li1056 O1117 1.970 . S
Li1056 O1118 1.961 . S
Li1057 N1081 1.990 . S
Li1057 O1116 1.970 . S
Li1057 O1117 1.956 . S
Li1057 O1119 1.961 . S
Li1058 N1103 1.990 . S
Li1058 O1116 1.961 . S
Li1058 O1118 1.956 . S
Li1058 O1119 1.970 . S
Li1059 N1109 1.990 . S
Li1059 O1117 1.961 . S
Li1059 O1118 1.970 . S
Li1059 O1119 1.956 . S
C1060 C1062 1.348 . S
C1060 C1063 1.356 . S
C1060 O1116 1.325 . S
N1061 C1064 1.314 . S
N1061 C1065 1.279 . S
C1062 C1060 1.348 . S
C1062 C1064 1.353 . S
C1062 H1120 0.929 . S
C1063 C1060 1.356 . S
C1063 C1065 1.358 . S
C1063 H1121 0.930 . S
C1064 N1061 1.314 . S
C1064 C1062 1.353 . S
C1064 H1122 0.930 . S
C1065 N1061 1.279 . S
C1065 C1063 1.358 . S
C1065 H1123 0.930 . S
C1066 C1069 1.348 . S
C1066 C1070 1.356 . S
C1066 O1117 1.325 . S
C1067 N1068 1.279 . S
C1067 C1070 1.358 . S
C1067 H1124 0.930 . S
N1068 C1067 1.279 . S
N1068 C1071 1.314 . S
C1069 C1066 1.348 . S
C1069 C1071 1.353 . S
C1069 H1125 0.929 . S
C1070 C1066 1.356 . S
C1070 C1067 1.358 . S
C1070 H1126 0.930 . S
C1071 N1068 1.314 . S
C1071 C1069 1.353 . S
C1071 H1127 0.930 . S
C1072 N1073 1.314 . S
C1072 C1077 1.353 . S
C1072 H1078 0.930 . S
N1073 Li1056 1.990 . S
N1073 C1072 1.314 . S
N1073 C1075 1.279 . S
C1074 C1075 1.358 . S
C1074 C1076 1.356 . S
C1074 H1128 0.930 . S
C1075 N1073 1.279 . S
C1075 C1074 1.358 . S
C1075 H1079 0.930 . S
C1076 C1074 1.356 . S
C1076 C1077 1.348 . S
C1077 C1072 1.353 . S
C1077 C1076 1.348 . S
C1077 H1129 0.929 . S
H1078 C1072 0.930 . S
H1079 C1075 0.930 . S
C1080 N1081 1.314 . S
C1080 C1082 1.353 . S
C1080 H1086 0.930 . S
N1081 Li1057 1.990 . S
N1081 C1080 1.314 . S
N1081 C1084 1.279 . S
C1082 C1080 1.353 . S
C1082 C1085 1.348 . S
C1082 H1130 0.929 . S
C1083 C1084 1.358 . S
C1083 C1085 1.356 . S
C1083 H1131 0.930 . S
C1084 N1081 1.279 . S
C1084 C1083 1.358 . S
C1084 H1087 0.930 . S
C1085 C1082 1.348 . S
C1085 C1083 1.356 . S
H1086 C1080 0.930 . S
H1087 C1084 0.930 . S
C1088 C1090 1.348 . S
C1088 C1091 1.356 . S
C1088 O1118 1.325 . S
N1089 C1092 1.314 . S
N1089 C1093 1.279 . S
C1090 C1088 1.348 . S
C1090 C1092 1.353 . S
C1090 H1132 0.929 . S
C1091 C1088 1.356 . S
C1091 C1093 1.358 . S
C1091 H1133 0.930 . S
C1092 N1089 1.314 . S
C1092 C1090 1.353 . S
C1092 H1134 0.930 . S
C1093 N1089 1.279 . S
C1093 C1091 1.358 . S
C1093 H1135 0.930 . S
C1094 C1095 1.348 . S
C1094 C1096 1.356 . S
C1094 O1119 1.325 . S
C1095 C1094 1.348 . S
C1095 C1097 1.353 . S
C1095 H1136 0.929 . S
C1096 C1094 1.356 . S
C1096 C1098 1.358 . S
C1096 H1137 0.930 . S
C1097 C1095 1.353 . S
C1097 N1099 1.314 . S
C1097 H1138 0.930 . S
C1098 C1096 1.358 . S
C1098 N1099 1.279 . S
C1098 H1139 0.930 . S
N1099 C1097 1.314 . S
N1099 C1098 1.279 . S
C1100 C1102 1.353 . S
C1100 N1103 1.314 . S
C1100 H1106 0.930 . S
C1101 N1103 1.279 . S
C1101 C1104 1.358 . S
C1101 H1107 0.930 . S
C1102 C1100 1.353 . S
C1102 C1105 1.348 . S
C1102 H1140 0.929 . S
N1103 Li1058 1.990 . S
N1103 C1100 1.314 . S
N1103 C1101 1.279 . S
C1104 C1101 1.358 . S
C1104 C1105 1.356 . S
C1104 H1141 0.930 . S
C1105 C1102 1.348 . S
C1105 C1104 1.356 . S
H1106 C1100 0.930 . S
H1107 C1101 0.930 . S
C1108 N1109 1.314 . S
C1108 C1110 1.353 . S
C1108 H1114 0.930 . S
N1109 Li1059 1.990 . S
N1109 C1108 1.314 . S
N1109 C1112 1.279 . S
C1110 C1108 1.353 . S
C1110 C1113 1.348 . S
C1110 H1142 0.929 . S
C1111 C1112 1.358 . S
C1111 C1113 1.356 . S
C1111 H1143 0.930 . S
C1112 N1109 1.279 . S
C1112 C1111 1.358 . S
C1112 H1115 0.930 . S
C1113 C1110 1.348 . S
C1113 C1111 1.356 . S
H1114 C1108 0.930 . S
H1115 C1112 0.930 . S
O1116 Li1056 1.956 . S
O1116 Li1057 1.970 . S
O1116 Li1058 1.961 . S
O1116 C1060 1.325 . S
O1117 Li1056 1.970 . S
O1117 Li1057 1.956 . S
O1117 Li1059 1.961 . S
O1117 C1066 1.325 . S
O1118 Li1056 1.961 . S
O1118 Li1058 1.956 . S
O1118 Li1059 1.970 . S
O1118 C1088 1.325 . S
O1119 Li1057 1.961 . S
O1119 Li1058 1.970 . S
O1119 Li1059 1.956 . S
O1119 C1094 1.325 . S
H1120 C1062 0.929 . S
H1121 C1063 0.930 . S
H1122 C1064 0.930 . S
H1123 C1065 0.930 . S
H1124 C1067 0.930 . S
H1125 C1069 0.929 . S
H1126 C1070 0.930 . S
H1127 C1071 0.930 . S
H1128 C1074 0.930 . S
H1129 C1077 0.929 . S
H1130 C1082 0.929 . S
H1131 C1083 0.930 . S
H1132 C1090 0.929 . S
H1133 C1091 0.930 . S
H1134 C1092 0.930 . S
H1135 C1093 0.930 . S
H1136 C1095 0.929 . S
H1137 C1096 0.930 . S
H1138 C1097 0.930 . S
H1139 C1098 0.930 . S
H1140 C1102 0.929 . S
H1141 C1104 0.930 . S
H1142 C1110 0.929 . S
H1143 C1111 0.930 . S
Li1144 N1161 1.990 . S
Li1144 O1204 1.956 1_655 S
Li1144 O1205 1.970 1_655 S
Li1144 O1206 1.961 . S
Li1145 N1169 1.990 . S
Li1145 O1204 1.970 . S
Li1145 O1205 1.956 . S
Li1145 O1207 1.961 . S
Li1146 N1191 1.990 . S
Li1146 O1204 1.961 . S
Li1146 O1206 1.956 1_455 S
Li1146 O1207 1.970 . S
Li1147 N1197 1.990 . S
Li1147 O1205 1.961 . S
Li1147 O1206 1.970 1_455 S
Li1147 O1207 1.956 . S
C1148 C1150 1.348 . S
C1148 C1151 1.356 1_455 S
C1148 O1204 1.325 . S
N1149 C1152 1.314 . S
N1149 C1153 1.279 1_455 S
C1150 C1148 1.348 . S
C1150 C1152 1.353 . S
C1150 H1208 0.929 . S
C1151 C1148 1.356 1_655 S
C1151 C1153 1.358 . S
C1151 H1209 0.930 . S
C1152 N1149 1.314 . S
C1152 C1150 1.353 . S
C1152 H1210 0.930 . S
C1153 N1149 1.279 1_655 S
C1153 C1151 1.358 . S
C1153 H1211 0.930 . S
C1154 C1157 1.348 1_455 S
C1154 C1158 1.356 . S
C1154 O1205 1.325 . S
C1155 N1156 1.279 . S
C1155 C1158 1.358 . S
C1155 H1212 0.930 . S
N1156 C1155 1.279 . S
N1156 C1159 1.314 1_455 S
C1157 C1154 1.348 1_655 S
C1157 C1159 1.353 . S
C1157 H1213 0.929 . S
C1158 C1154 1.356 . S
C1158 C1155 1.358 . S
C1158 H1214 0.930 . S
C1159 N1156 1.314 1_655 S
C1159 C1157 1.353 . S
C1159 H1215 0.930 . S
C1160 N1161 1.314 . S
C1160 C1165 1.353 . S
C1160 H1166 0.930 . S
N1161 Li1144 1.990 . S
N1161 C1160 1.314 . S
N1161 C1163 1.279 . S
C1162 C1163 1.358 . S
C1162 C1164 1.356 . S
C1162 H1216 0.930 . S
C1163 N1161 1.279 . S
C1163 C1162 1.358 . S
C1163 H1167 0.930 . S
C1164 C1162 1.356 . S
C1164 C1165 1.348 . S
C1165 C1160 1.353 . S
C1165 C1164 1.348 . S
C1165 H1217 0.929 . S
H1166 C1160 0.930 . S
H1167 C1163 0.930 . S
C1168 N1169 1.314 . S
C1168 C1170 1.353 . S
C1168 H1174 0.930 . S
N1169 Li1145 1.990 . S
N1169 C1168 1.314 . S
N1169 C1172 1.279 . S
C1170 C1168 1.353 . S
C1170 C1173 1.348 . S
C1170 H1218 0.929 . S
C1171 C1172 1.358 . S
C1171 C1173 1.356 . S
C1171 H1219 0.930 . S
C1172 N1169 1.279 . S
C1172 C1171 1.358 . S
C1172 H1175 0.930 . S
C1173 C1170 1.348 . S
C1173 C1171 1.356 . S
H1174 C1168 0.930 . S
H1175 C1172 0.930 . S
C1176 C1178 1.348 . S
C1176 C1179 1.356 . S
C1176 O1206 1.325 . S
N1177 C1180 1.314 . S
N1177 C1181 1.279 . S
C1178 C1176 1.348 . S
C1178 C1180 1.353 . S
C1178 H1220 0.929 . S
C1179 C1176 1.356 . S
C1179 C1181 1.358 . S
C1179 H1221 0.930 . S
C1180 N1177 1.314 . S
C1180 C1178 1.353 . S
C1180 H1222 0.930 . S
C1181 N1177 1.279 . S
C1181 C1179 1.358 . S
C1181 H1223 0.930 . S
C1182 C1183 1.348 . S
C1182 C1184 1.356 . S
C1182 O1207 1.325 . S
C1183 C1182 1.348 . S
C1183 C1185 1.353 . S
C1183 H1224 0.929 . S
C1184 C1182 1.356 . S
C1184 C1186 1.358 . S
C1184 H1225 0.930 . S
C1185 C1183 1.353 . S
C1185 N1187 1.314 . S
C1185 H1226 0.930 . S
C1186 C1184 1.358 . S
C1186 N1187 1.279 . S
C1186 H1227 0.930 . S
N1187 C1185 1.314 . S
N1187 C1186 1.279 . S
C1188 C1190 1.353 . S
C1188 N1191 1.314 . S
C1188 H1194 0.930 . S
C1189 N1191 1.279 1_655 S
C1189 C1192 1.358 . S
C1189 H1195 0.930 . S
C1190 C1188 1.353 . S
C1190 C1193 1.348 . S
C1190 H1228 0.929 . S
N1191 Li1146 1.990 . S
N1191 C1188 1.314 . S
N1191 C1189 1.279 1_455 S
C1192 C1189 1.358 . S
C1192 C1193 1.356 1_655 S
C1192 H1229 0.930 . S
C1193 C1190 1.348 . S
C1193 C1192 1.356 1_455 S
H1194 C1188 0.930 . S
H1195 C1189 0.930 . S
C1196 N1197 1.314 1_655 S
C1196 C1198 1.353 . S
C1196 H1202 0.930 . S
N1197 Li1147 1.990 . S
N1197 C1196 1.314 1_455 S
N1197 C1200 1.279 . S
C1198 C1196 1.353 . S
C1198 C1201 1.348 1_655 S
C1198 H1230 0.929 . S
C1199 C1200 1.358 . S
C1199 C1201 1.356 . S
C1199 H1231 0.930 . S
C1200 N1197 1.279 . S
C1200 C1199 1.358 . S
C1200 H1203 0.930 . S
C1201 C1198 1.348 1_455 S
C1201 C1199 1.356 . S
H1202 C1196 0.930 . S
H1203 C1200 0.930 . S
O1204 Li1144 1.956 1_455 S
O1204 Li1145 1.970 . S
O1204 Li1146 1.961 . S
O1204 C1148 1.325 . S
O1205 Li1144 1.970 1_455 S
O1205 Li1145 1.956 . S
O1205 Li1147 1.961 . S
O1205 C1154 1.325 . S
O1206 Li1144 1.961 . S
O1206 Li1146 1.956 1_655 S
O1206 Li1147 1.970 1_655 S
O1206 C1176 1.325 . S
O1207 Li1145 1.961 . S
O1207 Li1146 1.970 . S
O1207 Li1147 1.956 . S
O1207 C1182 1.325 . S
H1208 C1150 0.929 . S
H1209 C1151 0.930 . S
H1210 C1152 0.930 . S
H1211 C1153 0.930 . S
H1212 C1155 0.930 . S
H1213 C1157 0.929 . S
H1214 C1158 0.930 . S
H1215 C1159 0.930 . S
H1216 C1162 0.930 . S
H1217 C1165 0.929 . S
H1218 C1170 0.929 . S
H1219 C1171 0.930 . S
H1220 C1178 0.929 . S
H1221 C1179 0.930 . S
H1222 C1180 0.930 . S
H1223 C1181 0.930 . S
H1224 C1183 0.929 . S
H1225 C1184 0.930 . S
H1226 C1185 0.930 . S
H1227 C1186 0.930 . S
H1228 C1190 0.929 . S
H1229 C1192 0.930 . S
H1230 C1198 0.929 . S
H1231 C1199 0.930 . S
Li1232 N1249 1.990 . S
Li1232 O1292 1.956 . S
Li1232 O1293 1.970 . S
Li1232 O1294 1.961 . S
Li1233 N1257 1.990 . S
Li1233 O1292 1.970 . S
Li1233 O1293 1.956 . S
Li1233 O1295 1.961 . S
Li1234 N1279 1.990 . S
Li1234 O1292 1.961 . S
Li1234 O1294 1.956 . S
Li1234 O1295 1.970 . S
Li1235 N1285 1.990 . S
Li1235 O1293 1.961 . S
Li1235 O1294 1.970 . S
Li1235 O1295 1.956 . S
C1236 C1238 1.348 . S
C1236 C1239 1.356 . S
C1236 O1292 1.325 . S
N1237 C1240 1.314 . S
N1237 C1241 1.279 . S
C1238 C1236 1.348 . S
C1238 C1240 1.353 . S
C1238 H1296 0.929 . S
C1239 C1236 1.356 . S
C1239 C1241 1.358 . S
C1239 H1297 0.930 . S
C1240 N1237 1.314 . S
C1240 C1238 1.353 . S
C1240 H1298 0.930 . S
C1241 N1237 1.279 . S
C1241 C1239 1.358 . S
C1241 H1299 0.930 . S
C1242 C1245 1.348 . S
C1242 C1246 1.356 . S
C1242 O1293 1.325 . S
C1243 N1244 1.279 . S
C1243 C1246 1.358 . S
C1243 H1300 0.930 . S
N1244 C1243 1.279 . S
N1244 C1247 1.314 . S
C1245 C1242 1.348 . S
C1245 C1247 1.353 . S
C1245 H1301 0.929 . S
C1246 C1242 1.356 . S
C1246 C1243 1.358 . S
C1246 H1302 0.930 . S
C1247 N1244 1.314 . S
C1247 C1245 1.353 . S
C1247 H1303 0.930 . S
C1248 N1249 1.314 . S
C1248 C1253 1.353 . S
C1248 H1254 0.930 . S
N1249 Li1232 1.990 . S
N1249 C1248 1.314 . S
N1249 C1251 1.279 . S
C1250 C1251 1.358 . S
C1250 C1252 1.356 . S
C1250 H1304 0.930 . S
C1251 N1249 1.279 . S
C1251 C1250 1.358 . S
C1251 H1255 0.930 . S
C1252 C1250 1.356 . S
C1252 C1253 1.348 . S
C1253 C1248 1.353 . S
C1253 C1252 1.348 . S
C1253 H1305 0.929 . S
H1254 C1248 0.930 . S
H1255 C1251 0.930 . S
C1256 N1257 1.314 . S
C1256 C1258 1.353 . S
C1256 H1262 0.930 . S
N1257 Li1233 1.990 . S
N1257 C1256 1.314 . S
N1257 C1260 1.279 . S
C1258 C1256 1.353 . S
C1258 C1261 1.348 . S
C1258 H1306 0.929 . S
C1259 C1260 1.358 . S
C1259 C1261 1.356 . S
C1259 H1307 0.930 . S
C1260 N1257 1.279 . S
C1260 C1259 1.358 . S
C1260 H1263 0.930 . S
C1261 C1258 1.348 . S
C1261 C1259 1.356 . S
H1262 C1256 0.930 . S
H1263 C1260 0.930 . S
C1264 C1266 1.348 . S
C1264 C1267 1.356 . S
C1264 O1294 1.325 . S
N1265 C1268 1.314 . S
N1265 C1269 1.279 . S
C1266 C1264 1.348 . S
C1266 C1268 1.353 . S
C1266 H1308 0.929 . S
C1267 C1264 1.356 . S
C1267 C1269 1.358 . S
C1267 H1309 0.930 . S
C1268 N1265 1.314 . S
C1268 C1266 1.353 . S
C1268 H1310 0.930 . S
C1269 N1265 1.279 . S
C1269 C1267 1.358 . S
C1269 H1311 0.930 . S
C1270 C1271 1.348 . S
C1270 C1272 1.356 . S
C1270 O1295 1.325 . S
C1271 C1270 1.348 . S
C1271 C1273 1.353 . S
C1271 H1312 0.929 . S
C1272 C1270 1.356 . S
C1272 C1274 1.358 . S
C1272 H1313 0.930 . S
C1273 C1271 1.353 . S
C1273 N1275 1.314 . S
C1273 H1314 0.930 . S
C1274 C1272 1.358 . S
C1274 N1275 1.279 . S
C1274 H1315 0.930 . S
N1275 C1273 1.314 . S
N1275 C1274 1.279 . S
C1276 C1278 1.353 . S
C1276 N1279 1.314 . S
C1276 H1282 0.930 . S
C1277 N1279 1.279 . S
C1277 C1280 1.358 . S
C1277 H1283 0.930 . S
C1278 C1276 1.353 . S
C1278 C1281 1.348 . S
C1278 H1316 0.929 . S
N1279 Li1234 1.990 . S
N1279 C1276 1.314 . S
N1279 C1277 1.279 . S
C1280 C1277 1.358 . S
C1280 C1281 1.356 . S
C1280 H1317 0.930 . S
C1281 C1278 1.348 . S
C1281 C1280 1.356 . S
H1282 C1276 0.930 . S
H1283 C1277 0.930 . S
C1284 N1285 1.314 . S
C1284 C1286 1.353 . S
C1284 H1290 0.930 . S
N1285 Li1235 1.990 . S
N1285 C1284 1.314 . S
N1285 C1288 1.279 . S
C1286 C1284 1.353 . S
C1286 C1289 1.348 . S
C1286 H1318 0.929 . S
C1287 C1288 1.358 . S
C1287 C1289 1.356 . S
C1287 H1319 0.930 . S
C1288 N1285 1.279 . S
C1288 C1287 1.358 . S
C1288 H1291 0.930 . S
C1289 C1286 1.348 . S
C1289 C1287 1.356 . S
H1290 C1284 0.930 . S
H1291 C1288 0.930 . S
O1292 Li1232 1.956 . S
O1292 Li1233 1.970 . S
O1292 Li1234 1.961 . S
O1292 C1236 1.325 . S
O1293 Li1232 1.970 . S
O1293 Li1233 1.956 . S
O1293 Li1235 1.961 . S
O1293 C1242 1.325 . S
O1294 Li1232 1.961 . S
O1294 Li1234 1.956 . S
O1294 Li1235 1.970 . S
O1294 C1264 1.325 . S
O1295 Li1233 1.961 . S
O1295 Li1234 1.970 . S
O1295 Li1235 1.956 . S
O1295 C1270 1.325 . S
H1296 C1238 0.929 . S
H1297 C1239 0.930 . S
H1298 C1240 0.930 . S
H1299 C1241 0.930 . S
H1300 C1243 0.930 . S
H1301 C1245 0.929 . S
H1302 C1246 0.930 . S
H1303 C1247 0.930 . S
H1304 C1250 0.930 . S
H1305 C1253 0.929 . S
H1306 C1258 0.929 . S
H1307 C1259 0.930 . S
H1308 C1266 0.929 . S
H1309 C1267 0.930 . S
H1310 C1268 0.930 . S
H1311 C1269 0.930 . S
H1312 C1271 0.929 . S
H1313 C1272 0.930 . S
H1314 C1273 0.930 . S
H1315 C1274 0.930 . S
H1316 C1278 0.929 . S
H1317 C1280 0.930 . S
H1318 C1286 0.929 . S
H1319 C1287 0.930 . S
Li1320 N1337 1.990 . S
Li1320 O1380 1.956 . S
Li1320 O1381 1.970 1_455 S
Li1320 O1382 1.961 . S
Li1321 N1345 1.990 . S
Li1321 O1380 1.970 . S
Li1321 O1381 1.956 1_455 S
Li1321 O1383 1.961 . S
Li1322 N1367 1.990 . S
Li1322 O1380 1.961 . S
Li1322 O1382 1.956 . S
Li1322 O1383 1.970 . S
Li1323 N1373 1.990 . S
Li1323 O1381 1.961 . S
Li1323 O1382 1.970 1_655 S
Li1323 O1383 1.956 1_655 S
C1324 C1326 1.348 . S
C1324 C1327 1.356 . S
C1324 O1380 1.325 . S
N1325 C1328 1.314 . S
N1325 C1329 1.279 . S
C1326 C1324 1.348 . S
C1326 C1328 1.353 . S
C1326 H1384 0.929 . S
C1327 C1324 1.356 . S
C1327 C1329 1.358 . S
C1327 H1385 0.930 . S
C1328 N1325 1.314 . S
C1328 C1326 1.353 . S
C1328 H1386 0.930 . S
C1329 N1325 1.279 . S
C1329 C1327 1.358 . S
C1329 H1387 0.930 . S
C1330 C1333 1.348 . S
C1330 C1334 1.356 . S
C1330 O1381 1.325 . S
C1331 N1332 1.279 . S
C1331 C1334 1.358 . S
C1331 H1388 0.930 . S
N1332 C1331 1.279 . S
N1332 C1335 1.314 . S
C1333 C1330 1.348 . S
C1333 C1335 1.353 . S
C1333 H1389 0.929 . S
C1334 C1330 1.356 . S
C1334 C1331 1.358 . S
C1334 H1390 0.930 . S
C1335 N1332 1.314 . S
C1335 C1333 1.353 . S
C1335 H1391 0.930 . S
C1336 N1337 1.314 1_655 S
C1336 C1341 1.353 . S
C1336 H1342 0.930 . S
N1337 Li1320 1.990 . S
N1337 C1336 1.314 1_455 S
N1337 C1339 1.279 . S
C1338 C1339 1.358 . S
C1338 C1340 1.356 . S
C1338 H1392 0.930 . S
C1339 N1337 1.279 . S
C1339 C1338 1.358 . S
C1339 H1343 0.930 . S
C1340 C1338 1.356 . S
C1340 C1341 1.348 1_455 S
C1341 C1336 1.353 . S
C1341 C1340 1.348 1_655 S
C1341 H1393 0.929 . S
H1342 C1336 0.930 . S
H1343 C1339 0.930 . S
C1344 N1345 1.314 . S
C1344 C1346 1.353 . S
C1344 H1350 0.930 . S
N1345 Li1321 1.990 . S
N1345 C1344 1.314 . S
N1345 C1348 1.279 1_455 S
C1346 C1344 1.353 . S
C1346 C1349 1.348 . S
C1346 H1394 0.929 . S
C1347 C1348 1.358 . S
C1347 C1349 1.356 1_655 S
C1347 H1395 0.930 . S
C1348 N1345 1.279 1_655 S
C1348 C1347 1.358 . S
C1348 H1351 0.930 . S
C1349 C1346 1.348 . S
C1349 C1347 1.356 1_455 S
H1350 C1344 0.930 . S
H1351 C1348 0.930 . S
C1352 C1354 1.348 1_455 S
C1352 C1355 1.356 . S
C1352 O1382 1.325 . S
N1353 C1356 1.314 1_455 S
N1353 C1357 1.279 . S
C1354 C1352 1.348 1_655 S
C1354 C1356 1.353 . S
C1354 H1396 0.929 . S
C1355 C1352 1.356 . S
C1355 C1357 1.358 . S
C1355 H1397 0.930 . S
C1356 N1353 1.314 1_655 S
C1356 C1354 1.353 . S
C1356 H1398 0.930 . S
C1357 N1353 1.279 . S
C1357 C1355 1.358 . S
C1357 H1399 0.930 . S
C1358 C1359 1.348 . S
C1358 C1360 1.356 1_455 S
C1358 O1383 1.325 . S
C1359 C1358 1.348 . S
C1359 C1361 1.353 . S
C1359 H1400 0.929 . S
C1360 C1358 1.356 1_655 S
C1360 C1362 1.358 . S
C1360 H1401 0.930 . S
C1361 C1359 1.353 . S
C1361 N1363 1.314 . S
C1361 H1402 0.930 . S
C1362 C1360 1.358 . S
C1362 N1363 1.279 1_655 S
C1362 H1403 0.930 . S
N1363 C1361 1.314 . S
N1363 C1362 1.279 1_455 S
C1364 C1366 1.353 . S
C1364 N1367 1.314 . S
C1364 H1370 0.930 . S
C1365 N1367 1.279 . S
C1365 C1368 1.358 . S
C1365 H1371 0.930 . S
C1366 C1364 1.353 . S
C1366 C1369 1.348 . S
C1366 H1404 0.929 . S
N1367 Li1322 1.990 . S
N1367 C1364 1.314 . S
N1367 C1365 1.279 . S
C1368 C1365 1.358 . S
C1368 C1369 1.356 . S
C1368 H1405 0.930 . S
C1369 C1366 1.348 . S
C1369 C1368 1.356 . S
H1370 C1364 0.930 . S
H1371 C1365 0.930 . S
C1372 N1373 1.314 . S
C1372 C1374 1.353 . S
C1372 H1378 0.930 . S
N1373 Li1323 1.990 . S
N1373 C1372 1.314 . S
N1373 C1376 1.279 . S
C1374 C1372 1.353 . S
C1374 C1377 1.348 . S
C1374 H1406 0.929 . S
C1375 C1376 1.358 . S
C1375 C1377 1.356 . S
C1375 H1407 0.930 . S
C1376 N1373 1.279 . S
C1376 C1375 1.358 . S
C1376 H1379 0.930 . S
C1377 C1374 1.348 . S
C1377 C1375 1.356 . S
H1378 C1372 0.930 . S
H1379 C1376 0.930 . S
O1380 Li1320 1.956 . S
O1380 Li1321 1.970 . S
O1380 Li1322 1.961 . S
O1380 C1324 1.325 . S
O1381 Li1320 1.970 1_655 S
O1381 Li1321 1.956 1_655 S
O1381 Li1323 1.961 . S
O1381 C1330 1.325 . S
O1382 Li1320 1.961 . S
O1382 Li1322 1.956 . S
O1382 Li1323 1.970 1_455 S
O1382 C1352 1.325 . S
O1383 Li1321 1.961 . S
O1383 Li1322 1.970 . S
O1383 Li1323 1.956 1_455 S
O1383 C1358 1.325 . S
H1384 C1326 0.929 . S
H1385 C1327 0.930 . S
H1386 C1328 0.930 . S
H1387 C1329 0.930 . S
H1388 C1331 0.930 . S
H1389 C1333 0.929 . S
H1390 C1334 0.930 . S
H1391 C1335 0.930 . S
H1392 C1338 0.930 . S
H1393 C1341 0.929 . S
H1394 C1346 0.929 . S
H1395 C1347 0.930 . S
H1396 C1354 0.929 . S
H1397 C1355 0.930 . S
H1398 C1356 0.930 . S
H1399 C1357 0.930 . S
H1400 C1359 0.929 . S
H1401 C1360 0.930 . S
H1402 C1361 0.930 . S
H1403 C1362 0.930 . S
H1404 C1366 0.929 . S
H1405 C1368 0.930 . S
H1406 C1374 0.929 . S
H1407 C1375 0.930 . S
C1408 C1409 1.363 1_655 S
C1408 C1414 1.379 . S
C1408 N1416 1.356 . S
C1409 C1408 1.363 1_455 S
C1409 C1415 1.363 . S
C1410 C1411 1.363 . S
C1410 C1415 1.379 . S
C1410 N1417 1.356 . S
C1411 C1410 1.363 . S
C1411 C1414 1.363 1_455 S
N1412 C1414 1.356 . S
N1412 H1424 0.984 . S
N1412 H1425 0.985 . S
N1413 C1415 1.356 . S
N1413 H1418 0.984 . S
N1413 H1419 0.985 . S
C1414 C1408 1.379 . S
C1414 C1411 1.363 1_655 S
C1414 N1412 1.356 . S
C1415 C1409 1.363 . S
C1415 C1410 1.379 . S
C1415 N1413 1.356 . S
N1416 C1408 1.356 . S
N1416 H1422 0.984 . S
N1416 H1423 0.984 . S
N1417 C1410 1.356 . S
N1417 H1420 0.984 . S
N1417 H1421 0.985 . S
H1418 N1413 0.984 . S
H1419 N1413 0.985 . S
H1420 N1417 0.984 . S
H1421 N1417 0.985 . S
H1422 N1416 0.984 . S
H1423 N1416 0.984 . S
H1424 N1412 0.984 . S
H1425 N1412 0.985 . S
C1426 C1427 1.363 . S
C1426 C1432 1.379 1_655 S
C1426 N1434 1.356 . S
C1427 C1426 1.363 . S
C1427 C1433 1.363 . S
C1428 C1429 1.363 . S
C1428 C1433 1.379 1_455 S
C1428 N1435 1.356 . S
C1429 C1428 1.363 . S
C1429 C1432 1.363 . S
N1430 C1432 1.356 . S
N1430 H1442 0.984 . S
N1430 H1443 0.985 . S
N1431 C1433 1.356 . S
N1431 H1436 0.984 . S
N1431 H1437 0.985 . S
C1432 C1426 1.379 1_455 S
C1432 C1429 1.363 . S
C1432 N1430 1.356 . S
C1433 C1427 1.363 . S
C1433 C1428 1.379 1_655 S
C1433 N1431 1.356 . S
N1434 C1426 1.356 . S
N1434 H1440 0.984 . S
N1434 H1441 0.984 . S
N1435 C1428 1.356 . S
N1435 H1438 0.984 . S
N1435 H1439 0.985 . S
H1436 N1431 0.984 . S
H1437 N1431 0.985 . S
H1438 N1435 0.984 . S
H1439 N1435 0.985 . S
H1440 N1434 0.984 . S
H1441 N1434 0.984 . S
H1442 N1430 0.984 . S
H1443 N1430 0.985 . S
C1444 C1445 1.363 . S
C1444 C1450 1.379 . S
C1444 N1452 1.356 . S
C1445 C1444 1.363 . S
C1445 C1451 1.363 . S
C1446 C1447 1.363 . S
C1446 C1451 1.379 . S
C1446 N1453 1.356 . S
C1447 C1446 1.363 . S
C1447 C1450 1.363 . S
N1448 C1450 1.356 . S
N1448 H1460 0.984 . S
N1448 H1461 0.985 . S
N1449 C1451 1.356 . S
N1449 H1454 0.984 . S
N1449 H1455 0.985 . S
C1450 C1444 1.379 . S
C1450 C1447 1.363 . S
C1450 N1448 1.356 . S
C1451 C1445 1.363 . S
C1451 C1446 1.379 . S
C1451 N1449 1.356 . S
N1452 C1444 1.356 . S
N1452 H1458 0.984 . S
N1452 H1459 0.984 . S
N1453 C1446 1.356 . S
N1453 H1456 0.984 . S
N1453 H1457 0.985 . S
H1454 N1449 0.984 . S
H1455 N1449 0.985 . S
H1456 N1453 0.984 . S
H1457 N1453 0.985 . S
H1458 N1452 0.984 . S
H1459 N1452 0.984 . S
H1460 N1448 0.984 . S
H1461 N1448 0.985 . S
C1462 C1463 1.363 . S
C1462 C1468 1.379 . S
C1462 N1470 1.356 . S
C1463 C1462 1.363 . S
C1463 C1469 1.363 . S
C1464 C1465 1.363 . S
C1464 C1469 1.379 . S
C1464 N1471 1.356 . S
C1465 C1464 1.363 . S
C1465 C1468 1.363 . S
N1466 C1468 1.356 . S
N1466 H1478 0.984 . S
N1466 H1479 0.985 . S
N1467 C1469 1.356 . S
N1467 H1472 0.984 . S
N1467 H1473 0.985 . S
C1468 C1462 1.379 . S
C1468 C1465 1.363 . S
C1468 N1466 1.356 . S
C1469 C1463 1.363 . S
C1469 C1464 1.379 . S
C1469 N1467 1.356 . S
N1470 C1462 1.356 . S
N1470 H1476 0.984 . S
N1470 H1477 0.984 . S
N1471 C1464 1.356 . S
N1471 H1474 0.984 . S
N1471 H1475 0.985 . S
H1472 N1467 0.984 . S
H1473 N1467 0.985 . S
H1474 N1471 0.984 . S
H1475 N1471 0.985 . S
H1476 N1470 0.984 . S
H1477 N1470 0.984 . S
H1478 N1466 0.984 . S
H1479 N1466 0.985 . S
C1480 C1481 1.363 . S
C1480 C1486 1.379 . S
C1480 N1488 1.356 . S
C1481 C1480 1.363 . S
C1481 C1487 1.363 1_455 S
C1482 C1483 1.363 1_655 S
C1482 C1487 1.379 . S
C1482 N1489 1.356 . S
C1483 C1482 1.363 1_455 S
C1483 C1486 1.363 . S
N1484 C1486 1.356 . S
N1484 H1496 0.984 . S
N1484 H1497 0.985 . S
N1485 C1487 1.356 . S
N1485 H1490 0.984 . S
N1485 H1491 0.985 . S
C1486 C1480 1.379 . S
C1486 C1483 1.363 . S
C1486 N1484 1.356 . S
C1487 C1481 1.363 1_655 S
C1487 C1482 1.379 . S
C1487 N1485 1.356 . S
N1488 C1480 1.356 . S
N1488 H1494 0.984 . S
N1488 H1495 0.984 . S
N1489 C1482 1.356 . S
N1489 H1492 0.984 . S
N1489 H1493 0.985 . S
H1490 N1485 0.984 . S
H1491 N1485 0.985 . S
H1492 N1489 0.984 . S
H1493 N1489 0.985 . S
H1494 N1488 0.984 . S
H1495 N1488 0.984 . S
H1496 N1484 0.984 . S
H1497 N1484 0.985 . S
C1498 C1499 1.363 . S
C1498 C1504 1.379 . S
C1498 N1506 1.356 . S
C1499 C1498 1.363 . S
C1499 C1505 1.363 . S
C1500 C1501 1.363 . S
C1500 C1505 1.379 . S
C1500 N1507 1.356 . S
C1501 C1500 1.363 . S
C1501 C1504 1.363 . S
N1502 C1504 1.356 . S
N1502 H1514 0.984 . S
N1502 H1515 0.985 . S
N1503 C1505 1.356 . S
N1503 H1508 0.984 . S
N1503 H1509 0.985 . S
C1504 C1498 1.379 . S
C1504 C1501 1.363 . S
C1504 N1502 1.356 . S
C1505 C1499 1.363 . S
C1505 C1500 1.379 . S
C1505 N1503 1.356 . S
N1506 C1498 1.356 . S
N1506 H1512 0.984 . S
N1506 H1513 0.984 . S
N1507 C1500 1.356 . S
N1507 H1510 0.984 . S
N1507 H1511 0.985 . S
H1508 N1503 0.984 . S
H1509 N1503 0.985 . S
H1510 N1507 0.984 . S
H1511 N1507 0.985 . S
H1512 N1506 0.984 . S
H1513 N1506 0.984 . S
H1514 N1502 0.984 . S
H1515 N1502 0.985 . S
C1516 C1517 1.363 . S
C1516 C1522 1.379 . S
C1516 N1524 1.356 . S
C1517 C1516 1.363 . S
C1517 C1523 1.363 . S
C1518 C1519 1.363 . S
C1518 C1523 1.379 . S
C1518 N1525 1.356 . S
C1519 C1518 1.363 . S
C1519 C1522 1.363 . S
N1520 C1522 1.356 . S
N1520 H1532 0.984 . S
N1520 H1533 0.985 . S
N1521 C1523 1.356 . S
N1521 H1526 0.984 . S
N1521 H1527 0.985 . S
C1522 C1516 1.379 . S
C1522 C1519 1.363 . S
C1522 N1520 1.356 . S
C1523 C1517 1.363 . S
C1523 C1518 1.379 . S
C1523 N1521 1.356 . S
N1524 C1516 1.356 . S
N1524 H1530 0.984 . S
N1524 H1531 0.984 . S
N1525 C1518 1.356 . S
N1525 H1528 0.984 . S
N1525 H1529 0.985 . S
H1526 N1521 0.984 . S
H1527 N1521 0.985 . S
H1528 N1525 0.984 . S
H1529 N1525 0.985 . S
H1530 N1524 0.984 . S
H1531 N1524 0.984 . S
H1532 N1520 0.984 . S
H1533 N1520 0.985 . S
C1534 C1535 1.363 . S
C1534 C1540 1.379 1_455 S
C1534 N1542 1.356 . S
C1535 C1534 1.363 . S
C1535 C1541 1.363 . S
C1536 C1537 1.363 . S
C1536 C1541 1.379 1_655 S
C1536 N1543 1.356 . S
C1537 C1536 1.363 . S
C1537 C1540 1.363 . S
N1538 C1540 1.356 . S
N1538 H1550 0.984 . S
N1538 H1551 0.985 . S
N1539 C1541 1.356 . S
N1539 H1544 0.984 . S
N1539 H1545 0.985 . S
C1540 C1534 1.379 1_655 S
C1540 C1537 1.363 . S
C1540 N1538 1.356 . S
C1541 C1535 1.363 . S
C1541 C1536 1.379 1_455 S
C1541 N1539 1.356 . S
N1542 C1534 1.356 . S
N1542 H1548 0.984 . S
N1542 H1549 0.984 . S
N1543 C1536 1.356 . S
N1543 H1546 0.984 . S
N1543 H1547 0.985 . S
H1544 N1539 0.984 . S
H1545 N1539 0.985 . S
H1546 N1543 0.984 . S
H1547 N1543 0.985 . S
H1548 N1542 0.984 . S
H1549 N1542 0.984 . S
H1550 N1538 0.984 . S
H1551 N1538 0.985 . S
C1552 C1553 1.363 1_545 S
C1552 C1558 1.379 . S
C1552 N1560 1.356 . S
C1553 C1552 1.363 1_565 S
C1553 C1559 1.363 1_455 S
C1554 C1555 1.363 1_665 S
C1554 C1559 1.379 . S
C1554 N1561 1.356 . S
C1555 C1554 1.363 1_445 S
C1555 C1558 1.363 . S
N1556 C1558 1.356 . S
N1556 H1568 0.984 . S
N1556 H1569 0.985 . S
N1557 C1559 1.356 . S
N1557 H1562 0.984 . S
N1557 H1563 0.985 . S
C1558 C1552 1.379 . S
C1558 C1555 1.363 . S
C1558 N1556 1.356 . S
C1559 C1553 1.363 1_655 S
C1559 C1554 1.379 . S
C1559 N1557 1.356 . S
N1560 C1552 1.356 . S
N1560 H1566 0.984 . S
N1560 H1567 0.984 . S
N1561 C1554 1.356 . S
N1561 H1564 0.984 . S
N1561 H1565 0.985 . S
H1562 N1557 0.984 . S
H1563 N1557 0.985 . S
H1564 N1561 0.984 . S
H1565 N1561 0.985 . S
H1566 N1560 0.984 . S
H1567 N1560 0.984 . S
H1568 N1556 0.984 . S
H1569 N1556 0.985 . S
C1570 C1571 1.363 . S
C1570 C1576 1.379 . S
C1570 N1578 1.356 . S
C1571 C1570 1.363 . S
C1571 C1577 1.363 . S
C1572 C1573 1.363 . S
C1572 C1577 1.379 . S
C1572 N1579 1.356 . S
C1573 C1572 1.363 . S
C1573 C1576 1.363 . S
N1574 C1576 1.356 . S
N1574 H1586 0.984 . S
N1574 H1587 0.985 . S
N1575 C1577 1.356 . S
N1575 H1580 0.984 . S
N1575 H1581 0.985 . S
C1576 C1570 1.379 . S
C1576 C1573 1.363 . S
C1576 N1574 1.356 . S
C1577 C1571 1.363 . S
C1577 C1572 1.379 . S
C1577 N1575 1.356 . S
N1578 C1570 1.356 . S
N1578 H1584 0.984 . S
N1578 H1585 0.984 . S
N1579 C1572 1.356 . S
N1579 H1582 0.984 . S
N1579 H1583 0.985 . S
H1580 N1575 0.984 . S
H1581 N1575 0.985 . S
H1582 N1579 0.984 . S
H1583 N1579 0.985 . S
H1584 N1578 0.984 . S
H1585 N1578 0.984 . S
H1586 N1574 0.984 . S
H1587 N1574 0.985 . S
C1588 C1589 1.363 1_545 S
C1588 C1594 1.379 1_554 S
C1588 N1596 1.356 . S
C1589 C1588 1.363 1_565 S
C1589 C1595 1.363 . S
C1590 C1591 1.363 1_565 S
C1590 C1595 1.379 1_556 S
C1590 N1597 1.356 . S
C1591 C1590 1.363 1_545 S
C1591 C1594 1.363 . S
N1592 C1594 1.356 . S
N1592 H1604 0.984 . S
N1592 H1605 0.985 . S
N1593 C1595 1.356 . S
N1593 H1598 0.984 . S
N1593 H1599 0.985 . S
C1594 C1588 1.379 1_556 S
C1594 C1591 1.363 . S
C1594 N1592 1.356 . S
C1595 C1589 1.363 . S
C1595 C1590 1.379 1_554 S
C1595 N1593 1.356 . S
N1596 C1588 1.356 . S
N1596 H1602 0.984 . S
N1596 H1603 0.984 . S
N1597 C1590 1.356 . S
N1597 H1600 0.984 . S
N1597 H1601 0.985 . S
H1598 N1593 0.984 . S
H1599 N1593 0.985 . S
H1600 N1597 0.984 . S
H1601 N1597 0.985 . S
H1602 N1596 0.984 . S
H1603 N1596 0.984 . S
H1604 N1592 0.984 . S
H1605 N1592 0.985 . S
C1606 C1607 1.363 . S
C1606 C1612 1.379 . S
C1606 N1614 1.356 . S
C1607 C1606 1.363 . S
C1607 C1613 1.363 . S
C1608 C1609 1.363 . S
C1608 C1613 1.379 . S
C1608 N1615 1.356 . S
C1609 C1608 1.363 . S
C1609 C1612 1.363 . S
N1610 C1612 1.356 . S
N1610 H1622 0.984 . S
N1610 H1623 0.985 . S
N1611 C1613 1.356 . S
N1611 H1616 0.984 . S
N1611 H1617 0.985 . S
C1612 C1606 1.379 . S
C1612 C1609 1.363 . S
C1612 N1610 1.356 . S
C1613 C1607 1.363 . S
C1613 C1608 1.379 . S
C1613 N1611 1.356 . S
N1614 C1606 1.356 . S
N1614 H1620 0.984 . S
N1614 H1621 0.984 . S
N1615 C1608 1.356 . S
N1615 H1618 0.984 . S
N1615 H1619 0.985 . S
H1616 N1611 0.984 . S
H1617 N1611 0.985 . S
H1618 N1615 0.984 . S
H1619 N1615 0.985 . S
H1620 N1614 0.984 . S
H1621 N1614 0.984 . S
H1622 N1610 0.984 . S
H1623 N1610 0.985 . S
C1624 C1625 1.363 . S
C1624 C1630 1.379 . S
C1624 N1632 1.356 . S
C1625 C1624 1.363 . S
C1625 C1631 1.363 . S
C1626 C1627 1.363 . S
C1626 C1631 1.379 . S
C1626 N1633 1.356 . S
C1627 C1626 1.363 . S
C1627 C1630 1.363 . S
N1628 C1630 1.356 . S
N1628 H1640 0.984 . S
N1628 H1641 0.985 . S
N1629 C1631 1.356 . S
N1629 H1634 0.984 . S
N1629 H1635 0.985 . S
C1630 C1624 1.379 . S
C1630 C1627 1.363 . S
C1630 N1628 1.356 . S
C1631 C1625 1.363 . S
C1631 C1626 1.379 . S
C1631 N1629 1.356 . S
N1632 C1624 1.356 . S
N1632 H1638 0.984 . S
N1632 H1639 0.984 . S
N1633 C1626 1.356 . S
N1633 H1636 0.984 . S
N1633 H1637 0.985 . S
H1634 N1629 0.984 . S
H1635 N1629 0.985 . S
H1636 N1633 0.984 . S
H1637 N1633 0.985 . S
H1638 N1632 0.984 . S
H1639 N1632 0.984 . S
H1640 N1628 0.984 . S
H1641 N1628 0.985 . S
C1642 C1643 1.363 . S
C1642 C1648 1.379 . S
C1642 N1650 1.356 . S
C1643 C1642 1.363 . S
C1643 C1649 1.363 . S
C1644 C1645 1.363 . S
C1644 C1649 1.379 . S
C1644 N1651 1.356 . S
C1645 C1644 1.363 . S
C1645 C1648 1.363 . S
N1646 C1648 1.356 . S
N1646 H1658 0.984 . S
N1646 H1659 0.985 . S
N1647 C1649 1.356 . S
N1647 H1652 0.984 . S
N1647 H1653 0.985 . S
C1648 C1642 1.379 . S
C1648 C1645 1.363 . S
C1648 N1646 1.356 . S
C1649 C1643 1.363 . S
C1649 C1644 1.379 . S
C1649 N1647 1.356 . S
N1650 C1642 1.356 . S
N1650 H1656 0.984 . S
N1650 H1657 0.984 . S
N1651 C1644 1.356 . S
N1651 H1654 0.984 . S
N1651 H1655 0.985 . S
H1652 N1647 0.984 . S
H1653 N1647 0.985 . S
H1654 N1651 0.984 . S
H1655 N1651 0.985 . S
H1656 N1650 0.984 . S
H1657 N1650 0.984 . S
H1658 N1646 0.984 . S
H1659 N1646 0.985 . S
C1660 C1661 1.363 . S
C1660 C1666 1.379 1_556 S
C1660 N1668 1.356 . S
C1661 C1660 1.363 . S
C1661 C1667 1.363 . S
C1662 C1663 1.363 . S
C1662 C1667 1.379 1_554 S
C1662 N1669 1.356 . S
C1663 C1662 1.363 . S
C1663 C1666 1.363 . S
N1664 C1666 1.356 . S
N1664 H1676 0.984 . S
N1664 H1677 0.985 . S
N1665 C1667 1.356 . S
N1665 H1670 0.984 . S
N1665 H1671 0.985 . S
C1666 C1660 1.379 1_554 S
C1666 C1663 1.363 . S
C1666 N1664 1.356 . S
C1667 C1661 1.363 . S
C1667 C1662 1.379 1_556 S
C1667 N1665 1.356 . S
N1668 C1660 1.356 . S
N1668 H1674 0.984 . S
N1668 H1675 0.984 . S
N1669 C1662 1.356 . S
N1669 H1672 0.984 . S
N1669 H1673 0.985 . S
H1670 N1665 0.984 . S
H1671 N1665 0.985 . S
H1672 N1669 0.984 . S
H1673 N1669 0.985 . S
H1674 N1668 0.984 . S
H1675 N1668 0.984 . S
H1676 N1664 0.984 . S
H1677 N1664 0.985 . S
C1678 C1679 1.363 1_655 S
C1678 C1684 1.379 . S
C1678 N1686 1.356 . S
C1679 C1678 1.363 1_455 S
C1679 C1685 1.363 . S
C1680 C1681 1.363 . S
C1680 C1685 1.379 . S
C1680 N1687 1.356 . S
C1681 C1680 1.363 . S
C1681 C1684 1.363 1_455 S
N1682 C1684 1.356 . S
N1682 H1694 0.984 . S
N1682 H1695 0.985 . S
N1683 C1685 1.356 . S
N1683 H1688 0.984 . S
N1683 H1689 0.985 . S
C1684 C1678 1.379 . S
C1684 C1681 1.363 1_655 S
C1684 N1682 1.356 . S
C1685 C1679 1.363 . S
C1685 C1680 1.379 . S
C1685 N1683 1.356 . S
N1686 C1678 1.356 . S
N1686 H1692 0.984 . S
N1686 H1693 0.984 . S
N1687 C1680 1.356 . S
N1687 H1690 0.984 . S
N1687 H1691 0.985 . S
H1688 N1683 0.984 . S
H1689 N1683 0.985 . S
H1690 N1687 0.984 . S
H1691 N1687 0.985 . S
H1692 N1686 0.984 . S
H1693 N1686 0.984 . S
H1694 N1682 0.984 . S
H1695 N1682 0.985 . S
C1696 C1697 1.363 . S
C1696 C1702 1.379 . S
C1696 N1704 1.356 . S
C1697 C1696 1.363 . S
C1697 C1703 1.363 . S
C1698 C1699 1.363 . S
C1698 C1703 1.379 . S
C1698 N1705 1.356 . S
C1699 C1698 1.363 . S
C1699 C1702 1.363 . S
N1700 C1702 1.356 . S
N1700 H1712 0.984 . S
N1700 H1713 0.985 . S
N1701 C1703 1.356 . S
N1701 H1706 0.984 . S
N1701 H1707 0.985 . S
C1702 C1696 1.379 . S
C1702 C1699 1.363 . S
C1702 N1700 1.356 . S
C1703 C1697 1.363 . S
C1703 C1698 1.379 . S
C1703 N1701 1.356 . S
N1704 C1696 1.356 . S
N1704 H1710 0.984 . S
N1704 H1711 0.984 . S
N1705 C1698 1.356 . S
N1705 H1708 0.984 . S
N1705 H1709 0.985 . S
H1706 N1701 0.984 . S
H1707 N1701 0.985 . S
H1708 N1705 0.984 . S
H1709 N1705 0.985 . S
H1710 N1704 0.984 . S
H1711 N1704 0.984 . S
H1712 N1700 0.984 . S
H1713 N1700 0.985 . S
C1714 C1715 1.363 . S
C1714 C1720 1.379 . S
C1714 N1722 1.356 . S
C1715 C1714 1.363 . S
C1715 C1721 1.363 . S
C1716 C1717 1.363 . S
C1716 C1721 1.379 . S
C1716 N1723 1.356 . S
C1717 C1716 1.363 . S
C1717 C1720 1.363 . S
N1718 C1720 1.356 . S
N1718 H1730 0.984 . S
N1718 H1731 0.985 . S
N1719 C1721 1.356 . S
N1719 H1724 0.984 . S
N1719 H1725 0.985 . S
C1720 C1714 1.379 . S
C1720 C1717 1.363 . S
C1720 N1718 1.356 . S
C1721 C1715 1.363 . S
C1721 C1716 1.379 . S
C1721 N1719 1.356 . S
N1722 C1714 1.356 . S
N1722 H1728 0.984 . S
N1722 H1729 0.984 . S
N1723 C1716 1.356 . S
N1723 H1726 0.984 1_565 S
N1723 H1727 0.985 1_565 S
H1724 N1719 0.984 . S
H1725 N1719 0.985 . S
H1726 N1723 0.984 1_545 S
H1727 N1723 0.985 1_545 S
H1728 N1722 0.984 . S
H1729 N1722 0.984 . S
H1730 N1718 0.984 . S
H1731 N1718 0.985 . S
C1732 C1733 1.363 . S
C1732 C1738 1.379 . S
C1732 N1740 1.356 . S
C1733 C1732 1.363 . S
C1733 C1739 1.363 . S
C1734 C1735 1.363 . S
C1734 C1739 1.379 . S
C1734 N1741 1.356 . S
C1735 C1734 1.363 . S
C1735 C1738 1.363 . S
N1736 C1738 1.356 . S
N1736 H1748 0.984 . S
N1736 H1749 0.985 . S
N1737 C1739 1.356 . S
N1737 H1742 0.984 . S
N1737 H1743 0.985 . S
C1738 C1732 1.379 . S
C1738 C1735 1.363 . S
C1738 N1736 1.356 . S
C1739 C1733 1.363 . S
C1739 C1734 1.379 . S
C1739 N1737 1.356 . S
N1740 C1732 1.356 . S
N1740 H1746 0.984 . S
N1740 H1747 0.985 . S
N1741 C1734 1.356 . S
N1741 H1744 0.984 . S
N1741 H1745 0.985 . S
H1742 N1737 0.984 . S
H1743 N1737 0.985 . S
H1744 N1741 0.984 . S
H1745 N1741 0.985 . S
H1746 N1740 0.984 . S
H1747 N1740 0.985 . S
H1748 N1736 0.984 . S
H1749 N1736 0.985 . S
C1750 C1751 1.363 . S
C1750 C1756 1.379 . S
C1750 N1758 1.356 . S
C1751 C1750 1.363 . S
C1751 C1757 1.363 . S
C1752 C1753 1.363 . S
C1752 C1757 1.379 . S
C1752 N1759 1.356 . S
C1753 C1752 1.363 . S
C1753 C1756 1.363 . S
N1754 C1756 1.356 . S
N1754 H1766 0.984 . S
N1754 H1767 0.985 . S
N1755 C1757 1.356 . S
N1755 H1760 0.984 . S
N1755 H1761 0.985 . S
C1756 C1750 1.379 . S
C1756 C1753 1.363 . S
C1756 N1754 1.356 . S
C1757 C1751 1.363 . S
C1757 C1752 1.379 . S
C1757 N1755 1.356 . S
N1758 C1750 1.356 . S
N1758 H1764 0.984 . S
N1758 H1765 0.985 . S
N1759 C1752 1.356 . S
N1759 H1762 0.984 . S
N1759 H1763 0.985 . S
H1760 N1755 0.984 . S
H1761 N1755 0.985 . S
H1762 N1759 0.984 . S
H1763 N1759 0.985 . S
H1764 N1758 0.984 . S
H1765 N1758 0.985 . S
H1766 N1754 0.984 . S
H1767 N1754 0.985 . S
C1768 C1769 1.363 . S
C1768 C1774 1.379 . S
C1768 N1776 1.356 . S
C1769 C1768 1.363 . S
C1769 C1775 1.363 . S
C1770 C1771 1.363 . S
C1770 C1775 1.379 . S
C1770 N1777 1.356 . S
C1771 C1770 1.363 . S
C1771 C1774 1.363 . S
N1772 C1774 1.356 . S
N1772 H1784 0.984 . S
N1772 H1785 0.985 . S
N1773 C1775 1.356 . S
N1773 H1778 0.984 . S
N1773 H1779 0.985 . S
C1774 C1768 1.379 . S
C1774 C1771 1.363 . S
C1774 N1772 1.356 . S
C1775 C1769 1.363 . S
C1775 C1770 1.379 . S
C1775 N1773 1.356 . S
N1776 C1768 1.356 . S
N1776 H1782 0.984 . S
N1776 H1783 0.984 . S
N1777 C1770 1.356 . S
N1777 H1780 0.984 . S
N1777 H1781 0.985 . S
H1778 N1773 0.984 . S
H1779 N1773 0.985 . S
H1780 N1777 0.984 . S
H1781 N1777 0.985 . S
H1782 N1776 0.984 . S
H1783 N1776 0.984 . S
H1784 N1772 0.984 . S
H1785 N1772 0.985 . S
C1786 C1787 1.363 . S
C1786 C1792 1.379 . S
C1786 N1794 1.356 . S
C1787 C1786 1.363 . S
C1787 C1793 1.363 . S
C1788 C1789 1.363 . S
C1788 C1793 1.379 . S
C1788 N1795 1.356 . S
C1789 C1788 1.363 . S
C1789 C1792 1.363 . S
N1790 C1792 1.356 . S
N1790 H1802 0.984 . S
N1790 H1803 0.985 . S
N1791 C1793 1.356 . S
N1791 H1796 0.984 . S
N1791 H1797 0.985 . S
C1792 C1786 1.379 . S
C1792 C1789 1.363 . S
C1792 N1790 1.356 . S
C1793 C1787 1.363 . S
C1793 C1788 1.379 . S
C1793 N1791 1.356 . S
N1794 C1786 1.356 . S
N1794 H1800 0.984 . S
N1794 H1801 0.985 . S
N1795 C1788 1.356 . S
N1795 H1798 0.984 . S
N1795 H1799 0.985 . S
H1796 N1791 0.984 . S
H1797 N1791 0.985 . S
H1798 N1795 0.984 . S
H1799 N1795 0.985 . S
H1800 N1794 0.984 . S
H1801 N1794 0.985 . S
H1802 N1790 0.984 . S
H1803 N1790 0.985 . S
C1804 C1805 1.363 . S
C1804 C1810 1.379 . S
C1804 N1812 1.356 . S
C1805 C1804 1.363 . S
C1805 C1811 1.363 . S
C1806 C1807 1.363 . S
C1806 C1811 1.379 . S
C1806 N1813 1.356 . S
C1807 C1806 1.363 . S
C1807 C1810 1.363 . S
N1808 C1810 1.356 . S
N1808 H1820 0.994 . S
N1808 H1821 0.978 1_565 S
N1809 C1811 1.356 . S
N1809 H1814 0.984 . S
N1809 H1815 0.985 . S
C1810 C1804 1.379 . S
C1810 C1807 1.363 . S
C1810 N1808 1.356 . S
C1811 C1805 1.363 . S
C1811 C1806 1.379 . S
C1811 N1809 1.356 . S
N1812 C1804 1.356 . S
N1812 H1818 0.984 . S
N1812 H1819 0.984 . S
N1813 C1806 1.356 . S
N1813 H1816 0.984 . S
N1813 H1817 0.985 . S
H1814 N1809 0.984 . S
H1815 N1809 0.985 . S
H1816 N1813 0.984 . S
H1817 N1813 0.985 . S
H1818 N1812 0.984 . S
H1819 N1812 0.984 . S
H1820 N1808 0.994 . S
H1821 N1808 0.978 1_545 S
C1822 C1823 1.363 . S
C1822 C1828 1.379 . S
C1822 N1830 1.356 . S
C1823 C1822 1.363 . S
C1823 C1829 1.363 . S
C1824 C1825 1.363 . S
C1824 C1829 1.379 . S
C1824 N1831 1.356 . S
C1825 C1824 1.363 . S
C1825 C1828 1.363 . S
N1826 C1828 1.356 . S
N1826 H1838 0.984 . S
N1826 H1839 0.985 . S
N1827 C1829 1.356 . S
N1827 H1832 0.984 . S
N1827 H1833 0.985 . S
C1828 C1822 1.379 . S
C1828 C1825 1.363 . S
C1828 N1826 1.356 . S
C1829 C1823 1.363 . S
C1829 C1824 1.379 . S
C1829 N1827 1.356 . S
N1830 C1822 1.356 . S
N1830 H1836 0.984 . S
N1830 H1837 0.984 . S
N1831 C1824 1.356 . S
N1831 H1834 0.984 . S
N1831 H1835 0.985 . S
H1832 N1827 0.984 . S
H1833 N1827 0.985 . S
H1834 N1831 0.984 . S
H1835 N1831 0.985 . S
H1836 N1830 0.984 . S
H1837 N1830 0.984 . S
H1838 N1826 0.984 . S
H1839 N1826 0.985 . S
C1840 C1841 1.363 . S
C1840 C1846 1.379 . S
C1840 N1848 1.356 . S
C1841 C1840 1.363 . S
C1841 C1847 1.363 . S
C1842 C1843 1.363 . S
C1842 C1847 1.379 . S
C1842 N1849 1.356 . S
C1843 C1842 1.363 . S
C1843 C1846 1.363 . S
N1844 C1846 1.356 . S
N1844 H1856 0.984 . S
N1844 H1857 0.985 . S
N1845 C1847 1.356 . S
N1845 H1850 0.984 . S
N1845 H1851 0.985 . S
C1846 C1840 1.379 . S
C1846 C1843 1.363 . S
C1846 N1844 1.356 . S
C1847 C1841 1.363 . S
C1847 C1842 1.379 . S
C1847 N1845 1.356 . S
N1848 C1840 1.356 . S
N1848 H1854 0.984 . S
N1848 H1855 0.984 . S
N1849 C1842 1.356 . S
N1849 H1852 0.984 . S
N1849 H1853 0.985 . S
H1850 N1845 0.984 . S
H1851 N1845 0.985 . S
H1852 N1849 0.984 . S
H1853 N1849 0.985 . S
H1854 N1848 0.984 . S
H1855 N1848 0.984 . S
H1856 N1844 0.984 . S
H1857 N1844 0.985 . S
C1858 C1859 1.363 . S
C1858 C1864 1.379 . S
C1858 N1866 1.356 . S
C1859 C1858 1.363 . S
C1859 C1865 1.363 . S
C1860 C1861 1.363 . S
C1860 C1865 1.379 . S
C1860 N1867 1.356 . S
C1861 C1860 1.363 . S
C1861 C1864 1.363 . S
N1862 C1864 1.356 . S
N1862 H1874 0.984 . S
N1862 H1875 0.985 . S
N1863 C1865 1.356 . S
N1863 H1868 0.984 . S
N1863 H1869 0.985 . S
C1864 C1858 1.379 . S
C1864 C1861 1.363 . S
C1864 N1862 1.356 . S
C1865 C1859 1.363 . S
C1865 C1860 1.379 . S
C1865 N1863 1.356 . S
N1866 C1858 1.356 . S
N1866 H1872 0.984 . S
N1866 H1873 0.984 . S
N1867 C1860 1.356 . S
N1867 H1870 0.984 . S
N1867 H1871 0.985 . S
H1868 N1863 0.984 . S
H1869 N1863 0.985 . S
H1870 N1867 0.984 . S
H1871 N1867 0.985 . S
H1872 N1866 0.984 . S
H1873 N1866 0.984 . S
H1874 N1862 0.984 . S
H1875 N1862 0.985 . S
C1876 C1877 1.363 . S
C1876 C1882 1.379 . S
C1876 N1884 1.356 . S
C1877 C1876 1.363 . S
C1877 C1883 1.363 . S
C1878 C1879 1.363 . S
C1878 C1883 1.379 . S
C1878 N1885 1.356 . S
C1879 C1878 1.363 . S
C1879 C1882 1.363 . S
N1880 C1882 1.356 . S
N1880 H1892 0.984 . S
N1880 H1893 0.985 . S
N1881 C1883 1.356 . S
N1881 H1886 0.984 . S
N1881 H1887 0.985 . S
C1882 C1876 1.379 . S
C1882 C1879 1.363 . S
C1882 N1880 1.356 . S
C1883 C1877 1.363 . S
C1883 C1878 1.379 . S
C1883 N1881 1.356 . S
N1884 C1876 1.356 . S
N1884 H1890 0.984 . S
N1884 H1891 0.984 . S
N1885 C1878 1.356 . S
N1885 H1888 0.984 . S
N1885 H1889 0.985 . S
H1886 N1881 0.984 . S
H1887 N1881 0.985 . S
H1888 N1885 0.984 . S
H1889 N1885 0.985 . S
H1890 N1884 0.984 . S
H1891 N1884 0.984 . S
H1892 N1880 0.984 . S
H1893 N1880 0.985 . S
C1894 C1895 1.363 . S
C1894 C1900 1.379 . S
C1894 N1902 1.356 . S
C1895 C1894 1.363 . S
C1895 C1901 1.363 . S
C1896 C1897 1.363 . S
C1896 C1901 1.379 . S
C1896 N1903 1.356 . S
C1897 C1896 1.363 . S
C1897 C1900 1.363 . S
N1898 C1900 1.356 . S
N1898 H1910 0.984 . S
N1898 H1911 0.985 . S
N1899 C1901 1.356 . S
N1899 H1904 0.984 . S
N1899 H1905 0.985 . S
C1900 C1894 1.379 . S
C1900 C1897 1.363 . S
C1900 N1898 1.356 . S
C1901 C1895 1.363 . S
C1901 C1896 1.379 . S
C1901 N1899 1.356 . S
N1902 C1894 1.356 . S
N1902 H1908 0.984 . S
N1902 H1909 0.984 . S
N1903 C1896 1.356 . S
N1903 H1906 0.984 . S
N1903 H1907 0.985 . S
H1904 N1899 0.984 . S
H1905 N1899 0.985 . S
H1906 N1903 0.984 . S
H1907 N1903 0.985 . S
H1908 N1902 0.984 . S
H1909 N1902 0.984 . S
H1910 N1898 0.984 . S
H1911 N1898 0.985 . S
C1912 C1913 1.363 . S
C1912 C1918 1.379 . S
C1912 N1920 1.356 . S
C1913 C1912 1.363 . S
C1913 C1919 1.363 . S
C1914 C1915 1.363 . S
C1914 C1919 1.379 . S
C1914 N1921 1.356 . S
C1915 C1914 1.363 . S
C1915 C1918 1.363 . S
N1916 C1918 1.356 . S
N1916 H1928 0.984 . S
N1916 H1929 0.985 . S
N1917 C1919 1.356 . S
N1917 H1922 0.984 . S
N1917 H1923 0.985 . S
C1918 C1912 1.379 . S
C1918 C1915 1.363 . S
C1918 N1916 1.356 . S
C1919 C1913 1.363 . S
C1919 C1914 1.379 . S
C1919 N1917 1.356 . S
N1920 C1912 1.356 . S
N1920 H1926 0.984 . S
N1920 H1927 0.984 . S
N1921 C1914 1.356 . S
N1921 H1924 0.984 . S
N1921 H1925 0.985 . S
H1922 N1917 0.984 . S
H1923 N1917 0.985 . S
H1924 N1921 0.984 . S
H1925 N1921 0.985 . S
H1926 N1920 0.984 . S
H1927 N1920 0.984 . S
H1928 N1916 0.984 . S
H1929 N1916 0.985 . S
C1930 C1931 1.363 . S
C1930 C1936 1.379 . S
C1930 N1938 1.356 . S
C1931 C1930 1.363 . S
C1931 C1937 1.363 . S
C1932 C1933 1.363 . S
C1932 C1937 1.379 . S
C1932 N1939 1.356 . S
C1933 C1932 1.363 . S
C1933 C1936 1.363 . S
N1934 C1936 1.356 . S
N1934 H1946 0.984 . S
N1934 H1947 0.985 . S
N1935 C1937 1.356 . S
N1935 H1940 0.984 . S
N1935 H1941 0.985 . S
C1936 C1930 1.379 . S
C1936 C1933 1.363 . S
C1936 N1934 1.356 . S
C1937 C1931 1.363 . S
C1937 C1932 1.379 . S
C1937 N1935 1.356 . S
N1938 C1930 1.356 . S
N1938 H1944 0.984 . S
N1938 H1945 0.984 . S
N1939 C1932 1.356 . S
N1939 H1942 0.984 . S
N1939 H1943 0.985 . S
H1940 N1935 0.984 . S
H1941 N1935 0.985 . S
H1942 N1939 0.984 . S
H1943 N1939 0.985 . S
H1944 N1938 0.984 . S
H1945 N1938 0.984 . S
H1946 N1934 0.984 . S
H1947 N1934 0.985 . S
C1948 C1949 1.363 . S
C1948 C1954 1.379 . S
C1948 N1956 1.356 . S
C1949 C1948 1.363 . S
C1949 C1955 1.363 . S
C1950 C1951 1.363 . S
C1950 C1955 1.379 . S
C1950 N1957 1.356 . S
C1951 C1950 1.363 . S
C1951 C1954 1.363 . S
N1952 C1954 1.356 . S
N1952 H1964 0.984 . S
N1952 H1965 0.985 . S
N1953 C1955 1.356 . S
N1953 H1958 0.984 . S
N1953 H1959 0.985 . S
C1954 C1948 1.379 . S
C1954 C1951 1.363 . S
C1954 N1952 1.356 . S
C1955 C1949 1.363 . S
C1955 C1950 1.379 . S
C1955 N1953 1.356 . S
N1956 C1948 1.356 . S
N1956 H1962 0.984 . S
N1956 H1963 0.984 . S
N1957 C1950 1.356 . S
N1957 H1960 0.984 . S
N1957 H1961 0.985 . S
H1958 N1953 0.984 . S
H1959 N1953 0.985 . S
H1960 N1957 0.984 . S
H1961 N1957 0.985 . S
H1962 N1956 0.984 . S
H1963 N1956 0.984 . S
H1964 N1952 0.984 . S
H1965 N1952 0.985 . S
C1966 C1967 1.363 . S
C1966 C1972 1.379 . S
C1966 N1974 1.356 . S
C1967 C1966 1.363 . S
C1967 C1973 1.363 . S
C1968 C1969 1.363 . S
C1968 C1973 1.379 . S
C1968 N1975 1.356 . S
C1969 C1968 1.363 . S
C1969 C1972 1.363 . S
N1970 C1972 1.356 . S
N1970 H1982 0.984 . S
N1970 H1983 0.985 . S
N1971 C1973 1.356 . S
N1971 H1976 0.984 . S
N1971 H1977 0.985 . S
C1972 C1966 1.379 . S
C1972 C1969 1.363 . S
C1972 N1970 1.356 . S
C1973 C1967 1.363 . S
C1973 C1968 1.379 . S
C1973 N1971 1.356 . S
N1974 C1966 1.356 . S
N1974 H1980 0.984 . S
N1974 H1981 0.984 . S
N1975 C1968 1.356 . S
N1975 H1978 0.984 . S
N1975 H1979 0.985 . S
H1976 N1971 0.984 . S
H1977 N1971 0.985 . S
H1978 N1975 0.984 . S
H1979 N1975 0.985 . S
H1980 N1974 0.984 . S
H1981 N1974 0.984 . S
H1982 N1970 0.984 . S
H1983 N1970 0.985 . S
C1409 C29 0.875 . S
C1411 C1201 0.875 . S
C1427 C997 0.882 . S
C1429 C117 0.882 . S
C1445 C1085 0.875 . S
C1447 C225 0.875 . S
C1463 C900 0.881 . S
C1465 C293 0.881 . S
C1481 C401 0.875 . S
C1483 C1340 0.875 . S
C1499 C489 0.881 . S
C1501 C849 0.881 . S
C1517 C1281 0.875 . S
C1519 C548 0.875 . S
C1535 C673 0.882 . S
C1537 C761 0.882 . S
C1553 C409 1.662 . S
C1555 C20 1.662 . S
C1571 C137 1.665 . S
C1573 C469 1.665 . S
C1589 C233 1.662 . S
C1591 C557 1.662 . S
C1607 C636 1.665 . S
C1609 C313 1.665 . S
C1625 C724 1.665 . S
C1627 C937 1.665 . S
C1643 C812 1.665 . S
C1645 C1017 1.665 . S
C1661 C1289 1.662 . S
C1663 C1076 1.662 . S
C1679 C1193 1.662 . S
C1681 C1349 1.662 . S
C1697 C460 1.379 . S
C1699 C49 1.375 . S
C1715 C145 1.379 . S
C1717 C585 1.374 . S
C1733 C205 1.374 . S
C1735 C645 1.379 . S
C1751 C381 1.375 . S
C1753 C321 1.379 . S
C1769 C372 1.377 . S
C1771 C909 1.375 . S
C1787 C196 1.377 . S
C1789 C753 1.374 . S
C1805 C988 1.374 . S
C1807 C577 1.377 . S
C1823 C841 1.375 . S
C1825 C57 1.377 . S
C1841 C733 1.379 . S
C1843 C1105 1.374 . S
C1859 C929 1.379 . S
C1861 C1377 1.374 . S
C1877 C1164 1.374 . S
C1879 C821 1.379 . S
C1895 C1025 1.379 . S
C1897 C1261 1.374 . S
C1913 C1252 1.377 . S
C1915 C108 1.374 . S
C1931 C1173 1.377 . S
C1933 C497 1.374 . S
C1949 C1369 1.377 . S
C1951 C284 1.374 . S
C1967 C1113 1.377 . S
C1969 C665 1.374 . S
