# Generated by pormake.
# Topology mer, (4)-cn, num edge types: 1
# Building blocks:
#     Node 0, Type 0, BuildingBlock: KUFVIS_clean_sbu_0, # of connection points: 4
#     Node 1, Type 0, BuildingBlock: KUFVIS_clean_sbu_0, # of connection points: 4
#     Node 2, Type 0, BuildingBlock: KUFVIS_clean_sbu_0, # of connection points: 4
#     Node 3, Type 0, BuildingBlock: KUFVIS_clean_sbu_0, # of connection points: 4
#     Node 4, Type 0, BuildingBlock: KUFVIS_clean_sbu_0, # of connection points: 4
#     Node 5, Type 0, BuildingBlock: KUFVIS_clean_sbu_0, # of connection points: 4
#     Node 6, Type 0, BuildingBlock: KUFVIS_clean_sbu_0, # of connection points: 4
#     Node 7, Type 0, BuildingBlock: KUFVIS_clean_sbu_0, # of connection points: 4
#     Node 8, Type 0, BuildingBlock: KUFVIS_clean_sbu_0, # of connection points: 4
#     Node 9, Type 0, BuildingBlock: KUFVIS_clean_sbu_0, # of connection points: 4
#     Node 10, Type 0, BuildingBlock: KUFVIS_clean_sbu_0, # of connection points: 4
#     Node 11, Type 0, BuildingBlock: KUFVIS_clean_sbu_0, # of connection points: 4
#     Node 12, Type 0, BuildingBlock: KUFVIS_clean_sbu_0, # of connection points: 4
#     Node 13, Type 0, BuildingBlock: KUFVIS_clean_sbu_0, # of connection points: 4
#     Node 14, Type 0, BuildingBlock: KUFVIS_clean_sbu_0, # of connection points: 4
#     Node 15, Type 0, BuildingBlock: KUFVIS_clean_sbu_0, # of connection points: 4
#     Node 16, Type 0, BuildingBlock: KUFVIS_clean_sbu_0, # of connection points: 4
#     Node 17, Type 0, BuildingBlock: KUFVIS_clean_sbu_0, # of connection points: 4
#     Node 18, Type 0, BuildingBlock: KUFVIS_clean_sbu_0, # of connection points: 4
#     Node 19, Type 0, BuildingBlock: KUFVIS_clean_sbu_0, # of connection points: 4
#     Node 20, Type 0, BuildingBlock: KUFVIS_clean_sbu_0, # of connection points: 4
#     Node 21, Type 0, BuildingBlock: KUFVIS_clean_sbu_0, # of connection points: 4
#     Node 22, Type 0, BuildingBlock: KUFVIS_clean_sbu_0, # of connection points: 4
#     Node 23, Type 0, BuildingBlock: KUFVIS_clean_sbu_0, # of connection points: 4
#     Node 24, Type 0, BuildingBlock: KUFVIS_clean_sbu_0, # of connection points: 4
#     Node 25, Type 0, BuildingBlock: KUFVIS_clean_sbu_0, # of connection points: 4
#     Node 26, Type 0, BuildingBlock: KUFVIS_clean_sbu_0, # of connection points: 4
#     Node 27, Type 0, BuildingBlock: KUFVIS_clean_sbu_0, # of connection points: 4
#     Node 28, Type 0, BuildingBlock: KUFVIS_clean_sbu_0, # of connection points: 4
#     Node 29, Type 0, BuildingBlock: KUFVIS_clean_sbu_0, # of connection points: 4
#     Node 30, Type 0, BuildingBlock: KUFVIS_clean_sbu_0, # of connection points: 4
#     Node 31, Type 0, BuildingBlock: KUFVIS_clean_sbu_0, # of connection points: 4
#     Edge 32, Type (0, 0), BuildingBlock: EZIPEK_clean_linker_0, # of connection points: 2
#     Edge 33, Type (0, 0), BuildingBlock: EZIPEK_clean_linker_0, # of connection points: 2
#     Edge 34, Type (0, 0), BuildingBlock: EZIPEK_clean_linker_0, # of connection points: 2
#     Edge 35, Type (0, 0), BuildingBlock: EZIPEK_clean_linker_0, # of connection points: 2
#     Edge 36, Type (0, 0), BuildingBlock: EZIPEK_clean_linker_0, # of connection points: 2
#     Edge 37, Type (0, 0), BuildingBlock: EZIPEK_clean_linker_0, # of connection points: 2
#     Edge 38, Type (0, 0), BuildingBlock: EZIPEK_clean_linker_0, # of connection points: 2
#     Edge 39, Type (0, 0), BuildingBlock: EZIPEK_clean_linker_0, # of connection points: 2
#     Edge 40, Type (0, 0), BuildingBlock: EZIPEK_clean_linker_0, # of connection points: 2
#     Edge 41, Type (0, 0), BuildingBlock: EZIPEK_clean_linker_0, # of connection points: 2
#     Edge 42, Type (0, 0), BuildingBlock: EZIPEK_clean_linker_0, # of connection points: 2
#     Edge 43, Type (0, 0), BuildingBlock: EZIPEK_clean_linker_0, # of connection points: 2
#     Edge 44, Type (0, 0), BuildingBlock: EZIPEK_clean_linker_0, # of connection points: 2
#     Edge 45, Type (0, 0), BuildingBlock: EZIPEK_clean_linker_0, # of connection points: 2
#     Edge 46, Type (0, 0), BuildingBlock: EZIPEK_clean_linker_0, # of connection points: 2
#     Edge 47, Type (0, 0), BuildingBlock: EZIPEK_clean_linker_0, # of connection points: 2
#     Edge 48, Type (0, 0), BuildingBlock: EZIPEK_clean_linker_0, # of connection points: 2
#     Edge 49, Type (0, 0), BuildingBlock: EZIPEK_clean_linker_0, # of connection points: 2
#     Edge 50, Type (0, 0), BuildingBlock: EZIPEK_clean_linker_0, # of connection points: 2
#     Edge 51, Type (0, 0), BuildingBlock: EZIPEK_clean_linker_0, # of connection points: 2
#     Edge 52, Type (0, 0), BuildingBlock: EZIPEK_clean_linker_0, # of connection points: 2
#     Edge 53, Type (0, 0), BuildingBlock: EZIPEK_clean_linker_0, # of connection points: 2
#     Edge 54, Type (0, 0), BuildingBlock: EZIPEK_clean_linker_0, # of connection points: 2
#     Edge 55, Type (0, 0), BuildingBlock: EZIPEK_clean_linker_0, # of connection points: 2
#     Edge 56, Type (0, 0), BuildingBlock: EZIPEK_clean_linker_0, # of connection points: 2
#     Edge 57, Type (0, 0), BuildingBlock: EZIPEK_clean_linker_0, # of connection points: 2
#     Edge 58, Type (0, 0), BuildingBlock: EZIPEK_clean_linker_0, # of connection points: 2
#     Edge 59, Type (0, 0), BuildingBlock: EZIPEK_clean_linker_0, # of connection points: 2
#     Edge 60, Type (0, 0), BuildingBlock: EZIPEK_clean_linker_0, # of connection points: 2
#     Edge 61, Type (0, 0), BuildingBlock: EZIPEK_clean_linker_0, # of connection points: 2
#     Edge 62, Type (0, 0), BuildingBlock: EZIPEK_clean_linker_0, # of connection points: 2
#     Edge 63, Type (0, 0), BuildingBlock: EZIPEK_clean_linker_0, # of connection points: 2
#     Edge 64, Type (0, 0), BuildingBlock: EZIPEK_clean_linker_0, # of connection points: 2
#     Edge 65, Type (0, 0), BuildingBlock: EZIPEK_clean_linker_0, # of connection points: 2
#     Edge 66, Type (0, 0), BuildingBlock: EZIPEK_clean_linker_0, # of connection points: 2
#     Edge 67, Type (0, 0), BuildingBlock: EZIPEK_clean_linker_0, # of connection points: 2
#     Edge 68, Type (0, 0), BuildingBlock: EZIPEK_clean_linker_0, # of connection points: 2
#     Edge 69, Type (0, 0), BuildingBlock: EZIPEK_clean_linker_0, # of connection points: 2
#     Edge 70, Type (0, 0), BuildingBlock: EZIPEK_clean_linker_0, # of connection points: 2
#     Edge 71, Type (0, 0), BuildingBlock: EZIPEK_clean_linker_0, # of connection points: 2
#     Edge 72, Type (0, 0), BuildingBlock: EZIPEK_clean_linker_0, # of connection points: 2
#     Edge 73, Type (0, 0), BuildingBlock: EZIPEK_clean_linker_0, # of connection points: 2
#     Edge 74, Type (0, 0), BuildingBlock: EZIPEK_clean_linker_0, # of connection points: 2
#     Edge 75, Type (0, 0), BuildingBlock: EZIPEK_clean_linker_0, # of connection points: 2
#     Edge 76, Type (0, 0), BuildingBlock: EZIPEK_clean_linker_0, # of connection points: 2
#     Edge 77, Type (0, 0), BuildingBlock: EZIPEK_clean_linker_0, # of connection points: 2
#     Edge 78, Type (0, 0), BuildingBlock: EZIPEK_clean_linker_0, # of connection points: 2
#     Edge 79, Type (0, 0), BuildingBlock: EZIPEK_clean_linker_0, # of connection points: 2
#     Edge 80, Type (0, 0), BuildingBlock: EZIPEK_clean_linker_0, # of connection points: 2
#     Edge 81, Type (0, 0), BuildingBlock: EZIPEK_clean_linker_0, # of connection points: 2
#     Edge 82, Type (0, 0), BuildingBlock: EZIPEK_clean_linker_0, # of connection points: 2
#     Edge 83, Type (0, 0), BuildingBlock: EZIPEK_clean_linker_0, # of connection points: 2
#     Edge 84, Type (0, 0), BuildingBlock: EZIPEK_clean_linker_0, # of connection points: 2
#     Edge 85, Type (0, 0), BuildingBlock: EZIPEK_clean_linker_0, # of connection points: 2
#     Edge 86, Type (0, 0), BuildingBlock: EZIPEK_clean_linker_0, # of connection points: 2
#     Edge 87, Type (0, 0), BuildingBlock: EZIPEK_clean_linker_0, # of connection points: 2
#     Edge 88, Type (0, 0), BuildingBlock: EZIPEK_clean_linker_0, # of connection points: 2
#     Edge 89, Type (0, 0), BuildingBlock: EZIPEK_clean_linker_0, # of connection points: 2
#     Edge 90, Type (0, 0), BuildingBlock: EZIPEK_clean_linker_0, # of connection points: 2
#     Edge 91, Type (0, 0), BuildingBlock: EZIPEK_clean_linker_0, # of connection points: 2
#     Edge 92, Type (0, 0), BuildingBlock: EZIPEK_clean_linker_0, # of connection points: 2
#     Edge 93, Type (0, 0), BuildingBlock: EZIPEK_clean_linker_0, # of connection points: 2
#     Edge 94, Type (0, 0), BuildingBlock: EZIPEK_clean_linker_0, # of connection points: 2
#     Edge 95, Type (0, 0), BuildingBlock: EZIPEK_clean_linker_0, # of connection points: 2
# Relax obj value: 0.090
# Max RMSD: 0.141
# Mean RMSD: 0.136
data_MOF--net-mer--node1-KUFVIS_clean_sbu_0--edge1-EZIPEK_clean_linker_0
_symmetry_space_group_name_H-M    P1
_symmetry_Int_Tables_number       1
_symmetry_cell_setting            triclinic
loop_
_symmetry_equiv_pos_as_xyz
'x, y, z'
_cell_length_a     47.017852
_cell_length_b     46.550489
_cell_length_c     37.868819
_cell_angle_alpha  89.999228
_cell_angle_beta   90.020331
_cell_angle_gamma 89.966773
loop_
_atom_site_label
_atom_site_type_symbol
_atom_site_fract_x
_atom_site_fract_y
_atom_site_fract_z
_atom_type_partial_charge
Mn0 Mn 0.11173 0.28524 0.37427 0.0
Mn1 Mn 0.17489 0.31961 0.37981 0.0
C2 C 0.13212 0.29347 0.42999 0.0
C3 C 0.06197 0.28625 0.36996 0.0
C4 C 0.17031 0.25605 0.36365 0.0
O5 O 0.11584 0.30276 0.32487 0.0
O6 O 0.15859 0.32347 0.33189 0.0
C7 C 0.15168 0.37846 0.37118 0.0
N8 N 0.16621 0.35877 0.39071 0.0
C9 C 0.17052 0.3919 0.43909 0.0
C10 C 0.15545 0.41248 0.41959 0.0
C11 C 0.14613 0.40577 0.38535 0.0
C12 C 0.17571 0.3652 0.42331 0.0
H13 H 0.14438 0.37339 0.34506 0.0
C14 C 0.13679 0.31736 0.31335 0.0
O15 O 0.0766 0.26436 0.35897 0.0
O16 O 0.07611 0.30768 0.38301 0.0
N17 N 0.19344 0.31849 0.42417 0.0
C18 C 0.2098 0.29712 0.43796 0.0
C19 C 0.22075 0.3003 0.47207 0.0
C20 C 0.21501 0.32559 0.49083 0.0
C21 C 0.20052 0.34831 0.47486 0.0
C22 C 0.19033 0.34395 0.44084 0.0
H23 H 0.21352 0.27742 0.42362 0.0
O24 O 0.11268 0.27408 0.42546 0.0
O25 O 0.1386 0.30824 0.40169 0.0
O26 O 0.14307 0.25538 0.36254 0.0
O27 O 0.18454 0.27896 0.36991 0.0
C28 C 0.19497 0.37468 0.49171 0.0
C29 C 0.18016 0.39659 0.47379 0.0
H30 H 0.1509 0.43345 0.43064 0.0
H31 H 0.13453 0.42151 0.37001 0.0
H32 H 0.2325 0.28298 0.48437 0.0
H33 H 0.22106 0.32708 0.5177 0.0
H34 H 0.20178 0.37828 0.51845 0.0
H35 H 0.17612 0.41681 0.48702 0.0
Mn36 Mn 0.72619 0.12786 0.34248 0.0
Mn37 Mn 0.79448 0.1132 0.36323 0.0
C38 C 0.75946 0.16489 0.34195 0.0
C39 C 0.68974 0.13297 0.30121 0.0
C40 C 0.74704 0.11682 0.418 0.0
O41 O 0.72781 0.08399 0.33968 0.0
O42 O 0.77497 0.07726 0.34721 0.0
C43 C 0.81754 0.09735 0.29322 0.0
N44 N 0.81865 0.11395 0.32278 0.0
C45 C 0.86201 0.13645 0.30352 0.0
C46 C 0.8614 0.11955 0.27287 0.0
C47 C 0.83899 0.10003 0.26762 0.0
C48 C 0.83999 0.13295 0.32799 0.0
H49 H 0.80047 0.08216 0.28933 0.0
C50 C 0.74973 0.06778 0.34128 0.0
O51 O 0.68414 0.12873 0.33435 0.0
O52 O 0.71619 0.13175 0.29168 0.0
N53 N 0.81584 0.14563 0.37926 0.0
C54 C 0.81198 0.16185 0.40884 0.0
C55 C 0.83158 0.18363 0.41691 0.0
C56 C 0.85522 0.18812 0.3949 0.0
C57 C 0.85893 0.17088 0.36486 0.0
C58 C 0.8385 0.14974 0.35793 0.0
H59 H 0.79396 0.15836 0.42598 0.0
O60 O 0.73241 0.16983 0.3436 0.0
O61 O 0.76658 0.13783 0.33938 0.0
O62 O 0.72751 0.12544 0.39704 0.0
O63 O 0.77218 0.11216 0.40706 0.0
C64 C 0.88178 0.17418 0.34114 0.0
C65 C 0.88334 0.15696 0.31051 0.0
H66 H 0.8779 0.12154 0.25306 0.0
H67 H 0.83834 0.08698 0.24398 0.0
H68 H 0.82854 0.19681 0.44013 0.0
H69 H 0.87027 0.20498 0.40119 0.0
H70 H 0.89796 0.1903 0.34583 0.0
H71 H 0.90072 0.16007 0.29214 0.0
Mn72 Mn 0.89841 0.71063 0.38017 0.0
Mn73 Mn 0.83475 0.67772 0.38779 0.0
C74 C 0.87737 0.70637 0.43592 0.0
C75 C 0.9482 0.70845 0.3764 0.0
C76 C 0.83995 0.74023 0.36757 0.0
O77 O 0.89459 0.69083 0.33243 0.0
O78 O 0.85038 0.67368 0.33943 0.0
C79 C 0.85818 0.61892 0.37918 0.0
N80 N 0.84386 0.63863 0.39893 0.0
C81 C 0.83948 0.60517 0.44703 0.0
C82 C 0.85442 0.58465 0.4273 0.0
C83 C 0.86372 0.59154 0.39312 0.0
C84 C 0.83458 0.6321 0.43161 0.0
H85 H 0.86525 0.624 0.35299 0.0
C86 C 0.87267 0.67788 0.32096 0.0
O87 O 0.934 0.73 0.36359 0.0
O88 O 0.93356 0.68809 0.39109 0.0
N89 N 0.81653 0.67868 0.43259 0.0
C90 C 0.79944 0.69953 0.44621 0.0
C91 C 0.7881 0.6959 0.48013 0.0
C92 C 0.79369 0.67041 0.49867 0.0
C93 C 0.80899 0.64825 0.48287 0.0
C94 C 0.8199 0.65319 0.44924 0.0
H95 H 0.79529 0.71908 0.43173 0.0
O96 O 0.89729 0.72496 0.42998 0.0
O97 O 0.87102 0.6897 0.40917 0.0
O98 O 0.8672 0.73987 0.36526 0.0
O99 O 0.82519 0.7184 0.37731 0.0
C100 C 0.814 0.62157 0.49933 0.0
C101 C 0.82925 0.6 0.48138 0.0
H102 H 0.85875 0.56353 0.43806 0.0
H103 H 0.87514 0.57581 0.37757 0.0
H104 H 0.77562 0.71281 0.49214 0.0
H105 H 0.78639 0.66775 0.52503 0.0
H106 H 0.80607 0.61737 0.52565 0.0
H107 H 0.83286 0.57949 0.49414 0.0
Mn108 Mn 0.28884 0.87684 0.34497 0.0
Mn109 Mn 0.22195 0.90293 0.35181 0.0
C110 C 0.2505 0.84553 0.34387 0.0
C111 C 0.32729 0.86409 0.3091 0.0
C112 C 0.25999 0.89335 0.41584 0.0
O113 O 0.29526 0.92014 0.33832 0.0
O114 O 0.2498 0.93406 0.34364 0.0
C115 C 0.21951 0.91975 0.2765 0.0
N116 N 0.20831 0.90499 0.30427 0.0
C117 C 0.17159 0.88497 0.26748 0.0
C118 C 0.1826 0.90014 0.23857 0.0
C119 C 0.20671 0.91755 0.2431 0.0
C120 C 0.18544 0.88778 0.30005 0.0
H121 H 0.23818 0.93297 0.27972 0.0
C122 C 0.27616 0.93961 0.33936 0.0
O123 O 0.33089 0.869 0.3426 0.0
O124 O 0.30207 0.86809 0.2964 0.0
N125 N 0.19138 0.87643 0.35944 0.0
C126 C 0.18128 0.86626 0.39073 0.0
C127 C 0.15611 0.85004 0.39139 0.0
C128 C 0.14142 0.84454 0.35985 0.0
C129 C 0.15132 0.85648 0.32821 0.0
C130 C 0.17612 0.87314 0.32941 0.0
H131 H 0.19266 0.86997 0.41488 0.0
O132 O 0.27596 0.83618 0.34972 0.0
O133 O 0.24828 0.87286 0.33693 0.0
O134 O 0.28143 0.88399 0.39814 0.0
O135 O 0.23616 0.89987 0.40121 0.0
C136 C 0.13712 0.85318 0.2957 0.0
C137 C 0.1474 0.86722 0.26528 0.0
H138 H 0.17272 0.89857 0.2128 0.0
H139 H 0.21543 0.92922 0.22088 0.0
H140 H 0.14825 0.84152 0.41611 0.0
H141 H 0.12225 0.83165 0.36037 0.0
H142 H 0.11811 0.84012 0.29389 0.0
H143 H 0.13628 0.86457 0.24043 0.0
Mn144 Mn 0.10434 0.71077 0.62646 0.0
Mn145 Mn 0.16836 0.67816 0.61943 0.0
C146 C 0.12431 0.70406 0.5705 0.0
C147 C 0.0548 0.70746 0.63109 0.0
C148 C 0.16176 0.74118 0.63905 0.0
O149 O 0.10986 0.69301 0.67538 0.0
O150 O 0.15138 0.67022 0.66612 0.0
C151 C 0.14716 0.61819 0.61998 0.0
N152 N 0.16174 0.6397 0.60374 0.0
C153 C 0.16956 0.61043 0.55234 0.0
C154 C 0.15469 0.58792 0.56854 0.0
C155 C 0.14351 0.5918 0.6026 0.0
C156 C 0.17278 0.6361 0.57118 0.0
H157 H 0.13829 0.6212 0.64588 0.0
C158 C 0.13015 0.67679 0.68545 0.0
O159 O 0.06848 0.72992 0.64222 0.0
O160 O 0.06986 0.68663 0.61813 0.0
N161 N 0.18778 0.68355 0.57614 0.0
C162 C 0.20365 0.70653 0.56582 0.0
C163 C 0.21636 0.70625 0.53248 0.0
C164 C 0.21279 0.68219 0.51075 0.0
C165 C 0.19863 0.6578 0.52317 0.0
C166 C 0.18679 0.65923 0.55678 0.0
H167 H 0.20589 0.72527 0.58239 0.0
O168 O 0.10401 0.72245 0.57553 0.0
O169 O 0.1318 0.68933 0.59838 0.0
O170 O 0.13452 0.74183 0.63809 0.0
O171 O 0.17616 0.71819 0.63389 0.0
C172 C 0.1952 0.63245 0.50336 0.0
C173 C 0.1808 0.60869 0.51795 0.0
H174 H 0.15159 0.56765 0.55502 0.0
H175 H 0.13192 0.57458 0.6153 0.0
H176 H 0.22788 0.72485 0.52303 0.0
H177 H 0.22032 0.68307 0.48438 0.0
H178 H 0.20338 0.63103 0.4769 0.0
H179 H 0.17835 0.5893 0.50242 0.0
Mn180 Mn 0.28566 0.12283 0.65418 0.0
Mn181 Mn 0.21924 0.10976 0.62592 0.0
C182 C 0.25283 0.15989 0.64906 0.0
C183 C 0.32107 0.13205 0.6957 0.0
C184 C 0.26801 0.11471 0.5764 0.0
O185 O 0.28311 0.08002 0.66375 0.0
O186 O 0.24156 0.07345 0.63499 0.0
C187 C 0.19802 0.08321 0.69205 0.0
N188 N 0.19552 0.10341 0.66622 0.0
C189 C 0.15181 0.12107 0.69127 0.0
C190 C 0.15399 0.10048 0.71816 0.0
C191 C 0.17725 0.08154 0.7186 0.0
C192 C 0.17329 0.12187 0.66568 0.0
H193 H 0.21562 0.06839 0.69235 0.0
C194 C 0.26391 0.06382 0.65069 0.0
O195 O 0.32747 0.12407 0.66388 0.0
O196 O 0.29435 0.13238 0.7042 0.0
N197 N 0.19502 0.14192 0.61632 0.0
C198 C 0.19636 0.16101 0.58904 0.0
C199 C 0.17503 0.18191 0.58539 0.0
C200 C 0.15216 0.18254 0.60921 0.0
C201 C 0.15085 0.16223 0.63651 0.0
C202 C 0.17292 0.1421 0.63911 0.0
H203 H 0.21373 0.16049 0.5704 0.0
O204 O 0.27988 0.16427 0.64581 0.0
O205 O 0.24516 0.1333 0.65413 0.0
O206 O 0.28665 0.11379 0.60081 0.0
O207 O 0.24161 0.11728 0.58306 0.0
C208 C 0.12867 0.16137 0.66149 0.0
C209 C 0.12923 0.1409 0.68896 0.0
H210 H 0.13797 0.09905 0.73863 0.0
H211 H 0.17908 0.06557 0.73925 0.0
H212 H 0.17612 0.19739 0.56414 0.0
H213 H 0.13575 0.19871 0.6063 0.0
H214 H 0.11133 0.17665 0.66017 0.0
H215 H 0.11227 0.14071 0.70831 0.0
Mn216 Mn 0.90248 0.28508 0.62833 0.0
Mn217 Mn 0.8398 0.32036 0.62388 0.0
C218 C 0.88172 0.29373 0.57279 0.0
C219 C 0.95224 0.28563 0.63224 0.0
C220 C 0.84372 0.25681 0.64032 0.0
O221 O 0.899 0.30238 0.67794 0.0
O222 O 0.85662 0.32403 0.67161 0.0
C223 C 0.86392 0.37883 0.63199 0.0
N224 N 0.84892 0.35934 0.61272 0.0
C225 C 0.84492 0.39232 0.56416 0.0
C226 C 0.86045 0.4127 0.58339 0.0
C227 C 0.86985 0.40597 0.6176 0.0
C228 C 0.83933 0.3658 0.58017 0.0
H229 H 0.87132 0.37371 0.65807 0.0
C230 C 0.87842 0.31732 0.68987 0.0
O231 O 0.93751 0.26375 0.64302 0.0
O232 O 0.93819 0.30722 0.61939 0.0
N233 N 0.82083 0.31941 0.57976 0.0
C234 C 0.80412 0.29824 0.5662 0.0
C235 C 0.79303 0.30147 0.53215 0.0
C236 C 0.79904 0.32659 0.51316 0.0
C237 C 0.81402 0.34911 0.52889 0.0
C238 C 0.82426 0.34474 0.5629 0.0
H239 H 0.80021 0.27866 0.58069 0.0
O240 O 0.90096 0.27408 0.57704 0.0
O241 O 0.87565 0.30845 0.60131 0.0
O242 O 0.87096 0.25564 0.64052 0.0
O243 O 0.82971 0.27991 0.63422 0.0
C244 C 0.82001 0.37528 0.51182 0.0
C245 C 0.83525 0.397 0.52948 0.0
H246 H 0.86532 0.43352 0.57215 0.0
H247 H 0.88182 0.42155 0.63272 0.0
H248 H 0.78095 0.28429 0.52007 0.0
H249 H 0.79277 0.32809 0.48632 0.0
H250 H 0.81329 0.37883 0.48509 0.0
H251 H 0.83962 0.41706 0.51604 0.0
Mn252 Mn 0.71427 0.88166 0.65417 0.0
Mn253 Mn 0.77884 0.91286 0.64424 0.0
C254 C 0.75488 0.85354 0.65854 0.0
C255 C 0.67685 0.86795 0.69127 0.0
C256 C 0.74163 0.89564 0.58135 0.0
O257 O 0.70469 0.92473 0.6573 0.0
O258 O 0.74874 0.94233 0.64995 0.0
C259 C 0.78004 0.93427 0.71789 0.0
N260 N 0.79183 0.91805 0.69176 0.0
C261 C 0.82708 0.8993 0.73172 0.0
C262 C 0.81527 0.91579 0.75901 0.0
C263 C 0.79166 0.93337 0.75203 0.0
C264 C 0.8143 0.90076 0.69835 0.0
H265 H 0.76181 0.94769 0.71281 0.0
C266 C 0.72212 0.94567 0.65489 0.0
O267 O 0.67299 0.87066 0.65744 0.0
O268 O 0.70156 0.87496 0.70356 0.0
N269 N 0.81135 0.88842 0.63899 0.0
C270 C 0.82515 0.88174 0.6085 0.0
C271 C 0.85062 0.86601 0.60976 0.0
C272 C 0.86271 0.85902 0.64255 0.0
C273 C 0.85029 0.86977 0.67348 0.0
C274 C 0.82492 0.88537 0.67028 0.0
H275 H 0.81771 0.89001 0.58366 0.0
O276 O 0.73019 0.84197 0.65376 0.0
O277 O 0.75501 0.88145 0.66203 0.0
O278 O 0.72118 0.88552 0.6002 0.0
O279 O 0.76478 0.90596 0.59481 0.0
C280 C 0.86304 0.86722 0.707 0.0
C281 C 0.85127 0.88179 0.73621 0.0
H282 H 0.8243 0.91529 0.78532 0.0
H283 H 0.78241 0.94618 0.77293 0.0
H284 H 0.86127 0.85995 0.58554 0.0
H285 H 0.88245 0.84705 0.64351 0.0
H286 H 0.88238 0.85487 0.71038 0.0
H287 H 0.86151 0.8801 0.76175 0.0
Mn288 Mn 0.88294 0.72222 0.63608 0.0
Mn289 Mn 0.81396 0.70124 0.63884 0.0
C290 C 0.85855 0.71731 0.58251 0.0
C291 C 0.93171 0.71237 0.63602 0.0
C292 C 0.83411 0.76166 0.65742 0.0
O293 O 0.87863 0.70584 0.68573 0.0
O294 O 0.83449 0.6876 0.68162 0.0
C295 C 0.82064 0.63809 0.63407 0.0
N296 N 0.80834 0.66283 0.62258 0.0
C297 C 0.77325 0.63658 0.58954 0.0
C298 C 0.78564 0.61077 0.60089 0.0
C299 C 0.80971 0.61155 0.62286 0.0
C300 C 0.78603 0.66234 0.60016 0.0
H301 H 0.83845 0.63874 0.65179 0.0
C302 C 0.85788 0.69146 0.69814 0.0
O303 O 0.9217 0.73645 0.64782 0.0
O304 O 0.91344 0.6935 0.62483 0.0
N305 N 0.78955 0.71218 0.60058 0.0
C306 C 0.77932 0.73887 0.59296 0.0
C307 C 0.75552 0.74198 0.57091 0.0
C308 C 0.74109 0.71755 0.55881 0.0
C309 C 0.75085 0.69025 0.56855 0.0
C310 C 0.77564 0.68852 0.58912 0.0
H311 H 0.78878 0.7577 0.6043 0.0
O312 O 0.88109 0.73315 0.58568 0.0
O313 O 0.85026 0.70427 0.61146 0.0
O314 O 0.86014 0.7582 0.64943 0.0
O315 O 0.81587 0.74144 0.65597 0.0
C316 C 0.73702 0.66461 0.55859 0.0
C317 C 0.74845 0.63778 0.56867 0.0
H318 H 0.77678 0.59026 0.59304 0.0
H319 H 0.81939 0.59174 0.63182 0.0
H320 H 0.74771 0.76317 0.56435 0.0
H321 H 0.72231 0.72 0.54251 0.0
H322 H 0.71789 0.66528 0.54265 0.0
H323 H 0.73793 0.61822 0.56036 0.0
Mn324 Mn 0.27328 0.89048 0.62864 0.0
Mn325 Mn 0.30382 0.83186 0.5924 0.0
C326 C 0.26973 0.88241 0.56836 0.0
C327 C 0.2748 0.93937 0.6439 0.0
C328 C 0.24694 0.82952 0.62967 0.0
O329 O 0.30059 0.8781 0.66758 0.0
O330 O 0.31784 0.83796 0.642 0.0
C331 C 0.36235 0.85523 0.58872 0.0
N332 N 0.33911 0.84407 0.57224 0.0
C333 C 0.36156 0.84839 0.51535 0.0
C334 C 0.38566 0.86009 0.53174 0.0
C335 C 0.38605 0.86349 0.56859 0.0
C336 C 0.33853 0.84068 0.53678 0.0
H337 H 0.3628 0.85776 0.61698 0.0
C338 C 0.31635 0.85577 0.66785 0.0
O339 O 0.25653 0.92205 0.6584 0.0
O340 O 0.29324 0.92793 0.62277 0.0
N341 N 0.29267 0.82327 0.54498 0.0
C342 C 0.26854 0.80997 0.53357 0.0
C343 C 0.26525 0.80382 0.49754 0.0
C344 C 0.28686 0.81125 0.47361 0.0
C345 C 0.3118 0.82423 0.48608 0.0
C346 C 0.31408 0.82935 0.52241 0.0
H347 H 0.25195 0.80398 0.55185 0.0
O348 O 0.25154 0.8985 0.5847 0.0
O349 O 0.28964 0.87118 0.58798 0.0
O350 O 0.24698 0.85581 0.63993 0.0
O351 O 0.26692 0.81844 0.61122 0.0
C352 C 0.33465 0.83193 0.46398 0.0
C353 C 0.35947 0.84413 0.47859 0.0
H354 H 0.40399 0.86647 0.51631 0.0
H355 H 0.4046 0.87243 0.58147 0.0
H356 H 0.2462 0.79314 0.48837 0.0
H357 H 0.28435 0.80638 0.44582 0.0
H358 H 0.3334 0.82848 0.43573 0.0
H359 H 0.3769 0.84999 0.46134 0.0
Mn360 Mn 0.12578 0.28834 0.63378 0.0
Mn361 Mn 0.18671 0.32678 0.63179 0.0
C362 C 0.1466 0.2968 0.5787 0.0
C363 C 0.07595 0.28725 0.63577 0.0
C364 C 0.18439 0.26333 0.65212 0.0
O365 O 0.12777 0.30559 0.68323 0.0
O366 O 0.1661 0.3336 0.67678 0.0
C367 C 0.16108 0.38484 0.62849 0.0
N368 N 0.18045 0.36534 0.61687 0.0
C369 C 0.20765 0.4019 0.58761 0.0
C370 C 0.18801 0.42255 0.59921 0.0
C371 C 0.16431 0.41389 0.61923 0.0
C372 C 0.20218 0.37313 0.59578 0.0
H373 H 0.14352 0.37813 0.64471 0.0
C374 C 0.1455 0.32384 0.69503 0.0
O375 O 0.09112 0.26598 0.64752 0.0
O376 O 0.08961 0.30934 0.62366 0.0
N377 N 0.21187 0.32421 0.59228 0.0
C378 C 0.22871 0.30158 0.5833 0.0
C379 C 0.25502 0.30648 0.56672 0.0
C380 C 0.26363 0.33472 0.559 0.0
C381 C 0.24539 0.3577 0.56703 0.0
C382 C 0.21966 0.35142 0.58407 0.0
H383 H 0.22245 0.28002 0.58976 0.0
O384 O 0.12816 0.27659 0.58386 0.0
O385 O 0.15217 0.31297 0.60635 0.0
O386 O 0.15778 0.25959 0.64669 0.0
O387 O 0.19636 0.28758 0.64744 0.0
C388 C 0.2519 0.38662 0.55938 0.0
C389 C 0.23277 0.40867 0.56908 0.0
H390 H 0.19102 0.44508 0.59314 0.0
H391 H 0.14905 0.42965 0.6283 0.0
H392 H 0.26868 0.28854 0.56009 0.0
H393 H 0.28389 0.33844 0.5462 0.0
H394 H 0.27146 0.39212 0.54589 0.0
H395 H 0.23782 0.43077 0.56271 0.0
Mn396 Mn 0.72356 0.116 0.6308 0.0
Mn397 Mn 0.70575 0.17879 0.59225 0.0
C398 C 0.73119 0.12232 0.57057 0.0
C399 C 0.71143 0.0687 0.64644 0.0
C400 C 0.75864 0.17095 0.6377 0.0
O401 O 0.69825 0.13558 0.66763 0.0
O402 O 0.68273 0.17356 0.63589 0.0
C403 C 0.64652 0.16546 0.57147 0.0
N404 N 0.67339 0.1735 0.56246 0.0
C405 C 0.66075 0.17645 0.50101 0.0
C406 C 0.63288 0.16836 0.50962 0.0
C407 C 0.62576 0.16278 0.545 0.0
C408 C 0.68051 0.1788 0.5285 0.0
H409 H 0.64103 0.16098 0.59861 0.0
C410 C 0.68305 0.15825 0.66402 0.0
O411 O 0.73212 0.08219 0.662 0.0
O412 O 0.6962 0.08353 0.62451 0.0
N413 N 0.72631 0.18633 0.54981 0.0
C414 C 0.75419 0.19372 0.54604 0.0
C415 C 0.765 0.19931 0.51228 0.0
C416 C 0.74694 0.1977 0.48289 0.0
C417 C 0.71806 0.19102 0.48747 0.0
C418 C 0.70851 0.18572 0.52183 0.0
H419 H 0.76822 0.19508 0.56851 0.0
O420 O 0.74462 0.1026 0.58803 0.0
O421 O 0.7135 0.13771 0.589 0.0
O422 O 0.75613 0.14395 0.64308 0.0
O423 O 0.74002 0.18596 0.62137 0.0
C424 C 0.69841 0.18919 0.45944 0.0
C425 C 0.66981 0.18187 0.46619 0.0
H426 H 0.61683 0.16616 0.48927 0.0
H427 H 0.60433 0.15637 0.55183 0.0
H428 H 0.78722 0.20472 0.50889 0.0
H429 H 0.7557 0.20169 0.45714 0.0
H430 H 0.70494 0.19324 0.43256 0.0
H431 H 0.65501 0.18024 0.44436 0.0
Mn432 Mn 0.8883 0.29066 0.36819 0.0
Mn433 Mn 0.82804 0.33003 0.37107 0.0
C434 C 0.86741 0.29842 0.42357 0.0
C435 C 0.9382 0.2889 0.36644 0.0
C436 C 0.82928 0.26722 0.34835 0.0
O437 O 0.88688 0.30904 0.31933 0.0
O438 O 0.84861 0.33698 0.32608 0.0
C439 C 0.85487 0.38741 0.37587 0.0
N440 N 0.83509 0.36816 0.38697 0.0
C441 C 0.80865 0.40474 0.41725 0.0
C442 C 0.82869 0.42517 0.40615 0.0
C443 C 0.85222 0.41635 0.3859 0.0
C444 C 0.81355 0.37602 0.40834 0.0
H445 H 0.87234 0.38057 0.3595 0.0
C446 C 0.86906 0.32721 0.30754 0.0
O447 O 0.92278 0.26806 0.35409 0.0
O448 O 0.92473 0.31087 0.37923 0.0
N449 N 0.80287 0.32726 0.41051 0.0
C450 C 0.78546 0.30485 0.41863 0.0
C451 C 0.75927 0.31003 0.43538 0.0
C452 C 0.75133 0.33829 0.44406 0.0
C453 C 0.77007 0.361 0.43676 0.0
C454 C 0.79567 0.35446 0.41956 0.0
H455 H 0.79112 0.28329 0.41121 0.0
O456 O 0.8854 0.27788 0.41781 0.0
O457 O 0.86224 0.31515 0.39629 0.0
O458 O 0.85583 0.26279 0.35365 0.0
O459 O 0.8177 0.29144 0.35435 0.0
C460 C 0.76411 0.38992 0.44511 0.0
C461 C 0.78366 0.41173 0.43596 0.0
H462 H 0.82613 0.44765 0.41281 0.0
H463 H 0.8678 0.43194 0.37724 0.0
H464 H 0.74518 0.2923 0.44132 0.0
H465 H 0.73113 0.34223 0.45693 0.0
H466 H 0.74464 0.3956 0.45871 0.0
H467 H 0.77904 0.43382 0.44288 0.0
Mn468 Mn 0.73652 0.89608 0.36459 0.0
Mn469 Mn 0.70386 0.84074 0.40599 0.0
C470 C 0.73861 0.89282 0.42624 0.0
C471 C 0.73594 0.94339 0.34267 0.0
C472 C 0.76056 0.83447 0.36796 0.0
O473 O 0.71064 0.87941 0.32599 0.0
O474 O 0.68725 0.84608 0.35795 0.0
C475 C 0.64712 0.86763 0.41339 0.0
N476 N 0.67016 0.8547 0.42833 0.0
C477 C 0.64898 0.85701 0.48608 0.0
C478 C 0.62493 0.87019 0.4713 0.0
C479 C 0.62407 0.87565 0.43482 0.0
C480 C 0.67141 0.84978 0.46346 0.0
H481 H 0.64639 0.87184 0.38536 0.0
C482 C 0.69186 0.85964 0.32906 0.0
O483 O 0.75429 0.92463 0.33147 0.0
O484 O 0.71657 0.93407 0.36412 0.0
N485 N 0.71715 0.83274 0.45275 0.0
C486 C 0.74196 0.82001 0.4629 0.0
C487 C 0.74614 0.81289 0.49856 0.0
C488 C 0.72463 0.8186 0.52331 0.0
C489 C 0.6992 0.83144 0.51224 0.0
C490 C 0.69615 0.83782 0.47632 0.0
H491 H 0.75828 0.81497 0.44389 0.0
O492 O 0.75609 0.90874 0.40868 0.0
O493 O 0.71952 0.87979 0.407 0.0
O494 O 0.76347 0.86098 0.3595 0.0
O495 O 0.73889 0.82461 0.3844 0.0
C496 C 0.67671 0.83805 0.53545 0.0
C497 C 0.65167 0.85098 0.5224 0.0
H498 H 0.60708 0.87633 0.48773 0.0
H499 H 0.60565 0.88594 0.42324 0.0
H500 H 0.76576 0.80278 0.5069 0.0
H501 H 0.72767 0.81278 0.55067 0.0
H502 H 0.67855 0.83353 0.56342 0.0
H503 H 0.63466 0.85629 0.54055 0.0
Mn504 Mn 0.1212 0.71428 0.36844 0.0
Mn505 Mn 0.18907 0.68932 0.37005 0.0
C506 C 0.14384 0.7081 0.42352 0.0
C507 C 0.07171 0.70789 0.3674 0.0
C508 C 0.17397 0.75149 0.35473 0.0
O509 O 0.12555 0.69857 0.31796 0.0
O510 O 0.17014 0.68336 0.32485 0.0
C511 C 0.17197 0.62842 0.3642 0.0
N512 N 0.18826 0.64916 0.3795 0.0
C513 C 0.2176 0.614 0.40808 0.0
C514 C 0.20116 0.59214 0.39281 0.0
C515 C 0.17795 0.59941 0.37117 0.0
C516 C 0.20943 0.64251 0.40198 0.0
H517 H 0.15482 0.63403 0.34651 0.0
C518 C 0.14798 0.6866 0.30624 0.0
O519 O 0.08352 0.73122 0.35591 0.0
O520 O 0.08859 0.68769 0.37844 0.0
N521 N 0.21411 0.69208 0.40981 0.0
C522 C 0.2303 0.71545 0.4183 0.0
C523 C 0.2558 0.71197 0.43712 0.0
C524 C 0.2656 0.6843 0.44537 0.0
C525 C 0.24958 0.66035 0.435 0.0
C526 C 0.22393 0.6652 0.41688 0.0
H527 H 0.22462 0.73666 0.40922 0.0
O528 O 0.12236 0.72511 0.41903 0.0
O529 O 0.15209 0.69414 0.39526 0.0
O530 O 0.14704 0.74855 0.35625 0.0
O531 O 0.19156 0.73105 0.36038 0.0
C532 C 0.25846 0.63186 0.44121 0.0
C533 C 0.24221 0.60868 0.42826 0.0
H534 H 0.20635 0.56975 0.39718 0.0
H535 H 0.16522 0.5827 0.35914 0.0
H536 H 0.26841 0.73057 0.44413 0.0
H537 H 0.28556 0.68169 0.45932 0.0
H538 H 0.27788 0.62754 0.45567 0.0
H539 H 0.24921 0.58688 0.43323 0.0
Mn540 Mn 0.28667 0.11069 0.36414 0.0
Mn541 Mn 0.31238 0.16968 0.40501 0.0
C542 C 0.28413 0.11302 0.42574 0.0
C543 C 0.29054 0.06327 0.34328 0.0
C544 C 0.25545 0.16847 0.36761 0.0
O545 O 0.31227 0.12735 0.32627 0.0
O546 O 0.3275 0.16609 0.35615 0.0
C547 C 0.3734 0.15402 0.40791 0.0
N548 N 0.34935 0.16343 0.42424 0.0
C549 C 0.37552 0.1768 0.47626 0.0
C550 C 0.40062 0.16721 0.46008 0.0
C551 C 0.3995 0.15549 0.42588 0.0
C552 C 0.35009 0.17411 0.45737 0.0
H553 H 0.37269 0.14574 0.38127 0.0
C554 C 0.3268 0.15037 0.32847 0.0
O555 O 0.27137 0.08074 0.33113 0.0
O556 O 0.30858 0.07384 0.36563 0.0
N557 N 0.30083 0.17706 0.45246 0.0
C558 C 0.27443 0.18321 0.46517 0.0
C559 C 0.27162 0.19424 0.49953 0.0
C560 C 0.29605 0.19957 0.51991 0.0
C561 C 0.32295 0.19309 0.50626 0.0
C562 C 0.32437 0.18155 0.47223 0.0
H563 H 0.25579 0.18029 0.44895 0.0
O564 O 0.2661 0.09897 0.40668 0.0
O565 O 0.30288 0.128 0.40774 0.0
O566 O 0.25724 0.14286 0.35602 0.0
O567 O 0.27445 0.18012 0.38676 0.0
C568 C 0.34843 0.19733 0.52522 0.0
C569 C 0.37468 0.18889 0.51037 0.0
H570 H 0.42084 0.16866 0.47368 0.0
H571 H 0.41878 0.14807 0.41321 0.0
H572 H 0.25077 0.19927 0.50997 0.0
H573 H 0.29407 0.2087 0.54599 0.0
H574 H 0.34799 0.20634 0.55159 0.0
H575 H 0.39405 0.19158 0.52551 0.0
Mn576 Mn 0.60784 0.78354 0.87286 0.0
Mn577 Mn 0.66942 0.8205 0.87884 0.0
C578 C 0.62749 0.79245 0.92919 0.0
C579 C 0.55796 0.78322 0.86716 0.0
C580 C 0.66771 0.75684 0.86226 0.0
O581 O 0.61174 0.80099 0.82336 0.0
O582 O 0.65327 0.82395 0.83069 0.0
C583 C 0.64384 0.87836 0.87045 0.0
N584 N 0.65911 0.85921 0.88993 0.0
C585 C 0.66178 0.89218 0.93864 0.0
C586 C 0.64599 0.91223 0.91918 0.0
C587 C 0.63712 0.90534 0.88481 0.0
C588 C 0.66823 0.86585 0.92263 0.0
H589 H 0.63681 0.87311 0.84423 0.0
C590 C 0.63197 0.81662 0.8119 0.0
O591 O 0.57341 0.76168 0.85682 0.0
O592 O 0.57137 0.8049 0.88075 0.0
N593 N 0.68777 0.81988 0.92327 0.0
C594 C 0.70448 0.79888 0.93726 0.0
C595 C 0.71453 0.80203 0.97177 0.0
C596 C 0.70749 0.82688 0.99069 0.0
C597 C 0.69291 0.84943 0.97449 0.0
C598 C 0.68353 0.84508 0.94013 0.0
H599 H 0.70901 0.7794 0.92283 0.0
O600 O 0.6087 0.77248 0.92423 0.0
O601 O 0.63366 0.80743 0.90085 0.0
O602 O 0.64048 0.75485 0.86146 0.0
O603 O 0.6808 0.78042 0.8686 0.0
C604 C 0.68614 0.87543 0.99156 0.0
C605 C 0.67083 0.89695 0.97357 0.0
H606 H 0.64047 0.9329 0.93041 0.0
H607 H 0.62493 0.92066 0.86953 0.0
H608 H 0.72633 0.78486 0.98431 0.0
H609 H 0.71219 0.82793 0.01796 0.0
H610 H 0.69228 0.87896 0.01856 0.0
H611 H 0.66581 0.91686 0.98699 0.0
Mn612 Mn 0.21973 0.62376 0.84309 0.0
Mn613 Mn 0.28762 0.6051 0.86307 0.0
C614 C 0.25465 0.65886 0.84306 0.0
C615 C 0.18229 0.63027 0.80381 0.0
C616 C 0.24358 0.61816 0.91907 0.0
O617 O 0.218 0.58005 0.84058 0.0
O618 O 0.26275 0.57067 0.85761 0.0
C619 C 0.29811 0.57876 0.79304 0.0
N620 N 0.30567 0.59791 0.81861 0.0
C621 C 0.34588 0.61376 0.78451 0.0
C622 C 0.3386 0.59412 0.75796 0.0
C623 C 0.31453 0.57663 0.7622 0.0
C624 C 0.32847 0.61519 0.81448 0.0
H625 H 0.2797 0.5652 0.79607 0.0
C626 C 0.23779 0.56257 0.84862 0.0
O627 O 0.17766 0.62667 0.83727 0.0
O628 O 0.20832 0.62789 0.7928 0.0
N629 N 0.31572 0.63464 0.86887 0.0
C630 C 0.3223 0.64957 0.89866 0.0
C631 C 0.34562 0.66839 0.89882 0.0
C632 C 0.36339 0.67001 0.86916 0.0
C633 C 0.35806 0.65217 0.84011 0.0
C634 C 0.33397 0.63444 0.84122 0.0
H635 H 0.31094 0.64585 0.92266 0.0
O636 O 0.22787 0.66515 0.84382 0.0
O637 O 0.26072 0.63148 0.83942 0.0
O638 O 0.22302 0.62195 0.89734 0.0
O639 O 0.26934 0.61304 0.90949 0.0
C640 C 0.37603 0.65089 0.81039 0.0
C641 C 0.36979 0.6319 0.78245 0.0
H642 H 0.35132 0.59229 0.73422 0.0
H643 H 0.3087 0.56146 0.74179 0.0
H644 H 0.35047 0.68082 0.92221 0.0
H645 H 0.38162 0.68422 0.86949 0.0
H646 H 0.39469 0.66446 0.80874 0.0
H647 H 0.38367 0.63122 0.75964 0.0
Mn648 Mn 0.39439 0.21559 0.87345 0.0
Mn649 Mn 0.33447 0.17624 0.8816 0.0
C650 C 0.37591 0.20671 0.92985 0.0
C651 C 0.44376 0.21821 0.86704 0.0
C652 C 0.33344 0.23981 0.86455 0.0
O653 O 0.39075 0.19741 0.82464 0.0
O654 O 0.34963 0.17396 0.83304 0.0
C655 C 0.36236 0.11961 0.87144 0.0
N656 N 0.34684 0.13792 0.8918 0.0
C657 C 0.34668 0.10426 0.93997 0.0
C658 C 0.36282 0.08513 0.91959 0.0
C659 C 0.37057 0.0928 0.88506 0.0
C660 C 0.33887 0.13053 0.92471 0.0
H661 H 0.36842 0.12539 0.84506 0.0
C662 C 0.3706 0.18146 0.81386 0.0
O663 O 0.42735 0.23901 0.8567 0.0
O664 O 0.43164 0.19593 0.88101 0.0
N665 N 0.31719 0.17548 0.92671 0.0
C666 C 0.29936 0.19518 0.94134 0.0
C667 C 0.29017 0.19113 0.97607 0.0
C668 C 0.29882 0.16645 0.99432 0.0
C669 C 0.31434 0.14499 0.97745 0.0
C670 C 0.32305 0.15035 0.94303 0.0
H671 H 0.29329 0.21438 0.9272 0.0
O672 O 0.39367 0.22749 0.92427 0.0
O673 O 0.37011 0.19085 0.90217 0.0
O674 O 0.3605 0.24252 0.8621 0.0
O675 O 0.32118 0.21601 0.8723 0.0
C676 C 0.32232 0.11901 0.99381 0.0
C677 C 0.33836 0.09853 0.97498 0.0
H678 H 0.36939 0.06455 0.93019 0.0
H679 H 0.38297 0.07817 0.86904 0.0
H680 H 0.27752 0.20739 0.98914 0.0
H681 H 0.2944 0.16443 0.02148 0.0
H682 H 0.31633 0.11462 0.02081 0.0
H683 H 0.34432 0.07859 0.98772 0.0
Mn684 Mn 0.7924 0.37761 0.8469 0.0
Mn685 Mn 0.72587 0.40349 0.85931 0.0
C686 C 0.75422 0.34625 0.84568 0.0
C687 C 0.82998 0.36623 0.80906 0.0
C688 C 0.76803 0.39397 0.91959 0.0
O689 O 0.79751 0.4211 0.84177 0.0
O690 O 0.75182 0.43568 0.84554 0.0
C691 C 0.71334 0.41909 0.78515 0.0
N692 N 0.7066 0.40408 0.81482 0.0
C693 C 0.66601 0.38278 0.78626 0.0
C694 C 0.67256 0.39803 0.7554 0.0
C695 C 0.69634 0.41626 0.75485 0.0
C696 C 0.68379 0.38643 0.8156 0.0
H697 H 0.73153 0.4331 0.78465 0.0
C698 C 0.77841 0.44067 0.84126 0.0
O699 O 0.83432 0.37043 0.84253 0.0
O700 O 0.80444 0.37044 0.79733 0.0
N701 N 0.69801 0.37549 0.87287 0.0
C702 C 0.69423 0.36265 0.90486 0.0
C703 C 0.67111 0.34403 0.91002 0.0
C704 C 0.6519 0.33899 0.88234 0.0
C705 C 0.65573 0.35303 0.84994 0.0
C706 C 0.679 0.37162 0.84651 0.0
H707 H 0.70927 0.36576 0.92589 0.0
O708 O 0.77992 0.33688 0.84992 0.0
O709 O 0.7516 0.3739 0.84088 0.0
O710 O 0.78764 0.38254 0.90077 0.0
O711 O 0.74451 0.40252 0.90624 0.0
C712 C 0.63747 0.34915 0.82083 0.0
C713 C 0.64267 0.36392 0.78896 0.0
H714 H 0.65951 0.39588 0.73197 0.0
H715 H 0.70157 0.4281 0.73113 0.0
H716 H 0.66838 0.33324 0.93511 0.0
H717 H 0.63432 0.32429 0.88624 0.0
H718 H 0.61945 0.33472 0.82261 0.0
H719 H 0.6286 0.36061 0.76668 0.0
Mn720 Mn 0.61296 0.21481 0.12305 0.0
Mn721 Mn 0.67583 0.1806 0.11224 0.0
C722 C 0.63136 0.20906 0.06605 0.0
C723 C 0.56342 0.21444 0.12907 0.0
C724 C 0.67188 0.24322 0.13315 0.0
O725 O 0.6183 0.19495 0.17073 0.0
O726 O 0.66098 0.17474 0.16079 0.0
C727 C 0.65381 0.12114 0.11859 0.0
N728 N 0.66697 0.14192 0.0993 0.0
C729 C 0.66889 0.11116 0.04842 0.0
C730 C 0.65502 0.08956 0.06758 0.0
C731 C 0.64767 0.09451 0.10298 0.0
C732 C 0.67492 0.13706 0.06567 0.0
H733 H 0.64816 0.12485 0.14565 0.0
C734 C 0.6396 0.18002 0.18053 0.0
O735 O 0.57867 0.23545 0.14123 0.0
O736 O 0.57687 0.19332 0.11418 0.0
N737 N 0.69274 0.18368 0.06694 0.0
C738 C 0.70827 0.20575 0.05341 0.0
C739 C 0.71677 0.20461 0.01803 0.0
C740 C 0.70978 0.18045 0.99774 0.0
C741 C 0.69663 0.15669 0.01338 0.0
C742 C 0.68866 0.15914 0.04862 0.0
H743 H 0.71298 0.22459 0.06899 0.0
O744 O 0.61247 0.22852 0.0731 0.0
O745 O 0.63875 0.1928 0.09281 0.0
O746 O 0.64473 0.24382 0.13565 0.0
O747 O 0.68588 0.22073 0.12434 0.0
C748 C 0.68981 0.13128 0.99509 0.0
C749 C 0.67635 0.10835 0.01264 0.0
H750 H 0.64991 0.06915 0.05539 0.0
H751 H 0.6371 0.07793 0.11812 0.0
H752 H 0.72757 0.22269 0.00608 0.0
H753 H 0.71385 0.18076 0.97009 0.0
H754 H 0.69412 0.12935 0.9674 0.0
H755 H 0.67135 0.08891 0.99819 0.0
Mn756 Mn 0.78624 0.6271 0.15869 0.0
Mn757 Mn 0.71889 0.60828 0.1367 0.0
C758 C 0.75099 0.66187 0.15891 0.0
C759 C 0.82279 0.63365 0.19929 0.0
C760 C 0.76388 0.62184 0.08183 0.0
O761 O 0.7882 0.58345 0.16107 0.0
O762 O 0.7439 0.57383 0.14238 0.0
C763 C 0.7069 0.58073 0.20567 0.0
N764 N 0.69989 0.60032 0.18037 0.0
C765 C 0.65877 0.6154 0.21338 0.0
C766 C 0.66553 0.59532 0.23966 0.0
C767 C 0.68976 0.57798 0.23583 0.0
C768 C 0.67684 0.61738 0.18406 0.0
H769 H 0.72541 0.56725 0.20295 0.0
C770 C 0.7687 0.56588 0.15235 0.0
O771 O 0.82819 0.63041 0.16594 0.0
O772 O 0.79656 0.631 0.20934 0.0
N773 N 0.69088 0.63797 0.13084 0.0
C774 C 0.68544 0.6542 0.10175 0.0
C775 C 0.66226 0.67321 0.10151 0.0
C776 C 0.64359 0.67392 0.13036 0.0
C777 C 0.64798 0.6551 0.15872 0.0
C778 C 0.67194 0.63716 0.15774 0.0
H779 H 0.69778 0.65157 0.07836 0.0
O780 O 0.77772 0.66833 0.15812 0.0
O781 O 0.74514 0.6344 0.16175 0.0
O782 O 0.78403 0.62556 0.10418 0.0
O783 O 0.73797 0.61679 0.09083 0.0
C784 C 0.62931 0.65322 0.18771 0.0
C785 C 0.63484 0.63355 0.21518 0.0
H786 H 0.65228 0.59306 0.26289 0.0
H787 H 0.69519 0.56247 0.25603 0.0
H788 H 0.6583 0.68662 0.07867 0.0
H789 H 0.62551 0.68835 0.12998 0.0
H790 H 0.61071 0.6669 0.18922 0.0
H791 H 0.62047 0.63246 0.23748 0.0
Mn792 Mn 0.39956 0.78552 0.12697 0.0
Mn793 Mn 0.33895 0.824 0.12164 0.0
C794 C 0.38024 0.79528 0.07088 0.0
C795 C 0.44921 0.78451 0.13261 0.0
C796 C 0.33915 0.75995 0.13595 0.0
O797 O 0.3959 0.80201 0.17691 0.0
O798 O 0.3546 0.82542 0.17012 0.0
C799 C 0.36619 0.88076 0.13314 0.0
N800 N 0.35058 0.8627 0.11254 0.0
C801 C 0.34979 0.89707 0.06515 0.0
C802 C 0.36592 0.91601 0.08581 0.0
C803 C 0.37401 0.90786 0.12008 0.0
C804 C 0.34222 0.87058 0.07993 0.0
H805 H 0.37267 0.87453 0.15926 0.0
C806 C 0.37569 0.81739 0.18882 0.0
O807 O 0.43366 0.76283 0.14226 0.0
O808 O 0.43606 0.80665 0.11979 0.0
N809 N 0.32104 0.82546 0.07707 0.0
C810 C 0.30355 0.80565 0.06207 0.0
C811 C 0.29454 0.80986 0.02734 0.0
C812 C 0.30316 0.83472 0.00948 0.0
C813 C 0.3179 0.85645 0.0269 0.0
C814 C 0.32649 0.85089 0.06129 0.0
H815 H 0.29787 0.78614 0.07579 0.0
O816 O 0.39874 0.77501 0.07557 0.0
O817 O 0.37435 0.8103 0.09934 0.0
O818 O 0.36632 0.75738 0.1375 0.0
O819 O 0.32658 0.78389 0.12974 0.0
C820 C 0.3257 0.88264 0.01095 0.0
C821 C 0.34142 0.90312 0.03021 0.0
H822 H 0.37229 0.93677 0.07559 0.0
H823 H 0.38646 0.92231 0.13626 0.0
H824 H 0.28253 0.79338 0.01381 0.0
H825 H 0.29992 0.8363 0.98204 0.0
H826 H 0.3199 0.88715 0.9839 0.0
H827 H 0.34726 0.92322 0.01778 0.0
Mn828 Mn 0.22431 0.37571 0.15657 0.0
Mn829 Mn 0.29192 0.3965 0.13938 0.0
C830 C 0.2604 0.34192 0.15737 0.0
C831 C 0.18675 0.36691 0.19539 0.0
C832 C 0.24788 0.38705 0.08185 0.0
O833 O 0.22194 0.4195 0.16053 0.0
O834 O 0.26798 0.43064 0.15092 0.0
C835 C 0.30745 0.4164 0.21101 0.0
N836 N 0.31277 0.39942 0.18249 0.0
C837 C 0.35573 0.38127 0.20885 0.0
C838 C 0.3508 0.39866 0.23846 0.0
C839 C 0.32649 0.41622 0.2396 0.0
C840 C 0.33598 0.38231 0.18122 0.0
H841 H 0.28885 0.43 0.21186 0.0
C842 C 0.24219 0.43764 0.15766 0.0
O843 O 0.18219 0.37115 0.162 0.0
O844 O 0.21262 0.37006 0.20662 0.0
N845 N 0.31791 0.36633 0.12751 0.0
C846 C 0.31852 0.3494 0.09816 0.0
C847 C 0.34086 0.32971 0.0936 0.0
C848 C 0.36262 0.32799 0.11893 0.0
C849 C 0.36171 0.34585 0.14874 0.0
C850 C 0.33881 0.36492 0.15197 0.0
H851 H 0.30167 0.35034 0.07891 0.0
O852 O 0.23396 0.33458 0.15445 0.0
O853 O 0.26526 0.36938 0.16147 0.0
O854 O 0.22782 0.37876 0.10229 0.0
O855 O 0.27232 0.39388 0.09359 0.0
C856 C 0.3823 0.34503 0.17577 0.0
C857 C 0.37925 0.36264 0.20587 0.0
H858 H 0.36542 0.39857 0.26057 0.0
H859 H 0.32248 0.42962 0.26241 0.0
H860 H 0.34124 0.31582 0.07069 0.0
H861 H 0.37973 0.31266 0.11543 0.0
H862 H 0.40025 0.3305 0.17402 0.0
H863 H 0.39494 0.36143 0.22677 0.0
Mn864 Mn 0.39006 0.2147 0.13249 0.0
Mn865 Mn 0.32928 0.17599 0.13381 0.0
C866 C 0.36795 0.20457 0.07867 0.0
C867 C 0.43986 0.21582 0.13328 0.0
C868 C 0.33099 0.24011 0.14975 0.0
O869 O 0.38959 0.19919 0.18272 0.0
O870 O 0.34998 0.1729 0.17911 0.0
C871 C 0.35699 0.11885 0.13623 0.0
N872 N 0.33682 0.13676 0.12293 0.0
C873 C 0.31101 0.09744 0.09739 0.0
C874 C 0.33148 0.07837 0.11075 0.0
C875 C 0.35486 0.08919 0.12977 0.0
C876 C 0.31534 0.1268 0.10285 0.0
H877 H 0.37428 0.12725 0.15174 0.0
C878 C 0.37139 0.18229 0.1961 0.0
O879 O 0.4249 0.23759 0.14405 0.0
O880 O 0.426 0.19345 0.12236 0.0
N881 N 0.30412 0.17491 0.09422 0.0
C882 C 0.28685 0.19628 0.08242 0.0
C883 C 0.26038 0.18945 0.06727 0.0
C884 C 0.25233 0.1605 0.06335 0.0
C885 C 0.27137 0.13872 0.07342 0.0
C886 C 0.29703 0.147 0.08927 0.0
H887 H 0.29314 0.21834 0.08529 0.0
O888 O 0.38656 0.22486 0.08214 0.0
O889 O 0.36324 0.18911 0.1071 0.0
O890 O 0.35781 0.24349 0.14522 0.0
O891 O 0.31875 0.21591 0.14546 0.0
C892 C 0.26597 0.10919 0.06846 0.0
C893 C 0.2861 0.08857 0.07975 0.0
H894 H 0.32935 0.05542 0.10684 0.0
H895 H 0.37074 0.07466 0.14024 0.0
H896 H 0.2463 0.20642 0.05853 0.0
H897 H 0.23206 0.15527 0.05138 0.0
H898 H 0.24656 0.10212 0.05576 0.0
H899 H 0.28192 0.06596 0.07543 0.0
Mn900 Mn 0.78236 0.3929 0.13265 0.0
Mn901 Mn 0.81197 0.33381 0.09629 0.0
C902 C 0.77915 0.38508 0.07213 0.0
C903 C 0.78518 0.44189 0.14768 0.0
C904 C 0.75461 0.33312 0.13385 0.0
O905 O 0.80842 0.37864 0.17235 0.0
O906 O 0.82749 0.34055 0.14449 0.0
C907 C 0.87047 0.3569 0.09045 0.0
N908 N 0.84711 0.34503 0.07495 0.0
C909 C 0.86938 0.34629 0.01779 0.0
C910 C 0.89374 0.35831 0.03318 0.0
C911 C 0.89425 0.36371 0.06966 0.0
C912 C 0.84629 0.34004 0.03983 0.0
H913 H 0.87094 0.36127 0.11845 0.0
C914 C 0.82485 0.35669 0.17166 0.0
O915 O 0.76635 0.42512 0.16203 0.0
O916 O 0.80371 0.4298 0.12725 0.0
N917 N 0.79978 0.32474 0.04939 0.0
C918 C 0.77481 0.31271 0.03869 0.0
C919 C 0.77095 0.30587 0.0029 0.0
C920 C 0.79296 0.31106 0.97863 0.0
C921 C 0.81862 0.32292 0.99035 0.0
C922 C 0.82134 0.32906 0.02636 0.0
H923 H 0.75798 0.30833 0.05732 0.0
O924 O 0.76142 0.40174 0.0883 0.0
O925 O 0.7985 0.37325 0.09197 0.0
O926 O 0.75461 0.35959 0.14298 0.0
O927 O 0.7751 0.32118 0.11694 0.0
C928 C 0.84167 0.32875 0.96769 0.0
C929 C 0.867 0.34053 0.98138 0.0
H930 H 0.91212 0.36363 0.01722 0.0
H931 H 0.91291 0.37314 0.08172 0.0
H932 H 0.75115 0.29641 0.99415 0.0
H933 H 0.79025 0.30549 0.95112 0.0
H934 H 0.84009 0.32438 0.93966 0.0
H935 H 0.8845 0.34516 0.96367 0.0
Mn936 Mn 0.62252 0.78972 0.1361 0.0
Mn937 Mn 0.68371 0.82739 0.13058 0.0
C938 C 0.6422 0.79682 0.07962 0.0
C939 C 0.57273 0.78815 0.13949 0.0
C940 C 0.6814 0.76459 0.15311 0.0
O941 O 0.62553 0.80832 0.18511 0.0
O942 O 0.66476 0.83443 0.17646 0.0
C943 C 0.65787 0.88533 0.12784 0.0
N944 N 0.67704 0.86584 0.11569 0.0
C945 C 0.70339 0.90226 0.08507 0.0
C946 C 0.68398 0.92294 0.09723 0.0
C947 C 0.66081 0.91434 0.11823 0.0
C948 C 0.69824 0.87355 0.09378 0.0
H949 H 0.64072 0.87865 0.14479 0.0
C950 C 0.64447 0.82577 0.19596 0.0
O951 O 0.58839 0.76754 0.1519 0.0
O952 O 0.5859 0.81007 0.12608 0.0
N953 N 0.70788 0.82458 0.09025 0.0
C954 C 0.72463 0.80192 0.08103 0.0
C955 C 0.75027 0.80675 0.06286 0.0
C956 C 0.75846 0.83495 0.05421 0.0
C957 C 0.74055 0.85799 0.06312 0.0
C958 C 0.71543 0.85178 0.08155 0.0
H959 H 0.71886 0.78038 0.08847 0.0
O960 O 0.62401 0.7767 0.08636 0.0
O961 O 0.64841 0.81359 0.10658 0.0
O962 O 0.65459 0.76116 0.14942 0.0
O963 O 0.69354 0.78836 0.14619 0.0
C964 C 0.7467 0.88686 0.05476 0.0
C965 C 0.72788 0.90895 0.06523 0.0
H966 H 0.68674 0.94543 0.09078 0.0
H967 H 0.64573 0.93012 0.12772 0.0
H968 H 0.76377 0.78881 0.05582 0.0
H969 H 0.77821 0.8386 0.04022 0.0
H970 H 0.76576 0.89228 0.04016 0.0
H971 H 0.73264 0.93101 0.05832 0.0
Mn972 Mn 0.22736 0.60987 0.13105 0.0
Mn973 Mn 0.19464 0.66796 0.09587 0.0
C974 C 0.22975 0.61828 0.07098 0.0
C975 C 0.22686 0.56119 0.14729 0.0
C976 C 0.25265 0.67154 0.13017 0.0
O977 O 0.20092 0.62179 0.17094 0.0
O978 O 0.18309 0.66184 0.14607 0.0
C979 C 0.13707 0.64208 0.09646 0.0
N980 N 0.15897 0.65424 0.07831 0.0
C981 C 0.13413 0.64852 0.02316 0.0
C982 C 0.11142 0.63576 0.04128 0.0
C983 C 0.1129 0.63256 0.07811 0.0
C984 C 0.15781 0.65727 0.04285 0.0
H985 H 0.13802 0.6397 0.1247 0.0
C986 C 0.18528 0.64413 0.1718 0.0
O987 O 0.24523 0.57894 0.16077 0.0
O988 O 0.20796 0.572 0.12626 0.0
N989 N 0.20295 0.67732 0.04777 0.0
C990 C 0.22457 0.69393 0.0352 0.0
C991 C 0.22521 0.70127 0.99924 0.0
C992 C 0.20345 0.69178 0.97668 0.0
C993 C 0.18067 0.67603 0.99056 0.0
C994 C 0.18088 0.66994 0.02676 0.0
H995 H 0.24119 0.70154 0.05252 0.0
O996 O 0.24826 0.602 0.08645 0.0
O997 O 0.20991 0.62903 0.09103 0.0
O998 O 0.25309 0.64537 0.14102 0.0
O999 O 0.23211 0.68221 0.11215 0.0
C1000 C 0.15728 0.66704 0.97012 0.0
C1001 C 0.1341 0.65308 0.98637 0.0
H1002 H 0.09267 0.62854 0.02723 0.0
H1003 H 0.09542 0.62284 0.09233 0.0
H1004 H 0.24246 0.71417 0.98892 0.0
H1005 H 0.20396 0.69739 0.94896 0.0
H1006 H 0.1567 0.67114 0.94196 0.0
H1007 H 0.11613 0.64645 0.97044 0.0
Mn1008 Mn 0.38429 0.78798 0.86443 0.0
Mn1009 Mn 0.323 0.82571 0.87043 0.0
C1010 C 0.36622 0.79798 0.92114 0.0
C1011 C 0.43414 0.78665 0.85908 0.0
C1012 C 0.32464 0.76167 0.85412 0.0
O1013 O 0.37929 0.80323 0.81367 0.0
O1014 O 0.33996 0.82891 0.82327 0.0
C1015 C 0.34958 0.88305 0.86398 0.0
N1016 N 0.33097 0.86498 0.8802 0.0
C1017 C 0.30734 0.90414 0.90914 0.0
C1018 C 0.32645 0.92332 0.89321 0.0
C1019 C 0.34793 0.91266 0.87089 0.0
C1020 C 0.31124 0.87479 0.90297 0.0
H1021 H 0.36514 0.87487 0.84553 0.0
C1022 C 0.35962 0.82 0.80312 0.0
O1023 O 0.41841 0.76512 0.84947 0.0
O1024 O 0.42099 0.80931 0.87049 0.0
N1025 N 0.30049 0.82654 0.91226 0.0
C1026 C 0.28343 0.80517 0.92463 0.0
C1027 C 0.25851 0.81211 0.94332 0.0
C1028 C 0.25144 0.84106 0.94943 0.0
C1029 C 0.26973 0.86279 0.93739 0.0
C1030 C 0.29398 0.8545 0.91837 0.0
H1031 H 0.28845 0.78301 0.91939 0.0
O1032 O 0.3848 0.77804 0.91531 0.0
O1033 O 0.35905 0.81322 0.89327 0.0
O1034 O 0.35171 0.75868 0.85578 0.0
O1035 O 0.31249 0.78567 0.85999 0.0
C1036 C 0.26492 0.89229 0.94346 0.0
C1037 C 0.28405 0.91293 0.92993 0.0
H1038 H 0.32458 0.94624 0.89751 0.0
H1039 H 0.36258 0.92732 0.85821 0.0
H1040 H 0.24473 0.79518 0.95285 0.0
H1041 H 0.23232 0.84631 0.96401 0.0
H1042 H 0.24666 0.89932 0.95861 0.0
H1043 H 0.28026 0.93552 0.93496 0.0
Mn1044 Mn 0.22259 0.3896 0.8706 0.0
Mn1045 Mn 0.19282 0.33151 0.90888 0.0
C1046 C 0.2289 0.38102 0.93034 0.0
C1047 C 0.2212 0.43868 0.85573 0.0
C1048 C 0.24819 0.32851 0.86834 0.0
O1049 O 0.19336 0.37762 0.8336 0.0
O1050 O 0.17726 0.33817 0.86065 0.0
C1051 C 0.1352 0.35684 0.91518 0.0
N1052 N 0.1584 0.34455 0.93059 0.0
C1053 C 0.13755 0.34914 0.98835 0.0
C1054 C 0.11341 0.36171 0.97307 0.0
C1055 C 0.11225 0.36559 0.93633 0.0
C1056 C 0.1598 0.34089 0.96595 0.0
H1057 H 0.1342 0.36007 0.887 0.0
C1058 C 0.17705 0.35569 0.83465 0.0
O1059 O 0.23837 0.42104 0.83979 0.0
O1060 O 0.20366 0.42754 0.8782 0.0
N1061 N 0.2051 0.32247 0.95578 0.0
C1062 C 0.22923 0.30862 0.96623 0.0
C1063 C 0.23353 0.3028 0.00223 0.0
C1064 C 0.21264 0.31061 0.02695 0.0
C1065 C 0.18752 0.32378 0.01544 0.0
C1066 C 0.18438 0.32893 0.97923 0.0
H1067 H 0.24517 0.30224 0.94725 0.0
O1068 O 0.24656 0.39689 0.9129 0.0
O1069 O 0.20783 0.37043 0.91228 0.0
O1070 O 0.24777 0.35462 0.85752 0.0
O1071 O 0.22888 0.31755 0.88802 0.0
C1072 C 0.16541 0.33185 0.03849 0.0
C1073 C 0.14048 0.34463 0.02497 0.0
H1074 H 0.09567 0.36852 0.9893 0.0
H1075 H 0.09372 0.37537 0.92433 0.0
H1076 H 0.25282 0.29223 0.01088 0.0
H1077 H 0.21577 0.30597 0.05465 0.0
H1078 H 0.16737 0.32836 0.06667 0.0
H1079 H 0.12366 0.35086 0.04295 0.0
Mn1080 Mn 0.61672 0.2224 0.85999 0.0
Mn1081 Mn 0.67992 0.18689 0.85889 0.0
C1082 C 0.63806 0.21343 0.91484 0.0
C1083 C 0.56697 0.22148 0.85769 0.0
C1084 C 0.67505 0.25128 0.84751 0.0
O1085 O 0.61888 0.20824 0.80913 0.0
O1086 O 0.65973 0.18442 0.81322 0.0
C1087 C 0.65159 0.13041 0.85455 0.0
N1088 N 0.67234 0.14744 0.86823 0.0
C1089 C 0.69522 0.10717 0.89565 0.0
C1090 C 0.67438 0.08898 0.88142 0.0
C1091 C 0.65212 0.10076 0.8613 0.0
C1092 C 0.69244 0.13675 0.88984 0.0
H1093 H 0.63485 0.13956 0.83879 0.0
C1094 C 0.6381 0.19257 0.79584 0.0
O1095 O 0.58127 0.24383 0.84748 0.0
O1096 O 0.58149 0.19939 0.86825 0.0
N1097 N 0.70649 0.18452 0.89734 0.0
C1098 C 0.72769 0.20392 0.90374 0.0
C1099 C 0.75273 0.19547 0.9211 0.0
C1100 C 0.75694 0.16656 0.92992 0.0
C1101 C 0.73614 0.14635 0.92092 0.0
C1102 C 0.71123 0.15621 0.90419 0.0
H1103 H 0.72703 0.2251 0.89272 0.0
O1104 O 0.61764 0.23164 0.91034 0.0
O1105 O 0.64498 0.19841 0.88641 0.0
O1106 O 0.64789 0.25297 0.85026 0.0
O1107 O 0.68902 0.22774 0.84981 0.0
C1108 C 0.73985 0.11661 0.92636 0.0
C1109 C 0.71907 0.09706 0.91439 0.0
H1110 H 0.67533 0.06598 0.88561 0.0
H1111 H 0.63581 0.08697 0.8504 0.0
H1112 H 0.76932 0.21103 0.9262 0.0
H1113 H 0.77656 0.16001 0.94259 0.0
H1114 H 0.75866 0.10854 0.93956 0.0
H1115 H 0.72202 0.07428 0.91893 0.0
Mn1116 Mn 0.78476 0.61136 0.86923 0.0
Mn1117 Mn 0.81062 0.67223 0.90569 0.0
C1118 C 0.77932 0.6194 0.9296 0.0
C1119 C 0.79347 0.56324 0.85136 0.0
C1120 C 0.75439 0.67012 0.86593 0.0
O1121 O 0.81106 0.62688 0.83067 0.0
O1122 O 0.82787 0.6653 0.85879 0.0
C1123 C 0.8685 0.64848 0.91594 0.0
N1124 N 0.84491 0.66147 0.92943 0.0
C1125 C 0.86471 0.66091 0.98802 0.0
C1126 C 0.88937 0.64792 0.97467 0.0
C1127 C 0.8912 0.64154 0.93849 0.0
C1128 C 0.8426 0.66689 0.96434 0.0
H1129 H 0.86989 0.64318 0.88825 0.0
C1130 C 0.82786 0.64835 0.83235 0.0
O1131 O 0.77273 0.57834 0.83822 0.0
O1132 O 0.80882 0.57641 0.87458 0.0
N1133 N 0.79684 0.68287 0.95129 0.0
C1134 C 0.77328 0.69878 0.9589 0.0
C1135 C 0.76933 0.70928 0.99328 0.0
C1136 C 0.7897 0.70339 0.01941 0.0
C1137 C 0.8142 0.68784 0.01076 0.0
C1138 C 0.81744 0.67884 0.97575 0.0
H1139 H 0.75782 0.70385 0.93874 0.0
O1140 O 0.76377 0.60056 0.91347 0.0
O1141 O 0.798 0.63246 0.91009 0.0
O1142 O 0.75536 0.64331 0.85801 0.0
O1143 O 0.77425 0.68324 0.8827 0.0
C1144 C 0.8361 0.68204 0.03515 0.0
C1145 C 0.86121 0.66822 0.02386 0.0
H1146 H 0.90699 0.64269 0.99196 0.0
H1147 H 0.91006 0.63128 0.92802 0.0
H1148 H 0.75069 0.72192 0.99962 0.0
H1149 H 0.78682 0.71162 0.04576 0.0
H1150 H 0.83398 0.68839 0.06254 0.0
H1151 H 0.87792 0.66384 0.04282 0.0
C1152 C 0.22955 0.20589 0.33247 0.0
C1153 C 0.22942 0.18568 0.36037 0.0
C1154 C 0.18382 0.20514 0.38128 0.0
C1155 C 0.18708 0.22902 0.35803 0.0
N1156 N 0.21161 0.25094 0.309 0.0
N1157 N 0.20649 0.16494 0.41106 0.0
C1158 C 0.20943 0.22884 0.33262 0.0
C1159 C 0.2063 0.1847 0.38434 0.0
N1160 N 0.24874 0.20275 0.30566 0.0
N1161 N 0.1594 0.20176 0.40038 0.0
H1162 H 0.2217 0.14867 0.41287 0.0
H1163 H 0.19262 0.16558 0.43248 0.0
H1164 H 0.14238 0.21597 0.39947 0.0
H1165 H 0.15477 0.18334 0.41487 0.0
H1166 H 0.2489 0.21533 0.28295 0.0
H1167 H 0.26294 0.18553 0.30468 0.0
H1168 H 0.22915 0.25419 0.29274 0.0
H1169 H 0.19603 0.26675 0.30642 0.0
C1170 C 0.8008 0.19394 0.31585 0.0
C1171 C 0.77916 0.19011 0.34178 0.0
C1172 C 0.78256 0.24116 0.35432 0.0
C1173 C 0.80995 0.24255 0.33899 0.0
N1174 N 0.84279 0.22085 0.29796 0.0
N1175 N 0.75268 0.21149 0.38989 0.0
C1176 C 0.81868 0.21889 0.31777 0.0
C1177 C 0.77135 0.2141 0.36262 0.0
N1178 N 0.80291 0.17524 0.28825 0.0
N1179 N 0.76557 0.26481 0.3571 0.0
H1180 H 0.74568 0.19153 0.3988 0.0
H1181 H 0.74712 0.22896 0.40576 0.0
H1182 H 0.74477 0.26358 0.36661 0.0
H1183 H 0.77033 0.28427 0.34489 0.0
H1184 H 0.81654 0.17844 0.26693 0.0
H1185 H 0.78928 0.15776 0.28524 0.0
H1186 H 0.85111 0.20368 0.28369 0.0
H1187 H 0.85451 0.23976 0.29608 0.0
C1188 C 0.80061 0.76793 0.33709 0.0
C1189 C 0.82414 0.76773 0.36082 0.0
C1190 C 0.80835 0.81403 0.38498 0.0
C1191 C 0.78463 0.81403 0.36185 0.0
N1192 N 0.76294 0.79576 0.30911 0.0
N1193 N 0.85531 0.79611 0.39825 0.0
C1194 C 0.78226 0.7924 0.33572 0.0
C1195 C 0.82976 0.79262 0.38158 0.0
N1196 N 0.79571 0.74464 0.31598 0.0
N1197 N 0.80959 0.8335 0.41184 0.0
H1198 H 0.87177 0.78125 0.3974 0.0
H1199 H 0.86128 0.81527 0.41039 0.0
H1200 H 0.79427 0.84935 0.41497 0.0
H1201 H 0.82416 0.83231 0.43253 0.0
H1202 H 0.77717 0.74183 0.30135 0.0
H1203 H 0.80992 0.7275 0.31406 0.0
H1204 H 0.76135 0.78199 0.28755 0.0
H1205 H 0.75049 0.81423 0.30684 0.0
C1206 C 0.19166 0.7931 0.31783 0.0
C1207 C 0.18612 0.78073 0.35123 0.0
C1208 C 0.21887 0.81384 0.3797 0.0
C1209 C 0.22633 0.82527 0.34624 0.0
N1210 N 0.2202 0.82639 0.28302 0.0
N1211 N 0.18248 0.78939 0.41313 0.0
C1212 C 0.21249 0.81536 0.31507 0.0
C1213 C 0.19629 0.794 0.38202 0.0
N1214 N 0.17583 0.78453 0.28954 0.0
N1215 N 0.23329 0.82182 0.4094 0.0
H1216 H 0.16369 0.77747 0.41405 0.0
H1217 H 0.18706 0.80048 0.43634 0.0
H1218 H 0.24975 0.83671 0.40928 0.0
H1219 H 0.23002 0.81216 0.43382 0.0
H1220 H 0.17744 0.79325 0.26435 0.0
H1221 H 0.15891 0.77022 0.2924 0.0
H1222 H 0.2127 0.81883 0.25892 0.0
H1223 H 0.235 0.84293 0.28037 0.0
C1224 C 0.20424 0.76557 0.66482 0.0
C1225 C 0.17876 0.76814 0.64504 0.0
C1226 C 0.19462 0.81633 0.62608 0.0
C1227 C 0.22246 0.81033 0.63897 0.0
N1228 N 0.25418 0.77688 0.66823 0.0
N1229 N 0.14959 0.79729 0.60602 0.0
C1230 C 0.22734 0.78438 0.65789 0.0
C1231 C 0.17357 0.79413 0.62604 0.0
N1232 N 0.20624 0.74511 0.69057 0.0
N1233 N 0.18819 0.84298 0.6132 0.0
H1234 H 0.13249 0.78321 0.6064 0.0
H1235 H 0.14719 0.81344 0.5872 0.0
H1236 H 0.20294 0.85951 0.61089 0.0
H1237 H 0.16751 0.84956 0.60752 0.0
H1238 H 0.22333 0.74381 0.70803 0.0
H1239 H 0.18924 0.73169 0.69701 0.0
H1240 H 0.25914 0.75673 0.67855 0.0
H1241 H 0.27196 0.7897 0.66397 0.0
C1242 C 0.24087 0.21006 0.63211 0.0
C1243 C 0.23357 0.18532 0.6517 0.0
C1244 C 0.19411 0.21289 0.67788 0.0
C1245 C 0.2033 0.23784 0.65928 0.0
N1246 N 0.248 0.26004 0.6422 0.0
N1247 N 0.20969 0.16799 0.70428 0.0
C1248 C 0.23046 0.23676 0.64325 0.0
C1249 C 0.212 0.18793 0.67802 0.0
N1250 N 0.25787 0.20856 0.60307 0.0
N1251 N 0.1694 0.21325 0.69667 0.0
H1252 H 0.22341 0.15054 0.70667 0.0
H1253 H 0.19595 0.17035 0.72566 0.0
H1254 H 0.15702 0.2316 0.69958 0.0
H1255 H 0.16095 0.19504 0.70867 0.0
H1256 H 0.2623 0.22681 0.58801 0.0
H1257 H 0.26433 0.18904 0.59214 0.0
H1258 H 0.26853 0.25877 0.63177 0.0
H1259 H 0.24385 0.27887 0.65615 0.0
C1260 C 0.78214 0.21059 0.67164 0.0
C1261 C 0.78485 0.18651 0.64906 0.0
C1262 C 0.83073 0.20459 0.62759 0.0
C1263 C 0.82674 0.23023 0.64765 0.0
N1264 N 0.80374 0.25329 0.69696 0.0
N1265 N 0.81634 0.15527 0.61691 0.0
C1266 C 0.80401 0.23178 0.67239 0.0
C1267 C 0.81075 0.18171 0.63089 0.0
N1268 N 0.75827 0.21323 0.6919 0.0
N1269 N 0.85238 0.20257 0.60364 0.0
H1270 H 0.80254 0.13793 0.61971 0.0
H1271 H 0.83591 0.14954 0.60614 0.0
H1272 H 0.86849 0.21769 0.6011 0.0
H1273 H 0.85355 0.18648 0.58459 0.0
H1274 H 0.75272 0.23178 0.70561 0.0
H1275 H 0.74366 0.19646 0.6944 0.0
H1276 H 0.78917 0.25458 0.71757 0.0
H1277 H 0.81977 0.26869 0.69857 0.0
C1278 C 0.81476 0.8049 0.62901 0.0
C1279 C 0.82252 0.79127 0.66069 0.0
C1280 C 0.79214 0.82569 0.69249 0.0
C1281 C 0.78026 0.8346 0.65969 0.0
N1282 N 0.77381 0.82213 0.59829 0.0
N1283 N 0.81821 0.78825 0.72377 0.0
C1284 C 0.78975 0.82138 0.62827 0.0
C1285 C 0.81131 0.80175 0.69301 0.0
N1286 N 0.83058 0.80143 0.59924 0.0
N1287 N 0.78444 0.83935 0.72291 0.0
H1288 H 0.83296 0.77153 0.72448 0.0
H1289 H 0.80857 0.79279 0.74789 0.0
H1290 H 0.76988 0.85627 0.72322 0.0
H1291 H 0.79411 0.8354 0.74718 0.0
H1292 H 0.82584 0.81229 0.57583 0.0
H1293 H 0.84989 0.79039 0.59936 0.0
H1294 H 0.77912 0.81014 0.57595 0.0
H1295 H 0.75462 0.83323 0.59651 0.0
C1296 C 0.71018 0.73362 0.83352 0.0
C1297 C 0.6859 0.7308 0.85569 0.0
C1298 C 0.70192 0.6819 0.87108 0.0
C1299 C 0.72895 0.68774 0.85591 0.0
N1300 N 0.75832 0.71833 0.81992 0.0
N1301 N 0.65908 0.70141 0.89685 0.0
C1302 C 0.7328 0.71331 0.83605 0.0
C1303 C 0.68154 0.7045 0.87427 0.0
N1304 N 0.7112 0.75538 0.80931 0.0
N1305 N 0.69546 0.65481 0.88236 0.0
H1306 H 0.64283 0.71636 0.89961 0.0
H1307 H 0.65753 0.68463 0.91494 0.0
H1308 H 0.70939 0.63754 0.88024 0.0
H1309 H 0.67512 0.6487 0.89025 0.0
H1310 H 0.72698 0.75721 0.79016 0.0
H1311 H 0.69458 0.76998 0.80597 0.0
H1312 H 0.76397 0.73808 0.80909 0.0
H1313 H 0.77436 0.70286 0.81853 0.0
C1314 C 0.26797 0.70581 0.86966 0.0
C1315 C 0.27516 0.68321 0.84611 0.0
C1316 C 0.3143 0.71326 0.82345 0.0
C1317 C 0.30595 0.73599 0.84658 0.0
N1318 N 0.26234 0.75665 0.87013 0.0
N1319 N 0.2979 0.6714 0.79086 0.0
C1320 C 0.27925 0.73337 0.86379 0.0
C1321 C 0.29637 0.68848 0.8201 0.0
N1322 N 0.24884 0.70191 0.89634 0.0
N1323 N 0.3381 0.71583 0.80306 0.0
H1324 H 0.28452 0.65385 0.78693 0.0
H1325 H 0.31084 0.67598 0.76926 0.0
H1326 H 0.35013 0.73452 0.80148 0.0
H1327 H 0.34612 0.69907 0.78784 0.0
H1328 H 0.24514 0.71771 0.91535 0.0
H1329 H 0.23876 0.68242 0.90139 0.0
H1330 H 0.26569 0.77663 0.85858 0.0
H1331 H 0.24208 0.75483 0.88116 0.0
C1332 C 0.31999 0.29215 0.87637 0.0
C1333 C 0.31473 0.26555 0.85881 0.0
C1334 C 0.26756 0.28333 0.84069 0.0
C1335 C 0.27264 0.30948 0.8589 0.0
N1336 N 0.30731 0.34227 0.8832 0.0
N1337 N 0.28762 0.24024 0.81459 0.0
C1338 C 0.30008 0.31509 0.87294 0.0
C1339 C 0.28973 0.26253 0.83795 0.0
N1340 N 0.34284 0.29524 0.89839 0.0
N1341 N 0.24138 0.27825 0.82629 0.0
H1342 H 0.30395 0.22537 0.81082 0.0
H1343 H 0.27118 0.23822 0.79634 0.0
H1344 H 0.22548 0.29388 0.82523 0.0
H1345 H 0.23507 0.25826 0.81673 0.0
H1346 H 0.3451 0.31249 0.91569 0.0
H1347 H 0.35857 0.27983 0.90189 0.0
H1348 H 0.32799 0.34817 0.8899 0.0
H1349 H 0.29351 0.3597 0.88168 0.0
C1350 C 0.69435 0.29573 0.81709 0.0
C1351 C 0.69223 0.27822 0.84764 0.0
C1352 C 0.72693 0.30886 0.87832 0.0
C1353 C 0.73039 0.32534 0.84712 0.0
N1354 N 0.7205 0.33262 0.78532 0.0
N1355 N 0.70232 0.27091 0.90933 0.0
C1356 C 0.71473 0.31847 0.81613 0.0
C1357 C 0.70745 0.2856 0.87877 0.0
N1358 N 0.67644 0.29095 0.78934 0.0
N1359 N 0.74285 0.31522 0.90752 0.0
H1360 H 0.69018 0.25227 0.91006 0.0
H1361 H 0.70892 0.27739 0.93429 0.0
H1362 H 0.75538 0.33359 0.9096 0.0
H1363 H 0.7442 0.30214 0.92963 0.0
H1364 H 0.67469 0.30451 0.7676 0.0
H1365 H 0.66141 0.27457 0.7896 0.0
H1366 H 0.71229 0.32669 0.76088 0.0
H1367 H 0.7349 0.34961 0.78376 0.0
C1368 C 0.68361 0.29583 0.12162 0.0
C1369 C 0.6887 0.26987 0.14064 0.0
C1370 C 0.73303 0.29037 0.1644 0.0
C1371 C 0.72944 0.31473 0.14242 0.0
N1372 N 0.69679 0.34554 0.11127 0.0
N1373 N 0.71365 0.24573 0.18762 0.0
C1374 C 0.70322 0.31907 0.12468 0.0
C1375 C 0.71208 0.26821 0.16443 0.0
N1376 N 0.66106 0.29791 0.09896 0.0
N1377 N 0.75648 0.2889 0.18556 0.0
H1378 H 0.6981 0.22981 0.18899 0.0
H1379 H 0.729 0.24371 0.20723 0.0
H1380 H 0.76944 0.30677 0.18962 0.0
H1381 H 0.7629 0.27065 0.19928 0.0
H1382 H 0.65895 0.31419 0.08031 0.0
H1383 H 0.64503 0.28263 0.09708 0.0
H1384 H 0.67688 0.351 0.10126 0.0
H1385 H 0.71032 0.36313 0.11346 0.0
C1386 C 0.73799 0.71022 0.13663 0.0
C1387 C 0.73038 0.68628 0.15779 0.0
C1388 C 0.69117 0.71535 0.1822 0.0
C1389 C 0.70014 0.73919 0.16137 0.0
N1390 N 0.74463 0.76074 0.14261 0.0
N1391 N 0.70696 0.67175 0.2117 0.0
C1392 C 0.72723 0.7374 0.14535 0.0
C1393 C 0.7089 0.69027 0.18388 0.0
N1394 N 0.75674 0.7078 0.10937 0.0
N1395 N 0.66708 0.71722 0.20206 0.0
H1396 H 0.72042 0.65411 0.21462 0.0
H1397 H 0.69358 0.67521 0.2332 0.0
H1398 H 0.65549 0.73616 0.20454 0.0
H1399 H 0.65863 0.69988 0.21587 0.0
H1400 H 0.76105 0.72523 0.0929 0.0
H1401 H 0.76577 0.68836 0.10158 0.0
H1402 H 0.74056 0.78007 0.15553 0.0
H1403 H 0.76526 0.75926 0.13258 0.0
C1404 C 0.27195 0.71803 0.1554 0.0
C1405 C 0.27707 0.6912 0.1385 0.0
C1406 C 0.32543 0.70754 0.1234 0.0
C1407 C 0.32038 0.73413 0.14105 0.0
N1408 N 0.29267 0.75913 0.18492 0.0
N1409 N 0.3123 0.6576 0.11658 0.0
C1410 C 0.29483 0.73755 0.16059 0.0
C1411 C 0.30501 0.68493 0.12612 0.0
N1412 N 0.24514 0.72542 0.16599 0.0
N1413 N 0.3486 0.7041 0.10202 0.0
H1414 H 0.29837 0.64029 0.11737 0.0
H1415 H 0.33318 0.65149 0.11117 0.0
H1416 H 0.36456 0.7193 0.09893 0.0
H1417 H 0.35086 0.68679 0.08479 0.0
H1418 H 0.23982 0.74603 0.17448 0.0
H1419 H 0.22773 0.71173 0.16411 0.0
H1420 H 0.2756 0.76105 0.20231 0.0
H1421 H 0.30947 0.77302 0.19056 0.0
C1422 C 0.27698 0.29687 0.13027 0.0
C1423 C 0.28203 0.31867 0.15534 0.0
C1424 C 0.32035 0.28871 0.17988 0.0
C1425 C 0.31241 0.26588 0.15672 0.0
N1426 N 0.26907 0.24659 0.13103 0.0
N1427 N 0.30303 0.33064 0.21167 0.0
C1428 C 0.28676 0.26911 0.13752 0.0
C1429 C 0.30224 0.31341 0.18256 0.0
N1430 N 0.26155 0.30197 0.10047 0.0
N1431 N 0.34402 0.2864 0.20042 0.0
H1432 H 0.28958 0.34827 0.21476 0.0
H1433 H 0.31553 0.32615 0.23371 0.0
H1434 H 0.35651 0.268 0.20097 0.0
H1435 H 0.35164 0.3032 0.21594 0.0
H1436 H 0.25861 0.28603 0.08141 0.0
H1437 H 0.25467 0.32252 0.09351 0.0
H1438 H 0.2714 0.22674 0.14337 0.0
H1439 H 0.24957 0.24928 0.11823 0.0
C1440 C 0.98441 0.28743 0.40014 0.0
C1441 C 0.96991 0.28741 0.36714 0.0
C1442 C 0.01589 0.28774 0.33592 0.0
C1443 C 0.03029 0.28638 0.36886 0.0
N1444 N 0.02877 0.28059 0.43204 0.0
N1445 N 0.97135 0.28475 0.30355 0.0
C1446 C 0.01467 0.28521 0.40092 0.0
C1447 C 0.98554 0.28655 0.33501 0.0
N1448 N 0.96923 0.2895 0.43086 0.0
N1449 N 0.03127 0.29159 0.30562 0.0
H1450 H 0.94928 0.286 0.30147 0.0
H1451 H 0.98124 0.28047 0.27953 0.0
H1452 H 0.05343 0.29253 0.30528 0.0
H1453 H 0.02224 0.29599 0.28112 0.0
H1454 H 0.97839 0.29357 0.45537 0.0
H1455 H 0.9471 0.2885 0.43187 0.0
H1456 H 0.0187 0.27626 0.45592 0.0
H1457 H 0.05084 0.27882 0.4337 0.0
C1458 C 0.73012 0.02212 0.31274 0.0
C1459 C 0.74585 0.03583 0.34014 0.0
C1460 C 0.75949 0.98854 0.36318 0.0
C1461 C 0.74097 0.97489 0.33885 0.0
N1462 N 0.70594 0.97878 0.29279 0.0
N1463 N 0.76817 0.03127 0.39746 0.0
C1464 C 0.72537 0.99174 0.31433 0.0
C1465 C 0.75856 0.01881 0.367 0.0
N1466 N 0.72072 0.03779 0.28455 0.0
N1467 N 0.7783 0.97271 0.38262 0.0
H1468 H 0.76592 0.05309 0.40288 0.0
H1469 H 0.77507 0.01941 0.41919 0.0
H1470 H 0.78045 0.95057 0.37987 0.0
H1471 H 0.79401 0.98199 0.39834 0.0
H1472 H 0.71145 0.02859 0.26228 0.0
H1473 H 0.7245 0.05975 0.28195 0.0
H1474 H 0.6917 0.99015 0.277 0.0
H1475 H 0.70289 0.95657 0.29247 0.0
C1476 C 0.02674 0.70609 0.40348 0.0
C1477 C 0.04014 0.70543 0.36979 0.0
C1478 C 0.99327 0.70526 0.34064 0.0
C1479 C 0.97987 0.70706 0.37421 0.0
N1480 N 0.98293 0.70665 0.43777 0.0
N1481 N 0.03699 0.70614 0.30633 0.0
C1482 C 0.99639 0.70658 0.4057 0.0
C1483 C 0.02359 0.70546 0.33839 0.0
N1484 N 0.04317 0.70811 0.43326 0.0
N1485 N 0.97693 0.7017 0.31104 0.0
H1486 H 0.05898 0.70411 0.30355 0.0
H1487 H 0.02669 0.70994 0.28247 0.0
H1488 H 0.95477 0.70105 0.31164 0.0
H1489 H 0.98506 0.69721 0.28611 0.0
H1490 H 0.03531 0.71155 0.45855 0.0
H1491 H 0.06533 0.70773 0.43281 0.0
H1492 H 0.99297 0.70301 0.4618 0.0
H1493 H 0.96105 0.70945 0.44059 0.0
C1494 C 0.27088 0.98744 0.36771 0.0
C1495 C 0.28396 0.97071 0.34095 0.0
C1496 C 0.30437 0.01516 0.31628 0.0
C1497 C 0.28732 0.0316 0.3398 0.0
N1498 N 0.24831 0.0324 0.3813 0.0
N1499 N 0.31121 0.96911 0.28698 0.0
C1500 C 0.26873 0.01745 0.36345 0.0
C1501 C 0.30044 0.98463 0.31448 0.0
N1502 N 0.26131 0.97476 0.39799 0.0
N1503 N 0.3241 0.02866 0.29573 0.0
H1504 H 0.30861 0.94694 0.28481 0.0
H1505 H 0.32095 0.97848 0.26514 0.0
H1506 H 0.32658 0.05094 0.29567 0.0
H1507 H 0.33906 0.01767 0.28059 0.0
H1508 H 0.25375 0.98648 0.4195 0.0
H1509 H 0.26435 0.953 0.40328 0.0
H1510 H 0.23268 0.02237 0.39645 0.0
H1511 H 0.24499 0.05434 0.37795 0.0
C1512 C 0.00732 0.70492 0.6003 0.0
C1513 C 0.02316 0.70603 0.63232 0.0
C1514 C 0.97861 0.70558 0.66644 0.0
C1515 C 0.96292 0.70742 0.63451 0.0
N1516 N 0.96172 0.71115 0.57105 0.0
N1517 N 0.02443 0.70815 0.69593 0.0
C1518 C 0.97708 0.70729 0.6014 0.0
C1519 C 0.00892 0.70657 0.66543 0.0
N1520 N 0.02118 0.70197 0.56875 0.0
N1521 N 0.96441 0.70189 0.69764 0.0
H1522 H 0.04656 0.70661 0.69652 0.0
H1523 H 0.01561 0.71227 0.72062 0.0
H1524 H 0.94227 0.70076 0.69916 0.0
H1525 H 0.97433 0.69756 0.72161 0.0
H1526 H 0.01098 0.69731 0.54504 0.0
H1527 H 0.04324 0.7026 0.56627 0.0
H1528 H 0.97079 0.71487 0.54641 0.0
H1529 H 0.93959 0.71254 0.57063 0.0
C1530 C 0.27282 0.98529 0.68012 0.0
C1531 C 0.27234 0.97128 0.64677 0.0
C1532 C 0.27185 0.01821 0.61719 0.0
C1533 C 0.26873 0.03215 0.65021 0.0
N1534 N 0.26384 0.02904 0.71345 0.0
N1535 N 0.26485 0.97478 0.58365 0.0
C1536 C 0.26865 0.01572 0.68187 0.0
C1537 C 0.27011 0.98785 0.61532 0.0
N1538 N 0.27833 0.96974 0.70995 0.0
N1539 N 0.27758 0.03394 0.58757 0.0
H1540 H 0.26212 0.95272 0.58089 0.0
H1541 H 0.26002 0.98613 0.56069 0.0
H1542 H 0.28021 0.05614 0.58813 0.0
H1543 H 0.2829 0.02473 0.56338 0.0
H1544 H 0.2819 0.97901 0.73457 0.0
H1545 H 0.2817 0.94759 0.70956 0.0
H1546 H 0.26025 0.01799 0.73694 0.0
H1547 H 0.26158 0.05124 0.7158 0.0
C1548 C 0.02872 0.28608 0.66725 0.0
C1549 C 0.04427 0.28605 0.63505 0.0
C1550 C 0.9995 0.28524 0.60119 0.0
C1551 C 0.98394 0.28565 0.63336 0.0
N1552 N 0.98283 0.28402 0.69693 0.0
N1553 N 0.04525 0.28754 0.5714 0.0
C1554 C 0.99833 0.28528 0.66639 0.0
C1555 C 0.02984 0.28622 0.60203 0.0
N1556 N 0.04309 0.2886 0.69855 0.0
N1557 N 0.98521 0.28219 0.56989 0.0
H1558 H 0.06735 0.28585 0.57064 0.0
H1559 H 0.0365 0.29151 0.54666 0.0
H1560 H 0.96311 0.28109 0.56818 0.0
H1561 H 0.99496 0.27872 0.54562 0.0
H1562 H 0.03344 0.29156 0.72296 0.0
H1563 H 0.06522 0.28947 0.70016 0.0
H1564 H 0.99149 0.28043 0.7218 0.0
H1565 H 0.9607 0.28541 0.69747 0.0
C1566 C 0.71201 0.01987 0.61741 0.0
C1567 C 0.70869 0.03672 0.6486 0.0
C1568 C 0.70805 0.99238 0.68431 0.0
C1569 C 0.71162 0.97586 0.65313 0.0
N1570 N 0.71002 0.97297 0.58985 0.0
N1571 N 0.69766 0.03901 0.71058 0.0
C1572 C 0.71108 0.98943 0.61968 0.0
C1573 C 0.70488 0.02292 0.68176 0.0
N1574 N 0.71833 0.03269 0.58586 0.0
N1575 N 0.70865 0.9789 0.71633 0.0
H1576 H 0.6949 0.06123 0.7093 0.0
H1577 H 0.69216 0.03028 0.73494 0.0
H1578 H 0.70928 0.95656 0.71868 0.0
H1579 H 0.7096 0.98966 0.74038 0.0
H1580 H 0.72482 0.0214 0.56354 0.0
H1581 H 0.71952 0.05476 0.58221 0.0
H1582 H 0.70605 0.98118 0.56474 0.0
H1583 H 0.71058 0.95065 0.59074 0.0
C1584 C 0.50978 0.76317 0.88336 0.0
C1585 C 0.52626 0.78317 0.86371 0.0
C1586 C 0.48231 0.8032 0.83789 0.0
C1587 C 0.46585 0.78476 0.85964 0.0
N1588 N 0.46352 0.75002 0.90678 0.0
N1589 N 0.52857 0.82348 0.82377 0.0
C1590 C 0.47949 0.76529 0.88312 0.0
C1591 C 0.51258 0.80362 0.84149 0.0
N1592 N 0.52308 0.7422 0.90256 0.0
N1593 N 0.469 0.81946 0.81273 0.0
H1594 H 0.55074 0.82312 0.82338 0.0
H1595 H 0.52002 0.84118 0.81077 0.0
H1596 H 0.44698 0.81953 0.80928 0.0
H1597 H 0.47967 0.83115 0.79343 0.0
H1598 H 0.51249 0.72475 0.91361 0.0
H1599 H 0.54506 0.74116 0.90584 0.0
H1600 H 0.47212 0.73811 0.92745 0.0
H1601 H 0.44138 0.751 0.90773 0.0
C1602 C 0.23386 0.486 0.88357 0.0
C1603 C 0.22459 0.47052 0.85329 0.0
C1604 C 0.22407 0.51558 0.81911 0.0
C1605 C 0.23161 0.53114 0.85008 0.0
N1606 N 0.23853 0.53176 0.91323 0.0
N1607 N 0.20682 0.4708 0.7937 0.0
C1608 C 0.23498 0.51648 0.88268 0.0
C1609 C 0.21857 0.48539 0.82141 0.0
N1610 N 0.24304 0.47156 0.91287 0.0
N1611 N 0.22333 0.52939 0.78727 0.0
H1612 H 0.20279 0.44876 0.79451 0.0
H1613 H 0.19906 0.48075 0.77104 0.0
H1614 H 0.227 0.55137 0.78459 0.0
H1615 H 0.22111 0.51882 0.7632 0.0
H1616 H 0.2535 0.48138 0.93388 0.0
H1617 H 0.24262 0.44933 0.91506 0.0
H1618 H 0.23718 0.52265 0.93829 0.0
H1619 H 0.24043 0.55403 0.91388 0.0
C1620 C 0.48937 0.20235 0.83848 0.0
C1621 C 0.47519 0.21991 0.86356 0.0
C1622 C 0.52092 0.24052 0.88226 0.0
C1623 C 0.53532 0.22154 0.85884 0.0
N1624 N 0.53394 0.18306 0.81623 0.0
N1625 N 0.47695 0.25317 0.91222 0.0
C1626 C 0.51971 0.202 0.83747 0.0
C1627 C 0.49081 0.23852 0.88602 0.0
N1628 N 0.47371 0.18684 0.81472 0.0
N1629 N 0.53605 0.26034 0.9012 0.0
H1630 H 0.45495 0.25243 0.91564 0.0
H1631 H 0.48721 0.26444 0.93223 0.0
H1632 H 0.5582 0.261 0.90174 0.0
H1633 H 0.52676 0.27719 0.91508 0.0
H1634 H 0.4824 0.17592 0.79332 0.0
H1635 H 0.45153 0.18651 0.8148 0.0
H1636 H 0.52427 0.1659 0.80337 0.0
H1637 H 0.55592 0.18358 0.81264 0.0
C1638 C 0.8003 0.48386 0.87046 0.0
C1639 C 0.78752 0.47138 0.84024 0.0
C1640 C 0.78557 0.5191 0.81224 0.0
C1641 C 0.79726 0.5316 0.84341 0.0
N1642 N 0.82998 0.52227 0.89168 0.0
N1643 N 0.77618 0.47543 0.77862 0.0
C1644 C 0.8091 0.51299 0.86937 0.0
C1645 C 0.78254 0.48853 0.8099 0.0
N1646 N 0.80326 0.46831 0.90082 0.0
N1647 N 0.77825 0.53631 0.7845 0.0
H1648 H 0.77572 0.45312 0.77607 0.0
H1649 H 0.77419 0.48623 0.75469 0.0
H1650 H 0.78476 0.55768 0.78275 0.0
H1651 H 0.76604 0.52941 0.7632 0.0
H1652 H 0.80968 0.47747 0.92465 0.0
H1653 H 0.79676 0.44701 0.90299 0.0
H1654 H 0.84012 0.50873 0.90964 0.0
H1655 H 0.84074 0.54158 0.88808 0.0
C1656 C 0.48582 0.21539 0.09935 0.0
C1657 C 0.47151 0.21653 0.13239 0.0
C1658 C 0.51751 0.21484 0.1634 0.0
C1659 C 0.53179 0.21526 0.13037 0.0
N1660 N 0.53008 0.22095 0.06712 0.0
N1661 N 0.47329 0.22051 0.19586 0.0
C1662 C 0.51609 0.21675 0.09838 0.0
C1663 C 0.48726 0.2174 0.16442 0.0
N1664 N 0.47046 0.21304 0.06879 0.0
N1665 N 0.53279 0.21055 0.19369 0.0
H1666 H 0.45118 0.22055 0.19799 0.0
H1667 H 0.48348 0.22476 0.21969 0.0
H1668 H 0.55488 0.20842 0.19394 0.0
H1669 H 0.52363 0.20684 0.21828 0.0
H1670 H 0.47948 0.2082 0.04441 0.0
H1671 H 0.44834 0.21442 0.0679 0.0
H1672 H 0.51991 0.22552 0.04336 0.0
H1673 H 0.55216 0.22233 0.06525 0.0
C1674 C 0.77386 0.51982 0.11873 0.0
C1675 C 0.77515 0.5345 0.1515 0.0
C1676 C 0.78669 0.48887 0.18148 0.0
C1677 C 0.78263 0.4739 0.14921 0.0
N1678 N 0.76882 0.47487 0.08767 0.0
N1679 N 0.7803 0.53308 0.21483 0.0
C1680 C 0.77549 0.48935 0.11796 0.0
C1681 C 0.78111 0.51908 0.18311 0.0
N1682 N 0.77185 0.53512 0.08798 0.0
N1683 N 0.7967 0.47433 0.21028 0.0
H1684 H 0.77675 0.55512 0.21701 0.0
H1685 H 0.78122 0.52268 0.23913 0.0
H1686 H 0.80085 0.4523 0.20989 0.0
H1687 H 0.80302 0.48428 0.2336 0.0
H1688 H 0.77481 0.52615 0.06306 0.0
H1689 H 0.76954 0.55736 0.08724 0.0
H1690 H 0.7595 0.48452 0.06571 0.0
H1691 H 0.77051 0.45276 0.08511 0.0
C1692 C 0.49437 0.80389 0.15911 0.0
C1693 C 0.48078 0.78421 0.13594 0.0
C1694 C 0.5274 0.765 0.11818 0.0
C1695 C 0.54106 0.78626 0.13918 0.0
N1696 N 0.53801 0.82733 0.17781 0.0
N1697 N 0.48391 0.74848 0.09009 0.0
C1698 C 0.52464 0.80617 0.15904 0.0
C1699 C 0.49717 0.7652 0.11484 0.0
N1700 N 0.4783 0.81955 0.18229 0.0
N1701 N 0.54333 0.74471 0.10108 0.0
H1702 H 0.46189 0.748 0.08681 0.0
H1703 H 0.49464 0.73669 0.07092 0.0
H1704 H 0.56548 0.74506 0.10028 0.0
H1705 H 0.53472 0.7265 0.08925 0.0
H1706 H 0.48679 0.83207 0.20246 0.0
H1707 H 0.45616 0.81825 0.18331 0.0
H1708 H 0.52746 0.84467 0.18917 0.0
H1709 H 0.56005 0.82846 0.18061 0.0
C1710 C 0.23379 0.48217 0.12251 0.0
C1711 C 0.23529 0.46882 0.15611 0.0
C1712 C 0.22831 0.51588 0.18459 0.0
C1713 C 0.22981 0.52941 0.15097 0.0
N1714 N 0.23961 0.52557 0.08844 0.0
N1715 N 0.23614 0.4726 0.21945 0.0
C1716 C 0.23389 0.51257 0.12005 0.0
C1717 C 0.23307 0.48558 0.18732 0.0
N1718 N 0.2319 0.46569 0.09273 0.0
N1719 N 0.2214 0.53182 0.21365 0.0
H1720 H 0.23845 0.45041 0.22219 0.0
H1721 H 0.23797 0.48382 0.24311 0.0
H1722 H 0.21776 0.55391 0.21247 0.0
H1723 H 0.21717 0.52296 0.23833 0.0
H1724 H 0.22725 0.474 0.06785 0.0
H1725 H 0.23232 0.44335 0.09337 0.0
H1726 H 0.24607 0.5144 0.066 0.0
H1727 H 0.24083 0.54772 0.08527 0.0
C1728 C 0.13578 0.32381 0.4858 0.0
C1729 C 0.14361 0.29865 0.46666 0.0
C1730 C 0.16419 0.27825 0.52128 0.0
C1731 C 0.15442 0.30228 0.54089 0.0
N1732 N 0.13704 0.35077 0.54097 0.0
N1733 N 0.16513 0.25176 0.46601 0.0
C1734 C 0.1424 0.32608 0.52272 0.0
C1735 C 0.15805 0.27597 0.48442 0.0
N1736 N 0.12021 0.34465 0.46923 0.0
N1737 N 0.17945 0.25749 0.53842 0.0
H1738 H 0.16334 0.25058 0.43866 0.0
H1739 H 0.17239 0.23281 0.47741 0.0
H1740 H 0.18322 0.25824 0.56555 0.0
H1741 H 0.19004 0.24074 0.52588 0.0
H1742 H 0.11097 0.36205 0.48206 0.0
H1743 H 0.1153 0.34395 0.4424 0.0
H1744 H 0.13098 0.37003 0.52925 0.0
H1745 H 0.14116 0.3527 0.56783 0.0
C1746 C 0.7611 0.12317 0.51641 0.0
C1747 C 0.73359 0.12281 0.53134 0.0
C1748 C 0.71351 0.11419 0.47204 0.0
C1749 C 0.74155 0.11412 0.4574 0.0
N1750 N 0.79017 0.10078 0.47253 0.0
N1751 N 0.68428 0.10949 0.52467 0.0
C1752 C 0.76499 0.11357 0.48137 0.0
C1753 C 0.70985 0.1161 0.50953 0.0
N1754 N 0.78388 0.13203 0.53592 0.0
N1755 N 0.69036 0.11064 0.45074 0.0
H1756 H 0.6808 0.11001 0.55182 0.0
H1757 H 0.66699 0.10142 0.51065 0.0
H1758 H 0.69162 0.10181 0.42553 0.0
H1759 H 0.66973 0.11568 0.45867 0.0
H1760 H 0.80402 0.13499 0.52497 0.0
H1761 H 0.78182 0.13941 0.56177 0.0
H1762 H 0.80714 0.09902 0.49014 0.0
H1763 H 0.79225 0.08697 0.45106 0.0
C1764 C 0.84967 0.72955 0.48537 0.0
C1765 C 0.86431 0.70506 0.47216 0.0
C1766 C 0.86129 0.68299 0.53139 0.0
C1767 C 0.85065 0.70916 0.54545 0.0
N1768 N 0.83211 0.75631 0.5358 0.0
N1769 N 0.88559 0.65883 0.48302 0.0
C1770 C 0.84356 0.73185 0.5221 0.0
C1771 C 0.87013 0.68164 0.49519 0.0
N1772 N 0.8412 0.75048 0.46242 0.0
N1773 N 0.86336 0.65955 0.55287 0.0
H1774 H 0.89197 0.65689 0.45676 0.0
H1775 H 0.89341 0.64253 0.49914 0.0
H1776 H 0.85716 0.66008 0.57923 0.0
H1777 H 0.86845 0.63905 0.54392 0.0
H1778 H 0.82831 0.76783 0.46899 0.0
H1779 H 0.8451 0.74901 0.43556 0.0
H1780 H 0.82929 0.77545 0.52209 0.0
H1781 H 0.82595 0.75725 0.56207 0.0
C1782 C 0.29233 0.89518 0.50961 0.0
C1783 C 0.26957 0.88265 0.529 0.0
C1784 C 0.23879 0.88873 0.47763 0.0
C1785 C 0.2626 0.89473 0.45567 0.0
N1786 N 0.31238 0.90784 0.4528 0.0
N1787 N 0.22233 0.86263 0.5286 0.0
C1788 C 0.28962 0.89881 0.47224 0.0
C1789 C 0.24335 0.87756 0.51186 0.0
N1790 N 0.31566 0.90555 0.527 0.0
N1791 N 0.21196 0.89679 0.46814 0.0
H1792 H 0.22513 0.85369 0.55361 0.0
H1793 H 0.20359 0.85654 0.51588 0.0
H1794 H 0.20791 0.91097 0.44751 0.0
H1795 H 0.19441 0.89388 0.48458 0.0
H1796 H 0.33145 0.91774 0.51491 0.0
H1797 H 0.31844 0.90383 0.55419 0.0
H1798 H 0.33329 0.90646 0.46174 0.0
H1799 H 0.31027 0.91695 0.42778 0.0
C1800 C 0.13738 0.67587 0.47638 0.0
C1801 C 0.15054 0.70033 0.46099 0.0
C1802 C 0.15111 0.7243 0.51881 0.0
C1803 C 0.13658 0.70072 0.5342 0.0
N1804 N 0.11604 0.65357 0.5285 0.0
N1805 N 0.17813 0.74265 0.46942 0.0
C1806 C 0.13017 0.67607 0.51329 0.0
C1807 C 0.15989 0.72289 0.483 0.0
N1808 N 0.1313 0.65288 0.45527 0.0
N1809 N 0.15611 0.74846 0.53831 0.0
H1810 H 0.18503 0.74092 0.44349 0.0
H1811 H 0.18855 0.75824 0.48429 0.0
H1812 H 0.15232 0.7494 0.56535 0.0
H1813 H 0.16312 0.7678 0.52759 0.0
H1814 H 0.12155 0.63408 0.46369 0.0
H1815 H 0.13739 0.65212 0.42883 0.0
H1816 H 0.11009 0.63491 0.51544 0.0
H1817 H 0.11028 0.65336 0.55508 0.0
C1818 C 0.26364 0.08947 0.48069 0.0
C1819 C 0.28486 0.107 0.46501 0.0
C1820 C 0.30263 0.11889 0.5239 0.0
C1821 C 0.27632 0.1092 0.53873 0.0
N1822 N 0.23569 0.07738 0.53173 0.0
N1823 N 0.33465 0.11413 0.47377 0.0
C1824 C 0.25784 0.09228 0.51721 0.0
C1825 C 0.30775 0.1147 0.48706 0.0
N1826 N 0.25315 0.06638 0.46261 0.0
N1827 N 0.32232 0.13286 0.54406 0.0
H1828 H 0.33872 0.10797 0.44777 0.0
H1829 H 0.35281 0.11596 0.48937 0.0
H1830 H 0.31863 0.14005 0.56961 0.0
H1831 H 0.34189 0.1395 0.5343 0.0
H1832 H 0.2387 0.0517 0.47298 0.0
H1833 H 0.26323 0.05851 0.44014 0.0
H1834 H 0.21873 0.06959 0.51682 0.0
H1835 H 0.23435 0.07243 0.55852 0.0
C1836 C 0.84961 0.27979 0.48105 0.0
C1837 C 0.85997 0.30368 0.46166 0.0
C1838 C 0.87879 0.32449 0.51715 0.0
C1839 C 0.87033 0.29944 0.53609 0.0
N1840 N 0.8477 0.25314 0.53621 0.0
N1841 N 0.87844 0.35176 0.46218 0.0
C1842 C 0.85549 0.27721 0.518 0.0
C1843 C 0.87243 0.32709 0.48015 0.0
N1844 N 0.83392 0.2595 0.46368 0.0
N1845 N 0.89475 0.34487 0.53398 0.0
H1846 H 0.87462 0.35394 0.43529 0.0
H1847 H 0.88478 0.37082 0.47414 0.0
H1848 H 0.89945 0.34397 0.56085 0.0
H1849 H 0.9045 0.36206 0.52132 0.0
H1850 H 0.823 0.24289 0.47602 0.0
H1851 H 0.83011 0.26057 0.43657 0.0
H1852 H 0.84009 0.23439 0.52465 0.0
H1853 H 0.84912 0.25192 0.56359 0.0
C1854 C 0.71433 0.90318 0.52274 0.0
C1855 C 0.73929 0.89417 0.54145 0.0
C1856 C 0.76399 0.88769 0.48471 0.0
C1857 C 0.73868 0.89382 0.46582 0.0
N1858 N 0.69225 0.91557 0.4664 0.0
N1859 N 0.78368 0.86842 0.53769 0.0
C1860 C 0.71438 0.90363 0.48476 0.0
C1861 C 0.7629 0.88399 0.52165 0.0
N1862 N 0.69026 0.9105 0.54089 0.0
N1863 N 0.78978 0.88664 0.46811 0.0
H1864 H 0.78312 0.86397 0.56433 0.0
H1865 H 0.79933 0.85712 0.52395 0.0
H1866 H 0.7928 0.89079 0.44148 0.0
H1867 H 0.80896 0.88523 0.48182 0.0
H1868 H 0.67049 0.91356 0.52919 0.0
H1869 H 0.68907 0.91185 0.56819 0.0
H1870 H 0.67509 0.92605 0.47796 0.0
H1871 H 0.69194 0.91717 0.43895 0.0
C1872 C 0.65882 0.77754 0.02152 0.0
C1873 C 0.64889 0.80162 0.04106 0.0
C1874 C 0.62989 0.82262 0.98564 0.0
C1875 C 0.63852 0.79779 0.96633 0.0
N1876 N 0.66161 0.75171 0.96566 0.0
N1877 N 0.63078 0.84986 0.04066 0.0
C1878 C 0.65328 0.77538 0.98434 0.0
C1879 C 0.63646 0.82512 0.02264 0.0
N1880 N 0.67379 0.75672 0.039 0.0
N1881 N 0.61375 0.84301 0.96909 0.0
H1882 H 0.63505 0.85213 0.06746 0.0
H1883 H 0.6244 0.86893 0.02872 0.0
H1884 H 0.60893 0.84222 0.94223 0.0
H1885 H 0.60387 0.86001 0.98202 0.0
H1886 H 0.68361 0.73924 0.02705 0.0
H1887 H 0.67788 0.75787 0.06604 0.0
H1888 H 0.66984 0.73303 0.97667 0.0
H1889 H 0.66035 0.75087 0.93824 0.0
C1890 C 0.21502 0.60441 0.97366 0.0
C1891 C 0.23744 0.62045 0.95772 0.0
C1892 C 0.254 0.6354 0.01628 0.0
C1893 C 0.23069 0.62117 0.03208 0.0
N1894 N 0.1867 0.59499 0.02602 0.0
N1895 N 0.27121 0.65898 0.96413 0.0
C1896 C 0.21034 0.60676 0.01078 0.0
C1897 C 0.25508 0.63798 0.97913 0.0
N1898 N 0.19921 0.5857 0.95394 0.0
N1899 N 0.27489 0.64719 0.03672 0.0
H1900 H 0.27031 0.66333 0.93731 0.0
H1901 H 0.28255 0.67423 0.97854 0.0
H1902 H 0.27354 0.64828 0.06409 0.0
H1903 H 0.29409 0.65463 0.02646 0.0
H1904 H 0.18516 0.57086 0.96483 0.0
H1905 H 0.2015 0.58315 0.92681 0.0
H1906 H 0.16936 0.5875 0.01162 0.0
H1907 H 0.18328 0.59479 0.05321 0.0
C1908 C 0.36959 0.17482 0.02338 0.0
C1909 C 0.35804 0.19869 0.04179 0.0
C1910 C 0.35029 0.22327 0.98479 0.0
C1911 C 0.36578 0.20135 0.96701 0.0
N1912 N 0.39223 0.15705 0.96993 0.0
N1913 N 0.33625 0.24536 0.04033 0.0
C1914 C 0.3756 0.17708 0.98638 0.0
C1915 C 0.34747 0.22253 0.02233 0.0
N1916 N 0.3755 0.15021 0.04153 0.0
N1917 N 0.33791 0.24467 0.96547 0.0
H1918 H 0.33295 0.24491 0.06758 0.0
H1919 H 0.33132 0.26508 0.02895 0.0
H1920 H 0.33887 0.24505 0.93804 0.0
H1921 H 0.32427 0.26012 0.9758 0.0
H1922 H 0.3815 0.13104 0.02951 0.0
H1923 H 0.37167 0.14825 0.06847 0.0
H1924 H 0.40282 0.14063 0.98315 0.0
H1925 H 0.39678 0.15771 0.94301 0.0
C1926 C 0.75214 0.3809 0.01618 0.0
C1927 C 0.77874 0.38456 0.03283 0.0
C1928 C 0.79943 0.39711 0.97514 0.0
C1929 C 0.77184 0.39545 0.95923 0.0
N1930 N 0.72166 0.40242 0.97329 0.0
N1931 N 0.82602 0.40463 0.0293 0.0
C1932 C 0.74794 0.39213 0.982 0.0
C1933 C 0.80208 0.39493 0.01267 0.0
N1934 N 0.73046 0.36735 0.0333 0.0
N1935 N 0.82301 0.40224 0.95508 0.0
H1936 H 0.82869 0.40408 0.05659 0.0
H1937 H 0.84238 0.41536 0.01628 0.0
H1938 H 0.82218 0.40927 0.92903 0.0
H1939 H 0.84362 0.39935 0.96456 0.0
H1940 H 0.71118 0.36257 0.02096 0.0
H1941 H 0.7332 0.35806 0.05811 0.0
H1942 H 0.7044 0.40124 0.99053 0.0
H1943 H 0.71807 0.41646 0.95241 0.0
C1944 C 0.65284 0.23055 0.01175 0.0
C1945 C 0.64129 0.20603 0.02842 0.0
C1946 C 0.639 0.18229 0.96992 0.0
C1947 C 0.64646 0.20854 0.95281 0.0
N1948 N 0.65252 0.26025 0.96012 0.0
N1949 N 0.61932 0.1596 0.02251 0.0
C1950 C 0.65164 0.23328 0.97446 0.0
C1951 C 0.6335 0.18202 0.0073 0.0
N1952 N 0.66472 0.25176 0.03177 0.0
N1953 N 0.63576 0.15787 0.95042 0.0
H1954 H 0.6153 0.15851 0.04955 0.0
H1955 H 0.61008 0.14295 0.00819 0.0
H1956 H 0.63841 0.15741 0.92322 0.0
H1957 H 0.63276 0.13763 0.9615 0.0
H1958 H 0.67612 0.26887 0.02102 0.0
H1959 H 0.66636 0.25005 0.05909 0.0
H1960 H 0.65258 0.27891 0.97535 0.0
H1961 H 0.65028 0.26466 0.93336 0.0
C1962 C 0.75245 0.63993 0.02082 0.0
C1963 C 0.77064 0.62375 0.04312 0.0
C1964 C 0.79848 0.6099 0.99062 0.0
C1965 C 0.77742 0.62246 0.96857 0.0
N1966 N 0.73178 0.64563 0.9629 0.0
N1967 N 0.81011 0.59044 0.04815 0.0
C1968 C 0.7534 0.63591 0.98379 0.0
C1969 C 0.79371 0.60819 0.02782 0.0
N1970 N 0.73602 0.66115 0.03479 0.0
N1971 N 0.82293 0.59932 0.97605 0.0
H1972 H 0.8077 0.58819 0.0753 0.0
H1973 H 0.82475 0.57597 0.03768 0.0
H1974 H 0.8266 0.59883 0.94891 0.0
H1975 H 0.84055 0.59324 0.99096 0.0
H1976 H 0.72327 0.6748 0.01977 0.0
H1977 H 0.73837 0.66757 0.06092 0.0
H1978 H 0.71241 0.65281 0.973 0.0
H1979 H 0.73269 0.64502 0.93545 0.0
C1980 C 0.34911 0.77928 0.97914 0.0
C1981 C 0.35863 0.80332 0.95921 0.0
C1982 C 0.37786 0.82491 0.01403 0.0
C1983 C 0.36901 0.80049 0.03389 0.0
N1984 N 0.34265 0.75628 0.03626 0.0
N1985 N 0.37609 0.85172 0.95872 0.0
C1986 C 0.35357 0.77823 0.01655 0.0
C1987 C 0.37083 0.82711 0.97716 0.0
N1988 N 0.33683 0.75677 0.96163 0.0
N1989 N 0.3944 0.84527 0.02995 0.0
H1990 H 0.3713 0.85369 0.93198 0.0
H1991 H 0.38256 0.87089 0.97033 0.0
H1992 H 0.39948 0.84469 0.05675 0.0
H1993 H 0.40429 0.86198 0.01648 0.0
H1994 H 0.3323 0.73693 0.9729 0.0
H1995 H 0.33185 0.75776 0.93479 0.0
H1996 H 0.32927 0.74035 0.02657 0.0
H1997 H 0.34483 0.75555 0.06356 0.0
C1998 C 0.21039 0.39253 0.99132 0.0
C1999 C 0.23141 0.37988 0.96936 0.0
C2000 C 0.26515 0.38143 0.01821 0.0
C2001 C 0.24283 0.3883 0.04248 0.0
N2002 N 0.19349 0.40267 0.05023 0.0
N2003 N 0.27694 0.35668 0.96426 0.0
C2004 C 0.21511 0.39415 0.02852 0.0
C2005 C 0.25803 0.37231 0.98376 0.0
N2006 N 0.18673 0.40472 0.97658 0.0
N2007 N 0.29317 0.38606 0.02597 0.0
H2008 H 0.27213 0.34925 0.939 0.0
H2009 H 0.29566 0.34827 0.97486 0.0
H2010 H 0.3003 0.39831 0.04706 0.0
H2011 H 0.30943 0.38244 0.00778 0.0
H2012 H 0.1723 0.41723 0.99069 0.0
H2013 H 0.18241 0.40423 0.94961 0.0
H2014 H 0.1722 0.40226 0.04259 0.0
H2015 H 0.1966 0.41019 0.07581 0.0
C2016 C 0.14865 0.37052 0.24196 0.0
C2017 C 0.16502 0.35352 0.21855 0.0
C2018 C 0.15158 0.30991 0.25083 0.0
C2019 C 0.13768 0.32726 0.27616 0.0
N2020 N 0.11336 0.37125 0.28897 0.0
N2021 N 0.17427 0.30691 0.19333 0.0
C2022 C 0.13292 0.35673 0.26925 0.0
C2023 C 0.1637 0.32307 0.22044 0.0
N2024 N 0.14916 0.39974 0.239 0.0
N2025 N 0.15444 0.28114 0.25696 0.0
H2026 H 0.18275 0.31609 0.17055 0.0
H2027 H 0.17222 0.28469 0.19181 0.0
H2028 H 0.14446 0.27097 0.27817 0.0
H2029 H 0.16733 0.26762 0.24201 0.0
H2030 H 0.14019 0.41352 0.25757 0.0
H2031 H 0.15971 0.41018 0.21842 0.0
H2032 H 0.10724 0.39236 0.28396 0.0
H2033 H 0.10153 0.36095 0.3086 0.0
C2034 C 0.65359 0.18768 0.24349 0.0
C2035 C 0.64161 0.16957 0.21743 0.0
C2036 C 0.65415 0.12697 0.25206 0.0
C2037 C 0.66821 0.1449 0.27665 0.0
N2038 N 0.67295 0.19192 0.30267 0.0
N2039 N 0.62024 0.12419 0.20369 0.0
C2040 C 0.66499 0.1752 0.27473 0.0
C2041 C 0.63849 0.13982 0.22403 0.0
N2042 N 0.65538 0.21656 0.23749 0.0
N2043 N 0.65668 0.09784 0.25473 0.0
H2044 H 0.60804 0.13382 0.18388 0.0
H2045 H 0.61533 0.10274 0.20854 0.0
H2046 H 0.66719 0.08797 0.27579 0.0
H2047 H 0.64951 0.08367 0.23539 0.0
H2048 H 0.66713 0.23057 0.25319 0.0
H2049 H 0.64596 0.22637 0.21563 0.0
H2050 H 0.66924 0.21394 0.30404 0.0
H2051 H 0.68067 0.18324 0.32616 0.0
C2052 C 0.84627 0.67577 0.22747 0.0
C2053 C 0.84424 0.64548 0.22391 0.0
C2054 C 0.87512 0.63948 0.27534 0.0
C2055 C 0.87104 0.66882 0.2836 0.0
N2056 N 0.8555 0.71603 0.26663 0.0
N2057 N 0.8582 0.59809 0.24239 0.0
C2058 C 0.85798 0.68746 0.25894 0.0
C2059 C 0.85954 0.62716 0.2469 0.0
N2060 N 0.83683 0.69319 0.2009 0.0
N2061 N 0.89397 0.62372 0.29469 0.0
H2062 H 0.84774 0.5887 0.22098 0.0
H2063 H 0.86633 0.58341 0.26053 0.0
H2064 H 0.90595 0.633 0.31494 0.0
H2065 H 0.89953 0.60262 0.28872 0.0
H2066 H 0.83958 0.71537 0.20068 0.0
H2067 H 0.82867 0.6851 0.17731 0.0
H2068 H 0.84305 0.73029 0.25214 0.0
H2069 H 0.86522 0.72526 0.28866 0.0
C2070 C 0.35909 0.80786 0.2503 0.0
C2071 C 0.3746 0.82548 0.22669 0.0
C2072 C 0.36719 0.86721 0.26505 0.0
C2073 C 0.34927 0.85028 0.2867 0.0
N2074 N 0.33537 0.80343 0.3071 0.0
N2075 N 0.40219 0.86811 0.21769 0.0
C2076 C 0.34787 0.8201 0.28181 0.0
C2077 C 0.3817 0.85396 0.23632 0.0
N2078 N 0.35376 0.77993 0.24142 0.0
N2079 N 0.36906 0.89609 0.27089 0.0
H2080 H 0.41315 0.85821 0.197 0.0
H2081 H 0.40993 0.8883 0.22455 0.0
H2082 H 0.35939 0.90597 0.29254 0.0
H2083 H 0.37919 0.91026 0.25375 0.0
H2084 H 0.33971 0.7667 0.25505 0.0
H2085 H 0.3629 0.77025 0.21929 0.0
H2086 H 0.33526 0.78108 0.30654 0.0
H2087 H 0.32732 0.81207 0.33048 0.0
C2088 C 0.15589 0.67213 0.77897 0.0
C2089 C 0.16008 0.64193 0.78012 0.0
C2090 C 0.12968 0.63647 0.72819 0.0
C2091 C 0.13156 0.6664 0.72231 0.0
N2092 N 0.1441 0.7136 0.74291 0.0
N2093 N 0.14947 0.59473 0.75788 0.0
C2094 C 0.14329 0.6846 0.74847 0.0
C2095 C 0.1461 0.62382 0.75565 0.0
N2096 N 0.16438 0.68881 0.80673 0.0
N2097 N 0.11218 0.62044 0.7073 0.0
H2098 H 0.16052 0.58499 0.77859 0.0
H2099 H 0.14239 0.58048 0.73861 0.0
H2100 H 0.09962 0.62992 0.68773 0.0
H2101 H 0.1082 0.59869 0.71138 0.0
H2102 H 0.15986 0.71064 0.8088 0.0
H2103 H 0.17369 0.68028 0.82941 0.0
H2104 H 0.15569 0.72781 0.75851 0.0
H2105 H 0.13397 0.72336 0.72155 0.0
C2106 C 0.34224 0.17623 0.72181 0.0
C2107 C 0.34232 0.14584 0.71906 0.0
C2108 C 0.37567 0.14333 0.76845 0.0
C2109 C 0.36925 0.17227 0.7766 0.0
N2110 N 0.3487 0.21758 0.75995 0.0
N2111 N 0.36108 0.10011 0.73737 0.0
C2112 C 0.35371 0.18932 0.75249 0.0
C2113 C 0.36012 0.12924 0.74125 0.0
N2114 N 0.33151 0.19243 0.69487 0.0
N2115 N 0.39658 0.12962 0.78688 0.0
H2116 H 0.35047 0.0895 0.71697 0.0
H2117 H 0.37131 0.0865 0.75513 0.0
H2118 H 0.40832 0.14022 0.80636 0.0
H2119 H 0.40381 0.10905 0.78086 0.0
H2120 H 0.33252 0.21477 0.69419 0.0
H2121 H 0.32467 0.18324 0.67129 0.0
H2122 H 0.33445 0.2303 0.74584 0.0
H2123 H 0.35807 0.22795 0.78145 0.0
C2124 C 0.86445 0.30935 0.75269 0.0
C2125 C 0.878 0.32689 0.72725 0.0
C2126 C 0.86798 0.36983 0.76251 0.0
C2127 C 0.85165 0.35275 0.78587 0.0
N2128 N 0.84144 0.30605 0.81007 0.0
N2129 N 0.90239 0.37081 0.71449 0.0
C2130 C 0.8525 0.32232 0.78337 0.0
C2131 C 0.88309 0.35624 0.73452 0.0
N2132 N 0.8618 0.28058 0.74638 0.0
N2133 N 0.86793 0.39901 0.76616 0.0
H2134 H 0.91381 0.36063 0.69439 0.0
H2135 H 0.90876 0.39181 0.71964 0.0
H2136 H 0.8579 0.40929 0.78726 0.0
H2137 H 0.87681 0.41296 0.74772 0.0
H2138 H 0.84936 0.26679 0.76149 0.0
H2139 H 0.87166 0.27063 0.72492 0.0
H2140 H 0.84296 0.28377 0.81123 0.0
H2141 H 0.83273 0.31513 0.83281 0.0
C2142 C 0.63904 0.86941 0.73823 0.0
C2143 C 0.65609 0.85323 0.71466 0.0
C2144 C 0.64715 0.80951 0.7492 0.0
C2145 C 0.63249 0.82631 0.77451 0.0
N2146 N 0.6055 0.86875 0.78719 0.0
N2147 N 0.66951 0.80705 0.69135 0.0
C2148 C 0.62536 0.85518 0.76689 0.0
C2149 C 0.6576 0.82287 0.71791 0.0
N2150 N 0.63705 0.89848 0.73408 0.0
N2151 N 0.6523 0.78118 0.75614 0.0
H2152 H 0.67727 0.8164 0.66825 0.0
H2153 H 0.66957 0.78471 0.6907 0.0
H2154 H 0.66576 0.76828 0.74116 0.0
H2155 H 0.64358 0.77074 0.778 0.0
H2156 H 0.62764 0.91205 0.75255 0.0
H2157 H 0.64593 0.90913 0.71246 0.0
H2158 H 0.59767 0.8892 0.78181 0.0
H2159 H 0.5951 0.85818 0.80781 0.0
C2160 C 0.86054 0.697 0.76423 0.0
C2161 C 0.85995 0.67901 0.73415 0.0
C2162 C 0.84946 0.63735 0.77167 0.0
C2163 C 0.84611 0.65623 0.80096 0.0
N2164 N 0.86778 0.69844 0.82717 0.0
N2165 N 0.86703 0.63144 0.71163 0.0
C2166 C 0.8576 0.68445 0.79812 0.0
C2167 C 0.85836 0.64884 0.73855 0.0
N2168 N 0.86319 0.72605 0.7607 0.0
N2169 N 0.84517 0.60855 0.77575 0.0
H2170 H 0.87621 0.63985 0.68875 0.0
H2171 H 0.86815 0.60915 0.71334 0.0
H2172 H 0.84436 0.59882 0.80054 0.0
H2173 H 0.84312 0.59432 0.75469 0.0
H2174 H 0.86018 0.74022 0.7817 0.0
H2175 H 0.86689 0.73603 0.73652 0.0
H2176 H 0.8778 0.71838 0.82579 0.0
H2177 H 0.87069 0.68816 0.85134 0.0
C2178 C 0.32897 0.81285 0.751 0.0
C2179 C 0.3542 0.82508 0.76486 0.0
C2180 C 0.35658 0.85699 0.71302 0.0
C2181 C 0.32943 0.84686 0.70198 0.0
N2182 N 0.28648 0.8216 0.71722 0.0
N2183 N 0.39146 0.86016 0.76065 0.0
C2184 C 0.31475 0.8265 0.72278 0.0
C2185 C 0.36809 0.84742 0.74611 0.0
N2186 N 0.3184 0.78814 0.7652 0.0
N2187 N 0.37103 0.87594 0.69221 0.0
H2188 H 0.40062 0.85277 0.78407 0.0
H2189 H 0.40099 0.87855 0.75045 0.0
H2190 H 0.36216 0.88479 0.66942 0.0
H2191 H 0.39203 0.88199 0.69675 0.0
H2192 H 0.30135 0.77691 0.75429 0.0
H2193 H 0.32886 0.77735 0.78544 0.0
H2194 H 0.27406 0.80906 0.73402 0.0
H2195 H 0.27475 0.8326 0.69817 0.0
C2196 C 0.15005 0.31082 0.75938 0.0
C2197 C 0.14496 0.33188 0.7331 0.0
C2198 C 0.15177 0.36986 0.77742 0.0
C2199 C 0.15897 0.34853 0.80288 0.0
N2200 N 0.14609 0.30027 0.82134 0.0
N2201 N 0.13052 0.38018 0.72014 0.0
C2202 C 0.15221 0.31942 0.79512 0.0
C2203 C 0.14266 0.36116 0.74305 0.0
N2204 N 0.15421 0.28273 0.75045 0.0
N2205 N 0.15278 0.39824 0.7864 0.0
H2206 H 0.12135 0.37336 0.69652 0.0
H2207 H 0.12656 0.40163 0.72609 0.0
H2208 H 0.15439 0.40507 0.81256 0.0
H2209 H 0.15177 0.41488 0.76808 0.0
H2210 H 0.16104 0.26734 0.76859 0.0
H2211 H 0.15332 0.2754 0.72456 0.0
H2212 H 0.13977 0.27922 0.81619 0.0
H2213 H 0.14218 0.30656 0.84727 0.0
C2214 C 0.64778 0.14865 0.71308 0.0
C2215 C 0.66552 0.1683 0.69451 0.0
C2216 C 0.6499 0.20667 0.7346 0.0
C2217 C 0.63831 0.18592 0.75746 0.0
N2218 N 0.62155 0.13803 0.76695 0.0
N2219 N 0.68529 0.21651 0.69037 0.0
C2220 C 0.63569 0.15711 0.74606 0.0
C2221 C 0.66667 0.19762 0.70554 0.0
N2222 N 0.64179 0.12244 0.69864 0.0
N2223 N 0.64499 0.23508 0.7409 0.0
H2224 H 0.69925 0.21115 0.67015 0.0
H2225 H 0.68902 0.23701 0.70041 0.0
H2226 H 0.63173 0.24188 0.76134 0.0
H2227 H 0.65097 0.25134 0.72351 0.0
H2228 H 0.62747 0.10791 0.70959 0.0
H2229 H 0.64918 0.1162 0.67383 0.0
H2230 H 0.62179 0.11589 0.76308 0.0
H2231 H 0.60955 0.14491 0.78854 0.0
C2232 C 0.84408 0.31951 0.21494 0.0
C2233 C 0.84162 0.34882 0.20403 0.0
C2234 C 0.86669 0.36351 0.25822 0.0
C2235 C 0.86831 0.33441 0.26907 0.0
N2236 N 0.86984 0.28494 0.25026 0.0
N2237 N 0.85942 0.39726 0.21017 0.0
C2238 C 0.86091 0.31252 0.24487 0.0
C2239 C 0.85558 0.37048 0.22417 0.0
N2240 N 0.829 0.29822 0.19858 0.0
N2241 N 0.87604 0.38444 0.28056 0.0
H2242 H 0.85333 0.40257 0.1845 0.0
H2243 H 0.87132 0.41326 0.22241 0.0
H2244 H 0.88765 0.37949 0.30322 0.0
H2245 H 0.87203 0.40624 0.27683 0.0
H2246 H 0.82735 0.27749 0.20878 0.0
H2247 H 0.81576 0.30134 0.17699 0.0
H2248 H 0.86707 0.26868 0.23166 0.0
H2249 H 0.88333 0.27908 0.27081 0.0
C2250 C 0.64726 0.86302 0.24413 0.0
C2251 C 0.64675 0.83363 0.23419 0.0
C2252 C 0.67377 0.82113 0.28743 0.0
C2253 C 0.67505 0.8507 0.29723 0.0
N2254 N 0.65666 0.89868 0.28964 0.0
N2255 N 0.65033 0.78435 0.2528 0.0
C2256 C 0.65988 0.87138 0.27694 0.0
C2257 C 0.65685 0.8126 0.2581 0.0
N2258 N 0.63556 0.88285 0.22194 0.0
N2259 N 0.69019 0.80123 0.30451 0.0
H2260 H 0.63717 0.7775 0.23238 0.0
H2261 H 0.65493 0.76824 0.27103 0.0
H2262 H 0.70348 0.80607 0.32565 0.0
H2263 H 0.69283 0.78025 0.29552 0.0
H2264 H 0.63834 0.90493 0.22458 0.0
H2265 H 0.62311 0.87671 0.20043 0.0
H2266 H 0.64397 0.9142 0.27767 0.0
H2267 H 0.66476 0.90521 0.31399 0.0
C2268 C 0.13688 0.65638 0.25209 0.0
C2269 C 0.15195 0.67926 0.26838 0.0
C2270 C 0.18995 0.67466 0.22483 0.0
C2271 C 0.17406 0.65382 0.20636 0.0
N2272 N 0.13152 0.62547 0.20055 0.0
N2273 N 0.18881 0.71514 0.26415 0.0
C2274 C 0.14706 0.64498 0.21928 0.0
C2275 C 0.177 0.69013 0.25238 0.0
N2276 N 0.11392 0.64464 0.26877 0.0
N2277 N 0.21817 0.67842 0.21768 0.0
H2278 H 0.18002 0.72685 0.28483 0.0
H2279 H 0.20553 0.72544 0.25122 0.0
H2280 H 0.22899 0.66619 0.19897 0.0
H2281 H 0.23145 0.69135 0.23296 0.0
H2282 H 0.10385 0.62596 0.26033 0.0
H2283 H 0.10575 0.65299 0.29222 0.0
H2284 H 0.11047 0.62038 0.20634 0.0
H2285 H 0.13959 0.61511 0.17828 0.0
C2286 C 0.3617 0.1397 0.27954 0.0
C2287 C 0.34388 0.15971 0.29744 0.0
C2288 C 0.36005 0.19735 0.25697 0.0
C2289 C 0.37154 0.17619 0.23451 0.0
N2290 N 0.38701 0.12774 0.2255 0.0
N2291 N 0.32395 0.20786 0.30013 0.0
C2292 C 0.37365 0.14747 0.24632 0.0
C2293 C 0.34281 0.18879 0.28575 0.0
N2294 N 0.36798 0.11386 0.2948 0.0
N2295 N 0.36545 0.22564 0.25055 0.0
H2296 H 0.3096 0.2026 0.32 0.0
H2297 H 0.32047 0.22827 0.28969 0.0
H2298 H 0.37946 0.23205 0.23075 0.0
H2299 H 0.35923 0.24209 0.26755 0.0
H2300 H 0.38249 0.09931 0.28424 0.0
H2301 H 0.36082 0.10811 0.31989 0.0
H2302 H 0.38621 0.10568 0.22991 0.0
H2303 H 0.39864 0.13396 0.20331 0.0
loop_
_geom_bond_atom_site_label_1
_geom_bond_atom_site_label_2
_geom_bond_distance
_geom_bond_site_symmetry_2
_ccdc_geom_bond_type
Mn0 O5 2.095 . S
Mn0 O15 2.162 . S
Mn0 O16 2.297 . S
Mn0 O24 2.385 . S
Mn0 O25 2.209 . S
Mn0 O26 2.094 . S
Mn1 O6 2.121 . S
Mn1 N8 2.257 . S
Mn1 N17 2.282 . S
Mn1 O25 2.215 . S
Mn1 O27 2.117 . S
C2 O24 1.234 . S
C2 O25 1.283 . S
C3 O15 1.281 . S
C3 O16 1.236 . S
C4 O26 1.240 . S
C4 O27 1.264 . S
O5 Mn0 2.095 . S
O5 C14 1.250 . S
O6 Mn1 2.121 . S
O6 C14 1.258 . S
C7 N8 1.326 . S
C7 C11 1.460 . S
C7 H13 0.929 . S
N8 Mn1 2.257 . S
N8 C7 1.326 . S
N8 C12 1.362 . S
C9 C10 1.258 . S
C9 C12 1.431 . S
C9 C29 1.449 . S
C10 C9 1.258 . S
C10 C11 1.477 . S
C10 H30 0.931 . S
C11 C7 1.460 . S
C11 C10 1.477 . S
C11 H31 0.930 . S
C12 N8 1.362 . S
C12 C9 1.431 . S
C12 C22 1.476 . S
H13 C7 0.929 . S
C14 O5 1.250 . S
C14 O6 1.258 . S
O15 Mn0 2.162 . S
O15 C3 1.281 . S
O16 Mn0 2.297 . S
O16 C3 1.236 . S
N17 Mn1 2.282 . S
N17 C18 1.328 . S
N17 C22 1.318 . S
C18 N17 1.328 . S
C18 C19 1.457 . S
C18 H23 0.929 . S
C19 C18 1.457 . S
C19 C20 1.291 . S
C19 H32 0.931 . S
C20 C19 1.291 . S
C20 C21 1.373 . S
C20 H33 0.929 . S
C21 C20 1.373 . S
C21 C22 1.396 . S
C21 C28 1.403 . S
C22 C12 1.476 . S
C22 N17 1.318 . S
C22 C21 1.396 . S
H23 C18 0.929 . S
O24 Mn0 2.385 . S
O24 C2 1.234 . S
O25 Mn0 2.209 . S
O25 Mn1 2.215 . S
O25 C2 1.283 . S
O26 Mn0 2.094 . S
O26 C4 1.240 . S
O27 Mn1 2.117 . S
O27 C4 1.264 . S
C28 C21 1.403 . S
C28 C29 1.399 . S
C28 H34 0.929 . S
C29 C9 1.449 . S
C29 C28 1.399 . S
C29 H35 0.930 . S
H30 C10 0.931 . S
H31 C11 0.930 . S
H32 C19 0.931 . S
H33 C20 0.929 . S
H34 C28 0.929 . S
H35 C29 0.930 . S
Mn36 O41 2.095 . S
Mn36 O51 2.162 . S
Mn36 O52 2.297 . S
Mn36 O60 2.385 . S
Mn36 O61 2.209 . S
Mn36 O62 2.094 . S
Mn37 O42 2.121 . S
Mn37 N44 2.257 . S
Mn37 N53 2.282 . S
Mn37 O61 2.215 . S
Mn37 O63 2.117 . S
C38 O60 1.234 . S
C38 O61 1.283 . S
C39 O51 1.281 . S
C39 O52 1.236 . S
C40 O62 1.240 . S
C40 O63 1.264 . S
O41 Mn36 2.095 . S
O41 C50 1.250 . S
O42 Mn37 2.121 . S
O42 C50 1.258 . S
C43 N44 1.326 . S
C43 C47 1.460 . S
C43 H49 0.929 . S
N44 Mn37 2.257 . S
N44 C43 1.326 . S
N44 C48 1.362 . S
C45 C46 1.258 . S
C45 C48 1.431 . S
C45 C65 1.449 . S
C46 C45 1.258 . S
C46 C47 1.477 . S
C46 H66 0.931 . S
C47 C43 1.460 . S
C47 C46 1.477 . S
C47 H67 0.930 . S
C48 N44 1.362 . S
C48 C45 1.431 . S
C48 C58 1.476 . S
H49 C43 0.929 . S
C50 O41 1.250 . S
C50 O42 1.258 . S
O51 Mn36 2.162 . S
O51 C39 1.281 . S
O52 Mn36 2.297 . S
O52 C39 1.236 . S
N53 Mn37 2.282 . S
N53 C54 1.328 . S
N53 C58 1.318 . S
C54 N53 1.328 . S
C54 C55 1.457 . S
C54 H59 0.929 . S
C55 C54 1.457 . S
C55 C56 1.291 . S
C55 H68 0.931 . S
C56 C55 1.291 . S
C56 C57 1.373 . S
C56 H69 0.929 . S
C57 C56 1.373 . S
C57 C58 1.396 . S
C57 C64 1.403 . S
C58 C48 1.476 . S
C58 N53 1.318 . S
C58 C57 1.396 . S
H59 C54 0.929 . S
O60 Mn36 2.385 . S
O60 C38 1.234 . S
O61 Mn36 2.209 . S
O61 Mn37 2.215 . S
O61 C38 1.283 . S
O62 Mn36 2.094 . S
O62 C40 1.240 . S
O63 Mn37 2.117 . S
O63 C40 1.264 . S
C64 C57 1.403 . S
C64 C65 1.399 . S
C64 H70 0.929 . S
C65 C45 1.449 . S
C65 C64 1.399 . S
C65 H71 0.930 . S
H66 C46 0.931 . S
H67 C47 0.930 . S
H68 C55 0.931 . S
H69 C56 0.929 . S
H70 C64 0.929 . S
H71 C65 0.930 . S
Mn72 O77 2.095 . S
Mn72 O87 2.162 . S
Mn72 O88 2.297 . S
Mn72 O96 2.385 . S
Mn72 O97 2.209 . S
Mn72 O98 2.094 . S
Mn73 O78 2.121 . S
Mn73 N80 2.257 . S
Mn73 N89 2.282 . S
Mn73 O97 2.215 . S
Mn73 O99 2.117 . S
C74 O96 1.234 . S
C74 O97 1.283 . S
C75 O87 1.281 . S
C75 O88 1.236 . S
C76 O98 1.240 . S
C76 O99 1.264 . S
O77 Mn72 2.095 . S
O77 C86 1.250 . S
O78 Mn73 2.121 . S
O78 C86 1.258 . S
C79 N80 1.326 . S
C79 C83 1.460 . S
C79 H85 0.929 . S
N80 Mn73 2.257 . S
N80 C79 1.326 . S
N80 C84 1.362 . S
C81 C82 1.258 . S
C81 C84 1.431 . S
C81 C101 1.449 . S
C82 C81 1.258 . S
C82 C83 1.477 . S
C82 H102 0.931 . S
C83 C79 1.460 . S
C83 C82 1.477 . S
C83 H103 0.930 . S
C84 N80 1.362 . S
C84 C81 1.431 . S
C84 C94 1.476 . S
H85 C79 0.929 . S
C86 O77 1.250 . S
C86 O78 1.258 . S
O87 Mn72 2.162 . S
O87 C75 1.281 . S
O88 Mn72 2.297 . S
O88 C75 1.236 . S
N89 Mn73 2.282 . S
N89 C90 1.328 . S
N89 C94 1.318 . S
C90 N89 1.328 . S
C90 C91 1.457 . S
C90 H95 0.929 . S
C91 C90 1.457 . S
C91 C92 1.291 . S
C91 H104 0.931 . S
C92 C91 1.291 . S
C92 C93 1.373 . S
C92 H105 0.929 . S
C93 C92 1.373 . S
C93 C94 1.396 . S
C93 C100 1.403 . S
C94 C84 1.476 . S
C94 N89 1.318 . S
C94 C93 1.396 . S
H95 C90 0.929 . S
O96 Mn72 2.385 . S
O96 C74 1.234 . S
O97 Mn72 2.209 . S
O97 Mn73 2.215 . S
O97 C74 1.283 . S
O98 Mn72 2.094 . S
O98 C76 1.240 . S
O99 Mn73 2.117 . S
O99 C76 1.264 . S
C100 C93 1.403 . S
C100 C101 1.399 . S
C100 H106 0.929 . S
C101 C81 1.449 . S
C101 C100 1.399 . S
C101 H107 0.930 . S
H102 C82 0.931 . S
H103 C83 0.930 . S
H104 C91 0.931 . S
H105 C92 0.929 . S
H106 C100 0.929 . S
H107 C101 0.930 . S
Mn108 O113 2.095 . S
Mn108 O123 2.162 . S
Mn108 O124 2.297 . S
Mn108 O132 2.385 . S
Mn108 O133 2.209 . S
Mn108 O134 2.094 . S
Mn109 O114 2.121 . S
Mn109 N116 2.257 . S
Mn109 N125 2.282 . S
Mn109 O133 2.215 . S
Mn109 O135 2.117 . S
C110 O132 1.234 . S
C110 O133 1.283 . S
C111 O123 1.281 . S
C111 O124 1.236 . S
C112 O134 1.240 . S
C112 O135 1.264 . S
O113 Mn108 2.095 . S
O113 C122 1.250 . S
O114 Mn109 2.121 . S
O114 C122 1.258 . S
C115 N116 1.326 . S
C115 C119 1.460 . S
C115 H121 0.929 . S
N116 Mn109 2.257 . S
N116 C115 1.326 . S
N116 C120 1.362 . S
C117 C118 1.258 . S
C117 C120 1.431 . S
C117 C137 1.449 . S
C118 C117 1.258 . S
C118 C119 1.477 . S
C118 H138 0.931 . S
C119 C115 1.460 . S
C119 C118 1.477 . S
C119 H139 0.930 . S
C120 N116 1.362 . S
C120 C117 1.431 . S
C120 C130 1.476 . S
H121 C115 0.929 . S
C122 O113 1.250 . S
C122 O114 1.258 . S
O123 Mn108 2.162 . S
O123 C111 1.281 . S
O124 Mn108 2.297 . S
O124 C111 1.236 . S
N125 Mn109 2.282 . S
N125 C126 1.328 . S
N125 C130 1.318 . S
C126 N125 1.328 . S
C126 C127 1.457 . S
C126 H131 0.929 . S
C127 C126 1.457 . S
C127 C128 1.291 . S
C127 H140 0.931 . S
C128 C127 1.291 . S
C128 C129 1.373 . S
C128 H141 0.929 . S
C129 C128 1.373 . S
C129 C130 1.396 . S
C129 C136 1.403 . S
C130 C120 1.476 . S
C130 N125 1.318 . S
C130 C129 1.396 . S
H131 C126 0.929 . S
O132 Mn108 2.385 . S
O132 C110 1.234 . S
O133 Mn108 2.209 . S
O133 Mn109 2.215 . S
O133 C110 1.283 . S
O134 Mn108 2.094 . S
O134 C112 1.240 . S
O135 Mn109 2.117 . S
O135 C112 1.264 . S
C136 C129 1.403 . S
C136 C137 1.399 . S
C136 H142 0.929 . S
C137 C117 1.449 . S
C137 C136 1.399 . S
C137 H143 0.930 . S
H138 C118 0.931 . S
H139 C119 0.930 . S
H140 C127 0.931 . S
H141 C128 0.929 . S
H142 C136 0.929 . S
H143 C137 0.930 . S
Mn144 O149 2.095 . S
Mn144 O159 2.162 . S
Mn144 O160 2.297 . S
Mn144 O168 2.385 . S
Mn144 O169 2.209 . S
Mn144 O170 2.094 . S
Mn145 O150 2.121 . S
Mn145 N152 2.257 . S
Mn145 N161 2.282 . S
Mn145 O169 2.215 . S
Mn145 O171 2.117 . S
C146 O168 1.234 . S
C146 O169 1.283 . S
C147 O159 1.281 . S
C147 O160 1.236 . S
C148 O170 1.240 . S
C148 O171 1.264 . S
O149 Mn144 2.095 . S
O149 C158 1.250 . S
O150 Mn145 2.121 . S
O150 C158 1.258 . S
C151 N152 1.326 . S
C151 C155 1.460 . S
C151 H157 0.929 . S
N152 Mn145 2.257 . S
N152 C151 1.326 . S
N152 C156 1.362 . S
C153 C154 1.258 . S
C153 C156 1.431 . S
C153 C173 1.449 . S
C154 C153 1.258 . S
C154 C155 1.477 . S
C154 H174 0.931 . S
C155 C151 1.460 . S
C155 C154 1.477 . S
C155 H175 0.930 . S
C156 N152 1.362 . S
C156 C153 1.431 . S
C156 C166 1.476 . S
H157 C151 0.929 . S
C158 O149 1.250 . S
C158 O150 1.258 . S
O159 Mn144 2.162 . S
O159 C147 1.281 . S
O160 Mn144 2.297 . S
O160 C147 1.236 . S
N161 Mn145 2.282 . S
N161 C162 1.328 . S
N161 C166 1.318 . S
C162 N161 1.328 . S
C162 C163 1.457 . S
C162 H167 0.929 . S
C163 C162 1.457 . S
C163 C164 1.291 . S
C163 H176 0.931 . S
C164 C163 1.291 . S
C164 C165 1.373 . S
C164 H177 0.929 . S
C165 C164 1.373 . S
C165 C166 1.396 . S
C165 C172 1.403 . S
C166 C156 1.476 . S
C166 N161 1.318 . S
C166 C165 1.396 . S
H167 C162 0.929 . S
O168 Mn144 2.385 . S
O168 C146 1.234 . S
O169 Mn144 2.209 . S
O169 Mn145 2.215 . S
O169 C146 1.283 . S
O170 Mn144 2.094 . S
O170 C148 1.240 . S
O171 Mn145 2.117 . S
O171 C148 1.264 . S
C172 C165 1.403 . S
C172 C173 1.399 . S
C172 H178 0.929 . S
C173 C153 1.449 . S
C173 C172 1.399 . S
C173 H179 0.930 . S
H174 C154 0.931 . S
H175 C155 0.930 . S
H176 C163 0.931 . S
H177 C164 0.929 . S
H178 C172 0.929 . S
H179 C173 0.930 . S
Mn180 O185 2.095 . S
Mn180 O195 2.162 . S
Mn180 O196 2.297 . S
Mn180 O204 2.385 . S
Mn180 O205 2.209 . S
Mn180 O206 2.094 . S
Mn181 O186 2.121 . S
Mn181 N188 2.257 . S
Mn181 N197 2.282 . S
Mn181 O205 2.215 . S
Mn181 O207 2.117 . S
C182 O204 1.234 . S
C182 O205 1.283 . S
C183 O195 1.281 . S
C183 O196 1.236 . S
C184 O206 1.240 . S
C184 O207 1.264 . S
O185 Mn180 2.095 . S
O185 C194 1.250 . S
O186 Mn181 2.121 . S
O186 C194 1.258 . S
C187 N188 1.326 . S
C187 C191 1.460 . S
C187 H193 0.929 . S
N188 Mn181 2.257 . S
N188 C187 1.326 . S
N188 C192 1.362 . S
C189 C190 1.258 . S
C189 C192 1.431 . S
C189 C209 1.449 . S
C190 C189 1.258 . S
C190 C191 1.477 . S
C190 H210 0.931 . S
C191 C187 1.460 . S
C191 C190 1.477 . S
C191 H211 0.930 . S
C192 N188 1.362 . S
C192 C189 1.431 . S
C192 C202 1.476 . S
H193 C187 0.929 . S
C194 O185 1.250 . S
C194 O186 1.258 . S
O195 Mn180 2.162 . S
O195 C183 1.281 . S
O196 Mn180 2.297 . S
O196 C183 1.236 . S
N197 Mn181 2.282 . S
N197 C198 1.328 . S
N197 C202 1.318 . S
C198 N197 1.328 . S
C198 C199 1.457 . S
C198 H203 0.929 . S
C199 C198 1.457 . S
C199 C200 1.291 . S
C199 H212 0.931 . S
C200 C199 1.291 . S
C200 C201 1.373 . S
C200 H213 0.929 . S
C201 C200 1.373 . S
C201 C202 1.396 . S
C201 C208 1.403 . S
C202 C192 1.476 . S
C202 N197 1.318 . S
C202 C201 1.396 . S
H203 C198 0.929 . S
O204 Mn180 2.385 . S
O204 C182 1.234 . S
O205 Mn180 2.209 . S
O205 Mn181 2.215 . S
O205 C182 1.283 . S
O206 Mn180 2.094 . S
O206 C184 1.240 . S
O207 Mn181 2.117 . S
O207 C184 1.264 . S
C208 C201 1.403 . S
C208 C209 1.399 . S
C208 H214 0.929 . S
C209 C189 1.449 . S
C209 C208 1.399 . S
C209 H215 0.930 . S
H210 C190 0.931 . S
H211 C191 0.930 . S
H212 C199 0.931 . S
H213 C200 0.929 . S
H214 C208 0.929 . S
H215 C209 0.930 . S
Mn216 O221 2.095 . S
Mn216 O231 2.162 . S
Mn216 O232 2.297 . S
Mn216 O240 2.385 . S
Mn216 O241 2.209 . S
Mn216 O242 2.094 . S
Mn217 O222 2.121 . S
Mn217 N224 2.257 . S
Mn217 N233 2.282 . S
Mn217 O241 2.215 . S
Mn217 O243 2.117 . S
C218 O240 1.234 . S
C218 O241 1.283 . S
C219 O231 1.281 . S
C219 O232 1.236 . S
C220 O242 1.240 . S
C220 O243 1.264 . S
O221 Mn216 2.095 . S
O221 C230 1.250 . S
O222 Mn217 2.121 . S
O222 C230 1.258 . S
C223 N224 1.326 . S
C223 C227 1.460 . S
C223 H229 0.929 . S
N224 Mn217 2.257 . S
N224 C223 1.326 . S
N224 C228 1.362 . S
C225 C226 1.258 . S
C225 C228 1.431 . S
C225 C245 1.449 . S
C226 C225 1.258 . S
C226 C227 1.477 . S
C226 H246 0.931 . S
C227 C223 1.460 . S
C227 C226 1.477 . S
C227 H247 0.930 . S
C228 N224 1.362 . S
C228 C225 1.431 . S
C228 C238 1.476 . S
H229 C223 0.929 . S
C230 O221 1.250 . S
C230 O222 1.258 . S
O231 Mn216 2.162 . S
O231 C219 1.281 . S
O232 Mn216 2.297 . S
O232 C219 1.236 . S
N233 Mn217 2.282 . S
N233 C234 1.328 . S
N233 C238 1.318 . S
C234 N233 1.328 . S
C234 C235 1.457 . S
C234 H239 0.929 . S
C235 C234 1.457 . S
C235 C236 1.291 . S
C235 H248 0.931 . S
C236 C235 1.291 . S
C236 C237 1.373 . S
C236 H249 0.929 . S
C237 C236 1.373 . S
C237 C238 1.396 . S
C237 C244 1.403 . S
C238 C228 1.476 . S
C238 N233 1.318 . S
C238 C237 1.396 . S
H239 C234 0.929 . S
O240 Mn216 2.385 . S
O240 C218 1.234 . S
O241 Mn216 2.209 . S
O241 Mn217 2.215 . S
O241 C218 1.283 . S
O242 Mn216 2.094 . S
O242 C220 1.240 . S
O243 Mn217 2.117 . S
O243 C220 1.264 . S
C244 C237 1.403 . S
C244 C245 1.399 . S
C244 H250 0.929 . S
C245 C225 1.449 . S
C245 C244 1.399 . S
C245 H251 0.930 . S
H246 C226 0.931 . S
H247 C227 0.930 . S
H248 C235 0.931 . S
H249 C236 0.929 . S
H250 C244 0.929 . S
H251 C245 0.930 . S
Mn252 O257 2.095 . S
Mn252 O267 2.162 . S
Mn252 O268 2.297 . S
Mn252 O276 2.385 . S
Mn252 O277 2.209 . S
Mn252 O278 2.094 . S
Mn253 O258 2.121 . S
Mn253 N260 2.257 . S
Mn253 N269 2.282 . S
Mn253 O277 2.215 . S
Mn253 O279 2.117 . S
C254 O276 1.234 . S
C254 O277 1.283 . S
C255 O267 1.281 . S
C255 O268 1.236 . S
C256 O278 1.240 . S
C256 O279 1.264 . S
O257 Mn252 2.095 . S
O257 C266 1.250 . S
O258 Mn253 2.121 . S
O258 C266 1.258 . S
C259 N260 1.326 . S
C259 C263 1.460 . S
C259 H265 0.929 . S
N260 Mn253 2.257 . S
N260 C259 1.326 . S
N260 C264 1.362 . S
C261 C262 1.258 . S
C261 C264 1.431 . S
C261 C281 1.449 . S
C262 C261 1.258 . S
C262 C263 1.477 . S
C262 H282 0.931 . S
C263 C259 1.460 . S
C263 C262 1.477 . S
C263 H283 0.930 . S
C264 N260 1.362 . S
C264 C261 1.431 . S
C264 C274 1.476 . S
H265 C259 0.929 . S
C266 O257 1.250 . S
C266 O258 1.258 . S
O267 Mn252 2.162 . S
O267 C255 1.281 . S
O268 Mn252 2.297 . S
O268 C255 1.236 . S
N269 Mn253 2.282 . S
N269 C270 1.328 . S
N269 C274 1.318 . S
C270 N269 1.328 . S
C270 C271 1.457 . S
C270 H275 0.929 . S
C271 C270 1.457 . S
C271 C272 1.291 . S
C271 H284 0.931 . S
C272 C271 1.291 . S
C272 C273 1.373 . S
C272 H285 0.929 . S
C273 C272 1.373 . S
C273 C274 1.396 . S
C273 C280 1.403 . S
C274 C264 1.476 . S
C274 N269 1.318 . S
C274 C273 1.396 . S
H275 C270 0.929 . S
O276 Mn252 2.385 . S
O276 C254 1.234 . S
O277 Mn252 2.209 . S
O277 Mn253 2.215 . S
O277 C254 1.283 . S
O278 Mn252 2.094 . S
O278 C256 1.240 . S
O279 Mn253 2.117 . S
O279 C256 1.264 . S
C280 C273 1.403 . S
C280 C281 1.399 . S
C280 H286 0.929 . S
C281 C261 1.449 . S
C281 C280 1.399 . S
C281 H287 0.930 . S
H282 C262 0.931 . S
H283 C263 0.930 . S
H284 C271 0.931 . S
H285 C272 0.929 . S
H286 C280 0.929 . S
H287 C281 0.930 . S
Mn288 O293 2.095 . S
Mn288 O303 2.162 . S
Mn288 O304 2.297 . S
Mn288 O312 2.385 . S
Mn288 O313 2.209 . S
Mn288 O314 2.094 . S
Mn289 O294 2.121 . S
Mn289 N296 2.257 . S
Mn289 N305 2.282 . S
Mn289 O313 2.215 . S
Mn289 O315 2.117 . S
C290 O312 1.234 . S
C290 O313 1.283 . S
C291 O303 1.281 . S
C291 O304 1.236 . S
C292 O314 1.240 . S
C292 O315 1.264 . S
O293 Mn288 2.095 . S
O293 C302 1.250 . S
O294 Mn289 2.121 . S
O294 C302 1.258 . S
C295 N296 1.326 . S
C295 C299 1.460 . S
C295 H301 0.929 . S
N296 Mn289 2.257 . S
N296 C295 1.326 . S
N296 C300 1.362 . S
C297 C298 1.258 . S
C297 C300 1.431 . S
C297 C317 1.449 . S
C298 C297 1.258 . S
C298 C299 1.477 . S
C298 H318 0.931 . S
C299 C295 1.460 . S
C299 C298 1.477 . S
C299 H319 0.930 . S
C300 N296 1.362 . S
C300 C297 1.431 . S
C300 C310 1.476 . S
H301 C295 0.929 . S
C302 O293 1.250 . S
C302 O294 1.258 . S
O303 Mn288 2.162 . S
O303 C291 1.281 . S
O304 Mn288 2.297 . S
O304 C291 1.236 . S
N305 Mn289 2.282 . S
N305 C306 1.328 . S
N305 C310 1.318 . S
C306 N305 1.328 . S
C306 C307 1.457 . S
C306 H311 0.929 . S
C307 C306 1.457 . S
C307 C308 1.291 . S
C307 H320 0.931 . S
C308 C307 1.291 . S
C308 C309 1.373 . S
C308 H321 0.929 . S
C309 C308 1.373 . S
C309 C310 1.396 . S
C309 C316 1.403 . S
C310 C300 1.476 . S
C310 N305 1.318 . S
C310 C309 1.396 . S
H311 C306 0.929 . S
O312 Mn288 2.385 . S
O312 C290 1.234 . S
O313 Mn288 2.209 . S
O313 Mn289 2.215 . S
O313 C290 1.283 . S
O314 Mn288 2.094 . S
O314 C292 1.240 . S
O315 Mn289 2.117 . S
O315 C292 1.264 . S
C316 C309 1.403 . S
C316 C317 1.399 . S
C316 H322 0.929 . S
C317 C297 1.449 . S
C317 C316 1.399 . S
C317 H323 0.930 . S
H318 C298 0.931 . S
H319 C299 0.930 . S
H320 C307 0.931 . S
H321 C308 0.929 . S
H322 C316 0.929 . S
H323 C317 0.930 . S
Mn324 O329 2.095 . S
Mn324 O339 2.162 . S
Mn324 O340 2.297 . S
Mn324 O348 2.385 . S
Mn324 O349 2.209 . S
Mn324 O350 2.094 . S
Mn325 O330 2.121 . S
Mn325 N332 2.257 . S
Mn325 N341 2.282 . S
Mn325 O349 2.215 . S
Mn325 O351 2.117 . S
C326 O348 1.234 . S
C326 O349 1.283 . S
C327 O339 1.281 . S
C327 O340 1.236 . S
C328 O350 1.240 . S
C328 O351 1.264 . S
O329 Mn324 2.095 . S
O329 C338 1.250 . S
O330 Mn325 2.121 . S
O330 C338 1.258 . S
C331 N332 1.326 . S
C331 C335 1.460 . S
C331 H337 0.929 . S
N332 Mn325 2.257 . S
N332 C331 1.326 . S
N332 C336 1.362 . S
C333 C334 1.258 . S
C333 C336 1.431 . S
C333 C353 1.449 . S
C334 C333 1.258 . S
C334 C335 1.477 . S
C334 H354 0.931 . S
C335 C331 1.460 . S
C335 C334 1.477 . S
C335 H355 0.930 . S
C336 N332 1.362 . S
C336 C333 1.431 . S
C336 C346 1.476 . S
H337 C331 0.929 . S
C338 O329 1.250 . S
C338 O330 1.258 . S
O339 Mn324 2.162 . S
O339 C327 1.281 . S
O340 Mn324 2.297 . S
O340 C327 1.236 . S
N341 Mn325 2.282 . S
N341 C342 1.328 . S
N341 C346 1.318 . S
C342 N341 1.328 . S
C342 C343 1.457 . S
C342 H347 0.929 . S
C343 C342 1.457 . S
C343 C344 1.291 . S
C343 H356 0.931 . S
C344 C343 1.291 . S
C344 C345 1.373 . S
C344 H357 0.929 . S
C345 C344 1.373 . S
C345 C346 1.396 . S
C345 C352 1.403 . S
C346 C336 1.476 . S
C346 N341 1.318 . S
C346 C345 1.396 . S
H347 C342 0.929 . S
O348 Mn324 2.385 . S
O348 C326 1.234 . S
O349 Mn324 2.209 . S
O349 Mn325 2.215 . S
O349 C326 1.283 . S
O350 Mn324 2.094 . S
O350 C328 1.240 . S
O351 Mn325 2.117 . S
O351 C328 1.264 . S
C352 C345 1.403 . S
C352 C353 1.399 . S
C352 H358 0.929 . S
C353 C333 1.449 . S
C353 C352 1.399 . S
C353 H359 0.930 . S
H354 C334 0.931 . S
H355 C335 0.930 . S
H356 C343 0.931 . S
H357 C344 0.929 . S
H358 C352 0.929 . S
H359 C353 0.930 . S
Mn360 O365 2.095 . S
Mn360 O375 2.162 . S
Mn360 O376 2.297 . S
Mn360 O384 2.385 . S
Mn360 O385 2.209 . S
Mn360 O386 2.094 . S
Mn361 O366 2.121 . S
Mn361 N368 2.257 . S
Mn361 N377 2.282 . S
Mn361 O385 2.215 . S
Mn361 O387 2.117 . S
C362 O384 1.234 . S
C362 O385 1.283 . S
C363 O375 1.281 . S
C363 O376 1.236 . S
C364 O386 1.240 . S
C364 O387 1.264 . S
O365 Mn360 2.095 . S
O365 C374 1.250 . S
O366 Mn361 2.121 . S
O366 C374 1.258 . S
C367 N368 1.326 . S
C367 C371 1.460 . S
C367 H373 0.929 . S
N368 Mn361 2.257 . S
N368 C367 1.326 . S
N368 C372 1.362 . S
C369 C370 1.258 . S
C369 C372 1.431 . S
C369 C389 1.449 . S
C370 C369 1.258 . S
C370 C371 1.477 . S
C370 H390 0.931 . S
C371 C367 1.460 . S
C371 C370 1.477 . S
C371 H391 0.930 . S
C372 N368 1.362 . S
C372 C369 1.431 . S
C372 C382 1.476 . S
H373 C367 0.929 . S
C374 O365 1.250 . S
C374 O366 1.258 . S
O375 Mn360 2.162 . S
O375 C363 1.281 . S
O376 Mn360 2.297 . S
O376 C363 1.236 . S
N377 Mn361 2.282 . S
N377 C378 1.328 . S
N377 C382 1.318 . S
C378 N377 1.328 . S
C378 C379 1.457 . S
C378 H383 0.929 . S
C379 C378 1.457 . S
C379 C380 1.291 . S
C379 H392 0.931 . S
C380 C379 1.291 . S
C380 C381 1.373 . S
C380 H393 0.929 . S
C381 C380 1.373 . S
C381 C382 1.396 . S
C381 C388 1.403 . S
C382 C372 1.476 . S
C382 N377 1.318 . S
C382 C381 1.396 . S
H383 C378 0.929 . S
O384 Mn360 2.385 . S
O384 C362 1.234 . S
O385 Mn360 2.209 . S
O385 Mn361 2.215 . S
O385 C362 1.283 . S
O386 Mn360 2.094 . S
O386 C364 1.240 . S
O387 Mn361 2.117 . S
O387 C364 1.264 . S
C388 C381 1.403 . S
C388 C389 1.399 . S
C388 H394 0.929 . S
C389 C369 1.449 . S
C389 C388 1.399 . S
C389 H395 0.930 . S
H390 C370 0.931 . S
H391 C371 0.930 . S
H392 C379 0.931 . S
H393 C380 0.929 . S
H394 C388 0.929 . S
H395 C389 0.930 . S
Mn396 O401 2.095 . S
Mn396 O411 2.162 . S
Mn396 O412 2.297 . S
Mn396 O420 2.385 . S
Mn396 O421 2.209 . S
Mn396 O422 2.094 . S
Mn397 O402 2.121 . S
Mn397 N404 2.257 . S
Mn397 N413 2.282 . S
Mn397 O421 2.215 . S
Mn397 O423 2.117 . S
C398 O420 1.234 . S
C398 O421 1.283 . S
C399 O411 1.281 . S
C399 O412 1.236 . S
C400 O422 1.240 . S
C400 O423 1.264 . S
O401 Mn396 2.095 . S
O401 C410 1.250 . S
O402 Mn397 2.121 . S
O402 C410 1.258 . S
C403 N404 1.326 . S
C403 C407 1.460 . S
C403 H409 0.929 . S
N404 Mn397 2.257 . S
N404 C403 1.326 . S
N404 C408 1.362 . S
C405 C406 1.258 . S
C405 C408 1.431 . S
C405 C425 1.449 . S
C406 C405 1.258 . S
C406 C407 1.477 . S
C406 H426 0.931 . S
C407 C403 1.460 . S
C407 C406 1.477 . S
C407 H427 0.930 . S
C408 N404 1.362 . S
C408 C405 1.431 . S
C408 C418 1.476 . S
H409 C403 0.929 . S
C410 O401 1.250 . S
C410 O402 1.258 . S
O411 Mn396 2.162 . S
O411 C399 1.281 . S
O412 Mn396 2.297 . S
O412 C399 1.236 . S
N413 Mn397 2.282 . S
N413 C414 1.328 . S
N413 C418 1.318 . S
C414 N413 1.328 . S
C414 C415 1.457 . S
C414 H419 0.929 . S
C415 C414 1.457 . S
C415 C416 1.291 . S
C415 H428 0.931 . S
C416 C415 1.291 . S
C416 C417 1.373 . S
C416 H429 0.929 . S
C417 C416 1.373 . S
C417 C418 1.396 . S
C417 C424 1.403 . S
C418 C408 1.476 . S
C418 N413 1.318 . S
C418 C417 1.396 . S
H419 C414 0.929 . S
O420 Mn396 2.385 . S
O420 C398 1.234 . S
O421 Mn396 2.209 . S
O421 Mn397 2.215 . S
O421 C398 1.283 . S
O422 Mn396 2.094 . S
O422 C400 1.240 . S
O423 Mn397 2.117 . S
O423 C400 1.264 . S
C424 C417 1.403 . S
C424 C425 1.399 . S
C424 H430 0.929 . S
C425 C405 1.449 . S
C425 C424 1.399 . S
C425 H431 0.930 . S
H426 C406 0.931 . S
H427 C407 0.930 . S
H428 C415 0.931 . S
H429 C416 0.929 . S
H430 C424 0.929 . S
H431 C425 0.930 . S
Mn432 O437 2.095 . S
Mn432 O447 2.162 . S
Mn432 O448 2.297 . S
Mn432 O456 2.385 . S
Mn432 O457 2.209 . S
Mn432 O458 2.094 . S
Mn433 O438 2.121 . S
Mn433 N440 2.257 . S
Mn433 N449 2.282 . S
Mn433 O457 2.215 . S
Mn433 O459 2.117 . S
C434 O456 1.234 . S
C434 O457 1.283 . S
C435 O447 1.281 . S
C435 O448 1.236 . S
C436 O458 1.240 . S
C436 O459 1.264 . S
O437 Mn432 2.095 . S
O437 C446 1.250 . S
O438 Mn433 2.121 . S
O438 C446 1.258 . S
C439 N440 1.326 . S
C439 C443 1.460 . S
C439 H445 0.929 . S
N440 Mn433 2.257 . S
N440 C439 1.326 . S
N440 C444 1.362 . S
C441 C442 1.258 . S
C441 C444 1.431 . S
C441 C461 1.449 . S
C442 C441 1.258 . S
C442 C443 1.477 . S
C442 H462 0.931 . S
C443 C439 1.460 . S
C443 C442 1.477 . S
C443 H463 0.930 . S
C444 N440 1.362 . S
C444 C441 1.431 . S
C444 C454 1.476 . S
H445 C439 0.929 . S
C446 O437 1.250 . S
C446 O438 1.258 . S
O447 Mn432 2.162 . S
O447 C435 1.281 . S
O448 Mn432 2.297 . S
O448 C435 1.236 . S
N449 Mn433 2.282 . S
N449 C450 1.328 . S
N449 C454 1.318 . S
C450 N449 1.328 . S
C450 C451 1.457 . S
C450 H455 0.929 . S
C451 C450 1.457 . S
C451 C452 1.291 . S
C451 H464 0.931 . S
C452 C451 1.291 . S
C452 C453 1.373 . S
C452 H465 0.929 . S
C453 C452 1.373 . S
C453 C454 1.396 . S
C453 C460 1.403 . S
C454 C444 1.476 . S
C454 N449 1.318 . S
C454 C453 1.396 . S
H455 C450 0.929 . S
O456 Mn432 2.385 . S
O456 C434 1.234 . S
O457 Mn432 2.209 . S
O457 Mn433 2.215 . S
O457 C434 1.283 . S
O458 Mn432 2.094 . S
O458 C436 1.240 . S
O459 Mn433 2.117 . S
O459 C436 1.264 . S
C460 C453 1.403 . S
C460 C461 1.399 . S
C460 H466 0.929 . S
C461 C441 1.449 . S
C461 C460 1.399 . S
C461 H467 0.930 . S
H462 C442 0.931 . S
H463 C443 0.930 . S
H464 C451 0.931 . S
H465 C452 0.929 . S
H466 C460 0.929 . S
H467 C461 0.930 . S
Mn468 O473 2.095 . S
Mn468 O483 2.162 . S
Mn468 O484 2.297 . S
Mn468 O492 2.385 . S
Mn468 O493 2.209 . S
Mn468 O494 2.094 . S
Mn469 O474 2.121 . S
Mn469 N476 2.257 . S
Mn469 N485 2.282 . S
Mn469 O493 2.215 . S
Mn469 O495 2.117 . S
C470 O492 1.234 . S
C470 O493 1.283 . S
C471 O483 1.281 . S
C471 O484 1.236 . S
C472 O494 1.240 . S
C472 O495 1.264 . S
O473 Mn468 2.095 . S
O473 C482 1.250 . S
O474 Mn469 2.121 . S
O474 C482 1.258 . S
C475 N476 1.326 . S
C475 C479 1.460 . S
C475 H481 0.929 . S
N476 Mn469 2.257 . S
N476 C475 1.326 . S
N476 C480 1.362 . S
C477 C478 1.258 . S
C477 C480 1.431 . S
C477 C497 1.449 . S
C478 C477 1.258 . S
C478 C479 1.477 . S
C478 H498 0.931 . S
C479 C475 1.460 . S
C479 C478 1.477 . S
C479 H499 0.930 . S
C480 N476 1.362 . S
C480 C477 1.431 . S
C480 C490 1.476 . S
H481 C475 0.929 . S
C482 O473 1.250 . S
C482 O474 1.258 . S
O483 Mn468 2.162 . S
O483 C471 1.281 . S
O484 Mn468 2.297 . S
O484 C471 1.236 . S
N485 Mn469 2.282 . S
N485 C486 1.328 . S
N485 C490 1.318 . S
C486 N485 1.328 . S
C486 C487 1.457 . S
C486 H491 0.929 . S
C487 C486 1.457 . S
C487 C488 1.291 . S
C487 H500 0.931 . S
C488 C487 1.291 . S
C488 C489 1.373 . S
C488 H501 0.929 . S
C489 C488 1.373 . S
C489 C490 1.396 . S
C489 C496 1.403 . S
C490 C480 1.476 . S
C490 N485 1.318 . S
C490 C489 1.396 . S
H491 C486 0.929 . S
O492 Mn468 2.385 . S
O492 C470 1.234 . S
O493 Mn468 2.209 . S
O493 Mn469 2.215 . S
O493 C470 1.283 . S
O494 Mn468 2.094 . S
O494 C472 1.240 . S
O495 Mn469 2.117 . S
O495 C472 1.264 . S
C496 C489 1.403 . S
C496 C497 1.399 . S
C496 H502 0.929 . S
C497 C477 1.449 . S
C497 C496 1.399 . S
C497 H503 0.930 . S
H498 C478 0.931 . S
H499 C479 0.930 . S
H500 C487 0.931 . S
H501 C488 0.929 . S
H502 C496 0.929 . S
H503 C497 0.930 . S
Mn504 O509 2.095 . S
Mn504 O519 2.162 . S
Mn504 O520 2.297 . S
Mn504 O528 2.385 . S
Mn504 O529 2.209 . S
Mn504 O530 2.094 . S
Mn505 O510 2.121 . S
Mn505 N512 2.257 . S
Mn505 N521 2.282 . S
Mn505 O529 2.215 . S
Mn505 O531 2.117 . S
C506 O528 1.234 . S
C506 O529 1.283 . S
C507 O519 1.281 . S
C507 O520 1.236 . S
C508 O530 1.240 . S
C508 O531 1.264 . S
O509 Mn504 2.095 . S
O509 C518 1.250 . S
O510 Mn505 2.121 . S
O510 C518 1.258 . S
C511 N512 1.326 . S
C511 C515 1.460 . S
C511 H517 0.929 . S
N512 Mn505 2.257 . S
N512 C511 1.326 . S
N512 C516 1.362 . S
C513 C514 1.258 . S
C513 C516 1.431 . S
C513 C533 1.449 . S
C514 C513 1.258 . S
C514 C515 1.477 . S
C514 H534 0.931 . S
C515 C511 1.460 . S
C515 C514 1.477 . S
C515 H535 0.930 . S
C516 N512 1.362 . S
C516 C513 1.431 . S
C516 C526 1.476 . S
H517 C511 0.929 . S
C518 O509 1.250 . S
C518 O510 1.258 . S
O519 Mn504 2.162 . S
O519 C507 1.281 . S
O520 Mn504 2.297 . S
O520 C507 1.236 . S
N521 Mn505 2.282 . S
N521 C522 1.328 . S
N521 C526 1.318 . S
C522 N521 1.328 . S
C522 C523 1.457 . S
C522 H527 0.929 . S
C523 C522 1.457 . S
C523 C524 1.291 . S
C523 H536 0.931 . S
C524 C523 1.291 . S
C524 C525 1.373 . S
C524 H537 0.929 . S
C525 C524 1.373 . S
C525 C526 1.396 . S
C525 C532 1.403 . S
C526 C516 1.476 . S
C526 N521 1.318 . S
C526 C525 1.396 . S
H527 C522 0.929 . S
O528 Mn504 2.385 . S
O528 C506 1.234 . S
O529 Mn504 2.209 . S
O529 Mn505 2.215 . S
O529 C506 1.283 . S
O530 Mn504 2.094 . S
O530 C508 1.240 . S
O531 Mn505 2.117 . S
O531 C508 1.264 . S
C532 C525 1.403 . S
C532 C533 1.399 . S
C532 H538 0.929 . S
C533 C513 1.449 . S
C533 C532 1.399 . S
C533 H539 0.930 . S
H534 C514 0.931 . S
H535 C515 0.930 . S
H536 C523 0.931 . S
H537 C524 0.929 . S
H538 C532 0.929 . S
H539 C533 0.930 . S
Mn540 O545 2.095 . S
Mn540 O555 2.162 . S
Mn540 O556 2.297 . S
Mn540 O564 2.385 . S
Mn540 O565 2.209 . S
Mn540 O566 2.094 . S
Mn541 O546 2.121 . S
Mn541 N548 2.257 . S
Mn541 N557 2.282 . S
Mn541 O565 2.215 . S
Mn541 O567 2.117 . S
C542 O564 1.234 . S
C542 O565 1.283 . S
C543 O555 1.281 . S
C543 O556 1.236 . S
C544 O566 1.240 . S
C544 O567 1.264 . S
O545 Mn540 2.095 . S
O545 C554 1.250 . S
O546 Mn541 2.121 . S
O546 C554 1.258 . S
C547 N548 1.326 . S
C547 C551 1.460 . S
C547 H553 0.929 . S
N548 Mn541 2.257 . S
N548 C547 1.326 . S
N548 C552 1.362 . S
C549 C550 1.258 . S
C549 C552 1.431 . S
C549 C569 1.449 . S
C550 C549 1.258 . S
C550 C551 1.477 . S
C550 H570 0.931 . S
C551 C547 1.460 . S
C551 C550 1.477 . S
C551 H571 0.930 . S
C552 N548 1.362 . S
C552 C549 1.431 . S
C552 C562 1.476 . S
H553 C547 0.929 . S
C554 O545 1.250 . S
C554 O546 1.258 . S
O555 Mn540 2.162 . S
O555 C543 1.281 . S
O556 Mn540 2.297 . S
O556 C543 1.236 . S
N557 Mn541 2.282 . S
N557 C558 1.328 . S
N557 C562 1.318 . S
C558 N557 1.328 . S
C558 C559 1.457 . S
C558 H563 0.929 . S
C559 C558 1.457 . S
C559 C560 1.291 . S
C559 H572 0.931 . S
C560 C559 1.291 . S
C560 C561 1.373 . S
C560 H573 0.929 . S
C561 C560 1.373 . S
C561 C562 1.396 . S
C561 C568 1.403 . S
C562 C552 1.476 . S
C562 N557 1.318 . S
C562 C561 1.396 . S
H563 C558 0.929 . S
O564 Mn540 2.385 . S
O564 C542 1.234 . S
O565 Mn540 2.209 . S
O565 Mn541 2.215 . S
O565 C542 1.283 . S
O566 Mn540 2.094 . S
O566 C544 1.240 . S
O567 Mn541 2.117 . S
O567 C544 1.264 . S
C568 C561 1.403 . S
C568 C569 1.399 . S
C568 H574 0.929 . S
C569 C549 1.449 . S
C569 C568 1.399 . S
C569 H575 0.930 . S
H570 C550 0.931 . S
H571 C551 0.930 . S
H572 C559 0.931 . S
H573 C560 0.929 . S
H574 C568 0.929 . S
H575 C569 0.930 . S
Mn576 O581 2.095 . S
Mn576 O591 2.162 . S
Mn576 O592 2.297 . S
Mn576 O600 2.385 . S
Mn576 O601 2.209 . S
Mn576 O602 2.094 . S
Mn577 O582 2.121 . S
Mn577 N584 2.257 . S
Mn577 N593 2.282 . S
Mn577 O601 2.215 . S
Mn577 O603 2.117 . S
C578 O600 1.234 . S
C578 O601 1.283 . S
C579 O591 1.281 . S
C579 O592 1.236 . S
C580 O602 1.240 . S
C580 O603 1.264 . S
O581 Mn576 2.095 . S
O581 C590 1.250 . S
O582 Mn577 2.121 . S
O582 C590 1.258 . S
C583 N584 1.326 . S
C583 C587 1.460 . S
C583 H589 0.929 . S
N584 Mn577 2.257 . S
N584 C583 1.326 . S
N584 C588 1.362 . S
C585 C586 1.258 . S
C585 C588 1.431 . S
C585 C605 1.449 . S
C586 C585 1.258 . S
C586 C587 1.477 . S
C586 H606 0.931 . S
C587 C583 1.460 . S
C587 C586 1.477 . S
C587 H607 0.930 . S
C588 N584 1.362 . S
C588 C585 1.431 . S
C588 C598 1.476 . S
H589 C583 0.929 . S
C590 O581 1.250 . S
C590 O582 1.258 . S
O591 Mn576 2.162 . S
O591 C579 1.281 . S
O592 Mn576 2.297 . S
O592 C579 1.236 . S
N593 Mn577 2.282 . S
N593 C594 1.328 . S
N593 C598 1.318 . S
C594 N593 1.328 . S
C594 C595 1.457 . S
C594 H599 0.929 . S
C595 C594 1.457 . S
C595 C596 1.291 1_556 S
C595 H608 0.931 . S
C596 C595 1.291 1_554 S
C596 C597 1.373 1_554 S
C596 H609 0.929 . S
C597 C596 1.373 1_556 S
C597 C598 1.396 . S
C597 C604 1.403 1_556 S
C598 C588 1.476 . S
C598 N593 1.318 . S
C598 C597 1.396 . S
H599 C594 0.929 . S
O600 Mn576 2.385 . S
O600 C578 1.234 . S
O601 Mn576 2.209 . S
O601 Mn577 2.215 . S
O601 C578 1.283 . S
O602 Mn576 2.094 . S
O602 C580 1.240 . S
O603 Mn577 2.117 . S
O603 C580 1.264 . S
C604 C597 1.403 1_554 S
C604 C605 1.399 1_554 S
C604 H610 0.929 . S
C605 C585 1.449 . S
C605 C604 1.399 1_556 S
C605 H611 0.930 1_556 S
H606 C586 0.931 . S
H607 C587 0.930 . S
H608 C595 0.931 . S
H609 C596 0.929 . S
H610 C604 0.929 . S
H611 C605 0.930 1_554 S
Mn612 O617 2.095 . S
Mn612 O627 2.162 . S
Mn612 O628 2.297 . S
Mn612 O636 2.385 . S
Mn612 O637 2.209 . S
Mn612 O638 2.094 . S
Mn613 O618 2.121 . S
Mn613 N620 2.257 . S
Mn613 N629 2.282 . S
Mn613 O637 2.215 . S
Mn613 O639 2.117 . S
C614 O636 1.234 . S
C614 O637 1.283 . S
C615 O627 1.281 . S
C615 O628 1.236 . S
C616 O638 1.240 . S
C616 O639 1.264 . S
O617 Mn612 2.095 . S
O617 C626 1.250 . S
O618 Mn613 2.121 . S
O618 C626 1.258 . S
C619 N620 1.326 . S
C619 C623 1.460 . S
C619 H625 0.929 . S
N620 Mn613 2.257 . S
N620 C619 1.326 . S
N620 C624 1.362 . S
C621 C622 1.258 . S
C621 C624 1.431 . S
C621 C641 1.449 . S
C622 C621 1.258 . S
C622 C623 1.477 . S
C622 H642 0.931 . S
C623 C619 1.460 . S
C623 C622 1.477 . S
C623 H643 0.930 . S
C624 N620 1.362 . S
C624 C621 1.431 . S
C624 C634 1.476 . S
H625 C619 0.929 . S
C626 O617 1.250 . S
C626 O618 1.258 . S
O627 Mn612 2.162 . S
O627 C615 1.281 . S
O628 Mn612 2.297 . S
O628 C615 1.236 . S
N629 Mn613 2.282 . S
N629 C630 1.328 . S
N629 C634 1.318 . S
C630 N629 1.328 . S
C630 C631 1.457 . S
C630 H635 0.929 . S
C631 C630 1.457 . S
C631 C632 1.291 . S
C631 H644 0.931 . S
C632 C631 1.291 . S
C632 C633 1.373 . S
C632 H645 0.929 . S
C633 C632 1.373 . S
C633 C634 1.396 . S
C633 C640 1.403 . S
C634 C624 1.476 . S
C634 N629 1.318 . S
C634 C633 1.396 . S
H635 C630 0.929 . S
O636 Mn612 2.385 . S
O636 C614 1.234 . S
O637 Mn612 2.209 . S
O637 Mn613 2.215 . S
O637 C614 1.283 . S
O638 Mn612 2.094 . S
O638 C616 1.240 . S
O639 Mn613 2.117 . S
O639 C616 1.264 . S
C640 C633 1.403 . S
C640 C641 1.399 . S
C640 H646 0.929 . S
C641 C621 1.449 . S
C641 C640 1.399 . S
C641 H647 0.930 . S
H642 C622 0.931 . S
H643 C623 0.930 . S
H644 C631 0.931 . S
H645 C632 0.929 . S
H646 C640 0.929 . S
H647 C641 0.930 . S
Mn648 O653 2.095 . S
Mn648 O663 2.162 . S
Mn648 O664 2.297 . S
Mn648 O672 2.385 . S
Mn648 O673 2.209 . S
Mn648 O674 2.094 . S
Mn649 O654 2.121 . S
Mn649 N656 2.257 . S
Mn649 N665 2.282 . S
Mn649 O673 2.215 . S
Mn649 O675 2.117 . S
C650 O672 1.234 . S
C650 O673 1.283 . S
C651 O663 1.281 . S
C651 O664 1.236 . S
C652 O674 1.240 . S
C652 O675 1.264 . S
O653 Mn648 2.095 . S
O653 C662 1.250 . S
O654 Mn649 2.121 . S
O654 C662 1.258 . S
C655 N656 1.326 . S
C655 C659 1.460 . S
C655 H661 0.929 . S
N656 Mn649 2.257 . S
N656 C655 1.326 . S
N656 C660 1.362 . S
C657 C658 1.258 . S
C657 C660 1.431 . S
C657 C677 1.449 . S
C658 C657 1.258 . S
C658 C659 1.477 . S
C658 H678 0.931 . S
C659 C655 1.460 . S
C659 C658 1.477 . S
C659 H679 0.930 . S
C660 N656 1.362 . S
C660 C657 1.431 . S
C660 C670 1.476 . S
H661 C655 0.929 . S
C662 O653 1.250 . S
C662 O654 1.258 . S
O663 Mn648 2.162 . S
O663 C651 1.281 . S
O664 Mn648 2.297 . S
O664 C651 1.236 . S
N665 Mn649 2.282 . S
N665 C666 1.328 . S
N665 C670 1.318 . S
C666 N665 1.328 . S
C666 C667 1.457 . S
C666 H671 0.929 . S
C667 C666 1.457 . S
C667 C668 1.291 1_556 S
C667 H680 0.931 . S
C668 C667 1.291 1_554 S
C668 C669 1.373 1_554 S
C668 H681 0.929 . S
C669 C668 1.373 1_556 S
C669 C670 1.396 . S
C669 C676 1.403 1_556 S
C670 C660 1.476 . S
C670 N665 1.318 . S
C670 C669 1.396 . S
H671 C666 0.929 . S
O672 Mn648 2.385 . S
O672 C650 1.234 . S
O673 Mn648 2.209 . S
O673 Mn649 2.215 . S
O673 C650 1.283 . S
O674 Mn648 2.094 . S
O674 C652 1.240 . S
O675 Mn649 2.117 . S
O675 C652 1.264 . S
C676 C669 1.403 1_554 S
C676 C677 1.399 1_554 S
C676 H682 0.929 . S
C677 C657 1.449 . S
C677 C676 1.399 1_556 S
C677 H683 0.930 1_556 S
H678 C658 0.931 . S
H679 C659 0.930 . S
H680 C667 0.931 . S
H681 C668 0.929 . S
H682 C676 0.929 . S
H683 C677 0.930 1_554 S
Mn684 O689 2.095 . S
Mn684 O699 2.162 . S
Mn684 O700 2.297 . S
Mn684 O708 2.385 . S
Mn684 O709 2.209 . S
Mn684 O710 2.094 . S
Mn685 O690 2.121 . S
Mn685 N692 2.257 . S
Mn685 N701 2.282 . S
Mn685 O709 2.215 . S
Mn685 O711 2.117 . S
C686 O708 1.234 . S
C686 O709 1.283 . S
C687 O699 1.281 . S
C687 O700 1.236 . S
C688 O710 1.240 . S
C688 O711 1.264 . S
O689 Mn684 2.095 . S
O689 C698 1.250 . S
O690 Mn685 2.121 . S
O690 C698 1.258 . S
C691 N692 1.326 . S
C691 C695 1.460 . S
C691 H697 0.929 . S
N692 Mn685 2.257 . S
N692 C691 1.326 . S
N692 C696 1.362 . S
C693 C694 1.258 . S
C693 C696 1.431 . S
C693 C713 1.449 . S
C694 C693 1.258 . S
C694 C695 1.477 . S
C694 H714 0.931 . S
C695 C691 1.460 . S
C695 C694 1.477 . S
C695 H715 0.930 . S
C696 N692 1.362 . S
C696 C693 1.431 . S
C696 C706 1.476 . S
H697 C691 0.929 . S
C698 O689 1.250 . S
C698 O690 1.258 . S
O699 Mn684 2.162 . S
O699 C687 1.281 . S
O700 Mn684 2.297 . S
O700 C687 1.236 . S
N701 Mn685 2.282 . S
N701 C702 1.328 . S
N701 C706 1.318 . S
C702 N701 1.328 . S
C702 C703 1.457 . S
C702 H707 0.929 . S
C703 C702 1.457 . S
C703 C704 1.291 . S
C703 H716 0.931 . S
C704 C703 1.291 . S
C704 C705 1.373 . S
C704 H717 0.929 . S
C705 C704 1.373 . S
C705 C706 1.396 . S
C705 C712 1.403 . S
C706 C696 1.476 . S
C706 N701 1.318 . S
C706 C705 1.396 . S
H707 C702 0.929 . S
O708 Mn684 2.385 . S
O708 C686 1.234 . S
O709 Mn684 2.209 . S
O709 Mn685 2.215 . S
O709 C686 1.283 . S
O710 Mn684 2.094 . S
O710 C688 1.240 . S
O711 Mn685 2.117 . S
O711 C688 1.264 . S
C712 C705 1.403 . S
C712 C713 1.399 . S
C712 H718 0.929 . S
C713 C693 1.449 . S
C713 C712 1.399 . S
C713 H719 0.930 . S
H714 C694 0.931 . S
H715 C695 0.930 . S
H716 C703 0.931 . S
H717 C704 0.929 . S
H718 C712 0.929 . S
H719 C713 0.930 . S
Mn720 O725 2.095 . S
Mn720 O735 2.162 . S
Mn720 O736 2.297 . S
Mn720 O744 2.385 . S
Mn720 O745 2.209 . S
Mn720 O746 2.094 . S
Mn721 O726 2.121 . S
Mn721 N728 2.257 . S
Mn721 N737 2.282 . S
Mn721 O745 2.215 . S
Mn721 O747 2.117 . S
C722 O744 1.234 . S
C722 O745 1.283 . S
C723 O735 1.281 . S
C723 O736 1.236 . S
C724 O746 1.240 . S
C724 O747 1.264 . S
O725 Mn720 2.095 . S
O725 C734 1.250 . S
O726 Mn721 2.121 . S
O726 C734 1.258 . S
C727 N728 1.326 . S
C727 C731 1.460 . S
C727 H733 0.929 . S
N728 Mn721 2.257 . S
N728 C727 1.326 . S
N728 C732 1.362 . S
C729 C730 1.258 . S
C729 C732 1.431 . S
C729 C749 1.449 . S
C730 C729 1.258 . S
C730 C731 1.477 . S
C730 H750 0.931 . S
C731 C727 1.460 . S
C731 C730 1.477 . S
C731 H751 0.930 . S
C732 N728 1.362 . S
C732 C729 1.431 . S
C732 C742 1.476 . S
H733 C727 0.929 . S
C734 O725 1.250 . S
C734 O726 1.258 . S
O735 Mn720 2.162 . S
O735 C723 1.281 . S
O736 Mn720 2.297 . S
O736 C723 1.236 . S
N737 Mn721 2.282 . S
N737 C738 1.328 . S
N737 C742 1.318 . S
C738 N737 1.328 . S
C738 C739 1.457 . S
C738 H743 0.929 . S
C739 C738 1.457 . S
C739 C740 1.291 1_554 S
C739 H752 0.931 . S
C740 C739 1.291 1_556 S
C740 C741 1.373 1_556 S
C740 H753 0.929 . S
C741 C740 1.373 1_554 S
C741 C742 1.396 . S
C741 C748 1.403 1_554 S
C742 C732 1.476 . S
C742 N737 1.318 . S
C742 C741 1.396 . S
H743 C738 0.929 . S
O744 Mn720 2.385 . S
O744 C722 1.234 . S
O745 Mn720 2.209 . S
O745 Mn721 2.215 . S
O745 C722 1.283 . S
O746 Mn720 2.094 . S
O746 C724 1.240 . S
O747 Mn721 2.117 . S
O747 C724 1.264 . S
C748 C741 1.403 1_556 S
C748 C749 1.399 1_556 S
C748 H754 0.929 . S
C749 C729 1.449 . S
C749 C748 1.399 1_554 S
C749 H755 0.930 1_554 S
H750 C730 0.931 . S
H751 C731 0.930 . S
H752 C739 0.931 . S
H753 C740 0.929 . S
H754 C748 0.929 . S
H755 C749 0.930 1_556 S
Mn756 O761 2.095 . S
Mn756 O771 2.162 . S
Mn756 O772 2.297 . S
Mn756 O780 2.385 . S
Mn756 O781 2.209 . S
Mn756 O782 2.094 . S
Mn757 O762 2.121 . S
Mn757 N764 2.257 . S
Mn757 N773 2.282 . S
Mn757 O781 2.215 . S
Mn757 O783 2.117 . S
C758 O780 1.234 . S
C758 O781 1.283 . S
C759 O771 1.281 . S
C759 O772 1.236 . S
C760 O782 1.240 . S
C760 O783 1.264 . S
O761 Mn756 2.095 . S
O761 C770 1.250 . S
O762 Mn757 2.121 . S
O762 C770 1.258 . S
C763 N764 1.326 . S
C763 C767 1.460 . S
C763 H769 0.929 . S
N764 Mn757 2.257 . S
N764 C763 1.326 . S
N764 C768 1.362 . S
C765 C766 1.258 . S
C765 C768 1.431 . S
C765 C785 1.449 . S
C766 C765 1.258 . S
C766 C767 1.477 . S
C766 H786 0.931 . S
C767 C763 1.460 . S
C767 C766 1.477 . S
C767 H787 0.930 . S
C768 N764 1.362 . S
C768 C765 1.431 . S
C768 C778 1.476 . S
H769 C763 0.929 . S
C770 O761 1.250 . S
C770 O762 1.258 . S
O771 Mn756 2.162 . S
O771 C759 1.281 . S
O772 Mn756 2.297 . S
O772 C759 1.236 . S
N773 Mn757 2.282 . S
N773 C774 1.328 . S
N773 C778 1.318 . S
C774 N773 1.328 . S
C774 C775 1.457 . S
C774 H779 0.929 . S
C775 C774 1.457 . S
C775 C776 1.291 . S
C775 H788 0.931 . S
C776 C775 1.291 . S
C776 C777 1.373 . S
C776 H789 0.929 . S
C777 C776 1.373 . S
C777 C778 1.396 . S
C777 C784 1.403 . S
C778 C768 1.476 . S
C778 N773 1.318 . S
C778 C777 1.396 . S
H779 C774 0.929 . S
O780 Mn756 2.385 . S
O780 C758 1.234 . S
O781 Mn756 2.209 . S
O781 Mn757 2.215 . S
O781 C758 1.283 . S
O782 Mn756 2.094 . S
O782 C760 1.240 . S
O783 Mn757 2.117 . S
O783 C760 1.264 . S
C784 C777 1.403 . S
C784 C785 1.399 . S
C784 H790 0.929 . S
C785 C765 1.449 . S
C785 C784 1.399 . S
C785 H791 0.930 . S
H786 C766 0.931 . S
H787 C767 0.930 . S
H788 C775 0.931 . S
H789 C776 0.929 . S
H790 C784 0.929 . S
H791 C785 0.930 . S
Mn792 O797 2.095 . S
Mn792 O807 2.162 . S
Mn792 O808 2.297 . S
Mn792 O816 2.385 . S
Mn792 O817 2.209 . S
Mn792 O818 2.094 . S
Mn793 O798 2.121 . S
Mn793 N800 2.257 . S
Mn793 N809 2.282 . S
Mn793 O817 2.215 . S
Mn793 O819 2.117 . S
C794 O816 1.234 . S
C794 O817 1.283 . S
C795 O807 1.281 . S
C795 O808 1.236 . S
C796 O818 1.240 . S
C796 O819 1.264 . S
O797 Mn792 2.095 . S
O797 C806 1.250 . S
O798 Mn793 2.121 . S
O798 C806 1.258 . S
C799 N800 1.326 . S
C799 C803 1.460 . S
C799 H805 0.929 . S
N800 Mn793 2.257 . S
N800 C799 1.326 . S
N800 C804 1.362 . S
C801 C802 1.258 . S
C801 C804 1.431 . S
C801 C821 1.449 . S
C802 C801 1.258 . S
C802 C803 1.477 . S
C802 H822 0.931 . S
C803 C799 1.460 . S
C803 C802 1.477 . S
C803 H823 0.930 . S
C804 N800 1.362 . S
C804 C801 1.431 . S
C804 C814 1.476 . S
H805 C799 0.929 . S
C806 O797 1.250 . S
C806 O798 1.258 . S
O807 Mn792 2.162 . S
O807 C795 1.281 . S
O808 Mn792 2.297 . S
O808 C795 1.236 . S
N809 Mn793 2.282 . S
N809 C810 1.328 . S
N809 C814 1.318 . S
C810 N809 1.328 . S
C810 C811 1.457 . S
C810 H815 0.929 . S
C811 C810 1.457 . S
C811 C812 1.291 1_554 S
C811 H824 0.931 . S
C812 C811 1.291 1_556 S
C812 C813 1.373 1_556 S
C812 H825 0.929 . S
C813 C812 1.373 1_554 S
C813 C814 1.396 . S
C813 C820 1.403 1_554 S
C814 C804 1.476 . S
C814 N809 1.318 . S
C814 C813 1.396 . S
H815 C810 0.929 . S
O816 Mn792 2.385 . S
O816 C794 1.234 . S
O817 Mn792 2.209 . S
O817 Mn793 2.215 . S
O817 C794 1.283 . S
O818 Mn792 2.094 . S
O818 C796 1.240 . S
O819 Mn793 2.117 . S
O819 C796 1.264 . S
C820 C813 1.403 1_556 S
C820 C821 1.399 1_556 S
C820 H826 0.929 . S
C821 C801 1.449 . S
C821 C820 1.399 1_554 S
C821 H827 0.930 1_554 S
H822 C802 0.931 . S
H823 C803 0.930 . S
H824 C811 0.931 . S
H825 C812 0.929 . S
H826 C820 0.929 . S
H827 C821 0.930 1_556 S
Mn828 O833 2.095 . S
Mn828 O843 2.162 . S
Mn828 O844 2.297 . S
Mn828 O852 2.385 . S
Mn828 O853 2.209 . S
Mn828 O854 2.094 . S
Mn829 O834 2.121 . S
Mn829 N836 2.257 . S
Mn829 N845 2.282 . S
Mn829 O853 2.215 . S
Mn829 O855 2.117 . S
C830 O852 1.234 . S
C830 O853 1.283 . S
C831 O843 1.281 . S
C831 O844 1.236 . S
C832 O854 1.240 . S
C832 O855 1.264 . S
O833 Mn828 2.095 . S
O833 C842 1.250 . S
O834 Mn829 2.121 . S
O834 C842 1.258 . S
C835 N836 1.326 . S
C835 C839 1.460 . S
C835 H841 0.929 . S
N836 Mn829 2.257 . S
N836 C835 1.326 . S
N836 C840 1.362 . S
C837 C838 1.258 . S
C837 C840 1.431 . S
C837 C857 1.449 . S
C838 C837 1.258 . S
C838 C839 1.477 . S
C838 H858 0.931 . S
C839 C835 1.460 . S
C839 C838 1.477 . S
C839 H859 0.930 . S
C840 N836 1.362 . S
C840 C837 1.431 . S
C840 C850 1.476 . S
H841 C835 0.929 . S
C842 O833 1.250 . S
C842 O834 1.258 . S
O843 Mn828 2.162 . S
O843 C831 1.281 . S
O844 Mn828 2.297 . S
O844 C831 1.236 . S
N845 Mn829 2.282 . S
N845 C846 1.328 . S
N845 C850 1.318 . S
C846 N845 1.328 . S
C846 C847 1.457 . S
C846 H851 0.929 . S
C847 C846 1.457 . S
C847 C848 1.291 . S
C847 H860 0.931 . S
C848 C847 1.291 . S
C848 C849 1.373 . S
C848 H861 0.929 . S
C849 C848 1.373 . S
C849 C850 1.396 . S
C849 C856 1.403 . S
C850 C840 1.476 . S
C850 N845 1.318 . S
C850 C849 1.396 . S
H851 C846 0.929 . S
O852 Mn828 2.385 . S
O852 C830 1.234 . S
O853 Mn828 2.209 . S
O853 Mn829 2.215 . S
O853 C830 1.283 . S
O854 Mn828 2.094 . S
O854 C832 1.240 . S
O855 Mn829 2.117 . S
O855 C832 1.264 . S
C856 C849 1.403 . S
C856 C857 1.399 . S
C856 H862 0.929 . S
C857 C837 1.449 . S
C857 C856 1.399 . S
C857 H863 0.930 . S
H858 C838 0.931 . S
H859 C839 0.930 . S
H860 C847 0.931 . S
H861 C848 0.929 . S
H862 C856 0.929 . S
H863 C857 0.930 . S
Mn864 O869 2.095 . S
Mn864 O879 2.162 . S
Mn864 O880 2.297 . S
Mn864 O888 2.385 . S
Mn864 O889 2.209 . S
Mn864 O890 2.094 . S
Mn865 O870 2.121 . S
Mn865 N872 2.257 . S
Mn865 N881 2.282 . S
Mn865 O889 2.215 . S
Mn865 O891 2.117 . S
C866 O888 1.234 . S
C866 O889 1.283 . S
C867 O879 1.281 . S
C867 O880 1.236 . S
C868 O890 1.240 . S
C868 O891 1.264 . S
O869 Mn864 2.095 . S
O869 C878 1.250 . S
O870 Mn865 2.121 . S
O870 C878 1.258 . S
C871 N872 1.326 . S
C871 C875 1.460 . S
C871 H877 0.929 . S
N872 Mn865 2.257 . S
N872 C871 1.326 . S
N872 C876 1.362 . S
C873 C874 1.258 . S
C873 C876 1.431 . S
C873 C893 1.449 1_554 S
C874 C873 1.258 . S
C874 C875 1.477 . S
C874 H894 0.931 . S
C875 C871 1.460 . S
C875 C874 1.477 . S
C875 H895 0.930 . S
C876 N872 1.362 . S
C876 C873 1.431 . S
C876 C886 1.476 . S
H877 C871 0.929 . S
C878 O869 1.250 . S
C878 O870 1.258 . S
O879 Mn864 2.162 . S
O879 C867 1.281 . S
O880 Mn864 2.297 . S
O880 C867 1.236 . S
N881 Mn865 2.282 . S
N881 C882 1.328 . S
N881 C886 1.318 . S
C882 N881 1.328 . S
C882 C883 1.457 . S
C882 H887 0.929 . S
C883 C882 1.457 . S
C883 C884 1.291 1_554 S
C883 H896 0.931 1_554 S
C884 C883 1.291 1_556 S
C884 C885 1.373 . S
C884 H897 0.929 . S
C885 C884 1.373 . S
C885 C886 1.396 1_556 S
C885 C892 1.403 . S
C886 C876 1.476 . S
C886 N881 1.318 . S
C886 C885 1.396 1_554 S
H887 C882 0.929 . S
O888 Mn864 2.385 . S
O888 C866 1.234 . S
O889 Mn864 2.209 . S
O889 Mn865 2.215 . S
O889 C866 1.283 . S
O890 Mn864 2.094 . S
O890 C868 1.240 . S
O891 Mn865 2.117 . S
O891 C868 1.264 . S
C892 C885 1.403 . S
C892 C893 1.399 . S
C892 H898 0.929 . S
C893 C873 1.449 1_556 S
C893 C892 1.399 . S
C893 H899 0.930 . S
H894 C874 0.931 . S
H895 C875 0.930 . S
H896 C883 0.931 1_556 S
H897 C884 0.929 . S
H898 C892 0.929 . S
H899 C893 0.930 . S
Mn900 O905 2.095 . S
Mn900 O915 2.162 . S
Mn900 O916 2.297 . S
Mn900 O924 2.385 . S
Mn900 O925 2.209 . S
Mn900 O926 2.094 . S
Mn901 O906 2.121 . S
Mn901 N908 2.257 . S
Mn901 N917 2.282 . S
Mn901 O925 2.215 . S
Mn901 O927 2.117 . S
C902 O924 1.234 . S
C902 O925 1.283 . S
C903 O915 1.281 . S
C903 O916 1.236 . S
C904 O926 1.240 . S
C904 O927 1.264 . S
O905 Mn900 2.095 . S
O905 C914 1.250 . S
O906 Mn901 2.121 . S
O906 C914 1.258 . S
C907 N908 1.326 . S
C907 C911 1.460 . S
C907 H913 0.929 . S
N908 Mn901 2.257 . S
N908 C907 1.326 . S
N908 C912 1.362 . S
C909 C910 1.258 . S
C909 C912 1.431 . S
C909 C929 1.449 . S
C910 C909 1.258 . S
C910 C911 1.477 . S
C910 H930 0.931 . S
C911 C907 1.460 . S
C911 C910 1.477 . S
C911 H931 0.930 . S
C912 N908 1.362 . S
C912 C909 1.431 . S
C912 C922 1.476 . S
H913 C907 0.929 . S
C914 O905 1.250 . S
C914 O906 1.258 . S
O915 Mn900 2.162 . S
O915 C903 1.281 . S
O916 Mn900 2.297 . S
O916 C903 1.236 . S
N917 Mn901 2.282 . S
N917 C918 1.328 . S
N917 C922 1.318 . S
C918 N917 1.328 . S
C918 C919 1.457 . S
C918 H923 0.929 . S
C919 C918 1.457 . S
C919 C920 1.291 . S
C919 H932 0.931 . S
C920 C919 1.291 . S
C920 C921 1.373 . S
C920 H933 0.929 1_554 S
C921 C920 1.373 . S
C921 C922 1.396 . S
C921 C928 1.411 . S
C922 C912 1.476 . S
C922 N917 1.318 . S
C922 C921 1.396 . S
H923 C918 0.929 . S
O924 Mn900 2.385 . S
O924 C902 1.234 . S
O925 Mn900 2.209 . S
O925 Mn901 2.215 . S
O925 C902 1.283 . S
O926 Mn900 2.094 . S
O926 C904 1.240 . S
O927 Mn901 2.117 . S
O927 C904 1.264 . S
C928 C921 1.411 . S
C928 C929 1.406 . S
C928 H934 0.914 1_554 S
C929 C909 1.449 . S
C929 C928 1.406 . S
C929 H935 0.930 . S
H930 C910 0.931 . S
H931 C911 0.930 . S
H932 C919 0.931 . S
H933 C920 0.929 1_556 S
H934 C928 0.914 1_556 S
H935 C929 0.930 . S
Mn936 O941 2.095 . S
Mn936 O951 2.162 . S
Mn936 O952 2.297 . S
Mn936 O960 2.385 . S
Mn936 O961 2.209 . S
Mn936 O962 2.094 . S
Mn937 O942 2.121 . S
Mn937 N944 2.257 . S
Mn937 N953 2.282 . S
Mn937 O961 2.215 . S
Mn937 O963 2.117 . S
C938 O960 1.234 . S
C938 O961 1.283 . S
C939 O951 1.281 . S
C939 O952 1.236 . S
C940 O962 1.240 . S
C940 O963 1.264 . S
O941 Mn936 2.095 . S
O941 C950 1.250 . S
O942 Mn937 2.121 . S
O942 C950 1.258 . S
C943 N944 1.326 . S
C943 C947 1.460 . S
C943 H949 0.929 . S
N944 Mn937 2.257 . S
N944 C943 1.326 . S
N944 C948 1.362 . S
C945 C946 1.258 . S
C945 C948 1.431 . S
C945 C965 1.449 1_554 S
C946 C945 1.258 . S
C946 C947 1.477 . S
C946 H966 0.931 . S
C947 C943 1.460 . S
C947 C946 1.477 . S
C947 H967 0.930 . S
C948 N944 1.362 . S
C948 C945 1.431 . S
C948 C958 1.476 . S
H949 C943 0.929 . S
C950 O941 1.250 . S
C950 O942 1.258 . S
O951 Mn936 2.162 . S
O951 C939 1.281 . S
O952 Mn936 2.297 . S
O952 C939 1.236 . S
N953 Mn937 2.282 . S
N953 C954 1.328 . S
N953 C958 1.318 . S
C954 N953 1.328 . S
C954 C955 1.457 . S
C954 H959 0.929 . S
C955 C954 1.457 . S
C955 C956 1.291 1_554 S
C955 H968 0.931 1_554 S
C956 C955 1.291 1_556 S
C956 C957 1.373 . S
C956 H969 0.929 . S
C957 C956 1.373 . S
C957 C958 1.396 1_556 S
C957 C964 1.403 . S
C958 C948 1.476 . S
C958 N953 1.318 . S
C958 C957 1.396 1_554 S
H959 C954 0.929 . S
O960 Mn936 2.385 . S
O960 C938 1.234 . S
O961 Mn936 2.209 . S
O961 Mn937 2.215 . S
O961 C938 1.283 . S
O962 Mn936 2.094 . S
O962 C940 1.240 . S
O963 Mn937 2.117 . S
O963 C940 1.264 . S
C964 C957 1.403 . S
C964 C965 1.399 . S
C964 H970 0.929 . S
C965 C945 1.449 1_556 S
C965 C964 1.399 . S
C965 H971 0.930 . S
H966 C946 0.931 . S
H967 C947 0.930 . S
H968 C955 0.931 1_556 S
H969 C956 0.929 . S
H970 C964 0.929 . S
H971 C965 0.930 . S
Mn972 O977 2.095 . S
Mn972 O987 2.162 . S
Mn972 O988 2.297 . S
Mn972 O996 2.385 . S
Mn972 O997 2.209 . S
Mn972 O998 2.094 . S
Mn973 O978 2.121 . S
Mn973 N980 2.257 . S
Mn973 N989 2.282 . S
Mn973 O997 2.215 . S
Mn973 O999 2.117 . S
C974 O996 1.234 . S
C974 O997 1.283 . S
C975 O987 1.281 . S
C975 O988 1.236 . S
C976 O998 1.240 . S
C976 O999 1.264 . S
O977 Mn972 2.095 . S
O977 C986 1.250 . S
O978 Mn973 2.121 . S
O978 C986 1.258 . S
C979 N980 1.326 . S
C979 C983 1.460 . S
C979 H985 0.929 . S
N980 Mn973 2.257 . S
N980 C979 1.326 . S
N980 C984 1.362 . S
C981 C982 1.258 . S
C981 C984 1.431 . S
C981 C1001 1.449 . S
C982 C981 1.258 . S
C982 C983 1.477 . S
C982 H1002 0.931 . S
C983 C979 1.460 . S
C983 C982 1.477 . S
C983 H1003 0.930 . S
C984 N980 1.362 . S
C984 C981 1.431 . S
C984 C994 1.476 . S
H985 C979 0.929 . S
C986 O977 1.250 . S
C986 O978 1.258 . S
O987 Mn972 2.162 . S
O987 C975 1.281 . S
O988 Mn972 2.297 . S
O988 C975 1.236 . S
N989 Mn973 2.282 . S
N989 C990 1.328 . S
N989 C994 1.318 . S
C990 N989 1.328 . S
C990 C991 1.457 . S
C990 H995 0.929 . S
C991 C990 1.457 . S
C991 C992 1.291 . S
C991 H1004 0.931 . S
C992 C991 1.291 . S
C992 C993 1.373 . S
C992 H1005 0.929 1_554 S
C993 C992 1.373 . S
C993 C994 1.396 . S
C993 C1000 1.411 . S
C994 C984 1.476 . S
C994 N989 1.318 . S
C994 C993 1.396 . S
H995 C990 0.929 . S
O996 Mn972 2.385 . S
O996 C974 1.234 . S
O997 Mn972 2.209 . S
O997 Mn973 2.215 . S
O997 C974 1.283 . S
O998 Mn972 2.094 . S
O998 C976 1.240 . S
O999 Mn973 2.117 . S
O999 C976 1.264 . S
C1000 C993 1.411 . S
C1000 C1001 1.406 . S
C1000 H1006 0.914 1_554 S
C1001 C981 1.449 . S
C1001 C1000 1.406 . S
C1001 H1007 0.930 . S
H1002 C982 0.931 . S
H1003 C983 0.930 . S
H1004 C991 0.931 . S
H1005 C992 0.929 1_556 S
H1006 C1000 0.914 1_556 S
H1007 C1001 0.930 . S
Mn1008 O1013 2.095 . S
Mn1008 O1023 2.162 . S
Mn1008 O1024 2.297 . S
Mn1008 O1032 2.385 . S
Mn1008 O1033 2.209 . S
Mn1008 O1034 2.094 . S
Mn1009 O1014 2.121 . S
Mn1009 N1016 2.257 . S
Mn1009 N1025 2.282 . S
Mn1009 O1033 2.215 . S
Mn1009 O1035 2.117 . S
C1010 O1032 1.234 . S
C1010 O1033 1.283 . S
C1011 O1023 1.281 . S
C1011 O1024 1.236 . S
C1012 O1034 1.240 . S
C1012 O1035 1.264 . S
O1013 Mn1008 2.095 . S
O1013 C1022 1.250 . S
O1014 Mn1009 2.121 . S
O1014 C1022 1.258 . S
C1015 N1016 1.326 . S
C1015 C1019 1.460 . S
C1015 H1021 0.929 . S
N1016 Mn1009 2.257 . S
N1016 C1015 1.326 . S
N1016 C1020 1.362 . S
C1017 C1018 1.258 . S
C1017 C1020 1.431 . S
C1017 C1037 1.449 1_556 S
C1018 C1017 1.258 . S
C1018 C1019 1.477 . S
C1018 H1038 0.931 . S
C1019 C1015 1.460 . S
C1019 C1018 1.477 . S
C1019 H1039 0.930 . S
C1020 N1016 1.362 . S
C1020 C1017 1.431 . S
C1020 C1030 1.476 . S
H1021 C1015 0.929 . S
C1022 O1013 1.250 . S
C1022 O1014 1.258 . S
O1023 Mn1008 2.162 . S
O1023 C1011 1.281 . S
O1024 Mn1008 2.297 . S
O1024 C1011 1.236 . S
N1025 Mn1009 2.282 . S
N1025 C1026 1.328 . S
N1025 C1030 1.318 . S
C1026 N1025 1.328 . S
C1026 C1027 1.457 . S
C1026 H1031 0.929 . S
C1027 C1026 1.457 . S
C1027 C1028 1.291 1_556 S
C1027 H1040 0.931 1_556 S
C1028 C1027 1.291 1_554 S
C1028 C1029 1.373 . S
C1028 H1041 0.929 . S
C1029 C1028 1.373 . S
C1029 C1030 1.396 1_554 S
C1029 C1036 1.403 . S
C1030 C1020 1.476 . S
C1030 N1025 1.318 . S
C1030 C1029 1.396 1_556 S
H1031 C1026 0.929 . S
O1032 Mn1008 2.385 . S
O1032 C1010 1.234 . S
O1033 Mn1008 2.209 . S
O1033 Mn1009 2.215 . S
O1033 C1010 1.283 . S
O1034 Mn1008 2.094 . S
O1034 C1012 1.240 . S
O1035 Mn1009 2.117 . S
O1035 C1012 1.264 . S
C1036 C1029 1.403 . S
C1036 C1037 1.399 . S
C1036 H1042 0.929 . S
C1037 C1017 1.449 1_554 S
C1037 C1036 1.399 . S
C1037 H1043 0.930 . S
H1038 C1018 0.931 . S
H1039 C1019 0.930 . S
H1040 C1027 0.931 1_554 S
H1041 C1028 0.929 . S
H1042 C1036 0.929 . S
H1043 C1037 0.930 . S
Mn1044 O1049 2.095 . S
Mn1044 O1059 2.162 . S
Mn1044 O1060 2.297 . S
Mn1044 O1068 2.385 . S
Mn1044 O1069 2.209 . S
Mn1044 O1070 2.094 . S
Mn1045 O1050 2.121 . S
Mn1045 N1052 2.257 . S
Mn1045 N1061 2.282 . S
Mn1045 O1069 2.215 . S
Mn1045 O1071 2.117 . S
C1046 O1068 1.234 . S
C1046 O1069 1.283 . S
C1047 O1059 1.281 . S
C1047 O1060 1.236 . S
C1048 O1070 1.240 . S
C1048 O1071 1.264 . S
O1049 Mn1044 2.095 . S
O1049 C1058 1.250 . S
O1050 Mn1045 2.121 . S
O1050 C1058 1.258 . S
C1051 N1052 1.326 . S
C1051 C1055 1.460 . S
C1051 H1057 0.929 . S
N1052 Mn1045 2.257 . S
N1052 C1051 1.326 . S
N1052 C1056 1.362 . S
C1053 C1054 1.258 . S
C1053 C1056 1.431 . S
C1053 C1073 1.449 . S
C1054 C1053 1.258 . S
C1054 C1055 1.477 . S
C1054 H1074 0.931 . S
C1055 C1051 1.460 . S
C1055 C1054 1.477 . S
C1055 H1075 0.930 . S
C1056 N1052 1.362 . S
C1056 C1053 1.431 . S
C1056 C1066 1.476 . S
H1057 C1051 0.929 . S
C1058 O1049 1.250 . S
C1058 O1050 1.258 . S
O1059 Mn1044 2.162 . S
O1059 C1047 1.281 . S
O1060 Mn1044 2.297 . S
O1060 C1047 1.236 . S
N1061 Mn1045 2.282 . S
N1061 C1062 1.328 . S
N1061 C1066 1.318 . S
C1062 N1061 1.328 . S
C1062 C1063 1.457 . S
C1062 H1067 0.929 . S
C1063 C1062 1.457 . S
C1063 C1064 1.291 . S
C1063 H1076 0.931 . S
C1064 C1063 1.291 . S
C1064 C1065 1.373 . S
C1064 H1077 0.929 1_556 S
C1065 C1064 1.373 . S
C1065 C1066 1.396 . S
C1065 C1072 1.411 . S
C1066 C1056 1.476 . S
C1066 N1061 1.318 . S
C1066 C1065 1.396 . S
H1067 C1062 0.929 . S
O1068 Mn1044 2.385 . S
O1068 C1046 1.234 . S
O1069 Mn1044 2.209 . S
O1069 Mn1045 2.215 . S
O1069 C1046 1.283 . S
O1070 Mn1044 2.094 . S
O1070 C1048 1.240 . S
O1071 Mn1045 2.117 . S
O1071 C1048 1.264 . S
C1072 C1065 1.411 . S
C1072 C1073 1.406 . S
C1072 H1078 0.914 1_556 S
C1073 C1053 1.449 . S
C1073 C1072 1.406 . S
C1073 H1079 0.930 . S
H1074 C1054 0.931 . S
H1075 C1055 0.930 . S
H1076 C1063 0.931 . S
H1077 C1064 0.929 1_554 S
H1078 C1072 0.914 1_554 S
H1079 C1073 0.930 . S
Mn1080 O1085 2.095 . S
Mn1080 O1095 2.162 . S
Mn1080 O1096 2.297 . S
Mn1080 O1104 2.385 . S
Mn1080 O1105 2.209 . S
Mn1080 O1106 2.094 . S
Mn1081 O1086 2.121 . S
Mn1081 N1088 2.257 . S
Mn1081 N1097 2.282 . S
Mn1081 O1105 2.215 . S
Mn1081 O1107 2.117 . S
C1082 O1104 1.234 . S
C1082 O1105 1.283 . S
C1083 O1095 1.281 . S
C1083 O1096 1.236 . S
C1084 O1106 1.240 . S
C1084 O1107 1.264 . S
O1085 Mn1080 2.095 . S
O1085 C1094 1.250 . S
O1086 Mn1081 2.121 . S
O1086 C1094 1.258 . S
C1087 N1088 1.326 . S
C1087 C1091 1.460 . S
C1087 H1093 0.929 . S
N1088 Mn1081 2.257 . S
N1088 C1087 1.326 . S
N1088 C1092 1.362 . S
C1089 C1090 1.258 . S
C1089 C1092 1.431 . S
C1089 C1109 1.449 1_556 S
C1090 C1089 1.258 . S
C1090 C1091 1.477 . S
C1090 H1110 0.931 . S
C1091 C1087 1.460 . S
C1091 C1090 1.477 . S
C1091 H1111 0.930 . S
C1092 N1088 1.362 . S
C1092 C1089 1.431 . S
C1092 C1102 1.476 . S
H1093 C1087 0.929 . S
C1094 O1085 1.250 . S
C1094 O1086 1.258 . S
O1095 Mn1080 2.162 . S
O1095 C1083 1.281 . S
O1096 Mn1080 2.297 . S
O1096 C1083 1.236 . S
N1097 Mn1081 2.282 . S
N1097 C1098 1.328 . S
N1097 C1102 1.318 . S
C1098 N1097 1.328 . S
C1098 C1099 1.457 . S
C1098 H1103 0.929 . S
C1099 C1098 1.457 . S
C1099 C1100 1.291 1_556 S
C1099 H1112 0.931 1_556 S
C1100 C1099 1.291 1_554 S
C1100 C1101 1.373 . S
C1100 H1113 0.929 . S
C1101 C1100 1.373 . S
C1101 C1102 1.396 1_554 S
C1101 C1108 1.403 . S
C1102 C1092 1.476 . S
C1102 N1097 1.318 . S
C1102 C1101 1.396 1_556 S
H1103 C1098 0.929 . S
O1104 Mn1080 2.385 . S
O1104 C1082 1.234 . S
O1105 Mn1080 2.209 . S
O1105 Mn1081 2.215 . S
O1105 C1082 1.283 . S
O1106 Mn1080 2.094 . S
O1106 C1084 1.240 . S
O1107 Mn1081 2.117 . S
O1107 C1084 1.264 . S
C1108 C1101 1.403 . S
C1108 C1109 1.399 . S
C1108 H1114 0.929 . S
C1109 C1089 1.449 1_554 S
C1109 C1108 1.399 . S
C1109 H1115 0.930 . S
H1110 C1090 0.931 . S
H1111 C1091 0.930 . S
H1112 C1099 0.931 1_554 S
H1113 C1100 0.929 . S
H1114 C1108 0.929 . S
H1115 C1109 0.930 . S
Mn1116 O1121 2.095 . S
Mn1116 O1131 2.162 . S
Mn1116 O1132 2.297 . S
Mn1116 O1140 2.385 . S
Mn1116 O1141 2.209 . S
Mn1116 O1142 2.094 . S
Mn1117 O1122 2.121 . S
Mn1117 N1124 2.257 . S
Mn1117 N1133 2.282 . S
Mn1117 O1141 2.215 . S
Mn1117 O1143 2.117 . S
C1118 O1140 1.234 . S
C1118 O1141 1.283 . S
C1119 O1131 1.281 . S
C1119 O1132 1.236 . S
C1120 O1142 1.240 . S
C1120 O1143 1.264 . S
O1121 Mn1116 2.095 . S
O1121 C1130 1.250 . S
O1122 Mn1117 2.121 . S
O1122 C1130 1.258 . S
C1123 N1124 1.326 . S
C1123 C1127 1.460 . S
C1123 H1129 0.929 . S
N1124 Mn1117 2.257 . S
N1124 C1123 1.326 . S
N1124 C1128 1.362 . S
C1125 C1126 1.258 . S
C1125 C1128 1.431 . S
C1125 C1145 1.449 . S
C1126 C1125 1.258 . S
C1126 C1127 1.477 . S
C1126 H1146 0.931 . S
C1127 C1123 1.460 . S
C1127 C1126 1.477 . S
C1127 H1147 0.930 . S
C1128 N1124 1.362 . S
C1128 C1125 1.431 . S
C1128 C1138 1.476 . S
H1129 C1123 0.929 . S
C1130 O1121 1.250 . S
C1130 O1122 1.258 . S
O1131 Mn1116 2.162 . S
O1131 C1119 1.281 . S
O1132 Mn1116 2.297 . S
O1132 C1119 1.236 . S
N1133 Mn1117 2.282 . S
N1133 C1134 1.328 . S
N1133 C1138 1.318 . S
C1134 N1133 1.328 . S
C1134 C1135 1.457 . S
C1134 H1139 0.929 . S
C1135 C1134 1.457 . S
C1135 C1136 1.291 . S
C1135 H1148 0.931 . S
C1136 C1135 1.291 . S
C1136 C1137 1.373 . S
C1136 H1149 0.929 1_556 S
C1137 C1136 1.373 . S
C1137 C1138 1.396 . S
C1137 C1144 1.411 . S
C1138 C1128 1.476 . S
C1138 N1133 1.318 . S
C1138 C1137 1.396 . S
H1139 C1134 0.929 . S
O1140 Mn1116 2.385 . S
O1140 C1118 1.234 . S
O1141 Mn1116 2.209 . S
O1141 Mn1117 2.215 . S
O1141 C1118 1.283 . S
O1142 Mn1116 2.094 . S
O1142 C1120 1.240 . S
O1143 Mn1117 2.117 . S
O1143 C1120 1.264 . S
C1144 C1137 1.411 . S
C1144 C1145 1.406 . S
C1144 H1150 0.914 1_556 S
C1145 C1125 1.449 . S
C1145 C1144 1.406 . S
C1145 H1151 0.930 . S
H1146 C1126 0.931 . S
H1147 C1127 0.930 . S
H1148 C1135 0.931 . S
H1149 C1136 0.929 1_554 S
H1150 C1144 0.914 1_554 S
H1151 C1145 0.930 . S
C1152 C1153 1.363 . S
C1152 C1158 1.379 . S
C1152 N1160 1.356 . S
C1153 C1152 1.363 . S
C1153 C1159 1.363 . S
C1154 C1155 1.363 . S
C1154 C1159 1.379 . S
C1154 N1161 1.356 . S
C1155 C1154 1.363 . S
C1155 C1158 1.363 . S
N1156 C1158 1.356 . S
N1156 H1168 0.984 . S
N1156 H1169 0.985 . S
N1157 C1159 1.356 . S
N1157 H1162 0.984 . S
N1157 H1163 0.985 . S
C1158 C1152 1.379 . S
C1158 C1155 1.363 . S
C1158 N1156 1.356 . S
C1159 C1153 1.363 . S
C1159 C1154 1.379 . S
C1159 N1157 1.356 . S
N1160 C1152 1.356 . S
N1160 H1166 0.984 . S
N1160 H1167 0.984 . S
N1161 C1154 1.356 . S
N1161 H1164 0.984 . S
N1161 H1165 0.985 . S
H1162 N1157 0.984 . S
H1163 N1157 0.985 . S
H1164 N1161 0.984 . S
H1165 N1161 0.985 . S
H1166 N1160 0.984 . S
H1167 N1160 0.984 . S
H1168 N1156 0.984 . S
H1169 N1156 0.985 . S
C1170 C1171 1.363 . S
C1170 C1176 1.379 . S
C1170 N1178 1.356 . S
C1171 C1170 1.363 . S
C1171 C1177 1.363 . S
C1172 C1173 1.363 . S
C1172 C1177 1.379 . S
C1172 N1179 1.356 . S
C1173 C1172 1.363 . S
C1173 C1176 1.363 . S
N1174 C1176 1.356 . S
N1174 H1186 0.984 . S
N1174 H1187 0.985 . S
N1175 C1177 1.356 . S
N1175 H1180 0.984 . S
N1175 H1181 0.985 . S
C1176 C1170 1.379 . S
C1176 C1173 1.363 . S
C1176 N1174 1.356 . S
C1177 C1171 1.363 . S
C1177 C1172 1.379 . S
C1177 N1175 1.356 . S
N1178 C1170 1.356 . S
N1178 H1184 0.984 . S
N1178 H1185 0.984 . S
N1179 C1172 1.356 . S
N1179 H1182 0.984 . S
N1179 H1183 0.985 . S
H1180 N1175 0.984 . S
H1181 N1175 0.985 . S
H1182 N1179 0.984 . S
H1183 N1179 0.985 . S
H1184 N1178 0.984 . S
H1185 N1178 0.984 . S
H1186 N1174 0.984 . S
H1187 N1174 0.985 . S
C1188 C1189 1.363 . S
C1188 C1194 1.379 . S
C1188 N1196 1.356 . S
C1189 C1188 1.363 . S
C1189 C1195 1.363 . S
C1190 C1191 1.363 . S
C1190 C1195 1.379 . S
C1190 N1197 1.356 . S
C1191 C1190 1.363 . S
C1191 C1194 1.363 . S
N1192 C1194 1.356 . S
N1192 H1204 0.984 . S
N1192 H1205 0.985 . S
N1193 C1195 1.356 . S
N1193 H1198 0.984 . S
N1193 H1199 0.985 . S
C1194 C1188 1.379 . S
C1194 C1191 1.363 . S
C1194 N1192 1.356 . S
C1195 C1189 1.363 . S
C1195 C1190 1.379 . S
C1195 N1193 1.356 . S
N1196 C1188 1.356 . S
N1196 H1202 0.984 . S
N1196 H1203 0.984 . S
N1197 C1190 1.356 . S
N1197 H1200 0.984 . S
N1197 H1201 0.985 . S
H1198 N1193 0.984 . S
H1199 N1193 0.985 . S
H1200 N1197 0.984 . S
H1201 N1197 0.985 . S
H1202 N1196 0.984 . S
H1203 N1196 0.984 . S
H1204 N1192 0.984 . S
H1205 N1192 0.985 . S
C1206 C1207 1.363 . S
C1206 C1212 1.379 . S
C1206 N1214 1.356 . S
C1207 C1206 1.363 . S
C1207 C1213 1.363 . S
C1208 C1209 1.363 . S
C1208 C1213 1.379 . S
C1208 N1215 1.356 . S
C1209 C1208 1.363 . S
C1209 C1212 1.363 . S
N1210 C1212 1.356 . S
N1210 H1222 0.984 . S
N1210 H1223 0.985 . S
N1211 C1213 1.356 . S
N1211 H1216 0.984 . S
N1211 H1217 0.985 . S
C1212 C1206 1.379 . S
C1212 C1209 1.363 . S
C1212 N1210 1.356 . S
C1213 C1207 1.363 . S
C1213 C1208 1.379 . S
C1213 N1211 1.356 . S
N1214 C1206 1.356 . S
N1214 H1220 0.984 . S
N1214 H1221 0.984 . S
N1215 C1208 1.356 . S
N1215 H1218 0.984 . S
N1215 H1219 0.985 . S
H1216 N1211 0.984 . S
H1217 N1211 0.985 . S
H1218 N1215 0.984 . S
H1219 N1215 0.985 . S
H1220 N1214 0.984 . S
H1221 N1214 0.984 . S
H1222 N1210 0.984 . S
H1223 N1210 0.985 . S
C1224 C1225 1.363 . S
C1224 C1230 1.379 . S
C1224 N1232 1.356 . S
C1225 C1224 1.363 . S
C1225 C1231 1.363 . S
C1226 C1227 1.363 . S
C1226 C1231 1.379 . S
C1226 N1233 1.356 . S
C1227 C1226 1.363 . S
C1227 C1230 1.363 . S
N1228 C1230 1.356 . S
N1228 H1240 0.984 . S
N1228 H1241 0.985 . S
N1229 C1231 1.356 . S
N1229 H1234 0.984 . S
N1229 H1235 0.985 . S
C1230 C1224 1.379 . S
C1230 C1227 1.363 . S
C1230 N1228 1.356 . S
C1231 C1225 1.363 . S
C1231 C1226 1.379 . S
C1231 N1229 1.356 . S
N1232 C1224 1.356 . S
N1232 H1238 0.984 . S
N1232 H1239 0.984 . S
N1233 C1226 1.356 . S
N1233 H1236 0.984 . S
N1233 H1237 0.985 . S
H1234 N1229 0.984 . S
H1235 N1229 0.985 . S
H1236 N1233 0.984 . S
H1237 N1233 0.985 . S
H1238 N1232 0.984 . S
H1239 N1232 0.984 . S
H1240 N1228 0.984 . S
H1241 N1228 0.985 . S
C1242 C1243 1.363 . S
C1242 C1248 1.379 . S
C1242 N1250 1.356 . S
C1243 C1242 1.363 . S
C1243 C1249 1.363 . S
C1244 C1245 1.363 . S
C1244 C1249 1.379 . S
C1244 N1251 1.356 . S
C1245 C1244 1.363 . S
C1245 C1248 1.363 . S
N1246 C1248 1.356 . S
N1246 H1258 0.984 . S
N1246 H1259 0.985 . S
N1247 C1249 1.356 . S
N1247 H1252 0.984 . S
N1247 H1253 0.985 . S
C1248 C1242 1.379 . S
C1248 C1245 1.363 . S
C1248 N1246 1.356 . S
C1249 C1243 1.363 . S
C1249 C1244 1.379 . S
C1249 N1247 1.356 . S
N1250 C1242 1.356 . S
N1250 H1256 0.984 . S
N1250 H1257 0.984 . S
N1251 C1244 1.356 . S
N1251 H1254 0.984 . S
N1251 H1255 0.985 . S
H1252 N1247 0.984 . S
H1253 N1247 0.985 . S
H1254 N1251 0.984 . S
H1255 N1251 0.985 . S
H1256 N1250 0.984 . S
H1257 N1250 0.984 . S
H1258 N1246 0.984 . S
H1259 N1246 0.985 . S
C1260 C1261 1.363 . S
C1260 C1266 1.379 . S
C1260 N1268 1.356 . S
C1261 C1260 1.363 . S
C1261 C1267 1.363 . S
C1262 C1263 1.363 . S
C1262 C1267 1.379 . S
C1262 N1269 1.356 . S
C1263 C1262 1.363 . S
C1263 C1266 1.363 . S
N1264 C1266 1.356 . S
N1264 H1276 0.984 . S
N1264 H1277 0.985 . S
N1265 C1267 1.356 . S
N1265 H1270 0.984 . S
N1265 H1271 0.985 . S
C1266 C1260 1.379 . S
C1266 C1263 1.363 . S
C1266 N1264 1.356 . S
C1267 C1261 1.363 . S
C1267 C1262 1.379 . S
C1267 N1265 1.356 . S
N1268 C1260 1.356 . S
N1268 H1274 0.984 . S
N1268 H1275 0.984 . S
N1269 C1262 1.356 . S
N1269 H1272 0.984 . S
N1269 H1273 0.985 . S
H1270 N1265 0.984 . S
H1271 N1265 0.985 . S
H1272 N1269 0.984 . S
H1273 N1269 0.985 . S
H1274 N1268 0.984 . S
H1275 N1268 0.984 . S
H1276 N1264 0.984 . S
H1277 N1264 0.985 . S
C1278 C1279 1.363 . S
C1278 C1284 1.379 . S
C1278 N1286 1.356 . S
C1279 C1278 1.363 . S
C1279 C1285 1.363 . S
C1280 C1281 1.363 . S
C1280 C1285 1.379 . S
C1280 N1287 1.356 . S
C1281 C1280 1.363 . S
C1281 C1284 1.363 . S
N1282 C1284 1.356 . S
N1282 H1294 0.984 . S
N1282 H1295 0.985 . S
N1283 C1285 1.356 . S
N1283 H1288 0.984 . S
N1283 H1289 0.985 . S
C1284 C1278 1.379 . S
C1284 C1281 1.363 . S
C1284 N1282 1.356 . S
C1285 C1279 1.363 . S
C1285 C1280 1.379 . S
C1285 N1283 1.356 . S
N1286 C1278 1.356 . S
N1286 H1292 0.984 . S
N1286 H1293 0.984 . S
N1287 C1280 1.356 . S
N1287 H1290 0.984 . S
N1287 H1291 0.985 . S
H1288 N1283 0.984 . S
H1289 N1283 0.985 . S
H1290 N1287 0.984 . S
H1291 N1287 0.985 . S
H1292 N1286 0.984 . S
H1293 N1286 0.984 . S
H1294 N1282 0.984 . S
H1295 N1282 0.985 . S
C1296 C1297 1.363 . S
C1296 C1302 1.379 . S
C1296 N1304 1.356 . S
C1297 C1296 1.363 . S
C1297 C1303 1.363 . S
C1298 C1299 1.363 . S
C1298 C1303 1.379 . S
C1298 N1305 1.356 . S
C1299 C1298 1.363 . S
C1299 C1302 1.363 . S
N1300 C1302 1.356 . S
N1300 H1312 0.984 . S
N1300 H1313 0.985 . S
N1301 C1303 1.356 . S
N1301 H1306 0.984 . S
N1301 H1307 0.985 . S
C1302 C1296 1.379 . S
C1302 C1299 1.363 . S
C1302 N1300 1.356 . S
C1303 C1297 1.363 . S
C1303 C1298 1.379 . S
C1303 N1301 1.356 . S
N1304 C1296 1.356 . S
N1304 H1310 0.984 . S
N1304 H1311 0.984 . S
N1305 C1298 1.356 . S
N1305 H1308 0.984 . S
N1305 H1309 0.985 . S
H1306 N1301 0.984 . S
H1307 N1301 0.985 . S
H1308 N1305 0.984 . S
H1309 N1305 0.985 . S
H1310 N1304 0.984 . S
H1311 N1304 0.984 . S
H1312 N1300 0.984 . S
H1313 N1300 0.985 . S
C1314 C1315 1.363 . S
C1314 C1320 1.379 . S
C1314 N1322 1.356 . S
C1315 C1314 1.363 . S
C1315 C1321 1.363 . S
C1316 C1317 1.363 . S
C1316 C1321 1.379 . S
C1316 N1323 1.356 . S
C1317 C1316 1.363 . S
C1317 C1320 1.363 . S
N1318 C1320 1.356 . S
N1318 H1330 0.984 . S
N1318 H1331 0.985 . S
N1319 C1321 1.356 . S
N1319 H1324 0.984 . S
N1319 H1325 0.985 . S
C1320 C1314 1.379 . S
C1320 C1317 1.363 . S
C1320 N1318 1.356 . S
C1321 C1315 1.363 . S
C1321 C1316 1.379 . S
C1321 N1319 1.356 . S
N1322 C1314 1.356 . S
N1322 H1328 0.984 . S
N1322 H1329 0.984 . S
N1323 C1316 1.356 . S
N1323 H1326 0.984 . S
N1323 H1327 0.985 . S
H1324 N1319 0.984 . S
H1325 N1319 0.985 . S
H1326 N1323 0.984 . S
H1327 N1323 0.985 . S
H1328 N1322 0.984 . S
H1329 N1322 0.984 . S
H1330 N1318 0.984 . S
H1331 N1318 0.985 . S
C1332 C1333 1.363 . S
C1332 C1338 1.379 . S
C1332 N1340 1.356 . S
C1333 C1332 1.363 . S
C1333 C1339 1.363 . S
C1334 C1335 1.363 . S
C1334 C1339 1.379 . S
C1334 N1341 1.356 . S
C1335 C1334 1.363 . S
C1335 C1338 1.363 . S
N1336 C1338 1.356 . S
N1336 H1348 0.984 . S
N1336 H1349 0.985 . S
N1337 C1339 1.356 . S
N1337 H1342 0.984 . S
N1337 H1343 0.985 . S
C1338 C1332 1.379 . S
C1338 C1335 1.363 . S
C1338 N1336 1.356 . S
C1339 C1333 1.363 . S
C1339 C1334 1.379 . S
C1339 N1337 1.356 . S
N1340 C1332 1.356 . S
N1340 H1346 0.984 . S
N1340 H1347 0.984 . S
N1341 C1334 1.356 . S
N1341 H1344 0.984 . S
N1341 H1345 0.985 . S
H1342 N1337 0.984 . S
H1343 N1337 0.985 . S
H1344 N1341 0.984 . S
H1345 N1341 0.985 . S
H1346 N1340 0.984 . S
H1347 N1340 0.984 . S
H1348 N1336 0.984 . S
H1349 N1336 0.985 . S
C1350 C1351 1.363 . S
C1350 C1356 1.379 . S
C1350 N1358 1.356 . S
C1351 C1350 1.363 . S
C1351 C1357 1.363 . S
C1352 C1353 1.363 . S
C1352 C1357 1.379 . S
C1352 N1359 1.356 . S
C1353 C1352 1.363 . S
C1353 C1356 1.363 . S
N1354 C1356 1.356 . S
N1354 H1366 0.984 . S
N1354 H1367 0.985 . S
N1355 C1357 1.356 . S
N1355 H1360 0.984 . S
N1355 H1361 0.985 . S
C1356 C1350 1.379 . S
C1356 C1353 1.363 . S
C1356 N1354 1.356 . S
C1357 C1351 1.363 . S
C1357 C1352 1.379 . S
C1357 N1355 1.356 . S
N1358 C1350 1.356 . S
N1358 H1364 0.984 . S
N1358 H1365 0.984 . S
N1359 C1352 1.356 . S
N1359 H1362 0.984 . S
N1359 H1363 0.985 . S
H1360 N1355 0.984 . S
H1361 N1355 0.985 . S
H1362 N1359 0.984 . S
H1363 N1359 0.985 . S
H1364 N1358 0.984 . S
H1365 N1358 0.984 . S
H1366 N1354 0.984 . S
H1367 N1354 0.985 . S
C1368 C1369 1.363 . S
C1368 C1374 1.379 . S
C1368 N1376 1.356 . S
C1369 C1368 1.363 . S
C1369 C1375 1.363 . S
C1370 C1371 1.363 . S
C1370 C1375 1.379 . S
C1370 N1377 1.356 . S
C1371 C1370 1.363 . S
C1371 C1374 1.363 . S
N1372 C1374 1.356 . S
N1372 H1384 0.984 . S
N1372 H1385 0.985 . S
N1373 C1375 1.356 . S
N1373 H1378 0.984 . S
N1373 H1379 0.985 . S
C1374 C1368 1.379 . S
C1374 C1371 1.363 . S
C1374 N1372 1.356 . S
C1375 C1369 1.363 . S
C1375 C1370 1.379 . S
C1375 N1373 1.356 . S
N1376 C1368 1.356 . S
N1376 H1382 0.984 . S
N1376 H1383 0.984 . S
N1377 C1370 1.356 . S
N1377 H1380 0.984 . S
N1377 H1381 0.985 . S
H1378 N1373 0.984 . S
H1379 N1373 0.985 . S
H1380 N1377 0.984 . S
H1381 N1377 0.985 . S
H1382 N1376 0.984 . S
H1383 N1376 0.984 . S
H1384 N1372 0.984 . S
H1385 N1372 0.985 . S
C1386 C1387 1.363 . S
C1386 C1392 1.379 . S
C1386 N1394 1.356 . S
C1387 C1386 1.363 . S
C1387 C1393 1.363 . S
C1388 C1389 1.363 . S
C1388 C1393 1.379 . S
C1388 N1395 1.356 . S
C1389 C1388 1.363 . S
C1389 C1392 1.363 . S
N1390 C1392 1.356 . S
N1390 H1402 0.984 . S
N1390 H1403 0.985 . S
N1391 C1393 1.356 . S
N1391 H1396 0.984 . S
N1391 H1397 0.985 . S
C1392 C1386 1.379 . S
C1392 C1389 1.363 . S
C1392 N1390 1.356 . S
C1393 C1387 1.363 . S
C1393 C1388 1.379 . S
C1393 N1391 1.356 . S
N1394 C1386 1.356 . S
N1394 H1400 0.984 . S
N1394 H1401 0.984 . S
N1395 C1388 1.356 . S
N1395 H1398 0.984 . S
N1395 H1399 0.985 . S
H1396 N1391 0.984 . S
H1397 N1391 0.985 . S
H1398 N1395 0.984 . S
H1399 N1395 0.985 . S
H1400 N1394 0.984 . S
H1401 N1394 0.984 . S
H1402 N1390 0.984 . S
H1403 N1390 0.985 . S
C1404 C1405 1.363 . S
C1404 C1410 1.379 . S
C1404 N1412 1.356 . S
C1405 C1404 1.363 . S
C1405 C1411 1.363 . S
C1406 C1407 1.363 . S
C1406 C1411 1.379 . S
C1406 N1413 1.356 . S
C1407 C1406 1.363 . S
C1407 C1410 1.363 . S
N1408 C1410 1.356 . S
N1408 H1420 0.984 . S
N1408 H1421 0.985 . S
N1409 C1411 1.356 . S
N1409 H1414 0.984 . S
N1409 H1415 0.985 . S
C1410 C1404 1.379 . S
C1410 C1407 1.363 . S
C1410 N1408 1.356 . S
C1411 C1405 1.363 . S
C1411 C1406 1.379 . S
C1411 N1409 1.356 . S
N1412 C1404 1.356 . S
N1412 H1418 0.984 . S
N1412 H1419 0.984 . S
N1413 C1406 1.356 . S
N1413 H1416 0.984 . S
N1413 H1417 0.985 . S
H1414 N1409 0.984 . S
H1415 N1409 0.985 . S
H1416 N1413 0.984 . S
H1417 N1413 0.985 . S
H1418 N1412 0.984 . S
H1419 N1412 0.984 . S
H1420 N1408 0.984 . S
H1421 N1408 0.985 . S
C1422 C1423 1.363 . S
C1422 C1428 1.379 . S
C1422 N1430 1.356 . S
C1423 C1422 1.363 . S
C1423 C1429 1.363 . S
C1424 C1425 1.363 . S
C1424 C1429 1.379 . S
C1424 N1431 1.356 . S
C1425 C1424 1.363 . S
C1425 C1428 1.363 . S
N1426 C1428 1.356 . S
N1426 H1438 0.984 . S
N1426 H1439 0.985 . S
N1427 C1429 1.356 . S
N1427 H1432 0.984 . S
N1427 H1433 0.985 . S
C1428 C1422 1.379 . S
C1428 C1425 1.363 . S
C1428 N1426 1.356 . S
C1429 C1423 1.363 . S
C1429 C1424 1.379 . S
C1429 N1427 1.356 . S
N1430 C1422 1.356 . S
N1430 H1436 0.984 . S
N1430 H1437 0.984 . S
N1431 C1424 1.356 . S
N1431 H1434 0.984 . S
N1431 H1435 0.985 . S
H1432 N1427 0.984 . S
H1433 N1427 0.985 . S
H1434 N1431 0.984 . S
H1435 N1431 0.985 . S
H1436 N1430 0.984 . S
H1437 N1430 0.984 . S
H1438 N1426 0.984 . S
H1439 N1426 0.985 . S
C1440 C1441 1.363 . S
C1440 C1446 1.379 1_655 S
C1440 N1448 1.356 . S
C1441 C1440 1.363 . S
C1441 C1447 1.363 . S
C1442 C1443 1.363 . S
C1442 C1447 1.379 1_455 S
C1442 N1449 1.356 . S
C1443 C1442 1.363 . S
C1443 C1446 1.363 . S
N1444 C1446 1.356 . S
N1444 H1456 0.984 . S
N1444 H1457 0.985 . S
N1445 C1447 1.356 . S
N1445 H1450 0.984 . S
N1445 H1451 0.985 . S
C1446 C1440 1.379 1_455 S
C1446 C1443 1.363 . S
C1446 N1444 1.356 . S
C1447 C1441 1.363 . S
C1447 C1442 1.379 1_655 S
C1447 N1445 1.356 . S
N1448 C1440 1.356 . S
N1448 H1454 0.984 . S
N1448 H1455 0.984 . S
N1449 C1442 1.356 . S
N1449 H1452 0.984 . S
N1449 H1453 0.985 . S
H1450 N1445 0.984 . S
H1451 N1445 0.985 . S
H1452 N1449 0.984 . S
H1453 N1449 0.985 . S
H1454 N1448 0.984 . S
H1455 N1448 0.984 . S
H1456 N1444 0.984 . S
H1457 N1444 0.985 . S
C1458 C1459 1.363 . S
C1458 C1464 1.379 1_545 S
C1458 N1466 1.356 . S
C1459 C1458 1.363 . S
C1459 C1465 1.363 . S
C1460 C1461 1.363 . S
C1460 C1465 1.379 1_565 S
C1460 N1467 1.356 . S
C1461 C1460 1.363 . S
C1461 C1464 1.363 . S
N1462 C1464 1.356 . S
N1462 H1474 0.984 . S
N1462 H1475 0.985 . S
N1463 C1465 1.356 . S
N1463 H1468 0.984 . S
N1463 H1469 0.985 . S
C1464 C1458 1.379 1_565 S
C1464 C1461 1.363 . S
C1464 N1462 1.356 . S
C1465 C1459 1.363 . S
C1465 C1460 1.379 1_545 S
C1465 N1463 1.356 . S
N1466 C1458 1.356 . S
N1466 H1472 0.984 . S
N1466 H1473 0.984 . S
N1467 C1460 1.356 . S
N1467 H1470 0.984 . S
N1467 H1471 0.985 . S
H1468 N1463 0.984 . S
H1469 N1463 0.985 . S
H1470 N1467 0.984 . S
H1471 N1467 0.985 . S
H1472 N1466 0.984 . S
H1473 N1466 0.984 . S
H1474 N1462 0.984 . S
H1475 N1462 0.985 . S
C1476 C1477 1.363 . S
C1476 C1482 1.379 1_455 S
C1476 N1484 1.356 . S
C1477 C1476 1.363 . S
C1477 C1483 1.363 . S
C1478 C1479 1.363 . S
C1478 C1483 1.379 1_655 S
C1478 N1485 1.356 . S
C1479 C1478 1.363 . S
C1479 C1482 1.363 . S
N1480 C1482 1.356 . S
N1480 H1492 0.984 . S
N1480 H1493 0.985 . S
N1481 C1483 1.356 . S
N1481 H1486 0.984 . S
N1481 H1487 0.985 . S
C1482 C1476 1.379 1_655 S
C1482 C1479 1.363 . S
C1482 N1480 1.356 . S
C1483 C1477 1.363 . S
C1483 C1478 1.379 1_455 S
C1483 N1481 1.356 . S
N1484 C1476 1.356 . S
N1484 H1490 0.984 . S
N1484 H1491 0.984 . S
N1485 C1478 1.356 . S
N1485 H1488 0.984 . S
N1485 H1489 0.985 . S
H1486 N1481 0.984 . S
H1487 N1481 0.985 . S
H1488 N1485 0.984 . S
H1489 N1485 0.985 . S
H1490 N1484 0.984 . S
H1491 N1484 0.984 . S
H1492 N1480 0.984 . S
H1493 N1480 0.985 . S
C1494 C1495 1.363 . S
C1494 C1500 1.379 1_565 S
C1494 N1502 1.356 . S
C1495 C1494 1.363 . S
C1495 C1501 1.363 . S
C1496 C1497 1.363 . S
C1496 C1501 1.379 1_545 S
C1496 N1503 1.356 . S
C1497 C1496 1.363 . S
C1497 C1500 1.363 . S
N1498 C1500 1.356 . S
N1498 H1510 0.984 . S
N1498 H1511 0.985 . S
N1499 C1501 1.356 . S
N1499 H1504 0.984 . S
N1499 H1505 0.985 . S
C1500 C1494 1.379 1_545 S
C1500 C1497 1.363 . S
C1500 N1498 1.356 . S
C1501 C1495 1.363 . S
C1501 C1496 1.379 1_565 S
C1501 N1499 1.356 . S
N1502 C1494 1.356 . S
N1502 H1508 0.984 . S
N1502 H1509 0.984 . S
N1503 C1496 1.356 . S
N1503 H1506 0.984 . S
N1503 H1507 0.985 . S
H1504 N1499 0.984 . S
H1505 N1499 0.985 . S
H1506 N1503 0.984 . S
H1507 N1503 0.985 . S
H1508 N1502 0.984 . S
H1509 N1502 0.984 . S
H1510 N1498 0.984 . S
H1511 N1498 0.985 . S
C1512 C1513 1.363 . S
C1512 C1518 1.379 1_455 S
C1512 N1520 1.356 . S
C1513 C1512 1.363 . S
C1513 C1519 1.363 . S
C1514 C1515 1.363 . S
C1514 C1519 1.379 1_655 S
C1514 N1521 1.356 . S
C1515 C1514 1.363 . S
C1515 C1518 1.363 . S
N1516 C1518 1.356 . S
N1516 H1528 0.984 . S
N1516 H1529 0.985 . S
N1517 C1519 1.356 . S
N1517 H1522 0.984 . S
N1517 H1523 0.985 . S
C1518 C1512 1.379 1_655 S
C1518 C1515 1.363 . S
C1518 N1516 1.356 . S
C1519 C1513 1.363 . S
C1519 C1514 1.379 1_455 S
C1519 N1517 1.356 . S
N1520 C1512 1.356 . S
N1520 H1526 0.984 . S
N1520 H1527 0.984 . S
N1521 C1514 1.356 . S
N1521 H1524 0.984 . S
N1521 H1525 0.985 . S
H1522 N1517 0.984 . S
H1523 N1517 0.985 . S
H1524 N1521 0.984 . S
H1525 N1521 0.985 . S
H1526 N1520 0.984 . S
H1527 N1520 0.984 . S
H1528 N1516 0.984 . S
H1529 N1516 0.985 . S
C1530 C1531 1.363 . S
C1530 C1536 1.379 1_565 S
C1530 N1538 1.356 . S
C1531 C1530 1.363 . S
C1531 C1537 1.363 . S
C1532 C1533 1.363 . S
C1532 C1537 1.379 1_545 S
C1532 N1539 1.356 . S
C1533 C1532 1.363 . S
C1533 C1536 1.363 . S
N1534 C1536 1.356 . S
N1534 H1546 0.984 . S
N1534 H1547 0.985 . S
N1535 C1537 1.356 . S
N1535 H1540 0.984 . S
N1535 H1541 0.985 . S
C1536 C1530 1.379 1_545 S
C1536 C1533 1.363 . S
C1536 N1534 1.356 . S
C1537 C1531 1.363 . S
C1537 C1532 1.379 1_565 S
C1537 N1535 1.356 . S
N1538 C1530 1.356 . S
N1538 H1544 0.984 . S
N1538 H1545 0.984 . S
N1539 C1532 1.356 . S
N1539 H1542 0.984 . S
N1539 H1543 0.985 . S
H1540 N1535 0.984 . S
H1541 N1535 0.985 . S
H1542 N1539 0.984 . S
H1543 N1539 0.985 . S
H1544 N1538 0.984 . S
H1545 N1538 0.984 . S
H1546 N1534 0.984 . S
H1547 N1534 0.985 . S
C1548 C1549 1.363 . S
C1548 C1554 1.379 1_455 S
C1548 N1556 1.356 . S
C1549 C1548 1.363 . S
C1549 C1555 1.363 . S
C1550 C1551 1.363 . S
C1550 C1555 1.379 1_655 S
C1550 N1557 1.356 . S
C1551 C1550 1.363 . S
C1551 C1554 1.363 . S
N1552 C1554 1.356 . S
N1552 H1564 0.984 . S
N1552 H1565 0.985 . S
N1553 C1555 1.356 . S
N1553 H1558 0.984 . S
N1553 H1559 0.985 . S
C1554 C1548 1.379 1_655 S
C1554 C1551 1.363 . S
C1554 N1552 1.356 . S
C1555 C1549 1.363 . S
C1555 C1550 1.379 1_455 S
C1555 N1553 1.356 . S
N1556 C1548 1.356 . S
N1556 H1562 0.984 . S
N1556 H1563 0.984 . S
N1557 C1550 1.356 . S
N1557 H1560 0.984 . S
N1557 H1561 0.985 . S
H1558 N1553 0.984 . S
H1559 N1553 0.985 . S
H1560 N1557 0.984 . S
H1561 N1557 0.985 . S
H1562 N1556 0.984 . S
H1563 N1556 0.984 . S
H1564 N1552 0.984 . S
H1565 N1552 0.985 . S
C1566 C1567 1.363 . S
C1566 C1572 1.379 1_545 S
C1566 N1574 1.356 . S
C1567 C1566 1.363 . S
C1567 C1573 1.363 . S
C1568 C1569 1.363 . S
C1568 C1573 1.379 1_565 S
C1568 N1575 1.356 . S
C1569 C1568 1.363 . S
C1569 C1572 1.363 . S
N1570 C1572 1.356 . S
N1570 H1582 0.984 . S
N1570 H1583 0.985 . S
N1571 C1573 1.356 . S
N1571 H1576 0.984 . S
N1571 H1577 0.985 . S
C1572 C1566 1.379 1_565 S
C1572 C1569 1.363 . S
C1572 N1570 1.356 . S
C1573 C1567 1.363 . S
C1573 C1568 1.379 1_545 S
C1573 N1571 1.356 . S
N1574 C1566 1.356 . S
N1574 H1580 0.984 . S
N1574 H1581 0.984 . S
N1575 C1568 1.356 . S
N1575 H1578 0.984 . S
N1575 H1579 0.985 . S
H1576 N1571 0.984 . S
H1577 N1571 0.985 . S
H1578 N1575 0.984 . S
H1579 N1575 0.985 . S
H1580 N1574 0.984 . S
H1581 N1574 0.984 . S
H1582 N1570 0.984 . S
H1583 N1570 0.985 . S
C1584 C1585 1.363 . S
C1584 C1590 1.379 . S
C1584 N1592 1.356 . S
C1585 C1584 1.363 . S
C1585 C1591 1.363 . S
C1586 C1587 1.363 . S
C1586 C1591 1.379 . S
C1586 N1593 1.356 . S
C1587 C1586 1.363 . S
C1587 C1590 1.363 . S
N1588 C1590 1.356 . S
N1588 H1600 0.984 . S
N1588 H1601 0.985 . S
N1589 C1591 1.356 . S
N1589 H1594 0.984 . S
N1589 H1595 0.985 . S
C1590 C1584 1.379 . S
C1590 C1587 1.363 . S
C1590 N1588 1.356 . S
C1591 C1585 1.363 . S
C1591 C1586 1.379 . S
C1591 N1589 1.356 . S
N1592 C1584 1.356 . S
N1592 H1598 0.984 . S
N1592 H1599 0.984 . S
N1593 C1586 1.356 . S
N1593 H1596 0.984 . S
N1593 H1597 0.985 . S
H1594 N1589 0.984 . S
H1595 N1589 0.985 . S
H1596 N1593 0.984 . S
H1597 N1593 0.985 . S
H1598 N1592 0.984 . S
H1599 N1592 0.984 . S
H1600 N1588 0.984 . S
H1601 N1588 0.985 . S
C1602 C1603 1.363 . S
C1602 C1608 1.379 . S
C1602 N1610 1.356 . S
C1603 C1602 1.363 . S
C1603 C1609 1.363 . S
C1604 C1605 1.363 . S
C1604 C1609 1.379 . S
C1604 N1611 1.356 . S
C1605 C1604 1.363 . S
C1605 C1608 1.363 . S
N1606 C1608 1.356 . S
N1606 H1618 0.984 . S
N1606 H1619 0.985 . S
N1607 C1609 1.356 . S
N1607 H1612 0.984 . S
N1607 H1613 0.985 . S
C1608 C1602 1.379 . S
C1608 C1605 1.363 . S
C1608 N1606 1.356 . S
C1609 C1603 1.363 . S
C1609 C1604 1.379 . S
C1609 N1607 1.356 . S
N1610 C1602 1.356 . S
N1610 H1616 0.984 . S
N1610 H1617 0.984 . S
N1611 C1604 1.356 . S
N1611 H1614 0.984 . S
N1611 H1615 0.985 . S
H1612 N1607 0.984 . S
H1613 N1607 0.985 . S
H1614 N1611 0.984 . S
H1615 N1611 0.985 . S
H1616 N1610 0.984 . S
H1617 N1610 0.984 . S
H1618 N1606 0.984 . S
H1619 N1606 0.985 . S
C1620 C1621 1.363 . S
C1620 C1626 1.379 . S
C1620 N1628 1.356 . S
C1621 C1620 1.363 . S
C1621 C1627 1.363 . S
C1622 C1623 1.363 . S
C1622 C1627 1.379 . S
C1622 N1629 1.356 . S
C1623 C1622 1.363 . S
C1623 C1626 1.363 . S
N1624 C1626 1.356 . S
N1624 H1636 0.984 . S
N1624 H1637 0.985 . S
N1625 C1627 1.356 . S
N1625 H1630 0.984 . S
N1625 H1631 0.985 . S
C1626 C1620 1.379 . S
C1626 C1623 1.363 . S
C1626 N1624 1.356 . S
C1627 C1621 1.363 . S
C1627 C1622 1.379 . S
C1627 N1625 1.356 . S
N1628 C1620 1.356 . S
N1628 H1634 0.984 . S
N1628 H1635 0.984 . S
N1629 C1622 1.356 . S
N1629 H1632 0.984 . S
N1629 H1633 0.985 . S
H1630 N1625 0.984 . S
H1631 N1625 0.985 . S
H1632 N1629 0.984 . S
H1633 N1629 0.985 . S
H1634 N1628 0.984 . S
H1635 N1628 0.984 . S
H1636 N1624 0.984 . S
H1637 N1624 0.985 . S
C1638 C1639 1.363 . S
C1638 C1644 1.379 . S
C1638 N1646 1.356 . S
C1639 C1638 1.363 . S
C1639 C1645 1.363 . S
C1640 C1641 1.363 . S
C1640 C1645 1.379 . S
C1640 N1647 1.356 . S
C1641 C1640 1.363 . S
C1641 C1644 1.363 . S
N1642 C1644 1.356 . S
N1642 H1654 0.984 . S
N1642 H1655 0.985 . S
N1643 C1645 1.356 . S
N1643 H1648 0.984 . S
N1643 H1649 0.985 . S
C1644 C1638 1.379 . S
C1644 C1641 1.363 . S
C1644 N1642 1.356 . S
C1645 C1639 1.363 . S
C1645 C1640 1.379 . S
C1645 N1643 1.356 . S
N1646 C1638 1.356 . S
N1646 H1652 0.984 . S
N1646 H1653 0.984 . S
N1647 C1640 1.356 . S
N1647 H1650 0.984 . S
N1647 H1651 0.985 . S
H1648 N1643 0.984 . S
H1649 N1643 0.985 . S
H1650 N1647 0.984 . S
H1651 N1647 0.985 . S
H1652 N1646 0.984 . S
H1653 N1646 0.984 . S
H1654 N1642 0.984 . S
H1655 N1642 0.985 . S
C1656 C1657 1.363 . S
C1656 C1662 1.379 . S
C1656 N1664 1.356 . S
C1657 C1656 1.363 . S
C1657 C1663 1.363 . S
C1658 C1659 1.363 . S
C1658 C1663 1.379 . S
C1658 N1665 1.356 . S
C1659 C1658 1.363 . S
C1659 C1662 1.363 . S
N1660 C1662 1.356 . S
N1660 H1672 0.984 . S
N1660 H1673 0.985 . S
N1661 C1663 1.356 . S
N1661 H1666 0.984 . S
N1661 H1667 0.985 . S
C1662 C1656 1.379 . S
C1662 C1659 1.363 . S
C1662 N1660 1.356 . S
C1663 C1657 1.363 . S
C1663 C1658 1.379 . S
C1663 N1661 1.356 . S
N1664 C1656 1.356 . S
N1664 H1670 0.984 . S
N1664 H1671 0.984 . S
N1665 C1658 1.356 . S
N1665 H1668 0.984 . S
N1665 H1669 0.985 . S
H1666 N1661 0.984 . S
H1667 N1661 0.985 . S
H1668 N1665 0.984 . S
H1669 N1665 0.985 . S
H1670 N1664 0.984 . S
H1671 N1664 0.984 . S
H1672 N1660 0.984 . S
H1673 N1660 0.985 . S
C1674 C1675 1.363 . S
C1674 C1680 1.379 . S
C1674 N1682 1.356 . S
C1675 C1674 1.363 . S
C1675 C1681 1.363 . S
C1676 C1677 1.363 . S
C1676 C1681 1.379 . S
C1676 N1683 1.356 . S
C1677 C1676 1.363 . S
C1677 C1680 1.363 . S
N1678 C1680 1.356 . S
N1678 H1690 0.984 . S
N1678 H1691 0.985 . S
N1679 C1681 1.356 . S
N1679 H1684 0.984 . S
N1679 H1685 0.985 . S
C1680 C1674 1.379 . S
C1680 C1677 1.363 . S
C1680 N1678 1.356 . S
C1681 C1675 1.363 . S
C1681 C1676 1.379 . S
C1681 N1679 1.356 . S
N1682 C1674 1.356 . S
N1682 H1688 0.984 . S
N1682 H1689 0.984 . S
N1683 C1676 1.356 . S
N1683 H1686 0.984 . S
N1683 H1687 0.985 . S
H1684 N1679 0.984 . S
H1685 N1679 0.985 . S
H1686 N1683 0.984 . S
H1687 N1683 0.985 . S
H1688 N1682 0.984 . S
H1689 N1682 0.984 . S
H1690 N1678 0.984 . S
H1691 N1678 0.985 . S
C1692 C1693 1.363 . S
C1692 C1698 1.379 . S
C1692 N1700 1.356 . S
C1693 C1692 1.363 . S
C1693 C1699 1.363 . S
C1694 C1695 1.363 . S
C1694 C1699 1.379 . S
C1694 N1701 1.356 . S
C1695 C1694 1.363 . S
C1695 C1698 1.363 . S
N1696 C1698 1.356 . S
N1696 H1708 0.984 . S
N1696 H1709 0.985 . S
N1697 C1699 1.356 . S
N1697 H1702 0.984 . S
N1697 H1703 0.985 . S
C1698 C1692 1.379 . S
C1698 C1695 1.363 . S
C1698 N1696 1.356 . S
C1699 C1693 1.363 . S
C1699 C1694 1.379 . S
C1699 N1697 1.356 . S
N1700 C1692 1.356 . S
N1700 H1706 0.984 . S
N1700 H1707 0.984 . S
N1701 C1694 1.356 . S
N1701 H1704 0.984 . S
N1701 H1705 0.985 . S
H1702 N1697 0.984 . S
H1703 N1697 0.985 . S
H1704 N1701 0.984 . S
H1705 N1701 0.985 . S
H1706 N1700 0.984 . S
H1707 N1700 0.984 . S
H1708 N1696 0.984 . S
H1709 N1696 0.985 . S
C1710 C1711 1.363 . S
C1710 C1716 1.379 . S
C1710 N1718 1.356 . S
C1711 C1710 1.363 . S
C1711 C1717 1.363 . S
C1712 C1713 1.363 . S
C1712 C1717 1.379 . S
C1712 N1719 1.356 . S
C1713 C1712 1.363 . S
C1713 C1716 1.363 . S
N1714 C1716 1.356 . S
N1714 H1726 0.984 . S
N1714 H1727 0.985 . S
N1715 C1717 1.356 . S
N1715 H1720 0.984 . S
N1715 H1721 0.985 . S
C1716 C1710 1.379 . S
C1716 C1713 1.363 . S
C1716 N1714 1.356 . S
C1717 C1711 1.363 . S
C1717 C1712 1.379 . S
C1717 N1715 1.356 . S
N1718 C1710 1.356 . S
N1718 H1724 0.984 . S
N1718 H1725 0.984 . S
N1719 C1712 1.356 . S
N1719 H1722 0.984 . S
N1719 H1723 0.985 . S
H1720 N1715 0.984 . S
H1721 N1715 0.985 . S
H1722 N1719 0.984 . S
H1723 N1719 0.985 . S
H1724 N1718 0.984 . S
H1725 N1718 0.984 . S
H1726 N1714 0.984 . S
H1727 N1714 0.985 . S
C1728 C1729 1.363 . S
C1728 C1734 1.379 . S
C1728 N1736 1.356 . S
C1729 C1728 1.363 . S
C1729 C1735 1.363 . S
C1730 C1731 1.363 . S
C1730 C1735 1.379 . S
C1730 N1737 1.356 . S
C1731 C1730 1.363 . S
C1731 C1734 1.363 . S
N1732 C1734 1.356 . S
N1732 H1744 0.984 . S
N1732 H1745 0.985 . S
N1733 C1735 1.356 . S
N1733 H1738 0.984 . S
N1733 H1739 0.985 . S
C1734 C1728 1.379 . S
C1734 C1731 1.363 . S
C1734 N1732 1.356 . S
C1735 C1729 1.363 . S
C1735 C1730 1.379 . S
C1735 N1733 1.356 . S
N1736 C1728 1.356 . S
N1736 H1742 0.984 . S
N1736 H1743 0.984 . S
N1737 C1730 1.356 . S
N1737 H1740 0.984 . S
N1737 H1741 0.985 . S
H1738 N1733 0.984 . S
H1739 N1733 0.985 . S
H1740 N1737 0.984 . S
H1741 N1737 0.985 . S
H1742 N1736 0.984 . S
H1743 N1736 0.984 . S
H1744 N1732 0.984 . S
H1745 N1732 0.985 . S
C1746 C1747 1.363 . S
C1746 C1752 1.379 . S
C1746 N1754 1.356 . S
C1747 C1746 1.363 . S
C1747 C1753 1.363 . S
C1748 C1749 1.363 . S
C1748 C1753 1.379 . S
C1748 N1755 1.356 . S
C1749 C1748 1.363 . S
C1749 C1752 1.363 . S
N1750 C1752 1.356 . S
N1750 H1762 0.984 . S
N1750 H1763 0.985 . S
N1751 C1753 1.356 . S
N1751 H1756 0.984 . S
N1751 H1757 0.985 . S
C1752 C1746 1.379 . S
C1752 C1749 1.363 . S
C1752 N1750 1.356 . S
C1753 C1747 1.363 . S
C1753 C1748 1.379 . S
C1753 N1751 1.356 . S
N1754 C1746 1.356 . S
N1754 H1760 0.984 . S
N1754 H1761 0.984 . S
N1755 C1748 1.356 . S
N1755 H1758 0.984 . S
N1755 H1759 0.985 . S
H1756 N1751 0.984 . S
H1757 N1751 0.985 . S
H1758 N1755 0.984 . S
H1759 N1755 0.985 . S
H1760 N1754 0.984 . S
H1761 N1754 0.984 . S
H1762 N1750 0.984 . S
H1763 N1750 0.985 . S
C1764 C1765 1.363 . S
C1764 C1770 1.379 . S
C1764 N1772 1.356 . S
C1765 C1764 1.363 . S
C1765 C1771 1.363 . S
C1766 C1767 1.363 . S
C1766 C1771 1.379 . S
C1766 N1773 1.356 . S
C1767 C1766 1.363 . S
C1767 C1770 1.363 . S
N1768 C1770 1.356 . S
N1768 H1780 0.984 . S
N1768 H1781 0.985 . S
N1769 C1771 1.356 . S
N1769 H1774 0.984 . S
N1769 H1775 0.985 . S
C1770 C1764 1.379 . S
C1770 C1767 1.363 . S
C1770 N1768 1.356 . S
C1771 C1765 1.363 . S
C1771 C1766 1.379 . S
C1771 N1769 1.356 . S
N1772 C1764 1.356 . S
N1772 H1778 0.984 . S
N1772 H1779 0.984 . S
N1773 C1766 1.356 . S
N1773 H1776 0.984 . S
N1773 H1777 0.985 . S
H1774 N1769 0.984 . S
H1775 N1769 0.985 . S
H1776 N1773 0.984 . S
H1777 N1773 0.985 . S
H1778 N1772 0.984 . S
H1779 N1772 0.984 . S
H1780 N1768 0.984 . S
H1781 N1768 0.985 . S
C1782 C1783 1.363 . S
C1782 C1788 1.379 . S
C1782 N1790 1.356 . S
C1783 C1782 1.363 . S
C1783 C1789 1.363 . S
C1784 C1785 1.363 . S
C1784 C1789 1.379 . S
C1784 N1791 1.356 . S
C1785 C1784 1.363 . S
C1785 C1788 1.363 . S
N1786 C1788 1.356 . S
N1786 H1798 0.984 . S
N1786 H1799 0.985 . S
N1787 C1789 1.356 . S
N1787 H1792 0.984 . S
N1787 H1793 0.985 . S
C1788 C1782 1.379 . S
C1788 C1785 1.363 . S
C1788 N1786 1.356 . S
C1789 C1783 1.363 . S
C1789 C1784 1.379 . S
C1789 N1787 1.356 . S
N1790 C1782 1.356 . S
N1790 H1796 0.984 . S
N1790 H1797 0.984 . S
N1791 C1784 1.356 . S
N1791 H1794 0.984 . S
N1791 H1795 0.985 . S
H1792 N1787 0.984 . S
H1793 N1787 0.985 . S
H1794 N1791 0.984 . S
H1795 N1791 0.985 . S
H1796 N1790 0.984 . S
H1797 N1790 0.984 . S
H1798 N1786 0.984 . S
H1799 N1786 0.985 . S
C1800 C1801 1.363 . S
C1800 C1806 1.379 . S
C1800 N1808 1.356 . S
C1801 C1800 1.363 . S
C1801 C1807 1.363 . S
C1802 C1803 1.363 . S
C1802 C1807 1.379 . S
C1802 N1809 1.356 . S
C1803 C1802 1.363 . S
C1803 C1806 1.363 . S
N1804 C1806 1.356 . S
N1804 H1816 0.984 . S
N1804 H1817 0.985 . S
N1805 C1807 1.356 . S
N1805 H1810 0.984 . S
N1805 H1811 0.985 . S
C1806 C1800 1.379 . S
C1806 C1803 1.363 . S
C1806 N1804 1.356 . S
C1807 C1801 1.363 . S
C1807 C1802 1.379 . S
C1807 N1805 1.356 . S
N1808 C1800 1.356 . S
N1808 H1814 0.984 . S
N1808 H1815 0.984 . S
N1809 C1802 1.356 . S
N1809 H1812 0.984 . S
N1809 H1813 0.985 . S
H1810 N1805 0.984 . S
H1811 N1805 0.985 . S
H1812 N1809 0.984 . S
H1813 N1809 0.985 . S
H1814 N1808 0.984 . S
H1815 N1808 0.984 . S
H1816 N1804 0.984 . S
H1817 N1804 0.985 . S
C1818 C1819 1.363 . S
C1818 C1824 1.379 . S
C1818 N1826 1.356 . S
C1819 C1818 1.363 . S
C1819 C1825 1.363 . S
C1820 C1821 1.363 . S
C1820 C1825 1.379 . S
C1820 N1827 1.356 . S
C1821 C1820 1.363 . S
C1821 C1824 1.363 . S
N1822 C1824 1.356 . S
N1822 H1834 0.984 . S
N1822 H1835 0.985 . S
N1823 C1825 1.356 . S
N1823 H1828 0.984 . S
N1823 H1829 0.985 . S
C1824 C1818 1.379 . S
C1824 C1821 1.363 . S
C1824 N1822 1.356 . S
C1825 C1819 1.363 . S
C1825 C1820 1.379 . S
C1825 N1823 1.356 . S
N1826 C1818 1.356 . S
N1826 H1832 0.984 . S
N1826 H1833 0.984 . S
N1827 C1820 1.356 . S
N1827 H1830 0.984 . S
N1827 H1831 0.985 . S
H1828 N1823 0.984 . S
H1829 N1823 0.985 . S
H1830 N1827 0.984 . S
H1831 N1827 0.985 . S
H1832 N1826 0.984 . S
H1833 N1826 0.984 . S
H1834 N1822 0.984 . S
H1835 N1822 0.985 . S
C1836 C1837 1.363 . S
C1836 C1842 1.379 . S
C1836 N1844 1.356 . S
C1837 C1836 1.363 . S
C1837 C1843 1.363 . S
C1838 C1839 1.363 . S
C1838 C1843 1.379 . S
C1838 N1845 1.356 . S
C1839 C1838 1.363 . S
C1839 C1842 1.363 . S
N1840 C1842 1.356 . S
N1840 H1852 0.984 . S
N1840 H1853 0.985 . S
N1841 C1843 1.356 . S
N1841 H1846 0.984 . S
N1841 H1847 0.985 . S
C1842 C1836 1.379 . S
C1842 C1839 1.363 . S
C1842 N1840 1.356 . S
C1843 C1837 1.363 . S
C1843 C1838 1.379 . S
C1843 N1841 1.356 . S
N1844 C1836 1.356 . S
N1844 H1850 0.984 . S
N1844 H1851 0.984 . S
N1845 C1838 1.356 . S
N1845 H1848 0.984 . S
N1845 H1849 0.985 . S
H1846 N1841 0.984 . S
H1847 N1841 0.985 . S
H1848 N1845 0.984 . S
H1849 N1845 0.985 . S
H1850 N1844 0.984 . S
H1851 N1844 0.984 . S
H1852 N1840 0.984 . S
H1853 N1840 0.985 . S
C1854 C1855 1.363 . S
C1854 C1860 1.379 . S
C1854 N1862 1.356 . S
C1855 C1854 1.363 . S
C1855 C1861 1.363 . S
C1856 C1857 1.363 . S
C1856 C1861 1.379 . S
C1856 N1863 1.356 . S
C1857 C1856 1.363 . S
C1857 C1860 1.363 . S
N1858 C1860 1.356 . S
N1858 H1870 0.984 . S
N1858 H1871 0.985 . S
N1859 C1861 1.356 . S
N1859 H1864 0.984 . S
N1859 H1865 0.985 . S
C1860 C1854 1.379 . S
C1860 C1857 1.363 . S
C1860 N1858 1.356 . S
C1861 C1855 1.363 . S
C1861 C1856 1.379 . S
C1861 N1859 1.356 . S
N1862 C1854 1.356 . S
N1862 H1868 0.984 . S
N1862 H1869 0.984 . S
N1863 C1856 1.356 . S
N1863 H1866 0.984 . S
N1863 H1867 0.985 . S
H1864 N1859 0.984 . S
H1865 N1859 0.985 . S
H1866 N1863 0.984 . S
H1867 N1863 0.985 . S
H1868 N1862 0.984 . S
H1869 N1862 0.984 . S
H1870 N1858 0.984 . S
H1871 N1858 0.985 . S
C1872 C1873 1.363 . S
C1872 C1878 1.379 1_554 S
C1872 N1880 1.356 . S
C1873 C1872 1.363 . S
C1873 C1879 1.363 . S
C1874 C1875 1.363 . S
C1874 C1879 1.379 1_556 S
C1874 N1881 1.356 . S
C1875 C1874 1.363 . S
C1875 C1878 1.363 . S
N1876 C1878 1.356 . S
N1876 H1888 0.984 . S
N1876 H1889 0.985 . S
N1877 C1879 1.356 . S
N1877 H1882 0.984 . S
N1877 H1883 0.985 . S
C1878 C1872 1.379 1_556 S
C1878 C1875 1.363 . S
C1878 N1876 1.356 . S
C1879 C1873 1.363 . S
C1879 C1874 1.379 1_554 S
C1879 N1877 1.356 . S
N1880 C1872 1.356 . S
N1880 H1886 0.984 . S
N1880 H1887 0.984 . S
N1881 C1874 1.356 . S
N1881 H1884 0.984 . S
N1881 H1885 0.985 . S
H1882 N1877 0.984 . S
H1883 N1877 0.985 . S
H1884 N1881 0.984 . S
H1885 N1881 0.985 . S
H1886 N1880 0.984 . S
H1887 N1880 0.984 . S
H1888 N1876 0.984 . S
H1889 N1876 0.985 . S
C1890 C1891 1.363 . S
C1890 C1896 1.379 1_556 S
C1890 N1898 1.356 . S
C1891 C1890 1.363 . S
C1891 C1897 1.363 . S
C1892 C1893 1.363 . S
C1892 C1897 1.379 1_554 S
C1892 N1899 1.356 . S
C1893 C1892 1.363 . S
C1893 C1896 1.363 . S
N1894 C1896 1.356 . S
N1894 H1906 0.984 . S
N1894 H1907 0.985 . S
N1895 C1897 1.356 . S
N1895 H1900 0.984 . S
N1895 H1901 0.985 . S
C1896 C1890 1.379 1_554 S
C1896 C1893 1.363 . S
C1896 N1894 1.356 . S
C1897 C1891 1.363 . S
C1897 C1892 1.379 1_556 S
C1897 N1895 1.356 . S
N1898 C1890 1.356 . S
N1898 H1904 0.984 . S
N1898 H1905 0.984 . S
N1899 C1892 1.356 . S
N1899 H1902 0.984 . S
N1899 H1903 0.985 . S
H1900 N1895 0.984 . S
H1901 N1895 0.985 . S
H1902 N1899 0.984 . S
H1903 N1899 0.985 . S
H1904 N1898 0.984 . S
H1905 N1898 0.984 . S
H1906 N1894 0.984 . S
H1907 N1894 0.985 . S
C1908 C1909 1.363 . S
C1908 C1914 1.379 1_554 S
C1908 N1916 1.356 . S
C1909 C1908 1.363 . S
C1909 C1915 1.363 . S
C1910 C1911 1.363 . S
C1910 C1915 1.379 1_556 S
C1910 N1917 1.356 . S
C1911 C1910 1.363 . S
C1911 C1914 1.363 . S
N1912 C1914 1.356 . S
N1912 H1924 0.984 . S
N1912 H1925 0.985 . S
N1913 C1915 1.356 . S
N1913 H1918 0.984 . S
N1913 H1919 0.985 . S
C1914 C1908 1.379 1_556 S
C1914 C1911 1.363 . S
C1914 N1912 1.356 . S
C1915 C1909 1.363 . S
C1915 C1910 1.379 1_554 S
C1915 N1913 1.356 . S
N1916 C1908 1.356 . S
N1916 H1922 0.984 . S
N1916 H1923 0.984 . S
N1917 C1910 1.356 . S
N1917 H1920 0.984 . S
N1917 H1921 0.985 . S
H1918 N1913 0.984 . S
H1919 N1913 0.985 . S
H1920 N1917 0.984 . S
H1921 N1917 0.985 . S
H1922 N1916 0.984 . S
H1923 N1916 0.984 . S
H1924 N1912 0.984 . S
H1925 N1912 0.985 . S
C1926 C1927 1.363 . S
C1926 C1932 1.379 1_554 S
C1926 N1934 1.356 . S
C1927 C1926 1.363 . S
C1927 C1933 1.363 . S
C1928 C1929 1.364 . S
C1928 C1933 1.378 1_556 S
C1928 N1935 1.357 . S
C1929 C1928 1.364 . S
C1929 C1932 1.363 . S
N1930 C1932 1.356 . S
N1930 H1942 0.984 . S
N1930 H1943 0.985 . S
N1931 C1933 1.356 . S
N1931 H1936 0.984 . S
N1931 H1937 0.985 . S
C1932 C1926 1.379 1_556 S
C1932 C1929 1.363 . S
C1932 N1930 1.356 . S
C1933 C1927 1.363 . S
C1933 C1928 1.378 1_554 S
C1933 N1931 1.356 . S
N1934 C1926 1.356 . S
N1934 H1940 0.984 . S
N1934 H1941 0.984 . S
N1935 C1928 1.357 . S
N1935 H1938 0.984 . S
N1935 H1939 0.985 . S
H1936 N1931 0.984 . S
H1937 N1931 0.985 . S
H1938 N1935 0.984 . S
H1939 N1935 0.985 . S
H1940 N1934 0.984 . S
H1941 N1934 0.984 . S
H1942 N1930 0.984 . S
H1943 N1930 0.985 . S
C1944 C1945 1.363 . S
C1944 C1950 1.379 1_554 S
C1944 N1952 1.356 . S
C1945 C1944 1.363 . S
C1945 C1951 1.363 . S
C1946 C1947 1.363 . S
C1946 C1951 1.379 1_556 S
C1946 N1953 1.356 . S
C1947 C1946 1.363 . S
C1947 C1950 1.363 . S
N1948 C1950 1.356 . S
N1948 H1960 0.984 . S
N1948 H1961 0.985 . S
N1949 C1951 1.356 . S
N1949 H1954 0.984 . S
N1949 H1955 0.985 . S
C1950 C1944 1.379 1_556 S
C1950 C1947 1.363 . S
C1950 N1948 1.356 . S
C1951 C1945 1.363 . S
C1951 C1946 1.379 1_554 S
C1951 N1949 1.356 . S
N1952 C1944 1.356 . S
N1952 H1958 0.984 . S
N1952 H1959 0.984 . S
N1953 C1946 1.356 . S
N1953 H1956 0.984 . S
N1953 H1957 0.985 . S
H1954 N1949 0.984 . S
H1955 N1949 0.985 . S
H1956 N1953 0.984 . S
H1957 N1953 0.985 . S
H1958 N1952 0.984 . S
H1959 N1952 0.984 . S
H1960 N1948 0.984 . S
H1961 N1948 0.985 . S
C1962 C1963 1.363 . S
C1962 C1968 1.379 1_554 S
C1962 N1970 1.356 . S
C1963 C1962 1.363 . S
C1963 C1969 1.363 . S
C1964 C1965 1.363 . S
C1964 C1969 1.379 1_556 S
C1964 N1971 1.356 . S
C1965 C1964 1.363 . S
C1965 C1968 1.363 . S
N1966 C1968 1.356 . S
N1966 H1978 0.984 . S
N1966 H1979 0.985 . S
N1967 C1969 1.356 . S
N1967 H1972 0.984 . S
N1967 H1973 0.985 . S
C1968 C1962 1.379 1_556 S
C1968 C1965 1.363 . S
C1968 N1966 1.356 . S
C1969 C1963 1.363 . S
C1969 C1964 1.379 1_554 S
C1969 N1967 1.356 . S
N1970 C1962 1.356 . S
N1970 H1976 0.984 . S
N1970 H1977 0.984 . S
N1971 C1964 1.356 . S
N1971 H1974 0.984 . S
N1971 H1975 0.985 . S
H1972 N1967 0.984 . S
H1973 N1967 0.985 . S
H1974 N1971 0.984 . S
H1975 N1971 0.985 . S
H1976 N1970 0.984 . S
H1977 N1970 0.984 . S
H1978 N1966 0.984 . S
H1979 N1966 0.985 . S
C1980 C1981 1.363 . S
C1980 C1986 1.379 1_556 S
C1980 N1988 1.356 . S
C1981 C1980 1.363 . S
C1981 C1987 1.363 . S
C1982 C1983 1.363 . S
C1982 C1987 1.379 1_554 S
C1982 N1989 1.356 . S
C1983 C1982 1.363 . S
C1983 C1986 1.363 . S
N1984 C1986 1.356 . S
N1984 H1996 0.984 . S
N1984 H1997 0.985 . S
N1985 C1987 1.356 . S
N1985 H1990 0.984 . S
N1985 H1991 0.985 . S
C1986 C1980 1.379 1_554 S
C1986 C1983 1.363 . S
C1986 N1984 1.356 . S
C1987 C1981 1.363 . S
C1987 C1982 1.379 1_556 S
C1987 N1985 1.356 . S
N1988 C1980 1.356 . S
N1988 H1994 0.984 . S
N1988 H1995 0.984 . S
N1989 C1982 1.356 . S
N1989 H1992 0.984 . S
N1989 H1993 0.985 . S
H1990 N1985 0.984 . S
H1991 N1985 0.985 . S
H1992 N1989 0.984 . S
H1993 N1989 0.985 . S
H1994 N1988 0.984 . S
H1995 N1988 0.984 . S
H1996 N1984 0.984 . S
H1997 N1984 0.985 . S
C1998 C1999 1.363 . S
C1998 C2004 1.377 1_556 S
C1998 N2006 1.356 . S
C1999 C1998 1.363 . S
C1999 C2005 1.363 . S
C2000 C2001 1.363 . S
C2000 C2005 1.379 1_554 S
C2000 N2007 1.356 . S
C2001 C2000 1.363 . S
C2001 C2004 1.364 . S
N2002 C2004 1.358 . S
N2002 H2014 0.984 . S
N2002 H2015 0.985 . S
N2003 C2005 1.356 . S
N2003 H2008 0.984 . S
N2003 H2009 0.985 . S
C2004 C1998 1.377 1_554 S
C2004 C2001 1.364 . S
C2004 N2002 1.358 . S
C2005 C1999 1.363 . S
C2005 C2000 1.379 1_556 S
C2005 N2003 1.356 . S
N2006 C1998 1.356 . S
N2006 H2012 0.984 . S
N2006 H2013 0.984 . S
N2007 C2000 1.356 . S
N2007 H2010 0.984 . S
N2007 H2011 0.985 . S
H2008 N2003 0.984 . S
H2009 N2003 0.985 . S
H2010 N2007 0.984 . S
H2011 N2007 0.985 . S
H2012 N2006 0.984 . S
H2013 N2006 0.984 . S
H2014 N2002 0.984 . S
H2015 N2002 0.985 . S
C2016 C2017 1.363 . S
C2016 C2022 1.379 . S
C2016 N2024 1.356 . S
C2017 C2016 1.363 . S
C2017 C2023 1.363 . S
C2018 C2019 1.363 . S
C2018 C2023 1.379 . S
C2018 N2025 1.356 . S
C2019 C2018 1.363 . S
C2019 C2022 1.363 . S
N2020 C2022 1.356 . S
N2020 H2032 0.984 . S
N2020 H2033 0.985 . S
N2021 C2023 1.356 . S
N2021 H2026 0.984 . S
N2021 H2027 0.985 . S
C2022 C2016 1.379 . S
C2022 C2019 1.363 . S
C2022 N2020 1.356 . S
C2023 C2017 1.363 . S
C2023 C2018 1.379 . S
C2023 N2021 1.356 . S
N2024 C2016 1.356 . S
N2024 H2030 0.984 . S
N2024 H2031 0.984 . S
N2025 C2018 1.356 . S
N2025 H2028 0.984 . S
N2025 H2029 0.985 . S
H2026 N2021 0.984 . S
H2027 N2021 0.985 . S
H2028 N2025 0.984 . S
H2029 N2025 0.985 . S
H2030 N2024 0.984 . S
H2031 N2024 0.984 . S
H2032 N2020 0.984 . S
H2033 N2020 0.985 . S
C2034 C2035 1.363 . S
C2034 C2040 1.379 . S
C2034 N2042 1.356 . S
C2035 C2034 1.363 . S
C2035 C2041 1.363 . S
C2036 C2037 1.363 . S
C2036 C2041 1.379 . S
C2036 N2043 1.356 . S
C2037 C2036 1.363 . S
C2037 C2040 1.363 . S
N2038 C2040 1.356 . S
N2038 H2050 0.984 . S
N2038 H2051 0.985 . S
N2039 C2041 1.356 . S
N2039 H2044 0.984 . S
N2039 H2045 0.985 . S
C2040 C2034 1.379 . S
C2040 C2037 1.363 . S
C2040 N2038 1.356 . S
C2041 C2035 1.363 . S
C2041 C2036 1.379 . S
C2041 N2039 1.356 . S
N2042 C2034 1.356 . S
N2042 H2048 0.984 . S
N2042 H2049 0.984 . S
N2043 C2036 1.356 . S
N2043 H2046 0.984 . S
N2043 H2047 0.985 . S
H2044 N2039 0.984 . S
H2045 N2039 0.985 . S
H2046 N2043 0.984 . S
H2047 N2043 0.985 . S
H2048 N2042 0.984 . S
H2049 N2042 0.984 . S
H2050 N2038 0.984 . S
H2051 N2038 0.985 . S
C2052 C2053 1.363 . S
C2052 C2058 1.379 . S
C2052 N2060 1.356 . S
C2053 C2052 1.363 . S
C2053 C2059 1.363 . S
C2054 C2055 1.363 . S
C2054 C2059 1.379 . S
C2054 N2061 1.356 . S
C2055 C2054 1.363 . S
C2055 C2058 1.363 . S
N2056 C2058 1.356 . S
N2056 H2068 0.984 . S
N2056 H2069 0.985 . S
N2057 C2059 1.356 . S
N2057 H2062 0.984 . S
N2057 H2063 0.985 . S
C2058 C2052 1.379 . S
C2058 C2055 1.363 . S
C2058 N2056 1.356 . S
C2059 C2053 1.363 . S
C2059 C2054 1.379 . S
C2059 N2057 1.356 . S
N2060 C2052 1.356 . S
N2060 H2066 0.984 . S
N2060 H2067 0.984 . S
N2061 C2054 1.356 . S
N2061 H2064 0.984 . S
N2061 H2065 0.985 . S
H2062 N2057 0.984 . S
H2063 N2057 0.985 . S
H2064 N2061 0.984 . S
H2065 N2061 0.985 . S
H2066 N2060 0.984 . S
H2067 N2060 0.984 . S
H2068 N2056 0.984 . S
H2069 N2056 0.985 . S
C2070 C2071 1.363 . S
C2070 C2076 1.379 . S
C2070 N2078 1.356 . S
C2071 C2070 1.363 . S
C2071 C2077 1.363 . S
C2072 C2073 1.363 . S
C2072 C2077 1.379 . S
C2072 N2079 1.356 . S
C2073 C2072 1.363 . S
C2073 C2076 1.363 . S
N2074 C2076 1.356 . S
N2074 H2086 0.984 . S
N2074 H2087 0.985 . S
N2075 C2077 1.356 . S
N2075 H2080 0.984 . S
N2075 H2081 0.985 . S
C2076 C2070 1.379 . S
C2076 C2073 1.363 . S
C2076 N2074 1.356 . S
C2077 C2071 1.363 . S
C2077 C2072 1.379 . S
C2077 N2075 1.356 . S
N2078 C2070 1.356 . S
N2078 H2084 0.984 . S
N2078 H2085 0.984 . S
N2079 C2072 1.356 . S
N2079 H2082 0.984 . S
N2079 H2083 0.985 . S
H2080 N2075 0.984 . S
H2081 N2075 0.985 . S
H2082 N2079 0.984 . S
H2083 N2079 0.985 . S
H2084 N2078 0.984 . S
H2085 N2078 0.984 . S
H2086 N2074 0.984 . S
H2087 N2074 0.985 . S
C2088 C2089 1.363 . S
C2088 C2094 1.379 . S
C2088 N2096 1.356 . S
C2089 C2088 1.363 . S
C2089 C2095 1.363 . S
C2090 C2091 1.363 . S
C2090 C2095 1.379 . S
C2090 N2097 1.356 . S
C2091 C2090 1.363 . S
C2091 C2094 1.363 . S
N2092 C2094 1.356 . S
N2092 H2104 0.984 . S
N2092 H2105 0.985 . S
N2093 C2095 1.356 . S
N2093 H2098 0.984 . S
N2093 H2099 0.985 . S
C2094 C2088 1.379 . S
C2094 C2091 1.363 . S
C2094 N2092 1.356 . S
C2095 C2089 1.363 . S
C2095 C2090 1.379 . S
C2095 N2093 1.356 . S
N2096 C2088 1.356 . S
N2096 H2102 0.984 . S
N2096 H2103 0.984 . S
N2097 C2090 1.356 . S
N2097 H2100 0.984 . S
N2097 H2101 0.985 . S
H2098 N2093 0.984 . S
H2099 N2093 0.985 . S
H2100 N2097 0.984 . S
H2101 N2097 0.985 . S
H2102 N2096 0.984 . S
H2103 N2096 0.984 . S
H2104 N2092 0.984 . S
H2105 N2092 0.985 . S
C2106 C2107 1.363 . S
C2106 C2112 1.379 . S
C2106 N2114 1.356 . S
C2107 C2106 1.363 . S
C2107 C2113 1.363 . S
C2108 C2109 1.363 . S
C2108 C2113 1.379 . S
C2108 N2115 1.356 . S
C2109 C2108 1.363 . S
C2109 C2112 1.363 . S
N2110 C2112 1.356 . S
N2110 H2122 0.984 . S
N2110 H2123 0.985 . S
N2111 C2113 1.356 . S
N2111 H2116 0.984 . S
N2111 H2117 0.985 . S
C2112 C2106 1.379 . S
C2112 C2109 1.363 . S
C2112 N2110 1.356 . S
C2113 C2107 1.363 . S
C2113 C2108 1.379 . S
C2113 N2111 1.356 . S
N2114 C2106 1.356 . S
N2114 H2120 0.984 . S
N2114 H2121 0.984 . S
N2115 C2108 1.356 . S
N2115 H2118 0.984 . S
N2115 H2119 0.985 . S
H2116 N2111 0.984 . S
H2117 N2111 0.985 . S
H2118 N2115 0.984 . S
H2119 N2115 0.985 . S
H2120 N2114 0.984 . S
H2121 N2114 0.984 . S
H2122 N2110 0.984 . S
H2123 N2110 0.985 . S
C2124 C2125 1.363 . S
C2124 C2130 1.379 . S
C2124 N2132 1.356 . S
C2125 C2124 1.363 . S
C2125 C2131 1.363 . S
C2126 C2127 1.363 . S
C2126 C2131 1.379 . S
C2126 N2133 1.356 . S
C2127 C2126 1.363 . S
C2127 C2130 1.363 . S
N2128 C2130 1.356 . S
N2128 H2140 0.984 . S
N2128 H2141 0.985 . S
N2129 C2131 1.356 . S
N2129 H2134 0.984 . S
N2129 H2135 0.985 . S
C2130 C2124 1.379 . S
C2130 C2127 1.363 . S
C2130 N2128 1.356 . S
C2131 C2125 1.363 . S
C2131 C2126 1.379 . S
C2131 N2129 1.356 . S
N2132 C2124 1.356 . S
N2132 H2138 0.984 . S
N2132 H2139 0.984 . S
N2133 C2126 1.356 . S
N2133 H2136 0.984 . S
N2133 H2137 0.985 . S
H2134 N2129 0.984 . S
H2135 N2129 0.985 . S
H2136 N2133 0.984 . S
H2137 N2133 0.985 . S
H2138 N2132 0.984 . S
H2139 N2132 0.984 . S
H2140 N2128 0.984 . S
H2141 N2128 0.985 . S
C2142 C2143 1.363 . S
C2142 C2148 1.379 . S
C2142 N2150 1.356 . S
C2143 C2142 1.363 . S
C2143 C2149 1.363 . S
C2144 C2145 1.363 . S
C2144 C2149 1.379 . S
C2144 N2151 1.356 . S
C2145 C2144 1.363 . S
C2145 C2148 1.363 . S
N2146 C2148 1.356 . S
N2146 H2158 0.984 . S
N2146 H2159 0.985 . S
N2147 C2149 1.356 . S
N2147 H2152 0.984 . S
N2147 H2153 0.985 . S
C2148 C2142 1.379 . S
C2148 C2145 1.363 . S
C2148 N2146 1.356 . S
C2149 C2143 1.363 . S
C2149 C2144 1.379 . S
C2149 N2147 1.356 . S
N2150 C2142 1.356 . S
N2150 H2156 0.984 . S
N2150 H2157 0.984 . S
N2151 C2144 1.356 . S
N2151 H2154 0.984 . S
N2151 H2155 0.985 . S
H2152 N2147 0.984 . S
H2153 N2147 0.985 . S
H2154 N2151 0.984 . S
H2155 N2151 0.985 . S
H2156 N2150 0.984 . S
H2157 N2150 0.984 . S
H2158 N2146 0.984 . S
H2159 N2146 0.985 . S
C2160 C2161 1.363 . S
C2160 C2166 1.379 . S
C2160 N2168 1.356 . S
C2161 C2160 1.363 . S
C2161 C2167 1.363 . S
C2162 C2163 1.363 . S
C2162 C2167 1.379 . S
C2162 N2169 1.356 . S
C2163 C2162 1.363 . S
C2163 C2166 1.363 . S
N2164 C2166 1.356 . S
N2164 H2176 0.984 . S
N2164 H2177 0.985 . S
N2165 C2167 1.356 . S
N2165 H2170 0.984 . S
N2165 H2171 0.985 . S
C2166 C2160 1.379 . S
C2166 C2163 1.363 . S
C2166 N2164 1.356 . S
C2167 C2161 1.363 . S
C2167 C2162 1.379 . S
C2167 N2165 1.356 . S
N2168 C2160 1.356 . S
N2168 H2174 0.984 . S
N2168 H2175 0.984 . S
N2169 C2162 1.356 . S
N2169 H2172 0.984 . S
N2169 H2173 0.985 . S
H2170 N2165 0.984 . S
H2171 N2165 0.985 . S
H2172 N2169 0.984 . S
H2173 N2169 0.985 . S
H2174 N2168 0.984 . S
H2175 N2168 0.984 . S
H2176 N2164 0.984 . S
H2177 N2164 0.985 . S
C2178 C2179 1.363 . S
C2178 C2184 1.379 . S
C2178 N2186 1.356 . S
C2179 C2178 1.363 . S
C2179 C2185 1.363 . S
C2180 C2181 1.363 . S
C2180 C2185 1.379 . S
C2180 N2187 1.356 . S
C2181 C2180 1.363 . S
C2181 C2184 1.363 . S
N2182 C2184 1.356 . S
N2182 H2194 0.984 . S
N2182 H2195 0.985 . S
N2183 C2185 1.356 . S
N2183 H2188 0.984 . S
N2183 H2189 0.985 . S
C2184 C2178 1.379 . S
C2184 C2181 1.363 . S
C2184 N2182 1.356 . S
C2185 C2179 1.363 . S
C2185 C2180 1.379 . S
C2185 N2183 1.356 . S
N2186 C2178 1.356 . S
N2186 H2192 0.984 . S
N2186 H2193 0.984 . S
N2187 C2180 1.356 . S
N2187 H2190 0.984 . S
N2187 H2191 0.985 . S
H2188 N2183 0.984 . S
H2189 N2183 0.985 . S
H2190 N2187 0.984 . S
H2191 N2187 0.985 . S
H2192 N2186 0.984 . S
H2193 N2186 0.984 . S
H2194 N2182 0.984 . S
H2195 N2182 0.985 . S
C2196 C2197 1.363 . S
C2196 C2202 1.379 . S
C2196 N2204 1.356 . S
C2197 C2196 1.363 . S
C2197 C2203 1.363 . S
C2198 C2199 1.363 . S
C2198 C2203 1.379 . S
C2198 N2205 1.356 . S
C2199 C2198 1.363 . S
C2199 C2202 1.363 . S
N2200 C2202 1.356 . S
N2200 H2212 0.984 . S
N2200 H2213 0.985 . S
N2201 C2203 1.356 . S
N2201 H2206 0.984 . S
N2201 H2207 0.985 . S
C2202 C2196 1.379 . S
C2202 C2199 1.363 . S
C2202 N2200 1.356 . S
C2203 C2197 1.363 . S
C2203 C2198 1.379 . S
C2203 N2201 1.356 . S
N2204 C2196 1.356 . S
N2204 H2210 0.984 . S
N2204 H2211 0.984 . S
N2205 C2198 1.356 . S
N2205 H2208 0.984 . S
N2205 H2209 0.985 . S
H2206 N2201 0.984 . S
H2207 N2201 0.985 . S
H2208 N2205 0.984 . S
H2209 N2205 0.985 . S
H2210 N2204 0.984 . S
H2211 N2204 0.984 . S
H2212 N2200 0.984 . S
H2213 N2200 0.985 . S
C2214 C2215 1.363 . S
C2214 C2220 1.379 . S
C2214 N2222 1.356 . S
C2215 C2214 1.363 . S
C2215 C2221 1.363 . S
C2216 C2217 1.363 . S
C2216 C2221 1.379 . S
C2216 N2223 1.356 . S
C2217 C2216 1.363 . S
C2217 C2220 1.363 . S
N2218 C2220 1.356 . S
N2218 H2230 0.984 . S
N2218 H2231 0.985 . S
N2219 C2221 1.356 . S
N2219 H2224 0.984 . S
N2219 H2225 0.985 . S
C2220 C2214 1.379 . S
C2220 C2217 1.363 . S
C2220 N2218 1.356 . S
C2221 C2215 1.363 . S
C2221 C2216 1.379 . S
C2221 N2219 1.356 . S
N2222 C2214 1.356 . S
N2222 H2228 0.984 . S
N2222 H2229 0.984 . S
N2223 C2216 1.356 . S
N2223 H2226 0.984 . S
N2223 H2227 0.985 . S
H2224 N2219 0.984 . S
H2225 N2219 0.985 . S
H2226 N2223 0.984 . S
H2227 N2223 0.985 . S
H2228 N2222 0.984 . S
H2229 N2222 0.984 . S
H2230 N2218 0.984 . S
H2231 N2218 0.985 . S
C2232 C2233 1.363 . S
C2232 C2238 1.379 . S
C2232 N2240 1.356 . S
C2233 C2232 1.363 . S
C2233 C2239 1.363 . S
C2234 C2235 1.363 . S
C2234 C2239 1.379 . S
C2234 N2241 1.356 . S
C2235 C2234 1.363 . S
C2235 C2238 1.363 . S
N2236 C2238 1.356 . S
N2236 H2248 0.984 . S
N2236 H2249 0.985 . S
N2237 C2239 1.356 . S
N2237 H2242 0.984 . S
N2237 H2243 0.985 . S
C2238 C2232 1.379 . S
C2238 C2235 1.363 . S
C2238 N2236 1.356 . S
C2239 C2233 1.363 . S
C2239 C2234 1.379 . S
C2239 N2237 1.356 . S
N2240 C2232 1.356 . S
N2240 H2246 0.984 . S
N2240 H2247 0.984 . S
N2241 C2234 1.356 . S
N2241 H2244 0.984 . S
N2241 H2245 0.985 . S
H2242 N2237 0.984 . S
H2243 N2237 0.985 . S
H2244 N2241 0.984 . S
H2245 N2241 0.985 . S
H2246 N2240 0.984 . S
H2247 N2240 0.984 . S
H2248 N2236 0.984 . S
H2249 N2236 0.985 . S
C2250 C2251 1.363 . S
C2250 C2256 1.379 . S
C2250 N2258 1.356 . S
C2251 C2250 1.363 . S
C2251 C2257 1.363 . S
C2252 C2253 1.363 . S
C2252 C2257 1.379 . S
C2252 N2259 1.356 . S
C2253 C2252 1.363 . S
C2253 C2256 1.363 . S
N2254 C2256 1.356 . S
N2254 H2266 0.984 . S
N2254 H2267 0.985 . S
N2255 C2257 1.356 . S
N2255 H2260 0.984 . S
N2255 H2261 0.985 . S
C2256 C2250 1.379 . S
C2256 C2253 1.363 . S
C2256 N2254 1.356 . S
C2257 C2251 1.363 . S
C2257 C2252 1.379 . S
C2257 N2255 1.356 . S
N2258 C2250 1.356 . S
N2258 H2264 0.984 . S
N2258 H2265 0.984 . S
N2259 C2252 1.356 . S
N2259 H2262 0.984 . S
N2259 H2263 0.985 . S
H2260 N2255 0.984 . S
H2261 N2255 0.985 . S
H2262 N2259 0.984 . S
H2263 N2259 0.985 . S
H2264 N2258 0.984 . S
H2265 N2258 0.984 . S
H2266 N2254 0.984 . S
H2267 N2254 0.985 . S
C2268 C2269 1.363 . S
C2268 C2274 1.379 . S
C2268 N2276 1.356 . S
C2269 C2268 1.363 . S
C2269 C2275 1.363 . S
C2270 C2271 1.363 . S
C2270 C2275 1.379 . S
C2270 N2277 1.356 . S
C2271 C2270 1.363 . S
C2271 C2274 1.363 . S
N2272 C2274 1.356 . S
N2272 H2284 0.984 . S
N2272 H2285 0.985 . S
N2273 C2275 1.356 . S
N2273 H2278 0.984 . S
N2273 H2279 0.985 . S
C2274 C2268 1.379 . S
C2274 C2271 1.363 . S
C2274 N2272 1.356 . S
C2275 C2269 1.363 . S
C2275 C2270 1.379 . S
C2275 N2273 1.356 . S
N2276 C2268 1.356 . S
N2276 H2282 0.984 . S
N2276 H2283 0.984 . S
N2277 C2270 1.356 . S
N2277 H2280 0.984 . S
N2277 H2281 0.985 . S
H2278 N2273 0.984 . S
H2279 N2273 0.985 . S
H2280 N2277 0.984 . S
H2281 N2277 0.985 . S
H2282 N2276 0.984 . S
H2283 N2276 0.984 . S
H2284 N2272 0.984 . S
H2285 N2272 0.985 . S
C2286 C2287 1.363 . S
C2286 C2292 1.379 . S
C2286 N2294 1.356 . S
C2287 C2286 1.363 . S
C2287 C2293 1.363 . S
C2288 C2289 1.363 . S
C2288 C2293 1.379 . S
C2288 N2295 1.356 . S
C2289 C2288 1.363 . S
C2289 C2292 1.363 . S
N2290 C2292 1.356 . S
N2290 H2302 0.984 . S
N2290 H2303 0.985 . S
N2291 C2293 1.356 . S
N2291 H2296 0.984 . S
N2291 H2297 0.985 . S
C2292 C2286 1.379 . S
C2292 C2289 1.363 . S
C2292 N2290 1.356 . S
C2293 C2287 1.363 . S
C2293 C2288 1.379 . S
C2293 N2291 1.356 . S
N2294 C2286 1.356 . S
N2294 H2300 0.984 . S
N2294 H2301 0.984 . S
N2295 C2288 1.356 . S
N2295 H2298 0.984 . S
N2295 H2299 0.985 . S
H2296 N2291 0.984 . S
H2297 N2291 0.985 . S
H2298 N2295 0.984 . S
H2299 N2295 0.985 . S
H2300 N2294 0.984 . S
H2301 N2294 0.984 . S
H2302 N2290 0.984 . S
H2303 N2290 0.985 . S
C1153 C544 1.369 . S
C1155 C4 1.378 . S
C1171 C38 1.518 . S
C1173 C436 1.522 . S
C1189 C76 1.378 . S
C1191 C472 1.369 . S
C1207 C508 1.522 . S
C1209 C110 1.518 . S
C1225 C148 1.378 . S
C1227 C328 1.369 . S
C1243 C182 1.518 . S
C1245 C364 1.522 . S
C1261 C400 1.369 . S
C1263 C220 1.378 . S
C1279 C292 1.522 . S
C1281 C254 1.518 . S
C1297 C580 1.378 . S
C1299 C1120 1.369 . S
C1315 C614 1.518 . S
C1317 C1012 1.522 . S
C1333 C652 1.378 . S
C1335 C1048 1.369 . S
C1351 C1084 1.522 . S
C1353 C686 1.518 . S
C1369 C724 1.378 . S
C1371 C904 1.369 . S
C1387 C758 1.518 . S
C1389 C940 1.522 . S
C1405 C976 1.369 . S
C1407 C796 1.378 . S
C1423 C830 1.518 . S
C1425 C868 1.522 . S
C1441 C435 1.393 . S
C1443 C3 1.394 . S
C1459 C50 1.314 . S
C1461 C471 1.366 . S
C1477 C507 1.393 . S
C1479 C75 1.394 . S
C1495 C122 1.314 . S
C1497 C543 1.366 . S
C1513 C147 1.394 . S
C1515 C291 1.393 . S
C1531 C327 1.366 . S
C1533 C194 1.314 . S
C1549 C363 1.393 . S
C1551 C219 1.394 . S
C1567 C399 1.366 . S
C1569 C266 1.314 . S
C1585 C579 1.394 . S
C1587 C1011 1.393 . S
C1603 C1047 1.366 . S
C1605 C626 1.314 . S
C1621 C651 1.394 . S
C1623 C1083 1.393 . S
C1639 C698 1.314 . S
C1641 C1119 1.366 . S
C1657 C867 1.393 . S
C1659 C723 1.394 . S
C1675 C770 1.314 . S
C1677 C903 1.366 . S
C1693 C795 1.394 . S
C1695 C939 1.393 . S
C1711 C842 1.314 . S
C1713 C975 1.366 . S
C1729 C2 1.382 . S
C1731 C362 1.376 . S
C1747 C398 1.357 . S
C1749 C40 1.349 . S
C1765 C74 1.382 . S
C1767 C290 1.376 . S
C1783 C326 1.357 . S
C1785 C112 1.349 . S
C1801 C506 1.376 . S
C1803 C146 1.382 . S
C1819 C542 1.357 . S
C1821 C184 1.350 . S
C1837 C434 1.376 . S
C1839 C218 1.382 . S
C1855 C256 1.350 . S
C1857 C470 1.357 . S
C1873 C938 1.376 . S
C1875 C578 1.382 . S
C1891 C616 1.349 . S
C1893 C974 1.357 . S
C1909 C866 1.376 . S
C1911 C650 1.382 . S
C1927 C902 1.357 . S
C1929 C688 1.349 . S
C1945 C722 1.382 . S
C1947 C1082 1.376 . S
C1963 C760 1.350 . S
C1965 C1118 1.357 . S
C1981 C1010 1.376 . S
C1983 C794 1.382 . S
C1999 C1046 1.357 . S
C2001 C832 1.350 . S
C2017 C831 1.283 . S
C2019 C14 1.245 . S
C2035 C734 1.245 . S
C2037 C39 1.282 . S
C2053 C759 1.283 . S
C2055 C86 1.245 . S
C2071 C806 1.245 . S
C2073 C111 1.282 . S
C2089 C615 1.282 . S
C2091 C158 1.245 . S
C2107 C183 1.283 . S
C2109 C662 1.245 . S
C2125 C230 1.245 . S
C2127 C687 1.282 . S
C2143 C255 1.283 . S
C2145 C590 1.245 . S
C2161 C302 1.295 . S
C2163 C1130 1.277 . S
C2179 C1022 1.294 . S
C2181 C338 1.277 . S
C2197 C374 1.295 . S
C2199 C1058 1.277 . S
C2215 C410 1.277 . S
C2217 C1094 1.294 . S
C2233 C914 1.277 . S
C2235 C446 1.294 . S
C2251 C950 1.295 . S
C2253 C482 1.277 . S
C2269 C518 1.294 . S
C2271 C986 1.277 . S
C2287 C554 1.277 . S
C2289 C878 1.295 . S
