# Generated by pormake.
# Topology nfa, (4)-cn, num edge types: 1
# Building blocks:
#     Node 0, Type 0, BuildingBlock: NAWXER_clean_sbu_0, # of connection points: 4
#     Node 1, Type 0, BuildingBlock: NAWXER_clean_sbu_0, # of connection points: 4
#     Node 2, Type 0, BuildingBlock: NAWXER_clean_sbu_0, # of connection points: 4
#     Node 3, Type 0, BuildingBlock: NAWXER_clean_sbu_0, # of connection points: 4
#     Node 4, Type 0, BuildingBlock: NAWXER_clean_sbu_0, # of connection points: 4
#     Node 5, Type 0, BuildingBlock: NAWXER_clean_sbu_0, # of connection points: 4
#     Node 6, Type 0, BuildingBlock: NAWXER_clean_sbu_0, # of connection points: 4
#     Node 7, Type 0, BuildingBlock: NAWXER_clean_sbu_0, # of connection points: 4
#     Node 8, Type 0, BuildingBlock: NAWXER_clean_sbu_0, # of connection points: 4
#     Node 9, Type 0, BuildingBlock: NAWXER_clean_sbu_0, # of connection points: 4
#     Node 10, Type 0, BuildingBlock: NAWXER_clean_sbu_0, # of connection points: 4
#     Node 11, Type 0, BuildingBlock: NAWXER_clean_sbu_0, # of connection points: 4
#     Node 12, Type 0, BuildingBlock: NAWXER_clean_sbu_0, # of connection points: 4
#     Node 13, Type 0, BuildingBlock: NAWXER_clean_sbu_0, # of connection points: 4
#     Node 14, Type 0, BuildingBlock: NAWXER_clean_sbu_0, # of connection points: 4
#     Node 15, Type 0, BuildingBlock: NAWXER_clean_sbu_0, # of connection points: 4
#     Node 16, Type 0, BuildingBlock: NAWXER_clean_sbu_0, # of connection points: 4
#     Node 17, Type 0, BuildingBlock: NAWXER_clean_sbu_0, # of connection points: 4
#     Node 18, Type 0, BuildingBlock: NAWXER_clean_sbu_0, # of connection points: 4
#     Node 19, Type 0, BuildingBlock: NAWXER_clean_sbu_0, # of connection points: 4
#     Node 20, Type 0, BuildingBlock: NAWXER_clean_sbu_0, # of connection points: 4
#     Node 21, Type 0, BuildingBlock: NAWXER_clean_sbu_0, # of connection points: 4
#     Node 22, Type 0, BuildingBlock: NAWXER_clean_sbu_0, # of connection points: 4
#     Node 23, Type 0, BuildingBlock: NAWXER_clean_sbu_0, # of connection points: 4
#     Edge 24, Type (0, 0), BuildingBlock: ZUJKAS_clean_linker_0, # of connection points: 2
#     Edge 25, Type (0, 0), BuildingBlock: ZUJKAS_clean_linker_0, # of connection points: 2
#     Edge 26, Type (0, 0), BuildingBlock: ZUJKAS_clean_linker_0, # of connection points: 2
#     Edge 27, Type (0, 0), BuildingBlock: ZUJKAS_clean_linker_0, # of connection points: 2
#     Edge 28, Type (0, 0), BuildingBlock: ZUJKAS_clean_linker_0, # of connection points: 2
#     Edge 29, Type (0, 0), BuildingBlock: ZUJKAS_clean_linker_0, # of connection points: 2
#     Edge 30, Type (0, 0), BuildingBlock: ZUJKAS_clean_linker_0, # of connection points: 2
#     Edge 31, Type (0, 0), BuildingBlock: ZUJKAS_clean_linker_0, # of connection points: 2
#     Edge 32, Type (0, 0), BuildingBlock: ZUJKAS_clean_linker_0, # of connection points: 2
#     Edge 33, Type (0, 0), BuildingBlock: ZUJKAS_clean_linker_0, # of connection points: 2
#     Edge 34, Type (0, 0), BuildingBlock: ZUJKAS_clean_linker_0, # of connection points: 2
#     Edge 35, Type (0, 0), BuildingBlock: ZUJKAS_clean_linker_0, # of connection points: 2
#     Edge 36, Type (0, 0), BuildingBlock: ZUJKAS_clean_linker_0, # of connection points: 2
#     Edge 37, Type (0, 0), BuildingBlock: ZUJKAS_clean_linker_0, # of connection points: 2
#     Edge 38, Type (0, 0), BuildingBlock: ZUJKAS_clean_linker_0, # of connection points: 2
#     Edge 39, Type (0, 0), BuildingBlock: ZUJKAS_clean_linker_0, # of connection points: 2
#     Edge 40, Type (0, 0), BuildingBlock: ZUJKAS_clean_linker_0, # of connection points: 2
#     Edge 41, Type (0, 0), BuildingBlock: ZUJKAS_clean_linker_0, # of connection points: 2
#     Edge 42, Type (0, 0), BuildingBlock: ZUJKAS_clean_linker_0, # of connection points: 2
#     Edge 43, Type (0, 0), BuildingBlock: ZUJKAS_clean_linker_0, # of connection points: 2
#     Edge 44, Type (0, 0), BuildingBlock: ZUJKAS_clean_linker_0, # of connection points: 2
#     Edge 45, Type (0, 0), BuildingBlock: ZUJKAS_clean_linker_0, # of connection points: 2
#     Edge 46, Type (0, 0), BuildingBlock: ZUJKAS_clean_linker_0, # of connection points: 2
#     Edge 47, Type (0, 0), BuildingBlock: ZUJKAS_clean_linker_0, # of connection points: 2
#     Edge 48, Type (0, 0), BuildingBlock: ZUJKAS_clean_linker_0, # of connection points: 2
#     Edge 49, Type (0, 0), BuildingBlock: ZUJKAS_clean_linker_0, # of connection points: 2
#     Edge 50, Type (0, 0), BuildingBlock: ZUJKAS_clean_linker_0, # of connection points: 2
#     Edge 51, Type (0, 0), BuildingBlock: ZUJKAS_clean_linker_0, # of connection points: 2
#     Edge 52, Type (0, 0), BuildingBlock: ZUJKAS_clean_linker_0, # of connection points: 2
#     Edge 53, Type (0, 0), BuildingBlock: ZUJKAS_clean_linker_0, # of connection points: 2
#     Edge 54, Type (0, 0), BuildingBlock: ZUJKAS_clean_linker_0, # of connection points: 2
#     Edge 55, Type (0, 0), BuildingBlock: ZUJKAS_clean_linker_0, # of connection points: 2
#     Edge 56, Type (0, 0), BuildingBlock: ZUJKAS_clean_linker_0, # of connection points: 2
#     Edge 57, Type (0, 0), BuildingBlock: ZUJKAS_clean_linker_0, # of connection points: 2
#     Edge 58, Type (0, 0), BuildingBlock: ZUJKAS_clean_linker_0, # of connection points: 2
#     Edge 59, Type (0, 0), BuildingBlock: ZUJKAS_clean_linker_0, # of connection points: 2
#     Edge 60, Type (0, 0), BuildingBlock: ZUJKAS_clean_linker_0, # of connection points: 2
#     Edge 61, Type (0, 0), BuildingBlock: ZUJKAS_clean_linker_0, # of connection points: 2
#     Edge 62, Type (0, 0), BuildingBlock: ZUJKAS_clean_linker_0, # of connection points: 2
#     Edge 63, Type (0, 0), BuildingBlock: ZUJKAS_clean_linker_0, # of connection points: 2
#     Edge 64, Type (0, 0), BuildingBlock: ZUJKAS_clean_linker_0, # of connection points: 2
#     Edge 65, Type (0, 0), BuildingBlock: ZUJKAS_clean_linker_0, # of connection points: 2
#     Edge 66, Type (0, 0), BuildingBlock: ZUJKAS_clean_linker_0, # of connection points: 2
#     Edge 67, Type (0, 0), BuildingBlock: ZUJKAS_clean_linker_0, # of connection points: 2
#     Edge 68, Type (0, 0), BuildingBlock: ZUJKAS_clean_linker_0, # of connection points: 2
#     Edge 69, Type (0, 0), BuildingBlock: ZUJKAS_clean_linker_0, # of connection points: 2
#     Edge 70, Type (0, 0), BuildingBlock: ZUJKAS_clean_linker_0, # of connection points: 2
#     Edge 71, Type (0, 0), BuildingBlock: ZUJKAS_clean_linker_0, # of connection points: 2
# Relax obj value: 0.171
# Max RMSD: 0.184
# Mean RMSD: 0.184
data_MOF--net-nfa--node1-NAWXER_clean_sbu_0--edge1-ZUJKAS_clean_linker_0
_symmetry_space_group_name_H-M    P1
_symmetry_Int_Tables_number       1
_symmetry_cell_setting            triclinic
loop_
_symmetry_equiv_pos_as_xyz
'x, y, z'
_cell_length_a     52.357452
_cell_length_b     52.301376
_cell_length_c     52.311345
_cell_angle_alpha  90.005636
_cell_angle_beta   89.936514
_cell_angle_gamma 89.954716
loop_
_atom_site_label
_atom_site_type_symbol
_atom_site_fract_x
_atom_site_fract_y
_atom_site_fract_z
_atom_type_partial_charge
C0 C 0.14675 0.31029 0.37586 0.0
C1 C 0.11653 0.38525 0.32895 0.0
O2 O 0.13774 0.32787 0.39037 0.0
Zn3 Zn 0.12063 0.36481 0.38684 0.0
O4 O 0.14812 0.31403 0.35188 0.0
Zn5 Zn 0.1325 0.34775 0.35166 0.0
O6 O 0.15999 0.37272 0.369 0.0
O7 O 0.14354 0.38751 0.40495 0.0
O8 O 0.12653 0.36514 0.31958 0.0
O9 O 0.11312 0.38692 0.35317 0.0
O10 O 0.08685 0.35754 0.40058 0.0
O11 O 0.09478 0.33822 0.36389 0.0
C12 C 0.16174 0.38705 0.38883 0.0
C13 C 0.0798 0.34257 0.38276 0.0
C14 C 0.88933 0.83241 0.64104 0.0
C15 C 0.84951 0.91649 0.64909 0.0
O16 O 0.89774 0.84868 0.62475 0.0
Zn17 Zn 0.89224 0.88808 0.61509 0.0
O18 O 0.87156 0.83882 0.65635 0.0
Zn19 Zn 0.86874 0.87411 0.64532 0.0
O20 O 0.85204 0.87223 0.60788 0.0
O21 O 0.88008 0.88725 0.58018 0.0
O22 O 0.84519 0.89674 0.66259 0.0
O23 O 0.86661 0.9156 0.63153 0.0
O24 O 0.92614 0.90128 0.62246 0.0
O25 O 0.90537 0.88799 0.6567 0.0
C26 C 0.85802 0.87822 0.58486 0.0
C27 C 0.92558 0.89722 0.64643 0.0
C28 C 0.36311 0.67133 0.88406 0.0
C29 C 0.39906 0.60692 0.8268 0.0
O30 O 0.37151 0.65156 0.89589 0.0
Zn31 Zn 0.38953 0.61565 0.88689 0.0
O32 O 0.36325 0.67162 0.85975 0.0
Zn33 Zn 0.37988 0.63882 0.85502 0.0
O34 O 0.35143 0.61138 0.86547 0.0
O35 O 0.36581 0.59003 0.89883 0.0
O36 O 0.38839 0.62791 0.82086 0.0
O37 O 0.40107 0.60053 0.85039 0.0
O38 O 0.42127 0.62028 0.90514 0.0
O39 O 0.4161 0.64676 0.87263 0.0
C40 C 0.34853 0.59371 0.8822 0.0
C41 C 0.42924 0.63898 0.8918 0.0
C42 C 0.62033 0.10966 0.17465 0.0
C43 C 0.65765 0.1078 0.08929 0.0
O44 O 0.63312 0.12994 0.16957 0.0
Zn45 Zn 0.65471 0.14509 0.13814 0.0
O46 O 0.61928 0.09179 0.15822 0.0
Zn47 Zn 0.63852 0.10855 0.13166 0.0
O48 O 0.67711 0.10844 0.1456 0.0
O49 O 0.68925 0.14852 0.15076 0.0
O50 O 0.64361 0.09084 0.09956 0.0
O51 O 0.66231 0.12863 0.10134 0.0
O52 O 0.63589 0.17562 0.13044 0.0
O53 O 0.61414 0.14046 0.12209 0.0
C54 C 0.69441 0.12478 0.15142 0.0
C55 C 0.61543 0.16496 0.12294 0.0
C56 C 0.15045 0.5919 0.10888 0.0
C57 C 0.0739 0.64465 0.11927 0.0
O58 O 0.15289 0.60975 0.1255 0.0
Zn59 Zn 0.13084 0.64015 0.14164 0.0
O60 O 0.12993 0.59034 0.09596 0.0
Zn61 Zn 0.11197 0.61852 0.11227 0.0
O62 O 0.13124 0.65184 0.0992 0.0
O63 O 0.14873 0.67142 0.13218 0.0
O64 O 0.07695 0.62684 0.10297 0.0
O65 O 0.09218 0.65066 0.13435 0.0
O66 O 0.12932 0.62892 0.177 0.0
O67 O 0.10828 0.60392 0.15028 0.0
C68 C 0.14399 0.67062 0.10835 0.0
C69 C 0.11582 0.60908 0.17301 0.0
C70 C 0.61591 0.8948 0.31983 0.0
C71 C 0.65338 0.88261 0.40445 0.0
O72 O 0.62835 0.87376 0.32187 0.0
Zn73 Zn 0.649 0.85318 0.35076 0.0
O74 O 0.61468 0.91001 0.33876 0.0
Zn75 Zn 0.63375 0.8892 0.36252 0.0
O76 O 0.67198 0.89016 0.34804 0.0
O77 O 0.68366 0.8509 0.3377 0.0
O78 O 0.63975 0.90138 0.39716 0.0
O79 O 0.65724 0.86382 0.38923 0.0
O80 O 0.62854 0.82253 0.35443 0.0
O81 O 0.60836 0.85743 0.36686 0.0
C82 C 0.68901 0.87451 0.33995 0.0
C83 C 0.6084 0.83325 0.36283 0.0
C84 C 0.3335 0.39357 0.61327 0.0
C85 C 0.41786 0.35616 0.60001 0.0
O86 O 0.33992 0.37816 0.63122 0.0
Zn87 Zn 0.37211 0.35498 0.64117 0.0
O88 O 0.34879 0.39737 0.59478 0.0
Zn89 Zn 0.37633 0.3758 0.60653 0.0
O90 O 0.36157 0.3378 0.60248 0.0
O91 O 0.35932 0.32015 0.64074 0.0
O92 O 0.40665 0.37219 0.58557 0.0
O93 O 0.40737 0.34924 0.62105 0.0
O94 O 0.38244 0.36988 0.67317 0.0
O95 O 0.3897 0.39531 0.64024 0.0
C96 C 0.35669 0.31841 0.61663 0.0
C97 C 0.39056 0.39102 0.66437 0.0
C98 C 0.85678 0.10277 0.90905 0.0
C99 C 0.89808 0.0995 0.82529 0.0
O100 O 0.84928 0.12025 0.89362 0.0
Zn101 Zn 0.85549 0.1322 0.85509 0.0
O102 O 0.87391 0.08698 0.90202 0.0
Zn103 Zn 0.87797 0.10038 0.86759 0.0
O104 O 0.89491 0.13726 0.87338 0.0
O105 O 0.86825 0.16661 0.85882 0.0
O106 O 0.90184 0.08457 0.8441 0.0
O107 O 0.88128 0.11725 0.82716 0.0
O108 O 0.82164 0.12651 0.84108 0.0
O109 O 0.84143 0.09096 0.85232 0.0
C110 C 0.88954 0.16079 0.86898 0.0
C111 C 0.82162 0.10232 0.84352 0.0
C112 C 0.41406 0.14017 0.34974 0.0
C113 C 0.32858 0.15369 0.38406 0.0
O114 O 0.40707 0.12214 0.36482 0.0
Zn115 Zn 0.37398 0.11232 0.38696 0.0
O116 O 0.39894 0.15868 0.34541 0.0
Zn117 Zn 0.37065 0.14679 0.36571 0.0
O118 O 0.38394 0.15103 0.40422 0.0
O119 O 0.38577 0.11291 0.42216 0.0
O120 O 0.3402 0.16781 0.36805 0.0
O121 O 0.3388 0.13271 0.39151 0.0
O122 O 0.36365 0.0803 0.37207 0.0
O123 O 0.35869 0.11283 0.34568 0.0
C124 C 0.38819 0.13705 0.42388 0.0
C125 C 0.35722 0.08875 0.35022 0.0
C126 C 0.11204 0.12456 0.55794 0.0
C127 C 0.14674 0.07848 0.63113 0.0
O128 O 0.11787 0.13932 0.57661 0.0
Zn129 Zn 0.13339 0.13619 0.61448 0.0
O130 O 0.11406 0.10048 0.56061 0.0
Zn131 Zn 0.12818 0.10105 0.59483 0.0
O132 O 0.09701 0.11198 0.61898 0.0
O133 O 0.1066 0.14913 0.63639 0.0
O134 O 0.13847 0.0693 0.61023 0.0
O135 O 0.14626 0.10273 0.63481 0.0
O136 O 0.16419 0.15622 0.61002 0.0
O137 O 0.16355 0.12048 0.58754 0.0
C138 C 0.09123 0.13049 0.63398 0.0
C139 C 0.17469 0.14138 0.59385 0.0
C140 C 0.15813 0.91436 0.84775 0.0
C141 C 0.12663 0.84995 0.90738 0.0
O142 O 0.1653 0.8917 0.84171 0.0
Zn143 Zn 0.15922 0.85337 0.85517 0.0
O144 O 0.14407 0.91777 0.86728 0.0
Zn145 Zn 0.14086 0.88236 0.877 0.0
O146 O 0.17842 0.87175 0.8894 0.0
O147 O 0.19312 0.84138 0.86396 0.0
O148 O 0.12185 0.8738 0.90761 0.0
O149 O 0.13922 0.84033 0.88865 0.0
O150 O 0.14148 0.83803 0.82655 0.0
O151 O 0.11857 0.8675 0.84619 0.0
C152 C 0.19587 0.85556 0.88353 0.0
C153 C 0.12108 0.85112 0.82813 0.0
C154 C 0.35684 0.91679 0.13933 0.0
C155 C 0.38782 0.86366 0.06884 0.0
O156 O 0.35757 0.89293 0.145 0.0
Zn157 Zn 0.3692 0.85775 0.12723 0.0
O158 O 0.3641 0.92405 0.1173 0.0
Zn159 Zn 0.3738 0.89091 0.10416 0.0
O160 O 0.33808 0.8713 0.10033 0.0
O161 O 0.33828 0.83747 0.12565 0.0
O162 O 0.38595 0.88792 0.06915 0.0
O163 O 0.38301 0.85094 0.08922 0.0
O164 O 0.39665 0.8466 0.14902 0.0
O165 O 0.40633 0.88141 0.12726 0.0
C166 C 0.3272 0.85107 0.10882 0.0
C167 C 0.41242 0.86428 0.14371 0.0
C168 C 0.39659 0.32645 0.11598 0.0
C169 C 0.34335 0.4005 0.13659 0.0
O170 O 0.4037 0.34699 0.10468 0.0
Zn171 Zn 0.39369 0.38661 0.10398 0.0
O172 O 0.3778 0.32699 0.13139 0.0
Zn173 Zn 0.37025 0.36316 0.12804 0.0
O174 O 0.35792 0.36699 0.08927 0.0
O175 O 0.3846 0.39239 0.06853 0.0
O176 O 0.34103 0.37799 0.14553 0.0
O177 O 0.36229 0.40577 0.12196 0.0
O178 O 0.42415 0.40226 0.11824 0.0
O179 O 0.40244 0.3797 0.14652 0.0
C180 C 0.3644 0.37885 0.06883 0.0
C181 C 0.4217 0.39368 0.14084 0.0
C182 C 0.85883 0.90346 0.15391 0.0
C183 C 0.85694 0.87313 0.06579 0.0
O184 O 0.87882 0.9096 0.14114 0.0
Zn185 Zn 0.89347 0.90545 0.10307 0.0
O186 O 0.84147 0.89013 0.14337 0.0
Zn187 Zn 0.85744 0.88807 0.11003 0.0
O188 O 0.89005 0.86377 0.11619 0.0
O189 O 0.92464 0.88643 0.10791 0.0
O190 O 0.83987 0.87048 0.08287 0.0
O191 O 0.8772 0.88592 0.0709 0.0
O192 O 0.89543 0.94105 0.09285 0.0
O193 O 0.856 0.92746 0.09894 0.0
C194 C 0.91444 0.86535 0.11441 0.0
C195 C 0.87158 0.94556 0.09352 0.0
C196 C 0.05886 0.59783 0.63004 0.0
C197 C 0.13899 0.62676 0.59157 0.0
O198 O 0.07604 0.60354 0.6465 0.0
Zn199 Zn 0.11431 0.61787 0.64728 0.0
O200 O 0.0641 0.59893 0.60631 0.0
Zn201 Zn 0.09874 0.61171 0.61016 0.0
O202 O 0.11992 0.58017 0.62562 0.0
O203 O 0.13325 0.59102 0.66412 0.0
O204 O 0.11865 0.61998 0.58018 0.0
O205 O 0.13947 0.62718 0.61609 0.0
O206 O 0.10819 0.65004 0.66495 0.0
O207 O 0.09045 0.64807 0.62675 0.0
C208 C 0.13236 0.57479 0.64604 0.0
C209 C 0.09432 0.66011 0.64771 0.0
C210 C 0.62204 0.84206 0.90342 0.0
C211 C 0.584 0.90099 0.84232 0.0
O212 O 0.61112 0.86119 0.91418 0.0
Zn213 Zn 0.59019 0.89466 0.90322 0.0
O214 O 0.62369 0.84121 0.87919 0.0
Zn215 Zn 0.60442 0.87202 0.87247 0.0
O216 O 0.62877 0.90281 0.88384 0.0
O217 O 0.61016 0.92303 0.91588 0.0
O218 O 0.59672 0.88081 0.83767 0.0
O219 O 0.58005 0.90776 0.86558 0.0
O220 O 0.55778 0.88642 0.91941 0.0
O221 O 0.56827 0.8607 0.88754 0.0
C222 C 0.62864 0.92106 0.90023 0.0
C223 C 0.55296 0.867 0.90558 0.0
C224 C 0.85968 0.08784 0.35015 0.0
C225 C 0.85262 0.12368 0.43587 0.0
O226 O 0.87836 0.0816 0.3647 0.0
Zn227 Zn 0.8903 0.08751 0.40345 0.0
O228 O 0.84246 0.10285 0.35846 0.0
Zn229 Zn 0.85592 0.10616 0.39276 0.0
O230 O 0.89003 0.12865 0.38823 0.0
O231 O 0.92269 0.1048 0.40013 0.0
O232 O 0.83722 0.1263 0.41729 0.0
O233 O 0.87243 0.10946 0.43324 0.0
O234 O 0.88981 0.05251 0.41552 0.0
O235 O 0.85161 0.0674 0.40567 0.0
C236 C 0.91409 0.12606 0.39209 0.0
C237 C 0.86593 0.04892 0.41305 0.0
C238 C 0.6532 0.10428 0.61912 0.0
C239 C 0.56971 0.14326 0.60499 0.0
O240 O 0.64675 0.11961 0.63716 0.0
Zn241 Zn 0.61498 0.14381 0.64653 0.0
O242 O 0.6384 0.10128 0.60012 0.0
Zn243 Zn 0.61102 0.12308 0.61169 0.0
O244 O 0.62613 0.16078 0.60798 0.0
O245 O 0.62835 0.17843 0.64623 0.0
O246 O 0.58078 0.12705 0.59061 0.0
O247 O 0.58018 0.15003 0.62605 0.0
O248 O 0.60335 0.12936 0.67825 0.0
O249 O 0.59737 0.1037 0.64528 0.0
C250 C 0.63108 0.18013 0.62213 0.0
C251 C 0.5957 0.10808 0.66936 0.0
C252 C 0.13576 0.38788 0.9233 0.0
C253 C 0.0656 0.40618 0.86477 0.0
O254 O 0.13885 0.3782 0.90101 0.0
Zn255 Zn 0.1197 0.37725 0.86501 0.0
O256 O 0.11554 0.40042 0.92835 0.0
Zn257 Zn 0.1004 0.39777 0.89467 0.0
O258 O 0.09059 0.35817 0.89143 0.0
O259 O 0.11274 0.34136 0.85963 0.0
O260 O 0.06749 0.41344 0.88789 0.0
O261 O 0.08384 0.39348 0.85446 0.0
O262 O 0.1444 0.39448 0.8436 0.0
O263 O 0.12721 0.41964 0.87283 0.0
C264 C 0.09609 0.33898 0.8772 0.0
C265 C 0.14308 0.4162 0.85447 0.0
C266 C 0.36165 0.62408 0.43429 0.0
C267 C 0.42233 0.60211 0.36596 0.0
O268 O 0.3552 0.63194 0.41202 0.0
Zn269 Zn 0.36824 0.63031 0.37349 0.0
O270 O 0.38225 0.61142 0.43704 0.0
Zn271 Zn 0.39249 0.6116 0.40109 0.0
O272 O 0.40055 0.65092 0.39427 0.0
O273 O 0.37404 0.66623 0.36526 0.0
O274 O 0.42461 0.59635 0.3895 0.0
O275 O 0.40228 0.61388 0.35831 0.0
O276 O 0.34092 0.61082 0.35753 0.0
O277 O 0.36366 0.58795 0.3847 0.0
C278 C 0.39286 0.6695 0.3803 0.0
C279 C 0.34507 0.5897 0.36889 0.0
C280 C 0.88032 0.67847 0.87771 0.0
C281 C 0.88737 0.59219 0.84322 0.0
O282 O 0.86124 0.6724 0.86362 0.0
Zn283 Zn 0.84852 0.63993 0.84227 0.0
O284 O 0.89832 0.66249 0.88093 0.0
Zn285 Zn 0.884 0.63478 0.86129 0.0
O286 O 0.88663 0.64757 0.8224 0.0
O287 O 0.8476 0.65127 0.80694 0.0
O288 O 0.90313 0.60323 0.85807 0.0
O289 O 0.86656 0.60351 0.83699 0.0
O290 O 0.81696 0.63175 0.85934 0.0
O291 O 0.85082 0.62412 0.88331 0.0
C292 C 0.87165 0.65236 0.80364 0.0
C293 C 0.82648 0.62427 0.88039 0.0
C294 C 0.59732 0.64068 0.08358 0.0
C295 C 0.60845 0.56417 0.13556 0.0
O296 O 0.61411 0.6435 0.10117 0.0
Zn297 Zn 0.63136 0.62101 0.13061 0.0
O298 O 0.58546 0.61958 0.08162 0.0
Zn299 Zn 0.60286 0.6018 0.10896 0.0
O300 O 0.58958 0.6199 0.14345 0.0
O301 O 0.62254 0.63827 0.16221 0.0
O302 O 0.59341 0.56687 0.11667 0.0
O303 O 0.62364 0.58238 0.14169 0.0
O304 O 0.66655 0.62049 0.11952 0.0
O305 O 0.64101 0.59878 0.09392 0.0
C306 C 0.59897 0.6324 0.16233 0.0
C307 C 0.66336 0.60713 0.09949 0.0
C308 C 0.58684 0.35837 0.42911 0.0
C309 C 0.6008 0.42536 0.36566 0.0
O310 O 0.60296 0.35198 0.41179 0.0
Zn311 Zn 0.6204 0.36851 0.37885 0.0
O312 O 0.5761 0.38014 0.42805 0.0
Zn313 Zn 0.59358 0.39261 0.39783 0.0
O314 O 0.57864 0.37058 0.36659 0.0
O315 O 0.60995 0.34725 0.35055 0.0
O316 O 0.58608 0.42661 0.385 0.0
O317 O 0.6146 0.40541 0.36215 0.0
O318 O 0.65584 0.36886 0.38853 0.0
O319 O 0.63229 0.39581 0.41097 0.0
C320 C 0.58689 0.35483 0.34968 0.0
C321 C 0.65401 0.38554 0.4061 0.0
C322 C 0.8761 0.35184 0.68776 0.0
C323 C 0.82565 0.37966 0.61475 0.0
O324 O 0.88985 0.35768 0.66832 0.0
Zn325 Zn 0.8845 0.37112 0.62993 0.0
O326 O 0.85189 0.35222 0.68596 0.0
Zn327 Zn 0.8504 0.36404 0.65097 0.0
O328 O 0.86353 0.33236 0.62869 0.0
O329 O 0.89851 0.34446 0.60852 0.0
O330 O 0.81755 0.37101 0.63596 0.0
O331 O 0.84974 0.38085 0.61048 0.0
O332 O 0.90201 0.40372 0.63227 0.0
O333 O 0.86672 0.40138 0.65537 0.0
C334 C 0.8818 0.32746 0.61311 0.0
C335 C 0.88634 0.41396 0.64782 0.0
H336 H 0.13973 0.26379 0.35295 0.0
H337 H 0.13433 0.22269 0.37505 0.0
H338 H 0.15595 0.25811 0.44621 0.0
H339 H 0.16111 0.2991 0.42442 0.0
H340 H 0.17494 0.20441 0.43634 0.0
H341 H 0.07004 0.2195 0.42501 0.0
H342 H 0.0904 0.22111 0.39728 0.0
H343 H 0.09244 0.24547 0.42128 0.0
C344 C 0.14424 0.26257 0.37311 0.0
C345 C 0.15076 0.28465 0.38701 0.0
C346 C 0.14092 0.23915 0.38573 0.0
C347 C 0.14442 0.23752 0.41229 0.0
C348 C 0.1531 0.25902 0.42571 0.0
H349 H 0.0969 0.17318 0.54753 0.0
H350 H 0.10192 0.19576 0.50703 0.0
C351 C 0.1561 0.2824 0.41323 0.0
C352 C 0.13633 0.21466 0.42691 0.0
H353 H 0.08327 0.18785 0.4539 0.0
C354 C 0.15494 0.20025 0.43971 0.0
C355 C 0.11016 0.20954 0.43135 0.0
C356 C 0.08946 0.22468 0.41817 0.0
C357 C 0.14805 0.18164 0.45781 0.0
C358 C 0.12189 0.17748 0.46324 0.0
C359 C 0.10327 0.191 0.44952 0.0
C360 C 0.1139 0.16235 0.4858 0.0
C361 C 0.16877 0.16781 0.47236 0.0
C362 C 0.11763 0.13579 0.48691 0.0
C363 C 0.1146 0.12273 0.5101 0.0
C364 C 0.10796 0.13615 0.53247 0.0
C365 C 0.10214 0.16233 0.53068 0.0
C366 C 0.10502 0.17528 0.50754 0.0
H367 H 0.18817 0.174 0.46654 0.0
H368 H 0.16648 0.17116 0.4932 0.0
H369 H 0.16723 0.14694 0.46894 0.0
H370 H 0.12423 0.12545 0.47021 0.0
H371 H 0.11932 0.10258 0.51089 0.0
H372 H 0.92823 0.90272 0.69791 0.0
H373 H 0.96514 0.89433 0.72506 0.0
H374 H 0.01241 0.88469 0.65818 0.0
H375 H 0.97544 0.8935 0.63075 0.0
H376 H 0.99017 0.84702 0.72261 0.0
H377 H 0.05769 0.92759 0.70625 0.0
H378 H 0.02418 0.92974 0.69835 0.0
H379 H 0.04549 0.9119 0.67821 0.0
C380 C 0.94664 0.89958 0.68896 0.0
C381 C 0.94894 0.89874 0.6622 0.0
C382 C 0.96768 0.89465 0.7045 0.0
C383 C 0.99148 0.88878 0.69365 0.0
C384 C 0.99428 0.88949 0.66695 0.0
H385 H 0.12685 0.83521 0.77854 0.0
H386 H 0.09622 0.84095 0.74343 0.0
C387 C 0.97317 0.89462 0.65131 0.0
C388 C 0.01235 0.87952 0.71041 0.0
H389 H 0.07127 0.89461 0.73391 0.0
C390 C 0.00797 0.85735 0.72495 0.0
C391 C 0.03566 0.89285 0.7132 0.0
C392 C 0.04112 0.91695 0.69835 0.0
C393 C 0.02592 0.84865 0.74282 0.0
C394 C 0.04875 0.86251 0.74631 0.0
C395 C 0.05369 0.88404 0.73107 0.0
C396 C 0.06643 0.85652 0.7675 0.0
C397 C 0.02022 0.82499 0.75829 0.0
C398 C 0.05954 0.86299 0.79257 0.0
C399 C 0.07694 0.85993 0.81253 0.0
C400 C 0.10151 0.85013 0.8078 0.0
C401 C 0.10797 0.84255 0.78281 0.0
C402 C 0.09061 0.84597 0.76273 0.0
H403 H 0.00436 0.81367 0.74988 0.0
H404 H 0.03745 0.81268 0.75969 0.0
H405 H 0.01467 0.83069 0.77796 0.0
H406 H 0.04098 0.87126 0.79655 0.0
H407 H 0.07142 0.86598 0.83156 0.0
H408 H 0.40191 0.81399 0.06301 0.0
H409 H 0.39565 0.78736 0.02521 0.0
H410 H 0.37221 0.85352 0.98211 0.0
H411 H 0.37847 0.88054 0.02002 0.0
H412 H 0.34052 0.7915 -0.00035 0.0
H413 H 0.42488 0.80594 0.93618 0.0
H414 H 0.42875 0.80647 0.97049 0.0
H415 H 0.41192 0.8319 0.95494 0.0
C416 C 0.39616 0.82307 0.04532 0.0
C417 C 0.39063 0.84939 0.04455 0.0
C418 C 0.39253 0.80779 0.02376 0.0
C419 C 0.38341 0.8185 0.00099 0.0
C420 C 0.37945 0.845 -0.00047 0.0
H421 H 0.35808 0.72064 0.86654 0.0
H422 H 0.35797 0.75973 0.89249 0.0
C423 C 0.38318 0.8604 0.02116 0.0
C424 C 0.37532 0.80132 0.98005 0.0
H425 H 0.39608 0.77313 0.92504 0.0
C426 C 0.35243 0.78775 0.98308 0.0
C427 C 0.39076 0.79677 0.95841 0.0
C428 C 0.41549 0.81098 0.95456 0.0
C429 C 0.34496 0.76902 0.96543 0.0
C430 C 0.36132 0.76305 0.94472 0.0
C431 C 0.38357 0.77763 0.94096 0.0
C432 C 0.35743 0.73987 0.92877 0.0
C433 C 0.31978 0.75558 0.96938 0.0
C434 C 0.35665 0.71576 0.9405 0.0
C435 C 0.35656 0.6935 0.92581 0.0
C436 C 0.35752 0.69479 0.89897 0.0
C437 C 0.35708 0.71896 0.88715 0.0
C438 C 0.3572 0.74132 0.90195 0.0
H439 H 0.30593 0.76811 0.97952 0.0
H440 H 0.31128 0.74951 0.95092 0.0
H441 H 0.32284 0.73838 0.98141 0.0
H442 H 0.35744 0.71406 0.96112 0.0
H443 H 0.35704 0.67525 0.93557 0.0
H444 H 0.44933 0.10179 0.35303 0.0
H445 H 0.48768 0.09607 0.32711 0.0
H446 H 0.4732 0.16797 0.28944 0.0
H447 H 0.43446 0.17371 0.31504 0.0
H448 H 0.48125 0.12829 0.25593 0.0
H449 H 0.55762 0.13024 0.32934 0.0
H450 H 0.53242 0.10798 0.33613 0.0
H451 H 0.52564 0.14168 0.3355 0.0
C452 C 0.45446 0.11662 0.33952 0.0
C453 C 0.43878 0.13821 0.33608 0.0
C454 C 0.47651 0.11336 0.32482 0.0
C455 C 0.48345 0.13172 0.30656 0.0
C456 C 0.46822 0.15362 0.30353 0.0
H457 H 0.61835 0.14481 0.21319 0.0
H458 H 0.58614 0.14805 0.2468 0.0
C459 C 0.44612 0.15689 0.3182 0.0
C460 C 0.50537 0.1271 0.28922 0.0
H461 H 0.56968 0.11611 0.28772 0.0
C462 C 0.5006 0.1257 0.26287 0.0
C463 C 0.53059 0.12384 0.29834 0.0
C464 C 0.53699 0.12623 0.32635 0.0
C465 C 0.52034 0.12098 0.24537 0.0
C466 C 0.54545 0.11706 0.25452 0.0
C467 C 0.55032 0.11871 0.28084 0.0
C468 C 0.56706 0.11282 0.23673 0.0
C469 C 0.51423 0.12082 0.21716 0.0
C470 C 0.56765 0.09132 0.22067 0.0
C471 C 0.58605 0.08938 0.20137 0.0
C472 C 0.60417 0.10892 0.19788 0.0
C473 C 0.60457 0.1295 0.21521 0.0
C474 C 0.58619 0.1314 0.23447 0.0
H475 H 0.49534 0.12962 0.2131 0.0
H476 H 0.52906 0.13127 0.20614 0.0
H477 H 0.51379 0.10078 0.21022 0.0
H478 H 0.55326 0.07655 0.22244 0.0
H479 H 0.58527 0.07322 0.18844 0.0
H480 H 0.11819 0.86599 0.95664 0.0
H481 H 0.12349 0.84021 0.99548 0.0
H482 H 0.13291 0.77255 0.94935 0.0
H483 H 0.12786 0.79803 0.91061 0.0
H484 H 0.09935 0.79536 0.01563 0.0
H485 H 0.20042 0.77851 0.99001 0.0
H486 H 0.18067 0.80133 0.97325 0.0
H487 H 0.17914 0.76791 0.96532 0.0
C488 C 0.12065 0.84551 0.9548 0.0
C489 C 0.12282 0.83409 0.93052 0.0
C490 C 0.1239 0.83086 0.977 0.0
C491 C 0.12934 0.80464 0.97521 0.0
C492 C 0.12938 0.79289 0.95111 0.0
H493 H 0.14949 0.66935 0.05681 0.0
H494 H 0.14946 0.70565 0.02754 0.0
C495 C 0.12625 0.80746 0.92899 0.0
C496 C 0.13612 0.78951 0.9982 0.0
H497 H 0.18255 0.75023 0.02192 0.0
C498 C 0.11768 0.78585 0.01732 0.0
C499 C 0.16021 0.7774 0.00047 0.0
C500 C 0.18133 0.7817 0.98129 0.0
C501 C 0.12205 0.76891 0.03773 0.0
C502 C 0.14559 0.75564 0.03914 0.0
C503 C 0.16453 0.76041 0.02078 0.0
C504 C 0.14948 0.73429 0.05736 0.0
C505 C 0.10094 0.76414 0.0568 0.0
C506 C 0.15065 0.73839 0.08388 0.0
C507 C 0.15091 0.71755 0.10076 0.0
C508 C 0.14979 0.69241 0.09128 0.0
C509 C 0.15025 0.68849 0.0647 0.0
C510 C 0.15022 0.70922 0.04793 0.0
H511 H 0.08282 0.77375 0.0513 0.0
H512 H 0.09731 0.74331 0.05871 0.0
H513 H 0.10682 0.77144 0.07582 0.0
H514 H 0.15039 0.75765 0.09149 0.0
H515 H 0.15041 0.72115 0.12115 0.0
H516 H 0.62438 0.87658 0.27183 0.0
H517 H 0.59396 0.87549 0.23645 0.0
H518 H 0.54015 0.91887 0.28156 0.0
H519 H 0.571 0.92103 0.31646 0.0
H520 H 0.55109 0.85156 0.23803 0.0
H521 H 0.52917 0.95204 0.2143 0.0
H522 H 0.55604 0.94333 0.23403 0.0
H523 H 0.52456 0.94623 0.24773 0.0
C524 C 0.60638 0.88662 0.27384 0.0
C525 C 0.60007 0.89896 0.29685 0.0
C526 C 0.58896 0.88589 0.25366 0.0
C527 C 0.56474 0.89719 0.25619 0.0
C528 C 0.55889 0.91057 0.27877 0.0
H529 H 0.42559 0.84124 0.1887 0.0
H530 H 0.46384 0.84881 0.21425 0.0
C531 C 0.57654 0.91174 0.2988 0.0
C532 C 0.54468 0.89228 0.23668 0.0
H533 H 0.49769 0.92083 0.20161 0.0
C534 C 0.5397 0.86679 0.22978 0.0
C535 C 0.52992 0.91207 0.22562 0.0
C536 C 0.5354 0.93994 0.23061 0.0
C537 C 0.51996 0.86049 0.21281 0.0
C538 C 0.50411 0.88013 0.20311 0.0
C539 C 0.5096 0.9057 0.2093 0.0
C540 C 0.48141 0.87459 0.18701 0.0
C541 C 0.51652 0.83283 0.20534 0.0
C542 C 0.4782 0.88694 0.1634 0.0
C543 C 0.4561 0.883 0.14897 0.0
C544 C 0.43681 0.86651 0.1578 0.0
C545 C 0.44026 0.85376 0.18119 0.0
C546 C 0.4622 0.858 0.19578 0.0
H547 H 0.53474 0.82204 0.20698 0.0
H548 H 0.50252 0.82377 0.21844 0.0
H549 H 0.50938 0.83098 0.18545 0.0
H550 H 0.4927 0.89988 0.15626 0.0
H551 H 0.45398 0.89315 0.13105 0.0
H552 H 0.33485 0.30942 0.57045 0.0
H553 H 0.33953 0.27083 0.5445 0.0
H554 H 0.37721 0.23293 0.60718 0.0
H555 H 0.37224 0.27149 0.63348 0.0
H556 H 0.40561 0.23787 0.55808 0.0
H557 H 0.30844 0.19697 0.54578 0.0
H558 H 0.31094 0.23111 0.54321 0.0
H559 H 0.31726 0.21587 0.57331 0.0
C560 C 0.34326 0.29255 0.57903 0.0
C561 C 0.35305 0.29341 0.60403 0.0
C562 C 0.34595 0.27052 0.56418 0.0
C563 C 0.35863 0.24903 0.57397 0.0
C564 C 0.36717 0.24928 0.59939 0.0
H565 H 0.38008 0.11712 0.47179 0.0
H566 H 0.37583 0.14144 0.51174 0.0
C567 C 0.36412 0.27123 0.61445 0.0
C568 C 0.36575 0.22792 0.55649 0.0
H569 H 0.34043 0.18331 0.51624 0.0
C570 C 0.39149 0.2255 0.54932 0.0
C571 C 0.34722 0.21206 0.54499 0.0
C572 C 0.31941 0.2139 0.55228 0.0
C573 C 0.39902 0.2084 0.53003 0.0
C574 C 0.38033 0.19323 0.5178 0.0
C575 C 0.35476 0.19479 0.52583 0.0
C576 C 0.3864 0.17769 0.49488 0.0
C577 C 0.42678 0.20715 0.52233 0.0
C578 C 0.39417 0.18993 0.47234 0.0
C579 C 0.39676 0.17615 0.44966 0.0
C580 C 0.39135 0.14983 0.44893 0.0
C581 C 0.38473 0.13729 0.47179 0.0
C582 C 0.38209 0.15118 0.49457 0.0
H583 H 0.43937 0.21668 0.53644 0.0
H584 H 0.43294 0.18697 0.51995 0.0
H585 H 0.42945 0.21705 0.50378 0.0
H586 H 0.397 0.21044 0.47195 0.0
H587 H 0.40172 0.18643 0.43238 0.0
H588 H 0.05767 0.09073 0.63665 0.0
H589 H 0.02258 0.08508 0.66671 0.0
H590 H 0.03695 0.15995 0.6981 0.0
H591 H 0.0727 0.16557 0.66838 0.0
H592 H 0.03319 0.12397 0.73492 0.0
H593 H 0.95144 0.11448 0.66855 0.0
H594 H 0.97677 0.09249 0.66143 0.0
H595 H 0.98218 0.12634 0.65841 0.0
C596 C 0.05317 0.10623 0.64963 0.0
C597 C 0.06802 0.12865 0.65008 0.0
C598 C 0.03296 0.10298 0.66675 0.0
C599 C 0.0269 0.12221 0.68443 0.0
C600 C 0.04125 0.1449 0.68452 0.0
H601 H 0.89516 0.12985 0.78306 0.0
H602 H 0.92622 0.13365 0.7486 0.0
C603 C 0.06161 0.14812 0.66748 0.0
C604 C 0.00682 0.11783 0.70397 0.0
H605 H 0.9441 0.10169 0.71177 0.0
C606 C 0.01367 0.11924 0.72987 0.0
C607 C 0.98132 0.11182 0.69734 0.0
C608 C 0.9724 0.11143 0.66992 0.0
C609 C 0.99581 0.11458 0.74933 0.0
C610 C 0.97054 0.10766 0.74269 0.0
C611 C 0.9636 0.10654 0.7168 0.0
C612 C 0.95063 0.10326 0.76239 0.0
C613 C 0.00403 0.11777 0.7768 0.0
C614 C 0.95353 0.08424 0.78113 0.0
C615 C 0.9358 0.08207 0.80108 0.0
C616 C 0.91477 0.09876 0.80242 0.0
C617 C 0.91119 0.11675 0.78273 0.0
C618 C 0.92894 0.11897 0.76296 0.0
H619 H 0.02185 0.12918 0.7784 0.0
H620 H 0.98889 0.12728 0.78825 0.0
H621 H 0.00773 0.09867 0.78525 0.0
H622 H 0.96983 0.07149 0.78069 0.0
H623 H 0.93904 0.06792 0.81584 0.0
H624 H 0.14738 0.54446 0.08629 0.0
H625 H 0.17743 0.50876 0.0916 0.0
H626 H 0.2277 0.55756 0.13486 0.0
H627 H 0.19799 0.59308 0.12981 0.0
H628 H 0.23008 0.50294 0.07949 0.0
H629 H 0.21322 0.49754 0.18392 0.0
H630 H 0.19236 0.51484 0.16257 0.0
H631 H 0.22171 0.52906 0.17333 0.0
C632 C 0.16504 0.54769 0.09654 0.0
C633 C 0.17016 0.57157 0.10781 0.0
C634 C 0.1821 0.52724 0.0997 0.0
C635 C 0.20442 0.53037 0.11424 0.0
C636 C 0.21024 0.55456 0.12417 0.0
H637 H 0.3452 0.45091 0.12389 0.0
H638 H 0.30936 0.48033 0.11951 0.0
C639 C 0.1933 0.57491 0.12106 0.0
C640 C 0.22172 0.50851 0.1194 0.0
H641 H 0.25046 0.47582 0.16813 0.0
C642 C 0.2343 0.49678 0.09883 0.0
C643 C 0.22682 0.50013 0.14464 0.0
C644 C 0.21263 0.51085 0.16738 0.0
C645 C 0.25293 0.4779 0.10294 0.0
C646 C 0.25935 0.47089 0.12827 0.0
C647 C 0.24576 0.48154 0.14876 0.0
C648 C 0.28116 0.45368 0.13369 0.0
C649 C 0.2659 0.46582 0.08015 0.0
C650 C 0.27736 0.42937 0.14443 0.0
C651 C 0.29794 0.41241 0.14713 0.0
C652 C 0.3226 0.41963 0.13919 0.0
C653 C 0.32646 0.44463 0.13003 0.0
C654 C 0.30597 0.46145 0.12732 0.0
H655 H 0.25437 0.46805 0.06247 0.0
H656 H 0.28462 0.47523 0.07698 0.0
H657 H 0.2694 0.44514 0.08347 0.0
H658 H 0.25834 0.42316 0.1497 0.0
H659 H 0.2943 0.39328 0.15415 0.0
H660 H 0.77283 0.11816 0.85336 0.0
H661 H 0.73663 0.0901 0.86344 0.0
H662 H 0.78094 0.02455 0.84024 0.0
H663 H 0.81722 0.05231 0.83068 0.0
H664 H 0.70787 0.05054 0.83782 0.0
H665 H 0.76723 0.01289 0.91713 0.0
H666 H 0.77539 0.04161 0.8998 0.0
H667 H 0.78242 0.01071 0.88644 0.0
C668 C 0.77449 0.09788 0.84953 0.0
C669 C 0.79786 0.08734 0.84144 0.0
C670 C 0.75389 0.08186 0.8555 0.0
C671 C 0.75645 0.05523 0.85328 0.0
C672 C 0.77885 0.04501 0.84267 0.0
H673 H 0.67464 0.91785 0.87617 0.0
H674 H 0.70464 0.95256 0.86758 0.0
C675 C 0.79945 0.06091 0.83699 0.0
C676 C 0.73688 0.03786 0.86404 0.0
H677 H 0.72921 0.98968 0.90747 0.0
C678 C 0.71237 0.03746 0.85326 0.0
C679 C 0.74276 0.02107 0.88445 0.0
C680 C 0.76829 0.02171 0.89783 0.0
C681 C 0.69399 0.01968 0.86149 0.0
C682 C 0.70036 0.00212 0.88101 0.0
C683 C 0.7245 0.00318 0.89244 0.0
C684 C 0.68299 0.98108 0.88824 0.0
C685 C 0.66823 0.01898 0.84863 0.0
C686 C 0.66134 0.98558 0.9034 0.0
C687 C 0.64424 0.96566 0.90863 0.0
C688 C 0.6485 0.94109 0.89853 0.0
C689 C 0.67077 0.93656 0.88417 0.0
C690 C 0.68791 0.95636 0.87919 0.0
H691 H 0.66681 0.03294 0.83269 0.0
H692 H 0.66447 -0.00049 0.84107 0.0
H693 H 0.65311 0.02337 0.86286 0.0
H694 H 0.65741 0.00457 0.91069 0.0
H695 H 0.62717 0.96978 0.91962 0.0
H696 H 0.81694 0.0355 0.42377 0.0
H697 H 0.79621 0.99515 0.41281 0.0
H698 H 0.86885 0.96366 0.38992 0.0
H699 H 0.88984 0.00401 0.40126 0.0
H700 H 0.8301 0.96467 0.35113 0.0
H701 H 0.79421 0.92069 0.44049 0.0
H702 H 0.78796 0.9544 0.43851 0.0
H703 H 0.82041 0.9432 0.44002 0.0
C704 C 0.82865 0.01965 0.41736 0.0
C705 C 0.855 0.02287 0.41347 0.0
C706 C 0.81679 0.99658 0.41112 0.0
C707 C 0.83102 0.97636 0.40068 0.0
C708 C 0.85759 0.97896 0.39819 0.0
H709 H 0.73208 0.84921 0.35473 0.0
H710 H 0.77284 0.86927 0.36618 0.0
C711 C 0.86956 0.00196 0.40484 0.0
C712 C 0.81744 0.95445 0.38895 0.0
H713 H 0.77181 0.90978 0.40171 0.0
C714 C 0.81788 0.95215 0.3622 0.0
C715 C 0.80158 0.93807 0.40342 0.0
C716 C 0.80114 0.939 0.43224 0.0
C717 C 0.80145 0.93522 0.34944 0.0
C718 C 0.78413 0.92032 0.36383 0.0
C719 C 0.78508 0.92122 0.39066 0.0
C720 C 0.7625 0.90663 0.35174 0.0
C721 C 0.80201 0.93425 0.32063 0.0
C722 C 0.74358 0.92076 0.33906 0.0
C723 C 0.72031 0.90943 0.3327 0.0
C724 C 0.71562 0.88369 0.33873 0.0
C725 C 0.73537 0.86896 0.34943 0.0
C726 C 0.75857 0.88044 0.35618 0.0
H727 H 0.82116 0.93942 0.3131 0.0
H728 H 0.79681 0.91497 0.31343 0.0
H729 H 0.78807 0.94828 0.31294 0.0
H730 H 0.746 0.94108 0.33584 0.0
H731 H 0.70531 0.92127 0.32473 0.0
H732 H 0.71085 0.07905 0.16972 0.0
H733 H 0.75224 0.05921 0.16127 0.0
H734 H 0.77894 0.12916 0.12683 0.0
H735 H 0.73757 0.14933 0.13567 0.0
H736 H 0.77916 0.08542 0.09433 0.0
H737 H 0.82737 0.06487 0.186 0.0
H738 H 0.79386 0.05732 0.18657 0.0
H739 H 0.80385 0.08993 0.18243 0.0
C740 C 0.7259 0.09054 0.16134 0.0
C741 C 0.72104 0.11574 0.15345 0.0
C742 C 0.74957 0.0792 0.15654 0.0
C743 C 0.76871 0.09276 0.14355 0.0
C744 C 0.7645 0.11848 0.13713 0.0
H745 H 0.89634 0.98993 0.106 0.0
H746 H 0.87623 0.03147 0.11472 0.0
C747 C 0.74092 0.13001 0.14235 0.0
C748 C 0.79094 0.07865 0.13313 0.0
H749 H 0.83734 0.03642 0.15071 0.0
C750 C 0.79244 0.07534 0.10656 0.0
C751 C 0.80834 0.06562 0.1491 0.0
C752 C 0.8085 0.06977 0.17762 0.0
C753 C 0.80953 0.05777 0.09566 0.0
C754 C 0.82517 0.04283 0.11184 0.0
C755 C 0.82518 0.0477 0.13828 0.0
C756 C 0.83861 0.01973 0.10236 0.0
C757 C 0.80981 0.05461 0.067 0.0
C758 C 0.82427 -0.00037 0.09193 0.0
C759 C 0.83562 0.97599 0.08705 0.0
C760 C 0.86158 0.97197 0.09246 0.0
C761 C 0.87637 0.99258 0.10132 0.0
C762 C 0.86488 0.01625 0.10649 0.0
H763 H 0.80498 0.07287 0.05732 0.0
H764 H 0.82873 0.04797 0.06002 0.0
H765 H 0.79518 0.04032 0.06143 0.0
H766 H 0.80389 0.0017 0.08901 0.0
H767 H 0.82372 0.96043 0.08036 0.0
H768 H 0.16788 0.5607 0.68197 0.0
H769 H 0.19921 0.52605 0.67838 0.0
H770 H 0.16475 0.50185 0.60758 0.0
H771 H 0.13322 0.53603 0.61115 0.0
H772 H 0.1804 0.46093 0.63879 0.0
H773 H 0.25701 0.53323 0.62532 0.0
H774 H 0.23901 0.53644 0.65441 0.0
H775 H 0.22352 0.54132 0.62416 0.0
C776 C 0.16663 0.54768 0.66592 0.0
C777 C 0.14823 0.55134 0.64669 0.0
C778 C 0.18466 0.52802 0.6638 0.0
C779 C 0.18461 0.51178 0.64242 0.0
C780 C 0.16523 0.5143 0.62414 0.0
H781 H 0.31449 0.42958 0.58024 0.0
H782 H 0.27679 0.45662 0.58641 0.0
C783 C 0.14722 0.53389 0.62622 0.0
C784 C 0.20567 0.49336 0.638 0.0
H785 H 0.26974 0.48995 0.62629 0.0
C786 C 0.19996 0.46721 0.63613 0.0
C787 C 0.23106 0.50172 0.63398 0.0
C788 C 0.2381 0.52971 0.63431 0.0
C789 C 0.21907 0.44913 0.63065 0.0
C790 C 0.24456 0.45744 0.62731 0.0
C791 C 0.25019 0.48362 0.62894 0.0
C792 C 0.26588 0.4394 0.62242 0.0
C793 C 0.21169 0.42138 0.62798 0.0
C794 C 0.27211 0.42062 0.6405 0.0
C795 C 0.29355 0.40509 0.63698 0.0
C796 C 0.30934 0.4082 0.61541 0.0
C797 C 0.30272 0.42664 0.59702 0.0
C798 C 0.28122 0.44215 0.60055 0.0
H799 H 0.19099 0.41916 0.62391 0.0
H800 H 0.22274 0.41197 0.61247 0.0
H801 H 0.21586 0.41127 0.64615 0.0
H802 H 0.26089 0.41851 0.65777 0.0
H803 H 0.29813 0.39117 0.6516 0.0
H804 H 0.20645 0.386 0.36211 0.0
H805 H 0.23862 0.41964 0.35935 0.0
H806 H 0.19727 0.46401 0.41525 0.0
H807 H 0.16522 0.43011 0.41856 0.0
H808 H 0.23006 0.46797 0.34296 0.0
H809 H 0.26975 0.47007 0.44121 0.0
H810 H 0.2503 0.44403 0.42971 0.0
H811 H 0.23565 0.47336 0.44011 0.0
C812 C 0.20446 0.40266 0.37426 0.0
C813 C 0.18328 0.40534 0.39061 0.0
C814 C 0.22283 0.42194 0.37256 0.0
C815 C 0.22044 0.44434 0.38713 0.0
C816 C 0.19979 0.44672 0.40415 0.0
H817 H 0.29553 0.58976 0.35162 0.0
H818 H 0.26474 0.55455 0.35455 0.0
C819 C 0.18146 0.4273 0.40602 0.0
C820 C 0.23868 0.46574 0.38316 0.0
H821 H 0.28164 0.50413 0.41365 0.0
C822 C 0.24142 0.47583 0.3584 0.0
C823 C 0.25358 0.47589 0.40327 0.0
C824 C 0.25241 0.46515 0.43002 0.0
C825 C 0.25865 0.49575 0.35319 0.0
C826 C 0.27316 0.50625 0.37341 0.0
C827 C 0.2704 0.49617 0.39817 0.0
C828 C 0.29199 0.52712 0.36933 0.0
C829 C 0.26157 0.50492 0.326 0.0
C830 C 0.31751 0.52342 0.37654 0.0
C831 C 0.335 0.54349 0.3751 0.0
C832 C 0.32738 0.56776 0.36635 0.0
C833 C 0.30205 0.57122 0.35813 0.0
C834 C 0.28444 0.5511 0.3598 0.0
H835 H 0.25437 0.49061 0.31206 0.0
H836 H 0.25037 0.52276 0.32343 0.0
H837 H 0.28186 0.50914 0.32149 0.0
H838 H 0.32381 0.50509 0.38386 0.0
H839 H 0.35438 0.54016 0.38153 0.0
H840 H 0.3419 0.5471 0.90518 0.0
H841 H 0.3074 0.51645 0.89754 0.0
H842 H 0.27037 0.57057 0.84757 0.0
H843 H 0.30503 0.60095 0.85452 0.0
H844 H 0.25706 0.51793 0.90598 0.0
H845 H 0.27432 0.50857 0.80199 0.0
H846 H 0.29648 0.52442 0.82308 0.0
H847 H 0.26879 0.5411 0.81132 0.0
C848 C 0.32631 0.55254 0.89272 0.0
C849 C 0.3263 0.57637 0.8803 0.0
C850 C 0.30667 0.53496 0.88828 0.0
C851 C 0.28667 0.54095 0.87142 0.0
C852 C 0.28602 0.5652 0.85998 0.0
H853 H 0.14016 0.46669 0.86664 0.0
H854 H 0.17549 0.49707 0.86844 0.0
C855 C 0.30573 0.58265 0.8642 0.0
C856 C 0.26627 0.52202 0.86606 0.0
H857 H 0.23491 0.4914 0.81764 0.0
C858 C 0.25233 0.51203 0.88667 0.0
C859 C 0.26045 0.51387 0.84089 0.0
C860 C 0.27598 0.52233 0.81808 0.0
C861 C 0.23222 0.49478 0.88277 0.0
C862 C 0.22539 0.4879 0.85751 0.0
C863 C 0.23985 0.49715 0.83693 0.0
C864 C 0.20329 0.47102 0.85233 0.0
C865 C 0.21864 0.48384 0.90578 0.0
C866 C 0.20685 0.44696 0.84097 0.0
C867 C 0.18654 0.42962 0.83954 0.0
C868 C 0.16246 0.43614 0.84955 0.0
C869 C 0.15855 0.46101 0.85899 0.0
C870 C 0.17876 0.47833 0.86023 0.0
H871 H 0.23044 0.48543 0.92336 0.0
H872 H 0.20065 0.49458 0.90904 0.0
H873 H 0.21376 0.4634 0.90275 0.0
H874 H 0.22563 0.44108 0.83452 0.0
H875 H 0.19017 0.41058 0.83224 0.0
H876 H 0.62086 0.79206 0.88823 0.0
H877 H 0.6152 0.75502 0.91635 0.0
H878 H 0.62705 0.80314 0.98221 0.0
H879 H 0.63223 0.84024 0.95433 0.0
H880 H 0.6427 0.73089 0.9553 0.0
H881 H 0.55439 0.77571 0.99201 0.0
H882 H 0.57234 0.78934 0.96595 0.0
H883 H 0.58171 0.79534 0.99846 0.0
C884 C 0.62314 0.79458 0.90865 0.0
C885 C 0.62682 0.81908 0.91911 0.0
C886 C 0.61966 0.77344 0.9247 0.0
C887 C 0.61991 0.77655 0.95134 0.0
C888 C 0.62607 0.8005 0.96169 0.0
H889 H 0.61153 0.69054 0.08755 0.0
H890 H 0.61375 0.7222 0.05329 0.0
C891 C 0.62933 0.82162 0.94573 0.0
C892 C 0.61229 0.7553 0.96846 0.0
H893 H 0.57083 0.74016 0.01662 0.0
C894 C 0.62677 0.73272 0.96846 0.0
C895 C 0.59123 0.75763 0.98535 0.0
C896 C 0.57388 0.78071 0.98525 0.0
C897 C 0.62165 0.713 0.98596 0.0
C898 C 0.60146 0.71597 0.00368 0.0
C899 C 0.58634 0.73805 0.003 0.0
C900 C 0.59738 0.69742 0.02459 0.0
C901 C 0.63848 0.68958 0.98623 0.0
C902 C 0.58659 0.67334 0.01988 0.0
C903 C 0.58502 0.65522 0.03954 0.0
C904 C 0.59446 0.66093 0.06406 0.0
C905 C 0.60417 0.68553 0.06886 0.0
C906 C 0.60549 0.70363 0.04933 0.0
H907 H 0.65453 0.69103 0.9724 0.0
H908 H 0.64641 0.68657 0.00568 0.0
H909 H 0.62691 0.67249 0.98134 0.0
H910 H 0.58008 0.66834 0.00088 0.0
H911 H 0.57759 0.63639 0.03521 0.0
H912 H 0.53534 0.35941 0.34548 0.0
H913 H 0.51134 0.3656 0.30598 0.0
H914 H 0.57914 0.34964 0.2619 0.0
H915 H 0.60325 0.34298 0.30142 0.0
H916 H 0.52583 0.40511 0.27248 0.0
H917 H 0.52287 0.31106 0.22268 0.0
H918 H 0.52937 0.31386 0.25647 0.0
H919 H 0.55366 0.32168 0.23355 0.0
C920 C 0.54494 0.35631 0.32738 0.0
C921 C 0.57119 0.35074 0.32657 0.0
C922 C 0.53124 0.36003 0.30483 0.0
C923 C 0.54349 0.35823 0.28104 0.0
C924 C 0.56925 0.35083 0.28005 0.0
H925 H 0.47323 0.39668 0.13266 0.0
H926 H 0.50685 0.39164 0.1651 0.0
C927 C 0.58298 0.34691 0.30268 0.0
C928 C 0.52987 0.36683 0.25776 0.0
H929 H 0.50437 0.34624 0.20137 0.0
C930 C 0.52132 0.39228 0.25683 0.0
C931 C 0.52434 0.35016 0.23723 0.0
C932 C 0.53285 0.3226 0.23744 0.0
C933 C 0.50658 0.40126 0.23635 0.0
C934 C 0.50002 0.38429 0.21646 0.0
C935 C 0.50955 0.35919 0.21671 0.0
C936 C 0.48065 0.39114 0.19708 0.0
C937 C 0.4976 0.42866 0.23638 0.0
C938 C 0.45499 0.39306 0.20449 0.0
C939 C 0.43587 0.39565 0.18613 0.0
C940 C 0.44211 0.39667 0.16002 0.0
C941 C 0.46795 0.39631 0.15269 0.0
C942 C 0.48712 0.39325 0.17112 0.0
H943 H 0.50928 0.44075 0.24934 0.0
H944 H 0.49836 0.43684 0.21679 0.0
H945 H 0.47747 0.42939 0.24301 0.0
H946 H 0.44963 0.39124 0.22442 0.0
H947 H 0.41611 0.39577 0.19228 0.0
H948 H 0.85764 0.28332 0.62648 0.0
H949 H 0.85303 0.24453 0.60087 0.0
H950 H 0.89937 0.27817 0.54149 0.0
H951 H 0.90491 0.31659 0.5675 0.0
H952 H 0.83013 0.23983 0.5569 0.0
H953 H 0.93025 0.20867 0.54432 0.0
H954 H 0.92126 0.23294 0.56713 0.0
H955 H 0.9259 0.24103 0.53396 0.0
C956 C 0.8673 0.28222 0.60819 0.0
C957 C 0.88175 0.30295 0.59904 0.0
C958 C 0.86457 0.26007 0.59353 0.0
C959 C 0.87606 0.25825 0.56934 0.0
C960 C 0.89089 0.27877 0.56036 0.0
H961 H 0.82615 0.16837 0.44105 0.0
H962 H 0.8299 0.19926 0.47579 0.0
C963 C 0.89397 0.3008 0.57521 0.0
C964 C 0.87092 0.23574 0.55278 0.0
H965 H 0.89976 0.19112 0.51493 0.0
C966 C 0.84539 0.22896 0.54799 0.0
C967 C 0.89075 0.22126 0.54142 0.0
C968 C 0.91855 0.22618 0.5472 0.0
C969 C 0.83915 0.20865 0.5316 0.0
C970 C 0.85897 0.19523 0.519 0.0
C971 C 0.8845 0.20151 0.52439 0.0
C972 C 0.85387 0.17522 0.49949 0.0
C973 C 0.81139 0.20173 0.52819 0.0
C974 C 0.86603 0.15134 0.50113 0.0
C975 C 0.8643 0.13382 0.48105 0.0
C976 C 0.8502 0.13976 0.45898 0.0
C977 C 0.83685 0.16307 0.45795 0.0
C978 C 0.83893 0.18076 0.47788 0.0
H979 H 0.79994 0.20718 0.54524 0.0
H980 H 0.80357 0.21233 0.51157 0.0
H981 H 0.80893 0.18093 0.52473 0.0
H982 H 0.87765 0.14661 0.5176 0.0
H983 H 0.87482 0.11603 0.48238 0.0
H984 H 0.91897 0.66933 0.79081 0.0
H985 H 0.94182 0.66063 0.75108 0.0
H986 H 0.87355 0.62802 0.71862 0.0
H987 H 0.85041 0.63687 0.75848 0.0
H988 H 0.91631 0.59482 0.71924 0.0
H989 H 0.94241 0.68856 0.67775 0.0
H990 H 0.94886 0.68671 0.71134 0.0
H991 H 0.91641 0.68483 0.70016 0.0
C992 C 0.90854 0.66119 0.77489 0.0
C993 C 0.88287 0.65389 0.77773 0.0
C994 C 0.92163 0.65625 0.75215 0.0
C995 C 0.90936 0.64381 0.73182 0.0
C996 C 0.88331 0.63783 0.73401 0.0
H997 H 0.01493 0.6114 0.60518 0.0
H998 H 0.97329 0.61922 0.62532 0.0
C999 C 0.87006 0.6431 0.75672 0.0
C1000 C 0.9248 0.6341 0.71008 0.0
H1001 H 0.96951 0.65294 0.66648 0.0
C1002 C 0.92748 0.60752 0.70723 0.0
C1003 C 0.93927 0.65062 0.69434 0.0
C1004 C 0.93643 0.67928 0.69586 0.0
C1005 C 0.94562 0.59708 0.69038 0.0
C1006 C 0.96144 0.61366 0.67607 0.0
C1007 C 0.95743 0.64019 0.67752 0.0
C1008 C 0.98437 0.60426 0.66224 0.0
C1009 C 0.94838 0.56843 0.68881 0.0
C1010 C 0.0041 0.59251 0.67607 0.0
C1011 C 0.02779 0.58805 0.66466 0.0
C1012 C 0.03226 0.59527 0.63917 0.0
C1013 C 0.01193 0.60526 0.62473 0.0
C1014 C 0.98821 0.60997 0.63628 0.0
H1015 H 0.93024 0.55871 0.69378 0.0
H1016 H 0.95439 0.56227 0.6694 0.0
H1017 H 0.96305 0.56204 0.70271 0.0
H1018 H 0.0018 0.58839 0.69623 0.0
H1019 H 0.04315 0.58051 0.67631 0.0
H1020 H 0.59864 0.30791 0.43241 0.0
H1021 H 0.6017 0.2821 0.47101 0.0
H1022 H 0.57212 0.34477 0.51573 0.0
H1023 H 0.56913 0.37102 0.4769 0.0
H1024 H 0.61863 0.32489 0.53395 0.0
H1025 H 0.5495 0.24684 0.51702 0.0
H1026 H 0.56942 0.25247 0.48967 0.0
H1027 H 0.54787 0.27709 0.50043 0.0
C1028 C 0.59219 0.31607 0.45033 0.0
C1029 C 0.58367 0.34152 0.4516 0.0
C1030 C 0.59385 0.30122 0.4724 0.0
C1031 C 0.58695 0.31144 0.49621 0.0
C1032 C 0.5774 0.3365 0.49749 0.0
H1033 H 0.6141 0.2266 0.63896 0.0
H1034 H 0.60409 0.26318 0.61134 0.0
C1035 C 0.57555 0.35139 0.47528 0.0
C1036 C 0.59235 0.29658 0.51971 0.0
H1037 H 0.58427 0.23733 0.54567 0.0
C1038 C 0.61069 0.30597 0.53692 0.0
C1039 C 0.58194 0.27195 0.52354 0.0
C1040 C 0.56089 0.26159 0.50683 0.0
C1041 C 0.62011 0.29064 0.55688 0.0
C1042 C 0.6109 0.26545 0.55955 0.0
C1043 C 0.59156 0.2566 0.54326 0.0
C1044 C 0.62215 0.24708 0.57781 0.0
C1045 C 0.64078 0.30078 0.57414 0.0
C1046 C 0.63665 0.22664 0.56832 0.0
C1047 C 0.64243 0.20586 0.58397 0.0
C1048 C 0.6337 0.20515 0.60937 0.0
C1049 C 0.62139 0.22679 0.61957 0.0
C1050 C 0.61547 0.24761 0.60378 0.0
H1051 H 0.64653 0.32058 0.56903 0.0
H1052 H 0.63397 0.30063 0.59424 0.0
H1053 H 0.65782 0.28816 0.57307 0.0
H1054 H 0.64197 0.22596 0.5483 0.0
H1055 H 0.65187 0.18942 0.5756 0.0
H1056 H 0.01713 0.40966 0.88436 0.0
H1057 H 0.97723 0.40197 0.86088 0.0
H1058 H 0.01956 0.39814 0.79022 0.0
H1059 H 0.05921 0.40586 0.81336 0.0
H1060 H 0.97194 0.42458 0.78693 0.0
H1061 H 0.96387 0.3285 0.83241 0.0
H1062 H 0.96614 0.35583 0.85319 0.0
H1063 H 0.99292 0.34702 0.83367 0.0
C1064 C 0.01777 0.40797 0.86373 0.0
C1065 C 0.04127 0.40823 0.85067 0.0
C1066 C 0.99504 0.40326 0.85042 0.0
C1067 C 0.99558 0.39897 0.82392 0.0
C1068 C 0.01877 0.40122 0.81069 0.0
H1069 H 0.92387 0.33415 0.69761 0.0
H1070 H 0.94921 0.34329 0.73579 0.0
C1071 C 0.04141 0.4057 0.82394 0.0
C1072 C 0.97265 0.39041 0.8098 0.0
H1073 H 0.93552 0.33776 0.79883 0.0
C1074 C 0.96362 0.40581 0.78982 0.0
C1075 C 0.96209 0.36575 0.81351 0.0
C1076 C 0.97174 0.34814 0.83422 0.0
C1077 C 0.94502 0.39683 0.77279 0.0
C1078 C 0.93493 0.37199 0.77611 0.0
C1079 C 0.94317 0.3569 0.79663 0.0
C1080 C 0.91803 0.36076 0.75655 0.0
C1081 C 0.93703 0.4135 0.75065 0.0
C1082 C 0.89186 0.36645 0.75625 0.0
C1083 C 0.8772 0.36082 0.7346 0.0
C1084 C 0.88875 0.34995 0.71288 0.0
C1085 C 0.91449 0.34246 0.71412 0.0
C1086 C 0.92898 0.34768 0.73588 0.0
H1087 H 0.94939 0.43063 0.7488 0.0
H1088 H 0.93791 0.40269 0.73242 0.0
H1089 H 0.91697 0.41979 0.75349 0.0
H1090 H 0.8832 0.37671 0.77203 0.0
H1091 H 0.85748 0.36709 0.73404 0.0
H1092 H 0.91486 0.69588 0.91305 0.0
H1093 H 0.91014 0.73299 0.94121 0.0
H1094 H 0.83945 0.75273 0.90387 0.0
H1095 H 0.84412 0.71601 0.87544 0.0
H1096 H 0.87022 0.79541 0.91555 0.0
H1097 H 0.8567 0.73119 -0.00096 0.0
H1098 H 0.88593 0.72608 0.98177 0.0
H1099 H 0.85584 0.71976 0.96651 0.0
C1100 C 0.89852 0.70834 0.91054 0.0
C1101 C 0.87972 0.7028 0.89218 0.0
C1102 C 0.89578 0.72944 0.92675 0.0
C1103 C 0.87417 0.74525 0.92493 0.0
C1104 C 0.85617 0.74065 0.90567 0.0
H1105 H 0.81968 0.83973 0.05033 0.0
H1106 H 0.82134 0.81082 0.01358 0.0
C1107 C 0.85889 0.71961 0.88946 0.0
C1108 C 0.8695 0.76566 0.94399 0.0
H1109 H 0.85919 0.77553 0.00764 0.0
C1110 C 0.86776 0.79113 0.93569 0.0
C1111 C 0.86573 0.75989 0.97014 0.0
C1112 C 0.86588 0.73274 0.97995 0.0
C1113 C 0.86299 0.8111 0.95302 0.0
C1114 C 0.8602 0.80541 0.97932 0.0
C1115 C 0.86139 0.77987 0.98747 0.0
C1116 C 0.85712 0.82555 -0.00098 0.0
C1117 C 0.86071 0.83805 0.943 0.0
C1118 C 0.87638 0.8438 0.00267 0.0
C1119 C 0.87543 0.8604 0.02355 0.0
C1120 C 0.85533 0.8589 0.04137 0.0
C1121 C 0.83541 0.84143 0.03698 0.0
C1122 C 0.83636 0.82484 0.01602 0.0
H1123 H 0.85553 0.83827 0.92241 0.0
H1124 H 0.84617 0.84908 0.95385 0.0
H1125 H 0.87938 0.84784 0.94508 0.0
H1126 H 0.89283 0.84437 0.99011 0.0
H1127 H 0.89114 0.87357 0.02637 0.0
H1128 H 0.41887 0.59939 0.31434 0.0
H1129 H 0.45335 0.60442 0.28341 0.0
H1130 H 0.50849 0.60426 0.34457 0.0
H1131 H 0.47383 0.59895 0.37586 0.0
H1132 H 0.48497 0.64842 0.28557 0.0
H1133 H 0.54176 0.55833 0.28855 0.0
H1134 H 0.5091 0.55988 0.29967 0.0
H1135 H 0.53427 0.57326 0.31865 0.0
C1136 C 0.43838 0.59972 0.32122 0.0
C1137 C 0.44362 0.59885 0.34757 0.0
C1138 C 0.45807 0.60269 0.3035 0.0
C1139 C 0.48348 0.60482 0.31165 0.0
C1140 C 0.48904 0.60238 0.33783 0.0
H1141 H 0.61509 0.63796 0.21184 0.0
H1142 H 0.58878 0.63433 0.25056 0.0
C1143 C 0.46923 0.59927 0.35568 0.0
C1144 C 0.50338 0.61228 0.29284 0.0
H1145 H 0.55587 0.5907 0.26057 0.0
C1146 C 0.5006 0.63586 0.28026 0.0
C1147 C 0.5239 0.59602 0.28612 0.0
C1148 C 0.52752 0.57036 0.29877 0.0
C1149 C 0.51731 0.64328 0.26063 0.0
C1150 C 0.53717 0.62658 0.25316 0.0
C1151 C 0.54064 0.60347 0.26641 0.0
C1152 C 0.55298 0.63164 0.23016 0.0
C1153 C 0.51337 0.66881 0.24779 0.0
C1154 C 0.54151 0.63177 0.20594 0.0
C1155 C 0.55642 0.63376 0.18388 0.0
C1156 C 0.58314 0.63577 0.18557 0.0
C1157 C 0.59453 0.63683 0.20991 0.0
C1158 C 0.57956 0.63452 0.23203 0.0
H1159 H 0.50233 0.68214 0.26012 0.0
H1160 H 0.53194 0.6778 0.24287 0.0
H1161 H 0.50248 0.66595 0.22983 0.0
H1162 H 0.52106 0.62923 0.20404 0.0
H1163 H 0.54709 0.63269 0.16543 0.0
H1164 H 0.80768 0.92377 0.68002 0.0
H1165 H 0.77647 0.9586 0.67736 0.0
H1166 H 0.82179 0.995 0.61891 0.0
H1167 H 0.85326 0.96077 0.6218 0.0
H1168 H 0.80113 0.0297 0.65238 0.0
H1169 H 0.72741 0.96222 0.61687 0.0
H1170 H 0.74039 0.95392 0.64753 0.0
H1171 H 0.76062 0.9535 0.61973 0.0
C1172 C 0.81124 0.93943 0.66695 0.0
C1173 C 0.83283 0.93932 0.65092 0.0
C1174 C 0.79328 0.9592 0.66529 0.0
C1175 C 0.79652 0.97903 0.64747 0.0
C1176 C 0.81882 0.97977 0.63264 0.0
H1177 H 0.67458 0.07186 0.58386 0.0
H1178 H 0.71097 0.04311 0.59012 0.0
C1179 C 0.8368 0.96014 0.63434 0.0
C1180 C 0.7762 0.99831 0.64317 0.0
H1181 H 0.71423 0.00486 0.62404 0.0
C1182 C 0.7821 0.02431 0.64622 0.0
C1183 C 0.75159 0.99124 0.63453 0.0
C1184 C 0.74461 0.96374 0.6292 0.0
C1185 C 0.76394 0.04344 0.64118 0.0
C1186 C 0.73905 0.0363 0.63343 0.0
C1187 C 0.73327 0.01031 0.63012 0.0
C1188 C 0.71852 0.05536 0.62891 0.0
C1189 C 0.77181 0.07108 0.64365 0.0
C1190 C 0.71081 0.07194 0.64854 0.0
C1191 C 0.69023 0.08854 0.64493 0.0
C1192 C 0.67665 0.08864 0.62173 0.0
C1193 C 0.68465 0.0723 0.60193 0.0
C1194 C 0.7054 0.05582 0.6055 0.0
H1195 H 0.79283 0.07336 0.64185 0.0
H1196 H 0.76241 0.08313 0.62892 0.0
H1197 H 0.76612 0.07826 0.66278 0.0
H1198 H 0.7202 0.07149 0.66697 0.0
H1199 H 0.68445 0.10069 0.66068 0.0
H1200 H 0.13944 0.60452 0.21974 0.0
H1201 H 0.13634 0.5681 0.2492 0.0
H1202 H 0.07903 0.53386 0.20096 0.0
H1203 H 0.0816 0.57012 0.17192 0.0
H1204 H 0.06841 0.52776 0.25206 0.0
H1205 H 0.16816 0.49925 0.22916 0.0
H1206 H 0.16469 0.53097 0.24189 0.0
H1207 H 0.15121 0.52334 0.21125 0.0
C1208 C 0.12579 0.5895 0.21575 0.0
C1209 C 0.11099 0.59005 0.19336 0.0
C1210 C 0.12422 0.56859 0.23244 0.0
C1211 C 0.10789 0.54802 0.2269 0.0
C1212 C 0.09191 0.54942 0.20548 0.0
H1213 H 0.12368 0.3906 0.27717 0.0
H1214 H 0.11952 0.4299 0.25199 0.0
C1215 C 0.09345 0.57018 0.18888 0.0
C1216 C 0.10823 0.52428 0.24235 0.0
H1217 H 0.14609 0.47388 0.25924 0.0
C1218 C 0.0854 0.51601 0.25375 0.0
C1219 C 0.13028 0.5087 0.24394 0.0
C1220 C 0.15494 0.5158 0.23074 0.0
C1221 C 0.08405 0.49264 0.26688 0.0
C1222 C 0.10629 0.4774 0.2691 0.0
C1223 C 0.12908 0.48562 0.25758 0.0
C1224 C 0.10657 0.45312 0.28373 0.0
C1225 C 0.05867 0.48423 0.27767 0.0
C1226 C 0.10043 0.45309 0.30981 0.0
C1227 C 0.10254 0.43069 0.32413 0.0
C1228 C 0.11121 0.40787 0.31276 0.0
C1229 C 0.11685 0.40779 0.28648 0.0
C1230 C 0.11458 0.43026 0.27211 0.0
H1231 H 0.04248 0.49373 0.26776 0.0
H1232 H 0.05623 0.4632 0.27608 0.0
H1233 H 0.05769 0.48953 0.29818 0.0
H1234 H 0.09478 0.47059 0.31934 0.0
H1235 H 0.09821 0.43154 0.34437 0.0
H1236 H 0.85887 0.90034 0.53724 0.0
H1237 H 0.82308 0.90414 0.50726 0.0
H1238 H 0.77632 0.85823 0.55726 0.0
H1239 H 0.81164 0.85472 0.58741 0.0
H1240 H 0.79463 0.8691 0.48103 0.0
H1241 H 0.73288 0.92204 0.54875 0.0
H1242 H 0.76652 0.91702 0.55436 0.0
H1243 H 0.74383 0.89225 0.56174 0.0
C1244 C 0.84106 0.8908 0.54169 0.0
C1245 C 0.83805 0.8774 0.56482 0.0
C1246 C 0.82059 0.89311 0.52461 0.0
C1247 C 0.79681 0.8821 0.5304 0.0
C1248 C 0.79423 0.86758 0.55279 0.0
H1249 H 0.67426 0.84275 0.43032 0.0
H1250 H 0.7084 0.84482 0.46196 0.0
C1251 C 0.81456 0.86537 0.56989 0.0
C1252 C 0.77464 0.88554 0.51306 0.0
H1253 H 0.71211 0.90441 0.51186 0.0
C1254 C 0.77668 0.87703 0.48771 0.0
C1255 C 0.75136 0.89644 0.52161 0.0
C1256 C 0.74855 0.90772 0.54802 0.0
C1257 C 0.7557 0.87796 0.47107 0.0
C1258 C 0.73193 0.88719 0.48018 0.0
C1259 C 0.73021 0.89689 0.5051 0.0
C1260 C 0.70862 0.88611 0.46418 0.0
C1261 C 0.75913 0.86886 0.44389 0.0
C1262 C 0.69626 0.9086 0.45628 0.0
C1263 C 0.6764 0.90747 0.43835 0.0
C1264 C 0.66875 0.88381 0.42812 0.0
C1265 C 0.67984 0.86127 0.4377 0.0
C1266 C 0.69951 0.86242 0.45562 0.0
H1267 H 0.77943 0.87003 0.43777 0.0
H1268 H 0.75309 0.84857 0.44254 0.0
H1269 H 0.74732 0.88022 0.43042 0.0
H1270 H 0.70288 0.92706 0.46289 0.0
H1271 H 0.66836 0.92516 0.43121 0.0
H1272 H 0.43876 0.57318 0.82744 0.0
H1273 H 0.44673 0.53821 0.79734 0.0
H1274 H 0.38115 0.56176 0.7532 0.0
H1275 H 0.37451 0.59773 0.78207 0.0
H1276 H 0.42093 0.49938 0.78955 0.0
H1277 H 0.42602 0.54642 0.69577 0.0
H1278 H 0.42682 0.56452 0.72508 0.0
H1279 H 0.39671 0.55559 0.71079 0.0
C1280 C 0.42661 0.57128 0.8108 0.0
C1281 C 0.40623 0.58829 0.80686 0.0
C1282 C 0.43105 0.55122 0.79367 0.0
C1283 C 0.4148 0.54737 0.77262 0.0
C1284 C 0.39463 0.56469 0.76857 0.0
H1285 H 0.37245 0.40135 0.71198 0.0
H1286 H 0.3818 0.43863 0.73837 0.0
C1287 C 0.3907 0.58522 0.78523 0.0
C1288 C 0.41719 0.5239 0.75657 0.0
H1289 H 0.41178 0.50212 0.69533 0.0
C1290 C 0.41946 0.5001 0.76889 0.0
C1291 C 0.41595 0.52452 0.72953 0.0
C1292 C 0.41656 0.5492 0.7146 0.0
C1293 C 0.41926 0.47706 0.75512 0.0
C1294 C 0.41524 0.47763 0.72835 0.0
C1295 C 0.4143 0.50144 0.71589 0.0
C1296 C 0.41081 0.454 0.71304 0.0
C1297 C 0.4236 0.45246 0.76957 0.0
C1298 C 0.42328 0.45039 0.68948 0.0
C1299 C 0.41719 0.42953 0.6739 0.0
C1300 C 0.39892 0.41154 0.68182 0.0
C1301 C 0.387 0.41466 0.70566 0.0
C1302 C 0.39252 0.43592 0.72087 0.0
H1303 H 0.43624 0.45565 0.78632 0.0
H1304 H 0.40507 0.4453 0.77696 0.0
H1305 H 0.43238 0.43753 0.75728 0.0
H1306 H 0.4374 0.46401 0.68288 0.0
H1307 H 0.42658 0.42759 0.65554 0.0
H1308 H 0.84877 0.05855 0.93619 0.0
H1309 H 0.81653 0.05215 0.96981 0.0
H1310 H 0.79923 0.13279 0.9685 0.0
H1311 H 0.83136 0.13931 0.93544 0.0
H1312 H 0.79984 0.11185 0.01769 0.0
H1313 H 0.74008 0.05462 0.95061 0.0
H1314 H 0.77211 0.04367 0.95651 0.0
H1315 H 0.76704 0.0732 0.9398 0.0
C1316 C 0.8386 0.07497 0.94367 0.0
C1317 C 0.84244 0.09941 0.93313 0.0
C1318 C 0.81998 0.07124 0.96259 0.0
C1319 C 0.80512 0.09192 0.97118 0.0
C1320 C 0.81034 0.11654 0.962 0.0
H1321 H 0.67674 0.1419 0.05518 0.0
H1322 H 0.71183 0.13439 0.02531 0.0
C1323 C 0.82875 0.12025 0.94313 0.0
C1324 C 0.78301 0.0883 0.98849 0.0
H1325 H 0.7215 0.06636 0.98981 0.0
C1326 C 0.78285 0.10158 0.01177 0.0
C1327 C 0.76083 0.07492 0.98067 0.0
C1328 C 0.75976 0.06088 0.95549 0.0
C1329 C 0.76086 0.10268 0.02701 0.0
C1330 C 0.73831 0.09038 0.01859 0.0
C1331 C 0.73879 0.07591 0.99603 0.0
C1332 C 0.71387 0.0937 0.03245 0.0
C1333 C 0.76178 0.11768 0.05165 0.0
C1334 C 0.70215 0.07297 0.04479 0.0
C1335 C 0.68169 0.07715 0.06156 0.0
C1336 C 0.67291 0.10215 0.06624 0.0
C1337 C 0.68322 0.12247 0.05204 0.0
C1338 C 0.7034 0.11824 0.03515 0.0
H1339 H 0.78159 0.1192 0.05907 0.0
H1340 H 0.7547 0.13737 0.04808 0.0
H1341 H 0.74952 0.10886 0.06656 0.0
H1342 H 0.70986 0.05385 0.04273 0.0
H1343 H 0.67424 0.06116 0.07239 0.0
H1344 H 0.2881 0.12667 0.40141 0.0
H1345 H 0.26301 0.13741 0.43933 0.0
H1346 H 0.29722 0.21231 0.44116 0.0
H1347 H 0.32212 0.20181 0.40277 0.0
H1348 H 0.3002 0.15599 0.48438 0.0
H1349 H 0.2153 0.2166 0.4631 0.0
H1350 H 0.22561 0.19327 0.43976 0.0
H1351 H 0.24524 0.22049 0.44632 0.0
C1352 C 0.28926 0.14588 0.40909 0.0
C1353 C 0.30694 0.16343 0.39916 0.0
C1354 C 0.27508 0.15194 0.43083 0.0
C1355 C 0.27848 0.17555 0.44305 0.0
C1356 C 0.29425 0.19407 0.43182 0.0
H1357 H 0.19373 0.18993 0.58751 0.0
H1358 H 0.22438 0.20364 0.55468 0.0
C1359 C 0.30826 0.18812 0.40976 0.0
C1360 C 0.26911 0.17849 0.46951 0.0
H1361 H 0.21681 0.19665 0.50376 0.0
C1362 C 0.28222 0.16533 0.48883 0.0
C1363 C 0.2461 0.19122 0.47527 0.0
C1364 C 0.23212 0.20634 0.45515 0.0
C1365 C 0.27178 0.16275 0.51335 0.0
C1366 C 0.24741 0.17326 0.51849 0.0
C1367 C 0.23541 0.18842 0.49978 0.0
C1368 C 0.23239 0.16534 0.5412 0.0
C1369 C 0.28648 0.14776 0.53313 0.0
C1370 C 0.2272 0.13929 0.5449 0.0
C1371 C 0.21 0.13145 0.56364 0.0
C1372 C 0.19727 0.14951 0.57892 0.0
C1373 C 0.20346 0.17554 0.57622 0.0
C1374 C 0.2208 0.18342 0.55735 0.0
H1375 H 0.30739 0.14964 0.53007 0.0
H1376 H 0.28179 0.15415 0.55283 0.0
H1377 H 0.28168 0.12718 0.53133 0.0
H1378 H 0.23533 0.125 0.5323 0.0
H1379 H 0.2056 0.11127 0.56513 0.0
H1380 H 0.12904 0.03059 0.64097 0.0
H1381 H 0.13641 0.00501 0.6793 0.0
H1382 H 0.18966 0.06161 0.70688 0.0
H1383 H 0.18095 0.08808 0.66927 0.0
H1384 H 0.17396 0.98193 0.69978 0.0
H1385 H 0.14461 0.05819 0.76723 0.0
H1386 H 0.14117 0.06152 0.73315 0.0
H1387 H 0.17159 0.06729 0.7482 0.0
C1388 C 0.14248 0.03747 0.65512 0.0
C1389 C 0.15427 0.0614 0.65229 0.0
C1390 C 0.14666 0.02286 0.67709 0.0
C1391 C 0.16307 0.03166 0.69644 0.0
C1392 C 0.17615 0.05483 0.69279 0.0
H1393 H 0.19985 0.92078 0.81721 0.0
H1394 H 0.20467 0.95149 0.7822 0.0
C1395 C 0.17142 0.0698 0.67114 0.0
C1396 C 0.16598 0.01663 0.72045 0.0
H1397 H 0.1612 0.02032 0.78551 0.0
C1398 C 0.17114 0.99035 0.71852 0.0
C1399 C 0.16196 0.02749 0.74497 0.0
C1400 C 0.15426 0.05509 0.74855 0.0
C1401 C 0.17183 0.97455 0.7402 0.0
C1402 C 0.16864 0.98555 0.76478 0.0
C1403 C 0.16399 0.01192 0.76676 0.0
C1404 C 0.16804 0.96975 0.78844 0.0
C1405 C 0.17464 0.94607 0.73625 0.0
C1406 C 0.14692 0.97122 0.80501 0.0
C1407 C 0.14466 0.9544 0.82566 0.0
C1408 C 0.16327 0.93552 0.82982 0.0
C1409 C 0.18512 0.93503 0.81422 0.0
C1410 C 0.18771 0.95234 0.79402 0.0
H1411 H 0.16929 0.94031 0.71652 0.0
H1412 H 0.19488 0.94053 0.73922 0.0
H1413 H 0.16257 0.93517 0.74987 0.0
H1414 H 0.13155 0.98459 0.8013 0.0
H1415 H 0.12755 0.95509 0.8373 0.0
H1416 H 0.28679 0.87809 0.09122 0.0
H1417 H 0.26089 0.8665 0.05425 0.0
H1418 H 0.29461 0.79124 0.0539 0.0
H1419 H 0.32028 0.80269 0.09138 0.0
H1420 H 0.30375 0.82078 0.00937 0.0
H1421 H 0.2009 0.81998 0.03315 0.0
H1422 H 0.21697 0.84691 0.04707 0.0
H1423 H 0.22546 0.81503 0.05693 0.0
C1424 C 0.28762 0.85863 0.08413 0.0
C1425 C 0.30533 0.84122 0.09423 0.0
C1426 C 0.27287 0.85202 0.06295 0.0
C1427 C 0.27582 0.82799 0.05136 0.0
C1428 C 0.29191 0.80979 0.06273 0.0
H1429 H 0.22097 0.81041 0.89237 0.0
H1430 H 0.24314 0.79878 0.9321 0.0
C1431 C 0.30636 0.81627 0.08428 0.0
C1432 C 0.26585 0.82416 0.02517 0.0
H1433 H 0.2119 0.8327 0.98983 0.0
C1434 C 0.28357 0.82246 0.00501 0.0
C1435 C 0.23958 0.8265 0.01957 0.0
C1436 C 0.21961 0.82695 0.04036 0.0
C1437 C 0.27583 0.82509 0.97944 0.0
C1438 C 0.24979 0.82937 0.97407 0.0
C1439 C 0.2319 0.8294 0.99408 0.0
C1440 C 0.2409 0.83674 0.94833 0.0
C1441 C 0.29558 0.82501 0.95843 0.0
C1442 C 0.23346 0.8621 0.94403 0.0
C1443 C 0.22106 0.86881 0.92145 0.0
C1444 C 0.21576 0.85022 0.9028 0.0
C1445 C 0.22508 0.82521 0.90625 0.0
C1446 C 0.23752 0.81847 0.929 0.0
H1447 H 0.31536 0.82453 0.96603 0.0
H1448 H 0.29262 0.80801 0.94608 0.0
H1449 H 0.29342 0.84226 0.94625 0.0
H1450 H 0.23608 0.87645 0.95873 0.0
H1451 H 0.2141 0.88821 0.91935 0.0
H1452 H 0.3407 0.10068 0.30208 0.0
H1453 H 0.33442 0.07151 0.26613 0.0
H1454 H 0.35209 0.00737 0.31477 0.0
H1455 H 0.35853 0.03639 0.35088 0.0
H1456 H 0.38161 0.01049 0.26939 0.0
H1457 H 0.27781 0.01897 0.24903 0.0
H1458 H 0.29457 0.04879 0.25214 0.0
H1459 H 0.2916 0.02806 0.27934 0.0
C1460 C 0.34283 0.08033 0.30529 0.0
C1461 C 0.35021 0.07088 0.32938 0.0
C1462 C 0.33909 0.06368 0.28472 0.0
C1463 C 0.34259 0.03728 0.28784 0.0
C1464 C 0.34917 0.02769 0.31202 0.0
H1465 H 0.33654 0.9072 0.18646 0.0
H1466 H 0.33071 0.93745 0.22164 0.0
C1467 C 0.3528 0.04431 0.33264 0.0
C1468 C 0.34178 0.01996 0.26543 0.0
H1469 H 0.30303 0.99689 0.21819 0.0
C1470 C 0.36441 0.00744 0.25827 0.0
C1471 C 0.31931 0.01608 0.25094 0.0
C1472 C 0.29435 0.02849 0.25829 0.0
C1473 C 0.36523 0.99137 0.23684 0.0
C1474 C 0.34287 0.9877 0.22223 0.0
C1475 C 0.32016 -0.0 0.2294 0.0
C1476 C 0.34294 0.97038 0.19992 0.0
C1477 C 0.38996 0.97829 0.22982 0.0
C1478 C 0.35118 0.97912 0.17595 0.0
C1479 C 0.3545 0.9619 0.15573 0.0
C1480 C 0.34981 0.93565 0.15929 0.0
C1481 C 0.34044 0.92725 0.18308 0.0
C1482 C 0.33702 0.94448 0.2032 0.0
H1483 H 0.40556 0.98271 0.2435 0.0
H1484 H 0.3871 0.95726 0.22929 0.0
H1485 H 0.39599 0.98439 0.2104 0.0
H1486 H 0.35592 -0.00091 0.17319 0.0
H1487 H 0.36178 0.969 0.13769 0.0
H1488 H 0.60577 0.21386 0.13825 0.0
H1489 H 0.56579 0.23752 0.1343 0.0
H1490 H 0.53307 0.17516 0.0914 0.0
H1491 H 0.57272 0.15084 0.09639 0.0
H1492 H 0.54027 0.25553 0.09609 0.0
H1493 H 0.47924 0.18381 0.14454 0.0
H1494 H 0.51357 0.18137 0.14393 0.0
H1495 H 0.49499 0.17123 0.11681 0.0
C1496 C 0.59013 0.20523 0.12783 0.0
C1497 C 0.59234 0.18042 0.11776 0.0
C1498 C 0.56722 0.21875 0.12565 0.0
C1499 C 0.54613 0.2079 0.11309 0.0
C1500 C 0.54872 0.18361 0.10193 0.0
H1501 H 0.42024 0.30974 0.07293 0.0
H1502 H 0.4542 0.27769 0.0702 0.0
C1503 C 0.5715 0.16985 0.10454 0.0
C1504 C 0.52166 0.22229 0.11164 0.0
H1505 H 0.4579 0.21903 0.12546 0.0
C1506 C 0.52227 0.24751 0.10252 0.0
C1507 C 0.49819 0.212 0.12043 0.0
C1508 C 0.49644 0.18572 0.13223 0.0
C1509 C 0.50027 0.26282 0.10215 0.0
C1510 C 0.47661 0.25225 0.11001 0.0
C1511 C 0.47592 0.22698 0.11903 0.0
C1512 C 0.45277 0.2677 0.11035 0.0
C1513 C 0.50298 0.2905 0.09435 0.0
C1514 C 0.4391 0.27105 0.13326 0.0
C1515 C 0.41902 0.28869 0.13461 0.0
C1516 C 0.41261 0.30346 0.11314 0.0
C1517 C 0.42501 0.29871 0.0898 0.0
C1518 C 0.44459 0.28064 0.0883 0.0
H1519 H 0.523 0.29726 0.09625 0.0
H1520 H 0.49741 0.29263 0.07401 0.0
H1521 H 0.49055 0.30308 0.10612 0.0
H1522 H 0.44489 0.2611 0.15048 0.0
H1523 H 0.40986 0.29214 0.15287 0.0
H1524 H 0.89405 0.2077 0.84629 0.0
H1525 H 0.93065 0.23674 0.84876 0.0
H1526 H 0.96609 0.1873 0.90443 0.0
H1527 H 0.93009 0.1578 0.90134 0.0
H1528 H 0.95253 0.26396 0.88554 0.0
H1529 H 0.02142 0.19114 0.85146 0.0
H1530 H 0.98736 0.18612 0.8507 0.0
H1531 H 0.00498 0.18114 0.87983 0.0
C1532 C 0.90952 0.2032 0.85927 0.0
C1533 C 0.90936 0.18037 0.87342 0.0
C1534 C 0.93047 0.21974 0.86059 0.0
C1535 C 0.95147 0.21379 0.8762 0.0
C1536 C 0.95054 0.19182 0.89157 0.0
H1537 H 0.06835 0.32301 0.91817 0.0
H1538 H 0.0345 0.29091 0.91829 0.0
C1539 C 0.92983 0.17512 0.88998 0.0
C1540 C 0.97445 0.23038 0.87621 0.0
H1541 H 0.03923 0.22969 0.86802 0.0
C1542 C 0.97147 0.25648 0.88163 0.0
C1543 C -0.00088 0.22071 0.87053 0.0
C1544 C 0.00342 0.19331 0.86253 0.0
C1545 C 0.9925 0.27308 0.88206 0.0
C1546 C 0.01731 0.26312 0.87779 0.0
C1547 C 0.02026 0.23716 0.87179 0.0
C1548 C 0.0403 0.27959 0.87892 0.0
C1549 C 0.98782 0.30122 0.88656 0.0
C1550 C 0.05602 0.28249 0.85735 0.0
C1551 C 0.0758 0.30047 0.85739 0.0
C1552 C 0.07997 0.3159 0.87899 0.0
C1553 C 0.06541 0.31157 0.90116 0.0
C1554 C 0.04589 0.29342 0.90119 0.0
H1555 H 0.96781 0.30666 0.88205 0.0
H1556 H 0.99128 0.3057 0.90699 0.0
H1557 H 0.00086 0.31314 0.87479 0.0
H1558 H 0.05219 0.27177 0.84005 0.0
H1559 H 0.08664 0.30345 0.84 0.0
H1560 H 0.05125 0.66554 0.16077 0.0
H1561 H 0.01956 0.69981 0.16125 0.0
H1562 H 0.0146 0.69623 0.07897 0.0
H1563 H 0.0456 0.66108 0.0786 0.0
H1564 H 0.02864 0.74476 0.14125 0.0
H1565 H 0.94079 0.70616 0.09686 0.0
H1566 H 0.96645 0.6858 0.10764 0.0
H1567 H 0.96849 0.70166 0.07716 0.0
C1568 C 0.04271 0.67149 0.14287 0.0
C1569 C 0.05073 0.66066 0.11966 0.0
C1570 C 0.02471 0.69115 0.14314 0.0
C1571 C 0.01464 0.70065 0.12017 0.0
C1572 C 0.02164 0.68891 0.097 0.0
H1573 H 0.96423 0.85775 0.1003 0.0
H1574 H 0.98849 0.81783 0.10221 0.0
C1575 C 0.03937 0.66882 0.09677 0.0
C1576 C -0.00064 0.7246 0.12046 0.0
H1577 H 0.94355 0.7517 0.10036 0.0
C1578 C 0.00991 0.74617 0.1325 0.0
C1579 C 0.97489 0.72647 0.10919 0.0
C1580 C 0.96187 0.70372 0.09721 0.0
C1581 C 0.99683 0.76955 0.13343 0.0
C1582 C 0.97282 0.77172 0.12127 0.0
C1583 C 0.96208 0.7501 0.10948 0.0
C1584 C 0.95843 0.79619 0.12069 0.0
C1585 C 0.0087 0.79151 0.14789 0.0
C1586 C 0.93333 0.79724 0.13004 0.0
C1587 C 0.91932 0.81994 0.12865 0.0
C1588 C 0.93016 0.8421 0.11796 0.0
C1589 C 0.95545 0.84113 0.10897 0.0
C1590 C 0.96937 0.81832 0.11011 0.0
H1591 H 0.02266 0.78465 0.16234 0.0
H1592 H 0.0191 0.804 0.13427 0.0
H1593 H 0.99395 0.80316 0.15777 0.0
H1594 H 0.92449 0.78042 0.13827 0.0
H1595 H 0.89986 0.82003 0.13571 0.0
H1596 H 0.42718 0.68455 0.416 0.0
H1597 H 0.45889 0.71815 0.41227 0.0
H1598 H 0.4259 0.74194 0.34058 0.0
H1599 H 0.39415 0.7075 0.34387 0.0
H1600 H 0.47644 0.73436 0.33637 0.0
H1601 H 0.45912 0.79403 0.42155 0.0
H1602 H 0.46196 0.76108 0.43047 0.0
H1603 H 0.436 0.77111 0.41018 0.0
C1604 C 0.42622 0.69724 0.39966 0.0
C1605 C 0.40818 0.69327 0.38016 0.0
C1606 C 0.44432 0.71664 0.39767 0.0
C1607 C 0.44465 0.73282 0.37631 0.0
C1608 C 0.42589 0.72976 0.35732 0.0
H1609 H 0.56078 0.85253 0.37131 0.0
H1610 H 0.52041 0.82944 0.3728 0.0
C1611 C 0.40767 0.7102 0.35929 0.0
C1612 C 0.46633 0.75077 0.37279 0.0
H1613 H 0.50217 0.79506 0.40446 0.0
C1614 C 0.48183 0.74798 0.35104 0.0
C1615 C 0.47326 0.76875 0.39176 0.0
C1616 C 0.45651 0.7741 0.41464 0.0
C1617 C 0.50466 0.7618 0.34833 0.0
C1618 C 0.51258 0.7783 0.36827 0.0
C1619 C 0.49644 0.78201 0.38942 0.0
C1620 C 0.53739 0.79207 0.36753 0.0
C1621 C 0.51998 0.75858 0.32409 0.0
C1622 C 0.56054 0.77873 0.36462 0.0
C1623 C 0.58377 0.79194 0.36353 0.0
C1624 C 0.58429 0.81872 0.36581 0.0
C1625 C 0.56113 0.8319 0.36957 0.0
C1626 C 0.53797 0.81873 0.37036 0.0
H1627 H 0.50776 0.75211 0.30799 0.0
H1628 H 0.52948 0.77672 0.31849 0.0
H1629 H 0.5349 0.74382 0.32716 0.0
H1630 H 0.56066 0.75808 0.36317 0.0
H1631 H 0.60126 0.78122 0.36077 0.0
H1632 H 0.07609 0.69427 0.61334 0.0
H1633 H 0.03935 0.7224 0.61923 0.0
H1634 H 0.03725 0.70335 0.6994 0.0
H1635 H 0.07444 0.67533 0.69367 0.0
H1636 H 0.99282 0.69972 0.63681 0.0
H1637 H 0.02288 0.78172 0.69785 0.0
H1638 H 0.04559 0.76308 0.67965 0.0
H1639 H 0.03155 0.75001 0.70805 0.0
C1640 C 0.06844 0.69682 0.63242 0.0
C1641 C 0.07815 0.68264 0.65304 0.0
C1642 C 0.04733 0.71276 0.63573 0.0
C1643 C 0.03548 0.71482 0.6597 0.0
C1644 C 0.04628 0.70224 0.6808 0.0
H1645 H 0.8949 0.80413 0.68475 0.0
H1646 H 0.92729 0.77101 0.69243 0.0
C1647 C 0.06763 0.68636 0.67753 0.0
C1648 C 0.01029 0.72765 0.66151 0.0
H1649 H 0.98023 0.78116 0.68373 0.0
C1650 C 0.99 0.71743 0.64725 0.0
C1651 C 0.00652 0.75042 0.67555 0.0
C1652 C 0.02774 0.76216 0.69109 0.0
C1653 C 0.96643 0.73005 0.64559 0.0
C1654 C 0.96311 0.75359 0.6584 0.0
C1655 C 0.98286 0.76307 0.67392 0.0
C1656 C 0.94076 0.77023 0.65333 0.0
C1657 C 0.94545 0.71837 0.62967 0.0
C1658 C 0.9372 0.78021 0.6287 0.0
C1659 C 0.91885 0.79905 0.62429 0.0
C1660 C 0.90365 0.80829 0.64443 0.0
C1661 C 0.90609 0.79713 0.66878 0.0
C1662 C 0.92472 0.7784 0.67325 0.0
H1663 H 0.94791 0.69735 0.6278 0.0
H1664 H 0.92638 0.72234 0.6381 0.0
H1665 H 0.94601 0.72674 0.61019 0.0
H1666 H 0.94961 0.77449 0.61313 0.0
H1667 H 0.91752 0.80738 0.60538 0.0
H1668 H 0.05663 0.32541 0.42645 0.0
H1669 H 0.02595 0.29004 0.42927 0.0
H1670 H 0.02044 0.28827 0.34705 0.0
H1671 H 0.0514 0.32306 0.34409 0.0
H1672 H 0.97632 0.27926 0.41145 0.0
H1673 H 0.04904 0.21765 0.36532 0.0
H1674 H 0.05596 0.2497 0.376 0.0
H1675 H 0.04029 0.24452 0.34587 0.0
C1676 C 0.04825 0.31798 0.40904 0.0
C1677 C 0.05654 0.32679 0.38504 0.0
C1678 C 0.03087 0.29768 0.41066 0.0
C1679 C 0.0215 0.28611 0.38833 0.0
C1680 C 0.02795 0.29652 0.36448 0.0
H1681 H 0.9025 0.17259 0.37141 0.0
H1682 H 0.92882 0.21111 0.37124 0.0
C1683 C 0.04547 0.31652 0.36284 0.0
C1684 C 0.00666 0.26201 0.38968 0.0
H1685 H 0.00731 0.19983 0.36971 0.0
C1686 C 0.98309 0.26186 0.40243 0.0
C1687 C 0.01585 0.23915 0.3784 0.0
C1688 C 0.04179 0.23762 0.36587 0.0
C1689 C 0.96804 0.23963 0.40347 0.0
C1690 C 0.97662 0.21715 0.39099 0.0
C1691 C 0.00057 0.21714 0.37895 0.0
C1692 C 0.96107 0.19344 0.39013 0.0
C1693 C 0.94327 0.24037 0.41823 0.0
C1694 C 0.97092 0.17034 0.39963 0.0
C1695 C 0.95606 0.14811 0.39938 0.0
C1696 C 0.93105 0.1486 0.3896 0.0
C1697 C 0.92161 0.17157 0.37927 0.0
C1698 C 0.93653 0.19371 0.37939 0.0
H1699 H 0.9432 0.25597 0.43264 0.0
H1700 H 0.92727 0.24393 0.40479 0.0
H1701 H 0.93969 0.22194 0.42815 0.0
H1702 H 0.98993 0.16963 0.40776 0.0
H1703 H 0.9639 0.13076 0.40753 0.0
H1704 H 0.44577 0.64592 0.94095 0.0
H1705 H 0.47067 0.68254 0.95646 0.0
H1706 H 0.48363 0.70657 0.87867 0.0
H1707 H 0.45904 0.6702 0.86313 0.0
H1708 H 0.52643 0.71388 0.91369 0.0
H1709 H 0.43428 0.75345 0.95022 0.0
H1710 H 0.44389 0.72167 0.95909 0.0
H1711 H 0.4345 0.72813 0.92676 0.0
C1712 C 0.45478 0.65847 0.92717 0.0
C1713 C 0.45031 0.65537 0.90083 0.0
C1714 C 0.46872 0.67952 0.93607 0.0
C1715 C 0.47844 0.69751 0.9187 0.0
C1716 C 0.47611 0.69298 0.89239 0.0
H1717 H 0.52402 0.83849 0.87383 0.0
H1718 H 0.50467 0.79736 0.88443 0.0
C1719 C 0.46211 0.67215 0.88352 0.0
C1720 C 0.48855 0.7225 0.92722 0.0
H1721 H 0.46789 0.78228 0.94376 0.0
C1722 C 0.51388 0.72866 0.92107 0.0
C1723 C 0.47207 0.74177 0.93679 0.0
C1724 C 0.44463 0.73613 0.9436 0.0
C1725 C 0.52262 0.75393 0.92244 0.0
C1726 C 0.50548 0.77349 0.92983 0.0
C1727 C 0.48083 0.76714 0.93802 0.0
C1728 C 0.51175 0.80057 0.92501 0.0
C1729 C 0.54957 0.75978 0.91401 0.0
C1730 C 0.5206 0.81654 0.94462 0.0
C1731 C 0.53137 0.84034 0.93861 0.0
C1732 C 0.53349 0.84811 0.91295 0.0
C1733 C 0.52242 0.83301 0.89375 0.0
C1734 C 0.51158 0.80946 0.89975 0.0
H1735 H 0.56237 0.74308 0.91696 0.0
H1736 H 0.5495 0.7644 0.8933 0.0
H1737 H 0.55752 0.77645 0.92439 0.0
H1738 H 0.52085 0.80988 0.96422 0.0
H1739 H 0.54022 0.85139 0.9537 0.0
H1740 H 0.55485 0.94417 0.84567 0.0
H1741 H 0.54986 0.97731 0.81322 0.0
H1742 H 0.59192 0.9312 0.75934 0.0
H1743 H 0.59718 0.8979 0.79175 0.0
H1744 H 0.61244 0.98018 0.7683 0.0
H1745 H 0.50888 0.98556 0.74625 0.0
H1746 H 0.51636 0.9851 0.77977 0.0
H1747 H 0.52353 0.95764 0.76039 0.0
C1748 C 0.5625 0.94075 0.82673 0.0
C1749 C 0.5766 0.91847 0.82136 0.0
C1750 C 0.55949 0.95968 0.80816 0.0
C1751 C 0.5704 0.95663 0.78387 0.0
C1752 C 0.58325 0.93382 0.77797 0.0
H1753 H 0.57466 0.06217 0.6562 0.0
H1754 H 0.56621 0.02576 0.68427 0.0
C1755 C 0.58619 0.9148 0.79651 0.0
C1756 C 0.57141 0.97851 0.766 0.0
H1757 H 0.53459 0.02067 0.7324 0.0
C1758 C 0.59544 0.9889 0.76028 0.0
C1759 C 0.54918 0.98982 0.75564 0.0
C1760 C 0.52301 0.97887 0.7606 0.0
C1761 C 0.59783 0.01063 0.74482 0.0
C1762 C 0.57558 0.0224 0.73506 0.0
C1763 C 0.55155 0.01173 0.74025 0.0
C1764 C 0.57728 0.04544 0.71885 0.0
C1765 C 0.62415 0.02085 0.73896 0.0
C1766 C 0.58552 0.06875 0.72922 0.0
C1767 C 0.59034 0.08964 0.71328 0.0
C1768 C 0.58708 0.08746 0.68669 0.0
C1769 C 0.57753 0.06443 0.67658 0.0
C1770 C 0.57261 0.04362 0.69256 0.0
H1771 H 0.63939 0.00693 0.74399 0.0
H1772 H 0.62589 0.0257 0.71836 0.0
H1773 H 0.6274 0.03859 0.75013 0.0
H1774 H 0.58905 0.07048 0.74955 0.0
H1775 H 0.59761 0.10711 0.72168 0.0
H1776 H 0.14599 0.42039 0.96318 0.0
H1777 H 0.1863 0.42345 0.98697 0.0
H1778 H 0.21472 0.35686 0.94745 0.0
H1779 H 0.17495 0.35393 0.92345 0.0
H1780 H 0.21242 0.39059 0.01866 0.0
H1781 H 0.26932 0.4101 0.93176 0.0
H1782 H 0.23488 0.41185 0.93221 0.0
H1783 H 0.25072 0.38149 0.92852 0.0
C1784 C 0.16068 0.40615 0.95994 0.0
C1785 C 0.15743 0.38705 0.94132 0.0
C1786 C 0.18374 0.40805 0.97337 0.0
C1787 C 0.20376 0.39087 0.96832 0.0
C1788 C 0.19983 0.37082 0.951 0.0
H1789 H 0.3297 0.34258 0.05645 0.0
H1790 H 0.29157 0.34845 0.03031 0.0
C1791 C 0.17698 0.36901 0.93751 0.0
C1792 C 0.22886 0.3936 0.98103 0.0
H1793 H 0.29292 0.39556 0.96861 0.0
C1794 C 0.22999 0.39204 0.00775 0.0
C1795 C 0.25176 0.39623 0.96682 0.0
C1796 C 0.25164 0.40031 0.93826 0.0
C1797 C 0.25352 0.39131 0.02051 0.0
C1798 C 0.27641 0.39148 0.00608 0.0
C1799 C 0.27531 0.3948 0.97953 0.0
C1800 C 0.30143 0.38677 0.0183 0.0
C1801 C 0.25367 0.38997 0.04934 0.0
C1802 C 0.32042 0.4057 0.01863 0.0
C1803 C 0.34253 0.40222 0.0333 0.0
C1804 C 0.34574 0.3798 0.04778 0.0
C1805 C 0.32763 0.36011 0.04561 0.0
C1806 C 0.30575 0.36353 0.03089 0.0
H1807 H 0.23573 0.3978 0.0576 0.0
H1808 H 0.25534 0.3697 0.05537 0.0
H1809 H 0.27009 0.40069 0.05742 0.0
H1810 H 0.31749 0.42367 0.00876 0.0
H1811 H 0.35608 0.41779 0.03481 0.0
H1812 H 0.815 0.07694 0.32526 0.0
H1813 H 0.80898 0.04358 0.2928 0.0
H1814 H 0.8905 0.03257 0.28878 0.0
H1815 H 0.89664 0.06539 0.3214 0.0
H1816 H 0.82859 0.03389 0.24228 0.0
H1817 H 0.86327 0.9628 0.31291 0.0
H1818 H 0.85383 0.99484 0.3218 0.0
H1819 H 0.88475 0.98902 0.30799 0.0
C1820 C 0.83166 0.06793 0.31688 0.0
C1821 C 0.85629 0.07356 0.32603 0.0
C1822 C 0.82817 0.04876 0.29851 0.0
C1823 C 0.84926 0.03512 0.28905 0.0
C1824 C 0.87395 0.04241 0.29641 0.0
H1825 H 0.89506 0.92247 0.18573 0.0
H1826 H 0.88835 0.95161 0.22152 0.0
C1827 C 0.87743 0.06132 0.31486 0.0
C1828 C 0.8457 0.01225 0.27275 0.0
H1829 H 0.86038 0.94869 0.26952 0.0
C1830 C 0.83511 0.01516 0.24832 0.0
C1831 C 0.854 0.98779 0.28088 0.0
C1832 C 0.86436 0.98329 0.30742 0.0
C1833 C 0.83417 0.99452 0.23114 0.0
C1834 C 0.84368 0.97038 0.23885 0.0
C1835 C 0.85309 0.96722 0.26372 0.0
C1836 C 0.84712 0.9493 0.2203 0.0
C1837 C 0.8244 -0.00102 0.20437 0.0
C1838 C 0.82615 0.93736 0.20863 0.0
C1839 C 0.82994 0.92048 0.18818 0.0
C1840 C 0.85476 0.91552 0.17912 0.0
C1841 C 0.87572 0.92603 0.19219 0.0
C1842 C 0.87192 0.9427 0.21264 0.0
H1843 H 0.82077 0.01951 0.20052 0.0
H1844 H 0.83834 0.99175 0.19007 0.0
H1845 H 0.80624 0.98841 0.20166 0.0
H1846 H 0.80687 0.942 0.21456 0.0
H1847 H 0.81343 0.91273 0.17844 0.0
H1848 H 0.18596 0.63934 0.61056 0.0
H1849 H 0.22639 0.64153 0.58737 0.0
H1850 H 0.18699 0.62649 0.51662 0.0
H1851 H 0.14639 0.62388 0.53972 0.0
H1852 H 0.22893 0.59475 0.52469 0.0
H1853 H 0.25514 0.6965 0.53983 0.0
H1854 H 0.24778 0.67913 0.56852 0.0
H1855 H 0.22322 0.68459 0.54519 0.0
C1856 C 0.18577 0.63691 0.59 0.0
C1857 C 0.16287 0.63146 0.577 0.0
C1858 C 0.20894 0.63825 0.57677 0.0
C1859 C 0.2097 0.63438 0.55025 0.0
C1860 C 0.18682 0.62959 0.5371 0.0
H1861 H 0.32306 0.65868 0.43636 0.0
H1862 H 0.28866 0.66116 0.46761 0.0
C1863 C 0.16361 0.62822 0.55032 0.0
C1864 C 0.23447 0.63379 0.53641 0.0
H1865 H 0.28631 0.67005 0.52032 0.0
C1866 C 0.24153 0.61118 0.52378 0.0
C1867 C 0.25084 0.65527 0.53526 0.0
C1868 C 0.24385 0.68034 0.54772 0.0
C1869 C 0.26434 0.60953 0.50974 0.0
C1870 C 0.28077 0.63098 0.50865 0.0
C1871 C 0.27386 0.65352 0.52151 0.0
C1872 C 0.30366 0.63126 0.49188 0.0
C1873 C 0.27017 0.58519 0.49536 0.0
C1874 C 0.32412 0.61423 0.49564 0.0
C1875 C 0.34401 0.61275 0.47769 0.0
C1876 C 0.34361 0.62825 0.45573 0.0
C1877 C 0.32384 0.64628 0.45293 0.0
C1878 C 0.30415 0.64779 0.47083 0.0
H1879 H 0.25335 0.57229 0.49435 0.0
H1880 H 0.2766 0.5895 0.47559 0.0
H1881 H 0.28581 0.5748 0.50521 0.0
H1882 H 0.32431 0.60158 0.51203 0.0
H1883 H 0.35897 0.5987 0.48039 0.0
H1884 H 0.70235 0.6401 0.08947 0.0
H1885 H 0.73149 0.63889 0.05293 0.0
H1886 H 0.70123 0.56533 0.03109 0.0
H1887 H 0.6709 0.56732 0.06669 0.0
H1888 H 0.76831 0.61119 0.03592 0.0
H1889 H 0.68881 0.60283 0.96674 0.0
H1890 H 0.68342 0.60815 0.00031 0.0
H1891 H 0.6897 0.57638 0.98847 0.0
C1892 C 0.70218 0.62351 0.07707 0.0
C1893 C 0.68422 0.60391 0.08073 0.0
C1894 C 0.71879 0.62285 0.05611 0.0
C1895 C 0.71804 0.6024 0.03869 0.0
C1896 C 0.7015 0.58182 0.0436 0.0
H1897 H 0.8366 0.59168 0.91986 0.0
H1898 H 0.81036 0.58391 0.95783 0.0
C1899 C 0.6844 0.5828 0.06413 0.0
C1900 C 0.73384 0.60321 0.01499 0.0
H1901 H 0.73059 0.59888 0.9499 0.0
C1902 C 0.76005 0.60855 0.0171 0.0
C1903 C 0.72302 0.60028 0.99032 0.0
C1904 C 0.69467 0.59688 0.98627 0.0
C1905 C 0.77564 0.61123 0.99538 0.0
C1906 C 0.76502 0.60723 0.97077 0.0
C1907 C 0.73887 0.60166 0.9687 0.0
C1908 C 0.78024 0.61012 0.94684 0.0
C1909 C 0.80302 0.61944 -0.00086 0.0
C1910 C 0.77137 0.6261 0.92712 0.0
C1911 C 0.78588 0.62976 0.90498 0.0
C1912 C 0.80978 0.61787 0.90227 0.0
C1913 C 0.81835 0.60131 0.9216 0.0
C1914 C 0.8035 0.5971 0.94345 0.0
H1915 H 0.8057 0.62932 0.01776 0.0
H1916 H 0.81552 0.6023 -0.00088 0.0
H1917 H 0.80939 0.6325 0.98368 0.0
H1918 H 0.75345 0.63628 0.92911 0.0
H1919 H 0.77886 0.64274 0.89045 0.0
H1920 H 0.56326 0.46103 0.3564 0.0
H1921 H 0.55691 0.48487 0.31633 0.0
H1922 H 0.62793 0.45493 0.28721 0.0
H1923 H 0.63461 0.43152 0.32687 0.0
H1924 H 0.59383 0.52086 0.28802 0.0
H1925 H 0.56742 0.43225 0.23629 0.0
H1926 H 0.56549 0.43525 0.27066 0.0
H1927 H 0.5957 0.42913 0.25553 0.0
C1928 C 0.57782 0.46011 0.34171 0.0
C1929 C 0.59935 0.44427 0.34472 0.0
C1930 C 0.57404 0.4735 0.3188 0.0
C1931 C 0.59167 0.47103 0.29873 0.0
C1932 C 0.6139 0.45661 0.30236 0.0
H1933 H 0.64394 0.54558 0.16837 0.0
H1934 H 0.63539 0.52127 0.20726 0.0
C1935 C 0.61774 0.4434 0.32513 0.0
C1936 C 0.58717 0.48294 0.27357 0.0
H1937 H 0.58197 0.46751 0.21035 0.0
C1938 C 0.59069 0.50935 0.27106 0.0
C1939 C 0.58264 0.46784 0.2516 0.0
C1940 C 0.57734 0.43956 0.25358 0.0
C1941 C 0.59178 0.52079 0.24684 0.0
C1942 C 0.58962 0.50529 0.22476 0.0
C1943 C 0.58406 0.47922 0.22734 0.0
C1944 C 0.5953 0.51567 0.19911 0.0
C1945 C 0.59613 0.54925 0.245 0.0
C1946 C 0.57595 0.51885 0.18086 0.0
C1947 C 0.58088 0.53248 0.15833 0.0
C1948 C 0.60519 0.54309 0.15399 0.0
C1949 C 0.62501 0.53773 0.17127 0.0
C1950 C 0.6201 0.52407 0.19359 0.0
H1951 H 0.5915 0.55909 0.26325 0.0
H1952 H 0.61653 0.55294 0.24057 0.0
H1953 H 0.58442 0.55769 0.22945 0.0
H1954 H 0.55674 0.51221 0.18475 0.0
H1955 H 0.56519 0.5365 0.14546 0.0
H1956 H 0.83411 0.41264 0.5754 0.0
H1957 H 0.806 0.42156 0.53919 0.0
H1958 H 0.74955 0.37029 0.57064 0.0
H1959 H 0.77705 0.36239 0.6075 0.0
H1960 H 0.79112 0.391 0.50397 0.0
H1961 H 0.70433 0.42766 0.55126 0.0
H1962 H 0.73405 0.42375 0.56821 0.0
H1963 H 0.71264 0.39705 0.56414 0.0
C1964 C 0.81547 0.40368 0.5748 0.0
C1965 C 0.80767 0.38692 0.5943 0.0
C1966 C 0.79944 0.40875 0.55409 0.0
C1967 C 0.77546 0.3969 0.55228 0.0
C1968 C 0.76757 0.38033 0.57192 0.0
H1969 H 0.69449 0.35465 0.41697 0.0
H1970 H 0.72601 0.36071 0.45074 0.0
C1971 C 0.78338 0.37568 0.59293 0.0
C1972 C 0.75963 0.40021 0.52897 0.0
H1973 H 0.69858 0.41045 0.5088 0.0
C1974 C 0.77096 0.39568 0.50501 0.0
C1975 C 0.73345 0.40687 0.53013 0.0
C1976 C 0.72053 0.41439 0.55482 0.0
C1977 C 0.75662 0.39649 0.48238 0.0
C1978 C 0.73 0.40097 0.48381 0.0
C1979 C 0.71891 0.40664 0.50764 0.0
C1980 C 0.71297 0.39864 0.46124 0.0
C1981 C 0.77027 0.39266 0.45725 0.0
C1982 C 0.69492 0.41779 0.45591 0.0
C1983 C 0.67644 0.41404 0.43705 0.0
C1984 C 0.67589 0.3912 0.42291 0.0
C1985 C 0.69472 0.3726 0.42731 0.0
C1986 C 0.71286 0.37612 0.44656 0.0
H1987 H 0.7904 0.39926 0.45841 0.0
H1988 H 0.77063 0.37196 0.45258 0.0
H1989 H 0.76066 0.40306 0.44145 0.0
H1990 H 0.69458 0.43531 0.46696 0.0
H1991 H 0.66214 0.4287 0.43403 0.0
H1992 H 0.85576 0.55584 0.82449 0.0
H1993 H 0.86507 0.5273 0.78874 0.0
H1994 H 0.9442 0.54993 0.79082 0.0
H1995 H 0.93504 0.57842 0.82699 0.0
H1996 H 0.88623 0.55219 0.74265 0.0
H1997 H 0.94461 0.47011 0.77767 0.0
H1998 H 0.92332 0.48736 0.79869 0.0
H1999 H 0.95237 0.50202 0.78807 0.0
C2000 C 0.87534 0.55395 0.81803 0.0
C2001 C 0.89467 0.56932 0.82848 0.0
C2002 C 0.8806 0.5378 0.7975 0.0
C2003 C 0.90524 0.53674 0.78706 0.0
C2004 C 0.9251 0.55038 0.79878 0.0
H2005 H 0.93283 0.43725 0.65455 0.0
H2006 H 0.94206 0.47259 0.68407 0.0
C2007 C 0.91987 0.56648 0.81955 0.0
C2008 C 0.90896 0.52392 0.76215 0.0
H2009 H 0.93143 0.46931 0.73471 0.0
C2010 C 0.89637 0.53418 0.7408 0.0
C2011 C 0.9227 0.50084 0.75972 0.0
C2012 C 0.93653 0.48923 0.78217 0.0
C2013 C 0.8957 0.52105 0.71747 0.0
C2014 C 0.90779 0.49695 0.71554 0.0
C2015 C 0.92208 0.4877 0.73631 0.0
C2016 C 0.90248 0.47928 0.69403 0.0
C2017 C 0.88142 0.5328 0.69535 0.0
C2018 C 0.87719 0.47177 0.6894 0.0
C2019 C 0.87192 0.4518 0.67262 0.0
C2020 C 0.89183 0.43871 0.66024 0.0
C2021 C 0.91708 0.44719 0.66361 0.0
C2022 C 0.92239 0.46724 0.68058 0.0
H2023 H 0.88167 0.55401 0.69647 0.0
H2024 H 0.88965 0.52679 0.67672 0.0
H2025 H 0.86115 0.52665 0.6961 0.0
H2026 H 0.86155 0.48025 0.7 0.0
H2027 H 0.85227 0.44566 0.67047 0.0
H2028 H 0.53274 0.16464 0.63414 0.0
H2029 H 0.50505 0.20002 0.62191 0.0
H2030 H 0.53054 0.19329 0.54377 0.0
H2031 H 0.55859 0.15769 0.55604 0.0
H2032 H 0.53841 0.24217 0.56709 0.0
H2033 H 0.43853 0.20972 0.5832 0.0
H2034 H 0.46109 0.20014 0.60705 0.0
H2035 H 0.46409 0.18784 0.5751 0.0
C2036 C 0.53167 0.16999 0.61415 0.0
C2037 C 0.54767 0.15834 0.59601 0.0
C2038 C 0.51579 0.1902 0.60716 0.0
C2039 C 0.51554 0.19912 0.58189 0.0
C2040 C 0.53028 0.18648 0.56333 0.0
H2041 H 0.42616 0.33834 0.55182 0.0
H2042 H 0.45291 0.30133 0.54086 0.0
C2043 C 0.54608 0.166 0.5703 0.0
C2044 C 0.50274 0.22369 0.5761 0.0
H2045 H 0.44583 0.25477 0.58291 0.0
C2046 C 0.51806 0.24486 0.56987 0.0
C2047 C 0.47625 0.22714 0.58004 0.0
C2048 C 0.45894 0.205 0.58652 0.0
C2049 C 0.50779 0.26967 0.56913 0.0
C2050 C 0.48156 0.27317 0.57416 0.0
C2051 C 0.46596 0.25188 0.57886 0.0
C2052 C 0.47045 0.29879 0.57816 0.0
C2053 C 0.52503 0.29218 0.56404 0.0
C2054 C 0.47232 0.31004 0.6024 0.0
C2055 C 0.457 0.33093 0.60875 0.0
C2056 C 0.43975 0.34102 0.59085 0.0
C2057 C 0.43965 0.33123 0.5658 0.0
C2058 C 0.45473 0.30999 0.55958 0.0
H2059 H 0.54519 0.28634 0.56115 0.0
H2060 H 0.51827 0.30255 0.5468 0.0
H2061 H 0.52422 0.30573 0.58036 0.0
H2062 H 0.48423 0.30147 0.61701 0.0
H2063 H 0.45722 0.33796 0.62823 0.0
loop_
_geom_bond_atom_site_label_1
_geom_bond_atom_site_label_2
_geom_bond_distance
_geom_bond_site_symmetry_2
_ccdc_geom_bond_type
C0 O2 1.247 . S
C0 O4 1.258 . S
C1 O8 1.247 . S
C1 O9 1.258 . S
O2 C0 1.247 . S
O2 Zn3 2.028 . S
Zn3 O2 2.028 . S
Zn3 O7 2.035 . S
Zn3 O9 2.035 . S
Zn3 O10 2.028 . S
O4 C0 1.258 . S
O4 Zn5 2.035 . S
Zn5 O4 2.035 . S
Zn5 O6 2.028 . S
Zn5 O8 2.028 . S
Zn5 O11 2.035 . S
O6 Zn5 2.028 . S
O6 C12 1.247 . S
O7 Zn3 2.035 . S
O7 C12 1.258 . S
O8 C1 1.247 . S
O8 Zn5 2.028 . S
O9 C1 1.258 . S
O9 Zn3 2.035 . S
O10 Zn3 2.028 . S
O10 C13 1.247 . S
O11 Zn5 2.035 . S
O11 C13 1.258 . S
C12 O6 1.247 . S
C12 O7 1.258 . S
C13 O10 1.247 . S
C13 O11 1.258 . S
C14 O16 1.247 . S
C14 O18 1.258 . S
C15 O22 1.247 . S
C15 O23 1.258 . S
O16 C14 1.247 . S
O16 Zn17 2.028 . S
Zn17 O16 2.028 . S
Zn17 O21 2.035 . S
Zn17 O23 2.035 . S
Zn17 O24 2.028 . S
O18 C14 1.258 . S
O18 Zn19 2.035 . S
Zn19 O18 2.035 . S
Zn19 O20 2.028 . S
Zn19 O22 2.028 . S
Zn19 O25 2.035 . S
O20 Zn19 2.028 . S
O20 C26 1.247 . S
O21 Zn17 2.035 . S
O21 C26 1.258 . S
O22 C15 1.247 . S
O22 Zn19 2.028 . S
O23 C15 1.258 . S
O23 Zn17 2.035 . S
O24 Zn17 2.028 . S
O24 C27 1.247 . S
O25 Zn19 2.035 . S
O25 C27 1.258 . S
C26 O20 1.247 . S
C26 O21 1.258 . S
C27 O24 1.247 . S
C27 O25 1.258 . S
C28 O30 1.247 . S
C28 O32 1.258 . S
C29 O36 1.247 . S
C29 O37 1.258 . S
O30 C28 1.247 . S
O30 Zn31 2.028 . S
Zn31 O30 2.028 . S
Zn31 O35 2.035 . S
Zn31 O37 2.035 . S
Zn31 O38 2.028 . S
O32 C28 1.258 . S
O32 Zn33 2.035 . S
Zn33 O32 2.035 . S
Zn33 O34 2.028 . S
Zn33 O36 2.028 . S
Zn33 O39 2.035 . S
O34 Zn33 2.028 . S
O34 C40 1.247 . S
O35 Zn31 2.035 . S
O35 C40 1.258 . S
O36 C29 1.247 . S
O36 Zn33 2.028 . S
O37 C29 1.258 . S
O37 Zn31 2.035 . S
O38 Zn31 2.028 . S
O38 C41 1.247 . S
O39 Zn33 2.035 . S
O39 C41 1.258 . S
C40 O34 1.247 . S
C40 O35 1.258 . S
C41 O38 1.247 . S
C41 O39 1.258 . S
C42 O44 1.247 . S
C42 O46 1.258 . S
C43 O50 1.247 . S
C43 O51 1.258 . S
O44 C42 1.247 . S
O44 Zn45 2.028 . S
Zn45 O44 2.028 . S
Zn45 O49 2.035 . S
Zn45 O51 2.035 . S
Zn45 O52 2.028 . S
O46 C42 1.258 . S
O46 Zn47 2.035 . S
Zn47 O46 2.035 . S
Zn47 O48 2.028 . S
Zn47 O50 2.028 . S
Zn47 O53 2.035 . S
O48 Zn47 2.028 . S
O48 C54 1.247 . S
O49 Zn45 2.035 . S
O49 C54 1.258 . S
O50 C43 1.247 . S
O50 Zn47 2.028 . S
O51 C43 1.258 . S
O51 Zn45 2.035 . S
O52 Zn45 2.028 . S
O52 C55 1.247 . S
O53 Zn47 2.035 . S
O53 C55 1.258 . S
C54 O48 1.247 . S
C54 O49 1.258 . S
C55 O52 1.247 . S
C55 O53 1.258 . S
C56 O58 1.247 . S
C56 O60 1.258 . S
C57 O64 1.247 . S
C57 O65 1.258 . S
O58 C56 1.247 . S
O58 Zn59 2.028 . S
Zn59 O58 2.028 . S
Zn59 O63 2.035 . S
Zn59 O65 2.035 . S
Zn59 O66 2.028 . S
O60 C56 1.258 . S
O60 Zn61 2.035 . S
Zn61 O60 2.035 . S
Zn61 O62 2.028 . S
Zn61 O64 2.028 . S
Zn61 O67 2.035 . S
O62 Zn61 2.028 . S
O62 C68 1.247 . S
O63 Zn59 2.035 . S
O63 C68 1.258 . S
O64 C57 1.247 . S
O64 Zn61 2.028 . S
O65 C57 1.258 . S
O65 Zn59 2.035 . S
O66 Zn59 2.028 . S
O66 C69 1.247 . S
O67 Zn61 2.035 . S
O67 C69 1.258 . S
C68 O62 1.247 . S
C68 O63 1.258 . S
C69 O66 1.247 . S
C69 O67 1.258 . S
C70 O72 1.247 . S
C70 O74 1.258 . S
C71 O78 1.247 . S
C71 O79 1.258 . S
O72 C70 1.247 . S
O72 Zn73 2.028 . S
Zn73 O72 2.028 . S
Zn73 O77 2.035 . S
Zn73 O79 2.035 . S
Zn73 O80 2.028 . S
O74 C70 1.258 . S
O74 Zn75 2.035 . S
Zn75 O74 2.035 . S
Zn75 O76 2.028 . S
Zn75 O78 2.028 . S
Zn75 O81 2.035 . S
O76 Zn75 2.028 . S
O76 C82 1.247 . S
O77 Zn73 2.035 . S
O77 C82 1.258 . S
O78 C71 1.247 . S
O78 Zn75 2.028 . S
O79 C71 1.258 . S
O79 Zn73 2.035 . S
O80 Zn73 2.028 . S
O80 C83 1.247 . S
O81 Zn75 2.035 . S
O81 C83 1.258 . S
C82 O76 1.247 . S
C82 O77 1.258 . S
C83 O80 1.247 . S
C83 O81 1.258 . S
C84 O86 1.247 . S
C84 O88 1.258 . S
C85 O92 1.247 . S
C85 O93 1.258 . S
O86 C84 1.247 . S
O86 Zn87 2.028 . S
Zn87 O86 2.028 . S
Zn87 O91 2.035 . S
Zn87 O93 2.035 . S
Zn87 O94 2.028 . S
O88 C84 1.258 . S
O88 Zn89 2.035 . S
Zn89 O88 2.035 . S
Zn89 O90 2.028 . S
Zn89 O92 2.028 . S
Zn89 O95 2.035 . S
O90 Zn89 2.028 . S
O90 C96 1.247 . S
O91 Zn87 2.035 . S
O91 C96 1.258 . S
O92 C85 1.247 . S
O92 Zn89 2.028 . S
O93 C85 1.258 . S
O93 Zn87 2.035 . S
O94 Zn87 2.028 . S
O94 C97 1.247 . S
O95 Zn89 2.035 . S
O95 C97 1.258 . S
C96 O90 1.247 . S
C96 O91 1.258 . S
C97 O94 1.247 . S
C97 O95 1.258 . S
C98 O100 1.247 . S
C98 O102 1.258 . S
C99 O106 1.247 . S
C99 O107 1.258 . S
O100 C98 1.247 . S
O100 Zn101 2.028 . S
Zn101 O100 2.028 . S
Zn101 O105 2.035 . S
Zn101 O107 2.035 . S
Zn101 O108 2.028 . S
O102 C98 1.258 . S
O102 Zn103 2.035 . S
Zn103 O102 2.035 . S
Zn103 O104 2.028 . S
Zn103 O106 2.028 . S
Zn103 O109 2.035 . S
O104 Zn103 2.028 . S
O104 C110 1.247 . S
O105 Zn101 2.035 . S
O105 C110 1.258 . S
O106 C99 1.247 . S
O106 Zn103 2.028 . S
O107 C99 1.258 . S
O107 Zn101 2.035 . S
O108 Zn101 2.028 . S
O108 C111 1.247 . S
O109 Zn103 2.035 . S
O109 C111 1.258 . S
C110 O104 1.247 . S
C110 O105 1.258 . S
C111 O108 1.247 . S
C111 O109 1.258 . S
C112 O114 1.247 . S
C112 O116 1.258 . S
C113 O120 1.247 . S
C113 O121 1.258 . S
O114 C112 1.247 . S
O114 Zn115 2.028 . S
Zn115 O114 2.028 . S
Zn115 O119 2.035 . S
Zn115 O121 2.035 . S
Zn115 O122 2.028 . S
O116 C112 1.258 . S
O116 Zn117 2.035 . S
Zn117 O116 2.035 . S
Zn117 O118 2.028 . S
Zn117 O120 2.028 . S
Zn117 O123 2.035 . S
O118 Zn117 2.028 . S
O118 C124 1.247 . S
O119 Zn115 2.035 . S
O119 C124 1.258 . S
O120 C113 1.247 . S
O120 Zn117 2.028 . S
O121 C113 1.258 . S
O121 Zn115 2.035 . S
O122 Zn115 2.028 . S
O122 C125 1.247 . S
O123 Zn117 2.035 . S
O123 C125 1.258 . S
C124 O118 1.247 . S
C124 O119 1.258 . S
C125 O122 1.247 . S
C125 O123 1.258 . S
C126 O128 1.247 . S
C126 O130 1.258 . S
C127 O134 1.247 . S
C127 O135 1.258 . S
O128 C126 1.247 . S
O128 Zn129 2.028 . S
Zn129 O128 2.028 . S
Zn129 O133 2.035 . S
Zn129 O135 2.035 . S
Zn129 O136 2.028 . S
O130 C126 1.258 . S
O130 Zn131 2.035 . S
Zn131 O130 2.035 . S
Zn131 O132 2.028 . S
Zn131 O134 2.028 . S
Zn131 O137 2.035 . S
O132 Zn131 2.028 . S
O132 C138 1.247 . S
O133 Zn129 2.035 . S
O133 C138 1.258 . S
O134 C127 1.247 . S
O134 Zn131 2.028 . S
O135 C127 1.258 . S
O135 Zn129 2.035 . S
O136 Zn129 2.028 . S
O136 C139 1.247 . S
O137 Zn131 2.035 . S
O137 C139 1.258 . S
C138 O132 1.247 . S
C138 O133 1.258 . S
C139 O136 1.247 . S
C139 O137 1.258 . S
C140 O142 1.247 . S
C140 O144 1.258 . S
C141 O148 1.247 . S
C141 O149 1.258 . S
O142 C140 1.247 . S
O142 Zn143 2.028 . S
Zn143 O142 2.028 . S
Zn143 O147 2.035 . S
Zn143 O149 2.035 . S
Zn143 O150 2.028 . S
O144 C140 1.258 . S
O144 Zn145 2.035 . S
Zn145 O144 2.035 . S
Zn145 O146 2.028 . S
Zn145 O148 2.028 . S
Zn145 O151 2.035 . S
O146 Zn145 2.028 . S
O146 C152 1.247 . S
O147 Zn143 2.035 . S
O147 C152 1.258 . S
O148 C141 1.247 . S
O148 Zn145 2.028 . S
O149 C141 1.258 . S
O149 Zn143 2.035 . S
O150 Zn143 2.028 . S
O150 C153 1.247 . S
O151 Zn145 2.035 . S
O151 C153 1.258 . S
C152 O146 1.247 . S
C152 O147 1.258 . S
C153 O150 1.247 . S
C153 O151 1.258 . S
C154 O156 1.247 . S
C154 O158 1.258 . S
C155 O162 1.247 . S
C155 O163 1.258 . S
O156 C154 1.247 . S
O156 Zn157 2.028 . S
Zn157 O156 2.028 . S
Zn157 O161 2.035 . S
Zn157 O163 2.035 . S
Zn157 O164 2.028 . S
O158 C154 1.258 . S
O158 Zn159 2.035 . S
Zn159 O158 2.035 . S
Zn159 O160 2.028 . S
Zn159 O162 2.028 . S
Zn159 O165 2.035 . S
O160 Zn159 2.028 . S
O160 C166 1.247 . S
O161 Zn157 2.035 . S
O161 C166 1.258 . S
O162 C155 1.247 . S
O162 Zn159 2.028 . S
O163 C155 1.258 . S
O163 Zn157 2.035 . S
O164 Zn157 2.028 . S
O164 C167 1.247 . S
O165 Zn159 2.035 . S
O165 C167 1.258 . S
C166 O160 1.247 . S
C166 O161 1.258 . S
C167 O164 1.247 . S
C167 O165 1.258 . S
C168 O170 1.247 . S
C168 O172 1.258 . S
C169 O176 1.247 . S
C169 O177 1.258 . S
O170 C168 1.247 . S
O170 Zn171 2.028 . S
Zn171 O170 2.028 . S
Zn171 O175 2.035 . S
Zn171 O177 2.035 . S
Zn171 O178 2.028 . S
O172 C168 1.258 . S
O172 Zn173 2.035 . S
Zn173 O172 2.035 . S
Zn173 O174 2.028 . S
Zn173 O176 2.028 . S
Zn173 O179 2.035 . S
O174 Zn173 2.028 . S
O174 C180 1.247 . S
O175 Zn171 2.035 . S
O175 C180 1.258 . S
O176 C169 1.247 . S
O176 Zn173 2.028 . S
O177 C169 1.258 . S
O177 Zn171 2.035 . S
O178 Zn171 2.028 . S
O178 C181 1.247 . S
O179 Zn173 2.035 . S
O179 C181 1.258 . S
C180 O174 1.247 . S
C180 O175 1.258 . S
C181 O178 1.247 . S
C181 O179 1.258 . S
C182 O184 1.247 . S
C182 O186 1.258 . S
C183 O190 1.247 . S
C183 O191 1.258 . S
O184 C182 1.247 . S
O184 Zn185 2.028 . S
Zn185 O184 2.028 . S
Zn185 O189 2.035 . S
Zn185 O191 2.035 . S
Zn185 O192 2.028 . S
O186 C182 1.258 . S
O186 Zn187 2.035 . S
Zn187 O186 2.035 . S
Zn187 O188 2.028 . S
Zn187 O190 2.028 . S
Zn187 O193 2.035 . S
O188 Zn187 2.028 . S
O188 C194 1.247 . S
O189 Zn185 2.035 . S
O189 C194 1.258 . S
O190 C183 1.247 . S
O190 Zn187 2.028 . S
O191 C183 1.258 . S
O191 Zn185 2.035 . S
O192 Zn185 2.028 . S
O192 C195 1.247 . S
O193 Zn187 2.035 . S
O193 C195 1.258 . S
C194 O188 1.247 . S
C194 O189 1.258 . S
C195 O192 1.247 . S
C195 O193 1.258 . S
C196 O198 1.247 . S
C196 O200 1.258 . S
C197 O204 1.247 . S
C197 O205 1.258 . S
O198 C196 1.247 . S
O198 Zn199 2.028 . S
Zn199 O198 2.028 . S
Zn199 O203 2.035 . S
Zn199 O205 2.035 . S
Zn199 O206 2.028 . S
O200 C196 1.258 . S
O200 Zn201 2.035 . S
Zn201 O200 2.035 . S
Zn201 O202 2.028 . S
Zn201 O204 2.028 . S
Zn201 O207 2.035 . S
O202 Zn201 2.028 . S
O202 C208 1.247 . S
O203 Zn199 2.035 . S
O203 C208 1.258 . S
O204 C197 1.247 . S
O204 Zn201 2.028 . S
O205 C197 1.258 . S
O205 Zn199 2.035 . S
O206 Zn199 2.028 . S
O206 C209 1.247 . S
O207 Zn201 2.035 . S
O207 C209 1.258 . S
C208 O202 1.247 . S
C208 O203 1.258 . S
C209 O206 1.247 . S
C209 O207 1.258 . S
C210 O212 1.247 . S
C210 O214 1.258 . S
C211 O218 1.247 . S
C211 O219 1.258 . S
O212 C210 1.247 . S
O212 Zn213 2.028 . S
Zn213 O212 2.028 . S
Zn213 O217 2.035 . S
Zn213 O219 2.035 . S
Zn213 O220 2.028 . S
O214 C210 1.258 . S
O214 Zn215 2.035 . S
Zn215 O214 2.035 . S
Zn215 O216 2.028 . S
Zn215 O218 2.028 . S
Zn215 O221 2.035 . S
O216 Zn215 2.028 . S
O216 C222 1.247 . S
O217 Zn213 2.035 . S
O217 C222 1.258 . S
O218 C211 1.247 . S
O218 Zn215 2.028 . S
O219 C211 1.258 . S
O219 Zn213 2.035 . S
O220 Zn213 2.028 . S
O220 C223 1.247 . S
O221 Zn215 2.035 . S
O221 C223 1.258 . S
C222 O216 1.247 . S
C222 O217 1.258 . S
C223 O220 1.247 . S
C223 O221 1.258 . S
C224 O226 1.247 . S
C224 O228 1.258 . S
C225 O232 1.247 . S
C225 O233 1.258 . S
O226 C224 1.247 . S
O226 Zn227 2.028 . S
Zn227 O226 2.028 . S
Zn227 O231 2.035 . S
Zn227 O233 2.035 . S
Zn227 O234 2.028 . S
O228 C224 1.258 . S
O228 Zn229 2.035 . S
Zn229 O228 2.035 . S
Zn229 O230 2.028 . S
Zn229 O232 2.028 . S
Zn229 O235 2.035 . S
O230 Zn229 2.028 . S
O230 C236 1.247 . S
O231 Zn227 2.035 . S
O231 C236 1.258 . S
O232 C225 1.247 . S
O232 Zn229 2.028 . S
O233 C225 1.258 . S
O233 Zn227 2.035 . S
O234 Zn227 2.028 . S
O234 C237 1.247 . S
O235 Zn229 2.035 . S
O235 C237 1.258 . S
C236 O230 1.247 . S
C236 O231 1.258 . S
C237 O234 1.247 . S
C237 O235 1.258 . S
C238 O240 1.247 . S
C238 O242 1.258 . S
C239 O246 1.247 . S
C239 O247 1.258 . S
O240 C238 1.247 . S
O240 Zn241 2.028 . S
Zn241 O240 2.028 . S
Zn241 O245 2.035 . S
Zn241 O247 2.035 . S
Zn241 O248 2.028 . S
O242 C238 1.258 . S
O242 Zn243 2.035 . S
Zn243 O242 2.035 . S
Zn243 O244 2.028 . S
Zn243 O246 2.028 . S
Zn243 O249 2.035 . S
O244 Zn243 2.028 . S
O244 C250 1.247 . S
O245 Zn241 2.035 . S
O245 C250 1.258 . S
O246 C239 1.247 . S
O246 Zn243 2.028 . S
O247 C239 1.258 . S
O247 Zn241 2.035 . S
O248 Zn241 2.028 . S
O248 C251 1.247 . S
O249 Zn243 2.035 . S
O249 C251 1.258 . S
C250 O244 1.247 . S
C250 O245 1.258 . S
C251 O248 1.247 . S
C251 O249 1.258 . S
C252 O254 1.247 . S
C252 O256 1.258 . S
C253 O260 1.247 . S
C253 O261 1.258 . S
O254 C252 1.247 . S
O254 Zn255 2.028 . S
Zn255 O254 2.028 . S
Zn255 O259 2.035 . S
Zn255 O261 2.035 . S
Zn255 O262 2.028 . S
O256 C252 1.258 . S
O256 Zn257 2.035 . S
Zn257 O256 2.035 . S
Zn257 O258 2.028 . S
Zn257 O260 2.028 . S
Zn257 O263 2.035 . S
O258 Zn257 2.028 . S
O258 C264 1.247 . S
O259 Zn255 2.035 . S
O259 C264 1.258 . S
O260 C253 1.247 . S
O260 Zn257 2.028 . S
O261 C253 1.258 . S
O261 Zn255 2.035 . S
O262 Zn255 2.028 . S
O262 C265 1.247 . S
O263 Zn257 2.035 . S
O263 C265 1.258 . S
C264 O258 1.247 . S
C264 O259 1.258 . S
C265 O262 1.247 . S
C265 O263 1.258 . S
C266 O268 1.247 . S
C266 O270 1.258 . S
C267 O274 1.247 . S
C267 O275 1.258 . S
O268 C266 1.247 . S
O268 Zn269 2.028 . S
Zn269 O268 2.028 . S
Zn269 O273 2.035 . S
Zn269 O275 2.035 . S
Zn269 O276 2.028 . S
O270 C266 1.258 . S
O270 Zn271 2.035 . S
Zn271 O270 2.035 . S
Zn271 O272 2.028 . S
Zn271 O274 2.028 . S
Zn271 O277 2.035 . S
O272 Zn271 2.028 . S
O272 C278 1.247 . S
O273 Zn269 2.035 . S
O273 C278 1.258 . S
O274 C267 1.247 . S
O274 Zn271 2.028 . S
O275 C267 1.258 . S
O275 Zn269 2.035 . S
O276 Zn269 2.028 . S
O276 C279 1.247 . S
O277 Zn271 2.035 . S
O277 C279 1.258 . S
C278 O272 1.247 . S
C278 O273 1.258 . S
C279 O276 1.247 . S
C279 O277 1.258 . S
C280 O282 1.247 . S
C280 O284 1.258 . S
C281 O288 1.247 . S
C281 O289 1.258 . S
O282 C280 1.247 . S
O282 Zn283 2.028 . S
Zn283 O282 2.028 . S
Zn283 O287 2.035 . S
Zn283 O289 2.035 . S
Zn283 O290 2.028 . S
O284 C280 1.258 . S
O284 Zn285 2.035 . S
Zn285 O284 2.035 . S
Zn285 O286 2.028 . S
Zn285 O288 2.028 . S
Zn285 O291 2.035 . S
O286 Zn285 2.028 . S
O286 C292 1.247 . S
O287 Zn283 2.035 . S
O287 C292 1.258 . S
O288 C281 1.247 . S
O288 Zn285 2.028 . S
O289 C281 1.258 . S
O289 Zn283 2.035 . S
O290 Zn283 2.028 . S
O290 C293 1.247 . S
O291 Zn285 2.035 . S
O291 C293 1.258 . S
C292 O286 1.247 . S
C292 O287 1.258 . S
C293 O290 1.247 . S
C293 O291 1.258 . S
C294 O296 1.247 . S
C294 O298 1.258 . S
C295 O302 1.247 . S
C295 O303 1.258 . S
O296 C294 1.247 . S
O296 Zn297 2.028 . S
Zn297 O296 2.028 . S
Zn297 O301 2.035 . S
Zn297 O303 2.035 . S
Zn297 O304 2.028 . S
O298 C294 1.258 . S
O298 Zn299 2.035 . S
Zn299 O298 2.035 . S
Zn299 O300 2.028 . S
Zn299 O302 2.028 . S
Zn299 O305 2.035 . S
O300 Zn299 2.028 . S
O300 C306 1.247 . S
O301 Zn297 2.035 . S
O301 C306 1.258 . S
O302 C295 1.247 . S
O302 Zn299 2.028 . S
O303 C295 1.258 . S
O303 Zn297 2.035 . S
O304 Zn297 2.028 . S
O304 C307 1.247 . S
O305 Zn299 2.035 . S
O305 C307 1.258 . S
C306 O300 1.247 . S
C306 O301 1.258 . S
C307 O304 1.247 . S
C307 O305 1.258 . S
C308 O310 1.247 . S
C308 O312 1.258 . S
C309 O316 1.247 . S
C309 O317 1.258 . S
O310 C308 1.247 . S
O310 Zn311 2.028 . S
Zn311 O310 2.028 . S
Zn311 O315 2.035 . S
Zn311 O317 2.035 . S
Zn311 O318 2.028 . S
O312 C308 1.258 . S
O312 Zn313 2.035 . S
Zn313 O312 2.035 . S
Zn313 O314 2.028 . S
Zn313 O316 2.028 . S
Zn313 O319 2.035 . S
O314 Zn313 2.028 . S
O314 C320 1.247 . S
O315 Zn311 2.035 . S
O315 C320 1.258 . S
O316 C309 1.247 . S
O316 Zn313 2.028 . S
O317 C309 1.258 . S
O317 Zn311 2.035 . S
O318 Zn311 2.028 . S
O318 C321 1.247 . S
O319 Zn313 2.035 . S
O319 C321 1.258 . S
C320 O314 1.247 . S
C320 O315 1.258 . S
C321 O318 1.247 . S
C321 O319 1.258 . S
C322 O324 1.247 . S
C322 O326 1.258 . S
C323 O330 1.247 . S
C323 O331 1.258 . S
O324 C322 1.247 . S
O324 Zn325 2.028 . S
Zn325 O324 2.028 . S
Zn325 O329 2.035 . S
Zn325 O331 2.035 . S
Zn325 O332 2.028 . S
O326 C322 1.258 . S
O326 Zn327 2.035 . S
Zn327 O326 2.035 . S
Zn327 O328 2.028 . S
Zn327 O330 2.028 . S
Zn327 O333 2.035 . S
O328 Zn327 2.028 . S
O328 C334 1.247 . S
O329 Zn325 2.035 . S
O329 C334 1.258 . S
O330 C323 1.247 . S
O330 Zn327 2.028 . S
O331 C323 1.258 . S
O331 Zn325 2.035 . S
O332 Zn325 2.028 . S
O332 C335 1.247 . S
O333 Zn327 2.035 . S
O333 C335 1.258 . S
C334 O328 1.247 . S
C334 O329 1.258 . S
C335 O332 1.247 . S
C335 O333 1.258 . S
H336 C344 0.929 . S
H337 C346 0.930 . S
H338 C348 0.930 . S
H339 C351 0.929 . S
H340 C354 0.930 . S
H341 C356 0.960 . S
H342 C356 0.960 . S
H343 C356 0.960 . S
C344 H336 0.929 . S
C344 C345 1.377 . S
C344 C346 1.384 . S
C345 C344 1.377 . S
C345 C351 1.390 . S
C346 H337 0.930 . S
C346 C344 1.384 . S
C346 C347 1.372 . S
C347 C346 1.372 . S
C347 C348 1.400 . S
C347 C352 1.490 . S
C348 H338 0.930 . S
C348 C347 1.400 . S
C348 C351 1.386 . S
H349 C365 0.930 . S
H350 C366 0.931 . S
C351 H339 0.929 . S
C351 C345 1.390 . S
C351 C348 1.386 . S
C352 C347 1.490 . S
C352 C354 1.395 . S
C352 C355 1.403 . S
H353 C359 0.930 . S
C354 H340 0.930 . S
C354 C352 1.395 . S
C354 C357 1.403 . S
C355 C352 1.403 . S
C355 C356 1.524 . S
C355 C359 1.400 . S
C356 H341 0.960 . S
C356 H342 0.960 . S
C356 H343 0.960 . S
C356 C355 1.524 . S
C357 C354 1.403 . S
C357 C358 1.392 . S
C357 C361 1.495 . S
C358 C357 1.392 . S
C358 C359 1.385 . S
C358 C360 1.478 . S
C359 H353 0.930 . S
C359 C355 1.400 . S
C359 C358 1.385 . S
C360 C358 1.478 . S
C360 C362 1.381 . S
C360 C366 1.383 . S
C361 C357 1.495 . S
C361 H367 0.959 . S
C361 H368 0.961 . S
C361 H369 0.960 . S
C362 C360 1.381 . S
C362 C363 1.394 . S
C362 H370 0.930 . S
C363 C362 1.394 . S
C363 C364 1.383 . S
C363 H371 0.929 . S
C364 C363 1.383 . S
C364 C365 1.377 . S
C365 H349 0.930 . S
C365 C364 1.377 . S
C365 C366 1.379 . S
C366 H350 0.931 . S
C366 C360 1.383 . S
C366 C365 1.379 . S
H367 C361 0.959 . S
H368 C361 0.961 . S
H369 C361 0.960 . S
H370 C362 0.930 . S
H371 C363 0.929 . S
H372 C380 0.929 . S
H373 C382 0.930 . S
H374 C384 0.930 . S
H375 C387 0.929 . S
H376 C390 0.930 . S
H377 C392 0.960 . S
H378 C392 0.960 . S
H379 C392 0.960 . S
C380 H372 0.929 . S
C380 C381 1.377 . S
C380 C382 1.384 . S
C381 C380 1.377 . S
C381 C387 1.390 . S
C382 H373 0.930 . S
C382 C380 1.384 . S
C382 C383 1.372 . S
C383 C382 1.372 . S
C383 C384 1.400 . S
C383 C388 1.490 . S
C384 H374 0.930 . S
C384 C383 1.400 . S
C384 C387 1.386 . S
H385 C401 0.930 . S
H386 C402 0.931 . S
C387 H375 0.929 . S
C387 C381 1.390 . S
C387 C384 1.386 . S
C388 C383 1.490 . S
C388 C390 1.395 . S
C388 C391 1.403 1_655 S
H389 C395 0.930 . S
C390 H376 0.930 . S
C390 C388 1.395 . S
C390 C393 1.403 . S
C391 C388 1.403 1_455 S
C391 C392 1.524 . S
C391 C395 1.400 . S
C392 H377 0.960 . S
C392 H378 0.960 . S
C392 H379 0.960 . S
C392 C391 1.524 . S
C393 C390 1.403 . S
C393 C394 1.392 1_655 S
C393 C397 1.495 . S
C394 C393 1.392 1_455 S
C394 C395 1.385 . S
C394 C396 1.478 . S
C395 H389 0.930 . S
C395 C391 1.400 . S
C395 C394 1.385 . S
C396 C394 1.478 . S
C396 C398 1.381 . S
C396 C402 1.383 . S
C397 C393 1.495 . S
C397 H403 0.959 . S
C397 H404 0.961 . S
C397 H405 0.960 . S
C398 C396 1.381 . S
C398 C399 1.394 . S
C398 H406 0.930 . S
C399 C398 1.394 . S
C399 C400 1.383 . S
C399 H407 0.929 . S
C400 C399 1.383 . S
C400 C401 1.377 . S
C401 H385 0.930 . S
C401 C400 1.377 . S
C401 C402 1.379 . S
C402 H386 0.931 . S
C402 C396 1.383 . S
C402 C401 1.379 . S
H403 C397 0.959 . S
H404 C397 0.961 . S
H405 C397 0.960 . S
H406 C398 0.930 . S
H407 C399 0.929 . S
H408 C416 0.929 . S
H409 C418 0.930 . S
H410 C420 0.930 . S
H411 C423 0.929 . S
H412 C426 0.930 . S
H413 C428 0.960 . S
H414 C428 0.960 . S
H415 C428 0.960 . S
C416 H408 0.929 . S
C416 C417 1.377 . S
C416 C418 1.384 . S
C417 C416 1.377 . S
C417 C423 1.390 . S
C418 H409 0.930 . S
C418 C416 1.384 . S
C418 C419 1.372 . S
C419 C418 1.372 . S
C419 C420 1.400 . S
C419 C424 1.490 . S
C420 H410 0.930 . S
C420 C419 1.400 . S
C420 C423 1.386 . S
H421 C437 0.930 . S
H422 C438 0.931 . S
C423 H411 0.929 . S
C423 C417 1.390 . S
C423 C420 1.386 . S
C424 C419 1.490 . S
C424 C426 1.395 . S
C424 C427 1.403 1_554 S
H425 C431 0.930 . S
C426 H412 0.930 . S
C426 C424 1.395 . S
C426 C429 1.403 . S
C427 C424 1.403 1_556 S
C427 C428 1.524 . S
C427 C431 1.400 . S
C428 H413 0.960 . S
C428 H414 0.960 . S
C428 H415 0.960 . S
C428 C427 1.524 . S
C429 C426 1.403 . S
C429 C430 1.392 1_554 S
C429 C433 1.495 . S
C430 C429 1.392 1_556 S
C430 C431 1.385 . S
C430 C432 1.478 . S
C431 H425 0.930 . S
C431 C427 1.400 . S
C431 C430 1.385 . S
C432 C430 1.478 . S
C432 C434 1.381 . S
C432 C438 1.383 . S
C433 C429 1.495 . S
C433 H439 0.959 . S
C433 H440 0.961 . S
C433 H441 0.960 . S
C434 C432 1.381 . S
C434 C435 1.394 . S
C434 H442 0.930 . S
C435 C434 1.394 . S
C435 C436 1.383 . S
C435 H443 0.929 . S
C436 C435 1.383 . S
C436 C437 1.377 . S
C437 H421 0.930 . S
C437 C436 1.377 . S
C437 C438 1.379 . S
C438 H422 0.931 . S
C438 C432 1.383 . S
C438 C437 1.379 . S
H439 C433 0.959 . S
H440 C433 0.961 . S
H441 C433 0.960 . S
H442 C434 0.930 . S
H443 C435 0.929 . S
H444 C452 0.929 . S
H445 C454 0.930 . S
H446 C456 0.930 . S
H447 C459 0.929 . S
H448 C462 0.930 . S
H449 C464 0.960 . S
H450 C464 0.960 . S
H451 C464 0.960 . S
C452 H444 0.929 . S
C452 C453 1.377 . S
C452 C454 1.384 . S
C453 C452 1.377 . S
C453 C459 1.390 . S
C454 H445 0.930 . S
C454 C452 1.384 . S
C454 C455 1.372 . S
C455 C454 1.372 . S
C455 C456 1.400 . S
C455 C460 1.490 . S
C456 H446 0.930 . S
C456 C455 1.400 . S
C456 C459 1.386 . S
H457 C473 0.930 . S
H458 C474 0.931 . S
C459 H447 0.929 . S
C459 C453 1.390 . S
C459 C456 1.386 . S
C460 C455 1.490 . S
C460 C462 1.395 . S
C460 C463 1.403 . S
H461 C467 0.930 . S
C462 H448 0.930 . S
C462 C460 1.395 . S
C462 C465 1.403 . S
C463 C460 1.403 . S
C463 C464 1.524 . S
C463 C467 1.400 . S
C464 H449 0.960 . S
C464 H450 0.960 . S
C464 H451 0.960 . S
C464 C463 1.524 . S
C465 C462 1.403 . S
C465 C466 1.392 . S
C465 C469 1.495 . S
C466 C465 1.392 . S
C466 C467 1.385 . S
C466 C468 1.478 . S
C467 H461 0.930 . S
C467 C463 1.400 . S
C467 C466 1.385 . S
C468 C466 1.478 . S
C468 C470 1.381 . S
C468 C474 1.383 . S
C469 C465 1.495 . S
C469 H475 0.959 . S
C469 H476 0.961 . S
C469 H477 0.960 . S
C470 C468 1.381 . S
C470 C471 1.394 . S
C470 H478 0.930 . S
C471 C470 1.394 . S
C471 C472 1.383 . S
C471 H479 0.929 . S
C472 C471 1.383 . S
C472 C473 1.377 . S
C473 H457 0.930 . S
C473 C472 1.377 . S
C473 C474 1.379 . S
C474 H458 0.931 . S
C474 C468 1.383 . S
C474 C473 1.379 . S
H475 C469 0.959 . S
H476 C469 0.961 . S
H477 C469 0.960 . S
H478 C470 0.930 . S
H479 C471 0.929 . S
H480 C488 0.929 . S
H481 C490 0.930 . S
H482 C492 0.930 . S
H483 C495 0.929 . S
H484 C498 0.930 . S
H485 C500 0.960 . S
H486 C500 0.960 . S
H487 C500 0.960 . S
C488 H480 0.929 . S
C488 C489 1.377 . S
C488 C490 1.384 . S
C489 C488 1.377 . S
C489 C495 1.390 . S
C490 H481 0.930 . S
C490 C488 1.384 . S
C490 C491 1.372 . S
C491 C490 1.372 . S
C491 C492 1.400 . S
C491 C496 1.490 . S
C492 H482 0.930 . S
C492 C491 1.400 . S
C492 C495 1.386 . S
H493 C509 0.930 . S
H494 C510 0.931 . S
C495 H483 0.929 . S
C495 C489 1.390 . S
C495 C492 1.386 . S
C496 C491 1.490 . S
C496 C498 1.395 1_556 S
C496 C499 1.403 . S
H497 C503 0.930 . S
C498 H484 0.930 . S
C498 C496 1.395 1_554 S
C498 C501 1.403 . S
C499 C496 1.403 . S
C499 C500 1.524 . S
C499 C503 1.400 1_556 S
C500 H485 0.960 . S
C500 H486 0.960 . S
C500 H487 0.960 . S
C500 C499 1.524 . S
C501 C498 1.403 . S
C501 C502 1.392 . S
C501 C505 1.495 . S
C502 C501 1.392 . S
C502 C503 1.385 . S
C502 C504 1.478 . S
C503 H497 0.930 . S
C503 C499 1.400 1_554 S
C503 C502 1.385 . S
C504 C502 1.478 . S
C504 C506 1.381 . S
C504 C510 1.383 . S
C505 C501 1.495 . S
C505 H511 0.959 . S
C505 H512 0.961 . S
C505 H513 0.960 . S
C506 C504 1.381 . S
C506 C507 1.394 . S
C506 H514 0.930 . S
C507 C506 1.394 . S
C507 C508 1.383 . S
C507 H515 0.929 . S
C508 C507 1.383 . S
C508 C509 1.377 . S
C509 H493 0.930 . S
C509 C508 1.377 . S
C509 C510 1.379 . S
C510 H494 0.931 . S
C510 C504 1.383 . S
C510 C509 1.379 . S
H511 C505 0.959 . S
H512 C505 0.961 . S
H513 C505 0.960 . S
H514 C506 0.930 . S
H515 C507 0.929 . S
H516 C524 0.929 . S
H517 C526 0.930 . S
H518 C528 0.930 . S
H519 C531 0.929 . S
H520 C534 0.930 . S
H521 C536 0.960 . S
H522 C536 0.960 . S
H523 C536 0.960 . S
C524 H516 0.929 . S
C524 C525 1.377 . S
C524 C526 1.384 . S
C525 C524 1.377 . S
C525 C531 1.390 . S
C526 H517 0.930 . S
C526 C524 1.384 . S
C526 C527 1.372 . S
C527 C526 1.372 . S
C527 C528 1.400 . S
C527 C532 1.490 . S
C528 H518 0.930 . S
C528 C527 1.400 . S
C528 C531 1.386 . S
H529 C545 0.930 . S
H530 C546 0.931 . S
C531 H519 0.929 . S
C531 C525 1.390 . S
C531 C528 1.386 . S
C532 C527 1.490 . S
C532 C534 1.395 . S
C532 C535 1.403 . S
H533 C539 0.930 . S
C534 H520 0.930 . S
C534 C532 1.395 . S
C534 C537 1.403 . S
C535 C532 1.403 . S
C535 C536 1.524 . S
C535 C539 1.400 . S
C536 H521 0.960 . S
C536 H522 0.960 . S
C536 H523 0.960 . S
C536 C535 1.524 . S
C537 C534 1.403 . S
C537 C538 1.392 . S
C537 C541 1.495 . S
C538 C537 1.392 . S
C538 C539 1.385 . S
C538 C540 1.478 . S
C539 H533 0.930 . S
C539 C535 1.400 . S
C539 C538 1.385 . S
C540 C538 1.478 . S
C540 C542 1.381 . S
C540 C546 1.383 . S
C541 C537 1.495 . S
C541 H547 0.959 . S
C541 H548 0.961 . S
C541 H549 0.960 . S
C542 C540 1.381 . S
C542 C543 1.394 . S
C542 H550 0.930 . S
C543 C542 1.394 . S
C543 C544 1.383 . S
C543 H551 0.929 . S
C544 C543 1.383 . S
C544 C545 1.377 . S
C545 H529 0.930 . S
C545 C544 1.377 . S
C545 C546 1.379 . S
C546 H530 0.931 . S
C546 C540 1.383 . S
C546 C545 1.379 . S
H547 C541 0.959 . S
H548 C541 0.961 . S
H549 C541 0.960 . S
H550 C542 0.930 . S
H551 C543 0.929 . S
H552 C560 0.929 . S
H553 C562 0.930 . S
H554 C564 0.930 . S
H555 C567 0.929 . S
H556 C570 0.930 . S
H557 C572 0.960 . S
H558 C572 0.960 . S
H559 C572 0.960 . S
C560 H552 0.929 . S
C560 C561 1.377 . S
C560 C562 1.384 . S
C561 C560 1.377 . S
C561 C567 1.390 . S
C562 H553 0.930 . S
C562 C560 1.384 . S
C562 C563 1.372 . S
C563 C562 1.372 . S
C563 C564 1.400 . S
C563 C568 1.490 . S
C564 H554 0.930 . S
C564 C563 1.400 . S
C564 C567 1.386 . S
H565 C581 0.930 . S
H566 C582 0.931 . S
C567 H555 0.929 . S
C567 C561 1.390 . S
C567 C564 1.386 . S
C568 C563 1.490 . S
C568 C570 1.395 . S
C568 C571 1.403 . S
H569 C575 0.930 . S
C570 H556 0.930 . S
C570 C568 1.395 . S
C570 C573 1.403 . S
C571 C568 1.403 . S
C571 C572 1.524 . S
C571 C575 1.400 . S
C572 H557 0.960 . S
C572 H558 0.960 . S
C572 H559 0.960 . S
C572 C571 1.524 . S
C573 C570 1.403 . S
C573 C574 1.392 . S
C573 C577 1.495 . S
C574 C573 1.392 . S
C574 C575 1.385 . S
C574 C576 1.478 . S
C575 H569 0.930 . S
C575 C571 1.400 . S
C575 C574 1.385 . S
C576 C574 1.478 . S
C576 C578 1.381 . S
C576 C582 1.383 . S
C577 C573 1.495 . S
C577 H583 0.959 . S
C577 H584 0.961 . S
C577 H585 0.960 . S
C578 C576 1.381 . S
C578 C579 1.394 . S
C578 H586 0.930 . S
C579 C578 1.394 . S
C579 C580 1.383 . S
C579 H587 0.929 . S
C580 C579 1.383 . S
C580 C581 1.377 . S
C581 H565 0.930 . S
C581 C580 1.377 . S
C581 C582 1.379 . S
C582 H566 0.931 . S
C582 C576 1.383 . S
C582 C581 1.379 . S
H583 C577 0.959 . S
H584 C577 0.961 . S
H585 C577 0.960 . S
H586 C578 0.930 . S
H587 C579 0.929 . S
H588 C596 0.929 . S
H589 C598 0.930 . S
H590 C600 0.930 . S
H591 C603 0.929 . S
H592 C606 0.930 . S
H593 C608 0.960 . S
H594 C608 0.960 . S
H595 C608 0.960 . S
C596 H588 0.929 . S
C596 C597 1.377 . S
C596 C598 1.384 . S
C597 C596 1.377 . S
C597 C603 1.390 . S
C598 H589 0.930 . S
C598 C596 1.384 . S
C598 C599 1.372 . S
C599 C598 1.372 . S
C599 C600 1.400 . S
C599 C604 1.490 . S
C600 H590 0.930 . S
C600 C599 1.400 . S
C600 C603 1.386 . S
H601 C617 0.930 . S
H602 C618 0.931 . S
C603 H591 0.929 . S
C603 C597 1.390 . S
C603 C600 1.386 . S
C604 C599 1.490 . S
C604 C606 1.395 . S
C604 C607 1.403 1_455 S
H605 C611 0.930 . S
C606 H592 0.930 . S
C606 C604 1.395 . S
C606 C609 1.403 . S
C607 C604 1.403 1_655 S
C607 C608 1.524 . S
C607 C611 1.400 . S
C608 H593 0.960 . S
C608 H594 0.960 . S
C608 H595 0.960 . S
C608 C607 1.524 . S
C609 C606 1.403 . S
C609 C610 1.392 1_455 S
C609 C613 1.495 . S
C610 C609 1.392 1_655 S
C610 C611 1.385 . S
C610 C612 1.478 . S
C611 H605 0.930 . S
C611 C607 1.400 . S
C611 C610 1.385 . S
C612 C610 1.478 . S
C612 C614 1.381 . S
C612 C618 1.383 . S
C613 C609 1.495 . S
C613 H619 0.959 . S
C613 H620 0.961 . S
C613 H621 0.960 . S
C614 C612 1.381 . S
C614 C615 1.394 . S
C614 H622 0.930 . S
C615 C614 1.394 . S
C615 C616 1.383 . S
C615 H623 0.929 . S
C616 C615 1.383 . S
C616 C617 1.377 . S
C617 H601 0.930 . S
C617 C616 1.377 . S
C617 C618 1.379 . S
C618 H602 0.931 . S
C618 C612 1.383 . S
C618 C617 1.379 . S
H619 C613 0.959 . S
H620 C613 0.961 . S
H621 C613 0.960 . S
H622 C614 0.930 . S
H623 C615 0.929 . S
H624 C632 0.929 . S
H625 C634 0.930 . S
H626 C636 0.930 . S
H627 C639 0.929 . S
H628 C642 0.930 . S
H629 C644 0.960 . S
H630 C644 0.960 . S
H631 C644 0.960 . S
C632 H624 0.929 . S
C632 C633 1.377 . S
C632 C634 1.384 . S
C633 C632 1.377 . S
C633 C639 1.390 . S
C634 H625 0.930 . S
C634 C632 1.384 . S
C634 C635 1.372 . S
C635 C634 1.372 . S
C635 C636 1.400 . S
C635 C640 1.490 . S
C636 H626 0.930 . S
C636 C635 1.400 . S
C636 C639 1.386 . S
H637 C653 0.930 . S
H638 C654 0.931 . S
C639 H627 0.929 . S
C639 C633 1.390 . S
C639 C636 1.386 . S
C640 C635 1.490 . S
C640 C642 1.395 . S
C640 C643 1.403 . S
H641 C647 0.930 . S
C642 H628 0.930 . S
C642 C640 1.395 . S
C642 C645 1.403 . S
C643 C640 1.403 . S
C643 C644 1.524 . S
C643 C647 1.400 . S
C644 H629 0.960 . S
C644 H630 0.960 . S
C644 H631 0.960 . S
C644 C643 1.524 . S
C645 C642 1.403 . S
C645 C646 1.392 . S
C645 C649 1.495 . S
C646 C645 1.392 . S
C646 C647 1.385 . S
C646 C648 1.478 . S
C647 H641 0.930 . S
C647 C643 1.400 . S
C647 C646 1.385 . S
C648 C646 1.478 . S
C648 C650 1.381 . S
C648 C654 1.383 . S
C649 C645 1.495 . S
C649 H655 0.959 . S
C649 H656 0.961 . S
C649 H657 0.960 . S
C650 C648 1.381 . S
C650 C651 1.394 . S
C650 H658 0.930 . S
C651 C650 1.394 . S
C651 C652 1.383 . S
C651 H659 0.929 . S
C652 C651 1.383 . S
C652 C653 1.377 . S
C653 H637 0.930 . S
C653 C652 1.377 . S
C653 C654 1.379 . S
C654 H638 0.931 . S
C654 C648 1.383 . S
C654 C653 1.379 . S
H655 C649 0.959 . S
H656 C649 0.961 . S
H657 C649 0.960 . S
H658 C650 0.930 . S
H659 C651 0.929 . S
H660 C668 0.929 . S
H661 C670 0.930 . S
H662 C672 0.930 . S
H663 C675 0.929 . S
H664 C678 0.930 . S
H665 C680 0.960 . S
H666 C680 0.960 . S
H667 C680 0.960 . S
C668 H660 0.929 . S
C668 C669 1.377 . S
C668 C670 1.384 . S
C669 C668 1.377 . S
C669 C675 1.390 . S
C670 H661 0.930 . S
C670 C668 1.384 . S
C670 C671 1.372 . S
C671 C670 1.372 . S
C671 C672 1.400 . S
C671 C676 1.490 . S
C672 H662 0.930 . S
C672 C671 1.400 . S
C672 C675 1.386 . S
H673 C689 0.930 . S
H674 C690 0.931 . S
C675 H663 0.929 . S
C675 C669 1.390 . S
C675 C672 1.386 . S
C676 C671 1.490 . S
C676 C678 1.395 . S
C676 C679 1.403 1_545 S
H677 C683 0.930 . S
C678 H664 0.930 . S
C678 C676 1.395 . S
C678 C681 1.403 . S
C679 C676 1.403 1_565 S
C679 C680 1.524 . S
C679 C683 1.400 . S
C680 H665 0.960 . S
C680 H666 0.960 . S
C680 H667 0.960 . S
C680 C679 1.524 . S
C681 C678 1.403 . S
C681 C682 1.392 1_545 S
C681 C685 1.495 . S
C682 C681 1.392 1_565 S
C682 C683 1.385 . S
C682 C684 1.478 . S
C683 H677 0.930 . S
C683 C679 1.400 . S
C683 C682 1.385 . S
C684 C682 1.478 . S
C684 C686 1.381 . S
C684 C690 1.383 . S
C685 C681 1.495 . S
C685 H691 0.959 . S
C685 H692 0.961 . S
C685 H693 0.960 . S
C686 C684 1.381 . S
C686 C687 1.394 . S
C686 H694 0.930 . S
C687 C686 1.394 . S
C687 C688 1.383 . S
C687 H695 0.929 . S
C688 C687 1.383 . S
C688 C689 1.377 . S
C689 H673 0.930 . S
C689 C688 1.377 . S
C689 C690 1.379 . S
C690 H674 0.931 . S
C690 C684 1.383 . S
C690 C689 1.379 . S
H691 C685 0.959 . S
H692 C685 0.961 . S
H693 C685 0.960 . S
H694 C686 0.930 . S
H695 C687 0.929 . S
H696 C704 0.929 . S
H697 C706 0.930 . S
H698 C708 0.930 . S
H699 C711 0.929 . S
H700 C714 0.930 . S
H701 C716 0.960 1_565 S
H702 C716 0.960 . S
H703 C716 0.961 . S
C704 H696 0.929 . S
C704 C705 1.377 . S
C704 C706 1.384 . S
C705 C704 1.377 . S
C705 C711 1.390 . S
C706 H697 0.930 . S
C706 C704 1.384 . S
C706 C707 1.372 . S
C707 C706 1.372 . S
C707 C708 1.400 . S
C707 C712 1.490 . S
C708 H698 0.930 . S
C708 C707 1.400 . S
C708 C711 1.386 . S
H709 C725 0.930 . S
H710 C726 0.931 . S
C711 H699 0.929 . S
C711 C705 1.390 . S
C711 C708 1.386 . S
C712 C707 1.490 . S
C712 C714 1.395 . S
C712 C715 1.403 . S
H713 C719 0.930 . S
C714 H700 0.930 . S
C714 C712 1.395 . S
C714 C717 1.398 1_545 S
C715 C712 1.403 . S
C715 C716 1.524 . S
C715 C719 1.400 1_545 S
C716 H701 0.960 1_545 S
C716 H702 0.960 . S
C716 H703 0.961 . S
C716 C715 1.524 . S
C717 C714 1.398 1_565 S
C717 C718 1.398 . S
C717 C721 1.495 . S
C718 C717 1.398 . S
C718 C719 1.385 . S
C718 C720 1.478 . S
C719 H713 0.930 . S
C719 C715 1.400 1_565 S
C719 C718 1.385 . S
C720 C718 1.478 . S
C720 C722 1.381 . S
C720 C726 1.383 . S
C721 C717 1.495 . S
C721 H727 0.940 1_565 S
C721 H728 0.985 . S
C721 H729 0.957 1_565 S
C722 C720 1.381 . S
C722 C723 1.394 . S
C722 H730 0.930 . S
C723 C722 1.394 . S
C723 C724 1.383 . S
C723 H731 0.929 . S
C724 C723 1.383 . S
C724 C725 1.377 . S
C725 H709 0.930 . S
C725 C724 1.377 . S
C725 C726 1.379 . S
C726 H710 0.931 . S
C726 C720 1.383 . S
C726 C725 1.379 . S
H727 C721 0.940 1_545 S
H728 C721 0.985 . S
H729 C721 0.957 1_545 S
H730 C722 0.930 . S
H731 C723 0.929 . S
H732 C740 0.929 . S
H733 C742 0.930 . S
H734 C744 0.930 . S
H735 C747 0.929 . S
H736 C750 0.930 . S
H737 C752 0.960 . S
H738 C752 0.960 . S
H739 C752 0.960 . S
C740 H732 0.929 . S
C740 C741 1.377 . S
C740 C742 1.384 . S
C741 C740 1.377 . S
C741 C747 1.390 . S
C742 H733 0.930 . S
C742 C740 1.384 . S
C742 C743 1.372 . S
C743 C742 1.372 . S
C743 C744 1.400 . S
C743 C748 1.490 . S
C744 H734 0.930 . S
C744 C743 1.400 . S
C744 C747 1.386 . S
H745 C761 0.930 . S
H746 C762 0.931 . S
C747 H735 0.929 . S
C747 C741 1.390 . S
C747 C744 1.386 . S
C748 C743 1.490 . S
C748 C750 1.368 1_545 S
C748 C751 1.403 . S
H749 C755 0.930 . S
C750 H736 0.930 . S
C750 C748 1.368 1_565 S
C750 C753 1.431 . S
C751 C748 1.403 . S
C751 C752 1.524 . S
C751 C755 1.400 1_545 S
C752 H737 0.960 . S
C752 H738 0.960 . S
C752 H739 0.960 . S
C752 C751 1.524 . S
C753 C750 1.431 . S
C753 C754 1.392 . S
C753 C757 1.495 . S
C754 C753 1.392 . S
C754 C755 1.385 . S
C754 C756 1.478 . S
C755 H749 0.930 . S
C755 C751 1.400 1_565 S
C755 C754 1.385 . S
C756 C754 1.478 . S
C756 C758 1.381 . S
C756 C762 1.383 . S
C757 C753 1.495 . S
C757 H763 0.959 . S
C757 H764 0.961 . S
C757 H765 0.960 . S
C758 C756 1.381 . S
C758 C759 1.394 . S
C758 H766 0.930 . S
C759 C758 1.394 . S
C759 C760 1.383 . S
C759 H767 0.929 . S
C760 C759 1.383 . S
C760 C761 1.377 . S
C761 H745 0.930 . S
C761 C760 1.377 . S
C761 C762 1.379 . S
C762 H746 0.931 . S
C762 C756 1.383 . S
C762 C761 1.379 . S
H763 C757 0.959 . S
H764 C757 0.961 . S
H765 C757 0.960 . S
H766 C758 0.930 . S
H767 C759 0.929 . S
H768 C776 0.929 . S
H769 C778 0.930 . S
H770 C780 0.930 . S
H771 C783 0.929 . S
H772 C786 0.930 . S
H773 C788 0.960 . S
H774 C788 0.960 . S
H775 C788 0.960 . S
C776 H768 0.929 . S
C776 C777 1.377 . S
C776 C778 1.384 . S
C777 C776 1.377 . S
C777 C783 1.390 . S
C778 H769 0.930 . S
C778 C776 1.384 . S
C778 C779 1.372 . S
C779 C778 1.372 . S
C779 C780 1.400 . S
C779 C784 1.490 . S
C780 H770 0.930 . S
C780 C779 1.400 . S
C780 C783 1.386 . S
H781 C797 0.930 . S
H782 C798 0.931 . S
C783 H771 0.929 . S
C783 C777 1.390 . S
C783 C780 1.386 . S
C784 C779 1.490 . S
C784 C786 1.395 . S
C784 C787 1.403 . S
H785 C791 0.930 . S
C786 H772 0.930 . S
C786 C784 1.395 . S
C786 C789 1.403 . S
C787 C784 1.403 . S
C787 C788 1.524 . S
C787 C791 1.400 . S
C788 H773 0.960 . S
C788 H774 0.960 . S
C788 H775 0.960 . S
C788 C787 1.524 . S
C789 C786 1.403 . S
C789 C790 1.392 . S
C789 C793 1.495 . S
C790 C789 1.392 . S
C790 C791 1.385 . S
C790 C792 1.478 . S
C791 H785 0.930 . S
C791 C787 1.400 . S
C791 C790 1.385 . S
C792 C790 1.478 . S
C792 C794 1.381 . S
C792 C798 1.383 . S
C793 C789 1.495 . S
C793 H799 0.959 . S
C793 H800 0.961 . S
C793 H801 0.960 . S
C794 C792 1.381 . S
C794 C795 1.394 . S
C794 H802 0.930 . S
C795 C794 1.394 . S
C795 C796 1.383 . S
C795 H803 0.929 . S
C796 C795 1.383 . S
C796 C797 1.377 . S
C797 H781 0.930 . S
C797 C796 1.377 . S
C797 C798 1.379 . S
C798 H782 0.931 . S
C798 C792 1.383 . S
C798 C797 1.379 . S
H799 C793 0.959 . S
H800 C793 0.961 . S
H801 C793 0.960 . S
H802 C794 0.930 . S
H803 C795 0.929 . S
H804 C812 0.929 . S
H805 C814 0.930 . S
H806 C816 0.930 . S
H807 C819 0.929 . S
H808 C822 0.930 . S
H809 C824 0.960 . S
H810 C824 0.960 . S
H811 C824 0.960 . S
C812 H804 0.929 . S
C812 C813 1.377 . S
C812 C814 1.384 . S
C813 C812 1.377 . S
C813 C819 1.390 . S
C814 H805 0.930 . S
C814 C812 1.384 . S
C814 C815 1.372 . S
C815 C814 1.372 . S
C815 C816 1.400 . S
C815 C820 1.490 . S
C816 H806 0.930 . S
C816 C815 1.400 . S
C816 C819 1.386 . S
H817 C833 0.930 . S
H818 C834 0.931 . S
C819 H807 0.929 . S
C819 C813 1.390 . S
C819 C816 1.386 . S
C820 C815 1.490 . S
C820 C822 1.395 . S
C820 C823 1.403 . S
H821 C827 0.930 . S
C822 H808 0.930 . S
C822 C820 1.395 . S
C822 C825 1.403 . S
C823 C820 1.403 . S
C823 C824 1.524 . S
C823 C827 1.400 . S
C824 H809 0.960 . S
C824 H810 0.960 . S
C824 H811 0.960 . S
C824 C823 1.524 . S
C825 C822 1.403 . S
C825 C826 1.392 . S
C825 C829 1.495 . S
C826 C825 1.392 . S
C826 C827 1.385 . S
C826 C828 1.478 . S
C827 H821 0.930 . S
C827 C823 1.400 . S
C827 C826 1.385 . S
C828 C826 1.478 . S
C828 C830 1.381 . S
C828 C834 1.383 . S
C829 C825 1.495 . S
C829 H835 0.959 . S
C829 H836 0.961 . S
C829 H837 0.960 . S
C830 C828 1.381 . S
C830 C831 1.394 . S
C830 H838 0.930 . S
C831 C830 1.394 . S
C831 C832 1.383 . S
C831 H839 0.929 . S
C832 C831 1.383 . S
C832 C833 1.377 . S
C833 H817 0.930 . S
C833 C832 1.377 . S
C833 C834 1.379 . S
C834 H818 0.931 . S
C834 C828 1.383 . S
C834 C833 1.379 . S
H835 C829 0.959 . S
H836 C829 0.961 . S
H837 C829 0.960 . S
H838 C830 0.930 . S
H839 C831 0.929 . S
H840 C848 0.929 . S
H841 C850 0.930 . S
H842 C852 0.930 . S
H843 C855 0.929 . S
H844 C858 0.930 . S
H845 C860 0.960 . S
H846 C860 0.960 . S
H847 C860 0.960 . S
C848 H840 0.929 . S
C848 C849 1.377 . S
C848 C850 1.384 . S
C849 C848 1.377 . S
C849 C855 1.390 . S
C850 H841 0.930 . S
C850 C848 1.384 . S
C850 C851 1.372 . S
C851 C850 1.372 . S
C851 C852 1.400 . S
C851 C856 1.490 . S
C852 H842 0.930 . S
C852 C851 1.400 . S
C852 C855 1.386 . S
H853 C869 0.930 . S
H854 C870 0.931 . S
C855 H843 0.929 . S
C855 C849 1.390 . S
C855 C852 1.386 . S
C856 C851 1.490 . S
C856 C858 1.395 . S
C856 C859 1.403 . S
H857 C863 0.930 . S
C858 H844 0.930 . S
C858 C856 1.395 . S
C858 C861 1.403 . S
C859 C856 1.403 . S
C859 C860 1.524 . S
C859 C863 1.400 . S
C860 H845 0.960 . S
C860 H846 0.960 . S
C860 H847 0.960 . S
C860 C859 1.524 . S
C861 C858 1.403 . S
C861 C862 1.392 . S
C861 C865 1.495 . S
C862 C861 1.392 . S
C862 C863 1.385 . S
C862 C864 1.478 . S
C863 H857 0.930 . S
C863 C859 1.400 . S
C863 C862 1.385 . S
C864 C862 1.478 . S
C864 C866 1.381 . S
C864 C870 1.383 . S
C865 C861 1.495 . S
C865 H871 0.959 . S
C865 H872 0.961 . S
C865 H873 0.960 . S
C866 C864 1.381 . S
C866 C867 1.394 . S
C866 H874 0.930 . S
C867 C866 1.394 . S
C867 C868 1.383 . S
C867 H875 0.929 . S
C868 C867 1.383 . S
C868 C869 1.377 . S
C869 H853 0.930 . S
C869 C868 1.377 . S
C869 C870 1.379 . S
C870 H854 0.931 . S
C870 C864 1.383 . S
C870 C869 1.379 . S
H871 C865 0.959 . S
H872 C865 0.961 . S
H873 C865 0.960 . S
H874 C866 0.930 . S
H875 C867 0.929 . S
H876 C884 0.929 . S
H877 C886 0.930 . S
H878 C888 0.930 . S
H879 C891 0.929 . S
H880 C894 0.930 . S
H881 C896 0.960 . S
H882 C896 0.960 1_556 S
H883 C896 0.960 . S
C884 H876 0.929 . S
C884 C885 1.377 . S
C884 C886 1.384 . S
C885 C884 1.377 . S
C885 C891 1.390 . S
C886 H877 0.930 . S
C886 C884 1.384 . S
C886 C887 1.372 . S
C887 C886 1.372 . S
C887 C888 1.400 . S
C887 C892 1.490 . S
C888 H878 0.930 . S
C888 C887 1.400 . S
C888 C891 1.386 . S
H889 C905 0.930 . S
H890 C906 0.931 . S
C891 H879 0.929 . S
C891 C885 1.390 . S
C891 C888 1.386 . S
C892 C887 1.490 . S
C892 C894 1.395 . S
C892 C895 1.403 1_556 S
H893 C899 0.930 . S
C894 H880 0.930 . S
C894 C892 1.395 . S
C894 C897 1.403 . S
C895 C892 1.403 1_554 S
C895 C896 1.524 . S
C895 C899 1.400 . S
C896 H881 0.960 . S
C896 H882 0.960 1_554 S
C896 H883 0.960 . S
C896 C895 1.524 . S
C897 C894 1.403 . S
C897 C898 1.392 1_556 S
C897 C901 1.495 . S
C898 C897 1.392 1_554 S
C898 C899 1.385 . S
C898 C900 1.478 . S
C899 H893 0.930 . S
C899 C895 1.400 . S
C899 C898 1.385 . S
C900 C898 1.478 . S
C900 C902 1.381 . S
C900 C906 1.383 . S
C901 C897 1.495 . S
C901 H907 0.959 . S
C901 H908 0.961 . S
C901 H909 0.960 . S
C902 C900 1.381 . S
C902 C903 1.394 . S
C902 H910 0.930 . S
C903 C902 1.394 . S
C903 C904 1.383 . S
C903 H911 0.929 . S
C904 C903 1.383 . S
C904 C905 1.377 . S
C905 H889 0.930 . S
C905 C904 1.377 . S
C905 C906 1.379 . S
C906 H890 0.931 . S
C906 C900 1.383 . S
C906 C905 1.379 . S
H907 C901 0.959 . S
H908 C901 0.961 . S
H909 C901 0.960 . S
H910 C902 0.930 . S
H911 C903 0.929 . S
H912 C920 0.929 . S
H913 C922 0.930 . S
H914 C924 0.930 . S
H915 C927 0.929 . S
H916 C930 0.930 . S
H917 C932 0.960 . S
H918 C932 0.960 . S
H919 C932 0.960 . S
C920 H912 0.929 . S
C920 C921 1.377 . S
C920 C922 1.384 . S
C921 C920 1.377 . S
C921 C927 1.390 . S
C922 H913 0.930 . S
C922 C920 1.384 . S
C922 C923 1.372 . S
C923 C922 1.372 . S
C923 C924 1.400 . S
C923 C928 1.490 . S
C924 H914 0.930 . S
C924 C923 1.400 . S
C924 C927 1.386 . S
H925 C941 0.930 . S
H926 C942 0.931 . S
C927 H915 0.929 . S
C927 C921 1.390 . S
C927 C924 1.386 . S
C928 C923 1.490 . S
C928 C930 1.395 . S
C928 C931 1.403 . S
H929 C935 0.930 . S
C930 H916 0.930 . S
C930 C928 1.395 . S
C930 C933 1.403 . S
C931 C928 1.403 . S
C931 C932 1.524 . S
C931 C935 1.400 . S
C932 H917 0.960 . S
C932 H918 0.960 . S
C932 H919 0.960 . S
C932 C931 1.524 . S
C933 C930 1.403 . S
C933 C934 1.392 . S
C933 C937 1.495 . S
C934 C933 1.392 . S
C934 C935 1.385 . S
C934 C936 1.478 . S
C935 H929 0.930 . S
C935 C931 1.400 . S
C935 C934 1.385 . S
C936 C934 1.478 . S
C936 C938 1.381 . S
C936 C942 1.383 . S
C937 C933 1.495 . S
C937 H943 0.959 . S
C937 H944 0.961 . S
C937 H945 0.960 . S
C938 C936 1.381 . S
C938 C939 1.394 . S
C938 H946 0.930 . S
C939 C938 1.394 . S
C939 C940 1.383 . S
C939 H947 0.929 . S
C940 C939 1.383 . S
C940 C941 1.377 . S
C941 H925 0.930 . S
C941 C940 1.377 . S
C941 C942 1.379 . S
C942 H926 0.931 . S
C942 C936 1.383 . S
C942 C941 1.379 . S
H943 C937 0.959 . S
H944 C937 0.961 . S
H945 C937 0.960 . S
H946 C938 0.930 . S
H947 C939 0.929 . S
H948 C956 0.929 . S
H949 C958 0.930 . S
H950 C960 0.930 . S
H951 C963 0.929 . S
H952 C966 0.930 . S
H953 C968 0.960 . S
H954 C968 0.960 . S
H955 C968 0.960 . S
C956 H948 0.929 . S
C956 C957 1.377 . S
C956 C958 1.384 . S
C957 C956 1.377 . S
C957 C963 1.390 . S
C958 H949 0.930 . S
C958 C956 1.384 . S
C958 C959 1.372 . S
C959 C958 1.372 . S
C959 C960 1.400 . S
C959 C964 1.490 . S
C960 H950 0.930 . S
C960 C959 1.400 . S
C960 C963 1.386 . S
H961 C977 0.930 . S
H962 C978 0.931 . S
C963 H951 0.929 . S
C963 C957 1.390 . S
C963 C960 1.386 . S
C964 C959 1.490 . S
C964 C966 1.395 . S
C964 C967 1.403 . S
H965 C971 0.930 . S
C966 H952 0.930 . S
C966 C964 1.395 . S
C966 C969 1.403 . S
C967 C964 1.403 . S
C967 C968 1.524 . S
C967 C971 1.400 . S
C968 H953 0.960 . S
C968 H954 0.960 . S
C968 H955 0.960 . S
C968 C967 1.524 . S
C969 C966 1.403 . S
C969 C970 1.392 . S
C969 C973 1.495 . S
C970 C969 1.392 . S
C970 C971 1.385 . S
C970 C972 1.478 . S
C971 H965 0.930 . S
C971 C967 1.400 . S
C971 C970 1.385 . S
C972 C970 1.478 . S
C972 C974 1.381 . S
C972 C978 1.383 . S
C973 C969 1.495 . S
C973 H979 0.959 . S
C973 H980 0.961 . S
C973 H981 0.960 . S
C974 C972 1.381 . S
C974 C975 1.394 . S
C974 H982 0.930 . S
C975 C974 1.394 . S
C975 C976 1.383 . S
C975 H983 0.929 . S
C976 C975 1.383 . S
C976 C977 1.377 . S
C977 H961 0.930 . S
C977 C976 1.377 . S
C977 C978 1.379 . S
C978 H962 0.931 . S
C978 C972 1.383 . S
C978 C977 1.379 . S
H979 C973 0.959 . S
H980 C973 0.961 . S
H981 C973 0.960 . S
H982 C974 0.930 . S
H983 C975 0.929 . S
H984 C992 0.929 . S
H985 C994 0.930 . S
H986 C996 0.930 . S
H987 C999 0.929 . S
H988 C1002 0.930 . S
H989 C1004 0.960 . S
H990 C1004 0.960 . S
H991 C1004 0.960 . S
C992 H984 0.929 . S
C992 C993 1.377 . S
C992 C994 1.384 . S
C993 C992 1.377 . S
C993 C999 1.390 . S
C994 H985 0.930 . S
C994 C992 1.384 . S
C994 C995 1.372 . S
C995 C994 1.372 . S
C995 C996 1.400 . S
C995 C1000 1.490 . S
C996 H986 0.930 . S
C996 C995 1.400 . S
C996 C999 1.386 . S
H997 C1013 0.930 . S
H998 C1014 0.931 . S
C999 H987 0.929 . S
C999 C993 1.390 . S
C999 C996 1.386 . S
C1000 C995 1.490 . S
C1000 C1002 1.395 . S
C1000 C1003 1.403 . S
H1001 C1007 0.930 . S
C1002 H988 0.930 . S
C1002 C1000 1.395 . S
C1002 C1005 1.403 1_655 S
C1003 C1000 1.403 . S
C1003 C1004 1.524 . S
C1003 C1007 1.400 1_655 S
C1004 H989 0.960 . S
C1004 H990 0.960 . S
C1004 H991 0.960 . S
C1004 C1003 1.524 . S
C1005 C1002 1.403 1_455 S
C1005 C1006 1.392 . S
C1005 C1009 1.495 . S
C1006 C1005 1.392 . S
C1006 C1007 1.385 . S
C1006 C1008 1.478 . S
C1007 H1001 0.930 . S
C1007 C1003 1.400 1_455 S
C1007 C1006 1.385 . S
C1008 C1006 1.478 . S
C1008 C1010 1.381 . S
C1008 C1014 1.383 . S
C1009 C1005 1.495 . S
C1009 H1015 0.959 . S
C1009 H1016 0.961 . S
C1009 H1017 0.960 . S
C1010 C1008 1.381 . S
C1010 C1011 1.394 . S
C1010 H1018 0.930 . S
C1011 C1010 1.394 . S
C1011 C1012 1.383 . S
C1011 H1019 0.929 . S
C1012 C1011 1.383 . S
C1012 C1013 1.377 . S
C1013 H997 0.930 . S
C1013 C1012 1.377 . S
C1013 C1014 1.379 . S
C1014 H998 0.931 . S
C1014 C1008 1.383 . S
C1014 C1013 1.379 . S
H1015 C1009 0.959 . S
H1016 C1009 0.961 . S
H1017 C1009 0.960 . S
H1018 C1010 0.930 . S
H1019 C1011 0.929 . S
H1020 C1028 0.929 . S
H1021 C1030 0.930 . S
H1022 C1032 0.930 . S
H1023 C1035 0.929 . S
H1024 C1038 0.930 . S
H1025 C1040 0.960 . S
H1026 C1040 0.960 . S
H1027 C1040 0.960 . S
C1028 H1020 0.929 . S
C1028 C1029 1.377 . S
C1028 C1030 1.384 . S
C1029 C1028 1.377 . S
C1029 C1035 1.390 . S
C1030 H1021 0.930 . S
C1030 C1028 1.384 . S
C1030 C1031 1.372 . S
C1031 C1030 1.372 . S
C1031 C1032 1.400 . S
C1031 C1036 1.490 . S
C1032 H1022 0.930 . S
C1032 C1031 1.400 . S
C1032 C1035 1.386 . S
H1033 C1049 0.930 . S
H1034 C1050 0.931 . S
C1035 H1023 0.929 . S
C1035 C1029 1.390 . S
C1035 C1032 1.386 . S
C1036 C1031 1.490 . S
C1036 C1038 1.395 . S
C1036 C1039 1.403 . S
H1037 C1043 0.930 . S
C1038 H1024 0.930 . S
C1038 C1036 1.395 . S
C1038 C1041 1.403 . S
C1039 C1036 1.403 . S
C1039 C1040 1.524 . S
C1039 C1043 1.400 . S
C1040 H1025 0.960 . S
C1040 H1026 0.960 . S
C1040 H1027 0.960 . S
C1040 C1039 1.524 . S
C1041 C1038 1.403 . S
C1041 C1042 1.392 . S
C1041 C1045 1.495 . S
C1042 C1041 1.392 . S
C1042 C1043 1.385 . S
C1042 C1044 1.478 . S
C1043 H1037 0.930 . S
C1043 C1039 1.400 . S
C1043 C1042 1.385 . S
C1044 C1042 1.478 . S
C1044 C1046 1.381 . S
C1044 C1050 1.383 . S
C1045 C1041 1.495 . S
C1045 H1051 0.959 . S
C1045 H1052 0.961 . S
C1045 H1053 0.960 . S
C1046 C1044 1.381 . S
C1046 C1047 1.394 . S
C1046 H1054 0.930 . S
C1047 C1046 1.394 . S
C1047 C1048 1.383 . S
C1047 H1055 0.929 . S
C1048 C1047 1.383 . S
C1048 C1049 1.377 . S
C1049 H1033 0.930 . S
C1049 C1048 1.377 . S
C1049 C1050 1.379 . S
C1050 H1034 0.931 . S
C1050 C1044 1.383 . S
C1050 C1049 1.379 . S
H1051 C1045 0.959 . S
H1052 C1045 0.961 . S
H1053 C1045 0.960 . S
H1054 C1046 0.930 . S
H1055 C1047 0.929 . S
H1056 C1064 0.929 . S
H1057 C1066 0.930 . S
H1058 C1068 0.930 . S
H1059 C1071 0.929 . S
H1060 C1074 0.930 . S
H1061 C1076 0.960 . S
H1062 C1076 0.960 . S
H1063 C1076 0.960 . S
C1064 H1056 0.929 . S
C1064 C1065 1.377 . S
C1064 C1066 1.384 . S
C1065 C1064 1.377 . S
C1065 C1071 1.390 . S
C1066 H1057 0.930 . S
C1066 C1064 1.384 . S
C1066 C1067 1.372 . S
C1067 C1066 1.372 . S
C1067 C1068 1.400 . S
C1067 C1072 1.490 . S
C1068 H1058 0.930 . S
C1068 C1067 1.400 . S
C1068 C1071 1.386 . S
H1069 C1085 0.930 . S
H1070 C1086 0.931 . S
C1071 H1059 0.929 . S
C1071 C1065 1.390 . S
C1071 C1068 1.386 . S
C1072 C1067 1.490 . S
C1072 C1074 1.395 . S
C1072 C1075 1.403 . S
H1073 C1079 0.930 . S
C1074 H1060 0.930 . S
C1074 C1072 1.395 . S
C1074 C1077 1.403 1_455 S
C1075 C1072 1.403 . S
C1075 C1076 1.524 . S
C1075 C1079 1.400 1_455 S
C1076 H1061 0.960 . S
C1076 H1062 0.960 . S
C1076 H1063 0.960 . S
C1076 C1075 1.524 . S
C1077 C1074 1.403 1_655 S
C1077 C1078 1.392 . S
C1077 C1081 1.495 . S
C1078 C1077 1.392 . S
C1078 C1079 1.385 . S
C1078 C1080 1.478 . S
C1079 H1073 0.930 . S
C1079 C1075 1.400 1_655 S
C1079 C1078 1.385 . S
C1080 C1078 1.478 . S
C1080 C1082 1.381 . S
C1080 C1086 1.383 . S
C1081 C1077 1.495 . S
C1081 H1087 0.959 . S
C1081 H1088 0.961 . S
C1081 H1089 0.960 . S
C1082 C1080 1.381 . S
C1082 C1083 1.394 . S
C1082 H1090 0.930 . S
C1083 C1082 1.394 . S
C1083 C1084 1.383 . S
C1083 H1091 0.929 . S
C1084 C1083 1.383 . S
C1084 C1085 1.377 . S
C1085 H1069 0.930 . S
C1085 C1084 1.377 . S
C1085 C1086 1.379 . S
C1086 H1070 0.931 . S
C1086 C1080 1.383 . S
C1086 C1085 1.379 . S
H1087 C1081 0.959 . S
H1088 C1081 0.961 . S
H1089 C1081 0.960 . S
H1090 C1082 0.930 . S
H1091 C1083 0.929 . S
H1092 C1100 0.929 . S
H1093 C1102 0.930 . S
H1094 C1104 0.930 . S
H1095 C1107 0.929 . S
H1096 C1110 0.930 . S
H1097 C1112 0.960 . S
H1098 C1112 0.960 . S
H1099 C1112 0.960 . S
C1100 H1092 0.929 . S
C1100 C1101 1.377 . S
C1100 C1102 1.384 . S
C1101 C1100 1.377 . S
C1101 C1107 1.390 . S
C1102 H1093 0.930 . S
C1102 C1100 1.384 . S
C1102 C1103 1.372 . S
C1103 C1102 1.372 . S
C1103 C1104 1.400 . S
C1103 C1108 1.490 . S
C1104 H1094 0.930 . S
C1104 C1103 1.400 . S
C1104 C1107 1.386 . S
H1105 C1121 0.930 . S
H1106 C1122 0.931 . S
C1107 H1095 0.929 . S
C1107 C1101 1.390 . S
C1107 C1104 1.386 . S
C1108 C1103 1.490 . S
C1108 C1110 1.395 . S
C1108 C1111 1.403 1_556 S
H1109 C1115 0.930 . S
C1110 H1096 0.930 . S
C1110 C1108 1.395 . S
C1110 C1113 1.403 . S
C1111 C1108 1.403 1_554 S
C1111 C1112 1.524 . S
C1111 C1115 1.400 . S
C1112 H1097 0.960 . S
C1112 H1098 0.960 . S
C1112 H1099 0.960 . S
C1112 C1111 1.524 . S
C1113 C1110 1.403 . S
C1113 C1114 1.392 1_556 S
C1113 C1117 1.495 . S
C1114 C1113 1.392 1_554 S
C1114 C1115 1.385 . S
C1114 C1116 1.478 . S
C1115 H1109 0.930 . S
C1115 C1111 1.400 . S
C1115 C1114 1.385 . S
C1116 C1114 1.478 . S
C1116 C1118 1.381 . S
C1116 C1122 1.383 . S
C1117 C1113 1.495 . S
C1117 H1123 0.959 . S
C1117 H1124 0.961 . S
C1117 H1125 0.960 . S
C1118 C1116 1.381 . S
C1118 C1119 1.394 . S
C1118 H1126 0.930 . S
C1119 C1118 1.394 . S
C1119 C1120 1.383 . S
C1119 H1127 0.929 . S
C1120 C1119 1.383 . S
C1120 C1121 1.377 . S
C1121 H1105 0.930 . S
C1121 C1120 1.377 . S
C1121 C1122 1.379 . S
C1122 H1106 0.931 . S
C1122 C1116 1.383 . S
C1122 C1121 1.379 . S
H1123 C1117 0.959 . S
H1124 C1117 0.961 . S
H1125 C1117 0.960 . S
H1126 C1118 0.930 . S
H1127 C1119 0.929 . S
H1128 C1136 0.929 . S
H1129 C1138 0.930 . S
H1130 C1140 0.930 . S
H1131 C1143 0.929 . S
H1132 C1146 0.930 . S
H1133 C1148 0.960 . S
H1134 C1148 0.960 . S
H1135 C1148 0.960 . S
C1136 H1128 0.929 . S
C1136 C1137 1.377 . S
C1136 C1138 1.384 . S
C1137 C1136 1.377 . S
C1137 C1143 1.390 . S
C1138 H1129 0.930 . S
C1138 C1136 1.384 . S
C1138 C1139 1.372 . S
C1139 C1138 1.372 . S
C1139 C1140 1.400 . S
C1139 C1144 1.490 . S
C1140 H1130 0.930 . S
C1140 C1139 1.400 . S
C1140 C1143 1.386 . S
H1141 C1157 0.930 . S
H1142 C1158 0.931 . S
C1143 H1131 0.929 . S
C1143 C1137 1.390 . S
C1143 C1140 1.386 . S
C1144 C1139 1.490 . S
C1144 C1146 1.395 . S
C1144 C1147 1.403 . S
H1145 C1151 0.930 . S
C1146 H1132 0.930 . S
C1146 C1144 1.395 . S
C1146 C1149 1.403 . S
C1147 C1144 1.403 . S
C1147 C1148 1.524 . S
C1147 C1151 1.400 . S
C1148 H1133 0.960 . S
C1148 H1134 0.960 . S
C1148 H1135 0.960 . S
C1148 C1147 1.524 . S
C1149 C1146 1.403 . S
C1149 C1150 1.392 . S
C1149 C1153 1.495 . S
C1150 C1149 1.392 . S
C1150 C1151 1.385 . S
C1150 C1152 1.478 . S
C1151 H1145 0.930 . S
C1151 C1147 1.400 . S
C1151 C1150 1.385 . S
C1152 C1150 1.478 . S
C1152 C1154 1.381 . S
C1152 C1158 1.383 . S
C1153 C1149 1.495 . S
C1153 H1159 0.959 . S
C1153 H1160 0.961 . S
C1153 H1161 0.960 . S
C1154 C1152 1.381 . S
C1154 C1155 1.394 . S
C1154 H1162 0.930 . S
C1155 C1154 1.394 . S
C1155 C1156 1.383 . S
C1155 H1163 0.929 . S
C1156 C1155 1.383 . S
C1156 C1157 1.377 . S
C1157 H1141 0.930 . S
C1157 C1156 1.377 . S
C1157 C1158 1.379 . S
C1158 H1142 0.931 . S
C1158 C1152 1.383 . S
C1158 C1157 1.379 . S
H1159 C1153 0.959 . S
H1160 C1153 0.961 . S
H1161 C1153 0.960 . S
H1162 C1154 0.930 . S
H1163 C1155 0.929 . S
H1164 C1172 0.929 . S
H1165 C1174 0.930 . S
H1166 C1176 0.930 . S
H1167 C1179 0.929 . S
H1168 C1182 0.930 . S
H1169 C1184 0.960 . S
H1170 C1184 0.960 . S
H1171 C1184 0.960 . S
C1172 H1164 0.929 . S
C1172 C1173 1.377 . S
C1172 C1174 1.384 . S
C1173 C1172 1.377 . S
C1173 C1179 1.390 . S
C1174 H1165 0.930 . S
C1174 C1172 1.384 . S
C1174 C1175 1.372 . S
C1175 C1174 1.372 . S
C1175 C1176 1.400 . S
C1175 C1180 1.490 . S
C1176 H1166 0.930 . S
C1176 C1175 1.400 . S
C1176 C1179 1.386 . S
H1177 C1193 0.930 . S
H1178 C1194 0.931 . S
C1179 H1167 0.929 . S
C1179 C1173 1.390 . S
C1179 C1176 1.386 . S
C1180 C1175 1.490 . S
C1180 C1182 1.395 1_565 S
C1180 C1183 1.403 . S
H1181 C1187 0.930 . S
C1182 H1168 0.930 . S
C1182 C1180 1.395 1_545 S
C1182 C1185 1.403 . S
C1183 C1180 1.403 . S
C1183 C1184 1.524 . S
C1183 C1187 1.400 . S
C1184 H1169 0.960 . S
C1184 H1170 0.960 . S
C1184 H1171 0.960 . S
C1184 C1183 1.524 . S
C1185 C1182 1.403 . S
C1185 C1186 1.392 . S
C1185 C1189 1.495 . S
C1186 C1185 1.392 . S
C1186 C1187 1.385 1_545 S
C1186 C1188 1.478 . S
C1187 H1181 0.930 . S
C1187 C1183 1.400 . S
C1187 C1186 1.385 1_565 S
C1188 C1186 1.478 . S
C1188 C1190 1.381 . S
C1188 C1194 1.383 . S
C1189 C1185 1.495 . S
C1189 H1195 0.959 . S
C1189 H1196 0.961 . S
C1189 H1197 0.960 . S
C1190 C1188 1.381 . S
C1190 C1191 1.394 . S
C1190 H1198 0.930 . S
C1191 C1190 1.394 . S
C1191 C1192 1.383 . S
C1191 H1199 0.929 . S
C1192 C1191 1.383 . S
C1192 C1193 1.377 . S
C1193 H1177 0.930 . S
C1193 C1192 1.377 . S
C1193 C1194 1.379 . S
C1194 H1178 0.931 . S
C1194 C1188 1.383 . S
C1194 C1193 1.379 . S
H1195 C1189 0.959 . S
H1196 C1189 0.961 . S
H1197 C1189 0.960 . S
H1198 C1190 0.930 . S
H1199 C1191 0.929 . S
H1200 C1208 0.929 . S
H1201 C1210 0.930 . S
H1202 C1212 0.930 . S
H1203 C1215 0.929 . S
H1204 C1218 0.930 . S
H1205 C1220 0.960 . S
H1206 C1220 0.960 . S
H1207 C1220 0.960 . S
C1208 H1200 0.929 . S
C1208 C1209 1.377 . S
C1208 C1210 1.384 . S
C1209 C1208 1.377 . S
C1209 C1215 1.390 . S
C1210 H1201 0.930 . S
C1210 C1208 1.384 . S
C1210 C1211 1.372 . S
C1211 C1210 1.372 . S
C1211 C1212 1.400 . S
C1211 C1216 1.490 . S
C1212 H1202 0.930 . S
C1212 C1211 1.400 . S
C1212 C1215 1.386 . S
H1213 C1229 0.930 . S
H1214 C1230 0.931 . S
C1215 H1203 0.929 . S
C1215 C1209 1.390 . S
C1215 C1212 1.386 . S
C1216 C1211 1.490 . S
C1216 C1218 1.395 . S
C1216 C1219 1.403 . S
H1217 C1223 0.930 . S
C1218 H1204 0.930 . S
C1218 C1216 1.395 . S
C1218 C1221 1.403 . S
C1219 C1216 1.403 . S
C1219 C1220 1.524 . S
C1219 C1223 1.400 . S
C1220 H1205 0.960 . S
C1220 H1206 0.960 . S
C1220 H1207 0.960 . S
C1220 C1219 1.524 . S
C1221 C1218 1.403 . S
C1221 C1222 1.392 . S
C1221 C1225 1.495 . S
C1222 C1221 1.392 . S
C1222 C1223 1.385 . S
C1222 C1224 1.478 . S
C1223 H1217 0.930 . S
C1223 C1219 1.400 . S
C1223 C1222 1.385 . S
C1224 C1222 1.478 . S
C1224 C1226 1.381 . S
C1224 C1230 1.383 . S
C1225 C1221 1.495 . S
C1225 H1231 0.959 . S
C1225 H1232 0.961 . S
C1225 H1233 0.960 . S
C1226 C1224 1.381 . S
C1226 C1227 1.394 . S
C1226 H1234 0.930 . S
C1227 C1226 1.394 . S
C1227 C1228 1.383 . S
C1227 H1235 0.929 . S
C1228 C1227 1.383 . S
C1228 C1229 1.377 . S
C1229 H1213 0.930 . S
C1229 C1228 1.377 . S
C1229 C1230 1.379 . S
C1230 H1214 0.931 . S
C1230 C1224 1.383 . S
C1230 C1229 1.379 . S
H1231 C1225 0.959 . S
H1232 C1225 0.961 . S
H1233 C1225 0.960 . S
H1234 C1226 0.930 . S
H1235 C1227 0.929 . S
H1236 C1244 0.929 . S
H1237 C1246 0.930 . S
H1238 C1248 0.930 . S
H1239 C1251 0.929 . S
H1240 C1254 0.930 . S
H1241 C1256 0.960 . S
H1242 C1256 0.960 . S
H1243 C1256 0.960 . S
C1244 H1236 0.929 . S
C1244 C1245 1.377 . S
C1244 C1246 1.384 . S
C1245 C1244 1.377 . S
C1245 C1251 1.390 . S
C1246 H1237 0.930 . S
C1246 C1244 1.384 . S
C1246 C1247 1.372 . S
C1247 C1246 1.372 . S
C1247 C1248 1.400 . S
C1247 C1252 1.490 . S
C1248 H1238 0.930 . S
C1248 C1247 1.400 . S
C1248 C1251 1.386 . S
H1249 C1265 0.930 . S
H1250 C1266 0.931 . S
C1251 H1239 0.929 . S
C1251 C1245 1.390 . S
C1251 C1248 1.386 . S
C1252 C1247 1.490 . S
C1252 C1254 1.395 . S
C1252 C1255 1.403 . S
H1253 C1259 0.930 . S
C1254 H1240 0.930 . S
C1254 C1252 1.395 . S
C1254 C1257 1.403 . S
C1255 C1252 1.403 . S
C1255 C1256 1.524 . S
C1255 C1259 1.400 . S
C1256 H1241 0.960 . S
C1256 H1242 0.960 . S
C1256 H1243 0.960 . S
C1256 C1255 1.524 . S
C1257 C1254 1.403 . S
C1257 C1258 1.392 . S
C1257 C1261 1.495 . S
C1258 C1257 1.392 . S
C1258 C1259 1.385 . S
C1258 C1260 1.478 . S
C1259 H1253 0.930 . S
C1259 C1255 1.400 . S
C1259 C1258 1.385 . S
C1260 C1258 1.478 . S
C1260 C1262 1.381 . S
C1260 C1266 1.383 . S
C1261 C1257 1.495 . S
C1261 H1267 0.959 . S
C1261 H1268 0.961 . S
C1261 H1269 0.960 . S
C1262 C1260 1.381 . S
C1262 C1263 1.394 . S
C1262 H1270 0.930 . S
C1263 C1262 1.394 . S
C1263 C1264 1.383 . S
C1263 H1271 0.929 . S
C1264 C1263 1.383 . S
C1264 C1265 1.377 . S
C1265 H1249 0.930 . S
C1265 C1264 1.377 . S
C1265 C1266 1.379 . S
C1266 H1250 0.931 . S
C1266 C1260 1.383 . S
C1266 C1265 1.379 . S
H1267 C1261 0.959 . S
H1268 C1261 0.961 . S
H1269 C1261 0.960 . S
H1270 C1262 0.930 . S
H1271 C1263 0.929 . S
H1272 C1280 0.929 . S
H1273 C1282 0.930 . S
H1274 C1284 0.930 . S
H1275 C1287 0.929 . S
H1276 C1290 0.930 . S
H1277 C1292 0.960 . S
H1278 C1292 0.960 . S
H1279 C1292 0.960 . S
C1280 H1272 0.929 . S
C1280 C1281 1.377 . S
C1280 C1282 1.384 . S
C1281 C1280 1.377 . S
C1281 C1287 1.390 . S
C1282 H1273 0.930 . S
C1282 C1280 1.384 . S
C1282 C1283 1.372 . S
C1283 C1282 1.372 . S
C1283 C1284 1.400 . S
C1283 C1288 1.490 . S
C1284 H1274 0.930 . S
C1284 C1283 1.400 . S
C1284 C1287 1.386 . S
H1285 C1301 0.930 . S
H1286 C1302 0.931 . S
C1287 H1275 0.929 . S
C1287 C1281 1.390 . S
C1287 C1284 1.386 . S
C1288 C1283 1.490 . S
C1288 C1290 1.395 . S
C1288 C1291 1.403 . S
H1289 C1295 0.930 . S
C1290 H1276 0.930 . S
C1290 C1288 1.395 . S
C1290 C1293 1.403 . S
C1291 C1288 1.403 . S
C1291 C1292 1.524 . S
C1291 C1295 1.400 . S
C1292 H1277 0.960 . S
C1292 H1278 0.960 . S
C1292 H1279 0.960 . S
C1292 C1291 1.524 . S
C1293 C1290 1.403 . S
C1293 C1294 1.392 . S
C1293 C1297 1.495 . S
C1294 C1293 1.392 . S
C1294 C1295 1.385 . S
C1294 C1296 1.478 . S
C1295 H1289 0.930 . S
C1295 C1291 1.400 . S
C1295 C1294 1.385 . S
C1296 C1294 1.478 . S
C1296 C1298 1.381 . S
C1296 C1302 1.383 . S
C1297 C1293 1.495 . S
C1297 H1303 0.959 . S
C1297 H1304 0.961 . S
C1297 H1305 0.960 . S
C1298 C1296 1.381 . S
C1298 C1299 1.394 . S
C1298 H1306 0.930 . S
C1299 C1298 1.394 . S
C1299 C1300 1.383 . S
C1299 H1307 0.929 . S
C1300 C1299 1.383 . S
C1300 C1301 1.377 . S
C1301 H1285 0.930 . S
C1301 C1300 1.377 . S
C1301 C1302 1.379 . S
C1302 H1286 0.931 . S
C1302 C1296 1.383 . S
C1302 C1301 1.379 . S
H1303 C1297 0.959 . S
H1304 C1297 0.961 . S
H1305 C1297 0.960 . S
H1306 C1298 0.930 . S
H1307 C1299 0.929 . S
H1308 C1316 0.929 . S
H1309 C1318 0.930 . S
H1310 C1320 0.930 . S
H1311 C1323 0.929 . S
H1312 C1326 0.930 . S
H1313 C1328 0.960 . S
H1314 C1328 0.960 . S
H1315 C1328 0.960 . S
C1316 H1308 0.929 . S
C1316 C1317 1.377 . S
C1316 C1318 1.384 . S
C1317 C1316 1.377 . S
C1317 C1323 1.390 . S
C1318 H1309 0.930 . S
C1318 C1316 1.384 . S
C1318 C1319 1.372 . S
C1319 C1318 1.372 . S
C1319 C1320 1.400 . S
C1319 C1324 1.490 . S
C1320 H1310 0.930 . S
C1320 C1319 1.400 . S
C1320 C1323 1.386 . S
H1321 C1337 0.930 . S
H1322 C1338 0.931 . S
C1323 H1311 0.929 . S
C1323 C1317 1.390 . S
C1323 C1320 1.386 . S
C1324 C1319 1.490 . S
C1324 C1326 1.395 1_556 S
C1324 C1327 1.403 . S
H1325 C1331 0.930 . S
C1326 H1312 0.930 . S
C1326 C1324 1.395 1_554 S
C1326 C1329 1.403 . S
C1327 C1324 1.403 . S
C1327 C1328 1.524 . S
C1327 C1331 1.400 . S
C1328 H1313 0.960 . S
C1328 H1314 0.960 . S
C1328 H1315 0.960 . S
C1328 C1327 1.524 . S
C1329 C1326 1.403 . S
C1329 C1330 1.392 . S
C1329 C1333 1.495 . S
C1330 C1329 1.392 . S
C1330 C1331 1.385 1_554 S
C1330 C1332 1.478 . S
C1331 H1325 0.930 . S
C1331 C1327 1.400 . S
C1331 C1330 1.385 1_556 S
C1332 C1330 1.478 . S
C1332 C1334 1.381 . S
C1332 C1338 1.383 . S
C1333 C1329 1.495 . S
C1333 H1339 0.959 . S
C1333 H1340 0.961 . S
C1333 H1341 0.960 . S
C1334 C1332 1.381 . S
C1334 C1335 1.394 . S
C1334 H1342 0.930 . S
C1335 C1334 1.394 . S
C1335 C1336 1.383 . S
C1335 H1343 0.929 . S
C1336 C1335 1.383 . S
C1336 C1337 1.377 . S
C1337 H1321 0.930 . S
C1337 C1336 1.377 . S
C1337 C1338 1.379 . S
C1338 H1322 0.931 . S
C1338 C1332 1.383 . S
C1338 C1337 1.379 . S
H1339 C1333 0.959 . S
H1340 C1333 0.961 . S
H1341 C1333 0.960 . S
H1342 C1334 0.930 . S
H1343 C1335 0.929 . S
H1344 C1352 0.929 . S
H1345 C1354 0.930 . S
H1346 C1356 0.930 . S
H1347 C1359 0.929 . S
H1348 C1362 0.930 . S
H1349 C1364 0.960 . S
H1350 C1364 0.960 . S
H1351 C1364 0.960 . S
C1352 H1344 0.929 . S
C1352 C1353 1.377 . S
C1352 C1354 1.384 . S
C1353 C1352 1.377 . S
C1353 C1359 1.390 . S
C1354 H1345 0.930 . S
C1354 C1352 1.384 . S
C1354 C1355 1.372 . S
C1355 C1354 1.372 . S
C1355 C1356 1.400 . S
C1355 C1360 1.490 . S
C1356 H1346 0.930 . S
C1356 C1355 1.400 . S
C1356 C1359 1.386 . S
H1357 C1373 0.930 . S
H1358 C1374 0.931 . S
C1359 H1347 0.929 . S
C1359 C1353 1.390 . S
C1359 C1356 1.386 . S
C1360 C1355 1.490 . S
C1360 C1362 1.395 . S
C1360 C1363 1.403 . S
H1361 C1367 0.930 . S
C1362 H1348 0.930 . S
C1362 C1360 1.395 . S
C1362 C1365 1.403 . S
C1363 C1360 1.403 . S
C1363 C1364 1.524 . S
C1363 C1367 1.400 . S
C1364 H1349 0.960 . S
C1364 H1350 0.960 . S
C1364 H1351 0.960 . S
C1364 C1363 1.524 . S
C1365 C1362 1.403 . S
C1365 C1366 1.392 . S
C1365 C1369 1.495 . S
C1366 C1365 1.392 . S
C1366 C1367 1.385 . S
C1366 C1368 1.478 . S
C1367 H1361 0.930 . S
C1367 C1363 1.400 . S
C1367 C1366 1.385 . S
C1368 C1366 1.478 . S
C1368 C1370 1.381 . S
C1368 C1374 1.383 . S
C1369 C1365 1.495 . S
C1369 H1375 0.959 . S
C1369 H1376 0.961 . S
C1369 H1377 0.960 . S
C1370 C1368 1.381 . S
C1370 C1371 1.394 . S
C1370 H1378 0.930 . S
C1371 C1370 1.394 . S
C1371 C1372 1.383 . S
C1371 H1379 0.929 . S
C1372 C1371 1.383 . S
C1372 C1373 1.377 . S
C1373 H1357 0.930 . S
C1373 C1372 1.377 . S
C1373 C1374 1.379 . S
C1374 H1358 0.931 . S
C1374 C1368 1.383 . S
C1374 C1373 1.379 . S
H1375 C1369 0.959 . S
H1376 C1369 0.961 . S
H1377 C1369 0.960 . S
H1378 C1370 0.930 . S
H1379 C1371 0.929 . S
H1380 C1388 0.929 . S
H1381 C1390 0.930 . S
H1382 C1392 0.930 . S
H1383 C1395 0.929 . S
H1384 C1398 0.930 . S
H1385 C1400 0.960 . S
H1386 C1400 0.960 . S
H1387 C1400 0.960 . S
C1388 H1380 0.929 . S
C1388 C1389 1.377 . S
C1388 C1390 1.384 . S
C1389 C1388 1.377 . S
C1389 C1395 1.390 . S
C1390 H1381 0.930 . S
C1390 C1388 1.384 . S
C1390 C1391 1.372 . S
C1391 C1390 1.372 . S
C1391 C1392 1.400 . S
C1391 C1396 1.490 . S
C1392 H1382 0.930 . S
C1392 C1391 1.400 . S
C1392 C1395 1.386 . S
H1393 C1409 0.930 . S
H1394 C1410 0.931 . S
C1395 H1383 0.929 . S
C1395 C1389 1.390 . S
C1395 C1392 1.386 . S
C1396 C1391 1.490 . S
C1396 C1398 1.395 1_545 S
C1396 C1399 1.403 . S
H1397 C1403 0.930 . S
C1398 H1384 0.930 . S
C1398 C1396 1.395 1_565 S
C1398 C1401 1.403 . S
C1399 C1396 1.403 . S
C1399 C1400 1.524 . S
C1399 C1403 1.400 . S
C1400 H1385 0.960 . S
C1400 H1386 0.960 . S
C1400 H1387 0.960 . S
C1400 C1399 1.524 . S
C1401 C1398 1.403 . S
C1401 C1402 1.392 . S
C1401 C1405 1.495 . S
C1402 C1401 1.392 . S
C1402 C1403 1.385 1_565 S
C1402 C1404 1.478 . S
C1403 H1397 0.930 . S
C1403 C1399 1.400 . S
C1403 C1402 1.385 1_545 S
C1404 C1402 1.478 . S
C1404 C1406 1.381 . S
C1404 C1410 1.383 . S
C1405 C1401 1.495 . S
C1405 H1411 0.959 . S
C1405 H1412 0.961 . S
C1405 H1413 0.960 . S
C1406 C1404 1.381 . S
C1406 C1407 1.394 . S
C1406 H1414 0.930 . S
C1407 C1406 1.394 . S
C1407 C1408 1.383 . S
C1407 H1415 0.929 . S
C1408 C1407 1.383 . S
C1408 C1409 1.377 . S
C1409 H1393 0.930 . S
C1409 C1408 1.377 . S
C1409 C1410 1.379 . S
C1410 H1394 0.931 . S
C1410 C1404 1.383 . S
C1410 C1409 1.379 . S
H1411 C1405 0.959 . S
H1412 C1405 0.961 . S
H1413 C1405 0.960 . S
H1414 C1406 0.930 . S
H1415 C1407 0.929 . S
H1416 C1424 0.929 . S
H1417 C1426 0.930 . S
H1418 C1428 0.930 . S
H1419 C1431 0.929 . S
H1420 C1434 0.931 . S
H1421 C1436 0.960 . S
H1422 C1436 0.960 . S
H1423 C1436 0.960 . S
C1424 H1416 0.929 . S
C1424 C1425 1.377 . S
C1424 C1426 1.384 . S
C1425 C1424 1.377 . S
C1425 C1431 1.390 . S
C1426 H1417 0.930 . S
C1426 C1424 1.384 . S
C1426 C1427 1.372 . S
C1427 C1426 1.372 . S
C1427 C1428 1.400 . S
C1427 C1432 1.490 . S
C1428 H1418 0.930 . S
C1428 C1427 1.400 . S
C1428 C1431 1.386 . S
H1429 C1445 0.930 . S
H1430 C1446 0.931 . S
C1431 H1419 0.929 . S
C1431 C1425 1.390 . S
C1431 C1428 1.386 . S
C1432 C1427 1.490 . S
C1432 C1434 1.402 . S
C1432 C1435 1.403 . S
H1433 C1439 0.930 . S
C1434 H1420 0.931 . S
C1434 C1432 1.402 . S
C1434 C1437 1.395 1_554 S
C1435 C1432 1.403 . S
C1435 C1436 1.524 . S
C1435 C1439 1.400 1_554 S
C1436 H1421 0.960 . S
C1436 H1422 0.960 . S
C1436 H1423 0.960 . S
C1436 C1435 1.524 . S
C1437 C1434 1.395 1_556 S
C1437 C1438 1.392 . S
C1437 C1441 1.495 . S
C1438 C1437 1.392 . S
C1438 C1439 1.385 . S
C1438 C1440 1.478 . S
C1439 H1433 0.930 . S
C1439 C1435 1.400 1_556 S
C1439 C1438 1.385 . S
C1440 C1438 1.478 . S
C1440 C1442 1.381 . S
C1440 C1446 1.383 . S
C1441 C1437 1.495 . S
C1441 H1447 0.959 . S
C1441 H1448 0.961 . S
C1441 H1449 0.960 . S
C1442 C1440 1.381 . S
C1442 C1443 1.394 . S
C1442 H1450 0.930 . S
C1443 C1442 1.394 . S
C1443 C1444 1.383 . S
C1443 H1451 0.929 . S
C1444 C1443 1.383 . S
C1444 C1445 1.377 . S
C1445 H1429 0.930 . S
C1445 C1444 1.377 . S
C1445 C1446 1.379 . S
C1446 H1430 0.931 . S
C1446 C1440 1.383 . S
C1446 C1445 1.379 . S
H1447 C1441 0.959 . S
H1448 C1441 0.961 . S
H1449 C1441 0.960 . S
H1450 C1442 0.930 . S
H1451 C1443 0.929 . S
H1452 C1460 0.929 . S
H1453 C1462 0.930 . S
H1454 C1464 0.930 . S
H1455 C1467 0.929 . S
H1456 C1470 0.930 . S
H1457 C1472 0.960 1_565 S
H1458 C1472 0.960 . S
H1459 C1472 0.960 1_565 S
C1460 H1452 0.929 . S
C1460 C1461 1.377 . S
C1460 C1462 1.384 . S
C1461 C1460 1.377 . S
C1461 C1467 1.390 . S
C1462 H1453 0.930 . S
C1462 C1460 1.384 . S
C1462 C1463 1.372 . S
C1463 C1462 1.372 . S
C1463 C1464 1.400 . S
C1463 C1468 1.490 . S
C1464 H1454 0.930 . S
C1464 C1463 1.400 . S
C1464 C1467 1.386 . S
H1465 C1481 0.930 . S
H1466 C1482 0.931 . S
C1467 H1455 0.929 . S
C1467 C1461 1.390 . S
C1467 C1464 1.386 . S
C1468 C1463 1.490 . S
C1468 C1470 1.395 . S
C1468 C1471 1.403 . S
H1469 C1475 0.930 . S
C1470 H1456 0.930 . S
C1470 C1468 1.395 . S
C1470 C1473 1.423 . S
C1471 C1468 1.403 . S
C1471 C1472 1.524 . S
C1471 C1475 1.400 1_545 S
C1472 H1457 0.960 1_545 S
C1472 H1458 0.960 . S
C1472 H1459 0.960 1_545 S
C1472 C1471 1.524 . S
C1473 C1470 1.423 . S
C1473 C1474 1.374 1_545 S
C1473 C1477 1.495 . S
C1474 C1473 1.374 1_565 S
C1474 C1475 1.385 . S
C1474 C1476 1.478 . S
C1475 H1469 0.930 . S
C1475 C1471 1.400 1_565 S
C1475 C1474 1.385 . S
C1476 C1474 1.478 . S
C1476 C1478 1.381 . S
C1476 C1482 1.383 . S
C1477 C1473 1.495 . S
C1477 H1483 0.967 . S
C1477 H1484 0.951 1_545 S
C1477 H1485 0.962 . S
C1478 C1476 1.381 . S
C1478 C1479 1.394 . S
C1478 H1486 0.930 . S
C1479 C1478 1.394 . S
C1479 C1480 1.383 . S
C1479 H1487 0.929 . S
C1480 C1479 1.383 . S
C1480 C1481 1.377 . S
C1481 H1465 0.930 . S
C1481 C1480 1.377 . S
C1481 C1482 1.379 . S
C1482 H1466 0.931 . S
C1482 C1476 1.383 . S
C1482 C1481 1.379 . S
H1483 C1477 0.967 . S
H1484 C1477 0.951 1_565 S
H1485 C1477 0.962 . S
H1486 C1478 0.930 . S
H1487 C1479 0.929 . S
H1488 C1496 0.929 . S
H1489 C1498 0.930 . S
H1490 C1500 0.930 . S
H1491 C1503 0.929 . S
H1492 C1506 0.930 . S
H1493 C1508 0.960 . S
H1494 C1508 0.960 . S
H1495 C1508 0.960 . S
C1496 H1488 0.929 . S
C1496 C1497 1.377 . S
C1496 C1498 1.384 . S
C1497 C1496 1.377 . S
C1497 C1503 1.390 . S
C1498 H1489 0.930 . S
C1498 C1496 1.384 . S
C1498 C1499 1.372 . S
C1499 C1498 1.372 . S
C1499 C1500 1.400 . S
C1499 C1504 1.490 . S
C1500 H1490 0.930 . S
C1500 C1499 1.400 . S
C1500 C1503 1.386 . S
H1501 C1517 0.930 . S
H1502 C1518 0.931 . S
C1503 H1491 0.929 . S
C1503 C1497 1.390 . S
C1503 C1500 1.386 . S
C1504 C1499 1.490 . S
C1504 C1506 1.395 . S
C1504 C1507 1.403 . S
H1505 C1511 0.930 . S
C1506 H1492 0.930 . S
C1506 C1504 1.395 . S
C1506 C1509 1.403 . S
C1507 C1504 1.403 . S
C1507 C1508 1.524 . S
C1507 C1511 1.400 . S
C1508 H1493 0.960 . S
C1508 H1494 0.960 . S
C1508 H1495 0.960 . S
C1508 C1507 1.524 . S
C1509 C1506 1.403 . S
C1509 C1510 1.392 . S
C1509 C1513 1.495 . S
C1510 C1509 1.392 . S
C1510 C1511 1.385 . S
C1510 C1512 1.478 . S
C1511 H1505 0.930 . S
C1511 C1507 1.400 . S
C1511 C1510 1.385 . S
C1512 C1510 1.478 . S
C1512 C1514 1.381 . S
C1512 C1518 1.383 . S
C1513 C1509 1.495 . S
C1513 H1519 0.959 . S
C1513 H1520 0.961 . S
C1513 H1521 0.960 . S
C1514 C1512 1.381 . S
C1514 C1515 1.394 . S
C1514 H1522 0.930 . S
C1515 C1514 1.394 . S
C1515 C1516 1.383 . S
C1515 H1523 0.929 . S
C1516 C1515 1.383 . S
C1516 C1517 1.377 . S
C1517 H1501 0.930 . S
C1517 C1516 1.377 . S
C1517 C1518 1.379 . S
C1518 H1502 0.931 . S
C1518 C1512 1.383 . S
C1518 C1517 1.379 . S
H1519 C1513 0.959 . S
H1520 C1513 0.961 . S
H1521 C1513 0.960 . S
H1522 C1514 0.930 . S
H1523 C1515 0.929 . S
H1524 C1532 0.929 . S
H1525 C1534 0.930 . S
H1526 C1536 0.930 . S
H1527 C1539 0.929 . S
H1528 C1542 0.930 . S
H1529 C1544 0.960 . S
H1530 C1544 0.960 1_655 S
H1531 C1544 0.960 . S
C1532 H1524 0.929 . S
C1532 C1533 1.377 . S
C1532 C1534 1.384 . S
C1533 C1532 1.377 . S
C1533 C1539 1.390 . S
C1534 H1525 0.930 . S
C1534 C1532 1.384 . S
C1534 C1535 1.372 . S
C1535 C1534 1.372 . S
C1535 C1536 1.400 . S
C1535 C1540 1.490 . S
C1536 H1526 0.930 . S
C1536 C1535 1.400 . S
C1536 C1539 1.386 . S
H1537 C1553 0.930 . S
H1538 C1554 0.931 . S
C1539 H1527 0.929 . S
C1539 C1533 1.390 . S
C1539 C1536 1.386 . S
C1540 C1535 1.490 . S
C1540 C1542 1.395 . S
C1540 C1543 1.403 1_655 S
H1541 C1547 0.930 . S
C1542 H1528 0.930 . S
C1542 C1540 1.395 . S
C1542 C1545 1.403 . S
C1543 C1540 1.403 1_455 S
C1543 C1544 1.524 . S
C1543 C1547 1.400 . S
C1544 H1529 0.960 . S
C1544 H1530 0.960 1_455 S
C1544 H1531 0.960 . S
C1544 C1543 1.524 . S
C1545 C1542 1.403 . S
C1545 C1546 1.392 1_655 S
C1545 C1549 1.495 . S
C1546 C1545 1.392 1_455 S
C1546 C1547 1.385 . S
C1546 C1548 1.478 . S
C1547 H1541 0.930 . S
C1547 C1543 1.400 . S
C1547 C1546 1.385 . S
C1548 C1546 1.478 . S
C1548 C1550 1.381 . S
C1548 C1554 1.383 . S
C1549 C1545 1.495 . S
C1549 H1555 0.959 . S
C1549 H1556 0.956 1_655 S
C1549 H1557 0.960 . S
C1550 C1548 1.381 . S
C1550 C1551 1.394 . S
C1550 H1558 0.930 . S
C1551 C1550 1.394 . S
C1551 C1552 1.383 . S
C1551 H1559 0.929 . S
C1552 C1551 1.383 . S
C1552 C1553 1.377 . S
C1553 H1537 0.930 . S
C1553 C1552 1.377 . S
C1553 C1554 1.379 . S
C1554 H1538 0.931 . S
C1554 C1548 1.383 . S
C1554 C1553 1.379 . S
H1555 C1549 0.959 . S
H1556 C1549 0.956 1_455 S
H1557 C1549 0.960 . S
H1558 C1550 0.930 . S
H1559 C1551 0.929 . S
H1560 C1568 0.929 . S
H1561 C1570 0.930 . S
H1562 C1572 0.930 . S
H1563 C1575 0.929 . S
H1564 C1578 0.930 . S
H1565 C1580 0.960 . S
H1566 C1580 0.960 . S
H1567 C1580 0.960 . S
C1568 H1560 0.929 . S
C1568 C1569 1.377 . S
C1568 C1570 1.384 . S
C1569 C1568 1.377 . S
C1569 C1575 1.390 . S
C1570 H1561 0.930 . S
C1570 C1568 1.384 . S
C1570 C1571 1.372 . S
C1571 C1570 1.372 . S
C1571 C1572 1.400 . S
C1571 C1576 1.490 . S
C1572 H1562 0.930 . S
C1572 C1571 1.400 . S
C1572 C1575 1.386 . S
H1573 C1589 0.930 . S
H1574 C1590 0.931 . S
C1575 H1563 0.929 . S
C1575 C1569 1.390 . S
C1575 C1572 1.386 . S
C1576 C1571 1.490 . S
C1576 C1578 1.395 . S
C1576 C1579 1.403 1_455 S
H1577 C1583 0.930 . S
C1578 H1564 0.930 . S
C1578 C1576 1.395 . S
C1578 C1581 1.403 . S
C1579 C1576 1.403 1_655 S
C1579 C1580 1.524 . S
C1579 C1583 1.400 . S
C1580 H1565 0.960 . S
C1580 H1566 0.960 . S
C1580 H1567 0.960 . S
C1580 C1579 1.524 . S
C1581 C1578 1.403 . S
C1581 C1582 1.392 1_455 S
C1581 C1585 1.495 . S
C1582 C1581 1.392 1_655 S
C1582 C1583 1.385 . S
C1582 C1584 1.478 . S
C1583 H1577 0.930 . S
C1583 C1579 1.400 . S
C1583 C1582 1.385 . S
C1584 C1582 1.478 . S
C1584 C1586 1.381 . S
C1584 C1590 1.383 . S
C1585 C1581 1.495 . S
C1585 H1591 0.959 . S
C1585 H1592 0.961 . S
C1585 H1593 0.960 . S
C1586 C1584 1.381 . S
C1586 C1587 1.394 . S
C1586 H1594 0.930 . S
C1587 C1586 1.394 . S
C1587 C1588 1.383 . S
C1587 H1595 0.929 . S
C1588 C1587 1.383 . S
C1588 C1589 1.377 . S
C1589 H1573 0.930 . S
C1589 C1588 1.377 . S
C1589 C1590 1.379 . S
C1590 H1574 0.931 . S
C1590 C1584 1.383 . S
C1590 C1589 1.379 . S
H1591 C1585 0.959 . S
H1592 C1585 0.961 . S
H1593 C1585 0.960 . S
H1594 C1586 0.930 . S
H1595 C1587 0.929 . S
H1596 C1604 0.929 . S
H1597 C1606 0.930 . S
H1598 C1608 0.930 . S
H1599 C1611 0.929 . S
H1600 C1614 0.930 . S
H1601 C1616 0.960 . S
H1602 C1616 0.960 . S
H1603 C1616 0.960 . S
C1604 H1596 0.929 . S
C1604 C1605 1.377 . S
C1604 C1606 1.384 . S
C1605 C1604 1.377 . S
C1605 C1611 1.390 . S
C1606 H1597 0.930 . S
C1606 C1604 1.384 . S
C1606 C1607 1.372 . S
C1607 C1606 1.372 . S
C1607 C1608 1.400 . S
C1607 C1612 1.490 . S
C1608 H1598 0.930 . S
C1608 C1607 1.400 . S
C1608 C1611 1.386 . S
H1609 C1625 0.930 . S
H1610 C1626 0.931 . S
C1611 H1599 0.929 . S
C1611 C1605 1.390 . S
C1611 C1608 1.386 . S
C1612 C1607 1.490 . S
C1612 C1614 1.395 . S
C1612 C1615 1.403 . S
H1613 C1619 0.930 . S
C1614 H1600 0.930 . S
C1614 C1612 1.395 . S
C1614 C1617 1.403 . S
C1615 C1612 1.403 . S
C1615 C1616 1.524 . S
C1615 C1619 1.400 . S
C1616 H1601 0.960 . S
C1616 H1602 0.960 . S
C1616 H1603 0.960 . S
C1616 C1615 1.524 . S
C1617 C1614 1.403 . S
C1617 C1618 1.392 . S
C1617 C1621 1.495 . S
C1618 C1617 1.392 . S
C1618 C1619 1.385 . S
C1618 C1620 1.478 . S
C1619 H1613 0.930 . S
C1619 C1615 1.400 . S
C1619 C1618 1.385 . S
C1620 C1618 1.478 . S
C1620 C1622 1.381 . S
C1620 C1626 1.383 . S
C1621 C1617 1.495 . S
C1621 H1627 0.959 . S
C1621 H1628 0.961 . S
C1621 H1629 0.960 . S
C1622 C1620 1.381 . S
C1622 C1623 1.394 . S
C1622 H1630 0.930 . S
C1623 C1622 1.394 . S
C1623 C1624 1.383 . S
C1623 H1631 0.929 . S
C1624 C1623 1.383 . S
C1624 C1625 1.377 . S
C1625 H1609 0.930 . S
C1625 C1624 1.377 . S
C1625 C1626 1.379 . S
C1626 H1610 0.931 . S
C1626 C1620 1.383 . S
C1626 C1625 1.379 . S
H1627 C1621 0.959 . S
H1628 C1621 0.961 . S
H1629 C1621 0.960 . S
H1630 C1622 0.930 . S
H1631 C1623 0.929 . S
H1632 C1640 0.929 . S
H1633 C1642 0.930 . S
H1634 C1644 0.930 . S
H1635 C1647 0.929 . S
H1636 C1650 0.930 . S
H1637 C1652 0.960 . S
H1638 C1652 0.960 . S
H1639 C1652 0.960 . S
C1640 H1632 0.929 . S
C1640 C1641 1.377 . S
C1640 C1642 1.384 . S
C1641 C1640 1.377 . S
C1641 C1647 1.390 . S
C1642 H1633 0.930 . S
C1642 C1640 1.384 . S
C1642 C1643 1.372 . S
C1643 C1642 1.372 . S
C1643 C1644 1.400 . S
C1643 C1648 1.490 . S
C1644 H1634 0.930 . S
C1644 C1643 1.400 . S
C1644 C1647 1.386 . S
H1645 C1661 0.930 . S
H1646 C1662 0.931 . S
C1647 H1635 0.929 . S
C1647 C1641 1.390 . S
C1647 C1644 1.386 . S
C1648 C1643 1.490 . S
C1648 C1650 1.395 1_455 S
C1648 C1651 1.403 . S
H1649 C1655 0.932 . S
C1650 H1636 0.930 . S
C1650 C1648 1.395 1_655 S
C1650 C1653 1.403 . S
C1651 C1648 1.403 . S
C1651 C1652 1.524 . S
C1651 C1655 1.400 1_455 S
C1652 H1637 0.960 . S
C1652 H1638 0.960 . S
C1652 H1639 0.960 . S
C1652 C1651 1.524 . S
C1653 C1650 1.403 . S
C1653 C1654 1.392 . S
C1653 C1657 1.495 . S
C1654 C1653 1.392 . S
C1654 C1655 1.385 . S
C1654 C1656 1.478 . S
C1655 H1649 0.932 . S
C1655 C1651 1.400 1_655 S
C1655 C1654 1.385 . S
C1656 C1654 1.478 . S
C1656 C1658 1.381 . S
C1656 C1662 1.383 . S
C1657 C1653 1.495 . S
C1657 H1663 0.959 . S
C1657 H1664 0.961 . S
C1657 H1665 0.960 . S
C1658 C1656 1.381 . S
C1658 C1659 1.394 . S
C1658 H1666 0.930 . S
C1659 C1658 1.394 . S
C1659 C1660 1.383 . S
C1659 H1667 0.929 . S
C1660 C1659 1.383 . S
C1660 C1661 1.377 . S
C1661 H1645 0.930 . S
C1661 C1660 1.377 . S
C1661 C1662 1.379 . S
C1662 H1646 0.931 . S
C1662 C1656 1.383 . S
C1662 C1661 1.379 . S
H1663 C1657 0.959 . S
H1664 C1657 0.961 . S
H1665 C1657 0.960 . S
H1666 C1658 0.930 . S
H1667 C1659 0.929 . S
H1668 C1676 0.929 . S
H1669 C1678 0.930 . S
H1670 C1680 0.930 . S
H1671 C1683 0.929 . S
H1672 C1686 0.930 . S
H1673 C1688 0.960 . S
H1674 C1688 0.960 . S
H1675 C1688 0.960 . S
C1676 H1668 0.929 . S
C1676 C1677 1.377 . S
C1676 C1678 1.384 . S
C1677 C1676 1.377 . S
C1677 C1683 1.390 . S
C1678 H1669 0.930 . S
C1678 C1676 1.384 . S
C1678 C1679 1.372 . S
C1679 C1678 1.372 . S
C1679 C1680 1.400 . S
C1679 C1684 1.490 . S
C1680 H1670 0.930 . S
C1680 C1679 1.400 . S
C1680 C1683 1.386 . S
H1681 C1697 0.930 . S
H1682 C1698 0.931 . S
C1683 H1671 0.929 . S
C1683 C1677 1.390 . S
C1683 C1680 1.386 . S
C1684 C1679 1.490 . S
C1684 C1686 1.395 1_455 S
C1684 C1687 1.403 . S
H1685 C1691 0.930 . S
C1686 H1672 0.930 . S
C1686 C1684 1.395 1_655 S
C1686 C1689 1.403 . S
C1687 C1684 1.403 . S
C1687 C1688 1.524 . S
C1687 C1691 1.400 . S
C1688 H1673 0.960 . S
C1688 H1674 0.960 . S
C1688 H1675 0.960 . S
C1688 C1687 1.524 . S
C1689 C1686 1.403 . S
C1689 C1690 1.392 . S
C1689 C1693 1.495 . S
C1690 C1689 1.392 . S
C1690 C1691 1.385 1_655 S
C1690 C1692 1.478 . S
C1691 H1685 0.930 . S
C1691 C1687 1.400 . S
C1691 C1690 1.385 1_455 S
C1692 C1690 1.478 . S
C1692 C1694 1.381 . S
C1692 C1698 1.383 . S
C1693 C1689 1.495 . S
C1693 H1699 0.959 . S
C1693 H1700 0.961 . S
C1693 H1701 0.960 . S
C1694 C1692 1.381 . S
C1694 C1695 1.394 . S
C1694 H1702 0.930 . S
C1695 C1694 1.394 . S
C1695 C1696 1.383 . S
C1695 H1703 0.929 . S
C1696 C1695 1.383 . S
C1696 C1697 1.377 . S
C1697 H1681 0.930 . S
C1697 C1696 1.377 . S
C1697 C1698 1.379 . S
C1698 H1682 0.931 . S
C1698 C1692 1.383 . S
C1698 C1697 1.379 . S
H1699 C1693 0.959 . S
H1700 C1693 0.961 . S
H1701 C1693 0.960 . S
H1702 C1694 0.930 . S
H1703 C1695 0.929 . S
H1704 C1712 0.929 . S
H1705 C1714 0.930 . S
H1706 C1716 0.930 . S
H1707 C1719 0.929 . S
H1708 C1722 0.930 . S
H1709 C1724 0.960 . S
H1710 C1724 0.960 . S
H1711 C1724 0.960 . S
C1712 H1704 0.929 . S
C1712 C1713 1.377 . S
C1712 C1714 1.384 . S
C1713 C1712 1.377 . S
C1713 C1719 1.390 . S
C1714 H1705 0.930 . S
C1714 C1712 1.384 . S
C1714 C1715 1.372 . S
C1715 C1714 1.372 . S
C1715 C1716 1.400 . S
C1715 C1720 1.490 . S
C1716 H1706 0.930 . S
C1716 C1715 1.400 . S
C1716 C1719 1.386 . S
H1717 C1733 0.930 . S
H1718 C1734 0.931 . S
C1719 H1707 0.929 . S
C1719 C1713 1.390 . S
C1719 C1716 1.386 . S
C1720 C1715 1.490 . S
C1720 C1722 1.395 . S
C1720 C1723 1.403 . S
H1721 C1727 0.930 . S
C1722 H1708 0.930 . S
C1722 C1720 1.395 . S
C1722 C1725 1.403 . S
C1723 C1720 1.403 . S
C1723 C1724 1.524 . S
C1723 C1727 1.400 . S
C1724 H1709 0.960 . S
C1724 H1710 0.960 . S
C1724 H1711 0.960 . S
C1724 C1723 1.524 . S
C1725 C1722 1.403 . S
C1725 C1726 1.392 . S
C1725 C1729 1.495 . S
C1726 C1725 1.392 . S
C1726 C1727 1.385 . S
C1726 C1728 1.478 . S
C1727 H1721 0.930 . S
C1727 C1723 1.400 . S
C1727 C1726 1.385 . S
C1728 C1726 1.478 . S
C1728 C1730 1.381 . S
C1728 C1734 1.383 . S
C1729 C1725 1.495 . S
C1729 H1735 0.959 . S
C1729 H1736 0.961 . S
C1729 H1737 0.960 . S
C1730 C1728 1.381 . S
C1730 C1731 1.394 . S
C1730 H1738 0.930 . S
C1731 C1730 1.394 . S
C1731 C1732 1.383 . S
C1731 H1739 0.929 . S
C1732 C1731 1.383 . S
C1732 C1733 1.377 . S
C1733 H1717 0.930 . S
C1733 C1732 1.377 . S
C1733 C1734 1.379 . S
C1734 H1718 0.931 . S
C1734 C1728 1.383 . S
C1734 C1733 1.379 . S
H1735 C1729 0.959 . S
H1736 C1729 0.961 . S
H1737 C1729 0.960 . S
H1738 C1730 0.930 . S
H1739 C1731 0.929 . S
H1740 C1748 0.929 . S
H1741 C1750 0.930 . S
H1742 C1752 0.930 . S
H1743 C1755 0.929 . S
H1744 C1758 0.930 1_565 S
H1745 C1760 0.960 . S
H1746 C1760 0.960 . S
H1747 C1760 0.960 . S
C1748 H1740 0.929 . S
C1748 C1749 1.377 . S
C1748 C1750 1.384 . S
C1749 C1748 1.377 . S
C1749 C1755 1.390 . S
C1750 H1741 0.930 . S
C1750 C1748 1.384 . S
C1750 C1751 1.372 . S
C1751 C1750 1.372 . S
C1751 C1752 1.400 . S
C1751 C1756 1.490 . S
C1752 H1742 0.930 . S
C1752 C1751 1.400 . S
C1752 C1755 1.386 . S
H1753 C1769 0.930 . S
H1754 C1770 0.931 . S
C1755 H1743 0.929 . S
C1755 C1749 1.390 . S
C1755 C1752 1.386 . S
C1756 C1751 1.490 . S
C1756 C1758 1.394 1_565 S
C1756 C1759 1.403 . S
H1757 C1763 0.930 . S
C1758 H1744 0.930 1_545 S
C1758 C1756 1.394 1_545 S
C1758 C1761 1.404 . S
C1759 C1756 1.403 . S
C1759 C1760 1.524 . S
C1759 C1763 1.400 1_565 S
C1760 H1745 0.960 . S
C1760 H1746 0.960 . S
C1760 H1747 0.960 . S
C1760 C1759 1.524 . S
C1761 C1758 1.404 . S
C1761 C1762 1.392 . S
C1761 C1765 1.495 . S
C1762 C1761 1.392 . S
C1762 C1763 1.385 . S
C1762 C1764 1.478 . S
C1763 H1757 0.930 . S
C1763 C1759 1.400 1_545 S
C1763 C1762 1.385 . S
C1764 C1762 1.478 . S
C1764 C1766 1.381 . S
C1764 C1770 1.383 . S
C1765 C1761 1.495 . S
C1765 H1771 0.959 . S
C1765 H1772 0.961 . S
C1765 H1773 0.960 . S
C1766 C1764 1.381 . S
C1766 C1767 1.394 . S
C1766 H1774 0.930 . S
C1767 C1766 1.394 . S
C1767 C1768 1.383 . S
C1767 H1775 0.929 . S
C1768 C1767 1.383 . S
C1768 C1769 1.377 . S
C1769 H1753 0.930 . S
C1769 C1768 1.377 . S
C1769 C1770 1.379 . S
C1770 H1754 0.931 . S
C1770 C1764 1.383 . S
C1770 C1769 1.379 . S
H1771 C1765 0.959 . S
H1772 C1765 0.961 . S
H1773 C1765 0.960 . S
H1774 C1766 0.930 . S
H1775 C1767 0.929 . S
H1776 C1784 0.929 . S
H1777 C1786 0.930 . S
H1778 C1788 0.930 . S
H1779 C1791 0.929 . S
H1780 C1794 0.930 . S
H1781 C1796 0.960 . S
H1782 C1796 0.960 . S
H1783 C1796 0.960 . S
C1784 H1776 0.929 . S
C1784 C1785 1.377 . S
C1784 C1786 1.384 . S
C1785 C1784 1.377 . S
C1785 C1791 1.390 . S
C1786 H1777 0.930 . S
C1786 C1784 1.384 . S
C1786 C1787 1.372 . S
C1787 C1786 1.372 . S
C1787 C1788 1.400 . S
C1787 C1792 1.490 . S
C1788 H1778 0.930 . S
C1788 C1787 1.400 . S
C1788 C1791 1.386 . S
H1789 C1805 0.930 . S
H1790 C1806 0.931 . S
C1791 H1779 0.929 . S
C1791 C1785 1.390 . S
C1791 C1788 1.386 . S
C1792 C1787 1.490 . S
C1792 C1794 1.395 1_556 S
C1792 C1795 1.403 . S
H1793 C1799 0.930 . S
C1794 H1780 0.930 . S
C1794 C1792 1.395 1_554 S
C1794 C1797 1.403 . S
C1795 C1792 1.403 . S
C1795 C1796 1.524 . S
C1795 C1799 1.400 . S
C1796 H1781 0.960 . S
C1796 H1782 0.960 . S
C1796 H1783 0.960 . S
C1796 C1795 1.524 . S
C1797 C1794 1.403 . S
C1797 C1798 1.392 . S
C1797 C1801 1.495 . S
C1798 C1797 1.392 . S
C1798 C1799 1.385 1_554 S
C1798 C1800 1.478 . S
C1799 H1793 0.930 . S
C1799 C1795 1.400 . S
C1799 C1798 1.385 1_556 S
C1800 C1798 1.478 . S
C1800 C1802 1.381 . S
C1800 C1806 1.383 . S
C1801 C1797 1.495 . S
C1801 H1807 0.959 . S
C1801 H1808 0.961 . S
C1801 H1809 0.960 . S
C1802 C1800 1.381 . S
C1802 C1803 1.394 . S
C1802 H1810 0.930 . S
C1803 C1802 1.394 . S
C1803 C1804 1.383 . S
C1803 H1811 0.929 . S
C1804 C1803 1.383 . S
C1804 C1805 1.377 . S
C1805 H1789 0.930 . S
C1805 C1804 1.377 . S
C1805 C1806 1.379 . S
C1806 H1790 0.931 . S
C1806 C1800 1.383 . S
C1806 C1805 1.379 . S
H1807 C1801 0.959 . S
H1808 C1801 0.961 . S
H1809 C1801 0.960 . S
H1810 C1802 0.930 . S
H1811 C1803 0.929 . S
H1812 C1820 0.929 . S
H1813 C1822 0.930 . S
H1814 C1824 0.930 . S
H1815 C1827 0.929 . S
H1816 C1830 0.930 . S
H1817 C1832 0.960 . S
H1818 C1832 0.960 . S
H1819 C1832 0.960 . S
C1820 H1812 0.929 . S
C1820 C1821 1.377 . S
C1820 C1822 1.384 . S
C1821 C1820 1.377 . S
C1821 C1827 1.390 . S
C1822 H1813 0.930 . S
C1822 C1820 1.384 . S
C1822 C1823 1.372 . S
C1823 C1822 1.372 . S
C1823 C1824 1.400 . S
C1823 C1828 1.490 . S
C1824 H1814 0.930 . S
C1824 C1823 1.400 . S
C1824 C1827 1.386 . S
H1825 C1841 0.930 . S
H1826 C1842 0.931 . S
C1827 H1815 0.929 . S
C1827 C1821 1.390 . S
C1827 C1824 1.386 . S
C1828 C1823 1.490 . S
C1828 C1830 1.395 . S
C1828 C1831 1.403 . S
H1829 C1835 0.930 . S
C1830 H1816 0.930 . S
C1830 C1828 1.395 . S
C1830 C1833 1.403 1_545 S
C1831 C1828 1.403 . S
C1831 C1832 1.524 . S
C1831 C1835 1.400 1_545 S
C1832 H1817 0.960 . S
C1832 H1818 0.960 . S
C1832 H1819 0.960 . S
C1832 C1831 1.524 . S
C1833 C1830 1.403 1_565 S
C1833 C1834 1.392 . S
C1833 C1837 1.495 . S
C1834 C1833 1.392 . S
C1834 C1835 1.385 . S
C1834 C1836 1.478 . S
C1835 H1829 0.930 . S
C1835 C1831 1.400 1_565 S
C1835 C1834 1.385 . S
C1836 C1834 1.478 . S
C1836 C1838 1.381 . S
C1836 C1842 1.383 . S
C1837 C1833 1.495 . S
C1837 H1843 0.959 . S
C1837 H1844 0.961 . S
C1837 H1845 0.960 . S
C1838 C1836 1.381 . S
C1838 C1839 1.394 . S
C1838 H1846 0.930 . S
C1839 C1838 1.394 . S
C1839 C1840 1.383 . S
C1839 H1847 0.929 . S
C1840 C1839 1.383 . S
C1840 C1841 1.377 . S
C1841 H1825 0.930 . S
C1841 C1840 1.377 . S
C1841 C1842 1.379 . S
C1842 H1826 0.931 . S
C1842 C1836 1.383 . S
C1842 C1841 1.379 . S
H1843 C1837 0.959 . S
H1844 C1837 0.961 . S
H1845 C1837 0.960 . S
H1846 C1838 0.930 . S
H1847 C1839 0.929 . S
H1848 C1856 0.929 . S
H1849 C1858 0.930 . S
H1850 C1860 0.930 . S
H1851 C1863 0.929 . S
H1852 C1866 0.930 . S
H1853 C1868 0.960 . S
H1854 C1868 0.960 . S
H1855 C1868 0.960 . S
C1856 H1848 0.929 . S
C1856 C1857 1.377 . S
C1856 C1858 1.384 . S
C1857 C1856 1.377 . S
C1857 C1863 1.390 . S
C1858 H1849 0.930 . S
C1858 C1856 1.384 . S
C1858 C1859 1.372 . S
C1859 C1858 1.372 . S
C1859 C1860 1.400 . S
C1859 C1864 1.490 . S
C1860 H1850 0.930 . S
C1860 C1859 1.400 . S
C1860 C1863 1.386 . S
H1861 C1877 0.930 . S
H1862 C1878 0.931 . S
C1863 H1851 0.929 . S
C1863 C1857 1.390 . S
C1863 C1860 1.386 . S
C1864 C1859 1.490 . S
C1864 C1866 1.395 . S
C1864 C1867 1.403 . S
H1865 C1871 0.930 . S
C1866 H1852 0.930 . S
C1866 C1864 1.395 . S
C1866 C1869 1.403 . S
C1867 C1864 1.403 . S
C1867 C1868 1.524 . S
C1867 C1871 1.400 . S
C1868 H1853 0.960 . S
C1868 H1854 0.960 . S
C1868 H1855 0.960 . S
C1868 C1867 1.524 . S
C1869 C1866 1.403 . S
C1869 C1870 1.392 . S
C1869 C1873 1.495 . S
C1870 C1869 1.392 . S
C1870 C1871 1.385 . S
C1870 C1872 1.478 . S
C1871 H1865 0.930 . S
C1871 C1867 1.400 . S
C1871 C1870 1.385 . S
C1872 C1870 1.478 . S
C1872 C1874 1.381 . S
C1872 C1878 1.383 . S
C1873 C1869 1.495 . S
C1873 H1879 0.959 . S
C1873 H1880 0.961 . S
C1873 H1881 0.960 . S
C1874 C1872 1.381 . S
C1874 C1875 1.394 . S
C1874 H1882 0.930 . S
C1875 C1874 1.394 . S
C1875 C1876 1.383 . S
C1875 H1883 0.929 . S
C1876 C1875 1.383 . S
C1876 C1877 1.377 . S
C1877 H1861 0.930 . S
C1877 C1876 1.377 . S
C1877 C1878 1.379 . S
C1878 H1862 0.931 . S
C1878 C1872 1.383 . S
C1878 C1877 1.379 . S
H1879 C1873 0.959 . S
H1880 C1873 0.961 . S
H1881 C1873 0.960 . S
H1882 C1874 0.930 . S
H1883 C1875 0.929 . S
H1884 C1892 0.929 . S
H1885 C1894 0.930 . S
H1886 C1896 0.930 . S
H1887 C1899 0.929 . S
H1888 C1902 0.930 . S
H1889 C1904 0.960 . S
H1890 C1904 0.960 . S
H1891 C1904 0.945 1_554 S
C1892 H1884 0.929 . S
C1892 C1893 1.377 . S
C1892 C1894 1.384 . S
C1893 C1892 1.377 . S
C1893 C1899 1.390 . S
C1894 H1885 0.930 . S
C1894 C1892 1.384 . S
C1894 C1895 1.372 . S
C1895 C1894 1.372 . S
C1895 C1896 1.400 . S
C1895 C1900 1.490 . S
C1896 H1886 0.930 . S
C1896 C1895 1.400 . S
C1896 C1899 1.386 . S
H1897 C1913 0.930 . S
H1898 C1914 0.931 . S
C1899 H1887 0.929 . S
C1899 C1893 1.390 . S
C1899 C1896 1.386 . S
C1900 C1895 1.490 . S
C1900 C1902 1.395 . S
C1900 C1903 1.403 1_554 S
H1901 C1907 0.930 . S
C1902 H1888 0.930 . S
C1902 C1900 1.395 . S
C1902 C1905 1.403 . S
C1903 C1900 1.403 1_556 S
C1903 C1904 1.524 . S
C1903 C1907 1.400 . S
C1904 H1889 0.960 . S
C1904 H1890 0.960 . S
C1904 H1891 0.945 1_556 S
C1904 C1903 1.524 . S
C1905 C1902 1.403 . S
C1905 C1906 1.392 1_554 S
C1905 C1909 1.495 . S
C1906 C1905 1.392 1_556 S
C1906 C1907 1.385 . S
C1906 C1908 1.478 . S
C1907 H1901 0.930 . S
C1907 C1903 1.400 . S
C1907 C1906 1.385 . S
C1908 C1906 1.478 . S
C1908 C1910 1.381 . S
C1908 C1914 1.383 . S
C1909 C1905 1.495 . S
C1909 H1915 0.959 . S
C1909 H1916 0.961 . S
C1909 H1917 0.960 . S
C1910 C1908 1.381 . S
C1910 C1911 1.394 . S
C1910 H1918 0.930 . S
C1911 C1910 1.394 . S
C1911 C1912 1.383 . S
C1911 H1919 0.929 . S
C1912 C1911 1.383 . S
C1912 C1913 1.377 . S
C1913 H1897 0.930 . S
C1913 C1912 1.377 . S
C1913 C1914 1.379 . S
C1914 H1898 0.931 . S
C1914 C1908 1.383 . S
C1914 C1913 1.379 . S
H1915 C1909 0.959 . S
H1916 C1909 0.961 . S
H1917 C1909 0.960 . S
H1918 C1910 0.930 . S
H1919 C1911 0.929 . S
H1920 C1928 0.929 . S
H1921 C1930 0.930 . S
H1922 C1932 0.930 . S
H1923 C1935 0.929 . S
H1924 C1938 0.930 . S
H1925 C1940 0.960 . S
H1926 C1940 0.960 . S
H1927 C1940 0.960 . S
C1928 H1920 0.929 . S
C1928 C1929 1.377 . S
C1928 C1930 1.384 . S
C1929 C1928 1.377 . S
C1929 C1935 1.390 . S
C1930 H1921 0.930 . S
C1930 C1928 1.384 . S
C1930 C1931 1.372 . S
C1931 C1930 1.372 . S
C1931 C1932 1.400 . S
C1931 C1936 1.490 . S
C1932 H1922 0.930 . S
C1932 C1931 1.400 . S
C1932 C1935 1.386 . S
H1933 C1949 0.930 . S
H1934 C1950 0.931 . S
C1935 H1923 0.929 . S
C1935 C1929 1.390 . S
C1935 C1932 1.386 . S
C1936 C1931 1.490 . S
C1936 C1938 1.395 . S
C1936 C1939 1.403 . S
H1937 C1943 0.930 . S
C1938 H1924 0.930 . S
C1938 C1936 1.395 . S
C1938 C1941 1.403 . S
C1939 C1936 1.403 . S
C1939 C1940 1.524 . S
C1939 C1943 1.400 . S
C1940 H1925 0.960 . S
C1940 H1926 0.960 . S
C1940 H1927 0.960 . S
C1940 C1939 1.524 . S
C1941 C1938 1.403 . S
C1941 C1942 1.392 . S
C1941 C1945 1.495 . S
C1942 C1941 1.392 . S
C1942 C1943 1.385 . S
C1942 C1944 1.478 . S
C1943 H1937 0.930 . S
C1943 C1939 1.400 . S
C1943 C1942 1.385 . S
C1944 C1942 1.478 . S
C1944 C1946 1.381 . S
C1944 C1950 1.383 . S
C1945 C1941 1.495 . S
C1945 H1951 0.959 . S
C1945 H1952 0.961 . S
C1945 H1953 0.960 . S
C1946 C1944 1.381 . S
C1946 C1947 1.394 . S
C1946 H1954 0.930 . S
C1947 C1946 1.394 . S
C1947 C1948 1.383 . S
C1947 H1955 0.929 . S
C1948 C1947 1.383 . S
C1948 C1949 1.377 . S
C1949 H1933 0.930 . S
C1949 C1948 1.377 . S
C1949 C1950 1.379 . S
C1950 H1934 0.931 . S
C1950 C1944 1.383 . S
C1950 C1949 1.379 . S
H1951 C1945 0.959 . S
H1952 C1945 0.961 . S
H1953 C1945 0.960 . S
H1954 C1946 0.930 . S
H1955 C1947 0.929 . S
H1956 C1964 0.929 . S
H1957 C1966 0.930 . S
H1958 C1968 0.930 . S
H1959 C1971 0.929 . S
H1960 C1974 0.930 . S
H1961 C1976 0.960 . S
H1962 C1976 0.960 . S
H1963 C1976 0.960 . S
C1964 H1956 0.929 . S
C1964 C1965 1.377 . S
C1964 C1966 1.384 . S
C1965 C1964 1.377 . S
C1965 C1971 1.390 . S
C1966 H1957 0.930 . S
C1966 C1964 1.384 . S
C1966 C1967 1.372 . S
C1967 C1966 1.372 . S
C1967 C1968 1.400 . S
C1967 C1972 1.490 . S
C1968 H1958 0.930 . S
C1968 C1967 1.400 . S
C1968 C1971 1.386 . S
H1969 C1985 0.930 . S
H1970 C1986 0.931 . S
C1971 H1959 0.929 . S
C1971 C1965 1.390 . S
C1971 C1968 1.386 . S
C1972 C1967 1.490 . S
C1972 C1974 1.395 . S
C1972 C1975 1.403 . S
H1973 C1979 0.930 . S
C1974 H1960 0.930 . S
C1974 C1972 1.395 . S
C1974 C1977 1.403 . S
C1975 C1972 1.403 . S
C1975 C1976 1.524 . S
C1975 C1979 1.400 . S
C1976 H1961 0.960 . S
C1976 H1962 0.960 . S
C1976 H1963 0.960 . S
C1976 C1975 1.524 . S
C1977 C1974 1.403 . S
C1977 C1978 1.392 . S
C1977 C1981 1.495 . S
C1978 C1977 1.392 . S
C1978 C1979 1.385 . S
C1978 C1980 1.478 . S
C1979 H1973 0.930 . S
C1979 C1975 1.400 . S
C1979 C1978 1.385 . S
C1980 C1978 1.478 . S
C1980 C1982 1.381 . S
C1980 C1986 1.383 . S
C1981 C1977 1.495 . S
C1981 H1987 0.959 . S
C1981 H1988 0.961 . S
C1981 H1989 0.960 . S
C1982 C1980 1.381 . S
C1982 C1983 1.394 . S
C1982 H1990 0.930 . S
C1983 C1982 1.394 . S
C1983 C1984 1.383 . S
C1983 H1991 0.929 . S
C1984 C1983 1.383 . S
C1984 C1985 1.377 . S
C1985 H1969 0.930 . S
C1985 C1984 1.377 . S
C1985 C1986 1.379 . S
C1986 H1970 0.931 . S
C1986 C1980 1.383 . S
C1986 C1985 1.379 . S
H1987 C1981 0.959 . S
H1988 C1981 0.961 . S
H1989 C1981 0.960 . S
H1990 C1982 0.930 . S
H1991 C1983 0.929 . S
H1992 C2000 0.929 . S
H1993 C2002 0.930 . S
H1994 C2004 0.930 . S
H1995 C2007 0.929 . S
H1996 C2010 0.930 . S
H1997 C2012 0.960 . S
H1998 C2012 0.960 . S
H1999 C2012 0.960 . S
C2000 H1992 0.929 . S
C2000 C2001 1.377 . S
C2000 C2002 1.384 . S
C2001 C2000 1.377 . S
C2001 C2007 1.390 . S
C2002 H1993 0.930 . S
C2002 C2000 1.384 . S
C2002 C2003 1.372 . S
C2003 C2002 1.372 . S
C2003 C2004 1.400 . S
C2003 C2008 1.490 . S
C2004 H1994 0.930 . S
C2004 C2003 1.400 . S
C2004 C2007 1.386 . S
H2005 C2021 0.930 . S
H2006 C2022 0.931 . S
C2007 H1995 0.929 . S
C2007 C2001 1.390 . S
C2007 C2004 1.386 . S
C2008 C2003 1.490 . S
C2008 C2010 1.395 . S
C2008 C2011 1.403 . S
H2009 C2015 0.930 . S
C2010 H1996 0.930 . S
C2010 C2008 1.395 . S
C2010 C2013 1.403 . S
C2011 C2008 1.403 . S
C2011 C2012 1.524 . S
C2011 C2015 1.400 . S
C2012 H1997 0.960 . S
C2012 H1998 0.960 . S
C2012 H1999 0.960 . S
C2012 C2011 1.524 . S
C2013 C2010 1.403 . S
C2013 C2014 1.392 . S
C2013 C2017 1.495 . S
C2014 C2013 1.392 . S
C2014 C2015 1.385 . S
C2014 C2016 1.478 . S
C2015 H2009 0.930 . S
C2015 C2011 1.400 . S
C2015 C2014 1.385 . S
C2016 C2014 1.478 . S
C2016 C2018 1.381 . S
C2016 C2022 1.383 . S
C2017 C2013 1.495 . S
C2017 H2023 0.959 . S
C2017 H2024 0.961 . S
C2017 H2025 0.960 . S
C2018 C2016 1.381 . S
C2018 C2019 1.394 . S
C2018 H2026 0.930 . S
C2019 C2018 1.394 . S
C2019 C2020 1.383 . S
C2019 H2027 0.929 . S
C2020 C2019 1.383 . S
C2020 C2021 1.377 . S
C2021 H2005 0.930 . S
C2021 C2020 1.377 . S
C2021 C2022 1.379 . S
C2022 H2006 0.931 . S
C2022 C2016 1.383 . S
C2022 C2021 1.379 . S
H2023 C2017 0.959 . S
H2024 C2017 0.961 . S
H2025 C2017 0.960 . S
H2026 C2018 0.930 . S
H2027 C2019 0.929 . S
H2028 C2036 0.929 . S
H2029 C2038 0.930 . S
H2030 C2040 0.930 . S
H2031 C2043 0.929 . S
H2032 C2046 0.930 . S
H2033 C2048 0.960 . S
H2034 C2048 0.960 . S
H2035 C2048 0.960 . S
C2036 H2028 0.929 . S
C2036 C2037 1.377 . S
C2036 C2038 1.384 . S
C2037 C2036 1.377 . S
C2037 C2043 1.390 . S
C2038 H2029 0.930 . S
C2038 C2036 1.384 . S
C2038 C2039 1.372 . S
C2039 C2038 1.372 . S
C2039 C2040 1.400 . S
C2039 C2044 1.490 . S
C2040 H2030 0.930 . S
C2040 C2039 1.400 . S
C2040 C2043 1.386 . S
H2041 C2057 0.930 . S
H2042 C2058 0.931 . S
C2043 H2031 0.929 . S
C2043 C2037 1.390 . S
C2043 C2040 1.386 . S
C2044 C2039 1.490 . S
C2044 C2046 1.395 . S
C2044 C2047 1.403 . S
H2045 C2051 0.930 . S
C2046 H2032 0.930 . S
C2046 C2044 1.395 . S
C2046 C2049 1.403 . S
C2047 C2044 1.403 . S
C2047 C2048 1.524 . S
C2047 C2051 1.400 . S
C2048 H2033 0.960 . S
C2048 H2034 0.960 . S
C2048 H2035 0.960 . S
C2048 C2047 1.524 . S
C2049 C2046 1.403 . S
C2049 C2050 1.392 . S
C2049 C2053 1.495 . S
C2050 C2049 1.392 . S
C2050 C2051 1.385 . S
C2050 C2052 1.478 . S
C2051 H2045 0.930 . S
C2051 C2047 1.400 . S
C2051 C2050 1.385 . S
C2052 C2050 1.478 . S
C2052 C2054 1.381 . S
C2052 C2058 1.383 . S
C2053 C2049 1.495 . S
C2053 H2059 0.959 . S
C2053 H2060 0.961 . S
C2053 H2061 0.960 . S
C2054 C2052 1.381 . S
C2054 C2055 1.394 . S
C2054 H2062 0.930 . S
C2055 C2054 1.394 . S
C2055 C2056 1.383 . S
C2055 H2063 0.929 . S
C2056 C2055 1.383 . S
C2056 C2057 1.377 . S
C2057 H2041 0.930 . S
C2057 C2056 1.377 . S
C2057 C2058 1.379 . S
C2058 H2042 0.931 . S
C2058 C2052 1.383 . S
C2058 C2057 1.379 . S
H2059 C2053 0.959 . S
H2060 C2053 0.961 . S
H2061 C2053 0.960 . S
H2062 C2054 0.930 . S
H2063 C2055 0.929 . S
C345 C0 1.414 . S
C364 C126 1.409 . S
C381 C27 1.417 . S
C400 C153 1.416 . S
C417 C155 1.417 . S
C436 C28 1.415 . S
C453 C112 1.414 . S
C472 C42 1.411 . S
C489 C141 1.414 . S
C508 C68 1.406 . S
C525 C70 1.416 . S
C544 C167 1.415 . S
C561 C96 1.417 . S
C580 C124 1.417 . S
C597 C138 1.415 . S
C616 C99 1.412 . S
C633 C56 1.414 . S
C652 C169 1.407 . S
C669 C111 1.415 . S
C688 C222 1.410 . S
C705 C237 1.417 . S
C724 C82 1.419 . S
C741 C54 1.417 . S
C760 C195 1.419 . S
C777 C208 1.416 . S
C796 C84 1.412 . S
C813 C12 1.415 . S
C832 C279 1.414 . S
C849 C40 1.414 . S
C868 C265 1.410 . S
C885 C210 1.414 . S
C904 C294 1.407 . S
C921 C320 1.417 . S
C940 C181 1.416 . S
C957 C334 1.417 . S
C976 C225 1.417 . S
C993 C292 1.417 . S
C1012 C196 1.419 . S
C1029 C308 1.415 . S
C1048 C250 1.414 . S
C1065 C253 1.415 . S
C1084 C322 1.406 . S
C1101 C280 1.416 . S
C1120 C183 1.414 . S
C1137 C267 1.417 . S
C1156 C306 1.416 . S
C1173 C15 1.416 . S
C1192 C238 1.412 . S
C1209 C69 0.734 . S
C1228 C1 0.737 . S
C1245 C26 0.730 . S
C1264 C71 0.717 . S
C1281 C29 0.738 . S
C1300 C97 0.753 . S
C1317 C98 0.731 . S
C1336 C43 0.721 . S
C1353 C113 0.738 . S
C1372 C139 0.752 . S
C1389 C127 0.730 . S
C1408 C140 0.716 . S
C1425 C166 0.735 . S
C1444 C152 0.736 . S
C1461 C125 0.734 . S
C1480 C154 0.729 . S
C1497 C55 0.730 . S
C1516 C168 0.716 . S
C1533 C110 0.732 . S
C1552 C264 0.726 . S
C1569 C57 0.738 . S
C1588 C194 0.752 . S
C1605 C278 0.732 . S
C1624 C83 0.721 . S
C1641 C209 0.737 . S
C1660 C14 0.744 . S
C1677 C13 0.731 . S
C1696 C236 0.719 . S
C1713 C41 0.731 . S
C1732 C223 0.721 . S
C1749 C211 0.735 . S
C1768 C251 0.735 . S
C1785 C252 0.733 . S
C1804 C180 0.729 . S
C1821 C224 0.732 . S
C1840 C182 0.721 . S
C1857 C197 0.733 . S
C1876 C266 0.726 . S
C1893 C307 0.730 . S
C1912 C293 0.717 . S
C1929 C309 0.731 . S
C1948 C295 0.717 . S
C1965 C323 0.738 . S
C1984 C321 0.752 . S
C2001 C281 0.738 . S
C2020 C335 0.753 . S
C2037 C239 0.737 . S
C2056 C85 0.746 . S
