# Generated by pormake.
# Topology wgz, (6)-cn, num edge types: 1
# Building blocks:
#     Node 0, Type 0, BuildingBlock: VOLQOD_clean_sbu_1, # of connection points: 6
#     Node 1, Type 0, BuildingBlock: VOLQOD_clean_sbu_1, # of connection points: 6
#     Node 2, Type 0, BuildingBlock: VOLQOD_clean_sbu_1, # of connection points: 6
#     Node 3, Type 0, BuildingBlock: VOLQOD_clean_sbu_1, # of connection points: 6
#     Node 4, Type 0, BuildingBlock: VOLQOD_clean_sbu_1, # of connection points: 6
#     Node 5, Type 0, BuildingBlock: VOLQOD_clean_sbu_1, # of connection points: 6
#     Node 6, Type 0, BuildingBlock: VOLQOD_clean_sbu_1, # of connection points: 6
#     Node 7, Type 0, BuildingBlock: VOLQOD_clean_sbu_1, # of connection points: 6
#     Node 8, Type 0, BuildingBlock: VOLQOD_clean_sbu_1, # of connection points: 6
#     Node 9, Type 0, BuildingBlock: VOLQOD_clean_sbu_1, # of connection points: 6
#     Node 10, Type 0, BuildingBlock: VOLQOD_clean_sbu_1, # of connection points: 6
#     Node 11, Type 0, BuildingBlock: VOLQOD_clean_sbu_1, # of connection points: 6
#     Node 12, Type 0, BuildingBlock: VOLQOD_clean_sbu_1, # of connection points: 6
#     Node 13, Type 0, BuildingBlock: VOLQOD_clean_sbu_1, # of connection points: 6
#     Node 14, Type 0, BuildingBlock: VOLQOD_clean_sbu_1, # of connection points: 6
#     Node 15, Type 0, BuildingBlock: VOLQOD_clean_sbu_1, # of connection points: 6
#     Edge 16, Type (0, 0), BuildingBlock: AJUNOK_clean_linker_0, # of connection points: 2
#     Edge 17, Type (0, 0), BuildingBlock: AJUNOK_clean_linker_0, # of connection points: 2
#     Edge 18, Type (0, 0), BuildingBlock: AJUNOK_clean_linker_0, # of connection points: 2
#     Edge 19, Type (0, 0), BuildingBlock: AJUNOK_clean_linker_0, # of connection points: 2
#     Edge 20, Type (0, 0), BuildingBlock: AJUNOK_clean_linker_0, # of connection points: 2
#     Edge 21, Type (0, 0), BuildingBlock: AJUNOK_clean_linker_0, # of connection points: 2
#     Edge 22, Type (0, 0), BuildingBlock: AJUNOK_clean_linker_0, # of connection points: 2
#     Edge 23, Type (0, 0), BuildingBlock: AJUNOK_clean_linker_0, # of connection points: 2
#     Edge 24, Type (0, 0), BuildingBlock: AJUNOK_clean_linker_0, # of connection points: 2
#     Edge 25, Type (0, 0), BuildingBlock: AJUNOK_clean_linker_0, # of connection points: 2
#     Edge 26, Type (0, 0), BuildingBlock: AJUNOK_clean_linker_0, # of connection points: 2
#     Edge 27, Type (0, 0), BuildingBlock: AJUNOK_clean_linker_0, # of connection points: 2
#     Edge 28, Type (0, 0), BuildingBlock: AJUNOK_clean_linker_0, # of connection points: 2
#     Edge 29, Type (0, 0), BuildingBlock: AJUNOK_clean_linker_0, # of connection points: 2
#     Edge 30, Type (0, 0), BuildingBlock: AJUNOK_clean_linker_0, # of connection points: 2
#     Edge 31, Type (0, 0), BuildingBlock: AJUNOK_clean_linker_0, # of connection points: 2
#     Edge 32, Type (0, 0), BuildingBlock: AJUNOK_clean_linker_0, # of connection points: 2
#     Edge 33, Type (0, 0), BuildingBlock: AJUNOK_clean_linker_0, # of connection points: 2
#     Edge 34, Type (0, 0), BuildingBlock: AJUNOK_clean_linker_0, # of connection points: 2
#     Edge 35, Type (0, 0), BuildingBlock: AJUNOK_clean_linker_0, # of connection points: 2
#     Edge 36, Type (0, 0), BuildingBlock: AJUNOK_clean_linker_0, # of connection points: 2
#     Edge 37, Type (0, 0), BuildingBlock: AJUNOK_clean_linker_0, # of connection points: 2
#     Edge 38, Type (0, 0), BuildingBlock: AJUNOK_clean_linker_0, # of connection points: 2
#     Edge 39, Type (0, 0), BuildingBlock: AJUNOK_clean_linker_0, # of connection points: 2
#     Edge 40, Type (0, 0), BuildingBlock: AJUNOK_clean_linker_0, # of connection points: 2
#     Edge 41, Type (0, 0), BuildingBlock: AJUNOK_clean_linker_0, # of connection points: 2
#     Edge 42, Type (0, 0), BuildingBlock: AJUNOK_clean_linker_0, # of connection points: 2
#     Edge 43, Type (0, 0), BuildingBlock: AJUNOK_clean_linker_0, # of connection points: 2
#     Edge 44, Type (0, 0), BuildingBlock: AJUNOK_clean_linker_0, # of connection points: 2
#     Edge 45, Type (0, 0), BuildingBlock: AJUNOK_clean_linker_0, # of connection points: 2
#     Edge 46, Type (0, 0), BuildingBlock: AJUNOK_clean_linker_0, # of connection points: 2
#     Edge 47, Type (0, 0), BuildingBlock: AJUNOK_clean_linker_0, # of connection points: 2
#     Edge 48, Type (0, 0), BuildingBlock: AJUNOK_clean_linker_0, # of connection points: 2
#     Edge 49, Type (0, 0), BuildingBlock: AJUNOK_clean_linker_0, # of connection points: 2
#     Edge 50, Type (0, 0), BuildingBlock: AJUNOK_clean_linker_0, # of connection points: 2
#     Edge 51, Type (0, 0), BuildingBlock: AJUNOK_clean_linker_0, # of connection points: 2
#     Edge 52, Type (0, 0), BuildingBlock: AJUNOK_clean_linker_0, # of connection points: 2
#     Edge 53, Type (0, 0), BuildingBlock: AJUNOK_clean_linker_0, # of connection points: 2
#     Edge 54, Type (0, 0), BuildingBlock: AJUNOK_clean_linker_0, # of connection points: 2
#     Edge 55, Type (0, 0), BuildingBlock: AJUNOK_clean_linker_0, # of connection points: 2
#     Edge 56, Type (0, 0), BuildingBlock: AJUNOK_clean_linker_0, # of connection points: 2
#     Edge 57, Type (0, 0), BuildingBlock: AJUNOK_clean_linker_0, # of connection points: 2
#     Edge 58, Type (0, 0), BuildingBlock: AJUNOK_clean_linker_0, # of connection points: 2
#     Edge 59, Type (0, 0), BuildingBlock: AJUNOK_clean_linker_0, # of connection points: 2
#     Edge 60, Type (0, 0), BuildingBlock: AJUNOK_clean_linker_0, # of connection points: 2
#     Edge 61, Type (0, 0), BuildingBlock: AJUNOK_clean_linker_0, # of connection points: 2
#     Edge 62, Type (0, 0), BuildingBlock: AJUNOK_clean_linker_0, # of connection points: 2
#     Edge 63, Type (0, 0), BuildingBlock: AJUNOK_clean_linker_0, # of connection points: 2
# Relax obj value: 0.567
# Max RMSD: 0.288
# Mean RMSD: 0.288
data_MOF--net-wgz--node1-VOLQOD_clean_sbu_1--edge1-AJUNOK_clean_linker_0
_symmetry_space_group_name_H-M    P1
_symmetry_Int_Tables_number       1
_symmetry_cell_setting            triclinic
loop_
_symmetry_equiv_pos_as_xyz
'x, y, z'
_cell_length_a     26.932213
_cell_length_b     26.956759
_cell_length_c     40.959574
_cell_angle_alpha  90.029783
_cell_angle_beta   90.105161
_cell_angle_gamma 89.837238
loop_
_atom_site_label
_atom_site_type_symbol
_atom_site_fract_x
_atom_site_fract_y
_atom_site_fract_z
_atom_type_partial_charge
O0 O 0.11639 0.30224 0.17673 0.0
Zn1 Zn 0.1187 0.31823 0.12672 0.0
O2 O 0.18204 0.34778 0.12549 0.0
Zn3 Zn 0.23218 0.301 0.11512 0.0
Zn4 Zn 0.19851 0.38297 0.16357 0.0
Zn5 Zn 0.18106 0.3927 0.09119 0.0
O6 O 0.2688 0.32758 0.07647 0.0
O7 O 0.20065 0.3549 0.05208 0.0
O8 O 0.1261 0.26071 0.09033 0.0
O9 O 0.20401 0.23725 0.09967 0.0
O10 O 0.27835 0.29107 0.15229 0.0
O11 O 0.25858 0.35287 0.18586 0.0
O12 O 0.21693 0.4526 0.15314 0.0
O13 O 0.06702 0.37524 0.1162 0.0
O14 O 0.22994 0.44655 0.09985 0.0
O15 O 0.11566 0.42688 0.08886 0.0
C16 C 0.12409 0.33448 0.19949 0.0
C17 C 0.2454 0.33989 0.05069 0.0
C18 C 0.28538 0.31555 0.17844 0.0
C19 C 0.16337 0.23178 0.08428 0.0
C20 C 0.23456 0.46991 0.1267 0.0
C21 C 0.07383 0.41676 0.10146 0.0
O22 O 0.14089 0.37732 0.19282 0.0
O23 O 0.64315 0.17181 0.186 0.0
Zn24 Zn 0.62193 0.17485 0.1364 0.0
O25 O 0.57536 0.22845 0.13614 0.0
Zn26 Zn 0.57823 0.26506 0.09664 0.0
Zn27 Zn 0.58076 0.27631 0.17022 0.0
Zn28 Zn 0.51139 0.20443 0.14672 0.0
O29 O 0.50873 0.28019 0.08231 0.0
O30 O 0.46318 0.24124 0.11953 0.0
O31 O 0.67444 0.19644 0.09929 0.0
O32 O 0.62038 0.22871 0.06392 0.0
O33 O 0.61454 0.32908 0.10339 0.0
O34 O 0.62034 0.33429 0.15717 0.0
O35 O 0.5129 0.29702 0.18579 0.0
O36 O 0.58235 0.10848 0.12622 0.0
O37 O 0.49299 0.21927 0.19299 0.0
O38 O 0.50517 0.13239 0.13735 0.0
C39 C 0.63477 0.20148 0.21011 0.0
C40 C 0.46676 0.26987 0.09498 0.0
C41 C 0.63001 0.35099 0.12893 0.0
C42 C 0.66434 0.21424 0.07068 0.0
C43 C 0.48382 0.26488 0.19801 0.0
C44 C 0.53569 0.09875 0.12884 0.0
O45 O 0.61266 0.24267 0.20627 0.0
O46 O 0.87747 0.68802 0.17651 0.0
Zn47 Zn 0.87666 0.67281 0.12647 0.0
O48 O 0.81335 0.6436 0.12421 0.0
Zn49 Zn 0.76452 0.69212 0.1143 0.0
Zn50 Zn 0.79571 0.6082 0.16204 0.0
Zn51 Zn 0.81521 0.59937 0.08936 0.0
O52 O 0.72805 0.66745 0.07514 0.0
O53 O 0.79508 0.63805 0.05045 0.0
O54 O 0.87069 0.73029 0.09017 0.0
O55 O 0.79396 0.75599 0.10042 0.0
O56 O 0.71792 0.70186 0.15114 0.0
O57 O 0.73667 0.63959 0.18453 0.0
O58 O 0.77423 0.53952 0.15086 0.0
O59 O 0.92817 0.61618 0.11621 0.0
O60 O 0.76564 0.54612 0.09712 0.0
O61 O 0.88108 0.56483 0.08736 0.0
C62 C 0.86931 0.65528 0.19884 0.0
C63 C 0.75043 0.65364 0.04934 0.0
C64 C 0.71044 0.67732 0.17717 0.0
C65 C 0.83427 0.76047 0.08467 0.0
C66 C 0.7577 0.52324 0.12374 0.0
C67 C 0.92249 0.5751 0.10072 0.0
O68 O 0.85363 0.61225 0.19139 0.0
O69 O 0.34817 0.82095 0.18689 0.0
Zn70 Zn 0.36968 0.81861 0.13723 0.0
O71 O 0.417 0.76551 0.1364 0.0
Zn72 Zn 0.41183 0.72749 0.09738 0.0
Zn73 Zn 0.41381 0.71825 0.17076 0.0
Zn74 Zn 0.48147 0.78989 0.14528 0.0
O75 O 0.48041 0.71025 0.08226 0.0
O76 O 0.52771 0.75277 0.11687 0.0
O77 O 0.31675 0.79704 0.10018 0.0
O78 O 0.37025 0.76443 0.0647 0.0
O79 O 0.37344 0.66472 0.10517 0.0
O80 O 0.37268 0.66087 0.15913 0.0
O81 O 0.4822 0.69735 0.18519 0.0
O82 O 0.4085 0.88542 0.12726 0.0
O83 O 0.50342 0.7751 0.19097 0.0
O84 O 0.48658 0.86225 0.13631 0.0
C85 C 0.35825 0.79156 0.21087 0.0
C86 C 0.52299 0.72212 0.09345 0.0
C87 C 0.35953 0.64411 0.13152 0.0
C88 C 0.32647 0.77918 0.07154 0.0
C89 C 0.51221 0.72952 0.19642 0.0
C90 C 0.45512 0.89583 0.12915 0.0
O91 O 0.38287 0.75188 0.20696 0.0
O92 O 0.17115 0.64461 0.8619 0.0
Zn93 Zn 0.17318 0.62354 0.91165 0.0
O94 O 0.22701 0.57732 0.91256 0.0
Zn95 Zn 0.26371 0.58148 0.95215 0.0
Zn96 Zn 0.27512 0.58076 0.87856 0.0
Zn97 Zn 0.20321 0.51332 0.90274 0.0
O98 O 0.2806 0.5127 0.96684 0.0
O99 O 0.24097 0.46679 0.93009 0.0
O100 O 0.19511 0.67648 0.94847 0.0
O101 O 0.22689 0.6235 0.9847 0.0
O102 O 0.32691 0.61871 0.94507 0.0
O103 O 0.33325 0.62058 0.89126 0.0
O104 O 0.29537 0.51209 0.86377 0.0
O105 O 0.10669 0.58375 0.92186 0.0
O106 O 0.21728 0.49342 0.85678 0.0
O107 O 0.13163 0.50645 0.91245 0.0
C108 C 0.20137 0.63584 0.83816 0.0
C109 C 0.2702 0.47063 0.95431 0.0
C110 C 0.34926 0.63249 0.91935 0.0
C111 C 0.213 0.66734 0.97722 0.0
C112 C 0.26267 0.48295 0.85214 0.0
C113 C 0.09753 0.53688 0.92017 0.0
O114 O 0.24184 0.61252 0.84234 0.0
O115 O 0.30492 0.11531 0.86999 0.0
Zn116 Zn 0.32053 0.115 0.92008 0.0
O117 O 0.34872 0.17866 0.92298 0.0
Zn118 Zn 0.29893 0.22604 0.93309 0.0
Zn119 Zn 0.38453 0.19803 0.88571 0.0
Zn120 Zn 0.39252 0.17671 0.95814 0.0
O121 O 0.3218 0.26122 0.97327 0.0
O122 O 0.35358 0.19475 0.9973 0.0
O123 O 0.26348 0.11992 0.95676 0.0
O124 O 0.23473 0.19478 0.94487 0.0
O125 O 0.28978 0.27398 0.89699 0.0
O126 O 0.35432 0.25923 0.86469 0.0
O127 O 0.45385 0.21641 0.89756 0.0
O128 O 0.37822 0.06408 0.92982 0.0
O129 O 0.44586 0.22649 0.95107 0.0
O130 O 0.42788 0.11167 0.95961 0.0
C131 C 0.33702 0.12498 0.84752 0.0
C132 C 0.33622 0.23864 0.99887 0.0
C133 C 0.3154 0.28385 0.87182 0.0
C134 C 0.23197 0.15535 0.96168 0.0
C135 C 0.46991 0.233 0.92472 0.0
C136 C 0.419 0.07058 0.94556 0.0
O137 O 0.37956 0.14239 0.85463 0.0
O138 O 0.82083 0.34705 0.86107 0.0
Zn139 Zn 0.81906 0.36754 0.91087 0.0
O140 O 0.76576 0.41433 0.91199 0.0
Zn141 Zn 0.73021 0.4098 0.95187 0.0
Zn142 Zn 0.71706 0.4102 0.87833 0.0
Zn143 Zn 0.78957 0.47847 0.90244 0.0
O144 O 0.7133 0.47837 0.96674 0.0
O145 O 0.75218 0.52527 0.93023 0.0
O146 O 0.79674 0.3143 0.9473 0.0
O147 O 0.76857 0.3683 0.98392 0.0
O148 O 0.66707 0.37207 0.94542 0.0
O149 O 0.65931 0.37042 0.89167 0.0
O150 O 0.6966 0.47844 0.86311 0.0
O151 O 0.88572 0.40677 0.92122 0.0
O152 O 0.77452 0.49852 0.85655 0.0
O153 O 0.86181 0.48436 0.91151 0.0
C154 C 0.79018 0.35553 0.83747 0.0
C155 C 0.72311 0.5207 0.95448 0.0
C156 C 0.64407 0.35834 0.91987 0.0
C157 C 0.78019 0.32394 0.97627 0.0
C158 C 0.72895 0.50777 0.85134 0.0
C159 C 0.89568 0.45343 0.91908 0.0
O160 O 0.74948 0.37827 0.84189 0.0
O161 O 0.68964 0.87363 0.86905 0.0
Zn162 Zn 0.67498 0.87336 0.91916 0.0
O163 O 0.64539 0.81036 0.92195 0.0
Zn164 Zn 0.69337 0.7611 0.9322 0.0
Zn165 Zn 0.60909 0.79231 0.88452 0.0
Zn166 Zn 0.60168 0.81314 0.95701 0.0
O167 O 0.66799 0.72535 0.97148 0.0
O168 O 0.64042 0.79328 0.99595 0.0
O169 O 0.73265 0.86748 0.95535 0.0
O170 O 0.75753 0.7901 0.94638 0.0
O171 O 0.70273 0.71416 0.89538 0.0
O172 O 0.63892 0.73172 0.86281 0.0
O173 O 0.53984 0.77353 0.8961 0.0
O174 O 0.61883 0.92551 0.92946 0.0
O175 O 0.54746 0.76449 0.94972 0.0
O176 O 0.56782 0.8791 0.95889 0.0
C177 C 0.65672 0.86526 0.84679 0.0
C178 C 0.65496 0.74836 0.99724 0.0
C179 C 0.67722 0.70602 0.86978 0.0
C180 C 0.76221 0.83086 0.96165 0.0
C181 C 0.5236 0.75752 0.9233 0.0
C182 C 0.57803 0.9202 0.94527 0.0
O183 O 0.61396 0.84877 0.85415 0.0
O184 O 0.67107 0.84836 0.68506 0.0
Zn185 Zn 0.67298 0.87023 0.63558 0.0
O186 O 0.72635 0.91672 0.63512 0.0
Zn187 Zn 0.76342 0.91241 0.59585 0.0
Zn188 Zn 0.77431 0.91391 0.66946 0.0
Zn189 Zn 0.70159 0.98068 0.64437 0.0
O190 O 0.78079 0.98112 0.58162 0.0
O191 O 0.73999 0.02732 0.61769 0.0
O192 O 0.69509 0.81771 0.59875 0.0
O193 O 0.72688 0.87094 0.56288 0.0
O194 O 0.82635 0.87463 0.60338 0.0
O195 O 0.83355 0.87461 0.65716 0.0
O196 O 0.79255 0.98297 0.68486 0.0
O197 O 0.60615 0.90951 0.62509 0.0
O198 O 0.71387 0.00056 0.69056 0.0
O199 O 0.63013 0.98722 0.63361 0.0
C200 C 0.70108 0.85708 0.70895 0.0
C201 C 0.77006 0.02327 0.59398 0.0
C202 C 0.84922 0.86172 0.62917 0.0
C203 C 0.7129 0.82711 0.5701 0.0
C204 C 0.75889 0.01159 0.69602 0.0
C205 C 0.59644 0.95634 0.62612 0.0
O206 O 0.7411 0.88107 0.70514 0.0
O207 O 0.18952 0.61559 0.67802 0.0
Zn208 Zn 0.17475 0.61624 0.62775 0.0
O209 O 0.14454 0.6794 0.62562 0.0
Zn210 Zn 0.19149 0.72885 0.61507 0.0
Zn211 Zn 0.10945 0.69782 0.66363 0.0
Zn212 Zn 0.10001 0.67719 0.59093 0.0
O213 O 0.16413 0.76577 0.5768 0.0
O214 O 0.13784 0.69777 0.55192 0.0
O215 O 0.23292 0.62209 0.59151 0.0
O216 O 0.25496 0.7005 0.59926 0.0
O217 O 0.20303 0.77431 0.65219 0.0
O218 O 0.14154 0.75659 0.68627 0.0
O219 O 0.04041 0.71949 0.6527 0.0
O220 O 0.11853 0.56422 0.61735 0.0
O221 O 0.04593 0.72603 0.59884 0.0
O222 O 0.06643 0.61122 0.58884 0.0
C223 C 0.15653 0.62371 0.70025 0.0
C224 C 0.1522 0.7427 0.55085 0.0
C225 C 0.17963 0.78191 0.67863 0.0
C226 C 0.26146 0.65926 0.58491 0.0
C227 C 0.02329 0.73475 0.62546 0.0
C228 C 0.07723 0.56982 0.60199 0.0
O229 O 0.11353 0.63975 0.69275 0.0
O230 O 0.31815 0.14394 0.68597 0.0
Zn231 Zn 0.31532 0.12216 0.63639 0.0
O232 O 0.2625 0.0749 0.63613 0.0
Zn233 Zn 0.22378 0.07862 0.59721 0.0
Zn234 Zn 0.21571 0.0771 0.67095 0.0
Zn235 Zn 0.28855 0.0113 0.64537 0.0
O236 O 0.20821 0.00945 0.58264 0.0
O237 O 0.25089 0.96427 0.61841 0.0
O238 O 0.29211 0.17446 0.59965 0.0
O239 O 0.25825 0.12155 0.56418 0.0
O240 O 0.15935 0.11409 0.60539 0.0
O241 O 0.1555 0.11461 0.65932 0.0
O242 O 0.19819 0.00829 0.68644 0.0
O243 O 0.3826 0.08394 0.62563 0.0
O244 O 0.27691 0.99037 0.69148 0.0
O245 O 0.36019 0.00603 0.63491 0.0
C246 C 0.28885 0.13469 0.71008 0.0
C247 C 0.22035 0.96757 0.59484 0.0
C248 C 0.13748 0.12613 0.63171 0.0
C249 C 0.27317 0.16515 0.57124 0.0
C250 C 0.23199 0.9797 0.69743 0.0
C251 C 0.39335 0.03738 0.62727 0.0
O252 O 0.24907 0.11024 0.70647 0.0
O253 O 0.8024 0.37936 0.67736 0.0
Zn254 Zn 0.8185 0.3778 0.62726 0.0
O255 O 0.84586 0.31342 0.62559 0.0
Zn256 Zn 0.79572 0.26659 0.61547 0.0
Zn257 Zn 0.87992 0.29488 0.66384 0.0
Zn258 Zn 0.89126 0.31315 0.59135 0.0
O259 O 0.81917 0.23014 0.57604 0.0
O260 O 0.85301 0.29525 0.55184 0.0
O261 O 0.76196 0.37253 0.59004 0.0
O262 O 0.73215 0.29838 0.60224 0.0
O263 O 0.78527 0.21958 0.65193 0.0
O264 O 0.84713 0.23632 0.68611 0.0
O265 O 0.94819 0.27189 0.65359 0.0
O266 O 0.87708 0.42734 0.61718 0.0
O267 O 0.94272 0.26135 0.59995 0.0
O268 O 0.92787 0.37748 0.58979 0.0
C269 C 0.83495 0.37056 0.69982 0.0
C270 C 0.83451 0.25191 0.55044 0.0
C271 C 0.80906 0.21111 0.67817 0.0
C272 C 0.73045 0.33731 0.58485 0.0
C273 C 0.96435 0.25332 0.62709 0.0
C274 C 0.91858 0.4195 0.60256 0.0
O275 O 0.87752 0.35334 0.69259 0.0
O276 O 0.61326 0.18936 0.36958 0.0
Zn277 Zn 0.61506 0.17428 0.41985 0.0
O278 O 0.67744 0.14277 0.42206 0.0
Zn279 Zn 0.72874 0.18812 0.43207 0.0
Zn280 Zn 0.6928 0.10856 0.38331 0.0
Zn281 Zn 0.67541 0.09761 0.4566 0.0
O282 O 0.76665 0.16041 0.46985 0.0
O283 O 0.69895 0.13442 0.49521 0.0
O284 O 0.62284 0.23254 0.45605 0.0
O285 O 0.70232 0.25168 0.44877 0.0
O286 O 0.77313 0.19894 0.39435 0.0
O287 O 0.75022 0.14033 0.3593 0.0
O288 O 0.71503 0.04008 0.39297 0.0
O289 O 0.56301 0.11815 0.43005 0.0
O290 O 0.72287 0.04215 0.44692 0.0
O291 O 0.60786 0.06736 0.46119 0.0
C292 C 0.61857 0.15513 0.34781 0.0
C293 C 0.7438 0.14908 0.49595 0.0
C294 C 0.77794 0.1766 0.3672 0.0
C295 C 0.66099 0.2599 0.46266 0.0
C296 C 0.73151 0.02171 0.41946 0.0
C297 C 0.5671 0.07845 0.44722 0.0
O298 O 0.63281 0.11197 0.35608 0.0
O299 O 0.84687 0.67322 0.36031 0.0
Zn300 Zn 0.86823 0.67496 0.41002 0.0
O301 O 0.91621 0.72716 0.41088 0.0
Zn302 Zn 0.91131 0.76566 0.44969 0.0
Zn303 Zn 0.91516 0.77438 0.37638 0.0
Zn304 Zn 0.98008 0.70099 0.40259 0.0
O305 O 0.9799 0.78242 0.46482 0.0
O306 O 0.02612 0.73762 0.43089 0.0
O307 O 0.81576 0.69737 0.44699 0.0
O308 O 0.86948 0.72983 0.48246 0.0
O309 O 0.87396 0.82897 0.44142 0.0
O310 O 0.87606 0.83372 0.38758 0.0
O311 O 0.98447 0.79255 0.36204 0.0
O312 O 0.90582 0.60723 0.42019 0.0
O313 O 0.00337 0.71404 0.35713 0.0
O314 O 0.98431 0.62899 0.41213 0.0
C315 C 0.85775 0.70226 0.33636 0.0
C316 C 0.02217 0.76913 0.45381 0.0
C317 C 0.86243 0.85086 0.41498 0.0
C318 C 0.82568 0.71526 0.47559 0.0
C319 C 0.01373 0.75909 0.35141 0.0
C320 C 0.95233 0.59599 0.41891 0.0
O321 O 0.88328 0.74125 0.34033 0.0
O322 O 0.3771 0.80339 0.37103 0.0
Zn323 Zn 0.37641 0.81945 0.42108 0.0
O324 O 0.3132 0.84903 0.42369 0.0
Zn325 Zn 0.2642 0.80123 0.43386 0.0
Zn326 Zn 0.2955 0.88272 0.38501 0.0
Zn327 Zn 0.31475 0.89426 0.45834 0.0
O328 O 0.22597 0.82735 0.47195 0.0
O329 O 0.29242 0.85704 0.49717 0.0
O330 O 0.37166 0.76162 0.45765 0.0
O331 O 0.29357 0.73818 0.44974 0.0
O332 O 0.21918 0.78917 0.39651 0.0
O333 O 0.23711 0.85023 0.36219 0.0
O334 O 0.27297 0.95107 0.39486 0.0
O335 O 0.42699 0.87712 0.43054 0.0
O336 O 0.26589 0.94868 0.44886 0.0
O337 O 0.38179 0.92623 0.46253 0.0
C338 C 0.36947 0.83633 0.34872 0.0
C339 C 0.24827 0.84033 0.49797 0.0
C340 C 0.21173 0.81227 0.36993 0.0
C341 C 0.33502 0.73227 0.46404 0.0
C342 C 0.25646 0.96898 0.42145 0.0
C343 C 0.42237 0.91653 0.44795 0.0
O344 O 0.35384 0.87938 0.35621 0.0
O345 O 0.13876 0.31701 0.36125 0.0
Zn346 Zn 0.11646 0.31486 0.41071 0.0
O347 O 0.06938 0.26174 0.41123 0.0
Zn348 Zn 0.07419 0.22388 0.4503 0.0
Zn349 Zn 0.07262 0.21448 0.37679 0.0
Zn350 Zn 0.00492 0.28641 0.40212 0.0
O351 O 0.00554 0.20808 0.46529 0.0
O352 O 0.95818 0.24915 0.42987 0.0
O353 O 0.16903 0.29352 0.44798 0.0
O354 O 0.11593 0.25984 0.48322 0.0
O355 O 0.11129 0.16012 0.44268 0.0
O356 O 0.11172 0.15554 0.38877 0.0
O357 O 0.0044 0.19525 0.36114 0.0
O358 O 0.07736 0.38174 0.42073 0.0
O359 O 0.98361 0.27333 0.35608 0.0
O360 O -0.0006 0.35828 0.41211 0.0
C361 C 0.12952 0.28736 0.33728 0.0
C362 C 0.96296 0.21933 0.45373 0.0
C363 C 0.12392 0.13827 0.41645 0.0
C364 C 0.15942 0.27538 0.47652 0.0
C365 C 0.97499 0.22802 0.34978 0.0
C366 C 0.03057 0.39181 0.41945 0.0
O367 O 0.10511 0.24767 0.3411 0.0
C368 C 0.11895 0.35854 0.25838 0.0
C369 C 0.12451 0.3209 0.2346 0.0
C370 C 0.12541 0.34884 0.29182 0.0
C371 C 0.13807 0.30116 0.30278 0.0
H372 H 0.10906 0.39591 0.25109 0.0
H373 H 0.1179 0.37819 0.30922 0.0
S374 S 0.16258 0.19093 0.25062 0.0
N375 N 0.14733 0.23505 0.22448 0.0
N376 N 0.15955 0.21668 0.28715 0.0
C377 C 0.14577 0.26371 0.27919 0.0
C378 C 0.13874 0.27349 0.24522 0.0
C379 C 0.6372 0.21356 0.30188 0.0
C380 C 0.62146 0.16663 0.31239 0.0
C381 C 0.64639 0.22296 0.26874 0.0
C382 C 0.64018 0.18593 0.24464 0.0
H383 H 0.64305 0.24314 0.31937 0.0
H384 H 0.65671 0.26028 0.26171 0.0
S385 S 0.59976 0.05664 0.2594 0.0
N386 N 0.60073 0.08225 0.29602 0.0
N387 N 0.61754 0.10044 0.23383 0.0
C388 C 0.62565 0.13854 0.2549 0.0
C389 C 0.61617 0.12889 0.28866 0.0
C390 C 0.87082 0.63091 0.25779 0.0
C391 C 0.86645 0.66859 0.23396 0.0
C392 C 0.86288 0.6406 0.29109 0.0
C393 C 0.84983 0.6883 0.30182 0.0
H394 H 0.88115 0.59356 0.25068 0.0
H395 H 0.86973 0.61127 0.30862 0.0
S396 S 0.82757 0.79855 0.24931 0.0
N397 N 0.84395 0.75445 0.22346 0.0
N398 N 0.82899 0.77275 0.28586 0.0
C399 C 0.84305 0.72572 0.27812 0.0
C400 C 0.85159 0.71597 0.24431 0.0
C401 C 0.37375 0.86108 0.28995 0.0
C402 C 0.36687 0.82347 0.31353 0.0
C403 C 0.36589 0.85227 0.25652 0.0
C404 C 0.35037 0.80558 0.2454 0.0
H405 H 0.38595 0.89766 0.29739 0.0
H406 H 0.37468 0.88131 0.23921 0.0
S407 S 0.32073 0.69644 0.29711 0.0
N408 N 0.33914 0.73914 0.32337 0.0
N409 N 0.32448 0.72241 0.26069 0.0
C410 C 0.34111 0.76838 0.26882 0.0
C411 C 0.34951 0.77722 0.30277 0.0
C412 C 0.14071 0.62729 0.79243 0.0
C413 C 0.18738 0.64311 0.80353 0.0
C414 C 0.13187 0.61924 0.75902 0.0
C415 C 0.16945 0.62622 0.73544 0.0
H416 H 0.11168 0.61848 0.80975 0.0
H417 H 0.0953 0.6069 0.75159 0.0
S418 S 0.29633 0.67315 0.75172 0.0
N419 N 0.27043 0.66942 0.78815 0.0
N420 N 0.25366 0.65434 0.72552 0.0
C421 C 0.21566 0.64383 0.74615 0.0
C422 C 0.22452 0.65245 0.78008 0.0
C423 C 0.35084 0.12841 0.75521 0.0
C424 C 0.30341 0.1428 0.74452 0.0
C425 C 0.36066 0.12085 0.78855 0.0
C426 C 0.32334 0.12686 0.81245 0.0
H427 H 0.37978 0.1203 0.73764 0.0
H428 H 0.39779 0.10963 0.79567 0.0
S429 S 0.19458 0.17 0.79728 0.0
N430 N 0.21983 0.16684 0.76062 0.0
N431 N 0.23842 0.15257 0.82311 0.0
C432 C 0.27633 0.14306 0.80214 0.0
C433 C 0.26647 0.15124 0.76829 0.0
C434 C 0.85051 0.36607 0.79194 0.0
C435 C 0.8041 0.34929 0.80277 0.0
C436 C 0.85921 0.37501 0.75865 0.0
C437 C 0.82174 0.36799 0.73491 0.0
H438 H 0.87946 0.37486 0.8094 0.0
H439 H 0.89563 0.38791 0.75141 0.0
S440 S 0.69557 0.31892 0.75038 0.0
N441 N 0.72139 0.32225 0.78692 0.0
N442 N 0.73796 0.33892 0.72448 0.0
C443 C 0.77577 0.34957 0.74533 0.0
C444 C 0.76704 0.34007 0.77915 0.0
C445 C 0.64047 0.864 0.75464 0.0
C446 C 0.68726 0.84869 0.74342 0.0
C447 C 0.63168 0.87111 0.78812 0.0
C448 C 0.66944 0.8637 0.81162 0.0
H449 H 0.61129 0.87315 0.73739 0.0
H450 H 0.59502 0.88311 0.79567 0.0
S451 S 0.79671 0.81771 0.79493 0.0
N452 N 0.77063 0.8223 0.75853 0.0
N453 N 0.75397 0.83567 0.8213 0.0
C454 C 0.71578 0.84656 0.80076 0.0
C455 C 0.72459 0.83887 0.76676 0.0
C456 C 0.94883 0.48517 0.09718 0.0
C457 C 0.96214 0.53575 0.1006 0.0
C458 C 0.9845 0.44669 0.09807 0.0
C459 C 0.03531 0.45707 0.10159 0.0
H460 H 0.9102 0.47496 0.09428 0.0
H461 H 0.97225 0.40865 0.09544 0.0
S462 S 0.09028 0.58264 0.11223 0.0
N463 N 0.03013 0.59338 0.10856 0.0
N464 N 0.09706 0.5219 0.10936 0.0
C465 C 0.04918 0.50743 0.10505 0.0
C466 C 0.01276 0.54645 0.10481 0.0
C467 C 0.52629 0.95697 0.12809 0.0
C468 C 0.47464 0.94785 0.12504 0.0
C469 C 0.54616 0.00531 0.12767 0.0
C470 C 0.51544 0.0472 0.12426 0.0
H471 H 0.55195 0.92647 0.13176 0.0
H472 H 0.58572 0.00986 0.13137 0.0
S473 S 0.37846 0.04449 0.11131 0.0
N474 N 0.39391 0.98554 0.11563 0.0
N475 N 0.43073 0.07594 0.11461 0.0
C476 C 0.46399 0.03864 0.11949 0.0
C477 C 0.44379 0.98931 0.11992 0.0
C478 C 0.95581 0.5254 0.91999 0.0
C479 C 0.94741 0.47372 0.92345 0.0
C480 C 0.00387 0.54601 0.92064 0.0
C481 C 0.04618 0.51606 0.92472 0.0
H482 H 0.92499 0.55049 0.9158 0.0
H483 H 0.00788 0.5855 0.91658 0.0
S484 S 0.04533 0.37946 0.93895 0.0
N485 N 0.98618 0.39389 0.93396 0.0
N486 N 0.07605 0.43209 0.93546 0.0
C487 C 0.0383 0.46464 0.92993 0.0
C488 C 0.98926 0.44367 0.92924 0.0
C489 C 0.48795 0.94596 0.94711 0.0
C490 C 0.53862 0.95968 0.94538 0.0
C491 C 0.44936 0.98148 0.94658 0.0
C492 C 0.45969 0.03249 0.9452 0.0
H493 H 0.47781 0.90715 0.9484 0.0
H494 H 0.41125 0.96891 0.94781 0.0
S495 S 0.58559 0.08849 0.93969 0.0
N496 N 0.59643 0.02821 0.94131 0.0
N497 N 0.52465 0.09493 0.94134 0.0
C498 C 0.51017 0.04677 0.94346 0.0
C499 C 0.54935 0.01051 0.94325 0.0
C500 C 0.50301 0.94609 0.62539 0.0
C501 C 0.54477 0.97653 0.6213 0.0
C502 C 0.45462 0.96612 0.62601 0.0
C503 C 0.44532 0.01768 0.62256 0.0
H504 H 0.50772 0.90667 0.62952 0.0
H505 H 0.42427 0.94067 0.63027 0.0
S506 S 0.54137 0.11288 0.60634 0.0
N507 N 0.57307 0.06069 0.61007 0.0
N508 N 0.48254 0.09785 0.61158 0.0
C509 C 0.48656 0.04818 0.61658 0.0
C510 C 0.53596 0.02779 0.61588 0.0
C511 C 0.98724 0.54393 0.59947 0.0
C512 C 0.03797 0.53028 0.60188 0.0
C513 C 0.94879 0.50847 0.60022 0.0
C514 C 0.95925 0.4575 0.60256 0.0
H515 H 0.9769 0.58268 0.5975 0.0
H516 H 0.91065 0.52107 0.59846 0.0
S517 S 0.08531 0.40162 0.61013 0.0
N518 N 0.09594 0.4618 0.60758 0.0
N519 N 0.02443 0.39519 0.60802 0.0
C520 C 0.00978 0.44326 0.60494 0.0
C521 C 0.04883 0.47949 0.6049 0.0
C522 C 0.47976 0.97559 0.41892 0.0
C523 C 0.46165 0.95565 0.44839 0.0
C524 C 0.51143 0.01732 0.41864 0.0
C525 C 0.527 0.04028 0.44784 0.0
H526 H 0.46838 0.95958 0.39583 0.0
H527 H 0.52498 0.03085 0.39541 0.0
S528 S 0.49102 0.0021 0.53148 0.0
N529 N 0.46126 0.96282 0.50748 0.0
N530 N 0.52265 0.03903 0.50701 0.0
C531 C 0.50969 0.02026 0.47741 0.0
C532 C 0.47647 0.97872 0.47767 0.0
C533 C 0.04203 0.48502 0.42039 0.0
C534 C 0.01088 0.44368 0.42399 0.0
C535 C 0.02272 0.53368 0.41995 0.0
C536 C 0.97121 0.54368 0.42313 0.0
H537 H 0.08149 0.47981 0.41659 0.0
H538 H 0.0487 0.5637 0.41612 0.0
S539 S 0.8741 0.44886 0.4374 0.0
N540 N 0.92594 0.41647 0.43402 0.0
N541 N 0.89018 0.5075 0.43288 0.0
C542 C 0.93995 0.50282 0.42844 0.0
C543 C 0.95959 0.45315 0.42893 0.0
C544 C 0.34536 0.25506 0.20083 0.0
C545 C 0.33094 0.30472 0.19685 0.0
C546 C 0.39511 0.24253 0.20603 0.0
C547 C 0.43224 0.2793 0.20637 0.0
H548 H 0.31878 0.22552 0.19694 0.0
H549 H 0.40482 0.20351 0.20616 0.0
S550 S 0.41115 0.41538 0.2053 0.0
N551 N 0.35537 0.39124 0.20021 0.0
N552 N 0.44948 0.36783 0.20935 0.0
C553 C 0.41717 0.32935 0.207 0.0
C554 C 0.36621 0.34207 0.20227 0.0
C555 C 0.70407 0.4637 0.15331 0.0
C556 C 0.72582 0.47893 0.12383 0.0
C557 C 0.67253 0.42289 0.15444 0.0
C558 C 0.66146 0.39549 0.12614 0.0
H559 H 0.71096 0.48372 0.17581 0.0
H560 H 0.6568 0.41284 0.17783 0.0
S561 S 0.70952 0.41954 0.04277 0.0
N562 N 0.73464 0.46332 0.06558 0.0
N563 N 0.67501 0.38618 0.06767 0.0
C564 C 0.68277 0.41033 0.09636 0.0
C565 C 0.71505 0.45211 0.09522 0.0
C566 C 0.65082 0.73832 0.19929 0.0
C567 C 0.6649 0.68856 0.19539 0.0
C568 C 0.60115 0.75122 0.20438 0.0
C569 C 0.56376 0.71473 0.2047 0.0
H570 H 0.67762 0.76767 0.19547 0.0
H571 H 0.59172 0.79031 0.2045 0.0
S572 S 0.5839 0.57847 0.20365 0.0
N573 N 0.63984 0.60222 0.19868 0.0
N574 N 0.54592 0.6263 0.20764 0.0
C575 C 0.57849 0.66456 0.20535 0.0
C576 C 0.62935 0.65148 0.20072 0.0
C577 C 0.29226 0.53034 0.10058 0.0
C578 C 0.2635 0.51628 0.1277 0.0
C579 C 0.3229 0.5721 0.10182 0.0
C580 C 0.32608 0.60104 0.13029 0.0
H581 H 0.29199 0.50842 0.07839 0.0
H582 H 0.34497 0.58112 0.08056 0.0
S583 S 0.25439 0.58331 0.20679 0.0
N584 N 0.23729 0.53702 0.18299 0.0
N585 N 0.29507 0.61519 0.18535 0.0
C586 C 0.29633 0.58837 0.15721 0.0
C587 C 0.26497 0.54609 0.1559 0.0
C588 C 0.41912 0.67695 0.89299 0.0
C589 C 0.39362 0.66425 0.9217 0.0
C590 C 0.46045 0.7078 0.89385 0.0
C591 C 0.47818 0.72723 0.92348 0.0
H592 H 0.40727 0.6629 0.86945 0.0
H593 H 0.479 0.7158 0.87101 0.0
S594 S 0.4238 0.70707 1.00558 0.0
N595 N 0.38835 0.67449 0.98071 0.0
N596 N 0.46637 0.733 0.98228 0.0
C597 C 0.45291 0.71537 0.95246 0.0
C598 C 0.4106 0.68374 0.95159 0.0
C599 C 0.32669 0.41619 0.84614 0.0
C600 C 0.27641 0.43077 0.84473 0.0
C601 C 0.33995 0.36635 0.85078 0.0
C602 C 0.3033 0.32983 0.85432 0.0
H603 H 0.35584 0.44378 0.84666 0.0
H604 H 0.37865 0.35733 0.85507 0.0
S605 S 0.16771 0.34605 0.84396 0.0
N606 N 0.19063 0.40249 0.84018 0.0
N607 N 0.21599 0.30932 0.85 0.0
C608 C 0.25362 0.34278 0.84874 0.0
C609 C 0.24004 0.39323 0.84353 0.0
C610 C 0.57562 0.31117 0.8938 0.0
C611 C 0.59987 0.32639 0.92251 0.0
C612 C 0.53435 0.28029 0.89493 0.0
C613 C 0.51536 0.26333 0.92482 0.0
H614 H 0.58841 0.32319 0.87003 0.0
H615 H 0.51685 0.27032 0.87201 0.0
S616 S 0.56627 0.29067 1.00715 0.0
N617 N 0.60269 0.32121 0.98187 0.0
N618 N 0.52478 0.26259 0.98397 0.0
C619 C 0.53946 0.27765 0.95384 0.0
C620 C 0.58174 0.30933 0.95269 0.0
C621 C 0.66416 0.57367 0.84547 0.0
C622 C 0.71433 0.55923 0.84273 0.0
C623 C 0.65113 0.62359 0.84987 0.0
C624 C 0.68791 0.66026 0.85175 0.0
H625 H 0.6352 0.54604 0.8475 0.0
H626 H 0.61284 0.63262 0.85547 0.0
S627 S 0.82223 0.64427 0.83618 0.0
N628 N 0.79932 0.58759 0.83417 0.0
N629 N 0.77449 0.68104 0.84372 0.0
C630 C 0.73702 0.64738 0.84443 0.0
C631 C 0.75032 0.59682 0.83942 0.0
C632 C 0.91816 0.8153 0.6558 0.0
C633 C 0.89357 0.82955 0.62697 0.0
C634 C 0.95941 0.78401 0.65497 0.0
C635 C 0.97802 0.76573 0.62525 0.0
H636 H 0.90559 0.82834 0.67941 0.0
H637 H 0.97715 0.77469 0.67793 0.0
S638 S 0.92652 0.79072 0.54267 0.0
N639 N 0.89024 0.82217 0.56769 0.0
N640 N 0.96821 0.76328 0.56613 0.0
C641 C 0.9537 0.7793 0.59613 0.0
C642 C 0.91142 0.81122 0.59698 0.0
C643 C 0.16915 0.91304 0.70629 0.0
C644 C 0.21935 0.92772 0.70588 0.0
C645 C 0.15592 0.8632 0.70198 0.0
C646 C 0.19252 0.82682 0.697 0.0
H647 H 0.13979 0.94058 0.70673 0.0
H648 H 0.11702 0.85417 0.69883 0.0
S649 S 0.32856 0.8432 0.70314 0.0
N650 N 0.30556 0.8996 0.70775 0.0
N651 N 0.28016 0.80639 0.69858 0.0
C652 C 0.24245 0.83979 0.70115 0.0
C653 C 0.25604 0.89025 0.706 0.0
C654 C 0.03712 0.21266 0.60054 0.0
C655 C 0.0075 0.21985 0.62836 0.0
C656 C 0.0786 0.18135 0.60157 0.0
C657 C 0.09164 0.15606 0.63041 0.0
H658 H 0.02877 0.23199 0.57799 0.0
H659 H 0.10114 0.17786 0.5798 0.0
S660 S 0.02239 0.15799 0.70878 0.0
N661 N 0.9915 0.19625 0.68473 0.0
N662 N 0.06925 0.13736 0.68668 0.0
C663 C 0.06121 0.16169 0.65806 0.0
C664 C 0.0192 0.19364 0.65703 0.0
C665 C 0.83394 0.12915 0.70009 0.0
C666 C 0.79686 0.1653 0.69575 0.0
C667 C 0.82134 0.07907 0.70408 0.0
C668 C 0.7713 0.06385 0.70405 0.0
H669 H 0.87268 0.13867 0.69682 0.0
H670 H 0.85099 0.05184 0.70415 0.0
S671 S 0.66112 0.14728 0.70232 0.0
N672 N 0.70903 0.18467 0.69778 0.0
N673 N 0.68483 0.09108 0.70646 0.0
C674 C 0.73421 0.10097 0.70451 0.0
C675 C 0.74716 0.15166 0.69994 0.0
C676 C 0.83666 0.2378 0.34496 0.0
C677 C 0.82257 0.188 0.34818 0.0
C678 C 0.88643 0.25059 0.34053 0.0
C679 C 0.92384 0.2139 0.3402 0.0
H680 H 0.80983 0.26716 0.34917 0.0
H681 H 0.89587 0.28962 0.34115 0.0
S682 S 0.90371 0.07779 0.33891 0.0
N683 N 0.84766 0.10168 0.34373 0.0
N684 N 0.94177 0.12552 0.33597 0.0
C685 C 0.90913 0.16387 0.33851 0.0
C686 C 0.85818 0.15092 0.34247 0.0
C687 C 0.7739 0.94966 0.44592 0.0
C688 C 0.76448 0.97804 0.41779 0.0
C689 C 0.80623 0.90897 0.44496 0.0
C690 C 0.83053 0.89546 0.41586 0.0
H691 H 0.75593 0.95866 0.46882 0.0
H692 H 0.81166 0.88769 0.46711 0.0
S693 S 0.82109 0.96 0.33591 0.0
N694 N 0.78373 0.99121 0.36032 0.0
N695 N 0.84459 0.91513 0.35856 0.0
C696 C 0.82209 0.92415 0.38768 0.0
C697 C 0.78902 0.96531 0.38863 0.0
C698 C 0.12995 0.83593 0.34718 0.0
C699 C 0.16667 0.79948 0.35163 0.0
C700 C 0.08007 0.82251 0.34305 0.0
C701 C 0.06568 0.77226 0.34309 0.0
H702 H 0.13881 0.87479 0.3506 0.0
H703 H 0.05233 0.85169 0.34298 0.0
S704 S 0.15098 0.66362 0.34457 0.0
N705 N 0.18759 0.71209 0.34933 0.0
N706 N 0.09432 0.68634 0.34043 0.0
C707 C 0.10341 0.73583 0.34252 0.0
C708 C 0.15391 0.74962 0.3472 0.0
C709 C 0.21516 0.04199 0.44751 0.0
C710 C 0.22244 0.01178 0.41994 0.0
C711 C 0.18239 0.08236 0.44646 0.0
C712 C 0.15558 0.09361 0.41786 0.0
H713 H 0.23537 0.03483 0.46992 0.0
H714 H 0.17881 0.10538 0.46802 0.0
S715 S 0.15748 0.02257 0.34012 0.0
N716 N 0.19759 0.99368 0.36396 0.0
N717 N 0.13594 0.06919 0.36205 0.0
C718 C 0.16149 0.06275 0.39043 0.0
C719 C 0.19495 0.02194 0.39144 0.0
C720 C 0.20439 0.16254 0.05252 0.0
C721 C 0.16653 0.19914 0.05431 0.0
C722 C 0.22145 0.1432 1.02245 0.0
C723 C 0.20158 0.1595 0.9925 0.0
H724 H 0.22408 0.15167 0.07448 0.0
H725 H 0.25368 0.11907 1.02265 0.0
S726 S 0.09576 0.24745 0.98328 0.0
N727 N 0.10532 0.24536 1.0231 0.0
N728 N 0.13661 0.20896 0.96695 0.0
C729 C 0.16016 0.19193 0.99411 0.0
C730 C 0.14281 0.21164 0.02478 0.0
C731 C 0.77026 0.28877 0.03319 0.0
C732 C 0.76212 0.28414 0.9992 0.0
C733 C 0.74242 0.26141 0.05633 0.0
C734 C 0.70401 0.22907 0.04666 0.0
H735 H 0.79636 0.31614 0.0421 0.0
H736 H 0.7481 0.26907 0.08203 0.0
S737 S 0.66784 0.20255 0.96084 0.0
N738 N 0.71382 0.24261 0.95734 0.0
N739 N 0.66075 0.19294 1.0004 0.0
C740 C 0.69694 0.22257 1.01274 0.0
C741 C 0.72606 0.24952 0.98921 0.0
C742 C 0.83196 0.79215 0.99427 0.0
C743 C 0.79365 0.82821 0.99216 0.0
C744 C 0.85023 0.77463 0.02456 0.0
C745 C 0.83093 0.79214 0.05436 0.0
H746 H 0.84503 0.77406 0.97226 0.0
H747 H 0.87596 0.74368 0.02448 0.0
S748 S 0.73645 0.89222 0.06296 0.0
N749 N 0.74201 0.8851 1.02309 0.0
N750 N 0.77614 0.85283 0.07962 0.0
C751 C 0.7965 0.83188 0.05257 0.0
C752 C 0.778 0.84976 1.02171 0.0
C753 C 0.22171 0.70296 0.03413 0.0
C754 C 0.22961 0.7078 1.00015 0.0
C755 C 0.24898 0.73098 0.05731 0.0
C756 C 0.28655 0.76422 0.04766 0.0
H757 H 0.19638 0.6749 0.043 0.0
H758 H 0.24372 0.72308 0.083 0.0
S759 S 0.32141 0.79197 0.96189 0.0
N760 N 0.27646 0.75073 0.95834 0.0
N761 N 0.32847 0.80168 1.00146 0.0
C762 C 0.29314 0.77109 1.01376 0.0
C763 C 0.26459 0.74345 0.9902 0.0
C764 C 0.74828 0.76369 0.4899 0.0
C765 C 0.78596 0.73027 0.49949 0.0
C766 C 0.7212 0.79178 0.51313 0.0
C767 C 0.72943 0.78679 0.54708 0.0
H768 H 0.7428 0.77166 0.46422 0.0
H769 H 0.69576 0.81998 0.50433 0.0
S770 S 0.82187 0.70241 0.58515 0.0
N771 N 0.82854 0.69269 0.54557 0.0
N772 N 0.77679 0.74371 0.58881 0.0
C773 C 0.76456 0.75101 0.55697 0.0
C774 C 0.79293 0.72333 0.53336 0.0
C775 C 0.33231 0.69832 0.55391 0.0
C776 C 0.29468 0.66164 0.55521 0.0
C777 C 0.35101 0.71677 0.52401 0.0
C778 C 0.33323 0.69926 0.4938 0.0
H779 H 0.34413 0.71643 0.57621 0.0
H780 H 0.37555 0.74852 0.52469 0.0
S781 S 0.24342 0.59587 0.48317 0.0
N782 N 0.24665 0.60323 0.52315 0.0
N783 N 0.28219 0.6367 0.46737 0.0
C784 C 0.30036 0.65833 0.49486 0.0
C785 C 0.28112 0.63977 0.52532 0.0
C786 C 0.23766 0.22839 0.49104 0.0
C787 C 0.19941 0.26119 0.50053 0.0
C788 C 0.26511 0.2007 0.51434 0.0
C789 C 0.2567 0.20555 0.54826 0.0
H790 H 0.2433 0.22049 0.46538 0.0
H791 H 0.29091 0.17281 0.50562 0.0
S792 S 0.16302 0.28857 0.5861 0.0
N793 N 0.15621 0.29815 0.54651 0.0
N794 N 0.20873 0.24796 0.58987 0.0
C795 C 0.22108 0.24084 0.55806 0.0
C796 C 0.19231 0.26808 0.53438 0.0
C797 C 0.66093 0.29832 0.55205 0.0
C798 C 0.70047 0.33292 0.5537 0.0
C799 C 0.64309 0.27924 0.52201 0.0
C800 C 0.66395 0.29375 0.49201 0.0
H801 H 0.64635 0.28253 0.57436 0.0
H802 H 0.61634 0.24934 0.52263 0.0
S803 S 0.76244 0.38901 0.4819 0.0
N804 N 0.75526 0.38514 0.52184 0.0
N805 N 0.72188 0.35013 0.46585 0.0
C806 C 0.69981 0.33209 0.49318 0.0
C807 C 0.71794 0.35147 0.52375 0.0
C808 C 0.31197 0.42922 1.00086 0.0
C809 C 0.28401 0.42514 0.97195 0.0
C810 C 0.30622 0.39449 0.02575 0.0
C811 C 0.27255 0.3553 1.022 0.0
H812 H 0.33329 0.46234 1.00601 0.0
H813 H 0.32265 0.40228 0.04938 0.0
S814 S 0.20557 0.31859 0.94709 0.0
N815 N 0.23415 0.37059 0.93738 0.0
N816 N 0.22125 0.307 0.98531 0.0
C817 C 0.25203 0.34586 0.99131 0.0
C818 C 0.25867 0.38044 0.9657 0.0
C819 C 0.37828 0.25375 0.083 0.0
C820 C 0.42104 0.28236 0.07709 0.0
C821 C 0.34403 0.24549 0.05808 0.0
C822 C 0.35109 0.267 0.02734 0.0
H823 H 0.37463 0.23204 0.10512 0.0
H824 H 0.31572 0.21747 0.06154 0.0
S825 S 0.44442 0.3615 1.00486 0.0
N826 N 0.45934 0.34481 0.04242 0.0
N827 N 0.39463 0.32898 0.99528 0.0
C828 C 0.38745 0.30366 1.02358 0.0
C829 C 0.42261 0.31174 0.04882 0.0
C830 C 0.74224 0.64488 0.99035 0.0
C831 C 0.72184 0.63727 1.02133 0.0
C832 C 0.73509 0.60993 0.96578 0.0
C833 C 0.70895 0.56586 0.97234 0.0
H834 H 0.76874 0.67448 0.98639 0.0
H835 H 0.75595 0.61439 0.94338 0.0
S836 S 0.63257 0.53989 0.0455 0.0
N837 N 0.66261 0.59152 0.05429 0.0
N838 N 0.64933 0.52502 1.00796 0.0
C839 C 0.68033 0.56324 1.00092 0.0
C840 C 0.68707 0.59929 0.02575 0.0
C841 C 0.61192 0.73493 0.08119 0.0
C842 C 0.56791 0.70825 0.07516 0.0
C843 C 0.64645 0.74178 0.05636 0.0
C844 C 0.6385 0.72066 0.02558 0.0
H845 H 0.61668 0.7562 0.10342 0.0
H846 H 0.67601 0.76847 0.05997 0.0
S847 S 0.54139 0.63009 1.00275 0.0
N848 N 0.52701 0.64753 0.04024 0.0
N849 N 0.59256 0.66045 0.99337 0.0
C850 C 0.60059 0.68563 1.02165 0.0
C851 C 0.56502 0.67908 0.04678 0.0
C852 C 0.80642 0.09743 0.52225 0.0
C853 C 0.77144 0.1358 0.525 0.0
C854 C 0.8129 0.06399 0.54786 0.0
C855 C 0.78423 0.06856 0.57638 0.0
H856 H 0.8233 0.08899 0.49888 0.0
H857 H 0.83512 0.0311 0.54346 0.0
S858 S 0.70317 0.17471 0.59886 0.0
N859 N 0.71887 0.18489 0.56051 0.0
N860 N 0.73291 0.12367 0.60971 0.0
C861 C 0.75791 0.11308 0.58172 0.0
C862 C 0.75062 0.14635 0.55543 0.0
C863 C 0.06281 0.8102 0.50095 0.0
C864 C 0.06736 0.78279 0.47188 0.0
C865 C 0.09742 0.80404 0.526 0.0
C866 C 0.13676 0.77034 0.52225 0.0
H867 H 0.02943 0.83129 0.5061 0.0
H868 H 0.08923 0.81992 0.54971 0.0
S869 S 0.17518 0.70586 0.44684 0.0
N870 N 0.12292 0.73435 0.4371 0.0
N871 N 0.18616 0.72043 0.48533 0.0
C872 C 0.1468 0.75069 0.49143 0.0
C873 C 0.11242 0.75787 0.46566 0.0
C874 C 0.18446 0.89099 0.52368 0.0
C875 C 0.21995 0.85312 0.52682 0.0
C876 C 0.17802 0.92529 0.54884 0.0
C877 C 0.20688 0.9218 0.57741 0.0
H878 H 0.16746 0.89866 0.5002 0.0
H879 H 0.1556 0.95792 0.54402 0.0
S880 S 0.28884 0.81698 0.60115 0.0
N881 N 0.27297 0.80551 0.56294 0.0
N882 N 0.25874 0.86806 0.61138 0.0
C883 C 0.23352 0.87763 0.58327 0.0
C884 C 0.24091 0.8436 0.55738 0.0
C885 C 0.84061 0.24231 0.49136 0.0
C886 C 0.8493 0.2226 0.52245 0.0
C887 C 0.87426 0.23346 0.46623 0.0
C888 C 0.91818 0.2064 0.47233 0.0
H889 H 0.81131 0.26939 0.48761 0.0
H890 H 0.86915 0.25374 0.44363 0.0
S891 S 0.94702 0.13295 0.54647 0.0
N892 N 0.89601 0.16405 0.5556 0.0
N893 N 0.96005 0.14762 0.5083 0.0
C894 C 0.92169 0.17877 0.50132 0.0
C895 C 0.88698 0.18723 0.5267 0.0
loop_
_geom_bond_atom_site_label_1
_geom_bond_atom_site_label_2
_geom_bond_distance
_geom_bond_site_symmetry_2
_ccdc_geom_bond_type
O0 Zn1 1.953 . S
O0 C16 1.225 . S
Zn1 O0 1.953 . S
Zn1 O2 1.949 . S
Zn1 O8 1.919 . S
Zn1 O13 1.924 . S
O2 Zn1 1.949 . S
O2 Zn3 1.923 . S
O2 Zn4 1.950 . S
O2 Zn5 1.945 . S
Zn3 O2 1.923 . S
Zn3 O6 1.933 . S
Zn3 O9 1.941 . S
Zn3 O10 1.965 . S
Zn4 O2 1.950 . S
Zn4 O11 1.938 . S
Zn4 O12 1.906 . S
Zn4 O22 1.953 . S
Zn5 O2 1.945 . S
Zn5 O7 1.932 . S
Zn5 O14 1.977 . S
Zn5 O15 1.910 . S
O6 Zn3 1.933 . S
O6 C17 1.226 . S
O7 Zn5 1.932 . S
O7 C17 1.307 . S
O8 Zn1 1.919 . S
O8 C19 1.253 . S
O9 Zn3 1.941 . S
O9 C19 1.283 . S
O10 Zn3 1.965 . S
O10 C18 1.303 . S
O11 Zn4 1.938 . S
O11 C18 1.247 . S
O12 Zn4 1.906 . S
O12 C20 1.304 . S
O13 Zn1 1.924 . S
O13 C21 1.311 . S
O14 Zn5 1.977 . S
O14 C20 1.272 . S
O15 Zn5 1.910 . S
O15 C21 1.231 . S
C16 O0 1.225 . S
C16 O22 1.298 . S
C17 O6 1.226 . S
C17 O7 1.307 . S
C18 O10 1.303 . S
C18 O11 1.247 . S
C19 O8 1.253 . S
C19 O9 1.283 . S
C20 O12 1.304 . S
C20 O14 1.272 . S
C21 O13 1.311 . S
C21 O15 1.231 . S
O22 Zn4 1.953 . S
O22 C16 1.298 . S
O23 Zn24 1.953 . S
O23 C39 1.225 . S
Zn24 O23 1.953 . S
Zn24 O25 1.949 . S
Zn24 O31 1.919 . S
Zn24 O36 1.924 . S
O25 Zn24 1.949 . S
O25 Zn26 1.923 . S
O25 Zn27 1.950 . S
O25 Zn28 1.945 . S
Zn26 O25 1.923 . S
Zn26 O29 1.933 . S
Zn26 O32 1.941 . S
Zn26 O33 1.965 . S
Zn27 O25 1.950 . S
Zn27 O34 1.938 . S
Zn27 O35 1.906 . S
Zn27 O45 1.953 . S
Zn28 O25 1.945 . S
Zn28 O30 1.932 . S
Zn28 O37 1.977 . S
Zn28 O38 1.910 . S
O29 Zn26 1.933 . S
O29 C40 1.226 . S
O30 Zn28 1.932 . S
O30 C40 1.307 . S
O31 Zn24 1.919 . S
O31 C42 1.253 . S
O32 Zn26 1.941 . S
O32 C42 1.283 . S
O33 Zn26 1.965 . S
O33 C41 1.303 . S
O34 Zn27 1.938 . S
O34 C41 1.247 . S
O35 Zn27 1.906 . S
O35 C43 1.304 . S
O36 Zn24 1.924 . S
O36 C44 1.311 . S
O37 Zn28 1.977 . S
O37 C43 1.272 . S
O38 Zn28 1.910 . S
O38 C44 1.231 . S
C39 O23 1.225 . S
C39 O45 1.298 . S
C40 O29 1.226 . S
C40 O30 1.307 . S
C41 O33 1.303 . S
C41 O34 1.247 . S
C42 O31 1.253 . S
C42 O32 1.283 . S
C43 O35 1.304 . S
C43 O37 1.272 . S
C44 O36 1.311 . S
C44 O38 1.231 . S
O45 Zn27 1.953 . S
O45 C39 1.298 . S
O46 Zn47 1.953 . S
O46 C62 1.225 . S
Zn47 O46 1.953 . S
Zn47 O48 1.949 . S
Zn47 O54 1.919 . S
Zn47 O59 1.924 . S
O48 Zn47 1.949 . S
O48 Zn49 1.923 . S
O48 Zn50 1.950 . S
O48 Zn51 1.945 . S
Zn49 O48 1.923 . S
Zn49 O52 1.933 . S
Zn49 O55 1.941 . S
Zn49 O56 1.965 . S
Zn50 O48 1.950 . S
Zn50 O57 1.938 . S
Zn50 O58 1.906 . S
Zn50 O68 1.953 . S
Zn51 O48 1.945 . S
Zn51 O53 1.932 . S
Zn51 O60 1.977 . S
Zn51 O61 1.910 . S
O52 Zn49 1.933 . S
O52 C63 1.226 . S
O53 Zn51 1.932 . S
O53 C63 1.307 . S
O54 Zn47 1.919 . S
O54 C65 1.253 . S
O55 Zn49 1.941 . S
O55 C65 1.283 . S
O56 Zn49 1.965 . S
O56 C64 1.303 . S
O57 Zn50 1.938 . S
O57 C64 1.247 . S
O58 Zn50 1.906 . S
O58 C66 1.304 . S
O59 Zn47 1.924 . S
O59 C67 1.311 . S
O60 Zn51 1.977 . S
O60 C66 1.272 . S
O61 Zn51 1.910 . S
O61 C67 1.231 . S
C62 O46 1.225 . S
C62 O68 1.298 . S
C63 O52 1.226 . S
C63 O53 1.307 . S
C64 O56 1.303 . S
C64 O57 1.247 . S
C65 O54 1.253 . S
C65 O55 1.283 . S
C66 O58 1.304 . S
C66 O60 1.272 . S
C67 O59 1.311 . S
C67 O61 1.231 . S
O68 Zn50 1.953 . S
O68 C62 1.298 . S
O69 Zn70 1.953 . S
O69 C85 1.225 . S
Zn70 O69 1.953 . S
Zn70 O71 1.949 . S
Zn70 O77 1.919 . S
Zn70 O82 1.924 . S
O71 Zn70 1.949 . S
O71 Zn72 1.923 . S
O71 Zn73 1.950 . S
O71 Zn74 1.945 . S
Zn72 O71 1.923 . S
Zn72 O75 1.933 . S
Zn72 O78 1.941 . S
Zn72 O79 1.965 . S
Zn73 O71 1.950 . S
Zn73 O80 1.938 . S
Zn73 O81 1.906 . S
Zn73 O91 1.953 . S
Zn74 O71 1.945 . S
Zn74 O76 1.932 . S
Zn74 O83 1.977 . S
Zn74 O84 1.910 . S
O75 Zn72 1.933 . S
O75 C86 1.226 . S
O76 Zn74 1.932 . S
O76 C86 1.307 . S
O77 Zn70 1.919 . S
O77 C88 1.253 . S
O78 Zn72 1.941 . S
O78 C88 1.283 . S
O79 Zn72 1.965 . S
O79 C87 1.303 . S
O80 Zn73 1.938 . S
O80 C87 1.247 . S
O81 Zn73 1.906 . S
O81 C89 1.304 . S
O82 Zn70 1.924 . S
O82 C90 1.311 . S
O83 Zn74 1.977 . S
O83 C89 1.272 . S
O84 Zn74 1.910 . S
O84 C90 1.231 . S
C85 O69 1.225 . S
C85 O91 1.298 . S
C86 O75 1.226 . S
C86 O76 1.307 . S
C87 O79 1.303 . S
C87 O80 1.247 . S
C88 O77 1.253 . S
C88 O78 1.283 . S
C89 O81 1.304 . S
C89 O83 1.272 . S
C90 O82 1.311 . S
C90 O84 1.231 . S
O91 Zn73 1.953 . S
O91 C85 1.298 . S
O92 Zn93 1.953 . S
O92 C108 1.225 . S
Zn93 O92 1.953 . S
Zn93 O94 1.949 . S
Zn93 O100 1.919 . S
Zn93 O105 1.924 . S
O94 Zn93 1.949 . S
O94 Zn95 1.923 . S
O94 Zn96 1.950 . S
O94 Zn97 1.945 . S
Zn95 O94 1.923 . S
Zn95 O98 1.933 . S
Zn95 O101 1.941 . S
Zn95 O102 1.965 . S
Zn96 O94 1.950 . S
Zn96 O103 1.938 . S
Zn96 O104 1.906 . S
Zn96 O114 1.953 . S
Zn97 O94 1.945 . S
Zn97 O99 1.932 . S
Zn97 O106 1.977 . S
Zn97 O107 1.910 . S
O98 Zn95 1.933 . S
O98 C109 1.226 . S
O99 Zn97 1.932 . S
O99 C109 1.307 . S
O100 Zn93 1.919 . S
O100 C111 1.253 . S
O101 Zn95 1.941 . S
O101 C111 1.283 . S
O102 Zn95 1.965 . S
O102 C110 1.303 . S
O103 Zn96 1.938 . S
O103 C110 1.247 . S
O104 Zn96 1.906 . S
O104 C112 1.304 . S
O105 Zn93 1.924 . S
O105 C113 1.311 . S
O106 Zn97 1.977 . S
O106 C112 1.272 . S
O107 Zn97 1.910 . S
O107 C113 1.231 . S
C108 O92 1.225 . S
C108 O114 1.298 . S
C109 O98 1.226 . S
C109 O99 1.307 . S
C110 O102 1.303 . S
C110 O103 1.247 . S
C111 O100 1.253 . S
C111 O101 1.283 . S
C112 O104 1.304 . S
C112 O106 1.272 . S
C113 O105 1.311 . S
C113 O107 1.231 . S
O114 Zn96 1.953 . S
O114 C108 1.298 . S
O115 Zn116 1.953 . S
O115 C131 1.225 . S
Zn116 O115 1.953 . S
Zn116 O117 1.949 . S
Zn116 O123 1.919 . S
Zn116 O128 1.924 . S
O117 Zn116 1.949 . S
O117 Zn118 1.923 . S
O117 Zn119 1.950 . S
O117 Zn120 1.945 . S
Zn118 O117 1.923 . S
Zn118 O121 1.933 . S
Zn118 O124 1.941 . S
Zn118 O125 1.965 . S
Zn119 O117 1.950 . S
Zn119 O126 1.938 . S
Zn119 O127 1.906 . S
Zn119 O137 1.953 . S
Zn120 O117 1.945 . S
Zn120 O122 1.932 . S
Zn120 O129 1.977 . S
Zn120 O130 1.910 . S
O121 Zn118 1.933 . S
O121 C132 1.226 . S
O122 Zn120 1.932 . S
O122 C132 1.307 . S
O123 Zn116 1.919 . S
O123 C134 1.253 . S
O124 Zn118 1.941 . S
O124 C134 1.283 . S
O125 Zn118 1.965 . S
O125 C133 1.303 . S
O126 Zn119 1.938 . S
O126 C133 1.247 . S
O127 Zn119 1.906 . S
O127 C135 1.304 . S
O128 Zn116 1.924 . S
O128 C136 1.311 . S
O129 Zn120 1.977 . S
O129 C135 1.272 . S
O130 Zn120 1.910 . S
O130 C136 1.231 . S
C131 O115 1.225 . S
C131 O137 1.298 . S
C132 O121 1.226 . S
C132 O122 1.307 . S
C133 O125 1.303 . S
C133 O126 1.247 . S
C134 O123 1.253 . S
C134 O124 1.283 . S
C135 O127 1.304 . S
C135 O129 1.272 . S
C136 O128 1.311 . S
C136 O130 1.231 . S
O137 Zn119 1.953 . S
O137 C131 1.298 . S
O138 Zn139 1.953 . S
O138 C154 1.225 . S
Zn139 O138 1.953 . S
Zn139 O140 1.949 . S
Zn139 O146 1.919 . S
Zn139 O151 1.924 . S
O140 Zn139 1.949 . S
O140 Zn141 1.923 . S
O140 Zn142 1.950 . S
O140 Zn143 1.945 . S
Zn141 O140 1.923 . S
Zn141 O144 1.933 . S
Zn141 O147 1.941 . S
Zn141 O148 1.965 . S
Zn142 O140 1.950 . S
Zn142 O149 1.938 . S
Zn142 O150 1.906 . S
Zn142 O160 1.953 . S
Zn143 O140 1.945 . S
Zn143 O145 1.932 . S
Zn143 O152 1.977 . S
Zn143 O153 1.910 . S
O144 Zn141 1.933 . S
O144 C155 1.226 . S
O145 Zn143 1.932 . S
O145 C155 1.307 . S
O146 Zn139 1.919 . S
O146 C157 1.253 . S
O147 Zn141 1.941 . S
O147 C157 1.283 . S
O148 Zn141 1.965 . S
O148 C156 1.303 . S
O149 Zn142 1.938 . S
O149 C156 1.247 . S
O150 Zn142 1.906 . S
O150 C158 1.304 . S
O151 Zn139 1.924 . S
O151 C159 1.311 . S
O152 Zn143 1.977 . S
O152 C158 1.272 . S
O153 Zn143 1.910 . S
O153 C159 1.231 . S
C154 O138 1.225 . S
C154 O160 1.298 . S
C155 O144 1.226 . S
C155 O145 1.307 . S
C156 O148 1.303 . S
C156 O149 1.247 . S
C157 O146 1.253 . S
C157 O147 1.283 . S
C158 O150 1.304 . S
C158 O152 1.272 . S
C159 O151 1.311 . S
C159 O153 1.231 . S
O160 Zn142 1.953 . S
O160 C154 1.298 . S
O161 Zn162 1.953 . S
O161 C177 1.225 . S
Zn162 O161 1.953 . S
Zn162 O163 1.949 . S
Zn162 O169 1.919 . S
Zn162 O174 1.924 . S
O163 Zn162 1.949 . S
O163 Zn164 1.923 . S
O163 Zn165 1.950 . S
O163 Zn166 1.945 . S
Zn164 O163 1.923 . S
Zn164 O167 1.933 . S
Zn164 O170 1.941 . S
Zn164 O171 1.965 . S
Zn165 O163 1.950 . S
Zn165 O172 1.938 . S
Zn165 O173 1.906 . S
Zn165 O183 1.953 . S
Zn166 O163 1.945 . S
Zn166 O168 1.932 . S
Zn166 O175 1.977 . S
Zn166 O176 1.910 . S
O167 Zn164 1.933 . S
O167 C178 1.226 . S
O168 Zn166 1.932 . S
O168 C178 1.307 . S
O169 Zn162 1.919 . S
O169 C180 1.253 . S
O170 Zn164 1.941 . S
O170 C180 1.283 . S
O171 Zn164 1.965 . S
O171 C179 1.303 . S
O172 Zn165 1.938 . S
O172 C179 1.247 . S
O173 Zn165 1.906 . S
O173 C181 1.304 . S
O174 Zn162 1.924 . S
O174 C182 1.311 . S
O175 Zn166 1.977 . S
O175 C181 1.272 . S
O176 Zn166 1.910 . S
O176 C182 1.231 . S
C177 O161 1.225 . S
C177 O183 1.298 . S
C178 O167 1.226 . S
C178 O168 1.307 . S
C179 O171 1.303 . S
C179 O172 1.247 . S
C180 O169 1.253 . S
C180 O170 1.283 . S
C181 O173 1.304 . S
C181 O175 1.272 . S
C182 O174 1.311 . S
C182 O176 1.231 . S
O183 Zn165 1.953 . S
O183 C177 1.298 . S
O184 Zn185 1.953 . S
O184 C200 1.225 . S
Zn185 O184 1.953 . S
Zn185 O186 1.949 . S
Zn185 O192 1.919 . S
Zn185 O197 1.924 . S
O186 Zn185 1.949 . S
O186 Zn187 1.923 . S
O186 Zn188 1.950 . S
O186 Zn189 1.945 . S
Zn187 O186 1.923 . S
Zn187 O190 1.933 . S
Zn187 O193 1.941 . S
Zn187 O194 1.965 . S
Zn188 O186 1.950 . S
Zn188 O195 1.938 . S
Zn188 O196 1.906 . S
Zn188 O206 1.953 . S
Zn189 O186 1.945 . S
Zn189 O191 1.932 . S
Zn189 O198 1.977 1_565 S
Zn189 O199 1.910 . S
O190 Zn187 1.933 . S
O190 C201 1.226 . S
O191 Zn189 1.932 . S
O191 C201 1.307 . S
O192 Zn185 1.919 . S
O192 C203 1.253 . S
O193 Zn187 1.941 . S
O193 C203 1.283 . S
O194 Zn187 1.965 . S
O194 C202 1.303 . S
O195 Zn188 1.938 . S
O195 C202 1.247 . S
O196 Zn188 1.906 . S
O196 C204 1.304 1_565 S
O197 Zn185 1.924 . S
O197 C205 1.311 . S
O198 Zn189 1.977 1_545 S
O198 C204 1.272 . S
O199 Zn189 1.910 . S
O199 C205 1.231 . S
C200 O184 1.225 . S
C200 O206 1.298 . S
C201 O190 1.226 . S
C201 O191 1.307 . S
C202 O194 1.303 . S
C202 O195 1.247 . S
C203 O192 1.253 . S
C203 O193 1.283 . S
C204 O196 1.304 1_545 S
C204 O198 1.272 . S
C205 O197 1.311 . S
C205 O199 1.231 . S
O206 Zn188 1.953 . S
O206 C200 1.298 . S
O207 Zn208 1.953 . S
O207 C223 1.225 . S
Zn208 O207 1.953 . S
Zn208 O209 1.949 . S
Zn208 O215 1.919 . S
Zn208 O220 1.924 . S
O209 Zn208 1.949 . S
O209 Zn210 1.923 . S
O209 Zn211 1.950 . S
O209 Zn212 1.945 . S
Zn210 O209 1.923 . S
Zn210 O213 1.933 . S
Zn210 O216 1.941 . S
Zn210 O217 1.965 . S
Zn211 O209 1.950 . S
Zn211 O218 1.938 . S
Zn211 O219 1.906 . S
Zn211 O229 1.953 . S
Zn212 O209 1.945 . S
Zn212 O214 1.932 . S
Zn212 O221 1.977 1_455 S
Zn212 O222 1.910 . S
O213 Zn210 1.933 . S
O213 C224 1.226 . S
O214 Zn212 1.932 . S
O214 C224 1.307 . S
O215 Zn208 1.919 . S
O215 C226 1.253 . S
O216 Zn210 1.941 . S
O216 C226 1.283 . S
O217 Zn210 1.965 . S
O217 C225 1.303 . S
O218 Zn211 1.938 . S
O218 C225 1.247 . S
O219 Zn211 1.906 . S
O219 C227 1.304 1_455 S
O220 Zn208 1.924 . S
O220 C228 1.311 . S
O221 Zn212 1.977 1_655 S
O221 C227 1.272 . S
O222 Zn212 1.910 . S
O222 C228 1.231 . S
C223 O207 1.225 . S
C223 O229 1.298 . S
C224 O213 1.226 . S
C224 O214 1.307 . S
C225 O217 1.303 . S
C225 O218 1.247 . S
C226 O215 1.253 . S
C226 O216 1.283 . S
C227 O219 1.304 1_655 S
C227 O221 1.272 . S
C228 O220 1.311 . S
C228 O222 1.231 . S
O229 Zn211 1.953 . S
O229 C223 1.298 . S
O230 Zn231 1.953 . S
O230 C246 1.225 . S
Zn231 O230 1.953 . S
Zn231 O232 1.949 . S
Zn231 O238 1.919 . S
Zn231 O243 1.924 . S
O232 Zn231 1.949 . S
O232 Zn233 1.923 . S
O232 Zn234 1.950 . S
O232 Zn235 1.945 . S
Zn233 O232 1.923 . S
Zn233 O236 1.933 . S
Zn233 O239 1.941 . S
Zn233 O240 1.965 . S
Zn234 O232 1.950 . S
Zn234 O241 1.938 . S
Zn234 O242 1.906 . S
Zn234 O252 1.953 . S
Zn235 O232 1.945 . S
Zn235 O237 1.932 . S
Zn235 O244 1.977 1_545 S
Zn235 O245 1.910 . S
O236 Zn233 1.933 . S
O236 C247 1.226 . S
O237 Zn235 1.932 . S
O237 C247 1.307 . S
O238 Zn231 1.919 . S
O238 C249 1.253 . S
O239 Zn233 1.941 . S
O239 C249 1.283 . S
O240 Zn233 1.965 . S
O240 C248 1.303 . S
O241 Zn234 1.938 . S
O241 C248 1.247 . S
O242 Zn234 1.906 . S
O242 C250 1.304 1_545 S
O243 Zn231 1.924 . S
O243 C251 1.311 . S
O244 Zn235 1.977 1_565 S
O244 C250 1.272 . S
O245 Zn235 1.910 . S
O245 C251 1.231 . S
C246 O230 1.225 . S
C246 O252 1.298 . S
C247 O236 1.226 . S
C247 O237 1.307 . S
C248 O240 1.303 . S
C248 O241 1.247 . S
C249 O238 1.253 . S
C249 O239 1.283 . S
C250 O242 1.304 1_565 S
C250 O244 1.272 . S
C251 O243 1.311 . S
C251 O245 1.231 . S
O252 Zn234 1.953 . S
O252 C246 1.298 . S
O253 Zn254 1.953 . S
O253 C269 1.225 . S
Zn254 O253 1.953 . S
Zn254 O255 1.949 . S
Zn254 O261 1.919 . S
Zn254 O266 1.924 . S
O255 Zn254 1.949 . S
O255 Zn256 1.923 . S
O255 Zn257 1.950 . S
O255 Zn258 1.945 . S
Zn256 O255 1.923 . S
Zn256 O259 1.933 . S
Zn256 O262 1.941 . S
Zn256 O263 1.965 . S
Zn257 O255 1.950 . S
Zn257 O264 1.938 . S
Zn257 O265 1.906 . S
Zn257 O275 1.953 . S
Zn258 O255 1.945 . S
Zn258 O260 1.932 . S
Zn258 O267 1.977 1_655 S
Zn258 O268 1.910 . S
O259 Zn256 1.933 . S
O259 C270 1.226 . S
O260 Zn258 1.932 . S
O260 C270 1.307 . S
O261 Zn254 1.919 . S
O261 C272 1.253 . S
O262 Zn256 1.941 . S
O262 C272 1.283 . S
O263 Zn256 1.965 . S
O263 C271 1.303 . S
O264 Zn257 1.938 . S
O264 C271 1.247 . S
O265 Zn257 1.906 . S
O265 C273 1.304 1_655 S
O266 Zn254 1.924 . S
O266 C274 1.311 . S
O267 Zn258 1.977 1_455 S
O267 C273 1.272 . S
O268 Zn258 1.910 . S
O268 C274 1.231 . S
C269 O253 1.225 . S
C269 O275 1.298 . S
C270 O259 1.226 . S
C270 O260 1.307 . S
C271 O263 1.303 . S
C271 O264 1.247 . S
C272 O261 1.253 . S
C272 O262 1.283 . S
C273 O265 1.304 1_455 S
C273 O267 1.272 . S
C274 O266 1.311 . S
C274 O268 1.231 . S
O275 Zn257 1.953 . S
O275 C269 1.298 . S
O276 Zn277 1.953 . S
O276 C292 1.225 . S
Zn277 O276 1.953 . S
Zn277 O278 1.949 . S
Zn277 O284 1.919 . S
Zn277 O289 1.924 . S
O278 Zn277 1.949 . S
O278 Zn279 1.923 . S
O278 Zn280 1.950 . S
O278 Zn281 1.945 . S
Zn279 O278 1.923 . S
Zn279 O282 1.933 . S
Zn279 O285 1.941 . S
Zn279 O286 1.965 . S
Zn280 O278 1.950 . S
Zn280 O287 1.938 . S
Zn280 O288 1.906 . S
Zn280 O298 1.953 . S
Zn281 O278 1.945 . S
Zn281 O283 1.932 . S
Zn281 O290 1.977 1_545 S
Zn281 O291 1.910 . S
O282 Zn279 1.933 . S
O282 C293 1.226 . S
O283 Zn281 1.932 . S
O283 C293 1.307 . S
O284 Zn277 1.919 . S
O284 C295 1.253 . S
O285 Zn279 1.941 . S
O285 C295 1.283 . S
O286 Zn279 1.965 . S
O286 C294 1.303 . S
O287 Zn280 1.938 . S
O287 C294 1.247 . S
O288 Zn280 1.906 . S
O288 C296 1.304 1_545 S
O289 Zn277 1.924 . S
O289 C297 1.311 . S
O290 Zn281 1.977 1_565 S
O290 C296 1.272 . S
O291 Zn281 1.910 . S
O291 C297 1.231 . S
C292 O276 1.225 . S
C292 O298 1.298 . S
C293 O282 1.226 . S
C293 O283 1.307 . S
C294 O286 1.303 . S
C294 O287 1.247 . S
C295 O284 1.253 . S
C295 O285 1.283 . S
C296 O288 1.304 1_565 S
C296 O290 1.272 . S
C297 O289 1.311 . S
C297 O291 1.231 . S
O298 Zn280 1.953 . S
O298 C292 1.298 . S
O299 Zn300 1.953 . S
O299 C315 1.225 . S
Zn300 O299 1.953 . S
Zn300 O301 1.949 . S
Zn300 O307 1.919 . S
Zn300 O312 1.924 . S
O301 Zn300 1.949 . S
O301 Zn302 1.923 . S
O301 Zn303 1.950 . S
O301 Zn304 1.945 . S
Zn302 O301 1.923 . S
Zn302 O305 1.933 . S
Zn302 O308 1.941 . S
Zn302 O309 1.965 . S
Zn303 O301 1.950 . S
Zn303 O310 1.938 . S
Zn303 O311 1.906 . S
Zn303 O321 1.953 . S
Zn304 O301 1.945 . S
Zn304 O306 1.932 . S
Zn304 O313 1.977 1_655 S
Zn304 O314 1.910 . S
O305 Zn302 1.933 . S
O305 C316 1.226 . S
O306 Zn304 1.932 . S
O306 C316 1.307 . S
O307 Zn300 1.919 . S
O307 C318 1.253 . S
O308 Zn302 1.941 . S
O308 C318 1.283 . S
O309 Zn302 1.965 . S
O309 C317 1.303 . S
O310 Zn303 1.938 . S
O310 C317 1.247 . S
O311 Zn303 1.906 . S
O311 C319 1.304 1_655 S
O312 Zn300 1.924 . S
O312 C320 1.311 . S
O313 Zn304 1.977 1_455 S
O313 C319 1.272 . S
O314 Zn304 1.910 . S
O314 C320 1.231 . S
C315 O299 1.225 . S
C315 O321 1.298 . S
C316 O305 1.226 . S
C316 O306 1.307 . S
C317 O309 1.303 . S
C317 O310 1.247 . S
C318 O307 1.253 . S
C318 O308 1.283 . S
C319 O311 1.304 1_455 S
C319 O313 1.272 . S
C320 O312 1.311 . S
C320 O314 1.231 . S
O321 Zn303 1.953 . S
O321 C315 1.298 . S
O322 Zn323 1.953 . S
O322 C338 1.225 . S
Zn323 O322 1.953 . S
Zn323 O324 1.949 . S
Zn323 O330 1.919 . S
Zn323 O335 1.924 . S
O324 Zn323 1.949 . S
O324 Zn325 1.923 . S
O324 Zn326 1.950 . S
O324 Zn327 1.945 . S
Zn325 O324 1.923 . S
Zn325 O328 1.933 . S
Zn325 O331 1.941 . S
Zn325 O332 1.965 . S
Zn326 O324 1.950 . S
Zn326 O333 1.938 . S
Zn326 O334 1.906 . S
Zn326 O344 1.953 . S
Zn327 O324 1.945 . S
Zn327 O329 1.932 . S
Zn327 O336 1.977 1_565 S
Zn327 O337 1.910 . S
O328 Zn325 1.933 . S
O328 C339 1.226 . S
O329 Zn327 1.932 . S
O329 C339 1.307 . S
O330 Zn323 1.919 . S
O330 C341 1.253 . S
O331 Zn325 1.941 . S
O331 C341 1.283 . S
O332 Zn325 1.965 . S
O332 C340 1.303 . S
O333 Zn326 1.938 . S
O333 C340 1.247 . S
O334 Zn326 1.906 . S
O334 C342 1.304 1_565 S
O335 Zn323 1.924 . S
O335 C343 1.311 . S
O336 Zn327 1.977 1_545 S
O336 C342 1.272 . S
O337 Zn327 1.910 . S
O337 C343 1.231 . S
C338 O322 1.225 . S
C338 O344 1.298 . S
C339 O328 1.226 . S
C339 O329 1.307 . S
C340 O332 1.303 . S
C340 O333 1.247 . S
C341 O330 1.253 . S
C341 O331 1.283 . S
C342 O334 1.304 1_545 S
C342 O336 1.272 . S
C343 O335 1.311 . S
C343 O337 1.231 . S
O344 Zn326 1.953 . S
O344 C338 1.298 . S
O345 Zn346 1.953 . S
O345 C361 1.225 . S
Zn346 O345 1.953 . S
Zn346 O347 1.949 . S
Zn346 O353 1.919 . S
Zn346 O358 1.924 . S
O347 Zn346 1.949 . S
O347 Zn348 1.923 . S
O347 Zn349 1.950 . S
O347 Zn350 1.945 . S
Zn348 O347 1.923 . S
Zn348 O351 1.933 . S
Zn348 O354 1.941 . S
Zn348 O355 1.965 . S
Zn349 O347 1.950 . S
Zn349 O356 1.938 . S
Zn349 O357 1.906 . S
Zn349 O367 1.953 . S
Zn350 O347 1.945 . S
Zn350 O352 1.932 . S
Zn350 O359 1.977 1_455 S
Zn350 O360 1.910 . S
O351 Zn348 1.933 . S
O351 C362 1.226 . S
O352 Zn350 1.932 . S
O352 C362 1.307 . S
O353 Zn346 1.919 . S
O353 C364 1.253 . S
O354 Zn348 1.941 . S
O354 C364 1.283 . S
O355 Zn348 1.965 . S
O355 C363 1.303 . S
O356 Zn349 1.938 . S
O356 C363 1.247 . S
O357 Zn349 1.906 . S
O357 C365 1.304 1_455 S
O358 Zn346 1.924 . S
O358 C366 1.311 . S
O359 Zn350 1.977 1_655 S
O359 C365 1.272 . S
O360 Zn350 1.910 . S
O360 C366 1.231 . S
C361 O345 1.225 . S
C361 O367 1.298 . S
C362 O351 1.226 . S
C362 O352 1.307 . S
C363 O355 1.303 . S
C363 O356 1.247 . S
C364 O353 1.253 . S
C364 O354 1.283 . S
C365 O357 1.304 1_655 S
C365 O359 1.272 . S
C366 O358 1.311 . S
C366 O360 1.231 . S
O367 Zn349 1.953 . S
O367 C361 1.298 . S
C368 C369 1.369 . S
C368 C370 1.419 . S
C368 H372 0.930 . S
C369 C368 1.369 . S
C369 C378 1.429 . S
C370 C368 1.419 . S
C370 C371 1.363 . S
C370 H373 0.929 . S
C371 C370 1.363 . S
C371 C377 1.428 . S
H372 C368 0.930 . S
H373 C370 0.929 . S
S374 N375 1.613 . S
S374 N376 1.610 . S
N375 S374 1.613 . S
N375 C378 1.350 . S
N376 S374 1.610 . S
N376 C377 1.351 . S
C377 C371 1.428 . S
C377 N376 1.351 . S
C377 C378 1.434 . S
C378 C369 1.429 . S
C378 N375 1.350 . S
C378 C377 1.434 . S
C379 C380 1.369 . S
C379 C381 1.419 . S
C379 H383 0.930 . S
C380 C379 1.369 . S
C380 C389 1.429 . S
C381 C379 1.419 . S
C381 C382 1.363 . S
C381 H384 0.929 . S
C382 C381 1.363 . S
C382 C388 1.428 . S
H383 C379 0.930 . S
H384 C381 0.929 . S
S385 N386 1.613 . S
S385 N387 1.610 . S
N386 S385 1.613 . S
N386 C389 1.350 . S
N387 S385 1.610 . S
N387 C388 1.351 . S
C388 C382 1.428 . S
C388 N387 1.351 . S
C388 C389 1.434 . S
C389 C380 1.429 . S
C389 N386 1.350 . S
C389 C388 1.434 . S
C390 C391 1.369 . S
C390 C392 1.419 . S
C390 H394 0.930 . S
C391 C390 1.369 . S
C391 C400 1.429 . S
C392 C390 1.419 . S
C392 C393 1.363 . S
C392 H395 0.929 . S
C393 C392 1.363 . S
C393 C399 1.428 . S
H394 C390 0.930 . S
H395 C392 0.929 . S
S396 N397 1.613 . S
S396 N398 1.610 . S
N397 S396 1.613 . S
N397 C400 1.350 . S
N398 S396 1.610 . S
N398 C399 1.351 . S
C399 C393 1.428 . S
C399 N398 1.351 . S
C399 C400 1.434 . S
C400 C391 1.429 . S
C400 N397 1.350 . S
C400 C399 1.434 . S
C401 C402 1.369 . S
C401 C403 1.419 . S
C401 H405 0.930 . S
C402 C401 1.369 . S
C402 C411 1.429 . S
C403 C401 1.419 . S
C403 C404 1.363 . S
C403 H406 0.929 . S
C404 C403 1.363 . S
C404 C410 1.428 . S
H405 C401 0.930 . S
H406 C403 0.929 . S
S407 N408 1.613 . S
S407 N409 1.610 . S
N408 S407 1.613 . S
N408 C411 1.350 . S
N409 S407 1.610 . S
N409 C410 1.351 . S
C410 C404 1.428 . S
C410 N409 1.351 . S
C410 C411 1.434 . S
C411 C402 1.429 . S
C411 N408 1.350 . S
C411 C410 1.434 . S
C412 C413 1.369 . S
C412 C414 1.419 . S
C412 H416 0.930 . S
C413 C412 1.369 . S
C413 C422 1.429 . S
C414 C412 1.419 . S
C414 C415 1.363 . S
C414 H417 0.929 . S
C415 C414 1.363 . S
C415 C421 1.428 . S
H416 C412 0.930 . S
H417 C414 0.929 . S
S418 N419 1.613 . S
S418 N420 1.610 . S
N419 S418 1.613 . S
N419 C422 1.350 . S
N420 S418 1.610 . S
N420 C421 1.351 . S
C421 C415 1.428 . S
C421 N420 1.351 . S
C421 C422 1.434 . S
C422 C413 1.429 . S
C422 N419 1.350 . S
C422 C421 1.434 . S
C423 C424 1.369 . S
C423 C425 1.419 . S
C423 H427 0.930 . S
C424 C423 1.369 . S
C424 C433 1.429 . S
C425 C423 1.419 . S
C425 C426 1.363 . S
C425 H428 0.929 . S
C426 C425 1.363 . S
C426 C432 1.428 . S
H427 C423 0.930 . S
H428 C425 0.929 . S
S429 N430 1.613 . S
S429 N431 1.610 . S
N430 S429 1.613 . S
N430 C433 1.350 . S
N431 S429 1.610 . S
N431 C432 1.351 . S
C432 C426 1.428 . S
C432 N431 1.351 . S
C432 C433 1.434 . S
C433 C424 1.429 . S
C433 N430 1.350 . S
C433 C432 1.434 . S
C434 C435 1.369 . S
C434 C436 1.419 . S
C434 H438 0.930 . S
C435 C434 1.369 . S
C435 C444 1.429 . S
C436 C434 1.419 . S
C436 C437 1.363 . S
C436 H439 0.929 . S
C437 C436 1.363 . S
C437 C443 1.428 . S
H438 C434 0.930 . S
H439 C436 0.929 . S
S440 N441 1.613 . S
S440 N442 1.610 . S
N441 S440 1.613 . S
N441 C444 1.350 . S
N442 S440 1.610 . S
N442 C443 1.351 . S
C443 C437 1.428 . S
C443 N442 1.351 . S
C443 C444 1.434 . S
C444 C435 1.429 . S
C444 N441 1.350 . S
C444 C443 1.434 . S
C445 C446 1.369 . S
C445 C447 1.419 . S
C445 H449 0.930 . S
C446 C445 1.369 . S
C446 C455 1.429 . S
C447 C445 1.419 . S
C447 C448 1.363 . S
C447 H450 0.929 . S
C448 C447 1.363 . S
C448 C454 1.428 . S
H449 C445 0.930 . S
H450 C447 0.929 . S
S451 N452 1.613 . S
S451 N453 1.610 . S
N452 S451 1.613 . S
N452 C455 1.350 . S
N453 S451 1.610 . S
N453 C454 1.351 . S
C454 C448 1.428 . S
C454 N453 1.351 . S
C454 C455 1.434 . S
C455 C446 1.429 . S
C455 N452 1.350 . S
C455 C454 1.434 . S
C456 C457 1.369 . S
C456 C458 1.419 . S
C456 H460 0.930 . S
C457 C456 1.369 . S
C457 C466 1.429 1_655 S
C458 C456 1.419 . S
C458 C459 1.363 1_655 S
C458 H461 0.929 . S
C459 C458 1.363 1_455 S
C459 C465 1.428 . S
H460 C456 0.930 . S
H461 C458 0.929 . S
S462 N463 1.613 . S
S462 N464 1.610 . S
N463 S462 1.613 . S
N463 C466 1.350 . S
N464 S462 1.610 . S
N464 C465 1.351 . S
C465 C459 1.428 . S
C465 N464 1.351 . S
C465 C466 1.434 . S
C466 C457 1.429 1_455 S
C466 N463 1.350 . S
C466 C465 1.434 . S
C467 C468 1.369 . S
C467 C469 1.419 1_565 S
C467 H471 0.930 . S
C468 C467 1.369 . S
C468 C477 1.429 . S
C469 C467 1.419 1_545 S
C469 C470 1.363 . S
C469 H472 0.929 . S
C470 C469 1.363 . S
C470 C476 1.428 . S
H471 C467 0.930 . S
H472 C469 0.929 . S
S473 N474 1.613 . S
S473 N475 1.610 1_565 S
N474 S473 1.613 . S
N474 C477 1.350 . S
N475 S473 1.610 1_545 S
N475 C476 1.351 . S
C476 C470 1.428 . S
C476 N475 1.351 . S
C476 C477 1.434 1_545 S
C477 C468 1.429 . S
C477 N474 1.350 . S
C477 C476 1.434 1_565 S
C478 C479 1.369 . S
C478 C480 1.406 1_655 S
C478 H482 0.930 . S
C479 C478 1.369 . S
C479 C488 1.440 . S
C480 C478 1.406 1_455 S
C480 C481 1.376 . S
C480 H483 0.929 . S
C481 C480 1.376 . S
C481 C487 1.428 . S
H482 C478 0.930 . S
H483 C480 0.929 . S
S484 N485 1.623 . S
S484 N486 1.610 . S
N485 S484 1.623 . S
N485 C488 1.349 1_455 S
N486 S484 1.610 . S
N486 C487 1.351 . S
C487 C481 1.428 . S
C487 N486 1.351 . S
C487 C488 1.423 1_455 S
C488 C479 1.440 . S
C488 N485 1.349 1_655 S
C488 C487 1.423 1_655 S
C489 C490 1.369 . S
C489 C491 1.419 . S
C489 H493 0.930 . S
C490 C489 1.369 . S
C490 C499 1.429 1_565 S
C491 C489 1.419 . S
C491 C492 1.363 1_565 S
C491 H494 0.929 . S
C492 C491 1.363 1_545 S
C492 C498 1.428 . S
H493 C489 0.930 . S
H494 C491 0.929 . S
S495 N496 1.613 . S
S495 N497 1.610 . S
N496 S495 1.613 . S
N496 C499 1.350 . S
N497 S495 1.610 . S
N497 C498 1.351 . S
C498 C492 1.428 . S
C498 N497 1.351 . S
C498 C499 1.434 . S
C499 C490 1.429 1_545 S
C499 N496 1.350 . S
C499 C498 1.434 . S
C500 C501 1.369 . S
C500 C502 1.419 . S
C500 H504 0.930 . S
C501 C500 1.369 . S
C501 C510 1.429 1_565 S
C502 C500 1.419 . S
C502 C503 1.363 1_565 S
C502 H505 0.929 . S
C503 C502 1.363 1_545 S
C503 C509 1.428 . S
H504 C500 0.930 . S
H505 C502 0.929 . S
S506 N507 1.613 . S
S506 N508 1.610 . S
N507 S506 1.613 . S
N507 C510 1.350 . S
N508 S506 1.610 . S
N508 C509 1.351 . S
C509 C503 1.428 . S
C509 N508 1.351 . S
C509 C510 1.434 . S
C510 C501 1.429 1_545 S
C510 N507 1.350 . S
C510 C509 1.434 . S
C511 C512 1.369 1_655 S
C511 C513 1.419 . S
C511 H515 0.930 . S
C512 C511 1.369 1_455 S
C512 C521 1.429 . S
C513 C511 1.419 . S
C513 C514 1.363 . S
C513 H516 0.929 . S
C514 C513 1.363 . S
C514 C520 1.428 1_655 S
H515 C511 0.930 . S
H516 C513 0.929 . S
S517 N518 1.613 . S
S517 N519 1.610 . S
N518 S517 1.613 . S
N518 C521 1.350 . S
N519 S517 1.610 . S
N519 C520 1.351 . S
C520 C514 1.428 1_455 S
C520 N519 1.351 . S
C520 C521 1.434 . S
C521 C512 1.429 . S
C521 N518 1.350 . S
C521 C520 1.434 . S
C522 C523 1.369 . S
C522 C524 1.419 1_565 S
C522 H526 0.930 . S
C523 C522 1.369 . S
C523 C532 1.429 . S
C524 C522 1.419 1_545 S
C524 C525 1.363 . S
C524 H527 0.929 . S
C525 C524 1.363 . S
C525 C531 1.428 . S
H526 C522 0.930 . S
H527 C524 0.929 . S
S528 N529 1.613 1_545 S
S528 N530 1.610 . S
N529 S528 1.613 1_565 S
N529 C532 1.350 . S
N530 S528 1.610 . S
N530 C531 1.351 . S
C531 C525 1.428 . S
C531 N530 1.351 . S
C531 C532 1.434 1_545 S
C532 C523 1.429 . S
C532 N529 1.350 . S
C532 C531 1.434 1_565 S
C533 C534 1.369 . S
C533 C535 1.419 1_455 S
C533 H537 0.930 . S
C534 C533 1.369 . S
C534 C543 1.429 . S
C535 C533 1.419 1_655 S
C535 C536 1.363 . S
C535 H538 0.929 . S
C536 C535 1.363 . S
C536 C542 1.428 . S
H537 C533 0.930 . S
H538 C535 0.929 . S
S539 N540 1.613 1_655 S
S539 N541 1.610 . S
N540 S539 1.613 1_455 S
N540 C543 1.350 . S
N541 S539 1.610 . S
N541 C542 1.351 . S
C542 C536 1.428 . S
C542 N541 1.351 . S
C542 C543 1.434 1_655 S
C543 C534 1.429 . S
C543 N540 1.350 . S
C543 C542 1.434 1_455 S
C544 C545 1.369 . S
C544 C546 1.419 . S
C544 H548 0.930 . S
C545 C544 1.369 . S
C545 C554 1.429 . S
C546 C544 1.419 . S
C546 C547 1.363 . S
C546 H549 0.929 . S
C547 C546 1.363 . S
C547 C553 1.428 . S
H548 C544 0.930 . S
H549 C546 0.929 . S
S550 N551 1.613 . S
S550 N552 1.610 . S
N551 S550 1.613 . S
N551 C554 1.350 . S
N552 S550 1.610 . S
N552 C553 1.351 . S
C553 C547 1.428 . S
C553 N552 1.351 . S
C553 C554 1.434 . S
C554 C545 1.429 . S
C554 N551 1.350 . S
C554 C553 1.434 . S
C555 C556 1.369 . S
C555 C557 1.419 . S
C555 H559 0.930 . S
C556 C555 1.369 . S
C556 C565 1.429 . S
C557 C555 1.419 . S
C557 C558 1.363 . S
C557 H560 0.929 . S
C558 C557 1.363 . S
C558 C564 1.428 . S
H559 C555 0.930 . S
H560 C557 0.929 . S
S561 N562 1.613 . S
S561 N563 1.610 . S
N562 S561 1.613 . S
N562 C565 1.350 . S
N563 S561 1.610 . S
N563 C564 1.351 . S
C564 C558 1.428 . S
C564 N563 1.351 . S
C564 C565 1.434 . S
C565 C556 1.429 . S
C565 N562 1.350 . S
C565 C564 1.434 . S
C566 C567 1.369 . S
C566 C568 1.419 . S
C566 H570 0.930 . S
C567 C566 1.369 . S
C567 C576 1.429 . S
C568 C566 1.419 . S
C568 C569 1.363 . S
C568 H571 0.929 . S
C569 C568 1.363 . S
C569 C575 1.428 . S
H570 C566 0.930 . S
H571 C568 0.929 . S
S572 N573 1.613 . S
S572 N574 1.610 . S
N573 S572 1.613 . S
N573 C576 1.350 . S
N574 S572 1.610 . S
N574 C575 1.351 . S
C575 C569 1.428 . S
C575 N574 1.351 . S
C575 C576 1.434 . S
C576 C567 1.429 . S
C576 N573 1.350 . S
C576 C575 1.434 . S
C577 C578 1.369 . S
C577 C579 1.419 . S
C577 H581 0.930 . S
C578 C577 1.369 . S
C578 C587 1.429 . S
C579 C577 1.419 . S
C579 C580 1.363 . S
C579 H582 0.929 . S
C580 C579 1.363 . S
C580 C586 1.428 . S
H581 C577 0.930 . S
H582 C579 0.929 . S
S583 N584 1.613 . S
S583 N585 1.610 . S
N584 S583 1.613 . S
N584 C587 1.350 . S
N585 S583 1.610 . S
N585 C586 1.351 . S
C586 C580 1.428 . S
C586 N585 1.351 . S
C586 C587 1.434 . S
C587 C578 1.429 . S
C587 N584 1.350 . S
C587 C586 1.434 . S
C588 C589 1.369 . S
C588 C590 1.419 . S
C588 H592 0.930 . S
C589 C588 1.369 . S
C589 C598 1.429 . S
C590 C588 1.419 . S
C590 C591 1.363 . S
C590 H593 0.929 . S
C591 C590 1.363 . S
C591 C597 1.428 . S
H592 C588 0.930 . S
H593 C590 0.929 . S
S594 N595 1.613 . S
S594 N596 1.610 . S
N595 S594 1.613 . S
N595 C598 1.350 . S
N596 S594 1.610 . S
N596 C597 1.351 . S
C597 C591 1.428 . S
C597 N596 1.351 . S
C597 C598 1.434 . S
C598 C589 1.429 . S
C598 N595 1.350 . S
C598 C597 1.434 . S
C599 C600 1.369 . S
C599 C601 1.419 . S
C599 H603 0.930 . S
C600 C599 1.369 . S
C600 C609 1.429 . S
C601 C599 1.419 . S
C601 C602 1.363 . S
C601 H604 0.929 . S
C602 C601 1.363 . S
C602 C608 1.428 . S
H603 C599 0.930 . S
H604 C601 0.929 . S
S605 N606 1.613 . S
S605 N607 1.610 . S
N606 S605 1.613 . S
N606 C609 1.350 . S
N607 S605 1.610 . S
N607 C608 1.351 . S
C608 C602 1.428 . S
C608 N607 1.351 . S
C608 C609 1.434 . S
C609 C600 1.429 . S
C609 N606 1.350 . S
C609 C608 1.434 . S
C610 C611 1.369 . S
C610 C612 1.419 . S
C610 H614 0.930 . S
C611 C610 1.369 . S
C611 C620 1.429 . S
C612 C610 1.419 . S
C612 C613 1.363 . S
C612 H615 0.929 . S
C613 C612 1.363 . S
C613 C619 1.428 . S
H614 C610 0.930 . S
H615 C612 0.929 . S
S616 N617 1.613 . S
S616 N618 1.610 . S
N617 S616 1.613 . S
N617 C620 1.350 . S
N618 S616 1.610 . S
N618 C619 1.351 . S
C619 C613 1.428 . S
C619 N618 1.351 . S
C619 C620 1.434 . S
C620 C611 1.429 . S
C620 N617 1.350 . S
C620 C619 1.434 . S
C621 C622 1.369 . S
C621 C623 1.419 . S
C621 H625 0.930 . S
C622 C621 1.369 . S
C622 C631 1.429 . S
C623 C621 1.419 . S
C623 C624 1.363 . S
C623 H626 0.929 . S
C624 C623 1.363 . S
C624 C630 1.428 . S
H625 C621 0.930 . S
H626 C623 0.929 . S
S627 N628 1.613 . S
S627 N629 1.610 . S
N628 S627 1.613 . S
N628 C631 1.350 . S
N629 S627 1.610 . S
N629 C630 1.351 . S
C630 C624 1.428 . S
C630 N629 1.351 . S
C630 C631 1.434 . S
C631 C622 1.429 . S
C631 N628 1.350 . S
C631 C630 1.434 . S
C632 C633 1.369 . S
C632 C634 1.419 . S
C632 H636 0.930 . S
C633 C632 1.369 . S
C633 C642 1.429 . S
C634 C632 1.419 . S
C634 C635 1.363 . S
C634 H637 0.929 . S
C635 C634 1.363 . S
C635 C641 1.428 . S
H636 C632 0.930 . S
H637 C634 0.929 . S
S638 N639 1.613 . S
S638 N640 1.610 . S
N639 S638 1.613 . S
N639 C642 1.350 . S
N640 S638 1.610 . S
N640 C641 1.351 . S
C641 C635 1.428 . S
C641 N640 1.351 . S
C641 C642 1.434 . S
C642 C633 1.429 . S
C642 N639 1.350 . S
C642 C641 1.434 . S
C643 C644 1.369 . S
C643 C645 1.419 . S
C643 H647 0.930 . S
C644 C643 1.369 . S
C644 C653 1.429 . S
C645 C643 1.419 . S
C645 C646 1.363 . S
C645 H648 0.929 . S
C646 C645 1.363 . S
C646 C652 1.428 . S
H647 C643 0.930 . S
H648 C645 0.929 . S
S649 N650 1.613 . S
S649 N651 1.610 . S
N650 S649 1.613 . S
N650 C653 1.350 . S
N651 S649 1.610 . S
N651 C652 1.351 . S
C652 C646 1.428 . S
C652 N651 1.351 . S
C652 C653 1.434 . S
C653 C644 1.429 . S
C653 N650 1.350 . S
C653 C652 1.434 . S
C654 C655 1.369 . S
C654 C656 1.419 . S
C654 H658 0.930 . S
C655 C654 1.369 . S
C655 C664 1.429 . S
C656 C654 1.419 . S
C656 C657 1.363 . S
C656 H659 0.929 . S
C657 C656 1.363 . S
C657 C663 1.428 . S
H658 C654 0.930 . S
H659 C656 0.929 . S
S660 N661 1.613 . S
S660 N662 1.610 . S
N661 S660 1.613 . S
N661 C664 1.350 . S
N662 S660 1.610 . S
N662 C663 1.351 . S
C663 C657 1.428 . S
C663 N662 1.351 . S
C663 C664 1.434 . S
C664 C655 1.429 . S
C664 N661 1.350 . S
C664 C663 1.434 . S
C665 C666 1.369 . S
C665 C667 1.419 . S
C665 H669 0.930 . S
C666 C665 1.369 . S
C666 C675 1.429 . S
C667 C665 1.419 . S
C667 C668 1.363 . S
C667 H670 0.929 . S
C668 C667 1.363 . S
C668 C674 1.428 . S
H669 C665 0.930 . S
H670 C667 0.929 . S
S671 N672 1.613 . S
S671 N673 1.610 . S
N672 S671 1.613 . S
N672 C675 1.350 . S
N673 S671 1.610 . S
N673 C674 1.351 . S
C674 C668 1.428 . S
C674 N673 1.351 . S
C674 C675 1.434 . S
C675 C666 1.429 . S
C675 N672 1.350 . S
C675 C674 1.434 . S
C676 C677 1.369 . S
C676 C678 1.419 . S
C676 H680 0.930 . S
C677 C676 1.369 . S
C677 C686 1.429 . S
C678 C676 1.419 . S
C678 C679 1.363 . S
C678 H681 0.929 . S
C679 C678 1.363 . S
C679 C685 1.428 . S
H680 C676 0.930 . S
H681 C678 0.929 . S
S682 N683 1.613 . S
S682 N684 1.610 . S
N683 S682 1.613 . S
N683 C686 1.350 . S
N684 S682 1.610 . S
N684 C685 1.351 . S
C685 C679 1.428 . S
C685 N684 1.351 . S
C685 C686 1.434 . S
C686 C677 1.429 . S
C686 N683 1.350 . S
C686 C685 1.434 . S
C687 C688 1.369 . S
C687 C689 1.419 . S
C687 H691 0.930 . S
C688 C687 1.369 . S
C688 C697 1.429 . S
C689 C687 1.419 . S
C689 C690 1.363 . S
C689 H692 0.929 . S
C690 C689 1.363 . S
C690 C696 1.428 . S
H691 C687 0.930 . S
H692 C689 0.929 . S
S693 N694 1.613 . S
S693 N695 1.610 . S
N694 S693 1.613 . S
N694 C697 1.350 . S
N695 S693 1.610 . S
N695 C696 1.351 . S
C696 C690 1.428 . S
C696 N695 1.351 . S
C696 C697 1.434 . S
C697 C688 1.429 . S
C697 N694 1.350 . S
C697 C696 1.434 . S
C698 C699 1.369 . S
C698 C700 1.419 . S
C698 H702 0.930 . S
C699 C698 1.369 . S
C699 C708 1.429 . S
C700 C698 1.419 . S
C700 C701 1.363 . S
C700 H703 0.929 . S
C701 C700 1.363 . S
C701 C707 1.428 . S
H702 C698 0.930 . S
H703 C700 0.929 . S
S704 N705 1.613 . S
S704 N706 1.610 . S
N705 S704 1.613 . S
N705 C708 1.350 . S
N706 S704 1.610 . S
N706 C707 1.351 . S
C707 C701 1.428 . S
C707 N706 1.351 . S
C707 C708 1.434 . S
C708 C699 1.429 . S
C708 N705 1.350 . S
C708 C707 1.434 . S
C709 C710 1.369 . S
C709 C711 1.419 . S
C709 H713 0.930 . S
C710 C709 1.369 . S
C710 C719 1.429 . S
C711 C709 1.419 . S
C711 C712 1.363 . S
C711 H714 0.929 . S
C712 C711 1.363 . S
C712 C718 1.428 . S
H713 C709 0.930 . S
H714 C711 0.929 . S
S715 N716 1.613 . S
S715 N717 1.610 . S
N716 S715 1.613 . S
N716 C719 1.350 . S
N717 S715 1.610 . S
N717 C718 1.351 . S
C718 C712 1.428 . S
C718 N717 1.351 . S
C718 C719 1.434 . S
C719 C710 1.429 . S
C719 N716 1.350 . S
C719 C718 1.434 . S
C720 C721 1.369 . S
C720 C722 1.419 1_554 S
C720 H724 0.930 . S
C721 C720 1.369 . S
C721 C730 1.429 . S
C722 C720 1.419 1_556 S
C722 C723 1.363 . S
C722 H725 0.929 . S
C723 C722 1.363 . S
C723 C729 1.428 . S
H724 C720 0.930 . S
H725 C722 0.929 . S
S726 N727 1.594 1_556 S
S726 N728 1.630 . S
N727 S726 1.594 1_554 S
N727 C730 1.350 . S
N728 S726 1.630 . S
N728 C729 1.351 . S
C729 C723 1.428 . S
C729 N728 1.351 . S
C729 C730 1.434 1_556 S
C730 C721 1.429 . S
C730 N727 1.350 . S
C730 C729 1.434 1_554 S
C731 C732 1.360 1_554 S
C731 C733 1.426 . S
C731 H735 0.931 . S
C732 C731 1.360 1_556 S
C732 C741 1.429 . S
C733 C731 1.426 . S
C733 C734 1.363 . S
C733 H736 0.929 . S
C734 C733 1.363 . S
C734 C740 1.428 1_554 S
H735 C731 0.931 . S
H736 C733 0.929 . S
S737 N738 1.613 . S
S737 N739 1.610 . S
N738 S737 1.613 . S
N738 C741 1.350 . S
N739 S737 1.610 . S
N739 C740 1.351 . S
C740 C734 1.428 1_556 S
C740 N739 1.351 . S
C740 C741 1.434 . S
C741 C732 1.429 . S
C741 N738 1.350 . S
C741 C740 1.434 . S
C742 C743 1.369 . S
C742 C744 1.419 1_556 S
C742 H746 0.930 . S
C743 C742 1.369 . S
C743 C752 1.429 . S
C744 C742 1.419 1_554 S
C744 C745 1.363 . S
C744 H747 0.929 . S
C745 C744 1.363 . S
C745 C751 1.428 . S
H746 C742 0.930 . S
H747 C744 0.929 . S
S748 N749 1.643 . S
S748 N750 1.610 . S
N749 S748 1.643 . S
N749 C752 1.348 1_554 S
N750 S748 1.610 . S
N750 C751 1.351 . S
C751 C745 1.428 . S
C751 N750 1.351 . S
C751 C752 1.434 1_554 S
C752 C743 1.429 . S
C752 N749 1.348 1_556 S
C752 C751 1.434 1_556 S
C753 C754 1.369 . S
C753 C755 1.419 1_556 S
C753 H757 0.930 . S
C754 C753 1.369 . S
C754 C763 1.429 . S
C755 C753 1.419 1_554 S
C755 C756 1.363 . S
C755 H758 0.929 . S
C756 C755 1.363 . S
C756 C762 1.428 . S
H757 C753 0.930 . S
H758 C755 0.929 . S
S759 N760 1.613 . S
S759 N761 1.610 1_556 S
N760 S759 1.613 . S
N760 C763 1.350 . S
N761 S759 1.610 1_554 S
N761 C762 1.351 . S
C762 C756 1.428 . S
C762 N761 1.351 . S
C762 C763 1.434 1_554 S
C763 C754 1.429 . S
C763 N760 1.350 . S
C763 C762 1.434 1_556 S
C764 C765 1.369 . S
C764 C766 1.419 . S
C764 H768 0.930 . S
C765 C764 1.369 . S
C765 C774 1.429 . S
C766 C764 1.419 . S
C766 C767 1.363 . S
C766 H769 0.929 . S
C767 C766 1.363 . S
C767 C773 1.428 . S
H768 C764 0.930 . S
H769 C766 0.929 . S
S770 N771 1.613 . S
S770 N772 1.610 . S
N771 S770 1.613 . S
N771 C774 1.350 . S
N772 S770 1.610 . S
N772 C773 1.351 . S
C773 C767 1.428 . S
C773 N772 1.351 . S
C773 C774 1.434 . S
C774 C765 1.429 . S
C774 N771 1.350 . S
C774 C773 1.434 . S
C775 C776 1.369 . S
C775 C777 1.419 . S
C775 H779 0.930 . S
C776 C775 1.369 . S
C776 C785 1.429 . S
C777 C775 1.419 . S
C777 C778 1.363 . S
C777 H780 0.929 . S
C778 C777 1.363 . S
C778 C784 1.428 . S
H779 C775 0.930 . S
H780 C777 0.929 . S
S781 N782 1.613 . S
S781 N783 1.610 . S
N782 S781 1.613 . S
N782 C785 1.350 . S
N783 S781 1.610 . S
N783 C784 1.351 . S
C784 C778 1.428 . S
C784 N783 1.351 . S
C784 C785 1.434 . S
C785 C776 1.429 . S
C785 N782 1.350 . S
C785 C784 1.434 . S
C786 C787 1.369 . S
C786 C788 1.419 . S
C786 H790 0.930 . S
C787 C786 1.369 . S
C787 C796 1.429 . S
C788 C786 1.419 . S
C788 C789 1.363 . S
C788 H791 0.929 . S
C789 C788 1.363 . S
C789 C795 1.428 . S
H790 C786 0.930 . S
H791 C788 0.929 . S
S792 N793 1.613 . S
S792 N794 1.610 . S
N793 S792 1.613 . S
N793 C796 1.350 . S
N794 S792 1.610 . S
N794 C795 1.351 . S
C795 C789 1.428 . S
C795 N794 1.351 . S
C795 C796 1.434 . S
C796 C787 1.429 . S
C796 N793 1.350 . S
C796 C795 1.434 . S
C797 C798 1.369 . S
C797 C799 1.419 . S
C797 H801 0.930 . S
C798 C797 1.369 . S
C798 C807 1.429 . S
C799 C797 1.419 . S
C799 C800 1.363 . S
C799 H802 0.929 . S
C800 C799 1.363 . S
C800 C806 1.428 . S
H801 C797 0.930 . S
H802 C799 0.929 . S
S803 N804 1.613 . S
S803 N805 1.610 . S
N804 S803 1.613 . S
N804 C807 1.350 . S
N805 S803 1.610 . S
N805 C806 1.351 . S
C806 C800 1.428 . S
C806 N805 1.351 . S
C806 C807 1.434 . S
C807 C798 1.429 . S
C807 N804 1.350 . S
C807 C806 1.434 . S
C808 C809 1.369 1_554 S
C808 C810 1.419 . S
C808 H812 0.930 . S
C809 C808 1.369 1_556 S
C809 C818 1.429 . S
C810 C808 1.419 . S
C810 C811 1.363 . S
C810 H813 0.929 . S
C811 C810 1.363 . S
C811 C817 1.428 1_554 S
H812 C808 0.930 . S
H813 C810 0.929 . S
S814 N815 1.613 . S
S814 N816 1.610 . S
N815 S814 1.613 . S
N815 C818 1.350 . S
N816 S814 1.610 . S
N816 C817 1.351 . S
C817 C811 1.428 1_556 S
C817 N816 1.351 . S
C817 C818 1.434 . S
C818 C809 1.429 . S
C818 N815 1.350 . S
C818 C817 1.434 . S
C819 C820 1.369 1_556 S
C819 C821 1.419 . S
C819 H823 0.930 . S
C820 C819 1.369 1_554 S
C820 C829 1.429 . S
C821 C819 1.419 . S
C821 C822 1.363 . S
C821 H824 0.929 . S
C822 C821 1.363 . S
C822 C828 1.428 1_556 S
H823 C819 0.930 . S
H824 C821 0.929 . S
S825 N826 1.613 . S
S825 N827 1.610 . S
N826 S825 1.613 . S
N826 C829 1.350 . S
N827 S825 1.610 . S
N827 C828 1.351 . S
C828 C822 1.428 1_554 S
C828 N827 1.351 . S
C828 C829 1.434 . S
C829 C820 1.429 . S
C829 N826 1.350 . S
C829 C828 1.434 . S
C830 C831 1.369 . S
C830 C832 1.419 1_554 S
C830 H834 0.930 . S
C831 C830 1.369 . S
C831 C840 1.429 . S
C832 C830 1.419 1_556 S
C832 C833 1.363 . S
C832 H835 0.929 . S
C833 C832 1.363 . S
C833 C839 1.428 . S
H834 C830 0.930 . S
H835 C832 0.929 . S
S836 N837 1.613 1_556 S
S836 N838 1.610 . S
N837 S836 1.613 1_554 S
N837 C840 1.350 . S
N838 S836 1.610 . S
N838 C839 1.351 . S
C839 C833 1.428 . S
C839 N838 1.351 . S
C839 C840 1.434 1_556 S
C840 C831 1.429 . S
C840 N837 1.350 . S
C840 C839 1.434 1_554 S
C841 C842 1.369 . S
C841 C843 1.419 1_554 S
C841 H845 0.930 . S
C842 C841 1.369 . S
C842 C851 1.429 . S
C843 C841 1.419 1_556 S
C843 C844 1.363 . S
C843 H846 0.929 . S
C844 C843 1.363 . S
C844 C850 1.428 . S
H845 C841 0.930 . S
H846 C843 0.929 . S
S847 N848 1.613 1_556 S
S847 N849 1.610 . S
N848 S847 1.613 1_554 S
N848 C851 1.350 . S
N849 S847 1.610 . S
N849 C850 1.351 . S
C850 C844 1.428 . S
C850 N849 1.351 . S
C850 C851 1.434 1_556 S
C851 C842 1.429 . S
C851 N848 1.350 . S
C851 C850 1.434 1_554 S
C852 C853 1.369 . S
C852 C854 1.419 1_545 S
C852 H856 0.930 . S
C853 C852 1.369 . S
C853 C862 1.429 . S
C854 C852 1.419 1_565 S
C854 C855 1.363 . S
C854 H857 0.929 . S
C855 C854 1.363 . S
C855 C861 1.428 . S
H856 C852 0.930 . S
H857 C854 0.929 . S
S858 N859 1.613 1_565 S
S858 N860 1.610 . S
N859 S858 1.613 1_545 S
N859 C862 1.350 . S
N860 S858 1.610 . S
N860 C861 1.351 . S
C861 C855 1.428 . S
C861 N860 1.351 . S
C861 C862 1.434 1_565 S
C862 C853 1.429 . S
C862 N859 1.350 . S
C862 C861 1.434 1_545 S
C863 C864 1.369 . S
C863 C865 1.419 . S
C863 H867 0.930 . S
C864 C863 1.369 . S
C864 C873 1.429 1_655 S
C865 C863 1.419 . S
C865 C866 1.363 1_655 S
C865 H868 0.929 . S
C866 C865 1.363 1_455 S
C866 C872 1.428 . S
H867 C863 0.930 . S
H868 C865 0.929 . S
S869 N870 1.613 . S
S869 N871 1.610 . S
N870 S869 1.613 . S
N870 C873 1.350 . S
N871 S869 1.610 . S
N871 C872 1.351 . S
C872 C866 1.428 . S
C872 N871 1.351 . S
C872 C873 1.434 . S
C873 C864 1.429 1_455 S
C873 N870 1.350 . S
C873 C872 1.434 . S
C874 C875 1.369 . S
C874 C876 1.419 1_565 S
C874 H878 0.930 . S
C875 C874 1.369 . S
C875 C884 1.429 . S
C876 C874 1.419 1_545 S
C876 C877 1.363 . S
C876 H879 0.929 . S
C877 C876 1.363 . S
C877 C883 1.428 . S
H878 C874 0.930 . S
H879 C876 0.929 . S
S880 N881 1.613 1_545 S
S880 N882 1.610 . S
N881 S880 1.613 1_565 S
N881 C884 1.350 . S
N882 S880 1.610 . S
N882 C883 1.351 . S
C883 C877 1.428 . S
C883 N882 1.351 . S
C883 C884 1.434 1_545 S
C884 C875 1.429 . S
C884 N881 1.350 . S
C884 C883 1.434 1_565 S
C885 C886 1.369 . S
C885 C887 1.419 . S
C885 H889 0.930 . S
C886 C885 1.369 . S
C886 C895 1.429 1_655 S
C887 C885 1.419 . S
C887 C888 1.363 1_655 S
C887 H890 0.929 . S
C888 C887 1.363 1_455 S
C888 C894 1.428 . S
H889 C885 0.930 . S
H890 C887 0.929 . S
S891 N892 1.613 . S
S891 N893 1.610 . S
N892 S891 1.613 . S
N892 C895 1.350 . S
N893 S891 1.610 . S
N893 C894 1.351 . S
C894 C888 1.428 . S
C894 N893 1.351 . S
C894 C895 1.434 . S
C895 C886 1.429 1_455 S
C895 N892 1.350 . S
C895 C894 1.434 . S
C369 C16 1.344 . S
C371 C361 1.337 . S
C380 C292 1.341 . S
C382 C39 1.336 . S
C391 C62 1.340 . S
C393 C315 1.342 . S
C402 C338 1.343 . S
C404 C85 1.339 . S
C413 C108 1.344 . S
C415 C223 1.337 . S
C424 C246 1.335 . S
C426 C131 1.343 . S
C435 C154 1.339 . S
C437 C269 1.342 . S
C446 C200 1.343 . S
C448 C177 1.339 . S
C457 C67 1.737 . S
C459 C21 1.737 . S
C468 C90 1.743 . S
C470 C44 1.742 . S
C479 C159 1.737 . S
C481 C113 1.737 . S
C490 C182 1.741 . S
C492 C136 1.736 . S
C501 C205 1.737 . S
C503 C251 1.744 . S
C512 C228 1.743 . S
C514 C274 1.735 . S
C523 C343 1.734 . S
C525 C297 1.740 . S
C534 C366 1.742 . S
C536 C320 1.742 . S
C545 C18 1.178 . S
C547 C43 1.174 . S
C556 C66 1.173 . S
C558 C41 1.178 . S
C567 C64 1.180 . S
C569 C89 1.177 . S
C578 C20 1.178 . S
C580 C87 1.182 . S
C589 C110 1.181 . S
C591 C181 1.174 . S
C600 C112 1.175 . S
C602 C133 1.181 . S
C611 C156 1.180 . S
C613 C135 1.174 . S
C622 C158 1.177 . S
C624 C179 1.182 . S
C633 C202 1.182 . S
C635 C227 1.177 . S
C644 C250 1.174 . S
C646 C225 1.181 . S
C655 C273 1.173 . S
C657 C248 1.178 . S
C666 C271 1.182 . S
C668 C204 1.178 . S
C677 C294 1.178 . S
C679 C365 1.174 . S
C688 C296 1.179 . S
C690 C317 1.181 . S
C699 C340 1.182 . S
C701 C319 1.177 . S
C710 C342 1.178 . S
C712 C363 1.180 . S
C721 C19 1.978 . S
C723 C134 1.977 . S
C732 C157 1.978 . S
C734 C42 1.982 . S
C743 C180 1.981 . S
C745 C65 1.978 . S
C754 C111 1.982 . S
C756 C88 1.983 . S
C765 C318 1.984 . S
C767 C203 1.982 . S
C776 C226 1.984 . S
C778 C341 1.982 . S
C787 C364 1.983 . S
C789 C249 1.980 . S
C798 C272 1.984 . S
C800 C295 1.982 . S
C809 C109 0.830 . S
C811 C17 0.841 . S
C820 C40 0.829 . S
C822 C132 0.842 . S
C831 C63 0.837 . S
C833 C155 0.838 . S
C842 C86 0.837 . S
C844 C178 0.838 . S
C853 C293 0.835 . S
C855 C201 0.839 . S
C864 C316 0.830 . S
C866 C224 0.840 . S
C875 C339 0.834 . S
C877 C247 0.840 . S
C886 C270 0.829 . S
C888 C362 0.841 . S
