# Generated by pormake.
# Topology irl, (4)-cn, num edge types: 1
# Building blocks:
#     Node 0, Type 0, BuildingBlock: QUQFOY_clean_sbu_1, # of connection points: 4
#     Node 1, Type 0, BuildingBlock: QUQFOY_clean_sbu_1, # of connection points: 4
#     Node 2, Type 0, BuildingBlock: QUQFOY_clean_sbu_1, # of connection points: 4
#     Node 3, Type 0, BuildingBlock: QUQFOY_clean_sbu_1, # of connection points: 4
#     Node 4, Type 0, BuildingBlock: QUQFOY_clean_sbu_1, # of connection points: 4
#     Node 5, Type 0, BuildingBlock: QUQFOY_clean_sbu_1, # of connection points: 4
#     Node 6, Type 0, BuildingBlock: QUQFOY_clean_sbu_1, # of connection points: 4
#     Node 7, Type 0, BuildingBlock: QUQFOY_clean_sbu_1, # of connection points: 4
#     Edge 8, Type (0, 0), BuildingBlock: XUDNAN_clean_linker_2, # of connection points: 2
#     Edge 9, Type (0, 0), BuildingBlock: XUDNAN_clean_linker_2, # of connection points: 2
#     Edge 10, Type (0, 0), BuildingBlock: XUDNAN_clean_linker_2, # of connection points: 2
#     Edge 11, Type (0, 0), BuildingBlock: XUDNAN_clean_linker_2, # of connection points: 2
#     Edge 12, Type (0, 0), BuildingBlock: XUDNAN_clean_linker_2, # of connection points: 2
#     Edge 13, Type (0, 0), BuildingBlock: XUDNAN_clean_linker_2, # of connection points: 2
#     Edge 14, Type (0, 0), BuildingBlock: XUDNAN_clean_linker_2, # of connection points: 2
#     Edge 15, Type (0, 0), BuildingBlock: XUDNAN_clean_linker_2, # of connection points: 2
#     Edge 16, Type (0, 0), BuildingBlock: XUDNAN_clean_linker_2, # of connection points: 2
#     Edge 17, Type (0, 0), BuildingBlock: XUDNAN_clean_linker_2, # of connection points: 2
#     Edge 18, Type (0, 0), BuildingBlock: XUDNAN_clean_linker_2, # of connection points: 2
#     Edge 19, Type (0, 0), BuildingBlock: XUDNAN_clean_linker_2, # of connection points: 2
#     Edge 20, Type (0, 0), BuildingBlock: XUDNAN_clean_linker_2, # of connection points: 2
#     Edge 21, Type (0, 0), BuildingBlock: XUDNAN_clean_linker_2, # of connection points: 2
#     Edge 22, Type (0, 0), BuildingBlock: XUDNAN_clean_linker_2, # of connection points: 2
#     Edge 23, Type (0, 0), BuildingBlock: XUDNAN_clean_linker_2, # of connection points: 2
# Relax obj value: 0.045
# Max RMSD: 0.084
# Mean RMSD: 0.084
data_MOF--net-irl--node1-QUQFOY_clean_sbu_1--edge1-XUDNAN_clean_linker_2
_symmetry_space_group_name_H-M    P1
_symmetry_Int_Tables_number       1
_symmetry_cell_setting            triclinic
loop_
_symmetry_equiv_pos_as_xyz
'x, y, z'
_cell_length_a     36.285375
_cell_length_b     43.803951
_cell_length_c     28.628949
_cell_angle_alpha  90.299355
_cell_angle_beta   89.999467
_cell_angle_gamma 90.004812
loop_
_atom_site_label
_atom_site_type_symbol
_atom_site_fract_x
_atom_site_fract_y
_atom_site_fract_z
_atom_type_partial_charge
O0 O 0.09296 0.18159 0.10225 0.0
Cd1 Cd 0.10702 0.16375 0.03776 0.0
Cd2 Cd 0.03928 0.18722 1.01613 0.0
O3 O 0.04334 0.2076 0.08148 0.0
O4 O 0.16253 0.16614 0.03174 0.0
O5 O 0.12384 0.1952 0.99231 0.0
C6 C 0.15735 0.18877 1.00366 0.0
C7 C 0.0256 0.21173 0.94573 0.0
C8 C 0.067 0.20005 0.11221 0.0
C9 C 0.04771 0.11847 1.01492 0.0
O10 O 0.02658 0.14161 1.01597 0.0
O11 O 0.08256 0.1219 0.01872 0.0
O12 O 1.00039 0.2075 0.97688 0.0
O13 O 0.05886 0.20394 0.95608 0.0
O14 O 0.95848 0.82274 0.0885 0.0
Cd15 Cd 0.9328 0.84243 0.03139 0.0
Cd16 Cd 1.00443 0.8386 1.00092 0.0
O17 O 1.01582 0.81767 0.06353 0.0
O18 O 0.87901 0.83473 0.04464 0.0
O19 O 0.90789 0.81527 0.98351 0.0
C20 C 0.87831 0.81725 1.00828 0.0
C21 C 1.00743 0.81536 0.92789 0.0
C22 C 0.9916 0.81432 0.09518 0.0
C23 C 0.97318 0.90164 1.01017 0.0
O24 O 1.00159 0.88535 1.00281 0.0
O25 O 0.94228 0.88911 0.01969 0.0
O26 O 0.03693 0.82554 0.94796 0.0
O27 O 0.97674 0.81718 0.95055 0.0
O28 O 0.08633 0.8458 0.42271 0.0
Cd29 Cd 0.10721 0.86398 0.48388 0.0
Cd30 Cd 0.04542 0.83865 0.52025 0.0
O31 O 0.04492 0.81618 0.45634 0.0
O32 O 0.16276 0.86006 0.48482 0.0
O33 O 0.125 0.83218 0.52768 0.0
C34 C 0.1581 0.83774 0.51364 0.0
C35 C 0.03493 0.81441 0.59193 0.0
C36 C 0.06207 0.82488 0.41992 0.0
C37 C 0.04991 0.90772 0.51618 0.0
O38 O 0.03011 0.88389 0.51973 0.0
O39 O 0.08414 0.90533 0.50659 0.0
O40 O 1.0086 0.81816 0.56223 0.0
O41 O 0.06753 0.82295 0.57989 0.0
O42 O 0.96306 0.19503 0.43724 0.0
Cd43 Cd 0.93075 0.17975 0.49199 0.0
Cd44 Cd 0.99551 0.18685 0.53488 0.0
O45 O 1.01324 0.20867 0.47525 0.0
O46 O 0.88046 0.18505 0.46475 0.0
O47 O 0.89913 0.21052 0.5272 0.0
C48 C 0.87429 0.2059 0.49568 0.0
C49 C 0.99508 0.20882 0.60919 0.0
C50 C 0.99501 0.20693 0.4374 0.0
C51 C 0.9685 0.12258 0.52319 0.0
O52 O 0.99582 0.13984 0.53194 0.0
O53 O 0.93773 0.13407 0.51074 0.0
O54 O 0.02533 0.19924 0.59037 0.0
O55 O 0.96521 0.2072 0.58465 0.0
O56 O 0.57937 0.68898 0.08493 0.0
Cd57 Cd 0.6012 0.66668 0.02739 0.0
Cd58 Cd 0.53489 0.68658 0.99236 0.0
O59 O 0.52699 0.70703 0.05675 0.0
O60 O 0.65596 0.66787 0.03891 0.0
O61 O 0.62895 0.69172 0.98028 0.0
C62 C 0.65844 0.68621 1.0039 0.0
C63 C 0.53406 0.71206 0.92111 0.0
C64 C 0.5497 0.70405 0.09024 0.0
C65 C 0.54777 0.61804 0.99758 0.0
O66 O 0.52637 0.64032 0.98916 0.0
O67 O 0.58062 0.62291 1.01185 0.0
O68 O 0.50369 0.70511 0.94207 0.0
O69 O 0.56468 0.70598 0.94203 0.0
O70 O 0.44097 0.33337 0.10454 0.0
Cd71 Cd 0.42612 0.34627 0.03749 0.0
Cd72 Cd 0.49855 0.33816 0.02386 0.0
O73 O 0.49794 0.3186 0.08931 0.0
O74 O 0.37082 0.34452 0.03519 0.0
O75 O 0.40643 0.31214 0.99654 0.0
C76 C 0.37379 0.32088 1.00846 0.0
C77 C 0.51349 0.31413 0.9537 0.0
C78 C 0.47117 0.3214 0.11772 0.0
C79 C 0.47319 0.40175 1.01507 0.0
O80 O 0.50108 0.38494 0.02226 0.0
O81 O 0.44091 0.39017 1.01507 0.0
O82 O 0.53881 0.32181 0.98326 0.0
O83 O 0.47948 0.31831 0.9656 0.0
O84 O 0.5697 0.3432 0.44451 0.0
Cd85 Cd 0.59872 0.362 0.49968 0.0
Cd86 Cd 0.53976 0.34118 0.54488 0.0
O87 O 0.52591 0.31926 0.4831 0.0
O88 O 0.64961 0.36439 0.47357 0.0
O89 O 0.6353 0.33464 0.53297 0.0
C90 C 0.65927 0.34336 0.50246 0.0
C91 C 0.54286 0.31746 0.6176 0.0
C92 C 0.54179 0.32567 0.44477 0.0
C93 C 0.5491 0.40982 0.53789 0.0
O94 O 0.52849 0.38721 0.54738 0.0
O95 O 0.5813 0.40531 0.5214 0.0
O96 O 0.5116 0.32333 0.59809 0.0
O97 O 0.57253 0.32349 0.59439 0.0
O98 O 0.45042 0.69243 0.42117 0.0
Cd99 Cd 0.42821 0.67941 0.48484 0.0
Cd100 Cd 0.49619 0.68992 0.51442 0.0
O101 O 0.50155 0.7115 0.45096 0.0
O102 O 0.37319 0.68225 0.48031 0.0
O103 O 0.40677 0.71342 0.52415 0.0
C104 C 0.3749 0.70534 0.50835 0.0
C105 C 0.50757 0.71368 0.58595 0.0
C106 C 0.48043 0.70711 0.41611 0.0
C107 C 0.47315 0.62528 0.51594 0.0
O108 O 0.5008 0.64303 0.51464 0.0
O109 O 0.44082 0.63588 0.50975 0.0
O110 O 0.53422 0.70609 0.55836 0.0
O111 O 0.47421 0.70906 0.57179 0.0
H112 H 0.03705 0.93534 1.00803 0.0
H113 H 0.91789 0.94456 1.00973 0.0
H114 H 0.92454 1.00073 1.00844 0.0
H115 H 0.05576 0.99845 0.08416 0.0
H116 H 0.09696 1.01001 0.05386 0.0
H117 H 0.08291 0.97058 0.0529 0.0
H118 H 0.08328 0.97098 0.96243 0.0
H119 H 0.09732 1.01044 0.96309 0.0
H120 H 0.05639 0.99911 0.9318 0.0
H121 H 0.94401 0.05554 1.00742 0.0
H122 H 0.97428 0.1056 1.01013 0.0
H123 H 0.0815 0.06141 1.01131 0.0
C124 C 1.01227 0.94911 1.00777 0.0
C125 C 0.97684 0.93543 1.00869 0.0
C126 C 0.94525 0.95441 1.00895 0.0
C127 C 0.94879 0.98635 1.00812 0.0
C128 C 0.98409 0.99899 1.00731 0.0
C129 C 1.01529 0.98101 1.00736 0.0
C130 C 0.05002 1.00041 1.00796 0.0
C131 C 0.07274 0.99451 0.05237 0.0
C132 C 0.07311 0.9949 0.96368 0.0
C133 C 0.03348 0.03221 1.0084 0.0
C134 C 0.9954 0.03075 1.00767 0.0
C135 C 0.97379 0.05694 1.00801 0.0
C136 C 0.99141 0.08537 1.00952 0.0
C137 C 0.03046 0.08768 1.01098 0.0
C138 C 0.0517 0.06056 1.01016 0.0
H139 H 0.08177 0.96546 0.51665 0.0
H140 H 0.97641 0.9188 0.52674 0.0
H141 H 0.94462 0.96821 0.53145 0.0
H142 H 0.0586 0.02726 0.59773 0.0
H143 H 0.08319 0.05579 0.56496 0.0
H144 H 0.09821 0.01659 0.56332 0.0
H145 H 0.09355 0.0166 0.47302 0.0
H146 H 0.07845 0.05575 0.4744 0.0
H147 H 0.05067 0.02716 0.44568 0.0
H148 H 0.92331 0.02258 0.53061 0.0
H149 H 0.91478 0.07858 0.52851 0.0
H150 H 0.03346 0.09047 0.52235 0.0
C151 C 0.05206 0.96563 0.52017 0.0
C152 C 0.03175 0.93805 0.52127 0.0
C153 C 0.99281 0.93945 0.52588 0.0
C154 C 0.97434 0.96748 0.52854 0.0
C155 C 0.99505 0.99415 0.52697 0.0
C156 C 0.03306 0.99356 0.52331 0.0
C157 C 0.04854 0.02573 0.52221 0.0
C158 C 0.07362 0.03169 0.56458 0.0
C159 C 0.069 0.03165 0.47608 0.0
C160 C 1.01329 0.04433 0.52532 0.0
C161 C 0.98274 0.02565 0.52784 0.0
C162 C 0.94705 0.03749 0.52912 0.0
C163 C 0.94245 0.06932 0.52782 0.0
C164 C 0.97337 0.08897 0.52571 0.0
C165 C 1.00922 0.07613 0.52466 0.0
H166 H 0.57958 0.56257 0.02255 0.0
H167 H 0.48109 0.60212 0.9612 0.0
H168 H 0.45246 0.55144 0.95759 0.0
H169 H 0.57696 0.49123 0.95421 0.0
H170 H 0.59268 0.46814 1.00217 0.0
H171 H 0.60662 0.50753 0.99827 0.0
H172 H 0.58089 0.51755 0.08134 0.0
H173 H 0.56668 0.47826 0.08537 0.0
H174 H 0.53349 0.50838 0.09395 0.0
H175 H 0.43217 0.4974 0.96505 0.0
H176 H 0.42342 0.44227 0.9789 0.0
H177 H 0.53498 0.43643 0.03301 0.0
C178 C 0.55222 0.5605 1.00779 0.0
C179 C 0.53271 0.58656 0.99229 0.0
C180 C 0.49676 0.58272 0.97351 0.0
C181 C 0.48011 0.55393 0.97124 0.0
C182 C 0.49968 0.52889 0.98755 0.0
C183 C 0.53506 0.53171 1.00504 0.0
C184 C 0.54953 0.50092 0.02091 0.0
C185 C 0.58346 0.49139 0.99216 0.0
C186 C 0.55814 0.50131 0.07352 0.0
C187 C 0.5166 0.48064 1.01005 0.0
C188 C 0.48814 0.49732 0.99094 0.0
C189 C 0.45439 0.48398 0.97957 0.0
C190 C 0.44961 0.45266 0.98772 0.0
C191 C 0.4785 0.43492 1.00676 0.0
C192 C 0.51245 0.44924 1.01793 0.0
H193 H 0.5813 0.46546 0.51547 0.0
H194 H 0.48132 0.42522 0.57168 0.0
H195 H 0.45217 0.47576 0.57394 0.0
H196 H 0.57575 0.53682 0.58409 0.0
H197 H 0.59301 0.55997 0.53704 0.0
H198 H 0.60714 0.52067 0.54186 0.0
H199 H 0.58458 0.51045 0.45738 0.0
H200 H 0.57015 0.54962 0.45242 0.0
H201 H 0.53761 0.51926 0.44197 0.0
H202 H 0.43145 0.52956 0.56416 0.0
H203 H 0.42255 0.58451 0.54895 0.0
H204 H 0.53615 0.5913 0.50257 0.0
C205 C 0.5535 0.46735 0.52891 0.0
C206 C 0.53372 0.44115 0.54329 0.0
C207 C 0.49723 0.44475 0.56036 0.0
C208 C 0.48028 0.47345 0.56179 0.0
C209 C 0.50016 0.49861 0.54649 0.0
C210 C 0.53611 0.49604 0.53095 0.0
C211 C 0.55088 0.5269 0.51587 0.0
C212 C 0.58364 0.53666 0.54655 0.0
C213 C 0.56142 0.52652 0.46382 0.0
C214 C 0.51743 0.54696 0.52472 0.0
C215 C 0.48845 0.53009 0.5422 0.0
C216 C 0.45408 0.54313 0.55105 0.0
C217 C 0.44922 0.57433 0.5421 0.0
C218 C 0.47866 0.59227 0.52493 0.0
C219 C 0.51324 0.57829 0.51631 0.0
H220 H 1.00317 0.20913 0.16091 0.0
H221 H 0.12206 0.21268 0.17411 0.0
H222 H 0.11585 0.22313 0.2587 0.0
H223 H 0.97989 0.26631 0.25459 0.0
H224 H 0.9411 0.24403 0.274 0.0
H225 H 0.95458 0.24317 0.21339 0.0
H226 H 0.95998 0.18423 0.21685 0.0
H227 H 0.94669 0.18492 0.27731 0.0
H228 H 0.9894 0.16709 0.26017 0.0
H229 H 0.09705 0.22707 0.34289 0.0
H230 H 0.06759 0.22068 0.42002 0.0
H231 H 0.96103 0.2119 0.35236 0.0
C232 C 0.02779 0.21326 0.18139 0.0
C233 C 0.06308 0.2107 0.161 0.0
C234 C 0.09478 0.21491 0.18912 0.0
C235 C 0.0915 0.22097 0.23711 0.0
C236 C 0.05631 0.22248 0.25654 0.0
C237 C 0.02498 0.21868 0.22955 0.0
C238 C 0.99074 0.21719 0.25974 0.0
C239 C 0.96507 0.2443 0.24984 0.0
C240 C 0.97054 0.18654 0.25312 0.0
C241 C 1.00779 0.21975 0.30791 0.0
C242 C 0.04553 0.2235 0.30533 0.0
C243 C 0.06745 0.22455 0.34535 0.0
C244 C 0.05045 0.22093 0.38906 0.0
C245 C 1.012 0.21582 0.39234 0.0
C246 C 0.99046 0.21597 0.35114 0.0
H247 H 0.09425 0.83688 0.33516 0.0
H248 H 1.00542 0.78559 0.3993 0.0
H249 H 0.98291 0.77065 0.32119 0.0
H250 H 0.04353 0.86776 0.24653 0.0
H251 H 0.07884 0.86554 0.20235 0.0
H252 H 0.09152 0.86807 0.26291 0.0
H253 H 0.12981 0.81839 0.25489 0.0
H254 H 0.11727 0.81573 0.19406 0.0
H255 H 0.10821 0.78422 0.23265 0.0
H256 H 0.9638 0.76896 0.23743 0.0
H257 H 0.95136 0.77876 0.15394 0.0
H258 H 0.05417 0.82856 0.14328 0.0
C259 C 0.07063 0.82184 0.33288 0.0
C260 C 0.05165 0.81241 0.37348 0.0
C261 C 0.02058 0.79302 0.36882 0.0
C262 C 1.0076 0.78434 0.32454 0.0
C263 C 0.02632 0.79479 0.28523 0.0
C264 C 0.05749 0.81277 0.28896 0.0
C265 C 0.07071 0.8231 0.24136 0.0
C266 C 0.07115 0.85819 0.23812 0.0
C267 C 0.10876 0.80954 0.23008 0.0
C268 C 0.04113 0.8093 0.21044 0.0
C269 C 1.01595 0.79282 0.23641 0.0
C270 C 0.98386 0.78102 0.21651 0.0
C271 C 0.97698 0.78672 0.16915 0.0
C272 C 1.00223 0.80378 0.14213 0.0
C273 C 0.03512 0.8145 0.16281 0.0
H274 H 0.08047 0.81818 0.66774 0.0
H275 H 0.9716 0.78813 0.62496 0.0
H276 H 0.95586 0.77775 0.70733 0.0
H277 H 0.09172 0.76518 0.76928 0.0
H278 H 0.11435 0.79428 0.80358 0.0
H279 H 0.11933 0.79384 0.74091 0.0
H280 H 0.09587 0.84965 0.73754 0.0
H281 H 0.09062 0.85022 0.79994 0.0
H282 H 0.05185 0.85906 0.76304 0.0
H283 H 0.94897 0.77771 0.79439 0.0
H284 H 0.95115 0.78853 0.87903 0.0
H285 H 0.06434 0.81921 0.86524 0.0
C286 C 0.05374 0.80843 0.67551 0.0
C287 C 0.02737 0.80365 0.63989 0.0
C288 C 0.99233 0.79173 0.65165 0.0
C289 C 0.98318 0.78569 0.69834 0.0
C290 C 1.00943 0.7916 0.73281 0.0
C291 C 0.0441 0.80256 0.72192 0.0
C292 C 0.06578 0.81033 0.76562 0.0
C293 C 0.09981 0.78966 0.77011 0.0
C294 C 0.07664 0.84433 0.76657 0.0
C295 C 0.03743 0.80312 0.80278 0.0
C296 C 1.00533 0.79187 0.78319 0.0
C297 C 0.9742 0.78594 0.8102 0.0
C298 C 0.97569 0.79222 0.85827 0.0
C299 C 1.00801 0.80449 0.87884 0.0
C300 C 0.03947 0.8093 0.85074 0.0
H301 H 0.07017 0.21112 0.86881 0.0
H302 H 0.95911 0.23315 0.91386 0.0
H303 H 0.94104 0.24159 0.83167 0.0
H304 H 0.07416 0.26403 0.76685 0.0
H305 H 0.09949 0.23663 0.73235 0.0
H306 H 0.10511 0.23767 0.79491 0.0
H307 H 0.0879 0.18034 0.79906 0.0
H308 H 0.08197 0.17914 0.73676 0.0
H309 H 0.04479 0.16757 0.77448 0.0
H310 H 0.93308 0.2407 0.74407 0.0
H311 H 0.93594 0.23054 0.65914 0.0
H312 H 0.05209 0.2085 0.67182 0.0
C313 C 0.04234 0.2187 0.8616 0.0
C314 C 1.01614 0.22178 0.89785 0.0
C315 C 0.97975 0.23092 0.88673 0.0
C316 C 0.96924 0.23579 0.84012 0.0
C317 C 0.99548 0.23154 0.80505 0.0
C318 C 0.03138 0.22341 0.81533 0.0
C319 C 0.0533 0.21714 0.77129 0.0
C320 C 0.08488 0.24026 0.76605 0.0
C321 C 0.06782 0.18409 0.77037 0.0
C322 C 0.02386 0.22204 0.73463 0.0
C323 C 0.99082 0.23075 0.75467 0.0
C324 C 0.95898 0.23441 0.72796 0.0
C325 C 0.96086 0.22854 0.67971 0.0
C326 C 0.99428 0.21892 0.6587 0.0
C327 C 0.02625 0.21626 0.6866 0.0
H328 H 0.48557 0.69749 0.13887 0.0
H329 H 0.59572 0.73514 0.14799 0.0
H330 H 0.5856 0.74744 0.23136 0.0
H331 H 0.43998 0.74892 0.22812 0.0
H332 H 0.413 0.71782 0.25095 0.0
H333 H 0.42561 0.71825 0.19003 0.0
H334 H 0.4552 0.66476 0.19873 0.0
H335 H 0.44299 0.66425 0.25956 0.0
H336 H 0.49035 0.65899 0.24231 0.0
H337 H 0.56712 0.74931 0.31486 0.0
H338 H 0.543 0.73864 0.39348 0.0
H339 H 0.44568 0.69707 0.33187 0.0
C340 C 0.50685 0.70951 0.15811 0.0
C341 C 0.54107 0.71614 0.13705 0.0
C342 C 0.56912 0.73044 0.16356 0.0
C343 C 0.56355 0.73755 0.21081 0.0
C344 C 0.52992 0.72986 0.23113 0.0
C345 C 0.50199 0.71612 0.20569 0.0
C346 C 0.47068 0.70625 0.23732 0.0
C347 C 0.43521 0.72387 0.22592 0.0
C348 C 0.46447 0.67151 0.23429 0.0
C349 C 0.48594 0.7156 0.28457 0.0
C350 C 0.51977 0.72978 0.28005 0.0
C351 C 0.54041 0.73865 0.31883 0.0
C352 C 0.52648 0.73239 0.36342 0.0
C353 C 0.49239 0.71704 0.36901 0.0
C354 C 0.47161 0.70914 0.32889 0.0
H355 H 0.57614 0.32503 0.35984 0.0
H356 H 0.47212 0.30389 0.42705 0.0
H357 H 0.44394 0.29456 0.3496 0.0
H358 H 0.5409 0.36622 0.26872 0.0
H359 H 0.5729 0.35271 0.22512 0.0
H360 H 0.58614 0.35332 0.28562 0.0
H361 H 0.60135 0.29557 0.28179 0.0
H362 H 0.58839 0.29479 0.22101 0.0
H363 H 0.56681 0.26902 0.26157 0.0
H364 H 0.4249 0.29598 0.26476 0.0
H365 H 0.41781 0.30414 0.17977 0.0
H366 H 0.53505 0.32167 0.16822 0.0
C367 C 0.54766 0.3177 0.3584 0.0
C368 C 0.52632 0.31518 0.39953 0.0
C369 C 0.48909 0.30572 0.39607 0.0
C370 C 0.47284 0.30043 0.3522 0.0
C371 C 0.49439 0.30412 0.31224 0.0
C372 C 0.5312 0.312 0.31505 0.0
C373 C 0.5478 0.31644 0.26702 0.0
C374 C 0.56279 0.34911 0.26131 0.0
C375 C 0.57787 0.29252 0.25728 0.0
C376 C 0.51425 0.31103 0.23669 0.0
C377 C 0.48371 0.30382 0.26336 0.0
C378 C 0.44881 0.30085 0.24345 0.0
C379 C 0.44501 0.30563 0.19521 0.0
C380 C 0.47597 0.31304 0.16736 0.0
C381 C 0.51107 0.31519 0.18841 0.0
H382 H 0.46839 0.31115 0.87716 0.0
H383 H 0.58133 0.29649 0.92137 0.0
H384 H 0.59978 0.28844 0.83919 0.0
H385 H 0.46903 0.25712 0.77501 0.0
H386 H 0.44118 0.28258 0.74057 0.0
H387 H 0.43575 0.28163 0.80314 0.0
H388 H 0.4476 0.33992 0.80724 0.0
H389 H 0.45328 0.34104 0.74491 0.0
H390 H 0.48935 0.35522 0.78249 0.0
H391 H 0.60756 0.28955 0.75192 0.0
H392 H 0.60382 0.29951 0.66715 0.0
H393 H 0.48586 0.31354 0.67988 0.0
C394 C 0.49676 0.30518 0.86974 0.0
C395 C 0.52335 0.30412 0.90577 0.0
C396 C 0.56042 0.29717 0.89441 0.0
C397 C 0.57115 0.2925 0.84779 0.0
C398 C 0.54449 0.29475 0.81291 0.0
C399 C 0.50797 0.3007 0.82338 0.0
C400 C 0.48547 0.30523 0.77937 0.0
C401 C 0.45612 0.28014 0.77422 0.0
C402 C 0.46792 0.33725 0.77847 0.0
C403 C 0.51523 0.30196 0.74258 0.0
C404 C 0.54901 0.29551 0.76253 0.0
C405 C 0.58113 0.294 0.73583 0.0
C406 C 0.57875 0.29974 0.68768 0.0
C407 C 0.54452 0.30703 0.66674 0.0
C408 C 0.51234 0.30746 0.69459 0.0
H409 H 0.47667 0.71218 0.859 0.0
H410 H 0.59215 0.73619 0.87296 0.0
H411 H 0.59504 0.74715 0.78859 0.0
H412 H 0.48598 0.67166 0.75778 0.0
H413 H 0.44298 0.68306 0.73162 0.0
H414 H 0.44772 0.68306 0.79409 0.0
H415 H 0.42875 0.74005 0.79739 0.0
H416 H 0.42371 0.74019 0.73473 0.0
H417 H 0.45357 0.76755 0.76288 0.0
H418 H 0.58833 0.74723 0.70191 0.0
H419 H 0.57231 0.7369 0.61954 0.0
H420 H 0.46105 0.71314 0.66121 0.0
C421 C 0.50219 0.72083 0.84462 0.0
C422 C 0.53409 0.72364 0.87264 0.0
C423 C 0.5673 0.7341 0.85224 0.0
C424 C 0.56918 0.74046 0.80433 0.0
C425 C 0.53757 0.73641 0.77732 0.0
C426 C 0.50459 0.72708 0.79677 0.0
C427 C 0.47587 0.72107 0.75936 0.0
C428 C 0.46238 0.68774 0.76081 0.0
C429 C 0.44356 0.74357 0.76386 0.0
C430 C 0.4983 0.72725 0.71578 0.0
C431 C 0.53366 0.73651 0.72693 0.0
C432 C 0.56049 0.74068 0.69271 0.0
C433 C 0.55117 0.73467 0.64602 0.0
C434 C 0.51533 0.72457 0.63394 0.0
C435 C 0.48839 0.72157 0.66925 0.0
H436 H 0.35949 0.26043 0.02253 0.0
H437 H 0.31272 0.34322 0.96561 0.0
H438 H 0.25458 0.3157 0.94844 0.0
H439 H 0.31157 0.20434 0.9458 0.0
H440 H 0.30403 0.17796 0.99296 0.0
H441 H 0.34388 0.20256 0.99355 0.0
H442 H 0.32488 0.2233 0.07496 0.0
H443 H 0.28509 0.19881 0.07463 0.0
H444 H 0.27955 0.23937 0.08283 0.0
H445 H 0.20062 0.28028 0.94192 0.0
H446 H 0.15218 0.24183 0.95455 0.0
H447 H 0.23183 0.18274 0.02214 0.0
C448 C 0.33729 0.27239 1.00516 0.0
C449 C 0.34067 0.30366 0.99413 0.0
C450 C 0.31069 0.31911 0.97345 0.0
C451 C 0.27769 0.30363 0.9635 0.0
C452 C 0.27492 0.27284 0.97531 0.0
C453 C 0.30375 0.25744 0.99621 0.0
C454 C 0.29203 0.22558 1.01076 0.0
C455 C 0.3142 0.20117 0.98417 0.0
C456 C 0.29559 0.22155 0.06394 0.0
C457 C 0.25196 0.22565 0.99551 0.0
C458 C 0.24297 0.25289 0.97416 0.0
C459 C 0.20739 0.25881 0.95836 0.0
C460 C 0.18003 0.23672 0.96565 0.0
C461 C 0.18808 0.20915 0.98931 0.0
C462 C 0.2248 0.20341 1.00357 0.0
H463 H 0.70685 0.70979 0.06726 0.0
H464 H 0.68635 0.70209 0.91858 0.0
H465 H 0.7414 0.73402 0.90283 0.0
H466 H 0.73123 0.78838 0.06406 0.0
H467 H 0.76552 0.78573 0.10942 0.0
H468 H 0.72711 0.75971 0.10871 0.0
H469 H 0.77197 0.71369 0.10853 0.0
H470 H 0.81053 0.73958 0.1097 0.0
H471 H 0.80713 0.71113 0.06418 0.0
H472 H 0.79986 0.76638 0.904 0.0
H473 H 0.85328 0.79978 0.92195 0.0
H474 H 0.83054 0.79107 0.06991 0.0
C475 C 0.71448 0.71429 0.03137 0.0
C476 C 0.69299 0.70291 0.994 0.0
C477 C 0.70288 0.71024 0.94758 0.0
C478 C 0.73403 0.72836 0.93838 0.0
C479 C 0.75442 0.73959 0.97608 0.0
C480 C 0.74476 0.7331 0.02169 0.0
C481 C 0.76939 0.74986 0.05605 0.0
C482 C 0.74697 0.77225 0.08633 0.0
C483 C 0.79104 0.72721 0.08639 0.0
C484 C 0.7946 0.76668 0.02275 0.0
C485 C 0.78595 0.7601 0.97676 0.0
C486 C 0.80657 0.77194 0.93989 0.0
C487 C 0.8368 0.79089 0.95034 0.0
C488 C 0.84554 0.79841 0.9972 0.0
C489 C 0.82395 0.78624 0.03371 0.0
H490 H 0.23244 0.84346 0.49388 0.0
H491 H 0.15278 0.78402 0.5608 0.0
H492 H 0.20097 0.74524 0.57206 0.0
H493 H 0.27976 0.78736 0.43191 0.0
H494 H 0.32518 0.80319 0.44001 0.0
H495 H 0.28552 0.82784 0.44111 0.0
H496 H 0.30425 0.84785 0.52302 0.0
H497 H 0.34422 0.8234 0.52204 0.0
H498 H 0.31187 0.82108 0.56967 0.0
H499 H 0.25478 0.70985 0.56521 0.0
H500 H 0.31326 0.68259 0.54897 0.0
H501 H 0.36023 0.76566 0.49318 0.0
C502 C 0.22537 0.82259 0.51189 0.0
C503 C 0.18873 0.81687 0.52643 0.0
C504 C 0.18059 0.7891 0.54949 0.0
C505 C 0.2078 0.76682 0.55601 0.0
C506 C 0.24333 0.77278 0.54013 0.0
C507 C 0.25245 0.80021 0.51943 0.0
C508 C 0.29255 0.8003 0.50425 0.0
C509 C 0.29593 0.80494 0.45118 0.0
C510 C 0.31452 0.8246 0.53137 0.0
C511 C 0.3041 0.76831 0.51821 0.0
C512 C 0.27518 0.75279 0.5387 0.0
C513 C 0.27794 0.722 0.55041 0.0
C514 C 0.31111 0.70667 0.54099 0.0
C515 C 0.34123 0.72229 0.52096 0.0
C516 C 0.33782 0.75355 0.50987 0.0
H517 H 0.69951 0.30977 0.56699 0.0
H518 H 0.69843 0.33901 0.4223 0.0
H519 H 0.7525 0.30686 0.40603 0.0
H520 H 0.80154 0.3091 0.57644 0.0
H521 H 0.80216 0.27635 0.6143 0.0
H522 H 0.76344 0.30212 0.61537 0.0
H523 H 0.71948 0.25678 0.5988 0.0
H524 H 0.75807 0.23094 0.59712 0.0
H525 H 0.72709 0.23308 0.54804 0.0
H526 H 0.80134 0.26764 0.40249 0.0
H527 H 0.8507 0.2299 0.41483 0.0
H528 H 0.82701 0.22941 0.56335 0.0
C529 C 0.71108 0.3097 0.53213 0.0
C530 C 0.69467 0.32694 0.49588 0.0
C531 C 0.71061 0.32627 0.45072 0.0
C532 C 0.74122 0.30788 0.441 0.0
C533 C 0.75629 0.29075 0.47704 0.0
C534 C 0.74255 0.29204 0.52202 0.0
C535 C 0.76509 0.27181 0.55432 0.0
C536 C 0.78419 0.29099 0.59236 0.0
C537 C 0.74098 0.24666 0.57583 0.0
C538 C 0.79295 0.2585 0.52011 0.0
C539 C 0.78676 0.26949 0.47562 0.0
C540 C 0.80695 0.25928 0.43728 0.0
C541 C 0.83472 0.23767 0.44458 0.0
C542 C 0.84273 0.22692 0.48998 0.0
C543 C 0.82163 0.23754 0.52835 0.0
loop_
_geom_bond_atom_site_label_1
_geom_bond_atom_site_label_2
_geom_bond_distance
_geom_bond_site_symmetry_2
_ccdc_geom_bond_type
O0 Cd1 2.223 . S
O0 C8 1.315 . S
Cd1 O0 2.223 . S
Cd1 O4 2.297 . S
Cd1 O5 2.439 . S
Cd1 O11 2.240 . S
Cd2 O3 2.240 1_556 S
Cd2 O10 2.222 1_456 S
Cd2 O12 2.297 1_455 S
Cd2 O13 2.439 . S
O3 Cd2 2.240 1_554 S
O3 C8 1.279 . S
O4 Cd1 2.297 . S
O4 C6 1.247 . S
O5 Cd1 2.439 . S
O5 C6 1.208 . S
C6 O4 1.247 . S
C6 O5 1.208 . S
C7 O12 1.247 1_455 S
C7 O13 1.208 . S
C8 O0 1.315 . S
C8 O3 1.279 . S
C9 O10 1.307 1_455 S
C9 O11 1.279 . S
O10 Cd2 2.222 1_654 S
O10 C9 1.307 1_655 S
O11 Cd1 2.240 . S
O11 C9 1.279 . S
O12 Cd2 2.297 1_655 S
O12 C7 1.247 1_655 S
O13 Cd2 2.439 . S
O13 C7 1.208 . S
O14 Cd15 2.223 . S
O14 C22 1.315 . S
Cd15 O14 2.223 . S
Cd15 O18 2.297 . S
Cd15 O19 2.439 . S
Cd15 O25 2.240 . S
Cd16 O17 2.240 1_556 S
Cd16 O24 2.222 1_656 S
Cd16 O26 2.297 1_655 S
Cd16 O27 2.439 . S
O17 Cd16 2.240 1_554 S
O17 C22 1.279 . S
O18 Cd15 2.297 . S
O18 C20 1.247 . S
O19 Cd15 2.439 . S
O19 C20 1.208 . S
C20 O18 1.247 . S
C20 O19 1.208 . S
C21 O26 1.247 1_655 S
C21 O27 1.208 . S
C22 O14 1.315 . S
C22 O17 1.279 . S
C23 O24 1.307 1_655 S
C23 O25 1.279 . S
O24 Cd16 2.222 1_454 S
O24 C23 1.307 1_455 S
O25 Cd15 2.240 . S
O25 C23 1.279 . S
O26 Cd16 2.297 1_455 S
O26 C21 1.247 1_455 S
O27 Cd16 2.439 . S
O27 C21 1.208 . S
O28 Cd29 2.223 . S
O28 C36 1.315 . S
Cd29 O28 2.223 . S
Cd29 O32 2.297 . S
Cd29 O33 2.439 . S
Cd29 O39 2.240 . S
Cd30 O31 2.240 . S
Cd30 O38 2.222 1_455 S
Cd30 O40 2.297 1_455 S
Cd30 O41 2.439 . S
O31 Cd30 2.240 . S
O31 C36 1.279 . S
O32 Cd29 2.297 . S
O32 C34 1.247 . S
O33 Cd29 2.439 . S
O33 C34 1.208 . S
C34 O32 1.247 . S
C34 O33 1.208 . S
C35 O40 1.247 1_455 S
C35 O41 1.208 . S
C36 O28 1.315 . S
C36 O31 1.279 . S
C37 O38 1.307 1_455 S
C37 O39 1.279 . S
O38 Cd30 2.222 1_655 S
O38 C37 1.307 1_655 S
O39 Cd29 2.240 . S
O39 C37 1.279 . S
O40 Cd30 2.297 1_655 S
O40 C35 1.247 1_655 S
O41 Cd30 2.439 . S
O41 C35 1.208 . S
O42 Cd43 2.223 . S
O42 C50 1.315 . S
Cd43 O42 2.223 . S
Cd43 O46 2.297 . S
Cd43 O47 2.439 . S
Cd43 O53 2.240 . S
Cd44 O45 2.240 . S
Cd44 O52 2.222 1_655 S
Cd44 O54 2.297 1_655 S
Cd44 O55 2.439 . S
O45 Cd44 2.240 . S
O45 C50 1.279 . S
O46 Cd43 2.297 . S
O46 C48 1.247 . S
O47 Cd43 2.439 . S
O47 C48 1.208 . S
C48 O46 1.247 . S
C48 O47 1.208 . S
C49 O54 1.247 1_655 S
C49 O55 1.208 . S
C50 O42 1.315 . S
C50 O45 1.279 . S
C51 O52 1.307 1_655 S
C51 O53 1.279 . S
O52 Cd44 2.222 1_455 S
O52 C51 1.307 1_455 S
O53 Cd43 2.240 . S
O53 C51 1.279 . S
O54 Cd44 2.297 1_455 S
O54 C49 1.247 1_455 S
O55 Cd44 2.439 . S
O55 C49 1.208 . S
O56 Cd57 2.223 . S
O56 C64 1.315 . S
Cd57 O56 2.223 . S
Cd57 O60 2.297 . S
Cd57 O61 2.439 . S
Cd57 O67 2.240 . S
Cd58 O59 2.240 1_556 S
Cd58 O66 2.223 1_556 S
Cd58 O68 2.297 . S
Cd58 O69 2.439 . S
O59 Cd58 2.240 1_554 S
O59 C64 1.279 . S
O60 Cd57 2.297 . S
O60 C62 1.247 . S
O61 Cd57 2.439 . S
O61 C62 1.208 . S
C62 O60 1.247 . S
C62 O61 1.208 . S
C63 O68 1.247 . S
C63 O69 1.208 . S
C64 O56 1.315 . S
C64 O59 1.279 . S
C65 O66 1.315 . S
C65 O67 1.279 . S
O66 Cd58 2.223 1_554 S
O66 C65 1.315 . S
O67 Cd57 2.240 . S
O67 C65 1.279 . S
O68 Cd58 2.297 . S
O68 C63 1.247 . S
O69 Cd58 2.439 . S
O69 C63 1.208 . S
O70 Cd71 2.223 . S
O70 C78 1.315 . S
Cd71 O70 2.223 . S
Cd71 O74 2.297 . S
Cd71 O75 2.439 . S
Cd71 O81 2.240 . S
Cd72 O73 2.240 1_556 S
Cd72 O80 2.223 1_556 S
Cd72 O82 2.297 . S
Cd72 O83 2.439 . S
O73 Cd72 2.240 1_554 S
O73 C78 1.279 . S
O74 Cd71 2.297 . S
O74 C76 1.247 . S
O75 Cd71 2.439 . S
O75 C76 1.208 . S
C76 O74 1.247 . S
C76 O75 1.208 . S
C77 O82 1.247 . S
C77 O83 1.208 . S
C78 O70 1.315 . S
C78 O73 1.279 . S
C79 O80 1.315 . S
C79 O81 1.279 . S
O80 Cd72 2.223 1_554 S
O80 C79 1.315 . S
O81 Cd71 2.240 . S
O81 C79 1.279 . S
O82 Cd72 2.297 . S
O82 C77 1.247 . S
O83 Cd72 2.439 . S
O83 C77 1.208 . S
O84 Cd85 2.223 . S
O84 C92 1.315 . S
Cd85 O84 2.223 . S
Cd85 O88 2.297 . S
Cd85 O89 2.439 . S
Cd85 O95 2.240 . S
Cd86 O87 2.240 . S
Cd86 O94 2.223 . S
Cd86 O96 2.297 . S
Cd86 O97 2.439 . S
O87 Cd86 2.240 . S
O87 C92 1.279 . S
O88 Cd85 2.297 . S
O88 C90 1.247 . S
O89 Cd85 2.439 . S
O89 C90 1.208 . S
C90 O88 1.247 . S
C90 O89 1.208 . S
C91 O96 1.247 . S
C91 O97 1.208 . S
C92 O84 1.315 . S
C92 O87 1.279 . S
C93 O94 1.315 . S
C93 O95 1.279 . S
O94 Cd86 2.223 . S
O94 C93 1.315 . S
O95 Cd85 2.240 . S
O95 C93 1.279 . S
O96 Cd86 2.297 . S
O96 C91 1.247 . S
O97 Cd86 2.439 . S
O97 C91 1.208 . S
O98 Cd99 2.223 . S
O98 C106 1.315 . S
Cd99 O98 2.223 . S
Cd99 O102 2.297 . S
Cd99 O103 2.439 . S
Cd99 O109 2.240 . S
Cd100 O101 2.240 . S
Cd100 O108 2.223 . S
Cd100 O110 2.297 . S
Cd100 O111 2.439 . S
O101 Cd100 2.240 . S
O101 C106 1.279 . S
O102 Cd99 2.297 . S
O102 C104 1.247 . S
O103 Cd99 2.439 . S
O103 C104 1.208 . S
C104 O102 1.247 . S
C104 O103 1.208 . S
C105 O110 1.247 . S
C105 O111 1.208 . S
C106 O98 1.315 . S
C106 O101 1.279 . S
C107 O108 1.315 . S
C107 O109 1.279 . S
O108 Cd100 2.223 . S
O108 C107 1.315 . S
O109 Cd99 2.240 . S
O109 C107 1.279 . S
O110 Cd100 2.297 . S
O110 C105 1.247 . S
O111 Cd100 2.439 . S
O111 C105 1.208 . S
H112 C124 0.930 . S
H113 C126 0.930 . S
H114 C127 0.930 . S
H115 C131 0.959 . S
H116 C131 0.959 1_545 S
H117 C131 0.961 . S
H118 C132 0.960 1_565 S
H119 C132 0.961 . S
H120 C132 0.959 . S
H121 C135 0.929 1_655 S
H122 C136 0.931 . S
H123 C138 0.930 . S
C124 H112 0.930 . S
C124 C125 1.399 1_556 S
C124 C129 1.399 1_556 S
C125 C124 1.399 1_554 S
C125 C126 1.376 . S
C126 H113 0.930 . S
C126 C125 1.376 . S
C126 C127 1.388 . S
C127 H114 0.930 . S
C127 C126 1.388 . S
C127 C128 1.390 . S
C128 C127 1.390 . S
C128 C129 1.394 . S
C128 C134 1.466 1_565 S
C129 C124 1.399 1_554 S
C129 C128 1.394 . S
C129 C130 1.522 1_654 S
C130 C129 1.522 1_456 S
C130 C131 1.503 . S
C130 C132 1.559 1_465 S
C130 C133 1.520 1_566 S
C131 H115 0.959 . S
C131 H116 0.959 1_565 S
C131 H117 0.961 . S
C131 C130 1.503 . S
C132 H118 0.960 1_545 S
C132 H119 0.961 . S
C132 H120 0.959 . S
C132 C130 1.559 1_645 S
C133 C130 1.520 1_544 S
C133 C134 1.395 1_455 S
C133 C138 1.390 1_554 S
C134 C128 1.466 1_545 S
C134 C133 1.395 1_655 S
C134 C135 1.398 1_655 S
C135 H121 0.929 1_455 S
C135 C134 1.398 1_455 S
C135 C136 1.385 . S
C136 H122 0.931 . S
C136 C135 1.385 . S
C136 C137 1.389 . S
C137 C136 1.389 . S
C137 C138 1.387 1_554 S
C138 H123 0.930 . S
C138 C133 1.390 1_556 S
C138 C137 1.387 1_556 S
H139 C151 0.930 . S
H140 C153 0.930 . S
H141 C154 0.930 . S
H142 C158 0.959 . S
H143 C158 0.959 . S
H144 C158 0.961 1_565 S
H145 C159 0.960 . S
H146 C159 0.961 1_545 S
H147 C159 0.959 . S
H148 C162 0.929 . S
H149 C163 0.931 . S
H150 C165 0.930 . S
C151 H139 0.930 . S
C151 C152 1.399 . S
C151 C156 1.399 . S
C152 C151 1.399 . S
C152 C153 1.376 . S
C153 H140 0.930 . S
C153 C152 1.376 . S
C153 C154 1.388 1_455 S
C154 H141 0.930 . S
C154 C153 1.388 1_655 S
C154 C155 1.390 . S
C155 C154 1.390 . S
C155 C156 1.394 1_655 S
C155 C161 1.465 1_565 S
C156 C151 1.399 . S
C156 C155 1.394 1_455 S
C156 C157 1.516 1_565 S
C157 C156 1.516 1_545 S
C157 C158 1.502 . S
C157 C159 1.561 1_445 S
C157 C160 1.526 1_455 S
C158 H142 0.959 . S
C158 H143 0.959 . S
C158 H144 0.961 1_545 S
C158 C157 1.502 . S
C159 H145 0.960 . S
C159 H146 0.961 1_565 S
C159 H147 0.959 . S
C159 C157 1.561 1_665 S
C160 C157 1.526 1_655 S
C160 C161 1.396 . S
C160 C165 1.390 . S
C161 C155 1.465 1_545 S
C161 C160 1.396 . S
C161 C162 1.399 . S
C162 H148 0.929 . S
C162 C161 1.399 . S
C162 C163 1.385 . S
C163 H149 0.931 . S
C163 C162 1.385 . S
C163 C164 1.389 . S
C164 C163 1.389 . S
C164 C165 1.387 . S
C165 H150 0.930 . S
C165 C160 1.390 . S
C165 C164 1.387 . S
H166 C178 0.930 . S
H167 C180 0.930 . S
H168 C181 0.930 . S
H169 C185 0.959 . S
H170 C185 0.959 . S
H171 C185 0.961 . S
H172 C186 0.960 . S
H173 C186 0.961 . S
H174 C186 0.959 . S
H175 C189 0.929 . S
H176 C190 0.931 . S
H177 C192 0.930 . S
C178 H166 0.930 . S
C178 C179 1.399 . S
C178 C183 1.399 . S
C179 C178 1.399 . S
C179 C180 1.376 1_554 S
C180 H167 0.930 . S
C180 C179 1.376 1_556 S
C180 C181 1.388 . S
C181 H168 0.930 . S
C181 C180 1.388 . S
C181 C182 1.390 1_556 S
C182 C181 1.390 1_554 S
C182 C183 1.394 . S
C182 C188 1.465 . S
C183 C178 1.399 . S
C183 C182 1.394 . S
C183 C184 1.516 . S
C184 C183 1.516 . S
C184 C185 1.502 . S
C184 C186 1.561 . S
C184 C187 1.526 . S
C185 H169 0.959 . S
C185 H170 0.959 . S
C185 H171 0.961 . S
C185 C184 1.502 . S
C186 H172 0.960 . S
C186 H173 0.961 . S
C186 H174 0.959 . S
C186 C184 1.561 . S
C187 C184 1.526 . S
C187 C188 1.396 . S
C187 C192 1.390 . S
C188 C182 1.465 . S
C188 C187 1.396 . S
C188 C189 1.399 1_554 S
C189 H175 0.929 . S
C189 C188 1.399 1_556 S
C189 C190 1.385 . S
C190 H176 0.931 . S
C190 C189 1.385 . S
C190 C191 1.389 1_556 S
C191 C190 1.389 1_554 S
C191 C192 1.387 . S
C192 H177 0.930 . S
C192 C187 1.390 . S
C192 C191 1.387 . S
H193 C205 0.930 . S
H194 C207 0.930 . S
H195 C208 0.930 . S
H196 C212 0.959 . S
H197 C212 0.959 . S
H198 C212 0.961 . S
H199 C213 0.960 . S
H200 C213 0.961 . S
H201 C213 0.959 . S
H202 C216 0.929 . S
H203 C217 0.931 . S
H204 C219 0.930 . S
C205 H193 0.930 . S
C205 C206 1.399 . S
C205 C210 1.399 . S
C206 C205 1.399 . S
C206 C207 1.376 . S
C207 H194 0.930 . S
C207 C206 1.376 . S
C207 C208 1.388 . S
C208 H195 0.930 . S
C208 C207 1.388 . S
C208 C209 1.390 . S
C209 C208 1.390 . S
C209 C210 1.394 . S
C209 C215 1.465 . S
C210 C205 1.399 . S
C210 C209 1.394 . S
C210 C211 1.516 . S
C211 C210 1.516 . S
C211 C212 1.502 . S
C211 C213 1.561 . S
C211 C214 1.526 . S
C212 H196 0.959 . S
C212 H197 0.959 . S
C212 H198 0.961 . S
C212 C211 1.502 . S
C213 H199 0.960 . S
C213 H200 0.961 . S
C213 H201 0.959 . S
C213 C211 1.561 . S
C214 C211 1.526 . S
C214 C215 1.396 . S
C214 C219 1.390 . S
C215 C209 1.465 . S
C215 C214 1.396 . S
C215 C216 1.399 . S
C216 H202 0.929 . S
C216 C215 1.399 . S
C216 C217 1.385 . S
C217 H203 0.931 . S
C217 C216 1.385 . S
C217 C218 1.389 . S
C218 C217 1.389 . S
C218 C219 1.387 . S
C219 H204 0.930 . S
C219 C214 1.390 . S
C219 C218 1.387 . S
H220 C232 0.930 . S
H221 C234 0.930 . S
H222 C235 0.930 . S
H223 C239 0.959 . S
H224 C239 0.959 . S
H225 C239 0.961 . S
H226 C240 0.960 . S
H227 C240 0.961 . S
H228 C240 0.959 . S
H229 C243 0.929 . S
H230 C244 0.931 . S
H231 C246 0.930 . S
C232 H220 0.930 . S
C232 C233 1.399 . S
C232 C237 1.399 . S
C233 C232 1.399 . S
C233 C234 1.376 . S
C234 H221 0.930 . S
C234 C233 1.376 . S
C234 C235 1.388 . S
C235 H222 0.930 . S
C235 C234 1.388 . S
C235 C236 1.390 . S
C236 C235 1.390 . S
C236 C237 1.394 . S
C236 C242 1.465 . S
C237 C232 1.399 . S
C237 C236 1.394 . S
C237 C238 1.516 1_455 S
C238 C237 1.516 1_655 S
C238 C239 1.502 . S
C238 C240 1.561 1_655 S
C238 C241 1.526 . S
C239 H223 0.959 . S
C239 H224 0.959 . S
C239 H225 0.961 . S
C239 C238 1.502 . S
C240 H226 0.960 . S
C240 H227 0.961 . S
C240 H228 0.959 . S
C240 C238 1.561 1_455 S
C241 C238 1.526 . S
C241 C242 1.396 1_655 S
C241 C246 1.390 . S
C242 C236 1.465 . S
C242 C241 1.396 1_455 S
C242 C243 1.399 . S
C243 H229 0.929 . S
C243 C242 1.399 . S
C243 C244 1.385 1_455 S
C244 H230 0.931 . S
C244 C243 1.385 1_655 S
C244 C245 1.389 . S
C245 C244 1.389 . S
C245 C246 1.387 . S
C246 H231 0.930 . S
C246 C241 1.390 . S
C246 C245 1.387 . S
H247 C259 0.930 . S
H248 C261 0.930 . S
H249 C262 0.930 . S
H250 C266 0.959 . S
H251 C266 0.959 . S
H252 C266 0.961 . S
H253 C267 0.960 . S
H254 C267 0.961 . S
H255 C267 0.959 . S
H256 C270 0.929 1_455 S
H257 C271 0.931 . S
H258 C273 0.930 . S
C259 H247 0.930 . S
C259 C260 1.399 . S
C259 C264 1.399 . S
C260 C259 1.399 . S
C260 C261 1.376 . S
C261 H248 0.930 . S
C261 C260 1.376 . S
C261 C262 1.388 . S
C262 H249 0.930 . S
C262 C261 1.388 . S
C262 C263 1.390 . S
C263 C262 1.390 . S
C263 C264 1.394 . S
C263 C269 1.464 1_455 S
C264 C259 1.399 . S
C264 C263 1.394 . S
C264 C265 1.517 . S
C265 C264 1.517 . S
C265 C266 1.500 1_455 S
C265 C267 1.563 . S
C265 C268 1.525 1_455 S
C266 H250 0.959 . S
C266 H251 0.959 . S
C266 H252 0.961 . S
C266 C265 1.500 1_655 S
C267 H253 0.960 . S
C267 H254 0.961 . S
C267 H255 0.959 . S
C267 C265 1.563 . S
C268 C265 1.525 1_655 S
C268 C269 1.397 . S
C268 C273 1.390 . S
C269 C263 1.464 1_655 S
C269 C268 1.397 . S
C269 C270 1.399 . S
C270 H256 0.929 1_655 S
C270 C269 1.399 . S
C270 C271 1.385 . S
C271 H257 0.931 . S
C271 C270 1.385 . S
C271 C272 1.389 . S
C272 C271 1.389 . S
C272 C273 1.387 . S
C273 H258 0.930 . S
C273 C268 1.390 . S
C273 C272 1.387 . S
H274 C286 0.930 . S
H275 C288 0.930 . S
H276 C289 0.930 . S
H277 C293 0.959 . S
H278 C293 0.959 . S
H279 C293 0.961 . S
H280 C294 0.960 . S
H281 C294 0.961 . S
H282 C294 0.959 . S
H283 C297 0.929 . S
H284 C298 0.931 . S
H285 C300 0.930 . S
C286 H274 0.930 . S
C286 C287 1.399 . S
C286 C291 1.399 . S
C287 C286 1.399 . S
C287 C288 1.376 1_455 S
C288 H275 0.930 . S
C288 C287 1.376 1_655 S
C288 C289 1.388 . S
C289 H276 0.930 . S
C289 C288 1.388 . S
C289 C290 1.390 . S
C290 C289 1.390 . S
C290 C291 1.394 1_655 S
C290 C296 1.465 . S
C291 C286 1.399 . S
C291 C290 1.394 1_455 S
C291 C292 1.516 . S
C292 C291 1.516 . S
C292 C293 1.502 . S
C292 C294 1.561 . S
C292 C295 1.526 . S
C293 H277 0.959 . S
C293 H278 0.959 . S
C293 H279 0.961 . S
C293 C292 1.502 . S
C294 H280 0.960 . S
C294 H281 0.961 . S
C294 H282 0.959 . S
C294 C292 1.561 . S
C295 C292 1.526 . S
C295 C296 1.396 1_455 S
C295 C300 1.390 . S
C296 C290 1.465 . S
C296 C295 1.396 1_655 S
C296 C297 1.399 . S
C297 H283 0.929 . S
C297 C296 1.399 . S
C297 C298 1.385 . S
C298 H284 0.931 . S
C298 C297 1.385 . S
C298 C299 1.389 . S
C299 C298 1.389 . S
C299 C300 1.387 1_655 S
C300 H285 0.930 . S
C300 C295 1.390 . S
C300 C299 1.387 1_455 S
H301 C313 0.930 . S
H302 C315 0.930 . S
H303 C316 0.930 . S
H304 C320 0.959 . S
H305 C320 0.959 . S
H306 C320 0.961 . S
H307 C321 0.960 . S
H308 C321 0.961 . S
H309 C321 0.959 . S
H310 C324 0.929 . S
H311 C325 0.931 . S
H312 C327 0.930 1_455 S
C313 H301 0.930 . S
C313 C314 1.399 . S
C313 C318 1.399 . S
C314 C313 1.399 . S
C314 C315 1.376 1_455 S
C315 H302 0.930 . S
C315 C314 1.376 1_655 S
C315 C316 1.388 . S
C316 H303 0.930 . S
C316 C315 1.388 . S
C316 C317 1.390 . S
C317 C316 1.390 . S
C317 C318 1.394 1_655 S
C317 C323 1.465 . S
C318 C313 1.399 . S
C318 C317 1.394 1_455 S
C318 C319 1.516 . S
C319 C318 1.516 . S
C319 C320 1.502 . S
C319 C321 1.561 1_455 S
C319 C322 1.526 1_455 S
C320 H304 0.959 . S
C320 H305 0.959 . S
C320 H306 0.961 . S
C320 C319 1.502 . S
C321 H307 0.960 . S
C321 H308 0.961 . S
C321 H309 0.959 . S
C321 C319 1.561 1_655 S
C322 C319 1.526 1_655 S
C322 C323 1.396 . S
C322 C327 1.390 . S
C323 C317 1.465 . S
C323 C322 1.396 . S
C323 C324 1.399 . S
C324 H310 0.929 . S
C324 C323 1.399 . S
C324 C325 1.385 . S
C325 H311 0.931 . S
C325 C324 1.385 . S
C325 C326 1.389 . S
C326 C325 1.389 . S
C326 C327 1.387 . S
C327 H312 0.930 1_655 S
C327 C322 1.390 . S
C327 C326 1.387 . S
H328 C340 0.930 . S
H329 C342 0.930 . S
H330 C343 0.930 . S
H331 C347 0.959 . S
H332 C347 0.959 . S
H333 C347 0.961 . S
H334 C348 0.960 . S
H335 C348 0.961 . S
H336 C348 0.959 . S
H337 C351 0.929 . S
H338 C352 0.931 . S
H339 C354 0.930 . S
C340 H328 0.930 . S
C340 C341 1.399 . S
C340 C345 1.399 . S
C341 C340 1.399 . S
C341 C342 1.376 . S
C342 H329 0.930 . S
C342 C341 1.376 . S
C342 C343 1.388 . S
C343 H330 0.930 . S
C343 C342 1.388 . S
C343 C344 1.390 . S
C344 C343 1.390 . S
C344 C345 1.394 . S
C344 C350 1.465 . S
C345 C340 1.399 . S
C345 C344 1.394 . S
C345 C346 1.516 . S
C346 C345 1.516 . S
C346 C347 1.502 . S
C346 C348 1.561 . S
C346 C349 1.526 . S
C347 H331 0.959 . S
C347 H332 0.959 . S
C347 H333 0.961 . S
C347 C346 1.502 . S
C348 H334 0.960 . S
C348 H335 0.961 . S
C348 H336 0.959 . S
C348 C346 1.561 . S
C349 C346 1.526 . S
C349 C350 1.396 . S
C349 C354 1.390 . S
C350 C344 1.465 . S
C350 C349 1.396 . S
C350 C351 1.399 . S
C351 H337 0.929 . S
C351 C350 1.399 . S
C351 C352 1.385 . S
C352 H338 0.931 . S
C352 C351 1.385 . S
C352 C353 1.389 . S
C353 C352 1.389 . S
C353 C354 1.387 . S
C354 H339 0.930 . S
C354 C349 1.390 . S
C354 C353 1.387 . S
H355 C367 0.930 . S
H356 C369 0.930 . S
H357 C370 0.930 . S
H358 C374 0.959 . S
H359 C374 0.959 . S
H360 C374 0.961 . S
H361 C375 0.960 . S
H362 C375 0.961 . S
H363 C375 0.959 . S
H364 C378 0.929 . S
H365 C379 0.931 . S
H366 C381 0.930 . S
C367 H355 0.930 . S
C367 C368 1.399 . S
C367 C372 1.399 . S
C368 C367 1.399 . S
C368 C369 1.376 . S
C369 H356 0.930 . S
C369 C368 1.376 . S
C369 C370 1.388 . S
C370 H357 0.930 . S
C370 C369 1.388 . S
C370 C371 1.390 . S
C371 C370 1.390 . S
C371 C372 1.394 . S
C371 C377 1.465 . S
C372 C367 1.399 . S
C372 C371 1.394 . S
C372 C373 1.516 . S
C373 C372 1.516 . S
C373 C374 1.502 . S
C373 C375 1.561 . S
C373 C376 1.526 . S
C374 H358 0.959 . S
C374 H359 0.959 . S
C374 H360 0.961 . S
C374 C373 1.502 . S
C375 H361 0.960 . S
C375 H362 0.961 . S
C375 H363 0.959 . S
C375 C373 1.561 . S
C376 C373 1.526 . S
C376 C377 1.396 . S
C376 C381 1.390 . S
C377 C371 1.465 . S
C377 C376 1.396 . S
C377 C378 1.399 . S
C378 H364 0.929 . S
C378 C377 1.399 . S
C378 C379 1.385 . S
C379 H365 0.931 . S
C379 C378 1.385 . S
C379 C380 1.389 . S
C380 C379 1.389 . S
C380 C381 1.387 . S
C381 H366 0.930 . S
C381 C376 1.390 . S
C381 C380 1.387 . S
H382 C394 0.930 . S
H383 C396 0.930 . S
H384 C397 0.930 . S
H385 C401 0.959 . S
H386 C401 0.959 . S
H387 C401 0.961 . S
H388 C402 0.960 . S
H389 C402 0.961 . S
H390 C402 0.959 . S
H391 C405 0.929 . S
H392 C406 0.931 . S
H393 C408 0.930 . S
C394 H382 0.930 . S
C394 C395 1.399 . S
C394 C399 1.399 . S
C395 C394 1.399 . S
C395 C396 1.376 . S
C396 H383 0.930 . S
C396 C395 1.376 . S
C396 C397 1.388 . S
C397 H384 0.930 . S
C397 C396 1.388 . S
C397 C398 1.390 . S
C398 C397 1.390 . S
C398 C399 1.394 . S
C398 C404 1.465 . S
C399 C394 1.399 . S
C399 C398 1.394 . S
C399 C400 1.516 . S
C400 C399 1.516 . S
C400 C401 1.502 . S
C400 C402 1.561 . S
C400 C403 1.526 . S
C401 H385 0.959 . S
C401 H386 0.959 . S
C401 H387 0.961 . S
C401 C400 1.502 . S
C402 H388 0.960 . S
C402 H389 0.961 . S
C402 H390 0.959 . S
C402 C400 1.561 . S
C403 C400 1.526 . S
C403 C404 1.396 . S
C403 C408 1.390 . S
C404 C398 1.465 . S
C404 C403 1.396 . S
C404 C405 1.399 . S
C405 H391 0.929 . S
C405 C404 1.399 . S
C405 C406 1.385 . S
C406 H392 0.931 . S
C406 C405 1.385 . S
C406 C407 1.389 . S
C407 C406 1.389 . S
C407 C408 1.387 . S
C408 H393 0.930 . S
C408 C403 1.390 . S
C408 C407 1.387 . S
H409 C421 0.930 . S
H410 C423 0.930 . S
H411 C424 0.930 . S
H412 C428 0.959 . S
H413 C428 0.959 . S
H414 C428 0.961 . S
H415 C429 0.960 . S
H416 C429 0.961 . S
H417 C429 0.959 . S
H418 C432 0.929 . S
H419 C433 0.931 . S
H420 C435 0.930 . S
C421 H409 0.930 . S
C421 C422 1.399 . S
C421 C426 1.399 . S
C422 C421 1.399 . S
C422 C423 1.376 . S
C423 H410 0.930 . S
C423 C422 1.376 . S
C423 C424 1.388 . S
C424 H411 0.930 . S
C424 C423 1.388 . S
C424 C425 1.390 . S
C425 C424 1.390 . S
C425 C426 1.394 . S
C425 C431 1.465 . S
C426 C421 1.399 . S
C426 C425 1.394 . S
C426 C427 1.516 . S
C427 C426 1.516 . S
C427 C428 1.502 . S
C427 C429 1.561 . S
C427 C430 1.526 . S
C428 H412 0.959 . S
C428 H413 0.959 . S
C428 H414 0.961 . S
C428 C427 1.502 . S
C429 H415 0.960 . S
C429 H416 0.961 . S
C429 H417 0.959 . S
C429 C427 1.561 . S
C430 C427 1.526 . S
C430 C431 1.396 . S
C430 C435 1.390 . S
C431 C425 1.465 . S
C431 C430 1.396 . S
C431 C432 1.399 . S
C432 H418 0.929 . S
C432 C431 1.399 . S
C432 C433 1.385 . S
C433 H419 0.931 . S
C433 C432 1.385 . S
C433 C434 1.389 . S
C434 C433 1.389 . S
C434 C435 1.387 . S
C435 H420 0.930 . S
C435 C430 1.390 . S
C435 C434 1.387 . S
H436 C448 0.930 . S
H437 C450 0.930 . S
H438 C451 0.930 1_556 S
H439 C455 0.959 . S
H440 C455 0.959 . S
H441 C455 0.961 . S
H442 C456 0.960 . S
H443 C456 0.961 . S
H444 C456 0.959 . S
H445 C459 0.929 1_556 S
H446 C460 0.931 1_556 S
H447 C462 0.930 . S
C448 H436 0.930 . S
C448 C449 1.399 . S
C448 C453 1.399 . S
C449 C448 1.399 . S
C449 C450 1.376 . S
C450 H437 0.930 . S
C450 C449 1.376 . S
C450 C451 1.388 . S
C451 H438 0.930 1_554 S
C451 C450 1.388 . S
C451 C452 1.390 . S
C452 C451 1.390 . S
C452 C453 1.394 . S
C452 C458 1.465 . S
C453 C448 1.399 . S
C453 C452 1.394 . S
C453 C454 1.516 . S
C454 C453 1.516 . S
C454 C455 1.502 . S
C454 C456 1.561 . S
C454 C457 1.526 . S
C455 H439 0.959 . S
C455 H440 0.959 . S
C455 H441 0.961 . S
C455 C454 1.502 . S
C456 H442 0.960 . S
C456 H443 0.961 . S
C456 H444 0.959 . S
C456 C454 1.561 . S
C457 C454 1.526 . S
C457 C458 1.396 . S
C457 C462 1.390 . S
C458 C452 1.465 . S
C458 C457 1.396 . S
C458 C459 1.399 . S
C459 H445 0.929 1_554 S
C459 C458 1.399 . S
C459 C460 1.385 . S
C460 H446 0.931 1_554 S
C460 C459 1.385 . S
C460 C461 1.389 . S
C461 C460 1.389 . S
C461 C462 1.387 . S
C462 H447 0.930 . S
C462 C457 1.390 . S
C462 C461 1.387 . S
H463 C475 0.930 . S
H464 C477 0.930 . S
H465 C478 0.930 . S
H466 C482 0.959 . S
H467 C482 0.959 . S
H468 C482 0.961 . S
H469 C483 0.960 . S
H470 C483 0.961 . S
H471 C483 0.959 . S
H472 C486 0.929 . S
H473 C487 0.931 . S
H474 C489 0.930 . S
C475 H463 0.930 . S
C475 C476 1.399 . S
C475 C480 1.399 . S
C476 C475 1.399 . S
C476 C477 1.376 1_554 S
C477 H464 0.930 . S
C477 C476 1.376 1_556 S
C477 C478 1.388 . S
C478 H465 0.930 . S
C478 C477 1.388 . S
C478 C479 1.390 1_556 S
C479 C478 1.390 1_554 S
C479 C480 1.394 . S
C479 C485 1.465 . S
C480 C475 1.399 . S
C480 C479 1.394 . S
C480 C481 1.516 . S
C481 C480 1.516 . S
C481 C482 1.502 . S
C481 C483 1.561 . S
C481 C484 1.526 . S
C482 H466 0.959 . S
C482 H467 0.959 . S
C482 H468 0.961 . S
C482 C481 1.502 . S
C483 H469 0.960 . S
C483 H470 0.961 . S
C483 H471 0.959 . S
C483 C481 1.561 . S
C484 C481 1.526 . S
C484 C485 1.396 . S
C484 C489 1.390 . S
C485 C479 1.465 . S
C485 C484 1.396 . S
C485 C486 1.399 1_554 S
C486 H472 0.929 . S
C486 C485 1.399 1_556 S
C486 C487 1.385 . S
C487 H473 0.931 . S
C487 C486 1.385 . S
C487 C488 1.389 1_556 S
C488 C487 1.389 1_554 S
C488 C489 1.387 . S
C489 H474 0.930 . S
C489 C484 1.390 . S
C489 C488 1.387 . S
H490 C502 0.930 . S
H491 C504 0.930 . S
H492 C505 0.930 . S
H493 C509 0.959 . S
H494 C509 0.959 . S
H495 C509 0.961 . S
H496 C510 0.960 . S
H497 C510 0.961 . S
H498 C510 0.959 . S
H499 C513 0.929 . S
H500 C514 0.931 . S
H501 C516 0.930 . S
C502 H490 0.930 . S
C502 C503 1.399 . S
C502 C507 1.399 . S
C503 C502 1.399 . S
C503 C504 1.376 . S
C504 H491 0.930 . S
C504 C503 1.376 . S
C504 C505 1.388 . S
C505 H492 0.930 . S
C505 C504 1.388 . S
C505 C506 1.390 . S
C506 C505 1.390 . S
C506 C507 1.394 . S
C506 C512 1.465 . S
C507 C502 1.399 . S
C507 C506 1.394 . S
C507 C508 1.516 . S
C508 C507 1.516 . S
C508 C509 1.502 . S
C508 C510 1.561 . S
C508 C511 1.526 . S
C509 H493 0.959 . S
C509 H494 0.959 . S
C509 H495 0.961 . S
C509 C508 1.502 . S
C510 H496 0.960 . S
C510 H497 0.961 . S
C510 H498 0.959 . S
C510 C508 1.561 . S
C511 C508 1.526 . S
C511 C512 1.396 . S
C511 C516 1.390 . S
C512 C506 1.465 . S
C512 C511 1.396 . S
C512 C513 1.399 . S
C513 H499 0.929 . S
C513 C512 1.399 . S
C513 C514 1.385 . S
C514 H500 0.931 . S
C514 C513 1.385 . S
C514 C515 1.389 . S
C515 C514 1.389 . S
C515 C516 1.387 . S
C516 H501 0.930 . S
C516 C511 1.390 . S
C516 C515 1.387 . S
H517 C529 0.930 . S
H518 C531 0.930 . S
H519 C532 0.930 . S
H520 C536 0.959 . S
H521 C536 0.959 . S
H522 C536 0.961 . S
H523 C537 0.960 . S
H524 C537 0.961 . S
H525 C537 0.959 . S
H526 C540 0.929 . S
H527 C541 0.931 . S
H528 C543 0.930 . S
C529 H517 0.930 . S
C529 C530 1.399 . S
C529 C534 1.399 . S
C530 C529 1.399 . S
C530 C531 1.376 . S
C531 H518 0.930 . S
C531 C530 1.376 . S
C531 C532 1.388 . S
C532 H519 0.930 . S
C532 C531 1.388 . S
C532 C533 1.390 . S
C533 C532 1.390 . S
C533 C534 1.394 . S
C533 C539 1.465 . S
C534 C529 1.399 . S
C534 C533 1.394 . S
C534 C535 1.516 . S
C535 C534 1.516 . S
C535 C536 1.502 . S
C535 C537 1.561 . S
C535 C538 1.526 . S
C536 H520 0.959 . S
C536 H521 0.959 . S
C536 H522 0.961 . S
C536 C535 1.502 . S
C537 H523 0.960 . S
C537 H524 0.961 . S
C537 H525 0.959 . S
C537 C535 1.561 . S
C538 C535 1.526 . S
C538 C539 1.396 . S
C538 C543 1.390 . S
C539 C533 1.465 . S
C539 C538 1.396 . S
C539 C540 1.399 . S
C540 H526 0.929 . S
C540 C539 1.399 . S
C540 C541 1.385 . S
C541 H527 0.931 . S
C541 C540 1.385 . S
C541 C542 1.389 . S
C542 C541 1.389 . S
C542 C543 1.387 . S
C543 H528 0.930 . S
C543 C538 1.390 . S
C543 C542 1.387 . S
C125 C23 1.505 . S
C137 C9 1.488 . S
C152 C37 1.449 . S
C164 C51 1.475 . S
C179 C65 1.449 . S
C191 C79 1.485 . S
C206 C93 1.448 . S
C218 C107 1.479 . S
C233 C8 1.283 . S
C245 C50 1.324 . S
C260 C36 1.291 . S
C272 C22 1.318 . S
C287 C35 1.430 . S
C299 C21 1.455 . S
C314 C7 1.439 . S
C326 C49 1.454 . S
C341 C64 1.281 . S
C353 C106 1.326 . S
C368 C92 1.308 . S
C380 C78 1.265 . S
C395 C77 1.438 . S
C407 C91 1.454 . S
C422 C63 1.444 . S
C434 C105 1.430 . S
C449 C76 1.487 . S
C461 C6 1.540 . S
C476 C62 1.499 . S
C488 C20 1.531 . S
C503 C34 1.538 . S
C515 C104 1.488 . S
C530 C90 1.530 . S
C542 C48 1.495 . S
