# Generated by pormake.
# Topology dia-j, (6)-cn, num edge types: 1
# Building blocks:
#     Node 0, Type 0, BuildingBlock: OJICUG_clean_sbu_0, # of connection points: 6
#     Node 1, Type 0, BuildingBlock: OJICUG_clean_sbu_0, # of connection points: 6
#     Node 2, Type 0, BuildingBlock: OJICUG_clean_sbu_0, # of connection points: 6
#     Node 3, Type 0, BuildingBlock: OJICUG_clean_sbu_0, # of connection points: 6
#     Node 4, Type 0, BuildingBlock: OJICUG_clean_sbu_0, # of connection points: 6
#     Node 5, Type 0, BuildingBlock: OJICUG_clean_sbu_0, # of connection points: 6
#     Node 6, Type 0, BuildingBlock: OJICUG_clean_sbu_0, # of connection points: 6
#     Node 7, Type 0, BuildingBlock: OJICUG_clean_sbu_0, # of connection points: 6
#     Node 8, Type 0, BuildingBlock: OJICUG_clean_sbu_0, # of connection points: 6
#     Node 9, Type 0, BuildingBlock: OJICUG_clean_sbu_0, # of connection points: 6
#     Node 10, Type 0, BuildingBlock: OJICUG_clean_sbu_0, # of connection points: 6
#     Node 11, Type 0, BuildingBlock: OJICUG_clean_sbu_0, # of connection points: 6
#     Node 12, Type 0, BuildingBlock: OJICUG_clean_sbu_0, # of connection points: 6
#     Node 13, Type 0, BuildingBlock: OJICUG_clean_sbu_0, # of connection points: 6
#     Node 14, Type 0, BuildingBlock: OJICUG_clean_sbu_0, # of connection points: 6
#     Node 15, Type 0, BuildingBlock: OJICUG_clean_sbu_0, # of connection points: 6
#     Node 16, Type 0, BuildingBlock: OJICUG_clean_sbu_0, # of connection points: 6
#     Node 17, Type 0, BuildingBlock: OJICUG_clean_sbu_0, # of connection points: 6
#     Node 18, Type 0, BuildingBlock: OJICUG_clean_sbu_0, # of connection points: 6
#     Node 19, Type 0, BuildingBlock: OJICUG_clean_sbu_0, # of connection points: 6
#     Node 20, Type 0, BuildingBlock: OJICUG_clean_sbu_0, # of connection points: 6
#     Node 21, Type 0, BuildingBlock: OJICUG_clean_sbu_0, # of connection points: 6
#     Node 22, Type 0, BuildingBlock: OJICUG_clean_sbu_0, # of connection points: 6
#     Node 23, Type 0, BuildingBlock: OJICUG_clean_sbu_0, # of connection points: 6
#     Node 24, Type 0, BuildingBlock: OJICUG_clean_sbu_0, # of connection points: 6
#     Node 25, Type 0, BuildingBlock: OJICUG_clean_sbu_0, # of connection points: 6
#     Node 26, Type 0, BuildingBlock: OJICUG_clean_sbu_0, # of connection points: 6
#     Node 27, Type 0, BuildingBlock: OJICUG_clean_sbu_0, # of connection points: 6
#     Node 28, Type 0, BuildingBlock: OJICUG_clean_sbu_0, # of connection points: 6
#     Node 29, Type 0, BuildingBlock: OJICUG_clean_sbu_0, # of connection points: 6
#     Node 30, Type 0, BuildingBlock: OJICUG_clean_sbu_0, # of connection points: 6
#     Node 31, Type 0, BuildingBlock: OJICUG_clean_sbu_0, # of connection points: 6
#     Node 32, Type 0, BuildingBlock: OJICUG_clean_sbu_0, # of connection points: 6
#     Node 33, Type 0, BuildingBlock: OJICUG_clean_sbu_0, # of connection points: 6
#     Node 34, Type 0, BuildingBlock: OJICUG_clean_sbu_0, # of connection points: 6
#     Node 35, Type 0, BuildingBlock: OJICUG_clean_sbu_0, # of connection points: 6
#     Node 36, Type 0, BuildingBlock: OJICUG_clean_sbu_0, # of connection points: 6
#     Node 37, Type 0, BuildingBlock: OJICUG_clean_sbu_0, # of connection points: 6
#     Node 38, Type 0, BuildingBlock: OJICUG_clean_sbu_0, # of connection points: 6
#     Node 39, Type 0, BuildingBlock: OJICUG_clean_sbu_0, # of connection points: 6
#     Node 40, Type 0, BuildingBlock: OJICUG_clean_sbu_0, # of connection points: 6
#     Node 41, Type 0, BuildingBlock: OJICUG_clean_sbu_0, # of connection points: 6
#     Node 42, Type 0, BuildingBlock: OJICUG_clean_sbu_0, # of connection points: 6
#     Node 43, Type 0, BuildingBlock: OJICUG_clean_sbu_0, # of connection points: 6
#     Node 44, Type 0, BuildingBlock: OJICUG_clean_sbu_0, # of connection points: 6
#     Node 45, Type 0, BuildingBlock: OJICUG_clean_sbu_0, # of connection points: 6
#     Node 46, Type 0, BuildingBlock: OJICUG_clean_sbu_0, # of connection points: 6
#     Node 47, Type 0, BuildingBlock: OJICUG_clean_sbu_0, # of connection points: 6
#     Node 48, Type 0, BuildingBlock: OJICUG_clean_sbu_0, # of connection points: 6
#     Node 49, Type 0, BuildingBlock: OJICUG_clean_sbu_0, # of connection points: 6
#     Node 50, Type 0, BuildingBlock: OJICUG_clean_sbu_0, # of connection points: 6
#     Node 51, Type 0, BuildingBlock: OJICUG_clean_sbu_0, # of connection points: 6
#     Node 52, Type 0, BuildingBlock: OJICUG_clean_sbu_0, # of connection points: 6
#     Node 53, Type 0, BuildingBlock: OJICUG_clean_sbu_0, # of connection points: 6
#     Node 54, Type 0, BuildingBlock: OJICUG_clean_sbu_0, # of connection points: 6
#     Node 55, Type 0, BuildingBlock: OJICUG_clean_sbu_0, # of connection points: 6
#     Node 56, Type 0, BuildingBlock: OJICUG_clean_sbu_0, # of connection points: 6
#     Node 57, Type 0, BuildingBlock: OJICUG_clean_sbu_0, # of connection points: 6
#     Node 58, Type 0, BuildingBlock: OJICUG_clean_sbu_0, # of connection points: 6
#     Node 59, Type 0, BuildingBlock: OJICUG_clean_sbu_0, # of connection points: 6
#     Node 60, Type 0, BuildingBlock: OJICUG_clean_sbu_0, # of connection points: 6
#     Node 61, Type 0, BuildingBlock: OJICUG_clean_sbu_0, # of connection points: 6
#     Node 62, Type 0, BuildingBlock: OJICUG_clean_sbu_0, # of connection points: 6
#     Node 63, Type 0, BuildingBlock: OJICUG_clean_sbu_0, # of connection points: 6
#     Node 64, Type 0, BuildingBlock: OJICUG_clean_sbu_0, # of connection points: 6
#     Node 65, Type 0, BuildingBlock: OJICUG_clean_sbu_0, # of connection points: 6
#     Node 66, Type 0, BuildingBlock: OJICUG_clean_sbu_0, # of connection points: 6
#     Node 67, Type 0, BuildingBlock: OJICUG_clean_sbu_0, # of connection points: 6
#     Node 68, Type 0, BuildingBlock: OJICUG_clean_sbu_0, # of connection points: 6
#     Node 69, Type 0, BuildingBlock: OJICUG_clean_sbu_0, # of connection points: 6
#     Node 70, Type 0, BuildingBlock: OJICUG_clean_sbu_0, # of connection points: 6
#     Node 71, Type 0, BuildingBlock: OJICUG_clean_sbu_0, # of connection points: 6
#     Node 72, Type 0, BuildingBlock: OJICUG_clean_sbu_0, # of connection points: 6
#     Node 73, Type 0, BuildingBlock: OJICUG_clean_sbu_0, # of connection points: 6
#     Node 74, Type 0, BuildingBlock: OJICUG_clean_sbu_0, # of connection points: 6
#     Node 75, Type 0, BuildingBlock: OJICUG_clean_sbu_0, # of connection points: 6
#     Node 76, Type 0, BuildingBlock: OJICUG_clean_sbu_0, # of connection points: 6
#     Node 77, Type 0, BuildingBlock: OJICUG_clean_sbu_0, # of connection points: 6
#     Node 78, Type 0, BuildingBlock: OJICUG_clean_sbu_0, # of connection points: 6
#     Node 79, Type 0, BuildingBlock: OJICUG_clean_sbu_0, # of connection points: 6
#     Node 80, Type 0, BuildingBlock: OJICUG_clean_sbu_0, # of connection points: 6
#     Node 81, Type 0, BuildingBlock: OJICUG_clean_sbu_0, # of connection points: 6
#     Node 82, Type 0, BuildingBlock: OJICUG_clean_sbu_0, # of connection points: 6
#     Node 83, Type 0, BuildingBlock: OJICUG_clean_sbu_0, # of connection points: 6
#     Node 84, Type 0, BuildingBlock: OJICUG_clean_sbu_0, # of connection points: 6
#     Node 85, Type 0, BuildingBlock: OJICUG_clean_sbu_0, # of connection points: 6
#     Node 86, Type 0, BuildingBlock: OJICUG_clean_sbu_0, # of connection points: 6
#     Node 87, Type 0, BuildingBlock: OJICUG_clean_sbu_0, # of connection points: 6
#     Node 88, Type 0, BuildingBlock: OJICUG_clean_sbu_0, # of connection points: 6
#     Node 89, Type 0, BuildingBlock: OJICUG_clean_sbu_0, # of connection points: 6
#     Node 90, Type 0, BuildingBlock: OJICUG_clean_sbu_0, # of connection points: 6
#     Node 91, Type 0, BuildingBlock: OJICUG_clean_sbu_0, # of connection points: 6
#     Node 92, Type 0, BuildingBlock: OJICUG_clean_sbu_0, # of connection points: 6
#     Node 93, Type 0, BuildingBlock: OJICUG_clean_sbu_0, # of connection points: 6
#     Node 94, Type 0, BuildingBlock: OJICUG_clean_sbu_0, # of connection points: 6
#     Node 95, Type 0, BuildingBlock: OJICUG_clean_sbu_0, # of connection points: 6
#     Edge 96, Type (0, 0), None
#     Edge 97, Type (0, 0), None
#     Edge 98, Type (0, 0), None
#     Edge 99, Type (0, 0), None
#     Edge 100, Type (0, 0), None
#     Edge 101, Type (0, 0), None
#     Edge 102, Type (0, 0), None
#     Edge 103, Type (0, 0), None
#     Edge 104, Type (0, 0), None
#     Edge 105, Type (0, 0), None
#     Edge 106, Type (0, 0), None
#     Edge 107, Type (0, 0), None
#     Edge 108, Type (0, 0), None
#     Edge 109, Type (0, 0), None
#     Edge 110, Type (0, 0), None
#     Edge 111, Type (0, 0), None
#     Edge 112, Type (0, 0), None
#     Edge 113, Type (0, 0), None
#     Edge 114, Type (0, 0), None
#     Edge 115, Type (0, 0), None
#     Edge 116, Type (0, 0), None
#     Edge 117, Type (0, 0), None
#     Edge 118, Type (0, 0), None
#     Edge 119, Type (0, 0), None
#     Edge 120, Type (0, 0), None
#     Edge 121, Type (0, 0), None
#     Edge 122, Type (0, 0), None
#     Edge 123, Type (0, 0), None
#     Edge 124, Type (0, 0), None
#     Edge 125, Type (0, 0), None
#     Edge 126, Type (0, 0), None
#     Edge 127, Type (0, 0), None
#     Edge 128, Type (0, 0), None
#     Edge 129, Type (0, 0), None
#     Edge 130, Type (0, 0), None
#     Edge 131, Type (0, 0), None
#     Edge 132, Type (0, 0), None
#     Edge 133, Type (0, 0), None
#     Edge 134, Type (0, 0), None
#     Edge 135, Type (0, 0), None
#     Edge 136, Type (0, 0), None
#     Edge 137, Type (0, 0), None
#     Edge 138, Type (0, 0), None
#     Edge 139, Type (0, 0), None
#     Edge 140, Type (0, 0), None
#     Edge 141, Type (0, 0), None
#     Edge 142, Type (0, 0), None
#     Edge 143, Type (0, 0), None
#     Edge 144, Type (0, 0), None
#     Edge 145, Type (0, 0), None
#     Edge 146, Type (0, 0), None
#     Edge 147, Type (0, 0), None
#     Edge 148, Type (0, 0), None
#     Edge 149, Type (0, 0), None
#     Edge 150, Type (0, 0), None
#     Edge 151, Type (0, 0), None
#     Edge 152, Type (0, 0), None
#     Edge 153, Type (0, 0), None
#     Edge 154, Type (0, 0), None
#     Edge 155, Type (0, 0), None
#     Edge 156, Type (0, 0), None
#     Edge 157, Type (0, 0), None
#     Edge 158, Type (0, 0), None
#     Edge 159, Type (0, 0), None
#     Edge 160, Type (0, 0), None
#     Edge 161, Type (0, 0), None
#     Edge 162, Type (0, 0), None
#     Edge 163, Type (0, 0), None
#     Edge 164, Type (0, 0), None
#     Edge 165, Type (0, 0), None
#     Edge 166, Type (0, 0), None
#     Edge 167, Type (0, 0), None
#     Edge 168, Type (0, 0), None
#     Edge 169, Type (0, 0), None
#     Edge 170, Type (0, 0), None
#     Edge 171, Type (0, 0), None
#     Edge 172, Type (0, 0), None
#     Edge 173, Type (0, 0), None
#     Edge 174, Type (0, 0), None
#     Edge 175, Type (0, 0), None
#     Edge 176, Type (0, 0), None
#     Edge 177, Type (0, 0), None
#     Edge 178, Type (0, 0), None
#     Edge 179, Type (0, 0), None
#     Edge 180, Type (0, 0), None
#     Edge 181, Type (0, 0), None
#     Edge 182, Type (0, 0), None
#     Edge 183, Type (0, 0), None
#     Edge 184, Type (0, 0), None
#     Edge 185, Type (0, 0), None
#     Edge 186, Type (0, 0), None
#     Edge 187, Type (0, 0), None
#     Edge 188, Type (0, 0), None
#     Edge 189, Type (0, 0), None
#     Edge 190, Type (0, 0), None
#     Edge 191, Type (0, 0), None
#     Edge 192, Type (0, 0), None
#     Edge 193, Type (0, 0), None
#     Edge 194, Type (0, 0), None
#     Edge 195, Type (0, 0), None
#     Edge 196, Type (0, 0), None
#     Edge 197, Type (0, 0), None
#     Edge 198, Type (0, 0), None
#     Edge 199, Type (0, 0), None
#     Edge 200, Type (0, 0), None
#     Edge 201, Type (0, 0), None
#     Edge 202, Type (0, 0), None
#     Edge 203, Type (0, 0), None
#     Edge 204, Type (0, 0), None
#     Edge 205, Type (0, 0), None
#     Edge 206, Type (0, 0), None
#     Edge 207, Type (0, 0), None
#     Edge 208, Type (0, 0), None
#     Edge 209, Type (0, 0), None
#     Edge 210, Type (0, 0), None
#     Edge 211, Type (0, 0), None
#     Edge 212, Type (0, 0), None
#     Edge 213, Type (0, 0), None
#     Edge 214, Type (0, 0), None
#     Edge 215, Type (0, 0), None
#     Edge 216, Type (0, 0), None
#     Edge 217, Type (0, 0), None
#     Edge 218, Type (0, 0), None
#     Edge 219, Type (0, 0), None
#     Edge 220, Type (0, 0), None
#     Edge 221, Type (0, 0), None
#     Edge 222, Type (0, 0), None
#     Edge 223, Type (0, 0), None
#     Edge 224, Type (0, 0), None
#     Edge 225, Type (0, 0), None
#     Edge 226, Type (0, 0), None
#     Edge 227, Type (0, 0), None
#     Edge 228, Type (0, 0), None
#     Edge 229, Type (0, 0), None
#     Edge 230, Type (0, 0), None
#     Edge 231, Type (0, 0), None
#     Edge 232, Type (0, 0), None
#     Edge 233, Type (0, 0), None
#     Edge 234, Type (0, 0), None
#     Edge 235, Type (0, 0), None
#     Edge 236, Type (0, 0), None
#     Edge 237, Type (0, 0), None
#     Edge 238, Type (0, 0), None
#     Edge 239, Type (0, 0), None
#     Edge 240, Type (0, 0), None
#     Edge 241, Type (0, 0), None
#     Edge 242, Type (0, 0), None
#     Edge 243, Type (0, 0), None
#     Edge 244, Type (0, 0), None
#     Edge 245, Type (0, 0), None
#     Edge 246, Type (0, 0), None
#     Edge 247, Type (0, 0), None
#     Edge 248, Type (0, 0), None
#     Edge 249, Type (0, 0), None
#     Edge 250, Type (0, 0), None
#     Edge 251, Type (0, 0), None
#     Edge 252, Type (0, 0), None
#     Edge 253, Type (0, 0), None
#     Edge 254, Type (0, 0), None
#     Edge 255, Type (0, 0), None
#     Edge 256, Type (0, 0), None
#     Edge 257, Type (0, 0), None
#     Edge 258, Type (0, 0), None
#     Edge 259, Type (0, 0), None
#     Edge 260, Type (0, 0), None
#     Edge 261, Type (0, 0), None
#     Edge 262, Type (0, 0), None
#     Edge 263, Type (0, 0), None
#     Edge 264, Type (0, 0), None
#     Edge 265, Type (0, 0), None
#     Edge 266, Type (0, 0), None
#     Edge 267, Type (0, 0), None
#     Edge 268, Type (0, 0), None
#     Edge 269, Type (0, 0), None
#     Edge 270, Type (0, 0), None
#     Edge 271, Type (0, 0), None
#     Edge 272, Type (0, 0), None
#     Edge 273, Type (0, 0), None
#     Edge 274, Type (0, 0), None
#     Edge 275, Type (0, 0), None
#     Edge 276, Type (0, 0), None
#     Edge 277, Type (0, 0), None
#     Edge 278, Type (0, 0), None
#     Edge 279, Type (0, 0), None
#     Edge 280, Type (0, 0), None
#     Edge 281, Type (0, 0), None
#     Edge 282, Type (0, 0), None
#     Edge 283, Type (0, 0), None
#     Edge 284, Type (0, 0), None
#     Edge 285, Type (0, 0), None
#     Edge 286, Type (0, 0), None
#     Edge 287, Type (0, 0), None
#     Edge 288, Type (0, 0), None
#     Edge 289, Type (0, 0), None
#     Edge 290, Type (0, 0), None
#     Edge 291, Type (0, 0), None
#     Edge 292, Type (0, 0), None
#     Edge 293, Type (0, 0), None
#     Edge 294, Type (0, 0), None
#     Edge 295, Type (0, 0), None
#     Edge 296, Type (0, 0), None
#     Edge 297, Type (0, 0), None
#     Edge 298, Type (0, 0), None
#     Edge 299, Type (0, 0), None
#     Edge 300, Type (0, 0), None
#     Edge 301, Type (0, 0), None
#     Edge 302, Type (0, 0), None
#     Edge 303, Type (0, 0), None
#     Edge 304, Type (0, 0), None
#     Edge 305, Type (0, 0), None
#     Edge 306, Type (0, 0), None
#     Edge 307, Type (0, 0), None
#     Edge 308, Type (0, 0), None
#     Edge 309, Type (0, 0), None
#     Edge 310, Type (0, 0), None
#     Edge 311, Type (0, 0), None
#     Edge 312, Type (0, 0), None
#     Edge 313, Type (0, 0), None
#     Edge 314, Type (0, 0), None
#     Edge 315, Type (0, 0), None
#     Edge 316, Type (0, 0), None
#     Edge 317, Type (0, 0), None
#     Edge 318, Type (0, 0), None
#     Edge 319, Type (0, 0), None
#     Edge 320, Type (0, 0), None
#     Edge 321, Type (0, 0), None
#     Edge 322, Type (0, 0), None
#     Edge 323, Type (0, 0), None
#     Edge 324, Type (0, 0), None
#     Edge 325, Type (0, 0), None
#     Edge 326, Type (0, 0), None
#     Edge 327, Type (0, 0), None
#     Edge 328, Type (0, 0), None
#     Edge 329, Type (0, 0), None
#     Edge 330, Type (0, 0), None
#     Edge 331, Type (0, 0), None
#     Edge 332, Type (0, 0), None
#     Edge 333, Type (0, 0), None
#     Edge 334, Type (0, 0), None
#     Edge 335, Type (0, 0), None
#     Edge 336, Type (0, 0), None
#     Edge 337, Type (0, 0), None
#     Edge 338, Type (0, 0), None
#     Edge 339, Type (0, 0), None
#     Edge 340, Type (0, 0), None
#     Edge 341, Type (0, 0), None
#     Edge 342, Type (0, 0), None
#     Edge 343, Type (0, 0), None
#     Edge 344, Type (0, 0), None
#     Edge 345, Type (0, 0), None
#     Edge 346, Type (0, 0), None
#     Edge 347, Type (0, 0), None
#     Edge 348, Type (0, 0), None
#     Edge 349, Type (0, 0), None
#     Edge 350, Type (0, 0), None
#     Edge 351, Type (0, 0), None
#     Edge 352, Type (0, 0), None
#     Edge 353, Type (0, 0), None
#     Edge 354, Type (0, 0), None
#     Edge 355, Type (0, 0), None
#     Edge 356, Type (0, 0), None
#     Edge 357, Type (0, 0), None
#     Edge 358, Type (0, 0), None
#     Edge 359, Type (0, 0), None
#     Edge 360, Type (0, 0), None
#     Edge 361, Type (0, 0), None
#     Edge 362, Type (0, 0), None
#     Edge 363, Type (0, 0), None
#     Edge 364, Type (0, 0), None
#     Edge 365, Type (0, 0), None
#     Edge 366, Type (0, 0), None
#     Edge 367, Type (0, 0), None
#     Edge 368, Type (0, 0), None
#     Edge 369, Type (0, 0), None
#     Edge 370, Type (0, 0), None
#     Edge 371, Type (0, 0), None
#     Edge 372, Type (0, 0), None
#     Edge 373, Type (0, 0), None
#     Edge 374, Type (0, 0), None
#     Edge 375, Type (0, 0), None
#     Edge 376, Type (0, 0), None
#     Edge 377, Type (0, 0), None
#     Edge 378, Type (0, 0), None
#     Edge 379, Type (0, 0), None
#     Edge 380, Type (0, 0), None
#     Edge 381, Type (0, 0), None
#     Edge 382, Type (0, 0), None
#     Edge 383, Type (0, 0), None
# Relax obj value: 0.563
# Max RMSD: 0.245
# Mean RMSD: 0.245
data_MOF--net-dia-j--node1-OJICUG_clean_sbu_0--edge1-none
_symmetry_space_group_name_H-M    P1
_symmetry_Int_Tables_number       1
_symmetry_cell_setting            triclinic
loop_
_symmetry_equiv_pos_as_xyz
'x, y, z'
_cell_length_a     40.777989
_cell_length_b     40.779744
_cell_length_c     40.777485
_cell_angle_alpha  89.98658
_cell_angle_beta   90.022181
_cell_angle_gamma 89.960494
loop_
_atom_site_label
_atom_site_type_symbol
_atom_site_fract_x
_atom_site_fract_y
_atom_site_fract_z
_atom_type_partial_charge
Sc0 Sc 0.01103 0.00739 0.39102 0.0
Sc1 Sc 0.06398 0.06516 0.36031 0.0
Sc2 Sc 0.05684 0.05691 0.44458 0.0
O3 O 0.04283 0.0434 0.39871 0.0
C4 C 0.97896 0.04423 0.44948 0.0
C5 C -0.00577 0.05721 0.33122 0.0
C6 C 0.04145 0.12262 0.41401 0.0
C7 C 0.06181 -0.00815 0.33548 0.0
C8 C 0.04439 0.9802 0.45365 0.0
C9 C 0.12229 0.04243 0.41369 0.0
O10 O 0.97478 0.02832 0.42296 0.0
O11 O 0.01976 0.07529 0.33093 0.0
O12 O 0.05846 0.10865 0.43531 0.0
O13 O 0.04717 0.98377 0.36171 0.0
O14 O 0.05799 0.00714 0.46047 0.0
O15 O 0.10966 0.04244 0.38468 0.0
O16 O 0.02588 0.97627 0.42936 0.0
O17 O 0.06988 0.02146 0.32931 0.0
O18 O 0.10857 0.06014 0.43462 0.0
O19 O -0.00886 0.03357 0.35113 0.0
O20 O 0.00652 0.05525 0.45886 0.0
O21 O 0.04256 0.11082 0.38481 0.0
Sc22 Sc -0.00405 0.30593 0.69517 0.0
Sc23 Sc -0.01249 0.31337 0.61104 0.0
Sc24 Sc 0.0442 0.25845 0.64174 0.0
O25 O 0.00939 0.29187 0.64927 0.0
C26 C 0.07351 0.29332 0.70283 0.0
C27 C 0.01018 0.37156 0.66413 0.0
C28 C 0.06022 0.30978 0.58512 0.0
C29 C 0.92994 0.29112 0.66483 0.0
C30 C 0.00713 0.22816 0.70131 0.0
C31 C -0.00717 0.24215 0.58357 0.0
O32 O 0.04628 0.3063 0.71025 0.0
O33 O 0.00995 0.35908 0.63512 0.0
O34 O 0.06761 0.29125 0.60905 0.0
O35 O 0.94412 0.30799 0.6861 0.0
O36 O 0.02388 0.22372 0.67547 0.0
O37 O 0.97745 0.26934 0.58164 0.0
O38 O -0.00373 0.25588 0.71015 0.0
O39 O 0.9418 0.29199 0.63563 0.0
O40 O 0.01582 0.23748 0.60395 0.0
O41 O -0.00713 0.35766 0.68522 0.0
O42 O 0.07726 0.27483 0.67838 0.0
O43 O 0.03117 0.32044 0.58033 0.0
Sc44 Sc 0.74501 0.24398 0.94536 0.0
Sc45 Sc 0.73689 0.23671 0.86106 0.0
Sc46 Sc 0.79018 0.29432 0.89187 0.0
O47 O 0.75838 0.2582 0.89948 0.0
C48 C 0.75662 0.32091 0.95457 0.0
C49 C 0.67922 0.25877 0.91509 0.0
C50 C 0.7394 0.30995 0.83598 0.0
C51 C 0.75966 0.17856 0.91381 0.0
C52 C 0.82279 0.25719 0.9502 0.0
C53 C 0.80725 0.24382 0.83295 0.0
O54 O 0.74425 0.2935 0.96188 0.0
O55 O 0.69138 0.259 0.8859 0.0
O56 O 0.75482 0.31795 0.86176 0.0
O57 O 0.74302 0.19237 0.93547 0.0
O58 O 0.82643 0.27407 0.92425 0.0
O59 O 0.78109 0.22669 0.8319 0.0
O60 O 0.7955 0.24529 0.95932 0.0
O61 O 0.75823 0.19068 0.88478 0.0
O62 O 0.8107 0.26752 0.85273 0.0
O63 O 0.69323 0.24092 0.93575 0.0
O64 O 0.77425 0.32551 0.92972 0.0
O65 O 0.73071 0.28046 0.83018 0.0
Sc66 Sc 0.75625 0.04506 0.13996 0.0
Sc67 Sc 0.81219 -0.01142 0.10999 0.0
Sc68 Sc 0.80402 -0.0035 0.19351 0.0
O69 O 0.79033 0.01061 0.14769 0.0
C70 C 0.7926 0.07438 0.20039 0.0
C71 C 0.80834 0.06054 0.0829 0.0
C72 C 0.87012 0.01117 0.1634 0.0
C73 C 0.73993 -0.00724 0.08354 0.0
C74 C 0.72639 0.00866 0.20036 0.0
C75 C 0.78955 0.93047 0.16306 0.0
O76 O 0.77528 0.07888 0.17504 0.0
O77 O 0.82148 0.03226 0.08016 0.0
O78 O 0.85596 -0.0059 0.18449 0.0
O79 O 0.73367 0.01476 0.10462 0.0
O80 O 0.75372 -0.00385 0.20813 0.0
O81 O 0.78991 0.94284 0.13405 0.0
O82 O 0.72247 0.02699 0.17564 0.0
O83 O 0.76825 0.97978 0.08036 0.0
O84 O 0.80671 0.94457 0.18413 0.0
O85 O 0.78627 0.06694 0.10387 0.0
O86 O 0.80405 0.04669 0.20856 0.0
O87 O 0.85795 0.01068 0.13428 0.0
Sc88 Sc 0.00879 0.29385 0.90765 0.0
Sc89 Sc 0.06305 0.23662 0.93859 0.0
Sc90 Sc 0.05591 0.24514 0.85437 0.0
O91 O 0.04213 0.25896 0.90028 0.0
C92 C 0.97863 0.25705 0.84753 0.0
C93 C -0.00869 0.24218 0.96466 0.0
C94 C 0.04065 0.17927 0.88453 0.0
C95 C 0.05912 0.30869 0.96608 0.0
C96 C 0.04404 0.32312 0.84715 0.0
C97 C 0.12143 0.25925 0.88579 0.0
O98 O 0.97468 0.27496 0.87261 0.0
O99 O 0.01878 0.2275 0.96779 0.0
O100 O 0.05802 0.19329 0.86354 0.0
O101 O 0.03989 0.31613 0.94271 0.0
O102 O 0.05579 0.29546 0.83912 0.0
O103 O 0.10902 0.25865 0.91481 0.0
O104 O 0.02685 0.3275 0.87243 0.0
O105 O 0.0709 0.2799 0.96975 0.0
O106 O 0.10758 0.24221 0.86444 0.0
O107 O -0.01334 0.26449 0.94356 0.0
O108 O 0.00601 0.24511 0.83923 0.0
O109 O 0.04112 0.19129 0.91368 0.0
Sc110 Sc 0.80548 0.30682 0.10428 0.0
Sc111 Sc 0.81392 0.31451 0.18865 0.0
Sc112 Sc 0.76089 0.25653 0.15816 0.0
O113 O 0.79223 0.29294 0.15029 0.0
C114 C 0.72727 0.29347 0.10028 0.0
C115 C 0.79136 0.3724 0.13584 0.0
C116 C 0.74476 0.30608 0.2186 0.0
C117 C 0.87121 0.2918 0.13446 0.0
C118 C 0.79376 0.23032 0.09458 0.0
C119 C 0.81207 0.24121 0.21335 0.0
O120 O 0.75465 0.30519 0.09092 0.0
O121 O 0.79271 0.36053 0.16496 0.0
O122 O 0.7414 0.28242 0.19866 0.0
O123 O 0.85728 0.30943 0.11352 0.0
O124 O 0.77595 0.22588 0.11937 0.0
O125 O 0.82002 0.27082 0.21951 0.0
O126 O 0.80642 0.25756 0.0874 0.0
O127 O 0.85921 0.29207 0.16371 0.0
O128 O 0.79774 0.23309 0.18696 0.0
O129 O 0.80802 0.35839 0.11435 0.0
O130 O 0.7237 0.27701 0.12659 0.0
O131 O 0.77008 0.32444 0.21839 0.0
Sc132 Sc 0.74551 0.05521 0.35297 0.0
Sc133 Sc 0.73838 0.0633 0.43728 0.0
Sc134 Sc 0.79274 0.00624 0.40594 0.0
O135 O 0.75952 0.04139 0.3988 0.0
C136 C 0.75675 0.97732 0.3454 0.0
C137 C 0.68 0.04097 0.38432 0.0
C138 C 0.74217 -0.00933 0.46346 0.0
C139 C 0.75986 0.12125 0.38371 0.0
C140 C 0.82353 0.04385 0.34669 0.0
C141 C 0.80986 0.05741 0.46385 0.0
O142 O 0.74485 0.00499 0.33763 0.0
O143 O 0.69241 0.04134 0.41336 0.0
O144 O 0.7605 0.98314 0.43945 0.0
O145 O 0.74303 0.10698 0.36248 0.0
O146 O 0.82763 0.02606 0.37187 0.0
O147 O 0.78272 0.07278 0.46637 0.0
O148 O 0.79581 0.05519 0.33815 0.0
O149 O 0.75931 0.10923 0.41284 0.0
O150 O 0.81423 0.0347 0.44312 0.0
O151 O 0.69388 0.05811 0.36305 0.0
O152 O 0.77514 0.97315 0.36988 0.0
O153 O 0.7313 0.01968 0.46801 0.0
Sc154 Sc 0.04343 0.04239 0.65717 0.0
Sc155 Sc -0.01243 -0.01305 0.68812 0.0
Sc156 Sc -0.00365 -0.00611 0.60357 0.0
O157 O 0.00956 0.00813 0.64966 0.0
C158 C 0.00735 0.07104 0.59602 0.0
C159 C -0.00843 0.05911 0.71421 0.0
C160 C 0.93028 0.00849 0.63364 0.0
C161 C 0.05937 -0.00803 0.71559 0.0
C162 C 0.07418 0.00695 0.59718 0.0
C163 C 0.0108 0.92881 0.63549 0.0
O164 O 0.02449 0.0755 0.62149 0.0
O165 O 0.97825 0.03102 0.71775 0.0
O166 O 0.94456 -0.00881 0.61273 0.0
O167 O 0.06571 0.01254 0.6931 0.0
O168 O 0.0468 -0.00526 0.58877 0.0
O169 O 0.00978 0.94117 0.66448 0.0
O170 O 0.07794 0.02427 0.62255 0.0
O171 O 0.03112 0.9789 0.71891 0.0
O172 O -0.00621 0.9424 0.61394 0.0
O173 O 0.013 0.06471 0.69241 0.0
O174 O -0.00403 0.04346 0.58763 0.0
O175 O 0.94207 0.00819 0.66291 0.0
Sc176 Sc 0.4454 0.05545 0.05653 0.0
Sc177 Sc 0.36104 0.06327 0.06402 0.0
Sc178 Sc 0.39196 0.00941 0.00681 0.0
O179 O 0.39947 0.04192 0.04236 0.0
C180 C 0.45399 0.04358 0.97916 0.0
C181 C 0.41482 0.12107 0.04188 0.0
C182 C 0.33509 0.06015 -0.00888 0.0
C183 C 0.41421 0.04068 0.12208 0.0
C184 C 0.45104 0.97792 0.0441 0.0
C185 C 0.33348 -0.00759 0.05767 0.0
O186 O 0.4615 0.05583 0.00667 0.0
O187 O 0.38569 0.10882 0.04172 0.0
O188 O 0.35987 0.043 0.98327 0.0
O189 O 0.43573 0.05746 0.10821 0.0
O190 O 0.42535 0.97409 0.02692 0.0
O191 O 0.33171 0.01913 0.07386 0.0
O192 O 0.45993 0.00528 0.05583 0.0
O193 O 0.38516 0.04179 0.10989 0.0
O194 O 0.35378 -0.01159 0.0345 0.0
O195 O 0.43556 0.10715 0.05965 0.0
O196 O 0.42902 0.02603 0.97467 0.0
O197 O 0.3301 0.07007 0.02039 0.0
Sc198 Sc 0.0413 0.643 0.25707 0.0
Sc199 Sc -0.01331 0.61198 0.3136 0.0
Sc200 Sc -0.00639 0.69634 0.30547 0.0
O201 O 0.00782 0.6504 0.29179 0.0
C202 C 0.07109 0.70305 0.29413 0.0
C203 C 0.05827 0.58503 0.30841 0.0
C204 C 0.00845 0.66592 0.3714 0.0
C205 C -0.00894 0.58514 0.24121 0.0
C206 C 0.00594 0.70387 0.22783 0.0
C207 C 0.92838 0.66519 0.29078 0.0
O208 O 0.07547 0.67747 0.27699 0.0
O209 O 0.03092 0.58254 0.32344 0.0
O210 O -0.00868 0.68705 0.35728 0.0
O211 O 0.00964 0.60902 0.23381 0.0
O212 O -0.0065 0.71163 0.25524 0.0
O213 O 0.94102 0.63622 0.29094 0.0
O214 O 0.02394 0.67906 0.22384 0.0
O215 O 0.97968 0.58094 0.27008 0.0
O216 O 0.94201 0.68625 0.30832 0.0
O217 O 0.06289 0.60592 0.28587 0.0
O218 O 0.04348 0.71161 0.30541 0.0
O219 O 0.00801 0.6368 0.35929 0.0
Sc220 Sc 0.3554 0.24488 0.55569 0.0
Sc221 Sc 0.43961 0.23778 0.56437 0.0
Sc222 Sc 0.40876 0.29208 0.50722 0.0
O223 O 0.40128 0.25897 0.54228 0.0
C224 C 0.34776 0.25721 0.47808 0.0
C225 C 0.38687 0.17941 0.54165 0.0
C226 C 0.46596 0.24139 0.49174 0.0
C227 C 0.38555 0.26007 0.62167 0.0
C228 C 0.34897 0.32247 0.54411 0.0
C229 C 0.4667 0.30888 0.5587 0.0
O230 O 0.34031 0.2444 0.50538 0.0
O231 O 0.41584 0.19195 0.54191 0.0
O232 O 0.44156 0.25913 0.48395 0.0
O233 O 0.36435 0.24307 0.60753 0.0
O234 O 0.37485 0.32685 0.52737 0.0
O235 O 0.46868 0.28194 0.57447 0.0
O236 O 0.34017 0.29482 0.55512 0.0
O237 O 0.41479 0.25917 0.60992 0.0
O238 O 0.44639 0.31311 0.53557 0.0
O239 O 0.36571 0.19323 0.55897 0.0
O240 O 0.37227 0.27554 0.47421 0.0
O241 O 0.47071 0.23104 0.52092 0.0
Sc242 Sc 0.80623 0.60556 0.80492 0.0
Sc243 Sc 0.81339 0.68953 0.81324 0.0
Sc244 Sc 0.75867 0.65874 0.75639 0.0
O245 O 0.79212 0.65135 0.79122 0.0
C246 C 0.7938 0.59798 0.72707 0.0
C247 C 0.87164 0.63656 0.79016 0.0
C248 C 0.80917 0.71641 0.74083 0.0
C249 C 0.79133 0.63565 0.87107 0.0
C250 C 0.72867 0.59895 0.79369 0.0
C251 C 0.74197 0.71635 0.80807 0.0
O252 O 0.80629 0.59045 0.75453 0.0
O253 O 0.85905 0.66555 0.79041 0.0
O254 O 0.7906 0.69257 0.73331 0.0
O255 O 0.80843 0.61457 0.85687 0.0
O256 O 0.7243 0.62432 0.77622 0.0
O257 O 0.76927 0.71878 0.82318 0.0
O258 O 0.75627 0.59057 0.80507 0.0
O259 O 0.79178 0.66477 0.85893 0.0
O260 O 0.73736 0.69574 0.7853 0.0
O261 O 0.85795 0.6155 0.80765 0.0
O262 O 0.77573 0.62271 0.72298 0.0
O263 O 0.82039 0.72064 0.76978 0.0
Sc264 Sc 0.44668 0.2437 0.24687 0.0
Sc265 Sc 0.36206 0.23697 0.23814 0.0
Sc266 Sc 0.39322 0.29247 0.29384 0.0
O267 O 0.40062 0.25815 0.25999 0.0
C268 C 0.45336 0.257 0.32453 0.0
C269 C 0.41468 0.17868 0.26122 0.0
C270 C 0.33528 0.24189 0.31017 0.0
C271 C 0.41641 0.25836 0.18086 0.0
C272 C 0.45421 0.32095 0.25766 0.0
C273 C 0.33565 0.30903 0.24231 0.0
O274 O 0.46152 0.24433 0.29729 0.0
O275 O 0.38572 0.19115 0.26034 0.0
O276 O 0.35795 0.26223 0.31656 0.0
O277 O 0.4374 0.24112 0.19511 0.0
O278 O 0.42848 0.32568 0.27434 0.0
O279 O 0.33235 0.28105 0.22869 0.0
O280 O 0.46277 0.29322 0.24672 0.0
O281 O 0.38712 0.25796 0.19256 0.0
O282 O 0.35735 0.31448 0.26389 0.0
O283 O 0.43617 0.19223 0.24414 0.0
O284 O 0.42832 0.27481 0.3281 0.0
O285 O 0.33154 0.22917 0.28181 0.0
Sc286 Sc 0.80587 0.69536 0.49623 0.0
Sc287 Sc 0.81304 0.61151 0.48777 0.0
Sc288 Sc 0.75844 0.64229 0.54479 0.0
O289 O 0.79176 0.64965 0.50986 0.0
C290 C 0.79352 0.70309 0.57407 0.0
C291 C 0.87134 0.6643 0.51102 0.0
C292 C 0.80924 0.58491 0.56027 0.0
C293 C 0.79068 0.66536 0.43004 0.0
C294 C 0.72821 0.7019 0.50739 0.0
C295 C 0.74184 0.58451 0.49316 0.0
O296 O 0.80617 0.71042 0.54666 0.0
O297 O 0.85872 0.63535 0.51073 0.0
O298 O 0.79092 0.60894 0.56792 0.0
O299 O 0.80785 0.6864 0.44422 0.0
O300 O 0.7238 0.67648 0.52477 0.0
O301 O 0.76898 0.5823 0.47776 0.0
O302 O 0.75586 0.71029 0.49618 0.0
O303 O 0.79121 0.63623 0.44213 0.0
O304 O 0.73736 0.60499 0.51609 0.0
O305 O 0.85765 0.6854 0.49352 0.0
O306 O 0.77519 0.67859 0.57809 0.0
O307 O 0.82004 0.58046 0.53122 0.0
Sc308 Sc 0.40828 0.0083 0.79432 0.0
Sc309 Sc 0.43924 0.06331 0.73794 0.0
Sc310 Sc 0.35498 0.05602 0.74612 0.0
O311 O 0.40088 0.04195 0.75973 0.0
C312 C 0.34829 0.97847 0.7575 0.0
C313 C 0.46622 -0.00815 0.74299 0.0
C314 C 0.38543 0.04085 0.68034 0.0
C315 C 0.46521 0.05962 0.81064 0.0
C316 C 0.34748 0.04353 0.82371 0.0
C317 C 0.38623 0.12158 0.76028 0.0
O318 O 0.37404 0.974 0.77435 0.0
O319 O 0.46875 0.01932 0.72824 0.0
O320 O 0.36418 0.05793 0.69433 0.0
O321 O 0.4419 0.04017 0.81753 0.0
O322 O 0.33988 0.0563 0.7964 0.0
O323 O 0.41523 0.10912 0.76004 0.0
O324 O 0.37213 0.0253 0.82759 0.0
O325 O 0.46974 0.07092 0.78177 0.0
O326 O 0.36512 0.1077 0.74298 0.0
O327 O 0.4454 -0.01304 0.76551 0.0
O328 O 0.33962 0.00615 0.74645 0.0
O329 O 0.41462 0.04168 0.6923 0.0
Sc330 Sc 0.04204 0.65763 0.04385 0.0
Sc331 Sc -0.01331 0.68872 -0.01211 0.0
Sc332 Sc -0.00618 0.60423 -0.0038 0.0
O333 O 0.00793 0.65024 0.00974 0.0
C334 C 0.07101 0.59677 0.00749 0.0
C335 C 0.0588 0.71487 -0.00781 0.0
C336 C 0.00858 0.63463 0.93033 0.0
C337 C -0.00852 0.71593 0.05984 0.0
C338 C 0.00647 0.59745 0.07404 0.0
C339 C 0.9286 0.63582 0.01069 0.0
O340 O 0.07535 0.62209 0.02489 0.0
O341 O 0.03076 0.71835 0.97871 0.0
O342 O -0.00869 0.61358 0.94442 0.0
O343 O 0.01198 0.69338 0.06623 0.0
O344 O -0.0056 0.58919 0.04656 0.0
O345 O 0.94095 0.66482 0.01 0.0
O346 O 0.02381 0.62275 0.07802 0.0
O347 O 0.97856 0.71938 0.03151 0.0
O348 O 0.94227 0.61448 -0.00649 0.0
O349 O 0.06435 0.69315 0.01375 0.0
O350 O 0.04348 0.58847 -0.00409 0.0
O351 O 0.00817 0.6638 0.94233 0.0
Sc352 Sc 0.05605 0.44507 0.0563 0.0
Sc353 Sc 0.06434 0.36083 0.06339 0.0
Sc354 Sc 0.0069 0.39173 0.00983 0.0
O355 O 0.04257 0.39925 0.04218 0.0
C356 C 0.97909 0.45351 0.04411 0.0
C357 C 0.04168 0.41393 0.12178 0.0
C358 C -0.00878 0.33554 0.06034 0.0
C359 C 0.12184 0.41458 0.04108 0.0
C360 C 0.0436 0.4507 0.97838 0.0
C361 C 0.05763 0.33296 -0.00709 0.0
O362 O 0.00615 0.46057 0.0574 0.0
O363 O 0.04167 0.38495 0.10914 0.0
O364 O 0.98321 0.36123 0.04474 0.0
O365 O 0.10782 0.43591 0.05798 0.0
O366 O 0.02748 0.42439 0.97408 0.0
O367 O 0.07468 0.33179 0.01913 0.0
O368 O 0.05463 0.45981 0.00603 0.0
O369 O 0.11006 0.38537 0.04219 0.0
O370 O 0.03402 0.35285 -0.01052 0.0
O371 O 0.05931 0.43489 0.10803 0.0
O372 O 0.97521 0.42932 0.02545 0.0
O373 O 0.0207 0.32979 0.06925 0.0
Sc374 Sc 0.55652 0.35483 0.24549 0.0
Sc375 Sc 0.5639 0.43918 0.23747 0.0
Sc376 Sc 0.5066 0.40834 0.29127 0.0
O377 O 0.54223 0.40077 0.25884 0.0
C378 C 0.47909 0.34626 0.25724 0.0
C379 C 0.54171 0.38527 0.17982 0.0
C380 C 0.49102 0.46527 0.24054 0.0
C381 C 0.62204 0.38614 0.26008 0.0
C382 C 0.54401 0.34935 0.32298 0.0
C383 C 0.55758 0.46661 0.30839 0.0
O384 O 0.50671 0.33859 0.24534 0.0
O385 O 0.54164 0.41445 0.19195 0.0
O386 O 0.48316 0.44054 0.25773 0.0
O387 O 0.60818 0.3646 0.24331 0.0
O388 O 0.52653 0.37487 0.32663 0.0
O389 O 0.5737 0.46845 0.28163 0.0
O390 O 0.556 0.3405 0.29571 0.0
O391 O 0.60979 0.41516 0.25896 0.0
O392 O 0.53437 0.44636 0.31237 0.0
O393 O 0.55945 0.36451 0.19376 0.0
O394 O 0.47443 0.37144 0.27445 0.0
O395 O 0.5203 0.47018 0.23059 0.0
Sc396 Sc 0.69608 0.80484 0.49358 0.0
Sc397 Sc 0.61148 0.81359 0.48693 0.0
Sc398 Sc 0.64271 0.75738 0.54193 0.0
O399 O 0.65006 0.79165 0.508 0.0
C400 C 0.7031 0.72722 0.5067 0.0
C401 C 0.66404 0.7906 0.42853 0.0
C402 C 0.58486 0.74127 0.49151 0.0
C403 C 0.66583 0.87093 0.50818 0.0
C404 C 0.70331 0.79393 0.57096 0.0
C405 C 0.58504 0.80888 0.55871 0.0
O406 O 0.71107 0.75446 0.49394 0.0
O407 O 0.6351 0.79133 0.44107 0.0
O408 O 0.60824 0.73429 0.51088 0.0
O409 O 0.68687 0.85661 0.49107 0.0
O410 O 0.67751 0.77726 0.5756 0.0
O411 O 0.58214 0.82339 0.53113 0.0
O412 O 0.71198 0.80482 0.54323 0.0
O413 O 0.63656 0.85923 0.50772 0.0
O414 O 0.60619 0.78665 0.56359 0.0
O415 O 0.6855 0.8077 0.44211 0.0
O416 O 0.67826 0.7236 0.5247 0.0
O417 O 0.5807 0.76997 0.47968 0.0
Sc418 Sc 0.29406 0.89218 0.79213 0.0
Sc419 Sc 0.23733 0.86141 0.73738 0.0
Sc420 Sc 0.24574 0.94561 0.7447 0.0
O421 O 0.25922 0.89969 0.75877 0.0
C422 C 0.25718 0.95196 0.82239 0.0
C423 C 0.2427 0.83415 0.80862 0.0
C424 C 0.17983 0.9153 0.7597 0.0
C425 C 0.31001 0.83529 0.74103 0.0
C426 C 0.32326 0.95317 0.75718 0.0
C427 C 0.25994 0.91439 0.67914 0.0
O428 O 0.27389 0.92608 0.82681 0.0
O429 O 0.22732 0.83208 0.78144 0.0
O430 O 0.19394 0.93658 0.74277 0.0
O431 O 0.31743 0.85924 0.75949 0.0
O432 O 0.296 0.96069 0.7443 0.0
O433 O 0.25972 0.88539 0.69162 0.0
O434 O 0.32709 0.92865 0.77555 0.0
O435 O 0.28096 0.8306 0.73032 0.0
O436 O 0.24258 0.93548 0.693 0.0
O437 O 0.26562 0.85461 0.81318 0.0
O438 O 0.24622 0.96078 0.79469 0.0
O439 O 0.19167 0.88608 0.75877 0.0
Sc440 Sc 0.65843 0.54439 0.54241 0.0
Sc441 Sc 0.68918 0.48735 0.48794 0.0
Sc442 Sc 0.60501 0.49603 0.49511 0.0
O443 O 0.65091 0.50942 0.50919 0.0
C444 C 0.5987 0.50754 0.57275 0.0
C445 C 0.71638 0.49291 0.55916 0.0
C446 C 0.63526 0.43007 0.51038 0.0
C447 C 0.71536 0.55998 0.49139 0.0
C448 C 0.59747 0.57365 0.50735 0.0
C449 C 0.63631 0.5099 0.42955 0.0
O450 O 0.62458 0.52424 0.57716 0.0
O451 O 0.71836 0.47734 0.5321 0.0
O452 O 0.614 0.44419 0.49341 0.0
O453 O 0.69124 0.56763 0.50955 0.0
O454 O 0.58999 0.54637 0.49451 0.0
O455 O 0.6653 0.50966 0.44206 0.0
O456 O 0.62193 0.57744 0.5258 0.0
O457 O 0.7201 0.53085 0.48093 0.0
O458 O 0.61518 0.49266 0.44346 0.0
O459 O 0.69606 0.516 0.56356 0.0
O460 O 0.58984 0.49663 0.54506 0.0
O461 O 0.66449 0.4418 0.5094 0.0
Sc462 Sc 0.29353 0.90797 0.00877 0.0
Sc463 Sc 0.23664 0.93887 0.06328 0.0
Sc464 Sc 0.24515 0.85461 0.05619 0.0
O465 O 0.25875 0.90053 0.04217 0.0
C466 C 0.25671 0.84789 0.97878 0.0
C467 C 0.24198 0.96563 -0.00816 0.0
C468 C 0.17918 0.88483 0.04104 0.0
C469 C 0.30904 0.96574 0.05926 0.0
C470 C 0.32292 0.84716 0.04388 0.0
C471 C 0.2593 0.88597 0.12164 0.0
O472 O 0.27386 0.87346 0.9745 0.0
O473 O 0.22692 0.96819 0.01914 0.0
O474 O 0.19331 0.86369 0.05818 0.0
O475 O 0.31652 0.94203 0.04051 0.0
O476 O 0.2955 0.83944 0.05634 0.0
O477 O 0.25895 0.91496 0.10913 0.0
O478 O 0.32693 0.87204 0.02602 0.0
O479 O 0.28012 0.96989 0.07056 0.0
O480 O 0.24206 0.86478 0.10782 0.0
O481 O 0.26459 0.94482 -0.01275 0.0
O482 O 0.24535 0.83931 0.00633 0.0
O483 O 0.19112 0.91401 0.04169 0.0
Sc484 Sc 0.64102 0.04458 0.25612 0.0
Sc485 Sc 0.61119 -0.0116 0.31228 0.0
Sc486 Sc 0.6951 -0.00395 0.30339 0.0
O487 O 0.64901 0.01016 0.2901 0.0
C488 C 0.70133 0.00845 0.22576 0.0
C489 C 0.58385 -0.00729 0.24041 0.0
C490 C 0.66405 0.93037 0.28908 0.0
C491 C 0.58448 0.06059 0.30856 0.0
C492 C 0.70212 0.07369 0.29193 0.0
C493 C 0.66514 0.01011 0.36973 0.0
O494 O 0.67611 0.02612 0.22196 0.0
O495 O 0.58108 0.97957 0.26868 0.0
O496 O 0.68556 0.94433 0.3058 0.0
O497 O 0.60551 0.06691 0.28653 0.0
O498 O 0.71036 0.04608 0.30357 0.0
O499 O 0.63591 0.00988 0.35793 0.0
O500 O 0.67669 0.07808 0.27469 0.0
O501 O 0.58158 0.03229 0.32161 0.0
O502 O 0.68605 -0.00697 0.35527 0.0
O503 O 0.60497 0.01464 0.23399 0.0
O504 O 0.70974 -0.00373 0.2531 0.0
O505 O 0.635 0.94261 0.29012 0.0
Sc506 Sc 0.15843 0.25627 0.75858 0.0
Sc507 Sc 0.18908 0.31305 0.81339 0.0
Sc508 Sc 0.10488 0.30464 0.80575 0.0
O509 O 0.15084 0.29108 0.79194 0.0
C510 C 0.09861 0.29315 0.72815 0.0
C511 C 0.21628 0.30779 0.74216 0.0
C512 C 0.13532 0.37055 0.79096 0.0
C513 C 0.21543 0.2405 0.80979 0.0
C514 C 0.09734 0.22705 0.79324 0.0
C515 C 0.13599 0.29033 0.87139 0.0
O516 O 0.1243 0.27611 0.72391 0.0
O517 O 0.21847 0.32295 0.76943 0.0
O518 O 0.11409 0.35643 0.80793 0.0
O519 O 0.19169 0.23312 0.79104 0.0
O520 O 0.08964 0.2544 0.80579 0.0
O521 O 0.16505 0.29076 0.8591 0.0
O522 O 0.12219 0.22307 0.77535 0.0
O523 O 0.21992 0.26949 0.82073 0.0
O524 O 0.11477 0.30752 0.85748 0.0
O525 O 0.19576 0.28496 0.73743 0.0
O526 O 0.08991 0.30444 0.75572 0.0
O527 O 0.16451 0.35869 0.79184 0.0
Sc528 Sc 0.00626 0.79446 0.40923 0.0
Sc529 Sc 0.06215 0.73822 0.4395 0.0
Sc530 Sc 0.05429 0.74631 0.35557 0.0
O531 O 0.04043 0.76017 0.40153 0.0
C532 C 0.97667 0.75822 0.34866 0.0
C533 C -0.00988 0.74267 0.46636 0.0
C534 C 0.03947 0.68052 0.386 0.0
C535 C 0.05831 0.81045 0.46612 0.0
C536 C 0.04262 0.82402 0.34871 0.0
C537 C 0.12035 0.7602 0.38633 0.0
O538 O 0.97251 0.77576 0.3739 0.0
O539 O 0.01833 0.72944 0.46936 0.0
O540 O 0.05657 0.69453 0.36482 0.0
O541 O 0.03641 0.81677 0.44493 0.0
O542 O 0.05458 0.79652 0.34063 0.0
O543 O 0.1081 0.75977 0.41538 0.0
O544 O 0.02488 0.82817 0.37381 0.0
O545 O 0.0713 0.78211 0.4692 0.0
O546 O 0.10611 0.74331 0.36513 0.0
O547 O 0.98392 0.76451 0.44507 0.0
O548 O 0.0042 0.74642 0.3404 0.0
O549 O 0.04004 0.69263 0.41513 0.0
Sc550 Sc 0.3044 0.80573 0.10507 0.0
Sc551 Sc 0.31265 0.81304 0.18931 0.0
Sc552 Sc 0.25617 0.7581 0.15843 0.0
O553 O 0.29073 0.79175 0.15099 0.0
C554 C 0.22671 0.79352 0.09775 0.0
C555 C 0.29027 0.87133 0.13628 0.0
C556 C 0.24021 0.80909 0.21593 0.0
C557 C 0.37019 0.79049 0.13542 0.0
C558 C 0.29284 0.72827 0.09823 0.0
C559 C 0.30769 0.74144 0.2161 0.0
O560 O 0.25411 0.80593 0.08997 0.0
O561 O 0.29054 0.85888 0.16529 0.0
O562 O 0.23326 0.78949 0.19275 0.0
O563 O 0.35621 0.80769 0.11425 0.0
O564 O 0.27571 0.72395 0.12378 0.0
O565 O 0.32218 0.76902 0.21883 0.0
O566 O 0.3042 0.75585 0.08972 0.0
O567 O 0.35817 0.79118 0.16458 0.0
O568 O 0.28532 0.73641 0.19511 0.0
O569 O 0.30747 0.85742 0.11511 0.0
O570 O 0.22271 0.77561 0.12263 0.0
O571 O 0.26897 0.82083 0.22001 0.0
Sc572 Sc 0.24451 0.05462 0.85519 0.0
Sc573 Sc 0.23715 0.06303 0.93933 0.0
Sc574 Sc 0.2921 0.00639 0.90864 0.0
O575 O 0.25858 0.04111 0.90111 0.0
C576 C 0.25691 0.977 0.84775 0.0
C577 C 0.17889 0.04053 0.88628 0.0
C578 C 0.24079 -0.00955 0.96553 0.0
C579 C 0.25965 0.12049 0.88547 0.0
C580 C 0.32216 0.04322 0.84876 0.0
C581 C 0.30854 0.05784 0.9666 0.0
O582 O 0.24409 0.00429 0.8402 0.0
O583 O 0.19138 0.0407 0.91528 0.0
O584 O 0.25981 0.98321 0.94196 0.0
O585 O 0.24266 0.10644 0.8642 0.0
O586 O 0.32661 0.02641 0.87455 0.0
O587 O 0.28118 0.07287 0.9688 0.0
O588 O 0.29447 0.05419 0.84 0.0
O589 O 0.25877 0.1086 0.91467 0.0
O590 O 0.31337 0.03505 0.94603 0.0
O591 O 0.1928 0.05786 0.86522 0.0
O592 O 0.27529 0.97318 0.8723 0.0
O593 O 0.22973 0.0194 0.97005 0.0
Sc594 Sc -0.00523 0.80671 0.19612 0.0
Sc595 Sc -0.01344 0.81352 0.11175 0.0
Sc596 Sc 0.04335 0.75918 0.14298 0.0
O597 O 0.00838 0.79243 0.15026 0.0
C598 C 0.07232 0.79426 0.20398 0.0
C599 C 0.00939 0.87185 0.16472 0.0
C600 C 0.05925 0.80951 0.0855 0.0
C601 C 0.92876 0.79199 0.16565 0.0
C602 C 0.00615 0.72912 0.2027 0.0
C603 C -0.00778 0.74224 0.08477 0.0
O604 O 0.04498 0.80699 0.21148 0.0
O605 O 0.0092 0.85921 0.13577 0.0
O606 O 0.06684 0.79158 0.10982 0.0
O607 O 0.94295 0.80896 0.18684 0.0
O608 O 0.02312 0.72469 0.177 0.0
O609 O 0.97659 0.76927 0.08251 0.0
O610 O -0.00498 0.75678 0.21138 0.0
O611 O 0.94078 0.79252 0.13651 0.0
O612 O 0.01501 0.73801 0.10546 0.0
O613 O -0.00815 0.85828 0.18583 0.0
O614 O 0.07626 0.77599 0.17941 0.0
O615 O 0.03017 0.82018 0.0808 0.0
Sc616 Sc 0.24406 0.74533 0.94568 0.0
Sc617 Sc 0.23706 0.73693 0.86141 0.0
Sc618 Sc 0.29131 0.79389 0.89239 0.0
O619 O 0.25818 0.75888 0.8998 0.0
C620 C 0.25639 0.82288 0.95344 0.0
C621 C 0.17862 0.7595 0.91432 0.0
C622 C 0.24068 0.80964 0.83517 0.0
C623 C 0.25928 0.6794 0.91538 0.0
C624 C 0.32165 0.75682 0.95209 0.0
C625 C 0.3082 0.74266 0.83427 0.0
O626 O 0.24352 0.79561 0.96087 0.0
O627 O 0.19123 0.75939 0.88536 0.0
O628 O 0.2585 0.81734 0.85953 0.0
O629 O 0.24228 0.6935 0.93661 0.0
O630 O 0.32604 0.77359 0.92623 0.0
O631 O 0.28126 0.72691 0.83219 0.0
O632 O 0.29399 0.74584 0.96089 0.0
O633 O 0.25845 0.69129 0.88619 0.0
O634 O 0.31236 0.76564 0.85474 0.0
O635 O 0.19242 0.74207 0.93541 0.0
O636 O 0.27475 0.82676 0.92895 0.0
O637 O 0.23027 0.7805 0.83041 0.0
Sc638 Sc 0.25655 0.04181 0.64245 0.0
Sc639 Sc 0.31376 -0.01251 0.61178 0.0
Sc640 Sc 0.30495 -0.00546 0.69593 0.0
O641 O 0.29159 0.00866 0.65002 0.0
C642 C 0.29349 0.07213 0.7023 0.0
C643 C 0.30825 0.05868 0.58479 0.0
C644 C 0.37105 0.00964 0.66595 0.0
C645 C 0.24125 -0.00872 0.58507 0.0
C646 C 0.22723 0.00686 0.70331 0.0
C647 C 0.29088 0.92912 0.66449 0.0
O648 O 0.2766 0.07651 0.6765 0.0
O649 O 0.32396 0.0317 0.5828 0.0
O650 O 0.35684 -0.00732 0.68714 0.0
O651 O 0.23338 0.00901 0.60944 0.0
O652 O 0.25456 -0.00588 0.71086 0.0
O653 O 0.29116 0.94168 0.63551 0.0
O654 O 0.22337 0.02517 0.67876 0.0
O655 O 0.27041 0.98083 0.58049 0.0
O656 O 0.30817 0.94289 0.68569 0.0
O657 O 0.28506 0.06293 0.60501 0.0
O658 O 0.30451 0.04446 0.71108 0.0
O659 O 0.35931 0.00882 0.6367 0.0
Sc660 Sc 0.65846 0.04013 0.04418 0.0
Sc661 Sc 0.68872 -0.01316 0.98619 0.0
Sc662 Sc 0.60455 -0.00503 -0.0054 0.0
O663 O 0.65052 0.00861 0.00792 0.0
C664 C 0.59531 0.00711 0.07115 0.0
C665 C 0.71358 -0.01114 0.05926 0.0
C666 C 0.63491 0.92945 0.00977 0.0
C667 C 0.71873 0.05608 -0.00567 0.0
C668 C 0.6003 0.07333 0.00749 0.0
C669 C 0.63549 0.00891 0.92852 0.0
O670 O 0.61978 0.02544 0.07519 0.0
O671 O 0.71976 0.98099 0.02964 0.0
O672 O 0.61385 0.94318 -0.00786 0.0
O673 O 0.69891 0.05945 0.01808 0.0
O674 O 0.59101 0.04577 -0.00388 0.0
O675 O 0.6647 0.00772 0.94019 0.0
O676 O 0.62677 0.07722 0.02363 0.0
O677 O 0.71838 0.03075 0.97596 0.0
O678 O 0.61415 -0.00765 0.94286 0.0
O679 O 0.68717 0.00312 0.06746 0.0
O680 O 0.58828 -0.00604 0.04411 0.0
O681 O 0.66408 0.94162 0.00929 0.0
Sc682 Sc 0.05523 0.35479 0.74432 0.0
Sc683 Sc 0.06364 0.43904 0.73748 0.0
Sc684 Sc 0.00651 0.408 0.79158 0.0
O685 O 0.04152 0.40065 0.7584 0.0
C686 C 0.97758 0.34713 0.75641 0.0
C687 C 0.0411 0.38624 0.67891 0.0
C688 C -0.00876 0.46581 0.74119 0.0
C689 C 0.12102 0.38506 0.75976 0.0
C690 C 0.04358 0.34817 0.82182 0.0
C691 C 0.05778 0.46566 0.80893 0.0
O692 O 0.00499 0.33951 0.74392 0.0
O693 O 0.04134 0.4152 0.69152 0.0
O694 O 0.98348 0.44174 0.75939 0.0
O695 O 0.10704 0.36394 0.74254 0.0
O696 O 0.02635 0.37372 0.8261 0.0
O697 O 0.07323 0.46817 0.78184 0.0
O698 O 0.05484 0.33956 0.79422 0.0
O699 O 0.10911 0.41424 0.7591 0.0
O700 O 0.03502 0.445 0.81313 0.0
O701 O 0.0584 0.36502 0.69268 0.0
O702 O 0.97347 0.3719 0.77436 0.0
O703 O 0.02027 0.47012 0.73031 0.0
Sc704 Sc 0.29423 0.39242 0.29269 0.0
Sc705 Sc 0.23774 0.36138 0.23787 0.0
Sc706 Sc 0.24586 0.44565 0.24498 0.0
O707 O 0.2596 0.39977 0.25907 0.0
C708 C 0.25738 0.45252 0.32246 0.0
C709 C 0.2429 0.33463 0.30945 0.0
C710 C 0.18007 0.41537 0.26027 0.0
C711 C 0.31038 0.33507 0.24162 0.0
C712 C 0.32358 0.45303 0.25722 0.0
C713 C 0.26003 0.41436 0.17947 0.0
O714 O 0.27453 0.42696 0.32684 0.0
O715 O 0.22825 0.33188 0.28194 0.0
O716 O 0.19404 0.43649 0.24303 0.0
O717 O 0.31725 0.35831 0.26116 0.0
O718 O 0.29617 0.46075 0.24474 0.0
O719 O 0.25981 0.38539 0.19201 0.0
O720 O 0.32759 0.42828 0.27528 0.0
O721 O 0.28154 0.33072 0.23013 0.0
O722 O 0.24276 0.43552 0.19332 0.0
O723 O 0.26526 0.35562 0.31432 0.0
O724 O 0.24608 0.46103 0.29485 0.0
O725 O 0.19218 0.38621 0.25969 0.0
Sc726 Sc 0.65854 0.75668 0.7587 0.0
Sc727 Sc 0.68926 0.81355 0.81333 0.0
Sc728 Sc 0.6051 0.80497 0.80612 0.0
O729 O 0.65101 0.79158 0.79199 0.0
C730 C 0.59874 0.79362 0.72844 0.0
C731 C 0.71642 0.80821 0.74201 0.0
C732 C 0.63527 0.87096 0.79104 0.0
C733 C 0.71551 0.74094 0.80976 0.0
C734 C 0.59759 0.72739 0.79376 0.0
C735 C 0.63639 0.79086 0.87168 0.0
O736 O 0.62462 0.7769 0.724 0.0
O737 O 0.71841 0.82368 0.76914 0.0
O738 O 0.61401 0.8568 0.80794 0.0
O739 O 0.69144 0.73338 0.79149 0.0
O740 O 0.59014 0.75465 0.80667 0.0
O741 O 0.66536 0.79104 0.85913 0.0
O742 O 0.62204 0.72361 0.77529 0.0
O743 O 0.72022 0.77004 0.8203 0.0
O744 O 0.6153 0.80824 0.85781 0.0
O745 O 0.69614 0.78512 0.73754 0.0
O746 O 0.5899 0.80447 0.75615 0.0
O747 O 0.66451 0.85918 0.79199 0.0
Sc748 Sc 0.29445 0.40859 0.5092 0.0
Sc749 Sc 0.23745 0.43938 0.56369 0.0
Sc750 Sc 0.24614 0.35523 0.55659 0.0
O751 O 0.25959 0.40112 0.54251 0.0
C752 C 0.25766 0.34865 0.47907 0.0
C753 C 0.24289 0.46641 0.49238 0.0
C754 C 0.18019 0.38534 0.54117 0.0
C755 C 0.30995 0.46588 0.56011 0.0
C756 C 0.32389 0.34782 0.54436 0.0
C757 C 0.26009 0.38654 0.62213 0.0
O758 O 0.27456 0.37439 0.47467 0.0
O759 O 0.22758 0.46869 0.51956 0.0
O760 O 0.19428 0.36418 0.5583 0.0
O761 O 0.31749 0.44199 0.54159 0.0
O762 O 0.29654 0.34025 0.55705 0.0
O763 O 0.25983 0.41551 0.60957 0.0
O764 O 0.32775 0.3724 0.52609 0.0
O765 O 0.28091 0.47035 0.57095 0.0
O766 O 0.24283 0.3654 0.60826 0.0
O767 O 0.26575 0.44584 0.48791 0.0
O768 O 0.24657 0.33998 0.5067 0.0
O769 O 0.192 0.41456 0.54198 0.0
Sc770 Sc 0.54194 0.64258 0.75681 0.0
Sc771 Sc 0.48751 0.61174 0.81378 0.0
Sc772 Sc 0.49466 0.69599 0.8051 0.0
O773 O 0.50874 0.65008 0.79175 0.0
C774 C 0.57228 0.70233 0.79361 0.0
C775 C 0.55866 0.58457 0.80826 0.0
C776 C 0.50977 0.66569 0.87108 0.0
C777 C 0.49105 0.58562 0.74112 0.0
C778 C 0.50714 0.7036 0.72754 0.0
C779 C 0.42917 0.66459 0.79105 0.0
O780 O 0.57669 0.67641 0.77696 0.0
O781 O 0.53165 0.58252 0.82389 0.0
O782 O 0.49282 0.68695 0.85692 0.0
O783 O 0.50907 0.60983 0.73348 0.0
O784 O 0.49422 0.71109 0.75478 0.0
O785 O 0.44167 0.63559 0.7914 0.0
O786 O 0.52549 0.67906 0.72376 0.0
O787 O 0.48063 0.58083 0.77025 0.0
O788 O 0.44301 0.68577 0.80832 0.0
O789 O 0.56291 0.60497 0.78523 0.0
O790 O 0.5446 0.71119 0.80455 0.0
O791 O 0.50879 0.63644 0.85939 0.0
Sc792 Sc 0.80509 0.10573 0.30328 0.0
Sc793 Sc 0.81286 0.1898 0.31178 0.0
Sc794 Sc 0.75649 0.15981 0.25597 0.0
O795 O 0.79101 0.15186 0.28987 0.0
C796 C 0.79275 0.09941 0.22577 0.0
C797 C 0.87087 0.13678 0.28925 0.0
C798 C 0.8084 0.21671 0.23962 0.0
C799 C 0.79083 0.13595 0.36929 0.0
C800 C 0.7274 0.09881 0.2919 0.0
C801 C 0.7408 0.21676 0.30813 0.0
O802 O 0.80507 0.09107 0.25307 0.0
O803 O 0.85867 0.16584 0.29 0.0
O804 O 0.78643 0.19558 0.2334 0.0
O805 O 0.80784 0.11484 0.35503 0.0
O806 O 0.72295 0.12441 0.27493 0.0
O807 O 0.76912 0.21958 0.32114 0.0
O808 O 0.75509 0.09032 0.30321 0.0
O809 O 0.79133 0.16518 0.35745 0.0
O810 O 0.73437 0.19565 0.2862 0.0
O811 O 0.8568 0.11541 0.30607 0.0
O812 O 0.77483 0.12446 0.22204 0.0
O813 O 0.82159 0.21966 0.26788 0.0
Sc814 Sc 0.44577 0.55646 0.55542 0.0
Sc815 Sc 0.36158 0.56357 0.56394 0.0
Sc816 Sc 0.39244 0.50901 0.50712 0.0
O817 O 0.39989 0.54235 0.54195 0.0
C818 C 0.45337 0.54384 0.47783 0.0
C819 C 0.41439 0.6219 0.54112 0.0
C820 C 0.33523 0.5598 0.49129 0.0
C821 C 0.41564 0.54131 0.62141 0.0
C822 C 0.45223 0.47889 0.54417 0.0
C823 C 0.33451 0.49238 0.55854 0.0
O824 O 0.46085 0.55674 0.50508 0.0
O825 O 0.38543 0.60933 0.5414 0.0
O826 O 0.35932 0.54154 0.48375 0.0
O827 O 0.43679 0.55838 0.60727 0.0
O828 O 0.42643 0.47444 0.52735 0.0
O829 O 0.33232 0.51948 0.574 0.0
O830 O 0.46099 0.50656 0.5551 0.0
O831 O 0.38643 0.54208 0.60954 0.0
O832 O 0.35501 0.48799 0.53563 0.0
O833 O 0.43555 0.60813 0.5585 0.0
O834 O 0.42881 0.52555 0.474 0.0
O835 O 0.33061 0.57051 0.52036 0.0
Sc836 Sc 0.80638 0.19559 -0.00698 0.0
Sc837 Sc 0.81387 0.11123 0.9851 0.0
Sc838 Sc 0.76149 0.14192 0.0433 0.0
O839 O 0.79267 0.14969 0.00679 0.0
C840 C 0.79409 0.20519 0.06969 0.0
C841 C 0.87173 0.16495 0.00782 0.0
C842 C 0.81242 0.0867 0.05843 0.0
C843 C 0.79125 0.16454 0.92745 0.0
C844 C 0.72869 0.20005 0.00626 0.0
C845 C 0.74458 0.08159 -0.00588 0.0
O846 O 0.80727 0.21213 0.04257 0.0
O847 O 0.85936 0.13585 0.00776 0.0
O848 O 0.79848 0.11328 0.0666 0.0
O849 O 0.80817 0.18594 0.94133 0.0
O850 O 0.72483 0.1736 0.02246 0.0
O851 O 0.76966 0.08171 0.97539 0.0
O852 O 0.75604 0.20947 -0.00523 0.0
O853 O 0.79246 0.13539 0.93933 0.0
O854 O 0.74169 0.1015 0.01779 0.0
O855 O 0.85807 0.18581 -0.01006 0.0
O856 O 0.77618 0.18056 0.07398 0.0
O857 O 0.81992 0.08031 0.02874 0.0
Sc858 Sc 0.94463 0.74611 0.24599 0.0
Sc859 Sc 0.86059 0.73856 0.2379 0.0
Sc860 Sc 0.89104 0.79464 0.29369 0.0
O861 O 0.89867 0.76027 0.25964 0.0
C862 C 0.9514 0.7581 0.32352 0.0
C863 C 0.91376 0.68018 0.25991 0.0
C864 C 0.83407 0.74291 0.31013 0.0
C865 C 0.91422 0.76094 0.18017 0.0
C866 C 0.95175 0.82381 0.25769 0.0
C867 C 0.8338 0.81075 0.24192 0.0
O868 O 0.95938 0.74564 0.29621 0.0
O869 O 0.88475 0.6926 0.25968 0.0
O870 O 0.85547 0.76462 0.31629 0.0
O871 O 0.93547 0.74392 0.19422 0.0
O872 O 0.92623 0.82826 0.27473 0.0
O873 O 0.83076 0.7825 0.22878 0.0
O874 O 0.9601 0.79614 0.24629 0.0
O875 O 0.88506 0.76032 0.19221 0.0
O876 O 0.85511 0.81688 0.26374 0.0
O877 O 0.93489 0.69432 0.24287 0.0
O878 O 0.92656 0.77626 0.32738 0.0
O879 O 0.83083 0.72985 0.28186 0.0
Sc880 Sc 0.00711 0.50563 0.89249 0.0
Sc881 Sc 0.06226 0.56259 0.86209 0.0
Sc882 Sc 0.05446 0.55376 0.94606 0.0
O883 O 0.04061 0.54042 0.90011 0.0
C884 C 0.97638 0.54229 0.95239 0.0
C885 C -0.009 0.55743 0.83464 0.0
C886 C 0.03964 0.61991 0.91596 0.0
C887 C 0.05877 0.49025 0.83545 0.0
C888 C 0.04296 0.47594 0.95311 0.0
C889 C 0.12042 0.53999 0.91503 0.0
O890 O 0.97212 0.52513 0.92679 0.0
O891 O 0.01841 0.57233 0.83259 0.0
O892 O 0.05647 0.60563 0.93719 0.0
O893 O 0.03945 0.48292 0.85879 0.0
O894 O 0.05535 0.50337 0.96077 0.0
O895 O 0.10811 0.54042 0.88599 0.0
O896 O 0.02435 0.47211 0.92869 0.0
O897 O 0.07 0.51916 0.83127 0.0
O898 O 0.10625 0.55694 0.93625 0.0
O899 O 0.98584 0.53466 0.8552 0.0
O900 O 0.00414 0.55341 0.96095 0.0
O901 O 0.04048 0.60814 0.88672 0.0
Sc902 Sc 0.74432 0.74536 0.44538 0.0
Sc903 Sc 0.73623 0.73753 0.36115 0.0
Sc904 Sc 0.79365 0.79121 0.39169 0.0
O905 O 0.75779 0.75918 0.39944 0.0
C906 C 0.75669 0.82372 0.44994 0.0
C907 C 0.67828 0.75934 0.4144 0.0
C908 C 0.74371 0.80721 0.33156 0.0
C909 C 0.75966 0.67996 0.41505 0.0
C910 C 0.82089 0.75766 0.45455 0.0
C911 C 0.80943 0.73993 0.33635 0.0
O912 O 0.74556 0.79607 0.45917 0.0
O913 O 0.69017 0.75846 0.38525 0.0
O914 O 0.76721 0.81078 0.35162 0.0
O915 O 0.74195 0.69359 0.43605 0.0
O916 O 0.82483 0.77619 0.4302 0.0
O917 O 0.77991 0.7315 0.33033 0.0
O918 O 0.79388 0.7444 0.46156 0.0
O919 O 0.75935 0.69229 0.38591 0.0
O920 O 0.81743 0.75523 0.36224 0.0
O921 O 0.69257 0.74268 0.43573 0.0
O922 O 0.77284 0.82779 0.42356 0.0
O923 O 0.72594 0.78145 0.33137 0.0
Sc924 Sc 0.75631 0.54144 0.64283 0.0
Sc925 Sc 0.81349 0.48729 0.61198 0.0
Sc926 Sc 0.80553 0.49491 0.69629 0.0
O927 O 0.79166 0.50863 0.65035 0.0
C928 C 0.79361 0.57248 0.70214 0.0
C929 C 0.80751 0.5583 0.58469 0.0
C930 C 0.87132 0.50958 0.66538 0.0
C931 C 0.74075 0.49071 0.5858 0.0
C932 C 0.72801 0.50703 0.70444 0.0
C933 C 0.79092 0.42946 0.66538 0.0
O934 O 0.77643 0.5765 0.67647 0.0
O935 O 0.82343 0.53143 0.58277 0.0
O936 O 0.85728 0.4928 0.68683 0.0
O937 O 0.73292 0.50827 0.6103 0.0
O938 O 0.75549 0.49467 0.71202 0.0
O939 O 0.79107 0.44172 0.63627 0.0
O940 O 0.72373 0.52479 0.67956 0.0
O941 O 0.76996 0.48051 0.581 0.0
O942 O 0.80853 0.44327 0.68631 0.0
O943 O 0.78437 0.56246 0.60499 0.0
O944 O 0.80505 0.545 0.71102 0.0
O945 O 0.85931 0.50853 0.63627 0.0
Sc946 Sc 0.80571 0.80617 0.60461 0.0
Sc947 Sc 0.81341 0.81407 0.68892 0.0
Sc948 Sc 0.75624 0.76002 0.65817 0.0
O949 O 0.79166 0.79266 0.65057 0.0
C950 C 0.72822 0.79433 0.59632 0.0
C951 C 0.7911 0.87185 0.63511 0.0
C952 C 0.7407 0.81064 0.71527 0.0
C953 C 0.87138 0.79145 0.63571 0.0
C954 C 0.7935 0.72864 0.59897 0.0
C955 C 0.80743 0.74308 0.7164 0.0
O956 O 0.75574 0.8065 0.58871 0.0
O957 O 0.79096 0.8596 0.66425 0.0
O958 O 0.7328 0.79329 0.69064 0.0
O959 O 0.85743 0.80817 0.61415 0.0
O960 O 0.77624 0.72481 0.62459 0.0
O961 O 0.82338 0.76993 0.71826 0.0
O962 O 0.80514 0.75602 0.59007 0.0
O963 O 0.85924 0.7926 0.66476 0.0
O964 O 0.78426 0.73896 0.6961 0.0
O965 O 0.80884 0.85789 0.61439 0.0
O966 O 0.7238 0.77678 0.62133 0.0
O967 O 0.76991 0.82085 0.72 0.0
Sc968 Sc 0.74497 0.55559 0.85558 0.0
Sc969 Sc 0.73712 0.56339 0.93969 0.0
Sc970 Sc 0.79429 0.5091 0.90916 0.0
O971 O 0.75883 0.54181 0.90149 0.0
C972 C 0.75743 0.47751 0.85 0.0
C973 C 0.67902 0.54166 0.88649 0.0
C974 C 0.74305 0.4923 0.96732 0.0
C975 C 0.76035 0.62106 0.88603 0.0
C976 C 0.82193 0.54379 0.84717 0.0
C977 C 0.80972 0.55988 0.96598 0.0
O978 O 0.74565 0.50504 0.84132 0.0
O979 O 0.69113 0.54235 0.91555 0.0
O980 O 0.76651 0.48796 0.94739 0.0
O981 O 0.74274 0.60737 0.86499 0.0
O982 O 0.82627 0.52594 0.87202 0.0
O983 O 0.78049 0.56993 0.97082 0.0
O984 O 0.79457 0.55609 0.83957 0.0
O985 O 0.76003 0.60878 0.91517 0.0
O986 O 0.81769 0.54276 0.94123 0.0
O987 O 0.69322 0.55845 0.86523 0.0
O988 O 0.77449 0.47354 0.87574 0.0
O989 O 0.72701 0.51917 0.96878 0.0
Sc990 Sc 0.04451 0.54191 0.15873 0.0
Sc991 Sc -0.01236 0.48726 0.18953 0.0
Sc992 Sc -0.00382 0.49437 0.10557 0.0
O993 O 0.00957 0.50862 0.15133 0.0
C994 C 0.00711 0.57225 0.09931 0.0
C995 C -0.00702 0.55847 0.21677 0.0
C996 C 0.9299 0.50919 0.13564 0.0
C997 C 0.0603 0.49095 0.21564 0.0
C998 C 0.07384 0.50681 0.09788 0.0
C999 C 0.01083 0.42892 0.13664 0.0
O1000 O 0.02409 0.57678 0.125 0.0
O1001 O 0.97733 0.53144 0.21872 0.0
O1002 O 0.94423 0.49233 0.11446 0.0
O1003 O 0.06794 0.50888 0.19134 0.0
O1004 O 0.04658 0.49381 0.09065 0.0
O1005 O 0.01065 0.44157 0.16559 0.0
O1006 O 0.07759 0.52557 0.12208 0.0
O1007 O 0.03117 0.48059 0.22049 0.0
O1008 O -0.00668 0.44262 0.11556 0.0
O1009 O 0.0161 0.56275 0.19647 0.0
O1010 O -0.00366 0.54446 0.09064 0.0
O1011 O 0.94183 0.5085 0.16483 0.0
Sc1012 Sc 0.04221 0.14209 0.7558 0.0
Sc1013 Sc -0.0129 0.11115 0.8121 0.0
Sc1014 Sc -0.00553 0.19535 0.80404 0.0
O1015 O 0.0085 0.14947 0.79034 0.0
C1016 C 0.07206 0.20199 0.79279 0.0
C1017 C 0.0587 0.08425 0.80724 0.0
C1018 C 0.00957 0.16484 0.86982 0.0
C1019 C -0.0091 0.08508 0.73948 0.0
C1020 C 0.00682 0.20281 0.72636 0.0
C1021 C 0.92881 0.16435 0.7898 0.0
O1022 O 0.07647 0.17644 0.77565 0.0
O1023 O 0.03112 0.08161 0.82177 0.0
O1024 O -0.00755 0.18608 0.85584 0.0
O1025 O 0.01054 0.10826 0.73269 0.0
O1026 O -0.00575 0.21048 0.75373 0.0
O1027 O 0.94129 0.13534 0.78998 0.0
O1028 O 0.025 0.17812 0.72244 0.0
O1029 O 0.9794 0.08065 0.76828 0.0
O1030 O 0.94276 0.18543 0.80707 0.0
O1031 O 0.0637 0.10513 0.78477 0.0
O1032 O 0.04441 0.21055 0.80394 0.0
O1033 O 0.00888 0.1357 0.85775 0.0
Sc1034 Sc 0.3545 0.74426 0.05489 0.0
Sc1035 Sc 0.43868 0.73708 0.06341 0.0
Sc1036 Sc 0.40783 0.79155 0.00639 0.0
O1037 O 0.40038 0.75827 0.04131 0.0
C1038 C 0.34701 0.75652 0.97713 0.0
C1039 C 0.38585 0.67877 0.04069 0.0
C1040 C 0.46544 0.74101 -0.00908 0.0
C1041 C 0.38466 0.75934 0.12088 0.0
C1042 C 0.34798 0.82181 0.04345 0.0
C1043 C 0.46549 0.80836 0.05801 0.0
O1044 O 0.33938 0.74399 0.00454 0.0
O1045 O 0.41483 0.69128 0.04097 0.0
O1046 O 0.44139 0.7593 0.98326 0.0
O1047 O 0.36349 0.7423 0.10675 0.0
O1048 O 0.37357 0.82609 0.02629 0.0
O1049 O 0.46781 0.7812 0.07337 0.0
O1050 O 0.33933 0.7942 0.05465 0.0
O1051 O 0.41385 0.75862 0.10898 0.0
O1052 O 0.44497 0.8128 0.03511 0.0
O1053 O 0.36469 0.69259 0.05799 0.0
O1054 O 0.37169 0.7746 0.97314 0.0
O1055 O 0.46981 0.7301 0.01996 0.0
Sc1056 Sc 0.44577 0.7447 0.74587 0.0
Sc1057 Sc 0.36159 0.73747 0.73734 0.0
Sc1058 Sc 0.39235 0.79211 0.79421 0.0
O1059 O 0.39984 0.75867 0.75946 0.0
C1060 C 0.45309 0.75698 0.82371 0.0
C1061 C 0.41453 0.6792 0.76006 0.0
C1062 C 0.33476 0.7413 0.8097 0.0
C1063 C 0.41561 0.75993 0.67993 0.0
C1064 C 0.45245 0.82208 0.7574 0.0
C1065 C 0.33476 0.80894 0.74254 0.0
O1066 O 0.46084 0.7446 0.79626 0.0
O1067 O 0.38552 0.69167 0.75971 0.0
O1068 O 0.35827 0.76035 0.81705 0.0
O1069 O 0.43674 0.74275 0.69401 0.0
O1070 O 0.42692 0.82637 0.77464 0.0
O1071 O 0.33219 0.78155 0.72765 0.0
O1072 O 0.46099 0.79454 0.746 0.0
O1073 O 0.38643 0.75926 0.69188 0.0
O1074 O 0.35555 0.81366 0.76515 0.0
O1075 O 0.43571 0.69302 0.74282 0.0
O1076 O 0.42819 0.77483 0.82774 0.0
O1077 O 0.33061 0.72995 0.78081 0.0
Sc1078 Sc 0.40853 0.50834 0.29432 0.0
Sc1079 Sc 0.43921 0.5632 0.23766 0.0
Sc1080 Sc 0.35508 0.556 0.24615 0.0
O1081 O 0.40099 0.54181 0.25957 0.0
C1082 C 0.34867 0.47831 0.25745 0.0
C1083 C 0.46654 0.49186 0.24286 0.0
C1084 C 0.38523 0.54086 0.18018 0.0
C1085 C 0.46547 0.55943 0.31027 0.0
C1086 C 0.34763 0.54358 0.32373 0.0
C1087 C 0.38625 0.62155 0.26027 0.0
O1088 O 0.37456 0.47379 0.27412 0.0
O1089 O 0.4686 0.51913 0.22764 0.0
O1090 O 0.36398 0.55782 0.1943 0.0
O1091 O 0.44166 0.54076 0.31765 0.0
O1092 O 0.34016 0.55657 0.2965 0.0
O1093 O 0.41522 0.60897 0.26013 0.0
O1094 O 0.37205 0.52502 0.32746 0.0
O1095 O 0.47004 0.57032 0.28127 0.0
O1096 O 0.36519 0.60769 0.24288 0.0
O1097 O 0.44608 0.48715 0.26577 0.0
O1098 O 0.33985 0.50605 0.24664 0.0
O1099 O 0.41445 0.54171 0.19205 0.0
Sc1100 Sc 0.04098 0.1585 0.54379 0.0
Sc1101 Sc -0.01261 0.18948 0.4863 0.0
Sc1102 Sc -0.00471 0.10508 0.49374 0.0
O1103 O 0.00865 0.15101 0.50804 0.0
C1104 C 0.07275 0.09953 0.50645 0.0
C1105 C 0.05826 0.21685 0.49291 0.0
C1106 C 0.01 0.13647 0.42824 0.0
C1107 C -0.00966 0.21551 0.55918 0.0
C1108 C 0.00692 0.09638 0.57117 0.0
C1109 C 0.92964 0.13562 0.50835 0.0
O1110 O 0.07639 0.12505 0.52392 0.0
O1111 O 0.0316 0.21871 0.47661 0.0
O1112 O -0.00679 0.11491 0.44207 0.0
O1113 O 0.00732 0.19065 0.56716 0.0
O1114 O -0.005 0.08878 0.54354 0.0
O1115 O 0.94181 0.16479 0.50843 0.0
O1116 O 0.02416 0.12153 0.57586 0.0
O1117 O 0.98054 0.22048 0.52986 0.0
O1118 O 0.94359 0.11483 0.49067 0.0
O1119 O 0.0621 0.19658 0.51614 0.0
O1120 O 0.0455 0.09071 0.49441 0.0
O1121 O 0.0089 0.16548 0.44046 0.0
Sc1122 Sc 0.05612 0.94602 0.55547 0.0
Sc1123 Sc 0.06422 0.86176 0.56366 0.0
Sc1124 Sc 0.01108 0.89222 0.50561 0.0
O1125 O 0.04258 0.90007 0.54193 0.0
C1126 C 0.97791 0.95041 0.54243 0.0
C1127 C 0.04223 0.91491 0.62148 0.0
C1128 C -0.00526 0.83236 0.55574 0.0
C1129 C 0.12162 0.91562 0.54031 0.0
C1130 C 0.04419 0.95526 0.47877 0.0
C1131 C 0.06209 0.83675 0.49054 0.0
O1132 O 0.00536 0.95962 0.55409 0.0
O1133 O 0.04337 0.88575 0.6097 0.0
O1134 O -0.00853 0.85215 0.53196 0.0
O1135 O 0.10789 0.93665 0.55795 0.0
O1136 O 0.02615 0.93063 0.47451 0.0
O1137 O 0.07004 0.83063 0.52017 0.0
O1138 O 0.05695 0.96245 0.50597 0.0
O1139 O 0.10948 0.88643 0.54073 0.0
O1140 O 0.04774 0.86312 0.48234 0.0
O1141 O 0.05876 0.93632 0.6072 0.0
O1142 O 0.97416 0.92416 0.52596 0.0
O1143 O 0.02021 0.83235 0.57393 0.0
Sc1144 Sc 0.55506 0.85504 0.74457 0.0
Sc1145 Sc 0.5636 0.93934 0.73759 0.0
Sc1146 Sc 0.50662 0.90832 0.79184 0.0
O1147 O 0.54162 0.90092 0.7587 0.0
C1148 C 0.47749 0.84737 0.75703 0.0
C1149 C 0.54098 0.88654 0.67915 0.0
C1150 C 0.49085 0.96541 0.7411 0.0
C1151 C 0.62099 0.88531 0.75978 0.0
C1152 C 0.54355 0.84858 0.82214 0.0
C1153 C 0.55777 0.9665 0.80864 0.0
O1154 O 0.50474 0.83992 0.74409 0.0
O1155 O 0.54122 0.9155 0.69173 0.0
O1156 O 0.48319 0.94106 0.75893 0.0
O1157 O 0.60687 0.86408 0.7428 0.0
O1158 O 0.52689 0.8745 0.82657 0.0
O1159 O 0.57359 0.9686 0.78174 0.0
O1160 O 0.55451 0.83975 0.79447 0.0
O1161 O 0.60921 0.91455 0.75892 0.0
O1162 O 0.53488 0.94595 0.81275 0.0
O1163 O 0.55832 0.86536 0.69294 0.0
O1164 O 0.47367 0.87183 0.77542 0.0
O1165 O 0.52001 0.97028 0.73078 0.0
Sc1166 Sc 0.69598 0.30333 -0.00354 0.0
Sc1167 Sc 0.61215 0.31214 -0.01089 0.0
Sc1168 Sc 0.64311 0.25445 0.04344 0.0
O1169 O 0.65031 0.28991 0.01049 0.0
C1170 C 0.70347 0.22527 0.00757 0.0
C1171 C 0.66474 0.28949 0.93059 0.0
C1172 C 0.58617 0.23948 -0.00751 0.0
C1173 C 0.66575 0.36986 0.01085 0.0
C1174 C 0.70192 0.29214 0.07486 0.0
C1175 C 0.58529 0.30605 0.06019 0.0
O1176 O 0.71074 0.25283 -0.0048 0.0
O1177 O 0.63573 0.28984 0.94304 0.0
O1178 O 0.61081 0.23146 0.00979 0.0
O1179 O 0.68703 0.35529 -0.00564 0.0
O1180 O 0.67666 0.27445 0.07907 0.0
O1181 O 0.58342 0.32212 0.03341 0.0
O1182 O 0.71046 0.30317 0.047 0.0
O1183 O 0.63654 0.3581 0.01003 0.0
O1184 O 0.60535 0.28269 0.06426 0.0
O1185 O 0.68603 0.30643 0.94467 0.0
O1186 O 0.67963 0.22134 0.02676 0.0
O1187 O 0.58121 0.26874 0.98257 0.0
Sc1188 Sc 0.64279 0.54407 0.75933 0.0
Sc1189 Sc 0.61179 0.48756 0.81408 0.0
Sc1190 Sc 0.69627 0.49611 0.80714 0.0
O1191 O 0.65026 0.5095 0.79294 0.0
C1192 C 0.70305 0.50731 0.72975 0.0
C1193 C 0.58503 0.49262 0.74255 0.0
C1194 C 0.6659 0.4301 0.79239 0.0
C1195 C 0.58518 0.55999 0.80986 0.0
C1196 C 0.70352 0.57373 0.79431 0.0
C1197 C 0.6646 0.5105 0.87227 0.0
O1198 O 0.67729 0.52415 0.72528 0.0
O1199 O 0.58245 0.4777 0.76993 0.0
O1200 O 0.68703 0.44431 0.80946 0.0
O1201 O 0.60884 0.56726 0.79097 0.0
O1202 O 0.71141 0.54642 0.80695 0.0
O1203 O 0.6356 0.50994 0.85981 0.0
O1204 O 0.67864 0.57754 0.77639 0.0
O1205 O 0.58088 0.53112 0.82121 0.0
O1206 O 0.68595 0.49325 0.85867 0.0
O1207 O 0.60591 0.51513 0.73789 0.0
O1208 O 0.71177 0.49623 0.7574 0.0
O1209 O 0.63667 0.4419 0.79304 0.0
Sc1210 Sc 0.15737 0.75699 0.25935 0.0
Sc1211 Sc 0.18844 0.81375 0.31371 0.0
Sc1212 Sc 0.10405 0.80582 0.30658 0.0
O1213 O 0.14999 0.7919 0.29262 0.0
C1214 C 0.09739 0.79408 0.22925 0.0
C1215 C 0.21528 0.80821 0.24221 0.0
C1216 C 0.13463 0.87166 0.29165 0.0
C1217 C 0.21523 0.74126 0.30976 0.0
C1218 C 0.09637 0.72811 0.29447 0.0
C1219 C 0.13521 0.79115 0.37188 0.0
O1220 O 0.12281 0.77664 0.22509 0.0
O1221 O 0.21788 0.82328 0.26952 0.0
O1222 O 0.11348 0.85763 0.30881 0.0
O1223 O 0.19145 0.73389 0.29104 0.0
O1224 O 0.08852 0.75565 0.30657 0.0
O1225 O 0.16423 0.79138 0.3594 0.0
O1226 O 0.12141 0.72386 0.27689 0.0
O1227 O 0.21942 0.77017 0.32106 0.0
O1228 O 0.11407 0.80862 0.3582 0.0
O1229 O 0.19432 0.78574 0.23764 0.0
O1230 O 0.0889 0.80576 0.2567 0.0
O1231 O 0.16372 0.85944 0.29215 0.0
Sc1232 Sc 0.30524 0.30644 0.60555 0.0
Sc1233 Sc 0.31365 0.31347 0.68981 0.0
Sc1234 Sc 0.25673 0.25917 0.65881 0.0
O1235 O 0.29175 0.29229 0.65141 0.0
C1236 C 0.22774 0.29384 0.59762 0.0
C1237 C 0.291 0.37186 0.63693 0.0
C1238 C 0.24085 0.30988 0.71572 0.0
C1239 C 0.37117 0.29132 0.63595 0.0
C1240 C 0.29394 0.22882 0.5993 0.0
C1241 C 0.30795 0.24242 0.71702 0.0
O1242 O 0.25495 0.30688 0.5903 0.0
O1243 O 0.29116 0.35928 0.6659 0.0
O1244 O 0.23315 0.29225 0.69123 0.0
O1245 O 0.35705 0.30826 0.61466 0.0
O1246 O 0.27725 0.22438 0.62519 0.0
O1247 O 0.32381 0.26929 0.71898 0.0
O1248 O 0.30478 0.25651 0.59042 0.0
O1249 O 0.35935 0.2922 0.66516 0.0
O1250 O 0.28486 0.23831 0.69667 0.0
O1251 O 0.3084 0.35809 0.61581 0.0
O1252 O 0.22392 0.27541 0.62207 0.0
O1253 O 0.27003 0.32008 0.7207 0.0
Sc1254 Sc 0.24471 0.55515 0.35528 0.0
Sc1255 Sc 0.2375 0.56362 0.43954 0.0
Sc1256 Sc 0.29206 0.50671 0.40872 0.0
O1257 O 0.25877 0.54164 0.40122 0.0
C1258 C 0.25704 0.47758 0.34774 0.0
C1259 C 0.17919 0.5411 0.3866 0.0
C1260 C 0.24119 0.491 0.46588 0.0
C1261 C 0.25975 0.62107 0.3856 0.0
C1262 C 0.32231 0.54348 0.34882 0.0
C1263 C 0.30876 0.5581 0.46668 0.0
O1264 O 0.24429 0.50489 0.34015 0.0
O1265 O 0.19169 0.54135 0.41559 0.0
O1266 O 0.25957 0.48347 0.44189 0.0
O1267 O 0.24278 0.60696 0.36436 0.0
O1268 O 0.32668 0.52667 0.37465 0.0
O1269 O 0.28161 0.57351 0.46884 0.0
O1270 O 0.29468 0.55462 0.34007 0.0
O1271 O 0.2589 0.60923 0.41481 0.0
O1272 O 0.31325 0.53521 0.44616 0.0
O1273 O 0.19305 0.55838 0.36545 0.0
O1274 O 0.27527 0.47368 0.37236 0.0
O1275 O 0.23044 0.52006 0.47046 0.0
Sc1276 Sc 0.24495 0.24591 0.44635 0.0
Sc1277 Sc 0.2379 0.23725 0.36207 0.0
Sc1278 Sc 0.29236 0.29413 0.39305 0.0
O1279 O 0.25904 0.25932 0.40045 0.0
C1280 C 0.25732 0.32356 0.45379 0.0
C1281 C 0.17948 0.25984 0.4148 0.0
C1282 C 0.24145 0.30989 0.33583 0.0
C1283 C 0.26035 0.18001 0.41614 0.0
C1284 C 0.32247 0.25742 0.45301 0.0
C1285 C 0.30911 0.24273 0.33513 0.0
O1286 O 0.24453 0.29627 0.46136 0.0
O1287 O 0.19201 0.25949 0.38583 0.0
O1288 O 0.25994 0.31734 0.35976 0.0
O1289 O 0.24325 0.19409 0.43732 0.0
O1290 O 0.32691 0.27414 0.42715 0.0
O1291 O 0.28199 0.22736 0.33276 0.0
O1292 O 0.29481 0.24644 0.46176 0.0
O1293 O 0.25945 0.19175 0.38689 0.0
O1294 O 0.31347 0.26547 0.35581 0.0
O1295 O 0.19333 0.24262 0.43603 0.0
O1296 O 0.27563 0.32737 0.42924 0.0
O1297 O 0.23072 0.28084 0.33119 0.0
Sc1298 Sc 0.25662 0.54197 0.14262 0.0
Sc1299 Sc 0.3134 0.4873 0.11177 0.0
Sc1300 Sc 0.30503 0.49453 0.19605 0.0
O1301 O 0.29139 0.50852 0.1501 0.0
C1302 C 0.29328 0.57196 0.20279 0.0
C1303 C 0.30803 0.55875 0.08484 0.0
C1304 C 0.37087 0.50967 0.16572 0.0
C1305 C 0.241 0.49128 0.08497 0.0
C1306 C 0.22734 0.50684 0.20349 0.0
C1307 C 0.29095 0.42902 0.16478 0.0
O1308 O 0.27623 0.57626 0.17714 0.0
O1309 O 0.32299 0.53137 0.08232 0.0
O1310 O 0.35685 0.49258 0.18693 0.0
O1311 O 0.23364 0.51024 0.10857 0.0
O1312 O 0.25474 0.49432 0.2112 0.0
O1313 O 0.29118 0.44149 0.13577 0.0
O1314 O 0.22331 0.52473 0.17861 0.0
O1315 O 0.26988 0.47987 0.08085 0.0
O1316 O 0.3082 0.44287 0.18594 0.0
O1317 O 0.2855 0.5635 0.1057 0.0
O1318 O 0.30469 0.5444 0.21137 0.0
O1319 O 0.35892 0.50895 0.13654 0.0
Sc1320 Sc 0.05431 0.85589 0.24563 0.0
Sc1321 Sc 0.06232 0.93986 0.23761 0.0
Sc1322 Sc 0.00654 0.90971 0.29382 0.0
O1323 O 0.04062 0.90191 0.25955 0.0
C1324 C 0.97688 0.84904 0.25766 0.0
C1325 C 0.04025 0.88653 0.1796 0.0
C1326 C -0.0101 0.96645 0.2418 0.0
C1327 C 0.12006 0.88617 0.26052 0.0
C1328 C 0.04269 0.84921 0.32345 0.0
C1329 C 0.05828 0.96719 0.30935 0.0
O1330 O 0.00414 0.84115 0.2451 0.0
O1331 O 0.0404 0.91556 0.19188 0.0
O1332 O 0.98367 0.94481 0.26329 0.0
O1333 O 0.10609 0.86491 0.24351 0.0
O1334 O 0.02584 0.87488 0.32784 0.0
O1335 O 0.07171 0.96981 0.28122 0.0
O1336 O 0.0539 0.84066 0.29575 0.0
O1337 O 0.10796 0.91533 0.25974 0.0
O1338 O 0.03623 0.94616 0.31556 0.0
O1339 O 0.05741 0.86549 0.19379 0.0
O1340 O 0.97304 0.87382 0.2759 0.0
O1341 O 0.0183 0.96985 0.229 0.0
Sc1342 Sc 0.65924 0.25684 0.26131 0.0
Sc1343 Sc 0.69007 0.31478 0.31397 0.0
Sc1344 Sc 0.60582 0.30664 0.30703 0.0
O1345 O 0.65162 0.29306 0.29292 0.0
C1346 C 0.60083 0.29385 0.22921 0.0
C1347 C 0.71934 0.30615 0.24447 0.0
C1348 C 0.63637 0.3723 0.29151 0.0
C1349 C 0.71466 0.24135 0.31204 0.0
C1350 C 0.59651 0.22999 0.2945 0.0
C1351 C 0.63689 0.2922 0.3724 0.0
O1352 O 0.62739 0.27794 0.22499 0.0
O1353 O 0.71936 0.32467 0.2697 0.0
O1354 O 0.61511 0.35839 0.30857 0.0
O1355 O 0.6882 0.23325 0.29784 0.0
O1356 O 0.58982 0.2569 0.30821 0.0
O1357 O 0.66586 0.2922 0.35973 0.0
O1358 O 0.62073 0.22601 0.27595 0.0
O1359 O 0.72101 0.27102 0.31978 0.0
O1360 O 0.6159 0.30992 0.35873 0.0
O1361 O 0.69945 0.2825 0.2415 0.0
O1362 O 0.5915 0.30492 0.25676 0.0
O1363 O 0.66558 0.36048 0.29254 0.0
Sc1364 Sc 0.54458 0.14195 0.26127 0.0
Sc1365 Sc 0.48674 0.11159 0.31457 0.0
Sc1366 Sc 0.49482 0.1958 0.30637 0.0
O1367 O 0.50833 0.14985 0.29281 0.0
C1368 C 0.57139 0.2051 0.29425 0.0
C1369 C 0.55998 0.08682 0.31244 0.0
C1370 C 0.51019 0.16554 0.37189 0.0
C1371 C 0.49465 0.08181 0.24528 0.0
C1372 C 0.50765 0.19998 0.22803 0.0
C1373 C 0.42881 0.16473 0.2926 0.0
O1374 O 0.57553 0.18056 0.27605 0.0
O1375 O 0.53037 0.08057 0.32033 0.0
O1376 O 0.49249 0.18655 0.35817 0.0
O1377 O 0.5184 0.10161 0.24194 0.0
O1378 O 0.49616 0.20926 0.25554 0.0
O1379 O 0.44063 0.13556 0.2937 0.0
O1380 O 0.52399 0.17363 0.22422 0.0
O1381 O 0.47639 0.08201 0.27068 0.0
O1382 O 0.4431 0.18611 0.30914 0.0
O1383 O 0.56805 0.11324 0.29814 0.0
O1384 O 0.54427 0.21221 0.30723 0.0
O1385 O 0.50977 0.13634 0.35975 0.0
Sc1386 Sc 0.94563 0.24451 0.74487 0.0
Sc1387 Sc 0.86131 0.23779 0.73657 0.0
Sc1388 Sc 0.89248 0.29191 0.79361 0.0
O1389 O 0.89975 0.2586 0.7587 0.0
C1390 C 0.95322 0.25651 0.8226 0.0
C1391 C 0.91413 0.17914 0.7589 0.0
C1392 C 0.83416 0.24193 0.80881 0.0
C1393 C 0.9153 0.25999 0.67912 0.0
C1394 C 0.95257 0.32183 0.75673 0.0
C1395 C 0.83495 0.30944 0.74233 0.0
O1396 O 0.96097 0.24425 0.79511 0.0
O1397 O 0.88517 0.19176 0.75867 0.0
O1398 O 0.85793 0.26055 0.81644 0.0
O1399 O 0.9364 0.24267 0.69307 0.0
O1400 O 0.92718 0.32604 0.77415 0.0
O1401 O 0.8321 0.28216 0.72727 0.0
O1402 O 0.96103 0.29433 0.74516 0.0
O1403 O 0.88616 0.25949 0.69113 0.0
O1404 O 0.85596 0.31387 0.76476 0.0
O1405 O 0.93537 0.19291 0.74168 0.0
O1406 O 0.92824 0.27418 0.82683 0.0
O1407 O 0.83022 0.23045 0.77994 0.0
Sc1408 Sc 0.50802 0.00729 0.89314 0.0
Sc1409 Sc 0.56326 0.0633 0.86204 0.0
Sc1410 Sc 0.55647 0.05448 0.94666 0.0
O1411 O 0.54217 0.04129 0.90058 0.0
C1412 C 0.47931 0.04329 0.95426 0.0
C1413 C 0.49118 0.05897 0.8359 0.0
C1414 C 0.54169 0.12047 0.91646 0.0
C1415 C 0.55857 -0.00863 0.83494 0.0
C1416 C 0.54353 0.97673 0.95323 0.0
C1417 C 0.62154 0.04033 0.91456 0.0
O1418 O 0.47477 0.02636 0.92865 0.0
O1419 O 0.51914 0.07256 0.83248 0.0
O1420 O 0.55901 0.10624 0.93741 0.0
O1421 O 0.53817 0.9849 0.85754 0.0
O1422 O 0.55586 0.00408 0.96152 0.0
O1423 O 0.60917 0.04131 0.88558 0.0
O1424 O 0.52604 0.97299 0.92799 0.0
O1425 O 0.57131 0.01973 0.83137 0.0
O1426 O 0.60793 0.05725 0.93615 0.0
O1427 O 0.48574 0.03739 0.8576 0.0
O1428 O 0.50693 0.05457 0.96272 0.0
O1429 O 0.54208 0.10877 0.88718 0.0
Sc1430 Sc 0.49755 0.30392 0.19689 0.0
Sc1431 Sc 0.4885 0.31145 0.11295 0.0
Sc1432 Sc 0.54609 0.25689 0.14368 0.0
O1433 O 0.5108 0.28998 0.15108 0.0
C1434 C 0.5755 0.29273 0.2041 0.0
C1435 C 0.51092 0.3699 0.16552 0.0
C1436 C 0.56108 0.30812 0.08684 0.0
C1437 C 0.43118 0.28942 0.16672 0.0
C1438 C 0.50881 0.22553 0.2028 0.0
C1439 C 0.49438 0.2404 0.0859 0.0
O1440 O 0.54803 0.30522 0.21153 0.0
O1441 O 0.5105 0.35755 0.13648 0.0
O1442 O 0.56903 0.29039 0.1112 0.0
O1443 O 0.44567 0.3059 0.18805 0.0
O1444 O 0.52616 0.2213 0.17728 0.0
O1445 O 0.47851 0.26729 0.0841 0.0
O1446 O 0.49796 0.2534 0.21151 0.0
O1447 O 0.44272 0.29043 0.13743 0.0
O1448 O 0.51771 0.23607 0.10596 0.0
O1449 O 0.49417 0.35569 0.18687 0.0
O1450 O 0.57928 0.27358 0.18017 0.0
O1451 O 0.53186 0.31824 0.08202 0.0
Sc1452 Sc 0.50885 0.29509 0.40934 0.0
Sc1453 Sc 0.56365 0.23807 0.44003 0.0
Sc1454 Sc 0.55634 0.2467 0.35622 0.0
O1455 O 0.54218 0.26014 0.40194 0.0
C1456 C 0.47847 0.25775 0.3499 0.0
C1457 C 0.49253 0.24348 0.46731 0.0
C1458 C 0.54127 0.18047 0.38628 0.0
C1459 C 0.55994 0.3106 0.46631 0.0
C1460 C 0.54394 0.32446 0.34854 0.0
C1461 C 0.62189 0.26131 0.38717 0.0
O1462 O 0.47395 0.2749 0.37547 0.0
O1463 O 0.51962 0.22793 0.46929 0.0
O1464 O 0.55824 0.19469 0.36511 0.0
O1465 O 0.54181 0.3183 0.44215 0.0
O1466 O 0.55687 0.29716 0.34135 0.0
O1467 O 0.6093 0.26107 0.41614 0.0
O1468 O 0.5252 0.3283 0.37277 0.0
O1469 O 0.5705 0.28149 0.47099 0.0
O1470 O 0.60816 0.24387 0.36609 0.0
O1471 O 0.48805 0.26655 0.44698 0.0
O1472 O 0.50624 0.24685 0.34138 0.0
O1473 O 0.54198 0.19241 0.41545 0.0
Sc1474 Sc 0.54341 0.03976 0.15915 0.0
Sc1475 Sc 0.48572 -0.01317 0.19 0.0
Sc1476 Sc 0.49385 -0.00613 0.10573 0.0
O1477 O 0.50734 0.00801 0.15155 0.0
C1478 C 0.50631 0.07172 0.10084 0.0
C1479 C 0.4943 0.05616 0.2196 0.0
C1480 C 0.42813 0.00925 0.13634 0.0
C1481 C 0.5592 -0.01108 0.21434 0.0
C1482 C 0.57044 0.00677 0.09634 0.0
C1483 C 0.50841 0.92853 0.13673 0.0
O1484 O 0.522 0.07603 0.12749 0.0
O1485 O 0.47579 0.03094 0.21955 0.0
O1486 O 0.44209 -0.00773 0.11503 0.0
O1487 O 0.56721 0.00325 0.18792 0.0
O1488 O 0.54364 -0.00723 0.08977 0.0
O1489 O 0.50841 0.94118 0.16571 0.0
O1490 O 0.57425 0.02549 0.12045 0.0
O1491 O 0.52958 0.98105 0.22075 0.0
O1492 O 0.49064 0.94217 0.11578 0.0
O1493 O 0.51781 0.05926 0.19957 0.0
O1494 O 0.49548 0.04411 0.0914 0.0
O1495 O 0.43994 0.00818 0.16556 0.0
Sc1496 Sc 0.94642 0.05419 0.55266 0.0
Sc1497 Sc 0.86242 0.06189 0.56111 0.0
Sc1498 Sc 0.89335 0.00703 0.50397 0.0
O1499 O 0.90062 0.04039 0.53902 0.0
C1500 C 0.95374 0.04317 0.47471 0.0
C1501 C 0.91525 0.12027 0.5391 0.0
C1502 C 0.83629 0.05854 0.48852 0.0
C1503 C 0.91598 0.03949 0.61874 0.0
C1504 C 0.95266 0.97592 0.54128 0.0
C1505 C 0.83555 -0.00942 0.55549 0.0
O1506 O 0.96129 0.05533 0.50229 0.0
O1507 O 0.88621 0.10797 0.5394 0.0
O1508 O 0.85987 0.03955 0.48114 0.0
O1509 O 0.93728 0.05622 0.60449 0.0
O1510 O 0.92739 0.97178 0.52359 0.0
O1511 O 0.83323 0.01785 0.57061 0.0
O1512 O 0.96113 0.0037 0.55246 0.0
O1513 O 0.88679 0.04033 0.60687 0.0
O1514 O 0.85611 0.98579 0.53269 0.0
O1515 O 0.93654 0.10599 0.5559 0.0
O1516 O 0.92953 0.02439 0.47068 0.0
O1517 O 0.83181 0.06948 0.51751 0.0
Sc1518 Sc 0.85538 0.24613 0.05308 0.0
Sc1519 Sc 0.93905 0.23809 0.06189 0.0
Sc1520 Sc 0.9087 0.29385 0.00523 0.0
O1521 O 0.90117 0.26011 0.03987 0.0
C1522 C 0.84823 0.25801 0.97529 0.0
C1523 C 0.88616 0.18014 0.03876 0.0
C1524 C 0.96512 0.24158 -0.01049 0.0
C1525 C 0.88546 0.26075 0.11943 0.0
C1526 C 0.84907 0.32447 0.04209 0.0
C1527 C 0.96667 0.30929 0.05711 0.0
O1528 O 0.84092 0.24522 0.0026 0.0
O1529 O 0.9152 0.19244 0.03922 0.0
O1530 O 0.94196 0.26122 0.9824 0.0
O1531 O 0.86419 0.24406 0.10507 0.0
O1532 O 0.87465 0.32898 0.02497 0.0
O1533 O 0.96863 0.28177 0.07185 0.0
O1534 O 0.84064 0.29657 0.05291 0.0
O1535 O 0.91468 0.25985 0.10762 0.0
O1536 O 0.94621 0.3147 0.03428 0.0
O1537 O 0.86501 0.19421 0.05588 0.0
O1538 O 0.87228 0.27712 0.97162 0.0
O1539 O 0.96958 0.23038 0.01838 0.0
Sc1540 Sc 0.30605 0.60505 0.3053 0.0
Sc1541 Sc 0.31301 0.68932 0.3137 0.0
Sc1542 Sc 0.25848 0.65835 0.25697 0.0
O1543 O 0.29178 0.65093 0.29187 0.0
C1544 C 0.29349 0.59727 0.22784 0.0
C1545 C 0.37144 0.63638 0.29112 0.0
C1546 C 0.3094 0.71514 0.24088 0.0
C1547 C 0.29097 0.63538 0.37124 0.0
C1548 C 0.22832 0.59876 0.29401 0.0
C1549 C 0.24184 0.71668 0.30812 0.0
O1550 O 0.30666 0.58995 0.25501 0.0
O1551 O 0.35881 0.66534 0.2912 0.0
O1552 O 0.29139 0.69088 0.23336 0.0
O1553 O 0.30788 0.61409 0.35712 0.0
O1554 O 0.22377 0.62474 0.27751 0.0
O1555 O 0.26884 0.71864 0.32382 0.0
O1556 O 0.2561 0.58984 0.30471 0.0
O1557 O 0.29181 0.6646 0.35941 0.0
O1558 O 0.23756 0.69624 0.28513 0.0
O1559 O 0.3577 0.6153 0.30856 0.0
O1560 O 0.2748 0.62157 0.22414 0.0
O1561 O 0.31977 0.7201 0.27001 0.0
Sc1562 Sc 0.30558 0.69535 -0.00433 0.0
Sc1563 Sc 0.31288 0.61113 -0.01271 0.0
Sc1564 Sc 0.25819 0.64195 0.04402 0.0
O1565 O 0.29154 0.64944 0.00919 0.0
C1566 C 0.29318 0.70297 0.07318 0.0
C1567 C 0.37115 0.66408 0.00976 0.0
C1568 C 0.30937 0.58504 0.06001 0.0
C1569 C 0.29052 0.66504 0.92977 0.0
C1570 C 0.22794 0.70176 0.00718 0.0
C1571 C 0.24162 0.58393 -0.00732 0.0
O1572 O 0.30604 0.71047 0.04593 0.0
O1573 O 0.35868 0.63509 0.00956 0.0
O1574 O 0.29074 0.6089 0.06737 0.0
O1575 O 0.30747 0.68631 0.94386 0.0
O1576 O 0.22355 0.6759 0.02389 0.0
O1577 O 0.26881 0.58181 0.97736 0.0
O1578 O 0.2556 0.71056 -0.00383 0.0
O1579 O 0.29138 0.63583 0.94164 0.0
O1580 O 0.23702 0.60441 0.01558 0.0
O1581 O 0.35726 0.68522 -0.00753 0.0
O1582 O 0.27485 0.67842 0.07702 0.0
O1583 O 0.3201 0.58035 0.03096 0.0
Sc1584 Sc 0.90782 0.00792 0.29018 0.0
Sc1585 Sc 0.93878 0.06468 0.23608 0.0
Sc1586 Sc 0.8544 0.05702 0.2434 0.0
O1587 O 0.90031 0.04332 0.25753 0.0
C1588 C 0.84535 0.98051 0.25593 0.0
C1589 C 0.9637 -0.00867 0.23924 0.0
C1590 C 0.88517 0.04205 0.17804 0.0
C1591 C 0.96812 0.05745 0.30598 0.0
C1592 C 0.84906 0.0449 0.32163 0.0
C1593 C 0.88531 0.12263 0.25806 0.0
O1594 O 0.8695 0.9767 0.2748 0.0
O1595 O 0.96942 0.0207 0.22996 0.0
O1596 O 0.86418 0.05977 0.19168 0.0
O1597 O 0.94763 0.03442 0.31002 0.0
O1598 O 0.83991 0.05572 0.29384 0.0
O1599 O 0.91445 0.11058 0.25734 0.0
O1600 O 0.87554 0.02903 0.32606 0.0
O1601 O 0.9687 0.07471 0.27989 0.0
O1602 O 0.86406 0.10867 0.24107 0.0
O1603 O 0.93824 0.98362 0.25544 0.0
O1604 O 0.83843 0.00742 0.24234 0.0
O1605 O 0.91417 0.04202 0.19064 0.0
Sc1606 Sc 0.54189 0.65855 0.54432 0.0
Sc1607 Sc 0.48738 0.68936 0.48736 0.0
Sc1608 Sc 0.49455 0.60515 0.49606 0.0
O1609 O 0.50863 0.65105 0.50943 0.0
C1610 C 0.57217 0.59876 0.5075 0.0
C1611 C 0.55848 0.71654 0.49286 0.0
C1612 C 0.5097 0.63527 0.43006 0.0
C1613 C 0.49101 0.71564 0.56001 0.0
C1614 C 0.50709 0.59763 0.57366 0.0
C1615 C 0.42908 0.63653 0.51016 0.0
O1616 O 0.5766 0.62464 0.5242 0.0
O1617 O 0.53145 0.71864 0.47726 0.0
O1618 O 0.49269 0.61409 0.44421 0.0
O1619 O 0.50913 0.69146 0.56762 0.0
O1620 O 0.49417 0.59014 0.54642 0.0
O1621 O 0.44161 0.6655 0.50987 0.0
O1622 O 0.52544 0.62215 0.57744 0.0
O1623 O 0.48048 0.72036 0.53089 0.0
O1624 O 0.44288 0.61535 0.49287 0.0
O1625 O 0.56281 0.69607 0.51582 0.0
O1626 O 0.5445 0.58995 0.49655 0.0
O1627 O 0.50884 0.66451 0.44183 0.0
Sc1628 Sc 0.55502 0.44611 0.55674 0.0
Sc1629 Sc 0.56368 0.36191 0.56407 0.0
Sc1630 Sc 0.5065 0.39267 0.50968 0.0
O1631 O 0.54154 0.40019 0.54283 0.0
C1632 C 0.4773 0.45359 0.54452 0.0
C1633 C 0.54107 0.41478 0.62231 0.0
C1634 C 0.49111 0.33548 0.56053 0.0
C1635 C 0.62099 0.41582 0.54168 0.0
C1636 C 0.54343 0.45237 0.47915 0.0
C1637 C 0.55811 0.335 0.49287 0.0
O1638 O 0.50468 0.46121 0.5571 0.0
O1639 O 0.54142 0.38576 0.60991 0.0
O1640 O 0.48339 0.35958 0.54237 0.0
O1641 O 0.60685 0.43709 0.5586 0.0
O1642 O 0.52645 0.42666 0.47491 0.0
O1643 O 0.57366 0.33281 0.51993 0.0
O1644 O 0.55456 0.46119 0.50675 0.0
O1645 O 0.60924 0.38659 0.54263 0.0
O1646 O 0.53505 0.35535 0.48854 0.0
O1647 O 0.55828 0.43595 0.6084 0.0
O1648 O 0.47336 0.42894 0.52639 0.0
O1649 O 0.52024 0.33089 0.5711 0.0
Sc1650 Sc 0.19506 0.80443 -0.00526 0.0
Sc1651 Sc 0.11085 0.81271 -0.01243 0.0
Sc1652 Sc 0.14184 0.75618 0.04245 0.0
O1653 O 0.1492 0.79088 0.0089 0.0
C1654 C 0.20261 0.72684 0.00705 0.0
C1655 C 0.16382 0.79034 0.92917 0.0
C1656 C 0.08488 0.73998 -0.00875 0.0
C1657 C 0.16474 0.87029 0.0099 0.0
C1658 C 0.20163 0.79316 0.07244 0.0
C1659 C 0.08381 0.80754 0.05899 0.0
O1660 O 0.21009 0.75411 -0.00579 0.0
O1661 O 0.13486 0.79043 0.94174 0.0
O1662 O 0.1085 0.73287 0.01029 0.0
O1663 O 0.18599 0.85625 -0.00712 0.0
O1664 O 0.17589 0.77632 0.07692 0.0
O1665 O 0.08146 0.82257 0.03164 0.0
O1666 O 0.21034 0.80404 0.0447 0.0
O1667 O 0.13556 0.85834 0.00915 0.0
O1668 O 0.10448 0.7848 0.06372 0.0
O1669 O 0.18491 0.80766 0.94304 0.0
O1670 O 0.17819 0.72304 0.02558 0.0
O1671 O 0.08021 0.76894 0.98023 0.0
Sc1672 Sc 0.79288 0.89303 0.28941 0.0
Sc1673 Sc 0.7358 0.86203 0.23591 0.0
Sc1674 Sc 0.74374 0.94644 0.24262 0.0
O1675 O 0.75732 0.90056 0.25699 0.0
C1676 C 0.75577 0.95195 0.3204 0.0
C1677 C 0.74344 0.83292 0.30586 0.0
C1678 C 0.67804 0.91585 0.25781 0.0
C1679 C 0.80911 0.83702 0.23883 0.0
C1680 C 0.82037 0.95543 0.25562 0.0
C1681 C 0.75865 0.91537 0.17763 0.0
O1682 O 0.77153 0.92541 0.32496 0.0
O1683 O 0.72578 0.83238 0.28002 0.0
O1684 O 0.69199 0.93704 0.24068 0.0
O1685 O 0.81703 0.86281 0.25438 0.0
O1686 O 0.79352 0.96231 0.24181 0.0
O1687 O 0.7587 0.88644 0.1904 0.0
O1688 O 0.82412 0.93123 0.27434 0.0
O1689 O 0.77963 0.83118 0.22999 0.0
O1690 O 0.74077 0.93635 0.19102 0.0
O1691 O 0.76663 0.85326 0.30942 0.0
O1692 O 0.74505 0.96118 0.2927 0.0
O1693 O 0.69003 0.88669 0.25711 0.0
Sc1694 Sc 0.15813 0.54378 0.04136 0.0
Sc1695 Sc 0.1891 0.48666 -0.01267 0.0
Sc1696 Sc 0.10471 0.49446 -0.00507 0.0
O1697 O 0.15065 0.50841 0.00862 0.0
C1698 C 0.09883 0.50665 0.07245 0.0
C1699 C 0.21646 0.49273 0.05837 0.0
C1700 C 0.13581 0.42879 0.00967 0.0
C1701 C 0.21509 0.55944 -0.00942 0.0
C1702 C 0.09635 0.57186 0.00702 0.0
C1703 C 0.13554 0.50911 0.92945 0.0
O1704 O 0.12453 0.52377 0.07644 0.0
O1705 O 0.21843 0.4768 0.03151 0.0
O1706 O 0.11433 0.44275 -0.00715 0.0
O1707 O 0.19058 0.56721 0.00815 0.0
O1708 O 0.08878 0.54441 -0.00534 0.0
O1709 O 0.16465 0.50903 0.94174 0.0
O1710 O 0.1213 0.57619 0.02465 0.0
O1711 O 0.21998 0.53023 0.98043 0.0
O1712 O 0.11462 0.4915 0.94326 0.0
O1713 O 0.19605 0.51581 0.06246 0.0
O1714 O 0.09 0.49505 0.04504 0.0
O1715 O 0.16489 0.44085 0.00867 0.0
Sc1716 Sc 0.79525 0.90781 0.50649 0.0
Sc1717 Sc 0.73806 0.93891 0.56099 0.0
Sc1718 Sc 0.74687 0.85484 0.55389 0.0
O1719 O 0.76005 0.90059 0.53963 0.0
C1720 C 0.75778 0.84889 0.47546 0.0
C1721 C 0.74399 0.96617 0.49 0.0
C1722 C 0.68056 0.8851 0.53925 0.0
C1723 C 0.81098 0.96428 0.55758 0.0
C1724 C 0.82463 0.84735 0.54241 0.0
C1725 C 0.76037 0.88634 0.61968 0.0
O1726 O 0.77467 0.87465 0.47098 0.0
O1727 O 0.72792 0.96789 0.51677 0.0
O1728 O 0.69502 0.86373 0.55574 0.0
O1729 O 0.81873 0.93964 0.54019 0.0
O1730 O 0.79733 0.8402 0.55537 0.0
O1731 O 0.76018 0.91531 0.60711 0.0
O1732 O 0.82816 0.87092 0.52279 0.0
O1733 O 0.78174 0.96956 0.56743 0.0
O1734 O 0.74341 0.86508 0.6056 0.0
O1735 O 0.76726 0.94599 0.48589 0.0
O1736 O 0.7474 0.84 0.50346 0.0
O1737 O 0.69214 0.91439 0.54024 0.0
Sc1738 Sc 0.1424 0.04403 0.75884 0.0
Sc1739 Sc 0.11138 -0.01303 0.813 0.0
Sc1740 Sc 0.19567 -0.00445 0.80617 0.0
O1741 O 0.1498 0.00897 0.79193 0.0
C1742 C 0.20212 0.00704 0.72857 0.0
C1743 C 0.08421 -0.00719 0.74195 0.0
C1744 C 0.16546 0.92959 0.79094 0.0
C1745 C 0.08521 0.05971 0.80936 0.0
C1746 C 0.2034 0.07312 0.79371 0.0
C1747 C 0.16415 0.00965 0.8715 0.0
O1748 O 0.17618 0.02368 0.72409 0.0
O1749 O 0.08221 0.97685 0.76878 0.0
O1750 O 0.1867 0.94372 0.80792 0.0
O1751 O 0.10976 0.06748 0.79184 0.0
O1752 O 0.21077 0.04588 0.80673 0.0
O1753 O 0.1352 0.0095 0.85884 0.0
O1754 O 0.17899 0.07692 0.77521 0.0
O1755 O 0.08031 0.03051 0.81955 0.0
O1756 O 0.1853 -0.00774 0.85778 0.0
O1757 O 0.10466 0.01582 0.73795 0.0
O1758 O 0.21096 -0.00385 0.75628 0.0
O1759 O 0.13622 0.94136 0.79177 0.0
Sc1760 Sc 0.50886 0.79432 0.90846 0.0
Sc1761 Sc 0.56324 0.73723 0.93928 0.0
Sc1762 Sc 0.55615 0.74594 0.85508 0.0
O1763 O 0.54199 0.75927 0.90097 0.0
C1764 C 0.47845 0.75734 0.84878 0.0
C1765 C 0.49212 0.74289 0.96652 0.0
C1766 C 0.54106 0.67994 0.88531 0.0
C1767 C 0.55957 0.80983 0.96552 0.0
C1768 C 0.54376 0.82352 0.84746 0.0
C1769 C 0.62161 0.75998 0.88646 0.0
O1770 O 0.474 0.774 0.87472 0.0
O1771 O 0.51904 0.72703 0.9684 0.0
O1772 O 0.55793 0.6941 0.86402 0.0
O1773 O 0.54201 0.81767 0.941 0.0
O1774 O 0.55673 0.79627 0.84006 0.0
O1775 O 0.60904 0.75981 0.91543 0.0
O1776 O 0.5252 0.82728 0.87183 0.0
O1777 O 0.56982 0.78064 0.97035 0.0
O1778 O 0.60781 0.74261 0.86535 0.0
O1779 O 0.48794 0.76607 0.94626 0.0
O1780 O 0.50618 0.74655 0.8399 0.0
O1781 O 0.54204 0.69162 0.91456 0.0
Sc1782 Sc 0.49594 0.80632 0.69567 0.0
Sc1783 Sc 0.4876 0.81359 0.61146 0.0
Sc1784 Sc 0.54427 0.75877 0.64236 0.0
O1785 O 0.50958 0.79231 0.64977 0.0
C1786 C 0.5737 0.79401 0.70306 0.0
C1787 C 0.51006 0.87187 0.66444 0.0
C1788 C 0.5601 0.80987 0.58499 0.0
C1789 C 0.43012 0.79106 0.66541 0.0
C1790 C 0.50747 0.72886 0.70244 0.0
C1791 C 0.49273 0.74208 0.58464 0.0
O1792 O 0.54629 0.80651 0.71075 0.0
O1793 O 0.50983 0.85939 0.63546 0.0
O1794 O 0.5672 0.79052 0.60836 0.0
O1795 O 0.44411 0.80822 0.68659 0.0
O1796 O 0.52461 0.7245 0.67688 0.0
O1797 O 0.47796 0.76954 0.58201 0.0
O1798 O 0.49617 0.75645 0.71098 0.0
O1799 O 0.44211 0.79174 0.63624 0.0
O1800 O 0.51528 0.73725 0.60549 0.0
O1801 O 0.49279 0.85801 0.68558 0.0
O1802 O 0.57769 0.776 0.67828 0.0
O1803 O 0.53122 0.82124 0.58068 0.0
Sc1804 Sc 0.15903 0.04516 0.54187 0.0
Sc1805 Sc 0.18983 -0.01181 0.48716 0.0
Sc1806 Sc 0.10599 -0.00313 0.49419 0.0
O1807 O 0.15169 0.01024 0.50852 0.0
C1808 C 0.09957 0.00777 0.5721 0.0
C1809 C 0.21695 -0.00652 0.55836 0.0
C1810 C 0.13602 0.93056 0.50925 0.0
C1811 C 0.21617 0.06069 0.49111 0.0
C1812 C 0.09829 0.07461 0.50662 0.0
C1813 C 0.13708 0.01155 0.42874 0.0
O1814 O 0.12517 0.02484 0.57671 0.0
O1815 O 0.21892 0.97786 0.53132 0.0
O1816 O 0.11487 0.94485 0.4923 0.0
O1817 O 0.19181 0.06847 0.50892 0.0
O1818 O 0.09114 0.04734 0.49359 0.0
O1819 O 0.16602 0.01131 0.44144 0.0
O1820 O 0.12243 0.07836 0.52549 0.0
O1821 O 0.22089 0.03158 0.48063 0.0
O1822 O 0.11599 -0.00593 0.44241 0.0
O1823 O 0.19669 0.01664 0.56271 0.0
O1824 O 0.09105 -0.003 0.54427 0.0
O1825 O 0.1652 0.94246 0.50859 0.0
Sc1826 Sc 0.79443 0.39237 0.79388 0.0
Sc1827 Sc 0.73767 0.36209 0.73842 0.0
Sc1828 Sc 0.74643 0.44607 0.74643 0.0
O1829 O 0.75974 0.40008 0.76025 0.0
C1830 C 0.75794 0.45228 0.82457 0.0
C1831 C 0.74266 0.33453 0.80972 0.0
C1832 C 0.68039 0.41588 0.7612 0.0
C1833 C 0.81008 0.33572 0.74179 0.0
C1834 C 0.82412 0.45306 0.75805 0.0
C1835 C 0.76005 0.41507 0.68041 0.0
O1836 O 0.77488 0.42654 0.82889 0.0
O1837 O 0.72796 0.33253 0.78218 0.0
O1838 O 0.6946 0.4372 0.74447 0.0
O1839 O 0.81718 0.35878 0.76151 0.0
O1840 O 0.79676 0.4607 0.74549 0.0
O1841 O 0.75967 0.386 0.69261 0.0
O1842 O 0.82789 0.42866 0.77673 0.0
O1843 O 0.78121 0.33147 0.73046 0.0
O1844 O 0.7431 0.43627 0.69464 0.0
O1845 O 0.76543 0.35501 0.81512 0.0
O1846 O 0.74698 0.46099 0.79677 0.0
O1847 O 0.69211 0.38662 0.76016 0.0
Sc1848 Sc 0.79079 0.40854 0.00632 0.0
Sc1849 Sc 0.73734 0.43905 0.06411 0.0
Sc1850 Sc 0.74574 0.35462 0.05658 0.0
O1851 O 0.75884 0.40071 0.04233 0.0
C1852 C 0.75673 0.34581 0.97968 0.0
C1853 C 0.74012 0.46542 -0.00863 0.0
C1854 C 0.67998 0.38497 0.04179 0.0
C1855 C 0.80807 0.46677 0.05739 0.0
C1856 C 0.82359 0.3497 0.04303 0.0
C1857 C 0.7598 0.38617 0.12207 0.0
O1858 O 0.7737 0.37115 0.97488 0.0
O1859 O 0.73067 0.47035 0.02078 0.0
O1860 O 0.694 0.36401 0.05932 0.0
O1861 O 0.812 0.44701 0.0337 0.0
O1862 O 0.79637 0.34076 0.05534 0.0
O1863 O 0.75859 0.41522 0.11003 0.0
O1864 O 0.82696 0.3754 0.02576 0.0
O1865 O 0.78156 0.46803 0.07397 0.0
O1866 O 0.74312 0.36466 0.10814 0.0
O1867 O 0.75642 0.44021 0.98309 0.0
O1868 O 0.74517 0.33792 0.00728 0.0
O1869 O 0.69188 0.41425 0.04198 0.0
Sc1870 Sc 0.3061 0.10477 0.80518 0.0
Sc1871 Sc 0.31323 0.189 0.81387 0.0
Sc1872 Sc 0.25884 0.15823 0.75675 0.0
O1873 O 0.29211 0.15071 0.79168 0.0
C1874 C 0.29389 0.09746 0.72736 0.0
C1875 C 0.37156 0.13617 0.79123 0.0
C1876 C 0.30957 0.21577 0.74146 0.0
C1877 C 0.29087 0.13491 0.87114 0.0
C1878 C 0.2287 0.09816 0.79347 0.0
C1879 C 0.24186 0.21583 0.80839 0.0
O1880 O 0.30637 0.08974 0.75479 0.0
O1881 O 0.35908 0.16517 0.79157 0.0
O1882 O 0.29099 0.19196 0.73387 0.0
O1883 O 0.30795 0.11374 0.85704 0.0
O1884 O 0.22441 0.12382 0.77639 0.0
O1885 O 0.26907 0.21825 0.82364 0.0
O1886 O 0.25625 0.08951 0.80481 0.0
O1887 O 0.29163 0.16414 0.85933 0.0
O1888 O 0.23741 0.19521 0.78559 0.0
O1889 O 0.35773 0.11495 0.80843 0.0
O1890 O 0.27593 0.12227 0.72337 0.0
O1891 O 0.32053 0.22008 0.77048 0.0
Sc1892 Sc 0.94557 0.55554 0.0557 0.0
Sc1893 Sc 0.86137 0.56339 0.06365 0.0
Sc1894 Sc 0.89196 0.50603 0.00958 0.0
O1895 O 0.89962 0.54159 0.04213 0.0
C1896 C 0.95101 0.54291 0.97768 0.0
C1897 C 0.91448 0.62145 0.0419 0.0
C1898 C 0.83393 0.55739 -0.00731 0.0
C1899 C 0.91503 0.54024 0.12123 0.0
C1900 C 0.95408 0.47855 0.04406 0.0
C1901 C 0.83493 0.49078 0.06008 0.0
O1902 O 0.95971 0.55491 0.00511 0.0
O1903 O 0.88542 0.60939 0.04265 0.0
O1904 O 0.85386 0.5339 -0.01149 0.0
O1905 O 0.93612 0.55773 0.10746 0.0
O1906 O 0.92903 0.47406 0.02656 0.0
O1907 O 0.83016 0.52004 0.07009 0.0
O1908 O 0.9618 0.50599 0.05607 0.0
O1909 O 0.88584 0.54067 0.10908 0.0
O1910 O 0.85977 0.48267 0.04317 0.0
O1911 O 0.93581 0.60724 0.05863 0.0
O1912 O 0.92539 0.52565 0.97393 0.0
O1913 O 0.83237 0.57352 0.01945 0.0
Sc1914 Sc 0.3066 0.19601 0.49658 0.0
Sc1915 Sc 0.314 0.11189 0.48793 0.0
Sc1916 Sc 0.25948 0.14257 0.54501 0.0
O1917 O 0.29266 0.15011 0.51002 0.0
C1918 C 0.29428 0.20348 0.57427 0.0
C1919 C 0.37219 0.16473 0.51071 0.0
C1920 C 0.31029 0.08537 0.56048 0.0
C1921 C 0.29164 0.16581 0.43055 0.0
C1922 C 0.22894 0.20224 0.50791 0.0
C1923 C 0.24281 0.08497 0.49328 0.0
O1924 O 0.30697 0.21103 0.54694 0.0
O1925 O 0.35978 0.13571 0.51043 0.0
O1926 O 0.29231 0.1096 0.56824 0.0
O1927 O 0.30849 0.18709 0.44474 0.0
O1928 O 0.22465 0.17651 0.5249 0.0
O1929 O 0.26986 0.08289 0.47772 0.0
O1930 O 0.25659 0.21105 0.49692 0.0
O1931 O 0.29263 0.13657 0.4423 0.0
O1932 O 0.23847 0.10517 0.51645 0.0
O1933 O 0.3583 0.18588 0.49342 0.0
O1934 O 0.27604 0.17891 0.57817 0.0
O1935 O 0.3208 0.08076 0.53135 0.0
Sc1936 Sc 0.50872 0.50653 0.39278 0.0
Sc1937 Sc 0.56327 0.56335 0.36183 0.0
Sc1938 Sc 0.55613 0.55501 0.44606 0.0
O1939 O 0.5421 0.54135 0.40017 0.0
C1940 C 0.47868 0.54346 0.45277 0.0
C1941 C 0.49184 0.55803 0.33502 0.0
C1942 C 0.54091 0.62085 0.41568 0.0
C1943 C 0.55927 0.49097 0.33509 0.0
C1944 C 0.54387 0.47731 0.45367 0.0
C1945 C 0.62162 0.54081 0.41477 0.0
O1946 O 0.47437 0.52631 0.4272 0.0
O1947 O 0.51913 0.5731 0.33251 0.0
O1948 O 0.558 0.60682 0.43691 0.0
O1949 O 0.5406 0.48347 0.35887 0.0
O1950 O 0.55639 0.50472 0.46128 0.0
O1951 O 0.60911 0.541 0.38577 0.0
O1952 O 0.5259 0.47325 0.42887 0.0
O1953 O 0.5705 0.51989 0.33087 0.0
O1954 O 0.60779 0.55815 0.43587 0.0
O1955 O 0.48724 0.53537 0.35577 0.0
O1956 O 0.50626 0.55476 0.46136 0.0
O1957 O 0.54166 0.60891 0.38651 0.0
Sc1958 Sc 0.54431 0.54244 0.65883 0.0
Sc1959 Sc 0.48765 0.48772 0.6898 0.0
Sc1960 Sc 0.49596 0.49491 0.60557 0.0
O1961 O 0.5096 0.50895 0.65145 0.0
C1962 C 0.50743 0.57237 0.59876 0.0
C1963 C 0.49279 0.55919 0.71652 0.0
C1964 C 0.43012 0.51014 0.63588 0.0
C1965 C 0.56019 0.49145 0.71621 0.0
C1966 C 0.57368 0.5072 0.59812 0.0
C1967 C 0.51012 0.4294 0.63695 0.0
O1968 O 0.52454 0.57674 0.62436 0.0
O1969 O 0.47795 0.53179 0.71912 0.0
O1970 O 0.44414 0.49302 0.61469 0.0
O1971 O 0.56735 0.51059 0.69271 0.0
O1972 O 0.54628 0.49469 0.59046 0.0
O1973 O 0.50986 0.44187 0.66594 0.0
O1974 O 0.57768 0.52524 0.62287 0.0
O1975 O 0.53129 0.4802 0.72059 0.0
O1976 O 0.49285 0.44326 0.61578 0.0
O1977 O 0.5154 0.56394 0.69575 0.0
O1978 O 0.49617 0.54477 0.59021 0.0
O1979 O 0.44208 0.50941 0.66506 0.0
Sc1980 Sc 0.85516 0.74446 0.55615 0.0
Sc1981 Sc 0.93944 0.73739 0.56448 0.0
Sc1982 Sc 0.90862 0.79057 0.50683 0.0
O1983 O 0.90101 0.75858 0.54273 0.0
C1984 C 0.84605 0.75728 0.47948 0.0
C1985 C 0.88624 0.67905 0.54194 0.0
C1986 C 0.96398 0.73948 0.49105 0.0
C1987 C 0.88568 0.76 0.62187 0.0
C1988 C 0.84999 0.82229 0.54363 0.0
C1989 C 0.96894 0.80686 0.55612 0.0
O1990 O 0.83941 0.74329 0.50627 0.0
O1991 O 0.91521 0.69168 0.54196 0.0
O1992 O 0.93794 0.75454 0.48301 0.0
O1993 O 0.86438 0.74298 0.60793 0.0
O1994 O 0.87667 0.82667 0.52803 0.0
O1995 O 0.96908 0.78142 0.57433 0.0
O1996 O 0.84062 0.79466 0.55443 0.0
O1997 O 0.91491 0.75891 0.61011 0.0
O1998 O 0.94879 0.81019 0.53272 0.0
O1999 O 0.86521 0.69276 0.55954 0.0
O2000 O 0.87014 0.77607 0.47576 0.0
O2001 O 0.97016 0.73129 0.52065 0.0
Sc2002 Sc 0.90854 0.5094 0.79406 0.0
Sc2003 Sc 0.93936 0.56328 0.73682 0.0
Sc2004 Sc 0.85514 0.5562 0.74516 0.0
O2005 O 0.90099 0.54205 0.75862 0.0
C2006 C 0.84937 0.47828 0.75744 0.0
C2007 C 0.96703 0.49261 0.74316 0.0
C2008 C 0.88554 0.54097 0.67936 0.0
C2009 C 0.96474 0.56014 0.80996 0.0
C2010 C 0.84697 0.54394 0.82214 0.0
C2011 C 0.88641 0.62172 0.75927 0.0
O2012 O 0.87568 0.47389 0.77352 0.0
O2013 O 0.96834 0.51906 0.72652 0.0
O2014 O 0.86422 0.55788 0.69339 0.0
O2015 O 0.93951 0.54376 0.81783 0.0
O2016 O 0.83981 0.55728 0.79512 0.0
O2017 O 0.9154 0.60912 0.75922 0.0
O2018 O 0.87115 0.52519 0.82593 0.0
O2019 O 0.97031 0.56939 0.78056 0.0
O2020 O 0.86532 0.6079 0.74184 0.0
O2021 O 0.94716 0.48887 0.76671 0.0
O2022 O 0.84027 0.50598 0.74651 0.0
O2023 O 0.91478 0.54206 0.69109 0.0
Sc2024 Sc 0.54317 0.1573 0.04632 0.0
Sc2025 Sc 0.48865 0.18816 -0.01118 0.0
Sc2026 Sc 0.4962 0.10421 -0.00234 0.0
O2027 O 0.51017 0.14997 0.01095 0.0
C2028 C 0.57469 0.0985 0.00876 0.0
C2029 C 0.55956 0.21528 -0.0052 0.0
C2030 C 0.51061 0.13451 0.93131 0.0
C2031 C 0.49202 0.21387 0.06161 0.0
C2032 C 0.50745 0.09681 0.07553 0.0
C2033 C 0.43021 0.13552 0.01116 0.0
O2034 O 0.57893 0.12407 0.02604 0.0
O2035 O 0.53281 0.21695 0.9787 0.0
O2036 O 0.49422 0.11312 0.94579 0.0
O2037 O 0.50926 0.18918 0.06955 0.0
O2038 O 0.49481 0.08952 0.04811 0.0
O2039 O 0.44259 0.16455 0.01089 0.0
O2040 O 0.52681 0.12055 0.07927 0.0
O2041 O 0.4822 0.219 0.03234 0.0
O2042 O 0.44442 0.11425 -0.00572 0.0
O2043 O 0.56373 0.19533 0.01824 0.0
O2044 O 0.54677 0.08967 -0.00192 0.0
O2045 O 0.50951 0.16378 0.94289 0.0
Sc2046 Sc 0.55383 0.94493 0.05618 0.0
Sc2047 Sc 0.56254 0.86114 0.06335 0.0
Sc2048 Sc 0.50552 0.89186 0.00858 0.0
O2049 O 0.54042 0.89923 0.04197 0.0
C2050 C 0.47601 0.95244 0.04391 0.0
C2051 C 0.53932 0.91384 0.1217 0.0
C2052 C 0.49 0.83484 0.05968 0.0
C2053 C 0.62006 0.91499 0.04088 0.0
C2054 C 0.54276 0.95139 0.97834 0.0
C2055 C 0.5573 0.83414 -0.00787 0.0
O2056 O 0.50333 0.95969 0.05678 0.0
O2057 O 0.53959 0.8849 0.10908 0.0
O2058 O 0.48239 0.85885 0.04133 0.0
O2059 O 0.60586 0.93611 0.05795 0.0
O2060 O 0.52562 0.92583 0.97377 0.0
O2061 O 0.5727 0.83202 0.01928 0.0
O2062 O 0.55362 0.95988 0.00612 0.0
O2063 O 0.60814 0.88581 0.04158 0.0
O2064 O 0.5342 0.85444 -0.01237 0.0
O2065 O 0.55673 0.93495 0.10797 0.0
O2066 O 0.47221 0.92825 0.02513 0.0
O2067 O 0.5191 0.83017 0.07029 0.0
Sc2068 Sc 0.19606 0.30501 0.49488 0.0
Sc2069 Sc 0.11187 0.31352 0.48746 0.0
Sc2070 Sc 0.14264 0.25669 0.54223 0.0
O2071 O 0.15013 0.29141 0.50876 0.0
C2072 C 0.20347 0.22721 0.5073 0.0
C2073 C 0.16483 0.29083 0.42933 0.0
C2074 C 0.08494 0.24125 0.49149 0.0
C2075 C 0.16578 0.3709 0.50997 0.0
C2076 C 0.20273 0.29348 0.57227 0.0
C2077 C 0.08505 0.30837 0.55888 0.0
O2078 O 0.2112 0.25465 0.49489 0.0
O2079 O 0.13581 0.29119 0.44171 0.0
O2080 O 0.10845 0.23384 0.51056 0.0
O2081 O 0.18698 0.35684 0.49288 0.0
O2082 O 0.17722 0.27624 0.57651 0.0
O2083 O 0.08244 0.32321 0.53147 0.0
O2084 O 0.2113 0.30488 0.54474 0.0
O2085 O 0.1366 0.359 0.50921 0.0
O2086 O 0.10588 0.28581 0.56369 0.0
O2087 O 0.18599 0.30807 0.44319 0.0
O2088 O 0.17851 0.22315 0.52504 0.0
O2089 O 0.08091 0.2701 0.47999 0.0
Sc2090 Sc 0.14235 0.54441 0.2589 0.0
Sc2091 Sc 0.11152 0.48769 0.31363 0.0
Sc2092 Sc 0.19572 0.49591 0.30638 0.0
O2093 O 0.14981 0.50965 0.2924 0.0
C2094 C 0.20233 0.50735 0.22885 0.0
C2095 C 0.08487 0.49278 0.24209 0.0
C2096 C 0.16552 0.43002 0.29135 0.0
C2097 C 0.08472 0.56021 0.30965 0.0
C2098 C 0.20302 0.57369 0.29426 0.0
C2099 C 0.16451 0.51018 0.37191 0.0
O2100 O 0.17689 0.52474 0.22461 0.0
O2101 O 0.08226 0.47796 0.26952 0.0
O2102 O 0.18669 0.44407 0.30845 0.0
O2103 O 0.10822 0.56741 0.29054 0.0
O2104 O 0.2108 0.54622 0.30654 0.0
O2105 O 0.1355 0.50994 0.35944 0.0
O2106 O 0.17819 0.57779 0.27632 0.0
O2107 O 0.08054 0.53132 0.32105 0.0
O2108 O 0.18567 0.49291 0.35807 0.0
O2109 O 0.10558 0.51541 0.23731 0.0
O2110 O 0.21088 0.49597 0.25643 0.0
O2111 O 0.13636 0.44209 0.29194 0.0
loop_
_geom_bond_atom_site_label_1
_geom_bond_atom_site_label_2
_geom_bond_distance
_geom_bond_site_symmetry_2
_ccdc_geom_bond_type
Sc0 O3 2.025 . S
Sc0 O10 2.105 1_455 S
Sc0 O13 2.105 1_545 S
Sc0 O16 2.105 1_545 S
Sc0 O19 2.105 1_455 S
Sc1 O3 2.025 . S
Sc1 O11 2.105 . S
Sc1 O15 2.105 . S
Sc1 O17 2.105 . S
Sc1 O21 2.105 . S
Sc2 O3 2.025 . S
Sc2 O12 2.105 . S
Sc2 O14 2.105 . S
Sc2 O18 2.105 . S
Sc2 O20 2.105 . S
O3 Sc0 2.025 . S
O3 Sc1 2.025 . S
O3 Sc2 2.025 . S
C4 O10 1.268 . S
C4 O20 1.268 1_655 S
C5 O11 1.268 . S
C5 O19 1.268 1_455 S
C6 O12 1.268 . S
C6 O21 1.268 . S
C7 O13 1.268 1_545 S
C7 O17 1.268 . S
C8 O14 1.268 1_565 S
C8 O16 1.268 . S
C9 O15 1.268 . S
C9 O18 1.268 . S
O10 Sc0 2.105 1_655 S
O10 C4 1.268 . S
O11 Sc1 2.105 . S
O11 C5 1.268 . S
O12 Sc2 2.105 . S
O12 C6 1.268 . S
O13 Sc0 2.105 1_565 S
O13 C7 1.268 1_565 S
O14 Sc2 2.105 . S
O14 C8 1.268 1_545 S
O15 Sc1 2.105 . S
O15 C9 1.268 . S
O16 Sc0 2.105 1_565 S
O16 C8 1.268 . S
O17 Sc1 2.105 . S
O17 C7 1.268 . S
O18 Sc2 2.105 . S
O18 C9 1.268 . S
O19 Sc0 2.105 1_655 S
O19 C5 1.268 1_655 S
O20 Sc2 2.105 . S
O20 C4 1.268 1_455 S
O21 Sc1 2.105 . S
O21 C6 1.268 . S
Sc22 O25 2.025 . S
Sc22 O32 2.105 . S
Sc22 O35 2.105 1_455 S
Sc22 O38 2.105 . S
Sc22 O41 2.105 . S
Sc23 O25 2.025 1_655 S
Sc23 O33 2.105 1_655 S
Sc23 O37 2.105 . S
Sc23 O39 2.105 . S
Sc23 O43 2.104 1_655 S
Sc24 O25 2.025 . S
Sc24 O34 2.105 . S
Sc24 O36 2.105 . S
Sc24 O40 2.105 . S
Sc24 O42 2.105 . S
O25 Sc22 2.025 . S
O25 Sc23 2.025 1_455 S
O25 Sc24 2.025 . S
C26 O32 1.268 . S
C26 O42 1.268 . S
C27 O33 1.268 . S
C27 O41 1.268 . S
C28 O34 1.268 . S
C28 O43 1.268 . S
C29 O35 1.268 . S
C29 O39 1.268 . S
C30 O36 1.268 . S
C30 O38 1.268 . S
C31 O37 1.268 1_455 S
C31 O40 1.268 . S
O32 Sc22 2.105 . S
O32 C26 1.268 . S
O33 Sc23 2.105 1_455 S
O33 C27 1.268 . S
O34 Sc24 2.105 . S
O34 C28 1.268 . S
O35 Sc22 2.105 1_655 S
O35 C29 1.268 . S
O36 Sc24 2.105 . S
O36 C30 1.268 . S
O37 Sc23 2.105 . S
O37 C31 1.268 1_655 S
O38 Sc22 2.105 . S
O38 C30 1.268 . S
O39 Sc23 2.105 . S
O39 C29 1.268 . S
O40 Sc24 2.105 . S
O40 C31 1.268 . S
O41 Sc22 2.105 . S
O41 C27 1.268 . S
O42 Sc24 2.105 . S
O42 C26 1.268 . S
O43 Sc23 2.104 1_455 S
O43 C28 1.268 . S
Sc44 O47 2.025 . S
Sc44 O54 2.105 . S
Sc44 O57 2.105 . S
Sc44 O60 2.105 . S
Sc44 O63 2.105 . S
Sc45 O47 2.025 . S
Sc45 O55 2.105 . S
Sc45 O59 2.105 . S
Sc45 O61 2.105 . S
Sc45 O65 2.105 . S
Sc46 O47 2.025 . S
Sc46 O56 2.105 . S
Sc46 O58 2.105 . S
Sc46 O62 2.105 . S
Sc46 O64 2.105 . S
O47 Sc44 2.025 . S
O47 Sc45 2.025 . S
O47 Sc46 2.025 . S
C48 O54 1.268 . S
C48 O64 1.268 . S
C49 O55 1.268 . S
C49 O63 1.268 . S
C50 O56 1.268 . S
C50 O65 1.268 . S
C51 O57 1.268 . S
C51 O61 1.268 . S
C52 O58 1.268 . S
C52 O60 1.268 . S
C53 O59 1.268 . S
C53 O62 1.268 . S
O54 Sc44 2.105 . S
O54 C48 1.268 . S
O55 Sc45 2.105 . S
O55 C49 1.268 . S
O56 Sc46 2.105 . S
O56 C50 1.268 . S
O57 Sc44 2.105 . S
O57 C51 1.268 . S
O58 Sc46 2.105 . S
O58 C52 1.268 . S
O59 Sc45 2.105 . S
O59 C53 1.268 . S
O60 Sc44 2.105 . S
O60 C52 1.268 . S
O61 Sc45 2.105 . S
O61 C51 1.268 . S
O62 Sc46 2.105 . S
O62 C53 1.268 . S
O63 Sc44 2.105 . S
O63 C49 1.268 . S
O64 Sc46 2.105 . S
O64 C48 1.268 . S
O65 Sc45 2.105 . S
O65 C50 1.268 . S
Sc66 O69 2.025 . S
Sc66 O76 2.105 . S
Sc66 O79 2.105 . S
Sc66 O82 2.105 . S
Sc66 O85 2.105 . S
Sc67 O69 2.025 1_565 S
Sc67 O77 2.104 1_565 S
Sc67 O81 2.105 . S
Sc67 O83 2.105 . S
Sc67 O87 2.105 1_565 S
Sc68 O69 2.025 . S
Sc68 O78 2.105 . S
Sc68 O80 2.105 . S
Sc68 O84 2.105 1_545 S
Sc68 O86 2.105 . S
O69 Sc66 2.025 . S
O69 Sc67 2.025 1_545 S
O69 Sc68 2.025 . S
C70 O76 1.268 . S
C70 O86 1.268 . S
C71 O77 1.268 . S
C71 O85 1.268 . S
C72 O78 1.268 . S
C72 O87 1.268 . S
C73 O79 1.268 . S
C73 O83 1.268 1_545 S
C74 O80 1.268 . S
C74 O82 1.268 . S
C75 O81 1.268 . S
C75 O84 1.268 . S
O76 Sc66 2.105 . S
O76 C70 1.268 . S
O77 Sc67 2.104 1_545 S
O77 C71 1.268 . S
O78 Sc68 2.105 . S
O78 C72 1.268 . S
O79 Sc66 2.105 . S
O79 C73 1.268 . S
O80 Sc68 2.105 . S
O80 C74 1.268 . S
O81 Sc67 2.105 . S
O81 C75 1.268 . S
O82 Sc66 2.105 . S
O82 C74 1.268 . S
O83 Sc67 2.105 . S
O83 C73 1.268 1_565 S
O84 Sc68 2.105 1_565 S
O84 C75 1.268 . S
O85 Sc66 2.105 . S
O85 C71 1.268 . S
O86 Sc68 2.105 . S
O86 C70 1.268 . S
O87 Sc67 2.105 1_545 S
O87 C72 1.268 . S
Sc88 O91 2.025 . S
Sc88 O98 2.105 1_455 S
Sc88 O101 2.105 . S
Sc88 O104 2.105 . S
Sc88 O107 2.105 1_455 S
Sc89 O91 2.025 . S
Sc89 O99 2.105 . S
Sc89 O103 2.105 . S
Sc89 O105 2.105 . S
Sc89 O109 2.105 . S
Sc90 O91 2.025 . S
Sc90 O100 2.105 . S
Sc90 O102 2.105 . S
Sc90 O106 2.105 . S
Sc90 O108 2.105 . S
O91 Sc88 2.025 . S
O91 Sc89 2.025 . S
O91 Sc90 2.025 . S
C92 O98 1.268 . S
C92 O108 1.268 1_655 S
C93 O99 1.268 . S
C93 O107 1.268 1_455 S
C94 O100 1.268 . S
C94 O109 1.268 . S
C95 O101 1.268 . S
C95 O105 1.268 . S
C96 O102 1.268 . S
C96 O104 1.268 . S
C97 O103 1.268 . S
C97 O106 1.268 . S
O98 Sc88 2.105 1_655 S
O98 C92 1.268 . S
O99 Sc89 2.105 . S
O99 C93 1.268 . S
O100 Sc90 2.105 . S
O100 C94 1.268 . S
O101 Sc88 2.105 . S
O101 C95 1.268 . S
O102 Sc90 2.105 . S
O102 C96 1.268 . S
O103 Sc89 2.105 . S
O103 C97 1.268 . S
O104 Sc88 2.105 . S
O104 C96 1.268 . S
O105 Sc89 2.105 . S
O105 C95 1.268 . S
O106 Sc90 2.105 . S
O106 C97 1.268 . S
O107 Sc88 2.105 1_655 S
O107 C93 1.268 1_655 S
O108 Sc90 2.105 . S
O108 C92 1.268 1_455 S
O109 Sc89 2.105 . S
O109 C94 1.268 . S
Sc110 O113 2.025 . S
Sc110 O120 2.105 . S
Sc110 O123 2.105 . S
Sc110 O126 2.105 . S
Sc110 O129 2.105 . S
Sc111 O113 2.025 . S
Sc111 O121 2.105 . S
Sc111 O125 2.105 . S
Sc111 O127 2.105 . S
Sc111 O131 2.105 . S
Sc112 O113 2.025 . S
Sc112 O122 2.105 . S
Sc112 O124 2.105 . S
Sc112 O128 2.105 . S
Sc112 O130 2.105 . S
O113 Sc110 2.025 . S
O113 Sc111 2.025 . S
O113 Sc112 2.025 . S
C114 O120 1.268 . S
C114 O130 1.268 . S
C115 O121 1.268 . S
C115 O129 1.268 . S
C116 O122 1.268 . S
C116 O131 1.268 . S
C117 O123 1.268 . S
C117 O127 1.268 . S
C118 O124 1.268 . S
C118 O126 1.268 . S
C119 O125 1.268 . S
C119 O128 1.268 . S
O120 Sc110 2.105 . S
O120 C114 1.268 . S
O121 Sc111 2.105 . S
O121 C115 1.268 . S
O122 Sc112 2.105 . S
O122 C116 1.268 . S
O123 Sc110 2.105 . S
O123 C117 1.268 . S
O124 Sc112 2.105 . S
O124 C118 1.268 . S
O125 Sc111 2.105 . S
O125 C119 1.268 . S
O126 Sc110 2.105 . S
O126 C118 1.268 . S
O127 Sc111 2.105 . S
O127 C117 1.268 . S
O128 Sc112 2.105 . S
O128 C119 1.268 . S
O129 Sc110 2.105 . S
O129 C115 1.268 . S
O130 Sc112 2.105 . S
O130 C114 1.268 . S
O131 Sc111 2.105 . S
O131 C116 1.268 . S
Sc132 O135 2.025 . S
Sc132 O142 2.105 . S
Sc132 O145 2.105 . S
Sc132 O148 2.105 . S
Sc132 O151 2.105 . S
Sc133 O135 2.025 . S
Sc133 O143 2.105 . S
Sc133 O147 2.105 . S
Sc133 O149 2.105 . S
Sc133 O153 2.105 . S
Sc134 O135 2.025 . S
Sc134 O144 2.105 1_545 S
Sc134 O146 2.105 . S
Sc134 O150 2.105 . S
Sc134 O152 2.105 1_545 S
O135 Sc132 2.025 . S
O135 Sc133 2.025 . S
O135 Sc134 2.025 . S
C136 O142 1.268 1_565 S
C136 O152 1.268 . S
C137 O143 1.268 . S
C137 O151 1.268 . S
C138 O144 1.268 1_545 S
C138 O153 1.268 . S
C139 O145 1.268 . S
C139 O149 1.268 . S
C140 O146 1.268 . S
C140 O148 1.268 . S
C141 O147 1.268 . S
C141 O150 1.268 . S
O142 Sc132 2.105 . S
O142 C136 1.268 1_545 S
O143 Sc133 2.105 . S
O143 C137 1.268 . S
O144 Sc134 2.105 1_565 S
O144 C138 1.268 1_565 S
O145 Sc132 2.105 . S
O145 C139 1.268 . S
O146 Sc134 2.105 . S
O146 C140 1.268 . S
O147 Sc133 2.105 . S
O147 C141 1.268 . S
O148 Sc132 2.105 . S
O148 C140 1.268 . S
O149 Sc133 2.105 . S
O149 C139 1.268 . S
O150 Sc134 2.105 . S
O150 C141 1.268 . S
O151 Sc132 2.105 . S
O151 C137 1.268 . S
O152 Sc134 2.105 1_565 S
O152 C136 1.268 . S
O153 Sc133 2.105 . S
O153 C138 1.268 . S
Sc154 O157 2.025 . S
Sc154 O164 2.105 . S
Sc154 O167 2.105 . S
Sc154 O170 2.105 . S
Sc154 O173 2.105 . S
Sc155 O157 2.025 1_665 S
Sc155 O165 2.105 1_565 S
Sc155 O169 2.105 1_655 S
Sc155 O171 2.105 1_655 S
Sc155 O175 2.105 1_565 S
Sc156 O157 2.025 . S
Sc156 O166 2.105 1_455 S
Sc156 O168 2.105 . S
Sc156 O172 2.105 1_545 S
Sc156 O174 2.105 . S
O157 Sc154 2.025 . S
O157 Sc155 2.025 1_445 S
O157 Sc156 2.025 . S
C158 O164 1.268 . S
C158 O174 1.268 . S
C159 O165 1.268 1_455 S
C159 O173 1.268 . S
C160 O166 1.268 . S
C160 O175 1.268 . S
C161 O167 1.268 . S
C161 O171 1.268 1_545 S
C162 O168 1.268 . S
C162 O170 1.268 . S
C163 O169 1.268 . S
C163 O172 1.268 . S
O164 Sc154 2.105 . S
O164 C158 1.268 . S
O165 Sc155 2.105 1_545 S
O165 C159 1.268 1_655 S
O166 Sc156 2.105 1_655 S
O166 C160 1.268 . S
O167 Sc154 2.105 . S
O167 C161 1.268 . S
O168 Sc156 2.105 . S
O168 C162 1.268 . S
O169 Sc155 2.105 1_455 S
O169 C163 1.268 . S
O170 Sc154 2.105 . S
O170 C162 1.268 . S
O171 Sc155 2.105 1_455 S
O171 C161 1.268 1_565 S
O172 Sc156 2.105 1_565 S
O172 C163 1.268 . S
O173 Sc154 2.105 . S
O173 C159 1.268 . S
O174 Sc156 2.105 . S
O174 C158 1.268 . S
O175 Sc155 2.105 1_545 S
O175 C160 1.268 . S
Sc176 O179 2.025 . S
Sc176 O186 2.105 . S
Sc176 O189 2.105 . S
Sc176 O192 2.105 . S
Sc176 O195 2.105 . S
Sc177 O179 2.025 . S
Sc177 O187 2.105 . S
Sc177 O191 2.105 . S
Sc177 O193 2.105 . S
Sc177 O197 2.105 . S
Sc178 O179 2.025 . S
Sc178 O188 2.105 1_554 S
Sc178 O190 2.105 1_545 S
Sc178 O194 2.105 1_545 S
Sc178 O196 2.105 1_554 S
O179 Sc176 2.025 . S
O179 Sc177 2.025 . S
O179 Sc178 2.025 . S
C180 O186 1.268 1_556 S
C180 O196 1.268 . S
C181 O187 1.268 . S
C181 O195 1.268 . S
C182 O188 1.268 1_554 S
C182 O197 1.268 . S
C183 O189 1.268 . S
C183 O193 1.268 . S
C184 O190 1.268 . S
C184 O192 1.268 1_565 S
C185 O191 1.268 . S
C185 O194 1.268 1_545 S
O186 Sc176 2.105 . S
O186 C180 1.268 1_554 S
O187 Sc177 2.105 . S
O187 C181 1.268 . S
O188 Sc178 2.105 1_556 S
O188 C182 1.268 1_556 S
O189 Sc176 2.105 . S
O189 C183 1.268 . S
O190 Sc178 2.105 1_565 S
O190 C184 1.268 . S
O191 Sc177 2.105 . S
O191 C185 1.268 . S
O192 Sc176 2.105 . S
O192 C184 1.268 1_545 S
O193 Sc177 2.105 . S
O193 C183 1.268 . S
O194 Sc178 2.105 1_565 S
O194 C185 1.268 1_565 S
O195 Sc176 2.105 . S
O195 C181 1.268 . S
O196 Sc178 2.105 1_556 S
O196 C180 1.268 . S
O197 Sc177 2.105 . S
O197 C182 1.268 . S
Sc198 O201 2.025 . S
Sc198 O208 2.105 . S
Sc198 O211 2.105 . S
Sc198 O214 2.105 . S
Sc198 O217 2.105 . S
Sc199 O201 2.025 1_655 S
Sc199 O209 2.104 1_655 S
Sc199 O213 2.105 . S
Sc199 O215 2.105 . S
Sc199 O219 2.105 1_655 S
Sc200 O201 2.025 . S
Sc200 O210 2.105 . S
Sc200 O212 2.105 . S
Sc200 O216 2.105 1_455 S
Sc200 O218 2.105 . S
O201 Sc198 2.025 . S
O201 Sc199 2.025 1_455 S
O201 Sc200 2.025 . S
C202 O208 1.268 . S
C202 O218 1.268 . S
C203 O209 1.268 . S
C203 O217 1.268 . S
C204 O210 1.268 . S
C204 O219 1.268 . S
C205 O211 1.268 . S
C205 O215 1.268 1_455 S
C206 O212 1.268 . S
C206 O214 1.268 . S
C207 O213 1.268 . S
C207 O216 1.268 . S
O208 Sc198 2.105 . S
O208 C202 1.268 . S
O209 Sc199 2.104 1_455 S
O209 C203 1.268 . S
O210 Sc200 2.105 . S
O210 C204 1.268 . S
O211 Sc198 2.105 . S
O211 C205 1.268 . S
O212 Sc200 2.105 . S
O212 C206 1.268 . S
O213 Sc199 2.105 . S
O213 C207 1.268 . S
O214 Sc198 2.105 . S
O214 C206 1.268 . S
O215 Sc199 2.105 . S
O215 C205 1.268 1_655 S
O216 Sc200 2.105 1_655 S
O216 C207 1.268 . S
O217 Sc198 2.105 . S
O217 C203 1.268 . S
O218 Sc200 2.105 . S
O218 C202 1.268 . S
O219 Sc199 2.105 1_455 S
O219 C204 1.268 . S
Sc220 O223 2.025 . S
Sc220 O230 2.105 . S
Sc220 O233 2.105 . S
Sc220 O236 2.105 . S
Sc220 O239 2.105 . S
Sc221 O223 2.025 . S
Sc221 O231 2.105 . S
Sc221 O235 2.105 . S
Sc221 O237 2.105 . S
Sc221 O241 2.105 . S
Sc222 O223 2.025 . S
Sc222 O232 2.105 . S
Sc222 O234 2.105 . S
Sc222 O238 2.105 . S
Sc222 O240 2.105 . S
O223 Sc220 2.025 . S
O223 Sc221 2.025 . S
O223 Sc222 2.025 . S
C224 O230 1.268 . S
C224 O240 1.268 . S
C225 O231 1.268 . S
C225 O239 1.268 . S
C226 O232 1.268 . S
C226 O241 1.268 . S
C227 O233 1.268 . S
C227 O237 1.268 . S
C228 O234 1.268 . S
C228 O236 1.268 . S
C229 O235 1.268 . S
C229 O238 1.268 . S
O230 Sc220 2.105 . S
O230 C224 1.268 . S
O231 Sc221 2.105 . S
O231 C225 1.268 . S
O232 Sc222 2.105 . S
O232 C226 1.268 . S
O233 Sc220 2.105 . S
O233 C227 1.268 . S
O234 Sc222 2.105 . S
O234 C228 1.268 . S
O235 Sc221 2.105 . S
O235 C229 1.268 . S
O236 Sc220 2.105 . S
O236 C228 1.268 . S
O237 Sc221 2.105 . S
O237 C227 1.268 . S
O238 Sc222 2.105 . S
O238 C229 1.268 . S
O239 Sc220 2.105 . S
O239 C225 1.268 . S
O240 Sc222 2.105 . S
O240 C224 1.268 . S
O241 Sc221 2.105 . S
O241 C226 1.268 . S
Sc242 O245 2.025 . S
Sc242 O252 2.105 . S
Sc242 O255 2.105 . S
Sc242 O258 2.105 . S
Sc242 O261 2.105 . S
Sc243 O245 2.025 . S
Sc243 O253 2.105 . S
Sc243 O257 2.105 . S
Sc243 O259 2.105 . S
Sc243 O263 2.105 . S
Sc244 O245 2.025 . S
Sc244 O254 2.105 . S
Sc244 O256 2.105 . S
Sc244 O260 2.105 . S
Sc244 O262 2.105 . S
O245 Sc242 2.025 . S
O245 Sc243 2.025 . S
O245 Sc244 2.025 . S
C246 O252 1.268 . S
C246 O262 1.268 . S
C247 O253 1.268 . S
C247 O261 1.268 . S
C248 O254 1.268 . S
C248 O263 1.268 . S
C249 O255 1.268 . S
C249 O259 1.268 . S
C250 O256 1.268 . S
C250 O258 1.268 . S
C251 O257 1.268 . S
C251 O260 1.268 . S
O252 Sc242 2.105 . S
O252 C246 1.268 . S
O253 Sc243 2.105 . S
O253 C247 1.268 . S
O254 Sc244 2.105 . S
O254 C248 1.268 . S
O255 Sc242 2.105 . S
O255 C249 1.268 . S
O256 Sc244 2.105 . S
O256 C250 1.268 . S
O257 Sc243 2.105 . S
O257 C251 1.268 . S
O258 Sc242 2.105 . S
O258 C250 1.268 . S
O259 Sc243 2.105 . S
O259 C249 1.268 . S
O260 Sc244 2.105 . S
O260 C251 1.268 . S
O261 Sc242 2.105 . S
O261 C247 1.268 . S
O262 Sc244 2.105 . S
O262 C246 1.268 . S
O263 Sc243 2.105 . S
O263 C248 1.268 . S
Sc264 O267 2.025 . S
Sc264 O274 2.105 . S
Sc264 O277 2.105 . S
Sc264 O280 2.105 . S
Sc264 O283 2.105 . S
Sc265 O267 2.025 . S
Sc265 O275 2.105 . S
Sc265 O279 2.105 . S
Sc265 O281 2.105 . S
Sc265 O285 2.105 . S
Sc266 O267 2.025 . S
Sc266 O276 2.105 . S
Sc266 O278 2.105 . S
Sc266 O282 2.105 . S
Sc266 O284 2.105 . S
O267 Sc264 2.025 . S
O267 Sc265 2.025 . S
O267 Sc266 2.025 . S
C268 O274 1.268 . S
C268 O284 1.268 . S
C269 O275 1.268 . S
C269 O283 1.268 . S
C270 O276 1.268 . S
C270 O285 1.268 . S
C271 O277 1.268 . S
C271 O281 1.268 . S
C272 O278 1.268 . S
C272 O280 1.268 . S
C273 O279 1.268 . S
C273 O282 1.268 . S
O274 Sc264 2.105 . S
O274 C268 1.268 . S
O275 Sc265 2.105 . S
O275 C269 1.268 . S
O276 Sc266 2.105 . S
O276 C270 1.268 . S
O277 Sc264 2.105 . S
O277 C271 1.268 . S
O278 Sc266 2.105 . S
O278 C272 1.268 . S
O279 Sc265 2.105 . S
O279 C273 1.268 . S
O280 Sc264 2.105 . S
O280 C272 1.268 . S
O281 Sc265 2.105 . S
O281 C271 1.268 . S
O282 Sc266 2.105 . S
O282 C273 1.268 . S
O283 Sc264 2.105 . S
O283 C269 1.268 . S
O284 Sc266 2.105 . S
O284 C268 1.268 . S
O285 Sc265 2.105 . S
O285 C270 1.268 . S
Sc286 O289 2.025 . S
Sc286 O296 2.105 . S
Sc286 O299 2.105 . S
Sc286 O302 2.105 . S
Sc286 O305 2.105 . S
Sc287 O289 2.025 . S
Sc287 O297 2.105 . S
Sc287 O301 2.105 . S
Sc287 O303 2.105 . S
Sc287 O307 2.105 . S
Sc288 O289 2.025 . S
Sc288 O298 2.105 . S
Sc288 O300 2.105 . S
Sc288 O304 2.105 . S
Sc288 O306 2.105 . S
O289 Sc286 2.025 . S
O289 Sc287 2.025 . S
O289 Sc288 2.025 . S
C290 O296 1.268 . S
C290 O306 1.268 . S
C291 O297 1.268 . S
C291 O305 1.268 . S
C292 O298 1.268 . S
C292 O307 1.268 . S
C293 O299 1.268 . S
C293 O303 1.268 . S
C294 O300 1.268 . S
C294 O302 1.268 . S
C295 O301 1.268 . S
C295 O304 1.268 . S
O296 Sc286 2.105 . S
O296 C290 1.268 . S
O297 Sc287 2.105 . S
O297 C291 1.268 . S
O298 Sc288 2.105 . S
O298 C292 1.268 . S
O299 Sc286 2.105 . S
O299 C293 1.268 . S
O300 Sc288 2.105 . S
O300 C294 1.268 . S
O301 Sc287 2.105 . S
O301 C295 1.268 . S
O302 Sc286 2.105 . S
O302 C294 1.268 . S
O303 Sc287 2.105 . S
O303 C293 1.268 . S
O304 Sc288 2.105 . S
O304 C295 1.268 . S
O305 Sc286 2.105 . S
O305 C291 1.268 . S
O306 Sc288 2.105 . S
O306 C290 1.268 . S
O307 Sc287 2.105 . S
O307 C292 1.268 . S
Sc308 O311 2.025 . S
Sc308 O318 2.105 1_545 S
Sc308 O321 2.105 . S
Sc308 O324 2.105 . S
Sc308 O327 2.105 1_545 S
Sc309 O311 2.025 . S
Sc309 O319 2.105 . S
Sc309 O323 2.105 . S
Sc309 O325 2.105 . S
Sc309 O329 2.105 . S
Sc310 O311 2.025 . S
Sc310 O320 2.105 . S
Sc310 O322 2.105 . S
Sc310 O326 2.105 . S
Sc310 O328 2.105 . S
O311 Sc308 2.025 . S
O311 Sc309 2.025 . S
O311 Sc310 2.025 . S
C312 O318 1.268 . S
C312 O328 1.268 1_565 S
C313 O319 1.268 . S
C313 O327 1.268 1_545 S
C314 O320 1.268 . S
C314 O329 1.268 . S
C315 O321 1.268 . S
C315 O325 1.268 . S
C316 O322 1.268 . S
C316 O324 1.268 . S
C317 O323 1.268 . S
C317 O326 1.268 . S
O318 Sc308 2.105 1_565 S
O318 C312 1.268 . S
O319 Sc309 2.105 . S
O319 C313 1.268 . S
O320 Sc310 2.105 . S
O320 C314 1.268 . S
O321 Sc308 2.105 . S
O321 C315 1.268 . S
O322 Sc310 2.105 . S
O322 C316 1.268 . S
O323 Sc309 2.105 . S
O323 C317 1.268 . S
O324 Sc308 2.105 . S
O324 C316 1.268 . S
O325 Sc309 2.105 . S
O325 C315 1.268 . S
O326 Sc310 2.105 . S
O326 C317 1.268 . S
O327 Sc308 2.105 1_565 S
O327 C313 1.268 1_565 S
O328 Sc310 2.105 . S
O328 C312 1.268 1_545 S
O329 Sc309 2.105 . S
O329 C314 1.268 . S
Sc330 O333 2.025 . S
Sc330 O340 2.105 . S
Sc330 O343 2.105 . S
Sc330 O346 2.105 . S
Sc330 O349 2.105 . S
Sc331 O333 2.025 1_656 S
Sc331 O341 2.105 1_655 S
Sc331 O345 2.105 1_556 S
Sc331 O347 2.105 1_556 S
Sc331 O351 2.105 1_655 S
Sc332 O333 2.025 . S
Sc332 O342 2.105 1_554 S
Sc332 O344 2.105 . S
Sc332 O348 2.105 1_455 S
Sc332 O350 2.105 . S
O333 Sc330 2.025 . S
O333 Sc331 2.025 1_454 S
O333 Sc332 2.025 . S
C334 O340 1.268 . S
C334 O350 1.268 . S
C335 O341 1.268 1_554 S
C335 O349 1.268 . S
C336 O342 1.268 . S
C336 O351 1.268 . S
C337 O343 1.268 . S
C337 O347 1.268 1_455 S
C338 O344 1.268 . S
C338 O346 1.268 . S
C339 O345 1.268 . S
C339 O348 1.268 . S
O340 Sc330 2.105 . S
O340 C334 1.268 . S
O341 Sc331 2.105 1_455 S
O341 C335 1.268 1_556 S
O342 Sc332 2.105 1_556 S
O342 C336 1.268 . S
O343 Sc330 2.105 . S
O343 C337 1.268 . S
O344 Sc332 2.105 . S
O344 C338 1.268 . S
O345 Sc331 2.105 1_554 S
O345 C339 1.268 . S
O346 Sc330 2.105 . S
O346 C338 1.268 . S
O347 Sc331 2.105 1_554 S
O347 C337 1.268 1_655 S
O348 Sc332 2.105 1_655 S
O348 C339 1.268 . S
O349 Sc330 2.105 . S
O349 C335 1.268 . S
O350 Sc332 2.105 . S
O350 C334 1.268 . S
O351 Sc331 2.105 1_455 S
O351 C336 1.268 . S
Sc352 O355 2.025 . S
Sc352 O362 2.105 . S
Sc352 O365 2.105 . S
Sc352 O368 2.105 . S
Sc352 O371 2.105 . S
Sc353 O355 2.025 . S
Sc353 O363 2.105 . S
Sc353 O367 2.105 . S
Sc353 O369 2.105 . S
Sc353 O373 2.105 . S
Sc354 O355 2.025 . S
Sc354 O364 2.105 1_455 S
Sc354 O366 2.105 1_554 S
Sc354 O370 2.105 1_554 S
Sc354 O372 2.105 1_455 S
O355 Sc352 2.025 . S
O355 Sc353 2.025 . S
O355 Sc354 2.025 . S
C356 O362 1.268 1_655 S
C356 O372 1.268 . S
C357 O363 1.268 . S
C357 O371 1.268 . S
C358 O364 1.268 1_455 S
C358 O373 1.268 . S
C359 O365 1.268 . S
C359 O369 1.268 . S
C360 O366 1.268 . S
C360 O368 1.268 1_556 S
C361 O367 1.268 . S
C361 O370 1.268 1_554 S
O362 Sc352 2.105 . S
O362 C356 1.268 1_455 S
O363 Sc353 2.105 . S
O363 C357 1.268 . S
O364 Sc354 2.105 1_655 S
O364 C358 1.268 1_655 S
O365 Sc352 2.105 . S
O365 C359 1.268 . S
O366 Sc354 2.105 1_556 S
O366 C360 1.268 . S
O367 Sc353 2.105 . S
O367 C361 1.268 . S
O368 Sc352 2.105 . S
O368 C360 1.268 1_554 S
O369 Sc353 2.105 . S
O369 C359 1.268 . S
O370 Sc354 2.105 1_556 S
O370 C361 1.268 1_556 S
O371 Sc352 2.105 . S
O371 C357 1.268 . S
O372 Sc354 2.105 1_655 S
O372 C356 1.268 . S
O373 Sc353 2.105 . S
O373 C358 1.268 . S
Sc374 O377 2.025 . S
Sc374 O384 2.105 . S
Sc374 O387 2.105 . S
Sc374 O390 2.105 . S
Sc374 O393 2.105 . S
Sc375 O377 2.025 . S
Sc375 O385 2.105 . S
Sc375 O389 2.105 . S
Sc375 O391 2.105 . S
Sc375 O395 2.105 . S
Sc376 O377 2.025 . S
Sc376 O386 2.105 . S
Sc376 O388 2.105 . S
Sc376 O392 2.105 . S
Sc376 O394 2.105 . S
O377 Sc374 2.025 . S
O377 Sc375 2.025 . S
O377 Sc376 2.025 . S
C378 O384 1.268 . S
C378 O394 1.268 . S
C379 O385 1.268 . S
C379 O393 1.268 . S
C380 O386 1.268 . S
C380 O395 1.268 . S
C381 O387 1.268 . S
C381 O391 1.268 . S
C382 O388 1.268 . S
C382 O390 1.268 . S
C383 O389 1.268 . S
C383 O392 1.268 . S
O384 Sc374 2.105 . S
O384 C378 1.268 . S
O385 Sc375 2.105 . S
O385 C379 1.268 . S
O386 Sc376 2.105 . S
O386 C380 1.268 . S
O387 Sc374 2.105 . S
O387 C381 1.268 . S
O388 Sc376 2.105 . S
O388 C382 1.268 . S
O389 Sc375 2.105 . S
O389 C383 1.268 . S
O390 Sc374 2.105 . S
O390 C382 1.268 . S
O391 Sc375 2.105 . S
O391 C381 1.268 . S
O392 Sc376 2.105 . S
O392 C383 1.268 . S
O393 Sc374 2.105 . S
O393 C379 1.268 . S
O394 Sc376 2.105 . S
O394 C378 1.268 . S
O395 Sc375 2.105 . S
O395 C380 1.268 . S
Sc396 O399 2.025 . S
Sc396 O406 2.105 . S
Sc396 O409 2.105 . S
Sc396 O412 2.105 . S
Sc396 O415 2.105 . S
Sc397 O399 2.025 . S
Sc397 O407 2.105 . S
Sc397 O411 2.105 . S
Sc397 O413 2.105 . S
Sc397 O417 2.105 . S
Sc398 O399 2.025 . S
Sc398 O408 2.105 . S
Sc398 O410 2.105 . S
Sc398 O414 2.105 . S
Sc398 O416 2.105 . S
O399 Sc396 2.025 . S
O399 Sc397 2.025 . S
O399 Sc398 2.025 . S
C400 O406 1.268 . S
C400 O416 1.268 . S
C401 O407 1.268 . S
C401 O415 1.268 . S
C402 O408 1.268 . S
C402 O417 1.268 . S
C403 O409 1.268 . S
C403 O413 1.268 . S
C404 O410 1.268 . S
C404 O412 1.268 . S
C405 O411 1.268 . S
C405 O414 1.268 . S
O406 Sc396 2.105 . S
O406 C400 1.268 . S
O407 Sc397 2.105 . S
O407 C401 1.268 . S
O408 Sc398 2.105 . S
O408 C402 1.268 . S
O409 Sc396 2.105 . S
O409 C403 1.268 . S
O410 Sc398 2.105 . S
O410 C404 1.268 . S
O411 Sc397 2.105 . S
O411 C405 1.268 . S
O412 Sc396 2.105 . S
O412 C404 1.268 . S
O413 Sc397 2.105 . S
O413 C403 1.268 . S
O414 Sc398 2.105 . S
O414 C405 1.268 . S
O415 Sc396 2.105 . S
O415 C401 1.268 . S
O416 Sc398 2.105 . S
O416 C400 1.268 . S
O417 Sc397 2.105 . S
O417 C402 1.268 . S
Sc418 O421 2.025 . S
Sc418 O428 2.105 . S
Sc418 O431 2.105 . S
Sc418 O434 2.105 . S
Sc418 O437 2.105 . S
Sc419 O421 2.025 . S
Sc419 O429 2.105 . S
Sc419 O433 2.105 . S
Sc419 O435 2.105 . S
Sc419 O439 2.105 . S
Sc420 O421 2.025 . S
Sc420 O430 2.105 . S
Sc420 O432 2.105 . S
Sc420 O436 2.105 . S
Sc420 O438 2.105 . S
O421 Sc418 2.025 . S
O421 Sc419 2.025 . S
O421 Sc420 2.025 . S
C422 O428 1.268 . S
C422 O438 1.268 . S
C423 O429 1.268 . S
C423 O437 1.268 . S
C424 O430 1.268 . S
C424 O439 1.268 . S
C425 O431 1.268 . S
C425 O435 1.268 . S
C426 O432 1.268 . S
C426 O434 1.268 . S
C427 O433 1.268 . S
C427 O436 1.268 . S
O428 Sc418 2.105 . S
O428 C422 1.268 . S
O429 Sc419 2.105 . S
O429 C423 1.268 . S
O430 Sc420 2.105 . S
O430 C424 1.268 . S
O431 Sc418 2.105 . S
O431 C425 1.268 . S
O432 Sc420 2.105 . S
O432 C426 1.268 . S
O433 Sc419 2.105 . S
O433 C427 1.268 . S
O434 Sc418 2.105 . S
O434 C426 1.268 . S
O435 Sc419 2.105 . S
O435 C425 1.268 . S
O436 Sc420 2.105 . S
O436 C427 1.268 . S
O437 Sc418 2.105 . S
O437 C423 1.268 . S
O438 Sc420 2.105 . S
O438 C422 1.268 . S
O439 Sc419 2.105 . S
O439 C424 1.268 . S
Sc440 O443 2.025 . S
Sc440 O450 2.105 . S
Sc440 O453 2.105 . S
Sc440 O456 2.105 . S
Sc440 O459 2.105 . S
Sc441 O443 2.025 . S
Sc441 O451 2.105 . S
Sc441 O455 2.105 . S
Sc441 O457 2.105 . S
Sc441 O461 2.105 . S
Sc442 O443 2.025 . S
Sc442 O452 2.105 . S
Sc442 O454 2.105 . S
Sc442 O458 2.105 . S
Sc442 O460 2.105 . S
O443 Sc440 2.025 . S
O443 Sc441 2.025 . S
O443 Sc442 2.025 . S
C444 O450 1.268 . S
C444 O460 1.268 . S
C445 O451 1.268 . S
C445 O459 1.268 . S
C446 O452 1.268 . S
C446 O461 1.268 . S
C447 O453 1.268 . S
C447 O457 1.268 . S
C448 O454 1.268 . S
C448 O456 1.268 . S
C449 O455 1.268 . S
C449 O458 1.268 . S
O450 Sc440 2.105 . S
O450 C444 1.268 . S
O451 Sc441 2.105 . S
O451 C445 1.268 . S
O452 Sc442 2.105 . S
O452 C446 1.268 . S
O453 Sc440 2.105 . S
O453 C447 1.268 . S
O454 Sc442 2.105 . S
O454 C448 1.268 . S
O455 Sc441 2.105 . S
O455 C449 1.268 . S
O456 Sc440 2.105 . S
O456 C448 1.268 . S
O457 Sc441 2.105 . S
O457 C447 1.268 . S
O458 Sc442 2.105 . S
O458 C449 1.268 . S
O459 Sc440 2.105 . S
O459 C445 1.268 . S
O460 Sc442 2.105 . S
O460 C444 1.268 . S
O461 Sc441 2.105 . S
O461 C446 1.268 . S
Sc462 O465 2.025 . S
Sc462 O472 2.105 1_554 S
Sc462 O475 2.105 . S
Sc462 O478 2.105 . S
Sc462 O481 2.105 1_554 S
Sc463 O465 2.025 . S
Sc463 O473 2.105 . S
Sc463 O477 2.105 . S
Sc463 O479 2.105 . S
Sc463 O483 2.105 . S
Sc464 O465 2.025 . S
Sc464 O474 2.105 . S
Sc464 O476 2.105 . S
Sc464 O480 2.105 . S
Sc464 O482 2.105 . S
O465 Sc462 2.025 . S
O465 Sc463 2.025 . S
O465 Sc464 2.025 . S
C466 O472 1.268 . S
C466 O482 1.268 1_556 S
C467 O473 1.268 . S
C467 O481 1.268 1_554 S
C468 O474 1.268 . S
C468 O483 1.268 . S
C469 O475 1.268 . S
C469 O479 1.268 . S
C470 O476 1.268 . S
C470 O478 1.268 . S
C471 O477 1.268 . S
C471 O480 1.268 . S
O472 Sc462 2.105 1_556 S
O472 C466 1.268 . S
O473 Sc463 2.105 . S
O473 C467 1.268 . S
O474 Sc464 2.105 . S
O474 C468 1.268 . S
O475 Sc462 2.105 . S
O475 C469 1.268 . S
O476 Sc464 2.105 . S
O476 C470 1.268 . S
O477 Sc463 2.105 . S
O477 C471 1.268 . S
O478 Sc462 2.105 . S
O478 C470 1.268 . S
O479 Sc463 2.105 . S
O479 C469 1.268 . S
O480 Sc464 2.105 . S
O480 C471 1.268 . S
O481 Sc462 2.105 1_556 S
O481 C467 1.268 1_556 S
O482 Sc464 2.105 . S
O482 C466 1.268 1_554 S
O483 Sc463 2.105 . S
O483 C468 1.268 . S
Sc484 O487 2.025 . S
Sc484 O494 2.105 . S
Sc484 O497 2.105 . S
Sc484 O500 2.105 . S
Sc484 O503 2.105 . S
Sc485 O487 2.025 1_565 S
Sc485 O495 2.105 . S
Sc485 O499 2.105 1_565 S
Sc485 O501 2.104 1_565 S
Sc485 O505 2.105 . S
Sc486 O487 2.025 . S
Sc486 O496 2.105 1_545 S
Sc486 O498 2.105 . S
Sc486 O502 2.105 . S
Sc486 O504 2.105 . S
O487 Sc484 2.025 . S
O487 Sc485 2.025 1_545 S
O487 Sc486 2.025 . S
C488 O494 1.268 . S
C488 O504 1.268 . S
C489 O495 1.268 1_545 S
C489 O503 1.268 . S
C490 O496 1.268 . S
C490 O505 1.268 . S
C491 O497 1.268 . S
C491 O501 1.268 . S
C492 O498 1.268 . S
C492 O500 1.268 . S
C493 O499 1.268 . S
C493 O502 1.268 . S
O494 Sc484 2.105 . S
O494 C488 1.268 . S
O495 Sc485 2.105 . S
O495 C489 1.268 1_565 S
O496 Sc486 2.105 1_565 S
O496 C490 1.268 . S
O497 Sc484 2.105 . S
O497 C491 1.268 . S
O498 Sc486 2.105 . S
O498 C492 1.268 . S
O499 Sc485 2.105 1_545 S
O499 C493 1.268 . S
O500 Sc484 2.105 . S
O500 C492 1.268 . S
O501 Sc485 2.104 1_545 S
O501 C491 1.268 . S
O502 Sc486 2.105 . S
O502 C493 1.268 . S
O503 Sc484 2.105 . S
O503 C489 1.268 . S
O504 Sc486 2.105 . S
O504 C488 1.268 . S
O505 Sc485 2.105 . S
O505 C490 1.268 . S
Sc506 O509 2.025 . S
Sc506 O516 2.105 . S
Sc506 O519 2.105 . S
Sc506 O522 2.105 . S
Sc506 O525 2.105 . S
Sc507 O509 2.025 . S
Sc507 O517 2.105 . S
Sc507 O521 2.105 . S
Sc507 O523 2.105 . S
Sc507 O527 2.105 . S
Sc508 O509 2.025 . S
Sc508 O518 2.105 . S
Sc508 O520 2.105 . S
Sc508 O524 2.105 . S
Sc508 O526 2.105 . S
O509 Sc506 2.025 . S
O509 Sc507 2.025 . S
O509 Sc508 2.025 . S
C510 O516 1.268 . S
C510 O526 1.268 . S
C511 O517 1.268 . S
C511 O525 1.268 . S
C512 O518 1.268 . S
C512 O527 1.268 . S
C513 O519 1.268 . S
C513 O523 1.268 . S
C514 O520 1.268 . S
C514 O522 1.268 . S
C515 O521 1.268 . S
C515 O524 1.268 . S
O516 Sc506 2.105 . S
O516 C510 1.268 . S
O517 Sc507 2.105 . S
O517 C511 1.268 . S
O518 Sc508 2.105 . S
O518 C512 1.268 . S
O519 Sc506 2.105 . S
O519 C513 1.268 . S
O520 Sc508 2.105 . S
O520 C514 1.268 . S
O521 Sc507 2.105 . S
O521 C515 1.268 . S
O522 Sc506 2.105 . S
O522 C514 1.268 . S
O523 Sc507 2.105 . S
O523 C513 1.268 . S
O524 Sc508 2.105 . S
O524 C515 1.268 . S
O525 Sc506 2.105 . S
O525 C511 1.268 . S
O526 Sc508 2.105 . S
O526 C510 1.268 . S
O527 Sc507 2.105 . S
O527 C512 1.268 . S
Sc528 O531 2.025 . S
Sc528 O538 2.105 1_455 S
Sc528 O541 2.105 . S
Sc528 O544 2.105 . S
Sc528 O547 2.105 1_455 S
Sc529 O531 2.025 . S
Sc529 O539 2.105 . S
Sc529 O543 2.105 . S
Sc529 O545 2.105 . S
Sc529 O549 2.105 . S
Sc530 O531 2.025 . S
Sc530 O540 2.105 . S
Sc530 O542 2.105 . S
Sc530 O546 2.105 . S
Sc530 O548 2.105 . S
O531 Sc528 2.025 . S
O531 Sc529 2.025 . S
O531 Sc530 2.025 . S
C532 O538 1.268 . S
C532 O548 1.268 1_655 S
C533 O539 1.268 . S
C533 O547 1.268 1_455 S
C534 O540 1.268 . S
C534 O549 1.268 . S
C535 O541 1.268 . S
C535 O545 1.268 . S
C536 O542 1.268 . S
C536 O544 1.268 . S
C537 O543 1.268 . S
C537 O546 1.268 . S
O538 Sc528 2.105 1_655 S
O538 C532 1.268 . S
O539 Sc529 2.105 . S
O539 C533 1.268 . S
O540 Sc530 2.105 . S
O540 C534 1.268 . S
O541 Sc528 2.105 . S
O541 C535 1.268 . S
O542 Sc530 2.105 . S
O542 C536 1.268 . S
O543 Sc529 2.105 . S
O543 C537 1.268 . S
O544 Sc528 2.105 . S
O544 C536 1.268 . S
O545 Sc529 2.105 . S
O545 C535 1.268 . S
O546 Sc530 2.105 . S
O546 C537 1.268 . S
O547 Sc528 2.105 1_655 S
O547 C533 1.268 1_655 S
O548 Sc530 2.105 . S
O548 C532 1.268 1_455 S
O549 Sc529 2.105 . S
O549 C534 1.268 . S
Sc550 O553 2.025 . S
Sc550 O560 2.105 . S
Sc550 O563 2.105 . S
Sc550 O566 2.105 . S
Sc550 O569 2.105 . S
Sc551 O553 2.025 . S
Sc551 O561 2.105 . S
Sc551 O565 2.105 . S
Sc551 O567 2.105 . S
Sc551 O571 2.105 . S
Sc552 O553 2.025 . S
Sc552 O562 2.105 . S
Sc552 O564 2.105 . S
Sc552 O568 2.105 . S
Sc552 O570 2.105 . S
O553 Sc550 2.025 . S
O553 Sc551 2.025 . S
O553 Sc552 2.025 . S
C554 O560 1.268 . S
C554 O570 1.268 . S
C555 O561 1.268 . S
C555 O569 1.268 . S
C556 O562 1.268 . S
C556 O571 1.268 . S
C557 O563 1.268 . S
C557 O567 1.268 . S
C558 O564 1.268 . S
C558 O566 1.268 . S
C559 O565 1.268 . S
C559 O568 1.268 . S
O560 Sc550 2.105 . S
O560 C554 1.268 . S
O561 Sc551 2.105 . S
O561 C555 1.268 . S
O562 Sc552 2.105 . S
O562 C556 1.268 . S
O563 Sc550 2.105 . S
O563 C557 1.268 . S
O564 Sc552 2.105 . S
O564 C558 1.268 . S
O565 Sc551 2.105 . S
O565 C559 1.268 . S
O566 Sc550 2.105 . S
O566 C558 1.268 . S
O567 Sc551 2.105 . S
O567 C557 1.268 . S
O568 Sc552 2.105 . S
O568 C559 1.268 . S
O569 Sc550 2.105 . S
O569 C555 1.268 . S
O570 Sc552 2.105 . S
O570 C554 1.268 . S
O571 Sc551 2.105 . S
O571 C556 1.268 . S
Sc572 O575 2.025 . S
Sc572 O582 2.105 . S
Sc572 O585 2.105 . S
Sc572 O588 2.105 . S
Sc572 O591 2.105 . S
Sc573 O575 2.025 . S
Sc573 O583 2.105 . S
Sc573 O587 2.105 . S
Sc573 O589 2.105 . S
Sc573 O593 2.105 . S
Sc574 O575 2.025 . S
Sc574 O584 2.105 1_545 S
Sc574 O586 2.105 . S
Sc574 O590 2.105 . S
Sc574 O592 2.105 1_545 S
O575 Sc572 2.025 . S
O575 Sc573 2.025 . S
O575 Sc574 2.025 . S
C576 O582 1.268 1_565 S
C576 O592 1.268 . S
C577 O583 1.268 . S
C577 O591 1.268 . S
C578 O584 1.268 1_545 S
C578 O593 1.268 . S
C579 O585 1.268 . S
C579 O589 1.268 . S
C580 O586 1.268 . S
C580 O588 1.268 . S
C581 O587 1.268 . S
C581 O590 1.268 . S
O582 Sc572 2.105 . S
O582 C576 1.268 1_545 S
O583 Sc573 2.105 . S
O583 C577 1.268 . S
O584 Sc574 2.105 1_565 S
O584 C578 1.268 1_565 S
O585 Sc572 2.105 . S
O585 C579 1.268 . S
O586 Sc574 2.105 . S
O586 C580 1.268 . S
O587 Sc573 2.105 . S
O587 C581 1.268 . S
O588 Sc572 2.105 . S
O588 C580 1.268 . S
O589 Sc573 2.105 . S
O589 C579 1.268 . S
O590 Sc574 2.105 . S
O590 C581 1.268 . S
O591 Sc572 2.105 . S
O591 C577 1.268 . S
O592 Sc574 2.105 1_565 S
O592 C576 1.268 . S
O593 Sc573 2.105 . S
O593 C578 1.268 . S
Sc594 O597 2.025 . S
Sc594 O604 2.105 . S
Sc594 O607 2.105 1_455 S
Sc594 O610 2.105 . S
Sc594 O613 2.105 . S
Sc595 O597 2.025 1_655 S
Sc595 O605 2.105 1_655 S
Sc595 O609 2.105 . S
Sc595 O611 2.105 . S
Sc595 O615 2.104 1_655 S
Sc596 O597 2.025 . S
Sc596 O606 2.105 . S
Sc596 O608 2.105 . S
Sc596 O612 2.105 . S
Sc596 O614 2.105 . S
O597 Sc594 2.025 . S
O597 Sc595 2.025 1_455 S
O597 Sc596 2.025 . S
C598 O604 1.268 . S
C598 O614 1.268 . S
C599 O605 1.268 . S
C599 O613 1.268 . S
C600 O606 1.268 . S
C600 O615 1.268 . S
C601 O607 1.268 . S
C601 O611 1.268 . S
C602 O608 1.268 . S
C602 O610 1.268 . S
C603 O609 1.268 1_455 S
C603 O612 1.268 . S
O604 Sc594 2.105 . S
O604 C598 1.268 . S
O605 Sc595 2.105 1_455 S
O605 C599 1.268 . S
O606 Sc596 2.105 . S
O606 C600 1.268 . S
O607 Sc594 2.105 1_655 S
O607 C601 1.268 . S
O608 Sc596 2.105 . S
O608 C602 1.268 . S
O609 Sc595 2.105 . S
O609 C603 1.268 1_655 S
O610 Sc594 2.105 . S
O610 C602 1.268 . S
O611 Sc595 2.105 . S
O611 C601 1.268 . S
O612 Sc596 2.105 . S
O612 C603 1.268 . S
O613 Sc594 2.105 . S
O613 C599 1.268 . S
O614 Sc596 2.105 . S
O614 C598 1.268 . S
O615 Sc595 2.104 1_455 S
O615 C600 1.268 . S
Sc616 O619 2.025 . S
Sc616 O626 2.105 . S
Sc616 O629 2.105 . S
Sc616 O632 2.105 . S
Sc616 O635 2.105 . S
Sc617 O619 2.025 . S
Sc617 O627 2.105 . S
Sc617 O631 2.105 . S
Sc617 O633 2.105 . S
Sc617 O637 2.105 . S
Sc618 O619 2.025 . S
Sc618 O628 2.105 . S
Sc618 O630 2.105 . S
Sc618 O634 2.105 . S
Sc618 O636 2.105 . S
O619 Sc616 2.025 . S
O619 Sc617 2.025 . S
O619 Sc618 2.025 . S
C620 O626 1.268 . S
C620 O636 1.268 . S
C621 O627 1.268 . S
C621 O635 1.268 . S
C622 O628 1.268 . S
C622 O637 1.268 . S
C623 O629 1.268 . S
C623 O633 1.268 . S
C624 O630 1.268 . S
C624 O632 1.268 . S
C625 O631 1.268 . S
C625 O634 1.268 . S
O626 Sc616 2.105 . S
O626 C620 1.268 . S
O627 Sc617 2.105 . S
O627 C621 1.268 . S
O628 Sc618 2.105 . S
O628 C622 1.268 . S
O629 Sc616 2.105 . S
O629 C623 1.268 . S
O630 Sc618 2.105 . S
O630 C624 1.268 . S
O631 Sc617 2.105 . S
O631 C625 1.268 . S
O632 Sc616 2.105 . S
O632 C624 1.268 . S
O633 Sc617 2.105 . S
O633 C623 1.268 . S
O634 Sc618 2.105 . S
O634 C625 1.268 . S
O635 Sc616 2.105 . S
O635 C621 1.268 . S
O636 Sc618 2.105 . S
O636 C620 1.268 . S
O637 Sc617 2.105 . S
O637 C622 1.268 . S
Sc638 O641 2.025 . S
Sc638 O648 2.105 . S
Sc638 O651 2.105 . S
Sc638 O654 2.105 . S
Sc638 O657 2.105 . S
Sc639 O641 2.025 1_565 S
Sc639 O649 2.104 1_565 S
Sc639 O653 2.105 . S
Sc639 O655 2.105 . S
Sc639 O659 2.105 1_565 S
Sc640 O641 2.025 . S
Sc640 O650 2.105 . S
Sc640 O652 2.105 . S
Sc640 O656 2.105 1_545 S
Sc640 O658 2.105 . S
O641 Sc638 2.025 . S
O641 Sc639 2.025 1_545 S
O641 Sc640 2.025 . S
C642 O648 1.268 . S
C642 O658 1.268 . S
C643 O649 1.268 . S
C643 O657 1.268 . S
C644 O650 1.268 . S
C644 O659 1.268 . S
C645 O651 1.268 . S
C645 O655 1.268 1_545 S
C646 O652 1.268 . S
C646 O654 1.268 . S
C647 O653 1.268 . S
C647 O656 1.268 . S
O648 Sc638 2.105 . S
O648 C642 1.268 . S
O649 Sc639 2.104 1_545 S
O649 C643 1.268 . S
O650 Sc640 2.105 . S
O650 C644 1.268 . S
O651 Sc638 2.105 . S
O651 C645 1.268 . S
O652 Sc640 2.105 . S
O652 C646 1.268 . S
O653 Sc639 2.105 . S
O653 C647 1.268 . S
O654 Sc638 2.105 . S
O654 C646 1.268 . S
O655 Sc639 2.105 . S
O655 C645 1.268 1_565 S
O656 Sc640 2.105 1_565 S
O656 C647 1.268 . S
O657 Sc638 2.105 . S
O657 C643 1.268 . S
O658 Sc640 2.105 . S
O658 C642 1.268 . S
O659 Sc639 2.105 1_545 S
O659 C644 1.268 . S
Sc660 O663 2.025 . S
Sc660 O670 2.105 . S
Sc660 O673 2.105 . S
Sc660 O676 2.105 . S
Sc660 O679 2.105 . S
Sc661 O663 2.025 1_566 S
Sc661 O671 2.105 1_556 S
Sc661 O675 2.105 1_565 S
Sc661 O677 2.105 1_565 S
Sc661 O681 2.105 1_556 S
Sc662 O663 2.025 . S
Sc662 O672 2.105 1_545 S
Sc662 O674 2.105 . S
Sc662 O678 2.105 1_554 S
Sc662 O680 2.105 . S
O663 Sc660 2.025 . S
O663 Sc661 2.025 1_544 S
O663 Sc662 2.025 . S
C664 O670 1.268 . S
C664 O680 1.268 . S
C665 O671 1.268 1_545 S
C665 O679 1.268 . S
C666 O672 1.268 . S
C666 O681 1.268 . S
C667 O673 1.268 . S
C667 O677 1.268 1_554 S
C668 O674 1.268 . S
C668 O676 1.268 . S
C669 O675 1.268 . S
C669 O678 1.268 . S
O670 Sc660 2.105 . S
O670 C664 1.268 . S
O671 Sc661 2.105 1_554 S
O671 C665 1.268 1_565 S
O672 Sc662 2.105 1_565 S
O672 C666 1.268 . S
O673 Sc660 2.105 . S
O673 C667 1.268 . S
O674 Sc662 2.105 . S
O674 C668 1.268 . S
O675 Sc661 2.105 1_545 S
O675 C669 1.268 . S
O676 Sc660 2.105 . S
O676 C668 1.268 . S
O677 Sc661 2.105 1_545 S
O677 C667 1.268 1_556 S
O678 Sc662 2.105 1_556 S
O678 C669 1.268 . S
O679 Sc660 2.105 . S
O679 C665 1.268 . S
O680 Sc662 2.105 . S
O680 C664 1.268 . S
O681 Sc661 2.105 1_554 S
O681 C666 1.268 . S
Sc682 O685 2.025 . S
Sc682 O692 2.105 . S
Sc682 O695 2.105 . S
Sc682 O698 2.105 . S
Sc682 O701 2.105 . S
Sc683 O685 2.025 . S
Sc683 O693 2.105 . S
Sc683 O697 2.105 . S
Sc683 O699 2.105 . S
Sc683 O703 2.105 . S
Sc684 O685 2.025 . S
Sc684 O694 2.105 1_455 S
Sc684 O696 2.105 . S
Sc684 O700 2.105 . S
Sc684 O702 2.105 1_455 S
O685 Sc682 2.025 . S
O685 Sc683 2.025 . S
O685 Sc684 2.025 . S
C686 O692 1.268 1_655 S
C686 O702 1.268 . S
C687 O693 1.268 . S
C687 O701 1.268 . S
C688 O694 1.268 1_455 S
C688 O703 1.268 . S
C689 O695 1.268 . S
C689 O699 1.268 . S
C690 O696 1.268 . S
C690 O698 1.268 . S
C691 O697 1.268 . S
C691 O700 1.268 . S
O692 Sc682 2.105 . S
O692 C686 1.268 1_455 S
O693 Sc683 2.105 . S
O693 C687 1.268 . S
O694 Sc684 2.105 1_655 S
O694 C688 1.268 1_655 S
O695 Sc682 2.105 . S
O695 C689 1.268 . S
O696 Sc684 2.105 . S
O696 C690 1.268 . S
O697 Sc683 2.105 . S
O697 C691 1.268 . S
O698 Sc682 2.105 . S
O698 C690 1.268 . S
O699 Sc683 2.105 . S
O699 C689 1.268 . S
O700 Sc684 2.105 . S
O700 C691 1.268 . S
O701 Sc682 2.105 . S
O701 C687 1.268 . S
O702 Sc684 2.105 1_655 S
O702 C686 1.268 . S
O703 Sc683 2.105 . S
O703 C688 1.268 . S
Sc704 O707 2.025 . S
Sc704 O714 2.105 . S
Sc704 O717 2.105 . S
Sc704 O720 2.105 . S
Sc704 O723 2.105 . S
Sc705 O707 2.025 . S
Sc705 O715 2.105 . S
Sc705 O719 2.105 . S
Sc705 O721 2.105 . S
Sc705 O725 2.105 . S
Sc706 O707 2.025 . S
Sc706 O716 2.105 . S
Sc706 O718 2.105 . S
Sc706 O722 2.105 . S
Sc706 O724 2.105 . S
O707 Sc704 2.025 . S
O707 Sc705 2.025 . S
O707 Sc706 2.025 . S
C708 O714 1.268 . S
C708 O724 1.268 . S
C709 O715 1.268 . S
C709 O723 1.268 . S
C710 O716 1.268 . S
C710 O725 1.268 . S
C711 O717 1.268 . S
C711 O721 1.268 . S
C712 O718 1.268 . S
C712 O720 1.268 . S
C713 O719 1.268 . S
C713 O722 1.268 . S
O714 Sc704 2.105 . S
O714 C708 1.268 . S
O715 Sc705 2.105 . S
O715 C709 1.268 . S
O716 Sc706 2.105 . S
O716 C710 1.268 . S
O717 Sc704 2.105 . S
O717 C711 1.268 . S
O718 Sc706 2.105 . S
O718 C712 1.268 . S
O719 Sc705 2.105 . S
O719 C713 1.268 . S
O720 Sc704 2.105 . S
O720 C712 1.268 . S
O721 Sc705 2.105 . S
O721 C711 1.268 . S
O722 Sc706 2.105 . S
O722 C713 1.268 . S
O723 Sc704 2.105 . S
O723 C709 1.268 . S
O724 Sc706 2.105 . S
O724 C708 1.268 . S
O725 Sc705 2.105 . S
O725 C710 1.268 . S
Sc726 O729 2.025 . S
Sc726 O736 2.105 . S
Sc726 O739 2.105 . S
Sc726 O742 2.105 . S
Sc726 O745 2.105 . S
Sc727 O729 2.025 . S
Sc727 O737 2.105 . S
Sc727 O741 2.105 . S
Sc727 O743 2.105 . S
Sc727 O747 2.105 . S
Sc728 O729 2.025 . S
Sc728 O738 2.105 . S
Sc728 O740 2.105 . S
Sc728 O744 2.105 . S
Sc728 O746 2.105 . S
O729 Sc726 2.025 . S
O729 Sc727 2.025 . S
O729 Sc728 2.025 . S
C730 O736 1.268 . S
C730 O746 1.268 . S
C731 O737 1.268 . S
C731 O745 1.268 . S
C732 O738 1.268 . S
C732 O747 1.268 . S
C733 O739 1.268 . S
C733 O743 1.268 . S
C734 O740 1.268 . S
C734 O742 1.268 . S
C735 O741 1.268 . S
C735 O744 1.268 . S
O736 Sc726 2.105 . S
O736 C730 1.268 . S
O737 Sc727 2.105 . S
O737 C731 1.268 . S
O738 Sc728 2.105 . S
O738 C732 1.268 . S
O739 Sc726 2.105 . S
O739 C733 1.268 . S
O740 Sc728 2.105 . S
O740 C734 1.268 . S
O741 Sc727 2.105 . S
O741 C735 1.268 . S
O742 Sc726 2.105 . S
O742 C734 1.268 . S
O743 Sc727 2.105 . S
O743 C733 1.268 . S
O744 Sc728 2.105 . S
O744 C735 1.268 . S
O745 Sc726 2.105 . S
O745 C731 1.268 . S
O746 Sc728 2.105 . S
O746 C730 1.268 . S
O747 Sc727 2.105 . S
O747 C732 1.268 . S
Sc748 O751 2.025 . S
Sc748 O758 2.105 . S
Sc748 O761 2.105 . S
Sc748 O764 2.105 . S
Sc748 O767 2.105 . S
Sc749 O751 2.025 . S
Sc749 O759 2.105 . S
Sc749 O763 2.105 . S
Sc749 O765 2.105 . S
Sc749 O769 2.105 . S
Sc750 O751 2.025 . S
Sc750 O760 2.105 . S
Sc750 O762 2.105 . S
Sc750 O766 2.105 . S
Sc750 O768 2.105 . S
O751 Sc748 2.025 . S
O751 Sc749 2.025 . S
O751 Sc750 2.025 . S
C752 O758 1.268 . S
C752 O768 1.268 . S
C753 O759 1.268 . S
C753 O767 1.268 . S
C754 O760 1.268 . S
C754 O769 1.268 . S
C755 O761 1.268 . S
C755 O765 1.268 . S
C756 O762 1.268 . S
C756 O764 1.268 . S
C757 O763 1.268 . S
C757 O766 1.268 . S
O758 Sc748 2.105 . S
O758 C752 1.268 . S
O759 Sc749 2.105 . S
O759 C753 1.268 . S
O760 Sc750 2.105 . S
O760 C754 1.268 . S
O761 Sc748 2.105 . S
O761 C755 1.268 . S
O762 Sc750 2.105 . S
O762 C756 1.268 . S
O763 Sc749 2.105 . S
O763 C757 1.268 . S
O764 Sc748 2.105 . S
O764 C756 1.268 . S
O765 Sc749 2.105 . S
O765 C755 1.268 . S
O766 Sc750 2.105 . S
O766 C757 1.268 . S
O767 Sc748 2.105 . S
O767 C753 1.268 . S
O768 Sc750 2.105 . S
O768 C752 1.268 . S
O769 Sc749 2.105 . S
O769 C754 1.268 . S
Sc770 O773 2.025 . S
Sc770 O780 2.105 . S
Sc770 O783 2.105 . S
Sc770 O786 2.105 . S
Sc770 O789 2.105 . S
Sc771 O773 2.025 . S
Sc771 O781 2.105 . S
Sc771 O785 2.105 . S
Sc771 O787 2.105 . S
Sc771 O791 2.105 . S
Sc772 O773 2.025 . S
Sc772 O782 2.105 . S
Sc772 O784 2.105 . S
Sc772 O788 2.105 . S
Sc772 O790 2.105 . S
O773 Sc770 2.025 . S
O773 Sc771 2.025 . S
O773 Sc772 2.025 . S
C774 O780 1.268 . S
C774 O790 1.268 . S
C775 O781 1.268 . S
C775 O789 1.268 . S
C776 O782 1.268 . S
C776 O791 1.268 . S
C777 O783 1.268 . S
C777 O787 1.268 . S
C778 O784 1.268 . S
C778 O786 1.268 . S
C779 O785 1.268 . S
C779 O788 1.268 . S
O780 Sc770 2.105 . S
O780 C774 1.268 . S
O781 Sc771 2.105 . S
O781 C775 1.268 . S
O782 Sc772 2.105 . S
O782 C776 1.268 . S
O783 Sc770 2.105 . S
O783 C777 1.268 . S
O784 Sc772 2.105 . S
O784 C778 1.268 . S
O785 Sc771 2.105 . S
O785 C779 1.268 . S
O786 Sc770 2.105 . S
O786 C778 1.268 . S
O787 Sc771 2.105 . S
O787 C777 1.268 . S
O788 Sc772 2.105 . S
O788 C779 1.268 . S
O789 Sc770 2.105 . S
O789 C775 1.268 . S
O790 Sc772 2.105 . S
O790 C774 1.268 . S
O791 Sc771 2.105 . S
O791 C776 1.268 . S
Sc792 O795 2.025 . S
Sc792 O802 2.105 . S
Sc792 O805 2.105 . S
Sc792 O808 2.105 . S
Sc792 O811 2.105 . S
Sc793 O795 2.025 . S
Sc793 O803 2.105 . S
Sc793 O807 2.105 . S
Sc793 O809 2.105 . S
Sc793 O813 2.105 . S
Sc794 O795 2.025 . S
Sc794 O804 2.105 . S
Sc794 O806 2.105 . S
Sc794 O810 2.105 . S
Sc794 O812 2.105 . S
O795 Sc792 2.025 . S
O795 Sc793 2.025 . S
O795 Sc794 2.025 . S
C796 O802 1.268 . S
C796 O812 1.268 . S
C797 O803 1.268 . S
C797 O811 1.268 . S
C798 O804 1.268 . S
C798 O813 1.268 . S
C799 O805 1.268 . S
C799 O809 1.268 . S
C800 O806 1.268 . S
C800 O808 1.268 . S
C801 O807 1.268 . S
C801 O810 1.268 . S
O802 Sc792 2.105 . S
O802 C796 1.268 . S
O803 Sc793 2.105 . S
O803 C797 1.268 . S
O804 Sc794 2.105 . S
O804 C798 1.268 . S
O805 Sc792 2.105 . S
O805 C799 1.268 . S
O806 Sc794 2.105 . S
O806 C800 1.268 . S
O807 Sc793 2.105 . S
O807 C801 1.268 . S
O808 Sc792 2.105 . S
O808 C800 1.268 . S
O809 Sc793 2.105 . S
O809 C799 1.268 . S
O810 Sc794 2.105 . S
O810 C801 1.268 . S
O811 Sc792 2.105 . S
O811 C797 1.268 . S
O812 Sc794 2.105 . S
O812 C796 1.268 . S
O813 Sc793 2.105 . S
O813 C798 1.268 . S
Sc814 O817 2.025 . S
Sc814 O824 2.105 . S
Sc814 O827 2.105 . S
Sc814 O830 2.105 . S
Sc814 O833 2.105 . S
Sc815 O817 2.025 . S
Sc815 O825 2.105 . S
Sc815 O829 2.105 . S
Sc815 O831 2.105 . S
Sc815 O835 2.105 . S
Sc816 O817 2.025 . S
Sc816 O826 2.105 . S
Sc816 O828 2.105 . S
Sc816 O832 2.105 . S
Sc816 O834 2.105 . S
O817 Sc814 2.025 . S
O817 Sc815 2.025 . S
O817 Sc816 2.025 . S
C818 O824 1.268 . S
C818 O834 1.268 . S
C819 O825 1.268 . S
C819 O833 1.268 . S
C820 O826 1.268 . S
C820 O835 1.268 . S
C821 O827 1.268 . S
C821 O831 1.268 . S
C822 O828 1.268 . S
C822 O830 1.268 . S
C823 O829 1.268 . S
C823 O832 1.268 . S
O824 Sc814 2.105 . S
O824 C818 1.268 . S
O825 Sc815 2.105 . S
O825 C819 1.268 . S
O826 Sc816 2.105 . S
O826 C820 1.268 . S
O827 Sc814 2.105 . S
O827 C821 1.268 . S
O828 Sc816 2.105 . S
O828 C822 1.268 . S
O829 Sc815 2.105 . S
O829 C823 1.268 . S
O830 Sc814 2.105 . S
O830 C822 1.268 . S
O831 Sc815 2.105 . S
O831 C821 1.268 . S
O832 Sc816 2.105 . S
O832 C823 1.268 . S
O833 Sc814 2.105 . S
O833 C819 1.268 . S
O834 Sc816 2.105 . S
O834 C818 1.268 . S
O835 Sc815 2.105 . S
O835 C820 1.268 . S
Sc836 O839 2.025 . S
Sc836 O846 2.105 . S
Sc836 O849 2.105 1_554 S
Sc836 O852 2.105 . S
Sc836 O855 2.105 . S
Sc837 O839 2.025 1_556 S
Sc837 O847 2.105 1_556 S
Sc837 O851 2.105 . S
Sc837 O853 2.105 . S
Sc837 O857 2.104 1_556 S
Sc838 O839 2.025 . S
Sc838 O848 2.105 . S
Sc838 O850 2.105 . S
Sc838 O854 2.105 . S
Sc838 O856 2.105 . S
O839 Sc836 2.025 . S
O839 Sc837 2.025 1_554 S
O839 Sc838 2.025 . S
C840 O846 1.268 . S
C840 O856 1.268 . S
C841 O847 1.268 . S
C841 O855 1.268 . S
C842 O848 1.268 . S
C842 O857 1.268 . S
C843 O849 1.268 . S
C843 O853 1.268 . S
C844 O850 1.268 . S
C844 O852 1.268 . S
C845 O851 1.268 1_554 S
C845 O854 1.268 . S
O846 Sc836 2.105 . S
O846 C840 1.268 . S
O847 Sc837 2.105 1_554 S
O847 C841 1.268 . S
O848 Sc838 2.105 . S
O848 C842 1.268 . S
O849 Sc836 2.105 1_556 S
O849 C843 1.268 . S
O850 Sc838 2.105 . S
O850 C844 1.268 . S
O851 Sc837 2.105 . S
O851 C845 1.268 1_556 S
O852 Sc836 2.105 . S
O852 C844 1.268 . S
O853 Sc837 2.105 . S
O853 C843 1.268 . S
O854 Sc838 2.105 . S
O854 C845 1.268 . S
O855 Sc836 2.105 . S
O855 C841 1.268 . S
O856 Sc838 2.105 . S
O856 C840 1.268 . S
O857 Sc837 2.104 1_554 S
O857 C842 1.268 . S
Sc858 O861 2.025 . S
Sc858 O868 2.105 . S
Sc858 O871 2.105 . S
Sc858 O874 2.105 . S
Sc858 O877 2.105 . S
Sc859 O861 2.025 . S
Sc859 O869 2.105 . S
Sc859 O873 2.105 . S
Sc859 O875 2.105 . S
Sc859 O879 2.105 . S
Sc860 O861 2.025 . S
Sc860 O870 2.105 . S
Sc860 O872 2.105 . S
Sc860 O876 2.105 . S
Sc860 O878 2.105 . S
O861 Sc858 2.025 . S
O861 Sc859 2.025 . S
O861 Sc860 2.025 . S
C862 O868 1.268 . S
C862 O878 1.268 . S
C863 O869 1.268 . S
C863 O877 1.268 . S
C864 O870 1.268 . S
C864 O879 1.268 . S
C865 O871 1.268 . S
C865 O875 1.268 . S
C866 O872 1.268 . S
C866 O874 1.268 . S
C867 O873 1.268 . S
C867 O876 1.268 . S
O868 Sc858 2.105 . S
O868 C862 1.268 . S
O869 Sc859 2.105 . S
O869 C863 1.268 . S
O870 Sc860 2.105 . S
O870 C864 1.268 . S
O871 Sc858 2.105 . S
O871 C865 1.268 . S
O872 Sc860 2.105 . S
O872 C866 1.268 . S
O873 Sc859 2.105 . S
O873 C867 1.268 . S
O874 Sc858 2.105 . S
O874 C866 1.268 . S
O875 Sc859 2.105 . S
O875 C865 1.268 . S
O876 Sc860 2.105 . S
O876 C867 1.268 . S
O877 Sc858 2.105 . S
O877 C863 1.268 . S
O878 Sc860 2.105 . S
O878 C862 1.268 . S
O879 Sc859 2.105 . S
O879 C864 1.268 . S
Sc880 O883 2.025 . S
Sc880 O890 2.105 1_455 S
Sc880 O893 2.105 . S
Sc880 O896 2.105 . S
Sc880 O899 2.105 1_455 S
Sc881 O883 2.025 . S
Sc881 O891 2.105 . S
Sc881 O895 2.105 . S
Sc881 O897 2.105 . S
Sc881 O901 2.105 . S
Sc882 O883 2.025 . S
Sc882 O892 2.105 . S
Sc882 O894 2.105 . S
Sc882 O898 2.105 . S
Sc882 O900 2.105 . S
O883 Sc880 2.025 . S
O883 Sc881 2.025 . S
O883 Sc882 2.025 . S
C884 O890 1.268 . S
C884 O900 1.268 1_655 S
C885 O891 1.268 . S
C885 O899 1.268 1_455 S
C886 O892 1.268 . S
C886 O901 1.268 . S
C887 O893 1.268 . S
C887 O897 1.268 . S
C888 O894 1.268 . S
C888 O896 1.268 . S
C889 O895 1.268 . S
C889 O898 1.268 . S
O890 Sc880 2.105 1_655 S
O890 C884 1.268 . S
O891 Sc881 2.105 . S
O891 C885 1.268 . S
O892 Sc882 2.105 . S
O892 C886 1.268 . S
O893 Sc880 2.105 . S
O893 C887 1.268 . S
O894 Sc882 2.105 . S
O894 C888 1.268 . S
O895 Sc881 2.105 . S
O895 C889 1.268 . S
O896 Sc880 2.105 . S
O896 C888 1.268 . S
O897 Sc881 2.105 . S
O897 C887 1.268 . S
O898 Sc882 2.105 . S
O898 C889 1.268 . S
O899 Sc880 2.105 1_655 S
O899 C885 1.268 1_655 S
O900 Sc882 2.105 . S
O900 C884 1.268 1_455 S
O901 Sc881 2.105 . S
O901 C886 1.268 . S
Sc902 O905 2.025 . S
Sc902 O912 2.105 . S
Sc902 O915 2.105 . S
Sc902 O918 2.105 . S
Sc902 O921 2.105 . S
Sc903 O905 2.025 . S
Sc903 O913 2.105 . S
Sc903 O917 2.105 . S
Sc903 O919 2.105 . S
Sc903 O923 2.105 . S
Sc904 O905 2.025 . S
Sc904 O914 2.105 . S
Sc904 O916 2.105 . S
Sc904 O920 2.105 . S
Sc904 O922 2.105 . S
O905 Sc902 2.025 . S
O905 Sc903 2.025 . S
O905 Sc904 2.025 . S
C906 O912 1.268 . S
C906 O922 1.268 . S
C907 O913 1.268 . S
C907 O921 1.268 . S
C908 O914 1.268 . S
C908 O923 1.268 . S
C909 O915 1.268 . S
C909 O919 1.268 . S
C910 O916 1.268 . S
C910 O918 1.268 . S
C911 O917 1.268 . S
C911 O920 1.268 . S
O912 Sc902 2.105 . S
O912 C906 1.268 . S
O913 Sc903 2.105 . S
O913 C907 1.268 . S
O914 Sc904 2.105 . S
O914 C908 1.268 . S
O915 Sc902 2.105 . S
O915 C909 1.268 . S
O916 Sc904 2.105 . S
O916 C910 1.268 . S
O917 Sc903 2.105 . S
O917 C911 1.268 . S
O918 Sc902 2.105 . S
O918 C910 1.268 . S
O919 Sc903 2.105 . S
O919 C909 1.268 . S
O920 Sc904 2.105 . S
O920 C911 1.268 . S
O921 Sc902 2.105 . S
O921 C907 1.268 . S
O922 Sc904 2.105 . S
O922 C906 1.268 . S
O923 Sc903 2.105 . S
O923 C908 1.268 . S
Sc924 O927 2.025 . S
Sc924 O934 2.105 . S
Sc924 O937 2.105 . S
Sc924 O940 2.105 . S
Sc924 O943 2.105 . S
Sc925 O927 2.025 . S
Sc925 O935 2.105 . S
Sc925 O939 2.105 . S
Sc925 O941 2.105 . S
Sc925 O945 2.105 . S
Sc926 O927 2.025 . S
Sc926 O936 2.105 . S
Sc926 O938 2.105 . S
Sc926 O942 2.105 . S
Sc926 O944 2.105 . S
O927 Sc924 2.025 . S
O927 Sc925 2.025 . S
O927 Sc926 2.025 . S
C928 O934 1.268 . S
C928 O944 1.268 . S
C929 O935 1.268 . S
C929 O943 1.268 . S
C930 O936 1.268 . S
C930 O945 1.268 . S
C931 O937 1.268 . S
C931 O941 1.268 . S
C932 O938 1.268 . S
C932 O940 1.268 . S
C933 O939 1.268 . S
C933 O942 1.268 . S
O934 Sc924 2.105 . S
O934 C928 1.268 . S
O935 Sc925 2.105 . S
O935 C929 1.268 . S
O936 Sc926 2.105 . S
O936 C930 1.268 . S
O937 Sc924 2.105 . S
O937 C931 1.268 . S
O938 Sc926 2.105 . S
O938 C932 1.268 . S
O939 Sc925 2.105 . S
O939 C933 1.268 . S
O940 Sc924 2.105 . S
O940 C932 1.268 . S
O941 Sc925 2.105 . S
O941 C931 1.268 . S
O942 Sc926 2.105 . S
O942 C933 1.268 . S
O943 Sc924 2.105 . S
O943 C929 1.268 . S
O944 Sc926 2.105 . S
O944 C928 1.268 . S
O945 Sc925 2.105 . S
O945 C930 1.268 . S
Sc946 O949 2.025 . S
Sc946 O956 2.105 . S
Sc946 O959 2.105 . S
Sc946 O962 2.105 . S
Sc946 O965 2.105 . S
Sc947 O949 2.025 . S
Sc947 O957 2.105 . S
Sc947 O961 2.105 . S
Sc947 O963 2.105 . S
Sc947 O967 2.105 . S
Sc948 O949 2.025 . S
Sc948 O958 2.105 . S
Sc948 O960 2.105 . S
Sc948 O964 2.105 . S
Sc948 O966 2.105 . S
O949 Sc946 2.025 . S
O949 Sc947 2.025 . S
O949 Sc948 2.025 . S
C950 O956 1.268 . S
C950 O966 1.268 . S
C951 O957 1.268 . S
C951 O965 1.268 . S
C952 O958 1.268 . S
C952 O967 1.268 . S
C953 O959 1.268 . S
C953 O963 1.268 . S
C954 O960 1.268 . S
C954 O962 1.268 . S
C955 O961 1.268 . S
C955 O964 1.268 . S
O956 Sc946 2.105 . S
O956 C950 1.268 . S
O957 Sc947 2.105 . S
O957 C951 1.268 . S
O958 Sc948 2.105 . S
O958 C952 1.268 . S
O959 Sc946 2.105 . S
O959 C953 1.268 . S
O960 Sc948 2.105 . S
O960 C954 1.268 . S
O961 Sc947 2.105 . S
O961 C955 1.268 . S
O962 Sc946 2.105 . S
O962 C954 1.268 . S
O963 Sc947 2.105 . S
O963 C953 1.268 . S
O964 Sc948 2.105 . S
O964 C955 1.268 . S
O965 Sc946 2.105 . S
O965 C951 1.268 . S
O966 Sc948 2.105 . S
O966 C950 1.268 . S
O967 Sc947 2.105 . S
O967 C952 1.268 . S
Sc968 O971 2.025 . S
Sc968 O978 2.105 . S
Sc968 O981 2.105 . S
Sc968 O984 2.105 . S
Sc968 O987 2.105 . S
Sc969 O971 2.025 . S
Sc969 O979 2.105 . S
Sc969 O983 2.105 . S
Sc969 O985 2.105 . S
Sc969 O989 2.105 . S
Sc970 O971 2.025 . S
Sc970 O980 2.105 . S
Sc970 O982 2.105 . S
Sc970 O986 2.105 . S
Sc970 O988 2.105 . S
O971 Sc968 2.025 . S
O971 Sc969 2.025 . S
O971 Sc970 2.025 . S
C972 O978 1.268 . S
C972 O988 1.268 . S
C973 O979 1.268 . S
C973 O987 1.268 . S
C974 O980 1.268 . S
C974 O989 1.268 . S
C975 O981 1.268 . S
C975 O985 1.268 . S
C976 O982 1.268 . S
C976 O984 1.268 . S
C977 O983 1.268 . S
C977 O986 1.268 . S
O978 Sc968 2.105 . S
O978 C972 1.268 . S
O979 Sc969 2.105 . S
O979 C973 1.268 . S
O980 Sc970 2.105 . S
O980 C974 1.268 . S
O981 Sc968 2.105 . S
O981 C975 1.268 . S
O982 Sc970 2.105 . S
O982 C976 1.268 . S
O983 Sc969 2.105 . S
O983 C977 1.268 . S
O984 Sc968 2.105 . S
O984 C976 1.268 . S
O985 Sc969 2.105 . S
O985 C975 1.268 . S
O986 Sc970 2.105 . S
O986 C977 1.268 . S
O987 Sc968 2.105 . S
O987 C973 1.268 . S
O988 Sc970 2.105 . S
O988 C972 1.268 . S
O989 Sc969 2.105 . S
O989 C974 1.268 . S
Sc990 O993 2.025 . S
Sc990 O1000 2.105 . S
Sc990 O1003 2.105 . S
Sc990 O1006 2.105 . S
Sc990 O1009 2.105 . S
Sc991 O993 2.025 1_655 S
Sc991 O1001 2.105 . S
Sc991 O1005 2.105 1_655 S
Sc991 O1007 2.105 1_655 S
Sc991 O1011 2.105 . S
Sc992 O993 2.025 . S
Sc992 O1002 2.105 1_455 S
Sc992 O1004 2.105 . S
Sc992 O1008 2.105 . S
Sc992 O1010 2.105 . S
O993 Sc990 2.025 . S
O993 Sc991 2.025 1_455 S
O993 Sc992 2.025 . S
C994 O1000 1.268 . S
C994 O1010 1.268 . S
C995 O1001 1.268 1_455 S
C995 O1009 1.268 . S
C996 O1002 1.268 . S
C996 O1011 1.268 . S
C997 O1003 1.268 . S
C997 O1007 1.268 . S
C998 O1004 1.268 . S
C998 O1006 1.268 . S
C999 O1005 1.268 . S
C999 O1008 1.268 . S
O1000 Sc990 2.105 . S
O1000 C994 1.268 . S
O1001 Sc991 2.105 . S
O1001 C995 1.268 1_655 S
O1002 Sc992 2.105 1_655 S
O1002 C996 1.268 . S
O1003 Sc990 2.105 . S
O1003 C997 1.268 . S
O1004 Sc992 2.105 . S
O1004 C998 1.268 . S
O1005 Sc991 2.105 1_455 S
O1005 C999 1.268 . S
O1006 Sc990 2.105 . S
O1006 C998 1.268 . S
O1007 Sc991 2.105 1_455 S
O1007 C997 1.268 . S
O1008 Sc992 2.105 . S
O1008 C999 1.268 . S
O1009 Sc990 2.105 . S
O1009 C995 1.268 . S
O1010 Sc992 2.105 . S
O1010 C994 1.268 . S
O1011 Sc991 2.105 . S
O1011 C996 1.268 . S
Sc1012 O1015 2.025 . S
Sc1012 O1022 2.105 . S
Sc1012 O1025 2.105 . S
Sc1012 O1028 2.105 . S
Sc1012 O1031 2.105 . S
Sc1013 O1015 2.025 1_655 S
Sc1013 O1023 2.104 1_655 S
Sc1013 O1027 2.105 . S
Sc1013 O1029 2.105 . S
Sc1013 O1033 2.105 1_655 S
Sc1014 O1015 2.025 . S
Sc1014 O1024 2.105 . S
Sc1014 O1026 2.105 . S
Sc1014 O1030 2.105 1_455 S
Sc1014 O1032 2.105 . S
O1015 Sc1012 2.025 . S
O1015 Sc1013 2.025 1_455 S
O1015 Sc1014 2.025 . S
C1016 O1022 1.268 . S
C1016 O1032 1.268 . S
C1017 O1023 1.268 . S
C1017 O1031 1.268 . S
C1018 O1024 1.268 . S
C1018 O1033 1.268 . S
C1019 O1025 1.268 . S
C1019 O1029 1.268 1_455 S
C1020 O1026 1.268 . S
C1020 O1028 1.268 . S
C1021 O1027 1.268 . S
C1021 O1030 1.268 . S
O1022 Sc1012 2.105 . S
O1022 C1016 1.268 . S
O1023 Sc1013 2.104 1_455 S
O1023 C1017 1.268 . S
O1024 Sc1014 2.105 . S
O1024 C1018 1.268 . S
O1025 Sc1012 2.105 . S
O1025 C1019 1.268 . S
O1026 Sc1014 2.105 . S
O1026 C1020 1.268 . S
O1027 Sc1013 2.105 . S
O1027 C1021 1.268 . S
O1028 Sc1012 2.105 . S
O1028 C1020 1.268 . S
O1029 Sc1013 2.105 . S
O1029 C1019 1.268 1_655 S
O1030 Sc1014 2.105 1_655 S
O1030 C1021 1.268 . S
O1031 Sc1012 2.105 . S
O1031 C1017 1.268 . S
O1032 Sc1014 2.105 . S
O1032 C1016 1.268 . S
O1033 Sc1013 2.105 1_455 S
O1033 C1018 1.268 . S
Sc1034 O1037 2.025 . S
Sc1034 O1044 2.105 . S
Sc1034 O1047 2.105 . S
Sc1034 O1050 2.105 . S
Sc1034 O1053 2.105 . S
Sc1035 O1037 2.025 . S
Sc1035 O1045 2.105 . S
Sc1035 O1049 2.105 . S
Sc1035 O1051 2.105 . S
Sc1035 O1055 2.105 . S
Sc1036 O1037 2.025 . S
Sc1036 O1046 2.105 1_554 S
Sc1036 O1048 2.105 . S
Sc1036 O1052 2.105 . S
Sc1036 O1054 2.105 1_554 S
O1037 Sc1034 2.025 . S
O1037 Sc1035 2.025 . S
O1037 Sc1036 2.025 . S
C1038 O1044 1.268 1_556 S
C1038 O1054 1.268 . S
C1039 O1045 1.268 . S
C1039 O1053 1.268 . S
C1040 O1046 1.268 1_554 S
C1040 O1055 1.268 . S
C1041 O1047 1.268 . S
C1041 O1051 1.268 . S
C1042 O1048 1.268 . S
C1042 O1050 1.268 . S
C1043 O1049 1.268 . S
C1043 O1052 1.268 . S
O1044 Sc1034 2.105 . S
O1044 C1038 1.268 1_554 S
O1045 Sc1035 2.105 . S
O1045 C1039 1.268 . S
O1046 Sc1036 2.105 1_556 S
O1046 C1040 1.268 1_556 S
O1047 Sc1034 2.105 . S
O1047 C1041 1.268 . S
O1048 Sc1036 2.105 . S
O1048 C1042 1.268 . S
O1049 Sc1035 2.105 . S
O1049 C1043 1.268 . S
O1050 Sc1034 2.105 . S
O1050 C1042 1.268 . S
O1051 Sc1035 2.105 . S
O1051 C1041 1.268 . S
O1052 Sc1036 2.105 . S
O1052 C1043 1.268 . S
O1053 Sc1034 2.105 . S
O1053 C1039 1.268 . S
O1054 Sc1036 2.105 1_556 S
O1054 C1038 1.268 . S
O1055 Sc1035 2.105 . S
O1055 C1040 1.268 . S
Sc1056 O1059 2.025 . S
Sc1056 O1066 2.105 . S
Sc1056 O1069 2.105 . S
Sc1056 O1072 2.105 . S
Sc1056 O1075 2.105 . S
Sc1057 O1059 2.025 . S
Sc1057 O1067 2.105 . S
Sc1057 O1071 2.105 . S
Sc1057 O1073 2.105 . S
Sc1057 O1077 2.105 . S
Sc1058 O1059 2.025 . S
Sc1058 O1068 2.105 . S
Sc1058 O1070 2.105 . S
Sc1058 O1074 2.105 . S
Sc1058 O1076 2.105 . S
O1059 Sc1056 2.025 . S
O1059 Sc1057 2.025 . S
O1059 Sc1058 2.025 . S
C1060 O1066 1.268 . S
C1060 O1076 1.268 . S
C1061 O1067 1.268 . S
C1061 O1075 1.268 . S
C1062 O1068 1.268 . S
C1062 O1077 1.268 . S
C1063 O1069 1.268 . S
C1063 O1073 1.268 . S
C1064 O1070 1.268 . S
C1064 O1072 1.268 . S
C1065 O1071 1.268 . S
C1065 O1074 1.268 . S
O1066 Sc1056 2.105 . S
O1066 C1060 1.268 . S
O1067 Sc1057 2.105 . S
O1067 C1061 1.268 . S
O1068 Sc1058 2.105 . S
O1068 C1062 1.268 . S
O1069 Sc1056 2.105 . S
O1069 C1063 1.268 . S
O1070 Sc1058 2.105 . S
O1070 C1064 1.268 . S
O1071 Sc1057 2.105 . S
O1071 C1065 1.268 . S
O1072 Sc1056 2.105 . S
O1072 C1064 1.268 . S
O1073 Sc1057 2.105 . S
O1073 C1063 1.268 . S
O1074 Sc1058 2.105 . S
O1074 C1065 1.268 . S
O1075 Sc1056 2.105 . S
O1075 C1061 1.268 . S
O1076 Sc1058 2.105 . S
O1076 C1060 1.268 . S
O1077 Sc1057 2.105 . S
O1077 C1062 1.268 . S
Sc1078 O1081 2.025 . S
Sc1078 O1088 2.105 . S
Sc1078 O1091 2.105 . S
Sc1078 O1094 2.105 . S
Sc1078 O1097 2.105 . S
Sc1079 O1081 2.025 . S
Sc1079 O1089 2.105 . S
Sc1079 O1093 2.105 . S
Sc1079 O1095 2.105 . S
Sc1079 O1099 2.105 . S
Sc1080 O1081 2.025 . S
Sc1080 O1090 2.105 . S
Sc1080 O1092 2.105 . S
Sc1080 O1096 2.105 . S
Sc1080 O1098 2.105 . S
O1081 Sc1078 2.025 . S
O1081 Sc1079 2.025 . S
O1081 Sc1080 2.025 . S
C1082 O1088 1.268 . S
C1082 O1098 1.268 . S
C1083 O1089 1.268 . S
C1083 O1097 1.268 . S
C1084 O1090 1.268 . S
C1084 O1099 1.268 . S
C1085 O1091 1.268 . S
C1085 O1095 1.268 . S
C1086 O1092 1.268 . S
C1086 O1094 1.268 . S
C1087 O1093 1.268 . S
C1087 O1096 1.268 . S
O1088 Sc1078 2.105 . S
O1088 C1082 1.268 . S
O1089 Sc1079 2.105 . S
O1089 C1083 1.268 . S
O1090 Sc1080 2.105 . S
O1090 C1084 1.268 . S
O1091 Sc1078 2.105 . S
O1091 C1085 1.268 . S
O1092 Sc1080 2.105 . S
O1092 C1086 1.268 . S
O1093 Sc1079 2.105 . S
O1093 C1087 1.268 . S
O1094 Sc1078 2.105 . S
O1094 C1086 1.268 . S
O1095 Sc1079 2.105 . S
O1095 C1085 1.268 . S
O1096 Sc1080 2.105 . S
O1096 C1087 1.268 . S
O1097 Sc1078 2.105 . S
O1097 C1083 1.268 . S
O1098 Sc1080 2.105 . S
O1098 C1082 1.268 . S
O1099 Sc1079 2.105 . S
O1099 C1084 1.268 . S
Sc1100 O1103 2.025 . S
Sc1100 O1110 2.105 . S
Sc1100 O1113 2.105 . S
Sc1100 O1116 2.105 . S
Sc1100 O1119 2.105 . S
Sc1101 O1103 2.025 1_655 S
Sc1101 O1111 2.105 1_655 S
Sc1101 O1115 2.105 . S
Sc1101 O1117 2.105 . S
Sc1101 O1121 2.105 1_655 S
Sc1102 O1103 2.025 . S
Sc1102 O1112 2.105 . S
Sc1102 O1114 2.105 . S
Sc1102 O1118 2.105 1_455 S
Sc1102 O1120 2.105 . S
O1103 Sc1100 2.025 . S
O1103 Sc1101 2.025 1_455 S
O1103 Sc1102 2.025 . S
C1104 O1110 1.268 . S
C1104 O1120 1.268 . S
C1105 O1111 1.268 . S
C1105 O1119 1.268 . S
C1106 O1112 1.268 . S
C1106 O1121 1.268 . S
C1107 O1113 1.268 . S
C1107 O1117 1.268 1_455 S
C1108 O1114 1.268 . S
C1108 O1116 1.268 . S
C1109 O1115 1.268 . S
C1109 O1118 1.268 . S
O1110 Sc1100 2.105 . S
O1110 C1104 1.268 . S
O1111 Sc1101 2.105 1_455 S
O1111 C1105 1.268 . S
O1112 Sc1102 2.105 . S
O1112 C1106 1.268 . S
O1113 Sc1100 2.105 . S
O1113 C1107 1.268 . S
O1114 Sc1102 2.105 . S
O1114 C1108 1.268 . S
O1115 Sc1101 2.105 . S
O1115 C1109 1.268 . S
O1116 Sc1100 2.105 . S
O1116 C1108 1.268 . S
O1117 Sc1101 2.105 . S
O1117 C1107 1.268 1_655 S
O1118 Sc1102 2.105 1_655 S
O1118 C1109 1.268 . S
O1119 Sc1100 2.105 . S
O1119 C1105 1.268 . S
O1120 Sc1102 2.105 . S
O1120 C1104 1.268 . S
O1121 Sc1101 2.105 1_455 S
O1121 C1106 1.268 . S
Sc1122 O1125 2.025 . S
Sc1122 O1132 2.105 . S
Sc1122 O1135 2.105 . S
Sc1122 O1138 2.105 . S
Sc1122 O1141 2.105 . S
Sc1123 O1125 2.025 . S
Sc1123 O1133 2.105 . S
Sc1123 O1137 2.105 . S
Sc1123 O1139 2.105 . S
Sc1123 O1143 2.105 . S
Sc1124 O1125 2.025 . S
Sc1124 O1134 2.105 1_455 S
Sc1124 O1136 2.105 . S
Sc1124 O1140 2.105 . S
Sc1124 O1142 2.105 1_455 S
O1125 Sc1122 2.025 . S
O1125 Sc1123 2.025 . S
O1125 Sc1124 2.025 . S
C1126 O1132 1.268 1_655 S
C1126 O1142 1.268 . S
C1127 O1133 1.268 . S
C1127 O1141 1.268 . S
C1128 O1134 1.268 1_455 S
C1128 O1143 1.268 . S
C1129 O1135 1.268 . S
C1129 O1139 1.268 . S
C1130 O1136 1.268 . S
C1130 O1138 1.268 . S
C1131 O1137 1.268 . S
C1131 O1140 1.268 . S
O1132 Sc1122 2.105 . S
O1132 C1126 1.268 1_455 S
O1133 Sc1123 2.105 . S
O1133 C1127 1.268 . S
O1134 Sc1124 2.105 1_655 S
O1134 C1128 1.268 1_655 S
O1135 Sc1122 2.105 . S
O1135 C1129 1.268 . S
O1136 Sc1124 2.105 . S
O1136 C1130 1.268 . S
O1137 Sc1123 2.105 . S
O1137 C1131 1.268 . S
O1138 Sc1122 2.105 . S
O1138 C1130 1.268 . S
O1139 Sc1123 2.105 . S
O1139 C1129 1.268 . S
O1140 Sc1124 2.105 . S
O1140 C1131 1.268 . S
O1141 Sc1122 2.105 . S
O1141 C1127 1.268 . S
O1142 Sc1124 2.105 1_655 S
O1142 C1126 1.268 . S
O1143 Sc1123 2.105 . S
O1143 C1128 1.268 . S
Sc1144 O1147 2.025 . S
Sc1144 O1154 2.105 . S
Sc1144 O1157 2.105 . S
Sc1144 O1160 2.105 . S
Sc1144 O1163 2.105 . S
Sc1145 O1147 2.025 . S
Sc1145 O1155 2.105 . S
Sc1145 O1159 2.105 . S
Sc1145 O1161 2.105 . S
Sc1145 O1165 2.105 . S
Sc1146 O1147 2.025 . S
Sc1146 O1156 2.105 . S
Sc1146 O1158 2.105 . S
Sc1146 O1162 2.105 . S
Sc1146 O1164 2.105 . S
O1147 Sc1144 2.025 . S
O1147 Sc1145 2.025 . S
O1147 Sc1146 2.025 . S
C1148 O1154 1.268 . S
C1148 O1164 1.268 . S
C1149 O1155 1.268 . S
C1149 O1163 1.268 . S
C1150 O1156 1.268 . S
C1150 O1165 1.268 . S
C1151 O1157 1.268 . S
C1151 O1161 1.268 . S
C1152 O1158 1.268 . S
C1152 O1160 1.268 . S
C1153 O1159 1.268 . S
C1153 O1162 1.268 . S
O1154 Sc1144 2.105 . S
O1154 C1148 1.268 . S
O1155 Sc1145 2.105 . S
O1155 C1149 1.268 . S
O1156 Sc1146 2.105 . S
O1156 C1150 1.268 . S
O1157 Sc1144 2.105 . S
O1157 C1151 1.268 . S
O1158 Sc1146 2.105 . S
O1158 C1152 1.268 . S
O1159 Sc1145 2.105 . S
O1159 C1153 1.268 . S
O1160 Sc1144 2.105 . S
O1160 C1152 1.268 . S
O1161 Sc1145 2.105 . S
O1161 C1151 1.268 . S
O1162 Sc1146 2.105 . S
O1162 C1153 1.268 . S
O1163 Sc1144 2.105 . S
O1163 C1149 1.268 . S
O1164 Sc1146 2.105 . S
O1164 C1148 1.268 . S
O1165 Sc1145 2.105 . S
O1165 C1150 1.268 . S
Sc1166 O1169 2.025 . S
Sc1166 O1176 2.105 . S
Sc1166 O1179 2.105 . S
Sc1166 O1182 2.105 . S
Sc1166 O1185 2.105 1_554 S
Sc1167 O1169 2.025 1_556 S
Sc1167 O1177 2.105 . S
Sc1167 O1181 2.104 1_556 S
Sc1167 O1183 2.105 1_556 S
Sc1167 O1187 2.105 . S
Sc1168 O1169 2.025 . S
Sc1168 O1178 2.105 . S
Sc1168 O1180 2.105 . S
Sc1168 O1184 2.105 . S
Sc1168 O1186 2.105 . S
O1169 Sc1166 2.025 . S
O1169 Sc1167 2.025 1_554 S
O1169 Sc1168 2.025 . S
C1170 O1176 1.268 . S
C1170 O1186 1.268 . S
C1171 O1177 1.268 . S
C1171 O1185 1.268 . S
C1172 O1178 1.268 . S
C1172 O1187 1.268 1_554 S
C1173 O1179 1.268 . S
C1173 O1183 1.268 . S
C1174 O1180 1.268 . S
C1174 O1182 1.268 . S
C1175 O1181 1.268 . S
C1175 O1184 1.268 . S
O1176 Sc1166 2.105 . S
O1176 C1170 1.268 . S
O1177 Sc1167 2.105 . S
O1177 C1171 1.268 . S
O1178 Sc1168 2.105 . S
O1178 C1172 1.268 . S
O1179 Sc1166 2.105 . S
O1179 C1173 1.268 . S
O1180 Sc1168 2.105 . S
O1180 C1174 1.268 . S
O1181 Sc1167 2.104 1_554 S
O1181 C1175 1.268 . S
O1182 Sc1166 2.105 . S
O1182 C1174 1.268 . S
O1183 Sc1167 2.105 1_554 S
O1183 C1173 1.268 . S
O1184 Sc1168 2.105 . S
O1184 C1175 1.268 . S
O1185 Sc1166 2.105 1_556 S
O1185 C1171 1.268 . S
O1186 Sc1168 2.105 . S
O1186 C1170 1.268 . S
O1187 Sc1167 2.105 . S
O1187 C1172 1.268 1_556 S
Sc1188 O1191 2.025 . S
Sc1188 O1198 2.105 . S
Sc1188 O1201 2.105 . S
Sc1188 O1204 2.105 . S
Sc1188 O1207 2.105 . S
Sc1189 O1191 2.025 . S
Sc1189 O1199 2.105 . S
Sc1189 O1203 2.105 . S
Sc1189 O1205 2.105 . S
Sc1189 O1209 2.105 . S
Sc1190 O1191 2.025 . S
Sc1190 O1200 2.105 . S
Sc1190 O1202 2.105 . S
Sc1190 O1206 2.105 . S
Sc1190 O1208 2.105 . S
O1191 Sc1188 2.025 . S
O1191 Sc1189 2.025 . S
O1191 Sc1190 2.025 . S
C1192 O1198 1.268 . S
C1192 O1208 1.268 . S
C1193 O1199 1.268 . S
C1193 O1207 1.268 . S
C1194 O1200 1.268 . S
C1194 O1209 1.268 . S
C1195 O1201 1.268 . S
C1195 O1205 1.268 . S
C1196 O1202 1.268 . S
C1196 O1204 1.268 . S
C1197 O1203 1.268 . S
C1197 O1206 1.268 . S
O1198 Sc1188 2.105 . S
O1198 C1192 1.268 . S
O1199 Sc1189 2.105 . S
O1199 C1193 1.268 . S
O1200 Sc1190 2.105 . S
O1200 C1194 1.268 . S
O1201 Sc1188 2.105 . S
O1201 C1195 1.268 . S
O1202 Sc1190 2.105 . S
O1202 C1196 1.268 . S
O1203 Sc1189 2.105 . S
O1203 C1197 1.268 . S
O1204 Sc1188 2.105 . S
O1204 C1196 1.268 . S
O1205 Sc1189 2.105 . S
O1205 C1195 1.268 . S
O1206 Sc1190 2.105 . S
O1206 C1197 1.268 . S
O1207 Sc1188 2.105 . S
O1207 C1193 1.268 . S
O1208 Sc1190 2.105 . S
O1208 C1192 1.268 . S
O1209 Sc1189 2.105 . S
O1209 C1194 1.268 . S
Sc1210 O1213 2.025 . S
Sc1210 O1220 2.105 . S
Sc1210 O1223 2.105 . S
Sc1210 O1226 2.105 . S
Sc1210 O1229 2.105 . S
Sc1211 O1213 2.025 . S
Sc1211 O1221 2.105 . S
Sc1211 O1225 2.105 . S
Sc1211 O1227 2.105 . S
Sc1211 O1231 2.105 . S
Sc1212 O1213 2.025 . S
Sc1212 O1222 2.105 . S
Sc1212 O1224 2.105 . S
Sc1212 O1228 2.105 . S
Sc1212 O1230 2.105 . S
O1213 Sc1210 2.025 . S
O1213 Sc1211 2.025 . S
O1213 Sc1212 2.025 . S
C1214 O1220 1.268 . S
C1214 O1230 1.268 . S
C1215 O1221 1.268 . S
C1215 O1229 1.268 . S
C1216 O1222 1.268 . S
C1216 O1231 1.268 . S
C1217 O1223 1.268 . S
C1217 O1227 1.268 . S
C1218 O1224 1.268 . S
C1218 O1226 1.268 . S
C1219 O1225 1.268 . S
C1219 O1228 1.268 . S
O1220 Sc1210 2.105 . S
O1220 C1214 1.268 . S
O1221 Sc1211 2.105 . S
O1221 C1215 1.268 . S
O1222 Sc1212 2.105 . S
O1222 C1216 1.268 . S
O1223 Sc1210 2.105 . S
O1223 C1217 1.268 . S
O1224 Sc1212 2.105 . S
O1224 C1218 1.268 . S
O1225 Sc1211 2.105 . S
O1225 C1219 1.268 . S
O1226 Sc1210 2.105 . S
O1226 C1218 1.268 . S
O1227 Sc1211 2.105 . S
O1227 C1217 1.268 . S
O1228 Sc1212 2.105 . S
O1228 C1219 1.268 . S
O1229 Sc1210 2.105 . S
O1229 C1215 1.268 . S
O1230 Sc1212 2.105 . S
O1230 C1214 1.268 . S
O1231 Sc1211 2.105 . S
O1231 C1216 1.268 . S
Sc1232 O1235 2.025 . S
Sc1232 O1242 2.105 . S
Sc1232 O1245 2.105 . S
Sc1232 O1248 2.105 . S
Sc1232 O1251 2.105 . S
Sc1233 O1235 2.025 . S
Sc1233 O1243 2.105 . S
Sc1233 O1247 2.105 . S
Sc1233 O1249 2.105 . S
Sc1233 O1253 2.105 . S
Sc1234 O1235 2.025 . S
Sc1234 O1244 2.105 . S
Sc1234 O1246 2.105 . S
Sc1234 O1250 2.105 . S
Sc1234 O1252 2.105 . S
O1235 Sc1232 2.025 . S
O1235 Sc1233 2.025 . S
O1235 Sc1234 2.025 . S
C1236 O1242 1.268 . S
C1236 O1252 1.268 . S
C1237 O1243 1.268 . S
C1237 O1251 1.268 . S
C1238 O1244 1.268 . S
C1238 O1253 1.268 . S
C1239 O1245 1.268 . S
C1239 O1249 1.268 . S
C1240 O1246 1.268 . S
C1240 O1248 1.268 . S
C1241 O1247 1.268 . S
C1241 O1250 1.268 . S
O1242 Sc1232 2.105 . S
O1242 C1236 1.268 . S
O1243 Sc1233 2.105 . S
O1243 C1237 1.268 . S
O1244 Sc1234 2.105 . S
O1244 C1238 1.268 . S
O1245 Sc1232 2.105 . S
O1245 C1239 1.268 . S
O1246 Sc1234 2.105 . S
O1246 C1240 1.268 . S
O1247 Sc1233 2.105 . S
O1247 C1241 1.268 . S
O1248 Sc1232 2.105 . S
O1248 C1240 1.268 . S
O1249 Sc1233 2.105 . S
O1249 C1239 1.268 . S
O1250 Sc1234 2.105 . S
O1250 C1241 1.268 . S
O1251 Sc1232 2.105 . S
O1251 C1237 1.268 . S
O1252 Sc1234 2.105 . S
O1252 C1236 1.268 . S
O1253 Sc1233 2.105 . S
O1253 C1238 1.268 . S
Sc1254 O1257 2.025 . S
Sc1254 O1264 2.105 . S
Sc1254 O1267 2.105 . S
Sc1254 O1270 2.105 . S
Sc1254 O1273 2.105 . S
Sc1255 O1257 2.025 . S
Sc1255 O1265 2.105 . S
Sc1255 O1269 2.105 . S
Sc1255 O1271 2.105 . S
Sc1255 O1275 2.105 . S
Sc1256 O1257 2.025 . S
Sc1256 O1266 2.105 . S
Sc1256 O1268 2.105 . S
Sc1256 O1272 2.105 . S
Sc1256 O1274 2.105 . S
O1257 Sc1254 2.025 . S
O1257 Sc1255 2.025 . S
O1257 Sc1256 2.025 . S
C1258 O1264 1.268 . S
C1258 O1274 1.268 . S
C1259 O1265 1.268 . S
C1259 O1273 1.268 . S
C1260 O1266 1.268 . S
C1260 O1275 1.268 . S
C1261 O1267 1.268 . S
C1261 O1271 1.268 . S
C1262 O1268 1.268 . S
C1262 O1270 1.268 . S
C1263 O1269 1.268 . S
C1263 O1272 1.268 . S
O1264 Sc1254 2.105 . S
O1264 C1258 1.268 . S
O1265 Sc1255 2.105 . S
O1265 C1259 1.268 . S
O1266 Sc1256 2.105 . S
O1266 C1260 1.268 . S
O1267 Sc1254 2.105 . S
O1267 C1261 1.268 . S
O1268 Sc1256 2.105 . S
O1268 C1262 1.268 . S
O1269 Sc1255 2.105 . S
O1269 C1263 1.268 . S
O1270 Sc1254 2.105 . S
O1270 C1262 1.268 . S
O1271 Sc1255 2.105 . S
O1271 C1261 1.268 . S
O1272 Sc1256 2.105 . S
O1272 C1263 1.268 . S
O1273 Sc1254 2.105 . S
O1273 C1259 1.268 . S
O1274 Sc1256 2.105 . S
O1274 C1258 1.268 . S
O1275 Sc1255 2.105 . S
O1275 C1260 1.268 . S
Sc1276 O1279 2.025 . S
Sc1276 O1286 2.105 . S
Sc1276 O1289 2.105 . S
Sc1276 O1292 2.105 . S
Sc1276 O1295 2.105 . S
Sc1277 O1279 2.025 . S
Sc1277 O1287 2.105 . S
Sc1277 O1291 2.105 . S
Sc1277 O1293 2.105 . S
Sc1277 O1297 2.105 . S
Sc1278 O1279 2.025 . S
Sc1278 O1288 2.105 . S
Sc1278 O1290 2.105 . S
Sc1278 O1294 2.105 . S
Sc1278 O1296 2.105 . S
O1279 Sc1276 2.025 . S
O1279 Sc1277 2.025 . S
O1279 Sc1278 2.025 . S
C1280 O1286 1.268 . S
C1280 O1296 1.268 . S
C1281 O1287 1.268 . S
C1281 O1295 1.268 . S
C1282 O1288 1.268 . S
C1282 O1297 1.268 . S
C1283 O1289 1.268 . S
C1283 O1293 1.268 . S
C1284 O1290 1.268 . S
C1284 O1292 1.268 . S
C1285 O1291 1.268 . S
C1285 O1294 1.268 . S
O1286 Sc1276 2.105 . S
O1286 C1280 1.268 . S
O1287 Sc1277 2.105 . S
O1287 C1281 1.268 . S
O1288 Sc1278 2.105 . S
O1288 C1282 1.268 . S
O1289 Sc1276 2.105 . S
O1289 C1283 1.268 . S
O1290 Sc1278 2.105 . S
O1290 C1284 1.268 . S
O1291 Sc1277 2.105 . S
O1291 C1285 1.268 . S
O1292 Sc1276 2.105 . S
O1292 C1284 1.268 . S
O1293 Sc1277 2.105 . S
O1293 C1283 1.268 . S
O1294 Sc1278 2.105 . S
O1294 C1285 1.268 . S
O1295 Sc1276 2.105 . S
O1295 C1281 1.268 . S
O1296 Sc1278 2.105 . S
O1296 C1280 1.268 . S
O1297 Sc1277 2.105 . S
O1297 C1282 1.268 . S
Sc1298 O1301 2.025 . S
Sc1298 O1308 2.105 . S
Sc1298 O1311 2.105 . S
Sc1298 O1314 2.105 . S
Sc1298 O1317 2.105 . S
Sc1299 O1301 2.025 . S
Sc1299 O1309 2.105 . S
Sc1299 O1313 2.105 . S
Sc1299 O1315 2.105 . S
Sc1299 O1319 2.105 . S
Sc1300 O1301 2.025 . S
Sc1300 O1310 2.105 . S
Sc1300 O1312 2.105 . S
Sc1300 O1316 2.105 . S
Sc1300 O1318 2.105 . S
O1301 Sc1298 2.025 . S
O1301 Sc1299 2.025 . S
O1301 Sc1300 2.025 . S
C1302 O1308 1.268 . S
C1302 O1318 1.268 . S
C1303 O1309 1.268 . S
C1303 O1317 1.268 . S
C1304 O1310 1.268 . S
C1304 O1319 1.268 . S
C1305 O1311 1.268 . S
C1305 O1315 1.268 . S
C1306 O1312 1.268 . S
C1306 O1314 1.268 . S
C1307 O1313 1.268 . S
C1307 O1316 1.268 . S
O1308 Sc1298 2.105 . S
O1308 C1302 1.268 . S
O1309 Sc1299 2.105 . S
O1309 C1303 1.268 . S
O1310 Sc1300 2.105 . S
O1310 C1304 1.268 . S
O1311 Sc1298 2.105 . S
O1311 C1305 1.268 . S
O1312 Sc1300 2.105 . S
O1312 C1306 1.268 . S
O1313 Sc1299 2.105 . S
O1313 C1307 1.268 . S
O1314 Sc1298 2.105 . S
O1314 C1306 1.268 . S
O1315 Sc1299 2.105 . S
O1315 C1305 1.268 . S
O1316 Sc1300 2.105 . S
O1316 C1307 1.268 . S
O1317 Sc1298 2.105 . S
O1317 C1303 1.268 . S
O1318 Sc1300 2.105 . S
O1318 C1302 1.268 . S
O1319 Sc1299 2.105 . S
O1319 C1304 1.268 . S
Sc1320 O1323 2.025 . S
Sc1320 O1330 2.105 . S
Sc1320 O1333 2.105 . S
Sc1320 O1336 2.105 . S
Sc1320 O1339 2.105 . S
Sc1321 O1323 2.025 . S
Sc1321 O1331 2.105 . S
Sc1321 O1335 2.105 . S
Sc1321 O1337 2.105 . S
Sc1321 O1341 2.105 . S
Sc1322 O1323 2.025 . S
Sc1322 O1332 2.105 1_455 S
Sc1322 O1334 2.105 . S
Sc1322 O1338 2.105 . S
Sc1322 O1340 2.105 1_455 S
O1323 Sc1320 2.025 . S
O1323 Sc1321 2.025 . S
O1323 Sc1322 2.025 . S
C1324 O1330 1.268 1_655 S
C1324 O1340 1.268 . S
C1325 O1331 1.268 . S
C1325 O1339 1.268 . S
C1326 O1332 1.268 1_455 S
C1326 O1341 1.268 . S
C1327 O1333 1.268 . S
C1327 O1337 1.268 . S
C1328 O1334 1.268 . S
C1328 O1336 1.268 . S
C1329 O1335 1.268 . S
C1329 O1338 1.268 . S
O1330 Sc1320 2.105 . S
O1330 C1324 1.268 1_455 S
O1331 Sc1321 2.105 . S
O1331 C1325 1.268 . S
O1332 Sc1322 2.105 1_655 S
O1332 C1326 1.268 1_655 S
O1333 Sc1320 2.105 . S
O1333 C1327 1.268 . S
O1334 Sc1322 2.105 . S
O1334 C1328 1.268 . S
O1335 Sc1321 2.105 . S
O1335 C1329 1.268 . S
O1336 Sc1320 2.105 . S
O1336 C1328 1.268 . S
O1337 Sc1321 2.105 . S
O1337 C1327 1.268 . S
O1338 Sc1322 2.105 . S
O1338 C1329 1.268 . S
O1339 Sc1320 2.105 . S
O1339 C1325 1.268 . S
O1340 Sc1322 2.105 1_655 S
O1340 C1324 1.268 . S
O1341 Sc1321 2.105 . S
O1341 C1326 1.268 . S
Sc1342 O1345 2.025 . S
Sc1342 O1352 2.105 . S
Sc1342 O1355 2.105 . S
Sc1342 O1358 2.105 . S
Sc1342 O1361 2.105 . S
Sc1343 O1345 2.025 . S
Sc1343 O1353 2.105 . S
Sc1343 O1357 2.105 . S
Sc1343 O1359 2.105 . S
Sc1343 O1363 2.105 . S
Sc1344 O1345 2.025 . S
Sc1344 O1354 2.105 . S
Sc1344 O1356 2.105 . S
Sc1344 O1360 2.105 . S
Sc1344 O1362 2.105 . S
O1345 Sc1342 2.025 . S
O1345 Sc1343 2.025 . S
O1345 Sc1344 2.025 . S
C1346 O1352 1.268 . S
C1346 O1362 1.268 . S
C1347 O1353 1.268 . S
C1347 O1361 1.268 . S
C1348 O1354 1.268 . S
C1348 O1363 1.268 . S
C1349 O1355 1.268 . S
C1349 O1359 1.268 . S
C1350 O1356 1.268 . S
C1350 O1358 1.268 . S
C1351 O1357 1.268 . S
C1351 O1360 1.268 . S
O1352 Sc1342 2.105 . S
O1352 C1346 1.268 . S
O1353 Sc1343 2.105 . S
O1353 C1347 1.268 . S
O1354 Sc1344 2.105 . S
O1354 C1348 1.268 . S
O1355 Sc1342 2.105 . S
O1355 C1349 1.268 . S
O1356 Sc1344 2.105 . S
O1356 C1350 1.268 . S
O1357 Sc1343 2.105 . S
O1357 C1351 1.268 . S
O1358 Sc1342 2.105 . S
O1358 C1350 1.268 . S
O1359 Sc1343 2.105 . S
O1359 C1349 1.268 . S
O1360 Sc1344 2.105 . S
O1360 C1351 1.268 . S
O1361 Sc1342 2.105 . S
O1361 C1347 1.268 . S
O1362 Sc1344 2.105 . S
O1362 C1346 1.268 . S
O1363 Sc1343 2.105 . S
O1363 C1348 1.268 . S
Sc1364 O1367 2.025 . S
Sc1364 O1374 2.105 . S
Sc1364 O1377 2.105 . S
Sc1364 O1380 2.105 . S
Sc1364 O1383 2.105 . S
Sc1365 O1367 2.025 . S
Sc1365 O1375 2.105 . S
Sc1365 O1379 2.105 . S
Sc1365 O1381 2.105 . S
Sc1365 O1385 2.105 . S
Sc1366 O1367 2.025 . S
Sc1366 O1376 2.105 . S
Sc1366 O1378 2.105 . S
Sc1366 O1382 2.105 . S
Sc1366 O1384 2.105 . S
O1367 Sc1364 2.025 . S
O1367 Sc1365 2.025 . S
O1367 Sc1366 2.025 . S
C1368 O1374 1.268 . S
C1368 O1384 1.268 . S
C1369 O1375 1.268 . S
C1369 O1383 1.268 . S
C1370 O1376 1.268 . S
C1370 O1385 1.268 . S
C1371 O1377 1.268 . S
C1371 O1381 1.268 . S
C1372 O1378 1.268 . S
C1372 O1380 1.268 . S
C1373 O1379 1.268 . S
C1373 O1382 1.268 . S
O1374 Sc1364 2.105 . S
O1374 C1368 1.268 . S
O1375 Sc1365 2.105 . S
O1375 C1369 1.268 . S
O1376 Sc1366 2.105 . S
O1376 C1370 1.268 . S
O1377 Sc1364 2.105 . S
O1377 C1371 1.268 . S
O1378 Sc1366 2.105 . S
O1378 C1372 1.268 . S
O1379 Sc1365 2.105 . S
O1379 C1373 1.268 . S
O1380 Sc1364 2.105 . S
O1380 C1372 1.268 . S
O1381 Sc1365 2.105 . S
O1381 C1371 1.268 . S
O1382 Sc1366 2.105 . S
O1382 C1373 1.268 . S
O1383 Sc1364 2.105 . S
O1383 C1369 1.268 . S
O1384 Sc1366 2.105 . S
O1384 C1368 1.268 . S
O1385 Sc1365 2.105 . S
O1385 C1370 1.268 . S
Sc1386 O1389 2.025 . S
Sc1386 O1396 2.105 . S
Sc1386 O1399 2.105 . S
Sc1386 O1402 2.105 . S
Sc1386 O1405 2.105 . S
Sc1387 O1389 2.025 . S
Sc1387 O1397 2.105 . S
Sc1387 O1401 2.105 . S
Sc1387 O1403 2.105 . S
Sc1387 O1407 2.105 . S
Sc1388 O1389 2.025 . S
Sc1388 O1398 2.105 . S
Sc1388 O1400 2.105 . S
Sc1388 O1404 2.105 . S
Sc1388 O1406 2.105 . S
O1389 Sc1386 2.025 . S
O1389 Sc1387 2.025 . S
O1389 Sc1388 2.025 . S
C1390 O1396 1.268 . S
C1390 O1406 1.268 . S
C1391 O1397 1.268 . S
C1391 O1405 1.268 . S
C1392 O1398 1.268 . S
C1392 O1407 1.268 . S
C1393 O1399 1.268 . S
C1393 O1403 1.268 . S
C1394 O1400 1.268 . S
C1394 O1402 1.268 . S
C1395 O1401 1.268 . S
C1395 O1404 1.268 . S
O1396 Sc1386 2.105 . S
O1396 C1390 1.268 . S
O1397 Sc1387 2.105 . S
O1397 C1391 1.268 . S
O1398 Sc1388 2.105 . S
O1398 C1392 1.268 . S
O1399 Sc1386 2.105 . S
O1399 C1393 1.268 . S
O1400 Sc1388 2.105 . S
O1400 C1394 1.268 . S
O1401 Sc1387 2.105 . S
O1401 C1395 1.268 . S
O1402 Sc1386 2.105 . S
O1402 C1394 1.268 . S
O1403 Sc1387 2.105 . S
O1403 C1393 1.268 . S
O1404 Sc1388 2.105 . S
O1404 C1395 1.268 . S
O1405 Sc1386 2.105 . S
O1405 C1391 1.268 . S
O1406 Sc1388 2.105 . S
O1406 C1390 1.268 . S
O1407 Sc1387 2.105 . S
O1407 C1392 1.268 . S
Sc1408 O1411 2.025 . S
Sc1408 O1418 2.105 . S
Sc1408 O1421 2.105 1_545 S
Sc1408 O1424 2.105 1_545 S
Sc1408 O1427 2.105 . S
Sc1409 O1411 2.025 . S
Sc1409 O1419 2.105 . S
Sc1409 O1423 2.105 . S
Sc1409 O1425 2.105 . S
Sc1409 O1429 2.105 . S
Sc1410 O1411 2.025 . S
Sc1410 O1420 2.105 . S
Sc1410 O1422 2.105 . S
Sc1410 O1426 2.105 . S
Sc1410 O1428 2.105 . S
O1411 Sc1408 2.025 . S
O1411 Sc1409 2.025 . S
O1411 Sc1410 2.025 . S
C1412 O1418 1.268 . S
C1412 O1428 1.268 . S
C1413 O1419 1.268 . S
C1413 O1427 1.268 . S
C1414 O1420 1.268 . S
C1414 O1429 1.268 . S
C1415 O1421 1.268 1_545 S
C1415 O1425 1.268 . S
C1416 O1422 1.268 1_565 S
C1416 O1424 1.268 . S
C1417 O1423 1.268 . S
C1417 O1426 1.268 . S
O1418 Sc1408 2.105 . S
O1418 C1412 1.268 . S
O1419 Sc1409 2.105 . S
O1419 C1413 1.268 . S
O1420 Sc1410 2.105 . S
O1420 C1414 1.268 . S
O1421 Sc1408 2.105 1_565 S
O1421 C1415 1.268 1_565 S
O1422 Sc1410 2.105 . S
O1422 C1416 1.268 1_545 S
O1423 Sc1409 2.105 . S
O1423 C1417 1.268 . S
O1424 Sc1408 2.105 1_565 S
O1424 C1416 1.268 . S
O1425 Sc1409 2.105 . S
O1425 C1415 1.268 . S
O1426 Sc1410 2.105 . S
O1426 C1417 1.268 . S
O1427 Sc1408 2.105 . S
O1427 C1413 1.268 . S
O1428 Sc1410 2.105 . S
O1428 C1412 1.268 . S
O1429 Sc1409 2.105 . S
O1429 C1414 1.268 . S
Sc1430 O1433 2.025 . S
Sc1430 O1440 2.105 . S
Sc1430 O1443 2.105 . S
Sc1430 O1446 2.105 . S
Sc1430 O1449 2.105 . S
Sc1431 O1433 2.025 . S
Sc1431 O1441 2.105 . S
Sc1431 O1445 2.105 . S
Sc1431 O1447 2.105 . S
Sc1431 O1451 2.105 . S
Sc1432 O1433 2.025 . S
Sc1432 O1442 2.105 . S
Sc1432 O1444 2.105 . S
Sc1432 O1448 2.105 . S
Sc1432 O1450 2.105 . S
O1433 Sc1430 2.025 . S
O1433 Sc1431 2.025 . S
O1433 Sc1432 2.025 . S
C1434 O1440 1.268 . S
C1434 O1450 1.268 . S
C1435 O1441 1.268 . S
C1435 O1449 1.268 . S
C1436 O1442 1.268 . S
C1436 O1451 1.268 . S
C1437 O1443 1.268 . S
C1437 O1447 1.268 . S
C1438 O1444 1.268 . S
C1438 O1446 1.268 . S
C1439 O1445 1.268 . S
C1439 O1448 1.268 . S
O1440 Sc1430 2.105 . S
O1440 C1434 1.268 . S
O1441 Sc1431 2.105 . S
O1441 C1435 1.268 . S
O1442 Sc1432 2.105 . S
O1442 C1436 1.268 . S
O1443 Sc1430 2.105 . S
O1443 C1437 1.268 . S
O1444 Sc1432 2.105 . S
O1444 C1438 1.268 . S
O1445 Sc1431 2.105 . S
O1445 C1439 1.268 . S
O1446 Sc1430 2.105 . S
O1446 C1438 1.268 . S
O1447 Sc1431 2.105 . S
O1447 C1437 1.268 . S
O1448 Sc1432 2.105 . S
O1448 C1439 1.268 . S
O1449 Sc1430 2.105 . S
O1449 C1435 1.268 . S
O1450 Sc1432 2.105 . S
O1450 C1434 1.268 . S
O1451 Sc1431 2.105 . S
O1451 C1436 1.268 . S
Sc1452 O1455 2.025 . S
Sc1452 O1462 2.105 . S
Sc1452 O1465 2.105 . S
Sc1452 O1468 2.105 . S
Sc1452 O1471 2.105 . S
Sc1453 O1455 2.025 . S
Sc1453 O1463 2.105 . S
Sc1453 O1467 2.105 . S
Sc1453 O1469 2.105 . S
Sc1453 O1473 2.105 . S
Sc1454 O1455 2.025 . S
Sc1454 O1464 2.105 . S
Sc1454 O1466 2.105 . S
Sc1454 O1470 2.105 . S
Sc1454 O1472 2.105 . S
O1455 Sc1452 2.025 . S
O1455 Sc1453 2.025 . S
O1455 Sc1454 2.025 . S
C1456 O1462 1.268 . S
C1456 O1472 1.268 . S
C1457 O1463 1.268 . S
C1457 O1471 1.268 . S
C1458 O1464 1.268 . S
C1458 O1473 1.268 . S
C1459 O1465 1.268 . S
C1459 O1469 1.268 . S
C1460 O1466 1.268 . S
C1460 O1468 1.268 . S
C1461 O1467 1.268 . S
C1461 O1470 1.268 . S
O1462 Sc1452 2.105 . S
O1462 C1456 1.268 . S
O1463 Sc1453 2.105 . S
O1463 C1457 1.268 . S
O1464 Sc1454 2.105 . S
O1464 C1458 1.268 . S
O1465 Sc1452 2.105 . S
O1465 C1459 1.268 . S
O1466 Sc1454 2.105 . S
O1466 C1460 1.268 . S
O1467 Sc1453 2.105 . S
O1467 C1461 1.268 . S
O1468 Sc1452 2.105 . S
O1468 C1460 1.268 . S
O1469 Sc1453 2.105 . S
O1469 C1459 1.268 . S
O1470 Sc1454 2.105 . S
O1470 C1461 1.268 . S
O1471 Sc1452 2.105 . S
O1471 C1457 1.268 . S
O1472 Sc1454 2.105 . S
O1472 C1456 1.268 . S
O1473 Sc1453 2.105 . S
O1473 C1458 1.268 . S
Sc1474 O1477 2.025 . S
Sc1474 O1484 2.105 . S
Sc1474 O1487 2.105 . S
Sc1474 O1490 2.105 . S
Sc1474 O1493 2.105 . S
Sc1475 O1477 2.025 1_565 S
Sc1475 O1485 2.105 1_565 S
Sc1475 O1489 2.105 . S
Sc1475 O1491 2.105 . S
Sc1475 O1495 2.105 1_565 S
Sc1476 O1477 2.025 . S
Sc1476 O1486 2.105 . S
Sc1476 O1488 2.105 . S
Sc1476 O1492 2.105 1_545 S
Sc1476 O1494 2.105 . S
O1477 Sc1474 2.025 . S
O1477 Sc1475 2.025 1_545 S
O1477 Sc1476 2.025 . S
C1478 O1484 1.268 . S
C1478 O1494 1.268 . S
C1479 O1485 1.268 . S
C1479 O1493 1.268 . S
C1480 O1486 1.268 . S
C1480 O1495 1.268 . S
C1481 O1487 1.268 . S
C1481 O1491 1.268 1_545 S
C1482 O1488 1.268 . S
C1482 O1490 1.268 . S
C1483 O1489 1.268 . S
C1483 O1492 1.268 . S
O1484 Sc1474 2.105 . S
O1484 C1478 1.268 . S
O1485 Sc1475 2.105 1_545 S
O1485 C1479 1.268 . S
O1486 Sc1476 2.105 . S
O1486 C1480 1.268 . S
O1487 Sc1474 2.105 . S
O1487 C1481 1.268 . S
O1488 Sc1476 2.105 . S
O1488 C1482 1.268 . S
O1489 Sc1475 2.105 . S
O1489 C1483 1.268 . S
O1490 Sc1474 2.105 . S
O1490 C1482 1.268 . S
O1491 Sc1475 2.105 . S
O1491 C1481 1.268 1_565 S
O1492 Sc1476 2.105 1_565 S
O1492 C1483 1.268 . S
O1493 Sc1474 2.105 . S
O1493 C1479 1.268 . S
O1494 Sc1476 2.105 . S
O1494 C1478 1.268 . S
O1495 Sc1475 2.105 1_545 S
O1495 C1480 1.268 . S
Sc1496 O1499 2.025 . S
Sc1496 O1506 2.105 . S
Sc1496 O1509 2.105 . S
Sc1496 O1512 2.105 . S
Sc1496 O1515 2.105 . S
Sc1497 O1499 2.025 . S
Sc1497 O1507 2.105 . S
Sc1497 O1511 2.105 . S
Sc1497 O1513 2.105 . S
Sc1497 O1517 2.105 . S
Sc1498 O1499 2.025 . S
Sc1498 O1508 2.105 . S
Sc1498 O1510 2.105 1_545 S
Sc1498 O1514 2.105 1_545 S
Sc1498 O1516 2.105 . S
O1499 Sc1496 2.025 . S
O1499 Sc1497 2.025 . S
O1499 Sc1498 2.025 . S
C1500 O1506 1.268 . S
C1500 O1516 1.268 . S
C1501 O1507 1.268 . S
C1501 O1515 1.268 . S
C1502 O1508 1.268 . S
C1502 O1517 1.268 . S
C1503 O1509 1.268 . S
C1503 O1513 1.268 . S
C1504 O1510 1.268 . S
C1504 O1512 1.268 1_565 S
C1505 O1511 1.268 . S
C1505 O1514 1.268 1_545 S
O1506 Sc1496 2.105 . S
O1506 C1500 1.268 . S
O1507 Sc1497 2.105 . S
O1507 C1501 1.268 . S
O1508 Sc1498 2.105 . S
O1508 C1502 1.268 . S
O1509 Sc1496 2.105 . S
O1509 C1503 1.268 . S
O1510 Sc1498 2.105 1_565 S
O1510 C1504 1.268 . S
O1511 Sc1497 2.105 . S
O1511 C1505 1.268 . S
O1512 Sc1496 2.105 . S
O1512 C1504 1.268 1_545 S
O1513 Sc1497 2.105 . S
O1513 C1503 1.268 . S
O1514 Sc1498 2.105 1_565 S
O1514 C1505 1.268 1_565 S
O1515 Sc1496 2.105 . S
O1515 C1501 1.268 . S
O1516 Sc1498 2.105 . S
O1516 C1500 1.268 . S
O1517 Sc1497 2.105 . S
O1517 C1502 1.268 . S
Sc1518 O1521 2.025 . S
Sc1518 O1528 2.105 . S
Sc1518 O1531 2.105 . S
Sc1518 O1534 2.105 . S
Sc1518 O1537 2.105 . S
Sc1519 O1521 2.025 . S
Sc1519 O1529 2.105 . S
Sc1519 O1533 2.105 . S
Sc1519 O1535 2.105 . S
Sc1519 O1539 2.105 . S
Sc1520 O1521 2.025 . S
Sc1520 O1530 2.105 1_554 S
Sc1520 O1532 2.105 . S
Sc1520 O1536 2.105 . S
Sc1520 O1538 2.105 1_554 S
O1521 Sc1518 2.025 . S
O1521 Sc1519 2.025 . S
O1521 Sc1520 2.025 . S
C1522 O1528 1.268 1_556 S
C1522 O1538 1.268 . S
C1523 O1529 1.268 . S
C1523 O1537 1.268 . S
C1524 O1530 1.268 1_554 S
C1524 O1539 1.268 . S
C1525 O1531 1.268 . S
C1525 O1535 1.268 . S
C1526 O1532 1.268 . S
C1526 O1534 1.268 . S
C1527 O1533 1.268 . S
C1527 O1536 1.268 . S
O1528 Sc1518 2.105 . S
O1528 C1522 1.268 1_554 S
O1529 Sc1519 2.105 . S
O1529 C1523 1.268 . S
O1530 Sc1520 2.105 1_556 S
O1530 C1524 1.268 1_556 S
O1531 Sc1518 2.105 . S
O1531 C1525 1.268 . S
O1532 Sc1520 2.105 . S
O1532 C1526 1.268 . S
O1533 Sc1519 2.105 . S
O1533 C1527 1.268 . S
O1534 Sc1518 2.105 . S
O1534 C1526 1.268 . S
O1535 Sc1519 2.105 . S
O1535 C1525 1.268 . S
O1536 Sc1520 2.105 . S
O1536 C1527 1.268 . S
O1537 Sc1518 2.105 . S
O1537 C1523 1.268 . S
O1538 Sc1520 2.105 1_556 S
O1538 C1522 1.268 . S
O1539 Sc1519 2.105 . S
O1539 C1524 1.268 . S
Sc1540 O1543 2.025 . S
Sc1540 O1550 2.105 . S
Sc1540 O1553 2.105 . S
Sc1540 O1556 2.105 . S
Sc1540 O1559 2.105 . S
Sc1541 O1543 2.025 . S
Sc1541 O1551 2.105 . S
Sc1541 O1555 2.105 . S
Sc1541 O1557 2.105 . S
Sc1541 O1561 2.105 . S
Sc1542 O1543 2.025 . S
Sc1542 O1552 2.105 . S
Sc1542 O1554 2.105 . S
Sc1542 O1558 2.105 . S
Sc1542 O1560 2.105 . S
O1543 Sc1540 2.025 . S
O1543 Sc1541 2.025 . S
O1543 Sc1542 2.025 . S
C1544 O1550 1.268 . S
C1544 O1560 1.268 . S
C1545 O1551 1.268 . S
C1545 O1559 1.268 . S
C1546 O1552 1.268 . S
C1546 O1561 1.268 . S
C1547 O1553 1.268 . S
C1547 O1557 1.268 . S
C1548 O1554 1.268 . S
C1548 O1556 1.268 . S
C1549 O1555 1.268 . S
C1549 O1558 1.268 . S
O1550 Sc1540 2.105 . S
O1550 C1544 1.268 . S
O1551 Sc1541 2.105 . S
O1551 C1545 1.268 . S
O1552 Sc1542 2.105 . S
O1552 C1546 1.268 . S
O1553 Sc1540 2.105 . S
O1553 C1547 1.268 . S
O1554 Sc1542 2.105 . S
O1554 C1548 1.268 . S
O1555 Sc1541 2.105 . S
O1555 C1549 1.268 . S
O1556 Sc1540 2.105 . S
O1556 C1548 1.268 . S
O1557 Sc1541 2.105 . S
O1557 C1547 1.268 . S
O1558 Sc1542 2.105 . S
O1558 C1549 1.268 . S
O1559 Sc1540 2.105 . S
O1559 C1545 1.268 . S
O1560 Sc1542 2.105 . S
O1560 C1544 1.268 . S
O1561 Sc1541 2.105 . S
O1561 C1546 1.268 . S
Sc1562 O1565 2.025 . S
Sc1562 O1572 2.105 . S
Sc1562 O1575 2.105 1_554 S
Sc1562 O1578 2.105 . S
Sc1562 O1581 2.105 . S
Sc1563 O1565 2.025 1_556 S
Sc1563 O1573 2.105 1_556 S
Sc1563 O1577 2.105 . S
Sc1563 O1579 2.105 . S
Sc1563 O1583 2.104 1_556 S
Sc1564 O1565 2.025 . S
Sc1564 O1574 2.105 . S
Sc1564 O1576 2.105 . S
Sc1564 O1580 2.105 . S
Sc1564 O1582 2.105 . S
O1565 Sc1562 2.025 . S
O1565 Sc1563 2.025 1_554 S
O1565 Sc1564 2.025 . S
C1566 O1572 1.268 . S
C1566 O1582 1.268 . S
C1567 O1573 1.268 . S
C1567 O1581 1.268 . S
C1568 O1574 1.268 . S
C1568 O1583 1.268 . S
C1569 O1575 1.268 . S
C1569 O1579 1.268 . S
C1570 O1576 1.268 . S
C1570 O1578 1.268 . S
C1571 O1577 1.268 1_554 S
C1571 O1580 1.268 . S
O1572 Sc1562 2.105 . S
O1572 C1566 1.268 . S
O1573 Sc1563 2.105 1_554 S
O1573 C1567 1.268 . S
O1574 Sc1564 2.105 . S
O1574 C1568 1.268 . S
O1575 Sc1562 2.105 1_556 S
O1575 C1569 1.268 . S
O1576 Sc1564 2.105 . S
O1576 C1570 1.268 . S
O1577 Sc1563 2.105 . S
O1577 C1571 1.268 1_556 S
O1578 Sc1562 2.105 . S
O1578 C1570 1.268 . S
O1579 Sc1563 2.105 . S
O1579 C1569 1.268 . S
O1580 Sc1564 2.105 . S
O1580 C1571 1.268 . S
O1581 Sc1562 2.105 . S
O1581 C1567 1.268 . S
O1582 Sc1564 2.105 . S
O1582 C1566 1.268 . S
O1583 Sc1563 2.104 1_554 S
O1583 C1568 1.268 . S
Sc1584 O1587 2.025 . S
Sc1584 O1594 2.105 1_545 S
Sc1584 O1597 2.105 . S
Sc1584 O1600 2.105 . S
Sc1584 O1603 2.105 1_545 S
Sc1585 O1587 2.025 . S
Sc1585 O1595 2.105 . S
Sc1585 O1599 2.105 . S
Sc1585 O1601 2.105 . S
Sc1585 O1605 2.105 . S
Sc1586 O1587 2.025 . S
Sc1586 O1596 2.105 . S
Sc1586 O1598 2.105 . S
Sc1586 O1602 2.105 . S
Sc1586 O1604 2.105 . S
O1587 Sc1584 2.025 . S
O1587 Sc1585 2.025 . S
O1587 Sc1586 2.025 . S
C1588 O1594 1.268 . S
C1588 O1604 1.268 1_565 S
C1589 O1595 1.268 . S
C1589 O1603 1.268 1_545 S
C1590 O1596 1.268 . S
C1590 O1605 1.268 . S
C1591 O1597 1.268 . S
C1591 O1601 1.268 . S
C1592 O1598 1.268 . S
C1592 O1600 1.268 . S
C1593 O1599 1.268 . S
C1593 O1602 1.268 . S
O1594 Sc1584 2.105 1_565 S
O1594 C1588 1.268 . S
O1595 Sc1585 2.105 . S
O1595 C1589 1.268 . S
O1596 Sc1586 2.105 . S
O1596 C1590 1.268 . S
O1597 Sc1584 2.105 . S
O1597 C1591 1.268 . S
O1598 Sc1586 2.105 . S
O1598 C1592 1.268 . S
O1599 Sc1585 2.105 . S
O1599 C1593 1.268 . S
O1600 Sc1584 2.105 . S
O1600 C1592 1.268 . S
O1601 Sc1585 2.105 . S
O1601 C1591 1.268 . S
O1602 Sc1586 2.105 . S
O1602 C1593 1.268 . S
O1603 Sc1584 2.105 1_565 S
O1603 C1589 1.268 1_565 S
O1604 Sc1586 2.105 . S
O1604 C1588 1.268 1_545 S
O1605 Sc1585 2.105 . S
O1605 C1590 1.268 . S
Sc1606 O1609 2.025 . S
Sc1606 O1616 2.105 . S
Sc1606 O1619 2.105 . S
Sc1606 O1622 2.105 . S
Sc1606 O1625 2.105 . S
Sc1607 O1609 2.025 . S
Sc1607 O1617 2.105 . S
Sc1607 O1621 2.105 . S
Sc1607 O1623 2.105 . S
Sc1607 O1627 2.105 . S
Sc1608 O1609 2.025 . S
Sc1608 O1618 2.105 . S
Sc1608 O1620 2.105 . S
Sc1608 O1624 2.105 . S
Sc1608 O1626 2.105 . S
O1609 Sc1606 2.025 . S
O1609 Sc1607 2.025 . S
O1609 Sc1608 2.025 . S
C1610 O1616 1.268 . S
C1610 O1626 1.268 . S
C1611 O1617 1.268 . S
C1611 O1625 1.268 . S
C1612 O1618 1.268 . S
C1612 O1627 1.268 . S
C1613 O1619 1.268 . S
C1613 O1623 1.268 . S
C1614 O1620 1.268 . S
C1614 O1622 1.268 . S
C1615 O1621 1.268 . S
C1615 O1624 1.268 . S
O1616 Sc1606 2.105 . S
O1616 C1610 1.268 . S
O1617 Sc1607 2.105 . S
O1617 C1611 1.268 . S
O1618 Sc1608 2.105 . S
O1618 C1612 1.268 . S
O1619 Sc1606 2.105 . S
O1619 C1613 1.268 . S
O1620 Sc1608 2.105 . S
O1620 C1614 1.268 . S
O1621 Sc1607 2.105 . S
O1621 C1615 1.268 . S
O1622 Sc1606 2.105 . S
O1622 C1614 1.268 . S
O1623 Sc1607 2.105 . S
O1623 C1613 1.268 . S
O1624 Sc1608 2.105 . S
O1624 C1615 1.268 . S
O1625 Sc1606 2.105 . S
O1625 C1611 1.268 . S
O1626 Sc1608 2.105 . S
O1626 C1610 1.268 . S
O1627 Sc1607 2.105 . S
O1627 C1612 1.268 . S
Sc1628 O1631 2.025 . S
Sc1628 O1638 2.105 . S
Sc1628 O1641 2.105 . S
Sc1628 O1644 2.105 . S
Sc1628 O1647 2.105 . S
Sc1629 O1631 2.025 . S
Sc1629 O1639 2.105 . S
Sc1629 O1643 2.105 . S
Sc1629 O1645 2.105 . S
Sc1629 O1649 2.105 . S
Sc1630 O1631 2.025 . S
Sc1630 O1640 2.105 . S
Sc1630 O1642 2.105 . S
Sc1630 O1646 2.105 . S
Sc1630 O1648 2.105 . S
O1631 Sc1628 2.025 . S
O1631 Sc1629 2.025 . S
O1631 Sc1630 2.025 . S
C1632 O1638 1.268 . S
C1632 O1648 1.268 . S
C1633 O1639 1.268 . S
C1633 O1647 1.268 . S
C1634 O1640 1.268 . S
C1634 O1649 1.268 . S
C1635 O1641 1.268 . S
C1635 O1645 1.268 . S
C1636 O1642 1.268 . S
C1636 O1644 1.268 . S
C1637 O1643 1.268 . S
C1637 O1646 1.268 . S
O1638 Sc1628 2.105 . S
O1638 C1632 1.268 . S
O1639 Sc1629 2.105 . S
O1639 C1633 1.268 . S
O1640 Sc1630 2.105 . S
O1640 C1634 1.268 . S
O1641 Sc1628 2.105 . S
O1641 C1635 1.268 . S
O1642 Sc1630 2.105 . S
O1642 C1636 1.268 . S
O1643 Sc1629 2.105 . S
O1643 C1637 1.268 . S
O1644 Sc1628 2.105 . S
O1644 C1636 1.268 . S
O1645 Sc1629 2.105 . S
O1645 C1635 1.268 . S
O1646 Sc1630 2.105 . S
O1646 C1637 1.268 . S
O1647 Sc1628 2.105 . S
O1647 C1633 1.268 . S
O1648 Sc1630 2.105 . S
O1648 C1632 1.268 . S
O1649 Sc1629 2.105 . S
O1649 C1634 1.268 . S
Sc1650 O1653 2.025 . S
Sc1650 O1660 2.105 . S
Sc1650 O1663 2.105 . S
Sc1650 O1666 2.105 . S
Sc1650 O1669 2.105 1_554 S
Sc1651 O1653 2.025 1_556 S
Sc1651 O1661 2.105 . S
Sc1651 O1665 2.104 1_556 S
Sc1651 O1667 2.105 1_556 S
Sc1651 O1671 2.105 . S
Sc1652 O1653 2.025 . S
Sc1652 O1662 2.105 . S
Sc1652 O1664 2.105 . S
Sc1652 O1668 2.105 . S
Sc1652 O1670 2.105 . S
O1653 Sc1650 2.025 . S
O1653 Sc1651 2.025 1_554 S
O1653 Sc1652 2.025 . S
C1654 O1660 1.268 . S
C1654 O1670 1.268 . S
C1655 O1661 1.268 . S
C1655 O1669 1.268 . S
C1656 O1662 1.268 . S
C1656 O1671 1.268 1_554 S
C1657 O1663 1.268 . S
C1657 O1667 1.268 . S
C1658 O1664 1.268 . S
C1658 O1666 1.268 . S
C1659 O1665 1.268 . S
C1659 O1668 1.268 . S
O1660 Sc1650 2.105 . S
O1660 C1654 1.268 . S
O1661 Sc1651 2.105 . S
O1661 C1655 1.268 . S
O1662 Sc1652 2.105 . S
O1662 C1656 1.268 . S
O1663 Sc1650 2.105 . S
O1663 C1657 1.268 . S
O1664 Sc1652 2.105 . S
O1664 C1658 1.268 . S
O1665 Sc1651 2.104 1_554 S
O1665 C1659 1.268 . S
O1666 Sc1650 2.105 . S
O1666 C1658 1.268 . S
O1667 Sc1651 2.105 1_554 S
O1667 C1657 1.268 . S
O1668 Sc1652 2.105 . S
O1668 C1659 1.268 . S
O1669 Sc1650 2.105 1_556 S
O1669 C1655 1.268 . S
O1670 Sc1652 2.105 . S
O1670 C1654 1.268 . S
O1671 Sc1651 2.105 . S
O1671 C1656 1.268 1_556 S
Sc1672 O1675 2.025 . S
Sc1672 O1682 2.105 . S
Sc1672 O1685 2.105 . S
Sc1672 O1688 2.105 . S
Sc1672 O1691 2.105 . S
Sc1673 O1675 2.025 . S
Sc1673 O1683 2.105 . S
Sc1673 O1687 2.105 . S
Sc1673 O1689 2.105 . S
Sc1673 O1693 2.105 . S
Sc1674 O1675 2.025 . S
Sc1674 O1684 2.105 . S
Sc1674 O1686 2.105 . S
Sc1674 O1690 2.105 . S
Sc1674 O1692 2.105 . S
O1675 Sc1672 2.025 . S
O1675 Sc1673 2.025 . S
O1675 Sc1674 2.025 . S
C1676 O1682 1.268 . S
C1676 O1692 1.268 . S
C1677 O1683 1.268 . S
C1677 O1691 1.268 . S
C1678 O1684 1.268 . S
C1678 O1693 1.268 . S
C1679 O1685 1.268 . S
C1679 O1689 1.268 . S
C1680 O1686 1.268 . S
C1680 O1688 1.268 . S
C1681 O1687 1.268 . S
C1681 O1690 1.268 . S
O1682 Sc1672 2.105 . S
O1682 C1676 1.268 . S
O1683 Sc1673 2.105 . S
O1683 C1677 1.268 . S
O1684 Sc1674 2.105 . S
O1684 C1678 1.268 . S
O1685 Sc1672 2.105 . S
O1685 C1679 1.268 . S
O1686 Sc1674 2.105 . S
O1686 C1680 1.268 . S
O1687 Sc1673 2.105 . S
O1687 C1681 1.268 . S
O1688 Sc1672 2.105 . S
O1688 C1680 1.268 . S
O1689 Sc1673 2.105 . S
O1689 C1679 1.268 . S
O1690 Sc1674 2.105 . S
O1690 C1681 1.268 . S
O1691 Sc1672 2.105 . S
O1691 C1677 1.268 . S
O1692 Sc1674 2.105 . S
O1692 C1676 1.268 . S
O1693 Sc1673 2.105 . S
O1693 C1678 1.268 . S
Sc1694 O1697 2.025 . S
Sc1694 O1704 2.105 . S
Sc1694 O1707 2.105 . S
Sc1694 O1710 2.105 . S
Sc1694 O1713 2.105 . S
Sc1695 O1697 2.025 1_556 S
Sc1695 O1705 2.105 1_556 S
Sc1695 O1709 2.105 . S
Sc1695 O1711 2.105 . S
Sc1695 O1715 2.105 1_556 S
Sc1696 O1697 2.025 . S
Sc1696 O1706 2.105 . S
Sc1696 O1708 2.105 . S
Sc1696 O1712 2.105 1_554 S
Sc1696 O1714 2.105 . S
O1697 Sc1694 2.025 . S
O1697 Sc1695 2.025 1_554 S
O1697 Sc1696 2.025 . S
C1698 O1704 1.268 . S
C1698 O1714 1.268 . S
C1699 O1705 1.268 . S
C1699 O1713 1.268 . S
C1700 O1706 1.268 . S
C1700 O1715 1.268 . S
C1701 O1707 1.268 . S
C1701 O1711 1.268 1_554 S
C1702 O1708 1.268 . S
C1702 O1710 1.268 . S
C1703 O1709 1.268 . S
C1703 O1712 1.268 . S
O1704 Sc1694 2.105 . S
O1704 C1698 1.268 . S
O1705 Sc1695 2.105 1_554 S
O1705 C1699 1.268 . S
O1706 Sc1696 2.105 . S
O1706 C1700 1.268 . S
O1707 Sc1694 2.105 . S
O1707 C1701 1.268 . S
O1708 Sc1696 2.105 . S
O1708 C1702 1.268 . S
O1709 Sc1695 2.105 . S
O1709 C1703 1.268 . S
O1710 Sc1694 2.105 . S
O1710 C1702 1.268 . S
O1711 Sc1695 2.105 . S
O1711 C1701 1.268 1_556 S
O1712 Sc1696 2.105 1_556 S
O1712 C1703 1.268 . S
O1713 Sc1694 2.105 . S
O1713 C1699 1.268 . S
O1714 Sc1696 2.105 . S
O1714 C1698 1.268 . S
O1715 Sc1695 2.105 1_554 S
O1715 C1700 1.268 . S
Sc1716 O1719 2.025 . S
Sc1716 O1726 2.105 . S
Sc1716 O1729 2.105 . S
Sc1716 O1732 2.105 . S
Sc1716 O1735 2.105 . S
Sc1717 O1719 2.025 . S
Sc1717 O1727 2.105 . S
Sc1717 O1731 2.105 . S
Sc1717 O1733 2.105 . S
Sc1717 O1737 2.105 . S
Sc1718 O1719 2.025 . S
Sc1718 O1728 2.105 . S
Sc1718 O1730 2.105 . S
Sc1718 O1734 2.105 . S
Sc1718 O1736 2.105 . S
O1719 Sc1716 2.025 . S
O1719 Sc1717 2.025 . S
O1719 Sc1718 2.025 . S
C1720 O1726 1.268 . S
C1720 O1736 1.268 . S
C1721 O1727 1.268 . S
C1721 O1735 1.268 . S
C1722 O1728 1.268 . S
C1722 O1737 1.268 . S
C1723 O1729 1.268 . S
C1723 O1733 1.268 . S
C1724 O1730 1.268 . S
C1724 O1732 1.268 . S
C1725 O1731 1.268 . S
C1725 O1734 1.268 . S
O1726 Sc1716 2.105 . S
O1726 C1720 1.268 . S
O1727 Sc1717 2.105 . S
O1727 C1721 1.268 . S
O1728 Sc1718 2.105 . S
O1728 C1722 1.268 . S
O1729 Sc1716 2.105 . S
O1729 C1723 1.268 . S
O1730 Sc1718 2.105 . S
O1730 C1724 1.268 . S
O1731 Sc1717 2.105 . S
O1731 C1725 1.268 . S
O1732 Sc1716 2.105 . S
O1732 C1724 1.268 . S
O1733 Sc1717 2.105 . S
O1733 C1723 1.268 . S
O1734 Sc1718 2.105 . S
O1734 C1725 1.268 . S
O1735 Sc1716 2.105 . S
O1735 C1721 1.268 . S
O1736 Sc1718 2.105 . S
O1736 C1720 1.268 . S
O1737 Sc1717 2.105 . S
O1737 C1722 1.268 . S
Sc1738 O1741 2.025 . S
Sc1738 O1748 2.105 . S
Sc1738 O1751 2.105 . S
Sc1738 O1754 2.105 . S
Sc1738 O1757 2.105 . S
Sc1739 O1741 2.025 1_565 S
Sc1739 O1749 2.105 . S
Sc1739 O1753 2.105 1_565 S
Sc1739 O1755 2.104 1_565 S
Sc1739 O1759 2.105 . S
Sc1740 O1741 2.025 . S
Sc1740 O1750 2.105 1_545 S
Sc1740 O1752 2.105 . S
Sc1740 O1756 2.105 . S
Sc1740 O1758 2.105 . S
O1741 Sc1738 2.025 . S
O1741 Sc1739 2.025 1_545 S
O1741 Sc1740 2.025 . S
C1742 O1748 1.268 . S
C1742 O1758 1.268 . S
C1743 O1749 1.268 1_545 S
C1743 O1757 1.268 . S
C1744 O1750 1.268 . S
C1744 O1759 1.268 . S
C1745 O1751 1.268 . S
C1745 O1755 1.268 . S
C1746 O1752 1.268 . S
C1746 O1754 1.268 . S
C1747 O1753 1.268 . S
C1747 O1756 1.268 . S
O1748 Sc1738 2.105 . S
O1748 C1742 1.268 . S
O1749 Sc1739 2.105 . S
O1749 C1743 1.268 1_565 S
O1750 Sc1740 2.105 1_565 S
O1750 C1744 1.268 . S
O1751 Sc1738 2.105 . S
O1751 C1745 1.268 . S
O1752 Sc1740 2.105 . S
O1752 C1746 1.268 . S
O1753 Sc1739 2.105 1_545 S
O1753 C1747 1.268 . S
O1754 Sc1738 2.105 . S
O1754 C1746 1.268 . S
O1755 Sc1739 2.104 1_545 S
O1755 C1745 1.268 . S
O1756 Sc1740 2.105 . S
O1756 C1747 1.268 . S
O1757 Sc1738 2.105 . S
O1757 C1743 1.268 . S
O1758 Sc1740 2.105 . S
O1758 C1742 1.268 . S
O1759 Sc1739 2.105 . S
O1759 C1744 1.268 . S
Sc1760 O1763 2.025 . S
Sc1760 O1770 2.105 . S
Sc1760 O1773 2.105 . S
Sc1760 O1776 2.105 . S
Sc1760 O1779 2.105 . S
Sc1761 O1763 2.025 . S
Sc1761 O1771 2.105 . S
Sc1761 O1775 2.105 . S
Sc1761 O1777 2.105 . S
Sc1761 O1781 2.105 . S
Sc1762 O1763 2.025 . S
Sc1762 O1772 2.105 . S
Sc1762 O1774 2.105 . S
Sc1762 O1778 2.105 . S
Sc1762 O1780 2.105 . S
O1763 Sc1760 2.025 . S
O1763 Sc1761 2.025 . S
O1763 Sc1762 2.025 . S
C1764 O1770 1.268 . S
C1764 O1780 1.268 . S
C1765 O1771 1.268 . S
C1765 O1779 1.268 . S
C1766 O1772 1.268 . S
C1766 O1781 1.268 . S
C1767 O1773 1.268 . S
C1767 O1777 1.268 . S
C1768 O1774 1.268 . S
C1768 O1776 1.268 . S
C1769 O1775 1.268 . S
C1769 O1778 1.268 . S
O1770 Sc1760 2.105 . S
O1770 C1764 1.268 . S
O1771 Sc1761 2.105 . S
O1771 C1765 1.268 . S
O1772 Sc1762 2.105 . S
O1772 C1766 1.268 . S
O1773 Sc1760 2.105 . S
O1773 C1767 1.268 . S
O1774 Sc1762 2.105 . S
O1774 C1768 1.268 . S
O1775 Sc1761 2.105 . S
O1775 C1769 1.268 . S
O1776 Sc1760 2.105 . S
O1776 C1768 1.268 . S
O1777 Sc1761 2.105 . S
O1777 C1767 1.268 . S
O1778 Sc1762 2.105 . S
O1778 C1769 1.268 . S
O1779 Sc1760 2.105 . S
O1779 C1765 1.268 . S
O1780 Sc1762 2.105 . S
O1780 C1764 1.268 . S
O1781 Sc1761 2.105 . S
O1781 C1766 1.268 . S
Sc1782 O1785 2.025 . S
Sc1782 O1792 2.105 . S
Sc1782 O1795 2.105 . S
Sc1782 O1798 2.105 . S
Sc1782 O1801 2.105 . S
Sc1783 O1785 2.025 . S
Sc1783 O1793 2.105 . S
Sc1783 O1797 2.105 . S
Sc1783 O1799 2.105 . S
Sc1783 O1803 2.105 . S
Sc1784 O1785 2.025 . S
Sc1784 O1794 2.105 . S
Sc1784 O1796 2.105 . S
Sc1784 O1800 2.105 . S
Sc1784 O1802 2.105 . S
O1785 Sc1782 2.025 . S
O1785 Sc1783 2.025 . S
O1785 Sc1784 2.025 . S
C1786 O1792 1.268 . S
C1786 O1802 1.268 . S
C1787 O1793 1.268 . S
C1787 O1801 1.268 . S
C1788 O1794 1.268 . S
C1788 O1803 1.268 . S
C1789 O1795 1.268 . S
C1789 O1799 1.268 . S
C1790 O1796 1.268 . S
C1790 O1798 1.268 . S
C1791 O1797 1.268 . S
C1791 O1800 1.268 . S
O1792 Sc1782 2.105 . S
O1792 C1786 1.268 . S
O1793 Sc1783 2.105 . S
O1793 C1787 1.268 . S
O1794 Sc1784 2.105 . S
O1794 C1788 1.268 . S
O1795 Sc1782 2.105 . S
O1795 C1789 1.268 . S
O1796 Sc1784 2.105 . S
O1796 C1790 1.268 . S
O1797 Sc1783 2.105 . S
O1797 C1791 1.268 . S
O1798 Sc1782 2.105 . S
O1798 C1790 1.268 . S
O1799 Sc1783 2.105 . S
O1799 C1789 1.268 . S
O1800 Sc1784 2.105 . S
O1800 C1791 1.268 . S
O1801 Sc1782 2.105 . S
O1801 C1787 1.268 . S
O1802 Sc1784 2.105 . S
O1802 C1786 1.268 . S
O1803 Sc1783 2.105 . S
O1803 C1788 1.268 . S
Sc1804 O1807 2.025 . S
Sc1804 O1814 2.105 . S
Sc1804 O1817 2.105 . S
Sc1804 O1820 2.105 . S
Sc1804 O1823 2.105 . S
Sc1805 O1807 2.025 1_565 S
Sc1805 O1815 2.105 . S
Sc1805 O1819 2.105 1_565 S
Sc1805 O1821 2.105 1_565 S
Sc1805 O1825 2.105 . S
Sc1806 O1807 2.025 . S
Sc1806 O1816 2.105 1_545 S
Sc1806 O1818 2.105 . S
Sc1806 O1822 2.105 . S
Sc1806 O1824 2.105 . S
O1807 Sc1804 2.025 . S
O1807 Sc1805 2.025 1_545 S
O1807 Sc1806 2.025 . S
C1808 O1814 1.268 . S
C1808 O1824 1.268 . S
C1809 O1815 1.268 1_545 S
C1809 O1823 1.268 . S
C1810 O1816 1.268 . S
C1810 O1825 1.268 . S
C1811 O1817 1.268 . S
C1811 O1821 1.268 . S
C1812 O1818 1.268 . S
C1812 O1820 1.268 . S
C1813 O1819 1.268 . S
C1813 O1822 1.268 . S
O1814 Sc1804 2.105 . S
O1814 C1808 1.268 . S
O1815 Sc1805 2.105 . S
O1815 C1809 1.268 1_565 S
O1816 Sc1806 2.105 1_565 S
O1816 C1810 1.268 . S
O1817 Sc1804 2.105 . S
O1817 C1811 1.268 . S
O1818 Sc1806 2.105 . S
O1818 C1812 1.268 . S
O1819 Sc1805 2.105 1_545 S
O1819 C1813 1.268 . S
O1820 Sc1804 2.105 . S
O1820 C1812 1.268 . S
O1821 Sc1805 2.105 1_545 S
O1821 C1811 1.268 . S
O1822 Sc1806 2.105 . S
O1822 C1813 1.268 . S
O1823 Sc1804 2.105 . S
O1823 C1809 1.268 . S
O1824 Sc1806 2.105 . S
O1824 C1808 1.268 . S
O1825 Sc1805 2.105 . S
O1825 C1810 1.268 . S
Sc1826 O1829 2.025 . S
Sc1826 O1836 2.105 . S
Sc1826 O1839 2.105 . S
Sc1826 O1842 2.105 . S
Sc1826 O1845 2.105 . S
Sc1827 O1829 2.025 . S
Sc1827 O1837 2.105 . S
Sc1827 O1841 2.105 . S
Sc1827 O1843 2.105 . S
Sc1827 O1847 2.105 . S
Sc1828 O1829 2.025 . S
Sc1828 O1838 2.105 . S
Sc1828 O1840 2.105 . S
Sc1828 O1844 2.105 . S
Sc1828 O1846 2.105 . S
O1829 Sc1826 2.025 . S
O1829 Sc1827 2.025 . S
O1829 Sc1828 2.025 . S
C1830 O1836 1.268 . S
C1830 O1846 1.268 . S
C1831 O1837 1.268 . S
C1831 O1845 1.268 . S
C1832 O1838 1.268 . S
C1832 O1847 1.268 . S
C1833 O1839 1.268 . S
C1833 O1843 1.268 . S
C1834 O1840 1.268 . S
C1834 O1842 1.268 . S
C1835 O1841 1.268 . S
C1835 O1844 1.268 . S
O1836 Sc1826 2.105 . S
O1836 C1830 1.268 . S
O1837 Sc1827 2.105 . S
O1837 C1831 1.268 . S
O1838 Sc1828 2.105 . S
O1838 C1832 1.268 . S
O1839 Sc1826 2.105 . S
O1839 C1833 1.268 . S
O1840 Sc1828 2.105 . S
O1840 C1834 1.268 . S
O1841 Sc1827 2.105 . S
O1841 C1835 1.268 . S
O1842 Sc1826 2.105 . S
O1842 C1834 1.268 . S
O1843 Sc1827 2.105 . S
O1843 C1833 1.268 . S
O1844 Sc1828 2.105 . S
O1844 C1835 1.268 . S
O1845 Sc1826 2.105 . S
O1845 C1831 1.268 . S
O1846 Sc1828 2.105 . S
O1846 C1830 1.268 . S
O1847 Sc1827 2.105 . S
O1847 C1832 1.268 . S
Sc1848 O1851 2.025 . S
Sc1848 O1858 2.105 1_554 S
Sc1848 O1861 2.105 . S
Sc1848 O1864 2.105 . S
Sc1848 O1867 2.105 1_554 S
Sc1849 O1851 2.025 . S
Sc1849 O1859 2.105 . S
Sc1849 O1863 2.105 . S
Sc1849 O1865 2.105 . S
Sc1849 O1869 2.105 . S
Sc1850 O1851 2.025 . S
Sc1850 O1860 2.105 . S
Sc1850 O1862 2.105 . S
Sc1850 O1866 2.105 . S
Sc1850 O1868 2.105 . S
O1851 Sc1848 2.025 . S
O1851 Sc1849 2.025 . S
O1851 Sc1850 2.025 . S
C1852 O1858 1.268 . S
C1852 O1868 1.268 1_556 S
C1853 O1859 1.268 . S
C1853 O1867 1.268 1_554 S
C1854 O1860 1.268 . S
C1854 O1869 1.268 . S
C1855 O1861 1.268 . S
C1855 O1865 1.268 . S
C1856 O1862 1.268 . S
C1856 O1864 1.268 . S
C1857 O1863 1.268 . S
C1857 O1866 1.268 . S
O1858 Sc1848 2.105 1_556 S
O1858 C1852 1.268 . S
O1859 Sc1849 2.105 . S
O1859 C1853 1.268 . S
O1860 Sc1850 2.105 . S
O1860 C1854 1.268 . S
O1861 Sc1848 2.105 . S
O1861 C1855 1.268 . S
O1862 Sc1850 2.105 . S
O1862 C1856 1.268 . S
O1863 Sc1849 2.105 . S
O1863 C1857 1.268 . S
O1864 Sc1848 2.105 . S
O1864 C1856 1.268 . S
O1865 Sc1849 2.105 . S
O1865 C1855 1.268 . S
O1866 Sc1850 2.105 . S
O1866 C1857 1.268 . S
O1867 Sc1848 2.105 1_556 S
O1867 C1853 1.268 1_556 S
O1868 Sc1850 2.105 . S
O1868 C1852 1.268 1_554 S
O1869 Sc1849 2.105 . S
O1869 C1854 1.268 . S
Sc1870 O1873 2.025 . S
Sc1870 O1880 2.105 . S
Sc1870 O1883 2.105 . S
Sc1870 O1886 2.105 . S
Sc1870 O1889 2.105 . S
Sc1871 O1873 2.025 . S
Sc1871 O1881 2.105 . S
Sc1871 O1885 2.105 . S
Sc1871 O1887 2.105 . S
Sc1871 O1891 2.105 . S
Sc1872 O1873 2.025 . S
Sc1872 O1882 2.105 . S
Sc1872 O1884 2.105 . S
Sc1872 O1888 2.105 . S
Sc1872 O1890 2.105 . S
O1873 Sc1870 2.025 . S
O1873 Sc1871 2.025 . S
O1873 Sc1872 2.025 . S
C1874 O1880 1.268 . S
C1874 O1890 1.268 . S
C1875 O1881 1.268 . S
C1875 O1889 1.268 . S
C1876 O1882 1.268 . S
C1876 O1891 1.268 . S
C1877 O1883 1.268 . S
C1877 O1887 1.268 . S
C1878 O1884 1.268 . S
C1878 O1886 1.268 . S
C1879 O1885 1.268 . S
C1879 O1888 1.268 . S
O1880 Sc1870 2.105 . S
O1880 C1874 1.268 . S
O1881 Sc1871 2.105 . S
O1881 C1875 1.268 . S
O1882 Sc1872 2.105 . S
O1882 C1876 1.268 . S
O1883 Sc1870 2.105 . S
O1883 C1877 1.268 . S
O1884 Sc1872 2.105 . S
O1884 C1878 1.268 . S
O1885 Sc1871 2.105 . S
O1885 C1879 1.268 . S
O1886 Sc1870 2.105 . S
O1886 C1878 1.268 . S
O1887 Sc1871 2.105 . S
O1887 C1877 1.268 . S
O1888 Sc1872 2.105 . S
O1888 C1879 1.268 . S
O1889 Sc1870 2.105 . S
O1889 C1875 1.268 . S
O1890 Sc1872 2.105 . S
O1890 C1874 1.268 . S
O1891 Sc1871 2.105 . S
O1891 C1876 1.268 . S
Sc1892 O1895 2.025 . S
Sc1892 O1902 2.105 . S
Sc1892 O1905 2.105 . S
Sc1892 O1908 2.105 . S
Sc1892 O1911 2.105 . S
Sc1893 O1895 2.025 . S
Sc1893 O1903 2.105 . S
Sc1893 O1907 2.105 . S
Sc1893 O1909 2.105 . S
Sc1893 O1913 2.105 . S
Sc1894 O1895 2.025 . S
Sc1894 O1904 2.105 1_554 S
Sc1894 O1906 2.105 . S
Sc1894 O1910 2.105 . S
Sc1894 O1912 2.105 1_554 S
O1895 Sc1892 2.025 . S
O1895 Sc1893 2.025 . S
O1895 Sc1894 2.025 . S
C1896 O1902 1.268 1_556 S
C1896 O1912 1.268 . S
C1897 O1903 1.268 . S
C1897 O1911 1.268 . S
C1898 O1904 1.268 1_554 S
C1898 O1913 1.268 . S
C1899 O1905 1.268 . S
C1899 O1909 1.268 . S
C1900 O1906 1.268 . S
C1900 O1908 1.268 . S
C1901 O1907 1.268 . S
C1901 O1910 1.268 . S
O1902 Sc1892 2.105 . S
O1902 C1896 1.268 1_554 S
O1903 Sc1893 2.105 . S
O1903 C1897 1.268 . S
O1904 Sc1894 2.105 1_556 S
O1904 C1898 1.268 1_556 S
O1905 Sc1892 2.105 . S
O1905 C1899 1.268 . S
O1906 Sc1894 2.105 . S
O1906 C1900 1.268 . S
O1907 Sc1893 2.105 . S
O1907 C1901 1.268 . S
O1908 Sc1892 2.105 . S
O1908 C1900 1.268 . S
O1909 Sc1893 2.105 . S
O1909 C1899 1.268 . S
O1910 Sc1894 2.105 . S
O1910 C1901 1.268 . S
O1911 Sc1892 2.105 . S
O1911 C1897 1.268 . S
O1912 Sc1894 2.105 1_556 S
O1912 C1896 1.268 . S
O1913 Sc1893 2.105 . S
O1913 C1898 1.268 . S
Sc1914 O1917 2.025 . S
Sc1914 O1924 2.105 . S
Sc1914 O1927 2.105 . S
Sc1914 O1930 2.105 . S
Sc1914 O1933 2.105 . S
Sc1915 O1917 2.025 . S
Sc1915 O1925 2.105 . S
Sc1915 O1929 2.105 . S
Sc1915 O1931 2.105 . S
Sc1915 O1935 2.105 . S
Sc1916 O1917 2.025 . S
Sc1916 O1926 2.105 . S
Sc1916 O1928 2.105 . S
Sc1916 O1932 2.105 . S
Sc1916 O1934 2.105 . S
O1917 Sc1914 2.025 . S
O1917 Sc1915 2.025 . S
O1917 Sc1916 2.025 . S
C1918 O1924 1.268 . S
C1918 O1934 1.268 . S
C1919 O1925 1.268 . S
C1919 O1933 1.268 . S
C1920 O1926 1.268 . S
C1920 O1935 1.268 . S
C1921 O1927 1.268 . S
C1921 O1931 1.268 . S
C1922 O1928 1.268 . S
C1922 O1930 1.268 . S
C1923 O1929 1.268 . S
C1923 O1932 1.268 . S
O1924 Sc1914 2.105 . S
O1924 C1918 1.268 . S
O1925 Sc1915 2.105 . S
O1925 C1919 1.268 . S
O1926 Sc1916 2.105 . S
O1926 C1920 1.268 . S
O1927 Sc1914 2.105 . S
O1927 C1921 1.268 . S
O1928 Sc1916 2.105 . S
O1928 C1922 1.268 . S
O1929 Sc1915 2.105 . S
O1929 C1923 1.268 . S
O1930 Sc1914 2.105 . S
O1930 C1922 1.268 . S
O1931 Sc1915 2.105 . S
O1931 C1921 1.268 . S
O1932 Sc1916 2.105 . S
O1932 C1923 1.268 . S
O1933 Sc1914 2.105 . S
O1933 C1919 1.268 . S
O1934 Sc1916 2.105 . S
O1934 C1918 1.268 . S
O1935 Sc1915 2.105 . S
O1935 C1920 1.268 . S
Sc1936 O1939 2.025 . S
Sc1936 O1946 2.105 . S
Sc1936 O1949 2.105 . S
Sc1936 O1952 2.105 . S
Sc1936 O1955 2.105 . S
Sc1937 O1939 2.025 . S
Sc1937 O1947 2.105 . S
Sc1937 O1951 2.105 . S
Sc1937 O1953 2.105 . S
Sc1937 O1957 2.105 . S
Sc1938 O1939 2.025 . S
Sc1938 O1948 2.105 . S
Sc1938 O1950 2.105 . S
Sc1938 O1954 2.105 . S
Sc1938 O1956 2.105 . S
O1939 Sc1936 2.025 . S
O1939 Sc1937 2.025 . S
O1939 Sc1938 2.025 . S
C1940 O1946 1.268 . S
C1940 O1956 1.268 . S
C1941 O1947 1.268 . S
C1941 O1955 1.268 . S
C1942 O1948 1.268 . S
C1942 O1957 1.268 . S
C1943 O1949 1.268 . S
C1943 O1953 1.268 . S
C1944 O1950 1.268 . S
C1944 O1952 1.268 . S
C1945 O1951 1.268 . S
C1945 O1954 1.268 . S
O1946 Sc1936 2.105 . S
O1946 C1940 1.268 . S
O1947 Sc1937 2.105 . S
O1947 C1941 1.268 . S
O1948 Sc1938 2.105 . S
O1948 C1942 1.268 . S
O1949 Sc1936 2.105 . S
O1949 C1943 1.268 . S
O1950 Sc1938 2.105 . S
O1950 C1944 1.268 . S
O1951 Sc1937 2.105 . S
O1951 C1945 1.268 . S
O1952 Sc1936 2.105 . S
O1952 C1944 1.268 . S
O1953 Sc1937 2.105 . S
O1953 C1943 1.268 . S
O1954 Sc1938 2.105 . S
O1954 C1945 1.268 . S
O1955 Sc1936 2.105 . S
O1955 C1941 1.268 . S
O1956 Sc1938 2.105 . S
O1956 C1940 1.268 . S
O1957 Sc1937 2.105 . S
O1957 C1942 1.268 . S
Sc1958 O1961 2.025 . S
Sc1958 O1968 2.105 . S
Sc1958 O1971 2.105 . S
Sc1958 O1974 2.105 . S
Sc1958 O1977 2.105 . S
Sc1959 O1961 2.025 . S
Sc1959 O1969 2.105 . S
Sc1959 O1973 2.105 . S
Sc1959 O1975 2.105 . S
Sc1959 O1979 2.105 . S
Sc1960 O1961 2.025 . S
Sc1960 O1970 2.105 . S
Sc1960 O1972 2.105 . S
Sc1960 O1976 2.105 . S
Sc1960 O1978 2.105 . S
O1961 Sc1958 2.025 . S
O1961 Sc1959 2.025 . S
O1961 Sc1960 2.025 . S
C1962 O1968 1.268 . S
C1962 O1978 1.268 . S
C1963 O1969 1.268 . S
C1963 O1977 1.268 . S
C1964 O1970 1.268 . S
C1964 O1979 1.268 . S
C1965 O1971 1.268 . S
C1965 O1975 1.268 . S
C1966 O1972 1.268 . S
C1966 O1974 1.268 . S
C1967 O1973 1.268 . S
C1967 O1976 1.268 . S
O1968 Sc1958 2.105 . S
O1968 C1962 1.268 . S
O1969 Sc1959 2.105 . S
O1969 C1963 1.268 . S
O1970 Sc1960 2.105 . S
O1970 C1964 1.268 . S
O1971 Sc1958 2.105 . S
O1971 C1965 1.268 . S
O1972 Sc1960 2.105 . S
O1972 C1966 1.268 . S
O1973 Sc1959 2.105 . S
O1973 C1967 1.268 . S
O1974 Sc1958 2.105 . S
O1974 C1966 1.268 . S
O1975 Sc1959 2.105 . S
O1975 C1965 1.268 . S
O1976 Sc1960 2.105 . S
O1976 C1967 1.268 . S
O1977 Sc1958 2.105 . S
O1977 C1963 1.268 . S
O1978 Sc1960 2.105 . S
O1978 C1962 1.268 . S
O1979 Sc1959 2.105 . S
O1979 C1964 1.268 . S
Sc1980 O1983 2.025 . S
Sc1980 O1990 2.105 . S
Sc1980 O1993 2.105 . S
Sc1980 O1996 2.105 . S
Sc1980 O1999 2.105 . S
Sc1981 O1983 2.025 . S
Sc1981 O1991 2.105 . S
Sc1981 O1995 2.105 . S
Sc1981 O1997 2.105 . S
Sc1981 O2001 2.105 . S
Sc1982 O1983 2.025 . S
Sc1982 O1992 2.105 . S
Sc1982 O1994 2.105 . S
Sc1982 O1998 2.105 . S
Sc1982 O2000 2.105 . S
O1983 Sc1980 2.025 . S
O1983 Sc1981 2.025 . S
O1983 Sc1982 2.025 . S
C1984 O1990 1.268 . S
C1984 O2000 1.268 . S
C1985 O1991 1.268 . S
C1985 O1999 1.268 . S
C1986 O1992 1.268 . S
C1986 O2001 1.268 . S
C1987 O1993 1.268 . S
C1987 O1997 1.268 . S
C1988 O1994 1.268 . S
C1988 O1996 1.268 . S
C1989 O1995 1.268 . S
C1989 O1998 1.268 . S
O1990 Sc1980 2.105 . S
O1990 C1984 1.268 . S
O1991 Sc1981 2.105 . S
O1991 C1985 1.268 . S
O1992 Sc1982 2.105 . S
O1992 C1986 1.268 . S
O1993 Sc1980 2.105 . S
O1993 C1987 1.268 . S
O1994 Sc1982 2.105 . S
O1994 C1988 1.268 . S
O1995 Sc1981 2.105 . S
O1995 C1989 1.268 . S
O1996 Sc1980 2.105 . S
O1996 C1988 1.268 . S
O1997 Sc1981 2.105 . S
O1997 C1987 1.268 . S
O1998 Sc1982 2.105 . S
O1998 C1989 1.268 . S
O1999 Sc1980 2.105 . S
O1999 C1985 1.268 . S
O2000 Sc1982 2.105 . S
O2000 C1984 1.268 . S
O2001 Sc1981 2.105 . S
O2001 C1986 1.268 . S
Sc2002 O2005 2.025 . S
Sc2002 O2012 2.105 . S
Sc2002 O2015 2.105 . S
Sc2002 O2018 2.105 . S
Sc2002 O2021 2.105 . S
Sc2003 O2005 2.025 . S
Sc2003 O2013 2.105 . S
Sc2003 O2017 2.105 . S
Sc2003 O2019 2.105 . S
Sc2003 O2023 2.105 . S
Sc2004 O2005 2.025 . S
Sc2004 O2014 2.105 . S
Sc2004 O2016 2.105 . S
Sc2004 O2020 2.105 . S
Sc2004 O2022 2.105 . S
O2005 Sc2002 2.025 . S
O2005 Sc2003 2.025 . S
O2005 Sc2004 2.025 . S
C2006 O2012 1.268 . S
C2006 O2022 1.268 . S
C2007 O2013 1.268 . S
C2007 O2021 1.268 . S
C2008 O2014 1.268 . S
C2008 O2023 1.268 . S
C2009 O2015 1.268 . S
C2009 O2019 1.268 . S
C2010 O2016 1.268 . S
C2010 O2018 1.268 . S
C2011 O2017 1.268 . S
C2011 O2020 1.268 . S
O2012 Sc2002 2.105 . S
O2012 C2006 1.268 . S
O2013 Sc2003 2.105 . S
O2013 C2007 1.268 . S
O2014 Sc2004 2.105 . S
O2014 C2008 1.268 . S
O2015 Sc2002 2.105 . S
O2015 C2009 1.268 . S
O2016 Sc2004 2.105 . S
O2016 C2010 1.268 . S
O2017 Sc2003 2.105 . S
O2017 C2011 1.268 . S
O2018 Sc2002 2.105 . S
O2018 C2010 1.268 . S
O2019 Sc2003 2.105 . S
O2019 C2009 1.268 . S
O2020 Sc2004 2.105 . S
O2020 C2011 1.268 . S
O2021 Sc2002 2.105 . S
O2021 C2007 1.268 . S
O2022 Sc2004 2.105 . S
O2022 C2006 1.268 . S
O2023 Sc2003 2.105 . S
O2023 C2008 1.268 . S
Sc2024 O2027 2.025 . S
Sc2024 O2034 2.105 . S
Sc2024 O2037 2.105 . S
Sc2024 O2040 2.105 . S
Sc2024 O2043 2.105 . S
Sc2025 O2027 2.025 1_556 S
Sc2025 O2035 2.105 . S
Sc2025 O2039 2.105 1_556 S
Sc2025 O2041 2.105 1_556 S
Sc2025 O2045 2.105 . S
Sc2026 O2027 2.025 . S
Sc2026 O2036 2.105 1_554 S
Sc2026 O2038 2.105 . S
Sc2026 O2042 2.105 . S
Sc2026 O2044 2.105 . S
O2027 Sc2024 2.025 . S
O2027 Sc2025 2.025 1_554 S
O2027 Sc2026 2.025 . S
C2028 O2034 1.268 . S
C2028 O2044 1.268 . S
C2029 O2035 1.268 1_554 S
C2029 O2043 1.268 . S
C2030 O2036 1.268 . S
C2030 O2045 1.268 . S
C2031 O2037 1.268 . S
C2031 O2041 1.268 . S
C2032 O2038 1.268 . S
C2032 O2040 1.268 . S
C2033 O2039 1.268 . S
C2033 O2042 1.268 . S
O2034 Sc2024 2.105 . S
O2034 C2028 1.268 . S
O2035 Sc2025 2.105 . S
O2035 C2029 1.268 1_556 S
O2036 Sc2026 2.105 1_556 S
O2036 C2030 1.268 . S
O2037 Sc2024 2.105 . S
O2037 C2031 1.268 . S
O2038 Sc2026 2.105 . S
O2038 C2032 1.268 . S
O2039 Sc2025 2.105 1_554 S
O2039 C2033 1.268 . S
O2040 Sc2024 2.105 . S
O2040 C2032 1.268 . S
O2041 Sc2025 2.105 1_554 S
O2041 C2031 1.268 . S
O2042 Sc2026 2.105 . S
O2042 C2033 1.268 . S
O2043 Sc2024 2.105 . S
O2043 C2029 1.268 . S
O2044 Sc2026 2.105 . S
O2044 C2028 1.268 . S
O2045 Sc2025 2.105 . S
O2045 C2030 1.268 . S
Sc2046 O2049 2.025 . S
Sc2046 O2056 2.105 . S
Sc2046 O2059 2.105 . S
Sc2046 O2062 2.105 . S
Sc2046 O2065 2.105 . S
Sc2047 O2049 2.025 . S
Sc2047 O2057 2.105 . S
Sc2047 O2061 2.105 . S
Sc2047 O2063 2.105 . S
Sc2047 O2067 2.105 . S
Sc2048 O2049 2.025 . S
Sc2048 O2058 2.105 . S
Sc2048 O2060 2.105 1_554 S
Sc2048 O2064 2.105 1_554 S
Sc2048 O2066 2.105 . S
O2049 Sc2046 2.025 . S
O2049 Sc2047 2.025 . S
O2049 Sc2048 2.025 . S
C2050 O2056 1.268 . S
C2050 O2066 1.268 . S
C2051 O2057 1.268 . S
C2051 O2065 1.268 . S
C2052 O2058 1.268 . S
C2052 O2067 1.268 . S
C2053 O2059 1.268 . S
C2053 O2063 1.268 . S
C2054 O2060 1.268 . S
C2054 O2062 1.268 1_556 S
C2055 O2061 1.268 . S
C2055 O2064 1.268 1_554 S
O2056 Sc2046 2.105 . S
O2056 C2050 1.268 . S
O2057 Sc2047 2.105 . S
O2057 C2051 1.268 . S
O2058 Sc2048 2.105 . S
O2058 C2052 1.268 . S
O2059 Sc2046 2.105 . S
O2059 C2053 1.268 . S
O2060 Sc2048 2.105 1_556 S
O2060 C2054 1.268 . S
O2061 Sc2047 2.105 . S
O2061 C2055 1.268 . S
O2062 Sc2046 2.105 . S
O2062 C2054 1.268 1_554 S
O2063 Sc2047 2.105 . S
O2063 C2053 1.268 . S
O2064 Sc2048 2.105 1_556 S
O2064 C2055 1.268 1_556 S
O2065 Sc2046 2.105 . S
O2065 C2051 1.268 . S
O2066 Sc2048 2.105 . S
O2066 C2050 1.268 . S
O2067 Sc2047 2.105 . S
O2067 C2052 1.268 . S
Sc2068 O2071 2.025 . S
Sc2068 O2078 2.105 . S
Sc2068 O2081 2.105 . S
Sc2068 O2084 2.105 . S
Sc2068 O2087 2.105 . S
Sc2069 O2071 2.025 . S
Sc2069 O2079 2.105 . S
Sc2069 O2083 2.105 . S
Sc2069 O2085 2.105 . S
Sc2069 O2089 2.105 . S
Sc2070 O2071 2.025 . S
Sc2070 O2080 2.105 . S
Sc2070 O2082 2.105 . S
Sc2070 O2086 2.105 . S
Sc2070 O2088 2.105 . S
O2071 Sc2068 2.025 . S
O2071 Sc2069 2.025 . S
O2071 Sc2070 2.025 . S
C2072 O2078 1.268 . S
C2072 O2088 1.268 . S
C2073 O2079 1.268 . S
C2073 O2087 1.268 . S
C2074 O2080 1.268 . S
C2074 O2089 1.268 . S
C2075 O2081 1.268 . S
C2075 O2085 1.268 . S
C2076 O2082 1.268 . S
C2076 O2084 1.268 . S
C2077 O2083 1.268 . S
C2077 O2086 1.268 . S
O2078 Sc2068 2.105 . S
O2078 C2072 1.268 . S
O2079 Sc2069 2.105 . S
O2079 C2073 1.268 . S
O2080 Sc2070 2.105 . S
O2080 C2074 1.268 . S
O2081 Sc2068 2.105 . S
O2081 C2075 1.268 . S
O2082 Sc2070 2.105 . S
O2082 C2076 1.268 . S
O2083 Sc2069 2.105 . S
O2083 C2077 1.268 . S
O2084 Sc2068 2.105 . S
O2084 C2076 1.268 . S
O2085 Sc2069 2.105 . S
O2085 C2075 1.268 . S
O2086 Sc2070 2.105 . S
O2086 C2077 1.268 . S
O2087 Sc2068 2.105 . S
O2087 C2073 1.268 . S
O2088 Sc2070 2.105 . S
O2088 C2072 1.268 . S
O2089 Sc2069 2.105 . S
O2089 C2074 1.268 . S
Sc2090 O2093 2.025 . S
Sc2090 O2100 2.105 . S
Sc2090 O2103 2.105 . S
Sc2090 O2106 2.105 . S
Sc2090 O2109 2.105 . S
Sc2091 O2093 2.025 . S
Sc2091 O2101 2.105 . S
Sc2091 O2105 2.105 . S
Sc2091 O2107 2.105 . S
Sc2091 O2111 2.105 . S
Sc2092 O2093 2.025 . S
Sc2092 O2102 2.105 . S
Sc2092 O2104 2.105 . S
Sc2092 O2108 2.105 . S
Sc2092 O2110 2.105 . S
O2093 Sc2090 2.025 . S
O2093 Sc2091 2.025 . S
O2093 Sc2092 2.025 . S
C2094 O2100 1.268 . S
C2094 O2110 1.268 . S
C2095 O2101 1.268 . S
C2095 O2109 1.268 . S
C2096 O2102 1.268 . S
C2096 O2111 1.268 . S
C2097 O2103 1.268 . S
C2097 O2107 1.268 . S
C2098 O2104 1.268 . S
C2098 O2106 1.268 . S
C2099 O2105 1.268 . S
C2099 O2108 1.268 . S
O2100 Sc2090 2.105 . S
O2100 C2094 1.268 . S
O2101 Sc2091 2.105 . S
O2101 C2095 1.268 . S
O2102 Sc2092 2.105 . S
O2102 C2096 1.268 . S
O2103 Sc2090 2.105 . S
O2103 C2097 1.268 . S
O2104 Sc2092 2.105 . S
O2104 C2098 1.268 . S
O2105 Sc2091 2.105 . S
O2105 C2099 1.268 . S
O2106 Sc2090 2.105 . S
O2106 C2098 1.268 . S
O2107 Sc2091 2.105 . S
O2107 C2097 1.268 . S
O2108 Sc2092 2.105 . S
O2108 C2099 1.268 . S
O2109 Sc2090 2.105 . S
O2109 C2095 1.268 . S
O2110 Sc2092 2.105 . S
O2110 C2094 1.268 . S
O2111 Sc2091 2.105 . S
O2111 C2096 1.268 . S
C8 C1130 1.378 . S
C26 C510 1.378 . S
C48 C1852 1.378 . S
C488 C74 1.378 . S
C690 C96 1.378 . S
C1174 C114 1.378 . S
C136 C1676 1.378 . S
C1808 C162 1.378 . S
C180 C1412 1.378 . S
C602 C206 1.378 . S
C1284 C224 1.378 . S
C246 C928 1.378 . S
C268 C1456 1.378 . S
C290 C954 1.378 . S
C580 C316 1.378 . S
C994 C338 1.378 . S
C1900 C356 1.378 . S
C378 C272 1.378 . S
C400 C294 1.378 . S
C426 C312 1.378 . S
C1610 C448 1.378 . S
C470 C1042 1.378 . S
C800 C492 1.378 . S
C514 C1016 1.378 . S
C158 C1108 1.378 . S
C862 C532 1.378 . S
C558 C1566 1.378 . S
C1038 C624 1.378 . S
C1874 C642 1.378 . S
C4 C1500 1.378 . S
C1482 C664 1.378 . S
C950 C404 1.378 . S
C708 C1258 1.378 . S
C730 C1786 1.378 . S
C1280 C752 1.378 . S
C360 C888 1.378 . S
C1702 C334 1.378 . S
C734 C774 1.378 . S
C228 C756 1.378 . S
C1632 C822 1.378 . S
C1170 C844 1.378 . S
C866 C1324 1.378 . S
C1214 C598 1.378 . S
C906 C1720 1.378 . S
C932 C1192 1.378 . S
C536 C1328 1.378 . S
C1830 C972 1.378 . S
C998 C1698 1.378 . S
C1940 C818 1.378 . S
C1020 C30 1.378 . S
C796 C70 1.378 . S
C1764 C1060 1.378 . S
C118 C840 1.378 . S
C1262 C1086 1.378 . S
C1504 C1126 1.378 . S
C1064 C1148 1.378 . S
C712 C1082 1.378 . S
C2028 C668 1.378 . S
C250 C1196 1.378 . S
C202 C1218 1.378 . S
C92 C1390 1.378 . S
C1240 C1918 1.378 . S
C1544 C1302 1.378 . S
C1896 C884 1.378 . S
C444 C1966 1.378 . S
C576 C422 1.378 . S
C1346 C1434 1.378 . S
C466 C620 1.378 . S
C1812 C1104 1.378 . S
C1350 C1368 1.378 . S
C2050 C184 1.378 . S
C1394 C686 1.378 . S
C1416 C2054 1.378 . S
C1742 C646 1.378 . S
C1460 C382 1.378 . S
C1236 C2076 1.378 . S
C1790 C778 1.378 . S
C52 C1522 1.378 . S
C140 C1592 1.378 . S
C1614 C1962 1.378 . S
C1570 C1654 1.378 . S
C1680 C1588 1.378 . S
C1724 C1988 1.378 . S
C1878 C1746 1.378 . S
C1478 C2032 1.378 . S
C1984 C910 1.378 . S
C1658 C554 1.378 . S
C1636 C1944 1.378 . S
C1526 C1856 1.378 . S
C1922 C2072 1.378 . S
C2094 C1306 1.378 . S
C1152 C1768 1.378 . S
C1438 C1372 1.378 . S
C976 C2010 1.378 . S
C1834 C2006 1.378 . S
C1548 C2098 1.378 . S
C1813 C9 1.976 . S
C687 C27 1.977 . S
C49 C1171 1.976 . S
C75 C1681 1.977 . S
C97 C515 1.976 . S
C1857 C115 1.977 . S
C493 C137 1.977 . S
C163 C1127 1.977 . S
C181 C2033 1.976 . S
C863 C207 1.976 . S
C1919 C225 1.977 . S
C2011 C247 1.977 . S
C1373 C269 1.976 . S
C291 C1985 1.977 . S
C317 C1875 1.977 . S
C339 C1897 1.977 . S
C999 C357 1.976 . S
C379 C1435 1.977 . S
C401 C907 1.977 . S
C647 C427 1.976 . S
C1945 C449 1.976 . S
C555 C471 1.976 . S
C160 C1503 1.977 . S
C534 C204 1.977 . S
C557 C1041 1.977 . S
C579 C1877 1.976 . S
C601 C865 1.977 . S
C623 C1569 1.976 . S
C644 C314 1.977 . S
C6 C1106 1.976 . S
C2053 C666 1.977 . S
C689 C512 1.977 . S
C1722 C403 1.977 . S
C710 C2096 1.976 . S
C732 C1151 1.977 . S
C2075 C754 1.977 . S
C490 C1678 1.976 . S
C359 C1700 1.976 . S
C886 C336 1.977 . S
C776 C1766 1.977 . S
C1239 C227 1.976 . S
C139 C799 1.977 . S
C821 C1964 1.976 . S
C51 C843 1.977 . S
C1703 C889 1.977 . S
C1325 C599 1.977 . S
C933 C1835 1.977 . S
C1219 C537 1.977 . S
C1725 C951 1.977 . S
C973 C1197 1.977 . S
C1615 C819 1.976 . S
C1391 C1021 1.977 . S
C1039 C1567 1.977 . S
C797 C1593 1.976 . S
C779 C1061 1.977 . S
C841 C1523 1.977 . S
C1545 C1087 1.976 . S
C1501 C1109 1.977 . S
C1149 C1787 1.977 . S
C713 C1307 1.976 . S
C669 C1417 1.977 . S
C757 C1237 1.976 . S
C996 C1899 1.977 . S
C1018 C94 1.977 . S
C1547 C1261 1.976 . S
C29 C1393 1.976 . S
C1283 C1921 1.976 . S
C1084 C1304 1.977 . S
C446 C1635 1.976 . S
C1216 C1327 1.976 . S
C1854 C1173 1.977 . S
C1744 C424 1.977 . S
C381 C1348 1.976 . S
C1657 C468 1.977 . S
C1832 C1194 1.977 . S
C1810 C1129 1.977 . S
C1370 C1458 1.977 . S
C975 C249 1.977 . S
C1480 C183 1.976 . S
C909 C293 1.977 . S
C1281 C2073 1.976 . S
C1461 C1351 1.976 . S
C577 C1747 1.977 . S
C2051 C1483 1.977 . S
C1967 C1633 1.976 . S
C621 C1655 1.977 . S
C1987 C953 1.977 . S
C1063 C1789 1.977 . S
C72 C1590 1.977 . S
C1414 C2030 1.977 . S
C1942 C1612 1.976 . S
C117 C1525 1.976 . S
C735 C1769 1.977 . S
C2099 C1259 1.977 . S
C1437 C271 1.976 . S
C2008 C930 1.977 . S
C7 C1329 1.341 1_545 S
C28 C2077 1.340 . S
C1831 C50 1.340 . S
C73 C665 1.340 . S
C95 C361 1.341 1_556 S
C1347 C116 1.340 . S
C1721 C138 1.340 1_565 S
C1743 C161 1.340 . S
C581 C182 1.341 1_556 S
C995 C205 1.341 . S
C226 C1457 1.340 . S
C248 C955 1.340 . S
C1285 C270 1.341 . S
C929 C292 1.340 . S
C1413 C315 1.340 . S
C603 C337 1.340 . S
C358 C1527 1.341 1_455 S
C380 C1083 1.340 . S
C402 C1611 1.340 . S
C1065 C425 1.340 . S
C295 C447 1.340 . S
C469 C185 1.341 1_565 S
C491 C1369 1.340 . S
C1879 C513 1.340 . S
C1019 C159 1.340 . S
C533 C1986 1.340 1_455 S
C559 C1546 1.340 . S
C1062 C625 1.340 . S
C1920 C643 1.340 . S
C5 C1591 1.341 1_455 S
C887 C691 1.340 . S
C405 C1788 1.340 . S
C1282 C709 1.341 . S
C731 C952 1.340 . S
C753 C1260 1.340 . S
C1481 C489 1.341 . S
C1656 C335 1.340 . S
C1195 C775 1.340 . S
C1634 C229 1.341 . S
C1349 C801 1.340 . S
C755 C823 1.341 . S
C845 C667 1.340 . S
C1150 C313 1.340 1_565 S
C867 C1679 1.340 . S
C600 C1659 1.340 . S
C1677 C908 1.340 . S
C445 C931 1.340 . S
C535 C1131 1.340 . S
C1853 C974 1.340 1_554 S
C2095 C997 1.341 . S
C1263 C820 1.341 . S
C1765 C1040 1.340 1_556 S
C119 C798 1.340 . S
C71 C842 1.340 . S
C1085 C1941 1.341 . S
C1107 C31 1.341 . S
C1128 C1989 1.340 1_455 S
C1172 C2029 1.341 . S
C711 C273 1.341 . S
C1549 C1217 1.340 . S
C93 C1524 1.340 1_456 S
C1241 C1876 1.340 . S
C1568 C1303 1.340 . S
C885 C2009 1.340 1_455 S
C1175 C1436 1.340 . S
C622 C423 1.340 . S
C578 C467 1.340 1_546 S
C1193 C1965 1.340 . S
C2074 C1105 1.341 . S
C1043 C2052 1.340 . S
C733 C251 1.340 . S
C1833 C1395 1.340 . S
C1415 C1153 1.340 1_545 S
C645 C1809 1.341 . S
C1459 C1637 1.341 . S
C1238 C511 1.340 . S
C1502 C141 1.340 . S
C1963 C777 1.340 . S
C53 C1392 1.340 . S
C1613 C1791 1.340 . S
C2007 C688 1.340 1_655 S
C1571 C1701 1.341 . S
C1723 C1505 1.340 1_565 S
C1745 C1017 1.340 . S
C1479 C1371 1.341 . S
C911 C864 1.340 . S
C383 C1943 1.341 . S
C1215 C556 1.340 . S
C203 C2097 1.340 . S
C1855 C1901 1.340 . S
C1923 C1811 1.341 . S
C1589 C1326 1.340 1_645 S
C1699 C1305 1.341 . S
C1767 C2055 1.340 1_556 S
C1898 C977 1.340 1_554 S
C2031 C1439 1.341 . S
