# Generated by pormake.
# Topology wke, (5)-cn, num edge types: 1
# Building blocks:
#     Node 0, Type 0, BuildingBlock: BEQFEK_clean_sbu_0, # of connection points: 5
#     Node 1, Type 0, BuildingBlock: BEQFEK_clean_sbu_0, # of connection points: 5
#     Node 2, Type 0, BuildingBlock: BEQFEK_clean_sbu_0, # of connection points: 5
#     Node 3, Type 0, BuildingBlock: BEQFEK_clean_sbu_0, # of connection points: 5
#     Node 4, Type 0, BuildingBlock: BEQFEK_clean_sbu_0, # of connection points: 5
#     Node 5, Type 0, BuildingBlock: BEQFEK_clean_sbu_0, # of connection points: 5
#     Node 6, Type 0, BuildingBlock: BEQFEK_clean_sbu_0, # of connection points: 5
#     Node 7, Type 0, BuildingBlock: BEQFEK_clean_sbu_0, # of connection points: 5
#     Node 8, Type 0, BuildingBlock: BEQFEK_clean_sbu_0, # of connection points: 5
#     Node 9, Type 0, BuildingBlock: BEQFEK_clean_sbu_0, # of connection points: 5
#     Node 10, Type 0, BuildingBlock: BEQFEK_clean_sbu_0, # of connection points: 5
#     Node 11, Type 0, BuildingBlock: BEQFEK_clean_sbu_0, # of connection points: 5
#     Edge 12, Type (0, 0), BuildingBlock: EZIPEK_clean_linker_0, # of connection points: 2
#     Edge 13, Type (0, 0), BuildingBlock: EZIPEK_clean_linker_0, # of connection points: 2
#     Edge 14, Type (0, 0), BuildingBlock: EZIPEK_clean_linker_0, # of connection points: 2
#     Edge 15, Type (0, 0), BuildingBlock: EZIPEK_clean_linker_0, # of connection points: 2
#     Edge 16, Type (0, 0), BuildingBlock: EZIPEK_clean_linker_0, # of connection points: 2
#     Edge 17, Type (0, 0), BuildingBlock: EZIPEK_clean_linker_0, # of connection points: 2
#     Edge 18, Type (0, 0), BuildingBlock: EZIPEK_clean_linker_0, # of connection points: 2
#     Edge 19, Type (0, 0), BuildingBlock: EZIPEK_clean_linker_0, # of connection points: 2
#     Edge 20, Type (0, 0), BuildingBlock: EZIPEK_clean_linker_0, # of connection points: 2
#     Edge 21, Type (0, 0), BuildingBlock: EZIPEK_clean_linker_0, # of connection points: 2
#     Edge 22, Type (0, 0), BuildingBlock: EZIPEK_clean_linker_0, # of connection points: 2
#     Edge 23, Type (0, 0), BuildingBlock: EZIPEK_clean_linker_0, # of connection points: 2
#     Edge 24, Type (0, 0), BuildingBlock: EZIPEK_clean_linker_0, # of connection points: 2
#     Edge 25, Type (0, 0), BuildingBlock: EZIPEK_clean_linker_0, # of connection points: 2
#     Edge 26, Type (0, 0), BuildingBlock: EZIPEK_clean_linker_0, # of connection points: 2
#     Edge 27, Type (0, 0), BuildingBlock: EZIPEK_clean_linker_0, # of connection points: 2
#     Edge 28, Type (0, 0), BuildingBlock: EZIPEK_clean_linker_0, # of connection points: 2
#     Edge 29, Type (0, 0), BuildingBlock: EZIPEK_clean_linker_0, # of connection points: 2
#     Edge 30, Type (0, 0), BuildingBlock: EZIPEK_clean_linker_0, # of connection points: 2
#     Edge 31, Type (0, 0), BuildingBlock: EZIPEK_clean_linker_0, # of connection points: 2
#     Edge 32, Type (0, 0), BuildingBlock: EZIPEK_clean_linker_0, # of connection points: 2
#     Edge 33, Type (0, 0), BuildingBlock: EZIPEK_clean_linker_0, # of connection points: 2
#     Edge 34, Type (0, 0), BuildingBlock: EZIPEK_clean_linker_0, # of connection points: 2
#     Edge 35, Type (0, 0), BuildingBlock: EZIPEK_clean_linker_0, # of connection points: 2
#     Edge 36, Type (0, 0), BuildingBlock: EZIPEK_clean_linker_0, # of connection points: 2
#     Edge 37, Type (0, 0), BuildingBlock: EZIPEK_clean_linker_0, # of connection points: 2
#     Edge 38, Type (0, 0), BuildingBlock: EZIPEK_clean_linker_0, # of connection points: 2
#     Edge 39, Type (0, 0), BuildingBlock: EZIPEK_clean_linker_0, # of connection points: 2
#     Edge 40, Type (0, 0), BuildingBlock: EZIPEK_clean_linker_0, # of connection points: 2
#     Edge 41, Type (0, 0), BuildingBlock: EZIPEK_clean_linker_0, # of connection points: 2
# Relax obj value: 0.244
# Max RMSD: 0.190
# Mean RMSD: 0.190
data_MOF--net-wke--node1-BEQFEK_clean_sbu_0--edge1-EZIPEK_clean_linker_0
_symmetry_space_group_name_H-M    P1
_symmetry_Int_Tables_number       1
_symmetry_cell_setting            triclinic
loop_
_symmetry_equiv_pos_as_xyz
'x, y, z'
_cell_length_a     53.280447
_cell_length_b     53.33133
_cell_length_c     14.748535
_cell_angle_alpha  90.007679
_cell_angle_beta   89.962377
_cell_angle_gamma 119.98051
loop_
_atom_site_label
_atom_site_type_symbol
_atom_site_fract_x
_atom_site_fract_y
_atom_site_fract_z
_atom_type_partial_charge
Co0 Co 0.09895 0.44552 0.23579 0.0
Co1 Co 0.12134 0.46846 0.43079 0.0
C2 C 0.05865 0.4213 0.38812 0.0
O3 O 0.06279 0.41872 0.3042 0.0
O4 O 0.0789 0.4399 0.4379 0.0
C5 C 0.09549 0.42429 0.04854 0.0
O6 O 0.09007 0.39917 0.0811 0.0
C7 C 0.12989 0.45356 0.61371 0.0
C8 C 0.15483 0.49625 0.67844 0.0
C9 C 0.14267 0.46676 0.6966 0.0
N10 N 0.1352 0.47429 0.55224 0.0
N11 N 0.15029 0.49979 0.59111 0.0
C12 C 0.11187 0.42211 0.59071 0.0
H13 H 0.10245 0.4193 0.52246 0.0
H14 H 0.12568 0.41209 0.58703 0.0
H15 H 0.09421 0.41065 0.64085 0.0
C16 C 0.15291 0.43841 0.24125 0.0
N17 N 0.13318 0.44456 0.27802 0.0
N18 N 0.14262 0.45572 0.35919 0.0
C19 C 0.16862 0.45788 0.37458 0.0
C20 C 0.17592 0.44697 0.30045 0.0
C21 C 0.15096 0.42504 0.15065 0.0
H22 H 0.13259 0.40254 0.15112 0.0
H23 H 0.17081 0.42418 0.134 0.0
H24 H 0.14815 0.43781 0.09745 0.0
O25 O 0.10576 0.48575 0.24874 0.0
O26 O 0.12598 0.50497 0.38114 0.0
H27 H 0.18776 0.49263 0.47047 0.0
H28 H 0.20949 0.476 0.44616 0.0
C29 C 0.1871 0.4719 0.45605 0.0
H30 H 0.17752 0.45744 0.51543 0.0
H31 H 0.1568 0.51949 0.55871 0.0
O32 O 0.09432 0.44228 0.10164 0.0
C33 C 0.11681 0.50704 0.30346 0.0
Co34 Co 0.65562 0.09887 0.74484 0.0
Co35 Co 0.65646 0.12099 0.94088 0.0
C36 C 0.64038 0.05844 0.89581 0.0
O37 O 0.64607 0.06239 0.81126 0.0
O38 O 0.64285 0.07881 0.9465 0.0
C39 C 0.66656 0.08198 0.56142 0.0
O40 O 0.6738 0.06376 0.59561 0.0
C41 C 0.67363 0.12173 0.12553 0.0
C42 C 0.65398 0.14388 0.19777 0.0
C43 C 0.66773 0.12791 0.21105 0.0
N44 N 0.66347 0.13299 0.06401 0.0
N45 N 0.65234 0.14686 0.10747 0.0
C46 C 0.68509 0.10199 0.10317 0.0
H47 H 0.66744 0.07923 0.11149 0.0
H48 H 0.69321 0.10553 0.03236 0.0
H49 H 0.70279 0.10565 0.15047 0.0
C50 C 0.71462 0.15071 0.74398 0.0
N51 N 0.69005 0.13181 0.7873 0.0
N52 N 0.69042 0.1415 0.86956 0.0
C53 C 0.71522 0.1669 0.88111 0.0
C54 C 0.73138 0.17362 0.80156 0.0
C55 C 0.72093 0.14798 0.64694 0.0
H56 H 0.70412 0.14823 0.60324 0.0
H57 H 0.72008 0.12696 0.63781 0.0
H58 H 0.74254 0.16573 0.62565 0.0
O59 O 0.62231 0.10568 0.75605 0.0
O60 O 0.62445 0.1257 0.89025 0.0
H61 H 0.70439 0.18952 0.97897 0.0
H62 H 0.74297 0.20588 0.95691 0.0
C63 C 0.72229 0.18514 0.96449 0.0
H64 H 0.72395 0.17298 0.02304 0.0
H65 H 0.64161 0.15633 0.07582 0.0
O66 O 0.65881 0.09602 0.61256 0.0
C67 C 0.61277 0.11692 0.81271 0.0
Co68 Co 0.56512 0.65741 0.24704 0.0
Co69 Co 0.54179 0.65691 0.43996 0.0
C70 C 0.58845 0.64057 0.39806 0.0
O71 O 0.59129 0.64706 0.31404 0.0
O72 O 0.57 0.64276 0.44701 0.0
C73 C 0.5793 0.64891 0.0612 0.0
O74 O 0.58689 0.63045 0.09098 0.0
C75 C 0.55488 0.6699 0.62837 0.0
C76 C 0.51167 0.65106 0.69148 0.0
C77 C 0.54086 0.66255 0.71092 0.0
N78 N 0.53502 0.66253 0.56258 0.0
N79 N 0.50924 0.65199 0.6007 0.0
C80 C 0.58619 0.67991 0.61208 0.0
H81 H 0.59286 0.69002 0.54408 0.0
H82 H 0.59985 0.69573 0.66467 0.0
H83 H 0.58964 0.66107 0.61668 0.0
C84 C 0.57287 0.71636 0.24796 0.0
N85 N 0.56669 0.69162 0.29087 0.0
N86 N 0.55626 0.69147 0.37175 0.0
C87 C 0.55529 0.71609 0.38279 0.0
C88 C 0.56568 0.73265 0.30424 0.0
C89 C 0.58279 0.72299 0.15158 0.0
H90 H 0.60152 0.71964 0.14149 0.0
H91 H 0.5891 0.74553 0.13285 0.0
H92 H 0.56501 0.70793 0.10617 0.0
O93 O 0.52477 0.62422 0.25255 0.0
O94 O 0.50557 0.62584 0.38478 0.0
H95 H 0.54335 0.74353 0.45738 0.0
H96 H 0.55449 0.72248 0.52542 0.0
C97 C 0.54248 0.72237 0.46383 0.0
H98 H 0.51965 0.70484 0.47215 0.0
H99 H 0.48981 0.64316 0.56467 0.0
O100 O 0.57231 0.66255 0.1165 0.0
C101 C 0.50338 0.61464 0.30686 0.0
Co102 Co 0.91112 0.56069 0.75055 0.0
Co103 Co 0.88674 0.53669 0.94423 0.0
C104 C 0.95017 0.58264 0.90647 0.0
O105 O 0.94776 0.58572 0.82155 0.0
O106 O 0.92851 0.56469 0.95277 0.0
C107 C 0.92795 0.58854 0.56397 0.0
O108 O 0.94627 0.61442 0.59523 0.0
C109 C 0.88625 0.55317 0.12887 0.0
C110 C 0.86583 0.51163 0.20244 0.0
C111 C 0.88114 0.5414 0.21485 0.0
N112 N 0.87494 0.53153 0.06796 0.0
N113 N 0.86216 0.50668 0.11235 0.0
C114 C 0.90515 0.58443 0.10518 0.0
H115 H 0.90115 0.58856 0.03437 0.0
H116 H 0.90103 0.5982 0.15231 0.0
H117 H 0.92821 0.59042 0.11268 0.0
C118 C 0.85964 0.56864 0.75063 0.0
N119 N 0.8781 0.5623 0.79369 0.0
N120 N 0.86737 0.55151 0.874 0.0
C121 C 0.84179 0.55063 0.88445 0.0
C122 C 0.83596 0.56136 0.80621 0.0
C123 C 0.8634 0.57912 0.65502 0.0
H124 H 0.88499 0.59876 0.64843 0.0
H125 H 0.84644 0.58428 0.6347 0.0
H126 H 0.86249 0.56225 0.60891 0.0
O127 O 0.90285 0.52012 0.757 0.0
O128 O 0.88216 0.50045 0.88907 0.0
H129 H 0.81834 0.51544 0.97616 0.0
H130 H 0.80167 0.53749 0.95651 0.0
C131 C 0.82251 0.53779 0.96511 0.0
H132 H 0.83378 0.55064 0.0262 0.0
H133 H 0.85308 0.48642 0.08129 0.0
O134 O 0.91437 0.56734 0.61763 0.0
C135 C 0.89121 0.49856 0.81063 0.0
Co136 Co 0.35551 0.90883 0.25159 0.0
Co137 Co 0.35378 0.88494 0.4462 0.0
C138 C 0.37116 0.94822 0.40577 0.0
O139 O 0.36597 0.94546 0.32075 0.0
O140 O 0.36788 0.92691 0.45316 0.0
C141 C 0.3451 0.92632 0.0669 0.0
O142 O 0.3379 0.94466 0.10046 0.0
C143 C 0.33677 0.88507 0.63066 0.0
C144 C 0.35648 0.86322 0.70416 0.0
C145 C 0.34296 0.87945 0.7166 0.0
N146 N 0.34652 0.8732 0.56974 0.0
N147 N 0.35771 0.85955 0.61407 0.0
C148 C 0.32544 0.90488 0.60713 0.0
H149 H 0.31712 0.901 0.53654 0.0
H150 H 0.30792 0.9016 0.65472 0.0
H151 H 0.34317 0.92767 0.614 0.0
C152 C 0.296 0.85753 0.24891 0.0
N153 N 0.32054 0.876 0.29315 0.0
N154 N 0.31997 0.86551 0.37434 0.0
C155 C 0.29515 0.84004 0.38413 0.0
C156 C 0.27914 0.83409 0.30463 0.0
C157 C 0.2899 0.86106 0.15241 0.0
H158 H 0.30635 0.86037 0.10798 0.0
H159 H 0.29154 0.88247 0.14481 0.0
H160 H 0.26802 0.8439 0.1309 0.0
O161 O 0.38792 0.90038 0.26143 0.0
O162 O 0.3852 0.87946 0.39447 0.0
H163 H 0.30607 0.81649 0.47802 0.0
H164 H 0.26749 0.80021 0.45635 0.0
C165 C 0.28811 0.82091 0.46538 0.0
H166 H 0.28639 0.8324 0.5257 0.0
H167 H 0.3683 0.84984 0.583 0.0
O168 O 0.35258 0.91221 0.11874 0.0
C169 C 0.39689 0.88828 0.31688 0.0
Co170 Co 0.44871 0.35175 0.74806 0.0
Co171 Co 0.47051 0.35143 0.94398 0.0
C172 C 0.4242 0.36778 0.89926 0.0
O173 O 0.42222 0.36186 0.81485 0.0
O174 O 0.44214 0.36528 0.94974 0.0
C175 C 0.42063 0.34022 0.56452 0.0
O176 O 0.39501 0.33256 0.59855 0.0
C177 C 0.45426 0.33428 0.12868 0.0
C178 C 0.49604 0.35465 0.20105 0.0
C179 C 0.46629 0.34041 0.21424 0.0
N180 N 0.47573 0.34474 0.06723 0.0
N181 N 0.50073 0.35631 0.11077 0.0
C182 C 0.42299 0.32236 0.10618 0.0
H183 H 0.41864 0.3146 0.03499 0.0
H184 H 0.40917 0.30431 0.15274 0.0
H185 H 0.41738 0.33961 0.11569 0.0
C186 C 0.44118 0.29267 0.74928 0.0
N187 N 0.44709 0.3174 0.79174 0.0
N188 N 0.45671 0.3173 0.87377 0.0
C189 C 0.4573 0.29253 0.88593 0.0
C190 C 0.44751 0.27611 0.80711 0.0
C191 C 0.43173 0.28599 0.65272 0.0
H192 H 0.41162 0.28702 0.64413 0.0
H193 H 0.4276 0.26423 0.6323 0.0
H194 H 0.44868 0.30248 0.60801 0.0
O195 O 0.489 0.38477 0.7576 0.0
O196 O 0.50714 0.383 0.89173 0.0
H197 H 0.46928 0.26527 0.96139 0.0
H198 H 0.45506 0.28392 0.02787 0.0
C199 C 0.46886 0.28577 0.96902 0.0
H200 H 0.49105 0.30386 0.98306 0.0
H201 H 0.52094 0.36735 0.07916 0.0
O202 O 0.44243 0.34829 0.61578 0.0
C203 C 0.50992 0.39434 0.81366 0.0
Co204 Co 0.56235 0.9104 0.24702 0.0
Co205 Co 0.53909 0.88681 0.05262 0.0
C206 C 0.58458 0.95005 0.09292 0.0
O207 O 0.58735 0.94725 0.17772 0.0
O208 O 0.56683 0.92866 0.04535 0.0
C209 C 0.58983 0.92809 0.43266 0.0
O210 O 0.61527 0.94749 0.40092 0.0
C211 C 0.55581 0.88679 0.86795 0.0
C212 C 0.51416 0.86479 0.79495 0.0
C213 C 0.54391 0.88099 0.78216 0.0
N214 N 0.53425 0.87505 0.92912 0.0
N215 N 0.50936 0.86131 0.88513 0.0
C216 C 0.58699 0.90659 0.89108 0.0
H217 H 0.59207 0.92938 0.88418 0.0
H218 H 0.59151 0.90274 0.96161 0.0
H219 H 0.60118 0.90327 0.84335 0.0
C220 C 0.57122 0.8598 0.24667 0.0
N221 N 0.56464 0.87804 0.20358 0.0
N222 N 0.55388 0.86734 0.12328 0.0
C223 C 0.55329 0.84192 0.1128 0.0
C224 C 0.56415 0.83622 0.1911 0.0
C225 C 0.58161 0.86359 0.34242 0.0
H226 H 0.56442 0.86207 0.38843 0.0
H227 H 0.60089 0.88541 0.3496 0.0
H228 H 0.58732 0.84702 0.36252 0.0
O229 O 0.52154 0.90117 0.23969 0.0
O230 O 0.5026 0.88227 0.1056 0.0
H231 H 0.51824 0.81823 0.02088 0.0
H232 H 0.54071 0.80201 0.04058 0.0
C233 C 0.54071 0.82268 0.03202 0.0
H234 H 0.55355 0.8341 0.97102 0.0
H235 H 0.48908 0.85162 0.91646 0.0
O236 O 0.56876 0.91352 0.37953 0.0
C237 C 0.5002 0.89032 0.18502 0.0
Co238 Co 0.65492 0.55988 0.75289 0.0
Co239 Co 0.65539 0.53644 0.55867 0.0
C240 C 0.63845 0.58264 0.59787 0.0
O241 O 0.64384 0.5854 0.68281 0.0
O242 O 0.64191 0.56466 0.55089 0.0
C243 C 0.6656 0.58763 0.93873 0.0
O244 O 0.67273 0.61333 0.90687 0.0
C245 C 0.67237 0.553 0.37403 0.0
C246 C 0.65174 0.51142 0.30073 0.0
C247 C 0.66592 0.54117 0.28814 0.0
N248 N 0.66217 0.53141 0.43506 0.0
N249 N 0.65041 0.50653 0.39087 0.0
C250 C 0.68446 0.58425 0.39744 0.0
H251 H 0.69274 0.58853 0.46807 0.0
H252 H 0.70218 0.59813 0.34993 0.0
H253 H 0.66716 0.58995 0.39034 0.0
C254 C 0.71427 0.56772 0.75304 0.0
N255 N 0.68948 0.5614 0.71 0.0
N256 N 0.68949 0.55084 0.62939 0.0
C257 C 0.71425 0.5501 0.61867 0.0
C258 C 0.73078 0.56069 0.69708 0.0
C259 C 0.72095 0.57806 0.84881 0.0
H260 H 0.71908 0.59773 0.85566 0.0
H261 H 0.74303 0.58311 0.86923 0.0
H262 H 0.70491 0.56116 0.8947 0.0
O263 O 0.62243 0.51941 0.74539 0.0
O264 O 0.62334 0.50023 0.61237 0.0
H265 H 0.70283 0.51537 0.52541 0.0
H266 H 0.74152 0.53752 0.54569 0.0
C267 C 0.72091 0.53772 0.53732 0.0
H268 H 0.72251 0.55081 0.47685 0.0
H269 H 0.63941 0.48628 0.42205 0.0
O270 O 0.65825 0.56636 0.88562 0.0
C271 C 0.6123 0.49809 0.69077 0.0
Co272 Co 0.09957 0.65393 0.25338 0.0
Co273 Co 0.12127 0.65441 0.05694 0.0
C274 C 0.05894 0.63913 0.10283 0.0
O275 O 0.06315 0.6448 0.18733 0.0
O276 O 0.07913 0.64134 0.05153 0.0
C277 C 0.08319 0.66567 0.43645 0.0
O278 O 0.06556 0.67364 0.40186 0.0
C279 C 0.12254 0.6718 0.87226 0.0
C280 C 0.14379 0.65122 0.80007 0.0
C281 C 0.12846 0.66564 0.78676 0.0
N282 N 0.13333 0.66117 0.9338 0.0
N283 N 0.14668 0.64949 0.89036 0.0
C284 C 0.10336 0.68393 0.8946 0.0
H285 H 0.10685 0.69179 0.96567 0.0
H286 H 0.10767 0.70194 0.8478 0.0
H287 H 0.08045 0.66675 0.88534 0.0
C288 C 0.15182 0.71263 0.2533 0.0
N289 N 0.13271 0.68811 0.2104 0.0
N290 N 0.14222 0.68833 0.12794 0.0
C291 C 0.16773 0.71299 0.11589 0.0
C292 C 0.17468 0.72921 0.19527 0.0
C293 C 0.14927 0.71914 0.35025 0.0
H294 H 0.14917 0.70221 0.39416 0.0
H295 H 0.12845 0.71874 0.3593 0.0
H296 H 0.16731 0.7406 0.37131 0.0
O297 O 0.106 0.62036 0.24259 0.0
O298 O 0.12559 0.6222 0.10778 0.0
H299 H 0.18981 0.70179 0.01701 0.0
H300 H 0.20678 0.74034 0.03961 0.0
C301 C 0.18582 0.71989 0.03212 0.0
H302 H 0.17371 0.72189 0.97402 0.0
H303 H 0.15569 0.63833 0.92204 0.0
O304 O 0.09678 0.65729 0.38563 0.0
C305 C 0.11693 0.61061 0.18551 0.0
Co306 Co 0.44654 0.09564 0.76021 0.0
Co307 Co 0.4684 0.11765 0.56431 0.0
C308 C 0.42146 0.05526 0.60874 0.0
O309 O 0.41969 0.05913 0.69335 0.0
O310 O 0.4396 0.07562 0.55845 0.0
C311 C 0.4184 0.07922 0.9439 0.0
O312 O 0.39275 0.0614 0.91 0.0
C313 C 0.45212 0.11866 0.37974 0.0
C314 C 0.49388 0.13988 0.30708 0.0
C315 C 0.46412 0.12451 0.2941 0.0
N316 N 0.47361 0.12956 0.44105 0.0
N317 N 0.4986 0.14287 0.39733 0.0
C318 C 0.42082 0.0995 0.40244 0.0
H319 H 0.41511 0.07659 0.39346 0.0
H320 H 0.41648 0.10305 0.47351 0.0
H321 H 0.40705 0.10373 0.35568 0.0
C322 C 0.43969 0.14761 0.75958 0.0
N323 N 0.44523 0.12856 0.7168 0.0
N324 N 0.45494 0.13826 0.6348 0.0
C325 C 0.45595 0.16383 0.62294 0.0
C326 C 0.44636 0.17063 0.70195 0.0
C327 C 0.43039 0.14496 0.85632 0.0
H328 H 0.44731 0.14518 0.90067 0.0
H329 H 0.41016 0.12398 0.86517 0.0
H330 H 0.42656 0.16277 0.87697 0.0
O331 O 0.48689 0.10286 0.75079 0.0
O332 O 0.50499 0.12233 0.61621 0.0
H333 H 0.48992 0.18605 0.52624 0.0
H334 H 0.46842 0.20321 0.54773 0.0
C335 C 0.46779 0.1822 0.54003 0.0
H336 H 0.45403 0.17041 0.48099 0.0
H337 H 0.51881 0.15195 0.4288 0.0
O338 O 0.44022 0.09281 0.89252 0.0
C339 C 0.50782 0.11395 0.69455 0.0
Co340 Co 0.35819 0.44916 0.25273 0.0
Co341 Co 0.35678 0.47174 0.05792 0.0
C342 C 0.37388 0.42576 0.09714 0.0
O343 O 0.36886 0.42333 0.18232 0.0
O344 O 0.37023 0.44354 0.04987 0.0
C345 C 0.34761 0.42124 0.43791 0.0
O346 O 0.34006 0.39555 0.40501 0.0
C347 C 0.33963 0.45499 0.87347 0.0
C348 C 0.36001 0.49658 0.80016 0.0
C349 C 0.34606 0.46684 0.78758 0.0
N350 N 0.34965 0.47658 0.9345 0.0
N351 N 0.36124 0.50145 0.89028 0.0
C352 C 0.32779 0.42378 0.89687 0.0
H353 H 0.31947 0.41943 0.9675 0.0
H354 H 0.31013 0.4098 0.84938 0.0
H355 H 0.34522 0.41827 0.88971 0.0
C356 C 0.29903 0.44182 0.25593 0.0
N357 N 0.32351 0.4477 0.21151 0.0
N358 N 0.32299 0.45762 0.13027 0.0
C359 C 0.29811 0.45819 0.1203 0.0
C360 C 0.2821 0.4483 0.20003 0.0
C361 C 0.29305 0.43242 0.35271 0.0
H362 H 0.30995 0.44934 0.39646 0.0
H363 H 0.29402 0.41228 0.36028 0.0
H364 H 0.2715 0.42846 0.37527 0.0
O365 O 0.39073 0.48956 0.24348 0.0
O366 O 0.38914 0.50807 0.1099 0.0
H367 H 0.30837 0.49223 0.02531 0.0
H368 H 0.26983 0.46913 0.04602 0.0
C369 C 0.29082 0.46968 0.0381 0.0
H370 H 0.28969 0.45652 0.97832 0.0
H371 H 0.37212 0.52171 0.92144 0.0
O372 O 0.35526 0.44274 0.38553 0.0
C373 C 0.40059 0.5106 0.18776 0.0
Co374 Co 0.91147 0.35395 0.74422 0.0
Co375 Co 0.8867 0.35292 0.55071 0.0
C376 C 0.95029 0.37059 0.58756 0.0
O377 O 0.94807 0.36551 0.67274 0.0
O378 O 0.92847 0.36658 0.54157 0.0
C379 C 0.92849 0.34329 0.93099 0.0
O380 O 0.94691 0.33582 0.89978 0.0
C381 C 0.88614 0.33587 0.36606 0.0
C382 C 0.86541 0.35677 0.29293 0.0
C383 C 0.88094 0.34253 0.28019 0.0
N384 N 0.8747 0.34603 0.4272 0.0
N385 N 0.86171 0.35795 0.38306 0.0
C386 C 0.90527 0.32371 0.3894 0.0
H387 H 0.90136 0.31555 0.46019 0.0
H388 H 0.90128 0.3059 0.34218 0.0
H389 H 0.92827 0.3409 0.38171 0.0
C390 C 0.86014 0.29448 0.74588 0.0
N391 N 0.87846 0.31917 0.70206 0.0
N392 N 0.86752 0.31899 0.62193 0.0
C393 C 0.84194 0.29429 0.61243 0.0
C394 C 0.83634 0.27793 0.69106 0.0
C395 C 0.86414 0.28796 0.84147 0.0
H396 H 0.88584 0.29012 0.84767 0.0
H397 H 0.84738 0.26582 0.86215 0.0
H398 H 0.8631 0.30387 0.88748 0.0
O399 O 0.90307 0.38617 0.73705 0.0
O400 O 0.88205 0.38462 0.60521 0.0
H401 H 0.80161 0.26717 0.54186 0.0
H402 H 0.8335 0.28587 0.47104 0.0
C403 C 0.82242 0.28765 0.53237 0.0
H404 H 0.81822 0.30581 0.52109 0.0
H405 H 0.85252 0.369 0.41431 0.0
O406 O 0.91481 0.35078 0.87725 0.0
C407 C 0.89119 0.3958 0.68326 0.0
C408 C 0.02248 0.38205 0.49143 0.0
C409 C 0.02922 0.40485 0.42898 0.0
C410 C 0.98675 0.40725 0.47991 0.0
C411 C 0.97866 0.38313 0.53853 0.0
N412 N 0.98604 0.344 0.58626 0.0
N413 N 0.01397 0.43413 0.34801 0.0
C414 C 0.99583 0.36957 0.5409 0.0
C415 C 0.01003 0.41571 0.41799 0.0
N416 N 0.04158 0.37231 0.50321 0.0
N417 N 0.9732 0.42322 0.48666 0.0
H418 H 0.03079 0.44079 0.30121 0.0
H419 H 0.99891 0.44035 0.33078 0.0
H420 H 0.95692 0.41878 0.53364 0.0
H421 H 0.98022 0.44273 0.45267 0.0
H422 H 0.04001 0.35854 0.55572 0.0
H423 H 0.05977 0.37906 0.46204 0.0
H424 H 0.99608 0.33156 0.5828 0.0
H425 H 0.96647 0.33387 0.6215 0.0
C426 C 0.59694 0.01114 0.93427 0.0
C427 C 0.62742 0.02908 0.93668 0.0
C428 C 0.63071 0.99481 0.04123 0.0
C429 C 0.59998 0.97875 0.04672 0.0
N430 N 0.55403 0.97533 0.01265 0.0
N431 N 0.6737 0.03958 0.99634 0.0
C432 C 0.58316 0.98794 0.99693 0.0
C433 C 0.64444 0.02138 0.99151 0.0
N434 N 0.58111 0.01608 0.87126 0.0
N435 N 0.64672 0.98409 0.07989 0.0
H436 H 0.68451 0.0581 0.9562 0.0
H437 H 0.68696 0.03715 0.04312 0.0
H438 H 0.63745 0.9648 0.11655 0.0
H439 H 0.66894 0.99315 0.07017 0.0
H440 H 0.55911 1.00201 0.86022 0.0
H441 H 0.59059 0.03268 0.8235 0.0
H442 H 0.54116 0.98304 0.98518 0.0
H443 H 0.54321 0.9591 0.06086 0.0
C444 C 0.60041 0.58229 0.49742 0.0
C445 C 0.62583 0.59854 0.55051 0.0
C446 C 0.62833 0.64354 0.49778 0.0
C447 C 0.60425 0.62713 0.43998 0.0
N448 N 0.57161 0.58156 0.36937 0.0
N449 N 0.66696 0.64488 0.58899 0.0
C450 C 0.59172 0.59672 0.43481 0.0
C451 C 0.64061 0.6293 0.54773 0.0
N452 N 0.58366 0.55306 0.50996 0.0
N453 N 0.63935 0.67272 0.50518 0.0
H454 H 0.67669 0.63527 0.62544 0.0
H455 H 0.68021 0.66715 0.58138 0.0
H456 H 0.63213 0.68395 0.46496 0.0
H457 H 0.65446 0.68546 0.5541 0.0
H458 H 0.56339 0.54056 0.48015 0.0
H459 H 0.58849 0.54169 0.55773 0.0
H460 H 0.56388 0.55971 0.35619 0.0
H461 H 0.56486 0.59147 0.32201 0.0
C462 C 0.0108 0.59599 0.07028 0.0
C463 C 0.02942 0.62625 0.06303 0.0
C464 C 0.99531 0.62893 0.95601 0.0
C465 C 0.97866 0.59818 0.95457 0.0
N466 N 0.97402 0.55233 0.99849 0.0
N467 N 0.04063 0.67192 0.99691 0.0
C468 C 0.98731 0.58171 0.00886 0.0
C469 C 0.02203 0.64284 0.00505 0.0
N470 N 0.01544 0.5808 0.13641 0.0
N471 N 0.98498 0.64485 0.91445 0.0
H472 H 0.05918 0.68295 0.03687 0.0
H473 H 0.03849 0.68476 0.94783 0.0
H474 H 0.96543 0.6355 0.8791 0.0
H475 H 0.99455 0.66721 0.92091 0.0
H476 H 1.0008 0.55921 0.15133 0.0
H477 H 0.03244 0.59052 0.18268 0.0
H478 H 0.98147 0.53962 0.02869 0.0
H479 H 0.95738 0.54091 0.95227 0.0
C480 C 0.38066 0.01838 0.51133 0.0
C481 C 0.40513 0.02599 0.56739 0.0
C482 C 0.40972 0.98629 0.50281 0.0
C483 C 0.3838 0.97683 0.45254 0.0
N484 N 0.34195 0.98138 0.41945 0.0
N485 N 0.43825 0.01278 0.63295 0.0
C486 C 0.3685 0.99224 0.45937 0.0
C487 C 0.41805 0.00842 0.56856 0.0
N488 N 0.36924 0.03627 0.50739 0.0
N489 N 0.42728 0.97513 0.48404 0.0
H490 H 0.4442 0.02834 0.6837 0.0
H491 H 0.44655 0.99892 0.64203 0.0
H492 H 0.42286 0.9606 0.43104 0.0
H493 H 0.44769 0.98289 0.51284 0.0
H494 H 0.35366 0.0339 0.46023 0.0
H495 H 0.37657 0.05449 0.54875 0.0
H496 H 0.32839 0.98995 0.42975 0.0
H497 H 0.33257 0.96249 0.38078 0.0
C498 C 0.38389 0.36481 0.99695 0.0
C499 C 0.40823 0.38123 0.93996 0.0
C500 C 0.41203 0.42609 0.99711 0.0
C501 C 0.3865 0.40984 0.04985 0.0
N502 N 0.34523 0.36357 0.08796 0.0
N503 N 0.44135 0.42686 0.8704 0.0
C504 C 0.37163 0.37909 0.04684 0.0
C505 C 0.42089 0.41167 0.93503 0.0
N506 N 0.37263 0.33558 0.00359 0.0
N507 N 0.42871 0.45534 0.00952 0.0
H508 H 0.44838 0.41699 0.82373 0.0
H509 H 0.44919 0.44872 0.85714 0.0
H510 H 0.42367 0.46673 0.05657 0.0
H511 H 0.44908 0.46786 0.98028 0.0
H512 H 0.35729 0.32274 0.05187 0.0
H513 H 0.37986 0.32435 0.96331 0.0
H514 H 0.33189 0.34132 0.08029 0.0
H515 H 0.33557 0.37324 0.12459 0.0
C516 C 0.14431 0.58555 0.23302 0.0
C517 C 0.11773 0.58404 0.20982 0.0
C518 C 0.09092 0.5335 0.25994 0.0
C519 C 0.1175 0.53416 0.27609 0.0
N520 N 0.16964 0.5593 0.2656 0.0
N521 N 0.06634 0.55533 0.18357 0.0
C522 C 0.1443 0.55981 0.2594 0.0
C523 C 0.0912 0.55761 0.21816 0.0
N524 N 0.16939 0.6117 0.23258 0.0
N525 N 0.06544 0.51022 0.28791 0.0
H526 H 0.06593 0.57241 0.15052 0.0
H527 H 0.04682 0.53585 0.17943 0.0
H528 H 0.06451 0.49257 0.32144 0.0
H529 H 0.04563 0.50967 0.28626 0.0
H530 H 0.18891 0.61482 0.25861 0.0
H531 H 0.17026 0.63082 0.21179 0.0
H532 H 0.18959 0.57633 0.24474 0.0
H533 H 0.17047 0.54095 0.28535 0.0
C534 C 0.53515 0.08939 0.74237 0.0
C535 C 0.53544 0.11547 0.72101 0.0
C536 C 0.58716 0.14328 0.76015 0.0
C537 C 0.58595 0.1173 0.78891 0.0
N538 N 0.55755 0.06664 0.82578 0.0
N539 N 0.5604 0.16767 0.72172 0.0
C540 C 0.55953 0.09064 0.78549 0.0
C541 C 0.56113 0.14261 0.73298 0.0
N542 N 0.51199 0.06338 0.71785 0.0
N543 N 0.61326 0.16837 0.7565 0.0
H544 H 0.54182 0.16801 0.70144 0.0
H545 H 0.57753 0.18801 0.73888 0.0
H546 H 0.63253 0.16973 0.77826 0.0
H547 H 0.61612 0.18731 0.72655 0.0
H548 H 0.51168 0.04376 0.72371 0.0
H549 H 0.49432 0.06176 0.68249 0.0
H550 H 0.53811 0.04721 0.83317 0.0
H551 H 0.57484 0.06708 0.86033 0.0
C552 C 0.4755 0.56131 0.28254 0.0
C553 C 0.47625 0.58821 0.28055 0.0
C554 C 0.42663 0.56432 0.22053 0.0
C555 C 0.42702 0.53791 0.21436 0.0
N556 N 0.45404 0.51266 0.22315 0.0
N557 N 0.45445 0.6166 0.23769 0.0
C558 C 0.45209 0.5368 0.24091 0.0
C559 C 0.45234 0.59011 0.24669 0.0
N560 N 0.49682 0.55899 0.32669 0.0
N561 N 0.40143 0.56453 0.20554 0.0
H562 H 0.47263 0.63577 0.25863 0.0
H563 H 0.43912 0.61981 0.20398 0.0
H564 H 0.38213 0.5461 0.18708 0.0
H565 H 0.39898 0.58238 0.2185 0.0
H566 H 0.49594 0.53932 0.33869 0.0
H567 H 0.51406 0.57644 0.35935 0.0
H568 H 0.47298 0.51178 0.23181 0.0
H569 H 0.43761 0.49435 0.1914 0.0
C570 C 0.86373 0.44603 0.7635 0.0
C571 C 0.8905 0.47155 0.78161 0.0
C572 C 0.917 0.44832 0.72301 0.0
C573 C 0.89039 0.42211 0.71141 0.0
N574 N 0.83862 0.39443 0.73138 0.0
N575 N 0.94265 0.49581 0.79174 0.0
C576 C 0.86375 0.42052 0.73436 0.0
C577 C 0.91714 0.47236 0.76481 0.0
N578 N 0.8384 0.44652 0.7708 0.0
N579 N 0.94217 0.45052 0.69146 0.0
H580 H 0.94381 0.51408 0.82136 0.0
H581 H 0.96242 0.49629 0.79184 0.0
H582 H 0.94311 0.43327 0.662 0.0
H583 H 0.96172 0.46997 0.68746 0.0
H584 H 0.81846 0.42973 0.74898 0.0
H585 H 0.83756 0.46468 0.79274 0.0
H586 H 0.81896 0.3911 0.75693 0.0
H587 H 0.83779 0.37547 0.70901 0.0
C588 C 0.44559 0.86302 0.20835 0.0
C589 C 0.47286 0.88896 0.21526 0.0
C590 C 0.45045 0.91051 0.30826 0.0
C591 C 0.4228 0.88644 0.29098 0.0
N592 N 0.39318 0.84083 0.21583 0.0
N593 N 0.49914 0.94002 0.25214 0.0
C594 C 0.42007 0.86299 0.23812 0.0
C595 C 0.4747 0.91348 0.25971 0.0
N596 N 0.4441 0.83811 0.17795 0.0
N597 N 0.45368 0.93028 0.37264 0.0
H598 H 0.5168 0.94371 0.21206 0.0
H599 H 0.50046 0.95896 0.27679 0.0
H600 H 0.43646 0.92749 0.4132 0.0
H601 H 0.47382 0.94711 0.39321 0.0
H602 H 0.42519 0.81803 0.18008 0.0
H603 H 0.46227 0.83691 0.1584 0.0
H604 H 0.38978 0.82478 0.16912 0.0
H605 H 0.37416 0.83957 0.23999 0.0
C606 C 0.53784 0.44766 0.78953 0.0
C607 C 0.5372 0.4208 0.7885 0.0
C608 C 0.58666 0.44461 0.727 0.0
C609 C 0.58607 0.47088 0.71942 0.0
N610 N 0.55893 0.49602 0.72784 0.0
N611 N 0.55914 0.39242 0.74708 0.0
C612 C 0.56105 0.47202 0.74654 0.0
C613 C 0.56111 0.41888 0.7547 0.0
N614 N 0.51655 0.45003 0.83373 0.0
N615 N 0.6119 0.44447 0.71169 0.0
H616 H 0.54114 0.37332 0.76942 0.0
H617 H 0.57444 0.38913 0.71339 0.0
H618 H 0.63106 0.46286 0.692 0.0
H619 H 0.61452 0.42677 0.72553 0.0
H620 H 0.51733 0.46969 0.84493 0.0
H621 H 0.49944 0.43266 0.86722 0.0
H622 H 0.54 0.49688 0.73701 0.0
H623 H 0.57517 0.51417 0.6948 0.0
C624 C 0.12235 0.42462 0.80863 0.0
C625 C 0.13931 0.4544 0.79086 0.0
C626 C 0.13527 0.46401 0.95101 0.0
C627 C 0.11119 0.43495 0.96009 0.0
N628 N 0.08087 0.38824 0.8883 0.0
N629 N 0.17648 0.49769 0.86006 0.0
C630 C 0.10457 0.41535 0.88654 0.0
C631 C 0.15003 0.47309 0.8664 0.0
N632 N 0.12741 0.40566 0.76179 0.0
N633 N 0.14466 0.48302 0.02213 0.0
H634 H 0.18967 0.50207 0.8031 0.0
H635 H 0.18722 0.51139 0.91428 0.0
H636 H 0.14073 0.47707 0.08998 0.0
H637 H 0.15723 0.50534 0.01353 0.0
H638 H 0.11711 0.38362 0.77725 0.0
H639 H 0.1451 0.4132 0.71783 0.0
H640 H 0.075 0.37438 0.8325 0.0
H641 H 0.06554 0.38092 0.94019 0.0
C642 C 0.69402 0.10602 0.42053 0.0
C643 C 0.66719 0.08716 0.46282 0.0
C644 C 0.64131 0.09003 0.32972 0.0
C645 C 0.6678 0.11306 0.29586 0.0
N646 N 0.71953 0.14395 0.30923 0.0
N647 N 0.61505 0.06055 0.45923 0.0
C648 C 0.6943 0.12112 0.34074 0.0
C649 C 0.64074 0.07877 0.41737 0.0
N650 N 0.71911 0.10935 0.45654 0.0
N651 N 0.61693 0.07837 0.27708 0.0
H652 H 0.61394 0.05031 0.52064 0.0
H653 H 0.59501 0.05659 0.43526 0.0
H654 H 0.61658 0.08568 0.21177 0.0
H655 H 0.59774 0.05972 0.2945 0.0
H656 H 0.73921 0.121 0.42501 0.0
H657 H 0.71933 0.09793 0.5136 0.0
H658 H 0.73904 0.15294 0.34453 0.0
H659 H 0.72055 0.15533 0.25049 0.0
C660 C 0.57301 0.68341 0.84705 0.0
C661 C 0.55311 0.65886 0.79662 0.0
C662 C 0.55321 0.62676 0.91499 0.0
C663 C 0.57411 0.65132 0.9639 0.0
N664 N 0.60966 0.7021 0.96463 0.0
N665 N 0.53171 0.60753 0.76879 0.0
C666 C 0.58588 0.6794 0.92585 0.0
C667 C 0.54558 0.63062 0.82612 0.0
N668 N 0.57883 0.71044 0.82161 0.0
N669 N 0.53908 0.60005 0.95478 0.0
H670 H 0.52632 0.60947 0.70222 0.0
H671 H 0.52838 0.58701 0.78418 0.0
H672 H 0.54324 0.59592 0.02038 0.0
H673 H 0.52129 0.58234 0.92521 0.0
H674 H 0.59077 0.7288 0.86136 0.0
H675 H 0.56983 0.71418 0.76398 0.0
H676 H 0.62074 0.72268 0.93588 0.0
H677 H 0.62003 0.69947 0.02084 0.0
C678 C 0.90239 0.59 0.42365 0.0
C679 C 0.92198 0.58296 0.46574 0.0
C680 C 0.9197 0.55435 0.33271 0.0
C681 C 0.89606 0.55686 0.29919 0.0
N682 N 0.86381 0.57609 0.31369 0.0
N683 N 0.94971 0.55857 0.46187 0.0
C684 C 0.88729 0.5747 0.34439 0.0
C685 C 0.93093 0.56533 0.42028 0.0
N686 N 0.89842 0.61141 0.45916 0.0
N687 N 0.93199 0.54232 0.27973 0.0
H688 H 0.95985 0.56784 0.52326 0.0
H689 H 0.9542 0.54287 0.43771 0.0
H690 H 0.92475 0.53456 0.21446 0.0
H691 H 0.95107 0.54255 0.29675 0.0
H692 H 0.88619 0.6192 0.42766 0.0
H693 H 0.9099 0.6235 0.51548 0.0
H694 H 0.85436 0.5861 0.34938 0.0
H695 H 0.85241 0.56539 0.25538 0.0
C696 C 0.36971 0.91771 0.83409 0.0
C697 C 0.34311 0.89469 0.80094 0.0
C698 C 0.31731 0.90203 0.92646 0.0
C699 C 0.34425 0.92078 0.96829 0.0
N700 N 0.39639 0.94718 0.96309 0.0
N701 N 0.29141 0.86394 0.81601 0.0
C702 C 0.37056 0.92903 0.92196 0.0
C703 C 0.31676 0.88678 0.84668 0.0
N704 N 0.39391 0.92932 0.78056 0.0
N705 N 0.29235 0.89898 0.96274 0.0
H706 H 0.29017 0.85248 0.75726 0.0
H707 H 0.27203 0.85505 0.85206 0.0
H708 H 0.29231 0.9106 0.01952 0.0
H709 H 0.2722 0.88742 0.9315 0.0
H710 H 0.41316 0.94799 0.79741 0.0
H711 H 0.39401 0.92197 0.7151 0.0
H712 H 0.41633 0.95108 0.93825 0.0
H713 H 0.39772 0.95741 0.02469 0.0
C714 C 0.41805 0.31313 0.42363 0.0
C715 C 0.42532 0.33975 0.46592 0.0
C716 C 0.45382 0.36608 0.33284 0.0
C717 C 0.45111 0.33991 0.29903 0.0
N718 N 0.43149 0.28839 0.31246 0.0
N719 N 0.44965 0.39181 0.46226 0.0
C720 C 0.43316 0.31329 0.34392 0.0
C721 C 0.44288 0.36632 0.42045 0.0
N722 N 0.39666 0.28781 0.45953 0.0
N723 N 0.46604 0.39046 0.2802 0.0
H724 H 0.44031 0.39262 0.52364 0.0
H725 H 0.46535 0.41201 0.43827 0.0
H726 H 0.47387 0.39104 0.21496 0.0
H727 H 0.466 0.40937 0.29754 0.0
H728 H 0.38871 0.26778 0.42806 0.0
H729 H 0.38474 0.28728 0.5163 0.0
H730 H 0.42138 0.26887 0.34779 0.0
H731 H 0.44206 0.28768 0.25375 0.0
C732 C 0.59258 0.90352 0.57326 0.0
C733 C 0.58453 0.92228 0.53089 0.0
C734 C 0.55529 0.91891 0.66351 0.0
C735 C 0.55898 0.89604 0.69755 0.0
N736 N 0.58014 0.86545 0.68405 0.0
N737 N 0.5582 0.94812 0.53367 0.0
C738 C 0.57764 0.88823 0.65275 0.0
C739 C 0.56604 0.93025 0.57588 0.0
N740 N 0.61456 0.90046 0.53761 0.0
N741 N 0.54236 0.93039 0.71601 0.0
H742 H 0.56722 0.95834 0.47212 0.0
H743 H 0.54187 0.95174 0.55745 0.0
H744 H 0.53471 0.92306 0.78133 0.0
H745 H 0.54168 0.94896 0.69849 0.0
H746 H 0.62308 0.8889 0.56921 0.0
H747 H 0.62629 0.91204 0.48084 0.0
H748 H 0.59084 0.85664 0.64876 0.0
H749 H 0.5697 0.85393 0.74251 0.0
C750 C 0.69282 0.57458 0.15855 0.0
C751 C 0.66626 0.55648 0.20372 0.0
C752 C 0.63955 0.56443 0.0825 0.0
C753 C 0.66608 0.58229 0.03703 0.0
N754 N 0.71806 0.61128 0.0434 0.0
N755 N 0.61561 0.54128 0.22307 0.0
C756 C 0.6928 0.5897 0.07913 0.0
C757 C 0.63995 0.55357 0.17013 0.0
N758 N 0.71785 0.57637 0.18942 0.0
N759 N 0.61393 0.5573 0.04081 0.0
H760 H 0.61519 0.5336 0.28839 0.0
H761 H 0.59662 0.54121 0.20594 0.0
H762 H 0.61293 0.56647 0.97934 0.0
H763 H 0.59382 0.54142 0.06497 0.0
H764 H 0.73733 0.5866 0.15381 0.0
H765 H 0.7187 0.56579 0.24785 0.0
H766 H 0.73812 0.61934 0.07486 0.0
H767 H 0.71848 0.6232 0.98683 0.0
C768 C 0.07912 0.63968 0.58082 0.0
C769 C 0.08823 0.66622 0.53511 0.0
C770 C 0.12254 0.69273 0.65695 0.0
C771 C 0.1138 0.66612 0.702 0.0
N772 N 0.07803 0.61563 0.72131 0.0
N773 N 0.11161 0.71818 0.54117 0.0
C774 C 0.09027 0.63995 0.66843 0.0
C775 C 0.10762 0.69286 0.57724 0.0
N776 N 0.06033 0.61417 0.53922 0.0
N777 N 0.14582 0.71762 0.68823 0.0
H778 H 0.10027 0.71871 0.48433 0.0
H779 H 0.12372 0.73822 0.57255 0.0
H780 H 0.15708 0.71834 0.74694 0.0
H781 H 0.15526 0.73711 0.65277 0.0
H782 H 0.05578 0.59398 0.56339 0.0
H783 H 0.05019 0.61334 0.47785 0.0
H784 H 0.05904 0.59675 0.70411 0.0
H785 H 0.08524 0.61509 0.78659 0.0
C786 C 0.44061 0.07526 0.08789 0.0
C787 C 0.42311 0.08438 0.04249 0.0
C788 C 0.43103 0.11867 0.16455 0.0
C789 C 0.4489 0.10988 0.20937 0.0
N790 N 0.46368 0.07412 0.2281 0.0
N791 N 0.39461 0.10787 0.04897 0.0
C792 C 0.45153 0.08637 0.1755 0.0
C793 C 0.41592 0.1038 0.08484 0.0
N794 N 0.44732 0.05649 0.04602 0.0
N795 N 0.42944 0.14194 0.19607 0.0
H796 H 0.3827 0.09657 0.99214 0.0
H797 H 0.3867 0.12 0.0805 0.0
H798 H 0.44001 0.15316 0.25479 0.0
H799 H 0.41938 0.15142 0.1608 0.0
H800 H 0.46299 0.05192 0.06996 0.0
H801 H 0.43798 0.04638 0.98465 0.0
H802 H 0.46357 0.05514 0.21071 0.0
H803 H 0.47149 0.08131 0.29335 0.0
C804 C 0.31964 0.43334 0.65779 0.0
C805 C 0.34605 0.45164 0.70325 0.0
C806 C 0.37325 0.44423 0.5823 0.0
C807 C 0.34686 0.42622 0.53639 0.0
N808 N 0.29492 0.39661 0.54248 0.0
N809 N 0.39678 0.46733 0.7233 0.0
C810 C 0.32 0.41839 0.57835 0.0
C811 C 0.37254 0.45489 0.67 0.0
N812 N 0.29441 0.4312 0.68836 0.0
N813 N 0.39901 0.45166 0.54097 0.0
H814 H 0.39697 0.47487 0.78869 0.0
H815 H 0.41592 0.46767 0.70638 0.0
H816 H 0.40023 0.44261 0.47952 0.0
H817 H 0.419 0.46765 0.56545 0.0
H818 H 0.27501 0.42082 0.65245 0.0
H819 H 0.29331 0.44163 0.7468 0.0
H820 H 0.27481 0.38826 0.57393 0.0
H821 H 0.2947 0.38481 0.48587 0.0
C822 C 0.88772 0.31584 0.15041 0.0
C823 C 0.89605 0.34231 0.19579 0.0
C824 C 0.93078 0.36916 0.07476 0.0
C825 C 0.92233 0.34271 0.02919 0.0
N826 N 0.89959 0.29078 0.03574 0.0
N827 N 0.93142 0.39289 0.2156 0.0
C828 C 0.90306 0.31597 0.07121 0.0
C829 C 0.91943 0.36864 0.16241 0.0
N830 N 0.86444 0.29079 0.18084 0.0
N831 N 0.9492 0.39482 0.03324 0.0
H832 H 0.92412 0.39321 0.28099 0.0
H833 H 0.95033 0.41189 0.1986 0.0
H834 H 0.95943 0.39594 0.97177 0.0
H835 H 0.95326 0.41485 0.05754 0.0
H836 H 0.85529 0.27139 0.14496 0.0
H837 H 0.85287 0.28985 0.23906 0.0
H838 H 0.88763 0.27074 0.06728 0.0
H839 H 0.91123 0.2904 0.97946 0.0
C840 C 0.22875 0.47426 0.2565 0.0
C841 C 0.2038 0.44777 0.28098 0.0
C842 C 0.22926 0.42146 0.24287 0.0
C843 C 0.25494 0.44817 0.22586 0.0
N844 N 0.28081 0.50034 0.23546 0.0
N845 N 0.18163 0.39679 0.31271 0.0
C846 C 0.25519 0.4747 0.23808 0.0
C847 C 0.2045 0.42154 0.27889 0.0
N848 N 0.227 0.49886 0.24756 0.0
N849 N 0.22826 0.396 0.22194 0.0
H850 H 0.16316 0.39613 0.33934 0.0
H851 H 0.18198 0.3776 0.32169 0.0
H852 H 0.24591 0.3951 0.19508 0.0
H853 H 0.20931 0.37596 0.22385 0.0
H854 H 0.24354 0.51796 0.21979 0.0
H855 H 0.20815 0.49958 0.26083 0.0
H856 H 0.28268 0.52008 0.25355 0.0
H857 H 0.30071 0.50164 0.22335 0.0
C858 C 0.80921 0.22468 0.72673 0.0
C859 C 0.80919 0.25116 0.71798 0.0
C860 C 0.75778 0.22665 0.76082 0.0
C861 C 0.75851 0.20079 0.7772 0.0
N862 N 0.78586 0.17613 0.78964 0.0
N863 N 0.7852 0.27879 0.7433 0.0
C864 C 0.78454 0.20009 0.76417 0.0
C865 C 0.78395 0.25257 0.73971 0.0
N866 N 0.83256 0.22285 0.69703 0.0
N867 N 0.73193 0.22626 0.76199 0.0
H868 H 0.80391 0.29829 0.72849 0.0
H869 H 0.76844 0.28148 0.76857 0.0
H870 H 0.71226 0.20778 0.77712 0.0
H871 H 0.72962 0.2436 0.74045 0.0
H872 H 0.83274 0.20346 0.69253 0.0
H873 H 0.85102 0.24045 0.66963 0.0
H874 H 0.80498 0.17533 0.79077 0.0
H875 H 0.7682 0.15775 0.81715 0.0
C876 C 0.53782 0.78361 0.23703 0.0
C877 C 0.56427 0.80926 0.21716 0.0
C878 C 0.59143 0.78574 0.2671 0.0
C879 C 0.565 0.75932 0.2784 0.0
N880 N 0.51317 0.73161 0.25763 0.0
N881 N 0.61615 0.83365 0.19972 0.0
C882 C 0.53819 0.75781 0.25881 0.0
C883 C 0.59108 0.81 0.22831 0.0
N884 N 0.51241 0.7841 0.23849 0.0
N885 N 0.61682 0.78781 0.29547 0.0
H886 H 0.61668 0.85179 0.17102 0.0
H887 H 0.63602 0.83435 0.19722 0.0
H888 H 0.61787 0.77046 0.32405 0.0
H889 H 0.63642 0.80724 0.2979 0.0
H890 H 0.49299 0.76695 0.26238 0.0
H891 H 0.51113 0.80252 0.22337 0.0
H892 H 0.49353 0.72883 0.23389 0.0
H893 H 0.51244 0.71217 0.27282 0.0
C894 C 0.78327 0.53433 0.76092 0.0
C895 C 0.80871 0.56099 0.78033 0.0
C896 C 0.78407 0.58736 0.73319 0.0
C897 C 0.75787 0.56067 0.7224 0.0
N898 N 0.73111 0.50882 0.74261 0.0
N899 N 0.83234 0.61277 0.79821 0.0
C900 C 0.75706 0.53414 0.74086 0.0
C901 C 0.80882 0.58751 0.77023 0.0
N902 N 0.78433 0.50925 0.75832 0.0
N903 N 0.78546 0.61252 0.7059 0.0
H904 H 0.85084 0.61368 0.82542 0.0
H905 H 0.83261 0.6324 0.80162 0.0
H906 H 0.76775 0.61321 0.67862 0.0
H907 H 0.80467 0.63232 0.70306 0.0
H908 H 0.76732 0.48971 0.7347 0.0
H909 H 0.80308 0.5084 0.77206 0.0
H910 H 0.72885 0.48933 0.76557 0.0
H911 H 0.71139 0.5077 0.7288 0.0
C912 C 0.25367 0.78163 0.25758 0.0
C913 C 0.25233 0.80695 0.2781 0.0
C914 C 0.20132 0.78242 0.23086 0.0
C915 C 0.20193 0.75632 0.21895 0.0
N916 N 0.22724 0.72964 0.23572 0.0
N917 N 0.22417 0.83058 0.29651 0.0
C918 C 0.22773 0.75551 0.23626 0.0
C919 C 0.22592 0.80709 0.26813 0.0
N920 N 0.27987 0.78274 0.25538 0.0
N921 N 0.17743 0.78377 0.20451 0.0
H922 H 0.24178 0.84905 0.32371 0.0
H923 H 0.20482 0.83089 0.30014 0.0
H924 H 0.15905 0.7661 0.17709 0.0
H925 H 0.17669 0.8029 0.20254 0.0
H926 H 0.28258 0.76593 0.23094 0.0
H927 H 0.29937 0.80139 0.27065 0.0
H928 H 0.24447 0.72724 0.25799 0.0
H929 H 0.20876 0.71002 0.22014 0.0
C930 C 0.47398 0.24969 0.76465 0.0
C931 C 0.44748 0.24894 0.78341 0.0
C932 C 0.42041 0.19795 0.73691 0.0
C933 C 0.44691 0.19803 0.72609 0.0
N934 N 0.4988 0.22239 0.74542 0.0
N935 N 0.3956 0.2216 0.80077 0.0
C936 C 0.4737 0.22347 0.74431 0.0
C937 C 0.4207 0.22281 0.77336 0.0
N938 N 0.49936 0.27558 0.76304 0.0
N939 N 0.39503 0.17433 0.71019 0.0
H940 H 0.39503 0.23942 0.82756 0.0
H941 H 0.37574 0.20248 0.80419 0.0
H942 H 0.39403 0.15574 0.68343 0.0
H943 H 0.37534 0.174 0.70735 0.0
H944 H 0.51884 0.27786 0.73971 0.0
H945 H 0.50056 0.29528 0.7778 0.0
H946 H 0.51848 0.23937 0.76831 0.0
H947 H 0.49959 0.20367 0.73076 0.0
loop_
_geom_bond_atom_site_label_1
_geom_bond_atom_site_label_2
_geom_bond_distance
_geom_bond_site_symmetry_2
_ccdc_geom_bond_type
Co0 O3 1.970 . S
Co0 N17 1.989 . S
Co0 O25 1.967 . S
Co0 O32 1.920 . S
Co1 O4 1.966 . S
Co1 N10 2.022 . S
Co1 N18 1.993 . S
Co1 O26 1.941 . S
C2 O3 1.258 . S
C2 O4 1.263 . S
O3 Co0 1.970 . S
O3 C2 1.258 . S
O4 Co1 1.966 . S
O4 C2 1.263 . S
C5 O6 1.235 . S
C5 O32 1.289 . S
O6 C5 1.235 . S
C7 C9 1.400 . S
C7 N10 1.351 . S
C7 C12 1.501 . S
C8 C9 1.387 . S
C8 N11 1.341 . S
C9 C7 1.400 . S
C9 C8 1.387 . S
N10 Co1 2.022 . S
N10 C7 1.351 . S
N10 N11 1.365 . S
N11 C8 1.341 . S
N11 N10 1.365 . S
N11 H31 0.862 . S
C12 C7 1.501 . S
C12 H13 0.961 . S
C12 H14 0.961 . S
C12 H15 0.960 . S
H13 C12 0.961 . S
H14 C12 0.961 . S
H15 C12 0.960 . S
C16 N17 1.342 . S
C16 C20 1.401 . S
C16 C21 1.499 . S
N17 Co0 1.989 . S
N17 C16 1.342 . S
N17 N18 1.388 . S
N18 Co1 1.993 . S
N18 N17 1.388 . S
N18 C19 1.346 . S
C19 N18 1.346 . S
C19 C20 1.396 . S
C19 C29 1.510 . S
C20 C16 1.401 . S
C20 C19 1.396 . S
C21 C16 1.499 . S
C21 H22 0.959 . S
C21 H23 0.960 . S
C21 H24 0.961 . S
H22 C21 0.959 . S
H23 C21 0.960 . S
H24 C21 0.961 . S
O25 Co0 1.967 . S
O25 C33 1.258 . S
O26 Co1 1.941 . S
O26 C33 1.266 . S
H27 C29 0.959 . S
H28 C29 0.961 . S
C29 C19 1.510 . S
C29 H27 0.959 . S
C29 H28 0.961 . S
C29 H30 0.960 . S
H30 C29 0.960 . S
H31 N11 0.862 . S
O32 Co0 1.920 . S
O32 C5 1.289 . S
C33 O25 1.258 . S
C33 O26 1.266 . S
Co34 O37 1.970 . S
Co34 N51 1.989 . S
Co34 O59 1.967 . S
Co34 O66 1.920 . S
Co35 O38 1.966 . S
Co35 N44 2.022 1_556 S
Co35 N52 1.993 . S
Co35 O60 1.941 . S
C36 O37 1.258 . S
C36 O38 1.263 . S
O37 Co34 1.970 . S
O37 C36 1.258 . S
O38 Co35 1.966 . S
O38 C36 1.263 . S
C39 O40 1.235 . S
C39 O66 1.289 . S
O40 C39 1.235 . S
C41 C43 1.400 . S
C41 N44 1.351 . S
C41 C46 1.501 . S
C42 C43 1.387 . S
C42 N45 1.341 . S
C43 C41 1.400 . S
C43 C42 1.387 . S
N44 Co35 2.022 1_554 S
N44 C41 1.351 . S
N44 N45 1.365 . S
N45 C42 1.341 . S
N45 N44 1.365 . S
N45 H65 0.862 . S
C46 C41 1.501 . S
C46 H47 0.961 . S
C46 H48 0.961 . S
C46 H49 0.960 . S
H47 C46 0.961 . S
H48 C46 0.961 . S
H49 C46 0.960 . S
C50 N51 1.342 . S
C50 C54 1.401 . S
C50 C55 1.499 . S
N51 Co34 1.989 . S
N51 C50 1.342 . S
N51 N52 1.388 . S
N52 Co35 1.993 . S
N52 N51 1.388 . S
N52 C53 1.346 . S
C53 N52 1.346 . S
C53 C54 1.396 . S
C53 C63 1.510 . S
C54 C50 1.401 . S
C54 C53 1.396 . S
C55 C50 1.499 . S
C55 H56 0.959 . S
C55 H57 0.960 . S
C55 H58 0.961 . S
H56 C55 0.959 . S
H57 C55 0.960 . S
H58 C55 0.961 . S
O59 Co34 1.967 . S
O59 C67 1.258 . S
O60 Co35 1.941 . S
O60 C67 1.266 . S
H61 C63 0.959 1_554 S
H62 C63 0.961 1_554 S
C63 C53 1.510 . S
C63 H61 0.959 1_556 S
C63 H62 0.961 1_556 S
C63 H64 0.960 1_556 S
H64 C63 0.960 1_554 S
H65 N45 0.862 . S
O66 Co34 1.920 . S
O66 C39 1.289 . S
C67 O59 1.258 . S
C67 O60 1.266 . S
Co68 O71 1.970 . S
Co68 N85 1.989 . S
Co68 O93 1.967 . S
Co68 O100 1.920 . S
Co69 O72 1.966 . S
Co69 N78 2.022 . S
Co69 N86 1.993 . S
Co69 O94 1.941 . S
C70 O71 1.258 . S
C70 O72 1.263 . S
O71 Co68 1.970 . S
O71 C70 1.258 . S
O72 Co69 1.966 . S
O72 C70 1.263 . S
C73 O74 1.235 . S
C73 O100 1.289 . S
O74 C73 1.235 . S
C75 C77 1.400 . S
C75 N78 1.351 . S
C75 C80 1.501 . S
C76 C77 1.387 . S
C76 N79 1.341 . S
C77 C75 1.400 . S
C77 C76 1.387 . S
N78 Co69 2.022 . S
N78 C75 1.351 . S
N78 N79 1.365 . S
N79 C76 1.341 . S
N79 N78 1.365 . S
N79 H99 0.862 . S
C80 C75 1.501 . S
C80 H81 0.961 . S
C80 H82 0.961 . S
C80 H83 0.960 . S
H81 C80 0.961 . S
H82 C80 0.961 . S
H83 C80 0.960 . S
C84 N85 1.342 . S
C84 C88 1.401 . S
C84 C89 1.499 . S
N85 Co68 1.989 . S
N85 C84 1.342 . S
N85 N86 1.388 . S
N86 Co69 1.993 . S
N86 N85 1.388 . S
N86 C87 1.346 . S
C87 N86 1.346 . S
C87 C88 1.396 . S
C87 C97 1.510 . S
C88 C84 1.401 . S
C88 C87 1.396 . S
C89 C84 1.499 . S
C89 H90 0.959 . S
C89 H91 0.960 . S
C89 H92 0.961 . S
H90 C89 0.959 . S
H91 C89 0.960 . S
H92 C89 0.961 . S
O93 Co68 1.967 . S
O93 C101 1.258 . S
O94 Co69 1.941 . S
O94 C101 1.266 . S
H95 C97 0.959 . S
H96 C97 0.961 . S
C97 C87 1.510 . S
C97 H95 0.959 . S
C97 H96 0.961 . S
C97 H98 0.960 . S
H98 C97 0.960 . S
H99 N79 0.862 . S
O100 Co68 1.920 . S
O100 C73 1.289 . S
C101 O93 1.258 . S
C101 O94 1.266 . S
Co102 O105 1.970 . S
Co102 N119 1.989 . S
Co102 O127 1.967 . S
Co102 O134 1.920 . S
Co103 O106 1.966 . S
Co103 N112 2.022 1_556 S
Co103 N120 1.993 . S
Co103 O128 1.941 . S
C104 O105 1.258 . S
C104 O106 1.263 . S
O105 Co102 1.970 . S
O105 C104 1.258 . S
O106 Co103 1.966 . S
O106 C104 1.263 . S
C107 O108 1.235 . S
C107 O134 1.289 . S
O108 C107 1.235 . S
C109 C111 1.400 . S
C109 N112 1.351 . S
C109 C114 1.501 . S
C110 C111 1.387 . S
C110 N113 1.341 . S
C111 C109 1.400 . S
C111 C110 1.387 . S
N112 Co103 2.022 1_554 S
N112 C109 1.351 . S
N112 N113 1.365 . S
N113 C110 1.341 . S
N113 N112 1.365 . S
N113 H133 0.862 . S
C114 C109 1.501 . S
C114 H115 0.961 . S
C114 H116 0.961 . S
C114 H117 0.960 . S
H115 C114 0.961 . S
H116 C114 0.961 . S
H117 C114 0.960 . S
C118 N119 1.342 . S
C118 C122 1.401 . S
C118 C123 1.499 . S
N119 Co102 1.989 . S
N119 C118 1.342 . S
N119 N120 1.388 . S
N120 Co103 1.993 . S
N120 N119 1.388 . S
N120 C121 1.346 . S
C121 N120 1.346 . S
C121 C122 1.396 . S
C121 C131 1.510 . S
C122 C118 1.401 . S
C122 C121 1.396 . S
C123 C118 1.499 . S
C123 H124 0.959 . S
C123 H125 0.960 . S
C123 H126 0.961 . S
H124 C123 0.959 . S
H125 C123 0.960 . S
H126 C123 0.961 . S
O127 Co102 1.967 . S
O127 C135 1.258 . S
O128 Co103 1.941 . S
O128 C135 1.266 . S
H129 C131 0.959 1_554 S
H130 C131 0.961 1_554 S
C131 C121 1.510 . S
C131 H129 0.959 1_556 S
C131 H130 0.961 1_556 S
C131 H132 0.960 1_556 S
H132 C131 0.960 1_554 S
H133 N113 0.862 . S
O134 Co102 1.920 . S
O134 C107 1.289 . S
C135 O127 1.258 . S
C135 O128 1.266 . S
Co136 O139 1.970 . S
Co136 N153 1.989 . S
Co136 O161 1.967 . S
Co136 O168 1.920 . S
Co137 O140 1.966 . S
Co137 N146 2.022 . S
Co137 N154 1.993 . S
Co137 O162 1.941 . S
C138 O139 1.258 . S
C138 O140 1.263 . S
O139 Co136 1.970 . S
O139 C138 1.258 . S
O140 Co137 1.966 . S
O140 C138 1.263 . S
C141 O142 1.235 . S
C141 O168 1.289 . S
O142 C141 1.235 . S
C143 C145 1.400 . S
C143 N146 1.351 . S
C143 C148 1.501 . S
C144 C145 1.387 . S
C144 N147 1.341 . S
C145 C143 1.400 . S
C145 C144 1.387 . S
N146 Co137 2.022 . S
N146 C143 1.351 . S
N146 N147 1.365 . S
N147 C144 1.341 . S
N147 N146 1.365 . S
N147 H167 0.862 . S
C148 C143 1.501 . S
C148 H149 0.961 . S
C148 H150 0.961 . S
C148 H151 0.960 . S
H149 C148 0.961 . S
H150 C148 0.961 . S
H151 C148 0.960 . S
C152 N153 1.342 . S
C152 C156 1.401 . S
C152 C157 1.499 . S
N153 Co136 1.989 . S
N153 C152 1.342 . S
N153 N154 1.388 . S
N154 Co137 1.993 . S
N154 N153 1.388 . S
N154 C155 1.346 . S
C155 N154 1.346 . S
C155 C156 1.396 . S
C155 C165 1.510 . S
C156 C152 1.401 . S
C156 C155 1.396 . S
C157 C152 1.499 . S
C157 H158 0.959 . S
C157 H159 0.960 . S
C157 H160 0.961 . S
H158 C157 0.959 . S
H159 C157 0.960 . S
H160 C157 0.961 . S
O161 Co136 1.967 . S
O161 C169 1.258 . S
O162 Co137 1.941 . S
O162 C169 1.266 . S
H163 C165 0.959 . S
H164 C165 0.961 . S
C165 C155 1.510 . S
C165 H163 0.959 . S
C165 H164 0.961 . S
C165 H166 0.960 . S
H166 C165 0.960 . S
H167 N147 0.862 . S
O168 Co136 1.920 . S
O168 C141 1.289 . S
C169 O161 1.258 . S
C169 O162 1.266 . S
Co170 O173 1.970 . S
Co170 N187 1.989 . S
Co170 O195 1.967 . S
Co170 O202 1.920 . S
Co171 O174 1.966 . S
Co171 N180 2.022 1_556 S
Co171 N188 1.993 . S
Co171 O196 1.941 . S
C172 O173 1.258 . S
C172 O174 1.263 . S
O173 Co170 1.970 . S
O173 C172 1.258 . S
O174 Co171 1.966 . S
O174 C172 1.263 . S
C175 O176 1.235 . S
C175 O202 1.289 . S
O176 C175 1.235 . S
C177 C179 1.400 . S
C177 N180 1.351 . S
C177 C182 1.501 . S
C178 C179 1.387 . S
C178 N181 1.341 . S
C179 C177 1.400 . S
C179 C178 1.387 . S
N180 Co171 2.022 1_554 S
N180 C177 1.351 . S
N180 N181 1.365 . S
N181 C178 1.341 . S
N181 N180 1.365 . S
N181 H201 0.862 . S
C182 C177 1.501 . S
C182 H183 0.961 . S
C182 H184 0.961 . S
C182 H185 0.960 . S
H183 C182 0.961 . S
H184 C182 0.961 . S
H185 C182 0.960 . S
C186 N187 1.342 . S
C186 C190 1.401 . S
C186 C191 1.499 . S
N187 Co170 1.989 . S
N187 C186 1.342 . S
N187 N188 1.388 . S
N188 Co171 1.993 . S
N188 N187 1.388 . S
N188 C189 1.346 . S
C189 N188 1.346 . S
C189 C190 1.396 . S
C189 C199 1.510 . S
C190 C186 1.401 . S
C190 C189 1.396 . S
C191 C186 1.499 . S
C191 H192 0.959 . S
C191 H193 0.960 . S
C191 H194 0.961 . S
H192 C191 0.959 . S
H193 C191 0.960 . S
H194 C191 0.961 . S
O195 Co170 1.967 . S
O195 C203 1.258 . S
O196 Co171 1.941 . S
O196 C203 1.266 . S
H197 C199 0.959 1_554 S
H198 C199 0.961 1_554 S
C199 C189 1.510 . S
C199 H197 0.959 1_556 S
C199 H198 0.961 1_556 S
C199 H200 0.960 1_556 S
H200 C199 0.960 1_554 S
H201 N181 0.862 . S
O202 Co170 1.920 . S
O202 C175 1.289 . S
C203 O195 1.258 . S
C203 O196 1.266 . S
Co204 O207 1.970 . S
Co204 N221 1.989 . S
Co204 O229 1.967 . S
Co204 O236 1.920 . S
Co205 O208 1.966 . S
Co205 N214 2.022 1_554 S
Co205 N222 1.993 . S
Co205 O230 1.941 . S
C206 O207 1.258 . S
C206 O208 1.263 . S
O207 Co204 1.970 . S
O207 C206 1.258 . S
O208 Co205 1.966 . S
O208 C206 1.263 . S
C209 O210 1.235 . S
C209 O236 1.289 . S
O210 C209 1.235 . S
C211 C213 1.400 . S
C211 N214 1.351 . S
C211 C216 1.501 . S
C212 C213 1.387 . S
C212 N215 1.341 . S
C213 C211 1.400 . S
C213 C212 1.387 . S
N214 Co205 2.022 1_556 S
N214 C211 1.351 . S
N214 N215 1.365 . S
N215 C212 1.341 . S
N215 N214 1.365 . S
N215 H235 0.862 . S
C216 C211 1.501 . S
C216 H217 0.961 . S
C216 H218 0.961 . S
C216 H219 0.960 . S
H217 C216 0.961 . S
H218 C216 0.961 . S
H219 C216 0.960 . S
C220 N221 1.342 . S
C220 C224 1.401 . S
C220 C225 1.499 . S
N221 Co204 1.989 . S
N221 C220 1.342 . S
N221 N222 1.388 . S
N222 Co205 1.993 . S
N222 N221 1.388 . S
N222 C223 1.346 . S
C223 N222 1.346 . S
C223 C224 1.396 . S
C223 C233 1.510 . S
C224 C220 1.401 . S
C224 C223 1.396 . S
C225 C220 1.499 . S
C225 H226 0.959 . S
C225 H227 0.960 . S
C225 H228 0.961 . S
H226 C225 0.959 . S
H227 C225 0.960 . S
H228 C225 0.961 . S
O229 Co204 1.967 . S
O229 C237 1.258 . S
O230 Co205 1.941 . S
O230 C237 1.266 . S
H231 C233 0.959 1_556 S
H232 C233 0.961 1_556 S
C233 C223 1.510 . S
C233 H231 0.959 1_554 S
C233 H232 0.961 1_554 S
C233 H234 0.960 1_554 S
H234 C233 0.960 1_556 S
H235 N215 0.862 . S
O236 Co204 1.920 . S
O236 C209 1.289 . S
C237 O229 1.258 . S
C237 O230 1.266 . S
Co238 O241 1.970 . S
Co238 N255 1.989 . S
Co238 O263 1.967 . S
Co238 O270 1.920 . S
Co239 O242 1.966 . S
Co239 N248 2.022 . S
Co239 N256 1.993 . S
Co239 O264 1.941 . S
C240 O241 1.258 . S
C240 O242 1.263 . S
O241 Co238 1.970 . S
O241 C240 1.258 . S
O242 Co239 1.966 . S
O242 C240 1.263 . S
C243 O244 1.235 . S
C243 O270 1.289 . S
O244 C243 1.235 . S
C245 C247 1.400 . S
C245 N248 1.351 . S
C245 C250 1.501 . S
C246 C247 1.387 . S
C246 N249 1.341 . S
C247 C245 1.400 . S
C247 C246 1.387 . S
N248 Co239 2.022 . S
N248 C245 1.351 . S
N248 N249 1.365 . S
N249 C246 1.341 . S
N249 N248 1.365 . S
N249 H269 0.862 . S
C250 C245 1.501 . S
C250 H251 0.961 . S
C250 H252 0.961 . S
C250 H253 0.960 . S
H251 C250 0.961 . S
H252 C250 0.961 . S
H253 C250 0.960 . S
C254 N255 1.342 . S
C254 C258 1.401 . S
C254 C259 1.499 . S
N255 Co238 1.989 . S
N255 C254 1.342 . S
N255 N256 1.388 . S
N256 Co239 1.993 . S
N256 N255 1.388 . S
N256 C257 1.346 . S
C257 N256 1.346 . S
C257 C258 1.396 . S
C257 C267 1.510 . S
C258 C254 1.401 . S
C258 C257 1.396 . S
C259 C254 1.499 . S
C259 H260 0.959 . S
C259 H261 0.960 . S
C259 H262 0.961 . S
H260 C259 0.959 . S
H261 C259 0.960 . S
H262 C259 0.961 . S
O263 Co238 1.967 . S
O263 C271 1.258 . S
O264 Co239 1.941 . S
O264 C271 1.266 . S
H265 C267 0.959 . S
H266 C267 0.961 . S
C267 C257 1.510 . S
C267 H265 0.959 . S
C267 H266 0.961 . S
C267 H268 0.960 . S
H268 C267 0.960 . S
H269 N249 0.862 . S
O270 Co238 1.920 . S
O270 C243 1.289 . S
C271 O263 1.258 . S
C271 O264 1.266 . S
Co272 O275 1.970 . S
Co272 N289 1.989 . S
Co272 O297 1.967 . S
Co272 O304 1.920 . S
Co273 O276 1.966 . S
Co273 N282 2.022 1_554 S
Co273 N290 1.993 . S
Co273 O298 1.941 . S
C274 O275 1.258 . S
C274 O276 1.263 . S
O275 Co272 1.970 . S
O275 C274 1.258 . S
O276 Co273 1.966 . S
O276 C274 1.263 . S
C277 O278 1.235 . S
C277 O304 1.289 . S
O278 C277 1.235 . S
C279 C281 1.400 . S
C279 N282 1.351 . S
C279 C284 1.501 . S
C280 C281 1.387 . S
C280 N283 1.341 . S
C281 C279 1.400 . S
C281 C280 1.387 . S
N282 Co273 2.022 1_556 S
N282 C279 1.351 . S
N282 N283 1.365 . S
N283 C280 1.341 . S
N283 N282 1.365 . S
N283 H303 0.862 . S
C284 C279 1.501 . S
C284 H285 0.961 . S
C284 H286 0.961 . S
C284 H287 0.960 . S
H285 C284 0.961 . S
H286 C284 0.961 . S
H287 C284 0.960 . S
C288 N289 1.342 . S
C288 C292 1.401 . S
C288 C293 1.499 . S
N289 Co272 1.989 . S
N289 C288 1.342 . S
N289 N290 1.388 . S
N290 Co273 1.993 . S
N290 N289 1.388 . S
N290 C291 1.346 . S
C291 N290 1.346 . S
C291 C292 1.396 . S
C291 C301 1.510 . S
C292 C288 1.401 . S
C292 C291 1.396 . S
C293 C288 1.499 . S
C293 H294 0.959 . S
C293 H295 0.960 . S
C293 H296 0.961 . S
H294 C293 0.959 . S
H295 C293 0.960 . S
H296 C293 0.961 . S
O297 Co272 1.967 . S
O297 C305 1.258 . S
O298 Co273 1.941 . S
O298 C305 1.266 . S
H299 C301 0.959 1_556 S
H300 C301 0.961 1_556 S
C301 C291 1.510 . S
C301 H299 0.959 1_554 S
C301 H300 0.961 1_554 S
C301 H302 0.960 1_554 S
H302 C301 0.960 1_556 S
H303 N283 0.862 . S
O304 Co272 1.920 . S
O304 C277 1.289 . S
C305 O297 1.258 . S
C305 O298 1.266 . S
Co306 O309 1.970 . S
Co306 N323 1.989 . S
Co306 O331 1.967 . S
Co306 O338 1.920 . S
Co307 O310 1.966 . S
Co307 N316 2.022 . S
Co307 N324 1.993 . S
Co307 O332 1.941 . S
C308 O309 1.258 . S
C308 O310 1.263 . S
O309 Co306 1.970 . S
O309 C308 1.258 . S
O310 Co307 1.966 . S
O310 C308 1.263 . S
C311 O312 1.235 . S
C311 O338 1.289 . S
O312 C311 1.235 . S
C313 C315 1.400 . S
C313 N316 1.351 . S
C313 C318 1.501 . S
C314 C315 1.387 . S
C314 N317 1.341 . S
C315 C313 1.400 . S
C315 C314 1.387 . S
N316 Co307 2.022 . S
N316 C313 1.351 . S
N316 N317 1.365 . S
N317 C314 1.341 . S
N317 N316 1.365 . S
N317 H337 0.862 . S
C318 C313 1.501 . S
C318 H319 0.961 . S
C318 H320 0.961 . S
C318 H321 0.960 . S
H319 C318 0.961 . S
H320 C318 0.961 . S
H321 C318 0.960 . S
C322 N323 1.342 . S
C322 C326 1.401 . S
C322 C327 1.499 . S
N323 Co306 1.989 . S
N323 C322 1.342 . S
N323 N324 1.388 . S
N324 Co307 1.993 . S
N324 N323 1.388 . S
N324 C325 1.346 . S
C325 N324 1.346 . S
C325 C326 1.396 . S
C325 C335 1.510 . S
C326 C322 1.401 . S
C326 C325 1.396 . S
C327 C322 1.499 . S
C327 H328 0.959 . S
C327 H329 0.960 . S
C327 H330 0.961 . S
H328 C327 0.959 . S
H329 C327 0.960 . S
H330 C327 0.961 . S
O331 Co306 1.967 . S
O331 C339 1.258 . S
O332 Co307 1.941 . S
O332 C339 1.266 . S
H333 C335 0.959 . S
H334 C335 0.961 . S
C335 C325 1.510 . S
C335 H333 0.959 . S
C335 H334 0.961 . S
C335 H336 0.960 . S
H336 C335 0.960 . S
H337 N317 0.862 . S
O338 Co306 1.920 . S
O338 C311 1.289 . S
C339 O331 1.258 . S
C339 O332 1.266 . S
Co340 O343 1.970 . S
Co340 N357 1.989 . S
Co340 O365 1.967 . S
Co340 O372 1.920 . S
Co341 O344 1.966 . S
Co341 N350 2.022 1_554 S
Co341 N358 1.993 . S
Co341 O366 1.941 . S
C342 O343 1.258 . S
C342 O344 1.263 . S
O343 Co340 1.970 . S
O343 C342 1.258 . S
O344 Co341 1.966 . S
O344 C342 1.263 . S
C345 O346 1.235 . S
C345 O372 1.289 . S
O346 C345 1.235 . S
C347 C349 1.400 . S
C347 N350 1.351 . S
C347 C352 1.501 . S
C348 C349 1.387 . S
C348 N351 1.341 . S
C349 C347 1.400 . S
C349 C348 1.387 . S
N350 Co341 2.022 1_556 S
N350 C347 1.351 . S
N350 N351 1.365 . S
N351 C348 1.341 . S
N351 N350 1.365 . S
N351 H371 0.862 . S
C352 C347 1.501 . S
C352 H353 0.961 . S
C352 H354 0.961 . S
C352 H355 0.960 . S
H353 C352 0.961 . S
H354 C352 0.961 . S
H355 C352 0.960 . S
C356 N357 1.342 . S
C356 C360 1.401 . S
C356 C361 1.499 . S
N357 Co340 1.989 . S
N357 C356 1.342 . S
N357 N358 1.388 . S
N358 Co341 1.993 . S
N358 N357 1.388 . S
N358 C359 1.346 . S
C359 N358 1.346 . S
C359 C360 1.396 . S
C359 C369 1.510 . S
C360 C356 1.401 . S
C360 C359 1.396 . S
C361 C356 1.499 . S
C361 H362 0.959 . S
C361 H363 0.960 . S
C361 H364 0.961 . S
H362 C361 0.959 . S
H363 C361 0.960 . S
H364 C361 0.961 . S
O365 Co340 1.967 . S
O365 C373 1.258 . S
O366 Co341 1.941 . S
O366 C373 1.266 . S
H367 C369 0.959 1_556 S
H368 C369 0.961 1_556 S
C369 C359 1.510 . S
C369 H367 0.959 1_554 S
C369 H368 0.961 1_554 S
C369 H370 0.960 1_554 S
H370 C369 0.960 1_556 S
H371 N351 0.862 . S
O372 Co340 1.920 . S
O372 C345 1.289 . S
C373 O365 1.258 . S
C373 O366 1.266 . S
Co374 O377 1.970 . S
Co374 N391 1.989 . S
Co374 O399 1.967 . S
Co374 O406 1.920 . S
Co375 O378 1.966 . S
Co375 N384 2.022 . S
Co375 N392 1.993 . S
Co375 O400 1.941 . S
C376 O377 1.258 . S
C376 O378 1.263 . S
O377 Co374 1.970 . S
O377 C376 1.258 . S
O378 Co375 1.966 . S
O378 C376 1.263 . S
C379 O380 1.235 . S
C379 O406 1.289 . S
O380 C379 1.235 . S
C381 C383 1.400 . S
C381 N384 1.351 . S
C381 C386 1.501 . S
C382 C383 1.387 . S
C382 N385 1.341 . S
C383 C381 1.400 . S
C383 C382 1.387 . S
N384 Co375 2.022 . S
N384 C381 1.351 . S
N384 N385 1.365 . S
N385 C382 1.341 . S
N385 N384 1.365 . S
N385 H405 0.862 . S
C386 C381 1.501 . S
C386 H387 0.961 . S
C386 H388 0.961 . S
C386 H389 0.960 . S
H387 C386 0.961 . S
H388 C386 0.961 . S
H389 C386 0.960 . S
C390 N391 1.342 . S
C390 C394 1.401 . S
C390 C395 1.499 . S
N391 Co374 1.989 . S
N391 C390 1.342 . S
N391 N392 1.388 . S
N392 Co375 1.993 . S
N392 N391 1.388 . S
N392 C393 1.346 . S
C393 N392 1.346 . S
C393 C394 1.396 . S
C393 C403 1.510 . S
C394 C390 1.401 . S
C394 C393 1.396 . S
C395 C390 1.499 . S
C395 H396 0.959 . S
C395 H397 0.960 . S
C395 H398 0.961 . S
H396 C395 0.959 . S
H397 C395 0.960 . S
H398 C395 0.961 . S
O399 Co374 1.967 . S
O399 C407 1.258 . S
O400 Co375 1.941 . S
O400 C407 1.266 . S
H401 C403 0.959 . S
H402 C403 0.961 . S
C403 C393 1.510 . S
C403 H401 0.959 . S
C403 H402 0.961 . S
C403 H404 0.960 . S
H404 C403 0.960 . S
H405 N385 0.862 . S
O406 Co374 1.920 . S
O406 C379 1.289 . S
C407 O399 1.258 . S
C407 O400 1.266 . S
C408 C409 1.363 . S
C408 C414 1.379 . S
C408 N416 1.356 . S
C409 C408 1.363 . S
C409 C415 1.363 1_455 S
C410 C411 1.363 . S
C410 C415 1.379 . S
C410 N417 1.356 . S
C411 C410 1.363 . S
C411 C414 1.363 1_655 S
N412 C414 1.356 . S
N412 H424 0.984 . S
N412 H425 0.985 1_455 S
N413 C415 1.356 . S
N413 H418 0.984 1_655 S
N413 H419 0.985 . S
C414 C408 1.379 . S
C414 C411 1.363 1_455 S
C414 N412 1.356 . S
C415 C409 1.363 1_655 S
C415 C410 1.379 . S
C415 N413 1.356 . S
N416 C408 1.356 . S
N416 H422 0.984 . S
N416 H423 0.984 . S
N417 C410 1.356 . S
N417 H420 0.984 . S
N417 H421 0.985 . S
H418 N413 0.984 1_455 S
H419 N413 0.985 . S
H420 N417 0.984 . S
H421 N417 0.985 . S
H422 N416 0.984 . S
H423 N416 0.984 . S
H424 N412 0.984 . S
H425 N412 0.985 1_655 S
C426 C427 1.363 1_565 S
C426 C432 1.379 . S
C426 N434 1.363 . S
C427 C426 1.363 1_545 S
C427 C433 1.363 1_556 S
C428 C429 1.363 1_545 S
C428 C433 1.379 . S
C428 N435 1.362 . S
C429 C428 1.363 1_565 S
C429 C432 1.363 1_554 S
N430 C432 1.356 . S
N430 H442 0.984 . S
N430 H443 0.985 1_556 S
N431 C433 1.356 . S
N431 H436 0.984 1_554 S
N431 H437 0.985 . S
C432 C426 1.379 . S
C432 C429 1.363 1_556 S
C432 N430 1.356 . S
C433 C427 1.363 1_554 S
C433 C428 1.379 . S
C433 N431 1.356 . S
N434 C426 1.363 . S
N434 H440 0.993 . S
N434 H441 0.970 1_565 S
N435 C428 1.362 . S
N435 H438 0.970 1_545 S
N435 H439 0.993 . S
H436 N431 0.984 1_556 S
H437 N431 0.985 . S
H438 N435 0.970 1_565 S
H439 N435 0.993 . S
H440 N434 0.993 . S
H441 N434 0.970 1_545 S
H442 N430 0.984 . S
H443 N430 0.985 1_554 S
C444 C445 1.363 . S
C444 C450 1.379 . S
C444 N452 1.356 . S
C445 C444 1.363 . S
C445 C451 1.363 . S
C446 C447 1.363 . S
C446 C451 1.379 . S
C446 N453 1.356 . S
C447 C446 1.363 . S
C447 C450 1.363 . S
N448 C450 1.356 . S
N448 H460 0.984 . S
N448 H461 0.985 . S
N449 C451 1.356 . S
N449 H454 0.984 . S
N449 H455 0.985 . S
C450 C444 1.379 . S
C450 C447 1.363 . S
C450 N448 1.356 . S
C451 C445 1.363 . S
C451 C446 1.379 . S
C451 N449 1.356 . S
N452 C444 1.356 . S
N452 H458 0.984 . S
N452 H459 0.984 . S
N453 C446 1.356 . S
N453 H456 0.984 . S
N453 H457 0.985 . S
H454 N449 0.984 . S
H455 N449 0.985 . S
H456 N453 0.984 . S
H457 N453 0.985 . S
H458 N452 0.984 . S
H459 N452 0.984 . S
H460 N448 0.984 . S
H461 N448 0.985 . S
C462 C463 1.363 . S
C462 C468 1.379 1_454 S
C462 N470 1.356 . S
C463 C462 1.363 . S
C463 C469 1.363 . S
C464 C465 1.363 . S
C464 C469 1.379 1_656 S
C464 N471 1.356 . S
C465 C464 1.363 . S
C465 C468 1.363 . S
N466 C468 1.356 . S
N466 H478 0.984 . S
N466 H479 0.985 . S
N467 C469 1.356 . S
N467 H472 0.984 . S
N467 H473 0.985 . S
C468 C462 1.379 1_656 S
C468 C465 1.363 . S
C468 N466 1.356 . S
C469 C463 1.363 . S
C469 C464 1.379 1_454 S
C469 N467 1.356 . S
N470 C462 1.356 . S
N470 H476 0.984 . S
N470 H477 0.984 . S
N471 C464 1.356 . S
N471 H474 0.984 . S
N471 H475 0.985 . S
H472 N467 0.984 . S
H473 N467 0.985 . S
H474 N471 0.984 . S
H475 N471 0.985 . S
H476 N470 0.984 . S
H477 N470 0.984 . S
H478 N466 0.984 . S
H479 N466 0.985 . S
C480 C481 1.363 . S
C480 C486 1.379 1_545 S
C480 N488 1.356 . S
C481 C480 1.363 . S
C481 C487 1.363 . S
C482 C483 1.363 . S
C482 C487 1.379 1_565 S
C482 N489 1.356 . S
C483 C482 1.363 . S
C483 C486 1.363 . S
N484 C486 1.356 . S
N484 H496 0.984 1_565 S
N484 H497 0.985 . S
N485 C487 1.356 . S
N485 H490 0.984 . S
N485 H491 0.985 1_545 S
C486 C480 1.379 1_565 S
C486 C483 1.363 . S
C486 N484 1.356 . S
C487 C481 1.363 . S
C487 C482 1.379 1_545 S
C487 N485 1.356 . S
N488 C480 1.356 . S
N488 H494 0.984 . S
N488 H495 0.984 . S
N489 C482 1.356 . S
N489 H492 0.984 . S
N489 H493 0.985 . S
H490 N485 0.984 . S
H491 N485 0.985 1_565 S
H492 N489 0.984 . S
H493 N489 0.985 . S
H494 N488 0.984 . S
H495 N488 0.984 . S
H496 N484 0.984 1_545 S
H497 N484 0.985 . S
C498 C499 1.363 1_554 S
C498 C504 1.379 . S
C498 N506 1.356 . S
C499 C498 1.363 1_556 S
C499 C505 1.363 . S
C500 C501 1.363 1_556 S
C500 C505 1.379 . S
C500 N507 1.356 . S
C501 C500 1.363 1_554 S
C501 C504 1.363 . S
N502 C504 1.356 . S
N502 H514 0.984 . S
N502 H515 0.985 . S
N503 C505 1.356 . S
N503 H508 0.984 . S
N503 H509 0.985 . S
C504 C498 1.379 . S
C504 C501 1.363 . S
C504 N502 1.356 . S
C505 C499 1.363 . S
C505 C500 1.379 . S
C505 N503 1.356 . S
N506 C498 1.356 . S
N506 H512 0.984 . S
N506 H513 0.984 1_554 S
N507 C500 1.356 . S
N507 H510 0.984 1_556 S
N507 H511 0.985 . S
H508 N503 0.984 . S
H509 N503 0.985 . S
H510 N507 0.984 1_554 S
H511 N507 0.985 . S
H512 N506 0.984 . S
H513 N506 0.984 1_556 S
H514 N502 0.984 . S
H515 N502 0.985 . S
C516 C517 1.363 . S
C516 C522 1.379 . S
C516 N524 1.356 . S
C517 C516 1.363 . S
C517 C523 1.363 . S
C518 C519 1.363 . S
C518 C523 1.379 . S
C518 N525 1.356 . S
C519 C518 1.363 . S
C519 C522 1.363 . S
N520 C522 1.356 . S
N520 H532 0.984 . S
N520 H533 0.985 . S
N521 C523 1.356 . S
N521 H526 0.984 . S
N521 H527 0.985 . S
C522 C516 1.379 . S
C522 C519 1.363 . S
C522 N520 1.356 . S
C523 C517 1.363 . S
C523 C518 1.379 . S
C523 N521 1.356 . S
N524 C516 1.356 . S
N524 H530 0.984 . S
N524 H531 0.984 . S
N525 C518 1.356 . S
N525 H528 0.984 . S
N525 H529 0.985 . S
H526 N521 0.984 . S
H527 N521 0.985 . S
H528 N525 0.984 . S
H529 N525 0.985 . S
H530 N524 0.984 . S
H531 N524 0.984 . S
H532 N520 0.984 . S
H533 N520 0.985 . S
C534 C535 1.363 . S
C534 C540 1.379 . S
C534 N542 1.356 . S
C535 C534 1.363 . S
C535 C541 1.363 . S
C536 C537 1.363 . S
C536 C541 1.379 . S
C536 N543 1.356 . S
C537 C536 1.363 . S
C537 C540 1.363 . S
N538 C540 1.356 . S
N538 H550 0.984 . S
N538 H551 0.985 . S
N539 C541 1.356 . S
N539 H544 0.984 . S
N539 H545 0.985 . S
C540 C534 1.379 . S
C540 C537 1.363 . S
C540 N538 1.356 . S
C541 C535 1.363 . S
C541 C536 1.379 . S
C541 N539 1.356 . S
N542 C534 1.356 . S
N542 H548 0.984 . S
N542 H549 0.984 . S
N543 C536 1.356 . S
N543 H546 0.984 . S
N543 H547 0.985 . S
H544 N539 0.984 . S
H545 N539 0.985 . S
H546 N543 0.984 . S
H547 N543 0.985 . S
H548 N542 0.984 . S
H549 N542 0.984 . S
H550 N538 0.984 . S
H551 N538 0.985 . S
C552 C553 1.363 . S
C552 C558 1.379 . S
C552 N560 1.356 . S
C553 C552 1.363 . S
C553 C559 1.363 . S
C554 C555 1.363 . S
C554 C559 1.379 . S
C554 N561 1.356 . S
C555 C554 1.363 . S
C555 C558 1.363 . S
N556 C558 1.356 . S
N556 H568 0.984 . S
N556 H569 0.985 . S
N557 C559 1.356 . S
N557 H562 0.984 . S
N557 H563 0.985 . S
C558 C552 1.379 . S
C558 C555 1.363 . S
C558 N556 1.356 . S
C559 C553 1.363 . S
C559 C554 1.379 . S
C559 N557 1.356 . S
N560 C552 1.356 . S
N560 H566 0.984 . S
N560 H567 0.984 . S
N561 C554 1.356 . S
N561 H564 0.984 . S
N561 H565 0.985 . S
H562 N557 0.984 . S
H563 N557 0.985 . S
H564 N561 0.984 . S
H565 N561 0.985 . S
H566 N560 0.984 . S
H567 N560 0.984 . S
H568 N556 0.984 . S
H569 N556 0.985 . S
C570 C571 1.363 . S
C570 C576 1.379 . S
C570 N578 1.356 . S
C571 C570 1.363 . S
C571 C577 1.363 . S
C572 C573 1.363 . S
C572 C577 1.379 . S
C572 N579 1.356 . S
C573 C572 1.363 . S
C573 C576 1.363 . S
N574 C576 1.356 . S
N574 H586 0.984 . S
N574 H587 0.985 . S
N575 C577 1.356 . S
N575 H580 0.984 . S
N575 H581 0.985 . S
C576 C570 1.379 . S
C576 C573 1.363 . S
C576 N574 1.356 . S
C577 C571 1.363 . S
C577 C572 1.379 . S
C577 N575 1.356 . S
N578 C570 1.356 . S
N578 H584 0.984 . S
N578 H585 0.984 . S
N579 C572 1.356 . S
N579 H582 0.984 . S
N579 H583 0.985 . S
H580 N575 0.984 . S
H581 N575 0.985 . S
H582 N579 0.984 . S
H583 N579 0.985 . S
H584 N578 0.984 . S
H585 N578 0.984 . S
H586 N574 0.984 . S
H587 N574 0.985 . S
C588 C589 1.363 . S
C588 C594 1.379 . S
C588 N596 1.356 . S
C589 C588 1.363 . S
C589 C595 1.363 . S
C590 C591 1.363 . S
C590 C595 1.379 . S
C590 N597 1.356 . S
C591 C590 1.363 . S
C591 C594 1.363 . S
N592 C594 1.356 . S
N592 H604 0.984 . S
N592 H605 0.985 . S
N593 C595 1.356 . S
N593 H598 0.984 . S
N593 H599 0.985 . S
C594 C588 1.379 . S
C594 C591 1.363 . S
C594 N592 1.356 . S
C595 C589 1.363 . S
C595 C590 1.379 . S
C595 N593 1.356 . S
N596 C588 1.356 . S
N596 H602 0.984 . S
N596 H603 0.984 . S
N597 C590 1.356 . S
N597 H600 0.984 . S
N597 H601 0.985 . S
H598 N593 0.984 . S
H599 N593 0.985 . S
H600 N597 0.984 . S
H601 N597 0.985 . S
H602 N596 0.984 . S
H603 N596 0.984 . S
H604 N592 0.984 . S
H605 N592 0.985 . S
C606 C607 1.363 . S
C606 C612 1.379 . S
C606 N614 1.356 . S
C607 C606 1.363 . S
C607 C613 1.363 . S
C608 C609 1.363 . S
C608 C613 1.379 . S
C608 N615 1.356 . S
C609 C608 1.363 . S
C609 C612 1.363 . S
N610 C612 1.356 . S
N610 H622 0.984 . S
N610 H623 0.985 . S
N611 C613 1.356 . S
N611 H616 0.984 . S
N611 H617 0.985 . S
C612 C606 1.379 . S
C612 C609 1.363 . S
C612 N610 1.356 . S
C613 C607 1.363 . S
C613 C608 1.379 . S
C613 N611 1.356 . S
N614 C606 1.356 . S
N614 H620 0.984 . S
N614 H621 0.984 . S
N615 C608 1.356 . S
N615 H618 0.984 . S
N615 H619 0.985 . S
H616 N611 0.984 . S
H617 N611 0.985 . S
H618 N615 0.984 . S
H619 N615 0.985 . S
H620 N614 0.984 . S
H621 N614 0.984 . S
H622 N610 0.984 . S
H623 N610 0.985 . S
C624 C625 1.363 . S
C624 C630 1.379 . S
C624 N632 1.356 . S
C625 C624 1.363 . S
C625 C631 1.363 . S
C626 C627 1.363 . S
C626 C631 1.379 . S
C626 N633 1.356 1_556 S
C627 C626 1.363 . S
C627 C630 1.363 . S
N628 C630 1.356 . S
N628 H640 0.984 . S
N628 H641 0.985 . S
N629 C631 1.356 . S
N629 H634 0.984 . S
N629 H635 0.985 . S
C630 C624 1.379 . S
C630 C627 1.363 . S
C630 N628 1.356 . S
C631 C625 1.363 . S
C631 C626 1.379 . S
C631 N629 1.356 . S
N632 C624 1.356 . S
N632 H638 0.984 . S
N632 H639 0.984 . S
N633 C626 1.356 1_554 S
N633 H636 0.984 . S
N633 H637 0.985 . S
H634 N629 0.984 . S
H635 N629 0.985 . S
H636 N633 0.984 . S
H637 N633 0.985 . S
H638 N632 0.984 . S
H639 N632 0.984 . S
H640 N628 0.984 . S
H641 N628 0.985 . S
C642 C643 1.363 . S
C642 C648 1.379 . S
C642 N650 1.356 . S
C643 C642 1.363 . S
C643 C649 1.363 . S
C644 C645 1.363 . S
C644 C649 1.379 . S
C644 N651 1.356 . S
C645 C644 1.363 . S
C645 C648 1.363 . S
N646 C648 1.356 . S
N646 H658 0.984 . S
N646 H659 0.985 . S
N647 C649 1.356 . S
N647 H652 0.984 . S
N647 H653 0.985 . S
C648 C642 1.379 . S
C648 C645 1.363 . S
C648 N646 1.356 . S
C649 C643 1.363 . S
C649 C644 1.379 . S
C649 N647 1.356 . S
N650 C642 1.356 . S
N650 H656 0.984 . S
N650 H657 0.984 . S
N651 C644 1.356 . S
N651 H654 0.984 . S
N651 H655 0.985 . S
H652 N647 0.984 . S
H653 N647 0.985 . S
H654 N651 0.984 . S
H655 N651 0.985 . S
H656 N650 0.984 . S
H657 N650 0.984 . S
H658 N646 0.984 . S
H659 N646 0.985 . S
C660 C661 1.363 . S
C660 C666 1.379 . S
C660 N668 1.356 . S
C661 C660 1.363 . S
C661 C667 1.363 . S
C662 C663 1.363 . S
C662 C667 1.379 . S
C662 N669 1.356 1_556 S
C663 C662 1.363 . S
C663 C666 1.363 . S
N664 C666 1.356 . S
N664 H676 0.984 . S
N664 H677 0.985 1_556 S
N665 C667 1.356 . S
N665 H670 0.984 . S
N665 H671 0.985 . S
C666 C660 1.379 . S
C666 C663 1.363 . S
C666 N664 1.356 . S
C667 C661 1.363 . S
C667 C662 1.379 . S
C667 N665 1.356 . S
N668 C660 1.356 . S
N668 H674 0.984 . S
N668 H675 0.984 . S
N669 C662 1.356 1_554 S
N669 H672 0.984 . S
N669 H673 0.984 1_554 S
H670 N665 0.984 . S
H671 N665 0.985 . S
H672 N669 0.984 . S
H673 N669 0.984 1_556 S
H674 N668 0.984 . S
H675 N668 0.984 . S
H676 N664 0.984 . S
H677 N664 0.985 1_554 S
C678 C679 1.363 . S
C678 C684 1.379 . S
C678 N686 1.356 . S
C679 C678 1.363 . S
C679 C685 1.363 . S
C680 C681 1.363 . S
C680 C685 1.379 . S
C680 N687 1.356 . S
C681 C680 1.363 . S
C681 C684 1.363 . S
N682 C684 1.356 . S
N682 H694 0.984 . S
N682 H695 0.985 . S
N683 C685 1.356 . S
N683 H688 0.984 . S
N683 H689 0.985 . S
C684 C678 1.379 . S
C684 C681 1.363 . S
C684 N682 1.356 . S
C685 C679 1.363 . S
C685 C680 1.379 . S
C685 N683 1.356 . S
N686 C678 1.356 . S
N686 H692 0.984 . S
N686 H693 0.984 . S
N687 C680 1.356 . S
N687 H690 0.984 . S
N687 H691 0.985 . S
H688 N683 0.984 . S
H689 N683 0.985 . S
H690 N687 0.984 . S
H691 N687 0.985 . S
H692 N686 0.984 . S
H693 N686 0.984 . S
H694 N682 0.984 . S
H695 N682 0.985 . S
C696 C697 1.363 . S
C696 C702 1.379 . S
C696 N704 1.356 . S
C697 C696 1.363 . S
C697 C703 1.363 . S
C698 C699 1.363 . S
C698 C703 1.379 . S
C698 N705 1.356 1_556 S
C699 C698 1.363 . S
C699 C702 1.363 . S
N700 C702 1.356 . S
N700 H712 0.984 . S
N700 H713 0.985 1_556 S
N701 C703 1.356 . S
N701 H706 0.984 . S
N701 H707 0.985 . S
C702 C696 1.379 . S
C702 C699 1.363 . S
C702 N700 1.356 . S
C703 C697 1.363 . S
C703 C698 1.379 . S
C703 N701 1.356 . S
N704 C696 1.356 . S
N704 H710 0.984 . S
N704 H711 0.984 . S
N705 C698 1.356 1_554 S
N705 H708 0.984 . S
N705 H709 0.985 . S
H706 N701 0.984 . S
H707 N701 0.985 . S
H708 N705 0.984 . S
H709 N705 0.985 . S
H710 N704 0.984 . S
H711 N704 0.984 . S
H712 N700 0.984 . S
H713 N700 0.985 1_554 S
C714 C715 1.363 . S
C714 C720 1.379 . S
C714 N722 1.356 . S
C715 C714 1.363 . S
C715 C721 1.363 . S
C716 C717 1.363 . S
C716 C721 1.379 . S
C716 N723 1.356 . S
C717 C716 1.363 . S
C717 C720 1.363 . S
N718 C720 1.356 . S
N718 H730 0.984 . S
N718 H731 0.985 . S
N719 C721 1.356 . S
N719 H724 0.984 . S
N719 H725 0.985 . S
C720 C714 1.379 . S
C720 C717 1.363 . S
C720 N718 1.356 . S
C721 C715 1.363 . S
C721 C716 1.379 . S
C721 N719 1.356 . S
N722 C714 1.356 . S
N722 H728 0.984 . S
N722 H729 0.984 . S
N723 C716 1.356 . S
N723 H726 0.984 . S
N723 H727 0.985 . S
H724 N719 0.984 . S
H725 N719 0.985 . S
H726 N723 0.984 . S
H727 N723 0.985 . S
H728 N722 0.984 . S
H729 N722 0.984 . S
H730 N718 0.984 . S
H731 N718 0.985 . S
C732 C733 1.363 . S
C732 C738 1.379 . S
C732 N740 1.356 . S
C733 C732 1.363 . S
C733 C739 1.363 . S
C734 C735 1.363 . S
C734 C739 1.379 . S
C734 N741 1.356 . S
C735 C734 1.363 . S
C735 C738 1.363 . S
N736 C738 1.356 . S
N736 H748 0.984 . S
N736 H749 0.985 . S
N737 C739 1.356 . S
N737 H742 0.984 . S
N737 H743 0.985 . S
C738 C732 1.379 . S
C738 C735 1.363 . S
C738 N736 1.356 . S
C739 C733 1.363 . S
C739 C734 1.379 . S
C739 N737 1.356 . S
N740 C732 1.356 . S
N740 H746 0.984 . S
N740 H747 0.984 . S
N741 C734 1.356 . S
N741 H744 0.984 . S
N741 H745 0.985 . S
H742 N737 0.984 . S
H743 N737 0.985 . S
H744 N741 0.984 . S
H745 N741 0.985 . S
H746 N740 0.984 . S
H747 N740 0.984 . S
H748 N736 0.984 . S
H749 N736 0.985 . S
C750 C751 1.363 . S
C750 C756 1.379 . S
C750 N758 1.356 . S
C751 C750 1.363 . S
C751 C757 1.363 . S
C752 C753 1.363 . S
C752 C757 1.379 . S
C752 N759 1.356 1_554 S
C753 C752 1.363 . S
C753 C756 1.363 . S
N754 C756 1.356 . S
N754 H766 0.984 . S
N754 H767 0.985 . S
N755 C757 1.356 . S
N755 H760 0.984 . S
N755 H761 0.985 . S
C756 C750 1.379 . S
C756 C753 1.363 . S
C756 N754 1.356 . S
C757 C751 1.363 . S
C757 C752 1.379 . S
C757 N755 1.356 . S
N758 C750 1.356 . S
N758 H764 0.984 . S
N758 H765 0.984 . S
N759 C752 1.356 1_556 S
N759 H762 0.984 . S
N759 H763 0.985 . S
H760 N755 0.984 . S
H761 N755 0.985 . S
H762 N759 0.984 . S
H763 N759 0.985 . S
H764 N758 0.984 . S
H765 N758 0.984 . S
H766 N754 0.984 . S
H767 N754 0.985 . S
C768 C769 1.363 . S
C768 C774 1.379 . S
C768 N776 1.356 . S
C769 C768 1.363 . S
C769 C775 1.363 . S
C770 C771 1.363 . S
C770 C775 1.379 . S
C770 N777 1.356 . S
C771 C770 1.363 . S
C771 C774 1.363 . S
N772 C774 1.356 . S
N772 H784 0.984 . S
N772 H785 0.985 . S
N773 C775 1.356 . S
N773 H778 0.984 . S
N773 H779 0.985 . S
C774 C768 1.379 . S
C774 C771 1.363 . S
C774 N772 1.356 . S
C775 C769 1.363 . S
C775 C770 1.379 . S
C775 N773 1.356 . S
N776 C768 1.356 . S
N776 H782 0.984 . S
N776 H783 0.984 . S
N777 C770 1.356 . S
N777 H780 0.984 . S
N777 H781 0.985 . S
H778 N773 0.984 . S
H779 N773 0.985 . S
H780 N777 0.984 . S
H781 N777 0.985 . S
H782 N776 0.984 . S
H783 N776 0.984 . S
H784 N772 0.984 . S
H785 N772 0.985 . S
C786 C787 1.363 . S
C786 C792 1.379 . S
C786 N794 1.356 1_554 S
C787 C786 1.363 . S
C787 C793 1.363 . S
C788 C789 1.363 . S
C788 C793 1.379 . S
C788 N795 1.356 . S
C789 C788 1.363 . S
C789 C792 1.363 . S
N790 C792 1.356 . S
N790 H802 0.984 . S
N790 H803 0.985 . S
N791 C793 1.356 . S
N791 H796 0.984 1_554 S
N791 H797 0.985 . S
C792 C786 1.379 . S
C792 C789 1.363 . S
C792 N790 1.356 . S
C793 C787 1.363 . S
C793 C788 1.379 . S
C793 N791 1.356 . S
N794 C786 1.356 1_556 S
N794 H800 0.984 1_556 S
N794 H801 0.984 . S
N795 C788 1.356 . S
N795 H798 0.984 . S
N795 H799 0.985 . S
H796 N791 0.984 1_556 S
H797 N791 0.985 . S
H798 N795 0.984 . S
H799 N795 0.985 . S
H800 N794 0.984 1_554 S
H801 N794 0.984 . S
H802 N790 0.984 . S
H803 N790 0.985 . S
C804 C805 1.363 . S
C804 C810 1.379 . S
C804 N812 1.356 . S
C805 C804 1.363 . S
C805 C811 1.363 . S
C806 C807 1.363 . S
C806 C811 1.379 . S
C806 N813 1.356 . S
C807 C806 1.363 . S
C807 C810 1.363 . S
N808 C810 1.356 . S
N808 H820 0.984 . S
N808 H821 0.985 . S
N809 C811 1.356 . S
N809 H814 0.984 . S
N809 H815 0.985 . S
C810 C804 1.379 . S
C810 C807 1.363 . S
C810 N808 1.356 . S
C811 C805 1.363 . S
C811 C806 1.379 . S
C811 N809 1.356 . S
N812 C804 1.356 . S
N812 H818 0.984 . S
N812 H819 0.984 . S
N813 C806 1.356 . S
N813 H816 0.984 . S
N813 H817 0.985 . S
H814 N809 0.984 . S
H815 N809 0.985 . S
H816 N813 0.984 . S
H817 N813 0.985 . S
H818 N812 0.984 . S
H819 N812 0.984 . S
H820 N808 0.984 . S
H821 N808 0.985 . S
C822 C823 1.363 . S
C822 C828 1.379 . S
C822 N830 1.356 . S
C823 C822 1.363 . S
C823 C829 1.363 . S
C824 C825 1.363 . S
C824 C829 1.379 . S
C824 N831 1.356 . S
C825 C824 1.363 . S
C825 C828 1.363 . S
N826 C828 1.356 1_556 S
N826 H838 0.984 1_556 S
N826 H839 0.985 . S
N827 C829 1.356 . S
N827 H832 0.984 . S
N827 H833 0.985 . S
C828 C822 1.379 . S
C828 C825 1.363 . S
C828 N826 1.356 1_554 S
C829 C823 1.363 . S
C829 C824 1.379 . S
C829 N827 1.356 . S
N830 C822 1.356 . S
N830 H836 0.984 . S
N830 H837 0.984 . S
N831 C824 1.356 . S
N831 H834 0.984 1_554 S
N831 H835 0.985 . S
H832 N827 0.984 . S
H833 N827 0.985 . S
H834 N831 0.984 1_556 S
H835 N831 0.985 . S
H836 N830 0.984 . S
H837 N830 0.984 . S
H838 N826 0.984 1_554 S
H839 N826 0.985 . S
C840 C841 1.363 . S
C840 C846 1.379 . S
C840 N848 1.356 . S
C841 C840 1.363 . S
C841 C847 1.363 . S
C842 C843 1.363 . S
C842 C847 1.379 . S
C842 N849 1.356 . S
C843 C842 1.363 . S
C843 C846 1.363 . S
N844 C846 1.356 . S
N844 H856 0.984 . S
N844 H857 0.985 . S
N845 C847 1.356 . S
N845 H850 0.984 . S
N845 H851 0.985 . S
C846 C840 1.379 . S
C846 C843 1.363 . S
C846 N844 1.356 . S
C847 C841 1.363 . S
C847 C842 1.379 . S
C847 N845 1.356 . S
N848 C840 1.356 . S
N848 H854 0.984 . S
N848 H855 0.984 . S
N849 C842 1.356 . S
N849 H852 0.984 . S
N849 H853 0.985 . S
H850 N845 0.984 . S
H851 N845 0.985 . S
H852 N849 0.984 . S
H853 N849 0.985 . S
H854 N848 0.984 . S
H855 N848 0.984 . S
H856 N844 0.984 . S
H857 N844 0.985 . S
C858 C859 1.363 . S
C858 C864 1.379 . S
C858 N866 1.356 . S
C859 C858 1.363 . S
C859 C865 1.363 . S
C860 C861 1.363 . S
C860 C865 1.379 . S
C860 N867 1.356 . S
C861 C860 1.363 . S
C861 C864 1.363 . S
N862 C864 1.356 . S
N862 H874 0.984 . S
N862 H875 0.985 . S
N863 C865 1.356 . S
N863 H868 0.984 . S
N863 H869 0.985 . S
C864 C858 1.379 . S
C864 C861 1.363 . S
C864 N862 1.356 . S
C865 C859 1.363 . S
C865 C860 1.379 . S
C865 N863 1.356 . S
N866 C858 1.356 . S
N866 H872 0.984 . S
N866 H873 0.984 . S
N867 C860 1.356 . S
N867 H870 0.984 . S
N867 H871 0.985 . S
H868 N863 0.984 . S
H869 N863 0.985 . S
H870 N867 0.984 . S
H871 N867 0.985 . S
H872 N866 0.984 . S
H873 N866 0.984 . S
H874 N862 0.984 . S
H875 N862 0.985 . S
C876 C877 1.363 . S
C876 C882 1.379 . S
C876 N884 1.356 . S
C877 C876 1.363 . S
C877 C883 1.363 . S
C878 C879 1.363 . S
C878 C883 1.379 . S
C878 N885 1.356 . S
C879 C878 1.363 . S
C879 C882 1.363 . S
N880 C882 1.356 . S
N880 H892 0.984 . S
N880 H893 0.985 . S
N881 C883 1.356 . S
N881 H886 0.984 . S
N881 H887 0.985 . S
C882 C876 1.379 . S
C882 C879 1.363 . S
C882 N880 1.356 . S
C883 C877 1.363 . S
C883 C878 1.379 . S
C883 N881 1.356 . S
N884 C876 1.356 . S
N884 H890 0.984 . S
N884 H891 0.984 . S
N885 C878 1.356 . S
N885 H888 0.984 . S
N885 H889 0.985 . S
H886 N881 0.984 . S
H887 N881 0.985 . S
H888 N885 0.984 . S
H889 N885 0.985 . S
H890 N884 0.984 . S
H891 N884 0.984 . S
H892 N880 0.984 . S
H893 N880 0.985 . S
C894 C895 1.363 . S
C894 C900 1.379 . S
C894 N902 1.356 . S
C895 C894 1.363 . S
C895 C901 1.363 . S
C896 C897 1.363 . S
C896 C901 1.379 . S
C896 N903 1.356 . S
C897 C896 1.363 . S
C897 C900 1.363 . S
N898 C900 1.356 . S
N898 H910 0.984 . S
N898 H911 0.985 . S
N899 C901 1.356 . S
N899 H904 0.984 . S
N899 H905 0.985 . S
C900 C894 1.379 . S
C900 C897 1.363 . S
C900 N898 1.356 . S
C901 C895 1.363 . S
C901 C896 1.379 . S
C901 N899 1.356 . S
N902 C894 1.356 . S
N902 H908 0.984 . S
N902 H909 0.984 . S
N903 C896 1.356 . S
N903 H906 0.984 . S
N903 H907 0.985 . S
H904 N899 0.984 . S
H905 N899 0.985 . S
H906 N903 0.984 . S
H907 N903 0.985 . S
H908 N902 0.984 . S
H909 N902 0.984 . S
H910 N898 0.984 . S
H911 N898 0.985 . S
C912 C913 1.363 . S
C912 C918 1.379 . S
C912 N920 1.356 . S
C913 C912 1.363 . S
C913 C919 1.363 . S
C914 C915 1.363 . S
C914 C919 1.379 . S
C914 N921 1.356 . S
C915 C914 1.363 . S
C915 C918 1.363 . S
N916 C918 1.356 . S
N916 H928 0.984 . S
N916 H929 0.985 . S
N917 C919 1.356 . S
N917 H922 0.984 . S
N917 H923 0.985 . S
C918 C912 1.379 . S
C918 C915 1.363 . S
C918 N916 1.356 . S
C919 C913 1.363 . S
C919 C914 1.379 . S
C919 N917 1.356 . S
N920 C912 1.356 . S
N920 H926 0.984 . S
N920 H927 0.984 . S
N921 C914 1.356 . S
N921 H924 0.984 . S
N921 H925 0.985 . S
H922 N917 0.984 . S
H923 N917 0.985 . S
H924 N921 0.984 . S
H925 N921 0.985 . S
H926 N920 0.984 . S
H927 N920 0.984 . S
H928 N916 0.984 . S
H929 N916 0.985 . S
C930 C931 1.363 . S
C930 C936 1.379 . S
C930 N938 1.356 . S
C931 C930 1.363 . S
C931 C937 1.363 . S
C932 C933 1.363 . S
C932 C937 1.379 . S
C932 N939 1.356 . S
C933 C932 1.363 . S
C933 C936 1.363 . S
N934 C936 1.356 . S
N934 H946 0.984 . S
N934 H947 0.985 . S
N935 C937 1.356 . S
N935 H940 0.984 . S
N935 H941 0.985 . S
C936 C930 1.379 . S
C936 C933 1.363 . S
C936 N934 1.356 . S
C937 C931 1.363 . S
C937 C932 1.379 . S
C937 N935 1.356 . S
N938 C930 1.356 . S
N938 H944 0.984 . S
N938 H945 0.984 . S
N939 C932 1.356 . S
N939 H942 0.984 . S
N939 H943 0.985 . S
H940 N935 0.984 . S
H941 N935 0.985 . S
H942 N939 0.984 . S
H943 N939 0.985 . S
H944 N938 0.984 . S
H945 N938 0.984 . S
H946 N934 0.984 . S
H947 N934 0.985 . S
C409 C2 1.689 . S
C411 C376 1.689 . S
C427 C36 1.689 . S
C429 C206 1.689 . S
C445 C240 1.689 . S
C447 C70 1.689 . S
C463 C274 1.689 . S
C465 C104 1.689 . S
C481 C308 1.689 . S
C483 C138 1.689 . S
C499 C172 1.689 . S
C501 C342 1.689 . S
C517 C305 1.606 . S
C519 C33 1.606 . S
C535 C339 1.606 . S
C537 C67 1.606 . S
C553 C101 1.606 . S
C555 C373 1.606 . S
C571 C135 1.606 . S
C573 C407 1.606 . S
C589 C237 1.606 . S
C591 C169 1.606 . S
C607 C203 1.606 . S
C609 C271 1.606 . S
C625 C9 1.396 . S
C627 C5 1.393 1_556 S
C643 C39 1.393 . S
C645 C43 1.396 . S
C661 C77 1.396 . S
C663 C73 1.393 1_556 S
C679 C107 1.393 . S
C681 C111 1.396 . S
C697 C145 1.396 . S
C699 C141 1.393 1_556 S
C715 C175 1.393 . S
C717 C179 1.396 . S
C733 C209 1.393 . S
C735 C213 1.396 . S
C751 C247 1.396 . S
C753 C243 1.393 1_554 S
C769 C277 1.393 . S
C771 C281 1.396 . S
C787 C311 1.393 1_554 S
C789 C315 1.396 . S
C805 C349 1.396 . S
C807 C345 1.393 . S
C823 C383 1.396 . S
C825 C379 1.393 1_554 S
C841 C20 1.569 . S
C843 C360 1.569 . S
C859 C394 1.569 . S
C861 C54 1.569 . S
C877 C224 1.569 . S
C879 C88 1.569 . S
C895 C122 1.569 . S
C897 C258 1.569 . S
C913 C156 1.569 . S
C915 C292 1.569 . S
C931 C190 1.569 . S
C933 C326 1.569 . S
