# Generated by pormake.
# Topology sra, (4)-cn, num edge types: 1
# Building blocks:
#     Node 0, Type 0, BuildingBlock: ICAMEG_clean_sbu_1, # of connection points: 4
#     Node 1, Type 0, BuildingBlock: ICAMEG_clean_sbu_1, # of connection points: 4
#     Node 2, Type 0, BuildingBlock: ICAMEG_clean_sbu_1, # of connection points: 4
#     Node 3, Type 0, BuildingBlock: ICAMEG_clean_sbu_1, # of connection points: 4
#     Node 4, Type 0, BuildingBlock: ICAMEG_clean_sbu_1, # of connection points: 4
#     Node 5, Type 0, BuildingBlock: ICAMEG_clean_sbu_1, # of connection points: 4
#     Node 6, Type 0, BuildingBlock: ICAMEG_clean_sbu_1, # of connection points: 4
#     Node 7, Type 0, BuildingBlock: ICAMEG_clean_sbu_1, # of connection points: 4
#     Edge 8, Type (0, 0), BuildingBlock: TEMPAE_clean_linker_10, # of connection points: 2
#     Edge 9, Type (0, 0), BuildingBlock: TEMPAE_clean_linker_10, # of connection points: 2
#     Edge 10, Type (0, 0), BuildingBlock: TEMPAE_clean_linker_10, # of connection points: 2
#     Edge 11, Type (0, 0), BuildingBlock: TEMPAE_clean_linker_10, # of connection points: 2
#     Edge 12, Type (0, 0), BuildingBlock: TEMPAE_clean_linker_10, # of connection points: 2
#     Edge 13, Type (0, 0), BuildingBlock: TEMPAE_clean_linker_10, # of connection points: 2
#     Edge 14, Type (0, 0), BuildingBlock: TEMPAE_clean_linker_10, # of connection points: 2
#     Edge 15, Type (0, 0), BuildingBlock: TEMPAE_clean_linker_10, # of connection points: 2
#     Edge 16, Type (0, 0), BuildingBlock: TEMPAE_clean_linker_10, # of connection points: 2
#     Edge 17, Type (0, 0), BuildingBlock: TEMPAE_clean_linker_10, # of connection points: 2
#     Edge 18, Type (0, 0), BuildingBlock: TEMPAE_clean_linker_10, # of connection points: 2
#     Edge 19, Type (0, 0), BuildingBlock: TEMPAE_clean_linker_10, # of connection points: 2
#     Edge 20, Type (0, 0), BuildingBlock: TEMPAE_clean_linker_10, # of connection points: 2
#     Edge 21, Type (0, 0), BuildingBlock: TEMPAE_clean_linker_10, # of connection points: 2
#     Edge 22, Type (0, 0), BuildingBlock: TEMPAE_clean_linker_10, # of connection points: 2
#     Edge 23, Type (0, 0), BuildingBlock: TEMPAE_clean_linker_10, # of connection points: 2
# Relax obj value: 0.021
# Max RMSD: 0.061
# Mean RMSD: 0.061
data_MOF--net-sra--node1-ICAMEG_clean_sbu_1--edge1-TEMPAE_clean_linker_10
_symmetry_space_group_name_H-M    P1
_symmetry_Int_Tables_number       1
_symmetry_cell_setting            triclinic
loop_
_symmetry_equiv_pos_as_xyz
'x, y, z'
_cell_length_a     30.518585
_cell_length_b     56.995839
_cell_length_c     31.395639
_cell_angle_alpha  90.019358
_cell_angle_beta   89.996858
_cell_angle_gamma 89.995037
loop_
_atom_site_label
_atom_site_type_symbol
_atom_site_fract_x
_atom_site_fract_y
_atom_site_fract_z
_atom_type_partial_charge
Co0 Co 0.01083 0.11916 0.22258 0.0
Co1 Co 0.97189 0.12423 0.12026 0.0
O2 O 0.01231 0.11064 0.16212 0.0
C3 C 0.10451 0.12679 0.20236 0.0
O4 O 0.09219 0.13977 0.16993 0.0
C5 C 0.96751 0.07273 0.10491 0.0
O6 O 0.96944 0.06951 0.14623 0.0
O7 O 0.92064 0.11509 0.1558 0.0
O8 O 0.94558 0.12197 0.22188 0.0
H9 H 0.84325 0.17286 0.07371 0.0
H10 H 0.05904 0.07622 0.19734 0.0
O11 O 0.07603 0.11667 0.22554 0.0
H12 H 0.94369 0.04923 0.29579 0.0
H13 H 0.05795 0.11309 0.3759 0.0
H14 H 0.96367 0.15498 0.27352 0.0
H15 H 0.95122 0.09122 0.27847 0.0
H16 H 0.05776 0.10204 0.29995 0.0
O17 O 0.96806 0.09338 0.08944 0.0
H18 H 0.89512 0.15591 0.12552 0.0
H19 H 0.96213 0.12048 0.02589 0.0
H20 H 0.96252 0.16646 0.34925 0.0
H21 H 0.05307 0.03408 0.21428 0.0
H22 H 0.00993 0.14546 0.40103 0.0
H23 H 0.99493 0.02034 0.2637 0.0
O24 O 0.01608 0.1529 0.20789 0.0
H25 H 0.11669 0.11026 0.04854 0.0
H26 H -6e-05 0.16814 0.07604 0.0
H27 H 0.06454 0.17976 0.03388 0.0
H28 H 0.12346 0.1507 0.0198 0.0
H29 H 0.05167 0.09945 0.09091 0.0
H30 H 0.91074 0.13685 0.97305 0.0
H31 H 0.85089 0.16333 0.99685 0.0
O32 O 0.97472 0.15573 0.14903 0.0
C33 C 0.91466 0.11784 0.19567 0.0
C34 C 0.86927 0.1614 0.06292 0.0
C35 C 0.90712 0.14117 0.00643 0.0
N36 N 0.9318 0.13738 0.07871 0.0
C37 C 0.89881 0.15181 0.0921 0.0
C38 C 0.93606 0.13191 0.03652 0.0
C39 C 0.87356 0.15603 0.01981 0.0
C40 C 0.03398 0.0704 0.21925 0.0
N41 N 0.00556 0.08617 0.2369 0.0
C42 C 0.03062 0.04651 0.22856 0.0
C43 C 0.99793 0.0388 0.25622 0.0
C44 C 0.96914 0.055 0.27419 0.0
C45 C 0.97345 0.07875 0.26411 0.0
C46 C 0.03704 0.12233 0.35368 0.0
C47 C 0.98411 0.14563 0.29591 0.0
C48 C 0.03683 0.11617 0.31062 0.0
N49 N 0.01035 0.12769 0.28241 0.0
C50 C 0.98345 0.15227 0.33873 0.0
C51 C 0.01009 0.14049 0.36776 0.0
C52 C 0.99635 0.16496 0.1796 0.0
C53 C 0.09117 0.12306 0.05435 0.0
C54 C 0.02548 0.1554 0.07016 0.0
C55 C 0.06194 0.16208 0.04619 0.0
C56 C 0.09498 0.14576 0.03828 0.0
N57 N 0.02194 0.13309 0.08574 0.0
C58 C 0.05422 0.11701 0.07818 0.0
Co59 Co 0.01207 0.38786 0.21986 0.0
Co60 Co 0.04754 0.38235 0.1163 0.0
O61 O 0.0088 0.3962 0.15938 0.0
C62 C 0.9179 0.38027 0.20213 0.0
O63 O 0.92944 0.36741 0.16925 0.0
C64 C 0.05273 0.43382 0.10087 0.0
O65 O 0.05205 0.43705 0.14222 0.0
O66 O 0.10021 0.39113 0.15022 0.0
O67 O 0.07723 0.38503 0.21725 0.0
H68 H 0.17319 0.3327 0.06565 0.0
H69 H 0.96313 0.43072 0.19557 0.0
O70 O 0.94696 0.39036 0.22469 0.0
H71 H 0.0816 0.45805 0.29015 0.0
H72 H 0.9698 0.39452 0.37445 0.0
H73 H 0.06076 0.35221 0.26977 0.0
H74 H 0.07343 0.41599 0.27362 0.0
H75 H 0.9676 0.40529 0.29839 0.0
O76 O 0.05118 0.41318 0.08539 0.0
H77 H 0.12361 0.35008 0.11911 0.0
H78 H 0.05427 0.38605 0.02168 0.0
H79 H 0.06429 0.34102 0.34556 0.0
H80 H 0.96974 0.47293 0.21176 0.0
H81 H 0.01856 0.36224 0.39849 0.0
H82 H 0.02945 0.48684 0.25922 0.0
O83 O 0.00637 0.35406 0.20577 0.0
H84 H 0.90084 0.3974 0.04913 0.0
H85 H 0.01689 0.33864 0.073 0.0
H86 H 0.95061 0.3275 0.03291 0.0
H87 H 0.89204 0.357 0.02067 0.0
H88 H 0.96752 0.40773 0.08941 0.0
H89 H 0.10336 0.36924 0.96721 0.0
H90 H 0.1632 0.34227 0.98908 0.0
O91 O 0.04487 0.35088 0.14515 0.0
C92 C 0.10738 0.3887 0.18998 0.0
C93 C 0.14715 0.34437 0.05571 0.0
C94 C 0.10799 0.36491 1.00047 0.0
N95 N 0.0859 0.36891 0.0735 0.0
C96 C 0.11891 0.35421 0.08583 0.0
C97 C 0.08037 0.37441 0.03147 0.0
C98 C 0.14155 0.34977 0.01276 0.0
C99 C 0.98888 0.43662 0.21664 0.0
N100 N 0.01781 0.42091 0.23365 0.0
C101 C 0.99259 0.46055 0.22552 0.0
C102 C 0.02616 0.46835 0.25209 0.0
C103 C 0.05547 0.45221 0.26941 0.0
C104 C 0.05078 0.42841 0.25978 0.0
C105 C 0.98998 0.38519 0.35171 0.0
C106 C 0.04105 0.36166 0.29265 0.0
C107 C 0.98883 0.39119 0.30859 0.0
N108 N 0.0144 0.37956 0.27973 0.0
C109 C 0.04306 0.35518 0.33551 0.0
C110 C 0.01735 0.36708 0.36518 0.0
C111 C 0.02464 0.34184 0.17678 0.0
C112 C 0.92619 0.38441 0.05414 0.0
C113 C 0.99151 0.35157 0.06791 0.0
C114 C 0.95409 0.34517 0.04511 0.0
C115 C 0.92125 0.36173 0.03824 0.0
N116 N 0.99616 0.37386 0.08335 0.0
C117 C 0.96409 0.39019 0.07678 0.0
Co118 Co 0.01097 0.88784 0.78428 0.0
Co119 Co 0.97251 0.88405 0.88696 0.0
O120 O 0.01262 0.89724 0.84435 0.0
C121 C 0.10506 0.88086 0.80402 0.0
O122 O 0.09329 0.86817 0.83701 0.0
C123 C 0.96833 0.93576 0.90073 0.0
O124 O 0.97117 0.93874 0.85941 0.0
O125 O 0.92103 0.89262 0.85125 0.0
O126 O 0.94572 0.88475 0.78546 0.0
H127 H 0.84456 0.83562 0.93591 0.0
H128 H 0.0587 0.93136 0.807 0.0
O129 O 0.07617 0.89061 0.78078 0.0
H130 H 0.94226 0.95633 0.708 0.0
H131 H 0.05711 0.89184 0.63044 0.0
H132 H 0.9641 0.85108 0.73538 0.0
H133 H 0.95051 0.91466 0.72745 0.0
H134 H 0.05718 0.90403 0.70582 0.0
O135 O 0.96839 0.91522 0.91665 0.0
H136 H 0.89603 0.8521 0.88325 0.0
H137 H 0.96312 0.88887 0.98123 0.0
H138 H 0.9627 0.83847 0.66025 0.0
H139 H 0.05204 0.97318 0.78786 0.0
H140 H 0.00947 0.8589 0.60719 0.0
H141 H 0.99334 0.98591 0.73817 0.0
O142 O 0.01692 0.85436 0.80057 0.0
H143 H 0.11749 0.89932 0.95741 0.0
H144 H 0.00119 0.84079 0.93292 0.0
H145 H 0.06609 0.8299 0.97528 0.0
H146 H 0.12478 0.85929 0.98785 0.0
H147 H 0.05218 0.9094 0.91488 0.0
H148 H 0.91211 0.87297 0.0349 0.0
H149 H 0.85243 0.84606 0.01236 0.0
O150 O 0.97557 0.8522 0.85951 0.0
C151 C 0.91487 0.88926 0.81156 0.0
C152 C 0.87051 0.84727 0.94615 0.0
C153 C 0.90839 0.86826 1.0017 0.0
N154 N 0.93273 0.87128 0.92918 0.0
C155 C 0.89982 0.85661 0.91649 0.0
C156 C 0.93711 0.87725 0.97114 0.0
C157 C 0.87492 0.85315 0.98903 0.0
C158 C 0.0334 0.93673 0.78497 0.0
N159 N 0.00506 0.92058 0.76837 0.0
C160 C 0.02965 0.96045 0.77442 0.0
C161 C 0.99665 0.96759 0.74661 0.0
C162 C 0.96794 0.951 0.72971 0.0
C163 C 0.97265 0.92744 0.74101 0.0
C164 C 0.03648 0.88285 0.65323 0.0
C165 C 0.98426 0.86018 0.71242 0.0
C166 C 0.03642 0.88965 0.69597 0.0
N167 N 0.0103 0.87844 0.7249 0.0
C168 C 0.98346 0.85291 0.66995 0.0
C169 C 0.00974 0.86437 0.6402 0.0
C170 C 0.99742 0.84263 0.82945 0.0
C171 C 0.09208 0.88638 0.95226 0.0
C172 C 0.02663 0.85367 0.93814 0.0
C173 C 0.06327 0.8474 0.96224 0.0
C174 C 0.09617 0.86391 0.96929 0.0
N175 N 0.02281 0.87577 0.92162 0.0
C176 C 0.05496 0.89202 0.92835 0.0
Co177 Co 0.01071 0.62117 0.78303 0.0
Co178 Co 0.04886 0.62345 0.88637 0.0
O179 O 0.00907 0.61062 0.8427 0.0
C180 C 0.9146 0.61476 0.80394 0.0
O181 O 0.92318 0.60822 0.84308 0.0
C182 C 0.05266 0.57149 0.89832 0.0
O183 O 0.04872 0.56881 0.85702 0.0
O184 O 0.1005 0.61543 0.85063 0.0
O185 O 0.07601 0.62406 0.78511 0.0
H186 H 0.17609 0.6716 0.93801 0.0
H187 H 0.96544 0.57599 0.80345 0.0
O188 O 0.94519 0.6195 0.77774 0.0
H189 H 0.08042 0.55553 0.69981 0.0
H190 H 0.9668 0.62103 0.62833 0.0
H191 H 0.05832 0.65904 0.73786 0.0
H192 H 0.07078 0.59644 0.72326 0.0
H193 H 0.96559 0.60697 0.70262 0.0
O194 O 0.05334 0.59191 0.91477 0.0
H195 H 0.12514 0.65559 0.88438 0.0
H196 H 0.05777 0.61752 0.98048 0.0
H197 H 0.06085 0.67352 0.66389 0.0
H198 H 0.97337 0.53502 0.78025 0.0
H199 H 0.01484 0.65447 0.60853 0.0
H200 H 0.03136 0.52448 0.72816 0.0
O201 O 0.00396 0.65409 0.80172 0.0
H202 H 0.90616 0.60619 0.95983 0.0
H203 H 0.01878 0.66637 0.93264 0.0
H204 H 0.95436 0.67637 0.97635 0.0
H205 H 0.89752 0.64615 0.99032 0.0
H206 H 0.97083 0.59703 0.91576 0.0
H207 H 0.10823 0.63295 0.03508 0.0
H208 H 0.16779 0.66028 0.01398 0.0
O209 O 0.04579 0.6557 0.86027 0.0
C210 C 0.10678 0.61923 0.81112 0.0
C211 C 0.15018 0.65977 0.94762 0.0
C212 C 0.11212 0.63805 1.00209 0.0
N213 N 0.08831 0.6358 0.92932 0.0
C214 C 0.12116 0.6507 0.91741 0.0
C215 C 0.08371 0.62933 0.97101 0.0
C216 C 0.14553 0.65339 0.99023 0.0
C217 C 0.99014 0.57177 0.78021 0.0
N218 N 0.01714 0.58879 0.76442 0.0
C219 C 0.99476 0.54842 0.76743 0.0
C220 C 0.02737 0.5425 0.7383 0.0
C221 C 0.05493 0.55991 0.72243 0.0
C222 C 0.04936 0.58306 0.73596 0.0
C223 C 0.9871 0.62943 0.65214 0.0
C224 C 0.03849 0.65053 0.71388 0.0
C225 C 0.98651 0.62156 0.69427 0.0
N226 N 0.01225 0.632 0.72445 0.0
C227 C 0.03993 0.65887 0.67208 0.0
C228 C 0.01407 0.64819 0.64105 0.0
C229 C 0.02365 0.66556 0.83074 0.0
C230 C 0.93069 0.61952 0.95397 0.0
C231 C 0.994 0.65318 0.93815 0.0
C232 C 0.95769 0.65892 0.96314 0.0
C233 C 0.92584 0.64194 0.97102 0.0
N234 N 0.99846 0.63115 0.92141 0.0
C235 C 0.96746 0.61441 0.92914 0.0
Co236 Co 0.50938 0.62018 0.71997 0.0
Co237 Co 0.47197 0.62335 0.61664 0.0
O238 O 0.51127 0.61008 0.6601 0.0
C239 C 0.60388 0.62259 0.69794 0.0
O240 O 0.59343 0.62986 0.65963 0.0
C241 C 0.46656 0.57152 0.60407 0.0
O242 O 0.46987 0.56872 0.6454 0.0
O243 O 0.41993 0.61561 0.65209 0.0
O244 O 0.44423 0.62365 0.71791 0.0
H245 H 0.3462 0.67271 0.56543 0.0
H246 H 0.55624 0.57614 0.69933 0.0
O247 O 0.5744 0.61736 0.72491 0.0
H248 H 0.43818 0.55302 0.79801 0.0
H249 H 0.55314 0.61782 0.87461 0.0
H250 H 0.46283 0.65792 0.76662 0.0
H251 H 0.44765 0.59442 0.77719 0.0
H252 H 0.55391 0.60461 0.7998 0.0
O253 O 0.46679 0.59198 0.5878 0.0
H254 H 0.39666 0.65613 0.61891 0.0
H255 H 0.4631 0.61784 0.52243 0.0
H256 H 0.46074 0.67156 0.84115 0.0
H257 H 0.54837 0.53457 0.71983 0.0
H258 H 0.50616 0.65147 0.89573 0.0
H259 H 0.48885 0.52277 0.76937 0.0
O260 O 0.51681 0.65331 0.70247 0.0
H261 H 0.61529 0.60536 0.54499 0.0
H262 H 0.50314 0.66605 0.57047 0.0
H263 H 0.5682 0.67567 0.52735 0.0
H264 H 0.62478 0.64518 0.51423 0.0
H265 H 0.55001 0.59659 0.58848 0.0
H266 H 0.4131 0.63383 0.46797 0.0
H267 H 0.35426 0.66156 0.48934 0.0
O268 O 0.47594 0.65545 0.64326 0.0
C269 C 0.4135 0.61921 0.69165 0.0
C270 C 0.3718 0.6607 0.5557 0.0
C271 C 0.40932 0.63886 0.50101 0.0
N272 N 0.433 0.63619 0.57377 0.0
C273 C 0.40054 0.65131 0.58582 0.0
C274 C 0.43747 0.62983 0.53201 0.0
C275 C 0.37632 0.65442 0.51302 0.0
C276 C 0.53059 0.57117 0.72128 0.0
N277 N 0.50249 0.58768 0.73705 0.0
C278 C 0.52615 0.54759 0.73261 0.0
C279 C 0.4927 0.54098 0.76034 0.0
C280 C 0.46422 0.55794 0.77637 0.0
C281 C 0.46962 0.58135 0.76431 0.0
C282 C 0.53309 0.62667 0.85115 0.0
C283 C 0.48238 0.64895 0.79026 0.0
C284 C 0.53342 0.61928 0.80872 0.0
N285 N 0.50804 0.63032 0.77895 0.0
C286 C 0.4812 0.65681 0.83238 0.0
C287 C 0.50672 0.64555 0.86298 0.0
C288 C 0.49781 0.66502 0.67331 0.0
C289 C 0.59081 0.61877 0.55038 0.0
C290 C 0.52774 0.65273 0.56519 0.0
C291 C 0.56444 0.65826 0.54059 0.0
C292 C 0.59615 0.64113 0.5332 0.0
N293 N 0.52274 0.63075 0.58194 0.0
C294 C 0.55367 0.61387 0.5748 0.0
Co295 Co 0.51233 0.88738 0.71982 0.0
Co296 Co 0.54982 0.88343 0.61674 0.0
O297 O 0.51019 0.89665 0.65973 0.0
C298 C 0.41816 0.88022 0.70065 0.0
O299 O 0.42979 0.86746 0.66768 0.0
C300 C 0.55467 0.93512 0.60363 0.0
O301 O 0.55265 0.93787 0.64505 0.0
O302 O 0.60176 0.89178 0.65204 0.0
O303 O 0.57757 0.88445 0.71821 0.0
H304 H 0.67671 0.83463 0.56629 0.0
H305 H 0.4641 0.93073 0.69704 0.0
O306 O 0.44715 0.89002 0.72371 0.0
H307 H 0.58102 0.95626 0.79505 0.0
H308 H 0.4673 0.8917 0.87394 0.0
H309 H 0.55983 0.85084 0.76866 0.0
H310 H 0.57294 0.9145 0.77606 0.0
H311 H 0.46656 0.90367 0.79846 0.0
O312 O 0.55398 0.91467 0.5873 0.0
H313 H 0.62596 0.85121 0.61955 0.0
H314 H 0.55844 0.88842 0.52246 0.0
H315 H 0.56189 0.83844 0.84388 0.0
H316 H 0.4706 0.97263 0.7157 0.0
H317 H 0.51537 0.85893 0.89712 0.0
H318 H 0.52954 0.98564 0.76489 0.0
O319 O 0.5066 0.85383 0.70383 0.0
H320 H 0.40442 0.89927 0.54755 0.0
H321 H 0.52027 0.84032 0.5708 0.0
H322 H 0.45488 0.8297 0.52891 0.0
H323 H 0.39642 0.8593 0.51696 0.0
H324 H 0.4702 0.90908 0.58961 0.0
H325 H 0.60871 0.87242 0.4682 0.0
H326 H 0.66824 0.84524 0.49 0.0
O327 O 0.54668 0.85156 0.64406 0.0
C328 C 0.60823 0.88868 0.69176 0.0
C329 C 0.65082 0.8464 0.55638 0.0
C330 C 0.61268 0.86764 0.50134 0.0
N331 N 0.58909 0.87061 0.57409 0.0
C332 C 0.62192 0.85579 0.58638 0.0
C333 C 0.58438 0.87668 0.53221 0.0
C334 C 0.64607 0.85238 0.51359 0.0
C335 C 0.4895 0.93622 0.71886 0.0
N336 N 0.51806 0.92018 0.73544 0.0
C337 C 0.49317 0.95998 0.72914 0.0
C338 C 0.5263 0.96728 0.75667 0.0
C339 C 0.55523 0.9508 0.77355 0.0
C340 C 0.55061 0.92719 0.76252 0.0
C341 C 0.48782 0.88269 0.85108 0.0
C342 C 0.53977 0.85997 0.79169 0.0
C343 C 0.4875 0.88937 0.80828 0.0
N344 N 0.5135 0.87813 0.77926 0.0
C345 C 0.54095 0.85281 0.83422 0.0
C346 C 0.5148 0.8643 0.86406 0.0
C347 C 0.52553 0.84205 0.67464 0.0
C348 C 0.42973 0.88624 0.55243 0.0
C349 C 0.49493 0.85329 0.56586 0.0
C350 C 0.45801 0.84718 0.54202 0.0
C351 C 0.42523 0.8638 0.53532 0.0
N352 N 0.49914 0.87536 0.58245 0.0
C353 C 0.46712 0.89173 0.57607 0.0
Co354 Co 0.5107 0.38831 0.28265 0.0
Co355 Co 0.47062 0.38301 0.38453 0.0
O356 O 0.51151 0.39668 0.3432 0.0
C357 C 0.60425 0.38057 0.3036 0.0
O358 O 0.59169 0.36741 0.3357 0.0
C359 C 0.46603 0.43446 0.40011 0.0
O360 O 0.46833 0.43774 0.35883 0.0
O361 O 0.41976 0.39221 0.34851 0.0
O362 O 0.44542 0.38554 0.28263 0.0
H363 H 0.34147 0.33429 0.42938 0.0
H364 H 0.55865 0.43117 0.30878 0.0
O365 O 0.57594 0.3908 0.28038 0.0
H366 H 0.44449 0.45846 0.20929 0.0
H367 H 0.55954 0.39474 0.12988 0.0
H368 H 0.4641 0.35263 0.23094 0.0
H369 H 0.45177 0.41641 0.22634 0.0
H370 H 0.5585 0.40561 0.20592 0.0
O371 O 0.46644 0.4138 0.4155 0.0
H372 H 0.39393 0.35133 0.37824 0.0
H373 H 0.45976 0.38658 0.47881 0.0
H374 H 0.46379 0.34133 0.15511 0.0
H375 H 0.55291 0.47335 0.29214 0.0
H376 H 0.5118 0.36245 0.104 0.0
H377 H 0.49537 0.48725 0.2422 0.0
O378 O 0.51575 0.35453 0.29713 0.0
H379 H 0.61457 0.39683 0.4579 0.0
H380 H 0.49816 0.33901 0.42878 0.0
H381 H 0.56226 0.32732 0.47158 0.0
H382 H 0.621 0.35635 0.48648 0.0
H383 H 0.55006 0.40773 0.41487 0.0
H384 H 0.40776 0.37011 0.53099 0.0
H385 H 0.3482 0.34368 0.50637 0.0
O386 O 0.4738 0.35156 0.35558 0.0
C387 C 0.4142 0.3896 0.30855 0.0
C388 C 0.36736 0.34573 0.44052 0.0
C389 C 0.40454 0.36585 0.49754 0.0
N390 N 0.43006 0.36977 0.42556 0.0
C391 C 0.39723 0.35537 0.41173 0.0
C392 C 0.43382 0.37517 0.46783 0.0
C393 C 0.37113 0.35102 0.4837 0.0
C394 C 0.53385 0.43705 0.28665 0.0
N395 N 0.50562 0.42134 0.26855 0.0
C396 C 0.53062 0.46097 0.27751 0.0
C397 C 0.49827 0.46876 0.24955 0.0
C398 C 0.46967 0.45262 0.23112 0.0
C399 C 0.47384 0.42884 0.24105 0.0
C400 C 0.53838 0.38545 0.15181 0.0
C401 C 0.48479 0.36203 0.20883 0.0
C402 C 0.53769 0.39151 0.19492 0.0
N403 N 0.51088 0.37993 0.22276 0.0
C404 C 0.4846 0.3555 0.16596 0.0
C405 C 0.51158 0.36734 0.13731 0.0
C406 C 0.49577 0.34241 0.32517 0.0
C407 C 0.58913 0.38405 0.45173 0.0
C408 C 0.52363 0.35174 0.43501 0.0
C409 C 0.55981 0.34502 0.45935 0.0
C410 C 0.59275 0.36132 0.46771 0.0
N411 N 0.52028 0.37408 0.41952 0.0
C412 C 0.55246 0.39014 0.42753 0.0
Co413 Co 0.51218 0.1195 0.28486 0.0
Co414 Co 0.54849 0.125 0.38819 0.0
O415 O 0.50945 0.11117 0.34535 0.0
C416 C 0.41822 0.12721 0.30347 0.0
O417 O 0.43006 0.14011 0.33617 0.0
C418 C 0.5543 0.07353 0.40286 0.0
O419 O 0.55347 0.07052 0.36146 0.0
O420 O 0.60094 0.11644 0.35376 0.0
O421 O 0.57735 0.12223 0.28685 0.0
H422 H 0.67416 0.17481 0.43818 0.0
H423 H 0.46328 0.07672 0.30968 0.0
O424 O 0.44704 0.11709 0.28066 0.0
H425 H 0.58065 0.04919 0.21397 0.0
H426 H 0.46834 0.11287 0.13069 0.0
H427 H 0.56049 0.1551 0.23448 0.0
H428 H 0.57284 0.09127 0.23052 0.0
H429 H 0.46686 0.10212 0.20677 0.0
O430 O 0.55265 0.09407 0.41873 0.0
H431 H 0.62423 0.15747 0.385 0.0
H432 H 0.55616 0.12103 0.48269 0.0
H433 H 0.5633 0.16627 0.15865 0.0
H434 H 0.46954 0.0345 0.29349 0.0
H435 H 0.51697 0.14509 0.10616 0.0
H436 H 0.52869 0.02048 0.24546 0.0
O437 O 0.50679 0.15332 0.29898 0.0
H438 H 0.40258 0.10943 0.45659 0.0
H439 H 0.51789 0.16852 0.43212 0.0
H440 H 0.45192 0.1794 0.47294 0.0
H441 H 0.39372 0.14973 0.48548 0.0
H442 H 0.46894 0.09936 0.41558 0.0
H443 H 0.60561 0.13779 0.53688 0.0
H444 H 0.665 0.16498 0.51474 0.0
O445 O 0.54527 0.15653 0.35961 0.0
C446 C 0.60775 0.11871 0.31392 0.0
C447 C 0.64833 0.16305 0.44824 0.0
C448 C 0.60989 0.14225 0.50363 0.0
N449 N 0.58713 0.13841 0.43076 0.0
C450 C 0.61989 0.15322 0.41829 0.0
C451 C 0.58205 0.13277 0.47279 0.0
C452 C 0.64319 0.1575 0.49118 0.0
C453 C 0.48878 0.07078 0.28836 0.0
N454 N 0.51761 0.08645 0.27104 0.0
C455 C 0.4923 0.04684 0.27948 0.0
C456 C 0.52556 0.03899 0.2526 0.0
C457 C 0.55476 0.05508 0.23496 0.0
C458 C 0.55028 0.07888 0.2446 0.0
C459 C 0.48878 0.12218 0.15323 0.0
C460 C 0.54052 0.14567 0.21178 0.0
C461 C 0.48805 0.11619 0.19636 0.0
N462 N 0.51395 0.12779 0.22496 0.0
C463 C 0.54212 0.15213 0.16891 0.0
C464 C 0.51608 0.14026 0.13949 0.0
C465 C 0.52502 0.16555 0.32798 0.0
C466 C 0.42777 0.1225 0.45144 0.0
C467 C 0.49267 0.15552 0.43734 0.0
C468 C 0.45542 0.16178 0.46056 0.0
C469 C 0.42279 0.14512 0.4676 0.0
N470 N 0.49735 0.13328 0.42167 0.0
C471 C 0.46548 0.11686 0.42839 0.0
C472 C 0.99365 0.3051 0.20907 0.0
C473 C 0.0215 0.31585 0.17927 0.0
C474 C 0.98904 0.28059 0.21057 0.0
C475 C 0.01313 0.26641 0.18188 0.0
C476 C 0.04179 0.27709 0.15218 0.0
C477 C 0.04548 0.30164 0.15111 0.0
C478 C 0.95787 0.26988 0.24246 0.0
C479 C 0.06835 0.26258 0.12129 0.0
C480 C 0.03023 0.20187 0.20823 0.0
C481 C 0.99947 0.19095 0.18151 0.0
C482 C 0.03491 0.22639 0.20881 0.0
C483 C 0.00788 0.2404 0.18241 0.0
C484 C 0.97627 0.22954 0.15593 0.0
C485 C 0.9726 0.20497 0.15563 0.0
C486 C 0.06931 0.2373 0.23715 0.0
C487 C 0.9465 0.24386 0.12764 0.0
H488 H 0.97482 0.31586 0.23088 0.0
H489 H 0.06721 0.30969 0.12804 0.0
H490 H 0.93202 0.25985 0.22553 0.0
H491 H 0.97562 0.25732 0.26321 0.0
H492 H 0.94191 0.28331 0.26289 0.0
H493 H 0.09005 0.27353 0.101 0.0
H494 H 0.08884 0.24978 0.13894 0.0
H495 H 0.04613 0.25238 0.10032 0.0
H496 H 0.05132 0.19123 0.22818 0.0
H497 H 0.94862 0.19677 0.13497 0.0
H498 H 0.05388 0.25002 0.25929 0.0
H499 H 0.09324 0.24717 0.21749 0.0
H500 H 0.08735 0.224 0.25616 0.0
H501 H 0.92801 0.25678 0.14703 0.0
H502 H 0.92274 0.23278 0.10991 0.0
H503 H 0.96631 0.2539 0.10431 0.0
C504 C 0.97438 0.80287 0.85542 0.0
C505 C 0.0009 0.81663 0.82875 0.0
C506 C 0.97803 0.77831 0.85586 0.0
C507 C 0.00926 0.76718 0.82932 0.0
C508 C 0.0362 0.78093 0.80239 0.0
C509 C 0.03154 0.80546 0.80225 0.0
C510 C 0.94837 0.76426 0.88469 0.0
C511 C 0.07018 0.76974 0.77393 0.0
C512 C 0.04521 0.70528 0.85859 0.0
C513 C 0.02057 0.69159 0.83012 0.0
C514 C 0.04211 0.72988 0.85847 0.0
C515 C 0.01345 0.74112 0.82944 0.0
C516 C 0.98852 0.72744 0.80065 0.0
C517 C 0.9925 0.7029 0.80121 0.0
C518 C 0.06951 0.74386 0.88946 0.0
C519 C 0.95732 0.73873 0.76944 0.0
H520 H 0.95054 0.81128 0.87597 0.0
H521 H 0.05242 0.81589 0.78173 0.0
H522 H 0.92877 0.75171 0.86553 0.0
H523 H 0.96826 0.7538 0.90736 0.0
H524 H 0.92559 0.77556 0.90317 0.0
H525 H 0.08891 0.78291 0.75525 0.0
H526 H 0.09355 0.75938 0.79339 0.0
H527 H 0.05417 0.75741 0.75146 0.0
H528 H 0.06708 0.69678 0.88099 0.0
H529 H 0.97319 0.69257 0.77911 0.0
H530 H 0.04793 0.75432 0.91064 0.0
H531 H 0.09059 0.75642 0.87187 0.0
H532 H 0.09072 0.73251 0.9095 0.0
H533 H 0.93238 0.74914 0.78688 0.0
H534 H 0.9402 0.72562 0.74921 0.0
H535 H 0.97538 0.75103 0.74843 0.0
C536 C 0.47563 0.70494 0.64714 0.0
C537 C 0.50139 0.69103 0.67426 0.0
C538 C 0.47907 0.72953 0.64751 0.0
C539 C 0.50931 0.74051 0.67532 0.0
C540 C 0.53544 0.7266 0.70271 0.0
C541 C 0.53101 0.70208 0.70202 0.0
C542 C 0.45031 0.74376 0.61811 0.0
C543 C 0.56839 0.73762 0.7325 0.0
C544 C 0.54735 0.80224 0.64776 0.0
C545 C 0.52218 0.81603 0.67562 0.0
C546 C 0.5437 0.77768 0.64754 0.0
C547 C 0.51386 0.76656 0.67556 0.0
C548 C 0.48839 0.78034 0.70379 0.0
C549 C 0.493 0.80487 0.70364 0.0
C550 C 0.57177 0.76361 0.61724 0.0
C551 C 0.45593 0.76917 0.73389 0.0
H552 H 0.45255 0.69664 0.62566 0.0
H553 H 0.55123 0.69154 0.72299 0.0
H554 H 0.43037 0.75633 0.63689 0.0
H555 H 0.47092 0.7542 0.59603 0.0
H556 H 0.4279 0.73258 0.59898 0.0
H557 H 0.58629 0.72435 0.75171 0.0
H558 H 0.59259 0.74797 0.71398 0.0
H559 H 0.55166 0.74994 0.7545 0.0
H560 H 0.57008 0.81063 0.62603 0.0
H561 H 0.47321 0.81531 0.72515 0.0
H562 H 0.55065 0.75335 0.59532 0.0
H563 H 0.59202 0.75087 0.63532 0.0
H564 H 0.59384 0.77488 0.59793 0.0
H565 H 0.43134 0.75898 0.71556 0.0
H566 H 0.43848 0.78234 0.75373 0.0
H567 H 0.47301 0.75667 0.7553 0.0
C568 C 0.47197 0.30234 0.34879 0.0
C569 C 0.49901 0.31642 0.32319 0.0
C570 C 0.47579 0.27778 0.34849 0.0
C571 C 0.50774 0.26698 0.32231 0.0
C572 C 0.53495 0.28104 0.29618 0.0
C573 C 0.53011 0.30556 0.29675 0.0
C574 C 0.44583 0.2634 0.37648 0.0
C575 C 0.56971 0.27021 0.26815 0.0
C576 C 0.5454 0.20578 0.35388 0.0
C577 C 0.52175 0.19154 0.3255 0.0
C578 C 0.54157 0.23033 0.3528 0.0
C579 C 0.51315 0.24098 0.32285 0.0
C580 C 0.48941 0.22677 0.29394 0.0
C581 C 0.49413 0.20226 0.29547 0.0
C582 C 0.56774 0.24487 0.38396 0.0
C583 C 0.45851 0.23744 0.26177 0.0
H584 H 0.44772 0.31049 0.36922 0.0
H585 H 0.55135 0.31624 0.27702 0.0
H586 H 0.42762 0.25045 0.35691 0.0
H587 H 0.46547 0.25338 0.4 0.0
H588 H 0.42181 0.27443 0.394 0.0
H589 H 0.58784 0.28355 0.24932 0.0
H590 H 0.59351 0.26038 0.28803 0.0
H591 H 0.55459 0.25746 0.24587 0.0
H592 H 0.56694 0.19775 0.37714 0.0
H593 H 0.47557 0.19148 0.27347 0.0
H594 H 0.54525 0.25502 0.40474 0.0
H595 H 0.58833 0.25771 0.36651 0.0
H596 H 0.5893 0.23394 0.40443 0.0
H597 H 0.43242 0.24742 0.27846 0.0
H598 H 0.44284 0.224 0.24116 0.0
H599 H 0.47639 0.25004 0.24121 0.0
C600 C 0.33999 0.14028 0.30915 0.0
C601 C 0.37169 0.1258 0.29034 0.0
C602 C 0.29648 0.14022 0.29452 0.0
C603 C 0.28443 0.12522 0.26048 0.0
C604 C 0.31608 0.11024 0.24196 0.0
C605 C 0.3593 0.11073 0.25706 0.0
C606 C 0.26355 0.15645 0.31504 0.0
C607 C 0.30442 0.09384 0.20589 0.0
C608 C 0.16409 0.11015 0.24773 0.0
C609 C 0.1512 0.12542 0.21495 0.0
C610 C 0.20739 0.10978 0.26258 0.0
C611 C 0.23863 0.1251 0.24432 0.0
C612 C 0.22611 0.14026 0.2107 0.0
C613 C 0.18252 0.14019 0.1963 0.0
C614 C 0.21956 0.0932 0.2982 0.0
C615 C 0.2586 0.15683 0.19047 0.0
H616 H 0.34931 0.15202 0.33477 0.0
H617 H 0.38352 0.0994 0.2424 0.0
H618 H 0.25011 0.16868 0.29086 0.0
H619 H 0.23564 0.14616 0.32785 0.0
H620 H 0.27807 0.16689 0.34138 0.0
H621 H 0.33276 0.08306 0.19541 0.0
H622 H 0.27757 0.08192 0.21583 0.0
H623 H 0.29231 0.10407 0.17824 0.0
H624 H 0.14016 0.09859 0.26224 0.0
H625 H 0.17281 0.15208 0.17107 0.0
H626 H 0.2313 0.10332 0.32615 0.0
H627 H 0.2468 0.08161 0.28797 0.0
H628 H 0.19156 0.08207 0.30834 0.0
H629 H 0.27163 0.16908 0.21486 0.0
H630 H 0.24381 0.16727 0.16427 0.0
H631 H 0.28683 0.14684 0.17755 0.0
C632 C 0.68217 0.36697 0.3096 0.0
C633 C 0.65103 0.38201 0.29135 0.0
C634 C 0.72581 0.36693 0.29533 0.0
C635 C 0.73858 0.38239 0.26225 0.0
C636 C 0.70755 0.39801 0.24448 0.0
C637 C 0.66419 0.3976 0.25917 0.0
C638 C 0.75806 0.35003 0.31504 0.0
C639 C 0.71999 0.41491 0.20946 0.0
C640 C 0.85944 0.39639 0.24955 0.0
C641 C 0.87148 0.38164 0.21568 0.0
C642 C 0.81631 0.39687 0.2649 0.0
C643 C 0.78437 0.3822 0.24601 0.0
C644 C 0.79608 0.3675 0.21144 0.0
C645 C 0.83951 0.36744 0.19658 0.0
C646 C 0.80501 0.41293 0.30157 0.0
C647 C 0.76285 0.35163 0.1905 0.0
H648 H 0.67225 0.35483 0.33435 0.0
H649 H 0.64042 0.40937 0.24499 0.0
H650 H 0.77081 0.33792 0.29029 0.0
H651 H 0.7865 0.35977 0.32815 0.0
H652 H 0.74315 0.33946 0.34098 0.0
H653 H 0.69219 0.42631 0.19978 0.0
H654 H 0.74748 0.42624 0.22006 0.0
H655 H 0.73147 0.40504 0.18112 0.0
H656 H 0.88387 0.40749 0.26447 0.0
H657 H 0.84855 0.35595 0.17051 0.0
H658 H 0.79273 0.40248 0.32887 0.0
H659 H 0.77839 0.42512 0.29209 0.0
H660 H 0.83358 0.42344 0.31239 0.0
H661 H 0.74921 0.33925 0.21434 0.0
H662 H 0.77715 0.34133 0.16386 0.0
H663 H 0.73512 0.36216 0.17801 0.0
C664 C 0.1833 0.86774 0.80957 0.0
C665 C 0.15162 0.88228 0.7909 0.0
C666 C 0.22675 0.86769 0.79473 0.0
C667 C 0.23879 0.88266 0.76065 0.0
C668 C 0.20719 0.89775 0.74237 0.0
C669 C 0.16402 0.89735 0.75764 0.0
C670 C 0.2596 0.85133 0.815 0.0
C671 C 0.21883 0.91414 0.70629 0.0
C672 C 0.35937 0.89707 0.74682 0.0
C673 C 0.37163 0.88178 0.71382 0.0
C674 C 0.3162 0.89767 0.76209 0.0
C675 C 0.28447 0.88255 0.74408 0.0
C676 C 0.29639 0.86734 0.71028 0.0
C677 C 0.33983 0.8672 0.69543 0.0
C678 C 0.3047 0.9143 0.79785 0.0
C679 C 0.2634 0.85095 0.69032 0.0
H680 H 0.17398 0.85599 0.83515 0.0
H681 H 0.13982 0.90874 0.7431 0.0
H682 H 0.27256 0.83899 0.79073 0.0
H683 H 0.28783 0.86148 0.82749 0.0
H684 H 0.24516 0.841 0.84151 0.0
H685 H 0.19062 0.92513 0.69619 0.0
H686 H 0.24607 0.92586 0.71601 0.0
H687 H 0.23037 0.90387 0.67844 0.0
H688 H 0.38366 0.90849 0.76114 0.0
H689 H 0.34905 0.85529 0.67005 0.0
H690 H 0.29304 0.90424 0.82588 0.0
H691 H 0.27758 0.92605 0.78789 0.0
H692 H 0.33301 0.92528 0.80775 0.0
H693 H 0.25032 0.83879 0.71482 0.0
H694 H 0.27776 0.84041 0.66402 0.0
H695 H 0.23527 0.8611 0.67761 0.0
C696 C 0.68242 0.61232 0.68559 0.0
C697 C 0.64991 0.62194 0.7117 0.0
C698 C 0.72587 0.61046 0.70011 0.0
C699 C 0.73703 0.61932 0.74092 0.0
C700 C 0.70433 0.6297 0.76675 0.0
C701 C 0.66098 0.63044 0.75214 0.0
C702 C 0.75957 0.5986 0.67227 0.0
C703 C 0.71513 0.64017 0.80969 0.0
C704 C 0.83878 0.59857 0.79976 0.0
C705 C 0.86903 0.616 0.78882 0.0
C706 C 0.79598 0.59904 0.7833 0.0
C707 C 0.78289 0.61789 0.75673 0.0
C708 C 0.81324 0.63578 0.74638 0.0
C709 C 0.85625 0.63435 0.76189 0.0
C710 C 0.76495 0.57926 0.79393 0.0
C711 C 0.80014 0.65662 0.71956 0.0
H712 H 0.67356 0.60557 0.65446 0.0
H713 H 0.6357 0.63804 0.77214 0.0
H714 H 0.78641 0.611 0.66459 0.0
H715 H 0.77442 0.58362 0.68964 0.0
H716 H 0.74528 0.59201 0.642 0.0
H717 H 0.68628 0.64867 0.82479 0.0
H718 H 0.72748 0.62633 0.83141 0.0
H719 H 0.74153 0.65343 0.80629 0.0
H720 H 0.849 0.58423 0.82015 0.0
H721 H 0.87977 0.64787 0.75361 0.0
H722 H 0.75176 0.57145 0.76418 0.0
H723 H 0.73668 0.58608 0.81234 0.0
H724 H 0.78104 0.56522 0.81283 0.0
H725 H 0.78918 0.65068 0.68765 0.0
H726 H 0.82741 0.66932 0.71538 0.0
H727 H 0.77209 0.66584 0.73461 0.0
C728 C 0.66456 0.8758 0.74414 0.0
C729 C 0.65346 0.88942 0.70855 0.0
C730 C 0.70705 0.87618 0.76106 0.0
C731 C 0.739 0.89103 0.74264 0.0
C732 C 0.72785 0.90511 0.70703 0.0
C733 C 0.68529 0.90388 0.68999 0.0
C734 C 0.71789 0.86039 0.79823 0.0
C735 C 0.76079 0.92154 0.68714 0.0
C736 C 0.83807 0.90482 0.81194 0.0
C737 C 0.86979 0.88989 0.79444 0.0
C738 C 0.79562 0.90589 0.79463 0.0
C739 C 0.78443 0.89116 0.7599 0.0
C740 C 0.81627 0.87585 0.74254 0.0
C741 C 0.85869 0.87565 0.75964 0.0
C742 C 0.76281 0.92282 0.81334 0.0
C743 C 0.80536 0.85937 0.70637 0.0
H744 H 0.64013 0.86444 0.75838 0.0
H745 H 0.67666 0.91459 0.66271 0.0
H746 H 0.745 0.84835 0.78941 0.0
H747 H 0.72933 0.87101 0.82566 0.0
H748 H 0.68935 0.84972 0.80859 0.0
H749 H 0.74637 0.9321 0.66091 0.0
H750 H 0.77399 0.93365 0.71167 0.0
H751 H 0.78885 0.9114 0.67429 0.0
H752 H 0.84672 0.91601 0.83859 0.0
H753 H 0.88305 0.86393 0.74624 0.0
H754 H 0.7347 0.91303 0.82694 0.0
H755 H 0.74966 0.93441 0.78797 0.0
H756 H 0.77733 0.93393 0.83878 0.0
H757 H 0.77824 0.84753 0.71597 0.0
H758 H 0.83387 0.84848 0.69667 0.0
H759 H 0.79392 0.86946 0.6783 0.0
C760 C 0.35737 0.63242 0.74403 0.0
C761 C 0.36829 0.6187 0.70847 0.0
C762 C 0.3149 0.63219 0.76098 0.0
C763 C 0.28276 0.61743 0.7426 0.0
C764 C 0.29371 0.60328 0.70702 0.0
C765 C 0.33626 0.60433 0.68998 0.0
C766 C 0.30426 0.64803 0.79816 0.0
C767 C 0.26056 0.58694 0.68718 0.0
C768 C 0.18356 0.6037 0.81167 0.0
C769 C 0.15191 0.61865 0.79413 0.0
C770 C 0.22607 0.60266 0.79453 0.0
C771 C 0.23738 0.61742 0.75991 0.0
C772 C 0.20562 0.63277 0.74253 0.0
C773 C 0.16314 0.63296 0.75949 0.0
C774 C 0.2588 0.58569 0.81326 0.0
C775 C 0.21667 0.64928 0.70646 0.0
H776 H 0.38195 0.6437 0.75825 0.0
H777 H 0.34474 0.59355 0.66274 0.0
H778 H 0.27729 0.66016 0.78936 0.0
H779 H 0.29273 0.63746 0.8256 0.0
H780 H 0.33294 0.65861 0.8085 0.0
H781 H 0.27482 0.57633 0.66092 0.0
H782 H 0.24728 0.57487 0.71173 0.0
H783 H 0.23259 0.59717 0.67439 0.0
H784 H 0.17481 0.59247 0.8382 0.0
H785 H 0.13884 0.6447 0.74606 0.0
H786 H 0.28702 0.59545 0.82673 0.0
H787 H 0.27179 0.57403 0.78791 0.0
H788 H 0.24426 0.57467 0.83878 0.0
H789 H 0.24394 0.66102 0.71608 0.0
H790 H 0.18827 0.66026 0.69685 0.0
H791 H 0.22797 0.63918 0.67832 0.0
C792 C 0.68456 0.10328 0.31643 0.0
C793 C 0.65309 0.11787 0.29764 0.0
C794 C 0.72722 0.10191 0.2997 0.0
C795 C 0.73882 0.11599 0.26424 0.0
C796 C 0.70724 0.131 0.24565 0.0
C797 C 0.66463 0.1315 0.26221 0.0
C798 C 0.75977 0.0853 0.31973 0.0
C799 C 0.7186 0.14682 0.20865 0.0
C800 C 0.85862 0.13114 0.24788 0.0
C801 C 0.86967 0.11705 0.21287 0.0
C802 C 0.8162 0.13091 0.26494 0.0
C803 C 0.78433 0.11572 0.2473 0.0
C804 C 0.79552 0.10109 0.21243 0.0
C805 C 0.83798 0.1022 0.19516 0.0
C806 C 0.80527 0.14731 0.30124 0.0
C807 C 0.76268 0.08427 0.19346 0.0
H808 H 0.67553 0.09257 0.34359 0.0
H809 H 0.64045 0.14296 0.24784 0.0
H810 H 0.77295 0.07316 0.29522 0.0
H811 H 0.7879 0.09529 0.3328 0.0
H812 H 0.74501 0.07477 0.34581 0.0
H813 H 0.69031 0.15765 0.19821 0.0
H814 H 0.74586 0.1587 0.21772 0.0
H815 H 0.73001 0.1362 0.18121 0.0
H816 H 0.88298 0.1428 0.26142 0.0
H817 H 0.84663 0.09113 0.16835 0.0
H818 H 0.79342 0.13717 0.32909 0.0
H819 H 0.77843 0.15932 0.29157 0.0
H820 H 0.83388 0.15801 0.3113 0.0
H821 H 0.74913 0.07274 0.21872 0.0
H822 H 0.7773 0.0731 0.16817 0.0
H823 H 0.73484 0.09417 0.17959 0.0
C824 C 0.18377 0.40471 0.18801 0.0
C825 C 0.15284 0.38947 0.2059 0.0
C826 C 0.22646 0.4061 0.20468 0.0
C827 C 0.23865 0.39138 0.23908 0.0
C828 C 0.20763 0.37567 0.25665 0.0
C829 C 0.16496 0.37516 0.24024 0.0
C830 C 0.25837 0.42346 0.18581 0.0
C831 C 0.21964 0.35916 0.29243 0.0
C832 C 0.35894 0.37709 0.25481 0.0
C833 C 0.36935 0.39048 0.29091 0.0
C834 C 0.31662 0.37732 0.23753 0.0
C835 C 0.28414 0.3918 0.25609 0.0
C836 C 0.29468 0.40577 0.29202 0.0
C837 C 0.33708 0.40468 0.30944 0.0
C838 C 0.30641 0.36163 0.20002 0.0
C839 C 0.26117 0.42182 0.31206 0.0
H840 H 0.17425 0.41593 0.16171 0.0
H841 H 0.14116 0.3632 0.25387 0.0
H842 H 0.27094 0.43527 0.21112 0.0
H843 H 0.28697 0.41406 0.17224 0.0
H844 H 0.24325 0.4343 0.16035 0.0
H845 H 0.19182 0.34773 0.30198 0.0
H846 H 0.24744 0.34784 0.28256 0.0
H847 H 0.2305 0.36928 0.32069 0.0
H848 H 0.38373 0.36594 0.24059 0.0
H849 H 0.34518 0.41521 0.3371 0.0
H850 H 0.29406 0.37223 0.17295 0.0
H851 H 0.28015 0.34906 0.20879 0.0
H852 H 0.33549 0.35154 0.18917 0.0
H853 H 0.2471 0.43366 0.28756 0.0
H854 H 0.27535 0.43266 0.33805 0.0
H855 H 0.23378 0.41133 0.32532 0.0
C856 C 0.99101 0.03233 0.08401 0.0
C857 C 0.966 0.05242 0.0757 0.0
C858 C 0.99179 0.01348 0.05508 0.0
C859 C 0.96551 0.01438 0.01786 0.0
C860 C 0.93923 0.03442 0.01004 0.0
C861 C 0.94052 0.0534 0.0386 0.0
C862 C 0.02144 0.99284 0.06388 0.0
C863 C 0.90947 0.03575 0.9717 0.0
C864 C 0.99306 0.97584 0.92223 0.0
C865 C 0.96645 0.95624 0.92953 0.0
C866 C 0.99363 0.99473 0.95108 0.0
C867 C 0.96555 0.99439 0.98708 0.0
C868 C 0.93764 0.97487 0.99376 0.0
C869 C 0.93915 0.9558 0.9654 0.0
C870 C 0.02502 0.01478 0.9436 0.0
C871 C 0.90599 0.97416 0.0307 0.0
H872 H 0.01109 0.03169 0.11249 0.0
H873 H 0.921 0.06891 0.0323 0.0
H874 H 0.00178 0.97659 0.06709 0.0
H875 H 0.0442 0.99022 0.03671 0.0
H876 H 0.04104 0.99524 0.09338 0.0
H877 H 0.88937 0.052 0.97147 0.0
H878 H 0.92916 0.03518 0.94204 0.0
H879 H 0.88719 0.02036 0.97117 0.0
H880 H 0.01454 0.97603 0.89472 0.0
H881 H 0.91843 0.94064 0.9709 0.0
H882 H 0.04672 0.01693 0.9717 0.0
H883 H 0.00664 0.03142 0.93966 0.0
H884 H 0.04572 0.01201 0.91492 0.0
H885 H 0.92427 0.97429 0.06122 0.0
H886 H 0.88471 0.95835 0.02994 0.0
H887 H 0.88487 0.99002 0.03031 0.0
C888 C 0.02701 0.53153 0.91955 0.0
C889 C 0.05452 0.55081 0.92662 0.0
C890 C 0.0263 0.51252 0.94811 0.0
C891 C 0.05511 0.51238 0.98356 0.0
C892 C 0.08393 0.53156 0.98996 0.0
C893 C 0.08258 0.55077 0.96194 0.0
C894 C 0.99395 0.49287 0.94096 0.0
C895 C 0.11634 0.53174 0.0263 0.0
C896 C 0.03015 0.47447 0.08062 0.0
C897 C 0.05422 0.45414 0.07166 0.0
C898 C 0.02947 0.49338 0.05184 0.0
C899 C 0.05493 0.49229 0.0141 0.0
C900 C 0.08023 0.47197 0.00558 0.0
C901 C 0.07882 0.45295 0.03403 0.0
C902 C 0.00082 0.51433 0.06142 0.0
C903 C 0.10912 0.47041 0.96665 0.0
H904 H 0.00492 0.53172 0.8925 0.0
H905 H 0.10397 0.56567 0.96729 0.0
H906 H 0.01155 0.47602 0.93655 0.0
H907 H 0.97267 0.4909 0.96941 0.0
H908 H 0.97287 0.49597 0.91267 0.0
H909 H 0.13831 0.54728 0.02528 0.0
H910 H 0.09868 0.53178 0.05716 0.0
H911 H 0.13673 0.51562 0.02535 0.0
H912 H 0.01074 0.47527 0.10952 0.0
H913 H 0.09763 0.43724 0.02722 0.0
H914 H 0.97772 0.51733 0.03466 0.0
H915 H 0.02121 0.53034 0.06454 0.0
H916 H 0.98165 0.51204 0.09121 0.0
H917 H 0.08887 0.47135 0.93738 0.0
H918 H 0.12846 0.4539 0.9658 0.0
H919 H 0.13209 0.4855 0.9659 0.0
C920 C 0.48961 0.47478 0.42141 0.0
C921 C 0.46434 0.45475 0.4294 0.0
C922 C 0.49023 0.49359 0.45043 0.0
C923 C 0.46354 0.49271 0.48738 0.0
C924 C 0.43701 0.47273 0.49485 0.0
C925 C 0.43846 0.45378 0.46623 0.0
C926 C 0.52014 0.51417 0.442 0.0
C927 C 0.40683 0.47144 0.53288 0.0
C928 C 0.49064 0.53122 0.58316 0.0
C929 C 0.46437 0.55093 0.57556 0.0
C930 C 0.49116 0.51228 0.55442 0.0
C931 C 0.4634 0.51268 0.5182 0.0
C932 C 0.43577 0.53229 0.51125 0.0
C933 C 0.43731 0.55139 0.53952 0.0
C934 C 0.52225 0.49213 0.56222 0.0
C935 C 0.40447 0.53307 0.47403 0.0
H936 H 0.51 0.4754 0.39315 0.0
H937 H 0.41874 0.4383 0.47227 0.0
H938 H 0.50064 0.53047 0.43859 0.0
H939 H 0.54259 0.51672 0.46942 0.0
H940 H 0.54007 0.51174 0.41271 0.0
H941 H 0.38663 0.45522 0.53287 0.0
H942 H 0.42619 0.47195 0.56274 0.0
H943 H 0.38463 0.48687 0.5332 0.0
H944 H 0.51196 0.53101 0.61079 0.0
H945 H 0.41685 0.56663 0.53376 0.0
H946 H 0.54434 0.48996 0.5344 0.0
H947 H 0.50367 0.47553 0.56581 0.0
H948 H 0.54256 0.49479 0.59119 0.0
H949 H 0.42304 0.53298 0.44368 0.0
H950 H 0.38324 0.5489 0.47468 0.0
H951 H 0.3833 0.51724 0.47415 0.0
C952 C 0.52966 0.97529 0.58315 0.0
C953 C 0.55631 0.95576 0.57526 0.0
C954 C 0.52891 0.99439 0.55479 0.0
C955 C 0.55689 0.99436 0.51872 0.0
C956 C 0.58485 0.97491 0.51145 0.0
C957 C 0.58348 0.95562 0.53929 0.0
C958 C 0.49743 0.01433 0.56288 0.0
C959 C 0.61643 0.97453 0.47443 0.0
C960 C 0.53104 0.03297 0.42283 0.0
C961 C 0.55591 0.05305 0.43165 0.0
C962 C 0.53042 0.01392 0.45128 0.0
C963 C 0.55675 0.01458 0.48848 0.0
C964 C 0.58288 0.03462 0.49679 0.0
C965 C 0.58138 0.05382 0.46875 0.0
C966 C 0.50087 0.9933 0.44199 0.0
C967 C 0.61272 0.03571 0.5351 0.0
H968 H 0.50827 0.97524 0.61074 0.0
H969 H 0.60424 0.94052 0.53335 0.0
H970 H 0.51574 0.03096 0.56729 0.0
H971 H 0.47569 0.0167 0.53486 0.0
H972 H 0.47677 0.0113 0.59149 0.0
H973 H 0.6378 0.95875 0.47474 0.0
H974 H 0.59809 0.97485 0.44395 0.0
H975 H 0.63746 0.99041 0.47519 0.0
H976 H 0.51097 0.03251 0.39434 0.0
H977 H 0.60079 0.06933 0.47542 0.0
H978 H 0.47824 0.9904 0.46916 0.0
H979 H 0.52063 0.97711 0.43823 0.0
H980 H 0.48114 0.99591 0.41263 0.0
H981 H 0.59311 0.03489 0.56479 0.0
H982 H 0.63273 0.05199 0.53571 0.0
H983 H 0.63509 0.02035 0.53518 0.0
loop_
_geom_bond_atom_site_label_1
_geom_bond_atom_site_label_2
_geom_bond_distance
_geom_bond_site_symmetry_2
_ccdc_geom_bond_type
Co0 O2 2.143 . S
Co0 O8 2.074 1_455 S
Co0 O11 2.093 . S
Co0 O24 2.097 . S
Co0 N41 2.151 . S
Co0 N49 2.214 . S
Co1 O2 2.160 1_655 S
Co1 O7 2.058 . S
Co1 O17 2.057 . S
Co1 O32 2.037 . S
Co1 N36 2.145 . S
Co1 N57 2.257 1_655 S
O2 Co0 2.143 . S
O2 Co1 2.160 1_455 S
C3 O4 1.278 . S
C3 O11 1.224 . S
O4 C3 1.278 . S
C5 O6 1.236 1_655 S
C5 O17 1.241 . S
O6 C5 1.236 1_455 S
O7 Co1 2.058 . S
O7 C33 1.269 . S
O8 Co0 2.074 1_655 S
O8 C33 1.257 . S
H9 C34 0.930 . S
H10 C40 0.930 . S
O11 Co0 2.093 . S
O11 C3 1.224 . S
H12 C44 0.929 . S
H13 C46 0.930 . S
H14 C47 0.930 . S
H15 C45 0.929 . S
H16 C48 0.928 . S
O17 Co1 2.057 . S
O17 C5 1.241 . S
H18 C37 0.929 . S
H19 C38 0.929 . S
H20 C50 0.931 . S
H21 C42 0.929 . S
H22 C51 0.930 . S
H23 C43 0.931 . S
O24 Co0 2.097 . S
O24 C52 1.229 . S
H25 C53 0.929 . S
H26 C54 0.929 . S
H27 C55 0.930 . S
H28 C56 0.929 . S
H29 C58 0.930 . S
H30 C35 0.930 . S
H31 C39 0.930 . S
O32 Co1 2.037 . S
O32 C52 1.223 1_655 S
C33 O7 1.269 . S
C33 O8 1.257 . S
C34 H9 0.930 . S
C34 C37 1.388 . S
C34 C39 1.418 1_554 S
C35 H30 0.930 . S
C35 C38 1.404 1_556 S
C35 C39 1.353 . S
N36 Co1 2.145 . S
N36 C37 1.397 . S
N36 C38 1.334 . S
C37 H18 0.929 . S
C37 C34 1.388 . S
C37 N36 1.397 . S
C38 H19 0.929 . S
C38 C35 1.404 1_554 S
C38 N36 1.334 . S
C39 H31 0.930 . S
C39 C34 1.418 1_556 S
C39 C35 1.353 . S
C40 H10 0.930 . S
C40 N41 1.330 . S
C40 C42 1.446 . S
N41 Co0 2.151 . S
N41 C40 1.330 . S
N41 C45 1.418 1_455 S
C42 H21 0.929 . S
C42 C40 1.446 . S
C42 C43 1.332 . S
C43 H23 0.931 . S
C43 C42 1.332 . S
C43 C44 1.267 1_455 S
C44 H12 0.929 . S
C44 C43 1.267 1_655 S
C44 C45 1.251 . S
C45 H15 0.929 . S
C45 N41 1.418 1_655 S
C45 C44 1.251 . S
C46 H13 0.930 . S
C46 C48 1.406 . S
C46 C51 1.261 1_455 S
C47 H14 0.930 . S
C47 N49 1.325 1_655 S
C47 C50 1.357 . S
C48 H16 0.928 . S
C48 C46 1.406 . S
C48 N49 1.261 . S
N49 Co0 2.214 . S
N49 C47 1.325 1_455 S
N49 C48 1.261 . S
C50 H20 0.931 . S
C50 C47 1.357 . S
C50 C51 1.312 . S
C51 H22 0.930 . S
C51 C46 1.261 1_655 S
C51 C50 1.312 . S
C52 O24 1.229 . S
C52 O32 1.223 1_455 S
C53 H25 0.929 . S
C53 C56 1.391 . S
C53 C58 1.391 . S
C54 H26 0.929 . S
C54 C55 1.390 . S
C54 N57 1.391 . S
C55 H27 0.930 . S
C55 C54 1.390 . S
C55 C56 1.392 . S
C56 H28 0.929 . S
C56 C53 1.391 . S
C56 C55 1.392 . S
N57 Co1 2.257 1_455 S
N57 C54 1.391 . S
N57 C58 1.388 . S
C58 H29 0.930 . S
C58 C53 1.391 . S
C58 N57 1.388 . S
Co59 O61 2.143 1_455 S
Co59 O67 2.074 . S
Co59 O70 2.093 1_455 S
Co59 O83 2.096 1_455 S
Co59 N100 2.151 . S
Co59 N108 2.214 . S
Co60 O61 2.160 1_455 S
Co60 O66 2.058 . S
Co60 O76 2.057 . S
Co60 O91 2.037 . S
Co60 N95 2.145 . S
Co60 N116 2.257 1_455 S
O61 Co59 2.143 1_655 S
O61 Co60 2.160 1_655 S
C62 O63 1.278 . S
C62 O70 1.224 . S
O63 C62 1.278 . S
C64 O65 1.245 . S
C64 O76 1.232 . S
O65 C64 1.245 . S
O66 Co60 2.058 . S
O66 C92 1.269 . S
O67 Co59 2.074 . S
O67 C92 1.257 . S
H68 C93 0.930 . S
H69 C99 0.930 . S
O70 Co59 2.093 1_655 S
O70 C62 1.224 . S
H71 C103 0.929 . S
H72 C105 0.921 1_655 S
H73 C106 0.930 . S
H74 C104 0.929 . S
H75 C107 0.928 . S
O76 Co60 2.057 . S
O76 C64 1.232 . S
H77 C96 0.929 . S
H78 C97 0.929 . S
H79 C109 0.931 . S
H80 C101 0.929 . S
H81 C110 0.930 . S
H82 C102 0.931 . S
O83 Co59 2.096 1_655 S
O83 C111 1.203 1_655 S
H84 C112 0.929 . S
H85 C113 0.929 1_455 S
H86 C114 0.930 . S
H87 C115 0.929 . S
H88 C117 0.930 . S
H89 C94 0.930 . S
H90 C98 0.930 . S
O91 Co60 2.037 . S
O91 C111 1.234 . S
C92 O66 1.269 . S
C92 O67 1.257 . S
C93 H68 0.930 . S
C93 C96 1.388 . S
C93 C98 1.418 1_554 S
C94 H89 0.930 . S
C94 C97 1.404 1_556 S
C94 C98 1.353 . S
N95 Co60 2.145 . S
N95 C96 1.397 . S
N95 C97 1.334 . S
C96 H77 0.929 . S
C96 C93 1.388 . S
C96 N95 1.397 . S
C97 H78 0.929 . S
C97 C94 1.404 1_554 S
C97 N95 1.334 . S
C98 H90 0.930 . S
C98 C93 1.418 1_556 S
C98 C94 1.353 . S
C99 H69 0.930 . S
C99 N100 1.330 1_655 S
C99 C101 1.446 . S
N100 Co59 2.151 . S
N100 C99 1.330 1_455 S
N100 C104 1.418 . S
C101 H80 0.929 . S
C101 C99 1.446 . S
C101 C102 1.332 1_655 S
C102 H82 0.931 . S
C102 C101 1.332 1_455 S
C102 C103 1.267 . S
C103 H71 0.929 . S
C103 C102 1.267 . S
C103 C104 1.251 . S
C104 H74 0.929 . S
C104 N100 1.418 . S
C104 C103 1.251 . S
C105 H72 0.921 1_455 S
C105 C107 1.402 1_455 S
C105 C110 1.273 . S
C106 H73 0.930 . S
C106 N108 1.325 . S
C106 C109 1.357 . S
C107 H75 0.928 . S
C107 C105 1.402 1_655 S
C107 N108 1.261 1_655 S
N108 Co59 2.214 . S
N108 C106 1.325 . S
N108 C107 1.261 1_455 S
C109 H79 0.931 . S
C109 C106 1.357 . S
C109 C110 1.312 . S
C110 H81 0.930 . S
C110 C105 1.273 . S
C110 C109 1.312 . S
C111 O83 1.203 1_455 S
C111 O91 1.234 . S
C112 H84 0.929 . S
C112 C115 1.391 . S
C112 C117 1.391 . S
C113 H85 0.929 1_655 S
C113 C114 1.390 . S
C113 N116 1.391 . S
C114 H86 0.930 . S
C114 C113 1.390 . S
C114 C115 1.392 . S
C115 H87 0.929 . S
C115 C112 1.391 . S
C115 C114 1.392 . S
N116 Co60 2.257 1_655 S
N116 C113 1.391 . S
N116 C117 1.388 . S
C117 H88 0.930 . S
C117 C112 1.391 . S
C117 N116 1.388 . S
Co118 O120 2.143 . S
Co118 O126 2.074 1_455 S
Co118 O129 2.093 . S
Co118 O142 2.097 . S
Co118 N159 2.151 . S
Co118 N167 2.214 . S
Co119 O120 2.160 1_655 S
Co119 O125 2.058 . S
Co119 O135 2.057 . S
Co119 O150 2.037 . S
Co119 N154 2.145 . S
Co119 N175 2.257 1_655 S
O120 Co118 2.143 . S
O120 Co119 2.160 1_455 S
C121 O122 1.278 . S
C121 O129 1.224 . S
O122 C121 1.278 . S
C123 O124 1.236 1_655 S
C123 O135 1.241 . S
O124 C123 1.236 1_455 S
O125 Co119 2.058 . S
O125 C151 1.269 . S
O126 Co118 2.074 1_655 S
O126 C151 1.257 . S
H127 C152 0.930 . S
H128 C158 0.930 . S
O129 Co118 2.093 . S
O129 C121 1.224 . S
H130 C162 0.929 . S
H131 C164 0.930 . S
H132 C165 0.930 . S
H133 C163 0.929 . S
H134 C166 0.928 . S
O135 Co119 2.057 . S
O135 C123 1.241 . S
H136 C155 0.929 . S
H137 C156 0.929 . S
H138 C168 0.931 . S
H139 C160 0.929 . S
H140 C169 0.930 . S
H141 C161 0.931 . S
O142 Co118 2.097 . S
O142 C170 1.229 . S
H143 C171 0.929 . S
H144 C172 0.929 . S
H145 C173 0.930 . S
H146 C174 0.929 . S
H147 C176 0.930 . S
H148 C153 0.930 . S
H149 C157 0.930 . S
O150 Co119 2.037 . S
O150 C170 1.223 1_655 S
C151 O125 1.269 . S
C151 O126 1.257 . S
C152 H127 0.930 . S
C152 C155 1.388 . S
C152 C157 1.418 1_556 S
C153 H148 0.930 . S
C153 C156 1.404 1_554 S
C153 C157 1.353 . S
N154 Co119 2.145 . S
N154 C155 1.397 . S
N154 C156 1.334 . S
C155 H136 0.929 . S
C155 C152 1.388 . S
C155 N154 1.397 . S
C156 H137 0.929 . S
C156 C153 1.404 1_556 S
C156 N154 1.334 . S
C157 H149 0.930 . S
C157 C152 1.418 1_554 S
C157 C153 1.353 . S
C158 H128 0.930 . S
C158 N159 1.330 . S
C158 C160 1.446 . S
N159 Co118 2.151 . S
N159 C158 1.330 . S
N159 C163 1.418 1_455 S
C160 H139 0.929 . S
C160 C158 1.446 . S
C160 C161 1.332 . S
C161 H141 0.931 . S
C161 C160 1.332 . S
C161 C162 1.267 1_455 S
C162 H130 0.929 . S
C162 C161 1.267 1_655 S
C162 C163 1.251 . S
C163 H133 0.929 . S
C163 N159 1.418 1_655 S
C163 C162 1.251 . S
C164 H131 0.930 . S
C164 C166 1.406 . S
C164 C169 1.261 1_455 S
C165 H132 0.930 . S
C165 N167 1.325 1_655 S
C165 C168 1.357 . S
C166 H134 0.928 . S
C166 C164 1.406 . S
C166 N167 1.261 . S
N167 Co118 2.214 . S
N167 C165 1.325 1_455 S
N167 C166 1.261 . S
C168 H138 0.931 . S
C168 C165 1.357 . S
C168 C169 1.312 . S
C169 H140 0.930 . S
C169 C164 1.261 1_655 S
C169 C168 1.312 . S
C170 O142 1.229 . S
C170 O150 1.223 1_455 S
C171 H143 0.929 . S
C171 C174 1.391 . S
C171 C176 1.391 . S
C172 H144 0.929 . S
C172 C173 1.390 . S
C172 N175 1.391 . S
C173 H145 0.930 . S
C173 C172 1.390 . S
C173 C174 1.392 . S
C174 H146 0.929 . S
C174 C171 1.391 . S
C174 C173 1.392 . S
N175 Co119 2.257 1_455 S
N175 C172 1.391 . S
N175 C176 1.388 . S
C176 H147 0.930 . S
C176 C171 1.391 . S
C176 N175 1.388 . S
Co177 O179 2.143 1_455 S
Co177 O185 2.074 . S
Co177 O188 2.093 1_455 S
Co177 O201 2.096 1_455 S
Co177 N218 2.151 . S
Co177 N226 2.214 . S
Co178 O179 2.160 1_455 S
Co178 O184 2.058 . S
Co178 O194 2.057 . S
Co178 O209 2.037 . S
Co178 N213 2.145 . S
Co178 N234 2.257 1_455 S
O179 Co177 2.143 1_655 S
O179 Co178 2.160 1_655 S
C180 O181 1.278 . S
C180 O188 1.224 . S
O181 C180 1.278 . S
C182 O183 1.245 . S
C182 O194 1.232 . S
O183 C182 1.245 . S
O184 Co178 2.058 . S
O184 C210 1.269 . S
O185 Co177 2.074 . S
O185 C210 1.257 . S
H186 C211 0.930 . S
H187 C217 0.930 . S
O188 Co177 2.093 1_655 S
O188 C180 1.224 . S
H189 C221 0.929 . S
H190 C223 0.921 1_655 S
H191 C224 0.930 . S
H192 C222 0.929 . S
H193 C225 0.928 . S
O194 Co178 2.057 . S
O194 C182 1.232 . S
H195 C214 0.929 . S
H196 C215 0.929 . S
H197 C227 0.931 . S
H198 C219 0.929 . S
H199 C228 0.930 . S
H200 C220 0.931 . S
O201 Co177 2.096 1_655 S
O201 C229 1.203 1_655 S
H202 C230 0.929 . S
H203 C231 0.929 1_455 S
H204 C232 0.930 . S
H205 C233 0.929 . S
H206 C235 0.930 . S
H207 C212 0.930 . S
H208 C216 0.930 . S
O209 Co178 2.037 . S
O209 C229 1.234 . S
C210 O184 1.269 . S
C210 O185 1.257 . S
C211 H186 0.930 . S
C211 C214 1.388 . S
C211 C216 1.418 1_556 S
C212 H207 0.930 . S
C212 C215 1.404 1_554 S
C212 C216 1.353 . S
N213 Co178 2.145 . S
N213 C214 1.397 . S
N213 C215 1.334 . S
C214 H195 0.929 . S
C214 C211 1.388 . S
C214 N213 1.397 . S
C215 H196 0.929 . S
C215 C212 1.404 1_556 S
C215 N213 1.334 . S
C216 H208 0.930 . S
C216 C211 1.418 1_554 S
C216 C212 1.353 . S
C217 H187 0.930 . S
C217 N218 1.330 1_655 S
C217 C219 1.446 . S
N218 Co177 2.151 . S
N218 C217 1.330 1_455 S
N218 C222 1.418 . S
C219 H198 0.929 . S
C219 C217 1.446 . S
C219 C220 1.332 1_655 S
C220 H200 0.931 . S
C220 C219 1.332 1_455 S
C220 C221 1.267 . S
C221 H189 0.929 . S
C221 C220 1.267 . S
C221 C222 1.251 . S
C222 H192 0.929 . S
C222 N218 1.418 . S
C222 C221 1.251 . S
C223 H190 0.921 1_455 S
C223 C225 1.402 1_455 S
C223 C228 1.273 . S
C224 H191 0.930 . S
C224 N226 1.325 . S
C224 C227 1.357 . S
C225 H193 0.928 . S
C225 C223 1.402 1_655 S
C225 N226 1.261 1_655 S
N226 Co177 2.214 . S
N226 C224 1.325 . S
N226 C225 1.261 1_455 S
C227 H197 0.931 . S
C227 C224 1.357 . S
C227 C228 1.312 . S
C228 H199 0.930 . S
C228 C223 1.273 . S
C228 C227 1.312 . S
C229 O201 1.203 1_455 S
C229 O209 1.234 . S
C230 H202 0.929 . S
C230 C233 1.391 . S
C230 C235 1.391 . S
C231 H203 0.929 1_655 S
C231 C232 1.390 . S
C231 N234 1.391 . S
C232 H204 0.930 . S
C232 C231 1.390 . S
C232 C233 1.392 . S
C233 H205 0.929 . S
C233 C230 1.391 . S
C233 C232 1.392 . S
N234 Co178 2.257 1_655 S
N234 C231 1.391 . S
N234 C235 1.388 . S
C235 H206 0.930 . S
C235 C230 1.391 . S
C235 N234 1.388 . S
Co236 O238 2.143 . S
Co236 O244 2.074 . S
Co236 O247 2.093 . S
Co236 O260 2.097 . S
Co236 N277 2.151 . S
Co236 N285 2.214 . S
Co237 O238 2.160 . S
Co237 O243 2.058 . S
Co237 O253 2.057 . S
Co237 O268 2.037 . S
Co237 N272 2.145 . S
Co237 N293 2.257 . S
O238 Co236 2.143 . S
O238 Co237 2.160 . S
C239 O240 1.278 . S
C239 O247 1.224 . S
O240 C239 1.278 . S
C241 O242 1.245 . S
C241 O253 1.232 . S
O242 C241 1.245 . S
O243 Co237 2.058 . S
O243 C269 1.269 . S
O244 Co236 2.074 . S
O244 C269 1.257 . S
H245 C270 0.930 . S
H246 C276 0.930 . S
O247 Co236 2.093 . S
O247 C239 1.224 . S
H248 C280 0.929 . S
H249 C282 0.930 . S
H250 C283 0.930 . S
H251 C281 0.929 . S
H252 C284 0.928 . S
O253 Co237 2.057 . S
O253 C241 1.232 . S
H254 C273 0.929 . S
H255 C274 0.929 . S
H256 C286 0.931 . S
H257 C278 0.929 . S
H258 C287 0.930 . S
H259 C279 0.931 . S
O260 Co236 2.097 . S
O260 C288 1.214 . S
H261 C289 0.929 . S
H262 C290 0.929 . S
H263 C291 0.930 . S
H264 C292 0.929 . S
H265 C294 0.930 . S
H266 C271 0.930 . S
H267 C275 0.930 . S
O268 Co237 2.037 . S
O268 C288 1.234 . S
C269 O243 1.269 . S
C269 O244 1.257 . S
C270 H245 0.930 . S
C270 C273 1.388 . S
C270 C275 1.418 . S
C271 H266 0.930 . S
C271 C274 1.404 . S
C271 C275 1.353 . S
N272 Co237 2.145 . S
N272 C273 1.397 . S
N272 C274 1.334 . S
C273 H254 0.929 . S
C273 C270 1.388 . S
C273 N272 1.397 . S
C274 H255 0.929 . S
C274 C271 1.404 . S
C274 N272 1.334 . S
C275 H267 0.930 . S
C275 C270 1.418 . S
C275 C271 1.353 . S
C276 H246 0.930 . S
C276 N277 1.330 . S
C276 C278 1.446 . S
N277 Co236 2.151 . S
N277 C276 1.330 . S
N277 C281 1.418 . S
C278 H257 0.929 . S
C278 C276 1.446 . S
C278 C279 1.332 . S
C279 H259 0.931 . S
C279 C278 1.332 . S
C279 C280 1.267 . S
C280 H248 0.929 . S
C280 C279 1.267 . S
C280 C281 1.251 . S
C281 H251 0.929 . S
C281 N277 1.418 . S
C281 C280 1.251 . S
C282 H249 0.930 . S
C282 C284 1.406 . S
C282 C287 1.261 . S
C283 H250 0.930 . S
C283 N285 1.325 . S
C283 C286 1.357 . S
C284 H252 0.928 . S
C284 C282 1.406 . S
C284 N285 1.261 . S
N285 Co236 2.214 . S
N285 C283 1.325 . S
N285 C284 1.261 . S
C286 H256 0.931 . S
C286 C283 1.357 . S
C286 C287 1.312 . S
C287 H258 0.930 . S
C287 C282 1.261 . S
C287 C286 1.312 . S
C288 O260 1.214 . S
C288 O268 1.234 . S
C289 H261 0.929 . S
C289 C292 1.391 . S
C289 C294 1.391 . S
C290 H262 0.929 . S
C290 C291 1.390 . S
C290 N293 1.391 . S
C291 H263 0.930 . S
C291 C290 1.390 . S
C291 C292 1.392 . S
C292 H264 0.929 . S
C292 C289 1.391 . S
C292 C291 1.392 . S
N293 Co237 2.257 . S
N293 C290 1.391 . S
N293 C294 1.388 . S
C294 H265 0.930 . S
C294 C289 1.391 . S
C294 N293 1.388 . S
Co295 O297 2.143 . S
Co295 O303 2.074 . S
Co295 O306 2.093 . S
Co295 O319 2.097 . S
Co295 N336 2.151 . S
Co295 N344 2.214 . S
Co296 O297 2.160 . S
Co296 O302 2.058 . S
Co296 O312 2.057 . S
Co296 O327 2.037 . S
Co296 N331 2.145 . S
Co296 N352 2.257 . S
O297 Co295 2.143 . S
O297 Co296 2.160 . S
C298 O299 1.278 . S
C298 O306 1.224 . S
O299 C298 1.278 . S
C300 O301 1.245 . S
C300 O312 1.232 . S
O301 C300 1.245 . S
O302 Co296 2.058 . S
O302 C328 1.269 . S
O303 Co295 2.074 . S
O303 C328 1.257 . S
H304 C329 0.930 . S
H305 C335 0.930 . S
O306 Co295 2.093 . S
O306 C298 1.224 . S
H307 C339 0.929 . S
H308 C341 0.930 . S
H309 C342 0.930 . S
H310 C340 0.929 . S
H311 C343 0.928 . S
O312 Co296 2.057 . S
O312 C300 1.232 . S
H313 C332 0.929 . S
H314 C333 0.929 . S
H315 C345 0.931 . S
H316 C337 0.929 . S
H317 C346 0.930 . S
H318 C338 0.931 . S
O319 Co295 2.097 . S
O319 C347 1.214 . S
H320 C348 0.929 . S
H321 C349 0.929 . S
H322 C350 0.930 . S
H323 C351 0.929 . S
H324 C353 0.930 . S
H325 C330 0.930 . S
H326 C334 0.930 . S
O327 Co296 2.037 . S
O327 C347 1.234 . S
C328 O302 1.269 . S
C328 O303 1.257 . S
C329 H304 0.930 . S
C329 C332 1.388 . S
C329 C334 1.418 . S
C330 H325 0.930 . S
C330 C333 1.404 . S
C330 C334 1.353 . S
N331 Co296 2.145 . S
N331 C332 1.397 . S
N331 C333 1.334 . S
C332 H313 0.929 . S
C332 C329 1.388 . S
C332 N331 1.397 . S
C333 H314 0.929 . S
C333 C330 1.404 . S
C333 N331 1.334 . S
C334 H326 0.930 . S
C334 C329 1.418 . S
C334 C330 1.353 . S
C335 H305 0.930 . S
C335 N336 1.330 . S
C335 C337 1.446 . S
N336 Co295 2.151 . S
N336 C335 1.330 . S
N336 C340 1.418 . S
C337 H316 0.929 . S
C337 C335 1.446 . S
C337 C338 1.332 . S
C338 H318 0.931 . S
C338 C337 1.332 . S
C338 C339 1.267 . S
C339 H307 0.929 . S
C339 C338 1.267 . S
C339 C340 1.251 . S
C340 H310 0.929 . S
C340 N336 1.418 . S
C340 C339 1.251 . S
C341 H308 0.930 . S
C341 C343 1.406 . S
C341 C346 1.261 . S
C342 H309 0.930 . S
C342 N344 1.325 . S
C342 C345 1.357 . S
C343 H311 0.928 . S
C343 C341 1.406 . S
C343 N344 1.261 . S
N344 Co295 2.214 . S
N344 C342 1.325 . S
N344 C343 1.261 . S
C345 H315 0.931 . S
C345 C342 1.357 . S
C345 C346 1.312 . S
C346 H317 0.930 . S
C346 C341 1.261 . S
C346 C345 1.312 . S
C347 O319 1.214 . S
C347 O327 1.234 . S
C348 H320 0.929 . S
C348 C351 1.391 . S
C348 C353 1.391 . S
C349 H321 0.929 . S
C349 C350 1.390 . S
C349 N352 1.391 . S
C350 H322 0.930 . S
C350 C349 1.390 . S
C350 C351 1.392 . S
C351 H323 0.929 . S
C351 C348 1.391 . S
C351 C350 1.392 . S
N352 Co296 2.257 . S
N352 C349 1.391 . S
N352 C353 1.388 . S
C353 H324 0.930 . S
C353 C348 1.391 . S
C353 N352 1.388 . S
Co354 O356 2.143 . S
Co354 O362 2.074 . S
Co354 O365 2.093 . S
Co354 O378 2.097 . S
Co354 N395 2.151 . S
Co354 N403 2.214 . S
Co355 O356 2.160 . S
Co355 O361 2.058 . S
Co355 O371 2.057 . S
Co355 O386 2.037 . S
Co355 N390 2.145 . S
Co355 N411 2.257 . S
O356 Co354 2.143 . S
O356 Co355 2.160 . S
C357 O358 1.278 . S
C357 O365 1.224 . S
O358 C357 1.278 . S
C359 O360 1.245 . S
C359 O371 1.232 . S
O360 C359 1.245 . S
O361 Co355 2.058 . S
O361 C387 1.269 . S
O362 Co354 2.074 . S
O362 C387 1.257 . S
H363 C388 0.930 . S
H364 C394 0.930 . S
O365 Co354 2.093 . S
O365 C357 1.224 . S
H366 C398 0.929 . S
H367 C400 0.930 . S
H368 C401 0.930 . S
H369 C399 0.929 . S
H370 C402 0.928 . S
O371 Co355 2.057 . S
O371 C359 1.232 . S
H372 C391 0.929 . S
H373 C392 0.929 . S
H374 C404 0.931 . S
H375 C396 0.929 . S
H376 C405 0.930 . S
H377 C397 0.931 . S
O378 Co354 2.097 . S
O378 C406 1.214 . S
H379 C407 0.929 . S
H380 C408 0.929 . S
H381 C409 0.930 . S
H382 C410 0.929 . S
H383 C412 0.930 . S
H384 C389 0.930 . S
H385 C393 0.930 . S
O386 Co355 2.037 . S
O386 C406 1.234 . S
C387 O361 1.269 . S
C387 O362 1.257 . S
C388 H363 0.930 . S
C388 C391 1.388 . S
C388 C393 1.418 . S
C389 H384 0.930 . S
C389 C392 1.404 . S
C389 C393 1.353 . S
N390 Co355 2.145 . S
N390 C391 1.397 . S
N390 C392 1.334 . S
C391 H372 0.929 . S
C391 C388 1.388 . S
C391 N390 1.397 . S
C392 H373 0.929 . S
C392 C389 1.404 . S
C392 N390 1.334 . S
C393 H385 0.930 . S
C393 C388 1.418 . S
C393 C389 1.353 . S
C394 H364 0.930 . S
C394 N395 1.330 . S
C394 C396 1.446 . S
N395 Co354 2.151 . S
N395 C394 1.330 . S
N395 C399 1.418 . S
C396 H375 0.929 . S
C396 C394 1.446 . S
C396 C397 1.332 . S
C397 H377 0.931 . S
C397 C396 1.332 . S
C397 C398 1.267 . S
C398 H366 0.929 . S
C398 C397 1.267 . S
C398 C399 1.251 . S
C399 H369 0.929 . S
C399 N395 1.418 . S
C399 C398 1.251 . S
C400 H367 0.930 . S
C400 C402 1.406 . S
C400 C405 1.261 . S
C401 H368 0.930 . S
C401 N403 1.325 . S
C401 C404 1.357 . S
C402 H370 0.928 . S
C402 C400 1.406 . S
C402 N403 1.261 . S
N403 Co354 2.214 . S
N403 C401 1.325 . S
N403 C402 1.261 . S
C404 H374 0.931 . S
C404 C401 1.357 . S
C404 C405 1.312 . S
C405 H376 0.930 . S
C405 C400 1.261 . S
C405 C404 1.312 . S
C406 O378 1.214 . S
C406 O386 1.234 . S
C407 H379 0.929 . S
C407 C410 1.391 . S
C407 C412 1.391 . S
C408 H380 0.929 . S
C408 C409 1.390 . S
C408 N411 1.391 . S
C409 H381 0.930 . S
C409 C408 1.390 . S
C409 C410 1.392 . S
C410 H382 0.929 . S
C410 C407 1.391 . S
C410 C409 1.392 . S
N411 Co355 2.257 . S
N411 C408 1.391 . S
N411 C412 1.388 . S
C412 H383 0.930 . S
C412 C407 1.391 . S
C412 N411 1.388 . S
Co413 O415 2.143 . S
Co413 O421 2.074 . S
Co413 O424 2.093 . S
Co413 O437 2.097 . S
Co413 N454 2.151 . S
Co413 N462 2.214 . S
Co414 O415 2.160 . S
Co414 O420 2.058 . S
Co414 O430 2.057 . S
Co414 O445 2.037 . S
Co414 N449 2.145 . S
Co414 N470 2.257 . S
O415 Co413 2.143 . S
O415 Co414 2.160 . S
C416 O417 1.278 . S
C416 O424 1.224 . S
O417 C416 1.278 . S
C418 O419 1.245 . S
C418 O430 1.232 . S
O419 C418 1.245 . S
O420 Co414 2.058 . S
O420 C446 1.269 . S
O421 Co413 2.074 . S
O421 C446 1.257 . S
H422 C447 0.930 . S
H423 C453 0.930 . S
O424 Co413 2.093 . S
O424 C416 1.224 . S
H425 C457 0.929 . S
H426 C459 0.930 . S
H427 C460 0.930 . S
H428 C458 0.929 . S
H429 C461 0.928 . S
O430 Co414 2.057 . S
O430 C418 1.232 . S
H431 C450 0.929 . S
H432 C451 0.929 . S
H433 C463 0.931 . S
H434 C455 0.929 . S
H435 C464 0.930 . S
H436 C456 0.931 . S
O437 Co413 2.097 . S
O437 C465 1.214 . S
H438 C466 0.929 . S
H439 C467 0.929 . S
H440 C468 0.930 . S
H441 C469 0.929 . S
H442 C471 0.930 . S
H443 C448 0.930 . S
H444 C452 0.930 . S
O445 Co414 2.037 . S
O445 C465 1.234 . S
C446 O420 1.269 . S
C446 O421 1.257 . S
C447 H422 0.930 . S
C447 C450 1.388 . S
C447 C452 1.418 . S
C448 H443 0.930 . S
C448 C451 1.404 . S
C448 C452 1.353 . S
N449 Co414 2.145 . S
N449 C450 1.397 . S
N449 C451 1.334 . S
C450 H431 0.929 . S
C450 C447 1.388 . S
C450 N449 1.397 . S
C451 H432 0.929 . S
C451 C448 1.404 . S
C451 N449 1.334 . S
C452 H444 0.930 . S
C452 C447 1.418 . S
C452 C448 1.353 . S
C453 H423 0.930 . S
C453 N454 1.330 . S
C453 C455 1.446 . S
N454 Co413 2.151 . S
N454 C453 1.330 . S
N454 C458 1.418 . S
C455 H434 0.929 . S
C455 C453 1.446 . S
C455 C456 1.332 . S
C456 H436 0.931 . S
C456 C455 1.332 . S
C456 C457 1.267 . S
C457 H425 0.929 . S
C457 C456 1.267 . S
C457 C458 1.251 . S
C458 H428 0.929 . S
C458 N454 1.418 . S
C458 C457 1.251 . S
C459 H426 0.930 . S
C459 C461 1.406 . S
C459 C464 1.261 . S
C460 H427 0.930 . S
C460 N462 1.325 . S
C460 C463 1.357 . S
C461 H429 0.928 . S
C461 C459 1.406 . S
C461 N462 1.261 . S
N462 Co413 2.214 . S
N462 C460 1.325 . S
N462 C461 1.261 . S
C463 H433 0.931 . S
C463 C460 1.357 . S
C463 C464 1.312 . S
C464 H435 0.930 . S
C464 C459 1.261 . S
C464 C463 1.312 . S
C465 O437 1.214 . S
C465 O445 1.234 . S
C466 H438 0.929 . S
C466 C469 1.391 . S
C466 C471 1.391 . S
C467 H439 0.929 . S
C467 C468 1.390 . S
C467 N470 1.391 . S
C468 H440 0.930 . S
C468 C467 1.390 . S
C468 C469 1.392 . S
C469 H441 0.929 . S
C469 C466 1.391 . S
C469 C468 1.392 . S
N470 Co414 2.257 . S
N470 C467 1.391 . S
N470 C471 1.388 . S
C471 H442 0.930 . S
C471 C466 1.391 . S
C471 N470 1.388 . S
C472 C473 1.391 . S
C472 C474 1.394 . S
C472 H488 0.931 . S
C473 C472 1.391 . S
C473 C477 1.376 1_455 S
C474 C472 1.394 . S
C474 C475 1.369 . S
C474 C478 1.531 . S
C475 C474 1.369 . S
C475 C476 1.410 1_455 S
C475 C483 1.503 . S
C476 C475 1.410 1_655 S
C476 C477 1.392 . S
C476 C479 1.511 . S
C477 C473 1.376 1_655 S
C477 C476 1.392 . S
C477 H489 0.929 . S
C478 C474 1.531 . S
C478 H490 0.960 . S
C478 H491 0.962 . S
C478 H492 0.960 . S
C479 C476 1.511 . S
C479 H493 0.961 . S
C479 H494 0.961 . S
C479 H495 0.961 . S
C480 C481 1.370 1_455 S
C480 C482 1.363 . S
C480 H496 0.931 . S
C481 C480 1.370 1_655 S
C481 C485 1.408 . S
C482 C480 1.363 . S
C482 C483 1.370 . S
C482 C486 1.524 . S
C483 C475 1.503 . S
C483 C482 1.370 . S
C483 C484 1.403 1_455 S
C484 C483 1.403 1_655 S
C484 C485 1.404 . S
C484 C487 1.539 . S
C485 C481 1.408 . S
C485 C484 1.404 . S
C485 H497 0.930 . S
C486 C482 1.524 . S
C486 H498 0.956 . S
C486 H499 0.961 . S
C486 H500 0.961 . S
C487 C484 1.539 . S
C487 H501 0.958 . S
C487 H502 0.961 . S
C487 H503 0.960 . S
H488 C472 0.931 . S
H489 C477 0.929 . S
H490 C478 0.960 . S
H491 C478 0.962 . S
H492 C478 0.960 . S
H493 C479 0.961 . S
H494 C479 0.961 . S
H495 C479 0.961 . S
H496 C480 0.931 . S
H497 C485 0.930 . S
H498 C486 0.956 . S
H499 C486 0.961 . S
H500 C486 0.961 . S
H501 C487 0.958 . S
H502 C487 0.961 . S
H503 C487 0.960 . S
C504 C505 1.391 1_655 S
C504 C506 1.394 . S
C504 H520 0.931 . S
C505 C504 1.391 1_455 S
C505 C509 1.376 . S
C506 C504 1.394 . S
C506 C507 1.369 1_655 S
C506 C510 1.531 . S
C507 C506 1.369 1_455 S
C507 C508 1.410 . S
C507 C515 1.503 . S
C508 C507 1.410 . S
C508 C509 1.392 . S
C508 C511 1.511 . S
C509 C505 1.376 . S
C509 C508 1.392 . S
C509 H521 0.929 . S
C510 C506 1.531 . S
C510 H522 0.960 . S
C510 H523 0.962 . S
C510 H524 0.960 . S
C511 C508 1.511 . S
C511 H525 0.961 . S
C511 H526 0.961 . S
C511 H527 0.961 . S
C512 C513 1.370 1_655 S
C512 C514 1.363 . S
C512 H528 0.931 . S
C513 C512 1.370 1_455 S
C513 C517 1.408 . S
C514 C512 1.363 . S
C514 C515 1.370 1_655 S
C514 C518 1.524 . S
C515 C507 1.503 . S
C515 C514 1.370 1_455 S
C515 C516 1.403 . S
C516 C515 1.403 . S
C516 C517 1.404 . S
C516 C519 1.539 . S
C517 C513 1.408 . S
C517 C516 1.404 . S
C517 H529 0.930 . S
C518 C514 1.524 . S
C518 H530 0.956 . S
C518 H531 0.961 . S
C518 H532 0.961 . S
C519 C516 1.539 . S
C519 H533 0.958 . S
C519 H534 0.961 . S
C519 H535 0.960 . S
H520 C504 0.931 . S
H521 C509 0.929 . S
H522 C510 0.960 . S
H523 C510 0.962 . S
H524 C510 0.960 . S
H525 C511 0.961 . S
H526 C511 0.961 . S
H527 C511 0.961 . S
H528 C512 0.931 . S
H529 C517 0.930 . S
H530 C518 0.956 . S
H531 C518 0.961 . S
H532 C518 0.961 . S
H533 C519 0.958 . S
H534 C519 0.961 . S
H535 C519 0.960 . S
C536 C537 1.391 . S
C536 C538 1.394 . S
C536 H552 0.931 . S
C537 C536 1.391 . S
C537 C541 1.376 . S
C538 C536 1.394 . S
C538 C539 1.369 . S
C538 C542 1.531 . S
C539 C538 1.369 . S
C539 C540 1.410 . S
C539 C547 1.503 . S
C540 C539 1.410 . S
C540 C541 1.392 . S
C540 C543 1.511 . S
C541 C537 1.376 . S
C541 C540 1.392 . S
C541 H553 0.929 . S
C542 C538 1.531 . S
C542 H554 0.960 . S
C542 H555 0.962 . S
C542 H556 0.960 . S
C543 C540 1.511 . S
C543 H557 0.961 . S
C543 H558 0.961 . S
C543 H559 0.961 . S
C544 C545 1.370 . S
C544 C546 1.363 . S
C544 H560 0.931 . S
C545 C544 1.370 . S
C545 C549 1.408 . S
C546 C544 1.363 . S
C546 C547 1.370 . S
C546 C550 1.524 . S
C547 C539 1.503 . S
C547 C546 1.370 . S
C547 C548 1.403 . S
C548 C547 1.403 . S
C548 C549 1.404 . S
C548 C551 1.539 . S
C549 C545 1.408 . S
C549 C548 1.404 . S
C549 H561 0.930 . S
C550 C546 1.524 . S
C550 H562 0.956 . S
C550 H563 0.961 . S
C550 H564 0.961 . S
C551 C548 1.539 . S
C551 H565 0.958 . S
C551 H566 0.961 . S
C551 H567 0.960 . S
H552 C536 0.931 . S
H553 C541 0.929 . S
H554 C542 0.960 . S
H555 C542 0.962 . S
H556 C542 0.960 . S
H557 C543 0.961 . S
H558 C543 0.961 . S
H559 C543 0.961 . S
H560 C544 0.931 . S
H561 C549 0.930 . S
H562 C550 0.956 . S
H563 C550 0.961 . S
H564 C550 0.961 . S
H565 C551 0.958 . S
H566 C551 0.961 . S
H567 C551 0.960 . S
C568 C569 1.391 . S
C568 C570 1.394 . S
C568 H584 0.931 . S
C569 C568 1.391 . S
C569 C573 1.376 . S
C570 C568 1.394 . S
C570 C571 1.369 . S
C570 C574 1.531 . S
C571 C570 1.369 . S
C571 C572 1.410 . S
C571 C579 1.503 . S
C572 C571 1.410 . S
C572 C573 1.392 . S
C572 C575 1.511 . S
C573 C569 1.376 . S
C573 C572 1.392 . S
C573 H585 0.929 . S
C574 C570 1.531 . S
C574 H586 0.960 . S
C574 H587 0.962 . S
C574 H588 0.960 . S
C575 C572 1.511 . S
C575 H589 0.961 . S
C575 H590 0.961 . S
C575 H591 0.961 . S
C576 C577 1.370 . S
C576 C578 1.363 . S
C576 H592 0.931 . S
C577 C576 1.370 . S
C577 C581 1.408 . S
C578 C576 1.363 . S
C578 C579 1.370 . S
C578 C582 1.524 . S
C579 C571 1.503 . S
C579 C578 1.370 . S
C579 C580 1.403 . S
C580 C579 1.403 . S
C580 C581 1.404 . S
C580 C583 1.539 . S
C581 C577 1.408 . S
C581 C580 1.404 . S
C581 H593 0.930 . S
C582 C578 1.524 . S
C582 H594 0.956 . S
C582 H595 0.961 . S
C582 H596 0.961 . S
C583 C580 1.539 . S
C583 H597 0.958 . S
C583 H598 0.961 . S
C583 H599 0.960 . S
H584 C568 0.931 . S
H585 C573 0.929 . S
H586 C574 0.960 . S
H587 C574 0.962 . S
H588 C574 0.960 . S
H589 C575 0.961 . S
H590 C575 0.961 . S
H591 C575 0.961 . S
H592 C576 0.931 . S
H593 C581 0.930 . S
H594 C582 0.956 . S
H595 C582 0.961 . S
H596 C582 0.961 . S
H597 C583 0.958 . S
H598 C583 0.961 . S
H599 C583 0.960 . S
C600 C601 1.391 . S
C600 C602 1.394 . S
C600 H616 0.931 . S
C601 C600 1.391 . S
C601 C605 1.376 . S
C602 C600 1.394 . S
C602 C603 1.369 . S
C602 C606 1.531 . S
C603 C602 1.369 . S
C603 C604 1.410 . S
C603 C611 1.503 . S
C604 C603 1.410 . S
C604 C605 1.392 . S
C604 C607 1.511 . S
C605 C601 1.376 . S
C605 C604 1.392 . S
C605 H617 0.929 . S
C606 C602 1.531 . S
C606 H618 0.960 . S
C606 H619 0.962 . S
C606 H620 0.960 . S
C607 C604 1.511 . S
C607 H621 0.961 . S
C607 H622 0.961 . S
C607 H623 0.961 . S
C608 C609 1.370 . S
C608 C610 1.363 . S
C608 H624 0.931 . S
C609 C608 1.370 . S
C609 C613 1.408 . S
C610 C608 1.363 . S
C610 C611 1.370 . S
C610 C614 1.524 . S
C611 C603 1.503 . S
C611 C610 1.370 . S
C611 C612 1.403 . S
C612 C611 1.403 . S
C612 C613 1.404 . S
C612 C615 1.539 . S
C613 C609 1.408 . S
C613 C612 1.404 . S
C613 H625 0.930 . S
C614 C610 1.524 . S
C614 H626 0.956 . S
C614 H627 0.961 . S
C614 H628 0.961 . S
C615 C612 1.539 . S
C615 H629 0.958 . S
C615 H630 0.961 . S
C615 H631 0.960 . S
H616 C600 0.931 . S
H617 C605 0.929 . S
H618 C606 0.960 . S
H619 C606 0.962 . S
H620 C606 0.960 . S
H621 C607 0.961 . S
H622 C607 0.961 . S
H623 C607 0.961 . S
H624 C608 0.931 . S
H625 C613 0.930 . S
H626 C614 0.956 . S
H627 C614 0.961 . S
H628 C614 0.961 . S
H629 C615 0.958 . S
H630 C615 0.961 . S
H631 C615 0.960 . S
C632 C633 1.391 . S
C632 C634 1.394 . S
C632 H648 0.931 . S
C633 C632 1.391 . S
C633 C637 1.376 . S
C634 C632 1.394 . S
C634 C635 1.369 . S
C634 C638 1.531 . S
C635 C634 1.369 . S
C635 C636 1.410 . S
C635 C643 1.503 . S
C636 C635 1.410 . S
C636 C637 1.392 . S
C636 C639 1.511 . S
C637 C633 1.376 . S
C637 C636 1.392 . S
C637 H649 0.929 . S
C638 C634 1.531 . S
C638 H650 0.960 . S
C638 H651 0.962 . S
C638 H652 0.960 . S
C639 C636 1.511 . S
C639 H653 0.961 . S
C639 H654 0.961 . S
C639 H655 0.961 . S
C640 C641 1.370 . S
C640 C642 1.363 . S
C640 H656 0.931 . S
C641 C640 1.370 . S
C641 C645 1.408 . S
C642 C640 1.363 . S
C642 C643 1.370 . S
C642 C646 1.524 . S
C643 C635 1.503 . S
C643 C642 1.370 . S
C643 C644 1.403 . S
C644 C643 1.403 . S
C644 C645 1.404 . S
C644 C647 1.539 . S
C645 C641 1.408 . S
C645 C644 1.404 . S
C645 H657 0.930 . S
C646 C642 1.524 . S
C646 H658 0.956 . S
C646 H659 0.961 . S
C646 H660 0.961 . S
C647 C644 1.539 . S
C647 H661 0.958 . S
C647 H662 0.961 . S
C647 H663 0.960 . S
H648 C632 0.931 . S
H649 C637 0.929 . S
H650 C638 0.960 . S
H651 C638 0.962 . S
H652 C638 0.960 . S
H653 C639 0.961 . S
H654 C639 0.961 . S
H655 C639 0.961 . S
H656 C640 0.931 . S
H657 C645 0.930 . S
H658 C646 0.956 . S
H659 C646 0.961 . S
H660 C646 0.961 . S
H661 C647 0.958 . S
H662 C647 0.961 . S
H663 C647 0.960 . S
C664 C665 1.391 . S
C664 C666 1.394 . S
C664 H680 0.931 . S
C665 C664 1.391 . S
C665 C669 1.376 . S
C666 C664 1.394 . S
C666 C667 1.369 . S
C666 C670 1.531 . S
C667 C666 1.369 . S
C667 C668 1.410 . S
C667 C675 1.503 . S
C668 C667 1.410 . S
C668 C669 1.392 . S
C668 C671 1.511 . S
C669 C665 1.376 . S
C669 C668 1.392 . S
C669 H681 0.929 . S
C670 C666 1.531 . S
C670 H682 0.960 . S
C670 H683 0.962 . S
C670 H684 0.960 . S
C671 C668 1.511 . S
C671 H685 0.961 . S
C671 H686 0.961 . S
C671 H687 0.961 . S
C672 C673 1.370 . S
C672 C674 1.363 . S
C672 H688 0.931 . S
C673 C672 1.370 . S
C673 C677 1.408 . S
C674 C672 1.363 . S
C674 C675 1.370 . S
C674 C678 1.524 . S
C675 C667 1.503 . S
C675 C674 1.370 . S
C675 C676 1.403 . S
C676 C675 1.403 . S
C676 C677 1.404 . S
C676 C679 1.539 . S
C677 C673 1.408 . S
C677 C676 1.404 . S
C677 H689 0.930 . S
C678 C674 1.524 . S
C678 H690 0.956 . S
C678 H691 0.961 . S
C678 H692 0.961 . S
C679 C676 1.539 . S
C679 H693 0.958 . S
C679 H694 0.961 . S
C679 H695 0.960 . S
H680 C664 0.931 . S
H681 C669 0.929 . S
H682 C670 0.960 . S
H683 C670 0.962 . S
H684 C670 0.960 . S
H685 C671 0.961 . S
H686 C671 0.961 . S
H687 C671 0.961 . S
H688 C672 0.931 . S
H689 C677 0.930 . S
H690 C678 0.956 . S
H691 C678 0.961 . S
H692 C678 0.961 . S
H693 C679 0.958 . S
H694 C679 0.961 . S
H695 C679 0.960 . S
C696 C697 1.391 . S
C696 C698 1.394 . S
C696 H712 0.931 . S
C697 C696 1.391 . S
C697 C701 1.376 . S
C698 C696 1.394 . S
C698 C699 1.369 . S
C698 C702 1.531 . S
C699 C698 1.369 . S
C699 C700 1.410 . S
C699 C707 1.503 . S
C700 C699 1.410 . S
C700 C701 1.392 . S
C700 C703 1.511 . S
C701 C697 1.376 . S
C701 C700 1.392 . S
C701 H713 0.929 . S
C702 C698 1.531 . S
C702 H714 0.960 . S
C702 H715 0.962 . S
C702 H716 0.960 . S
C703 C700 1.511 . S
C703 H717 0.961 . S
C703 H718 0.961 . S
C703 H719 0.961 . S
C704 C705 1.370 . S
C704 C706 1.363 . S
C704 H720 0.931 . S
C705 C704 1.370 . S
C705 C709 1.408 . S
C706 C704 1.363 . S
C706 C707 1.370 . S
C706 C710 1.524 . S
C707 C699 1.503 . S
C707 C706 1.370 . S
C707 C708 1.403 . S
C708 C707 1.403 . S
C708 C709 1.404 . S
C708 C711 1.539 . S
C709 C705 1.408 . S
C709 C708 1.404 . S
C709 H721 0.930 . S
C710 C706 1.524 . S
C710 H722 0.956 . S
C710 H723 0.961 . S
C710 H724 0.961 . S
C711 C708 1.539 . S
C711 H725 0.958 . S
C711 H726 0.961 . S
C711 H727 0.960 . S
H712 C696 0.931 . S
H713 C701 0.929 . S
H714 C702 0.960 . S
H715 C702 0.962 . S
H716 C702 0.960 . S
H717 C703 0.961 . S
H718 C703 0.961 . S
H719 C703 0.961 . S
H720 C704 0.931 . S
H721 C709 0.930 . S
H722 C710 0.956 . S
H723 C710 0.961 . S
H724 C710 0.961 . S
H725 C711 0.958 . S
H726 C711 0.961 . S
H727 C711 0.960 . S
C728 C729 1.391 . S
C728 C730 1.394 . S
C728 H744 0.931 . S
C729 C728 1.391 . S
C729 C733 1.376 . S
C730 C728 1.394 . S
C730 C731 1.369 . S
C730 C734 1.531 . S
C731 C730 1.369 . S
C731 C732 1.410 . S
C731 C739 1.503 . S
C732 C731 1.410 . S
C732 C733 1.392 . S
C732 C735 1.511 . S
C733 C729 1.376 . S
C733 C732 1.392 . S
C733 H745 0.929 . S
C734 C730 1.531 . S
C734 H746 0.960 . S
C734 H747 0.962 . S
C734 H748 0.960 . S
C735 C732 1.511 . S
C735 H749 0.961 . S
C735 H750 0.961 . S
C735 H751 0.961 . S
C736 C737 1.370 . S
C736 C738 1.363 . S
C736 H752 0.931 . S
C737 C736 1.370 . S
C737 C741 1.408 . S
C738 C736 1.363 . S
C738 C739 1.370 . S
C738 C742 1.524 . S
C739 C731 1.503 . S
C739 C738 1.370 . S
C739 C740 1.403 . S
C740 C739 1.403 . S
C740 C741 1.404 . S
C740 C743 1.539 . S
C741 C737 1.408 . S
C741 C740 1.404 . S
C741 H753 0.930 . S
C742 C738 1.524 . S
C742 H754 0.956 . S
C742 H755 0.961 . S
C742 H756 0.961 . S
C743 C740 1.539 . S
C743 H757 0.958 . S
C743 H758 0.961 . S
C743 H759 0.960 . S
H744 C728 0.931 . S
H745 C733 0.929 . S
H746 C734 0.960 . S
H747 C734 0.962 . S
H748 C734 0.960 . S
H749 C735 0.961 . S
H750 C735 0.961 . S
H751 C735 0.961 . S
H752 C736 0.931 . S
H753 C741 0.930 . S
H754 C742 0.956 . S
H755 C742 0.961 . S
H756 C742 0.961 . S
H757 C743 0.958 . S
H758 C743 0.961 . S
H759 C743 0.960 . S
C760 C761 1.391 . S
C760 C762 1.394 . S
C760 H776 0.931 . S
C761 C760 1.391 . S
C761 C765 1.376 . S
C762 C760 1.394 . S
C762 C763 1.369 . S
C762 C766 1.531 . S
C763 C762 1.369 . S
C763 C764 1.410 . S
C763 C771 1.503 . S
C764 C763 1.410 . S
C764 C765 1.392 . S
C764 C767 1.511 . S
C765 C761 1.376 . S
C765 C764 1.392 . S
C765 H777 0.929 . S
C766 C762 1.531 . S
C766 H778 0.960 . S
C766 H779 0.962 . S
C766 H780 0.960 . S
C767 C764 1.511 . S
C767 H781 0.961 . S
C767 H782 0.961 . S
C767 H783 0.961 . S
C768 C769 1.370 . S
C768 C770 1.363 . S
C768 H784 0.931 . S
C769 C768 1.370 . S
C769 C773 1.408 . S
C770 C768 1.363 . S
C770 C771 1.370 . S
C770 C774 1.524 . S
C771 C763 1.503 . S
C771 C770 1.370 . S
C771 C772 1.403 . S
C772 C771 1.403 . S
C772 C773 1.404 . S
C772 C775 1.539 . S
C773 C769 1.408 . S
C773 C772 1.404 . S
C773 H785 0.930 . S
C774 C770 1.524 . S
C774 H786 0.956 . S
C774 H787 0.961 . S
C774 H788 0.961 . S
C775 C772 1.539 . S
C775 H789 0.958 . S
C775 H790 0.961 . S
C775 H791 0.960 . S
H776 C760 0.931 . S
H777 C765 0.929 . S
H778 C766 0.960 . S
H779 C766 0.962 . S
H780 C766 0.960 . S
H781 C767 0.961 . S
H782 C767 0.961 . S
H783 C767 0.961 . S
H784 C768 0.931 . S
H785 C773 0.930 . S
H786 C774 0.956 . S
H787 C774 0.961 . S
H788 C774 0.961 . S
H789 C775 0.958 . S
H790 C775 0.961 . S
H791 C775 0.960 . S
C792 C793 1.391 . S
C792 C794 1.394 . S
C792 H808 0.931 . S
C793 C792 1.391 . S
C793 C797 1.376 . S
C794 C792 1.394 . S
C794 C795 1.369 . S
C794 C798 1.531 . S
C795 C794 1.369 . S
C795 C796 1.410 . S
C795 C803 1.503 . S
C796 C795 1.410 . S
C796 C797 1.392 . S
C796 C799 1.511 . S
C797 C793 1.376 . S
C797 C796 1.392 . S
C797 H809 0.929 . S
C798 C794 1.531 . S
C798 H810 0.960 . S
C798 H811 0.962 . S
C798 H812 0.960 . S
C799 C796 1.511 . S
C799 H813 0.961 . S
C799 H814 0.961 . S
C799 H815 0.961 . S
C800 C801 1.370 . S
C800 C802 1.363 . S
C800 H816 0.931 . S
C801 C800 1.370 . S
C801 C805 1.408 . S
C802 C800 1.363 . S
C802 C803 1.370 . S
C802 C806 1.524 . S
C803 C795 1.503 . S
C803 C802 1.370 . S
C803 C804 1.403 . S
C804 C803 1.403 . S
C804 C805 1.404 . S
C804 C807 1.539 . S
C805 C801 1.408 . S
C805 C804 1.404 . S
C805 H817 0.930 . S
C806 C802 1.524 . S
C806 H818 0.956 . S
C806 H819 0.961 . S
C806 H820 0.961 . S
C807 C804 1.539 . S
C807 H821 0.958 . S
C807 H822 0.961 . S
C807 H823 0.960 . S
H808 C792 0.931 . S
H809 C797 0.929 . S
H810 C798 0.960 . S
H811 C798 0.962 . S
H812 C798 0.960 . S
H813 C799 0.961 . S
H814 C799 0.961 . S
H815 C799 0.961 . S
H816 C800 0.931 . S
H817 C805 0.930 . S
H818 C806 0.956 . S
H819 C806 0.961 . S
H820 C806 0.961 . S
H821 C807 0.958 . S
H822 C807 0.961 . S
H823 C807 0.960 . S
C824 C825 1.391 . S
C824 C826 1.394 . S
C824 H840 0.931 . S
C825 C824 1.391 . S
C825 C829 1.376 . S
C826 C824 1.394 . S
C826 C827 1.369 . S
C826 C830 1.531 . S
C827 C826 1.369 . S
C827 C828 1.410 . S
C827 C835 1.503 . S
C828 C827 1.410 . S
C828 C829 1.392 . S
C828 C831 1.511 . S
C829 C825 1.376 . S
C829 C828 1.392 . S
C829 H841 0.929 . S
C830 C826 1.531 . S
C830 H842 0.960 . S
C830 H843 0.962 . S
C830 H844 0.960 . S
C831 C828 1.511 . S
C831 H845 0.961 . S
C831 H846 0.961 . S
C831 H847 0.961 . S
C832 C833 1.370 . S
C832 C834 1.363 . S
C832 H848 0.931 . S
C833 C832 1.370 . S
C833 C837 1.408 . S
C834 C832 1.363 . S
C834 C835 1.370 . S
C834 C838 1.524 . S
C835 C827 1.503 . S
C835 C834 1.370 . S
C835 C836 1.403 . S
C836 C835 1.403 . S
C836 C837 1.404 . S
C836 C839 1.539 . S
C837 C833 1.408 . S
C837 C836 1.404 . S
C837 H849 0.930 . S
C838 C834 1.524 . S
C838 H850 0.956 . S
C838 H851 0.961 . S
C838 H852 0.961 . S
C839 C836 1.539 . S
C839 H853 0.958 . S
C839 H854 0.961 . S
C839 H855 0.960 . S
H840 C824 0.931 . S
H841 C829 0.929 . S
H842 C830 0.960 . S
H843 C830 0.962 . S
H844 C830 0.960 . S
H845 C831 0.961 . S
H846 C831 0.961 . S
H847 C831 0.961 . S
H848 C832 0.931 . S
H849 C837 0.930 . S
H850 C838 0.956 . S
H851 C838 0.961 . S
H852 C838 0.961 . S
H853 C839 0.958 . S
H854 C839 0.961 . S
H855 C839 0.960 . S
C856 C857 1.391 1_455 S
C856 C858 1.394 . S
C856 H872 0.931 . S
C857 C856 1.391 1_655 S
C857 C861 1.376 . S
C858 C856 1.394 . S
C858 C859 1.369 1_455 S
C858 C862 1.531 1_545 S
C859 C858 1.369 1_655 S
C859 C860 1.410 . S
C859 C867 1.503 1_544 S
C860 C859 1.410 . S
C860 C861 1.392 . S
C860 C863 1.511 1_554 S
C861 C857 1.376 . S
C861 C860 1.392 . S
C861 H873 0.929 . S
C862 C858 1.531 1_565 S
C862 H874 0.960 . S
C862 H875 0.962 . S
C862 H876 0.960 . S
C863 C860 1.511 1_556 S
C863 H877 0.961 . S
C863 H878 0.961 . S
C863 H879 0.961 . S
C864 C865 1.370 1_455 S
C864 C866 1.363 . S
C864 H880 0.931 . S
C865 C864 1.370 1_655 S
C865 C869 1.408 . S
C866 C864 1.363 . S
C866 C867 1.370 1_455 S
C866 C870 1.524 1_565 S
C867 C859 1.503 1_566 S
C867 C866 1.370 1_655 S
C867 C868 1.403 . S
C868 C867 1.403 . S
C868 C869 1.404 . S
C868 C871 1.539 1_556 S
C869 C865 1.408 . S
C869 C868 1.404 . S
C869 H881 0.930 . S
C870 C866 1.524 1_545 S
C870 H882 0.956 . S
C870 H883 0.961 . S
C870 H884 0.961 . S
C871 C868 1.539 1_554 S
C871 H885 0.958 . S
C871 H886 0.961 . S
C871 H887 0.960 . S
H872 C856 0.931 . S
H873 C861 0.929 . S
H874 C862 0.960 . S
H875 C862 0.962 . S
H876 C862 0.960 . S
H877 C863 0.961 . S
H878 C863 0.961 . S
H879 C863 0.961 . S
H880 C864 0.931 . S
H881 C869 0.930 . S
H882 C870 0.956 . S
H883 C870 0.961 . S
H884 C870 0.961 . S
H885 C871 0.958 . S
H886 C871 0.961 . S
H887 C871 0.960 . S
C888 C889 1.391 1_655 S
C888 C890 1.394 . S
C888 H904 0.931 . S
C889 C888 1.391 1_455 S
C889 C893 1.376 . S
C890 C888 1.394 . S
C890 C891 1.369 1_655 S
C890 C894 1.531 . S
C891 C890 1.369 1_455 S
C891 C892 1.410 . S
C891 C899 1.503 1_556 S
C892 C891 1.410 . S
C892 C893 1.392 . S
C892 C895 1.511 1_556 S
C893 C889 1.376 . S
C893 C892 1.392 . S
C893 H905 0.929 . S
C894 C890 1.531 . S
C894 H906 0.960 . S
C894 H907 0.962 . S
C894 H908 0.960 . S
C895 C892 1.511 1_554 S
C895 H909 0.961 . S
C895 H910 0.961 . S
C895 H911 0.961 . S
C896 C897 1.374 . S
C896 C898 1.364 . S
C896 H912 0.926 1_455 S
C897 C896 1.374 . S
C897 C901 1.408 . S
C898 C896 1.364 . S
C898 C899 1.370 . S
C898 C902 1.524 1_455 S
C899 C891 1.503 1_554 S
C899 C898 1.370 . S
C899 C900 1.403 . S
C900 C899 1.403 . S
C900 C901 1.404 . S
C900 C903 1.539 1_554 S
C901 C897 1.408 . S
C901 C900 1.404 . S
C901 H913 0.930 . S
C902 C898 1.524 1_655 S
C902 H914 0.956 . S
C902 H915 0.961 . S
C902 H916 0.961 . S
C903 C900 1.539 1_556 S
C903 H917 0.958 . S
C903 H918 0.961 . S
C903 H919 0.960 . S
H904 C888 0.931 . S
H905 C893 0.929 . S
H906 C894 0.960 . S
H907 C894 0.962 . S
H908 C894 0.960 . S
H909 C895 0.961 . S
H910 C895 0.961 . S
H911 C895 0.961 . S
H912 C896 0.926 1_655 S
H913 C901 0.930 . S
H914 C902 0.956 . S
H915 C902 0.961 . S
H916 C902 0.961 . S
H917 C903 0.958 . S
H918 C903 0.961 . S
H919 C903 0.960 . S
C920 C921 1.391 . S
C920 C922 1.394 . S
C920 H936 0.931 . S
C921 C920 1.391 . S
C921 C925 1.376 . S
C922 C920 1.394 . S
C922 C923 1.369 . S
C922 C926 1.531 . S
C923 C922 1.369 . S
C923 C924 1.410 . S
C923 C931 1.503 . S
C924 C923 1.410 . S
C924 C925 1.392 . S
C924 C927 1.511 . S
C925 C921 1.376 . S
C925 C924 1.392 . S
C925 H937 0.929 . S
C926 C922 1.531 . S
C926 H938 0.960 . S
C926 H939 0.962 . S
C926 H940 0.960 . S
C927 C924 1.511 . S
C927 H941 0.961 . S
C927 H942 0.961 . S
C927 H943 0.961 . S
C928 C929 1.370 . S
C928 C930 1.363 . S
C928 H944 0.931 . S
C929 C928 1.370 . S
C929 C933 1.408 . S
C930 C928 1.363 . S
C930 C931 1.370 . S
C930 C934 1.524 . S
C931 C923 1.503 . S
C931 C930 1.370 . S
C931 C932 1.403 . S
C932 C931 1.403 . S
C932 C933 1.404 . S
C932 C935 1.539 . S
C933 C929 1.408 . S
C933 C932 1.404 . S
C933 H945 0.930 . S
C934 C930 1.524 . S
C934 H946 0.956 . S
C934 H947 0.961 . S
C934 H948 0.961 . S
C935 C932 1.539 . S
C935 H949 0.958 . S
C935 H950 0.961 . S
C935 H951 0.960 . S
H936 C920 0.931 . S
H937 C925 0.929 . S
H938 C926 0.960 . S
H939 C926 0.962 . S
H940 C926 0.960 . S
H941 C927 0.961 . S
H942 C927 0.961 . S
H943 C927 0.961 . S
H944 C928 0.931 . S
H945 C933 0.930 . S
H946 C934 0.956 . S
H947 C934 0.961 . S
H948 C934 0.961 . S
H949 C935 0.958 . S
H950 C935 0.961 . S
H951 C935 0.960 . S
C952 C953 1.391 . S
C952 C954 1.394 . S
C952 H968 0.931 . S
C953 C952 1.391 . S
C953 C957 1.376 . S
C954 C952 1.394 . S
C954 C955 1.369 . S
C954 C958 1.531 1_565 S
C955 C954 1.369 . S
C955 C956 1.410 . S
C955 C963 1.503 1_565 S
C956 C955 1.410 . S
C956 C957 1.392 . S
C956 C959 1.511 . S
C957 C953 1.376 . S
C957 C956 1.392 . S
C957 H969 0.929 . S
C958 C954 1.531 1_545 S
C958 H970 0.960 . S
C958 H971 0.962 . S
C958 H972 0.960 . S
C959 C956 1.511 . S
C959 H973 0.961 . S
C959 H974 0.961 . S
C959 H975 0.961 . S
C960 C961 1.370 . S
C960 C962 1.363 . S
C960 H976 0.931 . S
C961 C960 1.370 . S
C961 C965 1.408 . S
C962 C960 1.363 . S
C962 C963 1.370 . S
C962 C966 1.524 1_545 S
C963 C955 1.503 1_545 S
C963 C962 1.370 . S
C963 C964 1.403 . S
C964 C963 1.403 . S
C964 C965 1.404 . S
C964 C967 1.539 . S
C965 C961 1.408 . S
C965 C964 1.404 . S
C965 H977 0.930 . S
C966 C962 1.524 1_565 S
C966 H978 0.956 . S
C966 H979 0.961 . S
C966 H980 0.961 . S
C967 C964 1.539 . S
C967 H981 0.958 . S
C967 H982 0.961 . S
C967 H983 0.960 . S
H968 C952 0.931 . S
H969 C957 0.929 . S
H970 C958 0.960 . S
H971 C958 0.962 . S
H972 C958 0.960 . S
H973 C959 0.961 . S
H974 C959 0.961 . S
H975 C959 0.961 . S
H976 C960 0.931 . S
H977 C965 0.930 . S
H978 C966 0.956 . S
H979 C966 0.961 . S
H980 C966 0.961 . S
H981 C967 0.958 . S
H982 C967 0.961 . S
H983 C967 0.960 . S
C473 C111 1.489 . S
C481 C52 1.508 1_655 S
C505 C170 1.491 . S
C513 C229 1.508 . S
C537 C288 1.492 . S
C545 C347 1.508 . S
C569 C406 1.491 . S
C577 C465 1.508 . S
C601 C416 1.219 . S
C609 C3 1.228 . S
C633 C357 1.211 . S
C641 C62 1.225 . S
C665 C121 1.214 . S
C673 C298 1.226 . S
C697 C239 1.209 . S
C705 C180 1.223 . S
C729 C328 1.720 . S
C737 C151 1.727 . S
C761 C269 1.721 . S
C769 C210 1.727 . S
C793 C446 1.726 . S
C801 C33 1.728 . S
C825 C92 1.725 . S
C833 C387 1.727 . S
C857 C5 1.478 . S
C865 C123 1.483 . S
C889 C182 1.476 . S
C897 C64 1.483 . S
C921 C359 1.476 . S
C929 C241 1.483 . S
C953 C300 1.476 . S
C961 C418 1.483 . S
