# Generated by pormake.
# Topology umu, (4)-cn, num edge types: 1
# Building blocks:
#     Node 0, Type 0, BuildingBlock: KUFVIS_clean_sbu_0, # of connection points: 4
#     Node 1, Type 0, BuildingBlock: KUFVIS_clean_sbu_0, # of connection points: 4
#     Node 2, Type 0, BuildingBlock: KUFVIS_clean_sbu_0, # of connection points: 4
#     Node 3, Type 0, BuildingBlock: KUFVIS_clean_sbu_0, # of connection points: 4
#     Node 4, Type 0, BuildingBlock: KUFVIS_clean_sbu_0, # of connection points: 4
#     Node 5, Type 0, BuildingBlock: KUFVIS_clean_sbu_0, # of connection points: 4
#     Node 6, Type 0, BuildingBlock: KUFVIS_clean_sbu_0, # of connection points: 4
#     Node 7, Type 0, BuildingBlock: KUFVIS_clean_sbu_0, # of connection points: 4
#     Node 8, Type 0, BuildingBlock: KUFVIS_clean_sbu_0, # of connection points: 4
#     Node 9, Type 0, BuildingBlock: KUFVIS_clean_sbu_0, # of connection points: 4
#     Node 10, Type 0, BuildingBlock: KUFVIS_clean_sbu_0, # of connection points: 4
#     Node 11, Type 0, BuildingBlock: KUFVIS_clean_sbu_0, # of connection points: 4
#     Node 12, Type 0, BuildingBlock: KUFVIS_clean_sbu_0, # of connection points: 4
#     Node 13, Type 0, BuildingBlock: KUFVIS_clean_sbu_0, # of connection points: 4
#     Node 14, Type 0, BuildingBlock: KUFVIS_clean_sbu_0, # of connection points: 4
#     Node 15, Type 0, BuildingBlock: KUFVIS_clean_sbu_0, # of connection points: 4
#     Node 16, Type 0, BuildingBlock: KUFVIS_clean_sbu_0, # of connection points: 4
#     Node 17, Type 0, BuildingBlock: KUFVIS_clean_sbu_0, # of connection points: 4
#     Node 18, Type 0, BuildingBlock: KUFVIS_clean_sbu_0, # of connection points: 4
#     Node 19, Type 0, BuildingBlock: KUFVIS_clean_sbu_0, # of connection points: 4
#     Node 20, Type 0, BuildingBlock: KUFVIS_clean_sbu_0, # of connection points: 4
#     Node 21, Type 0, BuildingBlock: KUFVIS_clean_sbu_0, # of connection points: 4
#     Node 22, Type 0, BuildingBlock: KUFVIS_clean_sbu_0, # of connection points: 4
#     Node 23, Type 0, BuildingBlock: KUFVIS_clean_sbu_0, # of connection points: 4
#     Node 24, Type 0, BuildingBlock: KUFVIS_clean_sbu_0, # of connection points: 4
#     Node 25, Type 0, BuildingBlock: KUFVIS_clean_sbu_0, # of connection points: 4
#     Node 26, Type 0, BuildingBlock: KUFVIS_clean_sbu_0, # of connection points: 4
#     Node 27, Type 0, BuildingBlock: KUFVIS_clean_sbu_0, # of connection points: 4
#     Node 28, Type 0, BuildingBlock: KUFVIS_clean_sbu_0, # of connection points: 4
#     Node 29, Type 0, BuildingBlock: KUFVIS_clean_sbu_0, # of connection points: 4
#     Node 30, Type 0, BuildingBlock: KUFVIS_clean_sbu_0, # of connection points: 4
#     Node 31, Type 0, BuildingBlock: KUFVIS_clean_sbu_0, # of connection points: 4
#     Edge 32, Type (0, 0), BuildingBlock: XIVTED_clean_linker_0, # of connection points: 2
#     Edge 33, Type (0, 0), BuildingBlock: XIVTED_clean_linker_0, # of connection points: 2
#     Edge 34, Type (0, 0), BuildingBlock: XIVTED_clean_linker_0, # of connection points: 2
#     Edge 35, Type (0, 0), BuildingBlock: XIVTED_clean_linker_0, # of connection points: 2
#     Edge 36, Type (0, 0), BuildingBlock: XIVTED_clean_linker_0, # of connection points: 2
#     Edge 37, Type (0, 0), BuildingBlock: XIVTED_clean_linker_0, # of connection points: 2
#     Edge 38, Type (0, 0), BuildingBlock: XIVTED_clean_linker_0, # of connection points: 2
#     Edge 39, Type (0, 0), BuildingBlock: XIVTED_clean_linker_0, # of connection points: 2
#     Edge 40, Type (0, 0), BuildingBlock: XIVTED_clean_linker_0, # of connection points: 2
#     Edge 41, Type (0, 0), BuildingBlock: XIVTED_clean_linker_0, # of connection points: 2
#     Edge 42, Type (0, 0), BuildingBlock: XIVTED_clean_linker_0, # of connection points: 2
#     Edge 43, Type (0, 0), BuildingBlock: XIVTED_clean_linker_0, # of connection points: 2
#     Edge 44, Type (0, 0), BuildingBlock: XIVTED_clean_linker_0, # of connection points: 2
#     Edge 45, Type (0, 0), BuildingBlock: XIVTED_clean_linker_0, # of connection points: 2
#     Edge 46, Type (0, 0), BuildingBlock: XIVTED_clean_linker_0, # of connection points: 2
#     Edge 47, Type (0, 0), BuildingBlock: XIVTED_clean_linker_0, # of connection points: 2
#     Edge 48, Type (0, 0), BuildingBlock: XIVTED_clean_linker_0, # of connection points: 2
#     Edge 49, Type (0, 0), BuildingBlock: XIVTED_clean_linker_0, # of connection points: 2
#     Edge 50, Type (0, 0), BuildingBlock: XIVTED_clean_linker_0, # of connection points: 2
#     Edge 51, Type (0, 0), BuildingBlock: XIVTED_clean_linker_0, # of connection points: 2
#     Edge 52, Type (0, 0), BuildingBlock: XIVTED_clean_linker_0, # of connection points: 2
#     Edge 53, Type (0, 0), BuildingBlock: XIVTED_clean_linker_0, # of connection points: 2
#     Edge 54, Type (0, 0), BuildingBlock: XIVTED_clean_linker_0, # of connection points: 2
#     Edge 55, Type (0, 0), BuildingBlock: XIVTED_clean_linker_0, # of connection points: 2
#     Edge 56, Type (0, 0), BuildingBlock: XIVTED_clean_linker_0, # of connection points: 2
#     Edge 57, Type (0, 0), BuildingBlock: XIVTED_clean_linker_0, # of connection points: 2
#     Edge 58, Type (0, 0), BuildingBlock: XIVTED_clean_linker_0, # of connection points: 2
#     Edge 59, Type (0, 0), BuildingBlock: XIVTED_clean_linker_0, # of connection points: 2
#     Edge 60, Type (0, 0), BuildingBlock: XIVTED_clean_linker_0, # of connection points: 2
#     Edge 61, Type (0, 0), BuildingBlock: XIVTED_clean_linker_0, # of connection points: 2
#     Edge 62, Type (0, 0), BuildingBlock: XIVTED_clean_linker_0, # of connection points: 2
#     Edge 63, Type (0, 0), BuildingBlock: XIVTED_clean_linker_0, # of connection points: 2
#     Edge 64, Type (0, 0), BuildingBlock: XIVTED_clean_linker_0, # of connection points: 2
#     Edge 65, Type (0, 0), BuildingBlock: XIVTED_clean_linker_0, # of connection points: 2
#     Edge 66, Type (0, 0), BuildingBlock: XIVTED_clean_linker_0, # of connection points: 2
#     Edge 67, Type (0, 0), BuildingBlock: XIVTED_clean_linker_0, # of connection points: 2
#     Edge 68, Type (0, 0), BuildingBlock: XIVTED_clean_linker_0, # of connection points: 2
#     Edge 69, Type (0, 0), BuildingBlock: XIVTED_clean_linker_0, # of connection points: 2
#     Edge 70, Type (0, 0), BuildingBlock: XIVTED_clean_linker_0, # of connection points: 2
#     Edge 71, Type (0, 0), BuildingBlock: XIVTED_clean_linker_0, # of connection points: 2
#     Edge 72, Type (0, 0), BuildingBlock: XIVTED_clean_linker_0, # of connection points: 2
#     Edge 73, Type (0, 0), BuildingBlock: XIVTED_clean_linker_0, # of connection points: 2
#     Edge 74, Type (0, 0), BuildingBlock: XIVTED_clean_linker_0, # of connection points: 2
#     Edge 75, Type (0, 0), BuildingBlock: XIVTED_clean_linker_0, # of connection points: 2
#     Edge 76, Type (0, 0), BuildingBlock: XIVTED_clean_linker_0, # of connection points: 2
#     Edge 77, Type (0, 0), BuildingBlock: XIVTED_clean_linker_0, # of connection points: 2
#     Edge 78, Type (0, 0), BuildingBlock: XIVTED_clean_linker_0, # of connection points: 2
#     Edge 79, Type (0, 0), BuildingBlock: XIVTED_clean_linker_0, # of connection points: 2
#     Edge 80, Type (0, 0), BuildingBlock: XIVTED_clean_linker_0, # of connection points: 2
#     Edge 81, Type (0, 0), BuildingBlock: XIVTED_clean_linker_0, # of connection points: 2
#     Edge 82, Type (0, 0), BuildingBlock: XIVTED_clean_linker_0, # of connection points: 2
#     Edge 83, Type (0, 0), BuildingBlock: XIVTED_clean_linker_0, # of connection points: 2
#     Edge 84, Type (0, 0), BuildingBlock: XIVTED_clean_linker_0, # of connection points: 2
#     Edge 85, Type (0, 0), BuildingBlock: XIVTED_clean_linker_0, # of connection points: 2
#     Edge 86, Type (0, 0), BuildingBlock: XIVTED_clean_linker_0, # of connection points: 2
#     Edge 87, Type (0, 0), BuildingBlock: XIVTED_clean_linker_0, # of connection points: 2
#     Edge 88, Type (0, 0), BuildingBlock: XIVTED_clean_linker_0, # of connection points: 2
#     Edge 89, Type (0, 0), BuildingBlock: XIVTED_clean_linker_0, # of connection points: 2
#     Edge 90, Type (0, 0), BuildingBlock: XIVTED_clean_linker_0, # of connection points: 2
#     Edge 91, Type (0, 0), BuildingBlock: XIVTED_clean_linker_0, # of connection points: 2
#     Edge 92, Type (0, 0), BuildingBlock: XIVTED_clean_linker_0, # of connection points: 2
#     Edge 93, Type (0, 0), BuildingBlock: XIVTED_clean_linker_0, # of connection points: 2
#     Edge 94, Type (0, 0), BuildingBlock: XIVTED_clean_linker_0, # of connection points: 2
#     Edge 95, Type (0, 0), BuildingBlock: XIVTED_clean_linker_0, # of connection points: 2
# Relax obj value: 0.128
# Max RMSD: 0.097
# Mean RMSD: 0.097
data_MOF--net-umu--node1-KUFVIS_clean_sbu_0--edge1-XIVTED_clean_linker_0
_symmetry_space_group_name_H-M    P1
_symmetry_Int_Tables_number       1
_symmetry_cell_setting            triclinic
loop_
_symmetry_equiv_pos_as_xyz
'x, y, z'
_cell_length_a     84.421156
_cell_length_b     84.415678
_cell_length_c     25.247012
_cell_angle_alpha  89.991256
_cell_angle_beta   89.990626
_cell_angle_gamma 90.021577
loop_
_atom_site_label
_atom_site_type_symbol
_atom_site_fract_x
_atom_site_fract_y
_atom_site_fract_z
_atom_type_partial_charge
Mn0 Mn 0.20677 0.16263 0.07191 0.0
Mn1 Mn 0.24515 0.17353 0.08361 0.0
C2 C 0.22102 0.17079 -0.00144 0.0
C3 C 0.18813 0.14269 0.05367 0.0
C4 C 0.21748 0.19443 0.11713 0.0
O5 O 0.21299 0.15411 0.14554 0.0
O6 O 0.23923 0.15954 0.14295 0.0
C7 C 0.2601 0.14222 0.06659 0.0
N8 N 0.25851 0.15774 0.05286 0.0
C9 C 0.27815 0.15517 0.98431 0.0
C10 C 0.28009 0.13919 -0.002 0.0
C11 C 0.27098 0.13268 0.03918 0.0
C12 C 0.26709 0.16408 0.01293 0.0
H13 H 0.25309 0.13717 0.09812 0.0
C14 C 0.22704 0.15333 0.1647 0.0
O15 O 0.18403 0.15565 0.07789 0.0
O16 O 0.20309 0.14089 0.04417 0.0
N17 N 0.25261 0.18709 0.02816 0.0
C18 C 0.24904 0.2026 0.01902 0.0
C19 C 0.25705 0.21087 0.97883 0.0
C20 C 0.26877 0.20318 0.94889 0.0
C21 C 0.2724 0.18728 0.95947 0.0
C22 C 0.2641 0.17968 0.00025 0.0
H23 H 0.24015 0.20864 0.04219 0.0
O24 O 0.20569 0.17093 -0.0025 0.0
O25 O 0.22746 0.16569 0.04181 0.0
O26 O 0.20628 0.18543 0.10102 0.0
O27 O 0.23215 0.19065 0.1147 0.0
C28 C 0.28381 0.17863 0.93081 0.0
C29 C 0.28661 0.16256 0.94299 0.0
H30 H 0.28846 0.13179 0.97692 0.0
H31 H 0.27235 0.12033 0.04978 0.0
H32 H 0.2542 0.22314 0.97099 0.0
H33 H 0.27486 0.20957 0.91776 0.0
H34 H 0.29037 0.18416 0.89891 0.0
H35 H 0.29525 0.15597 0.92018 0.0
Mn36 Mn 0.09486 0.95536 0.31939 0.0
Mn37 Mn 0.08344 0.99371 0.32697 0.0
C38 C 0.0888 0.96956 0.24385 0.0
C39 C 0.11507 0.93667 0.3061 0.0
C40 C 0.0618 0.96604 0.35403 0.0
O41 O 0.10162 0.96168 0.39496 0.0
O42 O 0.0951 0.98768 0.39137 0.0
C43 C 0.11512 0.00872 0.32315 0.0
N44 N 0.10024 0.00709 0.303 0.0
C45 C 0.10531 0.02678 0.23621 0.0
C46 C 0.12066 0.02874 0.25641 0.0
C47 C 0.12559 0.01963 0.29997 0.0
C48 C 0.09542 0.01569 0.26085 0.0
H49 H 0.11895 1.00173 0.35663 0.0
C50 C 0.1011 0.97567 0.41473 0.0
O51 O 0.10158 0.9326 0.32701 0.0
O52 O 0.11719 0.95164 0.29758 0.0
N53 N 0.072 1.00122 0.2665 0.0
C54 C 0.05697 0.99761 0.25098 0.0
C55 C 0.05029 0.00556 0.20751 0.0
C56 C 0.05904 0.01727 0.1809 0.0
C57 C 0.07439 0.02097 0.19816 0.0
C58 C 0.0804 0.0127 0.24184 0.0
H59 H 0.05014 0.98871 0.27152 0.0
O60 O 0.08847 0.95423 0.24299 0.0
O61 O 0.09268 0.97604 0.28842 0.0
O62 O 0.07139 0.95483 0.34225 0.0
O63 O 0.06538 0.98073 0.35103 0.0
C64 C 0.08403 0.03241 0.17337 0.0
C65 C 0.09951 0.03525 0.19219 0.0
H66 H 0.12878 0.03713 0.23861 0.0
H67 H 0.13744 0.02102 0.31565 0.0
H68 H 0.03842 1.00266 0.19454 0.0
H69 H 0.05389 0.02329 0.14717 0.0
H70 H 0.07972 0.03896 0.13938 0.0
H71 H 0.10688 0.04392 0.17232 0.0
Mn72 Mn 0.30105 0.84393 0.57198 0.0
Mn73 Mn 0.26264 0.83294 0.58304 0.0
C74 C 0.28632 0.83762 0.49781 0.0
C75 C 0.31973 0.86407 0.55656 0.0
C76 C 0.29029 0.81115 0.60918 0.0
O77 O 0.2953 0.85098 0.64777 0.0
O78 O 0.26916 0.84499 0.64613 0.0
C79 C 0.2479 0.86471 0.57789 0.0
N80 N 0.24927 0.84969 0.55876 0.0
C81 C 0.22926 0.8545 0.49283 0.0
C82 C 0.22756 0.87 0.51202 0.0
C83 C 0.23696 0.87513 0.55463 0.0
C84 C 0.24038 0.84467 0.51752 0.0
H85 H 0.25511 0.8687 0.6106 0.0
C86 C 0.28141 0.85088 0.66838 0.0
O87 O 0.32391 0.85063 0.57753 0.0
O88 O 0.30472 0.86618 0.54905 0.0
N89 N 0.25466 0.82117 0.52398 0.0
C90 C 0.25804 0.806 0.50935 0.0
C91 C 0.24979 0.79911 0.46687 0.0
C92 C 0.23804 0.80781 0.44032 0.0
C93 C 0.23458 0.8233 0.45667 0.0
C94 C 0.24312 0.82951 0.49944 0.0
H95 H 0.26698 0.79922 0.52984 0.0
O96 O 0.30163 0.83725 0.4958 0.0
O97 O 0.28016 0.84176 0.54263 0.0
O98 O 0.30152 0.82052 0.59574 0.0
O99 O 0.27562 0.81493 0.60747 0.0
C100 C 0.22311 0.83289 0.43182 0.0
C101 C 0.22051 0.8485 0.44972 0.0
H102 H 0.21916 0.87808 0.49413 0.0
H103 H 0.23577 0.8871 0.56951 0.0
H104 H 0.25249 0.78713 0.45461 0.0
H105 H 0.23179 0.8025 0.40732 0.0
H106 H 0.21638 0.82844 0.39848 0.0
H107 H 0.21183 0.85583 0.42982 0.0
Mn108 Mn 0.41216 0.05039 0.8155 0.0
Mn109 Mn 0.42397 0.01219 0.82553 0.0
C110 C 0.41941 0.03623 0.74099 0.0
C111 C 0.39176 0.0688 0.80043 0.0
C112 C 0.44497 0.04025 0.8543 0.0
O113 O 0.40481 0.04407 0.89052 0.0
O114 O 0.41109 0.01803 0.88762 0.0
C115 C 0.39261 0.99676 0.81564 0.0
N116 N 0.4078 0.99855 0.79854 0.0
C117 C 0.40422 0.97868 0.73126 0.0
C118 C 0.38856 0.97655 0.74837 0.0
C119 C 0.38272 0.98567 0.79061 0.0
C120 C 0.41349 0.98996 0.75756 0.0
H121 H 0.38808 1.00376 0.84807 0.0
C122 C 0.40485 0.03005 0.91014 0.0
O123 O 0.40502 0.07304 0.82246 0.0
O124 O 0.38996 0.05381 0.79142 0.0
N125 N 0.43656 0.00476 0.76758 0.0
C126 C 0.45188 0.00839 0.75551 0.0
C127 C 0.45953 1.00028 0.71426 0.0
C128 C 0.45145 0.98838 0.68631 0.0
C129 C 0.43577 0.9847 0.69987 0.0
C130 C 0.42879 0.9931 0.74162 0.0
H131 H 0.45823 0.01739 0.77722 0.0
O132 O 0.4193 0.05157 0.73985 0.0
O133 O 0.41507 0.0297 0.78504 0.0
O134 O 0.43542 0.05128 0.84052 0.0
O135 O 0.44146 0.02551 0.85251 0.0
C136 C 0.42675 0.97309 0.67341 0.0
C137 C 0.41095 0.97017 0.68885 0.0
H138 H 0.3809 0.968 0.72919 0.0
H139 H 0.37062 0.98415 0.80389 0.0
H140 H 0.47165 1.00315 0.70412 0.0
H141 H 0.45739 0.98216 0.65447 0.0
H142 H 0.43179 0.96647 0.64078 0.0
H143 H 0.40408 0.96135 0.66777 0.0
Mn144 Mn 0.20632 0.84201 0.09809 0.0
Mn145 Mn 0.24455 0.83024 0.08995 0.0
C146 C 0.22054 0.8357 0.17337 0.0
C147 C 0.18778 0.86231 0.11203 0.0
C148 C 0.21664 0.80892 0.06263 0.0
O149 O 0.21269 0.84892 0.02273 0.0
O150 O 0.23865 0.84218 0.02588 0.0
C151 C 0.25995 0.86172 0.09458 0.0
N152 N 0.25812 0.84682 0.11438 0.0
C153 C 0.27779 0.85152 0.18155 0.0
C154 C 0.27996 0.86688 0.16169 0.0
C155 C 0.27096 0.87201 0.11812 0.0
C156 C 0.26662 0.84181 0.15653 0.0
H157 H 0.25305 0.8657 0.06113 0.0
C158 C 0.22668 0.8484 0.00291 0.0
O159 O 0.18362 0.84892 0.09069 0.0
O160 O 0.20276 0.86431 0.12057 0.0
N161 N 0.25188 0.81858 0.15021 0.0
C162 C 0.248 0.80359 0.16558 0.0
C163 C 0.25577 0.79676 0.20915 0.0
C164 C 0.26756 0.80532 0.23606 0.0
C165 C 0.27151 0.82063 0.21902 0.0
C166 C 0.26342 0.8268 0.17521 0.0
H167 H 0.23903 0.79691 0.14485 0.0
O168 O 0.20521 0.83545 0.17438 0.0
O169 O 0.22699 0.83959 0.12877 0.0
O170 O 0.20556 0.81861 0.07467 0.0
O171 O 0.23137 0.81235 0.06545 0.0
C172 C 0.28303 0.83008 0.24417 0.0
C173 C 0.28611 0.84555 0.22562 0.0
H174 H 0.28842 0.87487 0.17978 0.0
H175 H 0.27252 0.88388 0.10271 0.0
H176 H 0.25268 0.78492 0.22197 0.0
H177 H 0.27344 0.80005 0.26988 0.0
H178 H 0.28945 0.82565 0.27823 0.0
H179 H 0.29482 0.85279 0.24578 0.0
Mn180 Mn 0.41266 0.95618 0.34177 0.0
Mn181 Mn 0.42408 0.99449 0.33072 0.0
C182 C 0.41989 0.97059 0.41575 0.0
C183 C 0.39262 0.9375 0.35835 0.0
C184 C 0.44533 0.96665 0.3024 0.0
O185 O 0.40504 0.96222 0.2668 0.0
O186 O 0.41154 0.98823 0.26842 0.0
C187 C 0.39247 0.00943 0.33904 0.0
N188 N 0.40763 0.00794 0.35673 0.0
C189 C 0.4035 0.02786 0.42346 0.0
C190 C 0.38786 0.02969 0.40578 0.0
C191 C 0.38231 0.02039 0.3635 0.0
C192 C 0.41304 0.01671 0.39771 0.0
H193 H 0.38816 1.0023 0.30657 0.0
C194 C 0.40529 0.97614 0.24636 0.0
O195 O 0.40584 0.93341 0.33569 0.0
O196 O 0.39061 0.95249 0.36681 0.0
N197 N 0.4364 1.00232 0.38871 0.0
C198 C 0.45176 0.99904 0.40118 0.0
C199 C 0.45917 0.0074 0.4424 0.0
C200 C 0.45079 0.01918 0.46991 0.0
C201 C 0.43506 0.02251 0.4559 0.0
C202 C 0.42835 0.01389 0.41417 0.0
H203 H 0.45833 0.99012 0.37981 0.0
O204 O 0.42002 0.95526 0.41718 0.0
O205 O 0.41537 0.97699 0.37168 0.0
O206 O 0.43585 0.95554 0.31598 0.0
O207 O 0.44179 0.98137 0.30466 0.0
C208 C 0.42576 0.03398 0.48188 0.0
C209 C 0.40995 0.03658 0.46591 0.0
H210 H 0.37999 0.03813 0.42452 0.0
H211 H 0.37024 0.02168 0.34976 0.0
H212 H 0.47132 0.00479 0.45287 0.0
H213 H 0.45653 0.02558 0.50173 0.0
H214 H 0.43059 0.04076 0.51452 0.0
H215 H 0.40286 0.0453 0.48659 0.0
Mn216 Mn 0.2997 0.16434 0.59692 0.0
Mn217 Mn 0.26167 0.17682 0.58788 0.0
C218 C 0.28588 0.17223 0.67148 0.0
C219 C 0.31794 0.14385 0.61301 0.0
C220 C 0.28988 0.19717 0.55661 0.0
O221 O 0.293 0.15646 0.52294 0.0
O222 O 0.26732 0.1641 0.52531 0.0
C223 C 0.24594 0.1456 0.59727 0.0
N224 N 0.24794 0.16072 0.61481 0.0
C225 C 0.22828 0.15713 0.68278 0.0
C226 C 0.22595 0.14153 0.66527 0.0
C227 C 0.23485 0.13573 0.62244 0.0
C228 C 0.23954 0.16637 0.65627 0.0
H229 H 0.25277 0.14111 0.56436 0.0
C230 C 0.27906 0.15729 0.50295 0.0
O231 O 0.32223 0.15688 0.58953 0.0
O232 O 0.30298 0.1423 0.62295 0.0
N233 N 0.25448 0.18936 0.64626 0.0
C234 C 0.2583 0.2046 0.65862 0.0
C235 C 0.25042 0.21221 0.70049 0.0
C236 C 0.23857 0.20414 0.72877 0.0
C237 C 0.23469 0.18853 0.71486 0.0
C238 C 0.24286 0.18161 0.6725 0.0
H239 H 0.26728 0.21092 0.63669 0.0
O240 O 0.30122 0.17204 0.67189 0.0
O241 O 0.27915 0.16771 0.62797 0.0
O242 O 0.3008 0.18737 0.56947 0.0
O243 O 0.27509 0.19415 0.56078 0.0
C244 C 0.22312 0.17953 0.74159 0.0
C245 C 0.21999 0.16381 0.72578 0.0
H246 H 0.2174 0.13389 0.68458 0.0
H247 H 0.23316 0.1237 0.60883 0.0
H248 H 0.25345 0.22427 0.71089 0.0
H249 H 0.23256 0.21003 0.76115 0.0
H250 H 0.21667 0.18454 0.77469 0.0
H251 H 0.2112 0.15694 0.74704 0.0
Mn252 Mn 0.09446 0.05034 0.84544 0.0
Mn253 Mn 0.08357 0.01188 0.83506 0.0
C254 C 0.08859 0.03558 0.91999 0.0
C255 C 0.11452 0.06915 0.8595 0.0
C256 C 0.06157 0.03947 0.8099 0.0
O257 O 0.10121 0.04457 0.7694 0.0
O258 O 0.09546 0.01837 0.77154 0.0
C259 C 0.11537 0.99718 0.83927 0.0
N260 N 0.10041 0.99854 0.85887 0.0
C261 C 0.10542 0.97855 0.92471 0.0
C262 C 0.12086 0.97686 0.90501 0.0
C263 C 0.12587 0.98625 0.86221 0.0
C264 C 0.09551 0.98966 0.90031 0.0
H265 H 0.11927 0.00439 0.80643 0.0
C266 C 0.10123 0.03064 0.74903 0.0
O267 O 0.10095 0.07321 0.83924 0.0
O268 O 0.11677 0.05416 0.86713 0.0
N269 N 0.07199 1.00394 0.89465 0.0
C270 C 0.05689 0.00736 0.90993 0.0
C271 C 0.05015 0.99914 0.95275 0.0
C272 C 0.05892 0.98738 0.97899 0.0
C273 C 0.07434 0.98389 0.96201 0.0
C274 C 0.08041 0.99241 0.91895 0.0
H275 H 0.05004 0.0163 0.88969 0.0
O276 O 0.08813 0.0509 0.922 0.0
O277 O 0.09252 0.02944 0.87494 0.0
O278 O 0.07096 0.05071 0.82301 0.0
O279 O 0.06543 0.02482 0.81116 0.0
C280 C 0.084 0.97242 0.98652 0.0
C281 C 0.09956 0.96981 0.96806 0.0
H282 H 0.129 0.96846 0.92265 0.0
H283 H 0.13779 0.98507 0.84694 0.0
H284 H 0.03822 1.00187 0.96551 0.0
H285 H 0.05372 0.98115 0.01224 0.0
H286 H 0.07966 0.96569 0.02005 0.0
H287 H 0.10695 0.96113 0.98773 0.0
Mn288 Mn 0.80021 0.84266 0.0962 0.0
Mn289 Mn 0.76214 0.83043 0.08634 0.0
C290 C 0.78619 0.835 0.17051 0.0
C291 C 0.81841 0.86313 0.11255 0.0
C292 C 0.79031 0.80981 0.05663 0.0
O293 O 0.79379 0.85035 0.02175 0.0
O294 O 0.76798 0.8431 0.02381 0.0
C295 C 0.7466 0.86175 0.0951 0.0
N296 N 0.74845 0.84663 0.11279 0.0
C297 C 0.72871 0.85041 0.18039 0.0
C298 C 0.72653 0.866 0.16271 0.0
C299 C 0.73555 0.87171 0.11999 0.0
C300 C 0.73995 0.84106 0.15417 0.0
H301 H 0.75352 0.86618 0.0623 0.0
C302 C 0.77986 0.84972 0.0016 0.0
O303 O 0.8228 0.85005 0.08963 0.0
O304 O 0.80341 0.86474 0.12158 0.0
N305 N 0.75473 0.81798 0.14466 0.0
C306 C 0.75841 0.80271 0.15721 0.0
C307 C 0.75039 0.79518 0.19895 0.0
C308 C 0.73856 0.80335 0.22694 0.0
C309 C 0.73483 0.81898 0.21285 0.0
C310 C 0.74312 0.82582 0.1706 0.0
H311 H 0.76738 0.79631 0.13551 0.0
O312 O 0.80152 0.83515 0.17139 0.0
O313 O 0.77958 0.83946 0.12674 0.0
O314 O 0.80127 0.81954 0.06971 0.0
O315 O 0.77553 0.813 0.05985 0.0
C316 C 0.72328 0.82808 0.23929 0.0
C317 C 0.7203 0.84381 0.2233 0.0
H318 H 0.71801 0.87372 0.18179 0.0
H319 H 0.73397 0.88375 0.10626 0.0
H320 H 0.7533 0.7831 0.20949 0.0
H321 H 0.73243 0.79752 0.2592 0.0
H322 H 0.71674 0.82314 0.27231 0.0
H323 H 0.71154 0.85075 0.24434 0.0
Mn324 Mn 0.91168 0.05029 0.84739 0.0
Mn325 Mn 0.92292 0.01191 0.837 0.0
C326 C 0.91759 0.03552 0.92185 0.0
C327 C 0.89158 0.06907 0.8619 0.0
C328 C 0.94481 0.03962 0.81289 0.0
O329 O 0.90495 0.04454 0.77124 0.0
O330 O 0.91151 0.01854 0.77275 0.0
C331 C 0.89109 0.99718 0.83842 0.0
N332 N 0.90592 0.99851 0.85918 0.0
C333 C 0.90045 0.97837 0.92413 0.0
C334 C 0.88515 0.97672 0.90326 0.0
C335 C 0.88043 0.98621 0.86032 0.0
C336 C 0.91053 0.98953 0.90076 0.0
H337 H 0.88743 0.00446 0.80543 0.0
C338 C 0.90554 0.03071 0.75028 0.0
O339 O 0.90512 0.07315 0.84141 0.0
O340 O 0.88933 0.05407 0.86932 0.0
N341 N 0.93411 1.00379 0.8971 0.0
C342 C 0.94916 0.00707 0.91323 0.0
C343 C 0.95565 0.99869 0.95611 0.0
C344 C 0.94668 0.9869 0.9815 0.0
C345 C 0.93133 0.98353 0.96358 0.0
C346 C 0.92552 0.99221 0.92048 0.0
H347 H 0.95616 0.01603 0.89361 0.0
O348 O 0.91801 0.05084 0.9239 0.0
O349 O 0.9137 0.02936 0.87679 0.0
O350 O 0.9352 0.0508 0.82486 0.0
O351 O 0.94116 0.02493 0.81483 0.0
C352 C 0.92149 0.97203 0.98714 0.0
C353 C 0.90603 0.96951 0.96761 0.0
H354 H 0.87689 0.96828 0.92007 0.0
H355 H 0.86862 0.98505 0.84413 0.0
H356 H 0.96753 1.00131 0.96957 0.0
H357 H 0.95168 0.98054 0.0148 0.0
H358 H 0.92562 0.96519 0.02071 0.0
H359 H 0.89851 0.96078 0.9865 0.0
Mn360 Mn 0.70918 0.16161 0.59283 0.0
Mn361 Mn 0.74723 0.17406 0.58667 0.0
C362 C 0.7224 0.17021 0.66791 0.0
C363 C 0.69092 0.14117 0.60968 0.0
C364 C 0.71926 0.19384 0.54911 0.0
O365 O 0.71681 0.15287 0.52064 0.0
O366 O 0.74263 0.15974 0.52734 0.0
C367 C 0.76295 0.14331 0.60744 0.0
N368 N 0.76084 0.15889 0.6196 0.0
C369 C 0.78018 0.15744 0.68945 0.0
C370 C 0.78278 0.14147 0.67697 0.0
C371 C 0.77404 0.13435 0.63604 0.0
C372 C 0.76892 0.16575 0.6597 0.0
H373 H 0.75611 0.13776 0.57648 0.0
C374 C 0.7312 0.15262 0.50409 0.0
O375 O 0.68675 0.1539 0.58428 0.0
O376 O 0.70582 0.13981 0.62097 0.0
N377 N 0.75337 0.18796 0.64299 0.0
C378 C 0.74877 0.20319 0.65213 0.0
C379 C 0.75596 0.21185 0.6931 0.0
C380 C 0.76795 0.20485 0.72377 0.0
C381 C 0.77263 0.18924 0.71319 0.0
C382 C 0.76505 0.1812 0.67182 0.0
H383 H 0.73969 0.20871 0.62837 0.0
O384 O 0.70706 0.16998 0.66719 0.0
O385 O 0.72934 0.16545 0.62529 0.0
O386 O 0.70822 0.18434 0.56322 0.0
O387 O 0.73401 0.19063 0.55351 0.0
C388 C 0.78438 0.18127 0.74252 0.0
C389 C 0.78807 0.16534 0.73093 0.0
H390 H 0.7913 0.1345 0.69902 0.0
H391 H 0.77583 0.12197 0.62663 0.0
H392 H 0.7523 0.22391 0.70094 0.0
H393 H 0.77341 0.21154 0.75549 0.0
H394 H 0.79047 0.18719 0.77469 0.0
H395 H 0.79686 0.15923 0.75455 0.0
Mn396 Mn 0.59473 0.95602 0.34262 0.0
Mn397 Mn 0.5833 0.99437 0.33439 0.0
C398 C 0.58857 0.97032 0.41787 0.0
C399 C 0.61484 0.93727 0.35654 0.0
C400 C 0.56165 0.96668 0.30785 0.0
O401 O 0.60162 0.96223 0.26707 0.0
O402 O 0.59486 0.98817 0.26993 0.0
C403 C 0.61504 0.00926 0.33739 0.0
N404 N 0.60018 0.00773 0.35777 0.0
C405 C 0.60543 0.0275 0.42415 0.0
C406 C 0.62076 0.02935 0.40369 0.0
C407 C 0.6256 0.02015 0.36022 0.0
C408 C 0.59545 0.01643 0.39985 0.0
H409 H 0.6188 1.0022 0.304 0.0
C410 C 0.60096 0.97617 0.24689 0.0
O411 O 0.60139 0.93324 0.33535 0.0
O412 O 0.61701 0.95223 0.36494 0.0
N413 N 0.57196 1.00206 0.39481 0.0
C414 C 0.55692 0.99858 0.41052 0.0
C415 C 0.55031 0.00665 0.45388 0.0
C416 C 0.55916 0.01834 0.48018 0.0
C417 C 0.57452 0.02192 0.4627 0.0
C418 C 0.58045 0.01354 0.41912 0.0
H419 H 0.55001 0.98968 0.39022 0.0
O420 O 0.58821 0.95499 0.41892 0.0
O421 O 0.59253 0.97675 0.37328 0.0
O422 O 0.5713 0.95551 0.31935 0.0
O423 O 0.56518 0.98139 0.31097 0.0
C424 C 0.58425 0.03334 0.48718 0.0
C425 C 0.59972 0.03607 0.4681 0.0
H426 H 0.62895 0.03773 0.42122 0.0
H427 H 0.63744 0.02146 0.34435 0.0
H428 H 0.53843 1.00386 0.46701 0.0
H429 H 0.55408 0.02446 0.51383 0.0
H430 H 0.58002 0.03996 0.52111 0.0
H431 H 0.60717 0.04472 0.48771 0.0
Mn432 Mn 0.79948 0.16321 0.07023 0.0
Mn433 Mn 0.7619 0.17698 0.07257 0.0
C434 C 0.78721 0.17223 0.9938 0.0
C435 C 0.8171 0.14215 0.05471 0.0
C436 C 0.79016 0.19568 0.11367 0.0
O437 O 0.79084 0.15462 0.1414 0.0
O438 O 0.76535 0.16237 0.13202 0.0
C439 C 0.74518 0.1469 0.04939 0.0
N440 N 0.74807 0.16238 0.0377 0.0
C441 C 0.72946 0.1618 0.96555 0.0
C442 C 0.72607 0.14593 0.97743 0.0
C443 C 0.73406 0.13842 0.01929 0.0
C444 C 0.74073 0.16961 -0.00326 0.0
H445 H 0.75141 0.14105 0.08117 0.0
C446 C 0.77627 0.15481 0.15631 0.0
O447 O 0.82153 0.15468 0.08073 0.0
O448 O 0.80226 0.14135 0.04209 0.0
N449 N 0.75695 0.19117 0.01576 0.0
C450 C 0.76233 0.20618 0.00725 0.0
C451 C 0.75598 0.21516 0.96551 0.0
C452 C 0.74402 0.2087 0.93341 0.0
C453 C 0.73855 0.19329 0.94327 0.0
C454 C 0.74534 0.1849 0.98538 0.0
H455 H 0.77139 0.21129 0.03212 0.0
O456 O 0.80252 0.17154 -0.00394 0.0
O457 O 0.77981 0.16777 0.03589 0.0
O458 O 0.801 0.18587 0.10028 0.0
O459 O 0.77536 0.19297 0.10771 0.0
C460 C 0.72676 0.18586 0.91255 0.0
C461 C 0.72232 0.17007 0.92337 0.0
H462 H 0.71752 0.13934 0.95425 0.0
H463 H 0.73166 0.12611 0.02829 0.0
H464 H 0.76025 0.22705 0.95821 0.0
H465 H 0.73918 0.21564 0.90115 0.0
H466 H 0.72124 0.19208 0.8799 0.0
H467 H 0.71352 0.16436 0.89866 0.0
Mn468 Mn 0.59445 0.05096 0.81634 0.0
Mn469 Mn 0.58312 0.01264 0.82664 0.0
C470 C 0.5882 0.03634 0.74181 0.0
C471 C 0.61479 0.06951 0.80172 0.0
C472 C 0.56155 0.04045 0.85317 0.0
O473 O 0.60135 0.045 0.89211 0.0
O474 O 0.59533 0.01885 0.88976 0.0
C475 C 0.61467 0.99746 0.82088 0.0
N476 N 0.59967 0.9991 0.80186 0.0
C477 C 0.60415 0.97914 0.73548 0.0
C478 C 0.61962 0.97717 0.75456 0.0
C479 C 0.62492 0.98641 0.79733 0.0
C480 C 0.59449 0.99036 0.76047 0.0
H481 H 0.61879 0.00454 0.85371 0.0
C482 C 0.60129 0.03104 0.91226 0.0
O483 O 0.60134 0.07374 0.8225 0.0
O484 O 0.61678 0.0545 0.79387 0.0
N485 N 0.57122 0.00499 0.76734 0.0
C486 C 0.55614 0.0087 0.75262 0.0
C487 C 0.54914 1.00069 0.70985 0.0
C488 C 0.55763 0.98883 0.68307 0.0
C489 C 0.57304 0.98505 0.69945 0.0
C490 C 0.57938 0.99338 0.74248 0.0
H491 H 0.54951 0.01772 0.77327 0.0
O492 O 0.58792 0.05167 0.73995 0.0
O493 O 0.59216 0.03013 0.78671 0.0
O494 O 0.571 0.05161 0.83965 0.0
O495 O 0.56525 0.02576 0.85158 0.0
C496 C 0.58243 0.97347 0.67437 0.0
C497 C 0.598 0.97057 0.6922 0.0
H498 H 0.62757 0.96867 0.73645 0.0
H499 H 0.63687 0.985 0.81212 0.0
H500 H 0.53722 1.00365 0.69754 0.0
H501 H 0.55223 0.98276 0.64986 0.0
H502 H 0.57787 0.96687 0.64089 0.0
H503 H 0.60519 0.96181 0.67209 0.0
Mn504 Mn 0.7067 0.84397 0.57026 0.0
Mn505 Mn 0.7449 0.83239 0.58217 0.0
C506 C 0.72105 0.83627 0.49671 0.0
C507 C 0.68838 0.86426 0.55312 0.0
C508 C 0.71683 0.8115 0.61178 0.0
O509 O 0.71278 0.85178 0.6449 0.0
O510 O 0.73888 0.84572 0.64303 0.0
C511 C 0.76027 0.86371 0.57005 0.0
N512 N 0.75855 0.8484 0.55416 0.0
C513 C 0.77847 0.85158 0.48679 0.0
C514 C 0.78054 0.86736 0.50269 0.0
C515 C 0.77135 0.87347 0.54438 0.0
C516 C 0.76721 0.84245 0.51374 0.0
H517 H 0.75321 0.86845 0.602 0.0
C518 C 0.72676 0.85202 0.66481 0.0
O519 O 0.68403 0.85115 0.57595 0.0
O520 O 0.70339 0.866 0.54455 0.0
N521 N 0.75247 0.81941 0.5254 0.0
C522 C 0.74887 0.80401 0.51437 0.0
C523 C 0.75701 0.79612 0.47367 0.0
C524 C 0.76889 0.80406 0.44516 0.0
C525 C 0.77255 0.81983 0.45769 0.0
C526 C 0.76413 0.82704 0.49895 0.0
H527 H 0.73986 0.79778 0.53646 0.0
O528 O 0.70573 0.83636 0.49513 0.0
O529 O 0.72747 0.84092 0.54059 0.0
O530 O 0.70581 0.8209 0.59686 0.0
O531 O 0.73156 0.81507 0.61026 0.0
C532 C 0.78414 0.82871 0.4306 0.0
C533 C 0.78702 0.8446 0.44491 0.0
H534 H 0.78907 0.87493 0.48298 0.0
H535 H 0.77282 0.88566 0.55671 0.0
H536 H 0.75415 0.78394 0.46433 0.0
H537 H 0.7751 0.79795 0.41367 0.0
H538 H 0.79078 0.82348 0.39832 0.0
H539 H 0.79582 0.85137 0.42334 0.0
Mn540 Mn 0.91225 0.9551 0.32088 0.0
Mn541 Mn 0.92371 0.99345 0.32843 0.0
C542 C 0.91826 0.96932 0.24529 0.0
C543 C 0.89207 0.93636 0.30777 0.0
C544 C 0.94532 0.96573 0.35535 0.0
O545 O 0.90554 0.96146 0.39649 0.0
O546 O 0.91186 0.98752 0.39266 0.0
C547 C 0.89212 0.0086 0.32391 0.0
N548 N 0.90702 0.00688 0.30405 0.0
C549 C 0.90218 0.02658 0.23708 0.0
C550 C 0.88682 0.02863 0.25701 0.0
C551 C 0.88175 0.01956 0.3005 0.0
C552 C 0.91197 0.01545 0.26194 0.0
H553 H 0.88818 1.00165 0.35732 0.0
C554 C 0.90587 0.97549 0.41602 0.0
O555 O 0.90556 0.93235 0.32869 0.0
O556 O 0.8899 0.95132 0.29922 0.0
N557 N 0.93527 1.00085 0.26804 0.0
C558 C 0.95029 0.9971 0.25265 0.0
C559 C 0.95707 0.00497 0.20917 0.0
C560 C 0.94844 0.01673 0.18241 0.0
C561 C 0.93311 0.02056 0.1995 0.0
C562 C 0.92699 0.01236 0.24318 0.0
H563 H 0.95703 0.98816 0.27329 0.0
O564 O 0.91858 0.95399 0.24439 0.0
O565 O 0.91443 0.97578 0.28992 0.0
O566 O 0.93572 0.95456 0.34341 0.0
O567 O 0.94171 0.98043 0.35282 0.0
C568 C 0.92359 0.03206 0.17454 0.0
C569 C 0.90811 0.035 0.19312 0.0
H570 H 0.87878 0.03706 0.23903 0.0
H571 H 0.86988 0.02103 0.31596 0.0
H572 H 0.96893 1.00198 0.19632 0.0
H573 H 0.95367 0.0227 0.14869 0.0
H574 H 0.92799 0.03856 0.14059 0.0
H575 H 0.90082 0.0437 0.1731 0.0
Mn576 Mn 0.707 0.66252 0.56818 0.0
Mn577 Mn 0.74532 0.67414 0.57615 0.0
C578 C 0.72092 0.66971 0.49311 0.0
C579 C 0.6884 0.6423 0.55284 0.0
C580 C 0.71761 0.6953 0.60645 0.0
O581 O 0.71356 0.65492 0.64264 0.0
O582 O 0.73945 0.66183 0.63943 0.0
C583 C 0.76026 0.64251 0.56825 0.0
N584 N 0.75861 0.65759 0.54989 0.0
C585 C 0.77797 0.65314 0.48153 0.0
C586 C 0.77995 0.63758 0.49989 0.0
C587 C 0.77102 0.63224 0.54334 0.0
C588 C 0.76704 0.66281 0.50785 0.0
H589 H 0.7534 0.63835 0.60159 0.0
C590 C 0.72756 0.65544 0.66231 0.0
O591 O 0.68431 0.65549 0.57568 0.0
O592 O 0.70335 0.64044 0.54344 0.0
N593 N 0.75274 0.68622 0.51696 0.0
C594 C 0.7493 0.7015 0.50383 0.0
C595 C 0.75724 0.70867 0.4612 0.0
C596 C 0.76875 0.70013 0.43293 0.0
C597 C 0.77229 0.68452 0.44775 0.0
C598 C 0.76408 0.67804 0.49083 0.0
H599 H 0.74056 0.70816 0.52569 0.0
O600 O 0.70559 0.66985 0.4928 0.0
O601 O 0.72758 0.66528 0.53682 0.0
O602 O 0.70644 0.68572 0.59417 0.0
O603 O 0.73233 0.6919 0.60246 0.0
C604 C 0.78353 0.67508 0.42117 0.0
C605 C 0.7863 0.65937 0.43785 0.0
H606 H 0.78823 0.62962 0.48077 0.0
H607 H 0.77243 0.62023 0.5576 0.0
H608 H 0.75448 0.72074 0.45012 0.0
H609 H 0.77476 0.70565 0.3998 0.0
H610 H 0.78998 0.67973 0.3875 0.0
H611 H 0.79483 0.65217 0.4167 0.0
Mn612 Mn 0.59542 0.45392 0.82135 0.0
Mn613 Mn 0.58445 0.49234 0.83191 0.0
C614 C 0.58946 0.46868 0.74689 0.0
C615 C 0.61554 0.43517 0.80687 0.0
C616 C 0.56253 0.46469 0.85729 0.0
O617 O 0.60222 0.45969 0.89737 0.0
O618 O 0.5964 0.48587 0.89531 0.0
C619 C 0.61622 0.50713 0.82745 0.0
N620 N 0.60124 0.50574 0.80799 0.0
C621 C 0.60616 0.52579 0.74225 0.0
C622 C 0.62161 0.52752 0.7618 0.0
C623 C 0.62667 0.51811 0.80447 0.0
C624 C 0.59629 0.51463 0.76666 0.0
H625 H 0.62016 0.49991 0.86019 0.0
C626 C 0.60221 0.47361 0.91777 0.0
O627 O 0.602 0.43105 0.82729 0.0
O628 O 0.61773 0.45017 0.79935 0.0
N629 N 0.57282 0.50026 0.77245 0.0
C630 C 0.55771 0.49681 0.7573 0.0
C631 C 0.55091 0.50503 0.7146 0.0
C632 C 0.55963 0.51684 0.68837 0.0
C633 C 0.57506 0.52037 0.70523 0.0
C634 C 0.58118 0.51184 0.74816 0.0
H635 H 0.5509 0.48783 0.77753 0.0
O636 O 0.58903 0.45337 0.74483 0.0
O637 O 0.59341 0.47481 0.79192 0.0
O638 O 0.57193 0.45347 0.84412 0.0
O639 O 0.56636 0.47935 0.85591 0.0
C640 C 0.58467 0.53189 0.68071 0.0
C641 C 0.60023 0.53454 0.69903 0.0
H642 H 0.62971 0.53595 0.74414 0.0
H643 H 0.6386 0.51932 0.81962 0.0
H644 H 0.53898 0.50227 0.70194 0.0
H645 H 0.55439 0.52308 0.65522 0.0
H646 H 0.58028 0.53863 0.64728 0.0
H647 H 0.60759 0.54326 0.67935 0.0
Mn648 Mn 0.802 0.34377 0.07105 0.0
Mn649 Mn 0.76353 0.33284 0.08135 0.0
C650 C 0.78778 0.33628 -0.0031 0.0
C651 C 0.82093 0.36362 0.05436 0.0
C652 C 0.79104 0.31146 0.11232 0.0
O653 O 0.79579 0.35179 0.14537 0.0
O654 O 0.76968 0.34574 0.143 0.0
C655 C 0.74894 0.36455 0.07014 0.0
N656 N 0.75034 0.34925 0.05363 0.0
C657 C 0.73065 0.35313 0.98596 0.0
C658 C 0.72893 0.36891 0.00243 0.0
C659 C 0.73816 0.37465 0.04459 0.0
C660 C 0.74163 0.34365 0.01279 0.0
H661 H 0.75602 0.36899 0.10252 0.0
C662 C 0.78179 0.35191 0.1652 0.0
O663 O 0.82481 0.35045 0.07775 0.0
O664 O 0.806 0.36569 0.04498 0.0
N665 N 0.75577 0.32022 0.02394 0.0
C666 C 0.75897 0.30477 0.0126 0.0
C667 C 0.75069 0.29719 0.97156 0.0
C668 C 0.73907 0.3055 0.94306 0.0
C669 C 0.73582 0.32133 0.95592 0.0
C670 C 0.74436 0.32821 -0.00247 0.0
H671 H 0.76777 0.29826 0.03473 0.0
O672 O 0.80311 0.33601 -0.0039 0.0
O673 O 0.78127 0.3411 0.04044 0.0
O674 O 0.8023 0.32072 0.09831 0.0
O675 O 0.77637 0.31516 0.10927 0.0
C676 C 0.72452 0.33057 0.92887 0.0
C677 C 0.72201 0.34649 0.94365 0.0
H678 H 0.72063 0.37673 0.98283 0.0
H679 H 0.73695 0.38682 0.05739 0.0
H680 H 0.75323 0.28496 0.96197 0.0
H681 H 0.73274 0.29962 0.91135 0.0
H682 H 0.71782 0.3256 0.89628 0.0
H683 H 0.71343 0.35354 0.92215 0.0
Mn684 Mn 0.9122 0.54812 0.31997 0.0
Mn685 Mn 0.92353 0.50977 0.32787 0.0
C686 C 0.91972 0.53441 0.24487 0.0
C687 C 0.89198 0.56666 0.30499 0.0
C688 C 0.9446 0.53745 0.3603 0.0
O689 O 0.90452 0.54143 0.39417 0.0
O690 O 0.91025 0.51529 0.38938 0.0
C691 C 0.8921 0.49477 0.31421 0.0
N692 N 0.90743 0.49649 0.29853 0.0
C693 C 0.9041 0.47721 0.22924 0.0
C694 C 0.8883 0.47513 0.24492 0.0
C695 C 0.88226 0.484 0.28747 0.0
C696 C 0.91331 0.48816 0.25727 0.0
H697 H 0.88741 0.5016 0.34679 0.0
C698 C 0.90414 0.52727 0.41258 0.0
O699 O 0.90514 0.57076 0.32797 0.0
O700 O 0.89016 0.55173 0.29504 0.0
N701 N 0.93646 0.50264 0.27028 0.0
C702 C 0.95187 0.50623 0.25954 0.0
C703 C 0.95968 0.49842 0.21794 0.0
C704 C 0.95165 0.48686 0.18827 0.0
C705 C 0.93588 0.48316 0.20063 0.0
C706 C 0.92874 0.49126 0.24273 0.0
H707 H 0.95816 0.51499 0.28249 0.0
O708 O 0.91971 0.54974 0.24479 0.0
O709 O 0.91511 0.52764 0.2882 0.0
O710 O 0.93529 0.54866 0.34635 0.0
O711 O 0.94095 0.52275 0.3573 0.0
C712 C 0.92692 0.47187 0.17247 0.0
C713 C 0.91101 0.46898 0.18654 0.0
H714 H 0.88067 0.46684 0.22438 0.0
H715 H 0.87005 0.48253 0.29962 0.0
H716 H 0.97187 0.50131 0.20877 0.0
H717 H 0.95768 0.48095 0.15596 0.0
H718 H 0.9321 0.46549 0.13953 0.0
H719 H 0.90418 0.46043 0.16413 0.0
Mn720 Mn 0.70846 0.34209 0.59605 0.0
Mn721 Mn 0.74693 0.33129 0.58551 0.0
C722 C 0.72275 0.33464 0.67012 0.0
C723 C 0.68962 0.36194 0.61303 0.0
C724 C 0.71942 0.30991 0.55411 0.0
O725 O 0.71466 0.35018 0.5218 0.0
O726 O 0.74084 0.34445 0.52431 0.0
C727 C 0.76159 0.36294 0.598 0.0
N728 N 0.76014 0.34759 0.61395 0.0
C729 C 0.77972 0.35124 0.68212 0.0
C730 C 0.7815 0.36706 0.66619 0.0
C731 C 0.77235 0.37294 0.62407 0.0
C732 C 0.76877 0.34185 0.65475 0.0
H733 H 0.75455 0.3675 0.5657 0.0
C734 C 0.72868 0.35058 0.50222 0.0
O735 O 0.68565 0.3488 0.58964 0.0
O736 O 0.70456 0.36398 0.62222 0.0
N737 N 0.75456 0.3185 0.64268 0.0
C738 C 0.75117 0.30307 0.65386 0.0
C739 C 0.75928 0.29539 0.69511 0.0
C740 C 0.7709 0.30359 0.72401 0.0
C741 C 0.77432 0.3194 0.71134 0.0
C742 C 0.76595 0.32639 0.66956 0.0
H743 H 0.74237 0.29665 0.63149 0.0
O744 O 0.70742 0.3343 0.67105 0.0
O745 O 0.72918 0.33945 0.62645 0.0
O746 O 0.70815 0.31906 0.56868 0.0
O747 O 0.73408 0.3137 0.55683 0.0
C748 C 0.78562 0.32854 0.73884 0.0
C749 C 0.78824 0.34448 0.72446 0.0
H750 H 0.78978 0.37482 0.68622 0.0
H751 H 0.7736 0.38515 0.61171 0.0
H752 H 0.75659 0.28318 0.70458 0.0
H753 H 0.77706 0.29766 0.75596 0.0
H754 H 0.79222 0.32348 0.7715 0.0
H755 H 0.79679 0.35144 0.74636 0.0
Mn756 Mn 0.91689 0.45423 0.84579 0.0
Mn757 Mn 0.9292 0.49225 0.83441 0.0
C758 C 0.92379 0.46887 0.91975 0.0
C759 C 0.89628 0.43608 0.86184 0.0
C760 C 0.95005 0.46396 0.80821 0.0
O761 O 0.90969 0.46022 0.77028 0.0
O762 O 0.91718 0.48598 0.77109 0.0
C763 C 0.89782 0.50784 0.83862 0.0
N764 N 0.91275 0.50608 0.85815 0.0
C765 C 0.90831 0.52622 0.92394 0.0
C766 C 0.8929 0.52831 0.90437 0.0
C767 C 0.88763 0.51904 0.86164 0.0
C768 C 0.9179 0.51483 0.89956 0.0
H769 H 0.89373 0.50073 0.80579 0.0
C770 C 0.91066 0.47401 0.7491 0.0
O771 O 0.90955 0.43158 0.84042 0.0
O772 O 0.89461 0.45114 0.86959 0.0
N773 N 0.94105 0.49998 0.89363 0.0
C774 C 0.95614 0.49631 0.90832 0.0
C775 C 0.96322 0.50451 0.95055 0.0
C776 C 0.95478 0.51651 0.9768 0.0
C777 C 0.93935 0.52022 0.96052 0.0
C778 C 0.93296 0.51173 0.91795 0.0
H779 H 0.96274 0.4872 0.88796 0.0
O780 O 0.92377 0.45355 0.92188 0.0
O781 O 0.91978 0.47507 0.87489 0.0
O782 O 0.94023 0.45305 0.82117 0.0
O783 O 0.94686 0.47875 0.81057 0.0
C784 C 0.93001 0.53195 0.98507 0.0
C785 C 0.91446 0.53487 0.96702 0.0
H786 H 0.885 0.53693 0.92201 0.0
H787 H 0.87573 0.52053 0.84645 0.0
H788 H 0.97516 0.50161 0.96277 0.0
H789 H 0.96027 0.52278 0.00941 0.0
H790 H 0.9346 0.53866 0.01824 0.0
H791 H 0.90733 0.54377 0.98667 0.0
Mn792 Mn 0.80098 0.66131 0.09374 0.0
Mn793 Mn 0.76271 0.6725 0.08137 0.0
C794 C 0.78632 0.66849 0.16728 0.0
C795 C 0.81951 0.64119 0.11052 0.0
C796 C 0.79062 0.69371 0.05265 0.0
O797 O 0.79512 0.65369 0.01865 0.0
O798 O 0.76892 0.65936 0.02031 0.0
C799 C 0.74754 0.64106 0.09246 0.0
N800 N 0.74914 0.65634 0.1088 0.0
C801 C 0.72916 0.65287 0.17578 0.0
C802 C 0.72721 0.63712 0.15944 0.0
C803 C 0.73649 0.63117 0.11772 0.0
C804 C 0.7404 0.66214 0.14926 0.0
H805 H 0.75466 0.63645 0.06046 0.0
C806 C 0.78117 0.65331 -0.00147 0.0
O807 O 0.82374 0.65442 0.08826 0.0
O808 O 0.8045 0.63924 0.1187 0.0
N809 N 0.75503 0.68529 0.13848 0.0
C810 C 0.75862 0.70063 0.15026 0.0
C811 C 0.75045 0.70834 0.19129 0.0
C812 C 0.73856 0.70027 0.21935 0.0
C813 C 0.73493 0.68455 0.20608 0.0
C814 C 0.74339 0.67752 0.16459 0.0
H815 H 0.76763 0.70696 0.12852 0.0
O816 O 0.80165 0.66864 0.16933 0.0
O817 O 0.78014 0.664 0.1229 0.0
O818 O 0.80171 0.68445 0.06797 0.0
O819 O 0.77593 0.68999 0.05373 0.0
C820 C 0.72333 0.67555 0.23268 0.0
C821 C 0.72052 0.65969 0.21777 0.0
H822 H 0.71871 0.62945 0.17884 0.0
H823 H 0.73511 0.619 0.10505 0.0
H824 H 0.75329 0.72049 0.20119 0.0
H825 H 0.73231 0.70625 0.25103 0.0
H826 H 0.71664 0.68065 0.26508 0.0
H827 H 0.71174 0.65282 0.23901 0.0
Mn828 Mn 0.59502 0.549 0.34746 0.0
Mn829 Mn 0.58403 0.51048 0.34067 0.0
C830 C 0.58915 0.53482 0.42329 0.0
C831 C 0.61511 0.56789 0.36056 0.0
C832 C 0.56201 0.53783 0.31341 0.0
O833 O 0.60184 0.54266 0.27195 0.0
O834 O 0.59543 0.51663 0.27585 0.0
C835 C 0.61594 0.49598 0.34367 0.0
N836 N 0.60109 0.49738 0.36422 0.0
C837 C 0.6066 0.47778 0.4309 0.0
C838 C 0.62193 0.47606 0.41029 0.0
C839 C 0.62663 0.48524 0.3666 0.0
C840 C 0.59649 0.48871 0.40652 0.0
H841 H 0.61959 0.50302 0.31009 0.0
C842 C 0.60133 0.52866 0.25226 0.0
O843 O 0.60159 0.57184 0.3397 0.0
O844 O 0.61732 0.55295 0.36921 0.0
N845 N 0.57285 0.50281 0.40147 0.0
C846 C 0.55779 0.50616 0.41727 0.0
C847 C 0.55131 0.49809 0.46085 0.0
C848 C 0.5603 0.48652 0.48725 0.0
C849 C 0.57567 0.48309 0.46968 0.0
C850 C 0.58148 0.49147 0.42591 0.0
H851 H 0.55077 0.51494 0.39685 0.0
O852 O 0.58862 0.55014 0.42388 0.0
O853 O 0.59309 0.52833 0.37881 0.0
O854 O 0.57151 0.54919 0.32446 0.0
O855 O 0.56576 0.52319 0.3171 0.0
C856 C 0.58554 0.4718 0.49423 0.0
C857 C 0.60102 0.46921 0.47504 0.0
H858 H 0.63022 0.4678 0.42788 0.0
H859 H 0.63846 0.48403 0.3506 0.0
H860 H 0.53941 0.50077 0.47405 0.0
H861 H 0.5553 0.4804 0.52106 0.0
H862 H 0.5814 0.46518 0.52829 0.0
H863 H 0.60857 0.46066 0.49471 0.0
Mn864 Mn 0.30012 0.3446 0.59243 0.0
Mn865 Mn 0.26222 0.3321 0.5806 0.0
C866 C 0.28627 0.33523 0.66517 0.0
C867 C 0.31804 0.3651 0.61218 0.0
C868 C 0.29067 0.31271 0.54483 0.0
O869 O 0.29327 0.35368 0.51993 0.0
O870 O 0.26735 0.34699 0.52317 0.0
C871 C 0.24613 0.36257 0.60261 0.0
N872 N 0.24824 0.34692 0.61362 0.0
C873 C 0.22845 0.34775 0.68217 0.0
C874 C 0.22588 0.36381 0.67097 0.0
C875 C 0.23484 0.37127 0.63123 0.0
C876 C 0.23991 0.3397 0.65246 0.0
H877 H 0.2531 0.36838 0.57249 0.0
C878 C 0.27907 0.35412 0.50167 0.0
O879 O 0.32255 0.3525 0.58664 0.0
O880 O 0.30306 0.36625 0.6223 0.0
N881 N 0.25554 0.31763 0.6346 0.0
C882 C 0.25993 0.30225 0.64208 0.0
C883 C 0.25237 0.29318 0.6813 0.0
C884 C 0.24023 0.29994 0.71193 0.0
C885 C 0.23575 0.3157 0.703 0.0
C886 C 0.24366 0.32414 0.66322 0.0
H887 H 0.26913 0.29692 0.61834 0.0
O888 O 0.3016 0.33572 0.66623 0.0
O889 O 0.27966 0.34038 0.6224 0.0
O890 O 0.30151 0.32207 0.56146 0.0
O891 O 0.27587 0.3159 0.54725 0.0
C892 C 0.22386 0.32344 0.73244 0.0
C893 C 0.22029 0.33948 0.72229 0.0
H894 H 0.2172 0.37057 0.69303 0.0
H895 H 0.23305 0.38371 0.62274 0.0
H896 H 0.25586 0.28101 0.68783 0.0
H897 H 0.23449 0.29293 0.74232 0.0
H898 H 0.21757 0.31723 0.76354 0.0
H899 H 0.21135 0.34538 0.74587 0.0
Mn900 Mn 0.41325 0.55031 0.34769 0.0
Mn901 Mn 0.42525 0.51226 0.33556 0.0
C902 C 0.42075 0.53591 0.42135 0.0
C903 C 0.39273 0.56844 0.36399 0.0
C904 C 0.44585 0.54058 0.30679 0.0
O905 O 0.40582 0.54422 0.27256 0.0
O906 O 0.41194 0.51812 0.27453 0.0
C907 C 0.39415 0.49642 0.34701 0.0
N908 N 0.40941 0.49837 0.36326 0.0
C909 C 0.4064 0.47839 0.4305 0.0
C910 C 0.39068 0.47609 0.41427 0.0
C911 C 0.38452 0.48518 0.37246 0.0
C912 C 0.41541 0.4898 0.40377 0.0
H913 H 0.38938 0.5034 0.31493 0.0
C914 C 0.40569 0.53024 0.2526 0.0
O915 O 0.40591 0.57292 0.34188 0.0
O916 O 0.39108 0.5534 0.37233 0.0
N917 N 0.43825 0.50488 0.3926 0.0
C918 C 0.45354 0.50877 0.4041 0.0
C919 C 0.46146 0.50078 0.44508 0.0
C920 C 0.45366 0.48876 0.47336 0.0
C921 C 0.43799 0.48482 0.46036 0.0
C922 C 0.43075 0.49311 0.41889 0.0
H923 H 0.45966 0.51789 0.3822 0.0
O924 O 0.42051 0.55124 0.42324 0.0
O925 O 0.41639 0.52954 0.37708 0.0
O926 O 0.43643 0.55149 0.32235 0.0
O927 O 0.44243 0.52582 0.30757 0.0
C928 C 0.42925 0.47308 0.4872 0.0
C929 C 0.41343 0.46994 0.47252 0.0
H930 H 0.38321 0.46744 0.43381 0.0
H931 H 0.37238 0.48353 0.35986 0.0
H932 H 0.47356 0.50386 0.45479 0.0
H933 H 0.45978 0.48267 0.50508 0.0
H934 H 0.43451 0.46651 0.51958 0.0
H935 H 0.40676 0.46104 0.49392 0.0
Mn936 Mn 0.20548 0.6599 0.0976 0.0
Mn937 Mn 0.24373 0.67132 0.08533 0.0
C938 C 0.2202 0.66685 0.17127 0.0
C939 C 0.187 0.63964 0.1139 0.0
C940 C 0.21577 0.69258 0.05819 0.0
O941 O 0.21128 0.65261 0.02205 0.0
O942 O 0.23741 0.65864 0.0234 0.0
C943 C 0.25891 0.63981 0.09367 0.0
N944 N 0.25734 0.65498 0.11123 0.0
C945 C 0.27747 0.65107 0.17743 0.0
C946 C 0.27936 0.63543 0.15987 0.0
C947 C 0.27 0.62976 0.11793 0.0
C948 C 0.26617 0.6605 0.1519 0.0
H949 H 0.25173 0.63542 0.06144 0.0
C950 C 0.22518 0.6526 0.00147 0.0
O951 O 0.18271 0.65296 0.09229 0.0
O952 O 0.20202 0.63771 0.12166 0.0
N953 N 0.25156 0.68373 0.1431 0.0
C954 C 0.2481 0.69904 0.15577 0.0
C955 C 0.25644 0.70652 0.19689 0.0
C956 C 0.26837 0.69827 0.22409 0.0
C957 C 0.27187 0.68259 0.20992 0.0
C958 C 0.26324 0.67579 0.16835 0.0
H959 H 0.23907 0.70551 0.13463 0.0
O960 O 0.20488 0.66694 0.17348 0.0
O961 O 0.22637 0.66254 0.12664 0.0
O962 O 0.20469 0.68318 0.07281 0.0
O963 O 0.23047 0.68894 0.0593 0.0
C964 C 0.2835 0.67341 0.23559 0.0
C965 C 0.28623 0.65763 0.21959 0.0
H966 H 0.28791 0.62764 0.17847 0.0
H967 H 0.27135 0.61768 0.1043 0.0
H968 H 0.25371 0.71864 0.20748 0.0
H969 H 0.27477 0.70408 0.25576 0.0
H970 H 0.2903 0.67832 0.26806 0.0
H971 H 0.29506 0.65063 0.24009 0.0
Mn972 Mn 0.0983 0.45494 0.85404 0.0
Mn973 Mn 0.08526 0.49272 0.84466 0.0
C974 C 0.08908 0.46822 0.92792 0.0
C975 C 0.11909 0.43732 0.87241 0.0
C976 C 0.0659 0.46416 0.80943 0.0
O977 O 0.10684 0.46213 0.7814 0.0
O978 O 0.0994 0.48785 0.78464 0.0
C979 C 0.11583 0.50912 0.86196 0.0
N980 N 0.10044 0.50669 0.87587 0.0
C981 C 0.10215 0.52611 0.94538 0.0
C982 C 0.11799 0.52892 0.93151 0.0
C983 C 0.12487 0.52034 0.88975 0.0
C984 C 0.09375 0.51474 0.91638 0.0
H985 H 0.12117 0.50252 0.82999 0.0
C986 C 0.10655 0.47624 0.76263 0.0
O987 O 0.10668 0.43271 0.84608 0.0
O988 O 0.11996 0.45224 0.88366 0.0
N989 N 0.07145 0.49921 0.90076 0.0
C990 C 0.05615 0.49485 0.9099 0.0
C991 C 0.04756 0.50227 0.95056 0.0
C992 C 0.05471 0.51423 0.98096 0.0
C993 C 0.07041 0.51867 0.97039 0.0
C994 C 0.07834 0.51092 0.92916 0.0
H995 H 0.05051 0.48579 0.88633 0.0
O996 O 0.0897 0.45289 0.92783 0.0
O997 O 0.09399 0.47521 0.88539 0.0
O998 O 0.07566 0.45338 0.82374 0.0
O999 O 0.06876 0.47901 0.81332 0.0
C1000 C 0.07852 0.53039 -0.00059 0.0
C1001 C 0.09442 0.53403 0.98717 0.0
H1002 H 0.125 0.53757 0.95285 0.0
H1003 H 0.13712 0.52238 0.879 0.0
H1004 H 0.03544 0.4988 0.95838 0.0
H1005 H 0.04807 0.51988 0.0124 0.0
H1006 H 0.07271 0.53656 0.03161 0.0
H1007 H 0.1006 0.5429 0.01026 0.0
Mn1008 Mn 0.29988 0.66178 0.57158 0.0
Mn1009 Mn 0.26155 0.67327 0.57958 0.0
C1010 C 0.28588 0.66861 0.49635 0.0
C1011 C 0.31858 0.64165 0.55723 0.0
C1012 C 0.28927 0.69465 0.60852 0.0
O1013 O 0.2934 0.65447 0.64642 0.0
O1014 O 0.26741 0.66096 0.64294 0.0
C1015 C 0.24657 0.64163 0.57199 0.0
N1016 N 0.24823 0.6567 0.55354 0.0
C1017 C 0.22882 0.65221 0.48536 0.0
C1018 C 0.22684 0.63667 0.50385 0.0
C1019 C 0.23579 0.63135 0.54725 0.0
C1020 C 0.23978 0.6619 0.5115 0.0
H1021 H 0.25345 0.63749 0.60528 0.0
C1022 C 0.27937 0.65473 0.6659 0.0
O1023 O 0.32259 0.65497 0.57941 0.0
O1024 O 0.30365 0.63961 0.54793 0.0
N1025 N 0.25413 0.6853 0.52026 0.0
C1026 C 0.2576 0.70055 0.50688 0.0
C1027 C 0.24966 0.70769 0.46421 0.0
C1028 C 0.2381 0.69914 0.43616 0.0
C1029 C 0.23454 0.68355 0.45121 0.0
C1030 C 0.24276 0.67711 0.4943 0.0
H1031 H 0.26637 0.70724 0.52856 0.0
O1032 O 0.30122 0.66879 0.49584 0.0
O1033 O 0.27927 0.66434 0.54033 0.0
O1034 O 0.30042 0.68506 0.59625 0.0
O1035 O 0.27456 0.69112 0.60552 0.0
C1036 C 0.22326 0.6741 0.42483 0.0
C1037 C 0.22048 0.65841 0.44168 0.0
H1038 H 0.21854 0.6287 0.48486 0.0
H1039 H 0.23438 0.61935 0.5616 0.0
H1040 H 0.25244 0.71974 0.45296 0.0
H1041 H 0.23209 0.70464 0.40301 0.0
H1042 H 0.21679 0.67873 0.39117 0.0
H1043 H 0.21192 0.6512 0.42067 0.0
Mn1044 Mn 0.09348 0.54764 0.32793 0.0
Mn1045 Mn 0.08201 0.50936 0.34019 0.0
C1046 C 0.08603 0.53305 0.25458 0.0
C1047 C 0.11352 0.56627 0.31028 0.0
C1048 C 0.0608 0.53723 0.36802 0.0
O1049 O 0.10144 0.54176 0.40262 0.0
O1050 O 0.09441 0.51588 0.40251 0.0
C1051 C 0.1137 0.49453 0.33295 0.0
N1052 N 0.09857 0.49591 0.31491 0.0
C1053 C 0.10296 0.47594 0.24852 0.0
C1054 C 0.11857 0.47423 0.26658 0.0
C1055 C 0.12398 0.48361 0.30888 0.0
C1056 C 0.09329 0.48705 0.27395 0.0
H1057 H 0.1179 0.50173 0.36541 0.0
C1058 C 0.1009 0.52797 0.42388 0.0
O1059 O 0.10036 0.57042 0.33322 0.0
O1060 O 0.11546 0.55127 0.30193 0.0
N1061 N 0.06982 0.5013 0.28222 0.0
C1062 C 0.05447 0.5045 0.26931 0.0
C1063 C 0.04722 0.49607 0.22793 0.0
C1064 C 0.05574 0.48433 0.20069 0.0
C1065 C 0.07144 0.48108 0.21521 0.0
C1066 C 0.07799 0.48976 0.2571 0.0
H1067 H 0.04781 0.5134 0.29041 0.0
O1068 O 0.08585 0.54838 0.25279 0.0
O1069 O 0.09069 0.52677 0.29867 0.0
O1070 O 0.07036 0.54832 0.35468 0.0
O1071 O 0.06424 0.5225 0.36544 0.0
C1072 C 0.08088 0.46966 0.18953 0.0
C1073 C 0.09666 0.46716 0.20596 0.0
H1074 H 0.12653 0.46583 0.24811 0.0
H1075 H 0.13603 0.48241 0.32289 0.0
H1076 H 0.03508 0.49861 0.21707 0.0
H1077 H 0.05013 0.47792 0.16863 0.0
H1078 H 0.07617 0.46285 0.15676 0.0
H1079 H 0.10385 0.45848 0.18551 0.0
Mn1080 Mn 0.21186 0.34136 0.06973 0.0
Mn1081 Mn 0.24901 0.3265 0.07081 0.0
C1082 C 0.22292 0.33031 0.99419 0.0
C1083 C 0.1948 0.36261 0.05126 0.0
C1084 C 0.22071 0.30948 0.11902 0.0
O1085 O 0.22151 0.35112 0.1375 0.0
O1086 O 0.24656 0.3421 0.12812 0.0
C1087 C 0.26627 0.35569 0.04067 0.0
N1088 N 0.26273 0.34019 0.03163 0.0
C1089 C 0.2801 0.33935 0.95607 0.0
C1090 C 0.28406 0.35527 0.96492 0.0
C1091 C 0.27705 0.36349 0.00725 0.0
C1092 C 0.26921 0.33224 0.9905 0.0
H1093 H 0.26085 0.36207 0.07299 0.0
C1094 C 0.23611 0.3505 0.15173 0.0
O1095 O 0.19032 0.35102 0.08175 0.0
O1096 O 0.2094 0.36249 0.03585 0.0
N1097 N 0.25301 0.31129 0.01616 0.0
C1098 C 0.24735 0.29623 0.01149 0.0
C1099 C 0.25297 0.28648 0.97053 0.0
C1100 C 0.26446 0.29223 0.9352 0.0
C1101 C 0.27022 0.30771 0.94108 0.0
C1102 C 0.2642 0.31688 0.98269 0.0
H1103 H 0.23864 0.29167 0.03883 0.0
O1104 O 0.20767 0.33151 -0.00164 0.0
O1105 O 0.23094 0.33541 0.03417 0.0
O1106 O 0.21005 0.31948 0.10552 0.0
O1107 O 0.23551 0.31148 0.11029 0.0
C1108 C 0.28154 0.31448 0.90685 0.0
C1109 C 0.28637 0.33033 0.91406 0.0
H1110 H 0.29236 0.36132 0.93922 0.0
H1111 H 0.27995 0.37581 0.01409 0.0
H1112 H 0.24847 0.27453 0.96629 0.0
H1113 H 0.26871 0.2847 0.90351 0.0
H1114 H 0.2864 0.30768 0.87431 0.0
H1115 H 0.29484 0.3355 0.88682 0.0
Mn1116 Mn 0.4131 0.45627 0.82129 0.0
Mn1117 Mn 0.4251 0.49443 0.83115 0.0
C1118 C 0.42046 0.47038 0.74681 0.0
C1119 C 0.39269 0.43789 0.80585 0.0
C1120 C 0.44601 0.46636 0.85975 0.0
O1121 O 0.40567 0.46259 0.89619 0.0
O1122 O 0.41259 0.48848 0.89386 0.0
C1123 C 0.39366 0.50976 0.82307 0.0
N1124 N 0.40878 0.50804 0.80514 0.0
C1125 C 0.4048 0.52789 0.73804 0.0
C1126 C 0.38921 0.52995 0.75598 0.0
C1127 C 0.38361 0.5208 0.79856 0.0
C1128 C 0.41424 0.51665 0.76385 0.0
H1129 H 0.38932 0.50275 0.85579 0.0
C1130 C 0.40617 0.47653 0.9163 0.0
O1131 O 0.4059 0.43363 0.82818 0.0
O1132 O 0.39093 0.45288 0.79683 0.0
N1133 N 0.43743 0.50199 0.77273 0.0
C1134 C 0.45273 0.4985 0.76011 0.0
C1135 C 0.46019 0.50671 0.71863 0.0
C1136 C 0.45191 0.51854 0.69103 0.0
C1137 C 0.43625 0.52208 0.70518 0.0
C1138 C 0.42948 0.51361 0.74718 0.0
H1139 H 0.45922 0.48955 0.78158 0.0
O1140 O 0.42034 0.45505 0.7458 0.0
O1141 O 0.41609 0.47696 0.79076 0.0
O1142 O 0.43634 0.45535 0.8467 0.0
O1143 O 0.44268 0.48112 0.85715 0.0
C1144 C 0.42705 0.53362 0.67913 0.0
C1145 C 0.4113 0.53645 0.69531 0.0
H1146 H 0.38142 0.53846 0.7372 0.0
H1147 H 0.37158 0.52228 0.81249 0.0
H1148 H 0.4723 0.50395 0.70806 0.0
H1149 H 0.45771 0.52484 0.65905 0.0
H1150 H 0.43192 0.54029 0.64629 0.0
H1151 H 0.40429 0.54523 0.67458 0.0
H1152 H 0.14533 0.06406 0.88669 0.0
H1153 H 0.15606 0.14691 0.03827 0.0
H1154 H 0.10961 0.10056 0.88446 0.0
H1155 H 0.19372 0.11317 0.01399 0.0
H1156 H 0.13816 0.12963 0.98759 0.0
H1157 H 0.1628 0.08174 0.93595 0.0
C1158 C 0.14124 0.07591 0.89587 0.0
C1159 C 0.12599 0.08084 0.88111 0.0
C1160 C 0.15032 0.12599 0.99368 0.0
C1161 C 0.14589 0.10115 0.93904 0.0
C1162 C 0.1605 0.13576 0.02312 0.0
C1163 C 0.17642 0.13148 0.0306 0.0
C1164 C 0.15609 0.11177 0.97186 0.0
C1165 C 0.18156 0.11698 0.00935 0.0
C1166 C 0.15121 0.086 0.92435 0.0
C1167 C 0.12133 0.09632 0.89453 0.0
N1168 N 0.17146 0.10771 0.98103 0.0
N1169 N 0.13118 0.10587 0.92314 0.0
H1170 H 0.14563 0.94188 0.27587 0.0
H1171 H 0.15586 0.85802 0.13015 0.0
H1172 H 0.11027 0.90506 0.2838 0.0
H1173 H 0.19335 0.89238 0.14704 0.0
H1174 H 0.13822 0.87558 0.18063 0.0
H1175 H 0.16284 0.92407 0.22608 0.0
C1176 C 0.14157 0.92994 0.26785 0.0
C1177 C 0.12649 0.92496 0.28436 0.0
C1178 C 0.15028 0.87931 0.17293 0.0
C1179 C 0.14608 0.90451 0.22583 0.0
C1180 C 0.1603 0.86937 0.14355 0.0
C1181 C 0.17612 0.87374 0.13413 0.0
C1182 C 0.15608 0.89376 0.19277 0.0
C1183 C 0.18126 0.8885 0.15321 0.0
C1184 C 0.15139 0.91978 0.23904 0.0
C1185 C 0.12186 0.90936 0.27237 0.0
N1186 N 0.17132 0.89792 0.18158 0.0
N1187 N 0.13156 0.89974 0.24344 0.0
H1188 H 0.39714 0.90556 0.37553 0.0
H1189 H 0.31434 0.89469 0.52749 0.0
H1190 H 0.36288 0.94291 0.39668 0.0
H1191 H 0.35119 0.85934 0.53146 0.0
H1192 H 0.3318 0.91207 0.477 0.0
H1193 H 0.38 0.88772 0.42698 0.0
C1194 C 0.3859 0.90993 0.39012 0.0
C1195 C 0.38144 0.92576 0.38154 0.0
C1196 C 0.33618 0.90058 0.48923 0.0
C1197 C 0.36189 0.90549 0.44124 0.0
C1198 C 0.32622 0.89066 0.51843 0.0
C1199 C 0.33131 0.87554 0.53408 0.0
C1200 C 0.35137 0.89535 0.47472 0.0
C1201 C 0.34682 0.87096 0.52074 0.0
C1202 C 0.37621 0.89979 0.42002 0.0
C1203 C 0.36683 0.93082 0.40214 0.0
N1204 N 0.35625 0.88076 0.49145 0.0
N1205 N 0.35764 0.92076 0.43096 0.0
H1206 H 0.36133 0.06322 0.76887 0.0
H1207 H 0.35008 0.14754 0.62747 0.0
H1208 H 0.39602 0.10059 0.78016 0.0
H1209 H 0.31208 0.1141 0.65094 0.0
H1210 H 0.36795 0.12973 0.67601 0.0
H1211 H 0.34373 0.08119 0.72106 0.0
C1212 C 0.36517 0.0753 0.76195 0.0
C1213 C 0.38017 0.08041 0.77892 0.0
C1214 C 0.35572 0.12626 0.67022 0.0
C1215 C 0.36013 0.10104 0.7227 0.0
C1216 C 0.34556 0.13635 0.64198 0.0
C1217 C 0.32955 0.13231 0.63489 0.0
C1218 C 0.34989 0.11196 0.69114 0.0
C1219 C 0.32432 0.11773 0.6553 0.0
C1220 C 0.35513 0.08555 0.73434 0.0
C1221 C 0.38451 0.09617 0.76834 0.0
N1222 N 0.33442 0.10813 0.68239 0.0
N1223 N 0.37461 0.10588 0.74052 0.0
H1224 H 0.81245 0.89316 0.14694 0.0
H1225 H 0.89678 0.90458 0.28849 0.0
H1226 H 0.85023 0.85905 0.13291 0.0
H1227 H 0.86174 0.94152 0.27457 0.0
H1228 H 0.8793 0.88681 0.2382 0.0
H1229 H 0.83004 0.91045 0.19737 0.0
C1230 C 0.82454 0.8894 0.1538 0.0
C1231 C 0.82988 0.87465 0.13532 0.0
C1232 C 0.8754 0.89877 0.24654 0.0
C1233 C 0.85009 0.89432 0.19453 0.0
C1234 C 0.8853 0.90887 0.27581 0.0
C1235 C 0.88071 0.92458 0.28598 0.0
C1236 C 0.86077 0.90438 0.22759 0.0
C1237 C 0.86578 0.92952 0.2678 0.0
C1238 C 0.83458 0.89925 0.18295 0.0
C1239 C 0.84566 0.87038 0.14588 0.0
N1240 N 0.85641 0.91951 0.23953 0.0
N1241 N 0.85517 0.8801 0.17515 0.0
H1242 H 0.89644 0.10065 0.88433 0.0
H1243 H 0.81073 0.11272 0.01533 0.0
H1244 H 0.861 0.06393 0.89276 0.0
H1245 H 0.84931 0.14534 0.04074 0.0
H1246 H 0.82859 0.09541 0.96597 0.0
H1247 H 0.87873 0.11826 0.93437 0.0
C1248 C 0.88484 0.09638 0.89578 0.0
C1249 C 0.8802 0.08078 0.88406 0.0
C1250 C 0.83323 0.10627 0.98269 0.0
C1251 C 0.85996 0.1008 0.94208 0.0
C1252 C 0.82304 0.11614 0.01121 0.0
C1253 C 0.82853 0.13048 0.03259 0.0
C1254 C 0.84907 0.11081 0.97457 0.0
C1255 C 0.8446 0.13432 0.02549 0.0
C1256 C 0.87481 0.10638 0.92491 0.0
C1257 C 0.8651 0.07585 0.90072 0.0
N1258 N 0.85426 0.12463 -0.00331 0.0
N1259 N 0.85557 0.08578 0.92878 0.0
H1260 H 0.69658 0.1116 0.64912 0.0
H1261 H 0.61053 0.10122 0.77967 0.0
H1262 H 0.65883 0.14522 0.62467 0.0
H1263 H 0.64531 0.06389 0.7715 0.0
H1264 H 0.62867 0.11859 0.73025 0.0
H1265 H 0.67834 0.0947 0.69859 0.0
C1266 C 0.68438 0.11534 0.65351 0.0
C1267 C 0.67924 0.12983 0.63232 0.0
C1268 C 0.63236 0.10663 0.73964 0.0
C1269 C 0.65826 0.11062 0.69042 0.0
C1270 C 0.62208 0.09677 0.76841 0.0
C1271 C 0.62641 0.08107 0.77998 0.0
C1272 C 0.64712 0.10079 0.72269 0.0
C1273 C 0.64145 0.07589 0.7636 0.0
C1274 C 0.67397 0.1057 0.68208 0.0
C1275 C 0.66328 0.13408 0.63977 0.0
N1276 N 0.65121 0.08568 0.73588 0.0
N1277 N 0.6534 0.12459 0.66856 0.0
H1278 H 0.61009 0.90549 0.3761 0.0
H1279 H 0.69425 0.89435 0.51908 0.0
H1280 H 0.64511 0.94246 0.39022 0.0
H1281 H 0.65662 0.85999 0.53195 0.0
H1282 H 0.67667 0.91157 0.46843 0.0
H1283 H 0.62752 0.88775 0.42674 0.0
C1284 C 0.62156 0.90979 0.38891 0.0
C1285 C 0.62615 0.9255 0.37867 0.0
C1286 C 0.67216 0.90033 0.48263 0.0
C1287 C 0.64603 0.90535 0.43745 0.0
C1288 C 0.68219 0.89051 0.5119 0.0
C1289 C 0.6769 0.87571 0.53012 0.0
C1290 C 0.6567 0.89531 0.47066 0.0
C1291 C 0.66116 0.87136 0.51918 0.0
C1292 C 0.63142 0.89971 0.41837 0.0
C1293 C 0.64106 0.93047 0.39702 0.0
N1294 N 0.65166 0.88105 0.4898 0.0
N1295 N 0.6504 0.92048 0.42548 0.0
H1296 H 0.65636 0.64648 0.53646 0.0
H1297 H 0.64587 0.56293 0.38877 0.0
H1298 H 0.69396 0.61247 0.51569 0.0
H1299 H 0.61017 0.59943 0.38401 0.0
H1300 H 0.66322 0.58079 0.4378 0.0
H1301 H 0.63855 0.62897 0.48629 0.0
C1302 C 0.6608 0.63522 0.52224 0.0
C1303 C 0.67669 0.63093 0.53054 0.0
C1304 C 0.65166 0.585 0.4257 0.0
C1305 C 0.65645 0.61097 0.4723 0.0
C1306 C 0.64176 0.57482 0.39733 0.0
C1307 C 0.62654 0.57969 0.38191 0.0
C1308 C 0.64632 0.60021 0.43962 0.0
C1309 C 0.62186 0.59522 0.39457 0.0
C1310 C 0.65067 0.62532 0.49306 0.0
C1311 C 0.68182 0.61629 0.51043 0.0
N1312 N 0.63165 0.60488 0.42309 0.0
N1313 N 0.67178 0.6069 0.48232 0.0
H1314 H 0.64627 0.44046 0.77902 0.0
H1315 H 0.65761 0.35737 0.62919 0.0
H1316 H 0.61081 0.40369 0.78211 0.0
H1317 H 0.69488 0.3917 0.65133 0.0
H1318 H 0.63958 0.37458 0.67963 0.0
H1319 H 0.66381 0.42287 0.72971 0.0
C1320 C 0.64225 0.42857 0.77001 0.0
C1321 C 0.62705 0.42354 0.78506 0.0
C1322 C 0.65168 0.37837 0.67311 0.0
C1323 C 0.64705 0.40333 0.72705 0.0
C1324 C 0.66193 0.36863 0.6438 0.0
C1325 C 0.67779 0.3731 0.63578 0.0
C1326 C 0.65731 0.39273 0.69429 0.0
C1327 C 0.68277 0.38774 0.65637 0.0
C1328 C 0.65226 0.41854 0.74148 0.0
C1329 C 0.62249 0.40802 0.77183 0.0
N1330 N 0.67261 0.39697 0.68459 0.0
N1331 N 0.63238 0.39851 0.74319 0.0
H1332 H 0.8659 0.44224 0.89242 0.0
H1333 H 0.85291 0.35886 0.03886 0.0
H1334 H 0.90009 0.40436 0.88481 0.0
H1335 H 0.81595 0.39346 0.01597 0.0
H1336 H 0.87119 0.37599 0.98912 0.0
H1337 H 0.84801 0.42489 0.94152 0.0
C1338 C 0.86957 0.43018 0.90042 0.0
C1339 C 0.88452 0.42475 0.8841 0.0
C1340 C 0.8591 0.37986 -0.00469 0.0
C1341 C 0.86413 0.40481 0.94181 0.0
C1342 C 0.8487 0.37017 0.02423 0.0
C1343 C 0.83286 0.37473 0.03184 0.0
C1344 C 0.85366 0.39429 0.97416 0.0
C1345 C 0.82804 0.38943 0.01123 0.0
C1346 C 0.85936 0.42028 0.92879 0.0
C1347 C 0.88863 0.40901 0.89608 0.0
N1348 N 0.83836 0.39862 0.98344 0.0
N1349 N 0.87856 0.39964 0.92459 0.0
H1350 H 0.85138 0.64551 0.12957 0.0
H1351 H 0.86166 0.56128 0.27259 0.0
H1352 H 0.81383 0.6112 0.14603 0.0
H1353 H 0.89657 0.59842 0.28468 0.0
H1354 H 0.84448 0.57919 0.22307 0.0
H1355 H 0.86894 0.62791 0.18026 0.0
C1356 C 0.84691 0.63417 0.14297 0.0
C1357 C 0.8311 0.62981 0.13331 0.0
C1358 C 0.85583 0.58352 0.23689 0.0
C1359 C 0.85105 0.60974 0.19207 0.0
C1360 C 0.86562 0.57331 0.26552 0.0
C1361 C 0.88056 0.57836 0.28313 0.0
C1362 C 0.86102 0.59893 0.22493 0.0
C1363 C 0.88508 0.59406 0.27236 0.0
C1364 C 0.85688 0.62421 0.17244 0.0
C1365 C 0.82591 0.61506 0.15238 0.0
N1366 N 0.87542 0.60375 0.24354 0.0
N1367 N 0.83581 0.60562 0.18077 0.0
H1368 H 0.31176 0.39458 0.65132 0.0
H1369 H 0.39688 0.40603 0.78694 0.0
H1370 H 0.35007 0.36146 0.62918 0.0
H1371 H 0.36248 0.44352 0.77198 0.0
H1372 H 0.37906 0.38839 0.73744 0.0
H1373 H 0.32958 0.41183 0.70121 0.0
C1374 C 0.324 0.39102 0.65636 0.0
C1375 C 0.32943 0.37657 0.63565 0.0
C1376 C 0.37538 0.40045 0.74535 0.0
C1377 C 0.3499 0.39618 0.69419 0.0
C1378 C 0.38547 0.41047 0.77416 0.0
C1379 C 0.38116 0.42629 0.78385 0.0
C1380 C 0.3608 0.40622 0.72652 0.0
C1381 C 0.36631 0.43143 0.76556 0.0
C1382 C 0.33416 0.40086 0.68513 0.0
C1383 C 0.3454 0.37256 0.6439 0.0
N1384 N 0.35671 0.42147 0.73788 0.0
N1385 N 0.35504 0.38223 0.67289 0.0
H1386 H 0.3505 0.64626 0.54028 0.0
H1387 H 0.36252 0.56237 0.39654 0.0
H1388 H 0.3134 0.61157 0.52153 0.0
H1389 H 0.3967 0.6002 0.38545 0.0
H1390 H 0.34495 0.57986 0.44624 0.0
H1391 H 0.36849 0.62889 0.49043 0.0
C1392 C 0.34621 0.63488 0.5266 0.0
C1393 C 0.33041 0.63036 0.53532 0.0
C1394 C 0.35622 0.58443 0.43262 0.0
C1395 C 0.35085 0.61054 0.47748 0.0
C1396 C 0.36625 0.57445 0.40391 0.0
C1397 C 0.3811 0.57983 0.38647 0.0
C1398 C 0.3611 0.59992 0.44483 0.0
C1399 C 0.3853 0.5956 0.39762 0.0
C1400 C 0.35644 0.62505 0.49759 0.0
C1401 C 0.32547 0.61556 0.5159 0.0
N1402 N 0.37542 0.60504 0.42647 0.0
N1403 N 0.33561 0.60624 0.48795 0.0
H1404 H 0.10913 0.59821 0.29274 0.0
H1405 H 0.19262 0.60924 0.14526 0.0
H1406 H 0.1433 0.56074 0.27241 0.0
H1407 H 0.15537 0.64409 0.13686 0.0
H1408 H 0.17501 0.59183 0.19521 0.0
H1409 H 0.12647 0.616 0.24189 0.0
C1410 C 0.12038 0.59379 0.27844 0.0
C1411 C 0.12477 0.57795 0.2871 0.0
C1412 C 0.17059 0.60322 0.18212 0.0
C1413 C 0.14457 0.59817 0.22815 0.0
C1414 C 0.18063 0.61315 0.15326 0.0
C1415 C 0.17547 0.62815 0.1365 0.0
C1416 C 0.15523 0.60832 0.19518 0.0
C1417 C 0.15982 0.63258 0.14848 0.0
C1418 C 0.1302 0.60391 0.24889 0.0
C1419 C 0.13941 0.57284 0.26687 0.0
N1420 N 0.1503 0.62278 0.17747 0.0
N1421 N 0.14873 0.58288 0.23844 0.0
H1422 H 0.13057 0.40913 0.83208 0.0
H1423 H 0.16812 0.37621 0.0956 0.0
H1424 H 0.13291 0.4396 0.96891 0.0
H1425 H 0.19536 0.37421 0.95125 0.0
H1426 H 0.14935 0.39438 0.05129 0.0
H1427 H 0.149 0.39065 0.87655 0.0
C1428 C 0.13495 0.41191 0.87132 0.0
C1429 C 0.13042 0.426 0.89657 0.0
C1430 C 0.15947 0.38989 0.0296 0.0
C1431 C 0.15077 0.40476 0.9481 0.0
C1432 C 0.17014 0.37959 0.05476 0.0
C1433 C 0.18341 0.37391 0.02727 0.0
C1434 C 0.1618 0.39396 0.97613 0.0
C1435 C 0.18541 0.37853 0.97415 0.0
C1436 C 0.1454 0.40141 0.89658 0.0
C1437 C 0.13632 0.42899 0.94771 0.0
N1438 N 0.17464 0.38812 0.95011 0.0
N1439 N 0.14603 0.41839 0.97205 0.0
H1440 H 0.22328 0.19612 0.93167 0.0
H1441 H 0.28469 0.19655 0.74284 0.0
H1442 H 0.23832 0.14779 0.95351 0.0
H1443 H 0.26797 0.14913 0.71324 0.0
H1444 H 0.26821 0.19745 0.82351 0.0
H1445 H 0.23999 0.19772 0.85168 0.0
C1446 C 0.23011 0.1859 0.91936 0.0
C1447 C 0.23002 0.172 0.94947 0.0
C1448 C 0.26814 0.18692 0.79902 0.0
C1449 C 0.24859 0.17357 0.85908 0.0
C1450 C 0.27756 0.18637 0.75361 0.0
C1451 C 0.2771 0.17296 0.72113 0.0
C1452 C 0.25877 0.17374 0.81219 0.0
C1453 C 0.26815 0.15983 0.73688 0.0
C1454 C 0.23965 0.18683 0.87432 0.0
C1455 C 0.23857 0.15884 0.93174 0.0
N1456 N 0.25932 0.16053 0.78156 0.0
N1457 N 0.24753 0.15992 0.88741 0.0
H1458 H 0.11346 0.98671 0.20928 0.0
H1459 H 0.11338 0.01848 0.9537 0.0
H1460 H 0.06626 0.97199 0.16664 0.0
H1461 H 0.06594 0.03235 -0.0035 0.0
H1462 H 0.1146 1.00165 0.03258 0.0
H1463 H 0.11457 1.00316 0.12952 0.0
C1464 C 0.10338 0.98693 0.18271 0.0
C1465 C 0.0896 0.97843 0.19448 0.0
C1466 C 0.104 0.0085 0.02495 0.0
C1467 C 0.09081 0.99692 0.10405 0.0
C1468 C 0.10326 0.01797 0.98009 0.0
C1469 C 0.08941 0.02637 0.96866 0.0
C1470 C 0.09072 0.00744 0.05806 0.0
C1471 C 0.07669 0.02574 0.00409 0.0
C1472 C 0.10406 0.99618 0.13732 0.0
C1473 C 0.07695 0.97869 0.1588 0.0
N1474 N 0.07752 0.01609 0.04706 0.0
N1475 N 0.07769 0.98815 0.11533 0.0
H1476 H 0.23764 0.86052 0.20661 0.0
H1477 H 0.269 0.86203 0.4623 0.0
H1478 H 0.22309 0.81346 0.25169 0.0
H1479 H 0.28333 0.81447 0.42292 0.0
H1480 H 0.25226 0.86263 0.38314 0.0
H1481 H 0.25405 0.86207 0.28631 0.0
C1482 C 0.2379 0.85056 0.2337 0.0
C1483 C 0.22944 0.8367 0.22266 0.0
C1484 C 0.25919 0.85213 0.39159 0.0
C1485 C 0.24788 0.83841 0.3131 0.0
C1486 C 0.2686 0.85175 0.43662 0.0
C1487 C 0.27711 0.83805 0.44909 0.0
C1488 C 0.2583 0.83866 0.35933 0.0
C1489 C 0.27664 0.82512 0.41452 0.0
C1490 C 0.24712 0.85149 0.27905 0.0
C1491 C 0.22975 0.8242 0.25898 0.0
N1492 N 0.26705 0.8256 0.37135 0.0
N1493 N 0.23918 0.82521 0.30248 0.0
H1494 H 0.44402 0.03466 0.67119 0.0
H1495 H 0.44447 0.97259 0.48555 0.0
H1496 H 0.39639 0.01824 0.69879 0.0
H1497 H 0.39663 0.98833 0.45766 0.0
H1498 H 0.44547 0.98943 0.56523 0.0
H1499 H 0.44527 0.01791 0.59133 0.0
C1500 C 0.43387 0.02754 0.66012 0.0
C1501 C 0.4203 0.02724 0.69184 0.0
C1502 C 0.43482 0.98919 0.54142 0.0
C1503 C 0.42146 0.00866 0.60148 0.0
C1504 C 0.43422 0.97958 0.49652 0.0
C1505 C 0.42066 0.97967 0.46475 0.0
C1506 C 0.42154 0.99834 0.55494 0.0
C1507 C 0.40745 0.98844 0.48075 0.0
C1508 C 0.43461 0.01799 0.61511 0.0
C1509 C 0.40721 0.0183 0.67572 0.0
N1510 N 0.40819 0.99745 0.52505 0.0
N1511 N 0.40808 0.00933 0.63134 0.0
H1512 H 0.78476 0.81064 0.24149 0.0
H1513 H 0.7229 0.81128 0.4285 0.0
H1514 H 0.76833 0.85817 0.21209 0.0
H1515 H 0.73899 0.85915 0.45356 0.0
H1516 H 0.73969 0.80977 0.34873 0.0
H1517 H 0.76822 0.80976 0.32199 0.0
C1518 C 0.77767 0.82084 0.25228 0.0
C1519 C 0.7773 0.83427 0.21991 0.0
C1520 C 0.73955 0.82053 0.372 0.0
C1521 C 0.75896 0.83353 0.31085 0.0
C1522 C 0.72997 0.82142 0.41693 0.0
C1523 C 0.73016 0.83515 0.44787 0.0
C1524 C 0.74878 0.83369 0.35766 0.0
C1525 C 0.73902 0.84822 0.43111 0.0
C1526 C 0.76824 0.82031 0.29762 0.0
C1527 C 0.76843 0.84744 0.23565 0.0
N1528 N 0.748 0.8472 0.3868 0.0
N1529 N 0.75958 0.84677 0.28032 0.0
H1530 H 0.893 0.01811 0.95563 0.0
H1531 H 0.89348 0.98638 0.21139 0.0
H1532 H 0.94028 0.03256 -0.00171 0.0
H1533 H 0.94065 0.97189 0.16755 0.0
H1534 H 0.89215 1.00286 0.13175 0.0
H1535 H 0.89201 1.00123 0.03447 0.0
C1536 C 0.90313 0.01772 0.98197 0.0
C1537 C 0.91688 0.0263 0.97052 0.0
C1538 C 0.90271 0.99593 0.13928 0.0
C1539 C 0.91583 0.0073 0.0598 0.0
C1540 C 0.90351 0.98666 0.18458 0.0
C1541 C 0.91734 0.97821 0.19597 0.0
C1542 C 0.91589 0.99675 0.10571 0.0
C1543 C 0.92992 0.97854 0.16 0.0
C1544 C 0.90253 0.00822 0.0268 0.0
C1545 C 0.92961 0.02582 0.0059 0.0
N1546 N 0.92905 0.98803 0.11662 0.0
N1547 N 0.92892 0.01613 0.04879 0.0
H1548 H 0.7717 0.14717 0.95656 0.0
H1549 H 0.7385 0.1457 0.70677 0.0
H1550 H 0.78449 0.19518 0.91701 0.0
H1551 H 0.7255 0.19397 0.74137 0.0
H1552 H 0.75546 0.14541 0.78477 0.0
H1553 H 0.75518 0.14588 0.87773 0.0
C1554 C 0.77116 0.15737 0.93049 0.0
C1555 C 0.77915 0.17137 0.94299 0.0
C1556 C 0.7487 0.15598 0.77599 0.0
C1557 C 0.76053 0.16997 0.85298 0.0
C1558 C 0.73912 0.15617 0.73153 0.0
C1559 C 0.73092 0.16995 0.71792 0.0
C1560 C 0.75003 0.1697 0.80688 0.0
C1561 C 0.73185 0.18321 0.75093 0.0
C1562 C 0.76183 0.1566 0.88553 0.0
C1563 C 0.77831 0.18425 0.90832 0.0
N1564 N 0.74157 0.18288 0.79383 0.0
N1565 N 0.76882 0.18336 0.86489 0.0
H1566 H 0.61292 0.01917 0.7081 0.0
H1567 H 0.61318 0.98752 0.45256 0.0
H1568 H 0.56557 0.03325 0.66509 0.0
H1569 H 0.56593 0.97283 0.49477 0.0
H1570 H 0.61419 1.00402 0.5322 0.0
H1571 H 0.61413 1.00239 0.62915 0.0
C1572 C 0.60282 0.01872 0.68164 0.0
C1573 C 0.58899 0.02718 0.69303 0.0
C1574 C 0.60369 0.99705 0.52432 0.0
C1575 C 0.5903 0.0083 0.60351 0.0
C1576 C 0.60306 0.98777 0.47901 0.0
C1577 C 0.58931 0.97925 0.46715 0.0
C1578 C 0.5904 0.9978 0.55745 0.0
C1579 C 0.57661 0.97953 0.50268 0.0
C1580 C 0.60355 0.00928 0.63674 0.0
C1581 C 0.5763 0.02661 0.65752 0.0
N1582 N 0.5773 0.98902 0.54608 0.0
N1583 N 0.57712 0.01699 0.61448 0.0
H1584 H 0.72303 0.69365 0.42065 0.0
H1585 H 0.76926 0.64441 0.20649 0.0
H1586 H 0.73785 0.64573 0.45252 0.0
H1587 H 0.78303 0.69263 0.23861 0.0
H1588 H 0.75264 0.64464 0.28607 0.0
H1589 H 0.73964 0.69359 0.34016 0.0
C1590 C 0.7297 0.68314 0.41026 0.0
C1591 C 0.72964 0.66986 0.44335 0.0
C1592 C 0.75932 0.65514 0.27565 0.0
C1593 C 0.74786 0.66951 0.35211 0.0
C1594 C 0.76871 0.65504 0.23052 0.0
C1595 C 0.77707 0.66866 0.21598 0.0
C1596 C 0.75817 0.66905 0.30559 0.0
C1597 C 0.77643 0.68204 0.24855 0.0
C1598 C 0.73913 0.68312 0.36486 0.0
C1599 C 0.73805 0.65632 0.42827 0.0
N1600 N 0.76681 0.68204 0.29174 0.0
N1601 N 0.74687 0.65646 0.3835 0.0
H1602 H 0.61401 0.51801 0.45799 0.0
H1603 H 0.6142 0.48587 0.71309 0.0
H1604 H 0.56667 0.53222 0.50066 0.0
H1605 H 0.56677 0.47189 0.67053 0.0
H1606 H 0.61532 0.50279 0.63443 0.0
H1607 H 0.61528 0.50157 0.53773 0.0
C1608 C 0.60393 0.51768 0.48459 0.0
C1609 C 0.59007 0.52602 0.4728 0.0
C1610 C 0.60474 0.4959 0.64205 0.0
C1611 C 0.59145 0.50754 0.56323 0.0
C1612 C 0.60406 0.48637 0.68679 0.0
C1613 C 0.59023 0.47791 0.69824 0.0
C1614 C 0.59144 0.49696 0.60908 0.0
C1615 C 0.5775 0.47854 0.66293 0.0
C1616 C 0.6047 0.50844 0.52997 0.0
C1617 C 0.57742 0.52564 0.50851 0.0
N1618 N 0.57827 0.48825 0.62008 0.0
N1619 N 0.57826 0.51618 0.55196 0.0
H1620 H 0.72498 0.31002 0.73987 0.0
H1621 H 0.78611 0.31126 0.92871 0.0
H1622 H 0.73995 0.35816 0.71281 0.0
H1623 H 0.77011 0.3592 0.95262 0.0
H1624 H 0.76956 0.30968 0.84842 0.0
H1625 H 0.74161 0.30927 0.82011 0.0
C1626 C 0.73177 0.32038 0.7511 0.0
C1627 C 0.7317 0.33397 0.71943 0.0
C1628 C 0.76964 0.32047 0.87158 0.0
C1629 C 0.75018 0.33335 0.81014 0.0
C1630 C 0.7791 0.3214 0.9168 0.0
C1631 C 0.77886 0.33516 0.94762 0.0
C1632 C 0.76043 0.33361 0.85689 0.0
C1633 C 0.7701 0.34823 0.93034 0.0
C1634 C 0.74127 0.31993 0.79632 0.0
C1635 C 0.7402 0.34732 0.7358 0.0
N1636 N 0.7612 0.34716 0.88586 0.0
N1637 N 0.74913 0.34671 0.7803 0.0
H1638 H 0.94464 0.53256 0.17631 0.0
H1639 H 0.89914 0.48601 0.95413 0.0
H1640 H 0.89645 0.5173 0.20043 0.0
H1641 H 0.94669 0.47217 -0.00433 0.0
H1642 H 0.89805 0.50274 0.03331 0.0
H1643 H 0.94589 0.51598 0.09591 0.0
C1644 C 0.93435 0.5258 0.16422 0.0
C1645 C 0.92061 0.52572 0.19515 0.0
C1646 C 0.9087 0.49602 0.02503 0.0
C1647 C 0.92174 0.50754 0.10396 0.0
C1648 C 0.90934 0.48656 0.98015 0.0
C1649 C 0.92316 0.47813 0.9684 0.0
C1650 C 0.92207 0.49718 0.05755 0.0
C1651 C 0.93596 0.4788 0.00346 0.0
C1652 C 0.93507 0.51639 0.11887 0.0
C1653 C 0.90737 0.51721 0.17789 0.0
N1654 N 0.93525 0.48849 0.04638 0.0
N1655 N 0.90824 0.5084 0.13319 0.0
H1656 H 0.26932 0.35852 0.70865 0.0
H1657 H 0.22482 0.30609 0.92131 0.0
H1658 H 0.28316 0.30989 0.73241 0.0
H1659 H 0.23742 0.35486 0.9495 0.0
H1660 H 0.24067 0.30674 0.8388 0.0
H1661 H 0.25243 0.35694 0.78699 0.0
C1662 C 0.26877 0.34751 0.73073 0.0
C1663 C 0.27726 0.33421 0.71419 0.0
C1664 C 0.23979 0.31726 0.86318 0.0
C1665 C 0.25795 0.33224 0.80251 0.0
C1666 C 0.23075 0.31691 0.90961 0.0
C1667 C 0.23028 0.33033 0.94206 0.0
C1668 C 0.24778 0.33126 0.84932 0.0
C1669 C 0.23785 0.34421 0.92558 0.0
C1670 C 0.25917 0.34661 0.77512 0.0
C1671 C 0.27651 0.32028 0.7441 0.0
N1672 N 0.24634 0.34433 0.88028 0.0
N1673 N 0.26671 0.31953 0.78679 0.0
H1674 H 0.44537 0.53397 0.49102 0.0
H1675 H 0.44504 0.47179 0.67679 0.0
H1676 H 0.39766 0.51787 0.46278 0.0
H1677 H 0.3975 0.4884 0.70456 0.0
H1678 H 0.44628 0.48841 0.59653 0.0
H1679 H 0.44647 0.51704 0.57052 0.0
C1680 C 0.43517 0.52687 0.50186 0.0
C1681 C 0.42162 0.52673 0.47009 0.0
C1682 C 0.43565 0.48841 0.62049 0.0
C1683 C 0.42259 0.50799 0.56012 0.0
C1684 C 0.43491 0.47893 0.66569 0.0
C1685 C 0.42137 0.47933 0.69756 0.0
C1686 C 0.42251 0.49775 0.60682 0.0
C1687 C 0.4083 0.48828 0.68139 0.0
C1688 C 0.43582 0.51723 0.54668 0.0
C1689 C 0.40847 0.51782 0.48591 0.0
N1690 N 0.40917 0.49716 0.63683 0.0
N1691 N 0.40925 0.50879 0.53016 0.0
H1692 H 0.28361 0.69242 0.42356 0.0
H1693 H 0.23755 0.64289 0.20999 0.0
H1694 H 0.26897 0.6445 0.45642 0.0
H1695 H 0.22331 0.69092 0.24285 0.0
H1696 H 0.25422 0.64321 0.28948 0.0
H1697 H 0.26691 0.69219 0.34337 0.0
C1698 C 0.27697 0.68186 0.41342 0.0
C1699 C 0.2771 0.66864 0.44672 0.0
C1700 C 0.24742 0.65365 0.27923 0.0
C1701 C 0.25881 0.66808 0.35571 0.0
C1702 C 0.23801 0.65349 0.23416 0.0
C1703 C 0.2295 0.66704 0.21986 0.0
C1704 C 0.24845 0.66754 0.30931 0.0
C1705 C 0.23002 0.68039 0.2526 0.0
C1706 C 0.26749 0.68175 0.36816 0.0
C1707 C 0.26871 0.65504 0.43198 0.0
N1708 N 0.23967 0.68045 0.29569 0.0
N1709 N 0.25986 0.65509 0.3873 0.0
H1710 H 0.06164 0.53069 0.18395 0.0
H1711 H 0.06384 0.46903 -0.00417 0.0
H1712 H 0.10953 0.51547 0.21389 0.0
H1713 H 0.11149 0.48611 0.97339 0.0
H1714 H 0.0618 0.48535 0.07666 0.0
H1715 H 0.06109 0.51375 0.10436 0.0
C1716 C 0.07199 0.52377 0.1735 0.0
C1717 C 0.08545 0.52388 0.20574 0.0
C1718 C 0.07264 0.48551 0.05374 0.0
C1719 C 0.08507 0.50509 0.11581 0.0
C1720 C 0.07383 0.47619 0.00823 0.0
C1721 C 0.08764 0.47681 0.97773 0.0
C1722 C 0.08557 0.49493 0.06894 0.0
C1723 C 0.1005 0.4858 -0.0045 0.0
C1724 C 0.07164 0.5141 0.1287 0.0
C1725 C 0.0988 0.51521 0.19042 0.0
N1726 N 0.09917 0.49454 0.04021 0.0
N1727 N 0.09831 0.50615 0.14622 0.0
H1728 H 0.19171 0.21299 0.09188 0.0
H1729 H 0.23694 0.29064 0.18759 0.0
H1730 H 0.23521 0.21334 0.18155 0.0
H1731 H 0.19425 0.29208 0.09403 0.0
H1732 H 0.23293 0.26238 0.20189 0.0
H1733 H 0.18908 0.2416 0.10726 0.0
C1734 C 0.20049 0.21899 0.11588 0.0
C1735 C 0.21382 0.21079 0.13485 0.0
C1736 C 0.22424 0.26887 0.17899 0.0
C1737 C 0.21096 0.24349 0.15221 0.0
C1738 C 0.22649 0.28506 0.17109 0.0
C1739 C 0.21599 0.2937 0.13924 0.0
C1740 C 0.21154 0.26112 0.15402 0.0
C1741 C 0.20262 0.28586 0.11895 0.0
C1742 C 0.19904 0.23534 0.12439 0.0
C1743 C 0.22486 0.2192 0.16546 0.0
N1744 N 0.20094 0.26992 0.12576 0.0
N1745 N 0.22327 0.23505 0.17264 0.0
H1746 H 0.04277 0.9827 0.42032 0.0
H1747 H 0.96331 0.94009 0.32439 0.0
H1748 H 0.04304 0.94123 0.32059 0.0
H1749 H 0.96538 0.98307 0.41651 0.0
H1750 H 0.99213 0.93713 0.33498 0.0
H1751 H 0.01434 0.97968 0.43243 0.0
C1752 C 0.03684 0.9728 0.4015 0.0
C1753 C 0.04525 0.9623 0.36893 0.0
C1754 C 0.9862 0.94705 0.35357 0.0
C1755 C 0.01246 0.95892 0.38171 0.0
C1756 C 0.96975 0.94869 0.34783 0.0
C1757 C 0.96196 0.96194 0.36912 0.0
C1758 C 0.99483 0.9587 0.38108 0.0
C1759 C 0.9709 0.97278 0.3988 0.0
C1760 C 0.02057 0.97108 0.40834 0.0
C1761 C 0.03698 0.94959 0.34601 0.0
N1762 N 0.98681 0.97099 0.40347 0.0
N1763 N 0.02096 0.9484 0.35209 0.0
H1764 H 0.27359 0.79229 0.67611 0.0
H1765 H 0.31531 0.71239 0.57969 0.0
H1766 H 0.3148 0.79209 0.57515 0.0
H1767 H 0.27176 0.71488 0.6687 0.0
H1768 H 0.31858 0.74114 0.59089 0.0
H1769 H 0.27622 0.76381 0.68778 0.0
C1770 C 0.28336 0.78625 0.65695 0.0
C1771 C 0.29388 0.79456 0.62412 0.0
C1772 C 0.30846 0.73532 0.60867 0.0
C1773 C 0.29681 0.7617 0.63646 0.0
C1774 C 0.30664 0.7189 0.60259 0.0
C1775 C 0.29315 0.71124 0.62284 0.0
C1776 C 0.29677 0.74406 0.6355 0.0
C1777 C 0.28224 0.72029 0.65182 0.0
C1778 C 0.28484 0.76994 0.66353 0.0
C1779 C 0.30642 0.78613 0.60078 0.0
N1780 N 0.28422 0.73617 0.65687 0.0
N1781 N 0.30739 0.77009 0.60666 0.0
H1782 H 0.4629 0.06588 0.82266 0.0
H1783 H 0.54254 0.02392 0.92017 0.0
H1784 H 0.46504 0.02329 0.91684 0.0
H1785 H 0.54262 0.06505 0.81882 0.0
H1786 H 0.51409 0.02682 0.93208 0.0
H1787 H 0.4917 0.06894 0.83303 0.0
C1788 C 0.46935 0.0574 0.84656 0.0
C1789 C 0.46156 0.04422 0.86851 0.0
C1790 C 0.52028 0.03537 0.90769 0.0
C1791 C 0.49446 0.04757 0.88012 0.0
C1792 C 0.53658 0.03373 0.90096 0.0
C1793 C 0.54496 0.04416 0.86802 0.0
C1794 C 0.51212 0.0474 0.88063 0.0
C1795 C 0.53661 0.05674 0.84458 0.0
C1796 C 0.4858 0.05909 0.85215 0.0
C1797 C 0.47054 0.03353 0.89868 0.0
N1798 N 0.52058 0.05786 0.85061 0.0
N1799 N 0.48646 0.03537 0.90316 0.0
H1800 H 0.19074 0.79109 0.09246 0.0
H1801 H 0.23193 0.71157 0.9901 0.0
H1802 H 0.23379 0.78891 0.00068 0.0
H1803 H 0.19131 0.71141 0.09375 0.0
H1804 H 0.22913 0.74008 0.97937 0.0
H1805 H 0.18735 0.76238 0.08004 0.0
C1806 C 0.19927 0.78466 0.06874 0.0
C1807 C 0.21266 0.79237 0.04806 0.0
C1808 C 0.22067 0.73386 0.00398 0.0
C1809 C 0.20892 0.75963 0.03394 0.0
C1810 C 0.22224 0.71753 0.00998 0.0
C1811 C 0.21194 0.70912 0.04332 0.0
C1812 C 0.20885 0.74199 0.03216 0.0
C1813 C 0.19951 0.71745 0.06768 0.0
C1814 C 0.19739 0.76827 0.06194 0.0
C1815 C 0.2234 0.78343 0.01796 0.0
N1816 N 0.19847 0.7335 0.06236 0.0
N1817 N 0.22135 0.76759 0.01221 0.0
H1818 H 0.46453 0.98311 0.23578 0.0
H1819 H 0.54358 0.94089 0.33725 0.0
H1820 H 0.46391 0.94184 0.33651 0.0
H1821 H 0.54186 0.98406 0.24599 0.0
H1822 H 0.51485 0.93776 0.32442 0.0
H1823 H 0.49303 0.98014 0.22521 0.0
C1824 C 0.47039 0.97324 0.25504 0.0
C1825 C 0.46186 0.96281 0.28751 0.0
C1826 C 0.52084 0.94777 0.30653 0.0
C1827 C 0.49471 0.95951 0.27658 0.0
C1828 C 0.53724 0.94951 0.31358 0.0
C1829 C 0.54508 0.96286 0.29318 0.0
C1830 C 0.51233 0.95941 0.27858 0.0
C1831 C 0.53627 0.97371 0.26309 0.0
C1832 C 0.4867 0.97157 0.24913 0.0
C1833 C 0.47005 0.95015 0.3111 0.0
N1834 N 0.52042 0.9718 0.25711 0.0
N1835 N 0.4861 0.94901 0.30595 0.0
H1836 H 0.31604 0.215 0.58362 0.0
H1837 H 0.27477 0.29369 0.47581 0.0
H1838 H 0.27308 0.21649 0.49131 0.0
H1839 H 0.31571 0.29438 0.57795 0.0
H1840 H 0.27783 0.26517 0.46545 0.0
H1841 H 0.31969 0.24351 0.56744 0.0
C1842 C 0.30759 0.22123 0.55894 0.0
C1843 C 0.29413 0.21341 0.53932 0.0
C1844 C 0.28633 0.27154 0.4895 0.0
C1845 C 0.29816 0.24593 0.52093 0.0
C1846 C 0.28463 0.28787 0.4952 0.0
C1847 C 0.2949 0.29642 0.5282 0.0
C1848 C 0.29825 0.26355 0.5177 0.0
C1849 C 0.30752 0.28824 0.5521 0.0
C1850 C 0.30963 0.23751 0.54998 0.0
C1851 C 0.28351 0.22207 0.50787 0.0
N1852 N 0.30867 0.2722 0.54722 0.0
N1853 N 0.28568 0.23783 0.50012 0.0
H1854 H 0.96301 0.06509 0.84467 0.0
H1855 H 0.04218 0.02262 0.74503 0.0
H1856 H 0.96474 0.02238 0.75107 0.0
H1857 H 0.04283 0.06415 0.84449 0.0
H1858 H 0.01369 0.02551 0.7347 0.0
H1859 H 0.99183 0.06798 0.83356 0.0
C1860 C 0.96938 0.05653 0.82085 0.0
C1861 C 0.96148 0.04338 0.79924 0.0
C1862 C 0.02001 0.03415 0.75835 0.0
C1863 C 0.99436 0.04654 0.78668 0.0
C1864 C 0.03633 0.03251 0.76417 0.0
C1865 C 0.04489 0.04307 0.7961 0.0
C1866 C 0.012 0.04631 0.78532 0.0
C1867 C 0.03668 0.05575 0.8195 0.0
C1868 C 0.98583 0.05813 0.8148 0.0
C1869 C 0.97034 0.03259 0.76906 0.0
N1870 N 0.02062 0.05687 0.81437 0.0
N1871 N 0.98624 0.03435 0.76408 0.0
H1872 H 0.77418 0.71278 0.98539 0.0
H1873 H 0.81611 0.79192 0.08666 0.0
H1874 H 0.81541 0.71241 0.08623 0.0
H1875 H 0.77359 0.79018 0.99213 0.0
H1876 H 0.81937 0.76323 0.07385 0.0
H1877 H 0.77724 0.74123 0.97377 0.0
C1878 C 0.78405 0.71867 0.00447 0.0
C1879 C 0.79445 0.71022 0.03729 0.0
C1880 C 0.8095 0.76921 0.05516 0.0
C1881 C 0.79786 0.74304 0.02508 0.0
C1882 C 0.80769 0.78559 0.06216 0.0
C1883 C 0.79445 0.79342 0.04092 0.0
C1884 C 0.79802 0.76067 0.0265 0.0
C1885 C 0.78385 0.78461 0.00985 0.0
C1886 C 0.78578 0.73497 -0.00207 0.0
C1887 C 0.80712 0.71848 0.06059 0.0
N1888 N 0.78579 0.76875 0.00404 0.0
N1889 N 0.80832 0.7345 0.05481 0.0
H1890 H 0.69311 0.21161 0.576 0.0
H1891 H 0.73684 0.29119 0.48845 0.0
H1892 H 0.73665 0.21367 0.48685 0.0
H1893 H 0.69414 0.29101 0.58229 0.0
H1894 H 0.73381 0.26286 0.47372 0.0
H1895 H 0.69018 0.24038 0.56507 0.0
C1896 C 0.70181 0.21802 0.5529 0.0
C1897 C 0.71523 0.21024 0.53275 0.0
C1898 C 0.72495 0.26898 0.497 0.0
C1899 C 0.71207 0.24313 0.5207 0.0
C1900 C 0.72667 0.28521 0.50537 0.0
C1901 C 0.71582 0.29347 0.53715 0.0
C1902 C 0.71241 0.26078 0.52123 0.0
C1903 C 0.70279 0.2851 0.55757 0.0
C1904 C 0.7002 0.23447 0.54704 0.0
C1905 C 0.72621 0.21919 0.50361 0.0
N1906 N 0.70158 0.26914 0.55002 0.0
N1907 N 0.72447 0.23511 0.49899 0.0
H1908 H 0.77384 0.2928 0.17874 0.0
H1909 H 0.81654 0.21315 0.08717 0.0
H1910 H 0.81615 0.29253 0.08297 0.0
H1911 H 0.77329 0.21536 0.1778 0.0
H1912 H 0.81988 0.24183 0.09932 0.0
H1913 H 0.77679 0.26444 0.19304 0.0
C1914 C 0.78392 0.28679 0.16132 0.0
C1915 C 0.79467 0.29503 0.12912 0.0
C1916 C 0.80984 0.23597 0.11745 0.0
C1917 C 0.79797 0.26231 0.14449 0.0
C1918 C 0.808 0.21957 0.11091 0.0
C1919 C 0.79453 0.21187 0.13109 0.0
C1920 C 0.79815 0.24466 0.14451 0.0
C1921 C 0.78376 0.22082 0.16103 0.0
C1922 C 0.78559 0.27055 0.16944 0.0
C1923 C 0.80758 0.28663 0.10804 0.0
N1924 N 0.78572 0.2367 0.1663 0.0
N1925 N 0.80873 0.27066 0.11531 0.0
H1926 H 0.73445 0.71415 0.673 0.0
H1927 H 0.69121 0.79349 0.58085 0.0
H1928 H 0.69242 0.71398 0.57596 0.0
H1929 H 0.73384 0.79161 0.67488 0.0
H1930 H 0.68834 0.76469 0.59118 0.0
H1931 H 0.73122 0.74248 0.68702 0.0
C1932 C 0.72438 0.72007 0.65522 0.0
C1933 C 0.71379 0.71172 0.62281 0.0
C1934 C 0.69815 0.77065 0.61033 0.0
C1935 C 0.71016 0.7444 0.6378 0.0
C1936 C 0.69974 0.7871 0.60477 0.0
C1937 C 0.71289 0.79496 0.62656 0.0
C1938 C 0.70977 0.76205 0.63805 0.0
C1939 C 0.72362 0.78605 0.65679 0.0
C1940 C 0.72255 0.73629 0.66317 0.0
C1941 C 0.70087 0.71998 0.60123 0.0
N1942 N 0.72191 0.77012 0.66115 0.0
N1943 N 0.69956 0.73595 0.60834 0.0
H1944 H 0.54405 0.43942 0.82561 0.0
H1945 H 0.46543 0.48264 0.92612 0.0
H1946 H 0.54286 0.48201 0.91995 0.0
H1947 H 0.46433 0.44131 0.82578 0.0
H1948 H 0.49387 0.47929 0.93701 0.0
H1949 H 0.51523 0.43678 0.83719 0.0
C1950 C 0.5378 0.448 0.84971 0.0
C1951 C 0.54585 0.46105 0.87137 0.0
C1952 C 0.48745 0.47079 0.9131 0.0
C1953 C 0.51297 0.45817 0.88447 0.0
C1954 C 0.47117 0.47268 0.907 0.0
C1955 C 0.46251 0.46233 0.87461 0.0
C1956 C 0.49532 0.45858 0.88591 0.0
C1957 C 0.47057 0.44956 0.85116 0.0
C1958 C 0.52135 0.44654 0.85603 0.0
C1959 C 0.53714 0.47187 0.90192 0.0
N1960 N 0.48659 0.44819 0.85652 0.0
N1961 N 0.52123 0.47025 0.90713 0.0
H1962 H 0.96273 0.56342 0.33364 0.0
H1963 H 0.04156 0.52069 0.43429 0.0
H1964 H 0.96419 0.51976 0.42237 0.0
H1965 H 0.04228 0.56221 0.33475 0.0
H1966 H 0.01306 0.52368 0.44489 0.0
H1967 H 0.99139 0.56646 0.34744 0.0
C1968 C 0.96899 0.55467 0.35704 0.0
C1969 C 0.96107 0.54122 0.3764 0.0
C1970 C 0.01941 0.5323 0.42125 0.0
C1971 C 0.9938 0.54457 0.392 0.0
C1972 C 0.03572 0.53062 0.41532 0.0
C1973 C 0.04429 0.54112 0.38312 0.0
C1974 C 0.01143 0.54445 0.39414 0.0
C1975 C 0.03612 0.55385 0.35992 0.0
C1976 C 0.98536 0.55637 0.36461 0.0
C1977 C 0.96981 0.53021 0.40612 0.0
N1978 N 0.02008 0.55501 0.36511 0.0
N1979 N 0.98566 0.53207 0.41256 0.0
H1980 H 0.96886 0.47949 0.73822 0.0
H1981 H 0.04827 0.43829 0.84013 0.0
H1982 H 0.96873 0.43938 0.84397 0.0
H1983 H 0.04623 0.48033 0.74326 0.0
H1984 H 0.01957 0.43486 0.82821 0.0
H1985 H 0.99724 0.47618 0.72546 0.0
C1986 C 0.9748 0.4698 0.75816 0.0
C1987 C 0.96645 0.45979 0.79264 0.0
C1988 C 0.02548 0.44464 0.80873 0.0
C1989 C 0.99919 0.45612 0.77914 0.0
C1990 C 0.04188 0.44654 0.81515 0.0
C1991 C 0.04963 0.4597 0.79302 0.0
C1992 C 0.01685 0.45596 0.77975 0.0
C1993 C 0.04073 0.4701 0.76152 0.0
C1994 C 0.99105 0.46793 0.75097 0.0
C1995 C 0.97474 0.44735 0.81703 0.0
N1996 N 0.02485 0.46809 0.7563 0.0
N1997 N 0.99074 0.44602 0.81058 0.0
H1998 H 0.46288 0.52878 0.22456 0.0
H1999 H 0.54256 0.51935 0.25426 0.0
H2000 H 0.46623 0.56114 0.35601 0.0
H2001 H 0.54348 0.56382 0.33829 0.0
H2002 H 0.51444 0.5224 0.24035 0.0
H2003 H 0.49137 0.53097 0.21123 0.0
C2004 C 0.46968 0.53647 0.25035 0.0
C2005 C 0.46226 0.54466 0.29171 0.0
C2006 C 0.52068 0.53185 0.26031 0.0
C2007 C 0.49519 0.54636 0.27944 0.0
C2008 C 0.53686 0.52999 0.26885 0.0
C2009 C 0.54543 0.5413 0.2977 0.0
C2010 C 0.5128 0.54518 0.28081 0.0
C2011 C 0.53735 0.55483 0.31559 0.0
C2012 C 0.48603 0.53752 0.2434 0.0
C2013 C 0.47155 0.55462 0.32362 0.0
N2014 N 0.52142 0.55627 0.30762 0.0
N2015 N 0.48759 0.55497 0.31747 0.0
H2016 H 0.21655 0.16578 0.25666 0.0
H2017 H 0.27143 0.12756 0.46733 0.0
H2018 H 0.24577 0.12852 0.19321 0.0
H2019 H 0.27704 0.1761 0.4182 0.0
H2020 H 0.25615 0.12232 0.38547 0.0
H2021 H 0.23088 0.16369 0.34095 0.0
C2022 C 0.22534 0.15654 0.26149 0.0
C2023 C 0.22988 0.14718 0.21832 0.0
C2024 C 0.26114 0.13396 0.39228 0.0
C2025 C 0.24644 0.14498 0.31362 0.0
C2026 C 0.27007 0.13688 0.43817 0.0
C2027 C 0.27587 0.15216 0.44845 0.0
C2028 C 0.25759 0.14661 0.35821 0.0
C2029 C 0.27312 0.16407 0.41088 0.0
C2030 C 0.23368 0.15555 0.30911 0.0
C2031 C 0.24182 0.13578 0.22598 0.0
N2032 N 0.26391 0.16113 0.36798 0.0
N2033 N 0.24989 0.13511 0.27263 0.0
H2034 H 0.12971 0.98583 0.45204 0.0
H2035 H 0.08399 0.03587 0.66139 0.0
H2036 H 0.08188 0.97501 0.49893 0.0
H2037 H 0.12862 0.01704 0.71476 0.0
H2038 H 0.08644 0.02022 0.58002 0.0
H2039 H 0.13285 1.00185 0.53322 0.0
C2040 C 0.12018 0.98617 0.48076 0.0
C2041 C 0.10566 0.97873 0.46982 0.0
C2042 C 0.09595 0.01996 0.60884 0.0
C2043 C 0.10873 0.9979 0.55934 0.0
C2044 C 0.09473 0.02914 0.65457 0.0
C2045 C 0.10627 0.02796 0.69417 0.0
C2046 C 0.10887 0.00969 0.60252 0.0
C2047 C 0.11966 0.0185 0.68445 0.0
C2048 C 0.12187 0.99554 0.52628 0.0
C2049 C 0.09338 0.9802 0.50679 0.0
N2050 N 0.12058 0.00956 0.6396 0.0
N2051 N 0.09506 0.98991 0.54927 0.0
H2052 H 0.22358 0.83065 0.91551 0.0
H2053 H 0.26934 0.87882 0.70436 0.0
H2054 H 0.23915 0.87647 0.96936 0.0
H2055 H 0.28498 0.83265 0.75446 0.0
H2056 H 0.25379 0.8812 0.78673 0.0
H2057 H 0.23956 0.83399 0.83522 0.0
C2058 C 0.22968 0.84178 0.90899 0.0
C2059 C 0.22978 0.85347 0.94831 0.0
C2060 C 0.26107 0.87081 0.78029 0.0
C2061 C 0.24845 0.8571 0.85793 0.0
C2062 C 0.27016 0.86957 0.73401 0.0
C2063 C 0.27878 0.85569 0.7235 0.0
C2064 C 0.2602 0.85781 0.8147 0.0
C2065 C 0.27885 0.8437 0.76185 0.0
C2066 C 0.23906 0.84352 0.86392 0.0
C2067 C 0.23848 0.8674 0.93914 0.0
N2068 N 0.26935 0.84485 0.80511 0.0
N2069 N 0.24761 0.86884 0.89481 0.0
H2070 H 0.42077 0.03626 -1e-05 0.0
H2071 H 0.37663 0.98697 0.2116 0.0
H2072 H 0.37797 0.01478 0.94124 0.0
H2073 H 0.42353 0.97427 0.15985 0.0
H2074 H 0.37308 1.00244 0.12938 0.0
H2075 H 0.41808 0.02081 0.08183 0.0
C2076 C 0.41033 0.02897 0.00561 0.0
C2077 C 0.39939 0.02702 0.96445 0.0
C2078 C 0.38391 0.99582 0.13552 0.0
C2079 C 0.39652 0.00905 0.05679 0.0
C2080 C 0.38583 0.98678 0.18169 0.0
C2081 C 0.40022 0.97895 0.19154 0.0
C2082 C 0.39672 0.99747 0.10059 0.0
C2083 C 0.41211 0.97974 0.15292 0.0
C2084 C 0.40899 0.01994 0.05168 0.0
C2085 C 0.38643 0.01684 0.97271 0.0
N2086 N 0.41026 0.98916 0.10976 0.0
N2087 N 0.38537 0.00809 0.01796 0.0
H2088 H 0.77006 0.87888 0.96761 0.0
H2089 H 0.71849 0.8375 0.75567 0.0
H2090 H 0.78021 0.83143 0.91516 0.0
H2091 H 0.74347 0.8781 0.69479 0.0
H2092 H 0.73341 0.83989 0.8387 0.0
H2093 H 0.7546 0.88329 0.88574 0.0
C2094 C 0.76968 0.8697 0.93766 0.0
C2095 C 0.7768 0.85493 0.9471 0.0
C2096 C 0.73515 0.84862 0.80778 0.0
C2097 C 0.75832 0.85944 0.85666 0.0
C2098 C 0.72644 0.84746 0.76096 0.0
C2099 C 0.72958 0.85779 0.71886 0.0
C2100 C 0.74689 0.8603 0.81261 0.0
C2101 C 0.74054 0.87011 0.72688 0.0
C2102 C 0.76065 0.87211 0.89172 0.0
C2103 C 0.77529 0.84311 0.9085 0.0
N2104 N 0.74899 0.87096 0.77279 0.0
N2105 N 0.76592 0.84549 0.86554 0.0
H2106 H 0.87703 0.02052 0.71234 0.0
H2107 H 0.9235 0.97127 0.50333 0.0
H2108 H 0.92471 0.03219 0.66598 0.0
H2109 H 0.87841 0.98904 0.45021 0.0
H2110 H 0.92097 0.98726 0.5839 0.0
H2111 H 0.87414 0.00471 0.63064 0.0
C2112 C 0.88657 0.02043 0.68361 0.0
C2113 C 0.90099 0.02802 0.69495 0.0
C2114 C 0.9114 0.98724 0.55531 0.0
C2115 C 0.8982 0.00909 0.6047 0.0
C2116 C 0.91266 0.97786 0.51006 0.0
C2117 C 0.90098 0.97859 0.47081 0.0
C2118 C 0.89829 0.99728 0.56155 0.0
C2119 C 0.88747 0.9879 0.48032 0.0
C2120 C 0.88502 0.01117 0.63776 0.0
C2121 C 0.91328 0.02687 0.65787 0.0
N2122 N 0.8865 0.99702 0.52477 0.0
N2123 N 0.91176 0.01726 0.61507 0.0
H2124 H 0.79288 0.14916 0.24892 0.0
H2125 H 0.71409 0.14998 0.41132 0.0
H2126 H 0.74721 0.14243 0.1755 0.0
H2127 H 0.759 0.13799 0.48228 0.0
H2128 H 0.72551 0.14428 0.32389 0.0
H2129 H 0.78097 0.1422 0.33467 0.0
C2130 C 0.78051 0.14578 0.25052 0.0
C2131 C 0.77099 0.14669 0.20522 0.0
C2132 C 0.73273 0.1425 0.35883 0.0
C2133 C 0.75721 0.13911 0.30275 0.0
C2134 C 0.72614 0.14564 0.40871 0.0
C2135 C 0.73567 0.14473 0.45398 0.0
C2136 C 0.74895 0.13867 0.35459 0.0
C2137 C 0.75129 0.13915 0.44828 0.0
C2138 C 0.77366 0.14189 0.29944 0.0
C2139 C 0.75496 0.14222 0.20961 0.0
N2140 N 0.75755 0.13669 0.39953 0.0
N2141 N 0.74851 0.13897 0.25754 0.0
H2142 H 0.62965 0.98605 0.20933 0.0
H2143 H 0.58435 0.03652 0.00042 0.0
H2144 H 0.58172 0.97561 0.16277 0.0
H2145 H 0.62851 0.01693 0.94574 0.0
H2146 H 0.58677 0.02087 0.08181 0.0
H2147 H 0.63291 1.00197 0.12794 0.0
C2148 C 0.62012 0.98645 0.18064 0.0
C2149 C 0.60554 0.97915 0.19175 0.0
C2150 C 0.59619 0.02044 0.05269 0.0
C2151 C 0.60875 0.9982 0.10196 0.0
C2152 C 0.595 0.02962 0.00694 0.0
C2153 C 0.60641 0.02823 0.96699 0.0
C2154 C 0.60897 0.00996 0.05869 0.0
C2155 C 0.61966 0.01854 0.97632 0.0
C2156 C 0.62188 0.99576 0.135 0.0
C2157 C 0.59326 0.98069 0.1548 0.0
N2158 N 0.62056 0.00962 0.02122 0.0
N2159 N 0.59501 0.99034 0.1122 0.0
H2160 H 0.78904 0.66845 0.90851 0.0
H2161 H 0.73694 0.6263 0.69787 0.0
H2162 H 0.76511 0.62695 0.96725 0.0
H2163 H 0.72785 0.67424 0.74749 0.0
H2164 H 0.75263 0.62211 0.77937 0.0
H2165 H 0.774 0.66622 0.8257 0.0
C2166 C 0.78131 0.65834 0.90273 0.0
C2167 C 0.77849 0.64771 0.94422 0.0
C2168 C 0.74678 0.63336 0.77286 0.0
C2169 C 0.76101 0.64537 0.85075 0.0
C2170 C 0.7376 0.63566 0.72716 0.0
C2171 C 0.73071 0.65049 0.71701 0.0
C2172 C 0.74949 0.6462 0.80691 0.0
C2173 C 0.7326 0.66252 0.75472 0.0
C2174 C 0.77251 0.65727 0.85607 0.0
C2175 C 0.7678 0.63519 0.93561 0.0
N2176 N 0.7421 0.66023 0.7974 0.0
N2177 N 0.75927 0.63442 0.88986 0.0
H2178 H 0.6301 0.51926 0.21394 0.0
H2179 H 0.58506 0.46797 0.00538 0.0
H2180 H 0.58179 0.52849 0.16891 0.0
H2181 H 0.62936 0.48765 0.95225 0.0
H2182 H 0.58722 0.4836 0.08687 0.0
H2183 H 0.63343 0.5032 0.13288 0.0
C2184 C 0.62048 0.51856 0.18565 0.0
C2185 C 0.60579 0.52558 0.19707 0.0
C2186 C 0.59672 0.48406 0.05808 0.0
C2187 C 0.6091 0.50635 0.10773 0.0
C2188 C 0.59568 0.47489 0.01228 0.0
C2189 C 0.6072 0.47631 0.97269 0.0
C2190 C 0.60946 0.49457 0.0645 0.0
C2191 C 0.62042 0.48601 0.98252 0.0
C2192 C 0.62229 0.50916 0.14021 0.0
C2193 C 0.59342 0.52365 0.16066 0.0
N2194 N 0.62117 0.49493 0.02744 0.0
N2195 N 0.59523 0.51393 0.11827 0.0
H2196 H 0.72246 0.33516 0.41138 0.0
H2197 H 0.76914 0.37999 0.19782 0.0
H2198 H 0.74368 0.37776 0.47273 0.0
H2199 H 0.78539 0.3346 0.25343 0.0
H2200 H 0.75388 0.38322 0.28056 0.0
H2201 H 0.73767 0.33856 0.32928 0.0
C2202 C 0.72962 0.34571 0.40633 0.0
C2203 C 0.73158 0.35639 0.44824 0.0
C2204 C 0.76123 0.37283 0.27514 0.0
C2205 C 0.74924 0.36007 0.3556 0.0
C2206 C 0.77014 0.37111 0.22863 0.0
C2207 C 0.77891 0.35722 0.21972 0.0
C2208 C 0.76069 0.36029 0.31147 0.0
C2209 C 0.77918 0.34567 0.25958 0.0
C2210 C 0.73851 0.34746 0.36009 0.0
C2211 C 0.74161 0.3695 0.44068 0.0
N2212 N 0.76987 0.34728 0.30316 0.0
N2213 N 0.75023 0.37095 0.39526 0.0
H2214 H 0.88073 0.4795 0.71095 0.0
H2215 H 0.9178 0.53704 0.50342 0.0
H2216 H 0.9299 0.4775 0.66602 0.0
H2217 H 0.87962 0.5084 0.44309 0.0
H2218 H 0.91676 0.52208 0.58667 0.0
H2219 H 0.87513 0.49491 0.62967 0.0
C2220 C 0.89016 0.48165 0.68275 0.0
C2221 C 0.90572 0.47688 0.69419 0.0
C2222 C 0.90822 0.5195 0.55581 0.0
C2223 C 0.89968 0.49536 0.60471 0.0
C2224 C 0.9086 0.52822 0.50885 0.0
C2225 C 0.89865 0.52405 0.46677 0.0
C2226 C 0.89768 0.50672 0.56081 0.0
C2227 C 0.88733 0.51207 0.47508 0.0
C2228 C 0.88703 0.49069 0.63722 0.0
C2229 C 0.9177 0.48063 0.65784 0.0
N2230 N 0.88724 0.50364 0.52109 0.0
N2231 N 0.9145 0.48993 0.61537 0.0
H2232 H 0.21943 0.35921 0.24139 0.0
H2233 H 0.29716 0.35603 0.41097 0.0
H2234 H 0.26611 0.36049 0.17175 0.0
H2235 H 0.25194 0.3695 0.47636 0.0
H2236 H 0.28677 0.36148 0.32203 0.0
H2237 H 0.23115 0.36672 0.32675 0.0
C2238 C 0.23204 0.36148 0.24367 0.0
C2239 C 0.24182 0.35887 0.19969 0.0
C2240 C 0.27925 0.36365 0.35601 0.0
C2241 C 0.25537 0.36713 0.29705 0.0
C2242 C 0.28527 0.36067 0.40679 0.0
C2243 C 0.27533 0.36205 0.45096 0.0
C2244 C 0.26318 0.36783 0.34973 0.0
C2245 C 0.25993 0.36799 0.44323 0.0
C2246 C 0.23877 0.36569 0.29243 0.0
C2247 C 0.25813 0.36199 0.20495 0.0
N2248 N 0.25421 0.37031 0.39364 0.0
N2249 N 0.26442 0.36562 0.25286 0.0
H2250 H 0.37745 0.48723 0.95104 0.0
H2251 H 0.42115 0.53709 0.16234 0.0
H2252 H 0.42454 0.47518 0.00257 0.0
H2253 H 0.37892 0.51472 0.22203 0.0
H2254 H 0.41843 0.52185 0.0801 0.0
H2255 H 0.37377 0.50278 0.03307 0.0
C2256 C 0.38668 0.48721 0.98085 0.0
C2257 C 0.40114 0.47953 0.97104 0.0
C2258 C 0.40945 0.52075 0.11055 0.0
C2259 C 0.39749 0.49812 0.06172 0.0
C2260 C 0.41081 0.52966 0.15687 0.0
C2261 C 0.40006 0.52738 0.19841 0.0
C2262 C 0.39716 0.50966 0.10559 0.0
C2263 C 0.38723 0.51703 0.19028 0.0
C2264 C 0.38468 0.49629 0.02691 0.0
C2265 C 0.41306 0.48054 0.0095 0.0
N2266 N 0.38617 0.50839 0.14481 0.0
N2267 N 0.41112 0.48997 0.05255 0.0
H2268 H 0.23756 0.62465 0.96675 0.0
H2269 H 0.28333 0.67181 0.75456 0.0
H2270 H 0.22136 0.6704 0.91449 0.0
H2271 H 0.26599 0.62692 0.69792 0.0
H2272 H 0.26756 0.66842 0.83538 0.0
H2273 H 0.25294 0.622 0.88408 0.0
C2274 C 0.23658 0.63373 0.93661 0.0
C2275 C 0.22783 0.64757 0.94655 0.0
C2276 C 0.26765 0.65908 0.80593 0.0
C2277 C 0.24621 0.64516 0.85494 0.0
C2278 C 0.27688 0.66084 0.7605 0.0
C2279 C 0.27623 0.64945 0.72028 0.0
C2280 C 0.25785 0.64576 0.81135 0.0
C2281 C 0.26709 0.63575 0.7288 0.0
C2282 C 0.24557 0.63234 0.89014 0.0
C2283 C 0.22758 0.65937 0.90755 0.0
N2284 N 0.25812 0.63429 0.77347 0.0
N2285 N 0.23698 0.65809 0.86409 0.0
H2286 H 0.13086 0.52121 0.45899 0.0
H2287 H 0.09503 0.4654 0.66972 0.0
H2288 H 0.08239 0.52613 0.50953 0.0
H2289 H 0.13021 0.49665 0.73572 0.0
H2290 H 0.09672 0.47997 0.58573 0.0
H2291 H 0.13664 0.50643 0.54144 0.0
C2292 C 0.12167 0.51984 0.48858 0.0
C2293 C 0.10624 0.52528 0.47848 0.0
C2294 C 0.10451 0.48319 0.61809 0.0
C2295 C 0.11243 0.50757 0.56957 0.0
C2296 C 0.10376 0.47473 0.66556 0.0
C2297 C 0.11264 0.47972 0.7093 0.0
C2298 C 0.11438 0.49653 0.61432 0.0
C2299 C 0.12333 0.49234 0.7025 0.0
C2300 C 0.12489 0.51119 0.53484 0.0
C2301 C 0.09451 0.52251 0.51666 0.0
N2302 N 0.12379 0.50051 0.65597 0.0
N2303 N 0.09776 0.51357 0.55998 0.0
loop_
_geom_bond_atom_site_label_1
_geom_bond_atom_site_label_2
_geom_bond_distance
_geom_bond_site_symmetry_2
_ccdc_geom_bond_type
Mn0 O5 2.095 . S
Mn0 O15 2.162 . S
Mn0 O16 2.297 . S
Mn0 O24 2.385 1_554 S
Mn0 O25 2.209 . S
Mn0 O26 2.094 . S
Mn1 O6 2.121 . S
Mn1 N8 2.257 . S
Mn1 N17 2.282 1_554 S
Mn1 O25 2.215 . S
Mn1 O27 2.117 . S
C2 O24 1.234 . S
C2 O25 1.283 1_556 S
C3 O15 1.281 . S
C3 O16 1.236 . S
C4 O26 1.240 . S
C4 O27 1.264 . S
O5 Mn0 2.095 . S
O5 C14 1.250 . S
O6 Mn1 2.121 . S
O6 C14 1.258 . S
C7 N8 1.326 . S
C7 C11 1.460 . S
C7 H13 0.929 . S
N8 Mn1 2.257 . S
N8 C7 1.326 . S
N8 C12 1.362 . S
C9 C10 1.258 . S
C9 C12 1.431 . S
C9 C29 1.449 1_554 S
C10 C9 1.258 . S
C10 C11 1.477 . S
C10 H30 0.931 . S
C11 C7 1.460 . S
C11 C10 1.477 . S
C11 H31 0.930 . S
C12 N8 1.362 . S
C12 C9 1.431 . S
C12 C22 1.476 1_554 S
H13 C7 0.929 . S
C14 O5 1.250 . S
C14 O6 1.258 . S
O15 Mn0 2.162 . S
O15 C3 1.281 . S
O16 Mn0 2.297 . S
O16 C3 1.236 . S
N17 Mn1 2.282 1_556 S
N17 C18 1.328 . S
N17 C22 1.318 . S
C18 N17 1.328 . S
C18 C19 1.457 . S
C18 H23 0.929 . S
C19 C18 1.457 . S
C19 C20 1.291 . S
C19 H32 0.931 . S
C20 C19 1.291 . S
C20 C21 1.373 . S
C20 H33 0.929 . S
C21 C20 1.373 . S
C21 C22 1.396 . S
C21 C28 1.403 . S
C22 C12 1.476 1_556 S
C22 N17 1.318 . S
C22 C21 1.396 . S
H23 C18 0.929 . S
O24 Mn0 2.385 1_556 S
O24 C2 1.234 . S
O25 Mn0 2.209 . S
O25 Mn1 2.215 . S
O25 C2 1.283 1_554 S
O26 Mn0 2.094 . S
O26 C4 1.240 . S
O27 Mn1 2.117 . S
O27 C4 1.264 . S
C28 C21 1.403 . S
C28 C29 1.399 . S
C28 H34 0.929 . S
C29 C9 1.449 1_556 S
C29 C28 1.399 . S
C29 H35 0.930 . S
H30 C10 0.931 . S
H31 C11 0.930 . S
H32 C19 0.931 . S
H33 C20 0.929 . S
H34 C28 0.929 . S
H35 C29 0.930 . S
Mn36 O41 2.095 . S
Mn36 O51 2.162 . S
Mn36 O52 2.297 . S
Mn36 O60 2.385 . S
Mn36 O61 2.209 . S
Mn36 O62 2.094 . S
Mn37 O42 2.121 . S
Mn37 N44 2.257 1_565 S
Mn37 N53 2.282 1_565 S
Mn37 O61 2.215 . S
Mn37 O63 2.117 . S
C38 O60 1.234 . S
C38 O61 1.283 . S
C39 O51 1.281 . S
C39 O52 1.236 . S
C40 O62 1.240 . S
C40 O63 1.264 . S
O41 Mn36 2.095 . S
O41 C50 1.250 . S
O42 Mn37 2.121 . S
O42 C50 1.258 . S
C43 N44 1.326 . S
C43 C47 1.460 . S
C43 H49 0.929 . S
N44 Mn37 2.257 1_545 S
N44 C43 1.326 . S
N44 C48 1.362 . S
C45 C46 1.258 . S
C45 C48 1.431 . S
C45 C65 1.449 . S
C46 C45 1.258 . S
C46 C47 1.477 . S
C46 H66 0.931 . S
C47 C43 1.460 . S
C47 C46 1.477 . S
C47 H67 0.930 . S
C48 N44 1.362 . S
C48 C45 1.431 . S
C48 C58 1.476 . S
H49 C43 0.929 . S
C50 O41 1.250 . S
C50 O42 1.258 . S
O51 Mn36 2.162 . S
O51 C39 1.281 . S
O52 Mn36 2.297 . S
O52 C39 1.236 . S
N53 Mn37 2.282 1_545 S
N53 C54 1.328 1_545 S
N53 C58 1.318 . S
C54 N53 1.328 1_565 S
C54 C55 1.457 1_565 S
C54 H59 0.929 . S
C55 C54 1.457 1_545 S
C55 C56 1.291 . S
C55 H68 0.931 1_545 S
C56 C55 1.291 . S
C56 C57 1.373 . S
C56 H69 0.929 . S
C57 C56 1.373 . S
C57 C58 1.396 . S
C57 C64 1.403 . S
C58 C48 1.476 . S
C58 N53 1.318 . S
C58 C57 1.396 . S
H59 C54 0.929 . S
O60 Mn36 2.385 . S
O60 C38 1.234 . S
O61 Mn36 2.209 . S
O61 Mn37 2.215 . S
O61 C38 1.283 . S
O62 Mn36 2.094 . S
O62 C40 1.240 . S
O63 Mn37 2.117 . S
O63 C40 1.264 . S
C64 C57 1.403 . S
C64 C65 1.399 . S
C64 H70 0.929 . S
C65 C45 1.449 . S
C65 C64 1.399 . S
C65 H71 0.930 . S
H66 C46 0.931 . S
H67 C47 0.930 . S
H68 C55 0.931 1_565 S
H69 C56 0.929 . S
H70 C64 0.929 . S
H71 C65 0.930 . S
Mn72 O77 2.095 . S
Mn72 O87 2.162 . S
Mn72 O88 2.297 . S
Mn72 O96 2.385 . S
Mn72 O97 2.209 . S
Mn72 O98 2.094 . S
Mn73 O78 2.121 . S
Mn73 N80 2.257 . S
Mn73 N89 2.282 . S
Mn73 O97 2.215 . S
Mn73 O99 2.117 . S
C74 O96 1.234 . S
C74 O97 1.283 . S
C75 O87 1.281 . S
C75 O88 1.236 . S
C76 O98 1.240 . S
C76 O99 1.264 . S
O77 Mn72 2.095 . S
O77 C86 1.250 . S
O78 Mn73 2.121 . S
O78 C86 1.258 . S
C79 N80 1.326 . S
C79 C83 1.460 . S
C79 H85 0.929 . S
N80 Mn73 2.257 . S
N80 C79 1.326 . S
N80 C84 1.362 . S
C81 C82 1.258 . S
C81 C84 1.431 . S
C81 C101 1.449 . S
C82 C81 1.258 . S
C82 C83 1.477 . S
C82 H102 0.931 . S
C83 C79 1.460 . S
C83 C82 1.477 . S
C83 H103 0.930 . S
C84 N80 1.362 . S
C84 C81 1.431 . S
C84 C94 1.476 . S
H85 C79 0.929 . S
C86 O77 1.250 . S
C86 O78 1.258 . S
O87 Mn72 2.162 . S
O87 C75 1.281 . S
O88 Mn72 2.297 . S
O88 C75 1.236 . S
N89 Mn73 2.282 . S
N89 C90 1.328 . S
N89 C94 1.318 . S
C90 N89 1.328 . S
C90 C91 1.457 . S
C90 H95 0.929 . S
C91 C90 1.457 . S
C91 C92 1.291 . S
C91 H104 0.931 . S
C92 C91 1.291 . S
C92 C93 1.373 . S
C92 H105 0.929 . S
C93 C92 1.373 . S
C93 C94 1.396 . S
C93 C100 1.403 . S
C94 C84 1.476 . S
C94 N89 1.318 . S
C94 C93 1.396 . S
H95 C90 0.929 . S
O96 Mn72 2.385 . S
O96 C74 1.234 . S
O97 Mn72 2.209 . S
O97 Mn73 2.215 . S
O97 C74 1.283 . S
O98 Mn72 2.094 . S
O98 C76 1.240 . S
O99 Mn73 2.117 . S
O99 C76 1.264 . S
C100 C93 1.403 . S
C100 C101 1.399 . S
C100 H106 0.929 . S
C101 C81 1.449 . S
C101 C100 1.399 . S
C101 H107 0.930 . S
H102 C82 0.931 . S
H103 C83 0.930 . S
H104 C91 0.931 . S
H105 C92 0.929 . S
H106 C100 0.929 . S
H107 C101 0.930 . S
Mn108 O113 2.095 . S
Mn108 O123 2.162 . S
Mn108 O124 2.297 . S
Mn108 O132 2.385 . S
Mn108 O133 2.209 . S
Mn108 O134 2.094 . S
Mn109 O114 2.121 . S
Mn109 N116 2.257 1_545 S
Mn109 N125 2.282 1_545 S
Mn109 O133 2.215 . S
Mn109 O135 2.117 . S
C110 O132 1.234 . S
C110 O133 1.283 . S
C111 O123 1.281 . S
C111 O124 1.236 . S
C112 O134 1.240 . S
C112 O135 1.264 . S
O113 Mn108 2.095 . S
O113 C122 1.250 . S
O114 Mn109 2.121 . S
O114 C122 1.258 . S
C115 N116 1.326 . S
C115 C119 1.460 . S
C115 H121 0.929 . S
N116 Mn109 2.257 1_565 S
N116 C115 1.326 . S
N116 C120 1.362 . S
C117 C118 1.258 . S
C117 C120 1.431 . S
C117 C137 1.449 . S
C118 C117 1.258 . S
C118 C119 1.477 . S
C118 H138 0.931 . S
C119 C115 1.460 . S
C119 C118 1.477 . S
C119 H139 0.930 . S
C120 N116 1.362 . S
C120 C117 1.431 . S
C120 C130 1.476 . S
H121 C115 0.929 . S
C122 O113 1.250 . S
C122 O114 1.258 . S
O123 Mn108 2.162 . S
O123 C111 1.281 . S
O124 Mn108 2.297 . S
O124 C111 1.236 . S
N125 Mn109 2.282 1_565 S
N125 C126 1.328 1_565 S
N125 C130 1.318 . S
C126 N125 1.328 1_545 S
C126 C127 1.457 1_545 S
C126 H131 0.929 . S
C127 C126 1.457 1_565 S
C127 C128 1.291 . S
C127 H140 0.906 1_565 S
C128 C127 1.291 . S
C128 C129 1.373 . S
C128 H141 0.929 . S
C129 C128 1.373 . S
C129 C130 1.396 . S
C129 C136 1.403 . S
C130 C120 1.476 . S
C130 N125 1.318 . S
C130 C129 1.396 . S
H131 C126 0.929 . S
O132 Mn108 2.385 . S
O132 C110 1.234 . S
O133 Mn108 2.209 . S
O133 Mn109 2.215 . S
O133 C110 1.283 . S
O134 Mn108 2.094 . S
O134 C112 1.240 . S
O135 Mn109 2.117 . S
O135 C112 1.264 . S
C136 C129 1.403 . S
C136 C137 1.399 . S
C136 H142 0.929 . S
C137 C117 1.449 . S
C137 C136 1.399 . S
C137 H143 0.930 . S
H138 C118 0.931 . S
H139 C119 0.930 . S
H140 C127 0.906 1_545 S
H141 C128 0.929 . S
H142 C136 0.929 . S
H143 C137 0.930 . S
Mn144 O149 2.095 . S
Mn144 O159 2.162 . S
Mn144 O160 2.297 . S
Mn144 O168 2.385 . S
Mn144 O169 2.209 . S
Mn144 O170 2.094 . S
Mn145 O150 2.121 . S
Mn145 N152 2.257 . S
Mn145 N161 2.282 . S
Mn145 O169 2.215 . S
Mn145 O171 2.117 . S
C146 O168 1.234 . S
C146 O169 1.283 . S
C147 O159 1.281 . S
C147 O160 1.236 . S
C148 O170 1.240 . S
C148 O171 1.264 . S
O149 Mn144 2.095 . S
O149 C158 1.250 . S
O150 Mn145 2.121 . S
O150 C158 1.258 . S
C151 N152 1.326 . S
C151 C155 1.460 . S
C151 H157 0.929 . S
N152 Mn145 2.257 . S
N152 C151 1.326 . S
N152 C156 1.362 . S
C153 C154 1.258 . S
C153 C156 1.431 . S
C153 C173 1.449 . S
C154 C153 1.258 . S
C154 C155 1.477 . S
C154 H174 0.931 . S
C155 C151 1.460 . S
C155 C154 1.477 . S
C155 H175 0.930 . S
C156 N152 1.362 . S
C156 C153 1.431 . S
C156 C166 1.476 . S
H157 C151 0.929 . S
C158 O149 1.250 . S
C158 O150 1.258 . S
O159 Mn144 2.162 . S
O159 C147 1.281 . S
O160 Mn144 2.297 . S
O160 C147 1.236 . S
N161 Mn145 2.282 . S
N161 C162 1.328 . S
N161 C166 1.318 . S
C162 N161 1.328 . S
C162 C163 1.457 . S
C162 H167 0.929 . S
C163 C162 1.457 . S
C163 C164 1.291 . S
C163 H176 0.931 . S
C164 C163 1.291 . S
C164 C165 1.373 . S
C164 H177 0.929 . S
C165 C164 1.373 . S
C165 C166 1.396 . S
C165 C172 1.403 . S
C166 C156 1.476 . S
C166 N161 1.318 . S
C166 C165 1.396 . S
H167 C162 0.929 . S
O168 Mn144 2.385 . S
O168 C146 1.234 . S
O169 Mn144 2.209 . S
O169 Mn145 2.215 . S
O169 C146 1.283 . S
O170 Mn144 2.094 . S
O170 C148 1.240 . S
O171 Mn145 2.117 . S
O171 C148 1.264 . S
C172 C165 1.403 . S
C172 C173 1.399 . S
C172 H178 0.929 . S
C173 C153 1.449 . S
C173 C172 1.399 . S
C173 H179 0.930 . S
H174 C154 0.931 . S
H175 C155 0.930 . S
H176 C163 0.931 . S
H177 C164 0.929 . S
H178 C172 0.929 . S
H179 C173 0.930 . S
Mn180 O185 2.095 . S
Mn180 O195 2.162 . S
Mn180 O196 2.297 . S
Mn180 O204 2.385 . S
Mn180 O205 2.209 . S
Mn180 O206 2.094 . S
Mn181 O186 2.121 . S
Mn181 N188 2.257 1_565 S
Mn181 N197 2.282 1_565 S
Mn181 O205 2.215 . S
Mn181 O207 2.117 . S
C182 O204 1.234 . S
C182 O205 1.283 . S
C183 O195 1.281 . S
C183 O196 1.236 . S
C184 O206 1.240 . S
C184 O207 1.264 . S
O185 Mn180 2.095 . S
O185 C194 1.250 . S
O186 Mn181 2.121 . S
O186 C194 1.258 . S
C187 N188 1.326 . S
C187 C191 1.460 . S
C187 H193 0.929 . S
N188 Mn181 2.257 1_545 S
N188 C187 1.326 . S
N188 C192 1.362 . S
C189 C190 1.258 . S
C189 C192 1.431 . S
C189 C209 1.449 . S
C190 C189 1.258 . S
C190 C191 1.477 . S
C190 H210 0.931 . S
C191 C187 1.460 . S
C191 C190 1.477 . S
C191 H211 0.930 . S
C192 N188 1.362 . S
C192 C189 1.431 . S
C192 C202 1.476 . S
H193 C187 0.929 . S
C194 O185 1.250 . S
C194 O186 1.258 . S
O195 Mn180 2.162 . S
O195 C183 1.281 . S
O196 Mn180 2.297 . S
O196 C183 1.236 . S
N197 Mn181 2.282 1_545 S
N197 C198 1.328 1_545 S
N197 C202 1.318 . S
C198 N197 1.328 1_565 S
C198 C199 1.457 1_565 S
C198 H203 0.929 . S
C199 C198 1.457 1_545 S
C199 C200 1.291 . S
C199 H212 0.931 1_545 S
C200 C199 1.291 . S
C200 C201 1.373 . S
C200 H213 0.929 . S
C201 C200 1.373 . S
C201 C202 1.396 . S
C201 C208 1.403 . S
C202 C192 1.476 . S
C202 N197 1.318 . S
C202 C201 1.396 . S
H203 C198 0.929 . S
O204 Mn180 2.385 . S
O204 C182 1.234 . S
O205 Mn180 2.209 . S
O205 Mn181 2.215 . S
O205 C182 1.283 . S
O206 Mn180 2.094 . S
O206 C184 1.240 . S
O207 Mn181 2.117 . S
O207 C184 1.264 . S
C208 C201 1.403 . S
C208 C209 1.399 . S
C208 H214 0.929 . S
C209 C189 1.449 . S
C209 C208 1.399 . S
C209 H215 0.930 . S
H210 C190 0.931 . S
H211 C191 0.930 . S
H212 C199 0.931 1_565 S
H213 C200 0.929 . S
H214 C208 0.929 . S
H215 C209 0.930 . S
Mn216 O221 2.095 . S
Mn216 O231 2.162 . S
Mn216 O232 2.297 . S
Mn216 O240 2.385 . S
Mn216 O241 2.209 . S
Mn216 O242 2.094 . S
Mn217 O222 2.121 . S
Mn217 N224 2.257 . S
Mn217 N233 2.282 . S
Mn217 O241 2.215 . S
Mn217 O243 2.117 . S
C218 O240 1.234 . S
C218 O241 1.283 . S
C219 O231 1.281 . S
C219 O232 1.236 . S
C220 O242 1.240 . S
C220 O243 1.264 . S
O221 Mn216 2.095 . S
O221 C230 1.250 . S
O222 Mn217 2.121 . S
O222 C230 1.258 . S
C223 N224 1.326 . S
C223 C227 1.460 . S
C223 H229 0.929 . S
N224 Mn217 2.257 . S
N224 C223 1.326 . S
N224 C228 1.362 . S
C225 C226 1.258 . S
C225 C228 1.431 . S
C225 C245 1.449 . S
C226 C225 1.258 . S
C226 C227 1.477 . S
C226 H246 0.931 . S
C227 C223 1.460 . S
C227 C226 1.477 . S
C227 H247 0.930 . S
C228 N224 1.362 . S
C228 C225 1.431 . S
C228 C238 1.476 . S
H229 C223 0.929 . S
C230 O221 1.250 . S
C230 O222 1.258 . S
O231 Mn216 2.162 . S
O231 C219 1.281 . S
O232 Mn216 2.297 . S
O232 C219 1.236 . S
N233 Mn217 2.282 . S
N233 C234 1.328 . S
N233 C238 1.318 . S
C234 N233 1.328 . S
C234 C235 1.457 . S
C234 H239 0.929 . S
C235 C234 1.457 . S
C235 C236 1.291 . S
C235 H248 0.931 . S
C236 C235 1.291 . S
C236 C237 1.373 . S
C236 H249 0.929 . S
C237 C236 1.373 . S
C237 C238 1.396 . S
C237 C244 1.403 . S
C238 C228 1.476 . S
C238 N233 1.318 . S
C238 C237 1.396 . S
H239 C234 0.929 . S
O240 Mn216 2.385 . S
O240 C218 1.234 . S
O241 Mn216 2.209 . S
O241 Mn217 2.215 . S
O241 C218 1.283 . S
O242 Mn216 2.094 . S
O242 C220 1.240 . S
O243 Mn217 2.117 . S
O243 C220 1.264 . S
C244 C237 1.403 . S
C244 C245 1.399 . S
C244 H250 0.929 . S
C245 C225 1.449 . S
C245 C244 1.399 . S
C245 H251 0.930 . S
H246 C226 0.931 . S
H247 C227 0.930 . S
H248 C235 0.931 . S
H249 C236 0.929 . S
H250 C244 0.929 . S
H251 C245 0.930 . S
Mn252 O257 2.095 . S
Mn252 O267 2.162 . S
Mn252 O268 2.297 . S
Mn252 O276 2.385 . S
Mn252 O277 2.209 . S
Mn252 O278 2.094 . S
Mn253 O258 2.121 . S
Mn253 N260 2.257 1_545 S
Mn253 N269 2.282 1_545 S
Mn253 O277 2.215 . S
Mn253 O279 2.117 . S
C254 O276 1.234 . S
C254 O277 1.283 . S
C255 O267 1.281 . S
C255 O268 1.236 . S
C256 O278 1.240 . S
C256 O279 1.264 . S
O257 Mn252 2.095 . S
O257 C266 1.250 . S
O258 Mn253 2.121 . S
O258 C266 1.258 . S
C259 N260 1.326 . S
C259 C263 1.460 . S
C259 H265 0.929 . S
N260 Mn253 2.257 1_565 S
N260 C259 1.326 . S
N260 C264 1.362 . S
C261 C262 1.258 . S
C261 C264 1.431 . S
C261 C281 1.449 . S
C262 C261 1.258 . S
C262 C263 1.477 . S
C262 H282 0.931 . S
C263 C259 1.460 . S
C263 C262 1.477 . S
C263 H283 0.930 . S
C264 N260 1.362 . S
C264 C261 1.431 . S
C264 C274 1.476 . S
H265 C259 0.929 . S
C266 O257 1.250 . S
C266 O258 1.258 . S
O267 Mn252 2.162 . S
O267 C255 1.281 . S
O268 Mn252 2.297 . S
O268 C255 1.236 . S
N269 Mn253 2.282 1_565 S
N269 C270 1.328 1_565 S
N269 C274 1.318 . S
C270 N269 1.328 1_545 S
C270 C271 1.457 1_546 S
C270 H275 0.929 . S
C271 C270 1.457 1_564 S
C271 C272 1.291 . S
C271 H284 0.906 1_565 S
C272 C271 1.291 . S
C272 C273 1.373 1_554 S
C272 H285 0.929 . S
C273 C272 1.373 1_556 S
C273 C274 1.396 . S
C273 C280 1.403 1_556 S
C274 C264 1.476 . S
C274 N269 1.318 . S
C274 C273 1.396 . S
H275 C270 0.929 . S
O276 Mn252 2.385 . S
O276 C254 1.234 . S
O277 Mn252 2.209 . S
O277 Mn253 2.215 . S
O277 C254 1.283 . S
O278 Mn252 2.094 . S
O278 C256 1.240 . S
O279 Mn253 2.117 . S
O279 C256 1.264 . S
C280 C273 1.403 1_554 S
C280 C281 1.399 1_554 S
C280 H286 0.929 . S
C281 C261 1.449 . S
C281 C280 1.399 1_556 S
C281 H287 0.930 . S
H282 C262 0.931 . S
H283 C263 0.930 . S
H284 C271 0.906 1_545 S
H285 C272 0.929 . S
H286 C280 0.929 . S
H287 C281 0.930 . S
Mn288 O293 2.095 . S
Mn288 O303 2.162 . S
Mn288 O304 2.297 . S
Mn288 O312 2.385 . S
Mn288 O313 2.209 . S
Mn288 O314 2.094 . S
Mn289 O294 2.121 . S
Mn289 N296 2.257 . S
Mn289 N305 2.282 . S
Mn289 O313 2.215 . S
Mn289 O315 2.117 . S
C290 O312 1.234 . S
C290 O313 1.283 . S
C291 O303 1.281 . S
C291 O304 1.236 . S
C292 O314 1.240 . S
C292 O315 1.264 . S
O293 Mn288 2.095 . S
O293 C302 1.250 . S
O294 Mn289 2.121 . S
O294 C302 1.258 . S
C295 N296 1.326 . S
C295 C299 1.460 . S
C295 H301 0.929 . S
N296 Mn289 2.257 . S
N296 C295 1.326 . S
N296 C300 1.362 . S
C297 C298 1.258 . S
C297 C300 1.431 . S
C297 C317 1.449 . S
C298 C297 1.258 . S
C298 C299 1.477 . S
C298 H318 0.931 . S
C299 C295 1.460 . S
C299 C298 1.477 . S
C299 H319 0.930 . S
C300 N296 1.362 . S
C300 C297 1.431 . S
C300 C310 1.476 . S
H301 C295 0.929 . S
C302 O293 1.250 . S
C302 O294 1.258 . S
O303 Mn288 2.162 . S
O303 C291 1.281 . S
O304 Mn288 2.297 . S
O304 C291 1.236 . S
N305 Mn289 2.282 . S
N305 C306 1.328 . S
N305 C310 1.318 . S
C306 N305 1.328 . S
C306 C307 1.457 . S
C306 H311 0.929 . S
C307 C306 1.457 . S
C307 C308 1.291 . S
C307 H320 0.931 . S
C308 C307 1.291 . S
C308 C309 1.373 . S
C308 H321 0.929 . S
C309 C308 1.373 . S
C309 C310 1.396 . S
C309 C316 1.403 . S
C310 C300 1.476 . S
C310 N305 1.318 . S
C310 C309 1.396 . S
H311 C306 0.929 . S
O312 Mn288 2.385 . S
O312 C290 1.234 . S
O313 Mn288 2.209 . S
O313 Mn289 2.215 . S
O313 C290 1.283 . S
O314 Mn288 2.094 . S
O314 C292 1.240 . S
O315 Mn289 2.117 . S
O315 C292 1.264 . S
C316 C309 1.403 . S
C316 C317 1.399 . S
C316 H322 0.929 . S
C317 C297 1.449 . S
C317 C316 1.399 . S
C317 H323 0.930 . S
H318 C298 0.931 . S
H319 C299 0.930 . S
H320 C307 0.931 . S
H321 C308 0.929 . S
H322 C316 0.929 . S
H323 C317 0.930 . S
Mn324 O329 2.095 . S
Mn324 O339 2.162 . S
Mn324 O340 2.297 . S
Mn324 O348 2.385 . S
Mn324 O349 2.209 . S
Mn324 O350 2.094 . S
Mn325 O330 2.121 . S
Mn325 N332 2.257 1_545 S
Mn325 N341 2.282 1_545 S
Mn325 O349 2.215 . S
Mn325 O351 2.117 . S
C326 O348 1.234 . S
C326 O349 1.283 . S
C327 O339 1.281 . S
C327 O340 1.236 . S
C328 O350 1.240 . S
C328 O351 1.264 . S
O329 Mn324 2.095 . S
O329 C338 1.250 . S
O330 Mn325 2.121 . S
O330 C338 1.258 . S
C331 N332 1.326 . S
C331 C335 1.460 . S
C331 H337 0.929 . S
N332 Mn325 2.257 1_565 S
N332 C331 1.326 . S
N332 C336 1.362 . S
C333 C334 1.258 . S
C333 C336 1.431 . S
C333 C353 1.449 . S
C334 C333 1.258 . S
C334 C335 1.477 . S
C334 H354 0.931 . S
C335 C331 1.460 . S
C335 C334 1.477 . S
C335 H355 0.930 . S
C336 N332 1.362 . S
C336 C333 1.431 . S
C336 C346 1.476 . S
H337 C331 0.929 . S
C338 O329 1.250 . S
C338 O330 1.258 . S
O339 Mn324 2.162 . S
O339 C327 1.281 . S
O340 Mn324 2.297 . S
O340 C327 1.236 . S
N341 Mn325 2.282 1_565 S
N341 C342 1.328 1_565 S
N341 C346 1.318 . S
C342 N341 1.328 1_545 S
C342 C343 1.457 1_546 S
C342 H347 0.929 . S
C343 C342 1.457 1_564 S
C343 C344 1.291 . S
C343 H356 0.906 1_565 S
C344 C343 1.291 . S
C344 C345 1.373 1_554 S
C344 H357 0.929 . S
C345 C344 1.373 1_556 S
C345 C346 1.396 . S
C345 C352 1.403 1_556 S
C346 C336 1.476 . S
C346 N341 1.318 . S
C346 C345 1.396 . S
H347 C342 0.929 . S
O348 Mn324 2.385 . S
O348 C326 1.234 . S
O349 Mn324 2.209 . S
O349 Mn325 2.215 . S
O349 C326 1.283 . S
O350 Mn324 2.094 . S
O350 C328 1.240 . S
O351 Mn325 2.117 . S
O351 C328 1.264 . S
C352 C345 1.403 1_554 S
C352 C353 1.399 1_554 S
C352 H358 0.929 . S
C353 C333 1.449 . S
C353 C352 1.399 1_556 S
C353 H359 0.930 . S
H354 C334 0.931 . S
H355 C335 0.930 . S
H356 C343 0.906 1_545 S
H357 C344 0.929 . S
H358 C352 0.929 . S
H359 C353 0.930 . S
Mn360 O365 2.095 . S
Mn360 O375 2.162 . S
Mn360 O376 2.297 . S
Mn360 O384 2.385 . S
Mn360 O385 2.209 . S
Mn360 O386 2.094 . S
Mn361 O366 2.121 . S
Mn361 N368 2.257 . S
Mn361 N377 2.282 . S
Mn361 O385 2.215 . S
Mn361 O387 2.117 . S
C362 O384 1.234 . S
C362 O385 1.283 . S
C363 O375 1.281 . S
C363 O376 1.236 . S
C364 O386 1.240 . S
C364 O387 1.264 . S
O365 Mn360 2.095 . S
O365 C374 1.250 . S
O366 Mn361 2.121 . S
O366 C374 1.258 . S
C367 N368 1.326 . S
C367 C371 1.460 . S
C367 H373 0.929 . S
N368 Mn361 2.257 . S
N368 C367 1.326 . S
N368 C372 1.362 . S
C369 C370 1.258 . S
C369 C372 1.431 . S
C369 C389 1.449 . S
C370 C369 1.258 . S
C370 C371 1.477 . S
C370 H390 0.931 . S
C371 C367 1.460 . S
C371 C370 1.477 . S
C371 H391 0.930 . S
C372 N368 1.362 . S
C372 C369 1.431 . S
C372 C382 1.476 . S
H373 C367 0.929 . S
C374 O365 1.250 . S
C374 O366 1.258 . S
O375 Mn360 2.162 . S
O375 C363 1.281 . S
O376 Mn360 2.297 . S
O376 C363 1.236 . S
N377 Mn361 2.282 . S
N377 C378 1.328 . S
N377 C382 1.318 . S
C378 N377 1.328 . S
C378 C379 1.457 . S
C378 H383 0.929 . S
C379 C378 1.457 . S
C379 C380 1.291 . S
C379 H392 0.931 . S
C380 C379 1.291 . S
C380 C381 1.373 . S
C380 H393 0.929 . S
C381 C380 1.373 . S
C381 C382 1.396 . S
C381 C388 1.403 . S
C382 C372 1.476 . S
C382 N377 1.318 . S
C382 C381 1.396 . S
H383 C378 0.929 . S
O384 Mn360 2.385 . S
O384 C362 1.234 . S
O385 Mn360 2.209 . S
O385 Mn361 2.215 . S
O385 C362 1.283 . S
O386 Mn360 2.094 . S
O386 C364 1.240 . S
O387 Mn361 2.117 . S
O387 C364 1.264 . S
C388 C381 1.403 . S
C388 C389 1.399 . S
C388 H394 0.929 . S
C389 C369 1.449 . S
C389 C388 1.399 . S
C389 H395 0.930 . S
H390 C370 0.931 . S
H391 C371 0.930 . S
H392 C379 0.931 . S
H393 C380 0.929 . S
H394 C388 0.929 . S
H395 C389 0.930 . S
Mn396 O401 2.095 . S
Mn396 O411 2.162 . S
Mn396 O412 2.297 . S
Mn396 O420 2.385 . S
Mn396 O421 2.209 . S
Mn396 O422 2.094 . S
Mn397 O402 2.121 . S
Mn397 N404 2.257 1_565 S
Mn397 N413 2.282 1_565 S
Mn397 O421 2.215 . S
Mn397 O423 2.117 . S
C398 O420 1.234 . S
C398 O421 1.283 . S
C399 O411 1.281 . S
C399 O412 1.236 . S
C400 O422 1.240 . S
C400 O423 1.264 . S
O401 Mn396 2.095 . S
O401 C410 1.250 . S
O402 Mn397 2.121 . S
O402 C410 1.258 . S
C403 N404 1.326 . S
C403 C407 1.460 . S
C403 H409 0.929 . S
N404 Mn397 2.257 1_545 S
N404 C403 1.326 . S
N404 C408 1.362 . S
C405 C406 1.258 . S
C405 C408 1.431 . S
C405 C425 1.449 . S
C406 C405 1.258 . S
C406 C407 1.477 . S
C406 H426 0.931 . S
C407 C403 1.460 . S
C407 C406 1.477 . S
C407 H427 0.930 . S
C408 N404 1.362 . S
C408 C405 1.431 . S
C408 C418 1.476 . S
H409 C403 0.929 . S
C410 O401 1.250 . S
C410 O402 1.258 . S
O411 Mn396 2.162 . S
O411 C399 1.281 . S
O412 Mn396 2.297 . S
O412 C399 1.236 . S
N413 Mn397 2.282 1_545 S
N413 C414 1.328 1_545 S
N413 C418 1.318 . S
C414 N413 1.328 1_565 S
C414 C415 1.457 1_565 S
C414 H419 0.929 . S
C415 C414 1.457 1_545 S
C415 C416 1.291 . S
C415 H428 0.931 1_545 S
C416 C415 1.291 . S
C416 C417 1.373 . S
C416 H429 0.929 . S
C417 C416 1.373 . S
C417 C418 1.396 . S
C417 C424 1.403 . S
C418 C408 1.476 . S
C418 N413 1.318 . S
C418 C417 1.396 . S
H419 C414 0.929 . S
O420 Mn396 2.385 . S
O420 C398 1.234 . S
O421 Mn396 2.209 . S
O421 Mn397 2.215 . S
O421 C398 1.283 . S
O422 Mn396 2.094 . S
O422 C400 1.240 . S
O423 Mn397 2.117 . S
O423 C400 1.264 . S
C424 C417 1.403 . S
C424 C425 1.399 . S
C424 H430 0.929 . S
C425 C405 1.449 . S
C425 C424 1.399 . S
C425 H431 0.930 . S
H426 C406 0.931 . S
H427 C407 0.930 . S
H428 C415 0.931 1_565 S
H429 C416 0.929 . S
H430 C424 0.929 . S
H431 C425 0.930 . S
Mn432 O437 2.095 . S
Mn432 O447 2.162 . S
Mn432 O448 2.297 . S
Mn432 O456 2.385 1_554 S
Mn432 O457 2.209 . S
Mn432 O458 2.094 . S
Mn433 O438 2.121 . S
Mn433 N440 2.257 . S
Mn433 N449 2.282 1_554 S
Mn433 O457 2.215 . S
Mn433 O459 2.117 . S
C434 O456 1.234 . S
C434 O457 1.283 1_556 S
C435 O447 1.281 . S
C435 O448 1.236 . S
C436 O458 1.240 . S
C436 O459 1.264 . S
O437 Mn432 2.095 . S
O437 C446 1.250 . S
O438 Mn433 2.121 . S
O438 C446 1.258 . S
C439 N440 1.326 . S
C439 C443 1.460 . S
C439 H445 0.929 . S
N440 Mn433 2.257 . S
N440 C439 1.326 . S
N440 C444 1.362 . S
C441 C442 1.258 . S
C441 C444 1.431 . S
C441 C461 1.449 1_554 S
C442 C441 1.258 . S
C442 C443 1.477 . S
C442 H462 0.931 . S
C443 C439 1.460 . S
C443 C442 1.477 . S
C443 H463 0.930 . S
C444 N440 1.362 . S
C444 C441 1.431 . S
C444 C454 1.476 1_554 S
H445 C439 0.929 . S
C446 O437 1.250 . S
C446 O438 1.258 . S
O447 Mn432 2.162 . S
O447 C435 1.281 . S
O448 Mn432 2.297 . S
O448 C435 1.236 . S
N449 Mn433 2.282 1_556 S
N449 C450 1.328 . S
N449 C454 1.318 . S
C450 N449 1.328 . S
C450 C451 1.457 . S
C450 H455 0.929 . S
C451 C450 1.457 . S
C451 C452 1.291 . S
C451 H464 0.931 . S
C452 C451 1.291 . S
C452 C453 1.373 . S
C452 H465 0.929 . S
C453 C452 1.373 . S
C453 C454 1.396 . S
C453 C460 1.403 . S
C454 C444 1.476 1_556 S
C454 N449 1.318 . S
C454 C453 1.396 . S
H455 C450 0.929 . S
O456 Mn432 2.385 1_556 S
O456 C434 1.234 . S
O457 Mn432 2.209 . S
O457 Mn433 2.215 . S
O457 C434 1.283 1_554 S
O458 Mn432 2.094 . S
O458 C436 1.240 . S
O459 Mn433 2.117 . S
O459 C436 1.264 . S
C460 C453 1.403 . S
C460 C461 1.399 . S
C460 H466 0.929 . S
C461 C441 1.449 1_556 S
C461 C460 1.399 . S
C461 H467 0.930 . S
H462 C442 0.931 . S
H463 C443 0.930 . S
H464 C451 0.931 . S
H465 C452 0.929 . S
H466 C460 0.929 . S
H467 C461 0.930 . S
Mn468 O473 2.095 . S
Mn468 O483 2.162 . S
Mn468 O484 2.297 . S
Mn468 O492 2.385 . S
Mn468 O493 2.209 . S
Mn468 O494 2.094 . S
Mn469 O474 2.121 . S
Mn469 N476 2.257 1_545 S
Mn469 N485 2.282 1_545 S
Mn469 O493 2.215 . S
Mn469 O495 2.117 . S
C470 O492 1.234 . S
C470 O493 1.283 . S
C471 O483 1.281 . S
C471 O484 1.236 . S
C472 O494 1.240 . S
C472 O495 1.264 . S
O473 Mn468 2.095 . S
O473 C482 1.250 . S
O474 Mn469 2.121 . S
O474 C482 1.258 . S
C475 N476 1.326 . S
C475 C479 1.460 . S
C475 H481 0.929 . S
N476 Mn469 2.257 1_565 S
N476 C475 1.326 . S
N476 C480 1.362 . S
C477 C478 1.258 . S
C477 C480 1.431 . S
C477 C497 1.449 . S
C478 C477 1.258 . S
C478 C479 1.477 . S
C478 H498 0.931 . S
C479 C475 1.460 . S
C479 C478 1.477 . S
C479 H499 0.930 . S
C480 N476 1.362 . S
C480 C477 1.431 . S
C480 C490 1.476 . S
H481 C475 0.929 . S
C482 O473 1.250 . S
C482 O474 1.258 . S
O483 Mn468 2.162 . S
O483 C471 1.281 . S
O484 Mn468 2.297 . S
O484 C471 1.236 . S
N485 Mn469 2.282 1_565 S
N485 C486 1.328 1_565 S
N485 C490 1.318 . S
C486 N485 1.328 1_545 S
C486 C487 1.457 1_545 S
C486 H491 0.929 . S
C487 C486 1.457 1_565 S
C487 C488 1.291 . S
C487 H500 0.906 1_565 S
C488 C487 1.291 . S
C488 C489 1.373 . S
C488 H501 0.929 . S
C489 C488 1.373 . S
C489 C490 1.396 . S
C489 C496 1.403 . S
C490 C480 1.476 . S
C490 N485 1.318 . S
C490 C489 1.396 . S
H491 C486 0.929 . S
O492 Mn468 2.385 . S
O492 C470 1.234 . S
O493 Mn468 2.209 . S
O493 Mn469 2.215 . S
O493 C470 1.283 . S
O494 Mn468 2.094 . S
O494 C472 1.240 . S
O495 Mn469 2.117 . S
O495 C472 1.264 . S
C496 C489 1.403 . S
C496 C497 1.399 . S
C496 H502 0.929 . S
C497 C477 1.449 . S
C497 C496 1.399 . S
C497 H503 0.930 . S
H498 C478 0.931 . S
H499 C479 0.930 . S
H500 C487 0.906 1_545 S
H501 C488 0.929 . S
H502 C496 0.929 . S
H503 C497 0.930 . S
Mn504 O509 2.095 . S
Mn504 O519 2.162 . S
Mn504 O520 2.297 . S
Mn504 O528 2.385 . S
Mn504 O529 2.209 . S
Mn504 O530 2.094 . S
Mn505 O510 2.121 . S
Mn505 N512 2.257 . S
Mn505 N521 2.282 . S
Mn505 O529 2.215 . S
Mn505 O531 2.117 . S
C506 O528 1.234 . S
C506 O529 1.283 . S
C507 O519 1.281 . S
C507 O520 1.236 . S
C508 O530 1.240 . S
C508 O531 1.264 . S
O509 Mn504 2.095 . S
O509 C518 1.250 . S
O510 Mn505 2.121 . S
O510 C518 1.258 . S
C511 N512 1.326 . S
C511 C515 1.460 . S
C511 H517 0.929 . S
N512 Mn505 2.257 . S
N512 C511 1.326 . S
N512 C516 1.362 . S
C513 C514 1.258 . S
C513 C516 1.431 . S
C513 C533 1.449 . S
C514 C513 1.258 . S
C514 C515 1.477 . S
C514 H534 0.931 . S
C515 C511 1.460 . S
C515 C514 1.477 . S
C515 H535 0.930 . S
C516 N512 1.362 . S
C516 C513 1.431 . S
C516 C526 1.476 . S
H517 C511 0.929 . S
C518 O509 1.250 . S
C518 O510 1.258 . S
O519 Mn504 2.162 . S
O519 C507 1.281 . S
O520 Mn504 2.297 . S
O520 C507 1.236 . S
N521 Mn505 2.282 . S
N521 C522 1.328 . S
N521 C526 1.318 . S
C522 N521 1.328 . S
C522 C523 1.457 . S
C522 H527 0.929 . S
C523 C522 1.457 . S
C523 C524 1.291 . S
C523 H536 0.931 . S
C524 C523 1.291 . S
C524 C525 1.373 . S
C524 H537 0.929 . S
C525 C524 1.373 . S
C525 C526 1.396 . S
C525 C532 1.403 . S
C526 C516 1.476 . S
C526 N521 1.318 . S
C526 C525 1.396 . S
H527 C522 0.929 . S
O528 Mn504 2.385 . S
O528 C506 1.234 . S
O529 Mn504 2.209 . S
O529 Mn505 2.215 . S
O529 C506 1.283 . S
O530 Mn504 2.094 . S
O530 C508 1.240 . S
O531 Mn505 2.117 . S
O531 C508 1.264 . S
C532 C525 1.403 . S
C532 C533 1.399 . S
C532 H538 0.929 . S
C533 C513 1.449 . S
C533 C532 1.399 . S
C533 H539 0.930 . S
H534 C514 0.931 . S
H535 C515 0.930 . S
H536 C523 0.931 . S
H537 C524 0.929 . S
H538 C532 0.929 . S
H539 C533 0.930 . S
Mn540 O545 2.095 . S
Mn540 O555 2.162 . S
Mn540 O556 2.297 . S
Mn540 O564 2.385 . S
Mn540 O565 2.209 . S
Mn540 O566 2.094 . S
Mn541 O546 2.121 . S
Mn541 N548 2.257 1_565 S
Mn541 N557 2.282 1_565 S
Mn541 O565 2.215 . S
Mn541 O567 2.117 . S
C542 O564 1.234 . S
C542 O565 1.283 . S
C543 O555 1.281 . S
C543 O556 1.236 . S
C544 O566 1.240 . S
C544 O567 1.264 . S
O545 Mn540 2.095 . S
O545 C554 1.250 . S
O546 Mn541 2.121 . S
O546 C554 1.258 . S
C547 N548 1.326 . S
C547 C551 1.460 . S
C547 H553 0.929 . S
N548 Mn541 2.257 1_545 S
N548 C547 1.326 . S
N548 C552 1.362 . S
C549 C550 1.258 . S
C549 C552 1.431 . S
C549 C569 1.449 . S
C550 C549 1.258 . S
C550 C551 1.477 . S
C550 H570 0.931 . S
C551 C547 1.460 . S
C551 C550 1.477 . S
C551 H571 0.930 . S
C552 N548 1.362 . S
C552 C549 1.431 . S
C552 C562 1.476 . S
H553 C547 0.929 . S
C554 O545 1.250 . S
C554 O546 1.258 . S
O555 Mn540 2.162 . S
O555 C543 1.281 . S
O556 Mn540 2.297 . S
O556 C543 1.236 . S
N557 Mn541 2.282 1_545 S
N557 C558 1.328 1_545 S
N557 C562 1.318 . S
C558 N557 1.328 1_565 S
C558 C559 1.457 1_565 S
C558 H563 0.929 . S
C559 C558 1.457 1_545 S
C559 C560 1.291 . S
C559 H572 0.931 1_545 S
C560 C559 1.291 . S
C560 C561 1.373 . S
C560 H573 0.929 . S
C561 C560 1.373 . S
C561 C562 1.396 . S
C561 C568 1.403 . S
C562 C552 1.476 . S
C562 N557 1.318 . S
C562 C561 1.396 . S
H563 C558 0.929 . S
O564 Mn540 2.385 . S
O564 C542 1.234 . S
O565 Mn540 2.209 . S
O565 Mn541 2.215 . S
O565 C542 1.283 . S
O566 Mn540 2.094 . S
O566 C544 1.240 . S
O567 Mn541 2.117 . S
O567 C544 1.264 . S
C568 C561 1.403 . S
C568 C569 1.399 . S
C568 H574 0.929 . S
C569 C549 1.449 . S
C569 C568 1.399 . S
C569 H575 0.930 . S
H570 C550 0.931 . S
H571 C551 0.930 . S
H572 C559 0.931 1_565 S
H573 C560 0.929 . S
H574 C568 0.929 . S
H575 C569 0.930 . S
Mn576 O581 2.095 . S
Mn576 O591 2.162 . S
Mn576 O592 2.297 . S
Mn576 O600 2.385 . S
Mn576 O601 2.209 . S
Mn576 O602 2.094 . S
Mn577 O582 2.121 . S
Mn577 N584 2.257 . S
Mn577 N593 2.282 . S
Mn577 O601 2.215 . S
Mn577 O603 2.117 . S
C578 O600 1.234 . S
C578 O601 1.283 . S
C579 O591 1.281 . S
C579 O592 1.236 . S
C580 O602 1.240 . S
C580 O603 1.264 . S
O581 Mn576 2.095 . S
O581 C590 1.250 . S
O582 Mn577 2.121 . S
O582 C590 1.258 . S
C583 N584 1.326 . S
C583 C587 1.460 . S
C583 H589 0.929 . S
N584 Mn577 2.257 . S
N584 C583 1.326 . S
N584 C588 1.362 . S
C585 C586 1.258 . S
C585 C588 1.431 . S
C585 C605 1.449 . S
C586 C585 1.258 . S
C586 C587 1.477 . S
C586 H606 0.931 . S
C587 C583 1.460 . S
C587 C586 1.477 . S
C587 H607 0.930 . S
C588 N584 1.362 . S
C588 C585 1.431 . S
C588 C598 1.476 . S
H589 C583 0.929 . S
C590 O581 1.250 . S
C590 O582 1.258 . S
O591 Mn576 2.162 . S
O591 C579 1.281 . S
O592 Mn576 2.297 . S
O592 C579 1.236 . S
N593 Mn577 2.282 . S
N593 C594 1.328 . S
N593 C598 1.318 . S
C594 N593 1.328 . S
C594 C595 1.457 . S
C594 H599 0.929 . S
C595 C594 1.457 . S
C595 C596 1.291 . S
C595 H608 0.931 . S
C596 C595 1.291 . S
C596 C597 1.373 . S
C596 H609 0.929 . S
C597 C596 1.373 . S
C597 C598 1.396 . S
C597 C604 1.403 . S
C598 C588 1.476 . S
C598 N593 1.318 . S
C598 C597 1.396 . S
H599 C594 0.929 . S
O600 Mn576 2.385 . S
O600 C578 1.234 . S
O601 Mn576 2.209 . S
O601 Mn577 2.215 . S
O601 C578 1.283 . S
O602 Mn576 2.094 . S
O602 C580 1.240 . S
O603 Mn577 2.117 . S
O603 C580 1.264 . S
C604 C597 1.403 . S
C604 C605 1.399 . S
C604 H610 0.929 . S
C605 C585 1.449 . S
C605 C604 1.399 . S
C605 H611 0.930 . S
H606 C586 0.931 . S
H607 C587 0.930 . S
H608 C595 0.931 . S
H609 C596 0.929 . S
H610 C604 0.929 . S
H611 C605 0.930 . S
Mn612 O617 2.095 . S
Mn612 O627 2.162 . S
Mn612 O628 2.297 . S
Mn612 O636 2.385 . S
Mn612 O637 2.209 . S
Mn612 O638 2.094 . S
Mn613 O618 2.121 . S
Mn613 N620 2.257 . S
Mn613 N629 2.282 . S
Mn613 O637 2.215 . S
Mn613 O639 2.117 . S
C614 O636 1.234 . S
C614 O637 1.283 . S
C615 O627 1.281 . S
C615 O628 1.236 . S
C616 O638 1.240 . S
C616 O639 1.264 . S
O617 Mn612 2.095 . S
O617 C626 1.250 . S
O618 Mn613 2.121 . S
O618 C626 1.258 . S
C619 N620 1.326 . S
C619 C623 1.460 . S
C619 H625 0.929 . S
N620 Mn613 2.257 . S
N620 C619 1.326 . S
N620 C624 1.362 . S
C621 C622 1.258 . S
C621 C624 1.431 . S
C621 C641 1.449 . S
C622 C621 1.258 . S
C622 C623 1.477 . S
C622 H642 0.931 . S
C623 C619 1.460 . S
C623 C622 1.477 . S
C623 H643 0.930 . S
C624 N620 1.362 . S
C624 C621 1.431 . S
C624 C634 1.476 . S
H625 C619 0.929 . S
C626 O617 1.250 . S
C626 O618 1.258 . S
O627 Mn612 2.162 . S
O627 C615 1.281 . S
O628 Mn612 2.297 . S
O628 C615 1.236 . S
N629 Mn613 2.282 . S
N629 C630 1.328 . S
N629 C634 1.318 . S
C630 N629 1.328 . S
C630 C631 1.457 . S
C630 H635 0.929 . S
C631 C630 1.457 . S
C631 C632 1.291 . S
C631 H644 0.931 . S
C632 C631 1.291 . S
C632 C633 1.373 . S
C632 H645 0.929 . S
C633 C632 1.373 . S
C633 C634 1.396 . S
C633 C640 1.403 . S
C634 C624 1.476 . S
C634 N629 1.318 . S
C634 C633 1.396 . S
H635 C630 0.929 . S
O636 Mn612 2.385 . S
O636 C614 1.234 . S
O637 Mn612 2.209 . S
O637 Mn613 2.215 . S
O637 C614 1.283 . S
O638 Mn612 2.094 . S
O638 C616 1.240 . S
O639 Mn613 2.117 . S
O639 C616 1.264 . S
C640 C633 1.403 . S
C640 C641 1.399 . S
C640 H646 0.929 . S
C641 C621 1.449 . S
C641 C640 1.399 . S
C641 H647 0.930 . S
H642 C622 0.931 . S
H643 C623 0.930 . S
H644 C631 0.931 . S
H645 C632 0.929 . S
H646 C640 0.929 . S
H647 C641 0.930 . S
Mn648 O653 2.095 . S
Mn648 O663 2.162 . S
Mn648 O664 2.297 . S
Mn648 O672 2.385 1_554 S
Mn648 O673 2.209 . S
Mn648 O674 2.094 . S
Mn649 O654 2.121 . S
Mn649 N656 2.257 . S
Mn649 N665 2.282 1_554 S
Mn649 O673 2.215 . S
Mn649 O675 2.117 . S
C650 O672 1.234 . S
C650 O673 1.283 1_556 S
C651 O663 1.281 . S
C651 O664 1.236 . S
C652 O674 1.240 . S
C652 O675 1.264 . S
O653 Mn648 2.095 . S
O653 C662 1.250 . S
O654 Mn649 2.121 . S
O654 C662 1.258 . S
C655 N656 1.326 . S
C655 C659 1.460 . S
C655 H661 0.929 . S
N656 Mn649 2.257 . S
N656 C655 1.326 . S
N656 C660 1.362 . S
C657 C658 1.258 . S
C657 C660 1.431 . S
C657 C677 1.449 1_554 S
C658 C657 1.258 . S
C658 C659 1.477 . S
C658 H678 0.931 . S
C659 C655 1.460 . S
C659 C658 1.477 . S
C659 H679 0.930 . S
C660 N656 1.362 . S
C660 C657 1.431 . S
C660 C670 1.476 1_554 S
H661 C655 0.929 . S
C662 O653 1.250 . S
C662 O654 1.258 . S
O663 Mn648 2.162 . S
O663 C651 1.281 . S
O664 Mn648 2.297 . S
O664 C651 1.236 . S
N665 Mn649 2.282 1_556 S
N665 C666 1.328 . S
N665 C670 1.318 . S
C666 N665 1.328 . S
C666 C667 1.457 . S
C666 H671 0.929 . S
C667 C666 1.457 . S
C667 C668 1.291 . S
C667 H680 0.931 . S
C668 C667 1.291 . S
C668 C669 1.373 . S
C668 H681 0.929 . S
C669 C668 1.373 . S
C669 C670 1.396 . S
C669 C676 1.403 . S
C670 C660 1.476 1_556 S
C670 N665 1.318 . S
C670 C669 1.396 . S
H671 C666 0.929 . S
O672 Mn648 2.385 1_556 S
O672 C650 1.234 . S
O673 Mn648 2.209 . S
O673 Mn649 2.215 . S
O673 C650 1.283 1_554 S
O674 Mn648 2.094 . S
O674 C652 1.240 . S
O675 Mn649 2.117 . S
O675 C652 1.264 . S
C676 C669 1.403 . S
C676 C677 1.399 . S
C676 H682 0.929 . S
C677 C657 1.449 1_556 S
C677 C676 1.399 . S
C677 H683 0.930 . S
H678 C658 0.931 . S
H679 C659 0.930 . S
H680 C667 0.931 . S
H681 C668 0.929 . S
H682 C676 0.929 . S
H683 C677 0.930 . S
Mn684 O689 2.095 . S
Mn684 O699 2.162 . S
Mn684 O700 2.297 . S
Mn684 O708 2.385 . S
Mn684 O709 2.209 . S
Mn684 O710 2.094 . S
Mn685 O690 2.121 . S
Mn685 N692 2.257 . S
Mn685 N701 2.282 . S
Mn685 O709 2.215 . S
Mn685 O711 2.117 . S
C686 O708 1.234 . S
C686 O709 1.283 . S
C687 O699 1.281 . S
C687 O700 1.236 . S
C688 O710 1.240 . S
C688 O711 1.264 . S
O689 Mn684 2.095 . S
O689 C698 1.250 . S
O690 Mn685 2.121 . S
O690 C698 1.258 . S
C691 N692 1.326 . S
C691 C695 1.460 . S
C691 H697 0.929 . S
N692 Mn685 2.257 . S
N692 C691 1.326 . S
N692 C696 1.362 . S
C693 C694 1.258 . S
C693 C696 1.431 . S
C693 C713 1.449 . S
C694 C693 1.258 . S
C694 C695 1.477 . S
C694 H714 0.931 . S
C695 C691 1.460 . S
C695 C694 1.477 . S
C695 H715 0.930 . S
C696 N692 1.362 . S
C696 C693 1.431 . S
C696 C706 1.476 . S
H697 C691 0.929 . S
C698 O689 1.250 . S
C698 O690 1.258 . S
O699 Mn684 2.162 . S
O699 C687 1.281 . S
O700 Mn684 2.297 . S
O700 C687 1.236 . S
N701 Mn685 2.282 . S
N701 C702 1.328 . S
N701 C706 1.318 . S
C702 N701 1.328 . S
C702 C703 1.457 . S
C702 H707 0.929 . S
C703 C702 1.457 . S
C703 C704 1.291 . S
C703 H716 0.931 . S
C704 C703 1.291 . S
C704 C705 1.373 . S
C704 H717 0.929 . S
C705 C704 1.373 . S
C705 C706 1.396 . S
C705 C712 1.403 . S
C706 C696 1.476 . S
C706 N701 1.318 . S
C706 C705 1.396 . S
H707 C702 0.929 . S
O708 Mn684 2.385 . S
O708 C686 1.234 . S
O709 Mn684 2.209 . S
O709 Mn685 2.215 . S
O709 C686 1.283 . S
O710 Mn684 2.094 . S
O710 C688 1.240 . S
O711 Mn685 2.117 . S
O711 C688 1.264 . S
C712 C705 1.403 . S
C712 C713 1.399 . S
C712 H718 0.929 . S
C713 C693 1.449 . S
C713 C712 1.399 . S
C713 H719 0.930 . S
H714 C694 0.931 . S
H715 C695 0.930 . S
H716 C703 0.931 . S
H717 C704 0.929 . S
H718 C712 0.929 . S
H719 C713 0.930 . S
Mn720 O725 2.095 . S
Mn720 O735 2.162 . S
Mn720 O736 2.297 . S
Mn720 O744 2.385 . S
Mn720 O745 2.209 . S
Mn720 O746 2.094 . S
Mn721 O726 2.121 . S
Mn721 N728 2.257 . S
Mn721 N737 2.282 . S
Mn721 O745 2.215 . S
Mn721 O747 2.117 . S
C722 O744 1.234 . S
C722 O745 1.283 . S
C723 O735 1.281 . S
C723 O736 1.236 . S
C724 O746 1.240 . S
C724 O747 1.264 . S
O725 Mn720 2.095 . S
O725 C734 1.250 . S
O726 Mn721 2.121 . S
O726 C734 1.258 . S
C727 N728 1.326 . S
C727 C731 1.460 . S
C727 H733 0.929 . S
N728 Mn721 2.257 . S
N728 C727 1.326 . S
N728 C732 1.362 . S
C729 C730 1.258 . S
C729 C732 1.431 . S
C729 C749 1.449 . S
C730 C729 1.258 . S
C730 C731 1.477 . S
C730 H750 0.931 . S
C731 C727 1.460 . S
C731 C730 1.477 . S
C731 H751 0.930 . S
C732 N728 1.362 . S
C732 C729 1.431 . S
C732 C742 1.476 . S
H733 C727 0.929 . S
C734 O725 1.250 . S
C734 O726 1.258 . S
O735 Mn720 2.162 . S
O735 C723 1.281 . S
O736 Mn720 2.297 . S
O736 C723 1.236 . S
N737 Mn721 2.282 . S
N737 C738 1.328 . S
N737 C742 1.318 . S
C738 N737 1.328 . S
C738 C739 1.457 . S
C738 H743 0.929 . S
C739 C738 1.457 . S
C739 C740 1.291 . S
C739 H752 0.931 . S
C740 C739 1.291 . S
C740 C741 1.373 . S
C740 H753 0.929 . S
C741 C740 1.373 . S
C741 C742 1.396 . S
C741 C748 1.403 . S
C742 C732 1.476 . S
C742 N737 1.318 . S
C742 C741 1.396 . S
H743 C738 0.929 . S
O744 Mn720 2.385 . S
O744 C722 1.234 . S
O745 Mn720 2.209 . S
O745 Mn721 2.215 . S
O745 C722 1.283 . S
O746 Mn720 2.094 . S
O746 C724 1.240 . S
O747 Mn721 2.117 . S
O747 C724 1.264 . S
C748 C741 1.403 . S
C748 C749 1.399 . S
C748 H754 0.929 . S
C749 C729 1.449 . S
C749 C748 1.399 . S
C749 H755 0.930 . S
H750 C730 0.931 . S
H751 C731 0.930 . S
H752 C739 0.931 . S
H753 C740 0.929 . S
H754 C748 0.929 . S
H755 C749 0.930 . S
Mn756 O761 2.095 . S
Mn756 O771 2.162 . S
Mn756 O772 2.297 . S
Mn756 O780 2.385 . S
Mn756 O781 2.209 . S
Mn756 O782 2.094 . S
Mn757 O762 2.121 . S
Mn757 N764 2.257 . S
Mn757 N773 2.282 . S
Mn757 O781 2.215 . S
Mn757 O783 2.117 . S
C758 O780 1.234 . S
C758 O781 1.283 . S
C759 O771 1.281 . S
C759 O772 1.236 . S
C760 O782 1.240 . S
C760 O783 1.264 . S
O761 Mn756 2.095 . S
O761 C770 1.250 . S
O762 Mn757 2.121 . S
O762 C770 1.258 . S
C763 N764 1.326 . S
C763 C767 1.460 . S
C763 H769 0.929 . S
N764 Mn757 2.257 . S
N764 C763 1.326 . S
N764 C768 1.362 . S
C765 C766 1.258 . S
C765 C768 1.431 . S
C765 C785 1.449 . S
C766 C765 1.258 . S
C766 C767 1.477 . S
C766 H786 0.931 . S
C767 C763 1.460 . S
C767 C766 1.477 . S
C767 H787 0.930 . S
C768 N764 1.362 . S
C768 C765 1.431 . S
C768 C778 1.476 . S
H769 C763 0.929 . S
C770 O761 1.250 . S
C770 O762 1.258 . S
O771 Mn756 2.162 . S
O771 C759 1.281 . S
O772 Mn756 2.297 . S
O772 C759 1.236 . S
N773 Mn757 2.282 . S
N773 C774 1.328 . S
N773 C778 1.318 . S
C774 N773 1.328 . S
C774 C775 1.457 1_556 S
C774 H779 0.929 . S
C775 C774 1.457 1_554 S
C775 C776 1.291 . S
C775 H788 0.931 . S
C776 C775 1.291 . S
C776 C777 1.373 1_554 S
C776 H789 0.929 . S
C777 C776 1.373 1_556 S
C777 C778 1.396 . S
C777 C784 1.403 1_556 S
C778 C768 1.476 . S
C778 N773 1.318 . S
C778 C777 1.396 . S
H779 C774 0.929 . S
O780 Mn756 2.385 . S
O780 C758 1.234 . S
O781 Mn756 2.209 . S
O781 Mn757 2.215 . S
O781 C758 1.283 . S
O782 Mn756 2.094 . S
O782 C760 1.240 . S
O783 Mn757 2.117 . S
O783 C760 1.264 . S
C784 C777 1.403 1_554 S
C784 C785 1.399 1_554 S
C784 H790 0.929 . S
C785 C765 1.449 . S
C785 C784 1.399 1_556 S
C785 H791 0.930 . S
H786 C766 0.931 . S
H787 C767 0.930 . S
H788 C775 0.931 . S
H789 C776 0.929 . S
H790 C784 0.929 . S
H791 C785 0.930 . S
Mn792 O797 2.095 . S
Mn792 O807 2.162 . S
Mn792 O808 2.297 . S
Mn792 O816 2.385 . S
Mn792 O817 2.209 . S
Mn792 O818 2.094 . S
Mn793 O798 2.121 . S
Mn793 N800 2.257 . S
Mn793 N809 2.282 . S
Mn793 O817 2.215 . S
Mn793 O819 2.117 . S
C794 O816 1.234 . S
C794 O817 1.283 . S
C795 O807 1.281 . S
C795 O808 1.236 . S
C796 O818 1.240 . S
C796 O819 1.264 . S
O797 Mn792 2.095 . S
O797 C806 1.250 . S
O798 Mn793 2.121 . S
O798 C806 1.258 . S
C799 N800 1.326 . S
C799 C803 1.460 . S
C799 H805 0.929 . S
N800 Mn793 2.257 . S
N800 C799 1.326 . S
N800 C804 1.362 . S
C801 C802 1.258 . S
C801 C804 1.431 . S
C801 C821 1.449 . S
C802 C801 1.258 . S
C802 C803 1.477 . S
C802 H822 0.931 . S
C803 C799 1.460 . S
C803 C802 1.477 . S
C803 H823 0.930 . S
C804 N800 1.362 . S
C804 C801 1.431 . S
C804 C814 1.476 . S
H805 C799 0.929 . S
C806 O797 1.250 . S
C806 O798 1.258 . S
O807 Mn792 2.162 . S
O807 C795 1.281 . S
O808 Mn792 2.297 . S
O808 C795 1.236 . S
N809 Mn793 2.282 . S
N809 C810 1.328 . S
N809 C814 1.318 . S
C810 N809 1.328 . S
C810 C811 1.457 . S
C810 H815 0.929 . S
C811 C810 1.457 . S
C811 C812 1.291 . S
C811 H824 0.931 . S
C812 C811 1.291 . S
C812 C813 1.373 . S
C812 H825 0.929 . S
C813 C812 1.373 . S
C813 C814 1.396 . S
C813 C820 1.403 . S
C814 C804 1.476 . S
C814 N809 1.318 . S
C814 C813 1.396 . S
H815 C810 0.929 . S
O816 Mn792 2.385 . S
O816 C794 1.234 . S
O817 Mn792 2.209 . S
O817 Mn793 2.215 . S
O817 C794 1.283 . S
O818 Mn792 2.094 . S
O818 C796 1.240 . S
O819 Mn793 2.117 . S
O819 C796 1.264 . S
C820 C813 1.403 . S
C820 C821 1.399 . S
C820 H826 0.929 . S
C821 C801 1.449 . S
C821 C820 1.399 . S
C821 H827 0.930 . S
H822 C802 0.931 . S
H823 C803 0.930 . S
H824 C811 0.931 . S
H825 C812 0.929 . S
H826 C820 0.929 . S
H827 C821 0.930 . S
Mn828 O833 2.095 . S
Mn828 O843 2.162 . S
Mn828 O844 2.297 . S
Mn828 O852 2.385 . S
Mn828 O853 2.209 . S
Mn828 O854 2.094 . S
Mn829 O834 2.121 . S
Mn829 N836 2.257 . S
Mn829 N845 2.282 . S
Mn829 O853 2.215 . S
Mn829 O855 2.117 . S
C830 O852 1.234 . S
C830 O853 1.283 . S
C831 O843 1.281 . S
C831 O844 1.236 . S
C832 O854 1.240 . S
C832 O855 1.264 . S
O833 Mn828 2.095 . S
O833 C842 1.250 . S
O834 Mn829 2.121 . S
O834 C842 1.258 . S
C835 N836 1.326 . S
C835 C839 1.460 . S
C835 H841 0.929 . S
N836 Mn829 2.257 . S
N836 C835 1.326 . S
N836 C840 1.362 . S
C837 C838 1.258 . S
C837 C840 1.431 . S
C837 C857 1.449 . S
C838 C837 1.258 . S
C838 C839 1.477 . S
C838 H858 0.931 . S
C839 C835 1.460 . S
C839 C838 1.477 . S
C839 H859 0.930 . S
C840 N836 1.362 . S
C840 C837 1.431 . S
C840 C850 1.476 . S
H841 C835 0.929 . S
C842 O833 1.250 . S
C842 O834 1.258 . S
O843 Mn828 2.162 . S
O843 C831 1.281 . S
O844 Mn828 2.297 . S
O844 C831 1.236 . S
N845 Mn829 2.282 . S
N845 C846 1.328 . S
N845 C850 1.318 . S
C846 N845 1.328 . S
C846 C847 1.457 . S
C846 H851 0.929 . S
C847 C846 1.457 . S
C847 C848 1.291 . S
C847 H860 0.931 . S
C848 C847 1.291 . S
C848 C849 1.373 . S
C848 H861 0.929 . S
C849 C848 1.373 . S
C849 C850 1.396 . S
C849 C856 1.403 . S
C850 C840 1.476 . S
C850 N845 1.318 . S
C850 C849 1.396 . S
H851 C846 0.929 . S
O852 Mn828 2.385 . S
O852 C830 1.234 . S
O853 Mn828 2.209 . S
O853 Mn829 2.215 . S
O853 C830 1.283 . S
O854 Mn828 2.094 . S
O854 C832 1.240 . S
O855 Mn829 2.117 . S
O855 C832 1.264 . S
C856 C849 1.403 . S
C856 C857 1.399 . S
C856 H862 0.929 . S
C857 C837 1.449 . S
C857 C856 1.399 . S
C857 H863 0.930 . S
H858 C838 0.931 . S
H859 C839 0.930 . S
H860 C847 0.931 . S
H861 C848 0.929 . S
H862 C856 0.929 . S
H863 C857 0.930 . S
Mn864 O869 2.095 . S
Mn864 O879 2.162 . S
Mn864 O880 2.297 . S
Mn864 O888 2.385 . S
Mn864 O889 2.209 . S
Mn864 O890 2.094 . S
Mn865 O870 2.121 . S
Mn865 N872 2.257 . S
Mn865 N881 2.282 . S
Mn865 O889 2.215 . S
Mn865 O891 2.117 . S
C866 O888 1.234 . S
C866 O889 1.283 . S
C867 O879 1.281 . S
C867 O880 1.236 . S
C868 O890 1.240 . S
C868 O891 1.264 . S
O869 Mn864 2.095 . S
O869 C878 1.250 . S
O870 Mn865 2.121 . S
O870 C878 1.258 . S
C871 N872 1.326 . S
C871 C875 1.460 . S
C871 H877 0.929 . S
N872 Mn865 2.257 . S
N872 C871 1.326 . S
N872 C876 1.362 . S
C873 C874 1.258 . S
C873 C876 1.431 . S
C873 C893 1.449 . S
C874 C873 1.258 . S
C874 C875 1.477 . S
C874 H894 0.931 . S
C875 C871 1.460 . S
C875 C874 1.477 . S
C875 H895 0.930 . S
C876 N872 1.362 . S
C876 C873 1.431 . S
C876 C886 1.476 . S
H877 C871 0.929 . S
C878 O869 1.250 . S
C878 O870 1.258 . S
O879 Mn864 2.162 . S
O879 C867 1.281 . S
O880 Mn864 2.297 . S
O880 C867 1.236 . S
N881 Mn865 2.282 . S
N881 C882 1.328 . S
N881 C886 1.318 . S
C882 N881 1.328 . S
C882 C883 1.457 . S
C882 H887 0.929 . S
C883 C882 1.457 . S
C883 C884 1.291 . S
C883 H896 0.931 . S
C884 C883 1.291 . S
C884 C885 1.373 . S
C884 H897 0.929 . S
C885 C884 1.373 . S
C885 C886 1.396 . S
C885 C892 1.403 . S
C886 C876 1.476 . S
C886 N881 1.318 . S
C886 C885 1.396 . S
H887 C882 0.929 . S
O888 Mn864 2.385 . S
O888 C866 1.234 . S
O889 Mn864 2.209 . S
O889 Mn865 2.215 . S
O889 C866 1.283 . S
O890 Mn864 2.094 . S
O890 C868 1.240 . S
O891 Mn865 2.117 . S
O891 C868 1.264 . S
C892 C885 1.403 . S
C892 C893 1.399 . S
C892 H898 0.929 . S
C893 C873 1.449 . S
C893 C892 1.399 . S
C893 H899 0.930 . S
H894 C874 0.931 . S
H895 C875 0.930 . S
H896 C883 0.931 . S
H897 C884 0.929 . S
H898 C892 0.929 . S
H899 C893 0.930 . S
Mn900 O905 2.095 . S
Mn900 O915 2.162 . S
Mn900 O916 2.297 . S
Mn900 O924 2.385 . S
Mn900 O925 2.209 . S
Mn900 O926 2.094 . S
Mn901 O906 2.121 . S
Mn901 N908 2.257 . S
Mn901 N917 2.282 . S
Mn901 O925 2.215 . S
Mn901 O927 2.117 . S
C902 O924 1.234 . S
C902 O925 1.283 . S
C903 O915 1.281 . S
C903 O916 1.236 . S
C904 O926 1.240 . S
C904 O927 1.264 . S
O905 Mn900 2.095 . S
O905 C914 1.250 . S
O906 Mn901 2.121 . S
O906 C914 1.258 . S
C907 N908 1.326 . S
C907 C911 1.460 . S
C907 H913 0.929 . S
N908 Mn901 2.257 . S
N908 C907 1.326 . S
N908 C912 1.362 . S
C909 C910 1.258 . S
C909 C912 1.431 . S
C909 C929 1.449 . S
C910 C909 1.258 . S
C910 C911 1.477 . S
C910 H930 0.931 . S
C911 C907 1.460 . S
C911 C910 1.477 . S
C911 H931 0.930 . S
C912 N908 1.362 . S
C912 C909 1.431 . S
C912 C922 1.476 . S
H913 C907 0.929 . S
C914 O905 1.250 . S
C914 O906 1.258 . S
O915 Mn900 2.162 . S
O915 C903 1.281 . S
O916 Mn900 2.297 . S
O916 C903 1.236 . S
N917 Mn901 2.282 . S
N917 C918 1.328 . S
N917 C922 1.318 . S
C918 N917 1.328 . S
C918 C919 1.457 . S
C918 H923 0.929 . S
C919 C918 1.457 . S
C919 C920 1.291 . S
C919 H932 0.931 . S
C920 C919 1.291 . S
C920 C921 1.373 . S
C920 H933 0.929 . S
C921 C920 1.373 . S
C921 C922 1.396 . S
C921 C928 1.403 . S
C922 C912 1.476 . S
C922 N917 1.318 . S
C922 C921 1.396 . S
H923 C918 0.929 . S
O924 Mn900 2.385 . S
O924 C902 1.234 . S
O925 Mn900 2.209 . S
O925 Mn901 2.215 . S
O925 C902 1.283 . S
O926 Mn900 2.094 . S
O926 C904 1.240 . S
O927 Mn901 2.117 . S
O927 C904 1.264 . S
C928 C921 1.403 . S
C928 C929 1.399 . S
C928 H934 0.929 . S
C929 C909 1.449 . S
C929 C928 1.399 . S
C929 H935 0.930 . S
H930 C910 0.931 . S
H931 C911 0.930 . S
H932 C919 0.931 . S
H933 C920 0.929 . S
H934 C928 0.929 . S
H935 C929 0.930 . S
Mn936 O941 2.095 . S
Mn936 O951 2.162 . S
Mn936 O952 2.297 . S
Mn936 O960 2.385 . S
Mn936 O961 2.209 . S
Mn936 O962 2.094 . S
Mn937 O942 2.121 . S
Mn937 N944 2.257 . S
Mn937 N953 2.282 . S
Mn937 O961 2.215 . S
Mn937 O963 2.117 . S
C938 O960 1.234 . S
C938 O961 1.283 . S
C939 O951 1.281 . S
C939 O952 1.236 . S
C940 O962 1.240 . S
C940 O963 1.264 . S
O941 Mn936 2.095 . S
O941 C950 1.250 . S
O942 Mn937 2.121 . S
O942 C950 1.258 . S
C943 N944 1.326 . S
C943 C947 1.460 . S
C943 H949 0.929 . S
N944 Mn937 2.257 . S
N944 C943 1.326 . S
N944 C948 1.362 . S
C945 C946 1.258 . S
C945 C948 1.431 . S
C945 C965 1.449 . S
C946 C945 1.258 . S
C946 C947 1.477 . S
C946 H966 0.931 . S
C947 C943 1.460 . S
C947 C946 1.477 . S
C947 H967 0.930 . S
C948 N944 1.362 . S
C948 C945 1.431 . S
C948 C958 1.476 . S
H949 C943 0.929 . S
C950 O941 1.250 . S
C950 O942 1.258 . S
O951 Mn936 2.162 . S
O951 C939 1.281 . S
O952 Mn936 2.297 . S
O952 C939 1.236 . S
N953 Mn937 2.282 . S
N953 C954 1.328 . S
N953 C958 1.318 . S
C954 N953 1.328 . S
C954 C955 1.457 . S
C954 H959 0.929 . S
C955 C954 1.457 . S
C955 C956 1.291 . S
C955 H968 0.931 . S
C956 C955 1.291 . S
C956 C957 1.373 . S
C956 H969 0.929 . S
C957 C956 1.373 . S
C957 C958 1.396 . S
C957 C964 1.403 . S
C958 C948 1.476 . S
C958 N953 1.318 . S
C958 C957 1.396 . S
H959 C954 0.929 . S
O960 Mn936 2.385 . S
O960 C938 1.234 . S
O961 Mn936 2.209 . S
O961 Mn937 2.215 . S
O961 C938 1.283 . S
O962 Mn936 2.094 . S
O962 C940 1.240 . S
O963 Mn937 2.117 . S
O963 C940 1.264 . S
C964 C957 1.403 . S
C964 C965 1.399 . S
C964 H970 0.929 . S
C965 C945 1.449 . S
C965 C964 1.399 . S
C965 H971 0.930 . S
H966 C946 0.931 . S
H967 C947 0.930 . S
H968 C955 0.931 . S
H969 C956 0.929 . S
H970 C964 0.929 . S
H971 C965 0.930 . S
Mn972 O977 2.095 . S
Mn972 O987 2.162 . S
Mn972 O988 2.297 . S
Mn972 O996 2.385 . S
Mn972 O997 2.209 . S
Mn972 O998 2.094 . S
Mn973 O978 2.121 . S
Mn973 N980 2.257 . S
Mn973 N989 2.282 . S
Mn973 O997 2.215 . S
Mn973 O999 2.117 . S
C974 O996 1.234 . S
C974 O997 1.283 . S
C975 O987 1.281 . S
C975 O988 1.236 . S
C976 O998 1.240 . S
C976 O999 1.264 . S
O977 Mn972 2.095 . S
O977 C986 1.250 . S
O978 Mn973 2.121 . S
O978 C986 1.258 . S
C979 N980 1.326 . S
C979 C983 1.460 . S
C979 H985 0.929 . S
N980 Mn973 2.257 . S
N980 C979 1.326 . S
N980 C984 1.362 . S
C981 C982 1.258 . S
C981 C984 1.431 . S
C981 C1001 1.449 . S
C982 C981 1.258 . S
C982 C983 1.477 . S
C982 H1002 0.931 . S
C983 C979 1.460 . S
C983 C982 1.477 . S
C983 H1003 0.930 . S
C984 N980 1.362 . S
C984 C981 1.431 . S
C984 C994 1.476 . S
H985 C979 0.929 . S
C986 O977 1.250 . S
C986 O978 1.258 . S
O987 Mn972 2.162 . S
O987 C975 1.281 . S
O988 Mn972 2.297 . S
O988 C975 1.236 . S
N989 Mn973 2.282 . S
N989 C990 1.328 . S
N989 C994 1.318 . S
C990 N989 1.328 . S
C990 C991 1.457 1_556 S
C990 H995 0.929 . S
C991 C990 1.457 1_554 S
C991 C992 1.291 . S
C991 H1004 0.931 . S
C992 C991 1.291 . S
C992 C993 1.373 1_554 S
C992 H1005 0.929 . S
C993 C992 1.373 1_556 S
C993 C994 1.396 . S
C993 C1000 1.403 1_556 S
C994 C984 1.476 . S
C994 N989 1.318 . S
C994 C993 1.396 . S
H995 C990 0.929 . S
O996 Mn972 2.385 . S
O996 C974 1.234 . S
O997 Mn972 2.209 . S
O997 Mn973 2.215 . S
O997 C974 1.283 . S
O998 Mn972 2.094 . S
O998 C976 1.240 . S
O999 Mn973 2.117 . S
O999 C976 1.264 . S
C1000 C993 1.403 1_554 S
C1000 C1001 1.399 1_554 S
C1000 H1006 0.929 . S
C1001 C981 1.449 . S
C1001 C1000 1.399 1_556 S
C1001 H1007 0.930 . S
H1002 C982 0.931 . S
H1003 C983 0.930 . S
H1004 C991 0.931 . S
H1005 C992 0.929 . S
H1006 C1000 0.929 . S
H1007 C1001 0.930 . S
Mn1008 O1013 2.095 . S
Mn1008 O1023 2.162 . S
Mn1008 O1024 2.297 . S
Mn1008 O1032 2.385 . S
Mn1008 O1033 2.209 . S
Mn1008 O1034 2.094 . S
Mn1009 O1014 2.121 . S
Mn1009 N1016 2.257 . S
Mn1009 N1025 2.282 . S
Mn1009 O1033 2.215 . S
Mn1009 O1035 2.117 . S
C1010 O1032 1.234 . S
C1010 O1033 1.283 . S
C1011 O1023 1.281 . S
C1011 O1024 1.236 . S
C1012 O1034 1.240 . S
C1012 O1035 1.264 . S
O1013 Mn1008 2.095 . S
O1013 C1022 1.250 . S
O1014 Mn1009 2.121 . S
O1014 C1022 1.258 . S
C1015 N1016 1.326 . S
C1015 C1019 1.460 . S
C1015 H1021 0.929 . S
N1016 Mn1009 2.257 . S
N1016 C1015 1.326 . S
N1016 C1020 1.362 . S
C1017 C1018 1.258 . S
C1017 C1020 1.431 . S
C1017 C1037 1.449 . S
C1018 C1017 1.258 . S
C1018 C1019 1.477 . S
C1018 H1038 0.931 . S
C1019 C1015 1.460 . S
C1019 C1018 1.477 . S
C1019 H1039 0.930 . S
C1020 N1016 1.362 . S
C1020 C1017 1.431 . S
C1020 C1030 1.476 . S
H1021 C1015 0.929 . S
C1022 O1013 1.250 . S
C1022 O1014 1.258 . S
O1023 Mn1008 2.162 . S
O1023 C1011 1.281 . S
O1024 Mn1008 2.297 . S
O1024 C1011 1.236 . S
N1025 Mn1009 2.282 . S
N1025 C1026 1.328 . S
N1025 C1030 1.318 . S
C1026 N1025 1.328 . S
C1026 C1027 1.457 . S
C1026 H1031 0.929 . S
C1027 C1026 1.457 . S
C1027 C1028 1.291 . S
C1027 H1040 0.931 . S
C1028 C1027 1.291 . S
C1028 C1029 1.373 . S
C1028 H1041 0.929 . S
C1029 C1028 1.373 . S
C1029 C1030 1.396 . S
C1029 C1036 1.403 . S
C1030 C1020 1.476 . S
C1030 N1025 1.318 . S
C1030 C1029 1.396 . S
H1031 C1026 0.929 . S
O1032 Mn1008 2.385 . S
O1032 C1010 1.234 . S
O1033 Mn1008 2.209 . S
O1033 Mn1009 2.215 . S
O1033 C1010 1.283 . S
O1034 Mn1008 2.094 . S
O1034 C1012 1.240 . S
O1035 Mn1009 2.117 . S
O1035 C1012 1.264 . S
C1036 C1029 1.403 . S
C1036 C1037 1.399 . S
C1036 H1042 0.929 . S
C1037 C1017 1.449 . S
C1037 C1036 1.399 . S
C1037 H1043 0.930 . S
H1038 C1018 0.931 . S
H1039 C1019 0.930 . S
H1040 C1027 0.931 . S
H1041 C1028 0.929 . S
H1042 C1036 0.929 . S
H1043 C1037 0.930 . S
Mn1044 O1049 2.095 . S
Mn1044 O1059 2.162 . S
Mn1044 O1060 2.297 . S
Mn1044 O1068 2.385 . S
Mn1044 O1069 2.209 . S
Mn1044 O1070 2.094 . S
Mn1045 O1050 2.121 . S
Mn1045 N1052 2.257 . S
Mn1045 N1061 2.282 . S
Mn1045 O1069 2.215 . S
Mn1045 O1071 2.117 . S
C1046 O1068 1.234 . S
C1046 O1069 1.283 . S
C1047 O1059 1.281 . S
C1047 O1060 1.236 . S
C1048 O1070 1.240 . S
C1048 O1071 1.264 . S
O1049 Mn1044 2.095 . S
O1049 C1058 1.250 . S
O1050 Mn1045 2.121 . S
O1050 C1058 1.258 . S
C1051 N1052 1.326 . S
C1051 C1055 1.460 . S
C1051 H1057 0.929 . S
N1052 Mn1045 2.257 . S
N1052 C1051 1.326 . S
N1052 C1056 1.362 . S
C1053 C1054 1.258 . S
C1053 C1056 1.431 . S
C1053 C1073 1.449 . S
C1054 C1053 1.258 . S
C1054 C1055 1.477 . S
C1054 H1074 0.931 . S
C1055 C1051 1.460 . S
C1055 C1054 1.477 . S
C1055 H1075 0.930 . S
C1056 N1052 1.362 . S
C1056 C1053 1.431 . S
C1056 C1066 1.476 . S
H1057 C1051 0.929 . S
C1058 O1049 1.250 . S
C1058 O1050 1.258 . S
O1059 Mn1044 2.162 . S
O1059 C1047 1.281 . S
O1060 Mn1044 2.297 . S
O1060 C1047 1.236 . S
N1061 Mn1045 2.282 . S
N1061 C1062 1.328 . S
N1061 C1066 1.318 . S
C1062 N1061 1.328 . S
C1062 C1063 1.457 . S
C1062 H1067 0.929 . S
C1063 C1062 1.457 . S
C1063 C1064 1.291 . S
C1063 H1076 0.931 . S
C1064 C1063 1.291 . S
C1064 C1065 1.373 . S
C1064 H1077 0.929 . S
C1065 C1064 1.373 . S
C1065 C1066 1.396 . S
C1065 C1072 1.403 . S
C1066 C1056 1.476 . S
C1066 N1061 1.318 . S
C1066 C1065 1.396 . S
H1067 C1062 0.929 . S
O1068 Mn1044 2.385 . S
O1068 C1046 1.234 . S
O1069 Mn1044 2.209 . S
O1069 Mn1045 2.215 . S
O1069 C1046 1.283 . S
O1070 Mn1044 2.094 . S
O1070 C1048 1.240 . S
O1071 Mn1045 2.117 . S
O1071 C1048 1.264 . S
C1072 C1065 1.403 . S
C1072 C1073 1.399 . S
C1072 H1078 0.929 . S
C1073 C1053 1.449 . S
C1073 C1072 1.399 . S
C1073 H1079 0.930 . S
H1074 C1054 0.931 . S
H1075 C1055 0.930 . S
H1076 C1063 0.931 . S
H1077 C1064 0.929 . S
H1078 C1072 0.929 . S
H1079 C1073 0.930 . S
Mn1080 O1085 2.095 . S
Mn1080 O1095 2.162 . S
Mn1080 O1096 2.297 . S
Mn1080 O1104 2.385 1_554 S
Mn1080 O1105 2.209 . S
Mn1080 O1106 2.094 . S
Mn1081 O1086 2.121 . S
Mn1081 N1088 2.257 . S
Mn1081 N1097 2.282 1_554 S
Mn1081 O1105 2.215 . S
Mn1081 O1107 2.117 . S
C1082 O1104 1.234 . S
C1082 O1105 1.283 1_556 S
C1083 O1095 1.281 . S
C1083 O1096 1.236 . S
C1084 O1106 1.240 . S
C1084 O1107 1.264 . S
O1085 Mn1080 2.095 . S
O1085 C1094 1.250 . S
O1086 Mn1081 2.121 . S
O1086 C1094 1.258 . S
C1087 N1088 1.326 . S
C1087 C1091 1.460 . S
C1087 H1093 0.929 . S
N1088 Mn1081 2.257 . S
N1088 C1087 1.326 . S
N1088 C1092 1.362 . S
C1089 C1090 1.258 . S
C1089 C1092 1.431 . S
C1089 C1109 1.449 1_554 S
C1090 C1089 1.258 . S
C1090 C1091 1.477 . S
C1090 H1110 0.931 . S
C1091 C1087 1.460 . S
C1091 C1090 1.477 . S
C1091 H1111 0.930 . S
C1092 N1088 1.362 . S
C1092 C1089 1.431 . S
C1092 C1102 1.476 1_554 S
H1093 C1087 0.929 . S
C1094 O1085 1.250 . S
C1094 O1086 1.258 . S
O1095 Mn1080 2.162 . S
O1095 C1083 1.281 . S
O1096 Mn1080 2.297 . S
O1096 C1083 1.236 . S
N1097 Mn1081 2.282 1_556 S
N1097 C1098 1.328 . S
N1097 C1102 1.318 . S
C1098 N1097 1.328 . S
C1098 C1099 1.457 . S
C1098 H1103 0.929 . S
C1099 C1098 1.457 . S
C1099 C1100 1.291 . S
C1099 H1112 0.931 . S
C1100 C1099 1.291 . S
C1100 C1101 1.373 . S
C1100 H1113 0.929 . S
C1101 C1100 1.373 . S
C1101 C1102 1.396 . S
C1101 C1108 1.403 . S
C1102 C1092 1.476 1_556 S
C1102 N1097 1.318 . S
C1102 C1101 1.396 . S
H1103 C1098 0.929 . S
O1104 Mn1080 2.385 1_556 S
O1104 C1082 1.234 . S
O1105 Mn1080 2.209 . S
O1105 Mn1081 2.215 . S
O1105 C1082 1.283 1_554 S
O1106 Mn1080 2.094 . S
O1106 C1084 1.240 . S
O1107 Mn1081 2.117 . S
O1107 C1084 1.264 . S
C1108 C1101 1.403 . S
C1108 C1109 1.399 . S
C1108 H1114 0.929 . S
C1109 C1089 1.449 1_556 S
C1109 C1108 1.399 . S
C1109 H1115 0.930 . S
H1110 C1090 0.931 . S
H1111 C1091 0.930 . S
H1112 C1099 0.931 . S
H1113 C1100 0.929 . S
H1114 C1108 0.929 . S
H1115 C1109 0.930 . S
Mn1116 O1121 2.095 . S
Mn1116 O1131 2.162 . S
Mn1116 O1132 2.297 . S
Mn1116 O1140 2.385 . S
Mn1116 O1141 2.209 . S
Mn1116 O1142 2.094 . S
Mn1117 O1122 2.121 . S
Mn1117 N1124 2.257 . S
Mn1117 N1133 2.282 . S
Mn1117 O1141 2.215 . S
Mn1117 O1143 2.117 . S
C1118 O1140 1.234 . S
C1118 O1141 1.283 . S
C1119 O1131 1.281 . S
C1119 O1132 1.236 . S
C1120 O1142 1.240 . S
C1120 O1143 1.264 . S
O1121 Mn1116 2.095 . S
O1121 C1130 1.250 . S
O1122 Mn1117 2.121 . S
O1122 C1130 1.258 . S
C1123 N1124 1.326 . S
C1123 C1127 1.460 . S
C1123 H1129 0.929 . S
N1124 Mn1117 2.257 . S
N1124 C1123 1.326 . S
N1124 C1128 1.362 . S
C1125 C1126 1.258 . S
C1125 C1128 1.431 . S
C1125 C1145 1.449 . S
C1126 C1125 1.258 . S
C1126 C1127 1.477 . S
C1126 H1146 0.931 . S
C1127 C1123 1.460 . S
C1127 C1126 1.477 . S
C1127 H1147 0.930 . S
C1128 N1124 1.362 . S
C1128 C1125 1.431 . S
C1128 C1138 1.476 . S
H1129 C1123 0.929 . S
C1130 O1121 1.250 . S
C1130 O1122 1.258 . S
O1131 Mn1116 2.162 . S
O1131 C1119 1.281 . S
O1132 Mn1116 2.297 . S
O1132 C1119 1.236 . S
N1133 Mn1117 2.282 . S
N1133 C1134 1.328 . S
N1133 C1138 1.318 . S
C1134 N1133 1.328 . S
C1134 C1135 1.457 . S
C1134 H1139 0.929 . S
C1135 C1134 1.457 . S
C1135 C1136 1.291 . S
C1135 H1148 0.931 . S
C1136 C1135 1.291 . S
C1136 C1137 1.373 . S
C1136 H1149 0.929 . S
C1137 C1136 1.373 . S
C1137 C1138 1.396 . S
C1137 C1144 1.403 . S
C1138 C1128 1.476 . S
C1138 N1133 1.318 . S
C1138 C1137 1.396 . S
H1139 C1134 0.929 . S
O1140 Mn1116 2.385 . S
O1140 C1118 1.234 . S
O1141 Mn1116 2.209 . S
O1141 Mn1117 2.215 . S
O1141 C1118 1.283 . S
O1142 Mn1116 2.094 . S
O1142 C1120 1.240 . S
O1143 Mn1117 2.117 . S
O1143 C1120 1.264 . S
C1144 C1137 1.403 . S
C1144 C1145 1.399 . S
C1144 H1150 0.929 . S
C1145 C1125 1.449 . S
C1145 C1144 1.399 . S
C1145 H1151 0.930 . S
H1146 C1126 0.931 . S
H1147 C1127 0.930 . S
H1148 C1135 0.931 . S
H1149 C1136 0.929 . S
H1150 C1144 0.929 . S
H1151 C1145 0.930 . S
H1152 C1158 0.930 . S
H1153 C1162 0.930 . S
H1154 C1167 0.929 . S
H1155 C1165 0.929 . S
H1156 C1160 0.929 . S
H1157 C1166 0.936 . S
C1158 H1152 0.930 . S
C1158 C1159 1.367 . S
C1158 C1166 1.378 . S
C1159 C1158 1.367 . S
C1159 C1167 1.433 . S
C1160 H1156 0.929 . S
C1160 C1162 1.378 . S
C1160 C1164 1.350 . S
C1161 C1164 1.463 . S
C1161 C1166 1.350 . S
C1161 N1169 1.427 . S
C1162 H1153 0.930 . S
C1162 C1160 1.378 . S
C1162 C1163 1.367 1_556 S
C1163 C1162 1.367 1_554 S
C1163 C1165 1.433 . S
C1164 C1160 1.350 . S
C1164 C1161 1.463 . S
C1164 N1168 1.427 1_556 S
C1165 H1155 0.929 . S
C1165 C1163 1.433 . S
C1165 N1168 1.384 . S
C1166 H1157 0.936 . S
C1166 C1158 1.378 . S
C1166 C1161 1.350 . S
C1167 H1154 0.929 . S
C1167 C1159 1.433 . S
C1167 N1169 1.384 . S
N1168 C1164 1.427 1_554 S
N1168 C1165 1.384 . S
N1169 C1161 1.427 . S
N1169 C1167 1.384 . S
H1170 C1176 0.930 . S
H1171 C1180 0.930 . S
H1172 C1185 0.929 . S
H1173 C1183 0.929 . S
H1174 C1178 0.929 . S
H1175 C1184 0.929 . S
C1176 H1170 0.930 . S
C1176 C1177 1.367 . S
C1176 C1184 1.378 . S
C1177 C1176 1.367 . S
C1177 C1185 1.433 . S
C1178 H1174 0.929 . S
C1178 C1180 1.378 . S
C1178 C1182 1.350 . S
C1179 C1182 1.463 . S
C1179 C1184 1.350 . S
C1179 N1187 1.427 . S
C1180 H1171 0.930 . S
C1180 C1178 1.378 . S
C1180 C1181 1.367 . S
C1181 C1180 1.367 . S
C1181 C1183 1.433 . S
C1182 C1178 1.350 . S
C1182 C1179 1.463 . S
C1182 N1186 1.427 . S
C1183 H1173 0.929 . S
C1183 C1181 1.433 . S
C1183 N1186 1.384 . S
C1184 H1175 0.929 . S
C1184 C1176 1.378 . S
C1184 C1179 1.350 . S
C1185 H1172 0.929 . S
C1185 C1177 1.433 . S
C1185 N1187 1.384 . S
N1186 C1182 1.427 . S
N1186 C1183 1.384 . S
N1187 C1179 1.427 . S
N1187 C1185 1.384 . S
H1188 C1194 0.930 . S
H1189 C1198 0.930 . S
H1190 C1203 0.929 . S
H1191 C1201 0.929 . S
H1192 C1196 0.929 . S
H1193 C1202 0.929 . S
C1194 H1188 0.930 . S
C1194 C1195 1.367 . S
C1194 C1202 1.378 . S
C1195 C1194 1.367 . S
C1195 C1203 1.433 . S
C1196 H1192 0.929 . S
C1196 C1198 1.378 . S
C1196 C1200 1.350 . S
C1197 C1200 1.463 . S
C1197 C1202 1.350 . S
C1197 N1205 1.427 . S
C1198 H1189 0.930 . S
C1198 C1196 1.378 . S
C1198 C1199 1.367 . S
C1199 C1198 1.367 . S
C1199 C1201 1.433 . S
C1200 C1196 1.350 . S
C1200 C1197 1.463 . S
C1200 N1204 1.427 . S
C1201 H1191 0.929 . S
C1201 C1199 1.433 . S
C1201 N1204 1.384 . S
C1202 H1193 0.929 . S
C1202 C1194 1.378 . S
C1202 C1197 1.350 . S
C1203 H1190 0.929 . S
C1203 C1195 1.433 . S
C1203 N1205 1.384 . S
N1204 C1200 1.427 . S
N1204 C1201 1.384 . S
N1205 C1197 1.427 . S
N1205 C1203 1.384 . S
H1206 C1212 0.930 . S
H1207 C1216 0.930 . S
H1208 C1221 0.929 . S
H1209 C1219 0.929 . S
H1210 C1214 0.929 . S
H1211 C1220 0.929 . S
C1212 H1206 0.930 . S
C1212 C1213 1.367 . S
C1212 C1220 1.378 . S
C1213 C1212 1.367 . S
C1213 C1221 1.433 . S
C1214 H1210 0.929 . S
C1214 C1216 1.378 . S
C1214 C1218 1.350 . S
C1215 C1218 1.463 . S
C1215 C1220 1.350 . S
C1215 N1223 1.427 . S
C1216 H1207 0.930 . S
C1216 C1214 1.378 . S
C1216 C1217 1.367 . S
C1217 C1216 1.367 . S
C1217 C1219 1.433 . S
C1218 C1214 1.350 . S
C1218 C1215 1.463 . S
C1218 N1222 1.427 . S
C1219 H1209 0.929 . S
C1219 C1217 1.433 . S
C1219 N1222 1.384 . S
C1220 H1211 0.929 . S
C1220 C1212 1.378 . S
C1220 C1215 1.350 . S
C1221 H1208 0.929 . S
C1221 C1213 1.433 . S
C1221 N1223 1.384 . S
N1222 C1218 1.427 . S
N1222 C1219 1.384 . S
N1223 C1215 1.427 . S
N1223 C1221 1.384 . S
H1224 C1230 0.930 . S
H1225 C1234 0.930 . S
H1226 C1239 0.929 . S
H1227 C1237 0.929 . S
H1228 C1232 0.929 . S
H1229 C1238 0.929 . S
C1230 H1224 0.930 . S
C1230 C1231 1.367 . S
C1230 C1238 1.378 . S
C1231 C1230 1.367 . S
C1231 C1239 1.433 . S
C1232 H1228 0.929 . S
C1232 C1234 1.378 . S
C1232 C1236 1.350 . S
C1233 C1236 1.463 . S
C1233 C1238 1.350 . S
C1233 N1241 1.427 . S
C1234 H1225 0.930 . S
C1234 C1232 1.378 . S
C1234 C1235 1.367 . S
C1235 C1234 1.367 . S
C1235 C1237 1.433 . S
C1236 C1232 1.350 . S
C1236 C1233 1.463 . S
C1236 N1240 1.427 . S
C1237 H1227 0.929 . S
C1237 C1235 1.433 . S
C1237 N1240 1.384 . S
C1238 H1229 0.929 . S
C1238 C1230 1.378 . S
C1238 C1233 1.350 . S
C1239 H1226 0.929 . S
C1239 C1231 1.433 . S
C1239 N1241 1.384 . S
N1240 C1236 1.427 . S
N1240 C1237 1.384 . S
N1241 C1233 1.427 . S
N1241 C1239 1.384 . S
H1242 C1248 0.930 . S
H1243 C1252 0.930 . S
H1244 C1257 0.929 . S
H1245 C1255 0.929 . S
H1246 C1250 0.929 . S
H1247 C1256 0.929 . S
C1248 H1242 0.930 . S
C1248 C1249 1.367 . S
C1248 C1256 1.378 . S
C1249 C1248 1.367 . S
C1249 C1257 1.433 . S
C1250 H1246 0.929 . S
C1250 C1252 1.378 . S
C1250 C1254 1.350 1_554 S
C1251 C1254 1.463 . S
C1251 C1256 1.350 . S
C1251 N1259 1.427 . S
C1252 H1243 0.930 . S
C1252 C1250 1.378 . S
C1252 C1253 1.367 . S
C1253 C1252 1.367 . S
C1253 C1255 1.433 1_554 S
C1254 C1250 1.350 1_556 S
C1254 C1251 1.463 . S
C1254 N1258 1.427 . S
C1255 H1245 0.929 . S
C1255 C1253 1.433 1_556 S
C1255 N1258 1.384 . S
C1256 H1247 0.929 . S
C1256 C1248 1.378 . S
C1256 C1251 1.350 . S
C1257 H1244 0.929 . S
C1257 C1249 1.433 . S
C1257 N1259 1.384 . S
N1258 C1254 1.427 . S
N1258 C1255 1.384 . S
N1259 C1251 1.427 . S
N1259 C1257 1.384 . S
H1260 C1266 0.930 . S
H1261 C1270 0.930 . S
H1262 C1275 0.929 . S
H1263 C1273 0.929 . S
H1264 C1268 0.929 . S
H1265 C1274 0.929 . S
C1266 H1260 0.930 . S
C1266 C1267 1.367 . S
C1266 C1274 1.378 . S
C1267 C1266 1.367 . S
C1267 C1275 1.433 . S
C1268 H1264 0.929 . S
C1268 C1270 1.378 . S
C1268 C1272 1.350 . S
C1269 C1272 1.463 . S
C1269 C1274 1.350 . S
C1269 N1277 1.427 . S
C1270 H1261 0.930 . S
C1270 C1268 1.378 . S
C1270 C1271 1.367 . S
C1271 C1270 1.367 . S
C1271 C1273 1.433 . S
C1272 C1268 1.350 . S
C1272 C1269 1.463 . S
C1272 N1276 1.427 . S
C1273 H1263 0.929 . S
C1273 C1271 1.433 . S
C1273 N1276 1.384 . S
C1274 H1265 0.929 . S
C1274 C1266 1.378 . S
C1274 C1269 1.350 . S
C1275 H1262 0.929 . S
C1275 C1267 1.433 . S
C1275 N1277 1.384 . S
N1276 C1272 1.427 . S
N1276 C1273 1.384 . S
N1277 C1269 1.427 . S
N1277 C1275 1.384 . S
H1278 C1284 0.930 . S
H1279 C1288 0.930 . S
H1280 C1293 0.929 . S
H1281 C1291 0.929 . S
H1282 C1286 0.929 . S
H1283 C1292 0.929 . S
C1284 H1278 0.930 . S
C1284 C1285 1.367 . S
C1284 C1292 1.378 . S
C1285 C1284 1.367 . S
C1285 C1293 1.433 . S
C1286 H1282 0.929 . S
C1286 C1288 1.378 . S
C1286 C1290 1.350 . S
C1287 C1290 1.463 . S
C1287 C1292 1.350 . S
C1287 N1295 1.427 . S
C1288 H1279 0.930 . S
C1288 C1286 1.378 . S
C1288 C1289 1.367 . S
C1289 C1288 1.367 . S
C1289 C1291 1.433 . S
C1290 C1286 1.350 . S
C1290 C1287 1.463 . S
C1290 N1294 1.427 . S
C1291 H1281 0.929 . S
C1291 C1289 1.433 . S
C1291 N1294 1.384 . S
C1292 H1283 0.929 . S
C1292 C1284 1.378 . S
C1292 C1287 1.350 . S
C1293 H1280 0.929 . S
C1293 C1285 1.433 . S
C1293 N1295 1.384 . S
N1294 C1290 1.427 . S
N1294 C1291 1.384 . S
N1295 C1287 1.427 . S
N1295 C1293 1.384 . S
H1296 C1302 0.930 . S
H1297 C1306 0.930 . S
H1298 C1311 0.929 . S
H1299 C1309 0.929 . S
H1300 C1304 0.929 . S
H1301 C1310 0.929 . S
C1302 H1296 0.930 . S
C1302 C1303 1.367 . S
C1302 C1310 1.378 . S
C1303 C1302 1.367 . S
C1303 C1311 1.433 . S
C1304 H1300 0.929 . S
C1304 C1306 1.378 . S
C1304 C1308 1.350 . S
C1305 C1308 1.463 . S
C1305 C1310 1.350 . S
C1305 N1313 1.427 . S
C1306 H1297 0.930 . S
C1306 C1304 1.378 . S
C1306 C1307 1.367 . S
C1307 C1306 1.367 . S
C1307 C1309 1.433 . S
C1308 C1304 1.350 . S
C1308 C1305 1.463 . S
C1308 N1312 1.427 . S
C1309 H1299 0.929 . S
C1309 C1307 1.433 . S
C1309 N1312 1.384 . S
C1310 H1301 0.929 . S
C1310 C1302 1.378 . S
C1310 C1305 1.350 . S
C1311 H1298 0.929 . S
C1311 C1303 1.433 . S
C1311 N1313 1.384 . S
N1312 C1308 1.427 . S
N1312 C1309 1.384 . S
N1313 C1305 1.427 . S
N1313 C1311 1.384 . S
H1314 C1320 0.930 . S
H1315 C1324 0.930 . S
H1316 C1329 0.929 . S
H1317 C1327 0.929 . S
H1318 C1322 0.929 . S
H1319 C1328 0.929 . S
C1320 H1314 0.930 . S
C1320 C1321 1.367 . S
C1320 C1328 1.378 . S
C1321 C1320 1.367 . S
C1321 C1329 1.433 . S
C1322 H1318 0.929 . S
C1322 C1324 1.378 . S
C1322 C1326 1.350 . S
C1323 C1326 1.463 . S
C1323 C1328 1.350 . S
C1323 N1331 1.427 . S
C1324 H1315 0.930 . S
C1324 C1322 1.378 . S
C1324 C1325 1.367 . S
C1325 C1324 1.367 . S
C1325 C1327 1.433 . S
C1326 C1322 1.350 . S
C1326 C1323 1.463 . S
C1326 N1330 1.427 . S
C1327 H1317 0.929 . S
C1327 C1325 1.433 . S
C1327 N1330 1.384 . S
C1328 H1319 0.929 . S
C1328 C1320 1.378 . S
C1328 C1323 1.350 . S
C1329 H1316 0.929 . S
C1329 C1321 1.433 . S
C1329 N1331 1.384 . S
N1330 C1326 1.427 . S
N1330 C1327 1.384 . S
N1331 C1323 1.427 . S
N1331 C1329 1.384 . S
H1332 C1338 0.930 . S
H1333 C1342 0.930 . S
H1334 C1347 0.929 . S
H1335 C1345 0.929 . S
H1336 C1340 0.929 . S
H1337 C1346 0.929 1_554 S
C1338 H1332 0.930 . S
C1338 C1339 1.367 . S
C1338 C1346 1.378 . S
C1339 C1338 1.367 . S
C1339 C1347 1.433 . S
C1340 H1336 0.929 . S
C1340 C1342 1.378 . S
C1340 C1344 1.350 . S
C1341 C1344 1.463 . S
C1341 C1346 1.350 . S
C1341 N1349 1.427 . S
C1342 H1333 0.930 . S
C1342 C1340 1.378 . S
C1342 C1343 1.367 1_556 S
C1343 C1342 1.367 1_554 S
C1343 C1345 1.433 . S
C1344 C1340 1.350 . S
C1344 C1341 1.463 . S
C1344 N1348 1.427 1_556 S
C1345 H1335 0.929 . S
C1345 C1343 1.433 . S
C1345 N1348 1.384 . S
C1346 H1337 0.929 1_556 S
C1346 C1338 1.378 . S
C1346 C1341 1.350 . S
C1347 H1334 0.929 . S
C1347 C1339 1.433 . S
C1347 N1349 1.384 . S
N1348 C1344 1.427 1_554 S
N1348 C1345 1.384 . S
N1349 C1341 1.427 . S
N1349 C1347 1.384 . S
H1350 C1356 0.930 . S
H1351 C1360 0.930 . S
H1352 C1365 0.929 . S
H1353 C1363 0.929 . S
H1354 C1358 0.929 . S
H1355 C1364 0.929 . S
C1356 H1350 0.930 . S
C1356 C1357 1.367 . S
C1356 C1364 1.378 . S
C1357 C1356 1.367 . S
C1357 C1365 1.433 . S
C1358 H1354 0.929 . S
C1358 C1360 1.378 . S
C1358 C1362 1.350 . S
C1359 C1362 1.463 . S
C1359 C1364 1.350 . S
C1359 N1367 1.427 . S
C1360 H1351 0.930 . S
C1360 C1358 1.378 . S
C1360 C1361 1.367 . S
C1361 C1360 1.367 . S
C1361 C1363 1.433 . S
C1362 C1358 1.350 . S
C1362 C1359 1.463 . S
C1362 N1366 1.427 . S
C1363 H1353 0.929 . S
C1363 C1361 1.433 . S
C1363 N1366 1.384 . S
C1364 H1355 0.929 . S
C1364 C1356 1.378 . S
C1364 C1359 1.350 . S
C1365 H1352 0.929 . S
C1365 C1357 1.433 . S
C1365 N1367 1.384 . S
N1366 C1362 1.427 . S
N1366 C1363 1.384 . S
N1367 C1359 1.427 . S
N1367 C1365 1.384 . S
H1368 C1374 0.930 . S
H1369 C1378 0.930 . S
H1370 C1383 0.929 . S
H1371 C1381 0.929 . S
H1372 C1376 0.929 . S
H1373 C1382 0.929 . S
C1374 H1368 0.930 . S
C1374 C1375 1.367 . S
C1374 C1382 1.378 . S
C1375 C1374 1.367 . S
C1375 C1383 1.433 . S
C1376 H1372 0.929 . S
C1376 C1378 1.378 . S
C1376 C1380 1.350 . S
C1377 C1380 1.463 . S
C1377 C1382 1.350 . S
C1377 N1385 1.427 . S
C1378 H1369 0.930 . S
C1378 C1376 1.378 . S
C1378 C1379 1.367 . S
C1379 C1378 1.367 . S
C1379 C1381 1.433 . S
C1380 C1376 1.350 . S
C1380 C1377 1.463 . S
C1380 N1384 1.427 . S
C1381 H1371 0.929 . S
C1381 C1379 1.433 . S
C1381 N1384 1.384 . S
C1382 H1373 0.929 . S
C1382 C1374 1.378 . S
C1382 C1377 1.350 . S
C1383 H1370 0.929 . S
C1383 C1375 1.433 . S
C1383 N1385 1.384 . S
N1384 C1380 1.427 . S
N1384 C1381 1.384 . S
N1385 C1377 1.427 . S
N1385 C1383 1.384 . S
H1386 C1392 0.930 . S
H1387 C1396 0.930 . S
H1388 C1401 0.929 . S
H1389 C1399 0.929 . S
H1390 C1394 0.929 . S
H1391 C1400 0.929 . S
C1392 H1386 0.930 . S
C1392 C1393 1.367 . S
C1392 C1400 1.378 . S
C1393 C1392 1.367 . S
C1393 C1401 1.433 . S
C1394 H1390 0.929 . S
C1394 C1396 1.378 . S
C1394 C1398 1.350 . S
C1395 C1398 1.463 . S
C1395 C1400 1.350 . S
C1395 N1403 1.427 . S
C1396 H1387 0.930 . S
C1396 C1394 1.378 . S
C1396 C1397 1.367 . S
C1397 C1396 1.367 . S
C1397 C1399 1.433 . S
C1398 C1394 1.350 . S
C1398 C1395 1.463 . S
C1398 N1402 1.427 . S
C1399 H1389 0.929 . S
C1399 C1397 1.433 . S
C1399 N1402 1.384 . S
C1400 H1391 0.929 . S
C1400 C1392 1.378 . S
C1400 C1395 1.350 . S
C1401 H1388 0.929 . S
C1401 C1393 1.433 . S
C1401 N1403 1.384 . S
N1402 C1398 1.427 . S
N1402 C1399 1.384 . S
N1403 C1395 1.427 . S
N1403 C1401 1.384 . S
H1404 C1410 0.930 . S
H1405 C1414 0.930 . S
H1406 C1419 0.929 . S
H1407 C1417 0.929 . S
H1408 C1412 0.929 . S
H1409 C1418 0.929 . S
C1410 H1404 0.930 . S
C1410 C1411 1.367 . S
C1410 C1418 1.378 . S
C1411 C1410 1.367 . S
C1411 C1419 1.433 . S
C1412 H1408 0.929 . S
C1412 C1414 1.378 . S
C1412 C1416 1.350 . S
C1413 C1416 1.463 . S
C1413 C1418 1.350 . S
C1413 N1421 1.427 . S
C1414 H1405 0.930 . S
C1414 C1412 1.378 . S
C1414 C1415 1.367 . S
C1415 C1414 1.367 . S
C1415 C1417 1.433 . S
C1416 C1412 1.350 . S
C1416 C1413 1.463 . S
C1416 N1420 1.427 . S
C1417 H1407 0.929 . S
C1417 C1415 1.433 . S
C1417 N1420 1.384 . S
C1418 H1409 0.929 . S
C1418 C1410 1.378 . S
C1418 C1413 1.350 . S
C1419 H1406 0.929 . S
C1419 C1411 1.433 . S
C1419 N1421 1.384 . S
N1420 C1416 1.427 . S
N1420 C1417 1.384 . S
N1421 C1413 1.427 . S
N1421 C1419 1.384 . S
H1422 C1428 0.930 . S
H1423 C1432 0.930 . S
H1424 C1437 0.929 . S
H1425 C1435 0.929 . S
H1426 C1430 0.929 . S
H1427 C1436 0.929 . S
C1428 H1422 0.930 . S
C1428 C1429 1.367 . S
C1428 C1436 1.378 . S
C1429 C1428 1.367 . S
C1429 C1437 1.433 . S
C1430 H1426 0.929 . S
C1430 C1432 1.378 . S
C1430 C1434 1.350 1_554 S
C1431 C1434 1.463 . S
C1431 C1436 1.350 . S
C1431 N1439 1.427 . S
C1432 H1423 0.930 . S
C1432 C1430 1.378 . S
C1432 C1433 1.367 . S
C1433 C1432 1.367 . S
C1433 C1435 1.433 1_554 S
C1434 C1430 1.350 1_556 S
C1434 C1431 1.463 . S
C1434 N1438 1.427 . S
C1435 H1425 0.929 . S
C1435 C1433 1.433 1_556 S
C1435 N1438 1.384 . S
C1436 H1427 0.929 . S
C1436 C1428 1.378 . S
C1436 C1431 1.350 . S
C1437 H1424 0.929 . S
C1437 C1429 1.433 . S
C1437 N1439 1.384 . S
N1438 C1434 1.427 . S
N1438 C1435 1.384 . S
N1439 C1431 1.427 . S
N1439 C1437 1.384 . S
H1440 C1446 0.930 . S
H1441 C1450 0.930 . S
H1442 C1455 0.929 . S
H1443 C1453 0.929 . S
H1444 C1448 0.929 . S
H1445 C1454 0.929 . S
C1446 H1440 0.930 . S
C1446 C1447 1.367 . S
C1446 C1454 1.378 . S
C1447 C1446 1.367 . S
C1447 C1455 1.433 . S
C1448 H1444 0.929 . S
C1448 C1450 1.378 . S
C1448 C1452 1.350 . S
C1449 C1452 1.463 . S
C1449 C1454 1.350 . S
C1449 N1457 1.427 . S
C1450 H1441 0.930 . S
C1450 C1448 1.378 . S
C1450 C1451 1.367 . S
C1451 C1450 1.367 . S
C1451 C1453 1.433 . S
C1452 C1448 1.350 . S
C1452 C1449 1.463 . S
C1452 N1456 1.427 . S
C1453 H1443 0.929 . S
C1453 C1451 1.433 . S
C1453 N1456 1.384 . S
C1454 H1445 0.929 . S
C1454 C1446 1.378 . S
C1454 C1449 1.350 . S
C1455 H1442 0.929 . S
C1455 C1447 1.433 . S
C1455 N1457 1.384 . S
N1456 C1452 1.427 . S
N1456 C1453 1.384 . S
N1457 C1449 1.427 . S
N1457 C1455 1.384 . S
H1458 C1464 0.930 . S
H1459 C1468 0.928 . S
H1460 C1473 0.929 . S
H1461 C1471 0.929 1_556 S
H1462 C1466 0.929 . S
H1463 C1472 0.924 . S
C1464 H1458 0.930 . S
C1464 C1465 1.367 . S
C1464 C1472 1.381 1_565 S
C1465 C1464 1.367 . S
C1465 C1473 1.433 . S
C1466 H1462 0.929 . S
C1466 C1468 1.378 1_564 S
C1466 C1470 1.350 1_565 S
C1467 C1470 1.463 1_565 S
C1467 C1472 1.352 1_565 S
C1467 N1475 1.427 . S
C1468 H1459 0.928 . S
C1468 C1466 1.378 1_546 S
C1468 C1469 1.367 . S
C1469 C1468 1.367 . S
C1469 C1471 1.433 1_556 S
C1470 C1466 1.350 1_545 S
C1470 C1467 1.463 1_545 S
C1470 N1474 1.427 . S
C1471 H1461 0.929 1_554 S
C1471 C1469 1.433 1_554 S
C1471 N1474 1.384 . S
C1472 H1463 0.924 . S
C1472 C1464 1.381 1_545 S
C1472 C1467 1.352 1_545 S
C1473 H1460 0.929 . S
C1473 C1465 1.433 . S
C1473 N1475 1.384 . S
N1474 C1470 1.427 . S
N1474 C1471 1.384 . S
N1475 C1467 1.427 . S
N1475 C1473 1.384 . S
H1476 C1482 0.930 . S
H1477 C1486 0.930 . S
H1478 C1491 0.929 . S
H1479 C1489 0.929 . S
H1480 C1484 0.929 . S
H1481 C1490 0.929 . S
C1482 H1476 0.930 . S
C1482 C1483 1.367 . S
C1482 C1490 1.378 . S
C1483 C1482 1.367 . S
C1483 C1491 1.433 . S
C1484 H1480 0.929 . S
C1484 C1486 1.378 . S
C1484 C1488 1.350 . S
C1485 C1488 1.463 . S
C1485 C1490 1.350 . S
C1485 N1493 1.427 . S
C1486 H1477 0.930 . S
C1486 C1484 1.378 . S
C1486 C1487 1.367 . S
C1487 C1486 1.367 . S
C1487 C1489 1.433 . S
C1488 C1484 1.350 . S
C1488 C1485 1.463 . S
C1488 N1492 1.427 . S
C1489 H1479 0.929 . S
C1489 C1487 1.433 . S
C1489 N1492 1.384 . S
C1490 H1481 0.929 . S
C1490 C1482 1.378 . S
C1490 C1485 1.350 . S
C1491 H1478 0.929 . S
C1491 C1483 1.433 . S
C1491 N1493 1.384 . S
N1492 C1488 1.427 . S
N1492 C1489 1.384 . S
N1493 C1485 1.427 . S
N1493 C1491 1.384 . S
H1494 C1500 0.930 . S
H1495 C1504 0.930 . S
H1496 C1509 0.910 1_565 S
H1497 C1507 0.929 . S
H1498 C1502 0.929 . S
H1499 C1508 0.929 . S
C1500 H1494 0.930 . S
C1500 C1501 1.367 . S
C1500 C1508 1.378 . S
C1501 C1500 1.367 . S
C1501 C1509 1.433 . S
C1502 H1498 0.929 . S
C1502 C1504 1.378 . S
C1502 C1506 1.350 . S
C1503 C1506 1.463 1_545 S
C1503 C1508 1.350 . S
C1503 N1511 1.427 1_545 S
C1504 H1495 0.930 . S
C1504 C1502 1.378 . S
C1504 C1505 1.367 . S
C1505 C1504 1.367 . S
C1505 C1507 1.433 . S
C1506 C1502 1.350 . S
C1506 C1503 1.463 1_565 S
C1506 N1510 1.414 1_565 S
C1507 H1497 0.929 . S
C1507 C1505 1.433 . S
C1507 N1510 1.369 1_565 S
C1508 H1499 0.929 . S
C1508 C1500 1.378 . S
C1508 C1503 1.350 . S
C1509 H1496 0.910 1_545 S
C1509 C1501 1.433 . S
C1509 N1511 1.384 1_545 S
N1510 C1506 1.414 1_545 S
N1510 C1507 1.369 1_545 S
N1511 C1503 1.427 1_565 S
N1511 C1509 1.384 1_565 S
H1512 C1518 0.930 . S
H1513 C1522 0.930 . S
H1514 C1527 0.929 . S
H1515 C1525 0.929 . S
H1516 C1520 0.929 . S
H1517 C1526 0.929 . S
C1518 H1512 0.930 . S
C1518 C1519 1.367 . S
C1518 C1526 1.378 . S
C1519 C1518 1.367 . S
C1519 C1527 1.433 . S
C1520 H1516 0.929 . S
C1520 C1522 1.378 . S
C1520 C1524 1.350 . S
C1521 C1524 1.463 . S
C1521 C1526 1.350 . S
C1521 N1529 1.427 . S
C1522 H1513 0.930 . S
C1522 C1520 1.378 . S
C1522 C1523 1.367 . S
C1523 C1522 1.367 . S
C1523 C1525 1.433 . S
C1524 C1520 1.350 . S
C1524 C1521 1.463 . S
C1524 N1528 1.427 . S
C1525 H1515 0.929 . S
C1525 C1523 1.433 . S
C1525 N1528 1.384 . S
C1526 H1517 0.929 . S
C1526 C1518 1.378 . S
C1526 C1521 1.350 . S
C1527 H1514 0.929 . S
C1527 C1519 1.433 . S
C1527 N1529 1.384 . S
N1528 C1524 1.427 . S
N1528 C1525 1.384 . S
N1529 C1521 1.427 . S
N1529 C1527 1.384 . S
H1530 C1536 0.930 . S
H1531 C1540 0.930 . S
H1532 C1545 0.929 1_556 S
H1533 C1543 0.929 . S
H1534 C1538 0.884 1_545 S
H1535 C1544 0.929 . S
C1536 H1530 0.930 . S
C1536 C1537 1.367 . S
C1536 C1544 1.378 1_546 S
C1537 C1536 1.367 . S
C1537 C1545 1.433 1_556 S
C1538 H1534 0.884 1_565 S
C1538 C1540 1.407 . S
C1538 C1542 1.369 . S
C1539 C1542 1.463 1_545 S
C1539 C1544 1.350 1_545 S
C1539 N1547 1.427 . S
C1540 H1531 0.930 . S
C1540 C1538 1.407 . S
C1540 C1541 1.367 . S
C1541 C1540 1.367 . S
C1541 C1543 1.433 . S
C1542 C1538 1.369 . S
C1542 C1539 1.463 1_565 S
C1542 N1546 1.427 . S
C1543 H1533 0.929 . S
C1543 C1541 1.433 . S
C1543 N1546 1.384 . S
C1544 H1535 0.929 . S
C1544 C1536 1.378 1_564 S
C1544 C1539 1.350 1_565 S
C1545 H1532 0.929 1_554 S
C1545 C1537 1.433 1_554 S
C1545 N1547 1.384 . S
N1546 C1542 1.427 . S
N1546 C1543 1.384 . S
N1547 C1539 1.427 . S
N1547 C1545 1.384 . S
H1548 C1554 0.930 . S
H1549 C1558 0.930 . S
H1550 C1563 0.929 . S
H1551 C1561 0.929 . S
H1552 C1556 0.929 . S
H1553 C1562 0.929 . S
C1554 H1548 0.930 . S
C1554 C1555 1.367 . S
C1554 C1562 1.378 . S
C1555 C1554 1.367 . S
C1555 C1563 1.433 . S
C1556 H1552 0.929 . S
C1556 C1558 1.378 . S
C1556 C1560 1.350 . S
C1557 C1560 1.463 . S
C1557 C1562 1.350 . S
C1557 N1565 1.427 . S
C1558 H1549 0.930 . S
C1558 C1556 1.378 . S
C1558 C1559 1.367 . S
C1559 C1558 1.367 . S
C1559 C1561 1.433 . S
C1560 C1556 1.350 . S
C1560 C1557 1.463 . S
C1560 N1564 1.427 . S
C1561 H1551 0.929 . S
C1561 C1559 1.433 . S
C1561 N1564 1.384 . S
C1562 H1553 0.929 . S
C1562 C1554 1.378 . S
C1562 C1557 1.350 . S
C1563 H1550 0.929 . S
C1563 C1555 1.433 . S
C1563 N1565 1.384 . S
N1564 C1560 1.427 . S
N1564 C1561 1.384 . S
N1565 C1557 1.427 . S
N1565 C1563 1.384 . S
H1566 C1572 0.928 1_565 S
H1567 C1576 0.930 1_545 S
H1568 C1581 0.929 . S
H1569 C1579 0.929 . S
H1570 C1574 0.929 . S
H1571 C1580 0.929 . S
C1572 H1566 0.928 1_545 S
C1572 C1573 1.371 . S
C1572 C1580 1.376 1_545 S
C1573 C1572 1.371 . S
C1573 C1581 1.433 . S
C1574 H1570 0.929 . S
C1574 C1576 1.378 1_545 S
C1574 C1578 1.350 1_545 S
C1575 C1578 1.463 1_545 S
C1575 C1580 1.350 1_545 S
C1575 N1583 1.427 . S
C1576 H1567 0.930 1_565 S
C1576 C1574 1.378 1_565 S
C1576 C1577 1.367 . S
C1577 C1576 1.367 . S
C1577 C1579 1.433 . S
C1578 C1574 1.350 1_565 S
C1578 C1575 1.463 1_565 S
C1578 N1582 1.427 . S
C1579 H1569 0.929 . S
C1579 C1577 1.433 . S
C1579 N1582 1.384 . S
C1580 H1571 0.929 . S
C1580 C1572 1.376 1_565 S
C1580 C1575 1.350 1_565 S
C1581 H1568 0.929 . S
C1581 C1573 1.433 . S
C1581 N1583 1.384 . S
N1582 C1578 1.427 . S
N1582 C1579 1.384 . S
N1583 C1575 1.427 . S
N1583 C1581 1.384 . S
H1584 C1590 0.930 . S
H1585 C1594 0.930 . S
H1586 C1599 0.929 . S
H1587 C1597 0.929 . S
H1588 C1592 0.929 . S
H1589 C1598 0.929 . S
C1590 H1584 0.930 . S
C1590 C1591 1.367 . S
C1590 C1598 1.378 . S
C1591 C1590 1.367 . S
C1591 C1599 1.433 . S
C1592 H1588 0.929 . S
C1592 C1594 1.378 . S
C1592 C1596 1.350 . S
C1593 C1596 1.463 . S
C1593 C1598 1.350 . S
C1593 N1601 1.427 . S
C1594 H1585 0.930 . S
C1594 C1592 1.378 . S
C1594 C1595 1.367 . S
C1595 C1594 1.367 . S
C1595 C1597 1.433 . S
C1596 C1592 1.350 . S
C1596 C1593 1.463 . S
C1596 N1600 1.427 . S
C1597 H1587 0.929 . S
C1597 C1595 1.433 . S
C1597 N1600 1.384 . S
C1598 H1589 0.929 . S
C1598 C1590 1.378 . S
C1598 C1593 1.350 . S
C1599 H1586 0.929 . S
C1599 C1591 1.433 . S
C1599 N1601 1.384 . S
N1600 C1596 1.427 . S
N1600 C1597 1.384 . S
N1601 C1593 1.427 . S
N1601 C1599 1.384 . S
H1602 C1608 0.930 . S
H1603 C1612 0.930 . S
H1604 C1617 0.929 . S
H1605 C1615 0.929 . S
H1606 C1610 0.929 . S
H1607 C1616 0.929 . S
C1608 H1602 0.930 . S
C1608 C1609 1.367 . S
C1608 C1616 1.378 . S
C1609 C1608 1.367 . S
C1609 C1617 1.433 . S
C1610 H1606 0.929 . S
C1610 C1612 1.378 . S
C1610 C1614 1.350 . S
C1611 C1614 1.463 . S
C1611 C1616 1.350 . S
C1611 N1619 1.427 . S
C1612 H1603 0.930 . S
C1612 C1610 1.378 . S
C1612 C1613 1.367 . S
C1613 C1612 1.367 . S
C1613 C1615 1.433 . S
C1614 C1610 1.350 . S
C1614 C1611 1.463 . S
C1614 N1618 1.427 . S
C1615 H1605 0.929 . S
C1615 C1613 1.433 . S
C1615 N1618 1.384 . S
C1616 H1607 0.929 . S
C1616 C1608 1.378 . S
C1616 C1611 1.350 . S
C1617 H1604 0.929 . S
C1617 C1609 1.433 . S
C1617 N1619 1.384 . S
N1618 C1614 1.427 . S
N1618 C1615 1.384 . S
N1619 C1611 1.427 . S
N1619 C1617 1.384 . S
H1620 C1626 0.930 . S
H1621 C1630 0.930 . S
H1622 C1635 0.929 . S
H1623 C1633 0.929 . S
H1624 C1628 0.929 . S
H1625 C1634 0.929 . S
C1626 H1620 0.930 . S
C1626 C1627 1.367 . S
C1626 C1634 1.378 . S
C1627 C1626 1.367 . S
C1627 C1635 1.433 . S
C1628 H1624 0.929 . S
C1628 C1630 1.378 . S
C1628 C1632 1.350 . S
C1629 C1632 1.463 . S
C1629 C1634 1.350 . S
C1629 N1637 1.427 . S
C1630 H1621 0.930 . S
C1630 C1628 1.378 . S
C1630 C1631 1.367 . S
C1631 C1630 1.367 . S
C1631 C1633 1.433 . S
C1632 C1628 1.350 . S
C1632 C1629 1.463 . S
C1632 N1636 1.427 . S
C1633 H1623 0.929 . S
C1633 C1631 1.433 . S
C1633 N1636 1.384 . S
C1634 H1625 0.929 . S
C1634 C1626 1.378 . S
C1634 C1629 1.350 . S
C1635 H1622 0.929 . S
C1635 C1627 1.433 . S
C1635 N1637 1.384 . S
N1636 C1632 1.427 . S
N1636 C1633 1.384 . S
N1637 C1629 1.427 . S
N1637 C1635 1.384 . S
H1638 C1644 0.930 . S
H1639 C1648 0.927 1_556 S
H1640 C1653 0.929 . S
H1641 C1651 0.929 . S
H1642 C1646 0.929 . S
H1643 C1652 0.929 . S
C1644 H1638 0.930 . S
C1644 C1645 1.367 . S
C1644 C1652 1.378 . S
C1645 C1644 1.367 . S
C1645 C1653 1.433 . S
C1646 H1642 0.929 . S
C1646 C1648 1.390 . S
C1646 C1650 1.350 . S
C1647 C1650 1.463 . S
C1647 C1652 1.350 . S
C1647 N1655 1.427 . S
C1648 H1639 0.927 1_554 S
C1648 C1646 1.390 . S
C1648 C1649 1.358 1_554 S
C1649 C1648 1.358 1_556 S
C1649 C1651 1.433 . S
C1650 C1646 1.350 . S
C1650 C1647 1.463 . S
C1650 N1654 1.427 . S
C1651 H1641 0.929 . S
C1651 C1649 1.433 . S
C1651 N1654 1.384 1_556 S
C1652 H1643 0.929 . S
C1652 C1644 1.378 . S
C1652 C1647 1.350 . S
C1653 H1640 0.929 . S
C1653 C1645 1.433 . S
C1653 N1655 1.384 . S
N1654 C1650 1.427 . S
N1654 C1651 1.384 1_554 S
N1655 C1647 1.427 . S
N1655 C1653 1.384 . S
H1656 C1662 0.930 . S
H1657 C1666 0.930 . S
H1658 C1671 0.929 . S
H1659 C1669 0.929 . S
H1660 C1664 0.929 . S
H1661 C1670 0.929 . S
C1662 H1656 0.930 . S
C1662 C1663 1.367 . S
C1662 C1670 1.378 . S
C1663 C1662 1.367 . S
C1663 C1671 1.433 . S
C1664 H1660 0.929 . S
C1664 C1666 1.378 . S
C1664 C1668 1.350 . S
C1665 C1668 1.463 . S
C1665 C1670 1.350 . S
C1665 N1673 1.427 . S
C1666 H1657 0.930 . S
C1666 C1664 1.378 . S
C1666 C1667 1.367 . S
C1667 C1666 1.367 . S
C1667 C1669 1.433 . S
C1668 C1664 1.350 . S
C1668 C1665 1.463 . S
C1668 N1672 1.427 . S
C1669 H1659 0.929 . S
C1669 C1667 1.433 . S
C1669 N1672 1.384 . S
C1670 H1661 0.929 . S
C1670 C1662 1.378 . S
C1670 C1665 1.350 . S
C1671 H1658 0.929 . S
C1671 C1663 1.433 . S
C1671 N1673 1.384 . S
N1672 C1668 1.427 . S
N1672 C1669 1.384 . S
N1673 C1665 1.427 . S
N1673 C1671 1.384 . S
H1674 C1680 0.930 . S
H1675 C1684 0.930 . S
H1676 C1689 0.929 . S
H1677 C1687 0.929 . S
H1678 C1682 0.929 . S
H1679 C1688 0.929 . S
C1680 H1674 0.930 . S
C1680 C1681 1.367 . S
C1680 C1688 1.378 . S
C1681 C1680 1.367 . S
C1681 C1689 1.433 . S
C1682 H1678 0.929 . S
C1682 C1684 1.378 . S
C1682 C1686 1.350 . S
C1683 C1686 1.463 . S
C1683 C1688 1.350 . S
C1683 N1691 1.427 . S
C1684 H1675 0.930 . S
C1684 C1682 1.378 . S
C1684 C1685 1.367 . S
C1685 C1684 1.367 . S
C1685 C1687 1.433 . S
C1686 C1682 1.350 . S
C1686 C1683 1.463 . S
C1686 N1690 1.427 . S
C1687 H1677 0.929 . S
C1687 C1685 1.433 . S
C1687 N1690 1.384 . S
C1688 H1679 0.929 . S
C1688 C1680 1.378 . S
C1688 C1683 1.350 . S
C1689 H1676 0.929 . S
C1689 C1681 1.433 . S
C1689 N1691 1.384 . S
N1690 C1686 1.427 . S
N1690 C1687 1.384 . S
N1691 C1683 1.427 . S
N1691 C1689 1.384 . S
H1692 C1698 0.930 . S
H1693 C1702 0.930 . S
H1694 C1707 0.929 . S
H1695 C1705 0.929 . S
H1696 C1700 0.929 . S
H1697 C1706 0.929 . S
C1698 H1692 0.930 . S
C1698 C1699 1.367 . S
C1698 C1706 1.378 . S
C1699 C1698 1.367 . S
C1699 C1707 1.433 . S
C1700 H1696 0.929 . S
C1700 C1702 1.378 . S
C1700 C1704 1.350 . S
C1701 C1704 1.463 . S
C1701 C1706 1.350 . S
C1701 N1709 1.427 . S
C1702 H1693 0.930 . S
C1702 C1700 1.378 . S
C1702 C1703 1.367 . S
C1703 C1702 1.367 . S
C1703 C1705 1.433 . S
C1704 C1700 1.350 . S
C1704 C1701 1.463 . S
C1704 N1708 1.427 . S
C1705 H1695 0.929 . S
C1705 C1703 1.433 . S
C1705 N1708 1.384 . S
C1706 H1697 0.929 . S
C1706 C1698 1.378 . S
C1706 C1701 1.350 . S
C1707 H1694 0.929 . S
C1707 C1699 1.433 . S
C1707 N1709 1.384 . S
N1708 C1704 1.427 . S
N1708 C1705 1.384 . S
N1709 C1701 1.427 . S
N1709 C1707 1.384 . S
H1710 C1716 0.930 . S
H1711 C1720 0.933 . S
H1712 C1725 0.929 . S
H1713 C1723 0.929 . S
H1714 C1718 0.929 . S
H1715 C1724 0.929 . S
C1716 H1710 0.930 . S
C1716 C1717 1.367 . S
C1716 C1724 1.378 . S
C1717 C1716 1.367 . S
C1717 C1725 1.433 . S
C1718 H1714 0.929 . S
C1718 C1720 1.378 . S
C1718 C1722 1.350 . S
C1719 C1722 1.463 . S
C1719 C1724 1.350 . S
C1719 N1727 1.427 . S
C1720 H1711 0.933 . S
C1720 C1718 1.378 . S
C1720 C1721 1.367 1_554 S
C1721 C1720 1.367 1_556 S
C1721 C1723 1.433 . S
C1722 C1718 1.350 . S
C1722 C1719 1.463 . S
C1722 N1726 1.427 . S
C1723 H1713 0.929 . S
C1723 C1721 1.433 . S
C1723 N1726 1.384 1_556 S
C1724 H1715 0.929 . S
C1724 C1716 1.378 . S
C1724 C1719 1.350 . S
C1725 H1712 0.929 . S
C1725 C1717 1.433 . S
C1725 N1727 1.384 . S
N1726 C1722 1.427 . S
N1726 C1723 1.384 1_554 S
N1727 C1719 1.427 . S
N1727 C1725 1.384 . S
H1728 C1734 0.930 1_556 S
H1729 C1738 0.930 . S
H1730 C1743 0.929 . S
H1731 C1741 0.929 1_556 S
H1732 C1736 0.929 . S
H1733 C1742 0.929 1_556 S
C1734 H1728 0.930 1_554 S
C1734 C1735 1.367 . S
C1734 C1742 1.378 . S
C1735 C1734 1.367 . S
C1735 C1743 1.433 . S
C1736 H1732 0.929 . S
C1736 C1738 1.378 . S
C1736 C1740 1.350 . S
C1737 C1740 1.463 . S
C1737 C1742 1.350 . S
C1737 N1745 1.427 . S
C1738 H1729 0.930 . S
C1738 C1736 1.378 . S
C1738 C1739 1.367 . S
C1739 C1738 1.367 . S
C1739 C1741 1.433 . S
C1740 C1736 1.350 . S
C1740 C1737 1.463 . S
C1740 N1744 1.427 . S
C1741 H1731 0.929 1_554 S
C1741 C1739 1.433 . S
C1741 N1744 1.384 . S
C1742 H1733 0.929 1_554 S
C1742 C1734 1.378 . S
C1742 C1737 1.350 . S
C1743 H1730 0.929 . S
C1743 C1735 1.433 . S
C1743 N1745 1.384 . S
N1744 C1740 1.427 . S
N1744 C1741 1.384 . S
N1745 C1737 1.427 . S
N1745 C1743 1.384 . S
H1746 C1752 0.930 . S
H1747 C1756 0.930 . S
H1748 C1761 0.929 . S
H1749 C1759 0.929 . S
H1750 C1754 0.929 . S
H1751 C1760 0.929 . S
C1752 H1746 0.930 . S
C1752 C1753 1.367 . S
C1752 C1760 1.378 . S
C1753 C1752 1.367 . S
C1753 C1761 1.433 . S
C1754 H1750 0.929 . S
C1754 C1756 1.378 . S
C1754 C1758 1.350 . S
C1755 C1758 1.463 1_455 S
C1755 C1760 1.350 . S
C1755 N1763 1.427 . S
C1756 H1747 0.930 . S
C1756 C1754 1.378 . S
C1756 C1757 1.367 . S
C1757 C1756 1.367 . S
C1757 C1759 1.433 . S
C1758 C1754 1.350 . S
C1758 C1755 1.463 1_655 S
C1758 N1762 1.427 . S
C1759 H1749 0.929 . S
C1759 C1757 1.433 . S
C1759 N1762 1.384 . S
C1760 H1751 0.929 . S
C1760 C1752 1.378 . S
C1760 C1755 1.350 . S
C1761 H1748 0.929 . S
C1761 C1753 1.433 . S
C1761 N1763 1.384 . S
N1762 C1758 1.427 . S
N1762 C1759 1.384 . S
N1763 C1755 1.427 . S
N1763 C1761 1.384 . S
H1764 C1770 0.930 . S
H1765 C1774 0.930 . S
H1766 C1779 0.929 . S
H1767 C1777 0.929 . S
H1768 C1772 0.929 . S
H1769 C1778 0.929 . S
C1770 H1764 0.930 . S
C1770 C1771 1.367 . S
C1770 C1778 1.378 . S
C1771 C1770 1.367 . S
C1771 C1779 1.433 . S
C1772 H1768 0.929 . S
C1772 C1774 1.378 . S
C1772 C1776 1.350 . S
C1773 C1776 1.463 . S
C1773 C1778 1.350 . S
C1773 N1781 1.427 . S
C1774 H1765 0.930 . S
C1774 C1772 1.378 . S
C1774 C1775 1.367 . S
C1775 C1774 1.367 . S
C1775 C1777 1.433 . S
C1776 C1772 1.350 . S
C1776 C1773 1.463 . S
C1776 N1780 1.427 . S
C1777 H1767 0.929 . S
C1777 C1775 1.433 . S
C1777 N1780 1.384 . S
C1778 H1769 0.929 . S
C1778 C1770 1.378 . S
C1778 C1773 1.350 . S
C1779 H1766 0.929 . S
C1779 C1771 1.433 . S
C1779 N1781 1.384 . S
N1780 C1776 1.427 . S
N1780 C1777 1.384 . S
N1781 C1773 1.427 . S
N1781 C1779 1.384 . S
H1782 C1788 0.930 . S
H1783 C1792 0.930 . S
H1784 C1797 0.929 . S
H1785 C1795 0.929 . S
H1786 C1790 0.929 . S
H1787 C1796 0.929 . S
C1788 H1782 0.930 . S
C1788 C1789 1.367 . S
C1788 C1796 1.378 . S
C1789 C1788 1.367 . S
C1789 C1797 1.433 . S
C1790 H1786 0.929 . S
C1790 C1792 1.378 . S
C1790 C1794 1.350 . S
C1791 C1794 1.463 . S
C1791 C1796 1.350 . S
C1791 N1799 1.427 . S
C1792 H1783 0.930 . S
C1792 C1790 1.378 . S
C1792 C1793 1.367 . S
C1793 C1792 1.367 . S
C1793 C1795 1.433 . S
C1794 C1790 1.350 . S
C1794 C1791 1.463 . S
C1794 N1798 1.427 . S
C1795 H1785 0.929 . S
C1795 C1793 1.433 . S
C1795 N1798 1.384 . S
C1796 H1787 0.929 . S
C1796 C1788 1.378 . S
C1796 C1791 1.350 . S
C1797 H1784 0.929 . S
C1797 C1789 1.433 . S
C1797 N1799 1.384 . S
N1798 C1794 1.427 . S
N1798 C1795 1.384 . S
N1799 C1791 1.427 . S
N1799 C1797 1.384 . S
H1800 C1806 0.930 . S
H1801 C1810 0.930 . S
H1802 C1815 0.929 . S
H1803 C1813 0.929 . S
H1804 C1808 0.929 . S
H1805 C1814 0.929 . S
C1806 H1800 0.930 . S
C1806 C1807 1.367 . S
C1806 C1814 1.378 . S
C1807 C1806 1.367 . S
C1807 C1815 1.433 . S
C1808 H1804 0.929 . S
C1808 C1810 1.378 . S
C1808 C1812 1.350 . S
C1809 C1812 1.463 . S
C1809 C1814 1.350 . S
C1809 N1817 1.427 . S
C1810 H1801 0.930 . S
C1810 C1808 1.378 . S
C1810 C1811 1.367 . S
C1811 C1810 1.367 . S
C1811 C1813 1.433 . S
C1812 C1808 1.350 . S
C1812 C1809 1.463 . S
C1812 N1816 1.427 . S
C1813 H1803 0.929 . S
C1813 C1811 1.433 . S
C1813 N1816 1.384 . S
C1814 H1805 0.929 . S
C1814 C1806 1.378 . S
C1814 C1809 1.350 . S
C1815 H1802 0.929 . S
C1815 C1807 1.433 . S
C1815 N1817 1.384 . S
N1816 C1812 1.427 . S
N1816 C1813 1.384 . S
N1817 C1809 1.427 . S
N1817 C1815 1.384 . S
H1818 C1824 0.930 . S
H1819 C1828 0.930 . S
H1820 C1833 0.929 . S
H1821 C1831 0.929 . S
H1822 C1826 0.929 . S
H1823 C1832 0.929 . S
C1824 H1818 0.930 . S
C1824 C1825 1.367 . S
C1824 C1832 1.378 . S
C1825 C1824 1.367 . S
C1825 C1833 1.433 . S
C1826 H1822 0.929 . S
C1826 C1828 1.378 . S
C1826 C1830 1.350 . S
C1827 C1830 1.463 . S
C1827 C1832 1.350 . S
C1827 N1835 1.427 . S
C1828 H1819 0.930 . S
C1828 C1826 1.378 . S
C1828 C1829 1.367 . S
C1829 C1828 1.367 . S
C1829 C1831 1.433 . S
C1830 C1826 1.350 . S
C1830 C1827 1.463 . S
C1830 N1834 1.427 . S
C1831 H1821 0.929 . S
C1831 C1829 1.433 . S
C1831 N1834 1.384 . S
C1832 H1823 0.929 . S
C1832 C1824 1.378 . S
C1832 C1827 1.350 . S
C1833 H1820 0.929 . S
C1833 C1825 1.433 . S
C1833 N1835 1.384 . S
N1834 C1830 1.427 . S
N1834 C1831 1.384 . S
N1835 C1827 1.427 . S
N1835 C1833 1.384 . S
H1836 C1842 0.930 . S
H1837 C1846 0.930 . S
H1838 C1851 0.929 . S
H1839 C1849 0.929 . S
H1840 C1844 0.929 . S
H1841 C1850 0.929 . S
C1842 H1836 0.930 . S
C1842 C1843 1.367 . S
C1842 C1850 1.378 . S
C1843 C1842 1.367 . S
C1843 C1851 1.433 . S
C1844 H1840 0.929 . S
C1844 C1846 1.378 . S
C1844 C1848 1.350 . S
C1845 C1848 1.463 . S
C1845 C1850 1.350 . S
C1845 N1853 1.427 . S
C1846 H1837 0.930 . S
C1846 C1844 1.378 . S
C1846 C1847 1.367 . S
C1847 C1846 1.367 . S
C1847 C1849 1.433 . S
C1848 C1844 1.350 . S
C1848 C1845 1.463 . S
C1848 N1852 1.427 . S
C1849 H1839 0.929 . S
C1849 C1847 1.433 . S
C1849 N1852 1.384 . S
C1850 H1841 0.929 . S
C1850 C1842 1.378 . S
C1850 C1845 1.350 . S
C1851 H1838 0.929 . S
C1851 C1843 1.433 . S
C1851 N1853 1.384 . S
N1852 C1848 1.427 . S
N1852 C1849 1.384 . S
N1853 C1845 1.427 . S
N1853 C1851 1.384 . S
H1854 C1860 0.930 . S
H1855 C1864 0.930 . S
H1856 C1869 0.929 . S
H1857 C1867 0.929 . S
H1858 C1862 0.929 . S
H1859 C1868 0.929 . S
C1860 H1854 0.930 . S
C1860 C1861 1.367 . S
C1860 C1868 1.378 . S
C1861 C1860 1.367 . S
C1861 C1869 1.433 . S
C1862 H1858 0.929 . S
C1862 C1864 1.378 . S
C1862 C1866 1.350 . S
C1863 C1866 1.463 1_655 S
C1863 C1868 1.350 . S
C1863 N1871 1.427 . S
C1864 H1855 0.930 . S
C1864 C1862 1.378 . S
C1864 C1865 1.367 . S
C1865 C1864 1.367 . S
C1865 C1867 1.433 . S
C1866 C1862 1.350 . S
C1866 C1863 1.463 1_455 S
C1866 N1870 1.427 . S
C1867 H1857 0.929 . S
C1867 C1865 1.433 . S
C1867 N1870 1.384 . S
C1868 H1859 0.929 . S
C1868 C1860 1.378 . S
C1868 C1863 1.350 . S
C1869 H1856 0.929 . S
C1869 C1861 1.433 . S
C1869 N1871 1.384 . S
N1870 C1866 1.427 . S
N1870 C1867 1.384 . S
N1871 C1863 1.427 . S
N1871 C1869 1.384 . S
H1872 C1878 0.930 . S
H1873 C1882 0.930 . S
H1874 C1887 0.929 . S
H1875 C1885 0.929 . S
H1876 C1880 0.929 . S
H1877 C1886 0.929 . S
C1878 H1872 0.930 . S
C1878 C1879 1.367 . S
C1878 C1886 1.378 . S
C1879 C1878 1.367 . S
C1879 C1887 1.433 . S
C1880 H1876 0.929 . S
C1880 C1882 1.378 . S
C1880 C1884 1.350 . S
C1881 C1884 1.463 . S
C1881 C1886 1.350 . S
C1881 N1889 1.427 . S
C1882 H1873 0.930 . S
C1882 C1880 1.378 . S
C1882 C1883 1.367 . S
C1883 C1882 1.367 . S
C1883 C1885 1.433 . S
C1884 C1880 1.350 . S
C1884 C1881 1.463 . S
C1884 N1888 1.427 . S
C1885 H1875 0.929 . S
C1885 C1883 1.433 . S
C1885 N1888 1.384 . S
C1886 H1877 0.929 . S
C1886 C1878 1.378 . S
C1886 C1881 1.350 . S
C1887 H1874 0.929 . S
C1887 C1879 1.433 . S
C1887 N1889 1.384 . S
N1888 C1884 1.427 . S
N1888 C1885 1.384 . S
N1889 C1881 1.427 . S
N1889 C1887 1.384 . S
H1890 C1896 0.930 . S
H1891 C1900 0.930 . S
H1892 C1905 0.929 . S
H1893 C1903 0.929 . S
H1894 C1898 0.929 . S
H1895 C1904 0.929 . S
C1896 H1890 0.930 . S
C1896 C1897 1.367 . S
C1896 C1904 1.378 . S
C1897 C1896 1.367 . S
C1897 C1905 1.433 . S
C1898 H1894 0.929 . S
C1898 C1900 1.378 . S
C1898 C1902 1.350 . S
C1899 C1902 1.463 . S
C1899 C1904 1.350 . S
C1899 N1907 1.427 . S
C1900 H1891 0.930 . S
C1900 C1898 1.378 . S
C1900 C1901 1.367 . S
C1901 C1900 1.367 . S
C1901 C1903 1.433 . S
C1902 C1898 1.350 . S
C1902 C1899 1.463 . S
C1902 N1906 1.427 . S
C1903 H1893 0.929 . S
C1903 C1901 1.433 . S
C1903 N1906 1.384 . S
C1904 H1895 0.929 . S
C1904 C1896 1.378 . S
C1904 C1899 1.350 . S
C1905 H1892 0.929 . S
C1905 C1897 1.433 . S
C1905 N1907 1.384 . S
N1906 C1902 1.427 . S
N1906 C1903 1.384 . S
N1907 C1899 1.427 . S
N1907 C1905 1.384 . S
H1908 C1914 0.930 . S
H1909 C1918 0.930 . S
H1910 C1923 0.929 . S
H1911 C1921 0.929 . S
H1912 C1916 0.929 . S
H1913 C1922 0.929 . S
C1914 H1908 0.930 . S
C1914 C1915 1.367 . S
C1914 C1922 1.378 . S
C1915 C1914 1.367 . S
C1915 C1923 1.433 . S
C1916 H1912 0.929 . S
C1916 C1918 1.378 . S
C1916 C1920 1.350 . S
C1917 C1920 1.463 . S
C1917 C1922 1.350 . S
C1917 N1925 1.427 . S
C1918 H1909 0.930 . S
C1918 C1916 1.378 . S
C1918 C1919 1.367 . S
C1919 C1918 1.367 . S
C1919 C1921 1.433 . S
C1920 C1916 1.350 . S
C1920 C1917 1.463 . S
C1920 N1924 1.427 . S
C1921 H1911 0.929 . S
C1921 C1919 1.433 . S
C1921 N1924 1.384 . S
C1922 H1913 0.929 . S
C1922 C1914 1.378 . S
C1922 C1917 1.350 . S
C1923 H1910 0.929 . S
C1923 C1915 1.433 . S
C1923 N1925 1.384 . S
N1924 C1920 1.427 . S
N1924 C1921 1.384 . S
N1925 C1917 1.427 . S
N1925 C1923 1.384 . S
H1926 C1932 0.930 . S
H1927 C1936 0.930 . S
H1928 C1941 0.929 . S
H1929 C1939 0.929 . S
H1930 C1934 0.929 . S
H1931 C1940 0.929 . S
C1932 H1926 0.930 . S
C1932 C1933 1.367 . S
C1932 C1940 1.378 . S
C1933 C1932 1.367 . S
C1933 C1941 1.433 . S
C1934 H1930 0.929 . S
C1934 C1936 1.378 . S
C1934 C1938 1.350 . S
C1935 C1938 1.463 . S
C1935 C1940 1.350 . S
C1935 N1943 1.427 . S
C1936 H1927 0.930 . S
C1936 C1934 1.378 . S
C1936 C1937 1.367 . S
C1937 C1936 1.367 . S
C1937 C1939 1.433 . S
C1938 C1934 1.350 . S
C1938 C1935 1.463 . S
C1938 N1942 1.427 . S
C1939 H1929 0.929 . S
C1939 C1937 1.433 . S
C1939 N1942 1.384 . S
C1940 H1931 0.929 . S
C1940 C1932 1.378 . S
C1940 C1935 1.350 . S
C1941 H1928 0.929 . S
C1941 C1933 1.433 . S
C1941 N1943 1.384 . S
N1942 C1938 1.427 . S
N1942 C1939 1.384 . S
N1943 C1935 1.427 . S
N1943 C1941 1.384 . S
H1944 C1950 0.930 . S
H1945 C1954 0.930 . S
H1946 C1959 0.929 . S
H1947 C1957 0.929 . S
H1948 C1952 0.929 . S
H1949 C1958 0.929 . S
C1950 H1944 0.930 . S
C1950 C1951 1.367 . S
C1950 C1958 1.378 . S
C1951 C1950 1.367 . S
C1951 C1959 1.433 . S
C1952 H1948 0.929 . S
C1952 C1954 1.378 . S
C1952 C1956 1.350 . S
C1953 C1956 1.463 . S
C1953 C1958 1.350 . S
C1953 N1961 1.427 . S
C1954 H1945 0.930 . S
C1954 C1952 1.378 . S
C1954 C1955 1.367 . S
C1955 C1954 1.367 . S
C1955 C1957 1.433 . S
C1956 C1952 1.350 . S
C1956 C1953 1.463 . S
C1956 N1960 1.427 . S
C1957 H1947 0.929 . S
C1957 C1955 1.433 . S
C1957 N1960 1.384 . S
C1958 H1949 0.929 . S
C1958 C1950 1.378 . S
C1958 C1953 1.350 . S
C1959 H1946 0.929 . S
C1959 C1951 1.433 . S
C1959 N1961 1.384 . S
N1960 C1956 1.427 . S
N1960 C1957 1.384 . S
N1961 C1953 1.427 . S
N1961 C1959 1.384 . S
H1962 C1968 0.930 . S
H1963 C1972 0.930 . S
H1964 C1977 0.929 . S
H1965 C1975 0.929 . S
H1966 C1970 0.929 . S
H1967 C1976 0.929 . S
C1968 H1962 0.930 . S
C1968 C1969 1.367 . S
C1968 C1976 1.378 . S
C1969 C1968 1.367 . S
C1969 C1977 1.433 . S
C1970 H1966 0.929 . S
C1970 C1972 1.378 . S
C1970 C1974 1.350 . S
C1971 C1974 1.463 1_655 S
C1971 C1976 1.350 . S
C1971 N1979 1.427 . S
C1972 H1963 0.930 . S
C1972 C1970 1.378 . S
C1972 C1973 1.367 . S
C1973 C1972 1.367 . S
C1973 C1975 1.433 . S
C1974 C1970 1.350 . S
C1974 C1971 1.463 1_455 S
C1974 N1978 1.427 . S
C1975 H1965 0.929 . S
C1975 C1973 1.433 . S
C1975 N1978 1.384 . S
C1976 H1967 0.929 . S
C1976 C1968 1.378 . S
C1976 C1971 1.350 . S
C1977 H1964 0.929 . S
C1977 C1969 1.433 . S
C1977 N1979 1.384 . S
N1978 C1974 1.427 . S
N1978 C1975 1.384 . S
N1979 C1971 1.427 . S
N1979 C1977 1.384 . S
H1980 C1986 0.930 . S
H1981 C1990 0.930 . S
H1982 C1995 0.929 . S
H1983 C1993 0.929 . S
H1984 C1988 0.929 . S
H1985 C1994 0.929 . S
C1986 H1980 0.930 . S
C1986 C1987 1.367 . S
C1986 C1994 1.378 . S
C1987 C1986 1.367 . S
C1987 C1995 1.433 . S
C1988 H1984 0.929 . S
C1988 C1990 1.378 . S
C1988 C1992 1.350 . S
C1989 C1992 1.463 1_655 S
C1989 C1994 1.350 . S
C1989 N1997 1.427 . S
C1990 H1981 0.930 . S
C1990 C1988 1.378 . S
C1990 C1991 1.367 . S
C1991 C1990 1.367 . S
C1991 C1993 1.433 . S
C1992 C1988 1.350 . S
C1992 C1989 1.463 1_455 S
C1992 N1996 1.427 . S
C1993 H1983 0.929 . S
C1993 C1991 1.433 . S
C1993 N1996 1.384 . S
C1994 H1985 0.929 . S
C1994 C1986 1.378 . S
C1994 C1989 1.350 . S
C1995 H1982 0.929 . S
C1995 C1987 1.433 . S
C1995 N1997 1.384 . S
N1996 C1992 1.427 . S
N1996 C1993 1.384 . S
N1997 C1989 1.427 . S
N1997 C1995 1.384 . S
H1998 C2004 0.930 . S
H1999 C2008 0.930 . S
H2000 C2013 0.929 . S
H2001 C2011 0.929 . S
H2002 C2006 0.929 . S
H2003 C2012 0.929 . S
C2004 H1998 0.930 . S
C2004 C2005 1.367 . S
C2004 C2012 1.378 . S
C2005 C2004 1.367 . S
C2005 C2013 1.433 . S
C2006 H2002 0.929 . S
C2006 C2008 1.378 . S
C2006 C2010 1.350 . S
C2007 C2010 1.463 . S
C2007 C2012 1.350 . S
C2007 N2015 1.427 . S
C2008 H1999 0.930 . S
C2008 C2006 1.378 . S
C2008 C2009 1.367 . S
C2009 C2008 1.367 . S
C2009 C2011 1.433 . S
C2010 C2006 1.350 . S
C2010 C2007 1.463 . S
C2010 N2014 1.427 . S
C2011 H2001 0.929 . S
C2011 C2009 1.433 . S
C2011 N2014 1.384 . S
C2012 H2003 0.929 . S
C2012 C2004 1.378 . S
C2012 C2007 1.350 . S
C2013 H2000 0.929 . S
C2013 C2005 1.433 . S
C2013 N2015 1.384 . S
N2014 C2010 1.427 . S
N2014 C2011 1.384 . S
N2015 C2007 1.427 . S
N2015 C2013 1.384 . S
H2016 C2022 0.930 . S
H2017 C2026 0.930 . S
H2018 C2031 0.929 . S
H2019 C2029 0.929 . S
H2020 C2024 0.929 . S
H2021 C2030 0.929 . S
C2022 H2016 0.930 . S
C2022 C2023 1.367 . S
C2022 C2030 1.378 . S
C2023 C2022 1.367 . S
C2023 C2031 1.433 . S
C2024 H2020 0.929 . S
C2024 C2026 1.378 . S
C2024 C2028 1.350 . S
C2025 C2028 1.463 . S
C2025 C2030 1.350 . S
C2025 N2033 1.427 . S
C2026 H2017 0.930 . S
C2026 C2024 1.378 . S
C2026 C2027 1.367 . S
C2027 C2026 1.367 . S
C2027 C2029 1.433 . S
C2028 C2024 1.350 . S
C2028 C2025 1.463 . S
C2028 N2032 1.427 . S
C2029 H2019 0.929 . S
C2029 C2027 1.433 . S
C2029 N2032 1.384 . S
C2030 H2021 0.929 . S
C2030 C2022 1.378 . S
C2030 C2025 1.350 . S
C2031 H2018 0.929 . S
C2031 C2023 1.433 . S
C2031 N2033 1.384 . S
N2032 C2028 1.427 . S
N2032 C2029 1.384 . S
N2033 C2025 1.427 . S
N2033 C2031 1.384 . S
H2034 C2040 0.930 . S
H2035 C2044 0.930 . S
H2036 C2049 0.929 . S
H2037 C2047 0.929 1_565 S
H2038 C2042 0.929 . S
H2039 C2048 0.929 . S
C2040 H2034 0.930 . S
C2040 C2041 1.367 . S
C2040 C2048 1.378 . S
C2041 C2040 1.367 . S
C2041 C2049 1.433 . S
C2042 H2038 0.929 . S
C2042 C2044 1.378 . S
C2042 C2046 1.350 . S
C2043 C2046 1.463 1_565 S
C2043 C2048 1.350 . S
C2043 N2051 1.427 1_565 S
C2044 H2035 0.930 . S
C2044 C2042 1.378 . S
C2044 C2045 1.367 . S
C2045 C2044 1.367 . S
C2045 C2047 1.433 . S
C2046 C2042 1.350 . S
C2046 C2043 1.463 1_545 S
C2046 N2050 1.427 1_545 S
C2047 H2037 0.929 1_545 S
C2047 C2045 1.433 . S
C2047 N2050 1.384 1_545 S
C2048 H2039 0.929 . S
C2048 C2040 1.378 . S
C2048 C2043 1.350 . S
C2049 H2036 0.929 . S
C2049 C2041 1.433 . S
C2049 N2051 1.384 1_565 S
N2050 C2046 1.427 1_565 S
N2050 C2047 1.384 1_565 S
N2051 C2043 1.427 1_545 S
N2051 C2049 1.384 1_545 S
H2052 C2058 0.930 . S
H2053 C2062 0.930 . S
H2054 C2067 0.929 . S
H2055 C2065 0.929 . S
H2056 C2060 0.929 . S
H2057 C2066 0.929 . S
C2058 H2052 0.930 . S
C2058 C2059 1.367 . S
C2058 C2066 1.378 . S
C2059 C2058 1.367 . S
C2059 C2067 1.433 . S
C2060 H2056 0.929 . S
C2060 C2062 1.378 . S
C2060 C2064 1.350 . S
C2061 C2064 1.463 . S
C2061 C2066 1.350 . S
C2061 N2069 1.427 . S
C2062 H2053 0.930 . S
C2062 C2060 1.378 . S
C2062 C2063 1.367 . S
C2063 C2062 1.367 . S
C2063 C2065 1.433 . S
C2064 C2060 1.350 . S
C2064 C2061 1.463 . S
C2064 N2068 1.427 . S
C2065 H2055 0.929 . S
C2065 C2063 1.433 . S
C2065 N2068 1.384 . S
C2066 H2057 0.929 . S
C2066 C2058 1.378 . S
C2066 C2061 1.350 . S
C2067 H2054 0.929 . S
C2067 C2059 1.433 . S
C2067 N2069 1.384 . S
N2068 C2064 1.427 . S
N2068 C2065 1.384 . S
N2069 C2061 1.427 . S
N2069 C2067 1.384 . S
H2070 C2076 0.929 1_565 S
H2071 C2080 0.930 . S
H2072 C2085 0.929 . S
H2073 C2083 0.929 . S
H2074 C2078 0.944 . S
H2075 C2084 0.929 . S
C2076 H2070 0.929 1_545 S
C2076 C2077 1.367 . S
C2076 C2084 1.378 1_546 S
C2077 C2076 1.367 . S
C2077 C2085 1.433 1_556 S
C2078 H2074 0.944 . S
C2078 C2080 1.369 1_545 S
C2078 C2082 1.343 1_545 S
C2079 C2082 1.463 1_545 S
C2079 C2084 1.350 1_545 S
C2079 N2087 1.427 . S
C2080 H2071 0.930 . S
C2080 C2078 1.369 1_565 S
C2080 C2081 1.367 . S
C2081 C2080 1.367 . S
C2081 C2083 1.433 . S
C2082 C2078 1.343 1_565 S
C2082 C2079 1.463 1_565 S
C2082 N2086 1.427 . S
C2083 H2073 0.929 . S
C2083 C2081 1.433 . S
C2083 N2086 1.384 . S
C2084 H2075 0.929 . S
C2084 C2076 1.378 1_564 S
C2084 C2079 1.350 1_565 S
C2085 H2072 0.929 . S
C2085 C2077 1.433 1_554 S
C2085 N2087 1.384 . S
N2086 C2082 1.427 . S
N2086 C2083 1.384 . S
N2087 C2079 1.427 . S
N2087 C2085 1.384 . S
H2088 C2094 0.930 . S
H2089 C2098 0.930 . S
H2090 C2103 0.929 . S
H2091 C2101 0.929 . S
H2092 C2096 0.929 . S
H2093 C2102 0.929 . S
C2094 H2088 0.930 . S
C2094 C2095 1.367 . S
C2094 C2102 1.378 . S
C2095 C2094 1.367 . S
C2095 C2103 1.433 . S
C2096 H2092 0.929 . S
C2096 C2098 1.378 . S
C2096 C2100 1.350 . S
C2097 C2100 1.463 . S
C2097 C2102 1.350 . S
C2097 N2105 1.427 . S
C2098 H2089 0.930 . S
C2098 C2096 1.378 . S
C2098 C2099 1.367 . S
C2099 C2098 1.367 . S
C2099 C2101 1.433 . S
C2100 C2096 1.350 . S
C2100 C2097 1.463 . S
C2100 N2104 1.427 . S
C2101 H2091 0.929 . S
C2101 C2099 1.433 . S
C2101 N2104 1.384 . S
C2102 H2093 0.929 . S
C2102 C2094 1.378 . S
C2102 C2097 1.350 . S
C2103 H2090 0.929 . S
C2103 C2095 1.433 . S
C2103 N2105 1.384 . S
N2104 C2100 1.427 . S
N2104 C2101 1.384 . S
N2105 C2097 1.427 . S
N2105 C2103 1.384 . S
H2106 C2112 0.930 1_565 S
H2107 C2116 0.925 1_545 S
H2108 C2121 0.929 . S
H2109 C2119 0.929 . S
H2110 C2114 0.929 . S
H2111 C2120 0.929 . S
C2112 H2106 0.930 1_545 S
C2112 C2113 1.367 . S
C2112 C2120 1.378 1_545 S
C2113 C2112 1.367 . S
C2113 C2121 1.433 . S
C2114 H2110 0.929 . S
C2114 C2116 1.378 1_545 S
C2114 C2118 1.350 1_545 S
C2115 C2118 1.463 1_545 S
C2115 C2120 1.350 1_545 S
C2115 N2123 1.427 . S
C2116 H2107 0.925 1_565 S
C2116 C2114 1.378 1_565 S
C2116 C2117 1.367 . S
C2117 C2116 1.367 . S
C2117 C2119 1.433 . S
C2118 C2114 1.350 1_565 S
C2118 C2115 1.463 1_565 S
C2118 N2122 1.427 . S
C2119 H2109 0.929 . S
C2119 C2117 1.433 . S
C2119 N2122 1.384 . S
C2120 H2111 0.929 . S
C2120 C2112 1.378 1_565 S
C2120 C2115 1.350 1_565 S
C2121 H2108 0.929 . S
C2121 C2113 1.433 . S
C2121 N2123 1.384 . S
N2122 C2118 1.427 . S
N2122 C2119 1.384 . S
N2123 C2115 1.427 . S
N2123 C2121 1.384 . S
H2124 C2130 0.930 . S
H2125 C2134 0.930 . S
H2126 C2139 0.929 . S
H2127 C2137 0.929 . S
H2128 C2132 0.929 . S
H2129 C2138 0.929 . S
C2130 H2124 0.930 . S
C2130 C2131 1.367 . S
C2130 C2138 1.378 . S
C2131 C2130 1.367 . S
C2131 C2139 1.433 . S
C2132 H2128 0.929 . S
C2132 C2134 1.378 . S
C2132 C2136 1.350 . S
C2133 C2136 1.463 . S
C2133 C2138 1.350 . S
C2133 N2141 1.427 . S
C2134 H2125 0.930 . S
C2134 C2132 1.378 . S
C2134 C2135 1.367 . S
C2135 C2134 1.367 . S
C2135 C2137 1.433 . S
C2136 C2132 1.350 . S
C2136 C2133 1.463 . S
C2136 N2140 1.427 . S
C2137 H2127 0.929 . S
C2137 C2135 1.433 . S
C2137 N2140 1.384 . S
C2138 H2129 0.929 . S
C2138 C2130 1.378 . S
C2138 C2133 1.350 . S
C2139 H2126 0.929 . S
C2139 C2131 1.433 . S
C2139 N2141 1.384 . S
N2140 C2136 1.427 . S
N2140 C2137 1.384 . S
N2141 C2133 1.427 . S
N2141 C2139 1.384 . S
H2142 C2148 0.930 . S
H2143 C2152 0.933 1_565 S
H2144 C2157 0.929 . S
H2145 C2155 0.929 . S
H2146 C2150 0.929 . S
H2147 C2156 0.938 . S
C2148 H2142 0.930 . S
C2148 C2149 1.367 . S
C2148 C2156 1.372 1_565 S
C2149 C2148 1.367 . S
C2149 C2157 1.433 . S
C2150 H2146 0.929 . S
C2150 C2152 1.378 1_564 S
C2150 C2154 1.350 1_565 S
C2151 C2154 1.463 1_565 S
C2151 C2156 1.346 1_565 S
C2151 N2159 1.427 . S
C2152 H2143 0.933 1_545 S
C2152 C2150 1.378 1_546 S
C2152 C2153 1.367 . S
C2153 C2152 1.367 . S
C2153 C2155 1.433 1_556 S
C2154 C2150 1.350 1_545 S
C2154 C2151 1.463 1_545 S
C2154 N2158 1.427 . S
C2155 H2145 0.929 . S
C2155 C2153 1.433 1_554 S
C2155 N2158 1.384 . S
C2156 H2147 0.938 . S
C2156 C2148 1.372 1_545 S
C2156 C2151 1.346 1_545 S
C2157 H2144 0.929 . S
C2157 C2149 1.433 . S
C2157 N2159 1.384 . S
N2158 C2154 1.427 . S
N2158 C2155 1.384 . S
N2159 C2151 1.427 . S
N2159 C2157 1.384 . S
H2160 C2166 0.930 . S
H2161 C2170 0.930 . S
H2162 C2175 0.929 . S
H2163 C2173 0.929 . S
H2164 C2168 0.929 . S
H2165 C2174 0.929 . S
C2166 H2160 0.930 . S
C2166 C2167 1.367 . S
C2166 C2174 1.378 . S
C2167 C2166 1.367 . S
C2167 C2175 1.433 . S
C2168 H2164 0.929 . S
C2168 C2170 1.378 . S
C2168 C2172 1.350 . S
C2169 C2172 1.463 . S
C2169 C2174 1.350 . S
C2169 N2177 1.427 . S
C2170 H2161 0.930 . S
C2170 C2168 1.378 . S
C2170 C2171 1.367 . S
C2171 C2170 1.367 . S
C2171 C2173 1.433 . S
C2172 C2168 1.350 . S
C2172 C2169 1.463 . S
C2172 N2176 1.427 . S
C2173 H2163 0.929 . S
C2173 C2171 1.433 . S
C2173 N2176 1.384 . S
C2174 H2165 0.929 . S
C2174 C2166 1.378 . S
C2174 C2169 1.350 . S
C2175 H2162 0.929 . S
C2175 C2167 1.433 . S
C2175 N2177 1.384 . S
N2176 C2172 1.427 . S
N2176 C2173 1.384 . S
N2177 C2169 1.427 . S
N2177 C2175 1.384 . S
H2178 C2184 0.930 . S
H2179 C2188 0.930 . S
H2180 C2193 0.929 . S
H2181 C2191 0.929 . S
H2182 C2186 0.929 . S
H2183 C2192 0.929 . S
C2184 H2178 0.930 . S
C2184 C2185 1.367 . S
C2184 C2192 1.378 . S
C2185 C2184 1.367 . S
C2185 C2193 1.433 . S
C2186 H2182 0.929 . S
C2186 C2188 1.378 . S
C2186 C2190 1.350 . S
C2187 C2190 1.463 . S
C2187 C2192 1.350 . S
C2187 N2195 1.427 . S
C2188 H2179 0.930 . S
C2188 C2186 1.378 . S
C2188 C2189 1.367 1_554 S
C2189 C2188 1.367 1_556 S
C2189 C2191 1.433 . S
C2190 C2186 1.350 . S
C2190 C2187 1.463 . S
C2190 N2194 1.427 . S
C2191 H2181 0.929 . S
C2191 C2189 1.433 . S
C2191 N2194 1.384 1_556 S
C2192 H2183 0.929 . S
C2192 C2184 1.378 . S
C2192 C2187 1.350 . S
C2193 H2180 0.929 . S
C2193 C2185 1.433 . S
C2193 N2195 1.384 . S
N2194 C2190 1.427 . S
N2194 C2191 1.384 1_554 S
N2195 C2187 1.427 . S
N2195 C2193 1.384 . S
H2196 C2202 0.930 . S
H2197 C2206 0.930 . S
H2198 C2211 0.929 . S
H2199 C2209 0.929 . S
H2200 C2204 0.929 . S
H2201 C2210 0.929 . S
C2202 H2196 0.930 . S
C2202 C2203 1.367 . S
C2202 C2210 1.378 . S
C2203 C2202 1.367 . S
C2203 C2211 1.433 . S
C2204 H2200 0.929 . S
C2204 C2206 1.378 . S
C2204 C2208 1.350 . S
C2205 C2208 1.463 . S
C2205 C2210 1.350 . S
C2205 N2213 1.427 . S
C2206 H2197 0.930 . S
C2206 C2204 1.378 . S
C2206 C2207 1.367 . S
C2207 C2206 1.367 . S
C2207 C2209 1.433 . S
C2208 C2204 1.350 . S
C2208 C2205 1.463 . S
C2208 N2212 1.427 . S
C2209 H2199 0.929 . S
C2209 C2207 1.433 . S
C2209 N2212 1.384 . S
C2210 H2201 0.929 . S
C2210 C2202 1.378 . S
C2210 C2205 1.350 . S
C2211 H2198 0.929 . S
C2211 C2203 1.433 . S
C2211 N2213 1.384 . S
N2212 C2208 1.427 . S
N2212 C2209 1.384 . S
N2213 C2205 1.427 . S
N2213 C2211 1.384 . S
H2214 C2220 0.930 . S
H2215 C2224 0.930 . S
H2216 C2229 0.929 . S
H2217 C2227 0.929 . S
H2218 C2222 0.929 . S
H2219 C2228 0.929 . S
C2220 H2214 0.930 . S
C2220 C2221 1.367 . S
C2220 C2228 1.378 . S
C2221 C2220 1.367 . S
C2221 C2229 1.433 . S
C2222 H2218 0.929 . S
C2222 C2224 1.378 . S
C2222 C2226 1.350 . S
C2223 C2226 1.463 . S
C2223 C2228 1.350 . S
C2223 N2231 1.427 . S
C2224 H2215 0.930 . S
C2224 C2222 1.378 . S
C2224 C2225 1.367 . S
C2225 C2224 1.367 . S
C2225 C2227 1.433 . S
C2226 C2222 1.350 . S
C2226 C2223 1.463 . S
C2226 N2230 1.427 . S
C2227 H2217 0.929 . S
C2227 C2225 1.433 . S
C2227 N2230 1.384 . S
C2228 H2219 0.929 . S
C2228 C2220 1.378 . S
C2228 C2223 1.350 . S
C2229 H2216 0.929 . S
C2229 C2221 1.433 . S
C2229 N2231 1.384 . S
N2230 C2226 1.427 . S
N2230 C2227 1.384 . S
N2231 C2223 1.427 . S
N2231 C2229 1.384 . S
H2232 C2238 0.930 . S
H2233 C2242 0.930 . S
H2234 C2247 0.929 . S
H2235 C2245 0.929 . S
H2236 C2240 0.929 . S
H2237 C2246 0.929 . S
C2238 H2232 0.930 . S
C2238 C2239 1.367 . S
C2238 C2246 1.378 . S
C2239 C2238 1.367 . S
C2239 C2247 1.433 . S
C2240 H2236 0.929 . S
C2240 C2242 1.378 . S
C2240 C2244 1.350 . S
C2241 C2244 1.463 . S
C2241 C2246 1.350 . S
C2241 N2249 1.427 . S
C2242 H2233 0.930 . S
C2242 C2240 1.378 . S
C2242 C2243 1.367 . S
C2243 C2242 1.367 . S
C2243 C2245 1.433 . S
C2244 C2240 1.350 . S
C2244 C2241 1.463 . S
C2244 N2248 1.427 . S
C2245 H2235 0.929 . S
C2245 C2243 1.433 . S
C2245 N2248 1.384 . S
C2246 H2237 0.929 . S
C2246 C2238 1.378 . S
C2246 C2241 1.350 . S
C2247 H2234 0.929 . S
C2247 C2239 1.433 . S
C2247 N2249 1.384 . S
N2248 C2244 1.427 . S
N2248 C2245 1.384 . S
N2249 C2241 1.427 . S
N2249 C2247 1.384 . S
H2250 C2256 0.930 . S
H2251 C2260 0.930 . S
H2252 C2265 0.929 1_556 S
H2253 C2263 0.929 . S
H2254 C2258 0.929 . S
H2255 C2264 0.929 . S
C2256 H2250 0.930 . S
C2256 C2257 1.367 . S
C2256 C2264 1.378 1_556 S
C2257 C2256 1.367 . S
C2257 C2265 1.433 1_556 S
C2258 H2254 0.929 . S
C2258 C2260 1.378 . S
C2258 C2262 1.350 . S
C2259 C2262 1.463 . S
C2259 C2264 1.350 . S
C2259 N2267 1.427 . S
C2260 H2251 0.930 . S
C2260 C2258 1.378 . S
C2260 C2261 1.367 . S
C2261 C2260 1.367 . S
C2261 C2263 1.433 . S
C2262 C2258 1.350 . S
C2262 C2259 1.463 . S
C2262 N2266 1.427 . S
C2263 H2253 0.929 . S
C2263 C2261 1.433 . S
C2263 N2266 1.384 . S
C2264 H2255 0.929 . S
C2264 C2256 1.378 1_554 S
C2264 C2259 1.350 . S
C2265 H2252 0.929 1_554 S
C2265 C2257 1.433 1_554 S
C2265 N2267 1.384 . S
N2266 C2262 1.427 . S
N2266 C2263 1.384 . S
N2267 C2259 1.427 . S
N2267 C2265 1.384 . S
H2268 C2274 0.930 . S
H2269 C2278 0.930 . S
H2270 C2283 0.929 . S
H2271 C2281 0.929 . S
H2272 C2276 0.929 . S
H2273 C2282 0.929 . S
C2274 H2268 0.930 . S
C2274 C2275 1.367 . S
C2274 C2282 1.378 . S
C2275 C2274 1.367 . S
C2275 C2283 1.433 . S
C2276 H2272 0.929 . S
C2276 C2278 1.378 . S
C2276 C2280 1.350 . S
C2277 C2280 1.463 . S
C2277 C2282 1.350 . S
C2277 N2285 1.427 . S
C2278 H2269 0.930 . S
C2278 C2276 1.378 . S
C2278 C2279 1.367 . S
C2279 C2278 1.367 . S
C2279 C2281 1.433 . S
C2280 C2276 1.350 . S
C2280 C2277 1.463 . S
C2280 N2284 1.427 . S
C2281 H2271 0.929 . S
C2281 C2279 1.433 . S
C2281 N2284 1.384 . S
C2282 H2273 0.929 . S
C2282 C2274 1.378 . S
C2282 C2277 1.350 . S
C2283 H2270 0.929 . S
C2283 C2275 1.433 . S
C2283 N2285 1.384 . S
N2284 C2280 1.427 . S
N2284 C2281 1.384 . S
N2285 C2277 1.427 . S
N2285 C2283 1.384 . S
H2286 C2292 0.930 . S
H2287 C2296 0.930 . S
H2288 C2301 0.929 . S
H2289 C2299 0.929 . S
H2290 C2294 0.929 . S
H2291 C2300 0.929 . S
C2292 H2286 0.930 . S
C2292 C2293 1.367 . S
C2292 C2300 1.378 . S
C2293 C2292 1.367 . S
C2293 C2301 1.433 . S
C2294 H2290 0.929 . S
C2294 C2296 1.378 . S
C2294 C2298 1.350 . S
C2295 C2298 1.463 . S
C2295 C2300 1.350 . S
C2295 N2303 1.427 . S
C2296 H2287 0.930 . S
C2296 C2294 1.378 . S
C2296 C2297 1.367 . S
C2297 C2296 1.367 . S
C2297 C2299 1.433 . S
C2298 C2294 1.350 . S
C2298 C2295 1.463 . S
C2298 N2302 1.427 . S
C2299 H2289 0.929 . S
C2299 C2297 1.433 . S
C2299 N2302 1.384 . S
C2300 H2291 0.929 . S
C2300 C2292 1.378 . S
C2300 C2295 1.350 . S
C2301 H2288 0.929 . S
C2301 C2293 1.433 . S
C2301 N2303 1.384 . S
N2302 C2298 1.427 . S
N2302 C2299 1.384 . S
N2303 C2295 1.427 . S
N2303 C2301 1.384 . S
C1159 C255 1.464 . S
C1163 C3 1.462 . S
C1177 C39 1.470 . S
C1181 C147 1.469 . S
C1195 C183 1.464 . S
C1199 C75 1.465 . S
C1213 C111 1.469 . S
C1217 C219 1.468 . S
C1231 C291 1.467 . S
C1235 C543 1.465 . S
C1249 C327 1.471 . S
C1253 C435 1.471 . S
C1267 C363 1.469 . S
C1271 C471 1.468 . S
C1285 C399 1.471 . S
C1289 C507 1.471 . S
C1303 C579 1.463 . S
C1307 C831 1.464 . S
C1321 C615 1.463 . S
C1325 C723 1.462 . S
C1339 C759 1.463 . S
C1343 C651 1.462 . S
C1357 C795 1.462 . S
C1361 C687 1.462 . S
C1375 C867 1.466 . S
C1379 C1119 1.464 . S
C1393 C1011 1.463 . S
C1397 C903 1.464 . S
C1411 C1047 1.470 . S
C1415 C939 1.470 . S
C1429 C975 1.471 . S
C1433 C1083 1.471 . S
C1447 C2 0.695 . S
C1451 C218 0.688 . S
C1465 C38 0.711 . S
C1469 C254 0.702 . S
C1483 C146 0.710 . S
C1487 C74 0.702 . S
C1501 C110 0.688 . S
C1505 C182 0.697 . S
C1519 C290 0.688 . S
C1523 C506 0.694 . S
C1537 C326 0.701 . S
C1541 C542 0.711 . S
C1555 C434 0.709 . S
C1559 C362 0.710 . S
C1573 C470 0.707 . S
C1577 C398 0.710 . S
C1591 C578 0.697 . S
C1595 C794 0.709 . S
C1609 C830 0.710 . S
C1613 C614 0.702 . S
C1627 C722 0.691 . S
C1631 C650 0.690 . S
C1645 C686 0.689 . S
C1649 C758 0.699 . S
C1663 C866 0.705 . S
C1667 C1082 0.693 . S
C1681 C902 0.697 . S
C1685 C1118 0.688 . S
C1699 C1010 0.690 . S
C1703 C938 0.700 . S
C1717 C1046 0.695 . S
C1721 C974 0.688 . S
C1735 C4 1.488 . S
C1739 C1084 1.487 . S
C1753 C40 1.490 . S
C1757 C544 1.486 . S
C1771 C76 1.485 . S
C1775 C1012 1.489 . S
C1789 C112 1.484 . S
C1793 C472 1.491 . S
C1807 C148 1.486 . S
C1811 C940 1.489 . S
C1825 C184 1.490 . S
C1829 C400 1.486 . S
C1843 C220 1.486 . S
C1847 C868 1.490 . S
C1861 C328 1.492 . S
C1865 C256 1.483 . S
C1879 C796 1.489 . S
C1883 C292 1.487 . S
C1897 C364 1.492 . S
C1901 C724 1.484 . S
C1915 C652 1.484 . S
C1919 C436 1.492 . S
C1933 C580 1.486 . S
C1937 C508 1.489 . S
C1951 C616 1.491 . S
C1955 C1120 1.484 . S
C1969 C688 1.492 . S
C1973 C1048 1.484 . S
C1987 C760 1.489 . S
C1991 C976 1.486 . S
C2005 C904 1.492 . S
C2009 C832 1.483 . S
C2023 C14 1.474 . S
C2027 C230 1.487 . S
C2041 C50 1.487 . S
C2045 C266 1.478 . S
C2059 C158 1.469 1_556 S
C2063 C86 1.476 . S
C2077 C122 1.468 . S
C2081 C194 1.478 . S
C2095 C302 1.486 1_556 S
C2099 C518 1.471 . S
C2113 C338 1.474 . S
C2117 C554 1.469 . S
C2131 C446 1.486 . S
C2135 C374 1.481 . S
C2149 C410 1.478 . S
C2153 C482 1.468 . S
C2167 C806 1.473 1_556 S
C2171 C590 1.487 . S
C2185 C842 1.487 . S
C2189 C626 1.477 . S
C2203 C734 1.470 . S
C2207 C662 1.485 . S
C2221 C770 1.487 . S
C2225 C698 1.474 . S
C2239 C1094 1.485 . S
C2243 C878 1.480 . S
C2257 C1130 1.480 . S
C2261 C914 1.468 . S
C2275 C950 1.487 1_556 S
C2279 C1022 1.476 . S
C2293 C1058 1.483 . S
C2297 C986 1.469 . S
