# Generated by pormake.
# Topology why, (6)-cn, num edge types: 1
# Building blocks:
#     Node 0, Type 0, BuildingBlock: BETDEL_clean_sbu_0, # of connection points: 6
#     Node 1, Type 0, BuildingBlock: BETDEL_clean_sbu_0, # of connection points: 6
#     Node 2, Type 0, BuildingBlock: BETDEL_clean_sbu_0, # of connection points: 6
#     Node 3, Type 0, BuildingBlock: BETDEL_clean_sbu_0, # of connection points: 6
#     Node 4, Type 0, BuildingBlock: BETDEL_clean_sbu_0, # of connection points: 6
#     Node 5, Type 0, BuildingBlock: BETDEL_clean_sbu_0, # of connection points: 6
#     Node 6, Type 0, BuildingBlock: BETDEL_clean_sbu_0, # of connection points: 6
#     Node 7, Type 0, BuildingBlock: BETDEL_clean_sbu_0, # of connection points: 6
#     Node 8, Type 0, BuildingBlock: BETDEL_clean_sbu_0, # of connection points: 6
#     Node 9, Type 0, BuildingBlock: BETDEL_clean_sbu_0, # of connection points: 6
#     Node 10, Type 0, BuildingBlock: BETDEL_clean_sbu_0, # of connection points: 6
#     Node 11, Type 0, BuildingBlock: BETDEL_clean_sbu_0, # of connection points: 6
#     Node 12, Type 0, BuildingBlock: BETDEL_clean_sbu_0, # of connection points: 6
#     Node 13, Type 0, BuildingBlock: BETDEL_clean_sbu_0, # of connection points: 6
#     Node 14, Type 0, BuildingBlock: BETDEL_clean_sbu_0, # of connection points: 6
#     Node 15, Type 0, BuildingBlock: BETDEL_clean_sbu_0, # of connection points: 6
#     Edge 16, Type (0, 0), BuildingBlock: AJUNOK_clean_linker_0, # of connection points: 2
#     Edge 17, Type (0, 0), BuildingBlock: AJUNOK_clean_linker_0, # of connection points: 2
#     Edge 18, Type (0, 0), BuildingBlock: AJUNOK_clean_linker_0, # of connection points: 2
#     Edge 19, Type (0, 0), BuildingBlock: AJUNOK_clean_linker_0, # of connection points: 2
#     Edge 20, Type (0, 0), BuildingBlock: AJUNOK_clean_linker_0, # of connection points: 2
#     Edge 21, Type (0, 0), BuildingBlock: AJUNOK_clean_linker_0, # of connection points: 2
#     Edge 22, Type (0, 0), BuildingBlock: AJUNOK_clean_linker_0, # of connection points: 2
#     Edge 23, Type (0, 0), BuildingBlock: AJUNOK_clean_linker_0, # of connection points: 2
#     Edge 24, Type (0, 0), BuildingBlock: AJUNOK_clean_linker_0, # of connection points: 2
#     Edge 25, Type (0, 0), BuildingBlock: AJUNOK_clean_linker_0, # of connection points: 2
#     Edge 26, Type (0, 0), BuildingBlock: AJUNOK_clean_linker_0, # of connection points: 2
#     Edge 27, Type (0, 0), BuildingBlock: AJUNOK_clean_linker_0, # of connection points: 2
#     Edge 28, Type (0, 0), BuildingBlock: AJUNOK_clean_linker_0, # of connection points: 2
#     Edge 29, Type (0, 0), BuildingBlock: AJUNOK_clean_linker_0, # of connection points: 2
#     Edge 30, Type (0, 0), BuildingBlock: AJUNOK_clean_linker_0, # of connection points: 2
#     Edge 31, Type (0, 0), BuildingBlock: AJUNOK_clean_linker_0, # of connection points: 2
#     Edge 32, Type (0, 0), BuildingBlock: AJUNOK_clean_linker_0, # of connection points: 2
#     Edge 33, Type (0, 0), BuildingBlock: AJUNOK_clean_linker_0, # of connection points: 2
#     Edge 34, Type (0, 0), BuildingBlock: AJUNOK_clean_linker_0, # of connection points: 2
#     Edge 35, Type (0, 0), BuildingBlock: AJUNOK_clean_linker_0, # of connection points: 2
#     Edge 36, Type (0, 0), BuildingBlock: AJUNOK_clean_linker_0, # of connection points: 2
#     Edge 37, Type (0, 0), BuildingBlock: AJUNOK_clean_linker_0, # of connection points: 2
#     Edge 38, Type (0, 0), BuildingBlock: AJUNOK_clean_linker_0, # of connection points: 2
#     Edge 39, Type (0, 0), BuildingBlock: AJUNOK_clean_linker_0, # of connection points: 2
#     Edge 40, Type (0, 0), BuildingBlock: AJUNOK_clean_linker_0, # of connection points: 2
#     Edge 41, Type (0, 0), BuildingBlock: AJUNOK_clean_linker_0, # of connection points: 2
#     Edge 42, Type (0, 0), BuildingBlock: AJUNOK_clean_linker_0, # of connection points: 2
#     Edge 43, Type (0, 0), BuildingBlock: AJUNOK_clean_linker_0, # of connection points: 2
#     Edge 44, Type (0, 0), BuildingBlock: AJUNOK_clean_linker_0, # of connection points: 2
#     Edge 45, Type (0, 0), BuildingBlock: AJUNOK_clean_linker_0, # of connection points: 2
#     Edge 46, Type (0, 0), BuildingBlock: AJUNOK_clean_linker_0, # of connection points: 2
#     Edge 47, Type (0, 0), BuildingBlock: AJUNOK_clean_linker_0, # of connection points: 2
#     Edge 48, Type (0, 0), BuildingBlock: AJUNOK_clean_linker_0, # of connection points: 2
#     Edge 49, Type (0, 0), BuildingBlock: AJUNOK_clean_linker_0, # of connection points: 2
#     Edge 50, Type (0, 0), BuildingBlock: AJUNOK_clean_linker_0, # of connection points: 2
#     Edge 51, Type (0, 0), BuildingBlock: AJUNOK_clean_linker_0, # of connection points: 2
#     Edge 52, Type (0, 0), BuildingBlock: AJUNOK_clean_linker_0, # of connection points: 2
#     Edge 53, Type (0, 0), BuildingBlock: AJUNOK_clean_linker_0, # of connection points: 2
#     Edge 54, Type (0, 0), BuildingBlock: AJUNOK_clean_linker_0, # of connection points: 2
#     Edge 55, Type (0, 0), BuildingBlock: AJUNOK_clean_linker_0, # of connection points: 2
#     Edge 56, Type (0, 0), BuildingBlock: AJUNOK_clean_linker_0, # of connection points: 2
#     Edge 57, Type (0, 0), BuildingBlock: AJUNOK_clean_linker_0, # of connection points: 2
#     Edge 58, Type (0, 0), BuildingBlock: AJUNOK_clean_linker_0, # of connection points: 2
#     Edge 59, Type (0, 0), BuildingBlock: AJUNOK_clean_linker_0, # of connection points: 2
#     Edge 60, Type (0, 0), BuildingBlock: AJUNOK_clean_linker_0, # of connection points: 2
#     Edge 61, Type (0, 0), BuildingBlock: AJUNOK_clean_linker_0, # of connection points: 2
#     Edge 62, Type (0, 0), BuildingBlock: AJUNOK_clean_linker_0, # of connection points: 2
#     Edge 63, Type (0, 0), BuildingBlock: AJUNOK_clean_linker_0, # of connection points: 2
# Relax obj value: 0.240
# Max RMSD: 0.177
# Mean RMSD: 0.177
data_MOF--net-why--node1-BETDEL_clean_sbu_0--edge1-AJUNOK_clean_linker_0
_symmetry_space_group_name_H-M    P1
_symmetry_Int_Tables_number       1
_symmetry_cell_setting            triclinic
loop_
_symmetry_equiv_pos_as_xyz
'x, y, z'
_cell_length_a     34.94679
_cell_length_b     34.952053
_cell_length_c     23.092817
_cell_angle_alpha  89.707277
_cell_angle_beta   89.966428
_cell_angle_gamma 90.145426
loop_
_atom_site_label
_atom_site_type_symbol
_atom_site_fract_x
_atom_site_fract_y
_atom_site_fract_z
_atom_type_partial_charge
Dy0 Dy 0.43647 0.17211 0.00133 0.0
C1 C 0.34207 0.24346 0.15865 0.0
C2 C 0.48312 0.15061 0.91271 0.0
Dy3 Dy 0.39429 0.21323 0.08524 0.0
O4 O 0.4462 0.15262 0.91036 0.0
O5 O 0.49463 0.15894 0.96451 0.0
O6 O 0.4196 0.11543 0.03626 0.0
O7 O 0.42783 0.15998 0.09578 0.0
C8 C 0.41672 0.12553 0.08987 0.0
C9 C 0.40919 0.25641 -0.00818 0.0
O10 O 0.45208 0.2376 0.1106 0.0
O11 O 0.47958 0.21753 0.02583 0.0
O12 O 0.33812 0.23991 0.10351 0.0
O13 O 0.37476 0.22929 0.17507 0.0
O14 O 0.40812 0.26972 0.04396 0.0
O15 O 0.40016 0.22166 -0.00793 0.0
O16 O 0.37857 0.16701 0.96046 0.0
O17 O 0.34643 0.17812 0.04505 0.0
C18 C 0.48103 0.23833 0.07348 0.0
C19 C 0.34622 0.16716 -0.00979 0.0
Dy20 Dy 0.66774 0.68451 0.249 0.0
C21 C 0.60083 0.59441 0.41819 0.0
C22 C 0.68692 0.72943 0.157 0.0
Dy23 Dy 0.62864 0.64445 0.33888 0.0
O24 O 0.69086 0.73917 0.21081 0.0
O25 O 0.67388 0.69483 0.15383 0.0
O26 O 0.72479 0.66607 0.28082 0.0
O27 O 0.68225 0.67758 0.3427 0.0
C28 C 0.71613 0.66538 0.33537 0.0
C29 C 0.58259 0.65865 0.24935 0.0
O30 O 0.60566 0.70308 0.36241 0.0
O31 O 0.62452 0.72899 0.27542 0.0
O32 O 0.60288 0.58873 0.36321 0.0
O33 O 0.61538 0.6276 0.43114 0.0
O34 O 0.5711 0.65839 0.30259 0.0
O35 O 0.6171 0.64888 0.24659 0.0
O36 O 0.67382 0.62617 0.21116 0.0
O37 O 0.66122 0.5954 0.29707 0.0
C38 C 0.60471 0.73149 0.32409 0.0
C39 C 0.67211 0.59427 0.24204 0.0
Dy40 Dy 0.15547 0.9165 0.49974 0.0
C41 C 0.24933 0.84408 0.65837 0.0
C42 C 0.11038 0.93726 0.40888 0.0
Dy43 Dy 0.19682 0.8752 0.58598 0.0
O44 O 0.14553 0.92608 0.40521 0.0
O45 O 0.10003 0.93849 0.46283 0.0
O46 O 0.17414 0.97289 0.53367 0.0
O47 O 0.16382 0.92874 0.59391 0.0
C48 C 0.1758 0.96288 0.5877 0.0
C49 C 0.17968 0.83113 0.49586 0.0
O50 O 0.13829 0.85267 0.6122 0.0
O51 O 0.11104 0.87321 0.52707 0.0
O52 O 0.25223 0.84669 0.60291 0.0
O53 O 0.2175 0.85965 0.67573 0.0
O54 O 0.18045 0.81883 0.54873 0.0
O55 O 0.19029 0.86553 0.49337 0.0
O56 O 0.21324 0.92292 0.45969 0.0
O57 O 0.24521 0.90913 0.54382 0.0
C58 C 0.10918 0.85268 0.57528 0.0
C59 C 0.2455 0.92115 0.48925 0.0
Dy60 Dy 0.92478 0.40341 0.75054 0.0
C61 C 0.99946 0.49774 0.90504 0.0
C62 C 0.90271 0.35932 0.65936 0.0
Dy63 Dy 0.96709 0.44526 0.83397 0.0
O64 O 0.90896 0.39575 0.65768 0.0
O65 O 0.90703 0.34685 0.712 0.0
O66 O 0.86859 0.42048 0.78699 0.0
O67 O 0.91389 0.41151 0.84527 0.0
C68 C 0.87947 0.42274 0.84042 0.0
C69 C 1.00962 0.42959 0.74077 0.0
O70 O 0.99053 0.38712 0.85966 0.0
O71 O 0.96931 0.3597 0.77539 0.0
O72 O 0.9958 0.50089 0.84976 0.0
O73 O 0.9842 0.46575 0.92297 0.0
O74 O 1.02293 0.43 0.793 0.0
O75 O 0.97502 0.43925 0.74089 0.0
O76 O 0.91881 0.46121 0.70987 0.0
O77 O 0.93198 0.49331 0.79353 0.0
C78 C 0.99043 0.35806 0.82289 0.0
C79 C 0.92038 0.49362 0.73886 0.0
Dy80 Dy 0.69778 0.8755 0.86786 0.0
C81 C 0.61206 0.93351 0.04904 0.0
C82 C 0.74852 0.84528 0.79208 0.0
Dy83 Dy 0.65512 0.91567 0.9547 0.0
O84 O 0.75274 0.84684 0.84747 0.0
O85 O 0.71665 0.86174 0.77687 0.0
O86 O 0.68289 0.81871 0.90747 0.0
O87 O 0.69155 0.86612 0.96035 0.0
C88 C 0.68215 0.83147 0.95991 0.0
C89 C 0.67633 0.96382 0.86895 0.0
O90 O 0.71356 0.92371 -0.00716 0.0
O91 O 0.74622 0.90884 0.90964 0.0
O92 O 0.64678 0.92092 0.05005 0.0
O93 O 0.60085 0.9377 -0.00425 0.0
O94 O 0.67273 0.9729 0.92302 0.0
O95 O 0.66482 0.92954 0.86103 0.0
O96 O 0.64015 0.85081 0.84334 0.0
O97 O 0.61003 0.87328 0.925 0.0
C98 C 0.74606 0.92156 0.96362 0.0
C99 C 0.60992 0.85158 0.87813 0.0
Dy100 Dy 0.46804 0.44679 0.62412 0.0
C101 C 0.40327 0.35568 0.792 0.0
C102 C 0.49954 0.49994 0.55304 0.0
Dy103 Dy 0.42575 0.40366 0.7053 0.0
O104 O 0.49655 0.50262 0.60846 0.0
O105 O 0.4842 0.46813 0.53521 0.0
O106 O 0.52406 0.43049 0.66384 0.0
O107 O 0.47641 0.43833 0.71691 0.0
C108 C 0.51095 0.42852 0.71614 0.0
C109 C 0.37986 0.42655 0.6181 0.0
O110 O 0.4211 0.46078 0.7486 0.0
O111 O 0.43346 0.49423 0.66544 0.0
O112 O 0.40857 0.39213 0.79705 0.0
O113 O 0.40864 0.34559 0.7387 0.0
O114 O 0.36963 0.42286 0.67169 0.0
O115 O 0.41398 0.41465 0.61147 0.0
O116 O 0.49229 0.38984 0.59656 0.0
O117 O 0.46835 0.3588 0.67668 0.0
C118 C 0.42237 0.49373 0.72023 0.0
C119 C 0.49032 0.35897 0.63001 0.0
Dy120 Dy 0.89887 0.21768 0.36518 0.0
C121 C 0.9813 0.15538 0.5451 0.0
C122 C 0.85425 0.24635 0.27855 0.0
Dy123 Dy 0.93633 0.17703 0.45447 0.0
O124 O 0.84968 0.213 0.30256 0.0
O125 O 0.88458 0.26238 0.29922 0.0
O126 O 0.90943 0.27476 0.40507 0.0
O127 O 0.90028 0.22742 0.45861 0.0
C128 C 0.90901 0.26231 0.45775 0.0
C129 C 0.92013 0.13047 0.3646 0.0
O130 O 0.87788 0.16821 0.49128 0.0
O131 O 0.84639 0.19247 0.41189 0.0
O132 O 0.99163 0.15465 0.49115 0.0
O133 O 0.94614 0.16662 0.54901 0.0
O134 O 0.91835 0.12103 0.41881 0.0
O135 O 0.9327 0.16456 0.35938 0.0
O136 O 0.95969 0.23418 0.34089 0.0
O137 O 0.9799 0.22235 0.43315 0.0
C138 C 0.84559 0.17518 0.46343 0.0
C139 C 0.98547 0.23883 0.38233 0.0
Dy140 Dy 0.1281 0.64469 0.11555 0.0
C141 C 0.18248 0.72887 0.30051 0.0
C142 C 0.10015 0.59387 0.03799 0.0
Dy143 Dy 0.1671 0.68589 0.20567 0.0
O144 O 0.10232 0.58866 0.09318 0.0
O145 O 0.11476 0.62696 0.02387 0.0
O146 O 0.07055 0.65782 0.15249 0.0
O147 O 0.11716 0.64933 0.20783 0.0
C148 C 0.08248 0.65858 0.20547 0.0
C149 C 0.21587 0.66635 0.12061 0.0
O150 O 0.17499 0.62761 0.24332 0.0
O151 O 0.16147 0.59632 0.15847 0.0
O152 O 0.1902 0.73925 0.24765 0.0
O153 O 0.16816 0.69474 0.30107 0.0
O154 O 0.22455 0.66871 0.17507 0.0
O155 O 0.18181 0.67816 0.11216 0.0
O156 O 0.10292 0.70294 0.093 0.0
O157 O 0.12443 0.73028 0.17732 0.0
C158 C 0.17333 0.59566 0.21309 0.0
C159 C 0.10272 0.73165 0.13051 0.0
Dy160 Dy 0.93844 0.67561 0.49816 0.0
C161 C 0.84393 0.74505 0.65756 0.0
C162 C 0.98192 0.65884 0.40401 0.0
Dy163 Dy 0.89692 0.71476 0.58533 0.0
O164 O 0.94708 0.67103 0.40289 0.0
O165 O 0.99292 0.65404 0.45729 0.0
O166 O 0.92078 0.61818 0.52976 0.0
O167 O 0.92998 0.66106 0.59195 0.0
C168 C 0.91858 0.62682 0.58418 0.0
C169 C 0.91256 0.76059 0.49526 0.0
O170 O 0.95528 0.73767 0.61161 0.0
O171 O 0.98279 0.71827 0.5264 0.0
O172 O 0.84117 0.74257 0.60213 0.0
O173 O 0.87583 0.72956 0.67506 0.0
O174 O 0.9124 0.7719 0.54845 0.0
O175 O 0.90267 0.72601 0.49287 0.0
O176 O 0.88076 0.66845 0.45882 0.0
O177 O 0.84898 0.68038 0.54354 0.0
C178 C 0.98444 0.73831 0.5747 0.0
C179 C 0.84859 0.66937 0.48867 0.0
Dy180 Dy 0.16609 0.18471 0.75047 0.0
C181 C 0.09301 0.1031 0.92484 0.0
C182 C 0.18768 0.23054 0.66068 0.0
Dy183 Dy 0.12452 0.1465 0.83852 0.0
O184 O 0.18823 0.24047 0.71472 0.0
O185 O 0.17682 0.19525 0.65626 0.0
O186 O 0.22214 0.16636 0.78447 0.0
O187 O 0.179 0.17865 0.84546 0.0
C188 C 0.21287 0.16578 0.8387 0.0
C189 C 0.08113 0.15765 0.74426 0.0
O190 O 0.10889 0.2072 0.86342 0.0
O191 O 0.12129 0.22831 0.77183 0.0
O192 O 0.07933 0.13469 0.9047 0.0
O193 O 0.12556 0.0961 0.90001 0.0
O194 O 0.0679 0.15783 0.7964 0.0
O195 O 0.11581 0.14857 0.74495 0.0
O196 O 0.17468 0.12659 0.71368 0.0
O197 O 0.15033 0.09444 0.79275 0.0
C198 C 0.10457 0.23342 0.82235 0.0
C199 C 0.1679 0.09416 0.74152 0.0
Dy200 Dy 0.65776 0.41386 0.00279 0.0
C201 C 0.73621 0.34081 0.17842 0.0
C202 C 0.61201 0.43555 0.91337 0.0
Dy203 Dy 0.69346 0.37202 0.09141 0.0
O204 O 0.60198 0.43539 0.96742 0.0
O205 O 0.64756 0.42567 0.90868 0.0
O206 O 0.67676 0.46953 0.03758 0.0
O207 O 0.66182 0.42656 0.09793 0.0
C208 C 0.67524 0.46034 0.09188 0.0
C209 C 0.68266 0.32813 -0.0016 0.0
O210 O 0.6321 0.35581 0.114 0.0
O211 O 0.61287 0.36992 0.0224 0.0
O212 O 0.74295 0.37369 0.15407 0.0
O213 O 0.70501 0.32672 0.15766 0.0
O214 O 0.68156 0.31549 0.05091 0.0
O215 O 0.69257 0.36269 -0.00211 0.0
O216 O 0.71609 0.42169 0.96609 0.0
O217 O 0.7467 0.39655 0.0457 0.0
C218 C 0.60629 0.35271 0.07221 0.0
C219 C 0.74802 0.41427 -0.00552 0.0
Dy220 Dy 0.4267 0.90306 0.25111 0.0
C221 C 0.49595 0.99377 0.41579 0.0
C222 C 0.40639 0.85904 0.15945 0.0
Dy223 Dy 0.46662 0.94336 0.3388 0.0
O224 O 0.41948 0.89363 0.15616 0.0
O225 O 0.40316 0.84871 0.21331 0.0
O226 O 0.36982 0.92149 0.28301 0.0
O227 O 0.4126 0.91066 0.34503 0.0
C228 C 0.37871 0.92297 0.33737 0.0
C229 C 0.51185 0.92927 0.2482 0.0
O230 O 0.48985 0.88472 0.36291 0.0
O231 O 0.47015 0.85861 0.27696 0.0
O232 O 0.49286 0.99927 0.36078 0.0
O233 O 0.48157 0.96064 0.43006 0.0
O234 O 0.52369 0.92938 0.30122 0.0
O235 O 0.47723 0.93889 0.24602 0.0
O236 O 0.41988 0.9612 0.21256 0.0
O237 O 0.43286 0.99206 0.29769 0.0
C238 C 0.49052 0.85626 0.32507 0.0
C239 C 0.42128 0.99303 0.24302 0.0
Dy240 Dy 0.19916 0.37561 0.37001 0.0
C241 C 0.11141 0.43781 0.54432 0.0
C242 C 0.24891 0.34547 0.29275 0.0
Dy243 Dy 0.15774 0.41692 0.45537 0.0
O244 O 0.25441 0.3481 0.34778 0.0
O245 O 0.21629 0.36079 0.27874 0.0
O246 O 0.18483 0.31906 0.41048 0.0
O247 O 0.19357 0.36677 0.46302 0.0
C248 C 0.18421 0.33206 0.46282 0.0
C249 C 0.17816 0.46332 0.36703 0.0
O250 O 0.2155 0.42444 0.49472 0.0
O251 O 0.2477 0.40966 0.41117 0.0
O252 O 0.14684 0.42769 0.54919 0.0
O253 O 0.10154 0.43809 0.49017 0.0
O254 O 0.17625 0.47327 0.42089 0.0
O255 O 0.16613 0.42915 0.36113 0.0
O256 O 0.14083 0.3519 0.3457 0.0
O257 O 0.11375 0.37276 0.43026 0.0
C258 C 0.2478 0.42256 0.46516 0.0
C259 C 0.11184 0.35184 0.3828 0.0
Dy260 Dy 0.96767 0.94264 0.1151 0.0
C261 C 0.90449 0.86255 0.29787 0.0
C262 C 0.99714 0.98685 0.02824 0.0
Dy263 Dy 0.92531 0.90625 0.20506 0.0
O264 O 1.0126 0.95625 0.04911 0.0
O265 O 0.96397 0.99194 0.0522 0.0
O266 O 1.02423 0.93124 0.15746 0.0
O267 O 0.97631 0.94136 0.20851 0.0
C268 C 1.01088 0.93194 0.20958 0.0
C269 C 0.87905 0.92447 0.11599 0.0
O270 O 0.91815 0.96533 0.23995 0.0
O271 O 0.94427 0.99589 0.16077 0.0
O272 O 0.91463 0.89814 0.29975 0.0
O273 O 0.90407 0.85106 0.24452 0.0
O274 O 0.86948 0.9246 0.17014 0.0
O275 O 0.91275 0.911 0.11004 0.0
O276 O 0.98408 0.88167 0.09265 0.0
O277 O 0.96898 0.86139 0.18382 0.0
C278 C 0.9267 0.99734 0.21192 0.0
C279 C 0.98696 0.85566 0.13439 0.0
Dy280 Dy 0.39551 0.71479 0.87006 0.0
C281 C 0.48248 0.65794 0.05099 0.0
C282 C 0.34436 0.74318 0.79304 0.0
Dy283 Dy 0.43935 0.67586 0.95698 0.0
O284 O 0.33958 0.74113 0.84833 0.0
O285 O 0.37706 0.72818 0.77867 0.0
O286 O 0.40877 0.77206 0.90884 0.0
O287 O 0.40159 0.72434 0.96226 0.0
C288 C 0.40996 0.75921 0.96143 0.0
C289 C 0.41913 0.62719 0.87222 0.0
O290 O 0.38143 0.66669 -0.00383 0.0
O291 O 0.34803 0.6803 0.9131 0.0
O292 O 0.44791 0.67085 0.05219 0.0
O293 O 0.49363 0.65372 -0.00229 0.0
O294 O 0.42258 0.61834 0.92651 0.0
O295 O 0.4298 0.66171 0.86371 0.0
O296 O 0.45261 0.74052 0.84446 0.0
O297 O 0.48326 0.71956 0.92691 0.0
C298 C 0.34873 0.66789 0.96746 0.0
C299 C 0.48293 0.74047 0.87898 0.0
Dy300 Dy 0.62542 0.14384 0.61989 0.0
C301 C 0.68487 0.23153 0.79632 0.0
C302 C 0.59676 0.09023 0.54741 0.0
Dy303 Dy 0.66489 0.18802 0.70362 0.0
O304 O 0.60068 0.08659 0.60261 0.0
O305 O 0.60983 0.12337 0.53039 0.0
O306 O 0.56828 0.1561 0.65835 0.0
O307 O 0.61572 0.15069 0.71262 0.0
C308 C 0.5806 0.15836 0.71096 0.0
C309 C 0.71241 0.16859 0.61624 0.0
O310 O 0.67279 0.1303 0.74489 0.0
O311 O 0.66095 0.097 0.66181 0.0
O312 O 0.67611 0.19564 0.79778 0.0
O313 O 0.68397 0.24389 0.74321 0.0
O314 O 0.72216 0.17177 0.67008 0.0
O315 O 0.67779 0.17898 0.60962 0.0
O316 O 0.59871 0.20041 0.59419 0.0
O317 O 0.62083 0.23171 0.67504 0.0
C318 C 0.67251 0.09761 0.71637 0.0
C319 C 0.59914 0.23096 0.6281 0.0
C320 C 0.53421 0.27548 0.12594 0.0
C321 C 0.5113 0.269 0.07656 0.0
C322 C 0.56431 0.30305 0.12542 0.0
C323 C 0.57209 0.32595 0.07599 0.0
H324 H 0.52971 0.25832 0.16453 0.0
H325 H 0.58197 0.30594 0.16366 0.0
S326 S 0.51703 0.32266 0.93758 0.0
N327 N 0.49715 0.28929 -0.0216 0.0
N328 N 0.55128 0.34133 0.97765 0.0
C329 C 0.54786 0.32061 0.02745 0.0
C330 C 0.51822 0.29219 0.0277 0.0
C331 C 0.56156 0.77975 0.27705 0.0
C332 C 0.57608 0.76362 0.32864 0.0
C333 C 0.53393 0.80888 0.27731 0.0
C334 C 0.51943 0.82433 0.32916 0.0
H335 H 0.57114 0.76935 0.23539 0.0
H336 H 0.52427 0.81978 0.23583 0.0
S337 S 0.54788 0.79312 0.47691 0.0
N338 N 0.57337 0.76545 0.43376 0.0
N339 N 0.52232 0.8213 0.43423 0.0
C340 C 0.53389 0.80899 0.38142 0.0
C341 C 0.56173 0.77839 0.38116 0.0
C342 C 0.06206 0.80891 0.52795 0.0
C343 C 0.07727 0.82374 0.57972 0.0
C344 C 1.03288 0.78128 0.52785 0.0
C345 C 1.01647 0.76708 0.5795 0.0
H346 H 0.07321 0.81828 0.48643 0.0
H347 H 1.0227 0.77143 0.48619 0.0
S348 S 1.04545 0.79611 0.7276 0.0
N349 N 0.07389 0.82149 0.68481 0.0
N350 N 1.01784 0.77033 0.68458 0.0
C351 C 1.03103 0.78171 0.63196 0.0
C352 C 0.06172 0.80959 0.63208 0.0
C353 C 1.03346 0.31039 0.77542 0.0
C354 C 1.01938 0.32626 0.82717 0.0
C355 C 0.06109 0.28131 0.7753 0.0
C356 C 0.07607 0.26566 0.82697 0.0
H357 H 1.02345 0.3209 0.7339 0.0
H358 H 0.07031 0.27063 0.73362 0.0
S359 S 0.04886 0.2964 0.97509 0.0
N360 N 1.02298 0.32418 0.93223 0.0
N361 N 0.07414 0.26842 0.93211 0.0
C362 C 0.06216 0.28091 0.87943 0.0
C363 C 1.03426 0.31145 0.8795 0.0
C364 C 0.53981 0.83399 0.8889 0.0
C365 C 0.57688 0.8242 0.8697 0.0
C366 C 0.50929 0.80731 0.88858 0.0
C367 C 0.51444 0.76927 0.8702 0.0
H368 H 0.53444 0.86241 0.9055 0.0
H369 H 0.4817 0.81619 0.90503 0.0
S370 S 0.60553 0.72813 0.81704 0.0
N371 N 0.61647 0.77314 0.83129 0.0
N372 N 0.55964 0.72311 0.83273 0.0
C373 C 0.55111 0.75906 0.85053 0.0
C374 C 0.58207 0.78644 0.84962 0.0
C375 C 0.55592 0.33132 0.60822 0.0
C376 C 0.51672 0.32559 0.62059 0.0
C377 C 0.58235 0.30058 0.60875 0.0
C378 C 0.57053 0.26257 0.61953 0.0
H379 H 0.56666 0.36007 0.60114 0.0
H380 H 0.6124 0.30672 0.60182 0.0
S381 S 0.47107 0.23185 0.6525 0.0
N382 N 0.46772 0.27863 0.64368 0.0
N383 N 0.51654 0.22122 0.64164 0.0
C384 C 0.53124 0.25638 0.62978 0.0
C385 C 0.50463 0.2877 0.63104 0.0
C386 C 1.02927 0.28646 0.42877 0.0
C387 C 1.01744 0.26778 0.37782 0.0
C388 C 0.05884 0.31373 0.42879 0.0
C389 C 0.07904 0.32377 0.378 0.0
H390 H 1.01527 0.28024 0.46964 0.0
H391 H 0.06632 0.32653 0.46989 0.0
S392 S 0.05959 0.28385 0.23207 0.0
N393 N 1.02797 0.26207 0.27423 0.0
N394 N 0.08455 0.3126 0.27447 0.0
C395 C 0.06765 0.30544 0.32634 0.0
C396 C 1.03666 0.27787 0.32616 0.0
C397 C 0.06039 0.78113 0.07775 0.0
C398 C 0.07221 0.76221 0.1289 0.0
C399 C 1.03269 0.811 0.07898 0.0
C400 C 1.01476 0.8224 0.13114 0.0
H401 H 0.07333 0.77356 0.03678 0.0
H402 H 1.02542 0.82533 0.03881 0.0
S403 S 1.03357 0.77951 0.27664 0.0
N404 N 0.06236 0.75626 0.2327 0.0
N405 N 1.01054 0.81021 0.23507 0.0
C406 C 1.02565 0.8025 0.18207 0.0
C407 C 0.05416 0.77309 0.18091 0.0
C408 C 0.24308 0.18071 0.93672 0.0
C409 C 0.2432 0.16072 0.88386 0.0
C410 C 0.27563 0.18073 0.97338 0.0
C411 C 0.30941 0.16086 0.95837 0.0
H412 H 0.21863 0.19805 0.9483 0.0
H413 H 0.27507 0.19821 0.01197 0.0
S414 S 0.322 0.09945 0.82918 0.0
N415 N 0.27843 0.11696 0.82222 0.0
N416 N 0.33886 0.11736 0.89005 0.0
C417 C 0.30867 0.13886 0.90761 0.0
C418 C 0.2758 0.13869 0.87075 0.0
C419 C 0.69755 0.525 0.12176 0.0
C420 C 0.67857 0.49077 0.13705 0.0
C421 C 0.69716 0.55721 0.15772 0.0
C422 C 0.67788 0.55702 0.21123 0.0
H423 H 0.71192 0.52751 0.08031 0.0
H424 H 0.71108 0.58304 0.14224 0.0
S425 S 0.62646 0.47352 0.27472 0.0
N426 N 0.64216 0.45769 0.21171 0.0
N427 N 0.64137 0.5183 0.27975 0.0
C428 C 0.66062 0.52224 0.22896 0.0
C429 C 0.66097 0.48916 0.19187 0.0
C430 C 0.34842 0.9075 0.4352 0.0
C431 C 0.34835 0.92792 0.38239 0.0
C432 C 0.31597 0.90738 0.47206 0.0
C433 C 0.28236 0.92769 0.45741 0.0
H434 H 0.37275 0.88987 0.44656 0.0
H435 H 0.31645 0.88949 0.51049 0.0
S436 S 0.2703 0.99069 0.3288 0.0
N437 N 0.31358 0.97258 0.32123 0.0
N438 N 0.25336 0.97243 0.3897 0.0
C439 C 0.28327 0.95029 0.40681 0.0
C440 C 0.31601 0.95037 0.3696 0.0
C441 C 0.89954 0.56043 0.61214 0.0
C442 C 0.91475 0.59598 0.62917 0.0
C443 C 0.89947 0.52854 0.64929 0.0
C444 C 0.91469 0.53031 0.70572 0.0
H445 H 0.88847 0.55673 0.5687 0.0
H446 H 0.88852 0.50178 0.63251 0.0
S447 S 0.95497 0.61768 0.774 0.0
N448 N 0.94296 0.63196 0.70815 0.0
N449 N 0.94314 0.57193 0.77825 0.0
C450 C 0.92819 0.56629 0.7247 0.0
C451 C 0.92815 0.59907 0.68648 0.0
C452 C 0.81639 0.90743 -0.01818 0.0
C453 C 0.78286 0.92814 -0.0045 0.0
C454 C 0.84886 0.90784 0.01864 0.0
C455 C 0.84893 0.92904 0.07038 0.0
H456 H 0.81681 0.88905 0.94422 0.0
H457 H 0.87306 0.88987 0.00815 0.0
S458 S 0.77098 0.99279 0.12116 0.0
N459 N 0.75397 0.97373 0.0612 0.0
N460 N 0.81424 0.97475 0.12938 0.0
C461 C 0.81663 0.95185 0.08208 0.0
C462 C 0.78384 0.95133 0.04503 0.0
C463 C 0.40156 0.56025 0.84639 0.0
C464 C 0.41549 0.5962 0.828 0.0
C465 C 0.40212 0.52815 0.81016 0.0
C466 C 0.41657 0.53017 0.75331 0.0
H467 H 0.39109 0.55642 0.89022 0.0
H468 H 0.39217 0.50114 0.82785 0.0
S469 S 0.45337 0.61845 0.6816 0.0
N470 N 0.44173 0.63265 0.74743 0.0
N471 N 0.44286 0.57236 0.67887 0.0
C472 C 0.42875 0.56649 0.733 0.0
C473 C 0.42817 0.59942 0.77033 0.0
C474 C 0.74273 0.18825 0.51994 0.0
C475 C 0.7424 0.16516 0.57023 0.0
C476 C 0.77526 0.18981 0.48314 0.0
C477 C 0.80856 0.16826 0.49521 0.0
H478 H 0.7187 0.20681 0.51076 0.0
H479 H 0.77502 0.20954 0.44683 0.0
S480 S 0.81934 0.09878 0.61654 0.0
N481 N 0.77644 0.11729 0.62626 0.0
N482 N 0.83657 0.1196 0.55772 0.0
C483 C 0.80714 0.14313 0.54316 0.0
C484 C 0.7744 0.14178 0.58041 0.0
C485 C 0.20033 0.52772 0.3351 0.0
C486 C 0.18192 0.49316 0.32079 0.0
C487 C 0.19952 0.5596 0.29804 0.0
C488 C 0.1802 0.5587 0.24458 0.0
H489 H 0.21439 0.53074 0.37665 0.0
H490 H 0.21295 0.58578 0.31276 0.0
S491 S 0.13045 0.47389 0.18354 0.0
N492 N 0.14633 0.45882 0.24708 0.0
N493 N 0.14457 0.51889 0.17713 0.0
C494 C 0.16368 0.52352 0.2278 0.0
C495 C 0.16459 0.49076 0.26591 0.0
C496 C 0.78162 0.64516 0.36464 0.0
C497 C 0.74657 0.66189 0.38048 0.0
C498 C 0.8134 0.6456 0.40165 0.0
C499 C 0.8119 0.66286 0.45659 0.0
H500 H 0.78505 0.63258 0.32216 0.0
H501 H 0.8399 0.63347 0.38587 0.0
S502 S 0.72569 0.70755 0.52163 0.0
N503 N 0.71119 0.6936 0.45697 0.0
N504 N 0.77107 0.69474 0.52678 0.0
C505 C 0.77632 0.67776 0.47463 0.0
C506 C 0.74367 0.67721 0.43658 0.0
C507 C 0.1536 1.02411 0.72084 0.0
C508 C 0.17528 0.05755 0.70979 0.0
C509 C 0.15544 0.99206 0.68359 0.0
C510 C 0.17891 0.99245 0.6339 0.0
H511 H 0.13353 1.02343 0.75658 0.0
H512 H 0.13678 0.96786 0.69191 0.0
S513 S 0.24579 0.07005 0.59052 0.0
N514 N 0.22452 0.08651 0.64912 0.0
N515 N 0.22731 1.0272 0.57958 0.0
C516 C 0.20246 1.02457 0.62479 0.0
C517 C 0.20085 0.05682 0.66254 0.0
C518 C 0.81768 0.39849 0.97292 0.0
C519 C 0.78513 0.42163 0.9636 0.0
C520 C 0.84989 0.40054 0.93563 0.0
C521 C 0.85053 0.42572 0.88772 0.0
H522 H 0.81742 0.37713 0.00706 0.0
H523 H 0.87326 0.3807 0.94223 0.0
S524 S 0.77575 0.49664 0.84985 0.0
N525 N 0.75832 0.47394 0.90692 0.0
N526 N 0.81787 0.47711 0.83728 0.0
C527 C 0.81942 0.45068 0.88063 0.0
C528 C 0.78703 0.44884 0.9184 0.0
C529 C 0.39505 1.02932 0.15845 0.0
C530 C 0.4144 1.03008 0.21188 0.0
C531 C 0.39428 0.06129 0.12161 0.0
C532 C 0.41274 0.09578 0.13612 0.0
H533 H 0.38161 1.00319 0.14358 0.0
H534 H 0.38024 0.05838 0.08001 0.0
S535 S 0.46423 0.11466 0.27345 0.0
N536 N 0.45005 0.06966 0.27961 0.0
N537 N 0.44836 0.12991 0.21 0.0
C538 C 0.43005 0.09805 0.19102 0.0
C539 C 0.43093 0.0652 0.22892 0.0
C540 C 0.31844 0.41 0.48288 0.0
C541 C 0.28451 0.42994 0.49674 0.0
C542 C 0.35074 0.41077 0.51996 0.0
C543 C 0.35017 0.43151 0.57214 0.0
H544 H 0.31927 0.39184 0.44505 0.0
H545 H 0.37528 0.39326 0.50943 0.0
S546 S 0.2711 0.49342 0.62357 0.0
N547 N 0.25467 0.47468 0.563 0.0
N548 N 0.3146 0.47597 0.63188 0.0
C549 C 0.31754 0.45364 0.58403 0.0
C550 C 0.28495 0.45291 0.54663 0.0
C551 C 0.89888 0.066 0.33226 0.0
C552 C 0.91832 0.10026 0.31885 0.0
C553 C 0.9002 1.0341 0.29574 0.0
C554 C 0.92122 1.03445 0.24362 0.0
H555 H 0.88322 0.06329 0.37259 0.0
H556 H 0.88547 1.00839 0.30986 0.0
S557 S 0.97466 0.1183 0.18518 0.0
N558 N 0.95711 0.1337 0.24733 0.0
N559 N 0.95993 0.07356 0.17844 0.0
C560 C 0.93925 0.06925 0.22785 0.0
C561 C 0.93773 0.10211 0.2654 0.0
C562 C 0.24549 0.67947 0.02154 0.0
C563 C 0.24654 0.66121 0.07607 0.0
C564 C 0.27782 0.67948 -0.01556 0.0
C565 C 0.31231 0.66118 0.00048 0.0
H566 H 0.22038 0.69551 0.00877 0.0
H567 H 0.27641 0.69572 0.94444 0.0
S568 S 0.32748 0.60428 0.13475 0.0
N569 N 0.28345 0.62071 0.14095 0.0
N570 N 0.34342 0.62068 0.07207 0.0
C571 C 0.31252 0.64072 0.05314 0.0
C572 C 0.2799 0.64075 0.09061 0.0
C573 C 0.66149 1.02641 0.73341 0.0
C574 C 0.6796 0.06109 0.74921 0.0
C575 C 0.6622 0.99378 0.77017 0.0
C576 C 0.68109 0.99463 0.82408 0.0
H577 H 0.64485 1.02507 0.69391 0.0
H578 H 0.64617 0.96858 0.75773 0.0
S579 S 0.7379 0.07601 0.88159 0.0
N580 N 0.72057 0.09223 0.81972 0.0
N581 N 0.72199 1.03168 0.88787 0.0
C582 C 0.70139 1.02821 0.83822 0.0
C583 C 0.70063 0.06118 0.80116 0.0
C584 C 0.54739 0.15589 0.86677 0.0
C585 C 0.50802 0.14836 0.86151 0.0
C586 C 0.57073 0.15904 0.81766 0.0
C587 C 0.55538 0.15496 0.76178 0.0
H588 H 0.56012 0.16041 0.90897 0.0
H589 H 0.60086 0.1653 0.82348 0.0
S590 S 0.45449 0.132 0.72514 0.0
N591 N 0.45507 0.13471 0.79645 0.0
N592 N 0.49883 0.14068 0.70416 0.0
C593 C 0.51623 0.14639 0.75605 0.0
C594 C 0.49257 0.14298 0.806 0.0
C595 C 0.67793 0.74239 0.05235 0.0
C596 C 0.68907 0.75564 0.10721 0.0
C597 C 0.67547 0.76733 0.00507 0.0
C598 C 0.6841 0.80634 0.01103 0.0
H599 H 0.67029 0.71264 0.046 0.0
H600 H 0.66646 0.75597 0.96367 0.0
S601 S 0.71628 0.855 0.1451 0.0
N602 N 0.70983 0.80995 0.1647 0.0
N603 N 0.70542 0.85698 0.0756 0.0
C604 C 0.69585 0.81991 0.06548 0.0
C605 C 0.69838 0.79446 0.11367 0.0
C606 C 0.0749 0.92893 0.25557 0.0
C607 C 1.03535 0.93472 0.26121 0.0
C608 C 0.0991 0.93154 0.30346 0.0
C609 C 0.0846 0.93982 0.35877 0.0
H610 H 0.0873 0.92199 0.21392 0.0
H611 H 0.12933 0.92608 0.2972 0.0
S612 S 0.98329 0.95886 0.3963 0.0
N613 N 0.98276 0.95036 0.32605 0.0
N614 N 1.02844 0.95488 0.41643 0.0
C615 C 1.04521 0.94638 0.36498 0.0
C616 C 1.02049 0.94382 0.31607 0.0
C617 C 0.90194 0.27163 0.5642 0.0
C618 C 0.90602 0.28749 0.50842 0.0
C619 C 0.89923 0.29512 0.61302 0.0
C620 C 0.90024 0.33516 0.60748 0.0
H621 H 0.90138 0.24088 0.5703 0.0
H622 H 0.89723 0.28181 0.65538 0.0
S623 S 0.90903 0.39079 0.47067 0.0
N624 N 0.91013 0.34563 0.45032 0.0
N625 N 0.90425 0.3897 0.54174 0.0
C626 C 0.90329 0.35134 0.55178 0.0
C627 C 0.90648 0.32749 0.50228 0.0
C628 C 0.54786 0.94141 0.09454 0.0
C629 C 0.58739 0.93539 0.10058 0.0
C630 C 0.52344 0.93908 0.14257 0.0
C631 C 0.53783 0.93065 0.19807 0.0
H632 H 0.53559 0.9472 0.05234 0.0
H633 H 0.4931 0.94377 0.1361 0.0
S634 S 0.63929 0.91292 0.23678 0.0
N635 N 0.63994 0.92131 0.1664 0.0
N636 N 0.59403 0.91642 0.25635 0.0
C637 C 0.57733 0.92486 0.20468 0.0
C638 C 0.60216 0.92745 0.15597 0.0
C639 C 0.40154 0.34451 0.89782 0.0
C640 C 0.40109 0.32937 0.84158 0.0
C641 C 0.40455 0.32063 0.94621 0.0
C642 C 0.40697 0.28078 0.93998 0.0
H643 H 0.40047 0.37514 0.90461 0.0
H644 H 0.40511 0.33356 -0.01126 0.0
S645 S 0.40725 0.22688 0.80197 0.0
N646 N 0.40342 0.27216 0.78213 0.0
N647 N 0.40886 0.22708 0.87341 0.0
C648 C 0.40619 0.26518 0.88401 0.0
C649 C 0.40321 0.28955 0.83465 0.0
C650 C 1.01686 0.16014 0.69882 0.0
C651 C 0.05655 0.15546 0.69267 0.0
C652 C 0.9926 0.15835 0.65086 0.0
C653 C 1.00717 0.15199 0.59502 0.0
H654 H 1.00439 0.16561 0.74092 0.0
H655 H 0.96226 0.16293 0.65754 0.0
S656 S 0.10895 0.13683 0.55588 0.0
N657 N 0.10937 0.14313 0.62667 0.0
N658 N 0.06364 0.1401 0.53622 0.0
C659 C 0.04673 0.14652 0.58827 0.0
C660 C 0.07149 0.14828 0.63722 0.0
C661 C 0.19505 0.81699 0.3928 0.0
C662 C 0.17925 0.80529 0.44604 0.0
C663 C 0.19694 0.79172 0.34603 0.0
C664 C 0.18298 0.75413 0.35116 0.0
H665 H 0.20647 0.84564 0.38741 0.0
H666 H 0.20916 0.80177 0.30559 0.0
S667 S 0.13637 0.71076 0.48047 0.0
N668 N 0.14778 0.75456 0.50057 0.0
N669 N 0.15133 0.70698 0.41294 0.0
C670 C 0.16663 0.74234 0.40404 0.0
C671 C 0.16469 0.76803 0.45145 0.0
C672 C 1.04506 0.6457 0.35804 0.0
C673 C 1.00679 0.65737 0.35271 0.0
C674 C 0.06972 0.64662 0.31023 0.0
C675 C 0.05675 0.65913 0.25571 0.0
H676 H 0.05612 0.63609 0.39944 0.0
H677 H 0.09901 0.63723 0.31597 0.0
S678 S 0.95992 0.69532 0.22005 0.0
N679 N 0.95759 0.68356 0.28926 0.0
N680 N 1.00394 0.68504 0.19959 0.0
C681 C 1.01872 0.67128 0.25 0.0
C682 C 0.99369 0.67044 0.29852 0.0
C683 C 0.18414 0.24272 0.55511 0.0
C684 C 0.19042 0.25692 0.61114 0.0
C685 C 0.18187 0.26738 0.50749 0.0
C686 C 0.18594 0.30709 0.5142 0.0
H687 H 0.1801 0.21235 0.54802 0.0
H688 H 0.17668 0.25518 0.46517 0.0
S689 S 0.20343 0.35863 0.65186 0.0
N690 N 0.20112 0.31307 0.67084 0.0
N691 N 0.1971 0.35958 0.58104 0.0
C692 C 0.19273 0.32168 0.56991 0.0
C693 C 0.19502 0.29651 0.6185 0.0
C694 C 0.57575 0.43195 0.76001 0.0
C695 C 0.53586 0.43036 0.76732 0.0
C696 C 0.60011 0.43535 0.80765 0.0
C697 C 0.58543 0.43717 0.86421 0.0
H698 H 0.58833 0.43062 0.71718 0.0
H699 H 0.63071 0.43587 0.80011 0.0
S700 S 0.48309 0.43299 0.9067 0.0
N701 N 0.4827 0.43027 0.83537 0.0
N702 N 0.5286 0.43657 0.92516 0.0
C703 C 0.5456 0.43576 0.87222 0.0
C704 C 0.52077 0.43225 0.82365 0.0
C705 C 0.41562 0.82315 0.00667 0.0
C706 C 0.40771 0.78396 0.01256 0.0
C707 C 0.41357 0.84751 0.05431 0.0
C708 C 0.40348 0.83349 0.10942 0.0
H709 H 0.42382 0.83511 0.9651 0.0
H710 H 0.4208 0.87741 0.04803 0.0
S711 S 0.37736 0.73354 0.14701 0.0
N712 N 0.38745 0.73244 0.07722 0.0
N713 N 0.38374 0.77841 0.16691 0.0
C714 C 0.39448 0.79456 0.11572 0.0
C715 C 0.39665 0.76968 0.06721 0.0
C716 C 0.09891 0.43125 0.6493 0.0
C717 C 0.08491 0.43942 0.59358 0.0
C718 C 0.07413 0.42763 0.69642 0.0
C719 C 1.0345 0.43227 0.68958 0.0
H720 H 0.1292 0.42671 0.65651 0.0
H721 H 0.08621 0.421 0.73849 0.0
S722 S 0.98353 0.45503 0.55276 0.0
N723 N 1.02908 0.45277 0.53407 0.0
N724 N 0.98229 0.44618 0.62302 0.0
C725 C 1.02009 0.44097 0.63421 0.0
C726 C 1.0454 0.44461 0.58608 0.0
C727 C 0.90137 0.79739 0.34183 0.0
C728 C 0.90297 0.83727 0.34895 0.0
C729 C 0.90482 0.77268 0.38946 0.0
C730 C 0.91012 0.78708 0.44565 0.0
H731 H 0.89833 0.78512 0.29908 0.0
H732 H 0.90359 0.74211 0.38211 0.0
S733 S 0.91537 0.88939 0.48731 0.0
N734 N 0.90918 0.89011 0.41648 0.0
N735 N 0.9163 0.84374 0.50581 0.0
C736 C 0.91142 0.82692 0.45335 0.0
C737 C 0.90758 0.85202 0.40501 0.0
C738 C 0.5464 0.64854 0.0961 0.0
C739 C 0.50703 0.65527 0.10235 0.0
C740 C 0.57082 0.64997 0.14401 0.0
C741 C 0.55656 0.65814 0.19954 0.0
H742 H 0.55854 0.64288 0.05384 0.0
H743 H 0.60106 0.64477 0.13741 0.0
S744 S 0.45554 0.67747 0.23875 0.0
N745 N 0.45471 0.66975 0.16834 0.0
N746 N 0.50073 0.67292 0.25818 0.0
C747 C 0.51722 0.66464 0.2064 0.0
C748 C 0.49237 0.66299 0.15779 0.0
C749 C 0.69031 0.31879 0.89205 0.0
C750 C 0.68438 0.30307 0.94754 0.0
C751 C 0.69188 0.29532 0.8431 0.0
C752 C 0.68775 0.25546 0.8483 0.0
H753 H 0.69331 0.34943 0.88628 0.0
H754 H 0.69556 0.30854 0.80093 0.0
S755 S 0.67258 0.20021 -0.01577 0.0
N756 N 0.67485 0.24525 0.00496 0.0
N757 N 0.6784 0.20117 0.91334 0.0
C758 C 0.68258 0.23938 0.90371 0.0
C759 C 0.68066 0.26322 0.9533 0.0
C760 C 0.32892 0.28033 0.24779 0.0
C761 C 0.31678 0.26749 0.19347 0.0
C762 C 0.30724 0.30687 0.27853 0.0
C763 C 0.27275 0.32133 0.2559 0.0
H764 H 0.35564 0.2704 0.26624 0.0
H765 H 0.31748 0.31588 0.3206 0.0
S766 S 0.22797 0.29567 0.11604 0.0
N767 N 0.26776 0.27036 0.11852 0.0
N768 N 0.22704 0.32042 0.17672 0.0
C769 C 0.2602 0.30863 0.20174 0.0
C770 C 0.28219 0.28149 0.17046 0.0
C771 C 0.56287 0.5357 0.43312 0.0
C772 C 0.57749 0.57005 0.45585 0.0
C773 C 0.53638 0.51379 0.46399 0.0
C774 C 0.5239 0.52543 0.51871 0.0
H775 H 0.57153 0.52583 0.39068 0.0
H776 H 0.52615 0.48732 0.44524 0.0
S777 S 0.55331 0.61317 0.59728 0.0
N778 N 0.57754 0.61487 0.53591 0.0
N779 N 0.52777 0.57341 0.59474 0.0
C780 C 0.53838 0.55964 0.54218 0.0
C781 C 0.56535 0.582 0.5106 0.0
C782 C 0.26377 0.80811 0.74854 0.0
C783 C 0.27493 0.82008 0.69309 0.0
C784 C 0.28588 0.78183 0.77951 0.0
C785 C 0.31983 0.76679 0.75603 0.0
H786 H 0.23754 0.81856 0.76775 0.0
H787 H 0.27643 0.77355 0.8225 0.0
S788 S 0.36186 0.7899 0.61279 0.0
N789 N 0.32236 0.8156 0.61595 0.0
N790 N 0.36385 0.76606 0.67461 0.0
C791 C 0.33132 0.77853 0.70064 0.0
C792 C 0.30891 0.80538 0.66911 0.0
C793 C 0.06226 0.53475 0.02476 0.0
C794 C 0.07689 0.56902 0.00106 0.0
C795 C 1.0361 0.51234 -0.00578 0.0
C796 C 1.02385 0.52342 0.93893 0.0
H797 H 0.0707 0.52533 0.06766 0.0
H798 H 1.02586 0.48598 0.01374 0.0
S799 S 0.05339 0.61073 0.85778 0.0
N800 N 0.0772 0.61306 0.9194 0.0
N801 N 1.02804 0.57087 0.8614 0.0
C802 C 1.03834 0.55756 0.91456 0.0
C803 C 0.06501 0.58036 0.94573 0.0
C804 C 0.80569 0.80442 0.78018 0.0
C805 C 0.77305 0.82152 0.75547 0.0
C806 C 0.82789 0.77851 0.74896 0.0
C807 C 0.81815 0.76892 0.69205 0.0
H808 H 0.81407 0.81084 0.82424 0.0
H809 H 0.8531 0.76642 0.76924 0.0
S810 S 0.73509 0.80541 0.60793 0.0
N811 N 0.73185 0.8269 0.67123 0.0
N812 N 0.77348 0.77812 0.61207 0.0
C813 C 0.78546 0.78571 0.66685 0.0
C814 C 0.76295 0.81218 0.69865 0.0
C815 C 0.80319 0.32994 0.21023 0.0
C816 C 0.76507 0.31732 0.20814 0.0
C817 C 0.83221 0.30585 0.23038 0.0
C818 C 0.82412 0.26832 0.24911 0.0
H819 H 0.81084 0.35836 0.19517 0.0
H820 H 0.86117 0.31695 0.23201 0.0
S821 S 0.72864 0.22188 0.25351 0.0
N822 N 0.72049 0.26511 0.22721 0.0
N823 N 0.7752 0.21982 0.26515 0.0
C824 C 0.78611 0.25533 0.24729 0.0
C825 C 0.7565 0.27992 0.22701 0.0
C826 C 0.08077 1.03612 0.95637 0.0
C827 C 0.06937 0.07459 0.95536 0.0
C828 C 0.05625 1.00761 0.97755 0.0
C829 C 1.01952 1.0166 -0.00169 0.0
H830 H 0.10849 1.02782 0.93965 0.0
H831 H 0.06636 0.97833 -0.02175 0.0
S832 S 0.97667 0.11336 0.00697 0.0
N833 N 1.01937 0.12049 -0.02182 0.0
N834 N 0.97328 0.06677 0.01796 0.0
C835 C 1.00782 0.05499 -0.00223 0.0
C836 C 1.03285 0.08406 0.9765 0.0
C837 C 0.55947 0.07574 0.45894 0.0
C838 C 0.57307 0.06412 0.51325 0.0
C839 C 0.53317 0.05324 0.4289 0.0
C840 C 0.51971 1.0184 0.45217 0.0
H841 H 0.56862 0.10267 0.43997 0.0
H842 H 0.52356 0.06314 0.3868 0.0
S843 S 0.5474 0.97488 0.59249 0.0
N844 N 0.57182 1.01533 0.58906 0.0
N845 N 0.52222 0.97303 0.53209 0.0
C846 C 0.53311 1.0064 0.50638 0.0
C847 C 0.56 1.02924 0.53698 0.0
loop_
_geom_bond_atom_site_label_1
_geom_bond_atom_site_label_2
_geom_bond_distance
_geom_bond_site_symmetry_2
_ccdc_geom_bond_type
Dy0 O4 2.398 . S
Dy0 O5 2.491 . S
Dy0 O6 2.403 1_556 S
Dy0 O7 2.664 1_556 S
Dy0 O11 2.326 1_556 S
Dy0 O15 2.310 . S
Dy0 O16 2.351 . S
C1 O12 1.185 . S
C1 O13 1.355 . S
C2 O4 1.185 . S
C2 O5 1.355 . S
Dy3 O7 2.310 . S
Dy3 O10 2.351 . S
Dy3 O12 2.398 . S
Dy3 O13 2.491 . S
Dy3 O14 2.403 . S
Dy3 O15 2.664 1_554 S
Dy3 O17 2.326 . S
O4 Dy0 2.398 . S
O4 C2 1.185 . S
O5 Dy0 2.491 . S
O5 C2 1.355 . S
O6 Dy0 2.403 1_554 S
O6 C8 1.254 . S
O7 Dy0 2.664 1_554 S
O7 Dy3 2.310 . S
O7 C8 1.268 . S
C8 O6 1.254 . S
C8 O7 1.268 . S
C9 O14 1.254 1_556 S
C9 O15 1.268 . S
O10 Dy3 2.351 . S
O10 C18 1.249 . S
O11 Dy0 2.326 1_554 S
O11 C18 1.267 . S
O12 C1 1.185 . S
O12 Dy3 2.398 . S
O13 C1 1.355 . S
O13 Dy3 2.491 . S
O14 Dy3 2.403 . S
O14 C9 1.254 1_554 S
O15 Dy0 2.310 . S
O15 Dy3 2.664 1_556 S
O15 C9 1.268 . S
O16 Dy0 2.351 . S
O16 C19 1.249 1_556 S
O17 Dy3 2.326 . S
O17 C19 1.267 . S
C18 O10 1.249 . S
C18 O11 1.267 . S
C19 O16 1.249 1_554 S
C19 O17 1.267 . S
Dy20 O24 2.398 . S
Dy20 O25 2.491 . S
Dy20 O26 2.403 . S
Dy20 O27 2.664 . S
Dy20 O31 2.326 . S
Dy20 O35 2.310 . S
Dy20 O36 2.351 . S
C21 O32 1.185 . S
C21 O33 1.355 . S
C22 O24 1.185 . S
C22 O25 1.355 . S
Dy23 O27 2.310 . S
Dy23 O30 2.351 . S
Dy23 O32 2.398 . S
Dy23 O33 2.491 . S
Dy23 O34 2.403 . S
Dy23 O35 2.664 . S
Dy23 O37 2.326 . S
O24 Dy20 2.398 . S
O24 C22 1.185 . S
O25 Dy20 2.491 . S
O25 C22 1.355 . S
O26 Dy20 2.403 . S
O26 C28 1.254 . S
O27 Dy20 2.664 . S
O27 Dy23 2.310 . S
O27 C28 1.268 . S
C28 O26 1.254 . S
C28 O27 1.268 . S
C29 O34 1.254 . S
C29 O35 1.268 . S
O30 Dy23 2.351 . S
O30 C38 1.249 . S
O31 Dy20 2.326 . S
O31 C38 1.267 . S
O32 C21 1.185 . S
O32 Dy23 2.398 . S
O33 C21 1.355 . S
O33 Dy23 2.491 . S
O34 Dy23 2.403 . S
O34 C29 1.254 . S
O35 Dy20 2.310 . S
O35 Dy23 2.664 . S
O35 C29 1.268 . S
O36 Dy20 2.351 . S
O36 C39 1.249 . S
O37 Dy23 2.326 . S
O37 C39 1.267 . S
C38 O30 1.249 . S
C38 O31 1.267 . S
C39 O36 1.249 . S
C39 O37 1.267 . S
Dy40 O44 2.398 . S
Dy40 O45 2.491 . S
Dy40 O46 2.403 . S
Dy40 O47 2.664 . S
Dy40 O51 2.326 . S
Dy40 O55 2.310 . S
Dy40 O56 2.351 . S
C41 O52 1.185 . S
C41 O53 1.355 . S
C42 O44 1.185 . S
C42 O45 1.355 . S
Dy43 O47 2.310 . S
Dy43 O50 2.351 . S
Dy43 O52 2.398 . S
Dy43 O53 2.491 . S
Dy43 O54 2.403 . S
Dy43 O55 2.664 . S
Dy43 O57 2.326 . S
O44 Dy40 2.398 . S
O44 C42 1.185 . S
O45 Dy40 2.491 . S
O45 C42 1.355 . S
O46 Dy40 2.403 . S
O46 C48 1.254 . S
O47 Dy40 2.664 . S
O47 Dy43 2.310 . S
O47 C48 1.268 . S
C48 O46 1.254 . S
C48 O47 1.268 . S
C49 O54 1.254 . S
C49 O55 1.268 . S
O50 Dy43 2.351 . S
O50 C58 1.249 . S
O51 Dy40 2.326 . S
O51 C58 1.267 . S
O52 C41 1.185 . S
O52 Dy43 2.398 . S
O53 C41 1.355 . S
O53 Dy43 2.491 . S
O54 Dy43 2.403 . S
O54 C49 1.254 . S
O55 Dy40 2.310 . S
O55 Dy43 2.664 . S
O55 C49 1.268 . S
O56 Dy40 2.351 . S
O56 C59 1.249 . S
O57 Dy43 2.326 . S
O57 C59 1.267 . S
C58 O50 1.249 . S
C58 O51 1.267 . S
C59 O56 1.249 . S
C59 O57 1.267 . S
Dy60 O64 2.398 . S
Dy60 O65 2.491 . S
Dy60 O66 2.403 . S
Dy60 O67 2.664 . S
Dy60 O71 2.326 . S
Dy60 O75 2.310 . S
Dy60 O76 2.351 . S
C61 O72 1.185 . S
C61 O73 1.355 . S
C62 O64 1.185 . S
C62 O65 1.355 . S
Dy63 O67 2.310 . S
Dy63 O70 2.351 . S
Dy63 O72 2.398 . S
Dy63 O73 2.491 . S
Dy63 O74 2.403 . S
Dy63 O75 2.664 . S
Dy63 O77 2.326 . S
O64 Dy60 2.398 . S
O64 C62 1.185 . S
O65 Dy60 2.491 . S
O65 C62 1.355 . S
O66 Dy60 2.403 . S
O66 C68 1.254 . S
O67 Dy60 2.664 . S
O67 Dy63 2.310 . S
O67 C68 1.268 . S
C68 O66 1.254 . S
C68 O67 1.268 . S
C69 O74 1.254 . S
C69 O75 1.268 . S
O70 Dy63 2.351 . S
O70 C78 1.249 . S
O71 Dy60 2.326 . S
O71 C78 1.267 . S
O72 C61 1.185 . S
O72 Dy63 2.398 . S
O73 C61 1.355 . S
O73 Dy63 2.491 . S
O74 Dy63 2.403 . S
O74 C69 1.254 . S
O75 Dy60 2.310 . S
O75 Dy63 2.664 . S
O75 C69 1.268 . S
O76 Dy60 2.351 . S
O76 C79 1.249 . S
O77 Dy63 2.326 . S
O77 C79 1.267 . S
C78 O70 1.249 . S
C78 O71 1.267 . S
C79 O76 1.249 . S
C79 O77 1.267 . S
Dy80 O84 2.398 . S
Dy80 O85 2.491 . S
Dy80 O86 2.403 . S
Dy80 O87 2.664 1_556 S
Dy80 O91 2.326 . S
Dy80 O95 2.310 . S
Dy80 O96 2.351 . S
C81 O92 1.185 . S
C81 O93 1.355 . S
C82 O84 1.185 . S
C82 O85 1.355 . S
Dy83 O87 2.310 . S
Dy83 O90 2.351 . S
Dy83 O92 2.398 . S
Dy83 O93 2.491 . S
Dy83 O94 2.403 1_554 S
Dy83 O95 2.664 1_554 S
Dy83 O97 2.326 1_554 S
O84 Dy80 2.398 . S
O84 C82 1.185 . S
O85 Dy80 2.491 . S
O85 C82 1.355 . S
O86 Dy80 2.403 . S
O86 C88 1.254 1_556 S
O87 Dy80 2.664 1_554 S
O87 Dy83 2.310 . S
O87 C88 1.268 . S
C88 O86 1.254 1_554 S
C88 O87 1.268 . S
C89 O94 1.254 . S
C89 O95 1.268 . S
O90 Dy83 2.351 . S
O90 C98 1.249 1_554 S
O91 Dy80 2.326 . S
O91 C98 1.267 . S
O92 C81 1.185 . S
O92 Dy83 2.398 . S
O93 C81 1.355 . S
O93 Dy83 2.491 . S
O94 Dy83 2.403 1_556 S
O94 C89 1.254 . S
O95 Dy80 2.310 . S
O95 Dy83 2.664 1_556 S
O95 C89 1.268 . S
O96 Dy80 2.351 . S
O96 C99 1.249 . S
O97 Dy83 2.326 1_556 S
O97 C99 1.267 . S
C98 O90 1.249 1_556 S
C98 O91 1.267 . S
C99 O96 1.249 . S
C99 O97 1.267 . S
Dy100 O104 2.398 . S
Dy100 O105 2.491 . S
Dy100 O106 2.403 . S
Dy100 O107 2.664 . S
Dy100 O111 2.326 . S
Dy100 O115 2.310 . S
Dy100 O116 2.351 . S
C101 O112 1.185 . S
C101 O113 1.355 . S
C102 O104 1.185 . S
C102 O105 1.355 . S
Dy103 O107 2.310 . S
Dy103 O110 2.351 . S
Dy103 O112 2.398 . S
Dy103 O113 2.491 . S
Dy103 O114 2.403 . S
Dy103 O115 2.664 . S
Dy103 O117 2.326 . S
O104 Dy100 2.398 . S
O104 C102 1.185 . S
O105 Dy100 2.491 . S
O105 C102 1.355 . S
O106 Dy100 2.403 . S
O106 C108 1.254 . S
O107 Dy100 2.664 . S
O107 Dy103 2.310 . S
O107 C108 1.268 . S
C108 O106 1.254 . S
C108 O107 1.268 . S
C109 O114 1.254 . S
C109 O115 1.268 . S
O110 Dy103 2.351 . S
O110 C118 1.249 . S
O111 Dy100 2.326 . S
O111 C118 1.267 . S
O112 C101 1.185 . S
O112 Dy103 2.398 . S
O113 C101 1.355 . S
O113 Dy103 2.491 . S
O114 Dy103 2.403 . S
O114 C109 1.254 . S
O115 Dy100 2.310 . S
O115 Dy103 2.664 . S
O115 C109 1.268 . S
O116 Dy100 2.351 . S
O116 C119 1.249 . S
O117 Dy103 2.326 . S
O117 C119 1.267 . S
C118 O110 1.249 . S
C118 O111 1.267 . S
C119 O116 1.249 . S
C119 O117 1.267 . S
Dy120 O124 2.398 . S
Dy120 O125 2.491 . S
Dy120 O126 2.403 . S
Dy120 O127 2.664 . S
Dy120 O131 2.326 . S
Dy120 O135 2.310 . S
Dy120 O136 2.351 . S
C121 O132 1.185 . S
C121 O133 1.355 . S
C122 O124 1.185 . S
C122 O125 1.355 . S
Dy123 O127 2.310 . S
Dy123 O130 2.351 . S
Dy123 O132 2.398 . S
Dy123 O133 2.491 . S
Dy123 O134 2.403 . S
Dy123 O135 2.664 . S
Dy123 O137 2.326 . S
O124 Dy120 2.398 . S
O124 C122 1.185 . S
O125 Dy120 2.491 . S
O125 C122 1.355 . S
O126 Dy120 2.403 . S
O126 C128 1.254 . S
O127 Dy120 2.664 . S
O127 Dy123 2.310 . S
O127 C128 1.268 . S
C128 O126 1.254 . S
C128 O127 1.268 . S
C129 O134 1.254 . S
C129 O135 1.268 . S
O130 Dy123 2.351 . S
O130 C138 1.249 . S
O131 Dy120 2.326 . S
O131 C138 1.267 . S
O132 C121 1.185 . S
O132 Dy123 2.398 . S
O133 C121 1.355 . S
O133 Dy123 2.491 . S
O134 Dy123 2.403 . S
O134 C129 1.254 . S
O135 Dy120 2.310 . S
O135 Dy123 2.664 . S
O135 C129 1.268 . S
O136 Dy120 2.351 . S
O136 C139 1.249 . S
O137 Dy123 2.326 . S
O137 C139 1.267 . S
C138 O130 1.249 . S
C138 O131 1.267 . S
C139 O136 1.249 . S
C139 O137 1.267 . S
Dy140 O144 2.398 . S
Dy140 O145 2.491 . S
Dy140 O146 2.403 . S
Dy140 O147 2.664 . S
Dy140 O151 2.326 . S
Dy140 O155 2.310 . S
Dy140 O156 2.351 . S
C141 O152 1.185 . S
C141 O153 1.355 . S
C142 O144 1.185 . S
C142 O145 1.355 . S
Dy143 O147 2.310 . S
Dy143 O150 2.351 . S
Dy143 O152 2.398 . S
Dy143 O153 2.491 . S
Dy143 O154 2.403 . S
Dy143 O155 2.664 . S
Dy143 O157 2.326 . S
O144 Dy140 2.398 . S
O144 C142 1.185 . S
O145 Dy140 2.491 . S
O145 C142 1.355 . S
O146 Dy140 2.403 . S
O146 C148 1.254 . S
O147 Dy140 2.664 . S
O147 Dy143 2.310 . S
O147 C148 1.268 . S
C148 O146 1.254 . S
C148 O147 1.268 . S
C149 O154 1.254 . S
C149 O155 1.268 . S
O150 Dy143 2.351 . S
O150 C158 1.249 . S
O151 Dy140 2.326 . S
O151 C158 1.267 . S
O152 C141 1.185 . S
O152 Dy143 2.398 . S
O153 C141 1.355 . S
O153 Dy143 2.491 . S
O154 Dy143 2.403 . S
O154 C149 1.254 . S
O155 Dy140 2.310 . S
O155 Dy143 2.664 . S
O155 C149 1.268 . S
O156 Dy140 2.351 . S
O156 C159 1.249 . S
O157 Dy143 2.326 . S
O157 C159 1.267 . S
C158 O150 1.249 . S
C158 O151 1.267 . S
C159 O156 1.249 . S
C159 O157 1.267 . S
Dy160 O164 2.398 . S
Dy160 O165 2.491 . S
Dy160 O166 2.403 . S
Dy160 O167 2.664 . S
Dy160 O171 2.326 . S
Dy160 O175 2.310 . S
Dy160 O176 2.351 . S
C161 O172 1.185 . S
C161 O173 1.355 . S
C162 O164 1.185 . S
C162 O165 1.355 . S
Dy163 O167 2.310 . S
Dy163 O170 2.351 . S
Dy163 O172 2.398 . S
Dy163 O173 2.491 . S
Dy163 O174 2.403 . S
Dy163 O175 2.664 . S
Dy163 O177 2.326 . S
O164 Dy160 2.398 . S
O164 C162 1.185 . S
O165 Dy160 2.491 . S
O165 C162 1.355 . S
O166 Dy160 2.403 . S
O166 C168 1.254 . S
O167 Dy160 2.664 . S
O167 Dy163 2.310 . S
O167 C168 1.268 . S
C168 O166 1.254 . S
C168 O167 1.268 . S
C169 O174 1.254 . S
C169 O175 1.268 . S
O170 Dy163 2.351 . S
O170 C178 1.249 . S
O171 Dy160 2.326 . S
O171 C178 1.267 . S
O172 C161 1.185 . S
O172 Dy163 2.398 . S
O173 C161 1.355 . S
O173 Dy163 2.491 . S
O174 Dy163 2.403 . S
O174 C169 1.254 . S
O175 Dy160 2.310 . S
O175 Dy163 2.664 . S
O175 C169 1.268 . S
O176 Dy160 2.351 . S
O176 C179 1.249 . S
O177 Dy163 2.326 . S
O177 C179 1.267 . S
C178 O170 1.249 . S
C178 O171 1.267 . S
C179 O176 1.249 . S
C179 O177 1.267 . S
Dy180 O184 2.398 . S
Dy180 O185 2.491 . S
Dy180 O186 2.403 . S
Dy180 O187 2.664 . S
Dy180 O191 2.326 . S
Dy180 O195 2.310 . S
Dy180 O196 2.351 . S
C181 O192 1.185 . S
C181 O193 1.355 . S
C182 O184 1.185 . S
C182 O185 1.355 . S
Dy183 O187 2.310 . S
Dy183 O190 2.351 . S
Dy183 O192 2.398 . S
Dy183 O193 2.491 . S
Dy183 O194 2.403 . S
Dy183 O195 2.664 . S
Dy183 O197 2.326 . S
O184 Dy180 2.398 . S
O184 C182 1.185 . S
O185 Dy180 2.491 . S
O185 C182 1.355 . S
O186 Dy180 2.403 . S
O186 C188 1.254 . S
O187 Dy180 2.664 . S
O187 Dy183 2.310 . S
O187 C188 1.268 . S
C188 O186 1.254 . S
C188 O187 1.268 . S
C189 O194 1.254 . S
C189 O195 1.268 . S
O190 Dy183 2.351 . S
O190 C198 1.249 . S
O191 Dy180 2.326 . S
O191 C198 1.267 . S
O192 C181 1.185 . S
O192 Dy183 2.398 . S
O193 C181 1.355 . S
O193 Dy183 2.491 . S
O194 Dy183 2.403 . S
O194 C189 1.254 . S
O195 Dy180 2.310 . S
O195 Dy183 2.664 . S
O195 C189 1.268 . S
O196 Dy180 2.351 . S
O196 C199 1.249 . S
O197 Dy183 2.326 . S
O197 C199 1.267 . S
C198 O190 1.249 . S
C198 O191 1.267 . S
C199 O196 1.249 . S
C199 O197 1.267 . S
Dy200 O204 2.398 . S
Dy200 O205 2.491 . S
Dy200 O206 2.403 1_556 S
Dy200 O207 2.664 1_556 S
Dy200 O211 2.326 1_556 S
Dy200 O215 2.310 . S
Dy200 O216 2.351 . S
C201 O212 1.185 . S
C201 O213 1.355 . S
C202 O204 1.185 . S
C202 O205 1.355 . S
Dy203 O207 2.310 . S
Dy203 O210 2.351 . S
Dy203 O212 2.398 . S
Dy203 O213 2.491 . S
Dy203 O214 2.403 . S
Dy203 O215 2.664 1_554 S
Dy203 O217 2.326 . S
O204 Dy200 2.398 . S
O204 C202 1.185 . S
O205 Dy200 2.491 . S
O205 C202 1.355 . S
O206 Dy200 2.403 1_554 S
O206 C208 1.254 . S
O207 Dy200 2.664 1_554 S
O207 Dy203 2.310 . S
O207 C208 1.268 . S
C208 O206 1.254 . S
C208 O207 1.268 . S
C209 O214 1.254 1_556 S
C209 O215 1.268 . S
O210 Dy203 2.351 . S
O210 C218 1.249 . S
O211 Dy200 2.326 1_554 S
O211 C218 1.267 . S
O212 C201 1.185 . S
O212 Dy203 2.398 . S
O213 C201 1.355 . S
O213 Dy203 2.491 . S
O214 Dy203 2.403 . S
O214 C209 1.254 1_554 S
O215 Dy200 2.310 . S
O215 Dy203 2.664 1_556 S
O215 C209 1.268 . S
O216 Dy200 2.351 . S
O216 C219 1.249 1_556 S
O217 Dy203 2.326 . S
O217 C219 1.267 . S
C218 O210 1.249 . S
C218 O211 1.267 . S
C219 O216 1.249 1_554 S
C219 O217 1.267 . S
Dy220 O224 2.398 . S
Dy220 O225 2.491 . S
Dy220 O226 2.403 . S
Dy220 O227 2.664 . S
Dy220 O231 2.326 . S
Dy220 O235 2.310 . S
Dy220 O236 2.351 . S
C221 O232 1.185 . S
C221 O233 1.355 . S
C222 O224 1.185 . S
C222 O225 1.355 . S
Dy223 O227 2.310 . S
Dy223 O230 2.351 . S
Dy223 O232 2.398 . S
Dy223 O233 2.491 . S
Dy223 O234 2.403 . S
Dy223 O235 2.664 . S
Dy223 O237 2.326 . S
O224 Dy220 2.398 . S
O224 C222 1.185 . S
O225 Dy220 2.491 . S
O225 C222 1.355 . S
O226 Dy220 2.403 . S
O226 C228 1.254 . S
O227 Dy220 2.664 . S
O227 Dy223 2.310 . S
O227 C228 1.268 . S
C228 O226 1.254 . S
C228 O227 1.268 . S
C229 O234 1.254 . S
C229 O235 1.268 . S
O230 Dy223 2.351 . S
O230 C238 1.249 . S
O231 Dy220 2.326 . S
O231 C238 1.267 . S
O232 C221 1.185 . S
O232 Dy223 2.398 . S
O233 C221 1.355 . S
O233 Dy223 2.491 . S
O234 Dy223 2.403 . S
O234 C229 1.254 . S
O235 Dy220 2.310 . S
O235 Dy223 2.664 . S
O235 C229 1.268 . S
O236 Dy220 2.351 . S
O236 C239 1.249 . S
O237 Dy223 2.326 . S
O237 C239 1.267 . S
C238 O230 1.249 . S
C238 O231 1.267 . S
C239 O236 1.249 . S
C239 O237 1.267 . S
Dy240 O244 2.398 . S
Dy240 O245 2.491 . S
Dy240 O246 2.403 . S
Dy240 O247 2.664 . S
Dy240 O251 2.326 . S
Dy240 O255 2.310 . S
Dy240 O256 2.351 . S
C241 O252 1.185 . S
C241 O253 1.355 . S
C242 O244 1.185 . S
C242 O245 1.355 . S
Dy243 O247 2.310 . S
Dy243 O250 2.351 . S
Dy243 O252 2.398 . S
Dy243 O253 2.491 . S
Dy243 O254 2.403 . S
Dy243 O255 2.664 . S
Dy243 O257 2.326 . S
O244 Dy240 2.398 . S
O244 C242 1.185 . S
O245 Dy240 2.491 . S
O245 C242 1.355 . S
O246 Dy240 2.403 . S
O246 C248 1.254 . S
O247 Dy240 2.664 . S
O247 Dy243 2.310 . S
O247 C248 1.268 . S
C248 O246 1.254 . S
C248 O247 1.268 . S
C249 O254 1.254 . S
C249 O255 1.268 . S
O250 Dy243 2.351 . S
O250 C258 1.249 . S
O251 Dy240 2.326 . S
O251 C258 1.267 . S
O252 C241 1.185 . S
O252 Dy243 2.398 . S
O253 C241 1.355 . S
O253 Dy243 2.491 . S
O254 Dy243 2.403 . S
O254 C249 1.254 . S
O255 Dy240 2.310 . S
O255 Dy243 2.664 . S
O255 C249 1.268 . S
O256 Dy240 2.351 . S
O256 C259 1.249 . S
O257 Dy243 2.326 . S
O257 C259 1.267 . S
C258 O250 1.249 . S
C258 O251 1.267 . S
C259 O256 1.249 . S
C259 O257 1.267 . S
Dy260 O264 2.398 . S
Dy260 O265 2.491 . S
Dy260 O266 2.403 . S
Dy260 O267 2.664 . S
Dy260 O271 2.326 . S
Dy260 O275 2.310 . S
Dy260 O276 2.351 . S
C261 O272 1.185 . S
C261 O273 1.355 . S
C262 O264 1.185 . S
C262 O265 1.355 . S
Dy263 O267 2.310 . S
Dy263 O270 2.351 . S
Dy263 O272 2.398 . S
Dy263 O273 2.491 . S
Dy263 O274 2.403 . S
Dy263 O275 2.664 . S
Dy263 O277 2.326 . S
O264 Dy260 2.398 . S
O264 C262 1.185 . S
O265 Dy260 2.491 . S
O265 C262 1.355 . S
O266 Dy260 2.403 . S
O266 C268 1.254 . S
O267 Dy260 2.664 . S
O267 Dy263 2.310 . S
O267 C268 1.268 . S
C268 O266 1.254 . S
C268 O267 1.268 . S
C269 O274 1.254 . S
C269 O275 1.268 . S
O270 Dy263 2.351 . S
O270 C278 1.249 . S
O271 Dy260 2.326 . S
O271 C278 1.267 . S
O272 C261 1.185 . S
O272 Dy263 2.398 . S
O273 C261 1.355 . S
O273 Dy263 2.491 . S
O274 Dy263 2.403 . S
O274 C269 1.254 . S
O275 Dy260 2.310 . S
O275 Dy263 2.664 . S
O275 C269 1.268 . S
O276 Dy260 2.351 . S
O276 C279 1.249 . S
O277 Dy263 2.326 . S
O277 C279 1.267 . S
C278 O270 1.249 . S
C278 O271 1.267 . S
C279 O276 1.249 . S
C279 O277 1.267 . S
Dy280 O284 2.398 . S
Dy280 O285 2.491 . S
Dy280 O286 2.403 . S
Dy280 O287 2.664 1_556 S
Dy280 O291 2.326 . S
Dy280 O295 2.310 . S
Dy280 O296 2.351 . S
C281 O292 1.185 . S
C281 O293 1.355 . S
C282 O284 1.185 . S
C282 O285 1.355 . S
Dy283 O287 2.310 . S
Dy283 O290 2.351 . S
Dy283 O292 2.398 . S
Dy283 O293 2.491 . S
Dy283 O294 2.403 1_554 S
Dy283 O295 2.664 1_554 S
Dy283 O297 2.326 1_554 S
O284 Dy280 2.398 . S
O284 C282 1.185 . S
O285 Dy280 2.491 . S
O285 C282 1.355 . S
O286 Dy280 2.403 . S
O286 C288 1.254 1_556 S
O287 Dy280 2.664 1_554 S
O287 Dy283 2.310 . S
O287 C288 1.268 . S
C288 O286 1.254 1_554 S
C288 O287 1.268 . S
C289 O294 1.254 . S
C289 O295 1.268 . S
O290 Dy283 2.351 . S
O290 C298 1.249 1_554 S
O291 Dy280 2.326 . S
O291 C298 1.267 . S
O292 C281 1.185 . S
O292 Dy283 2.398 . S
O293 C281 1.355 . S
O293 Dy283 2.491 . S
O294 Dy283 2.403 1_556 S
O294 C289 1.254 . S
O295 Dy280 2.310 . S
O295 Dy283 2.664 1_556 S
O295 C289 1.268 . S
O296 Dy280 2.351 . S
O296 C299 1.249 . S
O297 Dy283 2.326 1_556 S
O297 C299 1.267 . S
C298 O290 1.249 1_556 S
C298 O291 1.267 . S
C299 O296 1.249 . S
C299 O297 1.267 . S
Dy300 O304 2.398 . S
Dy300 O305 2.491 . S
Dy300 O306 2.403 . S
Dy300 O307 2.664 . S
Dy300 O311 2.326 . S
Dy300 O315 2.310 . S
Dy300 O316 2.351 . S
C301 O312 1.185 . S
C301 O313 1.355 . S
C302 O304 1.185 . S
C302 O305 1.355 . S
Dy303 O307 2.310 . S
Dy303 O310 2.351 . S
Dy303 O312 2.398 . S
Dy303 O313 2.491 . S
Dy303 O314 2.403 . S
Dy303 O315 2.664 . S
Dy303 O317 2.326 . S
O304 Dy300 2.398 . S
O304 C302 1.185 . S
O305 Dy300 2.491 . S
O305 C302 1.355 . S
O306 Dy300 2.403 . S
O306 C308 1.254 . S
O307 Dy300 2.664 . S
O307 Dy303 2.310 . S
O307 C308 1.268 . S
C308 O306 1.254 . S
C308 O307 1.268 . S
C309 O314 1.254 . S
C309 O315 1.268 . S
O310 Dy303 2.351 . S
O310 C318 1.249 . S
O311 Dy300 2.326 . S
O311 C318 1.267 . S
O312 C301 1.185 . S
O312 Dy303 2.398 . S
O313 C301 1.355 . S
O313 Dy303 2.491 . S
O314 Dy303 2.403 . S
O314 C309 1.254 . S
O315 Dy300 2.310 . S
O315 Dy303 2.664 . S
O315 C309 1.268 . S
O316 Dy300 2.351 . S
O316 C319 1.249 . S
O317 Dy303 2.326 . S
O317 C319 1.267 . S
C318 O310 1.249 . S
C318 O311 1.267 . S
C319 O316 1.249 . S
C319 O317 1.267 . S
C320 C321 1.369 . S
C320 C322 1.419 . S
C320 H324 0.930 . S
C321 C320 1.369 . S
C321 C330 1.429 . S
C322 C320 1.419 . S
C322 C323 1.363 . S
C322 H325 0.929 . S
C323 C322 1.363 . S
C323 C329 1.428 . S
H324 C320 0.930 . S
H325 C322 0.929 . S
S326 N327 1.613 . S
S326 N328 1.610 . S
N327 S326 1.613 . S
N327 C330 1.350 . S
N328 S326 1.610 . S
N328 C329 1.351 . S
C329 C323 1.428 . S
C329 N328 1.351 . S
C329 C330 1.434 . S
C330 C321 1.429 . S
C330 N327 1.350 . S
C330 C329 1.434 . S
C331 C332 1.369 . S
C331 C333 1.419 . S
C331 H335 0.930 . S
C332 C331 1.369 . S
C332 C341 1.429 . S
C333 C331 1.419 . S
C333 C334 1.363 . S
C333 H336 0.929 . S
C334 C333 1.363 . S
C334 C340 1.428 . S
H335 C331 0.930 . S
H336 C333 0.929 . S
S337 N338 1.613 . S
S337 N339 1.610 . S
N338 S337 1.613 . S
N338 C341 1.350 . S
N339 S337 1.610 . S
N339 C340 1.351 . S
C340 C334 1.428 . S
C340 N339 1.351 . S
C340 C341 1.434 . S
C341 C332 1.429 . S
C341 N338 1.350 . S
C341 C340 1.434 . S
C342 C343 1.369 . S
C342 C344 1.419 1_455 S
C342 H346 0.930 . S
C343 C342 1.369 . S
C343 C352 1.429 . S
C344 C342 1.419 1_655 S
C344 C345 1.363 . S
C344 H347 0.929 . S
C345 C344 1.363 . S
C345 C351 1.431 . S
H346 C342 0.930 . S
H347 C344 0.929 . S
S348 N349 1.613 . S
S348 N350 1.610 . S
N349 S348 1.613 . S
N349 C352 1.350 . S
N350 S348 1.610 . S
N350 C351 1.351 1_455 S
C351 C345 1.431 . S
C351 N350 1.351 1_655 S
C351 C352 1.431 1_655 S
C352 C343 1.429 . S
C352 N349 1.350 . S
C352 C351 1.431 1_455 S
C353 C354 1.369 1_455 S
C353 C355 1.419 . S
C353 H357 0.930 . S
C354 C353 1.369 1_655 S
C354 C363 1.429 . S
C355 C353 1.419 . S
C355 C356 1.363 . S
C355 H358 0.929 . S
C356 C355 1.363 . S
C356 C362 1.428 1_455 S
H357 C353 0.930 . S
H358 C355 0.929 . S
S359 N360 1.613 . S
S359 N361 1.610 . S
N360 S359 1.613 . S
N360 C363 1.350 . S
N361 S359 1.610 . S
N361 C362 1.351 . S
C362 C356 1.428 1_655 S
C362 N361 1.351 . S
C362 C363 1.434 . S
C363 C354 1.429 . S
C363 N360 1.350 . S
C363 C362 1.434 . S
C364 C365 1.369 . S
C364 C366 1.419 . S
C364 H368 0.930 . S
C365 C364 1.369 . S
C365 C374 1.429 . S
C366 C364 1.419 . S
C366 C367 1.363 . S
C366 H369 0.929 . S
C367 C366 1.363 . S
C367 C373 1.428 . S
H368 C364 0.930 . S
H369 C366 0.929 . S
S370 N371 1.613 . S
S370 N372 1.610 . S
N371 S370 1.613 . S
N371 C374 1.350 . S
N372 S370 1.610 . S
N372 C373 1.351 . S
C373 C367 1.428 . S
C373 N372 1.351 . S
C373 C374 1.434 . S
C374 C365 1.429 . S
C374 N371 1.350 . S
C374 C373 1.434 . S
C375 C376 1.369 . S
C375 C377 1.419 . S
C375 H379 0.930 . S
C376 C375 1.369 . S
C376 C385 1.429 . S
C377 C375 1.419 . S
C377 C378 1.363 . S
C377 H380 0.929 . S
C378 C377 1.363 . S
C378 C384 1.428 . S
H379 C375 0.930 . S
H380 C377 0.929 . S
S381 N382 1.613 . S
S381 N383 1.610 . S
N382 S381 1.613 . S
N382 C385 1.350 . S
N383 S381 1.610 . S
N383 C384 1.351 . S
C384 C378 1.428 . S
C384 N383 1.351 . S
C384 C385 1.434 . S
C385 C376 1.429 . S
C385 N382 1.350 . S
C385 C384 1.434 . S
C386 C387 1.369 . S
C386 C388 1.419 . S
C386 H390 0.930 . S
C387 C386 1.369 . S
C387 C396 1.429 1_655 S
C388 C386 1.419 . S
C388 C389 1.363 1_655 S
C388 H391 0.929 . S
C389 C388 1.363 1_455 S
C389 C395 1.428 . S
H390 C386 0.930 . S
H391 C388 0.929 . S
S392 N393 1.613 . S
S392 N394 1.610 . S
N393 S392 1.613 . S
N393 C396 1.350 . S
N394 S392 1.610 . S
N394 C395 1.351 . S
C395 C389 1.428 . S
C395 N394 1.351 . S
C395 C396 1.434 . S
C396 C387 1.429 1_455 S
C396 N393 1.350 . S
C396 C395 1.434 . S
C397 C398 1.369 1_655 S
C397 C399 1.419 . S
C397 H401 0.930 . S
C398 C397 1.369 1_455 S
C398 C407 1.429 . S
C399 C397 1.419 . S
C399 C400 1.363 . S
C399 H402 0.929 . S
C400 C399 1.363 . S
C400 C406 1.428 1_655 S
H401 C397 0.930 . S
H402 C399 0.929 . S
S403 N404 1.613 . S
S403 N405 1.610 . S
N404 S403 1.613 . S
N404 C407 1.350 . S
N405 S403 1.610 . S
N405 C406 1.351 . S
C406 C400 1.428 1_455 S
C406 N405 1.351 . S
C406 C407 1.434 . S
C407 C398 1.429 . S
C407 N404 1.350 . S
C407 C406 1.434 . S
C408 C409 1.369 . S
C408 C410 1.419 1_556 S
C408 H412 0.930 . S
C409 C408 1.369 . S
C409 C418 1.429 . S
C410 C408 1.419 1_554 S
C410 C411 1.363 1_554 S
C410 H413 0.929 . S
C411 C410 1.363 1_556 S
C411 C417 1.428 . S
H412 C408 0.930 . S
H413 C410 0.929 . S
S414 N415 1.613 . S
S414 N416 1.610 . S
N415 S414 1.613 . S
N415 C418 1.350 . S
N416 S414 1.610 . S
N416 C417 1.351 . S
C417 C411 1.428 . S
C417 N416 1.351 . S
C417 C418 1.434 . S
C418 C409 1.429 . S
C418 N415 1.350 . S
C418 C417 1.434 . S
C419 C420 1.369 . S
C419 C421 1.419 . S
C419 H423 0.930 . S
C420 C419 1.369 . S
C420 C429 1.429 . S
C421 C419 1.419 . S
C421 C422 1.363 . S
C421 H424 0.929 . S
C422 C421 1.363 . S
C422 C428 1.428 . S
H423 C419 0.930 . S
H424 C421 0.929 . S
S425 N426 1.613 . S
S425 N427 1.610 . S
N426 S425 1.613 . S
N426 C429 1.350 . S
N427 S425 1.610 . S
N427 C428 1.351 . S
C428 C422 1.428 . S
C428 N427 1.351 . S
C428 C429 1.434 . S
C429 C420 1.429 . S
C429 N426 1.350 . S
C429 C428 1.434 . S
C430 C431 1.369 . S
C430 C432 1.419 . S
C430 H434 0.930 . S
C431 C430 1.369 . S
C431 C440 1.429 . S
C432 C430 1.419 . S
C432 C433 1.363 . S
C432 H435 0.929 . S
C433 C432 1.363 . S
C433 C439 1.428 . S
H434 C430 0.930 . S
H435 C432 0.929 . S
S436 N437 1.613 . S
S436 N438 1.610 . S
N437 S436 1.613 . S
N437 C440 1.350 . S
N438 S436 1.610 . S
N438 C439 1.351 . S
C439 C433 1.428 . S
C439 N438 1.351 . S
C439 C440 1.434 . S
C440 C431 1.429 . S
C440 N437 1.350 . S
C440 C439 1.434 . S
C441 C442 1.369 . S
C441 C443 1.419 . S
C441 H445 0.930 . S
C442 C441 1.369 . S
C442 C451 1.429 . S
C443 C441 1.419 . S
C443 C444 1.363 . S
C443 H446 0.929 . S
C444 C443 1.363 . S
C444 C450 1.428 . S
H445 C441 0.930 . S
H446 C443 0.929 . S
S447 N448 1.613 . S
S447 N449 1.610 . S
N448 S447 1.613 . S
N448 C451 1.350 . S
N449 S447 1.610 . S
N449 C450 1.351 . S
C450 C444 1.428 . S
C450 N449 1.351 . S
C450 C451 1.434 . S
C451 C442 1.429 . S
C451 N448 1.350 . S
C451 C450 1.434 . S
C452 C453 1.369 1_556 S
C452 C454 1.419 1_556 S
C452 H456 0.930 . S
C453 C452 1.369 1_554 S
C453 C462 1.429 . S
C454 C452 1.419 1_554 S
C454 C455 1.363 . S
C454 H457 0.929 . S
C455 C454 1.363 . S
C455 C461 1.428 . S
H456 C452 0.930 . S
H457 C454 0.929 . S
S458 N459 1.613 . S
S458 N460 1.610 . S
N459 S458 1.613 . S
N459 C462 1.350 . S
N460 S458 1.610 . S
N460 C461 1.351 . S
C461 C455 1.428 . S
C461 N460 1.351 . S
C461 C462 1.434 . S
C462 C453 1.429 . S
C462 N459 1.350 . S
C462 C461 1.434 . S
C463 C464 1.369 . S
C463 C465 1.419 . S
C463 H467 0.930 . S
C464 C463 1.369 . S
C464 C473 1.429 . S
C465 C463 1.419 . S
C465 C466 1.363 . S
C465 H468 0.929 . S
C466 C465 1.363 . S
C466 C472 1.428 . S
H467 C463 0.930 . S
H468 C465 0.929 . S
S469 N470 1.613 . S
S469 N471 1.610 . S
N470 S469 1.613 . S
N470 C473 1.350 . S
N471 S469 1.610 . S
N471 C472 1.351 . S
C472 C466 1.428 . S
C472 N471 1.351 . S
C472 C473 1.434 . S
C473 C464 1.429 . S
C473 N470 1.350 . S
C473 C472 1.434 . S
C474 C475 1.369 . S
C474 C476 1.419 . S
C474 H478 0.930 . S
C475 C474 1.369 . S
C475 C484 1.429 . S
C476 C474 1.419 . S
C476 C477 1.363 . S
C476 H479 0.929 . S
C477 C476 1.363 . S
C477 C483 1.428 . S
H478 C474 0.930 . S
H479 C476 0.929 . S
S480 N481 1.613 . S
S480 N482 1.610 . S
N481 S480 1.613 . S
N481 C484 1.350 . S
N482 S480 1.610 . S
N482 C483 1.351 . S
C483 C477 1.428 . S
C483 N482 1.351 . S
C483 C484 1.434 . S
C484 C475 1.429 . S
C484 N481 1.350 . S
C484 C483 1.434 . S
C485 C486 1.369 . S
C485 C487 1.419 . S
C485 H489 0.930 . S
C486 C485 1.369 . S
C486 C495 1.429 . S
C487 C485 1.419 . S
C487 C488 1.363 . S
C487 H490 0.929 . S
C488 C487 1.363 . S
C488 C494 1.428 . S
H489 C485 0.930 . S
H490 C487 0.929 . S
S491 N492 1.613 . S
S491 N493 1.610 . S
N492 S491 1.613 . S
N492 C495 1.350 . S
N493 S491 1.610 . S
N493 C494 1.351 . S
C494 C488 1.428 . S
C494 N493 1.351 . S
C494 C495 1.434 . S
C495 C486 1.429 . S
C495 N492 1.350 . S
C495 C494 1.434 . S
C496 C497 1.369 . S
C496 C498 1.419 . S
C496 H500 0.930 . S
C497 C496 1.369 . S
C497 C506 1.429 . S
C498 C496 1.419 . S
C498 C499 1.363 . S
C498 H501 0.929 . S
C499 C498 1.363 . S
C499 C505 1.428 . S
H500 C496 0.930 . S
H501 C498 0.929 . S
S502 N503 1.613 . S
S502 N504 1.610 . S
N503 S502 1.613 . S
N503 C506 1.350 . S
N504 S502 1.610 . S
N504 C505 1.351 . S
C505 C499 1.428 . S
C505 N504 1.351 . S
C505 C506 1.434 . S
C506 C497 1.429 . S
C506 N503 1.350 . S
C506 C505 1.434 . S
C507 C508 1.369 1_565 S
C507 C509 1.419 . S
C507 H511 0.930 . S
C508 C507 1.369 1_545 S
C508 C517 1.429 1_545 S
C509 C507 1.419 . S
C509 C510 1.363 . S
C509 H512 0.929 . S
C510 C509 1.363 . S
C510 C516 1.428 . S
H511 C507 0.930 . S
H512 C509 0.929 . S
S513 N514 1.613 1_565 S
S513 N515 1.610 . S
N514 S513 1.613 1_545 S
N514 C517 1.350 1_545 S
N515 S513 1.610 . S
N515 C516 1.351 . S
C516 C510 1.428 . S
C516 N515 1.351 . S
C516 C517 1.434 . S
C517 C508 1.429 1_565 S
C517 N514 1.350 1_565 S
C517 C516 1.434 . S
C518 C519 1.369 . S
C518 C520 1.419 . S
C518 H522 0.930 1_556 S
C519 C518 1.369 . S
C519 C528 1.429 . S
C520 C518 1.419 . S
C520 C521 1.363 . S
C520 H523 0.929 . S
C521 C520 1.363 . S
C521 C527 1.428 . S
H522 C518 0.930 1_554 S
H523 C520 0.929 . S
S524 N525 1.613 . S
S524 N526 1.610 . S
N525 S524 1.613 . S
N525 C528 1.350 . S
N526 S524 1.610 . S
N526 C527 1.351 . S
C527 C521 1.428 . S
C527 N526 1.351 . S
C527 C528 1.434 . S
C528 C519 1.429 . S
C528 N525 1.350 . S
C528 C527 1.434 . S
C529 C530 1.368 1_545 S
C529 C531 1.437 . S
C529 H533 0.912 1_545 S
C530 C529 1.368 1_565 S
C530 C539 1.429 1_565 S
C531 C529 1.437 . S
C531 C532 1.363 . S
C531 H534 0.929 . S
C532 C531 1.363 . S
C532 C538 1.428 . S
H533 C529 0.912 1_565 S
H534 C531 0.929 . S
S535 N536 1.613 . S
S535 N537 1.610 . S
N536 S535 1.613 . S
N536 C539 1.350 . S
N537 S535 1.610 . S
N537 C538 1.351 . S
C538 C532 1.428 . S
C538 N537 1.351 . S
C538 C539 1.434 . S
C539 C530 1.429 1_545 S
C539 N536 1.350 . S
C539 C538 1.434 . S
C540 C541 1.369 . S
C540 C542 1.419 . S
C540 H544 0.930 . S
C541 C540 1.369 . S
C541 C550 1.429 . S
C542 C540 1.419 . S
C542 C543 1.363 . S
C542 H545 0.929 . S
C543 C542 1.363 . S
C543 C549 1.428 . S
H544 C540 0.930 . S
H545 C542 0.929 . S
S546 N547 1.613 . S
S546 N548 1.610 . S
N547 S546 1.613 . S
N547 C550 1.350 . S
N548 S546 1.610 . S
N548 C549 1.351 . S
C549 C543 1.428 . S
C549 N548 1.351 . S
C549 C550 1.434 . S
C550 C541 1.429 . S
C550 N547 1.350 . S
C550 C549 1.434 . S
C551 C552 1.369 . S
C551 C553 1.419 . S
C551 H555 0.930 . S
C552 C551 1.369 . S
C552 C561 1.429 . S
C553 C551 1.419 . S
C553 C554 1.363 1_545 S
C553 H556 0.929 1_545 S
C554 C553 1.363 1_565 S
C554 C560 1.428 1_565 S
H555 C551 0.930 . S
H556 C553 0.929 1_565 S
S557 N558 1.613 . S
S557 N559 1.610 . S
N558 S557 1.613 . S
N558 C561 1.350 . S
N559 S557 1.610 . S
N559 C560 1.351 . S
C560 C554 1.428 1_545 S
C560 N559 1.351 . S
C560 C561 1.434 . S
C561 C552 1.429 . S
C561 N558 1.350 . S
C561 C560 1.434 . S
C562 C563 1.369 . S
C562 C564 1.419 . S
C562 H566 0.930 . S
C563 C562 1.369 . S
C563 C572 1.429 . S
C564 C562 1.419 . S
C564 C565 1.363 . S
C564 H567 0.929 . S
C565 C564 1.363 . S
C565 C571 1.428 . S
H566 C562 0.930 . S
H567 C564 0.929 . S
S568 N569 1.613 . S
S568 N570 1.610 . S
N569 S568 1.613 . S
N569 C572 1.350 . S
N570 S568 1.610 . S
N570 C571 1.351 . S
C571 C565 1.428 . S
C571 N570 1.351 . S
C571 C572 1.434 . S
C572 C563 1.429 . S
C572 N569 1.350 . S
C572 C571 1.434 . S
C573 C574 1.369 1_565 S
C573 C575 1.419 . S
C573 H577 0.930 . S
C574 C573 1.369 1_545 S
C574 C583 1.429 . S
C575 C573 1.419 . S
C575 C576 1.363 . S
C575 H578 0.929 . S
C576 C575 1.363 . S
C576 C582 1.428 . S
H577 C573 0.930 . S
H578 C575 0.929 . S
S579 N580 1.613 . S
S579 N581 1.610 1_545 S
N580 S579 1.613 . S
N580 C583 1.354 . S
N581 S579 1.610 1_565 S
N581 C582 1.351 . S
C582 C576 1.428 . S
C582 N581 1.351 . S
C582 C583 1.429 1_565 S
C583 C574 1.429 . S
C583 N580 1.354 . S
C583 C582 1.429 1_545 S
C584 C585 1.369 . S
C584 C586 1.419 . S
C584 H588 0.930 . S
C585 C584 1.369 . S
C585 C594 1.429 . S
C586 C584 1.419 . S
C586 C587 1.363 . S
C586 H589 0.929 . S
C587 C586 1.363 . S
C587 C593 1.428 . S
H588 C584 0.930 . S
H589 C586 0.929 . S
S590 N591 1.613 . S
S590 N592 1.610 . S
N591 S590 1.613 . S
N591 C594 1.350 . S
N592 S590 1.610 . S
N592 C593 1.351 . S
C593 C587 1.428 . S
C593 N592 1.351 . S
C593 C594 1.434 . S
C594 C585 1.429 . S
C594 N591 1.350 . S
C594 C593 1.434 . S
C595 C596 1.369 . S
C595 C597 1.419 . S
C595 H599 0.930 . S
C596 C595 1.369 . S
C596 C605 1.429 . S
C597 C595 1.419 . S
C597 C598 1.363 . S
C597 H600 0.929 . S
C598 C597 1.363 . S
C598 C604 1.428 . S
H599 C595 0.930 . S
H600 C597 0.929 . S
S601 N602 1.613 . S
S601 N603 1.610 . S
N602 S601 1.613 . S
N602 C605 1.350 . S
N603 S601 1.610 . S
N603 C604 1.351 . S
C604 C598 1.428 . S
C604 N603 1.351 . S
C604 C605 1.434 . S
C605 C596 1.429 . S
C605 N602 1.350 . S
C605 C604 1.434 . S
C606 C607 1.369 . S
C606 C608 1.419 1_655 S
C606 H610 0.930 . S
C607 C606 1.369 . S
C607 C616 1.429 1_655 S
C608 C606 1.419 1_455 S
C608 C609 1.363 . S
C608 H611 0.929 . S
C609 C608 1.363 . S
C609 C615 1.428 . S
H610 C606 0.930 . S
H611 C608 0.929 . S
S612 N613 1.613 1_455 S
S612 N614 1.610 . S
N613 S612 1.613 1_655 S
N613 C616 1.350 1_655 S
N614 S612 1.610 . S
N614 C615 1.351 . S
C615 C609 1.428 . S
C615 N614 1.351 . S
C615 C616 1.434 . S
C616 C607 1.429 1_455 S
C616 N613 1.350 1_455 S
C616 C615 1.434 . S
C617 C618 1.369 . S
C617 C619 1.419 . S
C617 H621 0.930 . S
C618 C617 1.369 . S
C618 C627 1.429 . S
C619 C617 1.419 . S
C619 C620 1.363 . S
C619 H622 0.929 . S
C620 C619 1.363 . S
C620 C626 1.428 . S
H621 C617 0.930 . S
H622 C619 0.929 . S
S623 N624 1.613 . S
S623 N625 1.610 . S
N624 S623 1.613 . S
N624 C627 1.350 . S
N625 S623 1.610 . S
N625 C626 1.351 . S
C626 C620 1.428 . S
C626 N625 1.351 . S
C626 C627 1.434 . S
C627 C618 1.429 . S
C627 N624 1.350 . S
C627 C626 1.434 . S
C628 C629 1.369 . S
C628 C630 1.419 . S
C628 H632 0.930 . S
C629 C628 1.369 . S
C629 C638 1.429 . S
C630 C628 1.419 . S
C630 C631 1.363 . S
C630 H633 0.929 . S
C631 C630 1.363 . S
C631 C637 1.428 . S
H632 C628 0.930 . S
H633 C630 0.929 . S
S634 N635 1.613 . S
S634 N636 1.610 . S
N635 S634 1.613 . S
N635 C638 1.350 . S
N636 S634 1.610 . S
N636 C637 1.351 . S
C637 C631 1.428 . S
C637 N636 1.351 . S
C637 C638 1.434 . S
C638 C629 1.429 . S
C638 N635 1.350 . S
C638 C637 1.434 . S
C639 C640 1.369 . S
C639 C641 1.419 . S
C639 H643 0.930 . S
C640 C639 1.369 . S
C640 C649 1.429 . S
C641 C639 1.419 . S
C641 C642 1.363 . S
C641 H644 0.929 . S
C642 C641 1.363 . S
C642 C648 1.428 . S
H643 C639 0.930 . S
H644 C641 0.929 . S
S645 N646 1.613 . S
S645 N647 1.610 . S
N646 S645 1.613 . S
N646 C649 1.350 . S
N647 S645 1.610 . S
N647 C648 1.351 . S
C648 C642 1.428 . S
C648 N647 1.351 . S
C648 C649 1.434 . S
C649 C640 1.429 . S
C649 N646 1.350 . S
C649 C648 1.434 . S
C650 C651 1.369 1_655 S
C650 C652 1.419 . S
C650 H654 0.930 . S
C651 C650 1.369 1_455 S
C651 C660 1.429 . S
C652 C650 1.419 . S
C652 C653 1.363 . S
C652 H655 0.929 . S
C653 C652 1.363 . S
C653 C659 1.428 1_655 S
H654 C650 0.930 . S
H655 C652 0.929 . S
S656 N657 1.613 . S
S656 N658 1.610 . S
N657 S656 1.613 . S
N657 C660 1.350 . S
N658 S656 1.610 . S
N658 C659 1.351 . S
C659 C653 1.428 1_455 S
C659 N658 1.351 . S
C659 C660 1.434 . S
C660 C651 1.429 . S
C660 N657 1.350 . S
C660 C659 1.434 . S
C661 C662 1.369 . S
C661 C663 1.419 . S
C661 H665 0.930 . S
C662 C661 1.369 . S
C662 C671 1.429 . S
C663 C661 1.419 . S
C663 C664 1.363 . S
C663 H666 0.929 . S
C664 C663 1.363 . S
C664 C670 1.428 . S
H665 C661 0.930 . S
H666 C663 0.929 . S
S667 N668 1.613 . S
S667 N669 1.610 . S
N668 S667 1.613 . S
N668 C671 1.350 . S
N669 S667 1.610 . S
N669 C670 1.351 . S
C670 C664 1.428 . S
C670 N669 1.351 . S
C670 C671 1.434 . S
C671 C662 1.429 . S
C671 N668 1.350 . S
C671 C670 1.434 . S
C672 C673 1.369 1_455 S
C672 C674 1.419 . S
C672 H676 0.930 . S
C673 C672 1.369 1_655 S
C673 C682 1.429 . S
C674 C672 1.419 . S
C674 C675 1.363 . S
C674 H677 0.929 . S
C675 C674 1.363 . S
C675 C681 1.428 1_455 S
H676 C672 0.930 . S
H677 C674 0.929 . S
S678 N679 1.613 . S
S678 N680 1.610 . S
N679 S678 1.613 . S
N679 C682 1.350 . S
N680 S678 1.610 . S
N680 C681 1.351 . S
C681 C675 1.428 1_655 S
C681 N680 1.351 . S
C681 C682 1.434 . S
C682 C673 1.429 . S
C682 N679 1.350 . S
C682 C681 1.434 . S
C683 C684 1.369 . S
C683 C685 1.419 . S
C683 H687 0.930 . S
C684 C683 1.369 . S
C684 C693 1.429 . S
C685 C683 1.419 . S
C685 C686 1.363 . S
C685 H688 0.929 . S
C686 C685 1.363 . S
C686 C692 1.428 . S
H687 C683 0.930 . S
H688 C685 0.929 . S
S689 N690 1.613 . S
S689 N691 1.610 . S
N690 S689 1.613 . S
N690 C693 1.350 . S
N691 S689 1.610 . S
N691 C692 1.351 . S
C692 C686 1.428 . S
C692 N691 1.351 . S
C692 C693 1.434 . S
C693 C684 1.429 . S
C693 N690 1.350 . S
C693 C692 1.434 . S
C694 C695 1.369 . S
C694 C696 1.419 . S
C694 H698 0.930 . S
C695 C694 1.369 . S
C695 C704 1.429 . S
C696 C694 1.419 . S
C696 C697 1.363 . S
C696 H699 0.929 . S
C697 C696 1.363 . S
C697 C703 1.428 . S
H698 C694 0.930 . S
H699 C696 0.929 . S
S700 N701 1.613 . S
S700 N702 1.610 . S
N701 S700 1.613 . S
N701 C704 1.350 . S
N702 S700 1.610 . S
N702 C703 1.351 . S
C703 C697 1.428 . S
C703 N702 1.351 . S
C703 C704 1.434 . S
C704 C695 1.429 . S
C704 N701 1.350 . S
C704 C703 1.434 . S
C705 C706 1.369 . S
C705 C707 1.419 . S
C705 H709 0.930 . S
C706 C705 1.369 . S
C706 C715 1.429 . S
C707 C705 1.419 . S
C707 C708 1.363 . S
C707 H710 0.929 . S
C708 C707 1.363 . S
C708 C714 1.428 . S
H709 C705 0.930 . S
H710 C707 0.929 . S
S711 N712 1.613 . S
S711 N713 1.610 . S
N712 S711 1.613 . S
N712 C715 1.350 . S
N713 S711 1.610 . S
N713 C714 1.351 . S
C714 C708 1.428 . S
C714 N713 1.351 . S
C714 C715 1.434 . S
C715 C706 1.429 . S
C715 N712 1.350 . S
C715 C714 1.434 . S
C716 C717 1.369 . S
C716 C718 1.419 . S
C716 H720 0.930 . S
C717 C716 1.369 . S
C717 C726 1.429 1_455 S
C718 C716 1.419 . S
C718 C719 1.363 1_455 S
C718 H721 0.929 . S
C719 C718 1.363 1_655 S
C719 C725 1.428 . S
H720 C716 0.930 . S
H721 C718 0.929 . S
S722 N723 1.613 . S
S722 N724 1.610 . S
N723 S722 1.613 . S
N723 C726 1.350 . S
N724 S722 1.610 . S
N724 C725 1.351 . S
C725 C719 1.428 . S
C725 N724 1.351 . S
C725 C726 1.434 . S
C726 C717 1.429 1_655 S
C726 N723 1.350 . S
C726 C725 1.434 . S
C727 C728 1.369 . S
C727 C729 1.419 . S
C727 H731 0.930 . S
C728 C727 1.369 . S
C728 C737 1.429 . S
C729 C727 1.419 . S
C729 C730 1.363 . S
C729 H732 0.929 . S
C730 C729 1.363 . S
C730 C736 1.428 . S
H731 C727 0.930 . S
H732 C729 0.929 . S
S733 N734 1.613 . S
S733 N735 1.610 . S
N734 S733 1.613 . S
N734 C737 1.350 . S
N735 S733 1.610 . S
N735 C736 1.351 . S
C736 C730 1.428 . S
C736 N735 1.351 . S
C736 C737 1.434 . S
C737 C728 1.429 . S
C737 N734 1.350 . S
C737 C736 1.434 . S
C738 C739 1.369 . S
C738 C740 1.419 . S
C738 H742 0.930 . S
C739 C738 1.369 . S
C739 C748 1.429 . S
C740 C738 1.419 . S
C740 C741 1.363 . S
C740 H743 0.929 . S
C741 C740 1.363 . S
C741 C747 1.428 . S
H742 C738 0.930 . S
H743 C740 0.929 . S
S744 N745 1.613 . S
S744 N746 1.610 . S
N745 S744 1.613 . S
N745 C748 1.350 . S
N746 S744 1.610 . S
N746 C747 1.351 . S
C747 C741 1.428 . S
C747 N746 1.351 . S
C747 C748 1.434 . S
C748 C739 1.429 . S
C748 N745 1.350 . S
C748 C747 1.434 . S
C749 C750 1.369 . S
C749 C751 1.419 . S
C749 H753 0.930 . S
C750 C749 1.369 . S
C750 C759 1.429 . S
C751 C749 1.419 . S
C751 C752 1.363 . S
C751 H754 0.929 . S
C752 C751 1.363 . S
C752 C758 1.428 . S
H753 C749 0.930 . S
H754 C751 0.929 . S
S755 N756 1.613 . S
S755 N757 1.610 . S
N756 S755 1.613 . S
N756 C759 1.350 . S
N757 S755 1.610 . S
N757 C758 1.351 . S
C758 C752 1.428 . S
C758 N757 1.351 . S
C758 C759 1.434 . S
C759 C750 1.429 . S
C759 N756 1.350 . S
C759 C758 1.434 . S
C760 C761 1.369 . S
C760 C762 1.419 . S
C760 H764 0.930 . S
C761 C760 1.369 . S
C761 C770 1.429 . S
C762 C760 1.419 . S
C762 C763 1.363 . S
C762 H765 0.929 . S
C763 C762 1.363 . S
C763 C769 1.428 . S
H764 C760 0.930 . S
H765 C762 0.929 . S
S766 N767 1.613 . S
S766 N768 1.610 . S
N767 S766 1.613 . S
N767 C770 1.350 . S
N768 S766 1.610 . S
N768 C769 1.351 . S
C769 C763 1.428 . S
C769 N768 1.351 . S
C769 C770 1.434 . S
C770 C761 1.429 . S
C770 N767 1.350 . S
C770 C769 1.434 . S
C771 C772 1.369 . S
C771 C773 1.419 . S
C771 H775 0.930 . S
C772 C771 1.369 . S
C772 C781 1.429 . S
C773 C771 1.419 . S
C773 C774 1.363 . S
C773 H776 0.929 . S
C774 C773 1.363 . S
C774 C780 1.428 . S
H775 C771 0.930 . S
H776 C773 0.929 . S
S777 N778 1.613 . S
S777 N779 1.610 . S
N778 S777 1.613 . S
N778 C781 1.350 . S
N779 S777 1.610 . S
N779 C780 1.351 . S
C780 C774 1.428 . S
C780 N779 1.351 . S
C780 C781 1.434 . S
C781 C772 1.429 . S
C781 N778 1.350 . S
C781 C780 1.434 . S
C782 C783 1.369 . S
C782 C784 1.419 . S
C782 H786 0.930 . S
C783 C782 1.369 . S
C783 C792 1.429 . S
C784 C782 1.419 . S
C784 C785 1.363 . S
C784 H787 0.929 . S
C785 C784 1.363 . S
C785 C791 1.428 . S
H786 C782 0.930 . S
H787 C784 0.929 . S
S788 N789 1.613 . S
S788 N790 1.610 . S
N789 S788 1.613 . S
N789 C792 1.350 . S
N790 S788 1.610 . S
N790 C791 1.351 . S
C791 C785 1.428 . S
C791 N790 1.351 . S
C791 C792 1.434 . S
C792 C783 1.429 . S
C792 N789 1.350 . S
C792 C791 1.434 . S
C793 C794 1.369 . S
C793 C795 1.419 1_454 S
C793 H797 0.930 . S
C794 C793 1.369 . S
C794 C803 1.429 . S
C795 C793 1.419 1_656 S
C795 C796 1.363 . S
C795 H798 0.929 . S
C796 C795 1.363 . S
C796 C802 1.428 . S
H797 C793 0.930 . S
H798 C795 0.929 . S
S799 N800 1.613 . S
S799 N801 1.610 1_554 S
N800 S799 1.613 . S
N800 C803 1.350 1_655 S
N801 S799 1.610 1_556 S
N801 C802 1.351 . S
C802 C796 1.428 . S
C802 N801 1.351 . S
C802 C803 1.434 1_656 S
C803 C794 1.429 . S
C803 N800 1.350 1_455 S
C803 C802 1.434 1_454 S
C804 C805 1.369 . S
C804 C806 1.419 . S
C804 H808 0.930 . S
C805 C804 1.369 . S
C805 C814 1.429 . S
C806 C804 1.419 . S
C806 C807 1.363 . S
C806 H809 0.929 . S
C807 C806 1.363 . S
C807 C813 1.428 . S
H808 C804 0.930 . S
H809 C806 0.929 . S
S810 N811 1.613 . S
S810 N812 1.610 . S
N811 S810 1.613 . S
N811 C814 1.350 . S
N812 S810 1.610 . S
N812 C813 1.351 . S
C813 C807 1.428 . S
C813 N812 1.351 . S
C813 C814 1.434 . S
C814 C805 1.429 . S
C814 N811 1.350 . S
C814 C813 1.434 . S
C815 C816 1.369 . S
C815 C817 1.419 . S
C815 H819 0.930 . S
C816 C815 1.369 . S
C816 C825 1.429 . S
C817 C815 1.419 . S
C817 C818 1.363 . S
C817 H820 0.929 . S
C818 C817 1.363 . S
C818 C824 1.428 . S
H819 C815 0.930 . S
H820 C817 0.929 . S
S821 N822 1.613 . S
S821 N823 1.610 . S
N822 S821 1.613 . S
N822 C825 1.350 . S
N823 S821 1.610 . S
N823 C824 1.351 . S
C824 C818 1.428 . S
C824 N823 1.351 . S
C824 C825 1.434 . S
C825 C816 1.429 . S
C825 N822 1.350 . S
C825 C824 1.434 . S
C826 C827 1.369 1_565 S
C826 C828 1.419 1_556 S
C826 H830 0.930 . S
C827 C826 1.369 1_545 S
C827 C836 1.429 1_455 S
C828 C826 1.419 1_554 S
C828 C829 1.363 1_455 S
C828 H831 0.929 . S
C829 C828 1.363 1_655 S
C829 C835 1.433 1_565 S
H830 C826 0.930 . S
H831 C828 0.929 . S
S832 N833 1.613 . S
S832 N834 1.610 . S
N833 S832 1.613 . S
N833 C836 1.350 . S
N834 S832 1.610 . S
N834 C835 1.351 1_556 S
C835 C829 1.433 1_545 S
C835 N834 1.351 1_554 S
C835 C836 1.429 1_554 S
C836 C827 1.429 1_655 S
C836 N833 1.350 . S
C836 C835 1.429 1_556 S
C837 C838 1.369 1_565 S
C837 C839 1.419 . S
C837 H841 0.930 . S
C838 C837 1.369 1_545 S
C838 C847 1.429 . S
C839 C837 1.419 . S
C839 C840 1.363 . S
C839 H842 0.929 . S
C840 C839 1.363 . S
C840 C846 1.428 1_565 S
H841 C837 0.930 . S
H842 C839 0.929 . S
S843 N844 1.613 . S
S843 N845 1.610 . S
N844 S843 1.613 . S
N844 C847 1.350 . S
N845 S843 1.610 . S
N845 C846 1.351 . S
C846 C840 1.428 1_545 S
C846 N845 1.351 . S
C846 C847 1.434 . S
C847 C838 1.429 . S
C847 N844 1.350 . S
C847 C846 1.434 . S
C321 C18 2.087 . S
C323 C218 2.092 . S
C332 C38 2.088 . S
C334 C238 2.092 . S
C343 C58 2.088 . S
C345 C178 2.092 . S
C354 C78 2.093 . S
C356 C198 2.088 . S
C365 C99 2.087 . S
C367 C299 2.092 . S
C376 C119 2.093 . S
C378 C319 2.088 . S
C387 C139 2.093 . S
C389 C259 2.088 . S
C398 C159 2.092 . S
C400 C279 2.088 . S
C409 C188 2.185 . S
C411 C19 2.199 1_556 S
C420 C208 2.191 . S
C422 C39 2.203 . S
C431 C228 2.186 . S
C433 C59 2.200 . S
C442 C168 2.191 . S
C444 C79 2.203 . S
C453 C98 2.199 1_554 S
C455 C269 2.185 . S
C464 C289 2.191 . S
C466 C118 2.203 . S
C475 C309 2.184 . S
C477 C138 2.199 . S
C486 C249 2.188 . S
C488 C158 2.202 . S
C497 C28 2.187 . S
C499 C179 2.200 . S
C508 C199 2.201 . S
C510 C48 2.188 . S
C519 C219 2.199 1_556 S
C521 C68 2.186 . S
C530 C239 2.204 . S
C532 C8 2.190 . S
C541 C258 2.198 . S
C543 C109 2.185 . S
C552 C129 2.191 . S
C554 C278 2.203 . S
C563 C149 2.187 . S
C565 C298 2.202 1_554 S
C574 C318 2.199 . S
C576 C89 2.186 . S
C585 C2 0.850 . S
C587 C308 0.871 . S
C596 C22 0.862 . S
C598 C88 0.873 . S
C607 C268 0.871 . S
C609 C42 0.858 . S
C618 C128 0.871 . S
C620 C62 0.851 . S
C629 C81 0.852 . S
C631 C229 0.872 . S
C640 C101 0.861 . S
C642 C9 0.872 . S
C651 C189 0.873 . S
C653 C121 0.863 . S
C662 C49 0.871 . S
C664 C141 0.853 . S
C673 C162 0.849 . S
C675 C148 0.871 . S
C684 C182 0.858 . S
C686 C248 0.873 . S
C695 C108 0.873 . S
C697 C202 0.858 . S
C706 C288 0.873 . S
C708 C222 0.858 . S
C717 C241 0.864 . S
C719 C69 0.873 . S
C728 C261 0.853 . S
C730 C169 0.871 . S
C739 C281 0.850 . S
C741 C29 0.871 . S
C750 C209 0.872 . S
C752 C301 0.853 . S
C761 C1 1.406 . S
C763 C242 1.395 . S
C772 C21 1.405 . S
C774 C102 1.397 . S
C783 C41 1.398 . S
C785 C282 1.402 . S
C794 C142 1.393 . S
C796 C61 1.406 . S
C805 C82 1.403 . S
C807 C161 1.397 . S
C816 C201 1.393 . S
C818 C122 1.406 . S
C827 C181 1.393 . S
C829 C262 1.406 . S
C838 C302 1.395 . S
C840 C221 1.405 . S
