# Generated by pormake.
# Topology lvt-a, (3)-cn, num edge types: 1
# Building blocks:
#     Node 0, Type 0, BuildingBlock: WUSLED_clean_sbu_0, # of connection points: 3
#     Node 1, Type 0, BuildingBlock: WUSLED_clean_sbu_0, # of connection points: 3
#     Node 2, Type 0, BuildingBlock: WUSLED_clean_sbu_0, # of connection points: 3
#     Node 3, Type 0, BuildingBlock: WUSLED_clean_sbu_0, # of connection points: 3
#     Node 4, Type 0, BuildingBlock: WUSLED_clean_sbu_0, # of connection points: 3
#     Node 5, Type 0, BuildingBlock: WUSLED_clean_sbu_0, # of connection points: 3
#     Node 6, Type 0, BuildingBlock: WUSLED_clean_sbu_0, # of connection points: 3
#     Node 7, Type 0, BuildingBlock: WUSLED_clean_sbu_0, # of connection points: 3
#     Node 8, Type 0, BuildingBlock: WUSLED_clean_sbu_0, # of connection points: 3
#     Node 9, Type 0, BuildingBlock: WUSLED_clean_sbu_0, # of connection points: 3
#     Node 10, Type 0, BuildingBlock: WUSLED_clean_sbu_0, # of connection points: 3
#     Node 11, Type 0, BuildingBlock: WUSLED_clean_sbu_0, # of connection points: 3
#     Node 12, Type 0, BuildingBlock: WUSLED_clean_sbu_0, # of connection points: 3
#     Node 13, Type 0, BuildingBlock: WUSLED_clean_sbu_0, # of connection points: 3
#     Node 14, Type 0, BuildingBlock: WUSLED_clean_sbu_0, # of connection points: 3
#     Node 15, Type 0, BuildingBlock: WUSLED_clean_sbu_0, # of connection points: 3
#     Node 16, Type 0, BuildingBlock: WUSLED_clean_sbu_0, # of connection points: 3
#     Node 17, Type 0, BuildingBlock: WUSLED_clean_sbu_0, # of connection points: 3
#     Node 18, Type 0, BuildingBlock: WUSLED_clean_sbu_0, # of connection points: 3
#     Node 19, Type 0, BuildingBlock: WUSLED_clean_sbu_0, # of connection points: 3
#     Node 20, Type 0, BuildingBlock: WUSLED_clean_sbu_0, # of connection points: 3
#     Node 21, Type 0, BuildingBlock: WUSLED_clean_sbu_0, # of connection points: 3
#     Node 22, Type 0, BuildingBlock: WUSLED_clean_sbu_0, # of connection points: 3
#     Node 23, Type 0, BuildingBlock: WUSLED_clean_sbu_0, # of connection points: 3
#     Node 24, Type 0, BuildingBlock: WUSLED_clean_sbu_0, # of connection points: 3
#     Node 25, Type 0, BuildingBlock: WUSLED_clean_sbu_0, # of connection points: 3
#     Node 26, Type 0, BuildingBlock: WUSLED_clean_sbu_0, # of connection points: 3
#     Node 27, Type 0, BuildingBlock: WUSLED_clean_sbu_0, # of connection points: 3
#     Node 28, Type 0, BuildingBlock: WUSLED_clean_sbu_0, # of connection points: 3
#     Node 29, Type 0, BuildingBlock: WUSLED_clean_sbu_0, # of connection points: 3
#     Node 30, Type 0, BuildingBlock: WUSLED_clean_sbu_0, # of connection points: 3
#     Node 31, Type 0, BuildingBlock: WUSLED_clean_sbu_0, # of connection points: 3
#     Edge 32, Type (0, 0), BuildingBlock: UVAHIK_clean_linker_0, # of connection points: 2
#     Edge 33, Type (0, 0), BuildingBlock: UVAHIK_clean_linker_0, # of connection points: 2
#     Edge 34, Type (0, 0), BuildingBlock: UVAHIK_clean_linker_0, # of connection points: 2
#     Edge 35, Type (0, 0), BuildingBlock: UVAHIK_clean_linker_0, # of connection points: 2
#     Edge 36, Type (0, 0), BuildingBlock: UVAHIK_clean_linker_0, # of connection points: 2
#     Edge 37, Type (0, 0), BuildingBlock: UVAHIK_clean_linker_0, # of connection points: 2
#     Edge 38, Type (0, 0), BuildingBlock: UVAHIK_clean_linker_0, # of connection points: 2
#     Edge 39, Type (0, 0), BuildingBlock: UVAHIK_clean_linker_0, # of connection points: 2
#     Edge 40, Type (0, 0), BuildingBlock: UVAHIK_clean_linker_0, # of connection points: 2
#     Edge 41, Type (0, 0), BuildingBlock: UVAHIK_clean_linker_0, # of connection points: 2
#     Edge 42, Type (0, 0), BuildingBlock: UVAHIK_clean_linker_0, # of connection points: 2
#     Edge 43, Type (0, 0), BuildingBlock: UVAHIK_clean_linker_0, # of connection points: 2
#     Edge 44, Type (0, 0), BuildingBlock: UVAHIK_clean_linker_0, # of connection points: 2
#     Edge 45, Type (0, 0), BuildingBlock: UVAHIK_clean_linker_0, # of connection points: 2
#     Edge 46, Type (0, 0), BuildingBlock: UVAHIK_clean_linker_0, # of connection points: 2
#     Edge 47, Type (0, 0), BuildingBlock: UVAHIK_clean_linker_0, # of connection points: 2
#     Edge 48, Type (0, 0), BuildingBlock: UVAHIK_clean_linker_0, # of connection points: 2
#     Edge 49, Type (0, 0), BuildingBlock: UVAHIK_clean_linker_0, # of connection points: 2
#     Edge 50, Type (0, 0), BuildingBlock: UVAHIK_clean_linker_0, # of connection points: 2
#     Edge 51, Type (0, 0), BuildingBlock: UVAHIK_clean_linker_0, # of connection points: 2
#     Edge 52, Type (0, 0), BuildingBlock: UVAHIK_clean_linker_0, # of connection points: 2
#     Edge 53, Type (0, 0), BuildingBlock: UVAHIK_clean_linker_0, # of connection points: 2
#     Edge 54, Type (0, 0), BuildingBlock: UVAHIK_clean_linker_0, # of connection points: 2
#     Edge 55, Type (0, 0), BuildingBlock: UVAHIK_clean_linker_0, # of connection points: 2
#     Edge 56, Type (0, 0), BuildingBlock: UVAHIK_clean_linker_0, # of connection points: 2
#     Edge 57, Type (0, 0), BuildingBlock: UVAHIK_clean_linker_0, # of connection points: 2
#     Edge 58, Type (0, 0), BuildingBlock: UVAHIK_clean_linker_0, # of connection points: 2
#     Edge 59, Type (0, 0), BuildingBlock: UVAHIK_clean_linker_0, # of connection points: 2
#     Edge 60, Type (0, 0), BuildingBlock: UVAHIK_clean_linker_0, # of connection points: 2
#     Edge 61, Type (0, 0), BuildingBlock: UVAHIK_clean_linker_0, # of connection points: 2
#     Edge 62, Type (0, 0), BuildingBlock: UVAHIK_clean_linker_0, # of connection points: 2
#     Edge 63, Type (0, 0), BuildingBlock: UVAHIK_clean_linker_0, # of connection points: 2
#     Edge 64, Type (0, 0), BuildingBlock: UVAHIK_clean_linker_0, # of connection points: 2
#     Edge 65, Type (0, 0), BuildingBlock: UVAHIK_clean_linker_0, # of connection points: 2
#     Edge 66, Type (0, 0), BuildingBlock: UVAHIK_clean_linker_0, # of connection points: 2
#     Edge 67, Type (0, 0), BuildingBlock: UVAHIK_clean_linker_0, # of connection points: 2
#     Edge 68, Type (0, 0), BuildingBlock: UVAHIK_clean_linker_0, # of connection points: 2
#     Edge 69, Type (0, 0), BuildingBlock: UVAHIK_clean_linker_0, # of connection points: 2
#     Edge 70, Type (0, 0), BuildingBlock: UVAHIK_clean_linker_0, # of connection points: 2
#     Edge 71, Type (0, 0), BuildingBlock: UVAHIK_clean_linker_0, # of connection points: 2
#     Edge 72, Type (0, 0), BuildingBlock: UVAHIK_clean_linker_0, # of connection points: 2
#     Edge 73, Type (0, 0), BuildingBlock: UVAHIK_clean_linker_0, # of connection points: 2
#     Edge 74, Type (0, 0), BuildingBlock: UVAHIK_clean_linker_0, # of connection points: 2
#     Edge 75, Type (0, 0), BuildingBlock: UVAHIK_clean_linker_0, # of connection points: 2
#     Edge 76, Type (0, 0), BuildingBlock: UVAHIK_clean_linker_0, # of connection points: 2
#     Edge 77, Type (0, 0), BuildingBlock: UVAHIK_clean_linker_0, # of connection points: 2
#     Edge 78, Type (0, 0), BuildingBlock: UVAHIK_clean_linker_0, # of connection points: 2
#     Edge 79, Type (0, 0), BuildingBlock: UVAHIK_clean_linker_0, # of connection points: 2
# Relax obj value: 0.111
# Max RMSD: 0.099
# Mean RMSD: 0.093
data_MOF--net-lvt-a--node1-WUSLED_clean_sbu_0--edge1-UVAHIK_clean_linker_0
_symmetry_space_group_name_H-M    P1
_symmetry_Int_Tables_number       1
_symmetry_cell_setting            triclinic
loop_
_symmetry_equiv_pos_as_xyz
'x, y, z'
_cell_length_a     107.1018
_cell_length_b     111.48848
_cell_length_c     183.34422
_cell_angle_alpha  90.000123
_cell_angle_beta   90.000005
_cell_angle_gamma 89.998652
loop_
_atom_site_label
_atom_site_type_symbol
_atom_site_fract_x
_atom_site_fract_y
_atom_site_fract_z
_atom_type_partial_charge
C0 C 0.1465 0.504 0.05607 0.0
C1 C 0.13632 0.50107 0.0516 0.0
C2 C 0.14962 0.50201 0.04084 0.0
C3 C 0.13786 0.50011 0.04406 0.0
C4 C 0.15983 0.50483 0.04537 0.0
C5 C 0.15826 0.50583 0.05293 0.0
U6 U 0.12529 0.50158 0.07236 0.0
O7 O 0.12859 0.49571 0.08366 0.0
O8 O 0.12177 0.51393 0.08147 0.0
C9 C 0.12587 0.50631 0.08638 0.0
C10 C 0.14471 0.50539 0.06397 0.0
C11 C 0.13489 0.51124 0.09161 0.0
C12 C 0.15554 0.51882 0.09458 0.0
C13 C 0.14728 0.51359 0.08958 0.0
C14 C 0.13909 0.51927 0.10365 0.0
C15 C 0.15148 0.52183 0.10165 0.0
C16 C 0.13088 0.51402 0.09867 0.0
C17 C 0.09201 0.49073 0.069 0.0
C18 C 0.0761 0.49128 0.07843 0.0
C19 C 0.0709 0.48424 0.0663 0.0
C20 C 0.08323 0.48614 0.06409 0.0
C21 C 0.06715 0.48691 0.07348 0.0
C22 C 0.08844 0.49317 0.07621 0.0
C23 C 0.10467 0.49343 0.06643 0.0
O24 O 0.1368 0.51386 0.06583 0.0
O25 O 0.143 0.49534 0.06758 0.0
O26 O 0.11356 0.48639 0.0689 0.0
O27 O 0.1077 0.50485 0.06655 0.0
H28 H 0.12715 0.49966 0.05394 0.0
H29 H 0.12976 0.49811 0.04074 0.0
H30 H 0.16904 0.50621 0.04309 0.0
H31 H 0.16622 0.50807 0.05631 0.0
H32 H 0.16499 0.52078 0.09285 0.0
H33 H 0.1505 0.51154 0.08412 0.0
H34 H 0.13573 0.52132 0.10909 0.0
H35 H 0.12134 0.51224 0.10032 0.0
H36 H 0.07354 0.49331 0.08401 0.0
H37 H 0.06423 0.48104 0.06231 0.0
H38 H 0.08583 0.48427 0.05849 0.0
H39 H 0.09515 0.49671 0.08008 0.0
C40 C 0.74151 0.87931 0.30564 0.0
C41 C 0.74335 0.86912 0.30129 0.0
C42 C 0.74467 0.88162 0.29042 0.0
C43 C 0.74487 0.87025 0.29376 0.0
C44 C 0.74286 0.89183 0.29483 0.0
C45 C 0.74129 0.89067 0.30238 0.0
U46 U 0.74347 0.85974 0.32231 0.0
O47 O 0.74982 0.86328 0.33351 0.0
O48 O 0.73063 0.85715 0.33153 0.0
C49 C 0.73877 0.86108 0.33634 0.0
C50 C 0.7399 0.87804 0.31357 0.0
C51 C 0.73402 0.8701 0.34147 0.0
C52 C 0.72679 0.89026 0.34421 0.0
C53 C 0.7316 0.88191 0.33925 0.0
C54 C 0.72686 0.87506 0.35366 0.0
C55 C 0.72433 0.88692 0.35148 0.0
C56 C 0.73166 0.86674 0.3487 0.0
C57 C 0.75458 0.82746 0.31931 0.0
C58 C 0.75199 0.81128 0.32806 0.0
C59 C 0.76438 0.80816 0.31717 0.0
C60 C 0.76204 0.81996 0.31501 0.0
C61 C 0.75926 0.80363 0.32368 0.0
C62 C 0.7497 0.82313 0.32591 0.0
C63 C 0.75167 0.83959 0.31669 0.0
O64 O 0.73092 0.8707 0.31556 0.0
O65 O 0.75029 0.87643 0.31726 0.0
O66 O 0.75912 0.84816 0.31898 0.0
O67 O 0.73981 0.84258 0.31685 0.0
H68 H 0.74356 0.86027 0.30373 0.0
H69 H 0.74604 0.86219 0.29054 0.0
H70 H 0.74281 0.90073 0.29246 0.0
H71 H 0.73994 0.89864 0.30567 0.0
H72 H 0.72507 0.89934 0.34237 0.0
H73 H 0.73337 0.88464 0.33367 0.0
H74 H 0.72488 0.8721 0.35917 0.0
H75 H 0.73342 0.85764 0.35049 0.0
H76 H 0.74802 0.8081 0.33314 0.0
H77 H 0.76987 0.80247 0.31361 0.0
H78 H 0.76586 0.82316 0.30989 0.0
H79 H 0.74397 0.82884 0.32932 0.0
C80 C 0.35329 0.49592 0.55598 0.0
C81 C 0.36359 0.49824 0.55147 0.0
C82 C 0.35012 0.49831 0.54077 0.0
C83 C 0.36203 0.49939 0.54394 0.0
C84 C 0.3398 0.49607 0.54533 0.0
C85 C 0.34139 0.49488 0.55288 0.0
U86 U 0.37428 0.49848 0.57238 0.0
O87 O 0.37076 0.5043 0.58365 0.0
O88 O 0.3777 0.48611 0.58151 0.0
C89 C 0.37334 0.49368 0.58638 0.0
C90 C 0.35504 0.49448 0.56388 0.0
C91 C 0.36402 0.4887 0.59141 0.0
C92 C 0.34265 0.48318 0.59433 0.0
C93 C 0.35134 0.48822 0.58952 0.0
C94 C 0.35927 0.47902 0.60294 0.0
C95 C 0.34652 0.47847 0.60109 0.0
C96 C 0.36792 0.4841 0.59814 0.0
C97 C 0.40751 0.51027 0.56892 0.0
C98 C 0.42662 0.50588 0.57556 0.0
C99 C 0.42574 0.52296 0.56741 0.0
C100 C 0.41332 0.52026 0.56577 0.0
C101 C 0.43264 0.51565 0.5722 0.0
C102 C 0.41415 0.50323 0.57395 0.0
C103 C 0.39479 0.50706 0.56657 0.0
O104 O 0.36306 0.4861 0.56575 0.0
O105 O 0.35654 0.50452 0.56754 0.0
O106 O 0.38574 0.51394 0.569 0.0
O107 O 0.39202 0.49557 0.56667 0.0
H108 H 0.37287 0.49906 0.55378 0.0
H109 H 0.37022 0.50091 0.5406 0.0
H110 H 0.33048 0.49535 0.54309 0.0
H111 H 0.33333 0.49313 0.55629 0.0
H112 H 0.3329 0.48302 0.59277 0.0
H113 H 0.34817 0.4917 0.58432 0.0
H114 H 0.36263 0.4753 0.60803 0.0
H115 H 0.3777 0.48432 0.59966 0.0
H116 H 0.43166 0.5 0.57923 0.0
H117 H 0.43 0.53069 0.56484 0.0
H118 H 0.40832 0.52585 0.56192 0.0
H119 H 0.40982 0.4955 0.57648 0.0
C120 C 0.75752 0.12181 0.80563 0.0
C121 C 0.75549 0.13191 0.80123 0.0
C122 C 0.75502 0.11931 0.7904 0.0
C123 C 0.7543 0.13068 0.79368 0.0
C124 C 0.75677 0.10916 0.79485 0.0
C125 C 0.75806 0.11042 0.80241 0.0
U126 U 0.75536 0.14144 0.82229 0.0
O127 O 0.75018 0.1377 0.83368 0.0
O128 O 0.76875 0.14495 0.83112 0.0
C129 C 0.7613 0.14059 0.83616 0.0
C130 C 0.75932 0.12323 0.81354 0.0
C131 C 0.76715 0.13208 0.84125 0.0
C132 C 0.77276 0.11182 0.84492 0.0
C133 C 0.76679 0.11964 0.84005 0.0
C134 C 0.77951 0.12881 0.85216 0.0
C135 C 0.77929 0.11635 0.85099 0.0
C136 C 0.77349 0.13658 0.84734 0.0
C137 C 0.74284 0.17324 0.81946 0.0
C138 C 0.74546 0.18937 0.82824 0.0
C139 C 0.7331 0.19257 0.81733 0.0
C140 C 0.73541 0.18077 0.81516 0.0
C141 C 0.73825 0.19707 0.82385 0.0
C142 C 0.74772 0.17753 0.82607 0.0
C143 C 0.74589 0.16118 0.81679 0.0
O144 O 0.76805 0.13095 0.81537 0.0
O145 O 0.74902 0.12445 0.81737 0.0
O146 O 0.73898 0.1524 0.81935 0.0
O147 O 0.75786 0.15859 0.8166 0.0
H148 H 0.75495 0.14078 0.80363 0.0
H149 H 0.75277 0.13864 0.79041 0.0
H150 H 0.75743 0.10029 0.79247 0.0
H151 H 0.75961 0.10252 0.80574 0.0
H152 H 0.77252 0.10227 0.84384 0.0
H153 H 0.76201 0.116 0.83534 0.0
H154 H 0.78431 0.13255 0.85684 0.0
H155 H 0.77385 0.14616 0.84835 0.0
H156 H 0.74944 0.19253 0.83332 0.0
H157 H 0.72765 0.1983 0.81378 0.0
H158 H 0.7316 0.1776 0.81003 0.0
H159 H 0.75345 0.1718 0.82947 0.0
C160 C 0.1462 0.49703 0.94698 0.0
C161 C 0.13592 0.49955 0.95147 0.0
C162 C 0.14924 0.49883 0.96223 0.0
C163 C 0.13741 0.50041 0.95902 0.0
C164 C 0.15954 0.49641 0.95768 0.0
C165 C 0.15802 0.49552 0.95012 0.0
U166 U 0.12529 0.49981 0.93054 0.0
O167 O 0.12897 0.50597 0.91933 0.0
O168 O 0.122 0.48773 0.92129 0.0
C169 C 0.12633 0.49543 0.91649 0.0
C170 C 0.14452 0.49584 0.93906 0.0
C171 C 0.13554 0.49059 0.91135 0.0
C172 C 0.15422 0.47894 0.9088 0.0
C173 C 0.14606 0.48427 0.91381 0.0
C174 C 0.14163 0.48656 0.89884 0.0
C175 C 0.15198 0.47987 0.90125 0.0
C176 C 0.13348 0.49184 0.90384 0.0
C177 C 0.09188 0.51045 0.93368 0.0
C178 C 0.07612 0.50969 0.92416 0.0
C179 C 0.0707 0.51692 0.93622 0.0
C180 C 0.083 0.5151 0.93851 0.0
C181 C 0.06707 0.5141 0.92905 0.0
C182 C 0.08844 0.50788 0.92646 0.0
C183 C 0.10448 0.50776 0.93635 0.0
O184 O 0.13666 0.4874 0.93707 0.0
O185 O 0.14286 0.50598 0.93553 0.0
O186 O 0.1134 0.51489 0.93401 0.0
O187 O 0.10757 0.49636 0.93618 0.0
H188 H 0.12671 0.50073 0.94913 0.0
H189 H 0.12925 0.50209 0.96234 0.0
H190 H 0.16879 0.4953 0.95996 0.0
H191 H 0.16605 0.49361 0.94672 0.0
H192 H 0.16202 0.47377 0.91085 0.0
H193 H 0.14779 0.48322 0.9196 0.0
H194 H 0.13976 0.48763 0.89307 0.0
H195 H 0.12544 0.49675 0.90186 0.0
H196 H 0.07366 0.50754 0.91859 0.0
H197 H 0.06395 0.52015 0.94016 0.0
H198 H 0.08551 0.51707 0.94411 0.0
H199 H 0.09522 0.50429 0.92266 0.0
C200 C 0.75824 0.87957 0.19678 0.0
C201 C 0.75635 0.86936 0.2011 0.0
C202 C 0.75602 0.88171 0.21205 0.0
C203 C 0.75529 0.87041 0.20867 0.0
C204 C 0.75769 0.89196 0.20767 0.0
C205 C 0.75883 0.89089 0.20009 0.0
U206 U 0.75587 0.86019 0.18004 0.0
O207 O 0.7498 0.86396 0.16881 0.0
O208 O 0.76878 0.85733 0.17088 0.0
C209 C 0.76084 0.86152 0.16604 0.0
C210 C 0.75975 0.87835 0.18884 0.0
C211 C 0.76595 0.87046 0.16098 0.0
C212 C 0.77313 0.89065 0.15826 0.0
C213 C 0.76788 0.88239 0.16313 0.0
C214 C 0.7745 0.87511 0.14905 0.0
C215 C 0.77655 0.88709 0.15116 0.0
C216 C 0.76925 0.86689 0.15392 0.0
C217 C 0.74407 0.82795 0.18307 0.0
C218 C 0.74928 0.80959 0.17658 0.0
C219 C 0.73072 0.81043 0.18411 0.0
C220 C 0.73337 0.82236 0.18586 0.0
C221 C 0.73879 0.80381 0.17959 0.0
C222 C 0.75188 0.82157 0.17829 0.0
C223 C 0.74722 0.84014 0.18558 0.0
O224 O 0.7686 0.87089 0.18681 0.0
O225 O 0.74932 0.87693 0.18516 0.0
O226 O 0.73994 0.84882 0.18325 0.0
O227 O 0.75914 0.84299 0.18553 0.0
H228 H 0.75577 0.86055 0.19863 0.0
H229 H 0.75382 0.86237 0.21188 0.0
H230 H 0.75837 0.90078 0.21012 0.0
H231 H 0.76028 0.89886 0.19682 0.0
H232 H 0.77446 0.89982 0.16004 0.0
H233 H 0.7654 0.88529 0.16859 0.0
H234 H 0.77722 0.87199 0.14369 0.0
H235 H 0.76789 0.85769 0.15219 0.0
H236 H 0.75575 0.80475 0.17312 0.0
H237 H 0.72243 0.80635 0.18641 0.0
H238 H 0.72719 0.82715 0.18952 0.0
H239 H 0.76018 0.82571 0.17603 0.0
C240 C 0.35295 0.50388 0.44704 0.0
C241 C 0.36341 0.50296 0.45161 0.0
C242 C 0.34999 0.50315 0.46231 0.0
C243 C 0.36195 0.50265 0.45917 0.0
C244 C 0.3395 0.50382 0.45771 0.0
C245 C 0.34098 0.50423 0.45012 0.0
U246 U 0.3742 0.50078 0.43085 0.0
O247 O 0.37105 0.49405 0.41969 0.0
O248 O 0.37759 0.5125 0.42145 0.0
C249 C 0.37353 0.50453 0.41673 0.0
C250 C 0.35461 0.50463 0.4391 0.0
C251 C 0.36434 0.50902 0.41145 0.0
C252 C 0.34587 0.52078 0.4086 0.0
C253 C 0.35393 0.51567 0.41374 0.0
C254 C 0.35828 0.51224 0.39884 0.0
C255 C 0.34807 0.51929 0.40108 0.0
C256 C 0.36635 0.50718 0.40399 0.0
C257 C 0.40788 0.49135 0.43502 0.0
C258 C 0.42468 0.49214 0.42613 0.0
C259 C 0.42901 0.48627 0.43861 0.0
C260 C 0.41639 0.48757 0.44034 0.0
C261 C 0.43334 0.48875 0.43153 0.0
C262 C 0.41202 0.49347 0.42788 0.0
C263 C 0.39493 0.49378 0.43718 0.0
O264 O 0.36217 0.51321 0.43693 0.0
O265 O 0.35669 0.49435 0.43581 0.0
O266 O 0.38646 0.48626 0.43474 0.0
O267 O 0.39151 0.50506 0.43669 0.0
H268 H 0.37273 0.50258 0.44932 0.0
H269 H 0.3702 0.50194 0.46257 0.0
H270 H 0.33017 0.50429 0.45998 0.0
H271 H 0.3328 0.50492 0.44667 0.0
H272 H 0.33818 0.52624 0.41052 0.0
H273 H 0.35223 0.51717 0.41949 0.0
H274 H 0.36013 0.51073 0.39311 0.0
H275 H 0.37431 0.50202 0.40213 0.0
H276 H 0.42775 0.49419 0.42064 0.0
H277 H 0.43541 0.48346 0.44285 0.0
H278 H 0.41332 0.48588 0.44587 0.0
H279 H 0.40554 0.49644 0.42371 0.0
C280 C 0.7407 0.12118 0.69685 0.0
C281 C 0.74292 0.13126 0.70124 0.0
C282 C 0.74394 0.1186 0.71205 0.0
C283 C 0.74447 0.13 0.70876 0.0
C284 C 0.74175 0.1085 0.70761 0.0
C285 C 0.74014 0.1098 0.70007 0.0
U286 U 0.74331 0.14096 0.68034 0.0
O287 O 0.7492 0.13745 0.66905 0.0
O288 O 0.73042 0.14447 0.67126 0.0
C289 C 0.73823 0.14031 0.66634 0.0
C290 C 0.73902 0.12263 0.68894 0.0
C291 C 0.73288 0.13178 0.6611 0.0
C292 C 0.7251 0.11196 0.65797 0.0
C293 C 0.73051 0.11981 0.66303 0.0
C294 C 0.72445 0.12798 0.64904 0.0
C295 C 0.72192 0.116 0.65093 0.0
C296 C 0.72988 0.13578 0.65408 0.0
C297 C 0.75607 0.17272 0.68373 0.0
C298 C 0.75162 0.19112 0.67709 0.0
C299 C 0.76949 0.19011 0.68517 0.0
C300 C 0.76656 0.17821 0.68683 0.0
C301 C 0.7619 0.1968 0.68041 0.0
C302 C 0.74875 0.17917 0.67872 0.0
C303 C 0.75259 0.16056 0.68611 0.0
O304 O 0.73035 0.13037 0.68705 0.0
O305 O 0.74941 0.12386 0.68519 0.0
O306 O 0.7596 0.15176 0.68365 0.0
O307 O 0.7406 0.15805 0.68607 0.0
H308 H 0.74339 0.14013 0.69884 0.0
H309 H 0.74593 0.13799 0.71201 0.0
H310 H 0.74144 0.09959 0.70994 0.0
H311 H 0.73849 0.10191 0.69675 0.0
H312 H 0.72317 0.10281 0.65961 0.0
H313 H 0.73274 0.11659 0.66845 0.0
H314 H 0.72228 0.13133 0.64364 0.0
H315 H 0.73167 0.14499 0.65251 0.0
H316 H 0.74552 0.19602 0.67345 0.0
H317 H 0.77761 0.19412 0.68771 0.0
H318 H 0.77237 0.17335 0.69067 0.0
H319 H 0.74062 0.1751 0.67622 0.0
C320 C 0.85589 0.49516 0.94671 0.0
C321 C 0.86642 0.49717 0.95109 0.0
C322 C 0.85333 0.49768 0.96195 0.0
C323 C 0.86517 0.49838 0.95863 0.0
C324 C 0.84279 0.49572 0.95751 0.0
C325 C 0.84407 0.49447 0.94995 0.0
U326 U 0.87621 0.49761 0.93002 0.0
O327 O 0.87909 0.48541 0.92077 0.0
O328 O 0.87216 0.50366 0.91883 0.0
C329 C 0.87453 0.49306 0.91601 0.0
C330 C 0.85728 0.49379 0.93878 0.0
C331 C 0.86486 0.4882 0.91116 0.0
C332 C 0.84535 0.47752 0.90934 0.0
C333 C 0.85416 0.48267 0.91402 0.0
C334 C 0.8577 0.48367 0.89891 0.0
C335 C 0.84708 0.47787 0.90173 0.0
C336 C 0.86652 0.48878 0.9036 0.0
C337 C 0.90973 0.50851 0.93295 0.0
C338 C 0.92565 0.50785 0.92352 0.0
C339 C 0.93068 0.51556 0.93553 0.0
C340 C 0.91841 0.51351 0.93777 0.0
C341 C 0.9345 0.51264 0.9284 0.0
C342 C 0.91334 0.50581 0.92578 0.0
C343 C 0.89715 0.50568 0.9356 0.0
O344 O 0.85881 0.50386 0.93516 0.0
O345 O 0.86507 0.48531 0.93675 0.0
O346 O 0.89415 0.49426 0.93543 0.0
O347 O 0.88815 0.51275 0.9333 0.0
H348 H 0.87563 0.49773 0.94867 0.0
H349 H 0.87351 0.49968 0.96188 0.0
H350 H 0.83353 0.49529 0.95987 0.0
H351 H 0.83584 0.49297 0.94664 0.0
H352 H 0.8372 0.47324 0.91167 0.0
H353 H 0.85271 0.48221 0.91986 0.0
H354 H 0.85938 0.48398 0.89309 0.0
H355 H 0.87475 0.493 0.90131 0.0
H356 H 0.92825 0.50562 0.91798 0.0
H357 H 0.93728 0.51907 0.93946 0.0
H358 H 0.91577 0.51558 0.94334 0.0
H359 H 0.90671 0.50196 0.92198 0.0
C360 C 0.26024 0.12215 0.69742 0.0
C361 C 0.25886 0.13238 0.7018 0.0
C362 C 0.25813 0.11992 0.71269 0.0
C363 C 0.25786 0.13128 0.70937 0.0
C364 C 0.25933 0.10966 0.70826 0.0
C365 C 0.26042 0.11079 0.70068 0.0
U366 U 0.25702 0.14145 0.68069 0.0
O367 O 0.2694 0.14445 0.67132 0.0
O368 O 0.25046 0.13745 0.66955 0.0
C369 C 0.26134 0.14001 0.66663 0.0
C370 C 0.26145 0.12338 0.68946 0.0
C371 C 0.26634 0.13114 0.66145 0.0
C372 C 0.28062 0.11494 0.6584 0.0
C373 C 0.27537 0.1227 0.66356 0.0
C374 C 0.26754 0.12368 0.64902 0.0
C375 C 0.27689 0.11546 0.65104 0.0
C376 C 0.26235 0.13146 0.65417 0.0
C377 C 0.24495 0.17358 0.68384 0.0
C378 C 0.24971 0.192 0.67731 0.0
C379 C 0.23151 0.19098 0.68513 0.0
C380 C 0.23433 0.17907 0.6868 0.0
C381 C 0.23932 0.19769 0.68049 0.0
C382 C 0.25249 0.18004 0.67896 0.0
C383 C 0.24836 0.16142 0.68631 0.0
O384 O 0.25087 0.12467 0.68592 0.0
O385 O 0.27014 0.13093 0.68731 0.0
O386 O 0.2603 0.15871 0.6861 0.0
O387 O 0.24108 0.15265 0.6841 0.0
H388 H 0.25858 0.14123 0.69936 0.0
H389 H 0.25675 0.13933 0.71261 0.0
H390 H 0.25965 0.1008 0.71067 0.0
H391 H 0.26144 0.1028 0.69737 0.0
H392 H 0.28786 0.1088 0.66014 0.0
H393 H 0.27854 0.12227 0.66917 0.0
H394 H 0.26427 0.12418 0.64344 0.0
H395 H 0.25534 0.13787 0.65245 0.0
H396 H 0.25598 0.19691 0.67377 0.0
H397 H 0.2233 0.195 0.68756 0.0
H398 H 0.22837 0.17421 0.69055 0.0
H399 H 0.26071 0.17598 0.67657 0.0
C400 C 0.64537 0.50331 0.4468 0.0
C401 C 0.63686 0.49638 0.45081 0.0
C402 C 0.64794 0.50112 0.46205 0.0
C403 C 0.63816 0.49525 0.45836 0.0
C404 C 0.65648 0.508 0.45798 0.0
C405 C 0.65521 0.50907 0.45041 0.0
U406 U 0.62458 0.50134 0.43022 0.0
O407 O 0.6213 0.51408 0.42129 0.0
O408 O 0.62847 0.49607 0.41887 0.0
C409 C 0.62586 0.5068 0.41632 0.0
C410 C 0.64363 0.50503 0.43892 0.0
C411 C 0.63533 0.5121 0.41151 0.0
C412 C 0.65484 0.52282 0.40977 0.0
C413 C 0.6462 0.51727 0.41439 0.0
C414 C 0.64196 0.5178 0.39934 0.0
C415 C 0.65276 0.52324 0.40219 0.0
C416 C 0.63332 0.51229 0.40396 0.0
C417 C 0.59125 0.49 0.43304 0.0
C418 C 0.57504 0.492 0.42385 0.0
C419 C 0.57032 0.48278 0.43551 0.0
C420 C 0.58269 0.48442 0.4377 0.0
C421 C 0.56629 0.48672 0.4286 0.0
C422 C 0.58744 0.49361 0.42606 0.0
C423 C 0.60385 0.49267 0.43573 0.0
O424 O 0.64222 0.49515 0.43508 0.0
O425 O 0.63559 0.51345 0.43717 0.0
O426 O 0.60676 0.50411 0.43587 0.0
O427 O 0.61288 0.48584 0.4332 0.0
H428 H 0.62911 0.49198 0.44811 0.0
H429 H 0.63132 0.49004 0.46134 0.0
H430 H 0.66417 0.51254 0.46065 0.0
H431 H 0.66182 0.5145 0.4474 0.0
H432 H 0.66314 0.5268 0.41212 0.0
H433 H 0.64792 0.51714 0.42021 0.0
H434 H 0.64 0.51809 0.39354 0.0
H435 H 0.62495 0.50835 0.40166 0.0
H436 H 0.57227 0.49502 0.41848 0.0
H437 H 0.5638 0.47886 0.43934 0.0
H438 H 0.58548 0.48163 0.44312 0.0
H439 H 0.59397 0.49793 0.42239 0.0
C440 C 0.24114 0.87784 0.19727 0.0
C441 C 0.24266 0.86753 0.20157 0.0
C442 C 0.24338 0.87979 0.21255 0.0
C443 C 0.24373 0.86849 0.20914 0.0
C444 C 0.24205 0.89012 0.2082 0.0
C445 C 0.2409 0.88913 0.20062 0.0
U446 U 0.24386 0.85886 0.18036 0.0
O447 O 0.23124 0.8563 0.17105 0.0
O448 O 0.25023 0.86307 0.16922 0.0
C449 C 0.23924 0.86077 0.16634 0.0
C450 C 0.23978 0.87676 0.18932 0.0
C451 C 0.23423 0.87003 0.16145 0.0
C452 C 0.2228 0.88857 0.15947 0.0
C453 C 0.22804 0.88015 0.16422 0.0
C454 C 0.23016 0.87699 0.14914 0.0
C455 C 0.22372 0.88704 0.15186 0.0
C456 C 0.23534 0.86856 0.1539 0.0
C457 C 0.25571 0.82653 0.18318 0.0
C458 C 0.25059 0.80807 0.17677 0.0
C459 C 0.26929 0.80916 0.18416 0.0
C460 C 0.26654 0.82108 0.18589 0.0
C461 C 0.2612 0.80242 0.17972 0.0
C462 C 0.24788 0.82003 0.17847 0.0
C463 C 0.25243 0.83867 0.18573 0.0
O464 O 0.25028 0.87545 0.1857 0.0
O465 O 0.23098 0.86933 0.18717 0.0
O466 O 0.24051 0.84148 0.18561 0.0
O467 O 0.25975 0.84743 0.18356 0.0
H468 H 0.24298 0.85873 0.19907 0.0
H469 H 0.24494 0.86039 0.21233 0.0
H470 H 0.24167 0.89893 0.21068 0.0
H471 H 0.23975 0.89718 0.19737 0.0
H472 H 0.21804 0.89628 0.16173 0.0
H473 H 0.22715 0.88145 0.17006 0.0
H474 H 0.2309 0.87547 0.14332 0.0
H475 H 0.24007 0.86079 0.15167 0.0
H476 H 0.2441 0.80314 0.17338 0.0
H477 H 0.27767 0.80518 0.18641 0.0
H478 H 0.27274 0.82595 0.1895 0.0
H479 H 0.23948 0.82406 0.17627 0.0
C480 C 0.85599 0.50578 0.05571 0.0
C481 C 0.86661 0.50466 0.05128 0.0
C482 C 0.85355 0.50469 0.04041 0.0
C483 C 0.8654 0.50417 0.0437 0.0
C484 C 0.84291 0.50562 0.04488 0.0
C485 C 0.84414 0.50619 0.05248 0.0
U486 U 0.87621 0.50218 0.07236 0.0
O487 O 0.87916 0.51376 0.08188 0.0
O488 O 0.87208 0.49544 0.08341 0.0
C489 C 0.87453 0.50584 0.08646 0.0
C490 C 0.85733 0.50656 0.06367 0.0
C491 C 0.86499 0.51045 0.0915 0.0
C492 C 0.84701 0.52307 0.09403 0.0
C493 C 0.85551 0.51816 0.08907 0.0
C494 C 0.85711 0.51227 0.10387 0.0
C495 C 0.8478 0.52031 0.10151 0.0
C496 C 0.86564 0.50742 0.09891 0.0
C497 C 0.90976 0.49156 0.06926 0.0
C498 C 0.92562 0.4919 0.07872 0.0
C499 C 0.93076 0.48474 0.06661 0.0
C500 C 0.91849 0.48682 0.06437 0.0
C501 C 0.93453 0.48739 0.07378 0.0
C502 C 0.91332 0.49397 0.07647 0.0
C503 C 0.89719 0.49449 0.06663 0.0
O504 O 0.85886 0.49624 0.06702 0.0
O505 O 0.86506 0.51491 0.06595 0.0
O506 O 0.89415 0.50589 0.06703 0.0
O507 O 0.8882 0.48726 0.06875 0.0
H508 H 0.87583 0.50422 0.05368 0.0
H509 H 0.87375 0.50327 0.04041 0.0
H510 H 0.83367 0.50612 0.0425 0.0
H511 H 0.83585 0.50703 0.05583 0.0
H512 H 0.84006 0.52931 0.09203 0.0
H513 H 0.85484 0.52057 0.08336 0.0
H514 H 0.85786 0.50977 0.10956 0.0
H515 H 0.87285 0.50142 0.10087 0.0
H516 H 0.92819 0.49392 0.0843 0.0
H517 H 0.93741 0.48143 0.06263 0.0
H518 H 0.91589 0.48497 0.05877 0.0
H519 H 0.90664 0.49763 0.08032 0.0
C520 C 0.24147 0.12249 0.80613 0.0
C521 C 0.24397 0.13258 0.8018 0.0
C522 C 0.24518 0.11999 0.79097 0.0
C523 C 0.24577 0.13135 0.7943 0.0
C524 C 0.24274 0.10989 0.79535 0.0
C525 C 0.24089 0.11114 0.80288 0.0
U526 U 0.24299 0.14222 0.82274 0.0
O527 O 0.22967 0.14523 0.83169 0.0
O528 O 0.24859 0.13874 0.83408 0.0
C529 C 0.23741 0.14114 0.83666 0.0
C530 C 0.23947 0.12388 0.81402 0.0
C531 C 0.23215 0.13224 0.84171 0.0
C532 C 0.22679 0.11171 0.84487 0.0
C533 C 0.23195 0.11998 0.83998 0.0
C534 C 0.22192 0.12789 0.85322 0.0
C535 C 0.2217 0.11556 0.85156 0.0
C536 C 0.22711 0.13613 0.84835 0.0
C537 C 0.25525 0.17429 0.81957 0.0
C538 C 0.25019 0.19281 0.82593 0.0
C539 C 0.26868 0.19172 0.81835 0.0
C540 C 0.26595 0.17977 0.81671 0.0
C541 C 0.26068 0.19848 0.82284 0.0
C542 C 0.2475 0.18081 0.82432 0.0
C543 C 0.25203 0.16207 0.81716 0.0
O544 O 0.24969 0.12531 0.8179 0.0
O545 O 0.23057 0.13145 0.81581 0.0
O546 O 0.24009 0.15935 0.81709 0.0
O547 O 0.25914 0.15339 0.81966 0.0
H548 H 0.24446 0.14143 0.80423 0.0
H549 H 0.24743 0.13935 0.79109 0.0
H550 H 0.24238 0.10099 0.79299 0.0
H551 H 0.23902 0.10325 0.80615 0.0
H552 H 0.22689 0.10228 0.84344 0.0
H553 H 0.23577 0.11683 0.83486 0.0
H554 H 0.21789 0.13122 0.85825 0.0
H555 H 0.22712 0.14557 0.84975 0.0
H556 H 0.24378 0.19776 0.82936 0.0
H557 H 0.27697 0.19572 0.816 0.0
H558 H 0.27208 0.17487 0.81307 0.0
H559 H 0.23921 0.17675 0.82662 0.0
C560 C 0.6445 0.49497 0.55602 0.0
C561 C 0.63645 0.50242 0.55203 0.0
C562 C 0.64667 0.49653 0.54071 0.0
C563 C 0.63756 0.50324 0.54445 0.0
C564 C 0.65483 0.4892 0.54477 0.0
C565 C 0.65374 0.48843 0.55236 0.0
U566 U 0.62377 0.49816 0.57249 0.0
O567 O 0.61972 0.48579 0.58151 0.0
O568 O 0.62767 0.50355 0.58382 0.0
C569 C 0.62445 0.49303 0.58646 0.0
C570 C 0.64274 0.49346 0.56392 0.0
C571 C 0.63343 0.48749 0.59148 0.0
C572 C 0.65243 0.47618 0.59373 0.0
C573 C 0.64428 0.4819 0.58888 0.0
C574 C 0.63907 0.48185 0.60383 0.0
C575 C 0.64985 0.47598 0.60126 0.0
C576 C 0.63094 0.48753 0.59898 0.0
C577 C 0.59102 0.51112 0.56921 0.0
C578 C 0.57196 0.50697 0.57595 0.0
C579 C 0.57284 0.52387 0.56765 0.0
C580 C 0.58524 0.52108 0.566 0.0
C581 C 0.56594 0.51667 0.57251 0.0
C582 C 0.5844 0.50424 0.57432 0.0
C583 C 0.60362 0.50766 0.56678 0.0
O584 O 0.64178 0.50345 0.56769 0.0
O585 O 0.63432 0.48541 0.56572 0.0
O586 O 0.60598 0.49609 0.56672 0.0
O587 O 0.61292 0.51414 0.5693 0.0
H588 H 0.6292 0.50749 0.55477 0.0
H589 H 0.63125 0.5091 0.54153 0.0
H590 H 0.66184 0.4838 0.54206 0.0
H591 H 0.65994 0.48255 0.55536 0.0
H592 H 0.66057 0.47166 0.59156 0.0
H593 H 0.64633 0.48179 0.58309 0.0
H594 H 0.63691 0.48203 0.6096 0.0
H595 H 0.62262 0.49186 0.60107 0.0
H596 H 0.56692 0.50118 0.57966 0.0
H597 H 0.56859 0.53155 0.56502 0.0
H598 H 0.59023 0.52654 0.56208 0.0
H599 H 0.58871 0.49653 0.5769 0.0
C600 C 0.25913 0.87685 0.30608 0.0
C601 C 0.25692 0.86671 0.30174 0.0
C602 C 0.25581 0.87924 0.29087 0.0
C603 C 0.25533 0.86788 0.29421 0.0
C604 C 0.25799 0.8894 0.29526 0.0
C605 C 0.25964 0.8882 0.30281 0.0
U606 U 0.25678 0.85735 0.32275 0.0
O607 O 0.26961 0.85429 0.3319 0.0
O608 O 0.25072 0.86113 0.33399 0.0
C609 C 0.26173 0.85854 0.33675 0.0
C610 C 0.26079 0.87554 0.31399 0.0
C611 C 0.26692 0.86736 0.34187 0.0
C612 C 0.27878 0.88548 0.34438 0.0
C613 C 0.27324 0.8776 0.33939 0.0
C614 C 0.27143 0.87311 0.35436 0.0
C615 C 0.27808 0.88323 0.35192 0.0
C616 C 0.26593 0.86524 0.34937 0.0
C617 C 0.24477 0.82535 0.31977 0.0
C618 C 0.24708 0.80915 0.32853 0.0
C619 C 0.23489 0.80612 0.31754 0.0
C620 C 0.23734 0.81791 0.31541 0.0
C621 C 0.23986 0.80154 0.32407 0.0
C622 C 0.24948 0.82098 0.3264 0.0
C623 C 0.24791 0.83743 0.31715 0.0
O624 O 0.2504 0.87422 0.31773 0.0
O625 O 0.26958 0.86795 0.31595 0.0
O626 O 0.25985 0.84013 0.31723 0.0
O627 O 0.24074 0.84617 0.31951 0.0
H628 H 0.25648 0.85787 0.30417 0.0
H629 H 0.25387 0.85985 0.291 0.0
H630 H 0.25827 0.89829 0.29289 0.0
H631 H 0.26127 0.89613 0.30609 0.0
H632 H 0.28391 0.89313 0.34231 0.0
H633 H 0.27408 0.87936 0.3336 0.0
H634 H 0.27053 0.87122 0.36013 0.0
H635 H 0.26103 0.85741 0.35138 0.0
H636 H 0.25093 0.80593 0.33362 0.0
H637 H 0.22945 0.80046 0.31394 0.0
H638 H 0.23366 0.82115 0.31027 0.0
H639 H 0.25519 0.82665 0.32985 0.0
C640 C 0.64712 0.01906 0.55459 0.0
C641 C 0.63664 0.01605 0.55038 0.0
C642 C 0.64988 0.01281 0.53976 0.0
C643 C 0.638 0.01299 0.54304 0.0
C644 C 0.66037 0.01581 0.54402 0.0
C645 C 0.65899 0.01891 0.55138 0.0
U646 U 0.62607 0.02144 0.57092 0.0
O647 O 0.629 0.01762 0.58256 0.0
O648 O 0.62348 0.0357 0.57907 0.0
C649 C 0.62698 0.0288 0.58451 0.0
C650 C 0.64558 0.02233 0.56231 0.0
C651 C 0.63618 0.03407 0.58951 0.0
C652 C 0.65744 0.03975 0.5926 0.0
C653 C 0.64892 0.03453 0.58775 0.0
C654 C 0.64054 0.04408 0.60098 0.0
C655 C 0.65334 0.0446 0.59928 0.0
C656 C 0.63206 0.03886 0.59614 0.0
C657 C 0.59219 0.01141 0.56828 0.0
C658 C 0.57523 0.01636 0.57655 0.0
C659 C 0.57184 0.00222 0.56671 0.0
C660 C 0.58425 0.00359 0.56452 0.0
C661 C 0.56714 0.00868 0.5727 0.0
C662 C 0.58768 0.01769 0.57437 0.0
C663 C 0.605 0.01317 0.56562 0.0
O664 O 0.63821 0.03157 0.56347 0.0
O665 O 0.64336 0.01329 0.56672 0.0
O666 O 0.61354 0.00625 0.56857 0.0
O667 O 0.60858 0.02439 0.56494 0.0
H668 H 0.62739 0.01613 0.55278 0.0
H669 H 0.6297 0.01093 0.53991 0.0
H670 H 0.66966 0.01562 0.5417 0.0
H671 H 0.66718 0.02117 0.55457 0.0
H672 H 0.66724 0.0399 0.59114 0.0
H673 H 0.65225 0.03087 0.58263 0.0
H674 H 0.637 0.04793 0.60599 0.0
H675 H 0.62224 0.03864 0.59756 0.0
H676 H 0.57192 0.02137 0.58123 0.0
H677 H 0.56582 0.99636 0.56357 0.0
H678 H 0.58759 0.99869 0.5598 0.0
H679 H 0.59373 0.02372 0.57737 0.0
C680 C 0.24423 0.40299 0.80581 0.0
C681 C 0.24649 0.39299 0.80136 0.0
C682 C 0.24706 0.40579 0.7906 0.0
C683 C 0.24785 0.39436 0.79384 0.0
C684 C 0.24485 0.41581 0.79511 0.0
C685 C 0.24344 0.4144 0.80265 0.0
U686 U 0.24659 0.38299 0.82228 0.0
O687 O 0.25267 0.38649 0.83356 0.0
O688 O 0.23375 0.37977 0.8314 0.0
C689 C 0.24163 0.38394 0.83628 0.0
C690 C 0.24267 0.40144 0.81372 0.0
C691 C 0.23645 0.39278 0.84139 0.0
C692 C 0.22428 0.41072 0.84385 0.0
C693 C 0.22985 0.40284 0.83888 0.0
C694 C 0.23219 0.39875 0.85387 0.0
C695 C 0.22524 0.40867 0.85141 0.0
C696 C 0.23772 0.39088 0.8489 0.0
C697 C 0.25826 0.35086 0.81898 0.0
C698 C 0.25301 0.33266 0.82562 0.0
C699 C 0.2711 0.33304 0.81769 0.0
C700 C 0.26863 0.34502 0.81598 0.0
C701 C 0.26315 0.32662 0.8224 0.0
C702 C 0.25061 0.34468 0.82394 0.0
C703 C 0.25524 0.36311 0.81653 0.0
O704 O 0.23384 0.39388 0.81562 0.0
O705 O 0.25309 0.39991 0.81739 0.0
O706 O 0.26253 0.3717 0.81897 0.0
O707 O 0.24333 0.36599 0.81656 0.0
H708 H 0.24713 0.38409 0.80372 0.0
H709 H 0.24934 0.38643 0.79054 0.0
H710 H 0.24435 0.42474 0.79281 0.0
H711 H 0.24175 0.42222 0.80602 0.0
H712 H 0.2189 0.4182 0.84176 0.0
H713 H 0.2288 0.40445 0.83308 0.0
H714 H 0.2333 0.39703 0.85964 0.0
H715 H 0.24284 0.38319 0.85092 0.0
H716 H 0.24664 0.328 0.82922 0.0
H717 H 0.27913 0.32875 0.81523 0.0
H718 H 0.2747 0.34965 0.81217 0.0
H719 H 0.24257 0.34904 0.82637 0.0
C720 C 0.85164 0.9823 0.05458 0.0
C721 C 0.86175 0.98623 0.05036 0.0
C722 C 0.84819 0.98834 0.03977 0.0
C723 C 0.86006 0.9892 0.04302 0.0
C724 C 0.83804 0.98448 0.04406 0.0
C725 C 0.83977 0.98147 0.05141 0.0
U726 U 0.87349 0.97983 0.07055 0.0
O727 O 0.87102 0.98302 0.0823 0.0
O728 O 0.87686 0.96526 0.07839 0.0
C729 C 0.87348 0.97182 0.08401 0.0
C730 C 0.8536 0.97884 0.06224 0.0
C731 C 0.86479 0.96606 0.08912 0.0
C732 C 0.84399 0.95938 0.09254 0.0
C733 C 0.85199 0.9651 0.08759 0.0
C734 C 0.86154 0.95556 0.10055 0.0
C735 C 0.84871 0.95447 0.09906 0.0
C736 C 0.86948 0.9613 0.09563 0.0
C737 C 0.90709 0.9905 0.06752 0.0
C738 C 0.92545 0.98379 0.07416 0.0
C739 C 0.92656 0.00154 0.06657 0.0
C740 C 0.91398 1.00015 0.06474 0.0
C741 C 0.93253 0.99324 0.07119 0.0
C742 C 0.91284 0.98246 0.07237 0.0
C743 C 0.89414 0.98872 0.06507 0.0
O744 O 0.86121 0.96972 0.06317 0.0
O745 O 0.85584 0.98778 0.06673 0.0
O746 O 0.88564 0.99536 0.0683 0.0
O747 O 0.89066 0.97751 0.06417 0.0
H748 H 0.871 0.98687 0.05272 0.0
H749 H 0.86811 0.99194 0.03987 0.0
H750 H 0.82876 0.98385 0.04176 0.0
H751 H 0.83186 0.97847 0.05461 0.0
H752 H 0.83417 0.9586 0.0912 0.0
H753 H 0.84822 0.9687 0.08256 0.0
H754 H 0.86544 0.95205 0.10557 0.0
H755 H 0.87934 0.962 0.0969 0.0
H756 H 0.92975 0.97717 0.07768 0.0
H757 H 0.93164 0.00906 0.06429 0.0
H758 H 0.90967 0.0065 0.06104 0.0
H759 H 0.90766 0.97497 0.07462 0.0
C760 C 0.25705 0.59819 0.3058 0.0
C761 C 0.25492 0.60823 0.30137 0.0
C762 C 0.2542 0.59547 0.29059 0.0
C763 C 0.25355 0.6069 0.29384 0.0
C764 C 0.25627 0.58542 0.29508 0.0
C765 C 0.25769 0.58678 0.30263 0.0
U766 U 0.25465 0.61799 0.32238 0.0
O767 O 0.2486 0.61428 0.33364 0.0
O768 O 0.2675 0.62108 0.33152 0.0
C769 C 0.25964 0.61681 0.33637 0.0
C770 C 0.25861 0.59967 0.31371 0.0
C771 C 0.26486 0.60787 0.3414 0.0
C772 C 0.27651 0.58954 0.34366 0.0
C773 C 0.27089 0.59756 0.33878 0.0
C774 C 0.26979 0.60191 0.3538 0.0
C775 C 0.27617 0.59171 0.35122 0.0
C776 C 0.26421 0.60991 0.34892 0.0
C777 C 0.24298 0.65005 0.31939 0.0
C778 C 0.2455 0.66611 0.32822 0.0
C779 C 0.23354 0.66949 0.31719 0.0
C780 C 0.23577 0.65767 0.31502 0.0
C781 C 0.23852 0.6739 0.32376 0.0
C782 C 0.24769 0.65426 0.32606 0.0
C783 C 0.24595 0.63795 0.31675 0.0
O784 O 0.26741 0.60725 0.31564 0.0
O785 O 0.24818 0.60112 0.31739 0.0
O786 O 0.2387 0.62928 0.31913 0.0
O787 O 0.25786 0.63513 0.3168 0.0
H788 H 0.2544 0.61713 0.30373 0.0
H789 H 0.25217 0.61486 0.29055 0.0
H790 H 0.25666 0.57648 0.29278 0.0
H791 H 0.25927 0.57893 0.30599 0.0
H792 H 0.28144 0.58185 0.34149 0.0
H793 H 0.27147 0.59585 0.33298 0.0
H794 H 0.26916 0.60374 0.35959 0.0
H795 H 0.25953 0.6178 0.35103 0.0
H796 H 0.24935 0.66921 0.33335 0.0
H797 H 0.22827 0.67529 0.31358 0.0
H798 H 0.2321 0.65455 0.30985 0.0
H799 H 0.25323 0.64845 0.32952 0.0
C800 C 0.6472 0.9807 0.44789 0.0
C801 C 0.63662 0.98274 0.45223 0.0
C802 C 0.6498 0.9858 0.46289 0.0
C803 C 0.6379 0.98523 0.45966 0.0
C804 C 0.6604 0.98394 0.45849 0.0
C805 C 0.65909 0.98137 0.45105 0.0
U806 U 0.62616 0.97848 0.43154 0.0
O807 O 0.62896 0.98272 0.41994 0.0
O808 O 0.62388 0.96442 0.42324 0.0
C809 C 0.6272 0.97155 0.41787 0.0
C810 C 0.64573 0.97777 0.44012 0.0
C811 C 0.63651 0.9666 0.41282 0.0
C812 C 0.65792 0.96172 0.40958 0.0
C813 C 0.6493 0.96669 0.41447 0.0
C814 C 0.64101 0.95652 0.40139 0.0
C815 C 0.65387 0.95656 0.40298 0.0
C816 C 0.63244 0.9615 0.40626 0.0
C817 C 0.59204 0.98743 0.43437 0.0
C818 C 0.57586 0.98381 0.42535 0.0
C819 C 0.57087 0.99425 0.43657 0.0
C820 C 0.58329 0.99322 0.43881 0.0
C821 C 0.56698 0.98947 0.42984 0.0
C822 C 0.58831 0.98282 0.42759 0.0
C823 C 0.60489 0.98597 0.437 0.0
O824 O 0.63866 0.96839 0.4388 0.0
O825 O 0.64322 0.98694 0.43586 0.0
O826 O 0.6132 0.99322 0.43411 0.0
O827 O 0.6088 0.97484 0.43752 0.0
H828 H 0.62735 0.98235 0.44987 0.0
H829 H 0.62957 0.9868 0.46287 0.0
H830 H 0.66968 0.98424 0.46083 0.0
H831 H 0.66736 0.97983 0.44777 0.0
H832 H 0.66775 0.962 0.41095 0.0
H833 H 0.65259 0.97058 0.41953 0.0
H834 H 0.63752 0.95242 0.39644 0.0
H835 H 0.62258 0.96128 0.40493 0.0
H836 H 0.57319 0.98014 0.42011 0.0
H837 H 0.56425 0.99849 0.44022 0.0
H838 H 0.58603 0.9968 0.44407 0.0
H839 H 0.595 0.97835 0.42408 0.0
C840 C 0.25641 0.40247 0.69694 0.0
C841 C 0.25506 0.39239 0.70146 0.0
C842 C 0.2549 0.40521 0.7122 0.0
C843 C 0.25435 0.39374 0.70902 0.0
C844 C 0.25601 0.41531 0.70764 0.0
C845 C 0.2568 0.41393 0.70006 0.0
U846 U 0.2537 0.38241 0.6805 0.0
O847 O 0.2472 0.38574 0.6693 0.0
O848 O 0.26634 0.37943 0.67124 0.0
C849 C 0.2582 0.38341 0.66645 0.0
C850 C 0.2576 0.40094 0.68901 0.0
C851 C 0.26303 0.39239 0.66132 0.0
C852 C 0.27016 0.41258 0.65859 0.0
C853 C 0.26512 0.40428 0.6635 0.0
C854 C 0.27099 0.39717 0.64928 0.0
C855 C 0.27321 0.40911 0.65142 0.0
C856 C 0.26594 0.38891 0.65418 0.0
C857 C 0.24261 0.35011 0.68399 0.0
C858 C 0.24784 0.33183 0.67744 0.0
C859 C 0.22978 0.3323 0.68538 0.0
C860 C 0.23225 0.3443 0.68703 0.0
C861 C 0.2377 0.32583 0.68068 0.0
C862 C 0.25026 0.34387 0.67906 0.0
C863 C 0.24559 0.36241 0.68637 0.0
O864 O 0.26649 0.39354 0.68697 0.0
O865 O 0.24705 0.39921 0.6855 0.0
O866 O 0.23808 0.3709 0.68403 0.0
O867 O 0.25745 0.36545 0.68617 0.0
H868 H 0.25464 0.38346 0.69913 0.0
H869 H 0.25332 0.38581 0.71237 0.0
H870 H 0.25653 0.42424 0.70994 0.0
H871 H 0.25782 0.4218 0.69664 0.0
H872 H 0.27163 0.42172 0.66039 0.0
H873 H 0.26294 0.4071 0.66901 0.0
H874 H 0.27342 0.39412 0.64385 0.0
H875 H 0.26445 0.37973 0.65243 0.0
H876 H 0.2542 0.32711 0.67385 0.0
H877 H 0.22174 0.32805 0.68786 0.0
H878 H 0.22619 0.34899 0.69081 0.0
H879 H 0.25829 0.34819 0.6766 0.0
C880 C 0.85137 0.01925 0.9478 0.0
C881 C 0.86147 0.01527 0.95201 0.0
C882 C 0.84792 0.01317 0.96261 0.0
C883 C 0.85978 0.01228 0.95934 0.0
C884 C 0.83779 0.01709 0.95833 0.0
C885 C 0.83951 0.02012 0.95098 0.0
U886 U 0.87322 0.02129 0.93185 0.0
O887 O 0.87073 0.01801 0.9201 0.0
O888 O 0.87691 0.0357 0.92395 0.0
C889 C 0.87345 0.02914 0.91835 0.0
C890 C 0.85333 0.02266 0.94014 0.0
C891 C 0.86496 0.03501 0.91317 0.0
C892 C 0.84452 0.04268 0.90978 0.0
C893 C 0.85228 0.03677 0.91478 0.0
C894 C 0.86207 0.04503 0.90155 0.0
C895 C 0.84938 0.04697 0.90313 0.0
C896 C 0.86977 0.03911 0.90653 0.0
C897 C 0.90661 0.00994 0.93504 0.0
C898 C 0.92564 0.01644 0.92899 0.0
C899 C 0.92544 0.99789 0.93587 0.0
C900 C 0.91286 0.9997 0.93754 0.0
C901 C 0.93207 0.00636 0.93169 0.0
C902 C 0.91302 0.0182 0.93063 0.0
C903 C 0.89366 0.01208 0.9374 0.0
O904 O 0.8611 0.03165 0.93918 0.0
O905 O 0.85541 0.01367 0.93566 0.0
O906 O 0.88505 0.00556 0.93418 0.0
O907 O 0.89041 0.02337 0.93823 0.0
H908 H 0.87072 0.01458 0.94964 0.0
H909 H 0.86784 0.00949 0.96249 0.0
H910 H 0.82851 0.01775 0.96064 0.0
H911 H 0.8316 0.02315 0.94779 0.0
H912 H 0.83481 0.04412 0.91117 0.0
H913 H 0.84843 0.03368 0.91991 0.0
H914 H 0.86606 0.04804 0.89644 0.0
H915 H 0.87953 0.03778 0.90519 0.0
H916 H 0.93046 0.0232 0.92581 0.0
H917 H 0.93001 0.98991 0.93792 0.0
H918 H 0.90805 0.99318 0.94091 0.0
H919 H 0.90836 0.02615 0.9286 0.0
C920 C 0.24448 0.59795 0.1969 0.0
C921 C 0.24604 0.60809 0.20134 0.0
C922 C 0.24615 0.59547 0.21217 0.0
C923 C 0.24683 0.60687 0.2089 0.0
C924 C 0.24485 0.5853 0.20768 0.0
C925 C 0.24397 0.58655 0.2001 0.0
U926 U 0.24689 0.61771 0.18031 0.0
O927 O 0.25306 0.61416 0.16907 0.0
O928 O 0.234 0.62056 0.17114 0.0
C929 C 0.24198 0.61643 0.16631 0.0
C930 C 0.24314 0.59935 0.18897 0.0
C931 C 0.23694 0.60737 0.16129 0.0
C932 C 0.23132 0.58678 0.15845 0.0
C933 C 0.23656 0.59519 0.16322 0.0
C934 C 0.22679 0.60266 0.14982 0.0
C935 C 0.2263 0.59042 0.1517 0.0
C936 C 0.23207 0.61103 0.15457 0.0
C937 C 0.25811 0.65006 0.18349 0.0
C938 C 0.25261 0.66832 0.17698 0.0
C939 C 0.27108 0.66783 0.1846 0.0
C940 C 0.26865 0.65585 0.18632 0.0
C941 C 0.26294 0.6743 0.18003 0.0
C942 C 0.25023 0.6563 0.17867 0.0
C943 C 0.25518 0.6378 0.18596 0.0
O944 O 0.23422 0.60674 0.18695 0.0
O945 O 0.25362 0.60098 0.18537 0.0
O946 O 0.26262 0.62926 0.18361 0.0
O947 O 0.24332 0.63476 0.18589 0.0
H948 H 0.24655 0.61697 0.19895 0.0
H949 H 0.24802 0.61484 0.2122 0.0
H950 H 0.24422 0.57642 0.21005 0.0
H951 H 0.24278 0.57863 0.19674 0.0
H952 H 0.23121 0.57743 0.16004 0.0
H953 H 0.24025 0.59222 0.16841 0.0
H954 H 0.22281 0.60584 0.14474 0.0
H955 H 0.23221 0.62041 0.15303 0.0
H956 H 0.24609 0.67303 0.17349 0.0
H957 H 0.27925 0.67207 0.18693 0.0
H958 H 0.27488 0.65117 0.19001 0.0
H959 H 0.24206 0.652 0.17637 0.0
C960 C 0.35421 0.98056 0.44783 0.0
C961 C 0.36484 0.98257 0.45213 0.0
C962 C 0.35177 0.98569 0.46283 0.0
C963 C 0.36363 0.98507 0.45956 0.0
C964 C 0.34112 0.98383 0.45847 0.0
C965 C 0.34234 0.98126 0.45102 0.0
U966 U 0.37501 0.97885 0.43136 0.0
O967 O 0.37747 0.96504 0.42296 0.0
O968 O 0.37187 0.98327 0.41978 0.0
C969 C 0.37384 0.97217 0.41765 0.0
C970 C 0.35559 0.97776 0.44004 0.0
C971 C 0.36464 0.9671 0.41256 0.0
C972 C 0.34648 0.95469 0.41004 0.0
C973 C 0.35446 0.96029 0.41504 0.0
C974 C 0.3585 0.96304 0.40006 0.0
C975 C 0.34854 0.95583 0.40248 0.0
C976 C 0.36647 0.96859 0.40506 0.0
C977 C 0.40907 0.98808 0.43409 0.0
C978 C 0.42524 0.98448 0.42506 0.0
C979 C 0.43024 0.99489 0.4363 0.0
C980 C 0.41782 0.99387 0.43853 0.0
C981 C 0.43413 0.9901 0.42957 0.0
C982 C 0.41279 0.9835 0.42731 0.0
C983 C 0.39626 0.9865 0.43676 0.0
O984 O 0.35791 0.98702 0.43582 0.0
O985 O 0.36276 0.96848 0.43862 0.0
O986 O 0.39247 0.97532 0.43726 0.0
O987 O 0.38784 0.9937 0.43393 0.0
H988 H 0.37408 0.98217 0.44974 0.0
H989 H 0.372 0.98664 0.46274 0.0
H990 H 0.33186 0.98417 0.46083 0.0
H991 H 0.33405 0.97975 0.44777 0.0
H992 H 0.33897 0.94914 0.41209 0.0
H993 H 0.35288 0.95906 0.42083 0.0
H994 H 0.36022 0.96429 0.39429 0.0
H995 H 0.37424 0.97387 0.40305 0.0
H996 H 0.42791 0.98081 0.41982 0.0
H997 H 0.43687 0.9991 0.43995 0.0
H998 H 0.4151 0.99742 0.4438 0.0
H999 H 0.40611 0.97902 0.4238 0.0
C1000 C 0.75742 0.59992 0.19665 0.0
C1001 C 0.75584 0.61014 0.20102 0.0
C1002 C 0.75558 0.5977 0.21193 0.0
C1003 C 0.75497 0.60904 0.20859 0.0
C1004 C 0.75694 0.58746 0.20751 0.0
C1005 C 0.75789 0.58857 0.19993 0.0
U1006 U 0.75463 0.61917 0.17983 0.0
O1007 O 0.7673 0.62182 0.17055 0.0
O1008 O 0.74833 0.61502 0.16867 0.0
C1009 C 0.75935 0.61729 0.16583 0.0
C1010 C 0.7587 0.60115 0.18871 0.0
C1011 C 0.76446 0.60791 0.16107 0.0
C1012 C 0.77572 0.5892 0.1594 0.0
C1013 C 0.77033 0.59776 0.16401 0.0
C1014 C 0.76909 0.6007 0.14887 0.0
C1015 C 0.77525 0.59063 0.15178 0.0
C1016 C 0.76377 0.60927 0.15349 0.0
C1017 C 0.74301 0.65152 0.1827 0.0
C1018 C 0.74833 0.66987 0.17624 0.0
C1019 C 0.72973 0.66909 0.18374 0.0
C1020 C 0.73231 0.65715 0.18547 0.0
C1021 C 0.73786 0.6757 0.17924 0.0
C1022 C 0.75086 0.65788 0.17794 0.0
C1023 C 0.74615 0.63935 0.18526 0.0
O1024 O 0.74817 0.60255 0.18513 0.0
O1025 O 0.7675 0.60859 0.18659 0.0
O1026 O 0.75805 0.63646 0.18517 0.0
O1027 O 0.73879 0.63065 0.18304 0.0
H1028 H 0.75536 0.61897 0.19858 0.0
H1029 H 0.75374 0.61708 0.21184 0.0
H1030 H 0.75751 0.57861 0.20993 0.0
H1031 H 0.75909 0.5806 0.19662 0.0
H1032 H 0.78026 0.58147 0.1618 0.0
H1033 H 0.77089 0.59654 0.16986 0.0
H1034 H 0.76869 0.60214 0.14304 0.0
H1035 H 0.75927 0.61708 0.15113 0.0
H1036 H 0.75484 0.67469 0.1728 0.0
H1037 H 0.72145 0.67321 0.18603 0.0
H1038 H 0.7261 0.65238 0.18912 0.0
H1039 H 0.75916 0.65371 0.1757 0.0
C1040 C 0.14602 0.02059 0.94779 0.0
C1041 C 0.1355 0.01786 0.95204 0.0
C1042 C 0.14862 0.01549 0.96278 0.0
C1043 C 0.13678 0.01537 0.95946 0.0
C1044 C 0.15917 0.01805 0.95848 0.0
C1045 C 0.15787 0.02062 0.95103 0.0
U1046 U 0.12503 0.0219 0.93142 0.0
O1047 O 0.12219 0.03574 0.92304 0.0
O1048 O 0.12803 0.01761 0.91984 0.0
C1049 C 0.12582 0.02866 0.91771 0.0
C1050 C 0.14452 0.02346 0.94001 0.0
C1051 C 0.13496 0.03385 0.91265 0.0
C1052 C 0.15571 0.04142 0.90991 0.0
C1053 C 0.14727 0.03623 0.91482 0.0
C1054 C 0.13959 0.04183 0.90064 0.0
C1055 C 0.15196 0.0443 0.90276 0.0
C1056 C 0.1312 0.03664 0.90554 0.0
C1057 C 0.09122 0.01128 0.93451 0.0
C1058 C 0.07198 0.01769 0.92864 0.0
C1059 C 0.07261 0.9989 0.93526 0.0
C1060 C 0.08519 0.00085 0.9369 0.0
C1061 C 0.06577 0.00742 0.93125 0.0
C1062 C 0.0846 0.0196 0.93024 0.0
C1063 C 0.10414 0.01354 0.9369 0.0
O1064 O 0.14244 0.01418 0.93576 0.0
O1065 O 0.13705 0.03255 0.93866 0.0
O1066 O 0.10754 0.02485 0.9374 0.0
O1067 O 0.11277 0.00661 0.93403 0.0
H1068 H 0.12628 0.01771 0.94961 0.0
H1069 H 0.1285 0.01324 0.9626 0.0
H1070 H 0.1684 0.01829 0.96089 0.0
H1071 H 0.16608 0.0227 0.94783 0.0
H1072 H 0.16519 0.04311 0.9117 0.0
H1073 H 0.15032 0.03411 0.9203 0.0
H1074 H 0.13631 0.04411 0.89523 0.0
H1075 H 0.1217 0.03492 0.90379 0.0
H1076 H 0.06699 0.02448 0.92558 0.0
H1077 H 0.0682 0.99079 0.93724 0.0
H1078 H 0.09015 0.99429 0.94016 0.0
H1079 H 0.08908 0.0277 0.9283 0.0
C1080 C 0.74354 0.40071 0.69658 0.0
C1081 C 0.74523 0.39058 0.70102 0.0
C1082 C 0.74518 0.40318 0.71185 0.0
C1083 C 0.74599 0.3918 0.70859 0.0
C1084 C 0.74373 0.41334 0.70738 0.0
C1085 C 0.74287 0.4121 0.69979 0.0
U1086 U 0.74693 0.38106 0.68003 0.0
O1087 O 0.73445 0.37766 0.67077 0.0
O1088 O 0.75324 0.38487 0.66882 0.0
C1089 C 0.74234 0.3821 0.66598 0.0
C1090 C 0.74237 0.3993 0.68864 0.0
C1091 C 0.73704 0.39088 0.66087 0.0
C1092 C 0.72389 0.40815 0.65835 0.0
C1093 C 0.72962 0.40042 0.66335 0.0
C1094 C 0.73333 0.39713 0.64838 0.0
C1095 C 0.72553 0.40648 0.6508 0.0
C1096 C 0.739 0.3894 0.65338 0.0
C1097 C 0.75906 0.34907 0.68337 0.0
C1098 C 0.75428 0.33079 0.6767 0.0
C1099 C 0.77204 0.33139 0.68488 0.0
C1100 C 0.76938 0.34336 0.68653 0.0
C1101 C 0.76435 0.32487 0.68008 0.0
C1102 C 0.75168 0.3428 0.67832 0.0
C1103 C 0.75576 0.36127 0.68579 0.0
O1104 O 0.75297 0.398 0.68511 0.0
O1105 O 0.73374 0.39166 0.68655 0.0
O1106 O 0.74381 0.36396 0.68565 0.0
O1107 O 0.76297 0.36999 0.68345 0.0
H1108 H 0.74587 0.38172 0.69863 0.0
H1109 H 0.7473 0.38383 0.71188 0.0
H1110 H 0.74301 0.42221 0.70974 0.0
H1111 H 0.7416 0.42001 0.69644 0.0
H1112 H 0.71786 0.41518 0.6604 0.0
H1113 H 0.72802 0.40171 0.66913 0.0
H1114 H 0.73497 0.39572 0.64262 0.0
H1115 H 0.74477 0.38212 0.65138 0.0
H1116 H 0.74811 0.32603 0.67303 0.0
H1117 H 0.78001 0.3272 0.68747 0.0
H1118 H 0.77523 0.34807 0.6904 0.0
H1119 H 0.74369 0.34705 0.67578 0.0
C1120 C 0.35454 0.02036 0.55438 0.0
C1121 C 0.36509 0.01743 0.55022 0.0
C1122 C 0.35201 0.01405 0.53955 0.0
C1123 C 0.36385 0.01434 0.54287 0.0
C1124 C 0.34144 0.017 0.54376 0.0
C1125 C 0.34271 0.02012 0.55112 0.0
U1126 U 0.37515 0.0224 0.57094 0.0
O1127 O 0.37762 0.03649 0.57919 0.0
O1128 O 0.37169 0.01846 0.58254 0.0
C1129 C 0.37372 0.02961 0.58455 0.0
C1130 C 0.35592 0.02356 0.56212 0.0
C1131 C 0.36425 0.03493 0.58937 0.0
C1132 C 0.34491 0.0459 0.59122 0.0
C1133 C 0.35346 0.04035 0.58654 0.0
C1134 C 0.35769 0.04038 0.6016 0.0
C1135 C 0.34698 0.04606 0.59881 0.0
C1136 C 0.36625 0.03488 0.59691 0.0
C1137 C 0.40903 0.01204 0.56856 0.0
C1138 C 0.42603 0.01689 0.57683 0.0
C1139 C 0.42926 0.00258 0.56706 0.0
C1140 C 0.41688 0.00407 0.56486 0.0
C1141 C 0.43403 0.00908 0.57302 0.0
C1142 C 0.4136 0.01833 0.57463 0.0
C1143 C 0.39629 0.01398 0.56584 0.0
O1144 O 0.35791 0.01446 0.56653 0.0
O1145 O 0.36336 0.03271 0.56339 0.0
O1146 O 0.39286 0.02524 0.56517 0.0
O1147 O 0.3876 0.00711 0.56869 0.0
H1148 H 0.37431 0.01756 0.55266 0.0
H1149 H 0.3722 0.01232 0.53978 0.0
H1150 H 0.33218 0.01673 0.5414 0.0
H1151 H 0.33446 0.02231 0.55428 0.0
H1152 H 0.33668 0.05008 0.58891 0.0
H1153 H 0.35175 0.04041 0.58071 0.0
H1154 H 0.35966 0.04047 0.60739 0.0
H1155 H 0.37455 0.03076 0.59918 0.0
H1156 H 0.42939 0.02193 0.58149 0.0
H1157 H 0.43521 0.99662 0.56395 0.0
H1158 H 0.4135 0.99916 0.56015 0.0
H1159 H 0.40763 0.02449 0.57759 0.0
C1160 C 0.74291 0.60035 0.30552 0.0
C1161 C 0.7449 0.61047 0.30113 0.0
C1162 C 0.74586 0.59783 0.29031 0.0
C1163 C 0.74631 0.60923 0.2936 0.0
C1164 C 0.74391 0.5877 0.29476 0.0
C1165 C 0.74244 0.58896 0.30231 0.0
U1166 U 0.74529 0.61997 0.32217 0.0
O1167 O 0.73259 0.62284 0.3314 0.0
O1168 O 0.75159 0.61617 0.33338 0.0
C1169 C 0.74056 0.61852 0.33618 0.0
C1170 C 0.74141 0.60172 0.31345 0.0
C1171 C 0.73556 0.60949 0.34125 0.0
C1172 C 0.72141 0.59307 0.34403 0.0
C1173 C 0.72668 0.60101 0.33899 0.0
C1174 C 0.73419 0.60169 0.35359 0.0
C1175 C 0.72497 0.59342 0.35142 0.0
C1176 C 0.73939 0.60966 0.34856 0.0
C1177 C 0.7566 0.65216 0.31926 0.0
C1178 C 0.75387 0.66821 0.32809 0.0
C1179 C 0.76605 0.67163 0.31714 0.0
C1180 C 0.76388 0.65981 0.31495 0.0
C1181 C 0.76092 0.67602 0.32368 0.0
C1182 C 0.75176 0.65636 0.3259 0.0
C1183 C 0.7537 0.64007 0.31659 0.0
O1184 O 0.75186 0.60322 0.31709 0.0
O1185 O 0.73255 0.60918 0.31544 0.0
O1186 O 0.74182 0.63714 0.31669 0.0
O1187 O 0.76107 0.63144 0.31889 0.0
H1188 H 0.7453 0.61934 0.30353 0.0
H1189 H 0.7476 0.61724 0.29034 0.0
H1190 H 0.74367 0.57878 0.29242 0.0
H1191 H 0.74098 0.58105 0.30563 0.0
H1192 H 0.71426 0.58691 0.34217 0.0
H1193 H 0.72363 0.60069 0.33336 0.0
H1194 H 0.73734 0.60206 0.3592 0.0
H1195 H 0.7463 0.61609 0.35039 0.0
H1196 H 0.74991 0.6713 0.33319 0.0
H1197 H 0.77138 0.67744 0.31358 0.0
H1198 H 0.76767 0.65671 0.3098 0.0
H1199 H 0.74616 0.65053 0.32932 0.0
C1200 C 0.14643 0.98022 0.05425 0.0
C1201 C 0.13577 0.98223 0.04998 0.0
C1202 C 0.14882 0.98659 0.03942 0.0
C1203 C 0.13695 0.98535 0.04263 0.0
C1204 C 0.15948 0.98453 0.04374 0.0
C1205 C 0.15828 0.98138 0.0511 0.0
U1206 U 0.12554 0.97674 0.0706 0.0
O1207 O 0.12413 0.96278 0.07899 0.0
O1208 O 0.12818 0.98137 0.08219 0.0
C1209 C 0.12719 0.97014 0.0843 0.0
C1210 C 0.1451 0.9771 0.062 0.0
C1211 C 0.13682 0.96581 0.08941 0.0
C1212 C 0.1547 0.9532 0.09225 0.0
C1213 C 0.14635 0.958 0.08715 0.0
C1214 C 0.1444 0.96436 0.10186 0.0
C1215 C 0.15369 0.95618 0.09969 0.0
C1216 C 0.13603 0.96909 0.09677 0.0
C1217 C 0.09071 0.98366 0.0676 0.0
C1218 C 0.06881 0.97955 0.06523 0.0
C1219 C 0.07477 0.99051 0.0761 0.0
C1220 C 0.08735 0.98953 0.0741 0.0
C1221 C 0.06537 0.98554 0.07167 0.0
C1222 C 0.08134 0.97866 0.06321 0.0
C1223 C 0.1038 0.98283 0.06514 0.0
O1224 O 0.14206 0.9861 0.06628 0.0
O1225 O 0.13857 0.96735 0.0633 0.0
O1226 O 0.10837 0.97192 0.06468 0.0
O1227 O 0.11171 0.99063 0.0679 0.0
H1228 H 0.12653 0.98138 0.05233 0.0
H1229 H 0.12854 0.98668 0.03945 0.0
H1230 H 0.16875 0.98554 0.04147 0.0
H1231 H 0.1666 0.97991 0.05434 0.0
H1232 H 0.16166 0.94686 0.09039 0.0
H1233 H 0.14717 0.95538 0.08148 0.0
H1234 H 0.1435 0.96703 0.10751 0.0
H1235 H 0.12878 0.97515 0.09861 0.0
H1236 H 0.06179 0.97578 0.06165 0.0
H1237 H 0.0724 0.99511 0.08111 0.0
H1238 H 0.09441 0.99342 0.0776 0.0
H1239 H 0.08372 0.97414 0.05817 0.0
C1240 C 0.75768 0.40018 0.80543 0.0
C1241 C 0.75576 0.39009 0.80101 0.0
C1242 C 0.7548 0.40279 0.79022 0.0
C1243 C 0.75438 0.39137 0.79348 0.0
C1244 C 0.75668 0.4129 0.7947 0.0
C1245 C 0.75811 0.41159 0.80225 0.0
U1246 U 0.75506 0.38058 0.8221 0.0
O1247 O 0.76767 0.37774 0.83138 0.0
O1248 O 0.74867 0.38446 0.83328 0.0
C1249 C 0.75967 0.38212 0.83612 0.0
C1250 C 0.75912 0.39878 0.81336 0.0
C1251 C 0.76465 0.39124 0.84114 0.0
C1252 C 0.77804 0.40835 0.84363 0.0
C1253 C 0.77286 0.40018 0.83869 0.0
C1254 C 0.7665 0.39897 0.85346 0.0
C1255 C 0.77503 0.40775 0.8511 0.0
C1256 C 0.7614 0.39077 0.84853 0.0
C1257 C 0.74348 0.34845 0.81921 0.0
C1258 C 0.74593 0.33238 0.82804 0.0
C1259 C 0.73371 0.32913 0.81709 0.0
C1260 C 0.73608 0.34091 0.8149 0.0
C1261 C 0.73875 0.32467 0.82364 0.0
C1262 C 0.74825 0.34419 0.82585 0.0
C1263 C 0.74654 0.36051 0.81653 0.0
O1264 O 0.74863 0.39735 0.81698 0.0
O1265 O 0.76791 0.39125 0.81538 0.0
O1266 O 0.75845 0.36334 0.81668 0.0
O1267 O 0.73922 0.36921 0.81879 0.0
H1268 H 0.75539 0.38119 0.80339 0.0
H1269 H 0.75315 0.38338 0.7902 0.0
H1270 H 0.75689 0.42184 0.79239 0.0
H1271 H 0.75952 0.41948 0.8056 0.0
H1272 H 0.78466 0.41491 0.84162 0.0
H1273 H 0.77545 0.40071 0.83298 0.0
H1274 H 0.76379 0.39838 0.85914 0.0
H1275 H 0.755 0.38398 0.8505 0.0
H1276 H 0.74982 0.32924 0.83315 0.0
H1277 H 0.72829 0.32339 0.81353 0.0
H1278 H 0.73235 0.34406 0.80974 0.0
H1279 H 0.75394 0.34994 0.82927 0.0
C1280 C 0.14404 0.50806 0.97437 0.0
C1281 C 0.15072 0.49952 0.97029 0.0
C1282 C 0.145 0.5084 0.98197 0.0
C1283 C 0.15368 0.48952 0.99775 0.0
H1284 H 0.15301 0.51984 0.0081 0.0
C1285 C 0.14472 0.49249 0.02874 0.0
C1286 C 0.15112 0.50128 0.03277 0.0
C1287 C 0.14562 0.49215 0.02114 0.0
C1288 C 0.15336 0.51129 0.0053 0.0
H1289 H 0.16377 0.48469 0.97105 0.0
H1290 H 0.16572 0.48549 0.98429 0.0
H1291 H 0.15322 0.51972 0.99482 0.0
H1292 H 0.16362 0.51653 0.03195 0.0
H1293 H 0.16546 0.51573 0.0187 0.0
H1294 H 0.15404 0.48109 0.00824 0.0
C1295 C 0.15957 0.49182 0.98161 0.0
C1296 C 0.15331 0.51122 0.99768 0.0
C1297 C 0.15857 0.49146 0.974 0.0
C1298 C 0.15865 0.50957 0.02902 0.0
C1299 C 0.15958 0.5092 0.02142 0.0
C1300 C 0.15377 0.48959 0.00538 0.0
C1301 C 0.15272 0.50023 0.98569 0.0
C1302 C 0.15336 0.50033 0.99381 0.0
C1303 C 0.15298 0.50055 0.01737 0.0
C1304 C 0.1535 0.50047 0.00925 0.0
H1305 H 0.13803 0.51451 0.97169 0.0
H1306 H 0.13948 0.51492 0.98493 0.0
H1307 H 0.1536 0.48096 0.99496 0.0
H1308 H 0.13896 0.48586 0.03145 0.0
H1309 H 0.1403 0.48544 0.01821 0.0
C1310 C 0.74786 0.89166 0.22341 0.0
C1311 C 0.75521 0.88272 0.22012 0.0
C1312 C 0.74693 0.89238 0.23101 0.0
C1313 C 0.76296 0.88347 0.24798 0.0
H1314 H 0.73039 0.88733 0.2569 0.0
C1315 C 0.75486 0.87538 0.27866 0.0
C1316 C 0.74632 0.88276 0.28238 0.0
C1317 C 0.75615 0.87613 0.27109 0.0
C1318 C 0.73958 0.88644 0.25451 0.0
H1319 H 0.76756 0.8677 0.22223 0.0
H1320 H 0.76589 0.86892 0.23547 0.0
H1321 H 0.73228 0.88739 0.24364 0.0
H1322 H 0.7325 0.8968 0.28101 0.0
H1323 H 0.735 0.89835 0.26783 0.0
H1324 H 0.7703 0.88254 0.25881 0.0
C1325 C 0.76087 0.87539 0.23218 0.0
C1326 C 0.74066 0.88645 0.2469 0.0
C1327 C 0.76172 0.87462 0.22459 0.0
C1328 C 0.73924 0.89105 0.27834 0.0
C1329 C 0.74057 0.89183 0.27076 0.0
C1330 C 0.7619 0.88353 0.25558 0.0
C1331 C 0.75343 0.88425 0.23548 0.0
C1332 C 0.75235 0.88484 0.24355 0.0
C1333 C 0.74899 0.88434 0.26703 0.0
C1334 C 0.75018 0.88488 0.25894 0.0
H1335 H 0.74267 0.89798 0.2201 0.0
H1336 H 0.74119 0.89935 0.23339 0.0
H1337 H 0.77213 0.8824 0.24556 0.0
H1338 H 0.76059 0.869 0.2816 0.0
H1339 H 0.76262 0.87011 0.26841 0.0
C1340 C 0.35554 0.50786 0.52876 0.0
C1341 C 0.34856 0.4994 0.53273 0.0
C1342 C 0.35451 0.50856 0.52117 0.0
C1343 C 0.34478 0.49079 0.5051 0.0
H1344 H 0.34686 0.52154 0.49529 0.0
C1345 C 0.33955 0.49588 0.47378 0.0
C1346 C 0.34856 0.50313 0.47037 0.0
C1347 C 0.33855 0.49563 0.48139 0.0
C1348 C 0.34633 0.51288 0.49795 0.0
H1349 H 0.33489 0.48512 0.53179 0.0
H1350 H 0.33281 0.48659 0.51858 0.0
H1351 H 0.34673 0.52079 0.50857 0.0
H1352 H 0.36335 0.51605 0.47225 0.0
H1353 H 0.36163 0.51558 0.48551 0.0
H1354 H 0.34438 0.48291 0.49445 0.0
C1355 C 0.33926 0.49255 0.52133 0.0
C1356 C 0.34629 0.51244 0.50557 0.0
C1357 C 0.34033 0.49181 0.52892 0.0
C1358 C 0.3564 0.51028 0.47472 0.0
C1359 C 0.35533 0.5101 0.48231 0.0
C1360 C 0.34475 0.49124 0.49748 0.0
C1361 C 0.3464 0.50088 0.51735 0.0
C1362 C 0.34568 0.50138 0.50925 0.0
C1363 C 0.34645 0.50272 0.48574 0.0
C1364 C 0.34568 0.50228 0.49382 0.0
H1365 H 0.36184 0.51396 0.53151 0.0
H1366 H 0.36027 0.51499 0.5183 0.0
H1367 H 0.34448 0.48211 0.50774 0.0
H1368 H 0.33343 0.49023 0.47056 0.0
H1369 H 0.33156 0.48992 0.48387 0.0
C1370 C 0.74678 0.10915 0.77913 0.0
C1371 C 0.75418 0.11812 0.78234 0.0
C1372 C 0.74586 0.10825 0.77153 0.0
C1373 C 0.76209 0.11651 0.75452 0.0
H1374 H 0.7295 0.11312 0.74555 0.0
C1375 C 0.75436 0.12449 0.72381 0.0
C1376 C 0.74561 0.11735 0.72009 0.0
C1377 C 0.75562 0.1237 0.73138 0.0
C1378 C 0.7387 0.11387 0.74795 0.0
H1379 H 0.76665 0.133 0.78011 0.0
H1380 H 0.76504 0.13144 0.76687 0.0
H1381 H 0.73131 0.11324 0.75881 0.0
H1382 H 0.7314 0.10367 0.72145 0.0
H1383 H 0.73386 0.10203 0.73464 0.0
H1384 H 0.76952 0.11711 0.7437 0.0
C1385 C 0.75995 0.1251 0.77022 0.0
C1386 C 0.73973 0.11396 0.75556 0.0
C1387 C 0.76077 0.12606 0.7778 0.0
C1388 C 0.73831 0.10923 0.72412 0.0
C1389 C 0.73961 0.1084 0.7317 0.0
C1390 C 0.76109 0.11634 0.74692 0.0
C1391 C 0.75245 0.11622 0.76699 0.0
C1392 C 0.75142 0.11543 0.75892 0.0
C1393 C 0.74823 0.11569 0.73543 0.0
C1394 C 0.74936 0.11517 0.74353 0.0
H1395 H 0.74153 0.10295 0.78249 0.0
H1396 H 0.74007 0.10127 0.7692 0.0
H1397 H 0.77125 0.11746 0.75695 0.0
H1398 H 0.76027 0.13071 0.72088 0.0
H1399 H 0.76225 0.12956 0.73406 0.0
C1400 C 0.8433 0.49716 0.02896 0.0
C1401 C 0.85237 0.50438 0.03234 0.0
C1402 C 0.84245 0.49667 0.02135 0.0
C1403 C 0.85082 0.51329 0.00465 0.0
H1404 H 0.84812 0.4823 0.99518 0.0
C1405 C 0.85942 0.50724 0.97384 0.0
C1406 C 0.85208 0.49891 0.97 0.0
C1407 C 0.8586 0.50813 0.98143 0.0
C1408 C 0.84868 0.49105 0.99773 0.0
H1409 H 0.86746 0.51695 0.03041 0.0
H1410 H 0.86602 0.51606 0.01715 0.0
H1411 H 0.84812 0.48347 0.00846 0.0
H1412 H 0.83801 0.48504 0.97116 0.0
H1413 H 0.83632 0.48683 0.98438 0.0
H1414 H 0.85138 0.52089 0.99395 0.0
C1415 C 0.85954 0.5108 0.02037 0.0
C1416 C 0.84869 0.49171 0.00535 0.0
C1417 C 0.86045 0.51122 0.02796 0.0
C1418 C 0.84373 0.49163 0.97393 0.0
C1419 C 0.84288 0.49255 0.98153 0.0
C1420 C 0.85074 0.51264 0.99704 0.0
C1421 C 0.85058 0.50348 0.01697 0.0
C1422 C 0.8499 0.50282 0.00889 0.0
C1423 C 0.85036 0.50076 0.98537 0.0
C1424 C 0.8498 0.5015 0.99348 0.0
H1425 H 0.837 0.49174 0.03219 0.0
H1426 H 0.83539 0.49102 0.01889 0.0
H1427 H 0.85157 0.522 0.00723 0.0
H1428 H 0.86583 0.51311 0.97099 0.0
H1429 H 0.86462 0.51446 0.98421 0.0
C1430 C 0.25601 0.1258 0.77932 0.0
C1431 C 0.24705 0.11877 0.78295 0.0
C1432 C 0.25747 0.12502 0.77176 0.0
C1433 C 0.24084 0.1155 0.75502 0.0
H1434 H 0.27372 0.11828 0.74632 0.0
C1435 C 0.24946 0.11016 0.72398 0.0
C1436 C 0.25723 0.11883 0.72075 0.0
C1437 C 0.24839 0.10942 0.73157 0.0
C1438 C 0.26447 0.11756 0.74867 0.0
H1439 H 0.23264 0.10532 0.78142 0.0
H1440 H 0.23544 0.1037 0.76827 0.0
H1441 H 0.2716 0.11813 0.75956 0.0
H1442 H 0.2702 0.13332 0.72297 0.0
H1443 H 0.26829 0.13204 0.73621 0.0
H1444 H 0.23374 0.11492 0.7441 0.0
C1445 C 0.24121 0.10997 0.77126 0.0
C1446 C 0.26324 0.1175 0.75626 0.0
C1447 C 0.23972 0.11079 0.77883 0.0
C1448 C 0.26404 0.12662 0.72529 0.0
C1449 C 0.26304 0.12581 0.73287 0.0
C1450 C 0.24208 0.11549 0.74743 0.0
C1451 C 0.25005 0.11714 0.76762 0.0
C1452 C 0.2514 0.1166 0.75954 0.0
C1453 C 0.25516 0.11724 0.7361 0.0
C1454 C 0.25389 0.11665 0.74417 0.0
H1455 H 0.26194 0.13192 0.78232 0.0
H1456 H 0.26427 0.13078 0.76915 0.0
H1457 H 0.23156 0.11497 0.75734 0.0
H1458 H 0.24403 0.1041 0.72062 0.0
H1459 H 0.24231 0.10266 0.7339 0.0
C1460 C 0.64704 0.48931 0.4737 0.0
C1461 C 0.64897 0.50029 0.47011 0.0
C1462 C 0.64749 0.48864 0.48131 0.0
C1463 C 0.6584 0.50495 0.49778 0.0
H1464 H 0.63366 0.48528 0.50754 0.0
C1465 C 0.65897 0.49693 0.529 0.0
C1466 C 0.64738 0.49692 0.53261 0.0
C1467 C 0.65956 0.49717 0.52138 0.0
C1468 C 0.64058 0.49089 0.50491 0.0
H1469 H 0.65291 0.51919 0.47171 0.0
H1470 H 0.6536 0.51805 0.48498 0.0
H1471 H 0.63398 0.48617 0.49429 0.0
H1472 H 0.62731 0.497 0.53098 0.0
H1473 H 0.62834 0.49776 0.51774 0.0
H1474 H 0.66474 0.50995 0.50843 0.0
C1475 C 0.65195 0.5099 0.48192 0.0
C1476 C 0.64088 0.49127 0.4973 0.0
C1477 C 0.65155 0.51056 0.4743 0.0
C1478 C 0.6364 0.49717 0.5284 0.0
C1479 C 0.63699 0.49743 0.52079 0.0
C1480 C 0.65808 0.50458 0.50541 0.0
C1481 C 0.64983 0.49894 0.48552 0.0
C1482 C 0.64976 0.49833 0.49363 0.0
C1483 C 0.64857 0.4974 0.51718 0.0
C1484 C 0.64913 0.49759 0.50907 0.0
H1485 H 0.64521 0.48121 0.47062 0.0
H1486 H 0.64604 0.48001 0.48389 0.0
H1487 H 0.66545 0.51038 0.49514 0.0
H1488 H 0.66761 0.49685 0.53207 0.0
H1489 H 0.66863 0.49703 0.51878 0.0
C1490 C 0.26134 0.8885 0.27876 0.0
C1491 C 0.25407 0.88042 0.28284 0.0
C1492 C 0.25992 0.88931 0.27119 0.0
C1493 C 0.23812 0.88159 0.25611 0.0
H1494 H 0.26768 0.88461 0.24404 0.0
C1495 C 0.2376 0.8728 0.22511 0.0
C1496 C 0.24431 0.88073 0.22062 0.0
C1497 C 0.23857 0.87351 0.2327 0.0
C1498 C 0.25933 0.88391 0.24734 0.0
H1499 H 0.23938 0.86707 0.28214 0.0
H1500 H 0.23719 0.86821 0.26896 0.0
H1501 H 0.26976 0.88449 0.25728 0.0
H1502 H 0.25734 0.8956 0.22058 0.0
H1503 H 0.25903 0.89687 0.23386 0.0
H1504 H 0.22773 0.88077 0.24615 0.0
C1505 C 0.24388 0.87405 0.27161 0.0
C1506 C 0.26051 0.88386 0.25494 0.0
C1507 C 0.24526 0.87327 0.27917 0.0
C1508 C 0.25199 0.88943 0.22389 0.0
C1509 C 0.25304 0.89008 0.23149 0.0
C1510 C 0.23696 0.88157 0.24852 0.0
C1511 C 0.25122 0.88205 0.26751 0.0
C1512 C 0.24993 0.88261 0.25942 0.0
C1513 C 0.24634 0.88212 0.23598 0.0
C1514 C 0.24755 0.88264 0.24405 0.0
H1515 H 0.26829 0.89407 0.28139 0.0
H1516 H 0.26564 0.89567 0.26822 0.0
H1517 H 0.22975 0.88085 0.25939 0.0
H1518 H 0.23151 0.86607 0.22275 0.0
H1519 H 0.23338 0.86718 0.236 0.0
C1520 C 0.65963 0.01573 0.52738 0.0
C1521 C 0.65124 0.00954 0.53192 0.0
C1522 C 0.66056 0.0129 0.51996 0.0
C1523 C 0.65284 0.98909 0.5065 0.0
H1524 H 0.65541 0.01499 0.49246 0.0
C1525 C 0.6431 0.98246 0.47584 0.0
C1526 C 0.65106 0.98818 0.47083 0.0
C1527 C 0.64406 0.98483 0.4833 0.0
C1528 C 0.65485 0.00764 0.49631 0.0
H1529 H 0.63748 0.99527 0.53223 0.0
H1530 H 0.63882 0.99057 0.5193 0.0
H1531 H 0.65539 0.01954 0.50547 0.0
H1532 H 0.66626 0.00088 0.46973 0.0
H1533 H 0.66796 0.00501 0.4828 0.0
H1534 H 0.65205 0.97723 0.49733 0.0
C1535 C 0.64482 0.99753 0.52147 0.0
C1536 C 0.65486 0.01024 0.50378 0.0
C1537 C 0.64392 0.00034 0.52888 0.0
C1538 C 0.66006 0.99628 0.47346 0.0
C1539 C 0.66095 0.99872 0.48093 0.0
C1540 C 0.65277 0.9865 0.49904 0.0
C1541 C 0.6531 0.0038 0.51691 0.0
C1542 C 0.65374 0.00101 0.50897 0.0
C1543 C 0.65295 0.99303 0.48593 0.0
C1544 C 0.65366 0.99575 0.49386 0.0
H1545 H 0.66533 0.02294 0.52952 0.0
H1546 H 0.66714 0.01783 0.51663 0.0
H1547 H 0.6522 0.98173 0.51033 0.0
H1548 H 0.63616 0.97608 0.47399 0.0
H1549 H 0.63767 0.98039 0.487 0.0
C1550 C 0.247 0.41533 0.72355 0.0
C1551 C 0.25452 0.40654 0.72026 0.0
C1552 C 0.24644 0.41632 0.73116 0.0
C1553 C 0.26366 0.40863 0.74795 0.0
H1554 H 0.23135 0.41114 0.75736 0.0
C1555 C 0.25724 0.40024 0.77872 0.0
C1556 C 0.24846 0.40716 0.78256 0.0
C1557 C 0.25823 0.40113 0.77114 0.0
C1558 C 0.24047 0.41064 0.75483 0.0
H1559 H 0.26759 0.39208 0.72234 0.0
H1560 H 0.26659 0.39377 0.73558 0.0
H1561 H 0.23263 0.41107 0.74408 0.0
H1562 H 0.23392 0.42058 0.78142 0.0
H1563 H 0.23589 0.42238 0.76821 0.0
H1564 H 0.27153 0.4082 0.75866 0.0
C1565 C 0.26114 0.39992 0.7323 0.0
C1566 C 0.24119 0.41058 0.74721 0.0
C1567 C 0.26161 0.39887 0.72472 0.0
C1568 C 0.24085 0.41518 0.77864 0.0
C1569 C 0.24188 0.4161 0.77106 0.0
C1570 C 0.26295 0.40877 0.75556 0.0
C1571 C 0.2535 0.40861 0.73561 0.0
C1572 C 0.25278 0.40942 0.74369 0.0
C1573 C 0.25052 0.40902 0.7672 0.0
C1574 C 0.25133 0.40962 0.7591 0.0
H1575 H 0.24137 0.42132 0.72026 0.0
H1576 H 0.24054 0.42315 0.73355 0.0
H1577 H 0.27275 0.40792 0.74539 0.0
H1578 H 0.26337 0.39409 0.78156 0.0
H1579 H 0.26488 0.39542 0.76836 0.0
C1580 C 0.83875 0.98423 0.02744 0.0
C1581 C 0.84651 0.99128 0.0319 0.0
C1582 C 0.83765 0.98668 0.01998 0.0
C1583 C 0.84348 0.01033 0.00608 0.0
H1584 H 0.84329 0.98351 0.99262 0.0
C1585 C 0.83855 0.01725 0.97496 0.0
C1586 C 0.84626 0.01019 0.97047 0.0
C1587 C 0.83749 0.01478 0.98242 0.0
C1588 C 0.8434 0.99111 0.9963 0.0
H1589 H 0.8589 0.00667 0.03203 0.0
H1590 H 0.85727 0.01072 0.01903 0.0
H1591 H 0.84369 0.97975 0.0057 0.0
H1592 H 0.8586 0.99476 0.9703 0.0
H1593 H 0.85704 0.99068 0.9833 0.0
H1594 H 0.84368 0.02168 0.99668 0.0
C1595 C 0.8519 0.00338 0.02129 0.0
C1596 C 0.84346 0.98895 0.00381 0.0
C1597 C 0.85297 0.00095 0.02874 0.0
C1598 C 0.8527 0.00048 0.9736 0.0
C1599 C 0.85168 0.99804 0.98106 0.0
C1600 C 0.84345 0.01248 0.99857 0.0
C1601 C 0.8443 0.99622 0.0168 0.0
C1602 C 0.84361 0.99853 0.0088 0.0
C1603 C 0.84414 0.00521 0.98558 0.0
C1604 C 0.84352 0.0029 0.99357 0.0
H1605 H 0.83373 0.97664 0.02967 0.0
H1606 H 0.8316 0.98107 0.0167 0.0
H1607 H 0.84343 0.01793 0.00976 0.0
H1608 H 0.83353 0.02486 0.97275 0.0
H1609 H 0.83148 0.0204 0.98571 0.0
C1610 C 0.25399 0.58544 0.22357 0.0
C1611 C 0.24658 0.59429 0.22023 0.0
C1612 C 0.25456 0.58457 0.23118 0.0
C1613 C 0.23752 0.59272 0.24794 0.0
H1614 H 0.26982 0.58984 0.25733 0.0
C1615 C 0.24413 0.60118 0.2787 0.0
C1616 C 0.2528 0.59413 0.28255 0.0
C1617 C 0.24312 0.60029 0.27112 0.0
C1618 C 0.2607 0.59045 0.25481 0.0
H1619 H 0.23375 0.60896 0.22225 0.0
H1620 H 0.23478 0.60747 0.2355 0.0
H1621 H 0.2685 0.58981 0.24405 0.0
H1622 H 0.26714 0.58052 0.28141 0.0
H1623 H 0.26513 0.57872 0.26821 0.0
H1624 H 0.22969 0.59336 0.25866 0.0
C1625 C 0.24013 0.60119 0.23225 0.0
C1626 C 0.25996 0.59045 0.24719 0.0
C1627 C 0.23964 0.60212 0.22466 0.0
C1628 C 0.26029 0.58601 0.27863 0.0
C1629 C 0.25924 0.58509 0.27105 0.0
C1630 C 0.23825 0.59265 0.25555 0.0
C1631 C 0.24764 0.59244 0.2356 0.0
C1632 C 0.24837 0.59173 0.24368 0.0
C1633 C 0.2507 0.59228 0.26719 0.0
C1634 C 0.24987 0.59166 0.25909 0.0
H1635 H 0.2595 0.57932 0.2203 0.0
H1636 H 0.26037 0.57769 0.2336 0.0
H1637 H 0.22844 0.59354 0.24539 0.0
H1638 H 0.23808 0.6074 0.28154 0.0
H1639 H 0.23654 0.60607 0.26834 0.0
C1640 C 0.34162 0.99633 0.47338 0.0
C1641 C 0.35058 0.98818 0.47076 0.0
C1642 C 0.34082 0.9989 0.48084 0.0
C1643 C 0.34926 0.98705 0.499 0.0
H1644 H 0.34658 0.02021 0.50519 0.0
C1645 C 0.35815 0.00151 0.52873 0.0
C1646 C 0.35075 0.0107 0.53172 0.0
C1647 C 0.35729 0.99857 0.52134 0.0
C1648 C 0.34713 0.01088 0.50356 0.0
H1649 H 0.36551 0.97613 0.47394 0.0
H1650 H 0.36417 0.98068 0.48692 0.0
H1651 H 0.34647 0.01539 0.49221 0.0
H1652 H 0.33657 0.02398 0.52923 0.0
H1653 H 0.33484 0.01865 0.51636 0.0
H1654 H 0.34995 0.98251 0.51033 0.0
C1655 C 0.35774 0.98505 0.48322 0.0
C1656 C 0.34708 0.00813 0.49612 0.0
C1657 C 0.35859 0.98254 0.47578 0.0
C1658 C 0.34233 0.01678 0.52713 0.0
C1659 C 0.34145 0.01382 0.51973 0.0
C1660 C 0.34925 0.98979 0.50644 0.0
C1661 C 0.34889 0.99331 0.48584 0.0
C1662 C 0.34828 0.99619 0.49375 0.0
C1663 C 0.34896 0.00472 0.51673 0.0
C1664 C 0.34833 0.00176 0.50882 0.0
H1665 H 0.33538 0.00088 0.46965 0.0
H1666 H 0.33384 0.00524 0.48269 0.0
H1667 H 0.34999 0.97775 0.49735 0.0
H1668 H 0.36462 0.99652 0.53212 0.0
H1669 H 0.36333 0.99161 0.51922 0.0
C1670 C 0.74006 0.58841 0.27829 0.0
C1671 C 0.74738 0.59659 0.28227 0.0
C1672 C 0.74124 0.58755 0.27071 0.0
C1673 C 0.76246 0.59535 0.25538 0.0
H1674 H 0.73249 0.59225 0.24366 0.0
C1675 C 0.76175 0.60455 0.22444 0.0
C1676 C 0.75495 0.59663 0.22 0.0
C1677 C 0.76108 0.60371 0.23203 0.0
C1678 C 0.74096 0.59297 0.24686 0.0
H1679 H 0.76195 0.61004 0.28138 0.0
H1680 H 0.76374 0.6088 0.26819 0.0
H1681 H 0.73088 0.5923 0.25693 0.0
H1682 H 0.74208 0.58163 0.22002 0.0
H1683 H 0.7409 0.58014 0.23332 0.0
H1684 H 0.77249 0.59628 0.24529 0.0
C1685 C 0.75718 0.60293 0.27092 0.0
C1686 C 0.74005 0.59298 0.25447 0.0
C1687 C 0.75603 0.60376 0.27849 0.0
C1688 C 0.74749 0.5878 0.22331 0.0
C1689 C 0.74673 0.58702 0.23092 0.0
C1690 C 0.76336 0.59542 0.24778 0.0
C1691 C 0.74977 0.59486 0.26692 0.0
C1692 C 0.75078 0.59427 0.25883 0.0
C1693 C 0.75352 0.59497 0.23536 0.0
C1694 C 0.75261 0.59433 0.24343 0.0
H1695 H 0.73322 0.58282 0.28101 0.0
H1696 H 0.73548 0.58114 0.26782 0.0
H1697 H 0.77095 0.59613 0.25856 0.0
H1698 H 0.76768 0.61137 0.22205 0.0
H1699 H 0.76632 0.61004 0.2353 0.0
C1700 C 0.14137 0.01808 0.9757 0.0
C1701 C 0.14986 0.01303 0.97072 0.0
C1702 C 0.14228 0.01558 0.98315 0.0
C1703 C 0.15438 0.99317 0.99605 0.0
H1704 H 0.1492 0.01838 0.01031 0.0
C1705 C 0.15902 0.98466 0.02709 0.0
C1706 C 0.14999 0.99005 0.03161 0.0
C1707 C 0.15986 0.98772 0.01971 0.0
C1708 C 0.15055 0.01121 0.0064 0.0
H1709 H 0.16597 0.00139 0.96967 0.0
H1710 H 0.1676 0.99705 0.98271 0.0
H1711 H 0.14911 0.02325 0.99735 0.0
H1712 H 0.13499 0.00312 0.03189 0.0
H1713 H 0.13624 0.00821 0.01902 0.0
H1714 H 0.1556 0.98108 0.00509 0.0
C1715 C 0.16021 0.00291 0.98083 0.0
C1716 C 0.15052 0.01401 0.99897 0.0
C1717 C 0.15935 0.00549 0.97337 0.0
C1718 C 0.14194 0.99867 0.02856 0.0
C1719 C 0.14277 0.00171 0.02119 0.0
C1720 C 0.15437 0.99035 0.00349 0.0
C1721 C 0.15166 0.00791 0.9858 0.0
C1722 C 0.15233 0.00501 0.99371 0.0
C1723 C 0.15171 0.99625 0.01665 0.0
C1724 C 0.15233 0.99932 0.00876 0.0
H1725 H 0.13404 0.02403 0.97384 0.0
H1726 H 0.13547 0.01948 0.98681 0.0
H1727 H 0.15565 0.98601 0.99213 0.0
H1728 H 0.1653 0.97792 0.02924 0.0
H1729 H 0.16694 0.98343 0.01639 0.0
C1730 C 0.74468 0.39692 0.77837 0.0
C1731 C 0.75329 0.4041 0.78218 0.0
C1732 C 0.74352 0.39783 0.77081 0.0
C1733 C 0.76055 0.40808 0.75439 0.0
H1734 H 0.72811 0.40465 0.74523 0.0
C1735 C 0.75306 0.41328 0.72323 0.0
C1736 C 0.7457 0.40436 0.71992 0.0
C1737 C 0.75378 0.4141 0.73083 0.0
C1738 C 0.73724 0.40556 0.74771 0.0
H1739 H 0.76737 0.41795 0.78098 0.0
H1740 H 0.76509 0.41977 0.76779 0.0
H1741 H 0.72968 0.4047 0.75849 0.0
H1742 H 0.73309 0.38953 0.72198 0.0
H1743 H 0.73438 0.39094 0.73523 0.0
H1744 H 0.76807 0.40894 0.74357 0.0
C1745 C 0.75937 0.41329 0.77066 0.0
C1746 C 0.73816 0.40556 0.75531 0.0
C1747 C 0.76057 0.41235 0.77823 0.0
C1748 C 0.73894 0.39642 0.72437 0.0
C1749 C 0.73958 0.39731 0.73196 0.0
C1750 C 0.75962 0.40815 0.74678 0.0
C1751 C 0.75088 0.40599 0.76684 0.0
C1752 C 0.74984 0.40667 0.75875 0.0
C1753 C 0.74705 0.40611 0.73528 0.0
C1754 C 0.74797 0.40675 0.74336 0.0
H1755 H 0.7388 0.39058 0.78124 0.0
H1756 H 0.73699 0.39196 0.76805 0.0
H1757 H 0.76972 0.40879 0.75684 0.0
H1758 H 0.75843 0.41948 0.71993 0.0
H1759 H 0.75955 0.42103 0.73324 0.0
C1760 C 0.95381 0.49501 0.08006 0.0
C1761 C 0.94784 0.48605 0.07593 0.0
C1762 C 0.96664 0.49442 0.0814 0.0
C1763 C 0.99431 0.47428 0.0806 0.0
H1764 H 0.01222 0.50389 0.07696 0.0
C1765 C 0.04663 0.47599 0.07314 0.0
C1766 C 0.05382 0.48572 0.07562 0.0
C1767 C 0.03382 0.47549 0.07454 0.0
C1768 C 0.00739 0.49559 0.07813 0.0
H1769 H 0.95057 0.46911 0.07034 0.0
H1770 H 0.97298 0.46821 0.07255 0.0
H1771 H 0.98954 0.50396 0.07705 0.0
H1772 H 0.05321 0.50238 0.08173 0.0
H1773 H 0.0309 0.50139 0.08428 0.0
H1774 H 0.01223 0.46587 0.0815 0.0
C1775 C 0.96774 0.47565 0.07479 0.0
C1776 C 0.99435 0.49562 0.07819 0.0
C1777 C 0.95491 0.47624 0.07345 0.0
C1778 C 0.04798 0.49471 0.07978 0.0
C1779 C 0.03516 0.49422 0.08117 0.0
C1780 C 0.00737 0.47424 0.08055 0.0
C1781 C 0.97381 0.48487 0.07865 0.0
C1782 C 0.98765 0.48494 0.07931 0.0
C1783 C 0.02788 0.48473 0.07844 0.0
C1784 C 0.01406 0.48487 0.0792 0.0
H1785 H 0.94866 0.50273 0.08201 0.0
H1786 H 0.971 0.50159 0.08447 0.0
H1787 H 0.98942 0.46593 0.08159 0.0
H1788 H 0.05088 0.46883 0.07 0.0
H1789 H 0.02849 0.4681 0.0723 0.0
C1790 C 0.7509 0.78392 0.32814 0.0
C1791 C 0.76102 0.79081 0.32564 0.0
C1792 C 0.75222 0.77158 0.32926 0.0
C1793 C 0.77122 0.74622 0.32291 0.0
H1794 H 0.754 0.72879 0.3382 0.0
C1795 C 0.77382 0.69479 0.32456 0.0
C1796 C 0.76238 0.68888 0.32564 0.0
C1797 C 0.77482 0.70715 0.32569 0.0
C1798 C 0.75882 0.73353 0.33388 0.0
H1799 H 0.78066 0.79028 0.32278 0.0
H1800 H 0.78298 0.76876 0.32477 0.0
H1801 H 0.75369 0.7507 0.33819 0.0
H1802 H 0.74311 0.69126 0.32898 0.0
H1803 H 0.74484 0.71281 0.33093 0.0
H1804 H 0.77611 0.72913 0.31849 0.0
C1805 C 0.77395 0.77285 0.32572 0.0
C1806 C 0.75864 0.74608 0.33388 0.0
C1807 C 0.77263 0.78518 0.32459 0.0
C1808 C 0.7521 0.69552 0.32817 0.0
C1809 C 0.75309 0.70788 0.3293 0.0
C1810 C 0.77139 0.7337 0.32291 0.0
C1811 C 0.76369 0.76586 0.32793 0.0
C1812 C 0.76471 0.75257 0.32834 0.0
C1813 C 0.7644 0.71389 0.32793 0.0
C1814 C 0.76506 0.7272 0.32834 0.0
H1815 H 0.7418 0.78796 0.32893 0.0
H1816 H 0.74408 0.76645 0.33088 0.0
H1817 H 0.77581 0.75092 0.31849 0.0
H1818 H 0.78197 0.68988 0.32273 0.0
H1819 H 0.78373 0.71146 0.32472 0.0
C1820 C 0.54476 0.52199 0.56765 0.0
C1821 C 0.55235 0.5188 0.57361 0.0
C1822 C 0.53189 0.52331 0.56851 0.0
C1823 C 0.50584 0.51327 0.57993 0.0
H1824 H 0.48771 0.53788 0.56938 0.0
C1825 C 0.45178 0.51615 0.58022 0.0
C1826 C 0.44622 0.51781 0.57334 0.0
C1827 C 0.46467 0.51763 0.58112 0.0
C1828 C 0.49263 0.53094 0.57234 0.0
H1829 H 0.55231 0.51484 0.58519 0.0
H1830 H 0.52973 0.51705 0.58666 0.0
H1831 H 0.51047 0.53814 0.56944 0.0
H1832 H 0.44993 0.52224 0.56201 0.0
H1833 H 0.47226 0.52489 0.5636 0.0
H1834 H 0.48799 0.50589 0.58267 0.0
C1835 C 0.5338 0.51843 0.58132 0.0
C1836 C 0.50567 0.53109 0.57238 0.0
C1837 C 0.54673 0.51715 0.58047 0.0
C1838 C 0.45382 0.52114 0.56742 0.0
C1839 C 0.46666 0.52265 0.56833 0.0
C1840 C 0.49278 0.51312 0.57989 0.0
C1841 C 0.52624 0.52145 0.57533 0.0
C1842 C 0.51243 0.5221 0.57603 0.0
C1843 C 0.47226 0.52083 0.57517 0.0
C1844 C 0.48604 0.52179 0.57595 0.0
H1845 H 0.5487 0.52308 0.56225 0.0
H1846 H 0.52631 0.52541 0.56375 0.0
H1847 H 0.51077 0.50616 0.58274 0.0
H1848 H 0.44618 0.51372 0.58491 0.0
H1849 H 0.4687 0.51627 0.58648 0.0
C1850 C 0.72513 0.2157 0.8247 0.0
C1851 C 0.73664 0.20992 0.82579 0.0
C1852 C 0.72398 0.22806 0.82582 0.0
C1853 C 0.73964 0.25464 0.83398 0.0
H1854 H 0.72257 0.2718 0.81852 0.0
C1855 C 0.74718 0.30504 0.82818 0.0
C1856 C 0.73704 0.31185 0.82562 0.0
C1857 C 0.74594 0.2927 0.82932 0.0
C1858 C 0.72718 0.26717 0.82297 0.0
H1859 H 0.75588 0.21254 0.82911 0.0
H1860 H 0.7539 0.23407 0.83103 0.0
H1861 H 0.72248 0.25 0.81856 0.0
H1862 H 0.71745 0.31117 0.82268 0.0
H1863 H 0.71526 0.28964 0.82471 0.0
H1864 H 0.74458 0.27187 0.83827 0.0
C1865 C 0.7457 0.22904 0.82941 0.0
C1866 C 0.72713 0.25464 0.82299 0.0
C1867 C 0.74684 0.21669 0.8283 0.0
C1868 C 0.72549 0.30613 0.82452 0.0
C1869 C 0.72425 0.2938 0.82568 0.0
C1870 C 0.73969 0.26719 0.83396 0.0
C1871 C 0.73432 0.23492 0.82804 0.0
C1872 C 0.7335 0.24822 0.82843 0.0
C1873 C 0.73452 0.28689 0.82795 0.0
C1874 C 0.7336 0.2736 0.82839 0.0
H1875 H 0.71703 0.2107 0.82289 0.0
H1876 H 0.71502 0.23227 0.82484 0.0
H1877 H 0.7445 0.24996 0.83831 0.0
H1878 H 0.75624 0.30914 0.82899 0.0
H1879 H 0.75409 0.28764 0.83098 0.0
C1880 C 0.95478 0.52396 0.9286 0.0
C1881 C 0.94781 0.514 0.92625 0.0
C1882 C 0.96761 0.5246 0.92728 0.0
C1883 C 0.99442 0.50471 0.92418 0.0
H1884 H 0.01207 0.53451 0.9206 0.0
C1885 C 0.04804 0.50602 0.92273 0.0
C1886 C 0.05376 0.51514 0.92684 0.0
C1887 C 0.03523 0.50638 0.92129 0.0
C1888 C 0.00727 0.52612 0.92162 0.0
H1889 H 0.9488 0.49711 0.92041 0.0
H1890 H 0.97114 0.49834 0.91796 0.0
H1891 H 0.98926 0.53426 0.92044 0.0
H1892 H 0.05062 0.53214 0.93229 0.0
H1893 H 0.02824 0.53265 0.9299 0.0
H1894 H 0.01235 0.49662 0.92555 0.0
C1895 C 0.96671 0.50558 0.92093 0.0
C1896 C 0.9942 0.52598 0.92153 0.0
C1897 C 0.95387 0.50494 0.92226 0.0
C1898 C 0.04647 0.52488 0.9292 0.0
C1899 C 0.03366 0.52524 0.92775 0.0
C1900 C 0.00745 0.50485 0.92427 0.0
C1901 C 0.97378 0.51529 0.92356 0.0
C1902 C 0.98762 0.5153 0.92292 0.0
C1903 C 0.02785 0.51587 0.92391 0.0
C1904 C 0.01403 0.51559 0.92311 0.0
H1905 H 0.95036 0.53117 0.9316 0.0
H1906 H 0.97277 0.53216 0.92943 0.0
H1907 H 0.98967 0.49638 0.9254 0.0
H1908 H 0.05336 0.49835 0.92087 0.0
H1909 H 0.03107 0.49909 0.91823 0.0
C1910 C 0.73187 0.69605 0.1839 0.0
C1911 C 0.73586 0.68877 0.17809 0.0
C1912 C 0.73061 0.70842 0.18301 0.0
C1913 C 0.7423 0.73349 0.17203 0.0
H1914 H 0.71551 0.75084 0.18157 0.0
C1915 C 0.73913 0.78541 0.17158 0.0
C1916 C 0.73667 0.79076 0.17838 0.0
C1917 C 0.73773 0.77302 0.17063 0.0
C1918 C 0.72307 0.74613 0.17889 0.0
H1919 H 0.74137 0.68884 0.1667 0.0
H1920 H 0.73926 0.71054 0.16517 0.0
H1921 H 0.71531 0.72897 0.1815 0.0
H1922 H 0.73088 0.7872 0.18951 0.0
H1923 H 0.72836 0.76574 0.18784 0.0
H1924 H 0.75021 0.75067 0.16957 0.0
C1925 C 0.7372 0.70661 0.17043 0.0
C1926 C 0.72296 0.7336 0.17885 0.0
C1927 C 0.73842 0.69419 0.17132 0.0
C1928 C 0.7326 0.78346 0.18416 0.0
C1929 C 0.73116 0.77112 0.1832 0.0
C1930 C 0.74241 0.74604 0.17206 0.0
C1931 C 0.73335 0.71387 0.17629 0.0
C1932 C 0.73272 0.72713 0.17557 0.0
C1933 C 0.7338 0.76573 0.17645 0.0
C1934 C 0.73294 0.75249 0.17565 0.0
H1935 H 0.73008 0.69225 0.18924 0.0
H1936 H 0.72787 0.71376 0.18768 0.0
H1937 H 0.75002 0.72878 0.1695 0.0
H1938 H 0.74213 0.79079 0.16698 0.0
H1939 H 0.73972 0.76914 0.16533 0.0
C1940 C 0.45543 0.49345 0.43491 0.0
C1941 C 0.44693 0.48843 0.42993 0.0
C1942 C 0.46822 0.49329 0.43349 0.0
C1943 C 0.49245 0.47737 0.42322 0.0
H1944 H 0.51215 0.50543 0.42812 0.0
C1945 C 0.54559 0.47608 0.4286 0.0
C1946 C 0.55283 0.48609 0.42663 0.0
C1947 C 0.53265 0.47614 0.42758 0.0
C1948 C 0.5068 0.49757 0.42662 0.0
H1949 H 0.4452 0.47928 0.41955 0.0
H1950 H 0.46769 0.47901 0.41704 0.0
H1951 H 0.48951 0.50629 0.42904 0.0
H1952 H 0.5522 0.50379 0.42174 0.0
H1953 H 0.52969 0.50379 0.41983 0.0
H1954 H 0.50982 0.46863 0.42087 0.0
C1955 C 0.46438 0.48303 0.42206 0.0
C1956 C 0.49382 0.49802 0.42723 0.0
C1957 C 0.45153 0.48326 0.42347 0.0
C1958 C 0.54692 0.4959 0.42328 0.0
C1959 C 0.53399 0.49596 0.42226 0.0
C1960 C 0.50548 0.47691 0.42263 0.0
C1961 C 0.47285 0.48809 0.42705 0.0
C1962 C 0.48652 0.48787 0.42568 0.0
C1963 C 0.52667 0.48621 0.42457 0.0
C1964 C 0.51281 0.48695 0.42444 0.0
H1965 H 0.45218 0.49764 0.43989 0.0
H1966 H 0.4745 0.49712 0.43749 0.0
H1967 H 0.48707 0.46939 0.42202 0.0
H1968 H 0.54988 0.4683 0.4311 0.0
H1969 H 0.52729 0.4685 0.42946 0.0
C1970 C 0.76443 0.30639 0.67214 0.0
C1971 C 0.76634 0.31177 0.67899 0.0
C1972 C 0.7656 0.29396 0.67129 0.0
C1973 C 0.77864 0.26681 0.68015 0.0
H1974 H 0.75209 0.25006 0.67 0.0
C1975 C 0.76788 0.2171 0.68516 0.0
C1976 C 0.76426 0.20983 0.67926 0.0
C1977 C 0.76955 0.22942 0.68424 0.0
C1978 C 0.7597 0.2546 0.67274 0.0
H1979 H 0.77093 0.30823 0.69032 0.0
H1980 H 0.77306 0.28669 0.68882 0.0
H1981 H 0.75257 0.27194 0.66994 0.0
H1982 H 0.75985 0.20983 0.66771 0.0
H1983 H 0.76269 0.23144 0.66613 0.0
H1984 H 0.78559 0.2495 0.68312 0.0
C1985 C 0.77086 0.29207 0.68407 0.0
C1986 C 0.75998 0.26714 0.6727 0.0
C1987 C 0.76965 0.30445 0.68493 0.0
C1988 C 0.76249 0.21519 0.67239 0.0
C1989 C 0.76413 0.22756 0.67148 0.0
C1990 C 0.77836 0.25429 0.68019 0.0
C1991 C 0.76875 0.28666 0.67726 0.0
C1992 C 0.76929 0.27339 0.67656 0.0
C1993 C 0.76762 0.23482 0.67741 0.0
C1994 C 0.76873 0.24804 0.67663 0.0
H1995 H 0.76202 0.31177 0.66743 0.0
H1996 H 0.76403 0.29006 0.66595 0.0
H1997 H 0.78607 0.27136 0.68305 0.0
H1998 H 0.76906 0.21335 0.69056 0.0
H1999 H 0.772 0.23477 0.68896 0.0
C2000 C 0.23327 0.21796 0.68526 0.0
C2001 C 0.23707 0.21074 0.67937 0.0
C2002 C 0.23174 0.23031 0.68438 0.0
C2003 C 0.24231 0.25556 0.67315 0.0
H2004 H 0.21572 0.27243 0.68319 0.0
C2005 C 0.23797 0.30741 0.6727 0.0
C2006 C 0.23581 0.31274 0.67954 0.0
C2007 C 0.2368 0.29499 0.67179 0.0
C2008 C 0.22322 0.26785 0.68037 0.0
H2009 H 0.24197 0.21087 0.66789 0.0
H2010 H 0.23939 0.23252 0.66638 0.0
H2011 H 0.21597 0.25056 0.68315 0.0
H2012 H 0.2308 0.30911 0.6908 0.0
H2013 H 0.22865 0.28759 0.6892 0.0
H2014 H 0.24971 0.27288 0.67053 0.0
C2015 C 0.23768 0.22858 0.67169 0.0
C2016 C 0.22337 0.25533 0.68035 0.0
C2017 C 0.23917 0.21619 0.67256 0.0
C2018 C 0.23227 0.30537 0.68541 0.0
C2019 C 0.23105 0.29301 0.6845 0.0
C2020 C 0.24216 0.26811 0.67317 0.0
C2021 C 0.23401 0.23579 0.67761 0.0
C2022 C 0.23307 0.24904 0.67688 0.0
C2023 C 0.23339 0.28765 0.6777 0.0
C2024 C 0.23277 0.27439 0.67693 0.0
H2025 H 0.23183 0.21415 0.69062 0.0
H2026 H 0.22915 0.23562 0.68909 0.0
H2027 H 0.24998 0.25099 0.67049 0.0
H2028 H 0.24056 0.31283 0.66803 0.0
H2029 H 0.23854 0.29113 0.66647 0.0
C2030 C 0.26759 0.78218 0.18437 0.0
C2031 C 0.2634 0.78937 0.17857 0.0
C2032 C 0.26909 0.76984 0.18348 0.0
C2033 C 0.25789 0.74453 0.1725 0.0
H2034 H 0.28508 0.72773 0.18204 0.0
C2035 C 0.26228 0.69269 0.17202 0.0
C2036 C 0.2648 0.68738 0.17882 0.0
C2037 C 0.2634 0.70511 0.17107 0.0
C2038 C 0.27742 0.73229 0.17936 0.0
H2039 H 0.25779 0.78919 0.1672 0.0
H2040 H 0.26033 0.76754 0.16566 0.0
H2041 H 0.28479 0.7496 0.18197 0.0
H2042 H 0.27044 0.69106 0.18998 0.0
H2043 H 0.2725 0.71257 0.18831 0.0
H2044 H 0.25038 0.72719 0.17004 0.0
C2045 C 0.26236 0.77151 0.17092 0.0
C2046 C 0.27725 0.74481 0.17932 0.0
C2047 C 0.26089 0.7839 0.17181 0.0
C2048 C 0.26867 0.69477 0.18462 0.0
C2049 C 0.26984 0.70713 0.18367 0.0
C2050 C 0.25807 0.73198 0.17254 0.0
C2051 C 0.26641 0.76433 0.17677 0.0
C2052 C 0.26733 0.75108 0.17604 0.0
C2053 C 0.26713 0.71247 0.17691 0.0
C2054 C 0.26769 0.72572 0.17611 0.0
H2055 H 0.26936 0.78602 0.1897 0.0
H2056 H 0.27198 0.76455 0.18814 0.0
H2057 H 0.25006 0.74908 0.16999 0.0
H2058 H 0.25943 0.68726 0.16741 0.0
H2059 H 0.26136 0.70894 0.16578 0.0
C2060 C 0.26062 0.21705 0.83071 0.0
C2061 C 0.26288 0.21154 0.82393 0.0
C2062 C 0.26217 0.22944 0.83156 0.0
C2063 C 0.27694 0.25601 0.82294 0.0
H2064 H 0.25061 0.27386 0.83258 0.0
C2065 C 0.26855 0.30611 0.81774 0.0
C2066 C 0.265 0.31353 0.82359 0.0
C2067 C 0.26967 0.29373 0.81868 0.0
C2068 C 0.25815 0.269 0.82999 0.0
H2069 H 0.26844 0.21482 0.81273 0.0
H2070 H 0.27119 0.23629 0.81422 0.0
H2071 H 0.2501 0.25197 0.83265 0.0
H2072 H 0.26015 0.31371 0.83508 0.0
H2073 H 0.26197 0.29201 0.83669 0.0
H2074 H 0.28481 0.27302 0.82012 0.0
C2075 C 0.26845 0.23104 0.81892 0.0
C2076 C 0.25787 0.25645 0.83003 0.0
C2077 C 0.26687 0.21869 0.81806 0.0
C2078 C 0.26275 0.30825 0.83044 0.0
C2079 C 0.26381 0.29583 0.83137 0.0
C2080 C 0.27722 0.26853 0.8229 0.0
C2081 C 0.26605 0.23658 0.82566 0.0
C2082 C 0.2671 0.24982 0.82636 0.0
C2083 C 0.26721 0.28843 0.82549 0.0
C2084 C 0.26768 0.27517 0.82628 0.0
H2085 H 0.25768 0.21178 0.83537 0.0
H2086 H 0.26036 0.23343 0.83684 0.0
H2087 H 0.28433 0.25116 0.8202 0.0
H2088 H 0.2701 0.3098 0.81235 0.0
H2089 H 0.27207 0.28827 0.814 0.0
C2090 C 0.22555 0.69264 0.32453 0.0
C2091 C 0.23698 0.68676 0.32571 0.0
C2092 C 0.22448 0.705 0.32568 0.0
C2093 C 0.24018 0.73137 0.33408 0.0
H2094 H 0.22353 0.74883 0.31859 0.0
C2095 C 0.24813 0.7818 0.32855 0.0
C2096 C 0.23806 0.78871 0.32599 0.0
C2097 C 0.24681 0.76946 0.32962 0.0
C2098 C 0.22802 0.74411 0.32304 0.0
H2099 H 0.25616 0.68918 0.32922 0.0
H2100 H 0.25431 0.71072 0.33118 0.0
H2101 H 0.2233 0.72704 0.31853 0.0
H2102 H 0.2185 0.78817 0.32296 0.0
H2103 H 0.21617 0.76663 0.32487 0.0
H2104 H 0.24515 0.74852 0.33848 0.0
C2105 C 0.24612 0.70578 0.32947 0.0
C2106 C 0.22788 0.73159 0.323 0.0
C2107 C 0.24718 0.69342 0.32834 0.0
C2108 C 0.2265 0.78306 0.32482 0.0
C2109 C 0.22517 0.77072 0.3259 0.0
C2110 C 0.24032 0.74392 0.33412 0.0
C2111 C 0.23482 0.71175 0.32802 0.0
C2112 C 0.2341 0.72506 0.32846 0.0
C2113 C 0.23538 0.76373 0.32817 0.0
C2114 C 0.23438 0.75044 0.32854 0.0
H2115 H 0.21747 0.68772 0.32263 0.0
H2116 H 0.21558 0.70928 0.32464 0.0
H2117 H 0.24491 0.7266 0.33842 0.0
H2118 H 0.25721 0.78584 0.32942 0.0
H2119 H 0.25491 0.76432 0.33129 0.0
C2120 C 0.45353 0.99692 0.57486 0.0
C2121 C 0.44746 0.0081 0.57498 0.0
C2122 C 0.46641 0.99615 0.57598 0.0
C2123 C 0.49414 0.01308 0.58253 0.0
H2124 H 0.51181 0.99295 0.56871 0.0
C2125 C 0.54678 0.01817 0.57627 0.0
C2126 C 0.55372 0.00779 0.57467 0.0
C2127 C 0.5339 0.01748 0.57743 0.0
C2128 C 0.50705 0.99846 0.57271 0.0
H2129 H 0.45013 0.0272 0.57657 0.0
H2130 H 0.4726 0.02588 0.57848 0.0
H2131 H 0.48913 0.99301 0.5688 0.0
H2132 H 0.55269 0.98848 0.57345 0.0
H2133 H 0.53023 0.98726 0.57552 0.0
H2134 H 0.51214 0.01871 0.58632 0.0
C2135 C 0.46739 0.01768 0.57762 0.0
C2136 C 0.49401 0.99849 0.57275 0.0
C2137 C 0.45449 0.01844 0.57652 0.0
C2138 C 0.54757 0.99666 0.57455 0.0
C2139 C 0.5347 0.99596 0.57572 0.0
C2140 C 0.50721 0.01304 0.58248 0.0
C2141 C 0.47353 0.00655 0.57722 0.0
C2142 C 0.48739 0.0059 0.5776 0.0
C2143 C 0.52766 0.0064 0.57703 0.0
C2144 C 0.51381 0.00583 0.57751 0.0
H2145 H 0.44833 0.98877 0.57382 0.0
H2146 H 0.47082 0.98742 0.57577 0.0
H2147 H 0.48932 0.01877 0.5864 0.0
H2148 H 0.55121 0.0269 0.57633 0.0
H2149 H 0.52875 0.02571 0.57834 0.0
C2150 C 0.04719 0.99801 0.07585 0.0
C2151 C 0.05197 0.98687 0.07359 0.0
C2152 C 0.03437 0.99951 0.07698 0.0
C2153 C 0.00465 0.98296 0.07962 0.0
H2154 H 0.98977 0.01062 0.07018 0.0
C2155 C 0.95125 0.99119 0.07944 0.0
C2156 C 0.9462 0.99408 0.07258 0.0
C2157 C 0.96418 0.99134 0.08057 0.0
C2158 C 0.99379 0.00286 0.07286 0.0
H2159 H 0.04716 0.96843 0.0711 0.0
H2160 H 0.0248 0.97107 0.07301 0.0
H2161 H 0.01244 0.0086 0.07055 0.0
H2162 H 0.95088 0.99939 0.06152 0.0
H2163 H 0.97331 0.99977 0.06351 0.0
H2164 H 0.98598 0.97701 0.08169 0.0
C2165 C 0.03094 0.97864 0.07393 0.0
C2166 C 0.00678 0.00177 0.07314 0.0
C2167 C 0.04373 0.97716 0.07277 0.0
C2168 C 0.95439 0.99734 0.06692 0.0
C2169 C 0.96727 0.99755 0.06805 0.0
C2170 C 0.99166 0.98409 0.07937 0.0
C2171 C 0.02608 0.98988 0.07592 0.0
C2172 C 0.01236 0.99168 0.07639 0.0
C2173 C 0.97233 0.99444 0.07486 0.0
C2174 C 0.98608 0.99392 0.07585 0.0
H2175 H 0.0533 0.00568 0.07649 0.0
H2176 H 0.03091 0.00826 0.07857 0.0
H2177 H 0.00868 0.97515 0.08223 0.0
H2178 H 0.94522 0.98881 0.08396 0.0
H2179 H 0.96779 0.98901 0.0859 0.0
C2180 C 0.54768 0.9799 0.42466 0.0
C2181 C 0.5536 0.98998 0.42772 0.0
C2182 C 0.53483 0.98001 0.4233 0.0
C2183 C 0.50719 1.00002 0.42171 0.0
H2184 H 0.4891 0.97203 0.42849 0.0
C2185 C 0.45475 0.00078 0.42888 0.0
C2186 C 0.44753 0.99051 0.42747 0.0
C2187 C 0.4676 0.00076 0.42757 0.0
C2188 C 0.49399 0.97983 0.42644 0.0
H2189 H 0.55077 0.00828 0.43136 0.0
H2190 H 0.52835 0.00839 0.42912 0.0
H2191 H 0.5118 0.97191 0.42855 0.0
H2192 H 0.44811 0.97229 0.42333 0.0
H2193 H 0.47051 0.97234 0.42091 0.0
H2194 H 0.48932 0.00804 0.41978 0.0
C2195 C 0.53363 0.00042 0.42773 0.0
C2196 C 0.50703 0.97977 0.42647 0.0
C2197 C 0.54646 0.00032 0.4291 0.0
C2198 C 0.45338 0.98038 0.42444 0.0
C2199 C 0.46624 0.98036 0.42313 0.0
C2200 C 0.49413 1.00008 0.42168 0.0
C2201 C 0.52762 0.99019 0.42494 0.0
C2202 C 0.51379 0.98992 0.42422 0.0
C2203 C 0.47354 0.99047 0.4248 0.0
C2204 C 0.48738 0.99006 0.42415 0.0
H2205 H 0.55288 0.97177 0.42357 0.0
H2206 H 0.53051 0.97203 0.42106 0.0
H2207 H 0.51212 0.00792 0.41984 0.0
H2208 H 0.4505 0.00878 0.43113 0.0
H2209 H 0.47295 0.00868 0.42898 0.0
C2210 C 0.04631 0.00919 0.92356 0.0
C2211 C 0.05209 0.0059 0.93016 0.0
C2212 C 0.03336 0.00815 0.92273 0.0
C2213 C 0.00556 0.99326 0.93068 0.0
H2214 H 0.98729 0.02008 0.92246 0.0
C2215 C 0.95342 0.00079 0.93619 0.0
C2216 C 0.94575 0.005 0.93052 0.0
C2217 C 0.96631 0.99992 0.93526 0.0
C2218 C 0.99226 0.01243 0.92465 0.0
H2219 H 0.04869 0.9991 0.94107 0.0
H2220 H 0.02625 0.99723 0.9396 0.0
H2221 H 0.01009 0.02029 0.92238 0.0
H2222 H 0.9457 0.01139 0.91934 0.0
H2223 H 0.96832 0.00997 0.91774 0.0
H2224 H 0.98775 0.98552 0.9331 0.0
C2225 C 0.03173 0.0004 0.93502 0.0
C2226 C 0.00532 0.01255 0.92461 0.0
C2227 C 0.04462 0.00146 0.93586 0.0
C2228 C 0.95133 0.00825 0.92385 0.0
C2229 C 0.96428 0.00742 0.92293 0.0
C2230 C 0.99252 0.99315 0.93072 0.0
C2231 C 0.02592 0.00377 0.92846 0.0
C2232 C 0.01211 0.00308 0.92777 0.0
C2233 C 0.97192 0.00328 0.92864 0.0
C2234 C 0.98572 0.00284 0.92786 0.0
H2235 H 0.0518 0.01251 0.91903 0.0
H2236 H 0.02918 0.01072 0.91758 0.0
H2237 H 0.01051 0.98572 0.93301 0.0
H2238 H 0.9495 0.99847 0.94145 0.0
H2239 H 0.97195 0.99693 0.93982 0.0
C2240 C 0.22152 0.58266 0.13912 0.0
C2241 C 0.22019 0.58164 0.14673 0.0
C2242 C 0.21503 0.575 0.13443 0.0
C2243 C 0.18695 0.55583 0.13397 0.0
H2244 H 0.20064 0.54544 0.11544 0.0
C2245 C 0.1556 0.53756 0.11111 0.0
C2246 C 0.15998 0.52793 0.10688 0.0
C2247 C 0.16346 0.54329 0.11608 0.0
C2248 C 0.19671 0.54814 0.12063 0.0
H2249 H 0.21122 0.57147 0.15535 0.0
H2250 H 0.20021 0.55788 0.14718 0.0
H2251 H 0.21384 0.55632 0.12403 0.0
H2252 H 0.17605 0.51675 0.10456 0.0
H2253 H 0.1898 0.52671 0.11331 0.0
H2254 H 0.16989 0.54753 0.13065 0.0
C2255 C 0.2061 0.56478 0.14483 0.0
C2256 C 0.20424 0.55451 0.12552 0.0
C2257 C 0.21254 0.57248 0.14953 0.0
C2258 C 0.17244 0.52421 0.10769 0.0
C2259 C 0.18031 0.52993 0.11271 0.0
C2260 C 0.17945 0.54944 0.12911 0.0
C2261 C 0.20709 0.56607 0.13722 0.0
C2262 C 0.19941 0.55856 0.13222 0.0
C2263 C 0.17589 0.53951 0.11698 0.0
C2264 C 0.18417 0.54567 0.12233 0.0
H2265 H 0.22749 0.58949 0.13677 0.0
H2266 H 0.21596 0.57634 0.1286 0.0
H2267 H 0.18285 0.55891 0.13904 0.0
H2268 H 0.14612 0.54079 0.11051 0.0
H2269 H 0.15981 0.55081 0.11916 0.0
C2270 C 0.72275 0.89571 0.36409 0.0
C2271 C 0.71885 0.89561 0.35676 0.0
C2272 C 0.71703 0.90328 0.36916 0.0
C2273 C 0.69727 0.93035 0.37093 0.0
H2274 H 0.6877 0.91612 0.3894 0.0
C2275 C 0.66127 0.95222 0.39023 0.0
C2276 C 0.66289 0.95099 0.39781 0.0
C2277 C 0.6692 0.94633 0.38536 0.0
C2278 C 0.69049 0.92032 0.38433 0.0
H2279 H 0.70599 0.90359 0.34901 0.0
H2280 H 0.69608 0.91687 0.35786 0.0
H2281 H 0.6996 0.90436 0.38064 0.0
H2282 H 0.67439 0.9428 0.40618 0.0
H2283 H 0.68844 0.93278 0.39767 0.0
H2284 H 0.68809 0.9463 0.37461 0.0
C2285 C 0.70365 0.91115 0.35966 0.0
C2286 C 0.6973 0.91356 0.3793 0.0
C2287 C 0.70934 0.90354 0.35459 0.0
C2288 C 0.6729 0.94401 0.40038 0.0
C2289 C 0.68087 0.93814 0.3955 0.0
C2290 C 0.6905 0.93714 0.37599 0.0
C2291 C 0.70731 0.91099 0.36702 0.0
C2292 C 0.70066 0.91845 0.37251 0.0
C2293 C 0.67901 0.93909 0.38793 0.0
C2294 C 0.68691 0.93217 0.38272 0.0
H2295 H 0.73022 0.88989 0.36592 0.0
H2296 H 0.72021 0.90309 0.37476 0.0
H2297 H 0.69987 0.93443 0.36579 0.0
H2298 H 0.65378 0.95767 0.38805 0.0
H2299 H 0.6674 0.94719 0.37957 0.0
C2300 C 0.32781 0.46538 0.60343 0.0
C2301 C 0.33741 0.47274 0.60614 0.0
C2302 C 0.31967 0.45948 0.6082 0.0
C2303 C 0.30858 0.45902 0.62744 0.0
H2304 H 0.3004 0.42595 0.62295 0.0
C2305 C 0.28827 0.4258 0.64861 0.0
C2306 C 0.27903 0.41773 0.64624 0.0
C2307 C 0.29433 0.43334 0.64365 0.0
C2308 C 0.30245 0.43523 0.62424 0.0
H2309 H 0.34565 0.48 0.61601 0.0
H2310 H 0.33174 0.46944 0.62431 0.0
H2311 H 0.31289 0.43757 0.61441 0.0
H2312 H 0.26853 0.41169 0.63681 0.0
H2313 H 0.27918 0.42476 0.62815 0.0
H2314 H 0.29835 0.45651 0.63737 0.0
C2315 C 0.33039 0.46833 0.6185 0.0
C2316 C 0.3096 0.44191 0.61933 0.0
C2317 C 0.33849 0.47426 0.61373 0.0
C2318 C 0.27577 0.41762 0.6388 0.0
C2319 C 0.28186 0.42512 0.63384 0.0
C2320 C 0.30147 0.4523 0.63237 0.0
C2321 C 0.32096 0.46076 0.6158 0.0
C2322 C 0.31283 0.45387 0.62089 0.0
C2323 C 0.29132 0.43295 0.63619 0.0
C2324 C 0.29839 0.44031 0.63084 0.0
H2325 H 0.32675 0.46392 0.59763 0.0
H2326 H 0.31241 0.45386 0.60592 0.0
H2327 H 0.31072 0.46826 0.62876 0.0
H2328 H 0.29114 0.42602 0.65428 0.0
H2329 H 0.30168 0.43918 0.64562 0.0
C2330 C 0.82925 0.04968 0.8962 0.0
C2331 C 0.84139 0.05362 0.89787 0.0
C2332 C 0.82204 0.05573 0.89099 0.0
C2333 C 0.82532 0.07652 0.87533 0.0
H2334 H 0.79002 0.0825 0.87828 0.0
C2335 C 0.79818 0.11116 0.85839 0.0
C2336 C 0.78609 0.1082 0.85602 0.0
C2337 C 0.80457 0.10372 0.86324 0.0
C2338 C 0.79984 0.08076 0.87734 0.0
H2339 H 0.85526 0.0673 0.89561 0.0
H2340 H 0.84273 0.07785 0.88661 0.0
H2341 H 0.80175 0.07108 0.88738 0.0
H2342 H 0.77123 0.09507 0.85687 0.0
H2343 H 0.78246 0.08199 0.86537 0.0
H2344 H 0.82349 0.08635 0.86536 0.0
C2345 C 0.83886 0.06992 0.88916 0.0
C2346 C 0.80656 0.07421 0.88255 0.0
C2347 C 0.84605 0.06388 0.89434 0.0
C2348 C 0.78057 0.09755 0.85857 0.0
C2349 C 0.78694 0.09013 0.86348 0.0
C2350 C 0.81863 0.08308 0.87015 0.0
C2351 C 0.82683 0.06585 0.88735 0.0
C2352 C 0.81943 0.07218 0.88165 0.0
C2353 C 0.79902 0.09314 0.86587 0.0
C2354 C 0.80586 0.08542 0.87114 0.0
H2355 H 0.82544 0.04176 0.89879 0.0
H2356 H 0.81285 0.05231 0.88969 0.0
H2357 H 0.83516 0.07488 0.87437 0.0
H2358 H 0.80274 0.11924 0.85647 0.0
H2359 H 0.81381 0.10636 0.86503 0.0
C2360 C 0.15467 0.46747 0.88994 0.0
C2361 C 0.16004 0.47343 0.89593 0.0
C2362 C 0.16208 0.46099 0.88508 0.0
C2363 C 0.19453 0.45695 0.87862 0.0
H2364 H 0.18202 0.42608 0.87218 0.0
C2365 C 0.21802 0.429 0.85569 0.0
C2366 C 0.21856 0.4165 0.85669 0.0
C2367 C 0.21133 0.43624 0.86055 0.0
C2368 C 0.18571 0.43463 0.87397 0.0
H2369 H 0.17752 0.47744 0.90139 0.0
H2370 H 0.19047 0.46592 0.89294 0.0
H2371 H 0.16962 0.43815 0.88052 0.0
H2372 H 0.21247 0.40184 0.86362 0.0
H2373 H 0.20107 0.41445 0.87215 0.0
H2374 H 0.21075 0.45327 0.87215 0.0
C2375 C 0.1805 0.46637 0.89199 0.0
C2376 C 0.17852 0.44163 0.87868 0.0
C2377 C 0.17306 0.47286 0.89687 0.0
C2378 C 0.21238 0.41144 0.86272 0.0
C2379 C 0.2057 0.41866 0.86757 0.0
C2380 C 0.20173 0.44994 0.87389 0.0
C2381 C 0.17507 0.46026 0.88608 0.0
C2382 C 0.18282 0.45288 0.88106 0.0
C2383 C 0.205 0.43113 0.86651 0.0
C2384 C 0.19741 0.43868 0.87152 0.0
H2385 H 0.14466 0.46759 0.88909 0.0
H2386 H 0.15762 0.45652 0.88053 0.0
H2387 H 0.19807 0.46561 0.88031 0.0
H2388 H 0.22277 0.4332 0.85114 0.0
H2389 H 0.2109 0.4458 0.85955 0.0
C2390 C 0.77974 0.8954 0.13854 0.0
C2391 C 0.7826 0.89566 0.14603 0.0
C2392 C 0.78609 0.9028 0.13363 0.0
C2393 C 0.81583 0.91918 0.13172 0.0
H2394 H 0.79979 0.9329 0.11469 0.0
C2395 C 0.84439 0.93745 0.10763 0.0
C2396 C 0.8404 0.94812 0.10428 0.0
C2397 C 0.83688 0.93167 0.11276 0.0
C2398 C 0.80439 0.92923 0.11945 0.0
H2399 H 0.79419 0.90419 0.15423 0.0
H2400 H 0.80502 0.91732 0.1457 0.0
H2401 H 0.78725 0.92234 0.12376 0.0
H2402 H 0.82529 0.96102 0.10365 0.0
H2403 H 0.81214 0.95092 0.11266 0.0
H2404 H 0.83294 0.92618 0.12748 0.0
C2405 C 0.79801 0.91123 0.1436 0.0
C2406 C 0.79722 0.92307 0.12462 0.0
C2407 C 0.79168 0.9038 0.14851 0.0
C2408 C 0.82859 0.95276 0.10609 0.0
C2409 C 0.82106 0.94697 0.11125 0.0
C2410 C 0.82298 0.92535 0.12657 0.0
C2411 C 0.79544 0.91069 0.13608 0.0
C2412 C 0.80288 0.91787 0.13078 0.0
C2413 C 0.82517 0.93641 0.1147 0.0
C2414 C 0.81739 0.93033 0.12032 0.0
H2415 H 0.77267 0.88937 0.13645 0.0
H2416 H 0.78393 0.90207 0.12788 0.0
H2417 H 0.82054 0.91519 0.13635 0.0
H2418 H 0.85333 0.93352 0.10626 0.0
H2419 H 0.84022 0.9234 0.11518 0.0
C2420 C 0.28967 0.58857 0.36224 0.0
C2421 C 0.28287 0.58369 0.35639 0.0
C2422 C 0.2963 0.58115 0.36699 0.0
C2423 C 0.29901 0.54987 0.37351 0.0
H2424 H 0.33194 0.56035 0.37958 0.0
C2425 C 0.3272 0.52666 0.39658 0.0
C2426 C 0.34018 0.52559 0.3956 0.0
C2427 C 0.31996 0.53316 0.3916 0.0
C2428 C 0.32281 0.55722 0.37789 0.0
H2429 H 0.27754 0.56711 0.35105 0.0
H2430 H 0.28933 0.55413 0.35929 0.0
H2431 H 0.31983 0.57272 0.37125 0.0
H2432 H 0.35568 0.53048 0.38858 0.0
H2433 H 0.34305 0.54153 0.37985 0.0
H2434 H 0.30213 0.53425 0.38008 0.0
C2435 C 0.28942 0.56372 0.36023 0.0
C2436 C 0.31579 0.5644 0.37319 0.0
C2437 C 0.28277 0.57116 0.35546 0.0
C2438 C 0.3457 0.53099 0.38947 0.0
C2439 C 0.33847 0.53747 0.3845 0.0
C2440 C 0.30604 0.54268 0.37823 0.0
C2441 C 0.29634 0.56864 0.36602 0.0
C2442 C 0.3038 0.56084 0.37095 0.0
C2443 C 0.32554 0.53877 0.38555 0.0
C2444 C 0.31803 0.54628 0.38048 0.0
H2445 H 0.29007 0.59818 0.36308 0.0
H2446 H 0.3014 0.58523 0.37145 0.0
H2447 H 0.28976 0.54691 0.37193 0.0
H2448 H 0.32263 0.52251 0.4012 0.0
H2449 H 0.31003 0.53405 0.3926 0.0
C2450 C 0.67181 0.05794 0.60179 0.0
C2451 C 0.66224 0.05045 0.6044 0.0
C2452 C 0.67957 0.06412 0.60665 0.0
C2453 C 0.68948 0.06553 0.62611 0.0
H2454 H 0.69641 0.09879 0.62147 0.0
C2455 C 0.71987 0.09598 0.64468 0.0
C2456 C 0.71578 0.10787 0.64559 0.0
C2457 C 0.7142 0.08849 0.63952 0.0
C2458 C 0.6945 0.08953 0.62287 0.0
H2459 H 0.65374 0.04317 0.61419 0.0
H2460 H 0.66698 0.05418 0.62263 0.0
H2461 H 0.68512 0.08642 0.61276 0.0
H2462 H 0.70229 0.12108 0.64197 0.0
H2463 H 0.69236 0.10804 0.63305 0.0
H2464 H 0.69846 0.06882 0.63636 0.0
C2465 C 0.6686 0.05521 0.61683 0.0
C2466 C 0.68818 0.08238 0.61783 0.0
C2467 C 0.66088 0.04901 0.61198 0.0
C2468 C 0.70582 0.11204 0.6413 0.0
C2469 C 0.70014 0.10456 0.63617 0.0
C2470 C 0.69579 0.07271 0.63117 0.0
C2471 C 0.67793 0.06298 0.61423 0.0
C2472 C 0.68545 0.07032 0.61941 0.0
C2473 C 0.7043 0.09271 0.63518 0.0
C2474 C 0.69823 0.08485 0.62965 0.0
H2475 H 0.67309 0.05932 0.59599 0.0
H2476 H 0.68677 0.0699 0.60445 0.0
H2477 H 0.68768 0.05624 0.62748 0.0
H2478 H 0.72761 0.09253 0.64786 0.0
H2479 H 0.71773 0.07945 0.63885 0.0
C2480 C 0.7834 0.42805 0.85467 0.0
C2481 C 0.78107 0.41598 0.85644 0.0
C2482 C 0.78947 0.43561 0.85963 0.0
C2483 C 0.79737 0.43884 0.87916 0.0
H2484 H 0.82441 0.45883 0.87208 0.0
C2485 C 0.8335 0.46034 0.89845 0.0
C2486 C 0.83812 0.47181 0.89676 0.0
C2487 C 0.8256 0.45433 0.89361 0.0
C2488 C 0.81675 0.45346 0.87414 0.0
H2489 H 0.78343 0.40241 0.86482 0.0
H2490 H 0.79385 0.4156 0.87346 0.0
H2491 H 0.81224 0.44696 0.86347 0.0
H2492 H 0.83773 0.48612 0.88875 0.0
H2493 H 0.82385 0.47567 0.88032 0.0
H2494 H 0.80191 0.44527 0.88983 0.0
C2495 C 0.79083 0.41927 0.86827 0.0
C2496 C 0.80979 0.44664 0.8692 0.0
C2497 C 0.78484 0.4117 0.86332 0.0
C2498 C 0.83447 0.47722 0.89017 0.0
C2499 C 0.82653 0.47123 0.88533 0.0
C2500 C 0.8043 0.4457 0.88409 0.0
C2501 C 0.79329 0.43129 0.86647 0.0
C2502 C 0.80013 0.43914 0.87166 0.0
C2503 C 0.82209 0.45966 0.88696 0.0
C2504 C 0.81418 0.45297 0.88166 0.0
H2505 H 0.78047 0.4317 0.84947 0.0
H2506 H 0.7911 0.44487 0.85812 0.0
H2507 H 0.78985 0.43329 0.88121 0.0
H2508 H 0.83629 0.45584 0.90342 0.0
H2509 H 0.82255 0.44536 0.89499 0.0
C2510 C 0.28639 0.09586 0.64698 0.0
C2511 C 0.28306 0.1078 0.64544 0.0
C2512 C 0.29256 0.08887 0.64177 0.0
C2513 C 0.31191 0.09172 0.62513 0.0
H2514 H 0.30429 0.05796 0.62263 0.0
C2515 C 0.33365 0.06388 0.6019 0.0
C2516 C 0.33831 0.05251 0.60379 0.0
C2517 C 0.32621 0.07033 0.60679 0.0
C2518 C 0.30658 0.06736 0.62331 0.0
H2519 H 0.28365 0.12171 0.63716 0.0
H2520 H 0.29405 0.10945 0.62804 0.0
H2521 H 0.29265 0.06978 0.63156 0.0
H2522 H 0.33841 0.03881 0.61218 0.0
H2523 H 0.32553 0.05012 0.62074 0.0
H2524 H 0.32583 0.08932 0.61689 0.0
C2525 C 0.29206 0.10552 0.63331 0.0
C2526 C 0.29993 0.07413 0.62843 0.0
C2527 C 0.28592 0.11251 0.63852 0.0
C2528 C 0.33508 0.0476 0.6106 0.0
C2529 C 0.3276 0.05403 0.61547 0.0
C2530 C 0.31851 0.08497 0.62 0.0
C2531 C 0.29555 0.09364 0.63488 0.0
C2532 C 0.30252 0.08639 0.62941 0.0
C2533 C 0.32322 0.06554 0.61367 0.0
C2534 C 0.31595 0.07271 0.61903 0.0
H2535 H 0.28422 0.0919 0.65223 0.0
H2536 H 0.29521 0.07979 0.64319 0.0
H2537 H 0.31433 0.10108 0.62583 0.0
H2538 H 0.33605 0.06796 0.59673 0.0
H2539 H 0.32286 0.07911 0.60519 0.0
C2540 C 0.71543 0.5737 0.35519 0.0
C2541 C 0.71873 0.58559 0.3569 0.0
C2542 C 0.70906 0.56658 0.36026 0.0
C2543 C 0.68905 0.56915 0.37663 0.0
H2544 H 0.69616 0.53524 0.37887 0.0
C2545 C 0.66633 0.54098 0.39934 0.0
C2546 C 0.66153 0.52973 0.3973 0.0
C2547 C 0.67397 0.54745 0.39458 0.0
C2548 C 0.69402 0.54469 0.37826 0.0
H2549 H 0.7179 0.59926 0.36532 0.0
H2550 H 0.70718 0.58677 0.37419 0.0
H2551 H 0.70832 0.54718 0.37024 0.0
H2552 H 0.66134 0.51629 0.38875 0.0
H2553 H 0.67459 0.52766 0.3804 0.0
H2554 H 0.67477 0.56668 0.38464 0.0
C2555 C 0.70934 0.58299 0.3689 0.0
C2556 C 0.70096 0.55153 0.37331 0.0
C2557 C 0.71567 0.59011 0.36383 0.0
C2558 C 0.66479 0.52499 0.39046 0.0
C2559 C 0.67248 0.53144 0.3857 0.0
C2560 C 0.68215 0.56234 0.38159 0.0
C2561 C 0.70584 0.57118 0.36715 0.0
C2562 C 0.69856 0.56385 0.37244 0.0
C2563 C 0.67702 0.54282 0.38768 0.0
C2564 C 0.68455 0.55003 0.38247 0.0
H2565 H 0.71776 0.56988 0.34994 0.0
H2566 H 0.70642 0.55756 0.35871 0.0
H2567 H 0.68676 0.57856 0.376 0.0
H2568 H 0.66392 0.54494 0.40455 0.0
H2569 H 0.67744 0.55613 0.3963 0.0
C2570 C 0.17459 0.94811 0.10372 0.0
C2571 C 0.16193 0.95039 0.10522 0.0
C2572 C 0.18213 0.94227 0.10884 0.0
C2573 C 0.18417 0.93462 0.12846 0.0
H2574 H 0.20561 0.9088 0.12183 0.0
C2575 C 0.20555 0.89993 0.1482 0.0
C2576 C 0.21764 0.89564 0.14677 0.0
C2577 C 0.19953 0.90749 0.14323 0.0
C2578 C 0.19983 0.91611 0.12377 0.0
H2579 H 0.14729 0.94817 0.11329 0.0
H2580 H 0.16044 0.93814 0.12222 0.0
H2581 H 0.19379 0.92047 0.11296 0.0
H2582 H 0.23306 0.89625 0.13912 0.0
H2583 H 0.2226 0.9095 0.13047 0.0
H2584 H 0.19013 0.93021 0.13927 0.0
C2585 C 0.16459 0.94102 0.11712 0.0
C2586 C 0.19305 0.9228 0.11868 0.0
C2587 C 0.15705 0.9468 0.112 0.0
C2588 C 0.22367 0.89926 0.14033 0.0
C2589 C 0.21766 0.90685 0.13537 0.0
C2590 C 0.19098 0.92796 0.13355 0.0
C2591 C 0.1772 0.93862 0.1156 0.0
C2592 C 0.18502 0.93203 0.12097 0.0
C2593 C 0.20547 0.91096 0.13672 0.0
C2594 C 0.19879 0.91852 0.13128 0.0
H2595 H 0.17871 0.95089 0.0986 0.0
H2596 H 0.19186 0.94067 0.10754 0.0
H2597 H 0.17822 0.9418 0.13039 0.0
H2598 H 0.20056 0.89717 0.15306 0.0
H2599 H 0.19007 0.91032 0.1444 0.0
C2600 C 0.84384 0.52994 0.11368 0.0
C2601 C 0.83929 0.52612 0.10687 0.0
C2602 C 0.83602 0.53579 0.11864 0.0
C2603 C 0.80746 0.55391 0.11952 0.0
H2604 H 0.80929 0.54705 0.14023 0.0
C2605 C 0.77583 0.57815 0.14036 0.0
C2606 C 0.78155 0.5819 0.14687 0.0
C2607 C 0.78205 0.5704 0.13559 0.0
C2608 C 0.80873 0.54915 0.13447 0.0
H2609 H 0.82279 0.52524 0.10002 0.0
H2610 H 0.80917 0.5356 0.10865 0.0
H2611 H 0.82167 0.53523 0.13168 0.0
H2612 H 0.79827 0.58045 0.15348 0.0
H2613 H 0.80914 0.56704 0.14515 0.0
H2614 H 0.79475 0.56799 0.1223 0.0
C2615 C 0.81885 0.53413 0.11011 0.0
C2616 C 0.81581 0.54236 0.12957 0.0
C2617 C 0.82666 0.52822 0.10517 0.0
C2618 C 0.79353 0.57759 0.14856 0.0
C2619 C 0.79976 0.56988 0.14378 0.0
C2620 C 0.80041 0.56073 0.12442 0.0
C2621 C 0.82346 0.53803 0.11689 0.0
C2622 C 0.81536 0.54474 0.12205 0.0
C2623 C 0.79414 0.56626 0.1372 0.0
C2624 C 0.80106 0.55852 0.13196 0.0
H2625 H 0.85356 0.5287 0.11513 0.0
H2626 H 0.83991 0.53886 0.12376 0.0
H2627 H 0.80702 0.55607 0.11376 0.0
H2628 H 0.76653 0.58119 0.13896 0.0
H2629 H 0.77736 0.56763 0.13063 0.0
C2630 C 0.16884 0.05928 0.89986 0.0
C2631 C 0.16072 0.05012 0.89754 0.0
C2632 C 0.17643 0.0653 0.89484 0.0
C2633 C 0.178 0.07282 0.87534 0.0
H2634 H 0.2121 0.08202 0.87973 0.0
C2635 C 0.20858 0.09732 0.85417 0.0
C2636 C 0.21596 0.10686 0.85673 0.0
C2637 C 0.20267 0.08954 0.85905 0.0
C2638 C 0.20255 0.07961 0.87844 0.0
H2639 H 0.15472 0.03973 0.88817 0.0
H2640 H 0.16789 0.05029 0.87943 0.0
H2641 H 0.20032 0.07 0.88849 0.0
H2642 H 0.22326 0.11539 0.86648 0.0
H2643 H 0.21267 0.10206 0.87498 0.0
H2644 H 0.18007 0.0826 0.86539 0.0
C2645 C 0.16822 0.05295 0.88511 0.0
C2646 C 0.19582 0.07271 0.88346 0.0
C2647 C 0.16066 0.04691 0.89012 0.0
C2648 C 0.21749 0.10825 0.86431 0.0
C2649 C 0.21155 0.1005 0.86919 0.0
C2650 C 0.18471 0.07975 0.87035 0.0
C2651 C 0.17607 0.06232 0.88739 0.0
C2652 C 0.18345 0.06928 0.88198 0.0
C2653 C 0.20395 0.09111 0.86663 0.0
C2654 C 0.19705 0.08329 0.87184 0.0
H2655 H 0.16902 0.06209 0.90551 0.0
H2656 H 0.18228 0.07257 0.89677 0.0
H2657 H 0.16842 0.0705 0.87409 0.0
H2658 H 0.20711 0.09602 0.84838 0.0
H2659 H 0.19704 0.0823 0.85688 0.0
C2660 C 0.71334 0.40891 0.6392 0.0
C2661 C 0.71868 0.41409 0.64546 0.0
C2662 C 0.70646 0.41587 0.63431 0.0
C2663 C 0.70038 0.44713 0.62849 0.0
H2664 H 0.66977 0.43342 0.62087 0.0
C2665 C 0.67117 0.46976 0.60565 0.0
C2666 C 0.65811 0.46937 0.60639 0.0
C2667 C 0.67886 0.46331 0.61042 0.0
C2668 C 0.67824 0.43742 0.62298 0.0
H2669 H 0.7212 0.43076 0.65138 0.0
H2670 H 0.70895 0.44289 0.6429 0.0
H2671 H 0.68262 0.42176 0.6292 0.0
H2672 H 0.6429 0.4618 0.61271 0.0
H2673 H 0.65627 0.45079 0.62109 0.0
H2674 H 0.69581 0.46291 0.62237 0.0
C2675 C 0.71021 0.43344 0.64175 0.0
C2676 C 0.6857 0.43068 0.62769 0.0
C2677 C 0.71711 0.42646 0.64665 0.0
C2678 C 0.65293 0.46243 0.61203 0.0
C2679 C 0.66059 0.45598 0.61679 0.0
C2680 C 0.69291 0.45389 0.62376 0.0
C2681 C 0.7047 0.4282 0.63556 0.0
C2682 C 0.69686 0.43544 0.63051 0.0
C2683 C 0.67365 0.45628 0.61602 0.0
C2684 C 0.68173 0.44912 0.62097 0.0
H2685 H 0.71423 0.39939 0.63814 0.0
H2686 H 0.70249 0.41158 0.62954 0.0
H2687 H 0.70897 0.45103 0.63051 0.0
H2688 H 0.67547 0.47511 0.60141 0.0
H2689 H 0.68888 0.46366 0.60964 0.0
C2690 C 0.2911 0.88608 0.36317 0.0
C2691 C 0.28465 0.89112 0.35723 0.0
C2692 C 0.29755 0.89338 0.36808 0.0
C2693 C 0.30016 0.92453 0.37484 0.0
H2694 H 0.33276 0.91382 0.38134 0.0
C2695 C 0.3278 0.94789 0.39812 0.0
C2696 C 0.34077 0.94908 0.39715 0.0
C2697 C 0.32066 0.94119 0.39318 0.0
C2698 C 0.32371 0.917 0.37955 0.0
H2699 H 0.27975 0.90783 0.3519 0.0
H2700 H 0.29121 0.92057 0.36043 0.0
H2701 H 0.32092 0.90157 0.37282 0.0
H2702 H 0.35638 0.94409 0.39023 0.0
H2703 H 0.34392 0.93268 0.38159 0.0
H2704 H 0.3031 0.94008 0.3815 0.0
C2705 C 0.29117 0.91096 0.36131 0.0
C2706 C 0.31685 0.9099 0.37472 0.0
C2707 C 0.28472 0.90365 0.35637 0.0
C2708 C 0.34639 0.9435 0.3911 0.0
C2709 C 0.33927 0.93682 0.38619 0.0
C2710 C 0.30703 0.93164 0.37969 0.0
C2711 C 0.29774 0.9059 0.36719 0.0
C2712 C 0.30499 0.91356 0.37231 0.0
C2713 C 0.32633 0.93549 0.38719 0.0
C2714 C 0.31891 0.92796 0.38209 0.0
H2715 H 0.29138 0.87646 0.36396 0.0
H2716 H 0.30238 0.88918 0.37261 0.0
H2717 H 0.29101 0.92756 0.37314 0.0
H2718 H 0.32316 0.95215 0.40268 0.0
H2719 H 0.31072 0.94027 0.39415 0.0
loop_
_geom_bond_atom_site_label_1
_geom_bond_atom_site_label_2
_geom_bond_distance
_geom_bond_site_symmetry_2
_ccdc_geom_bond_type
C0 C1 1.264 . S
C0 C5 1.479 . S
C0 C10 1.465 . S
C1 C0 1.264 . S
C1 C3 1.339 . S
C1 H28 0.931 . S
C2 C3 1.395 . S
C2 C4 1.320 . S
C3 C1 1.339 . S
C3 C2 1.395 . S
C3 H29 0.929 . S
C4 C2 1.320 . S
C4 C5 1.405 . S
C4 H30 0.930 . S
C5 C0 1.479 . S
C5 C4 1.405 . S
C5 H31 0.931 . S
U6 O7 2.454 . S
U6 O8 2.458 . S
U6 C9 2.984 . S
U6 C10 2.847 . S
U6 C23 2.882 . S
U6 O24 2.441 . S
U6 O25 2.420 . S
U6 O26 2.455 . S
U6 O27 2.449 . S
O7 U6 2.454 . S
O7 C9 1.353 . S
O8 U6 2.458 . S
O8 C9 1.286 . S
C9 U6 2.984 . S
C9 O7 1.353 . S
C9 O8 1.286 . S
C9 C11 1.363 . S
C10 C0 1.465 . S
C10 U6 2.847 . S
C10 O24 1.249 . S
C10 O25 1.202 . S
C11 C9 1.363 . S
C11 C13 1.408 . S
C11 C16 1.342 . S
C12 C13 1.310 . S
C12 C15 1.461 . S
C12 H32 0.932 . S
C13 C11 1.408 . S
C13 C12 1.310 . S
C13 H33 0.930 . S
C14 C15 1.474 . S
C14 C16 1.285 . S
C14 H34 0.929 . S
C15 C12 1.461 . S
C15 C14 1.474 . S
C16 C11 1.342 . S
C16 C14 1.285 . S
C16 H35 0.930 . S
C17 C20 1.424 . S
C17 C22 1.245 . S
C17 C23 1.428 . S
C18 C21 1.260 . S
C18 C22 1.477 . S
C18 H36 0.932 . S
C19 C20 1.384 . S
C19 C21 1.479 . S
C19 H37 0.929 . S
C20 C17 1.424 . S
C20 C19 1.384 . S
C20 H38 0.928 . S
C21 C18 1.260 . S
C21 C19 1.479 . S
C22 C17 1.245 . S
C22 C18 1.477 . S
C22 H39 0.932 . S
C23 U6 2.882 . S
C23 C17 1.428 . S
C23 O26 1.301 . S
C23 O27 1.282 . S
O24 U6 2.441 . S
O24 C10 1.249 . S
O25 U6 2.420 . S
O25 C10 1.202 . S
O26 U6 2.455 . S
O26 C23 1.301 . S
O27 U6 2.449 . S
O27 C23 1.282 . S
H28 C1 0.931 . S
H29 C3 0.929 . S
H30 C4 0.930 . S
H31 C5 0.931 . S
H32 C12 0.932 . S
H33 C13 0.930 . S
H34 C14 0.929 . S
H35 C16 0.930 . S
H36 C18 0.932 . S
H37 C19 0.929 . S
H38 C20 0.928 . S
H39 C22 0.932 . S
C40 C41 1.264 . S
C40 C45 1.479 . S
C40 C50 1.465 . S
C41 C40 1.264 . S
C41 C43 1.339 . S
C41 H68 0.931 . S
C42 C43 1.395 . S
C42 C44 1.320 . S
C43 C41 1.339 . S
C43 C42 1.395 . S
C43 H69 0.929 . S
C44 C42 1.320 . S
C44 C45 1.405 . S
C44 H70 0.930 . S
C45 C40 1.479 . S
C45 C44 1.405 . S
C45 H71 0.931 . S
U46 O47 2.454 . S
U46 O48 2.458 . S
U46 C49 2.984 . S
U46 C50 2.847 . S
U46 C63 2.882 . S
U46 O64 2.441 . S
U46 O65 2.420 . S
U46 O66 2.455 . S
U46 O67 2.449 . S
O47 U46 2.454 . S
O47 C49 1.353 . S
O48 U46 2.458 . S
O48 C49 1.286 . S
C49 U46 2.984 . S
C49 O47 1.353 . S
C49 O48 1.286 . S
C49 C51 1.363 . S
C50 C40 1.465 . S
C50 U46 2.847 . S
C50 O64 1.249 . S
C50 O65 1.202 . S
C51 C49 1.363 . S
C51 C53 1.408 . S
C51 C56 1.342 . S
C52 C53 1.310 . S
C52 C55 1.461 . S
C52 H72 0.932 . S
C53 C51 1.408 . S
C53 C52 1.310 . S
C53 H73 0.930 . S
C54 C55 1.474 . S
C54 C56 1.285 . S
C54 H74 0.929 . S
C55 C52 1.461 . S
C55 C54 1.474 . S
C56 C51 1.342 . S
C56 C54 1.285 . S
C56 H75 0.930 . S
C57 C60 1.424 . S
C57 C62 1.245 . S
C57 C63 1.428 . S
C58 C61 1.260 . S
C58 C62 1.477 . S
C58 H76 0.932 . S
C59 C60 1.384 . S
C59 C61 1.479 . S
C59 H77 0.929 . S
C60 C57 1.424 . S
C60 C59 1.384 . S
C60 H78 0.928 . S
C61 C58 1.260 . S
C61 C59 1.479 . S
C62 C57 1.245 . S
C62 C58 1.477 . S
C62 H79 0.932 . S
C63 U46 2.882 . S
C63 C57 1.428 . S
C63 O66 1.301 . S
C63 O67 1.282 . S
O64 U46 2.441 . S
O64 C50 1.249 . S
O65 U46 2.420 . S
O65 C50 1.202 . S
O66 U46 2.455 . S
O66 C63 1.301 . S
O67 U46 2.449 . S
O67 C63 1.282 . S
H68 C41 0.931 . S
H69 C43 0.929 . S
H70 C44 0.930 . S
H71 C45 0.931 . S
H72 C52 0.932 . S
H73 C53 0.930 . S
H74 C54 0.929 . S
H75 C56 0.930 . S
H76 C58 0.932 . S
H77 C59 0.929 . S
H78 C60 0.928 . S
H79 C62 0.932 . S
C80 C81 1.264 . S
C80 C85 1.479 . S
C80 C90 1.465 . S
C81 C80 1.264 . S
C81 C83 1.339 . S
C81 H108 0.931 . S
C82 C83 1.395 . S
C82 C84 1.320 . S
C83 C81 1.339 . S
C83 C82 1.395 . S
C83 H109 0.929 . S
C84 C82 1.320 . S
C84 C85 1.405 . S
C84 H110 0.930 . S
C85 C80 1.479 . S
C85 C84 1.405 . S
C85 H111 0.931 . S
U86 O87 2.454 . S
U86 O88 2.458 . S
U86 C89 2.984 . S
U86 C90 2.847 . S
U86 C103 2.882 . S
U86 O104 2.441 . S
U86 O105 2.420 . S
U86 O106 2.455 . S
U86 O107 2.449 . S
O87 U86 2.454 . S
O87 C89 1.353 . S
O88 U86 2.458 . S
O88 C89 1.286 . S
C89 U86 2.984 . S
C89 O87 1.353 . S
C89 O88 1.286 . S
C89 C91 1.363 . S
C90 C80 1.465 . S
C90 U86 2.847 . S
C90 O104 1.249 . S
C90 O105 1.202 . S
C91 C89 1.363 . S
C91 C93 1.408 . S
C91 C96 1.342 . S
C92 C93 1.310 . S
C92 C95 1.461 . S
C92 H112 0.932 . S
C93 C91 1.408 . S
C93 C92 1.310 . S
C93 H113 0.930 . S
C94 C95 1.474 . S
C94 C96 1.285 . S
C94 H114 0.929 . S
C95 C92 1.461 . S
C95 C94 1.474 . S
C96 C91 1.342 . S
C96 C94 1.285 . S
C96 H115 0.930 . S
C97 C100 1.424 . S
C97 C102 1.245 . S
C97 C103 1.428 . S
C98 C101 1.260 . S
C98 C102 1.477 . S
C98 H116 0.932 . S
C99 C100 1.384 . S
C99 C101 1.479 . S
C99 H117 0.929 . S
C100 C97 1.424 . S
C100 C99 1.384 . S
C100 H118 0.928 . S
C101 C98 1.260 . S
C101 C99 1.479 . S
C102 C97 1.245 . S
C102 C98 1.477 . S
C102 H119 0.932 . S
C103 U86 2.882 . S
C103 C97 1.428 . S
C103 O106 1.301 . S
C103 O107 1.282 . S
O104 U86 2.441 . S
O104 C90 1.249 . S
O105 U86 2.420 . S
O105 C90 1.202 . S
O106 U86 2.455 . S
O106 C103 1.301 . S
O107 U86 2.449 . S
O107 C103 1.282 . S
H108 C81 0.931 . S
H109 C83 0.929 . S
H110 C84 0.930 . S
H111 C85 0.931 . S
H112 C92 0.932 . S
H113 C93 0.930 . S
H114 C94 0.929 . S
H115 C96 0.930 . S
H116 C98 0.932 . S
H117 C99 0.929 . S
H118 C100 0.928 . S
H119 C102 0.932 . S
C120 C121 1.264 . S
C120 C125 1.479 . S
C120 C130 1.465 . S
C121 C120 1.264 . S
C121 C123 1.339 . S
C121 H148 0.931 . S
C122 C123 1.395 . S
C122 C124 1.320 . S
C123 C121 1.339 . S
C123 C122 1.395 . S
C123 H149 0.929 . S
C124 C122 1.320 . S
C124 C125 1.405 . S
C124 H150 0.930 . S
C125 C120 1.479 . S
C125 C124 1.405 . S
C125 H151 0.931 . S
U126 O127 2.454 . S
U126 O128 2.458 . S
U126 C129 2.984 . S
U126 C130 2.847 . S
U126 C143 2.882 . S
U126 O144 2.441 . S
U126 O145 2.420 . S
U126 O146 2.455 . S
U126 O147 2.449 . S
O127 U126 2.454 . S
O127 C129 1.353 . S
O128 U126 2.458 . S
O128 C129 1.286 . S
C129 U126 2.984 . S
C129 O127 1.353 . S
C129 O128 1.286 . S
C129 C131 1.363 . S
C130 C120 1.465 . S
C130 U126 2.847 . S
C130 O144 1.249 . S
C130 O145 1.202 . S
C131 C129 1.363 . S
C131 C133 1.408 . S
C131 C136 1.342 . S
C132 C133 1.310 . S
C132 C135 1.461 . S
C132 H152 0.932 . S
C133 C131 1.408 . S
C133 C132 1.310 . S
C133 H153 0.930 . S
C134 C135 1.474 . S
C134 C136 1.285 . S
C134 H154 0.929 . S
C135 C132 1.461 . S
C135 C134 1.474 . S
C136 C131 1.342 . S
C136 C134 1.285 . S
C136 H155 0.930 . S
C137 C140 1.424 . S
C137 C142 1.245 . S
C137 C143 1.428 . S
C138 C141 1.260 . S
C138 C142 1.477 . S
C138 H156 0.932 . S
C139 C140 1.384 . S
C139 C141 1.479 . S
C139 H157 0.929 . S
C140 C137 1.424 . S
C140 C139 1.384 . S
C140 H158 0.928 . S
C141 C138 1.260 . S
C141 C139 1.479 . S
C142 C137 1.245 . S
C142 C138 1.477 . S
C142 H159 0.932 . S
C143 U126 2.882 . S
C143 C137 1.428 . S
C143 O146 1.301 . S
C143 O147 1.282 . S
O144 U126 2.441 . S
O144 C130 1.249 . S
O145 U126 2.420 . S
O145 C130 1.202 . S
O146 U126 2.455 . S
O146 C143 1.301 . S
O147 U126 2.449 . S
O147 C143 1.282 . S
H148 C121 0.931 . S
H149 C123 0.929 . S
H150 C124 0.930 . S
H151 C125 0.931 . S
H152 C132 0.932 . S
H153 C133 0.930 . S
H154 C134 0.929 . S
H155 C136 0.930 . S
H156 C138 0.932 . S
H157 C139 0.929 . S
H158 C140 0.928 . S
H159 C142 0.932 . S
C160 C161 1.264 . S
C160 C165 1.479 . S
C160 C170 1.465 . S
C161 C160 1.264 . S
C161 C163 1.339 . S
C161 H188 0.931 . S
C162 C163 1.395 . S
C162 C164 1.320 . S
C163 C161 1.339 . S
C163 C162 1.395 . S
C163 H189 0.929 . S
C164 C162 1.320 . S
C164 C165 1.405 . S
C164 H190 0.930 . S
C165 C160 1.479 . S
C165 C164 1.405 . S
C165 H191 0.931 . S
U166 O167 2.454 . S
U166 O168 2.458 . S
U166 C169 2.984 . S
U166 C170 2.847 . S
U166 C183 2.882 . S
U166 O184 2.441 . S
U166 O185 2.420 . S
U166 O186 2.455 . S
U166 O187 2.449 . S
O167 U166 2.454 . S
O167 C169 1.353 . S
O168 U166 2.458 . S
O168 C169 1.286 . S
C169 U166 2.984 . S
C169 O167 1.353 . S
C169 O168 1.286 . S
C169 C171 1.363 . S
C170 C160 1.465 . S
C170 U166 2.847 . S
C170 O184 1.249 . S
C170 O185 1.202 . S
C171 C169 1.363 . S
C171 C173 1.408 . S
C171 C176 1.342 . S
C172 C173 1.310 . S
C172 C175 1.461 . S
C172 H192 0.932 . S
C173 C171 1.408 . S
C173 C172 1.310 . S
C173 H193 0.930 . S
C174 C175 1.474 . S
C174 C176 1.285 . S
C174 H194 0.929 . S
C175 C172 1.461 . S
C175 C174 1.474 . S
C176 C171 1.342 . S
C176 C174 1.285 . S
C176 H195 0.930 . S
C177 C180 1.424 . S
C177 C182 1.245 . S
C177 C183 1.428 . S
C178 C181 1.260 . S
C178 C182 1.477 . S
C178 H196 0.932 . S
C179 C180 1.384 . S
C179 C181 1.479 . S
C179 H197 0.929 . S
C180 C177 1.424 . S
C180 C179 1.384 . S
C180 H198 0.928 . S
C181 C178 1.260 . S
C181 C179 1.479 . S
C182 C177 1.245 . S
C182 C178 1.477 . S
C182 H199 0.932 . S
C183 U166 2.882 . S
C183 C177 1.428 . S
C183 O186 1.301 . S
C183 O187 1.282 . S
O184 U166 2.441 . S
O184 C170 1.249 . S
O185 U166 2.420 . S
O185 C170 1.202 . S
O186 U166 2.455 . S
O186 C183 1.301 . S
O187 U166 2.449 . S
O187 C183 1.282 . S
H188 C161 0.931 . S
H189 C163 0.929 . S
H190 C164 0.930 . S
H191 C165 0.931 . S
H192 C172 0.932 . S
H193 C173 0.930 . S
H194 C174 0.929 . S
H195 C176 0.930 . S
H196 C178 0.932 . S
H197 C179 0.929 . S
H198 C180 0.928 . S
H199 C182 0.932 . S
C200 C201 1.264 . S
C200 C205 1.479 . S
C200 C210 1.465 . S
C201 C200 1.264 . S
C201 C203 1.339 . S
C201 H228 0.931 . S
C202 C203 1.395 . S
C202 C204 1.320 . S
C203 C201 1.339 . S
C203 C202 1.395 . S
C203 H229 0.929 . S
C204 C202 1.320 . S
C204 C205 1.405 . S
C204 H230 0.930 . S
C205 C200 1.479 . S
C205 C204 1.405 . S
C205 H231 0.931 . S
U206 O207 2.454 . S
U206 O208 2.458 . S
U206 C209 2.984 . S
U206 C210 2.847 . S
U206 C223 2.882 . S
U206 O224 2.441 . S
U206 O225 2.420 . S
U206 O226 2.455 . S
U206 O227 2.449 . S
O207 U206 2.454 . S
O207 C209 1.353 . S
O208 U206 2.458 . S
O208 C209 1.286 . S
C209 U206 2.984 . S
C209 O207 1.353 . S
C209 O208 1.286 . S
C209 C211 1.363 . S
C210 C200 1.465 . S
C210 U206 2.847 . S
C210 O224 1.249 . S
C210 O225 1.202 . S
C211 C209 1.363 . S
C211 C213 1.408 . S
C211 C216 1.342 . S
C212 C213 1.310 . S
C212 C215 1.461 . S
C212 H232 0.932 . S
C213 C211 1.408 . S
C213 C212 1.310 . S
C213 H233 0.930 . S
C214 C215 1.474 . S
C214 C216 1.285 . S
C214 H234 0.929 . S
C215 C212 1.461 . S
C215 C214 1.474 . S
C216 C211 1.342 . S
C216 C214 1.285 . S
C216 H235 0.930 . S
C217 C220 1.424 . S
C217 C222 1.245 . S
C217 C223 1.428 . S
C218 C221 1.260 . S
C218 C222 1.477 . S
C218 H236 0.932 . S
C219 C220 1.384 . S
C219 C221 1.479 . S
C219 H237 0.929 . S
C220 C217 1.424 . S
C220 C219 1.384 . S
C220 H238 0.928 . S
C221 C218 1.260 . S
C221 C219 1.479 . S
C222 C217 1.245 . S
C222 C218 1.477 . S
C222 H239 0.932 . S
C223 U206 2.882 . S
C223 C217 1.428 . S
C223 O226 1.301 . S
C223 O227 1.282 . S
O224 U206 2.441 . S
O224 C210 1.249 . S
O225 U206 2.420 . S
O225 C210 1.202 . S
O226 U206 2.455 . S
O226 C223 1.301 . S
O227 U206 2.449 . S
O227 C223 1.282 . S
H228 C201 0.931 . S
H229 C203 0.929 . S
H230 C204 0.930 . S
H231 C205 0.931 . S
H232 C212 0.932 . S
H233 C213 0.930 . S
H234 C214 0.929 . S
H235 C216 0.930 . S
H236 C218 0.932 . S
H237 C219 0.929 . S
H238 C220 0.928 . S
H239 C222 0.932 . S
C240 C241 1.264 . S
C240 C245 1.479 . S
C240 C250 1.465 . S
C241 C240 1.264 . S
C241 C243 1.339 . S
C241 H268 0.931 . S
C242 C243 1.395 . S
C242 C244 1.320 . S
C243 C241 1.339 . S
C243 C242 1.395 . S
C243 H269 0.929 . S
C244 C242 1.320 . S
C244 C245 1.405 . S
C244 H270 0.930 . S
C245 C240 1.479 . S
C245 C244 1.405 . S
C245 H271 0.931 . S
U246 O247 2.454 . S
U246 O248 2.458 . S
U246 C249 2.984 . S
U246 C250 2.847 . S
U246 C263 2.882 . S
U246 O264 2.441 . S
U246 O265 2.420 . S
U246 O266 2.455 . S
U246 O267 2.449 . S
O247 U246 2.454 . S
O247 C249 1.353 . S
O248 U246 2.458 . S
O248 C249 1.286 . S
C249 U246 2.984 . S
C249 O247 1.353 . S
C249 O248 1.286 . S
C249 C251 1.363 . S
C250 C240 1.465 . S
C250 U246 2.847 . S
C250 O264 1.249 . S
C250 O265 1.202 . S
C251 C249 1.363 . S
C251 C253 1.408 . S
C251 C256 1.342 . S
C252 C253 1.310 . S
C252 C255 1.461 . S
C252 H272 0.932 . S
C253 C251 1.408 . S
C253 C252 1.310 . S
C253 H273 0.930 . S
C254 C255 1.474 . S
C254 C256 1.285 . S
C254 H274 0.929 . S
C255 C252 1.461 . S
C255 C254 1.474 . S
C256 C251 1.342 . S
C256 C254 1.285 . S
C256 H275 0.930 . S
C257 C260 1.424 . S
C257 C262 1.245 . S
C257 C263 1.428 . S
C258 C261 1.260 . S
C258 C262 1.477 . S
C258 H276 0.932 . S
C259 C260 1.384 . S
C259 C261 1.479 . S
C259 H277 0.929 . S
C260 C257 1.424 . S
C260 C259 1.384 . S
C260 H278 0.928 . S
C261 C258 1.260 . S
C261 C259 1.479 . S
C262 C257 1.245 . S
C262 C258 1.477 . S
C262 H279 0.932 . S
C263 U246 2.882 . S
C263 C257 1.428 . S
C263 O266 1.301 . S
C263 O267 1.282 . S
O264 U246 2.441 . S
O264 C250 1.249 . S
O265 U246 2.420 . S
O265 C250 1.202 . S
O266 U246 2.455 . S
O266 C263 1.301 . S
O267 U246 2.449 . S
O267 C263 1.282 . S
H268 C241 0.931 . S
H269 C243 0.929 . S
H270 C244 0.930 . S
H271 C245 0.931 . S
H272 C252 0.932 . S
H273 C253 0.930 . S
H274 C254 0.929 . S
H275 C256 0.930 . S
H276 C258 0.932 . S
H277 C259 0.929 . S
H278 C260 0.928 . S
H279 C262 0.932 . S
C280 C281 1.264 . S
C280 C285 1.479 . S
C280 C290 1.465 . S
C281 C280 1.264 . S
C281 C283 1.339 . S
C281 H308 0.931 . S
C282 C283 1.395 . S
C282 C284 1.320 . S
C283 C281 1.339 . S
C283 C282 1.395 . S
C283 H309 0.929 . S
C284 C282 1.320 . S
C284 C285 1.405 . S
C284 H310 0.930 . S
C285 C280 1.479 . S
C285 C284 1.405 . S
C285 H311 0.931 . S
U286 O287 2.454 . S
U286 O288 2.458 . S
U286 C289 2.984 . S
U286 C290 2.847 . S
U286 C303 2.882 . S
U286 O304 2.441 . S
U286 O305 2.420 . S
U286 O306 2.455 . S
U286 O307 2.449 . S
O287 U286 2.454 . S
O287 C289 1.353 . S
O288 U286 2.458 . S
O288 C289 1.286 . S
C289 U286 2.984 . S
C289 O287 1.353 . S
C289 O288 1.286 . S
C289 C291 1.363 . S
C290 C280 1.465 . S
C290 U286 2.847 . S
C290 O304 1.249 . S
C290 O305 1.202 . S
C291 C289 1.363 . S
C291 C293 1.408 . S
C291 C296 1.342 . S
C292 C293 1.310 . S
C292 C295 1.461 . S
C292 H312 0.932 . S
C293 C291 1.408 . S
C293 C292 1.310 . S
C293 H313 0.930 . S
C294 C295 1.474 . S
C294 C296 1.285 . S
C294 H314 0.929 . S
C295 C292 1.461 . S
C295 C294 1.474 . S
C296 C291 1.342 . S
C296 C294 1.285 . S
C296 H315 0.930 . S
C297 C300 1.424 . S
C297 C302 1.245 . S
C297 C303 1.428 . S
C298 C301 1.260 . S
C298 C302 1.477 . S
C298 H316 0.932 . S
C299 C300 1.384 . S
C299 C301 1.479 . S
C299 H317 0.929 . S
C300 C297 1.424 . S
C300 C299 1.384 . S
C300 H318 0.928 . S
C301 C298 1.260 . S
C301 C299 1.479 . S
C302 C297 1.245 . S
C302 C298 1.477 . S
C302 H319 0.932 . S
C303 U286 2.882 . S
C303 C297 1.428 . S
C303 O306 1.301 . S
C303 O307 1.282 . S
O304 U286 2.441 . S
O304 C290 1.249 . S
O305 U286 2.420 . S
O305 C290 1.202 . S
O306 U286 2.455 . S
O306 C303 1.301 . S
O307 U286 2.449 . S
O307 C303 1.282 . S
H308 C281 0.931 . S
H309 C283 0.929 . S
H310 C284 0.930 . S
H311 C285 0.931 . S
H312 C292 0.932 . S
H313 C293 0.930 . S
H314 C294 0.929 . S
H315 C296 0.930 . S
H316 C298 0.932 . S
H317 C299 0.929 . S
H318 C300 0.928 . S
H319 C302 0.932 . S
C320 C321 1.264 . S
C320 C325 1.479 . S
C320 C330 1.465 . S
C321 C320 1.264 . S
C321 C323 1.339 . S
C321 H348 0.931 . S
C322 C323 1.395 . S
C322 C324 1.320 . S
C323 C321 1.339 . S
C323 C322 1.395 . S
C323 H349 0.929 . S
C324 C322 1.320 . S
C324 C325 1.405 . S
C324 H350 0.930 . S
C325 C320 1.479 . S
C325 C324 1.405 . S
C325 H351 0.931 . S
U326 O327 2.454 . S
U326 O328 2.458 . S
U326 C329 2.984 . S
U326 C330 2.847 . S
U326 C343 2.882 . S
U326 O344 2.441 . S
U326 O345 2.420 . S
U326 O346 2.455 . S
U326 O347 2.449 . S
O327 U326 2.454 . S
O327 C329 1.353 . S
O328 U326 2.458 . S
O328 C329 1.286 . S
C329 U326 2.984 . S
C329 O327 1.353 . S
C329 O328 1.286 . S
C329 C331 1.363 . S
C330 C320 1.465 . S
C330 U326 2.847 . S
C330 O344 1.249 . S
C330 O345 1.202 . S
C331 C329 1.363 . S
C331 C333 1.408 . S
C331 C336 1.342 . S
C332 C333 1.310 . S
C332 C335 1.461 . S
C332 H352 0.932 . S
C333 C331 1.408 . S
C333 C332 1.310 . S
C333 H353 0.930 . S
C334 C335 1.474 . S
C334 C336 1.285 . S
C334 H354 0.929 . S
C335 C332 1.461 . S
C335 C334 1.474 . S
C336 C331 1.342 . S
C336 C334 1.285 . S
C336 H355 0.930 . S
C337 C340 1.424 . S
C337 C342 1.245 . S
C337 C343 1.428 . S
C338 C341 1.260 . S
C338 C342 1.477 . S
C338 H356 0.932 . S
C339 C340 1.384 . S
C339 C341 1.479 . S
C339 H357 0.929 . S
C340 C337 1.424 . S
C340 C339 1.384 . S
C340 H358 0.928 . S
C341 C338 1.260 . S
C341 C339 1.479 . S
C342 C337 1.245 . S
C342 C338 1.477 . S
C342 H359 0.932 . S
C343 U326 2.882 . S
C343 C337 1.428 . S
C343 O346 1.301 . S
C343 O347 1.282 . S
O344 U326 2.441 . S
O344 C330 1.249 . S
O345 U326 2.420 . S
O345 C330 1.202 . S
O346 U326 2.455 . S
O346 C343 1.301 . S
O347 U326 2.449 . S
O347 C343 1.282 . S
H348 C321 0.931 . S
H349 C323 0.929 . S
H350 C324 0.930 . S
H351 C325 0.931 . S
H352 C332 0.932 . S
H353 C333 0.930 . S
H354 C334 0.929 . S
H355 C336 0.930 . S
H356 C338 0.932 . S
H357 C339 0.929 . S
H358 C340 0.928 . S
H359 C342 0.932 . S
C360 C361 1.264 . S
C360 C365 1.479 . S
C360 C370 1.465 . S
C361 C360 1.264 . S
C361 C363 1.339 . S
C361 H388 0.931 . S
C362 C363 1.395 . S
C362 C364 1.320 . S
C363 C361 1.339 . S
C363 C362 1.395 . S
C363 H389 0.929 . S
C364 C362 1.320 . S
C364 C365 1.405 . S
C364 H390 0.930 . S
C365 C360 1.479 . S
C365 C364 1.405 . S
C365 H391 0.931 . S
U366 O367 2.454 . S
U366 O368 2.458 . S
U366 C369 2.984 . S
U366 C370 2.847 . S
U366 C383 2.882 . S
U366 O384 2.441 . S
U366 O385 2.420 . S
U366 O386 2.455 . S
U366 O387 2.449 . S
O367 U366 2.454 . S
O367 C369 1.353 . S
O368 U366 2.458 . S
O368 C369 1.286 . S
C369 U366 2.984 . S
C369 O367 1.353 . S
C369 O368 1.286 . S
C369 C371 1.363 . S
C370 C360 1.465 . S
C370 U366 2.847 . S
C370 O384 1.249 . S
C370 O385 1.202 . S
C371 C369 1.363 . S
C371 C373 1.408 . S
C371 C376 1.342 . S
C372 C373 1.310 . S
C372 C375 1.461 . S
C372 H392 0.932 . S
C373 C371 1.408 . S
C373 C372 1.310 . S
C373 H393 0.930 . S
C374 C375 1.474 . S
C374 C376 1.285 . S
C374 H394 0.929 . S
C375 C372 1.461 . S
C375 C374 1.474 . S
C376 C371 1.342 . S
C376 C374 1.285 . S
C376 H395 0.930 . S
C377 C380 1.424 . S
C377 C382 1.245 . S
C377 C383 1.428 . S
C378 C381 1.260 . S
C378 C382 1.477 . S
C378 H396 0.932 . S
C379 C380 1.384 . S
C379 C381 1.479 . S
C379 H397 0.929 . S
C380 C377 1.424 . S
C380 C379 1.384 . S
C380 H398 0.928 . S
C381 C378 1.260 . S
C381 C379 1.479 . S
C382 C377 1.245 . S
C382 C378 1.477 . S
C382 H399 0.932 . S
C383 U366 2.882 . S
C383 C377 1.428 . S
C383 O386 1.301 . S
C383 O387 1.282 . S
O384 U366 2.441 . S
O384 C370 1.249 . S
O385 U366 2.420 . S
O385 C370 1.202 . S
O386 U366 2.455 . S
O386 C383 1.301 . S
O387 U366 2.449 . S
O387 C383 1.282 . S
H388 C361 0.931 . S
H389 C363 0.929 . S
H390 C364 0.930 . S
H391 C365 0.931 . S
H392 C372 0.932 . S
H393 C373 0.930 . S
H394 C374 0.929 . S
H395 C376 0.930 . S
H396 C378 0.932 . S
H397 C379 0.929 . S
H398 C380 0.928 . S
H399 C382 0.932 . S
C400 C401 1.264 . S
C400 C405 1.479 . S
C400 C410 1.465 . S
C401 C400 1.264 . S
C401 C403 1.339 . S
C401 H428 0.931 . S
C402 C403 1.395 . S
C402 C404 1.320 . S
C403 C401 1.339 . S
C403 C402 1.395 . S
C403 H429 0.929 . S
C404 C402 1.320 . S
C404 C405 1.405 . S
C404 H430 0.930 . S
C405 C400 1.479 . S
C405 C404 1.405 . S
C405 H431 0.931 . S
U406 O407 2.454 . S
U406 O408 2.458 . S
U406 C409 2.984 . S
U406 C410 2.847 . S
U406 C423 2.882 . S
U406 O424 2.441 . S
U406 O425 2.420 . S
U406 O426 2.455 . S
U406 O427 2.449 . S
O407 U406 2.454 . S
O407 C409 1.353 . S
O408 U406 2.458 . S
O408 C409 1.286 . S
C409 U406 2.984 . S
C409 O407 1.353 . S
C409 O408 1.286 . S
C409 C411 1.363 . S
C410 C400 1.465 . S
C410 U406 2.847 . S
C410 O424 1.249 . S
C410 O425 1.202 . S
C411 C409 1.363 . S
C411 C413 1.408 . S
C411 C416 1.342 . S
C412 C413 1.310 . S
C412 C415 1.461 . S
C412 H432 0.932 . S
C413 C411 1.408 . S
C413 C412 1.310 . S
C413 H433 0.930 . S
C414 C415 1.474 . S
C414 C416 1.285 . S
C414 H434 0.929 . S
C415 C412 1.461 . S
C415 C414 1.474 . S
C416 C411 1.342 . S
C416 C414 1.285 . S
C416 H435 0.930 . S
C417 C420 1.424 . S
C417 C422 1.245 . S
C417 C423 1.428 . S
C418 C421 1.260 . S
C418 C422 1.477 . S
C418 H436 0.932 . S
C419 C420 1.384 . S
C419 C421 1.479 . S
C419 H437 0.929 . S
C420 C417 1.424 . S
C420 C419 1.384 . S
C420 H438 0.928 . S
C421 C418 1.260 . S
C421 C419 1.479 . S
C422 C417 1.245 . S
C422 C418 1.477 . S
C422 H439 0.932 . S
C423 U406 2.882 . S
C423 C417 1.428 . S
C423 O426 1.301 . S
C423 O427 1.282 . S
O424 U406 2.441 . S
O424 C410 1.249 . S
O425 U406 2.420 . S
O425 C410 1.202 . S
O426 U406 2.455 . S
O426 C423 1.301 . S
O427 U406 2.449 . S
O427 C423 1.282 . S
H428 C401 0.931 . S
H429 C403 0.929 . S
H430 C404 0.930 . S
H431 C405 0.931 . S
H432 C412 0.932 . S
H433 C413 0.930 . S
H434 C414 0.929 . S
H435 C416 0.930 . S
H436 C418 0.932 . S
H437 C419 0.929 . S
H438 C420 0.928 . S
H439 C422 0.932 . S
C440 C441 1.264 . S
C440 C445 1.479 . S
C440 C450 1.465 . S
C441 C440 1.264 . S
C441 C443 1.339 . S
C441 H468 0.931 . S
C442 C443 1.395 . S
C442 C444 1.320 . S
C443 C441 1.339 . S
C443 C442 1.395 . S
C443 H469 0.929 . S
C444 C442 1.320 . S
C444 C445 1.405 . S
C444 H470 0.930 . S
C445 C440 1.479 . S
C445 C444 1.405 . S
C445 H471 0.931 . S
U446 O447 2.454 . S
U446 O448 2.458 . S
U446 C449 2.984 . S
U446 C450 2.847 . S
U446 C463 2.882 . S
U446 O464 2.441 . S
U446 O465 2.420 . S
U446 O466 2.455 . S
U446 O467 2.449 . S
O447 U446 2.454 . S
O447 C449 1.353 . S
O448 U446 2.458 . S
O448 C449 1.286 . S
C449 U446 2.984 . S
C449 O447 1.353 . S
C449 O448 1.286 . S
C449 C451 1.363 . S
C450 C440 1.465 . S
C450 U446 2.847 . S
C450 O464 1.249 . S
C450 O465 1.202 . S
C451 C449 1.363 . S
C451 C453 1.408 . S
C451 C456 1.342 . S
C452 C453 1.310 . S
C452 C455 1.461 . S
C452 H472 0.932 . S
C453 C451 1.408 . S
C453 C452 1.310 . S
C453 H473 0.930 . S
C454 C455 1.474 . S
C454 C456 1.285 . S
C454 H474 0.929 . S
C455 C452 1.461 . S
C455 C454 1.474 . S
C456 C451 1.342 . S
C456 C454 1.285 . S
C456 H475 0.930 . S
C457 C460 1.424 . S
C457 C462 1.245 . S
C457 C463 1.428 . S
C458 C461 1.260 . S
C458 C462 1.477 . S
C458 H476 0.932 . S
C459 C460 1.384 . S
C459 C461 1.479 . S
C459 H477 0.929 . S
C460 C457 1.424 . S
C460 C459 1.384 . S
C460 H478 0.928 . S
C461 C458 1.260 . S
C461 C459 1.479 . S
C462 C457 1.245 . S
C462 C458 1.477 . S
C462 H479 0.932 . S
C463 U446 2.882 . S
C463 C457 1.428 . S
C463 O466 1.301 . S
C463 O467 1.282 . S
O464 U446 2.441 . S
O464 C450 1.249 . S
O465 U446 2.420 . S
O465 C450 1.202 . S
O466 U446 2.455 . S
O466 C463 1.301 . S
O467 U446 2.449 . S
O467 C463 1.282 . S
H468 C441 0.931 . S
H469 C443 0.929 . S
H470 C444 0.930 . S
H471 C445 0.931 . S
H472 C452 0.932 . S
H473 C453 0.930 . S
H474 C454 0.929 . S
H475 C456 0.930 . S
H476 C458 0.932 . S
H477 C459 0.929 . S
H478 C460 0.928 . S
H479 C462 0.932 . S
C480 C481 1.264 . S
C480 C485 1.479 . S
C480 C490 1.465 . S
C481 C480 1.264 . S
C481 C483 1.339 . S
C481 H508 0.931 . S
C482 C483 1.395 . S
C482 C484 1.320 . S
C483 C481 1.339 . S
C483 C482 1.395 . S
C483 H509 0.929 . S
C484 C482 1.320 . S
C484 C485 1.405 . S
C484 H510 0.930 . S
C485 C480 1.479 . S
C485 C484 1.405 . S
C485 H511 0.931 . S
U486 O487 2.454 . S
U486 O488 2.458 . S
U486 C489 2.984 . S
U486 C490 2.847 . S
U486 C503 2.882 . S
U486 O504 2.441 . S
U486 O505 2.420 . S
U486 O506 2.455 . S
U486 O507 2.449 . S
O487 U486 2.454 . S
O487 C489 1.353 . S
O488 U486 2.458 . S
O488 C489 1.286 . S
C489 U486 2.984 . S
C489 O487 1.353 . S
C489 O488 1.286 . S
C489 C491 1.363 . S
C490 C480 1.465 . S
C490 U486 2.847 . S
C490 O504 1.249 . S
C490 O505 1.202 . S
C491 C489 1.363 . S
C491 C493 1.408 . S
C491 C496 1.342 . S
C492 C493 1.310 . S
C492 C495 1.461 . S
C492 H512 0.932 . S
C493 C491 1.408 . S
C493 C492 1.310 . S
C493 H513 0.930 . S
C494 C495 1.474 . S
C494 C496 1.285 . S
C494 H514 0.929 . S
C495 C492 1.461 . S
C495 C494 1.474 . S
C496 C491 1.342 . S
C496 C494 1.285 . S
C496 H515 0.930 . S
C497 C500 1.424 . S
C497 C502 1.245 . S
C497 C503 1.428 . S
C498 C501 1.260 . S
C498 C502 1.477 . S
C498 H516 0.932 . S
C499 C500 1.384 . S
C499 C501 1.479 . S
C499 H517 0.929 . S
C500 C497 1.424 . S
C500 C499 1.384 . S
C500 H518 0.928 . S
C501 C498 1.260 . S
C501 C499 1.479 . S
C502 C497 1.245 . S
C502 C498 1.477 . S
C502 H519 0.932 . S
C503 U486 2.882 . S
C503 C497 1.428 . S
C503 O506 1.301 . S
C503 O507 1.282 . S
O504 U486 2.441 . S
O504 C490 1.249 . S
O505 U486 2.420 . S
O505 C490 1.202 . S
O506 U486 2.455 . S
O506 C503 1.301 . S
O507 U486 2.449 . S
O507 C503 1.282 . S
H508 C481 0.931 . S
H509 C483 0.929 . S
H510 C484 0.930 . S
H511 C485 0.931 . S
H512 C492 0.932 . S
H513 C493 0.930 . S
H514 C494 0.929 . S
H515 C496 0.930 . S
H516 C498 0.932 . S
H517 C499 0.929 . S
H518 C500 0.928 . S
H519 C502 0.932 . S
C520 C521 1.264 . S
C520 C525 1.479 . S
C520 C530 1.465 . S
C521 C520 1.264 . S
C521 C523 1.339 . S
C521 H548 0.931 . S
C522 C523 1.395 . S
C522 C524 1.320 . S
C523 C521 1.339 . S
C523 C522 1.395 . S
C523 H549 0.929 . S
C524 C522 1.320 . S
C524 C525 1.405 . S
C524 H550 0.930 . S
C525 C520 1.479 . S
C525 C524 1.405 . S
C525 H551 0.931 . S
U526 O527 2.454 . S
U526 O528 2.458 . S
U526 C529 2.984 . S
U526 C530 2.847 . S
U526 C543 2.882 . S
U526 O544 2.441 . S
U526 O545 2.420 . S
U526 O546 2.455 . S
U526 O547 2.449 . S
O527 U526 2.454 . S
O527 C529 1.353 . S
O528 U526 2.458 . S
O528 C529 1.286 . S
C529 U526 2.984 . S
C529 O527 1.353 . S
C529 O528 1.286 . S
C529 C531 1.363 . S
C530 C520 1.465 . S
C530 U526 2.847 . S
C530 O544 1.249 . S
C530 O545 1.202 . S
C531 C529 1.363 . S
C531 C533 1.408 . S
C531 C536 1.342 . S
C532 C533 1.310 . S
C532 C535 1.461 . S
C532 H552 0.932 . S
C533 C531 1.408 . S
C533 C532 1.310 . S
C533 H553 0.930 . S
C534 C535 1.474 . S
C534 C536 1.285 . S
C534 H554 0.929 . S
C535 C532 1.461 . S
C535 C534 1.474 . S
C536 C531 1.342 . S
C536 C534 1.285 . S
C536 H555 0.930 . S
C537 C540 1.424 . S
C537 C542 1.245 . S
C537 C543 1.428 . S
C538 C541 1.260 . S
C538 C542 1.477 . S
C538 H556 0.932 . S
C539 C540 1.384 . S
C539 C541 1.479 . S
C539 H557 0.929 . S
C540 C537 1.424 . S
C540 C539 1.384 . S
C540 H558 0.928 . S
C541 C538 1.260 . S
C541 C539 1.479 . S
C542 C537 1.245 . S
C542 C538 1.477 . S
C542 H559 0.932 . S
C543 U526 2.882 . S
C543 C537 1.428 . S
C543 O546 1.301 . S
C543 O547 1.282 . S
O544 U526 2.441 . S
O544 C530 1.249 . S
O545 U526 2.420 . S
O545 C530 1.202 . S
O546 U526 2.455 . S
O546 C543 1.301 . S
O547 U526 2.449 . S
O547 C543 1.282 . S
H548 C521 0.931 . S
H549 C523 0.929 . S
H550 C524 0.930 . S
H551 C525 0.931 . S
H552 C532 0.932 . S
H553 C533 0.930 . S
H554 C534 0.929 . S
H555 C536 0.930 . S
H556 C538 0.932 . S
H557 C539 0.929 . S
H558 C540 0.928 . S
H559 C542 0.932 . S
C560 C561 1.264 . S
C560 C565 1.479 . S
C560 C570 1.465 . S
C561 C560 1.264 . S
C561 C563 1.339 . S
C561 H588 0.931 . S
C562 C563 1.395 . S
C562 C564 1.320 . S
C563 C561 1.339 . S
C563 C562 1.395 . S
C563 H589 0.929 . S
C564 C562 1.320 . S
C564 C565 1.405 . S
C564 H590 0.930 . S
C565 C560 1.479 . S
C565 C564 1.405 . S
C565 H591 0.931 . S
U566 O567 2.454 . S
U566 O568 2.458 . S
U566 C569 2.984 . S
U566 C570 2.847 . S
U566 C583 2.882 . S
U566 O584 2.441 . S
U566 O585 2.420 . S
U566 O586 2.455 . S
U566 O587 2.449 . S
O567 U566 2.454 . S
O567 C569 1.353 . S
O568 U566 2.458 . S
O568 C569 1.286 . S
C569 U566 2.984 . S
C569 O567 1.353 . S
C569 O568 1.286 . S
C569 C571 1.363 . S
C570 C560 1.465 . S
C570 U566 2.847 . S
C570 O584 1.249 . S
C570 O585 1.202 . S
C571 C569 1.363 . S
C571 C573 1.408 . S
C571 C576 1.342 . S
C572 C573 1.310 . S
C572 C575 1.461 . S
C572 H592 0.932 . S
C573 C571 1.408 . S
C573 C572 1.310 . S
C573 H593 0.930 . S
C574 C575 1.474 . S
C574 C576 1.285 . S
C574 H594 0.929 . S
C575 C572 1.461 . S
C575 C574 1.474 . S
C576 C571 1.342 . S
C576 C574 1.285 . S
C576 H595 0.930 . S
C577 C580 1.424 . S
C577 C582 1.245 . S
C577 C583 1.428 . S
C578 C581 1.260 . S
C578 C582 1.477 . S
C578 H596 0.932 . S
C579 C580 1.384 . S
C579 C581 1.479 . S
C579 H597 0.929 . S
C580 C577 1.424 . S
C580 C579 1.384 . S
C580 H598 0.928 . S
C581 C578 1.260 . S
C581 C579 1.479 . S
C582 C577 1.245 . S
C582 C578 1.477 . S
C582 H599 0.932 . S
C583 U566 2.882 . S
C583 C577 1.428 . S
C583 O586 1.301 . S
C583 O587 1.282 . S
O584 U566 2.441 . S
O584 C570 1.249 . S
O585 U566 2.420 . S
O585 C570 1.202 . S
O586 U566 2.455 . S
O586 C583 1.301 . S
O587 U566 2.449 . S
O587 C583 1.282 . S
H588 C561 0.931 . S
H589 C563 0.929 . S
H590 C564 0.930 . S
H591 C565 0.931 . S
H592 C572 0.932 . S
H593 C573 0.930 . S
H594 C574 0.929 . S
H595 C576 0.930 . S
H596 C578 0.932 . S
H597 C579 0.929 . S
H598 C580 0.928 . S
H599 C582 0.932 . S
C600 C601 1.264 . S
C600 C605 1.479 . S
C600 C610 1.465 . S
C601 C600 1.264 . S
C601 C603 1.339 . S
C601 H628 0.931 . S
C602 C603 1.395 . S
C602 C604 1.320 . S
C603 C601 1.339 . S
C603 C602 1.395 . S
C603 H629 0.929 . S
C604 C602 1.320 . S
C604 C605 1.405 . S
C604 H630 0.930 . S
C605 C600 1.479 . S
C605 C604 1.405 . S
C605 H631 0.931 . S
U606 O607 2.454 . S
U606 O608 2.458 . S
U606 C609 2.984 . S
U606 C610 2.847 . S
U606 C623 2.882 . S
U606 O624 2.441 . S
U606 O625 2.420 . S
U606 O626 2.455 . S
U606 O627 2.449 . S
O607 U606 2.454 . S
O607 C609 1.353 . S
O608 U606 2.458 . S
O608 C609 1.286 . S
C609 U606 2.984 . S
C609 O607 1.353 . S
C609 O608 1.286 . S
C609 C611 1.363 . S
C610 C600 1.465 . S
C610 U606 2.847 . S
C610 O624 1.249 . S
C610 O625 1.202 . S
C611 C609 1.363 . S
C611 C613 1.408 . S
C611 C616 1.342 . S
C612 C613 1.310 . S
C612 C615 1.461 . S
C612 H632 0.932 . S
C613 C611 1.408 . S
C613 C612 1.310 . S
C613 H633 0.930 . S
C614 C615 1.474 . S
C614 C616 1.285 . S
C614 H634 0.929 . S
C615 C612 1.461 . S
C615 C614 1.474 . S
C616 C611 1.342 . S
C616 C614 1.285 . S
C616 H635 0.930 . S
C617 C620 1.424 . S
C617 C622 1.245 . S
C617 C623 1.428 . S
C618 C621 1.260 . S
C618 C622 1.477 . S
C618 H636 0.932 . S
C619 C620 1.384 . S
C619 C621 1.479 . S
C619 H637 0.929 . S
C620 C617 1.424 . S
C620 C619 1.384 . S
C620 H638 0.928 . S
C621 C618 1.260 . S
C621 C619 1.479 . S
C622 C617 1.245 . S
C622 C618 1.477 . S
C622 H639 0.932 . S
C623 U606 2.882 . S
C623 C617 1.428 . S
C623 O626 1.301 . S
C623 O627 1.282 . S
O624 U606 2.441 . S
O624 C610 1.249 . S
O625 U606 2.420 . S
O625 C610 1.202 . S
O626 U606 2.455 . S
O626 C623 1.301 . S
O627 U606 2.449 . S
O627 C623 1.282 . S
H628 C601 0.931 . S
H629 C603 0.929 . S
H630 C604 0.930 . S
H631 C605 0.931 . S
H632 C612 0.932 . S
H633 C613 0.930 . S
H634 C614 0.929 . S
H635 C616 0.930 . S
H636 C618 0.932 . S
H637 C619 0.929 . S
H638 C620 0.928 . S
H639 C622 0.932 . S
C640 C641 1.264 . S
C640 C645 1.479 . S
C640 C650 1.465 . S
C641 C640 1.264 . S
C641 C643 1.339 . S
C641 H668 0.931 . S
C642 C643 1.395 . S
C642 C644 1.320 . S
C643 C641 1.339 . S
C643 C642 1.395 . S
C643 H669 0.929 . S
C644 C642 1.320 . S
C644 C645 1.405 . S
C644 H670 0.930 . S
C645 C640 1.479 . S
C645 C644 1.405 . S
C645 H671 0.931 . S
U646 O647 2.454 1_565 S
U646 O648 2.458 1_565 S
U646 C649 2.984 1_565 S
U646 C650 2.847 . S
U646 C663 2.882 . S
U646 O664 2.441 . S
U646 O665 2.420 . S
U646 O666 2.455 . S
U646 O667 2.449 . S
O647 U646 2.454 1_545 S
O647 C649 1.353 . S
O648 U646 2.458 1_545 S
O648 C649 1.286 . S
C649 U646 2.984 1_545 S
C649 O647 1.353 . S
C649 O648 1.286 . S
C649 C651 1.363 . S
C650 C640 1.465 . S
C650 U646 2.847 . S
C650 O664 1.249 . S
C650 O665 1.202 . S
C651 C649 1.363 . S
C651 C653 1.408 . S
C651 C656 1.342 . S
C652 C653 1.310 . S
C652 C655 1.461 . S
C652 H672 0.932 . S
C653 C651 1.408 . S
C653 C652 1.310 . S
C653 H673 0.930 . S
C654 C655 1.474 . S
C654 C656 1.285 . S
C654 H674 0.929 . S
C655 C652 1.461 . S
C655 C654 1.474 . S
C656 C651 1.342 . S
C656 C654 1.285 . S
C656 H675 0.930 . S
C657 C660 1.424 . S
C657 C662 1.245 . S
C657 C663 1.428 . S
C658 C661 1.260 . S
C658 C662 1.477 . S
C658 H676 0.932 . S
C659 C660 1.384 . S
C659 C661 1.479 . S
C659 H677 0.929 . S
C660 C657 1.424 . S
C660 C659 1.384 . S
C660 H678 0.928 . S
C661 C658 1.260 . S
C661 C659 1.479 . S
C662 C657 1.245 . S
C662 C658 1.477 . S
C662 H679 0.932 . S
C663 U646 2.882 . S
C663 C657 1.428 . S
C663 O666 1.301 . S
C663 O667 1.282 . S
O664 U646 2.441 . S
O664 C650 1.249 . S
O665 U646 2.420 . S
O665 C650 1.202 . S
O666 U646 2.455 . S
O666 C663 1.301 . S
O667 U646 2.449 . S
O667 C663 1.282 . S
H668 C641 0.931 . S
H669 C643 0.929 . S
H670 C644 0.930 . S
H671 C645 0.931 . S
H672 C652 0.932 . S
H673 C653 0.930 . S
H674 C654 0.929 . S
H675 C656 0.930 . S
H676 C658 0.932 . S
H677 C659 0.929 . S
H678 C660 0.928 . S
H679 C662 0.932 . S
C680 C681 1.264 . S
C680 C685 1.479 . S
C680 C690 1.465 . S
C681 C680 1.264 . S
C681 C683 1.339 . S
C681 H708 0.931 . S
C682 C683 1.395 . S
C682 C684 1.320 . S
C683 C681 1.339 . S
C683 C682 1.395 . S
C683 H709 0.929 . S
C684 C682 1.320 . S
C684 C685 1.405 . S
C684 H710 0.930 . S
C685 C680 1.479 . S
C685 C684 1.405 . S
C685 H711 0.931 . S
U686 O687 2.454 . S
U686 O688 2.458 . S
U686 C689 2.984 . S
U686 C690 2.847 . S
U686 C703 2.882 . S
U686 O704 2.441 . S
U686 O705 2.420 . S
U686 O706 2.455 . S
U686 O707 2.449 . S
O687 U686 2.454 . S
O687 C689 1.353 . S
O688 U686 2.458 . S
O688 C689 1.286 . S
C689 U686 2.984 . S
C689 O687 1.353 . S
C689 O688 1.286 . S
C689 C691 1.363 . S
C690 C680 1.465 . S
C690 U686 2.847 . S
C690 O704 1.249 . S
C690 O705 1.202 . S
C691 C689 1.363 . S
C691 C693 1.408 . S
C691 C696 1.342 . S
C692 C693 1.310 . S
C692 C695 1.461 . S
C692 H712 0.932 . S
C693 C691 1.408 . S
C693 C692 1.310 . S
C693 H713 0.930 . S
C694 C695 1.474 . S
C694 C696 1.285 . S
C694 H714 0.929 . S
C695 C692 1.461 . S
C695 C694 1.474 . S
C696 C691 1.342 . S
C696 C694 1.285 . S
C696 H715 0.930 . S
C697 C700 1.424 . S
C697 C702 1.245 . S
C697 C703 1.428 . S
C698 C701 1.260 . S
C698 C702 1.477 . S
C698 H716 0.932 . S
C699 C700 1.384 . S
C699 C701 1.479 . S
C699 H717 0.929 . S
C700 C697 1.424 . S
C700 C699 1.384 . S
C700 H718 0.928 . S
C701 C698 1.260 . S
C701 C699 1.479 . S
C702 C697 1.245 . S
C702 C698 1.477 . S
C702 H719 0.932 . S
C703 U686 2.882 . S
C703 C697 1.428 . S
C703 O706 1.301 . S
C703 O707 1.282 . S
O704 U686 2.441 . S
O704 C690 1.249 . S
O705 U686 2.420 . S
O705 C690 1.202 . S
O706 U686 2.455 . S
O706 C703 1.301 . S
O707 U686 2.449 . S
O707 C703 1.282 . S
H708 C681 0.931 . S
H709 C683 0.929 . S
H710 C684 0.930 . S
H711 C685 0.931 . S
H712 C692 0.932 . S
H713 C693 0.930 . S
H714 C694 0.929 . S
H715 C696 0.930 . S
H716 C698 0.932 . S
H717 C699 0.929 . S
H718 C700 0.928 . S
H719 C702 0.932 . S
C720 C721 1.264 . S
C720 C725 1.479 . S
C720 C730 1.465 . S
C721 C720 1.264 . S
C721 C723 1.339 . S
C721 H748 0.931 . S
C722 C723 1.395 . S
C722 C724 1.320 . S
C723 C721 1.339 . S
C723 C722 1.395 . S
C723 H749 0.929 . S
C724 C722 1.320 . S
C724 C725 1.405 . S
C724 H750 0.930 . S
C725 C720 1.479 . S
C725 C724 1.405 . S
C725 H751 0.931 . S
U726 O727 2.454 1_545 S
U726 O728 2.458 1_545 S
U726 C729 2.984 1_545 S
U726 C730 2.847 . S
U726 C743 2.882 . S
U726 O744 2.441 . S
U726 O745 2.420 . S
U726 O746 2.455 . S
U726 O747 2.449 . S
O727 U726 2.454 1_565 S
O727 C729 1.353 . S
O728 U726 2.458 1_565 S
O728 C729 1.286 . S
C729 U726 2.984 1_565 S
C729 O727 1.353 . S
C729 O728 1.286 . S
C729 C731 1.363 . S
C730 C720 1.465 . S
C730 U726 2.847 . S
C730 O744 1.249 . S
C730 O745 1.202 . S
C731 C729 1.363 . S
C731 C733 1.408 . S
C731 C736 1.342 . S
C732 C733 1.310 . S
C732 C735 1.461 . S
C732 H752 0.932 . S
C733 C731 1.408 . S
C733 C732 1.310 . S
C733 H753 0.930 . S
C734 C735 1.474 . S
C734 C736 1.285 . S
C734 H754 0.929 . S
C735 C732 1.461 . S
C735 C734 1.474 . S
C736 C731 1.342 . S
C736 C734 1.285 . S
C736 H755 0.930 . S
C737 C740 1.424 . S
C737 C742 1.245 . S
C737 C743 1.428 . S
C738 C741 1.260 . S
C738 C742 1.477 . S
C738 H756 0.932 . S
C739 C740 1.384 . S
C739 C741 1.479 . S
C739 H757 0.929 . S
C740 C737 1.424 . S
C740 C739 1.384 . S
C740 H758 0.928 . S
C741 C738 1.260 . S
C741 C739 1.479 . S
C742 C737 1.245 . S
C742 C738 1.477 . S
C742 H759 0.932 . S
C743 U726 2.882 . S
C743 C737 1.428 . S
C743 O746 1.301 . S
C743 O747 1.282 . S
O744 U726 2.441 . S
O744 C730 1.249 . S
O745 U726 2.420 . S
O745 C730 1.202 . S
O746 U726 2.455 . S
O746 C743 1.301 . S
O747 U726 2.449 . S
O747 C743 1.282 . S
H748 C721 0.931 . S
H749 C723 0.929 . S
H750 C724 0.930 . S
H751 C725 0.931 . S
H752 C732 0.932 . S
H753 C733 0.930 . S
H754 C734 0.929 . S
H755 C736 0.930 . S
H756 C738 0.932 . S
H757 C739 0.929 . S
H758 C740 0.928 . S
H759 C742 0.932 . S
C760 C761 1.264 . S
C760 C765 1.479 . S
C760 C770 1.465 . S
C761 C760 1.264 . S
C761 C763 1.339 . S
C761 H788 0.931 . S
C762 C763 1.395 . S
C762 C764 1.320 . S
C763 C761 1.339 . S
C763 C762 1.395 . S
C763 H789 0.929 . S
C764 C762 1.320 . S
C764 C765 1.405 . S
C764 H790 0.930 . S
C765 C760 1.479 . S
C765 C764 1.405 . S
C765 H791 0.931 . S
U766 O767 2.454 . S
U766 O768 2.458 . S
U766 C769 2.984 . S
U766 C770 2.847 . S
U766 C783 2.882 . S
U766 O784 2.441 . S
U766 O785 2.420 . S
U766 O786 2.455 . S
U766 O787 2.449 . S
O767 U766 2.454 . S
O767 C769 1.353 . S
O768 U766 2.458 . S
O768 C769 1.286 . S
C769 U766 2.984 . S
C769 O767 1.353 . S
C769 O768 1.286 . S
C769 C771 1.363 . S
C770 C760 1.465 . S
C770 U766 2.847 . S
C770 O784 1.249 . S
C770 O785 1.202 . S
C771 C769 1.363 . S
C771 C773 1.408 . S
C771 C776 1.342 . S
C772 C773 1.310 . S
C772 C775 1.461 . S
C772 H792 0.932 . S
C773 C771 1.408 . S
C773 C772 1.310 . S
C773 H793 0.930 . S
C774 C775 1.474 . S
C774 C776 1.285 . S
C774 H794 0.929 . S
C775 C772 1.461 . S
C775 C774 1.474 . S
C776 C771 1.342 . S
C776 C774 1.285 . S
C776 H795 0.930 . S
C777 C780 1.424 . S
C777 C782 1.245 . S
C777 C783 1.428 . S
C778 C781 1.260 . S
C778 C782 1.477 . S
C778 H796 0.932 . S
C779 C780 1.384 . S
C779 C781 1.479 . S
C779 H797 0.929 . S
C780 C777 1.424 . S
C780 C779 1.384 . S
C780 H798 0.928 . S
C781 C778 1.260 . S
C781 C779 1.479 . S
C782 C777 1.245 . S
C782 C778 1.477 . S
C782 H799 0.932 . S
C783 U766 2.882 . S
C783 C777 1.428 . S
C783 O786 1.301 . S
C783 O787 1.282 . S
O784 U766 2.441 . S
O784 C770 1.249 . S
O785 U766 2.420 . S
O785 C770 1.202 . S
O786 U766 2.455 . S
O786 C783 1.301 . S
O787 U766 2.449 . S
O787 C783 1.282 . S
H788 C761 0.931 . S
H789 C763 0.929 . S
H790 C764 0.930 . S
H791 C765 0.931 . S
H792 C772 0.932 . S
H793 C773 0.930 . S
H794 C774 0.929 . S
H795 C776 0.930 . S
H796 C778 0.932 . S
H797 C779 0.929 . S
H798 C780 0.928 . S
H799 C782 0.932 . S
C800 C801 1.264 . S
C800 C805 1.479 . S
C800 C810 1.465 . S
C801 C800 1.264 . S
C801 C803 1.339 . S
C801 H828 0.931 . S
C802 C803 1.395 . S
C802 C804 1.320 . S
C803 C801 1.339 . S
C803 C802 1.395 . S
C803 H829 0.929 . S
C804 C802 1.320 . S
C804 C805 1.405 . S
C804 H830 0.930 . S
C805 C800 1.479 . S
C805 C804 1.405 . S
C805 H831 0.931 . S
U806 O807 2.454 1_545 S
U806 O808 2.458 1_545 S
U806 C809 2.984 1_545 S
U806 C810 2.847 . S
U806 C823 2.882 . S
U806 O824 2.441 . S
U806 O825 2.420 . S
U806 O826 2.455 . S
U806 O827 2.449 . S
O807 U806 2.454 1_565 S
O807 C809 1.353 . S
O808 U806 2.458 1_565 S
O808 C809 1.286 . S
C809 U806 2.984 1_565 S
C809 O807 1.353 . S
C809 O808 1.286 . S
C809 C811 1.363 . S
C810 C800 1.465 . S
C810 U806 2.847 . S
C810 O824 1.249 . S
C810 O825 1.202 . S
C811 C809 1.363 . S
C811 C813 1.408 . S
C811 C816 1.342 . S
C812 C813 1.310 . S
C812 C815 1.461 . S
C812 H832 0.932 . S
C813 C811 1.408 . S
C813 C812 1.310 . S
C813 H833 0.930 . S
C814 C815 1.474 . S
C814 C816 1.285 . S
C814 H834 0.929 . S
C815 C812 1.461 . S
C815 C814 1.474 . S
C816 C811 1.342 . S
C816 C814 1.285 . S
C816 H835 0.930 . S
C817 C820 1.424 . S
C817 C822 1.245 . S
C817 C823 1.428 . S
C818 C821 1.260 . S
C818 C822 1.477 . S
C818 H836 0.932 . S
C819 C820 1.384 . S
C819 C821 1.479 . S
C819 H837 0.929 . S
C820 C817 1.424 . S
C820 C819 1.384 . S
C820 H838 0.928 . S
C821 C818 1.260 . S
C821 C819 1.479 . S
C822 C817 1.245 . S
C822 C818 1.477 . S
C822 H839 0.932 . S
C823 U806 2.882 . S
C823 C817 1.428 . S
C823 O826 1.301 . S
C823 O827 1.282 . S
O824 U806 2.441 . S
O824 C810 1.249 . S
O825 U806 2.420 . S
O825 C810 1.202 . S
O826 U806 2.455 . S
O826 C823 1.301 . S
O827 U806 2.449 . S
O827 C823 1.282 . S
H828 C801 0.931 . S
H829 C803 0.929 . S
H830 C804 0.930 . S
H831 C805 0.931 . S
H832 C812 0.932 . S
H833 C813 0.930 . S
H834 C814 0.929 . S
H835 C816 0.930 . S
H836 C818 0.932 . S
H837 C819 0.929 . S
H838 C820 0.928 . S
H839 C822 0.932 . S
C840 C841 1.264 . S
C840 C845 1.479 . S
C840 C850 1.465 . S
C841 C840 1.264 . S
C841 C843 1.339 . S
C841 H868 0.931 . S
C842 C843 1.395 . S
C842 C844 1.320 . S
C843 C841 1.339 . S
C843 C842 1.395 . S
C843 H869 0.929 . S
C844 C842 1.320 . S
C844 C845 1.405 . S
C844 H870 0.930 . S
C845 C840 1.479 . S
C845 C844 1.405 . S
C845 H871 0.931 . S
U846 O847 2.454 . S
U846 O848 2.458 . S
U846 C849 2.984 . S
U846 C850 2.847 . S
U846 C863 2.882 . S
U846 O864 2.441 . S
U846 O865 2.420 . S
U846 O866 2.455 . S
U846 O867 2.449 . S
O847 U846 2.454 . S
O847 C849 1.353 . S
O848 U846 2.458 . S
O848 C849 1.286 . S
C849 U846 2.984 . S
C849 O847 1.353 . S
C849 O848 1.286 . S
C849 C851 1.363 . S
C850 C840 1.465 . S
C850 U846 2.847 . S
C850 O864 1.249 . S
C850 O865 1.202 . S
C851 C849 1.363 . S
C851 C853 1.408 . S
C851 C856 1.342 . S
C852 C853 1.310 . S
C852 C855 1.461 . S
C852 H872 0.932 . S
C853 C851 1.408 . S
C853 C852 1.310 . S
C853 H873 0.930 . S
C854 C855 1.474 . S
C854 C856 1.285 . S
C854 H874 0.929 . S
C855 C852 1.461 . S
C855 C854 1.474 . S
C856 C851 1.342 . S
C856 C854 1.285 . S
C856 H875 0.930 . S
C857 C860 1.424 . S
C857 C862 1.245 . S
C857 C863 1.428 . S
C858 C861 1.260 . S
C858 C862 1.477 . S
C858 H876 0.932 . S
C859 C860 1.384 . S
C859 C861 1.479 . S
C859 H877 0.929 . S
C860 C857 1.424 . S
C860 C859 1.384 . S
C860 H878 0.928 . S
C861 C858 1.260 . S
C861 C859 1.479 . S
C862 C857 1.245 . S
C862 C858 1.477 . S
C862 H879 0.932 . S
C863 U846 2.882 . S
C863 C857 1.428 . S
C863 O866 1.301 . S
C863 O867 1.282 . S
O864 U846 2.441 . S
O864 C850 1.249 . S
O865 U846 2.420 . S
O865 C850 1.202 . S
O866 U846 2.455 . S
O866 C863 1.301 . S
O867 U846 2.449 . S
O867 C863 1.282 . S
H868 C841 0.931 . S
H869 C843 0.929 . S
H870 C844 0.930 . S
H871 C845 0.931 . S
H872 C852 0.932 . S
H873 C853 0.930 . S
H874 C854 0.929 . S
H875 C856 0.930 . S
H876 C858 0.932 . S
H877 C859 0.929 . S
H878 C860 0.928 . S
H879 C862 0.932 . S
C880 C881 1.264 . S
C880 C885 1.479 . S
C880 C890 1.465 . S
C881 C880 1.264 . S
C881 C883 1.339 . S
C881 H908 0.931 . S
C882 C883 1.395 . S
C882 C884 1.320 . S
C883 C881 1.339 . S
C883 C882 1.395 . S
C883 H909 0.929 . S
C884 C882 1.320 . S
C884 C885 1.405 . S
C884 H910 0.930 . S
C885 C880 1.479 . S
C885 C884 1.405 . S
C885 H911 0.931 . S
U886 O887 2.454 1_565 S
U886 O888 2.458 1_565 S
U886 C889 2.984 1_565 S
U886 C890 2.847 . S
U886 C903 2.882 . S
U886 O904 2.441 . S
U886 O905 2.420 . S
U886 O906 2.455 . S
U886 O907 2.449 . S
O887 U886 2.454 1_545 S
O887 C889 1.353 . S
O888 U886 2.458 1_545 S
O888 C889 1.286 . S
C889 U886 2.984 1_545 S
C889 O887 1.353 . S
C889 O888 1.286 . S
C889 C891 1.363 . S
C890 C880 1.465 . S
C890 U886 2.847 . S
C890 O904 1.249 . S
C890 O905 1.202 . S
C891 C889 1.363 . S
C891 C893 1.408 . S
C891 C896 1.342 . S
C892 C893 1.310 . S
C892 C895 1.461 . S
C892 H912 0.932 . S
C893 C891 1.408 . S
C893 C892 1.310 . S
C893 H913 0.930 . S
C894 C895 1.474 . S
C894 C896 1.285 . S
C894 H914 0.929 . S
C895 C892 1.461 . S
C895 C894 1.474 . S
C896 C891 1.342 . S
C896 C894 1.285 . S
C896 H915 0.930 . S
C897 C900 1.424 . S
C897 C902 1.245 . S
C897 C903 1.428 . S
C898 C901 1.260 . S
C898 C902 1.477 . S
C898 H916 0.932 . S
C899 C900 1.384 . S
C899 C901 1.479 . S
C899 H917 0.929 . S
C900 C897 1.424 . S
C900 C899 1.384 . S
C900 H918 0.928 . S
C901 C898 1.260 . S
C901 C899 1.479 . S
C902 C897 1.245 . S
C902 C898 1.477 . S
C902 H919 0.932 . S
C903 U886 2.882 . S
C903 C897 1.428 . S
C903 O906 1.301 . S
C903 O907 1.282 . S
O904 U886 2.441 . S
O904 C890 1.249 . S
O905 U886 2.420 . S
O905 C890 1.202 . S
O906 U886 2.455 . S
O906 C903 1.301 . S
O907 U886 2.449 . S
O907 C903 1.282 . S
H908 C881 0.931 . S
H909 C883 0.929 . S
H910 C884 0.930 . S
H911 C885 0.931 . S
H912 C892 0.932 . S
H913 C893 0.930 . S
H914 C894 0.929 . S
H915 C896 0.930 . S
H916 C898 0.932 . S
H917 C899 0.929 . S
H918 C900 0.928 . S
H919 C902 0.932 . S
C920 C921 1.264 . S
C920 C925 1.479 . S
C920 C930 1.465 . S
C921 C920 1.264 . S
C921 C923 1.339 . S
C921 H948 0.931 . S
C922 C923 1.395 . S
C922 C924 1.320 . S
C923 C921 1.339 . S
C923 C922 1.395 . S
C923 H949 0.929 . S
C924 C922 1.320 . S
C924 C925 1.405 . S
C924 H950 0.930 . S
C925 C920 1.479 . S
C925 C924 1.405 . S
C925 H951 0.931 . S
U926 O927 2.454 . S
U926 O928 2.458 . S
U926 C929 2.984 . S
U926 C930 2.847 . S
U926 C943 2.882 . S
U926 O944 2.441 . S
U926 O945 2.420 . S
U926 O946 2.455 . S
U926 O947 2.449 . S
O927 U926 2.454 . S
O927 C929 1.353 . S
O928 U926 2.458 . S
O928 C929 1.286 . S
C929 U926 2.984 . S
C929 O927 1.353 . S
C929 O928 1.286 . S
C929 C931 1.363 . S
C930 C920 1.465 . S
C930 U926 2.847 . S
C930 O944 1.249 . S
C930 O945 1.202 . S
C931 C929 1.363 . S
C931 C933 1.408 . S
C931 C936 1.342 . S
C932 C933 1.310 . S
C932 C935 1.461 . S
C932 H952 0.932 . S
C933 C931 1.408 . S
C933 C932 1.310 . S
C933 H953 0.930 . S
C934 C935 1.474 . S
C934 C936 1.285 . S
C934 H954 0.929 . S
C935 C932 1.461 . S
C935 C934 1.474 . S
C936 C931 1.342 . S
C936 C934 1.285 . S
C936 H955 0.930 . S
C937 C940 1.424 . S
C937 C942 1.245 . S
C937 C943 1.428 . S
C938 C941 1.260 . S
C938 C942 1.477 . S
C938 H956 0.932 . S
C939 C940 1.384 . S
C939 C941 1.479 . S
C939 H957 0.929 . S
C940 C937 1.424 . S
C940 C939 1.384 . S
C940 H958 0.928 . S
C941 C938 1.260 . S
C941 C939 1.479 . S
C942 C937 1.245 . S
C942 C938 1.477 . S
C942 H959 0.932 . S
C943 U926 2.882 . S
C943 C937 1.428 . S
C943 O946 1.301 . S
C943 O947 1.282 . S
O944 U926 2.441 . S
O944 C930 1.249 . S
O945 U926 2.420 . S
O945 C930 1.202 . S
O946 U926 2.455 . S
O946 C943 1.301 . S
O947 U926 2.449 . S
O947 C943 1.282 . S
H948 C921 0.931 . S
H949 C923 0.929 . S
H950 C924 0.930 . S
H951 C925 0.931 . S
H952 C932 0.932 . S
H953 C933 0.930 . S
H954 C934 0.929 . S
H955 C936 0.930 . S
H956 C938 0.932 . S
H957 C939 0.929 . S
H958 C940 0.928 . S
H959 C942 0.932 . S
C960 C961 1.290 . S
C960 C965 1.476 . S
C960 C970 1.441 1_545 S
C961 C960 1.290 . S
C961 C963 1.339 . S
C961 H988 0.931 . S
C962 C963 1.395 . S
C962 C964 1.320 . S
C963 C961 1.339 . S
C963 C962 1.395 . S
C963 H989 0.929 . S
C964 C962 1.320 . S
C964 C965 1.402 . S
C964 H990 0.930 . S
C965 C960 1.476 . S
C965 C964 1.402 . S
C965 H991 0.934 1_545 S
U966 O967 2.454 . S
U966 O968 2.458 . S
U966 C969 2.984 . S
U966 C970 2.847 . S
U966 C983 2.882 . S
U966 O984 2.441 . S
U966 O985 2.420 . S
U966 O986 2.455 . S
U966 O987 2.449 . S
O967 U966 2.454 . S
O967 C969 1.353 . S
O968 U966 2.458 . S
O968 C969 1.286 . S
C969 U966 2.984 . S
C969 O967 1.353 . S
C969 O968 1.286 . S
C969 C971 1.363 . S
C970 C960 1.441 1_565 S
C970 U966 2.847 . S
C970 O984 1.249 . S
C970 O985 1.202 . S
C971 C969 1.363 . S
C971 C973 1.408 . S
C971 C976 1.342 . S
C972 C973 1.310 . S
C972 C975 1.461 . S
C972 H992 0.932 . S
C973 C971 1.408 . S
C973 C972 1.310 . S
C973 H993 0.930 . S
C974 C975 1.474 . S
C974 C976 1.285 . S
C974 H994 0.929 . S
C975 C972 1.461 . S
C975 C974 1.474 . S
C976 C971 1.342 . S
C976 C974 1.285 . S
C976 H995 0.930 . S
C977 C980 1.419 . S
C977 C982 1.245 1_545 S
C977 C983 1.431 1_545 S
C978 C981 1.260 . S
C978 C982 1.471 1_545 S
C978 H996 0.932 . S
C979 C980 1.384 . S
C979 C981 1.479 . S
C979 H997 0.929 . S
C980 C977 1.419 . S
C980 C979 1.384 . S
C980 H998 0.928 . S
C981 C978 1.260 . S
C981 C979 1.479 . S
C982 C977 1.245 1_565 S
C982 C978 1.471 1_565 S
C982 H999 0.938 . S
C983 U966 2.882 . S
C983 C977 1.431 1_565 S
C983 O986 1.301 . S
C983 O987 1.282 . S
O984 U966 2.441 . S
O984 C970 1.249 . S
O985 U966 2.420 . S
O985 C970 1.202 . S
O986 U966 2.455 . S
O986 C983 1.301 . S
O987 U966 2.449 . S
O987 C983 1.282 . S
H988 C961 0.931 . S
H989 C963 0.929 . S
H990 C964 0.930 . S
H991 C965 0.934 1_565 S
H992 C972 0.932 . S
H993 C973 0.930 . S
H994 C974 0.929 . S
H995 C976 0.930 . S
H996 C978 0.932 . S
H997 C979 0.929 . S
H998 C980 0.928 . S
H999 C982 0.938 . S
C1000 C1001 1.264 . S
C1000 C1005 1.479 . S
C1000 C1010 1.465 . S
C1001 C1000 1.264 . S
C1001 C1003 1.339 . S
C1001 H1028 0.931 . S
C1002 C1003 1.395 . S
C1002 C1004 1.320 . S
C1003 C1001 1.339 . S
C1003 C1002 1.395 . S
C1003 H1029 0.929 . S
C1004 C1002 1.320 . S
C1004 C1005 1.405 . S
C1004 H1030 0.930 . S
C1005 C1000 1.479 . S
C1005 C1004 1.405 . S
C1005 H1031 0.931 . S
U1006 O1007 2.454 . S
U1006 O1008 2.458 . S
U1006 C1009 2.984 . S
U1006 C1010 2.847 . S
U1006 C1023 2.882 . S
U1006 O1024 2.441 . S
U1006 O1025 2.420 . S
U1006 O1026 2.455 . S
U1006 O1027 2.449 . S
O1007 U1006 2.454 . S
O1007 C1009 1.353 . S
O1008 U1006 2.458 . S
O1008 C1009 1.286 . S
C1009 U1006 2.984 . S
C1009 O1007 1.353 . S
C1009 O1008 1.286 . S
C1009 C1011 1.363 . S
C1010 C1000 1.465 . S
C1010 U1006 2.847 . S
C1010 O1024 1.249 . S
C1010 O1025 1.202 . S
C1011 C1009 1.363 . S
C1011 C1013 1.408 . S
C1011 C1016 1.342 . S
C1012 C1013 1.310 . S
C1012 C1015 1.461 . S
C1012 H1032 0.932 . S
C1013 C1011 1.408 . S
C1013 C1012 1.310 . S
C1013 H1033 0.930 . S
C1014 C1015 1.474 . S
C1014 C1016 1.285 . S
C1014 H1034 0.929 . S
C1015 C1012 1.461 . S
C1015 C1014 1.474 . S
C1016 C1011 1.342 . S
C1016 C1014 1.285 . S
C1016 H1035 0.930 . S
C1017 C1020 1.424 . S
C1017 C1022 1.245 . S
C1017 C1023 1.428 . S
C1018 C1021 1.260 . S
C1018 C1022 1.477 . S
C1018 H1036 0.932 . S
C1019 C1020 1.384 . S
C1019 C1021 1.479 . S
C1019 H1037 0.929 . S
C1020 C1017 1.424 . S
C1020 C1019 1.384 . S
C1020 H1038 0.928 . S
C1021 C1018 1.260 . S
C1021 C1019 1.479 . S
C1022 C1017 1.245 . S
C1022 C1018 1.477 . S
C1022 H1039 0.932 . S
C1023 U1006 2.882 . S
C1023 C1017 1.428 . S
C1023 O1026 1.301 . S
C1023 O1027 1.282 . S
O1024 U1006 2.441 . S
O1024 C1010 1.249 . S
O1025 U1006 2.420 . S
O1025 C1010 1.202 . S
O1026 U1006 2.455 . S
O1026 C1023 1.301 . S
O1027 U1006 2.449 . S
O1027 C1023 1.282 . S
H1028 C1001 0.931 . S
H1029 C1003 0.929 . S
H1030 C1004 0.930 . S
H1031 C1005 0.931 . S
H1032 C1012 0.932 . S
H1033 C1013 0.930 . S
H1034 C1014 0.929 . S
H1035 C1016 0.930 . S
H1036 C1018 0.932 . S
H1037 C1019 0.929 . S
H1038 C1020 0.928 . S
H1039 C1022 0.932 . S
C1040 C1041 1.290 . S
C1040 C1045 1.476 . S
C1040 C1050 1.441 1_565 S
C1041 C1040 1.290 . S
C1041 C1043 1.339 . S
C1041 H1068 0.931 . S
C1042 C1043 1.395 . S
C1042 C1044 1.320 . S
C1043 C1041 1.339 . S
C1043 C1042 1.395 . S
C1043 H1069 0.929 . S
C1044 C1042 1.320 . S
C1044 C1045 1.402 . S
C1044 H1070 0.930 . S
C1045 C1040 1.476 . S
C1045 C1044 1.402 . S
C1045 H1071 0.934 1_565 S
U1046 O1047 2.454 . S
U1046 O1048 2.458 . S
U1046 C1049 2.984 . S
U1046 C1050 2.847 . S
U1046 C1063 2.882 . S
U1046 O1064 2.441 . S
U1046 O1065 2.420 . S
U1046 O1066 2.455 . S
U1046 O1067 2.449 . S
O1047 U1046 2.454 . S
O1047 C1049 1.353 . S
O1048 U1046 2.458 . S
O1048 C1049 1.286 . S
C1049 U1046 2.984 . S
C1049 O1047 1.353 . S
C1049 O1048 1.286 . S
C1049 C1051 1.363 . S
C1050 C1040 1.441 1_545 S
C1050 U1046 2.847 . S
C1050 O1064 1.249 . S
C1050 O1065 1.202 . S
C1051 C1049 1.363 . S
C1051 C1053 1.408 . S
C1051 C1056 1.342 . S
C1052 C1053 1.310 . S
C1052 C1055 1.461 . S
C1052 H1072 0.932 . S
C1053 C1051 1.408 . S
C1053 C1052 1.310 . S
C1053 H1073 0.930 . S
C1054 C1055 1.474 . S
C1054 C1056 1.285 . S
C1054 H1074 0.929 . S
C1055 C1052 1.461 . S
C1055 C1054 1.474 . S
C1056 C1051 1.342 . S
C1056 C1054 1.285 . S
C1056 H1075 0.930 . S
C1057 C1060 1.419 . S
C1057 C1062 1.245 1_565 S
C1057 C1063 1.431 1_565 S
C1058 C1061 1.260 . S
C1058 C1062 1.471 1_565 S
C1058 H1076 0.932 . S
C1059 C1060 1.384 . S
C1059 C1061 1.479 . S
C1059 H1077 0.929 . S
C1060 C1057 1.419 . S
C1060 C1059 1.384 . S
C1060 H1078 0.928 . S
C1061 C1058 1.260 . S
C1061 C1059 1.479 . S
C1062 C1057 1.245 1_545 S
C1062 C1058 1.471 1_545 S
C1062 H1079 0.938 . S
C1063 U1046 2.882 . S
C1063 C1057 1.431 1_545 S
C1063 O1066 1.301 . S
C1063 O1067 1.282 . S
O1064 U1046 2.441 . S
O1064 C1050 1.249 . S
O1065 U1046 2.420 . S
O1065 C1050 1.202 . S
O1066 U1046 2.455 . S
O1066 C1063 1.301 . S
O1067 U1046 2.449 . S
O1067 C1063 1.282 . S
H1068 C1041 0.931 . S
H1069 C1043 0.929 . S
H1070 C1044 0.930 . S
H1071 C1045 0.934 1_545 S
H1072 C1052 0.932 . S
H1073 C1053 0.930 . S
H1074 C1054 0.929 . S
H1075 C1056 0.930 . S
H1076 C1058 0.932 . S
H1077 C1059 0.929 . S
H1078 C1060 0.928 . S
H1079 C1062 0.938 . S
C1080 C1081 1.264 . S
C1080 C1085 1.479 . S
C1080 C1090 1.465 . S
C1081 C1080 1.264 . S
C1081 C1083 1.339 . S
C1081 H1108 0.931 . S
C1082 C1083 1.395 . S
C1082 C1084 1.320 . S
C1083 C1081 1.339 . S
C1083 C1082 1.395 . S
C1083 H1109 0.929 . S
C1084 C1082 1.320 . S
C1084 C1085 1.405 . S
C1084 H1110 0.930 . S
C1085 C1080 1.479 . S
C1085 C1084 1.405 . S
C1085 H1111 0.931 . S
U1086 O1087 2.454 . S
U1086 O1088 2.458 . S
U1086 C1089 2.984 . S
U1086 C1090 2.847 . S
U1086 C1103 2.882 . S
U1086 O1104 2.441 . S
U1086 O1105 2.420 . S
U1086 O1106 2.455 . S
U1086 O1107 2.449 . S
O1087 U1086 2.454 . S
O1087 C1089 1.353 . S
O1088 U1086 2.458 . S
O1088 C1089 1.286 . S
C1089 U1086 2.984 . S
C1089 O1087 1.353 . S
C1089 O1088 1.286 . S
C1089 C1091 1.363 . S
C1090 C1080 1.465 . S
C1090 U1086 2.847 . S
C1090 O1104 1.249 . S
C1090 O1105 1.202 . S
C1091 C1089 1.363 . S
C1091 C1093 1.408 . S
C1091 C1096 1.342 . S
C1092 C1093 1.310 . S
C1092 C1095 1.461 . S
C1092 H1112 0.932 . S
C1093 C1091 1.408 . S
C1093 C1092 1.310 . S
C1093 H1113 0.930 . S
C1094 C1095 1.474 . S
C1094 C1096 1.285 . S
C1094 H1114 0.929 . S
C1095 C1092 1.461 . S
C1095 C1094 1.474 . S
C1096 C1091 1.342 . S
C1096 C1094 1.285 . S
C1096 H1115 0.930 . S
C1097 C1100 1.424 . S
C1097 C1102 1.245 . S
C1097 C1103 1.428 . S
C1098 C1101 1.260 . S
C1098 C1102 1.477 . S
C1098 H1116 0.932 . S
C1099 C1100 1.384 . S
C1099 C1101 1.479 . S
C1099 H1117 0.929 . S
C1100 C1097 1.424 . S
C1100 C1099 1.384 . S
C1100 H1118 0.928 . S
C1101 C1098 1.260 . S
C1101 C1099 1.479 . S
C1102 C1097 1.245 . S
C1102 C1098 1.477 . S
C1102 H1119 0.932 . S
C1103 U1086 2.882 . S
C1103 C1097 1.428 . S
C1103 O1106 1.301 . S
C1103 O1107 1.282 . S
O1104 U1086 2.441 . S
O1104 C1090 1.249 . S
O1105 U1086 2.420 . S
O1105 C1090 1.202 . S
O1106 U1086 2.455 . S
O1106 C1103 1.301 . S
O1107 U1086 2.449 . S
O1107 C1103 1.282 . S
H1108 C1081 0.931 . S
H1109 C1083 0.929 . S
H1110 C1084 0.930 . S
H1111 C1085 0.931 . S
H1112 C1092 0.932 . S
H1113 C1093 0.930 . S
H1114 C1094 0.929 . S
H1115 C1096 0.930 . S
H1116 C1098 0.932 . S
H1117 C1099 0.929 . S
H1118 C1100 0.928 . S
H1119 C1102 0.932 . S
C1120 C1121 1.290 . S
C1120 C1125 1.476 . S
C1120 C1130 1.441 1_565 S
C1121 C1120 1.290 . S
C1121 C1123 1.339 . S
C1121 H1148 0.931 . S
C1122 C1123 1.395 . S
C1122 C1124 1.320 . S
C1123 C1121 1.339 . S
C1123 C1122 1.395 . S
C1123 H1149 0.929 . S
C1124 C1122 1.320 . S
C1124 C1125 1.402 . S
C1124 H1150 0.930 . S
C1125 C1120 1.476 . S
C1125 C1124 1.402 . S
C1125 H1151 0.934 1_565 S
U1126 O1127 2.454 . S
U1126 O1128 2.458 . S
U1126 C1129 2.984 . S
U1126 C1130 2.847 . S
U1126 C1143 2.882 . S
U1126 O1144 2.441 . S
U1126 O1145 2.420 . S
U1126 O1146 2.455 . S
U1126 O1147 2.449 . S
O1127 U1126 2.454 . S
O1127 C1129 1.353 . S
O1128 U1126 2.458 . S
O1128 C1129 1.286 . S
C1129 U1126 2.984 . S
C1129 O1127 1.353 . S
C1129 O1128 1.286 . S
C1129 C1131 1.363 . S
C1130 C1120 1.441 1_545 S
C1130 U1126 2.847 . S
C1130 O1144 1.249 . S
C1130 O1145 1.202 . S
C1131 C1129 1.363 . S
C1131 C1133 1.408 . S
C1131 C1136 1.342 . S
C1132 C1133 1.310 . S
C1132 C1135 1.461 . S
C1132 H1152 0.932 . S
C1133 C1131 1.408 . S
C1133 C1132 1.310 . S
C1133 H1153 0.930 . S
C1134 C1135 1.474 . S
C1134 C1136 1.285 . S
C1134 H1154 0.929 . S
C1135 C1132 1.461 . S
C1135 C1134 1.474 . S
C1136 C1131 1.342 . S
C1136 C1134 1.285 . S
C1136 H1155 0.930 . S
C1137 C1140 1.419 . S
C1137 C1142 1.245 1_565 S
C1137 C1143 1.431 1_565 S
C1138 C1141 1.260 . S
C1138 C1142 1.471 1_565 S
C1138 H1156 0.932 . S
C1139 C1140 1.384 . S
C1139 C1141 1.479 . S
C1139 H1157 0.929 . S
C1140 C1137 1.419 . S
C1140 C1139 1.384 . S
C1140 H1158 0.928 . S
C1141 C1138 1.260 . S
C1141 C1139 1.479 . S
C1142 C1137 1.245 1_545 S
C1142 C1138 1.471 1_545 S
C1142 H1159 0.938 . S
C1143 U1126 2.882 . S
C1143 C1137 1.431 1_545 S
C1143 O1146 1.301 . S
C1143 O1147 1.282 . S
O1144 U1126 2.441 . S
O1144 C1130 1.249 . S
O1145 U1126 2.420 . S
O1145 C1130 1.202 . S
O1146 U1126 2.455 . S
O1146 C1143 1.301 . S
O1147 U1126 2.449 . S
O1147 C1143 1.282 . S
H1148 C1121 0.931 . S
H1149 C1123 0.929 . S
H1150 C1124 0.930 . S
H1151 C1125 0.934 1_545 S
H1152 C1132 0.932 . S
H1153 C1133 0.930 . S
H1154 C1134 0.929 . S
H1155 C1136 0.930 . S
H1156 C1138 0.932 . S
H1157 C1139 0.929 . S
H1158 C1140 0.928 . S
H1159 C1142 0.938 . S
C1160 C1161 1.264 . S
C1160 C1165 1.479 . S
C1160 C1170 1.465 . S
C1161 C1160 1.264 . S
C1161 C1163 1.339 . S
C1161 H1188 0.931 . S
C1162 C1163 1.395 . S
C1162 C1164 1.320 . S
C1163 C1161 1.339 . S
C1163 C1162 1.395 . S
C1163 H1189 0.929 . S
C1164 C1162 1.320 . S
C1164 C1165 1.405 . S
C1164 H1190 0.930 . S
C1165 C1160 1.479 . S
C1165 C1164 1.405 . S
C1165 H1191 0.931 . S
U1166 O1167 2.454 . S
U1166 O1168 2.458 . S
U1166 C1169 2.984 . S
U1166 C1170 2.847 . S
U1166 C1183 2.882 . S
U1166 O1184 2.441 . S
U1166 O1185 2.420 . S
U1166 O1186 2.455 . S
U1166 O1187 2.449 . S
O1167 U1166 2.454 . S
O1167 C1169 1.353 . S
O1168 U1166 2.458 . S
O1168 C1169 1.286 . S
C1169 U1166 2.984 . S
C1169 O1167 1.353 . S
C1169 O1168 1.286 . S
C1169 C1171 1.363 . S
C1170 C1160 1.465 . S
C1170 U1166 2.847 . S
C1170 O1184 1.249 . S
C1170 O1185 1.202 . S
C1171 C1169 1.363 . S
C1171 C1173 1.408 . S
C1171 C1176 1.342 . S
C1172 C1173 1.310 . S
C1172 C1175 1.461 . S
C1172 H1192 0.932 . S
C1173 C1171 1.408 . S
C1173 C1172 1.310 . S
C1173 H1193 0.930 . S
C1174 C1175 1.474 . S
C1174 C1176 1.285 . S
C1174 H1194 0.929 . S
C1175 C1172 1.461 . S
C1175 C1174 1.474 . S
C1176 C1171 1.342 . S
C1176 C1174 1.285 . S
C1176 H1195 0.930 . S
C1177 C1180 1.424 . S
C1177 C1182 1.245 . S
C1177 C1183 1.428 . S
C1178 C1181 1.260 . S
C1178 C1182 1.477 . S
C1178 H1196 0.932 . S
C1179 C1180 1.384 . S
C1179 C1181 1.479 . S
C1179 H1197 0.929 . S
C1180 C1177 1.424 . S
C1180 C1179 1.384 . S
C1180 H1198 0.928 . S
C1181 C1178 1.260 . S
C1181 C1179 1.479 . S
C1182 C1177 1.245 . S
C1182 C1178 1.477 . S
C1182 H1199 0.932 . S
C1183 U1166 2.882 . S
C1183 C1177 1.428 . S
C1183 O1186 1.301 . S
C1183 O1187 1.282 . S
O1184 U1166 2.441 . S
O1184 C1170 1.249 . S
O1185 U1166 2.420 . S
O1185 C1170 1.202 . S
O1186 U1166 2.455 . S
O1186 C1183 1.301 . S
O1187 U1166 2.449 . S
O1187 C1183 1.282 . S
H1188 C1161 0.931 . S
H1189 C1163 0.929 . S
H1190 C1164 0.930 . S
H1191 C1165 0.931 . S
H1192 C1172 0.932 . S
H1193 C1173 0.930 . S
H1194 C1174 0.929 . S
H1195 C1176 0.930 . S
H1196 C1178 0.932 . S
H1197 C1179 0.929 . S
H1198 C1180 0.928 . S
H1199 C1182 0.932 . S
C1200 C1201 1.290 . S
C1200 C1205 1.476 . S
C1200 C1210 1.441 1_545 S
C1201 C1200 1.290 . S
C1201 C1203 1.339 . S
C1201 H1228 0.931 . S
C1202 C1203 1.395 . S
C1202 C1204 1.320 . S
C1203 C1201 1.339 . S
C1203 C1202 1.395 . S
C1203 H1229 0.929 . S
C1204 C1202 1.320 . S
C1204 C1205 1.402 . S
C1204 H1230 0.930 . S
C1205 C1200 1.476 . S
C1205 C1204 1.402 . S
C1205 H1231 0.934 1_545 S
U1206 O1207 2.454 . S
U1206 O1208 2.458 . S
U1206 C1209 2.984 . S
U1206 C1210 2.847 . S
U1206 C1223 2.882 . S
U1206 O1224 2.441 . S
U1206 O1225 2.420 . S
U1206 O1226 2.455 . S
U1206 O1227 2.449 . S
O1207 U1206 2.454 . S
O1207 C1209 1.353 . S
O1208 U1206 2.458 . S
O1208 C1209 1.286 . S
C1209 U1206 2.984 . S
C1209 O1207 1.353 . S
C1209 O1208 1.286 . S
C1209 C1211 1.363 . S
C1210 C1200 1.441 1_565 S
C1210 U1206 2.847 . S
C1210 O1224 1.249 . S
C1210 O1225 1.202 . S
C1211 C1209 1.363 . S
C1211 C1213 1.408 . S
C1211 C1216 1.342 . S
C1212 C1213 1.310 . S
C1212 C1215 1.461 . S
C1212 H1232 0.932 . S
C1213 C1211 1.408 . S
C1213 C1212 1.310 . S
C1213 H1233 0.930 . S
C1214 C1215 1.474 . S
C1214 C1216 1.285 . S
C1214 H1234 0.929 . S
C1215 C1212 1.461 . S
C1215 C1214 1.474 . S
C1216 C1211 1.342 . S
C1216 C1214 1.285 . S
C1216 H1235 0.930 . S
C1217 C1220 1.419 . S
C1217 C1222 1.245 1_545 S
C1217 C1223 1.431 1_545 S
C1218 C1221 1.260 . S
C1218 C1222 1.471 1_545 S
C1218 H1236 0.932 . S
C1219 C1220 1.384 . S
C1219 C1221 1.479 . S
C1219 H1237 0.929 . S
C1220 C1217 1.419 . S
C1220 C1219 1.384 . S
C1220 H1238 0.928 . S
C1221 C1218 1.260 . S
C1221 C1219 1.479 . S
C1222 C1217 1.245 1_565 S
C1222 C1218 1.471 1_565 S
C1222 H1239 0.938 . S
C1223 U1206 2.882 . S
C1223 C1217 1.431 1_565 S
C1223 O1226 1.301 . S
C1223 O1227 1.282 . S
O1224 U1206 2.441 . S
O1224 C1210 1.249 . S
O1225 U1206 2.420 . S
O1225 C1210 1.202 . S
O1226 U1206 2.455 . S
O1226 C1223 1.301 . S
O1227 U1206 2.449 . S
O1227 C1223 1.282 . S
H1228 C1201 0.931 . S
H1229 C1203 0.929 . S
H1230 C1204 0.930 . S
H1231 C1205 0.934 1_565 S
H1232 C1212 0.932 . S
H1233 C1213 0.930 . S
H1234 C1214 0.929 . S
H1235 C1216 0.930 . S
H1236 C1218 0.932 . S
H1237 C1219 0.929 . S
H1238 C1220 0.928 . S
H1239 C1222 0.938 . S
C1240 C1241 1.264 . S
C1240 C1245 1.479 . S
C1240 C1250 1.465 . S
C1241 C1240 1.264 . S
C1241 C1243 1.339 . S
C1241 H1268 0.931 . S
C1242 C1243 1.395 . S
C1242 C1244 1.320 . S
C1243 C1241 1.339 . S
C1243 C1242 1.395 . S
C1243 H1269 0.929 . S
C1244 C1242 1.320 . S
C1244 C1245 1.405 . S
C1244 H1270 0.930 . S
C1245 C1240 1.479 . S
C1245 C1244 1.405 . S
C1245 H1271 0.931 . S
U1246 O1247 2.454 . S
U1246 O1248 2.458 . S
U1246 C1249 2.984 . S
U1246 C1250 2.847 . S
U1246 C1263 2.882 . S
U1246 O1264 2.441 . S
U1246 O1265 2.420 . S
U1246 O1266 2.455 . S
U1246 O1267 2.449 . S
O1247 U1246 2.454 . S
O1247 C1249 1.353 . S
O1248 U1246 2.458 . S
O1248 C1249 1.286 . S
C1249 U1246 2.984 . S
C1249 O1247 1.353 . S
C1249 O1248 1.286 . S
C1249 C1251 1.363 . S
C1250 C1240 1.465 . S
C1250 U1246 2.847 . S
C1250 O1264 1.249 . S
C1250 O1265 1.202 . S
C1251 C1249 1.363 . S
C1251 C1253 1.408 . S
C1251 C1256 1.342 . S
C1252 C1253 1.310 . S
C1252 C1255 1.461 . S
C1252 H1272 0.932 . S
C1253 C1251 1.408 . S
C1253 C1252 1.310 . S
C1253 H1273 0.930 . S
C1254 C1255 1.474 . S
C1254 C1256 1.285 . S
C1254 H1274 0.929 . S
C1255 C1252 1.461 . S
C1255 C1254 1.474 . S
C1256 C1251 1.342 . S
C1256 C1254 1.285 . S
C1256 H1275 0.930 . S
C1257 C1260 1.424 . S
C1257 C1262 1.245 . S
C1257 C1263 1.428 . S
C1258 C1261 1.260 . S
C1258 C1262 1.477 . S
C1258 H1276 0.932 . S
C1259 C1260 1.384 . S
C1259 C1261 1.479 . S
C1259 H1277 0.929 . S
C1260 C1257 1.424 . S
C1260 C1259 1.384 . S
C1260 H1278 0.928 . S
C1261 C1258 1.260 . S
C1261 C1259 1.479 . S
C1262 C1257 1.245 . S
C1262 C1258 1.477 . S
C1262 H1279 0.932 . S
C1263 U1246 2.882 . S
C1263 C1257 1.428 . S
C1263 O1266 1.301 . S
C1263 O1267 1.282 . S
O1264 U1246 2.441 . S
O1264 C1250 1.249 . S
O1265 U1246 2.420 . S
O1265 C1250 1.202 . S
O1266 U1246 2.455 . S
O1266 C1263 1.301 . S
O1267 U1246 2.449 . S
O1267 C1263 1.282 . S
H1268 C1241 0.931 . S
H1269 C1243 0.929 . S
H1270 C1244 0.930 . S
H1271 C1245 0.931 . S
H1272 C1252 0.932 . S
H1273 C1253 0.930 . S
H1274 C1254 0.929 . S
H1275 C1256 0.930 . S
H1276 C1258 0.932 . S
H1277 C1259 0.929 . S
H1278 C1260 0.928 . S
H1279 C1262 0.932 . S
C1280 C1281 1.349 . S
C1280 C1282 1.327 . S
C1280 H1305 0.950 . S
C1281 C1280 1.349 . S
C1281 C1297 1.349 . S
C1282 C1280 1.327 . S
C1282 C1301 1.429 . S
C1282 H1306 0.950 . S
C1283 C1300 1.574 1_556 S
C1283 C1302 1.368 . S
C1283 H1307 0.949 . S
H1284 C1288 0.949 . S
C1285 C1286 1.349 . S
C1285 C1287 1.327 . S
C1285 H1308 0.950 . S
C1286 C1285 1.349 . S
C1286 C1298 1.349 . S
C1287 C1285 1.327 . S
C1287 C1303 1.429 . S
C1287 H1309 0.950 . S
C1288 H1284 0.949 . S
C1288 C1296 1.574 1_554 S
C1288 C1304 1.368 . S
H1289 C1297 0.950 . S
H1290 C1295 0.950 . S
H1291 C1296 0.949 . S
H1292 C1298 0.950 . S
H1293 C1299 0.950 . S
H1294 C1300 0.949 . S
C1295 H1290 0.950 . S
C1295 C1297 1.327 . S
C1295 C1301 1.429 . S
C1296 C1288 1.574 1_556 S
C1296 H1291 0.949 . S
C1296 C1302 1.368 . S
C1297 C1281 1.349 . S
C1297 H1289 0.950 . S
C1297 C1295 1.327 . S
C1298 C1286 1.349 . S
C1298 H1292 0.950 . S
C1298 C1299 1.327 . S
C1299 H1293 0.950 . S
C1299 C1298 1.327 . S
C1299 C1303 1.429 . S
C1300 C1283 1.574 1_554 S
C1300 H1294 0.949 . S
C1300 C1304 1.368 . S
C1301 C1282 1.429 . S
C1301 C1295 1.429 . S
C1301 C1302 1.523 . S
C1302 C1283 1.368 . S
C1302 C1296 1.368 . S
C1302 C1301 1.523 . S
C1303 C1287 1.429 . S
C1303 C1299 1.429 . S
C1303 C1304 1.523 . S
C1304 C1288 1.368 . S
C1304 C1300 1.368 . S
C1304 C1303 1.523 . S
H1305 C1280 0.950 . S
H1306 C1282 0.950 . S
H1307 C1283 0.949 . S
H1308 C1285 0.950 . S
H1309 C1287 0.950 . S
C1310 C1311 1.349 . S
C1310 C1312 1.327 . S
C1310 H1335 0.950 . S
C1311 C1310 1.349 . S
C1311 C1327 1.349 . S
C1312 C1310 1.327 . S
C1312 C1331 1.429 . S
C1312 H1336 0.950 . S
C1313 C1330 1.574 . S
C1313 C1332 1.368 . S
C1313 H1337 0.949 . S
H1314 C1318 0.949 . S
C1315 C1316 1.349 . S
C1315 C1317 1.327 . S
C1315 H1338 0.950 . S
C1316 C1315 1.349 . S
C1316 C1328 1.349 . S
C1317 C1315 1.327 . S
C1317 C1333 1.429 . S
C1317 H1339 0.950 . S
C1318 H1314 0.949 . S
C1318 C1326 1.574 . S
C1318 C1334 1.368 . S
H1319 C1327 0.950 . S
H1320 C1325 0.950 . S
H1321 C1326 0.949 . S
H1322 C1328 0.950 . S
H1323 C1329 0.950 . S
H1324 C1330 0.949 . S
C1325 H1320 0.950 . S
C1325 C1327 1.327 . S
C1325 C1331 1.429 . S
C1326 C1318 1.574 . S
C1326 H1321 0.949 . S
C1326 C1332 1.368 . S
C1327 C1311 1.349 . S
C1327 H1319 0.950 . S
C1327 C1325 1.327 . S
C1328 C1316 1.349 . S
C1328 H1322 0.950 . S
C1328 C1329 1.327 . S
C1329 H1323 0.950 . S
C1329 C1328 1.327 . S
C1329 C1333 1.429 . S
C1330 C1313 1.574 . S
C1330 H1324 0.949 . S
C1330 C1334 1.368 . S
C1331 C1312 1.429 . S
C1331 C1325 1.429 . S
C1331 C1332 1.523 . S
C1332 C1313 1.368 . S
C1332 C1326 1.368 . S
C1332 C1331 1.523 . S
C1333 C1317 1.429 . S
C1333 C1329 1.429 . S
C1333 C1334 1.523 . S
C1334 C1318 1.368 . S
C1334 C1330 1.368 . S
C1334 C1333 1.523 . S
H1335 C1310 0.950 . S
H1336 C1312 0.950 . S
H1337 C1313 0.949 . S
H1338 C1315 0.950 . S
H1339 C1317 0.950 . S
C1340 C1341 1.349 . S
C1340 C1342 1.327 . S
C1340 H1365 0.950 . S
C1341 C1340 1.349 . S
C1341 C1357 1.349 . S
C1342 C1340 1.327 . S
C1342 C1361 1.429 . S
C1342 H1366 0.950 . S
C1343 C1360 1.574 . S
C1343 C1362 1.368 . S
C1343 H1367 0.949 . S
H1344 C1348 0.949 . S
C1345 C1346 1.349 . S
C1345 C1347 1.327 . S
C1345 H1368 0.950 . S
C1346 C1345 1.349 . S
C1346 C1358 1.349 . S
C1347 C1345 1.327 . S
C1347 C1363 1.429 . S
C1347 H1369 0.950 . S
C1348 H1344 0.949 . S
C1348 C1356 1.574 . S
C1348 C1364 1.368 . S
H1349 C1357 0.950 . S
H1350 C1355 0.950 . S
H1351 C1356 0.949 . S
H1352 C1358 0.950 . S
H1353 C1359 0.950 . S
H1354 C1360 0.949 . S
C1355 H1350 0.950 . S
C1355 C1357 1.327 . S
C1355 C1361 1.429 . S
C1356 C1348 1.574 . S
C1356 H1351 0.949 . S
C1356 C1362 1.368 . S
C1357 C1341 1.349 . S
C1357 H1349 0.950 . S
C1357 C1355 1.327 . S
C1358 C1346 1.349 . S
C1358 H1352 0.950 . S
C1358 C1359 1.327 . S
C1359 H1353 0.950 . S
C1359 C1358 1.327 . S
C1359 C1363 1.429 . S
C1360 C1343 1.574 . S
C1360 H1354 0.949 . S
C1360 C1364 1.368 . S
C1361 C1342 1.429 . S
C1361 C1355 1.429 . S
C1361 C1362 1.523 . S
C1362 C1343 1.368 . S
C1362 C1356 1.368 . S
C1362 C1361 1.523 . S
C1363 C1347 1.429 . S
C1363 C1359 1.429 . S
C1363 C1364 1.523 . S
C1364 C1348 1.368 . S
C1364 C1360 1.368 . S
C1364 C1363 1.523 . S
H1365 C1340 0.950 . S
H1366 C1342 0.950 . S
H1367 C1343 0.949 . S
H1368 C1345 0.950 . S
H1369 C1347 0.950 . S
C1370 C1371 1.349 . S
C1370 C1372 1.327 . S
C1370 H1395 0.950 . S
C1371 C1370 1.349 . S
C1371 C1387 1.349 . S
C1372 C1370 1.327 . S
C1372 C1391 1.429 . S
C1372 H1396 0.950 . S
C1373 C1390 1.574 . S
C1373 C1392 1.368 . S
C1373 H1397 0.949 . S
H1374 C1378 0.949 . S
C1375 C1376 1.349 . S
C1375 C1377 1.327 . S
C1375 H1398 0.950 . S
C1376 C1375 1.349 . S
C1376 C1388 1.349 . S
C1377 C1375 1.327 . S
C1377 C1393 1.429 . S
C1377 H1399 0.950 . S
C1378 H1374 0.949 . S
C1378 C1386 1.574 . S
C1378 C1394 1.368 . S
H1379 C1387 0.950 . S
H1380 C1385 0.950 . S
H1381 C1386 0.949 . S
H1382 C1388 0.950 . S
H1383 C1389 0.950 . S
H1384 C1390 0.949 . S
C1385 H1380 0.950 . S
C1385 C1387 1.327 . S
C1385 C1391 1.429 . S
C1386 C1378 1.574 . S
C1386 H1381 0.949 . S
C1386 C1392 1.368 . S
C1387 C1371 1.349 . S
C1387 H1379 0.950 . S
C1387 C1385 1.327 . S
C1388 C1376 1.349 . S
C1388 H1382 0.950 . S
C1388 C1389 1.327 . S
C1389 H1383 0.950 . S
C1389 C1388 1.327 . S
C1389 C1393 1.429 . S
C1390 C1373 1.574 . S
C1390 H1384 0.949 . S
C1390 C1394 1.368 . S
C1391 C1372 1.429 . S
C1391 C1385 1.429 . S
C1391 C1392 1.523 . S
C1392 C1373 1.368 . S
C1392 C1386 1.368 . S
C1392 C1391 1.523 . S
C1393 C1377 1.429 . S
C1393 C1389 1.429 . S
C1393 C1394 1.523 . S
C1394 C1378 1.368 . S
C1394 C1390 1.368 . S
C1394 C1393 1.523 . S
H1395 C1370 0.950 . S
H1396 C1372 0.950 . S
H1397 C1373 0.949 . S
H1398 C1375 0.950 . S
H1399 C1377 0.950 . S
C1400 C1401 1.349 . S
C1400 C1402 1.327 . S
C1400 H1425 0.950 . S
C1401 C1400 1.349 . S
C1401 C1417 1.349 . S
C1402 C1400 1.327 . S
C1402 C1421 1.429 . S
C1402 H1426 0.950 . S
C1403 C1420 1.574 1_554 S
C1403 C1422 1.368 . S
C1403 H1427 0.949 . S
H1404 C1408 0.949 . S
C1405 C1406 1.349 . S
C1405 C1407 1.327 . S
C1405 H1428 0.950 . S
C1406 C1405 1.349 . S
C1406 C1418 1.349 . S
C1407 C1405 1.327 . S
C1407 C1423 1.429 . S
C1407 H1429 0.950 . S
C1408 H1404 0.949 . S
C1408 C1416 1.574 1_556 S
C1408 C1424 1.368 . S
H1409 C1417 0.950 . S
H1410 C1415 0.950 . S
H1411 C1416 0.949 . S
H1412 C1418 0.950 . S
H1413 C1419 0.950 . S
H1414 C1420 0.949 . S
C1415 H1410 0.950 . S
C1415 C1417 1.327 . S
C1415 C1421 1.429 . S
C1416 C1408 1.574 1_554 S
C1416 H1411 0.949 . S
C1416 C1422 1.368 . S
C1417 C1401 1.349 . S
C1417 H1409 0.950 . S
C1417 C1415 1.327 . S
C1418 C1406 1.349 . S
C1418 H1412 0.950 . S
C1418 C1419 1.327 . S
C1419 H1413 0.950 . S
C1419 C1418 1.327 . S
C1419 C1423 1.429 . S
C1420 C1403 1.574 1_556 S
C1420 H1414 0.949 . S
C1420 C1424 1.368 . S
C1421 C1402 1.429 . S
C1421 C1415 1.429 . S
C1421 C1422 1.523 . S
C1422 C1403 1.368 . S
C1422 C1416 1.368 . S
C1422 C1421 1.523 . S
C1423 C1407 1.429 . S
C1423 C1419 1.429 . S
C1423 C1424 1.523 . S
C1424 C1408 1.368 . S
C1424 C1420 1.368 . S
C1424 C1423 1.523 . S
H1425 C1400 0.950 . S
H1426 C1402 0.950 . S
H1427 C1403 0.949 . S
H1428 C1405 0.950 . S
H1429 C1407 0.950 . S
C1430 C1431 1.349 . S
C1430 C1432 1.327 . S
C1430 H1455 0.950 . S
C1431 C1430 1.349 . S
C1431 C1447 1.349 . S
C1432 C1430 1.327 . S
C1432 C1451 1.429 . S
C1432 H1456 0.950 . S
C1433 C1450 1.574 . S
C1433 C1452 1.368 . S
C1433 H1457 0.949 . S
H1434 C1438 0.949 . S
C1435 C1436 1.349 . S
C1435 C1437 1.327 . S
C1435 H1458 0.950 . S
C1436 C1435 1.349 . S
C1436 C1448 1.349 . S
C1437 C1435 1.327 . S
C1437 C1453 1.429 . S
C1437 H1459 0.950 . S
C1438 H1434 0.949 . S
C1438 C1446 1.574 . S
C1438 C1454 1.368 . S
H1439 C1447 0.950 . S
H1440 C1445 0.950 . S
H1441 C1446 0.949 . S
H1442 C1448 0.950 . S
H1443 C1449 0.950 . S
H1444 C1450 0.949 . S
C1445 H1440 0.950 . S
C1445 C1447 1.327 . S
C1445 C1451 1.429 . S
C1446 C1438 1.574 . S
C1446 H1441 0.949 . S
C1446 C1452 1.368 . S
C1447 C1431 1.349 . S
C1447 H1439 0.950 . S
C1447 C1445 1.327 . S
C1448 C1436 1.349 . S
C1448 H1442 0.950 . S
C1448 C1449 1.327 . S
C1449 H1443 0.950 . S
C1449 C1448 1.327 . S
C1449 C1453 1.429 . S
C1450 C1433 1.574 . S
C1450 H1444 0.949 . S
C1450 C1454 1.368 . S
C1451 C1432 1.429 . S
C1451 C1445 1.429 . S
C1451 C1452 1.523 . S
C1452 C1433 1.368 . S
C1452 C1446 1.368 . S
C1452 C1451 1.523 . S
C1453 C1437 1.429 . S
C1453 C1449 1.429 . S
C1453 C1454 1.523 . S
C1454 C1438 1.368 . S
C1454 C1450 1.368 . S
C1454 C1453 1.523 . S
H1455 C1430 0.950 . S
H1456 C1432 0.950 . S
H1457 C1433 0.949 . S
H1458 C1435 0.950 . S
H1459 C1437 0.950 . S
C1460 C1461 1.349 . S
C1460 C1462 1.327 . S
C1460 H1485 0.950 . S
C1461 C1460 1.349 . S
C1461 C1477 1.349 . S
C1462 C1460 1.327 . S
C1462 C1481 1.429 . S
C1462 H1486 0.950 . S
C1463 C1480 1.574 . S
C1463 C1482 1.368 . S
C1463 H1487 0.949 . S
H1464 C1468 0.949 . S
C1465 C1466 1.349 . S
C1465 C1467 1.327 . S
C1465 H1488 0.950 . S
C1466 C1465 1.349 . S
C1466 C1478 1.349 . S
C1467 C1465 1.327 . S
C1467 C1483 1.429 . S
C1467 H1489 0.950 . S
C1468 H1464 0.949 . S
C1468 C1476 1.574 . S
C1468 C1484 1.368 . S
H1469 C1477 0.950 . S
H1470 C1475 0.950 . S
H1471 C1476 0.949 . S
H1472 C1478 0.950 . S
H1473 C1479 0.950 . S
H1474 C1480 0.949 . S
C1475 H1470 0.950 . S
C1475 C1477 1.327 . S
C1475 C1481 1.429 . S
C1476 C1468 1.574 . S
C1476 H1471 0.949 . S
C1476 C1482 1.368 . S
C1477 C1461 1.349 . S
C1477 H1469 0.950 . S
C1477 C1475 1.327 . S
C1478 C1466 1.349 . S
C1478 H1472 0.950 . S
C1478 C1479 1.327 . S
C1479 H1473 0.950 . S
C1479 C1478 1.327 . S
C1479 C1483 1.429 . S
C1480 C1463 1.574 . S
C1480 H1474 0.949 . S
C1480 C1484 1.368 . S
C1481 C1462 1.429 . S
C1481 C1475 1.429 . S
C1481 C1482 1.523 . S
C1482 C1463 1.368 . S
C1482 C1476 1.368 . S
C1482 C1481 1.523 . S
C1483 C1467 1.429 . S
C1483 C1479 1.429 . S
C1483 C1484 1.523 . S
C1484 C1468 1.368 . S
C1484 C1480 1.368 . S
C1484 C1483 1.523 . S
H1485 C1460 0.950 . S
H1486 C1462 0.950 . S
H1487 C1463 0.949 . S
H1488 C1465 0.950 . S
H1489 C1467 0.950 . S
C1490 C1491 1.349 . S
C1490 C1492 1.327 . S
C1490 H1515 0.950 . S
C1491 C1490 1.349 . S
C1491 C1507 1.349 . S
C1492 C1490 1.327 . S
C1492 C1511 1.429 . S
C1492 H1516 0.950 . S
C1493 C1510 1.574 . S
C1493 C1512 1.368 . S
C1493 H1517 0.949 . S
H1494 C1498 0.949 . S
C1495 C1496 1.349 . S
C1495 C1497 1.327 . S
C1495 H1518 0.950 . S
C1496 C1495 1.349 . S
C1496 C1508 1.349 . S
C1497 C1495 1.327 . S
C1497 C1513 1.429 . S
C1497 H1519 0.950 . S
C1498 H1494 0.949 . S
C1498 C1506 1.574 . S
C1498 C1514 1.368 . S
H1499 C1507 0.950 . S
H1500 C1505 0.950 . S
H1501 C1506 0.949 . S
H1502 C1508 0.950 . S
H1503 C1509 0.950 . S
H1504 C1510 0.949 . S
C1505 H1500 0.950 . S
C1505 C1507 1.327 . S
C1505 C1511 1.429 . S
C1506 C1498 1.574 . S
C1506 H1501 0.949 . S
C1506 C1512 1.368 . S
C1507 C1491 1.349 . S
C1507 H1499 0.950 . S
C1507 C1505 1.327 . S
C1508 C1496 1.349 . S
C1508 H1502 0.950 . S
C1508 C1509 1.327 . S
C1509 H1503 0.950 . S
C1509 C1508 1.327 . S
C1509 C1513 1.429 . S
C1510 C1493 1.574 . S
C1510 H1504 0.949 . S
C1510 C1514 1.368 . S
C1511 C1492 1.429 . S
C1511 C1505 1.429 . S
C1511 C1512 1.523 . S
C1512 C1493 1.368 . S
C1512 C1506 1.368 . S
C1512 C1511 1.523 . S
C1513 C1497 1.429 . S
C1513 C1509 1.429 . S
C1513 C1514 1.523 . S
C1514 C1498 1.368 . S
C1514 C1510 1.368 . S
C1514 C1513 1.523 . S
H1515 C1490 0.950 . S
H1516 C1492 0.950 . S
H1517 C1493 0.949 . S
H1518 C1495 0.950 . S
H1519 C1497 0.950 . S
C1520 C1521 1.286 1_545 S
C1520 C1522 1.345 . S
C1520 H1545 1.000 . S
C1521 C1520 1.286 1_565 S
C1521 C1537 1.349 . S
C1522 C1520 1.345 . S
C1522 C1541 1.429 1_545 S
C1522 H1546 0.950 . S
C1523 C1540 1.574 . S
C1523 C1542 1.368 . S
C1523 H1547 0.949 . S
H1524 C1528 0.949 . S
C1525 C1526 1.305 1_565 S
C1525 C1527 1.339 . S
C1525 H1548 0.984 . S
C1526 C1525 1.305 1_545 S
C1526 C1538 1.349 . S
C1527 C1525 1.339 . S
C1527 C1543 1.429 1_565 S
C1527 H1549 0.950 . S
C1528 H1524 0.949 . S
C1528 C1536 1.574 . S
C1528 C1544 1.368 . S
H1529 C1537 0.950 . S
H1530 C1535 0.950 . S
H1531 C1536 0.949 . S
H1532 C1538 0.950 . S
H1533 C1539 0.950 . S
H1534 C1540 0.949 . S
C1535 H1530 0.950 . S
C1535 C1537 1.327 . S
C1535 C1541 1.429 . S
C1536 C1528 1.574 . S
C1536 H1531 0.949 . S
C1536 C1542 1.368 1_545 S
C1537 C1521 1.349 . S
C1537 H1529 0.950 . S
C1537 C1535 1.327 . S
C1538 C1526 1.349 . S
C1538 H1532 0.950 . S
C1538 C1539 1.327 . S
C1539 H1533 0.950 . S
C1539 C1538 1.327 . S
C1539 C1543 1.429 . S
C1540 C1523 1.574 . S
C1540 H1534 0.949 . S
C1540 C1544 1.368 1_565 S
C1541 C1522 1.429 1_565 S
C1541 C1535 1.429 . S
C1541 C1542 1.523 . S
C1542 C1523 1.368 . S
C1542 C1536 1.368 1_565 S
C1542 C1541 1.523 . S
C1543 C1527 1.429 1_545 S
C1543 C1539 1.429 . S
C1543 C1544 1.523 . S
C1544 C1528 1.368 . S
C1544 C1540 1.368 1_545 S
C1544 C1543 1.523 . S
H1545 C1520 1.000 . S
H1546 C1522 0.950 . S
H1547 C1523 0.949 . S
H1548 C1525 0.984 . S
H1549 C1527 0.950 . S
C1550 C1551 1.349 . S
C1550 C1552 1.327 . S
C1550 H1575 0.950 . S
C1551 C1550 1.349 . S
C1551 C1567 1.349 . S
C1552 C1550 1.327 . S
C1552 C1571 1.429 . S
C1552 H1576 0.950 . S
C1553 C1570 1.574 . S
C1553 C1572 1.368 . S
C1553 H1577 0.949 . S
H1554 C1558 0.949 . S
C1555 C1556 1.349 . S
C1555 C1557 1.327 . S
C1555 H1578 0.950 . S
C1556 C1555 1.349 . S
C1556 C1568 1.349 . S
C1557 C1555 1.327 . S
C1557 C1573 1.429 . S
C1557 H1579 0.950 . S
C1558 H1554 0.949 . S
C1558 C1566 1.574 . S
C1558 C1574 1.368 . S
H1559 C1567 0.950 . S
H1560 C1565 0.950 . S
H1561 C1566 0.949 . S
H1562 C1568 0.950 . S
H1563 C1569 0.950 . S
H1564 C1570 0.949 . S
C1565 H1560 0.950 . S
C1565 C1567 1.327 . S
C1565 C1571 1.429 . S
C1566 C1558 1.574 . S
C1566 H1561 0.949 . S
C1566 C1572 1.368 . S
C1567 C1551 1.349 . S
C1567 H1559 0.950 . S
C1567 C1565 1.327 . S
C1568 C1556 1.349 . S
C1568 H1562 0.950 . S
C1568 C1569 1.327 . S
C1569 H1563 0.950 . S
C1569 C1568 1.327 . S
C1569 C1573 1.429 . S
C1570 C1553 1.574 . S
C1570 H1564 0.949 . S
C1570 C1574 1.368 . S
C1571 C1552 1.429 . S
C1571 C1565 1.429 . S
C1571 C1572 1.523 . S
C1572 C1553 1.368 . S
C1572 C1566 1.368 . S
C1572 C1571 1.523 . S
C1573 C1557 1.429 . S
C1573 C1569 1.429 . S
C1573 C1574 1.523 . S
C1574 C1558 1.368 . S
C1574 C1570 1.368 . S
C1574 C1573 1.523 . S
H1575 C1550 0.950 . S
H1576 C1552 0.950 . S
H1577 C1553 0.949 . S
H1578 C1555 0.950 . S
H1579 C1557 0.950 . S
C1580 C1581 1.349 1_565 S
C1580 C1582 1.327 . S
C1580 H1605 0.950 . S
C1581 C1580 1.349 1_545 S
C1581 C1597 1.349 . S
C1582 C1580 1.327 . S
C1582 C1601 1.429 1_565 S
C1582 H1606 0.950 . S
C1583 C1600 1.574 1_554 S
C1583 C1602 1.368 . S
C1583 H1607 0.949 . S
H1584 C1588 0.949 . S
C1585 C1586 1.349 1_545 S
C1585 C1587 1.327 . S
C1585 H1608 0.950 . S
C1586 C1585 1.349 1_565 S
C1586 C1598 1.349 . S
C1587 C1585 1.327 . S
C1587 C1603 1.429 1_545 S
C1587 H1609 0.950 . S
C1588 H1584 0.949 . S
C1588 C1596 1.574 1_556 S
C1588 C1604 1.368 . S
H1589 C1597 0.950 . S
H1590 C1595 0.950 . S
H1591 C1596 0.949 . S
H1592 C1598 0.950 . S
H1593 C1599 0.950 . S
H1594 C1600 0.949 . S
C1595 H1590 0.950 . S
C1595 C1597 1.327 . S
C1595 C1601 1.429 . S
C1596 C1588 1.574 1_554 S
C1596 H1591 0.949 . S
C1596 C1602 1.368 1_565 S
C1597 C1581 1.349 . S
C1597 H1589 0.950 . S
C1597 C1595 1.327 . S
C1598 C1586 1.349 . S
C1598 H1592 0.950 . S
C1598 C1599 1.327 . S
C1599 H1593 0.950 . S
C1599 C1598 1.327 . S
C1599 C1603 1.429 . S
C1600 C1583 1.574 1_556 S
C1600 H1594 0.949 . S
C1600 C1604 1.368 1_545 S
C1601 C1582 1.429 1_545 S
C1601 C1595 1.429 . S
C1601 C1602 1.523 . S
C1602 C1583 1.368 . S
C1602 C1596 1.368 1_545 S
C1602 C1601 1.523 . S
C1603 C1587 1.429 1_565 S
C1603 C1599 1.429 . S
C1603 C1604 1.523 . S
C1604 C1588 1.368 . S
C1604 C1600 1.368 1_565 S
C1604 C1603 1.523 . S
H1605 C1580 0.950 . S
H1606 C1582 0.950 . S
H1607 C1583 0.949 . S
H1608 C1585 0.950 . S
H1609 C1587 0.950 . S
C1610 C1611 1.349 . S
C1610 C1612 1.327 . S
C1610 H1635 0.950 . S
C1611 C1610 1.349 . S
C1611 C1627 1.349 . S
C1612 C1610 1.327 . S
C1612 C1631 1.429 . S
C1612 H1636 0.950 . S
C1613 C1630 1.574 . S
C1613 C1632 1.368 . S
C1613 H1637 0.949 . S
H1614 C1618 0.949 . S
C1615 C1616 1.349 . S
C1615 C1617 1.327 . S
C1615 H1638 0.950 . S
C1616 C1615 1.349 . S
C1616 C1628 1.349 . S
C1617 C1615 1.327 . S
C1617 C1633 1.429 . S
C1617 H1639 0.950 . S
C1618 H1614 0.949 . S
C1618 C1626 1.574 . S
C1618 C1634 1.368 . S
H1619 C1627 0.950 . S
H1620 C1625 0.950 . S
H1621 C1626 0.949 . S
H1622 C1628 0.950 . S
H1623 C1629 0.950 . S
H1624 C1630 0.949 . S
C1625 H1620 0.950 . S
C1625 C1627 1.327 . S
C1625 C1631 1.429 . S
C1626 C1618 1.574 . S
C1626 H1621 0.949 . S
C1626 C1632 1.368 . S
C1627 C1611 1.349 . S
C1627 H1619 0.950 . S
C1627 C1625 1.327 . S
C1628 C1616 1.349 . S
C1628 H1622 0.950 . S
C1628 C1629 1.327 . S
C1629 H1623 0.950 . S
C1629 C1628 1.327 . S
C1629 C1633 1.429 . S
C1630 C1613 1.574 . S
C1630 H1624 0.949 . S
C1630 C1634 1.368 . S
C1631 C1612 1.429 . S
C1631 C1625 1.429 . S
C1631 C1632 1.523 . S
C1632 C1613 1.368 . S
C1632 C1626 1.368 . S
C1632 C1631 1.523 . S
C1633 C1617 1.429 . S
C1633 C1629 1.429 . S
C1633 C1634 1.523 . S
C1634 C1618 1.368 . S
C1634 C1630 1.368 . S
C1634 C1633 1.523 . S
H1635 C1610 0.950 . S
H1636 C1612 0.950 . S
H1637 C1613 0.949 . S
H1638 C1615 0.950 . S
H1639 C1617 0.950 . S
C1640 C1641 1.349 . S
C1640 C1642 1.327 . S
C1640 H1665 0.950 . S
C1641 C1640 1.349 . S
C1641 C1657 1.329 1_545 S
C1642 C1640 1.327 . S
C1642 C1661 1.429 . S
C1642 H1666 0.950 . S
C1643 C1660 1.574 . S
C1643 C1662 1.368 1_565 S
C1643 H1667 0.949 . S
H1644 C1648 0.949 . S
C1645 C1646 1.349 . S
C1645 C1647 1.327 . S
C1645 H1668 0.950 . S
C1646 C1645 1.349 . S
C1646 C1658 1.347 1_565 S
C1647 C1645 1.327 . S
C1647 C1663 1.429 . S
C1647 H1669 0.950 . S
C1648 H1644 0.949 . S
C1648 C1656 1.574 . S
C1648 C1664 1.368 1_545 S
H1649 C1657 0.965 . S
H1650 C1655 0.950 . S
H1651 C1656 0.949 . S
H1652 C1658 0.951 . S
H1653 C1659 0.950 . S
H1654 C1660 0.949 . S
C1655 H1650 0.950 . S
C1655 C1657 1.332 . S
C1655 C1661 1.429 1_565 S
C1656 C1648 1.574 . S
C1656 H1651 0.949 . S
C1656 C1662 1.368 . S
C1657 C1641 1.329 1_565 S
C1657 H1649 0.965 . S
C1657 C1655 1.332 . S
C1658 C1646 1.347 1_545 S
C1658 H1652 0.951 . S
C1658 C1659 1.328 . S
C1659 H1653 0.950 . S
C1659 C1658 1.328 . S
C1659 C1663 1.429 1_545 S
C1660 C1643 1.574 . S
C1660 H1654 0.949 . S
C1660 C1664 1.368 . S
C1661 C1642 1.429 . S
C1661 C1655 1.429 1_545 S
C1661 C1662 1.523 . S
C1662 C1643 1.368 1_545 S
C1662 C1656 1.368 . S
C1662 C1661 1.523 . S
C1663 C1647 1.429 . S
C1663 C1659 1.429 1_565 S
C1663 C1664 1.523 . S
C1664 C1648 1.368 1_565 S
C1664 C1660 1.368 . S
C1664 C1663 1.523 . S
H1665 C1640 0.950 . S
H1666 C1642 0.950 . S
H1667 C1643 0.949 . S
H1668 C1645 0.950 . S
H1669 C1647 0.950 . S
C1670 C1671 1.349 . S
C1670 C1672 1.327 . S
C1670 H1695 0.950 . S
C1671 C1670 1.349 . S
C1671 C1687 1.349 . S
C1672 C1670 1.327 . S
C1672 C1691 1.429 . S
C1672 H1696 0.950 . S
C1673 C1690 1.574 . S
C1673 C1692 1.368 . S
C1673 H1697 0.949 . S
H1674 C1678 0.949 . S
C1675 C1676 1.349 . S
C1675 C1677 1.327 . S
C1675 H1698 0.950 . S
C1676 C1675 1.349 . S
C1676 C1688 1.349 . S
C1677 C1675 1.327 . S
C1677 C1693 1.429 . S
C1677 H1699 0.950 . S
C1678 H1674 0.949 . S
C1678 C1686 1.574 . S
C1678 C1694 1.368 . S
H1679 C1687 0.950 . S
H1680 C1685 0.950 . S
H1681 C1686 0.949 . S
H1682 C1688 0.950 . S
H1683 C1689 0.950 . S
H1684 C1690 0.949 . S
C1685 H1680 0.950 . S
C1685 C1687 1.327 . S
C1685 C1691 1.429 . S
C1686 C1678 1.574 . S
C1686 H1681 0.949 . S
C1686 C1692 1.368 . S
C1687 C1671 1.349 . S
C1687 H1679 0.950 . S
C1687 C1685 1.327 . S
C1688 C1676 1.349 . S
C1688 H1682 0.950 . S
C1688 C1689 1.327 . S
C1689 H1683 0.950 . S
C1689 C1688 1.327 . S
C1689 C1693 1.429 . S
C1690 C1673 1.574 . S
C1690 H1684 0.949 . S
C1690 C1694 1.368 . S
C1691 C1672 1.429 . S
C1691 C1685 1.429 . S
C1691 C1692 1.523 . S
C1692 C1673 1.368 . S
C1692 C1686 1.368 . S
C1692 C1691 1.523 . S
C1693 C1677 1.429 . S
C1693 C1689 1.429 . S
C1693 C1694 1.523 . S
C1694 C1678 1.368 . S
C1694 C1690 1.368 . S
C1694 C1693 1.523 . S
H1695 C1670 0.950 . S
H1696 C1672 0.950 . S
H1697 C1673 0.949 . S
H1698 C1675 0.950 . S
H1699 C1677 0.950 . S
C1700 C1701 1.274 1_545 S
C1700 C1702 1.348 . S
C1700 H1725 1.010 . S
C1701 C1700 1.274 1_565 S
C1701 C1717 1.349 . S
C1702 C1700 1.348 . S
C1702 C1721 1.429 1_545 S
C1702 H1726 0.950 . S
C1703 C1720 1.574 1_556 S
C1703 C1722 1.368 . S
C1703 H1727 0.949 . S
H1704 C1708 0.949 . S
C1705 C1706 1.293 1_565 S
C1705 C1707 1.342 . S
C1705 H1728 0.994 . S
C1706 C1705 1.293 1_545 S
C1706 C1718 1.349 . S
C1707 C1705 1.342 . S
C1707 C1723 1.429 1_565 S
C1707 H1729 0.950 . S
C1708 H1704 0.949 . S
C1708 C1716 1.574 1_554 S
C1708 C1724 1.368 . S
H1709 C1717 0.950 . S
H1710 C1715 0.950 . S
H1711 C1716 0.949 . S
H1712 C1718 0.950 . S
H1713 C1719 0.950 . S
H1714 C1720 0.949 . S
C1715 H1710 0.950 . S
C1715 C1717 1.327 . S
C1715 C1721 1.429 . S
C1716 C1708 1.574 1_556 S
C1716 H1711 0.949 . S
C1716 C1722 1.368 1_545 S
C1717 C1701 1.349 . S
C1717 H1709 0.950 . S
C1717 C1715 1.327 . S
C1718 C1706 1.349 . S
C1718 H1712 0.950 . S
C1718 C1719 1.327 . S
C1719 H1713 0.950 . S
C1719 C1718 1.327 . S
C1719 C1723 1.429 . S
C1720 C1703 1.574 1_554 S
C1720 H1714 0.949 . S
C1720 C1724 1.368 1_565 S
C1721 C1702 1.429 1_565 S
C1721 C1715 1.429 . S
C1721 C1722 1.523 . S
C1722 C1703 1.368 . S
C1722 C1716 1.368 1_565 S
C1722 C1721 1.523 . S
C1723 C1707 1.429 1_545 S
C1723 C1719 1.429 . S
C1723 C1724 1.523 . S
C1724 C1708 1.368 . S
C1724 C1720 1.368 1_545 S
C1724 C1723 1.523 . S
H1725 C1700 1.010 . S
H1726 C1702 0.950 . S
H1727 C1703 0.949 . S
H1728 C1705 0.994 . S
H1729 C1707 0.950 . S
C1730 C1731 1.349 . S
C1730 C1732 1.327 . S
C1730 H1755 0.950 . S
C1731 C1730 1.349 . S
C1731 C1747 1.349 . S
C1732 C1730 1.327 . S
C1732 C1751 1.429 . S
C1732 H1756 0.950 . S
C1733 C1750 1.574 . S
C1733 C1752 1.368 . S
C1733 H1757 0.949 . S
H1734 C1738 0.949 . S
C1735 C1736 1.349 . S
C1735 C1737 1.327 . S
C1735 H1758 0.950 . S
C1736 C1735 1.349 . S
C1736 C1748 1.349 . S
C1737 C1735 1.327 . S
C1737 C1753 1.429 . S
C1737 H1759 0.950 . S
C1738 H1734 0.949 . S
C1738 C1746 1.574 . S
C1738 C1754 1.368 . S
H1739 C1747 0.950 . S
H1740 C1745 0.950 . S
H1741 C1746 0.949 . S
H1742 C1748 0.950 . S
H1743 C1749 0.950 . S
H1744 C1750 0.949 . S
C1745 H1740 0.950 . S
C1745 C1747 1.327 . S
C1745 C1751 1.429 . S
C1746 C1738 1.574 . S
C1746 H1741 0.949 . S
C1746 C1752 1.368 . S
C1747 C1731 1.349 . S
C1747 H1739 0.950 . S
C1747 C1745 1.327 . S
C1748 C1736 1.349 . S
C1748 H1742 0.950 . S
C1748 C1749 1.327 . S
C1749 H1743 0.950 . S
C1749 C1748 1.327 . S
C1749 C1753 1.429 . S
C1750 C1733 1.574 . S
C1750 H1744 0.949 . S
C1750 C1754 1.368 . S
C1751 C1732 1.429 . S
C1751 C1745 1.429 . S
C1751 C1752 1.523 . S
C1752 C1733 1.368 . S
C1752 C1746 1.368 . S
C1752 C1751 1.523 . S
C1753 C1737 1.429 . S
C1753 C1749 1.429 . S
C1753 C1754 1.523 . S
C1754 C1738 1.368 . S
C1754 C1750 1.368 . S
C1754 C1753 1.523 . S
H1755 C1730 0.950 . S
H1756 C1732 0.950 . S
H1757 C1733 0.949 . S
H1758 C1735 0.950 . S
H1759 C1737 0.950 . S
C1760 C1761 1.349 . S
C1760 C1762 1.327 . S
C1760 H1785 0.950 . S
C1761 C1760 1.349 . S
C1761 C1777 1.349 . S
C1762 C1760 1.327 . S
C1762 C1781 1.429 . S
C1762 H1786 0.950 . S
C1763 C1780 1.574 1_655 S
C1763 C1782 1.368 . S
C1763 H1787 0.949 . S
H1764 C1768 0.949 . S
C1765 C1766 1.349 . S
C1765 C1767 1.327 . S
C1765 H1788 0.950 . S
C1766 C1765 1.349 . S
C1766 C1778 1.349 . S
C1767 C1765 1.327 . S
C1767 C1783 1.429 . S
C1767 H1789 0.950 . S
C1768 H1764 0.949 . S
C1768 C1776 1.574 1_455 S
C1768 C1784 1.368 . S
H1769 C1777 0.950 . S
H1770 C1775 0.950 . S
H1771 C1776 0.949 . S
H1772 C1778 0.950 . S
H1773 C1779 0.950 . S
H1774 C1780 0.949 . S
C1775 H1770 0.950 . S
C1775 C1777 1.327 . S
C1775 C1781 1.429 . S
C1776 C1768 1.574 1_655 S
C1776 H1771 0.949 . S
C1776 C1782 1.368 . S
C1777 C1761 1.349 . S
C1777 H1769 0.950 . S
C1777 C1775 1.327 . S
C1778 C1766 1.349 . S
C1778 H1772 0.950 . S
C1778 C1779 1.327 . S
C1779 H1773 0.950 . S
C1779 C1778 1.327 . S
C1779 C1783 1.429 . S
C1780 C1763 1.574 1_455 S
C1780 H1774 0.949 . S
C1780 C1784 1.368 . S
C1781 C1762 1.429 . S
C1781 C1775 1.429 . S
C1781 C1782 1.523 . S
C1782 C1763 1.368 . S
C1782 C1776 1.368 . S
C1782 C1781 1.523 . S
C1783 C1767 1.429 . S
C1783 C1779 1.429 . S
C1783 C1784 1.523 . S
C1784 C1768 1.368 . S
C1784 C1780 1.368 . S
C1784 C1783 1.523 . S
H1785 C1760 0.950 . S
H1786 C1762 0.950 . S
H1787 C1763 0.949 . S
H1788 C1765 0.950 . S
H1789 C1767 0.950 . S
C1790 C1791 1.349 . S
C1790 C1792 1.327 . S
C1790 H1815 0.950 . S
C1791 C1790 1.349 . S
C1791 C1807 1.349 . S
C1792 C1790 1.327 . S
C1792 C1811 1.429 . S
C1792 H1816 0.950 . S
C1793 C1810 1.574 . S
C1793 C1812 1.368 . S
C1793 H1817 0.949 . S
H1794 C1798 0.949 . S
C1795 C1796 1.349 . S
C1795 C1797 1.327 . S
C1795 H1818 0.950 . S
C1796 C1795 1.349 . S
C1796 C1808 1.349 . S
C1797 C1795 1.327 . S
C1797 C1813 1.429 . S
C1797 H1819 0.950 . S
C1798 H1794 0.949 . S
C1798 C1806 1.574 . S
C1798 C1814 1.368 . S
H1799 C1807 0.950 . S
H1800 C1805 0.950 . S
H1801 C1806 0.949 . S
H1802 C1808 0.950 . S
H1803 C1809 0.950 . S
H1804 C1810 0.949 . S
C1805 H1800 0.950 . S
C1805 C1807 1.327 . S
C1805 C1811 1.429 . S
C1806 C1798 1.574 . S
C1806 H1801 0.949 . S
C1806 C1812 1.368 . S
C1807 C1791 1.349 . S
C1807 H1799 0.950 . S
C1807 C1805 1.327 . S
C1808 C1796 1.349 . S
C1808 H1802 0.950 . S
C1808 C1809 1.327 . S
C1809 H1803 0.950 . S
C1809 C1808 1.327 . S
C1809 C1813 1.429 . S
C1810 C1793 1.574 . S
C1810 H1804 0.949 . S
C1810 C1814 1.368 . S
C1811 C1792 1.429 . S
C1811 C1805 1.429 . S
C1811 C1812 1.523 . S
C1812 C1793 1.368 . S
C1812 C1806 1.368 . S
C1812 C1811 1.523 . S
C1813 C1797 1.429 . S
C1813 C1809 1.429 . S
C1813 C1814 1.523 . S
C1814 C1798 1.368 . S
C1814 C1810 1.368 . S
C1814 C1813 1.523 . S
H1815 C1790 0.950 . S
H1816 C1792 0.950 . S
H1817 C1793 0.949 . S
H1818 C1795 0.950 . S
H1819 C1797 0.950 . S
C1820 C1821 1.349 . S
C1820 C1822 1.327 . S
C1820 H1845 0.950 . S
C1821 C1820 1.349 . S
C1821 C1837 1.349 . S
C1822 C1820 1.327 . S
C1822 C1841 1.429 . S
C1822 H1846 0.950 . S
C1823 C1840 1.574 . S
C1823 C1842 1.368 . S
C1823 H1847 0.949 . S
H1824 C1828 0.949 . S
C1825 C1826 1.349 . S
C1825 C1827 1.327 . S
C1825 H1848 0.950 . S
C1826 C1825 1.349 . S
C1826 C1838 1.349 . S
C1827 C1825 1.327 . S
C1827 C1843 1.429 . S
C1827 H1849 0.950 . S
C1828 H1824 0.949 . S
C1828 C1836 1.574 . S
C1828 C1844 1.368 . S
H1829 C1837 0.950 . S
H1830 C1835 0.950 . S
H1831 C1836 0.949 . S
H1832 C1838 0.950 . S
H1833 C1839 0.950 . S
H1834 C1840 0.949 . S
C1835 H1830 0.950 . S
C1835 C1837 1.327 . S
C1835 C1841 1.429 . S
C1836 C1828 1.574 . S
C1836 H1831 0.949 . S
C1836 C1842 1.368 . S
C1837 C1821 1.349 . S
C1837 H1829 0.950 . S
C1837 C1835 1.327 . S
C1838 C1826 1.349 . S
C1838 H1832 0.950 . S
C1838 C1839 1.327 . S
C1839 H1833 0.950 . S
C1839 C1838 1.327 . S
C1839 C1843 1.429 . S
C1840 C1823 1.574 . S
C1840 H1834 0.949 . S
C1840 C1844 1.368 . S
C1841 C1822 1.429 . S
C1841 C1835 1.429 . S
C1841 C1842 1.523 . S
C1842 C1823 1.368 . S
C1842 C1836 1.368 . S
C1842 C1841 1.523 . S
C1843 C1827 1.429 . S
C1843 C1839 1.429 . S
C1843 C1844 1.523 . S
C1844 C1828 1.368 . S
C1844 C1840 1.368 . S
C1844 C1843 1.523 . S
H1845 C1820 0.950 . S
H1846 C1822 0.950 . S
H1847 C1823 0.949 . S
H1848 C1825 0.950 . S
H1849 C1827 0.950 . S
C1850 C1851 1.349 . S
C1850 C1852 1.327 . S
C1850 H1875 0.950 . S
C1851 C1850 1.349 . S
C1851 C1867 1.349 . S
C1852 C1850 1.327 . S
C1852 C1871 1.429 . S
C1852 H1876 0.950 . S
C1853 C1870 1.574 . S
C1853 C1872 1.368 . S
C1853 H1877 0.949 . S
H1854 C1858 0.949 . S
C1855 C1856 1.349 . S
C1855 C1857 1.327 . S
C1855 H1878 0.950 . S
C1856 C1855 1.349 . S
C1856 C1868 1.349 . S
C1857 C1855 1.327 . S
C1857 C1873 1.429 . S
C1857 H1879 0.950 . S
C1858 H1854 0.949 . S
C1858 C1866 1.574 . S
C1858 C1874 1.368 . S
H1859 C1867 0.950 . S
H1860 C1865 0.950 . S
H1861 C1866 0.949 . S
H1862 C1868 0.950 . S
H1863 C1869 0.950 . S
H1864 C1870 0.949 . S
C1865 H1860 0.950 . S
C1865 C1867 1.327 . S
C1865 C1871 1.429 . S
C1866 C1858 1.574 . S
C1866 H1861 0.949 . S
C1866 C1872 1.368 . S
C1867 C1851 1.349 . S
C1867 H1859 0.950 . S
C1867 C1865 1.327 . S
C1868 C1856 1.349 . S
C1868 H1862 0.950 . S
C1868 C1869 1.327 . S
C1869 H1863 0.950 . S
C1869 C1868 1.327 . S
C1869 C1873 1.429 . S
C1870 C1853 1.574 . S
C1870 H1864 0.949 . S
C1870 C1874 1.368 . S
C1871 C1852 1.429 . S
C1871 C1865 1.429 . S
C1871 C1872 1.523 . S
C1872 C1853 1.368 . S
C1872 C1866 1.368 . S
C1872 C1871 1.523 . S
C1873 C1857 1.429 . S
C1873 C1869 1.429 . S
C1873 C1874 1.523 . S
C1874 C1858 1.368 . S
C1874 C1870 1.368 . S
C1874 C1873 1.523 . S
H1875 C1850 0.950 . S
H1876 C1852 0.950 . S
H1877 C1853 0.949 . S
H1878 C1855 0.950 . S
H1879 C1857 0.950 . S
C1880 C1881 1.349 . S
C1880 C1882 1.327 . S
C1880 H1905 0.950 . S
C1881 C1880 1.349 . S
C1881 C1897 1.349 . S
C1882 C1880 1.327 . S
C1882 C1901 1.429 . S
C1882 H1906 0.950 . S
C1883 C1900 1.574 1_655 S
C1883 C1902 1.368 . S
C1883 H1907 0.949 . S
H1884 C1888 0.949 . S
C1885 C1886 1.349 . S
C1885 C1887 1.327 . S
C1885 H1908 0.950 . S
C1886 C1885 1.349 . S
C1886 C1898 1.349 . S
C1887 C1885 1.327 . S
C1887 C1903 1.429 . S
C1887 H1909 0.950 . S
C1888 H1884 0.949 . S
C1888 C1896 1.574 1_455 S
C1888 C1904 1.368 . S
H1889 C1897 0.950 . S
H1890 C1895 0.950 . S
H1891 C1896 0.949 . S
H1892 C1898 0.950 . S
H1893 C1899 0.950 . S
H1894 C1900 0.949 . S
C1895 H1890 0.950 . S
C1895 C1897 1.327 . S
C1895 C1901 1.429 . S
C1896 C1888 1.574 1_655 S
C1896 H1891 0.949 . S
C1896 C1902 1.368 . S
C1897 C1881 1.349 . S
C1897 H1889 0.950 . S
C1897 C1895 1.327 . S
C1898 C1886 1.349 . S
C1898 H1892 0.950 . S
C1898 C1899 1.327 . S
C1899 H1893 0.950 . S
C1899 C1898 1.327 . S
C1899 C1903 1.429 . S
C1900 C1883 1.574 1_455 S
C1900 H1894 0.949 . S
C1900 C1904 1.368 . S
C1901 C1882 1.429 . S
C1901 C1895 1.429 . S
C1901 C1902 1.523 . S
C1902 C1883 1.368 . S
C1902 C1896 1.368 . S
C1902 C1901 1.523 . S
C1903 C1887 1.429 . S
C1903 C1899 1.429 . S
C1903 C1904 1.523 . S
C1904 C1888 1.368 . S
C1904 C1900 1.368 . S
C1904 C1903 1.523 . S
H1905 C1880 0.950 . S
H1906 C1882 0.950 . S
H1907 C1883 0.949 . S
H1908 C1885 0.950 . S
H1909 C1887 0.950 . S
C1910 C1911 1.349 . S
C1910 C1912 1.327 . S
C1910 H1935 0.950 . S
C1911 C1910 1.349 . S
C1911 C1927 1.349 . S
C1912 C1910 1.327 . S
C1912 C1931 1.429 . S
C1912 H1936 0.950 . S
C1913 C1930 1.574 . S
C1913 C1932 1.368 . S
C1913 H1937 0.949 . S
H1914 C1918 0.949 . S
C1915 C1916 1.349 . S
C1915 C1917 1.327 . S
C1915 H1938 0.950 . S
C1916 C1915 1.349 . S
C1916 C1928 1.349 . S
C1917 C1915 1.327 . S
C1917 C1933 1.429 . S
C1917 H1939 0.950 . S
C1918 H1914 0.949 . S
C1918 C1926 1.574 . S
C1918 C1934 1.368 . S
H1919 C1927 0.950 . S
H1920 C1925 0.950 . S
H1921 C1926 0.949 . S
H1922 C1928 0.950 . S
H1923 C1929 0.950 . S
H1924 C1930 0.949 . S
C1925 H1920 0.950 . S
C1925 C1927 1.327 . S
C1925 C1931 1.429 . S
C1926 C1918 1.574 . S
C1926 H1921 0.949 . S
C1926 C1932 1.368 . S
C1927 C1911 1.349 . S
C1927 H1919 0.950 . S
C1927 C1925 1.327 . S
C1928 C1916 1.349 . S
C1928 H1922 0.950 . S
C1928 C1929 1.327 . S
C1929 H1923 0.950 . S
C1929 C1928 1.327 . S
C1929 C1933 1.429 . S
C1930 C1913 1.574 . S
C1930 H1924 0.949 . S
C1930 C1934 1.368 . S
C1931 C1912 1.429 . S
C1931 C1925 1.429 . S
C1931 C1932 1.523 . S
C1932 C1913 1.368 . S
C1932 C1926 1.368 . S
C1932 C1931 1.523 . S
C1933 C1917 1.429 . S
C1933 C1929 1.429 . S
C1933 C1934 1.523 . S
C1934 C1918 1.368 . S
C1934 C1930 1.368 . S
C1934 C1933 1.523 . S
H1935 C1910 0.950 . S
H1936 C1912 0.950 . S
H1937 C1913 0.949 . S
H1938 C1915 0.950 . S
H1939 C1917 0.950 . S
C1940 C1941 1.349 . S
C1940 C1942 1.327 . S
C1940 H1965 0.950 . S
C1941 C1940 1.349 . S
C1941 C1957 1.349 . S
C1942 C1940 1.327 . S
C1942 C1961 1.429 . S
C1942 H1966 0.950 . S
C1943 C1960 1.574 . S
C1943 C1962 1.368 . S
C1943 H1967 0.949 . S
H1944 C1948 0.949 . S
C1945 C1946 1.349 . S
C1945 C1947 1.327 . S
C1945 H1968 0.950 . S
C1946 C1945 1.349 . S
C1946 C1958 1.349 . S
C1947 C1945 1.327 . S
C1947 C1963 1.429 . S
C1947 H1969 0.950 . S
C1948 H1944 0.949 . S
C1948 C1956 1.574 . S
C1948 C1964 1.368 . S
H1949 C1957 0.950 . S
H1950 C1955 0.950 . S
H1951 C1956 0.949 . S
H1952 C1958 0.950 . S
H1953 C1959 0.950 . S
H1954 C1960 0.949 . S
C1955 H1950 0.950 . S
C1955 C1957 1.327 . S
C1955 C1961 1.429 . S
C1956 C1948 1.574 . S
C1956 H1951 0.949 . S
C1956 C1962 1.368 . S
C1957 C1941 1.349 . S
C1957 H1949 0.950 . S
C1957 C1955 1.327 . S
C1958 C1946 1.349 . S
C1958 H1952 0.950 . S
C1958 C1959 1.327 . S
C1959 H1953 0.950 . S
C1959 C1958 1.327 . S
C1959 C1963 1.429 . S
C1960 C1943 1.574 . S
C1960 H1954 0.949 . S
C1960 C1964 1.368 . S
C1961 C1942 1.429 . S
C1961 C1955 1.429 . S
C1961 C1962 1.523 . S
C1962 C1943 1.368 . S
C1962 C1956 1.368 . S
C1962 C1961 1.523 . S
C1963 C1947 1.429 . S
C1963 C1959 1.429 . S
C1963 C1964 1.523 . S
C1964 C1948 1.368 . S
C1964 C1960 1.368 . S
C1964 C1963 1.523 . S
H1965 C1940 0.950 . S
H1966 C1942 0.950 . S
H1967 C1943 0.949 . S
H1968 C1945 0.950 . S
H1969 C1947 0.950 . S
C1970 C1971 1.349 . S
C1970 C1972 1.327 . S
C1970 H1995 0.950 . S
C1971 C1970 1.349 . S
C1971 C1987 1.349 . S
C1972 C1970 1.327 . S
C1972 C1991 1.429 . S
C1972 H1996 0.950 . S
C1973 C1990 1.574 . S
C1973 C1992 1.368 . S
C1973 H1997 0.949 . S
H1974 C1978 0.949 . S
C1975 C1976 1.349 . S
C1975 C1977 1.327 . S
C1975 H1998 0.950 . S
C1976 C1975 1.349 . S
C1976 C1988 1.349 . S
C1977 C1975 1.327 . S
C1977 C1993 1.429 . S
C1977 H1999 0.950 . S
C1978 H1974 0.949 . S
C1978 C1986 1.574 . S
C1978 C1994 1.368 . S
H1979 C1987 0.950 . S
H1980 C1985 0.950 . S
H1981 C1986 0.949 . S
H1982 C1988 0.950 . S
H1983 C1989 0.950 . S
H1984 C1990 0.949 . S
C1985 H1980 0.950 . S
C1985 C1987 1.327 . S
C1985 C1991 1.429 . S
C1986 C1978 1.574 . S
C1986 H1981 0.949 . S
C1986 C1992 1.368 . S
C1987 C1971 1.349 . S
C1987 H1979 0.950 . S
C1987 C1985 1.327 . S
C1988 C1976 1.349 . S
C1988 H1982 0.950 . S
C1988 C1989 1.327 . S
C1989 H1983 0.950 . S
C1989 C1988 1.327 . S
C1989 C1993 1.429 . S
C1990 C1973 1.574 . S
C1990 H1984 0.949 . S
C1990 C1994 1.368 . S
C1991 C1972 1.429 . S
C1991 C1985 1.429 . S
C1991 C1992 1.523 . S
C1992 C1973 1.368 . S
C1992 C1986 1.368 . S
C1992 C1991 1.523 . S
C1993 C1977 1.429 . S
C1993 C1989 1.429 . S
C1993 C1994 1.523 . S
C1994 C1978 1.368 . S
C1994 C1990 1.368 . S
C1994 C1993 1.523 . S
H1995 C1970 0.950 . S
H1996 C1972 0.950 . S
H1997 C1973 0.949 . S
H1998 C1975 0.950 . S
H1999 C1977 0.950 . S
C2000 C2001 1.349 . S
C2000 C2002 1.327 . S
C2000 H2025 0.950 . S
C2001 C2000 1.349 . S
C2001 C2017 1.349 . S
C2002 C2000 1.327 . S
C2002 C2021 1.429 . S
C2002 H2026 0.950 . S
C2003 C2020 1.574 . S
C2003 C2022 1.368 . S
C2003 H2027 0.949 . S
H2004 C2008 0.949 . S
C2005 C2006 1.349 . S
C2005 C2007 1.327 . S
C2005 H2028 0.950 . S
C2006 C2005 1.349 . S
C2006 C2018 1.349 . S
C2007 C2005 1.327 . S
C2007 C2023 1.429 . S
C2007 H2029 0.950 . S
C2008 H2004 0.949 . S
C2008 C2016 1.574 . S
C2008 C2024 1.368 . S
H2009 C2017 0.950 . S
H2010 C2015 0.950 . S
H2011 C2016 0.949 . S
H2012 C2018 0.950 . S
H2013 C2019 0.950 . S
H2014 C2020 0.949 . S
C2015 H2010 0.950 . S
C2015 C2017 1.327 . S
C2015 C2021 1.429 . S
C2016 C2008 1.574 . S
C2016 H2011 0.949 . S
C2016 C2022 1.368 . S
C2017 C2001 1.349 . S
C2017 H2009 0.950 . S
C2017 C2015 1.327 . S
C2018 C2006 1.349 . S
C2018 H2012 0.950 . S
C2018 C2019 1.327 . S
C2019 H2013 0.950 . S
C2019 C2018 1.327 . S
C2019 C2023 1.429 . S
C2020 C2003 1.574 . S
C2020 H2014 0.949 . S
C2020 C2024 1.368 . S
C2021 C2002 1.429 . S
C2021 C2015 1.429 . S
C2021 C2022 1.523 . S
C2022 C2003 1.368 . S
C2022 C2016 1.368 . S
C2022 C2021 1.523 . S
C2023 C2007 1.429 . S
C2023 C2019 1.429 . S
C2023 C2024 1.523 . S
C2024 C2008 1.368 . S
C2024 C2020 1.368 . S
C2024 C2023 1.523 . S
H2025 C2000 0.950 . S
H2026 C2002 0.950 . S
H2027 C2003 0.949 . S
H2028 C2005 0.950 . S
H2029 C2007 0.950 . S
C2030 C2031 1.349 . S
C2030 C2032 1.327 . S
C2030 H2055 0.950 . S
C2031 C2030 1.349 . S
C2031 C2047 1.349 . S
C2032 C2030 1.327 . S
C2032 C2051 1.429 . S
C2032 H2056 0.950 . S
C2033 C2050 1.574 . S
C2033 C2052 1.368 . S
C2033 H2057 0.949 . S
H2034 C2038 0.949 . S
C2035 C2036 1.349 . S
C2035 C2037 1.327 . S
C2035 H2058 0.950 . S
C2036 C2035 1.349 . S
C2036 C2048 1.349 . S
C2037 C2035 1.327 . S
C2037 C2053 1.429 . S
C2037 H2059 0.950 . S
C2038 H2034 0.949 . S
C2038 C2046 1.574 . S
C2038 C2054 1.368 . S
H2039 C2047 0.950 . S
H2040 C2045 0.950 . S
H2041 C2046 0.949 . S
H2042 C2048 0.950 . S
H2043 C2049 0.950 . S
H2044 C2050 0.949 . S
C2045 H2040 0.950 . S
C2045 C2047 1.327 . S
C2045 C2051 1.429 . S
C2046 C2038 1.574 . S
C2046 H2041 0.949 . S
C2046 C2052 1.368 . S
C2047 C2031 1.349 . S
C2047 H2039 0.950 . S
C2047 C2045 1.327 . S
C2048 C2036 1.349 . S
C2048 H2042 0.950 . S
C2048 C2049 1.327 . S
C2049 H2043 0.950 . S
C2049 C2048 1.327 . S
C2049 C2053 1.429 . S
C2050 C2033 1.574 . S
C2050 H2044 0.949 . S
C2050 C2054 1.368 . S
C2051 C2032 1.429 . S
C2051 C2045 1.429 . S
C2051 C2052 1.523 . S
C2052 C2033 1.368 . S
C2052 C2046 1.368 . S
C2052 C2051 1.523 . S
C2053 C2037 1.429 . S
C2053 C2049 1.429 . S
C2053 C2054 1.523 . S
C2054 C2038 1.368 . S
C2054 C2050 1.368 . S
C2054 C2053 1.523 . S
H2055 C2030 0.950 . S
H2056 C2032 0.950 . S
H2057 C2033 0.949 . S
H2058 C2035 0.950 . S
H2059 C2037 0.950 . S
C2060 C2061 1.349 . S
C2060 C2062 1.327 . S
C2060 H2085 0.950 . S
C2061 C2060 1.349 . S
C2061 C2077 1.349 . S
C2062 C2060 1.327 . S
C2062 C2081 1.429 . S
C2062 H2086 0.950 . S
C2063 C2080 1.574 . S
C2063 C2082 1.368 . S
C2063 H2087 0.949 . S
H2064 C2068 0.949 . S
C2065 C2066 1.349 . S
C2065 C2067 1.327 . S
C2065 H2088 0.950 . S
C2066 C2065 1.349 . S
C2066 C2078 1.349 . S
C2067 C2065 1.327 . S
C2067 C2083 1.429 . S
C2067 H2089 0.950 . S
C2068 H2064 0.949 . S
C2068 C2076 1.574 . S
C2068 C2084 1.368 . S
H2069 C2077 0.950 . S
H2070 C2075 0.950 . S
H2071 C2076 0.949 . S
H2072 C2078 0.950 . S
H2073 C2079 0.950 . S
H2074 C2080 0.949 . S
C2075 H2070 0.950 . S
C2075 C2077 1.327 . S
C2075 C2081 1.429 . S
C2076 C2068 1.574 . S
C2076 H2071 0.949 . S
C2076 C2082 1.368 . S
C2077 C2061 1.349 . S
C2077 H2069 0.950 . S
C2077 C2075 1.327 . S
C2078 C2066 1.349 . S
C2078 H2072 0.950 . S
C2078 C2079 1.327 . S
C2079 H2073 0.950 . S
C2079 C2078 1.327 . S
C2079 C2083 1.429 . S
C2080 C2063 1.574 . S
C2080 H2074 0.949 . S
C2080 C2084 1.368 . S
C2081 C2062 1.429 . S
C2081 C2075 1.429 . S
C2081 C2082 1.523 . S
C2082 C2063 1.368 . S
C2082 C2076 1.368 . S
C2082 C2081 1.523 . S
C2083 C2067 1.429 . S
C2083 C2079 1.429 . S
C2083 C2084 1.523 . S
C2084 C2068 1.368 . S
C2084 C2080 1.368 . S
C2084 C2083 1.523 . S
H2085 C2060 0.950 . S
H2086 C2062 0.950 . S
H2087 C2063 0.949 . S
H2088 C2065 0.950 . S
H2089 C2067 0.950 . S
C2090 C2091 1.349 . S
C2090 C2092 1.327 . S
C2090 H2115 0.950 . S
C2091 C2090 1.349 . S
C2091 C2107 1.349 . S
C2092 C2090 1.327 . S
C2092 C2111 1.429 . S
C2092 H2116 0.950 . S
C2093 C2110 1.574 . S
C2093 C2112 1.368 . S
C2093 H2117 0.949 . S
H2094 C2098 0.949 . S
C2095 C2096 1.349 . S
C2095 C2097 1.327 . S
C2095 H2118 0.950 . S
C2096 C2095 1.349 . S
C2096 C2108 1.349 . S
C2097 C2095 1.327 . S
C2097 C2113 1.429 . S
C2097 H2119 0.950 . S
C2098 H2094 0.949 . S
C2098 C2106 1.574 . S
C2098 C2114 1.368 . S
H2099 C2107 0.950 . S
H2100 C2105 0.950 . S
H2101 C2106 0.949 . S
H2102 C2108 0.950 . S
H2103 C2109 0.950 . S
H2104 C2110 0.949 . S
C2105 H2100 0.950 . S
C2105 C2107 1.327 . S
C2105 C2111 1.429 . S
C2106 C2098 1.574 . S
C2106 H2101 0.949 . S
C2106 C2112 1.368 . S
C2107 C2091 1.349 . S
C2107 H2099 0.950 . S
C2107 C2105 1.327 . S
C2108 C2096 1.349 . S
C2108 H2102 0.950 . S
C2108 C2109 1.327 . S
C2109 H2103 0.950 . S
C2109 C2108 1.327 . S
C2109 C2113 1.429 . S
C2110 C2093 1.574 . S
C2110 H2104 0.949 . S
C2110 C2114 1.368 . S
C2111 C2092 1.429 . S
C2111 C2105 1.429 . S
C2111 C2112 1.523 . S
C2112 C2093 1.368 . S
C2112 C2106 1.368 . S
C2112 C2111 1.523 . S
C2113 C2097 1.429 . S
C2113 C2109 1.429 . S
C2113 C2114 1.523 . S
C2114 C2098 1.368 . S
C2114 C2110 1.368 . S
C2114 C2113 1.523 . S
H2115 C2090 0.950 . S
H2116 C2092 0.950 . S
H2117 C2093 0.949 . S
H2118 C2095 0.950 . S
H2119 C2097 0.950 . S
C2120 C2121 1.349 . S
C2120 C2122 1.327 . S
C2120 H2145 0.950 . S
C2121 C2120 1.349 . S
C2121 C2137 1.349 . S
C2122 C2120 1.327 . S
C2122 C2141 1.429 . S
C2122 H2146 0.950 . S
C2123 C2140 1.574 . S
C2123 C2142 1.368 . S
C2123 H2147 0.949 1_565 S
H2124 C2128 0.949 . S
C2125 C2126 1.349 . S
C2125 C2127 1.327 . S
C2125 H2148 0.950 1_565 S
C2126 C2125 1.349 . S
C2126 C2138 1.349 . S
C2127 C2125 1.327 . S
C2127 C2143 1.429 . S
C2127 H2149 0.950 1_565 S
C2128 H2124 0.949 . S
C2128 C2136 1.574 . S
C2128 C2144 1.368 . S
H2129 C2137 0.950 1_545 S
H2130 C2135 0.950 1_545 S
H2131 C2136 0.949 . S
H2132 C2138 0.950 . S
H2133 C2139 0.950 . S
H2134 C2140 0.949 1_545 S
C2135 H2130 0.950 1_565 S
C2135 C2137 1.327 . S
C2135 C2141 1.429 . S
C2136 C2128 1.574 . S
C2136 H2131 0.949 . S
C2136 C2142 1.368 . S
C2137 C2121 1.349 . S
C2137 H2129 0.950 1_565 S
C2137 C2135 1.327 . S
C2138 C2126 1.349 . S
C2138 H2132 0.950 . S
C2138 C2139 1.327 . S
C2139 H2133 0.950 . S
C2139 C2138 1.327 . S
C2139 C2143 1.429 . S
C2140 C2123 1.574 . S
C2140 H2134 0.949 1_565 S
C2140 C2144 1.368 . S
C2141 C2122 1.429 . S
C2141 C2135 1.429 . S
C2141 C2142 1.523 . S
C2142 C2123 1.368 . S
C2142 C2136 1.368 . S
C2142 C2141 1.523 . S
C2143 C2127 1.429 . S
C2143 C2139 1.429 . S
C2143 C2144 1.523 . S
C2144 C2128 1.368 . S
C2144 C2140 1.368 . S
C2144 C2143 1.523 . S
H2145 C2120 0.950 . S
H2146 C2122 0.950 . S
H2147 C2123 0.949 1_545 S
H2148 C2125 0.950 1_545 S
H2149 C2127 0.950 1_545 S
C2150 C2151 1.349 . S
C2150 C2152 1.327 . S
C2150 H2175 0.950 . S
C2151 C2150 1.349 . S
C2151 C2167 1.349 . S
C2152 C2150 1.327 . S
C2152 C2171 1.429 . S
C2152 H2176 0.950 . S
C2153 C2170 1.574 1_455 S
C2153 C2172 1.368 . S
C2153 H2177 0.949 . S
H2154 C2158 0.949 . S
C2155 C2156 1.349 . S
C2155 C2157 1.327 . S
C2155 H2178 0.950 . S
C2156 C2155 1.349 . S
C2156 C2168 1.349 . S
C2157 C2155 1.327 . S
C2157 C2173 1.429 . S
C2157 H2179 0.950 . S
C2158 H2154 0.949 . S
C2158 C2166 1.574 1_655 S
C2158 C2174 1.368 . S
H2159 C2167 0.950 . S
H2160 C2165 0.950 . S
H2161 C2166 0.949 . S
H2162 C2168 0.950 . S
H2163 C2169 0.950 . S
H2164 C2170 0.949 . S
C2165 H2160 0.950 . S
C2165 C2167 1.327 . S
C2165 C2171 1.429 . S
C2166 C2158 1.574 1_455 S
C2166 H2161 0.949 . S
C2166 C2172 1.368 . S
C2167 C2151 1.349 . S
C2167 H2159 0.950 . S
C2167 C2165 1.327 . S
C2168 C2156 1.349 . S
C2168 H2162 0.950 . S
C2168 C2169 1.327 . S
C2169 H2163 0.950 . S
C2169 C2168 1.327 . S
C2169 C2173 1.429 . S
C2170 C2153 1.574 1_655 S
C2170 H2164 0.949 . S
C2170 C2174 1.368 . S
C2171 C2152 1.429 . S
C2171 C2165 1.429 . S
C2171 C2172 1.523 . S
C2172 C2153 1.368 . S
C2172 C2166 1.368 . S
C2172 C2171 1.523 . S
C2173 C2157 1.429 . S
C2173 C2169 1.429 . S
C2173 C2174 1.523 . S
C2174 C2158 1.368 . S
C2174 C2170 1.368 . S
C2174 C2173 1.523 . S
H2175 C2150 0.950 . S
H2176 C2152 0.950 . S
H2177 C2153 0.949 . S
H2178 C2155 0.950 . S
H2179 C2157 0.950 . S
C2180 C2181 1.349 . S
C2180 C2182 1.327 . S
C2180 H2205 0.950 1_545 S
C2181 C2180 1.349 . S
C2181 C2197 1.349 . S
C2182 C2180 1.327 . S
C2182 C2201 1.429 . S
C2182 H2206 0.950 1_545 S
C2183 C2200 1.574 . S
C2183 C2202 1.368 . S
C2183 H2207 0.949 . S
H2184 C2188 0.949 1_565 S
C2185 C2186 1.349 . S
C2185 C2187 1.327 . S
C2185 H2208 0.950 . S
C2186 C2185 1.349 . S
C2186 C2198 1.349 . S
C2187 C2185 1.327 . S
C2187 C2203 1.429 . S
C2187 H2209 0.950 . S
C2188 H2184 0.949 1_545 S
C2188 C2196 1.574 . S
C2188 C2204 1.368 . S
H2189 C2197 0.950 . S
H2190 C2195 0.950 . S
H2191 C2196 0.949 1_565 S
H2192 C2198 0.950 1_565 S
H2193 C2199 0.950 1_565 S
H2194 C2200 0.949 . S
C2195 H2190 0.950 . S
C2195 C2197 1.327 . S
C2195 C2201 1.429 . S
C2196 C2188 1.574 . S
C2196 H2191 0.949 1_545 S
C2196 C2202 1.368 . S
C2197 C2181 1.349 . S
C2197 H2189 0.950 . S
C2197 C2195 1.327 . S
C2198 C2186 1.349 . S
C2198 H2192 0.950 1_545 S
C2198 C2199 1.327 . S
C2199 H2193 0.950 1_545 S
C2199 C2198 1.327 . S
C2199 C2203 1.429 . S
C2200 C2183 1.574 . S
C2200 H2194 0.949 . S
C2200 C2204 1.368 . S
C2201 C2182 1.429 . S
C2201 C2195 1.429 . S
C2201 C2202 1.523 . S
C2202 C2183 1.368 . S
C2202 C2196 1.368 . S
C2202 C2201 1.523 . S
C2203 C2187 1.429 . S
C2203 C2199 1.429 . S
C2203 C2204 1.523 . S
C2204 C2188 1.368 . S
C2204 C2200 1.368 . S
C2204 C2203 1.523 . S
H2205 C2180 0.950 1_565 S
H2206 C2182 0.950 1_565 S
H2207 C2183 0.949 . S
H2208 C2185 0.950 . S
H2209 C2187 0.950 . S
C2210 C2211 1.349 . S
C2210 C2212 1.327 . S
C2210 H2235 0.950 . S
C2211 C2210 1.349 . S
C2211 C2227 1.349 . S
C2212 C2210 1.327 . S
C2212 C2231 1.429 . S
C2212 H2236 0.950 . S
C2213 C2230 1.574 1_455 S
C2213 C2232 1.368 . S
C2213 H2237 0.949 . S
H2214 C2218 0.949 . S
C2215 C2216 1.349 . S
C2215 C2217 1.327 . S
C2215 H2238 0.950 . S
C2216 C2215 1.349 . S
C2216 C2228 1.349 . S
C2217 C2215 1.327 . S
C2217 C2233 1.429 . S
C2217 H2239 0.950 . S
C2218 H2214 0.949 . S
C2218 C2226 1.574 1_655 S
C2218 C2234 1.368 . S
H2219 C2227 0.950 . S
H2220 C2225 0.950 . S
H2221 C2226 0.949 . S
H2222 C2228 0.950 . S
H2223 C2229 0.950 . S
H2224 C2230 0.949 . S
C2225 H2220 0.950 . S
C2225 C2227 1.327 . S
C2225 C2231 1.429 . S
C2226 C2218 1.574 1_455 S
C2226 H2221 0.949 . S
C2226 C2232 1.368 . S
C2227 C2211 1.349 . S
C2227 H2219 0.950 . S
C2227 C2225 1.327 . S
C2228 C2216 1.349 . S
C2228 H2222 0.950 . S
C2228 C2229 1.327 . S
C2229 H2223 0.950 . S
C2229 C2228 1.327 . S
C2229 C2233 1.429 . S
C2230 C2213 1.574 1_655 S
C2230 H2224 0.949 . S
C2230 C2234 1.368 . S
C2231 C2212 1.429 . S
C2231 C2225 1.429 . S
C2231 C2232 1.523 . S
C2232 C2213 1.368 . S
C2232 C2226 1.368 . S
C2232 C2231 1.523 . S
C2233 C2217 1.429 . S
C2233 C2229 1.429 . S
C2233 C2234 1.523 . S
C2234 C2218 1.368 . S
C2234 C2230 1.368 . S
C2234 C2233 1.523 . S
H2235 C2210 0.950 . S
H2236 C2212 0.950 . S
H2237 C2213 0.949 . S
H2238 C2215 0.950 . S
H2239 C2217 0.950 . S
C2240 C2241 1.349 . S
C2240 C2242 1.327 . S
C2240 H2265 0.950 . S
C2241 C2240 1.349 . S
C2241 C2257 1.349 . S
C2242 C2240 1.327 . S
C2242 C2261 1.429 . S
C2242 H2266 0.950 . S
C2243 C2260 1.574 . S
C2243 C2262 1.368 . S
C2243 H2267 0.949 . S
H2244 C2248 0.949 . S
C2245 C2246 1.349 . S
C2245 C2247 1.327 . S
C2245 H2268 0.950 . S
C2246 C2245 1.349 . S
C2246 C2258 1.349 . S
C2247 C2245 1.327 . S
C2247 C2263 1.429 . S
C2247 H2269 0.950 . S
C2248 H2244 0.949 . S
C2248 C2256 1.574 . S
C2248 C2264 1.368 . S
H2249 C2257 0.950 . S
H2250 C2255 0.950 . S
H2251 C2256 0.949 . S
H2252 C2258 0.950 . S
H2253 C2259 0.950 . S
H2254 C2260 0.949 . S
C2255 H2250 0.950 . S
C2255 C2257 1.327 . S
C2255 C2261 1.429 . S
C2256 C2248 1.574 . S
C2256 H2251 0.949 . S
C2256 C2262 1.368 . S
C2257 C2241 1.349 . S
C2257 H2249 0.950 . S
C2257 C2255 1.327 . S
C2258 C2246 1.349 . S
C2258 H2252 0.950 . S
C2258 C2259 1.327 . S
C2259 H2253 0.950 . S
C2259 C2258 1.327 . S
C2259 C2263 1.429 . S
C2260 C2243 1.574 . S
C2260 H2254 0.949 . S
C2260 C2264 1.368 . S
C2261 C2242 1.429 . S
C2261 C2255 1.429 . S
C2261 C2262 1.523 . S
C2262 C2243 1.368 . S
C2262 C2256 1.368 . S
C2262 C2261 1.523 . S
C2263 C2247 1.429 . S
C2263 C2259 1.429 . S
C2263 C2264 1.523 . S
C2264 C2248 1.368 . S
C2264 C2260 1.368 . S
C2264 C2263 1.523 . S
H2265 C2240 0.950 . S
H2266 C2242 0.950 . S
H2267 C2243 0.949 . S
H2268 C2245 0.950 . S
H2269 C2247 0.950 . S
C2270 C2271 1.349 . S
C2270 C2272 1.327 . S
C2270 H2295 0.950 . S
C2271 C2270 1.349 . S
C2271 C2287 1.349 . S
C2272 C2270 1.327 . S
C2272 C2291 1.429 . S
C2272 H2296 0.950 . S
C2273 C2290 1.574 . S
C2273 C2292 1.368 . S
C2273 H2297 0.949 . S
H2274 C2278 0.949 . S
C2275 C2276 1.349 . S
C2275 C2277 1.327 . S
C2275 H2298 0.950 . S
C2276 C2275 1.349 . S
C2276 C2288 1.349 . S
C2277 C2275 1.327 . S
C2277 C2293 1.429 . S
C2277 H2299 0.950 . S
C2278 H2274 0.949 . S
C2278 C2286 1.574 . S
C2278 C2294 1.368 . S
H2279 C2287 0.950 . S
H2280 C2285 0.950 . S
H2281 C2286 0.949 . S
H2282 C2288 0.950 . S
H2283 C2289 0.950 . S
H2284 C2290 0.949 . S
C2285 H2280 0.950 . S
C2285 C2287 1.327 . S
C2285 C2291 1.429 . S
C2286 C2278 1.574 . S
C2286 H2281 0.949 . S
C2286 C2292 1.368 . S
C2287 C2271 1.349 . S
C2287 H2279 0.950 . S
C2287 C2285 1.327 . S
C2288 C2276 1.349 . S
C2288 H2282 0.950 . S
C2288 C2289 1.327 . S
C2289 H2283 0.950 . S
C2289 C2288 1.327 . S
C2289 C2293 1.429 . S
C2290 C2273 1.574 . S
C2290 H2284 0.949 . S
C2290 C2294 1.368 . S
C2291 C2272 1.429 . S
C2291 C2285 1.429 . S
C2291 C2292 1.523 . S
C2292 C2273 1.368 . S
C2292 C2286 1.368 . S
C2292 C2291 1.523 . S
C2293 C2277 1.429 . S
C2293 C2289 1.429 . S
C2293 C2294 1.523 . S
C2294 C2278 1.368 . S
C2294 C2290 1.368 . S
C2294 C2293 1.523 . S
H2295 C2270 0.950 . S
H2296 C2272 0.950 . S
H2297 C2273 0.949 . S
H2298 C2275 0.950 . S
H2299 C2277 0.950 . S
C2300 C2301 1.349 . S
C2300 C2302 1.327 . S
C2300 H2325 0.950 . S
C2301 C2300 1.349 . S
C2301 C2317 1.349 . S
C2302 C2300 1.327 . S
C2302 C2321 1.429 . S
C2302 H2326 0.950 . S
C2303 C2320 1.574 . S
C2303 C2322 1.368 . S
C2303 H2327 0.949 . S
H2304 C2308 0.949 . S
C2305 C2306 1.349 . S
C2305 C2307 1.327 . S
C2305 H2328 0.950 . S
C2306 C2305 1.349 . S
C2306 C2318 1.349 . S
C2307 C2305 1.327 . S
C2307 C2323 1.429 . S
C2307 H2329 0.950 . S
C2308 H2304 0.949 . S
C2308 C2316 1.574 . S
C2308 C2324 1.368 . S
H2309 C2317 0.950 . S
H2310 C2315 0.950 . S
H2311 C2316 0.949 . S
H2312 C2318 0.950 . S
H2313 C2319 0.950 . S
H2314 C2320 0.949 . S
C2315 H2310 0.950 . S
C2315 C2317 1.327 . S
C2315 C2321 1.429 . S
C2316 C2308 1.574 . S
C2316 H2311 0.949 . S
C2316 C2322 1.368 . S
C2317 C2301 1.349 . S
C2317 H2309 0.950 . S
C2317 C2315 1.327 . S
C2318 C2306 1.349 . S
C2318 H2312 0.950 . S
C2318 C2319 1.327 . S
C2319 H2313 0.950 . S
C2319 C2318 1.327 . S
C2319 C2323 1.429 . S
C2320 C2303 1.574 . S
C2320 H2314 0.949 . S
C2320 C2324 1.368 . S
C2321 C2302 1.429 . S
C2321 C2315 1.429 . S
C2321 C2322 1.523 . S
C2322 C2303 1.368 . S
C2322 C2316 1.368 . S
C2322 C2321 1.523 . S
C2323 C2307 1.429 . S
C2323 C2319 1.429 . S
C2323 C2324 1.523 . S
C2324 C2308 1.368 . S
C2324 C2320 1.368 . S
C2324 C2323 1.523 . S
H2325 C2300 0.950 . S
H2326 C2302 0.950 . S
H2327 C2303 0.949 . S
H2328 C2305 0.950 . S
H2329 C2307 0.950 . S
C2330 C2331 1.349 . S
C2330 C2332 1.327 . S
C2330 H2355 0.950 . S
C2331 C2330 1.349 . S
C2331 C2347 1.349 . S
C2332 C2330 1.327 . S
C2332 C2351 1.429 . S
C2332 H2356 0.950 . S
C2333 C2350 1.574 . S
C2333 C2352 1.368 . S
C2333 H2357 0.949 . S
H2334 C2338 0.949 . S
C2335 C2336 1.349 . S
C2335 C2337 1.327 . S
C2335 H2358 0.950 . S
C2336 C2335 1.349 . S
C2336 C2348 1.349 . S
C2337 C2335 1.327 . S
C2337 C2353 1.429 . S
C2337 H2359 0.950 . S
C2338 H2334 0.949 . S
C2338 C2346 1.574 . S
C2338 C2354 1.368 . S
H2339 C2347 0.950 . S
H2340 C2345 0.950 . S
H2341 C2346 0.949 . S
H2342 C2348 0.950 . S
H2343 C2349 0.950 . S
H2344 C2350 0.949 . S
C2345 H2340 0.950 . S
C2345 C2347 1.327 . S
C2345 C2351 1.429 . S
C2346 C2338 1.574 . S
C2346 H2341 0.949 . S
C2346 C2352 1.368 . S
C2347 C2331 1.349 . S
C2347 H2339 0.950 . S
C2347 C2345 1.327 . S
C2348 C2336 1.349 . S
C2348 H2342 0.950 . S
C2348 C2349 1.327 . S
C2349 H2343 0.950 . S
C2349 C2348 1.327 . S
C2349 C2353 1.429 . S
C2350 C2333 1.574 . S
C2350 H2344 0.949 . S
C2350 C2354 1.368 . S
C2351 C2332 1.429 . S
C2351 C2345 1.429 . S
C2351 C2352 1.523 . S
C2352 C2333 1.368 . S
C2352 C2346 1.368 . S
C2352 C2351 1.523 . S
C2353 C2337 1.429 . S
C2353 C2349 1.429 . S
C2353 C2354 1.523 . S
C2354 C2338 1.368 . S
C2354 C2350 1.368 . S
C2354 C2353 1.523 . S
H2355 C2330 0.950 . S
H2356 C2332 0.950 . S
H2357 C2333 0.949 . S
H2358 C2335 0.950 . S
H2359 C2337 0.950 . S
C2360 C2361 1.349 . S
C2360 C2362 1.327 . S
C2360 H2385 0.950 . S
C2361 C2360 1.349 . S
C2361 C2377 1.349 . S
C2362 C2360 1.327 . S
C2362 C2381 1.429 . S
C2362 H2386 0.950 . S
C2363 C2380 1.574 . S
C2363 C2382 1.368 . S
C2363 H2387 0.949 . S
H2364 C2368 0.949 . S
C2365 C2366 1.349 . S
C2365 C2367 1.327 . S
C2365 H2388 0.950 . S
C2366 C2365 1.349 . S
C2366 C2378 1.349 . S
C2367 C2365 1.327 . S
C2367 C2383 1.429 . S
C2367 H2389 0.950 . S
C2368 H2364 0.949 . S
C2368 C2376 1.574 . S
C2368 C2384 1.368 . S
H2369 C2377 0.950 . S
H2370 C2375 0.950 . S
H2371 C2376 0.949 . S
H2372 C2378 0.950 . S
H2373 C2379 0.950 . S
H2374 C2380 0.949 . S
C2375 H2370 0.950 . S
C2375 C2377 1.327 . S
C2375 C2381 1.429 . S
C2376 C2368 1.574 . S
C2376 H2371 0.949 . S
C2376 C2382 1.368 . S
C2377 C2361 1.349 . S
C2377 H2369 0.950 . S
C2377 C2375 1.327 . S
C2378 C2366 1.349 . S
C2378 H2372 0.950 . S
C2378 C2379 1.327 . S
C2379 H2373 0.950 . S
C2379 C2378 1.327 . S
C2379 C2383 1.429 . S
C2380 C2363 1.574 . S
C2380 H2374 0.949 . S
C2380 C2384 1.368 . S
C2381 C2362 1.429 . S
C2381 C2375 1.429 . S
C2381 C2382 1.523 . S
C2382 C2363 1.368 . S
C2382 C2376 1.368 . S
C2382 C2381 1.523 . S
C2383 C2367 1.429 . S
C2383 C2379 1.429 . S
C2383 C2384 1.523 . S
C2384 C2368 1.368 . S
C2384 C2380 1.368 . S
C2384 C2383 1.523 . S
H2385 C2360 0.950 . S
H2386 C2362 0.950 . S
H2387 C2363 0.949 . S
H2388 C2365 0.950 . S
H2389 C2367 0.950 . S
C2390 C2391 1.349 . S
C2390 C2392 1.327 . S
C2390 H2415 0.950 . S
C2391 C2390 1.349 . S
C2391 C2407 1.349 . S
C2392 C2390 1.327 . S
C2392 C2411 1.429 . S
C2392 H2416 0.950 . S
C2393 C2410 1.574 . S
C2393 C2412 1.368 . S
C2393 H2417 0.949 . S
H2394 C2398 0.949 . S
C2395 C2396 1.349 . S
C2395 C2397 1.327 . S
C2395 H2418 0.950 . S
C2396 C2395 1.349 . S
C2396 C2408 1.349 . S
C2397 C2395 1.327 . S
C2397 C2413 1.429 . S
C2397 H2419 0.950 . S
C2398 H2394 0.949 . S
C2398 C2406 1.574 . S
C2398 C2414 1.368 . S
H2399 C2407 0.950 . S
H2400 C2405 0.950 . S
H2401 C2406 0.949 . S
H2402 C2408 0.950 . S
H2403 C2409 0.950 . S
H2404 C2410 0.949 . S
C2405 H2400 0.950 . S
C2405 C2407 1.327 . S
C2405 C2411 1.429 . S
C2406 C2398 1.574 . S
C2406 H2401 0.949 . S
C2406 C2412 1.368 . S
C2407 C2391 1.349 . S
C2407 H2399 0.950 . S
C2407 C2405 1.327 . S
C2408 C2396 1.349 . S
C2408 H2402 0.950 . S
C2408 C2409 1.327 . S
C2409 H2403 0.950 . S
C2409 C2408 1.327 . S
C2409 C2413 1.429 . S
C2410 C2393 1.574 . S
C2410 H2404 0.949 . S
C2410 C2414 1.368 . S
C2411 C2392 1.429 . S
C2411 C2405 1.429 . S
C2411 C2412 1.523 . S
C2412 C2393 1.368 . S
C2412 C2406 1.368 . S
C2412 C2411 1.523 . S
C2413 C2397 1.429 . S
C2413 C2409 1.429 . S
C2413 C2414 1.523 . S
C2414 C2398 1.368 . S
C2414 C2410 1.368 . S
C2414 C2413 1.523 . S
H2415 C2390 0.950 . S
H2416 C2392 0.950 . S
H2417 C2393 0.949 . S
H2418 C2395 0.950 . S
H2419 C2397 0.950 . S
C2420 C2421 1.349 . S
C2420 C2422 1.327 . S
C2420 H2445 0.950 . S
C2421 C2420 1.349 . S
C2421 C2437 1.349 . S
C2422 C2420 1.327 . S
C2422 C2441 1.429 . S
C2422 H2446 0.950 . S
C2423 C2440 1.574 . S
C2423 C2442 1.368 . S
C2423 H2447 0.949 . S
H2424 C2428 0.949 . S
C2425 C2426 1.349 . S
C2425 C2427 1.327 . S
C2425 H2448 0.950 . S
C2426 C2425 1.349 . S
C2426 C2438 1.349 . S
C2427 C2425 1.327 . S
C2427 C2443 1.429 . S
C2427 H2449 0.950 . S
C2428 H2424 0.949 . S
C2428 C2436 1.574 . S
C2428 C2444 1.368 . S
H2429 C2437 0.950 . S
H2430 C2435 0.950 . S
H2431 C2436 0.949 . S
H2432 C2438 0.950 . S
H2433 C2439 0.950 . S
H2434 C2440 0.949 . S
C2435 H2430 0.950 . S
C2435 C2437 1.327 . S
C2435 C2441 1.429 . S
C2436 C2428 1.574 . S
C2436 H2431 0.949 . S
C2436 C2442 1.368 . S
C2437 C2421 1.349 . S
C2437 H2429 0.950 . S
C2437 C2435 1.327 . S
C2438 C2426 1.349 . S
C2438 H2432 0.950 . S
C2438 C2439 1.327 . S
C2439 H2433 0.950 . S
C2439 C2438 1.327 . S
C2439 C2443 1.429 . S
C2440 C2423 1.574 . S
C2440 H2434 0.949 . S
C2440 C2444 1.368 . S
C2441 C2422 1.429 . S
C2441 C2435 1.429 . S
C2441 C2442 1.523 . S
C2442 C2423 1.368 . S
C2442 C2436 1.368 . S
C2442 C2441 1.523 . S
C2443 C2427 1.429 . S
C2443 C2439 1.429 . S
C2443 C2444 1.523 . S
C2444 C2428 1.368 . S
C2444 C2440 1.368 . S
C2444 C2443 1.523 . S
H2445 C2420 0.950 . S
H2446 C2422 0.950 . S
H2447 C2423 0.949 . S
H2448 C2425 0.950 . S
H2449 C2427 0.950 . S
C2450 C2451 1.349 . S
C2450 C2452 1.327 . S
C2450 H2475 0.950 . S
C2451 C2450 1.349 . S
C2451 C2467 1.349 . S
C2452 C2450 1.327 . S
C2452 C2471 1.429 . S
C2452 H2476 0.950 . S
C2453 C2470 1.574 . S
C2453 C2472 1.368 . S
C2453 H2477 0.949 . S
H2454 C2458 0.949 . S
C2455 C2456 1.349 . S
C2455 C2457 1.327 . S
C2455 H2478 0.950 . S
C2456 C2455 1.349 . S
C2456 C2468 1.349 . S
C2457 C2455 1.327 . S
C2457 C2473 1.429 . S
C2457 H2479 0.950 . S
C2458 H2454 0.949 . S
C2458 C2466 1.574 . S
C2458 C2474 1.368 . S
H2459 C2467 0.950 . S
H2460 C2465 0.950 . S
H2461 C2466 0.949 . S
H2462 C2468 0.950 . S
H2463 C2469 0.950 . S
H2464 C2470 0.949 . S
C2465 H2460 0.950 . S
C2465 C2467 1.327 . S
C2465 C2471 1.429 . S
C2466 C2458 1.574 . S
C2466 H2461 0.949 . S
C2466 C2472 1.368 . S
C2467 C2451 1.349 . S
C2467 H2459 0.950 . S
C2467 C2465 1.327 . S
C2468 C2456 1.349 . S
C2468 H2462 0.950 . S
C2468 C2469 1.327 . S
C2469 H2463 0.950 . S
C2469 C2468 1.327 . S
C2469 C2473 1.429 . S
C2470 C2453 1.574 . S
C2470 H2464 0.949 . S
C2470 C2474 1.368 . S
C2471 C2452 1.429 . S
C2471 C2465 1.429 . S
C2471 C2472 1.523 . S
C2472 C2453 1.368 . S
C2472 C2466 1.368 . S
C2472 C2471 1.523 . S
C2473 C2457 1.429 . S
C2473 C2469 1.429 . S
C2473 C2474 1.523 . S
C2474 C2458 1.368 . S
C2474 C2470 1.368 . S
C2474 C2473 1.523 . S
H2475 C2450 0.950 . S
H2476 C2452 0.950 . S
H2477 C2453 0.949 . S
H2478 C2455 0.950 . S
H2479 C2457 0.950 . S
C2480 C2481 1.349 . S
C2480 C2482 1.327 . S
C2480 H2505 0.950 . S
C2481 C2480 1.349 . S
C2481 C2497 1.349 . S
C2482 C2480 1.327 . S
C2482 C2501 1.429 . S
C2482 H2506 0.950 . S
C2483 C2500 1.574 . S
C2483 C2502 1.368 . S
C2483 H2507 0.949 . S
H2484 C2488 0.949 . S
C2485 C2486 1.349 . S
C2485 C2487 1.327 . S
C2485 H2508 0.950 . S
C2486 C2485 1.349 . S
C2486 C2498 1.349 . S
C2487 C2485 1.327 . S
C2487 C2503 1.429 . S
C2487 H2509 0.950 . S
C2488 H2484 0.949 . S
C2488 C2496 1.574 . S
C2488 C2504 1.368 . S
H2489 C2497 0.950 . S
H2490 C2495 0.950 . S
H2491 C2496 0.949 . S
H2492 C2498 0.950 . S
H2493 C2499 0.950 . S
H2494 C2500 0.949 . S
C2495 H2490 0.950 . S
C2495 C2497 1.327 . S
C2495 C2501 1.429 . S
C2496 C2488 1.574 . S
C2496 H2491 0.949 . S
C2496 C2502 1.368 . S
C2497 C2481 1.349 . S
C2497 H2489 0.950 . S
C2497 C2495 1.327 . S
C2498 C2486 1.349 . S
C2498 H2492 0.950 . S
C2498 C2499 1.327 . S
C2499 H2493 0.950 . S
C2499 C2498 1.327 . S
C2499 C2503 1.429 . S
C2500 C2483 1.574 . S
C2500 H2494 0.949 . S
C2500 C2504 1.368 . S
C2501 C2482 1.429 . S
C2501 C2495 1.429 . S
C2501 C2502 1.523 . S
C2502 C2483 1.368 . S
C2502 C2496 1.368 . S
C2502 C2501 1.523 . S
C2503 C2487 1.429 . S
C2503 C2499 1.429 . S
C2503 C2504 1.523 . S
C2504 C2488 1.368 . S
C2504 C2500 1.368 . S
C2504 C2503 1.523 . S
H2505 C2480 0.950 . S
H2506 C2482 0.950 . S
H2507 C2483 0.949 . S
H2508 C2485 0.950 . S
H2509 C2487 0.950 . S
C2510 C2511 1.349 . S
C2510 C2512 1.327 . S
C2510 H2535 0.950 . S
C2511 C2510 1.349 . S
C2511 C2527 1.349 . S
C2512 C2510 1.327 . S
C2512 C2531 1.429 . S
C2512 H2536 0.950 . S
C2513 C2530 1.574 . S
C2513 C2532 1.368 . S
C2513 H2537 0.949 . S
H2514 C2518 0.949 . S
C2515 C2516 1.349 . S
C2515 C2517 1.327 . S
C2515 H2538 0.950 . S
C2516 C2515 1.349 . S
C2516 C2528 1.349 . S
C2517 C2515 1.327 . S
C2517 C2533 1.429 . S
C2517 H2539 0.950 . S
C2518 H2514 0.949 . S
C2518 C2526 1.574 . S
C2518 C2534 1.368 . S
H2519 C2527 0.950 . S
H2520 C2525 0.950 . S
H2521 C2526 0.949 . S
H2522 C2528 0.950 . S
H2523 C2529 0.950 . S
H2524 C2530 0.949 . S
C2525 H2520 0.950 . S
C2525 C2527 1.327 . S
C2525 C2531 1.429 . S
C2526 C2518 1.574 . S
C2526 H2521 0.949 . S
C2526 C2532 1.368 . S
C2527 C2511 1.349 . S
C2527 H2519 0.950 . S
C2527 C2525 1.327 . S
C2528 C2516 1.349 . S
C2528 H2522 0.950 . S
C2528 C2529 1.327 . S
C2529 H2523 0.950 . S
C2529 C2528 1.327 . S
C2529 C2533 1.429 . S
C2530 C2513 1.574 . S
C2530 H2524 0.949 . S
C2530 C2534 1.368 . S
C2531 C2512 1.429 . S
C2531 C2525 1.429 . S
C2531 C2532 1.523 . S
C2532 C2513 1.368 . S
C2532 C2526 1.368 . S
C2532 C2531 1.523 . S
C2533 C2517 1.429 . S
C2533 C2529 1.429 . S
C2533 C2534 1.523 . S
C2534 C2518 1.368 . S
C2534 C2530 1.368 . S
C2534 C2533 1.523 . S
H2535 C2510 0.950 . S
H2536 C2512 0.950 . S
H2537 C2513 0.949 . S
H2538 C2515 0.950 . S
H2539 C2517 0.950 . S
C2540 C2541 1.349 . S
C2540 C2542 1.327 . S
C2540 H2565 0.950 . S
C2541 C2540 1.349 . S
C2541 C2557 1.349 . S
C2542 C2540 1.327 . S
C2542 C2561 1.429 . S
C2542 H2566 0.950 . S
C2543 C2560 1.574 . S
C2543 C2562 1.368 . S
C2543 H2567 0.949 . S
H2544 C2548 0.949 . S
C2545 C2546 1.349 . S
C2545 C2547 1.327 . S
C2545 H2568 0.950 . S
C2546 C2545 1.349 . S
C2546 C2558 1.349 . S
C2547 C2545 1.327 . S
C2547 C2563 1.429 . S
C2547 H2569 0.950 . S
C2548 H2544 0.949 . S
C2548 C2556 1.574 . S
C2548 C2564 1.368 . S
H2549 C2557 0.950 . S
H2550 C2555 0.950 . S
H2551 C2556 0.949 . S
H2552 C2558 0.950 . S
H2553 C2559 0.950 . S
H2554 C2560 0.949 . S
C2555 H2550 0.950 . S
C2555 C2557 1.327 . S
C2555 C2561 1.429 . S
C2556 C2548 1.574 . S
C2556 H2551 0.949 . S
C2556 C2562 1.368 . S
C2557 C2541 1.349 . S
C2557 H2549 0.950 . S
C2557 C2555 1.327 . S
C2558 C2546 1.349 . S
C2558 H2552 0.950 . S
C2558 C2559 1.327 . S
C2559 H2553 0.950 . S
C2559 C2558 1.327 . S
C2559 C2563 1.429 . S
C2560 C2543 1.574 . S
C2560 H2554 0.949 . S
C2560 C2564 1.368 . S
C2561 C2542 1.429 . S
C2561 C2555 1.429 . S
C2561 C2562 1.523 . S
C2562 C2543 1.368 . S
C2562 C2556 1.368 . S
C2562 C2561 1.523 . S
C2563 C2547 1.429 . S
C2563 C2559 1.429 . S
C2563 C2564 1.523 . S
C2564 C2548 1.368 . S
C2564 C2560 1.368 . S
C2564 C2563 1.523 . S
H2565 C2540 0.950 . S
H2566 C2542 0.950 . S
H2567 C2543 0.949 . S
H2568 C2545 0.950 . S
H2569 C2547 0.950 . S
C2570 C2571 1.349 . S
C2570 C2572 1.327 . S
C2570 H2595 0.950 . S
C2571 C2570 1.349 . S
C2571 C2587 1.349 . S
C2572 C2570 1.327 . S
C2572 C2591 1.429 . S
C2572 H2596 0.950 . S
C2573 C2590 1.574 . S
C2573 C2592 1.368 . S
C2573 H2597 0.949 . S
H2574 C2578 0.949 . S
C2575 C2576 1.349 . S
C2575 C2577 1.327 . S
C2575 H2598 0.950 . S
C2576 C2575 1.349 . S
C2576 C2588 1.349 . S
C2577 C2575 1.327 . S
C2577 C2593 1.429 . S
C2577 H2599 0.950 . S
C2578 H2574 0.949 . S
C2578 C2586 1.574 . S
C2578 C2594 1.368 . S
H2579 C2587 0.950 . S
H2580 C2585 0.950 . S
H2581 C2586 0.949 . S
H2582 C2588 0.950 . S
H2583 C2589 0.950 . S
H2584 C2590 0.949 . S
C2585 H2580 0.950 . S
C2585 C2587 1.327 . S
C2585 C2591 1.429 . S
C2586 C2578 1.574 . S
C2586 H2581 0.949 . S
C2586 C2592 1.368 . S
C2587 C2571 1.349 . S
C2587 H2579 0.950 . S
C2587 C2585 1.327 . S
C2588 C2576 1.349 . S
C2588 H2582 0.950 . S
C2588 C2589 1.327 . S
C2589 H2583 0.950 . S
C2589 C2588 1.327 . S
C2589 C2593 1.429 . S
C2590 C2573 1.574 . S
C2590 H2584 0.949 . S
C2590 C2594 1.368 . S
C2591 C2572 1.429 . S
C2591 C2585 1.429 . S
C2591 C2592 1.523 . S
C2592 C2573 1.368 . S
C2592 C2586 1.368 . S
C2592 C2591 1.523 . S
C2593 C2577 1.429 . S
C2593 C2589 1.429 . S
C2593 C2594 1.523 . S
C2594 C2578 1.368 . S
C2594 C2590 1.368 . S
C2594 C2593 1.523 . S
H2595 C2570 0.950 . S
H2596 C2572 0.950 . S
H2597 C2573 0.949 . S
H2598 C2575 0.950 . S
H2599 C2577 0.950 . S
C2600 C2601 1.349 . S
C2600 C2602 1.327 . S
C2600 H2625 0.950 . S
C2601 C2600 1.349 . S
C2601 C2617 1.349 . S
C2602 C2600 1.327 . S
C2602 C2621 1.429 . S
C2602 H2626 0.950 . S
C2603 C2620 1.574 . S
C2603 C2622 1.368 . S
C2603 H2627 0.949 . S
H2604 C2608 0.949 . S
C2605 C2606 1.349 . S
C2605 C2607 1.327 . S
C2605 H2628 0.950 . S
C2606 C2605 1.349 . S
C2606 C2618 1.349 . S
C2607 C2605 1.327 . S
C2607 C2623 1.429 . S
C2607 H2629 0.950 . S
C2608 H2604 0.949 . S
C2608 C2616 1.574 . S
C2608 C2624 1.368 . S
H2609 C2617 0.950 . S
H2610 C2615 0.950 . S
H2611 C2616 0.949 . S
H2612 C2618 0.950 . S
H2613 C2619 0.950 . S
H2614 C2620 0.949 . S
C2615 H2610 0.950 . S
C2615 C2617 1.327 . S
C2615 C2621 1.429 . S
C2616 C2608 1.574 . S
C2616 H2611 0.949 . S
C2616 C2622 1.368 . S
C2617 C2601 1.349 . S
C2617 H2609 0.950 . S
C2617 C2615 1.327 . S
C2618 C2606 1.349 . S
C2618 H2612 0.950 . S
C2618 C2619 1.327 . S
C2619 H2613 0.950 . S
C2619 C2618 1.327 . S
C2619 C2623 1.429 . S
C2620 C2603 1.574 . S
C2620 H2614 0.949 . S
C2620 C2624 1.368 . S
C2621 C2602 1.429 . S
C2621 C2615 1.429 . S
C2621 C2622 1.523 . S
C2622 C2603 1.368 . S
C2622 C2616 1.368 . S
C2622 C2621 1.523 . S
C2623 C2607 1.429 . S
C2623 C2619 1.429 . S
C2623 C2624 1.523 . S
C2624 C2608 1.368 . S
C2624 C2620 1.368 . S
C2624 C2623 1.523 . S
H2625 C2600 0.950 . S
H2626 C2602 0.950 . S
H2627 C2603 0.949 . S
H2628 C2605 0.950 . S
H2629 C2607 0.950 . S
C2630 C2631 1.349 . S
C2630 C2632 1.327 . S
C2630 H2655 0.950 . S
C2631 C2630 1.349 . S
C2631 C2647 1.349 . S
C2632 C2630 1.327 . S
C2632 C2651 1.429 . S
C2632 H2656 0.950 . S
C2633 C2650 1.574 . S
C2633 C2652 1.368 . S
C2633 H2657 0.949 . S
H2634 C2638 0.949 . S
C2635 C2636 1.349 . S
C2635 C2637 1.327 . S
C2635 H2658 0.950 . S
C2636 C2635 1.349 . S
C2636 C2648 1.349 . S
C2637 C2635 1.327 . S
C2637 C2653 1.429 . S
C2637 H2659 0.950 . S
C2638 H2634 0.949 . S
C2638 C2646 1.574 . S
C2638 C2654 1.368 . S
H2639 C2647 0.950 . S
H2640 C2645 0.950 . S
H2641 C2646 0.949 . S
H2642 C2648 0.950 . S
H2643 C2649 0.950 . S
H2644 C2650 0.949 . S
C2645 H2640 0.950 . S
C2645 C2647 1.327 . S
C2645 C2651 1.429 . S
C2646 C2638 1.574 . S
C2646 H2641 0.949 . S
C2646 C2652 1.368 . S
C2647 C2631 1.349 . S
C2647 H2639 0.950 . S
C2647 C2645 1.327 . S
C2648 C2636 1.349 . S
C2648 H2642 0.950 . S
C2648 C2649 1.327 . S
C2649 H2643 0.950 . S
C2649 C2648 1.327 . S
C2649 C2653 1.429 . S
C2650 C2633 1.574 . S
C2650 H2644 0.949 . S
C2650 C2654 1.368 . S
C2651 C2632 1.429 . S
C2651 C2645 1.429 . S
C2651 C2652 1.523 . S
C2652 C2633 1.368 . S
C2652 C2646 1.368 . S
C2652 C2651 1.523 . S
C2653 C2637 1.429 . S
C2653 C2649 1.429 . S
C2653 C2654 1.523 . S
C2654 C2638 1.368 . S
C2654 C2650 1.368 . S
C2654 C2653 1.523 . S
H2655 C2630 0.950 . S
H2656 C2632 0.950 . S
H2657 C2633 0.949 . S
H2658 C2635 0.950 . S
H2659 C2637 0.950 . S
C2660 C2661 1.349 . S
C2660 C2662 1.327 . S
C2660 H2685 0.950 . S
C2661 C2660 1.349 . S
C2661 C2677 1.349 . S
C2662 C2660 1.327 . S
C2662 C2681 1.429 . S
C2662 H2686 0.950 . S
C2663 C2680 1.574 . S
C2663 C2682 1.368 . S
C2663 H2687 0.949 . S
H2664 C2668 0.949 . S
C2665 C2666 1.349 . S
C2665 C2667 1.327 . S
C2665 H2688 0.950 . S
C2666 C2665 1.349 . S
C2666 C2678 1.349 . S
C2667 C2665 1.327 . S
C2667 C2683 1.429 . S
C2667 H2689 0.950 . S
C2668 H2664 0.949 . S
C2668 C2676 1.574 . S
C2668 C2684 1.368 . S
H2669 C2677 0.950 . S
H2670 C2675 0.950 . S
H2671 C2676 0.949 . S
H2672 C2678 0.950 . S
H2673 C2679 0.950 . S
H2674 C2680 0.949 . S
C2675 H2670 0.950 . S
C2675 C2677 1.327 . S
C2675 C2681 1.429 . S
C2676 C2668 1.574 . S
C2676 H2671 0.949 . S
C2676 C2682 1.368 . S
C2677 C2661 1.349 . S
C2677 H2669 0.950 . S
C2677 C2675 1.327 . S
C2678 C2666 1.349 . S
C2678 H2672 0.950 . S
C2678 C2679 1.327 . S
C2679 H2673 0.950 . S
C2679 C2678 1.327 . S
C2679 C2683 1.429 . S
C2680 C2663 1.574 . S
C2680 H2674 0.949 . S
C2680 C2684 1.368 . S
C2681 C2662 1.429 . S
C2681 C2675 1.429 . S
C2681 C2682 1.523 . S
C2682 C2663 1.368 . S
C2682 C2676 1.368 . S
C2682 C2681 1.523 . S
C2683 C2667 1.429 . S
C2683 C2679 1.429 . S
C2683 C2684 1.523 . S
C2684 C2668 1.368 . S
C2684 C2680 1.368 . S
C2684 C2683 1.523 . S
H2685 C2660 0.950 . S
H2686 C2662 0.950 . S
H2687 C2663 0.949 . S
H2688 C2665 0.950 . S
H2689 C2667 0.950 . S
C2690 C2691 1.349 . S
C2690 C2692 1.327 . S
C2690 H2715 0.950 . S
C2691 C2690 1.349 . S
C2691 C2707 1.349 . S
C2692 C2690 1.327 . S
C2692 C2711 1.429 . S
C2692 H2716 0.950 . S
C2693 C2710 1.574 . S
C2693 C2712 1.368 . S
C2693 H2717 0.949 . S
H2694 C2698 0.949 . S
C2695 C2696 1.349 . S
C2695 C2697 1.327 . S
C2695 H2718 0.950 . S
C2696 C2695 1.349 . S
C2696 C2708 1.349 . S
C2697 C2695 1.327 . S
C2697 C2713 1.429 . S
C2697 H2719 0.950 . S
C2698 H2694 0.949 . S
C2698 C2706 1.574 . S
C2698 C2714 1.368 . S
H2699 C2707 0.950 . S
H2700 C2705 0.950 . S
H2701 C2706 0.949 . S
H2702 C2708 0.950 . S
H2703 C2709 0.950 . S
H2704 C2710 0.949 . S
C2705 H2700 0.950 . S
C2705 C2707 1.327 . S
C2705 C2711 1.429 . S
C2706 C2698 1.574 . S
C2706 H2701 0.949 . S
C2706 C2712 1.368 . S
C2707 C2691 1.349 . S
C2707 H2699 0.950 . S
C2707 C2705 1.327 . S
C2708 C2696 1.349 . S
C2708 H2702 0.950 . S
C2708 C2709 1.327 . S
C2709 H2703 0.950 . S
C2709 C2708 1.327 . S
C2709 C2713 1.429 . S
C2710 C2693 1.574 . S
C2710 H2704 0.949 . S
C2710 C2714 1.368 . S
C2711 C2692 1.429 . S
C2711 C2705 1.429 . S
C2711 C2712 1.523 . S
C2712 C2693 1.368 . S
C2712 C2706 1.368 . S
C2712 C2711 1.523 . S
C2713 C2697 1.429 . S
C2713 C2709 1.429 . S
C2713 C2714 1.523 . S
C2714 C2698 1.368 . S
C2714 C2710 1.368 . S
C2714 C2713 1.523 . S
H2715 C2690 0.950 . S
H2716 C2692 0.950 . S
H2717 C2693 0.949 . S
H2718 C2695 0.950 . S
H2719 C2697 0.950 . S
C1281 C162 2.077 . S
C1286 C2 2.077 . S
C1311 C202 2.171 . S
C1316 C42 2.171 . S
C1341 C82 2.077 . S
C1346 C242 2.077 . S
C1371 C122 2.172 . S
C1376 C282 2.172 . S
C1401 C482 1.964 . S
C1406 C322 1.964 . S
C1431 C522 2.059 . S
C1436 C362 2.059 . S
C1461 C402 1.965 . S
C1466 C562 1.965 . S
C1491 C602 2.060 . S
C1496 C442 2.060 . S
C1521 C642 1.899 . S
C1526 C802 1.897 . S
C1551 C842 2.083 . S
C1556 C682 2.083 . S
C1581 C722 1.899 . S
C1586 C882 1.896 . S
C1611 C922 2.083 . S
C1616 C762 2.083 . S
C1641 C962 1.811 . S
C1646 C1122 1.812 . S
C1671 C1162 1.972 . S
C1676 C1002 1.972 . S
C1701 C1042 1.811 . S
C1706 C1202 1.813 . S
C1731 C1242 1.972 . S
C1736 C1082 1.972 . S
C1761 C501 1.843 . S
C1766 C21 1.910 . S
C1791 C61 1.899 . S
C1796 C1181 1.836 . S
C1821 C581 1.843 . S
C1826 C101 1.910 . S
C1851 C141 1.899 . S
C1856 C1261 1.836 . S
C1881 C341 1.843 . S
C1886 C181 1.910 . S
C1911 C1021 1.835 . S
C1916 C221 1.899 . S
C1941 C261 1.910 . S
C1946 C421 1.843 . S
C1971 C1101 1.836 . S
C1976 C301 1.899 . S
C2001 C381 1.833 . S
C2006 C861 1.901 . S
C2031 C461 1.833 . S
C2036 C941 1.901 . S
C2061 C541 1.833 . S
C2066 C701 1.901 . S
C2091 C781 1.901 . S
C2096 C621 1.833 . S
C2121 C1141 1.720 . S
C2126 C661 1.772 . S
C2151 C1221 1.720 . S
C2156 C741 1.772 . S
C2181 C821 1.772 . S
C2186 C981 1.720 . S
C2211 C1061 1.720 . S
C2216 C901 1.772 . S
C2241 C935 1.771 . S
C2246 C15 1.770 . S
C2271 C55 1.676 . S
C2276 C815 1.682 . S
C2301 C95 1.770 . S
C2306 C855 1.771 . S
C2331 C895 1.688 . S
C2336 C135 1.669 . S
C2361 C175 1.770 . S
C2366 C695 1.771 . S
C2391 C215 1.676 . S
C2396 C735 1.682 . S
C2421 C775 1.771 . S
C2426 C255 1.770 . S
C2451 C655 1.687 . S
C2456 C295 1.669 . S
C2481 C1255 1.765 . S
C2486 C335 1.764 . S
C2511 C375 1.670 . S
C2516 C1135 1.678 . S
C2541 C1175 1.765 . S
C2546 C415 1.764 . S
C2571 C1215 1.683 . S
C2576 C455 1.663 . S
C2601 C495 1.764 . S
C2606 C1015 1.765 . S
C2631 C1055 1.683 . S
C2636 C535 1.663 . S
C2661 C1095 1.765 . S
C2666 C575 1.764 . S
C2691 C615 1.670 . S
C2696 C975 1.677 . S
