# Generated by pormake.
# Topology fob, (5)-cn, num edge types: 1
# Building blocks:
#     Node 0, Type 0, BuildingBlock: XOMCOT_clean_sbu_0, # of connection points: 5
#     Node 1, Type 0, BuildingBlock: XOMCOT_clean_sbu_0, # of connection points: 5
#     Node 2, Type 0, BuildingBlock: XOMCOT_clean_sbu_0, # of connection points: 5
#     Node 3, Type 0, BuildingBlock: XOMCOT_clean_sbu_0, # of connection points: 5
#     Node 4, Type 0, BuildingBlock: XOMCOT_clean_sbu_0, # of connection points: 5
#     Node 5, Type 0, BuildingBlock: XOMCOT_clean_sbu_0, # of connection points: 5
#     Node 6, Type 0, BuildingBlock: XOMCOT_clean_sbu_0, # of connection points: 5
#     Node 7, Type 0, BuildingBlock: XOMCOT_clean_sbu_0, # of connection points: 5
#     Node 8, Type 0, BuildingBlock: XOMCOT_clean_sbu_0, # of connection points: 5
#     Node 9, Type 0, BuildingBlock: XOMCOT_clean_sbu_0, # of connection points: 5
#     Node 10, Type 0, BuildingBlock: XOMCOT_clean_sbu_0, # of connection points: 5
#     Node 11, Type 0, BuildingBlock: XOMCOT_clean_sbu_0, # of connection points: 5
#     Node 12, Type 0, BuildingBlock: XOMCOT_clean_sbu_0, # of connection points: 5
#     Node 13, Type 0, BuildingBlock: XOMCOT_clean_sbu_0, # of connection points: 5
#     Node 14, Type 0, BuildingBlock: XOMCOT_clean_sbu_0, # of connection points: 5
#     Node 15, Type 0, BuildingBlock: XOMCOT_clean_sbu_0, # of connection points: 5
#     Edge 16, Type (0, 0), BuildingBlock: AJUNOK_clean_linker_0, # of connection points: 2
#     Edge 17, Type (0, 0), BuildingBlock: AJUNOK_clean_linker_0, # of connection points: 2
#     Edge 18, Type (0, 0), BuildingBlock: AJUNOK_clean_linker_0, # of connection points: 2
#     Edge 19, Type (0, 0), BuildingBlock: AJUNOK_clean_linker_0, # of connection points: 2
#     Edge 20, Type (0, 0), BuildingBlock: AJUNOK_clean_linker_0, # of connection points: 2
#     Edge 21, Type (0, 0), BuildingBlock: AJUNOK_clean_linker_0, # of connection points: 2
#     Edge 22, Type (0, 0), BuildingBlock: AJUNOK_clean_linker_0, # of connection points: 2
#     Edge 23, Type (0, 0), BuildingBlock: AJUNOK_clean_linker_0, # of connection points: 2
#     Edge 24, Type (0, 0), BuildingBlock: AJUNOK_clean_linker_0, # of connection points: 2
#     Edge 25, Type (0, 0), BuildingBlock: AJUNOK_clean_linker_0, # of connection points: 2
#     Edge 26, Type (0, 0), BuildingBlock: AJUNOK_clean_linker_0, # of connection points: 2
#     Edge 27, Type (0, 0), BuildingBlock: AJUNOK_clean_linker_0, # of connection points: 2
#     Edge 28, Type (0, 0), BuildingBlock: AJUNOK_clean_linker_0, # of connection points: 2
#     Edge 29, Type (0, 0), BuildingBlock: AJUNOK_clean_linker_0, # of connection points: 2
#     Edge 30, Type (0, 0), BuildingBlock: AJUNOK_clean_linker_0, # of connection points: 2
#     Edge 31, Type (0, 0), BuildingBlock: AJUNOK_clean_linker_0, # of connection points: 2
#     Edge 32, Type (0, 0), BuildingBlock: AJUNOK_clean_linker_0, # of connection points: 2
#     Edge 33, Type (0, 0), BuildingBlock: AJUNOK_clean_linker_0, # of connection points: 2
#     Edge 34, Type (0, 0), BuildingBlock: AJUNOK_clean_linker_0, # of connection points: 2
#     Edge 35, Type (0, 0), BuildingBlock: AJUNOK_clean_linker_0, # of connection points: 2
#     Edge 36, Type (0, 0), BuildingBlock: AJUNOK_clean_linker_0, # of connection points: 2
#     Edge 37, Type (0, 0), BuildingBlock: AJUNOK_clean_linker_0, # of connection points: 2
#     Edge 38, Type (0, 0), BuildingBlock: AJUNOK_clean_linker_0, # of connection points: 2
#     Edge 39, Type (0, 0), BuildingBlock: AJUNOK_clean_linker_0, # of connection points: 2
#     Edge 40, Type (0, 0), BuildingBlock: AJUNOK_clean_linker_0, # of connection points: 2
#     Edge 41, Type (0, 0), BuildingBlock: AJUNOK_clean_linker_0, # of connection points: 2
#     Edge 42, Type (0, 0), BuildingBlock: AJUNOK_clean_linker_0, # of connection points: 2
#     Edge 43, Type (0, 0), BuildingBlock: AJUNOK_clean_linker_0, # of connection points: 2
#     Edge 44, Type (0, 0), BuildingBlock: AJUNOK_clean_linker_0, # of connection points: 2
#     Edge 45, Type (0, 0), BuildingBlock: AJUNOK_clean_linker_0, # of connection points: 2
#     Edge 46, Type (0, 0), BuildingBlock: AJUNOK_clean_linker_0, # of connection points: 2
#     Edge 47, Type (0, 0), BuildingBlock: AJUNOK_clean_linker_0, # of connection points: 2
#     Edge 48, Type (0, 0), BuildingBlock: AJUNOK_clean_linker_0, # of connection points: 2
#     Edge 49, Type (0, 0), BuildingBlock: AJUNOK_clean_linker_0, # of connection points: 2
#     Edge 50, Type (0, 0), BuildingBlock: AJUNOK_clean_linker_0, # of connection points: 2
#     Edge 51, Type (0, 0), BuildingBlock: AJUNOK_clean_linker_0, # of connection points: 2
#     Edge 52, Type (0, 0), BuildingBlock: AJUNOK_clean_linker_0, # of connection points: 2
#     Edge 53, Type (0, 0), BuildingBlock: AJUNOK_clean_linker_0, # of connection points: 2
#     Edge 54, Type (0, 0), BuildingBlock: AJUNOK_clean_linker_0, # of connection points: 2
#     Edge 55, Type (0, 0), BuildingBlock: AJUNOK_clean_linker_0, # of connection points: 2
# Relax obj value: 0.069
# Max RMSD: 0.134
# Mean RMSD: 0.134
data_MOF--net-fob--node1-XOMCOT_clean_sbu_0--edge1-AJUNOK_clean_linker_0
_symmetry_space_group_name_H-M    P1
_symmetry_Int_Tables_number       1
_symmetry_cell_setting            triclinic
loop_
_symmetry_equiv_pos_as_xyz
'x, y, z'
_cell_length_a     20.340007
_cell_length_b     50.101095
_cell_length_c     37.73844
_cell_angle_alpha  99.294378
_cell_angle_beta   89.797828
_cell_angle_gamma 90.08661
loop_
_atom_site_label
_atom_site_type_symbol
_atom_site_fract_x
_atom_site_fract_y
_atom_site_fract_z
_atom_type_partial_charge
Co0 Co 0.13203 0.15253 0.47321 0.0
C1 C 0.08403 0.09634 0.47448 0.0
C2 C 0.18849 0.09819 0.46836 0.0
C3 C 0.17148 0.07212 0.47175 0.0
N4 N 0.13353 0.11333 0.46926 0.0
N5 N 0.10576 0.07108 0.47598 0.0
H6 H 0.03366 0.10241 0.47946 0.0
H7 H 0.23798 0.10579 0.46654 0.0
C8 C 0.21581 0.13383 0.40756 0.0
O9 O 0.17553 0.11352 0.39749 0.0
N10 N 0.1321 0.19146 0.47795 0.0
C11 C 0.08083 0.20833 0.48625 0.0
C12 C 0.10215 0.2345 0.48631 0.0
C13 C 0.18371 0.20742 0.47319 0.0
N14 N 0.16665 0.2338 0.47776 0.0
C15 C 0.99817 0.14664 0.45036 0.0
C16 C 0.01332 0.16309 0.38442 0.0
C17 C 0.94981 0.15814 0.39642 0.0
C18 C 0.94286 0.14947 0.4296 0.0
C19 C 0.06778 0.16014 0.40626 0.0
N20 N 0.06006 0.15149 0.43865 0.0
H21 H 0.9902 0.14189 0.47684 0.0
H22 H 0.11535 0.16626 0.39775 0.0
H23 H 0.03146 0.20204 0.49176 0.0
H24 H 0.23303 0.19992 0.4672 0.0
O25 O 0.08065 0.15469 0.51667 0.0
O26 O 0.18926 0.15466 0.51456 0.0
O27 O 0.203 0.15123 0.43535 0.0
C28 C 0.13597 0.15515 0.53385 0.0
H29 H 0.20514 0.0554 0.47153 0.0
H30 H 0.07246 0.25262 0.49184 0.0
H31 H 0.02052 0.17041 0.3592 0.0
H32 H 0.89463 0.1456 0.43997 0.0
Co33 Co 0.12123 0.15131 0.74731 0.0
C34 C 0.06955 0.2062 0.74573 0.0
C35 C 0.16923 0.20714 0.7645 0.0
C36 C 0.15004 0.23317 0.76235 0.0
N37 N 0.11874 0.19031 0.7541 0.0
N38 N 0.08764 0.23249 0.75024 0.0
H39 H 0.02247 0.19858 0.73525 0.0
H40 H 0.21728 0.2009 0.77218 0.0
C41 C 0.19551 0.13758 0.8102 0.0
O42 O 0.15151 0.11884 0.81323 0.0
N43 N 0.12647 0.11194 0.73968 0.0
C44 C 0.07844 0.0931 0.73404 0.0
C45 C 0.10622 0.06782 0.73148 0.0
C46 C 0.18296 0.0976 0.73882 0.0
N47 N 0.17181 0.07074 0.73501 0.0
C48 C 0.98673 0.14386 0.76705 0.0
C49 C 0.99657 0.16729 0.83826 0.0
C50 C 0.93558 0.15722 0.82507 0.0
C51 C 0.93099 0.14546 0.789 0.0
C52 C 0.0516 0.16475 0.81547 0.0
N53 N 0.04696 0.1521 0.78059 0.0
H54 H 0.98068 0.13666 0.73876 0.0
H55 H 0.09725 0.17387 0.82571 0.0
H56 H 0.02677 0.09685 0.73162 0.0
H57 H 0.23122 0.10675 0.7425 0.0
O58 O 0.07311 0.14985 0.70308 0.0
O59 O 0.18153 0.15144 0.70752 0.0
O60 O 0.18855 0.15319 0.78685 0.0
C61 C 0.12974 0.15069 0.68721 0.0
H62 H 0.17987 0.25118 0.76901 0.0
H63 H 0.08011 0.04873 0.72721 0.0
H64 H 1.00147 0.1773 0.86579 0.0
H65 H 0.88408 0.13844 0.77752 0.0
Co66 Co 0.90128 0.90202 0.49857 0.0
C67 C 0.95897 0.95612 0.49948 0.0
C68 C 0.85548 0.95822 0.51117 0.0
C69 C 0.87804 0.98394 0.50951 0.0
N70 N 0.9063 0.9409 0.5049 0.0
N71 N 0.94305 0.98253 0.50229 0.0
H72 H 1.00709 0.94788 0.4919 0.0
H73 H 0.80515 0.95243 0.51535 0.0
C74 C 0.82597 0.89056 0.56294 0.0
O75 O 0.86807 0.87156 0.56741 0.0
N76 N 0.89467 0.86276 0.49154 0.0
C77 C 0.94256 0.84403 0.48411 0.0
C78 C 0.91483 0.81868 0.47987 0.0
C79 C 0.83827 0.84836 0.49065 0.0
N80 N 0.84926 0.82143 0.48386 0.0
C81 C 0.03608 0.89414 0.51487 0.0
C82 C 0.0301 0.91187 0.5879 0.0
C83 C 0.08967 0.90159 0.57251 0.0
C84 C 0.0924 0.89323 0.53542 0.0
C85 C 0.97453 0.91245 0.56614 0.0
N86 N 0.97693 0.902 0.53036 0.0
H87 H 0.04062 0.88841 0.48621 0.0
H88 H 0.93015 0.92161 0.57816 0.0
H89 H 0.99412 0.84792 0.48124 0.0
H90 H 0.79001 0.85745 0.49465 0.0
O91 O 0.94767 0.89991 0.45371 0.0
O92 O 0.8395 0.9025 0.45993 0.0
O93 O 0.83445 0.90504 0.53847 0.0
C94 C 0.89052 0.90122 0.43885 0.0
H95 H 0.84877 1.0022 0.51269 0.0
H96 H 0.94122 0.7997 0.47481 0.0
H97 H 0.02627 0.91917 0.61645 0.0
H98 H 0.13805 0.88623 0.52223 0.0
Co99 Co 0.8823 0.90709 0.227 0.0
C100 C 0.93321 0.85255 0.22871 0.0
C101 C 0.83221 0.85102 0.21216 0.0
C102 C 0.8528 0.8251 0.21436 0.0
N103 N 0.88285 0.86811 0.22111 0.0
N104 N 0.91603 0.82623 0.22517 0.0
H105 H 0.98124 0.86044 0.2371 0.0
H106 H 0.78328 0.857 0.20556 0.0
C107 C 0.80036 0.91922 0.16535 0.0
O108 O 0.8446 0.9367 0.15811 0.0
N109 N 0.88159 0.94649 0.23382 0.0
C110 C 0.93167 0.96405 0.24277 0.0
C111 C 0.90812 0.99011 0.24597 0.0
C112 C 0.82806 0.96229 0.23332 0.0
N113 N 0.84319 0.98882 0.23947 0.0
C114 C 0.01455 0.91213 0.20356 0.0
C115 C 0.99692 0.89064 0.13214 0.0
C116 C 0.05978 0.89916 0.14418 0.0
C117 C 0.06832 0.90971 0.18041 0.0
C118 C 0.94421 0.89317 0.15648 0.0
N119 N 0.95273 0.9051 0.19142 0.0
H120 H 0.02366 0.91882 0.23165 0.0
H121 H 0.89733 0.88469 0.14732 0.0
H122 H 0.98171 0.95881 0.24766 0.0
H123 H 0.7788 0.95456 0.2293 0.0
O124 O 0.93519 0.90842 0.2694 0.0
O125 O 0.82632 0.90824 0.26863 0.0
O126 O 0.80956 0.9053 0.19034 0.0
C127 C 0.88028 0.90838 0.28706 0.0
H128 H 0.82298 0.80696 0.20969 0.0
H129 H 0.93647 1.00856 0.25227 0.0
H130 H 0.98911 0.88127 0.10454 0.0
H131 H 0.11654 0.91576 0.19094 0.0
Co132 Co 0.11993 0.65553 0.97292 0.0
C133 C 0.07576 0.59905 0.97748 0.0
C134 C 0.17962 0.6019 0.96986 0.0
C135 C 0.1647 0.57572 0.97381 0.0
N136 N 0.12365 0.61647 0.97121 0.0
N137 N 0.0993 0.57405 0.97884 0.0
H138 H 0.02524 0.6045 0.98306 0.0
H139 H 0.22838 0.60992 0.96693 0.0
C140 C 0.20101 0.63643 0.90666 0.0
O141 O 0.16356 0.61498 0.89832 0.0
N142 N 0.11967 0.69423 0.97536 0.0
C143 C 0.06858 0.71133 0.97581 0.0
C144 C 0.09313 0.73708 0.97595 0.0
C145 C 0.17403 0.70961 0.97564 0.0
N146 N 0.15952 0.73588 0.97553 0.0
C147 C 0.98697 0.6456 0.95032 0.0
C148 C 0.99805 0.65942 0.88276 0.0
C149 C 0.93681 0.65037 0.89366 0.0
C150 C 0.93214 0.64355 0.92811 0.0
C151 C 0.05262 0.6604 0.90567 0.0
N152 N 0.04726 0.65252 0.93861 0.0
H153 H 0.97983 0.64221 0.97749 0.0
H154 H 0.09821 0.6685 0.89732 0.0
H155 H 0.01736 0.70549 0.97563 0.0
H156 H 0.22323 0.70159 0.97647 0.0
O157 O 0.06895 0.65895 0.01629 0.0
O158 O 0.17775 0.65939 0.01427 0.0
O159 O 0.18923 0.65391 0.9344 0.0
C160 C 0.12424 0.66059 0.03353 0.0
H161 H 0.19943 0.55931 0.97308 0.0
H162 H 0.06432 0.75521 0.97578 0.0
H163 H 1.00361 0.66642 0.85725 0.0
H164 H 0.88613 0.63686 0.93824 0.0
Co165 Co 0.11594 0.65675 0.24613 0.0
C166 C 0.06036 0.71119 0.24748 0.0
C167 C 0.16156 0.71305 0.26378 0.0
C168 C 0.13933 0.73901 0.26371 0.0
N169 N 0.11188 0.69572 0.25376 0.0
N170 N 0.0757 0.73777 0.25353 0.0
H171 H 0.01293 0.70314 0.2382 0.0
H172 H 0.211 0.70721 0.26966 0.0
C173 C 0.19235 0.64333 0.30856 0.0
O174 O 0.14703 0.62544 0.31305 0.0
N175 N 0.12205 0.61744 0.23784 0.0
C176 C 0.0746 0.59837 0.23183 0.0
C177 C 0.10325 0.57319 0.22873 0.0
C178 C 0.17887 0.60342 0.23696 0.0
N179 N 0.16872 0.57645 0.2325 0.0
C180 C 0.98249 0.64897 0.26607 0.0
C181 C 0.99277 0.67124 0.33766 0.0
C182 C 0.93138 0.66188 0.3241 0.0
C183 C 0.92661 0.6509 0.28775 0.0
C184 C 0.04767 0.66903 0.31485 0.0
N185 N 0.04282 0.65682 0.27981 0.0
H186 H 0.97632 0.64189 0.23778 0.0
H187 H 0.09331 0.67808 0.3252 0.0
H188 H 0.02275 0.60193 0.22973 0.0
H189 H 0.2268 0.61291 0.23988 0.0
O190 O 0.0659 0.65569 0.2029 0.0
O191 O 0.1746 0.65764 0.20569 0.0
O192 O 0.18505 0.65844 0.28463 0.0
C193 C 0.12152 0.65728 0.18641 0.0
H194 H 0.16853 0.75727 0.26927 0.0
H195 H 0.07769 0.55398 0.22489 0.0
H196 H 0.99785 0.68096 0.36531 0.0
H197 H 0.87978 0.64407 0.27601 0.0
Co198 Co 0.90603 0.4021 -0.00222 0.0
C199 C 0.95996 0.4569 -0.00075 0.0
C200 C 0.8563 0.45775 0.01057 0.0
C201 C 0.87728 0.48378 0.00958 0.0
N202 N 0.90821 0.44102 0.00411 0.0
N203 N 0.9424 0.48317 0.00261 0.0
H204 H 1.00866 0.44924 -0.00816 0.0
H205 H 0.80638 0.45137 0.01458 0.0
C206 C 0.82803 0.38832 0.05981 0.0
O207 O 0.86988 0.36884 0.06264 0.0
N208 N 0.9019 0.36275 -0.00942 0.0
C209 C 0.95051 0.34417 -0.01249 0.0
C210 C 0.923 0.31873 0.98319 0.0
C211 C 0.84569 0.34816 -0.01306 0.0
N212 N 0.85714 0.3213 0.98287 0.0
C213 C 0.04044 0.39615 0.01723 0.0
C214 C 0.0288 0.41839 0.08886 0.0
C215 C 0.0904 0.4095 0.0752 0.0
C216 C 0.09609 0.39843 0.03896 0.0
C217 C 0.97393 0.41535 0.0662 0.0
N218 N 0.97964 0.40333 0.03109 0.0
H219 H 0.04678 0.38896 -0.01108 0.0
H220 H 0.92763 0.42363 0.07675 0.0
H221 H 1.00245 0.34819 -0.01177 0.0
H222 H 0.79727 0.35721 -0.01113 0.0
O223 O 0.95469 0.40055 0.95354 0.0
O224 O 0.84618 0.40177 0.958 0.0
O225 O 0.83776 0.40424 0.03708 0.0
C226 C 0.89817 0.40106 0.93768 0.0
H227 H 0.84689 0.50175 0.01314 0.0
H228 H 0.94945 0.29977 0.98048 0.0
H229 H 0.02332 0.42785 0.11661 0.0
H230 H 0.14351 0.39216 0.02736 0.0
Co231 Co 0.89623 0.40297 0.72406 0.0
C232 C 0.94891 0.3483 0.72515 0.0
C233 C 0.84658 0.34714 0.71117 0.0
C234 C 0.86718 0.32118 0.71277 0.0
N235 N 0.89794 0.36403 0.71884 0.0
N236 N 0.93153 0.32194 0.72147 0.0
H237 H 0.99684 0.35619 0.73372 0.0
H238 H 0.79721 0.3533 0.70573 0.0
C239 C 0.81775 0.4144 0.66105 0.0
O240 O 0.86346 0.43159 0.65465 0.0
N241 N 0.89239 0.4423 0.73003 0.0
C242 C 0.94079 0.4609 0.73684 0.0
C243 C 0.91402 0.48635 0.73898 0.0
C244 C 0.83669 0.45692 0.72968 0.0
N245 N 0.84868 0.48376 0.73397 0.0
C246 C 0.02893 0.40966 0.70149 0.0
C247 C 0.0153 0.38473 0.63112 0.0
C248 C 0.07662 0.39524 0.64301 0.0
C249 C 0.08331 0.40758 0.67866 0.0
C250 C 0.96164 0.38759 0.65487 0.0
N251 N 0.96809 0.40111 0.68923 0.0
H252 H 0.03672 0.41732 0.72948 0.0
H253 H 0.9156 0.37818 0.64584 0.0
H254 H 0.99193 0.45688 0.74072 0.0
H255 H 0.78816 0.448 0.7265 0.0
O256 O 0.94766 0.40519 0.76722 0.0
O257 O 0.83893 0.40408 0.7653 0.0
O258 O 0.82558 0.40044 0.6862 0.0
C259 C 0.89225 0.40497 0.78443 0.0
H260 H 0.83697 0.30315 0.70826 0.0
H261 H 0.94072 0.5053 0.74343 0.0
H262 H 0.00924 0.3741 0.60396 0.0
H263 H 0.13078 0.41484 0.68909 0.0
Co264 Co 0.61751 0.15575 0.97357 0.0
C265 C 0.56119 0.10188 0.97623 0.0
C266 C 0.66387 0.09939 0.9626 0.0
C267 C 0.64109 0.07376 0.96472 0.0
N268 N 0.61364 0.11691 0.96976 0.0
N269 N 0.57651 0.07536 0.97316 0.0
H270 H 0.51352 0.11036 0.98429 0.0
H271 H 0.71379 0.10492 0.95696 0.0
C272 C 0.69488 0.16663 0.9099 0.0
O273 O 0.65096 0.18496 0.90533 0.0
N274 N 0.62276 0.19504 0.9783 0.0
C275 C 0.57432 0.2137 0.98324 0.0
C276 C 0.60152 0.23904 0.98519 0.0
C277 C 0.67894 0.20958 0.97888 0.0
N278 N 0.6672 0.23637 0.98198 0.0
C279 C 0.4842 0.16212 0.95246 0.0
C280 C 0.49579 0.13639 0.88231 0.0
C281 C 0.4346 0.14679 0.89484 0.0
C282 C 0.42909 0.15964 0.93037 0.0
C283 C 0.55031 0.13981 0.90525 0.0
N284 N 0.54477 0.15364 0.93952 0.0
H285 H 0.47723 0.17019 0.98043 0.0
H286 H 0.5962 0.13049 0.8957 0.0
H287 H 0.52276 0.20984 0.98611 0.0
H288 H 0.72748 0.20064 0.97611 0.0
O289 O 0.56714 0.15929 0.01731 0.0
O290 O 0.67568 0.15739 0.01456 0.0
O291 O 0.68697 0.15203 0.93443 0.0
C292 C 0.62261 0.15942 0.03424 0.0
H293 H 0.66991 0.05536 0.96061 0.0
H294 H 0.57504 0.25802 -0.01062 0.0
H295 H 0.50126 0.12558 0.85519 0.0
H296 H 0.38195 0.16696 0.94135 0.0
Co297 Co 0.63136 0.15954 0.24863 0.0
C298 C 0.58081 0.21578 0.25162 0.0
C299 C 0.68378 0.21512 0.26265 0.0
C300 C 0.66543 0.24149 0.26174 0.0
N301 N 0.63031 0.19898 0.25721 0.0
N302 N 0.6005 0.24179 0.25508 0.0
H303 H 0.53272 0.20926 0.24212 0.0
H304 H 0.73345 0.20811 0.26543 0.0
C305 C 0.71141 0.17337 0.31593 0.0
O306 O 0.66508 0.19042 0.32908 0.0
N307 N 0.63401 0.1206 0.23926 0.0
C308 C 0.58409 0.10363 0.22809 0.0
C309 C 0.60696 0.07743 0.2245 0.0
C310 C 0.68631 0.10468 0.24241 0.0
N311 N 0.67111 0.07826 0.23354 0.0
C312 C 0.49996 0.16522 0.27641 0.0
C313 C 0.51792 0.13917 0.33474 0.0
C314 C 0.45516 0.14865 0.32796 0.0
C315 C 0.44661 0.16185 0.2985 0.0
C316 C 0.57071 0.14357 0.31228 0.0
N317 N 0.56186 0.15729 0.28407 0.0
H318 H 0.49 0.17275 0.25193 0.0
H319 H 0.61793 0.1349 0.31675 0.0
H320 H 0.53454 0.10989 0.22315 0.0
H321 H 0.73472 0.11221 0.25062 0.0
O322 O 0.57667 0.15948 0.20715 0.0
O323 O 0.68541 0.16071 0.2064 0.0
O324 O 0.70444 0.15932 0.28478 0.0
C325 C 0.6304 0.16053 0.18875 0.0
H326 H 0.69758 0.25894 0.26473 0.0
H327 H 0.57845 0.0592 0.21654 0.0
H328 H 0.52582 0.12816 0.3568 0.0
H329 H 0.39825 0.16846 0.29163 0.0
Co330 Co 0.3813 0.90594 -0.00211 0.0
C331 C 0.43121 0.96108 -0.00296 0.0
C332 C 0.32972 0.96158 0.01292 0.0
C333 C 0.34901 0.98768 0.01076 0.0
N334 N 0.38138 0.94498 0.00436 0.0
N335 N 0.41269 0.98725 0.00052 0.0
H336 H 0.47932 0.95367 -0.01207 0.0
H337 H 0.28098 0.95513 0.01934 0.0
C338 C 0.29584 0.8897 0.05585 0.0
O339 O 0.33771 0.87033 0.05928 0.0
N340 N 0.38069 0.86673 -0.00958 0.0
C341 C 0.43101 0.8495 -0.00787 0.0
C342 C 0.40681 0.82346 -0.01326 0.0
C343 C 0.32709 0.8509 0.98303 0.0
N344 N 0.34145 0.82441 0.98109 0.0
C345 C 0.51579 0.90599 0.01944 0.0
C346 C 0.49696 0.91272 0.09264 0.0
C347 C 0.56175 0.91085 0.07926 0.0
C348 C 0.57016 0.90801 0.04197 0.0
C349 C 0.44381 0.9125 0.06911 0.0
N350 N 0.45306 0.90761 0.03276 0.0
H351 H 0.52513 0.90316 -0.009 0.0
H352 H 0.39588 0.91666 0.0807 0.0
H353 H 0.48151 0.85517 -0.00224 0.0
H354 H 0.27811 0.85875 0.98037 0.0
O355 O 0.43347 0.90472 0.9553 0.0
O356 O 0.32475 0.905 0.95625 0.0
O357 O 0.30906 0.9068 0.03506 0.0
C358 C 0.37891 0.90413 0.93763 0.0
H359 H 0.31844 1.00554 0.01621 0.0
H360 H 0.43482 0.80538 -0.01151 0.0
H361 H 0.48643 0.9143 0.12097 0.0
H362 H 0.61857 0.90747 0.02988 0.0
Co363 Co 0.40007 0.90475 0.72505 0.0
C364 C 0.44465 0.84802 0.72625 0.0
C365 C 0.34266 0.85002 0.71339 0.0
C366 C 0.35782 0.82362 0.7161 0.0
N367 N 0.39751 0.86532 0.71887 0.0
N368 N 0.42201 0.82248 0.72439 0.0
H369 H 0.49348 0.85388 0.7352 0.0
H370 H 0.29424 0.85767 0.70888 0.0
C371 C 0.32535 0.8898 0.65586 0.0
O372 O 0.36659 0.86992 0.64525 0.0
N373 N 0.39981 0.94373 0.73196 0.0
C374 C 0.45078 0.96114 0.73481 0.0
C375 C 0.42613 0.98713 0.73802 0.0
C376 C 0.34539 0.95915 0.73395 0.0
N377 N 0.35983 0.98575 0.73769 0.0
C378 C 0.53468 0.89661 0.70484 0.0
C379 C 0.52924 0.91352 0.63894 0.0
C380 C 0.58939 0.90421 0.6505 0.0
C381 C 0.5912 0.8956 0.6839 0.0
C382 C 0.47297 0.91372 0.66069 0.0
N383 N 0.47553 0.90419 0.69265 0.0
H384 H 0.53955 0.89174 0.73141 0.0
H385 H 0.42816 0.92221 0.65214 0.0
H386 H 0.50205 0.95539 0.73416 0.0
H387 H 0.29612 0.95091 0.73178 0.0
O388 O 0.44729 0.90554 0.76899 0.0
O389 O 0.33865 0.90573 0.76464 0.0
O390 O 0.33357 0.90516 0.68587 0.0
C391 C 0.39049 0.9054 0.78471 0.0
H392 H 0.32402 0.80672 0.71257 0.0
H393 H 0.45463 1.0056 0.74046 0.0
H394 H 0.52595 0.92103 0.61366 0.0
H395 H 0.63604 0.88804 0.69403 0.0
Co396 Co 0.61472 0.65485 0.47251 0.0
C397 C 0.56366 0.59994 0.47405 0.0
C398 C 0.66323 0.59903 0.45475 0.0
C399 C 0.64334 0.57291 0.456 0.0
N400 N 0.61311 0.61588 0.46589 0.0
N401 N 0.58078 0.57357 0.4681 0.0
H402 H 0.51651 0.60752 0.48459 0.0
H403 H 0.71153 0.6053 0.44729 0.0
C404 C 0.69108 0.66815 0.40945 0.0
O405 O 0.64573 0.68583 0.40449 0.0
N406 N 0.61838 0.69416 0.47978 0.0
C407 C 0.56985 0.7127 0.48628 0.0
C408 C 0.59699 0.7382 0.48944 0.0
C409 C 0.6743 0.70878 0.4804 0.0
N410 N 0.66254 0.73562 0.48522 0.0
C411 C 0.48053 0.66093 0.45306 0.0
C412 C 0.4921 0.63954 0.38118 0.0
C413 C 0.43042 0.6486 0.39481 0.0
C414 C 0.42493 0.65902 0.43134 0.0
C415 C 0.54666 0.64171 0.40402 0.0
N416 N 0.54118 0.65361 0.43918 0.0
H417 H 0.47407 0.66784 0.4814 0.0
H418 H 0.59265 0.63305 0.39352 0.0
H419 H 0.51833 0.70854 0.48892 0.0
H420 H 0.7228 0.69983 0.47726 0.0
O421 O 0.5657 0.6562 0.51645 0.0
O422 O 0.6743 0.65521 0.51239 0.0
O423 O 0.6834 0.65326 0.4336 0.0
C424 C 0.62203 0.65576 0.53248 0.0
H425 H 0.67346 0.55495 0.44992 0.0
H426 H 0.57045 0.75717 0.49383 0.0
H427 H 0.49773 0.6302 0.35338 0.0
H428 H 0.37786 0.66558 0.44314 0.0
Co429 Co 0.61742 0.65126 0.74529 0.0
C430 C 0.5616 0.70575 0.74679 0.0
C431 C 0.66434 0.70739 0.76 0.0
C432 C 0.64259 0.73329 0.75902 0.0
N433 N 0.6135 0.69022 0.75237 0.0
N434 N 0.57803 0.73221 0.75078 0.0
H435 H 0.51379 0.6977 0.73826 0.0
H436 H 0.71421 0.70143 0.76472 0.0
C437 C 0.69833 0.6387 0.8073 0.0
O438 O 0.65644 0.61978 0.81267 0.0
N439 N 0.62234 0.61194 0.73752 0.0
C440 C 0.57326 0.59358 0.73174 0.0
C441 C 0.59972 0.568 0.72735 0.0
C442 C 0.67802 0.59709 0.73531 0.0
N443 N 0.6656 0.57026 0.72961 0.0
C444 C 0.48337 0.64444 0.76466 0.0
C445 C 0.49524 0.65965 0.83795 0.0
C446 C 0.43443 0.65046 0.8235 0.0
C447 C 0.4284 0.64346 0.78643 0.0
C448 C 0.54931 0.66056 0.81495 0.0
N449 N 0.54396 0.6513 0.77892 0.0
H450 H 0.4767 0.63934 0.73607 0.0
H451 H 0.59482 0.66903 0.82626 0.0
H452 H 0.52164 0.59791 0.73047 0.0
H453 H 0.72674 0.60578 0.7378 0.0
O454 O 0.56785 0.64976 0.70166 0.0
O455 O 0.67632 0.65173 0.70498 0.0
O456 O 0.68763 0.65354 0.78346 0.0
C457 C 0.62378 0.65079 0.68526 0.0
H458 H 0.67224 0.75148 0.76335 0.0
H459 H 0.57235 0.54922 0.7237 0.0
H460 H 0.50069 0.66622 0.86657 0.0
H461 H 0.38149 0.63708 0.77437 0.0
Co462 Co 0.39544 0.40288 0.49696 0.0
C463 C 0.44878 0.45753 0.4978 0.0
C464 C 0.34985 0.45899 0.51802 0.0
C465 C 0.37025 0.48501 0.51627 0.0
N466 N 0.39924 0.44186 0.50646 0.0
N467 N 0.43208 0.48395 0.50311 0.0
H468 H 0.49545 0.44965 0.48694 0.0
H469 H 0.30141 0.45298 0.52562 0.0
C470 C 0.31567 0.387 0.557 0.0
O471 O 0.35986 0.36833 0.55966 0.0
N472 N 0.38977 0.3636 0.48639 0.0
C473 C 0.43784 0.34506 0.47813 0.0
C474 C 0.41001 0.31969 0.47151 0.0
C475 C 0.33328 0.34916 0.48343 0.0
N476 N 0.34431 0.32234 0.4749 0.0
C477 C 0.52786 0.39488 0.51792 0.0
C478 C 0.51454 0.41513 0.59004 0.0
C479 C 0.57681 0.40671 0.57655 0.0
C480 C 0.58291 0.3966 0.53997 0.0
C481 C 0.46034 0.41312 0.56684 0.0
N482 N 0.46679 0.40205 0.53138 0.0
H483 H 0.53551 0.38871 0.48955 0.0
H484 H 0.41405 0.42154 0.57724 0.0
H485 H 0.48958 0.34911 0.47653 0.0
H486 H 0.28491 0.35811 0.48766 0.0
O487 O 0.44827 0.40294 0.45477 0.0
O488 O 0.33978 0.4049 0.45556 0.0
O489 O 0.32424 0.40337 0.53465 0.0
C490 C 0.39429 0.40483 0.43725 0.0
H491 H 0.3408 0.50315 0.52245 0.0
H492 H 0.43629 0.30072 0.46551 0.0
H493 H 0.50826 0.42414 0.61792 0.0
H494 H 0.63032 0.39044 0.52826 0.0
Co495 Co 0.40575 0.41074 0.22463 0.0
C496 C 0.45924 0.35647 0.22794 0.0
C497 C 0.35689 0.35492 0.2139 0.0
C498 C 0.3772 0.32926 0.21733 0.0
N499 N 0.40838 0.37188 0.22045 0.0
N500 N 0.44133 0.33035 0.22651 0.0
H501 H 0.50748 0.3644 0.23582 0.0
H502 H 0.30747 0.36092 0.20832 0.0
C503 C 0.32798 0.42166 0.16122 0.0
O504 O 0.37049 0.44063 0.15681 0.0
N505 N 0.40117 0.45004 0.2298 0.0
C506 C 0.44976 0.46867 0.2347 0.0
C507 C 0.42255 0.4941 0.23816 0.0
C508 C 0.34502 0.46463 0.23151 0.0
N509 N 0.35672 0.49151 0.23615 0.0
C510 C 0.53913 0.41682 0.20281 0.0
C511 C 0.5267 0.39108 0.13274 0.0
C512 C 0.58837 0.40104 0.145 0.0
C513 C 0.59421 0.41398 0.18048 0.0
C514 C 0.47229 0.39484 0.15593 0.0
N515 N 0.47829 0.40859 0.19019 0.0
H516 H 0.54631 0.4249 0.23075 0.0
H517 H 0.42613 0.38571 0.14659 0.0
H518 H 0.50149 0.46472 0.23614 0.0
H519 H 0.29642 0.45569 0.22925 0.0
O520 O 0.45626 0.41375 0.268 0.0
O521 O 0.34768 0.41214 0.26584 0.0
O522 O 0.3364 0.40734 0.18596 0.0
C523 C 0.40091 0.41345 0.28515 0.0
H524 H 0.34686 0.31127 0.21375 0.0
H525 H 0.44938 0.51299 0.24117 0.0
H526 H 0.5208 0.38027 0.10568 0.0
H527 H 0.64161 0.42099 0.19127 0.0
C528 C 0.20254 0.2807 0.49976 0.0
C529 C 0.20893 0.25654 0.47516 0.0
C530 C 0.2456 0.3025 0.49879 0.0
C531 C 0.29681 0.30083 0.47338 0.0
H532 H 0.16516 0.28247 0.52051 0.0
H533 H 0.2401 0.32046 0.51873 0.0
S534 S 0.32744 0.24394 0.39939 0.0
N535 N 0.26518 0.23364 0.42196 0.0
N536 N 0.34673 0.27438 0.4206 0.0
C537 C 0.30183 0.2773 0.44768 0.0
C538 C 0.25778 0.25521 0.44849 0.0
C539 C 0.96182 1.02379 0.47579 0.0
C540 C 0.98502 1.00439 0.49576 0.0
C541 C 1.00176 0.0453 0.46922 0.0
C542 C 0.06634 0.04836 0.48257 0.0
H543 H 0.91263 1.0221 0.46477 0.0
H544 H 0.9821 0.05955 0.45329 0.0
S545 S 0.14794 1.00417 0.53928 0.0
N546 N 0.07508 0.99017 0.53031 0.0
N547 N 0.15 0.03087 0.51872 0.0
C548 C 0.08979 0.02924 0.50306 0.0
C549 C 0.04916 1.0072 0.50947 0.0
C550 C 0.28112 0.05033 0.71995 0.0
C551 C 0.21954 0.04977 0.7369 0.0
C552 C 0.32738 0.02963 0.72085 0.0
C553 C 0.31372 1.00774 0.73889 0.0
H554 H 0.2929 0.06655 0.70521 0.0
H555 H 0.37342 0.03039 0.70658 0.0
S556 S 0.16382 0.99913 0.79215 0.0
N557 N 0.15021 1.02703 0.77528 0.0
N558 N 0.237 0.98833 0.77718 0.0
C559 C 0.25339 1.00758 0.75714 0.0
C560 C 0.20636 1.02854 0.75611 0.0
C561 C 0.94367 0.27845 0.74382 0.0
C562 C 0.97151 0.29949 0.72803 0.0
C563 C 0.98176 0.25656 0.75079 0.0
C564 C 0.04915 0.25494 0.74239 0.0
H565 H 0.89226 0.27914 0.7514 0.0
H566 H 0.95863 0.24102 0.76342 0.0
S567 S 0.14419 0.3032 0.69732 0.0
N568 N 0.06954 0.31622 0.70184 0.0
N569 N 0.14113 0.27521 0.71513 0.0
C570 C 0.07734 0.27553 0.72596 0.0
C571 C 0.03854 0.29777 0.71876 0.0
C572 C 0.74806 0.8029 0.507 0.0
C573 C 0.80152 0.80003 0.48291 0.0
C574 C 0.70282 0.78179 0.50761 0.0
C575 C 0.70952 0.75705 0.48425 0.0
H576 H 0.742 0.82138 0.52602 0.0
H577 H 0.66292 0.78466 0.52692 0.0
S578 S 0.83624 0.74049 0.41317 0.0
N579 N 0.85531 0.77132 0.43312 0.0
N580 N 0.77055 0.73173 0.4344 0.0
C581 C 0.76174 0.75419 0.45942 0.0
C582 C 0.80765 0.77566 0.45872 0.0
C583 C 0.79888 0.03354 0.26539 0.0
C584 C 0.79972 1.01114 0.23769 0.0
C585 C 0.75679 0.05549 0.26385 0.0
C586 C 0.71423 0.05568 0.23457 0.0
H587 H 0.83051 0.03389 0.28849 0.0
H588 H 0.75681 0.07229 0.28587 0.0
S589 S 0.70586 1.00388 0.15271 0.0
N590 N 0.76023 0.99185 0.17847 0.0
N591 N 0.68013 0.03283 0.17585 0.0
C592 C 0.71601 0.03372 0.20631 0.0
C593 C 0.75908 1.01151 0.20779 0.0
C594 C 0.9527 0.77873 0.21089 0.0
C595 C 0.95561 0.80411 0.23308 0.0
C596 C 0.99152 0.75705 0.21792 0.0
C597 C 0.03451 0.75997 0.24745 0.0
H598 H 0.92105 0.77579 0.18758 0.0
H599 H 0.98891 0.73802 0.19969 0.0
S600 S 0.05394 0.82128 0.31625 0.0
N601 N 1.00065 0.83025 0.28744 0.0
N602 N 0.07355 0.78957 0.30063 0.0
C603 C 0.03647 0.78504 0.27038 0.0
C604 C 0.99703 0.80708 0.26321 0.0
C605 C 0.23319 0.80577 -0.00551 0.0
C606 C 0.29546 0.8022 0.97803 0.0
C607 C 0.18893 0.78412 -0.00675 0.0
C608 C 0.20517 0.75803 0.97554 0.0
H609 H 0.21917 0.8253 0.00925 0.0
H610 H 0.14224 0.78773 0.00702 0.0
S611 S 0.35999 0.73872 0.92534 0.0
N612 N 0.3695 0.7711 0.94155 0.0
N613 N 0.28673 0.73043 0.93911 0.0
C614 C 0.26682 0.75438 0.95824 0.0
C615 C 0.3118 0.77644 0.95953 0.0
C616 C 0.95834 0.52523 0.97758 0.0
C617 C 0.98301 0.50563 -0.00321 0.0
C618 C 0.99682 0.54732 0.97166 0.0
C619 C 0.0614 0.5508 0.98492 0.0
H620 H 0.90912 0.52325 0.96662 0.0
H621 H 0.97603 0.56167 0.95625 0.0
S622 S 0.14677 0.50618 0.03962 0.0
N623 N 0.07457 0.49161 0.03049 0.0
N624 N 0.14682 0.53338 0.02001 0.0
C625 C 0.0864 0.53146 0.00461 0.0
C626 C 0.04722 0.50883 0.01039 0.0
C627 C 0.20966 0.53012 0.21166 0.0
C628 C 0.21673 0.55544 0.23372 0.0
C629 C 0.25505 0.50923 0.21293 0.0
C630 C 0.30924 0.51287 0.23628 0.0
H631 H 0.16915 0.52657 0.19296 0.0
H632 H 0.2484 0.49024 0.19503 0.0
S633 S 0.34615 0.57424 0.30238 0.0
N634 N 0.2795 0.5822 0.28154 0.0
N635 N 0.36483 0.54304 0.28374 0.0
C636 C 0.31618 0.53787 0.25899 0.0
C637 C 0.26996 0.55913 0.25775 0.0
C638 C 0.77552 0.25678 -0.00125 0.0
C639 C 0.71479 0.25762 0.98134 0.0
C640 C 0.82191 0.27755 -0.00106 0.0
C641 C 0.80938 0.29987 0.98157 0.0
H642 H 0.78667 0.2402 0.01292 0.0
H643 H 0.86744 0.27639 0.01337 0.0
S644 S 0.66112 0.30995 0.92845 0.0
N645 N 0.64672 0.28148 0.94389 0.0
N646 N 0.73398 0.32043 0.94415 0.0
C647 C 0.74954 0.30058 0.96328 0.0
C648 C 0.70227 0.27947 0.96316 0.0
C649 C 0.76584 0.55171 0.75318 0.0
C650 C 0.71229 0.54861 0.72937 0.0
C651 C 0.81002 0.53044 0.75461 0.0
C652 C 0.80227 0.50526 0.73232 0.0
H653 H 0.77274 0.57052 0.77142 0.0
H654 H 0.84997 0.53357 0.77372 0.0
S655 S 0.67432 0.4878 0.66251 0.0
N656 N 0.65676 0.51911 0.68121 0.0
N657 N 0.73979 0.4792 0.6838 0.0
C658 C 0.7498 0.50212 0.70781 0.0
C659 C 0.70484 0.52377 0.70635 0.0
C660 C 0.55942 0.03254 -0.00342 0.0
C661 C 0.53432 0.05348 0.97977 0.0
C662 C 0.51939 1.01107 0.00331 0.0
C663 C 0.45263 1.0097 -0.00641 0.0
H664 H 0.61027 0.03294 0.00503 0.0
H665 H 0.54061 0.99555 0.01663 0.0
S666 S 0.36454 0.05798 0.94568 0.0
N667 N 0.43955 0.07054 0.95145 0.0
N668 N 0.36428 0.03026 0.96416 0.0
C669 C 0.42708 0.03029 0.97629 0.0
C670 C 0.46791 0.05215 0.96938 0.0
C671 C 0.54747 0.3061 0.22373 0.0
C672 C 0.48138 0.30851 0.23494 0.0
C673 C 0.58659 0.2845 0.23082 0.0
C674 C 0.56096 0.26458 0.24942 0.0
H675 H 0.56853 0.32071 0.2087 0.0
H676 H 0.63671 0.283 0.22096 0.0
S677 S 0.39383 0.26371 0.28878 0.0
N678 N 0.3941 0.29054 0.26847 0.0
N679 N 0.46746 0.25002 0.28167 0.0
C680 C 0.49569 0.26728 0.26178 0.0
C681 C 0.45594 0.28922 0.25458 0.0
C682 C 0.52589 0.79679 0.72027 0.0
C683 C 0.45951 0.79931 0.73091 0.0
C684 C 0.56407 0.77484 0.72679 0.0
C685 C 0.53745 0.75446 0.74417 0.0
H686 H 0.54836 0.81182 0.70645 0.0
H687 H 0.61472 0.77364 0.71776 0.0
S688 S 0.36794 0.75248 0.7801 0.0
N689 N 0.36983 0.78017 0.76154 0.0
N690 N 0.44168 0.73879 0.7735 0.0
C691 C 0.47134 0.75675 0.75521 0.0
C692 C 0.43237 0.77918 0.74866 0.0
C693 C 0.50404 0.55359 0.50742 0.0
C694 C 0.5425 0.55104 0.476 0.0
C695 C 0.46822 0.53157 0.51614 0.0
C696 C 0.46963 0.50623 0.49377 0.0
H697 H 0.50267 0.5726 0.52571 0.0
H698 H 0.43991 0.53424 0.54081 0.0
S699 S 0.55618 0.49007 0.40625 0.0
N700 N 0.57576 0.52189 0.42114 0.0
N701 N 0.50816 0.48057 0.43732 0.0
C702 C 0.50657 0.50363 0.46182 0.0
C703 C 0.54307 0.52602 0.453 0.0
C704 C 0.30638 0.16245 0.38883 0.0
C705 C 0.27738 0.13674 0.38721 0.0
C706 C 0.36474 0.16602 0.37024 0.0
C707 C 0.39725 0.14392 0.35002 0.0
H708 H 0.28316 0.18004 0.40412 0.0
H709 H 0.38449 0.18623 0.37146 0.0
S710 S 0.34399 0.0723 0.33783 0.0
N711 N 0.28685 0.08867 0.36398 0.0
N712 N 0.39734 0.09546 0.32961 0.0
C713 C 0.36982 0.11805 0.34861 0.0
C714 C 0.30966 0.11443 0.36703 0.0
C715 C 0.82395 0.15355 0.32119 0.0
C716 C 0.77242 0.17039 0.33681 0.0
C717 C 0.88188 0.15018 0.3402 0.0
C718 C 0.89035 0.16329 0.3757 0.0
H719 H 0.81962 0.14272 0.29404 0.0
H720 H 0.9197 0.13676 0.32731 0.0
S721 S 0.7731 0.21068 0.42858 0.0
N722 N 0.73576 0.20117 0.38982 0.0
N723 N 0.84427 0.19467 0.42529 0.0
C724 C 0.84002 0.1805 0.39148 0.0
C725 C 0.78124 0.18409 0.37213 0.0
C726 C 0.28463 0.16473 0.84421 0.0
C727 C 0.2562 0.13936 0.83181 0.0
C728 C 0.34282 0.16691 0.8643 0.0
C729 C 0.37554 0.14375 0.87177 0.0
H730 H 0.26117 0.18306 0.83881 0.0
H731 H 0.36249 0.18684 0.87407 0.0
S732 S 0.3235 0.07258 0.84366 0.0
N733 N 0.2661 0.09056 0.82754 0.0
N734 N 0.37642 0.0947 0.86462 0.0
C735 C 0.3485 0.11825 0.85888 0.0
C736 C 0.28851 0.11604 0.83908 0.0
C737 C 0.84191 0.13689 0.85485 0.0
C738 C 0.87584 0.16005 0.84803 0.0
C739 C 0.78373 0.13911 0.87534 0.0
C740 C 0.75649 0.16455 0.88868 0.0
H741 H 0.86066 0.11694 0.84435 0.0
H742 H 0.75922 0.12081 0.88017 0.0
S743 S 0.82717 0.2313 0.87895 0.0
N744 N 0.87906 0.20913 0.85705 0.0
N745 N 0.76883 0.21334 0.89457 0.0
C746 C 0.79004 0.18783 0.88208 0.0
C747 C 0.84999 0.18557 0.862 0.0
C748 C 0.64728 0.8921 0.59119 0.0
C749 C 0.65004 0.90289 0.62801 0.0
C750 C 0.70466 0.88833 0.57022 0.0
C751 C 0.76671 0.89484 0.58545 0.0
H752 H 0.60068 0.88586 0.57869 0.0
H753 H 0.70062 0.87976 0.54205 0.0
S754 S 0.80102 0.92652 0.67898 0.0
N755 N 0.72036 0.92261 0.67765 0.0
N756 N 0.82799 0.9142 0.63831 0.0
C757 C 0.77039 0.90622 0.62174 0.0
C758 C 0.71207 0.91059 0.64301 0.0
C759 C 0.24276 0.87223 0.60883 0.0
C760 C 0.26661 0.89374 0.6341 0.0
C761 C 0.18521 0.87495 0.58942 0.0
C762 C 0.14928 0.89929 0.59442 0.0
H763 H 0.26799 0.85295 0.60442 0.0
H764 H 0.16829 0.85772 0.57053 0.0
S765 S 0.19361 0.9625 0.6551 0.0
N766 N 0.25154 0.94078 0.66162 0.0
N767 N 0.14361 0.94578 0.62496 0.0
C768 C 0.17305 0.92111 0.61913 0.0
C769 C 0.23168 0.91838 0.63894 0.0
C770 C 0.73645 0.90011 0.11116 0.0
C771 C 0.73842 0.91613 0.14512 0.0
C772 C 0.6785 0.89774 0.09089 0.0
C773 C 0.62082 0.91216 0.10318 0.0
H774 H 0.77995 0.88927 0.10023 0.0
H775 H 0.67941 0.88449 0.06522 0.0
S776 S 0.6017 0.95621 0.192 0.0
N777 N 0.67762 0.9447 0.19196 0.0
N778 N 0.57111 0.94317 0.15256 0.0
C779 C 0.62265 0.9281 0.13763 0.0
C780 C 0.68092 0.92942 0.15884 0.0
C781 C 0.17307 0.88184 0.12929 0.0
C782 C 0.11764 0.8959 0.11998 0.0
C783 C 0.23021 0.87984 0.10826 0.0
C784 C 0.23449 0.89219 0.07738 0.0
H785 H 0.17229 0.87237 0.15315 0.0
H786 H 0.27167 0.86886 0.11664 0.0
S787 S 0.10201 0.93093 0.04117 0.0
N788 N 0.06966 0.92194 0.07769 0.0
N789 N 0.17727 0.91841 0.03803 0.0
C790 C 0.17902 0.90612 0.06759 0.0
C791 C 0.12049 0.90786 0.08887 0.0
C792 C 0.3084 0.62015 0.87946 0.0
C793 C 0.25944 0.64016 0.88487 0.0
C794 C 0.36639 0.62411 0.86068 0.0
C795 C 0.37659 0.64803 0.84642 0.0
H796 H 0.30223 0.60154 0.89027 0.0
H797 H 0.40301 0.60821 0.85673 0.0
S798 S 0.2608 0.7054 0.85053 0.0
N799 N 0.22372 0.68422 0.87344 0.0
N800 N 0.33177 0.69118 0.83702 0.0
C801 C 0.32751 0.66792 0.85107 0.0
C802 C 0.26912 0.66412 0.87069 0.0
C803 C 0.75703 0.65237 0.86524 0.0
C804 C 0.75945 0.64252 0.82836 0.0
C805 C 0.81476 0.65575 0.88575 0.0
C806 C 0.87706 0.64866 0.87034 0.0
H807 H 0.71023 0.65771 0.87828 0.0
H808 H 0.81028 0.66392 0.91402 0.0
S809 S 0.90817 0.62092 0.77439 0.0
N810 N 0.828 0.62603 0.77679 0.0
N811 N 0.93617 0.63051 0.8155 0.0
C812 C 0.87964 0.63873 0.83323 0.0
C813 C 0.8209 0.63604 0.81224 0.0
C814 C 0.25576 0.63382 0.36187 0.0
C815 C 0.25369 0.64498 0.32999 0.0
C816 C 0.31327 0.63481 0.38242 0.0
C817 C 0.37123 0.64666 0.37164 0.0
H818 H 0.21246 0.62443 0.37127 0.0
H819 H 0.31245 0.62613 0.40692 0.0
S820 S 0.39287 0.67805 0.2899 0.0
N821 N 0.31562 0.66777 0.28823 0.0
N822 N 0.42347 0.66955 0.32698 0.0
C823 C 0.3703 0.65752 0.3396 0.0
C824 C 0.31159 0.65676 0.3188 0.0
C825 C 0.756 0.67708 0.35607 0.0
C826 C 0.75304 0.66644 0.38833 0.0
C827 C 0.81406 0.67582 0.33572 0.0
C828 C 0.87165 0.6642 0.34709 0.0
H829 H 0.71297 0.68623 0.34621 0.0
H830 H 0.81393 0.68406 0.31089 0.0
S831 S 0.89108 0.63432 0.43009 0.0
N832 N 0.81385 0.64452 0.43116 0.0
N833 N 0.92264 0.64219 0.39275 0.0
C834 C 0.86986 0.65393 0.37954 0.0
C835 C 0.81064 0.65498 0.40015 0.0
C836 C 0.68389 0.41986 0.11527 0.0
C837 C 0.64759 0.39721 0.12177 0.0
C838 C 0.74214 0.41682 0.09501 0.0
C839 C 0.76707 0.39102 0.08146 0.0
H840 H 0.66697 0.44008 0.12591 0.0
H841 H 0.76841 0.43479 0.0904 0.0
S842 S 0.68974 0.32531 0.09033 0.0
N843 N 0.63971 0.34819 0.11237 0.0
N844 N 0.75007 0.34243 0.07496 0.0
C845 C 0.73118 0.36821 0.0877 0.0
C846 C 0.67114 0.37132 0.10767 0.0
C847 C 0.18164 0.43749 0.10588 0.0
C848 C 0.14949 0.41242 0.09809 0.0
C849 C 0.24015 0.44019 0.12578 0.0
C850 C 0.26784 0.41797 0.13894 0.0
H851 H 0.16182 0.45501 0.09614 0.0
H852 H 0.26331 0.4599 0.13131 0.0
S853 S 0.20262 0.34785 0.12465 0.0
N854 N 0.14964 0.36494 0.10395 0.0
N855 N 0.25891 0.36995 0.14188 0.0
C856 C 0.23581 0.3928 0.13121 0.0
C857 C 0.17681 0.39003 0.1106 0.0
C858 C 0.75152 0.42326 0.60833 0.0
C859 C 0.75539 0.41231 0.64033 0.0
C860 C 0.69333 0.42175 0.5883 0.0
C861 C 0.63635 0.40947 0.5996 0.0
H862 H 0.79394 0.4329 0.59841 0.0
H863 H 0.69293 0.43029 0.5637 0.0
S864 S 0.61919 0.37853 0.68197 0.0
N865 N 0.69593 0.38939 0.68291 0.0
N866 N 0.58687 0.38654 0.64502 0.0
C867 C 0.63894 0.3989 0.63182 0.0
C868 C 0.69837 0.40025 0.65217 0.0
C869 C 0.15889 0.41441 0.6048 0.0
C870 C 0.135 0.39218 0.61933 0.0
C871 C 0.2172 0.41252 0.58453 0.0
C872 C 0.25442 0.38849 0.57878 0.0
H873 H 0.1325 0.43343 0.60938 0.0
H874 H 0.23372 0.43018 0.5738 0.0
S875 S 0.21162 0.3245 0.61137 0.0
N876 N 0.15143 0.34544 0.62642 0.0
N877 N 0.26198 0.34187 0.58926 0.0
C878 C 0.23071 0.36612 0.59337 0.0
C879 C 0.17073 0.36797 0.61341 0.0
C880 C 0.0757 0.15281 0.62849 0.0
C881 C 0.13396 0.15179 0.64821 0.0
C882 C 0.07722 0.15426 0.59178 0.0
C883 C 0.13707 0.15473 0.57307 0.0
H884 H 0.02817 0.15252 0.64146 0.0
H885 H 0.03078 0.15486 0.57797 0.0
S886 S 0.3039 0.15258 0.61211 0.0
N887 N 0.25356 0.15146 0.64627 0.0
N888 N 0.25641 0.15413 0.57712 0.0
C889 C 0.19588 0.15382 0.5924 0.0
C890 C 0.19433 0.15235 0.62996 0.0
C891 C 0.94263 0.90119 0.3792 0.0
C892 C 0.88509 0.9025 0.40015 0.0
C893 C 0.94027 0.90336 0.34282 0.0
C894 C 0.88026 0.90691 0.32582 0.0
H895 H 0.99025 0.89856 0.39094 0.0
H896 H 0.98611 0.9021 0.32794 0.0
S897 S 0.71515 0.91148 0.36855 0.0
N898 N 0.76603 0.90746 0.40126 0.0
N899 N 0.76159 0.91151 0.33258 0.0
C900 C 0.82213 0.90813 0.34632 0.0
C901 C 0.82454 0.90592 0.38355 0.0
C902 C 0.18131 0.6542 0.09033 0.0
C903 C 0.12522 0.66215 0.07296 0.0
C904 C 0.1804 0.65306 0.12728 0.0
C905 C 0.12332 0.65974 0.14795 0.0
H906 H 0.22554 0.64806 0.07513 0.0
H907 H 0.22409 0.64625 0.13951 0.0
S908 S 0.96653 0.68532 0.11615 0.0
N909 N 0.01324 0.67926 0.07992 0.0
N910 N 0.01151 0.67709 0.14902 0.0
C911 C 0.06793 0.66881 0.13114 0.0
C912 C 0.0689 0.67003 0.09371 0.0
C913 C 0.95236 0.40387 0.87907 0.0
C914 C 0.89415 0.40185 0.89868 0.0
C915 C 0.95086 0.40518 0.84235 0.0
C916 C 0.89109 0.40448 0.82358 0.0
H917 H 0.99979 0.40456 0.89215 0.0
H918 H 0.99725 0.40664 0.8286 0.0
S919 S 0.72446 0.39907 0.8623 0.0
N920 N 0.77472 0.39908 0.89656 0.0
N921 N 0.7719 0.40151 0.82737 0.0
C922 C 0.83232 0.40247 0.84279 0.0
C923 C 0.83385 0.40115 0.88035 0.0
C924 C 0.68565 0.15709 0.12857 0.0
C925 C 0.62833 0.16146 0.1497 0.0
C926 C 0.68377 0.15687 0.0913 0.0
C927 C 0.62452 0.16107 0.07383 0.0
H928 H 0.73216 0.15336 0.14076 0.0
H929 H 0.72891 0.15297 0.07604 0.0
S930 S 0.46155 0.17559 0.11745 0.0
N931 N 0.51128 0.17159 0.15062 0.0
N932 N 0.50774 0.17121 0.08097 0.0
C933 C 0.56721 0.16616 0.09485 0.0
C934 C 0.56911 0.16635 0.13266 0.0
C935 C 0.32919 0.91229 0.84316 0.0
C936 C 0.38604 0.90369 0.82324 0.0
C937 C 0.32614 0.91178 0.88023 0.0
C938 C 0.37982 0.9026 0.89833 0.0
H939 H 0.2875 0.92007 0.83025 0.0
H940 H 0.28229 0.91927 0.89492 0.0
S941 S 0.53612 0.87432 0.85725 0.0
N942 N 0.49446 0.88327 0.82364 0.0
N943 N 0.48875 0.88229 0.89295 0.0
C944 C 0.43569 0.89287 0.87833 0.0
C945 C 0.43881 0.89342 0.84083 0.0
C946 C 0.56644 0.65382 0.59079 0.0
C947 C 0.62529 0.65485 0.57141 0.0
C948 C 0.56688 0.65231 0.62742 0.0
C949 C 0.62619 0.65182 0.64633 0.0
H950 H 0.51926 0.65406 0.57762 0.0
H951 H 0.52001 0.65162 0.64097 0.0
S952 S 0.79421 0.65408 0.60819 0.0
N953 N 0.74486 0.65526 0.57383 0.0
N954 N 0.74568 0.65247 0.64295 0.0
C955 C 0.68562 0.65285 0.62738 0.0
C956 C 0.68517 0.65436 0.58988 0.0
C957 C 0.3395 0.40977 0.34209 0.0
C958 C 0.39941 0.41277 0.3243 0.0
C959 C 0.33788 0.40736 0.37869 0.0
C960 C 0.39614 0.40776 0.39876 0.0
H961 H 0.29351 0.4089 0.32757 0.0
H962 H 0.29073 0.40488 0.39118 0.0
S963 S 0.56579 0.41624 0.36518 0.0
N964 N 0.51832 0.41687 0.33001 0.0
N965 N 0.51543 0.41225 0.39825 0.0
C966 C 0.45627 0.4112 0.38138 0.0
C967 C 0.45786 0.41374 0.34431 0.0
loop_
_geom_bond_atom_site_label_1
_geom_bond_atom_site_label_2
_geom_bond_distance
_geom_bond_site_symmetry_2
_ccdc_geom_bond_type
Co0 N4 2.148 . S
Co0 N10 2.128 . S
Co0 N20 2.194 . S
Co0 O25 2.351 . S
Co0 O26 2.155 . S
Co0 O27 2.096 . S
C1 N4 1.301 . S
C1 N5 1.328 . S
C1 H6 0.930 . S
C2 C3 1.333 . S
C2 N4 1.317 . S
C2 H7 0.930 . S
C3 C2 1.333 . S
C3 N5 1.350 . S
C3 H29 0.931 . S
N4 Co0 2.148 . S
N4 C1 1.301 . S
N4 C2 1.317 . S
N5 C1 1.328 . S
N5 C3 1.350 . S
H6 C1 0.930 . S
H7 C2 0.930 . S
C8 O9 1.224 . S
C8 O27 1.247 . S
O9 C8 1.224 . S
N10 Co0 2.128 . S
N10 C11 1.355 . S
N10 C13 1.311 . S
C11 N10 1.355 . S
C11 C12 1.363 . S
C11 H23 0.929 . S
C12 C11 1.363 . S
C12 N14 1.375 . S
C12 H30 0.931 . S
C13 N10 1.311 . S
C13 N14 1.347 . S
C13 H24 0.929 . S
N14 C12 1.375 . S
N14 C13 1.347 . S
C15 C18 1.365 . S
C15 N20 1.328 1_655 S
C15 H21 0.929 . S
C16 C17 1.362 . S
C16 C19 1.378 1_655 S
C16 H31 0.929 . S
C17 C16 1.362 . S
C17 C18 1.366 . S
C18 C15 1.365 . S
C18 C17 1.366 . S
C18 H32 0.930 . S
C19 C16 1.378 1_455 S
C19 N20 1.315 . S
C19 H22 0.930 . S
N20 Co0 2.194 . S
N20 C15 1.328 1_455 S
N20 C19 1.315 . S
H21 C15 0.929 . S
H22 C19 0.930 . S
H23 C11 0.929 . S
H24 C13 0.929 . S
O25 Co0 2.351 . S
O25 C28 1.244 . S
O26 Co0 2.155 . S
O26 C28 1.240 . S
O27 Co0 2.096 . S
O27 C8 1.247 . S
C28 O25 1.244 . S
C28 O26 1.240 . S
H29 C3 0.931 . S
H30 C12 0.931 . S
H31 C16 0.929 . S
H32 C18 0.930 . S
Co33 N37 2.148 . S
Co33 N43 2.128 . S
Co33 N53 2.194 . S
Co33 O58 2.351 . S
Co33 O59 2.155 . S
Co33 O60 2.096 . S
C34 N37 1.301 . S
C34 N38 1.328 . S
C34 H39 0.930 . S
C35 C36 1.333 . S
C35 N37 1.317 . S
C35 H40 0.930 . S
C36 C35 1.333 . S
C36 N38 1.350 . S
C36 H62 0.931 . S
N37 Co33 2.148 . S
N37 C34 1.301 . S
N37 C35 1.317 . S
N38 C34 1.328 . S
N38 C36 1.350 . S
H39 C34 0.930 . S
H40 C35 0.930 . S
C41 O42 1.224 . S
C41 O60 1.247 . S
O42 C41 1.224 . S
N43 Co33 2.128 . S
N43 C44 1.355 . S
N43 C46 1.311 . S
C44 N43 1.355 . S
C44 C45 1.363 . S
C44 H56 0.929 . S
C45 C44 1.363 . S
C45 N47 1.375 . S
C45 H63 0.931 . S
C46 N43 1.311 . S
C46 N47 1.347 . S
C46 H57 0.929 . S
N47 C45 1.375 . S
N47 C46 1.347 . S
C48 C51 1.365 . S
C48 N53 1.328 1_655 S
C48 H54 0.929 . S
C49 C50 1.362 . S
C49 C52 1.378 1_655 S
C49 H64 0.929 . S
C50 C49 1.362 . S
C50 C51 1.366 . S
C51 C48 1.365 . S
C51 C50 1.366 . S
C51 H65 0.930 . S
C52 C49 1.378 1_455 S
C52 N53 1.315 . S
C52 H55 0.930 . S
N53 Co33 2.194 . S
N53 C48 1.328 1_455 S
N53 C52 1.315 . S
H54 C48 0.929 . S
H55 C52 0.930 . S
H56 C44 0.929 . S
H57 C46 0.929 . S
O58 Co33 2.351 . S
O58 C61 1.244 . S
O59 Co33 2.155 . S
O59 C61 1.240 . S
O60 Co33 2.096 . S
O60 C41 1.247 . S
C61 O58 1.244 . S
C61 O59 1.240 . S
H62 C36 0.931 . S
H63 C45 0.931 . S
H64 C49 0.929 . S
H65 C51 0.930 . S
Co66 N70 2.148 . S
Co66 N76 2.128 . S
Co66 N86 2.194 . S
Co66 O91 2.351 . S
Co66 O92 2.155 . S
Co66 O93 2.096 . S
C67 N70 1.301 . S
C67 N71 1.328 . S
C67 H72 0.930 . S
C68 C69 1.333 . S
C68 N70 1.317 . S
C68 H73 0.930 . S
C69 C68 1.333 . S
C69 N71 1.350 . S
C69 H95 0.931 . S
N70 Co66 2.148 . S
N70 C67 1.301 . S
N70 C68 1.317 . S
N71 C67 1.328 . S
N71 C69 1.350 . S
H72 C67 0.930 . S
H73 C68 0.930 . S
C74 O75 1.224 . S
C74 O93 1.247 . S
O75 C74 1.224 . S
N76 Co66 2.128 . S
N76 C77 1.355 . S
N76 C79 1.311 . S
C77 N76 1.355 . S
C77 C78 1.363 . S
C77 H89 0.929 . S
C78 C77 1.363 . S
C78 N80 1.375 . S
C78 H96 0.931 . S
C79 N76 1.311 . S
C79 N80 1.347 . S
C79 H90 0.929 . S
N80 C78 1.375 . S
N80 C79 1.347 . S
C81 C84 1.365 . S
C81 N86 1.328 1_455 S
C81 H87 0.929 . S
C82 C83 1.362 . S
C82 C85 1.378 1_455 S
C82 H97 0.929 . S
C83 C82 1.362 . S
C83 C84 1.366 . S
C84 C81 1.365 . S
C84 C83 1.366 . S
C84 H98 0.930 . S
C85 C82 1.378 1_655 S
C85 N86 1.315 . S
C85 H88 0.930 . S
N86 Co66 2.194 . S
N86 C81 1.328 1_655 S
N86 C85 1.315 . S
H87 C81 0.929 . S
H88 C85 0.930 . S
H89 C77 0.929 . S
H90 C79 0.929 . S
O91 Co66 2.351 . S
O91 C94 1.244 . S
O92 Co66 2.155 . S
O92 C94 1.240 . S
O93 Co66 2.096 . S
O93 C74 1.247 . S
C94 O91 1.244 . S
C94 O92 1.240 . S
H95 C69 0.931 . S
H96 C78 0.931 . S
H97 C82 0.929 . S
H98 C84 0.930 . S
Co99 N103 2.148 . S
Co99 N109 2.128 . S
Co99 N119 2.194 . S
Co99 O124 2.351 . S
Co99 O125 2.155 . S
Co99 O126 2.096 . S
C100 N103 1.301 . S
C100 N104 1.328 . S
C100 H105 0.930 . S
C101 C102 1.333 . S
C101 N103 1.317 . S
C101 H106 0.930 . S
C102 C101 1.333 . S
C102 N104 1.350 . S
C102 H128 0.931 . S
N103 Co99 2.148 . S
N103 C100 1.301 . S
N103 C101 1.317 . S
N104 C100 1.328 . S
N104 C102 1.350 . S
H105 C100 0.930 . S
H106 C101 0.930 . S
C107 O108 1.224 . S
C107 O126 1.247 . S
O108 C107 1.224 . S
N109 Co99 2.128 . S
N109 C110 1.355 . S
N109 C112 1.311 . S
C110 N109 1.355 . S
C110 C111 1.363 . S
C110 H122 0.929 . S
C111 C110 1.363 . S
C111 N113 1.375 . S
C111 H129 0.931 . S
C112 N109 1.311 . S
C112 N113 1.347 . S
C112 H123 0.929 . S
N113 C111 1.375 . S
N113 C112 1.347 . S
C114 C117 1.365 . S
C114 N119 1.328 1_455 S
C114 H120 0.929 . S
C115 C116 1.362 . S
C115 C118 1.378 1_455 S
C115 H130 0.929 . S
C116 C115 1.362 . S
C116 C117 1.366 . S
C117 C114 1.365 . S
C117 C116 1.366 . S
C117 H131 0.930 . S
C118 C115 1.378 1_655 S
C118 N119 1.315 . S
C118 H121 0.930 . S
N119 Co99 2.194 . S
N119 C114 1.328 1_655 S
N119 C118 1.315 . S
H120 C114 0.929 . S
H121 C118 0.930 . S
H122 C110 0.929 . S
H123 C112 0.929 . S
O124 Co99 2.351 . S
O124 C127 1.244 . S
O125 Co99 2.155 . S
O125 C127 1.240 . S
O126 Co99 2.096 . S
O126 C107 1.247 . S
C127 O124 1.244 . S
C127 O125 1.240 . S
H128 C102 0.931 . S
H129 C111 0.931 . S
H130 C115 0.929 . S
H131 C117 0.930 . S
Co132 N136 2.148 . S
Co132 N142 2.128 . S
Co132 N152 2.194 . S
Co132 O157 2.351 1_556 S
Co132 O158 2.155 1_556 S
Co132 O159 2.096 . S
C133 N136 1.301 . S
C133 N137 1.328 . S
C133 H138 0.916 1_556 S
C134 C135 1.333 . S
C134 N136 1.317 . S
C134 H139 0.930 . S
C135 C134 1.333 . S
C135 N137 1.350 . S
C135 H161 0.931 . S
N136 Co132 2.148 . S
N136 C133 1.301 . S
N136 C134 1.317 . S
N137 C133 1.328 . S
N137 C135 1.350 . S
H138 C133 0.916 1_554 S
H139 C134 0.930 . S
C140 O141 1.224 . S
C140 O159 1.247 . S
O141 C140 1.224 . S
N142 Co132 2.128 . S
N142 C143 1.355 . S
N142 C145 1.311 . S
C143 N142 1.355 . S
C143 C144 1.363 . S
C143 H155 0.929 1_556 S
C144 C143 1.363 . S
C144 N146 1.375 . S
C144 H162 0.931 . S
C145 N142 1.311 . S
C145 N146 1.347 . S
C145 H156 0.929 . S
N146 C144 1.375 . S
N146 C145 1.347 . S
C147 C150 1.365 . S
C147 N152 1.328 1_655 S
C147 H153 0.929 . S
C148 C149 1.362 . S
C148 C151 1.378 1_655 S
C148 H163 0.929 . S
C149 C148 1.362 . S
C149 C150 1.366 . S
C150 C147 1.365 . S
C150 C149 1.366 . S
C150 H164 0.930 . S
C151 C148 1.378 1_455 S
C151 N152 1.315 . S
C151 H154 0.930 . S
N152 Co132 2.194 . S
N152 C147 1.328 1_455 S
N152 C151 1.315 . S
H153 C147 0.929 . S
H154 C151 0.930 . S
H155 C143 0.929 1_554 S
H156 C145 0.929 . S
O157 Co132 2.351 1_554 S
O157 C160 1.244 . S
O158 Co132 2.155 1_554 S
O158 C160 1.240 . S
O159 Co132 2.096 . S
O159 C140 1.247 . S
C160 O157 1.244 . S
C160 O158 1.240 . S
H161 C135 0.931 . S
H162 C144 0.931 . S
H163 C148 0.929 . S
H164 C150 0.930 . S
Co165 N169 2.148 . S
Co165 N175 2.128 . S
Co165 N185 2.194 . S
Co165 O190 2.351 . S
Co165 O191 2.155 . S
Co165 O192 2.096 . S
C166 N169 1.301 . S
C166 N170 1.328 . S
C166 H171 0.930 . S
C167 C168 1.333 . S
C167 N169 1.317 . S
C167 H172 0.930 . S
C168 C167 1.333 . S
C168 N170 1.350 . S
C168 H194 0.931 . S
N169 Co165 2.148 . S
N169 C166 1.301 . S
N169 C167 1.317 . S
N170 C166 1.328 . S
N170 C168 1.350 . S
H171 C166 0.930 . S
H172 C167 0.930 . S
C173 O174 1.224 . S
C173 O192 1.247 . S
O174 C173 1.224 . S
N175 Co165 2.128 . S
N175 C176 1.355 . S
N175 C178 1.311 . S
C176 N175 1.355 . S
C176 C177 1.363 . S
C176 H188 0.929 . S
C177 C176 1.363 . S
C177 N179 1.375 . S
C177 H195 0.931 . S
C178 N175 1.311 . S
C178 N179 1.347 . S
C178 H189 0.929 . S
N179 C177 1.375 . S
N179 C178 1.347 . S
C180 C183 1.365 . S
C180 N185 1.328 1_655 S
C180 H186 0.929 . S
C181 C182 1.362 . S
C181 C184 1.378 1_655 S
C181 H196 0.929 . S
C182 C181 1.362 . S
C182 C183 1.366 . S
C183 C180 1.365 . S
C183 C182 1.366 . S
C183 H197 0.930 . S
C184 C181 1.378 1_455 S
C184 N185 1.315 . S
C184 H187 0.930 . S
N185 Co165 2.194 . S
N185 C180 1.328 1_455 S
N185 C184 1.315 . S
H186 C180 0.929 . S
H187 C184 0.930 . S
H188 C176 0.929 . S
H189 C178 0.929 . S
O190 Co165 2.351 . S
O190 C193 1.244 . S
O191 Co165 2.155 . S
O191 C193 1.240 . S
O192 Co165 2.096 . S
O192 C173 1.247 . S
C193 O190 1.244 . S
C193 O191 1.240 . S
H194 C168 0.931 . S
H195 C177 0.931 . S
H196 C181 0.929 . S
H197 C183 0.930 . S
Co198 N202 2.148 . S
Co198 N208 2.128 . S
Co198 N218 2.194 . S
Co198 O223 2.351 1_554 S
Co198 O224 2.155 1_554 S
Co198 O225 2.096 . S
C199 N202 1.301 . S
C199 N203 1.328 . S
C199 H204 0.916 1_554 S
C200 C201 1.333 . S
C200 N202 1.317 . S
C200 H205 0.930 . S
C201 C200 1.333 . S
C201 N203 1.350 . S
C201 H227 0.931 . S
N202 Co198 2.148 . S
N202 C199 1.301 . S
N202 C200 1.317 . S
N203 C199 1.328 . S
N203 C201 1.350 . S
H204 C199 0.916 1_556 S
H205 C200 0.930 . S
C206 O207 1.224 . S
C206 O225 1.247 . S
O207 C206 1.224 . S
N208 Co198 2.128 . S
N208 C209 1.355 . S
N208 C211 1.311 . S
C209 N208 1.355 . S
C209 C210 1.363 . S
C209 H221 0.929 1_554 S
C210 C209 1.363 . S
C210 N212 1.375 . S
C210 H228 0.931 . S
C211 N208 1.311 . S
C211 N212 1.347 . S
C211 H222 0.929 . S
N212 C210 1.375 . S
N212 C211 1.347 . S
C213 C216 1.365 . S
C213 N218 1.328 1_455 S
C213 H219 0.929 . S
C214 C215 1.362 . S
C214 C217 1.378 1_455 S
C214 H229 0.929 . S
C215 C214 1.362 . S
C215 C216 1.366 . S
C216 C213 1.365 . S
C216 C215 1.366 . S
C216 H230 0.930 . S
C217 C214 1.378 1_655 S
C217 N218 1.315 . S
C217 H220 0.930 . S
N218 Co198 2.194 . S
N218 C213 1.328 1_655 S
N218 C217 1.315 . S
H219 C213 0.929 . S
H220 C217 0.930 . S
H221 C209 0.929 1_556 S
H222 C211 0.929 . S
O223 Co198 2.351 1_556 S
O223 C226 1.244 . S
O224 Co198 2.155 1_556 S
O224 C226 1.240 . S
O225 Co198 2.096 . S
O225 C206 1.247 . S
C226 O223 1.244 . S
C226 O224 1.240 . S
H227 C201 0.931 . S
H228 C210 0.931 . S
H229 C214 0.929 . S
H230 C216 0.930 . S
Co231 N235 2.148 . S
Co231 N241 2.128 . S
Co231 N251 2.194 . S
Co231 O256 2.351 . S
Co231 O257 2.155 . S
Co231 O258 2.096 . S
C232 N235 1.301 . S
C232 N236 1.328 . S
C232 H237 0.930 . S
C233 C234 1.333 . S
C233 N235 1.317 . S
C233 H238 0.930 . S
C234 C233 1.333 . S
C234 N236 1.350 . S
C234 H260 0.931 . S
N235 Co231 2.148 . S
N235 C232 1.301 . S
N235 C233 1.317 . S
N236 C232 1.328 . S
N236 C234 1.350 . S
H237 C232 0.930 . S
H238 C233 0.930 . S
C239 O240 1.224 . S
C239 O258 1.247 . S
O240 C239 1.224 . S
N241 Co231 2.128 . S
N241 C242 1.355 . S
N241 C244 1.311 . S
C242 N241 1.355 . S
C242 C243 1.363 . S
C242 H254 0.929 . S
C243 C242 1.363 . S
C243 N245 1.375 . S
C243 H261 0.931 . S
C244 N241 1.311 . S
C244 N245 1.347 . S
C244 H255 0.929 . S
N245 C243 1.375 . S
N245 C244 1.347 . S
C246 C249 1.365 . S
C246 N251 1.328 1_455 S
C246 H252 0.929 . S
C247 C248 1.362 . S
C247 C250 1.378 1_455 S
C247 H262 0.929 . S
C248 C247 1.362 . S
C248 C249 1.366 . S
C249 C246 1.365 . S
C249 C248 1.366 . S
C249 H263 0.930 . S
C250 C247 1.378 1_655 S
C250 N251 1.315 . S
C250 H253 0.930 . S
N251 Co231 2.194 . S
N251 C246 1.328 1_655 S
N251 C250 1.315 . S
H252 C246 0.929 . S
H253 C250 0.930 . S
H254 C242 0.929 . S
H255 C244 0.929 . S
O256 Co231 2.351 . S
O256 C259 1.244 . S
O257 Co231 2.155 . S
O257 C259 1.240 . S
O258 Co231 2.096 . S
O258 C239 1.247 . S
C259 O256 1.244 . S
C259 O257 1.240 . S
H260 C234 0.931 . S
H261 C243 0.931 . S
H262 C247 0.929 . S
H263 C249 0.930 . S
Co264 N268 2.148 . S
Co264 N274 2.128 . S
Co264 N284 2.194 . S
Co264 O289 2.351 1_556 S
Co264 O290 2.155 1_556 S
Co264 O291 2.096 . S
C265 N268 1.301 . S
C265 N269 1.328 . S
C265 H270 0.916 1_556 S
C266 C267 1.333 . S
C266 N268 1.317 . S
C266 H271 0.930 . S
C267 C266 1.333 . S
C267 N269 1.350 . S
C267 H293 0.931 . S
N268 Co264 2.148 . S
N268 C265 1.301 . S
N268 C266 1.317 . S
N269 C265 1.328 . S
N269 C267 1.350 . S
H270 C265 0.916 1_554 S
H271 C266 0.930 . S
C272 O273 1.224 . S
C272 O291 1.247 . S
O273 C272 1.224 . S
N274 Co264 2.128 . S
N274 C275 1.355 . S
N274 C277 1.311 . S
C275 N274 1.355 . S
C275 C276 1.363 . S
C275 H287 0.929 1_556 S
C276 C275 1.363 . S
C276 N278 1.375 . S
C276 H294 0.931 . S
C277 N274 1.311 . S
C277 N278 1.347 . S
C277 H288 0.929 . S
N278 C276 1.375 . S
N278 C277 1.347 . S
C279 C282 1.365 . S
C279 N284 1.328 . S
C279 H285 0.929 . S
C280 C281 1.362 . S
C280 C283 1.378 . S
C280 H295 0.929 . S
C281 C280 1.362 . S
C281 C282 1.366 . S
C282 C279 1.365 . S
C282 C281 1.366 . S
C282 H296 0.930 . S
C283 C280 1.378 . S
C283 N284 1.315 . S
C283 H286 0.930 . S
N284 Co264 2.194 . S
N284 C279 1.328 . S
N284 C283 1.315 . S
H285 C279 0.929 . S
H286 C283 0.930 . S
H287 C275 0.929 1_554 S
H288 C277 0.929 . S
O289 Co264 2.351 1_554 S
O289 C292 1.244 . S
O290 Co264 2.155 1_554 S
O290 C292 1.240 . S
O291 Co264 2.096 . S
O291 C272 1.247 . S
C292 O289 1.244 . S
C292 O290 1.240 . S
H293 C267 0.931 . S
H294 C276 0.931 . S
H295 C280 0.929 . S
H296 C282 0.930 . S
Co297 N301 2.148 . S
Co297 N307 2.128 . S
Co297 N317 2.194 . S
Co297 O322 2.351 . S
Co297 O323 2.155 . S
Co297 O324 2.096 . S
C298 N301 1.301 . S
C298 N302 1.328 . S
C298 H303 0.930 . S
C299 C300 1.333 . S
C299 N301 1.317 . S
C299 H304 0.930 . S
C300 C299 1.333 . S
C300 N302 1.350 . S
C300 H326 0.931 . S
N301 Co297 2.148 . S
N301 C298 1.301 . S
N301 C299 1.317 . S
N302 C298 1.328 . S
N302 C300 1.350 . S
H303 C298 0.930 . S
H304 C299 0.930 . S
C305 O306 1.224 . S
C305 O324 1.247 . S
O306 C305 1.224 . S
N307 Co297 2.128 . S
N307 C308 1.355 . S
N307 C310 1.311 . S
C308 N307 1.355 . S
C308 C309 1.363 . S
C308 H320 0.929 . S
C309 C308 1.363 . S
C309 N311 1.375 . S
C309 H327 0.931 . S
C310 N307 1.311 . S
C310 N311 1.347 . S
C310 H321 0.929 . S
N311 C309 1.375 . S
N311 C310 1.347 . S
C312 C315 1.365 . S
C312 N317 1.328 . S
C312 H318 0.929 . S
C313 C314 1.362 . S
C313 C316 1.378 . S
C313 H328 0.929 . S
C314 C313 1.362 . S
C314 C315 1.366 . S
C315 C312 1.365 . S
C315 C314 1.366 . S
C315 H329 0.930 . S
C316 C313 1.378 . S
C316 N317 1.315 . S
C316 H319 0.930 . S
N317 Co297 2.194 . S
N317 C312 1.328 . S
N317 C316 1.315 . S
H318 C312 0.929 . S
H319 C316 0.930 . S
H320 C308 0.929 . S
H321 C310 0.929 . S
O322 Co297 2.351 . S
O322 C325 1.244 . S
O323 Co297 2.155 . S
O323 C325 1.240 . S
O324 Co297 2.096 . S
O324 C305 1.247 . S
C325 O322 1.244 . S
C325 O323 1.240 . S
H326 C300 0.931 . S
H327 C309 0.931 . S
H328 C313 0.929 . S
H329 C315 0.930 . S
Co330 N334 2.148 . S
Co330 N340 2.128 . S
Co330 N350 2.194 . S
Co330 O355 2.351 1_554 S
Co330 O356 2.155 1_554 S
Co330 O357 2.096 . S
C331 N334 1.301 . S
C331 N335 1.328 . S
C331 H336 0.916 1_554 S
C332 C333 1.333 . S
C332 N334 1.317 . S
C332 H337 0.930 . S
C333 C332 1.333 . S
C333 N335 1.350 . S
C333 H359 0.931 . S
N334 Co330 2.148 . S
N334 C331 1.301 . S
N334 C332 1.317 . S
N335 C331 1.328 . S
N335 C333 1.350 . S
H336 C331 0.916 1_556 S
H337 C332 0.930 . S
C338 O339 1.224 . S
C338 O357 1.247 . S
O339 C338 1.224 . S
N340 Co330 2.128 . S
N340 C341 1.355 . S
N340 C343 1.311 . S
C341 N340 1.355 . S
C341 C342 1.363 . S
C341 H353 0.929 1_554 S
C342 C341 1.363 . S
C342 N344 1.375 . S
C342 H360 0.931 . S
C343 N340 1.311 . S
C343 N344 1.347 . S
C343 H354 0.929 . S
N344 C342 1.375 . S
N344 C343 1.347 . S
C345 C348 1.365 . S
C345 N350 1.328 . S
C345 H351 0.929 . S
C346 C347 1.362 . S
C346 C349 1.378 . S
C346 H361 0.929 . S
C347 C346 1.362 . S
C347 C348 1.366 . S
C348 C345 1.365 . S
C348 C347 1.366 . S
C348 H362 0.930 . S
C349 C346 1.378 . S
C349 N350 1.315 . S
C349 H352 0.930 . S
N350 Co330 2.194 . S
N350 C345 1.328 . S
N350 C349 1.315 . S
H351 C345 0.929 . S
H352 C349 0.930 . S
H353 C341 0.929 1_556 S
H354 C343 0.929 . S
O355 Co330 2.351 1_556 S
O355 C358 1.244 . S
O356 Co330 2.155 1_556 S
O356 C358 1.240 . S
O357 Co330 2.096 . S
O357 C338 1.247 . S
C358 O355 1.244 . S
C358 O356 1.240 . S
H359 C333 0.931 . S
H360 C342 0.931 . S
H361 C346 0.929 . S
H362 C348 0.930 . S
Co363 N367 2.148 . S
Co363 N373 2.128 . S
Co363 N383 2.194 . S
Co363 O388 2.351 . S
Co363 O389 2.155 . S
Co363 O390 2.096 . S
C364 N367 1.301 . S
C364 N368 1.328 . S
C364 H369 0.930 . S
C365 C366 1.333 . S
C365 N367 1.317 . S
C365 H370 0.930 . S
C366 C365 1.333 . S
C366 N368 1.350 . S
C366 H392 0.931 . S
N367 Co363 2.148 . S
N367 C364 1.301 . S
N367 C365 1.317 . S
N368 C364 1.328 . S
N368 C366 1.350 . S
H369 C364 0.930 . S
H370 C365 0.930 . S
C371 O372 1.224 . S
C371 O390 1.247 . S
O372 C371 1.224 . S
N373 Co363 2.128 . S
N373 C374 1.355 . S
N373 C376 1.311 . S
C374 N373 1.355 . S
C374 C375 1.363 . S
C374 H386 0.929 . S
C375 C374 1.363 . S
C375 N377 1.375 . S
C375 H393 0.931 . S
C376 N373 1.311 . S
C376 N377 1.347 . S
C376 H387 0.929 . S
N377 C375 1.375 . S
N377 C376 1.347 . S
C378 C381 1.365 . S
C378 N383 1.328 . S
C378 H384 0.929 . S
C379 C380 1.362 . S
C379 C382 1.378 . S
C379 H394 0.929 . S
C380 C379 1.362 . S
C380 C381 1.366 . S
C381 C378 1.365 . S
C381 C380 1.366 . S
C381 H395 0.930 . S
C382 C379 1.378 . S
C382 N383 1.315 . S
C382 H385 0.930 . S
N383 Co363 2.194 . S
N383 C378 1.328 . S
N383 C382 1.315 . S
H384 C378 0.929 . S
H385 C382 0.930 . S
H386 C374 0.929 . S
H387 C376 0.929 . S
O388 Co363 2.351 . S
O388 C391 1.244 . S
O389 Co363 2.155 . S
O389 C391 1.240 . S
O390 Co363 2.096 . S
O390 C371 1.247 . S
C391 O388 1.244 . S
C391 O389 1.240 . S
H392 C366 0.931 . S
H393 C375 0.931 . S
H394 C379 0.929 . S
H395 C381 0.930 . S
Co396 N400 2.148 . S
Co396 N406 2.128 . S
Co396 N416 2.194 . S
Co396 O421 2.351 . S
Co396 O422 2.155 . S
Co396 O423 2.096 . S
C397 N400 1.301 . S
C397 N401 1.328 . S
C397 H402 0.930 . S
C398 C399 1.333 . S
C398 N400 1.317 . S
C398 H403 0.930 . S
C399 C398 1.333 . S
C399 N401 1.350 . S
C399 H425 0.931 . S
N400 Co396 2.148 . S
N400 C397 1.301 . S
N400 C398 1.317 . S
N401 C397 1.328 . S
N401 C399 1.350 . S
H402 C397 0.930 . S
H403 C398 0.930 . S
C404 O405 1.224 . S
C404 O423 1.247 . S
O405 C404 1.224 . S
N406 Co396 2.128 . S
N406 C407 1.355 . S
N406 C409 1.311 . S
C407 N406 1.355 . S
C407 C408 1.363 . S
C407 H419 0.929 . S
C408 C407 1.363 . S
C408 N410 1.375 . S
C408 H426 0.931 . S
C409 N406 1.311 . S
C409 N410 1.347 . S
C409 H420 0.929 . S
N410 C408 1.375 . S
N410 C409 1.347 . S
C411 C414 1.365 . S
C411 N416 1.328 . S
C411 H417 0.929 . S
C412 C413 1.362 . S
C412 C415 1.378 . S
C412 H427 0.929 . S
C413 C412 1.362 . S
C413 C414 1.366 . S
C414 C411 1.365 . S
C414 C413 1.366 . S
C414 H428 0.930 . S
C415 C412 1.378 . S
C415 N416 1.315 . S
C415 H418 0.930 . S
N416 Co396 2.194 . S
N416 C411 1.328 . S
N416 C415 1.315 . S
H417 C411 0.929 . S
H418 C415 0.930 . S
H419 C407 0.929 . S
H420 C409 0.929 . S
O421 Co396 2.351 . S
O421 C424 1.244 . S
O422 Co396 2.155 . S
O422 C424 1.240 . S
O423 Co396 2.096 . S
O423 C404 1.247 . S
C424 O421 1.244 . S
C424 O422 1.240 . S
H425 C399 0.931 . S
H426 C408 0.931 . S
H427 C412 0.929 . S
H428 C414 0.930 . S
Co429 N433 2.148 . S
Co429 N439 2.128 . S
Co429 N449 2.194 . S
Co429 O454 2.351 . S
Co429 O455 2.155 . S
Co429 O456 2.096 . S
C430 N433 1.301 . S
C430 N434 1.328 . S
C430 H435 0.930 . S
C431 C432 1.333 . S
C431 N433 1.317 . S
C431 H436 0.930 . S
C432 C431 1.333 . S
C432 N434 1.350 . S
C432 H458 0.931 . S
N433 Co429 2.148 . S
N433 C430 1.301 . S
N433 C431 1.317 . S
N434 C430 1.328 . S
N434 C432 1.350 . S
H435 C430 0.930 . S
H436 C431 0.930 . S
C437 O438 1.224 . S
C437 O456 1.247 . S
O438 C437 1.224 . S
N439 Co429 2.128 . S
N439 C440 1.355 . S
N439 C442 1.311 . S
C440 N439 1.355 . S
C440 C441 1.363 . S
C440 H452 0.929 . S
C441 C440 1.363 . S
C441 N443 1.375 . S
C441 H459 0.931 . S
C442 N439 1.311 . S
C442 N443 1.347 . S
C442 H453 0.929 . S
N443 C441 1.375 . S
N443 C442 1.347 . S
C444 C447 1.365 . S
C444 N449 1.328 . S
C444 H450 0.929 . S
C445 C446 1.362 . S
C445 C448 1.378 . S
C445 H460 0.929 . S
C446 C445 1.362 . S
C446 C447 1.366 . S
C447 C444 1.365 . S
C447 C446 1.366 . S
C447 H461 0.930 . S
C448 C445 1.378 . S
C448 N449 1.315 . S
C448 H451 0.930 . S
N449 Co429 2.194 . S
N449 C444 1.328 . S
N449 C448 1.315 . S
H450 C444 0.929 . S
H451 C448 0.930 . S
H452 C440 0.929 . S
H453 C442 0.929 . S
O454 Co429 2.351 . S
O454 C457 1.244 . S
O455 Co429 2.155 . S
O455 C457 1.240 . S
O456 Co429 2.096 . S
O456 C437 1.247 . S
C457 O454 1.244 . S
C457 O455 1.240 . S
H458 C432 0.931 . S
H459 C441 0.931 . S
H460 C445 0.929 . S
H461 C447 0.930 . S
Co462 N466 2.148 . S
Co462 N472 2.128 . S
Co462 N482 2.194 . S
Co462 O487 2.351 . S
Co462 O488 2.155 . S
Co462 O489 2.096 . S
C463 N466 1.301 . S
C463 N467 1.328 . S
C463 H468 0.930 . S
C464 C465 1.333 . S
C464 N466 1.317 . S
C464 H469 0.930 . S
C465 C464 1.333 . S
C465 N467 1.350 . S
C465 H491 0.931 . S
N466 Co462 2.148 . S
N466 C463 1.301 . S
N466 C464 1.317 . S
N467 C463 1.328 . S
N467 C465 1.350 . S
H468 C463 0.930 . S
H469 C464 0.930 . S
C470 O471 1.224 . S
C470 O489 1.247 . S
O471 C470 1.224 . S
N472 Co462 2.128 . S
N472 C473 1.355 . S
N472 C475 1.311 . S
C473 N472 1.355 . S
C473 C474 1.363 . S
C473 H485 0.929 . S
C474 C473 1.363 . S
C474 N476 1.375 . S
C474 H492 0.931 . S
C475 N472 1.311 . S
C475 N476 1.347 . S
C475 H486 0.929 . S
N476 C474 1.375 . S
N476 C475 1.347 . S
C477 C480 1.365 . S
C477 N482 1.328 . S
C477 H483 0.929 . S
C478 C479 1.362 . S
C478 C481 1.378 . S
C478 H493 0.929 . S
C479 C478 1.362 . S
C479 C480 1.366 . S
C480 C477 1.365 . S
C480 C479 1.366 . S
C480 H494 0.930 . S
C481 C478 1.378 . S
C481 N482 1.315 . S
C481 H484 0.930 . S
N482 Co462 2.194 . S
N482 C477 1.328 . S
N482 C481 1.315 . S
H483 C477 0.929 . S
H484 C481 0.930 . S
H485 C473 0.929 . S
H486 C475 0.929 . S
O487 Co462 2.351 . S
O487 C490 1.244 . S
O488 Co462 2.155 . S
O488 C490 1.240 . S
O489 Co462 2.096 . S
O489 C470 1.247 . S
C490 O487 1.244 . S
C490 O488 1.240 . S
H491 C465 0.931 . S
H492 C474 0.931 . S
H493 C478 0.929 . S
H494 C480 0.930 . S
Co495 N499 2.148 . S
Co495 N505 2.128 . S
Co495 N515 2.194 . S
Co495 O520 2.351 . S
Co495 O521 2.155 . S
Co495 O522 2.096 . S
C496 N499 1.301 . S
C496 N500 1.328 . S
C496 H501 0.930 . S
C497 C498 1.333 . S
C497 N499 1.317 . S
C497 H502 0.930 . S
C498 C497 1.333 . S
C498 N500 1.350 . S
C498 H524 0.931 . S
N499 Co495 2.148 . S
N499 C496 1.301 . S
N499 C497 1.317 . S
N500 C496 1.328 . S
N500 C498 1.350 . S
H501 C496 0.930 . S
H502 C497 0.930 . S
C503 O504 1.224 . S
C503 O522 1.247 . S
O504 C503 1.224 . S
N505 Co495 2.128 . S
N505 C506 1.355 . S
N505 C508 1.311 . S
C506 N505 1.355 . S
C506 C507 1.363 . S
C506 H518 0.929 . S
C507 C506 1.363 . S
C507 N509 1.375 . S
C507 H525 0.931 . S
C508 N505 1.311 . S
C508 N509 1.347 . S
C508 H519 0.929 . S
N509 C507 1.375 . S
N509 C508 1.347 . S
C510 C513 1.365 . S
C510 N515 1.328 . S
C510 H516 0.929 . S
C511 C512 1.362 . S
C511 C514 1.378 . S
C511 H526 0.929 . S
C512 C511 1.362 . S
C512 C513 1.366 . S
C513 C510 1.365 . S
C513 C512 1.366 . S
C513 H527 0.930 . S
C514 C511 1.378 . S
C514 N515 1.315 . S
C514 H517 0.930 . S
N515 Co495 2.194 . S
N515 C510 1.328 . S
N515 C514 1.315 . S
H516 C510 0.929 . S
H517 C514 0.930 . S
H518 C506 0.929 . S
H519 C508 0.929 . S
O520 Co495 2.351 . S
O520 C523 1.244 . S
O521 Co495 2.155 . S
O521 C523 1.240 . S
O522 Co495 2.096 . S
O522 C503 1.247 . S
C523 O520 1.244 . S
C523 O521 1.240 . S
H524 C498 0.931 . S
H525 C507 0.931 . S
H526 C511 0.929 . S
H527 C513 0.930 . S
C528 C529 1.369 . S
C528 C530 1.419 . S
C528 H532 0.930 . S
C529 C528 1.369 . S
C529 C538 1.429 . S
C530 C528 1.419 . S
C530 C531 1.363 . S
C530 H533 0.929 . S
C531 C530 1.363 . S
C531 C537 1.428 . S
H532 C528 0.930 . S
H533 C530 0.929 . S
S534 N535 1.613 . S
S534 N536 1.610 . S
N535 S534 1.613 . S
N535 C538 1.350 . S
N536 S534 1.610 . S
N536 C537 1.351 . S
C537 C531 1.428 . S
C537 N536 1.351 . S
C537 C538 1.434 . S
C538 C529 1.429 . S
C538 N535 1.350 . S
C538 C537 1.434 . S
C539 C540 1.369 . S
C539 C541 1.419 1_565 S
C539 H543 0.930 . S
C540 C539 1.369 . S
C540 C549 1.429 1_655 S
C541 C539 1.419 1_545 S
C541 C542 1.363 1_655 S
C541 H544 0.929 . S
C542 C541 1.363 1_455 S
C542 C548 1.428 . S
H543 C539 0.930 . S
H544 C541 0.929 . S
S545 N546 1.613 . S
S545 N547 1.610 1_565 S
N546 S545 1.613 . S
N546 C549 1.350 . S
N547 S545 1.610 1_545 S
N547 C548 1.351 . S
C548 C542 1.428 . S
C548 N547 1.351 . S
C548 C549 1.434 1_545 S
C549 C540 1.429 1_455 S
C549 N546 1.350 . S
C549 C548 1.434 1_565 S
C550 C551 1.369 . S
C550 C552 1.419 . S
C550 H554 0.930 . S
C551 C550 1.369 . S
C551 C560 1.429 1_545 S
C552 C550 1.419 . S
C552 C553 1.363 1_545 S
C552 H555 0.929 . S
C553 C552 1.363 1_565 S
C553 C559 1.428 . S
H554 C550 0.930 . S
H555 C552 0.929 . S
S556 N557 1.613 . S
S556 N558 1.610 . S
N557 S556 1.613 . S
N557 C560 1.350 . S
N558 S556 1.610 . S
N558 C559 1.351 . S
C559 C553 1.428 . S
C559 N558 1.351 . S
C559 C560 1.434 . S
C560 C551 1.429 1_565 S
C560 N557 1.350 . S
C560 C559 1.434 . S
C561 C562 1.369 . S
C561 C563 1.419 . S
C561 H565 0.930 . S
C562 C561 1.369 . S
C562 C571 1.429 1_655 S
C563 C561 1.419 . S
C563 C564 1.363 1_655 S
C563 H566 0.929 . S
C564 C563 1.363 1_455 S
C564 C570 1.428 . S
H565 C561 0.930 . S
H566 C563 0.929 . S
S567 N568 1.613 . S
S567 N569 1.610 . S
N568 S567 1.613 . S
N568 C571 1.350 . S
N569 S567 1.610 . S
N569 C570 1.351 . S
C570 C564 1.428 . S
C570 N569 1.351 . S
C570 C571 1.434 . S
C571 C562 1.429 1_455 S
C571 N568 1.350 . S
C571 C570 1.434 . S
C572 C573 1.369 . S
C572 C574 1.419 . S
C572 H576 0.930 . S
C573 C572 1.369 . S
C573 C582 1.429 . S
C574 C572 1.419 . S
C574 C575 1.363 . S
C574 H577 0.929 . S
C575 C574 1.363 . S
C575 C581 1.428 . S
H576 C572 0.930 . S
H577 C574 0.929 . S
S578 N579 1.613 . S
S578 N580 1.610 . S
N579 S578 1.613 . S
N579 C582 1.350 . S
N580 S578 1.610 . S
N580 C581 1.351 . S
C581 C575 1.428 . S
C581 N580 1.351 . S
C581 C582 1.434 . S
C582 C573 1.429 . S
C582 N579 1.350 . S
C582 C581 1.434 . S
C583 C584 1.369 1_545 S
C583 C585 1.419 . S
C583 H587 0.930 . S
C584 C583 1.369 1_565 S
C584 C593 1.429 . S
C585 C583 1.419 . S
C585 C586 1.363 . S
C585 H588 0.929 . S
C586 C585 1.363 . S
C586 C592 1.428 1_545 S
H587 C583 0.930 . S
H588 C585 0.929 . S
S589 N590 1.613 . S
S589 N591 1.610 . S
N590 S589 1.613 . S
N590 C593 1.350 . S
N591 S589 1.610 . S
N591 C592 1.351 . S
C592 C586 1.428 1_565 S
C592 N591 1.351 . S
C592 C593 1.434 . S
C593 C584 1.429 . S
C593 N590 1.350 . S
C593 C592 1.434 . S
C594 C595 1.369 1_455 S
C594 C596 1.419 . S
C594 H598 0.930 . S
C595 C594 1.369 1_655 S
C595 C604 1.429 . S
C596 C594 1.419 . S
C596 C597 1.363 . S
C596 H599 0.929 . S
C597 C596 1.363 . S
C597 C603 1.428 1_455 S
H598 C594 0.930 . S
H599 C596 0.929 . S
S600 N601 1.613 . S
S600 N602 1.610 . S
N601 S600 1.613 . S
N601 C604 1.350 . S
N602 S600 1.610 . S
N602 C603 1.351 . S
C603 C597 1.428 1_655 S
C603 N602 1.351 . S
C603 C604 1.434 . S
C604 C595 1.429 . S
C604 N601 1.350 . S
C604 C603 1.434 . S
C605 C606 1.369 . S
C605 C607 1.419 . S
C605 H609 0.930 . S
C606 C605 1.369 . S
C606 C615 1.429 1_554 S
C607 C605 1.419 . S
C607 C608 1.363 1_554 S
C607 H610 0.929 . S
C608 C607 1.363 1_556 S
C608 C614 1.428 . S
H609 C605 0.930 . S
H610 C607 0.929 . S
S611 N612 1.613 . S
S611 N613 1.610 . S
N612 S611 1.613 . S
N612 C615 1.350 . S
N613 S611 1.610 . S
N613 C614 1.351 . S
C614 C608 1.428 . S
C614 N613 1.351 . S
C614 C615 1.434 . S
C615 C606 1.429 1_556 S
C615 N612 1.350 . S
C615 C614 1.434 . S
C616 C617 1.369 1_556 S
C616 C618 1.419 . S
C616 H620 0.930 . S
C617 C616 1.369 1_554 S
C617 C626 1.429 1_655 S
C618 C616 1.419 . S
C618 C619 1.363 1_655 S
C618 H621 0.929 . S
C619 C618 1.363 1_455 S
C619 C625 1.428 1_556 S
H620 C616 0.930 . S
H621 C618 0.929 . S
S622 N623 1.613 . S
S622 N624 1.610 . S
N623 S622 1.613 . S
N623 C626 1.350 . S
N624 S622 1.610 . S
N624 C625 1.351 . S
C625 C619 1.428 1_554 S
C625 N624 1.351 . S
C625 C626 1.434 . S
C626 C617 1.429 1_455 S
C626 N623 1.350 . S
C626 C625 1.434 . S
C627 C628 1.369 . S
C627 C629 1.419 . S
C627 H631 0.930 . S
C628 C627 1.369 . S
C628 C637 1.429 . S
C629 C627 1.419 . S
C629 C630 1.363 . S
C629 H632 0.929 . S
C630 C629 1.363 . S
C630 C636 1.428 . S
H631 C627 0.930 . S
H632 C629 0.929 . S
S633 N634 1.613 . S
S633 N635 1.610 . S
N634 S633 1.613 . S
N634 C637 1.350 . S
N635 S633 1.610 . S
N635 C636 1.351 . S
C636 C630 1.428 . S
C636 N635 1.351 . S
C636 C637 1.434 . S
C637 C628 1.429 . S
C637 N634 1.350 . S
C637 C636 1.434 . S
C638 C639 1.369 1_554 S
C638 C640 1.419 . S
C638 H642 0.930 . S
C639 C638 1.369 1_556 S
C639 C648 1.429 . S
C640 C638 1.419 . S
C640 C641 1.363 . S
C640 H643 0.929 . S
C641 C640 1.363 . S
C641 C647 1.428 1_554 S
H642 C638 0.930 . S
H643 C640 0.929 . S
S644 N645 1.613 . S
S644 N646 1.610 . S
N645 S644 1.613 . S
N645 C648 1.350 . S
N646 S644 1.610 . S
N646 C647 1.351 . S
C647 C641 1.428 1_556 S
C647 N646 1.351 . S
C647 C648 1.434 . S
C648 C639 1.429 . S
C648 N645 1.350 . S
C648 C647 1.434 . S
C649 C650 1.369 . S
C649 C651 1.419 . S
C649 H653 0.930 . S
C650 C649 1.369 . S
C650 C659 1.429 . S
C651 C649 1.419 . S
C651 C652 1.363 . S
C651 H654 0.929 . S
C652 C651 1.363 . S
C652 C658 1.428 . S
H653 C649 0.930 . S
H654 C651 0.929 . S
S655 N656 1.613 . S
S655 N657 1.610 . S
N656 S655 1.613 . S
N656 C659 1.350 . S
N657 S655 1.610 . S
N657 C658 1.351 . S
C658 C652 1.428 . S
C658 N657 1.351 . S
C658 C659 1.434 . S
C659 C650 1.429 . S
C659 N656 1.350 . S
C659 C658 1.434 . S
C660 C661 1.369 . S
C660 C662 1.419 1_546 S
C660 H664 0.930 . S
C661 C660 1.369 . S
C661 C670 1.429 . S
C662 C660 1.419 1_564 S
C662 C663 1.363 . S
C662 H665 0.929 . S
C663 C662 1.363 . S
C663 C669 1.428 . S
H664 C660 0.930 . S
H665 C662 0.929 . S
S666 N667 1.613 . S
S666 N668 1.614 1_556 S
N667 S666 1.613 . S
N667 C670 1.350 . S
N668 S666 1.614 1_554 S
N668 C669 1.351 1_545 S
C669 C663 1.428 . S
C669 N668 1.351 1_565 S
C669 C670 1.434 1_564 S
C670 C661 1.429 . S
C670 N667 1.350 . S
C670 C669 1.434 1_546 S
C671 C672 1.369 . S
C671 C673 1.419 . S
C671 H675 0.930 . S
C672 C671 1.369 . S
C672 C681 1.429 . S
C673 C671 1.419 . S
C673 C674 1.363 . S
C673 H676 0.929 . S
C674 C673 1.363 . S
C674 C680 1.428 . S
H675 C671 0.930 . S
H676 C673 0.929 . S
S677 N678 1.613 . S
S677 N679 1.610 . S
N678 S677 1.613 . S
N678 C681 1.350 . S
N679 S677 1.610 . S
N679 C680 1.351 . S
C680 C674 1.428 . S
C680 N679 1.351 . S
C680 C681 1.434 . S
C681 C672 1.429 . S
C681 N678 1.350 . S
C681 C680 1.434 . S
C682 C683 1.369 . S
C682 C684 1.419 . S
C682 H686 0.930 . S
C683 C682 1.369 . S
C683 C692 1.429 . S
C684 C682 1.419 . S
C684 C685 1.363 . S
C684 H687 0.929 . S
C685 C684 1.363 . S
C685 C691 1.428 . S
H686 C682 0.930 . S
H687 C684 0.929 . S
S688 N689 1.613 . S
S688 N690 1.610 . S
N689 S688 1.613 . S
N689 C692 1.350 . S
N690 S688 1.610 . S
N690 C691 1.351 . S
C691 C685 1.428 . S
C691 N690 1.351 . S
C691 C692 1.434 . S
C692 C683 1.429 . S
C692 N689 1.350 . S
C692 C691 1.434 . S
C693 C694 1.369 . S
C693 C695 1.419 . S
C693 H697 0.930 . S
C694 C693 1.369 . S
C694 C703 1.429 . S
C695 C693 1.419 . S
C695 C696 1.363 . S
C695 H698 0.929 . S
C696 C695 1.363 . S
C696 C702 1.428 . S
H697 C693 0.930 . S
H698 C695 0.929 . S
S699 N700 1.613 . S
S699 N701 1.610 . S
N700 S699 1.613 . S
N700 C703 1.350 . S
N701 S699 1.610 . S
N701 C702 1.351 . S
C702 C696 1.428 . S
C702 N701 1.351 . S
C702 C703 1.434 . S
C703 C694 1.429 . S
C703 N700 1.350 . S
C703 C702 1.434 . S
C704 C705 1.369 . S
C704 C706 1.419 . S
C704 H708 0.930 . S
C705 C704 1.369 . S
C705 C714 1.429 . S
C706 C704 1.419 . S
C706 C707 1.363 . S
C706 H709 0.929 . S
C707 C706 1.363 . S
C707 C713 1.428 . S
H708 C704 0.930 . S
H709 C706 0.929 . S
S710 N711 1.613 . S
S710 N712 1.610 . S
N711 S710 1.613 . S
N711 C714 1.350 . S
N712 S710 1.610 . S
N712 C713 1.351 . S
C713 C707 1.428 . S
C713 N712 1.351 . S
C713 C714 1.434 . S
C714 C705 1.429 . S
C714 N711 1.350 . S
C714 C713 1.434 . S
C715 C716 1.369 . S
C715 C717 1.419 . S
C715 H719 0.930 . S
C716 C715 1.369 . S
C716 C725 1.429 . S
C717 C715 1.419 . S
C717 C718 1.363 . S
C717 H720 0.929 . S
C718 C717 1.363 . S
C718 C724 1.428 . S
H719 C715 0.930 . S
H720 C717 0.929 . S
S721 N722 1.613 . S
S721 N723 1.610 . S
N722 S721 1.613 . S
N722 C725 1.350 . S
N723 S721 1.610 . S
N723 C724 1.351 . S
C724 C718 1.428 . S
C724 N723 1.351 . S
C724 C725 1.434 . S
C725 C716 1.429 . S
C725 N722 1.350 . S
C725 C724 1.434 . S
C726 C727 1.369 . S
C726 C728 1.419 . S
C726 H730 0.930 . S
C727 C726 1.369 . S
C727 C736 1.429 . S
C728 C726 1.419 . S
C728 C729 1.363 . S
C728 H731 0.929 . S
C729 C728 1.363 . S
C729 C735 1.428 . S
H730 C726 0.930 . S
H731 C728 0.929 . S
S732 N733 1.613 . S
S732 N734 1.610 . S
N733 S732 1.613 . S
N733 C736 1.350 . S
N734 S732 1.610 . S
N734 C735 1.351 . S
C735 C729 1.428 . S
C735 N734 1.351 . S
C735 C736 1.434 . S
C736 C727 1.429 . S
C736 N733 1.350 . S
C736 C735 1.434 . S
C737 C738 1.369 . S
C737 C739 1.419 . S
C737 H741 0.930 . S
C738 C737 1.369 . S
C738 C747 1.429 . S
C739 C737 1.419 . S
C739 C740 1.363 . S
C739 H742 0.929 . S
C740 C739 1.363 . S
C740 C746 1.428 . S
H741 C737 0.930 . S
H742 C739 0.929 . S
S743 N744 1.613 . S
S743 N745 1.610 . S
N744 S743 1.613 . S
N744 C747 1.350 . S
N745 S743 1.610 . S
N745 C746 1.351 . S
C746 C740 1.428 . S
C746 N745 1.351 . S
C746 C747 1.434 . S
C747 C738 1.429 . S
C747 N744 1.350 . S
C747 C746 1.434 . S
C748 C749 1.369 . S
C748 C750 1.419 . S
C748 H752 0.930 . S
C749 C748 1.369 . S
C749 C758 1.429 . S
C750 C748 1.419 . S
C750 C751 1.363 . S
C750 H753 0.929 . S
C751 C750 1.363 . S
C751 C757 1.428 . S
H752 C748 0.930 . S
H753 C750 0.929 . S
S754 N755 1.613 . S
S754 N756 1.610 . S
N755 S754 1.613 . S
N755 C758 1.350 . S
N756 S754 1.610 . S
N756 C757 1.351 . S
C757 C751 1.428 . S
C757 N756 1.351 . S
C757 C758 1.434 . S
C758 C749 1.429 . S
C758 N755 1.350 . S
C758 C757 1.434 . S
C759 C760 1.369 . S
C759 C761 1.419 . S
C759 H763 0.930 . S
C760 C759 1.369 . S
C760 C769 1.429 . S
C761 C759 1.419 . S
C761 C762 1.363 . S
C761 H764 0.929 . S
C762 C761 1.363 . S
C762 C768 1.428 . S
H763 C759 0.930 . S
H764 C761 0.929 . S
S765 N766 1.613 . S
S765 N767 1.610 . S
N766 S765 1.613 . S
N766 C769 1.350 . S
N767 S765 1.610 . S
N767 C768 1.351 . S
C768 C762 1.428 . S
C768 N767 1.351 . S
C768 C769 1.434 . S
C769 C760 1.429 . S
C769 N766 1.350 . S
C769 C768 1.434 . S
C770 C771 1.369 . S
C770 C772 1.419 . S
C770 H774 0.930 . S
C771 C770 1.369 . S
C771 C780 1.429 . S
C772 C770 1.419 . S
C772 C773 1.363 . S
C772 H775 0.929 . S
C773 C772 1.363 . S
C773 C779 1.428 . S
H774 C770 0.930 . S
H775 C772 0.929 . S
S776 N777 1.613 . S
S776 N778 1.610 . S
N777 S776 1.613 . S
N777 C780 1.350 . S
N778 S776 1.610 . S
N778 C779 1.351 . S
C779 C773 1.428 . S
C779 N778 1.351 . S
C779 C780 1.434 . S
C780 C771 1.429 . S
C780 N777 1.350 . S
C780 C779 1.434 . S
C781 C782 1.369 . S
C781 C783 1.419 . S
C781 H785 0.930 . S
C782 C781 1.369 . S
C782 C791 1.429 . S
C783 C781 1.419 . S
C783 C784 1.363 . S
C783 H786 0.929 . S
C784 C783 1.363 . S
C784 C790 1.428 . S
H785 C781 0.930 . S
H786 C783 0.929 . S
S787 N788 1.613 . S
S787 N789 1.610 . S
N788 S787 1.613 . S
N788 C791 1.350 . S
N789 S787 1.610 . S
N789 C790 1.351 . S
C790 C784 1.428 . S
C790 N789 1.351 . S
C790 C791 1.434 . S
C791 C782 1.429 . S
C791 N788 1.350 . S
C791 C790 1.434 . S
C792 C793 1.369 . S
C792 C794 1.419 . S
C792 H796 0.930 . S
C793 C792 1.369 . S
C793 C802 1.429 . S
C794 C792 1.419 . S
C794 C795 1.363 . S
C794 H797 0.929 . S
C795 C794 1.363 . S
C795 C801 1.428 . S
H796 C792 0.930 . S
H797 C794 0.929 . S
S798 N799 1.613 . S
S798 N800 1.610 . S
N799 S798 1.613 . S
N799 C802 1.350 . S
N800 S798 1.610 . S
N800 C801 1.351 . S
C801 C795 1.428 . S
C801 N800 1.351 . S
C801 C802 1.434 . S
C802 C793 1.429 . S
C802 N799 1.350 . S
C802 C801 1.434 . S
C803 C804 1.369 . S
C803 C805 1.419 . S
C803 H807 0.930 . S
C804 C803 1.369 . S
C804 C813 1.429 . S
C805 C803 1.419 . S
C805 C806 1.363 . S
C805 H808 0.929 . S
C806 C805 1.363 . S
C806 C812 1.428 . S
H807 C803 0.930 . S
H808 C805 0.929 . S
S809 N810 1.613 . S
S809 N811 1.610 . S
N810 S809 1.613 . S
N810 C813 1.350 . S
N811 S809 1.610 . S
N811 C812 1.351 . S
C812 C806 1.428 . S
C812 N811 1.351 . S
C812 C813 1.434 . S
C813 C804 1.429 . S
C813 N810 1.350 . S
C813 C812 1.434 . S
C814 C815 1.369 . S
C814 C816 1.419 . S
C814 H818 0.930 . S
C815 C814 1.369 . S
C815 C824 1.429 . S
C816 C814 1.419 . S
C816 C817 1.363 . S
C816 H819 0.929 . S
C817 C816 1.363 . S
C817 C823 1.428 . S
H818 C814 0.930 . S
H819 C816 0.929 . S
S820 N821 1.613 . S
S820 N822 1.610 . S
N821 S820 1.613 . S
N821 C824 1.350 . S
N822 S820 1.610 . S
N822 C823 1.351 . S
C823 C817 1.428 . S
C823 N822 1.351 . S
C823 C824 1.434 . S
C824 C815 1.429 . S
C824 N821 1.350 . S
C824 C823 1.434 . S
C825 C826 1.369 . S
C825 C827 1.419 . S
C825 H829 0.930 . S
C826 C825 1.369 . S
C826 C835 1.429 . S
C827 C825 1.419 . S
C827 C828 1.363 . S
C827 H830 0.929 . S
C828 C827 1.363 . S
C828 C834 1.428 . S
H829 C825 0.930 . S
H830 C827 0.929 . S
S831 N832 1.613 . S
S831 N833 1.610 . S
N832 S831 1.613 . S
N832 C835 1.350 . S
N833 S831 1.610 . S
N833 C834 1.351 . S
C834 C828 1.428 . S
C834 N833 1.351 . S
C834 C835 1.434 . S
C835 C826 1.429 . S
C835 N832 1.350 . S
C835 C834 1.434 . S
C836 C837 1.369 . S
C836 C838 1.419 . S
C836 H840 0.930 . S
C837 C836 1.369 . S
C837 C846 1.429 . S
C838 C836 1.419 . S
C838 C839 1.363 . S
C838 H841 0.929 . S
C839 C838 1.363 . S
C839 C845 1.428 . S
H840 C836 0.930 . S
H841 C838 0.929 . S
S842 N843 1.613 . S
S842 N844 1.610 . S
N843 S842 1.613 . S
N843 C846 1.350 . S
N844 S842 1.610 . S
N844 C845 1.351 . S
C845 C839 1.428 . S
C845 N844 1.351 . S
C845 C846 1.434 . S
C846 C837 1.429 . S
C846 N843 1.350 . S
C846 C845 1.434 . S
C847 C848 1.369 . S
C847 C849 1.419 . S
C847 H851 0.930 . S
C848 C847 1.369 . S
C848 C857 1.429 . S
C849 C847 1.419 . S
C849 C850 1.363 . S
C849 H852 0.929 . S
C850 C849 1.363 . S
C850 C856 1.428 . S
H851 C847 0.930 . S
H852 C849 0.929 . S
S853 N854 1.613 . S
S853 N855 1.610 . S
N854 S853 1.613 . S
N854 C857 1.350 . S
N855 S853 1.610 . S
N855 C856 1.351 . S
C856 C850 1.428 . S
C856 N855 1.351 . S
C856 C857 1.434 . S
C857 C848 1.429 . S
C857 N854 1.350 . S
C857 C856 1.434 . S
C858 C859 1.369 . S
C858 C860 1.419 . S
C858 H862 0.930 . S
C859 C858 1.369 . S
C859 C868 1.429 . S
C860 C858 1.419 . S
C860 C861 1.363 . S
C860 H863 0.929 . S
C861 C860 1.363 . S
C861 C867 1.428 . S
H862 C858 0.930 . S
H863 C860 0.929 . S
S864 N865 1.613 . S
S864 N866 1.610 . S
N865 S864 1.613 . S
N865 C868 1.350 . S
N866 S864 1.610 . S
N866 C867 1.351 . S
C867 C861 1.428 . S
C867 N866 1.351 . S
C867 C868 1.434 . S
C868 C859 1.429 . S
C868 N865 1.350 . S
C868 C867 1.434 . S
C869 C870 1.369 . S
C869 C871 1.419 . S
C869 H873 0.930 . S
C870 C869 1.369 . S
C870 C879 1.429 . S
C871 C869 1.419 . S
C871 C872 1.363 . S
C871 H874 0.929 . S
C872 C871 1.363 . S
C872 C878 1.428 . S
H873 C869 0.930 . S
H874 C871 0.929 . S
S875 N876 1.613 . S
S875 N877 1.610 . S
N876 S875 1.613 . S
N876 C879 1.350 . S
N877 S875 1.610 . S
N877 C878 1.351 . S
C878 C872 1.428 . S
C878 N877 1.351 . S
C878 C879 1.434 . S
C879 C870 1.429 . S
C879 N876 1.350 . S
C879 C878 1.434 . S
C880 C881 1.369 . S
C880 C882 1.419 . S
C880 H884 0.930 . S
C881 C880 1.369 . S
C881 C890 1.429 . S
C882 C880 1.419 . S
C882 C883 1.363 . S
C882 H885 0.929 . S
C883 C882 1.363 . S
C883 C889 1.428 . S
H884 C880 0.930 . S
H885 C882 0.929 . S
S886 N887 1.613 . S
S886 N888 1.610 . S
N887 S886 1.613 . S
N887 C890 1.350 . S
N888 S886 1.610 . S
N888 C889 1.351 . S
C889 C883 1.428 . S
C889 N888 1.351 . S
C889 C890 1.434 . S
C890 C881 1.429 . S
C890 N887 1.350 . S
C890 C889 1.434 . S
C891 C892 1.369 . S
C891 C893 1.419 . S
C891 H895 0.930 . S
C892 C891 1.369 . S
C892 C901 1.429 . S
C893 C891 1.419 . S
C893 C894 1.363 . S
C893 H896 0.929 . S
C894 C893 1.363 . S
C894 C900 1.428 . S
H895 C891 0.930 . S
H896 C893 0.929 . S
S897 N898 1.613 . S
S897 N899 1.610 . S
N898 S897 1.613 . S
N898 C901 1.350 . S
N899 S897 1.610 . S
N899 C900 1.351 . S
C900 C894 1.428 . S
C900 N899 1.351 . S
C900 C901 1.434 . S
C901 C892 1.429 . S
C901 N898 1.350 . S
C901 C900 1.434 . S
C902 C903 1.369 . S
C902 C904 1.419 . S
C902 H906 0.930 . S
C903 C902 1.369 . S
C903 C912 1.429 . S
C904 C902 1.419 . S
C904 C905 1.363 . S
C904 H907 0.929 . S
C905 C904 1.363 . S
C905 C911 1.428 . S
H906 C902 0.930 . S
H907 C904 0.929 . S
S908 N909 1.613 . S
S908 N910 1.610 . S
N909 S908 1.613 . S
N909 C912 1.350 1_655 S
N910 S908 1.610 . S
N910 C911 1.351 1_655 S
C911 C905 1.428 . S
C911 N910 1.351 1_455 S
C911 C912 1.434 . S
C912 C903 1.429 . S
C912 N909 1.350 1_455 S
C912 C911 1.434 . S
C913 C914 1.369 . S
C913 C915 1.419 . S
C913 H917 0.930 . S
C914 C913 1.369 . S
C914 C923 1.429 . S
C915 C913 1.419 . S
C915 C916 1.363 . S
C915 H918 0.929 . S
C916 C915 1.363 . S
C916 C922 1.428 . S
H917 C913 0.930 . S
H918 C915 0.929 . S
S919 N920 1.613 . S
S919 N921 1.610 . S
N920 S919 1.613 . S
N920 C923 1.350 . S
N921 S919 1.610 . S
N921 C922 1.351 . S
C922 C916 1.428 . S
C922 N921 1.351 . S
C922 C923 1.434 . S
C923 C914 1.429 . S
C923 N920 1.350 . S
C923 C922 1.434 . S
C924 C925 1.369 . S
C924 C926 1.419 . S
C924 H928 0.930 . S
C925 C924 1.369 . S
C925 C934 1.429 . S
C926 C924 1.419 . S
C926 C927 1.363 . S
C926 H929 0.929 . S
C927 C926 1.363 . S
C927 C933 1.428 . S
H928 C924 0.930 . S
H929 C926 0.929 . S
S930 N931 1.613 . S
S930 N932 1.610 . S
N931 S930 1.613 . S
N931 C934 1.350 . S
N932 S930 1.610 . S
N932 C933 1.351 . S
C933 C927 1.428 . S
C933 N932 1.351 . S
C933 C934 1.434 . S
C934 C925 1.429 . S
C934 N931 1.350 . S
C934 C933 1.434 . S
C935 C936 1.369 . S
C935 C937 1.419 . S
C935 H939 0.930 . S
C936 C935 1.369 . S
C936 C945 1.429 . S
C937 C935 1.419 . S
C937 C938 1.363 . S
C937 H940 0.929 . S
C938 C937 1.363 . S
C938 C944 1.428 . S
H939 C935 0.930 . S
H940 C937 0.929 . S
S941 N942 1.613 . S
S941 N943 1.610 . S
N942 S941 1.613 . S
N942 C945 1.350 . S
N943 S941 1.610 . S
N943 C944 1.351 . S
C944 C938 1.428 . S
C944 N943 1.351 . S
C944 C945 1.434 . S
C945 C936 1.429 . S
C945 N942 1.350 . S
C945 C944 1.434 . S
C946 C947 1.369 . S
C946 C948 1.419 . S
C946 H950 0.930 . S
C947 C946 1.369 . S
C947 C956 1.429 . S
C948 C946 1.419 . S
C948 C949 1.363 . S
C948 H951 0.929 . S
C949 C948 1.363 . S
C949 C955 1.428 . S
H950 C946 0.930 . S
H951 C948 0.929 . S
S952 N953 1.613 . S
S952 N954 1.610 . S
N953 S952 1.613 . S
N953 C956 1.350 . S
N954 S952 1.610 . S
N954 C955 1.351 . S
C955 C949 1.428 . S
C955 N954 1.351 . S
C955 C956 1.434 . S
C956 C947 1.429 . S
C956 N953 1.350 . S
C956 C955 1.434 . S
C957 C958 1.369 . S
C957 C959 1.419 . S
C957 H961 0.930 . S
C958 C957 1.369 . S
C958 C967 1.429 . S
C959 C957 1.419 . S
C959 C960 1.363 . S
C959 H962 0.929 . S
C960 C959 1.363 . S
C960 C966 1.428 . S
H961 C957 0.930 . S
H962 C959 0.929 . S
S963 N964 1.613 . S
S963 N965 1.610 . S
N964 S963 1.613 . S
N964 C967 1.350 . S
N965 S963 1.610 . S
N965 C966 1.351 . S
C966 C960 1.428 . S
C966 N965 1.351 . S
C966 C967 1.434 . S
C967 C958 1.429 . S
C967 N964 1.350 . S
C967 C966 1.434 . S
C529 N14 1.648 . S
C531 N476 1.642 . S
C540 N71 1.620 . S
C542 N5 1.618 . S
C551 N47 1.647 . S
C553 N377 1.643 . S
C562 N236 1.620 . S
C564 N38 1.618 . S
C573 N80 1.642 . S
C575 N410 1.647 . S
C584 N113 1.647 . S
C586 N311 1.643 . S
C595 N104 1.618 . S
C597 N170 1.619 . S
C606 N344 1.642 . S
C608 N146 1.647 . S
C617 N203 1.620 . S
C619 N137 1.618 . S
C628 N179 1.645 . S
C630 N509 1.644 . S
C639 N278 1.648 . S
C641 N212 1.642 . S
C650 N443 1.642 . S
C652 N245 1.647 . S
C661 N269 1.619 . S
C663 N335 1.618 . S
C672 N500 1.618 . S
C674 N302 1.620 . S
C683 N368 1.618 . S
C685 N434 1.620 . S
C694 N401 1.620 . S
C696 N467 1.618 . S
C705 C8 1.318 . S
C707 C314 1.311 . S
C716 C305 1.318 . S
C718 C17 1.311 . S
C727 C41 1.316 . S
C729 C281 1.310 . S
C738 C50 1.309 . S
C740 C272 1.315 . S
C749 C380 1.316 . S
C751 C74 1.313 . S
C760 C371 1.313 . S
C762 C83 1.311 . S
C771 C107 1.318 . S
C773 C347 1.311 . S
C782 C116 1.310 . S
C784 C338 1.317 . S
C793 C140 1.312 . S
C795 C446 1.312 . S
C804 C437 1.316 . S
C806 C149 1.310 . S
C815 C173 1.317 . S
C817 C413 1.314 . S
C826 C404 1.316 . S
C828 C182 1.315 . S
C837 C512 1.309 . S
C839 C206 1.317 . S
C848 C215 1.316 . S
C850 C503 1.313 . S
C859 C239 1.318 . S
C861 C479 1.312 . S
C870 C248 1.310 . S
C872 C470 1.314 . S
C881 C61 1.128 . S
C883 C28 1.129 . S
C892 C94 1.129 . S
C894 C127 1.128 . S
C903 C160 1.130 . S
C905 C193 1.129 . S
C914 C226 1.128 . S
C916 C259 1.128 . S
C925 C325 1.129 . S
C927 C292 1.129 . S
C936 C391 1.129 . S
C938 C358 1.129 . S
C947 C424 1.128 . S
C949 C457 1.129 . S
C958 C523 1.128 . S
C960 C490 1.129 . S
