# Generated by pormake.
# Topology svo, (7)-cn, num edge types: 1
# Building blocks:
#     Node 0, Type 0, BuildingBlock: HICVOG_clean_sbu_0, # of connection points: 7
#     Node 1, Type 0, BuildingBlock: HICVOG_clean_sbu_0, # of connection points: 7
#     Node 2, Type 0, BuildingBlock: HICVOG_clean_sbu_0, # of connection points: 7
#     Node 3, Type 0, BuildingBlock: HICVOG_clean_sbu_0, # of connection points: 7
#     Node 4, Type 0, BuildingBlock: HICVOG_clean_sbu_0, # of connection points: 7
#     Node 5, Type 0, BuildingBlock: HICVOG_clean_sbu_0, # of connection points: 7
#     Node 6, Type 0, BuildingBlock: HICVOG_clean_sbu_0, # of connection points: 7
#     Node 7, Type 0, BuildingBlock: HICVOG_clean_sbu_0, # of connection points: 7
#     Node 8, Type 0, BuildingBlock: HICVOG_clean_sbu_0, # of connection points: 7
#     Node 9, Type 0, BuildingBlock: HICVOG_clean_sbu_0, # of connection points: 7
#     Node 10, Type 0, BuildingBlock: HICVOG_clean_sbu_0, # of connection points: 7
#     Node 11, Type 0, BuildingBlock: HICVOG_clean_sbu_0, # of connection points: 7
#     Node 12, Type 0, BuildingBlock: HICVOG_clean_sbu_0, # of connection points: 7
#     Node 13, Type 0, BuildingBlock: HICVOG_clean_sbu_0, # of connection points: 7
#     Node 14, Type 0, BuildingBlock: HICVOG_clean_sbu_0, # of connection points: 7
#     Node 15, Type 0, BuildingBlock: HICVOG_clean_sbu_0, # of connection points: 7
#     Edge 16, Type (0, 0), BuildingBlock: CIFDUS_clean_linker_0, # of connection points: 2
#     Edge 17, Type (0, 0), BuildingBlock: CIFDUS_clean_linker_0, # of connection points: 2
#     Edge 18, Type (0, 0), BuildingBlock: CIFDUS_clean_linker_0, # of connection points: 2
#     Edge 19, Type (0, 0), BuildingBlock: CIFDUS_clean_linker_0, # of connection points: 2
#     Edge 20, Type (0, 0), BuildingBlock: CIFDUS_clean_linker_0, # of connection points: 2
#     Edge 21, Type (0, 0), BuildingBlock: CIFDUS_clean_linker_0, # of connection points: 2
#     Edge 22, Type (0, 0), BuildingBlock: CIFDUS_clean_linker_0, # of connection points: 2
#     Edge 23, Type (0, 0), BuildingBlock: CIFDUS_clean_linker_0, # of connection points: 2
#     Edge 24, Type (0, 0), BuildingBlock: CIFDUS_clean_linker_0, # of connection points: 2
#     Edge 25, Type (0, 0), BuildingBlock: CIFDUS_clean_linker_0, # of connection points: 2
#     Edge 26, Type (0, 0), BuildingBlock: CIFDUS_clean_linker_0, # of connection points: 2
#     Edge 27, Type (0, 0), BuildingBlock: CIFDUS_clean_linker_0, # of connection points: 2
#     Edge 28, Type (0, 0), BuildingBlock: CIFDUS_clean_linker_0, # of connection points: 2
#     Edge 29, Type (0, 0), BuildingBlock: CIFDUS_clean_linker_0, # of connection points: 2
#     Edge 30, Type (0, 0), BuildingBlock: CIFDUS_clean_linker_0, # of connection points: 2
#     Edge 31, Type (0, 0), BuildingBlock: CIFDUS_clean_linker_0, # of connection points: 2
#     Edge 32, Type (0, 0), BuildingBlock: CIFDUS_clean_linker_0, # of connection points: 2
#     Edge 33, Type (0, 0), BuildingBlock: CIFDUS_clean_linker_0, # of connection points: 2
#     Edge 34, Type (0, 0), BuildingBlock: CIFDUS_clean_linker_0, # of connection points: 2
#     Edge 35, Type (0, 0), BuildingBlock: CIFDUS_clean_linker_0, # of connection points: 2
#     Edge 36, Type (0, 0), BuildingBlock: CIFDUS_clean_linker_0, # of connection points: 2
#     Edge 37, Type (0, 0), BuildingBlock: CIFDUS_clean_linker_0, # of connection points: 2
#     Edge 38, Type (0, 0), BuildingBlock: CIFDUS_clean_linker_0, # of connection points: 2
#     Edge 39, Type (0, 0), BuildingBlock: CIFDUS_clean_linker_0, # of connection points: 2
#     Edge 40, Type (0, 0), BuildingBlock: CIFDUS_clean_linker_0, # of connection points: 2
#     Edge 41, Type (0, 0), BuildingBlock: CIFDUS_clean_linker_0, # of connection points: 2
#     Edge 42, Type (0, 0), BuildingBlock: CIFDUS_clean_linker_0, # of connection points: 2
#     Edge 43, Type (0, 0), BuildingBlock: CIFDUS_clean_linker_0, # of connection points: 2
#     Edge 44, Type (0, 0), BuildingBlock: CIFDUS_clean_linker_0, # of connection points: 2
#     Edge 45, Type (0, 0), BuildingBlock: CIFDUS_clean_linker_0, # of connection points: 2
#     Edge 46, Type (0, 0), BuildingBlock: CIFDUS_clean_linker_0, # of connection points: 2
#     Edge 47, Type (0, 0), BuildingBlock: CIFDUS_clean_linker_0, # of connection points: 2
#     Edge 48, Type (0, 0), BuildingBlock: CIFDUS_clean_linker_0, # of connection points: 2
#     Edge 49, Type (0, 0), BuildingBlock: CIFDUS_clean_linker_0, # of connection points: 2
#     Edge 50, Type (0, 0), BuildingBlock: CIFDUS_clean_linker_0, # of connection points: 2
#     Edge 51, Type (0, 0), BuildingBlock: CIFDUS_clean_linker_0, # of connection points: 2
#     Edge 52, Type (0, 0), BuildingBlock: CIFDUS_clean_linker_0, # of connection points: 2
#     Edge 53, Type (0, 0), BuildingBlock: CIFDUS_clean_linker_0, # of connection points: 2
#     Edge 54, Type (0, 0), BuildingBlock: CIFDUS_clean_linker_0, # of connection points: 2
#     Edge 55, Type (0, 0), BuildingBlock: CIFDUS_clean_linker_0, # of connection points: 2
#     Edge 56, Type (0, 0), BuildingBlock: CIFDUS_clean_linker_0, # of connection points: 2
#     Edge 57, Type (0, 0), BuildingBlock: CIFDUS_clean_linker_0, # of connection points: 2
#     Edge 58, Type (0, 0), BuildingBlock: CIFDUS_clean_linker_0, # of connection points: 2
#     Edge 59, Type (0, 0), BuildingBlock: CIFDUS_clean_linker_0, # of connection points: 2
#     Edge 60, Type (0, 0), BuildingBlock: CIFDUS_clean_linker_0, # of connection points: 2
#     Edge 61, Type (0, 0), BuildingBlock: CIFDUS_clean_linker_0, # of connection points: 2
#     Edge 62, Type (0, 0), BuildingBlock: CIFDUS_clean_linker_0, # of connection points: 2
#     Edge 63, Type (0, 0), BuildingBlock: CIFDUS_clean_linker_0, # of connection points: 2
#     Edge 64, Type (0, 0), BuildingBlock: CIFDUS_clean_linker_0, # of connection points: 2
#     Edge 65, Type (0, 0), BuildingBlock: CIFDUS_clean_linker_0, # of connection points: 2
#     Edge 66, Type (0, 0), BuildingBlock: CIFDUS_clean_linker_0, # of connection points: 2
#     Edge 67, Type (0, 0), BuildingBlock: CIFDUS_clean_linker_0, # of connection points: 2
#     Edge 68, Type (0, 0), BuildingBlock: CIFDUS_clean_linker_0, # of connection points: 2
#     Edge 69, Type (0, 0), BuildingBlock: CIFDUS_clean_linker_0, # of connection points: 2
#     Edge 70, Type (0, 0), BuildingBlock: CIFDUS_clean_linker_0, # of connection points: 2
#     Edge 71, Type (0, 0), BuildingBlock: CIFDUS_clean_linker_0, # of connection points: 2
# Relax obj value: 0.210
# Max RMSD: 0.234
# Mean RMSD: 0.234
data_MOF--net-svo--node1-HICVOG_clean_sbu_0--edge1-CIFDUS_clean_linker_0
_symmetry_space_group_name_H-M    P1
_symmetry_Int_Tables_number       1
_symmetry_cell_setting            triclinic
loop_
_symmetry_equiv_pos_as_xyz
'x, y, z'
_cell_length_a     26.670401
_cell_length_b     26.719608
_cell_length_c     72.851603
_cell_angle_alpha  90.050086
_cell_angle_beta   90.089939
_cell_angle_gamma 90.231272
loop_
_atom_site_label
_atom_site_type_symbol
_atom_site_fract_x
_atom_site_fract_y
_atom_site_fract_z
_atom_type_partial_charge
Zn0 Zn 0.18253 0.28822 0.15101 0.0
C1 C 0.08406 0.39404 0.14051 0.0
N2 N 0.05415 0.36281 0.14999 0.0
C3 C 0.08159 0.32109 0.15129 0.0
N4 N 0.12625 0.32668 0.14302 0.0
N5 N 0.12805 0.37214 0.13581 0.0
C6 C 0.22787 0.47619 0.10357 0.0
O7 O 0.25252 0.44526 0.09289 0.0
O8 O 0.16678 0.21498 0.15394 0.0
Zn9 Zn 0.16918 0.38684 0.1139 0.0
N10 N 0.20288 0.31427 0.17463 0.0
C11 C 0.21867 0.38477 0.19373 0.0
C12 C 0.20495 0.36473 0.17679 0.0
C13 C 0.21434 0.28282 0.1887 0.0
N14 N 0.23023 0.3535 0.20777 0.0
C15 C 0.22881 0.30279 0.20582 0.0
O16 O 0.23495 0.34812 0.11217 0.0
C17 C 0.25917 0.31381 0.12043 0.0
O18 O 0.24153 0.29189 0.13446 0.0
H19 H 0.19583 0.38913 0.16544 0.0
H20 H 0.21143 0.2429 0.18652 0.0
C21 C 0.14204 0.38162 0.07511 0.0
C22 C 0.11112 0.36774 0.06015 0.0
C23 C 0.05362 0.33084 0.08104 0.0
C24 C 0.08426 0.34451 0.09568 0.0
N25 N 0.12777 0.36986 0.09255 0.0
N26 N 0.06772 0.34262 0.06372 0.0
H27 H 0.1775 0.40042 0.07303 0.0
C28 C 0.16436 0.18749 0.13974 0.0
O29 O 0.16677 0.20866 0.12349 0.0
O30 O 0.19103 0.45976 0.1129 0.0
H31 H 0.07334 0.33439 0.10942 0.0
H32 H 0.22027 0.42487 0.19571 0.0
H33 H 0.01897 0.31068 0.08341 0.0
Zn34 Zn 0.7293 0.18659 0.15369 0.0
C35 C 0.64357 0.07413 0.13584 0.0
N36 N 0.67707 0.04767 0.14556 0.0
C37 C 0.71245 0.08142 0.14979 0.0
N38 N 0.70113 0.12686 0.14309 0.0
N39 N 0.65817 0.12278 0.13403 0.0
C40 C 0.5418 0.22169 0.1085 0.0
O41 O 0.56783 0.2503 0.09734 0.0
O42 O 0.80102 0.1767 0.16111 0.0
Zn43 Zn 0.63805 0.17076 0.11504 0.0
N44 N 0.69404 0.20024 0.1763 0.0
C45 C 0.62051 0.19761 0.1947 0.0
C46 C 0.64422 0.19043 0.17784 0.0
C47 C 0.72108 0.21737 0.19087 0.0
N48 N 0.64759 0.21442 0.2093 0.0
C49 C 0.69747 0.22488 0.20789 0.0
O50 O 0.67352 0.23861 0.11498 0.0
C51 C 0.70584 0.26476 0.12364 0.0
O52 O 0.7277 0.24801 0.13787 0.0
H53 H 0.62331 0.17656 0.16616 0.0
H54 H 0.76086 0.22383 0.18923 0.0
C55 C 0.63584 0.15045 0.07532 0.0
C56 C 0.653 0.12583 0.05935 0.0
C57 C 0.70802 0.0773 0.07777 0.0
C58 C 0.69229 0.10282 0.09329 0.0
N59 N 0.65606 0.13837 0.09192 0.0
N60 N 0.68839 0.08959 0.06126 0.0
H61 H 0.60726 0.1789 0.07469 0.0
C62 C 0.83685 0.17678 0.14969 0.0
O63 O 0.82661 0.17858 0.13206 0.0
O64 O 0.56384 0.1869 0.11721 0.0
H65 H 0.70938 0.09437 0.10633 0.0
H66 H 0.58094 0.18966 0.19621 0.0
H67 H 0.73644 0.04865 0.07874 0.0
Zn68 Zn 0.83715 0.64992 0.11685 0.0
C69 C 0.94443 0.72114 0.14491 0.0
N70 N 0.97363 0.68298 0.1399 0.0
C71 C 0.94045 0.64914 0.13352 0.0
N72 N 0.89263 0.66648 0.13414 0.0
N73 N 0.89576 0.7114 0.14178 0.0
C74 C 0.85991 0.84757 0.15157 0.0
O75 O 0.85839 0.83724 0.13394 0.0
O76 O 0.82382 0.57461 0.11559 0.0
Zn77 Zn 0.84512 0.73972 0.15702 0.0
N78 N 0.85783 0.67854 0.09341 0.0
C79 C 0.89309 0.7518 0.08 0.0
C80 C 0.87541 0.72609 0.09523 0.0
C81 C 0.85587 0.65587 0.07661 0.0
N82 N 0.89113 0.72955 0.06331 0.0
C83 C 0.87268 0.68238 0.06093 0.0
O84 O 0.77628 0.73412 0.14677 0.0
C85 C 0.75023 0.71279 0.13443 0.0
O86 O 0.76914 0.68191 0.12303 0.0
H87 H 0.87557 0.74402 0.10851 0.0
H88 H 0.84163 0.61802 0.07557 0.0
C89 C 0.8226 0.73065 0.19452 0.0
C90 C 0.82028 0.70848 0.212 0.0
C91 C 0.86304 0.63757 0.20013 0.0
C92 C 0.86461 0.65965 0.18279 0.0
N93 N 0.84444 0.70577 0.18038 0.0
N94 N 0.84103 0.66237 0.21427 0.0
H95 H 0.80799 0.7677 0.19203 0.0
C96 C 0.78746 0.55109 0.10811 0.0
O97 O 0.7546 0.57589 0.09826 0.0
O98 O 0.85757 0.81201 0.16305 0.0
H99 H 0.88185 0.64031 0.17141 0.0
H100 H 0.90764 0.78948 0.08136 0.0
H101 H 0.87909 0.60095 0.20234 0.0
Zn102 Zn 0.37056 0.84109 0.11545 0.0
C103 C 0.31794 0.95111 0.14574 0.0
N104 N 0.35856 0.97539 0.13942 0.0
C105 C 0.38564 0.93813 0.13206 0.0
N106 N 0.3625 0.89337 0.13368 0.0
N107 N 0.32001 0.90166 0.14246 0.0
C108 C 0.17931 0.8771 0.15054 0.0
O109 O 0.19136 0.87821 0.13306 0.0
O110 O 0.44377 0.82355 0.11165 0.0
Zn111 Zn 0.28406 0.85163 0.156 0.0
N112 N 0.34157 0.86855 0.09327 0.0
C113 C 0.27168 0.91052 0.08028 0.0
C114 C 0.29566 0.88956 0.09534 0.0
C115 C 0.36459 0.86718 0.07661 0.0
N116 N 0.29417 0.90873 0.06363 0.0
C117 C 0.34002 0.88747 0.06107 0.0
O118 O 0.27904 0.78478 0.14341 0.0
C119 C 0.2983 0.75879 0.13061 0.0
O120 O 0.3326 0.77634 0.12028 0.0
H121 H 0.27778 0.88988 0.10863 0.0
H122 H 0.40114 0.85024 0.07578 0.0
C123 C 0.29084 0.82079 0.19314 0.0
C124 C 0.31348 0.81362 0.21039 0.0
C125 C 0.38894 0.84879 0.19869 0.0
C126 C 0.36633 0.85538 0.18159 0.0
N127 N 0.31772 0.84141 0.17919 0.0
N128 N 0.36211 0.82824 0.21264 0.0
H129 H 0.25197 0.81107 0.19075 0.0
C130 C 0.46454 0.79666 0.12386 0.0
O131 O 0.43819 0.7832 0.13828 0.0
O132 O 0.21381 0.87149 0.16235 0.0
H133 H 0.38722 0.87178 0.1704 0.0
H134 H 0.23519 0.9276 0.08174 0.0
H135 H 0.42752 0.85995 0.20088 0.0
Zn136 Zn 0.16799 0.7311 0.36029 0.0
C137 C 0.0721 0.63756 0.3861 0.0
N138 N 0.03814 0.66952 0.37928 0.0
C139 C 0.06671 0.70473 0.37144 0.0
N140 N 0.11598 0.69513 0.37329 0.0
N141 N 0.11993 0.65273 0.38271 0.0
C142 C 0.21717 0.54138 0.3876 0.0
O143 O 0.22638 0.56777 0.37276 0.0
O144 O 0.15247 0.80476 0.3577 0.0
Zn145 Zn 0.17641 0.63722 0.39931 0.0
N146 N 0.17416 0.70254 0.336 0.0
C147 C 0.15995 0.63467 0.3155 0.0
C148 C 0.15608 0.65565 0.33294 0.0
C149 C 0.19637 0.72932 0.32234 0.0
N150 N 0.18213 0.66127 0.30187 0.0
C151 C 0.20088 0.70816 0.3047 0.0
O152 O 0.24314 0.67452 0.39479 0.0
C153 C 0.2617 0.70882 0.38466 0.0
O154 O 0.23568 0.72977 0.37225 0.0
H155 H 0.13873 0.63476 0.34395 0.0
H156 H 0.2096 0.76679 0.32527 0.0
C157 C 0.15583 0.63921 0.43921 0.0
C158 C 0.13617 0.66292 0.455 0.0
C159 C 0.10998 0.73117 0.43645 0.0
C160 C 0.13048 0.70831 0.42112 0.0
N161 N 0.15256 0.66275 0.42266 0.0
N162 N 0.11355 0.7082 0.45293 0.0
H163 H 0.1733 0.60283 0.43991 0.0
C164 C 0.14787 0.8303 0.37231 0.0
O165 O 0.14806 0.80679 0.38813 0.0
O166 O 0.19407 0.56229 0.40086 0.0
H167 H 0.12861 0.72671 0.40798 0.0
H168 H 0.14557 0.59747 0.31282 0.0
H169 H 0.09191 0.76722 0.43532 0.0
Zn170 Zn 0.38487 0.17699 0.39434 0.0
C171 C 0.3047 0.06339 0.37292 0.0
N172 N 0.33933 0.03447 0.3807 0.0
C173 C 0.37515 0.06714 0.38576 0.0
N174 N 0.36224 0.11522 0.38148 0.0
N175 N 0.31813 0.11192 0.37295 0.0
C176 C 0.18321 0.14387 0.37029 0.0
O177 O 0.20553 0.14233 0.38636 0.0
O178 O 0.46145 0.18897 0.39271 0.0
Zn179 Zn 0.28517 0.16028 0.35735 0.0
N180 N 0.35914 0.16608 0.4189 0.0
C181 C 0.28133 0.14806 0.43342 0.0
C182 C 0.30861 0.1601 0.41785 0.0
C183 C 0.38387 0.16157 0.43523 0.0
N184 N 0.30558 0.14334 0.44964 0.0
C185 C 0.35608 0.14991 0.4512 0.0
O186 O 0.29326 0.23175 0.36505 0.0
C187 C 0.31737 0.26028 0.37589 0.0
O188 O 0.35104 0.24351 0.3867 0.0
H189 H 0.28978 0.1641 0.4048 0.0
H190 H 0.42416 0.16622 0.43568 0.0
C191 C 0.29007 0.18029 0.31891 0.0
C192 C 0.3085 0.17549 0.30088 0.0
C193 C 0.36836 0.11668 0.31166 0.0
C194 C 0.35029 0.12209 0.32947 0.0
N195 N 0.31143 0.15359 0.33274 0.0
N196 N 0.34717 0.14338 0.29785 0.0
H197 H 0.25865 0.20428 0.32203 0.0
C198 C 0.48507 0.22416 0.40092 0.0
O199 O 0.45999 0.2547 0.41161 0.0
O200 O 0.20995 0.14878 0.35597 0.0
H201 H 0.36694 0.10108 0.34057 0.0
H202 H 0.24115 0.14269 0.43268 0.0
H203 H 0.39907 0.09154 0.30881 0.0
Zn204 Zn 0.85158 0.2824 0.35967 0.0
C205 C 0.96727 0.36747 0.37705 0.0
N206 N 0.9915 0.33278 0.36719 0.0
C207 C 0.95623 0.29948 0.36293 0.0
N208 N 0.91144 0.3126 0.36982 0.0
N209 N 0.91744 0.35562 0.3789 0.0
C210 C 0.85262 0.47925 0.38085 0.0
O211 O 0.87409 0.45884 0.36648 0.0
O212 O 0.85916 0.20755 0.35722 0.0
Zn213 Zn 0.86799 0.37896 0.39764 0.0
N214 N 0.84073 0.31211 0.33572 0.0
C215 C 0.85298 0.38303 0.31651 0.0
C216 C 0.85809 0.35957 0.33344 0.0
C217 C 0.81791 0.28703 0.32169 0.0
N218 N 0.83047 0.35814 0.30251 0.0
C219 C 0.81244 0.31068 0.30449 0.0
O220 O 0.79861 0.34332 0.39769 0.0
C221 C 0.77215 0.31182 0.38864 0.0
O222 O 0.78954 0.28988 0.3746 0.0
H223 H 0.87614 0.37893 0.34466 0.0
H224 H 0.8052 0.24902 0.32388 0.0
C225 C 0.88568 0.38255 0.43792 0.0
C226 C 0.90993 0.36593 0.45413 0.0
C227 C 0.96133 0.31283 0.43604 0.0
C228 C 0.93625 0.32788 0.42032 0.0
N229 N 0.89961 0.36311 0.42134 0.0
N230 N 0.94745 0.33183 0.45246 0.0
H231 H 0.85597 0.40991 0.43835 0.0
C232 C 0.86464 0.1839 0.37221 0.0
O233 O 0.86982 0.20973 0.38746 0.0
O234 O 0.84818 0.45355 0.39549 0.0
H235 H 0.94578 0.31064 0.40743 0.0
H236 H 0.86685 0.42072 0.31449 0.0
H237 H 0.99084 0.28524 0.4353 0.0
Zn238 Zn 0.73928 0.84707 0.36276 0.0
C239 C 0.63731 0.93197 0.38852 0.0
N240 N 0.66837 0.96922 0.3835 0.0
C241 C 0.70771 0.94454 0.37658 0.0
N242 N 0.70127 0.89459 0.37711 0.0
N243 N 0.65714 0.88625 0.38494 0.0
C244 C 0.54975 0.77174 0.40897 0.0
O245 O 0.5814 0.74384 0.41823 0.0
O246 O 0.81276 0.86468 0.36038 0.0
Zn247 Zn 0.64178 0.82618 0.39953 0.0
N248 N 0.71084 0.84452 0.33837 0.0
C249 C 0.64398 0.86176 0.31777 0.0
C250 C 0.66478 0.86434 0.33528 0.0
C251 C 0.73708 0.82206 0.32466 0.0
N252 N 0.66993 0.83911 0.3041 0.0
C253 C 0.71609 0.81875 0.30693 0.0
O254 O 0.67853 0.76138 0.39256 0.0
C255 C 0.71583 0.74685 0.38302 0.0
O256 O 0.73925 0.77682 0.37253 0.0
H257 H 0.6443 0.88193 0.34631 0.0
H258 H 0.77395 0.80762 0.3277 0.0
C259 C 0.64598 0.84763 0.43965 0.0
C260 C 0.67415 0.85996 0.45553 0.0
C261 C 0.74827 0.86169 0.4374 0.0
C262 C 0.72056 0.84872 0.42198 0.0
N263 N 0.6702 0.84214 0.42331 0.0
N264 N 0.72458 0.86674 0.45371 0.0
H265 H 0.60576 0.84278 0.4401 0.0
C266 C 0.83994 0.87258 0.37443 0.0
O267 O 0.81813 0.87681 0.3905 0.0
O268 O 0.56648 0.81005 0.40052 0.0
H269 H 0.73891 0.84396 0.4089 0.0
H270 H 0.60738 0.87744 0.31505 0.0
H271 H 0.78839 0.8673 0.43649 0.0
Zn272 Zn 0.88039 0.68695 0.89646 0.0
C273 C 0.80998 0.56927 0.87717 0.0
N274 N 0.84901 0.54458 0.88446 0.0
C275 C 0.88255 0.58142 0.88742 0.0
N276 N 0.86428 0.62661 0.88236 0.0
N277 N 0.81909 0.61851 0.87536 0.0
C278 C 0.68259 0.6447 0.87067 0.0
O279 O 0.70432 0.6396 0.88673 0.0
O280 O 0.95602 0.7014 0.89764 0.0
Zn281 Zn 0.78536 0.66233 0.85804 0.0
N282 N 0.85008 0.67516 0.92036 0.0
C283 C 0.77115 0.65676 0.93397 0.0
C284 C 0.79987 0.66799 0.91864 0.0
C285 C 0.87304 0.6725 0.9371 0.0
N286 N 0.79364 0.65418 0.95061 0.0
C287 C 0.84379 0.66196 0.95286 0.0
O288 O 0.79319 0.73538 0.86419 0.0
C289 C 0.81547 0.76529 0.87511 0.0
O290 O 0.84687 0.75023 0.88706 0.0
H291 H 0.78242 0.67082 0.90531 0.0
H292 H 0.91316 0.67803 0.93801 0.0
C293 C 0.79075 0.66937 0.81846 0.0
C294 C 0.81197 0.66035 0.80102 0.0
C295 C 0.8772 0.6142 0.81539 0.0
C296 C 0.85638 0.62372 0.83253 0.0
N297 N 0.81353 0.65086 0.83378 0.0
N298 N 0.85468 0.63266 0.80014 0.0
H299 H 0.75633 0.69019 0.81997 0.0
C300 C 0.97517 0.71898 0.88297 0.0
O301 O 0.9461 0.72507 0.86857 0.0
O302 O 0.70991 0.65129 0.85658 0.0
H303 H 0.87422 0.6093 0.84473 0.0
H304 H 0.73119 0.65054 0.93271 0.0
H305 H 0.91115 0.59244 0.81419 0.0
Zn306 Zn 0.35232 0.79164 0.85698 0.0
C307 C 0.45474 0.87605 0.88313 0.0
N308 N 0.48586 0.84232 0.87569 0.0
C309 C 0.45487 0.80879 0.8682 0.0
N310 N 0.40648 0.82098 0.8708 0.0
N311 N 0.40573 0.86305 0.88058 0.0
C312 C 0.33654 0.98209 0.88126 0.0
O313 O 0.35905 0.96077 0.86729 0.0
O314 O 0.36631 0.72045 0.85012 0.0
Zn315 Zn 0.34888 0.8817 0.89668 0.0
N316 N 0.34533 0.8265 0.834 0.0
C317 C 0.35976 0.89569 0.81421 0.0
C318 C 0.3643 0.87317 0.8314 0.0
C319 C 0.32233 0.8012 0.82016 0.0
N320 N 0.33684 0.87038 0.80033 0.0
C321 C 0.31767 0.8235 0.80277 0.0
O322 O 0.28284 0.84361 0.89268 0.0
C323 C 0.26192 0.81053 0.88261 0.0
O324 O 0.28526 0.79013 0.86941 0.0
H325 H 0.38334 0.89234 0.84247 0.0
H326 H 0.30925 0.7635 0.8227 0.0
C327 C 0.36417 0.88238 0.9372 0.0
C328 C 0.38193 0.85921 0.95341 0.0
C329 C 0.41271 0.79156 0.93552 0.0
C330 C 0.39413 0.8138 0.91975 0.0
N331 N 0.37093 0.85896 0.92074 0.0
N332 N 0.406 0.81454 0.95187 0.0
H333 H 0.34535 0.91813 0.93753 0.0
C334 C 0.37069 0.68591 0.86193 0.0
O335 O 0.37225 0.69795 0.87941 0.0
O336 O 0.32921 0.95643 0.89574 0.0
H337 H 0.39799 0.79489 0.90673 0.0
H338 H 0.37475 0.93282 0.81186 0.0
H339 H 0.43164 0.75587 0.93485 0.0
Zn340 Zn 0.24136 0.35055 0.85784 0.0
C341 C 0.14676 0.44851 0.88036 0.0
N342 N 0.18043 0.48058 0.87324 0.0
C343 C 0.21739 0.45078 0.86764 0.0
N344 N 0.20721 0.40247 0.87105 0.0
N345 N 0.16321 0.40029 0.87951 0.0
C346 C 0.0466 0.3342 0.8793 0.0
O347 O 0.06949 0.35561 0.8654 0.0
O348 O 0.31511 0.3644 0.85678 0.0
Zn349 Zn 0.14514 0.34364 0.89562 0.0
N350 N 0.21522 0.34791 0.83311 0.0
C351 C 0.14915 0.36369 0.812 0.0
C352 C 0.16842 0.36559 0.82976 0.0
C353 C 0.24371 0.32834 0.81942 0.0
N354 N 0.17736 0.34386 0.79834 0.0
C355 C 0.22432 0.32573 0.80143 0.0
O356 O 0.18163 0.27654 0.89135 0.0
C357 C 0.21512 0.25706 0.88113 0.0
O358 O 0.23692 0.28248 0.86878 0.0
H359 H 0.14632 0.3811 0.84079 0.0
H360 H 0.28111 0.31567 0.82267 0.0
C361 C 0.1439 0.36017 0.93628 0.0
C362 C 0.16754 0.37811 0.95244 0.0
C363 C 0.23687 0.40549 0.93458 0.0
C364 C 0.2139 0.38722 0.91885 0.0
N365 N 0.16787 0.36539 0.91984 0.0
N366 N 0.21334 0.40042 0.95089 0.0
H367 H 0.10726 0.34275 0.93664 0.0
C368 C 0.33696 0.36262 0.87224 0.0
O369 O 0.30961 0.35644 0.88705 0.0
O370 O 0.07086 0.32643 0.89408 0.0
H371 H 0.23282 0.39031 0.90585 0.0
H372 H 0.11199 0.37771 0.80909 0.0
H373 H 0.27337 0.42319 0.93387 0.0
Zn374 Zn 0.67032 0.24125 0.86113 0.0
C375 C 0.58667 0.13794 0.88698 0.0
N376 N 0.54903 0.16844 0.88209 0.0
C377 C 0.57361 0.20768 0.87491 0.0
N378 N 0.62357 0.20172 0.87523 0.0
N379 N 0.63214 0.15796 0.88308 0.0
C380 C 0.73083 0.04971 0.88748 0.0
O381 O 0.74085 0.07601 0.87268 0.0
O382 O 0.65305 0.31439 0.86105 0.0
Zn383 Zn 0.69153 0.1444 0.8977 0.0
N384 N 0.66885 0.21777 0.83611 0.0
C385 C 0.64984 0.15487 0.8141 0.0
C386 C 0.64943 0.17195 0.83216 0.0
C387 C 0.68877 0.24734 0.82278 0.0
N388 N 0.67023 0.18407 0.8008 0.0
C389 C 0.69018 0.23006 0.8045 0.0
O390 O 0.75568 0.17755 0.88946 0.0
C391 C 0.77162 0.21349 0.87962 0.0
O392 O 0.74225 0.23873 0.8695 0.0
H393 H 0.63395 0.14883 0.84294 0.0
H394 H 0.70292 0.28379 0.82662 0.0
C395 C 0.6657 0.15223 0.93675 0.0
C396 C 0.65687 0.18073 0.95277 0.0
C397 C 0.67185 0.25516 0.93569 0.0
C398 C 0.68165 0.22682 0.92014 0.0
N399 N 0.67829 0.17617 0.92092 0.0
N400 N 0.66008 0.23155 0.95156 0.0
H401 H 0.66258 0.11192 0.93663 0.0
C402 C 0.64362 0.33765 0.87583 0.0
O403 O 0.63846 0.31189 0.89105 0.0
O404 O 0.70738 0.07055 0.90062 0.0
H405 H 0.69188 0.24486 0.90742 0.0
H406 H 0.63446 0.11851 0.81068 0.0
H407 H 0.67411 0.29557 0.93523 0.0
Zn408 Zn 0.88374 0.33926 0.61784 0.0
C409 C 0.81038 0.45577 0.63858 0.0
N410 N 0.84654 0.48305 0.63079 0.0
C411 C 0.88096 0.44871 0.62614 0.0
N412 N 0.86547 0.40157 0.63061 0.0
N413 N 0.82164 0.40692 0.63901 0.0
C414 C 0.68951 0.37679 0.63839 0.0
O415 O 0.71677 0.38276 0.62356 0.0
O416 O 0.95857 0.32566 0.61805 0.0
Zn417 Zn 0.78634 0.36061 0.65468 0.0
N418 N 0.85534 0.34629 0.5934 0.0
C419 C 0.77674 0.34663 0.57796 0.0
C420 C 0.80473 0.34096 0.59389 0.0
C421 C 0.87962 0.35674 0.57736 0.0
N422 N 0.8006 0.35677 0.562 0.0
C423 C 0.85138 0.36193 0.56098 0.0
O424 O 0.79516 0.2884 0.6488 0.0
C425 C 0.81919 0.2585 0.6386 0.0
O426 O 0.8518 0.27395 0.62716 0.0
H427 H 0.78633 0.33252 0.60673 0.0
H428 H 0.91987 0.36129 0.57752 0.0
C429 C 0.78133 0.34686 0.69312 0.0
C430 C 0.79795 0.34931 0.71146 0.0
C431 C 0.86729 0.39891 0.70171 0.0
C432 C 0.85118 0.39518 0.68356 0.0
N433 N 0.80848 0.36942 0.67967 0.0
N434 N 0.8406 0.37581 0.71514 0.0
H435 H 0.74734 0.32739 0.68928 0.0
C436 C 0.98416 0.33487 0.63243 0.0
O437 O 0.96211 0.35608 0.64654 0.0
O438 O 0.71158 0.3707 0.65368 0.0
H439 H 0.87255 0.41251 0.67266 0.0
H440 H 0.73636 0.34275 0.57823 0.0
H441 H 0.90108 0.41947 0.70509 0.0
Zn442 Zn 0.68213 0.7894 0.65836 0.0
C443 C 0.57478 0.8805 0.63831 0.0
N444 N 0.546 0.8493 0.64819 0.0
C445 C 0.5779 0.81399 0.6537 0.0
N446 N 0.62474 0.82299 0.64758 0.0
N447 N 0.62327 0.86477 0.63767 0.0
C448 C 0.716 0.97759 0.63094 0.0
O449 O 0.72336 0.95254 0.6462 0.0
O450 O 0.66843 0.7158 0.66071 0.0
Zn451 Zn 0.67342 0.88155 0.61875 0.0
N452 N 0.69241 0.81857 0.68248 0.0
C453 C 0.69389 0.89362 0.70001 0.0
C454 C 0.68845 0.86916 0.68327 0.0
C455 C 0.70174 0.79107 0.69788 0.0
N456 N 0.70321 0.86646 0.71535 0.0
C457 C 0.70751 0.81566 0.71494 0.0
O458 O 0.74009 0.84636 0.62102 0.0
C459 C 0.7657 0.81529 0.6303 0.0
O460 O 0.74736 0.79339 0.64426 0.0
H461 H 0.68066 0.89024 0.67095 0.0
H462 H 0.70367 0.75077 0.69679 0.0
C463 C 0.65243 0.87664 0.57888 0.0
C464 C 0.62967 0.85414 0.56333 0.0
C465 C 0.59024 0.79481 0.58294 0.0
C466 C 0.61371 0.81624 0.59805 0.0
N467 N 0.64389 0.85693 0.59586 0.0
N468 N 0.59896 0.81398 0.56606 0.0
H469 H 0.67653 0.90905 0.57769 0.0
C470 C 0.66195 0.69311 0.64556 0.0
O471 O 0.6609 0.71956 0.63037 0.0
O472 O 0.69404 0.95586 0.61758 0.0
H473 H 0.60799 0.80018 0.61145 0.0
H474 H 0.69066 0.9339 0.70085 0.0
H475 H 0.56589 0.76265 0.58456 0.0
Zn476 Zn 0.24991 0.66783 0.65362 0.0
C477 C 0.1501 0.57724 0.62949 0.0
N478 N 0.18329 0.54147 0.63388 0.0
C479 C 0.22262 0.56828 0.64002 0.0
N480 N 0.21407 0.6178 0.63965 0.0
N481 N 0.16859 0.62375 0.63272 0.0
C482 C 0.05015 0.73005 0.61307 0.0
O483 O 0.0756 0.76441 0.60412 0.0
O484 O 0.32363 0.65268 0.65714 0.0
Zn485 Zn 0.14883 0.68172 0.61821 0.0
N486 N 0.21924 0.67182 0.67759 0.0
C487 C 0.15155 0.65363 0.69772 0.0
C488 C 0.17386 0.64996 0.68052 0.0
C489 C 0.24334 0.69729 0.69119 0.0
N490 N 0.17538 0.67927 0.71127 0.0
C491 C 0.2208 0.70163 0.7086 0.0
O492 O 0.18342 0.74847 0.62398 0.0
C493 C 0.22191 0.76506 0.63247 0.0
O494 O 0.24805 0.73692 0.64276 0.0
H495 H 0.15505 0.62986 0.66963 0.0
H496 H 0.27979 0.71324 0.68832 0.0
C497 C 0.14886 0.65973 0.57811 0.0
C498 C 0.17542 0.64644 0.56204 0.0
C499 C 0.25099 0.64409 0.57938 0.0
C500 C 0.22493 0.65812 0.595 0.0
N501 N 0.17457 0.66529 0.59417 0.0
N502 N 0.22579 0.63884 0.56337 0.0
H503 H 0.10873 0.66531 0.578 0.0
C504 C 0.3526 0.64757 0.64344 0.0
O505 O 0.33279 0.64563 0.62693 0.0
O506 O 0.07311 0.69184 0.61922 0.0
H507 H 0.24464 0.66314 0.60784 0.0
H508 H 0.11548 0.63637 0.7003 0.0
H509 H 0.29103 0.63789 0.57991 0.0
Zn510 Zn 0.33801 0.14227 0.61402 0.0
C511 C 0.4556 0.20862 0.63561 0.0
N512 N 0.47924 0.16806 0.62909 0.0
C513 C 0.44089 0.13694 0.62525 0.0
N514 N 0.39609 0.15773 0.6291 0.0
N515 N 0.40554 0.20263 0.63596 0.0
C516 C 0.38751 0.33961 0.63758 0.0
O517 O 0.39182 0.31636 0.62179 0.0
O518 O 0.32192 0.06752 0.61367 0.0
Zn519 Zn 0.35946 0.24103 0.65053 0.0
N520 N 0.35617 0.16894 0.5902 0.0
C521 C 0.38395 0.24442 0.57617 0.0
C522 C 0.36706 0.2185 0.59147 0.0
C523 C 0.36029 0.14403 0.57393 0.0
N524 N 0.38797 0.21999 0.55997 0.0
C525 C 0.37634 0.17053 0.55817 0.0
O526 O 0.28812 0.23939 0.64137 0.0
C527 C 0.25892 0.21535 0.63068 0.0
O528 O 0.27448 0.17907 0.62091 0.0
H529 H 0.36287 0.23754 0.60443 0.0
H530 H 0.35155 0.10449 0.57337 0.0
C531 C 0.33813 0.24135 0.68894 0.0
C532 C 0.33762 0.22213 0.70696 0.0
C533 C 0.38237 0.15086 0.69642 0.0
C534 C 0.38212 0.16983 0.67863 0.0
N535 N 0.36007 0.21465 0.67524 0.0
N536 N 0.36017 0.17725 0.71007 0.0
H537 H 0.32195 0.27727 0.68567 0.0
C538 C 0.28172 0.05122 0.60631 0.0
O539 O 0.25242 0.08294 0.59771 0.0
O540 O 0.37782 0.31409 0.65185 0.0
H541 H 0.39941 0.14898 0.66763 0.0
H542 H 0.39329 0.28378 0.5771 0.0
H543 H 0.39988 0.1153 0.69936 0.0
H544 H 0.08027 0.31672 0.02989 0.0
H545 H 0.17077 0.44374 0.0463 0.0
H546 H 0.19284 0.45899 0.0144 0.0
H547 H 0.18849 0.43544 0.98207 0.0
H548 H 0.09952 0.30766 0.96543 0.0
H549 H 0.07342 0.29498 0.99718 0.0
C550 C 0.10468 0.34795 0.02654 0.0
C551 C 0.12456 0.37828 0.04069 0.0
C552 C 0.11701 0.35687 0.00808 0.0
C553 C 0.15599 0.41865 0.03594 0.0
C554 C 0.16825 0.42782 0.01761 0.0
C555 C 0.16319 0.4048 0.98529 0.0
C556 C 0.14606 0.3727 0.97121 0.0
C557 C 0.14935 0.39691 1.00362 0.0
C558 C 0.11285 0.33361 0.97576 0.0
C559 C 0.09831 0.32594 0.99402 0.0
H560 H 0.66047 0.06905 0.02873 0.0
H561 H 0.61202 0.21515 0.04694 0.0
H562 H 0.6019 0.24128 0.01523 0.0
H563 H 0.61763 0.22684 0.98262 0.0
H564 H 0.67526 0.08364 0.96481 0.0
H565 H 0.67029 0.05262 0.996 0.0
C566 C 0.64717 0.10654 0.02585 0.0
C567 C 0.63746 0.13993 0.04042 0.0
C568 C 0.64346 0.12222 0.00755 0.0
C569 C 0.61946 0.18808 0.03626 0.0
C570 C 0.61415 0.20341 0.01802 0.0
C571 C 0.62878 0.18862 0.98543 0.0
C572 C 0.64709 0.15809 0.97113 0.0
C573 C 0.62777 0.17137 1.0036 0.0
C574 C 0.66052 0.10839 0.9752 0.0
C575 C 0.65817 0.09053 0.9932 0.0
H576 H 0.8063 0.61151 0.98207 0.0
H577 H 0.92628 0.71234 0.96691 0.0
H578 H 0.94953 0.7214 0.99911 0.0
H579 H 0.92938 0.70911 0.03165 0.0
H580 H 0.80554 0.61297 0.04679 0.0
H581 H 0.7909 0.59333 0.01457 0.0
C582 C 0.83797 0.63508 0.98573 0.0
C583 C 0.86421 0.66134 0.97192 0.0
C584 C 0.85031 0.64128 1.00436 0.0
C585 C 0.90554 0.69115 0.97703 0.0
C586 C 0.9186 0.69679 0.99554 0.0
C587 C 0.89948 0.68333 0.02797 0.0
C588 C 0.86857 0.66284 0.0418 0.0
C589 C 0.89026 0.67327 0.00933 0.0
C590 C 0.83046 0.62904 0.03666 0.0
C591 C 0.82165 0.61814 0.01814 0.0
H592 H 0.43588 0.8386 0.98387 0.0
H593 H 0.30763 0.92366 0.96566 0.0
H594 H 0.28754 0.94387 0.99742 0.0
H595 H 0.30082 0.92978 0.03025 0.0
H596 H 0.42585 0.83868 0.04805 0.0
H597 H 0.45204 0.82878 0.01659 0.0
C598 C 0.40366 0.86195 0.98675 0.0
C599 C 0.37335 0.87925 0.97222 0.0
C600 C 0.39117 0.87195 1.00507 0.0
C601 C 0.33222 0.91009 0.97636 0.0
C602 C 0.32029 0.92124 0.99461 0.0
C603 C 0.33406 0.90788 0.02743 0.0
C604 C 0.36051 0.88476 0.04195 0.0
C605 C 0.34868 0.90113 0.00908 0.0
C606 C 0.40391 0.85718 0.03764 0.0
C607 C 0.41917 0.8512 0.01944 0.0
H608 H 0.07982 0.68619 0.48467 0.0
H609 H 0.20612 0.59548 0.46839 0.0
H610 H 0.22307 0.57606 0.50037 0.0
H611 H 0.20989 0.5944 0.53285 0.0
H612 H 0.08928 0.69244 0.54912 0.0
H613 H 0.06211 0.69857 0.5173 0.0
C614 C 0.1108 0.66166 0.48803 0.0
C615 C 0.14173 0.64281 0.47394 0.0
C616 C 0.12171 0.65219 0.50654 0.0
C617 C 0.18114 0.61041 0.47869 0.0
C618 C 0.1913 0.59962 0.49709 0.0
C619 C 0.17724 0.61674 0.52954 0.0
C620 C 0.15212 0.64321 0.54351 0.0
C621 C 0.16298 0.6218 0.5111 0.0
C622 C 0.10936 0.6712 0.53887 0.0
C623 C 0.09403 0.67521 0.52056 0.0
H624 H 0.43606 0.19878 0.52998 0.0
H625 H 0.31862 0.09372 0.54393 0.0
H626 H 0.3091 0.07175 0.51165 0.0
H627 H 0.32414 0.09255 0.47938 0.0
H628 H 0.43661 0.2026 0.46529 0.0
H629 H 0.45857 0.21169 0.49767 0.0
C630 C 0.40891 0.17041 0.52602 0.0
C631 C 0.3778 0.1484 0.53945 0.0
C632 C 0.40239 0.15918 0.50734 0.0
C633 C 0.34341 0.11115 0.53405 0.0
C634 C 0.33753 0.09891 0.5155 0.0
C635 C 0.35413 0.11792 0.48334 0.0
C636 C 0.37824 0.14725 0.46989 0.0
C637 C 0.36533 0.12423 0.50202 0.0
C638 C 0.41754 0.1793 0.47524 0.0
C639 C 0.42974 0.18494 0.49383 0.0
H640 H 0.8049 0.39816 0.53061 0.0
H641 H 0.94899 0.34447 0.54929 0.0
H642 H 0.98083 0.34898 0.5181 0.0
H643 H 0.96538 0.35861 0.48523 0.0
H644 H 0.81891 0.40436 0.4662 0.0
H645 H 0.79116 0.4132 0.49783 0.0
C646 C 0.84347 0.38772 0.52799 0.0
C647 C 0.87413 0.37078 0.54253 0.0
C648 C 0.86126 0.38878 0.50985 0.0
C649 C 0.92423 0.3582 0.53868 0.0
C650 C 0.94251 0.36031 0.52071 0.0
C651 C 0.92741 0.371 0.48789 0.0
C652 C 0.89445 0.38043 0.4731 0.0
C653 C 0.91093 0.37417 0.50615 0.0
C654 C 0.84567 0.39719 0.47704 0.0
C655 C 0.82944 0.40175 0.49524 0.0
H656 H 0.71474 0.90707 0.48501 0.0
H657 H 0.58478 0.82019 0.46884 0.0
H658 H 0.55702 0.8176 0.50059 0.0
H659 H 0.57417 0.83154 0.53317 0.0
H660 H 0.70865 0.91116 0.54948 0.0
H661 H 0.7293 0.92527 0.51746 0.0
C662 C 0.68006 0.88777 0.48831 0.0
C663 C 0.65226 0.86374 0.47431 0.0
C664 C 0.66509 0.8848 0.50673 0.0
C665 C 0.60705 0.83964 0.47903 0.0
C666 C 0.59126 0.83766 0.49732 0.0
C667 C 0.60792 0.85237 0.52984 0.0
C668 C 0.63968 0.86992 0.54401 0.0
C669 C 0.62074 0.85887 0.51131 0.0
C670 C 0.68282 0.89743 0.53918 0.0
C671 C 0.69509 0.90518 0.52074 0.0
H672 H 0.23795 0.9717 0.12535 0.0
H673 H 0.30325 0.99599 0.17865 0.0
H674 H 0.24956 0.06906 0.18333 0.0
H675 H 0.2005 0.13597 0.169 0.0
H676 H 0.14425 0.11658 0.11387 0.0
H677 H 0.17666 0.03125 0.11321 0.0
C678 C 0.23827 0.99156 0.13835 0.0
C679 C 0.27357 0.9785 0.15178 0.0
C680 C 0.20981 0.03523 0.14034 0.0
C681 C 0.27547 1.00518 0.16833 0.0
C682 C 0.24534 0.04731 0.17085 0.0
C683 C 0.19391 0.11251 0.15706 0.0
C684 C 0.17096 0.1328 0.14135 0.0
C685 C 0.21477 0.06438 0.15646 0.0
C686 C 0.16257 0.10199 0.12601 0.0
C687 C 0.18122 0.05326 0.12561 0.0
H688 H 0.02273 0.29042 0.17921 0.0
H689 H 0.07828 0.2478 0.12604 0.0
H690 H 1.00989 0.18821 0.12236 0.0
H691 H 0.92368 0.16572 0.13078 0.0
H692 H 0.86536 0.21183 0.18333 0.0
H693 H 0.94507 0.25174 0.19085 0.0
C694 C 0.02109 0.26607 0.1673 0.0
C695 C 0.05587 0.27269 0.15308 0.0
C696 C 0.98001 0.23372 0.16487 0.0
C697 C 0.05306 0.24194 0.13747 0.0
C698 C 0.01311 0.20872 0.13515 0.0
C699 C 0.92896 0.18327 0.14408 0.0
C700 C 0.8883 0.18721 0.1562 0.0
C701 C 0.9747 0.20685 0.14823 0.0
C702 C 0.89587 0.20898 0.17359 0.0
C703 C 0.94143 0.23207 0.1779 0.0
H704 H 0.87383 0.9343 0.13265 0.0
H705 H 0.82527 0.8769 0.18508 0.0
H706 H 0.78533 0.9563 0.19212 0.0
H707 H 0.74503 0.03142 0.17951 0.0
H708 H 0.79051 0.08688 0.12666 0.0
H709 H 0.8525 0.02067 0.12402 0.0
C710 C 0.85588 0.93978 0.14585 0.0
C711 C 0.85084 0.89925 0.15798 0.0
C712 C 0.8323 0.98547 0.14975 0.0
C713 C 0.82875 0.90717 0.17527 0.0
C714 C 0.80567 0.95261 0.17932 0.0
C715 C 0.77076 0.03065 0.16798 0.0
C716 C 0.7635 0.06385 0.15334 0.0
C717 C 0.8044 0.99071 0.16614 0.0
C718 C 0.79631 0.06238 0.1383 0.0
C719 C 0.83091 0.02361 0.13657 0.0
H720 H 0.09474 0.88727 0.12992 0.0
H721 H 0.14625 0.84113 0.18348 0.0
H722 H 0.06794 0.79642 0.18865 0.0
H723 H 0.99578 0.75306 0.17458 0.0
H724 H 0.94587 0.79692 0.12078 0.0
H725 H 1.01124 0.86083 0.11929 0.0
C726 C 0.08814 0.86882 0.14296 0.0
C727 C 0.12698 0.866 0.15597 0.0
C728 C 0.04321 0.84233 0.14576 0.0
C729 C 0.11743 0.84305 0.17301 0.0
C730 C 0.07265 0.81713 0.17598 0.0
C731 C 0.99776 0.77855 0.16301 0.0
C732 C 0.96604 0.77093 0.14791 0.0
C733 C 0.03675 0.81389 0.16198 0.0
C734 C 0.96927 0.80311 0.13274 0.0
C735 C 1.00728 0.83904 0.13174 0.0
H736 H 0.22413 0.04126 0.39277 0.0
H737 H 0.2852 0.03114 0.33831 0.0
H738 H 0.23048 0.95963 0.33158 0.0
H739 H 0.18284 0.88837 0.34425 0.0
H740 H 0.12783 0.89587 0.39986 0.0
H741 H 0.16121 0.98053 0.40299 0.0
C742 C 0.22313 0.02518 0.37908 0.0
C743 C 0.25794 0.04155 0.36595 0.0
C744 C 0.19365 0.98255 0.37576 0.0
C745 C 0.25783 0.01967 0.34845 0.0
C746 C 0.22721 0.97817 0.34476 0.0
C747 C 0.17668 0.90916 0.35683 0.0
C748 C 0.15419 0.88536 0.372 0.0
C749 C 0.19756 0.95733 0.35876 0.0
C750 C 0.14605 0.91295 0.38814 0.0
C751 C 0.16521 0.96137 0.38995 0.0
H752 H 0.12675 0.17019 0.34051 0.0
H753 H 0.11529 0.13179 0.3979 0.0
H754 H 0.02985 0.16375 0.39868 0.0
H755 H 0.96973 0.22236 0.3854 0.0
H756 H 0.98461 0.26822 0.32912 0.0
H757 H 0.056 0.21209 0.32524 0.0
C758 C 0.10506 0.16743 0.35305 0.0
C759 C 0.128 0.1501 0.36928 0.0
C760 C 0.05634 0.18742 0.35357 0.0
C761 C 0.09905 0.14609 0.38532 0.0
C762 C 0.05008 0.16437 0.38579 0.0
C763 C 0.98634 0.21728 0.37194 0.0
C764 C 0.97181 0.24901 0.35752 0.0
C765 C 0.0296 0.18785 0.3703 0.0
C766 C 0.99474 0.24357 0.34032 0.0
C767 C 0.03638 0.21235 0.33826 0.0
H768 H 0.78523 0.97572 0.39667 0.0
H769 H 0.72441 0.97784 0.34197 0.0
H770 H 0.7771 0.05028 0.33432 0.0
H771 H 0.82568 0.12282 0.34562 0.0
H772 H 0.88191 0.12234 0.40122 0.0
H773 H 0.84707 0.03893 0.406 0.0
C774 C 0.78562 0.99058 0.38281 0.0
C775 C 0.75188 0.97143 0.36978 0.0
C776 C 0.81432 0.03331 0.37885 0.0
C777 C 0.75106 0.99164 0.35204 0.0
C778 C 0.7806 0.03347 0.34779 0.0
C779 C 0.83156 0.10388 0.3586 0.0
C780 C 0.85522 0.12931 0.3732 0.0
C781 C 0.8102 0.05627 0.36143 0.0
C782 C 0.86293 0.10404 0.38988 0.0
C783 C 0.84296 0.05631 0.39264 0.0
H784 H 0.04847 0.78471 0.39209 0.0
H785 H 0.02937 0.72524 0.33764 0.0
H786 H 0.95988 0.78305 0.33211 0.0
H787 H 0.89332 0.83463 0.34569 0.0
H788 H 0.90951 0.88841 0.4013 0.0
H789 H 0.99225 0.85025 0.40329 0.0
C790 C 0.03097 0.78666 0.37865 0.0
C791 C 0.04433 0.75169 0.36514 0.0
C792 C 0.98961 0.81812 0.376 0.0
C793 C 0.02025 0.75276 0.34804 0.0
C794 C 0.98001 0.78523 0.34503 0.0
C795 C 0.91557 0.83939 0.35805 0.0
C796 C 0.89463 0.86316 0.37352 0.0
C797 C 0.96248 0.81577 0.35934 0.0
C798 C 0.92427 0.86944 0.38933 0.0
C799 C 0.97158 0.84747 0.39051 0.0
H800 H 0.80193 0.82849 0.90388 0.0
H801 H 0.79702 0.82126 0.84478 0.0
H802 H 0.77094 0.90887 0.8434 0.0
H803 H 0.74864 0.98715 0.85899 0.0
H804 H 0.74654 0.99292 0.91814 0.0
H805 H 0.77565 0.90616 0.91957 0.0
C806 C 0.7956 0.8464 0.89072 0.0
C807 C 0.80206 0.81886 0.87443 0.0
C808 C 0.7789 0.89627 0.89007 0.0
C809 C 0.79256 0.84192 0.85747 0.0
C810 C 0.77757 0.89191 0.85669 0.0
C811 C 0.75461 0.96942 0.8722 0.0
C812 C 0.74588 0.99651 0.88844 0.0
C813 C 0.77043 0.91938 0.87289 0.0
C814 C 0.75297 0.97281 0.90545 0.0
C815 C 0.76982 0.9233 0.90627 0.0
H816 H 0.03902 0.76129 0.90822 0.0
H817 H 0.03319 0.7 0.8535 0.0
H818 H 0.12139 0.721 0.84884 0.0
H819 H 0.19924 0.75976 0.85965 0.0
H820 H 0.20514 0.82677 0.91352 0.0
H821 H 0.11821 0.8011 0.91911 0.0
C822 C 0.05738 0.75216 0.89539 0.0
C823 C 0.02969 0.72898 0.88124 0.0
C824 C 0.10803 0.7659 0.89256 0.0
C825 C 0.05365 0.71799 0.86456 0.0
C826 C 0.1041 0.73002 0.86188 0.0
C827 C 0.18171 0.76867 0.87267 0.0
C828 C 0.20896 0.7952 0.88614 0.0
C829 C 0.1315 0.75454 0.87567 0.0
C830 C 0.18517 0.80663 0.90285 0.0
C831 C 0.13541 0.7918 0.90609 0.0
H832 H 0.28345 0.20536 0.86109 0.0
H833 H 0.18424 0.18934 0.90749 0.0
H834 H 0.21409 0.10359 0.91216 0.0
H835 H 0.26866 0.0326 0.90285 0.0
H836 H 0.36607 0.05066 0.85602 0.0
H837 H 0.33691 0.13611 0.85193 0.0
C838 C 0.26807 0.18332 0.87225 0.0
C839 C 0.23141 0.20414 0.88389 0.0
C840 C 0.28538 0.13421 0.87486 0.0
C841 C 0.21227 0.1745 0.89825 0.0
C842 C 0.22948 0.12541 0.90096 0.0
C843 C 0.28368 0.05538 0.89183 0.0
C844 C 0.31959 0.03497 0.87975 0.0
C845 C 0.26615 0.10481 0.88936 0.0
C846 C 0.33833 0.06505 0.86548 0.0
C847 C 0.32164 0.11407 0.8631 0.0
H848 H 0.99768 0.26293 0.89908 0.0
H849 H 0.97717 0.36869 0.85503 0.0
H850 H 0.89069 0.34018 0.85096 0.0
H851 H 0.82097 0.28501 0.85983 0.0
H852 H 0.84247 0.17727 0.90328 0.0
H853 H 0.92848 0.20635 0.90747 0.0
C854 C 0.97416 0.27991 0.88867 0.0
C855 C 0.99374 0.31798 0.87742 0.0
C856 C 0.92474 0.26267 0.88617 0.0
C857 C 0.96301 0.33923 0.86384 0.0
C858 C 0.91356 0.32293 0.86149 0.0
C859 C 0.84447 0.26767 0.87016 0.0
C860 C 0.82502 0.22897 0.88121 0.0
C861 C 0.89408 0.28451 0.87252 0.0
C862 C 0.85628 0.20698 0.89451 0.0
C863 C 0.90552 0.22374 0.897 0.0
H864 H 0.79765 0.19417 0.6106 0.0
H865 H 0.80933 0.20338 0.66951 0.0
H866 H 0.77961 0.117 0.67235 0.0
H867 H 0.74722 0.03994 0.65823 0.0
H868 H 0.72871 0.03229 0.59946 0.0
H869 H 0.76346 0.11679 0.59641 0.0
C870 C 0.79444 0.17679 0.624 0.0
C871 C 0.80647 0.20465 0.63982 0.0
C872 C 0.77535 0.12763 0.62556 0.0
C873 C 0.80079 0.18237 0.65715 0.0
C874 C 0.78355 0.13312 0.65878 0.0
C875 C 0.75082 0.05668 0.64474 0.0
C876 C 0.73543 0.02963 0.6291 0.0
C877 C 0.77014 0.10557 0.64311 0.0
C878 C 0.74004 0.05222 0.61175 0.0
C879 C 0.76015 0.10053 0.60998 0.0
H880 H 0.98663 0.8001 0.5988 0.0
H881 H 0.99262 0.67869 0.63765 0.0
H882 H 0.90548 0.69321 0.64611 0.0
H883 H 0.82798 0.7422 0.64323 0.0
H884 H 0.82198 0.86427 0.60451 0.0
H885 H 0.90838 0.84796 0.59541 0.0
C886 C 0.96882 0.77664 0.60905 0.0
C887 C 0.99623 0.73788 0.61742 0.0
C888 C 0.91859 0.78566 0.61402 0.0
C889 C 0.97235 0.70804 0.63071 0.0
C890 C 0.92251 0.71667 0.63569 0.0
C891 C 0.8455 0.7653 0.63281 0.0
C892 C 0.81828 0.8046 0.62467 0.0
C893 C 0.89533 0.75562 0.62754 0.0
C894 C 0.84176 0.83378 0.61106 0.0
C895 C 0.89133 0.82451 0.60582 0.0
H896 H 0.32355 0.97969 0.6283 0.0
H897 H 0.20326 1.00336 0.58963 0.0
H898 H 0.17368 0.91781 0.59442 0.0
H899 H 0.18112 0.83619 0.60985 0.0
H900 H 0.30111 0.81307 0.64878 0.0
H901 H 0.33118 0.89813 0.64365 0.0
C902 C 0.29109 0.96608 0.62081 0.0
C903 C 0.26583 0.99811 0.60858 0.0
C904 C 0.27384 0.91682 0.62377 0.0
C905 C 0.22354 0.97972 0.59913 0.0
C906 C 0.20646 0.93071 0.60189 0.0
C907 C 0.21371 0.84974 0.61728 0.0
C908 C 0.23855 0.81791 0.62973 0.0
C909 C 0.23109 0.89896 0.61426 0.0
C910 C 0.28095 0.83643 0.63914 0.0
C911 C 0.29838 0.8852 0.6362 0.0
H912 H 0.03275 0.26527 0.61182 0.0
H913 H 0.05497 0.37021 0.65617 0.0
H914 H 0.14169 0.34252 0.65959 0.0
H915 H 0.21073 0.28751 0.65039 0.0
H916 H 0.18777 0.18061 0.60664 0.0
H917 H 0.10185 0.20977 0.60274 0.0
C918 C 0.0567 0.28232 0.62214 0.0
C919 C 0.03743 0.31979 0.63371 0.0
C920 C 0.10631 0.26555 0.62427 0.0
C921 C 0.0688 0.34117 0.64713 0.0
C922 C 0.11841 0.32533 0.64911 0.0
C923 C 0.18699 0.27044 0.64001 0.0
C924 C 0.20595 0.2318 0.62885 0.0
C925 C 0.13745 0.28727 0.63785 0.0
C926 C 0.17436 0.21024 0.6155 0.0
C927 C 0.12515 0.22702 0.61319 0.0
H928 H 0.6958 0.62936 0.67195 0.0
H929 H 0.63859 0.6335 0.61652 0.0
H930 H 0.66937 0.54901 0.61111 0.0
H931 H 0.73094 0.48536 0.6195 0.0
H932 H 0.79411 0.48397 0.67385 0.0
H933 H 0.74181 0.55513 0.68258 0.0
C934 C 0.68863 0.61113 0.6589 0.0
C935 C 0.66646 0.63814 0.64445 0.0
C936 C 0.70802 0.56312 0.65567 0.0
C937 C 0.65676 0.61387 0.6277 0.0
C938 C 0.67441 0.56558 0.62458 0.0
C939 C 0.73099 0.49899 0.63354 0.0
C940 C 0.76557 0.47947 0.64611 0.0
C941 C 0.70281 0.54131 0.63807 0.0
C942 C 0.76684 0.49796 0.66412 0.0
C943 C 0.73758 0.5392 0.66898 0.0
H944 H 0.40284 0.68056 0.67389 0.0
H945 H 0.42535 0.63565 0.61757 0.0
H946 H 0.509 0.6728 0.61797 0.0
H947 H 0.56418 0.73608 0.6315 0.0
H948 H 0.53919 0.78715 0.6867 0.0
H949 H 0.46868 0.72884 0.6898 0.0
C950 C 0.42661 0.67748 0.66188 0.0
C951 C 0.40726 0.65658 0.64554 0.0
C952 C 0.47419 0.70048 0.662 0.0
C953 C 0.43885 0.65245 0.6302 0.0
C954 C 0.48673 0.6738 0.6304 0.0
C955 C 0.54564 0.73182 0.64464 0.0
C956 C 0.55757 0.76494 0.65901 0.0
C957 C 0.50347 0.70041 0.64585 0.0
C958 C 0.53139 0.76111 0.67564 0.0
C959 C 0.49043 0.72846 0.67725 0.0
H960 H 0.29935 0.54591 0.61823 0.0
H961 H 0.24622 0.53298 0.67375 0.0
H962 H 0.30492 0.46439 0.67945 0.0
H963 H 0.35479 0.3966 0.66612 0.0
H964 H 0.40187 0.4058 0.60954 0.0
H965 H 0.36375 0.48829 0.60689 0.0
C966 C 0.30265 0.52959 0.63182 0.0
C967 C 0.26928 0.54423 0.64564 0.0
C968 C 0.33466 0.48884 0.63463 0.0
C969 C 0.27238 0.52242 0.66307 0.0
C970 C 0.30542 0.48287 0.66621 0.0
C971 C 0.3581 0.41726 0.65337 0.0
C972 C 0.37964 0.39439 0.63786 0.0
C973 C 0.33436 0.46382 0.65173 0.0
C974 C 0.38444 0.42207 0.62156 0.0
C975 C 0.36246 0.46919 0.62 0.0
H976 H 0.49006 0.2787 0.61298 0.0
H977 H 0.48568 0.23574 0.66985 0.0
H978 H 0.55466 0.29396 0.67674 0.0
H979 H 0.62603 0.34323 0.66507 0.0
H980 H 0.63168 0.38254 0.60761 0.0
H981 H 0.55132 0.34108 0.60252 0.0
C982 C 0.50298 0.28386 0.627 0.0
C983 C 0.48311 0.25377 0.64096 0.0
C984 C 0.54326 0.31615 0.63064 0.0
C985 C 0.50032 0.25939 0.65902 0.0
C986 C 0.53999 0.29221 0.66287 0.0
C987 C 0.60905 0.34395 0.65154 0.0
C988 C 0.63552 0.3647 0.63663 0.0
C989 C 0.56337 0.3188 0.64859 0.0
C990 C 0.61261 0.36597 0.61925 0.0
C991 C 0.5667 0.3421 0.6163 0.0
H992 H 0.67583 0.39923 0.84844 0.0
H993 H 0.63264 0.39874 0.90555 0.0
H994 H 0.67262 0.48008 0.90989 0.0
H995 H 0.73658 0.53963 0.89932 0.0
H996 H 0.78444 0.53771 0.84296 0.0
H997 H 0.7255 0.46937 0.83628 0.0
C998 C 0.67382 0.41756 0.86171 0.0
C999 C 0.65277 0.39221 0.87681 0.0
C1000 C 0.69843 0.46358 0.86426 0.0
C1001 C 0.64962 0.41692 0.8938 0.0
C1002 C 0.67268 0.46337 0.89632 0.0
C1003 C 0.7323 0.52553 0.88542 0.0
C1004 C 0.76415 0.54325 0.87159 0.0
C1005 C 0.69976 0.48538 0.88195 0.0
C1006 C 0.75952 0.52469 0.85368 0.0
C1007 C 0.72629 0.48534 0.84996 0.0
H1008 H 0.47083 0.7268 0.88799 0.0
H1009 H 0.4897 0.789 0.83403 0.0
H1010 H 0.56059 0.73313 0.82841 0.0
H1011 H 0.6288 0.68342 0.84205 0.0
H1012 H 0.61307 0.62757 0.89733 0.0
H1013 H 0.52914 0.66305 0.89916 0.0
C1014 C 0.48857 0.72577 0.8746 0.0
C1015 C 0.47478 0.76126 0.86132 0.0
C1016 C 0.53115 0.69584 0.872 0.0
C1017 C 0.49907 0.76114 0.84426 0.0
C1018 C 0.54029 0.72991 0.84123 0.0
C1019 C 0.60645 0.67769 0.8543 0.0
C1020 C 0.62779 0.65402 0.86972 0.0
C1021 C 0.55864 0.69963 0.85548 0.0
C1022 C 0.59805 0.64653 0.8854 0.0
C1023 C 0.54997 0.66686 0.88647 0.0
H1024 H 0.24892 0.50078 0.83772 0.0
H1025 H 0.29331 0.4531 0.89172 0.0
H1026 H 0.35698 0.51845 0.89301 0.0
H1027 H 0.38231 0.60175 0.88235 0.0
H1028 H 0.33383 0.65291 0.82904 0.0
H1029 H 0.29061 0.57379 0.82372 0.0
C1030 C 0.27458 0.50317 0.84926 0.0
C1031 C 0.26737 0.47172 0.86442 0.0
C1032 C 0.30927 0.54275 0.8503 0.0
C1033 C 0.29954 0.47577 0.87962 0.0
C1034 C 0.3352 0.51398 0.88054 0.0
C1035 C 0.36362 0.59494 0.86934 0.0
C1036 C 0.35975 0.63373 0.85643 0.0
C1037 C 0.33785 0.54969 0.8665 0.0
C1038 C 0.33653 0.62402 0.83942 0.0
C1039 C 0.31151 0.57879 0.83637 0.0
H1040 H 0.54106 0.2798 0.89675 0.0
H1041 H 0.54364 0.23181 0.84039 0.0
H1042 H 0.47343 0.28766 0.83326 0.0
H1043 H 0.40046 0.33374 0.84508 0.0
H1044 H 0.39576 0.37597 0.90225 0.0
H1045 H 0.47886 0.34053 0.907 0.0
C1046 C 0.52771 0.28364 0.88273 0.0
C1047 C 0.54719 0.2526 0.86903 0.0
C1048 C 0.48651 0.31418 0.87903 0.0
C1049 C 0.52927 0.25626 0.851 0.0
C1050 C 0.48887 0.28769 0.84703 0.0
C1051 C 0.4184 0.33671 0.85841 0.0
C1052 C 0.39165 0.35609 0.87343 0.0
C1053 C 0.4654 0.3145 0.8612 0.0
C1054 C 0.41534 0.36017 0.8906 0.0
C1055 C 0.46274 0.33979 0.89334 0.0
H1056 H 0.29329 0.32076 0.40495 0.0
H1057 H 0.30995 0.3199 0.34612 0.0
H1058 H 0.28108 0.40652 0.34455 0.0
H1059 H 0.24878 0.48178 0.35967 0.0
H1060 H 0.22549 0.48192 0.41823 0.0
H1061 H 0.2584 0.39655 0.42014 0.0
C1062 C 0.29129 0.33998 0.39186 0.0
C1063 C 0.30465 0.31432 0.37569 0.0
C1064 C 0.27272 0.38946 0.39099 0.0
C1065 C 0.30048 0.33908 0.35875 0.0
C1066 C 0.2837 0.38852 0.35785 0.0
C1067 C 0.25089 0.46325 0.37288 0.0
C1068 C 0.23483 0.48855 0.38879 0.0
C1069 C 0.26926 0.41395 0.37384 0.0
C1070 C 0.23743 0.46348 0.40574 0.0
C1071 C 0.2565 0.41465 0.40685 0.0
H1072 H 0.54632 0.29614 0.41594 0.0
H1073 H 0.54764 0.17026 0.37874 0.0
H1074 H 0.63611 0.1856 0.37219 0.0
H1075 H 0.71239 0.23607 0.37612 0.0
H1076 H 0.71241 0.36156 0.41347 0.0
H1077 H 0.62437 0.34479 0.4209 0.0
C1078 C 0.56594 0.27189 0.40644 0.0
C1079 C 0.53986 0.23223 0.39775 0.0
C1080 C 0.61715 0.28091 0.40272 0.0
C1081 C 0.56632 0.20117 0.38558 0.0
C1082 C 0.61706 0.20994 0.3818 0.0
C1083 C 0.69334 0.25986 0.38593 0.0
C1084 C 0.71929 0.30038 0.39411 0.0
C1085 C 0.64272 0.24997 0.39014 0.0
C1086 C 0.6937 0.33021 0.40693 0.0
C1087 C 0.64319 0.32067 0.41115 0.0
H1088 H 0.78931 0.7018 0.36299 0.0
H1089 H 0.68563 0.67385 0.40729 0.0
H1090 H 0.72003 0.58972 0.41114 0.0
H1091 H 0.77996 0.5236 0.40188 0.0
H1092 H 0.88137 0.55195 0.35696 0.0
H1093 H 0.84788 0.63629 0.3536 0.0
C1094 C 0.77398 0.6774 0.37349 0.0
C1095 C 0.73473 0.6945 0.38481 0.0
C1096 C 0.79387 0.62901 0.37561 0.0
C1097 C 0.71558 0.66191 0.39829 0.0
C1098 C 0.73543 0.61374 0.40056 0.0
C1099 C 0.79492 0.5484 0.39145 0.0
C1100 C 0.83327 0.53135 0.37971 0.0
C1101 C 0.77472 0.59687 0.38934 0.0
C1102 C 0.85181 0.56387 0.36613 0.0
C1103 C 0.83263 0.6122 0.36419 0.0
H1104 H 0.47734 0.81022 0.38638 0.0
H1105 H 0.50135 0.69759 0.42784 0.0
H1106 H 0.41508 0.6683 0.42422 0.0
H1107 H 0.33273 0.67314 0.40877 0.0
H1108 H 0.3098 0.7852 0.36692 0.0
H1109 H 0.39507 0.81574 0.37124 0.0
C1110 C 0.46366 0.77951 0.39473 0.0
C1111 C 0.49609 0.75628 0.40738 0.0
C1112 C 0.41394 0.76233 0.39244 0.0
C1113 C 0.47749 0.71627 0.41797 0.0
C1114 C 0.42802 0.69936 0.4159 0.0
C1115 C 0.34632 0.70421 0.40058 0.0
C1116 C 0.31444 0.72647 0.38748 0.0
C1117 C 0.39592 0.72179 0.40306 0.0
C1118 C 0.33313 0.76688 0.37706 0.0
C1119 C 0.38209 0.78461 0.37952 0.0
H1120 H 0.3279 0.69146 0.10445 0.0
H1121 H 0.22602 0.7091 0.15003 0.0
H1122 H 0.19461 0.62434 0.14534 0.0
H1123 H 0.19704 0.54458 0.12884 0.0
H1124 H 0.29823 0.52612 0.08323 0.0
H1125 H 0.32898 0.61165 0.08748 0.0
C1126 C 0.29884 0.67683 0.11337 0.0
C1127 C 0.2796 0.70688 0.12761 0.0
C1128 C 0.28075 0.62781 0.11062 0.0
C1129 C 0.24178 0.68706 0.13899 0.0
C1130 C 0.22367 0.63847 0.13632 0.0
C1131 C 0.2253 0.55934 0.11966 0.0
C1132 C 0.24492 0.52889 0.10566 0.0
C1133 C 0.24293 0.60849 0.12222 0.0
C1134 C 0.28233 0.54862 0.09412 0.0
C1135 C 0.3 0.59758 0.09655 0.0
H1136 H 0.48321 0.29412 0.09308 0.0
H1137 H 0.47805 0.16835 0.13027 0.0
H1138 H 0.38974 0.18428 0.13629 0.0
H1139 H 0.31524 0.23568 0.13219 0.0
H1140 H 0.31908 0.3619 0.09524 0.0
H1141 H 0.40651 0.34352 0.08778 0.0
C1142 C 0.46273 0.27008 0.10244 0.0
C1143 C 0.48751 0.23042 0.11134 0.0
C1144 C 0.41172 0.27946 0.1059 0.0
C1145 C 0.4602 0.19942 0.12334 0.0
C1146 C 0.4096 0.20844 0.12679 0.0
C1147 C 0.33498 0.25918 0.12243 0.0
C1148 C 0.31059 0.30045 0.11443 0.0
C1149 C 0.38519 0.24867 0.11833 0.0
C1150 C 0.33682 0.32998 0.10165 0.0
C1151 C 0.38692 0.31959 0.09742 0.0
H1152 H 0.72579 0.48383 0.09051 0.0
H1153 H 0.82926 0.49719 0.13582 0.0
H1154 H 0.81568 0.40997 0.14377 0.0
H1155 H 0.77202 0.33063 0.13888 0.0
H1156 H 0.66551 0.31629 0.09449 0.0
H1157 H 0.68233 0.4028 0.08532 0.0
C1158 C 0.74556 0.46754 0.10205 0.0
C1159 C 0.77953 0.49708 0.11227 0.0
C1160 C 0.73663 0.4171 0.10685 0.0
C1161 C 0.80437 0.47527 0.12729 0.0
C1162 C 0.79608 0.42534 0.13202 0.0
C1163 C 0.7525 0.34617 0.12714 0.0
C1164 C 0.71738 0.31672 0.11746 0.0
C1165 C 0.76208 0.39599 0.122 0.0
C1166 C 0.69269 0.33789 0.10225 0.0
C1167 C 0.70226 0.38748 0.09699 0.0
H1168 H 0.52441 0.7619 0.15095 0.0
H1169 H 0.52445 0.7978 0.09325 0.0
H1170 H 0.61208 0.77123 0.09089 0.0
H1171 H 0.68981 0.73906 0.10561 0.0
H1172 H 0.68949 0.70976 0.16379 0.0
H1173 H 0.60089 0.73168 0.16555 0.0
C1174 C 0.54345 0.76375 0.13782 0.0
C1175 C 0.51781 0.78154 0.12229 0.0
C1176 C 0.59386 0.74923 0.13665 0.0
C1177 C 0.54335 0.78429 0.10544 0.0
C1178 C 0.59342 0.76894 0.10407 0.0
C1179 C 0.66994 0.73695 0.11856 0.0
C1180 C 0.69576 0.72235 0.13452 0.0
C1181 C 0.61916 0.75136 0.1196 0.0
C1182 C 0.67015 0.72072 0.15134 0.0
C1183 C 0.61958 0.73337 0.15237 0.0
H1184 H 0.30788 0.14864 0.26497 0.0
H1185 H 0.2632 0.26832 0.30128 0.0
H1186 H 0.23256 0.31613 0.27519 0.0
H1187 H 0.22139 0.32581 0.24197 0.0
H1188 H 0.26938 0.20768 0.20554 0.0
H1189 H 0.29538 0.15773 0.23177 0.0
C1190 C 0.29134 0.18515 0.26722 0.0
C1191 C 0.2875 0.20431 0.28519 0.0
C1192 C 0.27431 0.21293 0.2521 0.0
C1193 C 0.26576 0.25174 0.28776 0.0
C1194 C 0.24858 0.2795 0.27278 0.0
C1195 C 0.23743 0.28908 0.23972 0.0
C1196 C 0.24277 0.27064 0.22171 0.0
C1197 C 0.25305 0.26064 0.25488 0.0
C1198 C 0.26355 0.22277 0.21916 0.0
C1199 C 0.27899 0.1942 0.23419 0.0
H1200 H 0.83265 0.32691 0.26868 0.0
H1201 H 0.73627 0.2401 0.30413 0.0
H1202 H 0.69333 0.20531 0.27734 0.0
H1203 H 0.6809 0.20208 0.24376 0.0
H1204 H 0.77679 0.29075 0.20871 0.0
H1205 H 0.82186 0.32216 0.23542 0.0
C1206 C 0.80232 0.30027 0.2706 0.0
C1207 C 0.78804 0.2861 0.28845 0.0
C1208 C 0.77747 0.28079 0.25516 0.0
C1209 C 0.74884 0.25118 0.29061 0.0
C1210 C 0.72387 0.23157 0.27526 0.0
C1211 C 0.71169 0.22827 0.24198 0.0
C1212 C 0.7256 0.2435 0.22418 0.0
C1213 C 0.73753 0.2465 0.25747 0.0
C1214 C 0.76575 0.27737 0.22213 0.0
C1215 C 0.79141 0.29575 0.23745 0.0
H1216 H 0.69898 0.83337 0.27066 0.0
H1217 H 0.79135 0.74695 0.30764 0.0
H1218 H 0.83191 0.70714 0.28163 0.0
H1219 H 0.84052 0.69537 0.24829 0.0
H1220 H 0.74405 0.77821 0.21163 0.0
H1221 H 0.70611 0.82035 0.23761 0.0
C1222 C 0.72795 0.80581 0.27314 0.0
C1223 C 0.74229 0.79418 0.29126 0.0
C1224 C 0.75064 0.78214 0.2581 0.0
C1225 C 0.78005 0.75817 0.294 0.0
C1226 C 0.8031 0.73476 0.27906 0.0
C1227 C 0.81115 0.72259 0.24595 0.0
C1228 C 0.79625 0.7341 0.22788 0.0
C1229 C 0.78861 0.74636 0.26105 0.0
C1230 C 0.75784 0.76943 0.22522 0.0
C1231 C 0.73555 0.79336 0.24014 0.0
H1232 H 0.18249 0.69552 0.2684 0.0
H1233 H 0.2756 0.7803 0.30585 0.0
H1234 H 0.31683 0.821 0.28003 0.0
H1235 H 0.32847 0.83092 0.24674 0.0
H1236 H 0.2372 0.74369 0.20944 0.0
H1237 H 0.19358 0.70584 0.23526 0.0
C1238 C 0.21177 0.72294 0.27097 0.0
C1239 C 0.22527 0.735 0.28915 0.0
C1240 C 0.23588 0.74588 0.25604 0.0
C1241 C 0.2633 0.77084 0.29212 0.0
C1242 C 0.28739 0.79391 0.27731 0.0
C1243 C 0.29901 0.80364 0.24424 0.0
C1244 C 0.2859 0.79089 0.22608 0.0
C1245 C 0.2742 0.78149 0.25921 0.0
C1246 C 0.24751 0.75542 0.22316 0.0
C1247 C 0.22272 0.73329 0.23797 0.0
H1248 H 0.75538 0.72516 0.72016 0.0
H1249 H 0.68509 0.84661 0.74951 0.0
H1250 H 0.70854 0.80874 0.77863 0.0
H1251 H 0.75349 0.7443 0.79584 0.0
H1252 H 0.82284 0.62211 0.76661 0.0
H1253 H 0.79489 0.65721 0.73752 0.0
C1254 C 0.74409 0.74294 0.73286 0.0
C1255 C 0.71827 0.78885 0.73247 0.0
C1256 C 0.75789 0.72103 0.74971 0.0
C1257 C 0.70526 0.81151 0.74926 0.0
C1258 C 0.71859 0.78983 0.766 0.0
C1259 C 0.76162 0.72449 0.78322 0.0
C1260 C 0.79024 0.68028 0.78361 0.0
C1261 C 0.74555 0.74496 0.76641 0.0
C1262 C 0.8012 0.65632 0.76686 0.0
C1263 C 0.78515 0.67633 0.75014 0.0
H1264 H 0.33724 0.83608 0.76648 0.0
H1265 H 0.24343 0.75126 0.80356 0.0
H1266 H 0.20749 0.70573 0.7778 0.0
H1267 H 0.20226 0.68962 0.74486 0.0
H1268 H 0.29233 0.77751 0.70748 0.0
H1269 H 0.32997 0.82165 0.73325 0.0
C1270 C 0.30878 0.80778 0.76895 0.0
C1271 C 0.29406 0.79664 0.78706 0.0
C1272 C 0.2876 0.78192 0.75401 0.0
C1273 C 0.25692 0.75985 0.78992 0.0
C1274 C 0.23586 0.73395 0.77514 0.0
C1275 C 0.23005 0.71848 0.74226 0.0
C1276 C 0.24478 0.7292 0.72412 0.0
C1277 C 0.25105 0.74453 0.75715 0.0
C1278 C 0.28094 0.76695 0.72118 0.0
C1279 C 0.30226 0.79281 0.73596 0.0
H1280 H 0.2104 0.3435 0.7651 0.0
H1281 H 0.30197 0.25688 0.80229 0.0
H1282 H 0.34604 0.22042 0.77643 0.0
H1283 H 0.35707 0.21047 0.74327 0.0
H1284 H 0.26153 0.29272 0.70608 0.0
H1285 H 0.22112 0.33322 0.73194 0.0
C1286 C 0.24002 0.31669 0.76763 0.0
C1287 C 0.25297 0.30389 0.7858 0.0
C1288 C 0.26476 0.29484 0.75264 0.0
C1289 C 0.29163 0.26892 0.78864 0.0
C1290 C 0.31672 0.24745 0.77378 0.0
C1291 C 0.32745 0.23729 0.74074 0.0
C1292 C 0.31328 0.24873 0.72257 0.0
C1293 C 0.30338 0.25988 0.75573 0.0
C1294 C 0.27466 0.28374 0.71973 0.0
C1295 C 0.25093 0.30673 0.73459 0.0
H1296 H 0.67601 0.21643 0.76793 0.0
H1297 H 0.75763 0.30994 0.8063 0.0
H1298 H 0.79465 0.35577 0.78102 0.0
H1299 H 0.80647 0.36823 0.74801 0.0
H1300 H 0.73039 0.26976 0.70978 0.0
H1301 H 0.68909 0.22773 0.73502 0.0
C1302 C 0.70186 0.24684 0.77088 0.0
C1303 C 0.71285 0.25973 0.78922 0.0
C1304 C 0.72432 0.27255 0.75622 0.0
C1305 C 0.74673 0.29941 0.79254 0.0
C1306 C 0.76862 0.32561 0.77799 0.0
C1307 C 0.78083 0.33763 0.7451 0.0
C1308 C 0.77124 0.3234 0.72678 0.0
C1309 C 0.75789 0.31233 0.75978 0.0
C1310 C 0.73785 0.28329 0.7235 0.0
C1311 C 0.71439 0.25852 0.73803 0.0
H1312 H 0.98804 0.41961 0.13448 0.0
H1313 H 0.13691 0.48066 0.13699 0.0
H1314 H 0.10522 0.5634 0.1284 0.0
H1315 H 0.03373 0.61961 0.12482 0.0
H1316 H 0.88708 0.56331 0.13772 0.0
H1317 H 0.91736 0.47719 0.13531 0.0
C1318 C 0.01369 0.45087 0.13277 0.0
C1319 C 0.06571 0.44334 0.13444 0.0
C1320 C 0.99432 0.49913 0.13053 0.0
C1321 C 0.098 0.48456 0.13329 0.0
C1322 C 0.07936 0.5321 0.12919 0.0
C1323 C 1.00804 0.58841 0.12659 0.0
C1324 C 0.95663 0.59748 0.12954 0.0
C1325 C 0.02741 0.53991 0.12812 0.0
C1326 C 0.92471 0.5569 0.13297 0.0
C1327 C 0.9428 0.5079 0.13246 0.0
H1328 H 0.42672 1.01037 0.1108 0.0
H1329 H 0.46286 0.88516 0.14554 0.0
H1330 H 0.54947 0.91395 0.14785 0.0
H1331 H 0.60876 0.9829 0.14505 0.0
H1332 H 0.5775 0.10474 0.10837 0.0
H1333 H 0.49421 0.07044 0.10215 0.0
C1334 C 0.45424 0.98849 0.11824 0.0
C1335 C 0.4389 0.94534 0.12777 0.0
C1336 C 0.5037 1.00618 0.11994 0.0
C1337 C 0.47433 0.91746 0.1376 0.0
C1338 C 0.52357 0.9346 0.13926 0.0
C1339 C 0.58422 1.00201 0.13549 0.0
C1340 C 0.59756 0.04947 0.12853 0.0
C1341 C 0.5378 0.98022 0.13126 0.0
C1342 C 0.56604 0.07169 0.11551 0.0
C1343 C 0.51898 0.05092 0.1115 0.0
H1344 H 0.1149 0.54758 0.38106 0.0
H1345 H 0.98861 0.61921 0.40636 0.0
H1346 H 0.9448 0.53883 0.40858 0.0
H1347 H 0.93828 0.44969 0.39862 0.0
H1348 H 0.06698 0.38177 0.37311 0.0
H1349 H 0.11503 0.45703 0.37727 0.0
C1350 C 0.07951 0.54516 0.38825 0.0
C1351 C 0.05565 0.58905 0.39378 0.0
C1352 C 0.0542 0.49905 0.38918 0.0
C1353 C 1.00801 0.58563 0.40207 0.0
C1354 C 0.98266 0.53971 0.4032 0.0
C1355 C 0.97622 0.45174 0.39374 0.0
C1356 C 0.9968 0.41094 0.38428 0.0
C1357 C 1.00439 0.4964 0.39587 0.0
C1358 C 0.04833 0.41297 0.37965 0.0
C1359 C 0.07652 0.45628 0.38203 0.0
H1360 H 0.59925 0.01229 0.40658 0.0
H1361 H 0.55646 0.87906 0.37689 0.0
H1362 H 0.47021 0.9083 0.37529 0.0
H1363 H 0.41127 0.9764 0.37788 0.0
H1364 H 0.44981 0.11029 0.40771 0.0
H1365 H 0.53472 0.07745 0.41298 0.0
C1366 C 0.57056 0.98901 0.40029 0.0
C1367 C 0.58397 0.94263 0.39236 0.0
C1368 C 0.5213 1.00742 0.39863 0.0
C1369 C 0.54679 0.9134 0.38391 0.0
C1370 C 0.49768 0.93085 0.38257 0.0
C1371 C 0.43775 0.99864 0.38576 0.0
C1372 C 0.4251 0.04759 0.39141 0.0
C1373 C 0.48516 0.9785 0.38925 0.0
C1374 C 0.4599 0.07468 0.40191 0.0
C1375 C 0.50792 0.05508 0.40533 0.0
H1376 H 0.10381 0.53208 0.86848 0.0
H1377 H 0.07954 0.41134 0.90662 0.0
H1378 H 0.99544 0.44414 0.91341 0.0
H1379 H 0.92727 0.50597 0.90674 0.0
H1380 H 0.95706 0.62608 0.8688 0.0
H1381 H 0.04231 0.59686 0.86468 0.0
C1382 C 0.08065 0.51281 0.87849 0.0
C1383 C 0.09705 0.46754 0.88633 0.0
C1384 C 0.03396 0.53311 0.88279 0.0
C1385 C 0.06654 0.44409 0.89944 0.0
C1386 C 0.01895 0.46366 0.90362 0.0
C1387 C 0.95313 0.52646 0.89804 0.0
C1388 C 0.93654 0.56972 0.88872 0.0
C1389 C 1.00193 0.50785 0.89511 0.0
C1390 C 0.96976 0.59498 0.87704 0.0
C1391 C 0.01814 0.5773 0.87427 0.0
H1392 H 0.50915 0.09756 0.90624 0.0
H1393 H 0.63814 0.06011 0.87358 0.0
H1394 H 0.61205 0.973 0.87264 0.0
H1395 H 0.546 0.91237 0.87603 0.0
H1396 H 0.41338 0.94634 0.90718 0.0
H1397 H 0.44597 0.03098 0.91321 0.0
C1398 C 0.53222 0.06977 0.89948 0.0
C1399 C 0.57704 0.08466 0.89073 0.0
C1400 C 0.51487 0.02011 0.89793 0.0
C1401 C 0.60579 0.0489 0.88151 0.0
C1402 C 0.58987 0.99936 0.88048 0.0
C1403 C 0.52403 0.93769 0.8844 0.0
C1404 C 0.47544 0.92406 0.89018 0.0
C1405 C 0.54358 0.9852 0.88798 0.0
C1406 C 0.44882 0.95725 0.90138 0.0
C1407 C 0.46815 1.00519 0.90514 0.0
H1408 H 0.10939 0.5008 0.60932 0.0
H1409 H 0.07193 0.62267 0.64559 0.0
H1410 H 0.98589 0.59222 0.64757 0.0
H1411 H 0.92367 0.52931 0.64093 0.0
H1412 H 0.95506 0.40922 0.60327 0.0
H1413 H 0.04194 0.43987 0.60012 0.0
C1414 C 0.0818 0.52145 0.61715 0.0
C1415 C 0.09653 0.56498 0.62684 0.0
C1416 C 0.03207 0.50339 0.61833 0.0
C1417 C 0.06102 0.59058 0.63738 0.0
C1418 C 1.01204 0.5727 0.63875 0.0
C1419 C 0.94911 0.50977 0.63181 0.0
C1420 C 0.93339 0.4656 0.62288 0.0
C1421 C 0.99751 0.52893 0.62953 0.0
C1422 C 0.967 0.44146 0.61108 0.0
C1423 C 0.01629 0.45974 0.60902 0.0
H1424 H 0.48368 0.91779 0.6455 0.0
H1425 H 0.61024 0.9414 0.61005 0.0
H1426 H 0.57701 0.02296 0.60098 0.0
H1427 H 0.51576 0.09139 0.60653 0.0
H1428 H 0.38712 0.06245 0.64079 0.0
H1429 H 0.41547 0.97718 0.64596 0.0
C1430 C 0.50417 0.94024 0.63562 0.0
C1431 C 0.55216 0.92543 0.62967 0.0
C1432 C 0.48333 0.98553 0.62991 0.0
C1433 C 0.57633 0.95425 0.61628 0.0
C1434 C 0.55629 1.00021 0.61069 0.0
C1435 C 0.49319 0.0657 0.61459 0.0
C1436 C 0.44918 0.08289 0.62313 0.0
C1437 C 0.51065 0.01705 0.61801 0.0
C1438 C 0.42031 0.04968 0.63367 0.0
C1439 C 0.43708 1.0012 0.63694 0.0
loop_
_geom_bond_atom_site_label_1
_geom_bond_atom_site_label_2
_geom_bond_distance
_geom_bond_site_symmetry_2
_ccdc_geom_bond_type
Zn0 N4 2.020 . S
Zn0 O8 2.019 . S
Zn0 N10 2.119 . S
Zn0 O18 1.975 . S
C1 N2 1.334 . S
C1 N5 1.336 . S
N2 C1 1.334 . S
N2 C3 1.334 . S
C3 N2 1.334 . S
C3 N4 1.336 . S
N4 Zn0 2.020 . S
N4 C3 1.336 . S
N4 N5 1.354 . S
N5 C1 1.336 . S
N5 N4 1.354 . S
N5 Zn9 2.020 . S
C6 O7 1.244 . S
C6 O30 1.257 . S
O7 C6 1.244 . S
O8 Zn0 2.019 . S
O8 C28 1.257 . S
Zn9 N5 2.020 . S
Zn9 O16 1.975 . S
Zn9 N25 2.119 . S
Zn9 O30 2.019 . S
N10 Zn0 2.119 . S
N10 C12 1.334 . S
N10 C13 1.328 . S
C11 C12 1.391 . S
C11 N14 1.329 . S
C11 H32 0.930 . S
C12 N10 1.334 . S
C12 C11 1.391 . S
C12 H19 0.930 . S
C13 N10 1.328 . S
C13 C15 1.392 . S
C13 H20 0.930 . S
N14 C11 1.329 . S
N14 C15 1.331 . S
C15 C13 1.392 . S
C15 N14 1.331 . S
O16 Zn9 1.975 . S
O16 C17 1.252 . S
C17 O16 1.252 . S
C17 O18 1.252 . S
O18 Zn0 1.975 . S
O18 C17 1.252 . S
H19 C12 0.930 . S
H20 C13 0.930 . S
C21 C22 1.392 . S
C21 N25 1.328 . S
C21 H27 0.930 . S
C22 C21 1.392 . S
C22 N26 1.331 . S
C23 C24 1.391 . S
C23 N26 1.329 . S
C23 H33 0.930 . S
C24 C23 1.391 . S
C24 N25 1.334 . S
C24 H31 0.930 . S
N25 Zn9 2.119 . S
N25 C21 1.328 . S
N25 C24 1.334 . S
N26 C22 1.331 . S
N26 C23 1.329 . S
H27 C21 0.930 . S
C28 O8 1.257 . S
C28 O29 1.244 . S
O29 C28 1.244 . S
O30 C6 1.257 . S
O30 Zn9 2.019 . S
H31 C24 0.930 . S
H32 C11 0.930 . S
H33 C23 0.930 . S
Zn34 N38 2.020 . S
Zn34 O42 2.019 . S
Zn34 N44 2.119 . S
Zn34 O52 1.975 . S
C35 N36 1.334 . S
C35 N39 1.336 . S
N36 C35 1.334 . S
N36 C37 1.334 . S
C37 N36 1.334 . S
C37 N38 1.336 . S
N38 Zn34 2.020 . S
N38 C37 1.336 . S
N38 N39 1.354 . S
N39 C35 1.336 . S
N39 N38 1.354 . S
N39 Zn43 2.020 . S
C40 O41 1.244 . S
C40 O64 1.257 . S
O41 C40 1.244 . S
O42 Zn34 2.019 . S
O42 C62 1.257 . S
Zn43 N39 2.020 . S
Zn43 O50 1.975 . S
Zn43 N59 2.119 . S
Zn43 O64 2.019 . S
N44 Zn34 2.119 . S
N44 C46 1.334 . S
N44 C47 1.328 . S
C45 C46 1.391 . S
C45 N48 1.329 . S
C45 H66 0.930 . S
C46 N44 1.334 . S
C46 C45 1.391 . S
C46 H53 0.930 . S
C47 N44 1.328 . S
C47 C49 1.392 . S
C47 H54 0.930 . S
N48 C45 1.329 . S
N48 C49 1.331 . S
C49 C47 1.392 . S
C49 N48 1.331 . S
O50 Zn43 1.975 . S
O50 C51 1.252 . S
C51 O50 1.252 . S
C51 O52 1.252 . S
O52 Zn34 1.975 . S
O52 C51 1.252 . S
H53 C46 0.930 . S
H54 C47 0.930 . S
C55 C56 1.392 . S
C55 N59 1.328 . S
C55 H61 0.930 . S
C56 C55 1.392 . S
C56 N60 1.331 . S
C57 C58 1.391 . S
C57 N60 1.329 . S
C57 H67 0.930 . S
C58 C57 1.391 . S
C58 N59 1.334 . S
C58 H65 0.930 . S
N59 Zn43 2.119 . S
N59 C55 1.328 . S
N59 C58 1.334 . S
N60 C56 1.331 . S
N60 C57 1.329 . S
H61 C55 0.930 . S
C62 O42 1.257 . S
C62 O63 1.244 . S
O63 C62 1.244 . S
O64 C40 1.257 . S
O64 Zn43 2.019 . S
H65 C58 0.930 . S
H66 C45 0.930 . S
H67 C57 0.930 . S
Zn68 N72 2.020 . S
Zn68 O76 2.019 . S
Zn68 N78 2.119 . S
Zn68 O86 1.975 . S
C69 N70 1.334 . S
C69 N73 1.336 . S
N70 C69 1.334 . S
N70 C71 1.334 . S
C71 N70 1.334 . S
C71 N72 1.336 . S
N72 Zn68 2.020 . S
N72 C71 1.336 . S
N72 N73 1.354 . S
N73 C69 1.336 . S
N73 N72 1.354 . S
N73 Zn77 2.020 . S
C74 O75 1.244 . S
C74 O98 1.257 . S
O75 C74 1.244 . S
O76 Zn68 2.019 . S
O76 C96 1.257 . S
Zn77 N73 2.020 . S
Zn77 O84 1.975 . S
Zn77 N93 2.119 . S
Zn77 O98 2.019 . S
N78 Zn68 2.119 . S
N78 C80 1.334 . S
N78 C81 1.328 . S
C79 C80 1.391 . S
C79 N82 1.329 . S
C79 H100 0.930 . S
C80 N78 1.334 . S
C80 C79 1.391 . S
C80 H87 0.930 . S
C81 N78 1.328 . S
C81 C83 1.392 . S
C81 H88 0.930 . S
N82 C79 1.329 . S
N82 C83 1.331 . S
C83 C81 1.392 . S
C83 N82 1.331 . S
O84 Zn77 1.975 . S
O84 C85 1.252 . S
C85 O84 1.252 . S
C85 O86 1.252 . S
O86 Zn68 1.975 . S
O86 C85 1.252 . S
H87 C80 0.930 . S
H88 C81 0.930 . S
C89 C90 1.392 . S
C89 N93 1.328 . S
C89 H95 0.930 . S
C90 C89 1.392 . S
C90 N94 1.331 . S
C91 C92 1.391 . S
C91 N94 1.329 . S
C91 H101 0.930 . S
C92 C91 1.391 . S
C92 N93 1.334 . S
C92 H99 0.930 . S
N93 Zn77 2.119 . S
N93 C89 1.328 . S
N93 C92 1.334 . S
N94 C90 1.331 . S
N94 C91 1.329 . S
H95 C89 0.930 . S
C96 O76 1.257 . S
C96 O97 1.244 . S
O97 C96 1.244 . S
O98 C74 1.257 . S
O98 Zn77 2.019 . S
H99 C92 0.930 . S
H100 C79 0.930 . S
H101 C91 0.930 . S
Zn102 N106 2.020 . S
Zn102 O110 2.019 . S
Zn102 N112 2.119 . S
Zn102 O120 1.975 . S
C103 N104 1.334 . S
C103 N107 1.336 . S
N104 C103 1.334 . S
N104 C105 1.334 . S
C105 N104 1.334 . S
C105 N106 1.336 . S
N106 Zn102 2.020 . S
N106 C105 1.336 . S
N106 N107 1.354 . S
N107 C103 1.336 . S
N107 N106 1.354 . S
N107 Zn111 2.020 . S
C108 O109 1.244 . S
C108 O132 1.257 . S
O109 C108 1.244 . S
O110 Zn102 2.019 . S
O110 C130 1.257 . S
Zn111 N107 2.020 . S
Zn111 O118 1.975 . S
Zn111 N127 2.119 . S
Zn111 O132 2.019 . S
N112 Zn102 2.119 . S
N112 C114 1.334 . S
N112 C115 1.328 . S
C113 C114 1.391 . S
C113 N116 1.329 . S
C113 H134 0.930 . S
C114 N112 1.334 . S
C114 C113 1.391 . S
C114 H121 0.930 . S
C115 N112 1.328 . S
C115 C117 1.392 . S
C115 H122 0.930 . S
N116 C113 1.329 . S
N116 C117 1.331 . S
C117 C115 1.392 . S
C117 N116 1.331 . S
O118 Zn111 1.975 . S
O118 C119 1.252 . S
C119 O118 1.252 . S
C119 O120 1.252 . S
O120 Zn102 1.975 . S
O120 C119 1.252 . S
H121 C114 0.930 . S
H122 C115 0.930 . S
C123 C124 1.392 . S
C123 N127 1.328 . S
C123 H129 0.930 . S
C124 C123 1.392 . S
C124 N128 1.331 . S
C125 C126 1.391 . S
C125 N128 1.329 . S
C125 H135 0.930 . S
C126 C125 1.391 . S
C126 N127 1.334 . S
C126 H133 0.930 . S
N127 Zn111 2.119 . S
N127 C123 1.328 . S
N127 C126 1.334 . S
N128 C124 1.331 . S
N128 C125 1.329 . S
H129 C123 0.930 . S
C130 O110 1.257 . S
C130 O131 1.244 . S
O131 C130 1.244 . S
O132 C108 1.257 . S
O132 Zn111 2.019 . S
H133 C126 0.930 . S
H134 C113 0.930 . S
H135 C125 0.930 . S
Zn136 N140 2.020 . S
Zn136 O144 2.019 . S
Zn136 N146 2.119 . S
Zn136 O154 1.975 . S
C137 N138 1.334 . S
C137 N141 1.336 . S
N138 C137 1.334 . S
N138 C139 1.334 . S
C139 N138 1.334 . S
C139 N140 1.336 . S
N140 Zn136 2.020 . S
N140 C139 1.336 . S
N140 N141 1.354 . S
N141 C137 1.336 . S
N141 N140 1.354 . S
N141 Zn145 2.020 . S
C142 O143 1.244 . S
C142 O166 1.257 . S
O143 C142 1.244 . S
O144 Zn136 2.019 . S
O144 C164 1.257 . S
Zn145 N141 2.020 . S
Zn145 O152 1.975 . S
Zn145 N161 2.119 . S
Zn145 O166 2.019 . S
N146 Zn136 2.119 . S
N146 C148 1.334 . S
N146 C149 1.328 . S
C147 C148 1.391 . S
C147 N150 1.329 . S
C147 H168 0.930 . S
C148 N146 1.334 . S
C148 C147 1.391 . S
C148 H155 0.930 . S
C149 N146 1.328 . S
C149 C151 1.392 . S
C149 H156 0.930 . S
N150 C147 1.329 . S
N150 C151 1.331 . S
C151 C149 1.392 . S
C151 N150 1.331 . S
O152 Zn145 1.975 . S
O152 C153 1.252 . S
C153 O152 1.252 . S
C153 O154 1.252 . S
O154 Zn136 1.975 . S
O154 C153 1.252 . S
H155 C148 0.930 . S
H156 C149 0.930 . S
C157 C158 1.392 . S
C157 N161 1.328 . S
C157 H163 0.930 . S
C158 C157 1.392 . S
C158 N162 1.331 . S
C159 C160 1.391 . S
C159 N162 1.329 . S
C159 H169 0.930 . S
C160 C159 1.391 . S
C160 N161 1.334 . S
C160 H167 0.930 . S
N161 Zn145 2.119 . S
N161 C157 1.328 . S
N161 C160 1.334 . S
N162 C158 1.331 . S
N162 C159 1.329 . S
H163 C157 0.930 . S
C164 O144 1.257 . S
C164 O165 1.244 . S
O165 C164 1.244 . S
O166 C142 1.257 . S
O166 Zn145 2.019 . S
H167 C160 0.930 . S
H168 C147 0.930 . S
H169 C159 0.930 . S
Zn170 N174 2.020 . S
Zn170 O178 2.019 . S
Zn170 N180 2.119 . S
Zn170 O188 1.975 . S
C171 N172 1.334 . S
C171 N175 1.336 . S
N172 C171 1.334 . S
N172 C173 1.334 . S
C173 N172 1.334 . S
C173 N174 1.336 . S
N174 Zn170 2.020 . S
N174 C173 1.336 . S
N174 N175 1.354 . S
N175 C171 1.336 . S
N175 N174 1.354 . S
N175 Zn179 2.020 . S
C176 O177 1.244 . S
C176 O200 1.257 . S
O177 C176 1.244 . S
O178 Zn170 2.019 . S
O178 C198 1.257 . S
Zn179 N175 2.020 . S
Zn179 O186 1.975 . S
Zn179 N195 2.119 . S
Zn179 O200 2.019 . S
N180 Zn170 2.119 . S
N180 C182 1.334 . S
N180 C183 1.328 . S
C181 C182 1.391 . S
C181 N184 1.329 . S
C181 H202 0.930 . S
C182 N180 1.334 . S
C182 C181 1.391 . S
C182 H189 0.930 . S
C183 N180 1.328 . S
C183 C185 1.392 . S
C183 H190 0.930 . S
N184 C181 1.329 . S
N184 C185 1.331 . S
C185 C183 1.392 . S
C185 N184 1.331 . S
O186 Zn179 1.975 . S
O186 C187 1.252 . S
C187 O186 1.252 . S
C187 O188 1.252 . S
O188 Zn170 1.975 . S
O188 C187 1.252 . S
H189 C182 0.930 . S
H190 C183 0.930 . S
C191 C192 1.392 . S
C191 N195 1.328 . S
C191 H197 0.930 . S
C192 C191 1.392 . S
C192 N196 1.331 . S
C193 C194 1.391 . S
C193 N196 1.329 . S
C193 H203 0.930 . S
C194 C193 1.391 . S
C194 N195 1.334 . S
C194 H201 0.930 . S
N195 Zn179 2.119 . S
N195 C191 1.328 . S
N195 C194 1.334 . S
N196 C192 1.331 . S
N196 C193 1.329 . S
H197 C191 0.930 . S
C198 O178 1.257 . S
C198 O199 1.244 . S
O199 C198 1.244 . S
O200 C176 1.257 . S
O200 Zn179 2.019 . S
H201 C194 0.930 . S
H202 C181 0.930 . S
H203 C193 0.930 . S
Zn204 N208 2.020 . S
Zn204 O212 2.019 . S
Zn204 N214 2.119 . S
Zn204 O222 1.975 . S
C205 N206 1.334 . S
C205 N209 1.336 . S
N206 C205 1.334 . S
N206 C207 1.334 . S
C207 N206 1.334 . S
C207 N208 1.336 . S
N208 Zn204 2.020 . S
N208 C207 1.336 . S
N208 N209 1.354 . S
N209 C205 1.336 . S
N209 N208 1.354 . S
N209 Zn213 2.020 . S
C210 O211 1.244 . S
C210 O234 1.257 . S
O211 C210 1.244 . S
O212 Zn204 2.019 . S
O212 C232 1.257 . S
Zn213 N209 2.020 . S
Zn213 O220 1.975 . S
Zn213 N229 2.119 . S
Zn213 O234 2.019 . S
N214 Zn204 2.119 . S
N214 C216 1.334 . S
N214 C217 1.328 . S
C215 C216 1.391 . S
C215 N218 1.329 . S
C215 H236 0.930 . S
C216 N214 1.334 . S
C216 C215 1.391 . S
C216 H223 0.930 . S
C217 N214 1.328 . S
C217 C219 1.392 . S
C217 H224 0.930 . S
N218 C215 1.329 . S
N218 C219 1.331 . S
C219 C217 1.392 . S
C219 N218 1.331 . S
O220 Zn213 1.975 . S
O220 C221 1.252 . S
C221 O220 1.252 . S
C221 O222 1.252 . S
O222 Zn204 1.975 . S
O222 C221 1.252 . S
H223 C216 0.930 . S
H224 C217 0.930 . S
C225 C226 1.392 . S
C225 N229 1.328 . S
C225 H231 0.930 . S
C226 C225 1.392 . S
C226 N230 1.331 . S
C227 C228 1.391 . S
C227 N230 1.329 . S
C227 H237 0.930 . S
C228 C227 1.391 . S
C228 N229 1.334 . S
C228 H235 0.930 . S
N229 Zn213 2.119 . S
N229 C225 1.328 . S
N229 C228 1.334 . S
N230 C226 1.331 . S
N230 C227 1.329 . S
H231 C225 0.930 . S
C232 O212 1.257 . S
C232 O233 1.244 . S
O233 C232 1.244 . S
O234 C210 1.257 . S
O234 Zn213 2.019 . S
H235 C228 0.930 . S
H236 C215 0.930 . S
H237 C227 0.930 . S
Zn238 N242 2.020 . S
Zn238 O246 2.019 . S
Zn238 N248 2.119 . S
Zn238 O256 1.975 . S
C239 N240 1.334 . S
C239 N243 1.336 . S
N240 C239 1.334 . S
N240 C241 1.334 . S
C241 N240 1.334 . S
C241 N242 1.336 . S
N242 Zn238 2.020 . S
N242 C241 1.336 . S
N242 N243 1.354 . S
N243 C239 1.336 . S
N243 N242 1.354 . S
N243 Zn247 2.020 . S
C244 O245 1.244 . S
C244 O268 1.257 . S
O245 C244 1.244 . S
O246 Zn238 2.019 . S
O246 C266 1.257 . S
Zn247 N243 2.020 . S
Zn247 O254 1.975 . S
Zn247 N263 2.119 . S
Zn247 O268 2.019 . S
N248 Zn238 2.119 . S
N248 C250 1.334 . S
N248 C251 1.328 . S
C249 C250 1.391 . S
C249 N252 1.329 . S
C249 H270 0.930 . S
C250 N248 1.334 . S
C250 C249 1.391 . S
C250 H257 0.930 . S
C251 N248 1.328 . S
C251 C253 1.392 . S
C251 H258 0.930 . S
N252 C249 1.329 . S
N252 C253 1.331 . S
C253 C251 1.392 . S
C253 N252 1.331 . S
O254 Zn247 1.975 . S
O254 C255 1.252 . S
C255 O254 1.252 . S
C255 O256 1.252 . S
O256 Zn238 1.975 . S
O256 C255 1.252 . S
H257 C250 0.930 . S
H258 C251 0.930 . S
C259 C260 1.392 . S
C259 N263 1.328 . S
C259 H265 0.930 . S
C260 C259 1.392 . S
C260 N264 1.331 . S
C261 C262 1.391 . S
C261 N264 1.329 . S
C261 H271 0.930 . S
C262 C261 1.391 . S
C262 N263 1.334 . S
C262 H269 0.930 . S
N263 Zn247 2.119 . S
N263 C259 1.328 . S
N263 C262 1.334 . S
N264 C260 1.331 . S
N264 C261 1.329 . S
H265 C259 0.930 . S
C266 O246 1.257 . S
C266 O267 1.244 . S
O267 C266 1.244 . S
O268 C244 1.257 . S
O268 Zn247 2.019 . S
H269 C262 0.930 . S
H270 C249 0.930 . S
H271 C261 0.930 . S
Zn272 N276 2.020 . S
Zn272 O280 2.019 . S
Zn272 N282 2.119 . S
Zn272 O290 1.975 . S
C273 N274 1.334 . S
C273 N277 1.336 . S
N274 C273 1.334 . S
N274 C275 1.334 . S
C275 N274 1.334 . S
C275 N276 1.336 . S
N276 Zn272 2.020 . S
N276 C275 1.336 . S
N276 N277 1.354 . S
N277 C273 1.336 . S
N277 N276 1.354 . S
N277 Zn281 2.020 . S
C278 O279 1.244 . S
C278 O302 1.257 . S
O279 C278 1.244 . S
O280 Zn272 2.019 . S
O280 C300 1.257 . S
Zn281 N277 2.020 . S
Zn281 O288 1.975 . S
Zn281 N297 2.119 . S
Zn281 O302 2.019 . S
N282 Zn272 2.119 . S
N282 C284 1.334 . S
N282 C285 1.328 . S
C283 C284 1.391 . S
C283 N286 1.329 . S
C283 H304 0.930 . S
C284 N282 1.334 . S
C284 C283 1.391 . S
C284 H291 0.930 . S
C285 N282 1.328 . S
C285 C287 1.392 . S
C285 H292 0.930 . S
N286 C283 1.329 . S
N286 C287 1.331 . S
C287 C285 1.392 . S
C287 N286 1.331 . S
O288 Zn281 1.975 . S
O288 C289 1.252 . S
C289 O288 1.252 . S
C289 O290 1.252 . S
O290 Zn272 1.975 . S
O290 C289 1.252 . S
H291 C284 0.930 . S
H292 C285 0.930 . S
C293 C294 1.392 . S
C293 N297 1.328 . S
C293 H299 0.930 . S
C294 C293 1.392 . S
C294 N298 1.331 . S
C295 C296 1.391 . S
C295 N298 1.329 . S
C295 H305 0.930 . S
C296 C295 1.391 . S
C296 N297 1.334 . S
C296 H303 0.930 . S
N297 Zn281 2.119 . S
N297 C293 1.328 . S
N297 C296 1.334 . S
N298 C294 1.331 . S
N298 C295 1.329 . S
H299 C293 0.930 . S
C300 O280 1.257 . S
C300 O301 1.244 . S
O301 C300 1.244 . S
O302 C278 1.257 . S
O302 Zn281 2.019 . S
H303 C296 0.930 . S
H304 C283 0.930 . S
H305 C295 0.930 . S
Zn306 N310 2.020 . S
Zn306 O314 2.019 . S
Zn306 N316 2.119 . S
Zn306 O324 1.975 . S
C307 N308 1.334 . S
C307 N311 1.336 . S
N308 C307 1.334 . S
N308 C309 1.334 . S
C309 N308 1.334 . S
C309 N310 1.336 . S
N310 Zn306 2.020 . S
N310 C309 1.336 . S
N310 N311 1.354 . S
N311 C307 1.336 . S
N311 N310 1.354 . S
N311 Zn315 2.020 . S
C312 O313 1.244 . S
C312 O336 1.257 . S
O313 C312 1.244 . S
O314 Zn306 2.019 . S
O314 C334 1.257 . S
Zn315 N311 2.020 . S
Zn315 O322 1.975 . S
Zn315 N331 2.119 . S
Zn315 O336 2.019 . S
N316 Zn306 2.119 . S
N316 C318 1.334 . S
N316 C319 1.328 . S
C317 C318 1.391 . S
C317 N320 1.329 . S
C317 H338 0.930 . S
C318 N316 1.334 . S
C318 C317 1.391 . S
C318 H325 0.930 . S
C319 N316 1.328 . S
C319 C321 1.392 . S
C319 H326 0.930 . S
N320 C317 1.329 . S
N320 C321 1.331 . S
C321 C319 1.392 . S
C321 N320 1.331 . S
O322 Zn315 1.975 . S
O322 C323 1.252 . S
C323 O322 1.252 . S
C323 O324 1.252 . S
O324 Zn306 1.975 . S
O324 C323 1.252 . S
H325 C318 0.930 . S
H326 C319 0.930 . S
C327 C328 1.392 . S
C327 N331 1.328 . S
C327 H333 0.930 . S
C328 C327 1.392 . S
C328 N332 1.331 . S
C329 C330 1.391 . S
C329 N332 1.329 . S
C329 H339 0.930 . S
C330 C329 1.391 . S
C330 N331 1.334 . S
C330 H337 0.930 . S
N331 Zn315 2.119 . S
N331 C327 1.328 . S
N331 C330 1.334 . S
N332 C328 1.331 . S
N332 C329 1.329 . S
H333 C327 0.930 . S
C334 O314 1.257 . S
C334 O335 1.244 . S
O335 C334 1.244 . S
O336 C312 1.257 . S
O336 Zn315 2.019 . S
H337 C330 0.930 . S
H338 C317 0.930 . S
H339 C329 0.930 . S
Zn340 N344 2.020 . S
Zn340 O348 2.019 . S
Zn340 N350 2.119 . S
Zn340 O358 1.975 . S
C341 N342 1.334 . S
C341 N345 1.336 . S
N342 C341 1.334 . S
N342 C343 1.334 . S
C343 N342 1.334 . S
C343 N344 1.336 . S
N344 Zn340 2.020 . S
N344 C343 1.336 . S
N344 N345 1.354 . S
N345 C341 1.336 . S
N345 N344 1.354 . S
N345 Zn349 2.020 . S
C346 O347 1.244 . S
C346 O370 1.257 . S
O347 C346 1.244 . S
O348 Zn340 2.019 . S
O348 C368 1.257 . S
Zn349 N345 2.020 . S
Zn349 O356 1.975 . S
Zn349 N365 2.119 . S
Zn349 O370 2.019 . S
N350 Zn340 2.119 . S
N350 C352 1.334 . S
N350 C353 1.328 . S
C351 C352 1.391 . S
C351 N354 1.329 . S
C351 H372 0.930 . S
C352 N350 1.334 . S
C352 C351 1.391 . S
C352 H359 0.930 . S
C353 N350 1.328 . S
C353 C355 1.392 . S
C353 H360 0.930 . S
N354 C351 1.329 . S
N354 C355 1.331 . S
C355 C353 1.392 . S
C355 N354 1.331 . S
O356 Zn349 1.975 . S
O356 C357 1.252 . S
C357 O356 1.252 . S
C357 O358 1.252 . S
O358 Zn340 1.975 . S
O358 C357 1.252 . S
H359 C352 0.930 . S
H360 C353 0.930 . S
C361 C362 1.392 . S
C361 N365 1.328 . S
C361 H367 0.930 . S
C362 C361 1.392 . S
C362 N366 1.331 . S
C363 C364 1.391 . S
C363 N366 1.329 . S
C363 H373 0.930 . S
C364 C363 1.391 . S
C364 N365 1.334 . S
C364 H371 0.930 . S
N365 Zn349 2.119 . S
N365 C361 1.328 . S
N365 C364 1.334 . S
N366 C362 1.331 . S
N366 C363 1.329 . S
H367 C361 0.930 . S
C368 O348 1.257 . S
C368 O369 1.244 . S
O369 C368 1.244 . S
O370 C346 1.257 . S
O370 Zn349 2.019 . S
H371 C364 0.930 . S
H372 C351 0.930 . S
H373 C363 0.930 . S
Zn374 N378 2.020 . S
Zn374 O382 2.019 . S
Zn374 N384 2.119 . S
Zn374 O392 1.975 . S
C375 N376 1.334 . S
C375 N379 1.336 . S
N376 C375 1.334 . S
N376 C377 1.334 . S
C377 N376 1.334 . S
C377 N378 1.336 . S
N378 Zn374 2.020 . S
N378 C377 1.336 . S
N378 N379 1.354 . S
N379 C375 1.336 . S
N379 N378 1.354 . S
N379 Zn383 2.020 . S
C380 O381 1.244 . S
C380 O404 1.257 . S
O381 C380 1.244 . S
O382 Zn374 2.019 . S
O382 C402 1.257 . S
Zn383 N379 2.020 . S
Zn383 O390 1.975 . S
Zn383 N399 2.119 . S
Zn383 O404 2.019 . S
N384 Zn374 2.119 . S
N384 C386 1.334 . S
N384 C387 1.328 . S
C385 C386 1.391 . S
C385 N388 1.329 . S
C385 H406 0.930 . S
C386 N384 1.334 . S
C386 C385 1.391 . S
C386 H393 0.930 . S
C387 N384 1.328 . S
C387 C389 1.392 . S
C387 H394 0.930 . S
N388 C385 1.329 . S
N388 C389 1.331 . S
C389 C387 1.392 . S
C389 N388 1.331 . S
O390 Zn383 1.975 . S
O390 C391 1.252 . S
C391 O390 1.252 . S
C391 O392 1.252 . S
O392 Zn374 1.975 . S
O392 C391 1.252 . S
H393 C386 0.930 . S
H394 C387 0.930 . S
C395 C396 1.392 . S
C395 N399 1.328 . S
C395 H401 0.930 . S
C396 C395 1.392 . S
C396 N400 1.331 . S
C397 C398 1.391 . S
C397 N400 1.329 . S
C397 H407 0.930 . S
C398 C397 1.391 . S
C398 N399 1.334 . S
C398 H405 0.930 . S
N399 Zn383 2.119 . S
N399 C395 1.328 . S
N399 C398 1.334 . S
N400 C396 1.331 . S
N400 C397 1.329 . S
H401 C395 0.930 . S
C402 O382 1.257 . S
C402 O403 1.244 . S
O403 C402 1.244 . S
O404 C380 1.257 . S
O404 Zn383 2.019 . S
H405 C398 0.930 . S
H406 C385 0.930 . S
H407 C397 0.930 . S
Zn408 N412 2.020 . S
Zn408 O416 2.019 . S
Zn408 N418 2.119 . S
Zn408 O426 1.975 . S
C409 N410 1.334 . S
C409 N413 1.336 . S
N410 C409 1.334 . S
N410 C411 1.334 . S
C411 N410 1.334 . S
C411 N412 1.336 . S
N412 Zn408 2.020 . S
N412 C411 1.336 . S
N412 N413 1.354 . S
N413 C409 1.336 . S
N413 N412 1.354 . S
N413 Zn417 2.020 . S
C414 O415 1.244 . S
C414 O438 1.257 . S
O415 C414 1.244 . S
O416 Zn408 2.019 . S
O416 C436 1.257 . S
Zn417 N413 2.020 . S
Zn417 O424 1.975 . S
Zn417 N433 2.119 . S
Zn417 O438 2.019 . S
N418 Zn408 2.119 . S
N418 C420 1.334 . S
N418 C421 1.328 . S
C419 C420 1.391 . S
C419 N422 1.329 . S
C419 H440 0.930 . S
C420 N418 1.334 . S
C420 C419 1.391 . S
C420 H427 0.930 . S
C421 N418 1.328 . S
C421 C423 1.392 . S
C421 H428 0.930 . S
N422 C419 1.329 . S
N422 C423 1.331 . S
C423 C421 1.392 . S
C423 N422 1.331 . S
O424 Zn417 1.975 . S
O424 C425 1.252 . S
C425 O424 1.252 . S
C425 O426 1.252 . S
O426 Zn408 1.975 . S
O426 C425 1.252 . S
H427 C420 0.930 . S
H428 C421 0.930 . S
C429 C430 1.392 . S
C429 N433 1.328 . S
C429 H435 0.930 . S
C430 C429 1.392 . S
C430 N434 1.331 . S
C431 C432 1.391 . S
C431 N434 1.329 . S
C431 H441 0.930 . S
C432 C431 1.391 . S
C432 N433 1.334 . S
C432 H439 0.930 . S
N433 Zn417 2.119 . S
N433 C429 1.328 . S
N433 C432 1.334 . S
N434 C430 1.331 . S
N434 C431 1.329 . S
H435 C429 0.930 . S
C436 O416 1.257 . S
C436 O437 1.244 . S
O437 C436 1.244 . S
O438 C414 1.257 . S
O438 Zn417 2.019 . S
H439 C432 0.930 . S
H440 C419 0.930 . S
H441 C431 0.930 . S
Zn442 N446 2.020 . S
Zn442 O450 2.019 . S
Zn442 N452 2.119 . S
Zn442 O460 1.975 . S
C443 N444 1.334 . S
C443 N447 1.336 . S
N444 C443 1.334 . S
N444 C445 1.334 . S
C445 N444 1.334 . S
C445 N446 1.336 . S
N446 Zn442 2.020 . S
N446 C445 1.336 . S
N446 N447 1.354 . S
N447 C443 1.336 . S
N447 N446 1.354 . S
N447 Zn451 2.020 . S
C448 O449 1.244 . S
C448 O472 1.257 . S
O449 C448 1.244 . S
O450 Zn442 2.019 . S
O450 C470 1.257 . S
Zn451 N447 2.020 . S
Zn451 O458 1.975 . S
Zn451 N467 2.119 . S
Zn451 O472 2.019 . S
N452 Zn442 2.119 . S
N452 C454 1.334 . S
N452 C455 1.328 . S
C453 C454 1.391 . S
C453 N456 1.329 . S
C453 H474 0.930 . S
C454 N452 1.334 . S
C454 C453 1.391 . S
C454 H461 0.930 . S
C455 N452 1.328 . S
C455 C457 1.392 . S
C455 H462 0.930 . S
N456 C453 1.329 . S
N456 C457 1.331 . S
C457 C455 1.392 . S
C457 N456 1.331 . S
O458 Zn451 1.975 . S
O458 C459 1.252 . S
C459 O458 1.252 . S
C459 O460 1.252 . S
O460 Zn442 1.975 . S
O460 C459 1.252 . S
H461 C454 0.930 . S
H462 C455 0.930 . S
C463 C464 1.392 . S
C463 N467 1.328 . S
C463 H469 0.930 . S
C464 C463 1.392 . S
C464 N468 1.331 . S
C465 C466 1.391 . S
C465 N468 1.329 . S
C465 H475 0.930 . S
C466 C465 1.391 . S
C466 N467 1.334 . S
C466 H473 0.930 . S
N467 Zn451 2.119 . S
N467 C463 1.328 . S
N467 C466 1.334 . S
N468 C464 1.331 . S
N468 C465 1.329 . S
H469 C463 0.930 . S
C470 O450 1.257 . S
C470 O471 1.244 . S
O471 C470 1.244 . S
O472 C448 1.257 . S
O472 Zn451 2.019 . S
H473 C466 0.930 . S
H474 C453 0.930 . S
H475 C465 0.930 . S
Zn476 N480 2.020 . S
Zn476 O484 2.019 . S
Zn476 N486 2.119 . S
Zn476 O494 1.975 . S
C477 N478 1.334 . S
C477 N481 1.336 . S
N478 C477 1.334 . S
N478 C479 1.334 . S
C479 N478 1.334 . S
C479 N480 1.336 . S
N480 Zn476 2.020 . S
N480 C479 1.336 . S
N480 N481 1.354 . S
N481 C477 1.336 . S
N481 N480 1.354 . S
N481 Zn485 2.020 . S
C482 O483 1.244 . S
C482 O506 1.257 . S
O483 C482 1.244 . S
O484 Zn476 2.019 . S
O484 C504 1.257 . S
Zn485 N481 2.020 . S
Zn485 O492 1.975 . S
Zn485 N501 2.119 . S
Zn485 O506 2.019 . S
N486 Zn476 2.119 . S
N486 C488 1.334 . S
N486 C489 1.328 . S
C487 C488 1.391 . S
C487 N490 1.329 . S
C487 H508 0.930 . S
C488 N486 1.334 . S
C488 C487 1.391 . S
C488 H495 0.930 . S
C489 N486 1.328 . S
C489 C491 1.392 . S
C489 H496 0.930 . S
N490 C487 1.329 . S
N490 C491 1.331 . S
C491 C489 1.392 . S
C491 N490 1.331 . S
O492 Zn485 1.975 . S
O492 C493 1.252 . S
C493 O492 1.252 . S
C493 O494 1.252 . S
O494 Zn476 1.975 . S
O494 C493 1.252 . S
H495 C488 0.930 . S
H496 C489 0.930 . S
C497 C498 1.392 . S
C497 N501 1.328 . S
C497 H503 0.930 . S
C498 C497 1.392 . S
C498 N502 1.331 . S
C499 C500 1.391 . S
C499 N502 1.329 . S
C499 H509 0.930 . S
C500 C499 1.391 . S
C500 N501 1.334 . S
C500 H507 0.930 . S
N501 Zn485 2.119 . S
N501 C497 1.328 . S
N501 C500 1.334 . S
N502 C498 1.331 . S
N502 C499 1.329 . S
H503 C497 0.930 . S
C504 O484 1.257 . S
C504 O505 1.244 . S
O505 C504 1.244 . S
O506 C482 1.257 . S
O506 Zn485 2.019 . S
H507 C500 0.930 . S
H508 C487 0.930 . S
H509 C499 0.930 . S
Zn510 N514 2.020 . S
Zn510 O518 2.019 . S
Zn510 N520 2.119 . S
Zn510 O528 1.975 . S
C511 N512 1.334 . S
C511 N515 1.336 . S
N512 C511 1.334 . S
N512 C513 1.334 . S
C513 N512 1.334 . S
C513 N514 1.336 . S
N514 Zn510 2.020 . S
N514 C513 1.336 . S
N514 N515 1.354 . S
N515 C511 1.336 . S
N515 N514 1.354 . S
N515 Zn519 2.020 . S
C516 O517 1.244 . S
C516 O540 1.257 . S
O517 C516 1.244 . S
O518 Zn510 2.019 . S
O518 C538 1.257 . S
Zn519 N515 2.020 . S
Zn519 O526 1.975 . S
Zn519 N535 2.119 . S
Zn519 O540 2.019 . S
N520 Zn510 2.119 . S
N520 C522 1.334 . S
N520 C523 1.328 . S
C521 C522 1.391 . S
C521 N524 1.329 . S
C521 H542 0.930 . S
C522 N520 1.334 . S
C522 C521 1.391 . S
C522 H529 0.930 . S
C523 N520 1.328 . S
C523 C525 1.392 . S
C523 H530 0.930 . S
N524 C521 1.329 . S
N524 C525 1.331 . S
C525 C523 1.392 . S
C525 N524 1.331 . S
O526 Zn519 1.975 . S
O526 C527 1.252 . S
C527 O526 1.252 . S
C527 O528 1.252 . S
O528 Zn510 1.975 . S
O528 C527 1.252 . S
H529 C522 0.930 . S
H530 C523 0.930 . S
C531 C532 1.392 . S
C531 N535 1.328 . S
C531 H537 0.930 . S
C532 C531 1.392 . S
C532 N536 1.331 . S
C533 C534 1.391 . S
C533 N536 1.329 . S
C533 H543 0.930 . S
C534 C533 1.391 . S
C534 N535 1.334 . S
C534 H541 0.930 . S
N535 Zn519 2.119 . S
N535 C531 1.328 . S
N535 C534 1.334 . S
N536 C532 1.331 . S
N536 C533 1.329 . S
H537 C531 0.930 . S
C538 O518 1.257 . S
C538 O539 1.244 . S
O539 C538 1.244 . S
O540 C516 1.257 . S
O540 Zn519 2.019 . S
H541 C534 0.930 . S
H542 C521 0.930 . S
H543 C533 0.930 . S
H544 C550 0.930 . S
H545 C553 0.930 . S
H546 C554 0.930 1_556 S
H547 C555 0.930 . S
H548 C558 0.930 . S
H549 C559 0.930 1_554 S
C550 H544 0.930 . S
C550 C551 1.355 . S
C550 C552 1.415 . S
C551 C550 1.355 . S
C551 C553 1.419 . S
C552 C550 1.415 . S
C552 C557 1.425 1_554 S
C552 C559 1.409 1_554 S
C553 H545 0.930 . S
C553 C551 1.419 . S
C553 C554 1.362 . S
C554 H546 0.930 1_554 S
C554 C553 1.362 . S
C554 C557 1.409 1_554 S
C555 H547 0.930 . S
C555 C556 1.355 . S
C555 C557 1.415 . S
C556 C555 1.355 . S
C556 C558 1.419 . S
C557 C552 1.425 1_556 S
C557 C554 1.409 1_556 S
C557 C555 1.415 . S
C558 H548 0.930 . S
C558 C556 1.419 . S
C558 C559 1.362 . S
C559 H549 0.930 1_556 S
C559 C552 1.409 1_556 S
C559 C558 1.362 . S
H560 C566 0.930 . S
H561 C569 0.930 . S
H562 C570 0.930 . S
H563 C571 0.930 . S
H564 C574 0.930 . S
H565 C575 0.930 . S
C566 H560 0.930 . S
C566 C567 1.355 . S
C566 C568 1.415 . S
C567 C566 1.355 . S
C567 C569 1.419 . S
C568 C566 1.415 . S
C568 C573 1.425 1_554 S
C568 C575 1.409 1_554 S
C569 H561 0.930 . S
C569 C567 1.419 . S
C569 C570 1.362 . S
C570 H562 0.930 . S
C570 C569 1.362 . S
C570 C573 1.409 1_554 S
C571 H563 0.930 . S
C571 C572 1.355 . S
C571 C573 1.415 . S
C572 C571 1.355 . S
C572 C574 1.419 . S
C573 C568 1.425 1_556 S
C573 C570 1.409 1_556 S
C573 C571 1.415 . S
C574 H564 0.930 . S
C574 C572 1.419 . S
C574 C575 1.362 . S
C575 H565 0.930 . S
C575 C568 1.409 1_556 S
C575 C574 1.362 . S
H576 C582 0.930 . S
H577 C585 0.930 . S
H578 C586 0.930 1_554 S
H579 C587 0.930 . S
H580 C590 0.930 . S
H581 C591 0.930 1_556 S
C582 H576 0.930 . S
C582 C583 1.355 . S
C582 C584 1.415 . S
C583 C582 1.355 . S
C583 C585 1.419 . S
C584 C582 1.415 . S
C584 C589 1.425 1_556 S
C584 C591 1.409 1_556 S
C585 H577 0.930 . S
C585 C583 1.419 . S
C585 C586 1.362 . S
C586 H578 0.930 1_556 S
C586 C585 1.362 . S
C586 C589 1.409 1_556 S
C587 H579 0.930 . S
C587 C588 1.355 . S
C587 C589 1.415 . S
C588 C587 1.355 . S
C588 C590 1.419 . S
C589 C584 1.425 1_554 S
C589 C586 1.409 1_554 S
C589 C587 1.415 . S
C590 H580 0.930 . S
C590 C588 1.419 . S
C590 C591 1.362 . S
C591 H581 0.930 1_554 S
C591 C584 1.409 1_554 S
C591 C590 1.362 . S
H592 C598 0.930 . S
H593 C601 0.930 . S
H594 C602 0.930 1_554 S
H595 C603 0.930 . S
H596 C606 0.930 . S
H597 C607 0.930 1_556 S
C598 H592 0.930 . S
C598 C599 1.355 . S
C598 C600 1.415 . S
C599 C598 1.355 . S
C599 C601 1.419 . S
C600 C598 1.415 . S
C600 C605 1.425 1_556 S
C600 C607 1.409 1_556 S
C601 H593 0.930 . S
C601 C599 1.419 . S
C601 C602 1.362 . S
C602 H594 0.930 1_556 S
C602 C601 1.362 . S
C602 C605 1.409 1_556 S
C603 H595 0.930 . S
C603 C604 1.355 . S
C603 C605 1.415 . S
C604 C603 1.355 . S
C604 C606 1.419 . S
C605 C600 1.425 1_554 S
C605 C602 1.409 1_554 S
C605 C603 1.415 . S
C606 H596 0.930 . S
C606 C604 1.419 . S
C606 C607 1.362 . S
C607 H597 0.930 1_554 S
C607 C600 1.409 1_554 S
C607 C606 1.362 . S
H608 C614 0.930 . S
H609 C617 0.930 . S
H610 C618 0.930 . S
H611 C619 0.930 . S
H612 C622 0.930 . S
H613 C623 0.930 . S
C614 H608 0.930 . S
C614 C615 1.355 . S
C614 C616 1.415 . S
C615 C614 1.355 . S
C615 C617 1.419 . S
C616 C614 1.415 . S
C616 C621 1.425 . S
C616 C623 1.409 . S
C617 H609 0.930 . S
C617 C615 1.419 . S
C617 C618 1.362 . S
C618 H610 0.930 . S
C618 C617 1.362 . S
C618 C621 1.409 . S
C619 H611 0.930 . S
C619 C620 1.355 . S
C619 C621 1.415 . S
C620 C619 1.355 . S
C620 C622 1.419 . S
C621 C616 1.425 . S
C621 C618 1.409 . S
C621 C619 1.415 . S
C622 H612 0.930 . S
C622 C620 1.419 . S
C622 C623 1.362 . S
C623 H613 0.930 . S
C623 C616 1.409 . S
C623 C622 1.362 . S
H624 C630 0.930 . S
H625 C633 0.930 . S
H626 C634 0.930 . S
H627 C635 0.930 . S
H628 C638 0.930 . S
H629 C639 0.930 . S
C630 H624 0.930 . S
C630 C631 1.355 . S
C630 C632 1.415 . S
C631 C630 1.355 . S
C631 C633 1.419 . S
C632 C630 1.415 . S
C632 C637 1.425 . S
C632 C639 1.409 . S
C633 H625 0.930 . S
C633 C631 1.419 . S
C633 C634 1.362 . S
C634 H626 0.930 . S
C634 C633 1.362 . S
C634 C637 1.409 . S
C635 H627 0.930 . S
C635 C636 1.355 . S
C635 C637 1.415 . S
C636 C635 1.355 . S
C636 C638 1.419 . S
C637 C632 1.425 . S
C637 C634 1.409 . S
C637 C635 1.415 . S
C638 H628 0.930 . S
C638 C636 1.419 . S
C638 C639 1.362 . S
C639 H629 0.930 . S
C639 C632 1.409 . S
C639 C638 1.362 . S
H640 C646 0.930 . S
H641 C649 0.930 . S
H642 C650 0.930 . S
H643 C651 0.930 . S
H644 C654 0.930 . S
H645 C655 0.930 . S
C646 H640 0.930 . S
C646 C647 1.355 . S
C646 C648 1.415 . S
C647 C646 1.355 . S
C647 C649 1.419 . S
C648 C646 1.415 . S
C648 C653 1.425 . S
C648 C655 1.409 . S
C649 H641 0.930 . S
C649 C647 1.419 . S
C649 C650 1.362 . S
C650 H642 0.930 . S
C650 C649 1.362 . S
C650 C653 1.409 . S
C651 H643 0.930 . S
C651 C652 1.355 . S
C651 C653 1.415 . S
C652 C651 1.355 . S
C652 C654 1.419 . S
C653 C648 1.425 . S
C653 C650 1.409 . S
C653 C651 1.415 . S
C654 H644 0.930 . S
C654 C652 1.419 . S
C654 C655 1.362 . S
C655 H645 0.930 . S
C655 C648 1.409 . S
C655 C654 1.362 . S
H656 C662 0.930 . S
H657 C665 0.930 . S
H658 C666 0.930 . S
H659 C667 0.930 . S
H660 C670 0.930 . S
H661 C671 0.930 . S
C662 H656 0.930 . S
C662 C663 1.355 . S
C662 C664 1.415 . S
C663 C662 1.355 . S
C663 C665 1.419 . S
C664 C662 1.415 . S
C664 C669 1.425 . S
C664 C671 1.409 . S
C665 H657 0.930 . S
C665 C663 1.419 . S
C665 C666 1.362 . S
C666 H658 0.930 . S
C666 C665 1.362 . S
C666 C669 1.409 . S
C667 H659 0.930 . S
C667 C668 1.355 . S
C667 C669 1.415 . S
C668 C667 1.355 . S
C668 C670 1.419 . S
C669 C664 1.425 . S
C669 C666 1.409 . S
C669 C667 1.415 . S
C670 H660 0.930 . S
C670 C668 1.419 . S
C670 C671 1.362 . S
C671 H661 0.930 . S
C671 C664 1.409 . S
C671 C670 1.362 . S
H672 C678 0.930 . S
H673 C681 0.930 1_565 S
H674 C682 0.930 . S
H675 C683 0.930 . S
H676 C686 0.930 . S
H677 C687 0.930 . S
C678 H672 0.930 . S
C678 C679 1.355 . S
C678 C680 1.415 1_565 S
C679 C678 1.355 . S
C679 C681 1.419 1_565 S
C680 C678 1.415 1_545 S
C680 C685 1.425 . S
C680 C687 1.409 . S
C681 H673 0.930 1_545 S
C681 C679 1.419 1_545 S
C681 C682 1.362 . S
C682 H674 0.930 . S
C682 C681 1.362 . S
C682 C685 1.409 . S
C683 H675 0.930 . S
C683 C684 1.355 . S
C683 C685 1.415 . S
C684 C683 1.355 . S
C684 C686 1.419 . S
C685 C680 1.425 . S
C685 C682 1.409 . S
C685 C683 1.415 . S
C686 H676 0.930 . S
C686 C684 1.419 . S
C686 C687 1.362 . S
C687 H677 0.930 . S
C687 C680 1.409 . S
C687 C686 1.362 . S
H688 C694 0.930 . S
H689 C697 0.930 . S
H690 C698 0.930 . S
H691 C699 0.930 . S
H692 C702 0.930 . S
H693 C703 0.930 . S
C694 H688 0.930 . S
C694 C695 1.355 . S
C694 C696 1.415 1_455 S
C695 C694 1.355 . S
C695 C697 1.419 . S
C696 C694 1.415 1_655 S
C696 C701 1.425 . S
C696 C703 1.409 . S
C697 H689 0.930 . S
C697 C695 1.419 . S
C697 C698 1.362 1_455 S
C698 H690 0.930 . S
C698 C697 1.362 1_655 S
C698 C701 1.409 . S
C699 H691 0.930 . S
C699 C700 1.355 . S
C699 C701 1.415 . S
C700 C699 1.355 . S
C700 C702 1.419 . S
C701 C696 1.425 . S
C701 C698 1.409 . S
C701 C699 1.415 . S
C702 H692 0.930 . S
C702 C700 1.419 . S
C702 C703 1.362 . S
C703 H693 0.930 . S
C703 C696 1.409 . S
C703 C702 1.362 . S
H704 C710 0.930 . S
H705 C713 0.930 . S
H706 C714 0.930 . S
H707 C715 0.930 . S
H708 C718 0.930 . S
H709 C719 0.930 . S
C710 H704 0.930 . S
C710 C711 1.355 . S
C710 C712 1.415 . S
C711 C710 1.355 . S
C711 C713 1.419 . S
C712 C710 1.415 . S
C712 C717 1.425 . S
C712 C719 1.409 1_565 S
C713 H705 0.930 . S
C713 C711 1.419 . S
C713 C714 1.362 . S
C714 H706 0.930 . S
C714 C713 1.362 . S
C714 C717 1.409 . S
C715 H707 0.930 . S
C715 C716 1.355 1_565 S
C715 C717 1.415 . S
C716 C715 1.355 1_545 S
C716 C718 1.419 . S
C717 C712 1.425 . S
C717 C714 1.409 . S
C717 C715 1.415 . S
C718 H708 0.930 . S
C718 C716 1.419 . S
C718 C719 1.362 . S
C719 H709 0.930 . S
C719 C712 1.409 1_545 S
C719 C718 1.362 . S
H720 C726 0.930 . S
H721 C729 0.930 . S
H722 C730 0.930 . S
H723 C731 0.930 . S
H724 C734 0.930 1_655 S
H725 C735 0.930 . S
C726 H720 0.930 . S
C726 C727 1.355 . S
C726 C728 1.415 . S
C727 C726 1.355 . S
C727 C729 1.419 . S
C728 C726 1.415 . S
C728 C733 1.425 . S
C728 C735 1.409 . S
C729 H721 0.930 . S
C729 C727 1.419 . S
C729 C730 1.362 . S
C730 H722 0.930 . S
C730 C729 1.362 . S
C730 C733 1.409 . S
C731 H723 0.930 . S
C731 C732 1.355 . S
C731 C733 1.415 1_655 S
C732 C731 1.355 . S
C732 C734 1.419 1_655 S
C733 C728 1.425 . S
C733 C730 1.409 . S
C733 C731 1.415 1_455 S
C734 H724 0.930 1_455 S
C734 C732 1.419 1_455 S
C734 C735 1.362 . S
C735 H725 0.930 . S
C735 C728 1.409 . S
C735 C734 1.362 . S
H736 C742 0.930 . S
H737 C745 0.930 . S
H738 C746 0.930 . S
H739 C747 0.930 . S
H740 C750 0.930 . S
H741 C751 0.930 . S
C742 H736 0.930 . S
C742 C743 1.355 1_565 S
C742 C744 1.415 . S
C743 C742 1.355 1_545 S
C743 C745 1.419 . S
C744 C742 1.415 . S
C744 C749 1.425 . S
C744 C751 1.409 . S
C745 H737 0.930 . S
C745 C743 1.419 . S
C745 C746 1.362 . S
C746 H738 0.930 . S
C746 C745 1.362 . S
C746 C749 1.409 1_545 S
C747 H739 0.930 . S
C747 C748 1.355 . S
C747 C749 1.415 . S
C748 C747 1.355 . S
C748 C750 1.419 . S
C749 C744 1.425 . S
C749 C746 1.409 1_565 S
C749 C747 1.415 . S
C750 H740 0.930 . S
C750 C748 1.419 . S
C750 C751 1.362 . S
C751 H741 0.930 . S
C751 C744 1.409 . S
C751 C750 1.362 . S
H752 C758 0.930 . S
H753 C761 0.930 . S
H754 C762 0.930 . S
H755 C763 0.930 . S
H756 C766 0.930 1_655 S
H757 C767 0.930 . S
C758 H752 0.930 . S
C758 C759 1.355 . S
C758 C760 1.415 . S
C759 C758 1.355 . S
C759 C761 1.419 . S
C760 C758 1.415 . S
C760 C765 1.425 . S
C760 C767 1.409 . S
C761 H753 0.930 . S
C761 C759 1.419 . S
C761 C762 1.362 . S
C762 H754 0.930 . S
C762 C761 1.362 . S
C762 C765 1.409 . S
C763 H755 0.930 . S
C763 C764 1.355 . S
C763 C765 1.415 1_655 S
C764 C763 1.355 . S
C764 C766 1.419 1_655 S
C765 C760 1.425 . S
C765 C762 1.409 . S
C765 C763 1.415 1_455 S
C766 H756 0.930 1_455 S
C766 C764 1.419 1_455 S
C766 C767 1.362 . S
C767 H757 0.930 . S
C767 C760 1.409 . S
C767 C766 1.362 . S
H768 C774 0.930 . S
H769 C777 0.930 . S
H770 C778 0.930 . S
H771 C779 0.930 . S
H772 C782 0.930 . S
H773 C783 0.930 1_565 S
C774 H768 0.930 . S
C774 C775 1.355 . S
C774 C776 1.415 1_565 S
C775 C774 1.355 . S
C775 C777 1.419 1_565 S
C776 C774 1.415 1_545 S
C776 C781 1.425 . S
C776 C783 1.409 . S
C777 H769 0.930 . S
C777 C775 1.419 1_545 S
C777 C778 1.362 . S
C778 H770 0.930 . S
C778 C777 1.362 . S
C778 C781 1.409 . S
C779 H771 0.930 . S
C779 C780 1.355 . S
C779 C781 1.415 . S
C780 C779 1.355 . S
C780 C782 1.419 . S
C781 C776 1.425 . S
C781 C778 1.409 . S
C781 C779 1.415 . S
C782 H772 0.930 . S
C782 C780 1.419 . S
C782 C783 1.362 . S
C783 H773 0.930 1_545 S
C783 C776 1.409 . S
C783 C782 1.362 . S
H784 C790 0.930 . S
H785 C793 0.930 . S
H786 C794 0.930 . S
H787 C795 0.930 . S
H788 C798 0.930 . S
H789 C799 0.930 . S
C790 H784 0.930 . S
C790 C791 1.355 1_655 S
C790 C792 1.415 . S
C791 C790 1.355 1_455 S
C791 C793 1.419 . S
C792 C790 1.415 . S
C792 C797 1.425 . S
C792 C799 1.409 . S
C793 H785 0.930 . S
C793 C791 1.419 . S
C793 C794 1.362 . S
C794 H786 0.930 . S
C794 C793 1.362 . S
C794 C797 1.409 1_455 S
C795 H787 0.930 . S
C795 C796 1.355 . S
C795 C797 1.415 . S
C796 C795 1.355 . S
C796 C798 1.419 . S
C797 C792 1.425 . S
C797 C794 1.409 1_655 S
C797 C795 1.415 . S
C798 H788 0.930 . S
C798 C796 1.419 . S
C798 C799 1.362 . S
C799 H789 0.930 . S
C799 C792 1.409 . S
C799 C798 1.362 . S
H800 C806 0.930 . S
H801 C809 0.930 . S
H802 C810 0.930 . S
H803 C811 0.930 . S
H804 C814 0.930 1_545 S
H805 C815 0.930 . S
C806 H800 0.930 . S
C806 C807 1.355 . S
C806 C808 1.415 . S
C807 C806 1.355 . S
C807 C809 1.419 . S
C808 C806 1.415 . S
C808 C813 1.425 . S
C808 C815 1.409 . S
C809 H801 0.930 . S
C809 C807 1.419 . S
C809 C810 1.362 . S
C810 H802 0.930 . S
C810 C809 1.362 . S
C810 C813 1.409 . S
C811 H803 0.930 . S
C811 C812 1.355 . S
C811 C813 1.415 . S
C812 C811 1.355 . S
C812 C814 1.419 . S
C813 C808 1.425 . S
C813 C810 1.409 . S
C813 C811 1.415 . S
C814 H804 0.930 1_565 S
C814 C812 1.419 . S
C814 C815 1.362 . S
C815 H805 0.930 . S
C815 C808 1.409 . S
C815 C814 1.362 . S
H816 C822 0.930 . S
H817 C825 0.930 1_655 S
H818 C826 0.930 . S
H819 C827 0.930 . S
H820 C830 0.930 . S
H821 C831 0.930 . S
C822 H816 0.930 . S
C822 C823 1.355 . S
C822 C824 1.415 . S
C823 C822 1.355 . S
C823 C825 1.419 . S
C824 C822 1.415 . S
C824 C829 1.425 . S
C824 C831 1.409 . S
C825 H817 0.930 1_455 S
C825 C823 1.419 . S
C825 C826 1.362 . S
C826 H818 0.930 . S
C826 C825 1.362 . S
C826 C829 1.409 . S
C827 H819 0.930 . S
C827 C828 1.355 . S
C827 C829 1.415 . S
C828 C827 1.355 . S
C828 C830 1.419 . S
C829 C824 1.425 . S
C829 C826 1.409 . S
C829 C827 1.415 . S
C830 H820 0.930 . S
C830 C828 1.419 . S
C830 C831 1.362 . S
C831 H821 0.930 . S
C831 C824 1.409 . S
C831 C830 1.362 . S
H832 C838 0.930 . S
H833 C841 0.930 . S
H834 C842 0.930 . S
H835 C843 0.930 . S
H836 C846 0.930 1_565 S
H837 C847 0.930 . S
C838 H832 0.930 . S
C838 C839 1.355 . S
C838 C840 1.415 . S
C839 C838 1.355 . S
C839 C841 1.419 . S
C840 C838 1.415 . S
C840 C845 1.425 . S
C840 C847 1.409 . S
C841 H833 0.930 . S
C841 C839 1.419 . S
C841 C842 1.362 . S
C842 H834 0.930 . S
C842 C841 1.362 . S
C842 C845 1.409 . S
C843 H835 0.930 . S
C843 C844 1.355 . S
C843 C845 1.415 . S
C844 C843 1.355 . S
C844 C846 1.419 . S
C845 C840 1.425 . S
C845 C842 1.409 . S
C845 C843 1.415 . S
C846 H836 0.930 1_545 S
C846 C844 1.419 . S
C846 C847 1.362 . S
C847 H837 0.930 . S
C847 C840 1.409 . S
C847 C846 1.362 . S
H848 C854 0.930 . S
H849 C857 0.930 . S
H850 C858 0.930 . S
H851 C859 0.930 . S
H852 C862 0.930 . S
H853 C863 0.930 . S
C854 H848 0.930 . S
C854 C855 1.355 . S
C854 C856 1.415 . S
C855 C854 1.355 . S
C855 C857 1.419 . S
C856 C854 1.415 . S
C856 C861 1.425 . S
C856 C863 1.409 . S
C857 H849 0.930 . S
C857 C855 1.419 . S
C857 C858 1.362 . S
C858 H850 0.930 . S
C858 C857 1.362 . S
C858 C861 1.409 . S
C859 H851 0.930 . S
C859 C860 1.355 . S
C859 C861 1.415 . S
C860 C859 1.355 . S
C860 C862 1.419 . S
C861 C856 1.425 . S
C861 C858 1.409 . S
C861 C859 1.415 . S
C862 H852 0.930 . S
C862 C860 1.419 . S
C862 C863 1.362 . S
C863 H853 0.930 . S
C863 C856 1.409 . S
C863 C862 1.362 . S
H864 C870 0.930 . S
H865 C873 0.930 . S
H866 C874 0.930 . S
H867 C875 0.930 . S
H868 C878 0.930 1_565 S
H869 C879 0.930 . S
C870 H864 0.930 . S
C870 C871 1.355 . S
C870 C872 1.415 . S
C871 C870 1.355 . S
C871 C873 1.419 . S
C872 C870 1.415 . S
C872 C877 1.425 . S
C872 C879 1.409 . S
C873 H865 0.930 . S
C873 C871 1.419 . S
C873 C874 1.362 . S
C874 H866 0.930 . S
C874 C873 1.362 . S
C874 C877 1.409 . S
C875 H867 0.930 . S
C875 C876 1.355 . S
C875 C877 1.415 . S
C876 C875 1.355 . S
C876 C878 1.419 . S
C877 C872 1.425 . S
C877 C874 1.409 . S
C877 C875 1.415 . S
C878 H868 0.930 1_545 S
C878 C876 1.419 . S
C878 C879 1.362 . S
C879 H869 0.930 . S
C879 C872 1.409 . S
C879 C878 1.362 . S
H880 C886 0.930 . S
H881 C889 0.930 . S
H882 C890 0.930 . S
H883 C891 0.930 . S
H884 C894 0.930 . S
H885 C895 0.930 . S
C886 H880 0.930 . S
C886 C887 1.355 . S
C886 C888 1.415 . S
C887 C886 1.355 . S
C887 C889 1.419 . S
C888 C886 1.415 . S
C888 C893 1.425 . S
C888 C895 1.409 . S
C889 H881 0.930 . S
C889 C887 1.419 . S
C889 C890 1.362 . S
C890 H882 0.930 . S
C890 C889 1.362 . S
C890 C893 1.409 . S
C891 H883 0.930 . S
C891 C892 1.355 . S
C891 C893 1.415 . S
C892 C891 1.355 . S
C892 C894 1.419 . S
C893 C888 1.425 . S
C893 C890 1.409 . S
C893 C891 1.415 . S
C894 H884 0.930 . S
C894 C892 1.419 . S
C894 C895 1.362 . S
C895 H885 0.930 . S
C895 C888 1.409 . S
C895 C894 1.362 . S
H896 C902 0.930 . S
H897 C905 0.930 1_545 S
H898 C906 0.930 . S
H899 C907 0.930 . S
H900 C910 0.930 . S
H901 C911 0.930 . S
C902 H896 0.930 . S
C902 C903 1.355 . S
C902 C904 1.415 . S
C903 C902 1.355 . S
C903 C905 1.419 . S
C904 C902 1.415 . S
C904 C909 1.425 . S
C904 C911 1.409 . S
C905 H897 0.930 1_565 S
C905 C903 1.419 . S
C905 C906 1.362 . S
C906 H898 0.930 . S
C906 C905 1.362 . S
C906 C909 1.409 . S
C907 H899 0.930 . S
C907 C908 1.355 . S
C907 C909 1.415 . S
C908 C907 1.355 . S
C908 C910 1.419 . S
C909 C904 1.425 . S
C909 C906 1.409 . S
C909 C907 1.415 . S
C910 H900 0.930 . S
C910 C908 1.419 . S
C910 C911 1.362 . S
C911 H901 0.930 . S
C911 C904 1.409 . S
C911 C910 1.362 . S
H912 C918 0.930 . S
H913 C921 0.930 . S
H914 C922 0.930 . S
H915 C923 0.930 . S
H916 C926 0.930 . S
H917 C927 0.930 . S
C918 H912 0.930 . S
C918 C919 1.355 . S
C918 C920 1.415 . S
C919 C918 1.355 . S
C919 C921 1.419 . S
C920 C918 1.415 . S
C920 C925 1.425 . S
C920 C927 1.409 . S
C921 H913 0.930 . S
C921 C919 1.419 . S
C921 C922 1.362 . S
C922 H914 0.930 . S
C922 C921 1.362 . S
C922 C925 1.409 . S
C923 H915 0.930 . S
C923 C924 1.355 . S
C923 C925 1.415 . S
C924 C923 1.355 . S
C924 C926 1.419 . S
C925 C920 1.425 . S
C925 C922 1.409 . S
C925 C923 1.415 . S
C926 H916 0.930 . S
C926 C924 1.419 . S
C926 C927 1.362 . S
C927 H917 0.930 . S
C927 C920 1.409 . S
C927 C926 1.362 . S
H928 C934 0.930 . S
H929 C937 0.930 . S
H930 C938 0.930 . S
H931 C939 0.930 . S
H932 C942 0.930 . S
H933 C943 0.930 . S
C934 H928 0.930 . S
C934 C935 1.355 . S
C934 C936 1.415 . S
C935 C934 1.355 . S
C935 C937 1.419 . S
C936 C934 1.415 . S
C936 C941 1.425 . S
C936 C943 1.409 . S
C937 H929 0.930 . S
C937 C935 1.419 . S
C937 C938 1.362 . S
C938 H930 0.930 . S
C938 C937 1.362 . S
C938 C941 1.409 . S
C939 H931 0.930 . S
C939 C940 1.355 . S
C939 C941 1.415 . S
C940 C939 1.355 . S
C940 C942 1.419 . S
C941 C936 1.425 . S
C941 C938 1.409 . S
C941 C939 1.415 . S
C942 H932 0.930 . S
C942 C940 1.419 . S
C942 C943 1.362 . S
C943 H933 0.930 . S
C943 C936 1.409 . S
C943 C942 1.362 . S
H944 C950 0.930 . S
H945 C953 0.930 . S
H946 C954 0.930 . S
H947 C955 0.930 . S
H948 C958 0.930 . S
H949 C959 0.930 . S
C950 H944 0.930 . S
C950 C951 1.355 . S
C950 C952 1.415 . S
C951 C950 1.355 . S
C951 C953 1.419 . S
C952 C950 1.415 . S
C952 C957 1.425 . S
C952 C959 1.409 . S
C953 H945 0.930 . S
C953 C951 1.419 . S
C953 C954 1.362 . S
C954 H946 0.930 . S
C954 C953 1.362 . S
C954 C957 1.409 . S
C955 H947 0.930 . S
C955 C956 1.355 . S
C955 C957 1.415 . S
C956 C955 1.355 . S
C956 C958 1.419 . S
C957 C952 1.425 . S
C957 C954 1.409 . S
C957 C955 1.415 . S
C958 H948 0.930 . S
C958 C956 1.419 . S
C958 C959 1.362 . S
C959 H949 0.930 . S
C959 C952 1.409 . S
C959 C958 1.362 . S
H960 C966 0.930 . S
H961 C969 0.930 . S
H962 C970 0.930 . S
H963 C971 0.930 . S
H964 C974 0.930 . S
H965 C975 0.930 . S
C966 H960 0.930 . S
C966 C967 1.355 . S
C966 C968 1.415 . S
C967 C966 1.355 . S
C967 C969 1.419 . S
C968 C966 1.415 . S
C968 C973 1.425 . S
C968 C975 1.409 . S
C969 H961 0.930 . S
C969 C967 1.419 . S
C969 C970 1.362 . S
C970 H962 0.930 . S
C970 C969 1.362 . S
C970 C973 1.409 . S
C971 H963 0.930 . S
C971 C972 1.355 . S
C971 C973 1.415 . S
C972 C971 1.355 . S
C972 C974 1.419 . S
C973 C968 1.425 . S
C973 C970 1.409 . S
C973 C971 1.415 . S
C974 H964 0.930 . S
C974 C972 1.419 . S
C974 C975 1.362 . S
C975 H965 0.930 . S
C975 C968 1.409 . S
C975 C974 1.362 . S
H976 C982 0.930 . S
H977 C985 0.930 . S
H978 C986 0.930 . S
H979 C987 0.930 . S
H980 C990 0.930 . S
H981 C991 0.930 . S
C982 H976 0.930 . S
C982 C983 1.355 . S
C982 C984 1.415 . S
C983 C982 1.355 . S
C983 C985 1.419 . S
C984 C982 1.415 . S
C984 C989 1.425 . S
C984 C991 1.409 . S
C985 H977 0.930 . S
C985 C983 1.419 . S
C985 C986 1.362 . S
C986 H978 0.930 . S
C986 C985 1.362 . S
C986 C989 1.409 . S
C987 H979 0.930 . S
C987 C988 1.355 . S
C987 C989 1.415 . S
C988 C987 1.355 . S
C988 C990 1.419 . S
C989 C984 1.425 . S
C989 C986 1.409 . S
C989 C987 1.415 . S
C990 H980 0.930 . S
C990 C988 1.419 . S
C990 C991 1.362 . S
C991 H981 0.930 . S
C991 C984 1.409 . S
C991 C990 1.362 . S
H992 C998 0.930 . S
H993 C1001 0.930 . S
H994 C1002 0.930 . S
H995 C1003 0.930 . S
H996 C1006 0.930 . S
H997 C1007 0.930 . S
C998 H992 0.930 . S
C998 C999 1.355 . S
C998 C1000 1.415 . S
C999 C998 1.355 . S
C999 C1001 1.419 . S
C1000 C998 1.415 . S
C1000 C1005 1.425 . S
C1000 C1007 1.409 . S
C1001 H993 0.930 . S
C1001 C999 1.419 . S
C1001 C1002 1.362 . S
C1002 H994 0.930 . S
C1002 C1001 1.362 . S
C1002 C1005 1.409 . S
C1003 H995 0.930 . S
C1003 C1004 1.355 . S
C1003 C1005 1.415 . S
C1004 C1003 1.355 . S
C1004 C1006 1.419 . S
C1005 C1000 1.425 . S
C1005 C1002 1.409 . S
C1005 C1003 1.415 . S
C1006 H996 0.930 . S
C1006 C1004 1.419 . S
C1006 C1007 1.362 . S
C1007 H997 0.930 . S
C1007 C1000 1.409 . S
C1007 C1006 1.362 . S
H1008 C1014 0.930 . S
H1009 C1017 0.930 . S
H1010 C1018 0.930 . S
H1011 C1019 0.930 . S
H1012 C1022 0.930 . S
H1013 C1023 0.930 . S
C1014 H1008 0.930 . S
C1014 C1015 1.355 . S
C1014 C1016 1.415 . S
C1015 C1014 1.355 . S
C1015 C1017 1.419 . S
C1016 C1014 1.415 . S
C1016 C1021 1.425 . S
C1016 C1023 1.409 . S
C1017 H1009 0.930 . S
C1017 C1015 1.419 . S
C1017 C1018 1.362 . S
C1018 H1010 0.930 . S
C1018 C1017 1.362 . S
C1018 C1021 1.409 . S
C1019 H1011 0.930 . S
C1019 C1020 1.355 . S
C1019 C1021 1.415 . S
C1020 C1019 1.355 . S
C1020 C1022 1.419 . S
C1021 C1016 1.425 . S
C1021 C1018 1.409 . S
C1021 C1019 1.415 . S
C1022 H1012 0.930 . S
C1022 C1020 1.419 . S
C1022 C1023 1.362 . S
C1023 H1013 0.930 . S
C1023 C1016 1.409 . S
C1023 C1022 1.362 . S
H1024 C1030 0.930 . S
H1025 C1033 0.930 . S
H1026 C1034 0.930 . S
H1027 C1035 0.930 . S
H1028 C1038 0.930 . S
H1029 C1039 0.930 . S
C1030 H1024 0.930 . S
C1030 C1031 1.355 . S
C1030 C1032 1.415 . S
C1031 C1030 1.355 . S
C1031 C1033 1.419 . S
C1032 C1030 1.415 . S
C1032 C1037 1.425 . S
C1032 C1039 1.409 . S
C1033 H1025 0.930 . S
C1033 C1031 1.419 . S
C1033 C1034 1.362 . S
C1034 H1026 0.930 . S
C1034 C1033 1.362 . S
C1034 C1037 1.409 . S
C1035 H1027 0.930 . S
C1035 C1036 1.355 . S
C1035 C1037 1.415 . S
C1036 C1035 1.355 . S
C1036 C1038 1.419 . S
C1037 C1032 1.425 . S
C1037 C1034 1.409 . S
C1037 C1035 1.415 . S
C1038 H1028 0.930 . S
C1038 C1036 1.419 . S
C1038 C1039 1.362 . S
C1039 H1029 0.930 . S
C1039 C1032 1.409 . S
C1039 C1038 1.362 . S
H1040 C1046 0.930 . S
H1041 C1049 0.930 . S
H1042 C1050 0.930 . S
H1043 C1051 0.930 . S
H1044 C1054 0.930 . S
H1045 C1055 0.930 . S
C1046 H1040 0.930 . S
C1046 C1047 1.355 . S
C1046 C1048 1.415 . S
C1047 C1046 1.355 . S
C1047 C1049 1.419 . S
C1048 C1046 1.415 . S
C1048 C1053 1.425 . S
C1048 C1055 1.409 . S
C1049 H1041 0.930 . S
C1049 C1047 1.419 . S
C1049 C1050 1.362 . S
C1050 H1042 0.930 . S
C1050 C1049 1.362 . S
C1050 C1053 1.409 . S
C1051 H1043 0.930 . S
C1051 C1052 1.355 . S
C1051 C1053 1.415 . S
C1052 C1051 1.355 . S
C1052 C1054 1.419 . S
C1053 C1048 1.425 . S
C1053 C1050 1.409 . S
C1053 C1051 1.415 . S
C1054 H1044 0.930 . S
C1054 C1052 1.419 . S
C1054 C1055 1.362 . S
C1055 H1045 0.930 . S
C1055 C1048 1.409 . S
C1055 C1054 1.362 . S
H1056 C1062 0.930 . S
H1057 C1065 0.930 . S
H1058 C1066 0.930 . S
H1059 C1067 0.930 . S
H1060 C1070 0.930 . S
H1061 C1071 0.930 . S
C1062 H1056 0.930 . S
C1062 C1063 1.355 . S
C1062 C1064 1.415 . S
C1063 C1062 1.355 . S
C1063 C1065 1.419 . S
C1064 C1062 1.415 . S
C1064 C1069 1.425 . S
C1064 C1071 1.409 . S
C1065 H1057 0.930 . S
C1065 C1063 1.419 . S
C1065 C1066 1.362 . S
C1066 H1058 0.930 . S
C1066 C1065 1.362 . S
C1066 C1069 1.409 . S
C1067 H1059 0.930 . S
C1067 C1068 1.355 . S
C1067 C1069 1.415 . S
C1068 C1067 1.355 . S
C1068 C1070 1.419 . S
C1069 C1064 1.425 . S
C1069 C1066 1.409 . S
C1069 C1067 1.415 . S
C1070 H1060 0.930 . S
C1070 C1068 1.419 . S
C1070 C1071 1.362 . S
C1071 H1061 0.930 . S
C1071 C1064 1.409 . S
C1071 C1070 1.362 . S
H1072 C1078 0.930 . S
H1073 C1081 0.930 . S
H1074 C1082 0.930 . S
H1075 C1083 0.930 . S
H1076 C1086 0.930 . S
H1077 C1087 0.930 . S
C1078 H1072 0.930 . S
C1078 C1079 1.355 . S
C1078 C1080 1.415 . S
C1079 C1078 1.355 . S
C1079 C1081 1.419 . S
C1080 C1078 1.415 . S
C1080 C1085 1.425 . S
C1080 C1087 1.409 . S
C1081 H1073 0.930 . S
C1081 C1079 1.419 . S
C1081 C1082 1.362 . S
C1082 H1074 0.930 . S
C1082 C1081 1.362 . S
C1082 C1085 1.409 . S
C1083 H1075 0.930 . S
C1083 C1084 1.355 . S
C1083 C1085 1.415 . S
C1084 C1083 1.355 . S
C1084 C1086 1.419 . S
C1085 C1080 1.425 . S
C1085 C1082 1.409 . S
C1085 C1083 1.415 . S
C1086 H1076 0.930 . S
C1086 C1084 1.419 . S
C1086 C1087 1.362 . S
C1087 H1077 0.930 . S
C1087 C1080 1.409 . S
C1087 C1086 1.362 . S
H1088 C1094 0.930 . S
H1089 C1097 0.930 . S
H1090 C1098 0.930 . S
H1091 C1099 0.930 . S
H1092 C1102 0.930 . S
H1093 C1103 0.930 . S
C1094 H1088 0.930 . S
C1094 C1095 1.355 . S
C1094 C1096 1.415 . S
C1095 C1094 1.355 . S
C1095 C1097 1.419 . S
C1096 C1094 1.415 . S
C1096 C1101 1.425 . S
C1096 C1103 1.409 . S
C1097 H1089 0.930 . S
C1097 C1095 1.419 . S
C1097 C1098 1.362 . S
C1098 H1090 0.930 . S
C1098 C1097 1.362 . S
C1098 C1101 1.409 . S
C1099 H1091 0.930 . S
C1099 C1100 1.355 . S
C1099 C1101 1.415 . S
C1100 C1099 1.355 . S
C1100 C1102 1.419 . S
C1101 C1096 1.425 . S
C1101 C1098 1.409 . S
C1101 C1099 1.415 . S
C1102 H1092 0.930 . S
C1102 C1100 1.419 . S
C1102 C1103 1.362 . S
C1103 H1093 0.930 . S
C1103 C1096 1.409 . S
C1103 C1102 1.362 . S
H1104 C1110 0.930 . S
H1105 C1113 0.930 . S
H1106 C1114 0.930 . S
H1107 C1115 0.930 . S
H1108 C1118 0.930 . S
H1109 C1119 0.930 . S
C1110 H1104 0.930 . S
C1110 C1111 1.355 . S
C1110 C1112 1.415 . S
C1111 C1110 1.355 . S
C1111 C1113 1.419 . S
C1112 C1110 1.415 . S
C1112 C1117 1.425 . S
C1112 C1119 1.409 . S
C1113 H1105 0.930 . S
C1113 C1111 1.419 . S
C1113 C1114 1.362 . S
C1114 H1106 0.930 . S
C1114 C1113 1.362 . S
C1114 C1117 1.409 . S
C1115 H1107 0.930 . S
C1115 C1116 1.355 . S
C1115 C1117 1.415 . S
C1116 C1115 1.355 . S
C1116 C1118 1.419 . S
C1117 C1112 1.425 . S
C1117 C1114 1.409 . S
C1117 C1115 1.415 . S
C1118 H1108 0.930 . S
C1118 C1116 1.419 . S
C1118 C1119 1.362 . S
C1119 H1109 0.930 . S
C1119 C1112 1.409 . S
C1119 C1118 1.362 . S
H1120 C1126 0.930 . S
H1121 C1129 0.930 . S
H1122 C1130 0.930 . S
H1123 C1131 0.930 . S
H1124 C1134 0.930 . S
H1125 C1135 0.930 . S
C1126 H1120 0.930 . S
C1126 C1127 1.355 . S
C1126 C1128 1.415 . S
C1127 C1126 1.355 . S
C1127 C1129 1.419 . S
C1128 C1126 1.415 . S
C1128 C1133 1.425 . S
C1128 C1135 1.409 . S
C1129 H1121 0.930 . S
C1129 C1127 1.419 . S
C1129 C1130 1.362 . S
C1130 H1122 0.930 . S
C1130 C1129 1.362 . S
C1130 C1133 1.409 . S
C1131 H1123 0.930 . S
C1131 C1132 1.355 . S
C1131 C1133 1.415 . S
C1132 C1131 1.355 . S
C1132 C1134 1.419 . S
C1133 C1128 1.425 . S
C1133 C1130 1.409 . S
C1133 C1131 1.415 . S
C1134 H1124 0.930 . S
C1134 C1132 1.419 . S
C1134 C1135 1.362 . S
C1135 H1125 0.930 . S
C1135 C1128 1.409 . S
C1135 C1134 1.362 . S
H1136 C1142 0.930 . S
H1137 C1145 0.930 . S
H1138 C1146 0.930 . S
H1139 C1147 0.930 . S
H1140 C1150 0.930 . S
H1141 C1151 0.930 . S
C1142 H1136 0.930 . S
C1142 C1143 1.355 . S
C1142 C1144 1.415 . S
C1143 C1142 1.355 . S
C1143 C1145 1.419 . S
C1144 C1142 1.415 . S
C1144 C1149 1.425 . S
C1144 C1151 1.409 . S
C1145 H1137 0.930 . S
C1145 C1143 1.419 . S
C1145 C1146 1.362 . S
C1146 H1138 0.930 . S
C1146 C1145 1.362 . S
C1146 C1149 1.409 . S
C1147 H1139 0.930 . S
C1147 C1148 1.355 . S
C1147 C1149 1.415 . S
C1148 C1147 1.355 . S
C1148 C1150 1.419 . S
C1149 C1144 1.425 . S
C1149 C1146 1.409 . S
C1149 C1147 1.415 . S
C1150 H1140 0.930 . S
C1150 C1148 1.419 . S
C1150 C1151 1.362 . S
C1151 H1141 0.930 . S
C1151 C1144 1.409 . S
C1151 C1150 1.362 . S
H1152 C1158 0.930 . S
H1153 C1161 0.930 . S
H1154 C1162 0.930 . S
H1155 C1163 0.930 . S
H1156 C1166 0.930 . S
H1157 C1167 0.930 . S
C1158 H1152 0.930 . S
C1158 C1159 1.355 . S
C1158 C1160 1.415 . S
C1159 C1158 1.355 . S
C1159 C1161 1.419 . S
C1160 C1158 1.415 . S
C1160 C1165 1.425 . S
C1160 C1167 1.409 . S
C1161 H1153 0.930 . S
C1161 C1159 1.419 . S
C1161 C1162 1.362 . S
C1162 H1154 0.930 . S
C1162 C1161 1.362 . S
C1162 C1165 1.409 . S
C1163 H1155 0.930 . S
C1163 C1164 1.355 . S
C1163 C1165 1.415 . S
C1164 C1163 1.355 . S
C1164 C1166 1.419 . S
C1165 C1160 1.425 . S
C1165 C1162 1.409 . S
C1165 C1163 1.415 . S
C1166 H1156 0.930 . S
C1166 C1164 1.419 . S
C1166 C1167 1.362 . S
C1167 H1157 0.930 . S
C1167 C1160 1.409 . S
C1167 C1166 1.362 . S
H1168 C1174 0.930 . S
H1169 C1177 0.930 . S
H1170 C1178 0.930 . S
H1171 C1179 0.930 . S
H1172 C1182 0.930 . S
H1173 C1183 0.930 . S
C1174 H1168 0.930 . S
C1174 C1175 1.355 . S
C1174 C1176 1.415 . S
C1175 C1174 1.355 . S
C1175 C1177 1.419 . S
C1176 C1174 1.415 . S
C1176 C1181 1.425 . S
C1176 C1183 1.409 . S
C1177 H1169 0.930 . S
C1177 C1175 1.419 . S
C1177 C1178 1.362 . S
C1178 H1170 0.930 . S
C1178 C1177 1.362 . S
C1178 C1181 1.409 . S
C1179 H1171 0.930 . S
C1179 C1180 1.355 . S
C1179 C1181 1.415 . S
C1180 C1179 1.355 . S
C1180 C1182 1.419 . S
C1181 C1176 1.425 . S
C1181 C1178 1.409 . S
C1181 C1179 1.415 . S
C1182 H1172 0.930 . S
C1182 C1180 1.419 . S
C1182 C1183 1.362 . S
C1183 H1173 0.930 . S
C1183 C1176 1.409 . S
C1183 C1182 1.362 . S
H1184 C1190 0.930 . S
H1185 C1193 0.930 . S
H1186 C1194 0.930 . S
H1187 C1195 0.930 . S
H1188 C1198 0.930 . S
H1189 C1199 0.930 . S
C1190 H1184 0.930 . S
C1190 C1191 1.355 . S
C1190 C1192 1.415 . S
C1191 C1190 1.355 . S
C1191 C1193 1.419 . S
C1192 C1190 1.415 . S
C1192 C1197 1.425 . S
C1192 C1199 1.409 . S
C1193 H1185 0.930 . S
C1193 C1191 1.419 . S
C1193 C1194 1.362 . S
C1194 H1186 0.930 . S
C1194 C1193 1.362 . S
C1194 C1197 1.409 . S
C1195 H1187 0.930 . S
C1195 C1196 1.355 . S
C1195 C1197 1.415 . S
C1196 C1195 1.355 . S
C1196 C1198 1.419 . S
C1197 C1192 1.425 . S
C1197 C1194 1.409 . S
C1197 C1195 1.415 . S
C1198 H1188 0.930 . S
C1198 C1196 1.419 . S
C1198 C1199 1.362 . S
C1199 H1189 0.930 . S
C1199 C1192 1.409 . S
C1199 C1198 1.362 . S
H1200 C1206 0.930 . S
H1201 C1209 0.930 . S
H1202 C1210 0.930 . S
H1203 C1211 0.930 . S
H1204 C1214 0.930 . S
H1205 C1215 0.930 . S
C1206 H1200 0.930 . S
C1206 C1207 1.355 . S
C1206 C1208 1.415 . S
C1207 C1206 1.355 . S
C1207 C1209 1.419 . S
C1208 C1206 1.415 . S
C1208 C1213 1.425 . S
C1208 C1215 1.409 . S
C1209 H1201 0.930 . S
C1209 C1207 1.419 . S
C1209 C1210 1.362 . S
C1210 H1202 0.930 . S
C1210 C1209 1.362 . S
C1210 C1213 1.409 . S
C1211 H1203 0.930 . S
C1211 C1212 1.355 . S
C1211 C1213 1.415 . S
C1212 C1211 1.355 . S
C1212 C1214 1.419 . S
C1213 C1208 1.425 . S
C1213 C1210 1.409 . S
C1213 C1211 1.415 . S
C1214 H1204 0.930 . S
C1214 C1212 1.419 . S
C1214 C1215 1.362 . S
C1215 H1205 0.930 . S
C1215 C1208 1.409 . S
C1215 C1214 1.362 . S
H1216 C1222 0.930 . S
H1217 C1225 0.930 . S
H1218 C1226 0.930 . S
H1219 C1227 0.930 . S
H1220 C1230 0.930 . S
H1221 C1231 0.930 . S
C1222 H1216 0.930 . S
C1222 C1223 1.355 . S
C1222 C1224 1.415 . S
C1223 C1222 1.355 . S
C1223 C1225 1.419 . S
C1224 C1222 1.415 . S
C1224 C1229 1.425 . S
C1224 C1231 1.409 . S
C1225 H1217 0.930 . S
C1225 C1223 1.419 . S
C1225 C1226 1.362 . S
C1226 H1218 0.930 . S
C1226 C1225 1.362 . S
C1226 C1229 1.409 . S
C1227 H1219 0.930 . S
C1227 C1228 1.355 . S
C1227 C1229 1.415 . S
C1228 C1227 1.355 . S
C1228 C1230 1.419 . S
C1229 C1224 1.425 . S
C1229 C1226 1.409 . S
C1229 C1227 1.415 . S
C1230 H1220 0.930 . S
C1230 C1228 1.419 . S
C1230 C1231 1.362 . S
C1231 H1221 0.930 . S
C1231 C1224 1.409 . S
C1231 C1230 1.362 . S
H1232 C1238 0.930 . S
H1233 C1241 0.930 . S
H1234 C1242 0.930 . S
H1235 C1243 0.930 . S
H1236 C1246 0.930 . S
H1237 C1247 0.930 . S
C1238 H1232 0.930 . S
C1238 C1239 1.355 . S
C1238 C1240 1.415 . S
C1239 C1238 1.355 . S
C1239 C1241 1.419 . S
C1240 C1238 1.415 . S
C1240 C1245 1.425 . S
C1240 C1247 1.409 . S
C1241 H1233 0.930 . S
C1241 C1239 1.419 . S
C1241 C1242 1.362 . S
C1242 H1234 0.930 . S
C1242 C1241 1.362 . S
C1242 C1245 1.409 . S
C1243 H1235 0.930 . S
C1243 C1244 1.355 . S
C1243 C1245 1.415 . S
C1244 C1243 1.355 . S
C1244 C1246 1.419 . S
C1245 C1240 1.425 . S
C1245 C1242 1.409 . S
C1245 C1243 1.415 . S
C1246 H1236 0.930 . S
C1246 C1244 1.419 . S
C1246 C1247 1.362 . S
C1247 H1237 0.930 . S
C1247 C1240 1.409 . S
C1247 C1246 1.362 . S
H1248 C1254 0.930 . S
H1249 C1257 0.930 . S
H1250 C1258 0.930 . S
H1251 C1259 0.930 . S
H1252 C1262 0.930 . S
H1253 C1263 0.930 . S
C1254 H1248 0.930 . S
C1254 C1255 1.355 . S
C1254 C1256 1.415 . S
C1255 C1254 1.355 . S
C1255 C1257 1.419 . S
C1256 C1254 1.415 . S
C1256 C1261 1.425 . S
C1256 C1263 1.409 . S
C1257 H1249 0.930 . S
C1257 C1255 1.419 . S
C1257 C1258 1.362 . S
C1258 H1250 0.930 . S
C1258 C1257 1.362 . S
C1258 C1261 1.409 . S
C1259 H1251 0.930 . S
C1259 C1260 1.355 . S
C1259 C1261 1.415 . S
C1260 C1259 1.355 . S
C1260 C1262 1.419 . S
C1261 C1256 1.425 . S
C1261 C1258 1.409 . S
C1261 C1259 1.415 . S
C1262 H1252 0.930 . S
C1262 C1260 1.419 . S
C1262 C1263 1.362 . S
C1263 H1253 0.930 . S
C1263 C1256 1.409 . S
C1263 C1262 1.362 . S
H1264 C1270 0.930 . S
H1265 C1273 0.930 . S
H1266 C1274 0.930 . S
H1267 C1275 0.930 . S
H1268 C1278 0.930 . S
H1269 C1279 0.930 . S
C1270 H1264 0.930 . S
C1270 C1271 1.355 . S
C1270 C1272 1.415 . S
C1271 C1270 1.355 . S
C1271 C1273 1.419 . S
C1272 C1270 1.415 . S
C1272 C1277 1.425 . S
C1272 C1279 1.409 . S
C1273 H1265 0.930 . S
C1273 C1271 1.419 . S
C1273 C1274 1.362 . S
C1274 H1266 0.930 . S
C1274 C1273 1.362 . S
C1274 C1277 1.409 . S
C1275 H1267 0.930 . S
C1275 C1276 1.355 . S
C1275 C1277 1.415 . S
C1276 C1275 1.355 . S
C1276 C1278 1.419 . S
C1277 C1272 1.425 . S
C1277 C1274 1.409 . S
C1277 C1275 1.415 . S
C1278 H1268 0.930 . S
C1278 C1276 1.419 . S
C1278 C1279 1.362 . S
C1279 H1269 0.930 . S
C1279 C1272 1.409 . S
C1279 C1278 1.362 . S
H1280 C1286 0.930 . S
H1281 C1289 0.930 . S
H1282 C1290 0.930 . S
H1283 C1291 0.930 . S
H1284 C1294 0.930 . S
H1285 C1295 0.930 . S
C1286 H1280 0.930 . S
C1286 C1287 1.355 . S
C1286 C1288 1.415 . S
C1287 C1286 1.355 . S
C1287 C1289 1.419 . S
C1288 C1286 1.415 . S
C1288 C1293 1.425 . S
C1288 C1295 1.409 . S
C1289 H1281 0.930 . S
C1289 C1287 1.419 . S
C1289 C1290 1.362 . S
C1290 H1282 0.930 . S
C1290 C1289 1.362 . S
C1290 C1293 1.409 . S
C1291 H1283 0.930 . S
C1291 C1292 1.355 . S
C1291 C1293 1.415 . S
C1292 C1291 1.355 . S
C1292 C1294 1.419 . S
C1293 C1288 1.425 . S
C1293 C1290 1.409 . S
C1293 C1291 1.415 . S
C1294 H1284 0.930 . S
C1294 C1292 1.419 . S
C1294 C1295 1.362 . S
C1295 H1285 0.930 . S
C1295 C1288 1.409 . S
C1295 C1294 1.362 . S
H1296 C1302 0.930 . S
H1297 C1305 0.930 . S
H1298 C1306 0.930 . S
H1299 C1307 0.930 . S
H1300 C1310 0.930 . S
H1301 C1311 0.930 . S
C1302 H1296 0.930 . S
C1302 C1303 1.355 . S
C1302 C1304 1.415 . S
C1303 C1302 1.355 . S
C1303 C1305 1.419 . S
C1304 C1302 1.415 . S
C1304 C1309 1.425 . S
C1304 C1311 1.409 . S
C1305 H1297 0.930 . S
C1305 C1303 1.419 . S
C1305 C1306 1.362 . S
C1306 H1298 0.930 . S
C1306 C1305 1.362 . S
C1306 C1309 1.409 . S
C1307 H1299 0.930 . S
C1307 C1308 1.355 . S
C1307 C1309 1.415 . S
C1308 C1307 1.355 . S
C1308 C1310 1.419 . S
C1309 C1304 1.425 . S
C1309 C1306 1.409 . S
C1309 C1307 1.415 . S
C1310 H1300 0.930 . S
C1310 C1308 1.419 . S
C1310 C1311 1.362 . S
C1311 H1301 0.930 . S
C1311 C1304 1.409 . S
C1311 C1310 1.362 . S
H1312 C1318 0.930 . S
H1313 C1321 0.930 . S
H1314 C1322 0.930 . S
H1315 C1323 0.930 . S
H1316 C1326 0.930 . S
H1317 C1327 0.930 . S
C1318 H1312 0.930 . S
C1318 C1319 1.355 1_655 S
C1318 C1320 1.415 . S
C1319 C1318 1.355 1_455 S
C1319 C1321 1.419 . S
C1320 C1318 1.415 . S
C1320 C1325 1.425 1_655 S
C1320 C1327 1.409 . S
C1321 H1313 0.930 . S
C1321 C1319 1.419 . S
C1321 C1322 1.362 . S
C1322 H1314 0.930 . S
C1322 C1321 1.362 . S
C1322 C1325 1.409 . S
C1323 H1315 0.930 . S
C1323 C1324 1.355 1_455 S
C1323 C1325 1.415 . S
C1324 C1323 1.355 1_655 S
C1324 C1326 1.419 . S
C1325 C1320 1.425 1_455 S
C1325 C1322 1.409 . S
C1325 C1323 1.415 . S
C1326 H1316 0.930 . S
C1326 C1324 1.419 . S
C1326 C1327 1.362 . S
C1327 H1317 0.930 . S
C1327 C1320 1.409 . S
C1327 C1326 1.362 . S
H1328 C1334 0.930 . S
H1329 C1337 0.930 . S
H1330 C1338 0.930 . S
H1331 C1339 0.930 . S
H1332 C1342 0.930 . S
H1333 C1343 0.930 . S
C1334 H1328 0.930 . S
C1334 C1335 1.355 . S
C1334 C1336 1.415 . S
C1335 C1334 1.355 . S
C1335 C1337 1.419 . S
C1336 C1334 1.415 . S
C1336 C1341 1.425 1_565 S
C1336 C1343 1.409 . S
C1337 H1329 0.930 . S
C1337 C1335 1.419 . S
C1337 C1338 1.362 1_565 S
C1338 H1330 0.930 . S
C1338 C1337 1.362 1_545 S
C1338 C1341 1.409 . S
C1339 H1331 0.930 . S
C1339 C1340 1.355 . S
C1339 C1341 1.415 . S
C1340 C1339 1.355 . S
C1340 C1342 1.419 . S
C1341 C1336 1.425 1_545 S
C1341 C1338 1.409 . S
C1341 C1339 1.415 . S
C1342 H1332 0.930 . S
C1342 C1340 1.419 . S
C1342 C1343 1.362 1_545 S
C1343 H1333 0.930 . S
C1343 C1336 1.409 . S
C1343 C1342 1.362 1_565 S
H1344 C1350 0.930 . S
H1345 C1353 0.930 . S
H1346 C1354 0.930 . S
H1347 C1355 0.930 . S
H1348 C1358 0.930 . S
H1349 C1359 0.930 . S
C1350 H1344 0.930 . S
C1350 C1351 1.355 . S
C1350 C1352 1.415 . S
C1351 C1350 1.355 . S
C1351 C1353 1.419 1_455 S
C1352 C1350 1.415 . S
C1352 C1357 1.425 1_455 S
C1352 C1359 1.409 . S
C1353 H1345 0.930 . S
C1353 C1351 1.419 1_655 S
C1353 C1354 1.362 . S
C1354 H1346 0.930 . S
C1354 C1353 1.362 . S
C1354 C1357 1.409 . S
C1355 H1347 0.930 . S
C1355 C1356 1.355 . S
C1355 C1357 1.415 . S
C1356 C1355 1.355 . S
C1356 C1358 1.419 1_655 S
C1357 C1352 1.425 1_655 S
C1357 C1354 1.409 . S
C1357 C1355 1.415 . S
C1358 H1348 0.930 . S
C1358 C1356 1.419 1_455 S
C1358 C1359 1.362 . S
C1359 H1349 0.930 . S
C1359 C1352 1.409 . S
C1359 C1358 1.362 . S
H1360 C1366 0.916 1_545 S
H1361 C1369 0.930 . S
H1362 C1370 0.930 . S
H1363 C1371 0.916 1_565 S
H1364 C1374 0.930 . S
H1365 C1375 0.930 . S
C1366 H1360 0.916 1_565 S
C1366 C1367 1.376 . S
C1366 C1368 1.407 1_565 S
C1367 C1366 1.376 . S
C1367 C1369 1.419 . S
C1368 C1366 1.407 1_545 S
C1368 C1373 1.425 1_545 S
C1368 C1375 1.409 . S
C1369 H1361 0.930 . S
C1369 C1367 1.419 . S
C1369 C1370 1.362 . S
C1370 H1362 0.930 . S
C1370 C1369 1.362 . S
C1370 C1373 1.409 . S
C1371 H1363 0.916 1_545 S
C1371 C1372 1.376 . S
C1371 C1373 1.407 1_545 S
C1372 C1371 1.376 . S
C1372 C1374 1.419 . S
C1373 C1368 1.425 1_565 S
C1373 C1370 1.409 . S
C1373 C1371 1.407 1_565 S
C1374 H1364 0.930 . S
C1374 C1372 1.419 . S
C1374 C1375 1.362 . S
C1375 H1365 0.930 . S
C1375 C1368 1.409 . S
C1375 C1374 1.362 . S
H1376 C1382 0.930 . S
H1377 C1385 0.930 . S
H1378 C1386 0.930 . S
H1379 C1387 0.930 . S
H1380 C1390 0.930 . S
H1381 C1391 0.930 . S
C1382 H1376 0.930 . S
C1382 C1383 1.355 . S
C1382 C1384 1.415 . S
C1383 C1382 1.355 . S
C1383 C1385 1.419 . S
C1384 C1382 1.415 . S
C1384 C1389 1.425 1_455 S
C1384 C1391 1.409 1_455 S
C1385 H1377 0.930 . S
C1385 C1383 1.419 . S
C1385 C1386 1.362 . S
C1386 H1378 0.930 . S
C1386 C1385 1.362 . S
C1386 C1389 1.409 1_455 S
C1387 H1379 0.930 . S
C1387 C1388 1.355 . S
C1387 C1389 1.415 . S
C1388 C1387 1.355 . S
C1388 C1390 1.419 . S
C1389 C1384 1.425 1_655 S
C1389 C1386 1.409 1_655 S
C1389 C1387 1.415 . S
C1390 H1380 0.930 . S
C1390 C1388 1.419 . S
C1390 C1391 1.362 . S
C1391 H1381 0.930 . S
C1391 C1384 1.409 1_655 S
C1391 C1390 1.362 . S
H1392 C1398 0.930 . S
H1393 C1401 0.930 . S
H1394 C1402 0.930 1_565 S
H1395 C1403 0.930 . S
H1396 C1406 0.930 . S
H1397 C1407 0.930 1_545 S
C1398 H1392 0.930 . S
C1398 C1399 1.355 . S
C1398 C1400 1.415 . S
C1399 C1398 1.355 . S
C1399 C1401 1.419 . S
C1400 C1398 1.415 . S
C1400 C1405 1.425 1_545 S
C1400 C1407 1.409 1_545 S
C1401 H1393 0.930 . S
C1401 C1399 1.419 . S
C1401 C1402 1.362 . S
C1402 H1394 0.930 1_545 S
C1402 C1401 1.362 . S
C1402 C1405 1.409 1_545 S
C1403 H1395 0.930 . S
C1403 C1404 1.355 . S
C1403 C1405 1.415 . S
C1404 C1403 1.355 . S
C1404 C1406 1.419 . S
C1405 C1400 1.425 1_565 S
C1405 C1402 1.409 1_565 S
C1405 C1403 1.415 . S
C1406 H1396 0.930 . S
C1406 C1404 1.419 . S
C1406 C1407 1.362 . S
C1407 H1397 0.930 1_565 S
C1407 C1400 1.409 1_565 S
C1407 C1406 1.362 . S
H1408 C1414 0.930 . S
H1409 C1417 0.930 . S
H1410 C1418 0.930 . S
H1411 C1419 0.930 . S
H1412 C1422 0.930 . S
H1413 C1423 0.930 . S
C1414 H1408 0.930 . S
C1414 C1415 1.355 . S
C1414 C1416 1.415 . S
C1415 C1414 1.355 . S
C1415 C1417 1.419 . S
C1416 C1414 1.415 . S
C1416 C1421 1.425 1_455 S
C1416 C1423 1.409 . S
C1417 H1409 0.930 . S
C1417 C1415 1.419 . S
C1417 C1418 1.362 1_455 S
C1418 H1410 0.930 . S
C1418 C1417 1.362 1_655 S
C1418 C1421 1.409 . S
C1419 H1411 0.930 . S
C1419 C1420 1.355 . S
C1419 C1421 1.415 . S
C1420 C1419 1.355 . S
C1420 C1422 1.419 . S
C1421 C1416 1.425 1_655 S
C1421 C1418 1.409 . S
C1421 C1419 1.415 . S
C1422 H1412 0.930 . S
C1422 C1420 1.419 . S
C1422 C1423 1.362 1_655 S
C1423 H1413 0.930 . S
C1423 C1416 1.409 . S
C1423 C1422 1.362 1_455 S
H1424 C1430 0.930 . S
H1425 C1433 0.930 . S
H1426 C1434 0.930 . S
H1427 C1435 0.930 . S
H1428 C1438 0.930 . S
H1429 C1439 0.930 . S
C1430 H1424 0.930 . S
C1430 C1431 1.355 . S
C1430 C1432 1.415 1_565 S
C1431 C1430 1.355 . S
C1431 C1433 1.419 . S
C1432 C1430 1.415 1_545 S
C1432 C1437 1.425 1_545 S
C1432 C1439 1.409 . S
C1433 H1425 0.930 . S
C1433 C1431 1.419 . S
C1433 C1434 1.362 . S
C1434 H1426 0.930 . S
C1434 C1433 1.362 . S
C1434 C1437 1.409 . S
C1435 H1427 0.930 . S
C1435 C1436 1.355 . S
C1435 C1437 1.415 1_545 S
C1436 C1435 1.355 . S
C1436 C1438 1.419 . S
C1437 C1432 1.425 1_565 S
C1437 C1434 1.409 . S
C1437 C1435 1.415 1_565 S
C1438 H1428 0.930 . S
C1438 C1436 1.419 . S
C1438 C1439 1.362 . S
C1439 H1429 0.930 . S
C1439 C1432 1.409 . S
C1439 C1438 1.362 . S
C551 C22 1.797 . S
C556 C362 1.838 . S
C567 C56 1.841 . S
C572 C396 1.802 . S
C583 C287 1.845 . S
C588 C83 1.839 . S
C599 C328 1.795 . S
C604 C117 1.837 . S
C615 C158 1.804 . S
C620 C498 1.762 . S
C631 C525 1.835 . S
C636 C185 1.791 . S
C647 C423 1.762 . S
C652 C226 1.804 . S
C663 C260 1.844 . S
C668 C464 1.842 . S
C679 C103 0.921 . S
C684 C28 1.050 . S
C695 C3 0.925 . S
C700 C62 1.014 . S
C711 C74 0.945 . S
C716 C37 1.012 . S
C727 C108 1.065 . S
C732 C69 0.940 . S
C743 C171 1.056 . S
C748 C164 0.958 . S
C759 C176 1.066 . S
C764 C207 0.945 . S
C775 C241 0.929 . S
C780 C232 1.060 . S
C791 C139 1.059 . S
C796 C266 0.987 . S
C807 C289 1.805 . S
C812 C380 1.816 1_565 S
C823 C300 1.815 1_455 S
C828 C323 1.806 . S
C839 C357 1.810 . S
C844 C312 1.815 1_545 S
C855 C346 1.820 1_655 S
C860 C391 1.822 . S
C871 C425 1.806 . S
C876 C448 1.817 1_545 S
C887 C482 1.821 1_655 S
C892 C459 1.823 . S
C903 C538 1.815 1_565 S
C908 C493 1.806 . S
C919 C436 1.821 1_455 S
C924 C527 1.823 . S
C935 C470 1.067 . S
C940 C409 0.956 . S
C951 C504 1.049 . S
C956 C445 1.010 . S
C967 C479 0.994 . S
C972 C516 1.058 . S
C983 C511 0.933 . S
C988 C414 1.062 . S
C999 C402 1.067 . S
C1004 C273 0.954 . S
C1015 C309 1.052 . S
C1020 C278 0.953 . S
C1031 C343 0.990 . S
C1036 C334 0.953 . S
C1047 C377 1.025 . S
C1052 C368 1.038 . S
C1063 C187 1.806 . S
C1068 C142 1.817 . S
C1079 C198 1.818 . S
C1084 C221 1.807 . S
C1095 C255 1.823 . S
C1100 C210 1.821 . S
C1111 C244 1.817 . S
C1116 C153 1.806 . S
C1127 C119 1.806 . S
C1132 C6 1.815 . S
C1143 C40 1.823 . S
C1148 C17 1.823 . S
C1159 C96 1.820 . S
C1164 C51 1.821 . S
C1175 C130 1.817 . S
C1180 C85 1.806 . S
C1191 C192 1.561 . S
C1196 C15 1.571 . S
C1207 C219 1.513 . S
C1212 C49 1.579 . S
C1223 C253 1.568 . S
C1228 C90 1.563 . S
C1239 C151 1.562 . S
C1244 C124 1.570 . S
C1255 C457 1.541 . S
C1260 C294 1.525 . S
C1271 C321 1.579 . S
C1276 C491 1.549 . S
C1287 C355 1.583 . S
C1292 C532 1.542 . S
C1303 C389 1.530 . S
C1308 C430 1.586 . S
C1319 C1 1.949 . S
C1324 C71 1.931 . S
C1335 C105 1.904 . S
C1340 C35 1.949 . S
C1351 C137 1.915 . S
C1356 C205 1.917 . S
C1367 C239 1.939 . S
C1372 C173 1.944 . S
C1383 C341 1.937 . S
C1388 C275 1.903 . S
C1399 C375 1.931 . S
C1404 C307 1.949 . S
C1415 C477 1.942 . S
C1420 C411 1.941 . S
C1431 C443 1.916 . S
C1436 C513 1.915 . S
