# Generated by pormake.
# Topology lcy-e, (6)-cn, num edge types: 1
# Building blocks:
#     Node 0, Type 0, BuildingBlock: BETFEN_clean_sbu_0, # of connection points: 6
#     Node 1, Type 0, BuildingBlock: BETFEN_clean_sbu_0, # of connection points: 6
#     Node 2, Type 0, BuildingBlock: BETFEN_clean_sbu_0, # of connection points: 6
#     Node 3, Type 0, BuildingBlock: BETFEN_clean_sbu_0, # of connection points: 6
#     Node 4, Type 0, BuildingBlock: BETFEN_clean_sbu_0, # of connection points: 6
#     Node 5, Type 0, BuildingBlock: BETFEN_clean_sbu_0, # of connection points: 6
#     Node 6, Type 0, BuildingBlock: BETFEN_clean_sbu_0, # of connection points: 6
#     Node 7, Type 0, BuildingBlock: BETFEN_clean_sbu_0, # of connection points: 6
#     Node 8, Type 0, BuildingBlock: BETFEN_clean_sbu_0, # of connection points: 6
#     Node 9, Type 0, BuildingBlock: BETFEN_clean_sbu_0, # of connection points: 6
#     Node 10, Type 0, BuildingBlock: BETFEN_clean_sbu_0, # of connection points: 6
#     Node 11, Type 0, BuildingBlock: BETFEN_clean_sbu_0, # of connection points: 6
#     Edge 12, Type (0, 0), BuildingBlock: CIFDUS_clean_linker_0, # of connection points: 2
#     Edge 13, Type (0, 0), BuildingBlock: CIFDUS_clean_linker_0, # of connection points: 2
#     Edge 14, Type (0, 0), BuildingBlock: CIFDUS_clean_linker_0, # of connection points: 2
#     Edge 15, Type (0, 0), BuildingBlock: CIFDUS_clean_linker_0, # of connection points: 2
#     Edge 16, Type (0, 0), BuildingBlock: CIFDUS_clean_linker_0, # of connection points: 2
#     Edge 17, Type (0, 0), BuildingBlock: CIFDUS_clean_linker_0, # of connection points: 2
#     Edge 18, Type (0, 0), BuildingBlock: CIFDUS_clean_linker_0, # of connection points: 2
#     Edge 19, Type (0, 0), BuildingBlock: CIFDUS_clean_linker_0, # of connection points: 2
#     Edge 20, Type (0, 0), BuildingBlock: CIFDUS_clean_linker_0, # of connection points: 2
#     Edge 21, Type (0, 0), BuildingBlock: CIFDUS_clean_linker_0, # of connection points: 2
#     Edge 22, Type (0, 0), BuildingBlock: CIFDUS_clean_linker_0, # of connection points: 2
#     Edge 23, Type (0, 0), BuildingBlock: CIFDUS_clean_linker_0, # of connection points: 2
#     Edge 24, Type (0, 0), BuildingBlock: CIFDUS_clean_linker_0, # of connection points: 2
#     Edge 25, Type (0, 0), BuildingBlock: CIFDUS_clean_linker_0, # of connection points: 2
#     Edge 26, Type (0, 0), BuildingBlock: CIFDUS_clean_linker_0, # of connection points: 2
#     Edge 27, Type (0, 0), BuildingBlock: CIFDUS_clean_linker_0, # of connection points: 2
#     Edge 28, Type (0, 0), BuildingBlock: CIFDUS_clean_linker_0, # of connection points: 2
#     Edge 29, Type (0, 0), BuildingBlock: CIFDUS_clean_linker_0, # of connection points: 2
#     Edge 30, Type (0, 0), BuildingBlock: CIFDUS_clean_linker_0, # of connection points: 2
#     Edge 31, Type (0, 0), BuildingBlock: CIFDUS_clean_linker_0, # of connection points: 2
#     Edge 32, Type (0, 0), BuildingBlock: CIFDUS_clean_linker_0, # of connection points: 2
#     Edge 33, Type (0, 0), BuildingBlock: CIFDUS_clean_linker_0, # of connection points: 2
#     Edge 34, Type (0, 0), BuildingBlock: CIFDUS_clean_linker_0, # of connection points: 2
#     Edge 35, Type (0, 0), BuildingBlock: CIFDUS_clean_linker_0, # of connection points: 2
#     Edge 36, Type (0, 0), BuildingBlock: CIFDUS_clean_linker_0, # of connection points: 2
#     Edge 37, Type (0, 0), BuildingBlock: CIFDUS_clean_linker_0, # of connection points: 2
#     Edge 38, Type (0, 0), BuildingBlock: CIFDUS_clean_linker_0, # of connection points: 2
#     Edge 39, Type (0, 0), BuildingBlock: CIFDUS_clean_linker_0, # of connection points: 2
#     Edge 40, Type (0, 0), BuildingBlock: CIFDUS_clean_linker_0, # of connection points: 2
#     Edge 41, Type (0, 0), BuildingBlock: CIFDUS_clean_linker_0, # of connection points: 2
#     Edge 42, Type (0, 0), BuildingBlock: CIFDUS_clean_linker_0, # of connection points: 2
#     Edge 43, Type (0, 0), BuildingBlock: CIFDUS_clean_linker_0, # of connection points: 2
#     Edge 44, Type (0, 0), BuildingBlock: CIFDUS_clean_linker_0, # of connection points: 2
#     Edge 45, Type (0, 0), BuildingBlock: CIFDUS_clean_linker_0, # of connection points: 2
#     Edge 46, Type (0, 0), BuildingBlock: CIFDUS_clean_linker_0, # of connection points: 2
#     Edge 47, Type (0, 0), BuildingBlock: CIFDUS_clean_linker_0, # of connection points: 2
# Relax obj value: 0.212
# Max RMSD: 0.309
# Mean RMSD: 0.296
data_MOF--net-lcy-e--node1-BETFEN_clean_sbu_0--edge1-CIFDUS_clean_linker_0
_symmetry_space_group_name_H-M    P1
_symmetry_Int_Tables_number       1
_symmetry_cell_setting            triclinic
loop_
_symmetry_equiv_pos_as_xyz
'x, y, z'
_cell_length_a     40.46208
_cell_length_b     39.454486
_cell_length_c     41.425722
_cell_angle_alpha  90.198155
_cell_angle_beta   88.569513
_cell_angle_gamma 88.30221
loop_
_atom_site_label
_atom_site_type_symbol
_atom_site_fract_x
_atom_site_fract_y
_atom_site_fract_z
_atom_type_partial_charge
Pr0 Pr 0.1212 0.23424 0.52884 0.0
Pr1 Pr 0.12224 0.28712 0.4681 0.0
C2 C 0.10487 0.20295 0.58458 0.0
C3 C 0.09841 0.16943 0.59907 0.0
C4 C 0.12368 0.14475 0.6034 0.0
C5 C 0.11665 0.11381 0.61829 0.0
C6 C 0.08424 0.10692 0.62904 0.0
C7 C 0.05908 0.13164 0.62449 0.0
C8 C 0.06612 0.1625 0.60982 0.0
C9 C 0.16946 0.21274 0.48214 0.0
C10 C 0.06683 0.22473 0.47006 0.0
C11 C 0.12686 0.31353 0.40808 0.0
C12 C 0.14512 0.33363 0.3836 0.0
C13 C 0.14495 0.36921 0.38512 0.0
C14 C 0.15907 0.38797 0.35999 0.0
C15 C 0.17366 0.37171 0.33259 0.0
C16 C 0.17411 0.33609 0.33125 0.0
C17 C 0.15999 0.3173 0.35645 0.0
C18 C 0.08885 0.30992 0.52471 0.0
C19 C 0.17073 0.3013 0.52647 0.0
O20 O 0.08315 0.21437 0.56409 0.0
O21 O 0.13535 0.21072 0.57678 0.0
O22 O 0.15022 0.23839 0.48102 0.0
O23 O 0.16265 0.19576 0.50821 0.0
O24 O 0.0782 0.25238 0.45625 0.0
O25 O 0.07958 0.21177 0.49667 0.0
O26 O 0.13873 0.28337 0.41546 0.0
O27 O 0.11167 0.32923 0.43241 0.0
O28 O 0.08962 0.27997 0.51363 0.0
O29 O 0.10263 0.3304 0.50403 0.0
O30 O 0.15125 0.2823 0.5449 0.0
O31 O 0.16978 0.30102 0.49462 0.0
H32 H 0.14885 0.14935 0.59547 0.0
H33 H 0.13656 0.09522 0.62128 0.0
H34 H 0.034 0.12748 0.63299 0.0
H35 H 0.04623 0.18122 0.60719 0.0
H36 H 0.13325 0.38268 0.40538 0.0
H37 H 0.15773 0.41538 0.36167 0.0
H38 H 0.18537 0.32271 0.31072 0.0
H39 H 0.16011 0.28992 0.35435 0.0
Pr40 Pr 0.95969 0.87855 0.73165 0.0
Pr41 Pr 0.01542 0.89484 0.77899 0.0
C42 C 0.90745 0.87967 0.69216 0.0
C43 C 0.89706 0.89047 0.65944 0.0
C44 C 0.89088 0.8659 0.63589 0.0
C45 C 0.87846 0.87532 0.60586 0.0
C46 C 0.87156 0.90962 0.59858 0.0
C47 C 0.8785 0.9343 0.6219 0.0
C48 C 0.89104 0.92486 0.65196 0.0
C49 C 0.01409 0.83448 0.72592 0.0
C50 C 0.01103 0.9426 0.71489 0.0
C51 C 0.06882 0.89399 0.8175 0.0
C52 C 0.0952 0.87358 0.83361 0.0
C53 C 0.10394 0.88222 0.86511 0.0
C54 C 0.13126 0.86638 0.87965 0.0
C55 C 0.15073 0.84139 0.86308 0.0
C56 C 0.14126 0.83196 0.83183 0.0
C57 C 0.11391 0.84792 0.81723 0.0
C58 C 0.95433 0.93108 0.78961 0.0
C59 C 0.96403 0.83648 0.79929 0.0
O60 O 0.91246 0.90327 0.71366 0.0
O61 O 0.92822 0.85371 0.69413 0.0
O62 O 0.01627 0.86633 0.72972 0.0
O63 O 0.9837 0.82541 0.72317 0.0
O64 O 0.02906 0.93422 0.73981 0.0
O65 O 0.9838 0.92658 0.70804 0.0
O66 O 0.07058 0.8967 0.78606 0.0
O67 O 0.03839 0.89332 0.82891 0.0
O68 O 0.95885 0.90064 0.78203 0.0
O69 O 0.98281 0.9446 0.79445 0.0
O70 O 0.94297 0.85123 0.77932 0.0
O71 O 0.9959 0.84244 0.79653 0.0
H72 H 0.8951 0.83922 0.64091 0.0
H73 H 0.87399 0.85559 0.58841 0.0
H74 H 0.87319 0.9609 0.61741 0.0
H75 H 0.89531 0.94452 0.66955 0.0
H76 H 0.09008 0.90195 0.87827 0.0
H77 H 0.13724 0.87395 0.90392 0.0
H78 H 0.15563 0.81301 0.81816 0.0
H79 H 0.10792 0.84076 0.79284 0.0
Pr80 Pr 0.37121 0.73268 0.98349 0.0
Pr81 Pr 0.35993 0.79291 0.028 0.0
C82 C 0.37945 0.67353 0.95049 0.0
C83 C 0.37266 0.66111 0.91776 0.0
C84 C 0.35993 0.68308 0.89422 0.0
C85 C 0.35274 0.67076 0.86346 0.0
C86 C 0.35814 0.63621 0.85566 0.0
C87 C 0.3709 0.6144 0.87949 0.0
C88 C 0.37806 0.62674 0.91019 0.0
C89 C 0.41149 0.78795 0.96889 0.0
C90 C 0.31381 0.78848 0.96187 0.0
C91 C 0.35716 0.85508 0.05542 0.0
C92 C 0.37761 0.87995 0.07214 0.0
C93 C 0.37065 0.88779 0.10472 0.0
C94 C 0.38757 0.91327 0.12029 0.0
C95 C 0.4117 0.93185 0.10358 0.0
C96 C 0.41934 0.92334 0.07117 0.0
C97 C 0.40247 0.8977 0.0556 0.0
C98 C 0.32255 0.73696 0.04578 0.0
C99 C 0.40892 0.73562 0.05429 0.0
O100 O 0.3536 0.681 0.96885 0.0
O101 O 0.40264 0.69566 0.95287 0.0
O102 O 0.40531 0.77674 0.99682 0.0
O103 O 0.39635 0.77072 0.94727 0.0
O104 O 0.32543 0.8075 0.98505 0.0
O105 O 0.32528 0.7571 0.95707 0.0
O106 O 0.36299 0.84986 0.02453 0.0
O107 O 0.34941 0.82756 0.07109 0.0
O108 O 0.32723 0.74694 0.01706 0.0
O109 O 0.33466 0.75797 0.06627 0.0
O110 O 0.39347 0.71555 0.03418 0.0
O111 O 0.40656 0.76873 0.05107 0.0
H112 H 0.35548 0.70973 0.89968 0.0
H113 H 0.34327 0.68836 0.8457 0.0
H114 H 0.37486 0.58758 0.87463 0.0
H115 H 0.38758 0.60935 0.92813 0.0
H116 H 0.3516 0.87462 0.11806 0.0
H117 H 0.38147 0.91865 0.14543 0.0
H118 H 0.43758 0.93725 0.05748 0.0
H119 H 0.40841 0.89238 0.03042 0.0
Pr120 Pr 0.52542 0.15007 0.21859 0.0
Pr121 Pr 0.46798 0.14331 0.26842 0.0
C122 C 0.57879 0.14136 0.17826 0.0
C123 C 0.59001 0.1333 0.14442 0.0
C124 C 0.58931 0.15824 0.12023 0.0
C125 C 0.6036 0.1517 0.08956 0.0
C126 C 0.61914 0.12009 0.08217 0.0
C127 C 0.61876 0.09473 0.10599 0.0
C128 C 0.60453 0.10132 0.13674 0.0
C129 C 0.47456 0.1979 0.2103 0.0
C130 C 0.46731 0.09226 0.20622 0.0
C131 C 0.4148 0.14803 0.30965 0.0
C132 C 0.38758 0.16557 0.32873 0.0
C133 C 0.38352 0.15817 0.36171 0.0
C134 C 0.35529 0.16975 0.37928 0.0
C135 C 0.33014 0.18908 0.36437 0.0
C136 C 0.33488 0.19768 0.3316 0.0
C137 C 0.36315 0.18595 0.31397 0.0
C138 C 0.52495 0.10131 0.27857 0.0
C139 C 0.52316 0.19805 0.2829 0.0
O140 O 0.56673 0.11694 0.19592 0.0
O141 O 0.56424 0.17089 0.18425 0.0
O142 O 0.46989 0.16706 0.2172 0.0
O143 O 0.50566 0.20374 0.20531 0.0
O144 O 0.44995 0.10524 0.23075 0.0
O145 O 0.49698 0.10321 0.19814 0.0
O146 O 0.41277 0.14629 0.27826 0.0
O147 O 0.44526 0.14749 0.31963 0.0
O148 O 0.52409 0.13172 0.27035 0.0
O149 O 0.49499 0.09095 0.28328 0.0
O150 O 0.54323 0.17804 0.26507 0.0
O151 O 0.49088 0.19544 0.28104 0.0
H152 H 0.57849 0.18321 0.12517 0.0
H153 H 0.60298 0.17171 0.07174 0.0
H154 H 0.63076 0.07023 0.10138 0.0
H155 H 0.60587 0.08164 0.15487 0.0
H156 H 0.40172 0.14232 0.37373 0.0
H157 H 0.35296 0.1631 0.40456 0.0
H158 H 0.3161 0.21234 0.31918 0.0
H159 H 0.36533 0.19193 0.28852 0.0
Pr160 Pr 0.6258 0.23911 0.52616 0.0
Pr161 Pr 0.63575 0.30226 0.48289 0.0
C162 C 0.62702 0.18562 0.56681 0.0
C163 C 0.64113 0.17413 0.59782 0.0
C164 C 0.62045 0.1732 0.62556 0.0
C165 C 0.63257 0.1617 0.65498 0.0
C166 C 0.66568 0.15038 0.6575 0.0
C167 C 0.6865 0.15143 0.62973 0.0
C168 C 0.67436 0.16314 0.6002 0.0
C169 C 0.57676 0.2901 0.53246 0.0
C170 C 0.68344 0.29392 0.54636 0.0
C171 C 0.63404 0.36602 0.45924 0.0
C172 C 0.62287 0.39031 0.43433 0.0
C173 C 0.62513 0.38289 0.40117 0.0
C174 C 0.61557 0.40744 0.37847 0.0
C175 C 0.60359 0.43988 0.38847 0.0
C176 C 0.6009 0.4468 0.42178 0.0
C177 C 0.61041 0.42232 0.44436 0.0
C178 C 0.66787 0.24281 0.45944 0.0
C179 C 0.58836 0.2429 0.45701 0.0
O180 O 0.64637 0.18723 0.54104 0.0
O181 O 0.60503 0.2105 0.56867 0.0
O182 O 0.60751 0.29484 0.53097 0.0
O183 O 0.57047 0.25815 0.53021 0.0
O184 O 0.67708 0.31106 0.51984 0.0
O185 O 0.66666 0.26695 0.55484 0.0
O186 O 0.61152 0.35448 0.47921 0.0
O187 O 0.658 0.34389 0.4522 0.0
O188 O 0.66605 0.25217 0.48871 0.0
O189 O 0.65478 0.26592 0.44085 0.0
O190 O 0.60321 0.222 0.47741 0.0
O191 O 0.59077 0.27619 0.45963 0.0
H192 H 0.59468 0.1813 0.6245 0.0
H193 H 0.61589 0.16184 0.67584 0.0
H194 H 0.71204 0.14255 0.6306 0.0
H195 H 0.69092 0.16328 0.57926 0.0
H196 H 0.63448 0.35831 0.3928 0.0
H197 H 0.61758 0.40098 0.35306 0.0
H198 H 0.59231 0.47151 0.43049 0.0
H199 H 0.60854 0.42866 0.46983 0.0
Pr200 Pr 0.97706 0.3997 0.71494 0.0
Pr201 Pr 0.02635 0.38743 0.7692 0.0
C202 C 0.93892 0.39603 0.6626 0.0
C203 C 0.90758 0.3849 0.64944 0.0
C204 C 0.88014 0.3774 0.66931 0.0
C205 C 0.8504 0.36793 0.65552 0.0
C206 C 0.84772 0.36607 0.62172 0.0
C207 C 0.87565 0.37284 0.60216 0.0
C208 C 0.9052 0.38214 0.61589 0.0
C209 C 0.96723 0.44382 0.76719 0.0
C210 C 0.96271 0.33859 0.77057 0.0
C211 C 0.06308 0.39679 0.82142 0.0
C212 C 0.08029 0.40359 0.85178 0.0
C213 C 0.11237 0.39061 0.85682 0.0
C214 C 0.12873 0.39831 0.88528 0.0
C215 C 0.11318 0.41889 0.90948 0.0
C216 C 0.08084 0.43146 0.90436 0.0
C217 C 0.06469 0.42403 0.87584 0.0
C218 C 0.04019 0.3506 0.71099 0.0
C219 C 0.04608 0.44343 0.71355 0.0
O220 O 0.96079 0.37246 0.6701 0.0
O221 O 0.93788 0.42195 0.68245 0.0
O222 O 0.97376 0.4122 0.76966 0.0
O223 O 0.96381 0.45271 0.73726 0.0
O224 O 0.98602 0.35152 0.78805 0.0
O225 O 0.95638 0.35043 0.7413 0.0
O226 O 0.04128 0.41898 0.81102 0.0
O227 O 0.06665 0.36895 0.80411 0.0
O228 O 0.03014 0.38068 0.71424 0.0
O229 O 0.04631 0.33796 0.73936 0.0
O230 O 0.02375 0.42918 0.69534 0.0
O231 O 0.0474 0.43613 0.74451 0.0
H232 H 0.88163 0.37923 0.69533 0.0
H233 H 0.8293 0.36294 0.67121 0.0
H234 H 0.87465 0.37101 0.57611 0.0
H235 H 0.92622 0.38753 0.6002 0.0
H236 H 0.12502 0.37498 0.83855 0.0
H237 H 0.15377 0.38853 0.88803 0.0
H238 H 0.06772 0.44675 0.92256 0.0
H239 H 0.03981 0.43419 0.8727 0.0
Pr240 Pr 0.87399 0.78829 0.04305 0.0
Pr241 Pr 0.87067 0.72888 0.99383 0.0
C242 C 0.86308 0.84307 0.08199 0.0
C243 C 0.84887 0.85489 0.11378 0.0
C244 C 0.86123 0.84306 0.14328 0.0
C245 C 0.84892 0.8566 0.1728 0.0
C246 C 0.82394 0.88231 0.17363 0.0
C247 C 0.81137 0.89367 0.14401 0.0
C248 C 0.82369 0.8802 0.11459 0.0
C249 C 0.92008 0.73642 0.05331 0.0
C250 C 0.81661 0.72861 0.05327 0.0
C251 C 0.87758 0.675 0.95313 0.0
C252 C 0.89598 0.64909 0.93294 0.0
C253 C 0.88826 0.61476 0.9364 0.0
C254 C 0.90128 0.59012 0.91469 0.0
C255 C 0.92238 0.59917 0.88881 0.0
C256 C 0.93134 0.63343 0.88636 0.0
C257 C 0.91821 0.65809 0.90805 0.0
C258 C 0.83046 0.78715 0.98138 0.0
C259 C 0.92508 0.78503 0.98069 0.0
O260 O 0.84251 0.83402 0.05984 0.0
O261 O 0.89059 0.82471 0.0815 0.0
O262 O 0.89038 0.73149 0.04583 0.0
O263 O 0.92576 0.76832 0.05765 0.0
O264 O 0.8314 0.71036 0.03026 0.0
O265 O 0.82661 0.75917 0.0611 0.0
O266 O 0.87649 0.67195 0.98456 0.0
O267 O 0.8754 0.70648 0.94333 0.0
O268 O 0.85963 0.78641 0.99055 0.0
O269 O 0.8205 0.75644 0.97716 0.0
O270 O 0.90478 0.80594 0.99736 0.0
O271 O 0.92238 0.75204 0.98372 0.0
H272 H 0.88067 0.82361 0.14361 0.0
H273 H 0.859 0.84685 0.19501 0.0
H274 H 0.79257 0.91375 0.14344 0.0
H275 H 0.81392 0.89011 0.09229 0.0
H276 H 0.87094 0.60712 0.95518 0.0
H277 H 0.89344 0.56425 0.91732 0.0
H278 H 0.948 0.64141 0.86719 0.0
H279 H 0.92471 0.6843 0.90472 0.0
Pr280 Pr 0.5206 0.63825 0.22802 0.0
Pr281 Pr 0.47293 0.65092 0.29229 0.0
C282 C 0.55045 0.64541 0.16974 0.0
C283 C 0.58299 0.65723 0.15904 0.0
C284 C 0.60366 0.67272 0.18107 0.0
C285 C 0.63409 0.68518 0.17072 0.0
C286 C 0.64448 0.68205 0.13821 0.0
C287 C 0.62379 0.66618 0.11628 0.0
C288 C 0.59322 0.65395 0.12663 0.0
C289 C 0.54029 0.59434 0.27785 0.0
C290 C 0.54103 0.6974 0.28086 0.0
C291 C 0.4488 0.65712 0.35336 0.0
C292 C 0.42458 0.64877 0.37911 0.0
C293 C 0.41847 0.67231 0.40408 0.0
C294 C 0.3988 0.66407 0.43093 0.0
C295 C 0.38447 0.63205 0.43344 0.0
C296 C 0.39017 0.60861 0.40799 0.0
C297 C 0.41013 0.61687 0.38108 0.0
C298 C 0.45015 0.67752 0.23412 0.0
C299 C 0.45178 0.59397 0.24004 0.0
O300 O 0.53071 0.6686 0.18301 0.0
O301 O 0.55023 0.61652 0.18516 0.0
O302 O 0.51715 0.6165 0.27885 0.0
O303 O 0.55538 0.59531 0.24983 0.0
O304 O 0.51392 0.69129 0.29816 0.0
O305 O 0.54954 0.68034 0.25425 0.0
O306 O 0.47 0.63323 0.34384 0.0
O307 O 0.44016 0.67816 0.33041 0.0
O308 O 0.47979 0.67693 0.24331 0.0
O309 O 0.4304 0.66666 0.25697 0.0
O310 O 0.47324 0.60653 0.21874 0.0
O311 O 0.45075 0.60232 0.27105 0.0
H312 H 0.59617 0.67533 0.20624 0.0
H313 H 0.64964 0.69693 0.18822 0.0
H314 H 0.63101 0.66372 0.09101 0.0
H315 H 0.57748 0.6422 0.1093 0.0
H316 H 0.4298 0.69685 0.40328 0.0
H317 H 0.39563 0.6826 0.45018 0.0
H318 H 0.37927 0.58389 0.40884 0.0
H319 H 0.41472 0.59819 0.36215 0.0
Pr320 Pr 0.21281 0.53571 0.13521 0.0
Pr321 Pr 0.26178 0.48342 0.11103 0.0
C322 C 0.16586 0.58484 0.14475 0.0
C323 C 0.13761 0.6002 0.12763 0.0
C324 C 0.10677 0.60372 0.14372 0.0
C325 C 0.0799 0.61934 0.12853 0.0
C326 C 0.08347 0.63198 0.09701 0.0
C327 C 0.11415 0.62756 0.08057 0.0
C328 C 0.14095 0.61167 0.09567 0.0
C329 C 0.2156 0.47969 0.17559 0.0
C330 C 0.19594 0.4895 0.06966 0.0
C331 C 0.30588 0.43121 0.1021 0.0
C332 C 0.32695 0.40665 0.11973 0.0
C333 C 0.36022 0.40215 0.11009 0.0
C334 C 0.38047 0.37795 0.12506 0.0
C335 C 0.36788 0.35754 0.15003 0.0
C336 C 0.33448 0.36205 0.15975 0.0
C337 C 0.3142 0.38649 0.14482 0.0
C338 C 0.26554 0.54687 0.07938 0.0
C339 C 0.28304 0.53154 0.17147 0.0
O340 O 0.19565 0.59074 0.13344 0.0
O341 O 0.16249 0.5537 0.15467 0.0
O342 O 0.21555 0.47743 0.14491 0.0
O343 O 0.21346 0.51088 0.18544 0.0
O344 O 0.21973 0.46827 0.07788 0.0
O345 O 0.19093 0.51856 0.08524 0.0
O346 O 0.2739 0.4276 0.10408 0.0
O347 O 0.31435 0.46292 0.10198 0.0
O348 O 0.26207 0.54173 0.10902 0.0
O349 O 0.26804 0.51808 0.06397 0.0
O350 O 0.25889 0.55295 0.16345 0.0
O351 O 0.28541 0.5007 0.1591 0.0
H352 H 0.10362 0.59491 0.16833 0.0
H353 H 0.05669 0.62273 0.14193 0.0
H354 H 0.11753 0.63684 0.05617 0.0
H355 H 0.16435 0.60885 0.08251 0.0
H356 H 0.37051 0.41713 0.09062 0.0
H357 H 0.40594 0.37481 0.11664 0.0
H358 H 0.32413 0.34694 0.17908 0.0
H359 H 0.28857 0.38943 0.15278 0.0
Pr360 Pr 0.77005 0.04245 0.87494 0.0
Pr361 Pr 0.70545 0.99034 0.87385 0.0
C362 C 0.82399 0.07714 0.85581 0.0
C363 C 0.83552 0.11074 0.84418 0.0
C364 C 0.84065 0.13805 0.86525 0.0
C365 C 0.85307 0.16874 0.85342 0.0
C366 C 0.86071 0.1729 0.82025 0.0
C367 C 0.85547 0.14547 0.79937 0.0
C368 C 0.8432 0.11495 0.81114 0.0
C369 C 0.71995 0.06174 0.92085 0.0
C370 C 0.70749 0.05802 0.82449 0.0
C371 C 0.6449 0.96344 0.87978 0.0
C372 C 0.61973 0.93767 0.88752 0.0
C373 C 0.59579 0.93077 0.86466 0.0
C374 C 0.56941 0.90971 0.87219 0.0
C375 C 0.56613 0.89468 0.90289 0.0
C376 C 0.59047 0.90129 0.92573 0.0
C377 C 0.61688 0.92259 0.91818 0.0
C378 C 0.76367 0.96852 0.84068 0.0
C379 C 0.76887 0.96944 0.91806 0.0
O380 O 0.80545 0.06052 0.83618 0.0
O381 O 0.81562 0.07292 0.88635 0.0
O382 O 0.71999 0.03789 0.90055 0.0
O383 O 0.74712 0.07821 0.91675 0.0
O384 O 0.69086 0.03229 0.83643 0.0
O385 O 0.73676 0.0666 0.83495 0.0
O386 O 0.6593 0.9791 0.90333 0.0
O387 O 0.66273 0.96144 0.85288 0.0
O388 O 0.75276 0.99873 0.84384 0.0
O389 O 0.74165 0.94751 0.85148 0.0
O390 O 0.78746 0.99232 0.90292 0.0
O391 O 0.73619 0.96944 0.91636 0.0
H392 H 0.83528 0.1357 0.89087 0.0
H393 H 0.8565 0.18928 0.8703 0.0
H394 H 0.86162 0.1472 0.77385 0.0
H395 H 0.84015 0.09431 0.79425 0.0
H396 H 0.59693 0.94252 0.84106 0.0
H397 H 0.55105 0.906 0.85405 0.0
H398 H 0.5892 0.88997 0.94948 0.0
H399 H 0.63478 0.92762 0.93648 0.0
Pr400 Pr 0.77599 0.04059 0.37818 0.0
Pr401 Pr 0.72867 0.98584 0.39161 0.0
C402 C 0.81366 0.09573 0.371 0.0
C403 C 0.84401 0.10834 0.38597 0.0
C404 C 0.87034 0.11912 0.36624 0.0
C405 C 0.89947 0.13045 0.3798 0.0
C406 C 0.90303 0.1315 0.41356 0.0
C407 C 0.87653 0.12057 0.43328 0.0
C408 C 0.84747 0.10903 0.41967 0.0
C409 C 0.79022 0.98134 0.34187 0.0
C410 C 0.79547 0.98954 0.43723 0.0
C411 C 0.69737 0.92693 0.40065 0.0
C412 C 0.67489 0.90265 0.38618 0.0
C413 C 0.6541 0.88418 0.40663 0.0
C414 C 0.63367 0.85969 0.39409 0.0
C415 C 0.63349 0.85308 0.36067 0.0
C416 C 0.65428 0.87184 0.34011 0.0
C417 C 0.67478 0.89646 0.35275 0.0
C418 C 0.71422 0.04663 0.42533 0.0
C419 C 0.70318 0.0397 0.3401 0.0
O420 O 0.78659 0.09559 0.38892 0.0
O421 O 0.81735 0.06874 0.35279 0.0
O422 O 0.76165 0.99477 0.34612 0.0
O423 O 0.8119 0.99756 0.35797 0.0
O424 O 0.77219 0.97029 0.42602 0.0
O425 O 0.80018 0.01989 0.42513 0.0
O426 O 0.72717 0.92876 0.38788 0.0
O427 O 0.68481 0.95629 0.41026 0.0
O428 O 0.74237 0.03228 0.42223 0.0
O429 O 0.6919 0.02901 0.41151 0.0
O430 O 0.72683 0.05891 0.35137 0.0
O431 O 0.70285 0.00716 0.3467 0.0
H432 H 0.86846 0.11857 0.3402 0.0
H433 H 0.91938 0.13798 0.36368 0.0
H434 H 0.87799 0.12132 0.45933 0.0
H435 H 0.82773 0.10064 0.43559 0.0
H436 H 0.65401 0.88837 0.43251 0.0
H437 H 0.61846 0.84543 0.41073 0.0
H438 H 0.65454 0.86769 0.31426 0.0
H439 H 0.69065 0.91046 0.33648 0.0
Pr440 Pr 0.23471 0.55246 0.63161 0.0
Pr441 Pr 0.29024 0.5014 0.64146 0.0
C442 C 0.17879 0.59081 0.62615 0.0
C443 C 0.16154 0.61922 0.64369 0.0
C444 C 0.15573 0.65015 0.62781 0.0
C445 C 0.1386 0.67702 0.64355 0.0
C446 C 0.12666 0.67342 0.67547 0.0
C447 C 0.13317 0.6427 0.69161 0.0
C448 C 0.1505 0.61591 0.67595 0.0
C449 C 0.2902 0.56291 0.5915 0.0
C450 C 0.28526 0.57049 0.68911 0.0
C451 C 0.34965 0.46886 0.6458 0.0
C452 C 0.37381 0.44671 0.62804 0.0
C453 C 0.40656 0.44484 0.63828 0.0
C454 C 0.43005 0.42365 0.62238 0.0
C455 C 0.42129 0.40382 0.5958 0.0
C456 C 0.38841 0.40613 0.58531 0.0
C457 C 0.36488 0.42745 0.60126 0.0
C458 C 0.23273 0.49036 0.67861 0.0
C459 C 0.23468 0.47675 0.59379 0.0
O460 O 0.17954 0.56102 0.63994 0.0
O461 O 0.20658 0.59775 0.61126 0.0
O462 O 0.2781 0.53432 0.5972 0.0
O463 O 0.27408 0.58679 0.60732 0.0
O464 O 0.30445 0.54596 0.67642 0.0
O465 O 0.25517 0.57631 0.6785 0.0
O466 O 0.34606 0.50003 0.6355 0.0
O467 O 0.3218 0.45564 0.65539 0.0
O468 O 0.24609 0.51844 0.67433 0.0
O469 O 0.25024 0.46602 0.66472 0.0
O470 O 0.21668 0.50256 0.60605 0.0
O471 O 0.26674 0.47426 0.59837 0.0
H472 H 0.16402 0.65336 0.60296 0.0
H473 H 0.13362 0.70018 0.63032 0.0
H474 H 0.12451 0.63924 0.7163 0.0
H475 H 0.15484 0.59252 0.689 0.0
H476 H 0.41391 0.45956 0.65889 0.0
H477 H 0.45492 0.42219 0.63146 0.0
H478 H 0.38087 0.3915 0.56473 0.0
H479 H 0.33974 0.42877 0.59283 0.0
H480 H 0.1429 0.35769 0.55302 0.0
H481 H 0.23722 0.30913 0.52984 0.0
H482 H 0.26562 0.35994 0.54741 0.0
H483 H 0.26324 0.4185 0.56851 0.0
H484 H 0.16823 0.46826 0.58772 0.0
H485 H 0.14042 0.41702 0.5718 0.0
C486 C 0.16969 0.35814 0.55239 0.0
C487 C 0.18813 0.32955 0.54113 0.0
C488 C 0.18561 0.3879 0.56112 0.0
C489 C 0.22272 0.33065 0.53924 0.0
C490 C 0.23885 0.35979 0.54894 0.0
C491 C 0.23644 0.41835 0.56888 0.0
C492 C 0.21795 0.44739 0.57941 0.0
C493 C 0.22052 0.3887 0.55963 0.0
C494 C 0.1832 0.44652 0.57961 0.0
C495 C 0.16722 0.41706 0.57077 0.0
H496 H 0.82179 1.00225 0.84534 0.0
H497 H 0.78188 0.90947 0.81071 0.0
H498 H 0.8369 0.89057 0.79102 0.0
H499 H 0.89601 0.9003 0.78366 0.0
H500 H 0.93714 0.99291 0.81804 0.0
H501 H 0.88168 0.01293 0.83664 0.0
C502 C 0.82493 0.97859 0.83244 0.0
C503 C 0.79742 0.95792 0.82853 0.0
C504 C 0.85684 0.96793 0.82115 0.0
C505 C 0.80245 0.92606 0.81374 0.0
C506 C 0.83393 0.91528 0.80242 0.0
C507 C 0.89301 0.92496 0.79512 0.0
C508 C 0.92088 0.94507 0.79944 0.0
C509 C 0.86126 0.936 0.80598 0.0
C510 C 0.91624 0.97696 0.81431 0.0
C511 C 0.88451 0.98831 0.82505 0.0
H512 H 0.30378 0.68342 1.00761 0.0
H513 H 0.31032 0.71592 0.10673 0.0
H514 H 0.29201 0.66099 0.12523 0.0
H515 H 0.27645 0.60315 0.11399 0.0
H516 H 0.27361 0.56708 0.0158 0.0
H517 H 0.28864 0.62358 0.99617 0.0
C518 C 0.30139 0.67833 0.03319 0.0
C519 C 0.30877 0.70385 0.05569 0.0
C520 C 0.29168 0.64594 0.04386 0.0
C521 C 0.30488 0.69695 0.08881 0.0
C522 C 0.29449 0.66541 0.09949 0.0
C523 C 0.27898 0.60752 0.08822 0.0
C524 C 0.27388 0.58083 0.06638 0.0
C525 C 0.28819 0.63964 0.0773 0.0
C526 C 0.27744 0.58711 0.03312 0.0
C527 C 0.286 0.61945 0.02194 0.0
H528 H 0.58578 0.12805 0.28233 0.0
H529 H 0.53425 0.03504 0.29736 0.0
H530 H 0.58567 0.00724 0.31523 0.0
H531 H 0.64447 0.01019 0.32861 0.0
H532 H 0.69486 0.10448 0.31687 0.0
H533 H 0.64451 0.131 0.29554 0.0
C534 C 0.5857 0.10164 0.2894 0.0
C535 C 0.55606 0.08363 0.28852 0.0
C536 C 0.61517 0.08612 0.30021 0.0
C537 C 0.5566 0.04947 0.29785 0.0
C538 C 0.58602 0.03361 0.30806 0.0
C539 C 0.64472 0.03645 0.321 0.0
C540 C 0.67378 0.05519 0.32409 0.0
C541 C 0.61539 0.05177 0.30956 0.0
C542 C 0.67315 0.08934 0.31455 0.0
C543 C 0.64426 0.10455 0.30248 0.0
H544 H 0.70386 0.19281 0.48989 0.0
H545 H 0.64878 0.21329 0.40396 0.0
H546 H 0.65624 0.15423 0.38698 0.0
H547 H 0.67796 0.09623 0.39659 0.0
H548 H 0.73931 0.07677 0.47833 0.0
H549 H 0.73005 0.13557 0.49692 0.0
C550 C 0.69372 0.18432 0.46737 0.0
C551 C 0.67542 0.2074 0.44844 0.0
C552 C 0.69915 0.15036 0.45707 0.0
C553 C 0.66283 0.1961 0.41909 0.0
C554 C 0.66702 0.16225 0.40935 0.0
C555 C 0.68917 0.10491 0.41854 0.0
C556 C 0.70875 0.08214 0.43647 0.0
C557 C 0.68494 0.13907 0.42822 0.0
C558 C 0.72387 0.09384 0.46437 0.0
C559 C 0.71862 0.12744 0.47494 0.0
H560 H 0.08801 0.48853 0.7392 0.0
H561 H 0.07341 0.42731 0.65456 0.0
H562 H 0.13058 0.43518 0.63696 0.0
H563 H 0.1865 0.45439 0.6487 0.0
H564 H 0.20009 0.52118 0.72937 0.0
H565 H 0.14177 0.51587 0.74589 0.0
C566 C 0.09709 0.47778 0.71642 0.0
C567 C 0.07645 0.45713 0.6984 0.0
C568 C 0.13009 0.48265 0.70625 0.0
C569 C 0.08857 0.44342 0.66888 0.0
C570 C 0.12148 0.44756 0.65897 0.0
C571 C 0.17656 0.46793 0.66973 0.0
C572 C 0.19756 0.48746 0.6883 0.0
C573 C 0.14275 0.46614 0.67802 0.0
C574 C 0.18439 0.5055 0.71513 0.0
C575 C 0.15106 0.50262 0.72442 0.0
H576 H 0.7409 0.90921 0.93188 0.0
H577 H 0.83306 0.96106 0.93795 0.0
H578 H 0.85959 0.90945 0.95933 0.0
H579 H 0.85693 0.84923 0.97446 0.0
H580 H 0.76576 0.79659 0.96465 0.0
H581 H 0.73834 0.8492 0.94657 0.0
C582 C 0.76672 0.90958 0.93828 0.0
C583 C 0.78484 0.93937 0.93366 0.0
C584 C 0.78196 0.87958 0.94965 0.0
C585 C 0.81843 0.93876 0.94147 0.0
C586 C 0.83361 0.90918 0.95359 0.0
C587 C 0.83101 0.84922 0.96847 0.0
C588 C 0.81335 0.81893 0.97093 0.0
C589 C 0.81569 0.87938 0.95749 0.0
C590 C 0.77988 0.81944 0.96291 0.0
C591 C 0.76424 0.84954 0.95261 0.0
H592 H 0.38753 0.60333 0.25639 0.0
H593 H 0.45419 0.54346 0.19492 0.0
H594 H 0.40708 0.51613 0.17064 0.0
H595 H 0.34717 0.51249 0.16441 0.0
H596 H 0.28056 0.57787 0.22075 0.0
H597 H 0.32747 0.60004 0.2498 0.0
C598 C 0.39166 0.58379 0.23811 0.0
C599 C 0.42412 0.57481 0.22774 0.0
C600 C 0.36452 0.56958 0.22327 0.0
C601 C 0.42934 0.55037 0.20337 0.0
C602 C 0.40246 0.53492 0.18949 0.0
C603 C 0.3429 0.53122 0.18342 0.0
C604 C 0.31053 0.54332 0.19083 0.0
C605 C 0.36998 0.54475 0.1989 0.0
C606 C 0.30531 0.56817 0.21484 0.0
C607 C 0.33208 0.5808 0.23136 0.0
H608 H 0.55469 0.16489 0.3296 0.0
H609 H 0.5165 0.26377 0.30341 0.0
H610 H 0.53191 0.28641 0.35615 0.0
H611 H 0.55612 0.27751 0.40962 0.0
H612 H 0.58981 0.17691 0.43683 0.0
H613 H 0.5756 0.15526 0.38398 0.0
C614 C 0.55035 0.19154 0.33533 0.0
C615 C 0.53556 0.21305 0.31256 0.0
C616 C 0.5578 0.20379 0.36604 0.0
C617 C 0.52865 0.24713 0.32048 0.0
C618 C 0.53715 0.25989 0.35065 0.0
C619 C 0.55996 0.25076 0.40419 0.0
C620 C 0.57425 0.22897 0.42722 0.0
C621 C 0.55155 0.23836 0.37371 0.0
C622 C 0.5788 0.19432 0.41973 0.0
C623 C 0.57096 0.18192 0.38935 0.0
H624 H 0.09126 0.2746 0.58202 0.0
H625 H 0.06053 0.3705 0.54168 0.0
H626 H 0.04164 0.39046 0.59511 0.0
H627 H 0.03398 0.38103 0.65296 0.0
H628 H 0.06779 0.28715 0.69555 0.0
H629 H 0.08443 0.26541 0.64154 0.0
C630 C 0.07972 0.29946 0.58487 0.0
C631 C 0.07652 0.32064 0.55759 0.0
C632 C 0.06952 0.31109 0.61609 0.0
C633 C 0.06296 0.35353 0.56205 0.0
C634 C 0.05216 0.36497 0.59265 0.0
C635 C 0.04521 0.35587 0.6507 0.0
C636 C 0.0498 0.33591 0.67857 0.0
C637 C 0.05539 0.34404 0.61982 0.0
C638 C 0.06399 0.30315 0.6747 0.0
C639 C 0.07355 0.29077 0.64376 0.0
H640 H 0.99967 0.80889 0.84823 0.0
H641 H 0.89983 0.83545 0.82092 0.0
H642 H 0.88001 0.82536 0.87593 0.0
H643 H 0.89107 0.81101 0.93211 0.0
H644 H 0.9895 0.78063 0.95944 0.0
H645 H 0.01022 0.79122 0.90417 0.0
C646 C 0.97349 0.81193 0.85414 0.0
C647 C 0.95133 0.82301 0.83037 0.0
C648 C 0.96223 0.80643 0.88599 0.0
C649 C 0.91747 0.82675 0.83855 0.0
C650 C 0.90612 0.8214 0.87014 0.0
C651 C 0.9172 0.80753 0.92606 0.0
C652 C 0.93912 0.79645 0.9498 0.0
C653 C 0.92837 0.81196 0.89413 0.0
C654 C 0.97257 0.79027 0.94158 0.0
C655 C 0.98421 0.79586 0.90998 0.0
H656 H 0.48078 0.71424 0.18668 0.0
H657 H 0.39566 0.65358 0.20554 0.0
H658 H 0.37757 0.66229 0.15023 0.0
H659 H 0.38422 0.68985 0.09695 0.0
H660 H 0.46712 0.75387 0.07945 0.0
H661 H 0.48827 0.74047 0.13294 0.0
C662 C 0.45855 0.70257 0.1785 0.0
C663 C 0.43976 0.68311 0.20023 0.0
C664 C 0.448 0.7081 0.14661 0.0
C665 C 0.41056 0.66878 0.18942 0.0
C666 C 0.40025 0.67363 0.15768 0.0
C667 C 0.40737 0.7001 0.10459 0.0
C668 C 0.42448 0.72227 0.08398 0.0
C669 C 0.4186 0.69346 0.13606 0.0
C670 C 0.45381 0.73634 0.09466 0.0
C671 C 0.46575 0.72891 0.12538 0.0
H672 H 0.16946 0.36133 0.26699 0.0
H673 H 0.21045 0.42813 0.33743 0.0
H674 H 0.22948 0.46525 0.29449 0.0
H675 H 0.23092 0.48125 0.2378 0.0
H676 H 0.19063 0.4159 0.16611 0.0
H677 H 0.1758 0.37509 0.20854 0.0
C678 C 0.18303 0.3837 0.27291 0.0
C679 C 0.18794 0.39215 0.30562 0.0
C680 C 0.19407 0.40514 0.24788 0.0
C681 C 0.20553 0.42136 0.31269 0.0
C682 C 0.21665 0.44254 0.2881 0.0
C683 C 0.21922 0.45785 0.23135 0.0
C684 C 0.21153 0.45171 0.19897 0.0
C685 C 0.21044 0.43507 0.25576 0.0
C686 C 0.19681 0.42115 0.19088 0.0
C687 C 0.18813 0.398 0.2152 0.0
H688 H 0.88361 0.96469 0.55994 0.0
H689 H 0.82318 0.87653 0.56721 0.0
H690 H 0.79604 0.89225 0.51741 0.0
H691 H 0.78764 0.93199 0.47272 0.0
H692 H 0.84651 0.02128 0.46599 0.0
H693 H 0.87569 1.00425 0.51453 0.0
C694 C 0.86439 0.94898 0.55076 0.0
C695 C 0.8557 0.91931 0.5675 0.0
C696 C 0.84843 0.9584 0.5221 0.0
C697 C 0.83096 0.89914 0.55477 0.0
C698 C 0.81516 0.90826 0.52631 0.0
C699 C 0.80701 0.94767 0.48167 0.0
C700 C 0.81474 0.97794 0.46556 0.0
C701 C 0.82353 0.93791 0.50985 0.0
C702 C 0.83992 0.99787 0.47776 0.0
C703 C 0.85663 0.98817 0.50564 0.0
H704 H 0.34195 0.5597 0.72252 0.0
H705 H 0.25286 0.62264 0.72164 0.0
H706 H 0.26803 0.64931 0.77221 0.0
H707 H 0.30496 0.65253 0.81845 0.0
H708 H 0.39396 0.58949 0.81917 0.0
H709 H 0.3802 0.56498 0.76724 0.0
C710 C 0.32596 0.5795 0.73315 0.0
C711 C 0.29622 0.58899 0.71816 0.0
C712 C 0.33462 0.59451 0.76253 0.0
C713 C 0.27587 0.61469 0.73252 0.0
C714 C 0.28449 0.62994 0.76157 0.0
C715 C 0.32162 0.63378 0.80707 0.0
C716 C 0.35037 0.62276 0.82301 0.0
C717 C 0.31358 0.61974 0.77704 0.0
C718 C 0.37137 0.59808 0.8079 0.0
C719 C 0.36363 0.58416 0.77803 0.0
H720 H 0.62167 0.06346 0.0428 0.0
H721 H 0.6592 0.16435 0.05082 0.0
H722 H 0.69175 0.15579 1.00107 0.0
H723 H 0.71184 0.11904 0.95639 0.0
H724 H 0.67585 0.01792 0.94809 0.0
H725 H 0.64045 0.02711 0.9964 0.0
C726 C 0.63696 0.08357 0.03365 0.0
C727 C 0.63774 0.11461 0.05072 0.0
C728 C 0.6559 0.07846 1.0048 0.0
C729 C 0.65755 0.14043 0.03816 0.0
C730 C 0.67644 0.13548 1.00972 0.0
C731 C 0.69597 0.09912 0.96496 0.0
C732 C 0.69612 0.06794 0.94831 0.0
C733 C 0.67604 0.10456 0.99297 0.0
C734 C 0.67556 0.04237 0.95987 0.0
C735 C 0.65561 0.04755 0.98778 0.0
H736 H 0.63325 0.11101 0.70136 0.0
H737 H 0.7262 0.15966 0.68439 0.0
H738 H 0.74668 0.13705 0.73523 0.0
H739 H 0.7387 0.10219 0.78392 0.0
H740 H 0.64533 0.05407 0.8006 0.0
H741 H 0.62434 0.07858 0.75096 0.0
C742 C 0.65783 0.11716 0.70892 0.0
C743 C 0.67809 0.13706 0.68885 0.0
C744 C 0.66938 0.1043 0.73832 0.0
C745 C 0.71015 0.14404 0.69896 0.0
C746 C 0.72182 0.13132 0.72821 0.0
C747 C 0.7136 0.09739 0.77698 0.0
C748 C 0.69371 0.0762 0.79616 0.0
C749 C 0.70171 0.11125 0.74803 0.0
C750 C 0.66132 0.07016 0.78644 0.0
C751 C 0.64927 0.08411 0.75793 0.0
H752 H 0.19659 0.43004 0.03624 0.0
H753 H 0.1511 0.53042 0.03822 0.0
H754 H 0.12164 0.51753 0.98897 0.0
H755 H 0.11038 0.47838 0.9443 0.0
H756 H 0.15479 0.37743 0.94393 0.0
H757 H 0.18361 0.39036 0.99318 0.0
C758 C 0.18015 0.44916 0.02605 0.0
C759 C 0.17621 0.48124 0.04099 0.0
C760 C 0.16335 0.44162 0.99774 0.0
C761 C 0.15461 0.50551 0.02738 0.0
C762 C 0.13783 0.49819 0.9991 0.0
C763 C 0.126 0.45898 0.95514 0.0
C764 C 0.13042 0.42696 0.94001 0.0
C765 C 0.1422 0.46639 0.98393 0.0
C766 C 0.1513 0.4025 0.95441 0.0
C767 C 0.16763 0.40976 0.98283 0.0
H768 H 0.75188 0.95831 0.29294 0.0
H769 H 0.85125 0.95361 0.32837 0.0
H770 H 0.87014 0.92152 0.28059 0.0
H771 H 0.8595 0.89794 0.22697 0.0
H772 H 0.76026 0.90225 0.19113 0.0
H773 H 0.74056 0.93138 0.24036 0.0
C774 C 0.77758 0.94991 0.29036 0.0
C775 C 0.80011 0.95857 0.31426 0.0
C776 C 0.78849 0.93166 0.26243 0.0
C777 C 0.83334 0.94747 0.3104 0.0
C778 C 0.84424 0.92914 0.28298 0.0
C779 C 0.83345 0.90471 0.23004 0.0
C780 C 0.81158 0.89798 0.20496 0.0
C781 C 0.82218 0.92153 0.25856 0.0
C782 C 0.77793 0.90753 0.20955 0.0
C783 C 0.76654 0.92409 0.23788 0.0
H784 H 0.29478 0.62266 0.56022 0.0
H785 H 0.33159 0.51901 0.55729 0.0
H786 H 0.36397 0.5309 0.50789 0.0
H787 H 0.38171 0.57119 0.46557 0.0
H788 H 0.34089 0.67363 0.46746 0.0
H789 H 0.31031 0.66173 0.5172 0.0
C790 C 0.31005 0.60268 0.54892 0.0
C791 C 0.31102 0.57006 0.56252 0.0
C792 C 0.32782 0.60949 0.52023 0.0
C793 C 0.33056 0.54436 0.54731 0.0
C794 C 0.34898 0.55115 0.51905 0.0
C795 C 0.36581 0.5908 0.47659 0.0
C796 C 0.36409 0.62346 0.46275 0.0
C797 C 0.34768 0.58364 0.50517 0.0
C798 C 0.34346 0.64853 0.47776 0.0
C799 C 0.32574 0.64171 0.50621 0.0
H800 H 0.19969 0.25161 0.43488 0.0
H801 H 0.20284 0.15271 0.47899 0.0
H802 H 0.25181 0.13667 0.44654 0.0
H803 H 0.29502 0.15071 0.40698 0.0
H804 H 0.29388 0.24947 0.36272 0.0
H805 H 0.24305 0.26525 0.39327 0.0
C806 C 0.21089 0.22644 0.43701 0.0
C807 C 0.19743 0.20338 0.4594 0.0
C808 C 0.23968 0.21733 0.41832 0.0
C809 C 0.21256 0.171 0.46206 0.0
C810 C 0.24071 0.16177 0.44352 0.0
C811 C 0.28393 0.17585 0.40416 0.0
C812 C 0.29872 0.1989 0.38268 0.0
C813 C 0.25478 0.18481 0.4219 0.0
C814 C 0.28319 0.23105 0.3789 0.0
C815 C 0.25409 0.24017 0.39652 0.0
H816 H 0.03107 0.06701 0.62111 0.0
H817 H 0.12025 0.07448 0.67533 0.0
H818 H 0.10615 0.02374 0.70572 0.0
H819 H 0.0673 0.97879 0.71865 0.0
H820 H 0.97771 0.97166 0.66479 0.0
H821 H 0.99311 0.0208 0.63276 0.0
C822 C 0.0474 0.05758 0.63962 0.0
C823 C 0.07663 0.07469 0.64598 0.0
C824 C 0.03899 0.02852 0.65722 0.0
C825 C 0.09778 0.0617 0.66968 0.0
C826 C 0.0896 0.0328 0.68725 0.0
C827 C 0.05113 0.98785 0.69985 0.0
C828 C 0.02125 0.97152 0.69437 0.0
C829 C 0.0601 0.01621 0.68148 0.0
C830 C 1.00081 0.98364 0.66969 0.0
C831 C 0.00958 0.01183 0.65133 0.0
H832 H 0.19657 0.8731 0.89901 0.0
H833 H 0.1739 0.77489 0.86084 0.0
H834 H 0.22296 0.74997 0.88609 0.0
H835 H 0.2717 0.75567 0.92111 0.0
H836 H 0.29271 0.85449 0.95934 0.0
H837 H 0.24518 0.8791 0.9323 0.0
C838 C 0.20208 0.84616 0.89637 0.0
C839 C 0.18113 0.82601 0.87812 0.0
C840 C 0.2303 0.83192 0.9111 0.0
C841 C 0.18947 0.79124 0.8745 0.0
C842 C 0.21755 0.77687 0.88911 0.0
C843 C 0.26607 0.78263 0.92327 0.0
C844 C 0.28601 0.803 0.94252 0.0
C845 C 0.23814 0.79691 0.90768 0.0
C846 C 0.27799 0.83793 0.94499 0.0
C847 C 0.25065 0.85217 0.92948 0.0
H848 H 0.49785 0.04781 0.16284 0.0
H849 H 0.40308 0.0741 0.20799 0.0
H850 H 0.37796 0.02752 0.18015 0.0
H851 H 0.3824 0.97902 0.14363 0.0
H852 H 0.47672 0.95049 0.09914 0.0
H853 H 0.50221 0.9984 0.1256 0.0
C854 C 0.47168 0.04344 0.16642 0.0
C855 C 0.45251 0.0645 0.18763 0.0
C856 C 0.4572 0.01616 0.15045 0.0
C857 C 0.41862 0.0583 0.19204 0.0
C858 C 0.40411 0.03161 0.17608 0.0
C859 C 0.40865 0.98293 0.13997 0.0
C860 C 0.42759 0.96091 0.11958 0.0
C861 C 0.42316 0.01024 0.15546 0.0
C862 C 0.46142 0.9671 0.11454 0.0
C863 C 0.47607 0.99443 0.12979 0.0
H864 H 0.80429 0.31641 0.63799 0.0
H865 H 0.81964 0.39829 0.57095 0.0
H866 H 0.76977 0.38397 0.5428 0.0
H867 H 0.72319 0.34722 0.53568 0.0
H868 H 0.70709 0.26458 0.60173 0.0
H869 H 0.75549 0.2805 0.63198 0.0
C870 C 0.79646 0.33131 0.61745 0.0
C871 C 0.81592 0.35817 0.60641 0.0
C872 C 0.76764 0.32281 0.60113 0.0
C873 C 0.8055 0.37712 0.57963 0.0
C874 C 0.77688 0.36906 0.56357 0.0
C875 C 0.73002 0.33269 0.55679 0.0
C876 C 0.71145 0.30462 0.56624 0.0
C877 C 0.758 0.34173 0.57384 0.0
C878 C 0.72086 0.28629 0.59379 0.0
C879 C 0.74862 0.29534 0.6111 0.0
H880 H 0.95446 0.51117 0.76295 0.0
H881 H 0.96665 0.43136 0.83281 0.0
H882 H 0.95492 0.47231 0.8768 0.0
H883 H 0.93983 0.53108 0.89516 0.0
H884 H 0.92728 0.60968 0.82377 0.0
H885 H 0.94097 0.56907 0.78091 0.0
C886 C 0.95459 0.50262 0.7878 0.0
C887 C 0.96116 0.46811 0.7945 0.0
C888 C 0.94788 0.52625 0.81281 0.0
C889 C 0.96149 0.45768 0.82691 0.0
C890 C 0.95478 0.48115 0.85206 0.0
C891 C 0.94004 0.53936 0.87024 0.0
C892 C 0.93264 0.57378 0.86303 0.0
C893 C 0.94767 0.51554 0.8453 0.0
C894 C 0.93344 0.58378 0.83042 0.0
C895 C 0.94099 0.56042 0.80571 0.0
H896 H 0.77386 0.75936 0.09758 0.0
H897 H 0.79238 0.66566 0.04493 0.0
H898 H 0.74152 0.64309 0.06703 0.0
H899 H 0.69058 0.65024 0.09947 0.0
H900 H 0.671 0.74324 0.15241 0.0
H901 H 0.72349 0.76549 0.13239 0.0
C902 C 0.76691 0.73391 0.09117 0.0
C903 C 0.78695 0.71446 0.06939 0.0
C904 C 0.73732 0.72089 0.10393 0.0
C905 C 0.77749 0.68145 0.06144 0.0
C906 C 0.7483 0.6684 0.07405 0.0
C907 C 0.69775 0.67544 0.10651 0.0
C908 C 0.67683 0.69516 0.12711 0.0
C909 C 0.72781 0.68804 0.09492 0.0
C910 C 0.68676 0.7275 0.13661 0.0
C911 C 0.7167 0.74029 0.12508 0.0
H912 H 0.55232 0.48721 0.39105 0.0
H913 H 0.63644 0.45384 0.33175 0.0
H914 H 0.62442 0.49868 0.29307 0.0
H915 H 0.59061 0.54777 0.27612 0.0
H916 H 0.50646 0.58148 0.33467 0.0
H917 H 0.51834 0.53679 0.37396 0.0
C918 C 0.56819 0.48985 0.36979 0.0
C919 C 0.59526 0.46688 0.36444 0.0
C920 C 0.56133 0.51605 0.34764 0.0
C921 C 0.61515 0.47058 0.33639 0.0
C922 C 0.60847 0.49648 0.31433 0.0
C923 C 0.57492 0.54548 0.29757 0.0
C924 C 0.54785 0.56832 0.30267 0.0
C925 C 0.58171 0.51939 0.31973 0.0
C926 C 0.5277 0.56474 0.33045 0.0
C927 C 0.5344 0.53895 0.35279 0.0
H928 H 0.35453 0.29176 0.16616 0.0
H929 H 0.43089 0.36578 0.16917 0.0
H930 H 0.46959 0.32315 0.18973 0.0
H931 H 0.48298 0.26456 0.20356 0.0
H932 H 0.40792 0.18936 0.20138 0.0
H933 H 0.36722 0.23285 0.18438 0.0
C934 C 0.37949 0.29862 0.17178 0.0
C935 C 0.38992 0.33187 0.16563 0.0
C936 C 0.40184 0.27379 0.18361 0.0
C937 C 0.4224 0.34029 0.17298 0.0
C938 C 0.44454 0.31596 0.18489 0.0
C939 C 0.45765 0.25764 0.19953 0.0
C940 C 0.44853 0.22376 0.20326 0.0
C941 C 0.43472 0.28256 0.18966 0.0
C942 C 0.41554 0.21528 0.19848 0.0
C943 C 0.39235 0.24013 0.18867 0.0
H944 H 0.91339 0.30128 0.74346 0.0
H945 H 0.97069 0.30956 0.82959 0.0
H946 H 0.94394 0.26065 0.85258 0.0
H947 H 0.90594 0.2137 0.84806 0.0
H948 H 0.8475 0.20507 0.7629 0.0
H949 H 0.873 0.25526 0.74007 0.0
C950 C 0.9199 0.29253 0.76732 0.0
C951 C 0.9443 0.30939 0.7845 0.0
C952 C 0.90429 0.26392 0.78073 0.0
C953 C 0.95219 0.29739 0.81549 0.0
C954 C 0.93686 0.26922 0.82883 0.0
C955 C 0.89833 0.22299 0.82471 0.0
C956 C 0.87484 0.20515 0.80731 0.0
C957 C 0.91306 0.25208 0.81164 0.0
C958 C 0.86587 0.21767 0.7768 0.0
C959 C 0.88037 0.24661 0.7637 0.0
H960 H 0.01768 0.61772 0.09487 0.0
H961 H 0.08843 0.69282 0.0674 0.0
H962 H 0.04393 0.73038 0.04906 0.0
H963 H 0.98504 0.74403 0.04522 0.0
H964 H 0.91316 0.66987 0.07136 0.0
H965 H 0.95794 0.62953 0.08565 0.0
C966 C 0.02326 0.64221 0.08462 0.0
C967 C 0.05631 0.65256 0.08266 0.0
C968 C 0.99741 0.66383 0.07411 0.0
C969 C 0.06329 0.68415 0.06895 0.0
C970 C 0.03784 0.70575 0.05865 0.0
C971 C 0.97919 0.7189 0.0538 0.0
C972 C 0.94602 0.70997 0.05779 0.0
C973 C 1.00486 0.69614 0.06177 0.0
C974 C 0.93862 0.67722 0.06826 0.0
C975 C 0.96419 0.65431 0.07655 0.0
H976 H 0.64789 0.80624 0.31288 0.0
H977 H 0.56984 0.84025 0.37932 0.0
H978 H 0.53496 0.7951 0.36097 0.0
H979 H 0.52659 0.74556 0.32675 0.0
H980 H 0.60362 0.71201 0.259 0.0
H981 H 0.63861 0.75752 0.27693 0.0
C982 C 0.6231 0.80405 0.32307 0.0
C983 C 0.61173 0.82657 0.34771 0.0
C984 C 0.60294 0.778 0.31224 0.0
C985 C 0.57958 0.823 0.3608 0.0
C986 C 0.55949 0.79724 0.3502 0.0
C987 C 0.55105 0.74805 0.31589 0.0
C988 C 0.56241 0.72513 0.29164 0.0
C989 C 0.57099 0.77442 0.32615 0.0
C990 C 0.59413 0.72917 0.27771 0.0
C991 C 0.61421 0.75524 0.28797 0.0
H992 H 0.51058 0.28248 0.5387 0.0
H993 H 0.58591 0.35696 0.54636 0.0
H994 H 0.54419 0.39932 0.56497 0.0
H995 H 0.48663 0.41432 0.58157 0.0
H996 H 0.41179 0.33903 0.57508 0.0
H997 H 0.45284 0.29812 0.55305 0.0
C998 C 0.51784 0.30805 0.54425 0.0
C999 C 0.55132 0.31651 0.54134 0.0
C1000 C 0.49377 0.33215 0.55517 0.0
C1001 C 0.56031 0.34979 0.54845 0.0
C1002 C 0.53646 0.37399 0.55917 0.0
C1003 C 0.47929 0.38894 0.5754 0.0
C1004 C 0.44608 0.37982 0.58017 0.0
C1005 C 0.50318 0.36531 0.56308 0.0
C1006 C 0.437 0.34697 0.5714 0.0
C1007 C 0.46055 0.32342 0.55901 0.0
H1008 H 0.13533 0.74224 0.67651 0.0
H1009 H 0.06877 0.66493 0.70844 0.0
H1010 H 0.02988 0.70825 0.72955 0.0
H1011 H 0.01253 0.76764 0.73494 0.0
H1012 H 0.07763 0.84621 0.70373 0.0
H1013 H 0.11961 0.80295 0.68667 0.0
C1014 C 0.11239 0.73498 0.68828 0.0
C1015 C 0.10494 0.70034 0.69079 0.0
C1016 C 0.08991 0.76019 0.70038 0.0
C1017 C 0.07531 0.69129 0.70645 0.0
C1018 C 0.05293 0.71607 0.71837 0.0
C1019 C 0.03607 0.77534 0.72469 0.0
C1020 C 0.0419 0.80993 0.72014 0.0
C1021 C 0.05969 0.7505 0.71491 0.0
C1022 C 0.07263 0.81966 0.70738 0.0
C1023 C 0.09647 0.79492 0.69746 0.0
H1024 H 0.44472 0.79573 0.91134 0.0
H1025 H 0.44091 0.83158 1.0098 0.0
H1026 H 0.48803 0.86769 0.99848 0.0
H1027 H 0.53085 0.88884 0.96051 0.0
H1028 H 0.53622 0.8499 0.8629 0.0
H1029 H 0.48823 0.81566 0.87396 0.0
C1030 C 0.45408 0.8116 0.93028 0.0
C1031 C 0.43915 0.81102 0.96136 0.0
C1032 C 0.48168 0.83179 0.92375 0.0
C1033 C 0.45188 0.83152 0.98567 0.0
C1034 C 0.47891 0.85215 0.9792 0.0
C1035 C 0.52184 0.87262 0.9417 0.0
C1036 C 0.53735 0.8725 0.91072 0.0
C1037 C 0.49422 0.85235 0.94836 0.0
C1038 C 0.5247 0.85137 0.88675 0.0
C1039 C 0.49722 0.83148 0.8931 0.0
H1040 H 0.94159 0.18309 0.39215 0.0
H1041 H 0.93473 0.10865 0.46792 0.0
H1042 H 0.98452 0.13019 0.49197 0.0
H1043 H 0.03027 0.17081 0.49182 0.0
H1044 H 0.03695 0.24361 0.4144 0.0
H1045 H 0.98779 0.22151 0.39066 0.0
C1046 C 0.95112 0.17111 0.41366 0.0
C1047 C 0.93404 0.1442 0.42805 0.0
C1048 C 0.98007 0.18333 0.42721 0.0
C1049 C 0.94678 0.12973 0.4564 0.0
C1050 C 0.97552 0.14189 0.47012 0.0
C1051 C 0.02112 0.1817 0.46966 0.0
C1052 C 0.03759 0.20904 0.45518 0.0
C1053 C 0.9924 0.16881 0.45581 0.0
C1054 C 0.02507 0.22271 0.4264 0.0
C1055 C 0.99676 0.21009 0.41266 0.0
loop_
_geom_bond_atom_site_label_1
_geom_bond_atom_site_label_2
_geom_bond_distance
_geom_bond_site_symmetry_2
_ccdc_geom_bond_type
Pr0 C2 2.880 . S
Pr0 O20 2.562 . S
Pr0 O21 2.490 . S
Pr0 O22 2.695 . S
Pr0 O23 2.512 . S
Pr0 O25 2.437 . S
Pr0 O28 2.436 . S
Pr0 O30 2.438 . S
Pr1 C11 2.880 . S
Pr1 O22 2.436 . S
Pr1 O24 2.438 . S
Pr1 O26 2.562 . S
Pr1 O27 2.490 . S
Pr1 O28 2.695 . S
Pr1 O29 2.512 . S
Pr1 O31 2.437 . S
C2 Pr0 2.880 . S
C2 C3 1.491 . S
C2 O20 1.254 . S
C2 O21 1.225 . S
C3 C2 1.491 . S
C3 C4 1.392 . S
C3 C8 1.356 . S
C4 C3 1.392 . S
C4 C5 1.368 . S
C4 H32 0.929 . S
C5 C4 1.368 . S
C5 C6 1.386 . S
C5 H33 0.929 . S
C6 C5 1.386 . S
C6 C7 1.373 . S
C7 C6 1.373 . S
C7 C8 1.409 . S
C7 H34 0.931 . S
C8 C3 1.356 . S
C8 C7 1.409 . S
C8 H35 0.930 . S
C9 O22 1.270 . S
C9 O23 1.248 . S
C10 O24 1.267 . S
C10 O25 1.278 . S
C11 Pr1 2.880 . S
C11 C12 1.491 . S
C11 O26 1.254 . S
C11 O27 1.225 . S
C12 C11 1.491 . S
C12 C13 1.392 . S
C12 C17 1.356 . S
C13 C12 1.392 . S
C13 C14 1.368 . S
C13 H36 0.929 . S
C14 C13 1.368 . S
C14 C15 1.386 . S
C14 H37 0.929 . S
C15 C14 1.386 . S
C15 C16 1.373 . S
C16 C15 1.373 . S
C16 C17 1.409 . S
C16 H38 0.931 . S
C17 C12 1.356 . S
C17 C16 1.409 . S
C17 H39 0.930 . S
C18 O28 1.270 . S
C18 O29 1.248 . S
C19 O30 1.267 . S
C19 O31 1.278 . S
O20 Pr0 2.562 . S
O20 C2 1.254 . S
O21 Pr0 2.490 . S
O21 C2 1.225 . S
O22 Pr0 2.695 . S
O22 Pr1 2.436 . S
O22 C9 1.270 . S
O23 Pr0 2.512 . S
O23 C9 1.248 . S
O24 Pr1 2.438 . S
O24 C10 1.267 . S
O25 Pr0 2.437 . S
O25 C10 1.278 . S
O26 Pr1 2.562 . S
O26 C11 1.254 . S
O27 Pr1 2.490 . S
O27 C11 1.225 . S
O28 Pr0 2.436 . S
O28 Pr1 2.695 . S
O28 C18 1.270 . S
O29 Pr1 2.512 . S
O29 C18 1.248 . S
O30 Pr0 2.438 . S
O30 C19 1.267 . S
O31 Pr1 2.437 . S
O31 C19 1.278 . S
H32 C4 0.929 . S
H33 C5 0.929 . S
H34 C7 0.931 . S
H35 C8 0.930 . S
H36 C13 0.929 . S
H37 C14 0.929 . S
H38 C16 0.931 . S
H39 C17 0.930 . S
Pr40 C42 2.880 . S
Pr40 O60 2.562 . S
Pr40 O61 2.490 . S
Pr40 O62 2.695 1_655 S
Pr40 O63 2.512 1_655 S
Pr40 O65 2.437 1_655 S
Pr40 O68 2.436 . S
Pr40 O70 2.438 . S
Pr41 C51 2.880 . S
Pr41 O62 2.436 . S
Pr41 O64 2.438 . S
Pr41 O66 2.562 . S
Pr41 O67 2.490 . S
Pr41 O68 2.695 1_455 S
Pr41 O69 2.512 1_455 S
Pr41 O71 2.437 1_455 S
C42 Pr40 2.880 . S
C42 C43 1.491 . S
C42 O60 1.254 . S
C42 O61 1.225 . S
C43 C42 1.491 . S
C43 C44 1.392 . S
C43 C48 1.356 . S
C44 C43 1.392 . S
C44 C45 1.368 . S
C44 H72 0.929 . S
C45 C44 1.368 . S
C45 C46 1.386 . S
C45 H73 0.929 . S
C46 C45 1.386 . S
C46 C47 1.373 . S
C47 C46 1.373 . S
C47 C48 1.409 . S
C47 H74 0.931 . S
C48 C43 1.356 . S
C48 C47 1.409 . S
C48 H75 0.930 . S
C49 O62 1.270 . S
C49 O63 1.248 . S
C50 O64 1.267 . S
C50 O65 1.278 . S
C51 Pr41 2.880 . S
C51 C52 1.491 . S
C51 O66 1.254 . S
C51 O67 1.225 . S
C52 C51 1.491 . S
C52 C53 1.392 . S
C52 C57 1.356 . S
C53 C52 1.392 . S
C53 C54 1.368 . S
C53 H76 0.929 . S
C54 C53 1.368 . S
C54 C55 1.386 . S
C54 H77 0.929 . S
C55 C54 1.386 . S
C55 C56 1.373 . S
C56 C55 1.373 . S
C56 C57 1.409 . S
C56 H78 0.931 . S
C57 C52 1.356 . S
C57 C56 1.409 . S
C57 H79 0.930 . S
C58 O68 1.270 . S
C58 O69 1.248 . S
C59 O70 1.267 . S
C59 O71 1.278 . S
O60 Pr40 2.562 . S
O60 C42 1.254 . S
O61 Pr40 2.490 . S
O61 C42 1.225 . S
O62 Pr40 2.695 1_455 S
O62 Pr41 2.436 . S
O62 C49 1.270 . S
O63 Pr40 2.512 1_455 S
O63 C49 1.248 . S
O64 Pr41 2.438 . S
O64 C50 1.267 . S
O65 Pr40 2.437 1_455 S
O65 C50 1.278 . S
O66 Pr41 2.562 . S
O66 C51 1.254 . S
O67 Pr41 2.490 . S
O67 C51 1.225 . S
O68 Pr40 2.436 . S
O68 Pr41 2.695 1_655 S
O68 C58 1.270 . S
O69 Pr41 2.512 1_655 S
O69 C58 1.248 . S
O70 Pr40 2.438 . S
O70 C59 1.267 . S
O71 Pr41 2.437 1_655 S
O71 C59 1.278 . S
H72 C44 0.929 . S
H73 C45 0.929 . S
H74 C47 0.931 . S
H75 C48 0.930 . S
H76 C53 0.929 . S
H77 C54 0.929 . S
H78 C56 0.931 . S
H79 C57 0.930 . S
Pr80 C82 2.880 . S
Pr80 O100 2.562 . S
Pr80 O101 2.490 . S
Pr80 O102 2.695 . S
Pr80 O103 2.512 . S
Pr80 O105 2.437 . S
Pr80 O108 2.436 1_556 S
Pr80 O110 2.438 1_556 S
Pr81 C91 2.880 . S
Pr81 O102 2.436 1_554 S
Pr81 O104 2.438 1_554 S
Pr81 O106 2.562 . S
Pr81 O107 2.490 . S
Pr81 O108 2.695 . S
Pr81 O109 2.512 . S
Pr81 O111 2.437 . S
C82 Pr80 2.880 . S
C82 C83 1.491 . S
C82 O100 1.254 . S
C82 O101 1.225 . S
C83 C82 1.491 . S
C83 C84 1.392 . S
C83 C88 1.356 . S
C84 C83 1.392 . S
C84 C85 1.368 . S
C84 H112 0.929 . S
C85 C84 1.368 . S
C85 C86 1.386 . S
C85 H113 0.929 . S
C86 C85 1.386 . S
C86 C87 1.373 . S
C87 C86 1.373 . S
C87 C88 1.409 . S
C87 H114 0.931 . S
C88 C83 1.356 . S
C88 C87 1.409 . S
C88 H115 0.930 . S
C89 O102 1.270 . S
C89 O103 1.248 . S
C90 O104 1.267 . S
C90 O105 1.278 . S
C91 Pr81 2.880 . S
C91 C92 1.491 . S
C91 O106 1.254 . S
C91 O107 1.225 . S
C92 C91 1.491 . S
C92 C93 1.392 . S
C92 C97 1.356 . S
C93 C92 1.392 . S
C93 C94 1.368 . S
C93 H116 0.929 . S
C94 C93 1.368 . S
C94 C95 1.386 . S
C94 H117 0.929 . S
C95 C94 1.386 . S
C95 C96 1.373 . S
C96 C95 1.373 . S
C96 C97 1.409 . S
C96 H118 0.931 . S
C97 C92 1.356 . S
C97 C96 1.409 . S
C97 H119 0.930 . S
C98 O108 1.270 . S
C98 O109 1.248 . S
C99 O110 1.267 . S
C99 O111 1.278 . S
O100 Pr80 2.562 . S
O100 C82 1.254 . S
O101 Pr80 2.490 . S
O101 C82 1.225 . S
O102 Pr80 2.695 . S
O102 Pr81 2.436 1_556 S
O102 C89 1.270 . S
O103 Pr80 2.512 . S
O103 C89 1.248 . S
O104 Pr81 2.438 1_556 S
O104 C90 1.267 . S
O105 Pr80 2.437 . S
O105 C90 1.278 . S
O106 Pr81 2.562 . S
O106 C91 1.254 . S
O107 Pr81 2.490 . S
O107 C91 1.225 . S
O108 Pr80 2.436 1_554 S
O108 Pr81 2.695 . S
O108 C98 1.270 . S
O109 Pr81 2.512 . S
O109 C98 1.248 . S
O110 Pr80 2.438 1_554 S
O110 C99 1.267 . S
O111 Pr81 2.437 . S
O111 C99 1.278 . S
H112 C84 0.929 . S
H113 C85 0.929 . S
H114 C87 0.931 . S
H115 C88 0.930 . S
H116 C93 0.929 . S
H117 C94 0.929 . S
H118 C96 0.931 . S
H119 C97 0.930 . S
Pr120 C122 2.880 . S
Pr120 O140 2.562 . S
Pr120 O141 2.490 . S
Pr120 O142 2.695 . S
Pr120 O143 2.512 . S
Pr120 O145 2.437 . S
Pr120 O148 2.436 . S
Pr120 O150 2.438 . S
Pr121 C131 2.880 . S
Pr121 O142 2.436 . S
Pr121 O144 2.438 . S
Pr121 O146 2.562 . S
Pr121 O147 2.490 . S
Pr121 O148 2.695 . S
Pr121 O149 2.512 . S
Pr121 O151 2.437 . S
C122 Pr120 2.880 . S
C122 C123 1.491 . S
C122 O140 1.254 . S
C122 O141 1.225 . S
C123 C122 1.491 . S
C123 C124 1.392 . S
C123 C128 1.356 . S
C124 C123 1.392 . S
C124 C125 1.368 . S
C124 H152 0.929 . S
C125 C124 1.368 . S
C125 C126 1.386 . S
C125 H153 0.929 . S
C126 C125 1.386 . S
C126 C127 1.373 . S
C127 C126 1.373 . S
C127 C128 1.409 . S
C127 H154 0.931 . S
C128 C123 1.356 . S
C128 C127 1.409 . S
C128 H155 0.930 . S
C129 O142 1.270 . S
C129 O143 1.248 . S
C130 O144 1.267 . S
C130 O145 1.278 . S
C131 Pr121 2.880 . S
C131 C132 1.491 . S
C131 O146 1.254 . S
C131 O147 1.225 . S
C132 C131 1.491 . S
C132 C133 1.392 . S
C132 C137 1.356 . S
C133 C132 1.392 . S
C133 C134 1.368 . S
C133 H156 0.929 . S
C134 C133 1.368 . S
C134 C135 1.386 . S
C134 H157 0.929 . S
C135 C134 1.386 . S
C135 C136 1.373 . S
C136 C135 1.373 . S
C136 C137 1.409 . S
C136 H158 0.931 . S
C137 C132 1.356 . S
C137 C136 1.409 . S
C137 H159 0.930 . S
C138 O148 1.270 . S
C138 O149 1.248 . S
C139 O150 1.267 . S
C139 O151 1.278 . S
O140 Pr120 2.562 . S
O140 C122 1.254 . S
O141 Pr120 2.490 . S
O141 C122 1.225 . S
O142 Pr120 2.695 . S
O142 Pr121 2.436 . S
O142 C129 1.270 . S
O143 Pr120 2.512 . S
O143 C129 1.248 . S
O144 Pr121 2.438 . S
O144 C130 1.267 . S
O145 Pr120 2.437 . S
O145 C130 1.278 . S
O146 Pr121 2.562 . S
O146 C131 1.254 . S
O147 Pr121 2.490 . S
O147 C131 1.225 . S
O148 Pr120 2.436 . S
O148 Pr121 2.695 . S
O148 C138 1.270 . S
O149 Pr121 2.512 . S
O149 C138 1.248 . S
O150 Pr120 2.438 . S
O150 C139 1.267 . S
O151 Pr121 2.437 . S
O151 C139 1.278 . S
H152 C124 0.929 . S
H153 C125 0.929 . S
H154 C127 0.931 . S
H155 C128 0.930 . S
H156 C133 0.929 . S
H157 C134 0.929 . S
H158 C136 0.931 . S
H159 C137 0.930 . S
Pr160 C162 2.880 . S
Pr160 O180 2.562 . S
Pr160 O181 2.490 . S
Pr160 O182 2.695 . S
Pr160 O183 2.512 . S
Pr160 O185 2.437 . S
Pr160 O188 2.436 . S
Pr160 O190 2.438 . S
Pr161 C171 2.880 . S
Pr161 O182 2.436 . S
Pr161 O184 2.438 . S
Pr161 O186 2.562 . S
Pr161 O187 2.490 . S
Pr161 O188 2.695 . S
Pr161 O189 2.512 . S
Pr161 O191 2.437 . S
C162 Pr160 2.880 . S
C162 C163 1.491 . S
C162 O180 1.254 . S
C162 O181 1.225 . S
C163 C162 1.491 . S
C163 C164 1.392 . S
C163 C168 1.356 . S
C164 C163 1.392 . S
C164 C165 1.368 . S
C164 H192 0.929 . S
C165 C164 1.368 . S
C165 C166 1.386 . S
C165 H193 0.929 . S
C166 C165 1.386 . S
C166 C167 1.373 . S
C167 C166 1.373 . S
C167 C168 1.409 . S
C167 H194 0.931 . S
C168 C163 1.356 . S
C168 C167 1.409 . S
C168 H195 0.930 . S
C169 O182 1.270 . S
C169 O183 1.248 . S
C170 O184 1.267 . S
C170 O185 1.278 . S
C171 Pr161 2.880 . S
C171 C172 1.491 . S
C171 O186 1.254 . S
C171 O187 1.225 . S
C172 C171 1.491 . S
C172 C173 1.392 . S
C172 C177 1.356 . S
C173 C172 1.392 . S
C173 C174 1.368 . S
C173 H196 0.929 . S
C174 C173 1.368 . S
C174 C175 1.386 . S
C174 H197 0.929 . S
C175 C174 1.386 . S
C175 C176 1.373 . S
C176 C175 1.373 . S
C176 C177 1.409 . S
C176 H198 0.931 . S
C177 C172 1.356 . S
C177 C176 1.409 . S
C177 H199 0.930 . S
C178 O188 1.270 . S
C178 O189 1.248 . S
C179 O190 1.267 . S
C179 O191 1.278 . S
O180 Pr160 2.562 . S
O180 C162 1.254 . S
O181 Pr160 2.490 . S
O181 C162 1.225 . S
O182 Pr160 2.695 . S
O182 Pr161 2.436 . S
O182 C169 1.270 . S
O183 Pr160 2.512 . S
O183 C169 1.248 . S
O184 Pr161 2.438 . S
O184 C170 1.267 . S
O185 Pr160 2.437 . S
O185 C170 1.278 . S
O186 Pr161 2.562 . S
O186 C171 1.254 . S
O187 Pr161 2.490 . S
O187 C171 1.225 . S
O188 Pr160 2.436 . S
O188 Pr161 2.695 . S
O188 C178 1.270 . S
O189 Pr161 2.512 . S
O189 C178 1.248 . S
O190 Pr160 2.438 . S
O190 C179 1.267 . S
O191 Pr161 2.437 . S
O191 C179 1.278 . S
H192 C164 0.929 . S
H193 C165 0.929 . S
H194 C167 0.931 . S
H195 C168 0.930 . S
H196 C173 0.929 . S
H197 C174 0.929 . S
H198 C176 0.931 . S
H199 C177 0.930 . S
Pr200 C202 2.880 . S
Pr200 O220 2.562 . S
Pr200 O221 2.490 . S
Pr200 O222 2.695 . S
Pr200 O223 2.512 . S
Pr200 O225 2.437 . S
Pr200 O228 2.436 . S
Pr200 O230 2.438 1_655 S
Pr201 C211 2.880 . S
Pr201 O222 2.436 1_455 S
Pr201 O224 2.438 1_455 S
Pr201 O226 2.562 . S
Pr201 O227 2.490 . S
Pr201 O228 2.695 1_455 S
Pr201 O229 2.512 . S
Pr201 O231 2.437 . S
C202 Pr200 2.880 . S
C202 C203 1.491 . S
C202 O220 1.254 . S
C202 O221 1.225 . S
C203 C202 1.491 . S
C203 C204 1.392 . S
C203 C208 1.356 . S
C204 C203 1.392 . S
C204 C205 1.368 . S
C204 H232 0.929 . S
C205 C204 1.368 . S
C205 C206 1.386 . S
C205 H233 0.929 . S
C206 C205 1.386 . S
C206 C207 1.373 . S
C207 C206 1.373 . S
C207 C208 1.409 . S
C207 H234 0.931 . S
C208 C203 1.356 . S
C208 C207 1.409 . S
C208 H235 0.930 . S
C209 O222 1.270 . S
C209 O223 1.248 . S
C210 O224 1.267 . S
C210 O225 1.278 . S
C211 Pr201 2.880 . S
C211 C212 1.491 . S
C211 O226 1.254 . S
C211 O227 1.225 . S
C212 C211 1.491 . S
C212 C213 1.392 . S
C212 C217 1.356 . S
C213 C212 1.392 . S
C213 C214 1.368 . S
C213 H236 0.929 . S
C214 C213 1.368 . S
C214 C215 1.386 . S
C214 H237 0.929 . S
C215 C214 1.386 . S
C215 C216 1.373 . S
C216 C215 1.373 . S
C216 C217 1.409 . S
C216 H238 0.931 . S
C217 C212 1.356 . S
C217 C216 1.409 . S
C217 H239 0.930 . S
C218 O228 1.270 1_455 S
C218 O229 1.248 . S
C219 O230 1.267 . S
C219 O231 1.278 . S
O220 Pr200 2.562 . S
O220 C202 1.254 . S
O221 Pr200 2.490 . S
O221 C202 1.225 . S
O222 Pr200 2.695 . S
O222 Pr201 2.436 1_655 S
O222 C209 1.270 . S
O223 Pr200 2.512 . S
O223 C209 1.248 . S
O224 Pr201 2.438 1_655 S
O224 C210 1.267 . S
O225 Pr200 2.437 . S
O225 C210 1.278 . S
O226 Pr201 2.562 . S
O226 C211 1.254 . S
O227 Pr201 2.490 . S
O227 C211 1.225 . S
O228 Pr200 2.436 . S
O228 Pr201 2.695 1_655 S
O228 C218 1.270 1_655 S
O229 Pr201 2.512 . S
O229 C218 1.248 . S
O230 Pr200 2.438 1_455 S
O230 C219 1.267 . S
O231 Pr201 2.437 . S
O231 C219 1.278 . S
H232 C204 0.929 . S
H233 C205 0.929 . S
H234 C207 0.931 . S
H235 C208 0.930 . S
H236 C213 0.929 . S
H237 C214 0.929 . S
H238 C216 0.931 . S
H239 C217 0.930 . S
Pr240 C242 2.880 . S
Pr240 O260 2.562 . S
Pr240 O261 2.490 . S
Pr240 O262 2.695 . S
Pr240 O263 2.512 . S
Pr240 O265 2.437 . S
Pr240 O268 2.436 1_554 S
Pr240 O270 2.438 1_554 S
Pr241 C251 2.880 . S
Pr241 O262 2.436 1_556 S
Pr241 O264 2.438 1_556 S
Pr241 O266 2.562 . S
Pr241 O267 2.490 . S
Pr241 O268 2.695 . S
Pr241 O269 2.512 . S
Pr241 O271 2.437 . S
C242 Pr240 2.880 . S
C242 C243 1.491 . S
C242 O260 1.254 . S
C242 O261 1.225 . S
C243 C242 1.491 . S
C243 C244 1.392 . S
C243 C248 1.356 . S
C244 C243 1.392 . S
C244 C245 1.368 . S
C244 H272 0.929 . S
C245 C244 1.368 . S
C245 C246 1.386 . S
C245 H273 0.929 . S
C246 C245 1.386 . S
C246 C247 1.373 . S
C247 C246 1.373 . S
C247 C248 1.409 . S
C247 H274 0.931 . S
C248 C243 1.356 . S
C248 C247 1.409 . S
C248 H275 0.930 . S
C249 O262 1.270 . S
C249 O263 1.248 . S
C250 O264 1.267 . S
C250 O265 1.278 . S
C251 Pr241 2.880 . S
C251 C252 1.491 . S
C251 O266 1.254 . S
C251 O267 1.225 . S
C252 C251 1.491 . S
C252 C253 1.392 . S
C252 C257 1.356 . S
C253 C252 1.392 . S
C253 C254 1.368 . S
C253 H276 0.929 . S
C254 C253 1.368 . S
C254 C255 1.386 . S
C254 H277 0.929 . S
C255 C254 1.386 . S
C255 C256 1.373 . S
C256 C255 1.373 . S
C256 C257 1.409 . S
C256 H278 0.931 . S
C257 C252 1.356 . S
C257 C256 1.409 . S
C257 H279 0.930 . S
C258 O268 1.270 . S
C258 O269 1.248 . S
C259 O270 1.267 . S
C259 O271 1.278 . S
O260 Pr240 2.562 . S
O260 C242 1.254 . S
O261 Pr240 2.490 . S
O261 C242 1.225 . S
O262 Pr240 2.695 . S
O262 Pr241 2.436 1_554 S
O262 C249 1.270 . S
O263 Pr240 2.512 . S
O263 C249 1.248 . S
O264 Pr241 2.438 1_554 S
O264 C250 1.267 . S
O265 Pr240 2.437 . S
O265 C250 1.278 . S
O266 Pr241 2.562 . S
O266 C251 1.254 . S
O267 Pr241 2.490 . S
O267 C251 1.225 . S
O268 Pr240 2.436 1_556 S
O268 Pr241 2.695 . S
O268 C258 1.270 . S
O269 Pr241 2.512 . S
O269 C258 1.248 . S
O270 Pr240 2.438 1_556 S
O270 C259 1.267 . S
O271 Pr241 2.437 . S
O271 C259 1.278 . S
H272 C244 0.929 . S
H273 C245 0.929 . S
H274 C247 0.931 . S
H275 C248 0.930 . S
H276 C253 0.929 . S
H277 C254 0.929 . S
H278 C256 0.931 . S
H279 C257 0.930 . S
Pr280 C282 2.880 . S
Pr280 O300 2.562 . S
Pr280 O301 2.490 . S
Pr280 O302 2.695 . S
Pr280 O303 2.512 . S
Pr280 O305 2.437 . S
Pr280 O308 2.436 . S
Pr280 O310 2.438 . S
Pr281 C291 2.880 . S
Pr281 O302 2.436 . S
Pr281 O304 2.438 . S
Pr281 O306 2.562 . S
Pr281 O307 2.490 . S
Pr281 O308 2.695 . S
Pr281 O309 2.512 . S
Pr281 O311 2.437 . S
C282 Pr280 2.880 . S
C282 C283 1.491 . S
C282 O300 1.254 . S
C282 O301 1.225 . S
C283 C282 1.491 . S
C283 C284 1.392 . S
C283 C288 1.356 . S
C284 C283 1.392 . S
C284 C285 1.368 . S
C284 H312 0.929 . S
C285 C284 1.368 . S
C285 C286 1.386 . S
C285 H313 0.929 . S
C286 C285 1.386 . S
C286 C287 1.373 . S
C287 C286 1.373 . S
C287 C288 1.409 . S
C287 H314 0.931 . S
C288 C283 1.356 . S
C288 C287 1.409 . S
C288 H315 0.930 . S
C289 O302 1.270 . S
C289 O303 1.248 . S
C290 O304 1.267 . S
C290 O305 1.278 . S
C291 Pr281 2.880 . S
C291 C292 1.491 . S
C291 O306 1.254 . S
C291 O307 1.225 . S
C292 C291 1.491 . S
C292 C293 1.392 . S
C292 C297 1.356 . S
C293 C292 1.392 . S
C293 C294 1.368 . S
C293 H316 0.929 . S
C294 C293 1.368 . S
C294 C295 1.386 . S
C294 H317 0.929 . S
C295 C294 1.386 . S
C295 C296 1.373 . S
C296 C295 1.373 . S
C296 C297 1.409 . S
C296 H318 0.931 . S
C297 C292 1.356 . S
C297 C296 1.409 . S
C297 H319 0.930 . S
C298 O308 1.270 . S
C298 O309 1.248 . S
C299 O310 1.267 . S
C299 O311 1.278 . S
O300 Pr280 2.562 . S
O300 C282 1.254 . S
O301 Pr280 2.490 . S
O301 C282 1.225 . S
O302 Pr280 2.695 . S
O302 Pr281 2.436 . S
O302 C289 1.270 . S
O303 Pr280 2.512 . S
O303 C289 1.248 . S
O304 Pr281 2.438 . S
O304 C290 1.267 . S
O305 Pr280 2.437 . S
O305 C290 1.278 . S
O306 Pr281 2.562 . S
O306 C291 1.254 . S
O307 Pr281 2.490 . S
O307 C291 1.225 . S
O308 Pr280 2.436 . S
O308 Pr281 2.695 . S
O308 C298 1.270 . S
O309 Pr281 2.512 . S
O309 C298 1.248 . S
O310 Pr280 2.438 . S
O310 C299 1.267 . S
O311 Pr281 2.437 . S
O311 C299 1.278 . S
H312 C284 0.929 . S
H313 C285 0.929 . S
H314 C287 0.931 . S
H315 C288 0.930 . S
H316 C293 0.929 . S
H317 C294 0.929 . S
H318 C296 0.931 . S
H319 C297 0.930 . S
Pr320 C322 2.880 . S
Pr320 O340 2.562 . S
Pr320 O341 2.490 . S
Pr320 O342 2.695 . S
Pr320 O343 2.512 . S
Pr320 O345 2.437 . S
Pr320 O348 2.436 . S
Pr320 O350 2.438 . S
Pr321 C331 2.880 . S
Pr321 O342 2.436 . S
Pr321 O344 2.438 . S
Pr321 O346 2.562 . S
Pr321 O347 2.490 . S
Pr321 O348 2.695 . S
Pr321 O349 2.512 . S
Pr321 O351 2.437 . S
C322 Pr320 2.880 . S
C322 C323 1.491 . S
C322 O340 1.254 . S
C322 O341 1.225 . S
C323 C322 1.491 . S
C323 C324 1.392 . S
C323 C328 1.356 . S
C324 C323 1.392 . S
C324 C325 1.368 . S
C324 H352 0.929 . S
C325 C324 1.368 . S
C325 C326 1.386 . S
C325 H353 0.929 . S
C326 C325 1.386 . S
C326 C327 1.373 . S
C327 C326 1.373 . S
C327 C328 1.409 . S
C327 H354 0.931 . S
C328 C323 1.356 . S
C328 C327 1.409 . S
C328 H355 0.930 . S
C329 O342 1.270 . S
C329 O343 1.248 . S
C330 O344 1.267 . S
C330 O345 1.278 . S
C331 Pr321 2.880 . S
C331 C332 1.491 . S
C331 O346 1.254 . S
C331 O347 1.225 . S
C332 C331 1.491 . S
C332 C333 1.392 . S
C332 C337 1.356 . S
C333 C332 1.392 . S
C333 C334 1.368 . S
C333 H356 0.929 . S
C334 C333 1.368 . S
C334 C335 1.386 . S
C334 H357 0.929 . S
C335 C334 1.386 . S
C335 C336 1.373 . S
C336 C335 1.373 . S
C336 C337 1.409 . S
C336 H358 0.931 . S
C337 C332 1.356 . S
C337 C336 1.409 . S
C337 H359 0.930 . S
C338 O348 1.270 . S
C338 O349 1.248 . S
C339 O350 1.267 . S
C339 O351 1.278 . S
O340 Pr320 2.562 . S
O340 C322 1.254 . S
O341 Pr320 2.490 . S
O341 C322 1.225 . S
O342 Pr320 2.695 . S
O342 Pr321 2.436 . S
O342 C329 1.270 . S
O343 Pr320 2.512 . S
O343 C329 1.248 . S
O344 Pr321 2.438 . S
O344 C330 1.267 . S
O345 Pr320 2.437 . S
O345 C330 1.278 . S
O346 Pr321 2.562 . S
O346 C331 1.254 . S
O347 Pr321 2.490 . S
O347 C331 1.225 . S
O348 Pr320 2.436 . S
O348 Pr321 2.695 . S
O348 C338 1.270 . S
O349 Pr321 2.512 . S
O349 C338 1.248 . S
O350 Pr320 2.438 . S
O350 C339 1.267 . S
O351 Pr321 2.437 . S
O351 C339 1.278 . S
H352 C324 0.929 . S
H353 C325 0.929 . S
H354 C327 0.931 . S
H355 C328 0.930 . S
H356 C333 0.929 . S
H357 C334 0.929 . S
H358 C336 0.931 . S
H359 C337 0.930 . S
Pr360 C362 2.880 . S
Pr360 O380 2.562 . S
Pr360 O381 2.490 . S
Pr360 O382 2.695 . S
Pr360 O383 2.512 . S
Pr360 O385 2.437 . S
Pr360 O388 2.436 1_545 S
Pr360 O390 2.438 1_545 S
Pr361 C371 2.880 . S
Pr361 O382 2.436 1_565 S
Pr361 O384 2.438 1_565 S
Pr361 O386 2.562 . S
Pr361 O387 2.490 . S
Pr361 O388 2.695 . S
Pr361 O389 2.512 . S
Pr361 O391 2.437 . S
C362 Pr360 2.880 . S
C362 C363 1.491 . S
C362 O380 1.254 . S
C362 O381 1.225 . S
C363 C362 1.491 . S
C363 C364 1.392 . S
C363 C368 1.356 . S
C364 C363 1.392 . S
C364 C365 1.368 . S
C364 H392 0.929 . S
C365 C364 1.368 . S
C365 C366 1.386 . S
C365 H393 0.929 . S
C366 C365 1.386 . S
C366 C367 1.373 . S
C367 C366 1.373 . S
C367 C368 1.409 . S
C367 H394 0.931 . S
C368 C363 1.356 . S
C368 C367 1.409 . S
C368 H395 0.930 . S
C369 O382 1.270 . S
C369 O383 1.248 . S
C370 O384 1.267 . S
C370 O385 1.278 . S
C371 Pr361 2.880 . S
C371 C372 1.491 . S
C371 O386 1.254 . S
C371 O387 1.225 . S
C372 C371 1.491 . S
C372 C373 1.392 . S
C372 C377 1.356 . S
C373 C372 1.392 . S
C373 C374 1.368 . S
C373 H396 0.929 . S
C374 C373 1.368 . S
C374 C375 1.386 . S
C374 H397 0.929 . S
C375 C374 1.386 . S
C375 C376 1.373 . S
C376 C375 1.373 . S
C376 C377 1.409 . S
C376 H398 0.931 . S
C377 C372 1.356 . S
C377 C376 1.409 . S
C377 H399 0.930 . S
C378 O388 1.270 . S
C378 O389 1.248 . S
C379 O390 1.267 . S
C379 O391 1.278 . S
O380 Pr360 2.562 . S
O380 C362 1.254 . S
O381 Pr360 2.490 . S
O381 C362 1.225 . S
O382 Pr360 2.695 . S
O382 Pr361 2.436 1_545 S
O382 C369 1.270 . S
O383 Pr360 2.512 . S
O383 C369 1.248 . S
O384 Pr361 2.438 1_545 S
O384 C370 1.267 . S
O385 Pr360 2.437 . S
O385 C370 1.278 . S
O386 Pr361 2.562 . S
O386 C371 1.254 . S
O387 Pr361 2.490 . S
O387 C371 1.225 . S
O388 Pr360 2.436 1_565 S
O388 Pr361 2.695 . S
O388 C378 1.270 . S
O389 Pr361 2.512 . S
O389 C378 1.248 . S
O390 Pr360 2.438 1_565 S
O390 C379 1.267 . S
O391 Pr361 2.437 . S
O391 C379 1.278 . S
H392 C364 0.929 . S
H393 C365 0.929 . S
H394 C367 0.931 . S
H395 C368 0.930 . S
H396 C373 0.929 . S
H397 C374 0.929 . S
H398 C376 0.931 . S
H399 C377 0.930 . S
Pr400 C402 2.880 . S
Pr400 O420 2.562 . S
Pr400 O421 2.490 . S
Pr400 O422 2.695 1_545 S
Pr400 O423 2.512 1_545 S
Pr400 O425 2.437 1_545 S
Pr400 O428 2.436 . S
Pr400 O430 2.438 . S
Pr401 C411 2.880 . S
Pr401 O422 2.436 . S
Pr401 O424 2.438 . S
Pr401 O426 2.562 . S
Pr401 O427 2.490 . S
Pr401 O428 2.695 1_565 S
Pr401 O429 2.512 1_565 S
Pr401 O431 2.437 1_565 S
C402 Pr400 2.880 . S
C402 C403 1.491 . S
C402 O420 1.254 . S
C402 O421 1.225 . S
C403 C402 1.491 . S
C403 C404 1.392 . S
C403 C408 1.356 . S
C404 C403 1.392 . S
C404 C405 1.368 . S
C404 H432 0.929 . S
C405 C404 1.368 . S
C405 C406 1.386 . S
C405 H433 0.929 . S
C406 C405 1.386 . S
C406 C407 1.373 . S
C407 C406 1.373 . S
C407 C408 1.409 . S
C407 H434 0.931 . S
C408 C403 1.356 . S
C408 C407 1.409 . S
C408 H435 0.930 . S
C409 O422 1.270 . S
C409 O423 1.248 . S
C410 O424 1.267 . S
C410 O425 1.278 . S
C411 Pr401 2.880 . S
C411 C412 1.491 . S
C411 O426 1.254 . S
C411 O427 1.225 . S
C412 C411 1.491 . S
C412 C413 1.392 . S
C412 C417 1.356 . S
C413 C412 1.392 . S
C413 C414 1.368 . S
C413 H436 0.929 . S
C414 C413 1.368 . S
C414 C415 1.386 . S
C414 H437 0.929 . S
C415 C414 1.386 . S
C415 C416 1.373 . S
C416 C415 1.373 . S
C416 C417 1.409 . S
C416 H438 0.931 . S
C417 C412 1.356 . S
C417 C416 1.409 . S
C417 H439 0.930 . S
C418 O428 1.270 . S
C418 O429 1.248 . S
C419 O430 1.267 . S
C419 O431 1.278 . S
O420 Pr400 2.562 . S
O420 C402 1.254 . S
O421 Pr400 2.490 . S
O421 C402 1.225 . S
O422 Pr400 2.695 1_565 S
O422 Pr401 2.436 . S
O422 C409 1.270 . S
O423 Pr400 2.512 1_565 S
O423 C409 1.248 . S
O424 Pr401 2.438 . S
O424 C410 1.267 . S
O425 Pr400 2.437 1_565 S
O425 C410 1.278 . S
O426 Pr401 2.562 . S
O426 C411 1.254 . S
O427 Pr401 2.490 . S
O427 C411 1.225 . S
O428 Pr400 2.436 . S
O428 Pr401 2.695 1_545 S
O428 C418 1.270 . S
O429 Pr401 2.512 1_545 S
O429 C418 1.248 . S
O430 Pr400 2.438 . S
O430 C419 1.267 . S
O431 Pr401 2.437 1_545 S
O431 C419 1.278 . S
H432 C404 0.929 . S
H433 C405 0.929 . S
H434 C407 0.931 . S
H435 C408 0.930 . S
H436 C413 0.929 . S
H437 C414 0.929 . S
H438 C416 0.931 . S
H439 C417 0.930 . S
Pr440 C442 2.880 . S
Pr440 O460 2.562 . S
Pr440 O461 2.490 . S
Pr440 O462 2.695 . S
Pr440 O463 2.512 . S
Pr440 O465 2.437 . S
Pr440 O468 2.436 . S
Pr440 O470 2.438 . S
Pr441 C451 2.880 . S
Pr441 O462 2.436 . S
Pr441 O464 2.438 . S
Pr441 O466 2.562 . S
Pr441 O467 2.490 . S
Pr441 O468 2.695 . S
Pr441 O469 2.512 . S
Pr441 O471 2.437 . S
C442 Pr440 2.880 . S
C442 C443 1.491 . S
C442 O460 1.254 . S
C442 O461 1.225 . S
C443 C442 1.491 . S
C443 C444 1.392 . S
C443 C448 1.356 . S
C444 C443 1.392 . S
C444 C445 1.368 . S
C444 H472 0.929 . S
C445 C444 1.368 . S
C445 C446 1.386 . S
C445 H473 0.929 . S
C446 C445 1.386 . S
C446 C447 1.373 . S
C447 C446 1.373 . S
C447 C448 1.409 . S
C447 H474 0.931 . S
C448 C443 1.356 . S
C448 C447 1.409 . S
C448 H475 0.930 . S
C449 O462 1.270 . S
C449 O463 1.248 . S
C450 O464 1.267 . S
C450 O465 1.278 . S
C451 Pr441 2.880 . S
C451 C452 1.491 . S
C451 O466 1.254 . S
C451 O467 1.225 . S
C452 C451 1.491 . S
C452 C453 1.392 . S
C452 C457 1.356 . S
C453 C452 1.392 . S
C453 C454 1.368 . S
C453 H476 0.929 . S
C454 C453 1.368 . S
C454 C455 1.386 . S
C454 H477 0.929 . S
C455 C454 1.386 . S
C455 C456 1.373 . S
C456 C455 1.373 . S
C456 C457 1.409 . S
C456 H478 0.931 . S
C457 C452 1.356 . S
C457 C456 1.409 . S
C457 H479 0.930 . S
C458 O468 1.270 . S
C458 O469 1.248 . S
C459 O470 1.267 . S
C459 O471 1.278 . S
O460 Pr440 2.562 . S
O460 C442 1.254 . S
O461 Pr440 2.490 . S
O461 C442 1.225 . S
O462 Pr440 2.695 . S
O462 Pr441 2.436 . S
O462 C449 1.270 . S
O463 Pr440 2.512 . S
O463 C449 1.248 . S
O464 Pr441 2.438 . S
O464 C450 1.267 . S
O465 Pr440 2.437 . S
O465 C450 1.278 . S
O466 Pr441 2.562 . S
O466 C451 1.254 . S
O467 Pr441 2.490 . S
O467 C451 1.225 . S
O468 Pr440 2.436 . S
O468 Pr441 2.695 . S
O468 C458 1.270 . S
O469 Pr441 2.512 . S
O469 C458 1.248 . S
O470 Pr440 2.438 . S
O470 C459 1.267 . S
O471 Pr441 2.437 . S
O471 C459 1.278 . S
H472 C444 0.929 . S
H473 C445 0.929 . S
H474 C447 0.931 . S
H475 C448 0.930 . S
H476 C453 0.929 . S
H477 C454 0.929 . S
H478 C456 0.931 . S
H479 C457 0.930 . S
H480 C486 0.930 . S
H481 C489 0.930 . S
H482 C490 0.930 . S
H483 C491 0.930 . S
H484 C494 0.930 . S
H485 C495 0.930 . S
C486 H480 0.930 . S
C486 C487 1.355 . S
C486 C488 1.415 . S
C487 C486 1.355 . S
C487 C489 1.419 . S
C488 C486 1.415 . S
C488 C493 1.425 . S
C488 C495 1.409 . S
C489 H481 0.930 . S
C489 C487 1.419 . S
C489 C490 1.362 . S
C490 H482 0.930 . S
C490 C489 1.362 . S
C490 C493 1.409 . S
C491 H483 0.930 . S
C491 C492 1.355 . S
C491 C493 1.415 . S
C492 C491 1.355 . S
C492 C494 1.419 . S
C493 C488 1.425 . S
C493 C490 1.409 . S
C493 C491 1.415 . S
C494 H484 0.930 . S
C494 C492 1.419 . S
C494 C495 1.362 . S
C495 H485 0.930 . S
C495 C488 1.409 . S
C495 C494 1.362 . S
H496 C502 0.930 . S
H497 C505 0.930 . S
H498 C506 0.930 . S
H499 C507 0.930 . S
H500 C510 0.930 . S
H501 C511 0.930 1_545 S
C502 H496 0.930 . S
C502 C503 1.355 . S
C502 C504 1.415 . S
C503 C502 1.355 . S
C503 C505 1.419 . S
C504 C502 1.415 . S
C504 C509 1.425 . S
C504 C511 1.409 . S
C505 H497 0.930 . S
C505 C503 1.419 . S
C505 C506 1.362 . S
C506 H498 0.930 . S
C506 C505 1.362 . S
C506 C509 1.409 . S
C507 H499 0.930 . S
C507 C508 1.355 . S
C507 C509 1.415 . S
C508 C507 1.355 . S
C508 C510 1.419 . S
C509 C504 1.425 . S
C509 C506 1.409 . S
C509 C507 1.415 . S
C510 H500 0.930 . S
C510 C508 1.419 . S
C510 C511 1.362 . S
C511 H501 0.930 1_565 S
C511 C504 1.409 . S
C511 C510 1.362 . S
H512 C518 0.930 . S
H513 C521 0.930 . S
H514 C522 0.930 . S
H515 C523 0.930 . S
H516 C526 0.930 . S
H517 C527 0.930 . S
C518 H512 0.930 . S
C518 C519 1.355 . S
C518 C520 1.415 . S
C519 C518 1.355 . S
C519 C521 1.419 . S
C520 C518 1.415 . S
C520 C525 1.425 . S
C520 C527 1.409 . S
C521 H513 0.930 . S
C521 C519 1.419 . S
C521 C522 1.362 . S
C522 H514 0.930 . S
C522 C521 1.362 . S
C522 C525 1.409 . S
C523 H515 0.930 . S
C523 C524 1.355 . S
C523 C525 1.415 . S
C524 C523 1.355 . S
C524 C526 1.419 . S
C525 C520 1.425 . S
C525 C522 1.409 . S
C525 C523 1.415 . S
C526 H516 0.930 . S
C526 C524 1.419 . S
C526 C527 1.362 . S
C527 H517 0.930 . S
C527 C520 1.409 . S
C527 C526 1.362 . S
H528 C534 0.930 . S
H529 C537 0.930 . S
H530 C538 0.930 . S
H531 C539 0.944 . S
H532 C542 0.930 . S
H533 C543 0.930 . S
C534 H528 0.930 . S
C534 C535 1.355 . S
C534 C536 1.415 . S
C535 C534 1.355 . S
C535 C537 1.419 . S
C536 C534 1.415 . S
C536 C541 1.425 . S
C536 C543 1.409 . S
C537 H529 0.930 . S
C537 C535 1.419 . S
C537 C538 1.362 . S
C538 H530 0.930 . S
C538 C537 1.362 . S
C538 C541 1.409 . S
C539 H531 0.944 . S
C539 C540 1.355 . S
C539 C541 1.415 . S
C540 C539 1.355 . S
C540 C542 1.419 . S
C541 C536 1.425 . S
C541 C538 1.409 . S
C541 C539 1.415 . S
C542 H532 0.930 . S
C542 C540 1.419 . S
C542 C543 1.362 . S
C543 H533 0.930 . S
C543 C536 1.409 . S
C543 C542 1.362 . S
H544 C550 0.930 . S
H545 C553 0.930 . S
H546 C554 0.930 . S
H547 C555 0.930 . S
H548 C558 0.930 . S
H549 C559 0.930 . S
C550 H544 0.930 . S
C550 C551 1.355 . S
C550 C552 1.415 . S
C551 C550 1.355 . S
C551 C553 1.419 . S
C552 C550 1.415 . S
C552 C557 1.425 . S
C552 C559 1.409 . S
C553 H545 0.930 . S
C553 C551 1.419 . S
C553 C554 1.362 . S
C554 H546 0.930 . S
C554 C553 1.362 . S
C554 C557 1.409 . S
C555 H547 0.930 . S
C555 C556 1.355 . S
C555 C557 1.415 . S
C556 C555 1.355 . S
C556 C558 1.419 . S
C557 C552 1.425 . S
C557 C554 1.409 . S
C557 C555 1.415 . S
C558 H548 0.930 . S
C558 C556 1.419 . S
C558 C559 1.362 . S
C559 H549 0.930 . S
C559 C552 1.409 . S
C559 C558 1.362 . S
H560 C566 0.930 . S
H561 C569 0.930 . S
H562 C570 0.930 . S
H563 C571 0.930 . S
H564 C574 0.930 . S
H565 C575 0.930 . S
C566 H560 0.930 . S
C566 C567 1.355 . S
C566 C568 1.415 . S
C567 C566 1.355 . S
C567 C569 1.419 . S
C568 C566 1.415 . S
C568 C573 1.425 . S
C568 C575 1.409 . S
C569 H561 0.930 . S
C569 C567 1.419 . S
C569 C570 1.362 . S
C570 H562 0.930 . S
C570 C569 1.362 . S
C570 C573 1.409 . S
C571 H563 0.930 . S
C571 C572 1.355 . S
C571 C573 1.415 . S
C572 C571 1.355 . S
C572 C574 1.419 . S
C573 C568 1.425 . S
C573 C570 1.409 . S
C573 C571 1.415 . S
C574 H564 0.930 . S
C574 C572 1.419 . S
C574 C575 1.362 . S
C575 H565 0.930 . S
C575 C568 1.409 . S
C575 C574 1.362 . S
H576 C582 0.930 . S
H577 C585 0.930 . S
H578 C586 0.930 . S
H579 C587 0.930 . S
H580 C590 0.930 . S
H581 C591 0.930 . S
C582 H576 0.930 . S
C582 C583 1.355 . S
C582 C584 1.415 . S
C583 C582 1.355 . S
C583 C585 1.419 . S
C584 C582 1.415 . S
C584 C589 1.425 . S
C584 C591 1.409 . S
C585 H577 0.930 . S
C585 C583 1.419 . S
C585 C586 1.362 . S
C586 H578 0.930 . S
C586 C585 1.362 . S
C586 C589 1.409 . S
C587 H579 0.930 . S
C587 C588 1.355 . S
C587 C589 1.415 . S
C588 C587 1.355 . S
C588 C590 1.419 . S
C589 C584 1.425 . S
C589 C586 1.409 . S
C589 C587 1.415 . S
C590 H580 0.930 . S
C590 C588 1.419 . S
C590 C591 1.362 . S
C591 H581 0.930 . S
C591 C584 1.409 . S
C591 C590 1.362 . S
H592 C598 0.930 . S
H593 C601 0.930 . S
H594 C602 0.930 . S
H595 C603 0.930 . S
H596 C606 0.930 . S
H597 C607 0.930 . S
C598 H592 0.930 . S
C598 C599 1.355 . S
C598 C600 1.415 . S
C599 C598 1.355 . S
C599 C601 1.419 . S
C600 C598 1.415 . S
C600 C605 1.425 . S
C600 C607 1.409 . S
C601 H593 0.930 . S
C601 C599 1.419 . S
C601 C602 1.362 . S
C602 H594 0.930 . S
C602 C601 1.362 . S
C602 C605 1.409 . S
C603 H595 0.930 . S
C603 C604 1.355 . S
C603 C605 1.415 . S
C604 C603 1.355 . S
C604 C606 1.419 . S
C605 C600 1.425 . S
C605 C602 1.409 . S
C605 C603 1.415 . S
C606 H596 0.930 . S
C606 C604 1.419 . S
C606 C607 1.362 . S
C607 H597 0.930 . S
C607 C600 1.409 . S
C607 C606 1.362 . S
H608 C614 0.930 . S
H609 C617 0.930 . S
H610 C618 0.930 . S
H611 C619 0.930 . S
H612 C622 0.930 . S
H613 C623 0.930 . S
C614 H608 0.930 . S
C614 C615 1.355 . S
C614 C616 1.415 . S
C615 C614 1.355 . S
C615 C617 1.419 . S
C616 C614 1.415 . S
C616 C621 1.425 . S
C616 C623 1.409 . S
C617 H609 0.930 . S
C617 C615 1.419 . S
C617 C618 1.362 . S
C618 H610 0.930 . S
C618 C617 1.362 . S
C618 C621 1.409 . S
C619 H611 0.930 . S
C619 C620 1.355 . S
C619 C621 1.415 . S
C620 C619 1.355 . S
C620 C622 1.419 . S
C621 C616 1.425 . S
C621 C618 1.409 . S
C621 C619 1.415 . S
C622 H612 0.930 . S
C622 C620 1.419 . S
C622 C623 1.362 . S
C623 H613 0.930 . S
C623 C616 1.409 . S
C623 C622 1.362 . S
H624 C630 0.930 . S
H625 C633 0.930 . S
H626 C634 0.930 . S
H627 C635 0.930 . S
H628 C638 0.930 . S
H629 C639 0.930 . S
C630 H624 0.930 . S
C630 C631 1.355 . S
C630 C632 1.415 . S
C631 C630 1.355 . S
C631 C633 1.419 . S
C632 C630 1.415 . S
C632 C637 1.425 . S
C632 C639 1.409 . S
C633 H625 0.930 . S
C633 C631 1.419 . S
C633 C634 1.362 . S
C634 H626 0.930 . S
C634 C633 1.362 . S
C634 C637 1.409 . S
C635 H627 0.930 . S
C635 C636 1.355 . S
C635 C637 1.415 . S
C636 C635 1.355 . S
C636 C638 1.419 . S
C637 C632 1.425 . S
C637 C634 1.409 . S
C637 C635 1.415 . S
C638 H628 0.930 . S
C638 C636 1.419 . S
C638 C639 1.362 . S
C639 H629 0.930 . S
C639 C632 1.409 . S
C639 C638 1.362 . S
H640 C646 0.930 . S
H641 C649 0.930 . S
H642 C650 0.930 . S
H643 C651 0.930 . S
H644 C654 0.930 . S
H645 C655 0.930 . S
C646 H640 0.930 . S
C646 C647 1.355 . S
C646 C648 1.415 . S
C647 C646 1.355 . S
C647 C649 1.419 . S
C648 C646 1.415 . S
C648 C653 1.425 . S
C648 C655 1.409 . S
C649 H641 0.930 . S
C649 C647 1.419 . S
C649 C650 1.362 . S
C650 H642 0.930 . S
C650 C649 1.362 . S
C650 C653 1.409 . S
C651 H643 0.930 . S
C651 C652 1.355 . S
C651 C653 1.415 . S
C652 C651 1.355 . S
C652 C654 1.419 . S
C653 C648 1.425 . S
C653 C650 1.409 . S
C653 C651 1.415 . S
C654 H644 0.930 . S
C654 C652 1.419 . S
C654 C655 1.362 . S
C655 H645 0.930 . S
C655 C648 1.409 . S
C655 C654 1.362 . S
H656 C662 0.930 . S
H657 C665 0.930 . S
H658 C666 0.930 . S
H659 C667 0.930 . S
H660 C670 0.930 . S
H661 C671 0.930 . S
C662 H656 0.930 . S
C662 C663 1.355 . S
C662 C664 1.415 . S
C663 C662 1.355 . S
C663 C665 1.419 . S
C664 C662 1.415 . S
C664 C669 1.425 . S
C664 C671 1.409 . S
C665 H657 0.930 . S
C665 C663 1.419 . S
C665 C666 1.362 . S
C666 H658 0.930 . S
C666 C665 1.362 . S
C666 C669 1.409 . S
C667 H659 0.930 . S
C667 C668 1.355 . S
C667 C669 1.415 . S
C668 C667 1.355 . S
C668 C670 1.419 . S
C669 C664 1.425 . S
C669 C666 1.409 . S
C669 C667 1.415 . S
C670 H660 0.930 . S
C670 C668 1.419 . S
C670 C671 1.362 . S
C671 H661 0.930 . S
C671 C664 1.409 . S
C671 C670 1.362 . S
H672 C678 0.930 . S
H673 C681 0.930 . S
H674 C682 0.930 . S
H675 C683 0.930 . S
H676 C686 0.930 . S
H677 C687 0.930 . S
C678 H672 0.930 . S
C678 C679 1.355 . S
C678 C680 1.415 . S
C679 C678 1.355 . S
C679 C681 1.419 . S
C680 C678 1.415 . S
C680 C685 1.425 . S
C680 C687 1.409 . S
C681 H673 0.930 . S
C681 C679 1.419 . S
C681 C682 1.362 . S
C682 H674 0.930 . S
C682 C681 1.362 . S
C682 C685 1.409 . S
C683 H675 0.930 . S
C683 C684 1.355 . S
C683 C685 1.415 . S
C684 C683 1.355 . S
C684 C686 1.419 . S
C685 C680 1.425 . S
C685 C682 1.409 . S
C685 C683 1.415 . S
C686 H676 0.930 . S
C686 C684 1.419 . S
C686 C687 1.362 . S
C687 H677 0.930 . S
C687 C680 1.409 . S
C687 C686 1.362 . S
H688 C694 0.930 . S
H689 C697 0.930 . S
H690 C698 0.930 . S
H691 C699 0.930 . S
H692 C702 0.930 . S
H693 C703 0.930 1_545 S
C694 H688 0.930 . S
C694 C695 1.355 . S
C694 C696 1.415 . S
C695 C694 1.355 . S
C695 C697 1.419 . S
C696 C694 1.415 . S
C696 C701 1.425 . S
C696 C703 1.409 . S
C697 H689 0.930 . S
C697 C695 1.419 . S
C697 C698 1.362 . S
C698 H690 0.930 . S
C698 C697 1.362 . S
C698 C701 1.409 . S
C699 H691 0.930 . S
C699 C700 1.355 . S
C699 C701 1.415 . S
C700 C699 1.355 . S
C700 C702 1.419 1_565 S
C701 C696 1.425 . S
C701 C698 1.409 . S
C701 C699 1.415 . S
C702 H692 0.930 . S
C702 C700 1.419 1_545 S
C702 C703 1.362 1_545 S
C703 H693 0.930 1_565 S
C703 C696 1.409 . S
C703 C702 1.362 1_565 S
H704 C710 0.930 . S
H705 C713 0.930 . S
H706 C714 0.930 . S
H707 C715 0.930 . S
H708 C718 0.930 . S
H709 C719 0.930 . S
C710 H704 0.930 . S
C710 C711 1.355 . S
C710 C712 1.415 . S
C711 C710 1.355 . S
C711 C713 1.419 . S
C712 C710 1.415 . S
C712 C717 1.425 . S
C712 C719 1.409 . S
C713 H705 0.930 . S
C713 C711 1.419 . S
C713 C714 1.362 . S
C714 H706 0.930 . S
C714 C713 1.362 . S
C714 C717 1.409 . S
C715 H707 0.930 . S
C715 C716 1.355 . S
C715 C717 1.415 . S
C716 C715 1.355 . S
C716 C718 1.419 . S
C717 C712 1.425 . S
C717 C714 1.409 . S
C717 C715 1.415 . S
C718 H708 0.930 . S
C718 C716 1.419 . S
C718 C719 1.362 . S
C719 H709 0.930 . S
C719 C712 1.409 . S
C719 C718 1.362 . S
H720 C726 0.930 . S
H721 C729 0.930 . S
H722 C730 0.930 . S
H723 C731 0.930 . S
H724 C734 0.930 1_565 S
H725 C735 0.950 . S
C726 H720 0.930 . S
C726 C727 1.355 . S
C726 C728 1.415 1_554 S
C727 C726 1.355 . S
C727 C729 1.419 . S
C728 C726 1.415 1_556 S
C728 C733 1.425 . S
C728 C735 1.409 . S
C729 H721 0.930 . S
C729 C727 1.419 . S
C729 C730 1.362 1_554 S
C730 H722 0.930 . S
C730 C729 1.362 1_556 S
C730 C733 1.409 . S
C731 H723 0.930 . S
C731 C732 1.355 . S
C731 C733 1.415 . S
C732 C731 1.355 . S
C732 C734 1.419 . S
C733 C728 1.425 . S
C733 C730 1.409 . S
C733 C731 1.415 . S
C734 H724 0.930 1_545 S
C734 C732 1.419 . S
C734 C735 1.362 . S
C735 H725 0.950 . S
C735 C728 1.409 . S
C735 C734 1.362 . S
H736 C742 0.930 . S
H737 C745 0.930 . S
H738 C746 0.930 . S
H739 C747 0.930 . S
H740 C750 0.930 . S
H741 C751 0.930 . S
C742 H736 0.930 . S
C742 C743 1.355 . S
C742 C744 1.415 . S
C743 C742 1.355 . S
C743 C745 1.419 . S
C744 C742 1.415 . S
C744 C749 1.425 . S
C744 C751 1.409 . S
C745 H737 0.930 . S
C745 C743 1.419 . S
C745 C746 1.362 . S
C746 H738 0.930 . S
C746 C745 1.362 . S
C746 C749 1.409 . S
C747 H739 0.930 . S
C747 C748 1.355 . S
C747 C749 1.415 . S
C748 C747 1.355 . S
C748 C750 1.419 . S
C749 C744 1.425 . S
C749 C746 1.409 . S
C749 C747 1.415 . S
C750 H740 0.930 . S
C750 C748 1.419 . S
C750 C751 1.362 . S
C751 H741 0.930 . S
C751 C744 1.409 . S
C751 C750 1.362 . S
H752 C758 0.930 . S
H753 C761 0.930 . S
H754 C762 0.930 . S
H755 C763 0.930 . S
H756 C766 0.930 . S
H757 C767 0.930 . S
C758 H752 0.930 . S
C758 C759 1.355 . S
C758 C760 1.415 1_554 S
C759 C758 1.355 . S
C759 C761 1.419 . S
C760 C758 1.415 1_556 S
C760 C765 1.425 . S
C760 C767 1.409 . S
C761 H753 0.930 . S
C761 C759 1.419 . S
C761 C762 1.363 1_554 S
C762 H754 0.930 . S
C762 C761 1.363 1_556 S
C762 C765 1.409 . S
C763 H755 0.930 . S
C763 C764 1.355 . S
C763 C765 1.415 . S
C764 C763 1.355 . S
C764 C766 1.419 . S
C765 C760 1.425 . S
C765 C762 1.409 . S
C765 C763 1.415 . S
C766 H756 0.930 . S
C766 C764 1.419 . S
C766 C767 1.362 . S
C767 H757 0.930 . S
C767 C760 1.409 . S
C767 C766 1.362 . S
H768 C774 0.930 . S
H769 C777 0.930 . S
H770 C778 0.930 . S
H771 C779 0.930 . S
H772 C782 0.930 . S
H773 C783 0.930 . S
C774 H768 0.930 . S
C774 C775 1.355 . S
C774 C776 1.415 . S
C775 C774 1.355 . S
C775 C777 1.419 . S
C776 C774 1.415 . S
C776 C781 1.425 . S
C776 C783 1.409 . S
C777 H769 0.930 . S
C777 C775 1.419 . S
C777 C778 1.362 . S
C778 H770 0.930 . S
C778 C777 1.362 . S
C778 C781 1.409 . S
C779 H771 0.930 . S
C779 C780 1.355 . S
C779 C781 1.415 . S
C780 C779 1.355 . S
C780 C782 1.419 . S
C781 C776 1.425 . S
C781 C778 1.409 . S
C781 C779 1.415 . S
C782 H772 0.930 . S
C782 C780 1.419 . S
C782 C783 1.362 . S
C783 H773 0.930 . S
C783 C776 1.409 . S
C783 C782 1.362 . S
H784 C790 0.930 . S
H785 C793 0.930 . S
H786 C794 0.930 . S
H787 C795 0.930 . S
H788 C798 0.930 . S
H789 C799 0.930 . S
C790 H784 0.930 . S
C790 C791 1.355 . S
C790 C792 1.415 . S
C791 C790 1.355 . S
C791 C793 1.419 . S
C792 C790 1.415 . S
C792 C797 1.425 . S
C792 C799 1.409 . S
C793 H785 0.930 . S
C793 C791 1.419 . S
C793 C794 1.362 . S
C794 H786 0.930 . S
C794 C793 1.362 . S
C794 C797 1.409 . S
C795 H787 0.930 . S
C795 C796 1.355 . S
C795 C797 1.415 . S
C796 C795 1.355 . S
C796 C798 1.419 . S
C797 C792 1.425 . S
C797 C794 1.409 . S
C797 C795 1.415 . S
C798 H788 0.930 . S
C798 C796 1.419 . S
C798 C799 1.362 . S
C799 H789 0.930 . S
C799 C792 1.409 . S
C799 C798 1.362 . S
H800 C806 0.930 . S
H801 C809 0.930 . S
H802 C810 0.930 . S
H803 C811 0.930 . S
H804 C814 0.930 . S
H805 C815 0.930 . S
C806 H800 0.930 . S
C806 C807 1.355 . S
C806 C808 1.415 . S
C807 C806 1.355 . S
C807 C809 1.419 . S
C808 C806 1.415 . S
C808 C813 1.425 . S
C808 C815 1.409 . S
C809 H801 0.930 . S
C809 C807 1.419 . S
C809 C810 1.362 . S
C810 H802 0.930 . S
C810 C809 1.362 . S
C810 C813 1.409 . S
C811 H803 0.930 . S
C811 C812 1.355 . S
C811 C813 1.415 . S
C812 C811 1.355 . S
C812 C814 1.419 . S
C813 C808 1.425 . S
C813 C810 1.409 . S
C813 C811 1.415 . S
C814 H804 0.930 . S
C814 C812 1.419 . S
C814 C815 1.362 . S
C815 H805 0.930 . S
C815 C808 1.409 . S
C815 C814 1.362 . S
H816 C822 0.930 . S
H817 C825 0.930 . S
H818 C826 0.930 1_565 S
H819 C827 0.930 . S
H820 C830 0.931 1_655 S
H821 C831 0.930 1_645 S
C822 H816 0.930 . S
C822 C823 1.355 . S
C822 C824 1.415 . S
C823 C822 1.355 . S
C823 C825 1.419 . S
C824 C822 1.415 . S
C824 C829 1.425 1_545 S
C824 C831 1.409 1_545 S
C825 H817 0.930 . S
C825 C823 1.419 . S
C825 C826 1.362 . S
C826 H818 0.930 1_545 S
C826 C825 1.362 . S
C826 C829 1.409 1_545 S
C827 H819 0.930 . S
C827 C828 1.355 . S
C827 C829 1.415 . S
C828 C827 1.355 . S
C828 C830 1.418 . S
C829 C824 1.425 1_565 S
C829 C826 1.409 1_565 S
C829 C827 1.415 . S
C830 H820 0.931 1_455 S
C830 C828 1.418 . S
C830 C831 1.362 . S
C831 H821 0.930 1_465 S
C831 C824 1.409 1_565 S
C831 C830 1.362 . S
H832 C838 0.930 . S
H833 C841 0.930 . S
H834 C842 0.930 . S
H835 C843 0.930 . S
H836 C846 0.930 . S
H837 C847 0.930 . S
C838 H832 0.930 . S
C838 C839 1.355 . S
C838 C840 1.415 . S
C839 C838 1.355 . S
C839 C841 1.419 . S
C840 C838 1.415 . S
C840 C845 1.425 . S
C840 C847 1.409 . S
C841 H833 0.930 . S
C841 C839 1.419 . S
C841 C842 1.362 . S
C842 H834 0.930 . S
C842 C841 1.362 . S
C842 C845 1.409 . S
C843 H835 0.930 . S
C843 C844 1.355 . S
C843 C845 1.415 . S
C844 C843 1.355 . S
C844 C846 1.419 . S
C845 C840 1.425 . S
C845 C842 1.409 . S
C845 C843 1.415 . S
C846 H836 0.930 . S
C846 C844 1.419 . S
C846 C847 1.362 . S
C847 H837 0.930 . S
C847 C840 1.409 . S
C847 C846 1.362 . S
H848 C854 0.930 . S
H849 C857 0.930 . S
H850 C858 0.930 . S
H851 C859 0.930 . S
H852 C862 0.930 . S
H853 C863 0.930 . S
C854 H848 0.930 . S
C854 C855 1.355 . S
C854 C856 1.415 1_545 S
C855 C854 1.355 . S
C855 C857 1.419 . S
C856 C854 1.415 1_565 S
C856 C861 1.425 . S
C856 C863 1.409 . S
C857 H849 0.930 . S
C857 C855 1.419 . S
C857 C858 1.362 . S
C858 H850 0.930 . S
C858 C857 1.362 . S
C858 C861 1.409 1_545 S
C859 H851 0.930 . S
C859 C860 1.355 . S
C859 C861 1.415 . S
C860 C859 1.355 . S
C860 C862 1.419 . S
C861 C856 1.425 . S
C861 C858 1.409 1_565 S
C861 C859 1.415 . S
C862 H852 0.930 . S
C862 C860 1.419 . S
C862 C863 1.362 . S
C863 H853 0.930 . S
C863 C856 1.409 . S
C863 C862 1.362 . S
H864 C870 0.930 . S
H865 C873 0.930 . S
H866 C874 0.930 . S
H867 C875 0.930 . S
H868 C878 0.930 . S
H869 C879 0.930 . S
C870 H864 0.930 . S
C870 C871 1.355 . S
C870 C872 1.415 . S
C871 C870 1.355 . S
C871 C873 1.419 . S
C872 C870 1.415 . S
C872 C877 1.425 . S
C872 C879 1.409 . S
C873 H865 0.930 . S
C873 C871 1.419 . S
C873 C874 1.362 . S
C874 H866 0.930 . S
C874 C873 1.362 . S
C874 C877 1.409 . S
C875 H867 0.930 . S
C875 C876 1.355 . S
C875 C877 1.415 . S
C876 C875 1.355 . S
C876 C878 1.419 . S
C877 C872 1.425 . S
C877 C874 1.409 . S
C877 C875 1.415 . S
C878 H868 0.930 . S
C878 C876 1.419 . S
C878 C879 1.362 . S
C879 H869 0.930 . S
C879 C872 1.409 . S
C879 C878 1.362 . S
H880 C886 0.930 . S
H881 C889 0.930 . S
H882 C890 0.930 . S
H883 C891 0.930 . S
H884 C894 0.930 . S
H885 C895 0.930 . S
C886 H880 0.930 . S
C886 C887 1.355 . S
C886 C888 1.415 . S
C887 C886 1.355 . S
C887 C889 1.419 . S
C888 C886 1.415 . S
C888 C893 1.425 . S
C888 C895 1.409 . S
C889 H881 0.930 . S
C889 C887 1.419 . S
C889 C890 1.362 . S
C890 H882 0.930 . S
C890 C889 1.362 . S
C890 C893 1.409 . S
C891 H883 0.930 . S
C891 C892 1.355 . S
C891 C893 1.415 . S
C892 C891 1.355 . S
C892 C894 1.419 . S
C893 C888 1.425 . S
C893 C890 1.409 . S
C893 C891 1.415 . S
C894 H884 0.930 . S
C894 C892 1.419 . S
C894 C895 1.362 . S
C895 H885 0.930 . S
C895 C888 1.409 . S
C895 C894 1.362 . S
H896 C902 0.930 . S
H897 C905 0.930 . S
H898 C906 0.930 . S
H899 C907 0.930 . S
H900 C910 0.930 . S
H901 C911 0.930 . S
C902 H896 0.930 . S
C902 C903 1.355 . S
C902 C904 1.415 . S
C903 C902 1.355 . S
C903 C905 1.419 . S
C904 C902 1.415 . S
C904 C909 1.425 . S
C904 C911 1.409 . S
C905 H897 0.930 . S
C905 C903 1.419 . S
C905 C906 1.362 . S
C906 H898 0.930 . S
C906 C905 1.362 . S
C906 C909 1.409 . S
C907 H899 0.930 . S
C907 C908 1.355 . S
C907 C909 1.415 . S
C908 C907 1.355 . S
C908 C910 1.419 . S
C909 C904 1.425 . S
C909 C906 1.409 . S
C909 C907 1.415 . S
C910 H900 0.930 . S
C910 C908 1.419 . S
C910 C911 1.362 . S
C911 H901 0.930 . S
C911 C904 1.409 . S
C911 C910 1.362 . S
H912 C918 0.930 . S
H913 C921 0.930 . S
H914 C922 0.930 . S
H915 C923 0.930 . S
H916 C926 0.930 . S
H917 C927 0.930 . S
C918 H912 0.930 . S
C918 C919 1.355 . S
C918 C920 1.415 . S
C919 C918 1.355 . S
C919 C921 1.419 . S
C920 C918 1.415 . S
C920 C925 1.425 . S
C920 C927 1.409 . S
C921 H913 0.930 . S
C921 C919 1.419 . S
C921 C922 1.362 . S
C922 H914 0.930 . S
C922 C921 1.362 . S
C922 C925 1.409 . S
C923 H915 0.930 . S
C923 C924 1.355 . S
C923 C925 1.415 . S
C924 C923 1.355 . S
C924 C926 1.419 . S
C925 C920 1.425 . S
C925 C922 1.409 . S
C925 C923 1.415 . S
C926 H916 0.930 . S
C926 C924 1.419 . S
C926 C927 1.362 . S
C927 H917 0.930 . S
C927 C920 1.409 . S
C927 C926 1.362 . S
H928 C934 0.930 . S
H929 C937 0.930 . S
H930 C938 0.930 . S
H931 C939 0.930 . S
H932 C942 0.930 . S
H933 C943 0.930 . S
C934 H928 0.930 . S
C934 C935 1.355 . S
C934 C936 1.415 . S
C935 C934 1.355 . S
C935 C937 1.419 . S
C936 C934 1.415 . S
C936 C941 1.425 . S
C936 C943 1.409 . S
C937 H929 0.930 . S
C937 C935 1.419 . S
C937 C938 1.362 . S
C938 H930 0.930 . S
C938 C937 1.362 . S
C938 C941 1.409 . S
C939 H931 0.930 . S
C939 C940 1.355 . S
C939 C941 1.415 . S
C940 C939 1.355 . S
C940 C942 1.419 . S
C941 C936 1.425 . S
C941 C938 1.409 . S
C941 C939 1.415 . S
C942 H932 0.930 . S
C942 C940 1.419 . S
C942 C943 1.362 . S
C943 H933 0.930 . S
C943 C936 1.409 . S
C943 C942 1.362 . S
H944 C950 0.930 . S
H945 C953 0.930 . S
H946 C954 0.930 . S
H947 C955 0.930 . S
H948 C958 0.930 . S
H949 C959 0.930 . S
C950 H944 0.930 . S
C950 C951 1.355 . S
C950 C952 1.415 . S
C951 C950 1.355 . S
C951 C953 1.419 . S
C952 C950 1.415 . S
C952 C957 1.425 . S
C952 C959 1.409 . S
C953 H945 0.930 . S
C953 C951 1.419 . S
C953 C954 1.362 . S
C954 H946 0.930 . S
C954 C953 1.362 . S
C954 C957 1.409 . S
C955 H947 0.930 . S
C955 C956 1.355 . S
C955 C957 1.415 . S
C956 C955 1.355 . S
C956 C958 1.419 . S
C957 C952 1.425 . S
C957 C954 1.409 . S
C957 C955 1.415 . S
C958 H948 0.930 . S
C958 C956 1.419 . S
C958 C959 1.362 . S
C959 H949 0.930 . S
C959 C952 1.409 . S
C959 C958 1.362 . S
H960 C966 0.930 . S
H961 C969 0.930 . S
H962 C970 0.930 . S
H963 C971 0.930 . S
H964 C974 0.930 . S
H965 C975 0.930 . S
C966 H960 0.930 . S
C966 C967 1.355 . S
C966 C968 1.415 1_455 S
C967 C966 1.355 . S
C967 C969 1.419 . S
C968 C966 1.415 1_655 S
C968 C973 1.425 . S
C968 C975 1.409 . S
C969 H961 0.930 . S
C969 C967 1.419 . S
C969 C970 1.362 . S
C970 H962 0.930 . S
C970 C969 1.362 . S
C970 C973 1.409 1_455 S
C971 H963 0.930 . S
C971 C972 1.355 . S
C971 C973 1.415 . S
C972 C971 1.355 . S
C972 C974 1.419 . S
C973 C968 1.425 . S
C973 C970 1.409 1_655 S
C973 C971 1.415 . S
C974 H964 0.930 . S
C974 C972 1.419 . S
C974 C975 1.362 . S
C975 H965 0.930 . S
C975 C968 1.409 . S
C975 C974 1.362 . S
H976 C982 0.930 . S
H977 C985 0.930 . S
H978 C986 0.930 . S
H979 C987 0.930 . S
H980 C990 0.930 . S
H981 C991 0.930 . S
C982 H976 0.930 . S
C982 C983 1.355 . S
C982 C984 1.415 . S
C983 C982 1.355 . S
C983 C985 1.419 . S
C984 C982 1.415 . S
C984 C989 1.425 . S
C984 C991 1.409 . S
C985 H977 0.930 . S
C985 C983 1.419 . S
C985 C986 1.362 . S
C986 H978 0.930 . S
C986 C985 1.362 . S
C986 C989 1.409 . S
C987 H979 0.930 . S
C987 C988 1.355 . S
C987 C989 1.415 . S
C988 C987 1.355 . S
C988 C990 1.419 . S
C989 C984 1.425 . S
C989 C986 1.409 . S
C989 C987 1.415 . S
C990 H980 0.930 . S
C990 C988 1.419 . S
C990 C991 1.362 . S
C991 H981 0.930 . S
C991 C984 1.409 . S
C991 C990 1.362 . S
H992 C998 0.930 . S
H993 C1001 0.930 . S
H994 C1002 0.930 . S
H995 C1003 0.930 . S
H996 C1006 0.930 . S
H997 C1007 0.930 . S
C998 H992 0.930 . S
C998 C999 1.355 . S
C998 C1000 1.415 . S
C999 C998 1.355 . S
C999 C1001 1.419 . S
C1000 C998 1.415 . S
C1000 C1005 1.425 . S
C1000 C1007 1.409 . S
C1001 H993 0.930 . S
C1001 C999 1.419 . S
C1001 C1002 1.362 . S
C1002 H994 0.930 . S
C1002 C1001 1.362 . S
C1002 C1005 1.409 . S
C1003 H995 0.930 . S
C1003 C1004 1.355 . S
C1003 C1005 1.415 . S
C1004 C1003 1.355 . S
C1004 C1006 1.419 . S
C1005 C1000 1.425 . S
C1005 C1002 1.409 . S
C1005 C1003 1.415 . S
C1006 H996 0.930 . S
C1006 C1004 1.419 . S
C1006 C1007 1.362 . S
C1007 H997 0.930 . S
C1007 C1000 1.409 . S
C1007 C1006 1.362 . S
H1008 C1014 0.930 . S
H1009 C1017 0.930 . S
H1010 C1018 0.930 . S
H1011 C1019 0.930 . S
H1012 C1022 0.930 . S
H1013 C1023 0.930 . S
C1014 H1008 0.930 . S
C1014 C1015 1.355 . S
C1014 C1016 1.415 . S
C1015 C1014 1.355 . S
C1015 C1017 1.419 . S
C1016 C1014 1.415 . S
C1016 C1021 1.425 . S
C1016 C1023 1.409 . S
C1017 H1009 0.930 . S
C1017 C1015 1.419 . S
C1017 C1018 1.362 . S
C1018 H1010 0.930 . S
C1018 C1017 1.362 . S
C1018 C1021 1.409 . S
C1019 H1011 0.930 . S
C1019 C1020 1.355 . S
C1019 C1021 1.415 . S
C1020 C1019 1.355 . S
C1020 C1022 1.419 . S
C1021 C1016 1.425 . S
C1021 C1018 1.409 . S
C1021 C1019 1.415 . S
C1022 H1012 0.930 . S
C1022 C1020 1.419 . S
C1022 C1023 1.362 . S
C1023 H1013 0.930 . S
C1023 C1016 1.409 . S
C1023 C1022 1.362 . S
H1024 C1030 0.930 . S
H1025 C1033 0.930 . S
H1026 C1034 0.930 . S
H1027 C1035 0.930 . S
H1028 C1038 0.930 . S
H1029 C1039 0.930 . S
C1030 H1024 0.930 . S
C1030 C1031 1.355 . S
C1030 C1032 1.415 . S
C1031 C1030 1.355 . S
C1031 C1033 1.419 . S
C1032 C1030 1.415 . S
C1032 C1037 1.425 . S
C1032 C1039 1.409 . S
C1033 H1025 0.930 . S
C1033 C1031 1.419 . S
C1033 C1034 1.362 . S
C1034 H1026 0.930 . S
C1034 C1033 1.362 . S
C1034 C1037 1.409 . S
C1035 H1027 0.930 . S
C1035 C1036 1.355 . S
C1035 C1037 1.415 . S
C1036 C1035 1.355 . S
C1036 C1038 1.419 . S
C1037 C1032 1.425 . S
C1037 C1034 1.409 . S
C1037 C1035 1.415 . S
C1038 H1028 0.930 . S
C1038 C1036 1.419 . S
C1038 C1039 1.362 . S
C1039 H1029 0.930 . S
C1039 C1032 1.409 . S
C1039 C1038 1.362 . S
H1040 C1046 0.930 . S
H1041 C1049 0.930 . S
H1042 C1050 0.930 . S
H1043 C1051 0.930 . S
H1044 C1054 0.930 . S
H1045 C1055 0.930 . S
C1046 H1040 0.930 . S
C1046 C1047 1.355 . S
C1046 C1048 1.415 1_655 S
C1047 C1046 1.355 . S
C1047 C1049 1.419 . S
C1048 C1046 1.415 1_455 S
C1048 C1053 1.425 . S
C1048 C1055 1.409 . S
C1049 H1041 0.930 . S
C1049 C1047 1.419 . S
C1049 C1050 1.362 . S
C1050 H1042 0.930 . S
C1050 C1049 1.362 . S
C1050 C1053 1.409 1_655 S
C1051 H1043 0.930 . S
C1051 C1052 1.355 . S
C1051 C1053 1.415 . S
C1052 C1051 1.355 . S
C1052 C1054 1.419 . S
C1053 C1048 1.425 . S
C1053 C1050 1.409 1_455 S
C1053 C1051 1.415 . S
C1054 H1044 0.930 . S
C1054 C1052 1.419 . S
C1054 C1055 1.362 . S
C1055 H1045 0.930 . S
C1055 C1048 1.409 . S
C1055 C1054 1.362 . S
C487 C19 1.436 . S
C492 C459 1.379 . S
C503 C378 2.140 . S
C508 C58 2.157 . S
C519 C98 1.424 . S
C524 C338 1.412 . S
C535 C138 1.735 . S
C540 C419 1.627 . S
C551 C178 1.937 . S
C556 C418 1.929 . S
C567 C219 1.568 . S
C572 C458 1.740 . S
C583 C379 1.756 . S
C588 C258 1.797 . S
C599 C299 1.371 . S
C604 C339 1.349 . S
C615 C139 1.495 . S
C620 C179 1.430 . S
C631 C18 1.954 . S
C636 C218 1.966 . S
C647 C59 1.814 . S
C652 C259 1.869 . S
C663 C298 1.733 . S
C668 C99 1.683 . S
C679 C15 2.017 . S
C684 C329 1.974 . S
C695 C46 1.523 . S
C700 C410 1.514 . S
C711 C450 1.831 . S
C716 C86 1.856 . S
C727 C126 1.706 . S
C732 C369 1.620 . S
C743 C166 1.373 . S
C748 C370 1.336 . S
C759 C330 2.730 . S
C764 C215 2.606 . S
C775 C409 1.300 . S
C780 C246 1.391 . S
C791 C449 1.744 . S
C796 C295 1.794 . S
C807 C9 1.881 . S
C812 C135 1.922 . S
C823 C6 1.534 . S
C828 C50 1.519 . S
C839 C55 2.054 . S
C844 C90 2.126 . S
C855 C130 2.157 . S
C860 C95 2.102 . S
C871 C206 1.699 . S
C876 C170 1.667 . S
C887 C209 1.395 . S
C892 C255 1.447 . S
C903 C250 1.486 . S
C908 C286 1.509 . S
C919 C175 2.125 . S
C924 C289 2.066 . S
C935 C335 2.010 . S
C940 C129 1.983 . S
C951 C210 1.680 . S
C956 C366 1.712 . S
C967 C326 1.285 . S
C972 C249 1.225 . S
C983 C415 1.589 . S
C988 C290 1.628 . S
C999 C169 1.729 . S
C1004 C455 1.774 . S
C1015 C446 0.748 . S
C1020 C49 0.802 . S
C1031 C89 1.943 . S
C1036 C375 1.994 . S
C1047 C406 1.603 . S
C1052 C10 1.559 . S
