# Generated by pormake.
# Topology wkt, (7)-cn, num edge types: 1
# Building blocks:
#     Node 0, Type 0, BuildingBlock: HICVOG_clean_sbu_0, # of connection points: 7
#     Node 1, Type 0, BuildingBlock: HICVOG_clean_sbu_0, # of connection points: 7
#     Node 2, Type 0, BuildingBlock: HICVOG_clean_sbu_0, # of connection points: 7
#     Node 3, Type 0, BuildingBlock: HICVOG_clean_sbu_0, # of connection points: 7
#     Node 4, Type 0, BuildingBlock: HICVOG_clean_sbu_0, # of connection points: 7
#     Node 5, Type 0, BuildingBlock: HICVOG_clean_sbu_0, # of connection points: 7
#     Node 6, Type 0, BuildingBlock: HICVOG_clean_sbu_0, # of connection points: 7
#     Node 7, Type 0, BuildingBlock: HICVOG_clean_sbu_0, # of connection points: 7
#     Node 8, Type 0, BuildingBlock: HICVOG_clean_sbu_0, # of connection points: 7
#     Node 9, Type 0, BuildingBlock: HICVOG_clean_sbu_0, # of connection points: 7
#     Node 10, Type 0, BuildingBlock: HICVOG_clean_sbu_0, # of connection points: 7
#     Node 11, Type 0, BuildingBlock: HICVOG_clean_sbu_0, # of connection points: 7
#     Edge 12, Type (0, 0), BuildingBlock: OJICUG_clean_linker_0, # of connection points: 2
#     Edge 13, Type (0, 0), BuildingBlock: OJICUG_clean_linker_0, # of connection points: 2
#     Edge 14, Type (0, 0), BuildingBlock: OJICUG_clean_linker_0, # of connection points: 2
#     Edge 15, Type (0, 0), BuildingBlock: OJICUG_clean_linker_0, # of connection points: 2
#     Edge 16, Type (0, 0), BuildingBlock: OJICUG_clean_linker_0, # of connection points: 2
#     Edge 17, Type (0, 0), BuildingBlock: OJICUG_clean_linker_0, # of connection points: 2
#     Edge 18, Type (0, 0), BuildingBlock: OJICUG_clean_linker_0, # of connection points: 2
#     Edge 19, Type (0, 0), BuildingBlock: OJICUG_clean_linker_0, # of connection points: 2
#     Edge 20, Type (0, 0), BuildingBlock: OJICUG_clean_linker_0, # of connection points: 2
#     Edge 21, Type (0, 0), BuildingBlock: OJICUG_clean_linker_0, # of connection points: 2
#     Edge 22, Type (0, 0), BuildingBlock: OJICUG_clean_linker_0, # of connection points: 2
#     Edge 23, Type (0, 0), BuildingBlock: OJICUG_clean_linker_0, # of connection points: 2
#     Edge 24, Type (0, 0), BuildingBlock: OJICUG_clean_linker_0, # of connection points: 2
#     Edge 25, Type (0, 0), BuildingBlock: OJICUG_clean_linker_0, # of connection points: 2
#     Edge 26, Type (0, 0), BuildingBlock: OJICUG_clean_linker_0, # of connection points: 2
#     Edge 27, Type (0, 0), BuildingBlock: OJICUG_clean_linker_0, # of connection points: 2
#     Edge 28, Type (0, 0), BuildingBlock: OJICUG_clean_linker_0, # of connection points: 2
#     Edge 29, Type (0, 0), BuildingBlock: OJICUG_clean_linker_0, # of connection points: 2
#     Edge 30, Type (0, 0), BuildingBlock: OJICUG_clean_linker_0, # of connection points: 2
#     Edge 31, Type (0, 0), BuildingBlock: OJICUG_clean_linker_0, # of connection points: 2
#     Edge 32, Type (0, 0), BuildingBlock: OJICUG_clean_linker_0, # of connection points: 2
#     Edge 33, Type (0, 0), BuildingBlock: OJICUG_clean_linker_0, # of connection points: 2
#     Edge 34, Type (0, 0), BuildingBlock: OJICUG_clean_linker_0, # of connection points: 2
#     Edge 35, Type (0, 0), BuildingBlock: OJICUG_clean_linker_0, # of connection points: 2
#     Edge 36, Type (0, 0), BuildingBlock: OJICUG_clean_linker_0, # of connection points: 2
#     Edge 37, Type (0, 0), BuildingBlock: OJICUG_clean_linker_0, # of connection points: 2
#     Edge 38, Type (0, 0), BuildingBlock: OJICUG_clean_linker_0, # of connection points: 2
#     Edge 39, Type (0, 0), BuildingBlock: OJICUG_clean_linker_0, # of connection points: 2
#     Edge 40, Type (0, 0), BuildingBlock: OJICUG_clean_linker_0, # of connection points: 2
#     Edge 41, Type (0, 0), BuildingBlock: OJICUG_clean_linker_0, # of connection points: 2
#     Edge 42, Type (0, 0), BuildingBlock: OJICUG_clean_linker_0, # of connection points: 2
#     Edge 43, Type (0, 0), BuildingBlock: OJICUG_clean_linker_0, # of connection points: 2
#     Edge 44, Type (0, 0), BuildingBlock: OJICUG_clean_linker_0, # of connection points: 2
#     Edge 45, Type (0, 0), BuildingBlock: OJICUG_clean_linker_0, # of connection points: 2
#     Edge 46, Type (0, 0), BuildingBlock: OJICUG_clean_linker_0, # of connection points: 2
#     Edge 47, Type (0, 0), BuildingBlock: OJICUG_clean_linker_0, # of connection points: 2
#     Edge 48, Type (0, 0), BuildingBlock: OJICUG_clean_linker_0, # of connection points: 2
#     Edge 49, Type (0, 0), BuildingBlock: OJICUG_clean_linker_0, # of connection points: 2
#     Edge 50, Type (0, 0), BuildingBlock: OJICUG_clean_linker_0, # of connection points: 2
#     Edge 51, Type (0, 0), BuildingBlock: OJICUG_clean_linker_0, # of connection points: 2
#     Edge 52, Type (0, 0), BuildingBlock: OJICUG_clean_linker_0, # of connection points: 2
#     Edge 53, Type (0, 0), BuildingBlock: OJICUG_clean_linker_0, # of connection points: 2
# Relax obj value: 0.245
# Max RMSD: 0.216
# Mean RMSD: 0.216
data_MOF--net-wkt--node1-HICVOG_clean_sbu_0--edge1-OJICUG_clean_linker_0
_symmetry_space_group_name_H-M    P1
_symmetry_Int_Tables_number       1
_symmetry_cell_setting            triclinic
loop_
_symmetry_equiv_pos_as_xyz
'x, y, z'
_cell_length_a     24.637618
_cell_length_b     24.549204
_cell_length_c     40.751208
_cell_angle_alpha  89.877863
_cell_angle_beta   90.373352
_cell_angle_gamma 120.24525
loop_
_atom_site_label
_atom_site_type_symbol
_atom_site_fract_x
_atom_site_fract_y
_atom_site_fract_z
_atom_type_partial_charge
Zn0 Zn 0.40087 0.49991 0.06965 0.0
C1 C 0.37594 0.34267 0.12038 0.0
N2 N 0.34683 0.36107 0.14175 0.0
C3 C 0.35763 0.4167 0.12934 0.0
N4 N 0.39137 0.43243 0.10138 0.0
N5 N 0.40346 0.38613 0.09602 0.0
C6 C 0.47728 0.30876 1.0239 0.0
O7 O 0.52056 0.36161 1.01061 0.0
O8 O 0.40354 0.58177 0.09254 0.0
Zn9 Zn 0.47015 0.39551 0.06879 0.0
N10 N 0.32875 0.45479 0.04105 0.0
C11 C 0.23799 0.3618 1.02172 0.0
C12 C 0.28447 0.39315 0.04558 0.0
C13 C 0.32958 0.48538 1.01324 0.0
N14 N 0.23717 0.39354 0.99454 0.0
C15 C 0.28229 0.4547 0.98941 0.0
O16 O 0.49248 0.45377 1.02914 0.0
C17 C 0.49582 0.50393 1.01814 0.0
O18 O 0.47113 0.53108 1.03386 0.0
H19 H 0.28542 0.3682 0.06723 0.0
H20 H 0.36591 0.5342 1.01058 0.0
C21 C 0.59636 0.47757 0.0833 0.0
C22 C 0.64659 0.52165 0.10265 0.0
C23 C 0.58714 0.47423 0.15051 0.0
C24 C 0.5362 0.4333 0.13102 0.0
N25 N 0.542 0.43545 0.09775 0.0
N26 N 0.64088 0.51796 0.1359 0.0
H27 H 0.59885 0.4774 0.05687 0.0
C28 C 0.37552 0.61191 0.08349 0.0
O29 O 0.3387 0.59153 0.05755 0.0
O30 O 0.45081 0.31104 0.05009 0.0
H31 H 0.49211 0.40197 0.14251 0.0
H32 H 0.20219 0.31295 1.02506 0.0
H33 H 0.58332 0.47281 0.17697 0.0
Zn34 Zn 0.11349 0.47244 0.23562 0.0
C35 C 0.99711 0.33303 0.2897 0.0
N36 N 0.04992 0.33242 0.29846 0.0
C37 C 0.09096 0.36783 0.27501 0.0
N38 N 0.06465 0.39021 0.2536 0.0
N39 N 1.00524 0.36769 0.26225 0.0
C40 C 0.81546 0.37408 0.24299 0.0
O41 O 0.81232 0.37114 0.21081 0.0
O42 O 0.19632 0.48379 0.22022 0.0
Zn43 Zn 0.93814 0.36627 0.23304 0.0
N44 N 0.12697 0.5286 0.27219 0.0
C45 C 0.10208 0.54506 0.32644 0.0
C46 C 0.08903 0.50675 0.29899 0.0
C47 C 0.17721 0.58784 0.27183 0.0
N48 N 0.1514 0.60476 0.32574 0.0
C49 C 0.18946 0.62738 0.29913 0.0
O50 O 0.96995 0.42705 0.19354 0.0
C51 C 1.02146 0.46869 0.1807 0.0
O52 O 0.0739 0.48696 0.19513 0.0
H53 H 0.04892 0.46008 0.2995 0.0
H54 H 0.20558 0.60434 0.24992 0.0
C55 C 0.86941 0.27329 0.18388 0.0
C56 C 0.85261 0.21953 0.16471 0.0
C57 C 0.91643 0.19539 0.19819 0.0
C58 C 0.933 0.24874 0.2171 0.0
N59 N 0.90855 0.28642 0.2099 0.0
N60 N 0.87616 0.1816 0.17263 0.0
H61 H 0.85103 0.30412 0.17861 0.0
C62 C 0.22556 0.51834 0.19582 0.0
O63 O 0.20542 0.55345 0.18225 0.0
O64 O 0.86229 0.37358 0.25715 0.0
H65 H 0.96581 0.25975 0.23699 0.0
H66 H 0.07242 0.52798 0.34787 0.0
H67 H 0.93527 0.16503 0.20384 0.0
Zn68 Zn 0.5772 0.91554 0.39989 0.0
C69 C 0.73455 0.04779 0.45099 0.0
N70 N 0.71472 1.00036 0.4728 0.0
C71 C 0.65884 0.95608 0.46025 0.0
N72 N 0.64435 0.97412 0.43181 0.0
N73 N 0.69151 1.03226 0.4263 0.0
C74 C 0.76568 0.19451 0.36136 0.0
O75 O 0.71304 0.18851 0.3498 0.0
O76 O 0.49441 0.83679 0.42298 0.0
Zn77 Zn 0.6801 0.09014 0.40056 0.0
N78 N 0.6219 0.88605 0.37319 0.0
C79 C 0.7141 0.8855 0.35647 0.0
C80 C 0.68219 0.901 0.37943 0.0
C81 C 0.59321 0.85813 0.34461 0.0
N82 N 0.68435 0.85533 0.32833 0.0
C83 C 0.62465 0.84177 0.32149 0.0
O84 O 0.62564 0.05584 0.35906 0.0
C85 C 0.57759 1.0083 0.34658 0.0
O86 O 0.55003 0.95553 0.3619 0.0
H87 H 0.7058 0.9255 0.40169 0.0
H88 H 0.54533 0.84726 0.34062 0.0
C89 C 0.59626 0.13118 0.41718 0.0
C90 C 0.55493 0.13875 0.43767 0.0
C91 C 0.60356 0.12302 0.4842 0.0
C92 C 0.6427 0.11322 0.46369 0.0
N93 N 0.63852 0.11781 0.43053 0.0
N94 N 0.56038 0.13516 0.47076 0.0
H95 H 0.59498 0.13473 0.39081 0.0
C96 C 0.4634 0.77811 0.41433 0.0
O97 O 0.48238 0.76092 0.38837 0.0
O98 O 0.76353 0.15892 0.38449 0.0
H99 H 0.67477 0.10057 0.47441 0.0
H100 H 0.76189 0.89668 0.36117 0.0
H101 H 0.60649 0.11971 0.51056 0.0
Zn102 Zn 0.61021 0.67003 0.56837 0.0
C103 C 0.76781 0.70922 0.61339 0.0
N104 N 0.76828 0.76242 0.62221 0.0
C105 C 0.72258 0.76124 0.60355 0.0
N106 N 0.69463 0.70867 0.58448 0.0
N107 N 0.7231 0.67576 0.59034 0.0
C108 C 0.70212 0.47136 0.57471 0.0
O109 O 0.69404 0.46461 0.54277 0.0
O110 O 0.59064 0.73705 0.55525 0.0
Zn111 Zn 0.71702 0.60529 0.56195 0.0
N112 N 0.55898 0.62329 0.60521 0.0
C113 C 0.54829 0.58161 0.65922 0.0
C114 C 0.58528 0.61219 0.63204 0.0
C115 C 0.49742 0.60578 0.60476 0.0
N116 N 0.48622 0.56257 0.65842 0.0
C117 C 0.45989 0.57439 0.63193 0.0
O118 O 0.65299 0.57393 0.5241 0.0
C119 C 0.6113 0.58401 0.51165 0.0
O120 O 0.594 0.61825 0.52651 0.0
H121 H 0.6345 0.62698 0.63268 0.0
H122 H 0.47776 0.6146 0.58294 0.0
C123 C 0.80784 0.61969 0.51386 0.0
C124 C 0.85805 0.65317 0.49222 0.0
C125 C 0.87498 0.74933 0.51452 0.0
C126 C 0.82437 0.71603 0.5355 0.0
N127 N 0.79239 0.65168 0.53528 0.0
N128 N 0.89096 0.71721 0.49346 0.0
H129 H 0.7813 0.56874 0.51387 0.0
C130 C 0.55215 0.72804 0.53211 0.0
O131 O 0.51731 0.6711 0.52004 0.0
O132 O 0.71095 0.52324 0.58762 0.0
H133 H 0.81053 0.74202 0.55123 0.0
H134 H 0.56854 0.57236 0.68062 0.0
H135 H 0.90101 0.80034 0.51476 0.0
Zn136 Zn 0.16253 0.66344 0.73799 0.0
C137 C 1.02819 0.68178 0.79053 0.0
N138 N 0.07224 0.70152 0.81429 0.0
C139 C 0.11763 0.6933 0.8008 0.0
N140 N 0.10264 0.66888 0.77011 0.0
N141 N 1.04611 0.66139 0.7638 0.0
C142 C 0.92445 0.6288 0.6777 0.0
O143 O 0.91545 0.57269 0.67049 0.0
O144 O 0.24313 0.66026 0.76058 0.0
Zn145 Zn 0.99041 0.61173 0.72849 0.0
N146 N 0.19074 0.73772 0.71128 0.0
C147 C 0.19018 0.82979 0.69341 0.0
C148 C 0.1717 0.78043 0.71575 0.0
C149 C 0.22517 0.74095 0.68487 0.0
N150 N 0.22788 0.83504 0.66795 0.0
C151 C 0.24572 0.79148 0.66287 0.0
O152 O 1.02531 0.577 0.69422 0.0
C153 C 0.07091 0.57102 0.6842 0.0
O154 O 0.12296 0.5959 0.70022 0.0
H155 H 0.14224 0.77617 0.73626 0.0
H156 H 0.23864 0.70553 0.6822 0.0
C157 C 0.92164 0.49298 0.7593 0.0
C158 C 0.87202 0.4448 0.77732 0.0
C159 C 0.82102 0.50521 0.77742 0.0
C160 C 0.86889 0.55104 0.75829 0.0
N161 N 0.91874 0.54453 0.75021 0.0
N162 N 0.82329 0.45301 0.78608 0.0
H163 H 0.96142 0.48956 0.75119 0.0
C164 C 0.30237 0.69306 0.75359 0.0
O165 O 0.3197 0.73578 0.73044 0.0
O166 O 0.95854 0.65822 0.70224 0.0
H167 H 0.86644 0.59156 0.75015 0.0
H168 H 0.17588 0.86447 0.69671 0.0
H169 H 0.7815 0.51016 0.78456 0.0
Zn170 Zn 0.41459 0.9563 0.90389 0.0
C171 C 0.38355 0.07391 0.95324 0.0
N172 N 0.32962 1.02073 0.96128 0.0
C173 C 0.32742 0.97815 0.93968 0.0
N174 N 0.37877 1.00395 0.92024 0.0
N175 N 0.41388 0.06446 0.9282 0.0
C176 C 0.60953 0.25386 0.90957 0.0
O177 O 0.61296 0.25035 0.87755 0.0
O178 O 0.3454 0.87053 0.88941 0.0
Zn179 Zn 0.48132 0.13028 0.89965 0.0
N180 N 0.45782 0.94667 0.94135 0.0
C181 C 0.49456 0.97039 0.99672 0.0
C182 C 0.46575 0.97983 0.96952 0.0
C183 C 0.47673 0.9037 0.93964 0.0
N184 N 0.51511 0.92867 0.99466 0.0
C185 C 0.50641 0.89463 0.96687 0.0
O186 O 0.51634 0.09935 0.86343 0.0
C187 C 0.5066 0.0481 0.85031 0.0
O188 O 0.47004 0.99496 0.86358 0.0
H189 H 0.45 1.01334 0.97126 0.0
H190 H 0.47049 0.87855 0.91685 0.0
C191 C 0.44241 0.20915 0.86394 0.0
C192 C 0.40247 0.21647 0.84186 0.0
C193 C 0.33853 0.10581 0.83745 0.0
C194 C 0.37867 0.09859 0.8589 0.0
N195 N 0.42964 0.15028 0.87189 0.0
N196 N 0.35184 0.16463 0.82897 0.0
H197 H 0.48453 0.24954 0.87354 0.0
C198 C 0.35228 0.84109 0.86566 0.0
O199 O 0.40753 0.86436 0.85183 0.0
O200 O 0.55999 0.21055 0.92395 0.0
H201 H 0.36988 0.05188 0.86457 0.0
H202 H 0.50138 0.99671 1.01914 0.0
H203 H 0.29812 0.06502 0.82692 0.0
Zn204 Zn 0.63488 0.6847 0.83887 0.0
C205 C 0.8071 0.71352 0.80469 0.0
N206 N 0.80852 0.7621 0.7887 0.0
C207 C 0.75301 0.75732 0.79617 0.0
N208 N 0.71719 0.70695 0.81556 0.0
N209 N 0.75173 0.68002 0.82117 0.0
C210 C 0.77284 0.54088 0.87345 0.0
O211 O 0.72309 0.5189 0.89222 0.0
O212 O 0.56196 0.69389 0.81201 0.0
Zn213 Zn 0.71134 0.59736 0.83957 0.0
N214 N 0.66567 0.73967 0.87635 0.0
C215 C 0.7418 0.7854 0.91912 0.0
C216 C 0.72299 0.75508 0.8889 0.0
C217 C 0.62608 0.75257 0.89292 0.0
N218 N 0.7022 0.79836 0.93578 0.0
C219 C 0.64435 0.78228 0.9237 0.0
O220 O 0.66767 0.59139 0.88365 0.0
C221 C 0.61496 0.58788 0.88879 0.0
O222 O 0.58892 0.60247 0.86589 0.0
H223 H 0.75313 0.74213 0.8762 0.0
H224 H 0.58106 0.73936 0.88199 0.0
C225 C 0.59719 0.49638 0.81758 0.0
C226 C 0.54829 0.46147 0.79522 0.0
C227 C 0.60998 0.53063 0.75263 0.0
C228 C 0.6582 0.56525 0.77508 0.0
N229 N 0.65045 0.54728 0.80709 0.0
N230 N 0.55632 0.47934 0.76313 0.0
H231 H 0.59437 0.483 0.84308 0.0
C232 C 0.50381 0.66679 0.821 0.0
O233 O 0.48782 0.63133 0.84738 0.0
O234 O 0.77386 0.56862 0.84695 0.0
H235 H 0.70108 0.60633 0.7671 0.0
H236 H 0.78716 0.79786 0.92947 0.0
H237 H 0.61534 0.54405 0.72705 0.0
Zn238 Zn 0.1281 0.68472 1.0097 0.0
C239 C 1.01979 0.64387 0.92843 0.0
N240 N 0.06765 0.69787 0.91617 0.0
C241 C 0.11002 0.71989 0.94103 0.0
N242 N 0.08783 0.68013 0.96738 0.0
N243 N 1.0309 0.63317 0.95944 0.0
C244 C 0.82816 0.46056 0.97998 0.0
O245 O 0.82827 0.45886 1.0122 0.0
O246 O 0.14216 0.75617 0.03956 0.0
Zn247 Zn 0.96021 0.58023 0.9898 0.0
N248 N 0.20873 0.69444 0.9989 0.0
C249 C 0.32026 0.74896 0.99773 0.0
C250 C 0.26468 0.74329 1.0094 0.0
C251 C 0.20605 0.6507 0.97774 0.0
N252 N 0.31749 0.70346 0.97775 0.0
C253 C 0.26175 0.65338 0.9676 0.0
O254 O 0.98076 0.54109 1.02931 0.0
C255 C 1.03005 0.55973 0.0469 0.0
O256 O 0.08119 0.60926 0.03941 0.0
H257 H 0.26622 0.77858 1.0258 0.0
H258 H 0.16025 0.6138 0.96991 0.0
C259 C 0.8873 0.6254 1.02177 0.0
C260 C 0.8784 0.66901 0.03951 0.0
C261 C 0.98435 0.74666 1.03159 0.0
C262 C 0.9936 0.70285 1.01457 0.0
N263 N 0.94499 0.64279 1.01008 0.0
N264 N 0.92708 0.72846 0.04432 0.0
H265 H 0.8496 0.57718 1.01881 0.0
C266 C 0.1661 0.75825 0.06759 0.0
O267 O 0.17367 0.71118 0.07678 0.0
O268 O 0.87659 0.5056 0.96562 0.0
H269 H 1.03972 0.71697 1.00589 0.0
H270 H 0.36529 0.78811 1.00523 0.0
H271 H 1.02291 0.79416 1.03553 0.0
Zn272 Zn 0.39876 0.95798 0.16774 0.0
C273 C 0.36141 0.09721 0.13638 0.0
N274 N 0.31007 0.04822 0.12318 0.0
C275 C 0.31877 0.99899 0.1289 0.0
N276 N 0.37333 1.01605 0.14505 0.0
N277 N 0.39983 0.07795 0.14967 0.0
C278 C 0.51166 0.23178 0.20836 0.0
O279 O 0.53244 0.20337 0.2277 0.0
O280 O 0.38395 0.87387 0.14184 0.0
Zn281 Zn 0.4835 0.12789 0.16518 0.0
N282 N 0.35153 0.93826 0.20757 0.0
C283 C 0.32214 0.97751 0.25337 0.0
C284 C 0.34406 0.98447 0.22139 0.0
C285 C 0.33858 0.88568 0.2245 0.0
N286 N 0.30926 0.92491 0.27039 0.0
C287 C 0.31742 0.8788 0.25699 0.0
O288 O 0.50324 0.08966 0.20591 0.0
C289 C 0.50473 0.03957 0.21236 0.0
O290 O 0.48456 0.99533 0.19113 0.0
H291 H 0.35747 1.02765 0.20832 0.0
H292 H 0.34533 0.85032 0.21257 0.0
C293 C 0.59174 0.14646 0.13048 0.0
C294 C 0.62708 0.15181 0.10262 0.0
C295 C 0.54312 0.13705 0.06844 0.0
C296 C 0.50757 0.13089 0.09621 0.0
N297 N 0.53301 0.13676 0.12676 0.0
N298 N 0.60248 0.14777 0.0722 0.0
H299 H 0.61082 0.15034 0.15495 0.0
C300 C 0.40877 0.84098 0.15126 0.0
O301 O 0.44478 0.85991 0.17756 0.0
O302 O 0.49369 0.21104 0.17947 0.0
H303 H 0.46006 0.12144 0.09318 0.0
H304 H 0.31623 1.01394 0.26475 0.0
H305 H 0.5236 0.1332 0.04412 0.0
Zn306 Zn 0.38882 0.46559 0.34182 0.0
C307 C 0.41807 0.38354 0.26329 0.0
N308 N 0.36392 0.37757 0.25165 0.0
C309 C 0.34582 0.40253 0.27574 0.0
N310 N 0.38861 0.42352 0.30098 0.0
N311 N 0.43357 0.41087 0.2932 0.0
C312 C 0.61558 0.39416 0.31386 0.0
O313 O 0.62136 0.40231 0.34581 0.0
O314 O 0.31834 0.41066 0.37203 0.0
Zn315 Zn 0.49446 0.40333 0.32384 0.0
N316 N 0.38157 0.53738 0.32907 0.0
C317 C 0.33315 0.6 0.32803 0.0
C318 C 0.33646 0.54885 0.34038 0.0
C319 C 0.42409 0.5754 0.30658 0.0
N320 N 0.37788 0.63999 0.30685 0.0
C321 C 0.42456 0.63014 0.29603 0.0
O322 O 0.53696 0.46989 0.36037 0.0
C323 C 0.51647 0.4981 0.37833 0.0
O324 O 0.46499 0.49582 0.37137 0.0
H325 H 0.30249 0.51774 0.35814 0.0
H326 H 0.4582 0.5633 0.29833 0.0
C327 C 0.45574 0.28944 0.3609 0.0
C328 C 0.41493 0.23989 0.38136 0.0
C329 C 0.34037 0.27294 0.3776 0.0
C330 C 0.38117 0.32248 0.35745 0.0
N331 N 0.43825 0.33019 0.34964 0.0
N332 N 0.35852 0.23306 0.38959 0.0
H333 H 0.50175 0.29691 0.35494 0.0
C334 C 0.3178 0.42988 0.40081 0.0
O335 O 0.36539 0.48366 0.41096 0.0
O336 O 0.56786 0.39286 0.29974 0.0
H337 H 0.36759 0.3549 0.34861 0.0
H338 H 0.29688 0.60933 0.33614 0.0
H339 H 0.29523 0.26703 0.38419 0.0
Zn340 Zn 0.12304 0.45233 0.50307 0.0
C341 C 0.9818 0.2768 0.46981 0.0
N342 N 1.03049 0.27417 0.45704 0.0
C343 C 0.08007 0.33177 0.46363 0.0
N344 N 0.0636 0.36932 0.47981 0.0
N345 N 1.00174 0.33437 0.48369 0.0
C346 C 0.83994 0.30709 0.5344 0.0
O347 O 0.86166 0.36227 0.5486 0.0
O348 O 0.20542 0.52345 0.4763 0.0
Zn349 Zn 0.95484 0.37093 0.49865 0.0
N350 N 0.14504 0.42226 0.54172 0.0
C351 C 0.11017 0.34712 0.58506 0.0
C352 C 0.10055 0.36609 0.55444 0.0
C353 C 0.19825 0.46076 0.55864 0.0
N354 N 0.16353 0.38551 0.602 0.0
C355 C 0.20778 0.44232 0.58981 0.0
O356 O 0.99155 0.42337 0.54114 0.0
C357 C 1.04212 0.47354 0.54913 0.0
O358 O 0.08719 0.49922 0.52869 0.0
H359 H 0.05693 0.33701 0.54151 0.0
H360 H 0.23226 0.50502 0.5477 0.0
C361 C 0.93862 0.46338 0.46459 0.0
C362 C 0.93352 0.49414 0.43682 0.0
C363 C 0.95314 0.42872 0.40256 0.0
C364 C 0.95809 0.39789 0.43025 0.0
N365 N 0.95033 0.41565 0.46076 0.0
N366 N 0.94041 0.47603 0.4064 0.0
H367 H 0.93211 0.47635 0.48903 0.0
C368 C 0.23959 0.58144 0.48557 0.0
O369 O 0.22357 0.5986 0.51265 0.0
O370 O 0.86994 0.30149 0.51079 0.0
H371 H 0.96746 0.35974 0.42719 0.0
H372 H 0.07523 0.30262 0.59548 0.0
H373 H 0.95879 0.41475 0.37823 0.0
Zn374 Zn 0.64285 0.9637 0.68254 0.0
C375 C 0.70514 0.07256 0.60158 0.0
N376 N 0.70918 1.02403 0.5889 0.0
C377 C 0.69245 0.98327 0.61412 0.0
N378 N 0.67845 1.00668 0.64119 0.0
N379 N 0.68594 0.0627 0.6331 0.0
C380 C 0.69405 0.26033 0.65107 0.0
O381 O 0.6974 0.26543 0.68317 0.0
O382 O 0.7009 0.9511 0.71248 0.0
Zn383 Zn 0.68857 0.12986 0.66296 0.0
N384 N 0.57441 0.88181 0.67024 0.0
C385 C 0.52119 0.7701 0.66657 0.0
C386 C 0.5713 0.82648 0.67818 0.0
C387 C 0.52924 0.88311 0.65175 0.0
N388 N 0.47446 0.77128 0.64935 0.0
C389 C 0.47615 0.82632 0.64188 0.0
O390 O 0.62267 0.09966 0.69986 0.0
C391 C 0.60018 0.0511 0.71835 0.0
O392 O 0.60843 1.00523 0.71176 0.0
H393 H 0.60791 0.82609 0.69274 0.0
H394 H 0.53501 0.92859 0.64593 0.0
C395 C 0.77275 0.19379 0.71477 0.0
C396 C 0.82472 0.21258 0.73566 0.0
C397 C 0.85587 0.15251 0.70373 0.0
C398 C 0.80449 0.13476 0.68284 0.0
N399 N 0.76447 0.15667 0.68855 0.0
N400 N 0.86546 0.19182 0.72932 0.0
H401 H 0.73969 0.20975 0.71855 0.0
C402 C 0.67651 0.92293 0.73926 0.0
O403 O 0.62104 0.91377 0.74745 0.0
O404 O 0.68905 0.20996 0.63816 0.0
H405 H 0.79678 0.1038 0.66234 0.0
H406 H 0.51834 0.72559 0.67206 0.0
H407 H 0.8884 0.13595 0.69936 0.0
C408 C 0.42017 0.69362 0.12995 0.0
C409 C 0.38356 0.67006 0.10125 0.0
H410 H 0.45642 0.76421 0.16776 0.0
C411 C 0.35426 0.70334 0.08924 0.0
H412 H 0.44333 0.66988 0.14027 0.0
C413 C 0.36173 0.7581 0.10509 0.0
C414 C 0.39883 0.78191 0.13367 0.0
H415 H 0.32542 0.68724 0.06727 0.0
H416 H 0.3385 0.78183 0.09482 0.0
C417 C 0.42759 0.74825 0.14579 0.0
C418 C 0.76417 0.3831 0.29603 0.0
C419 C 0.76399 0.3781 0.2616 0.0
H420 H 0.71897 0.39193 0.339 0.0
C421 C 0.71313 0.37718 0.2445 0.0
H422 H 0.80165 0.3837 0.31035 0.0
C423 C 0.66506 0.38175 0.26099 0.0
C424 C 0.66568 0.38756 0.29538 0.0
H425 H 0.71033 0.37312 0.21801 0.0
H426 H 0.62759 0.38115 0.24666 0.0
C427 C 0.71617 0.38782 0.31251 0.0
C428 C 0.33149 0.69392 0.47861 0.0
C429 C 0.29703 0.63089 0.46695 0.0
H430 H 0.40923 0.78861 0.47202 0.0
C431 C 0.31869 0.61734 0.4379 0.0
H432 H 0.31722 0.7071 0.50088 0.0
C433 C 0.37214 0.66481 0.42125 0.0
C434 C 0.40625 0.72796 0.43283 0.0
H435 H 0.29438 0.56997 0.42792 0.0
H436 H 0.38667 0.65173 0.39903 0.0
C437 C 0.38478 0.74133 0.46195 0.0
C438 C 0.6932 0.36296 0.57876 0.0
C439 C 0.70082 0.41792 0.59456 0.0
H440 H 0.68525 0.27148 0.58324 0.0
C441 C 0.70692 0.42008 0.62898 0.0
H442 H 0.68859 0.3588 0.55232 0.0
C443 C 0.70477 0.36936 0.64679 0.0
C444 C 0.69665 0.31419 0.63103 0.0
H445 H 0.71317 0.461 0.64231 0.0
H446 H 0.70952 0.37363 0.67323 0.0
C447 C 0.69126 0.3123 0.59657 0.0
C448 C 0.34107 0.64587 0.79831 0.0
C449 C 0.35338 0.68531 0.77089 0.0
H450 H 0.37725 0.60945 0.83508 0.0
C451 C 0.41664 0.71887 0.75992 0.0
H452 H 0.2938 0.61936 0.80785 0.0
C453 C 0.46524 0.71319 0.77559 0.0
C454 C 0.45288 0.67379 0.80307 0.0
H455 H 0.42902 0.74995 0.73894 0.0
H456 H 0.51261 0.74 0.76617 0.0
C457 C 0.38965 0.64036 0.81402 0.0
C458 C 0.71866 0.35254 0.91076 0.0
C459 C 0.66443 0.30762 0.92787 0.0
H460 H 0.81173 0.43422 0.91301 0.0
C461 C 0.66467 0.31497 0.96215 0.0
H462 H 0.72111 0.34922 0.88437 0.0
C463 C 0.71713 0.36457 0.97858 0.0
C464 C 0.77164 0.40908 0.96149 0.0
H465 H 0.62437 0.28213 0.97643 0.0
H466 H 0.71489 0.36776 1.00499 0.0
C467 C 0.77111 0.40205 0.9272 0.0
C468 C 0.44357 0.19185 0.95573 0.0
C469 C 0.40734 0.13389 0.97143 0.0
H470 H 0.49538 0.29223 0.95986 0.0
C471 C 0.39397 0.13352 1.00497 0.0
H472 H 0.45222 0.19386 0.9299 0.0
C473 C 0.41731 0.19024 1.02236 0.0
C474 C 0.45472 0.24828 1.0065 0.0
H475 H 0.36593 0.0894 1.01784 0.0
H476 H 0.40619 0.18863 0.04814 0.0
C477 C 0.46778 0.24837 0.97303 0.0
C478 C 0.30921 0.4897 0.19562 0.0
C479 C 0.27025 0.50601 0.17819 0.0
H480 H 0.36776 0.44836 0.19337 0.0
C481 C 0.26712 0.50082 0.14381 0.0
H482 H 0.31344 0.49481 0.22205 0.0
C483 C 0.2982 0.4745 0.12744 0.0
C484 C 0.33359 0.45409 0.14515 0.0
H485 H 0.23714 0.51288 0.12978 0.0
H486 H 0.29165 0.46705 0.10127 0.0
C487 C 0.34025 0.46343 0.17925 0.0
C488 C 0.82413 0.24725 0.31078 0.0
C489 C 0.82527 0.23401 0.34412 0.0
H490 H 0.87644 0.28389 0.26732 0.0
C491 C 0.88337 0.25397 0.35971 0.0
H492 H 0.78002 0.23112 0.29787 0.0
C493 C 0.93935 0.28676 0.34206 0.0
C494 C 0.93799 0.2993 0.30846 0.0
H495 H 0.88555 0.24393 0.38541 0.0
H496 H 0.98358 0.30209 0.35467 0.0
C497 C 0.87977 0.27839 0.29315 0.0
C498 C 0.59784 0.83845 0.46076 0.0
C499 C 0.61881 0.89596 0.47694 0.0
H500 H 0.55736 0.7386 0.4658 0.0
C501 C 0.60742 0.89622 0.51061 0.0
H502 H 0.60667 0.8372 0.43492 0.0
C503 C 0.5795 0.84 0.52837 0.0
C504 C 0.5629 0.78295 0.51265 0.0
H505 H 0.62294 0.94029 0.52348 0.0
H506 H 0.57433 0.84149 0.55468 0.0
C507 C 0.56935 0.78207 0.47845 0.0
C508 C 0.8438 0.72101 0.65755 0.0
C509 C 0.81175 0.69152 0.62833 0.0
H510 H 0.90604 0.72545 0.69566 0.0
C511 C 0.82218 0.6456 0.61436 0.0
H512 H 0.83779 0.75742 0.66897 0.0
C513 C 0.85992 0.62616 0.62999 0.0
C514 C 0.88971 0.65374 0.65974 0.0
H515 H 0.80181 0.62448 0.5914 0.0
H516 H 0.86536 0.58919 0.61881 0.0
C517 C 0.88283 0.70265 0.67296 0.0
C518 C 0.18456 0.71456 0.8505 0.0
C519 C 0.17993 0.71932 0.81637 0.0
H520 H 0.24432 0.74845 0.89309 0.0
C521 C 0.23444 0.75766 0.7984 0.0
H522 H 0.14297 0.68548 0.86492 0.0
C523 C 0.29222 0.793 0.81437 0.0
C524 C 0.29593 0.79191 0.84872 0.0
H525 H 0.23198 0.76366 0.77231 0.0
H526 H 0.33287 0.82498 0.80003 0.0
C527 C 0.24226 0.75052 0.86658 0.0
C528 C 0.87737 0.5464 0.87447 0.0
C529 C 0.83366 0.5596 0.88894 0.0
H530 H 0.97173 0.56228 0.87637 0.0
C531 C 0.85142 0.59938 0.91639 0.0
H532 H 0.86478 0.51687 0.85282 0.0
C533 C 0.91241 0.62715 0.92869 0.0
C534 C 0.95608 0.61383 0.9146 0.0
H535 H 0.81898 0.61161 0.92735 0.0
H536 H 0.92585 0.6602 0.94881 0.0
C537 C 0.93825 0.57262 0.88767 0.0
C538 C 0.26576 0.88086 0.13098 0.0
C539 C 0.27513 0.93597 0.11563 0.0
H540 H 0.22314 0.78048 0.12787 0.0
C541 C 0.24242 0.93135 0.08644 0.0
H542 H 0.2878 0.88295 0.15424 0.0
C543 C 0.20406 0.87301 0.07177 0.0
C544 C 0.19774 0.81803 0.08598 0.0
H545 H 0.24825 0.97317 0.07418 0.0
H546 H 0.18163 0.87147 0.04855 0.0
C547 C 0.22772 0.82222 0.11614 0.0
C548 C 0.46438 0.35601 0.21614 0.0
C549 C 0.44608 0.34845 0.24913 0.0
H550 H 0.50148 0.32527 0.1773 0.0
C551 C 0.45029 0.30332 0.26822 0.0
H552 H 0.45977 0.38948 0.20074 0.0
C553 C 0.47535 0.26836 0.25539 0.0
C554 C 0.49393 0.27566 0.22249 0.0
H555 H 0.43232 0.29347 0.29279 0.0
H556 H 0.47717 0.23334 0.27085 0.0
C557 C 0.48815 0.31963 0.20286 0.0
C558 C 0.19753 0.39847 0.46581 0.0
C559 C 0.14273 0.35183 0.45049 0.0
H560 H 0.29689 0.4602 0.46214 0.0
C561 C 0.1473 0.32521 0.42094 0.0
H562 H 0.19572 0.41739 0.48926 0.0
C563 C 0.2051 0.34825 0.40571 0.0
C564 C 0.25941 0.39848 0.41977 0.0
H565 H 0.10577 0.28851 0.40869 0.0
H566 H 0.20655 0.32862 0.38217 0.0
C567 C 0.25557 0.4221 0.45047 0.0
C568 C 0.72402 0.13633 0.55082 0.0
C569 C 0.73191 0.13362 0.5848 0.0
H570 H 0.75162 0.19521 0.508 0.0
C571 C 0.77189 0.18915 0.60193 0.0
H572 H 0.69475 0.09368 0.53691 0.0
C573 C 0.80217 0.24688 0.58583 0.0
C574 C 0.79573 0.24954 0.55182 0.0
H575 H 0.78161 0.18804 0.62763 0.0
H576 H 0.83421 0.28868 0.59967 0.0
C577 C 0.75603 0.19404 0.53438 0.0
C578 C 0.67413 0.85488 0.78551 0.0
C579 C 0.70167 0.88723 0.75627 0.0
H580 H 0.66997 0.78993 0.82157 0.0
C581 C 0.74826 0.87895 0.74143 0.0
H582 H 0.63828 0.86057 0.79764 0.0
C583 C 0.76492 0.83707 0.75481 0.0
C584 C 0.73552 0.80268 0.78331 0.0
H585 H 0.77013 0.90281 0.71875 0.0
H586 H 0.79976 0.83041 0.74222 0.0
C587 C 0.6913 0.81334 0.79899 0.0
C588 C 0.5733 0.51403 0.97463 0.0
C589 C 0.52848 0.52932 0.98578 0.0
H590 H 0.63537 0.52029 0.93619 0.0
C591 C 0.51273 0.56487 0.96462 0.0
H592 H 0.58722 0.48716 0.99008 0.0
C593 C 0.53967 0.5829 0.93306 0.0
C594 C 0.58421 0.56708 0.92193 0.0
H595 H 0.47846 0.57754 0.97215 0.0
H596 H 0.52602 0.60985 0.91748 0.0
C597 C 0.60107 0.53307 0.94351 0.0
C598 C 0.96661 0.46797 0.12726 0.0
C599 C 1.0219 0.49137 0.14638 0.0
H600 H 0.92535 0.4701 0.08084 0.0
C601 C 0.07929 0.53387 0.13146 0.0
H602 H 0.92148 0.43452 0.13761 0.0
C603 C 0.08169 0.55278 0.09885 0.0
C604 C 1.02663 0.53084 0.07985 0.0
H605 H 0.12298 0.55295 0.14493 0.0
H606 H 0.12716 0.58587 0.08874 0.0
C607 C 0.96891 0.48766 0.09446 0.0
C608 C 0.56118 0.08312 0.26679 0.0
C609 C 0.5248 1.03083 0.24626 0.0
H610 H 0.60565 0.1173 0.31364 0.0
C611 C 0.50387 0.97029 0.25963 0.0
H612 H 0.57789 0.13046 0.25781 0.0
C613 C 0.51879 0.96256 0.29232 0.0
C614 C 0.55624 1.01509 0.31259 0.0
H615 H 0.47487 0.92861 0.24502 0.0
H616 H 0.50165 0.91533 0.30156 0.0
C617 C 0.57703 0.07544 0.29911 0.0
C618 C 0.5894 0.51069 0.42586 0.0
C619 C 0.54627 0.5251 0.41104 0.0
H620 H 0.64294 0.51675 0.46902 0.0
C621 C 0.52534 0.55915 0.4297 0.0
H622 H 0.60614 0.48394 0.41255 0.0
C623 C 0.54548 0.57692 0.4622 0.0
C624 C 0.58758 0.56161 0.47738 0.0
H625 H 0.49227 0.57139 0.41936 0.0
H626 H 0.52775 0.60279 0.47539 0.0
C627 C 0.60981 0.52875 0.45853 0.0
C628 C 1.00482 0.50206 0.63679 0.0
C629 C 0.06473 0.54192 0.65069 0.0
H630 H 0.95069 0.44972 0.59474 0.0
C631 C 0.11741 0.55933 0.63057 0.0
H632 H 0.96294 0.48772 0.65117 0.0
C633 C 0.11021 0.53861 0.5976 0.0
C634 C 0.05011 0.49905 0.5837 0.0
H635 H 0.1643 0.5906 0.63998 0.0
H636 H 0.15195 0.55326 0.58305 0.0
C637 C 0.9977 0.48053 0.60412 0.0
C638 C 0.56298 0.10628 0.79848 0.0
C639 C 0.53188 0.04975 0.81667 0.0
H640 H 0.6078 0.15123 0.7532 0.0
C641 C 0.52073 0.99375 0.80126 0.0
H642 H 0.57197 0.15039 0.80923 0.0
C643 C 0.54035 0.99414 0.769 0.0
C644 C 0.57195 0.05056 0.75089 0.0
H645 H 0.49673 0.94921 0.8141 0.0
H646 H 0.53127 0.94992 0.75835 0.0
C647 C 0.5827 0.10668 0.76606 0.0
C648 C 0.42495 0.21529 0.12285 0.0
C649 C 0.37053 0.1627 0.13529 0.0
H650 H 0.47087 0.31262 0.10907 0.0
C651 C 0.31918 0.1707 0.14261 0.0
H652 H 0.46532 0.21149 0.11637 0.0
C653 C 0.32199 0.22885 0.13784 0.0
C654 C 0.37573 0.28126 0.12472 0.0
H655 H 0.27599 0.1313 0.15177 0.0
H656 H 0.28108 0.23233 0.14386 0.0
C657 C 0.42762 0.27365 0.11791 0.0
C658 C 0.25686 0.41226 0.30224 0.0
C659 C 0.28155 0.39724 0.27508 0.0
H660 H 0.17915 0.41556 0.32399 0.0
C661 C 0.24178 0.37267 0.24725 0.0
H662 H 0.28381 0.42913 0.32398 0.0
C663 C 0.1811 0.36544 0.24665 0.0
C664 C 0.15747 0.38128 0.27413 0.0
H665 H 0.25739 0.35869 0.22575 0.0
H666 H 0.15208 0.3461 0.22491 0.0
C667 C 0.19608 0.40415 0.30207 0.0
C668 C 0.86389 0.22459 0.45619 0.0
C669 C 0.91601 0.22081 0.46758 0.0
H670 H 0.76581 0.17499 0.4435 0.0
C671 C 0.90712 0.16014 0.47296 0.0
H672 H 0.8688 0.26995 0.45067 0.0
C673 C 0.84864 0.10543 0.46739 0.0
C674 C 0.7965 0.10867 0.4556 0.0
H675 H 0.94607 0.15482 0.48125 0.0
H676 H 0.84453 0.05999 0.47192 0.0
C677 C 0.8048 0.16944 0.45091 0.0
C678 C 0.70355 0.83648 0.63633 0.0
C679 C 0.70661 0.81258 0.60551 0.0
H680 H 0.69892 0.9085 0.66284 0.0
C681 C 0.70595 0.84589 0.57753 0.0
H682 H 0.70694 0.81408 0.65857 0.0
C683 C 0.70053 0.90032 0.58047 0.0
C684 C 0.69511 0.92307 0.61141 0.0
H685 H 0.71196 0.83128 0.55341 0.0
H686 H 0.70215 0.92554 0.55838 0.0
C687 C 0.69827 0.89074 0.63903 0.0
C688 C 0.8945 0.71546 0.77171 0.0
C689 C 0.86043 0.70006 0.80133 0.0
H690 H 0.97603 0.72764 0.74624 0.0
C691 C 0.88531 0.68309 0.82803 0.0
H692 H 0.88012 0.7335 0.75122 0.0
C693 C 0.93875 0.67627 0.82426 0.0
C694 C 0.9697 0.6869 0.79387 0.0
H695 H 0.86537 0.67801 0.85218 0.0
H696 H 0.95738 0.66479 0.84548 0.0
C697 C 0.94875 0.71033 0.76833 0.0
C698 C 0.18652 0.82139 0.91101 0.0
C699 C 0.16839 0.78499 0.94007 0.0
H700 H 0.25141 0.9096 0.88773 0.0
C701 C 0.20431 0.81383 0.96827 0.0
H702 H 0.15957 0.80248 0.88862 0.0
C703 C 0.25643 0.87535 0.96802 0.0
C704 C 0.2753 0.91072 0.939 0.0
H705 H 0.19144 0.78949 0.99087 0.0
H706 H 0.28176 0.89547 0.99073 0.0
C707 C 0.23941 0.88304 0.91041 0.0
C708 C 0.81872 0.63487 0.09057 0.0
C709 C 0.82002 0.64708 0.05697 0.0
H710 H 0.76192 0.58412 0.13138 0.0
C711 C 0.76421 0.62638 0.03937 0.0
H712 H 0.86197 0.65055 0.10427 0.0
C713 C 0.70699 0.58939 0.05483 0.0
C714 C 0.70539 0.57065 0.08771 0.0
H715 H 0.76502 0.636 1.01335 0.0
H716 H 0.66459 0.5737 0.04047 0.0
C717 C 0.76159 0.59658 0.1059 0.0
C718 C 0.3214 0.78011 0.26776 0.0
C719 C 0.29775 0.8201 0.27539 0.0
H720 H 0.30552 0.68613 0.26992 0.0
C721 C 0.24861 0.79983 0.29802 0.0
H722 H 0.36182 0.79556 0.25206 0.0
C723 C 0.21745 0.7377 0.30879 0.0
C724 C 0.23484 0.69514 0.29689 0.0
H725 H 0.23034 0.83001 0.30509 0.0
H726 H 0.1759 0.72172 0.32371 0.0
C727 C 0.28969 0.71766 0.27825 0.0
C728 C 0.45018 0.20836 0.43047 0.0
C729 C 0.43657 0.20106 0.39688 0.0
H730 H 0.49969 0.19483 0.4697 0.0
C731 C 0.45345 0.16509 0.37755 0.0
H732 H 0.43728 0.23636 0.44554 0.0
C733 C 0.48801 0.14023 0.39131 0.0
C734 C 0.50809 0.1534 0.42427 0.0
H735 H 0.44237 0.15875 0.35156 0.0
H736 H 0.5007 0.11296 0.37564 0.0
C737 C 0.48607 0.18486 0.44412 0.0
C738 C 0.29101 0.45005 0.62742 0.0
C739 C 0.26697 0.4805 0.60803 0.0
H740 H 0.37231 0.45723 0.6507 0.0
C741 C 0.30316 0.54612 0.60353 0.0
H742 H 0.26377 0.39976 0.63189 0.0
C743 C 0.3654 0.57883 0.61415 0.0
C744 C 0.39161 0.5464 0.62977 0.0
H745 H 0.28477 0.57165 0.59026 0.0
H746 H 0.39408 0.62847 0.60832 0.0
C747 C 0.35306 0.48293 0.63832 0.0
C748 C 0.79279 0.2695 0.77471 0.0
C749 C 0.84055 0.2627 0.76013 0.0
H750 H 0.76576 0.33395 0.79219 0.0
C751 C 0.90291 0.31209 0.7629 0.0
H752 H 0.74461 0.23088 0.77473 0.0
C753 C 0.91549 0.37124 0.7737 0.0
C754 C 0.86553 0.38155 0.781 0.0
H755 H 0.94116 0.30739 0.75315 0.0
H756 H 0.96363 0.40956 0.77309 0.0
C757 C 0.80514 0.32877 0.78494 0.0
C758 C 0.53932 0.77059 0.93635 0.0
C759 C 0.60469 0.80124 0.94163 0.0
H760 H 0.45594 0.7766 0.94066 0.0
C761 C 0.63344 0.85497 0.9618 0.0
H762 H 0.51482 0.727 0.92259 0.0
C763 C 0.5992 0.88214 0.9729 0.0
C764 C 0.53605 0.85614 0.96372 0.0
H765 H 0.68342 0.87896 0.96694 0.0
H766 H 0.62354 0.92649 0.98609 0.0
C767 C 0.50532 0.79835 0.94703 0.0
C768 C 0.46735 0.35047 0.78329 0.0
C769 C 0.49337 0.4014 0.80533 0.0
H770 H 0.41638 0.2501 0.77821 0.0
C771 C 0.4743 0.39097 0.83835 0.0
H772 H 0.48021 0.35716 0.75762 0.0
C773 C 0.43921 0.32974 0.85018 0.0
C774 C 0.42084 0.27876 0.82883 0.0
H775 H 0.49077 0.42965 0.85563 0.0
H776 H 0.43035 0.32216 0.87628 0.0
C777 C 0.4309 0.28923 0.79504 0.0
C778 C 0.31975 0.6015 0.94737 0.0
C779 C 0.26168 0.59777 0.95299 0.0
H780 H 0.37229 0.5545 0.95313 0.0
C781 C 0.2075 0.53728 0.95433 0.0
H782 H 0.36218 0.64662 0.94392 0.0
C783 C 0.21364 0.48466 0.96 0.0
C784 C 0.27368 0.49249 0.96388 0.0
H785 H 0.16079 0.53047 0.95596 0.0
H786 H 0.17211 0.44078 0.96672 0.0
C787 C 0.32567 0.54858 0.95263 0.0
C788 C 0.79717 0.24399 0.12065 0.0
C789 C 0.8036 0.19939 0.13938 0.0
H790 H 0.73388 0.26232 0.09296 0.0
C791 C 0.75663 0.13561 0.1379 0.0
H792 H 0.83364 0.29321 0.12068 0.0
C793 C 0.70012 0.11819 0.12198 0.0
C794 C 0.69092 0.16425 0.10696 0.0
H795 H 0.76075 0.10029 0.15192 0.0
H796 H 0.66162 0.07007 0.12414 0.0
C797 C 0.74073 0.22635 0.10445 0.0
C798 C 0.5351 0.79772 0.28172 0.0
C799 C 0.58853 0.79827 0.29446 0.0
H800 H 0.43749 0.73988 0.27078 0.0
C801 C 0.59373 0.74449 0.29036 0.0
H802 H 0.53162 0.83993 0.28227 0.0
C803 C 0.54006 0.68701 0.28321 0.0
C804 C 0.48126 0.68373 0.2809 0.0
H805 H 0.63577 0.74425 0.29811 0.0
H806 H 0.54429 0.64543 0.2849 0.0
C807 C 0.48109 0.74015 0.27506 0.0
C808 C 0.85329 0.52496 0.44022 0.0
C809 C 0.91682 0.54253 0.44106 0.0
H810 H 0.78427 0.54759 0.45578 0.0
C811 C 0.96176 0.60136 0.4536 0.0
H812 H 0.81821 0.47919 0.43083 0.0
C813 C 0.94262 0.6403 0.46788 0.0
C814 C 0.87837 0.61978 0.47029 0.0
H815 H 1.01093 0.61485 0.45465 0.0
H816 H 0.97754 0.68372 0.47951 0.0
C817 C 0.83401 0.56352 0.45483 0.0
C818 C 0.30443 0.75518 0.6279 0.0
C819 C 0.2972 0.80471 0.64002 0.0
H820 H 0.36924 0.72385 0.61813 0.0
C821 C 0.34858 0.86623 0.6389 0.0
H822 H 0.26471 0.70758 0.62656 0.0
C823 C 0.40866 0.87588 0.63386 0.0
C824 C 0.41757 0.82377 0.63005 0.0
H825 H 0.34405 0.9059 0.64675 0.0
H826 H 0.44727 0.9233 0.63731 0.0
C827 C 0.36457 0.76463 0.62309 0.0
loop_
_geom_bond_atom_site_label_1
_geom_bond_atom_site_label_2
_geom_bond_distance
_geom_bond_site_symmetry_2
_ccdc_geom_bond_type
Zn0 N4 2.020 . S
Zn0 O8 2.019 . S
Zn0 N10 2.119 1_554 S
Zn0 O18 1.975 1_554 S
C1 N2 1.334 . S
C1 N5 1.336 . S
N2 C1 1.334 . S
N2 C3 1.334 . S
C3 N2 1.334 . S
C3 N4 1.336 . S
N4 Zn0 2.020 . S
N4 C3 1.336 . S
N4 N5 1.354 . S
N5 C1 1.336 . S
N5 N4 1.354 . S
N5 Zn9 2.020 . S
C6 O7 1.244 . S
C6 O30 1.257 . S
O7 C6 1.244 . S
O8 Zn0 2.019 . S
O8 C28 1.257 . S
Zn9 N5 2.020 . S
Zn9 O16 1.975 1_554 S
Zn9 N25 2.119 . S
Zn9 O30 2.019 1_554 S
N10 Zn0 2.119 1_556 S
N10 C12 1.334 . S
N10 C13 1.328 . S
C11 C12 1.391 . S
C11 N14 1.329 . S
C11 H32 0.930 . S
C12 N10 1.334 . S
C12 C11 1.391 . S
C12 H19 0.930 . S
C13 N10 1.328 . S
C13 C15 1.392 . S
C13 H20 0.930 1_556 S
N14 C11 1.329 . S
N14 C15 1.331 . S
C15 C13 1.392 . S
C15 N14 1.331 . S
O16 Zn9 1.975 1_556 S
O16 C17 1.252 . S
C17 O16 1.252 . S
C17 O18 1.252 . S
O18 Zn0 1.975 1_556 S
O18 C17 1.252 . S
H19 C12 0.930 . S
H20 C13 0.930 1_554 S
C21 C22 1.392 . S
C21 N25 1.328 . S
C21 H27 0.930 . S
C22 C21 1.392 . S
C22 N26 1.331 . S
C23 C24 1.391 . S
C23 N26 1.329 . S
C23 H33 0.930 . S
C24 C23 1.391 . S
C24 N25 1.334 . S
C24 H31 0.930 . S
N25 Zn9 2.119 . S
N25 C21 1.328 . S
N25 C24 1.334 . S
N26 C22 1.331 . S
N26 C23 1.329 . S
H27 C21 0.930 . S
C28 O8 1.257 . S
C28 O29 1.244 . S
O29 C28 1.244 . S
O30 C6 1.257 . S
O30 Zn9 2.019 1_556 S
H31 C24 0.930 . S
H32 C11 0.930 . S
H33 C23 0.930 . S
Zn34 N38 2.020 1_455 S
Zn34 O42 2.019 . S
Zn34 N44 2.119 . S
Zn34 O52 1.975 1_455 S
C35 N36 1.334 . S
C35 N39 1.336 . S
N36 C35 1.334 . S
N36 C37 1.334 1_655 S
C37 N36 1.334 1_455 S
C37 N38 1.336 1_455 S
N38 Zn34 2.020 1_655 S
N38 C37 1.336 1_655 S
N38 N39 1.354 . S
N39 C35 1.336 . S
N39 N38 1.354 . S
N39 Zn43 2.020 . S
C40 O41 1.244 . S
C40 O64 1.257 . S
O41 C40 1.244 . S
O42 Zn34 2.019 . S
O42 C62 1.257 . S
Zn43 N39 2.020 . S
Zn43 O50 1.975 . S
Zn43 N59 2.119 . S
Zn43 O64 2.019 . S
N44 Zn34 2.119 . S
N44 C46 1.334 . S
N44 C47 1.328 . S
C45 C46 1.391 . S
C45 N48 1.329 . S
C45 H66 0.930 . S
C46 N44 1.334 . S
C46 C45 1.391 . S
C46 H53 0.930 1_455 S
C47 N44 1.328 . S
C47 C49 1.392 . S
C47 H54 0.930 . S
N48 C45 1.329 . S
N48 C49 1.331 . S
C49 C47 1.392 . S
C49 N48 1.331 . S
O50 Zn43 1.975 . S
O50 C51 1.252 . S
C51 O50 1.252 . S
C51 O52 1.252 . S
O52 Zn34 1.975 1_655 S
O52 C51 1.252 . S
H53 C46 0.930 1_655 S
H54 C47 0.930 . S
C55 C56 1.392 . S
C55 N59 1.328 . S
C55 H61 0.930 . S
C56 C55 1.392 . S
C56 N60 1.331 . S
C57 C58 1.391 . S
C57 N60 1.329 . S
C57 H67 0.930 . S
C58 C57 1.391 . S
C58 N59 1.334 . S
C58 H65 0.930 . S
N59 Zn43 2.119 . S
N59 C55 1.328 . S
N59 C58 1.334 . S
N60 C56 1.331 . S
N60 C57 1.329 . S
H61 C55 0.930 . S
C62 O42 1.257 . S
C62 O63 1.244 . S
O63 C62 1.244 . S
O64 C40 1.257 . S
O64 Zn43 2.019 . S
H65 C58 0.930 . S
H66 C45 0.930 . S
H67 C57 0.930 . S
Zn68 N72 2.020 . S
Zn68 O76 2.019 . S
Zn68 N78 2.119 . S
Zn68 O86 1.975 . S
C69 N70 1.334 1_545 S
C69 N73 1.336 1_545 S
N70 C69 1.334 1_565 S
N70 C71 1.334 . S
C71 N70 1.334 . S
C71 N72 1.336 . S
N72 Zn68 2.020 . S
N72 C71 1.336 . S
N72 N73 1.354 . S
N73 C69 1.336 1_565 S
N73 N72 1.354 . S
N73 Zn77 2.020 1_565 S
C74 O75 1.244 . S
C74 O98 1.257 . S
O75 C74 1.244 . S
O76 Zn68 2.019 . S
O76 C96 1.257 . S
Zn77 N73 2.020 1_545 S
Zn77 O84 1.975 1_545 S
Zn77 N93 2.119 . S
Zn77 O98 2.019 . S
N78 Zn68 2.119 . S
N78 C80 1.334 . S
N78 C81 1.328 . S
C79 C80 1.391 . S
C79 N82 1.329 . S
C79 H100 0.930 . S
C80 N78 1.334 . S
C80 C79 1.391 . S
C80 H87 0.930 . S
C81 N78 1.328 . S
C81 C83 1.392 . S
C81 H88 0.930 . S
N82 C79 1.329 . S
N82 C83 1.331 . S
C83 C81 1.392 . S
C83 N82 1.331 . S
O84 Zn77 1.975 1_565 S
O84 C85 1.252 . S
C85 O84 1.252 . S
C85 O86 1.252 . S
O86 Zn68 1.975 . S
O86 C85 1.252 . S
H87 C80 0.930 . S
H88 C81 0.930 . S
C89 C90 1.392 . S
C89 N93 1.328 . S
C89 H95 0.930 . S
C90 C89 1.392 . S
C90 N94 1.331 . S
C91 C92 1.391 . S
C91 N94 1.329 . S
C91 H101 0.930 . S
C92 C91 1.391 . S
C92 N93 1.334 . S
C92 H99 0.930 1_545 S
N93 Zn77 2.119 . S
N93 C89 1.328 . S
N93 C92 1.334 . S
N94 C90 1.331 . S
N94 C91 1.329 . S
H95 C89 0.930 . S
C96 O76 1.257 . S
C96 O97 1.244 . S
O97 C96 1.244 . S
O98 C74 1.257 . S
O98 Zn77 2.019 . S
H99 C92 0.930 1_565 S
H100 C79 0.930 . S
H101 C91 0.930 . S
Zn102 N106 2.020 . S
Zn102 O110 2.019 . S
Zn102 N112 2.119 . S
Zn102 O120 1.975 . S
C103 N104 1.334 . S
C103 N107 1.336 . S
N104 C103 1.334 . S
N104 C105 1.334 . S
C105 N104 1.334 . S
C105 N106 1.336 . S
N106 Zn102 2.020 . S
N106 C105 1.336 . S
N106 N107 1.354 . S
N107 C103 1.336 . S
N107 N106 1.354 . S
N107 Zn111 2.020 . S
C108 O109 1.244 . S
C108 O132 1.257 . S
O109 C108 1.244 . S
O110 Zn102 2.019 . S
O110 C130 1.257 . S
Zn111 N107 2.020 . S
Zn111 O118 1.975 . S
Zn111 N127 2.119 . S
Zn111 O132 2.019 . S
N112 Zn102 2.119 . S
N112 C114 1.334 . S
N112 C115 1.328 . S
C113 C114 1.391 . S
C113 N116 1.329 . S
C113 H134 0.930 . S
C114 N112 1.334 . S
C114 C113 1.391 . S
C114 H121 0.930 . S
C115 N112 1.328 . S
C115 C117 1.392 . S
C115 H122 0.930 . S
N116 C113 1.329 . S
N116 C117 1.331 . S
C117 C115 1.392 . S
C117 N116 1.331 . S
O118 Zn111 1.975 . S
O118 C119 1.252 . S
C119 O118 1.252 . S
C119 O120 1.252 . S
O120 Zn102 1.975 . S
O120 C119 1.252 . S
H121 C114 0.930 . S
H122 C115 0.930 . S
C123 C124 1.392 . S
C123 N127 1.328 . S
C123 H129 0.930 . S
C124 C123 1.392 . S
C124 N128 1.331 . S
C125 C126 1.391 . S
C125 N128 1.329 . S
C125 H135 0.930 . S
C126 C125 1.391 . S
C126 N127 1.334 . S
C126 H133 0.930 . S
N127 Zn111 2.119 . S
N127 C123 1.328 . S
N127 C126 1.334 . S
N128 C124 1.331 . S
N128 C125 1.329 . S
H129 C123 0.930 . S
C130 O110 1.257 . S
C130 O131 1.244 . S
O131 C130 1.244 . S
O132 C108 1.257 . S
O132 Zn111 2.019 . S
H133 C126 0.930 . S
H134 C113 0.930 . S
H135 C125 0.930 . S
Zn136 N140 2.020 . S
Zn136 O144 2.019 . S
Zn136 N146 2.119 . S
Zn136 O154 1.975 . S
C137 N138 1.334 1_655 S
C137 N141 1.336 1_655 S
N138 C137 1.334 1_455 S
N138 C139 1.334 . S
C139 N138 1.334 . S
C139 N140 1.336 . S
N140 Zn136 2.020 . S
N140 C139 1.336 . S
N140 N141 1.354 . S
N141 C137 1.336 1_455 S
N141 N140 1.354 . S
N141 Zn145 2.020 1_455 S
C142 O143 1.244 . S
C142 O166 1.257 . S
O143 C142 1.244 . S
O144 Zn136 2.019 . S
O144 C164 1.257 . S
Zn145 N141 2.020 1_655 S
Zn145 O152 1.975 1_655 S
Zn145 N161 2.119 . S
Zn145 O166 2.019 . S
N146 Zn136 2.119 . S
N146 C148 1.334 . S
N146 C149 1.328 . S
C147 C148 1.391 . S
C147 N150 1.329 . S
C147 H168 0.930 . S
C148 N146 1.334 . S
C148 C147 1.391 . S
C148 H155 0.930 . S
C149 N146 1.328 . S
C149 C151 1.392 . S
C149 H156 0.930 . S
N150 C147 1.329 . S
N150 C151 1.331 . S
C151 C149 1.392 . S
C151 N150 1.331 . S
O152 Zn145 1.975 1_455 S
O152 C153 1.252 . S
C153 O152 1.252 . S
C153 O154 1.252 . S
O154 Zn136 1.975 . S
O154 C153 1.252 . S
H155 C148 0.930 . S
H156 C149 0.930 . S
C157 C158 1.392 . S
C157 N161 1.328 . S
C157 H163 0.930 . S
C158 C157 1.392 . S
C158 N162 1.331 . S
C159 C160 1.391 . S
C159 N162 1.329 . S
C159 H169 0.930 . S
C160 C159 1.391 . S
C160 N161 1.334 . S
C160 H167 0.930 1_655 S
N161 Zn145 2.119 . S
N161 C157 1.328 . S
N161 C160 1.334 . S
N162 C158 1.331 . S
N162 C159 1.329 . S
H163 C157 0.930 . S
C164 O144 1.257 . S
C164 O165 1.244 . S
O165 C164 1.244 . S
O166 C142 1.257 . S
O166 Zn145 2.019 . S
H167 C160 0.930 1_455 S
H168 C147 0.930 . S
H169 C159 0.930 . S
Zn170 N174 2.020 1_565 S
Zn170 O178 2.019 . S
Zn170 N180 2.119 . S
Zn170 O188 1.975 1_565 S
C171 N172 1.334 . S
C171 N175 1.336 . S
N172 C171 1.334 . S
N172 C173 1.334 1_545 S
C173 N172 1.334 1_565 S
C173 N174 1.336 1_565 S
N174 Zn170 2.020 1_545 S
N174 C173 1.336 1_545 S
N174 N175 1.354 . S
N175 C171 1.336 . S
N175 N174 1.354 . S
N175 Zn179 2.020 . S
C176 O177 1.244 . S
C176 O200 1.257 . S
O177 C176 1.244 . S
O178 Zn170 2.019 . S
O178 C198 1.257 . S
Zn179 N175 2.020 . S
Zn179 O186 1.975 . S
Zn179 N195 2.119 . S
Zn179 O200 2.019 . S
N180 Zn170 2.119 . S
N180 C182 1.334 . S
N180 C183 1.328 . S
C181 C182 1.391 . S
C181 N184 1.329 . S
C181 H202 0.930 . S
C182 N180 1.334 . S
C182 C181 1.391 . S
C182 H189 0.930 1_565 S
C183 N180 1.328 . S
C183 C185 1.392 . S
C183 H190 0.930 . S
N184 C181 1.329 . S
N184 C185 1.331 . S
C185 C183 1.392 . S
C185 N184 1.331 . S
O186 Zn179 1.975 . S
O186 C187 1.252 . S
C187 O186 1.252 . S
C187 O188 1.252 . S
O188 Zn170 1.975 1_545 S
O188 C187 1.252 . S
H189 C182 0.930 1_545 S
H190 C183 0.930 . S
C191 C192 1.392 . S
C191 N195 1.328 . S
C191 H197 0.930 . S
C192 C191 1.392 . S
C192 N196 1.331 . S
C193 C194 1.391 . S
C193 N196 1.329 . S
C193 H203 0.930 . S
C194 C193 1.391 . S
C194 N195 1.334 . S
C194 H201 0.930 . S
N195 Zn179 2.119 . S
N195 C191 1.328 . S
N195 C194 1.334 . S
N196 C192 1.331 . S
N196 C193 1.329 . S
H197 C191 0.930 . S
C198 O178 1.257 . S
C198 O199 1.244 . S
O199 C198 1.244 . S
O200 C176 1.257 . S
O200 Zn179 2.019 . S
H201 C194 0.930 . S
H202 C181 0.930 . S
H203 C193 0.930 . S
Zn204 N208 2.020 . S
Zn204 O212 2.019 . S
Zn204 N214 2.119 . S
Zn204 O222 1.975 . S
C205 N206 1.334 . S
C205 N209 1.336 . S
N206 C205 1.334 . S
N206 C207 1.334 . S
C207 N206 1.334 . S
C207 N208 1.336 . S
N208 Zn204 2.020 . S
N208 C207 1.336 . S
N208 N209 1.354 . S
N209 C205 1.336 . S
N209 N208 1.354 . S
N209 Zn213 2.020 . S
C210 O211 1.244 . S
C210 O234 1.257 . S
O211 C210 1.244 . S
O212 Zn204 2.019 . S
O212 C232 1.257 . S
Zn213 N209 2.020 . S
Zn213 O220 1.975 . S
Zn213 N229 2.119 . S
Zn213 O234 2.019 . S
N214 Zn204 2.119 . S
N214 C216 1.334 . S
N214 C217 1.328 . S
C215 C216 1.391 . S
C215 N218 1.329 . S
C215 H236 0.930 . S
C216 N214 1.334 . S
C216 C215 1.391 . S
C216 H223 0.930 . S
C217 N214 1.328 . S
C217 C219 1.392 . S
C217 H224 0.930 . S
N218 C215 1.329 . S
N218 C219 1.331 . S
C219 C217 1.392 . S
C219 N218 1.331 . S
O220 Zn213 1.975 . S
O220 C221 1.252 . S
C221 O220 1.252 . S
C221 O222 1.252 . S
O222 Zn204 1.975 . S
O222 C221 1.252 . S
H223 C216 0.930 . S
H224 C217 0.930 . S
C225 C226 1.392 . S
C225 N229 1.328 . S
C225 H231 0.930 . S
C226 C225 1.392 . S
C226 N230 1.331 . S
C227 C228 1.391 . S
C227 N230 1.329 . S
C227 H237 0.930 . S
C228 C227 1.391 . S
C228 N229 1.334 . S
C228 H235 0.930 . S
N229 Zn213 2.119 . S
N229 C225 1.328 . S
N229 C228 1.334 . S
N230 C226 1.331 . S
N230 C227 1.329 . S
H231 C225 0.930 . S
C232 O212 1.257 . S
C232 O233 1.244 . S
O233 C232 1.244 . S
O234 C210 1.257 . S
O234 Zn213 2.019 . S
H235 C228 0.930 . S
H236 C215 0.930 . S
H237 C227 0.930 . S
Zn238 N242 2.020 1_455 S
Zn238 O246 2.019 1_556 S
Zn238 N248 2.119 . S
Zn238 O256 1.975 1_456 S
C239 N240 1.334 . S
C239 N243 1.336 . S
N240 C239 1.334 . S
N240 C241 1.334 1_655 S
C241 N240 1.334 1_455 S
C241 N242 1.336 1_455 S
N242 Zn238 2.020 1_655 S
N242 C241 1.336 1_655 S
N242 N243 1.354 . S
N243 C239 1.336 . S
N243 N242 1.354 . S
N243 Zn247 2.020 . S
C244 O245 1.244 . S
C244 O268 1.257 . S
O245 C244 1.244 . S
O246 Zn238 2.019 1_554 S
O246 C266 1.257 . S
Zn247 N243 2.020 . S
Zn247 O254 1.975 1_556 S
Zn247 N263 2.119 1_556 S
Zn247 O268 2.019 . S
N248 Zn238 2.119 . S
N248 C250 1.334 . S
N248 C251 1.328 . S
C249 C250 1.391 . S
C249 N252 1.329 . S
C249 H270 0.930 . S
C250 N248 1.334 . S
C250 C249 1.391 . S
C250 H257 0.930 1_455 S
C251 N248 1.328 . S
C251 C253 1.392 . S
C251 H258 0.930 . S
N252 C249 1.329 . S
N252 C253 1.331 . S
C253 C251 1.392 . S
C253 N252 1.331 . S
O254 Zn247 1.975 1_554 S
O254 C255 1.252 . S
C255 O254 1.252 . S
C255 O256 1.252 . S
O256 Zn238 1.975 1_654 S
O256 C255 1.252 . S
H257 C250 0.930 1_655 S
H258 C251 0.930 . S
C259 C260 1.392 . S
C259 N263 1.328 . S
C259 H265 0.930 1_554 S
C260 C259 1.392 . S
C260 N264 1.331 . S
C261 C262 1.391 . S
C261 N264 1.329 . S
C261 H271 0.930 . S
C262 C261 1.391 . S
C262 N263 1.334 . S
C262 H269 0.930 . S
N263 Zn247 2.119 1_554 S
N263 C259 1.328 . S
N263 C262 1.334 . S
N264 C260 1.331 . S
N264 C261 1.329 . S
H265 C259 0.930 1_556 S
C266 O246 1.257 . S
C266 O267 1.244 . S
O267 C266 1.244 . S
O268 C244 1.257 . S
O268 Zn247 2.019 . S
H269 C262 0.930 . S
H270 C249 0.930 . S
H271 C261 0.930 . S
Zn272 N276 2.020 . S
Zn272 O280 2.019 . S
Zn272 N282 2.119 . S
Zn272 O290 1.975 . S
C273 N274 1.334 1_545 S
C273 N277 1.336 1_545 S
N274 C273 1.334 1_565 S
N274 C275 1.334 . S
C275 N274 1.334 . S
C275 N276 1.336 . S
N276 Zn272 2.020 . S
N276 C275 1.336 . S
N276 N277 1.354 . S
N277 C273 1.336 1_565 S
N277 N276 1.354 . S
N277 Zn281 2.020 1_565 S
C278 O279 1.244 . S
C278 O302 1.257 . S
O279 C278 1.244 . S
O280 Zn272 2.019 . S
O280 C300 1.257 . S
Zn281 N277 2.020 1_545 S
Zn281 O288 1.975 1_545 S
Zn281 N297 2.119 . S
Zn281 O302 2.019 . S
N282 Zn272 2.119 . S
N282 C284 1.334 . S
N282 C285 1.328 . S
C283 C284 1.391 . S
C283 N286 1.329 . S
C283 H304 0.930 . S
C284 N282 1.334 . S
C284 C283 1.391 . S
C284 H291 0.930 . S
C285 N282 1.328 . S
C285 C287 1.392 . S
C285 H292 0.930 . S
N286 C283 1.329 . S
N286 C287 1.331 . S
C287 C285 1.392 . S
C287 N286 1.331 . S
O288 Zn281 1.975 1_565 S
O288 C289 1.252 . S
C289 O288 1.252 . S
C289 O290 1.252 . S
O290 Zn272 1.975 . S
O290 C289 1.252 . S
H291 C284 0.930 . S
H292 C285 0.930 . S
C293 C294 1.392 . S
C293 N297 1.328 . S
C293 H299 0.930 . S
C294 C293 1.392 . S
C294 N298 1.331 . S
C295 C296 1.391 . S
C295 N298 1.329 . S
C295 H305 0.930 . S
C296 C295 1.391 . S
C296 N297 1.334 . S
C296 H303 0.930 1_545 S
N297 Zn281 2.119 . S
N297 C293 1.328 . S
N297 C296 1.334 . S
N298 C294 1.331 . S
N298 C295 1.329 . S
H299 C293 0.930 . S
C300 O280 1.257 . S
C300 O301 1.244 . S
O301 C300 1.244 . S
O302 C278 1.257 . S
O302 Zn281 2.019 . S
H303 C296 0.930 1_565 S
H304 C283 0.930 . S
H305 C295 0.930 . S
Zn306 N310 2.020 . S
Zn306 O314 2.019 . S
Zn306 N316 2.119 . S
Zn306 O324 1.975 . S
C307 N308 1.334 . S
C307 N311 1.336 . S
N308 C307 1.334 . S
N308 C309 1.334 . S
C309 N308 1.334 . S
C309 N310 1.336 . S
N310 Zn306 2.020 . S
N310 C309 1.336 . S
N310 N311 1.354 . S
N311 C307 1.336 . S
N311 N310 1.354 . S
N311 Zn315 2.020 . S
C312 O313 1.244 . S
C312 O336 1.257 . S
O313 C312 1.244 . S
O314 Zn306 2.019 . S
O314 C334 1.257 . S
Zn315 N311 2.020 . S
Zn315 O322 1.975 . S
Zn315 N331 2.119 . S
Zn315 O336 2.019 . S
N316 Zn306 2.119 . S
N316 C318 1.334 . S
N316 C319 1.328 . S
C317 C318 1.391 . S
C317 N320 1.329 . S
C317 H338 0.930 . S
C318 N316 1.334 . S
C318 C317 1.391 . S
C318 H325 0.930 . S
C319 N316 1.328 . S
C319 C321 1.392 . S
C319 H326 0.930 . S
N320 C317 1.329 . S
N320 C321 1.331 . S
C321 C319 1.392 . S
C321 N320 1.331 . S
O322 Zn315 1.975 . S
O322 C323 1.252 . S
C323 O322 1.252 . S
C323 O324 1.252 . S
O324 Zn306 1.975 . S
O324 C323 1.252 . S
H325 C318 0.930 . S
H326 C319 0.930 . S
C327 C328 1.392 . S
C327 N331 1.328 . S
C327 H333 0.930 . S
C328 C327 1.392 . S
C328 N332 1.331 . S
C329 C330 1.391 . S
C329 N332 1.329 . S
C329 H339 0.930 . S
C330 C329 1.391 . S
C330 N331 1.334 . S
C330 H337 0.930 . S
N331 Zn315 2.119 . S
N331 C327 1.328 . S
N331 C330 1.334 . S
N332 C328 1.331 . S
N332 C329 1.329 . S
H333 C327 0.930 . S
C334 O314 1.257 . S
C334 O335 1.244 . S
O335 C334 1.244 . S
O336 C312 1.257 . S
O336 Zn315 2.019 . S
H337 C330 0.930 . S
H338 C317 0.930 . S
H339 C329 0.930 . S
Zn340 N344 2.020 . S
Zn340 O348 2.019 . S
Zn340 N350 2.119 . S
Zn340 O358 1.975 . S
C341 N342 1.334 1_655 S
C341 N345 1.336 1_655 S
N342 C341 1.334 1_455 S
N342 C343 1.334 . S
C343 N342 1.334 . S
C343 N344 1.336 . S
N344 Zn340 2.020 . S
N344 C343 1.336 . S
N344 N345 1.354 . S
N345 C341 1.336 1_455 S
N345 N344 1.354 . S
N345 Zn349 2.020 1_455 S
C346 O347 1.244 . S
C346 O370 1.257 . S
O347 C346 1.244 . S
O348 Zn340 2.019 . S
O348 C368 1.257 . S
Zn349 N345 2.020 1_655 S
Zn349 O356 1.975 1_655 S
Zn349 N365 2.119 . S
Zn349 O370 2.019 . S
N350 Zn340 2.119 . S
N350 C352 1.334 . S
N350 C353 1.328 . S
C351 C352 1.391 . S
C351 N354 1.329 . S
C351 H372 0.930 . S
C352 N350 1.334 . S
C352 C351 1.391 . S
C352 H359 0.930 . S
C353 N350 1.328 . S
C353 C355 1.392 . S
C353 H360 0.930 . S
N354 C351 1.329 . S
N354 C355 1.331 . S
C355 C353 1.392 . S
C355 N354 1.331 . S
O356 Zn349 1.975 1_455 S
O356 C357 1.252 . S
C357 O356 1.252 . S
C357 O358 1.252 . S
O358 Zn340 1.975 . S
O358 C357 1.252 . S
H359 C352 0.930 . S
H360 C353 0.930 . S
C361 C362 1.392 . S
C361 N365 1.328 . S
C361 H367 0.930 . S
C362 C361 1.392 . S
C362 N366 1.331 . S
C363 C364 1.391 . S
C363 N366 1.329 . S
C363 H373 0.930 . S
C364 C363 1.391 . S
C364 N365 1.334 . S
C364 H371 0.930 1_655 S
N365 Zn349 2.119 . S
N365 C361 1.328 . S
N365 C364 1.334 . S
N366 C362 1.331 . S
N366 C363 1.329 . S
H367 C361 0.930 . S
C368 O348 1.257 . S
C368 O369 1.244 . S
O369 C368 1.244 . S
O370 C346 1.257 . S
O370 Zn349 2.019 . S
H371 C364 0.930 1_455 S
H372 C351 0.930 . S
H373 C363 0.930 . S
Zn374 N378 2.020 1_565 S
Zn374 O382 2.019 . S
Zn374 N384 2.119 . S
Zn374 O392 1.975 1_565 S
C375 N376 1.334 . S
C375 N379 1.336 . S
N376 C375 1.334 . S
N376 C377 1.334 1_545 S
C377 N376 1.334 1_565 S
C377 N378 1.336 1_565 S
N378 Zn374 2.020 1_545 S
N378 C377 1.336 1_545 S
N378 N379 1.354 . S
N379 C375 1.336 . S
N379 N378 1.354 . S
N379 Zn383 2.020 . S
C380 O381 1.244 . S
C380 O404 1.257 . S
O381 C380 1.244 . S
O382 Zn374 2.019 . S
O382 C402 1.257 . S
Zn383 N379 2.020 . S
Zn383 O390 1.975 . S
Zn383 N399 2.119 . S
Zn383 O404 2.019 . S
N384 Zn374 2.119 . S
N384 C386 1.334 . S
N384 C387 1.328 . S
C385 C386 1.391 . S
C385 N388 1.329 . S
C385 H406 0.930 . S
C386 N384 1.334 . S
C386 C385 1.391 . S
C386 H393 0.930 1_565 S
C387 N384 1.328 . S
C387 C389 1.392 . S
C387 H394 0.930 . S
N388 C385 1.329 . S
N388 C389 1.331 . S
C389 C387 1.392 . S
C389 N388 1.331 . S
O390 Zn383 1.975 . S
O390 C391 1.252 . S
C391 O390 1.252 . S
C391 O392 1.252 . S
O392 Zn374 1.975 1_545 S
O392 C391 1.252 . S
H393 C386 0.930 1_545 S
H394 C387 0.930 . S
C395 C396 1.392 . S
C395 N399 1.328 . S
C395 H401 0.930 . S
C396 C395 1.392 . S
C396 N400 1.331 . S
C397 C398 1.391 . S
C397 N400 1.329 . S
C397 H407 0.930 . S
C398 C397 1.391 . S
C398 N399 1.334 . S
C398 H405 0.930 . S
N399 Zn383 2.119 . S
N399 C395 1.328 . S
N399 C398 1.334 . S
N400 C396 1.331 . S
N400 C397 1.329 . S
H401 C395 0.930 . S
C402 O382 1.257 . S
C402 O403 1.244 . S
O403 C402 1.244 . S
O404 C380 1.257 . S
O404 Zn383 2.019 . S
H405 C398 0.930 . S
H406 C385 0.930 . S
H407 C397 0.930 . S
C408 C409 1.387 . S
C408 H412 0.950 . S
C408 C417 1.390 . S
C409 C408 1.387 . S
C409 C411 1.387 . S
H410 C417 0.950 . S
C411 C409 1.387 . S
C411 C413 1.390 . S
C411 H415 0.950 . S
H412 C408 0.950 . S
C413 C411 1.390 . S
C413 C414 1.387 . S
C413 H416 0.950 . S
C414 C413 1.387 . S
C414 C417 1.387 . S
H415 C411 0.950 . S
H416 C413 0.950 . S
C417 C408 1.390 . S
C417 H410 0.950 . S
C417 C414 1.387 . S
C418 C419 1.387 . S
C418 H422 0.950 . S
C418 C427 1.390 . S
C419 C418 1.387 . S
C419 C421 1.387 . S
H420 C427 0.950 . S
C421 C419 1.387 . S
C421 C423 1.390 . S
C421 H425 0.950 . S
H422 C418 0.950 . S
C423 C421 1.390 . S
C423 C424 1.387 . S
C423 H426 0.950 . S
C424 C423 1.387 . S
C424 C427 1.387 . S
H425 C421 0.950 . S
H426 C423 0.950 . S
C427 C418 1.390 . S
C427 H420 0.950 . S
C427 C424 1.387 . S
C428 C429 1.387 . S
C428 H432 0.950 . S
C428 C437 1.390 . S
C429 C428 1.387 . S
C429 C431 1.387 . S
H430 C437 0.950 . S
C431 C429 1.387 . S
C431 C433 1.390 . S
C431 H435 0.950 . S
H432 C428 0.950 . S
C433 C431 1.390 . S
C433 C434 1.387 . S
C433 H436 0.950 . S
C434 C433 1.387 . S
C434 C437 1.387 . S
H435 C431 0.950 . S
H436 C433 0.950 . S
C437 C428 1.390 . S
C437 H430 0.950 . S
C437 C434 1.387 . S
C438 C439 1.387 . S
C438 H442 0.950 . S
C438 C447 1.390 . S
C439 C438 1.387 . S
C439 C441 1.387 . S
H440 C447 0.950 . S
C441 C439 1.387 . S
C441 C443 1.390 . S
C441 H445 0.950 . S
H442 C438 0.950 . S
C443 C441 1.390 . S
C443 C444 1.387 . S
C443 H446 0.950 . S
C444 C443 1.387 . S
C444 C447 1.387 . S
H445 C441 0.950 . S
H446 C443 0.950 . S
C447 C438 1.390 . S
C447 H440 0.950 . S
C447 C444 1.387 . S
C448 C449 1.387 . S
C448 H452 0.950 . S
C448 C457 1.390 . S
C449 C448 1.387 . S
C449 C451 1.387 . S
H450 C457 0.950 . S
C451 C449 1.387 . S
C451 C453 1.390 . S
C451 H455 0.950 . S
H452 C448 0.950 . S
C453 C451 1.390 . S
C453 C454 1.387 . S
C453 H456 0.950 . S
C454 C453 1.387 . S
C454 C457 1.387 . S
H455 C451 0.950 . S
H456 C453 0.950 . S
C457 C448 1.390 . S
C457 H450 0.950 . S
C457 C454 1.387 . S
C458 C459 1.387 . S
C458 H462 0.950 . S
C458 C467 1.390 . S
C459 C458 1.387 . S
C459 C461 1.387 . S
H460 C467 0.950 . S
C461 C459 1.387 . S
C461 C463 1.390 . S
C461 H465 0.950 . S
H462 C458 0.950 . S
C463 C461 1.390 . S
C463 C464 1.387 . S
C463 H466 0.950 . S
C464 C463 1.387 . S
C464 C467 1.387 . S
H465 C461 0.950 . S
H466 C463 0.950 . S
C467 C458 1.390 . S
C467 H460 0.950 . S
C467 C464 1.387 . S
C468 C469 1.387 . S
C468 H472 0.950 . S
C468 C477 1.390 . S
C469 C468 1.387 . S
C469 C471 1.387 . S
H470 C477 0.950 . S
C471 C469 1.387 . S
C471 C473 1.390 . S
C471 H475 0.950 . S
H472 C468 0.950 . S
C473 C471 1.390 . S
C473 C474 1.387 . S
C473 H476 0.950 . S
C474 C473 1.387 . S
C474 C477 1.387 . S
H475 C471 0.950 . S
H476 C473 0.950 . S
C477 C468 1.390 . S
C477 H470 0.950 . S
C477 C474 1.387 . S
C478 C479 1.387 . S
C478 H482 0.950 . S
C478 C487 1.390 . S
C479 C478 1.387 . S
C479 C481 1.387 . S
H480 C487 0.950 . S
C481 C479 1.387 . S
C481 C483 1.390 . S
C481 H485 0.950 . S
H482 C478 0.950 . S
C483 C481 1.390 . S
C483 C484 1.387 . S
C483 H486 0.950 . S
C484 C483 1.387 . S
C484 C487 1.387 . S
H485 C481 0.950 . S
H486 C483 0.950 . S
C487 C478 1.390 . S
C487 H480 0.950 . S
C487 C484 1.387 . S
C488 C489 1.387 . S
C488 H492 0.950 . S
C488 C497 1.390 . S
C489 C488 1.387 . S
C489 C491 1.387 . S
H490 C497 0.950 . S
C491 C489 1.387 . S
C491 C493 1.390 . S
C491 H495 0.950 . S
H492 C488 0.950 . S
C493 C491 1.390 . S
C493 C494 1.387 . S
C493 H496 0.950 . S
C494 C493 1.387 . S
C494 C497 1.387 . S
H495 C491 0.950 . S
H496 C493 0.950 . S
C497 C488 1.390 . S
C497 H490 0.950 . S
C497 C494 1.387 . S
C498 C499 1.387 . S
C498 H502 0.950 . S
C498 C507 1.390 . S
C499 C498 1.387 . S
C499 C501 1.387 . S
H500 C507 0.950 . S
C501 C499 1.387 . S
C501 C503 1.390 . S
C501 H505 0.950 . S
H502 C498 0.950 . S
C503 C501 1.390 . S
C503 C504 1.387 . S
C503 H506 0.950 . S
C504 C503 1.387 . S
C504 C507 1.387 . S
H505 C501 0.950 . S
H506 C503 0.950 . S
C507 C498 1.390 . S
C507 H500 0.950 . S
C507 C504 1.387 . S
C508 C509 1.387 . S
C508 H512 0.950 . S
C508 C517 1.390 . S
C509 C508 1.387 . S
C509 C511 1.387 . S
H510 C517 0.950 . S
C511 C509 1.387 . S
C511 C513 1.390 . S
C511 H515 0.950 . S
H512 C508 0.950 . S
C513 C511 1.390 . S
C513 C514 1.387 . S
C513 H516 0.950 . S
C514 C513 1.387 . S
C514 C517 1.387 . S
H515 C511 0.950 . S
H516 C513 0.950 . S
C517 C508 1.390 . S
C517 H510 0.950 . S
C517 C514 1.387 . S
C518 C519 1.387 . S
C518 H522 0.950 . S
C518 C527 1.390 . S
C519 C518 1.387 . S
C519 C521 1.387 . S
H520 C527 0.950 . S
C521 C519 1.387 . S
C521 C523 1.390 . S
C521 H525 0.950 . S
H522 C518 0.950 . S
C523 C521 1.390 . S
C523 C524 1.387 . S
C523 H526 0.950 . S
C524 C523 1.387 . S
C524 C527 1.387 . S
H525 C521 0.950 . S
H526 C523 0.950 . S
C527 C518 1.390 . S
C527 H520 0.950 . S
C527 C524 1.387 . S
C528 C529 1.387 . S
C528 H532 0.950 . S
C528 C537 1.390 . S
C529 C528 1.387 . S
C529 C531 1.387 . S
H530 C537 0.950 . S
C531 C529 1.387 . S
C531 C533 1.390 . S
C531 H535 0.950 . S
H532 C528 0.950 . S
C533 C531 1.390 . S
C533 C534 1.387 . S
C533 H536 0.950 . S
C534 C533 1.387 . S
C534 C537 1.387 . S
H535 C531 0.950 . S
H536 C533 0.950 . S
C537 C528 1.390 . S
C537 H530 0.950 . S
C537 C534 1.387 . S
C538 C539 1.387 . S
C538 H542 0.950 . S
C538 C547 1.390 . S
C539 C538 1.387 . S
C539 C541 1.387 . S
H540 C547 0.950 . S
C541 C539 1.387 . S
C541 C543 1.390 . S
C541 H545 0.950 . S
H542 C538 0.950 . S
C543 C541 1.390 . S
C543 C544 1.387 . S
C543 H546 0.950 . S
C544 C543 1.387 . S
C544 C547 1.387 . S
H545 C541 0.950 . S
H546 C543 0.950 . S
C547 C538 1.390 . S
C547 H540 0.950 . S
C547 C544 1.387 . S
C548 C549 1.387 . S
C548 H552 0.950 . S
C548 C557 1.390 . S
C549 C548 1.387 . S
C549 C551 1.387 . S
H550 C557 0.950 . S
C551 C549 1.387 . S
C551 C553 1.390 . S
C551 H555 0.950 . S
H552 C548 0.950 . S
C553 C551 1.390 . S
C553 C554 1.387 . S
C553 H556 0.950 . S
C554 C553 1.387 . S
C554 C557 1.387 . S
H555 C551 0.950 . S
H556 C553 0.950 . S
C557 C548 1.390 . S
C557 H550 0.950 . S
C557 C554 1.387 . S
C558 C559 1.387 . S
C558 H562 0.950 . S
C558 C567 1.390 . S
C559 C558 1.387 . S
C559 C561 1.387 . S
H560 C567 0.950 . S
C561 C559 1.387 . S
C561 C563 1.390 . S
C561 H565 0.950 . S
H562 C558 0.950 . S
C563 C561 1.390 . S
C563 C564 1.387 . S
C563 H566 0.950 . S
C564 C563 1.387 . S
C564 C567 1.387 . S
H565 C561 0.950 . S
H566 C563 0.950 . S
C567 C558 1.390 . S
C567 H560 0.950 . S
C567 C564 1.387 . S
C568 C569 1.387 . S
C568 H572 0.950 . S
C568 C577 1.390 . S
C569 C568 1.387 . S
C569 C571 1.387 . S
H570 C577 0.950 . S
C571 C569 1.387 . S
C571 C573 1.390 . S
C571 H575 0.950 . S
H572 C568 0.950 . S
C573 C571 1.390 . S
C573 C574 1.387 . S
C573 H576 0.950 . S
C574 C573 1.387 . S
C574 C577 1.387 . S
H575 C571 0.950 . S
H576 C573 0.950 . S
C577 C568 1.390 . S
C577 H570 0.950 . S
C577 C574 1.387 . S
C578 C579 1.387 . S
C578 H582 0.950 . S
C578 C587 1.390 . S
C579 C578 1.387 . S
C579 C581 1.387 . S
H580 C587 0.950 . S
C581 C579 1.387 . S
C581 C583 1.390 . S
C581 H585 0.950 . S
H582 C578 0.950 . S
C583 C581 1.390 . S
C583 C584 1.387 . S
C583 H586 0.950 . S
C584 C583 1.387 . S
C584 C587 1.387 . S
H585 C581 0.950 . S
H586 C583 0.950 . S
C587 C578 1.390 . S
C587 H580 0.950 . S
C587 C584 1.387 . S
C588 C589 1.387 . S
C588 H592 0.950 . S
C588 C597 1.390 . S
C589 C588 1.387 . S
C589 C591 1.387 . S
H590 C597 0.950 . S
C591 C589 1.387 . S
C591 C593 1.390 . S
C591 H595 0.950 . S
H592 C588 0.950 . S
C593 C591 1.390 . S
C593 C594 1.387 . S
C593 H596 0.950 . S
C594 C593 1.387 . S
C594 C597 1.387 . S
H595 C591 0.950 . S
H596 C593 0.950 . S
C597 C588 1.390 . S
C597 H590 0.950 . S
C597 C594 1.387 . S
C598 C599 1.387 . S
C598 H602 0.950 . S
C598 C607 1.390 . S
C599 C598 1.387 . S
C599 C601 1.387 . S
H600 C607 0.950 . S
C601 C599 1.387 . S
C601 C603 1.390 . S
C601 H605 0.950 . S
H602 C598 0.950 . S
C603 C601 1.390 . S
C603 C604 1.387 . S
C603 H606 0.950 . S
C604 C603 1.387 . S
C604 C607 1.387 . S
H605 C601 0.950 . S
H606 C603 0.950 . S
C607 C598 1.390 . S
C607 H600 0.950 . S
C607 C604 1.387 . S
C608 C609 1.387 . S
C608 H612 0.950 1_565 S
C608 C617 1.390 . S
C609 C608 1.387 . S
C609 C611 1.387 . S
H610 C617 0.950 1_545 S
C611 C609 1.387 . S
C611 C613 1.390 . S
C611 H615 0.950 . S
H612 C608 0.950 1_545 S
C613 C611 1.390 . S
C613 C614 1.387 . S
C613 H616 0.950 . S
C614 C613 1.387 . S
C614 C617 1.387 . S
H615 C611 0.950 . S
H616 C613 0.950 . S
C617 C608 1.390 . S
C617 H610 0.950 1_565 S
C617 C614 1.387 . S
C618 C619 1.387 . S
C618 H622 0.950 . S
C618 C627 1.390 . S
C619 C618 1.387 . S
C619 C621 1.387 . S
H620 C627 0.950 . S
C621 C619 1.387 . S
C621 C623 1.390 . S
C621 H625 0.950 . S
H622 C618 0.950 . S
C623 C621 1.390 . S
C623 C624 1.387 . S
C623 H626 0.950 . S
C624 C623 1.387 . S
C624 C627 1.387 . S
H625 C621 0.950 . S
H626 C623 0.950 . S
C627 C618 1.390 . S
C627 H620 0.950 . S
C627 C624 1.387 . S
C628 C629 1.387 . S
C628 H632 0.950 . S
C628 C637 1.390 . S
C629 C628 1.387 . S
C629 C631 1.387 . S
H630 C637 0.950 . S
C631 C629 1.387 . S
C631 C633 1.390 . S
C631 H635 0.950 . S
H632 C628 0.950 . S
C633 C631 1.390 . S
C633 C634 1.387 . S
C633 H636 0.950 . S
C634 C633 1.387 . S
C634 C637 1.387 . S
H635 C631 0.950 . S
H636 C633 0.950 . S
C637 C628 1.390 . S
C637 H630 0.950 . S
C637 C634 1.387 . S
C638 C639 1.387 . S
C638 H642 0.950 . S
C638 C647 1.390 . S
C639 C638 1.387 . S
C639 C641 1.387 . S
H640 C647 0.950 . S
C641 C639 1.387 . S
C641 C643 1.390 . S
C641 H645 0.950 1_545 S
H642 C638 0.950 . S
C643 C641 1.390 . S
C643 C644 1.387 . S
C643 H646 0.950 1_545 S
C644 C643 1.387 . S
C644 C647 1.387 . S
H645 C641 0.950 1_565 S
H646 C643 0.950 1_565 S
C647 C638 1.390 . S
C647 H640 0.950 . S
C647 C644 1.387 . S
C648 C649 1.387 . S
C648 H652 0.950 . S
C648 C657 1.390 . S
C649 C648 1.387 . S
C649 C651 1.387 . S
H650 C657 0.950 . S
C651 C649 1.387 . S
C651 C653 1.390 . S
C651 H655 0.950 . S
H652 C648 0.950 . S
C653 C651 1.390 . S
C653 C654 1.387 . S
C653 H656 0.950 . S
C654 C653 1.387 . S
C654 C657 1.387 . S
H655 C651 0.950 . S
H656 C653 0.950 . S
C657 C648 1.390 . S
C657 H650 0.950 . S
C657 C654 1.387 . S
C658 C659 1.387 . S
C658 H662 0.950 . S
C658 C667 1.390 . S
C659 C658 1.387 . S
C659 C661 1.387 . S
H660 C667 0.950 . S
C661 C659 1.387 . S
C661 C663 1.390 . S
C661 H665 0.950 . S
H662 C658 0.950 . S
C663 C661 1.390 . S
C663 C664 1.387 . S
C663 H666 0.950 . S
C664 C663 1.387 . S
C664 C667 1.387 . S
H665 C661 0.950 . S
H666 C663 0.950 . S
C667 C658 1.390 . S
C667 H660 0.950 . S
C667 C664 1.387 . S
C668 C669 1.387 . S
C668 H672 0.950 . S
C668 C677 1.390 . S
C669 C668 1.387 . S
C669 C671 1.387 . S
H670 C677 0.950 . S
C671 C669 1.387 . S
C671 C673 1.390 . S
C671 H675 0.950 . S
H672 C668 0.950 . S
C673 C671 1.390 . S
C673 C674 1.387 . S
C673 H676 0.950 . S
C674 C673 1.387 . S
C674 C677 1.387 . S
H675 C671 0.950 . S
H676 C673 0.950 . S
C677 C668 1.390 . S
C677 H670 0.950 . S
C677 C674 1.387 . S
C678 C679 1.387 . S
C678 H682 0.950 . S
C678 C687 1.390 . S
C679 C678 1.387 . S
C679 C681 1.387 . S
H680 C687 0.950 . S
C681 C679 1.387 . S
C681 C683 1.390 . S
C681 H685 0.950 . S
H682 C678 0.950 . S
C683 C681 1.390 . S
C683 C684 1.387 . S
C683 H686 0.950 . S
C684 C683 1.387 . S
C684 C687 1.387 . S
H685 C681 0.950 . S
H686 C683 0.950 . S
C687 C678 1.390 . S
C687 H680 0.950 . S
C687 C684 1.387 . S
C688 C689 1.387 . S
C688 H692 0.950 . S
C688 C697 1.390 . S
C689 C688 1.387 . S
C689 C691 1.387 . S
H690 C697 0.950 . S
C691 C689 1.387 . S
C691 C693 1.390 . S
C691 H695 0.950 . S
H692 C688 0.950 . S
C693 C691 1.390 . S
C693 C694 1.387 . S
C693 H696 0.950 . S
C694 C693 1.387 . S
C694 C697 1.387 . S
H695 C691 0.950 . S
H696 C693 0.950 . S
C697 C688 1.390 . S
C697 H690 0.950 . S
C697 C694 1.387 . S
C698 C699 1.387 . S
C698 H702 0.950 . S
C698 C707 1.390 . S
C699 C698 1.387 . S
C699 C701 1.387 . S
H700 C707 0.950 . S
C701 C699 1.387 . S
C701 C703 1.390 . S
C701 H705 0.950 . S
H702 C698 0.950 . S
C703 C701 1.390 . S
C703 C704 1.387 . S
C703 H706 0.950 . S
C704 C703 1.387 . S
C704 C707 1.387 . S
H705 C701 0.950 . S
H706 C703 0.950 . S
C707 C698 1.390 . S
C707 H700 0.950 . S
C707 C704 1.387 . S
C708 C709 1.387 . S
C708 H712 0.950 . S
C708 C717 1.390 . S
C709 C708 1.387 . S
C709 C711 1.387 1_554 S
H710 C717 0.950 . S
C711 C709 1.387 1_556 S
C711 C713 1.390 1_556 S
C711 H715 0.950 . S
H712 C708 0.950 . S
C713 C711 1.390 1_554 S
C713 C714 1.387 . S
C713 H716 0.950 1_554 S
C714 C713 1.387 . S
C714 C717 1.387 . S
H715 C711 0.950 . S
H716 C713 0.950 1_556 S
C717 C708 1.390 . S
C717 H710 0.950 . S
C717 C714 1.387 . S
C718 C719 1.387 . S
C718 H722 0.950 . S
C718 C727 1.390 . S
C719 C718 1.387 . S
C719 C721 1.387 . S
H720 C727 0.950 . S
C721 C719 1.387 . S
C721 C723 1.390 . S
C721 H725 0.950 . S
H722 C718 0.950 . S
C723 C721 1.390 . S
C723 C724 1.387 . S
C723 H726 0.950 . S
C724 C723 1.387 . S
C724 C727 1.387 . S
H725 C721 0.950 . S
H726 C723 0.950 . S
C727 C718 1.390 . S
C727 H720 0.950 . S
C727 C724 1.387 . S
C728 C729 1.387 . S
C728 H732 0.950 . S
C728 C737 1.390 . S
C729 C728 1.387 . S
C729 C731 1.387 . S
H730 C737 0.950 . S
C731 C729 1.387 . S
C731 C733 1.390 . S
C731 H735 0.950 . S
H732 C728 0.950 . S
C733 C731 1.390 . S
C733 C734 1.387 . S
C733 H736 0.950 . S
C734 C733 1.387 . S
C734 C737 1.387 . S
H735 C731 0.950 . S
H736 C733 0.950 . S
C737 C728 1.390 . S
C737 H730 0.950 . S
C737 C734 1.387 . S
C738 C739 1.387 . S
C738 H742 0.950 . S
C738 C747 1.390 . S
C739 C738 1.387 . S
C739 C741 1.387 . S
H740 C747 0.950 . S
C741 C739 1.387 . S
C741 C743 1.390 . S
C741 H745 0.950 . S
H742 C738 0.950 . S
C743 C741 1.390 . S
C743 C744 1.387 . S
C743 H746 0.950 . S
C744 C743 1.387 . S
C744 C747 1.387 . S
H745 C741 0.950 . S
H746 C743 0.950 . S
C747 C738 1.390 . S
C747 H740 0.950 . S
C747 C744 1.387 . S
C748 C749 1.387 . S
C748 H752 0.950 . S
C748 C757 1.390 . S
C749 C748 1.387 . S
C749 C751 1.387 . S
H750 C757 0.950 . S
C751 C749 1.387 . S
C751 C753 1.390 . S
C751 H755 0.950 . S
H752 C748 0.950 . S
C753 C751 1.390 . S
C753 C754 1.387 . S
C753 H756 0.950 . S
C754 C753 1.387 . S
C754 C757 1.387 . S
H755 C751 0.950 . S
H756 C753 0.950 . S
C757 C748 1.390 . S
C757 H750 0.950 . S
C757 C754 1.387 . S
C758 C759 1.387 . S
C758 H762 0.950 . S
C758 C767 1.390 . S
C759 C758 1.387 . S
C759 C761 1.387 . S
H760 C767 0.950 . S
C761 C759 1.387 . S
C761 C763 1.390 . S
C761 H765 0.950 . S
H762 C758 0.950 . S
C763 C761 1.390 . S
C763 C764 1.387 . S
C763 H766 0.950 . S
C764 C763 1.387 . S
C764 C767 1.387 . S
H765 C761 0.950 . S
H766 C763 0.950 . S
C767 C758 1.390 . S
C767 H760 0.950 . S
C767 C764 1.387 . S
C768 C769 1.387 . S
C768 H772 0.950 . S
C768 C777 1.390 . S
C769 C768 1.387 . S
C769 C771 1.387 . S
H770 C777 0.950 . S
C771 C769 1.387 . S
C771 C773 1.390 . S
C771 H775 0.950 . S
H772 C768 0.950 . S
C773 C771 1.390 . S
C773 C774 1.387 . S
C773 H776 0.950 . S
C774 C773 1.387 . S
C774 C777 1.387 . S
H775 C771 0.950 . S
H776 C773 0.950 . S
C777 C768 1.390 . S
C777 H770 0.950 . S
C777 C774 1.387 . S
C778 C779 1.387 . S
C778 H782 0.950 . S
C778 C787 1.390 . S
C779 C778 1.387 . S
C779 C781 1.387 1_556 S
H780 C787 0.950 . S
C781 C779 1.387 1_554 S
C781 C783 1.390 . S
C781 H785 0.950 . S
H782 C778 0.950 . S
C783 C781 1.390 . S
C783 C784 1.387 1_554 S
C783 H786 0.950 . S
C784 C783 1.387 1_556 S
C784 C787 1.387 . S
H785 C781 0.950 . S
H786 C783 0.950 . S
C787 C778 1.390 . S
C787 H780 0.950 . S
C787 C784 1.387 . S
C788 C789 1.387 . S
C788 H792 0.950 . S
C788 C797 1.390 . S
C789 C788 1.387 . S
C789 C791 1.387 . S
H790 C797 0.950 . S
C791 C789 1.387 . S
C791 C793 1.390 . S
C791 H795 0.950 . S
H792 C788 0.950 . S
C793 C791 1.390 . S
C793 C794 1.387 . S
C793 H796 0.950 . S
C794 C793 1.387 . S
C794 C797 1.387 . S
H795 C791 0.950 . S
H796 C793 0.950 . S
C797 C788 1.390 . S
C797 H790 0.950 . S
C797 C794 1.387 . S
C798 C799 1.387 . S
C798 H802 0.950 . S
C798 C807 1.390 . S
C799 C798 1.387 . S
C799 C801 1.387 . S
H800 C807 0.950 . S
C801 C799 1.387 . S
C801 C803 1.390 . S
C801 H805 0.950 . S
H802 C798 0.950 . S
C803 C801 1.390 . S
C803 C804 1.387 . S
C803 H806 0.950 . S
C804 C803 1.387 . S
C804 C807 1.387 . S
H805 C801 0.950 . S
H806 C803 0.950 . S
C807 C798 1.390 . S
C807 H800 0.950 . S
C807 C804 1.387 . S
C808 C809 1.387 . S
C808 H812 0.950 . S
C808 C817 1.390 . S
C809 C808 1.387 . S
C809 C811 1.387 . S
H810 C817 0.950 . S
C811 C809 1.387 . S
C811 C813 1.390 . S
C811 H815 0.950 . S
H812 C808 0.950 . S
C813 C811 1.390 . S
C813 C814 1.387 . S
C813 H816 0.950 . S
C814 C813 1.387 . S
C814 C817 1.387 . S
H815 C811 0.950 . S
H816 C813 0.950 . S
C817 C808 1.390 . S
C817 H810 0.950 . S
C817 C814 1.387 . S
C818 C819 1.387 . S
C818 H822 0.950 . S
C818 C827 1.390 . S
C819 C818 1.387 . S
C819 C821 1.387 . S
H820 C827 0.950 . S
C821 C819 1.387 . S
C821 C823 1.390 . S
C821 H825 0.950 . S
H822 C818 0.950 . S
C823 C821 1.390 . S
C823 C824 1.387 . S
C823 H826 0.950 . S
C824 C823 1.387 . S
C824 C827 1.387 . S
H825 C821 0.950 . S
H826 C823 0.950 . S
C827 C818 1.390 . S
C827 H820 0.950 . S
C827 C824 1.387 . S
C409 C28 1.839 . S
C414 C300 1.840 . S
C419 C40 1.839 . S
C424 C312 1.839 . S
C429 C368 1.839 . S
C434 C96 1.840 . S
C439 C108 1.840 . S
C444 C380 1.840 . S
C449 C164 1.840 . S
C454 C232 1.840 . S
C459 C176 1.840 . S
C464 C244 1.839 . S
C469 C171 1.488 . S
C474 C6 1.513 . S
C479 C62 1.514 . S
C484 C3 1.487 . S
C489 C74 1.514 . S
C494 C35 1.488 . S
C499 C71 1.486 . S
C504 C130 1.513 . S
C509 C103 1.486 . S
C514 C142 1.513 . S
C519 C139 1.486 . S
C524 C198 1.513 . S
C529 C210 1.514 . S
C534 C239 1.487 . S
C539 C275 1.488 . S
C544 C266 1.514 . S
C549 C307 1.485 . S
C554 C278 1.513 . S
C559 C343 1.486 . S
C564 C334 1.513 . S
C569 C375 1.485 . S
C574 C346 1.513 . S
C579 C402 1.514 . S
C584 C207 1.488 . S
C589 C17 1.711 . S
C594 C221 1.712 . S
C599 C51 1.711 . S
C604 C255 1.712 . S
C609 C289 1.712 . S
C614 C85 1.712 . S
C619 C323 1.711 . S
C624 C119 1.712 . S
C629 C153 1.712 . S
C634 C357 1.711 . S
C639 C187 1.711 . S
C644 C391 1.711 . S
C649 C273 2.803 . S
C654 C1 2.803 . S
C659 C309 2.803 . S
C664 C37 2.803 . S
C669 C341 2.803 . S
C674 C69 2.803 . S
C679 C105 2.803 . S
C684 C377 2.802 . S
C689 C205 2.803 . S
C694 C137 2.803 . S
C699 C241 2.803 . S
C704 C173 2.802 . S
C709 C260 0.973 . S
C714 C22 0.800 . S
C719 C287 0.980 . S
C724 C49 0.810 . S
C729 C328 0.973 . S
C734 C90 0.800 . S
C739 C355 0.973 . S
C744 C117 0.799 . S
C749 C396 0.973 . S
C754 C158 0.799 . S
C759 C219 0.980 . S
C764 C185 0.809 . S
C769 C226 0.799 . S
C774 C192 0.973 . S
C779 C253 0.799 . S
C784 C15 0.973 . S
C789 C56 0.980 . S
C794 C294 0.809 . S
C799 C83 0.973 . S
C804 C321 0.799 . S
C809 C362 0.810 . S
C814 C124 0.980 . S
C819 C151 0.973 . S
C824 C389 0.799 . S
