# Generated by pormake.
# Topology ukn, (4)-cn, num edge types: 1
# Building blocks:
#     Node 0, Type 0, BuildingBlock: QUQFOY_clean_sbu_1, # of connection points: 4
#     Node 1, Type 0, BuildingBlock: QUQFOY_clean_sbu_1, # of connection points: 4
#     Node 2, Type 0, BuildingBlock: QUQFOY_clean_sbu_1, # of connection points: 4
#     Node 3, Type 0, BuildingBlock: QUQFOY_clean_sbu_1, # of connection points: 4
#     Node 4, Type 0, BuildingBlock: QUQFOY_clean_sbu_1, # of connection points: 4
#     Node 5, Type 0, BuildingBlock: QUQFOY_clean_sbu_1, # of connection points: 4
#     Node 6, Type 0, BuildingBlock: QUQFOY_clean_sbu_1, # of connection points: 4
#     Node 7, Type 0, BuildingBlock: QUQFOY_clean_sbu_1, # of connection points: 4
#     Node 8, Type 0, BuildingBlock: QUQFOY_clean_sbu_1, # of connection points: 4
#     Node 9, Type 0, BuildingBlock: QUQFOY_clean_sbu_1, # of connection points: 4
#     Node 10, Type 0, BuildingBlock: QUQFOY_clean_sbu_1, # of connection points: 4
#     Node 11, Type 0, BuildingBlock: QUQFOY_clean_sbu_1, # of connection points: 4
#     Node 12, Type 0, BuildingBlock: QUQFOY_clean_sbu_1, # of connection points: 4
#     Node 13, Type 0, BuildingBlock: QUQFOY_clean_sbu_1, # of connection points: 4
#     Node 14, Type 0, BuildingBlock: QUQFOY_clean_sbu_1, # of connection points: 4
#     Node 15, Type 0, BuildingBlock: QUQFOY_clean_sbu_1, # of connection points: 4
#     Node 16, Type 0, BuildingBlock: QUQFOY_clean_sbu_1, # of connection points: 4
#     Node 17, Type 0, BuildingBlock: QUQFOY_clean_sbu_1, # of connection points: 4
#     Node 18, Type 0, BuildingBlock: QUQFOY_clean_sbu_1, # of connection points: 4
#     Node 19, Type 0, BuildingBlock: QUQFOY_clean_sbu_1, # of connection points: 4
#     Node 20, Type 0, BuildingBlock: QUQFOY_clean_sbu_1, # of connection points: 4
#     Node 21, Type 0, BuildingBlock: QUQFOY_clean_sbu_1, # of connection points: 4
#     Node 22, Type 0, BuildingBlock: QUQFOY_clean_sbu_1, # of connection points: 4
#     Node 23, Type 0, BuildingBlock: QUQFOY_clean_sbu_1, # of connection points: 4
#     Node 24, Type 0, BuildingBlock: QUQFOY_clean_sbu_1, # of connection points: 4
#     Node 25, Type 0, BuildingBlock: QUQFOY_clean_sbu_1, # of connection points: 4
#     Node 26, Type 0, BuildingBlock: QUQFOY_clean_sbu_1, # of connection points: 4
#     Node 27, Type 0, BuildingBlock: QUQFOY_clean_sbu_1, # of connection points: 4
#     Node 28, Type 0, BuildingBlock: QUQFOY_clean_sbu_1, # of connection points: 4
#     Node 29, Type 0, BuildingBlock: QUQFOY_clean_sbu_1, # of connection points: 4
#     Node 30, Type 0, BuildingBlock: QUQFOY_clean_sbu_1, # of connection points: 4
#     Node 31, Type 0, BuildingBlock: QUQFOY_clean_sbu_1, # of connection points: 4
#     Node 32, Type 0, BuildingBlock: QUQFOY_clean_sbu_1, # of connection points: 4
#     Node 33, Type 0, BuildingBlock: QUQFOY_clean_sbu_1, # of connection points: 4
#     Node 34, Type 0, BuildingBlock: QUQFOY_clean_sbu_1, # of connection points: 4
#     Node 35, Type 0, BuildingBlock: QUQFOY_clean_sbu_1, # of connection points: 4
#     Edge 36, Type (0, 0), BuildingBlock: ZUJKAS_clean_linker_0, # of connection points: 2
#     Edge 37, Type (0, 0), BuildingBlock: ZUJKAS_clean_linker_0, # of connection points: 2
#     Edge 38, Type (0, 0), BuildingBlock: ZUJKAS_clean_linker_0, # of connection points: 2
#     Edge 39, Type (0, 0), BuildingBlock: ZUJKAS_clean_linker_0, # of connection points: 2
#     Edge 40, Type (0, 0), BuildingBlock: ZUJKAS_clean_linker_0, # of connection points: 2
#     Edge 41, Type (0, 0), BuildingBlock: ZUJKAS_clean_linker_0, # of connection points: 2
#     Edge 42, Type (0, 0), BuildingBlock: ZUJKAS_clean_linker_0, # of connection points: 2
#     Edge 43, Type (0, 0), BuildingBlock: ZUJKAS_clean_linker_0, # of connection points: 2
#     Edge 44, Type (0, 0), BuildingBlock: ZUJKAS_clean_linker_0, # of connection points: 2
#     Edge 45, Type (0, 0), BuildingBlock: ZUJKAS_clean_linker_0, # of connection points: 2
#     Edge 46, Type (0, 0), BuildingBlock: ZUJKAS_clean_linker_0, # of connection points: 2
#     Edge 47, Type (0, 0), BuildingBlock: ZUJKAS_clean_linker_0, # of connection points: 2
#     Edge 48, Type (0, 0), BuildingBlock: ZUJKAS_clean_linker_0, # of connection points: 2
#     Edge 49, Type (0, 0), BuildingBlock: ZUJKAS_clean_linker_0, # of connection points: 2
#     Edge 50, Type (0, 0), BuildingBlock: ZUJKAS_clean_linker_0, # of connection points: 2
#     Edge 51, Type (0, 0), BuildingBlock: ZUJKAS_clean_linker_0, # of connection points: 2
#     Edge 52, Type (0, 0), BuildingBlock: ZUJKAS_clean_linker_0, # of connection points: 2
#     Edge 53, Type (0, 0), BuildingBlock: ZUJKAS_clean_linker_0, # of connection points: 2
#     Edge 54, Type (0, 0), BuildingBlock: ZUJKAS_clean_linker_0, # of connection points: 2
#     Edge 55, Type (0, 0), BuildingBlock: ZUJKAS_clean_linker_0, # of connection points: 2
#     Edge 56, Type (0, 0), BuildingBlock: ZUJKAS_clean_linker_0, # of connection points: 2
#     Edge 57, Type (0, 0), BuildingBlock: ZUJKAS_clean_linker_0, # of connection points: 2
#     Edge 58, Type (0, 0), BuildingBlock: ZUJKAS_clean_linker_0, # of connection points: 2
#     Edge 59, Type (0, 0), BuildingBlock: ZUJKAS_clean_linker_0, # of connection points: 2
#     Edge 60, Type (0, 0), BuildingBlock: ZUJKAS_clean_linker_0, # of connection points: 2
#     Edge 61, Type (0, 0), BuildingBlock: ZUJKAS_clean_linker_0, # of connection points: 2
#     Edge 62, Type (0, 0), BuildingBlock: ZUJKAS_clean_linker_0, # of connection points: 2
#     Edge 63, Type (0, 0), BuildingBlock: ZUJKAS_clean_linker_0, # of connection points: 2
#     Edge 64, Type (0, 0), BuildingBlock: ZUJKAS_clean_linker_0, # of connection points: 2
#     Edge 65, Type (0, 0), BuildingBlock: ZUJKAS_clean_linker_0, # of connection points: 2
#     Edge 66, Type (0, 0), BuildingBlock: ZUJKAS_clean_linker_0, # of connection points: 2
#     Edge 67, Type (0, 0), BuildingBlock: ZUJKAS_clean_linker_0, # of connection points: 2
#     Edge 68, Type (0, 0), BuildingBlock: ZUJKAS_clean_linker_0, # of connection points: 2
#     Edge 69, Type (0, 0), BuildingBlock: ZUJKAS_clean_linker_0, # of connection points: 2
#     Edge 70, Type (0, 0), BuildingBlock: ZUJKAS_clean_linker_0, # of connection points: 2
#     Edge 71, Type (0, 0), BuildingBlock: ZUJKAS_clean_linker_0, # of connection points: 2
#     Edge 72, Type (0, 0), BuildingBlock: ZUJKAS_clean_linker_0, # of connection points: 2
#     Edge 73, Type (0, 0), BuildingBlock: ZUJKAS_clean_linker_0, # of connection points: 2
#     Edge 74, Type (0, 0), BuildingBlock: ZUJKAS_clean_linker_0, # of connection points: 2
#     Edge 75, Type (0, 0), BuildingBlock: ZUJKAS_clean_linker_0, # of connection points: 2
#     Edge 76, Type (0, 0), BuildingBlock: ZUJKAS_clean_linker_0, # of connection points: 2
#     Edge 77, Type (0, 0), BuildingBlock: ZUJKAS_clean_linker_0, # of connection points: 2
#     Edge 78, Type (0, 0), BuildingBlock: ZUJKAS_clean_linker_0, # of connection points: 2
#     Edge 79, Type (0, 0), BuildingBlock: ZUJKAS_clean_linker_0, # of connection points: 2
#     Edge 80, Type (0, 0), BuildingBlock: ZUJKAS_clean_linker_0, # of connection points: 2
#     Edge 81, Type (0, 0), BuildingBlock: ZUJKAS_clean_linker_0, # of connection points: 2
#     Edge 82, Type (0, 0), BuildingBlock: ZUJKAS_clean_linker_0, # of connection points: 2
#     Edge 83, Type (0, 0), BuildingBlock: ZUJKAS_clean_linker_0, # of connection points: 2
#     Edge 84, Type (0, 0), BuildingBlock: ZUJKAS_clean_linker_0, # of connection points: 2
#     Edge 85, Type (0, 0), BuildingBlock: ZUJKAS_clean_linker_0, # of connection points: 2
#     Edge 86, Type (0, 0), BuildingBlock: ZUJKAS_clean_linker_0, # of connection points: 2
#     Edge 87, Type (0, 0), BuildingBlock: ZUJKAS_clean_linker_0, # of connection points: 2
#     Edge 88, Type (0, 0), BuildingBlock: ZUJKAS_clean_linker_0, # of connection points: 2
#     Edge 89, Type (0, 0), BuildingBlock: ZUJKAS_clean_linker_0, # of connection points: 2
#     Edge 90, Type (0, 0), BuildingBlock: ZUJKAS_clean_linker_0, # of connection points: 2
#     Edge 91, Type (0, 0), BuildingBlock: ZUJKAS_clean_linker_0, # of connection points: 2
#     Edge 92, Type (0, 0), BuildingBlock: ZUJKAS_clean_linker_0, # of connection points: 2
#     Edge 93, Type (0, 0), BuildingBlock: ZUJKAS_clean_linker_0, # of connection points: 2
#     Edge 94, Type (0, 0), BuildingBlock: ZUJKAS_clean_linker_0, # of connection points: 2
#     Edge 95, Type (0, 0), BuildingBlock: ZUJKAS_clean_linker_0, # of connection points: 2
#     Edge 96, Type (0, 0), BuildingBlock: ZUJKAS_clean_linker_0, # of connection points: 2
#     Edge 97, Type (0, 0), BuildingBlock: ZUJKAS_clean_linker_0, # of connection points: 2
#     Edge 98, Type (0, 0), BuildingBlock: ZUJKAS_clean_linker_0, # of connection points: 2
#     Edge 99, Type (0, 0), BuildingBlock: ZUJKAS_clean_linker_0, # of connection points: 2
#     Edge 100, Type (0, 0), BuildingBlock: ZUJKAS_clean_linker_0, # of connection points: 2
#     Edge 101, Type (0, 0), BuildingBlock: ZUJKAS_clean_linker_0, # of connection points: 2
#     Edge 102, Type (0, 0), BuildingBlock: ZUJKAS_clean_linker_0, # of connection points: 2
#     Edge 103, Type (0, 0), BuildingBlock: ZUJKAS_clean_linker_0, # of connection points: 2
#     Edge 104, Type (0, 0), BuildingBlock: ZUJKAS_clean_linker_0, # of connection points: 2
#     Edge 105, Type (0, 0), BuildingBlock: ZUJKAS_clean_linker_0, # of connection points: 2
#     Edge 106, Type (0, 0), BuildingBlock: ZUJKAS_clean_linker_0, # of connection points: 2
#     Edge 107, Type (0, 0), BuildingBlock: ZUJKAS_clean_linker_0, # of connection points: 2
# Relax obj value: 0.014
# Max RMSD: 0.063
# Mean RMSD: 0.063
data_MOF--net-ukn--node1-QUQFOY_clean_sbu_1--edge1-ZUJKAS_clean_linker_0
_symmetry_space_group_name_H-M    P1
_symmetry_Int_Tables_number       1
_symmetry_cell_setting            triclinic
loop_
_symmetry_equiv_pos_as_xyz
'x, y, z'
_cell_length_a     140.62458
_cell_length_b     140.61857
_cell_length_c     36.763133
_cell_angle_alpha  89.995167
_cell_angle_beta   89.994245
_cell_angle_gamma 120.00849
loop_
_atom_site_label
_atom_site_type_symbol
_atom_site_fract_x
_atom_site_fract_y
_atom_site_fract_z
_atom_type_partial_charge
O0 O 0.0996 0.30425 0.10304 0.0
Cd1 Cd 0.08873 0.31016 0.09874 0.0
Cd2 Cd 0.07758 0.29044 0.06264 0.0
O3 O 0.08872 0.28701 0.08671 0.0
O4 O 0.09488 0.32278 0.13361 0.0
O5 O 0.07885 0.30776 0.14195 0.0
C6 C 0.08639 0.3172 0.15391 0.0
C7 C 0.05887 0.27754 0.05804 0.0
C8 C 0.09785 0.2945 0.09918 0.0
C9 C 0.08605 0.31115 0.01891 0.0
O10 O 0.08327 0.30107 0.01932 0.0
O11 O 0.0874 0.31635 0.04856 0.0
O12 O 0.06614 0.27659 0.03951 0.0
O13 O 0.0623 0.28551 0.08114 0.0
O14 O 0.6994 0.79659 0.10052 0.0
Cd15 Cd 0.69281 0.7798 0.09572 0.0
Cd16 Cd 0.71305 0.78751 0.06247 0.0
O17 O 0.71652 0.80249 0.08379 0.0
O18 O 0.68015 0.77387 0.13038 0.0
O19 O 0.69443 0.77158 0.13832 0.0
C20 C 0.68524 0.77033 0.1504 0.0
C21 C 0.72588 0.78157 0.06145 0.0
C22 C 0.70919 0.80441 0.09605 0.0
C23 C 0.69259 0.77581 0.0159 0.0
O24 O 0.70293 0.78211 0.01782 0.0
O25 O 0.68678 0.77292 0.04473 0.0
O26 O 0.72719 0.7898 0.04223 0.0
O27 O 0.71758 0.7771 0.08333 0.0
O28 O 0.20548 0.90306 0.10601 0.0
Cd29 Cd 0.2223 0.9124 0.1024 0.0
Cd30 Cd 0.21579 0.92581 0.06266 0.0
O31 O 0.20022 0.91365 0.07859 0.0
O32 O 0.22736 0.90543 0.1392 0.0
O33 O 0.23082 0.92252 0.14402 0.0
C34 C 0.23146 0.9144 0.15773 0.0
C35 C 0.22026 0.9442 0.05841 0.0
C36 C 0.1979 0.90484 0.09543 0.0
C37 C 0.22872 0.91658 0.02397 0.0
O38 O 0.22375 0.92203 0.0232 0.0
O39 O 0.22933 0.91205 0.05316 0.0
O40 O 0.2134 0.93684 0.0364 0.0
O41 O 0.2241 0.941 0.08466 0.0
O42 O 0.30276 0.09935 0.91041 0.0
Cd43 Cd 0.30979 0.0895 0.91434 0.0
Cd44 Cd 0.28963 0.07634 0.94989 0.0
O45 O 0.28598 0.08787 0.92995 0.0
O46 O 0.32234 0.09625 0.8792 0.0
O47 O 0.30797 0.07971 0.87137 0.0
C48 C 0.31717 0.08761 0.85919 0.0
C49 C 0.27634 0.05769 0.9533 0.0
C50 C 0.29295 0.09711 0.91659 0.0
C51 C 0.31073 0.0855 0.99384 0.0
O52 O 0.30034 0.08103 0.99294 0.0
O53 O 0.3163 0.08884 0.96461 0.0
O54 O 0.27582 0.06492 0.97333 0.0
O55 O 0.28408 0.06112 0.92932 0.0
O56 O 0.90407 0.20741 0.90805 0.0
Cd57 Cd 0.91413 0.22422 0.91234 0.0
Cd58 Cd 0.9269 0.21653 0.94696 0.0
O59 O 0.915 0.20142 0.92737 0.0
O60 O 0.90728 0.22989 0.87719 0.0
O61 O 0.92399 0.23246 0.86979 0.0
C62 C 0.91598 0.23354 0.85739 0.0
C63 C 0.94545 0.22149 0.95034 0.0
C64 C 0.90588 0.19955 0.91406 0.0
C65 C 0.9182 0.22886 0.9917 0.0
O66 O 0.92257 0.22285 0.99008 0.0
O67 O 0.91477 0.23121 0.9629 0.0
O68 O 0.93812 0.21384 0.97044 0.0
O69 O 0.94215 0.22587 0.92616 0.0
O70 O 0.79576 0.69694 0.91092 0.0
Cd71 Cd 0.77899 0.69051 0.9155 0.0
Cd72 Cd 0.78648 0.71084 0.94795 0.0
O73 O 0.80143 0.71409 0.92677 0.0
O74 O 0.77263 0.67783 0.88094 0.0
O75 O 0.7712 0.69262 0.87272 0.0
C76 C 0.76949 0.68325 0.86078 0.0
C77 C 0.781 0.72404 0.94884 0.0
C78 C 0.80348 0.7068 0.915 0.0
C79 C 0.77458 0.69047 0.99488 0.0
O80 O 0.78081 0.70081 0.99279 0.0
O81 O 0.77194 0.68459 0.96627 0.0
O82 O 0.78912 0.72511 0.96814 0.0
O83 O 0.77638 0.71576 0.92693 0.0
O84 O 0.90268 0.69808 0.91048 0.0
Cd85 Cd 0.91281 0.69139 0.91463 0.0
Cd86 Cd 0.92564 0.71181 0.94883 0.0
O87 O 0.91382 0.71507 0.92881 0.0
O88 O 0.90605 0.67892 0.87935 0.0
O89 O 0.92271 0.69317 0.8721 0.0
C90 C 0.91475 0.68406 0.8596 0.0
C91 C 0.9442 0.72538 0.95168 0.0
C92 C 0.90462 0.70782 0.91596 0.0
C93 C 0.91701 0.69086 0.99381 0.0
O94 O 0.92132 0.70123 0.9922 0.0
O95 O 0.91359 0.68508 0.96502 0.0
O96 O 0.93691 0.72578 0.97185 0.0
O97 O 0.94084 0.71762 0.92783 0.0
O98 O 0.30303 0.20505 0.90669 0.0
Cd99 Cd 0.31093 0.2219 0.91018 0.0
Cd100 Cd 0.29103 0.21598 0.94972 0.0
O101 O 0.28715 0.20032 0.9331 0.0
O102 O 0.3229 0.22668 0.8733 0.0
O103 O 0.30955 0.23056 0.86858 0.0
C104 C 0.3182 0.23097 0.8548 0.0
C105 C 0.27735 0.22078 0.95507 0.0
C106 C 0.2935 0.1977 0.91675 0.0
C107 C 0.31327 0.2283 0.98855 0.0
O108 O 0.30286 0.2236 0.98921 0.0
O109 O 0.31837 0.22879 0.95941 0.0
O110 O 0.27776 0.21378 0.97662 0.0
O111 O 0.28435 0.22461 0.92868 0.0
O112 O 0.79675 0.09951 0.91114 0.0
Cd113 Cd 0.78004 0.0887 0.91487 0.0
Cd114 Cd 0.7883 0.0766 0.94882 0.0
O115 O 0.80318 0.08878 0.9287 0.0
O116 O 0.77352 0.09473 0.87979 0.0
O117 O 0.77262 0.07873 0.87185 0.0
C118 C 0.77066 0.08621 0.85968 0.0
C119 C 0.78364 0.05815 0.95108 0.0
C120 C 0.8048 0.09792 0.91632 0.0
C121 C 0.77535 0.08433 0.99405 0.0
O122 O 0.78189 0.08058 0.99258 0.0
O123 O 0.77267 0.0874 0.96513 0.0
O124 O 0.79134 0.06548 0.97107 0.0
O125 O 0.77907 0.06143 0.92757 0.0
O126 O 0.69932 0.90353 0.10234 0.0
Cd127 Cd 0.69233 0.9133 0.09826 0.0
Cd128 Cd 0.71254 0.92653 0.06061 0.0
O129 O 0.71561 0.91424 0.07771 0.0
O130 O 0.67983 0.90657 0.13342 0.0
O131 O 0.69409 0.92321 0.14069 0.0
C132 C 0.68492 0.9153 0.153 0.0
C133 C 0.7266 0.94489 0.05741 0.0
C134 C 0.70881 0.9053 0.09332 0.0
C135 C 0.69088 0.91776 0.01952 0.0
O136 O 0.7013 0.92293 0.01954 0.0
O137 O 0.68548 0.91341 0.04845 0.0
O138 O 0.7263 0.93753 0.03581 0.0
O139 O 0.71927 0.94169 0.08276 0.0
O140 O 0.09894 0.79567 0.10225 0.0
Cd141 Cd 0.08873 0.77883 0.09923 0.0
Cd142 Cd 0.07583 0.78636 0.06438 0.0
O143 O 0.08778 0.80147 0.08364 0.0
O144 O 0.09548 0.77295 0.13401 0.0
O145 O 0.07915 0.77117 0.14293 0.0
C146 C 0.087 0.76973 0.15463 0.0
C147 C 0.05734 0.7816 0.06059 0.0
C148 C 0.09702 0.80346 0.09627 0.0
C149 C 0.08426 0.77375 0.02013 0.0
O150 O 0.08006 0.77992 0.02139 0.0
O151 O 0.08764 0.77143 0.0491 0.0
O152 O 0.06476 0.7892 0.04055 0.0
O153 O 0.06052 0.77717 0.08495 0.0
O154 O 0.20662 0.30464 0.10711 0.0
Cd155 Cd 0.22341 0.31133 0.10242 0.0
Cd156 Cd 0.21576 0.29085 0.06864 0.0
O157 O 0.20075 0.28759 0.08943 0.0
O158 O 0.22926 0.32383 0.13761 0.0
O159 O 0.23166 0.30957 0.14458 0.0
C160 C 0.23287 0.3187 0.15714 0.0
C161 C 0.22083 0.27734 0.06517 0.0
C162 C 0.19881 0.29487 0.10212 0.0
C163 C 0.22781 0.31172 0.02306 0.0
O164 O 0.22176 0.30136 0.02497 0.0
O165 O 0.23032 0.31756 0.05175 0.0
O166 O 0.213 0.27686 0.04563 0.0
O167 O 0.22534 0.28516 0.08884 0.0
O168 O 0.7658 0.63645 0.43676 0.0
Cd169 Cd 0.75534 0.64277 0.43273 0.0
Cd170 Cd 0.74284 0.62256 0.39844 0.0
O171 O 0.75462 0.61938 0.41924 0.0
O172 O 0.76162 0.65537 0.46762 0.0
O173 O 0.74542 0.64053 0.47564 0.0
C174 C 0.75304 0.64991 0.48768 0.0
C175 C 0.72427 0.60907 0.39589 0.0
C176 C 0.76385 0.62669 0.43173 0.0
C177 C 0.75128 0.64333 0.35336 0.0
O178 O 0.74728 0.63299 0.35464 0.0
O179 O 0.75432 0.649 0.38243 0.0
O180 O 0.73152 0.60853 0.37598 0.0
O181 O 0.72767 0.61695 0.41933 0.0
O182 O 0.36573 0.13017 0.43564 0.0
Cd183 Cd 0.35882 0.11332 0.4312 0.0
Cd184 Cd 0.37907 0.12033 0.39833 0.0
O185 O 0.38277 0.1354 0.41955 0.0
O186 O 0.34614 0.10733 0.46581 0.0
O187 O 0.36063 0.10539 0.47424 0.0
C188 C 0.35136 0.10399 0.48613 0.0
C189 C 0.39187 0.11434 0.39692 0.0
C190 C 0.37566 0.1377 0.43141 0.0
C191 C 0.3586 0.10892 0.35165 0.0
O192 O 0.36897 0.11496 0.35364 0.0
O193 O 0.35276 0.10635 0.38036 0.0
O194 O 0.39317 0.12257 0.37779 0.0
O195 O 0.38361 0.10989 0.41895 0.0
O196 O 0.87249 0.23642 0.43533 0.0
Cd197 Cd 0.88921 0.24697 0.43038 0.0
Cd198 Cd 0.88078 0.25894 0.39615 0.0
O199 O 0.86595 0.247 0.41732 0.0
O200 O 0.89541 0.24059 0.46535 0.0
O201 O 0.89728 0.25703 0.47269 0.0
C202 C 0.89879 0.24927 0.48506 0.0
C203 C 0.88577 0.27747 0.39311 0.0
C204 C 0.86441 0.23796 0.43033 0.0
C205 C 0.89334 0.25078 0.35071 0.0
O206 O 0.88683 0.25456 0.35236 0.0
O207 O 0.89623 0.24791 0.37963 0.0
O208 O 0.8779 0.27014 0.37362 0.0
O209 O 0.89033 0.27417 0.41659 0.0
O210 O 0.97101 0.43241 0.24438 0.0
Cd211 Cd 0.97755 0.42215 0.2481 0.0
Cd212 Cd 0.95714 0.4092 0.28231 0.0
O213 O 0.95403 0.42116 0.26265 0.0
O214 O 0.99011 0.42856 0.21302 0.0
O215 O 0.97539 0.41225 0.20519 0.0
C216 C 0.98472 0.41995 0.19303 0.0
C217 C 0.94338 0.39071 0.28517 0.0
C218 C 0.96125 0.43041 0.25001 0.0
C219 C 0.97806 0.41764 0.32715 0.0
O220 O 0.96769 0.41334 0.32568 0.0
O221 O 0.98381 0.42115 0.29834 0.0
O222 O 0.94313 0.39805 0.30545 0.0
O223 O 0.95111 0.39398 0.2612 0.0
O224 O 0.56973 0.53843 0.24424 0.0
Cd225 Cd 0.57978 0.55524 0.24908 0.0
Cd226 Cd 0.59246 0.54751 0.28385 0.0
O227 O 0.58082 0.53254 0.26272 0.0
O228 O 0.57299 0.56098 0.21401 0.0
O229 O 0.5897 0.56353 0.20671 0.0
C230 C 0.5817 0.56463 0.19429 0.0
C231 C 0.61101 0.55258 0.28795 0.0
C232 C 0.57167 0.53062 0.24947 0.0
C233 C 0.58363 0.55967 0.32862 0.0
O234 O 0.58784 0.55352 0.32717 0.0
O235 O 0.58045 0.56221 0.29965 0.0
O236 O 0.60362 0.54477 0.30743 0.0
O237 O 0.60778 0.55708 0.264 0.0
O238 O 0.46366 0.03204 0.2445 0.0
Cd239 Cd 0.44696 0.02583 0.25022 0.0
Cd240 Cd 0.45519 0.04602 0.28311 0.0
O241 O 0.47002 0.04926 0.26085 0.0
O242 O 0.44073 0.01317 0.21566 0.0
O243 O 0.43872 0.02765 0.20814 0.0
C244 C 0.43728 0.0184 0.1959 0.0
C245 C 0.44908 0.05871 0.28386 0.0
C246 C 0.47165 0.04176 0.24843 0.0
C247 C 0.44339 0.0257 0.33012 0.0
O248 O 0.44989 0.03599 0.32802 0.0
O249 O 0.44024 0.01987 0.30136 0.0
O250 O 0.45745 0.06022 0.30271 0.0
O251 O 0.44461 0.05032 0.26234 0.0
O252 O 0.57014 0.03025 0.24389 0.0
Cd253 Cd 0.5807 0.02409 0.24859 0.0
Cd254 Cd 0.59306 0.04443 0.28145 0.0
O255 O 0.58122 0.04746 0.26015 0.0
O256 O 0.57439 0.0113 0.21449 0.0
O257 O 0.59052 0.02615 0.20555 0.0
C258 C 0.58288 0.0167 0.19402 0.0
C259 C 0.61172 0.05765 0.28237 0.0
C260 C 0.57199 0.04001 0.24813 0.0
C261 C 0.58482 0.02407 0.32821 0.0
O262 O 0.5887 0.03438 0.32624 0.0
O263 O 0.58184 0.01823 0.29948 0.0
O264 O 0.60466 0.05873 0.30156 0.0
O265 O 0.60808 0.04937 0.26049 0.0
O266 O 0.97074 0.53859 0.24344 0.0
Cd267 Cd 0.97776 0.55543 0.24817 0.0
Cd268 Cd 0.95731 0.54807 0.28289 0.0
O269 O 0.95386 0.53296 0.26263 0.0
O270 O 0.99022 0.56107 0.21278 0.0
O271 O 0.97616 0.56381 0.20606 0.0
C272 C 0.9852 0.56484 0.19336 0.0
C273 C 0.94382 0.55314 0.28697 0.0
C274 C 0.96097 0.53088 0.24921 0.0
C275 C 0.97839 0.56009 0.32757 0.0
O276 O 0.968 0.55422 0.32598 0.0
O277 O 0.98415 0.56235 0.29876 0.0
O278 O 0.94347 0.54541 0.30676 0.0
O279 O 0.95148 0.55754 0.26275 0.0
O280 O 0.4631 0.43233 0.24679 0.0
Cd281 Cd 0.44638 0.42171 0.25151 0.0
Cd282 Cd 0.45415 0.40917 0.2823 0.0
O283 O 0.46895 0.42082 0.26011 0.0
O284 O 0.43972 0.42779 0.21728 0.0
O285 O 0.43873 0.41177 0.20867 0.0
C286 C 0.43677 0.41929 0.19696 0.0
C287 C 0.44816 0.3904 0.28181 0.0
C288 C 0.47089 0.43023 0.24948 0.0
C289 C 0.44243 0.41733 0.33092 0.0
O290 O 0.44895 0.41358 0.32821 0.0
O291 O 0.43937 0.42027 0.30256 0.0
O292 O 0.45656 0.3972 0.30061 0.0
O293 O 0.44356 0.39436 0.26104 0.0
O294 O 0.36579 0.23554 0.43419 0.0
Cd295 Cd 0.35836 0.2449 0.42908 0.0
Cd296 Cd 0.37855 0.25867 0.39387 0.0
O297 O 0.3823 0.247 0.41264 0.0
O298 O 0.34604 0.23809 0.46485 0.0
O299 O 0.35986 0.25509 0.47027 0.0
C300 C 0.35094 0.24704 0.4835 0.0
C301 C 0.39167 0.27737 0.39234 0.0
C302 C 0.37555 0.23783 0.42708 0.0
C303 C 0.35731 0.2492 0.35011 0.0
O304 O 0.36773 0.25453 0.35113 0.0
O305 O 0.3517 0.24483 0.37869 0.0
O306 O 0.39244 0.27038 0.37171 0.0
O307 O 0.3838 0.27363 0.41589 0.0
O308 O 0.76554 0.12795 0.43654 0.0
Cd309 Cd 0.75486 0.11124 0.432 0.0
Cd310 Cd 0.74276 0.11938 0.39856 0.0
O311 O 0.75459 0.13421 0.42005 0.0
O312 O 0.76117 0.10474 0.46602 0.0
O313 O 0.74509 0.10353 0.47522 0.0
C314 C 0.75272 0.10169 0.48663 0.0
C315 C 0.72409 0.11388 0.39763 0.0
C316 C 0.76378 0.13592 0.43218 0.0
C317 C 0.75092 0.10715 0.35226 0.0
O318 O 0.74721 0.11372 0.35388 0.0
O319 O 0.75368 0.10417 0.38122 0.0
O320 O 0.73114 0.12205 0.37847 0.0
O321 O 0.72775 0.10924 0.41946 0.0
O322 O 0.87208 0.63609 0.4369 0.0
Cd323 Cd 0.88889 0.64291 0.43191 0.0
Cd324 Cd 0.88127 0.62261 0.39712 0.0
O325 O 0.86625 0.61914 0.4182 0.0
O326 O 0.89458 0.65547 0.46686 0.0
O327 O 0.89724 0.64139 0.47427 0.0
C328 C 0.89829 0.65047 0.48662 0.0
C329 C 0.88663 0.60934 0.39405 0.0
C330 C 0.86429 0.62633 0.43157 0.0
C331 C 0.89322 0.64356 0.35226 0.0
O332 O 0.88711 0.63319 0.35364 0.0
O333 O 0.8958 0.64925 0.3813 0.0
O334 O 0.87879 0.60871 0.37422 0.0
O335 O 0.89102 0.61718 0.41764 0.0
O336 O 0.43294 0.97119 0.77281 0.0
Cd337 Cd 0.42288 0.97792 0.76804 0.0
Cd338 Cd 0.41001 0.9577 0.73438 0.0
O339 O 0.42154 0.95418 0.75547 0.0
O340 O 0.4296 0.99044 0.80312 0.0
O341 O 0.4129 0.97624 0.81025 0.0
C342 C 0.42087 0.98535 0.82273 0.0
C343 C 0.39129 0.94464 0.73312 0.0
C344 C 0.43081 0.96137 0.76802 0.0
C345 C 0.41894 0.97837 0.68848 0.0
O346 O 0.41462 0.968 0.6901 0.0
O347 O 0.4222 0.98414 0.71736 0.0
O348 O 0.39831 0.94356 0.71365 0.0
O349 O 0.39499 0.95287 0.75527 0.0
O350 O 0.03114 0.46135 0.7693 0.0
Cd351 Cd 0.02526 0.44467 0.76488 0.0
Cd352 Cd 0.04548 0.45286 0.73241 0.0
O353 O 0.04844 0.46767 0.7539 0.0
O354 O 0.0125 0.43806 0.79913 0.0
O355 O 0.02755 0.43715 0.80811 0.0
C356 C 0.01807 0.4352 0.81972 0.0
C357 C 0.05851 0.44718 0.73255 0.0
C358 C 0.04088 0.46934 0.76549 0.0
C359 C 0.02532 0.44063 0.68528 0.0
O360 O 0.03558 0.44728 0.68726 0.0
O361 O 0.0195 0.43755 0.71406 0.0
O362 O 0.05983 0.45541 0.71328 0.0
O363 O 0.0501 0.4426 0.75394 0.0
O364 O 0.53913 0.56952 0.77055 0.0
Cd365 Cd 0.5559 0.57978 0.76617 0.0
Cd366 Cd 0.54796 0.59226 0.73177 0.0
O367 O 0.53292 0.58031 0.75169 0.0
O368 O 0.5617 0.57303 0.8012 0.0
O369 O 0.56404 0.58964 0.80882 0.0
C370 C 0.56522 0.58168 0.82113 0.0
C371 C 0.5529 0.6108 0.72917 0.0
C372 C 0.53118 0.57122 0.76486 0.0
C373 C 0.56043 0.58382 0.68678 0.0
O374 O 0.55425 0.588 0.68839 0.0
O375 O 0.56294 0.58055 0.71561 0.0
O376 O 0.54522 0.60353 0.70898 0.0
O377 O 0.55732 0.60743 0.75294 0.0
O378 O 0.63708 0.76527 0.57481 0.0
Cd379 Cd 0.64419 0.75551 0.57813 0.0
Cd380 Cd 0.62385 0.74236 0.61457 0.0
O381 O 0.62041 0.75421 0.59615 0.0
O382 O 0.65654 0.76257 0.54232 0.0
O383 O 0.64261 0.74572 0.53538 0.0
C384 C 0.65157 0.75383 0.52265 0.0
C385 C 0.61012 0.72388 0.6194 0.0
C386 C 0.62743 0.76333 0.58217 0.0
C387 C 0.64531 0.75136 0.6573 0.0
O388 O 0.63491 0.74674 0.65646 0.0
O389 O 0.6509 0.755 0.62817 0.0
O390 O 0.61016 0.73135 0.63973 0.0
O391 O 0.61752 0.72699 0.59429 0.0
O392 O 0.23704 0.87242 0.57884 0.0
Cd393 Cd 0.24655 0.8892 0.58359 0.0
Cd394 Cd 0.26 0.88248 0.61991 0.0
O395 O 0.24806 0.86704 0.60216 0.0
O396 O 0.23966 0.89465 0.54792 0.0
O397 O 0.25663 0.89779 0.54198 0.0
C398 C 0.24855 0.89865 0.52896 0.0
C399 C 0.2786 0.88769 0.62133 0.0
C400 C 0.23903 0.8648 0.58701 0.0
C401 C 0.25084 0.89472 0.6626 0.0
O402 O 0.25608 0.88954 0.66204 0.0
O403 O 0.24652 0.89591 0.63381 0.0
O404 O 0.27156 0.88014 0.64242 0.0
O405 O 0.27497 0.89184 0.59745 0.0
O406 O 0.12901 0.36413 0.57659 0.0
Cd407 Cd 0.11228 0.35839 0.58129 0.0
Cd408 Cd 0.1209 0.37816 0.61533 0.0
O409 O 0.13529 0.38154 0.58997 0.0
O410 O 0.10554 0.34555 0.54737 0.0
O411 O 0.10478 0.36066 0.53785 0.0
C412 C 0.10271 0.3511 0.5266 0.0
C413 C 0.11464 0.39071 0.6186 0.0
C414 C 0.13696 0.37395 0.57883 0.0
C415 C 0.10909 0.35803 0.66121 0.0
O416 O 0.11656 0.36804 0.65991 0.0
O417 O 0.10492 0.35268 0.63201 0.0
O418 O 0.12327 0.39228 0.636 0.0
O419 O 0.1099 0.38228 0.59733 0.0
O420 O 0.23621 0.36474 0.57896 0.0
Cd421 Cd 0.24664 0.35845 0.58403 0.0
Cd422 Cd 0.25895 0.37887 0.61752 0.0
O423 O 0.24713 0.3819 0.59606 0.0
O424 O 0.24025 0.34588 0.54908 0.0
O425 O 0.25673 0.3604 0.54189 0.0
C426 C 0.24896 0.35116 0.52947 0.0
C427 C 0.27754 0.39232 0.61972 0.0
C428 C 0.23798 0.37446 0.58345 0.0
C429 C 0.25057 0.35823 0.66357 0.0
O430 O 0.25454 0.36855 0.66168 0.0
O431 O 0.24753 0.3524 0.63482 0.0
O432 O 0.27032 0.39299 0.63941 0.0
O433 O 0.27409 0.38434 0.59664 0.0
O434 O 0.63686 0.87211 0.57707 0.0
Cd435 Cd 0.64397 0.8889 0.58048 0.0
Cd436 Cd 0.62395 0.88214 0.61928 0.0
O437 O 0.62073 0.86668 0.60276 0.0
O438 O 0.65623 0.89444 0.54446 0.0
O439 O 0.64202 0.89694 0.53809 0.0
C440 C 0.65107 0.89807 0.52516 0.0
C441 C 0.60993 0.88649 0.62311 0.0
C442 C 0.62742 0.86446 0.58678 0.0
C443 C 0.64587 0.89517 0.65895 0.0
O444 O 0.63545 0.88998 0.65951 0.0
O445 O 0.65111 0.89603 0.6298 0.0
O446 O 0.61036 0.87955 0.64491 0.0
O447 O 0.6171 0.89047 0.59724 0.0
O448 O 0.1303 0.76524 0.58007 0.0
Cd449 Cd 0.11351 0.75477 0.5832 0.0
Cd450 Cd 0.12132 0.74228 0.61788 0.0
O451 O 0.13634 0.75422 0.59801 0.0
O452 O 0.10742 0.76129 0.54826 0.0
O453 O 0.106 0.74509 0.53959 0.0
C454 C 0.10438 0.75282 0.52773 0.0
C455 C 0.11644 0.72376 0.62101 0.0
C456 C 0.13819 0.76344 0.5856 0.0
C457 C 0.10866 0.75049 0.66244 0.0
O458 O 0.11505 0.74656 0.66126 0.0
O459 O 0.10608 0.75358 0.63333 0.0
O460 O 0.12413 0.7311 0.64098 0.0
O461 O 0.11198 0.72704 0.59709 0.0
O462 O 0.03209 0.56942 0.77144 0.0
Cd463 Cd 0.02572 0.57979 0.76651 0.0
Cd464 Cd 0.0461 0.59195 0.73183 0.0
O465 O 0.04914 0.58009 0.75282 0.0
O466 O 0.01312 0.57321 0.80141 0.0
O467 O 0.0275 0.58976 0.80892 0.0
C468 C 0.0183 0.58189 0.82122 0.0
C469 C 0.05968 0.61048 0.72874 0.0
C470 C 0.04173 0.57105 0.76612 0.0
C471 C 0.02525 0.58347 0.68678 0.0
O472 O 0.03557 0.58745 0.68829 0.0
O473 O 0.01952 0.58054 0.71578 0.0
O474 O 0.06013 0.60315 0.70898 0.0
O475 O 0.05185 0.60718 0.75234 0.0
O476 O 0.43197 0.46151 0.77183 0.0
Cd477 Cd 0.42155 0.44473 0.7684 0.0
Cd478 Cd 0.40924 0.45261 0.73198 0.0
O479 O 0.42122 0.46764 0.75174 0.0
O480 O 0.42807 0.4387 0.80348 0.0
O481 O 0.41178 0.43708 0.81173 0.0
C482 C 0.41953 0.43552 0.82375 0.0
C483 C 0.39078 0.44792 0.72776 0.0
C484 C 0.43029 0.46944 0.76532 0.0
C485 C 0.41763 0.43978 0.68903 0.0
O486 O 0.4136 0.44609 0.68949 0.0
O487 O 0.42068 0.43735 0.71848 0.0
O488 O 0.39825 0.45548 0.70774 0.0
O489 O 0.3939 0.44348 0.75229 0.0
O490 O 0.53878 0.97004 0.77083 0.0
Cd491 Cd 0.55552 0.97628 0.76615 0.0
Cd492 Cd 0.54757 0.95606 0.73173 0.0
O493 O 0.5327 0.95296 0.75312 0.0
O494 O 0.56196 0.98885 0.80116 0.0
O495 O 0.56325 0.97395 0.80872 0.0
C496 C 0.56505 0.98333 0.821 0.0
C497 C 0.55268 0.94259 0.72898 0.0
C498 C 0.53089 0.96031 0.76594 0.0
C499 C 0.55991 0.97679 0.68657 0.0
O500 O 0.55349 0.96648 0.68786 0.0
O501 O 0.56267 0.98246 0.71568 0.0
O502 O 0.5448 0.94198 0.70943 0.0
O503 O 0.55723 0.95052 0.75224 0.0
H504 H 0.09826 0.27553 0.0853 0.0
H505 H 0.11379 0.27239 0.09285 0.0
H506 H 0.13327 0.30498 0.13708 0.0
H507 H 0.11784 0.30817 0.12995 0.0
H508 H 0.13413 0.28479 0.05909 0.0
H509 H 0.13909 0.2862 0.2087 0.0
H510 H 0.12666 0.28412 0.18702 0.0
H511 H 0.13835 0.29772 0.19108 0.0
C512 C 0.10579 0.28197 0.09722 0.0
C513 C 0.1068 0.29211 0.10699 0.0
C514 C 0.11465 0.28015 0.10147 0.0
C515 C 0.12463 0.28839 0.11596 0.0
C516 C 0.12557 0.29842 0.12656 0.0
H517 H 0.19202 0.30835 0.13109 0.0
H518 H 0.1733 0.30497 0.13617 0.0
C519 C 0.11675 0.30025 0.12221 0.0
C520 C 0.13439 0.28697 0.11709 0.0
H521 H 0.15467 0.28903 0.17332 0.0
C522 C 0.13853 0.2855 0.08412 0.0
C523 C 0.1401 0.28792 0.14979 0.0
C524 C 0.13577 0.28897 0.18621 0.0
C525 C 0.14855 0.28559 0.08268 0.0
C526 C 0.15448 0.28697 0.11523 0.0
C527 C 0.15012 0.28799 0.1484 0.0
C528 C 0.16568 0.28842 0.11494 0.0
C529 C 0.153 0.28482 0.0461 0.0
C530 C 0.16761 0.28011 0.10223 0.0
C531 C 0.17836 0.28203 0.09915 0.0
C532 C 0.18735 0.29228 0.10887 0.0
C533 C 0.18532 0.30038 0.12311 0.0
C534 C 0.1746 0.29846 0.12614 0.0
H535 H 0.14847 0.28592 0.02325 0.0
H536 H 0.16183 0.2911 0.04365 0.0
H537 H 0.15222 0.2766 0.04327 0.0
H538 H 0.16082 0.27223 0.09406 0.0
H539 H 0.17963 0.27559 0.08827 0.0
H540 H 0.72788 0.82362 0.07758 0.0
H541 H 0.73066 0.84227 0.08029 0.0
H542 H 0.69893 0.82971 0.13075 0.0
H543 H 0.69603 0.81113 0.12792 0.0
H544 H 0.70213 0.84213 0.06665 0.0
H545 H 0.73646 0.86414 0.16494 0.0
H546 H 0.73845 0.85653 0.12932 0.0
H547 H 0.72824 0.84933 0.1636 0.0
C548 C 0.72159 0.82486 0.08993 0.0
C549 C 0.7117 0.81586 0.1023 0.0
C550 C 0.72322 0.83553 0.09156 0.0
C551 C 0.71501 0.83737 0.10586 0.0
C552 C 0.70536 0.82846 0.11963 0.0
H553 H 0.69691 0.88624 0.13116 0.0
H554 H 0.69986 0.87059 0.13404 0.0
C555 C 0.70372 0.81784 0.11796 0.0
C556 C 0.71588 0.84829 0.10335 0.0
H557 H 0.72949 0.8745 0.13663 0.0
C558 C 0.70815 0.84922 0.08183 0.0
C559 C 0.72381 0.85754 0.12288 0.0
C560 C 0.7322 0.8569 0.14672 0.0
C561 C 0.70796 0.85907 0.07992 0.0
C562 C 0.71562 0.86821 0.10046 0.0
C563 C 0.72362 0.86745 0.12104 0.0
C564 C 0.71483 0.8783 0.10243 0.0
C565 C 0.69946 0.85961 0.05627 0.0
C566 C 0.72251 0.88797 0.08473 0.0
C567 C 0.72085 0.897 0.08298 0.0
C568 C 0.71149 0.89646 0.09894 0.0
C569 C 0.70415 0.88693 0.11824 0.0
C570 C 0.70582 0.87796 0.11997 0.0
H571 H 0.6959 0.85283 0.03603 0.0
H572 H 0.69269 0.85891 0.07368 0.0
H573 H 0.70308 0.86757 0.04162 0.0
H574 H 0.72952 0.88836 0.07107 0.0
H575 H 0.72667 0.90422 0.06797 0.0
H576 H 0.11687 0.81047 0.12878 0.0
H577 H 0.13246 0.82913 0.1312 0.0
H578 H 0.11333 0.84119 0.07745 0.0
H579 H 0.09756 0.82249 0.07524 0.0
H580 H 0.14221 0.84142 0.06829 0.0
H581 H 0.12841 0.86341 0.16109 0.0
H582 H 0.12184 0.84861 0.15989 0.0
H583 H 0.11927 0.85581 0.12443 0.0
C584 C 0.11588 0.81709 0.11795 0.0
C585 C 0.10596 0.81496 0.10164 0.0
C586 C 0.12482 0.82776 0.11939 0.0
C587 C 0.12404 0.83655 0.10468 0.0
C588 C 0.11405 0.83455 0.08949 0.0
H589 H 0.17925 0.90335 0.06548 0.0
H590 H 0.16055 0.88744 0.06761 0.0
C591 C 0.10506 0.82385 0.08813 0.0
C592 C 0.13404 0.84755 0.10247 0.0
H593 H 0.14593 0.87393 0.134 0.0
C594 C 0.14299 0.84853 0.08253 0.0
C595 C 0.135 0.85685 0.12078 0.0
C596 C 0.12566 0.85617 0.143 0.0
C597 C 0.15296 0.85847 0.08106 0.0
C598 C 0.15406 0.86765 0.10036 0.0
C599 C 0.14502 0.86684 0.11932 0.0
C600 C 0.16484 0.87785 0.10291 0.0
C601 C 0.16234 0.85904 0.05929 0.0
C602 C 0.17329 0.87781 0.12295 0.0
C603 C 0.18391 0.88681 0.12179 0.0
C604 C 0.18631 0.89607 0.10054 0.0
C605 C 0.17768 0.89635 0.08206 0.0
C606 C 0.167 0.88728 0.08324 0.0
H607 H 0.1595 0.85209 0.03986 0.0
H608 H 0.16666 0.86688 0.0439 0.0
H609 H 0.16834 0.85872 0.07812 0.0
H610 H 0.17173 0.87062 0.1385 0.0
H611 H 0.19031 0.88634 0.13665 0.0
H612 H 0.27429 0.09711 0.93861 0.0
H613 H 0.27033 0.11217 0.93342 0.0
H614 H 0.30085 0.13159 0.87612 0.0
H615 H 0.30486 0.11665 0.88101 0.0
H616 H 0.28388 0.13335 0.96253 0.0
H617 H 0.27867 0.1354 0.81403 0.0
H618 H 0.27762 0.12342 0.83606 0.0
H619 H 0.29087 0.13502 0.82573 0.0
C620 C 0.28007 0.10451 0.92434 0.0
C621 C 0.2899 0.10567 0.91027 0.0
C622 C 0.27779 0.11311 0.92146 0.0
C623 C 0.28523 0.12294 0.90399 0.0
C624 C 0.29489 0.12399 0.88907 0.0
H625 H 0.30482 0.18958 0.88052 0.0
H626 H 0.30062 0.17059 0.87683 0.0
C627 C 0.29721 0.11546 0.89213 0.0
C628 C 0.28348 0.1325 0.90408 0.0
H629 H 0.283 0.15165 0.84825 0.0
C630 C 0.28345 0.13725 0.93761 0.0
C631 C 0.28292 0.13755 0.87151 0.0
C632 C 0.28241 0.13253 0.83479 0.0
C633 C 0.28361 0.14731 0.93942 0.0
C634 C 0.28357 0.15263 0.90675 0.0
C635 C 0.28304 0.14758 0.87326 0.0
C636 C 0.28535 0.16396 0.90666 0.0
C637 C 0.28451 0.15249 0.97617 0.0
C638 C 0.278 0.16654 0.92387 0.0
C639 C 0.28041 0.17747 0.92621 0.0
C640 C 0.29019 0.18599 0.91123 0.0
C641 C 0.29726 0.18327 0.89261 0.0
C642 C 0.29485 0.17239 0.89036 0.0
H643 H 0.28649 0.1483 0.99808 0.0
H644 H 0.29095 0.1613 0.97583 0.0
H645 H 0.27658 0.15195 0.98299 0.0
H646 H 0.27051 0.16012 0.93604 0.0
H647 H 0.27477 0.17927 0.94056 0.0
H648 H 0.81096 0.11788 0.88586 0.0
H649 H 0.82939 0.13377 0.88191 0.0
H650 H 0.8428 0.115 0.92967 0.0
H651 H 0.82431 0.09892 0.93349 0.0
H652 H 0.84252 0.14336 0.94414 0.0
H653 H 0.86363 0.13088 0.8428 0.0
H654 H 0.84885 0.12411 0.84627 0.0
H655 H 0.85659 0.12141 0.87931 0.0
C656 C 0.81782 0.11703 0.89506 0.0
C657 C 0.81613 0.10712 0.91017 0.0
C658 C 0.82836 0.12615 0.89274 0.0
C659 C 0.83747 0.12555 0.9053 0.0
C660 C 0.8359 0.11558 0.91929 0.0
H661 H 0.90488 0.18028 0.9351 0.0
H662 H 0.8888 0.16171 0.93247 0.0
C663 C 0.82532 0.10642 0.92159 0.0
C664 C 0.84837 0.13569 0.90659 0.0
H665 H 0.87427 0.14825 0.87067 0.0
C666 C 0.84947 0.14441 0.92815 0.0
C667 C 0.85745 0.13698 0.88601 0.0
C668 C 0.85662 0.1279 0.86204 0.0
C669 C 0.85932 0.15447 0.92921 0.0
C670 C 0.86828 0.15592 0.90768 0.0
C671 C 0.86735 0.1471 0.88698 0.0
C672 C 0.87842 0.16677 0.90522 0.0
C673 C 0.86005 0.16351 0.95328 0.0
C674 C 0.87799 0.17564 0.88965 0.0
C675 C 0.88709 0.1862 0.89114 0.0
C676 C 0.89686 0.18812 0.90813 0.0
C677 C 0.89748 0.1791 0.9219 0.0
C678 C 0.88831 0.16849 0.92043 0.0
H679 H 0.85358 0.16027 0.97458 0.0
H680 H 0.86821 0.16802 0.9667 0.0
H681 H 0.85897 0.16945 0.93641 0.0
H682 H 0.87046 0.17443 0.87735 0.0
H683 H 0.88633 0.19292 0.87991 0.0
H684 H 0.82248 0.72595 0.93111 0.0
H685 H 0.84138 0.72963 0.92471 0.0
H686 H 0.82934 0.69751 0.87784 0.0
H687 H 0.81052 0.69378 0.88383 0.0
H688 H 0.84957 0.71732 0.95799 0.0
H689 H 0.85422 0.71728 0.80854 0.0
H690 H 0.84356 0.71892 0.82993 0.0
H691 H 0.84195 0.70547 0.82465 0.0
C692 C 0.82386 0.71974 0.91885 0.0
C693 C 0.81497 0.70956 0.90801 0.0
C694 C 0.83467 0.72186 0.91527 0.0
C695 C 0.83677 0.7139 0.90035 0.0
C696 C 0.82793 0.70386 0.88871 0.0
H697 H 0.88444 0.69447 0.8861 0.0
H698 H 0.86913 0.69788 0.88084 0.0
C699 C 0.81715 0.70171 0.89242 0.0
C700 C 0.84807 0.71561 0.89978 0.0
H701 H 0.86678 0.71419 0.84421 0.0
C702 C 0.85346 0.71687 0.93307 0.0
C703 C 0.8531 0.715 0.86723 0.0
C704 C 0.84796 0.7142 0.83052 0.0
C705 C 0.86343 0.71686 0.93493 0.0
C706 C 0.86823 0.71577 0.90249 0.0
C707 C 0.86308 0.71501 0.86904 0.0
C708 C 0.87797 0.71431 0.90311 0.0
C709 C 0.86842 0.71739 0.97174 0.0
C710 C 0.88813 0.72253 0.91654 0.0
C711 C 0.89696 0.7206 0.9197 0.0
C712 C 0.89575 0.71041 0.90938 0.0
C713 C 0.88567 0.70239 0.89454 0.0
C714 C 0.87689 0.70433 0.89141 0.0
H715 H 0.86267 0.71617 0.99431 0.0
H716 H 0.87092 0.71106 0.97399 0.0
H717 H 0.87587 0.72556 0.97525 0.0
H718 H 0.88919 0.73037 0.92514 0.0
H719 H 0.90461 0.72698 0.93106 0.0
H720 H 0.8575 0.6393 0.46453 0.0
H721 H 0.83879 0.63583 0.4709 0.0
H722 H 0.82633 0.60395 0.42161 0.0
H723 H 0.84513 0.6074 0.41465 0.0
H724 H 0.81836 0.61636 0.38973 0.0
H725 H 0.81378 0.61637 0.5391 0.0
H726 H 0.82609 0.62821 0.52342 0.0
H727 H 0.82445 0.61476 0.51769 0.0
C728 C 0.85079 0.63147 0.45549 0.0
C729 C 0.85284 0.62363 0.43899 0.0
C730 C 0.84008 0.62946 0.45945 0.0
C731 C 0.83114 0.61957 0.44724 0.0
C732 C 0.8331 0.61161 0.43149 0.0
H733 H 0.76363 0.60737 0.41792 0.0
H734 H 0.77895 0.60384 0.42388 0.0
C735 C 0.84386 0.61359 0.42759 0.0
C736 C 0.81993 0.61808 0.44793 0.0
H737 H 0.80152 0.62001 0.5036 0.0
C738 C 0.81455 0.61692 0.41467 0.0
C739 C 0.81499 0.61883 0.48052 0.0
C740 C 0.82008 0.6195 0.51723 0.0
C741 C 0.80469 0.61715 0.41289 0.0
C742 C 0.80001 0.6184 0.44534 0.0
C743 C 0.80514 0.61908 0.47876 0.0
C744 C 0.79037 0.62 0.44474 0.0
C745 C 0.79969 0.61667 0.37613 0.0
C746 C 0.7916 0.63011 0.45574 0.0
C747 C 0.78287 0.63214 0.45253 0.0
C748 C 0.7727 0.62407 0.43836 0.0
C749 C 0.77136 0.61378 0.42875 0.0
C750 C 0.78012 0.61176 0.43196 0.0
H751 H 0.80536 0.61771 0.35348 0.0
H752 H 0.79212 0.60858 0.37284 0.0
H753 H 0.79739 0.62314 0.37381 0.0
H754 H 0.79943 0.63657 0.46579 0.0
H755 H 0.7842 0.64013 0.46039 0.0
H756 H 0.3948 0.15641 0.41292 0.0
H757 H 0.39884 0.17545 0.41845 0.0
H758 H 0.3674 0.16421 0.46956 0.0
H759 H 0.36331 0.14525 0.46436 0.0
H760 H 0.38611 0.18347 0.38626 0.0
H761 H 0.3884 0.18969 0.5353 0.0
H762 H 0.38972 0.17881 0.51408 0.0
H763 H 0.37636 0.17726 0.52146 0.0
C764 C 0.38883 0.158 0.42595 0.0
C765 C 0.37872 0.14929 0.43815 0.0
C766 C 0.39116 0.16889 0.42902 0.0
C767 C 0.38349 0.17125 0.44483 0.0
C768 C 0.37353 0.1626 0.45795 0.0
H769 H 0.36341 0.21803 0.46065 0.0
H770 H 0.36756 0.20324 0.46611 0.0
C771 C 0.37118 0.15174 0.45469 0.0
C772 C 0.38531 0.18259 0.4447 0.0
H773 H 0.38467 0.20183 0.49965 0.0
C774 C 0.38604 0.18762 0.41104 0.0
C775 C 0.38522 0.18797 0.47708 0.0
C776 C 0.38499 0.1832 0.51405 0.0
C777 C 0.38594 0.19754 0.40877 0.0
C778 C 0.38529 0.20265 0.44113 0.0
C779 C 0.38514 0.19789 0.47487 0.0
C780 C 0.38349 0.21218 0.44035 0.0
C781 C 0.38581 0.2021 0.37171 0.0
C782 C 0.39121 0.22226 0.42486 0.0
C783 C 0.38884 0.2308 0.42153 0.0
C784 C 0.37872 0.22937 0.43376 0.0
C785 C 0.37125 0.21941 0.45068 0.0
C786 C 0.37361 0.21093 0.45395 0.0
H787 H 0.38437 0.19615 0.34958 0.0
H788 H 0.37933 0.20441 0.37028 0.0
H789 H 0.39384 0.2096 0.36671 0.0
H790 H 0.39897 0.22346 0.41477 0.0
H791 H 0.3948 0.23838 0.40854 0.0
H792 H 0.84475 0.23667 0.4132 0.0
H793 H 0.82635 0.22046 0.41778 0.0
H794 H 0.84018 0.20228 0.46711 0.0
H795 H 0.85851 0.2183 0.46253 0.0
H796 H 0.82716 0.19254 0.40376 0.0
H797 H 0.80559 0.20436 0.5055 0.0
H798 H 0.81275 0.21396 0.46936 0.0
H799 H 0.82039 0.2112 0.50261 0.0
C800 C 0.84385 0.22929 0.42566 0.0
C801 C 0.85312 0.22877 0.43727 0.0
C802 C 0.83332 0.22005 0.42837 0.0
C803 C 0.83191 0.21019 0.44295 0.0
C804 C 0.8411 0.20981 0.45583 0.0
H805 H 0.78358 0.14223 0.46415 0.0
H806 H 0.79946 0.16071 0.46765 0.0
C807 C 0.85158 0.21899 0.45313 0.0
C808 C 0.82112 0.19994 0.44167 0.0
H809 H 0.79525 0.18693 0.47778 0.0
C810 C 0.82018 0.19133 0.41989 0.0
C811 C 0.812 0.19845 0.46241 0.0
C812 C 0.81267 0.20743 0.48653 0.0
C813 C 0.81042 0.18118 0.41868 0.0
C814 C 0.80142 0.17952 0.4404 0.0
C815 C 0.80221 0.18823 0.46138 0.0
C816 C 0.79132 0.16861 0.44239 0.0
C817 C 0.80984 0.1723 0.39409 0.0
C818 C 0.78133 0.16701 0.42851 0.0
C819 C 0.77217 0.15641 0.4266 0.0
C820 C 0.77288 0.14728 0.43858 0.0
C821 C 0.78276 0.14905 0.45429 0.0
C822 C 0.79186 0.1596 0.45626 0.0
H823 H 0.81621 0.17574 0.37248 0.0
H824 H 0.81122 0.16647 0.41046 0.0
H825 H 0.80164 0.16764 0.38101 0.0
H826 H 0.78075 0.17388 0.41783 0.0
H827 H 0.76468 0.15535 0.41445 0.0
H828 H 0.97356 0.52381 0.21524 0.0
H829 H 0.96996 0.50503 0.20958 0.0
H830 H 0.93857 0.49299 0.26203 0.0
H831 H 0.94216 0.51187 0.26823 0.0
H832 H 0.95128 0.48514 0.29291 0.0
H833 H 0.9497 0.47964 0.14368 0.0
H834 H 0.96169 0.49205 0.1579 0.0
H835 H 0.9483 0.49043 0.16515 0.0
C836 C 0.96581 0.51718 0.22513 0.0
C837 C 0.95816 0.51937 0.24226 0.0
C838 C 0.96372 0.50642 0.22159 0.0
C839 C 0.95393 0.49759 0.23488 0.0
C840 C 0.94614 0.49969 0.2513 0.0
H841 H 0.94205 0.43021 0.26598 0.0
H842 H 0.93842 0.44548 0.26046 0.0
C843 C 0.9482 0.51048 0.25476 0.0
C844 C 0.95239 0.48635 0.23453 0.0
H845 H 0.95369 0.46759 0.17892 0.0
C846 C 0.95157 0.48117 0.26796 0.0
C847 C 0.95277 0.4812 0.20194 0.0
C848 C 0.95305 0.48607 0.16512 0.0
C849 C 0.9518 0.47132 0.26984 0.0
C850 C 0.95271 0.46644 0.23734 0.0
C851 C 0.95303 0.47136 0.2038 0.0
C852 C 0.95436 0.45682 0.23787 0.0
C853 C 0.95171 0.46653 0.30669 0.0
C854 C 0.96437 0.45802 0.22583 0.0
C855 C 0.96645 0.44934 0.22881 0.0
C856 C 0.95855 0.43922 0.24377 0.0
C857 C 0.94834 0.43789 0.25449 0.0
C858 C 0.94627 0.44662 0.25154 0.0
H859 H 0.95292 0.47232 0.32916 0.0
H860 H 0.94368 0.45895 0.31086 0.0
H861 H 0.95823 0.46429 0.30837 0.0
H862 H 0.97071 0.46582 0.21509 0.0
H863 H 0.97438 0.45065 0.22008 0.0
H864 H 0.57152 0.51142 0.26513 0.0
H865 H 0.55616 0.49262 0.25782 0.0
H866 H 0.53654 0.5052 0.21093 0.0
H867 H 0.55178 0.52389 0.2176 0.0
H868 H 0.53594 0.48437 0.29038 0.0
H869 H 0.5308 0.48056 0.14107 0.0
H870 H 0.54313 0.49119 0.16242 0.0
H871 H 0.53123 0.49275 0.1578 0.0
C872 C 0.564 0.51017 0.25265 0.0
C873 C 0.56289 0.51918 0.24198 0.0
C874 C 0.55523 0.49942 0.24854 0.0
C875 C 0.54526 0.49749 0.23333 0.0
C876 C 0.54424 0.50646 0.22192 0.0
H877 H 0.47772 0.45079 0.22288 0.0
H878 H 0.49652 0.46599 0.21702 0.0
C879 C 0.55295 0.51717 0.22605 0.0
C880 C 0.53555 0.48627 0.23239 0.0
H881 H 0.51498 0.46815 0.17677 0.0
C882 C 0.53147 0.4807 0.26546 0.0
C883 C 0.52974 0.48149 0.19984 0.0
C884 C 0.53401 0.48676 0.16324 0.0
C885 C 0.5214 0.47082 0.26717 0.0
C886 C 0.51533 0.46633 0.23483 0.0
C887 C 0.51964 0.47164 0.20154 0.0
C888 C 0.50406 0.45671 0.23553 0.0
C889 C 0.51702 0.4656 0.30379 0.0
C890 C 0.50208 0.44635 0.24702 0.0
C891 C 0.4913 0.4376 0.25045 0.0
C892 C 0.48233 0.43908 0.24241 0.0
C893 C 0.48441 0.44937 0.22952 0.0
C894 C 0.49516 0.45807 0.22605 0.0
H895 H 0.52182 0.47109 0.32661 0.0
H896 H 0.5083 0.46338 0.30687 0.0
H897 H 0.51744 0.45795 0.30598 0.0
H898 H 0.50885 0.4451 0.25395 0.0
H899 H 0.49 0.42978 0.26029 0.0
H900 H 0.57125 0.05863 0.26588 0.0
H901 H 0.55529 0.06126 0.26219 0.0
H902 H 0.53644 0.02944 0.21207 0.0
H903 H 0.55221 0.02668 0.21587 0.0
H904 H 0.54093 0.05998 0.20195 0.0
H905 H 0.51962 0.0278 0.30697 0.0
H906 H 0.53419 0.03418 0.29868 0.0
H907 H 0.52461 0.02348 0.26913 0.0
C908 C 0.56376 0.05225 0.2536 0.0
C909 C 0.56297 0.04237 0.24162 0.0
C910 C 0.55466 0.05378 0.25151 0.0
C911 C 0.54466 0.04546 0.23745 0.0
C912 C 0.54405 0.03588 0.22359 0.0
H913 H 0.47765 0.02817 0.21569 0.0
H914 H 0.496 0.03053 0.21128 0.0
C915 C 0.55308 0.03433 0.22575 0.0
C916 C 0.53461 0.04636 0.23925 0.0
H917 H 0.50879 0.03373 0.27528 0.0
C918 C 0.53392 0.05433 0.21821 0.0
C919 C 0.52554 0.03904 0.2608 0.0
C920 C 0.52602 0.0307 0.28547 0.0
C921 C 0.52416 0.05482 0.21691 0.0
C922 C 0.51498 0.0472 0.23742 0.0
C923 C 0.51583 0.03949 0.25931 0.0
C924 C 0.5042 0.04668 0.23574 0.0
C925 C 0.52359 0.06318 0.19273 0.0
C926 C 0.50275 0.05509 0.25033 0.0
C927 C 0.4922 0.05377 0.25292 0.0
C928 C 0.48296 0.04397 0.2412 0.0
C929 C 0.48455 0.03579 0.2252 0.0
C930 C 0.49505 0.03712 0.22259 0.0
H931 H 0.53075 0.06723 0.17408 0.0
H932 H 0.51594 0.05925 0.17631 0.0
H933 H 0.52344 0.06959 0.20986 0.0
H934 H 0.50969 0.06247 0.2611 0.0
H935 H 0.49126 0.06022 0.2655 0.0
H936 H 0.45115 0.97458 0.79705 0.0
H937 H 0.46625 0.97084 0.80219 0.0
H938 H 0.44555 0.9382 0.75996 0.0
H939 H 0.43033 0.94191 0.75418 0.0
H940 H 0.46844 0.95445 0.83939 0.0
H941 H 0.47174 0.95175 0.68919 0.0
H942 H 0.46379 0.95718 0.70971 0.0
H943 H 0.45857 0.94263 0.70903 0.0
C944 C 0.44973 0.96656 0.78907 0.0
C945 C 0.43954 0.95858 0.77482 0.0
C946 C 0.45839 0.96443 0.79214 0.0
C947 C 0.45708 0.95431 0.78093 0.0
C948 C 0.44679 0.94614 0.76817 0.0
H949 H 0.51161 0.94138 0.75016 0.0
H950 H 0.49287 0.93807 0.75746 0.0
C951 C 0.43809 0.94826 0.76508 0.0
C952 C 0.4667 0.95266 0.78121 0.0
H953 H 0.48485 0.95047 0.725 0.0
C954 C 0.47196 0.95345 0.81444 0.0
C955 C 0.47126 0.95132 0.74862 0.0
C956 C 0.46613 0.95074 0.71202 0.0
C957 C 0.48184 0.95324 0.81584 0.0
C958 C 0.48665 0.9524 0.7831 0.0
C959 C 0.48113 0.95111 0.75006 0.0
C960 C 0.49785 0.95386 0.78202 0.0
C961 C 0.48709 0.95405 0.85234 0.0
C962 C 0.50686 0.96382 0.79346 0.0
C963 C 0.51755 0.96575 0.78928 0.0
C964 C 0.51948 0.95777 0.77335 0.0
C965 C 0.51042 0.94769 0.76265 0.0
C966 C 0.49971 0.94578 0.76675 0.0
H967 H 0.48091 0.95108 0.87457 0.0
H968 H 0.49141 0.94926 0.8528 0.0
H969 H 0.49319 0.96278 0.85796 0.0
H970 H 0.50565 0.97027 0.80455 0.0
H971 H 0.52431 0.97361 0.79776 0.0
H972 H 0.02817 0.55136 0.7985 0.0
H973 H 0.03062 0.53542 0.80262 0.0
H974 H 0.06252 0.55383 0.75264 0.0
H975 H 0.06018 0.56995 0.74848 0.0
H976 H 0.03401 0.52594 0.73818 0.0
H977 H 0.06733 0.53761 0.84014 0.0
H978 H 0.05919 0.54428 0.83798 0.0
H979 H 0.06963 0.54733 0.80456 0.0
C980 C 0.0358 0.55212 0.78888 0.0
C981 C 0.04395 0.56194 0.77291 0.0
C982 C 0.03719 0.54299 0.79132 0.0
C983 C 0.04676 0.54346 0.77808 0.0
C984 C 0.05513 0.55335 0.76347 0.0
H985 H 0.05944 0.48883 0.74845 0.0
H986 H 0.06186 0.50734 0.75217 0.0
C987 C 0.05376 0.56254 0.76101 0.0
C988 C 0.04737 0.53326 0.7764 0.0
H989 H 0.06024 0.52022 0.81217 0.0
C990 C 0.03976 0.5247 0.75429 0.0
C991 C 0.05498 0.53174 0.7971 0.0
C992 C 0.06323 0.54067 0.82152 0.0
C993 C 0.03941 0.51458 0.75274 0.0
C994 C 0.04673 0.51288 0.77447 0.0
C995 C 0.05459 0.52154 0.79576 0.0
C996 C 0.04593 0.50198 0.77621 0.0
C997 C 0.03119 0.50577 0.72779 0.0
C998 C 0.03635 0.49293 0.78967 0.0
C999 C 0.03492 0.48238 0.78749 0.0
C1000 C 0.04309 0.48068 0.772 0.0
C1001 C 0.05297 0.48985 0.76042 0.0
C1002 C 0.05437 0.50043 0.76252 0.0
H1003 H 0.02832 0.50927 0.70619 0.0
H1004 H 0.03476 0.50114 0.7147 0.0
H1005 H 0.02393 0.49989 0.74389 0.0
H1006 H 0.02981 0.49398 0.80092 0.0
H1007 H 0.02726 0.47554 0.79706 0.0
H1008 H 0.43135 0.48872 0.74424 0.0
H1009 H 0.4474 0.50728 0.7471 0.0
H1010 H 0.46573 0.49453 0.80214 0.0
H1011 H 0.44987 0.47603 0.79926 0.0
H1012 H 0.4615 0.52074 0.80782 0.0
H1013 H 0.48312 0.50892 0.70696 0.0
H1014 H 0.46848 0.50092 0.71435 0.0
H1015 H 0.47778 0.49983 0.74534 0.0
C1016 C 0.43875 0.48989 0.75741 0.0
C1017 C 0.43936 0.48086 0.7711 0.0
C1018 C 0.4479 0.5005 0.75902 0.0
C1019 C 0.45778 0.50222 0.77428 0.0
C1020 C 0.45822 0.49333 0.78973 0.0
H1021 H 0.52483 0.55161 0.79816 0.0
H1022 H 0.5064 0.53571 0.80173 0.0
C1023 C 0.44912 0.48276 0.78808 0.0
C1024 C 0.46789 0.51311 0.77222 0.0
H1025 H 0.49389 0.52587 0.73768 0.0
C1026 C 0.46857 0.52193 0.79224 0.0
C1027 C 0.47703 0.51463 0.75156 0.0
C1028 C 0.47658 0.50562 0.72803 0.0
C1029 C 0.47838 0.53212 0.79345 0.0
C1030 C 0.48763 0.53349 0.77386 0.0
C1031 C 0.4868 0.52476 0.75294 0.0
C1032 C 0.49847 0.54368 0.77564 0.0
C1033 C 0.47893 0.54123 0.81662 0.0
C1034 C 0.50009 0.55354 0.76033 0.0
C1035 C 0.51068 0.56271 0.75823 0.0
C1036 C 0.5198 0.56213 0.77116 0.0
C1037 C 0.51803 0.55236 0.78774 0.0
C1038 C 0.50749 0.54324 0.78985 0.0
H1039 H 0.4717 0.53828 0.83489 0.0
H1040 H 0.48651 0.54502 0.83339 0.0
H1041 H 0.4792 0.54772 0.79874 0.0
H1042 H 0.49326 0.554 0.74872 0.0
H1043 H 0.51176 0.57009 0.74518 0.0
H1044 H 0.63907 0.85711 0.54846 0.0
H1045 H 0.63601 0.83848 0.54568 0.0
H1046 H 0.60673 0.82688 0.61052 0.0
H1047 H 0.60969 0.84562 0.61346 0.0
H1048 H 0.63496 0.82681 0.61226 0.0
H1049 H 0.59793 0.80404 0.5247 0.0
H1050 H 0.60652 0.81881 0.52265 0.0
H1051 H 0.5975 0.81253 0.5606 0.0
C1052 C 0.63187 0.85061 0.56175 0.0
C1053 C 0.62467 0.8529 0.58144 0.0
C1054 C 0.63013 0.83995 0.56004 0.0
C1055 C 0.62113 0.83131 0.57777 0.0
C1056 C 0.61365 0.83343 0.59627 0.0
H1057 H 0.60949 0.76424 0.6075 0.0
H1058 H 0.60678 0.78019 0.60652 0.0
C1059 C 0.61538 0.84414 0.598 0.0
C1060 C 0.62033 0.82041 0.57958 0.0
H1061 H 0.60612 0.79411 0.54743 0.0
C1062 C 0.62861 0.81964 0.59826 0.0
C1063 C 0.61198 0.81107 0.56164 0.0
C1064 C 0.60297 0.81157 0.54105 0.0
C1065 C 0.62893 0.80985 0.59881 0.0
C1066 C 0.62087 0.80062 0.57951 0.0
C1067 C 0.61233 0.80123 0.56193 0.0
C1068 C 0.62162 0.79052 0.57615 0.0
C1069 C 0.63795 0.80947 0.61988 0.0
C1070 C 0.63063 0.79094 0.55824 0.0
C1071 C 0.63222 0.78192 0.55883 0.0
C1072 C 0.62479 0.77223 0.57717 0.0
C1073 C 0.61539 0.77159 0.59321 0.0
C1074 C 0.61382 0.78068 0.5927 0.0
H1075 H 0.6416 0.81607 0.64071 0.0
H1076 H 0.63484 0.80142 0.63359 0.0
H1077 H 0.64458 0.81065 0.60083 0.0
H1078 H 0.63664 0.79841 0.5448 0.0
H1079 H 0.63948 0.78267 0.54583 0.0
H1080 H 0.14488 0.7835 0.55512 0.0
H1081 H 0.16346 0.7992 0.55238 0.0
H1082 H 0.17607 0.77988 0.60139 0.0
H1083 H 0.15742 0.764 0.60402 0.0
H1084 H 0.1762 0.8084 0.61586 0.0
H1085 H 0.19758 0.79583 0.51587 0.0
H1086 H 0.18279 0.7893 0.51806 0.0
H1087 H 0.19012 0.78627 0.55176 0.0
C1088 C 0.1516 0.7825 0.56484 0.0
C1089 C 0.14963 0.77249 0.57998 0.0
C1090 C 0.16222 0.79149 0.56322 0.0
C1091 C 0.17114 0.79069 0.57651 0.0
C1092 C 0.16931 0.78062 0.59048 0.0
H1093 H 0.23811 0.84594 0.61257 0.0
H1094 H 0.2223 0.82719 0.60986 0.0
C1095 C 0.15865 0.77157 0.59208 0.0
C1096 C 0.18211 0.80071 0.57862 0.0
H1097 H 0.20816 0.81317 0.54392 0.0
C1098 C 0.18319 0.80941 0.60027 0.0
C1099 C 0.19125 0.80196 0.55853 0.0
C1100 C 0.19044 0.79289 0.53451 0.0
C1101 C 0.19309 0.81943 0.60175 0.0
C1102 C 0.2021 0.82084 0.58067 0.0
C1103 C 0.20119 0.81204 0.55995 0.0
C1104 C 0.2122 0.8317 0.57819 0.0
C1105 C 0.19379 0.82852 0.62547 0.0
C1106 C 0.21183 0.8403 0.5603 0.0
C1107 C 0.22077 0.85095 0.56181 0.0
C1108 C 0.2303 0.85324 0.58123 0.0
C1109 C 0.23089 0.84447 0.59744 0.0
C1110 C 0.22189 0.83376 0.59593 0.0
H1111 H 0.18707 0.82539 0.64589 0.0
H1112 H 0.20179 0.8328 0.6399 0.0
H1113 H 0.19314 0.83464 0.60814 0.0
H1114 H 0.20444 0.83883 0.54624 0.0
H1115 H 0.22004 0.85746 0.5487 0.0
H1116 H 0.23785 0.39376 0.5944 0.0
H1117 H 0.2223 0.39688 0.58681 0.0
H1118 H 0.20223 0.36362 0.54877 0.0
H1119 H 0.21768 0.36048 0.55559 0.0
H1120 H 0.19937 0.37889 0.50855 0.0
H1121 H 0.19628 0.38402 0.65749 0.0
H1122 H 0.20932 0.39317 0.63694 0.0
H1123 H 0.20457 0.37871 0.63891 0.0
C1124 C 0.23016 0.38714 0.58407 0.0
C1125 C 0.229 0.37683 0.57594 0.0
C1126 C 0.22126 0.38892 0.57995 0.0
C1127 C 0.21106 0.38041 0.56782 0.0
C1128 C 0.21002 0.37028 0.55831 0.0
H1129 H 0.14335 0.35999 0.55092 0.0
H1130 H 0.16201 0.36324 0.54449 0.0
C1131 C 0.21888 0.3685 0.56234 0.0
C1132 C 0.20126 0.38177 0.56632 0.0
H1133 H 0.18303 0.38459 0.62019 0.0
C1134 C 0.19585 0.38025 0.53289 0.0
C1135 C 0.19669 0.38356 0.59811 0.0
C1136 C 0.20193 0.38488 0.63499 0.0
C1137 C 0.18587 0.38022 0.53053 0.0
C1138 C 0.1811 0.38159 0.56253 0.0
C1139 C 0.18672 0.38355 0.5957 0.0
C1140 C 0.16989 0.38011 0.56289 0.0
C1141 C 0.18046 0.37861 0.49387 0.0
C1142 C 0.1681 0.3885 0.57555 0.0
C1143 C 0.15741 0.38666 0.57938 0.0
C1144 C 0.1483 0.37634 0.57104 0.0
C1145 C 0.15016 0.36805 0.55753 0.0
C1146 C 0.16083 0.36991 0.55359 0.0
H1147 H 0.18653 0.38108 0.47142 0.0
H1148 H 0.17431 0.36979 0.49023 0.0
H1149 H 0.17616 0.3834 0.49165 0.0
H1150 H 0.17498 0.39641 0.58314 0.0
H1151 H 0.15629 0.39322 0.58996 0.0
H1152 H 0.04125 0.2765 0.09394 0.0
H1153 H 0.02184 0.2657 0.07685 0.0
H1154 H 0.03044 0.25198 0.98628 0.0
H1155 H 0.0497 0.26239 1.00384 0.0
H1156 H 0.01231 0.26699 0.01628 0.0
H1157 H 0.00524 0.22472 0.02734 0.0
H1158 H 0.01734 0.23643 0.04555 0.0
H1159 H 0.01658 0.23305 0.99797 0.0
C1160 C 0.03897 0.27101 0.07083 0.0
C1161 C 0.04702 0.27026 0.05043 0.0
C1162 C 0.02788 0.26488 0.06099 0.0
C1163 C 0.02463 0.25789 0.03055 0.0
C1164 C 0.03266 0.25705 0.01044 0.0
H1165 H 0.96325 0.23727 0.91258 0.0
H1166 H 0.98263 0.24584 0.93011 0.0
C1167 C 0.04371 0.26308 0.02045 0.0
C1168 C 0.01298 0.25203 0.01837 0.0
H1169 H 0.99181 0.22683 0.99395 0.0
C1170 C 0.0078 0.2582 0.01166 0.0
C1171 C 0.00703 0.24053 0.01263 0.0
C1172 C 0.0118 0.23329 0.02162 0.0
C1173 C 0.99693 0.25323 0.99901 0.0
C1174 C 0.99116 0.24181 0.99172 0.0
C1175 C 0.99628 0.23562 0.99889 0.0
C1176 C 0.97958 0.23601 0.97872 0.0
C1177 C 0.99167 0.26025 0.99454 0.0
C1178 C 0.97149 0.22722 0.99894 0.0
C1179 C 0.96048 0.22217 0.98856 0.0
C1180 C 0.95728 0.22583 0.95777 0.0
C1181 C 0.96543 0.23431 0.93656 0.0
C1182 C 0.9765 0.23929 0.94679 0.0
H1183 H 0.99601 0.26795 0.01067 0.0
H1184 H 0.99206 0.26257 0.9655 0.0
H1185 H 0.98292 0.25574 1.00302 0.0
H1186 H 0.97365 0.22448 0.02352 0.0
H1187 H 0.95442 0.21566 1.00554 0.0
H1188 H 0.76119 0.72127 0.92637 0.0
H1189 H 0.7527 0.73202 0.9451 0.0
H1190 H 0.78206 0.75419 1.00414 0.0
H1191 H 0.79048 0.74336 0.98628 0.0
H1192 H 0.76399 0.74709 0.04576 0.0
H1193 H 0.75723 0.7615 0.9131 0.0
H1194 H 0.7514 0.74688 0.91525 0.0
H1195 H 0.76605 0.75568 0.918 0.0
C1196 C 0.76592 0.72857 0.94268 0.0
C1197 C 0.77651 0.73146 0.95481 0.0
C1198 C 0.76106 0.73473 0.95333 0.0
C1199 C 0.76677 0.74397 0.97585 0.0
C1200 C 0.77749 0.74709 0.98681 0.0
H1201 H 0.74522 0.79066 0.02417 0.0
H1202 H 0.75566 0.78181 1.00626 0.0
C1203 C 0.78232 0.74091 0.97643 0.0
C1204 C 0.76134 0.74997 0.99008 0.0
H1205 H 0.74821 0.76377 0.9644 0.0
C1206 C 0.7606 0.7508 0.02796 0.0
C1207 C 0.757 0.75489 0.96689 0.0
C1208 C 0.75804 0.7548 0.92606 0.0
C1209 C 0.75553 0.7563 0.04328 0.0
C1210 C 0.75086 0.76089 0.02008 0.0
C1211 C 0.75172 0.76018 0.98221 0.0
C1212 C 0.7451 0.76656 0.03432 0.0
C1213 C 0.75541 0.75729 0.08412 0.0
C1214 C 0.7358 0.76102 0.05671 0.0
C1215 C 0.72988 0.76612 0.0674 0.0
C1216 C 0.73306 0.7768 0.05541 0.0
C1217 C 0.74255 0.78243 0.0339 0.0
C1218 C 0.74851 0.77737 0.0235 0.0
H1219 H 0.76196 0.75625 0.09714 0.0
H1220 H 0.75649 0.76537 0.09229 0.0
H1221 H 0.74739 0.75076 0.09477 0.0
H1222 H 0.73288 0.7526 0.06482 0.0
H1223 H 0.72253 0.76151 0.08361 0.0
H1224 H 0.23499 0.96202 0.09842 0.0
H1225 H 0.2432 0.98145 0.08194 0.0
H1226 H 0.22345 0.97237 0.9846 0.0
H1227 H 0.21502 0.95308 1.00133 0.0
H1228 H 0.25545 0.99134 0.02329 0.0
H1229 H 0.21914 0.9968 0.0213 0.0
H1230 H 0.21881 0.98493 0.04144 0.0
H1231 H 0.21728 0.98561 0.99302 0.0
C1232 C 0.23223 0.96419 0.07393 0.0
C1233 C 0.22431 0.95599 0.0513 0.0
C1234 C 0.23696 0.97529 0.06445 0.0
C1235 C 0.23385 0.9784 0.03223 0.0
C1236 C 0.22579 0.97023 0.01003 0.0
H1237 H 0.27532 0.04007 0.91731 0.0
H1238 H 0.2646 0.02067 0.93468 0.0
C1239 C 0.22101 0.95917 0.01959 0.0
C1240 C 0.23957 0.99008 0.02038 0.0
H1241 H 0.23525 0.01071 0.99147 0.0
C1242 C 0.25104 0.9956 0.0166 0.0
C1243 C 0.23383 0.99568 0.01189 0.0
C1244 C 0.2216 0.99049 0.01747 0.0
C1245 C 0.25691 0.00649 1.00413 0.0
C1246 C 0.25113 0.01194 0.99416 0.0
C1247 C 0.23967 0.00648 0.99848 0.0
C1248 C 0.25687 0.0235 0.98115 0.0
C1249 C 0.26929 0.01213 1.00259 0.0
C1250 C 0.25564 0.03146 1.00021 0.0
C1251 C 0.26159 0.04249 0.98997 0.0
C1252 C 0.26894 0.04583 0.96045 0.0
C1253 C 0.26979 0.03778 0.9403 0.0
C1254 C 0.26374 0.0267 0.95043 0.0
H1255 H 0.27252 0.00796 0.02017 0.0
H1256 H 0.27188 0.01192 0.97424 0.0
H1257 H 0.27309 0.02084 0.01123 0.0
H1258 H 0.25033 0.02919 0.02382 0.0
H1259 H 0.26071 0.04845 1.00609 0.0
H1260 H 0.95332 0.74057 1.00577 0.0
H1261 H 0.9726 0.75121 0.02277 0.0
H1262 H 0.98131 0.73807 0.93083 0.0
H1263 H 0.96187 0.72704 0.91424 0.0
H1264 H 0.99085 0.73652 0.99111 0.0
H1265 H 0.99771 0.77876 0.98274 0.0
H1266 H 0.98636 0.77025 0.01183 0.0
H1267 H 0.98565 0.76711 0.96406 0.0
C1268 C 0.95933 0.74007 0.9887 0.0
C1269 C 0.95604 0.73296 0.95854 0.0
C1270 C 0.97039 0.74623 0.9984 0.0
C1271 C 0.97846 0.74559 0.97781 0.0
C1272 C 0.97524 0.73873 0.94706 0.0
H1273 H 0.04862 0.7878 1.0056 0.0
H1274 H 0.02946 0.7791 0.98684 0.0
C1275 C 0.96413 0.73247 0.9375 0.0
C1276 C 0.9901 0.75145 0.99002 0.0
H1277 H 0.01111 0.77654 0.0161 0.0
C1278 C 0.99531 0.74529 0.99628 0.0
C1279 C 0.99598 0.76291 0.9965 0.0
C1280 C 0.99117 0.77015 0.98806 0.0
C1281 C 0.00614 0.75023 0.00929 0.0
C1282 C 0.01183 0.7616 0.01739 0.0
C1283 C 0.00669 0.76779 0.01057 0.0
C1284 C 0.02334 0.76734 0.03096 0.0
C1285 C 0.01143 0.74323 0.01337 0.0
C1286 C 0.02628 0.76389 0.06281 0.0
C1287 C 0.0373 0.7688 0.0735 0.0
C1288 C 0.04555 0.77737 0.05283 0.0
C1289 C 0.04249 0.78121 0.02216 0.0
C1290 C 0.03152 0.77623 0.01133 0.0
H1291 H 0.00719 0.73563 0.99671 0.0
H1292 H 0.02021 0.74782 1.00524 0.0
H1293 H 0.01096 0.74074 0.04224 0.0
H1294 H 0.02008 0.75726 0.07902 0.0
H1295 H 0.03938 0.7657 0.09736 0.0
H1296 H 0.26335 0.21554 0.01251 0.0
H1297 H 0.25266 0.22408 0.03009 0.0
H1298 H 0.2634 0.24414 0.9334 0.0
H1299 H 0.27446 0.23581 0.91606 0.0
H1300 H 0.26587 0.25624 0.99248 0.0
H1301 H 0.22398 0.22009 0.99413 0.0
H1302 H 0.23328 0.21806 0.02202 0.0
H1303 H 0.23546 0.21973 0.97362 0.0
C1304 C 0.26331 0.22163 0.99457 0.0
C1305 C 0.26975 0.22497 0.96278 0.0
C1306 C 0.25712 0.22648 1.00462 0.0
C1307 C 0.25707 0.23464 0.98284 0.0
C1308 C 0.26327 0.23781 0.95057 0.0
H1309 H 0.21417 0.26173 0.01226 0.0
H1310 H 0.22292 0.2513 0.99364 0.0
C1311 C 0.26955 0.23302 0.9406 0.0
C1312 C 0.25118 0.24039 0.99516 0.0
H1313 H 0.22632 0.23614 0.0248 0.0
C1314 C 0.2572 0.25185 0.99928 0.0
C1315 C 0.23985 0.23469 1.00377 0.0
C1316 C 0.23274 0.22248 0.9978 0.0
C1317 C 0.25225 0.25774 0.01222 0.0
C1318 C 0.24103 0.25198 0.02235 0.0
C1319 C 0.23497 0.24054 0.01767 0.0
C1320 C 0.23528 0.25774 0.03593 0.0
C1321 C 0.25905 0.27011 0.01407 0.0
C1322 C 0.23906 0.26457 0.06674 0.0
C1323 C 0.2341 0.27064 0.07736 0.0
C1324 C 0.22517 0.26986 0.05764 0.0
C1325 C 0.22104 0.26255 0.02806 0.0
C1326 C 0.22605 0.25657 0.01731 0.0
H1327 H 0.26641 0.27335 0.99627 0.0
H1328 H 0.25416 0.27397 1.0059 0.0
H1329 H 0.26193 0.27262 0.0424 0.0
H1330 H 0.24598 0.26536 0.08217 0.0
H1331 H 0.23744 0.27615 0.10037 0.0
H1332 H 0.76734 0.04037 0.91485 0.0
H1333 H 0.75887 0.02101 0.93255 0.0
H1334 H 0.7816 0.02994 0.02201 0.0
H1335 H 0.79031 0.04916 1.00387 0.0
H1336 H 0.77833 0.01141 0.99105 0.0
H1337 H 0.73813 0.00848 0.01762 0.0
H1338 H 0.74277 0.01227 0.97164 0.0
H1339 H 0.75041 0.02137 0.00837 0.0
C1340 C 0.77063 0.03818 0.93794 0.0
C1341 C 0.77944 0.04632 0.95809 0.0
C1342 C 0.76571 0.02712 0.94827 0.0
C1343 C 0.7694 0.02405 0.97924 0.0
C1344 C 0.77855 0.03211 0.99822 0.0
H1345 H 0.72941 0.9627 0.09687 0.0
H1346 H 0.74072 0.98213 0.0805 0.0
C1347 C 0.78353 0.04311 0.98775 0.0
C1348 C 0.76361 0.01253 0.99268 0.0
H1349 H 0.73865 0.99191 0.02148 0.0
C1350 C 0.76966 0.00715 0.99777 0.0
C1351 C 0.75235 0.00705 1.00232 0.0
C1352 C 0.74555 0.01261 1.0001 0.0
C1353 C 0.76472 0.9964 0.01157 0.0
C1354 C 0.75335 0.99075 0.01962 0.0
C1355 C 0.74735 0.9962 0.01512 0.0
C1356 C 0.7474 0.97909 0.03165 0.0
C1357 C 0.77181 0.9913 0.01802 0.0
C1358 C 0.74747 0.97092 0.00995 0.0
C1359 C 0.74114 0.95986 0.01947 0.0
C1360 C 0.73443 0.95668 0.05062 0.0
C1361 C 0.73453 0.96487 0.07282 0.0
C1362 C 0.74095 0.97597 0.06339 0.0
H1363 H 0.78054 0.99768 0.02229 0.0
H1364 H 0.76896 0.98576 0.04201 0.0
H1365 H 0.77144 0.98644 0.99376 0.0
H1366 H 0.75213 0.97306 0.98486 0.0
H1367 H 0.74119 0.95377 1.00154 0.0
H1368 H 0.61981 0.54646 0.34291 0.0
H1369 H 0.63897 0.55525 0.36169 0.0
H1370 H 0.64823 0.57719 0.26978 0.0
H1371 H 0.62892 0.56865 0.25146 0.0
H1372 H 0.65729 0.55789 0.33243 0.0
H1373 H 0.66116 0.59877 0.35202 0.0
H1374 H 0.64814 0.58657 0.34344 0.0
H1375 H 0.65739 0.5937 0.30645 0.0
C1376 C 0.62591 0.5531 0.32642 0.0
C1377 C 0.62281 0.55693 0.29583 0.0
C1378 C 0.63689 0.55813 0.33727 0.0
C1379 C 0.64503 0.56706 0.31771 0.0
C1380 C 0.64205 0.57052 0.28596 0.0
H1381 H 0.71506 0.59382 0.34205 0.0
H1382 H 0.69576 0.58318 0.32532 0.0
C1383 C 0.63103 0.56556 0.27527 0.0
C1384 C 0.65655 0.57282 0.3312 0.0
H1385 H 0.67754 0.59792 0.3572 0.0
C1386 C 0.66171 0.56664 0.33793 0.0
C1387 C 0.66224 0.5842 0.33925 0.0
C1388 C 0.65692 0.59118 0.3353 0.0
C1389 C 0.67243 0.57154 0.35186 0.0
C1390 C 0.67831 0.58301 0.35826 0.0
C1391 C 0.67309 0.58915 0.35209 0.0
C1392 C 0.68997 0.58888 0.37026 0.0
C1393 C 0.67725 0.56431 0.36026 0.0
C1394 C 0.69324 0.59579 0.40089 0.0
C1395 C 0.70436 0.60206 0.41027 0.0
C1396 C 0.71242 0.60151 0.38919 0.0
C1397 C 0.70908 0.59436 0.35915 0.0
C1398 C 0.698 0.5882 0.34961 0.0
H1399 H 0.67072 0.55571 0.36577 0.0
H1400 H 0.68201 0.56417 0.3364 0.0
H1401 H 0.68282 0.56739 0.38414 0.0
H1402 H 0.6872 0.5965 0.41717 0.0
H1403 H 0.70667 0.60753 0.43344 0.0
H1404 H 0.45798 0.07813 0.32073 0.0
H1405 H 0.44877 0.08815 0.33954 0.0
H1406 H 0.41958 0.06491 0.28192 0.0
H1407 H 0.42885 0.05496 0.26223 0.0
H1408 H 0.42367 0.08591 0.2741 0.0
H1409 H 0.42591 0.07703 0.41974 0.0
H1410 H 0.43911 0.08404 0.3981 0.0
H1411 H 0.42912 0.07041 0.38362 0.0
C1412 C 0.44965 0.07523 0.31161 0.0
C1413 C 0.44411 0.06569 0.2902 0.0
C1414 C 0.44436 0.08091 0.3227 0.0
C1415 C 0.43338 0.0771 0.31305 0.0
C1416 C 0.42802 0.06793 0.29002 0.0
H1417 H 0.38849 0.09424 0.41878 0.0
H1418 H 0.39871 0.08523 0.39914 0.0
C1419 C 0.43334 0.06228 0.27865 0.0
C1420 C 0.42743 0.08252 0.32763 0.0
H1421 H 0.41988 0.08974 0.40671 0.0
C1422 C 0.42282 0.08673 0.30308 0.0
C1423 C 0.42613 0.08339 0.36549 0.0
C1424 C 0.43023 0.07838 0.39329 0.0
C1425 C 0.41715 0.09198 0.31533 0.0
C1426 C 0.41629 0.0933 0.35318 0.0
C1427 C 0.42069 0.08888 0.37773 0.0
C1428 C 0.4107 0.09909 0.36773 0.0
C1429 C 0.41194 0.09587 0.28754 0.0
C1430 C 0.41431 0.11002 0.3579 0.0
C1431 C 0.40848 0.11515 0.36894 0.0
C1432 C 0.39899 0.10952 0.3905 0.0
C1433 C 0.39577 0.09881 0.40223 0.0
C1434 C 0.40158 0.09364 0.3909 0.0
H1435 H 0.41063 0.09153 0.26116 0.0
H1436 H 0.40392 0.09461 0.29732 0.0
H1437 H 0.41745 0.10477 0.28253 0.0
H1438 H 0.42151 0.1145 0.34095 0.0
H1439 H 0.41123 0.12345 0.35969 0.0
H1440 H 0.87946 0.28646 0.33926 0.0
H1441 H 0.88839 0.30564 0.32057 0.0
H1442 H 0.91079 0.31459 0.41104 0.0
H1443 H 0.90211 0.29526 0.42925 0.0
H1444 H 0.89158 0.32415 0.35025 0.0
H1445 H 0.93193 0.3271 0.3274 0.0
H1446 H 0.91963 0.31422 0.3365 0.0
H1447 H 0.9271 0.32342 0.37323 0.0
C1448 C 0.88622 0.2925 0.35547 0.0
C1449 C 0.89014 0.2893 0.38558 0.0
C1450 C 0.89133 0.30349 0.34468 0.0
C1451 C 0.90044 0.31154 0.36381 0.0
C1452 C 0.90398 0.30848 0.39518 0.0
H1453 H 0.92838 0.38175 0.33986 0.0
H1454 H 0.91751 0.36247 0.35668 0.0
C1455 C 0.89894 0.29744 0.4058 0.0
C1456 C 0.90632 0.32305 0.35022 0.0
H1457 H 0.93146 0.34369 0.32287 0.0
C1458 C 0.9003 0.32841 0.34418 0.0
C1459 C 0.91764 0.32854 0.34142 0.0
C1460 C 0.92444 0.32299 0.34458 0.0
C1461 C 0.90531 0.33915 0.33023 0.0
C1462 C 0.91674 0.34482 0.32309 0.0
C1463 C 0.92272 0.33939 0.32855 0.0
C1464 C 0.92275 0.35648 0.31106 0.0
C1465 C 0.89823 0.34419 0.32262 0.0
C1466 C 0.92949 0.35963 0.28 0.0
C1467 C 0.9359 0.37074 0.27056 0.0
C1468 C 0.93567 0.3789 0.292 0.0
C1469 C 0.92868 0.37568 0.32248 0.0
C1470 C 0.92239 0.36462 0.33207 0.0
H1471 H 0.88956 0.33778 0.31757 0.0
H1472 H 0.89834 0.34901 0.34667 0.0
H1473 H 0.90127 0.34976 0.29871 0.0
H1474 H 0.92995 0.3535 0.26344 0.0
H1475 H 0.94123 0.37294 0.24704 0.0
H1476 H 0.71421 0.12335 0.36038 0.0
H1477 H 0.69497 0.11483 0.34209 0.0
H1478 H 0.68789 0.08537 0.40032 0.0
H1479 H 0.7071 0.09396 0.41949 0.0
H1480 H 0.68424 0.09692 0.29987 0.0
H1481 H 0.66266 0.08942 0.43198 0.0
H1482 H 0.6773 0.09837 0.42761 0.0
H1483 H 0.67156 0.08372 0.42982 0.0
C1484 C 0.70851 0.11514 0.36997 0.0
C1485 C 0.71218 0.10934 0.39148 0.0
C1486 C 0.69752 0.11026 0.35935 0.0
C1487 C 0.68995 0.09948 0.36995 0.0
C1488 C 0.69352 0.09378 0.39238 0.0
H1489 H 0.62876 0.05484 0.26016 0.0
H1490 H 0.64796 0.06548 0.27939 0.0
C1491 C 0.70452 0.09869 0.40328 0.0
C1492 C 0.67857 0.09399 0.35539 0.0
H1493 H 0.65156 0.0804 0.38027 0.0
C1494 C 0.67709 0.09337 0.31746 0.0
C1495 C 0.66923 0.08945 0.3783 0.0
C1496 C 0.67024 0.09035 0.41918 0.0
C1497 C 0.66656 0.08821 0.30184 0.0
C1498 C 0.65724 0.08333 0.32475 0.0
C1499 C 0.65871 0.08408 0.36268 0.0
C1500 C 0.64585 0.07743 0.31017 0.0
C1501 C 0.66555 0.08822 0.26098 0.0
C1502 C 0.63826 0.08058 0.32099 0.0
C1503 C 0.62727 0.07446 0.31031 0.0
C1504 C 0.62363 0.06504 0.28856 0.0
C1505 C 0.63132 0.06212 0.27656 0.0
C1506 C 0.64232 0.06822 0.2875 0.0
H1507 H 0.67312 0.09491 0.24829 0.0
H1508 H 0.66425 0.0803 0.25006 0.0
H1509 H 0.65848 0.08917 0.25274 0.0
H1510 H 0.64079 0.08766 0.33843 0.0
H1511 H 0.62156 0.07693 0.32007 0.0
H1512 H 0.88068 0.59409 0.34023 0.0
H1513 H 0.88946 0.58356 0.32348 0.0
H1514 H 0.91144 0.59712 0.41496 0.0
H1515 H 0.90288 0.60804 0.43128 0.0
H1516 H 0.92246 0.59851 0.35468 0.0
H1517 H 0.88724 0.55623 0.3647 0.0
H1518 H 0.88429 0.56459 0.33524 0.0
H1519 H 0.88679 0.56791 0.38288 0.0
C1520 C 0.88726 0.59471 0.35724 0.0
C1521 C 0.89105 0.60189 0.38721 0.0
C1522 C 0.89224 0.58861 0.34769 0.0
C1523 C 0.901 0.58939 0.36825 0.0
C1524 C 0.90465 0.59635 0.39876 0.0
H1525 H 0.92903 0.54719 0.34229 0.0
H1526 H 0.91863 0.55598 0.36077 0.0
C1527 C 0.89972 0.60255 0.40817 0.0
C1528 C 0.90683 0.58354 0.35632 0.0
H1529 H 0.90283 0.5584 0.33137 0.0
C1530 C 0.91818 0.58972 0.34987 0.0
C1531 C 0.90128 0.57206 0.35033 0.0
C1532 C 0.88925 0.5648 0.35902 0.0
C1533 C 0.9241 0.58478 0.33716 0.0
C1534 C 0.91846 0.57338 0.32955 0.0
C1535 C 0.90714 0.56717 0.33654 0.0
C1536 C 0.92425 0.56762 0.3163 0.0
C1537 C 0.93639 0.59181 0.33289 0.0
C1538 C 0.93062 0.57099 0.28439 0.0
C1539 C 0.9367 0.56602 0.27387 0.0
C1540 C 0.93636 0.55748 0.29476 0.0
C1541 C 0.9295 0.55375 0.32555 0.0
C1542 C 0.92354 0.55878 0.33622 0.0
H1543 H 0.93974 0.59946 0.34928 0.0
H1544 H 0.94062 0.58728 0.34122 0.0
H1545 H 0.93837 0.59422 0.30394 0.0
H1546 H 0.93104 0.57757 0.26795 0.0
H1547 H 0.94185 0.56904 0.24991 0.0
H1548 H 0.42774 0.37394 0.26166 0.0
H1549 H 0.41871 0.35467 0.28071 0.0
H1550 H 0.44852 0.36052 0.33368 0.0
H1551 H 0.4575 0.37981 0.3156 0.0
H1552 H 0.42257 0.33776 0.27039 0.0
H1553 H 0.4267 0.34865 0.41667 0.0
H1554 H 0.42953 0.35856 0.38111 0.0
H1555 H 0.43962 0.35482 0.39326 0.0
C1556 C 0.43242 0.37108 0.2769 0.0
C1557 C 0.4433 0.37842 0.28744 0.0
C1558 C 0.42723 0.36007 0.2879 0.0
C1559 C 0.43284 0.35622 0.30951 0.0
C1560 C 0.44392 0.36338 0.318 0.0
H1561 H 0.41052 0.28742 0.35234 0.0
H1562 H 0.42081 0.30667 0.33381 0.0
C1563 C 0.44907 0.37439 0.30732 0.0
C1564 C 0.42705 0.34482 0.32392 0.0
H1565 H 0.42042 0.32992 0.40269 0.0
C1566 C 0.42208 0.33605 0.29931 0.0
C1567 C 0.42621 0.34259 0.36174 0.0
C1568 C 0.4307 0.35165 0.38976 0.0
C1569 C 0.41649 0.3251 0.31139 0.0
C1570 C 0.41609 0.32286 0.34912 0.0
C1571 C 0.42087 0.33164 0.37378 0.0
C1572 C 0.41057 0.31145 0.36348 0.0
C1573 C 0.41086 0.31606 0.28361 0.0
C1574 C 0.40181 0.30788 0.38817 0.0
C1575 C 0.39602 0.29689 0.39939 0.0
C1576 C 0.39888 0.28929 0.386 0.0
C1577 C 0.40804 0.29304 0.36288 0.0
C1578 C 0.41387 0.30403 0.35197 0.0
H1579 H 0.40924 0.31917 0.25791 0.0
H1580 H 0.41623 0.31262 0.27707 0.0
H1581 H 0.40294 0.30932 0.2942 0.0
H1582 H 0.39919 0.31349 0.39771 0.0
H1583 H 0.389 0.29425 0.41715 0.0
H1584 H 0.2957 0.90703 0.59606 0.0
H1585 H 0.31496 0.91571 0.61478 0.0
H1586 H 0.30764 0.88724 0.67945 0.0
H1587 H 0.28836 0.87867 0.66167 0.0
H1588 H 0.31873 0.90566 0.71818 0.0
H1589 H 0.33982 0.91084 0.58626 0.0
H1590 H 0.33115 0.91682 0.58648 0.0
H1591 H 0.32516 0.90219 0.59136 0.0
C1592 C 0.29825 0.90252 0.6136 0.0
C1593 C 0.29051 0.89216 0.62734 0.0
C1594 C 0.30927 0.90749 0.62425 0.0
C1595 C 0.31279 0.9021 0.64833 0.0
C1596 C 0.30513 0.89157 0.6609 0.0
H1597 H 0.38133 0.92505 0.69727 0.0
H1598 H 0.36205 0.91417 0.6797 0.0
C1599 C 0.29411 0.88666 0.65056 0.0
C1600 C 0.32422 0.9077 0.66251 0.0
H1601 H 0.35114 0.92071 0.63669 0.0
C1602 C 0.32582 0.90888 0.70035 0.0
C1603 C 0.33347 0.91181 0.63933 0.0
C1604 C 0.33234 0.91026 0.59863 0.0
C1605 C 0.3364 0.91418 0.71561 0.0
C1606 C 0.34565 0.91866 0.69236 0.0
C1607 C 0.34405 0.91735 0.65454 0.0
C1608 C 0.35709 0.92471 0.70646 0.0
C1609 C 0.33752 0.91474 0.75649 0.0
C1610 C 0.36072 0.93416 0.72802 0.0
C1611 C 0.37174 0.94033 0.73858 0.0
C1612 C 0.37938 0.93726 0.72722 0.0
C1613 C 0.37566 0.92764 0.70649 0.0
C1614 C 0.36464 0.92143 0.69629 0.0
H1615 H 0.33 0.9082 0.7699 0.0
H1616 H 0.34464 0.91394 0.76534 0.0
H1617 H 0.33881 0.92278 0.76606 0.0
H1618 H 0.35512 0.93701 0.73556 0.0
H1619 H 0.37437 0.94777 0.75415 0.0
H1620 H 0.05534 0.42725 0.75535 0.0
H1621 H 0.06581 0.41842 0.73695 0.0
H1622 H 0.08846 0.44761 0.67802 0.0
H1623 H 0.07792 0.45638 0.6956 0.0
H1624 H 0.08091 0.42942 0.63638 0.0
H1625 H 0.09507 0.42233 0.76903 0.0
H1626 H 0.0805 0.41683 0.76692 0.0
H1627 H 0.08958 0.43143 0.76406 0.0
C1628 C 0.06269 0.43187 0.73916 0.0
C1629 C 0.06579 0.44251 0.72695 0.0
C1630 C 0.06868 0.42682 0.7287 0.0
C1631 C 0.07797 0.43238 0.70627 0.0
C1632 C 0.08132 0.44316 0.69529 0.0
H1633 H 0.12389 0.40998 0.65636 0.0
H1634 H 0.11519 0.42048 0.67512 0.0
C1635 C 0.0753 0.44818 0.70551 0.0
C1636 C 0.08375 0.42673 0.69205 0.0
H1637 H 0.09715 0.41319 0.71772 0.0
C1638 C 0.08451 0.42592 0.65418 0.0
C1639 C 0.08854 0.42225 0.71524 0.0
C1640 C 0.08849 0.42333 0.75607 0.0
C1641 C 0.08982 0.42066 0.63886 0.0
C1642 C 0.09429 0.41587 0.66205 0.0
C1643 C 0.09364 0.41679 0.69993 0.0
C1644 C 0.0998 0.40996 0.64777 0.0
C1645 C 0.09074 0.42046 0.59801 0.0
C1646 C 0.09411 0.40063 0.62562 0.0
C1647 C 0.09912 0.39465 0.6145 0.0
C1648 C 0.10986 0.39782 0.62574 0.0
C1649 C 0.11561 0.40732 0.64717 0.0
C1650 C 0.11063 0.41332 0.65806 0.0
H1651 H 0.08975 0.42703 0.58488 0.0
H1652 H 0.09879 0.42146 0.58977 0.0
H1653 H 0.08416 0.41244 0.58754 0.0
H1654 H 0.08567 0.39775 0.61791 0.0
H1655 H 0.09442 0.38731 0.59834 0.0
H1656 H 0.56903 0.62845 0.76639 0.0
H1657 H 0.57749 0.64789 0.74975 0.0
H1658 H 0.55543 0.63925 0.65843 0.0
H1659 H 0.54674 0.61997 0.67547 0.0
H1660 H 0.58845 0.65731 0.68904 0.0
H1661 H 0.55332 0.66452 0.69884 0.0
H1662 H 0.55287 0.65243 0.71747 0.0
H1663 H 0.55031 0.65312 0.66979 0.0
C1664 C 0.56582 0.63073 0.74327 0.0
C1665 C 0.55717 0.62265 0.72239 0.0
C1666 C 0.5707 0.64183 0.73368 0.0
C1667 C 0.56702 0.64507 0.70307 0.0
C1668 C 0.55824 0.63703 0.68268 0.0
H1669 H 0.60774 0.70582 0.58245 0.0
H1670 H 0.59683 0.68654 0.60107 0.0
C1671 C 0.55331 0.62596 0.69241 0.0
C1672 C 0.57285 0.65671 0.69077 0.0
H1673 H 0.5689 0.67785 0.66518 0.0
C1674 C 0.58419 0.66183 0.68411 0.0
C1675 C 0.56732 0.66266 0.6846 0.0
C1676 C 0.55531 0.65793 0.69342 0.0
C1677 C 0.59011 0.67265 0.671 0.0
C1678 C 0.58449 0.67842 0.66326 0.0
C1679 C 0.57318 0.67336 0.67047 0.0
C1680 C 0.5903 0.68992 0.64962 0.0
C1681 C 0.60239 0.67786 0.66644 0.0
C1682 C 0.58978 0.69816 0.6695 0.0
C1683 C 0.59581 0.70912 0.65854 0.0
C1684 C 0.60255 0.71211 0.62749 0.0
C1685 C 0.60269 0.7038 0.60662 0.0
C1686 C 0.59654 0.69279 0.61745 0.0
H1687 H 0.60574 0.67356 0.68281 0.0
H1688 H 0.60429 0.67737 0.63745 0.0
H1689 H 0.60666 0.68664 0.67459 0.0
H1690 H 0.58497 0.69616 0.69425 0.0
H1691 H 0.59549 0.7153 0.67527 0.0
H1692 H 0.37276 0.4323 0.76501 0.0
H1693 H 0.35346 0.42397 0.74675 0.0
H1694 H 0.36299 0.44538 0.65338 0.0
H1695 H 0.38215 0.45397 0.67206 0.0
H1696 H 0.34478 0.44321 0.6823 0.0
H1697 H 0.34024 0.40195 0.66573 0.0
H1698 H 0.34409 0.40727 0.711 0.0
H1699 H 0.35335 0.41408 0.67376 0.0
C1700 C 0.37072 0.43532 0.74088 0.0
C1701 C 0.37901 0.44375 0.71988 0.0
C1702 C 0.35969 0.43048 0.73025 0.0
C1703 C 0.35679 0.43384 0.69811 0.0
C1704 C 0.36502 0.44258 0.6781 0.0
H1705 H 0.29508 0.3935 0.58278 0.0
H1706 H 0.31455 0.40442 0.59914 0.0
C1707 C 0.37599 0.4475 0.68889 0.0
C1708 C 0.34527 0.42816 0.68467 0.0
H1709 H 0.32402 0.40307 0.65973 0.0
C1710 C 0.34025 0.43444 0.67729 0.0
C1711 C 0.33943 0.41674 0.67727 0.0
C1712 C 0.34458 0.40963 0.68197 0.0
C1713 C 0.32953 0.42961 0.66332 0.0
C1714 C 0.32352 0.41812 0.65752 0.0
C1715 C 0.32859 0.41187 0.66437 0.0
C1716 C 0.31186 0.41233 0.64539 0.0
C1717 C 0.32487 0.43693 0.65422 0.0
C1718 C 0.30388 0.41322 0.66561 0.0
C1719 C 0.2928 0.40712 0.65602 0.0
C1720 C 0.28941 0.39983 0.62635 0.0
C1721 C 0.29742 0.39908 0.60566 0.0
C1722 C 0.30854 0.40528 0.61509 0.0
H1723 H 0.33149 0.44547 0.64844 0.0
H1724 H 0.31932 0.43382 0.6303 0.0
H1725 H 0.32012 0.43724 0.67785 0.0
H1726 H 0.30616 0.41834 0.68965 0.0
H1727 H 0.28685 0.40782 0.67282 0.0
H1728 H 0.59575 0.88115 0.68004 0.0
H1729 H 0.58485 0.88954 0.69679 0.0
H1730 H 0.59553 0.90935 0.59956 0.0
H1731 H 0.60681 0.9012 0.58309 0.0
H1732 H 0.59787 0.92158 0.65786 0.0
H1733 H 0.55613 0.88525 0.66064 0.0
H1734 H 0.56546 0.8834 0.68894 0.0
H1735 H 0.56764 0.88489 0.6405 0.0
C1736 C 0.59565 0.88715 0.66179 0.0
C1737 C 0.60214 0.89049 0.63013 0.0
C1738 C 0.58934 0.8919 0.67137 0.0
C1739 C 0.58922 0.89997 0.64922 0.0
C1740 C 0.59546 0.9031 0.61702 0.0
H1741 H 0.54599 0.92675 0.67684 0.0
H1742 H 0.5548 0.91632 0.65886 0.0
C1743 C 0.60186 0.89841 0.60754 0.0
C1744 C 0.58327 0.90568 0.66114 0.0
H1745 H 0.55838 0.90135 0.69073 0.0
C1746 C 0.58921 0.91716 0.66476 0.0
C1747 C 0.57194 0.89994 0.6699 0.0
C1748 C 0.5649 0.8877 0.66444 0.0
C1749 C 0.58421 0.92303 0.67736 0.0
C1750 C 0.573 0.91724 0.68767 0.0
C1751 C 0.56701 0.90578 0.68347 0.0
C1752 C 0.56721 0.92298 0.70094 0.0
C1753 C 0.59094 0.93541 0.67865 0.0
C1754 C 0.571 0.92993 0.73144 0.0
C1755 C 0.56602 0.93601 0.74169 0.0
C1756 C 0.55705 0.93511 0.72191 0.0
C1757 C 0.5529 0.92767 0.69268 0.0
C1758 C 0.55793 0.92169 0.68229 0.0
H1759 H 0.59827 0.93863 0.66074 0.0
H1760 H 0.58598 0.93918 0.67028 0.0
H1761 H 0.59386 0.93805 0.70688 0.0
H1762 H 0.57796 0.93083 0.7469 0.0
H1763 H 0.56937 0.94162 0.76446 0.0
H1764 H 0.0748 0.6195 0.67441 0.0
H1765 H 0.0855 0.63877 0.65725 0.0
H1766 H 0.07255 0.64764 0.74935 0.0
H1767 H 0.06144 0.62821 0.76607 0.0
H1768 H 0.07105 0.65723 0.6893 0.0
H1769 H 0.11317 0.66376 0.69689 0.0
H1770 H 0.10457 0.65245 0.66779 0.0
H1771 H 0.10148 0.65173 0.71561 0.0
C1772 C 0.07435 0.62555 0.69148 0.0
C1773 C 0.06728 0.62231 0.72172 0.0
C1774 C 0.08055 0.6366 0.68168 0.0
C1775 C 0.07999 0.64471 0.70228 0.0
C1776 C 0.07315 0.64153 0.7331 0.0
H1777 H 0.1226 0.71481 0.67542 0.0
H1778 H 0.11379 0.6956 0.69367 0.0
C1779 C 0.06685 0.63044 0.74274 0.0
C1780 C 0.08591 0.65636 0.69006 0.0
H1781 H 0.11105 0.67727 0.66389 0.0
C1782 C 0.07982 0.66164 0.68403 0.0
C1783 C 0.09736 0.66216 0.68345 0.0
C1784 C 0.10454 0.65727 0.69164 0.0
C1785 C 0.08481 0.67249 0.67117 0.0
C1786 C 0.09618 0.67812 0.66298 0.0
C1787 C 0.1023 0.67289 0.66951 0.0
C1788 C 0.10199 0.68966 0.64966 0.0
C1789 C 0.07789 0.67788 0.6674 0.0
C1790 C 0.09856 0.69272 0.61804 0.0
C1791 C 0.10353 0.70377 0.60766 0.0
C1792 C 0.11215 0.71194 0.6284 0.0
C1793 C 0.11597 0.70875 0.65881 0.0
C1794 C 0.11093 0.69775 0.66935 0.0
H1795 H 0.0703 0.67366 0.6841 0.0
H1796 H 0.08254 0.68664 0.67568 0.0
H1797 H 0.07538 0.67747 0.63857 0.0
H1798 H 0.09189 0.68659 0.60177 0.0
H1799 H 0.10044 0.70595 0.58398 0.0
H1800 H 0.08845 0.3421 0.68221 0.0
H1801 H 0.08249 0.33465 0.74375 0.0
H1802 H 0.11587 0.35418 0.78185 0.0
H1803 H 0.12162 0.36209 0.72138 0.0
H1804 H 0.08642 0.32288 0.78622 0.0
H1805 H 0.1015 0.3622 0.85767 0.0
H1806 H 0.10126 0.36138 0.80873 0.0
H1807 H 0.11273 0.36239 0.8341 0.0
C1808 C 0.09446 0.3448 0.70387 0.0
C1809 C 0.10546 0.35276 0.69721 0.0
C1810 C 0.09107 0.34058 0.73903 0.0
C1811 C 0.09866 0.34411 0.76793 0.0
C1812 C 0.10973 0.35168 0.76064 0.0
H1813 H 0.0942 0.30711 0.95795 0.0
H1814 H 0.09635 0.31528 0.89794 0.0
C1815 C 0.11305 0.3561 0.7259 0.0
C1816 C 0.09519 0.3396 0.80534 0.0
H1817 H 0.0991 0.34693 0.89506 0.0
C1818 C 0.08905 0.32817 0.80995 0.0
C1819 C 0.09826 0.34644 0.83657 0.0
C1820 C 0.10368 0.35878 0.83393 0.0
C1821 C 0.08645 0.32339 0.84472 0.0
C1822 C 0.09058 0.33021 0.87589 0.0
C1823 C 0.09616 0.34165 0.87132 0.0
C1824 C 0.08964 0.32563 0.91313 0.0
C1825 C 0.07923 0.31108 0.84744 0.0
C1826 C 0.08586 0.32924 0.94258 0.0
C1827 C 0.08501 0.32485 0.97749 0.0
C1828 C 0.08779 0.31666 0.98331 0.0
C1829 C 0.09182 0.31328 0.95409 0.0
C1830 C 0.09293 0.31785 0.91961 0.0
H1831 H 0.07347 0.30779 0.82405 0.0
H1832 H 0.08444 0.30721 0.84666 0.0
H1833 H 0.07436 0.30862 0.87296 0.0
H1834 H 0.0834 0.33534 0.93847 0.0
H1835 H 0.08188 0.32759 0.99959 0.0
H1836 H 0.70294 0.78107 0.9501 0.0
H1837 H 0.69477 0.77597 0.88982 0.0
H1838 H 0.66263 0.75707 0.93786 0.0
H1839 H 0.67074 0.76233 0.99879 0.0
H1840 H 0.68262 0.7559 0.85707 0.0
H1841 H 0.6585 0.77723 0.86815 0.0
H1842 H 0.66908 0.77938 0.90033 0.0
H1843 H 0.65572 0.76731 0.9033 0.0
C1844 C 0.69412 0.77582 0.94805 0.0
C1845 C 0.68748 0.77218 0.97944 0.0
C1846 C 0.68947 0.7729 0.91344 0.0
C1847 C 0.67808 0.76628 0.90925 0.0
C1848 C 0.67143 0.76238 0.94044 0.0
H1849 H 0.63541 0.74271 0.7222 0.0
H1850 H 0.64379 0.74598 0.78217 0.0
C1851 C 0.67608 0.76534 0.97525 0.0
C1852 C 0.67328 0.76363 0.87212 0.0
H1853 H 0.65582 0.76667 0.81508 0.0
C1854 C 0.67676 0.75826 0.84785 0.0
C1855 C 0.66571 0.7668 0.86004 0.0
C1856 C 0.66209 0.77309 0.88414 0.0
C1857 C 0.67274 0.7558 0.81204 0.0
C1858 C 0.66513 0.75892 0.80011 0.0
C1859 C 0.66166 0.76429 0.82434 0.0
C1860 C 0.66038 0.75643 0.76294 0.0
C1861 C 0.67647 0.74971 0.7875 0.0
C1862 C 0.66695 0.76116 0.73199 0.0
C1863 C 0.66217 0.75931 0.69732 0.0
C1864 C 0.65073 0.75274 0.69315 0.0
C1865 C 0.64425 0.74786 0.72426 0.0
C1866 C 0.64901 0.7497 0.75869 0.0
H1867 H 0.68043 0.74584 0.80303 0.0
H1868 H 0.66945 0.74324 0.77191 0.0
H1869 H 0.68255 0.75555 0.76773 0.0
H1870 H 0.67574 0.76652 0.73474 0.0
H1871 H 0.66739 0.76323 0.674 0.0
H1872 H 0.22709 0.89779 0.99668 0.0
H1873 H 0.23197 0.89502 0.93521 0.0
H1874 H 0.24578 0.92962 0.91295 0.0
H1875 H 0.24015 0.93218 0.97336 0.0
H1876 H 0.23403 0.91925 0.85969 0.0
H1877 H 0.25932 0.90025 0.88926 0.0
H1878 H 0.24595 0.89233 0.90901 0.0
H1879 H 0.25501 0.90617 0.92454 0.0
C1880 C 0.23137 0.90482 0.97881 0.0
C1881 C 0.23332 0.9152 0.98967 0.0
C1882 C 0.23421 0.90325 0.94371 0.0
C1883 C 0.23943 0.91214 0.91938 0.0
C1884 C 0.24176 0.92261 0.931 0.0
H1885 H 0.26624 0.9045 0.71515 0.0
H1886 H 0.26381 0.90991 0.77608 0.0
C1887 C 0.23861 0.9241 0.9656 0.0
C1888 C 0.24172 0.91046 0.88103 0.0
H1889 H 0.25252 0.89821 0.8283 0.0
C1890 C 0.23821 0.91477 0.85291 0.0
C1891 C 0.2473 0.90474 0.87189 0.0
C1892 C 0.25221 0.90073 0.90033 0.0
C1893 C 0.24002 0.91346 0.81615 0.0
C1894 C 0.24499 0.90716 0.80697 0.0
C1895 C 0.2486 0.90295 0.8351 0.0
C1896 C 0.24664 0.90488 0.76859 0.0
C1897 C 0.23684 0.91913 0.78779 0.0
C1898 C 0.23789 0.90045 0.74357 0.0
C1899 C 0.2394 0.89772 0.70822 0.0
C1900 C 0.24957 0.899 0.69775 0.0
C1901 C 0.25832 0.90346 0.7226 0.0
C1902 C 0.25691 0.90649 0.75748 0.0
H1903 H 0.23694 0.9265 0.79919 0.0
H1904 H 0.24245 0.92172 0.76398 0.0
H1905 H 0.22835 0.91342 0.77838 0.0
H1906 H 0.22979 0.89875 0.75164 0.0
H1907 H 0.23247 0.8941 0.68973 0.0
H1908 H 0.30087 0.07911 0.06021 0.0
H1909 H 0.30952 0.08244 0.11974 0.0
H1910 H 0.34148 0.09845 0.06926 0.0
H1911 H 0.33286 0.09533 0.00908 0.0
H1912 H 0.32331 0.07601 0.14973 0.0
H1913 H 0.34376 0.1215 0.14157 0.0
H1914 H 0.33332 0.1126 0.10972 0.0
H1915 H 0.34713 0.11517 0.10522 0.0
C1916 C 0.30975 0.08334 0.06155 0.0
C1917 C 0.31617 0.08704 0.02972 0.0
C1918 C 0.31468 0.08521 0.09573 0.0
C1919 C 0.32614 0.09084 0.09904 0.0
C1920 C 0.33261 0.09428 0.06738 0.0
H1921 H 0.3691 0.11237 0.28651 0.0
H1922 H 0.36105 0.1073 0.22604 0.0
C1923 C 0.32768 0.09244 0.03299 0.0
C1924 C 0.33118 0.09317 0.13583 0.0
H1925 H 0.34742 0.11406 0.19373 0.0
C1926 C 0.32859 0.08433 0.15937 0.0
C1927 C 0.33801 0.10403 0.14844 0.0
C1928 C 0.34066 0.11389 0.12511 0.0
C1929 C 0.33275 0.08604 0.19501 0.0
C1930 C 0.33955 0.0969 0.20759 0.0
C1931 C 0.34219 0.10574 0.18401 0.0
C1932 C 0.34424 0.09933 0.24486 0.0
C1933 C 0.32997 0.07624 0.21872 0.0
C1934 C 0.33744 0.09651 0.27571 0.0
C1935 C 0.34204 0.0994 0.31062 0.0
C1936 C 0.35351 0.10523 0.3152 0.0
C1937 C 0.36024 0.10791 0.28415 0.0
C1938 C 0.35565 0.10502 0.24944 0.0
H1939 H 0.32684 0.06858 0.20252 0.0
H1940 H 0.33728 0.07752 0.23439 0.0
H1941 H 0.3235 0.07509 0.23842 0.0
H1942 H 0.3286 0.09227 0.27273 0.0
H1943 H 0.33662 0.09725 0.33388 0.0
H1944 H 0.90642 0.24194 0.33367 0.0
H1945 H 0.91209 0.23952 0.27278 0.0
H1946 H 0.89453 0.25424 0.22498 0.0
H1947 H 0.889 0.25683 0.28513 0.0
H1948 H 0.89845 0.2274 0.21564 0.0
H1949 H 0.92416 0.27098 0.17479 0.0
H1950 H 0.92015 0.26687 0.22138 0.0
H1951 H 0.91073 0.26764 0.19007 0.0
C1952 C 0.90388 0.24477 0.31021 0.0
C1953 C 0.89728 0.2496 0.3144 0.0
C1954 C 0.90711 0.24337 0.27545 0.0
C1955 C 0.90389 0.24687 0.24437 0.0
C1956 C 0.89734 0.25172 0.24855 0.0
H1957 H 0.90666 0.2393 0.00979 0.0
H1958 H 0.9034 0.24401 0.07118 0.0
C1959 C 0.89412 0.25311 0.2831 0.0
C1960 C 0.90675 0.24489 0.20734 0.0
H1961 H 0.91882 0.25765 0.12736 0.0
C1962 C 0.903 0.23402 0.19647 0.0
C1963 C 0.91261 0.25354 0.18222 0.0
C1964 C 0.91724 0.26542 0.19276 0.0
C1965 C 0.90474 0.23154 0.16096 0.0
C1966 C 0.91053 0.24017 0.13581 0.0
C1967 C 0.91433 0.25105 0.14665 0.0
C1968 C 0.91301 0.23802 0.0985 0.0
C1969 C 0.90014 0.21966 0.15041 0.0
C1970 C 0.91973 0.23341 0.09355 0.0
C1971 C 0.9216 0.23073 0.05877 0.0
C1972 C 0.91683 0.23265 0.028 0.0
C1973 C 0.91043 0.23768 0.03286 0.0
C1974 C 0.90855 0.24037 0.06789 0.0
H1975 H 0.89363 0.21401 0.16951 0.0
H1976 H 0.89669 0.21811 0.12247 0.0
H1977 H 0.90684 0.21766 0.15094 0.0
H1978 H 0.92344 0.23175 0.11672 0.0
H1979 H 0.92668 0.22699 0.05613 0.0
H1980 H 0.74544 0.63327 0.28716 0.0
H1981 H 0.74856 0.64176 0.22738 0.0
H1982 H 0.7631 0.67377 0.27719 0.0
H1983 H 0.76018 0.66532 0.33759 0.0
H1984 H 0.74137 0.65494 0.19638 0.0
H1985 H 0.7869 0.6769 0.20636 0.0
H1986 H 0.77815 0.6663 0.238 0.0
H1987 H 0.78013 0.67991 0.24224 0.0
C1988 C 0.74929 0.64212 0.28561 0.0
C1989 C 0.75265 0.64862 0.3173 0.0
C1990 C 0.75105 0.64696 0.25129 0.0
C1991 C 0.75621 0.65839 0.24776 0.0
C1992 C 0.75929 0.66492 0.27928 0.0
H1993 H 0.77749 0.70107 0.05954 0.0
H1994 H 0.77226 0.69311 0.1201 0.0
C1995 C 0.75756 0.66008 0.31378 0.0
C1996 C 0.7585 0.66338 0.21091 0.0
H1997 H 0.77933 0.68007 0.15356 0.0
C1998 C 0.74966 0.66045 0.18699 0.0
C1999 C 0.76934 0.6705 0.19866 0.0
C2000 C 0.77919 0.67353 0.22247 0.0
C2001 C 0.75137 0.66456 0.15129 0.0
C2002 C 0.76221 0.67166 0.13906 0.0
C2003 C 0.77103 0.67463 0.16303 0.0
C2004 C 0.76464 0.67627 0.1017 0.0
C2005 C 0.74156 0.66142 0.12717 0.0
C2006 C 0.76205 0.66943 0.07107 0.0
C2007 C 0.76503 0.67397 0.03612 0.0
C2008 C 0.77073 0.68543 0.0313 0.0
C2009 C 0.77315 0.69221 0.06212 0.0
C2010 C 0.77016 0.68768 0.09686 0.0
H2011 H 0.73385 0.65817 0.14315 0.0
H2012 H 0.74267 0.66857 0.11097 0.0
H2013 H 0.74064 0.65492 0.10796 0.0
H2014 H 0.75797 0.6606 0.07425 0.0
H2015 H 0.76309 0.66852 0.01303 0.0
H2016 H 0.92504 0.70123 0.05856 0.0
H2017 H 0.92214 0.69313 0.11891 0.0
H2018 H 0.90314 0.66077 0.07251 0.0
H2019 H 0.90609 0.66884 0.01145 0.0
H2020 H 0.90175 0.68033 0.15213 0.0
H2021 H 0.92464 0.65772 0.14121 0.0
H2022 H 0.92655 0.66834 0.10948 0.0
H2023 H 0.91472 0.65485 0.10592 0.0
C2024 C 0.92031 0.69237 0.06095 0.0
C2025 C 0.91577 0.68569 0.03003 0.0
C2026 C 0.91867 0.68776 0.09559 0.0
C2027 C 0.9125 0.67636 0.10022 0.0
C2028 C 0.90809 0.6696 0.06948 0.0
H2029 H 0.88874 0.63346 0.28611 0.0
H2030 H 0.89394 0.64188 0.22622 0.0
C2031 C 0.90974 0.67422 0.03462 0.0
C2032 C 0.91024 0.6717 0.13751 0.0
H2033 H 0.91414 0.65483 0.19476 0.0
C2034 C 0.9045 0.67479 0.16155 0.0
C2035 C 0.91384 0.66449 0.14966 0.0
C2036 C 0.92036 0.6612 0.1254 0.0
C2037 C 0.90206 0.67069 0.19722 0.0
C2038 C 0.90567 0.66348 0.20944 0.0
C2039 C 0.91144 0.66041 0.18542 0.0
C2040 C 0.903 0.65854 0.24637 0.0
C2041 C 0.89536 0.67386 0.2211 0.0
C2042 C 0.90652 0.66511 0.27782 0.0
C2043 C 0.9035 0.66031 0.31241 0.0
C2044 C 0.89697 0.64884 0.31609 0.0
C2045 C 0.89373 0.64232 0.28445 0.0
C2046 C 0.89672 0.64711 0.25007 0.0
H2047 H 0.89104 0.67725 0.205 0.0
H2048 H 0.88917 0.66669 0.23689 0.0
H2049 H 0.90089 0.68027 0.24063 0.0
H2050 H 0.91157 0.67395 0.27562 0.0
H2051 H 0.90619 0.66556 0.33617 0.0
H2052 H 0.30933 0.23971 0.03992 0.0
H2053 H 0.31757 0.24506 0.10034 0.0
H2054 H 0.33795 0.23088 0.07676 0.0
H2055 H 0.33025 0.22628 0.0153 0.0
H2056 H 0.31606 0.23308 0.15311 0.0
H2057 H 0.36037 0.25798 0.1232 0.0
H2058 H 0.35012 0.2539 0.08807 0.0
H2059 H 0.35474 0.24466 0.10302 0.0
C2060 C 0.31579 0.23802 0.0474 0.0
C2061 C 0.31927 0.23271 0.02296 0.0
C2062 C 0.32046 0.24101 0.082 0.0
C2063 C 0.32851 0.23851 0.09325 0.0
C2064 C 0.33205 0.23326 0.06856 0.0
H2065 H 0.33955 0.23091 0.32258 0.0
H2066 H 0.33225 0.22835 0.26062 0.0
C2067 C 0.32761 0.23057 0.03346 0.0
C2068 C 0.33252 0.24065 0.13156 0.0
H2069 H 0.3556 0.25106 0.18401 0.0
C2070 C 0.32473 0.23715 0.15978 0.0
C2071 C 0.34382 0.24608 0.14058 0.0
C2072 C 0.35273 0.25097 0.11207 0.0
C2073 C 0.32788 0.23884 0.19652 0.0
C2074 C 0.33915 0.24366 0.20554 0.0
C2075 C 0.34694 0.24725 0.17733 0.0
C2076 C 0.34311 0.24521 0.24387 0.0
C2077 C 0.31908 0.2357 0.22503 0.0
C2078 C 0.35184 0.25542 0.25508 0.0
C2079 C 0.35625 0.25674 0.28997 0.0
C2080 C 0.35186 0.24797 0.31474 0.0
C2081 C 0.34292 0.23785 0.30414 0.0
C2082 C 0.33872 0.23642 0.26877 0.0
H2083 H 0.31184 0.2359 0.21384 0.0
H2084 H 0.31622 0.22717 0.23426 0.0
H2085 H 0.32217 0.24126 0.24892 0.0
H2086 H 0.35538 0.26234 0.23658 0.0
H2087 H 0.36316 0.26463 0.29753 0.0
H2088 H 0.77816 0.07673 0.05899 0.0
H2089 H 0.77265 0.07935 0.11922 0.0
H2090 H 0.75796 0.09705 0.0722 0.0
H2091 H 0.76338 0.09436 0.01128 0.0
H2092 H 0.77938 0.09948 0.1521 0.0
H2093 H 0.73392 0.0752 0.14118 0.0
H2094 H 0.74289 0.07373 0.10938 0.0
H2095 H 0.74066 0.08521 0.10587 0.0
C2096 C 0.77367 0.0811 0.06123 0.0
C2097 C 0.77124 0.08536 0.03018 0.0
C2098 C 0.77052 0.08259 0.09579 0.0
C2099 C 0.76483 0.08831 0.10022 0.0
C2100 C 0.76219 0.09243 0.06933 0.0
H2101 H 0.74504 0.11151 0.28633 0.0
H2102 H 0.74825 0.10637 0.22624 0.0
C2103 C 0.76534 0.09094 0.03456 0.0
C2104 C 0.76228 0.09048 0.13743 0.0
H2105 H 0.74125 0.08593 0.19454 0.0
C2106 C 0.77104 0.09647 0.16146 0.0
C2107 C 0.75139 0.08655 0.14953 0.0
C2108 C 0.74165 0.07973 0.12532 0.0
C2109 C 0.76925 0.09882 0.19707 0.0
C2110 C 0.75836 0.09489 0.20922 0.0
C2111 C 0.74958 0.08888 0.18521 0.0
C2112 C 0.75597 0.09741 0.24617 0.0
C2113 C 0.77903 0.10577 0.221 0.0
C2114 C 0.75905 0.09388 0.2775 0.0
C2115 C 0.75726 0.09684 0.31215 0.0
C2116 C 0.7523 0.10334 0.31601 0.0
C2117 C 0.74894 0.10656 0.28449 0.0
C2118 C 0.75073 0.1036 0.25002 0.0
H2119 H 0.78674 0.11023 0.205 0.0
H2120 H 0.77782 0.11186 0.23653 0.0
H2121 H 0.78006 0.1004 0.2408 0.0
H2122 H 0.76293 0.08891 0.27514 0.0
H2123 H 0.75989 0.09417 0.33581 0.0
H2124 H 0.66309 0.89358 0.68563 0.0
H2125 H 0.67056 0.898 0.74749 0.0
H2126 H 0.64967 0.91159 0.77113 0.0
H2127 H 0.64163 0.90638 0.71033 0.0
H2128 H 0.68135 0.91487 0.78656 0.0
H2129 H 0.64085 0.89088 0.85277 0.0
H2130 H 0.64257 0.89061 0.80432 0.0
H2131 H 0.64127 0.90155 0.82502 0.0
C2132 C 0.66019 0.8976 0.70404 0.0
C2133 C 0.65174 0.89957 0.69351 0.0
C2134 C 0.66442 0.9001 0.73942 0.0
C2135 C 0.66042 0.9048 0.76456 0.0
C2136 C 0.65255 0.90752 0.75294 0.0
H2137 H 0.6959 0.93311 0.967 0.0
H2138 H 0.68801 0.93031 0.90598 0.0
C2139 C 0.64808 0.9047 0.71803 0.0
C2140 C 0.66437 0.90673 0.80292 0.0
H2141 H 0.65571 0.90278 0.89133 0.0
C2142 C 0.67573 0.91215 0.80944 0.0
C2143 C 0.65707 0.90297 0.83298 0.0
C2144 C 0.64477 0.89607 0.82842 0.0
C2145 C 0.67998 0.91399 0.84493 0.0
C2146 C 0.67269 0.91087 0.87498 0.0
C2147 C 0.66133 0.90536 0.86845 0.0
C2148 C 0.67665 0.91292 0.91333 0.0
C2149 C 0.69222 0.9189 0.84956 0.0
C2150 C 0.67229 0.90432 0.93892 0.0
C2151 C 0.67645 0.90605 0.97439 0.0
C2152 C 0.68518 0.91635 0.98459 0.0
C2153 C 0.68923 0.92505 0.95957 0.0
C2154 C 0.68483 0.92341 0.92454 0.0
H2155 H 0.69597 0.91728 0.82544 0.0
H2156 H 0.69611 0.92794 0.85249 0.0
H2157 H 0.6942 0.91556 0.87396 0.0
H2158 H 0.6659 0.89616 0.93116 0.0
H2159 H 0.67325 0.8992 0.99318 0.0
H2160 H 0.09586 0.75972 0.67844 0.0
H2161 H 0.09032 0.76256 0.73894 0.0
H2162 H 0.107 0.74713 0.78824 0.0
H2163 H 0.11238 0.74408 0.72838 0.0
H2164 H 0.08674 0.74033 0.81914 0.0
H2165 H 0.11119 0.78584 0.81065 0.0
H2166 H 0.10143 0.7794 0.77452 0.0
H2167 H 0.11282 0.77703 0.77866 0.0
C2168 C 0.09829 0.75688 0.70215 0.0
C2169 C 0.10464 0.75176 0.69847 0.0
C2170 C 0.09518 0.75857 0.73672 0.0
C2171 C 0.09841 0.75522 0.76815 0.0
C2172 C 0.10445 0.74982 0.76442 0.0
H2173 H 0.0948 0.76223 1.00318 0.0
H2174 H 0.09778 0.757 0.94231 0.0
C2175 C 0.10754 0.74812 0.73006 0.0
C2176 C 0.09576 0.75749 0.80509 0.0
H2177 H 0.10017 0.77831 0.86296 0.0
C2178 C 0.08967 0.74863 0.82875 0.0
C2179 C 0.09967 0.76834 0.81767 0.0
C2180 C 0.10673 0.77822 0.79424 0.0
C2181 C 0.08724 0.75031 0.86446 0.0
C2182 C 0.09113 0.76115 0.87694 0.0
C2183 C 0.0972 0.77 0.85328 0.0
C2184 C 0.08879 0.76355 0.91411 0.0
C2185 C 0.08039 0.7405 0.88836 0.0
C2186 C 0.08279 0.76898 0.9184 0.0
C2187 C 0.08112 0.77199 0.95291 0.0
C2188 C 0.08547 0.76971 0.98407 0.0
C2189 C 0.09131 0.76407 0.97983 0.0
C2190 C 0.09298 0.76104 0.94508 0.0
H2191 H 0.07607 0.73277 0.87236 0.0
H2192 H 0.0858 0.7396 0.90836 0.0
H2193 H 0.07421 0.7416 0.90371 0.0
H2194 H 0.0795 0.771 0.89489 0.0
H2195 H 0.07654 0.77629 0.95501 0.0
H2196 H 0.23886 0.33371 1.00488 0.0
H2197 H 0.24366 0.34164 0.94347 0.0
H2198 H 0.23005 0.30918 0.8978 0.0
H2199 H 0.22519 0.30121 0.95843 0.0
H2200 H 0.25679 0.33915 0.88706 0.0
H2201 H 0.21333 0.32244 0.84547 0.0
H2202 H 0.21742 0.32329 0.89245 0.0
H2203 H 0.21641 0.31245 0.86388 0.0
C2204 C 0.23695 0.32827 0.98177 0.0
C2205 C 0.23153 0.31682 0.98663 0.0
C2206 C 0.23969 0.33281 0.94674 0.0
C2207 C 0.23702 0.32597 0.9161 0.0
C2208 C 0.23198 0.31459 0.92101 0.0
H2209 H 0.24108 0.33628 0.68105 0.0
H2210 H 0.23847 0.32824 0.74207 0.0
C2211 C 0.22924 0.31006 0.95581 0.0
C2212 C 0.2393 0.33061 0.87881 0.0
H2213 H 0.22676 0.33052 0.79915 0.0
C2214 C 0.25024 0.33732 0.86785 0.0
C2215 C 0.23073 0.32813 0.85377 0.0
C2216 C 0.2188 0.32126 0.86446 0.0
C2217 C 0.25285 0.34151 0.83226 0.0
C2218 C 0.24426 0.33906 0.80725 0.0
C2219 C 0.23333 0.33232 0.81825 0.0
C2220 C 0.24639 0.34386 0.77015 0.0
C2221 C 0.26477 0.34834 0.82158 0.0
C2222 C 0.25164 0.35528 0.76574 0.0
C2223 C 0.25314 0.35987 0.7311 0.0
C2224 C 0.24934 0.35315 0.69996 0.0
C2225 C 0.24413 0.34169 0.70438 0.0
C2226 C 0.24263 0.33709 0.73922 0.0
H2227 H 0.27014 0.34672 0.83959 0.0
H2228 H 0.26608 0.34671 0.793 0.0
H2229 H 0.26734 0.35717 0.82406 0.0
H2230 H 0.25437 0.36066 0.7892 0.0
H2231 H 0.25715 0.36873 0.72887 0.0
H2232 H 0.00344 0.42761 0.66802 0.0
H2233 H 0.99537 0.42226 0.60706 0.0
H2234 H 0.02768 0.43992 0.55943 0.0
H2235 H 0.03579 0.44514 0.61975 0.0
H2236 H 0.9971 0.43642 0.55129 0.0
H2237 H 0.01445 0.41053 0.50707 0.0
H2238 H 0.01439 0.41424 0.55405 0.0
H2239 H 0.02462 0.42383 0.52318 0.0
C2240 C 0.00883 0.43023 0.64459 0.0
C2241 C 0.02027 0.43679 0.64887 0.0
C2242 C 0.00421 0.42719 0.60978 0.0
C2243 C 0.01094 0.43055 0.57872 0.0
C2244 C 0.02234 0.43701 0.58298 0.0
H2245 H 1.00008 0.4288 0.34465 0.0
H2246 H 0.0082 0.43174 0.4057 0.0
C2247 C 0.02696 0.44006 0.61761 0.0
C2248 C 0.00607 0.42796 0.54171 0.0
H2249 H 0.00636 0.41612 0.4608 0.0
C2250 C 0.99904 0.43189 0.53162 0.0
C2251 C 0.0087 0.42214 0.51596 0.0
C2252 C 0.01587 0.41735 0.52565 0.0
C2253 C 0.99473 0.43035 0.4963 0.0
C2254 C 0.99737 0.42455 0.47053 0.0
C2255 C 0.00439 0.4206 0.48057 0.0
C2256 C 0.99263 0.42227 0.43338 0.0
C2257 C 0.98755 0.43513 0.48661 0.0
C2258 C 0.98126 0.41573 0.42873 0.0
C2259 C 0.97663 0.41406 0.39412 0.0
C2260 C 0.98327 0.41883 0.36326 0.0
C2261 C 0.99473 0.42504 0.36781 0.0
C2262 C 0.99937 0.42673 0.40264 0.0
H2263 H 0.98861 0.44164 0.50606 0.0
H2264 H 0.98939 0.43866 0.45875 0.0
H2265 H 0.97881 0.42854 0.48739 0.0
H2266 H 0.97594 0.41203 0.452 0.0
H2267 H 0.96778 0.40912 0.39171 0.0
H2268 H 0.57378 0.57186 0.3453 0.0
H2269 H 0.5711 0.57743 0.40602 0.0
H2270 H 0.58755 0.5616 0.45421 0.0
H2271 H 0.5904 0.55618 0.39422 0.0
H2272 H 0.55963 0.56363 0.46367 0.0
H2273 H 0.60296 0.59149 0.50329 0.0
H2274 H 0.59889 0.58719 0.45686 0.0
H2275 H 0.60037 0.57824 0.48846 0.0
C2276 C 0.57694 0.56968 0.3688 0.0
C2277 C 0.58232 0.56358 0.36478 0.0
C2278 C 0.57539 0.57286 0.40346 0.0
C2279 C 0.57929 0.57008 0.4346 0.0
C2280 C 0.58471 0.56406 0.43058 0.0
H2281 H 0.5717 0.57308 0.6691 0.0
H2282 H 0.5766 0.56994 0.60784 0.0
C2283 C 0.58625 0.56089 0.39613 0.0
C2284 C 0.57714 0.57284 0.47155 0.0
H2285 H 0.58966 0.58562 0.55098 0.0
C2286 C 0.5662 0.56853 0.48263 0.0
C2287 C 0.58572 0.57915 0.49638 0.0
C2288 C 0.59765 0.58437 0.48559 0.0
C2289 C 0.56359 0.57018 0.51808 0.0
C2290 C 0.57216 0.57643 0.54295 0.0
C2291 C 0.58311 0.58078 0.5319 0.0
C2292 C 0.56986 0.57883 0.58015 0.0
C2293 C 0.55167 0.565 0.52889 0.0
C2294 C 0.56474 0.5851 0.58482 0.0
C2295 C 0.56195 0.5869 0.61952 0.0
C2296 C 0.56426 0.5825 0.65049 0.0
C2297 C 0.56977 0.57654 0.64587 0.0
C2298 C 0.57257 0.57474 0.61093 0.0
H2299 H 0.54623 0.5583 0.51002 0.0
H2300 H 0.55036 0.56164 0.55693 0.0
H2301 H 0.54917 0.57135 0.52824 0.0
H2302 H 0.56277 0.58851 0.56149 0.0
H2303 H 0.55783 0.59163 0.62195 0.0
H2304 H 0.42988 1.0004 0.6715 0.0
H2305 H 0.43294 0.00867 0.61073 0.0
H2306 H 0.41455 0.97643 0.56303 0.0
H2307 H 0.41136 0.96814 0.62318 0.0
H2308 H 0.44367 0.00497 0.55271 0.0
H2309 H 0.40096 0.99296 0.51449 0.0
H2310 H 0.40498 0.99257 0.56087 0.0
H2311 H 0.40253 0.9817 0.52979 0.0
C2312 C 0.42638 0.99509 0.64811 0.0
C2313 C 0.42037 0.98361 0.65229 0.0
C2314 C 0.42814 0.99982 0.61342 0.0
C2315 C 0.42384 0.99316 0.58241 0.0
C2316 C 0.41775 0.98173 0.58659 0.0
H2317 H 0.43071 0.00378 0.3478 0.0
H2318 H 0.42578 0.99577 0.40906 0.0
C2319 C 0.41601 0.97701 0.62109 0.0
C2320 C 0.42625 0.99806 0.54545 0.0
H2321 H 0.41421 0.9997 0.46674 0.0
C2322 C 0.43724 0.0039 0.53403 0.0
C2323 C 0.41784 0.99656 0.52099 0.0
C2324 C 0.40592 0.99069 0.53219 0.0
C2325 C 0.44003 0.00813 0.4986 0.0
C2326 C 0.43162 0.00663 0.47413 0.0
C2327 C 0.42063 1.00079 0.48552 0.0
C2328 C 0.43416 0.01139 0.43701 0.0
C2329 C 0.45196 0.01398 0.48739 0.0
C2330 C 0.44026 0.02281 0.43252 0.0
C2331 C 0.44308 0.02738 0.39779 0.0
C2332 C 0.4398 0.02065 0.36665 0.0
C2333 C 0.4334 0.0092 0.37116 0.0
C2334 C 0.43057 0.00461 0.40611 0.0
H2335 H 0.45698 0.01195 0.50569 0.0
H2336 H 0.45289 0.01183 0.45906 0.0
H2337 H 0.45528 0.02298 0.48868 0.0
H2338 H 0.44292 0.0282 0.45597 0.0
H2339 H 0.44793 0.03624 0.39546 0.0
H2340 H 0.57302 0.99879 0.67074 0.0
H2341 H 0.57864 0.00721 0.61033 0.0
H2342 H 0.5612 0.97518 0.56061 0.0
H2343 H 0.55572 0.96672 0.62041 0.0
H2344 H 0.58179 0.98841 0.53026 0.0
H2345 H 0.5581 0.01028 0.53846 0.0
H2346 H 0.56772 0.01325 0.57483 0.0
H2347 H 0.55612 0.99964 0.57016 0.0
C2348 C 0.57042 0.99354 0.64695 0.0
C2349 C 0.56385 0.98208 0.6505 0.0
C2350 C 0.57359 0.99837 0.61244 0.0
C2351 C 0.57019 0.99182 0.58094 0.0
C2352 C 0.56388 0.98039 0.58451 0.0
H2353 H 0.57448 0.00211 0.3461 0.0
H2354 H 0.57144 0.99412 0.40729 0.0
C2355 C 0.56073 0.97557 0.61883 0.0
C2356 C 0.57299 0.9968 0.54409 0.0
H2357 H 0.56903 0.01348 0.48615 0.0
C2358 C 0.57902 0.9939 0.52058 0.0
C2359 C 0.5693 0.0039 0.53147 0.0
C2360 C 0.56237 0.0069 0.55485 0.0
C2361 C 0.58157 0.99804 0.48493 0.0
C2362 C 0.57785 0.00512 0.47233 0.0
C2363 C 0.57187 0.00805 0.49589 0.0
C2364 C 0.58019 0.00977 0.43501 0.0
C2365 C 0.58837 0.99495 0.46128 0.0
C2366 C 0.58604 0.02119 0.43031 0.0
C2367 C 0.58772 0.02576 0.39557 0.0
C2368 C 0.58355 0.019 0.36463 0.0
C2369 C 0.57785 0.00754 0.3693 0.0
C2370 C 0.57614 0.00296 0.40424 0.0
H2371 H 0.5928 0.99173 0.47761 0.0
H2372 H 0.5829 0.98844 0.44195 0.0
H2373 H 0.59446 0.00211 0.44524 0.0
H2374 H 0.58922 0.0266 0.45364 0.0
H2375 H 0.59218 0.03462 0.3931 0.0
H2376 H 0.96805 0.55785 0.39232 0.0
H2377 H 0.97615 0.56301 0.45266 0.0
H2378 H 0.00848 0.57603 0.40639 0.0
H2379 H 1.00041 0.57094 0.34529 0.0
H2380 H 0.98879 0.55529 0.48625 0.0
H2381 H 0.01173 0.60079 0.47461 0.0
H2382 H 1.00108 0.59208 0.44295 0.0
H2383 H 0.01451 0.5936 0.43955 0.0
C2384 C 0.9769 0.56189 0.39472 0.0
C2385 C 0.98358 0.56396 0.36381 0.0
C2386 C 0.98151 0.56484 0.42936 0.0
C2387 C 0.9929 0.56997 0.43404 0.0
C2388 C 0.99966 0.57222 0.40332 0.0
H2389 H 0.03547 0.58905 0.62083 0.0
H2390 H 0.02718 0.58585 0.56076 0.0
C2391 C 0.99504 0.56927 0.36844 0.0
C2392 C 0.99755 0.57238 0.47136 0.0
H2393 H 0.0144 0.59318 0.52854 0.0
C2394 C 0.99436 0.56358 0.49558 0.0
C2395 C 0.00479 0.5832 0.48342 0.0
C2396 C 0.00819 0.59299 0.45895 0.0
C2397 C 0.99838 0.56526 0.53135 0.0
C2398 C 0.00563 0.57608 0.54348 0.0
C2399 C 0.0088 0.5849 0.51927 0.0
C2400 C 0.01049 0.57836 0.58054 0.0
C2401 C 0.9951 0.5554 0.55543 0.0
C2402 C 0.00386 0.5754 0.61186 0.0
C2403 C 0.0086 0.57717 0.64657 0.0
C2404 C 0.02004 0.58202 0.6505 0.0
C2405 C 0.02663 0.58525 0.61899 0.0
C2406 C 0.0219 0.58345 0.58448 0.0
H2407 H 0.9917 0.54767 0.53947 0.0
H2408 H 0.00222 0.55635 0.57146 0.0
H2409 H 0.98868 0.55459 0.57476 0.0
H2410 H 0.99504 0.57166 0.60945 0.0
H2411 H 0.00329 0.57465 0.67021 0.0
H2412 H 0.44697 0.41097 0.39563 0.0
H2413 H 0.4416 0.41331 0.45649 0.0
H2414 H 0.42427 0.42861 0.4112 0.0
H2415 H 0.42952 0.4262 0.34972 0.0
H2416 H 0.44687 0.43312 0.48952 0.0
H2417 H 0.40169 0.40562 0.48133 0.0
H2418 H 0.41104 0.40506 0.44888 0.0
H2419 H 0.40749 0.41566 0.44565 0.0
C2420 C 0.44194 0.41477 0.39841 0.0
C2421 C 0.43868 0.4184 0.36766 0.0
C2422 C 0.43889 0.4161 0.43332 0.0
C2423 C 0.43245 0.42103 0.43839 0.0
C2424 C 0.42908 0.4246 0.40785 0.0
H2425 H 0.41064 0.44251 0.62273 0.0
H2426 H 0.41412 0.43722 0.56334 0.0
C2427 C 0.43213 0.42327 0.37275 0.0
C2428 C 0.42979 0.4229 0.47583 0.0
H2429 H 0.40855 0.41685 0.53393 0.0
C2430 C 0.4385 0.42951 0.49935 0.0
C2431 C 0.41886 0.41817 0.48854 0.0
C2432 C 0.40922 0.41065 0.46496 0.0
C2433 C 0.43657 0.43175 0.53495 0.0
C2434 C 0.42564 0.42707 0.54763 0.0
C2435 C 0.41693 0.42038 0.52421 0.0
C2436 C 0.42306 0.42959 0.58431 0.0
C2437 C 0.44624 0.4394 0.55827 0.0
C2438 C 0.42672 0.42683 0.61604 0.0
C2439 C 0.42477 0.42989 0.65032 0.0
C2440 C 0.41908 0.43571 0.65338 0.0
C2441 C 0.41512 0.4381 0.62151 0.0
C2442 C 0.41707 0.43506 0.58742 0.0
H2443 H 0.45382 0.44418 0.5419 0.0
H2444 H 0.44452 0.44523 0.57324 0.0
H2445 H 0.44783 0.43451 0.57855 0.0
H2446 H 0.43119 0.42243 0.61426 0.0
H2447 H 0.42788 0.42787 0.67428 0.0
H2448 H 0.10085 0.33688 0.18477 0.0
H2449 H 0.10153 0.3425 0.24802 0.0
H2450 H 0.07173 0.31217 0.27084 0.0
H2451 H 0.07093 0.30646 0.20726 0.0
H2452 H 0.07341 0.33183 0.3051 0.0
H2453 H 0.10996 0.3273 0.32871 0.0
H2454 H 0.11117 0.33597 0.29101 0.0
H2455 H 0.10121 0.32157 0.28943 0.0
C2456 C 0.09434 0.33144 0.20303 0.0
C2457 C 0.08588 0.32116 0.19095 0.0
C2458 C 0.09477 0.33466 0.23926 0.0
C2459 C 0.08679 0.32768 0.26428 0.0
C2460 C 0.07801 0.31766 0.25199 0.0
H2461 H 0.09679 0.33102 0.49765 0.0
H2462 H 0.09164 0.32497 0.43487 0.0
C2463 C 0.07756 0.31442 0.21564 0.0
C2464 C 0.08804 0.33057 0.30358 0.0
H2465 H 0.10492 0.3352 0.37632 0.0
C2466 C 0.08027 0.33254 0.32077 0.0
C2467 C 0.09692 0.33136 0.32408 0.0
C2468 C 0.10525 0.32885 0.30756 0.0
C2469 C 0.08129 0.33551 0.35779 0.0
C2470 C 0.09036 0.3366 0.37798 0.0
C2471 C 0.098 0.33443 0.36084 0.0
C2472 C 0.09213 0.33987 0.41702 0.0
C2473 C 0.07258 0.33729 0.3751 0.0
C2474 C 0.09396 0.35021 0.42818 0.0
C2475 C 0.09689 0.3537 0.46428 0.0
C2476 C 0.09813 0.34694 0.4898 0.0
C2477 C 0.09592 0.33645 0.47877 0.0
C2478 C 0.09298 0.33297 0.44281 0.0
H2479 H 0.06488 0.33346 0.35894 0.0
H2480 H 0.0707 0.33388 0.40311 0.0
H2481 H 0.07562 0.34623 0.37682 0.0
H2482 H 0.09356 0.35577 0.40867 0.0
H2483 H 0.0986 0.36186 0.47177 0.0
H2484 H 0.6451 0.73604 0.47743 0.0
H2485 H 0.65122 0.73608 0.41488 0.0
H2486 H 0.67277 0.77116 0.42098 0.0
H2487 H 0.6671 0.77108 0.48357 0.0
H2488 H 0.64896 0.74489 0.35649 0.0
H2489 H 0.6935 0.76321 0.3773 0.0
H2490 H 0.68396 0.75856 0.41484 0.0
H2491 H 0.68903 0.77209 0.39588 0.0
C2492 C 0.6513 0.74372 0.4656 0.0
C2493 C 0.65569 0.75354 0.48567 0.0
C2494 C 0.65478 0.74374 0.42979 0.0
C2495 C 0.66266 0.75359 0.41321 0.0
C2496 C 0.66699 0.76338 0.43331 0.0
H2497 H 0.66897 0.77111 0.18807 0.0
H2498 H 0.66329 0.76561 0.25069 0.0
C2499 C 0.66366 0.76334 0.46918 0.0
C2500 C 0.66581 0.75384 0.37424 0.0
H2501 H 0.68785 0.76499 0.31663 0.0
C2502 C 0.65747 0.74914 0.34788 0.0
C2503 C 0.67692 0.75912 0.36266 0.0
C2504 C 0.68634 0.7634 0.38926 0.0
C2505 C 0.65991 0.75008 0.31048 0.0
C2506 C 0.67099 0.75625 0.29886 0.0
C2507 C 0.67934 0.76043 0.32524 0.0
C2508 C 0.67408 0.75899 0.25977 0.0
C2509 C 0.65052 0.74438 0.28395 0.0
C2510 C 0.68231 0.75744 0.24384 0.0
C2511 C 0.68578 0.76084 0.20799 0.0
C2512 C 0.68105 0.76581 0.18723 0.0
C2513 C 0.67269 0.76717 0.20301 0.0
C2514 C 0.66936 0.76393 0.23891 0.0
H2515 H 0.64358 0.73692 0.29631 0.0
H2516 H 0.64743 0.75 0.27661 0.0
H2517 H 0.6531 0.74194 0.25874 0.0
H2518 H 0.68616 0.75372 0.25933 0.0
H2519 H 0.69228 0.75973 0.19673 0.0
H2520 H 0.24301 0.93254 0.20132 0.0
H2521 H 0.24942 0.93298 0.26372 0.0
H2522 H 0.23595 0.89788 0.26036 0.0
H2523 H 0.22999 0.89747 0.19798 0.0
H2524 H 0.23836 0.92436 0.3228 0.0
H2525 H 0.26498 0.90645 0.30304 0.0
H2526 H 0.25996 0.91087 0.26526 0.0
H2527 H 0.25165 0.89738 0.28471 0.0
C2528 C 0.24161 0.92496 0.21372 0.0
C2529 C 0.23607 0.91499 0.19453 0.0
C2530 C 0.24525 0.92521 0.24942 0.0
C2531 C 0.2434 0.9155 0.26669 0.0
C2532 C 0.23786 0.90556 0.24743 0.0
H2533 H 0.23162 0.89771 0.49015 0.0
H2534 H 0.23179 0.90349 0.42768 0.0
C2535 C 0.23436 0.90532 0.21171 0.0
C2536 C 0.24644 0.91552 0.30558 0.0
H2537 H 0.25746 0.90466 0.36372 0.0
C2538 C 0.24272 0.92021 0.33165 0.0
C2539 C 0.25236 0.91037 0.31741 0.0
C2540 C 0.25757 0.90611 0.29102 0.0
C2541 C 0.24417 0.91933 0.36909 0.0
C2542 C 0.24914 0.91325 0.38097 0.0
C2543 C 0.25346 0.90914 0.35486 0.0
C2544 C 0.2493 0.91043 0.42001 0.0
C2545 C 0.24032 0.92494 0.39541 0.0
C2546 C 0.25903 0.91208 0.4366 0.0
C2547 C 0.25891 0.90854 0.47236 0.0
C2548 C 0.24906 0.90331 0.49229 0.0
C2549 C 0.23939 0.90184 0.47583 0.0
C2550 C 0.23949 0.90524 0.44005 0.0
H2551 H 0.24081 0.93238 0.38299 0.0
H2552 H 0.23159 0.91925 0.40244 0.0
H2553 H 0.24525 0.92739 0.42081 0.0
H2554 H 0.26671 0.91598 0.42169 0.0
H2555 H 0.26649 0.90974 0.48418 0.0
H2556 H 0.33171 0.09922 0.51633 0.0
H2557 H 0.32593 0.09453 0.57958 0.0
H2558 H 0.3559 0.09449 0.60377 0.0
H2559 H 0.36173 0.09908 0.54018 0.0
H2560 H 0.33676 0.07719 0.63879 0.0
H2561 H 0.34058 0.11807 0.6593 0.0
H2562 H 0.33176 0.11034 0.62228 0.0
H2563 H 0.34618 0.11489 0.62004 0.0
C2564 C 0.33703 0.09808 0.53491 0.0
C2565 C 0.34724 0.09963 0.52319 0.0
C2566 C 0.33372 0.09543 0.57115 0.0
C2567 C 0.34057 0.09437 0.59659 0.0
C2568 C 0.35051 0.09533 0.58464 0.0
H2569 H 0.33688 0.10237 0.82915 0.0
H2570 H 0.34291 0.10314 0.76641 0.0
C2571 C 0.35383 0.09795 0.54827 0.0
C2572 C 0.33763 0.0929 0.6359 0.0
H2573 H 0.33263 0.10529 0.70742 0.0
C2574 C 0.33588 0.08333 0.65388 0.0
C2575 C 0.33664 0.10099 0.65572 0.0
C2576 C 0.33898 0.1117 0.63852 0.0
C2577 C 0.33295 0.08156 0.69096 0.0
C2578 C 0.33163 0.08952 0.71044 0.0
C2579 C 0.33356 0.09915 0.69251 0.0
C2580 C 0.32838 0.0882 0.74952 0.0
C2581 C 0.33148 0.07129 0.70909 0.0
C2582 C 0.31825 0.07944 0.76127 0.0
C2583 C 0.31479 0.07894 0.79737 0.0
C2584 C 0.32134 0.08726 0.82233 0.0
C2585 C 0.33161 0.09583 0.81071 0.0
C2586 C 0.33507 0.0963 0.77477 0.0
H2587 H 0.3356 0.06758 0.69359 0.0
H2588 H 0.33479 0.07303 0.73723 0.0
H2589 H 0.32259 0.06515 0.71055 0.0
H2590 H 0.31283 0.07321 0.7422 0.0
H2591 H 0.3068 0.07227 0.80532 0.0
H2592 H 0.93376 0.24472 0.81202 0.0
H2593 H 0.93372 0.25075 0.7494 0.0
H2594 H 0.8987 0.23757 0.75597 0.0
H2595 H 0.89879 0.23206 0.81863 0.0
H2596 H 0.92483 0.2396 0.6915 0.0
H2597 H 0.90678 0.26609 0.71104 0.0
H2598 H 0.91139 0.26127 0.74886 0.0
H2599 H 0.89782 0.25283 0.73013 0.0
C2600 C 0.9261 0.24332 0.80029 0.0
C2601 C 0.9163 0.23801 0.82049 0.0
C2602 C 0.92608 0.24674 0.76443 0.0
C2603 C 0.91624 0.24485 0.74794 0.0
C2604 C 0.90647 0.23953 0.76822 0.0
H2605 H 0.89818 0.23248 0.52378 0.0
H2606 H 0.90389 0.23269 0.58636 0.0
C2607 C 0.90653 0.23628 0.80413 0.0
C2608 C 0.91597 0.24763 0.70887 0.0
H2609 H 0.90471 0.25828 0.65075 0.0
C2610 C 0.92059 0.24385 0.6827 0.0
C2611 C 0.91069 0.25343 0.69701 0.0
C2612 C 0.90652 0.25874 0.72334 0.0
C2613 C 0.91956 0.24517 0.64523 0.0
C2614 C 0.91336 0.25003 0.63338 0.0
C2615 C 0.90928 0.25436 0.65955 0.0
C2616 C 0.91048 0.25015 0.59432 0.0
C2617 C 0.92519 0.24135 0.61889 0.0
C2618 C 0.91193 0.25981 0.5778 0.0
C2619 C 0.90839 0.25965 0.54199 0.0
C2620 C 0.9034 0.24983 0.52186 0.0
C2621 C 0.90214 0.24023 0.53823 0.0
C2622 C 0.9055 0.24036 0.5741 0.0
H2623 H 0.9327 0.24197 0.63116 0.0
H2624 H 0.91956 0.23258 0.61216 0.0
H2625 H 0.92752 0.24621 0.59335 0.0
H2626 H 0.91567 0.26747 0.59279 0.0
H2627 H 0.90943 0.26718 0.53025 0.0
H2628 H 0.7645 0.66362 0.83002 0.0
H2629 H 0.75966 0.65798 0.76673 0.0
H2630 H 0.75975 0.68809 0.74388 0.0
H2631 H 0.76453 0.69379 0.80748 0.0
H2632 H 0.7421 0.66851 0.70903 0.0
H2633 H 0.78338 0.67339 0.68678 0.0
H2634 H 0.77584 0.66458 0.7241 0.0
H2635 H 0.78016 0.67895 0.72608 0.0
C2636 C 0.76335 0.66899 0.81174 0.0
C2637 C 0.76501 0.67922 0.8238 0.0
C2638 C 0.76061 0.66576 0.7755 0.0
C2639 C 0.75953 0.67269 0.75044 0.0
C2640 C 0.76059 0.68263 0.76274 0.0
H2641 H 0.76719 0.66985 0.5175 0.0
H2642 H 0.76783 0.67573 0.58036 0.0
C2643 C 0.76332 0.68588 0.79911 0.0
C2644 C 0.75803 0.66986 0.7111 0.0
H2645 H 0.77059 0.66547 0.63876 0.0
C2646 C 0.74833 0.66786 0.69357 0.0
C2647 C 0.76622 0.66917 0.69087 0.0
C2648 C 0.77704 0.67173 0.70773 0.0
C2649 C 0.74653 0.66499 0.65645 0.0
C2650 C 0.75461 0.664 0.63653 0.0
C2651 C 0.76437 0.66617 0.65403 0.0
C2652 C 0.75328 0.66083 0.5974 0.0
C2653 C 0.73609 0.66321 0.63877 0.0
C2654 C 0.74477 0.65055 0.58574 0.0
C2655 C 0.74435 0.64716 0.54959 0.0
C2656 C 0.7525 0.65396 0.52452 0.0
C2657 C 0.76079 0.66439 0.53604 0.0
C2658 C 0.76117 0.66777 0.57204 0.0
H2659 H 0.73217 0.66704 0.65474 0.0
H2660 H 0.73769 0.66664 0.61077 0.0
H2661 H 0.73018 0.65427 0.63699 0.0
H2662 H 0.7387 0.64495 0.60491 0.0
H2663 H 0.7379 0.63905 0.5417 0.0
H2664 H 0.90974 0.64414 0.53182 0.0
H2665 H 0.91552 0.65008 0.59468 0.0
H2666 H 0.90189 0.67154 0.58827 0.0
H2667 H 0.89665 0.66609 0.5253 0.0
H2668 H 0.92015 0.68137 0.62412 0.0
H2669 H 0.89564 0.63925 0.68023 0.0
H2670 H 0.90601 0.64073 0.64865 0.0
H2671 H 0.89475 0.64235 0.63325 0.0
C2672 C 0.90809 0.65021 0.54376 0.0
C2673 C 0.90269 0.6546 0.52357 0.0
C2674 C 0.9113 0.65352 0.57985 0.0
C2675 C 0.9089 0.66106 0.59674 0.0
C2676 C 0.90382 0.66569 0.5761 0.0
H2677 H 0.89758 0.66849 0.82046 0.0
H2678 H 0.89752 0.66313 0.75745 0.0
C2679 C 0.90081 0.66255 0.53997 0.0
C2680 C 0.91138 0.66405 0.63598 0.0
H2681 H 0.90607 0.65337 0.72199 0.0
C2682 C 0.91711 0.67523 0.64553 0.0
C2683 C 0.90733 0.65607 0.66406 0.0
C2684 C 0.9005 0.64394 0.65615 0.0
C2685 C 0.91857 0.67866 0.68206 0.0
C2686 C 0.9146 0.67068 0.71014 0.0
C2687 C 0.90919 0.6595 0.7006 0.0
C2688 C 0.91502 0.67367 0.74935 0.0
C2689 C 0.92384 0.6908 0.68994 0.0
C2690 C 0.92491 0.68122 0.76644 0.0
C2691 C 0.92493 0.68449 0.80255 0.0
C2692 C 0.9151 0.68003 0.82255 0.0
C2693 C 0.90532 0.67208 0.80594 0.0
C2694 C 0.90527 0.66899 0.76978 0.0
H2695 H 0.92369 0.69547 0.66578 0.0
H2696 H 0.91961 0.69237 0.7127 0.0
H2697 H 0.93255 0.69404 0.69764 0.0
H2698 H 0.93261 0.68471 0.75178 0.0
H2699 H 0.93262 0.69056 0.81467 0.0
H2700 H 0.33356 0.22926 0.81475 0.0
H2701 H 0.33913 0.23508 0.75228 0.0
H2702 H 0.31779 0.24887 0.7484 0.0
H2703 H 0.3118 0.24262 0.81091 0.0
H2704 H 0.31519 0.23759 0.6896 0.0
H2705 H 0.35978 0.26398 0.70892 0.0
H2706 H 0.3554 0.25067 0.72767 0.0
H2707 H 0.35035 0.25913 0.74677 0.0
C2708 C 0.33015 0.23367 0.80089 0.0
C2709 C 0.32227 0.23551 0.81796 0.0
C2710 C 0.33342 0.23709 0.76511 0.0
C2711 C 0.3291 0.24267 0.74568 0.0
C2712 C 0.32133 0.24467 0.76283 0.0
H2713 H 0.35787 0.26511 0.52771 0.0
H2714 H 0.3519 0.26552 0.59012 0.0
C2715 C 0.31792 0.24111 0.79861 0.0
C2716 C 0.33211 0.2456 0.70672 0.0
H2717 H 0.35396 0.25635 0.64843 0.0
C2718 C 0.32368 0.24187 0.68069 0.0
C2719 C 0.34318 0.25143 0.6948 0.0
C2720 C 0.35267 0.25664 0.72112 0.0
C2721 C 0.32599 0.24322 0.64323 0.0
C2722 C 0.33704 0.24809 0.63129 0.0
C2723 C 0.34548 0.25242 0.65734 0.0
C2724 C 0.33999 0.24814 0.59228 0.0
C2725 C 0.31653 0.23936 0.61694 0.0
C2726 C 0.33531 0.23827 0.57253 0.0
C2727 C 0.33858 0.23805 0.5368 0.0
C2728 C 0.34681 0.24766 0.5201 0.0
C2729 C 0.35148 0.25757 0.53972 0.0
C2730 C 0.34809 0.25781 0.57544 0.0
H2731 H 0.30962 0.23992 0.62928 0.0
H2732 H 0.31903 0.24423 0.59142 0.0
H2733 H 0.31344 0.2306 0.61014 0.0
H2734 H 0.32934 0.23062 0.5851 0.0
H2735 H 0.3349 0.23024 0.52272 0.0
H2736 H 0.7661 0.07071 0.80666 0.0
H2737 H 0.76116 0.07135 0.74302 0.0
H2738 H 0.76026 0.10099 0.76511 0.0
H2739 H 0.76524 0.10048 0.82842 0.0
H2740 H 0.7431 0.07266 0.70845 0.0
H2741 H 0.78387 0.10961 0.68452 0.0
H2742 H 0.78096 0.10097 0.72405 0.0
H2743 H 0.77631 0.11076 0.72201 0.0
C2744 C 0.76469 0.07727 0.79811 0.0
C2745 C 0.76618 0.0856 0.8226 0.0
C2746 C 0.76187 0.07762 0.76172 0.0
C2747 C 0.76052 0.08631 0.7492 0.0
C2748 C 0.76143 0.0943 0.77404 0.0
H2749 H 0.73773 0.09728 0.54128 0.0
H2750 H 0.73886 0.09235 0.60445 0.0
C2751 C 0.76425 0.09397 0.81031 0.0
C2752 C 0.75885 0.08747 0.70986 0.0
H2753 H 0.7709 0.10432 0.6369 0.0
C2754 C 0.74917 0.07955 0.69271 0.0
C2755 C 0.76686 0.09639 0.68926 0.0
C2756 C 0.77764 0.10488 0.70571 0.0
C2757 C 0.7472 0.08047 0.65565 0.0
C2758 C 0.75508 0.08958 0.63536 0.0
C2759 C 0.76482 0.09737 0.65245 0.0
C2760 C 0.75353 0.09127 0.59628 0.0
C2761 C 0.73679 0.07161 0.63839 0.0
C2762 C 0.76136 0.09227 0.57056 0.0
C2763 C 0.76077 0.09515 0.53457 0.0
C2764 C 0.75235 0.09714 0.52343 0.0
C2765 C 0.74427 0.09574 0.54887 0.0
C2766 C 0.74488 0.09287 0.585 0.0
H2767 H 0.73304 0.06392 0.65464 0.0
H2768 H 0.73075 0.07448 0.63659 0.0
H2769 H 0.73838 0.06976 0.61042 0.0
H2770 H 0.76812 0.0911 0.57859 0.0
H2771 H 0.76714 0.09615 0.51575 0.0
H2772 H 0.66496 0.90091 0.18205 0.0
H2773 H 0.65881 0.90013 0.24462 0.0
H2774 H 0.68925 0.92954 0.2701 0.0
H2775 H 0.6954 0.93049 0.20712 0.0
H2776 H 0.66886 0.89739 0.30291 0.0
H2777 H 0.66692 0.93557 0.31974 0.0
H2778 H 0.66762 0.93028 0.27567 0.0
H2779 H 0.67983 0.93781 0.30259 0.0
C2780 C 0.67028 0.90734 0.20073 0.0
C2781 C 0.68069 0.91575 0.18957 0.0
C2782 C 0.66675 0.90688 0.23656 0.0
C2783 C 0.67352 0.9148 0.2621 0.0
C2784 C 0.68378 0.92344 0.25077 0.0
H2785 H 0.67054 0.90277 0.49386 0.0
H2786 H 0.67614 0.90774 0.43063 0.0
C2787 C 0.68731 0.92395 0.21477 0.0
C2788 C 0.67026 0.91335 0.30111 0.0
H2789 H 0.66561 0.92562 0.37395 0.0
C2790 C 0.6681 0.90356 0.31833 0.0
C2791 C 0.66918 0.92135 0.32124 0.0
C2792 C 0.67091 0.93181 0.30384 0.0
C2793 C 0.66505 0.90159 0.35509 0.0
C2794 C 0.66433 0.90972 0.37556 0.0
C2795 C 0.66629 0.91945 0.3583 0.0
C2796 C 0.66153 0.90815 0.4149 0.0
C2797 C 0.66248 0.89072 0.37158 0.0
C2798 C 0.65167 0.90723 0.42751 0.0
C2799 C 0.64846 0.90444 0.46388 0.0
C2800 C 0.65506 0.90255 0.48819 0.0
C2801 C 0.6652 0.90407 0.47583 0.0
C2802 C 0.66841 0.90688 0.43962 0.0
H2803 H 0.6607 0.88441 0.3504 0.0
H2804 H 0.66967 0.89184 0.3875 0.0
H2805 H 0.65533 0.8876 0.39023 0.0
H2806 H 0.64626 0.90822 0.4089 0.0
H2807 H 0.64061 0.90335 0.47252 0.0
H2808 H 0.09981 0.73763 0.4736 0.0
H2809 H 0.09511 0.73874 0.41003 0.0
H2810 H 0.09453 0.76844 0.43421 0.0
H2811 H 0.09932 0.76748 0.49744 0.0
H2812 H 0.07747 0.74021 0.37551 0.0
H2813 H 0.11803 0.77762 0.35393 0.0
H2814 H 0.11507 0.76887 0.39318 0.0
H2815 H 0.11029 0.77857 0.39122 0.0
C2816 C 0.09853 0.74432 0.46551 0.0
C2817 C 0.10005 0.75252 0.49058 0.0
C2818 C 0.09585 0.74494 0.42915 0.0
C2819 C 0.09467 0.75378 0.41722 0.0
C2820 C 0.0956 0.76165 0.44263 0.0
H2821 H 0.07186 0.76493 0.20911 0.0
H2822 H 0.07303 0.76 0.27227 0.0
C2823 C 0.0983 0.76105 0.47886 0.0
C2824 C 0.09308 0.75517 0.37795 0.0
H2825 H 0.10513 0.77252 0.30607 0.0
C2826 C 0.08351 0.74725 0.36025 0.0
C2827 C 0.10105 0.76428 0.35792 0.0
C2828 C 0.11174 0.77278 0.37485 0.0
C2829 C 0.08162 0.74834 0.32323 0.0
C2830 C 0.08946 0.75763 0.30353 0.0
C2831 C 0.09909 0.76543 0.32117 0.0
C2832 C 0.08801 0.75946 0.26447 0.0
C2833 C 0.07135 0.73944 0.30538 0.0
C2834 C 0.09602 0.7608 0.23896 0.0
C2835 C 0.09541 0.76368 0.20298 0.0
C2836 C 0.08679 0.76533 0.1916 0.0
C2837 C 0.07857 0.76364 0.21687 0.0
C2838 C 0.0792 0.76078 0.253 0.0
H2839 H 0.06771 0.73165 0.3211 0.0
H2840 H 0.06517 0.74213 0.30384 0.0
H2841 H 0.07308 0.73782 0.27728 0.0
H2842 H 0.1029 0.75986 0.24713 0.0
H2843 H 0.10189 0.76491 0.18431 0.0
H2844 H 0.23166 0.33448 0.19634 0.0
H2845 H 0.23731 0.33998 0.25896 0.0
H2846 H 0.25019 0.31787 0.26446 0.0
H2847 H 0.24402 0.3119 0.20189 0.0
H2848 H 0.23915 0.31563 0.3226 0.0
H2849 H 0.26594 0.36016 0.30369 0.0
H2850 H 0.2527 0.35602 0.28481 0.0
H2851 H 0.26101 0.35079 0.26571 0.0
C2852 C 0.23585 0.33089 0.2106 0.0
C2853 C 0.23744 0.32279 0.19396 0.0
C2854 C 0.23917 0.33413 0.24648 0.0
C2855 C 0.24445 0.32958 0.26644 0.0
C2856 C 0.24622 0.32159 0.24967 0.0
H2857 H 0.2669 0.35837 0.48447 0.0
H2858 H 0.2672 0.35246 0.42188 0.0
C2859 C 0.24272 0.3182 0.21384 0.0
C2860 C 0.2473 0.33257 0.30552 0.0
H2861 H 0.25811 0.35438 0.36399 0.0
C2862 C 0.24347 0.32412 0.33154 0.0
C2863 C 0.25318 0.34362 0.31755 0.0
C2864 C 0.25854 0.35314 0.29136 0.0
C2865 C 0.24482 0.32641 0.36903 0.0
C2866 C 0.24974 0.33745 0.38107 0.0
C2867 C 0.25413 0.3459 0.35505 0.0
C2868 C 0.24986 0.34039 0.42018 0.0
C2869 C 0.24094 0.31691 0.39521 0.0
C2870 C 0.24005 0.33561 0.44032 0.0
C2871 C 0.23991 0.33881 0.47621 0.0
C2872 C 0.24953 0.34711 0.49268 0.0
C2873 C 0.25937 0.35192 0.47264 0.0
C2874 C 0.25953 0.34856 0.4368 0.0
H2875 H 0.24152 0.31002 0.38279 0.0
H2876 H 0.24579 0.31937 0.42077 0.0
H2877 H 0.23218 0.3138 0.40192 0.0
H2878 H 0.23238 0.3296 0.42796 0.0
H2879 H 0.23215 0.33504 0.49059 0.0
H2880 H 0.99818 0.42964 0.84972 0.0
H2881 H 0.99255 0.42505 0.91313 0.0
H2882 H 0.02323 0.42654 0.93779 0.0
H2883 H 0.02894 0.43106 0.87407 0.0
H2884 H 0.00406 0.40874 0.97336 0.0
H2885 H 0.00707 0.44937 0.99147 0.0
H2886 H 0.99842 0.44134 0.95453 0.0
H2887 H 0.01291 0.44622 0.95279 0.0
C2888 C 0.00369 0.42884 0.86843 0.0
C2889 C 0.01407 0.43082 0.85682 0.0
C2890 C 1.00046 0.42625 0.90474 0.0
C2891 C 0.00755 0.42565 0.93033 0.0
C2892 C 0.01765 0.42702 0.91852 0.0
H2893 H 0.00439 0.43451 0.1624 0.0
H2894 H 0.01027 0.43502 0.09961 0.0
C2895 C 0.0209 0.4296 0.88208 0.0
C2896 C 0.00467 0.42432 0.96965 0.0
H2897 H 0.99956 0.43686 0.04042 0.0
C2898 C 0.00309 0.41489 0.98811 0.0
C2899 C 0.00357 0.43241 0.98897 0.0
C2900 C 0.00567 0.44296 0.97111 0.0
C2901 C 1.00023 0.41326 0.02525 0.0
C2902 C 0.99882 0.42123 0.04426 0.0
C2903 C 1.00057 0.43072 0.02584 0.0
C2904 C 0.99566 0.42006 0.08338 0.0
C2905 C 0.99891 0.40312 0.04396 0.0
C2906 C 0.98554 0.41138 0.09546 0.0
C2907 C 0.98215 0.41104 0.13157 0.0
C2908 C 0.98879 0.41943 0.15619 0.0
C2909 C 0.99906 0.42791 0.14423 0.0
C2910 C 0.00244 0.42823 0.10827 0.0
H2911 H 0.00296 0.39933 0.02851 0.0
H2912 H 0.00238 0.40507 0.07187 0.0
H2913 H 0.99004 0.39697 0.04611 0.0
H2914 H 0.98007 0.40509 0.07665 0.0
H2915 H 0.97416 0.40443 0.13979 0.0
H2916 H 0.5645 0.56302 0.15532 0.0
H2917 H 0.56439 0.56832 0.09235 0.0
H2918 H 0.59949 0.58193 0.08647 0.0
H2919 H 0.59955 0.57609 0.14932 0.0
H2920 H 0.57287 0.5866 0.05674 0.0
H2921 H 0.59058 0.56221 1.00061 0.0
H2922 H 0.58652 0.56124 0.04754 0.0
H2923 H 0.59943 0.57253 0.03238 0.0
C2924 C 0.57223 0.56719 0.14077 0.0
C2925 C 0.58203 0.56904 0.15731 0.0
C2926 C 0.57215 0.57023 0.10463 0.0
C2927 C 0.58189 0.57533 0.08414 0.0
C2928 C 0.5918 0.5777 0.10117 0.0
H2929 H 0.57649 0.59946 0.86649 0.0
H2930 H 0.58222 0.59932 0.92944 0.0
C2931 C 0.59185 0.57445 0.13726 0.0
C2932 C 0.58144 0.57787 0.04491 0.0
H2933 H 0.58701 0.57274 0.95891 0.0
C2934 C 0.576 0.5836 0.03535 0.0
C2935 C 0.58542 0.57387 0.01684 0.0
C2936 C 0.59072 0.56703 0.02474 0.0
C2937 C 0.57411 0.58514 0.9988 0.0
C2938 C 0.57818 0.58123 0.97073 0.0
C2939 C 0.58394 0.57581 0.9803 0.0
C2940 C 0.57571 0.58173 0.93148 0.0
C2941 C 0.56724 0.5904 0.99089 0.0
C2942 C 0.5707 0.57203 0.91079 0.0
C2943 C 0.56773 0.57216 0.8746 0.0
C2944 C 0.56956 0.58197 0.85819 0.0
C2945 C 0.57488 0.59175 0.87844 0.0
C2946 C 0.57805 0.59166 0.91458 0.0
H2947 H 0.56236 0.59019 0.01496 0.0
H2948 H 0.57273 0.59914 0.98344 0.0
H2949 H 0.56151 0.58623 0.96796 0.0
H2950 H 0.56881 0.56426 0.92295 0.0
H2951 H 0.56362 0.56445 0.85989 0.0
H2952 H 0.43843 0.00255 0.15703 0.0
H2953 H 0.43316 0.99727 0.09398 0.0
H2954 H 0.42031 0.0194 0.08799 0.0
H2955 H 0.42614 0.02517 0.15092 0.0
H2956 H 0.41501 0.98787 0.05789 0.0
H2957 H 0.44021 0.03001 1.00263 0.0
H2958 H 0.44096 0.02678 0.04957 0.0
H2959 H 0.42987 0.02868 0.03411 0.0
C2960 C 0.43443 0.00627 0.14244 0.0
C2961 C 0.4328 0.01436 0.15897 0.0
C2962 C 0.4314 0.00323 0.10625 0.0
C2963 C 0.42654 0.00809 0.0857 0.0
C2964 C 0.42437 0.01577 0.10274 0.0
H2965 H 0.40292 0.97905 0.86715 0.0
H2966 H 0.40288 0.9849 0.92999 0.0
C2967 C 0.4276 0.01899 0.13888 0.0
C2968 C 0.42406 0.0052 0.04639 0.0
H2969 H 0.42966 0.01603 0.96059 0.0
C2970 C 0.41819 0.99404 0.03662 0.0
C2971 C 0.42828 0.01323 0.01847 0.0
C2972 C 0.43527 0.02533 0.02661 0.0
C2973 C 0.41674 0.99067 1.00002 0.0
C2974 C 0.42087 0.9987 0.97209 0.0
C2975 C 0.42641 0.00986 0.98186 0.0
C2976 C 0.42049 0.99577 0.93285 0.0
C2977 C 0.41132 0.97854 0.99193 0.0
C2978 C 0.43028 1.00036 0.91264 0.0
C2979 C 0.43027 0.99728 0.8765 0.0
C2980 C 0.42048 0.98942 0.85968 0.0
C2981 C 0.41061 0.98505 0.87944 0.0
C2982 C 0.4106 0.98831 0.91552 0.0
H2983 H 0.41133 0.97378 0.01603 0.0
H2984 H 0.40264 0.97544 0.98407 0.0
H2985 H 0.41552 0.97691 0.96922 0.0
H2986 H 0.43803 0.00614 0.92515 0.0
H2987 H 0.43803 1.0008 0.86217 0.0
H2988 H 0.5698 0.97251 0.87392 0.0
H2989 H 0.57476 0.97812 0.93752 0.0
H2990 H 0.57546 0.00856 0.91537 0.0
H2991 H 0.57043 0.00302 0.85211 0.0
H2992 H 0.59269 0.99743 0.9722 0.0
H2993 H 0.5519 0.99358 0.99584 0.0
H2994 H 0.55485 0.98791 0.95625 0.0
H2995 H 0.55948 0.00235 0.95849 0.0
C2996 C 0.57117 0.98047 0.88245 0.0
C2997 C 0.56961 0.98726 0.85797 0.0
C2998 C 0.57401 0.98367 0.91882 0.0
C2999 C 0.57529 0.99368 0.93132 0.0
C3000 C 0.57433 1.00072 0.90646 0.0
H3001 H 0.59795 0.0273 0.13958 0.0
H3002 H 0.59688 0.02129 0.07638 0.0
C3003 C 0.57149 0.99754 0.87023 0.0
C3004 C 0.57694 0.9965 0.97067 0.0
H3005 H 0.56485 0.00128 0.04354 0.0
C3006 C 0.5866 0.99825 0.98789 0.0
C3007 C 0.56892 0.99742 0.99121 0.0
C3008 C 0.55815 0.99513 0.97469 0.0
C3009 C 0.58855 0.00112 0.02499 0.0
C3010 C 0.58066 0.00235 0.04521 0.0
C3011 C 0.57093 1.00041 0.02803 0.0
C3012 C 0.58216 0.00554 0.08432 0.0
C3013 C 0.59893 0.00265 0.04233 0.0
C3014 C 0.5743 0.9987 0.10993 0.0
C3015 C 0.57485 0.00214 0.14594 0.0
C3016 C 0.58328 0.01253 0.15722 0.0
C3017 C 0.5914 0.01922 0.13189 0.0
C3018 C 0.59082 0.01577 0.09574 0.0
H3019 H 0.60269 0.9987 0.02611 0.0
H3020 H 0.60498 0.01155 0.04419 0.0
H3021 H 0.59732 0.99919 0.07029 0.0
H3022 H 0.56753 0.99079 0.10179 0.0
H3023 H 0.56846 0.99677 0.16467 0.0
H3024 H 0.00211 0.56494 0.85945 0.0
H3025 H 0.99655 0.56494 0.9221 0.0
H3026 H 0.01943 0.59972 0.92962 0.0
H3027 H 0.02543 0.59966 0.86698 0.0
H3028 H 0.02123 0.59034 0.98713 0.0
H3029 H 0.97692 0.57398 0.96768 0.0
H3030 H 0.98072 0.5647 0.94813 0.0
H3031 H 0.98636 0.57839 0.92989 0.0
C3032 C 0.00586 0.57265 0.87415 0.0
C3033 C 0.01418 0.58232 0.85805 0.0
C3034 C 0.00259 0.57265 0.91006 0.0
C3035 C 0.00735 0.58237 0.93061 0.0
C3036 C 0.01555 0.59211 0.91437 0.0
H3037 H 0.97861 0.57618 0.14872 0.0
H3038 H 0.98467 0.58242 0.08625 0.0
C3039 C 0.01896 0.59208 0.8785 0.0
C3040 C 0.00433 0.58211 0.96972 0.0
H3041 H 0.98241 0.57143 0.02779 0.0
C3042 C 0.01273 0.58637 0.99592 0.0
C3043 C 0.99327 0.57719 0.98157 0.0
C3044 C 0.98383 0.57343 0.95524 0.0
C3045 C 0.01039 0.5853 0.03338 0.0
C3046 C 0.99931 0.57943 0.04519 0.0
C3047 C 0.99092 0.57574 0.01902 0.0
C3048 C 0.99624 0.57651 0.08419 0.0
C3049 C 0.01986 0.59052 0.05978 0.0
C3050 C 1.00067 0.5711 0.10406 0.0
C3051 C 0.99738 0.56774 0.13989 0.0
C3052 C 0.98934 0.56942 0.15656 0.0
C3053 C 0.98486 0.57481 0.13675 0.0
C3054 C 0.98831 0.57835 0.10098 0.0
H3055 H 0.02695 0.59791 0.0477 0.0
H3056 H 0.0175 0.59295 0.08546 0.0
H3057 H 0.02264 0.58459 0.06624 0.0
H3058 H 0.00649 0.56919 0.09156 0.0
H3059 H 1.00088 0.56346 0.15408 0.0
H3060 H 0.43228 0.40401 0.14326 0.0
H3061 H 0.42741 0.40489 0.07974 0.0
H3062 H 0.42623 0.4343 0.10349 0.0
H3063 H 0.43117 0.43356 0.1667 0.0
H3064 H 0.40946 0.40614 0.04507 0.0
H3065 H 0.45001 0.4436 0.02353 0.0
H3066 H 0.44707 0.43482 0.06271 0.0
H3067 H 0.44222 0.44446 0.06083 0.0
C3068 C 0.43082 0.41057 0.13511 0.0
C3069 C 0.43223 0.41878 0.16003 0.0
C3070 C 0.42803 0.41106 0.09878 0.0
C3071 C 0.42664 0.41977 0.08675 0.0
C3072 C 0.42744 0.42761 0.11203 0.0
H3073 H 0.40428 0.43086 0.87774 0.0
H3074 H 0.40525 0.42593 0.94105 0.0
C3075 C 0.43023 0.42714 0.14824 0.0
C3076 C 0.42507 0.4211 0.04745 0.0
H3077 H 0.43721 0.43834 0.9754 0.0
C3078 C 0.41552 0.41316 0.02975 0.0
C3079 C 0.43306 0.43019 0.02739 0.0
C3080 C 0.44372 0.43872 0.0444 0.0
C3081 C 0.41367 0.41419 0.99265 0.0
C3082 C 0.42154 0.42345 0.97289 0.0
C3083 C 0.43114 0.43128 0.99056 0.0
C3084 C 0.42015 0.4252 0.93374 0.0
C3085 C 0.40342 0.40528 0.97478 0.0
C3086 C 0.42817 0.42642 0.90847 0.0
C3087 C 0.42767 0.4293 0.87241 0.0
C3088 C 0.41916 0.43108 0.86074 0.0
C3089 C 0.41091 0.42948 0.88574 0.0
C3090 C 0.41143 0.42662 0.92195 0.0
H3091 H 0.3997 0.39753 0.99074 0.0
H3092 H 0.39728 0.40802 0.97273 0.0
H3093 H 0.40519 0.40357 0.94686 0.0
H3094 H 0.43499 0.4254 0.9169 0.0
H3095 H 0.43417 0.43045 0.85394 0.0
loop_
_geom_bond_atom_site_label_1
_geom_bond_atom_site_label_2
_geom_bond_distance
_geom_bond_site_symmetry_2
_ccdc_geom_bond_type
O0 Cd1 2.223 . S
O0 C8 1.315 . S
Cd1 O0 2.223 . S
Cd1 O4 2.297 . S
Cd1 O5 2.439 . S
Cd1 O11 2.240 . S
Cd2 O3 2.240 . S
Cd2 O10 2.223 1_554 S
Cd2 O12 2.297 . S
Cd2 O13 2.439 . S
O3 Cd2 2.240 . S
O3 C8 1.279 . S
O4 Cd1 2.297 . S
O4 C6 1.247 . S
O5 Cd1 2.439 . S
O5 C6 1.208 . S
C6 O4 1.247 . S
C6 O5 1.208 . S
C7 O12 1.247 . S
C7 O13 1.208 . S
C8 O0 1.315 . S
C8 O3 1.279 . S
C9 O10 1.308 1_554 S
C9 O11 1.305 . S
O10 Cd2 2.223 1_556 S
O10 C9 1.308 1_556 S
O11 Cd1 2.240 . S
O11 C9 1.305 . S
O12 Cd2 2.297 . S
O12 C7 1.247 . S
O13 Cd2 2.439 . S
O13 C7 1.208 . S
O14 Cd15 2.223 . S
O14 C22 1.315 . S
Cd15 O14 2.223 . S
Cd15 O18 2.297 . S
Cd15 O19 2.439 . S
Cd15 O25 2.240 . S
Cd16 O17 2.240 . S
Cd16 O24 2.223 1_554 S
Cd16 O26 2.297 . S
Cd16 O27 2.439 . S
O17 Cd16 2.240 . S
O17 C22 1.279 . S
O18 Cd15 2.297 . S
O18 C20 1.247 . S
O19 Cd15 2.439 . S
O19 C20 1.208 . S
C20 O18 1.247 . S
C20 O19 1.208 . S
C21 O26 1.247 . S
C21 O27 1.208 . S
C22 O14 1.315 . S
C22 O17 1.279 . S
C23 O24 1.308 1_554 S
C23 O25 1.306 . S
O24 Cd16 2.223 1_556 S
O24 C23 1.308 1_556 S
O25 Cd15 2.240 . S
O25 C23 1.306 . S
O26 Cd16 2.297 . S
O26 C21 1.247 . S
O27 Cd16 2.439 . S
O27 C21 1.208 . S
O28 Cd29 2.223 . S
O28 C36 1.315 . S
Cd29 O28 2.223 . S
Cd29 O32 2.297 . S
Cd29 O33 2.439 . S
Cd29 O39 2.240 . S
Cd30 O31 2.240 . S
Cd30 O38 2.223 1_554 S
Cd30 O40 2.297 . S
Cd30 O41 2.439 . S
O31 Cd30 2.240 . S
O31 C36 1.279 . S
O32 Cd29 2.297 . S
O32 C34 1.247 . S
O33 Cd29 2.439 . S
O33 C34 1.208 . S
C34 O32 1.247 . S
C34 O33 1.208 . S
C35 O40 1.247 . S
C35 O41 1.208 . S
C36 O28 1.315 . S
C36 O31 1.279 . S
C37 O38 1.315 1_554 S
C37 O39 1.279 . S
O38 Cd30 2.223 1_556 S
O38 C37 1.315 1_556 S
O39 Cd29 2.240 . S
O39 C37 1.279 . S
O40 Cd30 2.297 . S
O40 C35 1.247 . S
O41 Cd30 2.439 . S
O41 C35 1.208 . S
O42 Cd43 2.223 . S
O42 C50 1.315 . S
Cd43 O42 2.223 . S
Cd43 O46 2.297 . S
Cd43 O47 2.439 . S
Cd43 O53 2.240 . S
Cd44 O45 2.240 . S
Cd44 O52 2.223 1_556 S
Cd44 O54 2.297 . S
Cd44 O55 2.439 . S
O45 Cd44 2.240 . S
O45 C50 1.279 . S
O46 Cd43 2.297 . S
O46 C48 1.247 . S
O47 Cd43 2.439 . S
O47 C48 1.208 . S
C48 O46 1.247 . S
C48 O47 1.208 . S
C49 O54 1.247 . S
C49 O55 1.208 . S
C50 O42 1.315 . S
C50 O45 1.279 . S
C51 O52 1.308 1_556 S
C51 O53 1.305 . S
O52 Cd44 2.223 1_554 S
O52 C51 1.308 1_554 S
O53 Cd43 2.240 . S
O53 C51 1.305 . S
O54 Cd44 2.297 . S
O54 C49 1.247 . S
O55 Cd44 2.439 . S
O55 C49 1.208 . S
O56 Cd57 2.223 . S
O56 C64 1.315 . S
Cd57 O56 2.223 . S
Cd57 O60 2.297 . S
Cd57 O61 2.439 . S
Cd57 O67 2.240 . S
Cd58 O59 2.240 . S
Cd58 O66 2.223 1_556 S
Cd58 O68 2.297 . S
Cd58 O69 2.439 . S
O59 Cd58 2.240 . S
O59 C64 1.279 . S
O60 Cd57 2.297 . S
O60 C62 1.247 . S
O61 Cd57 2.439 . S
O61 C62 1.208 . S
C62 O60 1.247 . S
C62 O61 1.208 . S
C63 O68 1.247 . S
C63 O69 1.208 . S
C64 O56 1.315 . S
C64 O59 1.279 . S
C65 O66 1.315 1_556 S
C65 O67 1.279 . S
O66 Cd58 2.223 1_554 S
O66 C65 1.315 1_554 S
O67 Cd57 2.240 . S
O67 C65 1.279 . S
O68 Cd58 2.297 . S
O68 C63 1.247 . S
O69 Cd58 2.439 . S
O69 C63 1.208 . S
O70 Cd71 2.223 . S
O70 C78 1.315 . S
Cd71 O70 2.223 . S
Cd71 O74 2.297 . S
Cd71 O75 2.439 . S
Cd71 O81 2.240 . S
Cd72 O73 2.240 . S
Cd72 O80 2.223 1_556 S
Cd72 O82 2.297 . S
Cd72 O83 2.439 . S
O73 Cd72 2.240 . S
O73 C78 1.279 . S
O74 Cd71 2.297 . S
O74 C76 1.247 . S
O75 Cd71 2.439 . S
O75 C76 1.208 . S
C76 O74 1.247 . S
C76 O75 1.208 . S
C77 O82 1.247 . S
C77 O83 1.208 . S
C78 O70 1.315 . S
C78 O73 1.279 . S
C79 O80 1.308 1_556 S
C79 O81 1.306 . S
O80 Cd72 2.223 1_554 S
O80 C79 1.308 1_554 S
O81 Cd71 2.240 . S
O81 C79 1.306 . S
O82 Cd72 2.297 . S
O82 C77 1.247 . S
O83 Cd72 2.439 . S
O83 C77 1.208 . S
O84 Cd85 2.223 . S
O84 C92 1.315 . S
Cd85 O84 2.223 . S
Cd85 O88 2.297 . S
Cd85 O89 2.439 . S
Cd85 O95 2.240 . S
Cd86 O87 2.240 . S
Cd86 O94 2.223 1_556 S
Cd86 O96 2.297 . S
Cd86 O97 2.439 . S
O87 Cd86 2.240 . S
O87 C92 1.279 . S
O88 Cd85 2.297 . S
O88 C90 1.247 . S
O89 Cd85 2.439 . S
O89 C90 1.208 . S
C90 O88 1.247 . S
C90 O89 1.208 . S
C91 O96 1.247 . S
C91 O97 1.208 . S
C92 O84 1.315 . S
C92 O87 1.279 . S
C93 O94 1.308 1_556 S
C93 O95 1.305 . S
O94 Cd86 2.223 1_554 S
O94 C93 1.308 1_554 S
O95 Cd85 2.240 . S
O95 C93 1.305 . S
O96 Cd86 2.297 . S
O96 C91 1.247 . S
O97 Cd86 2.439 . S
O97 C91 1.208 . S
O98 Cd99 2.223 . S
O98 C106 1.315 . S
Cd99 O98 2.223 . S
Cd99 O102 2.297 . S
Cd99 O103 2.439 . S
Cd99 O109 2.240 . S
Cd100 O101 2.240 . S
Cd100 O108 2.223 1_556 S
Cd100 O110 2.297 . S
Cd100 O111 2.439 . S
O101 Cd100 2.240 . S
O101 C106 1.279 . S
O102 Cd99 2.297 . S
O102 C104 1.247 . S
O103 Cd99 2.439 . S
O103 C104 1.208 . S
C104 O102 1.247 . S
C104 O103 1.208 . S
C105 O110 1.247 . S
C105 O111 1.208 . S
C106 O98 1.315 . S
C106 O101 1.279 . S
C107 O108 1.308 1_556 S
C107 O109 1.306 . S
O108 Cd100 2.223 1_554 S
O108 C107 1.308 1_554 S
O109 Cd99 2.240 . S
O109 C107 1.306 . S
O110 Cd100 2.297 . S
O110 C105 1.247 . S
O111 Cd100 2.439 . S
O111 C105 1.208 . S
O112 Cd113 2.223 . S
O112 C120 1.315 . S
Cd113 O112 2.223 . S
Cd113 O116 2.297 . S
Cd113 O117 2.439 . S
Cd113 O123 2.240 . S
Cd114 O115 2.240 . S
Cd114 O122 2.223 1_556 S
Cd114 O124 2.297 . S
Cd114 O125 2.439 . S
O115 Cd114 2.240 . S
O115 C120 1.279 . S
O116 Cd113 2.297 . S
O116 C118 1.247 . S
O117 Cd113 2.439 . S
O117 C118 1.208 . S
C118 O116 1.247 . S
C118 O117 1.208 . S
C119 O124 1.247 . S
C119 O125 1.208 . S
C120 O112 1.315 . S
C120 O115 1.279 . S
C121 O122 1.315 1_556 S
C121 O123 1.279 . S
O122 Cd114 2.223 1_554 S
O122 C121 1.315 1_554 S
O123 Cd113 2.240 . S
O123 C121 1.279 . S
O124 Cd114 2.297 . S
O124 C119 1.247 . S
O125 Cd114 2.439 . S
O125 C119 1.208 . S
O126 Cd127 2.223 . S
O126 C134 1.315 . S
Cd127 O126 2.223 . S
Cd127 O130 2.297 . S
Cd127 O131 2.439 . S
Cd127 O137 2.240 . S
Cd128 O129 2.240 . S
Cd128 O136 2.223 1_554 S
Cd128 O138 2.297 . S
Cd128 O139 2.439 . S
O129 Cd128 2.240 . S
O129 C134 1.279 . S
O130 Cd127 2.297 . S
O130 C132 1.247 . S
O131 Cd127 2.439 . S
O131 C132 1.208 . S
C132 O130 1.247 . S
C132 O131 1.208 . S
C133 O138 1.247 . S
C133 O139 1.208 . S
C134 O126 1.315 . S
C134 O129 1.279 . S
C135 O136 1.308 1_554 S
C135 O137 1.305 . S
O136 Cd128 2.223 1_556 S
O136 C135 1.308 1_556 S
O137 Cd127 2.240 . S
O137 C135 1.305 . S
O138 Cd128 2.297 . S
O138 C133 1.247 . S
O139 Cd128 2.439 . S
O139 C133 1.208 . S
O140 Cd141 2.223 . S
O140 C148 1.315 . S
Cd141 O140 2.223 . S
Cd141 O144 2.297 . S
Cd141 O145 2.439 . S
Cd141 O151 2.240 . S
Cd142 O143 2.240 . S
Cd142 O150 2.223 1_554 S
Cd142 O152 2.297 . S
Cd142 O153 2.439 . S
O143 Cd142 2.240 . S
O143 C148 1.279 . S
O144 Cd141 2.297 . S
O144 C146 1.247 . S
O145 Cd141 2.439 . S
O145 C146 1.208 . S
C146 O144 1.247 . S
C146 O145 1.208 . S
C147 O152 1.247 . S
C147 O153 1.208 . S
C148 O140 1.315 . S
C148 O143 1.279 . S
C149 O150 1.315 1_554 S
C149 O151 1.279 . S
O150 Cd142 2.223 1_556 S
O150 C149 1.315 1_556 S
O151 Cd141 2.240 . S
O151 C149 1.279 . S
O152 Cd142 2.297 . S
O152 C147 1.247 . S
O153 Cd142 2.439 . S
O153 C147 1.208 . S
O154 Cd155 2.223 . S
O154 C162 1.315 . S
Cd155 O154 2.223 . S
Cd155 O158 2.297 . S
Cd155 O159 2.439 . S
Cd155 O165 2.240 . S
Cd156 O157 2.240 . S
Cd156 O164 2.223 1_554 S
Cd156 O166 2.297 . S
Cd156 O167 2.439 . S
O157 Cd156 2.240 . S
O157 C162 1.279 . S
O158 Cd155 2.297 . S
O158 C160 1.247 . S
O159 Cd155 2.439 . S
O159 C160 1.208 . S
C160 O158 1.247 . S
C160 O159 1.208 . S
C161 O166 1.247 . S
C161 O167 1.208 . S
C162 O154 1.315 . S
C162 O157 1.279 . S
C163 O164 1.308 1_554 S
C163 O165 1.306 . S
O164 Cd156 2.223 1_556 S
O164 C163 1.308 1_556 S
O165 Cd155 2.240 . S
O165 C163 1.306 . S
O166 Cd156 2.297 . S
O166 C161 1.247 . S
O167 Cd156 2.439 . S
O167 C161 1.208 . S
O168 Cd169 2.223 . S
O168 C176 1.315 . S
Cd169 O168 2.223 . S
Cd169 O172 2.297 . S
Cd169 O173 2.439 . S
Cd169 O179 2.240 . S
Cd170 O171 2.240 . S
Cd170 O178 2.223 . S
Cd170 O180 2.297 . S
Cd170 O181 2.439 . S
O171 Cd170 2.240 . S
O171 C176 1.279 . S
O172 Cd169 2.297 . S
O172 C174 1.247 . S
O173 Cd169 2.439 . S
O173 C174 1.208 . S
C174 O172 1.247 . S
C174 O173 1.208 . S
C175 O180 1.247 . S
C175 O181 1.208 . S
C176 O168 1.315 . S
C176 O171 1.279 . S
C177 O178 1.315 . S
C177 O179 1.279 . S
O178 Cd170 2.223 . S
O178 C177 1.315 . S
O179 Cd169 2.240 . S
O179 C177 1.279 . S
O180 Cd170 2.297 . S
O180 C175 1.247 . S
O181 Cd170 2.439 . S
O181 C175 1.208 . S
O182 Cd183 2.223 . S
O182 C190 1.315 . S
Cd183 O182 2.223 . S
Cd183 O186 2.297 . S
Cd183 O187 2.439 . S
Cd183 O193 2.240 . S
Cd184 O185 2.240 . S
Cd184 O192 2.223 . S
Cd184 O194 2.297 . S
Cd184 O195 2.439 . S
O185 Cd184 2.240 . S
O185 C190 1.279 . S
O186 Cd183 2.297 . S
O186 C188 1.247 . S
O187 Cd183 2.439 . S
O187 C188 1.208 . S
C188 O186 1.247 . S
C188 O187 1.208 . S
C189 O194 1.247 . S
C189 O195 1.208 . S
C190 O182 1.315 . S
C190 O185 1.279 . S
C191 O192 1.315 . S
C191 O193 1.279 . S
O192 Cd184 2.223 . S
O192 C191 1.315 . S
O193 Cd183 2.240 . S
O193 C191 1.279 . S
O194 Cd184 2.297 . S
O194 C189 1.247 . S
O195 Cd184 2.439 . S
O195 C189 1.208 . S
O196 Cd197 2.223 . S
O196 C204 1.315 . S
Cd197 O196 2.223 . S
Cd197 O200 2.297 . S
Cd197 O201 2.439 . S
Cd197 O207 2.240 . S
Cd198 O199 2.240 . S
Cd198 O206 2.223 . S
Cd198 O208 2.297 . S
Cd198 O209 2.439 . S
O199 Cd198 2.240 . S
O199 C204 1.279 . S
O200 Cd197 2.297 . S
O200 C202 1.247 . S
O201 Cd197 2.439 . S
O201 C202 1.208 . S
C202 O200 1.247 . S
C202 O201 1.208 . S
C203 O208 1.247 . S
C203 O209 1.208 . S
C204 O196 1.315 . S
C204 O199 1.279 . S
C205 O206 1.315 . S
C205 O207 1.279 . S
O206 Cd198 2.223 . S
O206 C205 1.315 . S
O207 Cd197 2.240 . S
O207 C205 1.279 . S
O208 Cd198 2.297 . S
O208 C203 1.247 . S
O209 Cd198 2.439 . S
O209 C203 1.208 . S
O210 Cd211 2.223 . S
O210 C218 1.315 . S
Cd211 O210 2.223 . S
Cd211 O214 2.297 . S
Cd211 O215 2.439 . S
Cd211 O221 2.240 . S
Cd212 O213 2.240 . S
Cd212 O220 2.223 . S
Cd212 O222 2.297 . S
Cd212 O223 2.439 . S
O213 Cd212 2.240 . S
O213 C218 1.279 . S
O214 Cd211 2.297 . S
O214 C216 1.247 . S
O215 Cd211 2.439 . S
O215 C216 1.208 . S
C216 O214 1.247 . S
C216 O215 1.208 . S
C217 O222 1.247 . S
C217 O223 1.208 . S
C218 O210 1.315 . S
C218 O213 1.279 . S
C219 O220 1.315 . S
C219 O221 1.279 . S
O220 Cd212 2.223 . S
O220 C219 1.315 . S
O221 Cd211 2.240 . S
O221 C219 1.279 . S
O222 Cd212 2.297 . S
O222 C217 1.247 . S
O223 Cd212 2.439 . S
O223 C217 1.208 . S
O224 Cd225 2.223 . S
O224 C232 1.315 . S
Cd225 O224 2.223 . S
Cd225 O228 2.297 . S
Cd225 O229 2.439 . S
Cd225 O235 2.240 . S
Cd226 O227 2.240 . S
Cd226 O234 2.223 . S
Cd226 O236 2.297 . S
Cd226 O237 2.439 . S
O227 Cd226 2.240 . S
O227 C232 1.279 . S
O228 Cd225 2.297 . S
O228 C230 1.247 . S
O229 Cd225 2.439 . S
O229 C230 1.208 . S
C230 O228 1.247 . S
C230 O229 1.208 . S
C231 O236 1.247 . S
C231 O237 1.208 . S
C232 O224 1.315 . S
C232 O227 1.279 . S
C233 O234 1.315 . S
C233 O235 1.279 . S
O234 Cd226 2.223 . S
O234 C233 1.315 . S
O235 Cd225 2.240 . S
O235 C233 1.279 . S
O236 Cd226 2.297 . S
O236 C231 1.247 . S
O237 Cd226 2.439 . S
O237 C231 1.208 . S
O238 Cd239 2.223 . S
O238 C246 1.315 . S
Cd239 O238 2.223 . S
Cd239 O242 2.297 . S
Cd239 O243 2.439 . S
Cd239 O249 2.240 . S
Cd240 O241 2.240 . S
Cd240 O248 2.223 . S
Cd240 O250 2.297 . S
Cd240 O251 2.439 . S
O241 Cd240 2.240 . S
O241 C246 1.279 . S
O242 Cd239 2.297 . S
O242 C244 1.247 . S
O243 Cd239 2.439 . S
O243 C244 1.208 . S
C244 O242 1.247 . S
C244 O243 1.208 . S
C245 O250 1.247 . S
C245 O251 1.208 . S
C246 O238 1.315 . S
C246 O241 1.279 . S
C247 O248 1.315 . S
C247 O249 1.279 . S
O248 Cd240 2.223 . S
O248 C247 1.315 . S
O249 Cd239 2.240 . S
O249 C247 1.279 . S
O250 Cd240 2.297 . S
O250 C245 1.247 . S
O251 Cd240 2.439 . S
O251 C245 1.208 . S
O252 Cd253 2.223 . S
O252 C260 1.315 . S
Cd253 O252 2.223 . S
Cd253 O256 2.297 . S
Cd253 O257 2.439 . S
Cd253 O263 2.240 . S
Cd254 O255 2.240 . S
Cd254 O262 2.223 . S
Cd254 O264 2.297 . S
Cd254 O265 2.439 . S
O255 Cd254 2.240 . S
O255 C260 1.279 . S
O256 Cd253 2.297 . S
O256 C258 1.247 . S
O257 Cd253 2.439 . S
O257 C258 1.208 . S
C258 O256 1.247 . S
C258 O257 1.208 . S
C259 O264 1.247 . S
C259 O265 1.208 . S
C260 O252 1.315 . S
C260 O255 1.279 . S
C261 O262 1.315 . S
C261 O263 1.279 . S
O262 Cd254 2.223 . S
O262 C261 1.315 . S
O263 Cd253 2.240 . S
O263 C261 1.279 . S
O264 Cd254 2.297 . S
O264 C259 1.247 . S
O265 Cd254 2.439 . S
O265 C259 1.208 . S
O266 Cd267 2.223 . S
O266 C274 1.315 . S
Cd267 O266 2.223 . S
Cd267 O270 2.297 . S
Cd267 O271 2.439 . S
Cd267 O277 2.240 . S
Cd268 O269 2.240 . S
Cd268 O276 2.223 . S
Cd268 O278 2.297 . S
Cd268 O279 2.439 . S
O269 Cd268 2.240 . S
O269 C274 1.279 . S
O270 Cd267 2.297 . S
O270 C272 1.247 . S
O271 Cd267 2.439 . S
O271 C272 1.208 . S
C272 O270 1.247 . S
C272 O271 1.208 . S
C273 O278 1.247 . S
C273 O279 1.208 . S
C274 O266 1.315 . S
C274 O269 1.279 . S
C275 O276 1.315 . S
C275 O277 1.279 . S
O276 Cd268 2.223 . S
O276 C275 1.315 . S
O277 Cd267 2.240 . S
O277 C275 1.279 . S
O278 Cd268 2.297 . S
O278 C273 1.247 . S
O279 Cd268 2.439 . S
O279 C273 1.208 . S
O280 Cd281 2.223 . S
O280 C288 1.315 . S
Cd281 O280 2.223 . S
Cd281 O284 2.297 . S
Cd281 O285 2.439 . S
Cd281 O291 2.240 . S
Cd282 O283 2.240 . S
Cd282 O290 2.223 . S
Cd282 O292 2.297 . S
Cd282 O293 2.439 . S
O283 Cd282 2.240 . S
O283 C288 1.279 . S
O284 Cd281 2.297 . S
O284 C286 1.247 . S
O285 Cd281 2.439 . S
O285 C286 1.208 . S
C286 O284 1.247 . S
C286 O285 1.208 . S
C287 O292 1.247 . S
C287 O293 1.208 . S
C288 O280 1.315 . S
C288 O283 1.279 . S
C289 O290 1.315 . S
C289 O291 1.279 . S
O290 Cd282 2.223 . S
O290 C289 1.315 . S
O291 Cd281 2.240 . S
O291 C289 1.279 . S
O292 Cd282 2.297 . S
O292 C287 1.247 . S
O293 Cd282 2.439 . S
O293 C287 1.208 . S
O294 Cd295 2.223 . S
O294 C302 1.315 . S
Cd295 O294 2.223 . S
Cd295 O298 2.297 . S
Cd295 O299 2.439 . S
Cd295 O305 2.240 . S
Cd296 O297 2.240 . S
Cd296 O304 2.223 . S
Cd296 O306 2.297 . S
Cd296 O307 2.439 . S
O297 Cd296 2.240 . S
O297 C302 1.279 . S
O298 Cd295 2.297 . S
O298 C300 1.247 . S
O299 Cd295 2.439 . S
O299 C300 1.208 . S
C300 O298 1.247 . S
C300 O299 1.208 . S
C301 O306 1.247 . S
C301 O307 1.208 . S
C302 O294 1.315 . S
C302 O297 1.279 . S
C303 O304 1.315 . S
C303 O305 1.279 . S
O304 Cd296 2.223 . S
O304 C303 1.315 . S
O305 Cd295 2.240 . S
O305 C303 1.279 . S
O306 Cd296 2.297 . S
O306 C301 1.247 . S
O307 Cd296 2.439 . S
O307 C301 1.208 . S
O308 Cd309 2.223 . S
O308 C316 1.315 . S
Cd309 O308 2.223 . S
Cd309 O312 2.297 . S
Cd309 O313 2.439 . S
Cd309 O319 2.240 . S
Cd310 O311 2.240 . S
Cd310 O318 2.223 . S
Cd310 O320 2.297 . S
Cd310 O321 2.439 . S
O311 Cd310 2.240 . S
O311 C316 1.279 . S
O312 Cd309 2.297 . S
O312 C314 1.247 . S
O313 Cd309 2.439 . S
O313 C314 1.208 . S
C314 O312 1.247 . S
C314 O313 1.208 . S
C315 O320 1.247 . S
C315 O321 1.208 . S
C316 O308 1.315 . S
C316 O311 1.279 . S
C317 O318 1.315 . S
C317 O319 1.279 . S
O318 Cd310 2.223 . S
O318 C317 1.315 . S
O319 Cd309 2.240 . S
O319 C317 1.279 . S
O320 Cd310 2.297 . S
O320 C315 1.247 . S
O321 Cd310 2.439 . S
O321 C315 1.208 . S
O322 Cd323 2.223 . S
O322 C330 1.315 . S
Cd323 O322 2.223 . S
Cd323 O326 2.297 . S
Cd323 O327 2.439 . S
Cd323 O333 2.240 . S
Cd324 O325 2.240 . S
Cd324 O332 2.223 . S
Cd324 O334 2.297 . S
Cd324 O335 2.439 . S
O325 Cd324 2.240 . S
O325 C330 1.279 . S
O326 Cd323 2.297 . S
O326 C328 1.247 . S
O327 Cd323 2.439 . S
O327 C328 1.208 . S
C328 O326 1.247 . S
C328 O327 1.208 . S
C329 O334 1.247 . S
C329 O335 1.208 . S
C330 O322 1.315 . S
C330 O325 1.279 . S
C331 O332 1.315 . S
C331 O333 1.279 . S
O332 Cd324 2.223 . S
O332 C331 1.315 . S
O333 Cd323 2.240 . S
O333 C331 1.279 . S
O334 Cd324 2.297 . S
O334 C329 1.247 . S
O335 Cd324 2.439 . S
O335 C329 1.208 . S
O336 Cd337 2.223 . S
O336 C344 1.315 . S
Cd337 O336 2.223 . S
Cd337 O340 2.297 . S
Cd337 O341 2.439 . S
Cd337 O347 2.240 . S
Cd338 O339 2.240 . S
Cd338 O346 2.223 . S
Cd338 O348 2.297 . S
Cd338 O349 2.439 . S
O339 Cd338 2.240 . S
O339 C344 1.279 . S
O340 Cd337 2.297 . S
O340 C342 1.247 . S
O341 Cd337 2.439 . S
O341 C342 1.208 . S
C342 O340 1.247 . S
C342 O341 1.208 . S
C343 O348 1.247 . S
C343 O349 1.208 . S
C344 O336 1.315 . S
C344 O339 1.279 . S
C345 O346 1.315 . S
C345 O347 1.279 . S
O346 Cd338 2.223 . S
O346 C345 1.315 . S
O347 Cd337 2.240 . S
O347 C345 1.279 . S
O348 Cd338 2.297 . S
O348 C343 1.247 . S
O349 Cd338 2.439 . S
O349 C343 1.208 . S
O350 Cd351 2.223 . S
O350 C358 1.315 . S
Cd351 O350 2.223 . S
Cd351 O354 2.297 . S
Cd351 O355 2.439 . S
Cd351 O361 2.240 . S
Cd352 O353 2.240 . S
Cd352 O360 2.223 . S
Cd352 O362 2.297 . S
Cd352 O363 2.439 . S
O353 Cd352 2.240 . S
O353 C358 1.279 . S
O354 Cd351 2.297 . S
O354 C356 1.247 . S
O355 Cd351 2.439 . S
O355 C356 1.208 . S
C356 O354 1.247 . S
C356 O355 1.208 . S
C357 O362 1.247 . S
C357 O363 1.208 . S
C358 O350 1.315 . S
C358 O353 1.279 . S
C359 O360 1.315 . S
C359 O361 1.279 . S
O360 Cd352 2.223 . S
O360 C359 1.315 . S
O361 Cd351 2.240 . S
O361 C359 1.279 . S
O362 Cd352 2.297 . S
O362 C357 1.247 . S
O363 Cd352 2.439 . S
O363 C357 1.208 . S
O364 Cd365 2.223 . S
O364 C372 1.315 . S
Cd365 O364 2.223 . S
Cd365 O368 2.297 . S
Cd365 O369 2.439 . S
Cd365 O375 2.240 . S
Cd366 O367 2.240 . S
Cd366 O374 2.223 . S
Cd366 O376 2.297 . S
Cd366 O377 2.439 . S
O367 Cd366 2.240 . S
O367 C372 1.279 . S
O368 Cd365 2.297 . S
O368 C370 1.247 . S
O369 Cd365 2.439 . S
O369 C370 1.208 . S
C370 O368 1.247 . S
C370 O369 1.208 . S
C371 O376 1.247 . S
C371 O377 1.208 . S
C372 O364 1.315 . S
C372 O367 1.279 . S
C373 O374 1.315 . S
C373 O375 1.279 . S
O374 Cd366 2.223 . S
O374 C373 1.315 . S
O375 Cd365 2.240 . S
O375 C373 1.279 . S
O376 Cd366 2.297 . S
O376 C371 1.247 . S
O377 Cd366 2.439 . S
O377 C371 1.208 . S
O378 Cd379 2.223 . S
O378 C386 1.315 . S
Cd379 O378 2.223 . S
Cd379 O382 2.297 . S
Cd379 O383 2.439 . S
Cd379 O389 2.240 . S
Cd380 O381 2.240 . S
Cd380 O388 2.223 . S
Cd380 O390 2.297 . S
Cd380 O391 2.439 . S
O381 Cd380 2.240 . S
O381 C386 1.279 . S
O382 Cd379 2.297 . S
O382 C384 1.247 . S
O383 Cd379 2.439 . S
O383 C384 1.208 . S
C384 O382 1.247 . S
C384 O383 1.208 . S
C385 O390 1.247 . S
C385 O391 1.208 . S
C386 O378 1.315 . S
C386 O381 1.279 . S
C387 O388 1.315 . S
C387 O389 1.279 . S
O388 Cd380 2.223 . S
O388 C387 1.315 . S
O389 Cd379 2.240 . S
O389 C387 1.279 . S
O390 Cd380 2.297 . S
O390 C385 1.247 . S
O391 Cd380 2.439 . S
O391 C385 1.208 . S
O392 Cd393 2.223 . S
O392 C400 1.315 . S
Cd393 O392 2.223 . S
Cd393 O396 2.297 . S
Cd393 O397 2.439 . S
Cd393 O403 2.240 . S
Cd394 O395 2.240 . S
Cd394 O402 2.223 . S
Cd394 O404 2.297 . S
Cd394 O405 2.439 . S
O395 Cd394 2.240 . S
O395 C400 1.279 . S
O396 Cd393 2.297 . S
O396 C398 1.247 . S
O397 Cd393 2.439 . S
O397 C398 1.208 . S
C398 O396 1.247 . S
C398 O397 1.208 . S
C399 O404 1.247 . S
C399 O405 1.208 . S
C400 O392 1.315 . S
C400 O395 1.279 . S
C401 O402 1.315 . S
C401 O403 1.279 . S
O402 Cd394 2.223 . S
O402 C401 1.315 . S
O403 Cd393 2.240 . S
O403 C401 1.279 . S
O404 Cd394 2.297 . S
O404 C399 1.247 . S
O405 Cd394 2.439 . S
O405 C399 1.208 . S
O406 Cd407 2.223 . S
O406 C414 1.315 . S
Cd407 O406 2.223 . S
Cd407 O410 2.297 . S
Cd407 O411 2.439 . S
Cd407 O417 2.240 . S
Cd408 O409 2.240 . S
Cd408 O416 2.223 . S
Cd408 O418 2.297 . S
Cd408 O419 2.439 . S
O409 Cd408 2.240 . S
O409 C414 1.279 . S
O410 Cd407 2.297 . S
O410 C412 1.247 . S
O411 Cd407 2.439 . S
O411 C412 1.208 . S
C412 O410 1.247 . S
C412 O411 1.208 . S
C413 O418 1.247 . S
C413 O419 1.208 . S
C414 O406 1.315 . S
C414 O409 1.279 . S
C415 O416 1.315 . S
C415 O417 1.279 . S
O416 Cd408 2.223 . S
O416 C415 1.315 . S
O417 Cd407 2.240 . S
O417 C415 1.279 . S
O418 Cd408 2.297 . S
O418 C413 1.247 . S
O419 Cd408 2.439 . S
O419 C413 1.208 . S
O420 Cd421 2.223 . S
O420 C428 1.315 . S
Cd421 O420 2.223 . S
Cd421 O424 2.297 . S
Cd421 O425 2.439 . S
Cd421 O431 2.240 . S
Cd422 O423 2.240 . S
Cd422 O430 2.223 . S
Cd422 O432 2.297 . S
Cd422 O433 2.439 . S
O423 Cd422 2.240 . S
O423 C428 1.279 . S
O424 Cd421 2.297 . S
O424 C426 1.247 . S
O425 Cd421 2.439 . S
O425 C426 1.208 . S
C426 O424 1.247 . S
C426 O425 1.208 . S
C427 O432 1.247 . S
C427 O433 1.208 . S
C428 O420 1.315 . S
C428 O423 1.279 . S
C429 O430 1.315 . S
C429 O431 1.279 . S
O430 Cd422 2.223 . S
O430 C429 1.315 . S
O431 Cd421 2.240 . S
O431 C429 1.279 . S
O432 Cd422 2.297 . S
O432 C427 1.247 . S
O433 Cd422 2.439 . S
O433 C427 1.208 . S
O434 Cd435 2.223 . S
O434 C442 1.315 . S
Cd435 O434 2.223 . S
Cd435 O438 2.297 . S
Cd435 O439 2.439 . S
Cd435 O445 2.240 . S
Cd436 O437 2.240 . S
Cd436 O444 2.223 . S
Cd436 O446 2.297 . S
Cd436 O447 2.439 . S
O437 Cd436 2.240 . S
O437 C442 1.279 . S
O438 Cd435 2.297 . S
O438 C440 1.247 . S
O439 Cd435 2.439 . S
O439 C440 1.208 . S
C440 O438 1.247 . S
C440 O439 1.208 . S
C441 O446 1.247 . S
C441 O447 1.208 . S
C442 O434 1.315 . S
C442 O437 1.279 . S
C443 O444 1.315 . S
C443 O445 1.279 . S
O444 Cd436 2.223 . S
O444 C443 1.315 . S
O445 Cd435 2.240 . S
O445 C443 1.279 . S
O446 Cd436 2.297 . S
O446 C441 1.247 . S
O447 Cd436 2.439 . S
O447 C441 1.208 . S
O448 Cd449 2.223 . S
O448 C456 1.315 . S
Cd449 O448 2.223 . S
Cd449 O452 2.297 . S
Cd449 O453 2.439 . S
Cd449 O459 2.240 . S
Cd450 O451 2.240 . S
Cd450 O458 2.223 . S
Cd450 O460 2.297 . S
Cd450 O461 2.439 . S
O451 Cd450 2.240 . S
O451 C456 1.279 . S
O452 Cd449 2.297 . S
O452 C454 1.247 . S
O453 Cd449 2.439 . S
O453 C454 1.208 . S
C454 O452 1.247 . S
C454 O453 1.208 . S
C455 O460 1.247 . S
C455 O461 1.208 . S
C456 O448 1.315 . S
C456 O451 1.279 . S
C457 O458 1.315 . S
C457 O459 1.279 . S
O458 Cd450 2.223 . S
O458 C457 1.315 . S
O459 Cd449 2.240 . S
O459 C457 1.279 . S
O460 Cd450 2.297 . S
O460 C455 1.247 . S
O461 Cd450 2.439 . S
O461 C455 1.208 . S
O462 Cd463 2.223 . S
O462 C470 1.315 . S
Cd463 O462 2.223 . S
Cd463 O466 2.297 . S
Cd463 O467 2.439 . S
Cd463 O473 2.240 . S
Cd464 O465 2.240 . S
Cd464 O472 2.223 . S
Cd464 O474 2.297 . S
Cd464 O475 2.439 . S
O465 Cd464 2.240 . S
O465 C470 1.279 . S
O466 Cd463 2.297 . S
O466 C468 1.247 . S
O467 Cd463 2.439 . S
O467 C468 1.208 . S
C468 O466 1.247 . S
C468 O467 1.208 . S
C469 O474 1.247 . S
C469 O475 1.208 . S
C470 O462 1.315 . S
C470 O465 1.279 . S
C471 O472 1.315 . S
C471 O473 1.279 . S
O472 Cd464 2.223 . S
O472 C471 1.315 . S
O473 Cd463 2.240 . S
O473 C471 1.279 . S
O474 Cd464 2.297 . S
O474 C469 1.247 . S
O475 Cd464 2.439 . S
O475 C469 1.208 . S
O476 Cd477 2.223 . S
O476 C484 1.315 . S
Cd477 O476 2.223 . S
Cd477 O480 2.297 . S
Cd477 O481 2.439 . S
Cd477 O487 2.240 . S
Cd478 O479 2.240 . S
Cd478 O486 2.223 . S
Cd478 O488 2.297 . S
Cd478 O489 2.439 . S
O479 Cd478 2.240 . S
O479 C484 1.279 . S
O480 Cd477 2.297 . S
O480 C482 1.247 . S
O481 Cd477 2.439 . S
O481 C482 1.208 . S
C482 O480 1.247 . S
C482 O481 1.208 . S
C483 O488 1.247 . S
C483 O489 1.208 . S
C484 O476 1.315 . S
C484 O479 1.279 . S
C485 O486 1.315 . S
C485 O487 1.279 . S
O486 Cd478 2.223 . S
O486 C485 1.315 . S
O487 Cd477 2.240 . S
O487 C485 1.279 . S
O488 Cd478 2.297 . S
O488 C483 1.247 . S
O489 Cd478 2.439 . S
O489 C483 1.208 . S
O490 Cd491 2.223 . S
O490 C498 1.315 . S
Cd491 O490 2.223 . S
Cd491 O494 2.297 . S
Cd491 O495 2.439 . S
Cd491 O501 2.240 . S
Cd492 O493 2.240 . S
Cd492 O500 2.223 . S
Cd492 O502 2.297 . S
Cd492 O503 2.439 . S
O493 Cd492 2.240 . S
O493 C498 1.279 . S
O494 Cd491 2.297 . S
O494 C496 1.247 . S
O495 Cd491 2.439 . S
O495 C496 1.208 . S
C496 O494 1.247 . S
C496 O495 1.208 . S
C497 O502 1.247 . S
C497 O503 1.208 . S
C498 O490 1.315 . S
C498 O493 1.279 . S
C499 O500 1.315 . S
C499 O501 1.279 . S
O500 Cd492 2.223 . S
O500 C499 1.315 . S
O501 Cd491 2.240 . S
O501 C499 1.279 . S
O502 Cd492 2.297 . S
O502 C497 1.247 . S
O503 Cd492 2.439 . S
O503 C497 1.208 . S
H504 C512 0.929 . S
H505 C514 0.930 . S
H506 C516 0.930 . S
H507 C519 0.929 . S
H508 C522 0.930 . S
H509 C524 0.960 . S
H510 C524 0.960 . S
H511 C524 0.960 . S
C512 H504 0.929 . S
C512 C513 1.377 . S
C512 C514 1.384 . S
C513 C512 1.377 . S
C513 C519 1.390 . S
C514 H505 0.930 . S
C514 C512 1.384 . S
C514 C515 1.372 . S
C515 C514 1.372 . S
C515 C516 1.400 . S
C515 C520 1.490 . S
C516 H506 0.930 . S
C516 C515 1.400 . S
C516 C519 1.386 . S
H517 C533 0.930 . S
H518 C534 0.931 . S
C519 H507 0.929 . S
C519 C513 1.390 . S
C519 C516 1.386 . S
C520 C515 1.490 . S
C520 C522 1.395 . S
C520 C523 1.403 . S
H521 C527 0.930 . S
C522 H508 0.930 . S
C522 C520 1.395 . S
C522 C525 1.403 . S
C523 C520 1.403 . S
C523 C524 1.524 . S
C523 C527 1.400 . S
C524 H509 0.960 . S
C524 H510 0.960 . S
C524 H511 0.960 . S
C524 C523 1.524 . S
C525 C522 1.403 . S
C525 C526 1.392 . S
C525 C529 1.495 1_554 S
C526 C525 1.392 . S
C526 C527 1.385 . S
C526 C528 1.478 . S
C527 H521 0.930 . S
C527 C523 1.400 . S
C527 C526 1.385 . S
C528 C526 1.478 . S
C528 C530 1.381 . S
C528 C534 1.383 . S
C529 C525 1.495 1_556 S
C529 H535 0.959 . S
C529 H536 0.961 . S
C529 H537 0.960 . S
C530 C528 1.381 . S
C530 C531 1.394 . S
C530 H538 0.930 . S
C531 C530 1.394 . S
C531 C532 1.383 . S
C531 H539 0.929 . S
C532 C531 1.383 . S
C532 C533 1.377 . S
C533 H517 0.930 . S
C533 C532 1.377 . S
C533 C534 1.379 . S
C534 H518 0.931 . S
C534 C528 1.383 . S
C534 C533 1.379 . S
H535 C529 0.959 . S
H536 C529 0.961 . S
H537 C529 0.960 . S
H538 C530 0.930 . S
H539 C531 0.929 . S
H540 C548 0.929 . S
H541 C550 0.930 . S
H542 C552 0.930 . S
H543 C555 0.929 . S
H544 C558 0.930 . S
H545 C560 0.960 . S
H546 C560 0.960 . S
H547 C560 0.960 . S
C548 H540 0.929 . S
C548 C549 1.377 . S
C548 C550 1.384 . S
C549 C548 1.377 . S
C549 C555 1.390 . S
C550 H541 0.930 . S
C550 C548 1.384 . S
C550 C551 1.372 . S
C551 C550 1.372 . S
C551 C552 1.400 . S
C551 C556 1.490 . S
C552 H542 0.930 . S
C552 C551 1.400 . S
C552 C555 1.386 . S
H553 C569 0.930 . S
H554 C570 0.931 . S
C555 H543 0.929 . S
C555 C549 1.390 . S
C555 C552 1.386 . S
C556 C551 1.490 . S
C556 C558 1.395 . S
C556 C559 1.403 . S
H557 C563 0.930 . S
C558 H544 0.930 . S
C558 C556 1.395 . S
C558 C561 1.403 . S
C559 C556 1.403 . S
C559 C560 1.524 . S
C559 C563 1.400 . S
C560 H545 0.960 . S
C560 H546 0.960 . S
C560 H547 0.960 . S
C560 C559 1.524 . S
C561 C558 1.403 . S
C561 C562 1.392 . S
C561 C565 1.495 . S
C562 C561 1.392 . S
C562 C563 1.385 . S
C562 C564 1.478 . S
C563 H557 0.930 . S
C563 C559 1.400 . S
C563 C562 1.385 . S
C564 C562 1.478 . S
C564 C566 1.381 . S
C564 C570 1.383 . S
C565 C561 1.495 . S
C565 H571 0.959 . S
C565 H572 0.961 . S
C565 H573 0.960 1_554 S
C566 C564 1.381 . S
C566 C567 1.394 . S
C566 H574 0.930 . S
C567 C566 1.394 . S
C567 C568 1.383 . S
C567 H575 0.929 . S
C568 C567 1.383 . S
C568 C569 1.377 . S
C569 H553 0.930 . S
C569 C568 1.377 . S
C569 C570 1.379 . S
C570 H554 0.931 . S
C570 C564 1.383 . S
C570 C569 1.379 . S
H571 C565 0.959 . S
H572 C565 0.961 . S
H573 C565 0.960 1_556 S
H574 C566 0.930 . S
H575 C567 0.929 . S
H576 C584 0.929 . S
H577 C586 0.930 . S
H578 C588 0.930 . S
H579 C591 0.929 . S
H580 C594 0.930 . S
H581 C596 0.960 . S
H582 C596 0.960 . S
H583 C596 0.960 . S
C584 H576 0.929 . S
C584 C585 1.377 . S
C584 C586 1.384 . S
C585 C584 1.377 . S
C585 C591 1.390 . S
C586 H577 0.930 . S
C586 C584 1.384 . S
C586 C587 1.372 . S
C587 C586 1.372 . S
C587 C588 1.400 . S
C587 C592 1.490 . S
C588 H578 0.930 . S
C588 C587 1.400 . S
C588 C591 1.386 . S
H589 C605 0.930 . S
H590 C606 0.931 . S
C591 H579 0.929 . S
C591 C585 1.390 . S
C591 C588 1.386 . S
C592 C587 1.490 . S
C592 C594 1.395 . S
C592 C595 1.403 . S
H593 C599 0.930 . S
C594 H580 0.930 . S
C594 C592 1.395 . S
C594 C597 1.403 . S
C595 C592 1.403 . S
C595 C596 1.524 . S
C595 C599 1.400 . S
C596 H581 0.960 . S
C596 H582 0.960 . S
C596 H583 0.960 . S
C596 C595 1.524 . S
C597 C594 1.403 . S
C597 C598 1.392 . S
C597 C601 1.495 . S
C598 C597 1.392 . S
C598 C599 1.385 . S
C598 C600 1.478 . S
C599 H593 0.930 . S
C599 C595 1.400 . S
C599 C598 1.385 . S
C600 C598 1.478 . S
C600 C602 1.381 . S
C600 C606 1.383 . S
C601 C597 1.495 . S
C601 H607 0.959 . S
C601 H608 0.961 . S
C601 H609 0.960 . S
C602 C600 1.381 . S
C602 C603 1.394 . S
C602 H610 0.930 . S
C603 C602 1.394 . S
C603 C604 1.383 . S
C603 H611 0.929 . S
C604 C603 1.383 . S
C604 C605 1.377 . S
C605 H589 0.930 . S
C605 C604 1.377 . S
C605 C606 1.379 . S
C606 H590 0.931 . S
C606 C600 1.383 . S
C606 C605 1.379 . S
H607 C601 0.959 . S
H608 C601 0.961 . S
H609 C601 0.960 . S
H610 C602 0.930 . S
H611 C603 0.929 . S
H612 C620 0.929 . S
H613 C622 0.930 . S
H614 C624 0.930 . S
H615 C627 0.929 . S
H616 C630 0.930 . S
H617 C632 0.960 . S
H618 C632 0.960 . S
H619 C632 0.960 . S
C620 H612 0.929 . S
C620 C621 1.377 . S
C620 C622 1.384 . S
C621 C620 1.377 . S
C621 C627 1.390 . S
C622 H613 0.930 . S
C622 C620 1.384 . S
C622 C623 1.372 . S
C623 C622 1.372 . S
C623 C624 1.400 . S
C623 C628 1.490 . S
C624 H614 0.930 . S
C624 C623 1.400 . S
C624 C627 1.386 . S
H625 C641 0.930 . S
H626 C642 0.931 . S
C627 H615 0.929 . S
C627 C621 1.390 . S
C627 C624 1.386 . S
C628 C623 1.490 . S
C628 C630 1.395 . S
C628 C631 1.403 . S
H629 C635 0.930 . S
C630 H616 0.930 . S
C630 C628 1.395 . S
C630 C633 1.403 . S
C631 C628 1.403 . S
C631 C632 1.524 . S
C631 C635 1.400 . S
C632 H617 0.960 . S
C632 H618 0.960 . S
C632 H619 0.960 . S
C632 C631 1.524 . S
C633 C630 1.403 . S
C633 C634 1.392 . S
C633 C637 1.495 1_556 S
C634 C633 1.392 . S
C634 C635 1.385 . S
C634 C636 1.478 . S
C635 H629 0.930 . S
C635 C631 1.400 . S
C635 C634 1.385 . S
C636 C634 1.478 . S
C636 C638 1.381 . S
C636 C642 1.383 . S
C637 C633 1.495 1_554 S
C637 H643 0.959 . S
C637 H644 0.961 1_554 S
C637 H645 0.960 . S
C638 C636 1.381 . S
C638 C639 1.394 . S
C638 H646 0.930 . S
C639 C638 1.394 . S
C639 C640 1.383 . S
C639 H647 0.929 . S
C640 C639 1.383 . S
C640 C641 1.377 . S
C641 H625 0.930 . S
C641 C640 1.377 . S
C641 C642 1.379 . S
C642 H626 0.931 . S
C642 C636 1.383 . S
C642 C641 1.379 . S
H643 C637 0.959 . S
H644 C637 0.961 1_556 S
H645 C637 0.960 . S
H646 C638 0.930 . S
H647 C639 0.929 . S
H648 C656 0.929 . S
H649 C658 0.930 . S
H650 C660 0.930 . S
H651 C663 0.929 . S
H652 C666 0.930 . S
H653 C668 0.960 . S
H654 C668 0.960 . S
H655 C668 0.960 . S
C656 H648 0.929 . S
C656 C657 1.377 . S
C656 C658 1.384 . S
C657 C656 1.377 . S
C657 C663 1.390 . S
C658 H649 0.930 . S
C658 C656 1.384 . S
C658 C659 1.372 . S
C659 C658 1.372 . S
C659 C660 1.400 . S
C659 C664 1.490 . S
C660 H650 0.930 . S
C660 C659 1.400 . S
C660 C663 1.386 . S
H661 C677 0.930 . S
H662 C678 0.931 . S
C663 H651 0.929 . S
C663 C657 1.390 . S
C663 C660 1.386 . S
C664 C659 1.490 . S
C664 C666 1.395 . S
C664 C667 1.403 . S
H665 C671 0.930 . S
C666 H652 0.930 . S
C666 C664 1.395 . S
C666 C669 1.403 . S
C667 C664 1.403 . S
C667 C668 1.524 . S
C667 C671 1.400 . S
C668 H653 0.960 . S
C668 H654 0.960 . S
C668 H655 0.960 . S
C668 C667 1.524 . S
C669 C666 1.403 . S
C669 C670 1.392 . S
C669 C673 1.495 . S
C670 C669 1.392 . S
C670 C671 1.385 . S
C670 C672 1.478 . S
C671 H665 0.930 . S
C671 C667 1.400 . S
C671 C670 1.385 . S
C672 C670 1.478 . S
C672 C674 1.381 . S
C672 C678 1.383 . S
C673 C669 1.495 . S
C673 H679 0.959 . S
C673 H680 0.961 . S
C673 H681 0.960 . S
C674 C672 1.381 . S
C674 C675 1.394 . S
C674 H682 0.930 . S
C675 C674 1.394 . S
C675 C676 1.383 . S
C675 H683 0.929 . S
C676 C675 1.383 . S
C676 C677 1.377 . S
C677 H661 0.930 . S
C677 C676 1.377 . S
C677 C678 1.379 . S
C678 H662 0.931 . S
C678 C672 1.383 . S
C678 C677 1.379 . S
H679 C673 0.959 . S
H680 C673 0.961 . S
H681 C673 0.960 . S
H682 C674 0.930 . S
H683 C675 0.929 . S
H684 C692 0.929 . S
H685 C694 0.930 . S
H686 C696 0.930 . S
H687 C699 0.929 . S
H688 C702 0.930 . S
H689 C704 0.960 . S
H690 C704 0.960 . S
H691 C704 0.960 . S
C692 H684 0.929 . S
C692 C693 1.377 . S
C692 C694 1.384 . S
C693 C692 1.377 . S
C693 C699 1.390 . S
C694 H685 0.930 . S
C694 C692 1.384 . S
C694 C695 1.372 . S
C695 C694 1.372 . S
C695 C696 1.400 . S
C695 C700 1.490 . S
C696 H686 0.930 . S
C696 C695 1.400 . S
C696 C699 1.386 . S
H697 C713 0.930 . S
H698 C714 0.931 . S
C699 H687 0.929 . S
C699 C693 1.390 . S
C699 C696 1.386 . S
C700 C695 1.490 . S
C700 C702 1.395 . S
C700 C703 1.403 . S
H701 C707 0.930 . S
C702 H688 0.930 . S
C702 C700 1.395 . S
C702 C705 1.403 . S
C703 C700 1.403 . S
C703 C704 1.524 . S
C703 C707 1.400 . S
C704 H689 0.960 . S
C704 H690 0.960 . S
C704 H691 0.960 . S
C704 C703 1.524 . S
C705 C702 1.403 . S
C705 C706 1.392 . S
C705 C709 1.495 . S
C706 C705 1.392 . S
C706 C707 1.385 . S
C706 C708 1.478 . S
C707 H701 0.930 . S
C707 C703 1.400 . S
C707 C706 1.385 . S
C708 C706 1.478 . S
C708 C710 1.381 . S
C708 C714 1.383 . S
C709 C705 1.495 . S
C709 H715 0.965 . S
C709 H716 0.961 1_556 S
C709 H717 0.960 . S
C710 C708 1.381 . S
C710 C711 1.394 . S
C710 H718 0.930 . S
C711 C710 1.394 . S
C711 C712 1.383 . S
C711 H719 0.929 . S
C712 C711 1.383 . S
C712 C713 1.377 . S
C713 H697 0.930 . S
C713 C712 1.377 . S
C713 C714 1.379 . S
C714 H698 0.931 . S
C714 C708 1.383 . S
C714 C713 1.379 . S
H715 C709 0.965 . S
H716 C709 0.961 1_554 S
H717 C709 0.960 . S
H718 C710 0.930 . S
H719 C711 0.929 . S
H720 C728 0.929 . S
H721 C730 0.930 . S
H722 C732 0.930 . S
H723 C735 0.929 . S
H724 C738 0.930 . S
H725 C740 0.960 . S
H726 C740 0.960 . S
H727 C740 0.960 . S
C728 H720 0.929 . S
C728 C729 1.377 . S
C728 C730 1.384 . S
C729 C728 1.377 . S
C729 C735 1.390 . S
C730 H721 0.930 . S
C730 C728 1.384 . S
C730 C731 1.372 . S
C731 C730 1.372 . S
C731 C732 1.400 . S
C731 C736 1.490 . S
C732 H722 0.930 . S
C732 C731 1.400 . S
C732 C735 1.386 . S
H733 C749 0.930 . S
H734 C750 0.931 . S
C735 H723 0.929 . S
C735 C729 1.390 . S
C735 C732 1.386 . S
C736 C731 1.490 . S
C736 C738 1.395 . S
C736 C739 1.403 . S
H737 C743 0.930 . S
C738 H724 0.930 . S
C738 C736 1.395 . S
C738 C741 1.403 . S
C739 C736 1.403 . S
C739 C740 1.524 . S
C739 C743 1.400 . S
C740 H725 0.960 . S
C740 H726 0.960 . S
C740 H727 0.960 . S
C740 C739 1.524 . S
C741 C738 1.403 . S
C741 C742 1.392 . S
C741 C745 1.495 . S
C742 C741 1.392 . S
C742 C743 1.385 . S
C742 C744 1.478 . S
C743 H737 0.930 . S
C743 C739 1.400 . S
C743 C742 1.385 . S
C744 C742 1.478 . S
C744 C746 1.381 . S
C744 C750 1.383 . S
C745 C741 1.495 . S
C745 H751 0.959 . S
C745 H752 0.961 . S
C745 H753 0.960 . S
C746 C744 1.381 . S
C746 C747 1.394 . S
C746 H754 0.930 . S
C747 C746 1.394 . S
C747 C748 1.383 . S
C747 H755 0.929 . S
C748 C747 1.383 . S
C748 C749 1.377 . S
C749 H733 0.930 . S
C749 C748 1.377 . S
C749 C750 1.379 . S
C750 H734 0.931 . S
C750 C744 1.383 . S
C750 C749 1.379 . S
H751 C745 0.959 . S
H752 C745 0.961 . S
H753 C745 0.960 . S
H754 C746 0.930 . S
H755 C747 0.929 . S
H756 C764 0.929 . S
H757 C766 0.930 . S
H758 C768 0.930 . S
H759 C771 0.929 . S
H760 C774 0.930 . S
H761 C776 0.960 . S
H762 C776 0.960 . S
H763 C776 0.960 . S
C764 H756 0.929 . S
C764 C765 1.377 . S
C764 C766 1.384 . S
C765 C764 1.377 . S
C765 C771 1.390 . S
C766 H757 0.930 . S
C766 C764 1.384 . S
C766 C767 1.372 . S
C767 C766 1.372 . S
C767 C768 1.400 . S
C767 C772 1.490 . S
C768 H758 0.930 . S
C768 C767 1.400 . S
C768 C771 1.386 . S
H769 C785 0.930 . S
H770 C786 0.931 . S
C771 H759 0.929 . S
C771 C765 1.390 . S
C771 C768 1.386 . S
C772 C767 1.490 . S
C772 C774 1.395 . S
C772 C775 1.403 . S
H773 C779 0.930 . S
C774 H760 0.930 . S
C774 C772 1.395 . S
C774 C777 1.403 . S
C775 C772 1.403 . S
C775 C776 1.524 . S
C775 C779 1.400 . S
C776 H761 0.960 . S
C776 H762 0.960 . S
C776 H763 0.960 . S
C776 C775 1.524 . S
C777 C774 1.403 . S
C777 C778 1.392 . S
C777 C781 1.495 . S
C778 C777 1.392 . S
C778 C779 1.385 . S
C778 C780 1.478 . S
C779 H773 0.930 . S
C779 C775 1.400 . S
C779 C778 1.385 . S
C780 C778 1.478 . S
C780 C782 1.381 . S
C780 C786 1.383 . S
C781 C777 1.495 . S
C781 H787 0.959 . S
C781 H788 0.961 . S
C781 H789 0.960 . S
C782 C780 1.381 . S
C782 C783 1.394 . S
C782 H790 0.930 . S
C783 C782 1.394 . S
C783 C784 1.383 . S
C783 H791 0.929 . S
C784 C783 1.383 . S
C784 C785 1.377 . S
C785 H769 0.930 . S
C785 C784 1.377 . S
C785 C786 1.379 . S
C786 H770 0.931 . S
C786 C780 1.383 . S
C786 C785 1.379 . S
H787 C781 0.959 . S
H788 C781 0.961 . S
H789 C781 0.960 . S
H790 C782 0.930 . S
H791 C783 0.929 . S
H792 C800 0.929 . S
H793 C802 0.930 . S
H794 C804 0.930 . S
H795 C807 0.929 . S
H796 C810 0.930 . S
H797 C812 0.960 . S
H798 C812 0.960 . S
H799 C812 0.960 . S
C800 H792 0.929 . S
C800 C801 1.377 . S
C800 C802 1.384 . S
C801 C800 1.377 . S
C801 C807 1.390 . S
C802 H793 0.930 . S
C802 C800 1.384 . S
C802 C803 1.372 . S
C803 C802 1.372 . S
C803 C804 1.400 . S
C803 C808 1.490 . S
C804 H794 0.930 . S
C804 C803 1.400 . S
C804 C807 1.386 . S
H805 C821 0.930 . S
H806 C822 0.931 . S
C807 H795 0.929 . S
C807 C801 1.390 . S
C807 C804 1.386 . S
C808 C803 1.490 . S
C808 C810 1.395 . S
C808 C811 1.403 . S
H809 C815 0.930 . S
C810 H796 0.930 . S
C810 C808 1.395 . S
C810 C813 1.403 . S
C811 C808 1.403 . S
C811 C812 1.524 . S
C811 C815 1.400 . S
C812 H797 0.960 . S
C812 H798 0.960 . S
C812 H799 0.960 . S
C812 C811 1.524 . S
C813 C810 1.403 . S
C813 C814 1.392 . S
C813 C817 1.495 . S
C814 C813 1.392 . S
C814 C815 1.385 . S
C814 C816 1.478 . S
C815 H809 0.930 . S
C815 C811 1.400 . S
C815 C814 1.385 . S
C816 C814 1.478 . S
C816 C818 1.381 . S
C816 C822 1.383 . S
C817 C813 1.495 . S
C817 H823 0.959 . S
C817 H824 0.961 . S
C817 H825 0.960 . S
C818 C816 1.381 . S
C818 C819 1.394 . S
C818 H826 0.930 . S
C819 C818 1.394 . S
C819 C820 1.383 . S
C819 H827 0.929 . S
C820 C819 1.383 . S
C820 C821 1.377 . S
C821 H805 0.930 . S
C821 C820 1.377 . S
C821 C822 1.379 . S
C822 H806 0.931 . S
C822 C816 1.383 . S
C822 C821 1.379 . S
H823 C817 0.959 . S
H824 C817 0.961 . S
H825 C817 0.960 . S
H826 C818 0.930 . S
H827 C819 0.929 . S
H828 C836 0.929 . S
H829 C838 0.930 . S
H830 C840 0.930 . S
H831 C843 0.929 . S
H832 C846 0.930 . S
H833 C848 0.960 . S
H834 C848 0.960 . S
H835 C848 0.960 . S
C836 H828 0.929 . S
C836 C837 1.377 . S
C836 C838 1.384 . S
C837 C836 1.377 . S
C837 C843 1.390 . S
C838 H829 0.930 . S
C838 C836 1.384 . S
C838 C839 1.372 . S
C839 C838 1.372 . S
C839 C840 1.400 . S
C839 C844 1.490 . S
C840 H830 0.930 . S
C840 C839 1.400 . S
C840 C843 1.386 . S
H841 C857 0.930 . S
H842 C858 0.931 . S
C843 H831 0.929 . S
C843 C837 1.390 . S
C843 C840 1.386 . S
C844 C839 1.490 . S
C844 C846 1.395 . S
C844 C847 1.403 . S
H845 C851 0.930 . S
C846 H832 0.930 . S
C846 C844 1.395 . S
C846 C849 1.403 . S
C847 C844 1.403 . S
C847 C848 1.524 . S
C847 C851 1.400 . S
C848 H833 0.960 . S
C848 H834 0.960 . S
C848 H835 0.960 . S
C848 C847 1.524 . S
C849 C846 1.403 . S
C849 C850 1.392 . S
C849 C853 1.495 . S
C850 C849 1.392 . S
C850 C851 1.385 . S
C850 C852 1.478 . S
C851 H845 0.930 . S
C851 C847 1.400 . S
C851 C850 1.385 . S
C852 C850 1.478 . S
C852 C854 1.381 . S
C852 C858 1.383 . S
C853 C849 1.495 . S
C853 H859 0.959 . S
C853 H860 0.961 . S
C853 H861 0.960 . S
C854 C852 1.381 . S
C854 C855 1.394 . S
C854 H862 0.930 . S
C855 C854 1.394 . S
C855 C856 1.383 . S
C855 H863 0.929 . S
C856 C855 1.383 . S
C856 C857 1.377 . S
C857 H841 0.930 . S
C857 C856 1.377 . S
C857 C858 1.379 . S
C858 H842 0.931 . S
C858 C852 1.383 . S
C858 C857 1.379 . S
H859 C853 0.959 . S
H860 C853 0.961 . S
H861 C853 0.960 . S
H862 C854 0.930 . S
H863 C855 0.929 . S
H864 C872 0.929 . S
H865 C874 0.930 . S
H866 C876 0.930 . S
H867 C879 0.929 . S
H868 C882 0.930 . S
H869 C884 0.960 . S
H870 C884 0.960 . S
H871 C884 0.960 . S
C872 H864 0.929 . S
C872 C873 1.377 . S
C872 C874 1.384 . S
C873 C872 1.377 . S
C873 C879 1.390 . S
C874 H865 0.930 . S
C874 C872 1.384 . S
C874 C875 1.372 . S
C875 C874 1.372 . S
C875 C876 1.400 . S
C875 C880 1.490 . S
C876 H866 0.930 . S
C876 C875 1.400 . S
C876 C879 1.386 . S
H877 C893 0.930 . S
H878 C894 0.931 . S
C879 H867 0.929 . S
C879 C873 1.390 . S
C879 C876 1.386 . S
C880 C875 1.490 . S
C880 C882 1.395 . S
C880 C883 1.403 . S
H881 C887 0.930 . S
C882 H868 0.930 . S
C882 C880 1.395 . S
C882 C885 1.403 . S
C883 C880 1.403 . S
C883 C884 1.524 . S
C883 C887 1.400 . S
C884 H869 0.960 . S
C884 H870 0.960 . S
C884 H871 0.960 . S
C884 C883 1.524 . S
C885 C882 1.403 . S
C885 C886 1.392 . S
C885 C889 1.495 . S
C886 C885 1.392 . S
C886 C887 1.385 . S
C886 C888 1.478 . S
C887 H881 0.930 . S
C887 C883 1.400 . S
C887 C886 1.385 . S
C888 C886 1.478 . S
C888 C890 1.381 . S
C888 C894 1.383 . S
C889 C885 1.495 . S
C889 H895 0.959 . S
C889 H896 0.961 . S
C889 H897 0.960 . S
C890 C888 1.381 . S
C890 C891 1.394 . S
C890 H898 0.930 . S
C891 C890 1.394 . S
C891 C892 1.383 . S
C891 H899 0.929 . S
C892 C891 1.383 . S
C892 C893 1.377 . S
C893 H877 0.930 . S
C893 C892 1.377 . S
C893 C894 1.379 . S
C894 H878 0.931 . S
C894 C888 1.383 . S
C894 C893 1.379 . S
H895 C889 0.959 . S
H896 C889 0.961 . S
H897 C889 0.960 . S
H898 C890 0.930 . S
H899 C891 0.929 . S
H900 C908 0.929 . S
H901 C910 0.930 . S
H902 C912 0.930 . S
H903 C915 0.929 . S
H904 C918 0.930 . S
H905 C920 0.960 . S
H906 C920 0.960 . S
H907 C920 0.960 . S
C908 H900 0.929 . S
C908 C909 1.377 . S
C908 C910 1.384 . S
C909 C908 1.377 . S
C909 C915 1.390 . S
C910 H901 0.930 . S
C910 C908 1.384 . S
C910 C911 1.372 . S
C911 C910 1.372 . S
C911 C912 1.400 . S
C911 C916 1.490 . S
C912 H902 0.930 . S
C912 C911 1.400 . S
C912 C915 1.386 . S
H913 C929 0.930 . S
H914 C930 0.931 . S
C915 H903 0.929 . S
C915 C909 1.390 . S
C915 C912 1.386 . S
C916 C911 1.490 . S
C916 C918 1.395 . S
C916 C919 1.403 . S
H917 C923 0.930 . S
C918 H904 0.930 . S
C918 C916 1.395 . S
C918 C921 1.403 . S
C919 C916 1.403 . S
C919 C920 1.524 . S
C919 C923 1.400 . S
C920 H905 0.960 . S
C920 H906 0.960 . S
C920 H907 0.960 . S
C920 C919 1.524 . S
C921 C918 1.403 . S
C921 C922 1.392 . S
C921 C925 1.495 . S
C922 C921 1.392 . S
C922 C923 1.385 . S
C922 C924 1.478 . S
C923 H917 0.930 . S
C923 C919 1.400 . S
C923 C922 1.385 . S
C924 C922 1.478 . S
C924 C926 1.381 . S
C924 C930 1.383 . S
C925 C921 1.495 . S
C925 H931 0.959 . S
C925 H932 0.961 . S
C925 H933 0.960 . S
C926 C924 1.381 . S
C926 C927 1.394 . S
C926 H934 0.930 . S
C927 C926 1.394 . S
C927 C928 1.383 . S
C927 H935 0.929 . S
C928 C927 1.383 . S
C928 C929 1.377 . S
C929 H913 0.930 . S
C929 C928 1.377 . S
C929 C930 1.379 . S
C930 H914 0.931 . S
C930 C924 1.383 . S
C930 C929 1.379 . S
H931 C925 0.959 . S
H932 C925 0.961 . S
H933 C925 0.960 . S
H934 C926 0.930 . S
H935 C927 0.929 . S
H936 C944 0.929 . S
H937 C946 0.930 . S
H938 C948 0.930 . S
H939 C951 0.929 . S
H940 C954 0.930 . S
H941 C956 0.960 . S
H942 C956 0.960 . S
H943 C956 0.960 . S
C944 H936 0.929 . S
C944 C945 1.377 . S
C944 C946 1.384 . S
C945 C944 1.377 . S
C945 C951 1.390 . S
C946 H937 0.930 . S
C946 C944 1.384 . S
C946 C947 1.372 . S
C947 C946 1.372 . S
C947 C948 1.400 . S
C947 C952 1.490 . S
C948 H938 0.930 . S
C948 C947 1.400 . S
C948 C951 1.386 . S
H949 C965 0.930 . S
H950 C966 0.931 . S
C951 H939 0.929 . S
C951 C945 1.390 . S
C951 C948 1.386 . S
C952 C947 1.490 . S
C952 C954 1.395 . S
C952 C955 1.403 . S
H953 C959 0.930 . S
C954 H940 0.930 . S
C954 C952 1.395 . S
C954 C957 1.403 . S
C955 C952 1.403 . S
C955 C956 1.524 . S
C955 C959 1.400 . S
C956 H941 0.960 . S
C956 H942 0.960 . S
C956 H943 0.960 . S
C956 C955 1.524 . S
C957 C954 1.403 . S
C957 C958 1.392 . S
C957 C961 1.495 . S
C958 C957 1.392 . S
C958 C959 1.385 . S
C958 C960 1.478 . S
C959 H953 0.930 . S
C959 C955 1.400 . S
C959 C958 1.385 . S
C960 C958 1.478 . S
C960 C962 1.381 . S
C960 C966 1.383 . S
C961 C957 1.495 . S
C961 H967 0.959 . S
C961 H968 0.961 . S
C961 H969 0.960 . S
C962 C960 1.381 . S
C962 C963 1.394 . S
C962 H970 0.930 . S
C963 C962 1.394 . S
C963 C964 1.383 . S
C963 H971 0.929 . S
C964 C963 1.383 . S
C964 C965 1.377 . S
C965 H949 0.930 . S
C965 C964 1.377 . S
C965 C966 1.379 . S
C966 H950 0.931 . S
C966 C960 1.383 . S
C966 C965 1.379 . S
H967 C961 0.959 . S
H968 C961 0.961 . S
H969 C961 0.960 . S
H970 C962 0.930 . S
H971 C963 0.929 . S
H972 C980 0.929 . S
H973 C982 0.930 . S
H974 C984 0.930 . S
H975 C987 0.929 . S
H976 C990 0.930 . S
H977 C992 0.960 . S
H978 C992 0.960 . S
H979 C992 0.960 . S
C980 H972 0.929 . S
C980 C981 1.377 . S
C980 C982 1.384 . S
C981 C980 1.377 . S
C981 C987 1.390 . S
C982 H973 0.930 . S
C982 C980 1.384 . S
C982 C983 1.372 . S
C983 C982 1.372 . S
C983 C984 1.400 . S
C983 C988 1.490 . S
C984 H974 0.930 . S
C984 C983 1.400 . S
C984 C987 1.386 . S
H985 C1001 0.930 . S
H986 C1002 0.931 . S
C987 H975 0.929 . S
C987 C981 1.390 . S
C987 C984 1.386 . S
C988 C983 1.490 . S
C988 C990 1.395 . S
C988 C991 1.403 . S
H989 C995 0.930 . S
C990 H976 0.930 . S
C990 C988 1.395 . S
C990 C993 1.403 . S
C991 C988 1.403 . S
C991 C992 1.524 . S
C991 C995 1.400 . S
C992 H977 0.960 . S
C992 H978 0.960 . S
C992 H979 0.960 . S
C992 C991 1.524 . S
C993 C990 1.403 . S
C993 C994 1.392 . S
C993 C997 1.495 . S
C994 C993 1.392 . S
C994 C995 1.385 . S
C994 C996 1.478 . S
C995 H989 0.930 . S
C995 C991 1.400 . S
C995 C994 1.385 . S
C996 C994 1.478 . S
C996 C998 1.381 . S
C996 C1002 1.383 . S
C997 C993 1.495 . S
C997 H1003 0.959 . S
C997 H1004 0.961 . S
C997 H1005 0.960 . S
C998 C996 1.381 . S
C998 C999 1.394 . S
C998 H1006 0.930 . S
C999 C998 1.394 . S
C999 C1000 1.383 . S
C999 H1007 0.929 . S
C1000 C999 1.383 . S
C1000 C1001 1.377 . S
C1001 H985 0.930 . S
C1001 C1000 1.377 . S
C1001 C1002 1.379 . S
C1002 H986 0.931 . S
C1002 C996 1.383 . S
C1002 C1001 1.379 . S
H1003 C997 0.959 . S
H1004 C997 0.961 . S
H1005 C997 0.960 . S
H1006 C998 0.930 . S
H1007 C999 0.929 . S
H1008 C1016 0.929 . S
H1009 C1018 0.930 . S
H1010 C1020 0.930 . S
H1011 C1023 0.929 . S
H1012 C1026 0.930 . S
H1013 C1028 0.960 . S
H1014 C1028 0.960 . S
H1015 C1028 0.960 . S
C1016 H1008 0.929 . S
C1016 C1017 1.377 . S
C1016 C1018 1.384 . S
C1017 C1016 1.377 . S
C1017 C1023 1.390 . S
C1018 H1009 0.930 . S
C1018 C1016 1.384 . S
C1018 C1019 1.372 . S
C1019 C1018 1.372 . S
C1019 C1020 1.400 . S
C1019 C1024 1.490 . S
C1020 H1010 0.930 . S
C1020 C1019 1.400 . S
C1020 C1023 1.386 . S
H1021 C1037 0.930 . S
H1022 C1038 0.931 . S
C1023 H1011 0.929 . S
C1023 C1017 1.390 . S
C1023 C1020 1.386 . S
C1024 C1019 1.490 . S
C1024 C1026 1.395 . S
C1024 C1027 1.403 . S
H1025 C1031 0.930 . S
C1026 H1012 0.930 . S
C1026 C1024 1.395 . S
C1026 C1029 1.403 . S
C1027 C1024 1.403 . S
C1027 C1028 1.524 . S
C1027 C1031 1.400 . S
C1028 H1013 0.960 . S
C1028 H1014 0.960 . S
C1028 H1015 0.960 . S
C1028 C1027 1.524 . S
C1029 C1026 1.403 . S
C1029 C1030 1.392 . S
C1029 C1033 1.495 . S
C1030 C1029 1.392 . S
C1030 C1031 1.385 . S
C1030 C1032 1.478 . S
C1031 H1025 0.930 . S
C1031 C1027 1.400 . S
C1031 C1030 1.385 . S
C1032 C1030 1.478 . S
C1032 C1034 1.381 . S
C1032 C1038 1.383 . S
C1033 C1029 1.495 . S
C1033 H1039 0.959 . S
C1033 H1040 0.961 . S
C1033 H1041 0.960 . S
C1034 C1032 1.381 . S
C1034 C1035 1.394 . S
C1034 H1042 0.930 . S
C1035 C1034 1.394 . S
C1035 C1036 1.383 . S
C1035 H1043 0.929 . S
C1036 C1035 1.383 . S
C1036 C1037 1.377 . S
C1037 H1021 0.930 . S
C1037 C1036 1.377 . S
C1037 C1038 1.379 . S
C1038 H1022 0.931 . S
C1038 C1032 1.383 . S
C1038 C1037 1.379 . S
H1039 C1033 0.959 . S
H1040 C1033 0.961 . S
H1041 C1033 0.960 . S
H1042 C1034 0.930 . S
H1043 C1035 0.929 . S
H1044 C1052 0.929 . S
H1045 C1054 0.930 . S
H1046 C1056 0.930 . S
H1047 C1059 0.929 . S
H1048 C1062 0.930 . S
H1049 C1064 0.960 . S
H1050 C1064 0.960 . S
H1051 C1064 0.960 . S
C1052 H1044 0.929 . S
C1052 C1053 1.377 . S
C1052 C1054 1.384 . S
C1053 C1052 1.377 . S
C1053 C1059 1.390 . S
C1054 H1045 0.930 . S
C1054 C1052 1.384 . S
C1054 C1055 1.372 . S
C1055 C1054 1.372 . S
C1055 C1056 1.400 . S
C1055 C1060 1.490 . S
C1056 H1046 0.930 . S
C1056 C1055 1.400 . S
C1056 C1059 1.386 . S
H1057 C1073 0.930 . S
H1058 C1074 0.931 . S
C1059 H1047 0.929 . S
C1059 C1053 1.390 . S
C1059 C1056 1.386 . S
C1060 C1055 1.490 . S
C1060 C1062 1.395 . S
C1060 C1063 1.403 . S
H1061 C1067 0.930 . S
C1062 H1048 0.930 . S
C1062 C1060 1.395 . S
C1062 C1065 1.403 . S
C1063 C1060 1.403 . S
C1063 C1064 1.524 . S
C1063 C1067 1.400 . S
C1064 H1049 0.960 . S
C1064 H1050 0.960 . S
C1064 H1051 0.960 . S
C1064 C1063 1.524 . S
C1065 C1062 1.403 . S
C1065 C1066 1.392 . S
C1065 C1069 1.495 . S
C1066 C1065 1.392 . S
C1066 C1067 1.385 . S
C1066 C1068 1.478 . S
C1067 H1061 0.930 . S
C1067 C1063 1.400 . S
C1067 C1066 1.385 . S
C1068 C1066 1.478 . S
C1068 C1070 1.381 . S
C1068 C1074 1.383 . S
C1069 C1065 1.495 . S
C1069 H1075 0.959 . S
C1069 H1076 0.961 . S
C1069 H1077 0.960 . S
C1070 C1068 1.381 . S
C1070 C1071 1.394 . S
C1070 H1078 0.930 . S
C1071 C1070 1.394 . S
C1071 C1072 1.383 . S
C1071 H1079 0.929 . S
C1072 C1071 1.383 . S
C1072 C1073 1.377 . S
C1073 H1057 0.930 . S
C1073 C1072 1.377 . S
C1073 C1074 1.379 . S
C1074 H1058 0.931 . S
C1074 C1068 1.383 . S
C1074 C1073 1.379 . S
H1075 C1069 0.959 . S
H1076 C1069 0.961 . S
H1077 C1069 0.960 . S
H1078 C1070 0.930 . S
H1079 C1071 0.929 . S
H1080 C1088 0.929 . S
H1081 C1090 0.930 . S
H1082 C1092 0.930 . S
H1083 C1095 0.929 . S
H1084 C1098 0.930 . S
H1085 C1100 0.960 . S
H1086 C1100 0.960 . S
H1087 C1100 0.960 . S
C1088 H1080 0.929 . S
C1088 C1089 1.377 . S
C1088 C1090 1.384 . S
C1089 C1088 1.377 . S
C1089 C1095 1.390 . S
C1090 H1081 0.930 . S
C1090 C1088 1.384 . S
C1090 C1091 1.372 . S
C1091 C1090 1.372 . S
C1091 C1092 1.400 . S
C1091 C1096 1.490 . S
C1092 H1082 0.930 . S
C1092 C1091 1.400 . S
C1092 C1095 1.386 . S
H1093 C1109 0.930 . S
H1094 C1110 0.931 . S
C1095 H1083 0.929 . S
C1095 C1089 1.390 . S
C1095 C1092 1.386 . S
C1096 C1091 1.490 . S
C1096 C1098 1.395 . S
C1096 C1099 1.403 . S
H1097 C1103 0.930 . S
C1098 H1084 0.930 . S
C1098 C1096 1.395 . S
C1098 C1101 1.403 . S
C1099 C1096 1.403 . S
C1099 C1100 1.524 . S
C1099 C1103 1.400 . S
C1100 H1085 0.960 . S
C1100 H1086 0.960 . S
C1100 H1087 0.960 . S
C1100 C1099 1.524 . S
C1101 C1098 1.403 . S
C1101 C1102 1.392 . S
C1101 C1105 1.495 . S
C1102 C1101 1.392 . S
C1102 C1103 1.385 . S
C1102 C1104 1.478 . S
C1103 H1097 0.930 . S
C1103 C1099 1.400 . S
C1103 C1102 1.385 . S
C1104 C1102 1.478 . S
C1104 C1106 1.381 . S
C1104 C1110 1.383 . S
C1105 C1101 1.495 . S
C1105 H1111 0.959 . S
C1105 H1112 0.961 . S
C1105 H1113 0.960 . S
C1106 C1104 1.381 . S
C1106 C1107 1.394 . S
C1106 H1114 0.930 . S
C1107 C1106 1.394 . S
C1107 C1108 1.383 . S
C1107 H1115 0.929 . S
C1108 C1107 1.383 . S
C1108 C1109 1.377 . S
C1109 H1093 0.930 . S
C1109 C1108 1.377 . S
C1109 C1110 1.379 . S
C1110 H1094 0.931 . S
C1110 C1104 1.383 . S
C1110 C1109 1.379 . S
H1111 C1105 0.959 . S
H1112 C1105 0.961 . S
H1113 C1105 0.960 . S
H1114 C1106 0.930 . S
H1115 C1107 0.929 . S
H1116 C1124 0.929 . S
H1117 C1126 0.930 . S
H1118 C1128 0.930 . S
H1119 C1131 0.929 . S
H1120 C1134 0.930 . S
H1121 C1136 0.960 . S
H1122 C1136 0.960 . S
H1123 C1136 0.960 . S
C1124 H1116 0.929 . S
C1124 C1125 1.377 . S
C1124 C1126 1.384 . S
C1125 C1124 1.377 . S
C1125 C1131 1.390 . S
C1126 H1117 0.930 . S
C1126 C1124 1.384 . S
C1126 C1127 1.372 . S
C1127 C1126 1.372 . S
C1127 C1128 1.400 . S
C1127 C1132 1.490 . S
C1128 H1118 0.930 . S
C1128 C1127 1.400 . S
C1128 C1131 1.386 . S
H1129 C1145 0.930 . S
H1130 C1146 0.931 . S
C1131 H1119 0.929 . S
C1131 C1125 1.390 . S
C1131 C1128 1.386 . S
C1132 C1127 1.490 . S
C1132 C1134 1.395 . S
C1132 C1135 1.403 . S
H1133 C1139 0.930 . S
C1134 H1120 0.930 . S
C1134 C1132 1.395 . S
C1134 C1137 1.403 . S
C1135 C1132 1.403 . S
C1135 C1136 1.524 . S
C1135 C1139 1.400 . S
C1136 H1121 0.960 . S
C1136 H1122 0.960 . S
C1136 H1123 0.960 . S
C1136 C1135 1.524 . S
C1137 C1134 1.403 . S
C1137 C1138 1.392 . S
C1137 C1141 1.495 . S
C1138 C1137 1.392 . S
C1138 C1139 1.385 . S
C1138 C1140 1.478 . S
C1139 H1133 0.930 . S
C1139 C1135 1.400 . S
C1139 C1138 1.385 . S
C1140 C1138 1.478 . S
C1140 C1142 1.381 . S
C1140 C1146 1.383 . S
C1141 C1137 1.495 . S
C1141 H1147 0.959 . S
C1141 H1148 0.961 . S
C1141 H1149 0.960 . S
C1142 C1140 1.381 . S
C1142 C1143 1.394 . S
C1142 H1150 0.930 . S
C1143 C1142 1.394 . S
C1143 C1144 1.383 . S
C1143 H1151 0.929 . S
C1144 C1143 1.383 . S
C1144 C1145 1.377 . S
C1145 H1129 0.930 . S
C1145 C1144 1.377 . S
C1145 C1146 1.379 . S
C1146 H1130 0.931 . S
C1146 C1140 1.383 . S
C1146 C1145 1.379 . S
H1147 C1141 0.959 . S
H1148 C1141 0.961 . S
H1149 C1141 0.960 . S
H1150 C1142 0.930 . S
H1151 C1143 0.929 . S
H1152 C1160 0.929 . S
H1153 C1162 0.930 . S
H1154 C1164 0.930 . S
H1155 C1167 0.929 1_556 S
H1156 C1170 0.930 . S
H1157 C1172 0.960 1_556 S
H1158 C1172 0.960 . S
H1159 C1172 0.960 1_556 S
C1160 H1152 0.929 . S
C1160 C1161 1.377 . S
C1160 C1162 1.384 . S
C1161 C1160 1.377 . S
C1161 C1167 1.390 . S
C1162 H1153 0.930 . S
C1162 C1160 1.384 . S
C1162 C1163 1.372 . S
C1163 C1162 1.372 . S
C1163 C1164 1.400 1_554 S
C1163 C1168 1.490 . S
C1164 H1154 0.930 . S
C1164 C1163 1.400 1_556 S
C1164 C1167 1.386 1_556 S
H1165 C1181 0.930 . S
H1166 C1182 0.931 . S
C1167 H1155 0.929 1_554 S
C1167 C1161 1.390 . S
C1167 C1164 1.386 1_554 S
C1168 C1163 1.490 . S
C1168 C1170 1.395 . S
C1168 C1171 1.403 . S
H1169 C1175 0.930 . S
C1170 H1156 0.930 . S
C1170 C1168 1.395 . S
C1170 C1173 1.411 1_455 S
C1171 C1168 1.403 . S
C1171 C1172 1.524 . S
C1171 C1175 1.400 1_454 S
C1172 H1157 0.960 1_554 S
C1172 H1158 0.960 . S
C1172 H1159 0.960 1_554 S
C1172 C1171 1.524 . S
C1173 C1170 1.411 1_655 S
C1173 C1174 1.386 1_554 S
C1173 C1177 1.495 1_554 S
C1174 C1173 1.386 1_556 S
C1174 C1175 1.385 . S
C1174 C1176 1.478 . S
C1175 H1169 0.930 . S
C1175 C1171 1.400 1_656 S
C1175 C1174 1.385 . S
C1176 C1174 1.478 . S
C1176 C1178 1.381 1_556 S
C1176 C1182 1.383 . S
C1177 C1173 1.495 1_556 S
C1177 H1183 0.958 1_556 S
C1177 H1184 0.964 . S
C1177 H1185 0.958 1_556 S
C1178 C1176 1.381 1_554 S
C1178 C1179 1.394 1_554 S
C1178 H1186 0.930 . S
C1179 C1178 1.394 1_556 S
C1179 C1180 1.383 . S
C1179 H1187 0.929 1_556 S
C1180 C1179 1.383 . S
C1180 C1181 1.377 . S
C1181 H1165 0.930 . S
C1181 C1180 1.377 . S
C1181 C1182 1.379 . S
C1182 H1166 0.931 . S
C1182 C1176 1.383 . S
C1182 C1181 1.379 . S
H1183 C1177 0.958 1_554 S
H1184 C1177 0.964 . S
H1185 C1177 0.958 1_554 S
H1186 C1178 0.930 . S
H1187 C1179 0.929 1_554 S
H1188 C1196 0.929 . S
H1189 C1198 0.930 1_554 S
H1190 C1200 0.930 . S
H1191 C1203 0.929 . S
H1192 C1206 0.930 . S
H1193 C1208 0.960 . S
H1194 C1208 0.960 . S
H1195 C1208 0.960 . S
C1196 H1188 0.929 . S
C1196 C1197 1.377 . S
C1196 C1198 1.384 . S
C1197 C1196 1.377 . S
C1197 C1203 1.390 . S
C1198 H1189 0.930 1_556 S
C1198 C1196 1.384 . S
C1198 C1199 1.372 . S
C1199 C1198 1.372 . S
C1199 C1200 1.400 . S
C1199 C1204 1.490 . S
C1200 H1190 0.930 . S
C1200 C1199 1.400 . S
C1200 C1203 1.386 . S
H1201 C1217 0.930 . S
H1202 C1218 0.931 . S
C1203 H1191 0.929 . S
C1203 C1197 1.390 . S
C1203 C1200 1.386 . S
C1204 C1199 1.490 . S
C1204 C1206 1.395 1_556 S
C1204 C1207 1.403 . S
H1205 C1211 0.930 . S
C1206 H1192 0.930 . S
C1206 C1204 1.395 1_554 S
C1206 C1209 1.403 . S
C1207 C1204 1.403 . S
C1207 C1208 1.524 . S
C1207 C1211 1.400 . S
C1208 H1193 0.960 . S
C1208 H1194 0.960 . S
C1208 H1195 0.960 . S
C1208 C1207 1.524 . S
C1209 C1206 1.403 . S
C1209 C1210 1.392 . S
C1209 C1213 1.495 . S
C1210 C1209 1.392 . S
C1210 C1211 1.385 1_554 S
C1210 C1212 1.478 . S
C1211 H1205 0.930 . S
C1211 C1207 1.400 . S
C1211 C1210 1.385 1_556 S
C1212 C1210 1.478 . S
C1212 C1214 1.381 . S
C1212 C1218 1.383 . S
C1213 C1209 1.495 . S
C1213 H1219 0.959 . S
C1213 H1220 0.961 . S
C1213 H1221 0.960 . S
C1214 C1212 1.381 . S
C1214 C1215 1.394 . S
C1214 H1222 0.930 . S
C1215 C1214 1.394 . S
C1215 C1216 1.383 . S
C1215 H1223 0.929 . S
C1216 C1215 1.383 . S
C1216 C1217 1.377 . S
C1217 H1201 0.930 . S
C1217 C1216 1.377 . S
C1217 C1218 1.379 . S
C1218 H1202 0.931 . S
C1218 C1212 1.383 . S
C1218 C1217 1.379 . S
H1219 C1213 0.959 . S
H1220 C1213 0.961 . S
H1221 C1213 0.960 . S
H1222 C1214 0.930 . S
H1223 C1215 0.929 . S
H1224 C1232 0.929 . S
H1225 C1234 0.930 . S
H1226 C1236 0.930 . S
H1227 C1239 0.929 1_556 S
H1228 C1242 0.930 . S
H1229 C1244 0.960 . S
H1230 C1244 0.960 . S
H1231 C1244 0.960 . S
C1232 H1224 0.929 . S
C1232 C1233 1.377 . S
C1232 C1234 1.384 . S
C1233 C1232 1.377 . S
C1233 C1239 1.390 . S
C1234 H1225 0.930 . S
C1234 C1232 1.384 . S
C1234 C1235 1.372 . S
C1235 C1234 1.372 . S
C1235 C1236 1.400 1_554 S
C1235 C1240 1.490 . S
C1236 H1226 0.930 . S
C1236 C1235 1.400 1_556 S
C1236 C1239 1.386 1_556 S
H1237 C1253 0.930 . S
H1238 C1254 0.931 . S
C1239 H1227 0.929 1_554 S
C1239 C1233 1.390 . S
C1239 C1236 1.386 1_554 S
C1240 C1235 1.490 . S
C1240 C1242 1.395 . S
C1240 C1243 1.403 1_554 S
H1241 C1247 0.930 . S
C1242 H1228 0.930 . S
C1242 C1240 1.395 . S
C1242 C1245 1.403 1_565 S
C1243 C1240 1.403 1_556 S
C1243 C1244 1.524 . S
C1243 C1247 1.400 1_565 S
C1244 H1229 0.960 . S
C1244 H1230 0.960 . S
C1244 H1231 0.960 . S
C1244 C1243 1.524 . S
C1245 C1242 1.403 1_545 S
C1245 C1246 1.392 1_554 S
C1245 C1249 1.495 . S
C1246 C1245 1.392 1_556 S
C1246 C1247 1.385 . S
C1246 C1248 1.478 . S
C1247 H1241 0.930 . S
C1247 C1243 1.400 1_545 S
C1247 C1246 1.385 . S
C1248 C1246 1.478 . S
C1248 C1250 1.381 1_556 S
C1248 C1254 1.383 . S
C1249 C1245 1.495 . S
C1249 H1255 0.959 . S
C1249 H1256 0.961 . S
C1249 H1257 0.960 . S
C1250 C1248 1.381 1_554 S
C1250 C1251 1.394 1_554 S
C1250 H1258 0.930 . S
C1251 C1250 1.394 1_556 S
C1251 C1252 1.383 . S
C1251 H1259 0.929 1_556 S
C1252 C1251 1.383 . S
C1252 C1253 1.377 . S
C1253 H1237 0.930 . S
C1253 C1252 1.377 . S
C1253 C1254 1.379 . S
C1254 H1238 0.931 . S
C1254 C1248 1.383 . S
C1254 C1253 1.379 . S
H1255 C1249 0.959 . S
H1256 C1249 0.961 . S
H1257 C1249 0.960 . S
H1258 C1250 0.930 . S
H1259 C1251 0.929 1_554 S
H1260 C1268 0.929 1_554 S
H1261 C1270 0.930 . S
H1262 C1272 0.930 . S
H1263 C1275 0.929 . S
H1264 C1278 0.930 . S
H1265 C1280 0.960 1_554 S
H1266 C1280 0.960 1_554 S
H1267 C1280 0.960 . S
C1268 H1260 0.929 1_556 S
C1268 C1269 1.377 . S
C1268 C1270 1.384 1_556 S
C1269 C1268 1.377 . S
C1269 C1275 1.390 . S
C1270 H1261 0.930 . S
C1270 C1268 1.384 1_554 S
C1270 C1271 1.372 1_554 S
C1271 C1270 1.372 1_556 S
C1271 C1272 1.400 . S
C1271 C1276 1.490 . S
C1272 H1262 0.930 . S
C1272 C1271 1.400 . S
C1272 C1275 1.386 . S
H1273 C1289 0.930 1_556 S
H1274 C1290 0.931 . S
C1275 H1263 0.929 . S
C1275 C1269 1.390 . S
C1275 C1272 1.386 . S
C1276 C1271 1.490 . S
C1276 C1278 1.395 . S
C1276 C1279 1.403 . S
H1277 C1283 0.930 . S
C1278 H1264 0.930 . S
C1278 C1276 1.395 . S
C1278 C1281 1.403 1_656 S
C1279 C1276 1.403 . S
C1279 C1280 1.524 . S
C1279 C1283 1.400 1_656 S
C1280 H1265 0.960 1_556 S
C1280 H1266 0.960 1_556 S
C1280 H1267 0.960 . S
C1280 C1279 1.524 . S
C1281 C1278 1.403 1_454 S
C1281 C1282 1.392 . S
C1281 C1285 1.495 . S
C1282 C1281 1.392 . S
C1282 C1283 1.385 . S
C1282 C1284 1.478 . S
C1283 H1277 0.930 . S
C1283 C1279 1.400 1_454 S
C1283 C1282 1.385 . S
C1284 C1282 1.478 . S
C1284 C1286 1.381 . S
C1284 C1290 1.383 1_554 S
C1285 C1281 1.495 . S
C1285 H1291 0.959 . S
C1285 H1292 0.961 1_554 S
C1285 H1293 0.960 . S
C1286 C1284 1.381 . S
C1286 C1287 1.394 . S
C1286 H1294 0.930 . S
C1287 C1286 1.394 . S
C1287 C1288 1.383 . S
C1287 H1295 0.929 . S
C1288 C1287 1.383 . S
C1288 C1289 1.377 . S
C1289 H1273 0.930 1_554 S
C1289 C1288 1.377 . S
C1289 C1290 1.379 1_554 S
C1290 H1274 0.931 . S
C1290 C1284 1.383 1_556 S
C1290 C1289 1.379 1_556 S
H1291 C1285 0.959 . S
H1292 C1285 0.961 1_556 S
H1293 C1285 0.960 . S
H1294 C1286 0.930 . S
H1295 C1287 0.929 . S
H1296 C1304 0.929 1_554 S
H1297 C1306 0.930 . S
H1298 C1308 0.930 . S
H1299 C1311 0.929 . S
H1300 C1314 0.930 . S
H1301 C1316 0.960 . S
H1302 C1316 0.960 . S
H1303 C1316 0.960 . S
C1304 H1296 0.929 1_556 S
C1304 C1305 1.377 . S
C1304 C1306 1.384 1_556 S
C1305 C1304 1.377 . S
C1305 C1311 1.390 . S
C1306 H1297 0.930 . S
C1306 C1304 1.384 1_554 S
C1306 C1307 1.372 1_554 S
C1307 C1306 1.372 1_556 S
C1307 C1308 1.400 . S
C1307 C1312 1.490 . S
C1308 H1298 0.930 . S
C1308 C1307 1.400 . S
C1308 C1311 1.386 . S
H1309 C1325 0.927 1_556 S
H1310 C1326 0.931 1_556 S
C1311 H1299 0.929 . S
C1311 C1305 1.390 . S
C1311 C1308 1.386 . S
C1312 C1307 1.490 . S
C1312 C1314 1.395 1_556 S
C1312 C1315 1.403 . S
H1313 C1319 0.930 . S
C1314 H1300 0.930 . S
C1314 C1312 1.395 1_554 S
C1314 C1317 1.403 . S
C1315 C1312 1.403 . S
C1315 C1316 1.524 . S
C1315 C1319 1.400 . S
C1316 H1301 0.960 . S
C1316 H1302 0.960 . S
C1316 H1303 0.960 . S
C1316 C1315 1.524 . S
C1317 C1314 1.403 . S
C1317 C1318 1.392 . S
C1317 C1321 1.495 . S
C1318 C1317 1.392 . S
C1318 C1319 1.385 1_554 S
C1318 C1320 1.478 . S
C1319 H1313 0.930 . S
C1319 C1315 1.400 . S
C1319 C1318 1.385 1_556 S
C1320 C1318 1.478 . S
C1320 C1322 1.381 . S
C1320 C1326 1.383 . S
C1321 C1317 1.495 . S
C1321 H1327 0.959 . S
C1321 H1328 0.961 . S
C1321 H1329 0.960 . S
C1322 C1320 1.381 . S
C1322 C1323 1.394 . S
C1322 H1330 0.930 . S
C1323 C1322 1.394 . S
C1323 C1324 1.383 . S
C1323 H1331 0.929 . S
C1324 C1323 1.383 . S
C1324 C1325 1.377 . S
C1325 H1309 0.927 1_554 S
C1325 C1324 1.377 . S
C1325 C1326 1.379 . S
C1326 H1310 0.931 1_554 S
C1326 C1320 1.383 . S
C1326 C1325 1.379 . S
H1327 C1321 0.959 . S
H1328 C1321 0.961 . S
H1329 C1321 0.960 . S
H1330 C1322 0.930 . S
H1331 C1323 0.929 . S
H1332 C1340 0.929 . S
H1333 C1342 0.930 . S
H1334 C1344 0.918 1_554 S
H1335 C1347 0.929 1_554 S
H1336 C1350 0.930 . S
H1337 C1352 0.960 . S
H1338 C1352 0.960 . S
H1339 C1352 0.960 . S
C1340 H1332 0.929 . S
C1340 C1341 1.377 . S
C1340 C1342 1.384 . S
C1341 C1340 1.377 . S
C1341 C1347 1.390 . S
C1342 H1333 0.930 . S
C1342 C1340 1.384 . S
C1342 C1343 1.372 . S
C1343 C1342 1.372 . S
C1343 C1344 1.408 . S
C1343 C1348 1.490 . S
C1344 H1334 0.918 1_556 S
C1344 C1343 1.408 . S
C1344 C1347 1.389 . S
H1345 C1361 0.930 . S
H1346 C1362 0.931 . S
C1347 H1335 0.929 1_556 S
C1347 C1341 1.390 . S
C1347 C1344 1.389 . S
C1348 C1343 1.490 . S
C1348 C1350 1.395 . S
C1348 C1351 1.403 . S
H1349 C1355 0.932 . S
C1350 H1336 0.930 . S
C1350 C1348 1.395 . S
C1350 C1353 1.403 1_546 S
C1351 C1348 1.403 . S
C1351 C1352 1.524 . S
C1351 C1355 1.393 1_546 S
C1352 H1337 0.960 . S
C1352 H1338 0.960 . S
C1352 H1339 0.960 . S
C1352 C1351 1.524 . S
C1353 C1350 1.403 1_564 S
C1353 C1354 1.392 . S
C1353 C1357 1.495 . S
C1354 C1353 1.392 . S
C1354 C1355 1.391 . S
C1354 C1356 1.478 . S
C1355 H1349 0.932 . S
C1355 C1351 1.393 1_564 S
C1355 C1354 1.391 . S
C1356 C1354 1.478 . S
C1356 C1358 1.381 1_554 S
C1356 C1362 1.383 . S
C1357 C1353 1.495 . S
C1357 H1363 0.959 . S
C1357 H1364 0.961 . S
C1357 H1365 0.980 . S
C1358 C1356 1.381 1_556 S
C1358 C1359 1.394 1_556 S
C1358 H1366 0.930 . S
C1359 C1358 1.394 1_554 S
C1359 C1360 1.383 . S
C1359 H1367 0.929 1_554 S
C1360 C1359 1.383 . S
C1360 C1361 1.377 . S
C1361 H1345 0.930 . S
C1361 C1360 1.377 . S
C1361 C1362 1.379 . S
C1362 H1346 0.931 . S
C1362 C1356 1.383 . S
C1362 C1361 1.379 . S
H1363 C1357 0.959 . S
H1364 C1357 0.961 . S
H1365 C1357 0.980 . S
H1366 C1358 0.930 . S
H1367 C1359 0.929 1_556 S
H1368 C1376 0.929 . S
H1369 C1378 0.930 . S
H1370 C1380 0.930 . S
H1371 C1383 0.929 . S
H1372 C1386 0.930 . S
H1373 C1388 0.960 . S
H1374 C1388 0.960 . S
H1375 C1388 0.960 . S
C1376 H1368 0.929 . S
C1376 C1377 1.377 . S
C1376 C1378 1.384 . S
C1377 C1376 1.377 . S
C1377 C1383 1.390 . S
C1378 H1369 0.930 . S
C1378 C1376 1.384 . S
C1378 C1379 1.372 . S
C1379 C1378 1.372 . S
C1379 C1380 1.400 . S
C1379 C1384 1.490 . S
C1380 H1370 0.930 . S
C1380 C1379 1.400 . S
C1380 C1383 1.386 . S
H1381 C1397 0.930 . S
H1382 C1398 0.931 . S
C1383 H1371 0.929 . S
C1383 C1377 1.390 . S
C1383 C1380 1.386 . S
C1384 C1379 1.490 . S
C1384 C1386 1.395 . S
C1384 C1387 1.403 . S
H1385 C1391 0.930 . S
C1386 H1372 0.930 . S
C1386 C1384 1.395 . S
C1386 C1389 1.403 . S
C1387 C1384 1.403 . S
C1387 C1388 1.524 . S
C1387 C1391 1.400 . S
C1388 H1373 0.960 . S
C1388 H1374 0.960 . S
C1388 H1375 0.960 . S
C1388 C1387 1.524 . S
C1389 C1386 1.403 . S
C1389 C1390 1.392 . S
C1389 C1393 1.495 . S
C1390 C1389 1.392 . S
C1390 C1391 1.385 . S
C1390 C1392 1.478 . S
C1391 H1385 0.930 . S
C1391 C1387 1.400 . S
C1391 C1390 1.385 . S
C1392 C1390 1.478 . S
C1392 C1394 1.381 . S
C1392 C1398 1.383 . S
C1393 C1389 1.495 . S
C1393 H1399 0.959 . S
C1393 H1400 0.961 . S
C1393 H1401 0.960 . S
C1394 C1392 1.381 . S
C1394 C1395 1.394 . S
C1394 H1402 0.930 . S
C1395 C1394 1.394 . S
C1395 C1396 1.383 . S
C1395 H1403 0.929 . S
C1396 C1395 1.383 . S
C1396 C1397 1.377 . S
C1397 H1381 0.930 . S
C1397 C1396 1.377 . S
C1397 C1398 1.379 . S
C1398 H1382 0.931 . S
C1398 C1392 1.383 . S
C1398 C1397 1.379 . S
H1399 C1393 0.959 . S
H1400 C1393 0.961 . S
H1401 C1393 0.960 . S
H1402 C1394 0.930 . S
H1403 C1395 0.929 . S
H1404 C1412 0.929 . S
H1405 C1414 0.930 . S
H1406 C1416 0.930 . S
H1407 C1419 0.929 . S
H1408 C1422 0.930 . S
H1409 C1424 0.960 . S
H1410 C1424 0.960 . S
H1411 C1424 0.960 . S
C1412 H1404 0.929 . S
C1412 C1413 1.377 . S
C1412 C1414 1.384 . S
C1413 C1412 1.377 . S
C1413 C1419 1.390 . S
C1414 H1405 0.930 . S
C1414 C1412 1.384 . S
C1414 C1415 1.372 . S
C1415 C1414 1.372 . S
C1415 C1416 1.400 . S
C1415 C1420 1.490 . S
C1416 H1406 0.930 . S
C1416 C1415 1.400 . S
C1416 C1419 1.386 . S
H1417 C1433 0.930 . S
H1418 C1434 0.931 . S
C1419 H1407 0.929 . S
C1419 C1413 1.390 . S
C1419 C1416 1.386 . S
C1420 C1415 1.490 . S
C1420 C1422 1.395 . S
C1420 C1423 1.403 . S
H1421 C1427 0.930 . S
C1422 H1408 0.930 . S
C1422 C1420 1.395 . S
C1422 C1425 1.403 . S
C1423 C1420 1.403 . S
C1423 C1424 1.524 . S
C1423 C1427 1.400 . S
C1424 H1409 0.960 . S
C1424 H1410 0.960 . S
C1424 H1411 0.960 . S
C1424 C1423 1.524 . S
C1425 C1422 1.403 . S
C1425 C1426 1.392 . S
C1425 C1429 1.495 . S
C1426 C1425 1.392 . S
C1426 C1427 1.385 . S
C1426 C1428 1.478 . S
C1427 H1421 0.930 . S
C1427 C1423 1.400 . S
C1427 C1426 1.385 . S
C1428 C1426 1.478 . S
C1428 C1430 1.381 . S
C1428 C1434 1.383 . S
C1429 C1425 1.495 . S
C1429 H1435 0.959 . S
C1429 H1436 0.961 . S
C1429 H1437 0.960 . S
C1430 C1428 1.381 . S
C1430 C1431 1.394 . S
C1430 H1438 0.930 . S
C1431 C1430 1.394 . S
C1431 C1432 1.383 . S
C1431 H1439 0.929 . S
C1432 C1431 1.383 . S
C1432 C1433 1.377 . S
C1433 H1417 0.930 . S
C1433 C1432 1.377 . S
C1433 C1434 1.379 . S
C1434 H1418 0.931 . S
C1434 C1428 1.383 . S
C1434 C1433 1.379 . S
H1435 C1429 0.959 . S
H1436 C1429 0.961 . S
H1437 C1429 0.960 . S
H1438 C1430 0.930 . S
H1439 C1431 0.929 . S
H1440 C1448 0.929 . S
H1441 C1450 0.930 . S
H1442 C1452 0.930 . S
H1443 C1455 0.929 . S
H1444 C1458 0.930 . S
H1445 C1460 0.960 . S
H1446 C1460 0.960 . S
H1447 C1460 0.960 . S
C1448 H1440 0.929 . S
C1448 C1449 1.377 . S
C1448 C1450 1.384 . S
C1449 C1448 1.377 . S
C1449 C1455 1.390 . S
C1450 H1441 0.930 . S
C1450 C1448 1.384 . S
C1450 C1451 1.372 . S
C1451 C1450 1.372 . S
C1451 C1452 1.400 . S
C1451 C1456 1.490 . S
C1452 H1442 0.930 . S
C1452 C1451 1.400 . S
C1452 C1455 1.386 . S
H1453 C1469 0.930 . S
H1454 C1470 0.931 . S
C1455 H1443 0.929 . S
C1455 C1449 1.390 . S
C1455 C1452 1.386 . S
C1456 C1451 1.490 . S
C1456 C1458 1.395 . S
C1456 C1459 1.403 . S
H1457 C1463 0.930 . S
C1458 H1444 0.930 . S
C1458 C1456 1.395 . S
C1458 C1461 1.403 . S
C1459 C1456 1.403 . S
C1459 C1460 1.524 . S
C1459 C1463 1.400 . S
C1460 H1445 0.960 . S
C1460 H1446 0.960 . S
C1460 H1447 0.960 . S
C1460 C1459 1.524 . S
C1461 C1458 1.403 . S
C1461 C1462 1.392 . S
C1461 C1465 1.495 . S
C1462 C1461 1.392 . S
C1462 C1463 1.385 . S
C1462 C1464 1.478 . S
C1463 H1457 0.930 . S
C1463 C1459 1.400 . S
C1463 C1462 1.385 . S
C1464 C1462 1.478 . S
C1464 C1466 1.381 . S
C1464 C1470 1.383 . S
C1465 C1461 1.495 . S
C1465 H1471 0.959 . S
C1465 H1472 0.961 . S
C1465 H1473 0.960 . S
C1466 C1464 1.381 . S
C1466 C1467 1.394 . S
C1466 H1474 0.930 . S
C1467 C1466 1.394 . S
C1467 C1468 1.383 . S
C1467 H1475 0.929 . S
C1468 C1467 1.383 . S
C1468 C1469 1.377 . S
C1469 H1453 0.930 . S
C1469 C1468 1.377 . S
C1469 C1470 1.379 . S
C1470 H1454 0.931 . S
C1470 C1464 1.383 . S
C1470 C1469 1.379 . S
H1471 C1465 0.959 . S
H1472 C1465 0.961 . S
H1473 C1465 0.960 . S
H1474 C1466 0.930 . S
H1475 C1467 0.929 . S
H1476 C1484 0.929 . S
H1477 C1486 0.930 . S
H1478 C1488 0.930 . S
H1479 C1491 0.929 . S
H1480 C1494 0.930 . S
H1481 C1496 0.960 . S
H1482 C1496 0.960 . S
H1483 C1496 0.960 . S
C1484 H1476 0.929 . S
C1484 C1485 1.377 . S
C1484 C1486 1.384 . S
C1485 C1484 1.377 . S
C1485 C1491 1.390 . S
C1486 H1477 0.930 . S
C1486 C1484 1.384 . S
C1486 C1487 1.372 . S
C1487 C1486 1.372 . S
C1487 C1488 1.400 . S
C1487 C1492 1.490 . S
C1488 H1478 0.930 . S
C1488 C1487 1.400 . S
C1488 C1491 1.386 . S
H1489 C1505 0.930 . S
H1490 C1506 0.931 . S
C1491 H1479 0.929 . S
C1491 C1485 1.390 . S
C1491 C1488 1.386 . S
C1492 C1487 1.490 . S
C1492 C1494 1.395 . S
C1492 C1495 1.403 . S
H1493 C1499 0.930 . S
C1494 H1480 0.930 . S
C1494 C1492 1.395 . S
C1494 C1497 1.403 . S
C1495 C1492 1.403 . S
C1495 C1496 1.524 . S
C1495 C1499 1.400 . S
C1496 H1481 0.960 . S
C1496 H1482 0.960 . S
C1496 H1483 0.960 . S
C1496 C1495 1.524 . S
C1497 C1494 1.403 . S
C1497 C1498 1.392 . S
C1497 C1501 1.495 . S
C1498 C1497 1.392 . S
C1498 C1499 1.385 . S
C1498 C1500 1.478 . S
C1499 H1493 0.930 . S
C1499 C1495 1.400 . S
C1499 C1498 1.385 . S
C1500 C1498 1.478 . S
C1500 C1502 1.381 . S
C1500 C1506 1.383 . S
C1501 C1497 1.495 . S
C1501 H1507 0.959 . S
C1501 H1508 0.961 . S
C1501 H1509 0.960 . S
C1502 C1500 1.381 . S
C1502 C1503 1.394 . S
C1502 H1510 0.930 . S
C1503 C1502 1.394 . S
C1503 C1504 1.383 . S
C1503 H1511 0.929 . S
C1504 C1503 1.383 . S
C1504 C1505 1.377 . S
C1505 H1489 0.930 . S
C1505 C1504 1.377 . S
C1505 C1506 1.379 . S
C1506 H1490 0.931 . S
C1506 C1500 1.383 . S
C1506 C1505 1.379 . S
H1507 C1501 0.959 . S
H1508 C1501 0.961 . S
H1509 C1501 0.960 . S
H1510 C1502 0.930 . S
H1511 C1503 0.929 . S
H1512 C1520 0.929 . S
H1513 C1522 0.930 . S
H1514 C1524 0.930 . S
H1515 C1527 0.929 . S
H1516 C1530 0.930 . S
H1517 C1532 0.960 . S
H1518 C1532 0.960 . S
H1519 C1532 0.960 . S
C1520 H1512 0.929 . S
C1520 C1521 1.377 . S
C1520 C1522 1.384 . S
C1521 C1520 1.377 . S
C1521 C1527 1.390 . S
C1522 H1513 0.930 . S
C1522 C1520 1.384 . S
C1522 C1523 1.372 . S
C1523 C1522 1.372 . S
C1523 C1524 1.400 . S
C1523 C1528 1.490 . S
C1524 H1514 0.930 . S
C1524 C1523 1.400 . S
C1524 C1527 1.386 . S
H1525 C1541 0.930 . S
H1526 C1542 0.931 . S
C1527 H1515 0.929 . S
C1527 C1521 1.390 . S
C1527 C1524 1.386 . S
C1528 C1523 1.490 . S
C1528 C1530 1.395 . S
C1528 C1531 1.403 . S
H1529 C1535 0.930 . S
C1530 H1516 0.930 . S
C1530 C1528 1.395 . S
C1530 C1533 1.403 . S
C1531 C1528 1.403 . S
C1531 C1532 1.524 . S
C1531 C1535 1.400 . S
C1532 H1517 0.960 . S
C1532 H1518 0.960 . S
C1532 H1519 0.960 . S
C1532 C1531 1.524 . S
C1533 C1530 1.403 . S
C1533 C1534 1.392 . S
C1533 C1537 1.495 . S
C1534 C1533 1.392 . S
C1534 C1535 1.385 . S
C1534 C1536 1.478 . S
C1535 H1529 0.930 . S
C1535 C1531 1.400 . S
C1535 C1534 1.385 . S
C1536 C1534 1.478 . S
C1536 C1538 1.381 . S
C1536 C1542 1.383 . S
C1537 C1533 1.495 . S
C1537 H1543 0.959 . S
C1537 H1544 0.961 . S
C1537 H1545 0.960 . S
C1538 C1536 1.381 . S
C1538 C1539 1.394 . S
C1538 H1546 0.930 . S
C1539 C1538 1.394 . S
C1539 C1540 1.383 . S
C1539 H1547 0.929 . S
C1540 C1539 1.383 . S
C1540 C1541 1.377 . S
C1541 H1525 0.930 . S
C1541 C1540 1.377 . S
C1541 C1542 1.379 . S
C1542 H1526 0.931 . S
C1542 C1536 1.383 . S
C1542 C1541 1.379 . S
H1543 C1537 0.959 . S
H1544 C1537 0.961 . S
H1545 C1537 0.960 . S
H1546 C1538 0.930 . S
H1547 C1539 0.929 . S
H1548 C1556 0.929 . S
H1549 C1558 0.930 . S
H1550 C1560 0.930 . S
H1551 C1563 0.929 . S
H1552 C1566 0.930 . S
H1553 C1568 0.960 . S
H1554 C1568 0.960 . S
H1555 C1568 0.960 . S
C1556 H1548 0.929 . S
C1556 C1557 1.377 . S
C1556 C1558 1.384 . S
C1557 C1556 1.377 . S
C1557 C1563 1.390 . S
C1558 H1549 0.930 . S
C1558 C1556 1.384 . S
C1558 C1559 1.372 . S
C1559 C1558 1.372 . S
C1559 C1560 1.400 . S
C1559 C1564 1.490 . S
C1560 H1550 0.930 . S
C1560 C1559 1.400 . S
C1560 C1563 1.386 . S
H1561 C1577 0.930 . S
H1562 C1578 0.931 . S
C1563 H1551 0.929 . S
C1563 C1557 1.390 . S
C1563 C1560 1.386 . S
C1564 C1559 1.490 . S
C1564 C1566 1.395 . S
C1564 C1567 1.403 . S
H1565 C1571 0.930 . S
C1566 H1552 0.930 . S
C1566 C1564 1.395 . S
C1566 C1569 1.403 . S
C1567 C1564 1.403 . S
C1567 C1568 1.524 . S
C1567 C1571 1.400 . S
C1568 H1553 0.960 . S
C1568 H1554 0.960 . S
C1568 H1555 0.960 . S
C1568 C1567 1.524 . S
C1569 C1566 1.403 . S
C1569 C1570 1.392 . S
C1569 C1573 1.495 . S
C1570 C1569 1.392 . S
C1570 C1571 1.385 . S
C1570 C1572 1.478 . S
C1571 H1565 0.930 . S
C1571 C1567 1.400 . S
C1571 C1570 1.385 . S
C1572 C1570 1.478 . S
C1572 C1574 1.381 . S
C1572 C1578 1.383 . S
C1573 C1569 1.495 . S
C1573 H1579 0.959 . S
C1573 H1580 0.961 . S
C1573 H1581 0.960 . S
C1574 C1572 1.381 . S
C1574 C1575 1.394 . S
C1574 H1582 0.930 . S
C1575 C1574 1.394 . S
C1575 C1576 1.383 . S
C1575 H1583 0.929 . S
C1576 C1575 1.383 . S
C1576 C1577 1.377 . S
C1577 H1561 0.930 . S
C1577 C1576 1.377 . S
C1577 C1578 1.379 . S
C1578 H1562 0.931 . S
C1578 C1572 1.383 . S
C1578 C1577 1.379 . S
H1579 C1573 0.959 . S
H1580 C1573 0.961 . S
H1581 C1573 0.960 . S
H1582 C1574 0.930 . S
H1583 C1575 0.929 . S
H1584 C1592 0.929 . S
H1585 C1594 0.930 . S
H1586 C1596 0.930 . S
H1587 C1599 0.929 . S
H1588 C1602 0.930 . S
H1589 C1604 0.960 . S
H1590 C1604 0.960 . S
H1591 C1604 0.960 . S
C1592 H1584 0.929 . S
C1592 C1593 1.377 . S
C1592 C1594 1.384 . S
C1593 C1592 1.377 . S
C1593 C1599 1.390 . S
C1594 H1585 0.930 . S
C1594 C1592 1.384 . S
C1594 C1595 1.372 . S
C1595 C1594 1.372 . S
C1595 C1596 1.400 . S
C1595 C1600 1.490 . S
C1596 H1586 0.930 . S
C1596 C1595 1.400 . S
C1596 C1599 1.386 . S
H1597 C1613 0.930 . S
H1598 C1614 0.931 . S
C1599 H1587 0.929 . S
C1599 C1593 1.390 . S
C1599 C1596 1.386 . S
C1600 C1595 1.490 . S
C1600 C1602 1.395 . S
C1600 C1603 1.403 . S
H1601 C1607 0.930 . S
C1602 H1588 0.930 . S
C1602 C1600 1.395 . S
C1602 C1605 1.403 . S
C1603 C1600 1.403 . S
C1603 C1604 1.524 . S
C1603 C1607 1.400 . S
C1604 H1589 0.960 . S
C1604 H1590 0.960 . S
C1604 H1591 0.960 . S
C1604 C1603 1.524 . S
C1605 C1602 1.403 . S
C1605 C1606 1.392 . S
C1605 C1609 1.495 . S
C1606 C1605 1.392 . S
C1606 C1607 1.385 . S
C1606 C1608 1.478 . S
C1607 H1601 0.930 . S
C1607 C1603 1.400 . S
C1607 C1606 1.385 . S
C1608 C1606 1.478 . S
C1608 C1610 1.381 . S
C1608 C1614 1.383 . S
C1609 C1605 1.495 . S
C1609 H1615 0.959 . S
C1609 H1616 0.961 . S
C1609 H1617 0.960 . S
C1610 C1608 1.381 . S
C1610 C1611 1.394 . S
C1610 H1618 0.930 . S
C1611 C1610 1.394 . S
C1611 C1612 1.383 . S
C1611 H1619 0.929 . S
C1612 C1611 1.383 . S
C1612 C1613 1.377 . S
C1613 H1597 0.930 . S
C1613 C1612 1.377 . S
C1613 C1614 1.379 . S
C1614 H1598 0.931 . S
C1614 C1608 1.383 . S
C1614 C1613 1.379 . S
H1615 C1609 0.959 . S
H1616 C1609 0.961 . S
H1617 C1609 0.960 . S
H1618 C1610 0.930 . S
H1619 C1611 0.929 . S
H1620 C1628 0.929 . S
H1621 C1630 0.930 . S
H1622 C1632 0.930 . S
H1623 C1635 0.929 . S
H1624 C1638 0.930 . S
H1625 C1640 0.960 . S
H1626 C1640 0.960 . S
H1627 C1640 0.960 . S
C1628 H1620 0.929 . S
C1628 C1629 1.377 . S
C1628 C1630 1.384 . S
C1629 C1628 1.377 . S
C1629 C1635 1.390 . S
C1630 H1621 0.930 . S
C1630 C1628 1.384 . S
C1630 C1631 1.372 . S
C1631 C1630 1.372 . S
C1631 C1632 1.400 . S
C1631 C1636 1.490 . S
C1632 H1622 0.930 . S
C1632 C1631 1.400 . S
C1632 C1635 1.386 . S
H1633 C1649 0.930 . S
H1634 C1650 0.931 . S
C1635 H1623 0.929 . S
C1635 C1629 1.390 . S
C1635 C1632 1.386 . S
C1636 C1631 1.490 . S
C1636 C1638 1.395 . S
C1636 C1639 1.403 . S
H1637 C1643 0.930 . S
C1638 H1624 0.930 . S
C1638 C1636 1.395 . S
C1638 C1641 1.403 . S
C1639 C1636 1.403 . S
C1639 C1640 1.524 . S
C1639 C1643 1.400 . S
C1640 H1625 0.960 . S
C1640 H1626 0.960 . S
C1640 H1627 0.960 . S
C1640 C1639 1.524 . S
C1641 C1638 1.403 . S
C1641 C1642 1.392 . S
C1641 C1645 1.495 . S
C1642 C1641 1.392 . S
C1642 C1643 1.385 . S
C1642 C1644 1.478 . S
C1643 H1637 0.930 . S
C1643 C1639 1.400 . S
C1643 C1642 1.385 . S
C1644 C1642 1.478 . S
C1644 C1646 1.381 . S
C1644 C1650 1.383 . S
C1645 C1641 1.495 . S
C1645 H1651 0.959 . S
C1645 H1652 0.961 . S
C1645 H1653 0.960 . S
C1646 C1644 1.381 . S
C1646 C1647 1.394 . S
C1646 H1654 0.930 . S
C1647 C1646 1.394 . S
C1647 C1648 1.383 . S
C1647 H1655 0.929 . S
C1648 C1647 1.383 . S
C1648 C1649 1.377 . S
C1649 H1633 0.930 . S
C1649 C1648 1.377 . S
C1649 C1650 1.379 . S
C1650 H1634 0.931 . S
C1650 C1644 1.383 . S
C1650 C1649 1.379 . S
H1651 C1645 0.959 . S
H1652 C1645 0.961 . S
H1653 C1645 0.960 . S
H1654 C1646 0.930 . S
H1655 C1647 0.929 . S
H1656 C1664 0.929 . S
H1657 C1666 0.930 . S
H1658 C1668 0.930 . S
H1659 C1671 0.929 . S
H1660 C1674 0.930 . S
H1661 C1676 0.960 . S
H1662 C1676 0.960 . S
H1663 C1676 0.960 . S
C1664 H1656 0.929 . S
C1664 C1665 1.377 . S
C1664 C1666 1.384 . S
C1665 C1664 1.377 . S
C1665 C1671 1.390 . S
C1666 H1657 0.930 . S
C1666 C1664 1.384 . S
C1666 C1667 1.372 . S
C1667 C1666 1.372 . S
C1667 C1668 1.400 . S
C1667 C1672 1.490 . S
C1668 H1658 0.930 . S
C1668 C1667 1.400 . S
C1668 C1671 1.386 . S
H1669 C1685 0.930 . S
H1670 C1686 0.931 . S
C1671 H1659 0.929 . S
C1671 C1665 1.390 . S
C1671 C1668 1.386 . S
C1672 C1667 1.490 . S
C1672 C1674 1.395 . S
C1672 C1675 1.403 . S
H1673 C1679 0.930 . S
C1674 H1660 0.930 . S
C1674 C1672 1.395 . S
C1674 C1677 1.403 . S
C1675 C1672 1.403 . S
C1675 C1676 1.524 . S
C1675 C1679 1.400 . S
C1676 H1661 0.960 . S
C1676 H1662 0.960 . S
C1676 H1663 0.960 . S
C1676 C1675 1.524 . S
C1677 C1674 1.403 . S
C1677 C1678 1.392 . S
C1677 C1681 1.495 . S
C1678 C1677 1.392 . S
C1678 C1679 1.385 . S
C1678 C1680 1.478 . S
C1679 H1673 0.930 . S
C1679 C1675 1.400 . S
C1679 C1678 1.385 . S
C1680 C1678 1.478 . S
C1680 C1682 1.381 . S
C1680 C1686 1.383 . S
C1681 C1677 1.495 . S
C1681 H1687 0.959 . S
C1681 H1688 0.961 . S
C1681 H1689 0.960 . S
C1682 C1680 1.381 . S
C1682 C1683 1.394 . S
C1682 H1690 0.930 . S
C1683 C1682 1.394 . S
C1683 C1684 1.383 . S
C1683 H1691 0.929 . S
C1684 C1683 1.383 . S
C1684 C1685 1.377 . S
C1685 H1669 0.930 . S
C1685 C1684 1.377 . S
C1685 C1686 1.379 . S
C1686 H1670 0.931 . S
C1686 C1680 1.383 . S
C1686 C1685 1.379 . S
H1687 C1681 0.959 . S
H1688 C1681 0.961 . S
H1689 C1681 0.960 . S
H1690 C1682 0.930 . S
H1691 C1683 0.929 . S
H1692 C1700 0.929 . S
H1693 C1702 0.930 . S
H1694 C1704 0.930 . S
H1695 C1707 0.929 . S
H1696 C1710 0.930 . S
H1697 C1712 0.960 . S
H1698 C1712 0.960 . S
H1699 C1712 0.960 . S
C1700 H1692 0.929 . S
C1700 C1701 1.377 . S
C1700 C1702 1.384 . S
C1701 C1700 1.377 . S
C1701 C1707 1.390 . S
C1702 H1693 0.930 . S
C1702 C1700 1.384 . S
C1702 C1703 1.372 . S
C1703 C1702 1.372 . S
C1703 C1704 1.400 . S
C1703 C1708 1.490 . S
C1704 H1694 0.930 . S
C1704 C1703 1.400 . S
C1704 C1707 1.386 . S
H1705 C1721 0.930 . S
H1706 C1722 0.931 . S
C1707 H1695 0.929 . S
C1707 C1701 1.390 . S
C1707 C1704 1.386 . S
C1708 C1703 1.490 . S
C1708 C1710 1.395 . S
C1708 C1711 1.403 . S
H1709 C1715 0.930 . S
C1710 H1696 0.930 . S
C1710 C1708 1.395 . S
C1710 C1713 1.403 . S
C1711 C1708 1.403 . S
C1711 C1712 1.524 . S
C1711 C1715 1.400 . S
C1712 H1697 0.960 . S
C1712 H1698 0.960 . S
C1712 H1699 0.960 . S
C1712 C1711 1.524 . S
C1713 C1710 1.403 . S
C1713 C1714 1.392 . S
C1713 C1717 1.495 . S
C1714 C1713 1.392 . S
C1714 C1715 1.385 . S
C1714 C1716 1.478 . S
C1715 H1709 0.930 . S
C1715 C1711 1.400 . S
C1715 C1714 1.385 . S
C1716 C1714 1.478 . S
C1716 C1718 1.381 . S
C1716 C1722 1.383 . S
C1717 C1713 1.495 . S
C1717 H1723 0.959 . S
C1717 H1724 0.961 . S
C1717 H1725 0.960 . S
C1718 C1716 1.381 . S
C1718 C1719 1.394 . S
C1718 H1726 0.930 . S
C1719 C1718 1.394 . S
C1719 C1720 1.383 . S
C1719 H1727 0.929 . S
C1720 C1719 1.383 . S
C1720 C1721 1.377 . S
C1721 H1705 0.930 . S
C1721 C1720 1.377 . S
C1721 C1722 1.379 . S
C1722 H1706 0.931 . S
C1722 C1716 1.383 . S
C1722 C1721 1.379 . S
H1723 C1717 0.959 . S
H1724 C1717 0.961 . S
H1725 C1717 0.960 . S
H1726 C1718 0.930 . S
H1727 C1719 0.929 . S
H1728 C1736 0.929 . S
H1729 C1738 0.930 . S
H1730 C1740 0.930 . S
H1731 C1743 0.929 . S
H1732 C1746 0.930 . S
H1733 C1748 0.960 . S
H1734 C1748 0.960 . S
H1735 C1748 0.960 . S
C1736 H1728 0.929 . S
C1736 C1737 1.377 . S
C1736 C1738 1.384 . S
C1737 C1736 1.377 . S
C1737 C1743 1.390 . S
C1738 H1729 0.930 . S
C1738 C1736 1.384 . S
C1738 C1739 1.372 . S
C1739 C1738 1.372 . S
C1739 C1740 1.400 . S
C1739 C1744 1.490 . S
C1740 H1730 0.930 . S
C1740 C1739 1.400 . S
C1740 C1743 1.386 . S
H1741 C1757 0.930 . S
H1742 C1758 0.931 . S
C1743 H1731 0.929 . S
C1743 C1737 1.390 . S
C1743 C1740 1.386 . S
C1744 C1739 1.490 . S
C1744 C1746 1.395 . S
C1744 C1747 1.403 . S
H1745 C1751 0.930 . S
C1746 H1732 0.930 . S
C1746 C1744 1.395 . S
C1746 C1749 1.403 . S
C1747 C1744 1.403 . S
C1747 C1748 1.524 . S
C1747 C1751 1.400 . S
C1748 H1733 0.960 . S
C1748 H1734 0.960 . S
C1748 H1735 0.960 . S
C1748 C1747 1.524 . S
C1749 C1746 1.403 . S
C1749 C1750 1.392 . S
C1749 C1753 1.495 . S
C1750 C1749 1.392 . S
C1750 C1751 1.385 . S
C1750 C1752 1.478 . S
C1751 H1745 0.930 . S
C1751 C1747 1.400 . S
C1751 C1750 1.385 . S
C1752 C1750 1.478 . S
C1752 C1754 1.381 . S
C1752 C1758 1.383 . S
C1753 C1749 1.495 . S
C1753 H1759 0.959 . S
C1753 H1760 0.961 . S
C1753 H1761 0.960 . S
C1754 C1752 1.381 . S
C1754 C1755 1.394 . S
C1754 H1762 0.930 . S
C1755 C1754 1.394 . S
C1755 C1756 1.383 . S
C1755 H1763 0.929 . S
C1756 C1755 1.383 . S
C1756 C1757 1.377 . S
C1757 H1741 0.930 . S
C1757 C1756 1.377 . S
C1757 C1758 1.379 . S
C1758 H1742 0.931 . S
C1758 C1752 1.383 . S
C1758 C1757 1.379 . S
H1759 C1753 0.959 . S
H1760 C1753 0.961 . S
H1761 C1753 0.960 . S
H1762 C1754 0.930 . S
H1763 C1755 0.929 . S
H1764 C1772 0.929 . S
H1765 C1774 0.930 . S
H1766 C1776 0.930 . S
H1767 C1779 0.929 . S
H1768 C1782 0.930 . S
H1769 C1784 0.960 . S
H1770 C1784 0.960 . S
H1771 C1784 0.960 . S
C1772 H1764 0.929 . S
C1772 C1773 1.377 . S
C1772 C1774 1.384 . S
C1773 C1772 1.377 . S
C1773 C1779 1.390 . S
C1774 H1765 0.930 . S
C1774 C1772 1.384 . S
C1774 C1775 1.372 . S
C1775 C1774 1.372 . S
C1775 C1776 1.400 . S
C1775 C1780 1.490 . S
C1776 H1766 0.930 . S
C1776 C1775 1.400 . S
C1776 C1779 1.386 . S
H1777 C1793 0.930 . S
H1778 C1794 0.931 . S
C1779 H1767 0.929 . S
C1779 C1773 1.390 . S
C1779 C1776 1.386 . S
C1780 C1775 1.490 . S
C1780 C1782 1.395 . S
C1780 C1783 1.403 . S
H1781 C1787 0.930 . S
C1782 H1768 0.930 . S
C1782 C1780 1.395 . S
C1782 C1785 1.403 . S
C1783 C1780 1.403 . S
C1783 C1784 1.524 . S
C1783 C1787 1.400 . S
C1784 H1769 0.960 . S
C1784 H1770 0.960 . S
C1784 H1771 0.960 . S
C1784 C1783 1.524 . S
C1785 C1782 1.403 . S
C1785 C1786 1.392 . S
C1785 C1789 1.495 . S
C1786 C1785 1.392 . S
C1786 C1787 1.385 . S
C1786 C1788 1.478 . S
C1787 H1781 0.930 . S
C1787 C1783 1.400 . S
C1787 C1786 1.385 . S
C1788 C1786 1.478 . S
C1788 C1790 1.381 . S
C1788 C1794 1.383 . S
C1789 C1785 1.495 . S
C1789 H1795 0.959 . S
C1789 H1796 0.961 . S
C1789 H1797 0.960 . S
C1790 C1788 1.381 . S
C1790 C1791 1.394 . S
C1790 H1798 0.930 . S
C1791 C1790 1.394 . S
C1791 C1792 1.383 . S
C1791 H1799 0.929 . S
C1792 C1791 1.383 . S
C1792 C1793 1.377 . S
C1793 H1777 0.930 . S
C1793 C1792 1.377 . S
C1793 C1794 1.379 . S
C1794 H1778 0.931 . S
C1794 C1788 1.383 . S
C1794 C1793 1.379 . S
H1795 C1789 0.959 . S
H1796 C1789 0.961 . S
H1797 C1789 0.960 . S
H1798 C1790 0.930 . S
H1799 C1791 0.929 . S
H1800 C1808 0.929 . S
H1801 C1810 0.930 . S
H1802 C1812 0.930 . S
H1803 C1815 0.929 . S
H1804 C1818 0.930 . S
H1805 C1820 0.960 . S
H1806 C1820 0.960 . S
H1807 C1820 0.960 . S
C1808 H1800 0.929 . S
C1808 C1809 1.377 . S
C1808 C1810 1.384 . S
C1809 C1808 1.377 . S
C1809 C1815 1.390 . S
C1810 H1801 0.930 . S
C1810 C1808 1.384 . S
C1810 C1811 1.372 . S
C1811 C1810 1.372 . S
C1811 C1812 1.400 . S
C1811 C1816 1.490 . S
C1812 H1802 0.930 . S
C1812 C1811 1.400 . S
C1812 C1815 1.386 . S
H1813 C1829 0.930 . S
H1814 C1830 0.931 . S
C1815 H1803 0.929 . S
C1815 C1809 1.390 . S
C1815 C1812 1.386 . S
C1816 C1811 1.490 . S
C1816 C1818 1.395 . S
C1816 C1819 1.403 . S
H1817 C1823 0.930 . S
C1818 H1804 0.930 . S
C1818 C1816 1.395 . S
C1818 C1821 1.403 . S
C1819 C1816 1.403 . S
C1819 C1820 1.524 . S
C1819 C1823 1.400 . S
C1820 H1805 0.960 . S
C1820 H1806 0.960 . S
C1820 H1807 0.960 . S
C1820 C1819 1.524 . S
C1821 C1818 1.403 . S
C1821 C1822 1.392 . S
C1821 C1825 1.495 . S
C1822 C1821 1.392 . S
C1822 C1823 1.385 . S
C1822 C1824 1.478 . S
C1823 H1817 0.930 . S
C1823 C1819 1.400 . S
C1823 C1822 1.385 . S
C1824 C1822 1.478 . S
C1824 C1826 1.381 . S
C1824 C1830 1.383 . S
C1825 C1821 1.495 . S
C1825 H1831 0.959 . S
C1825 H1832 0.961 . S
C1825 H1833 0.960 . S
C1826 C1824 1.381 . S
C1826 C1827 1.394 . S
C1826 H1834 0.930 . S
C1827 C1826 1.394 . S
C1827 C1828 1.383 . S
C1827 H1835 0.929 . S
C1828 C1827 1.383 . S
C1828 C1829 1.377 . S
C1829 H1813 0.930 . S
C1829 C1828 1.377 . S
C1829 C1830 1.379 . S
C1830 H1814 0.931 . S
C1830 C1824 1.383 . S
C1830 C1829 1.379 . S
H1831 C1825 0.959 . S
H1832 C1825 0.961 . S
H1833 C1825 0.960 . S
H1834 C1826 0.930 . S
H1835 C1827 0.929 . S
H1836 C1844 0.929 . S
H1837 C1846 0.930 . S
H1838 C1848 0.930 . S
H1839 C1851 0.929 . S
H1840 C1854 0.930 . S
H1841 C1856 0.960 . S
H1842 C1856 0.960 . S
H1843 C1856 0.960 . S
C1844 H1836 0.929 . S
C1844 C1845 1.377 . S
C1844 C1846 1.384 . S
C1845 C1844 1.377 . S
C1845 C1851 1.390 . S
C1846 H1837 0.930 . S
C1846 C1844 1.384 . S
C1846 C1847 1.372 . S
C1847 C1846 1.372 . S
C1847 C1848 1.400 . S
C1847 C1852 1.490 . S
C1848 H1838 0.930 . S
C1848 C1847 1.400 . S
C1848 C1851 1.386 . S
H1849 C1865 0.930 . S
H1850 C1866 0.931 . S
C1851 H1839 0.929 . S
C1851 C1845 1.390 . S
C1851 C1848 1.386 . S
C1852 C1847 1.490 . S
C1852 C1854 1.395 . S
C1852 C1855 1.403 . S
H1853 C1859 0.930 . S
C1854 H1840 0.930 . S
C1854 C1852 1.395 . S
C1854 C1857 1.403 . S
C1855 C1852 1.403 . S
C1855 C1856 1.524 . S
C1855 C1859 1.400 . S
C1856 H1841 0.960 . S
C1856 H1842 0.960 . S
C1856 H1843 0.960 . S
C1856 C1855 1.524 . S
C1857 C1854 1.403 . S
C1857 C1858 1.392 . S
C1857 C1861 1.495 . S
C1858 C1857 1.392 . S
C1858 C1859 1.385 . S
C1858 C1860 1.478 . S
C1859 H1853 0.930 . S
C1859 C1855 1.400 . S
C1859 C1858 1.385 . S
C1860 C1858 1.478 . S
C1860 C1862 1.381 . S
C1860 C1866 1.383 . S
C1861 C1857 1.495 . S
C1861 H1867 0.959 . S
C1861 H1868 0.961 . S
C1861 H1869 0.960 . S
C1862 C1860 1.381 . S
C1862 C1863 1.394 . S
C1862 H1870 0.930 . S
C1863 C1862 1.394 . S
C1863 C1864 1.383 . S
C1863 H1871 0.929 . S
C1864 C1863 1.383 . S
C1864 C1865 1.377 . S
C1865 H1849 0.930 . S
C1865 C1864 1.377 . S
C1865 C1866 1.379 . S
C1866 H1850 0.931 . S
C1866 C1860 1.383 . S
C1866 C1865 1.379 . S
H1867 C1861 0.959 . S
H1868 C1861 0.961 . S
H1869 C1861 0.960 . S
H1870 C1862 0.930 . S
H1871 C1863 0.929 . S
H1872 C1880 0.929 . S
H1873 C1882 0.930 . S
H1874 C1884 0.930 . S
H1875 C1887 0.929 . S
H1876 C1890 0.930 . S
H1877 C1892 0.960 . S
H1878 C1892 0.960 . S
H1879 C1892 0.960 . S
C1880 H1872 0.929 . S
C1880 C1881 1.377 . S
C1880 C1882 1.384 . S
C1881 C1880 1.377 . S
C1881 C1887 1.390 . S
C1882 H1873 0.930 . S
C1882 C1880 1.384 . S
C1882 C1883 1.372 . S
C1883 C1882 1.372 . S
C1883 C1884 1.400 . S
C1883 C1888 1.490 . S
C1884 H1874 0.930 . S
C1884 C1883 1.400 . S
C1884 C1887 1.386 . S
H1885 C1901 0.930 . S
H1886 C1902 0.931 . S
C1887 H1875 0.929 . S
C1887 C1881 1.390 . S
C1887 C1884 1.386 . S
C1888 C1883 1.490 . S
C1888 C1890 1.395 . S
C1888 C1891 1.403 . S
H1889 C1895 0.930 . S
C1890 H1876 0.930 . S
C1890 C1888 1.395 . S
C1890 C1893 1.403 . S
C1891 C1888 1.403 . S
C1891 C1892 1.524 . S
C1891 C1895 1.400 . S
C1892 H1877 0.960 . S
C1892 H1878 0.960 . S
C1892 H1879 0.960 . S
C1892 C1891 1.524 . S
C1893 C1890 1.403 . S
C1893 C1894 1.392 . S
C1893 C1897 1.495 . S
C1894 C1893 1.392 . S
C1894 C1895 1.385 . S
C1894 C1896 1.478 . S
C1895 H1889 0.930 . S
C1895 C1891 1.400 . S
C1895 C1894 1.385 . S
C1896 C1894 1.478 . S
C1896 C1898 1.381 . S
C1896 C1902 1.383 . S
C1897 C1893 1.495 . S
C1897 H1903 0.959 . S
C1897 H1904 0.961 . S
C1897 H1905 0.960 . S
C1898 C1896 1.381 . S
C1898 C1899 1.394 . S
C1898 H1906 0.930 . S
C1899 C1898 1.394 . S
C1899 C1900 1.383 . S
C1899 H1907 0.929 . S
C1900 C1899 1.383 . S
C1900 C1901 1.377 . S
C1901 H1885 0.930 . S
C1901 C1900 1.377 . S
C1901 C1902 1.379 . S
C1902 H1886 0.931 . S
C1902 C1896 1.383 . S
C1902 C1901 1.379 . S
H1903 C1897 0.959 . S
H1904 C1897 0.961 . S
H1905 C1897 0.960 . S
H1906 C1898 0.930 . S
H1907 C1899 0.929 . S
H1908 C1916 0.929 . S
H1909 C1918 0.930 . S
H1910 C1920 0.930 . S
H1911 C1923 0.929 . S
H1912 C1926 0.930 . S
H1913 C1928 0.960 . S
H1914 C1928 0.960 . S
H1915 C1928 0.960 . S
C1916 H1908 0.929 . S
C1916 C1917 1.377 . S
C1916 C1918 1.384 . S
C1917 C1916 1.377 . S
C1917 C1923 1.390 . S
C1918 H1909 0.930 . S
C1918 C1916 1.384 . S
C1918 C1919 1.372 . S
C1919 C1918 1.372 . S
C1919 C1920 1.400 . S
C1919 C1924 1.490 . S
C1920 H1910 0.930 . S
C1920 C1919 1.400 . S
C1920 C1923 1.386 . S
H1921 C1937 0.930 . S
H1922 C1938 0.931 . S
C1923 H1911 0.929 . S
C1923 C1917 1.390 . S
C1923 C1920 1.386 . S
C1924 C1919 1.490 . S
C1924 C1926 1.395 . S
C1924 C1927 1.403 . S
H1925 C1931 0.930 . S
C1926 H1912 0.930 . S
C1926 C1924 1.395 . S
C1926 C1929 1.403 . S
C1927 C1924 1.403 . S
C1927 C1928 1.524 . S
C1927 C1931 1.400 . S
C1928 H1913 0.960 . S
C1928 H1914 0.960 . S
C1928 H1915 0.960 . S
C1928 C1927 1.524 . S
C1929 C1926 1.403 . S
C1929 C1930 1.392 . S
C1929 C1933 1.495 . S
C1930 C1929 1.392 . S
C1930 C1931 1.385 . S
C1930 C1932 1.478 . S
C1931 H1925 0.930 . S
C1931 C1927 1.400 . S
C1931 C1930 1.385 . S
C1932 C1930 1.478 . S
C1932 C1934 1.381 . S
C1932 C1938 1.383 . S
C1933 C1929 1.495 . S
C1933 H1939 0.959 . S
C1933 H1940 0.961 . S
C1933 H1941 0.960 . S
C1934 C1932 1.381 . S
C1934 C1935 1.394 . S
C1934 H1942 0.930 . S
C1935 C1934 1.394 . S
C1935 C1936 1.383 . S
C1935 H1943 0.929 . S
C1936 C1935 1.383 . S
C1936 C1937 1.377 . S
C1937 H1921 0.930 . S
C1937 C1936 1.377 . S
C1937 C1938 1.379 . S
C1938 H1922 0.931 . S
C1938 C1932 1.383 . S
C1938 C1937 1.379 . S
H1939 C1933 0.959 . S
H1940 C1933 0.961 . S
H1941 C1933 0.960 . S
H1942 C1934 0.930 . S
H1943 C1935 0.929 . S
H1944 C1952 0.929 . S
H1945 C1954 0.930 . S
H1946 C1956 0.930 . S
H1947 C1959 0.929 . S
H1948 C1962 0.930 . S
H1949 C1964 0.960 . S
H1950 C1964 0.960 . S
H1951 C1964 0.960 . S
C1952 H1944 0.929 . S
C1952 C1953 1.377 . S
C1952 C1954 1.384 . S
C1953 C1952 1.377 . S
C1953 C1959 1.390 . S
C1954 H1945 0.930 . S
C1954 C1952 1.384 . S
C1954 C1955 1.372 . S
C1955 C1954 1.372 . S
C1955 C1956 1.400 . S
C1955 C1960 1.490 . S
C1956 H1946 0.930 . S
C1956 C1955 1.400 . S
C1956 C1959 1.386 . S
H1957 C1973 0.930 . S
H1958 C1974 0.931 . S
C1959 H1947 0.929 . S
C1959 C1953 1.390 . S
C1959 C1956 1.386 . S
C1960 C1955 1.490 . S
C1960 C1962 1.395 . S
C1960 C1963 1.403 . S
H1961 C1967 0.930 . S
C1962 H1948 0.930 . S
C1962 C1960 1.395 . S
C1962 C1965 1.403 . S
C1963 C1960 1.403 . S
C1963 C1964 1.524 . S
C1963 C1967 1.400 . S
C1964 H1949 0.960 . S
C1964 H1950 0.960 . S
C1964 H1951 0.960 . S
C1964 C1963 1.524 . S
C1965 C1962 1.403 . S
C1965 C1966 1.392 . S
C1965 C1969 1.495 . S
C1966 C1965 1.392 . S
C1966 C1967 1.385 . S
C1966 C1968 1.478 . S
C1967 H1961 0.930 . S
C1967 C1963 1.400 . S
C1967 C1966 1.385 . S
C1968 C1966 1.478 . S
C1968 C1970 1.381 . S
C1968 C1974 1.383 . S
C1969 C1965 1.495 . S
C1969 H1975 0.959 . S
C1969 H1976 0.961 . S
C1969 H1977 0.960 . S
C1970 C1968 1.381 . S
C1970 C1971 1.394 . S
C1970 H1978 0.930 . S
C1971 C1970 1.394 . S
C1971 C1972 1.383 . S
C1971 H1979 0.929 . S
C1972 C1971 1.383 . S
C1972 C1973 1.377 . S
C1973 H1957 0.930 . S
C1973 C1972 1.377 . S
C1973 C1974 1.379 . S
C1974 H1958 0.931 . S
C1974 C1968 1.383 . S
C1974 C1973 1.379 . S
H1975 C1969 0.959 . S
H1976 C1969 0.961 . S
H1977 C1969 0.960 . S
H1978 C1970 0.930 . S
H1979 C1971 0.929 . S
H1980 C1988 0.929 . S
H1981 C1990 0.930 . S
H1982 C1992 0.930 . S
H1983 C1995 0.929 . S
H1984 C1998 0.930 . S
H1985 C2000 0.960 . S
H1986 C2000 0.960 . S
H1987 C2000 0.960 . S
C1988 H1980 0.929 . S
C1988 C1989 1.377 . S
C1988 C1990 1.384 . S
C1989 C1988 1.377 . S
C1989 C1995 1.390 . S
C1990 H1981 0.930 . S
C1990 C1988 1.384 . S
C1990 C1991 1.372 . S
C1991 C1990 1.372 . S
C1991 C1992 1.400 . S
C1991 C1996 1.490 . S
C1992 H1982 0.930 . S
C1992 C1991 1.400 . S
C1992 C1995 1.386 . S
H1993 C2009 0.930 . S
H1994 C2010 0.931 . S
C1995 H1983 0.929 . S
C1995 C1989 1.390 . S
C1995 C1992 1.386 . S
C1996 C1991 1.490 . S
C1996 C1998 1.395 . S
C1996 C1999 1.403 . S
H1997 C2003 0.930 . S
C1998 H1984 0.930 . S
C1998 C1996 1.395 . S
C1998 C2001 1.403 . S
C1999 C1996 1.403 . S
C1999 C2000 1.524 . S
C1999 C2003 1.400 . S
C2000 H1985 0.960 . S
C2000 H1986 0.960 . S
C2000 H1987 0.960 . S
C2000 C1999 1.524 . S
C2001 C1998 1.403 . S
C2001 C2002 1.392 . S
C2001 C2005 1.495 . S
C2002 C2001 1.392 . S
C2002 C2003 1.385 . S
C2002 C2004 1.478 . S
C2003 H1997 0.930 . S
C2003 C1999 1.400 . S
C2003 C2002 1.385 . S
C2004 C2002 1.478 . S
C2004 C2006 1.381 . S
C2004 C2010 1.383 . S
C2005 C2001 1.495 . S
C2005 H2011 0.959 . S
C2005 H2012 0.961 . S
C2005 H2013 0.960 . S
C2006 C2004 1.381 . S
C2006 C2007 1.394 . S
C2006 H2014 0.930 . S
C2007 C2006 1.394 . S
C2007 C2008 1.383 . S
C2007 H2015 0.929 . S
C2008 C2007 1.383 . S
C2008 C2009 1.377 . S
C2009 H1993 0.930 . S
C2009 C2008 1.377 . S
C2009 C2010 1.379 . S
C2010 H1994 0.931 . S
C2010 C2004 1.383 . S
C2010 C2009 1.379 . S
H2011 C2005 0.959 . S
H2012 C2005 0.961 . S
H2013 C2005 0.960 . S
H2014 C2006 0.930 . S
H2015 C2007 0.929 . S
H2016 C2024 0.929 . S
H2017 C2026 0.930 . S
H2018 C2028 0.930 . S
H2019 C2031 0.929 . S
H2020 C2034 0.930 . S
H2021 C2036 0.960 . S
H2022 C2036 0.960 . S
H2023 C2036 0.960 . S
C2024 H2016 0.929 . S
C2024 C2025 1.377 . S
C2024 C2026 1.384 . S
C2025 C2024 1.377 . S
C2025 C2031 1.390 . S
C2026 H2017 0.930 . S
C2026 C2024 1.384 . S
C2026 C2027 1.372 . S
C2027 C2026 1.372 . S
C2027 C2028 1.400 . S
C2027 C2032 1.490 . S
C2028 H2018 0.930 . S
C2028 C2027 1.400 . S
C2028 C2031 1.386 . S
H2029 C2045 0.930 . S
H2030 C2046 0.931 . S
C2031 H2019 0.929 . S
C2031 C2025 1.390 . S
C2031 C2028 1.386 . S
C2032 C2027 1.490 . S
C2032 C2034 1.395 . S
C2032 C2035 1.403 . S
H2033 C2039 0.930 . S
C2034 H2020 0.930 . S
C2034 C2032 1.395 . S
C2034 C2037 1.403 . S
C2035 C2032 1.403 . S
C2035 C2036 1.524 . S
C2035 C2039 1.400 . S
C2036 H2021 0.960 . S
C2036 H2022 0.960 . S
C2036 H2023 0.960 . S
C2036 C2035 1.524 . S
C2037 C2034 1.403 . S
C2037 C2038 1.392 . S
C2037 C2041 1.495 . S
C2038 C2037 1.392 . S
C2038 C2039 1.385 . S
C2038 C2040 1.478 . S
C2039 H2033 0.930 . S
C2039 C2035 1.400 . S
C2039 C2038 1.385 . S
C2040 C2038 1.478 . S
C2040 C2042 1.381 . S
C2040 C2046 1.383 . S
C2041 C2037 1.495 . S
C2041 H2047 0.959 . S
C2041 H2048 0.961 . S
C2041 H2049 0.960 . S
C2042 C2040 1.381 . S
C2042 C2043 1.394 . S
C2042 H2050 0.930 . S
C2043 C2042 1.394 . S
C2043 C2044 1.383 . S
C2043 H2051 0.929 . S
C2044 C2043 1.383 . S
C2044 C2045 1.377 . S
C2045 H2029 0.930 . S
C2045 C2044 1.377 . S
C2045 C2046 1.379 . S
C2046 H2030 0.931 . S
C2046 C2040 1.383 . S
C2046 C2045 1.379 . S
H2047 C2041 0.959 . S
H2048 C2041 0.961 . S
H2049 C2041 0.960 . S
H2050 C2042 0.930 . S
H2051 C2043 0.929 . S
H2052 C2060 0.929 . S
H2053 C2062 0.930 . S
H2054 C2064 0.930 . S
H2055 C2067 0.929 . S
H2056 C2070 0.930 . S
H2057 C2072 0.960 . S
H2058 C2072 0.960 . S
H2059 C2072 0.960 . S
C2060 H2052 0.929 . S
C2060 C2061 1.377 . S
C2060 C2062 1.384 . S
C2061 C2060 1.377 . S
C2061 C2067 1.390 . S
C2062 H2053 0.930 . S
C2062 C2060 1.384 . S
C2062 C2063 1.372 . S
C2063 C2062 1.372 . S
C2063 C2064 1.400 . S
C2063 C2068 1.490 . S
C2064 H2054 0.930 . S
C2064 C2063 1.400 . S
C2064 C2067 1.386 . S
H2065 C2081 0.930 . S
H2066 C2082 0.931 . S
C2067 H2055 0.929 . S
C2067 C2061 1.390 . S
C2067 C2064 1.386 . S
C2068 C2063 1.490 . S
C2068 C2070 1.395 . S
C2068 C2071 1.403 . S
H2069 C2075 0.930 . S
C2070 H2056 0.930 . S
C2070 C2068 1.395 . S
C2070 C2073 1.403 . S
C2071 C2068 1.403 . S
C2071 C2072 1.524 . S
C2071 C2075 1.400 . S
C2072 H2057 0.960 . S
C2072 H2058 0.960 . S
C2072 H2059 0.960 . S
C2072 C2071 1.524 . S
C2073 C2070 1.403 . S
C2073 C2074 1.392 . S
C2073 C2077 1.495 . S
C2074 C2073 1.392 . S
C2074 C2075 1.385 . S
C2074 C2076 1.478 . S
C2075 H2069 0.930 . S
C2075 C2071 1.400 . S
C2075 C2074 1.385 . S
C2076 C2074 1.478 . S
C2076 C2078 1.381 . S
C2076 C2082 1.383 . S
C2077 C2073 1.495 . S
C2077 H2083 0.959 . S
C2077 H2084 0.961 . S
C2077 H2085 0.960 . S
C2078 C2076 1.381 . S
C2078 C2079 1.394 . S
C2078 H2086 0.930 . S
C2079 C2078 1.394 . S
C2079 C2080 1.383 . S
C2079 H2087 0.929 . S
C2080 C2079 1.383 . S
C2080 C2081 1.377 . S
C2081 H2065 0.930 . S
C2081 C2080 1.377 . S
C2081 C2082 1.379 . S
C2082 H2066 0.931 . S
C2082 C2076 1.383 . S
C2082 C2081 1.379 . S
H2083 C2077 0.959 . S
H2084 C2077 0.961 . S
H2085 C2077 0.960 . S
H2086 C2078 0.930 . S
H2087 C2079 0.929 . S
H2088 C2096 0.929 . S
H2089 C2098 0.930 . S
H2090 C2100 0.930 . S
H2091 C2103 0.929 . S
H2092 C2106 0.930 . S
H2093 C2108 0.960 . S
H2094 C2108 0.960 . S
H2095 C2108 0.960 . S
C2096 H2088 0.929 . S
C2096 C2097 1.377 . S
C2096 C2098 1.384 . S
C2097 C2096 1.377 . S
C2097 C2103 1.390 . S
C2098 H2089 0.930 . S
C2098 C2096 1.384 . S
C2098 C2099 1.372 . S
C2099 C2098 1.372 . S
C2099 C2100 1.400 . S
C2099 C2104 1.490 . S
C2100 H2090 0.930 . S
C2100 C2099 1.400 . S
C2100 C2103 1.386 . S
H2101 C2117 0.930 . S
H2102 C2118 0.931 . S
C2103 H2091 0.929 . S
C2103 C2097 1.390 . S
C2103 C2100 1.386 . S
C2104 C2099 1.490 . S
C2104 C2106 1.395 . S
C2104 C2107 1.403 . S
H2105 C2111 0.930 . S
C2106 H2092 0.930 . S
C2106 C2104 1.395 . S
C2106 C2109 1.403 . S
C2107 C2104 1.403 . S
C2107 C2108 1.524 . S
C2107 C2111 1.400 . S
C2108 H2093 0.960 . S
C2108 H2094 0.960 . S
C2108 H2095 0.960 . S
C2108 C2107 1.524 . S
C2109 C2106 1.403 . S
C2109 C2110 1.392 . S
C2109 C2113 1.495 . S
C2110 C2109 1.392 . S
C2110 C2111 1.385 . S
C2110 C2112 1.478 . S
C2111 H2105 0.930 . S
C2111 C2107 1.400 . S
C2111 C2110 1.385 . S
C2112 C2110 1.478 . S
C2112 C2114 1.381 . S
C2112 C2118 1.383 . S
C2113 C2109 1.495 . S
C2113 H2119 0.959 . S
C2113 H2120 0.961 . S
C2113 H2121 0.960 . S
C2114 C2112 1.381 . S
C2114 C2115 1.394 . S
C2114 H2122 0.930 . S
C2115 C2114 1.394 . S
C2115 C2116 1.383 . S
C2115 H2123 0.929 . S
C2116 C2115 1.383 . S
C2116 C2117 1.377 . S
C2117 H2101 0.930 . S
C2117 C2116 1.377 . S
C2117 C2118 1.379 . S
C2118 H2102 0.931 . S
C2118 C2112 1.383 . S
C2118 C2117 1.379 . S
H2119 C2113 0.959 . S
H2120 C2113 0.961 . S
H2121 C2113 0.960 . S
H2122 C2114 0.930 . S
H2123 C2115 0.929 . S
H2124 C2132 0.929 . S
H2125 C2134 0.930 . S
H2126 C2136 0.930 . S
H2127 C2139 0.929 . S
H2128 C2142 0.930 . S
H2129 C2144 0.960 . S
H2130 C2144 0.960 . S
H2131 C2144 0.960 . S
C2132 H2124 0.929 . S
C2132 C2133 1.377 . S
C2132 C2134 1.384 . S
C2133 C2132 1.377 . S
C2133 C2139 1.390 . S
C2134 H2125 0.930 . S
C2134 C2132 1.384 . S
C2134 C2135 1.372 . S
C2135 C2134 1.372 . S
C2135 C2136 1.400 . S
C2135 C2140 1.490 . S
C2136 H2126 0.930 . S
C2136 C2135 1.400 . S
C2136 C2139 1.386 . S
H2137 C2153 0.930 . S
H2138 C2154 0.931 . S
C2139 H2127 0.929 . S
C2139 C2133 1.390 . S
C2139 C2136 1.386 . S
C2140 C2135 1.490 . S
C2140 C2142 1.395 . S
C2140 C2143 1.403 . S
H2141 C2147 0.930 . S
C2142 H2128 0.930 . S
C2142 C2140 1.395 . S
C2142 C2145 1.403 . S
C2143 C2140 1.403 . S
C2143 C2144 1.524 . S
C2143 C2147 1.400 . S
C2144 H2129 0.960 . S
C2144 H2130 0.960 . S
C2144 H2131 0.960 . S
C2144 C2143 1.524 . S
C2145 C2142 1.403 . S
C2145 C2146 1.392 . S
C2145 C2149 1.495 . S
C2146 C2145 1.392 . S
C2146 C2147 1.385 . S
C2146 C2148 1.478 . S
C2147 H2141 0.930 . S
C2147 C2143 1.400 . S
C2147 C2146 1.385 . S
C2148 C2146 1.478 . S
C2148 C2150 1.381 . S
C2148 C2154 1.383 . S
C2149 C2145 1.495 . S
C2149 H2155 0.959 . S
C2149 H2156 0.961 . S
C2149 H2157 0.960 . S
C2150 C2148 1.381 . S
C2150 C2151 1.394 . S
C2150 H2158 0.930 . S
C2151 C2150 1.394 . S
C2151 C2152 1.383 . S
C2151 H2159 0.929 . S
C2152 C2151 1.383 . S
C2152 C2153 1.377 . S
C2153 H2137 0.930 . S
C2153 C2152 1.377 . S
C2153 C2154 1.379 . S
C2154 H2138 0.931 . S
C2154 C2148 1.383 . S
C2154 C2153 1.379 . S
H2155 C2149 0.959 . S
H2156 C2149 0.961 . S
H2157 C2149 0.960 . S
H2158 C2150 0.930 . S
H2159 C2151 0.929 . S
H2160 C2168 0.929 . S
H2161 C2170 0.930 . S
H2162 C2172 0.930 . S
H2163 C2175 0.929 . S
H2164 C2178 0.930 . S
H2165 C2180 0.960 . S
H2166 C2180 0.960 . S
H2167 C2180 0.960 . S
C2168 H2160 0.929 . S
C2168 C2169 1.377 . S
C2168 C2170 1.384 . S
C2169 C2168 1.377 . S
C2169 C2175 1.390 . S
C2170 H2161 0.930 . S
C2170 C2168 1.384 . S
C2170 C2171 1.372 . S
C2171 C2170 1.372 . S
C2171 C2172 1.400 . S
C2171 C2176 1.490 . S
C2172 H2162 0.930 . S
C2172 C2171 1.400 . S
C2172 C2175 1.386 . S
H2173 C2189 0.930 . S
H2174 C2190 0.931 . S
C2175 H2163 0.929 . S
C2175 C2169 1.390 . S
C2175 C2172 1.386 . S
C2176 C2171 1.490 . S
C2176 C2178 1.395 . S
C2176 C2179 1.403 . S
H2177 C2183 0.930 . S
C2178 H2164 0.930 . S
C2178 C2176 1.395 . S
C2178 C2181 1.403 . S
C2179 C2176 1.403 . S
C2179 C2180 1.524 . S
C2179 C2183 1.400 . S
C2180 H2165 0.960 . S
C2180 H2166 0.960 . S
C2180 H2167 0.960 . S
C2180 C2179 1.524 . S
C2181 C2178 1.403 . S
C2181 C2182 1.392 . S
C2181 C2185 1.495 . S
C2182 C2181 1.392 . S
C2182 C2183 1.385 . S
C2182 C2184 1.478 . S
C2183 H2177 0.930 . S
C2183 C2179 1.400 . S
C2183 C2182 1.385 . S
C2184 C2182 1.478 . S
C2184 C2186 1.381 . S
C2184 C2190 1.383 . S
C2185 C2181 1.495 . S
C2185 H2191 0.959 . S
C2185 H2192 0.961 . S
C2185 H2193 0.960 . S
C2186 C2184 1.381 . S
C2186 C2187 1.394 . S
C2186 H2194 0.930 . S
C2187 C2186 1.394 . S
C2187 C2188 1.383 . S
C2187 H2195 0.929 . S
C2188 C2187 1.383 . S
C2188 C2189 1.377 . S
C2189 H2173 0.930 . S
C2189 C2188 1.377 . S
C2189 C2190 1.379 . S
C2190 H2174 0.931 . S
C2190 C2184 1.383 . S
C2190 C2189 1.379 . S
H2191 C2185 0.959 . S
H2192 C2185 0.961 . S
H2193 C2185 0.960 . S
H2194 C2186 0.930 . S
H2195 C2187 0.929 . S
H2196 C2204 0.929 . S
H2197 C2206 0.930 . S
H2198 C2208 0.930 . S
H2199 C2211 0.929 . S
H2200 C2214 0.930 . S
H2201 C2216 0.960 . S
H2202 C2216 0.960 . S
H2203 C2216 0.960 . S
C2204 H2196 0.929 . S
C2204 C2205 1.377 . S
C2204 C2206 1.384 . S
C2205 C2204 1.377 . S
C2205 C2211 1.390 . S
C2206 H2197 0.930 . S
C2206 C2204 1.384 . S
C2206 C2207 1.372 . S
C2207 C2206 1.372 . S
C2207 C2208 1.400 . S
C2207 C2212 1.490 . S
C2208 H2198 0.930 . S
C2208 C2207 1.400 . S
C2208 C2211 1.386 . S
H2209 C2225 0.930 . S
H2210 C2226 0.931 . S
C2211 H2199 0.929 . S
C2211 C2205 1.390 . S
C2211 C2208 1.386 . S
C2212 C2207 1.490 . S
C2212 C2214 1.395 . S
C2212 C2215 1.403 . S
H2213 C2219 0.930 . S
C2214 H2200 0.930 . S
C2214 C2212 1.395 . S
C2214 C2217 1.403 . S
C2215 C2212 1.403 . S
C2215 C2216 1.524 . S
C2215 C2219 1.400 . S
C2216 H2201 0.960 . S
C2216 H2202 0.960 . S
C2216 H2203 0.960 . S
C2216 C2215 1.524 . S
C2217 C2214 1.403 . S
C2217 C2218 1.392 . S
C2217 C2221 1.495 . S
C2218 C2217 1.392 . S
C2218 C2219 1.385 . S
C2218 C2220 1.478 . S
C2219 H2213 0.930 . S
C2219 C2215 1.400 . S
C2219 C2218 1.385 . S
C2220 C2218 1.478 . S
C2220 C2222 1.381 . S
C2220 C2226 1.383 . S
C2221 C2217 1.495 . S
C2221 H2227 0.959 . S
C2221 H2228 0.961 . S
C2221 H2229 0.960 . S
C2222 C2220 1.381 . S
C2222 C2223 1.394 . S
C2222 H2230 0.930 . S
C2223 C2222 1.394 . S
C2223 C2224 1.383 . S
C2223 H2231 0.929 . S
C2224 C2223 1.383 . S
C2224 C2225 1.377 . S
C2225 H2209 0.930 . S
C2225 C2224 1.377 . S
C2225 C2226 1.379 . S
C2226 H2210 0.931 . S
C2226 C2220 1.383 . S
C2226 C2225 1.379 . S
H2227 C2221 0.959 . S
H2228 C2221 0.961 . S
H2229 C2221 0.960 . S
H2230 C2222 0.930 . S
H2231 C2223 0.929 . S
H2232 C2240 0.929 . S
H2233 C2242 0.930 . S
H2234 C2244 0.930 . S
H2235 C2247 0.929 . S
H2236 C2250 0.930 . S
H2237 C2252 0.960 . S
H2238 C2252 0.960 . S
H2239 C2252 0.960 . S
C2240 H2232 0.929 . S
C2240 C2241 1.377 . S
C2240 C2242 1.384 . S
C2241 C2240 1.377 . S
C2241 C2247 1.390 . S
C2242 H2233 0.930 . S
C2242 C2240 1.384 . S
C2242 C2243 1.372 . S
C2243 C2242 1.372 . S
C2243 C2244 1.400 . S
C2243 C2248 1.490 . S
C2244 H2234 0.930 . S
C2244 C2243 1.400 . S
C2244 C2247 1.386 . S
H2245 C2261 0.930 . S
H2246 C2262 0.931 . S
C2247 H2235 0.929 . S
C2247 C2241 1.390 . S
C2247 C2244 1.386 . S
C2248 C2243 1.490 . S
C2248 C2250 1.395 1_455 S
C2248 C2251 1.403 . S
H2249 C2255 0.930 . S
C2250 H2236 0.930 . S
C2250 C2248 1.395 1_655 S
C2250 C2253 1.403 . S
C2251 C2248 1.403 . S
C2251 C2252 1.524 . S
C2251 C2255 1.400 . S
C2252 H2237 0.960 . S
C2252 H2238 0.960 . S
C2252 H2239 0.960 . S
C2252 C2251 1.524 . S
C2253 C2250 1.403 . S
C2253 C2254 1.392 . S
C2253 C2257 1.495 . S
C2254 C2253 1.392 . S
C2254 C2255 1.385 1_655 S
C2254 C2256 1.478 . S
C2255 H2249 0.930 . S
C2255 C2251 1.400 . S
C2255 C2254 1.385 1_455 S
C2256 C2254 1.478 . S
C2256 C2258 1.381 . S
C2256 C2262 1.383 . S
C2257 C2253 1.495 . S
C2257 H2263 0.959 . S
C2257 H2264 0.961 . S
C2257 H2265 0.960 . S
C2258 C2256 1.381 . S
C2258 C2259 1.394 . S
C2258 H2266 0.930 . S
C2259 C2258 1.394 . S
C2259 C2260 1.383 . S
C2259 H2267 0.929 . S
C2260 C2259 1.383 . S
C2260 C2261 1.377 . S
C2261 H2245 0.930 . S
C2261 C2260 1.377 . S
C2261 C2262 1.379 . S
C2262 H2246 0.931 . S
C2262 C2256 1.383 . S
C2262 C2261 1.379 . S
H2263 C2257 0.959 . S
H2264 C2257 0.961 . S
H2265 C2257 0.960 . S
H2266 C2258 0.930 . S
H2267 C2259 0.929 . S
H2268 C2276 0.929 . S
H2269 C2278 0.930 . S
H2270 C2280 0.930 . S
H2271 C2283 0.929 . S
H2272 C2286 0.930 . S
H2273 C2288 0.960 . S
H2274 C2288 0.960 . S
H2275 C2288 0.960 . S
C2276 H2268 0.929 . S
C2276 C2277 1.377 . S
C2276 C2278 1.384 . S
C2277 C2276 1.377 . S
C2277 C2283 1.390 . S
C2278 H2269 0.930 . S
C2278 C2276 1.384 . S
C2278 C2279 1.372 . S
C2279 C2278 1.372 . S
C2279 C2280 1.400 . S
C2279 C2284 1.490 . S
C2280 H2270 0.930 . S
C2280 C2279 1.400 . S
C2280 C2283 1.386 . S
H2281 C2297 0.930 . S
H2282 C2298 0.931 . S
C2283 H2271 0.929 . S
C2283 C2277 1.390 . S
C2283 C2280 1.386 . S
C2284 C2279 1.490 . S
C2284 C2286 1.395 . S
C2284 C2287 1.403 . S
H2285 C2291 0.930 . S
C2286 H2272 0.930 . S
C2286 C2284 1.395 . S
C2286 C2289 1.403 . S
C2287 C2284 1.403 . S
C2287 C2288 1.524 . S
C2287 C2291 1.400 . S
C2288 H2273 0.960 . S
C2288 H2274 0.960 . S
C2288 H2275 0.960 . S
C2288 C2287 1.524 . S
C2289 C2286 1.403 . S
C2289 C2290 1.392 . S
C2289 C2293 1.495 . S
C2290 C2289 1.392 . S
C2290 C2291 1.385 . S
C2290 C2292 1.478 . S
C2291 H2285 0.930 . S
C2291 C2287 1.400 . S
C2291 C2290 1.385 . S
C2292 C2290 1.478 . S
C2292 C2294 1.381 . S
C2292 C2298 1.383 . S
C2293 C2289 1.495 . S
C2293 H2299 0.959 . S
C2293 H2300 0.961 . S
C2293 H2301 0.960 . S
C2294 C2292 1.381 . S
C2294 C2295 1.394 . S
C2294 H2302 0.930 . S
C2295 C2294 1.394 . S
C2295 C2296 1.383 . S
C2295 H2303 0.929 . S
C2296 C2295 1.383 . S
C2296 C2297 1.377 . S
C2297 H2281 0.930 . S
C2297 C2296 1.377 . S
C2297 C2298 1.379 . S
C2298 H2282 0.931 . S
C2298 C2292 1.383 . S
C2298 C2297 1.379 . S
H2299 C2293 0.959 . S
H2300 C2293 0.961 . S
H2301 C2293 0.960 . S
H2302 C2294 0.930 . S
H2303 C2295 0.929 . S
H2304 C2312 0.929 . S
H2305 C2314 0.930 . S
H2306 C2316 0.930 . S
H2307 C2319 0.929 . S
H2308 C2322 0.930 . S
H2309 C2324 0.960 . S
H2310 C2324 0.960 . S
H2311 C2324 0.965 1_565 S
C2312 H2304 0.929 . S
C2312 C2313 1.377 . S
C2312 C2314 1.384 . S
C2313 C2312 1.377 . S
C2313 C2319 1.390 . S
C2314 H2305 0.930 . S
C2314 C2312 1.384 . S
C2314 C2315 1.372 . S
C2315 C2314 1.372 . S
C2315 C2316 1.400 . S
C2315 C2320 1.490 . S
C2316 H2306 0.930 . S
C2316 C2315 1.400 . S
C2316 C2319 1.386 . S
H2317 C2333 0.930 . S
H2318 C2334 0.931 . S
C2319 H2307 0.929 . S
C2319 C2313 1.390 . S
C2319 C2316 1.386 . S
C2320 C2315 1.490 . S
C2320 C2322 1.395 . S
C2320 C2323 1.403 1_565 S
H2321 C2327 0.930 . S
C2322 H2308 0.930 . S
C2322 C2320 1.395 . S
C2322 C2325 1.403 . S
C2323 C2320 1.403 1_545 S
C2323 C2324 1.524 . S
C2323 C2327 1.400 . S
C2324 H2309 0.960 . S
C2324 H2310 0.960 . S
C2324 H2311 0.965 1_545 S
C2324 C2323 1.524 . S
C2325 C2322 1.403 . S
C2325 C2326 1.392 1_565 S
C2325 C2329 1.495 . S
C2326 C2325 1.392 1_545 S
C2326 C2327 1.385 . S
C2326 C2328 1.478 . S
C2327 H2321 0.930 . S
C2327 C2323 1.400 . S
C2327 C2326 1.385 . S
C2328 C2326 1.478 . S
C2328 C2330 1.381 . S
C2328 C2334 1.383 . S
C2329 C2325 1.495 . S
C2329 H2335 0.959 . S
C2329 H2336 0.961 . S
C2329 H2337 0.943 1_565 S
C2330 C2328 1.381 . S
C2330 C2331 1.394 . S
C2330 H2338 0.930 . S
C2331 C2330 1.394 . S
C2331 C2332 1.383 . S
C2331 H2339 0.929 . S
C2332 C2331 1.383 . S
C2332 C2333 1.377 . S
C2333 H2317 0.930 . S
C2333 C2332 1.377 . S
C2333 C2334 1.379 . S
C2334 H2318 0.931 . S
C2334 C2328 1.383 . S
C2334 C2333 1.379 . S
H2335 C2329 0.959 . S
H2336 C2329 0.961 . S
H2337 C2329 0.943 1_545 S
H2338 C2330 0.930 . S
H2339 C2331 0.929 . S
H2340 C2348 0.929 . S
H2341 C2350 0.930 . S
H2342 C2352 0.930 . S
H2343 C2355 0.929 . S
H2344 C2358 0.930 . S
H2345 C2360 0.960 . S
H2346 C2360 0.960 . S
H2347 C2360 0.960 . S
C2348 H2340 0.929 . S
C2348 C2349 1.377 . S
C2348 C2350 1.384 . S
C2349 C2348 1.377 . S
C2349 C2355 1.390 . S
C2350 H2341 0.930 . S
C2350 C2348 1.384 . S
C2350 C2351 1.372 . S
C2351 C2350 1.372 . S
C2351 C2352 1.400 . S
C2351 C2356 1.490 . S
C2352 H2342 0.930 . S
C2352 C2351 1.400 . S
C2352 C2355 1.386 . S
H2353 C2369 0.930 . S
H2354 C2370 0.931 . S
C2355 H2343 0.929 . S
C2355 C2349 1.390 . S
C2355 C2352 1.386 . S
C2356 C2351 1.490 . S
C2356 C2358 1.395 . S
C2356 C2359 1.403 1_565 S
H2357 C2363 0.930 . S
C2358 H2344 0.930 . S
C2358 C2356 1.395 . S
C2358 C2361 1.403 . S
C2359 C2356 1.403 1_545 S
C2359 C2360 1.524 . S
C2359 C2363 1.400 . S
C2360 H2345 0.960 . S
C2360 H2346 0.960 . S
C2360 H2347 0.960 . S
C2360 C2359 1.524 . S
C2361 C2358 1.403 . S
C2361 C2362 1.392 1_565 S
C2361 C2365 1.495 . S
C2362 C2361 1.392 1_545 S
C2362 C2363 1.385 . S
C2362 C2364 1.478 . S
C2363 H2357 0.930 . S
C2363 C2359 1.400 . S
C2363 C2362 1.385 . S
C2364 C2362 1.478 . S
C2364 C2366 1.381 . S
C2364 C2370 1.383 . S
C2365 C2361 1.495 . S
C2365 H2371 0.959 . S
C2365 H2372 0.961 . S
C2365 H2373 0.960 . S
C2366 C2364 1.381 . S
C2366 C2367 1.394 . S
C2366 H2374 0.930 . S
C2367 C2366 1.394 . S
C2367 C2368 1.383 . S
C2367 H2375 0.929 . S
C2368 C2367 1.383 . S
C2368 C2369 1.377 . S
C2369 H2353 0.930 . S
C2369 C2368 1.377 . S
C2369 C2370 1.379 . S
C2370 H2354 0.931 . S
C2370 C2364 1.383 . S
C2370 C2369 1.379 . S
H2371 C2365 0.959 . S
H2372 C2365 0.961 . S
H2373 C2365 0.960 . S
H2374 C2366 0.930 . S
H2375 C2367 0.929 . S
H2376 C2384 0.929 . S
H2377 C2386 0.930 . S
H2378 C2388 0.930 1_455 S
H2379 C2391 0.929 . S
H2380 C2394 0.930 . S
H2381 C2396 0.960 . S
H2382 C2396 0.960 . S
H2383 C2396 0.960 . S
C2384 H2376 0.929 . S
C2384 C2385 1.377 . S
C2384 C2386 1.384 . S
C2385 C2384 1.377 . S
C2385 C2391 1.390 . S
C2386 H2377 0.930 . S
C2386 C2384 1.384 . S
C2386 C2387 1.372 . S
C2387 C2386 1.372 . S
C2387 C2388 1.400 . S
C2387 C2392 1.490 . S
C2388 H2378 0.930 1_655 S
C2388 C2387 1.400 . S
C2388 C2391 1.386 . S
H2389 C2405 0.930 . S
H2390 C2406 0.931 . S
C2391 H2379 0.929 . S
C2391 C2385 1.390 . S
C2391 C2388 1.386 . S
C2392 C2387 1.490 . S
C2392 C2394 1.395 . S
C2392 C2395 1.403 1_655 S
H2393 C2399 0.930 . S
C2394 H2380 0.930 . S
C2394 C2392 1.395 . S
C2394 C2397 1.403 . S
C2395 C2392 1.403 1_455 S
C2395 C2396 1.524 . S
C2395 C2399 1.400 . S
C2396 H2381 0.960 . S
C2396 H2382 0.960 . S
C2396 H2383 0.960 . S
C2396 C2395 1.524 . S
C2397 C2394 1.403 . S
C2397 C2398 1.392 1_655 S
C2397 C2401 1.495 . S
C2398 C2397 1.392 1_455 S
C2398 C2399 1.385 . S
C2398 C2400 1.478 . S
C2399 H2393 0.930 . S
C2399 C2395 1.400 . S
C2399 C2398 1.385 . S
C2400 C2398 1.478 . S
C2400 C2402 1.381 . S
C2400 C2406 1.383 . S
C2401 C2397 1.495 . S
C2401 H2407 0.959 . S
C2401 H2408 0.961 . S
C2401 H2409 0.960 . S
C2402 C2400 1.381 . S
C2402 C2403 1.394 . S
C2402 H2410 0.930 1_455 S
C2403 C2402 1.394 . S
C2403 C2404 1.383 . S
C2403 H2411 0.929 . S
C2404 C2403 1.383 . S
C2404 C2405 1.377 . S
C2405 H2389 0.930 . S
C2405 C2404 1.377 . S
C2405 C2406 1.379 . S
C2406 H2390 0.931 . S
C2406 C2400 1.383 . S
C2406 C2405 1.379 . S
H2407 C2401 0.959 . S
H2408 C2401 0.961 . S
H2409 C2401 0.960 . S
H2410 C2402 0.930 1_655 S
H2411 C2403 0.929 . S
H2412 C2420 0.929 . S
H2413 C2422 0.930 . S
H2414 C2424 0.930 . S
H2415 C2427 0.929 . S
H2416 C2430 0.930 . S
H2417 C2432 0.960 . S
H2418 C2432 0.960 . S
H2419 C2432 0.960 . S
C2420 H2412 0.929 . S
C2420 C2421 1.377 . S
C2420 C2422 1.384 . S
C2421 C2420 1.377 . S
C2421 C2427 1.390 . S
C2422 H2413 0.930 . S
C2422 C2420 1.384 . S
C2422 C2423 1.372 . S
C2423 C2422 1.372 . S
C2423 C2424 1.400 . S
C2423 C2428 1.490 . S
C2424 H2414 0.930 . S
C2424 C2423 1.400 . S
C2424 C2427 1.386 . S
H2425 C2441 0.930 . S
H2426 C2442 0.931 . S
C2427 H2415 0.929 . S
C2427 C2421 1.390 . S
C2427 C2424 1.386 . S
C2428 C2423 1.490 . S
C2428 C2430 1.395 . S
C2428 C2431 1.403 . S
H2429 C2435 0.930 . S
C2430 H2416 0.930 . S
C2430 C2428 1.395 . S
C2430 C2433 1.403 . S
C2431 C2428 1.403 . S
C2431 C2432 1.524 . S
C2431 C2435 1.400 . S
C2432 H2417 0.960 . S
C2432 H2418 0.960 . S
C2432 H2419 0.960 . S
C2432 C2431 1.524 . S
C2433 C2430 1.403 . S
C2433 C2434 1.392 . S
C2433 C2437 1.495 . S
C2434 C2433 1.392 . S
C2434 C2435 1.385 . S
C2434 C2436 1.478 . S
C2435 H2429 0.930 . S
C2435 C2431 1.400 . S
C2435 C2434 1.385 . S
C2436 C2434 1.478 . S
C2436 C2438 1.381 . S
C2436 C2442 1.383 . S
C2437 C2433 1.495 . S
C2437 H2443 0.959 . S
C2437 H2444 0.961 . S
C2437 H2445 0.960 . S
C2438 C2436 1.381 . S
C2438 C2439 1.394 . S
C2438 H2446 0.930 . S
C2439 C2438 1.394 . S
C2439 C2440 1.383 . S
C2439 H2447 0.929 . S
C2440 C2439 1.383 . S
C2440 C2441 1.377 . S
C2441 H2425 0.930 . S
C2441 C2440 1.377 . S
C2441 C2442 1.379 . S
C2442 H2426 0.931 . S
C2442 C2436 1.383 . S
C2442 C2441 1.379 . S
H2443 C2437 0.959 . S
H2444 C2437 0.961 . S
H2445 C2437 0.960 . S
H2446 C2438 0.930 . S
H2447 C2439 0.929 . S
H2448 C2456 0.929 . S
H2449 C2458 0.930 . S
H2450 C2460 0.930 . S
H2451 C2463 0.929 . S
H2452 C2466 0.930 . S
H2453 C2468 0.960 . S
H2454 C2468 0.960 . S
H2455 C2468 0.960 . S
C2456 H2448 0.929 . S
C2456 C2457 1.377 . S
C2456 C2458 1.384 . S
C2457 C2456 1.377 . S
C2457 C2463 1.390 . S
C2458 H2449 0.930 . S
C2458 C2456 1.384 . S
C2458 C2459 1.372 . S
C2459 C2458 1.372 . S
C2459 C2460 1.400 . S
C2459 C2464 1.490 . S
C2460 H2450 0.930 . S
C2460 C2459 1.400 . S
C2460 C2463 1.386 . S
H2461 C2477 0.930 . S
H2462 C2478 0.931 . S
C2463 H2451 0.929 . S
C2463 C2457 1.390 . S
C2463 C2460 1.386 . S
C2464 C2459 1.490 . S
C2464 C2466 1.395 . S
C2464 C2467 1.403 . S
H2465 C2471 0.930 . S
C2466 H2452 0.930 . S
C2466 C2464 1.395 . S
C2466 C2469 1.403 . S
C2467 C2464 1.403 . S
C2467 C2468 1.524 . S
C2467 C2471 1.400 . S
C2468 H2453 0.960 . S
C2468 H2454 0.960 . S
C2468 H2455 0.960 . S
C2468 C2467 1.524 . S
C2469 C2466 1.403 . S
C2469 C2470 1.392 . S
C2469 C2473 1.495 . S
C2470 C2469 1.392 . S
C2470 C2471 1.385 . S
C2470 C2472 1.478 . S
C2471 H2465 0.930 . S
C2471 C2467 1.400 . S
C2471 C2470 1.385 . S
C2472 C2470 1.478 . S
C2472 C2474 1.381 . S
C2472 C2478 1.383 . S
C2473 C2469 1.495 . S
C2473 H2479 0.959 . S
C2473 H2480 0.961 . S
C2473 H2481 0.960 . S
C2474 C2472 1.381 . S
C2474 C2475 1.394 . S
C2474 H2482 0.930 . S
C2475 C2474 1.394 . S
C2475 C2476 1.383 . S
C2475 H2483 0.929 . S
C2476 C2475 1.383 . S
C2476 C2477 1.377 . S
C2477 H2461 0.930 . S
C2477 C2476 1.377 . S
C2477 C2478 1.379 . S
C2478 H2462 0.931 . S
C2478 C2472 1.383 . S
C2478 C2477 1.379 . S
H2479 C2473 0.959 . S
H2480 C2473 0.961 . S
H2481 C2473 0.960 . S
H2482 C2474 0.930 . S
H2483 C2475 0.929 . S
H2484 C2492 0.929 . S
H2485 C2494 0.930 . S
H2486 C2496 0.930 . S
H2487 C2499 0.929 . S
H2488 C2502 0.930 . S
H2489 C2504 0.960 . S
H2490 C2504 0.960 . S
H2491 C2504 0.960 . S
C2492 H2484 0.929 . S
C2492 C2493 1.377 . S
C2492 C2494 1.384 . S
C2493 C2492 1.377 . S
C2493 C2499 1.390 . S
C2494 H2485 0.930 . S
C2494 C2492 1.384 . S
C2494 C2495 1.372 . S
C2495 C2494 1.372 . S
C2495 C2496 1.400 . S
C2495 C2500 1.490 . S
C2496 H2486 0.930 . S
C2496 C2495 1.400 . S
C2496 C2499 1.386 . S
H2497 C2513 0.930 . S
H2498 C2514 0.931 . S
C2499 H2487 0.929 . S
C2499 C2493 1.390 . S
C2499 C2496 1.386 . S
C2500 C2495 1.490 . S
C2500 C2502 1.395 . S
C2500 C2503 1.403 . S
H2501 C2507 0.930 . S
C2502 H2488 0.930 . S
C2502 C2500 1.395 . S
C2502 C2505 1.403 . S
C2503 C2500 1.403 . S
C2503 C2504 1.524 . S
C2503 C2507 1.400 . S
C2504 H2489 0.960 . S
C2504 H2490 0.960 . S
C2504 H2491 0.960 . S
C2504 C2503 1.524 . S
C2505 C2502 1.403 . S
C2505 C2506 1.392 . S
C2505 C2509 1.495 . S
C2506 C2505 1.392 . S
C2506 C2507 1.385 . S
C2506 C2508 1.478 . S
C2507 H2501 0.930 . S
C2507 C2503 1.400 . S
C2507 C2506 1.385 . S
C2508 C2506 1.478 . S
C2508 C2510 1.381 . S
C2508 C2514 1.383 . S
C2509 C2505 1.495 . S
C2509 H2515 0.959 . S
C2509 H2516 0.961 . S
C2509 H2517 0.960 . S
C2510 C2508 1.381 . S
C2510 C2511 1.394 . S
C2510 H2518 0.930 . S
C2511 C2510 1.394 . S
C2511 C2512 1.383 . S
C2511 H2519 0.929 . S
C2512 C2511 1.383 . S
C2512 C2513 1.377 . S
C2513 H2497 0.930 . S
C2513 C2512 1.377 . S
C2513 C2514 1.379 . S
C2514 H2498 0.931 . S
C2514 C2508 1.383 . S
C2514 C2513 1.379 . S
H2515 C2509 0.959 . S
H2516 C2509 0.961 . S
H2517 C2509 0.960 . S
H2518 C2510 0.930 . S
H2519 C2511 0.929 . S
H2520 C2528 0.929 . S
H2521 C2530 0.930 . S
H2522 C2532 0.930 . S
H2523 C2535 0.929 . S
H2524 C2538 0.930 . S
H2525 C2540 0.960 . S
H2526 C2540 0.960 . S
H2527 C2540 0.960 . S
C2528 H2520 0.929 . S
C2528 C2529 1.377 . S
C2528 C2530 1.384 . S
C2529 C2528 1.377 . S
C2529 C2535 1.390 . S
C2530 H2521 0.930 . S
C2530 C2528 1.384 . S
C2530 C2531 1.372 . S
C2531 C2530 1.372 . S
C2531 C2532 1.400 . S
C2531 C2536 1.490 . S
C2532 H2522 0.930 . S
C2532 C2531 1.400 . S
C2532 C2535 1.386 . S
H2533 C2549 0.930 . S
H2534 C2550 0.931 . S
C2535 H2523 0.929 . S
C2535 C2529 1.390 . S
C2535 C2532 1.386 . S
C2536 C2531 1.490 . S
C2536 C2538 1.395 . S
C2536 C2539 1.403 . S
H2537 C2543 0.930 . S
C2538 H2524 0.930 . S
C2538 C2536 1.395 . S
C2538 C2541 1.403 . S
C2539 C2536 1.403 . S
C2539 C2540 1.524 . S
C2539 C2543 1.400 . S
C2540 H2525 0.960 . S
C2540 H2526 0.960 . S
C2540 H2527 0.960 . S
C2540 C2539 1.524 . S
C2541 C2538 1.403 . S
C2541 C2542 1.392 . S
C2541 C2545 1.495 . S
C2542 C2541 1.392 . S
C2542 C2543 1.385 . S
C2542 C2544 1.478 . S
C2543 H2537 0.930 . S
C2543 C2539 1.400 . S
C2543 C2542 1.385 . S
C2544 C2542 1.478 . S
C2544 C2546 1.381 . S
C2544 C2550 1.383 . S
C2545 C2541 1.495 . S
C2545 H2551 0.959 . S
C2545 H2552 0.961 . S
C2545 H2553 0.960 . S
C2546 C2544 1.381 . S
C2546 C2547 1.394 . S
C2546 H2554 0.930 . S
C2547 C2546 1.394 . S
C2547 C2548 1.383 . S
C2547 H2555 0.929 . S
C2548 C2547 1.383 . S
C2548 C2549 1.377 . S
C2549 H2533 0.930 . S
C2549 C2548 1.377 . S
C2549 C2550 1.379 . S
C2550 H2534 0.931 . S
C2550 C2544 1.383 . S
C2550 C2549 1.379 . S
H2551 C2545 0.959 . S
H2552 C2545 0.961 . S
H2553 C2545 0.960 . S
H2554 C2546 0.930 . S
H2555 C2547 0.929 . S
H2556 C2564 0.929 . S
H2557 C2566 0.930 . S
H2558 C2568 0.930 . S
H2559 C2571 0.929 . S
H2560 C2574 0.930 . S
H2561 C2576 0.960 . S
H2562 C2576 0.960 . S
H2563 C2576 0.960 . S
C2564 H2556 0.929 . S
C2564 C2565 1.377 . S
C2564 C2566 1.384 . S
C2565 C2564 1.377 . S
C2565 C2571 1.390 . S
C2566 H2557 0.930 . S
C2566 C2564 1.384 . S
C2566 C2567 1.372 . S
C2567 C2566 1.372 . S
C2567 C2568 1.400 . S
C2567 C2572 1.490 . S
C2568 H2558 0.930 . S
C2568 C2567 1.400 . S
C2568 C2571 1.386 . S
H2569 C2585 0.930 . S
H2570 C2586 0.931 . S
C2571 H2559 0.929 . S
C2571 C2565 1.390 . S
C2571 C2568 1.386 . S
C2572 C2567 1.490 . S
C2572 C2574 1.395 . S
C2572 C2575 1.403 . S
H2573 C2579 0.930 . S
C2574 H2560 0.930 . S
C2574 C2572 1.395 . S
C2574 C2577 1.403 . S
C2575 C2572 1.403 . S
C2575 C2576 1.524 . S
C2575 C2579 1.400 . S
C2576 H2561 0.960 . S
C2576 H2562 0.960 . S
C2576 H2563 0.960 . S
C2576 C2575 1.524 . S
C2577 C2574 1.403 . S
C2577 C2578 1.392 . S
C2577 C2581 1.495 . S
C2578 C2577 1.392 . S
C2578 C2579 1.385 . S
C2578 C2580 1.478 . S
C2579 H2573 0.930 . S
C2579 C2575 1.400 . S
C2579 C2578 1.385 . S
C2580 C2578 1.478 . S
C2580 C2582 1.381 . S
C2580 C2586 1.383 . S
C2581 C2577 1.495 . S
C2581 H2587 0.959 . S
C2581 H2588 0.961 . S
C2581 H2589 0.960 . S
C2582 C2580 1.381 . S
C2582 C2583 1.394 . S
C2582 H2590 0.930 . S
C2583 C2582 1.394 . S
C2583 C2584 1.383 . S
C2583 H2591 0.929 . S
C2584 C2583 1.383 . S
C2584 C2585 1.377 . S
C2585 H2569 0.930 . S
C2585 C2584 1.377 . S
C2585 C2586 1.379 . S
C2586 H2570 0.931 . S
C2586 C2580 1.383 . S
C2586 C2585 1.379 . S
H2587 C2581 0.959 . S
H2588 C2581 0.961 . S
H2589 C2581 0.960 . S
H2590 C2582 0.930 . S
H2591 C2583 0.929 . S
H2592 C2600 0.929 . S
H2593 C2602 0.930 . S
H2594 C2604 0.930 . S
H2595 C2607 0.929 . S
H2596 C2610 0.930 . S
H2597 C2612 0.960 . S
H2598 C2612 0.960 . S
H2599 C2612 0.960 . S
C2600 H2592 0.929 . S
C2600 C2601 1.377 . S
C2600 C2602 1.384 . S
C2601 C2600 1.377 . S
C2601 C2607 1.390 . S
C2602 H2593 0.930 . S
C2602 C2600 1.384 . S
C2602 C2603 1.372 . S
C2603 C2602 1.372 . S
C2603 C2604 1.400 . S
C2603 C2608 1.490 . S
C2604 H2594 0.930 . S
C2604 C2603 1.400 . S
C2604 C2607 1.386 . S
H2605 C2621 0.930 . S
H2606 C2622 0.931 . S
C2607 H2595 0.929 . S
C2607 C2601 1.390 . S
C2607 C2604 1.386 . S
C2608 C2603 1.490 . S
C2608 C2610 1.395 . S
C2608 C2611 1.403 . S
H2609 C2615 0.930 . S
C2610 H2596 0.930 . S
C2610 C2608 1.395 . S
C2610 C2613 1.403 . S
C2611 C2608 1.403 . S
C2611 C2612 1.524 . S
C2611 C2615 1.400 . S
C2612 H2597 0.960 . S
C2612 H2598 0.960 . S
C2612 H2599 0.960 . S
C2612 C2611 1.524 . S
C2613 C2610 1.403 . S
C2613 C2614 1.392 . S
C2613 C2617 1.495 . S
C2614 C2613 1.392 . S
C2614 C2615 1.385 . S
C2614 C2616 1.478 . S
C2615 H2609 0.930 . S
C2615 C2611 1.400 . S
C2615 C2614 1.385 . S
C2616 C2614 1.478 . S
C2616 C2618 1.381 . S
C2616 C2622 1.383 . S
C2617 C2613 1.495 . S
C2617 H2623 0.959 . S
C2617 H2624 0.961 . S
C2617 H2625 0.960 . S
C2618 C2616 1.381 . S
C2618 C2619 1.394 . S
C2618 H2626 0.930 . S
C2619 C2618 1.394 . S
C2619 C2620 1.383 . S
C2619 H2627 0.929 . S
C2620 C2619 1.383 . S
C2620 C2621 1.377 . S
C2621 H2605 0.930 . S
C2621 C2620 1.377 . S
C2621 C2622 1.379 . S
C2622 H2606 0.931 . S
C2622 C2616 1.383 . S
C2622 C2621 1.379 . S
H2623 C2617 0.959 . S
H2624 C2617 0.961 . S
H2625 C2617 0.960 . S
H2626 C2618 0.930 . S
H2627 C2619 0.929 . S
H2628 C2636 0.929 . S
H2629 C2638 0.930 . S
H2630 C2640 0.930 . S
H2631 C2643 0.929 . S
H2632 C2646 0.930 . S
H2633 C2648 0.960 . S
H2634 C2648 0.960 . S
H2635 C2648 0.960 . S
C2636 H2628 0.929 . S
C2636 C2637 1.377 . S
C2636 C2638 1.384 . S
C2637 C2636 1.377 . S
C2637 C2643 1.390 . S
C2638 H2629 0.930 . S
C2638 C2636 1.384 . S
C2638 C2639 1.372 . S
C2639 C2638 1.372 . S
C2639 C2640 1.400 . S
C2639 C2644 1.490 . S
C2640 H2630 0.930 . S
C2640 C2639 1.400 . S
C2640 C2643 1.386 . S
H2641 C2657 0.930 . S
H2642 C2658 0.931 . S
C2643 H2631 0.929 . S
C2643 C2637 1.390 . S
C2643 C2640 1.386 . S
C2644 C2639 1.490 . S
C2644 C2646 1.395 . S
C2644 C2647 1.403 . S
H2645 C2651 0.930 . S
C2646 H2632 0.930 . S
C2646 C2644 1.395 . S
C2646 C2649 1.403 . S
C2647 C2644 1.403 . S
C2647 C2648 1.524 . S
C2647 C2651 1.400 . S
C2648 H2633 0.960 . S
C2648 H2634 0.960 . S
C2648 H2635 0.960 . S
C2648 C2647 1.524 . S
C2649 C2646 1.403 . S
C2649 C2650 1.392 . S
C2649 C2653 1.495 . S
C2650 C2649 1.392 . S
C2650 C2651 1.385 . S
C2650 C2652 1.478 . S
C2651 H2645 0.930 . S
C2651 C2647 1.400 . S
C2651 C2650 1.385 . S
C2652 C2650 1.478 . S
C2652 C2654 1.381 . S
C2652 C2658 1.383 . S
C2653 C2649 1.495 . S
C2653 H2659 0.959 . S
C2653 H2660 0.961 . S
C2653 H2661 0.960 . S
C2654 C2652 1.381 . S
C2654 C2655 1.394 . S
C2654 H2662 0.930 . S
C2655 C2654 1.394 . S
C2655 C2656 1.383 . S
C2655 H2663 0.929 . S
C2656 C2655 1.383 . S
C2656 C2657 1.377 . S
C2657 H2641 0.930 . S
C2657 C2656 1.377 . S
C2657 C2658 1.379 . S
C2658 H2642 0.931 . S
C2658 C2652 1.383 . S
C2658 C2657 1.379 . S
H2659 C2653 0.959 . S
H2660 C2653 0.961 . S
H2661 C2653 0.960 . S
H2662 C2654 0.930 . S
H2663 C2655 0.929 . S
H2664 C2672 0.929 . S
H2665 C2674 0.930 . S
H2666 C2676 0.930 . S
H2667 C2679 0.929 . S
H2668 C2682 0.930 . S
H2669 C2684 0.960 . S
H2670 C2684 0.960 . S
H2671 C2684 0.960 . S
C2672 H2664 0.929 . S
C2672 C2673 1.377 . S
C2672 C2674 1.384 . S
C2673 C2672 1.377 . S
C2673 C2679 1.390 . S
C2674 H2665 0.930 . S
C2674 C2672 1.384 . S
C2674 C2675 1.372 . S
C2675 C2674 1.372 . S
C2675 C2676 1.400 . S
C2675 C2680 1.490 . S
C2676 H2666 0.930 . S
C2676 C2675 1.400 . S
C2676 C2679 1.386 . S
H2677 C2693 0.930 . S
H2678 C2694 0.931 . S
C2679 H2667 0.929 . S
C2679 C2673 1.390 . S
C2679 C2676 1.386 . S
C2680 C2675 1.490 . S
C2680 C2682 1.395 . S
C2680 C2683 1.403 . S
H2681 C2687 0.930 . S
C2682 H2668 0.930 . S
C2682 C2680 1.395 . S
C2682 C2685 1.403 . S
C2683 C2680 1.403 . S
C2683 C2684 1.524 . S
C2683 C2687 1.400 . S
C2684 H2669 0.960 . S
C2684 H2670 0.960 . S
C2684 H2671 0.960 . S
C2684 C2683 1.524 . S
C2685 C2682 1.403 . S
C2685 C2686 1.392 . S
C2685 C2689 1.495 . S
C2686 C2685 1.392 . S
C2686 C2687 1.385 . S
C2686 C2688 1.478 . S
C2687 H2681 0.930 . S
C2687 C2683 1.400 . S
C2687 C2686 1.385 . S
C2688 C2686 1.478 . S
C2688 C2690 1.381 . S
C2688 C2694 1.383 . S
C2689 C2685 1.495 . S
C2689 H2695 0.959 . S
C2689 H2696 0.961 . S
C2689 H2697 0.960 . S
C2690 C2688 1.381 . S
C2690 C2691 1.394 . S
C2690 H2698 0.930 . S
C2691 C2690 1.394 . S
C2691 C2692 1.383 . S
C2691 H2699 0.929 . S
C2692 C2691 1.383 . S
C2692 C2693 1.377 . S
C2693 H2677 0.930 . S
C2693 C2692 1.377 . S
C2693 C2694 1.379 . S
C2694 H2678 0.931 . S
C2694 C2688 1.383 . S
C2694 C2693 1.379 . S
H2695 C2689 0.959 . S
H2696 C2689 0.961 . S
H2697 C2689 0.960 . S
H2698 C2690 0.930 . S
H2699 C2691 0.929 . S
H2700 C2708 0.929 . S
H2701 C2710 0.930 . S
H2702 C2712 0.930 . S
H2703 C2715 0.929 . S
H2704 C2718 0.930 . S
H2705 C2720 0.960 . S
H2706 C2720 0.960 . S
H2707 C2720 0.960 . S
C2708 H2700 0.929 . S
C2708 C2709 1.377 . S
C2708 C2710 1.384 . S
C2709 C2708 1.377 . S
C2709 C2715 1.390 . S
C2710 H2701 0.930 . S
C2710 C2708 1.384 . S
C2710 C2711 1.372 . S
C2711 C2710 1.372 . S
C2711 C2712 1.400 . S
C2711 C2716 1.490 . S
C2712 H2702 0.930 . S
C2712 C2711 1.400 . S
C2712 C2715 1.386 . S
H2713 C2729 0.930 . S
H2714 C2730 0.931 . S
C2715 H2703 0.929 . S
C2715 C2709 1.390 . S
C2715 C2712 1.386 . S
C2716 C2711 1.490 . S
C2716 C2718 1.395 . S
C2716 C2719 1.403 . S
H2717 C2723 0.930 . S
C2718 H2704 0.930 . S
C2718 C2716 1.395 . S
C2718 C2721 1.403 . S
C2719 C2716 1.403 . S
C2719 C2720 1.524 . S
C2719 C2723 1.400 . S
C2720 H2705 0.960 . S
C2720 H2706 0.960 . S
C2720 H2707 0.960 . S
C2720 C2719 1.524 . S
C2721 C2718 1.403 . S
C2721 C2722 1.392 . S
C2721 C2725 1.495 . S
C2722 C2721 1.392 . S
C2722 C2723 1.385 . S
C2722 C2724 1.478 . S
C2723 H2717 0.930 . S
C2723 C2719 1.400 . S
C2723 C2722 1.385 . S
C2724 C2722 1.478 . S
C2724 C2726 1.381 . S
C2724 C2730 1.383 . S
C2725 C2721 1.495 . S
C2725 H2731 0.959 . S
C2725 H2732 0.961 . S
C2725 H2733 0.960 . S
C2726 C2724 1.381 . S
C2726 C2727 1.394 . S
C2726 H2734 0.930 . S
C2727 C2726 1.394 . S
C2727 C2728 1.383 . S
C2727 H2735 0.929 . S
C2728 C2727 1.383 . S
C2728 C2729 1.377 . S
C2729 H2713 0.930 . S
C2729 C2728 1.377 . S
C2729 C2730 1.379 . S
C2730 H2714 0.931 . S
C2730 C2724 1.383 . S
C2730 C2729 1.379 . S
H2731 C2725 0.959 . S
H2732 C2725 0.961 . S
H2733 C2725 0.960 . S
H2734 C2726 0.930 . S
H2735 C2727 0.929 . S
H2736 C2744 0.929 . S
H2737 C2746 0.930 . S
H2738 C2748 0.930 . S
H2739 C2751 0.929 . S
H2740 C2754 0.930 . S
H2741 C2756 0.960 . S
H2742 C2756 0.960 . S
H2743 C2756 0.960 . S
C2744 H2736 0.929 . S
C2744 C2745 1.377 . S
C2744 C2746 1.384 . S
C2745 C2744 1.377 . S
C2745 C2751 1.390 . S
C2746 H2737 0.930 . S
C2746 C2744 1.384 . S
C2746 C2747 1.372 . S
C2747 C2746 1.372 . S
C2747 C2748 1.400 . S
C2747 C2752 1.490 . S
C2748 H2738 0.930 . S
C2748 C2747 1.400 . S
C2748 C2751 1.386 . S
H2749 C2765 0.930 . S
H2750 C2766 0.931 . S
C2751 H2739 0.929 . S
C2751 C2745 1.390 . S
C2751 C2748 1.386 . S
C2752 C2747 1.490 . S
C2752 C2754 1.395 . S
C2752 C2755 1.403 . S
H2753 C2759 0.930 . S
C2754 H2740 0.930 . S
C2754 C2752 1.395 . S
C2754 C2757 1.403 . S
C2755 C2752 1.403 . S
C2755 C2756 1.524 . S
C2755 C2759 1.400 . S
C2756 H2741 0.960 . S
C2756 H2742 0.960 . S
C2756 H2743 0.960 . S
C2756 C2755 1.524 . S
C2757 C2754 1.403 . S
C2757 C2758 1.392 . S
C2757 C2761 1.495 . S
C2758 C2757 1.392 . S
C2758 C2759 1.385 . S
C2758 C2760 1.478 . S
C2759 H2753 0.930 . S
C2759 C2755 1.400 . S
C2759 C2758 1.385 . S
C2760 C2758 1.478 . S
C2760 C2762 1.381 . S
C2760 C2766 1.383 . S
C2761 C2757 1.495 . S
C2761 H2767 0.959 . S
C2761 H2768 0.961 . S
C2761 H2769 0.960 . S
C2762 C2760 1.381 . S
C2762 C2763 1.394 . S
C2762 H2770 0.930 . S
C2763 C2762 1.394 . S
C2763 C2764 1.383 . S
C2763 H2771 0.929 . S
C2764 C2763 1.383 . S
C2764 C2765 1.377 . S
C2765 H2749 0.930 . S
C2765 C2764 1.377 . S
C2765 C2766 1.379 . S
C2766 H2750 0.931 . S
C2766 C2760 1.383 . S
C2766 C2765 1.379 . S
H2767 C2761 0.959 . S
H2768 C2761 0.961 . S
H2769 C2761 0.960 . S
H2770 C2762 0.930 . S
H2771 C2763 0.929 . S
H2772 C2780 0.929 . S
H2773 C2782 0.930 . S
H2774 C2784 0.930 . S
H2775 C2787 0.929 . S
H2776 C2790 0.930 . S
H2777 C2792 0.960 . S
H2778 C2792 0.960 . S
H2779 C2792 0.960 . S
C2780 H2772 0.929 . S
C2780 C2781 1.377 . S
C2780 C2782 1.384 . S
C2781 C2780 1.377 . S
C2781 C2787 1.390 . S
C2782 H2773 0.930 . S
C2782 C2780 1.384 . S
C2782 C2783 1.372 . S
C2783 C2782 1.372 . S
C2783 C2784 1.400 . S
C2783 C2788 1.490 . S
C2784 H2774 0.930 . S
C2784 C2783 1.400 . S
C2784 C2787 1.386 . S
H2785 C2801 0.930 . S
H2786 C2802 0.931 . S
C2787 H2775 0.929 . S
C2787 C2781 1.390 . S
C2787 C2784 1.386 . S
C2788 C2783 1.490 . S
C2788 C2790 1.395 . S
C2788 C2791 1.403 . S
H2789 C2795 0.930 . S
C2790 H2776 0.930 . S
C2790 C2788 1.395 . S
C2790 C2793 1.403 . S
C2791 C2788 1.403 . S
C2791 C2792 1.524 . S
C2791 C2795 1.400 . S
C2792 H2777 0.960 . S
C2792 H2778 0.960 . S
C2792 H2779 0.960 . S
C2792 C2791 1.524 . S
C2793 C2790 1.403 . S
C2793 C2794 1.392 . S
C2793 C2797 1.495 . S
C2794 C2793 1.392 . S
C2794 C2795 1.385 . S
C2794 C2796 1.478 . S
C2795 H2789 0.930 . S
C2795 C2791 1.400 . S
C2795 C2794 1.385 . S
C2796 C2794 1.478 . S
C2796 C2798 1.381 . S
C2796 C2802 1.383 . S
C2797 C2793 1.495 . S
C2797 H2803 0.959 . S
C2797 H2804 0.961 . S
C2797 H2805 0.960 . S
C2798 C2796 1.381 . S
C2798 C2799 1.394 . S
C2798 H2806 0.930 . S
C2799 C2798 1.394 . S
C2799 C2800 1.383 . S
C2799 H2807 0.929 . S
C2800 C2799 1.383 . S
C2800 C2801 1.377 . S
C2801 H2785 0.930 . S
C2801 C2800 1.377 . S
C2801 C2802 1.379 . S
C2802 H2786 0.931 . S
C2802 C2796 1.383 . S
C2802 C2801 1.379 . S
H2803 C2797 0.959 . S
H2804 C2797 0.961 . S
H2805 C2797 0.960 . S
H2806 C2798 0.930 . S
H2807 C2799 0.929 . S
H2808 C2816 0.929 . S
H2809 C2818 0.930 . S
H2810 C2820 0.930 . S
H2811 C2823 0.929 . S
H2812 C2826 0.930 . S
H2813 C2828 0.960 . S
H2814 C2828 0.960 . S
H2815 C2828 0.960 . S
C2816 H2808 0.929 . S
C2816 C2817 1.377 . S
C2816 C2818 1.384 . S
C2817 C2816 1.377 . S
C2817 C2823 1.390 . S
C2818 H2809 0.930 . S
C2818 C2816 1.384 . S
C2818 C2819 1.372 . S
C2819 C2818 1.372 . S
C2819 C2820 1.400 . S
C2819 C2824 1.490 . S
C2820 H2810 0.930 . S
C2820 C2819 1.400 . S
C2820 C2823 1.386 . S
H2821 C2837 0.930 . S
H2822 C2838 0.931 . S
C2823 H2811 0.929 . S
C2823 C2817 1.390 . S
C2823 C2820 1.386 . S
C2824 C2819 1.490 . S
C2824 C2826 1.395 . S
C2824 C2827 1.403 . S
H2825 C2831 0.930 . S
C2826 H2812 0.930 . S
C2826 C2824 1.395 . S
C2826 C2829 1.403 . S
C2827 C2824 1.403 . S
C2827 C2828 1.524 . S
C2827 C2831 1.400 . S
C2828 H2813 0.960 . S
C2828 H2814 0.960 . S
C2828 H2815 0.960 . S
C2828 C2827 1.524 . S
C2829 C2826 1.403 . S
C2829 C2830 1.392 . S
C2829 C2833 1.495 . S
C2830 C2829 1.392 . S
C2830 C2831 1.385 . S
C2830 C2832 1.478 . S
C2831 H2825 0.930 . S
C2831 C2827 1.400 . S
C2831 C2830 1.385 . S
C2832 C2830 1.478 . S
C2832 C2834 1.381 . S
C2832 C2838 1.383 . S
C2833 C2829 1.495 . S
C2833 H2839 0.959 . S
C2833 H2840 0.961 . S
C2833 H2841 0.960 . S
C2834 C2832 1.381 . S
C2834 C2835 1.394 . S
C2834 H2842 0.930 . S
C2835 C2834 1.394 . S
C2835 C2836 1.383 . S
C2835 H2843 0.929 . S
C2836 C2835 1.383 . S
C2836 C2837 1.377 . S
C2837 H2821 0.930 . S
C2837 C2836 1.377 . S
C2837 C2838 1.379 . S
C2838 H2822 0.931 . S
C2838 C2832 1.383 . S
C2838 C2837 1.379 . S
H2839 C2833 0.959 . S
H2840 C2833 0.961 . S
H2841 C2833 0.960 . S
H2842 C2834 0.930 . S
H2843 C2835 0.929 . S
H2844 C2852 0.929 . S
H2845 C2854 0.930 . S
H2846 C2856 0.930 . S
H2847 C2859 0.929 . S
H2848 C2862 0.930 . S
H2849 C2864 0.960 . S
H2850 C2864 0.960 . S
H2851 C2864 0.960 . S
C2852 H2844 0.929 . S
C2852 C2853 1.377 . S
C2852 C2854 1.384 . S
C2853 C2852 1.377 . S
C2853 C2859 1.390 . S
C2854 H2845 0.930 . S
C2854 C2852 1.384 . S
C2854 C2855 1.372 . S
C2855 C2854 1.372 . S
C2855 C2856 1.400 . S
C2855 C2860 1.490 . S
C2856 H2846 0.930 . S
C2856 C2855 1.400 . S
C2856 C2859 1.386 . S
H2857 C2873 0.930 . S
H2858 C2874 0.931 . S
C2859 H2847 0.929 . S
C2859 C2853 1.390 . S
C2859 C2856 1.386 . S
C2860 C2855 1.490 . S
C2860 C2862 1.395 . S
C2860 C2863 1.403 . S
H2861 C2867 0.930 . S
C2862 H2848 0.930 . S
C2862 C2860 1.395 . S
C2862 C2865 1.403 . S
C2863 C2860 1.403 . S
C2863 C2864 1.524 . S
C2863 C2867 1.400 . S
C2864 H2849 0.960 . S
C2864 H2850 0.960 . S
C2864 H2851 0.960 . S
C2864 C2863 1.524 . S
C2865 C2862 1.403 . S
C2865 C2866 1.392 . S
C2865 C2869 1.495 . S
C2866 C2865 1.392 . S
C2866 C2867 1.385 . S
C2866 C2868 1.478 . S
C2867 H2861 0.930 . S
C2867 C2863 1.400 . S
C2867 C2866 1.385 . S
C2868 C2866 1.478 . S
C2868 C2870 1.381 . S
C2868 C2874 1.383 . S
C2869 C2865 1.495 . S
C2869 H2875 0.959 . S
C2869 H2876 0.961 . S
C2869 H2877 0.960 . S
C2870 C2868 1.381 . S
C2870 C2871 1.394 . S
C2870 H2878 0.930 . S
C2871 C2870 1.394 . S
C2871 C2872 1.383 . S
C2871 H2879 0.929 . S
C2872 C2871 1.383 . S
C2872 C2873 1.377 . S
C2873 H2857 0.930 . S
C2873 C2872 1.377 . S
C2873 C2874 1.379 . S
C2874 H2858 0.931 . S
C2874 C2868 1.383 . S
C2874 C2873 1.379 . S
H2875 C2869 0.959 . S
H2876 C2869 0.961 . S
H2877 C2869 0.960 . S
H2878 C2870 0.930 . S
H2879 C2871 0.929 . S
H2880 C2888 0.929 . S
H2881 C2890 0.930 1_655 S
H2882 C2892 0.930 . S
H2883 C2895 0.929 . S
H2884 C2898 0.930 . S
H2885 C2900 0.960 . S
H2886 C2900 0.960 . S
H2887 C2900 0.960 1_455 S
C2888 H2880 0.929 . S
C2888 C2889 1.377 . S
C2888 C2890 1.384 . S
C2889 C2888 1.377 . S
C2889 C2895 1.390 . S
C2890 H2881 0.930 1_455 S
C2890 C2888 1.384 . S
C2890 C2891 1.372 . S
C2891 C2890 1.372 . S
C2891 C2892 1.400 . S
C2891 C2896 1.490 . S
C2892 H2882 0.930 . S
C2892 C2891 1.400 . S
C2892 C2895 1.386 . S
H2893 C2909 0.930 . S
H2894 C2910 0.931 1_455 S
C2895 H2883 0.929 . S
C2895 C2889 1.390 . S
C2895 C2892 1.386 . S
C2896 C2891 1.490 . S
C2896 C2898 1.395 . S
C2896 C2899 1.355 1_455 S
H2897 C2903 0.930 . S
C2898 H2884 0.930 . S
C2898 C2896 1.395 . S
C2898 C2901 1.402 1_556 S
C2899 C2896 1.355 1_655 S
C2899 C2900 1.558 . S
C2899 C2903 1.417 1_556 S
C2900 H2885 0.960 . S
C2900 H2886 0.960 . S
C2900 H2887 0.960 1_655 S
C2900 C2899 1.558 . S
C2901 C2898 1.402 1_554 S
C2901 C2902 1.396 1_455 S
C2901 C2905 1.457 . S
C2902 C2901 1.396 1_655 S
C2902 C2903 1.385 . S
C2902 C2904 1.478 . S
C2903 H2897 0.930 . S
C2903 C2899 1.417 1_554 S
C2903 C2902 1.385 . S
C2904 C2902 1.478 . S
C2904 C2906 1.381 . S
C2904 C2910 1.383 . S
C2905 C2901 1.457 . S
C2905 H2911 1.016 . S
C2905 H2912 0.998 . S
C2905 H2913 0.910 1_455 S
C2906 C2904 1.381 . S
C2906 C2907 1.394 . S
C2906 H2914 0.930 . S
C2907 C2906 1.394 . S
C2907 C2908 1.383 . S
C2907 H2915 0.929 . S
C2908 C2907 1.383 . S
C2908 C2909 1.377 . S
C2909 H2893 0.930 . S
C2909 C2908 1.377 . S
C2909 C2910 1.379 . S
C2910 H2894 0.931 1_655 S
C2910 C2904 1.383 . S
C2910 C2909 1.379 . S
H2911 C2905 1.016 . S
H2912 C2905 0.998 . S
H2913 C2905 0.910 1_655 S
H2914 C2906 0.930 . S
H2915 C2907 0.929 . S
H2916 C2924 0.929 . S
H2917 C2926 0.930 . S
H2918 C2928 0.930 . S
H2919 C2931 0.929 . S
H2920 C2934 0.930 . S
H2921 C2936 0.960 1_556 S
H2922 C2936 0.960 . S
H2923 C2936 0.960 . S
C2924 H2916 0.929 . S
C2924 C2925 1.377 . S
C2924 C2926 1.384 . S
C2925 C2924 1.377 . S
C2925 C2931 1.390 . S
C2926 H2917 0.930 . S
C2926 C2924 1.384 . S
C2926 C2927 1.372 . S
C2927 C2926 1.372 . S
C2927 C2928 1.400 . S
C2927 C2932 1.490 . S
C2928 H2918 0.930 . S
C2928 C2927 1.400 . S
C2928 C2931 1.386 . S
H2929 C2945 0.930 . S
H2930 C2946 0.931 . S
C2931 H2919 0.929 . S
C2931 C2925 1.390 . S
C2931 C2928 1.386 . S
C2932 C2927 1.490 . S
C2932 C2934 1.395 . S
C2932 C2935 1.403 . S
H2933 C2939 0.930 . S
C2934 H2920 0.930 . S
C2934 C2932 1.395 . S
C2934 C2937 1.403 1_554 S
C2935 C2932 1.403 . S
C2935 C2936 1.524 . S
C2935 C2939 1.400 1_554 S
C2936 H2921 0.960 1_554 S
C2936 H2922 0.960 . S
C2936 H2923 0.960 . S
C2936 C2935 1.524 . S
C2937 C2934 1.403 1_556 S
C2937 C2938 1.392 . S
C2937 C2941 1.495 . S
C2938 C2937 1.392 . S
C2938 C2939 1.385 . S
C2938 C2940 1.478 . S
C2939 H2933 0.930 . S
C2939 C2935 1.400 1_556 S
C2939 C2938 1.385 . S
C2940 C2938 1.478 . S
C2940 C2942 1.381 . S
C2940 C2946 1.383 . S
C2941 C2937 1.495 . S
C2941 H2947 0.959 1_556 S
C2941 H2948 0.961 . S
C2941 H2949 0.960 . S
C2942 C2940 1.381 . S
C2942 C2943 1.394 . S
C2942 H2950 0.930 . S
C2943 C2942 1.394 . S
C2943 C2944 1.383 . S
C2943 H2951 0.929 . S
C2944 C2943 1.383 . S
C2944 C2945 1.377 . S
C2945 H2929 0.930 . S
C2945 C2944 1.377 . S
C2945 C2946 1.379 . S
C2946 H2930 0.931 . S
C2946 C2940 1.383 . S
C2946 C2945 1.379 . S
H2947 C2941 0.959 1_554 S
H2948 C2941 0.961 . S
H2949 C2941 0.960 . S
H2950 C2942 0.930 . S
H2951 C2943 0.929 . S
H2952 C2960 0.929 . S
H2953 C2962 0.930 . S
H2954 C2964 0.930 . S
H2955 C2967 0.929 . S
H2956 C2970 0.930 . S
H2957 C2972 0.960 1_556 S
H2958 C2972 0.960 . S
H2959 C2972 0.960 . S
C2960 H2952 0.929 . S
C2960 C2961 1.377 . S
C2960 C2962 1.384 . S
C2961 C2960 1.377 . S
C2961 C2967 1.390 . S
C2962 H2953 0.930 . S
C2962 C2960 1.384 . S
C2962 C2963 1.372 . S
C2963 C2962 1.372 . S
C2963 C2964 1.400 . S
C2963 C2968 1.490 . S
C2964 H2954 0.930 . S
C2964 C2963 1.400 . S
C2964 C2967 1.386 . S
H2965 C2981 0.930 . S
H2966 C2982 0.931 . S
C2967 H2955 0.929 . S
C2967 C2961 1.390 . S
C2967 C2964 1.386 . S
C2968 C2963 1.490 . S
C2968 C2970 1.395 1_545 S
C2968 C2971 1.403 . S
H2969 C2975 0.930 . S
C2970 H2956 0.930 . S
C2970 C2968 1.395 1_565 S
C2970 C2973 1.403 1_554 S
C2971 C2968 1.403 . S
C2971 C2972 1.524 . S
C2971 C2975 1.400 1_554 S
C2972 H2957 0.960 1_554 S
C2972 H2958 0.960 . S
C2972 H2959 0.960 . S
C2972 C2971 1.524 . S
C2973 C2970 1.403 1_556 S
C2973 C2974 1.392 . S
C2973 C2977 1.495 . S
C2974 C2973 1.392 . S
C2974 C2975 1.385 1_565 S
C2974 C2976 1.478 . S
C2975 H2969 0.930 . S
C2975 C2971 1.400 1_556 S
C2975 C2974 1.385 1_545 S
C2976 C2974 1.478 . S
C2976 C2978 1.381 . S
C2976 C2982 1.383 . S
C2977 C2973 1.495 . S
C2977 H2983 0.959 1_556 S
C2977 H2984 0.961 . S
C2977 H2985 0.960 . S
C2978 C2976 1.381 . S
C2978 C2979 1.394 . S
C2978 H2986 0.930 . S
C2979 C2978 1.394 . S
C2979 C2980 1.383 . S
C2979 H2987 0.929 . S
C2980 C2979 1.383 . S
C2980 C2981 1.377 . S
C2981 H2965 0.930 . S
C2981 C2980 1.377 . S
C2981 C2982 1.379 . S
C2982 H2966 0.931 . S
C2982 C2976 1.383 . S
C2982 C2981 1.379 . S
H2983 C2977 0.959 1_554 S
H2984 C2977 0.961 . S
H2985 C2977 0.960 . S
H2986 C2978 0.930 . S
H2987 C2979 0.929 . S
H2988 C2996 0.929 . S
H2989 C2998 0.930 . S
H2990 C3000 0.930 1_545 S
H2991 C3003 0.929 . S
H2992 C3006 0.930 . S
H2993 C3008 0.960 . S
H2994 C3008 0.960 . S
H2995 C3008 0.960 . S
C2996 H2988 0.929 . S
C2996 C2997 1.377 . S
C2996 C2998 1.384 . S
C2997 C2996 1.377 . S
C2997 C3003 1.390 . S
C2998 H2989 0.930 . S
C2998 C2996 1.384 . S
C2998 C2999 1.372 . S
C2999 C2998 1.372 . S
C2999 C3000 1.400 . S
C2999 C3004 1.490 . S
C3000 H2990 0.930 1_565 S
C3000 C2999 1.400 . S
C3000 C3003 1.386 . S
H3001 C3017 0.930 . S
H3002 C3018 0.931 . S
C3003 H2991 0.929 . S
C3003 C2997 1.390 . S
C3003 C3000 1.386 . S
C3004 C2999 1.490 . S
C3004 C3006 1.395 . S
C3004 C3007 1.403 1_565 S
H3005 C3011 0.930 . S
C3006 H2992 0.930 . S
C3006 C3004 1.395 . S
C3006 C3009 1.403 1_556 S
C3007 C3004 1.403 1_545 S
C3007 C3008 1.524 . S
C3007 C3011 1.400 1_556 S
C3008 H2993 0.960 . S
C3008 H2994 0.960 . S
C3008 H2995 0.960 . S
C3008 C3007 1.524 . S
C3009 C3006 1.403 1_554 S
C3009 C3010 1.392 1_565 S
C3009 C3013 1.495 . S
C3010 C3009 1.392 1_545 S
C3010 C3011 1.385 . S
C3010 C3012 1.478 . S
C3011 H3005 0.930 . S
C3011 C3007 1.400 1_554 S
C3011 C3010 1.385 . S
C3012 C3010 1.478 . S
C3012 C3014 1.381 . S
C3012 C3018 1.383 . S
C3013 C3009 1.495 . S
C3013 H3019 0.959 . S
C3013 H3020 0.961 . S
C3013 H3021 0.960 . S
C3014 C3012 1.381 . S
C3014 C3015 1.394 . S
C3014 H3022 0.930 1_545 S
C3015 C3014 1.394 . S
C3015 C3016 1.383 . S
C3015 H3023 0.929 . S
C3016 C3015 1.383 . S
C3016 C3017 1.377 . S
C3017 H3001 0.930 . S
C3017 C3016 1.377 . S
C3017 C3018 1.379 . S
C3018 H3002 0.931 . S
C3018 C3012 1.383 . S
C3018 C3017 1.379 . S
H3019 C3013 0.959 . S
H3020 C3013 0.961 . S
H3021 C3013 0.960 . S
H3022 C3014 0.930 1_565 S
H3023 C3015 0.929 . S
H3024 C3032 0.929 . S
H3025 C3034 0.930 . S
H3026 C3036 0.930 . S
H3027 C3039 0.929 . S
H3028 C3042 0.930 . S
H3029 C3044 0.960 . S
H3030 C3044 0.960 . S
H3031 C3044 0.960 . S
C3032 H3024 0.929 . S
C3032 C3033 1.377 . S
C3032 C3034 1.384 . S
C3033 C3032 1.377 . S
C3033 C3039 1.390 . S
C3034 H3025 0.930 . S
C3034 C3032 1.384 . S
C3034 C3035 1.372 . S
C3035 C3034 1.372 . S
C3035 C3036 1.400 . S
C3035 C3040 1.490 . S
C3036 H3026 0.930 . S
C3036 C3035 1.400 . S
C3036 C3039 1.386 . S
H3037 C3053 0.930 . S
H3038 C3054 0.931 . S
C3039 H3027 0.929 . S
C3039 C3033 1.390 . S
C3039 C3036 1.386 . S
C3040 C3035 1.490 . S
C3040 C3042 1.395 . S
C3040 C3043 1.403 1_455 S
H3041 C3047 0.930 . S
C3042 H3028 0.930 . S
C3042 C3040 1.395 . S
C3042 C3045 1.403 1_556 S
C3043 C3040 1.403 1_655 S
C3043 C3044 1.524 . S
C3043 C3047 1.400 1_556 S
C3044 H3029 0.960 . S
C3044 H3030 0.960 . S
C3044 H3031 0.960 . S
C3044 C3043 1.524 . S
C3045 C3042 1.403 1_554 S
C3045 C3046 1.392 1_455 S
C3045 C3049 1.495 . S
C3046 C3045 1.392 1_655 S
C3046 C3047 1.385 . S
C3046 C3048 1.478 . S
C3047 H3041 0.930 . S
C3047 C3043 1.400 1_554 S
C3047 C3046 1.385 . S
C3048 C3046 1.478 . S
C3048 C3050 1.381 . S
C3048 C3054 1.383 . S
C3049 C3045 1.495 . S
C3049 H3055 0.959 . S
C3049 H3056 0.961 . S
C3049 H3057 0.960 . S
C3050 C3048 1.381 . S
C3050 C3051 1.394 . S
C3050 H3058 0.930 . S
C3051 C3050 1.394 . S
C3051 C3052 1.383 . S
C3051 H3059 0.929 . S
C3052 C3051 1.383 . S
C3052 C3053 1.377 . S
C3053 H3037 0.930 . S
C3053 C3052 1.377 . S
C3053 C3054 1.379 . S
C3054 H3038 0.931 . S
C3054 C3048 1.383 . S
C3054 C3053 1.379 . S
H3055 C3049 0.959 . S
H3056 C3049 0.961 . S
H3057 C3049 0.960 . S
H3058 C3050 0.930 . S
H3059 C3051 0.929 . S
H3060 C3068 0.929 . S
H3061 C3070 0.930 . S
H3062 C3072 0.930 . S
H3063 C3075 0.929 . S
H3064 C3078 0.930 . S
H3065 C3080 0.960 . S
H3066 C3080 0.960 . S
H3067 C3080 0.960 . S
C3068 H3060 0.929 . S
C3068 C3069 1.377 . S
C3068 C3070 1.384 . S
C3069 C3068 1.377 . S
C3069 C3075 1.390 . S
C3070 H3061 0.930 . S
C3070 C3068 1.384 . S
C3070 C3071 1.372 . S
C3071 C3070 1.372 . S
C3071 C3072 1.400 . S
C3071 C3076 1.490 . S
C3072 H3062 0.930 . S
C3072 C3071 1.400 . S
C3072 C3075 1.386 . S
H3073 C3089 0.930 . S
H3074 C3090 0.931 . S
C3075 H3063 0.929 . S
C3075 C3069 1.390 . S
C3075 C3072 1.386 . S
C3076 C3071 1.490 . S
C3076 C3078 1.395 . S
C3076 C3079 1.403 . S
H3077 C3083 0.930 . S
C3078 H3064 0.930 . S
C3078 C3076 1.395 . S
C3078 C3081 1.403 1_554 S
C3079 C3076 1.403 . S
C3079 C3080 1.524 . S
C3079 C3083 1.400 1_554 S
C3080 H3065 0.960 . S
C3080 H3066 0.960 . S
C3080 H3067 0.960 . S
C3080 C3079 1.524 . S
C3081 C3078 1.403 1_556 S
C3081 C3082 1.392 . S
C3081 C3085 1.495 . S
C3082 C3081 1.392 . S
C3082 C3083 1.385 . S
C3082 C3084 1.478 . S
C3083 H3077 0.930 . S
C3083 C3079 1.400 1_556 S
C3083 C3082 1.385 . S
C3084 C3082 1.478 . S
C3084 C3086 1.381 . S
C3084 C3090 1.383 . S
C3085 C3081 1.495 . S
C3085 H3091 0.959 . S
C3085 H3092 0.961 . S
C3085 H3093 0.960 . S
C3086 C3084 1.381 . S
C3086 C3087 1.394 . S
C3086 H3094 0.930 . S
C3087 C3086 1.394 . S
C3087 C3088 1.383 . S
C3087 H3095 0.929 . S
C3088 C3087 1.383 . S
C3088 C3089 1.377 . S
C3089 H3073 0.930 . S
C3089 C3088 1.377 . S
C3089 C3090 1.379 . S
C3090 H3074 0.931 . S
C3090 C3084 1.383 . S
C3090 C3089 1.379 . S
H3091 C3085 0.959 . S
H3092 C3085 0.961 . S
H3093 C3085 0.960 . S
H3094 C3086 0.930 . S
H3095 C3087 0.929 . S
C513 C8 1.277 . S
C532 C162 1.282 . S
C549 C22 1.279 . S
C568 C134 1.256 . S
C585 C148 1.274 . S
C604 C36 1.245 . S
C621 C50 1.279 . S
C640 C106 1.265 . S
C657 C120 1.270 . S
C676 C64 1.257 . S
C693 C78 1.272 . S
C712 C92 1.295 . S
C729 C330 1.267 . S
C748 C176 1.282 . S
C765 C190 1.272 . S
C784 C302 1.295 . S
C801 C204 1.278 . S
C820 C316 1.250 . S
C837 C274 1.267 . S
C856 C218 1.288 . S
C873 C232 1.270 . S
C892 C288 1.297 . S
C909 C260 1.272 . S
C928 C246 1.297 . S
C945 C344 1.272 . S
C964 C498 1.248 . S
C981 C470 1.275 . S
C1000 C358 1.244 . S
C1017 C484 1.275 . S
C1036 C372 1.288 . S
C1053 C442 1.274 . S
C1072 C386 1.244 . S
C1089 C456 1.270 . S
C1108 C400 1.255 . S
C1125 C428 1.278 . S
C1144 C414 1.248 . S
C1161 C7 1.376 . S
C1180 C63 1.383 . S
C1197 C77 1.378 . S
C1216 C21 1.384 . S
C1233 C35 1.373 . S
C1252 C49 1.370 . S
C1269 C91 1.371 . S
C1288 C147 1.382 . S
C1305 C105 1.372 . S
C1324 C161 1.390 . S
C1341 C119 1.378 . S
C1360 C133 1.363 . S
C1377 C231 1.373 . S
C1396 C175 1.361 . S
C1413 C245 1.371 . S
C1432 C189 1.353 . S
C1449 C203 1.372 . S
C1468 C217 1.355 . S
C1485 C315 1.377 . S
C1504 C259 1.372 . S
C1521 C329 1.373 . S
C1540 C273 1.390 . S
C1557 C287 1.372 . S
C1576 C301 1.368 . S
C1593 C399 1.377 . S
C1612 C343 1.388 . S
C1629 C357 1.379 . S
C1648 C413 1.390 . S
C1665 C371 1.372 . S
C1684 C385 1.367 . S
C1701 C483 1.378 . S
C1720 C427 1.353 . S
C1737 C441 1.371 . S
C1756 C497 1.386 . S
C1773 C469 1.371 . S
C1792 C455 1.378 . S
C1809 C415 1.375 . S
C1828 C9 1.332 1_556 S
C1845 C23 1.354 1_556 S
C1864 C387 1.385 . S
C1881 C37 1.382 1_556 S
C1900 C401 1.394 . S
C1917 C51 1.357 1_554 S
C1936 C191 1.393 . S
C1953 C205 1.375 . S
C1972 C65 1.357 1_554 S
C1989 C177 1.382 . S
C2008 C79 1.370 1_554 S
C2025 C93 1.355 1_554 S
C2044 C331 1.393 . S
C2061 C107 1.356 1_554 S
C2080 C303 1.390 . S
C2097 C121 1.375 1_554 S
C2116 C317 1.382 . S
C2133 C443 1.376 . S
C2152 C135 1.337 1_556 S
C2169 C457 1.381 . S
C2188 C149 1.386 1_556 S
C2205 C163 1.355 1_556 S
C2224 C429 1.358 . S
C2241 C359 1.376 . S
C2260 C219 1.358 . S
C2277 C233 1.378 . S
C2296 C373 1.367 . S
C2313 C345 1.383 . S
C2332 C247 1.391 . S
C2349 C499 1.381 . S
C2368 C261 1.387 . S
C2385 C275 1.377 . S
C2404 C471 1.394 . S
C2421 C289 1.375 . S
C2440 C485 1.384 . S
C2457 C6 1.595 . S
C2476 C412 1.598 . S
C2493 C384 1.595 . S
C2512 C20 1.590 . S
C2529 C34 1.595 . S
C2548 C398 1.590 . S
C2565 C188 1.595 . S
C2584 C48 1.609 . S
C2601 C62 1.598 . S
C2620 C202 1.577 . S
C2637 C76 1.599 . S
C2656 C174 1.616 . S
C2673 C328 1.603 . S
C2692 C90 1.615 . S
C2709 C104 1.595 . S
C2728 C300 1.576 . S
C2745 C118 1.598 . S
C2764 C314 1.587 . S
C2781 C132 1.599 . S
C2800 C440 1.601 . S
C2817 C454 1.597 . S
C2836 C146 1.583 . S
C2853 C160 1.595 . S
C2872 C426 1.576 . S
C2889 C356 1.595 . S
C2908 C216 1.596 . S
C2925 C230 1.601 . S
C2944 C370 1.612 . S
C2961 C244 1.599 . S
C2980 C342 1.615 . S
C2997 C496 1.598 . S
C3016 C258 1.584 . S
C3033 C468 1.594 . S
C3052 C272 1.576 . S
C3069 C286 1.601 . S
C3088 C482 1.597 . S
