# Generated by pormake.
# Topology yfw, (5)-cn, num edge types: 1
# Building blocks:
#     Node 0, Type 0, BuildingBlock: XOMCOT_clean_sbu_0, # of connection points: 5
#     Node 1, Type 0, BuildingBlock: XOMCOT_clean_sbu_0, # of connection points: 5
#     Node 2, Type 0, BuildingBlock: XOMCOT_clean_sbu_0, # of connection points: 5
#     Node 3, Type 0, BuildingBlock: XOMCOT_clean_sbu_0, # of connection points: 5
#     Node 4, Type 0, BuildingBlock: XOMCOT_clean_sbu_0, # of connection points: 5
#     Node 5, Type 0, BuildingBlock: XOMCOT_clean_sbu_0, # of connection points: 5
#     Node 6, Type 0, BuildingBlock: XOMCOT_clean_sbu_0, # of connection points: 5
#     Node 7, Type 0, BuildingBlock: XOMCOT_clean_sbu_0, # of connection points: 5
#     Node 8, Type 0, BuildingBlock: XOMCOT_clean_sbu_0, # of connection points: 5
#     Node 9, Type 0, BuildingBlock: XOMCOT_clean_sbu_0, # of connection points: 5
#     Node 10, Type 0, BuildingBlock: XOMCOT_clean_sbu_0, # of connection points: 5
#     Node 11, Type 0, BuildingBlock: XOMCOT_clean_sbu_0, # of connection points: 5
#     Node 12, Type 0, BuildingBlock: XOMCOT_clean_sbu_0, # of connection points: 5
#     Node 13, Type 0, BuildingBlock: XOMCOT_clean_sbu_0, # of connection points: 5
#     Node 14, Type 0, BuildingBlock: XOMCOT_clean_sbu_0, # of connection points: 5
#     Node 15, Type 0, BuildingBlock: XOMCOT_clean_sbu_0, # of connection points: 5
#     Edge 16, Type (0, 0), BuildingBlock: TEMPAE_clean_linker_10, # of connection points: 2
#     Edge 17, Type (0, 0), BuildingBlock: TEMPAE_clean_linker_10, # of connection points: 2
#     Edge 18, Type (0, 0), BuildingBlock: TEMPAE_clean_linker_10, # of connection points: 2
#     Edge 19, Type (0, 0), BuildingBlock: TEMPAE_clean_linker_10, # of connection points: 2
#     Edge 20, Type (0, 0), BuildingBlock: TEMPAE_clean_linker_10, # of connection points: 2
#     Edge 21, Type (0, 0), BuildingBlock: TEMPAE_clean_linker_10, # of connection points: 2
#     Edge 22, Type (0, 0), BuildingBlock: TEMPAE_clean_linker_10, # of connection points: 2
#     Edge 23, Type (0, 0), BuildingBlock: TEMPAE_clean_linker_10, # of connection points: 2
#     Edge 24, Type (0, 0), BuildingBlock: TEMPAE_clean_linker_10, # of connection points: 2
#     Edge 25, Type (0, 0), BuildingBlock: TEMPAE_clean_linker_10, # of connection points: 2
#     Edge 26, Type (0, 0), BuildingBlock: TEMPAE_clean_linker_10, # of connection points: 2
#     Edge 27, Type (0, 0), BuildingBlock: TEMPAE_clean_linker_10, # of connection points: 2
#     Edge 28, Type (0, 0), BuildingBlock: TEMPAE_clean_linker_10, # of connection points: 2
#     Edge 29, Type (0, 0), BuildingBlock: TEMPAE_clean_linker_10, # of connection points: 2
#     Edge 30, Type (0, 0), BuildingBlock: TEMPAE_clean_linker_10, # of connection points: 2
#     Edge 31, Type (0, 0), BuildingBlock: TEMPAE_clean_linker_10, # of connection points: 2
#     Edge 32, Type (0, 0), BuildingBlock: TEMPAE_clean_linker_10, # of connection points: 2
#     Edge 33, Type (0, 0), BuildingBlock: TEMPAE_clean_linker_10, # of connection points: 2
#     Edge 34, Type (0, 0), BuildingBlock: TEMPAE_clean_linker_10, # of connection points: 2
#     Edge 35, Type (0, 0), BuildingBlock: TEMPAE_clean_linker_10, # of connection points: 2
#     Edge 36, Type (0, 0), BuildingBlock: TEMPAE_clean_linker_10, # of connection points: 2
#     Edge 37, Type (0, 0), BuildingBlock: TEMPAE_clean_linker_10, # of connection points: 2
#     Edge 38, Type (0, 0), BuildingBlock: TEMPAE_clean_linker_10, # of connection points: 2
#     Edge 39, Type (0, 0), BuildingBlock: TEMPAE_clean_linker_10, # of connection points: 2
#     Edge 40, Type (0, 0), BuildingBlock: TEMPAE_clean_linker_10, # of connection points: 2
#     Edge 41, Type (0, 0), BuildingBlock: TEMPAE_clean_linker_10, # of connection points: 2
#     Edge 42, Type (0, 0), BuildingBlock: TEMPAE_clean_linker_10, # of connection points: 2
#     Edge 43, Type (0, 0), BuildingBlock: TEMPAE_clean_linker_10, # of connection points: 2
#     Edge 44, Type (0, 0), BuildingBlock: TEMPAE_clean_linker_10, # of connection points: 2
#     Edge 45, Type (0, 0), BuildingBlock: TEMPAE_clean_linker_10, # of connection points: 2
#     Edge 46, Type (0, 0), BuildingBlock: TEMPAE_clean_linker_10, # of connection points: 2
#     Edge 47, Type (0, 0), BuildingBlock: TEMPAE_clean_linker_10, # of connection points: 2
#     Edge 48, Type (0, 0), BuildingBlock: TEMPAE_clean_linker_10, # of connection points: 2
#     Edge 49, Type (0, 0), BuildingBlock: TEMPAE_clean_linker_10, # of connection points: 2
#     Edge 50, Type (0, 0), BuildingBlock: TEMPAE_clean_linker_10, # of connection points: 2
#     Edge 51, Type (0, 0), BuildingBlock: TEMPAE_clean_linker_10, # of connection points: 2
#     Edge 52, Type (0, 0), BuildingBlock: TEMPAE_clean_linker_10, # of connection points: 2
#     Edge 53, Type (0, 0), BuildingBlock: TEMPAE_clean_linker_10, # of connection points: 2
#     Edge 54, Type (0, 0), BuildingBlock: TEMPAE_clean_linker_10, # of connection points: 2
#     Edge 55, Type (0, 0), BuildingBlock: TEMPAE_clean_linker_10, # of connection points: 2
# Relax obj value: 0.110
# Max RMSD: 0.162
# Mean RMSD: 0.162
data_MOF--net-yfw--node1-XOMCOT_clean_sbu_0--edge1-TEMPAE_clean_linker_10
_symmetry_space_group_name_H-M    P1
_symmetry_Int_Tables_number       1
_symmetry_cell_setting            triclinic
loop_
_symmetry_equiv_pos_as_xyz
'x, y, z'
_cell_length_a     58.249203
_cell_length_b     58.298733
_cell_length_c     24.909167
_cell_angle_alpha  90.057162
_cell_angle_beta   89.976216
_cell_angle_gamma 90.031905
loop_
_atom_site_label
_atom_site_type_symbol
_atom_site_fract_x
_atom_site_fract_y
_atom_site_fract_z
_atom_type_partial_charge
Co0 Co 0.14003 0.07374 0.98355 0.0
C1 C 0.1875 0.08789 0.95956 0.0
C2 C 0.18649 0.06129 0.01909 0.0
C3 C 0.20908 0.06609 0.00731 0.0
N4 N 0.17303 0.07501 0.98925 0.0
N5 N 0.20972 0.08272 0.96961 0.0
H6 H 0.18183 0.10001 0.9295 0.0
H7 H 0.18039 0.04815 0.04613 0.0
C8 C 0.12188 0.06141 0.09324 0.0
O9 O 0.10345 0.07401 0.08599 0.0
N10 N 0.10684 0.07222 0.97636 0.0
C11 C 0.09242 0.08849 0.95779 0.0
C12 C 0.07057 0.07965 0.9557 0.0
C13 C 0.09353 0.0535 0.98401 0.0
N14 N 0.07127 0.05769 0.97236 0.0
C15 C 0.13648 0.12266 0.96759 0.0
C16 C 0.13721 0.13457 0.07496 0.0
C17 C 0.13266 0.15153 0.03684 0.0
C18 C 0.13321 0.14564 0.98237 0.0
C19 C 0.14081 0.11201 0.05845 0.0
N20 N 0.13867 0.10592 0.00566 0.0
H21 H 0.13619 0.11818 0.92552 0.0
H22 H 0.14527 0.09967 0.08872 0.0
H23 H 0.09713 0.10552 0.94531 0.0
H24 H 0.10008 0.03711 0.99742 0.0
O25 O 0.14227 0.07662 0.90565 0.0
O26 O 0.14245 0.04408 0.95167 0.0
O27 O 0.13827 0.06172 0.05919 0.0
C28 C 0.14339 0.05424 0.90554 0.0
H29 H 0.22387 0.05768 0.02471 0.0
H30 H 0.05531 0.08874 0.94302 0.0
H31 H 0.13786 0.13874 0.11734 0.0
H32 H 0.13025 0.15846 0.95172 0.0
Co33 Co 0.93613 0.63795 0.24217 0.0
C34 C 0.92191 0.68487 0.21148 0.0
C35 C 0.95243 0.68484 0.25983 0.0
C36 C 0.94759 0.70707 0.24533 0.0
N37 N 0.93628 0.67099 0.23887 0.0
N38 N 0.92839 0.70714 0.2149 0.0
H39 H 0.90725 0.67871 0.18907 0.0
H40 H 0.96717 0.6791 0.28248 0.0
C41 C 0.94945 0.62517 0.35544 0.0
O42 O 0.93747 0.60614 0.3531 0.0
N43 N 0.93624 0.60445 0.24466 0.0
C44 C 0.91843 0.58986 0.25198 0.0
C45 C 0.92648 0.56771 0.25206 0.0
C46 C 0.95485 0.59071 0.24001 0.0
N47 N 0.94932 0.56831 0.24437 0.0
C48 C 0.88712 0.63413 0.22797 0.0
C49 C 0.87575 0.64085 0.33462 0.0
C50 C 0.85867 0.63357 0.29897 0.0
C51 C 0.86428 0.63121 0.2445 0.0
C52 C 0.89818 0.6439 0.31638 0.0
N53 N 0.90399 0.6389 0.26452 0.0
H54 H 0.89151 0.631 0.18648 0.0
H55 H 0.91078 0.64987 0.34471 0.0
H56 H 0.9008 0.59452 0.25886 0.0
H57 H 0.97222 0.59691 0.23509 0.0
O58 O 0.93325 0.63641 0.16398 0.0
O59 O 0.96579 0.63775 0.20976 0.0
O60 O 0.94839 0.63989 0.31761 0.0
C61 C 0.95568 0.63675 0.16357 0.0
H62 H 0.958 0.72191 0.25482 0.0
H63 H 0.91632 0.55232 0.25748 0.0
H64 H 0.87186 0.64376 0.37662 0.0
H65 H 0.85144 0.62596 0.21555 0.0
Co66 Co 0.371 0.43568 0.48676 0.0
C67 C 0.32366 0.42165 0.46247 0.0
C68 C 0.32446 0.45162 0.51261 0.0
C69 C 0.30198 0.44694 0.4994 0.0
N70 N 0.33796 0.43572 0.4895 0.0
N71 N 0.30148 0.42814 0.46762 0.0
H72 H 0.32952 0.40734 0.43845 0.0
H73 H 0.33057 0.46619 0.5354 0.0
C74 C 0.38721 0.44965 0.5971 0.0
O75 O 0.40456 0.43543 0.59214 0.0
N76 N 0.40434 0.43605 0.48255 0.0
C77 C 0.41875 0.41909 0.46742 0.0
C78 C 0.44064 0.42771 0.46392 0.0
C79 C 0.41777 0.45486 0.48707 0.0
N80 N 0.44001 0.4502 0.47616 0.0
C81 C 0.37477 0.38655 0.48402 0.0
C82 C 0.36737 0.37886 0.59199 0.0
C83 C 0.37436 0.36047 0.55955 0.0
C84 C 0.37715 0.36439 0.50444 0.0
C85 C 0.3652 0.40079 0.56977 0.0
N86 N 0.37078 0.40476 0.51725 0.0
H87 H 0.37713 0.38916 0.44149 0.0
H88 H 0.35913 0.41442 0.59528 0.0
H89 H 0.41406 0.40178 0.45743 0.0
H90 H 0.41123 0.47177 0.49646 0.0
O91 O 0.36986 0.42824 0.41068 0.0
O92 O 0.37016 0.46337 0.4443 0.0
O93 O 0.37202 0.45096 0.56007 0.0
C94 C 0.36964 0.45025 0.40207 0.0
H95 H 0.28728 0.45731 0.51022 0.0
H96 H 0.45582 0.41817 0.45252 0.0
H97 H 0.36427 0.37654 0.63451 0.0
H98 H 0.38149 0.35051 0.47736 0.0
Co99 Co 0.57541 0.87528 0.73422 0.0
C100 C 0.58823 0.82724 0.70767 0.0
C101 C 0.56139 0.82867 0.76616 0.0
C102 C 0.56489 0.80611 0.75227 0.0
N103 N 0.57654 0.84198 0.73953 0.0
N104 N 0.58174 0.80522 0.71523 0.0
H105 H 0.59967 0.83251 0.676 0.0
H106 H 0.54771 0.83492 0.79159 0.0
C107 C 0.5677 0.86758 0.85253 0.0
O108 O 0.58463 0.85271 0.8546 0.0
N109 N 0.57365 0.90812 0.72766 0.0
C110 C 0.58929 0.92209 0.70504 0.0
C111 C 0.58104 0.94419 0.70686 0.0
C112 C 0.55605 0.9217 0.74238 0.0
N113 N 0.56009 0.94394 0.73018 0.0
C114 C 0.62508 0.86967 0.73001 0.0
C115 C 0.63378 0.89581 0.82043 0.0
C116 C 0.65229 0.88587 0.79326 0.0
C117 C 0.64779 0.87265 0.7474 0.0
C118 C 0.61147 0.89214 0.80225 0.0
N119 N 0.60714 0.87857 0.75861 0.0
H120 H 0.62211 0.86097 0.6926 0.0
H121 H 0.59768 0.9009 0.82267 0.0
H122 H 0.60547 0.91656 0.68812 0.0
H123 H 0.54038 0.91522 0.76008 0.0
O124 O 0.57917 0.87316 0.65648 0.0
O125 O 0.54616 0.87245 0.70108 0.0
O126 O 0.56302 0.87798 0.80897 0.0
C127 C 0.55676 0.87176 0.65542 0.0
H128 H 0.55517 0.79162 0.76711 0.0
H129 H 0.58988 0.95922 0.692 0.0
H130 H 0.63651 0.90645 0.85555 0.0
H131 H 0.66173 0.86532 0.72425 0.0
Co132 Co 0.86919 0.07362 0.50104 0.0
C133 C 0.82269 0.08887 0.46762 0.0
C134 C 0.82182 0.05874 0.51713 0.0
C135 C 0.79975 0.06405 0.5022 0.0
N136 N 0.83615 0.07432 0.49568 0.0
N137 N 0.80021 0.08303 0.47112 0.0
H138 H 0.82929 0.10328 0.44502 0.0
H139 H 0.82712 0.04413 0.54079 0.0
C140 C 0.87963 0.06483 0.61754 0.0
O141 O 0.89729 0.07877 0.61601 0.0
N142 N 0.90278 0.07226 0.50616 0.0
C143 C 0.9181 0.08918 0.51654 0.0
C144 C 0.93987 0.08012 0.51758 0.0
C145 C 0.9158 0.05313 0.50111 0.0
N146 N 0.93838 0.05749 0.50769 0.0
C147 C 0.87751 0.12187 0.48505 0.0
C148 C 0.86109 0.13594 0.58384 0.0
C149 C 0.87273 0.15197 0.55172 0.0
C150 C 0.88018 0.14481 0.50064 0.0
C151 C 0.85923 0.11314 0.56715 0.0
N152 N 0.86883 0.10605 0.51998 0.0
H153 H 0.88414 0.1164 0.44657 0.0
H154 H 0.85028 0.10117 0.59269 0.0
H155 H 0.91416 0.10677 0.52582 0.0
H156 H 0.90897 0.03614 0.49419 0.0
O157 O 0.87169 0.07526 0.42298 0.0
O158 O 0.86877 0.04348 0.47122 0.0
O159 O 0.86615 0.06306 0.57746 0.0
C160 C 0.87073 0.05287 0.42434 0.0
H161 H 0.78463 0.05414 0.51213 0.0
H162 H 0.95559 0.08946 0.52537 0.0
H163 H 0.85381 0.1408 0.62219 0.0
H164 H 0.88905 0.15643 0.47387 0.0
Co165 Co 0.93603 0.3696 0.73784 0.0
C166 C 0.92243 0.32245 0.7073 0.0
C167 C 0.95306 0.32297 0.75532 0.0
C168 C 0.949 0.30076 0.73911 0.0
N169 N 0.93642 0.33652 0.73538 0.0
N170 N 0.92979 0.30047 0.70888 0.0
H171 H 0.90788 0.3283 0.68406 0.0
H172 H 0.96766 0.32897 0.77819 0.0
C173 C 0.94807 0.38327 0.85101 0.0
O174 O 0.93534 0.4018 0.8477 0.0
N175 N 0.93607 0.40305 0.73918 0.0
C176 C 0.9183 0.41766 0.73247 0.0
C177 C 0.92642 0.43979 0.73284 0.0
C178 C 0.95478 0.41671 0.74325 0.0
N179 N 0.94935 0.43919 0.73954 0.0
C180 C 0.88707 0.37185 0.72161 0.0
C181 C 0.87479 0.36539 0.82765 0.0
C182 C 0.85762 0.37121 0.79062 0.0
C183 C 0.86394 0.37365 0.73651 0.0
C184 C 0.89759 0.36365 0.81102 0.0
N185 N 0.90375 0.36846 0.75931 0.0
H186 H 0.8917 0.37449 0.68009 0.0
H187 H 0.91011 0.35863 0.84045 0.0
H188 H 0.90058 0.41305 0.72718 0.0
H189 H 0.97209 0.41028 0.74792 0.0
O190 O 0.93347 0.3706 0.65967 0.0
O191 O 0.96585 0.36995 0.7063 0.0
O192 O 0.94784 0.36831 0.81358 0.0
C193 C 0.9559 0.37041 0.65988 0.0
H194 H 0.95958 0.28599 0.74811 0.0
H195 H 0.91617 0.45516 0.72859 0.0
H196 H 0.87088 0.36295 0.86975 0.0
H197 H 0.85123 0.37738 0.70604 0.0
Co198 Co 0.64341 0.43646 0.99186 0.0
C199 C 0.69012 0.42298 0.95722 0.0
C200 C 0.69087 0.44052 0.03292 0.0
C201 C 0.71296 0.4347 0.01902 0.0
N202 N 0.67652 0.43322 0.9941 0.0
N203 N 0.71258 0.42376 0.97118 0.0
H204 H 0.68368 0.41538 0.9206 0.0
H205 H 0.68585 0.44941 0.06911 0.0
C206 C 0.62802 0.45138 0.10212 0.0
O207 O 0.60886 0.43961 0.09792 0.0
N208 N 0.61016 0.43978 0.98859 0.0
C209 C 0.5941 0.42332 0.98177 0.0
C210 C 0.57276 0.43336 0.98095 0.0
C211 C 0.59824 0.45967 0.99084 0.0
N212 N 0.57536 0.45619 0.9867 0.0
C213 C 0.63752 0.3877 0.9786 0.0
C214 C 0.641 0.37627 0.08588 0.0
C215 C 0.63576 0.35887 0.04889 0.0
C216 C 0.6346 0.36481 0.99431 0.0
C217 C 0.64396 0.39882 0.06845 0.0
N218 N 0.64088 0.40462 0.0158 0.0
H219 H 0.63622 0.39195 0.93654 0.0
H220 H 0.64884 0.41139 0.09791 0.0
H221 H 0.59724 0.40523 0.9775 0.0
H222 H 0.60612 0.4763 0.99667 0.0
O223 O 0.64366 0.43271 0.91395 0.0
O224 O 0.64682 0.46559 0.95789 0.0
O225 O 0.64371 0.44953 0.06662 0.0
C226 C 0.64592 0.45498 0.91226 0.0
H227 H 0.72806 0.43811 0.04298 0.0
H228 H 0.55656 0.42452 0.97577 0.0
H229 H 0.64236 0.3727 0.1284 0.0
H230 H 0.63133 0.35193 0.9639 0.0
Co231 Co 0.5763 0.14213 0.24663 0.0
C232 C 0.58778 0.18931 0.21159 0.0
C233 C 0.56755 0.18948 0.28355 0.0
C234 C 0.57217 0.21177 0.2693 0.0
N235 N 0.57734 0.17536 0.24742 0.0
N236 N 0.58479 0.21179 0.22375 0.0
H237 H 0.59705 0.18305 0.17696 0.0
H238 H 0.55765 0.18415 0.31799 0.0
C239 C 0.56366 0.12715 0.35886 0.0
O240 O 0.57666 0.10878 0.35582 0.0
N241 N 0.57499 0.10872 0.24481 0.0
C242 C 0.59141 0.09377 0.22929 0.0
C243 C 0.58234 0.072 0.22858 0.0
C244 C 0.55604 0.09568 0.25258 0.0
N245 N 0.56012 0.07321 0.2432 0.0
C246 C 0.62512 0.13792 0.23119 0.0
C247 C 0.6375 0.14479 0.33706 0.0
C248 C 0.65447 0.13832 0.30016 0.0
C249 C 0.64815 0.13551 0.24624 0.0
C250 C 0.61468 0.14672 0.32042 0.0
N251 N 0.60848 0.14183 0.26873 0.0
H252 H 0.62053 0.13552 0.18956 0.0
H253 H 0.60217 0.15212 0.34962 0.0
H254 H 0.60865 0.09799 0.21748 0.0
H255 H 0.53944 0.10262 0.26345 0.0
O256 O 0.57918 0.14228 0.16854 0.0
O257 O 0.54661 0.14312 0.21464 0.0
O258 O 0.56419 0.14231 0.32204 0.0
C259 C 0.55676 0.1427 0.16843 0.0
H260 H 0.56671 0.22675 0.29151 0.0
H261 H 0.5914 0.05648 0.2176 0.0
H262 H 0.64166 0.14761 0.37893 0.0
H263 H 0.66083 0.13118 0.21608 0.0
Co264 Co 0.63984 0.57939 0.49056 0.0
C265 C 0.68842 0.58684 0.45712 0.0
C266 C 0.68408 0.58876 0.54255 0.0
C267 C 0.70635 0.59467 0.53028 0.0
N268 N 0.67278 0.58382 0.49673 0.0
N269 N 0.70902 0.59347 0.47661 0.0
H270 H 0.68464 0.58552 0.41474 0.0
H271 H 0.6764 0.58921 0.58207 0.0
C272 C 0.62347 0.55915 0.59613 0.0
O273 O 0.60216 0.56526 0.58692 0.0
N274 N 0.6069 0.57569 0.48274 0.0
C275 C 0.59161 0.59247 0.47227 0.0
C276 C 0.57029 0.58281 0.46533 0.0
C277 C 0.59477 0.55595 0.48007 0.0
N278 N 0.57227 0.55989 0.47059 0.0
C279 C 0.64212 0.62846 0.48167 0.0
C280 C 0.62425 0.63834 0.58184 0.0
C281 C 0.63064 0.65655 0.54848 0.0
C282 C 0.6396 0.65143 0.49754 0.0
C283 C 0.62697 0.61582 0.56451 0.0
N284 N 0.63571 0.61096 0.51493 0.0
H285 H 0.6493 0.62468 0.44266 0.0
H286 H 0.62181 0.6026 0.59156 0.0
H287 H 0.59558 0.61052 0.46918 0.0
H288 H 0.60221 0.53911 0.48558 0.0
O289 O 0.64106 0.58348 0.4128 0.0
O290 O 0.64465 0.55051 0.45636 0.0
O291 O 0.63979 0.56609 0.56574 0.0
C292 C 0.64378 0.56123 0.4109 0.0
H293 H 0.71944 0.59997 0.55854 0.0
H294 H 0.55447 0.592 0.45785 0.0
H295 H 0.61682 0.64142 0.62107 0.0
H296 H 0.64487 0.66499 0.47052 0.0
Co297 Co 0.43515 0.1432 0.74552 0.0
C298 C 0.42028 0.19163 0.72592 0.0
C299 C 0.45361 0.18935 0.76185 0.0
C300 C 0.44911 0.212 0.75093 0.0
N301 N 0.43537 0.17654 0.74718 0.0
N302 N 0.42816 0.21345 0.7282 0.0
H303 H 0.40429 0.18689 0.70739 0.0
H304 H 0.46951 0.18255 0.77759 0.0
C305 C 0.44667 0.15523 0.85968 0.0
O306 O 0.43155 0.17195 0.85942 0.0
N307 N 0.43557 0.1102 0.74294 0.0
C308 C 0.41896 0.09631 0.72408 0.0
C309 C 0.42688 0.07409 0.72511 0.0
C310 C 0.45339 0.09641 0.75482 0.0
N311 N 0.44859 0.07418 0.74419 0.0
C312 C 0.38566 0.14694 0.73875 0.0
C313 C 0.37686 0.12939 0.83969 0.0
C314 C 0.35826 0.13575 0.80739 0.0
C315 C 0.36287 0.14441 0.75593 0.0
C316 C 0.39922 0.13208 0.82094 0.0
N317 N 0.40358 0.14167 0.77192 0.0
H318 H 0.38887 0.15239 0.69803 0.0
H319 H 0.41289 0.1253 0.8453 0.0
H320 H 0.40246 0.10196 0.7093 0.0
H321 H 0.46985 0.10271 0.76859 0.0
O322 O 0.43049 0.1438 0.66789 0.0
O323 O 0.46408 0.14409 0.70996 0.0
O324 O 0.44863 0.14188 0.81943 0.0
C325 C 0.4529 0.14422 0.66508 0.0
H326 H 0.4609 0.22615 0.75672 0.0
H327 H 0.41745 0.05911 0.71202 0.0
H328 H 0.37416 0.12149 0.87853 0.0
H329 H 0.34902 0.14895 0.72898 0.0
Co330 Co 0.86958 0.93247 0.00057 0.0
C331 C 0.8228 0.91944 0.96729 0.0
C332 C 0.82209 0.94195 0.03555 0.0
C333 C 0.79984 0.9367 0.02147 0.0
N334 N 0.83645 0.93101 0.00176 0.0
N335 N 0.80034 0.92263 0.97847 0.0
H336 H 0.82917 0.90899 0.93458 0.0
H337 H 0.82728 0.95339 0.0674 0.0
C338 C 0.88543 0.94335 0.11277 0.0
O339 O 0.90412 0.93111 0.106 0.0
N340 N 0.90304 0.93406 0.99812 0.0
C341 C 0.91835 0.91683 0.99205 0.0
C342 C 0.94009 0.92586 0.98955 0.0
C343 C 0.91594 0.95338 -0.0007 0.0
N344 N 0.93857 0.94882 0.99397 0.0
C345 C 0.87425 0.88395 0.98109 0.0
C346 C 0.86707 0.87013 0.08587 0.0
C347 C 0.87366 0.85369 0.04781 0.0
C348 C 0.87665 0.86074 0.99443 0.0
C349 C 0.86514 0.89312 0.07097 0.0
N350 N 0.87019 0.90003 0.0199 0.0
H351 H 0.87704 0.88919 0.94002 0.0
H352 H 0.8596 0.90518 0.10103 0.0
H353 H 0.91456 0.89882 0.98981 0.0
H354 H 0.90888 0.97046 0.00315 0.0
O355 O 0.86924 0.93077 0.92227 0.0
O356 O 0.86776 0.96259 0.97089 0.0
O357 O 0.86961 0.94332 0.0773 0.0
C358 C 0.86795 0.95312 0.92386 0.0
H359 H 0.78445 0.94336 0.04023 0.0
H360 H 0.95584 0.91619 0.98526 0.0
H361 H 0.86414 0.86543 0.12737 0.0
H362 H 0.88117 0.8485 0.96345 0.0
Co363 Co 0.07807 0.36853 0.23771 0.0
C364 C 0.08881 0.3218 0.198 0.0
C365 C 0.07749 0.32115 0.27999 0.0
C366 C 0.0835 0.29923 0.26509 0.0
N367 N 0.08085 0.33536 0.23796 0.0
N368 N 0.09054 0.2997 0.21361 0.0
H369 H 0.09399 0.32796 0.15888 0.0
H370 H 0.07164 0.32623 0.31938 0.0
C371 C 0.06598 0.38313 0.35002 0.0
O372 O 0.07873 0.40161 0.34558 0.0
N373 N 0.07532 0.4019 0.23687 0.0
C374 C 0.09209 0.41797 0.23796 0.0
C375 C 0.08228 0.43937 0.2389 0.0
C376 C 0.05551 0.41401 0.23657 0.0
N377 N 0.05935 0.43683 0.23796 0.0
C378 C 0.12656 0.37558 0.22196 0.0
C379 C 0.13942 0.36703 0.32688 0.0
C380 C 0.15604 0.37488 0.29065 0.0
C381 C 0.14952 0.37861 0.23714 0.0
C382 C 0.1167 0.36451 0.31022 0.0
N383 N 0.11022 0.37016 0.25921 0.0
H384 H 0.12167 0.37895 0.1809 0.0
H385 H 0.10448 0.35806 0.33889 0.0
H386 H 0.11026 0.41491 0.23978 0.0
H387 H 0.03859 0.40633 0.23708 0.0
O388 O 0.08064 0.36913 0.15952 0.0
O389 O 0.04839 0.36588 0.20606 0.0
O390 O 0.06617 0.3678 0.31344 0.0
C391 C 0.05829 0.36719 0.15965 0.0
H392 H 0.08279 0.28408 0.29015 0.0
H393 H 0.09132 0.4556 0.24033 0.0
H394 H 0.14373 0.36354 0.36837 0.0
H395 H 0.16196 0.38414 0.20753 0.0
Co396 Co 0.3746 0.5789 -0.00068 0.0
C397 C 0.32766 0.58637 0.95667 0.0
C398 C 0.32759 0.57149 0.03554 0.0
C399 C 0.30524 0.57482 0.01964 0.0
N400 N 0.34157 0.57865 0.99605 0.0
N401 N 0.3052 0.58414 0.96995 0.0
H402 H 0.3339 0.59348 0.91932 0.0
H403 H 0.33329 0.56474 0.07369 0.0
C404 C 0.37985 0.54408 0.07477 0.0
O405 O 0.38483 0.56296 0.10115 0.0
N406 N 0.40789 0.57917 0.00444 0.0
C407 C 0.42027 0.59387 0.03462 0.0
C408 C 0.44279 0.5868 0.03528 0.0
C409 C 0.42311 0.5632 0.98756 0.0
N410 N 0.44454 0.56744 0.00589 0.0
C411 C 0.38589 0.62456 0.96085 0.0
C412 C 0.36695 0.64566 0.05031 0.0
C413 C 0.37982 0.65899 0.01434 0.0
C414 C 0.38897 0.64824 0.96842 0.0
C415 C 0.36451 0.62219 0.04155 0.0
N416 N 0.37428 0.61195 0.9981 0.0
H417 H 0.39393 0.61614 0.92702 0.0
H418 H 0.35587 0.61181 0.0713 0.0
H419 H 0.41326 0.6082 0.0568 0.0
H420 H 0.41849 0.54797 0.96528 0.0
O421 O 0.37652 0.57428 0.91983 0.0
O422 O 0.37447 0.54595 0.97317 0.0
O423 O 0.37477 0.5456 0.0244 0.0
C424 C 0.37561 0.55262 0.9239 0.0
H425 H 0.29021 0.57121 0.04373 0.0
H426 H 0.45666 0.59494 0.05705 0.0
H427 H 0.35998 0.65299 0.0868 0.0
H428 H 0.39899 0.65788 0.93958 0.0
Co429 Co 0.43513 0.87238 0.23374 0.0
C430 C 0.42314 0.82615 0.19351 0.0
C431 C 0.45005 0.82491 0.25238 0.0
C432 C 0.44593 0.80298 0.23423 0.0
N433 N 0.43565 0.83937 0.22715 0.0
N434 N 0.42907 0.80377 0.19713 0.0
H435 H 0.41015 0.83283 0.1667 0.0
H436 H 0.46312 0.82997 0.28075 0.0
C437 C 0.4455 0.88344 0.34902 0.0
O438 O 0.43159 0.90116 0.3477 0.0
N439 N 0.43522 0.90584 0.23944 0.0
C440 C 0.41785 0.92093 0.2327 0.0
C441 C 0.42637 0.94287 0.2359 0.0
C442 C 0.45409 0.91908 0.24661 0.0
N443 N 0.44916 0.94171 0.24446 0.0
C444 C 0.38613 0.87647 0.21941 0.0
C445 C 0.37408 0.86276 0.32167 0.0
C446 C 0.35697 0.87205 0.28847 0.0
C447 C 0.36318 0.87808 0.23576 0.0
C448 C 0.39684 0.86194 0.30405 0.0
N449 N 0.40289 0.87043 0.25495 0.0
H450 H 0.39068 0.88171 0.17919 0.0
H451 H 0.40949 0.85454 0.33041 0.0
H452 H 0.40017 0.91691 0.22513 0.0
H453 H 0.47121 0.91226 0.25182 0.0
O454 O 0.43252 0.87497 0.15589 0.0
O455 O 0.46497 0.8738 0.2025 0.0
O456 O 0.44667 0.86965 0.30935 0.0
C457 C 0.45494 0.87541 0.15631 0.0
H458 H 0.45523 0.78774 0.24608 0.0
H459 H 0.41651 0.95851 0.23187 0.0
H460 H 0.37006 0.85644 0.36144 0.0
H461 H 0.35072 0.88501 0.20795 0.0
Co462 Co 0.13919 0.93269 0.48291 0.0
C463 C 0.1857 0.91871 0.44664 0.0
C464 C 0.18611 0.94974 0.49333 0.0
C465 C 0.20797 0.94562 0.47486 0.0
N466 N 0.17218 0.93293 0.4756 0.0
N467 N 0.20768 0.92616 0.44551 0.0
H468 H 0.17943 0.90388 0.42497 0.0
H469 H 0.18057 0.96445 0.51642 0.0
C470 C 0.12898 0.94357 0.59852 0.0
O471 O 0.11069 0.93043 0.59764 0.0
N472 N 0.10574 0.93307 0.48964 0.0
C473 C 0.09081 0.91546 0.49554 0.0
C474 C 0.06885 0.92402 0.49899 0.0
C475 C 0.09239 0.95207 0.48948 0.0
N476 N 0.0699 0.947 0.49495 0.0
C477 C 0.13421 0.88393 0.46719 0.0
C478 C 0.14649 0.87131 0.5702 0.0
C479 C 0.13757 0.85448 0.5357 0.0
C480 C 0.13221 0.86093 0.48281 0.0
C481 C 0.14827 0.89401 0.55291 0.0
N482 N 0.14062 0.90038 0.5033 0.0
H483 H 0.12914 0.88877 0.42706 0.0
H484 H 0.1555 0.90639 0.58021 0.0
H485 H 0.09511 0.89757 0.49886 0.0
H486 H 0.09897 0.96938 0.48669 0.0
O487 O 0.13595 0.93045 0.40497 0.0
O488 O 0.13829 0.96259 0.45209 0.0
O489 O 0.1427 0.94409 0.55863 0.0
C490 C 0.13609 0.95287 0.40564 0.0
H491 H 0.22291 0.95627 0.48184 0.0
H492 H 0.05329 0.91407 0.50386 0.0
H493 H 0.15126 0.86727 0.61111 0.0
H494 H 0.12599 0.84844 0.45408 0.0
Co495 Co 0.07879 0.6393 0.7418 0.0
C496 C 0.08991 0.68667 0.70704 0.0
C497 C 0.07833 0.686 0.78873 0.0
C498 C 0.08367 0.70827 0.77526 0.0
N499 N 0.08213 0.67243 0.74584 0.0
N500 N 0.0909 0.70876 0.72374 0.0
H501 H 0.09469 0.68099 0.6673 0.0
H502 H 0.07249 0.68029 0.82763 0.0
C503 C 0.06495 0.62262 0.85163 0.0
O504 O 0.07716 0.60385 0.84567 0.0
N505 N 0.07555 0.60616 0.73636 0.0
C506 C 0.09137 0.59086 0.71945 0.0
C507 C 0.08145 0.56953 0.71662 0.0
C508 C 0.05604 0.59383 0.74262 0.0
N509 N 0.05926 0.57139 0.73122 0.0
C510 C 0.12757 0.63359 0.72687 0.0
C511 C 0.13957 0.63631 0.83394 0.0
C512 C 0.15678 0.63137 0.79628 0.0
C513 C 0.15057 0.63055 0.74184 0.0
C514 C 0.1169 0.6393 0.81725 0.0
N515 N 0.11082 0.63656 0.76465 0.0
H516 H 0.12314 0.63281 0.68482 0.0
H517 H 0.1045 0.64401 0.84724 0.0
H518 H 0.10881 0.59465 0.70836 0.0
H519 H 0.03975 0.60123 0.75433 0.0
O520 O 0.08198 0.64019 0.66373 0.0
O521 O 0.04939 0.64294 0.70916 0.0
O522 O 0.06614 0.63874 0.81707 0.0
C523 C 0.05966 0.6424 0.6631 0.0
H524 H 0.08273 0.72285 0.80206 0.0
H525 H 0.08993 0.55382 0.70459 0.0
H526 H 0.1434 0.63746 0.87639 0.0
H527 H 0.16333 0.62755 0.711 0.0
C528 C 0.95653 0.98548 0.02086 0.0
C529 C 0.95736 0.96488 0.99185 0.0
C530 C 0.97503 1.00097 0.01975 0.0
C531 C 0.9947 0.99577 0.98855 0.0
C532 C 0.99555 0.97505 0.95899 0.0
C533 C 0.9769 0.95987 0.96108 0.0
C534 C 0.97356 0.02286 0.05198 0.0
C535 C 0.01609 0.96898 0.92477 0.0
C536 C 0.03348 0.04403 0.94135 0.0
C537 C 0.05214 0.04213 0.97663 0.0
C538 C 0.01456 0.02924 0.94525 0.0
C539 C 0.01423 0.01217 0.98558 0.0
C540 C 0.03295 0.01025 0.02162 0.0
C541 C 0.05173 0.02521 0.01656 0.0
C542 C 0.99505 0.03171 0.90572 0.0
C543 C 0.03317 0.99233 0.06534 0.0
H544 H 0.94158 0.98929 0.04514 0.0
H545 H 0.97748 0.94416 0.93789 0.0
H546 H 0.98815 0.02386 0.08053 0.0
H547 H 0.9749 0.03789 0.02487 0.0
H548 H 0.95726 0.02415 0.07497 0.0
H549 H 0.01414 0.95207 0.90468 0.0
H550 H 0.0187 0.98228 0.89352 0.0
H551 H 0.03183 0.96859 0.94982 0.0
H552 H 0.03384 0.0569 0.91003 0.0
H553 H 0.06596 0.02391 0.04438 0.0
H554 H 0.97865 0.03438 0.92747 0.0
H555 H 0.99324 0.01571 0.88193 0.0
H556 H 0.99769 0.04626 0.87762 0.0
H557 H 0.01761 0.99402 0.09074 0.0
H558 H 0.04858 0.99369 0.09141 0.0
H559 H 0.03278 0.97494 0.04719 0.0
C560 C 0.98331 0.54882 0.20724 0.0
C561 C 0.96465 0.549 0.2427 0.0
C562 C 0.99825 0.52996 0.20489 0.0
C563 C 0.99464 0.51107 0.23964 0.0
C564 C 0.97583 0.51123 0.27565 0.0
C565 C 0.96095 0.53013 0.2764 0.0
C566 C 0.01791 0.53027 0.16538 0.0
C567 C 0.97169 0.49163 0.31409 0.0
C568 C 0.02283 0.4538 0.20793 0.0
C569 C 0.04264 0.45494 0.23964 0.0
C570 C 0.00706 0.47203 0.20718 0.0
C571 C 0.01105 0.49155 0.23983 0.0
C572 C 0.0308 0.49248 0.27284 0.0
C573 C 0.04646 0.47425 0.27194 0.0
C574 C 0.98637 0.47057 0.17085 0.0
C575 C 0.03542 0.51276 0.30907 0.0
H576 H 0.98598 0.56332 0.18077 0.0
H577 H 0.94666 0.5304 0.30424 0.0
H578 H 0.03448 0.52983 0.18728 0.0
H579 H 0.01724 0.51479 0.13947 0.0
H580 H 0.01765 0.54575 0.13938 0.0
H581 H 0.9561 0.49429 0.33905 0.0
H582 H 0.96977 0.47533 0.29157 0.0
H583 H 0.9867 0.48965 0.34111 0.0
H584 H 0.02005 0.43893 0.18263 0.0
H585 H 0.06166 0.47494 0.29693 0.0
H586 H 0.98644 0.48518 0.14231 0.0
H587 H 0.9704 0.47187 0.1949 0.0
H588 H 0.98591 0.45431 0.14755 0.0
H589 H 0.03726 0.52857 0.28471 0.0
H590 H 0.05124 0.51049 0.3334 0.0
H591 H 0.0207 0.51543 0.33667 0.0
C592 C 0.53447 0.54727 0.43744 0.0
C593 C 0.55384 0.54343 0.46958 0.0
C594 C 0.5158 0.53207 0.43811 0.0
C595 C 0.51647 0.51261 0.472 0.0
C596 C 0.53607 0.50851 0.50421 0.0
C597 C 0.55457 0.52394 0.50246 0.0
C598 C 0.49532 0.53689 0.40271 0.0
C599 C 0.53737 0.48799 0.54101 0.0
C600 C 0.45967 0.48485 0.50995 0.0
C601 C 0.45903 0.466 0.475 0.0
C602 C 0.47834 0.5001 0.50971 0.0
C603 C 0.4967 0.49647 0.47337 0.0
C604 C 0.49608 0.47755 0.43779 0.0
C605 C 0.47727 0.46254 0.43911 0.0
C606 C 0.47847 0.52003 0.54845 0.0
C607 C 0.51521 0.47323 0.3981 0.0
H608 H 0.53397 0.56216 0.41151 0.0
H609 H 0.56936 0.5211 0.52792 0.0
H610 H 0.49231 0.52222 0.37518 0.0
H611 H 0.47967 0.53885 0.42771 0.0
H612 H 0.49758 0.55268 0.37833 0.0
H613 H 0.55384 0.48725 0.56341 0.0
H614 H 0.52304 0.48853 0.57034 0.0
H615 H 0.53545 0.47195 0.51743 0.0
H616 H 0.44573 0.48742 0.53812 0.0
H617 H 0.4767 0.44823 0.41141 0.0
H618 H 0.47932 0.53642 0.52595 0.0
H619 H 0.49395 0.51919 0.57432 0.0
H620 H 0.463 0.52029 0.57453 0.0
H621 H 0.51708 0.48818 0.37092 0.0
H622 H 0.51215 0.45766 0.37336 0.0
H623 H 0.53174 0.47117 0.41966 0.0
C624 C 0.54696 0.98287 0.70575 0.0
C625 C 0.54469 0.96311 0.73747 0.0
C626 C 0.53159 1.00124 0.7107 0.0
C627 C 0.51328 0.99977 0.74788 0.0
C628 C 0.51107 0.98012 0.78079 0.0
C629 C 0.52687 0.96208 0.7754 0.0
C630 C 0.5346 0.02199 0.67506 0.0
C631 C 0.4917 0.97791 0.82075 0.0
C632 C 0.4828 0.0554 0.78311 0.0
C633 C 0.4641 0.05494 0.7476 0.0
C634 C 0.49871 0.03732 0.78461 0.0
C635 C 0.49578 0.0183 0.74993 0.0
C636 C 0.47665 0.01745 0.71501 0.0
C637 C 0.46111 0.03579 0.71415 0.0
C638 C 0.51894 0.03884 0.82234 0.0
C639 C 0.47291 0.99742 0.67746 0.0
H640 H 0.56041 0.98384 0.67588 0.0
H641 H 0.52516 0.94714 0.80086 0.0
H642 H 0.51976 0.02345 0.64738 0.0
H643 H 0.53506 0.03785 0.69968 0.0
H644 H 0.55057 0.0211 0.65075 0.0
H645 H 0.49302 0.96202 0.84514 0.0
H646 H 0.49152 0.9929 0.84818 0.0
H647 H 0.47502 0.97773 0.79922 0.0
H648 H 0.48506 0.06993 0.80969 0.0
H649 H 0.44696 0.03536 0.68603 0.0
H650 H 0.53511 0.03947 0.79886 0.0
H651 H 0.51972 0.02334 0.84807 0.0
H652 H 0.51813 0.05425 0.84855 0.0
H653 H 0.48718 0.99651 0.64802 0.0
H654 H 0.45647 0.99877 0.65507 0.0
H655 H 0.47291 0.9811 0.70031 0.0
C656 C 0.0318 0.95837 0.52888 0.0
C657 C 0.05093 0.96282 0.49634 0.0
C658 C 0.01317 0.9736 0.53068 0.0
C659 C 0.01354 0.99363 0.49857 0.0
C660 C 0.03273 0.99811 0.46523 0.0
C661 C 0.05128 0.98273 0.46484 0.0
C662 C 0.9932 0.9684 0.56739 0.0
C663 C 0.03365 0.01912 0.42988 0.0
C664 C 0.95653 0.0229 0.46952 0.0
C665 C 0.95705 0.04133 0.50568 0.0
C666 C 0.97489 0.00734 0.46635 0.0
C667 C 0.99405 0.01012 0.50077 0.0
C668 C 0.99454 0.02858 0.53772 0.0
C669 C 0.9761 0.04404 0.53946 0.0
C670 C 0.97386 0.98805 0.42592 0.0
C671 C 0.01448 0.03193 0.57566 0.0
H672 H 0.03162 0.94313 0.55372 0.0
H673 H 0.06592 0.98604 0.43914 0.0
H674 H 0.99101 0.98253 0.59683 0.0
H675 H 0.97709 0.96727 0.5438 0.0
H676 H 0.99555 0.95208 0.5897 0.0
H677 H 0.04951 0.01975 0.40512 0.0
H678 H 0.01855 0.01942 0.40275 0.0
H679 H 0.03287 0.03483 0.45495 0.0
H680 H 0.94193 0.02094 0.44295 0.0
H681 H 0.9764 0.0581 0.56791 0.0
H682 H 0.97471 0.97129 0.44684 0.0
H683 H 0.98889 0.98899 0.39862 0.0
H684 H 0.95794 0.98855 0.40139 0.0
H685 H 0.01668 0.01645 0.601 0.0
H686 H 0.01212 0.04704 0.60232 0.0
H687 H 0.0306 0.03425 0.55254 0.0
C688 C 0.95947 0.47847 0.71121 0.0
C689 C 0.96474 0.45859 0.74043 0.0
C690 C 0.97429 0.49744 0.71109 0.0
C691 C 0.9949 0.49659 0.7411 0.0
C692 C 1.00021 0.47669 0.77125 0.0
C693 C 0.9851 0.45789 0.77039 0.0
C694 C 0.96811 0.51823 0.67796 0.0
C695 C 0.02196 0.47519 0.80398 0.0
C696 C 0.04414 0.53478 0.69665 0.0
C697 C 0.04266 0.55308 0.73308 0.0
C698 C 0.0287 0.51635 0.69885 0.0
C699 C 0.01138 0.5161 0.73873 0.0
C700 C 0.0097 0.53458 0.77553 0.0
C701 C 0.0253 0.55293 0.77208 0.0
C702 C 0.03091 0.49715 0.6584 0.0
C703 C 0.99154 0.53486 0.81879 0.0
H704 H 0.94394 0.47901 0.68738 0.0
H705 H 0.9891 0.44271 0.79359 0.0
H706 H 0.96797 0.5338 0.70357 0.0
H707 H 0.98126 0.52094 0.64633 0.0
H708 H 0.95106 0.51648 0.6584 0.0
H709 H 0.02308 0.45893 0.82708 0.0
H710 H 0.03711 0.47637 0.77712 0.0
H711 H 0.02293 0.4898 0.83245 0.0
H712 H 0.05731 0.535 0.66595 0.0
H713 H 0.02428 0.56692 0.80064 0.0
H714 H 0.01476 0.49547 0.63513 0.0
H715 H 0.03374 0.48062 0.67941 0.0
H716 H 0.0453 0.49998 0.62987 0.0
H717 H 0.97422 0.53424 0.80033 0.0
H718 H 0.99268 0.55037 0.84461 0.0
H719 H 0.99326 0.51942 0.8445 0.0
C720 C 0.53583 0.46731 0.01048 0.0
C721 C 0.55728 0.47305 0.9887 0.0
C722 C 0.51783 0.48328 0.01202 0.0
C723 C 0.52129 0.50555 0.99092 0.0
C724 C 0.54291 0.51149 0.96883 0.0
C725 C 0.5607 0.49519 0.96825 0.0
C726 C 0.49515 0.47633 0.03652 0.0
C727 C 0.5472 0.53501 0.94561 0.0
C728 C 0.46721 0.53881 0.95533 0.0
C729 C 0.46443 0.55283 0.00065 0.0
C730 C 0.48597 0.52378 0.95089 0.0
C731 C 0.5023 0.52265 0.99295 0.0
C732 C 0.49979 0.53703 0.0384 0.0
C733 C 0.48093 0.55194 0.04165 0.0
C734 C 0.4881 0.50881 0.90165 0.0
C735 C 0.51667 0.53618 0.08437 0.0
H736 H 0.5332 0.45035 0.02705 0.0
H737 H 0.57717 0.49961 0.95086 0.0
H738 H 0.49097 0.48779 0.07075 0.0
H739 H 0.4812 0.47822 0.00653 0.0
H740 H 0.49525 0.45832 0.05108 0.0
H741 H 0.56484 0.53681 0.92917 0.0
H742 H 0.5347 0.53853 0.91306 0.0
H743 H 0.54461 0.54828 0.977 0.0
H744 H 0.45468 0.5396 0.92326 0.0
H745 H 0.47876 0.56243 0.07718 0.0
H746 H 0.48679 0.49049 0.91328 0.0
H747 H 0.50518 0.51127 0.88276 0.0
H748 H 0.47461 0.51254 0.87138 0.0
H749 H 0.51623 0.51895 0.10325 0.0
H750 H 0.51289 0.54924 0.11566 0.0
H751 H 0.53438 0.53898 0.06936 0.0
C752 C 0.48489 0.95946 0.27847 0.0
C753 C 0.46496 0.96075 0.24707 0.0
C754 C 0.50042 0.97793 0.28087 0.0
C755 C 0.496 0.99804 0.25069 0.0
C756 C 0.47586 0.99944 0.21912 0.0
C757 C 0.46059 0.98084 0.21784 0.0
C758 C 0.52162 0.97585 0.31534 0.0
C759 C 0.47065 0.02044 0.18579 0.0
C760 C 0.52629 0.05428 0.28354 0.0
C761 C 0.54402 0.05444 0.24548 0.0
C762 C 0.51077 0.03583 0.28649 0.0
C763 C 0.51289 0.01727 0.25003 0.0
C764 C 0.53073 0.01741 0.21143 0.0
C765 C 0.54611 0.03593 0.2098 0.0
C766 C 0.4921 0.0362 0.32851 0.0
C767 C 0.53339 0.99815 0.17129 0.0
H768 H 0.48821 0.94409 0.30159 0.0
H769 H 0.44541 0.98183 0.19285 0.0
H770 H 0.53719 0.97676 0.28976 0.0
H771 H 0.52249 0.99037 0.34409 0.0
H772 H 0.52202 0.95951 0.33825 0.0
H773 H 0.45393 0.01907 0.16456 0.0
H774 H 0.47032 0.03593 0.21165 0.0
H775 H 0.48439 0.02301 0.15551 0.0
H776 H 0.52479 0.06843 0.31154 0.0
H777 H 0.55957 0.03612 0.17981 0.0
H778 H 0.49312 0.02055 0.3537 0.0
H779 H 0.47502 0.03614 0.30883 0.0
H780 H 0.49325 0.0515 0.35501 0.0
H781 H 0.53546 0.98157 0.19253 0.0
H782 H 0.5484 1.0007 0.14439 0.0
H783 H 0.5177 0.99681 0.14625 0.0
C784 C 0.13422 0.99127 0.36321 0.0
C785 C 0.13332 0.96733 0.35734 0.0
C786 C 0.13148 0.00588 0.31925 0.0
C787 C 0.12769 0.9964 0.26781 0.0
C788 C 0.12656 0.97224 0.26137 0.0
C789 C 0.12944 0.95792 0.30639 0.0
C790 C 0.13291 0.03152 0.32791 0.0
C791 C 0.12246 0.9616 0.20698 0.0
C792 C 0.10334 0.03826 0.16591 0.0
C793 C 0.12326 0.04527 0.13886 0.0
C794 C 0.10436 0.02165 0.20666 0.0
C795 C 0.12583 0.01203 0.22092 0.0
C796 C 0.14596 0.01899 0.19359 0.0
C797 C 0.14441 0.03548 0.15286 0.0
C798 C 0.08253 0.01459 0.23488 0.0
C799 C 0.16922 0.00938 0.20811 0.0
H800 H 0.13716 0.99877 0.40245 0.0
H801 H 0.12862 0.93945 0.30172 0.0
H802 H 0.14731 0.03873 0.30412 0.0
H803 H 0.11692 0.03988 0.31373 0.0
H804 H 0.13556 0.03611 0.37075 0.0
H805 H 0.12128 0.9426 0.20896 0.0
H806 H 0.10635 0.9684 0.1894 0.0
H807 H 0.13663 0.9663 0.1793 0.0
H808 H 0.08688 0.04548 0.15467 0.0
H809 H 0.15988 0.0408 0.13214 0.0
H810 H 0.08329 0.01989 0.27764 0.0
H811 H 0.08068 0.99566 0.2341 0.0
H812 H 0.06704 0.02238 0.21635 0.0
H813 H 0.17368 0.01439 0.24981 0.0
H814 H 0.18299 0.01559 0.18087 0.0
H815 H 0.16884 0.99037 0.20663 0.0
C816 C 0.0232 0.65123 0.61656 0.0
C817 C 0.04582 0.64311 0.61356 0.0
C818 C 0.00823 0.64935 0.5729 0.0
C819 C 0.01604 0.63902 0.52492 0.0
C820 C 0.03918 0.63164 0.52071 0.0
C821 C 0.0539 0.63385 0.56523 0.0
C822 C 0.98379 0.65764 0.57895 0.0
C823 C 0.04808 0.62062 0.46998 0.0
C824 C 0.96948 0.61201 0.43891 0.0
C825 C 0.96586 0.629 0.40002 0.0
C826 C 0.98616 0.61483 0.47906 0.0
C827 C 0.99953 0.63513 0.48034 0.0
C828 C 0.99598 0.65234 0.44125 0.0
C829 C 0.97917 0.64909 0.40167 0.0
C830 C 0.98935 0.59616 0.52038 0.0
C831 C 0.00981 0.67426 0.4415 0.0
H832 H 0.01693 0.6586 0.65376 0.0
H833 H 0.07135 0.62747 0.56295 0.0
H834 H 0.97939 0.66967 0.54605 0.0
H835 H 0.97182 0.64287 0.57604 0.0
H836 H 0.98082 0.66643 0.61793 0.0
H837 H 0.06686 0.61739 0.47172 0.0
H838 H 0.03917 0.60404 0.46333 0.0
H839 H 0.04436 0.63167 0.43481 0.0
H840 H 0.95942 0.59637 0.43777 0.0
H841 H 0.9766 0.66231 0.37176 0.0
H842 H 0.98533 0.60293 0.56095 0.0
H843 H 0.00752 0.59045 0.52091 0.0
H844 H 0.97822 0.58104 0.51255 0.0
H845 H 0.00648 0.68392 0.47909 0.0
H846 H 0.00566 0.68549 0.40684 0.0
H847 H 0.02843 0.67026 0.44052 0.0
C848 C 0.36405 0.4743 0.65979 0.0
C849 C 0.38499 0.46384 0.64649 0.0
C850 C 0.36191 0.48804 0.70603 0.0
C851 C 0.38126 0.49174 0.73943 0.0
C852 C 0.40242 0.48117 0.72625 0.0
C853 C 0.40398 0.46724 0.68026 0.0
C854 C 0.33896 0.49873 0.71894 0.0
C855 C 0.42357 0.48494 0.7602 0.0
C856 C 0.38209 0.54564 0.82603 0.0
C857 C 0.37687 0.53693 0.87707 0.0
C858 C 0.38366 0.53112 0.7811 0.0
C859 C 0.37959 0.5073 0.78706 0.0
C860 C 0.37413 0.49843 0.8385 0.0
C861 C 0.373 0.51333 0.88297 0.0
C862 C 0.38985 0.54128 0.72725 0.0
C863 C 0.36942 0.4732 0.8465 0.0
H864 H 0.34924 0.47167 0.63416 0.0
H865 H 0.42027 0.45936 0.67016 0.0
H866 H 0.33358 0.49392 0.76016 0.0
H867 H 0.34041 0.51769 0.71785 0.0
H868 H 0.32534 0.49335 0.69035 0.0
H869 H 0.43865 0.47524 0.745 0.0
H870 H 0.42797 0.50346 0.76096 0.0
H871 H 0.42019 0.47965 0.80223 0.0
H872 H 0.3852 0.56385 0.82123 0.0
H873 H 0.36891 0.50652 0.92232 0.0
H874 H 0.37595 0.53788 0.69788 0.0
H875 H 0.40566 0.53304 0.71156 0.0
H876 H 0.39274 0.5601 0.72944 0.0
H877 H 0.35509 0.46768 0.82013 0.0
H878 H 0.36492 0.46908 0.88875 0.0
H879 H 0.38473 0.46303 0.83493 0.0
C880 C 0.49071 0.88805 0.1123 0.0
C881 C 0.46913 0.87758 0.10777 0.0
C882 C 0.50635 0.8877 0.06973 0.0
C883 C 0.50036 0.87632 0.02161 0.0
C884 C 0.47821 0.86646 0.01597 0.0
C885 C 0.46269 0.86736 0.05924 0.0
C886 C 0.52959 0.89879 0.07707 0.0
C887 C 0.4713 0.85415 0.96516 0.0
C888 C 0.5364 0.88907 0.8985 0.0
C889 C 0.55173 0.87049 0.89812 0.0
C890 C 0.51946 0.8911 0.93815 0.0
C891 C 0.51773 0.87406 0.97829 0.0
C892 C 0.53332 0.8554 0.9786 0.0
C893 C 0.55025 0.85389 0.93858 0.0
C894 C 0.50342 0.91144 0.937 0.0
C895 C 0.53199 0.83693 0.02094 0.0
H896 H 0.49559 0.89615 0.14982 0.0
H897 H 0.44606 0.85911 0.05604 0.0
H898 H 0.54317 0.88545 0.0762 0.0
H899 H 0.53314 0.91086 0.04368 0.0
H900 H 0.53091 0.9083 0.11563 0.0
H901 H 0.45307 0.84857 0.966 0.0
H902 H 0.47397 0.86543 0.92985 0.0
H903 H 0.48231 0.83881 0.95951 0.0
H904 H 0.5375 0.90203 0.8674 0.0
H905 H 0.56189 0.8394 0.93817 0.0
H906 H 0.50503 0.92138 0.97482 0.0
H907 H 0.48537 0.90548 0.93425 0.0
H908 H 0.50695 0.92309 0.90268 0.0
H909 H 0.53466 0.84456 0.06128 0.0
H910 H 0.54497 0.82324 0.01469 0.0
H911 H 0.51466 0.82901 0.02079 0.0
C912 C 0.8943 0.04569 0.70061 0.0
C913 C 0.87661 0.04887 0.6632 0.0
C914 C 0.89251 0.02897 0.74091 0.0
C915 C 0.87248 0.01525 0.74409 0.0
C916 C 0.85447 0.01855 0.70686 0.0
C917 C 0.85676 0.03529 0.66684 0.0
C918 C 0.91208 0.02595 0.78003 0.0
C919 C 0.83273 1.00445 0.70941 0.0
C920 C 0.8757 0.96022 0.82611 0.0
C921 C 0.86722 0.96777 0.87565 0.0
C922 C 0.87722 0.9754 0.78233 0.0
C923 C 0.86983 0.99844 0.78847 0.0
C924 C 0.86042 0.00577 0.83788 0.0
C925 C 0.85933 0.99039 0.88083 0.0
C926 C 0.8874 0.96704 0.73014 0.0
C927 C 0.85206 0.03008 0.84591 0.0
H928 H 0.90979 0.05593 0.69777 0.0
H929 H 0.843 0.03761 0.63808 0.0
H930 H 0.90607 0.02959 0.82144 0.0
H931 H 0.91816 0.00792 0.77929 0.0
H932 H 0.92681 0.03742 0.77093 0.0
H933 H 0.82057 0.00875 0.67659 0.0
H934 H 0.83692 0.98592 0.7069 0.0
H935 H 0.824 0.00731 0.74844 0.0
H936 H 0.8819 0.94277 0.82215 0.0
H937 H 0.85254 0.99625 0.91899 0.0
H938 H 0.90351 0.97653 0.72164 0.0
H939 H 0.87543 0.97051 0.69649 0.0
H940 H 0.89128 0.94839 0.73101 0.0
H941 H 0.86663 0.04221 0.8416 0.0
H942 H 0.84416 0.03269 0.88605 0.0
H943 H 0.83923 0.03454 0.81474 0.0
C944 C 0.97738 0.36008 0.90011 0.0
C945 C 0.96437 0.38028 0.89609 0.0
C946 C 0.9941 0.35748 0.94009 0.0
C947 C 0.9979 0.37548 0.97713 0.0
C948 C 0.98487 0.39593 0.97338 0.0
C949 C 0.96823 0.39809 0.9329 0.0
C950 C 0.00751 0.33535 0.94307 0.0
C951 C 0.98839 0.41546 0.01243 0.0
C952 C 0.02102 0.36056 0.11448 0.0
C953 C 0.04404 0.36746 0.11069 0.0
C954 C 0.00601 0.36277 0.07104 0.0
C955 C 0.01417 0.37218 0.02239 0.0
C956 C 0.03757 0.37859 0.01759 0.0
C957 C 0.05233 0.37609 0.06195 0.0
C958 C 0.98125 0.35552 0.07772 0.0
C959 C 0.04682 0.38865 0.96614 0.0
H960 H 0.97459 0.34624 0.87181 0.0
H961 H 0.95844 0.41383 0.92978 0.0
H962 H 0.0262 0.33897 0.94216 0.0
H963 H 1.0038 0.32653 0.98157 0.0
H964 H 1.00329 0.32348 0.90957 0.0
H965 H 0.97765 0.43062 0.00254 0.0
H966 H 0.98407 0.40973 0.05368 0.0
H967 H 0.00668 0.42076 0.01266 0.0
H968 H 0.01453 0.3537 0.15199 0.0
H969 H 0.07008 0.38154 0.05903 0.0
H970 H 0.97656 0.34279 0.04645 0.0
H971 H 0.96982 0.37057 0.07247 0.0
H972 H 0.97784 0.34787 0.11777 0.0
H973 H 0.04326 0.37692 0.93203 0.0
H974 H 0.0656 0.39185 0.96812 0.0
H975 H 0.038 0.40509 0.95746 0.0
C976 C 0.63431 0.55587 0.31341 0.0
C977 C 0.64456 0.54786 0.36064 0.0
C978 C 0.63193 0.54133 0.26857 0.0
C979 C 0.6401 0.51845 0.27138 0.0
C980 C 0.65141 0.51075 0.3182 0.0
C981 C 0.65347 0.52553 0.36216 0.0
C982 C 0.61989 0.55013 0.21909 0.0
C983 C 0.66058 0.48658 0.32271 0.0
C984 C 0.61419 0.47114 0.18561 0.0
C985 C 0.6311 0.46824 0.14611 0.0
C986 C 0.61659 0.4879 0.22579 0.0
C987 C 0.63634 0.50211 0.22637 0.0
C988 C 0.65332 0.49944 0.18631 0.0
C989 C 0.65053 0.48254 0.14677 0.0
C990 C 0.59817 0.49017 0.26813 0.0
C991 C 0.67463 0.51423 0.18563 0.0
H992 H 0.62727 0.57307 0.31232 0.0
H993 H 0.66158 0.51932 0.39853 0.0
H994 H 0.63054 0.54696 0.18291 0.0
H995 H 0.6035 0.54072 0.21348 0.0
H996 H 0.61608 0.56876 0.22175 0.0
H997 H 0.66985 0.48364 0.36106 0.0
H998 H 0.6462 0.47414 0.32008 0.0
H999 H 0.67245 0.48285 0.28898 0.0
H1000 H 0.59905 0.46033 0.18518 0.0
H1001 H 0.66358 0.48069 0.11609 0.0
H1002 H 0.59187 0.50812 0.26982 0.0
H1003 H 0.60543 0.48606 0.30816 0.0
H1004 H 0.58335 0.47862 0.26052 0.0
H1005 H 0.66982 0.53264 0.18581 0.0
H1006 H 0.68561 0.51083 0.15002 0.0
H1007 H 0.68491 0.51104 0.22235 0.0
C1008 C 0.53033 0.1476 0.39986 0.0
C1009 C 0.54643 0.12968 0.40228 0.0
C1010 C 0.51319 0.15001 0.43887 0.0
C1011 C 0.51206 0.13415 0.48163 0.0
C1012 C 0.52798 0.11579 0.48405 0.0
C1013 C 0.54499 0.11375 0.44425 0.0
C1014 C 0.49658 0.16984 0.43491 0.0
C1015 C 0.52731 0.09858 0.52926 0.0
C1016 C 0.48773 0.15436 0.61415 0.0
C1017 C 0.46596 0.14414 0.61451 0.0
C1018 C 0.50263 0.1516 0.57064 0.0
C1019 C 0.49565 0.13808 0.5264 0.0
C1020 C 0.47331 0.12839 0.52552 0.0
C1021 C 0.45858 0.13165 0.56973 0.0
C1022 C 0.52613 0.16257 0.57285 0.0
C1023 C 0.46534 0.11389 0.47889 0.0
H1024 H 0.53095 0.1598 0.36714 0.0
H1025 H 0.55716 0.09972 0.44614 0.0
H1026 H 0.47864 0.16349 0.4367 0.0
H1027 H 0.49906 0.18158 0.46951 0.0
H1028 H 0.49885 0.1798 0.39729 0.0
H1029 H 0.5399 0.08448 0.52351 0.0
H1030 H 0.53112 0.10731 0.56785 0.0
H1031 H 0.50988 0.09104 0.53273 0.0
H1032 H 0.49339 0.16414 0.64878 0.0
H1033 H 0.44183 0.12353 0.57039 0.0
H1034 H 0.52886 0.17355 0.53708 0.0
H1035 H 0.53956 0.14908 0.57225 0.0
H1036 H 0.52854 0.17322 0.60942 0.0
H1037 H 0.46753 0.12338 0.44065 0.0
H1038 H 0.44706 0.10872 0.48289 0.0
H1039 H 0.47603 0.09819 0.4762 0.0
C1040 C 0.65084 0.49197 0.86465 0.0
C1041 C 0.64625 0.46836 0.86198 0.0
C1042 C 0.64875 0.50598 0.81942 0.0
C1043 C 0.64202 0.49616 0.77001 0.0
C1044 C 0.63839 0.47215 0.76625 0.0
C1045 C 0.64053 0.45847 0.8125 0.0
C1046 C 0.65275 0.53148 0.82523 0.0
C1047 C 0.63136 0.46111 0.71397 0.0
C1048 C 0.6109 0.5368 0.67643 0.0
C1049 C 0.6285 0.54347 0.64131 0.0
C1050 C 0.61497 0.52096 0.71761 0.0
C1051 C 0.63717 0.51145 0.72372 0.0
C1052 C 0.65499 0.51794 0.68822 0.0
C1053 C 0.65047 0.53396 0.64752 0.0
C1054 C 0.59558 0.51466 0.75513 0.0
C1055 C 0.67886 0.50812 0.69355 0.0
H1056 H 0.65547 0.49974 0.90269 0.0
H1057 H 0.63701 0.44023 0.81027 0.0
H1058 H 0.66521 0.53753 0.79466 0.0
H1059 H 0.63642 0.54082 0.81834 0.0
H1060 H 0.65933 0.53617 0.86564 0.0
H1061 H 0.6314 0.44208 0.71642 0.0
H1062 H 0.61383 0.46686 0.70296 0.0
H1063 H 0.64306 0.46652 0.68118 0.0
H1064 H 0.59384 0.54394 0.6718 0.0
H1065 H 0.66412 0.53883 0.62022 0.0
H1066 H 0.59991 0.52002 0.79668 0.0
H1067 H 0.59311 0.4958 0.7556 0.0
H1068 H 0.5791 0.52288 0.74359 0.0
H1069 H 0.6864 0.51332 0.73261 0.0
H1070 H 0.69047 0.51395 0.66088 0.0
H1071 H 0.67814 0.48911 0.69308 0.0
C1072 C 0.52025 0.134 0.12241 0.0
C1073 C 0.54276 0.14239 0.11927 0.0
C1074 C 0.50534 0.13538 0.07861 0.0
C1075 C 0.51306 0.14565 0.03052 0.0
C1076 C 0.53604 0.15355 0.02641 0.0
C1077 C 0.55076 0.15168 0.07098 0.0
C1078 C 0.48112 0.12638 0.08439 0.0
C1079 C 0.54478 0.16462 0.97563 0.0
C1080 C 0.47732 0.13321 0.90686 0.0
C1081 C 0.46307 0.15262 0.90453 0.0
C1082 C 0.49406 0.13097 0.94686 0.0
C1083 C 0.49668 0.14858 0.98542 0.0
C1084 C 0.48243 0.16825 0.98327 0.0
C1085 C 0.46571 0.17 0.94292 0.0
C1086 C 0.50871 0.1096 0.94826 0.0
C1087 C 0.48475 0.18737 0.02386 0.0
H1088 H 0.51412 0.12653 0.15962 0.0
H1089 H 0.56815 0.15825 0.06872 0.0
H1090 H 0.46872 0.14071 0.08044 0.0
H1091 H 0.4773 0.1139 0.05194 0.0
H1092 H 0.47823 0.11786 0.12369 0.0
H1093 H 0.56335 0.16885 0.97801 0.0
H1094 H 0.54192 0.15309 0.94082 0.0
H1095 H 0.53506 0.18064 0.96784 0.0
H1096 H 0.47541 0.11968 0.87731 0.0
H1097 H 0.45494 0.18513 0.94102 0.0
H1098 H 0.5055 0.10007 0.98606 0.0
H1099 H 0.52717 0.11429 0.94774 0.0
H1100 H 0.50519 0.09796 0.91386 0.0
H1101 H 0.48065 0.18082 0.06456 0.0
H1102 H 0.47321 0.20204 0.01495 0.0
H1103 H 0.50272 0.19367 0.02483 0.0
C1104 C 0.8686 0.01445 0.38184 0.0
C1105 C 0.87251 0.03809 0.37628 0.0
C1106 C 0.87111 0.99945 0.33842 0.0
C1107 C 0.87775 0.00823 0.28791 0.0
C1108 C 0.88162 0.03211 0.28168 0.0
C1109 C 0.87889 0.04684 0.32608 0.0
C1110 C 0.86664 0.97416 0.34672 0.0
C1111 C 0.88877 0.04201 0.22828 0.0
C1112 C 0.90253 0.96433 0.19106 0.0
C1113 C 0.88338 0.9592 0.15906 0.0
C1114 C 0.90115 0.98077 0.23223 0.0
C1115 C 0.8801 0.99224 0.24172 0.0
C1116 C 0.86073 0.9871 0.20966 0.0
C1117 C 0.86262 0.97067 0.16879 0.0
C1118 C 0.92216 0.98578 0.26577 0.0
C1119 C 0.83792 0.99876 0.21893 0.0
H1120 H 0.86359 0.00752 0.42047 0.0
H1121 H 0.88204 0.06507 0.32169 0.0
H1122 H 0.85275 0.96829 0.3195 0.0
H1123 H 0.88224 0.96414 0.33663 0.0
H1124 H 0.8616 0.97012 0.38869 0.0
H1125 H 0.89122 0.06089 0.2301 0.0
H1126 H 0.90505 0.03397 0.21483 0.0
H1127 H 0.8756 0.03808 0.19745 0.0
H1128 H 0.91872 0.95577 0.18345 0.0
H1129 H 0.84773 0.96688 0.14435 0.0
H1130 H 0.91884 0.98109 0.30823 0.0
H1131 H 0.92605 1.00441 0.2649 0.0
H1132 H 0.9375 0.97622 0.2516 0.0
H1133 H 0.8314 0.99446 0.25956 0.0
H1134 H 0.8248 0.99359 0.18889 0.0
H1135 H 0.84002 0.01766 0.21727 0.0
C1136 C 0.03648 0.36069 0.4005 0.0
C1137 C 0.04954 0.3808 0.39502 0.0
C1138 C 0.01971 0.35867 0.44059 0.0
C1139 C 0.01586 0.37723 0.47606 0.0
C1140 C 0.02884 0.39764 0.47061 0.0
C1141 C 0.04559 0.39916 0.43022 0.0
C1142 C 0.00638 0.33654 0.44553 0.0
C1143 C 0.02523 0.41777 0.50786 0.0
C1144 C 0.96162 0.37855 0.56167 0.0
C1145 C 0.97015 0.37077 0.61093 0.0
C1146 C 0.97625 0.38062 0.51691 0.0
C1147 C 0.99973 0.37453 0.52184 0.0
C1148 C 0.00814 0.36602 0.57113 0.0
C1149 C 0.99328 0.36431 0.61498 0.0
C1150 C 0.96677 0.38979 0.46483 0.0
C1151 C 0.03297 0.35908 0.57795 0.0
H1152 H 0.03928 0.34644 0.3733 0.0
H1153 H 0.0554 0.41486 0.42591 0.0
H1154 H 0.01017 0.32834 0.4847 0.0
H1155 H 0.98767 0.34006 0.44451 0.0
H1156 H 0.01059 0.32419 0.41299 0.0
H1157 H 0.03573 0.43289 0.49628 0.0
H1158 H 0.00687 0.42283 0.50806 0.0
H1159 H 0.02979 0.41282 0.5495 0.0
H1160 H 0.94377 0.38362 0.55857 0.0
H1161 H 0.99993 0.35804 0.65287 0.0
H1162 H 0.97023 0.37753 0.43172 0.0
H1163 H 0.97552 0.40611 0.45446 0.0
H1164 H 0.94799 0.39297 0.46698 0.0
H1165 H 0.03763 0.34586 0.54779 0.0
H1166 H 0.03657 0.35214 0.61861 0.0
H1167 H 0.04429 0.3741 0.57107 0.0
C1168 C 0.39848 0.51676 0.13624 0.0
C1169 C 0.37939 0.52241 0.10485 0.0
C1170 C 0.39667 0.50099 0.1785 0.0
C1171 C 0.37505 0.49109 0.19044 0.0
C1172 C 0.35617 0.49528 0.15584 0.0
C1173 C 0.35861 0.51089 0.11308 0.0
C1174 C 0.41739 0.49674 0.21352 0.0
C1175 C 0.33284 0.48513 0.16707 0.0
C1176 C 0.37371 0.4463 0.30202 0.0
C1177 C 0.36937 0.46005 0.34719 0.0
C1178 C 0.37493 0.45594 0.25026 0.0
C1179 C 0.37153 0.47983 0.24361 0.0
C1180 C 0.36634 0.49358 0.28897 0.0
C1181 C 0.36545 0.48356 0.34009 0.0
C1182 C 0.38067 0.44074 0.20308 0.0
C1183 C 0.36236 0.5191 0.28378 0.0
H1184 H 0.41451 0.52587 0.12998 0.0
H1185 H 0.34375 0.51562 0.08932 0.0
H1186 H 0.41535 0.50616 0.25197 0.0
H1187 H 0.41901 0.47824 0.22317 0.0
H1188 H 0.43352 0.50261 0.19407 0.0
H1189 H 0.32127 0.4865 0.13176 0.0
H1190 H 0.33429 0.46684 0.17877 0.0
H1191 H 0.32482 0.49444 0.20114 0.0
H1192 H 0.37676 0.4281 0.30725 0.0
H1193 H 0.3619 0.49427 0.37473 0.0
H1194 H 0.39798 0.44519 0.18766 0.0
H1195 H 0.36831 0.44358 0.16987 0.0
H1196 H 0.38052 0.42227 0.21396 0.0
H1197 H 0.37838 0.5276 0.27013 0.0
H1198 H 0.35696 0.52706 0.32231 0.0
H1199 H 0.34897 0.52253 0.25318 0.0
C1200 C 0.46508 0.89794 0.43194 0.0
C1201 C 0.46199 0.88054 0.39373 0.0
C1202 C 0.48208 0.89608 0.47168 0.0
C1203 C 0.49624 0.87634 0.47326 0.0
C1204 C 0.49318 0.85873 0.43489 0.0
C1205 C 0.47608 0.86102 0.39571 0.0
C1206 C 0.48477 0.91516 0.51225 0.0
C1207 C 0.50781 0.83734 0.43553 0.0
C1208 C 0.55078 0.87961 0.55734 0.0
C1209 C 0.54307 0.87025 0.60582 0.0
C1210 C 0.53587 0.88129 0.51303 0.0
C1211 C 0.51295 0.87327 0.51771 0.0
C1212 C 0.50557 0.86282 0.56586 0.0
C1213 C 0.5207 0.86146 0.60923 0.0
C1214 C 0.5443 0.89242 0.46204 0.0
C1215 C 0.48138 0.85383 0.5724 0.0
H1216 H 0.45446 0.91318 0.43039 0.0
H1217 H 0.47387 0.84748 0.36638 0.0
H1218 H 0.4811 0.90855 0.55312 0.0
H1219 H 0.50273 0.9215 0.51223 0.0
H1220 H 0.47311 0.92982 0.50407 0.0
H1221 H 0.50403 0.82577 0.40118 0.0
H1222 H 0.52627 0.84202 0.43431 0.0
H1223 H 0.50487 0.82775 0.47336 0.0
H1224 H 0.56802 0.88653 0.55483 0.0
H1225 H 0.51476 0.85399 0.64659 0.0
H1226 H 0.53484 0.90867 0.45524 0.0
H1227 H 0.54086 0.88112 0.42709 0.0
H1228 H 0.56297 0.89627 0.46351 0.0
H1229 H 0.46898 0.86821 0.5692 0.0
H1230 H 0.47874 0.84519 0.61166 0.0
H1231 H 0.47729 0.84147 0.5399 0.0
C1232 C 0.11567 0.96317 0.68235 0.0
C1233 C 0.13276 0.95973 0.64353 0.0
C1234 C 0.11826 0.9799 0.72245 0.0
C1235 C 0.13847 0.99342 0.7239 0.0
C1236 C 0.15585 0.98992 0.68511 0.0
C1237 C 0.15279 0.97313 0.6454 0.0
C1238 C 0.09937 0.9831 0.76334 0.0
C1239 C 0.17772 1.00385 0.68572 0.0
C1240 C 0.13602 0.04809 0.8074 0.0
C1241 C 0.14481 0.04027 0.85635 0.0
C1242 C 0.13439 0.03318 0.76308 0.0
C1243 C 0.14196 0.01016 0.76813 0.0
C1244 C 0.15194 1.00266 0.81674 0.0
C1245 C 0.15315 0.01778 0.86024 0.0
C1246 C 0.12367 0.04173 0.71173 0.0
C1247 C 0.16048 0.97837 0.82361 0.0
H1248 H 0.10007 0.95306 0.68094 0.0
H1249 H 0.16609 0.97064 0.61553 0.0
H1250 H 0.10601 0.97935 0.80413 0.0
H1251 H 0.09346 1.00119 0.76331 0.0
H1252 H 0.08438 0.97179 0.75548 0.0
H1253 H 0.18926 0.99951 0.65167 0.0
H1254 H 0.17364 0.02242 0.68388 0.0
H1255 H 0.18711 1.00085 0.72382 0.0
H1256 H 0.12947 0.06544 0.8045 0.0
H1257 H 0.16019 0.01176 0.89798 0.0
H1258 H 0.10718 0.03267 0.70473 0.0
H1259 H 0.135 0.03791 0.67706 0.0
H1260 H 0.12029 0.06048 0.71288 0.0
H1261 H 0.14584 0.96624 0.82091 0.0
H1262 H 0.16919 0.97575 0.8628 0.0
H1263 H 0.17266 0.9739 0.791 0.0
C1264 C 0.96064 0.62896 0.06469 0.0
C1265 C 0.96981 0.63558 0.11432 0.0
C1266 C 0.97497 0.62645 0.01944 0.0
C1267 C 0.99885 0.63084 0.02424 0.0
C1268 C 0.00799 0.63795 0.07407 0.0
C1269 C 0.9934 0.6402 0.11832 0.0
C1270 C 0.96468 0.61882 0.9668 0.0
C1271 C 0.03329 0.64299 0.08093 0.0
C1272 C 0.04312 0.60572 0.92886 0.0
C1273 C 0.04825 0.62466 0.89631 0.0
C1274 C 0.02637 0.6072 0.96932 0.0
C1275 C 0.01457 0.62815 0.97759 0.0
C1276 C 0.0195 0.64724 0.9445 0.0
C1277 C 0.03623 0.64526 0.90427 0.0
C1278 C 0.02158 0.58647 0.00387 0.0
C1279 C 0.00746 0.66994 0.95238 0.0
H1280 H 0.94245 0.62529 0.06151 0.0
H1281 H 1.00064 0.64549 0.15646 0.0
H1282 H 0.96851 0.63159 0.93504 0.0
H1283 H 0.97254 0.60235 0.95411 0.0
H1284 H 0.94578 0.61651 0.96939 0.0
H1285 H 0.03758 0.64866 0.12232 0.0
H1286 H 0.0435 0.62744 0.07156 0.0
H1287 H 0.03869 0.65659 0.05246 0.0
H1288 H 0.05207 0.58965 0.92253 0.0
H1289 H 0.03991 0.65996 0.8791 0.0
H1290 H 1.00293 0.58263 0.00413 0.0
H1291 H 0.02672 0.59008 0.04593 0.0
H1292 H 0.03098 0.57101 0.98981 0.0
H1293 H 0.98858 0.66749 0.95181 0.0
H1294 H 0.01215 0.68266 0.92103 0.0
H1295 H 0.01201 0.67716 0.99221 0.0
C1296 C 0.11284 0.26405 0.20609 0.0
C1297 C 0.09853 0.28049 0.18253 0.0
C1298 C 0.11957 0.24436 0.17774 0.0
C1299 C 0.11129 0.24075 0.12493 0.0
C1300 C 0.09726 0.25761 0.10043 0.0
C1301 C 0.09127 0.27745 0.12939 0.0
C1302 C 0.13497 0.2271 0.20496 0.0
C1303 C 0.0877 0.25419 0.0447 0.0
C1304 C 0.14022 0.1938 0.04252 0.0
C1305 C 0.12637 0.17488 0.05479 0.0
C1306 C 0.13528 0.21558 0.06404 0.0
C1307 C 0.1158 0.21845 0.09755 0.0
C1308 C 0.10127 0.19948 0.10795 0.0
C1309 C 0.10689 0.17788 0.08695 0.0
C1310 C 0.15141 0.23527 0.05281 0.0
C1311 C 0.08009 0.20183 0.14253 0.0
H1312 H 0.11868 0.2666 0.24697 0.0
H1313 H 0.08007 0.29014 0.11141 0.0
H1314 H 0.12529 0.21103 0.21243 0.0
H1315 H 0.1497 0.22274 0.17859 0.0
H1316 H 0.1417 0.23351 0.24391 0.0
H1317 H 0.07855 0.26965 0.02982 0.0
H1318 H 0.10165 0.24986 0.01613 0.0
H1319 H 0.07551 0.23956 0.04489 0.0
H1320 H 0.15535 0.19135 0.01781 0.0
H1321 H 0.09615 0.16319 0.09606 0.0
H1322 H 0.15988 0.24066 0.09069 0.0
H1323 H 0.14174 0.25028 0.03748 0.0
H1324 H 0.16489 0.23063 0.02318 0.0
H1325 H 0.08517 0.20588 0.18441 0.0
H1326 H 0.06957 0.18593 0.14288 0.0
H1327 H 0.06928 0.21621 0.12799 0.0
C1328 C 0.81558 0.63661 0.29792 0.0
C1329 C 0.83564 0.6272 0.31975 0.0
C1330 C 0.7939 0.63136 0.31983 0.0
C1331 C 0.7923 0.61599 0.36377 0.0
C1332 C 0.81252 0.60588 0.38461 0.0
C1333 C 0.83391 0.61177 0.36269 0.0
C1334 C 0.77281 0.64278 0.29705 0.0
C1335 C 0.81161 0.58909 0.4307 0.0
C1336 C 0.74279 0.61831 0.46303 0.0
C1337 C 0.72915 0.59981 0.44637 0.0
C1338 C 0.76286 0.62432 0.43514 0.0
C1339 C 0.76975 0.61122 0.39 0.0
C1340 C 0.75583 0.59273 0.37243 0.0
C1341 C 0.73556 0.5874 0.40053 0.0
C1342 C 0.77693 0.64442 0.45467 0.0
C1343 C 0.76277 0.57808 0.32514 0.0
H1344 H 0.81692 0.64858 0.26479 0.0
H1345 H 0.8494 0.60423 0.37911 0.0
H1346 H 0.75994 0.62968 0.28528 0.0
H1347 H 0.76475 0.65375 0.32823 0.0
H1348 H 0.77682 0.65357 0.26152 0.0
H1349 H 0.82871 0.58162 0.43988 0.0
H1350 H 0.80511 0.59782 0.46725 0.0
H1351 H 0.79954 0.57491 0.42129 0.0
H1352 H 0.73765 0.62818 0.49789 0.0
H1353 H 0.72508 0.57303 0.38779 0.0
H1354 H 0.78027 0.65649 0.42114 0.0
H1355 H 0.79382 0.6383 0.46937 0.0
H1356 H 0.7683 0.65391 0.4877 0.0
H1357 H 0.76605 0.58898 0.28948 0.0
H1358 H 0.74946 0.56516 0.31471 0.0
H1359 H 0.779 0.56897 0.3345 0.0
C1360 C 0.36604 0.32807 0.62356 0.0
C1361 C 0.37983 0.33767 0.58318 0.0
C1362 C 0.37197 0.30714 0.64791 0.0
C1363 C 0.39224 0.29563 0.63174 0.0
C1364 C 0.40599 0.30504 0.59038 0.0
C1365 C 0.39962 0.32589 0.56664 0.0
C1366 C 0.35676 0.29753 0.69153 0.0
C1367 C 0.42781 0.29341 0.57217 0.0
C1368 C 0.42319 0.25552 0.72747 0.0
C1369 C 0.41763 0.23387 0.70646 0.0
C1370 C 0.41451 0.2757 0.70449 0.0
C1371 C 0.39976 0.27427 0.65945 0.0
C1372 C 0.39342 0.25248 0.63911 0.0
C1373 C 0.40245 0.23255 0.66277 0.0
C1374 C 0.42167 0.29859 0.72749 0.0
C1375 C 0.37769 0.25023 0.59122 0.0
H1376 H 0.3506 0.33694 0.63615 0.0
H1377 H 0.41057 0.33335 0.53608 0.0
H1378 H 0.35163 0.27971 0.68149 0.0
H1379 H 0.36638 0.29685 0.72993 0.0
H1380 H 0.34102 0.30796 0.69765 0.0
H1381 H 0.4361 0.30249 0.5381 0.0
H1382 H 0.44018 0.29263 0.60599 0.0
H1383 H 0.42415 0.2755 0.55973 0.0
H1384 H 0.43453 0.25671 0.76179 0.0
H1385 H 0.3982 0.21598 0.64581 0.0
H1386 H 0.40631 0.30898 0.73755 0.0
H1387 H 0.43165 0.3083 0.6971 0.0
H1388 H 0.43235 0.29673 0.76417 0.0
H1389 H 0.3618 0.26035 0.59766 0.0
H1390 H 0.37289 0.23212 0.58309 0.0
H1391 H 0.3863 0.25727 0.55507 0.0
C1392 C 0.69109 0.87158 0.8215 0.0
C1393 C 0.67606 0.88995 0.81255 0.0
C1394 C 0.71268 0.87516 0.84543 0.0
C1395 C 0.71944 0.89768 0.86001 0.0
C1396 C 0.70472 0.91638 0.84866 0.0
C1397 C 0.68318 0.91227 0.82538 0.0
C1398 C 0.72781 0.85478 0.85722 0.0
C1399 C 0.71137 0.94069 0.86276 0.0
C1400 C 0.76038 0.90882 0.9757 0.0
C1401 C 0.78079 0.91429 0.94881 0.0
C1402 C 0.7406 0.90238 0.94729 0.0
C1403 C 0.74111 0.90173 0.89045 0.0
C1404 C 0.76187 0.90661 0.86308 0.0
C1405 C 0.78153 0.91268 0.89265 0.0
C1406 C 0.71894 0.89697 0.97812 0.0
C1407 C 0.76306 0.90639 0.80255 0.0
H1408 H 0.68556 0.8543 0.81184 0.0
H1409 H 0.6717 0.92654 0.81784 0.0
H1410 H 0.74537 0.8577 0.8414 0.0
H1411 H 0.72932 0.85251 0.90131 0.0
H1412 H 0.72093 0.83867 0.83959 0.0
H1413 H 0.69878 0.95343 0.84756 0.0
H1414 H 0.71257 0.94252 0.90702 0.0
H1415 H 0.72851 0.94481 0.8459 0.0
H1416 H 0.75989 0.90976 0.01912 0.0
H1417 H 0.79722 0.91711 0.87173 0.0
H1418 H 0.71189 0.88017 0.96517 0.0
H1419 H 0.70571 0.91015 0.9695 0.0
H1420 H 0.72187 0.89647 0.02217 0.0
H1421 H 0.75621 0.89 0.78657 0.0
H1422 H 0.78087 0.90876 0.78753 0.0
H1423 H 0.7522 0.92038 0.78625 0.0
C1424 C 0.89634 0.27797 0.67778 0.0
C1425 C 0.92018 0.28088 0.68153 0.0
C1426 C 0.8869 0.25809 0.65443 0.0
C1427 C 0.90167 0.24096 0.63347 0.0
C1428 C 0.92574 0.24431 0.63531 0.0
C1429 C 0.93468 0.2641 0.6597 0.0
C1430 C 0.86117 0.25503 0.65403 0.0
C1431 C 0.94213 0.22672 0.61261 0.0
C1432 C 0.88355 0.1784 0.62752 0.0
C1433 C 0.87829 0.17539 0.57287 0.0
C1434 C 0.89022 0.19983 0.64796 0.0
C1435 C 0.89222 0.21881 0.6129 0.0
C1436 C 0.88661 0.21612 0.55793 0.0
C1437 C 0.87955 0.19452 0.53867 0.0
C1438 C 0.89584 0.20196 0.70696 0.0
C1439 C 0.88873 0.23588 0.51914 0.0
H1440 H 0.88513 0.29088 0.69488 0.0
H1441 H 0.9531 0.26651 0.66171 0.0
H1442 H 0.85511 0.25099 0.61289 0.0
H1443 H 0.85643 0.24032 0.68002 0.0
H1444 H 0.85202 0.27054 0.66864 0.0
H1445 H 0.96024 0.23269 0.61362 0.0
H1446 H 0.94085 0.21058 0.63596 0.0
H1447 H 0.93748 0.22263 0.57048 0.0
H1448 H 0.8832 0.16381 0.65439 0.0
H1449 H 0.87521 0.19262 0.49662 0.0
H1450 H 0.88635 0.21657 0.72493 0.0
H1451 H 0.91444 0.2055 0.71199 0.0
H1452 H 0.89154 0.18614 0.72969 0.0
H1453 H 0.87876 0.25082 0.53382 0.0
H1454 H 0.88264 0.23133 0.47824 0.0
H1455 H 0.90695 0.24133 0.51645 0.0
C1456 C 0.82128 0.39449 0.7878 0.0
C1457 C 0.83373 0.37603 0.80934 0.0
C1458 C 0.80008 0.40117 0.80976 0.0
C1459 C 0.7912 0.38933 0.85484 0.0
C1460 C 0.8031 0.37004 0.87516 0.0
C1461 C 0.82409 0.36352 0.85193 0.0
C1462 C 0.78776 0.42163 0.78638 0.0
C1463 C 0.79429 0.35698 0.92327 0.0
C1464 C 0.75437 0.42321 0.95268 0.0
C1465 C 0.73214 0.41521 0.94125 0.0
C1466 C 0.77361 0.4149 0.92492 0.0
C1467 C 0.77069 0.39837 0.88383 0.0
C1468 C 0.74835 0.39044 0.87125 0.0
C1469 C 0.72939 0.39881 0.9003 0.0
C1470 C 0.79715 0.42375 0.93985 0.0
C1471 C 0.74451 0.37304 0.82724 0.0
H1472 H 0.82857 0.40445 0.75528 0.0
H1473 H 0.83325 0.34892 0.86814 0.0
H1474 H 0.76935 0.41762 0.77992 0.0
H1475 H 0.78865 0.43619 0.815 0.0
H1476 H 0.79539 0.42719 0.74762 0.0
H1477 H 0.8046 0.34136 0.93163 0.0
H1478 H 0.79481 0.36821 0.95924 0.0
H1479 H 0.77615 0.35185 0.91707 0.0
H1480 H 0.75687 0.43617 0.98321 0.0
H1481 H 0.71246 0.39225 0.89118 0.0
H1482 H 0.8053 0.43202 0.90458 0.0
H1483 H 0.80833 0.40926 0.95207 0.0
H1484 H 0.79654 0.43639 0.97323 0.0
H1485 H 0.75189 0.37939 0.78897 0.0
H1486 H 0.72601 0.36925 0.82094 0.0
H1487 H 0.75347 0.35681 0.83723 0.0
C1488 C 0.58346 0.25349 0.2044 0.0
C1489 C 0.59288 0.2317 0.19435 0.0
C1490 C 0.59143 0.27311 0.17762 0.0
C1491 C 0.60903 0.27104 0.13878 0.0
C1492 C 0.61833 0.24914 0.12731 0.0
C1493 C 0.61029 0.22979 0.15546 0.0
C1494 C 0.58112 0.29616 0.19141 0.0
C1495 C 0.63689 0.24617 0.08557 0.0
C1496 C 0.61329 0.32197 0.04385 0.0
C1497 C 0.63081 0.33503 0.06775 0.0
C1498 C 0.60683 0.30052 0.06482 0.0
C1499 C 0.61789 0.29201 0.11134 0.0
C1500 C 0.63619 0.30463 0.13435 0.0
C1501 C 0.64255 0.32582 0.11203 0.0
C1502 C 0.58748 0.28745 0.03853 0.0
C1503 C 0.64836 0.29627 0.18414 0.0
H1504 H 0.5697 0.25539 0.23318 0.0
H1505 H 0.61793 0.21325 0.14728 0.0
H1506 H 0.59475 0.30797 0.20576 0.0
H1507 H 0.5734 0.30398 0.15509 0.0
H1508 H 0.56767 0.2949 0.22292 0.0
H1509 H 0.64152 0.22788 0.07934 0.0
H1510 H 0.63119 0.25349 0.04669 0.0
H1511 H 0.65252 0.25568 0.09793 0.0
H1512 H 0.60392 0.32889 0.00997 0.0
H1513 H 0.6565 0.3354 0.13008 0.0
H1514 H 0.57222 0.28759 0.06518 0.0
H1515 H 0.59242 0.26926 0.0323 0.0
H1516 H 0.58254 0.29496 -0.00077 0.0
H1517 H 0.63616 0.296 0.21835 0.0
H1518 H 0.66319 0.30731 0.1951 0.0
H1519 H 0.65458 0.27847 0.17826 0.0
C1520 C 0.68911 0.11292 0.30256 0.0
C1521 C 0.67822 0.13325 0.31868 0.0
C1522 C 0.7103 0.10636 0.32465 0.0
C1523 C 0.72102 0.12057 0.36342 0.0
C1524 C 0.71067 0.14169 0.37778 0.0
C1525 C 0.68932 0.1477 0.35554 0.0
C1526 C 0.72058 0.08358 0.30862 0.0
C1527 C 0.7217 0.15752 0.41826 0.0
C1528 C 0.75848 0.09048 0.46628 0.0
C1529 C 0.78067 0.09381 0.44559 0.0
C1530 C 0.73907 0.09933 0.44027 0.0
C1531 C 0.74177 0.11224 0.3926 0.0
C1532 C 0.76412 0.11641 0.37234 0.0
C1533 C 0.78329 0.10707 0.39891 0.0
C1534 C 0.71557 0.09443 0.46332 0.0
C1535 C 0.76772 0.13033 0.32198 0.0
H1536 H 0.68052 0.10157 0.27452 0.0
H1537 H 0.68111 0.16356 0.36766 0.0
H1538 H 0.73877 0.0858 0.29653 0.0
H1539 H 0.72031 0.07177 0.34351 0.0
H1540 H 0.7111 0.0754 0.27498 0.0
H1541 H 0.71284 0.17437 0.42059 0.0
H1542 H 0.72123 0.14946 0.45857 0.0
H1543 H 0.74 0.16045 0.40795 0.0
H1544 H 0.75619 0.08079 0.50293 0.0
H1545 H 0.80026 0.10969 0.38227 0.0
H1546 H 0.70515 0.08477 0.43366 0.0
H1547 H 0.70645 0.11074 0.47172 0.0
H1548 H 0.71642 0.08431 0.50102 0.0
H1549 H 0.76013 0.12121 0.28715 0.0
H1550 H 0.7862 0.13346 0.31362 0.0
H1551 H 0.75885 0.1471 0.32544 0.0
C1552 C 0.61186 0.78497 0.66336 0.0
C1553 C 0.58986 0.78523 0.68653 0.0
C1554 C 0.62015 0.76545 0.63645 0.0
C1555 C 0.60621 0.74561 0.63298 0.0
C1556 C 0.58388 0.74587 0.65545 0.0
C1557 C 0.57597 0.76566 0.68169 0.0
C1558 C 0.64401 0.76588 0.61279 0.0
C1559 C 0.56847 0.72505 0.65275 0.0
C1560 C 0.61735 0.69712 0.53392 0.0
C1561 C 0.62733 0.68055 0.56737 0.0
C1562 C 0.61132 0.71886 0.55404 0.0
C1563 C 0.61529 0.72405 0.60885 0.0
C1564 C 0.62645 0.7078 0.64196 0.0
C1565 C 0.63242 0.68634 0.62076 0.0
C1566 C 0.5997 0.73584 0.51733 0.0
C1567 C 0.63107 0.71263 0.70057 0.0
H1568 H 0.62283 0.79987 0.66724 0.0
H1569 H 0.55881 0.76574 0.69835 0.0
H1570 H 0.65512 0.75352 0.63443 0.0
H1571 H 0.64352 0.76046 0.5701 0.0
H1572 H 0.65199 0.78316 0.61527 0.0
H1573 H 0.55131 0.72826 0.67071 0.0
H1574 H 0.56611 0.71963 0.61041 0.0
H1575 H 0.5766 0.71053 0.67436 0.0
H1576 H 0.61329 0.69275 0.4927 0.0
H1577 H 0.64056 0.67378 0.64654 0.0
H1578 H 0.608 0.75292 0.52063 0.0
H1579 H 0.5815 0.73791 0.52954 0.0
H1580 H 0.60017 0.73026 0.47468 0.0
H1581 H 0.64041 0.7291 0.70518 0.0
H1582 H 0.64128 0.69883 0.71987 0.0
H1583 H 0.61454 0.71432 0.72239 0.0
C1584 C 0.32867 0.13657 0.88043 0.0
C1585 C 0.33439 0.13181 0.82682 0.0
C1586 C 0.30726 0.1303 0.90167 0.0
C1587 C 0.29105 0.11905 0.86849 0.0
C1588 C 0.29624 0.11525 0.81361 0.0
C1589 C 0.31786 0.12166 0.79342 0.0
C1590 C 0.30242 0.13476 0.96033 0.0
C1591 C 0.27938 0.10339 0.77686 0.0
C1592 C 0.2499 0.07854 0.93927 0.0
C1593 C 0.22985 0.09179 0.9431 0.0
C1594 C 0.26974 0.08712 0.91441 0.0
C1595 C 0.26962 0.10952 0.89252 0.0
C1596 C 0.24937 0.1229 0.89542 0.0
C1597 C 0.22974 0.11388 0.92071 0.0
C1598 C 0.29095 0.07224 0.91208 0.0
C1599 C 0.24856 0.14685 0.87254 0.0
H1600 H 0.34122 0.14476 0.90625 0.0
H1601 H 0.32218 0.11776 0.75208 0.0
H1602 H 0.28573 0.14369 0.96513 0.0
H1603 H 0.30115 0.1182 0.98205 0.0
H1604 H 0.31604 0.14528 0.97958 0.0
H1605 H 0.28497 0.10388 0.73423 0.0
H1606 H 0.27749 0.0852 0.78913 0.0
H1607 H 0.2622 0.11148 0.78008 0.0
H1608 H 0.25008 0.06131 0.95534 0.0
H1609 H 0.21442 0.12432 0.92381 0.0
H1610 H 0.30524 0.08072 0.93388 0.0
H1611 H 0.29652 0.06999 0.86981 0.0
H1612 H 0.28809 0.05503 0.93 0.0
H1613 H 0.26099 0.15798 0.89403 0.0
H1614 H 0.23121 0.15463 0.87583 0.0
H1615 H 0.2537 0.14659 0.82965 0.0
C1616 C 0.89911 0.81908 0.04832 0.0
C1617 C 0.87873 0.82977 0.06486 0.0
C1618 C 0.90579 0.79781 0.06971 0.0
C1619 C 0.89165 0.78687 0.10827 0.0
C1620 C 0.87047 0.797 0.12296 0.0
C1621 C 0.86432 0.81838 0.10129 0.0
C1622 C 0.92858 0.7877 0.05321 0.0
C1623 C 0.85476 0.78576 0.16333 0.0
C1624 C 0.9048 0.7245 0.14257 0.0
C1625 C 0.91804 0.72688 0.18937 0.0
C1626 C 0.8957 0.7438 0.11617 0.0
C1627 C 0.90007 0.76602 0.13681 0.0
C1628 C 0.91305 0.7685 0.18449 0.0
C1629 C 0.92173 0.74895 0.21025 0.0
C1630 C 0.88178 0.74045 0.06567 0.0
C1631 C 0.91811 0.79187 0.20796 0.0
H1632 H 0.91044 0.82789 0.02061 0.0
H1633 H 0.84841 0.82644 0.11371 0.0
H1634 H 0.94052 0.78797 0.08793 0.0
H1635 H 0.92643 0.76952 0.04097 0.0
H1636 H 0.93661 0.79728 0.01956 0.0
H1637 H 0.83788 0.79455 0.16614 0.0
H1638 H 0.85183 0.76752 0.15255 0.0
H1639 H 0.86294 0.78604 0.20354 0.0
H1640 H 0.90197 0.70761 0.12574 0.0
H1641 H 0.93148 0.75102 0.24691 0.0
H1642 H 0.89083 0.74837 0.03114 0.0
H1643 H 0.86493 0.74917 0.06954 0.0
H1644 H 0.87877 0.72203 0.05656 0.0
H1645 H 0.92775 0.80236 0.17841 0.0
H1646 H 0.92833 0.79084 0.24553 0.0
H1647 H 0.90184 0.80101 0.21673 0.0
C1648 C 0.28397 0.40631 0.3926 0.0
C1649 C 0.28164 0.41851 0.44097 0.0
C1650 C 0.26467 0.39777 0.3652 0.0
C1651 C 0.24247 0.40164 0.38642 0.0
C1652 C 0.24 0.41366 0.43551 0.0
C1653 C 0.25958 0.42184 0.46222 0.0
C1654 C 0.26802 0.38494 0.31311 0.0
C1655 C 0.21661 0.41815 0.45955 0.0
C1656 C 0.18982 0.40135 0.29632 0.0
C1657 C 0.17958 0.38036 0.30985 0.0
C1658 C 0.21069 0.40817 0.31961 0.0
C1659 C 0.22168 0.39357 0.35706 0.0
C1660 C 0.21196 0.37189 0.36896 0.0
C1661 C 0.19098 0.36559 0.34539 0.0
C1662 C 0.22042 0.43146 0.30604 0.0
C1663 C 0.2233 0.3557 0.40809 0.0
H1664 H 0.30084 0.40386 0.37531 0.0
H1665 H 0.25757 0.43088 0.49991 0.0
H1666 H 0.25957 0.3679 0.31528 0.0
H1667 H 0.25981 0.39451 0.27978 0.0
H1668 H 0.28645 0.38241 0.30328 0.0
H1669 H 0.21763 0.42763 0.49818 0.0
H1670 H 0.20605 0.42827 0.43109 0.0
H1671 H 0.20754 0.40169 0.46657 0.0
H1672 H 0.18096 0.41294 0.26935 0.0
H1673 H 0.18326 0.34923 0.3555 0.0
H1674 H 0.23863 0.42989 0.29349 0.0
H1675 H 0.22001 0.44258 0.34221 0.0
H1676 H 0.21068 0.44007 0.27346 0.0
H1677 H 0.24154 0.35302 0.39698 0.0
H1678 H 0.21457 0.33877 0.40963 0.0
H1679 H 0.22305 0.36332 0.44891 0.0
C1680 C 0.41281 0.78757 0.11333 0.0
C1681 C 0.42028 0.78466 0.16646 0.0
C1682 C 0.40539 0.76873 0.08243 0.0
C1683 C 0.40527 0.74649 0.10535 0.0
C1684 C 0.41241 0.74357 0.15928 0.0
C1685 C 0.41985 0.76263 0.189 0.0
C1686 C 0.39805 0.77254 0.02503 0.0
C1687 C 0.41233 0.72023 0.18559 0.0
C1688 C 0.36881 0.69735 0.0526 0.0
C1689 C 0.3854 0.68324 0.02843 0.0
C1690 C 0.37478 0.71862 0.0752 0.0
C1691 C 0.39791 0.72608 0.07343 0.0
C1692 C 0.41443 0.71265 0.0459 0.0
C1693 C 0.40799 0.69139 0.0238 0.0
C1694 C 0.35659 0.73242 0.10388 0.0
C1695 C 0.43923 0.72003 0.04274 0.0
H1696 H 0.41334 0.80449 0.09546 0.0
H1697 H 0.42526 0.76031 0.23023 0.0
H1698 H 0.40952 0.76286 0.99759 0.0
H1699 H 0.38039 0.76592 0.01881 0.0
H1700 H 0.39849 0.79095 0.01363 0.0
H1701 H 0.41806 0.72092 0.22809 0.0
H1702 H 0.3948 0.71279 0.18429 0.0
H1703 H 0.42382 0.70842 0.16326 0.0
H1704 H 0.35124 0.69135 0.0556 0.0
H1705 H 0.42099 0.68057 0.00566 0.0
H1706 H 0.35717 0.75061 0.09094 0.0
H1707 H 0.35992 0.73209 0.14773 0.0
H1708 H 0.33906 0.72561 0.09654 0.0
H1709 H 0.44051 0.73819 0.02977 0.0
H1710 H 0.4493 0.70922 0.01452 0.0
H1711 H 0.44717 0.7188 0.08313 0.0
C1712 C 0.2427 0.93085 0.39136 0.0
C1713 C 0.22688 0.91643 0.41698 0.0
C1714 C 0.26253 0.922 0.36696 0.0
C1715 C 0.26692 0.89813 0.36909 0.0
C1716 C 0.25063 0.88336 0.39358 0.0
C1717 C 0.23066 0.8927 0.4168 0.0
C1718 C 0.27914 0.93834 0.34039 0.0
C1719 C 0.25482 0.85788 0.39745 0.0
C1720 C 0.31392 0.87556 0.27641 0.0
C1721 C 0.33335 0.87664 0.30981 0.0
C1722 C 0.29204 0.88187 0.29541 0.0
C1723 C 0.28938 0.88909 0.34937 0.0
C1724 C 0.30868 0.88933 0.38383 0.0
C1725 C 0.33037 0.88338 0.36358 0.0
C1726 C 0.27193 0.88161 0.25723 0.0
C1727 C 0.30662 0.8967 0.44179 0.0
H1728 H 0.2396 0.94917 0.39077 0.0
H1729 H 0.21846 0.88158 0.43687 0.0
H1730 H 0.29546 0.93876 0.36331 0.0
H1731 H 0.28324 0.93238 0.29917 0.0
H1732 H 0.27225 0.95608 0.33805 0.0
H1733 H 0.2397 0.84854 0.41366 0.0
H1734 H 0.25915 0.85072 0.35744 0.0
H1735 H 0.26972 0.85465 0.42414 0.0
H1736 H 0.31579 0.87001 0.23513 0.0
H1737 H 0.34514 0.88482 0.38977 0.0
H1738 H 0.26563 0.89937 0.25111 0.0
H1739 H 0.25753 0.87157 0.2745 0.0
H1740 H 0.27649 0.87421 0.21752 0.0
H1741 H 0.30225 0.9152 0.44378 0.0
H1742 H 0.32276 0.89387 0.46459 0.0
H1743 H 0.29255 0.88714 0.46187 0.0
C1744 C 0.14714 0.82048 0.59398 0.0
C1745 C 0.13263 0.83089 0.55613 0.0
C1746 C 0.14117 0.79964 0.61866 0.0
C1747 C 0.12029 0.78869 0.60476 0.0
C1748 C 0.10611 0.79847 0.5647 0.0
C1749 C 0.11237 0.81947 0.54111 0.0
C1750 C 0.15677 0.78983 0.66123 0.0
C1751 C 0.08383 0.78724 0.54828 0.0
C1752 C 0.11167 0.72637 0.64687 0.0
C1753 C 0.09815 0.7287 0.69335 0.0
C1754 C 0.1188 0.74566 0.61727 0.0
C1755 C 0.11254 0.76791 0.63478 0.0
C1756 C 0.09894 0.77042 0.68153 0.0
C1757 C 0.09182 0.75087 0.7099 0.0
C1758 C 0.13311 0.74224 0.56735 0.0
C1759 C 0.09196 0.79383 0.70179 0.0
H1760 H 0.16305 0.82885 0.60517 0.0
H1761 H 0.10086 0.82739 0.51247 0.0
H1762 H 0.14782 0.78998 0.70058 0.0
H1763 H 0.16099 0.77172 0.65185 0.0
H1764 H 0.17302 0.79967 0.66519 0.0
H1765 H 0.07587 0.79579 0.51306 0.0
H1766 H 0.0867 0.7689 0.53841 0.0
H1767 H 0.07151 0.78787 0.58222 0.0
H1768 H 0.11698 0.7095 0.63375 0.0
H1769 H 0.08107 0.75304 0.74496 0.0
H1770 H 0.15003 0.75071 0.57232 0.0
H1771 H 0.12456 0.75039 0.53244 0.0
H1772 H 0.13596 0.72382 0.55814 0.0
H1773 H 0.10746 0.80436 0.70989 0.0
H1774 H 0.08157 0.79289 0.73913 0.0
H1775 H 0.08181 0.8029 0.67068 0.0
C1776 C 0.26368 0.5811 0.95017 0.0
C1777 C 0.28523 0.59083 0.93908 0.0
C1778 C 0.24383 0.58825 0.92305 0.0
C1779 C 0.24546 0.60539 0.88304 0.0
C1780 C 0.2672 0.61482 0.87026 0.0
C1781 C 0.28679 0.60753 0.89857 0.0
C1782 C 0.221 0.57775 0.93809 0.0
C1783 C 0.26968 0.63294 0.8274 0.0
C1784 C 0.19366 0.60894 0.79022 0.0
C1785 C 0.18076 0.62652 0.8143 0.0
C1786 C 0.21528 0.60261 0.81052 0.0
C1787 C 0.22416 0.61393 0.85638 0.0
C1788 C 0.21168 0.63229 0.8795 0.0
C1789 C 0.19027 0.63845 0.85799 0.0
C1790 C 0.22816 0.58314 0.78424 0.0
C1791 C 0.22046 0.64479 0.9285 0.0
H1792 H 0.26223 0.56783 0.98032 0.0
H1793 H 0.30323 0.61532 0.88972 0.0
H1794 H 0.20924 0.59129 0.95311 0.0
H1795 H 0.21283 0.56995 0.90223 0.0
H1796 H 0.22269 0.56436 0.96954 0.0
H1797 H 0.28793 0.63739 0.81959 0.0
H1798 H 0.26176 0.62696 0.78937 0.0
H1799 H 0.26046 0.64872 0.83982 0.0
H1800 H 0.18648 0.59947 0.75676 0.0
H1801 H 0.18076 0.65242 0.87616 0.0
H1802 H 0.22836 0.5681 0.81147 0.0
H1803 H 0.24628 0.58812 0.77683 0.0
H1804 H 0.22026 0.57787 0.74556 0.0
H1805 H 0.22116 0.63278 0.96302 0.0
H1806 H 0.20942 0.65957 0.93967 0.0
H1807 H 0.23816 0.65111 0.92146 0.0
loop_
_geom_bond_atom_site_label_1
_geom_bond_atom_site_label_2
_geom_bond_distance
_geom_bond_site_symmetry_2
_ccdc_geom_bond_type
Co0 N4 2.148 . S
Co0 N10 2.128 . S
Co0 N20 2.194 1_556 S
Co0 O25 2.351 . S
Co0 O26 2.155 . S
Co0 O27 2.096 1_556 S
C1 N4 1.301 . S
C1 N5 1.328 . S
C1 H6 0.930 . S
C2 C3 1.333 . S
C2 N4 1.317 1_554 S
C2 H7 0.930 . S
C3 C2 1.333 . S
C3 N5 1.350 1_554 S
C3 H29 0.931 . S
N4 Co0 2.148 . S
N4 C1 1.301 . S
N4 C2 1.317 1_556 S
N5 C1 1.328 . S
N5 C3 1.350 1_556 S
H6 C1 0.930 . S
H7 C2 0.930 . S
C8 O9 1.224 . S
C8 O27 1.247 . S
O9 C8 1.224 . S
N10 Co0 2.128 . S
N10 C11 1.355 . S
N10 C13 1.311 1_556 S
C11 N10 1.355 . S
C11 C12 1.363 . S
C11 H23 0.929 . S
C12 C11 1.363 . S
C12 N14 1.375 1_556 S
C12 H30 0.931 . S
C13 N10 1.311 1_554 S
C13 N14 1.347 . S
C13 H24 0.929 . S
N14 C12 1.375 1_554 S
N14 C13 1.347 . S
C15 C18 1.365 . S
C15 N20 1.328 1_556 S
C15 H21 0.929 . S
C16 C17 1.362 . S
C16 C19 1.378 . S
C16 H31 0.929 . S
C17 C16 1.362 . S
C17 C18 1.366 1_554 S
C18 C15 1.365 . S
C18 C17 1.366 1_556 S
C18 H32 0.930 . S
C19 C16 1.378 . S
C19 N20 1.315 . S
C19 H22 0.930 . S
N20 Co0 2.194 1_554 S
N20 C15 1.328 1_554 S
N20 C19 1.315 . S
H21 C15 0.929 . S
H22 C19 0.930 . S
H23 C11 0.929 . S
H24 C13 0.929 . S
O25 Co0 2.351 . S
O25 C28 1.244 . S
O26 Co0 2.155 . S
O26 C28 1.240 . S
O27 Co0 2.096 1_554 S
O27 C8 1.247 . S
C28 O25 1.244 . S
C28 O26 1.240 . S
H29 C3 0.931 . S
H30 C12 0.931 . S
H31 C16 0.929 . S
H32 C18 0.930 . S
Co33 N37 2.148 . S
Co33 N43 2.128 . S
Co33 N53 2.194 . S
Co33 O58 2.351 . S
Co33 O59 2.155 . S
Co33 O60 2.096 . S
C34 N37 1.301 . S
C34 N38 1.328 . S
C34 H39 0.930 . S
C35 C36 1.333 . S
C35 N37 1.317 . S
C35 H40 0.930 . S
C36 C35 1.333 . S
C36 N38 1.350 . S
C36 H62 0.931 . S
N37 Co33 2.148 . S
N37 C34 1.301 . S
N37 C35 1.317 . S
N38 C34 1.328 . S
N38 C36 1.350 . S
H39 C34 0.930 . S
H40 C35 0.930 . S
C41 O42 1.224 . S
C41 O60 1.247 . S
O42 C41 1.224 . S
N43 Co33 2.128 . S
N43 C44 1.355 . S
N43 C46 1.311 . S
C44 N43 1.355 . S
C44 C45 1.363 . S
C44 H56 0.929 . S
C45 C44 1.363 . S
C45 N47 1.375 . S
C45 H63 0.931 . S
C46 N43 1.311 . S
C46 N47 1.347 . S
C46 H57 0.929 . S
N47 C45 1.375 . S
N47 C46 1.347 . S
C48 C51 1.365 . S
C48 N53 1.328 . S
C48 H54 0.929 . S
C49 C50 1.362 . S
C49 C52 1.378 . S
C49 H64 0.929 . S
C50 C49 1.362 . S
C50 C51 1.366 . S
C51 C48 1.365 . S
C51 C50 1.366 . S
C51 H65 0.930 . S
C52 C49 1.378 . S
C52 N53 1.315 . S
C52 H55 0.930 . S
N53 Co33 2.194 . S
N53 C48 1.328 . S
N53 C52 1.315 . S
H54 C48 0.929 . S
H55 C52 0.930 . S
H56 C44 0.929 . S
H57 C46 0.929 . S
O58 Co33 2.351 . S
O58 C61 1.244 . S
O59 Co33 2.155 . S
O59 C61 1.240 . S
O60 Co33 2.096 . S
O60 C41 1.247 . S
C61 O58 1.244 . S
C61 O59 1.240 . S
H62 C36 0.931 . S
H63 C45 0.931 . S
H64 C49 0.929 . S
H65 C51 0.930 . S
Co66 N70 2.148 . S
Co66 N76 2.128 . S
Co66 N86 2.194 . S
Co66 O91 2.351 . S
Co66 O92 2.155 . S
Co66 O93 2.096 . S
C67 N70 1.301 . S
C67 N71 1.328 . S
C67 H72 0.930 . S
C68 C69 1.333 . S
C68 N70 1.317 . S
C68 H73 0.930 . S
C69 C68 1.333 . S
C69 N71 1.350 . S
C69 H95 0.931 . S
N70 Co66 2.148 . S
N70 C67 1.301 . S
N70 C68 1.317 . S
N71 C67 1.328 . S
N71 C69 1.350 . S
H72 C67 0.930 . S
H73 C68 0.930 . S
C74 O75 1.224 . S
C74 O93 1.247 . S
O75 C74 1.224 . S
N76 Co66 2.128 . S
N76 C77 1.355 . S
N76 C79 1.311 . S
C77 N76 1.355 . S
C77 C78 1.363 . S
C77 H89 0.929 . S
C78 C77 1.363 . S
C78 N80 1.375 . S
C78 H96 0.931 . S
C79 N76 1.311 . S
C79 N80 1.347 . S
C79 H90 0.929 . S
N80 C78 1.375 . S
N80 C79 1.347 . S
C81 C84 1.365 . S
C81 N86 1.328 . S
C81 H87 0.929 . S
C82 C83 1.362 . S
C82 C85 1.378 . S
C82 H97 0.929 . S
C83 C82 1.362 . S
C83 C84 1.366 . S
C84 C81 1.365 . S
C84 C83 1.366 . S
C84 H98 0.930 . S
C85 C82 1.378 . S
C85 N86 1.315 . S
C85 H88 0.930 . S
N86 Co66 2.194 . S
N86 C81 1.328 . S
N86 C85 1.315 . S
H87 C81 0.929 . S
H88 C85 0.930 . S
H89 C77 0.929 . S
H90 C79 0.929 . S
O91 Co66 2.351 . S
O91 C94 1.244 . S
O92 Co66 2.155 . S
O92 C94 1.240 . S
O93 Co66 2.096 . S
O93 C74 1.247 . S
C94 O91 1.244 . S
C94 O92 1.240 . S
H95 C69 0.931 . S
H96 C78 0.931 . S
H97 C82 0.929 . S
H98 C84 0.930 . S
Co99 N103 2.148 . S
Co99 N109 2.128 . S
Co99 N119 2.194 . S
Co99 O124 2.351 . S
Co99 O125 2.155 . S
Co99 O126 2.096 . S
C100 N103 1.301 . S
C100 N104 1.328 . S
C100 H105 0.930 . S
C101 C102 1.333 . S
C101 N103 1.317 . S
C101 H106 0.930 . S
C102 C101 1.333 . S
C102 N104 1.350 . S
C102 H128 0.931 . S
N103 Co99 2.148 . S
N103 C100 1.301 . S
N103 C101 1.317 . S
N104 C100 1.328 . S
N104 C102 1.350 . S
H105 C100 0.930 . S
H106 C101 0.930 . S
C107 O108 1.224 . S
C107 O126 1.247 . S
O108 C107 1.224 . S
N109 Co99 2.128 . S
N109 C110 1.355 . S
N109 C112 1.311 . S
C110 N109 1.355 . S
C110 C111 1.363 . S
C110 H122 0.929 . S
C111 C110 1.363 . S
C111 N113 1.375 . S
C111 H129 0.931 . S
C112 N109 1.311 . S
C112 N113 1.347 . S
C112 H123 0.929 . S
N113 C111 1.375 . S
N113 C112 1.347 . S
C114 C117 1.365 . S
C114 N119 1.328 . S
C114 H120 0.929 . S
C115 C116 1.362 . S
C115 C118 1.378 . S
C115 H130 0.929 . S
C116 C115 1.362 . S
C116 C117 1.366 . S
C117 C114 1.365 . S
C117 C116 1.366 . S
C117 H131 0.930 . S
C118 C115 1.378 . S
C118 N119 1.315 . S
C118 H121 0.930 . S
N119 Co99 2.194 . S
N119 C114 1.328 . S
N119 C118 1.315 . S
H120 C114 0.929 . S
H121 C118 0.930 . S
H122 C110 0.929 . S
H123 C112 0.929 . S
O124 Co99 2.351 . S
O124 C127 1.244 . S
O125 Co99 2.155 . S
O125 C127 1.240 . S
O126 Co99 2.096 . S
O126 C107 1.247 . S
C127 O124 1.244 . S
C127 O125 1.240 . S
H128 C102 0.931 . S
H129 C111 0.931 . S
H130 C115 0.929 . S
H131 C117 0.930 . S
Co132 N136 2.148 . S
Co132 N142 2.128 . S
Co132 N152 2.194 . S
Co132 O157 2.351 . S
Co132 O158 2.155 . S
Co132 O159 2.096 . S
C133 N136 1.301 . S
C133 N137 1.328 . S
C133 H138 0.930 . S
C134 C135 1.333 . S
C134 N136 1.317 . S
C134 H139 0.930 . S
C135 C134 1.333 . S
C135 N137 1.350 . S
C135 H161 0.931 . S
N136 Co132 2.148 . S
N136 C133 1.301 . S
N136 C134 1.317 . S
N137 C133 1.328 . S
N137 C135 1.350 . S
H138 C133 0.930 . S
H139 C134 0.930 . S
C140 O141 1.224 . S
C140 O159 1.247 . S
O141 C140 1.224 . S
N142 Co132 2.128 . S
N142 C143 1.355 . S
N142 C145 1.311 . S
C143 N142 1.355 . S
C143 C144 1.363 . S
C143 H155 0.929 . S
C144 C143 1.363 . S
C144 N146 1.375 . S
C144 H162 0.931 . S
C145 N142 1.311 . S
C145 N146 1.347 . S
C145 H156 0.929 . S
N146 C144 1.375 . S
N146 C145 1.347 . S
C147 C150 1.365 . S
C147 N152 1.328 . S
C147 H153 0.929 . S
C148 C149 1.362 . S
C148 C151 1.378 . S
C148 H163 0.929 . S
C149 C148 1.362 . S
C149 C150 1.366 . S
C150 C147 1.365 . S
C150 C149 1.366 . S
C150 H164 0.930 . S
C151 C148 1.378 . S
C151 N152 1.315 . S
C151 H154 0.930 . S
N152 Co132 2.194 . S
N152 C147 1.328 . S
N152 C151 1.315 . S
H153 C147 0.929 . S
H154 C151 0.930 . S
H155 C143 0.929 . S
H156 C145 0.929 . S
O157 Co132 2.351 . S
O157 C160 1.244 . S
O158 Co132 2.155 . S
O158 C160 1.240 . S
O159 Co132 2.096 . S
O159 C140 1.247 . S
C160 O157 1.244 . S
C160 O158 1.240 . S
H161 C135 0.931 . S
H162 C144 0.931 . S
H163 C148 0.929 . S
H164 C150 0.930 . S
Co165 N169 2.148 . S
Co165 N175 2.128 . S
Co165 N185 2.194 . S
Co165 O190 2.351 . S
Co165 O191 2.155 . S
Co165 O192 2.096 . S
C166 N169 1.301 . S
C166 N170 1.328 . S
C166 H171 0.930 . S
C167 C168 1.333 . S
C167 N169 1.317 . S
C167 H172 0.930 . S
C168 C167 1.333 . S
C168 N170 1.350 . S
C168 H194 0.931 . S
N169 Co165 2.148 . S
N169 C166 1.301 . S
N169 C167 1.317 . S
N170 C166 1.328 . S
N170 C168 1.350 . S
H171 C166 0.930 . S
H172 C167 0.930 . S
C173 O174 1.224 . S
C173 O192 1.247 . S
O174 C173 1.224 . S
N175 Co165 2.128 . S
N175 C176 1.355 . S
N175 C178 1.311 . S
C176 N175 1.355 . S
C176 C177 1.363 . S
C176 H188 0.929 . S
C177 C176 1.363 . S
C177 N179 1.375 . S
C177 H195 0.931 . S
C178 N175 1.311 . S
C178 N179 1.347 . S
C178 H189 0.929 . S
N179 C177 1.375 . S
N179 C178 1.347 . S
C180 C183 1.365 . S
C180 N185 1.328 . S
C180 H186 0.929 . S
C181 C182 1.362 . S
C181 C184 1.378 . S
C181 H196 0.929 . S
C182 C181 1.362 . S
C182 C183 1.366 . S
C183 C180 1.365 . S
C183 C182 1.366 . S
C183 H197 0.930 . S
C184 C181 1.378 . S
C184 N185 1.315 . S
C184 H187 0.930 . S
N185 Co165 2.194 . S
N185 C180 1.328 . S
N185 C184 1.315 . S
H186 C180 0.929 . S
H187 C184 0.930 . S
H188 C176 0.929 . S
H189 C178 0.929 . S
O190 Co165 2.351 . S
O190 C193 1.244 . S
O191 Co165 2.155 . S
O191 C193 1.240 . S
O192 Co165 2.096 . S
O192 C173 1.247 . S
C193 O190 1.244 . S
C193 O191 1.240 . S
H194 C168 0.931 . S
H195 C177 0.931 . S
H196 C181 0.929 . S
H197 C183 0.930 . S
Co198 N202 2.148 . S
Co198 N208 2.128 . S
Co198 N218 2.194 1_556 S
Co198 O223 2.351 . S
Co198 O224 2.155 . S
Co198 O225 2.096 1_556 S
C199 N202 1.301 . S
C199 N203 1.328 . S
C199 H204 0.930 . S
C200 C201 1.333 . S
C200 N202 1.317 1_554 S
C200 H205 0.930 . S
C201 C200 1.333 . S
C201 N203 1.350 1_554 S
C201 H227 0.931 . S
N202 Co198 2.148 . S
N202 C199 1.301 . S
N202 C200 1.317 1_556 S
N203 C199 1.328 . S
N203 C201 1.350 1_556 S
H204 C199 0.930 . S
H205 C200 0.930 . S
C206 O207 1.224 . S
C206 O225 1.247 . S
O207 C206 1.224 . S
N208 Co198 2.128 . S
N208 C209 1.355 . S
N208 C211 1.311 1_556 S
C209 N208 1.355 . S
C209 C210 1.363 . S
C209 H221 0.929 . S
C210 C209 1.363 . S
C210 N212 1.375 1_556 S
C210 H228 0.931 . S
C211 N208 1.311 1_554 S
C211 N212 1.347 . S
C211 H222 0.929 . S
N212 C210 1.375 1_554 S
N212 C211 1.347 . S
C213 C216 1.365 . S
C213 N218 1.328 1_556 S
C213 H219 0.929 . S
C214 C215 1.362 . S
C214 C217 1.378 . S
C214 H229 0.929 . S
C215 C214 1.362 . S
C215 C216 1.366 1_554 S
C216 C213 1.365 . S
C216 C215 1.366 1_556 S
C216 H230 0.930 . S
C217 C214 1.378 . S
C217 N218 1.315 . S
C217 H220 0.930 . S
N218 Co198 2.194 1_554 S
N218 C213 1.328 1_554 S
N218 C217 1.315 . S
H219 C213 0.929 . S
H220 C217 0.930 . S
H221 C209 0.929 . S
H222 C211 0.929 . S
O223 Co198 2.351 . S
O223 C226 1.244 . S
O224 Co198 2.155 . S
O224 C226 1.240 . S
O225 Co198 2.096 1_554 S
O225 C206 1.247 . S
C226 O223 1.244 . S
C226 O224 1.240 . S
H227 C201 0.931 . S
H228 C210 0.931 . S
H229 C214 0.929 . S
H230 C216 0.930 . S
Co231 N235 2.148 . S
Co231 N241 2.128 . S
Co231 N251 2.194 . S
Co231 O256 2.351 . S
Co231 O257 2.155 . S
Co231 O258 2.096 . S
C232 N235 1.301 . S
C232 N236 1.328 . S
C232 H237 0.930 . S
C233 C234 1.333 . S
C233 N235 1.317 . S
C233 H238 0.930 . S
C234 C233 1.333 . S
C234 N236 1.350 . S
C234 H260 0.931 . S
N235 Co231 2.148 . S
N235 C232 1.301 . S
N235 C233 1.317 . S
N236 C232 1.328 . S
N236 C234 1.350 . S
H237 C232 0.930 . S
H238 C233 0.930 . S
C239 O240 1.224 . S
C239 O258 1.247 . S
O240 C239 1.224 . S
N241 Co231 2.128 . S
N241 C242 1.355 . S
N241 C244 1.311 . S
C242 N241 1.355 . S
C242 C243 1.363 . S
C242 H254 0.929 . S
C243 C242 1.363 . S
C243 N245 1.375 . S
C243 H261 0.931 . S
C244 N241 1.311 . S
C244 N245 1.347 . S
C244 H255 0.929 . S
N245 C243 1.375 . S
N245 C244 1.347 . S
C246 C249 1.365 . S
C246 N251 1.328 . S
C246 H252 0.929 . S
C247 C248 1.362 . S
C247 C250 1.378 . S
C247 H262 0.929 . S
C248 C247 1.362 . S
C248 C249 1.366 . S
C249 C246 1.365 . S
C249 C248 1.366 . S
C249 H263 0.930 . S
C250 C247 1.378 . S
C250 N251 1.315 . S
C250 H253 0.930 . S
N251 Co231 2.194 . S
N251 C246 1.328 . S
N251 C250 1.315 . S
H252 C246 0.929 . S
H253 C250 0.930 . S
H254 C242 0.929 . S
H255 C244 0.929 . S
O256 Co231 2.351 . S
O256 C259 1.244 . S
O257 Co231 2.155 . S
O257 C259 1.240 . S
O258 Co231 2.096 . S
O258 C239 1.247 . S
C259 O256 1.244 . S
C259 O257 1.240 . S
H260 C234 0.931 . S
H261 C243 0.931 . S
H262 C247 0.929 . S
H263 C249 0.930 . S
Co264 N268 2.148 . S
Co264 N274 2.128 . S
Co264 N284 2.194 . S
Co264 O289 2.351 . S
Co264 O290 2.155 . S
Co264 O291 2.096 . S
C265 N268 1.301 . S
C265 N269 1.328 . S
C265 H270 0.930 . S
C266 C267 1.333 . S
C266 N268 1.317 . S
C266 H271 0.930 . S
C267 C266 1.333 . S
C267 N269 1.350 . S
C267 H293 0.931 . S
N268 Co264 2.148 . S
N268 C265 1.301 . S
N268 C266 1.317 . S
N269 C265 1.328 . S
N269 C267 1.350 . S
H270 C265 0.930 . S
H271 C266 0.930 . S
C272 O273 1.224 . S
C272 O291 1.247 . S
O273 C272 1.224 . S
N274 Co264 2.128 . S
N274 C275 1.355 . S
N274 C277 1.311 . S
C275 N274 1.355 . S
C275 C276 1.363 . S
C275 H287 0.929 . S
C276 C275 1.363 . S
C276 N278 1.375 . S
C276 H294 0.931 . S
C277 N274 1.311 . S
C277 N278 1.347 . S
C277 H288 0.929 . S
N278 C276 1.375 . S
N278 C277 1.347 . S
C279 C282 1.365 . S
C279 N284 1.328 . S
C279 H285 0.929 . S
C280 C281 1.362 . S
C280 C283 1.378 . S
C280 H295 0.929 . S
C281 C280 1.362 . S
C281 C282 1.366 . S
C282 C279 1.365 . S
C282 C281 1.366 . S
C282 H296 0.930 . S
C283 C280 1.378 . S
C283 N284 1.315 . S
C283 H286 0.930 . S
N284 Co264 2.194 . S
N284 C279 1.328 . S
N284 C283 1.315 . S
H285 C279 0.929 . S
H286 C283 0.930 . S
H287 C275 0.929 . S
H288 C277 0.929 . S
O289 Co264 2.351 . S
O289 C292 1.244 . S
O290 Co264 2.155 . S
O290 C292 1.240 . S
O291 Co264 2.096 . S
O291 C272 1.247 . S
C292 O289 1.244 . S
C292 O290 1.240 . S
H293 C267 0.931 . S
H294 C276 0.931 . S
H295 C280 0.929 . S
H296 C282 0.930 . S
Co297 N301 2.148 . S
Co297 N307 2.128 . S
Co297 N317 2.194 . S
Co297 O322 2.351 . S
Co297 O323 2.155 . S
Co297 O324 2.096 . S
C298 N301 1.301 . S
C298 N302 1.328 . S
C298 H303 0.930 . S
C299 C300 1.333 . S
C299 N301 1.317 . S
C299 H304 0.930 . S
C300 C299 1.333 . S
C300 N302 1.350 . S
C300 H326 0.931 . S
N301 Co297 2.148 . S
N301 C298 1.301 . S
N301 C299 1.317 . S
N302 C298 1.328 . S
N302 C300 1.350 . S
H303 C298 0.930 . S
H304 C299 0.930 . S
C305 O306 1.224 . S
C305 O324 1.247 . S
O306 C305 1.224 . S
N307 Co297 2.128 . S
N307 C308 1.355 . S
N307 C310 1.311 . S
C308 N307 1.355 . S
C308 C309 1.363 . S
C308 H320 0.929 . S
C309 C308 1.363 . S
C309 N311 1.375 . S
C309 H327 0.931 . S
C310 N307 1.311 . S
C310 N311 1.347 . S
C310 H321 0.929 . S
N311 C309 1.375 . S
N311 C310 1.347 . S
C312 C315 1.365 . S
C312 N317 1.328 . S
C312 H318 0.929 . S
C313 C314 1.362 . S
C313 C316 1.378 . S
C313 H328 0.929 . S
C314 C313 1.362 . S
C314 C315 1.366 . S
C315 C312 1.365 . S
C315 C314 1.366 . S
C315 H329 0.930 . S
C316 C313 1.378 . S
C316 N317 1.315 . S
C316 H319 0.930 . S
N317 Co297 2.194 . S
N317 C312 1.328 . S
N317 C316 1.315 . S
H318 C312 0.929 . S
H319 C316 0.930 . S
H320 C308 0.929 . S
H321 C310 0.929 . S
O322 Co297 2.351 . S
O322 C325 1.244 . S
O323 Co297 2.155 . S
O323 C325 1.240 . S
O324 Co297 2.096 . S
O324 C305 1.247 . S
C325 O322 1.244 . S
C325 O323 1.240 . S
H326 C300 0.931 . S
H327 C309 0.931 . S
H328 C313 0.929 . S
H329 C315 0.930 . S
Co330 N334 2.148 . S
Co330 N340 2.128 . S
Co330 N350 2.194 1_556 S
Co330 O355 2.351 . S
Co330 O356 2.155 . S
Co330 O357 2.096 1_556 S
C331 N334 1.301 . S
C331 N335 1.328 . S
C331 H336 0.930 . S
C332 C333 1.333 . S
C332 N334 1.317 1_554 S
C332 H337 0.930 . S
C333 C332 1.333 . S
C333 N335 1.350 1_554 S
C333 H359 0.931 . S
N334 Co330 2.148 . S
N334 C331 1.301 . S
N334 C332 1.317 1_556 S
N335 C331 1.328 . S
N335 C333 1.350 1_556 S
H336 C331 0.930 . S
H337 C332 0.930 . S
C338 O339 1.224 . S
C338 O357 1.247 . S
O339 C338 1.224 . S
N340 Co330 2.128 . S
N340 C341 1.355 . S
N340 C343 1.311 1_556 S
C341 N340 1.355 . S
C341 C342 1.363 . S
C341 H353 0.929 . S
C342 C341 1.363 . S
C342 N344 1.375 1_556 S
C342 H360 0.931 . S
C343 N340 1.311 1_554 S
C343 N344 1.347 . S
C343 H354 0.929 . S
N344 C342 1.375 1_554 S
N344 C343 1.347 . S
C345 C348 1.365 . S
C345 N350 1.328 1_556 S
C345 H351 0.929 . S
C346 C347 1.362 . S
C346 C349 1.378 . S
C346 H361 0.929 . S
C347 C346 1.362 . S
C347 C348 1.366 1_554 S
C348 C345 1.365 . S
C348 C347 1.366 1_556 S
C348 H362 0.930 . S
C349 C346 1.378 . S
C349 N350 1.315 . S
C349 H352 0.930 . S
N350 Co330 2.194 1_554 S
N350 C345 1.328 1_554 S
N350 C349 1.315 . S
H351 C345 0.929 . S
H352 C349 0.930 . S
H353 C341 0.929 . S
H354 C343 0.929 . S
O355 Co330 2.351 . S
O355 C358 1.244 . S
O356 Co330 2.155 . S
O356 C358 1.240 . S
O357 Co330 2.096 1_554 S
O357 C338 1.247 . S
C358 O355 1.244 . S
C358 O356 1.240 . S
H359 C333 0.931 . S
H360 C342 0.931 . S
H361 C346 0.929 . S
H362 C348 0.930 . S
Co363 N367 2.148 . S
Co363 N373 2.128 . S
Co363 N383 2.194 . S
Co363 O388 2.351 . S
Co363 O389 2.155 . S
Co363 O390 2.096 . S
C364 N367 1.301 . S
C364 N368 1.328 . S
C364 H369 0.930 . S
C365 C366 1.333 . S
C365 N367 1.317 . S
C365 H370 0.930 . S
C366 C365 1.333 . S
C366 N368 1.350 . S
C366 H392 0.931 . S
N367 Co363 2.148 . S
N367 C364 1.301 . S
N367 C365 1.317 . S
N368 C364 1.328 . S
N368 C366 1.350 . S
H369 C364 0.930 . S
H370 C365 0.930 . S
C371 O372 1.224 . S
C371 O390 1.247 . S
O372 C371 1.224 . S
N373 Co363 2.128 . S
N373 C374 1.355 . S
N373 C376 1.311 . S
C374 N373 1.355 . S
C374 C375 1.363 . S
C374 H386 0.929 . S
C375 C374 1.363 . S
C375 N377 1.375 . S
C375 H393 0.931 . S
C376 N373 1.311 . S
C376 N377 1.347 . S
C376 H387 0.929 . S
N377 C375 1.375 . S
N377 C376 1.347 . S
C378 C381 1.365 . S
C378 N383 1.328 . S
C378 H384 0.929 . S
C379 C380 1.362 . S
C379 C382 1.378 . S
C379 H394 0.929 . S
C380 C379 1.362 . S
C380 C381 1.366 . S
C381 C378 1.365 . S
C381 C380 1.366 . S
C381 H395 0.930 . S
C382 C379 1.378 . S
C382 N383 1.315 . S
C382 H385 0.930 . S
N383 Co363 2.194 . S
N383 C378 1.328 . S
N383 C382 1.315 . S
H384 C378 0.929 . S
H385 C382 0.930 . S
H386 C374 0.929 . S
H387 C376 0.929 . S
O388 Co363 2.351 . S
O388 C391 1.244 . S
O389 Co363 2.155 . S
O389 C391 1.240 . S
O390 Co363 2.096 . S
O390 C371 1.247 . S
C391 O388 1.244 . S
C391 O389 1.240 . S
H392 C366 0.931 . S
H393 C375 0.931 . S
H394 C379 0.929 . S
H395 C381 0.930 . S
Co396 N400 2.148 . S
Co396 N406 2.128 . S
Co396 N416 2.194 1_556 S
Co396 O421 2.351 . S
Co396 O422 2.155 . S
Co396 O423 2.096 1_556 S
C397 N400 1.301 . S
C397 N401 1.328 . S
C397 H402 0.930 . S
C398 C399 1.333 . S
C398 N400 1.317 1_554 S
C398 H403 0.930 . S
C399 C398 1.333 . S
C399 N401 1.350 1_554 S
C399 H425 0.931 . S
N400 Co396 2.148 . S
N400 C397 1.301 . S
N400 C398 1.317 1_556 S
N401 C397 1.328 . S
N401 C399 1.350 1_556 S
H402 C397 0.930 . S
H403 C398 0.930 . S
C404 O405 1.224 . S
C404 O423 1.247 . S
O405 C404 1.224 . S
N406 Co396 2.128 . S
N406 C407 1.355 . S
N406 C409 1.311 1_556 S
C407 N406 1.355 . S
C407 C408 1.363 . S
C407 H419 0.929 . S
C408 C407 1.363 . S
C408 N410 1.375 1_556 S
C408 H426 0.931 . S
C409 N406 1.311 1_554 S
C409 N410 1.347 . S
C409 H420 0.929 . S
N410 C408 1.375 1_554 S
N410 C409 1.347 . S
C411 C414 1.365 . S
C411 N416 1.328 1_556 S
C411 H417 0.929 . S
C412 C413 1.362 . S
C412 C415 1.378 . S
C412 H427 0.929 . S
C413 C412 1.362 . S
C413 C414 1.366 1_554 S
C414 C411 1.365 . S
C414 C413 1.366 1_556 S
C414 H428 0.930 . S
C415 C412 1.378 . S
C415 N416 1.315 . S
C415 H418 0.930 . S
N416 Co396 2.194 1_554 S
N416 C411 1.328 1_554 S
N416 C415 1.315 . S
H417 C411 0.929 . S
H418 C415 0.930 . S
H419 C407 0.929 . S
H420 C409 0.929 . S
O421 Co396 2.351 . S
O421 C424 1.244 . S
O422 Co396 2.155 . S
O422 C424 1.240 . S
O423 Co396 2.096 1_554 S
O423 C404 1.247 . S
C424 O421 1.244 . S
C424 O422 1.240 . S
H425 C399 0.931 . S
H426 C408 0.931 . S
H427 C412 0.929 . S
H428 C414 0.930 . S
Co429 N433 2.148 . S
Co429 N439 2.128 . S
Co429 N449 2.194 . S
Co429 O454 2.351 . S
Co429 O455 2.155 . S
Co429 O456 2.096 . S
C430 N433 1.301 . S
C430 N434 1.328 . S
C430 H435 0.930 . S
C431 C432 1.333 . S
C431 N433 1.317 . S
C431 H436 0.930 . S
C432 C431 1.333 . S
C432 N434 1.350 . S
C432 H458 0.931 . S
N433 Co429 2.148 . S
N433 C430 1.301 . S
N433 C431 1.317 . S
N434 C430 1.328 . S
N434 C432 1.350 . S
H435 C430 0.930 . S
H436 C431 0.930 . S
C437 O438 1.224 . S
C437 O456 1.247 . S
O438 C437 1.224 . S
N439 Co429 2.128 . S
N439 C440 1.355 . S
N439 C442 1.311 . S
C440 N439 1.355 . S
C440 C441 1.363 . S
C440 H452 0.929 . S
C441 C440 1.363 . S
C441 N443 1.375 . S
C441 H459 0.931 . S
C442 N439 1.311 . S
C442 N443 1.347 . S
C442 H453 0.929 . S
N443 C441 1.375 . S
N443 C442 1.347 . S
C444 C447 1.365 . S
C444 N449 1.328 . S
C444 H450 0.929 . S
C445 C446 1.362 . S
C445 C448 1.378 . S
C445 H460 0.929 . S
C446 C445 1.362 . S
C446 C447 1.366 . S
C447 C444 1.365 . S
C447 C446 1.366 . S
C447 H461 0.930 . S
C448 C445 1.378 . S
C448 N449 1.315 . S
C448 H451 0.930 . S
N449 Co429 2.194 . S
N449 C444 1.328 . S
N449 C448 1.315 . S
H450 C444 0.929 . S
H451 C448 0.930 . S
H452 C440 0.929 . S
H453 C442 0.929 . S
O454 Co429 2.351 . S
O454 C457 1.244 . S
O455 Co429 2.155 . S
O455 C457 1.240 . S
O456 Co429 2.096 . S
O456 C437 1.247 . S
C457 O454 1.244 . S
C457 O455 1.240 . S
H458 C432 0.931 . S
H459 C441 0.931 . S
H460 C445 0.929 . S
H461 C447 0.930 . S
Co462 N466 2.148 . S
Co462 N472 2.128 . S
Co462 N482 2.194 . S
Co462 O487 2.351 . S
Co462 O488 2.155 . S
Co462 O489 2.096 . S
C463 N466 1.301 . S
C463 N467 1.328 . S
C463 H468 0.930 . S
C464 C465 1.333 . S
C464 N466 1.317 . S
C464 H469 0.930 . S
C465 C464 1.333 . S
C465 N467 1.350 . S
C465 H491 0.931 . S
N466 Co462 2.148 . S
N466 C463 1.301 . S
N466 C464 1.317 . S
N467 C463 1.328 . S
N467 C465 1.350 . S
H468 C463 0.930 . S
H469 C464 0.930 . S
C470 O471 1.224 . S
C470 O489 1.247 . S
O471 C470 1.224 . S
N472 Co462 2.128 . S
N472 C473 1.355 . S
N472 C475 1.311 . S
C473 N472 1.355 . S
C473 C474 1.363 . S
C473 H485 0.929 . S
C474 C473 1.363 . S
C474 N476 1.375 . S
C474 H492 0.931 . S
C475 N472 1.311 . S
C475 N476 1.347 . S
C475 H486 0.929 . S
N476 C474 1.375 . S
N476 C475 1.347 . S
C477 C480 1.365 . S
C477 N482 1.328 . S
C477 H483 0.929 . S
C478 C479 1.362 . S
C478 C481 1.378 . S
C478 H493 0.929 . S
C479 C478 1.362 . S
C479 C480 1.366 . S
C480 C477 1.365 . S
C480 C479 1.366 . S
C480 H494 0.930 . S
C481 C478 1.378 . S
C481 N482 1.315 . S
C481 H484 0.930 . S
N482 Co462 2.194 . S
N482 C477 1.328 . S
N482 C481 1.315 . S
H483 C477 0.929 . S
H484 C481 0.930 . S
H485 C473 0.929 . S
H486 C475 0.929 . S
O487 Co462 2.351 . S
O487 C490 1.244 . S
O488 Co462 2.155 . S
O488 C490 1.240 . S
O489 Co462 2.096 . S
O489 C470 1.247 . S
C490 O487 1.244 . S
C490 O488 1.240 . S
H491 C465 0.931 . S
H492 C474 0.931 . S
H493 C478 0.929 . S
H494 C480 0.930 . S
Co495 N499 2.148 . S
Co495 N505 2.128 . S
Co495 N515 2.194 . S
Co495 O520 2.351 . S
Co495 O521 2.155 . S
Co495 O522 2.096 . S
C496 N499 1.301 . S
C496 N500 1.328 . S
C496 H501 0.930 . S
C497 C498 1.333 . S
C497 N499 1.317 . S
C497 H502 0.930 . S
C498 C497 1.333 . S
C498 N500 1.350 . S
C498 H524 0.931 . S
N499 Co495 2.148 . S
N499 C496 1.301 . S
N499 C497 1.317 . S
N500 C496 1.328 . S
N500 C498 1.350 . S
H501 C496 0.930 . S
H502 C497 0.930 . S
C503 O504 1.224 . S
C503 O522 1.247 . S
O504 C503 1.224 . S
N505 Co495 2.128 . S
N505 C506 1.355 . S
N505 C508 1.311 . S
C506 N505 1.355 . S
C506 C507 1.363 . S
C506 H518 0.929 . S
C507 C506 1.363 . S
C507 N509 1.375 . S
C507 H525 0.931 . S
C508 N505 1.311 . S
C508 N509 1.347 . S
C508 H519 0.929 . S
N509 C507 1.375 . S
N509 C508 1.347 . S
C510 C513 1.365 . S
C510 N515 1.328 . S
C510 H516 0.929 . S
C511 C512 1.362 . S
C511 C514 1.378 . S
C511 H526 0.929 . S
C512 C511 1.362 . S
C512 C513 1.366 . S
C513 C510 1.365 . S
C513 C512 1.366 . S
C513 H527 0.930 . S
C514 C511 1.378 . S
C514 N515 1.315 . S
C514 H517 0.930 . S
N515 Co495 2.194 . S
N515 C510 1.328 . S
N515 C514 1.315 . S
H516 C510 0.929 . S
H517 C514 0.930 . S
H518 C506 0.929 . S
H519 C508 0.929 . S
O520 Co495 2.351 . S
O520 C523 1.244 . S
O521 Co495 2.155 . S
O521 C523 1.240 . S
O522 Co495 2.096 . S
O522 C503 1.247 . S
C523 O520 1.244 . S
C523 O521 1.240 . S
H524 C498 0.931 . S
H525 C507 0.931 . S
H526 C511 0.929 . S
H527 C513 0.930 . S
C528 C529 1.391 . S
C528 C530 1.394 1_565 S
C528 H544 0.931 . S
C529 C528 1.391 . S
C529 C533 1.376 . S
C530 C528 1.394 1_545 S
C530 C531 1.369 1_545 S
C530 C534 1.531 . S
C531 C530 1.369 1_565 S
C531 C532 1.410 . S
C531 C539 1.503 1_665 S
C532 C531 1.410 . S
C532 C533 1.392 . S
C532 C535 1.511 1_654 S
C533 C529 1.376 . S
C533 C532 1.392 . S
C533 H545 0.929 1_554 S
C534 C530 1.531 . S
C534 H546 0.960 . S
C534 H547 0.962 . S
C534 H548 0.960 . S
C535 C532 1.511 1_456 S
C535 H549 0.961 . S
C535 H550 0.961 . S
C535 H551 0.961 1_556 S
C536 C537 1.369 1_556 S
C536 C538 1.363 1_556 S
C536 H552 0.933 . S
C537 C536 1.369 1_554 S
C537 C541 1.408 . S
C538 C536 1.363 1_554 S
C538 C539 1.370 . S
C538 C542 1.524 1_454 S
C539 C531 1.503 1_445 S
C539 C538 1.370 . S
C539 C540 1.407 . S
C540 C539 1.407 . S
C540 C541 1.418 . S
C540 C543 1.520 1_545 S
C541 C537 1.408 . S
C541 C540 1.418 . S
C541 H553 0.930 . S
C542 C538 1.524 1_656 S
C542 H554 0.956 . S
C542 H555 0.961 . S
C542 H556 0.961 1_655 S
C543 C540 1.520 1_565 S
C543 H557 0.958 . S
C543 H558 0.961 . S
C543 H559 0.960 . S
H544 C528 0.931 . S
H545 C533 0.929 1_556 S
H546 C534 0.960 . S
H547 C534 0.962 . S
H548 C534 0.960 . S
H549 C535 0.961 . S
H550 C535 0.961 . S
H551 C535 0.961 1_554 S
H552 C536 0.933 . S
H553 C541 0.930 . S
H554 C542 0.956 . S
H555 C542 0.961 . S
H556 C542 0.961 1_455 S
H557 C543 0.958 . S
H558 C543 0.961 . S
H559 C543 0.960 . S
C560 C561 1.391 . S
C560 C562 1.394 . S
C560 H576 0.931 . S
C561 C560 1.391 . S
C561 C565 1.376 . S
C562 C560 1.394 . S
C562 C563 1.369 . S
C562 C566 1.531 1_655 S
C563 C562 1.369 . S
C563 C564 1.410 . S
C563 C571 1.503 1_655 S
C564 C563 1.410 . S
C564 C565 1.392 . S
C564 C567 1.511 . S
C565 C561 1.376 . S
C565 C564 1.392 . S
C565 H577 0.929 . S
C566 C562 1.531 1_455 S
C566 H578 0.960 . S
C566 H579 0.962 . S
C566 H580 0.960 . S
C567 C564 1.511 . S
C567 H581 0.961 . S
C567 H582 0.961 . S
C567 H583 0.938 1_655 S
C568 C569 1.370 . S
C568 C570 1.363 1_455 S
C568 H584 0.931 1_455 S
C569 C568 1.370 . S
C569 C573 1.408 . S
C570 C568 1.363 1_655 S
C570 C571 1.370 1_655 S
C570 C574 1.524 . S
C571 C563 1.503 1_455 S
C571 C570 1.370 1_455 S
C571 C572 1.403 . S
C572 C571 1.403 . S
C572 C573 1.404 . S
C572 C575 1.539 . S
C573 C569 1.408 . S
C573 C572 1.404 . S
C573 H585 0.930 . S
C574 C570 1.524 . S
C574 H586 0.956 . S
C574 H587 0.961 . S
C574 H588 0.961 . S
C575 C572 1.539 . S
C575 H589 0.958 . S
C575 H590 0.961 . S
C575 H591 0.960 . S
H576 C560 0.931 . S
H577 C565 0.929 . S
H578 C566 0.960 . S
H579 C566 0.962 . S
H580 C566 0.960 . S
H581 C567 0.961 . S
H582 C567 0.961 . S
H583 C567 0.938 1_455 S
H584 C568 0.931 1_655 S
H585 C573 0.930 . S
H586 C574 0.956 . S
H587 C574 0.961 . S
H588 C574 0.961 . S
H589 C575 0.958 . S
H590 C575 0.961 . S
H591 C575 0.960 . S
C592 C593 1.391 . S
C592 C594 1.394 . S
C592 H608 0.931 . S
C593 C592 1.391 . S
C593 C597 1.376 . S
C594 C592 1.394 . S
C594 C595 1.369 . S
C594 C598 1.531 . S
C595 C594 1.369 . S
C595 C596 1.410 . S
C595 C603 1.503 . S
C596 C595 1.410 . S
C596 C597 1.392 . S
C596 C599 1.511 . S
C597 C593 1.376 . S
C597 C596 1.392 . S
C597 H609 0.929 . S
C598 C594 1.531 . S
C598 H610 0.960 . S
C598 H611 0.962 . S
C598 H612 0.960 . S
C599 C596 1.511 . S
C599 H613 0.961 . S
C599 H614 0.961 . S
C599 H615 0.961 . S
C600 C601 1.370 . S
C600 C602 1.363 . S
C600 H616 0.931 . S
C601 C600 1.370 . S
C601 C605 1.408 . S
C602 C600 1.363 . S
C602 C603 1.370 . S
C602 C606 1.524 . S
C603 C595 1.503 . S
C603 C602 1.370 . S
C603 C604 1.403 . S
C604 C603 1.403 . S
C604 C605 1.404 . S
C604 C607 1.539 . S
C605 C601 1.408 . S
C605 C604 1.404 . S
C605 H617 0.930 . S
C606 C602 1.524 . S
C606 H618 0.956 . S
C606 H619 0.961 . S
C606 H620 0.961 . S
C607 C604 1.539 . S
C607 H621 0.958 . S
C607 H622 0.961 . S
C607 H623 0.960 . S
H608 C592 0.931 . S
H609 C597 0.929 . S
H610 C598 0.960 . S
H611 C598 0.962 . S
H612 C598 0.960 . S
H613 C599 0.961 . S
H614 C599 0.961 . S
H615 C599 0.961 . S
H616 C600 0.931 . S
H617 C605 0.930 . S
H618 C606 0.956 . S
H619 C606 0.961 . S
H620 C606 0.961 . S
H621 C607 0.958 . S
H622 C607 0.961 . S
H623 C607 0.960 . S
C624 C625 1.391 . S
C624 C626 1.394 . S
C624 H640 0.931 . S
C625 C624 1.391 . S
C625 C629 1.376 . S
C626 C624 1.394 . S
C626 C627 1.369 . S
C626 C630 1.531 1_565 S
C627 C626 1.369 . S
C627 C628 1.410 . S
C627 C635 1.503 1_565 S
C628 C627 1.410 . S
C628 C629 1.392 . S
C628 C631 1.511 . S
C629 C625 1.376 . S
C629 C628 1.392 . S
C629 H641 0.929 . S
C630 C626 1.531 1_545 S
C630 H642 0.960 . S
C630 H643 0.962 . S
C630 H644 0.960 . S
C631 C628 1.511 . S
C631 H645 0.961 . S
C631 H646 0.961 . S
C631 H647 0.961 . S
C632 C633 1.370 . S
C632 C634 1.363 . S
C632 H648 0.931 . S
C633 C632 1.370 . S
C633 C637 1.408 . S
C634 C632 1.363 . S
C634 C635 1.370 . S
C634 C638 1.524 . S
C635 C627 1.503 1_545 S
C635 C634 1.370 . S
C635 C636 1.403 . S
C636 C635 1.403 . S
C636 C637 1.404 . S
C636 C639 1.539 . S
C637 C633 1.408 . S
C637 C636 1.404 . S
C637 H649 0.930 . S
C638 C634 1.524 . S
C638 H650 0.956 . S
C638 H651 0.961 1_545 S
C638 H652 0.961 . S
C639 C636 1.539 . S
C639 H653 0.958 . S
C639 H654 0.961 . S
C639 H655 0.960 1_545 S
H640 C624 0.931 . S
H641 C629 0.929 . S
H642 C630 0.960 . S
H643 C630 0.962 . S
H644 C630 0.960 . S
H645 C631 0.961 . S
H646 C631 0.961 . S
H647 C631 0.961 . S
H648 C632 0.931 . S
H649 C637 0.930 . S
H650 C638 0.956 . S
H651 C638 0.961 1_565 S
H652 C638 0.961 . S
H653 C639 0.958 . S
H654 C639 0.961 . S
H655 C639 0.960 1_565 S
C656 C657 1.391 . S
C656 C658 1.394 . S
C656 H672 0.931 . S
C657 C656 1.391 . S
C657 C661 1.376 . S
C658 C656 1.394 . S
C658 C659 1.369 . S
C658 C662 1.531 1_455 S
C659 C658 1.369 . S
C659 C660 1.410 1_565 S
C659 C667 1.503 1_465 S
C660 C659 1.410 1_545 S
C660 C661 1.392 1_545 S
C660 C663 1.511 . S
C661 C657 1.376 . S
C661 C660 1.392 1_565 S
C661 H673 0.932 . S
C662 C658 1.531 1_655 S
C662 H674 0.960 . S
C662 H675 0.962 . S
C662 H676 0.960 1_655 S
C663 C660 1.511 . S
C663 H677 0.961 . S
C663 H678 0.961 . S
C663 H679 0.961 . S
C664 C665 1.370 . S
C664 C666 1.363 . S
C664 H680 0.931 . S
C665 C664 1.370 . S
C665 C669 1.408 . S
C666 C664 1.363 . S
C666 C667 1.370 . S
C666 C670 1.524 1_545 S
C667 C659 1.503 1_645 S
C667 C666 1.370 . S
C667 C668 1.403 . S
C668 C667 1.403 . S
C668 C669 1.404 . S
C668 C671 1.529 1_655 S
C669 C665 1.408 . S
C669 C668 1.404 . S
C669 H681 0.930 . S
C670 C666 1.524 1_565 S
C670 H682 0.956 . S
C670 H683 0.961 . S
C670 H684 0.961 . S
C671 C668 1.529 1_455 S
C671 H685 0.956 1_455 S
C671 H686 0.959 1_455 S
C671 H687 0.974 . S
H672 C656 0.931 . S
H673 C661 0.932 . S
H674 C662 0.960 . S
H675 C662 0.962 . S
H676 C662 0.960 1_455 S
H677 C663 0.961 . S
H678 C663 0.961 . S
H679 C663 0.961 . S
H680 C664 0.931 . S
H681 C669 0.930 . S
H682 C670 0.956 . S
H683 C670 0.961 . S
H684 C670 0.961 . S
H685 C671 0.956 1_655 S
H686 C671 0.959 1_655 S
H687 C671 0.974 . S
C688 C689 1.391 . S
C688 C690 1.394 . S
C688 H704 0.931 . S
C689 C688 1.391 . S
C689 C693 1.376 . S
C690 C688 1.394 . S
C690 C691 1.369 . S
C690 C694 1.531 . S
C691 C690 1.369 . S
C691 C692 1.410 1_655 S
C691 C699 1.503 1_655 S
C692 C691 1.410 1_455 S
C692 C693 1.392 1_455 S
C692 C695 1.511 . S
C693 C689 1.376 . S
C693 C692 1.392 1_655 S
C693 H705 0.929 1_655 S
C694 C690 1.531 . S
C694 H706 0.960 . S
C694 H707 0.962 . S
C694 H708 0.960 . S
C695 C692 1.511 . S
C695 H709 0.961 . S
C695 H710 0.961 . S
C695 H711 0.961 . S
C696 C697 1.370 . S
C696 C698 1.363 . S
C696 H712 0.931 . S
C697 C696 1.370 . S
C697 C701 1.408 . S
C698 C696 1.363 . S
C698 C699 1.370 . S
C698 C702 1.524 . S
C699 C691 1.503 1_455 S
C699 C698 1.370 . S
C699 C700 1.403 . S
C700 C699 1.403 . S
C700 C701 1.404 . S
C700 C703 1.539 . S
C701 C697 1.408 . S
C701 C700 1.404 . S
C701 H713 0.930 . S
C702 C698 1.524 . S
C702 H714 0.956 1_455 S
C702 H715 0.961 . S
C702 H716 0.961 . S
C703 C700 1.539 . S
C703 H717 0.958 1_455 S
C703 H718 0.961 . S
C703 H719 0.960 . S
H704 C688 0.931 . S
H705 C693 0.929 1_455 S
H706 C694 0.960 . S
H707 C694 0.962 . S
H708 C694 0.960 . S
H709 C695 0.961 . S
H710 C695 0.961 . S
H711 C695 0.961 . S
H712 C696 0.931 . S
H713 C701 0.930 . S
H714 C702 0.956 1_655 S
H715 C702 0.961 . S
H716 C702 0.961 . S
H717 C703 0.958 1_655 S
H718 C703 0.961 . S
H719 C703 0.960 . S
C720 C721 1.391 . S
C720 C722 1.394 . S
C720 H736 0.931 . S
C721 C720 1.391 . S
C721 C725 1.376 . S
C722 C720 1.394 . S
C722 C723 1.369 . S
C722 C726 1.531 . S
C723 C722 1.369 . S
C723 C724 1.410 . S
C723 C731 1.503 . S
C724 C723 1.410 . S
C724 C725 1.392 . S
C724 C727 1.511 1_554 S
C725 C721 1.376 . S
C725 C724 1.392 . S
C725 H737 0.929 1_554 S
C726 C722 1.531 . S
C726 H738 0.960 . S
C726 H739 0.962 . S
C726 H740 0.960 . S
C727 C724 1.511 1_556 S
C727 H741 0.961 . S
C727 H742 0.961 . S
C727 H743 0.961 . S
C728 C729 1.370 . S
C728 C730 1.363 . S
C728 H744 0.931 1_554 S
C729 C728 1.370 . S
C729 C733 1.408 . S
C730 C728 1.363 . S
C730 C731 1.370 . S
C730 C734 1.524 1_554 S
C731 C723 1.503 . S
C731 C730 1.370 . S
C731 C732 1.403 . S
C732 C731 1.403 . S
C732 C733 1.404 . S
C732 C735 1.539 . S
C733 C729 1.408 . S
C733 C732 1.404 . S
C733 H745 0.930 . S
C734 C730 1.524 1_556 S
C734 H746 0.956 . S
C734 H747 0.961 . S
C734 H748 0.961 . S
C735 C732 1.539 . S
C735 H749 0.958 . S
C735 H750 0.961 . S
C735 H751 0.960 . S
H736 C720 0.931 . S
H737 C725 0.929 1_556 S
H738 C726 0.960 . S
H739 C726 0.962 . S
H740 C726 0.960 . S
H741 C727 0.961 . S
H742 C727 0.961 . S
H743 C727 0.961 . S
H744 C728 0.931 1_556 S
H745 C733 0.930 . S
H746 C734 0.956 . S
H747 C734 0.961 . S
H748 C734 0.961 . S
H749 C735 0.958 . S
H750 C735 0.961 . S
H751 C735 0.960 . S
C752 C753 1.391 . S
C752 C754 1.394 . S
C752 H768 0.931 . S
C753 C752 1.391 . S
C753 C757 1.376 . S
C754 C752 1.394 . S
C754 C755 1.369 . S
C754 C758 1.531 . S
C755 C754 1.369 . S
C755 C756 1.410 . S
C755 C763 1.503 1_565 S
C756 C755 1.410 . S
C756 C757 1.392 . S
C756 C759 1.511 1_565 S
C757 C753 1.376 . S
C757 C756 1.392 . S
C757 H769 0.929 . S
C758 C754 1.531 . S
C758 H770 0.960 . S
C758 H771 0.962 . S
C758 H772 0.960 . S
C759 C756 1.511 1_545 S
C759 H773 0.961 . S
C759 H774 0.961 . S
C759 H775 0.961 . S
C760 C761 1.370 . S
C760 C762 1.363 . S
C760 H776 0.931 . S
C761 C760 1.370 . S
C761 C765 1.408 . S
C762 C760 1.363 . S
C762 C763 1.370 . S
C762 C766 1.524 . S
C763 C755 1.503 1_545 S
C763 C762 1.370 . S
C763 C764 1.403 . S
C764 C763 1.403 . S
C764 C765 1.404 . S
C764 C767 1.539 . S
C765 C761 1.408 . S
C765 C764 1.404 . S
C765 H777 0.930 . S
C766 C762 1.524 . S
C766 H778 0.956 1_545 S
C766 H779 0.961 . S
C766 H780 0.961 . S
C767 C764 1.539 . S
C767 H781 0.958 . S
C767 H782 0.961 . S
C767 H783 0.960 . S
H768 C752 0.931 . S
H769 C757 0.929 . S
H770 C758 0.960 . S
H771 C758 0.962 . S
H772 C758 0.960 . S
H773 C759 0.961 . S
H774 C759 0.961 . S
H775 C759 0.961 . S
H776 C760 0.931 . S
H777 C765 0.930 . S
H778 C766 0.956 1_565 S
H779 C766 0.961 . S
H780 C766 0.961 . S
H781 C767 0.958 . S
H782 C767 0.961 . S
H783 C767 0.960 . S
C784 C785 1.391 . S
C784 C786 1.394 . S
C784 H800 0.931 . S
C785 C784 1.391 . S
C785 C789 1.376 . S
C786 C784 1.394 . S
C786 C787 1.369 . S
C786 C790 1.531 1_565 S
C787 C786 1.369 . S
C787 C788 1.410 . S
C787 C795 1.503 1_565 S
C788 C787 1.410 . S
C788 C789 1.392 . S
C788 C791 1.511 . S
C789 C785 1.376 . S
C789 C788 1.392 . S
C789 H801 0.929 . S
C790 C786 1.531 1_545 S
C790 H802 0.960 . S
C790 H803 0.962 . S
C790 H804 0.960 . S
C791 C788 1.511 . S
C791 H805 0.961 . S
C791 H806 0.961 . S
C791 H807 0.961 . S
C792 C793 1.370 . S
C792 C794 1.363 1_545 S
C792 H808 0.931 . S
C793 C792 1.370 . S
C793 C797 1.408 . S
C794 C792 1.363 1_565 S
C794 C795 1.370 1_565 S
C794 C798 1.524 . S
C795 C787 1.503 1_545 S
C795 C794 1.370 1_545 S
C795 C796 1.403 . S
C796 C795 1.403 . S
C796 C797 1.404 . S
C796 C799 1.539 . S
C797 C793 1.408 . S
C797 C796 1.404 . S
C797 H809 0.930 . S
C798 C794 1.524 . S
C798 H810 0.956 . S
C798 H811 0.961 . S
C798 H812 0.961 . S
C799 C796 1.539 . S
C799 H813 0.958 . S
C799 H814 0.961 . S
C799 H815 0.960 . S
H800 C784 0.931 . S
H801 C789 0.929 . S
H802 C790 0.960 . S
H803 C790 0.962 . S
H804 C790 0.960 . S
H805 C791 0.961 . S
H806 C791 0.961 . S
H807 C791 0.961 . S
H808 C792 0.931 . S
H809 C797 0.930 . S
H810 C798 0.956 . S
H811 C798 0.961 . S
H812 C798 0.961 . S
H813 C799 0.958 . S
H814 C799 0.961 . S
H815 C799 0.960 . S
C816 C817 1.391 . S
C816 C818 1.394 . S
C816 H832 0.931 . S
C817 C816 1.391 . S
C817 C821 1.376 . S
C818 C816 1.394 . S
C818 C819 1.369 . S
C818 C822 1.531 . S
C819 C818 1.369 . S
C819 C820 1.410 . S
C819 C827 1.503 . S
C820 C819 1.410 . S
C820 C821 1.392 . S
C820 C823 1.511 . S
C821 C817 1.376 . S
C821 C820 1.392 . S
C821 H833 0.929 . S
C822 C818 1.531 . S
C822 H834 0.960 . S
C822 H835 0.962 . S
C822 H836 0.960 . S
C823 C820 1.511 . S
C823 H837 0.961 . S
C823 H838 0.961 1_455 S
C823 H839 0.961 . S
C824 C825 1.370 . S
C824 C826 1.363 . S
C824 H840 0.931 . S
C825 C824 1.370 . S
C825 C829 1.408 . S
C826 C824 1.363 . S
C826 C827 1.370 1_655 S
C826 C830 1.524 . S
C827 C819 1.503 . S
C827 C826 1.370 1_455 S
C827 C828 1.403 . S
C828 C827 1.403 . S
C828 C829 1.404 1_455 S
C828 C831 1.539 . S
C829 C825 1.408 . S
C829 C828 1.404 1_655 S
C829 H841 0.930 1_655 S
C830 C826 1.524 . S
C830 H842 0.956 . S
C830 H843 0.961 . S
C830 H844 0.961 . S
C831 C828 1.539 . S
C831 H845 0.958 . S
C831 H846 0.961 . S
C831 H847 0.960 . S
H832 C816 0.931 . S
H833 C821 0.929 . S
H834 C822 0.960 . S
H835 C822 0.962 . S
H836 C822 0.960 . S
H837 C823 0.961 . S
H838 C823 0.961 1_655 S
H839 C823 0.961 . S
H840 C824 0.931 . S
H841 C829 0.930 1_455 S
H842 C830 0.956 . S
H843 C830 0.961 . S
H844 C830 0.961 . S
H845 C831 0.958 . S
H846 C831 0.961 . S
H847 C831 0.960 . S
C848 C849 1.391 . S
C848 C850 1.394 . S
C848 H864 0.931 . S
C849 C848 1.391 . S
C849 C853 1.376 . S
C850 C848 1.394 . S
C850 C851 1.369 . S
C850 C854 1.531 . S
C851 C850 1.369 . S
C851 C852 1.410 . S
C851 C859 1.503 . S
C852 C851 1.410 . S
C852 C853 1.392 . S
C852 C855 1.511 . S
C853 C849 1.376 . S
C853 C852 1.392 . S
C853 H865 0.929 . S
C854 C850 1.531 . S
C854 H866 0.960 . S
C854 H867 0.962 . S
C854 H868 0.960 . S
C855 C852 1.511 . S
C855 H869 0.961 . S
C855 H870 0.961 . S
C855 H871 0.961 . S
C856 C857 1.370 . S
C856 C858 1.363 . S
C856 H872 0.931 . S
C857 C856 1.370 . S
C857 C861 1.408 . S
C858 C856 1.363 . S
C858 C859 1.370 . S
C858 C862 1.524 . S
C859 C851 1.503 . S
C859 C858 1.370 . S
C859 C860 1.403 . S
C860 C859 1.403 . S
C860 C861 1.404 . S
C860 C863 1.539 . S
C861 C857 1.408 . S
C861 C860 1.404 . S
C861 H873 0.930 . S
C862 C858 1.524 . S
C862 H874 0.956 . S
C862 H875 0.961 . S
C862 H876 0.961 . S
C863 C860 1.539 . S
C863 H877 0.958 . S
C863 H878 0.961 . S
C863 H879 0.960 . S
H864 C848 0.931 . S
H865 C853 0.929 . S
H866 C854 0.960 . S
H867 C854 0.962 . S
H868 C854 0.960 . S
H869 C855 0.961 . S
H870 C855 0.961 . S
H871 C855 0.961 . S
H872 C856 0.931 . S
H873 C861 0.930 . S
H874 C862 0.956 . S
H875 C862 0.961 . S
H876 C862 0.961 . S
H877 C863 0.958 . S
H878 C863 0.961 . S
H879 C863 0.960 . S
C880 C881 1.391 . S
C880 C882 1.394 . S
C880 H896 0.931 . S
C881 C880 1.391 . S
C881 C885 1.376 . S
C882 C880 1.394 . S
C882 C883 1.369 . S
C882 C886 1.531 . S
C883 C882 1.369 . S
C883 C884 1.410 . S
C883 C891 1.503 1_554 S
C884 C883 1.410 . S
C884 C885 1.392 . S
C884 C887 1.511 1_554 S
C885 C881 1.376 . S
C885 C884 1.392 . S
C885 H897 0.929 . S
C886 C882 1.531 . S
C886 H898 0.960 . S
C886 H899 0.962 . S
C886 H900 0.960 . S
C887 C884 1.511 1_556 S
C887 H901 0.961 . S
C887 H902 0.961 . S
C887 H903 0.961 . S
C888 C889 1.370 . S
C888 C890 1.363 . S
C888 H904 0.931 . S
C889 C888 1.370 . S
C889 C893 1.408 . S
C890 C888 1.363 . S
C890 C891 1.370 . S
C890 C894 1.524 . S
C891 C883 1.503 1_556 S
C891 C890 1.370 . S
C891 C892 1.403 . S
C892 C891 1.403 . S
C892 C893 1.404 . S
C892 C895 1.539 . S
C893 C889 1.408 . S
C893 C892 1.404 . S
C893 H905 0.930 . S
C894 C890 1.524 . S
C894 H906 0.956 1_556 S
C894 H907 0.961 . S
C894 H908 0.961 . S
C895 C892 1.539 . S
C895 H909 0.958 . S
C895 H910 0.961 . S
C895 H911 0.960 . S
H896 C880 0.931 . S
H897 C885 0.929 . S
H898 C886 0.960 . S
H899 C886 0.962 . S
H900 C886 0.960 . S
H901 C887 0.961 . S
H902 C887 0.961 . S
H903 C887 0.961 . S
H904 C888 0.931 . S
H905 C893 0.930 . S
H906 C894 0.956 1_554 S
H907 C894 0.961 . S
H908 C894 0.961 . S
H909 C895 0.958 . S
H910 C895 0.961 . S
H911 C895 0.960 . S
C912 C913 1.391 . S
C912 C914 1.394 . S
C912 H928 0.931 . S
C913 C912 1.391 . S
C913 C917 1.376 . S
C914 C912 1.394 . S
C914 C915 1.369 . S
C914 C918 1.531 . S
C915 C914 1.369 . S
C915 C916 1.410 1_545 S
C915 C923 1.503 1_545 S
C916 C915 1.410 1_565 S
C916 C917 1.392 1_565 S
C916 C919 1.511 . S
C917 C913 1.376 . S
C917 C916 1.392 1_545 S
C917 H929 0.929 1_545 S
C918 C914 1.531 . S
C918 H930 0.960 . S
C918 H931 0.962 . S
C918 H932 0.960 . S
C919 C916 1.511 . S
C919 H933 0.961 . S
C919 H934 0.961 . S
C919 H935 0.961 . S
C920 C921 1.370 . S
C920 C922 1.363 . S
C920 H936 0.931 . S
C921 C920 1.370 . S
C921 C925 1.408 . S
C922 C920 1.363 . S
C922 C923 1.370 . S
C922 C926 1.524 . S
C923 C915 1.503 1_565 S
C923 C922 1.370 . S
C923 C924 1.403 . S
C924 C923 1.403 . S
C924 C925 1.404 . S
C924 C927 1.539 . S
C925 C921 1.408 . S
C925 C924 1.404 . S
C925 H937 0.930 . S
C926 C922 1.524 . S
C926 H938 0.956 . S
C926 H939 0.961 . S
C926 H940 0.961 . S
C927 C924 1.539 . S
C927 H941 0.958 1_565 S
C927 H942 0.961 . S
C927 H943 0.960 . S
H928 C912 0.931 . S
H929 C917 0.929 1_565 S
H930 C918 0.960 . S
H931 C918 0.962 . S
H932 C918 0.960 . S
H933 C919 0.961 . S
H934 C919 0.961 . S
H935 C919 0.961 . S
H936 C920 0.931 . S
H937 C925 0.930 . S
H938 C926 0.956 . S
H939 C926 0.961 . S
H940 C926 0.961 . S
H941 C927 0.958 1_545 S
H942 C927 0.961 . S
H943 C927 0.960 . S
C944 C945 1.391 . S
C944 C946 1.394 . S
C944 H960 0.931 . S
C945 C944 1.391 . S
C945 C949 1.376 . S
C946 C944 1.394 . S
C946 C947 1.369 1_655 S
C946 C950 1.531 . S
C947 C946 1.369 1_455 S
C947 C948 1.410 . S
C947 C955 1.503 1_556 S
C948 C947 1.410 . S
C948 C949 1.392 1_455 S
C948 C951 1.511 . S
C949 C945 1.376 . S
C949 C948 1.392 1_655 S
C949 H961 0.929 . S
C950 C946 1.531 . S
C950 H962 0.960 1_655 S
C950 H963 0.962 1_556 S
C950 H964 0.960 . S
C951 C948 1.511 . S
C951 H965 0.961 . S
C951 H966 0.961 . S
C951 H967 0.961 . S
C952 C953 1.370 . S
C952 C954 1.363 . S
C952 H968 0.931 . S
C953 C952 1.370 . S
C953 C957 1.408 . S
C954 C952 1.363 . S
C954 C955 1.370 . S
C954 C958 1.524 1_455 S
C955 C947 1.503 1_554 S
C955 C954 1.370 . S
C955 C956 1.403 . S
C956 C955 1.403 . S
C956 C957 1.404 . S
C956 C959 1.539 1_554 S
C957 C953 1.408 . S
C957 C956 1.404 . S
C957 H969 0.930 . S
C958 C954 1.524 1_655 S
C958 H970 0.956 . S
C958 H971 0.961 . S
C958 H972 0.961 . S
C959 C956 1.539 1_556 S
C959 H973 0.958 . S
C959 H974 0.961 . S
C959 H975 0.960 . S
H960 C944 0.931 . S
H961 C949 0.929 . S
H962 C950 0.960 1_455 S
H963 C950 0.962 1_554 S
H964 C950 0.960 . S
H965 C951 0.961 . S
H966 C951 0.961 . S
H967 C951 0.961 . S
H968 C952 0.931 . S
H969 C957 0.930 . S
H970 C958 0.956 . S
H971 C958 0.961 . S
H972 C958 0.961 . S
H973 C959 0.958 . S
H974 C959 0.961 . S
H975 C959 0.960 . S
C976 C977 1.391 . S
C976 C978 1.394 . S
C976 H992 0.931 . S
C977 C976 1.391 . S
C977 C981 1.376 . S
C978 C976 1.394 . S
C978 C979 1.369 . S
C978 C982 1.531 . S
C979 C978 1.369 . S
C979 C980 1.410 . S
C979 C987 1.503 . S
C980 C979 1.410 . S
C980 C981 1.392 . S
C980 C983 1.511 . S
C981 C977 1.376 . S
C981 C980 1.392 . S
C981 H993 0.929 . S
C982 C978 1.531 . S
C982 H994 0.960 . S
C982 H995 0.962 . S
C982 H996 0.960 . S
C983 C980 1.511 . S
C983 H997 0.961 . S
C983 H998 0.961 . S
C983 H999 0.961 . S
C984 C985 1.370 . S
C984 C986 1.363 . S
C984 H1000 0.931 . S
C985 C984 1.370 . S
C985 C989 1.408 . S
C986 C984 1.363 . S
C986 C987 1.370 . S
C986 C990 1.524 . S
C987 C979 1.503 . S
C987 C986 1.370 . S
C987 C988 1.403 . S
C988 C987 1.403 . S
C988 C989 1.404 . S
C988 C991 1.539 . S
C989 C985 1.408 . S
C989 C988 1.404 . S
C989 H1001 0.930 . S
C990 C986 1.524 . S
C990 H1002 0.956 . S
C990 H1003 0.961 . S
C990 H1004 0.961 . S
C991 C988 1.539 . S
C991 H1005 0.958 . S
C991 H1006 0.961 . S
C991 H1007 0.960 . S
H992 C976 0.931 . S
H993 C981 0.929 . S
H994 C982 0.960 . S
H995 C982 0.962 . S
H996 C982 0.960 . S
H997 C983 0.961 . S
H998 C983 0.961 . S
H999 C983 0.961 . S
H1000 C984 0.931 . S
H1001 C989 0.930 . S
H1002 C990 0.956 . S
H1003 C990 0.961 . S
H1004 C990 0.961 . S
H1005 C991 0.958 . S
H1006 C991 0.961 . S
H1007 C991 0.960 . S
C1008 C1009 1.391 . S
C1008 C1010 1.394 . S
C1008 H1024 0.931 . S
C1009 C1008 1.391 . S
C1009 C1013 1.376 . S
C1010 C1008 1.394 . S
C1010 C1011 1.369 . S
C1010 C1014 1.531 . S
C1011 C1010 1.369 . S
C1011 C1012 1.410 . S
C1011 C1019 1.503 . S
C1012 C1011 1.410 . S
C1012 C1013 1.392 . S
C1012 C1015 1.511 . S
C1013 C1009 1.376 . S
C1013 C1012 1.392 . S
C1013 H1025 0.929 . S
C1014 C1010 1.531 . S
C1014 H1026 0.960 . S
C1014 H1027 0.962 . S
C1014 H1028 0.960 . S
C1015 C1012 1.511 . S
C1015 H1029 0.961 . S
C1015 H1030 0.961 . S
C1015 H1031 0.961 . S
C1016 C1017 1.370 . S
C1016 C1018 1.363 . S
C1016 H1032 0.931 . S
C1017 C1016 1.370 . S
C1017 C1021 1.408 . S
C1018 C1016 1.363 . S
C1018 C1019 1.370 . S
C1018 C1022 1.524 . S
C1019 C1011 1.503 . S
C1019 C1018 1.370 . S
C1019 C1020 1.403 . S
C1020 C1019 1.403 . S
C1020 C1021 1.404 . S
C1020 C1023 1.539 . S
C1021 C1017 1.408 . S
C1021 C1020 1.404 . S
C1021 H1033 0.930 . S
C1022 C1018 1.524 . S
C1022 H1034 0.956 . S
C1022 H1035 0.961 . S
C1022 H1036 0.961 . S
C1023 C1020 1.539 . S
C1023 H1037 0.958 . S
C1023 H1038 0.961 . S
C1023 H1039 0.960 . S
H1024 C1008 0.931 . S
H1025 C1013 0.929 . S
H1026 C1014 0.960 . S
H1027 C1014 0.962 . S
H1028 C1014 0.960 . S
H1029 C1015 0.961 . S
H1030 C1015 0.961 . S
H1031 C1015 0.961 . S
H1032 C1016 0.931 . S
H1033 C1021 0.930 . S
H1034 C1022 0.956 . S
H1035 C1022 0.961 . S
H1036 C1022 0.961 . S
H1037 C1023 0.958 . S
H1038 C1023 0.961 . S
H1039 C1023 0.960 . S
C1040 C1041 1.391 . S
C1040 C1042 1.394 . S
C1040 H1056 0.931 . S
C1041 C1040 1.391 . S
C1041 C1045 1.376 . S
C1042 C1040 1.394 . S
C1042 C1043 1.369 . S
C1042 C1046 1.531 . S
C1043 C1042 1.369 . S
C1043 C1044 1.410 . S
C1043 C1051 1.503 . S
C1044 C1043 1.410 . S
C1044 C1045 1.392 . S
C1044 C1047 1.511 . S
C1045 C1041 1.376 . S
C1045 C1044 1.392 . S
C1045 H1057 0.929 . S
C1046 C1042 1.531 . S
C1046 H1058 0.960 . S
C1046 H1059 0.962 . S
C1046 H1060 0.960 . S
C1047 C1044 1.511 . S
C1047 H1061 0.961 . S
C1047 H1062 0.961 . S
C1047 H1063 0.961 . S
C1048 C1049 1.370 . S
C1048 C1050 1.363 . S
C1048 H1064 0.931 . S
C1049 C1048 1.370 . S
C1049 C1053 1.408 . S
C1050 C1048 1.363 . S
C1050 C1051 1.370 . S
C1050 C1054 1.524 . S
C1051 C1043 1.503 . S
C1051 C1050 1.370 . S
C1051 C1052 1.403 . S
C1052 C1051 1.403 . S
C1052 C1053 1.404 . S
C1052 C1055 1.539 . S
C1053 C1049 1.408 . S
C1053 C1052 1.404 . S
C1053 H1065 0.930 . S
C1054 C1050 1.524 . S
C1054 H1066 0.956 . S
C1054 H1067 0.961 . S
C1054 H1068 0.961 . S
C1055 C1052 1.539 . S
C1055 H1069 0.958 . S
C1055 H1070 0.961 . S
C1055 H1071 0.960 . S
H1056 C1040 0.931 . S
H1057 C1045 0.929 . S
H1058 C1046 0.960 . S
H1059 C1046 0.962 . S
H1060 C1046 0.960 . S
H1061 C1047 0.961 . S
H1062 C1047 0.961 . S
H1063 C1047 0.961 . S
H1064 C1048 0.931 . S
H1065 C1053 0.930 . S
H1066 C1054 0.956 . S
H1067 C1054 0.961 . S
H1068 C1054 0.961 . S
H1069 C1055 0.958 . S
H1070 C1055 0.961 . S
H1071 C1055 0.960 . S
C1072 C1073 1.391 . S
C1072 C1074 1.394 . S
C1072 H1088 0.931 . S
C1073 C1072 1.391 . S
C1073 C1077 1.376 . S
C1074 C1072 1.394 . S
C1074 C1075 1.369 . S
C1074 C1078 1.531 . S
C1075 C1074 1.369 . S
C1075 C1076 1.410 . S
C1075 C1083 1.503 1_554 S
C1076 C1075 1.410 . S
C1076 C1077 1.392 . S
C1076 C1079 1.511 1_554 S
C1077 C1073 1.376 . S
C1077 C1076 1.392 . S
C1077 H1089 0.929 . S
C1078 C1074 1.531 . S
C1078 H1090 0.960 . S
C1078 H1091 0.962 . S
C1078 H1092 0.960 . S
C1079 C1076 1.511 1_556 S
C1079 H1093 0.961 . S
C1079 H1094 0.961 . S
C1079 H1095 0.961 . S
C1080 C1081 1.370 . S
C1080 C1082 1.363 . S
C1080 H1096 0.931 . S
C1081 C1080 1.370 . S
C1081 C1085 1.408 . S
C1082 C1080 1.363 . S
C1082 C1083 1.370 . S
C1082 C1086 1.524 . S
C1083 C1075 1.503 1_556 S
C1083 C1082 1.370 . S
C1083 C1084 1.403 . S
C1084 C1083 1.403 . S
C1084 C1085 1.404 . S
C1084 C1087 1.539 . S
C1085 C1081 1.408 . S
C1085 C1084 1.404 . S
C1085 H1097 0.930 . S
C1086 C1082 1.524 . S
C1086 H1098 0.956 1_556 S
C1086 H1099 0.961 . S
C1086 H1100 0.961 . S
C1087 C1084 1.539 . S
C1087 H1101 0.958 . S
C1087 H1102 0.961 . S
C1087 H1103 0.960 . S
H1088 C1072 0.931 . S
H1089 C1077 0.929 . S
H1090 C1078 0.960 . S
H1091 C1078 0.962 . S
H1092 C1078 0.960 . S
H1093 C1079 0.961 . S
H1094 C1079 0.961 . S
H1095 C1079 0.961 . S
H1096 C1080 0.931 . S
H1097 C1085 0.930 . S
H1098 C1086 0.956 1_554 S
H1099 C1086 0.961 . S
H1100 C1086 0.961 . S
H1101 C1087 0.958 . S
H1102 C1087 0.961 . S
H1103 C1087 0.960 . S
C1104 C1105 1.391 . S
C1104 C1106 1.394 . S
C1104 H1120 0.931 . S
C1105 C1104 1.391 . S
C1105 C1109 1.376 . S
C1106 C1104 1.394 . S
C1106 C1107 1.369 . S
C1106 C1110 1.531 1_545 S
C1107 C1106 1.369 . S
C1107 C1108 1.410 . S
C1107 C1115 1.503 1_545 S
C1108 C1107 1.410 . S
C1108 C1109 1.392 . S
C1108 C1111 1.511 . S
C1109 C1105 1.376 . S
C1109 C1108 1.392 . S
C1109 H1121 0.929 . S
C1110 C1106 1.531 1_565 S
C1110 H1122 0.960 . S
C1110 H1123 0.962 . S
C1110 H1124 0.960 . S
C1111 C1108 1.511 . S
C1111 H1125 0.961 . S
C1111 H1126 0.961 . S
C1111 H1127 0.961 . S
C1112 C1113 1.370 . S
C1112 C1114 1.363 1_565 S
C1112 H1128 0.931 . S
C1113 C1112 1.370 . S
C1113 C1117 1.408 . S
C1114 C1112 1.363 1_545 S
C1114 C1115 1.370 1_545 S
C1114 C1118 1.524 . S
C1115 C1107 1.503 1_565 S
C1115 C1114 1.370 1_565 S
C1115 C1116 1.403 . S
C1116 C1115 1.403 . S
C1116 C1117 1.404 . S
C1116 C1119 1.539 . S
C1117 C1113 1.408 . S
C1117 C1116 1.404 . S
C1117 H1129 0.930 . S
C1118 C1114 1.524 . S
C1118 H1130 0.956 . S
C1118 H1131 0.961 . S
C1118 H1132 0.961 . S
C1119 C1116 1.539 . S
C1119 H1133 0.958 . S
C1119 H1134 0.961 . S
C1119 H1135 0.960 . S
H1120 C1104 0.931 . S
H1121 C1109 0.929 . S
H1122 C1110 0.960 . S
H1123 C1110 0.962 . S
H1124 C1110 0.960 . S
H1125 C1111 0.961 . S
H1126 C1111 0.961 . S
H1127 C1111 0.961 . S
H1128 C1112 0.931 . S
H1129 C1117 0.930 . S
H1130 C1118 0.956 . S
H1131 C1118 0.961 . S
H1132 C1118 0.961 . S
H1133 C1119 0.958 . S
H1134 C1119 0.961 . S
H1135 C1119 0.960 . S
C1136 C1137 1.391 . S
C1136 C1138 1.394 1_455 S
C1136 H1152 0.931 1_455 S
C1137 C1136 1.391 . S
C1137 C1141 1.376 . S
C1138 C1136 1.394 1_655 S
C1138 C1139 1.377 . S
C1138 C1142 1.531 . S
C1139 C1138 1.377 . S
C1139 C1140 1.390 1_655 S
C1139 C1147 1.514 . S
C1140 C1139 1.390 1_455 S
C1140 C1141 1.392 . S
C1140 C1143 1.511 . S
C1141 C1137 1.376 . S
C1141 C1140 1.392 . S
C1141 H1153 0.929 . S
C1142 C1138 1.531 . S
C1142 H1154 0.960 . S
C1142 H1155 0.962 . S
C1142 H1156 0.960 . S
C1143 C1140 1.511 . S
C1143 H1157 0.961 . S
C1143 H1158 0.961 . S
C1143 H1159 0.961 . S
C1144 C1145 1.370 . S
C1144 C1146 1.363 . S
C1144 H1160 0.931 . S
C1145 C1144 1.370 . S
C1145 C1149 1.408 . S
C1146 C1144 1.363 . S
C1146 C1147 1.370 . S
C1146 C1150 1.524 . S
C1147 C1139 1.514 . S
C1147 C1146 1.370 . S
C1147 C1148 1.403 . S
C1148 C1147 1.403 . S
C1148 C1149 1.404 . S
C1148 C1151 1.539 . S
C1149 C1145 1.408 . S
C1149 C1148 1.404 . S
C1149 H1161 0.930 . S
C1150 C1146 1.524 . S
C1150 H1162 0.956 . S
C1150 H1163 0.961 1_655 S
C1150 H1164 0.961 . S
C1151 C1148 1.539 . S
C1151 H1165 0.958 . S
C1151 H1166 0.961 . S
C1151 H1167 0.960 . S
H1152 C1136 0.931 1_655 S
H1153 C1141 0.929 . S
H1154 C1142 0.960 . S
H1155 C1142 0.962 . S
H1156 C1142 0.960 . S
H1157 C1143 0.961 . S
H1158 C1143 0.961 . S
H1159 C1143 0.961 . S
H1160 C1144 0.931 . S
H1161 C1149 0.930 . S
H1162 C1150 0.956 . S
H1163 C1150 0.961 1_455 S
H1164 C1150 0.961 . S
H1165 C1151 0.958 . S
H1166 C1151 0.961 . S
H1167 C1151 0.960 . S
C1168 C1169 1.391 . S
C1168 C1170 1.394 . S
C1168 H1184 0.931 . S
C1169 C1168 1.391 . S
C1169 C1173 1.376 . S
C1170 C1168 1.394 . S
C1170 C1171 1.369 . S
C1170 C1174 1.531 . S
C1171 C1170 1.369 . S
C1171 C1172 1.410 . S
C1171 C1179 1.503 . S
C1172 C1171 1.410 . S
C1172 C1173 1.392 . S
C1172 C1175 1.511 . S
C1173 C1169 1.376 . S
C1173 C1172 1.392 . S
C1173 H1185 0.929 . S
C1174 C1170 1.531 . S
C1174 H1186 0.960 . S
C1174 H1187 0.962 . S
C1174 H1188 0.960 . S
C1175 C1172 1.511 . S
C1175 H1189 0.961 . S
C1175 H1190 0.961 . S
C1175 H1191 0.961 . S
C1176 C1177 1.370 . S
C1176 C1178 1.363 . S
C1176 H1192 0.931 . S
C1177 C1176 1.370 . S
C1177 C1181 1.408 . S
C1178 C1176 1.363 . S
C1178 C1179 1.370 . S
C1178 C1182 1.524 . S
C1179 C1171 1.503 . S
C1179 C1178 1.370 . S
C1179 C1180 1.403 . S
C1180 C1179 1.403 . S
C1180 C1181 1.404 . S
C1180 C1183 1.539 . S
C1181 C1177 1.408 . S
C1181 C1180 1.404 . S
C1181 H1193 0.930 . S
C1182 C1178 1.524 . S
C1182 H1194 0.956 . S
C1182 H1195 0.961 . S
C1182 H1196 0.961 . S
C1183 C1180 1.539 . S
C1183 H1197 0.958 . S
C1183 H1198 0.961 . S
C1183 H1199 0.960 . S
H1184 C1168 0.931 . S
H1185 C1173 0.929 . S
H1186 C1174 0.960 . S
H1187 C1174 0.962 . S
H1188 C1174 0.960 . S
H1189 C1175 0.961 . S
H1190 C1175 0.961 . S
H1191 C1175 0.961 . S
H1192 C1176 0.931 . S
H1193 C1181 0.930 . S
H1194 C1182 0.956 . S
H1195 C1182 0.961 . S
H1196 C1182 0.961 . S
H1197 C1183 0.958 . S
H1198 C1183 0.961 . S
H1199 C1183 0.960 . S
C1200 C1201 1.391 . S
C1200 C1202 1.394 . S
C1200 H1216 0.931 . S
C1201 C1200 1.391 . S
C1201 C1205 1.376 . S
C1202 C1200 1.394 . S
C1202 C1203 1.369 . S
C1202 C1206 1.531 . S
C1203 C1202 1.369 . S
C1203 C1204 1.410 . S
C1203 C1211 1.503 . S
C1204 C1203 1.410 . S
C1204 C1205 1.392 . S
C1204 C1207 1.511 . S
C1205 C1201 1.376 . S
C1205 C1204 1.392 . S
C1205 H1217 0.929 . S
C1206 C1202 1.531 . S
C1206 H1218 0.960 . S
C1206 H1219 0.962 . S
C1206 H1220 0.960 . S
C1207 C1204 1.511 . S
C1207 H1221 0.961 . S
C1207 H1222 0.961 . S
C1207 H1223 0.961 . S
C1208 C1209 1.370 . S
C1208 C1210 1.363 . S
C1208 H1224 0.931 . S
C1209 C1208 1.370 . S
C1209 C1213 1.408 . S
C1210 C1208 1.363 . S
C1210 C1211 1.370 . S
C1210 C1214 1.524 . S
C1211 C1203 1.503 . S
C1211 C1210 1.370 . S
C1211 C1212 1.403 . S
C1212 C1211 1.403 . S
C1212 C1213 1.404 . S
C1212 C1215 1.539 . S
C1213 C1209 1.408 . S
C1213 C1212 1.404 . S
C1213 H1225 0.930 . S
C1214 C1210 1.524 . S
C1214 H1226 0.956 . S
C1214 H1227 0.961 . S
C1214 H1228 0.961 . S
C1215 C1212 1.539 . S
C1215 H1229 0.958 . S
C1215 H1230 0.961 . S
C1215 H1231 0.960 . S
H1216 C1200 0.931 . S
H1217 C1205 0.929 . S
H1218 C1206 0.960 . S
H1219 C1206 0.962 . S
H1220 C1206 0.960 . S
H1221 C1207 0.961 . S
H1222 C1207 0.961 . S
H1223 C1207 0.961 . S
H1224 C1208 0.931 . S
H1225 C1213 0.930 . S
H1226 C1214 0.956 . S
H1227 C1214 0.961 . S
H1228 C1214 0.961 . S
H1229 C1215 0.958 . S
H1230 C1215 0.961 . S
H1231 C1215 0.960 . S
C1232 C1233 1.391 . S
C1232 C1234 1.394 . S
C1232 H1248 0.931 . S
C1233 C1232 1.391 . S
C1233 C1237 1.376 . S
C1234 C1232 1.394 . S
C1234 C1235 1.369 . S
C1234 C1238 1.531 . S
C1235 C1234 1.369 . S
C1235 C1236 1.410 1_565 S
C1235 C1243 1.503 1_565 S
C1236 C1235 1.410 1_545 S
C1236 C1237 1.392 1_545 S
C1236 C1239 1.511 . S
C1237 C1233 1.376 . S
C1237 C1236 1.392 1_565 S
C1237 H1249 0.927 1_565 S
C1238 C1234 1.531 . S
C1238 H1250 0.960 . S
C1238 H1251 0.962 . S
C1238 H1252 0.960 . S
C1239 C1236 1.511 . S
C1239 H1253 0.961 . S
C1239 H1254 0.961 . S
C1239 H1255 0.961 . S
C1240 C1241 1.370 . S
C1240 C1242 1.363 . S
C1240 H1256 0.931 . S
C1241 C1240 1.370 . S
C1241 C1245 1.408 . S
C1242 C1240 1.363 . S
C1242 C1243 1.370 . S
C1242 C1246 1.524 . S
C1243 C1235 1.503 1_545 S
C1243 C1242 1.370 . S
C1243 C1244 1.403 . S
C1244 C1243 1.403 . S
C1244 C1245 1.404 . S
C1244 C1247 1.539 . S
C1245 C1241 1.408 . S
C1245 C1244 1.404 . S
C1245 H1257 0.930 . S
C1246 C1242 1.524 . S
C1246 H1258 0.956 . S
C1246 H1259 0.961 . S
C1246 H1260 0.961 . S
C1247 C1244 1.539 . S
C1247 H1261 0.959 1_545 S
C1247 H1262 0.961 . S
C1247 H1263 0.960 1_545 S
H1248 C1232 0.931 . S
H1249 C1237 0.927 1_545 S
H1250 C1238 0.960 . S
H1251 C1238 0.962 . S
H1252 C1238 0.960 . S
H1253 C1239 0.961 . S
H1254 C1239 0.961 . S
H1255 C1239 0.961 . S
H1256 C1240 0.931 . S
H1257 C1245 0.930 . S
H1258 C1246 0.956 . S
H1259 C1246 0.961 . S
H1260 C1246 0.961 . S
H1261 C1247 0.959 1_565 S
H1262 C1247 0.961 . S
H1263 C1247 0.960 1_565 S
C1264 C1265 1.391 . S
C1264 C1266 1.394 . S
C1264 H1280 0.931 . S
C1265 C1264 1.391 . S
C1265 C1269 1.376 . S
C1266 C1264 1.394 . S
C1266 C1267 1.369 . S
C1266 C1270 1.531 1_554 S
C1267 C1266 1.369 . S
C1267 C1268 1.410 . S
C1267 C1275 1.503 1_654 S
C1268 C1267 1.410 . S
C1268 C1269 1.392 . S
C1268 C1271 1.511 1_655 S
C1269 C1265 1.376 . S
C1269 C1268 1.392 . S
C1269 H1281 0.929 . S
C1270 C1266 1.531 1_556 S
C1270 H1282 0.960 . S
C1270 H1283 0.962 . S
C1270 H1284 0.960 . S
C1271 C1268 1.511 1_455 S
C1271 H1285 0.961 . S
C1271 H1286 0.961 . S
C1271 H1287 0.961 . S
C1272 C1273 1.370 . S
C1272 C1274 1.363 1_455 S
C1272 H1288 0.931 . S
C1273 C1272 1.370 . S
C1273 C1277 1.408 . S
C1274 C1272 1.363 1_655 S
C1274 C1275 1.370 1_655 S
C1274 C1278 1.524 . S
C1275 C1267 1.503 1_456 S
C1275 C1274 1.370 1_455 S
C1275 C1276 1.403 . S
C1276 C1275 1.403 . S
C1276 C1277 1.404 . S
C1276 C1279 1.539 1_556 S
C1277 C1273 1.408 . S
C1277 C1276 1.404 . S
C1277 H1289 0.930 . S
C1278 C1274 1.524 . S
C1278 H1290 0.956 . S
C1278 H1291 0.961 . S
C1278 H1292 0.961 . S
C1279 C1276 1.539 1_554 S
C1279 H1293 0.958 1_554 S
C1279 H1294 0.961 . S
C1279 H1295 0.960 . S
H1280 C1264 0.931 . S
H1281 C1269 0.929 . S
H1282 C1270 0.960 . S
H1283 C1270 0.962 . S
H1284 C1270 0.960 . S
H1285 C1271 0.961 . S
H1286 C1271 0.961 . S
H1287 C1271 0.961 . S
H1288 C1272 0.931 . S
H1289 C1277 0.930 . S
H1290 C1278 0.956 . S
H1291 C1278 0.961 . S
H1292 C1278 0.961 . S
H1293 C1279 0.958 1_556 S
H1294 C1279 0.961 . S
H1295 C1279 0.960 . S
C1296 C1297 1.391 . S
C1296 C1298 1.394 . S
C1296 H1312 0.931 . S
C1297 C1296 1.391 . S
C1297 C1301 1.376 . S
C1298 C1296 1.394 . S
C1298 C1299 1.369 . S
C1298 C1302 1.531 . S
C1299 C1298 1.369 . S
C1299 C1300 1.410 . S
C1299 C1307 1.503 . S
C1300 C1299 1.410 . S
C1300 C1301 1.392 . S
C1300 C1303 1.511 . S
C1301 C1297 1.376 . S
C1301 C1300 1.392 . S
C1301 H1313 0.929 . S
C1302 C1298 1.531 . S
C1302 H1314 0.960 . S
C1302 H1315 0.962 . S
C1302 H1316 0.960 . S
C1303 C1300 1.511 . S
C1303 H1317 0.961 . S
C1303 H1318 0.961 . S
C1303 H1319 0.961 . S
C1304 C1305 1.370 . S
C1304 C1306 1.363 . S
C1304 H1320 0.931 . S
C1305 C1304 1.370 . S
C1305 C1309 1.408 . S
C1306 C1304 1.363 . S
C1306 C1307 1.370 . S
C1306 C1310 1.524 . S
C1307 C1299 1.503 . S
C1307 C1306 1.370 . S
C1307 C1308 1.403 . S
C1308 C1307 1.403 . S
C1308 C1309 1.404 . S
C1308 C1311 1.539 . S
C1309 C1305 1.408 . S
C1309 C1308 1.404 . S
C1309 H1321 0.930 . S
C1310 C1306 1.524 . S
C1310 H1322 0.956 . S
C1310 H1323 0.961 . S
C1310 H1324 0.961 . S
C1311 C1308 1.539 . S
C1311 H1325 0.958 . S
C1311 H1326 0.961 . S
C1311 H1327 0.960 . S
H1312 C1296 0.931 . S
H1313 C1301 0.929 . S
H1314 C1302 0.960 . S
H1315 C1302 0.962 . S
H1316 C1302 0.960 . S
H1317 C1303 0.961 . S
H1318 C1303 0.961 . S
H1319 C1303 0.961 . S
H1320 C1304 0.931 . S
H1321 C1309 0.930 . S
H1322 C1310 0.956 . S
H1323 C1310 0.961 . S
H1324 C1310 0.961 . S
H1325 C1311 0.958 . S
H1326 C1311 0.961 . S
H1327 C1311 0.960 . S
C1328 C1329 1.391 . S
C1328 C1330 1.394 . S
C1328 H1344 0.931 . S
C1329 C1328 1.391 . S
C1329 C1333 1.376 . S
C1330 C1328 1.394 . S
C1330 C1331 1.369 . S
C1330 C1334 1.531 . S
C1331 C1330 1.369 . S
C1331 C1332 1.410 . S
C1331 C1339 1.503 . S
C1332 C1331 1.410 . S
C1332 C1333 1.392 . S
C1332 C1335 1.511 . S
C1333 C1329 1.376 . S
C1333 C1332 1.392 . S
C1333 H1345 0.929 . S
C1334 C1330 1.531 . S
C1334 H1346 0.960 . S
C1334 H1347 0.962 . S
C1334 H1348 0.960 . S
C1335 C1332 1.511 . S
C1335 H1349 0.961 . S
C1335 H1350 0.961 . S
C1335 H1351 0.961 . S
C1336 C1337 1.370 . S
C1336 C1338 1.363 . S
C1336 H1352 0.931 . S
C1337 C1336 1.370 . S
C1337 C1341 1.408 . S
C1338 C1336 1.363 . S
C1338 C1339 1.370 . S
C1338 C1342 1.524 . S
C1339 C1331 1.503 . S
C1339 C1338 1.370 . S
C1339 C1340 1.403 . S
C1340 C1339 1.403 . S
C1340 C1341 1.404 . S
C1340 C1343 1.539 . S
C1341 C1337 1.408 . S
C1341 C1340 1.404 . S
C1341 H1353 0.930 . S
C1342 C1338 1.524 . S
C1342 H1354 0.956 . S
C1342 H1355 0.961 . S
C1342 H1356 0.961 . S
C1343 C1340 1.539 . S
C1343 H1357 0.958 . S
C1343 H1358 0.961 . S
C1343 H1359 0.960 . S
H1344 C1328 0.931 . S
H1345 C1333 0.929 . S
H1346 C1334 0.960 . S
H1347 C1334 0.962 . S
H1348 C1334 0.960 . S
H1349 C1335 0.961 . S
H1350 C1335 0.961 . S
H1351 C1335 0.961 . S
H1352 C1336 0.931 . S
H1353 C1341 0.930 . S
H1354 C1342 0.956 . S
H1355 C1342 0.961 . S
H1356 C1342 0.961 . S
H1357 C1343 0.958 . S
H1358 C1343 0.961 . S
H1359 C1343 0.960 . S
C1360 C1361 1.391 . S
C1360 C1362 1.394 . S
C1360 H1376 0.931 . S
C1361 C1360 1.391 . S
C1361 C1365 1.376 . S
C1362 C1360 1.394 . S
C1362 C1363 1.369 . S
C1362 C1366 1.531 . S
C1363 C1362 1.369 . S
C1363 C1364 1.410 . S
C1363 C1371 1.503 . S
C1364 C1363 1.410 . S
C1364 C1365 1.392 . S
C1364 C1367 1.511 . S
C1365 C1361 1.376 . S
C1365 C1364 1.392 . S
C1365 H1377 0.929 . S
C1366 C1362 1.531 . S
C1366 H1378 0.960 . S
C1366 H1379 0.962 . S
C1366 H1380 0.960 . S
C1367 C1364 1.511 . S
C1367 H1381 0.961 . S
C1367 H1382 0.961 . S
C1367 H1383 0.961 . S
C1368 C1369 1.370 . S
C1368 C1370 1.363 . S
C1368 H1384 0.931 . S
C1369 C1368 1.370 . S
C1369 C1373 1.408 . S
C1370 C1368 1.363 . S
C1370 C1371 1.370 . S
C1370 C1374 1.524 . S
C1371 C1363 1.503 . S
C1371 C1370 1.370 . S
C1371 C1372 1.403 . S
C1372 C1371 1.403 . S
C1372 C1373 1.404 . S
C1372 C1375 1.539 . S
C1373 C1369 1.408 . S
C1373 C1372 1.404 . S
C1373 H1385 0.930 . S
C1374 C1370 1.524 . S
C1374 H1386 0.956 . S
C1374 H1387 0.961 . S
C1374 H1388 0.961 . S
C1375 C1372 1.539 . S
C1375 H1389 0.958 . S
C1375 H1390 0.961 . S
C1375 H1391 0.960 . S
H1376 C1360 0.931 . S
H1377 C1365 0.929 . S
H1378 C1366 0.960 . S
H1379 C1366 0.962 . S
H1380 C1366 0.960 . S
H1381 C1367 0.961 . S
H1382 C1367 0.961 . S
H1383 C1367 0.961 . S
H1384 C1368 0.931 . S
H1385 C1373 0.930 . S
H1386 C1374 0.956 . S
H1387 C1374 0.961 . S
H1388 C1374 0.961 . S
H1389 C1375 0.958 . S
H1390 C1375 0.961 . S
H1391 C1375 0.960 . S
C1392 C1393 1.391 . S
C1392 C1394 1.394 . S
C1392 H1408 0.931 . S
C1393 C1392 1.391 . S
C1393 C1397 1.376 . S
C1394 C1392 1.394 . S
C1394 C1395 1.369 . S
C1394 C1398 1.531 . S
C1395 C1394 1.369 . S
C1395 C1396 1.410 . S
C1395 C1403 1.503 . S
C1396 C1395 1.410 . S
C1396 C1397 1.392 . S
C1396 C1399 1.511 . S
C1397 C1393 1.376 . S
C1397 C1396 1.392 . S
C1397 H1409 0.929 . S
C1398 C1394 1.531 . S
C1398 H1410 0.960 . S
C1398 H1411 0.962 . S
C1398 H1412 0.960 . S
C1399 C1396 1.511 . S
C1399 H1413 0.961 . S
C1399 H1414 0.961 . S
C1399 H1415 0.961 . S
C1400 C1401 1.370 . S
C1400 C1402 1.363 . S
C1400 H1416 0.931 . S
C1401 C1400 1.370 . S
C1401 C1405 1.408 . S
C1402 C1400 1.363 . S
C1402 C1403 1.370 . S
C1402 C1406 1.524 . S
C1403 C1395 1.503 . S
C1403 C1402 1.370 . S
C1403 C1404 1.403 . S
C1404 C1403 1.403 . S
C1404 C1405 1.404 . S
C1404 C1407 1.539 . S
C1405 C1401 1.408 . S
C1405 C1404 1.404 . S
C1405 H1417 0.930 . S
C1406 C1402 1.524 . S
C1406 H1418 0.956 . S
C1406 H1419 0.961 . S
C1406 H1420 0.961 . S
C1407 C1404 1.539 . S
C1407 H1421 0.958 . S
C1407 H1422 0.961 . S
C1407 H1423 0.960 . S
H1408 C1392 0.931 . S
H1409 C1397 0.929 . S
H1410 C1398 0.960 . S
H1411 C1398 0.962 . S
H1412 C1398 0.960 . S
H1413 C1399 0.961 . S
H1414 C1399 0.961 . S
H1415 C1399 0.961 . S
H1416 C1400 0.931 . S
H1417 C1405 0.930 . S
H1418 C1406 0.956 . S
H1419 C1406 0.961 . S
H1420 C1406 0.961 . S
H1421 C1407 0.958 . S
H1422 C1407 0.961 . S
H1423 C1407 0.960 . S
C1424 C1425 1.391 . S
C1424 C1426 1.394 . S
C1424 H1440 0.931 . S
C1425 C1424 1.391 . S
C1425 C1429 1.376 . S
C1426 C1424 1.394 . S
C1426 C1427 1.369 . S
C1426 C1430 1.531 . S
C1427 C1426 1.369 . S
C1427 C1428 1.410 . S
C1427 C1435 1.503 . S
C1428 C1427 1.410 . S
C1428 C1429 1.392 . S
C1428 C1431 1.511 . S
C1429 C1425 1.376 . S
C1429 C1428 1.392 . S
C1429 H1441 0.929 . S
C1430 C1426 1.531 . S
C1430 H1442 0.960 . S
C1430 H1443 0.962 . S
C1430 H1444 0.960 . S
C1431 C1428 1.511 . S
C1431 H1445 0.961 . S
C1431 H1446 0.961 . S
C1431 H1447 0.961 . S
C1432 C1433 1.370 . S
C1432 C1434 1.363 . S
C1432 H1448 0.931 . S
C1433 C1432 1.370 . S
C1433 C1437 1.408 . S
C1434 C1432 1.363 . S
C1434 C1435 1.370 . S
C1434 C1438 1.524 . S
C1435 C1427 1.503 . S
C1435 C1434 1.370 . S
C1435 C1436 1.403 . S
C1436 C1435 1.403 . S
C1436 C1437 1.404 . S
C1436 C1439 1.539 . S
C1437 C1433 1.408 . S
C1437 C1436 1.404 . S
C1437 H1449 0.930 . S
C1438 C1434 1.524 . S
C1438 H1450 0.956 . S
C1438 H1451 0.961 . S
C1438 H1452 0.961 . S
C1439 C1436 1.539 . S
C1439 H1453 0.958 . S
C1439 H1454 0.961 . S
C1439 H1455 0.960 . S
H1440 C1424 0.931 . S
H1441 C1429 0.929 . S
H1442 C1430 0.960 . S
H1443 C1430 0.962 . S
H1444 C1430 0.960 . S
H1445 C1431 0.961 . S
H1446 C1431 0.961 . S
H1447 C1431 0.961 . S
H1448 C1432 0.931 . S
H1449 C1437 0.930 . S
H1450 C1438 0.956 . S
H1451 C1438 0.961 . S
H1452 C1438 0.961 . S
H1453 C1439 0.958 . S
H1454 C1439 0.961 . S
H1455 C1439 0.960 . S
C1456 C1457 1.391 . S
C1456 C1458 1.394 . S
C1456 H1472 0.931 . S
C1457 C1456 1.391 . S
C1457 C1461 1.376 . S
C1458 C1456 1.394 . S
C1458 C1459 1.369 . S
C1458 C1462 1.531 . S
C1459 C1458 1.369 . S
C1459 C1460 1.410 . S
C1459 C1467 1.503 . S
C1460 C1459 1.410 . S
C1460 C1461 1.392 . S
C1460 C1463 1.511 . S
C1461 C1457 1.376 . S
C1461 C1460 1.392 . S
C1461 H1473 0.929 . S
C1462 C1458 1.531 . S
C1462 H1474 0.960 . S
C1462 H1475 0.962 . S
C1462 H1476 0.960 . S
C1463 C1460 1.511 . S
C1463 H1477 0.961 . S
C1463 H1478 0.961 . S
C1463 H1479 0.961 . S
C1464 C1465 1.370 . S
C1464 C1466 1.363 . S
C1464 H1480 0.931 . S
C1465 C1464 1.370 . S
C1465 C1469 1.408 . S
C1466 C1464 1.363 . S
C1466 C1467 1.370 . S
C1466 C1470 1.524 . S
C1467 C1459 1.503 . S
C1467 C1466 1.370 . S
C1467 C1468 1.403 . S
C1468 C1467 1.403 . S
C1468 C1469 1.404 . S
C1468 C1471 1.539 . S
C1469 C1465 1.408 . S
C1469 C1468 1.404 . S
C1469 H1481 0.930 . S
C1470 C1466 1.524 . S
C1470 H1482 0.956 . S
C1470 H1483 0.961 . S
C1470 H1484 0.961 . S
C1471 C1468 1.539 . S
C1471 H1485 0.958 . S
C1471 H1486 0.961 . S
C1471 H1487 0.960 . S
H1472 C1456 0.931 . S
H1473 C1461 0.929 . S
H1474 C1462 0.960 . S
H1475 C1462 0.962 . S
H1476 C1462 0.960 . S
H1477 C1463 0.961 . S
H1478 C1463 0.961 . S
H1479 C1463 0.961 . S
H1480 C1464 0.931 . S
H1481 C1469 0.930 . S
H1482 C1470 0.956 . S
H1483 C1470 0.961 . S
H1484 C1470 0.961 . S
H1485 C1471 0.958 . S
H1486 C1471 0.961 . S
H1487 C1471 0.960 . S
C1488 C1489 1.391 . S
C1488 C1490 1.394 . S
C1488 H1504 0.931 . S
C1489 C1488 1.391 . S
C1489 C1493 1.376 . S
C1490 C1488 1.394 . S
C1490 C1491 1.369 . S
C1490 C1494 1.531 . S
C1491 C1490 1.369 . S
C1491 C1492 1.410 . S
C1491 C1499 1.503 . S
C1492 C1491 1.410 . S
C1492 C1493 1.392 . S
C1492 C1495 1.511 . S
C1493 C1489 1.376 . S
C1493 C1492 1.392 . S
C1493 H1505 0.929 . S
C1494 C1490 1.531 . S
C1494 H1506 0.960 . S
C1494 H1507 0.962 . S
C1494 H1508 0.960 . S
C1495 C1492 1.511 . S
C1495 H1509 0.961 . S
C1495 H1510 0.961 . S
C1495 H1511 0.961 . S
C1496 C1497 1.370 . S
C1496 C1498 1.363 . S
C1496 H1512 0.931 1_554 S
C1497 C1496 1.370 . S
C1497 C1501 1.408 . S
C1498 C1496 1.363 . S
C1498 C1499 1.370 . S
C1498 C1502 1.524 . S
C1499 C1491 1.503 . S
C1499 C1498 1.370 . S
C1499 C1500 1.403 . S
C1500 C1499 1.403 . S
C1500 C1501 1.404 . S
C1500 C1503 1.539 . S
C1501 C1497 1.408 . S
C1501 C1500 1.404 . S
C1501 H1513 0.930 . S
C1502 C1498 1.524 . S
C1502 H1514 0.956 . S
C1502 H1515 0.961 . S
C1502 H1516 0.961 1_554 S
C1503 C1500 1.539 . S
C1503 H1517 0.958 . S
C1503 H1518 0.961 . S
C1503 H1519 0.960 . S
H1504 C1488 0.931 . S
H1505 C1493 0.929 . S
H1506 C1494 0.960 . S
H1507 C1494 0.962 . S
H1508 C1494 0.960 . S
H1509 C1495 0.961 . S
H1510 C1495 0.961 . S
H1511 C1495 0.961 . S
H1512 C1496 0.931 1_556 S
H1513 C1501 0.930 . S
H1514 C1502 0.956 . S
H1515 C1502 0.961 . S
H1516 C1502 0.961 1_556 S
H1517 C1503 0.958 . S
H1518 C1503 0.961 . S
H1519 C1503 0.960 . S
C1520 C1521 1.391 . S
C1520 C1522 1.394 . S
C1520 H1536 0.931 . S
C1521 C1520 1.391 . S
C1521 C1525 1.376 . S
C1522 C1520 1.394 . S
C1522 C1523 1.369 . S
C1522 C1526 1.531 . S
C1523 C1522 1.369 . S
C1523 C1524 1.410 . S
C1523 C1531 1.503 . S
C1524 C1523 1.410 . S
C1524 C1525 1.392 . S
C1524 C1527 1.511 . S
C1525 C1521 1.376 . S
C1525 C1524 1.392 . S
C1525 H1537 0.929 . S
C1526 C1522 1.531 . S
C1526 H1538 0.960 . S
C1526 H1539 0.962 . S
C1526 H1540 0.960 . S
C1527 C1524 1.511 . S
C1527 H1541 0.961 . S
C1527 H1542 0.961 . S
C1527 H1543 0.961 . S
C1528 C1529 1.370 . S
C1528 C1530 1.363 . S
C1528 H1544 0.931 . S
C1529 C1528 1.370 . S
C1529 C1533 1.408 . S
C1530 C1528 1.363 . S
C1530 C1531 1.370 . S
C1530 C1534 1.524 . S
C1531 C1523 1.503 . S
C1531 C1530 1.370 . S
C1531 C1532 1.403 . S
C1532 C1531 1.403 . S
C1532 C1533 1.404 . S
C1532 C1535 1.539 . S
C1533 C1529 1.408 . S
C1533 C1532 1.404 . S
C1533 H1545 0.930 . S
C1534 C1530 1.524 . S
C1534 H1546 0.956 . S
C1534 H1547 0.961 . S
C1534 H1548 0.961 . S
C1535 C1532 1.539 . S
C1535 H1549 0.958 . S
C1535 H1550 0.961 . S
C1535 H1551 0.960 . S
H1536 C1520 0.931 . S
H1537 C1525 0.929 . S
H1538 C1526 0.960 . S
H1539 C1526 0.962 . S
H1540 C1526 0.960 . S
H1541 C1527 0.961 . S
H1542 C1527 0.961 . S
H1543 C1527 0.961 . S
H1544 C1528 0.931 . S
H1545 C1533 0.930 . S
H1546 C1534 0.956 . S
H1547 C1534 0.961 . S
H1548 C1534 0.961 . S
H1549 C1535 0.958 . S
H1550 C1535 0.961 . S
H1551 C1535 0.960 . S
C1552 C1553 1.391 . S
C1552 C1554 1.394 . S
C1552 H1568 0.931 . S
C1553 C1552 1.391 . S
C1553 C1557 1.376 . S
C1554 C1552 1.394 . S
C1554 C1555 1.369 . S
C1554 C1558 1.531 . S
C1555 C1554 1.369 . S
C1555 C1556 1.410 . S
C1555 C1563 1.503 . S
C1556 C1555 1.410 . S
C1556 C1557 1.392 . S
C1556 C1559 1.511 . S
C1557 C1553 1.376 . S
C1557 C1556 1.392 . S
C1557 H1569 0.929 . S
C1558 C1554 1.531 . S
C1558 H1570 0.960 . S
C1558 H1571 0.962 . S
C1558 H1572 0.960 . S
C1559 C1556 1.511 . S
C1559 H1573 0.961 . S
C1559 H1574 0.961 . S
C1559 H1575 0.961 . S
C1560 C1561 1.370 . S
C1560 C1562 1.363 . S
C1560 H1576 0.931 . S
C1561 C1560 1.370 . S
C1561 C1565 1.408 . S
C1562 C1560 1.363 . S
C1562 C1563 1.370 . S
C1562 C1566 1.524 . S
C1563 C1555 1.503 . S
C1563 C1562 1.370 . S
C1563 C1564 1.403 . S
C1564 C1563 1.403 . S
C1564 C1565 1.404 . S
C1564 C1567 1.539 . S
C1565 C1561 1.408 . S
C1565 C1564 1.404 . S
C1565 H1577 0.930 . S
C1566 C1562 1.524 . S
C1566 H1578 0.956 . S
C1566 H1579 0.961 . S
C1566 H1580 0.961 . S
C1567 C1564 1.539 . S
C1567 H1581 0.958 . S
C1567 H1582 0.961 . S
C1567 H1583 0.960 . S
H1568 C1552 0.931 . S
H1569 C1557 0.929 . S
H1570 C1558 0.960 . S
H1571 C1558 0.962 . S
H1572 C1558 0.960 . S
H1573 C1559 0.961 . S
H1574 C1559 0.961 . S
H1575 C1559 0.961 . S
H1576 C1560 0.931 . S
H1577 C1565 0.930 . S
H1578 C1566 0.956 . S
H1579 C1566 0.961 . S
H1580 C1566 0.961 . S
H1581 C1567 0.958 . S
H1582 C1567 0.961 . S
H1583 C1567 0.960 . S
C1584 C1585 1.391 . S
C1584 C1586 1.394 . S
C1584 H1600 0.931 . S
C1585 C1584 1.391 . S
C1585 C1589 1.376 . S
C1586 C1584 1.394 . S
C1586 C1587 1.369 . S
C1586 C1590 1.531 . S
C1587 C1586 1.369 . S
C1587 C1588 1.410 . S
C1587 C1595 1.503 . S
C1588 C1587 1.410 . S
C1588 C1589 1.392 . S
C1588 C1591 1.511 . S
C1589 C1585 1.376 . S
C1589 C1588 1.392 . S
C1589 H1601 0.929 . S
C1590 C1586 1.531 . S
C1590 H1602 0.960 . S
C1590 H1603 0.962 . S
C1590 H1604 0.960 . S
C1591 C1588 1.511 . S
C1591 H1605 0.961 . S
C1591 H1606 0.961 . S
C1591 H1607 0.961 . S
C1592 C1593 1.370 . S
C1592 C1594 1.363 . S
C1592 H1608 0.931 . S
C1593 C1592 1.370 . S
C1593 C1597 1.408 . S
C1594 C1592 1.363 . S
C1594 C1595 1.370 . S
C1594 C1598 1.524 . S
C1595 C1587 1.503 . S
C1595 C1594 1.370 . S
C1595 C1596 1.403 . S
C1596 C1595 1.403 . S
C1596 C1597 1.404 . S
C1596 C1599 1.539 . S
C1597 C1593 1.408 . S
C1597 C1596 1.404 . S
C1597 H1609 0.930 . S
C1598 C1594 1.524 . S
C1598 H1610 0.956 . S
C1598 H1611 0.961 . S
C1598 H1612 0.961 . S
C1599 C1596 1.539 . S
C1599 H1613 0.958 . S
C1599 H1614 0.961 . S
C1599 H1615 0.960 . S
H1600 C1584 0.931 . S
H1601 C1589 0.929 . S
H1602 C1590 0.960 . S
H1603 C1590 0.962 . S
H1604 C1590 0.960 . S
H1605 C1591 0.961 . S
H1606 C1591 0.961 . S
H1607 C1591 0.961 . S
H1608 C1592 0.931 . S
H1609 C1597 0.930 . S
H1610 C1598 0.956 . S
H1611 C1598 0.961 . S
H1612 C1598 0.961 . S
H1613 C1599 0.958 . S
H1614 C1599 0.961 . S
H1615 C1599 0.960 . S
C1616 C1617 1.391 . S
C1616 C1618 1.394 . S
C1616 H1632 0.931 . S
C1617 C1616 1.391 . S
C1617 C1621 1.376 . S
C1618 C1616 1.394 . S
C1618 C1619 1.369 . S
C1618 C1622 1.531 . S
C1619 C1618 1.369 . S
C1619 C1620 1.410 . S
C1619 C1627 1.503 . S
C1620 C1619 1.410 . S
C1620 C1621 1.392 . S
C1620 C1623 1.511 . S
C1621 C1617 1.376 . S
C1621 C1620 1.392 . S
C1621 H1633 0.929 . S
C1622 C1618 1.531 . S
C1622 H1634 0.960 . S
C1622 H1635 0.962 . S
C1622 H1636 0.960 . S
C1623 C1620 1.511 . S
C1623 H1637 0.961 . S
C1623 H1638 0.961 . S
C1623 H1639 0.961 . S
C1624 C1625 1.370 . S
C1624 C1626 1.363 . S
C1624 H1640 0.931 . S
C1625 C1624 1.370 . S
C1625 C1629 1.408 . S
C1626 C1624 1.363 . S
C1626 C1627 1.370 . S
C1626 C1630 1.524 . S
C1627 C1619 1.503 . S
C1627 C1626 1.370 . S
C1627 C1628 1.403 . S
C1628 C1627 1.403 . S
C1628 C1629 1.404 . S
C1628 C1631 1.539 . S
C1629 C1625 1.408 . S
C1629 C1628 1.404 . S
C1629 H1641 0.930 . S
C1630 C1626 1.524 . S
C1630 H1642 0.956 . S
C1630 H1643 0.961 . S
C1630 H1644 0.961 . S
C1631 C1628 1.539 . S
C1631 H1645 0.958 . S
C1631 H1646 0.961 . S
C1631 H1647 0.960 . S
H1632 C1616 0.931 . S
H1633 C1621 0.929 . S
H1634 C1622 0.960 . S
H1635 C1622 0.962 . S
H1636 C1622 0.960 . S
H1637 C1623 0.961 . S
H1638 C1623 0.961 . S
H1639 C1623 0.961 . S
H1640 C1624 0.931 . S
H1641 C1629 0.930 . S
H1642 C1630 0.956 . S
H1643 C1630 0.961 . S
H1644 C1630 0.961 . S
H1645 C1631 0.958 . S
H1646 C1631 0.961 . S
H1647 C1631 0.960 . S
C1648 C1649 1.391 . S
C1648 C1650 1.394 . S
C1648 H1664 0.931 . S
C1649 C1648 1.391 . S
C1649 C1653 1.376 . S
C1650 C1648 1.394 . S
C1650 C1651 1.369 . S
C1650 C1654 1.531 . S
C1651 C1650 1.369 . S
C1651 C1652 1.410 . S
C1651 C1659 1.503 . S
C1652 C1651 1.410 . S
C1652 C1653 1.392 . S
C1652 C1655 1.511 . S
C1653 C1649 1.376 . S
C1653 C1652 1.392 . S
C1653 H1665 0.929 . S
C1654 C1650 1.531 . S
C1654 H1666 0.960 . S
C1654 H1667 0.962 . S
C1654 H1668 0.960 . S
C1655 C1652 1.511 . S
C1655 H1669 0.961 . S
C1655 H1670 0.961 . S
C1655 H1671 0.961 . S
C1656 C1657 1.370 . S
C1656 C1658 1.363 . S
C1656 H1672 0.931 . S
C1657 C1656 1.370 . S
C1657 C1661 1.408 . S
C1658 C1656 1.363 . S
C1658 C1659 1.370 . S
C1658 C1662 1.524 . S
C1659 C1651 1.503 . S
C1659 C1658 1.370 . S
C1659 C1660 1.403 . S
C1660 C1659 1.403 . S
C1660 C1661 1.404 . S
C1660 C1663 1.539 . S
C1661 C1657 1.408 . S
C1661 C1660 1.404 . S
C1661 H1673 0.930 . S
C1662 C1658 1.524 . S
C1662 H1674 0.956 . S
C1662 H1675 0.961 . S
C1662 H1676 0.961 . S
C1663 C1660 1.539 . S
C1663 H1677 0.958 . S
C1663 H1678 0.961 . S
C1663 H1679 0.960 . S
H1664 C1648 0.931 . S
H1665 C1653 0.929 . S
H1666 C1654 0.960 . S
H1667 C1654 0.962 . S
H1668 C1654 0.960 . S
H1669 C1655 0.961 . S
H1670 C1655 0.961 . S
H1671 C1655 0.961 . S
H1672 C1656 0.931 . S
H1673 C1661 0.930 . S
H1674 C1662 0.956 . S
H1675 C1662 0.961 . S
H1676 C1662 0.961 . S
H1677 C1663 0.958 . S
H1678 C1663 0.961 . S
H1679 C1663 0.960 . S
C1680 C1681 1.391 . S
C1680 C1682 1.394 . S
C1680 H1696 0.931 . S
C1681 C1680 1.391 . S
C1681 C1685 1.376 . S
C1682 C1680 1.394 . S
C1682 C1683 1.369 . S
C1682 C1686 1.531 . S
C1683 C1682 1.369 . S
C1683 C1684 1.410 . S
C1683 C1691 1.503 . S
C1684 C1683 1.410 . S
C1684 C1685 1.392 . S
C1684 C1687 1.511 . S
C1685 C1681 1.376 . S
C1685 C1684 1.392 . S
C1685 H1697 0.929 . S
C1686 C1682 1.531 . S
C1686 H1698 0.960 . S
C1686 H1699 0.962 . S
C1686 H1700 0.960 . S
C1687 C1684 1.511 . S
C1687 H1701 0.961 . S
C1687 H1702 0.961 . S
C1687 H1703 0.961 . S
C1688 C1689 1.370 . S
C1688 C1690 1.363 . S
C1688 H1704 0.931 . S
C1689 C1688 1.370 . S
C1689 C1693 1.408 . S
C1690 C1688 1.363 . S
C1690 C1691 1.370 . S
C1690 C1694 1.524 . S
C1691 C1683 1.503 . S
C1691 C1690 1.370 . S
C1691 C1692 1.403 . S
C1692 C1691 1.403 . S
C1692 C1693 1.404 . S
C1692 C1695 1.539 . S
C1693 C1689 1.408 . S
C1693 C1692 1.404 . S
C1693 H1705 0.930 1_554 S
C1694 C1690 1.524 . S
C1694 H1706 0.956 . S
C1694 H1707 0.961 . S
C1694 H1708 0.961 . S
C1695 C1692 1.539 . S
C1695 H1709 0.958 1_554 S
C1695 H1710 0.965 . S
C1695 H1711 0.960 . S
H1696 C1680 0.931 . S
H1697 C1685 0.929 . S
H1698 C1686 0.960 . S
H1699 C1686 0.962 . S
H1700 C1686 0.960 . S
H1701 C1687 0.961 . S
H1702 C1687 0.961 . S
H1703 C1687 0.961 . S
H1704 C1688 0.931 . S
H1705 C1693 0.930 1_556 S
H1706 C1694 0.956 . S
H1707 C1694 0.961 . S
H1708 C1694 0.961 . S
H1709 C1695 0.958 1_556 S
H1710 C1695 0.965 . S
H1711 C1695 0.960 . S
C1712 C1713 1.391 . S
C1712 C1714 1.394 . S
C1712 H1728 0.931 . S
C1713 C1712 1.391 . S
C1713 C1717 1.376 . S
C1714 C1712 1.394 . S
C1714 C1715 1.369 . S
C1714 C1718 1.531 . S
C1715 C1714 1.369 . S
C1715 C1716 1.410 . S
C1715 C1723 1.503 . S
C1716 C1715 1.410 . S
C1716 C1717 1.392 . S
C1716 C1719 1.511 . S
C1717 C1713 1.376 . S
C1717 C1716 1.392 . S
C1717 H1729 0.929 . S
C1718 C1714 1.531 . S
C1718 H1730 0.960 . S
C1718 H1731 0.962 . S
C1718 H1732 0.960 . S
C1719 C1716 1.511 . S
C1719 H1733 0.961 . S
C1719 H1734 0.961 . S
C1719 H1735 0.961 . S
C1720 C1721 1.370 . S
C1720 C1722 1.363 . S
C1720 H1736 0.931 . S
C1721 C1720 1.370 . S
C1721 C1725 1.408 . S
C1722 C1720 1.363 . S
C1722 C1723 1.370 . S
C1722 C1726 1.524 . S
C1723 C1715 1.503 . S
C1723 C1722 1.370 . S
C1723 C1724 1.403 . S
C1724 C1723 1.403 . S
C1724 C1725 1.404 . S
C1724 C1727 1.539 . S
C1725 C1721 1.408 . S
C1725 C1724 1.404 . S
C1725 H1737 0.930 . S
C1726 C1722 1.524 . S
C1726 H1738 0.956 . S
C1726 H1739 0.961 . S
C1726 H1740 0.961 . S
C1727 C1724 1.539 . S
C1727 H1741 0.958 . S
C1727 H1742 0.961 . S
C1727 H1743 0.960 . S
H1728 C1712 0.931 . S
H1729 C1717 0.929 . S
H1730 C1718 0.960 . S
H1731 C1718 0.962 . S
H1732 C1718 0.960 . S
H1733 C1719 0.961 . S
H1734 C1719 0.961 . S
H1735 C1719 0.961 . S
H1736 C1720 0.931 . S
H1737 C1725 0.930 . S
H1738 C1726 0.956 . S
H1739 C1726 0.961 . S
H1740 C1726 0.961 . S
H1741 C1727 0.958 . S
H1742 C1727 0.961 . S
H1743 C1727 0.960 . S
C1744 C1745 1.391 . S
C1744 C1746 1.394 . S
C1744 H1760 0.931 . S
C1745 C1744 1.391 . S
C1745 C1749 1.376 . S
C1746 C1744 1.394 . S
C1746 C1747 1.369 . S
C1746 C1750 1.531 . S
C1747 C1746 1.369 . S
C1747 C1748 1.410 . S
C1747 C1755 1.503 . S
C1748 C1747 1.410 . S
C1748 C1749 1.392 . S
C1748 C1751 1.511 . S
C1749 C1745 1.376 . S
C1749 C1748 1.392 . S
C1749 H1761 0.929 . S
C1750 C1746 1.531 . S
C1750 H1762 0.960 . S
C1750 H1763 0.962 . S
C1750 H1764 0.960 . S
C1751 C1748 1.511 . S
C1751 H1765 0.961 . S
C1751 H1766 0.961 . S
C1751 H1767 0.961 . S
C1752 C1753 1.370 . S
C1752 C1754 1.363 . S
C1752 H1768 0.931 . S
C1753 C1752 1.370 . S
C1753 C1757 1.408 . S
C1754 C1752 1.363 . S
C1754 C1755 1.370 . S
C1754 C1758 1.524 . S
C1755 C1747 1.503 . S
C1755 C1754 1.370 . S
C1755 C1756 1.403 . S
C1756 C1755 1.403 . S
C1756 C1757 1.404 . S
C1756 C1759 1.539 . S
C1757 C1753 1.408 . S
C1757 C1756 1.404 . S
C1757 H1769 0.930 . S
C1758 C1754 1.524 . S
C1758 H1770 0.956 . S
C1758 H1771 0.961 . S
C1758 H1772 0.961 . S
C1759 C1756 1.539 . S
C1759 H1773 0.958 . S
C1759 H1774 0.961 . S
C1759 H1775 0.960 . S
H1760 C1744 0.931 . S
H1761 C1749 0.929 . S
H1762 C1750 0.960 . S
H1763 C1750 0.962 . S
H1764 C1750 0.960 . S
H1765 C1751 0.961 . S
H1766 C1751 0.961 . S
H1767 C1751 0.961 . S
H1768 C1752 0.931 . S
H1769 C1757 0.930 . S
H1770 C1758 0.956 . S
H1771 C1758 0.961 . S
H1772 C1758 0.961 . S
H1773 C1759 0.958 . S
H1774 C1759 0.961 . S
H1775 C1759 0.960 . S
C1776 C1777 1.391 . S
C1776 C1778 1.394 . S
C1776 H1792 0.931 . S
C1777 C1776 1.391 . S
C1777 C1781 1.376 . S
C1778 C1776 1.394 . S
C1778 C1779 1.369 . S
C1778 C1782 1.531 . S
C1779 C1778 1.369 . S
C1779 C1780 1.410 . S
C1779 C1787 1.503 . S
C1780 C1779 1.410 . S
C1780 C1781 1.392 . S
C1780 C1783 1.511 . S
C1781 C1777 1.376 . S
C1781 C1780 1.392 . S
C1781 H1793 0.929 . S
C1782 C1778 1.531 . S
C1782 H1794 0.960 . S
C1782 H1795 0.962 . S
C1782 H1796 0.960 . S
C1783 C1780 1.511 . S
C1783 H1797 0.961 . S
C1783 H1798 0.961 . S
C1783 H1799 0.961 . S
C1784 C1785 1.370 . S
C1784 C1786 1.363 . S
C1784 H1800 0.931 . S
C1785 C1784 1.370 . S
C1785 C1789 1.408 . S
C1786 C1784 1.363 . S
C1786 C1787 1.370 . S
C1786 C1790 1.524 . S
C1787 C1779 1.503 . S
C1787 C1786 1.370 . S
C1787 C1788 1.403 . S
C1788 C1787 1.403 . S
C1788 C1789 1.404 . S
C1788 C1791 1.539 . S
C1789 C1785 1.408 . S
C1789 C1788 1.404 . S
C1789 H1801 0.930 . S
C1790 C1786 1.524 . S
C1790 H1802 0.956 . S
C1790 H1803 0.961 . S
C1790 H1804 0.961 . S
C1791 C1788 1.539 . S
C1791 H1805 0.958 . S
C1791 H1806 0.961 . S
C1791 H1807 0.960 . S
H1792 C1776 0.931 . S
H1793 C1781 0.929 . S
H1794 C1782 0.960 . S
H1795 C1782 0.962 . S
H1796 C1782 0.960 . S
H1797 C1783 0.961 . S
H1798 C1783 0.961 . S
H1799 C1783 0.961 . S
H1800 C1784 0.931 . S
H1801 C1789 0.930 . S
H1802 C1790 0.956 . S
H1803 C1790 0.961 . S
H1804 C1790 0.961 . S
H1805 C1791 0.958 . S
H1806 C1791 0.961 . S
H1807 C1791 0.960 . S
C529 N344 1.566 . S
C537 N14 1.560 . S
C561 N47 1.561 . S
C569 N377 1.553 . S
C593 N278 1.533 . S
C601 N80 1.542 . S
C625 N113 1.518 . S
C633 N311 1.539 . S
C657 N476 1.572 . S
C665 N146 1.556 . S
C689 N179 1.573 . S
C697 N509 1.561 . S
C721 N212 1.570 . S
C729 N410 1.555 . S
C753 N443 1.519 . S
C761 N245 1.539 . S
C785 C490 0.908 . S
C793 C8 0.931 . S
C817 C523 0.946 . S
C825 C41 0.929 . S
C849 C74 0.913 . S
C857 C424 0.911 . S
C881 C457 0.940 . S
C889 C107 0.936 . S
C913 C140 0.940 . S
C921 C358 0.929 . S
C945 C173 0.940 . S
C953 C391 0.936 . S
C977 C292 0.951 . S
C985 C206 0.934 . S
C1009 C239 0.911 . S
C1017 C325 0.913 . S
C1041 C226 0.902 . S
C1049 C272 0.929 . S
C1073 C259 0.944 . S
C1081 C305 0.936 . S
C1105 C160 0.912 . S
C1113 C338 0.931 . S
C1137 C371 0.943 . S
C1145 C193 0.929 . S
C1169 C404 0.933 . S
C1177 C94 0.923 . S
C1201 C437 0.913 . S
C1209 C127 0.911 . S
C1233 C470 0.938 . S
C1241 C28 0.927 . S
C1265 C61 0.914 . S
C1273 C503 0.930 . S
C1297 N368 1.719 . S
C1305 C17 1.708 . S
C1329 C50 1.725 . S
C1337 N269 1.727 . S
C1361 C83 1.726 . S
C1369 N302 1.728 . S
C1393 C116 1.726 . S
C1401 N335 1.729 . S
C1425 N170 1.727 . S
C1433 C149 1.719 . S
C1457 C182 1.718 . S
C1465 N203 1.734 . S
C1489 N236 1.730 . S
C1497 C215 1.705 . S
C1521 C248 1.717 . S
C1529 N137 1.734 . S
C1553 N104 1.726 . S
C1561 C281 1.704 . S
C1585 C314 1.701 . S
C1593 N5 1.734 . S
C1617 C347 1.692 . S
C1625 N38 1.729 . S
C1649 N71 1.736 . S
C1657 C380 1.708 . S
C1681 N434 1.720 . S
C1689 C413 1.718 . S
C1713 N467 1.722 . S
C1721 C446 1.704 . S
C1745 C479 1.696 . S
C1753 N500 1.727 . S
C1777 N401 1.728 . S
C1785 C512 1.705 . S
