# Generated by pormake.
# Topology kag, (6)-cn, num edge types: 1
# Building blocks:
#     Node 0, Type 0, BuildingBlock: PAMTUU_clean_sbu_0, # of connection points: 6
#     Node 1, Type 0, BuildingBlock: PAMTUU_clean_sbu_0, # of connection points: 6
#     Node 2, Type 0, BuildingBlock: PAMTUU_clean_sbu_0, # of connection points: 6
#     Edge 3, Type (0, 0), BuildingBlock: FUNLAD_clean_linker_1, # of connection points: 2
#     Edge 4, Type (0, 0), BuildingBlock: FUNLAD_clean_linker_1, # of connection points: 2
#     Edge 5, Type (0, 0), BuildingBlock: FUNLAD_clean_linker_1, # of connection points: 2
#     Edge 6, Type (0, 0), BuildingBlock: FUNLAD_clean_linker_1, # of connection points: 2
#     Edge 7, Type (0, 0), BuildingBlock: FUNLAD_clean_linker_1, # of connection points: 2
#     Edge 8, Type (0, 0), BuildingBlock: FUNLAD_clean_linker_1, # of connection points: 2
#     Edge 9, Type (0, 0), BuildingBlock: FUNLAD_clean_linker_1, # of connection points: 2
#     Edge 10, Type (0, 0), BuildingBlock: FUNLAD_clean_linker_1, # of connection points: 2
#     Edge 11, Type (0, 0), BuildingBlock: FUNLAD_clean_linker_1, # of connection points: 2
# Relax obj value: 0.086
# Max RMSD: 0.157
# Mean RMSD: 0.114
data_MOF--net-kag--node1-PAMTUU_clean_sbu_0--edge1-FUNLAD_clean_linker_1
_symmetry_space_group_name_H-M    P1
_symmetry_Int_Tables_number       1
_symmetry_cell_setting            triclinic
loop_
_symmetry_equiv_pos_as_xyz
'x, y, z'
_cell_length_a     50.502054
_cell_length_b     32.134403
_cell_length_c     15.622402
_cell_angle_alpha  88.427373
_cell_angle_beta   97.875513
_cell_angle_gamma 122.28706
loop_
_atom_site_label
_atom_site_type_symbol
_atom_site_fract_x
_atom_site_fract_y
_atom_site_fract_z
_atom_type_partial_charge
Tb0 Tb 1.02497 0.56775 0.02803 0.0
Tb1 Tb 0.04337 0.48413 0.01713 0.0
C2 C 1.02709 0.52761 0.85292 0.0
C3 C 0.97998 0.62896 0.01256 0.0
C4 C 0.92282 0.62601 0.97716 0.0
C5 C 0.95134 0.67022 0.00684 0.0
C6 C 0.97967 0.67164 0.02477 0.0
C7 C 0.95182 0.58498 0.98043 0.0
C8 C 0.92342 0.58346 0.96258 0.0
C9 C 1.0095 0.63024 0.03615 0.0
O10 O 0.98099 0.49835 0.04008 0.0
O11 O 0.99157 0.44147 0.99458 0.0
O12 O 1.03074 0.48301 0.14479 0.0
O13 O 0.04633 0.56392 0.15651 0.0
O14 O 0.04153 0.42747 0.94735 0.0
O15 O 0.06679 0.45103 0.07747 0.0
O16 O 0.08863 0.55386 0.04681 0.0
O17 O 0.07416 0.60921 0.00587 0.0
O18 O 1.00968 0.53592 0.89592 0.0
O19 O 0.04752 0.51778 0.89315 0.0
C20 C 0.97188 0.45311 0.01621 0.0
O21 O 1.00946 0.60297 0.09942 0.0
O22 O 1.02193 0.62556 0.97215 0.0
C23 C 0.0392 0.52235 0.19204 0.0
C24 C 0.08996 0.43117 0.97927 0.0
C25 C 0.14769 0.44872 0.93869 0.0
C26 C 0.13276 0.41649 0.00351 0.0
C27 C 0.10416 0.40789 0.02356 0.0
C28 C 0.10447 0.46263 0.91341 0.0
C29 C 0.13288 0.47076 0.8926 0.0
C30 C 0.06151 0.42533 0.00704 0.0
C31 C 0.09577 0.59821 0.02568 0.0
H32 H 0.95161 0.70359 0.01804 0.0
H33 H 1.00126 0.7059 0.04933 0.0
H34 H 0.95178 0.55174 0.96999 0.0
H35 H 0.90221 0.54902 0.93739 0.0
H36 H 0.14292 0.39753 0.03843 0.0
H37 H 0.09336 0.3836 0.07466 0.0
H38 H 0.09411 0.48148 0.87893 0.0
H39 H 0.14366 0.49514 0.84169 0.0
Tb40 Tb 0.48486 1.01845 0.96127 0.0
Tb41 Tb 0.56459 0.08513 0.00556 0.0
C42 C 0.52834 0.05351 0.81878 0.0
C43 C 0.39608 0.92211 0.9454 0.0
C44 C 0.33728 0.84057 0.9811 0.0
C45 C 0.34134 0.85677 0.89639 0.0
C46 C 0.37036 0.89717 0.87906 0.0
C47 C 0.39261 0.90488 0.02931 0.0
C48 C 0.36354 0.86441 0.04676 0.0
C49 C 0.42495 0.96823 0.92644 0.0
O50 O 0.49844 0.96431 0.96279 0.0
O51 O 0.55206 1.0082 0.01788 0.0
O52 O 0.54734 0.08316 0.12702 0.0
O53 O 0.49735 1.01269 0.09768 0.0
O54 O 0.60476 0.13982 0.95605 0.0
O55 O 0.60984 0.10765 0.07774 0.0
O56 O 0.5509 0.1399 0.98545 0.0
O57 O 0.49677 0.09324 0.98591 0.0
O58 O 0.50403 0.05188 0.84347 0.0
O59 O 0.54965 0.05244 0.87483 0.0
C60 C 0.52491 0.96637 0.99207 0.0
O61 O 0.44094 1.00224 0.98897 0.0
O62 O 0.44353 0.96472 0.88081 0.0
C63 C 0.52108 0.04681 0.15196 0.0
C64 C 0.659 0.17314 0.02346 0.0
C65 C 0.72541 0.23757 0.02372 0.0
C66 C 0.71349 0.20048 0.084 0.0
C67 C 0.68062 0.16867 0.0838 0.0
C68 C 0.671 0.21036 0.96408 0.0
C69 C 0.70361 0.24206 0.96447 0.0
C70 C 0.62408 0.13927 0.0199 0.0
C71 C 0.52352 0.13595 0.98643 0.0
H72 H 0.32228 0.83864 0.84303 0.0
H73 H 0.3725 0.90966 0.81377 0.0
H74 H 0.41208 0.92336 0.08177 0.0
H75 H 0.36135 0.85251 0.11238 0.0
H76 H 0.72924 0.19595 0.13185 0.0
H77 H 0.67214 0.14044 0.13051 0.0
H78 H 0.65515 0.21513 0.91676 0.0
H79 H 0.71182 0.27019 0.91748 0.0
Tb80 Tb 0.58898 0.60543 0.01305 0.0
Tb81 Tb 0.51187 0.54027 0.0076 0.0
C82 C 0.55793 0.57978 0.1798 0.0
C83 C 0.67076 0.6415 0.9932 0.0
C84 C 0.71493 0.61848 0.959 0.0
C85 C 0.72499 0.66682 0.98635 0.0
C86 C 0.70304 0.67807 0.00368 0.0
C87 C 0.66043 0.59371 0.96313 0.0
C88 C 0.68239 0.58238 0.94577 0.0
C89 C 0.64823 0.65319 0.01641 0.0
O90 O 0.57766 0.53093 0.03814 0.0
O91 O 0.52401 0.48472 0.98972 0.0
O92 O 0.5215 0.56616 0.87884 0.0
O93 O 0.56797 0.56934 0.88468 0.0
O94 O 0.47321 0.5179 0.07292 0.0
O95 O 0.46617 0.4897 0.94226 0.0
O96 O 0.52492 0.61738 0.02412 0.0
O97 O 0.57525 0.65881 0.9865 0.0
O98 O 0.5788 0.6159 0.13853 0.0
O99 O 0.53367 0.54021 0.13749 0.0
C100 C 0.55128 0.48828 0.01464 0.0
O101 O 0.62863 0.65295 0.95245 0.0
O102 O 0.63396 0.63045 0.08191 0.0
C103 C 0.543 0.56639 0.84013 0.0
C104 C 0.42582 0.4984 0.98381 0.0
C105 C 0.37175 0.50493 0.95823 0.0
C106 C 0.36989 0.46185 0.93131 0.0
C107 C 0.3967 0.45872 0.94409 0.0
C108 C 0.42805 0.54211 0.0079 0.0
C109 C 0.40117 0.54513 -0.00419 0.0
C110 C 0.45261 0.49174 0.00593 0.0
C111 C 0.5503 0.65814 0.00419 0.0
H112 H 0.74973 0.69613 0.99423 0.0
H113 H 0.7113 0.71526 0.02604 0.0
H114 H 0.63548 0.56509 0.95431 0.0
H115 H 0.67398 0.54506 0.92387 0.0
H116 H 0.34755 0.42955 0.90438 0.0
H117 H 0.39444 0.42456 0.92571 0.0
H118 H 0.45031 0.57335 0.03855 0.0
H119 H 0.40322 0.57858 0.01762 0.0
H120 H 1.00811 0.54144 0.72667 0.0
C121 C 1.02451 0.53168 0.75798 0.0
H122 H 0.05948 0.51671 0.74131 0.0
H123 H 0.98366 0.483 0.33958 0.0
H124 H 0.9379 0.41485 0.3933 0.0
H125 H 0.93908 0.39899 0.54865 0.0
H126 H 0.98602 0.45134 0.65131 0.0
C127 C 0.04225 0.52481 0.71015 0.0
C128 C 0.04147 0.53267 0.6154 0.0
C129 C 1.01411 0.50069 0.5558 0.0
C130 C 1.01393 0.50845 0.46552 0.0
C131 C 0.9857 0.47753 0.40818 0.0
C132 C 0.95908 0.43853 0.43826 0.0
C133 C 0.95973 0.42965 0.52576 0.0
C134 C 0.98683 0.46023 0.58411 0.0
H135 H 0.03645 0.48458 0.31343 0.0
C136 C 0.03977 0.51837 0.28663 0.0
H137 H 0.04614 0.58741 0.3141 0.0
H138 H 0.09763 0.60129 0.71177 0.0
H139 H 0.14435 0.66688 0.65727 0.0
H140 H 0.14473 0.67821 0.50053 0.0
H141 H 0.09836 0.62408 0.39729 0.0
C142 C 0.04241 0.55313 0.33948 0.0
C143 C 0.04164 0.54668 0.43442 0.0
C144 C 0.06894 0.57863 0.49405 0.0
C145 C 0.06885 0.57167 0.58447 0.0
C146 C 0.09646 0.60439 0.64239 0.0
C147 C 0.12345 0.64233 0.61202 0.0
C148 C 0.12366 0.64874 0.52379 0.0
C149 C 0.09683 0.6174 0.46522 0.0
H150 H 0.4947 1.01311 0.26115 0.0
C151 C 0.5171 1.04319 0.24427 0.0
H152 H 0.56149 0.10633 0.29174 0.0
H153 H 0.51893 0.14002 0.63183 0.0
H154 H 0.52938 0.21241 0.55395 0.0
H155 H 0.54113 0.22043 0.40404 0.0
H156 H 0.54285 0.15639 0.33142 0.0
C157 C 0.53936 0.07505 0.30737 0.0
C158 C 0.53314 0.07053 0.39901 0.0
C159 C 0.53187 0.10809 0.4403 0.0
C160 C 0.52453 0.10306 0.5263 0.0
C161 C 0.52398 0.14158 0.56631 0.0
C162 C 0.52997 0.1834 0.52236 0.0
C163 C 0.53662 0.18794 0.43801 0.0
C164 C 0.53757 0.15087 0.39711 0.0
H165 H 0.5533 0.05769 0.71101 0.0
C166 C 0.53245 0.05607 0.72671 0.0
H167 H 0.49157 0.05648 0.67663 0.0
H168 H 0.53829 0.99499 0.34475 0.0
H169 H 0.5255 0.92094 0.41994 0.0
H170 H 0.5075 0.90841 0.56282 0.0
H171 H 0.50297 0.97045 0.63214 0.0
C172 C 0.512 0.05639 0.66236 0.0
C173 C 0.51819 0.0603 0.57077 0.0
C174 C 0.51895 1.02233 0.52893 0.0
C175 C 0.52744 1.02819 0.44422 0.0
C176 C 0.53035 0.99137 0.40694 0.0
C177 C 0.52334 0.94881 0.44974 0.0
C178 C 0.51335 0.94187 0.53033 0.0
C179 C 0.51112 0.97802 0.56972 0.0
H180 H 0.51699 0.55887 0.71004 0.0
C181 C 0.53864 0.56336 0.74458 0.0
H182 H 0.58196 0.57012 0.73308 0.0
H183 H 0.54287 0.47412 0.35489 0.0
H184 H 0.5463 0.4121 0.43861 0.0
H185 H 0.55344 0.41794 0.59819 0.0
H186 H 0.55759 0.48618 0.67502 0.0
C187 C 0.56056 0.56688 0.69951 0.0
C188 C 0.55548 0.5632 0.60292 0.0
C189 C 0.55277 0.5228 0.55884 0.0
C190 C 0.54801 0.5189 0.46673 0.0
C191 C 0.54599 0.47858 0.42465 0.0
C192 C 0.54798 0.44272 0.47193 0.0
C193 C 0.55206 0.44605 0.56176 0.0
C194 C 0.55446 0.48552 0.60505 0.0
H195 H 0.58372 0.61616 0.30822 0.0
C196 C 0.56229 0.58412 0.27528 0.0
H197 H 0.51943 0.51783 0.28997 0.0
H198 H 0.56364 0.64875 0.66612 0.0
H199 H 0.55727 0.70831 0.58279 0.0
H200 H 0.54379 0.69723 0.4238 0.0
H201 H 0.53735 0.62717 0.34723 0.0
C202 C 0.5406 0.55057 0.32203 0.0
C203 C 0.54558 0.55512 0.4186 0.0
C204 C 0.54759 0.595 0.46271 0.0
C205 C 0.55351 0.59984 0.55481 0.0
C206 C 0.55762 0.64188 0.5967 0.0
C207 C 0.55427 0.67661 0.54957 0.0
C208 C 0.54682 0.67049 0.46006 0.0
C209 C 0.54345 0.63024 0.41683 0.0
H210 H 0.18314 0.46788 0.85076 0.0
C211 C 0.17827 0.45904 0.91675 0.0
H212 H 0.19633 0.45141 0.04248 0.0
H213 H 0.28516 0.38841 0.93325 0.0
H214 H 0.24217 0.31034 0.97305 0.0
H215 H 0.19265 0.30145 0.00211 0.0
H216 H 0.18595 0.37077 0.99205 0.0
C217 C 0.20033 0.45907 0.97575 0.0
C218 C 0.22942 0.46445 0.95131 0.0
C219 C 0.23277 0.42334 0.95595 0.0
C220 C 0.26111 0.42827 0.93775 0.0
C221 C 0.26402 0.38676 0.94503 0.0
C222 C 0.23952 0.34164 0.96804 0.0
C223 C 0.21166 0.33665 0.98451 0.0
C224 C 0.20818 0.37684 0.97868 0.0
H225 H 0.34336 0.53076 0.00572 0.0
C226 C 0.34298 0.50701 0.95664 0.0
H227 H 0.31527 0.45581 0.85045 0.0
H228 H 0.2314 0.55138 0.94057 0.0
H229 H 0.27375 0.62889 0.896 0.0
H230 H 0.32139 0.63594 0.85511 0.0
H231 H 0.32742 0.56581 0.86085 0.0
C232 C 0.31625 0.47937 0.90086 0.0
C233 C 0.28604 0.47431 0.91442 0.0
C234 C 0.28229 0.51506 0.90703 0.0
C235 C 0.25416 0.51038 0.92702 0.0
C236 C 0.25177 0.55237 0.92355 0.0
C237 C 0.27594 0.59715 0.89825 0.0
C238 C 0.30285 0.60119 0.87561 0.0
C239 C 0.3061 0.56074 0.87971 0.0
H240 H 0.76633 0.30389 0.97868 0.0
C241 C 0.76001 0.27302 0.01993 0.0
H242 H 0.77914 0.23956 0.10397 0.0
H243 H 0.89558 0.38447 0.87429 0.0
H244 H 0.8606 0.32864 0.7521 0.0
H245 H 0.80625 0.26112 0.76703 0.0
H246 H 0.78631 0.24969 0.90395 0.0
C247 C 0.78384 0.26918 0.06128 0.0
C248 C 0.81783 0.30711 0.0536 0.0
C249 C 0.82976 0.31201 0.97418 0.0
C250 C 0.86176 0.34956 0.96672 0.0
C251 C 0.87212 0.35538 0.88496 0.0
C252 C 0.85217 0.32377 0.81394 0.0
C253 C 0.82153 0.28587 0.82225 0.0
C254 C 0.81033 0.27989 0.90119 0.0
H255 H 0.93152 0.37528 0.00265 0.0
C256 C 0.93818 0.41294 0.016 0.0
H257 H 0.92262 0.45893 0.0486 0.0
H258 H 0.80304 0.30804 0.21506 0.0
H259 H 0.83834 0.3626 0.33856 0.0
H260 H 0.89406 0.42552 0.3274 0.0
H261 H 0.91507 0.43402 0.19313 0.0
C262 C 0.91592 0.42146 0.03309 0.0
C263 C 0.88241 0.38091 0.03983 0.0
C264 C 0.87056 0.37541 0.11957 0.0
C265 C 0.83837 0.33869 0.12634 0.0
C266 C 0.82728 0.33488 0.20646 0.0
C267 C 0.84727 0.366 0.27791 0.0
C268 C 0.87867 0.40141 0.27164 0.0
C269 C 0.89035 0.40607 0.19385 0.0
H270 H 0.49868 0.88502 0.98333 0.0
C271 C 0.52244 0.91774 -0.0046 0.0
H272 H 0.57095 0.94335 0.0226 0.0
H273 H 0.55951 0.7498 0.16854 0.0
H274 H 0.5867 0.80768 0.2933 0.0
H275 H 0.59363 0.88967 0.29032 0.0
H276 H 0.5735 0.91451 0.16273 0.0
C277 C 0.54702 0.91126 0.00884 0.0
C278 C 0.54239 0.86048 0.00988 0.0
C279 C 0.5543 0.84608 0.08498 0.0
C280 C 0.55021 0.79836 0.08693 0.0
C281 C 0.56214 0.78543 0.1633 0.0
C282 C 0.57773 0.81826 0.23549 0.0
C283 C 0.58163 0.86444 0.2338 0.0
C284 C 0.57003 0.87831 0.15986 0.0
H285 H 0.5749 0.73857 0.99021 0.0
C286 C 0.55252 0.70656 0.00283 0.0
H287 H 0.50639 0.68248 0.02715 0.0
H288 H 0.52081 0.8768 0.84965 0.0
H289 H 0.49294 0.81816 0.72659 0.0
H290 H 0.48301 0.73432 0.73382 0.0
H291 H 0.50147 0.70884 0.86412 0.0
C292 C 0.52932 0.7137 0.01632 0.0
C293 C 0.53406 0.76436 0.01402 0.0
C294 C 0.52217 0.77861 0.93896 0.0
C295 C 0.52689 0.82673 0.93604 0.0
C296 C 0.51656 0.8403 0.85752 0.0
C297 C 0.50081 0.8071 0.78581 0.0
C298 C 0.4953 0.75993 0.78979 0.0
C299 C 0.50596 0.74575 0.86504 0.0
H300 H 0.89538 0.66165 0.96146 0.0
C301 C 0.89315 0.62603 0.96375 0.0
H302 H 0.86065 0.54922 0.9702 0.0
H303 H 0.76588 0.58762 0.12745 0.0
H304 H 0.78212 0.55273 0.24743 0.0
H305 H 0.82337 0.53453 0.23849 0.0
H306 H 0.8485 0.55085 0.10951 0.0
C307 C 0.86404 0.5853 0.96197 0.0
C308 C 0.83629 0.5899 0.96233 0.0
C309 C 0.8217 0.57967 0.03802 0.0
C310 C 0.79824 0.59074 0.04362 0.0
C311 C 0.78413 0.58049 0.12018 0.0
C312 C 0.79317 0.56034 0.18945 0.0
C313 C 0.81636 0.55005 0.18438 0.0
C314 C 0.83059 0.5596 0.10984 0.0
H315 H 0.72922 0.57212 0.90226 0.0
C316 C 0.73771 0.6046 0.94412 0.0
H317 H 0.77619 0.65852 0.03229 0.0
H318 H 0.85543 0.60522 0.80274 0.0
H319 H 0.839 0.63963 0.68209 0.0
H320 H 0.80031 0.66295 0.69427 0.0
H321 H 0.77751 0.65139 0.82641 0.0
C322 C 0.76774 0.62867 0.98435 0.0
C323 C 0.78945 0.61196 0.97359 0.0
C324 C 0.80289 0.61987 0.89618 0.0
C325 C 0.826 0.60806 0.89014 0.0
C326 C 0.83851 0.61503 0.81152 0.0
C327 C 0.82915 0.63447 0.74169 0.0
C328 C 0.80731 0.64747 0.74848 0.0
C329 C 0.7943 0.64045 0.82469 0.0
H330 H 0.13419 0.67364 0.00303 0.0
C331 C 0.12919 0.63739 0.02042 0.0
H332 H 0.14817 0.59282 0.04558 0.0
H333 H 0.26505 0.71692 0.84494 0.0
H334 H 0.23399 0.6402 0.75715 0.0
H335 H 0.18066 0.57584 0.78611 0.0
H336 H 0.15799 0.58736 0.90356 0.0
C337 C 0.15305 0.62941 0.0318 0.0
C338 C 0.18586 0.66832 0.01629 0.0
C339 C 0.19884 0.66095 0.94738 0.0
C340 C 0.22949 0.69851 0.92963 0.0
C341 C 0.24175 0.68997 0.8605 0.0
C342 C 0.22421 0.64606 0.80968 0.0
C343 C 0.19421 0.60973 0.82622 0.0
C344 C 0.18152 0.61685 0.89402 0.0
H345 H 0.3064 0.78192 0.06413 0.0
C346 C 0.30624 0.79932 0.00353 0.0
H347 H 0.27664 0.80125 0.89532 0.0
H348 H 0.17058 0.69181 0.16134 0.0
H349 H 0.20116 0.76922 0.24702 0.0
H350 H 0.25259 0.83631 0.21024 0.0
H351 H 0.27405 0.82609 0.08864 0.0
C352 C 0.27799 0.78442 0.95551 0.0
C353 C 0.24726 0.7436 0.98041 0.0
C354 C 0.23456 0.75067 0.05031 0.0
C355 C 0.20417 0.71268 0.06928 0.0
C356 C 0.19286 0.72003 0.14187 0.0
C357 C 0.21028 0.76419 0.19202 0.0
C358 C 0.23929 0.8019 0.17148 0.0
C359 C 0.2514 0.79545 0.10158 0.0
H360 H 0.57698 0.44999 0.03964 0.0
C361 C 0.55372 0.44373 0.01725 0.0
H362 H 0.50643 0.39011 0.96746 0.0
H363 H 0.53052 0.23108 0.83135 0.0
H364 H 0.51585 0.25835 0.69714 0.0
H365 H 0.50961 0.32941 0.69711 0.0
H366 H 0.51791 0.37369 0.8312 0.0
C367 C 0.5296 0.397 0.99328 0.0
C368 C 0.53419 0.35399 0.99424 0.0
C369 C 0.52899 0.32777 0.91546 0.0
C370 C 0.53265 0.2865 0.91539 0.0
C371 C 0.52778 0.26211 0.83532 0.0
C372 C 0.51945 0.27749 0.75772 0.0
C373 C 0.51592 0.3175 0.75771 0.0
C374 C 0.52066 0.34251 0.8353 0.0
H375 H 0.49759 0.1741 0.97823 0.0
C376 C 0.52127 0.18065 0.98562 0.0
H377 H 0.57006 0.23583 0.00491 0.0
H378 H 0.54292 0.3911 0.15842 0.0
H379 H 0.55826 0.3643 0.29193 0.0
H380 H 0.56645 0.29524 0.29087 0.0
H381 H 0.55901 0.25208 0.15607 0.0
C382 C 0.54607 0.22795 0.99424 0.0
C383 C 0.54151 0.27087 0.9941 0.0
C384 C 0.54678 0.29705 0.07284 0.0
C385 C 0.54274 0.33795 0.07317 0.0
C386 C 0.54669 0.3612 0.1537 0.0
C387 C 0.55526 0.3459 0.23106 0.0
C388 C 0.55982 0.30695 0.23049 0.0
C389 C 0.55555 0.28257 0.15262 0.0
loop_
_geom_bond_atom_site_label_1
_geom_bond_atom_site_label_2
_geom_bond_distance
_geom_bond_site_symmetry_2
_ccdc_geom_bond_type
Tb0 C9 2.764 . S
Tb0 O10 2.325 . S
Tb0 O13 2.292 1_656 S
Tb0 O17 2.322 1_655 S
Tb0 O18 2.349 . S
Tb0 O21 2.415 1_556 S
Tb0 O22 2.399 . S
Tb1 O11 2.322 1_455 S
Tb1 O12 2.349 . S
Tb1 O14 2.415 1_554 S
Tb1 O15 2.399 . S
Tb1 O16 2.325 . S
Tb1 O19 2.303 1_554 S
Tb1 C30 2.764 . S
C2 O18 1.261 . S
C2 O19 1.257 1_655 S
C3 C6 1.358 . S
C3 C7 1.332 1_556 S
C3 C9 1.504 . S
C4 C5 1.373 1_554 S
C4 C8 1.308 . S
C5 C4 1.373 1_556 S
C5 C6 1.429 . S
C5 H32 0.932 . S
C6 C3 1.358 . S
C6 C5 1.429 . S
C6 H33 0.930 . S
C7 C3 1.332 1_554 S
C7 C8 1.394 . S
C7 H34 0.932 . S
C8 C4 1.308 . S
C8 C7 1.394 . S
C8 H35 0.929 . S
C9 Tb0 2.764 . S
C9 C3 1.504 . S
C9 O21 1.239 1_556 S
C9 O22 1.263 . S
O10 Tb0 2.325 . S
O10 C20 1.236 . S
O11 Tb1 2.322 1_655 S
O11 C20 1.257 1_554 S
O12 Tb1 2.349 . S
O12 C23 1.261 . S
O13 Tb0 2.292 1_454 S
O13 C23 1.266 . S
O14 Tb1 2.415 1_556 S
O14 C30 1.239 1_556 S
O15 Tb1 2.399 . S
O15 C30 1.263 . S
O16 Tb1 2.325 . S
O16 C31 1.236 . S
O17 Tb0 2.322 1_455 S
O17 C31 1.257 1_556 S
O18 Tb0 2.349 . S
O18 C2 1.261 . S
O19 Tb1 2.303 1_556 S
O19 C2 1.257 1_455 S
C20 O10 1.236 . S
C20 O11 1.257 1_556 S
O21 Tb0 2.415 1_554 S
O21 C9 1.239 1_554 S
O22 Tb0 2.399 . S
O22 C9 1.263 . S
C23 O12 1.261 . S
C23 O13 1.266 . S
C24 C27 1.358 . S
C24 C28 1.332 1_554 S
C24 C30 1.504 . S
C25 C26 1.373 1_556 S
C25 C29 1.308 . S
C26 C25 1.373 1_554 S
C26 C27 1.429 . S
C26 H36 0.932 . S
C27 C24 1.358 . S
C27 C26 1.429 . S
C27 H37 0.930 . S
C28 C24 1.332 1_556 S
C28 C29 1.394 . S
C28 H38 0.932 . S
C29 C25 1.308 . S
C29 C28 1.394 . S
C29 H39 0.929 . S
C30 Tb1 2.764 . S
C30 O14 1.239 1_554 S
C30 O15 1.263 . S
C30 C24 1.504 . S
C31 O16 1.236 . S
C31 O17 1.257 1_554 S
H32 C5 0.932 . S
H33 C6 0.930 . S
H34 C7 0.932 . S
H35 C8 0.929 . S
H36 C26 0.932 . S
H37 C27 0.930 . S
H38 C28 0.932 . S
H39 C29 0.929 . S
Tb40 C49 2.764 . S
Tb40 O50 2.325 . S
Tb40 O53 2.303 1_556 S
Tb40 O57 2.322 1_565 S
Tb40 O58 2.349 . S
Tb40 O61 2.415 1_556 S
Tb40 O62 2.399 . S
Tb41 O51 2.322 1_545 S
Tb41 O52 2.349 . S
Tb41 O54 2.415 1_554 S
Tb41 O55 2.399 . S
Tb41 O56 2.325 . S
Tb41 O59 2.303 1_554 S
Tb41 C70 2.764 . S
C42 O58 1.261 . S
C42 O59 1.257 1_565 S
C43 C46 1.358 . S
C43 C47 1.332 1_556 S
C43 C49 1.504 . S
C44 C45 1.373 . S
C44 C48 1.308 1_556 S
C45 C44 1.373 . S
C45 C46 1.429 . S
C45 H72 0.932 . S
C46 C43 1.358 . S
C46 C45 1.429 . S
C46 H73 0.930 . S
C47 C43 1.332 1_554 S
C47 C48 1.394 . S
C47 H74 0.932 . S
C48 C44 1.308 1_554 S
C48 C47 1.394 . S
C48 H75 0.929 . S
C49 Tb40 2.764 . S
C49 C43 1.504 . S
C49 O61 1.239 1_556 S
C49 O62 1.263 . S
O50 Tb40 2.325 . S
O50 C60 1.236 1_556 S
O51 Tb41 2.322 1_565 S
O51 C60 1.257 . S
O52 Tb41 2.349 . S
O52 C63 1.261 . S
O53 Tb40 2.303 1_554 S
O53 C63 1.257 1_565 S
O54 Tb41 2.415 1_556 S
O54 C70 1.239 1_556 S
O55 Tb41 2.399 . S
O55 C70 1.263 . S
O56 Tb41 2.325 . S
O56 C71 1.236 1_554 S
O57 Tb40 2.322 1_545 S
O57 C71 1.257 . S
O58 Tb40 2.349 . S
O58 C42 1.261 . S
O59 Tb41 2.303 1_556 S
O59 C42 1.257 1_545 S
C60 O50 1.236 1_554 S
C60 O51 1.257 . S
O61 Tb40 2.415 1_554 S
O61 C49 1.239 1_554 S
O62 Tb40 2.399 . S
O62 C49 1.263 . S
C63 O52 1.261 . S
C63 O53 1.257 1_545 S
C64 C67 1.358 . S
C64 C68 1.332 1_554 S
C64 C70 1.504 . S
C65 C66 1.373 . S
C65 C69 1.308 1_554 S
C66 C65 1.373 . S
C66 C67 1.429 . S
C66 H76 0.932 . S
C67 C64 1.358 . S
C67 C66 1.429 . S
C67 H77 0.930 . S
C68 C64 1.332 1_556 S
C68 C69 1.394 . S
C68 H78 0.932 . S
C69 C65 1.308 1_556 S
C69 C68 1.394 . S
C69 H79 0.929 . S
C70 Tb41 2.764 . S
C70 O54 1.239 1_554 S
C70 O55 1.263 . S
C70 C64 1.504 . S
C71 O56 1.236 1_556 S
C71 O57 1.257 . S
H72 C45 0.932 . S
H73 C46 0.930 . S
H74 C47 0.932 . S
H75 C48 0.929 . S
H76 C66 0.932 . S
H77 C67 0.930 . S
H78 C68 0.932 . S
H79 C69 0.929 . S
Tb80 C89 2.764 . S
Tb80 O90 2.325 . S
Tb80 O93 2.303 1_554 S
Tb80 O97 2.322 . S
Tb80 O98 2.349 . S
Tb80 O101 2.415 1_554 S
Tb80 O102 2.399 . S
Tb81 O91 2.322 . S
Tb81 O92 2.349 . S
Tb81 O94 2.415 1_556 S
Tb81 O95 2.399 . S
Tb81 O96 2.325 . S
Tb81 O99 2.303 1_556 S
Tb81 C110 2.764 . S
C82 O98 1.261 . S
C82 O99 1.257 . S
C83 C86 1.358 . S
C83 C87 1.332 1_554 S
C83 C89 1.504 . S
C84 C85 1.373 . S
C84 C88 1.308 1_554 S
C85 C84 1.373 . S
C85 C86 1.429 . S
C85 H112 0.932 . S
C86 C83 1.358 . S
C86 C85 1.429 . S
C86 H113 0.930 . S
C87 C83 1.332 1_556 S
C87 C88 1.394 . S
C87 H114 0.932 . S
C88 C84 1.308 1_556 S
C88 C87 1.394 . S
C88 H115 0.929 . S
C89 Tb80 2.764 . S
C89 C83 1.504 . S
C89 O101 1.239 1_554 S
C89 O102 1.263 . S
O90 Tb80 2.325 . S
O90 C100 1.236 1_554 S
O91 Tb81 2.322 . S
O91 C100 1.257 . S
O92 Tb81 2.349 . S
O92 C103 1.261 . S
O93 Tb80 2.303 1_556 S
O93 C103 1.257 . S
O94 Tb81 2.415 1_554 S
O94 C110 1.239 1_554 S
O95 Tb81 2.399 . S
O95 C110 1.263 . S
O96 Tb81 2.325 . S
O96 C111 1.236 1_556 S
O97 Tb80 2.322 . S
O97 C111 1.257 . S
O98 Tb80 2.349 . S
O98 C82 1.261 . S
O99 Tb81 2.303 1_554 S
O99 C82 1.257 . S
C100 O90 1.236 1_556 S
C100 O91 1.257 . S
O101 Tb80 2.415 1_556 S
O101 C89 1.239 1_556 S
O102 Tb80 2.399 . S
O102 C89 1.263 . S
C103 O92 1.261 . S
C103 O93 1.257 . S
C104 C107 1.358 . S
C104 C108 1.332 1_556 S
C104 C110 1.504 . S
C105 C106 1.373 . S
C105 C109 1.308 1_556 S
C106 C105 1.373 . S
C106 C107 1.429 . S
C106 H116 0.932 . S
C107 C104 1.358 . S
C107 C106 1.429 . S
C107 H117 0.930 . S
C108 C104 1.332 1_554 S
C108 C109 1.394 . S
C108 H118 0.932 . S
C109 C105 1.308 1_554 S
C109 C108 1.394 . S
C109 H119 0.929 . S
C110 Tb81 2.764 . S
C110 O94 1.239 1_556 S
C110 O95 1.263 . S
C110 C104 1.504 . S
C111 O96 1.236 1_554 S
C111 O97 1.257 . S
H112 C85 0.932 . S
H113 C86 0.930 . S
H114 C87 0.932 . S
H115 C88 0.929 . S
H116 C106 0.932 . S
H117 C107 0.930 . S
H118 C108 0.932 . S
H119 C109 0.929 . S
H120 C121 0.951 . S
C121 H120 0.951 . S
C121 C127 1.265 1_655 S
H122 C127 0.950 . S
H123 C131 0.949 . S
H124 C132 0.950 . S
H125 C133 0.951 . S
H126 C134 0.951 . S
C127 C121 1.265 1_455 S
C127 H122 0.950 . S
C127 C128 1.478 . S
C128 C127 1.478 . S
C128 C129 1.397 1_455 S
C128 C145 1.394 . S
C129 C128 1.397 1_655 S
C129 C130 1.438 . S
C129 C134 1.429 . S
C130 C129 1.438 . S
C130 C131 1.428 . S
C130 C143 1.394 . S
C131 H123 0.949 . S
C131 C130 1.428 . S
C131 C132 1.345 . S
C132 H124 0.950 . S
C132 C131 1.345 . S
C132 C133 1.424 . S
C133 H125 0.951 . S
C133 C132 1.424 . S
C133 C134 1.347 . S
C134 H126 0.951 . S
C134 C129 1.429 . S
C134 C133 1.347 . S
H135 C136 0.951 . S
C136 H135 0.951 . S
C136 C142 1.265 1_455 S
H137 C142 0.950 . S
H138 C146 0.949 . S
H139 C147 0.950 . S
H140 C148 0.951 . S
H141 C149 0.951 . S
C142 C136 1.265 1_655 S
C142 H137 0.950 . S
C142 C143 1.478 . S
C143 C130 1.394 . S
C143 C142 1.478 . S
C143 C144 1.397 1_655 S
C144 C143 1.397 1_455 S
C144 C145 1.438 . S
C144 C149 1.429 . S
C145 C128 1.394 . S
C145 C144 1.438 . S
C145 C146 1.428 . S
C146 H138 0.949 . S
C146 C145 1.428 . S
C146 C147 1.345 . S
C147 H139 0.950 . S
C147 C146 1.345 . S
C147 C148 1.424 . S
C148 H140 0.951 . S
C148 C147 1.424 . S
C148 C149 1.347 . S
C149 H141 0.951 . S
C149 C144 1.429 . S
C149 C148 1.347 . S
H150 C151 0.951 . S
C151 H150 0.951 . S
C151 C157 1.257 . S
H152 C157 0.964 1_545 S
H153 C161 0.949 . S
H154 C162 0.950 . S
H155 C163 0.951 . S
H156 C164 0.951 . S
C157 C151 1.257 . S
C157 H152 0.964 1_565 S
C157 C158 1.475 . S
C158 C157 1.475 . S
C158 C159 1.390 1_565 S
C158 C175 1.398 . S
C159 C158 1.390 1_545 S
C159 C160 1.438 . S
C159 C164 1.429 . S
C160 C159 1.438 . S
C160 C161 1.428 . S
C160 C173 1.394 . S
C161 H153 0.949 . S
C161 C160 1.428 . S
C161 C162 1.345 . S
C162 H154 0.950 . S
C162 C161 1.345 . S
C162 C163 1.424 . S
C163 H155 0.951 . S
C163 C162 1.424 . S
C163 C164 1.347 . S
C164 H156 0.951 . S
C164 C159 1.429 . S
C164 C163 1.347 . S
H165 C166 0.951 . S
C166 H165 0.951 . S
C166 C172 1.265 . S
H167 C172 0.952 1_565 S
H168 C176 0.949 . S
H169 C177 0.950 . S
H170 C178 0.951 . S
H171 C179 0.951 . S
C172 C166 1.265 . S
C172 H167 0.952 1_545 S
C172 C173 1.478 . S
C173 C160 1.394 . S
C173 C172 1.478 . S
C173 C174 1.397 1_545 S
C174 C173 1.397 1_565 S
C174 C175 1.438 . S
C174 C179 1.429 . S
C175 C158 1.398 . S
C175 C174 1.438 . S
C175 C176 1.428 . S
C176 H168 0.949 . S
C176 C175 1.428 . S
C176 C177 1.345 . S
C177 H169 0.950 . S
C177 C176 1.345 . S
C177 C178 1.424 . S
C178 H170 0.951 . S
C178 C177 1.424 . S
C178 C179 1.347 . S
C179 H171 0.951 . S
C179 C174 1.429 . S
C179 C178 1.347 . S
H180 C181 0.951 . S
C181 H180 0.951 . S
C181 C187 1.265 . S
H182 C187 0.950 . S
H183 C191 0.949 . S
H184 C192 0.950 . S
H185 C193 0.951 . S
H186 C194 0.951 . S
C187 C181 1.265 . S
C187 H182 0.950 . S
C187 C188 1.478 . S
C188 C187 1.478 . S
C188 C189 1.397 . S
C188 C205 1.394 . S
C189 C188 1.397 . S
C189 C190 1.438 . S
C189 C194 1.429 . S
C190 C189 1.438 . S
C190 C191 1.428 . S
C190 C203 1.394 . S
C191 H183 0.949 . S
C191 C190 1.428 . S
C191 C192 1.345 . S
C192 H184 0.950 . S
C192 C191 1.345 . S
C192 C193 1.424 . S
C193 H185 0.951 . S
C193 C192 1.424 . S
C193 C194 1.347 . S
C194 H186 0.951 . S
C194 C189 1.429 . S
C194 C193 1.347 . S
H195 C196 0.951 . S
C196 H195 0.951 . S
C196 C202 1.265 . S
H197 C202 0.950 . S
H198 C206 0.949 . S
H199 C207 0.950 . S
H200 C208 0.951 . S
H201 C209 0.951 . S
C202 C196 1.265 . S
C202 H197 0.950 . S
C202 C203 1.478 . S
C203 C190 1.394 . S
C203 C202 1.478 . S
C203 C204 1.397 . S
C204 C203 1.397 . S
C204 C205 1.438 . S
C204 C209 1.429 . S
C205 C188 1.394 . S
C205 C204 1.438 . S
C205 C206 1.428 . S
C206 H198 0.949 . S
C206 C205 1.428 . S
C206 C207 1.345 . S
C207 H199 0.950 . S
C207 C206 1.345 . S
C207 C208 1.424 . S
C208 H200 0.951 . S
C208 C207 1.424 . S
C208 C209 1.347 . S
C209 H201 0.951 . S
C209 C204 1.429 . S
C209 C208 1.347 . S
H210 C211 0.951 . S
C211 H210 0.951 . S
C211 C217 1.265 1_556 S
H212 C217 0.950 . S
H213 C221 0.949 . S
H214 C222 0.950 . S
H215 C223 0.951 . S
H216 C224 0.951 . S
C217 C211 1.265 1_554 S
C217 H212 0.950 . S
C217 C218 1.478 . S
C218 C217 1.478 . S
C218 C219 1.397 . S
C218 C235 1.394 1_554 S
C219 C218 1.397 . S
C219 C220 1.438 . S
C219 C224 1.429 . S
C220 C219 1.438 . S
C220 C221 1.428 . S
C220 C233 1.394 1_554 S
C221 H213 0.949 . S
C221 C220 1.428 . S
C221 C222 1.345 . S
C222 H214 0.950 . S
C222 C221 1.345 . S
C222 C223 1.424 . S
C223 H215 0.951 . S
C223 C222 1.424 . S
C223 C224 1.347 . S
C224 H216 0.951 . S
C224 C219 1.429 . S
C224 C223 1.347 . S
H225 C226 0.951 . S
C226 H225 0.951 . S
C226 C232 1.265 1_554 S
H227 C232 0.950 . S
H228 C236 0.949 . S
H229 C237 0.950 . S
H230 C238 0.951 . S
H231 C239 0.951 . S
C232 C226 1.265 1_556 S
C232 H227 0.950 . S
C232 C233 1.478 . S
C233 C220 1.394 1_556 S
C233 C232 1.478 . S
C233 C234 1.397 . S
C234 C233 1.397 . S
C234 C235 1.438 . S
C234 C239 1.429 . S
C235 C218 1.394 1_556 S
C235 C234 1.438 . S
C235 C236 1.428 . S
C236 H228 0.949 . S
C236 C235 1.428 . S
C236 C237 1.345 . S
C237 H229 0.950 . S
C237 C236 1.345 . S
C237 C238 1.424 . S
C238 H230 0.951 . S
C238 C237 1.424 . S
C238 C239 1.347 . S
C239 H231 0.951 . S
C239 C234 1.429 . S
C239 C238 1.347 . S
H240 C241 0.951 . S
C241 H240 0.951 . S
C241 C247 1.265 1_554 S
H242 C247 0.950 . S
H243 C251 0.949 . S
H244 C252 0.950 . S
H245 C253 0.951 . S
H246 C254 0.951 . S
C247 C241 1.265 1_556 S
C247 H242 0.950 . S
C247 C248 1.478 . S
C248 C247 1.478 . S
C248 C249 1.397 . S
C248 C265 1.394 1_556 S
C249 C248 1.397 . S
C249 C250 1.438 . S
C249 C254 1.429 . S
C250 C249 1.438 . S
C250 C251 1.428 . S
C250 C263 1.394 1_556 S
C251 H243 0.949 . S
C251 C250 1.428 . S
C251 C252 1.345 . S
C252 H244 0.950 . S
C252 C251 1.345 . S
C252 C253 1.424 . S
C253 H245 0.951 . S
C253 C252 1.424 . S
C253 C254 1.347 . S
C254 H246 0.951 . S
C254 C249 1.429 . S
C254 C253 1.347 . S
H255 C256 0.951 . S
C256 H255 0.951 . S
C256 C262 1.265 1_556 S
H257 C262 0.950 . S
H258 C266 0.949 . S
H259 C267 0.950 . S
H260 C268 0.951 . S
H261 C269 0.951 . S
C262 C256 1.265 1_554 S
C262 H257 0.950 . S
C262 C263 1.478 . S
C263 C250 1.394 1_554 S
C263 C262 1.478 . S
C263 C264 1.397 . S
C264 C263 1.397 . S
C264 C265 1.438 . S
C264 C269 1.429 . S
C265 C248 1.394 1_554 S
C265 C264 1.438 . S
C265 C266 1.428 . S
C266 H258 0.949 . S
C266 C265 1.428 . S
C266 C267 1.345 . S
C267 H259 0.950 . S
C267 C266 1.345 . S
C267 C268 1.424 . S
C268 H260 0.951 . S
C268 C267 1.424 . S
C268 C269 1.347 . S
C269 H261 0.951 . S
C269 C264 1.429 . S
C269 C268 1.347 . S
H270 C271 0.951 . S
C271 H270 0.951 . S
C271 C277 1.265 . S
H272 C277 0.950 . S
H273 C281 0.949 . S
H274 C282 0.950 . S
H275 C283 0.951 . S
H276 C284 0.951 . S
C277 C271 1.265 . S
C277 H272 0.950 . S
C277 C278 1.478 . S
C278 C277 1.478 . S
C278 C279 1.397 . S
C278 C295 1.394 1_554 S
C279 C278 1.397 . S
C279 C280 1.438 . S
C279 C284 1.429 . S
C280 C279 1.438 . S
C280 C281 1.428 . S
C280 C293 1.394 . S
C281 H273 0.949 . S
C281 C280 1.428 . S
C281 C282 1.345 . S
C282 H274 0.950 . S
C282 C281 1.345 . S
C282 C283 1.424 . S
C283 H275 0.951 . S
C283 C282 1.424 . S
C283 C284 1.347 . S
C284 H276 0.951 . S
C284 C279 1.429 . S
C284 C283 1.347 . S
H285 C286 0.951 . S
C286 H285 0.951 . S
C286 C292 1.265 . S
H287 C292 0.950 1_556 S
H288 C296 0.949 . S
H289 C297 0.950 . S
H290 C298 0.951 . S
H291 C299 0.951 . S
C292 C286 1.265 . S
C292 H287 0.950 1_554 S
C292 C293 1.478 . S
C293 C280 1.394 . S
C293 C292 1.478 . S
C293 C294 1.397 1_554 S
C294 C293 1.397 1_556 S
C294 C295 1.438 . S
C294 C299 1.429 . S
C295 C278 1.394 1_556 S
C295 C294 1.438 . S
C295 C296 1.428 . S
C296 H288 0.949 . S
C296 C295 1.428 . S
C296 C297 1.345 . S
C297 H289 0.950 . S
C297 C296 1.345 . S
C297 C298 1.424 . S
C298 H290 0.951 . S
C298 C297 1.424 . S
C298 C299 1.347 . S
C299 H291 0.951 . S
C299 C294 1.429 . S
C299 C298 1.347 . S
H300 C301 0.951 . S
C301 H300 0.951 . S
C301 C307 1.265 . S
H302 C307 0.950 . S
H303 C311 0.949 . S
H304 C312 0.950 . S
H305 C313 0.951 . S
H306 C314 0.951 . S
C307 C301 1.265 . S
C307 H302 0.950 . S
C307 C308 1.478 . S
C308 C307 1.478 . S
C308 C309 1.397 . S
C308 C325 1.394 1_554 S
C309 C308 1.397 . S
C309 C310 1.438 . S
C309 C314 1.429 . S
C310 C309 1.438 . S
C310 C311 1.428 . S
C310 C323 1.394 . S
C311 H303 0.949 . S
C311 C310 1.428 . S
C311 C312 1.345 . S
C312 H304 0.950 . S
C312 C311 1.345 . S
C312 C313 1.424 . S
C313 H305 0.951 . S
C313 C312 1.424 . S
C313 C314 1.347 . S
C314 H306 0.951 . S
C314 C309 1.429 . S
C314 C313 1.347 . S
H315 C316 0.951 . S
C316 H315 0.951 . S
C316 C322 1.265 . S
H317 C322 0.950 . S
H318 C326 0.949 . S
H319 C327 0.950 . S
H320 C328 0.951 . S
H321 C329 0.951 . S
C322 C316 1.265 . S
C322 H317 0.950 . S
C322 C323 1.478 . S
C323 C310 1.394 . S
C323 C322 1.478 . S
C323 C324 1.397 1_554 S
C324 C323 1.397 1_556 S
C324 C325 1.438 . S
C324 C329 1.429 . S
C325 C308 1.394 1_556 S
C325 C324 1.438 . S
C325 C326 1.428 . S
C326 H318 0.949 . S
C326 C325 1.428 . S
C326 C327 1.345 . S
C327 H319 0.950 . S
C327 C326 1.345 . S
C327 C328 1.424 . S
C328 H320 0.951 . S
C328 C327 1.424 . S
C328 C329 1.347 . S
C329 H321 0.951 . S
C329 C324 1.429 . S
C329 C328 1.347 . S
H330 C331 0.951 . S
C331 H330 0.951 . S
C331 C337 1.265 1_554 S
H332 C337 0.950 . S
H333 C341 0.949 . S
H334 C342 0.950 . S
H335 C343 0.951 . S
H336 C344 0.951 . S
C337 C331 1.265 1_556 S
C337 H332 0.950 . S
C337 C338 1.477 . S
C338 C337 1.477 . S
C338 C339 1.405 . S
C338 C355 1.387 1_556 S
C339 C338 1.405 . S
C339 C340 1.438 . S
C339 C344 1.429 . S
C340 C339 1.438 . S
C340 C341 1.428 . S
C340 C353 1.394 1_556 S
C341 H333 0.949 . S
C341 C340 1.428 . S
C341 C342 1.345 . S
C342 H334 0.950 . S
C342 C341 1.345 . S
C342 C343 1.424 . S
C343 H335 0.951 . S
C343 C342 1.424 . S
C343 C344 1.347 . S
C344 H336 0.951 . S
C344 C339 1.429 . S
C344 C343 1.347 . S
H345 C346 0.951 . S
C346 H345 0.951 . S
C346 C352 1.265 1_556 S
H347 C352 0.950 . S
H348 C356 0.949 . S
H349 C357 0.950 . S
H350 C358 0.951 . S
H351 C359 0.951 . S
C352 C346 1.265 1_554 S
C352 H347 0.950 . S
C352 C353 1.478 . S
C353 C340 1.394 1_554 S
C353 C352 1.478 . S
C353 C354 1.397 . S
C354 C353 1.397 . S
C354 C355 1.438 . S
C354 C359 1.429 . S
C355 C338 1.387 1_554 S
C355 C354 1.438 . S
C355 C356 1.428 . S
C356 H348 0.949 . S
C356 C355 1.428 . S
C356 C357 1.345 . S
C357 H349 0.950 . S
C357 C356 1.345 . S
C357 C358 1.424 . S
C358 H350 0.951 . S
C358 C357 1.424 . S
C358 C359 1.347 . S
C359 H351 0.951 . S
C359 C354 1.429 . S
C359 C358 1.347 . S
H360 C361 0.951 . S
C361 H360 0.951 . S
C361 C367 1.265 . S
H362 C367 0.950 . S
H363 C371 0.949 . S
H364 C372 0.950 . S
H365 C373 0.951 . S
H366 C374 0.951 . S
C367 C361 1.265 . S
C367 H362 0.950 . S
C367 C368 1.478 . S
C368 C367 1.478 . S
C368 C369 1.397 . S
C368 C385 1.394 1_556 S
C369 C368 1.397 . S
C369 C370 1.438 . S
C369 C374 1.429 . S
C370 C369 1.438 . S
C370 C371 1.428 . S
C370 C383 1.394 . S
C371 H363 0.949 . S
C371 C370 1.428 . S
C371 C372 1.345 . S
C372 H364 0.950 . S
C372 C371 1.345 . S
C372 C373 1.424 . S
C373 H365 0.951 . S
C373 C372 1.424 . S
C373 C374 1.347 . S
C374 H366 0.951 . S
C374 C369 1.429 . S
C374 C373 1.347 . S
H375 C376 0.951 . S
C376 H375 0.951 . S
C376 C382 1.265 . S
H377 C382 0.950 1_554 S
H378 C386 0.949 . S
H379 C387 0.950 . S
H380 C388 0.951 . S
H381 C389 0.951 . S
C382 C376 1.265 . S
C382 H377 0.950 1_556 S
C382 C383 1.478 . S
C383 C370 1.394 . S
C383 C382 1.478 . S
C383 C384 1.397 1_556 S
C384 C383 1.397 1_554 S
C384 C385 1.438 . S
C384 C389 1.429 . S
C385 C368 1.394 1_554 S
C385 C384 1.438 . S
C385 C386 1.428 . S
C386 H378 0.949 . S
C386 C385 1.428 . S
C386 C387 1.345 . S
C387 H379 0.950 . S
C387 C386 1.345 . S
C387 C388 1.424 . S
C388 H380 0.951 . S
C388 C387 1.424 . S
C388 C389 1.347 . S
C389 H381 0.951 . S
C389 C384 1.429 . S
C389 C388 1.347 . S
C121 C2 1.418 . S
C136 C23 1.418 . S
C151 C63 1.489 1_565 S
C166 C42 1.489 1_545 S
C181 C103 1.423 . S
C196 C82 1.423 . S
C211 C25 0.735 . S
C226 C105 0.735 1_554 S
C241 C65 1.802 . S
C256 C20 1.800 . S
C271 C60 2.501 . S
C286 C111 2.512 . S
C301 C4 0.805 . S
C316 C84 0.758 . S
C331 C31 1.802 . S
C346 C44 1.802 . S
C361 C100 2.504 . S
C376 C71 2.473 . S
