# Generated by pormake.
# Topology bmn, (3)-cn, num edge types: 1
# Building blocks:
#     Node 0, Type 0, BuildingBlock: OLANEW_clean_sbu_2, # of connection points: 3
#     Node 1, Type 0, BuildingBlock: OLANEW_clean_sbu_2, # of connection points: 3
#     Node 2, Type 0, BuildingBlock: OLANEW_clean_sbu_2, # of connection points: 3
#     Node 3, Type 0, BuildingBlock: OLANEW_clean_sbu_2, # of connection points: 3
#     Node 4, Type 0, BuildingBlock: OLANEW_clean_sbu_2, # of connection points: 3
#     Node 5, Type 0, BuildingBlock: OLANEW_clean_sbu_2, # of connection points: 3
#     Node 6, Type 0, BuildingBlock: OLANEW_clean_sbu_2, # of connection points: 3
#     Node 7, Type 0, BuildingBlock: OLANEW_clean_sbu_2, # of connection points: 3
#     Node 8, Type 0, BuildingBlock: OLANEW_clean_sbu_2, # of connection points: 3
#     Node 9, Type 0, BuildingBlock: OLANEW_clean_sbu_2, # of connection points: 3
#     Node 10, Type 0, BuildingBlock: OLANEW_clean_sbu_2, # of connection points: 3
#     Node 11, Type 0, BuildingBlock: OLANEW_clean_sbu_2, # of connection points: 3
#     Node 12, Type 0, BuildingBlock: OLANEW_clean_sbu_2, # of connection points: 3
#     Node 13, Type 0, BuildingBlock: OLANEW_clean_sbu_2, # of connection points: 3
#     Node 14, Type 0, BuildingBlock: OLANEW_clean_sbu_2, # of connection points: 3
#     Node 15, Type 0, BuildingBlock: OLANEW_clean_sbu_2, # of connection points: 3
#     Node 16, Type 0, BuildingBlock: OLANEW_clean_sbu_2, # of connection points: 3
#     Node 17, Type 0, BuildingBlock: OLANEW_clean_sbu_2, # of connection points: 3
#     Node 18, Type 0, BuildingBlock: OLANEW_clean_sbu_2, # of connection points: 3
#     Node 19, Type 0, BuildingBlock: OLANEW_clean_sbu_2, # of connection points: 3
#     Node 20, Type 0, BuildingBlock: OLANEW_clean_sbu_2, # of connection points: 3
#     Node 21, Type 0, BuildingBlock: OLANEW_clean_sbu_2, # of connection points: 3
#     Node 22, Type 0, BuildingBlock: OLANEW_clean_sbu_2, # of connection points: 3
#     Node 23, Type 0, BuildingBlock: OLANEW_clean_sbu_2, # of connection points: 3
#     Edge 24, Type (0, 0), None
#     Edge 25, Type (0, 0), None
#     Edge 26, Type (0, 0), None
#     Edge 27, Type (0, 0), None
#     Edge 28, Type (0, 0), None
#     Edge 29, Type (0, 0), None
#     Edge 30, Type (0, 0), None
#     Edge 31, Type (0, 0), None
#     Edge 32, Type (0, 0), None
#     Edge 33, Type (0, 0), None
#     Edge 34, Type (0, 0), None
#     Edge 35, Type (0, 0), None
#     Edge 36, Type (0, 0), None
#     Edge 37, Type (0, 0), None
#     Edge 38, Type (0, 0), None
#     Edge 39, Type (0, 0), None
#     Edge 40, Type (0, 0), None
#     Edge 41, Type (0, 0), None
#     Edge 42, Type (0, 0), None
#     Edge 43, Type (0, 0), None
#     Edge 44, Type (0, 0), None
#     Edge 45, Type (0, 0), None
#     Edge 46, Type (0, 0), None
#     Edge 47, Type (0, 0), None
#     Edge 48, Type (0, 0), None
#     Edge 49, Type (0, 0), None
#     Edge 50, Type (0, 0), None
#     Edge 51, Type (0, 0), None
#     Edge 52, Type (0, 0), None
#     Edge 53, Type (0, 0), None
#     Edge 54, Type (0, 0), None
#     Edge 55, Type (0, 0), None
#     Edge 56, Type (0, 0), None
#     Edge 57, Type (0, 0), None
#     Edge 58, Type (0, 0), None
#     Edge 59, Type (0, 0), None
# Relax obj value: 0.016
# Max RMSD: 0.076
# Mean RMSD: 0.042
data_MOF--net-bmn--node1-OLANEW_clean_sbu_2--edge1-none
_symmetry_space_group_name_H-M    P1
_symmetry_Int_Tables_number       1
_symmetry_cell_setting            triclinic
loop_
_symmetry_equiv_pos_as_xyz
'x, y, z'
_cell_length_a     31.216963
_cell_length_b     31.004878
_cell_length_c     31.425398
_cell_angle_alpha  101.26421
_cell_angle_beta   96.816517
_cell_angle_gamma 97.439262
loop_
_atom_site_label
_atom_site_type_symbol
_atom_site_fract_x
_atom_site_fract_y
_atom_site_fract_z
_atom_type_partial_charge
O0 O 0.2078 0.52556 0.28194 0.0
Cd1 Cd 0.16061 0.55001 0.33555 0.0
O2 O 0.25968 0.58226 0.31243 0.0
Cd3 Cd 0.21684 0.61819 0.35171 0.0
O4 O 0.16408 0.65432 0.37127 0.0
C5 C 0.14872 0.65342 0.40681 0.0
O6 O 0.16544 0.63109 0.43435 0.0
C7 C 0.24639 0.5459 0.28447 0.0
C8 C 0.17882 0.5184 0.412 0.0
O9 O 0.14715 0.49818 0.38213 0.0
O10 O 0.20211 0.55307 0.40572 0.0
O11 O 0.98454 0.98327 0.53113 0.0
Cd12 Cd 0.9812 0.92996 0.57918 0.0
O13 O 0.92917 0.01704 0.54924 0.0
Cd14 Cd 0.89951 0.96658 0.58164 0.0
O15 O 0.84224 0.92024 0.58801 0.0
C16 C 0.84105 0.89612 0.61636 0.0
O17 O 0.87601 0.89782 0.64472 0.0
C18 C 0.96186 0.01417 0.52882 0.0
C19 C 0.06715 0.92842 0.61505 0.0
O20 O 0.04923 0.90113 0.57943 0.0
O21 O 0.04423 0.95532 0.6345 0.0
O22 O 0.43754 0.61694 0.72053 0.0
Cd23 Cd 0.4505 0.56477 0.76792 0.0
O24 O 0.46671 0.66745 0.77915 0.0
Cd25 Cd 0.48348 0.73493 0.81916 0.0
O26 O 0.49459 0.7915 0.87485 0.0
C27 C 0.47076 0.78961 0.90471 0.0
O28 O 0.44038 0.7549 0.90041 0.0
C29 C 0.44878 0.65768 0.73931 0.0
C30 C 0.52755 0.52927 0.76234 0.0
O31 O 0.49132 0.50818 0.73994 0.0
O32 O 0.52776 0.5676 0.78673 0.0
O33 O 0.61979 0.2624 0.93825 0.0
Cd34 Cd 0.68149 0.22716 0.96048 0.0
O35 O 0.62221 0.29368 0.00739 0.0
Cd36 Cd 0.60322 0.33364 0.06548 0.0
O37 O 0.60173 0.35282 0.13614 0.0
C38 C 0.62345 0.33238 0.16034 0.0
O39 O 0.64484 0.30162 0.14215 0.0
C40 C 0.60545 0.28868 0.96753 0.0
C41 C 0.75831 0.27867 0.95123 0.0
O42 O 0.73941 0.24592 0.92044 0.0
O43 O 0.74138 0.2868 -0.01343 0.0
O44 O 0.9544 0.08056 0.50343 0.0
Cd45 Cd 0.96297 0.12669 0.44888 0.0
O46 O -0.00283 0.03741 0.472 0.0
Cd47 Cd 0.02414 0.9752 0.45964 0.0
O48 O 0.03208 0.90602 0.43642 0.0
C49 C 0.04754 0.89481 0.40098 0.0
O50 O 0.06041 0.92539 0.37963 0.0
C51 C 0.97236 0.04582 0.50086 0.0
C52 C 0.0273 0.20173 0.4721 0.0
O53 O -0.01099 0.20326 0.48259 0.0
O54 O 0.03577 0.16451 0.45172 0.0
O55 O 0.45812 0.73263 0.73093 0.0
Cd56 Cd 0.45456 0.79164 0.6897 0.0
O57 O 0.41206 0.68306 0.68075 0.0
Cd58 Cd 0.38594 0.73367 0.65022 0.0
O59 O 0.34102 0.7788 0.63414 0.0
C60 C 0.3173 0.77122 0.59691 0.0
O61 O 0.32075 0.73655 0.5667 0.0
C62 C 0.43939 0.69272 0.71586 0.0
C63 C 0.51628 0.78462 0.63235 0.0
O64 O 0.52658 0.80883 0.67116 0.0
O65 O 0.47685 0.7647 0.6203 0.0
O66 O 0.57413 0.35503 0.97387 0.0
Cd67 Cd 0.52604 0.39685 0.93705 0.0
O68 O 0.54455 0.29892 0.92002 0.0
Cd69 Cd 0.53873 0.22864 0.88872 0.0
O70 O 0.5269 0.15743 0.88698 0.0
C71 C 0.55791 0.1385 0.90064 0.0
O72 O 0.59734 0.16145 0.91306 0.0
C73 C 0.57244 0.31488 0.95419 0.0
C74 C 0.54047 0.38577 0.84995 0.0
O75 O 0.56373 0.41678 0.87989 0.0
O76 O 0.50963 0.36051 0.86073 0.0
O77 O 0.31684 0.54109 0.2647 0.0
Cd78 Cd 0.36142 0.50907 0.21177 0.0
O79 O 0.26166 0.49838 0.22044 0.0
Cd80 Cd 0.19317 0.47312 0.19367 0.0
O81 O 0.13698 0.44345 0.14336 0.0
C82 C 0.14494 0.43202 0.10435 0.0
O83 O 0.18541 0.43849 0.09651 0.0
C84 C 0.27606 0.52736 0.2555 0.0
C85 C 0.40791 0.4475 0.24146 0.0
O86 O 0.42423 0.48883 0.24917 0.0
O87 O 0.36938 0.43496 0.21984 0.0
O88 O 0.23981 0.30788 0.47315 0.0
Cd89 Cd 0.27487 0.2418 0.46324 0.0
O90 O 0.26625 0.32892 0.54366 0.0
Cd91 Cd 0.29454 0.26796 0.54607 0.0
O92 O 0.32314 0.20725 0.54918 0.0
C93 C 0.30842 0.17099 0.52162 0.0
O94 O 0.27472 0.16914 0.49174 0.0
C95 C 0.24418 0.33565 0.50952 0.0
C96 C 0.36042 0.25125 0.44483 0.0
O97 O 0.32812 0.23704 0.41387 0.0
O98 O 0.35241 0.2625 0.48415 0.0
O99 O 0.32114 -0.00358 0.53773 0.0
Cd100 Cd 0.37011 0.05658 0.52073 0.0
O101 O 0.33735 0.02542 0.60823 0.0
Cd102 Cd 0.33421 0.02481 0.6772 0.0
O103 O 0.3429 0.02646 0.74747 0.0
C104 C 0.36814 0.00269 0.76337 0.0
O105 O 0.38829 0.97652 0.7372 0.0
C106 C 0.31576 -0.00469 0.57693 0.0
C107 C 0.32984 0.13168 0.5218 0.0
O108 O 0.35648 0.12891 0.55511 0.0
O109 O 0.32249 0.09938 0.48822 0.0
O110 O 0.43508 0.03606 0.0389 0.0
Cd111 Cd 0.40223 0.10401 0.04312 0.0
O112 O 0.42101 0.02782 0.96771 0.0
Cd113 Cd 0.41529 -0.00503 0.8987 0.0
O114 O 0.40269 0.98378 0.8273 0.0
C115 C 0.37621 0.0061 0.81089 0.0
O116 O 0.35735 0.03372 0.83702 0.0
C117 C 0.43715 0.0142 0.00077 0.0
C118 C 0.43687 0.16752 0.11898 0.0
O119 O 0.45495 0.16573 0.08428 0.0
O120 O 0.40255 0.1395 0.11787 0.0
O121 O 0.53075 0.29313 0.38737 0.0
Cd122 Cd 0.49069 0.24076 0.42323 0.0
O123 O 0.48556 0.26361 0.32695 0.0
Cd124 Cd 0.46466 0.24551 0.2562 0.0
O125 O 0.43648 0.20194 0.19311 0.0
C126 C 0.45552 0.20015 0.15943 0.0
O127 O 0.49273 0.22624 0.16161 0.0
C128 C 0.51935 0.29066 0.3467 0.0
C129 C 0.40552 0.25094 0.43613 0.0
O130 O 0.43775 0.268 0.46656 0.0
O131 O 0.4135 0.23051 0.39906 0.0
O132 O 0.58879 0.32264 0.33491 0.0
Cd133 Cd 0.63681 0.36899 0.29953 0.0
O134 O 0.53225 0.33101 0.29081 0.0
Cd135 Cd 0.4635 0.33233 0.26979 0.0
O136 O 0.41793 0.37416 0.24833 0.0
C137 C 0.43343 0.41536 0.25633 0.0
O138 O 0.47351 0.42895 0.27686 0.0
C139 C 0.5478 0.31522 0.3226 0.0
C140 C 0.6267 0.34426 0.20829 0.0
O141 O 0.65209 0.32654 0.23249 0.0
O142 O 0.60521 0.37317 0.22697 0.0
O143 O 0.01214 0.4203 0.95951 0.0
Cd144 Cd 0.04365 0.36897 -0.0003 0.0
O145 O 0.94915 0.39212 0.97423 0.0
Cd146 Cd 0.87836 0.37708 0.97015 0.0
O147 O 0.81549 0.3402 0.97567 0.0
C148 C 0.79878 0.30582 0.94639 0.0
O149 O 0.81858 0.29408 0.91232 0.0
C150 C 0.97108 0.41923 0.95641 0.0
C151 C 0.10968 0.41088 0.06834 0.0
O152 O 0.11821 0.39784 0.02944 0.0
O153 O 0.06987 0.4046 0.07501 0.0
O154 O 0.97356 0.65174 0.37706 0.0
Cd155 Cd 0.03165 0.70573 0.42527 0.0
O156 O 0.97659 0.68848 0.32382 0.0
Cd157 Cd 0.01625 0.74834 0.36545 0.0
O158 O 0.02994 0.81792 0.40024 0.0
C159 C 0.04597 0.84758 0.38135 0.0
O160 O 0.05652 0.83575 0.34198 0.0
C161 C 0.96175 0.6545 0.33766 0.0
C162 C 0.10972 0.67363 0.41484 0.0
O163 O 0.09443 0.69739 0.38939 0.0
O164 O 0.08896 0.6661 0.44609 0.0
O165 O 0.72776 0.73621 0.56119 0.0
Cd166 Cd 0.72524 0.80513 0.61354 0.0
O167 O 0.66104 0.72707 0.52471 0.0
Cd168 Cd 0.63634 0.77543 0.57246 0.0
O169 O 0.58902 0.79504 0.61593 0.0
C170 C 0.5492 0.7779 0.60301 0.0
O171 O 0.53819 0.75104 0.56426 0.0
C172 C 0.69862 0.71547 0.52947 0.0
C173 C 0.80094 0.86547 0.61628 0.0
O174 O 0.76659 0.86404 0.589 0.0
O175 O 0.79959 0.83902 0.6429 0.0
O176 O 0.24377 0.41353 0.52809 0.0
Cd177 Cd 0.20292 0.47607 0.53228 0.0
O178 O 0.18158 0.37029 0.49953 0.0
Cd179 Cd 0.142 0.30409 0.47889 0.0
O180 O 0.0961 0.2418 0.46683 0.0
C181 C 0.06008 0.24211 0.48188 0.0
O182 O 0.0513 0.27954 0.50422 0.0
C183 C 0.2224 0.37488 0.51221 0.0
C184 C 0.18762 0.50301 0.45298 0.0
O185 O 0.22101 0.5216 0.48148 0.0
O186 O 0.16161 0.47141 0.46156 0.0
O187 O 0.27078 0.92486 0.55551 0.0
Cd188 Cd 0.22844 0.85911 0.57032 0.0
O189 O 0.26862 0.96461 0.62121 0.0
Cd190 Cd 0.20852 0.92214 0.62649 0.0
O191 O 0.13713 0.90698 0.60998 0.0
C192 C 0.11378 0.93141 0.63132 0.0
O193 O 0.13263 0.96327 0.66478 0.0
C194 C 0.28425 0.9597 0.58532 0.0
C195 C 0.28613 0.80104 0.58781 0.0
O196 O 0.27898 0.83199 0.61839 0.0
O197 O 0.26546 0.79676 0.54912 0.0
O198 O 0.67438 0.4561 0.69968 0.0
Cd199 Cd 0.64123 0.46686 0.76695 0.0
O200 O 0.62783 0.39515 0.66856 0.0
Cd201 Cd 0.60013 0.39267 0.72901 0.0
O202 O 0.58309 0.40118 0.79553 0.0
C203 C 0.5496 0.37887 0.80459 0.0
O204 O 0.52404 0.34885 0.77352 0.0
C205 C 0.65967 0.4245 0.66672 0.0
C206 C 0.56724 0.50869 0.76207 0.0
O207 O 0.60453 0.53091 0.78049 0.0
O208 O 0.56494 0.4673 0.74518 0.0
O209 O 0.65656 0.40368 0.58954 0.0
Cd210 Cd 0.69053 0.39641 0.52277 0.0
O211 O 0.71965 0.4365 0.62807 0.0
Cd212 Cd 0.76282 0.46176 0.69059 0.0
O213 O 0.80899 0.4789 0.75156 0.0
C214 C 0.84941 0.47841 0.75005 0.0
O215 O 0.86292 0.468 0.71189 0.0
C216 C 0.67939 0.4219 0.62639 0.0
C217 C 0.71774 0.47741 0.50096 0.0
O218 O 0.67911 0.45613 0.48662 0.0
O219 O 0.74345 0.46086 0.526 0.0
O220 O 0.96704 0.45967 0.89988 0.0
Cd221 Cd 0.94125 0.51876 0.86683 0.0
O222 O 0.91752 0.46545 0.94369 0.0
Cd223 Cd 0.89162 0.45996 0.00427 0.0
O224 O 0.87699 0.48343 0.07023 0.0
C225 C 0.85398 0.51441 0.07618 0.0
O226 O 0.83785 0.52945 0.04241 0.0
C227 C 0.94998 0.44815 0.9315 0.0
C228 C 0.88102 0.49103 0.79048 0.0
O229 O 0.92213 0.49476 0.78892 0.0
O230 O 0.86821 0.49939 0.82808 0.0
O231 O 0.91574 0.58432 0.32115 0.0
Cd232 Cd 0.85433 0.5301 0.27876 0.0
O233 O 0.91781 0.6228 0.26926 0.0
Cd234 Cd 0.8786 0.56968 0.21833 0.0
O235 O 0.87048 0.52601 0.15353 0.0
C236 C 0.85097 0.53764 0.1208 0.0
O237 O 0.83325 0.57412 0.12694 0.0
C238 C 0.93047 0.61877 0.30805 0.0
C239 C 0.78507 0.54089 0.32581 0.0
O240 O 0.79302 0.56472 0.2978 0.0
O241 O 0.80853 0.51063 0.33027 0.0
O242 O 0.74376 0.66235 0.50609 0.0
Cd243 Cd 0.76178 0.59634 0.46006 0.0
O244 O 0.68294 0.6617 0.46221 0.0
Cd245 Cd 0.70023 0.61258 0.40931 0.0
O246 O 0.73752 0.58714 0.35755 0.0
C247 C 0.75266 0.55074 0.35495 0.0
O248 O 0.74415 0.52538 0.38274 0.0
C249 C 0.70877 0.67804 0.49786 0.0
C250 C 0.73258 0.51908 0.48789 0.0
O251 O 0.70716 0.53493 0.46193 0.0
O252 O 0.77157 0.53981 0.50117 0.0
O253 O 0.45503 0.94972 0.02398 0.0
Cd254 Cd 0.49615 0.88779 0.02312 0.0
O255 O 0.48077 0.96468 0.96555 0.0
Cd256 Cd 0.49523 0.01142 0.92361 0.0
O257 O 0.50952 0.07315 0.90115 0.0
C258 C 0.54862 0.09323 0.90798 0.0
O259 O 0.57984 0.07537 0.92646 0.0
C260 C 0.45747 0.97374 -0.00433 0.0
C261 C 0.47873 0.82439 0.94493 0.0
O262 O 0.45613 0.82132 0.97598 0.0
O263 O 0.50924 0.85774 0.95041 0.0
loop_
_geom_bond_atom_site_label_1
_geom_bond_atom_site_label_2
_geom_bond_distance
_geom_bond_site_symmetry_2
_ccdc_geom_bond_type
O0 Cd1 2.300 . S
O0 C7 1.275 . S
Cd1 O0 2.300 . S
Cd1 O9 2.381 . S
Cd1 O10 2.378 . S
O2 Cd3 2.385 . S
O2 C7 1.255 . S
Cd3 O2 2.385 . S
Cd3 O4 2.317 . S
O4 Cd3 2.317 . S
O4 C5 1.232 . S
C5 O4 1.232 . S
C5 O6 1.218 . S
O6 C5 1.218 . S
C7 O0 1.275 . S
C7 O2 1.255 . S
C8 O9 1.258 . S
C8 O10 1.256 . S
O9 Cd1 2.381 . S
O9 C8 1.258 . S
O10 Cd1 2.378 . S
O10 C8 1.256 . S
O11 Cd12 2.300 . S
O11 C18 1.275 . S
Cd12 O11 2.300 . S
Cd12 O20 2.381 . S
Cd12 O21 2.378 . S
O13 Cd14 2.385 1_565 S
O13 C18 1.255 1_655 S
Cd14 O13 2.385 1_545 S
Cd14 O15 2.317 1_545 S
O15 Cd14 2.317 1_565 S
O15 C16 1.232 . S
C16 O15 1.232 . S
C16 O17 1.218 . S
O17 C16 1.218 . S
C18 O11 1.275 . S
C18 O13 1.255 1_455 S
C19 O20 1.258 . S
C19 O21 1.256 . S
O20 Cd12 2.381 . S
O20 C19 1.258 . S
O21 Cd12 2.378 . S
O21 C19 1.256 . S
O22 Cd23 2.300 . S
O22 C29 1.275 . S
Cd23 O22 2.300 . S
Cd23 O31 2.381 . S
Cd23 O32 2.378 . S
O24 Cd25 2.385 . S
O24 C29 1.255 . S
Cd25 O24 2.385 . S
Cd25 O26 2.317 . S
O26 Cd25 2.317 . S
O26 C27 1.232 . S
C27 O26 1.232 . S
C27 O28 1.218 . S
O28 C27 1.218 . S
C29 O22 1.275 . S
C29 O24 1.255 . S
C30 O31 1.258 . S
C30 O32 1.256 . S
O31 Cd23 2.381 . S
O31 C30 1.258 . S
O32 Cd23 2.378 . S
O32 C30 1.256 . S
O33 Cd34 2.300 . S
O33 C40 1.275 . S
Cd34 O33 2.300 . S
Cd34 O42 2.381 . S
Cd34 O43 2.378 . S
O35 Cd36 2.385 . S
O35 C40 1.255 . S
Cd36 O35 2.385 . S
Cd36 O37 2.317 . S
O37 Cd36 2.317 . S
O37 C38 1.232 . S
C38 O37 1.232 . S
C38 O39 1.218 . S
O39 C38 1.218 . S
C40 O33 1.275 . S
C40 O35 1.255 . S
C41 O42 1.258 . S
C41 O43 1.256 . S
O42 Cd34 2.381 . S
O42 C41 1.258 . S
O43 Cd34 2.378 . S
O43 C41 1.256 . S
O44 Cd45 2.300 1_655 S
O44 C51 1.275 1_545 S
Cd45 O44 2.300 1_455 S
Cd45 O53 2.381 . S
Cd45 O54 2.378 . S
O46 Cd47 2.385 . S
O46 C51 1.255 1_455 S
Cd47 O46 2.385 . S
Cd47 O48 2.317 . S
O48 Cd47 2.317 . S
O48 C49 1.232 . S
C49 O48 1.232 . S
C49 O50 1.218 . S
O50 C49 1.218 . S
C51 O44 1.275 1_565 S
C51 O46 1.255 1_655 S
C52 O53 1.258 . S
C52 O54 1.256 . S
O53 Cd45 2.381 . S
O53 C52 1.258 . S
O54 Cd45 2.378 . S
O54 C52 1.256 . S
O55 Cd56 2.300 . S
O55 C62 1.275 . S
Cd56 O55 2.300 . S
Cd56 O64 2.381 . S
Cd56 O65 2.378 . S
O57 Cd58 2.385 . S
O57 C62 1.255 . S
Cd58 O57 2.385 . S
Cd58 O59 2.317 . S
O59 Cd58 2.317 . S
O59 C60 1.232 . S
C60 O59 1.232 . S
C60 O61 1.218 . S
O61 C60 1.218 . S
C62 O55 1.275 . S
C62 O57 1.255 . S
C63 O64 1.258 . S
C63 O65 1.256 . S
O64 Cd56 2.381 . S
O64 C63 1.258 . S
O65 Cd56 2.378 . S
O65 C63 1.256 . S
O66 Cd67 2.300 . S
O66 C73 1.275 . S
Cd67 O66 2.300 . S
Cd67 O75 2.381 . S
Cd67 O76 2.378 . S
O68 Cd69 2.385 . S
O68 C73 1.255 . S
Cd69 O68 2.385 . S
Cd69 O70 2.317 . S
O70 Cd69 2.317 . S
O70 C71 1.232 . S
C71 O70 1.232 . S
C71 O72 1.218 . S
O72 C71 1.218 . S
C73 O66 1.275 . S
C73 O68 1.255 . S
C74 O75 1.258 . S
C74 O76 1.256 . S
O75 Cd67 2.381 . S
O75 C74 1.258 . S
O76 Cd67 2.378 . S
O76 C74 1.256 . S
O77 Cd78 2.300 . S
O77 C84 1.275 . S
Cd78 O77 2.300 . S
Cd78 O86 2.381 . S
Cd78 O87 2.378 . S
O79 Cd80 2.385 . S
O79 C84 1.255 . S
Cd80 O79 2.385 . S
Cd80 O81 2.317 . S
O81 Cd80 2.317 . S
O81 C82 1.232 . S
C82 O81 1.232 . S
C82 O83 1.218 . S
O83 C82 1.218 . S
C84 O77 1.275 . S
C84 O79 1.255 . S
C85 O86 1.258 . S
C85 O87 1.256 . S
O86 Cd78 2.381 . S
O86 C85 1.258 . S
O87 Cd78 2.378 . S
O87 C85 1.256 . S
O88 Cd89 2.300 . S
O88 C95 1.275 . S
Cd89 O88 2.300 . S
Cd89 O97 2.381 . S
Cd89 O98 2.378 . S
O90 Cd91 2.385 . S
O90 C95 1.255 . S
Cd91 O90 2.385 . S
Cd91 O92 2.317 . S
O92 Cd91 2.317 . S
O92 C93 1.232 . S
C93 O92 1.232 . S
C93 O94 1.218 . S
O94 C93 1.218 . S
C95 O88 1.275 . S
C95 O90 1.255 . S
C96 O97 1.258 . S
C96 O98 1.256 . S
O97 Cd89 2.381 . S
O97 C96 1.258 . S
O98 Cd89 2.378 . S
O98 C96 1.256 . S
O99 Cd100 2.300 . S
O99 C106 1.275 . S
Cd100 O99 2.300 . S
Cd100 O108 2.381 . S
Cd100 O109 2.378 . S
O101 Cd102 2.385 . S
O101 C106 1.255 . S
Cd102 O101 2.385 . S
Cd102 O103 2.317 . S
O103 Cd102 2.317 . S
O103 C104 1.232 . S
C104 O103 1.232 . S
C104 O105 1.218 . S
O105 C104 1.218 . S
C106 O99 1.275 . S
C106 O101 1.255 . S
C107 O108 1.258 . S
C107 O109 1.256 . S
O108 Cd100 2.381 . S
O108 C107 1.258 . S
O109 Cd100 2.378 . S
O109 C107 1.256 . S
O110 Cd111 2.300 . S
O110 C117 1.275 1_554 S
Cd111 O110 2.300 . S
Cd111 O119 2.381 . S
Cd111 O120 2.378 . S
O112 Cd113 2.385 . S
O112 C117 1.255 . S
Cd113 O112 2.385 . S
Cd113 O114 2.317 . S
O114 Cd113 2.317 . S
O114 C115 1.232 . S
C115 O114 1.232 . S
C115 O116 1.218 . S
O116 C115 1.218 . S
C117 O110 1.275 1_556 S
C117 O112 1.255 . S
C118 O119 1.258 . S
C118 O120 1.256 . S
O119 Cd111 2.381 . S
O119 C118 1.258 . S
O120 Cd111 2.378 . S
O120 C118 1.256 . S
O121 Cd122 2.300 . S
O121 C128 1.275 . S
Cd122 O121 2.300 . S
Cd122 O130 2.381 . S
Cd122 O131 2.378 . S
O123 Cd124 2.385 . S
O123 C128 1.255 . S
Cd124 O123 2.385 . S
Cd124 O125 2.317 . S
O125 Cd124 2.317 . S
O125 C126 1.232 . S
C126 O125 1.232 . S
C126 O127 1.218 . S
O127 C126 1.218 . S
C128 O121 1.275 . S
C128 O123 1.255 . S
C129 O130 1.258 . S
C129 O131 1.256 . S
O130 Cd122 2.381 . S
O130 C129 1.258 . S
O131 Cd122 2.378 . S
O131 C129 1.256 . S
O132 Cd133 2.300 . S
O132 C139 1.275 . S
Cd133 O132 2.300 . S
Cd133 O141 2.381 . S
Cd133 O142 2.378 . S
O134 Cd135 2.385 . S
O134 C139 1.255 . S
Cd135 O134 2.385 . S
Cd135 O136 2.317 . S
O136 Cd135 2.317 . S
O136 C137 1.232 . S
C137 O136 1.232 . S
C137 O138 1.218 . S
O138 C137 1.218 . S
C139 O132 1.275 . S
C139 O134 1.255 . S
C140 O141 1.258 . S
C140 O142 1.256 . S
O141 Cd133 2.381 . S
O141 C140 1.258 . S
O142 Cd133 2.378 . S
O142 C140 1.256 . S
O143 Cd144 2.300 . S
O143 C150 1.275 1_455 S
Cd144 O143 2.300 . S
Cd144 O152 2.381 . S
Cd144 O153 2.378 . S
O145 Cd146 2.385 . S
O145 C150 1.255 . S
Cd146 O145 2.385 . S
Cd146 O147 2.317 . S
O147 Cd146 2.317 . S
O147 C148 1.232 . S
C148 O147 1.232 . S
C148 O149 1.218 . S
O149 C148 1.218 . S
C150 O143 1.275 1_655 S
C150 O145 1.255 . S
C151 O152 1.258 . S
C151 O153 1.256 . S
O152 Cd144 2.381 . S
O152 C151 1.258 . S
O153 Cd144 2.378 . S
O153 C151 1.256 . S
O154 Cd155 2.300 . S
O154 C161 1.275 1_455 S
Cd155 O154 2.300 . S
Cd155 O163 2.381 . S
Cd155 O164 2.378 . S
O156 Cd157 2.385 . S
O156 C161 1.255 1_455 S
Cd157 O156 2.385 . S
Cd157 O158 2.317 . S
O158 Cd157 2.317 . S
O158 C159 1.232 . S
C159 O158 1.232 . S
C159 O160 1.218 . S
O160 C159 1.218 . S
C161 O154 1.275 1_655 S
C161 O156 1.255 1_655 S
C162 O163 1.258 . S
C162 O164 1.256 . S
O163 Cd155 2.381 . S
O163 C162 1.258 . S
O164 Cd155 2.378 . S
O164 C162 1.256 . S
O165 Cd166 2.300 . S
O165 C172 1.275 . S
Cd166 O165 2.300 . S
Cd166 O174 2.381 . S
Cd166 O175 2.378 . S
O167 Cd168 2.385 . S
O167 C172 1.255 . S
Cd168 O167 2.385 . S
Cd168 O169 2.317 . S
O169 Cd168 2.317 . S
O169 C170 1.232 . S
C170 O169 1.232 . S
C170 O171 1.218 . S
O171 C170 1.218 . S
C172 O165 1.275 . S
C172 O167 1.255 . S
C173 O174 1.258 . S
C173 O175 1.256 . S
O174 Cd166 2.381 . S
O174 C173 1.258 . S
O175 Cd166 2.378 . S
O175 C173 1.256 . S
O176 Cd177 2.300 . S
O176 C183 1.275 . S
Cd177 O176 2.300 . S
Cd177 O185 2.381 . S
Cd177 O186 2.378 . S
O178 Cd179 2.385 . S
O178 C183 1.255 . S
Cd179 O178 2.385 . S
Cd179 O180 2.317 . S
O180 Cd179 2.317 . S
O180 C181 1.232 . S
C181 O180 1.232 . S
C181 O182 1.218 . S
O182 C181 1.218 . S
C183 O176 1.275 . S
C183 O178 1.255 . S
C184 O185 1.258 . S
C184 O186 1.256 . S
O185 Cd177 2.381 . S
O185 C184 1.258 . S
O186 Cd177 2.378 . S
O186 C184 1.256 . S
O187 Cd188 2.300 . S
O187 C194 1.275 . S
Cd188 O187 2.300 . S
Cd188 O196 2.381 . S
Cd188 O197 2.378 . S
O189 Cd190 2.385 . S
O189 C194 1.255 . S
Cd190 O189 2.385 . S
Cd190 O191 2.317 . S
O191 Cd190 2.317 . S
O191 C192 1.232 . S
C192 O191 1.232 . S
C192 O193 1.218 . S
O193 C192 1.218 . S
C194 O187 1.275 . S
C194 O189 1.255 . S
C195 O196 1.258 . S
C195 O197 1.256 . S
O196 Cd188 2.381 . S
O196 C195 1.258 . S
O197 Cd188 2.378 . S
O197 C195 1.256 . S
O198 Cd199 2.300 . S
O198 C205 1.275 . S
Cd199 O198 2.300 . S
Cd199 O207 2.381 . S
Cd199 O208 2.378 . S
O200 Cd201 2.385 . S
O200 C205 1.255 . S
Cd201 O200 2.385 . S
Cd201 O202 2.317 . S
O202 Cd201 2.317 . S
O202 C203 1.232 . S
C203 O202 1.232 . S
C203 O204 1.218 . S
O204 C203 1.218 . S
C205 O198 1.275 . S
C205 O200 1.255 . S
C206 O207 1.258 . S
C206 O208 1.256 . S
O207 Cd199 2.381 . S
O207 C206 1.258 . S
O208 Cd199 2.378 . S
O208 C206 1.256 . S
O209 Cd210 2.300 . S
O209 C216 1.275 . S
Cd210 O209 2.300 . S
Cd210 O218 2.381 . S
Cd210 O219 2.378 . S
O211 Cd212 2.385 . S
O211 C216 1.255 . S
Cd212 O211 2.385 . S
Cd212 O213 2.317 . S
O213 Cd212 2.317 . S
O213 C214 1.232 . S
C214 O213 1.232 . S
C214 O215 1.218 . S
O215 C214 1.218 . S
C216 O209 1.275 . S
C216 O211 1.255 . S
C217 O218 1.258 . S
C217 O219 1.256 . S
O218 Cd210 2.381 . S
O218 C217 1.258 . S
O219 Cd210 2.378 . S
O219 C217 1.256 . S
O220 Cd221 2.300 . S
O220 C227 1.275 1_556 S
Cd221 O220 2.300 . S
Cd221 O229 2.381 . S
Cd221 O230 2.378 . S
O222 Cd223 2.385 . S
O222 C227 1.255 . S
Cd223 O222 2.385 . S
Cd223 O224 2.317 . S
O224 Cd223 2.317 . S
O224 C225 1.232 . S
C225 O224 1.232 . S
C225 O226 1.218 . S
O226 C225 1.218 . S
C227 O220 1.275 1_554 S
C227 O222 1.255 . S
C228 O229 1.258 . S
C228 O230 1.256 . S
O229 Cd221 2.381 . S
O229 C228 1.258 . S
O230 Cd221 2.378 . S
O230 C228 1.256 . S
O231 Cd232 2.300 . S
O231 C238 1.275 . S
Cd232 O231 2.300 . S
Cd232 O240 2.381 . S
Cd232 O241 2.378 . S
O233 Cd234 2.385 . S
O233 C238 1.255 . S
Cd234 O233 2.385 . S
Cd234 O235 2.317 . S
O235 Cd234 2.317 . S
O235 C236 1.232 . S
C236 O235 1.232 . S
C236 O237 1.218 . S
O237 C236 1.218 . S
C238 O231 1.275 . S
C238 O233 1.255 . S
C239 O240 1.258 . S
C239 O241 1.256 . S
O240 Cd232 2.381 . S
O240 C239 1.258 . S
O241 Cd232 2.378 . S
O241 C239 1.256 . S
O242 Cd243 2.300 . S
O242 C249 1.275 . S
Cd243 O242 2.300 . S
Cd243 O251 2.381 . S
Cd243 O252 2.378 . S
O244 Cd245 2.385 . S
O244 C249 1.255 . S
Cd245 O244 2.385 . S
Cd245 O246 2.317 . S
O246 Cd245 2.317 . S
O246 C247 1.232 . S
C247 O246 1.232 . S
C247 O248 1.218 . S
O248 C247 1.218 . S
C249 O242 1.275 . S
C249 O244 1.255 . S
C250 O251 1.258 . S
C250 O252 1.256 . S
O251 Cd243 2.381 . S
O251 C250 1.258 . S
O252 Cd243 2.378 . S
O252 C250 1.256 . S
O253 Cd254 2.300 . S
O253 C260 1.275 1_565 S
Cd254 O253 2.300 . S
Cd254 O262 2.381 . S
Cd254 O263 2.378 . S
O255 Cd256 2.385 . S
O255 C260 1.255 . S
Cd256 O255 2.385 . S
Cd256 O257 2.317 . S
O257 Cd256 2.317 . S
O257 C258 1.232 . S
C258 O257 1.232 . S
C258 O259 1.218 . S
O259 C258 1.218 . S
C260 O253 1.275 1_545 S
C260 O255 1.255 . S
C261 O262 1.258 . S
C261 O263 1.256 . S
O262 Cd254 2.381 . S
O262 C261 1.258 . S
O263 Cd254 2.378 . S
O263 C261 1.256 . S
C84 C7 1.691 . S
C51 C18 1.601 1_655 S
C29 C62 1.549 . S
C73 C40 1.444 1_556 S
C183 C95 1.580 . S
C106 C194 2.045 1_545 S
C117 C260 1.160 . S
C128 C139 1.275 . S
C227 C150 1.361 . S
C161 C238 2.144 . S
C249 C172 2.094 . S
C216 C205 1.609 . S
C162 C5 1.966 . S
C173 C16 1.843 . S
C30 C206 1.630 . S
C148 C41 1.273 . S
C49 C159 1.701 . S
C170 C63 1.686 . S
C74 C203 1.457 . S
C82 C151 1.274 . S
C107 C93 1.668 . S
C104 C115 1.407 . S
C118 C126 1.141 . S
C129 C96 1.605 . S
C140 C38 1.417 . S
C181 C52 1.635 . S
C19 C192 1.610 . S
C261 C27 1.210 . S
C184 C8 2.005 . S
C71 C258 1.197 . S
C85 C137 1.421 . S
C195 C60 1.992 . S
C214 C228 1.507 . S
C236 C225 1.664 . S
C239 C247 2.004 . S
C217 C250 2.171 . S
