# Generated by pormake.
# Topology sth, (5)-cn, num edge types: 1
# Building blocks:
#     Node 0, Type 0, BuildingBlock: BEQFEK_clean_sbu_0, # of connection points: 5
#     Node 1, Type 0, BuildingBlock: BEQFEK_clean_sbu_0, # of connection points: 5
#     Node 2, Type 0, BuildingBlock: BEQFEK_clean_sbu_0, # of connection points: 5
#     Node 3, Type 0, BuildingBlock: BEQFEK_clean_sbu_0, # of connection points: 5
#     Node 4, Type 0, BuildingBlock: BEQFEK_clean_sbu_0, # of connection points: 5
#     Node 5, Type 0, BuildingBlock: BEQFEK_clean_sbu_0, # of connection points: 5
#     Node 6, Type 0, BuildingBlock: BEQFEK_clean_sbu_0, # of connection points: 5
#     Node 7, Type 0, BuildingBlock: BEQFEK_clean_sbu_0, # of connection points: 5
#     Node 8, Type 0, BuildingBlock: BEQFEK_clean_sbu_0, # of connection points: 5
#     Node 9, Type 0, BuildingBlock: BEQFEK_clean_sbu_0, # of connection points: 5
#     Node 10, Type 0, BuildingBlock: BEQFEK_clean_sbu_0, # of connection points: 5
#     Node 11, Type 0, BuildingBlock: BEQFEK_clean_sbu_0, # of connection points: 5
#     Node 12, Type 0, BuildingBlock: BEQFEK_clean_sbu_0, # of connection points: 5
#     Node 13, Type 0, BuildingBlock: BEQFEK_clean_sbu_0, # of connection points: 5
#     Node 14, Type 0, BuildingBlock: BEQFEK_clean_sbu_0, # of connection points: 5
#     Node 15, Type 0, BuildingBlock: BEQFEK_clean_sbu_0, # of connection points: 5
#     Node 16, Type 0, BuildingBlock: BEQFEK_clean_sbu_0, # of connection points: 5
#     Node 17, Type 0, BuildingBlock: BEQFEK_clean_sbu_0, # of connection points: 5
#     Edge 18, Type (0, 0), BuildingBlock: UVAHIK_clean_linker_0, # of connection points: 2
#     Edge 19, Type (0, 0), BuildingBlock: UVAHIK_clean_linker_0, # of connection points: 2
#     Edge 20, Type (0, 0), BuildingBlock: UVAHIK_clean_linker_0, # of connection points: 2
#     Edge 21, Type (0, 0), BuildingBlock: UVAHIK_clean_linker_0, # of connection points: 2
#     Edge 22, Type (0, 0), BuildingBlock: UVAHIK_clean_linker_0, # of connection points: 2
#     Edge 23, Type (0, 0), BuildingBlock: UVAHIK_clean_linker_0, # of connection points: 2
#     Edge 24, Type (0, 0), BuildingBlock: UVAHIK_clean_linker_0, # of connection points: 2
#     Edge 25, Type (0, 0), BuildingBlock: UVAHIK_clean_linker_0, # of connection points: 2
#     Edge 26, Type (0, 0), BuildingBlock: UVAHIK_clean_linker_0, # of connection points: 2
#     Edge 27, Type (0, 0), BuildingBlock: UVAHIK_clean_linker_0, # of connection points: 2
#     Edge 28, Type (0, 0), BuildingBlock: UVAHIK_clean_linker_0, # of connection points: 2
#     Edge 29, Type (0, 0), BuildingBlock: UVAHIK_clean_linker_0, # of connection points: 2
#     Edge 30, Type (0, 0), BuildingBlock: UVAHIK_clean_linker_0, # of connection points: 2
#     Edge 31, Type (0, 0), BuildingBlock: UVAHIK_clean_linker_0, # of connection points: 2
#     Edge 32, Type (0, 0), BuildingBlock: UVAHIK_clean_linker_0, # of connection points: 2
#     Edge 33, Type (0, 0), BuildingBlock: UVAHIK_clean_linker_0, # of connection points: 2
#     Edge 34, Type (0, 0), BuildingBlock: UVAHIK_clean_linker_0, # of connection points: 2
#     Edge 35, Type (0, 0), BuildingBlock: UVAHIK_clean_linker_0, # of connection points: 2
#     Edge 36, Type (0, 0), BuildingBlock: UVAHIK_clean_linker_0, # of connection points: 2
#     Edge 37, Type (0, 0), BuildingBlock: UVAHIK_clean_linker_0, # of connection points: 2
#     Edge 38, Type (0, 0), BuildingBlock: UVAHIK_clean_linker_0, # of connection points: 2
#     Edge 39, Type (0, 0), BuildingBlock: UVAHIK_clean_linker_0, # of connection points: 2
#     Edge 40, Type (0, 0), BuildingBlock: UVAHIK_clean_linker_0, # of connection points: 2
#     Edge 41, Type (0, 0), BuildingBlock: UVAHIK_clean_linker_0, # of connection points: 2
#     Edge 42, Type (0, 0), BuildingBlock: UVAHIK_clean_linker_0, # of connection points: 2
#     Edge 43, Type (0, 0), BuildingBlock: UVAHIK_clean_linker_0, # of connection points: 2
#     Edge 44, Type (0, 0), BuildingBlock: UVAHIK_clean_linker_0, # of connection points: 2
#     Edge 45, Type (0, 0), BuildingBlock: UVAHIK_clean_linker_0, # of connection points: 2
#     Edge 46, Type (0, 0), BuildingBlock: UVAHIK_clean_linker_0, # of connection points: 2
#     Edge 47, Type (0, 0), BuildingBlock: UVAHIK_clean_linker_0, # of connection points: 2
#     Edge 48, Type (0, 0), BuildingBlock: UVAHIK_clean_linker_0, # of connection points: 2
#     Edge 49, Type (0, 0), BuildingBlock: UVAHIK_clean_linker_0, # of connection points: 2
#     Edge 50, Type (0, 0), BuildingBlock: UVAHIK_clean_linker_0, # of connection points: 2
#     Edge 51, Type (0, 0), BuildingBlock: UVAHIK_clean_linker_0, # of connection points: 2
#     Edge 52, Type (0, 0), BuildingBlock: UVAHIK_clean_linker_0, # of connection points: 2
#     Edge 53, Type (0, 0), BuildingBlock: UVAHIK_clean_linker_0, # of connection points: 2
#     Edge 54, Type (0, 0), BuildingBlock: UVAHIK_clean_linker_0, # of connection points: 2
#     Edge 55, Type (0, 0), BuildingBlock: UVAHIK_clean_linker_0, # of connection points: 2
#     Edge 56, Type (0, 0), BuildingBlock: UVAHIK_clean_linker_0, # of connection points: 2
#     Edge 57, Type (0, 0), BuildingBlock: UVAHIK_clean_linker_0, # of connection points: 2
#     Edge 58, Type (0, 0), BuildingBlock: UVAHIK_clean_linker_0, # of connection points: 2
#     Edge 59, Type (0, 0), BuildingBlock: UVAHIK_clean_linker_0, # of connection points: 2
#     Edge 60, Type (0, 0), BuildingBlock: UVAHIK_clean_linker_0, # of connection points: 2
#     Edge 61, Type (0, 0), BuildingBlock: UVAHIK_clean_linker_0, # of connection points: 2
#     Edge 62, Type (0, 0), BuildingBlock: UVAHIK_clean_linker_0, # of connection points: 2
# Relax obj value: 0.247
# Max RMSD: 0.164
# Mean RMSD: 0.163
data_MOF--net-sth--node1-BEQFEK_clean_sbu_0--edge1-UVAHIK_clean_linker_0
_symmetry_space_group_name_H-M    P1
_symmetry_Int_Tables_number       1
_symmetry_cell_setting            triclinic
loop_
_symmetry_equiv_pos_as_xyz
'x, y, z'
_cell_length_a     55.957315
_cell_length_b     55.969774
_cell_length_c     85.046231
_cell_angle_alpha  89.998818
_cell_angle_beta   89.998159
_cell_angle_gamma 119.99632
loop_
_atom_site_label
_atom_site_type_symbol
_atom_site_fract_x
_atom_site_fract_y
_atom_site_fract_z
_atom_type_partial_charge
Co0 Co 0.06938 0.23805 0.22915 0.0
Co1 Co 0.12989 0.28683 0.2238 0.0
C2 C 0.08278 0.28484 0.20649 0.0
O3 O 0.06602 0.26263 0.21359 0.0
O4 O 0.10871 0.29656 0.20889 0.0
C5 C 0.01802 0.19318 0.21836 0.0
O6 O 0.02589 0.20656 0.20494 0.0
C7 C 0.18386 0.32229 0.20869 0.0
C8 C 0.21132 0.33689 0.22943 0.0
C9 C 0.2114 0.33806 0.21315 0.0
N10 N 0.16845 0.31219 0.22175 0.0
N11 N 0.18497 0.3213 0.23409 0.0
C12 C 0.17242 0.31464 0.1924 0.0
H13 H 0.15196 0.29549 0.1926 0.0
H14 H 0.18677 0.31171 0.1847 0.0
H15 H 0.16976 0.33151 0.18746 0.0
C16 C 0.09625 0.20533 0.2219 0.0
N17 N 0.09698 0.22968 0.22319 0.0
N18 N 0.1225 0.24989 0.22114 0.0
C19 C 0.13887 0.2389 0.21868 0.0
C20 C 0.12272 0.21035 0.21896 0.0
C21 C 0.07118 0.17788 0.22498 0.0
H22 H 0.06126 0.17876 0.23609 0.0
H23 H 0.05621 0.17301 0.21527 0.0
H24 H 0.07629 0.16116 0.22585 0.0
O25 O 0.07819 0.25622 0.25011 0.0
O26 O 0.11998 0.29182 0.24537 0.0
H27 H 0.17886 0.26928 0.22685 0.0
H28 H 0.17873 0.24186 0.21553 0.0
C29 C 0.16951 0.25531 0.21665 0.0
H30 H 0.17441 0.26806 0.20589 0.0
H31 H 0.17832 0.3162 0.24571 0.0
O32 O 0.0333 0.20329 0.23041 0.0
C33 C 0.09949 0.27843 0.25451 0.0
Co34 Co 0.76456 0.82973 0.22934 0.0
Co35 Co 0.71788 0.84444 0.22333 0.0
C36 C 0.71815 0.7983 0.20614 0.0
O37 O 0.73994 0.80284 0.21341 0.0
O38 O 0.70716 0.81318 0.20851 0.0
C39 C 0.80773 0.82019 0.21904 0.0
O40 O 0.7941 0.81451 0.20571 0.0
C41 C 0.68444 0.86494 0.20773 0.0
C42 C 0.66979 0.87826 0.22825 0.0
C43 C 0.6691 0.87728 0.21197 0.0
N44 N 0.6938 0.85913 0.22092 0.0
N45 N 0.6847 0.86686 0.23313 0.0
C46 C 0.69221 0.86084 0.19154 0.0
H47 H 0.7112 0.85925 0.19192 0.0
H48 H 0.69545 0.8781 0.18372 0.0
H49 H 0.67525 0.84134 0.18662 0.0
C50 C 0.79958 0.8894 0.22292 0.0
N51 N 0.77467 0.86633 0.22359 0.0
N52 N 0.75537 0.87272 0.22087 0.0
C53 C 0.76751 0.90018 0.2184 0.0
C54 C 0.79591 0.91162 0.21961 0.0
C55 C 0.82634 0.89007 0.22566 0.0
H56 H 0.82889 0.87725 0.21662 0.0
H57 H 0.84429 0.91127 0.22494 0.0
H58 H 0.82594 0.88111 0.23736 0.0
O59 O 0.74528 0.82019 0.24997 0.0
O60 O 0.71208 0.8299 0.24503 0.0
H61 H 0.73732 0.91012 0.2265 0.0
H62 H 0.76626 0.93824 0.21668 0.0
C63 C 0.75217 0.91559 0.21668 0.0
H64 H 0.74045 0.90952 0.2055 0.0
H65 H 0.68926 0.865 0.24481 0.0
O66 O 0.79846 0.82672 0.23095 0.0
C67 C 0.72398 0.82121 0.25427 0.0
Co68 Co 0.17065 0.93419 0.22976 0.0
Co69 Co 0.1589 0.87386 0.22305 0.0
C70 C 0.2042 0.92191 0.20651 0.0
O71 O 0.1986 0.93823 0.21398 0.0
O72 O 0.19001 0.89591 0.2085 0.0
C73 C 0.17265 0.98235 0.21826 0.0
O74 O 0.17137 0.96994 0.20491 0.0
C75 C 0.14009 0.82028 0.20695 0.0
C76 C 0.13047 0.79255 0.22738 0.0
C77 C 0.12992 0.79277 0.2111 0.0
N78 N 0.14586 0.83533 0.22021 0.0
N79 N 0.14023 0.81861 0.23235 0.0
C80 C 0.14537 0.83236 0.19076 0.0
H81 H 0.16144 0.85445 0.19101 0.0
H82 H 0.12619 0.83085 0.18604 0.0
H83 H 0.15189 0.82098 0.18277 0.0
C84 C 0.11044 0.90689 0.22374 0.0
N85 N 0.13439 0.9066 0.22393 0.0
N86 N 0.12933 0.88139 0.22095 0.0
C87 C 0.10192 0.86488 0.21872 0.0
C88 C 0.08911 0.88051 0.22037 0.0
C89 C 0.10805 0.93188 0.2271 0.0
H90 H 0.12014 0.94246 0.23776 0.0
H91 H 0.11662 0.94629 0.21703 0.0
H92 H 0.08636 0.92676 0.22871 0.0
O93 O 0.18024 0.92453 0.25041 0.0
O94 O 0.17379 0.8829 0.2447 0.0
H95 H 0.09461 0.82543 0.22654 0.0
H96 H 0.06506 0.82451 0.21745 0.0
C97 C 0.08785 0.83418 0.21699 0.0
H98 H 0.09373 0.82905 0.20559 0.0
H99 H 0.14275 0.82496 0.24407 0.0
O100 O 0.17278 0.97071 0.23108 0.0
C101 C 0.18104 0.90291 0.25424 0.0
Co102 Co 0.2379 0.06672 0.76831 0.0
Co103 Co 0.28565 0.12719 0.77553 0.0
C104 C 0.2837 0.07905 0.79153 0.0
O105 O 0.26182 0.06272 0.78405 0.0
O106 O 0.29532 0.10507 0.78969 0.0
C107 C 0.19185 0.01875 0.77976 0.0
O108 O 0.20292 0.03151 0.79304 0.0
C109 C 0.32027 0.18067 0.79182 0.0
C110 C 0.33774 0.20867 0.77143 0.0
C111 C 0.33736 0.20823 0.78772 0.0
N112 N 0.31077 0.16575 0.77852 0.0
N113 N 0.32147 0.18264 0.76642 0.0
C114 C 0.31393 0.16842 0.80797 0.0
H115 H 0.30804 0.14637 0.80758 0.0
H116 H 0.29632 0.16976 0.81293 0.0
H117 H 0.332 0.17983 0.81584 0.0
C118 C 0.20423 0.09327 0.77449 0.0
N119 N 0.22862 0.09386 0.77439 0.0
N120 N 0.24845 0.11901 0.77779 0.0
C121 C 0.23722 0.13517 0.78023 0.0
C122 C 0.20885 0.11936 0.77826 0.0
C123 C 0.1771 0.06832 0.77061 0.0
H124 H 0.17929 0.05793 0.76006 0.0
H125 H 0.1706 0.05375 0.78064 0.0
H126 H 0.16062 0.07344 0.76857 0.0
O127 O 0.25745 0.07693 0.74769 0.0
O128 O 0.29115 0.11913 0.75365 0.0
H129 H 0.26885 0.17511 0.77277 0.0
H130 H 0.24017 0.17522 0.78233 0.0
C131 C 0.25352 0.1658 0.78237 0.0
H132 H 0.26474 0.17059 0.79369 0.0
H133 H 0.31741 0.17643 0.75469 0.0
O134 O 0.20372 0.03006 0.7669 0.0
C135 C 0.27919 0.09931 0.74391 0.0
Co136 Co 0.93609 0.17173 0.76904 0.0
Co137 Co 0.87513 0.15757 0.77592 0.0
C138 C 0.92233 0.20462 0.79194 0.0
O139 O 0.93909 0.19963 0.78448 0.0
O140 O 0.89631 0.18958 0.79017 0.0
C141 C 0.98861 0.18097 0.77923 0.0
O142 O 0.98059 0.18657 0.79256 0.0
C143 C 0.82134 0.13759 0.79176 0.0
C144 C 0.79327 0.12403 0.77127 0.0
C145 C 0.79364 0.12525 0.78755 0.0
N146 N 0.83644 0.14314 0.77855 0.0
N147 N 0.81954 0.13527 0.76636 0.0
C148 C 0.83329 0.14192 0.80793 0.0
H149 H 0.85398 0.14375 0.80754 0.0
H150 H 0.81942 0.12466 0.81579 0.0
H151 H 0.83563 0.16137 0.81281 0.0
C152 C 0.91145 0.11229 0.77614 0.0
N153 N 0.90979 0.13546 0.77552 0.0
N154 N 0.88429 0.12932 0.77864 0.0
C155 C 0.8689 0.10192 0.78132 0.0
C156 C 0.88564 0.09027 0.77983 0.0
C157 C 0.93719 0.11127 0.77279 0.0
H158 H 0.9531 0.12396 0.78161 0.0
H159 H 0.93372 0.08997 0.77336 0.0
H160 H 0.94519 0.12016 0.76099 0.0
O161 O 0.92549 0.17994 0.74826 0.0
O162 O 0.88303 0.17078 0.75399 0.0
H163 H 0.82863 0.09189 0.77346 0.0
H164 H 0.82953 0.06406 0.78358 0.0
C165 C 0.83822 0.08673 0.78331 0.0
H166 H 0.8329 0.09327 0.79444 0.0
H167 H 0.82589 0.1369 0.75468 0.0
O168 O 0.97288 0.17458 0.76729 0.0
C169 C 0.90292 0.1787 0.74431 0.0
Co170 Co 0.83132 0.76381 0.76855 0.0
Co171 Co 0.84429 0.71598 0.77436 0.0
C172 C 0.7979 0.71673 0.791 0.0
O173 O 0.80327 0.73894 0.78393 0.0
O174 O 0.81249 0.70537 0.78878 0.0
C175 C 0.82423 0.80822 0.77928 0.0
O176 O 0.81927 0.79498 0.79272 0.0
C177 C 0.86275 0.68075 0.78983 0.0
C178 C 0.87723 0.66719 0.76934 0.0
C179 C 0.87508 0.6654 0.78558 0.0
N180 N 0.85811 0.69118 0.77669 0.0
N181 N 0.8665 0.68271 0.76449 0.0
C182 C 0.85774 0.68766 0.80604 0.0
H183 H 0.85624 0.70671 0.80585 0.0
H184 H 0.87453 0.69043 0.81411 0.0
H185 H 0.83794 0.6705 0.81052 0.0
C186 C 0.89081 0.79753 0.77611 0.0
N187 N 0.86743 0.77294 0.77486 0.0
N188 N 0.87311 0.75308 0.77729 0.0
C189 C 0.90045 0.7645 0.78001 0.0
C190 C 0.91246 0.793 0.77945 0.0
C191 C 0.89283 0.82468 0.77257 0.0
H192 H 0.88176 0.82316 0.76147 0.0
H193 H 0.88285 0.82991 0.78219 0.0
H194 H 0.91459 0.84149 0.77147 0.0
O195 O 0.82246 0.74543 0.74762 0.0
O196 O 0.83067 0.71123 0.75253 0.0
H197 H 0.91158 0.73509 0.77212 0.0
H198 H 0.93751 0.76227 0.78422 0.0
C199 C 0.91502 0.74852 0.78245 0.0
H200 H 0.90641 0.73522 0.79296 0.0
H201 H 0.86559 0.68815 0.75286 0.0
O202 O 0.82929 0.79817 0.76717 0.0
C203 C 0.82295 0.7239 0.74323 0.0
Co204 Co 0.73468 0.57132 0.56237 0.0
Co205 Co 0.79554 0.61859 0.55588 0.0
C206 C 0.74884 0.61781 0.5391 0.0
O207 O 0.73208 0.59592 0.54646 0.0
O208 O 0.77479 0.62916 0.54121 0.0
C209 C 0.68824 0.52446 0.55028 0.0
O210 O 0.70279 0.53441 0.53736 0.0
C211 C 0.84954 0.65442 0.54068 0.0
C212 C 0.87744 0.66575 0.56117 0.0
C213 C 0.87725 0.66902 0.54502 0.0
N214 N 0.83432 0.64299 0.55368 0.0
N215 N 0.85113 0.65014 0.56588 0.0
C216 C 0.8377 0.64909 0.52444 0.0
H217 H 0.81702 0.63023 0.52427 0.0
H218 H 0.85157 0.64676 0.51604 0.0
H219 H 0.8354 0.66681 0.52066 0.0
C220 C 0.76082 0.53714 0.55682 0.0
N221 N 0.7617 0.56166 0.55689 0.0
N222 N 0.78688 0.58127 0.55337 0.0
C223 C 0.80267 0.56972 0.55064 0.0
C224 C 0.78667 0.54136 0.55274 0.0
C225 C 0.73682 0.51069 0.56254 0.0
H226 H 0.72277 0.49998 0.55254 0.0
H227 H 0.74373 0.49679 0.56748 0.0
H228 H 0.72535 0.51488 0.57173 0.0
O229 O 0.74391 0.59036 0.58301 0.0
O230 O 0.78649 0.62395 0.57767 0.0
H231 H 0.84476 0.59793 0.55649 0.0
H232 H 0.84033 0.57174 0.54244 0.0
C233 C 0.83255 0.58556 0.54626 0.0
H234 H 0.83546 0.59981 0.53649 0.0
H235 H 0.84465 0.64375 0.5774 0.0
O236 O 0.69777 0.53742 0.56313 0.0
C237 C 0.76616 0.61193 0.5871 0.0
Co238 Co 0.43218 0.16459 0.56269 0.0
Co239 Co 0.38456 0.17759 0.55582 0.0
C240 C 0.38579 0.13096 0.53982 0.0
O241 O 0.4077 0.13632 0.54724 0.0
O242 O 0.37444 0.14566 0.54161 0.0
C243 C 0.47567 0.15415 0.55372 0.0
O244 O 0.4608 0.1442 0.54091 0.0
C245 C 0.34957 0.19608 0.53992 0.0
C246 C 0.33565 0.21043 0.56031 0.0
C247 C 0.33411 0.20837 0.54406 0.0
N248 N 0.35982 0.19141 0.55313 0.0
N249 N 0.35114 0.19974 0.56527 0.0
C250 C 0.35669 0.19106 0.52376 0.0
H251 H 0.3756 0.18933 0.52408 0.0
H252 H 0.3598 0.20797 0.51569 0.0
H253 H 0.33948 0.17139 0.5192 0.0
C254 C 0.46612 0.22386 0.55479 0.0
N255 N 0.44145 0.20058 0.55602 0.0
N256 N 0.42173 0.2063 0.55315 0.0
C257 C 0.43331 0.23357 0.55023 0.0
C258 C 0.46179 0.24552 0.55107 0.0
C259 C 0.49311 0.22575 0.55867 0.0
H260 H 0.49162 0.21613 0.5703 0.0
H261 H 0.49769 0.21416 0.54973 0.0
H262 H 0.51029 0.24742 0.55893 0.0
O263 O 0.41313 0.156 0.58346 0.0
O264 O 0.37927 0.16431 0.5777 0.0
H265 H 0.40373 0.24497 0.55741 0.0
H266 H 0.4313 0.27057 0.54535 0.0
C267 C 0.41745 0.24814 0.54726 0.0
H268 H 0.40445 0.23929 0.53667 0.0
H269 H 0.3564 0.1988 0.57693 0.0
O270 O 0.46685 0.16312 0.56471 0.0
C271 C 0.39149 0.15668 0.58738 0.0
Co272 Co 0.83935 0.26794 0.56353 0.0
Co273 Co 0.82608 0.2075 0.55544 0.0
C274 C 0.87332 0.25604 0.54039 0.0
O275 O 0.86779 0.27224 0.54805 0.0
O276 O 0.85857 0.22995 0.54181 0.0
C277 C 0.84693 0.31976 0.55364 0.0
O278 O 0.85228 0.31178 0.54022 0.0
C279 C 0.8087 0.15428 0.53892 0.0
C280 C 0.79303 0.12545 0.55904 0.0
C281 C 0.7965 0.12648 0.54288 0.0
N282 N 0.81184 0.16883 0.55214 0.0
N283 N 0.80256 0.15142 0.56409 0.0
C284 C 0.81806 0.16691 0.52298 0.0
H285 H 0.83523 0.18845 0.52397 0.0
H286 H 0.80073 0.16721 0.51683 0.0
H287 H 0.82475 0.15472 0.51582 0.0
C288 C 0.77989 0.24282 0.55638 0.0
N289 N 0.80331 0.24157 0.55679 0.0
N290 N 0.79773 0.21655 0.55289 0.0
C291 C 0.77053 0.20114 0.5497 0.0
C292 C 0.7583 0.21727 0.55181 0.0
C293 C 0.77778 0.26698 0.56218 0.0
H294 H 0.79059 0.27563 0.57288 0.0
H295 H 0.7857 0.2832 0.55298 0.0
H296 H 0.75621 0.26117 0.56502 0.0
O297 O 0.84757 0.25655 0.58399 0.0
O298 O 0.83877 0.21443 0.57757 0.0
H299 H 0.75615 0.15882 0.55519 0.0
H300 H 0.73506 0.1639 0.54094 0.0
C301 C 0.75647 0.1714 0.54502 0.0
H302 H 0.76817 0.16868 0.53538 0.0
H303 H 0.8025 0.15726 0.57574 0.0
O304 O 0.84146 0.30435 0.56566 0.0
C305 C 0.84647 0.23389 0.58755 0.0
Co306 Co 0.90526 0.40025 0.10182 0.0
Co307 Co 0.95316 0.4609 0.10836 0.0
C308 C 0.95123 0.41347 0.12517 0.0
O309 O 0.92955 0.39682 0.1176 0.0
O310 O 0.96259 0.43948 0.12323 0.0
C311 C 0.86145 0.34686 0.11122 0.0
O312 O 0.87543 0.35301 0.12444 0.0
C313 C 0.98683 0.51467 0.12412 0.0
C314 C 0.00378 0.54242 0.1036 0.0
C315 C 0.00318 0.54225 0.11989 0.0
N316 N 0.97814 0.49946 0.11091 0.0
N317 N 0.98862 0.51616 0.09871 0.0
C318 C 0.97754 0.503 0.14024 0.0
H319 H 0.95839 0.48259 0.13957 0.0
H320 H 0.97397 0.5173 0.1476 0.0
H321 H 0.99384 0.50017 0.14587 0.0
C322 C 0.87154 0.4262 0.10832 0.0
N323 N 0.89613 0.42732 0.1078 0.0
N324 N 0.91589 0.45284 0.11042 0.0
C325 C 0.90438 0.46883 0.11258 0.0
C326 C 0.8759 0.45245 0.11132 0.0
C327 C 0.84444 0.40045 0.10568 0.0
H328 H 0.84216 0.38457 0.11429 0.0
H329 H 0.82674 0.40396 0.10711 0.0
H330 H 0.84407 0.3924 0.0937 0.0
O331 O 0.92447 0.41018 0.08115 0.0
O332 O 0.95941 0.4519 0.08683 0.0
H333 H 0.9361 0.50828 0.10446 0.0
H334 H 0.90691 0.5088 0.11303 0.0
C335 C 0.92041 0.49961 0.11392 0.0
H336 H 0.93119 0.50541 0.12541 0.0
H337 H 0.9848 0.50969 0.08702 0.0
O338 O 0.87076 0.3639 0.09985 0.0
C339 C 0.9468 0.43186 0.07731 0.0
Co340 Co 0.60238 0.50507 0.10207 0.0
Co341 Co 0.54145 0.49195 0.10827 0.0
C342 C 0.58941 0.53889 0.12439 0.0
O343 O 0.60621 0.53338 0.11741 0.0
O344 O 0.56347 0.52429 0.1222 0.0
C345 C 0.65579 0.51479 0.11138 0.0
O346 O 0.64969 0.52277 0.12457 0.0
C347 C 0.48818 0.47258 0.12474 0.0
C348 C 0.46 0.46321 0.10455 0.0
C349 C 0.46061 0.46258 0.12082 0.0
N350 N 0.50292 0.47843 0.11136 0.0
N351 N 0.48593 0.47288 0.09936 0.0
C352 C 0.50068 0.47774 0.14082 0.0
H353 H 0.52292 0.49337 0.14037 0.0
H354 H 0.49873 0.45836 0.14551 0.0
H355 H 0.48985 0.48473 0.14892 0.0
C356 C 0.57677 0.4457 0.10953 0.0
N357 N 0.57549 0.46905 0.1086 0.0
N358 N 0.5499 0.46322 0.11108 0.0
C359 C 0.534 0.43578 0.11347 0.0
C360 C 0.55054 0.42381 0.11261 0.0
C361 C 0.60262 0.44442 0.10717 0.0
H362 H 0.61063 0.45154 0.09512 0.0
H363 H 0.61846 0.45846 0.11566 0.0
H364 H 0.59923 0.42333 0.109 0.0
O365 O 0.59203 0.51367 0.08131 0.0
O366 O 0.54944 0.50498 0.0863 0.0
H367 H 0.4948 0.42811 0.1049 0.0
H368 H 0.4941 0.39823 0.11336 0.0
C369 C 0.50316 0.42088 0.11443 0.0
H370 H 0.49688 0.4255 0.12586 0.0
H371 H 0.49201 0.47552 0.08759 0.0
O372 O 0.63869 0.50692 0.10004 0.0
C373 C 0.5698 0.51283 0.07696 0.0
Co374 Co 0.4983 0.09804 0.10246 0.0
Co375 Co 0.51 0.04916 0.10818 0.0
C376 C 0.4644 0.0515 0.125 0.0
O377 O 0.47008 0.07378 0.11794 0.0
O378 O 0.47855 0.03972 0.12267 0.0
C379 C 0.48986 0.14201 0.11259 0.0
O380 O 0.48234 0.12763 0.12568 0.0
C381 C 0.5297 0.01536 0.12432 0.0
C382 C 0.53713 0.99516 0.10408 0.0
C383 C 0.53916 0.99737 0.12032 0.0
N384 N 0.52289 0.02359 0.11102 0.0
N385 N 0.52724 0.01129 0.099 0.0
C386 C 0.52598 0.02375 0.14044 0.0
H387 H 0.51029 0.03029 0.14031 0.0
H388 H 0.54572 0.04149 0.1445 0.0
H389 H 0.51974 0.00648 0.14887 0.0
C390 C 0.55792 0.13066 0.10916 0.0
N391 N 0.53421 0.10631 0.10855 0.0
N392 N 0.5396 0.08617 0.11066 0.0
C393 C 0.56713 0.0972 0.11245 0.0
C394 C 0.57961 0.12576 0.11159 0.0
C395 C 0.55973 0.15806 0.10693 0.0
H396 H 0.54627 0.16028 0.11566 0.0
H397 H 0.58107 0.17547 0.1085 0.0
H398 H 0.55222 0.15904 0.09501 0.0
O399 O 0.48919 0.07943 0.08161 0.0
O400 O 0.49567 0.044 0.08644 0.0
H401 H 0.57312 0.06485 0.1034 0.0
H402 H 0.60413 0.09399 0.11095 0.0
C403 C 0.58157 0.08077 0.11274 0.0
H404 H 0.57796 0.07027 0.12425 0.0
H405 H 0.52372 0.01414 0.08729 0.0
O406 O 0.49711 0.13293 0.10089 0.0
C407 C 0.48857 0.05733 0.07724 0.0
Co408 Co 0.40122 0.90375 0.89673 0.0
Co409 Co 0.46169 0.95218 0.89021 0.0
C410 C 0.41391 0.94938 0.8733 0.0
O411 O 0.39742 0.92753 0.88076 0.0
O412 O 0.43987 0.96117 0.87544 0.0
C413 C 0.353 0.8577 0.8852 0.0
O414 O 0.36541 0.86885 0.87185 0.0
C415 C 0.51542 0.98656 0.87423 0.0
C416 C 0.54292 0.00539 0.89468 0.0
C417 C 0.54285 0.00413 0.87841 0.0
N418 N 0.50024 0.97762 0.88746 0.0
N419 N 0.51682 0.98912 0.89961 0.0
C420 C 0.50351 0.97926 0.85801 0.0
H421 H 0.48138 0.97309 0.85811 0.0
H422 H 0.50522 0.96155 0.85355 0.0
H423 H 0.5149 0.99695 0.84989 0.0
C424 C 0.42847 0.87073 0.89115 0.0
N425 N 0.42884 0.89499 0.89114 0.0
N426 N 0.45414 0.91507 0.88828 0.0
C427 C 0.47065 0.90409 0.88634 0.0
C428 C 0.4549 0.87566 0.88804 0.0
C429 C 0.4034 0.84343 0.89455 0.0
H430 H 0.38897 0.83761 0.88448 0.0
H431 H 0.40841 0.82679 0.8962 0.0
H432 H 0.39287 0.84507 0.9052 0.0
O433 O 0.41066 0.92312 0.91735 0.0
O434 O 0.45244 0.9582 0.91177 0.0
H435 H 0.5099 0.93627 0.89438 0.0
H436 H 0.51098 0.90746 0.88567 0.0
C437 C 0.5014 0.92062 0.8849 0.0
H438 H 0.50691 0.93147 0.87344 0.0
H439 H 0.51036 0.98563 0.9113 0.0
O440 O 0.36468 0.86942 0.89803 0.0
C441 C 0.43228 0.94551 0.92123 0.0
Co442 Co 0.09852 0.49911 0.89571 0.0
Co443 Co 0.0492 0.51023 0.89029 0.0
C444 C 0.05149 0.46448 0.87363 0.0
O445 O 0.07403 0.47042 0.88048 0.0
O446 O 0.03964 0.47855 0.87604 0.0
C447 C 0.14334 0.49283 0.88488 0.0
O448 O 0.12955 0.48701 0.8716 0.0
C449 C 0.01369 0.52807 0.87429 0.0
C450 C 0.99611 0.53845 0.89468 0.0
C451 C 0.99641 0.5383 0.87839 0.0
N452 N 0.02344 0.52293 0.88757 0.0
N453 N 0.01266 0.529 0.89969 0.0
C454 C 0.02008 0.52226 0.85811 0.0
H455 H 0.02575 0.50594 0.85845 0.0
H456 H 0.03787 0.54117 0.85324 0.0
H457 H 1.00212 0.51585 0.85019 0.0
C458 C 0.13062 0.5585 0.88792 0.0
N459 N 0.1064 0.53476 0.8893 0.0
N460 N 0.08601 0.53984 0.88739 0.0
C461 C 0.09674 0.56719 0.88502 0.0
C462 C 0.12531 0.57978 0.88511 0.0
C463 C 0.15823 0.56119 0.89094 0.0
H464 H 0.15768 0.55091 0.90219 0.0
H465 H 0.16295 0.55074 0.88136 0.0
H466 H 0.17488 0.58309 0.89148 0.0
O467 O 0.0804 0.49031 0.91673 0.0
O468 O 0.04467 0.49641 0.91208 0.0
H469 H 0.06592 0.57569 0.89379 0.0
H470 H 0.09335 0.60401 0.88302 0.0
C471 C 0.08008 0.58126 0.8836 0.0
H472 H 0.06749 0.57414 0.87276 0.0
H473 H 0.01689 0.52701 0.91141 0.0
O474 O 0.13355 0.49822 0.897 0.0
C475 C 0.05831 0.4896 0.92122 0.0
Co476 Co 0.5065 0.60197 0.89592 0.0
Co477 Co 0.49194 0.54072 0.88973 0.0
C478 C 0.53821 0.58741 0.87271 0.0
O479 O 0.53361 0.60459 0.88 0.0
O480 O 0.5233 0.56151 0.875 0.0
C481 C 0.51625 0.65528 0.88633 0.0
O482 O 0.52255 0.6483 0.87287 0.0
C483 C 0.47139 0.48674 0.87412 0.0
C484 C 0.45878 0.45896 0.89471 0.0
C485 C 0.45934 0.45911 0.87842 0.0
N486 N 0.47742 0.502 0.88729 0.0
N487 N 0.4701 0.48527 0.89953 0.0
C488 C 0.47505 0.49848 0.85792 0.0
H489 H 0.47667 0.51907 0.85834 0.0
H490 H 0.45757 0.48441 0.85025 0.0
H491 H 0.49441 0.50098 0.85281 0.0
C492 C 0.44684 0.57733 0.88927 0.0
N493 N 0.46992 0.5755 0.89003 0.0
N494 N 0.46358 0.54984 0.88731 0.0
C495 C 0.43613 0.53448 0.88478 0.0
C496 C 0.42465 0.55142 0.88593 0.0
C497 C 0.44615 0.60343 0.89187 0.0
H498 H 0.45455 0.6118 0.9037 0.0
H499 H 0.45945 0.61889 0.883 0.0
H500 H 0.42502 0.60027 0.89079 0.0
O501 O 0.51586 0.59199 0.91654 0.0
O502 O 0.50629 0.54921 0.91144 0.0
H503 H 0.42663 0.4944 0.89274 0.0
H504 H 0.39811 0.49508 0.88334 0.0
C505 C 0.42078 0.50375 0.88307 0.0
H506 H 0.4265 0.49812 0.87175 0.0
H507 H 0.47222 0.49178 0.91121 0.0
O508 O 0.50934 0.63871 0.8979 0.0
C509 C 0.51484 0.56965 0.92077 0.0
Co510 Co 0.57195 0.73386 0.43558 0.0
Co511 Co 0.61947 0.7949 0.44114 0.0
C512 C 0.61891 0.74864 0.45848 0.0
O513 O 0.59684 0.7316 0.45137 0.0
O514 O 0.63022 0.77451 0.45602 0.0
C515 C 0.52574 0.6866 0.44786 0.0
O516 O 0.53592 0.70059 0.46093 0.0
C517 C 0.655 0.8492 0.45596 0.0
C518 C 0.66798 0.87649 0.43515 0.0
C519 C 0.6703 0.87674 0.45139 0.0
N520 N 0.64414 0.83366 0.44302 0.0
N521 N 0.65225 0.85008 0.43062 0.0
C522 C 0.64862 0.83781 0.47231 0.0
H523 H 0.62959 0.81725 0.4724 0.0
H524 H 0.64604 0.85205 0.48029 0.0
H525 H 0.66594 0.83535 0.47669 0.0
C526 C 0.53783 0.75993 0.44202 0.0
N527 N 0.56241 0.76097 0.44118 0.0
N528 N 0.58224 0.78647 0.44383 0.0
C529 C 0.57081 0.8024 0.44646 0.0
C530 C 0.54234 0.78604 0.4455 0.0
C531 C 0.51072 0.73524 0.43784 0.0
H532 H 0.51347 0.72348 0.42822 0.0
H533 H 0.50232 0.72173 0.44831 0.0
H534 H 0.49552 0.74135 0.43409 0.0
O535 O 0.59043 0.74263 0.41471 0.0
O536 O 0.62438 0.78523 0.4195 0.0
H537 H 0.60013 0.84332 0.43908 0.0
H538 H 0.57305 0.84145 0.45154 0.0
C539 C 0.5868 0.83282 0.44938 0.0
H540 H 0.60019 0.83701 0.45979 0.0
H541 H 0.64648 0.84331 0.41908 0.0
O542 O 0.53819 0.69687 0.43497 0.0
C543 C 0.61198 0.76464 0.41031 0.0
Co544 Co 0.26797 0.83708 0.43547 0.0
Co545 Co 0.2075 0.82569 0.44119 0.0
C546 C 0.25531 0.8711 0.45801 0.0
O547 O 0.27187 0.86525 0.45102 0.0
O548 O 0.22941 0.85711 0.45559 0.0
C549 C 0.31491 0.83708 0.44743 0.0
O550 O 0.30146 0.8342 0.46061 0.0
C551 C 0.15393 0.8081 0.45704 0.0
C552 C 0.12604 0.7966 0.43655 0.0
C553 C 0.12641 0.79745 0.45282 0.0
N554 N 0.16893 0.81279 0.44383 0.0
N555 N 0.15211 0.80606 0.43165 0.0
C556 C 0.16599 0.8147 0.47325 0.0
H557 H 0.18779 0.83142 0.4729 0.0
H558 H 0.16535 0.79619 0.4784 0.0
H559 H 0.15401 0.82091 0.48095 0.0
C560 C 0.24039 0.77706 0.44237 0.0
N561 N 0.24016 0.80101 0.44145 0.0
N562 N 0.21484 0.79609 0.44388 0.0
C563 C 0.19819 0.76877 0.44635 0.0
C564 C 0.21392 0.75596 0.44564 0.0
C565 C 0.26464 0.77377 0.43834 0.0
H566 H 0.27644 0.78767 0.4285 0.0
H567 H 0.27829 0.77915 0.44876 0.0
H568 H 0.25805 0.75219 0.43496 0.0
O569 O 0.25883 0.84635 0.41457 0.0
O570 O 0.21692 0.83991 0.41942 0.0
H571 H 0.15815 0.7594 0.43842 0.0
H572 H 0.15817 0.73233 0.45004 0.0
C573 C 0.16763 0.75498 0.44864 0.0
H574 H 0.16317 0.76337 0.45932 0.0
H575 H 0.15839 0.80759 0.41996 0.0
O576 O 0.30442 0.83906 0.43457 0.0
C577 C 0.23734 0.84698 0.41021 0.0
Co578 Co 0.16611 0.43211 0.43501 0.0
Co579 Co 0.17803 0.38355 0.44142 0.0
C580 C 0.1328 0.38606 0.45816 0.0
O581 O 0.13827 0.40804 0.45081 0.0
O582 O 0.14699 0.37429 0.45601 0.0
C583 C 0.16557 0.47883 0.44673 0.0
O584 O 0.16862 0.46846 0.45994 0.0
C585 C 0.19566 0.34727 0.457 0.0
C586 C 0.20861 0.33257 0.43634 0.0
C587 C 0.20694 0.33104 0.45259 0.0
N588 N 0.1914 0.35824 0.44393 0.0
N589 N 0.199 0.34914 0.43165 0.0
C590 C 0.18811 0.35154 0.47323 0.0
H591 H 0.17087 0.35587 0.47284 0.0
H592 H 0.20608 0.36952 0.47872 0.0
H593 H 0.18218 0.3331 0.48066 0.0
C594 C 0.2262 0.4651 0.44178 0.0
N595 N 0.20235 0.44082 0.44093 0.0
N596 N 0.20742 0.42062 0.44375 0.0
C597 C 0.2347 0.43152 0.44644 0.0
C598 C 0.24737 0.46002 0.44541 0.0
C599 C 0.22929 0.49246 0.43749 0.0
H600 H 0.21525 0.49001 0.42765 0.0
H601 H 0.22391 0.50094 0.44782 0.0
H602 H 0.25082 0.50742 0.434 0.0
O603 O 0.15656 0.41312 0.41427 0.0
O604 O 0.16313 0.37796 0.41981 0.0
H605 H 0.24542 0.40147 0.43925 0.0
H606 H 0.27095 0.42834 0.45168 0.0
C607 C 0.24852 0.41499 0.44949 0.0
H608 H 0.23904 0.40175 0.45992 0.0
H609 H 0.19795 0.35456 0.42003 0.0
O610 O 0.16376 0.46635 0.4339 0.0
C611 C 0.15581 0.39076 0.41035 0.0
C612 C 0.43374 0.43819 0.14514 0.0
C613 C 0.43601 0.45241 0.1311 0.0
C614 C 0.40961 0.42722 0.15414 0.0
C615 C 0.33538 0.40276 0.15078 0.0
H616 H 0.33847 0.40905 0.19622 0.0
C617 C 0.23724 0.36457 0.18906 0.0
C618 C 0.23651 0.3514 0.20325 0.0
C619 C 0.26152 0.37767 0.18015 0.0
C620 C 0.33723 0.40683 0.18355 0.0
H621 H 0.41463 0.46603 0.11543 0.0
H622 H 0.37254 0.44686 0.13111 0.0
H623 H 0.38115 0.43064 0.18105 0.0
H624 H 0.26056 0.34162 0.21925 0.0
H625 H 0.30261 0.36397 0.20367 0.0
H626 H 0.29151 0.3786 0.15326 0.0
C627 C 0.38941 0.44421 0.13517 0.0
C628 C 0.36171 0.41926 0.17486 0.0
C629 C 0.41357 0.45527 0.12623 0.0
C630 C 0.26052 0.35169 0.20838 0.0
C631 C 0.28468 0.36464 0.19948 0.0
C632 C 0.31089 0.39021 0.15946 0.0
C633 C 0.38711 0.42993 0.14918 0.0
C634 C 0.36107 0.41728 0.15839 0.0
C635 C 0.28556 0.37792 0.18529 0.0
C636 C 0.31152 0.39196 0.17597 0.0
H637 H 0.45007 0.43455 0.14895 0.0
H638 H 0.40826 0.41586 0.16473 0.0
H639 H 0.33423 0.40056 0.1381 0.0
H640 H 0.21935 0.3654 0.18501 0.0
H641 H 0.2616 0.3881 0.16941 0.0
C642 C 0.65612 0.91312 0.20679 0.0
C643 C 0.65606 0.88913 0.20189 0.0
C644 C 0.64299 0.92412 0.19787 0.0
C645 C 0.61513 0.92284 0.15815 0.0
H646 H 0.57589 0.95358 0.18014 0.0
C647 C 0.54712 0.95808 0.12588 0.0
C648 C 0.55028 0.98364 0.13046 0.0
C649 C 0.55902 0.94562 0.13467 0.0
C650 C 0.58693 0.94526 0.17384 0.0
H651 H 0.64144 0.85736 0.18399 0.0
H652 H 0.61833 0.87646 0.16837 0.0
H653 H 0.59861 0.93346 0.19511 0.0
H654 H 0.56961 0.01668 0.14758 0.0
H655 H 0.58967 0.99463 0.16313 0.0
H656 H 0.6032 0.93453 0.13686 0.0
C657 C 0.62917 0.88721 0.17894 0.0
C658 C 0.60003 0.93378 0.18241 0.0
C659 C 0.64251 0.87629 0.18785 0.0
C660 C 0.56569 0.99649 0.14404 0.0
C661 C 0.57745 0.98395 0.15289 0.0
C662 C 0.60188 0.93419 0.14958 0.0
C663 C 0.62912 0.91119 0.18389 0.0
C664 C 0.61449 0.92263 0.17469 0.0
C665 C 0.57441 0.95847 0.14824 0.0
C666 C 0.58779 0.94568 0.15733 0.0
H667 H 0.6665 0.92355 0.21754 0.0
H668 H 0.64385 0.94289 0.2019 0.0
H669 H 0.62637 0.91479 0.15182 0.0
H670 H 0.53549 0.9477 0.11542 0.0
H671 H 0.5561 0.92587 0.13086 0.0
C672 C 0.02808 0.56768 0.14444 0.0
C673 C 0.01594 0.56722 0.12991 0.0
C674 C 0.04117 0.59198 0.15333 0.0
C675 C 0.07234 0.6679 0.14935 0.0
H676 H 0.06521 0.66595 0.19474 0.0
C677 C 0.10521 0.76554 0.18694 0.0
C678 C 0.11932 0.76787 0.20103 0.0
C679 C 0.09381 0.74118 0.17814 0.0
C680 C 0.06763 0.66679 0.18208 0.0
H681 H 0.00775 0.5917 0.11335 0.0
H682 H 0.02995 0.63376 0.12892 0.0
H683 H 0.04252 0.62296 0.17983 0.0
H684 H 0.13221 0.74629 0.21703 0.0
H685 H 0.11222 0.70375 0.2017 0.0
H686 H 0.09708 0.71178 0.1516 0.0
C687 C 0.02992 0.61562 0.13338 0.0
C688 C 0.05466 0.64215 0.17353 0.0
C689 C 0.01703 0.59145 0.12449 0.0
C690 C 0.12158 0.74521 0.20617 0.0
C691 C 0.11005 0.7208 0.19744 0.0
C692 C 0.08515 0.69252 0.15788 0.0
C693 C 0.04238 0.6163 0.14785 0.0
C694 C 0.05673 0.6424 0.15705 0.0
C695 C 0.09593 0.71848 0.18336 0.0
C696 C 0.08286 0.69225 0.17433 0.0
H697 H 0.02824 0.54957 0.14874 0.0
H698 H 0.05092 0.59186 0.1643 0.0
H699 H 0.07487 0.66886 0.1367 0.0
H700 H 0.10197 0.78202 0.18293 0.0
H701 H 0.08258 0.73982 0.16749 0.0
C702 C 0.42391 0.41 0.87367 0.0
C703 C 0.44741 0.4341 0.86844 0.0
C704 C 0.41291 0.38575 0.86486 0.0
C705 C 0.41249 0.35884 0.82507 0.0
H706 H 0.38472 0.28941 0.8473 0.0
C707 C 0.37663 0.2557 0.79271 0.0
C708 C 0.35171 0.23302 0.79784 0.0
C709 C 0.38945 0.2801 0.80144 0.0
C710 C 0.3922 0.30861 0.84094 0.0
H711 H 0.47831 0.45141 0.85006 0.0
H712 H 0.4591 0.40901 0.83461 0.0
H713 H 0.40499 0.33248 0.86207 0.0
H714 H 0.32023 0.21872 0.81595 0.0
H715 H 0.34287 0.26098 0.83136 0.0
H716 H 0.39972 0.33487 0.80393 0.0
C717 C 0.44878 0.40907 0.84537 0.0
C718 C 0.40377 0.33331 0.84939 0.0
C719 C 0.45974 0.43343 0.85418 0.0
C720 C 0.33992 0.23527 0.81195 0.0
C721 C 0.35281 0.25965 0.82073 0.0
C722 C 0.40101 0.33413 0.81661 0.0
C723 C 0.42532 0.38488 0.85067 0.0
C724 C 0.41385 0.35872 0.84157 0.0
C725 C 0.37759 0.28242 0.8155 0.0
C726 C 0.39058 0.30873 0.82446 0.0
H727 H 0.41388 0.4099 0.88458 0.0
H728 H 0.39453 0.3677 0.86916 0.0
H729 H 0.41971 0.37799 0.81869 0.0
H730 H 0.38618 0.25465 0.78185 0.0
H731 H 0.40867 0.29717 0.79718 0.0
C732 C 0.76805 0.12625 0.81169 0.0
C733 C 0.76873 0.11347 0.79762 0.0
C734 C 0.74375 0.1154 0.82056 0.0
C735 C 0.66802 0.0695 0.81683 0.0
H736 H 0.66988 0.06737 0.86236 0.0
C737 C 0.57042 0.00592 0.85459 0.0
C738 C 0.56781 0.01824 0.86838 0.0
C739 C 0.59484 0.01874 0.84583 0.0
C740 C 0.66906 0.06811 0.84965 0.0
H741 H 0.74466 0.07921 0.78189 0.0
H742 H 0.7026 0.06004 0.79742 0.0
H743 H 0.71297 0.08731 0.84754 0.0
H744 H 0.5889 0.0535 0.8839 0.0
H745 H 0.63152 0.07584 0.86863 0.0
H746 H 0.62409 0.04993 0.81895 0.0
C747 C 0.72057 0.0787 0.80152 0.0
C748 C 0.69375 0.07956 0.84116 0.0
C749 C 0.74474 0.0896 0.79265 0.0
C750 C 0.59022 0.04355 0.87328 0.0
C751 C 0.61467 0.05629 0.86458 0.0
C752 C 0.64336 0.05795 0.82531 0.0
C753 C 0.71965 0.09158 0.81551 0.0
C754 C 0.69352 0.08023 0.82464 0.0
C755 C 0.6173 0.04397 0.85079 0.0
C756 C 0.64358 0.05699 0.84181 0.0
H757 H 0.78596 0.14508 0.81561 0.0
H758 H 0.74366 0.12608 0.83116 0.0
H759 H 0.66709 0.07018 0.80413 0.0
H760 H 0.55413 0.98592 0.85081 0.0
H761 H 0.59643 0.00845 0.83543 0.0
C762 C 0.99398 0.56286 0.8542 0.0
C763 C 0.98197 0.54855 0.86821 0.0
C764 C 0.9809 0.57392 0.84524 0.0
C765 C 0.93103 0.5983 0.8485 0.0
H766 H 0.92929 0.59314 0.80301 0.0
C767 C 0.87305 0.63806 0.80959 0.0
C768 C 0.88631 0.65175 0.79566 0.0
C769 C 0.88366 0.62456 0.81861 0.0
C770 C 0.92984 0.59502 0.8157 0.0
H771 H 0.94701 0.53495 0.8839 0.0
H772 H 0.92412 0.55422 0.86822 0.0
H773 H 0.94963 0.57094 0.81827 0.0
H774 H 0.92104 0.66208 0.78027 0.0
H775 H 0.9397 0.63898 0.79605 0.0
H776 H 0.91158 0.6227 0.84592 0.0
C777 C 0.94365 0.55687 0.86417 0.0
C778 C 0.94147 0.58225 0.82444 0.0
C779 C 0.9567 0.54574 0.8731 0.0
C780 C 0.91029 0.65161 0.79092 0.0
C781 C 0.92092 0.63825 0.79993 0.0
C782 C 0.91947 0.61116 0.83975 0.0
C783 C 0.95567 0.57119 0.85017 0.0
C784 C 0.94237 0.5839 0.84093 0.0
C785 C 0.90767 0.62441 0.81385 0.0
C786 C 0.91895 0.60986 0.82324 0.0
H787 H 0.01396 0.56649 0.85041 0.0
H788 H 0.99098 0.58535 0.83468 0.0
H789 H 0.93173 0.60024 0.86118 0.0
H790 H 0.85411 0.63709 0.81332 0.0
H791 H 0.87271 0.61374 0.82914 0.0
C792 C 0.76145 0.6751 0.80536 0.0
C793 C 0.77275 0.70288 0.80089 0.0
C794 C 0.73585 0.66123 0.81296 0.0
C795 C 0.67232 0.66541 0.81816 0.0
H796 H 0.656 0.61226 0.85155 0.0
C797 C 0.57696 0.62621 0.85806 0.0
C798 C 0.5627 0.59818 0.86231 0.0
C799 C 0.60159 0.63723 0.8496 0.0
C800 C 0.66015 0.62678 0.84208 0.0
H801 H 0.76672 0.73827 0.80177 0.0
H802 H 0.72264 0.71438 0.81531 0.0
H803 H 0.70186 0.63548 0.8396 0.0
H804 H 0.56285 0.55957 0.86059 0.0
H805 H 0.60607 0.57896 0.84579 0.0
H806 H 0.63082 0.6571 0.82083 0.0
C807 C 0.73307 0.70301 0.81252 0.0
C808 C 0.68643 0.64011 0.83525 0.0
C809 C 0.7585 0.71679 0.80486 0.0
C810 C 0.57329 0.58124 0.8575 0.0
C811 C 0.59814 0.59237 0.84913 0.0
C812 C 0.64616 0.65221 0.82503 0.0
C813 C 0.72108 0.67488 0.81633 0.0
C814 C 0.69294 0.65986 0.82333 0.0
C815 C 0.6127 0.62056 0.84525 0.0
C816 C 0.63986 0.63298 0.83719 0.0
H817 H 0.77186 0.66376 0.80244 0.0
H818 H 0.72718 0.63955 0.81568 0.0
H819 H 0.67635 0.67997 0.80874 0.0
H820 H 0.56941 0.63986 0.86155 0.0
H821 H 0.61242 0.65908 0.84691 0.0
C822 C 0.41868 0.98985 0.85792 0.0
C823 C 0.4023 0.96238 0.86296 0.0
C824 C 0.40687 0.00303 0.84969 0.0
C825 C 0.34612 0.99017 0.82624 0.0
H826 H 0.36285 0.06263 0.84071 0.0
C827 C 0.28265 0.03891 0.80517 0.0
C828 C 0.29692 0.06718 0.80148 0.0
C829 C 0.29594 0.02687 0.81299 0.0
C830 C 0.3582 0.04257 0.83638 0.0
H831 H 0.3609 0.92689 0.8627 0.0
H832 H 0.34047 0.9498 0.84824 0.0
H833 H 0.38618 0.04015 0.85263 0.0
H834 H 0.33616 0.10516 0.80361 0.0
H835 H 0.35951 0.08405 0.81702 0.0
H836 H 0.31834 0.99252 0.80992 0.0
C837 C 0.3624 0.96117 0.85068 0.0
C838 C 0.37159 0.0297 0.84321 0.0
C839 C 0.37411 0.94807 0.85903 0.0
C840 C 0.32454 0.08334 0.80631 0.0
C841 C 0.33792 0.07122 0.81404 0.0
C842 C 0.33287 0.00308 0.81935 0.0
C843 C 0.37853 0.98892 0.84616 0.0
C844 C 0.36551 0.00326 0.8383 0.0
C845 C 0.32392 0.04272 0.8172 0.0
C846 C 0.33852 0.02933 0.82443 0.0
H847 H 0.44045 0.00148 0.86075 0.0
H848 H 0.41987 0.02435 0.84618 0.0
H849 H 0.34128 0.96995 0.82207 0.0
H850 H 0.26128 0.02589 0.80177 0.0
H851 H 0.2843 0.00501 0.81559 0.0
C852 C 0.0103 0.42837 0.85887 0.0
C853 C 0.03798 0.43957 0.86355 0.0
C854 C 0.99686 0.40337 0.85067 0.0
C855 C 0.00943 0.35601 0.82653 0.0
H856 H 0.93739 0.2997 0.84124 0.0
C857 C 0.96199 0.24409 0.8056 0.0
C858 C 0.93373 0.22971 0.80187 0.0
C859 C 0.97366 0.26939 0.81339 0.0
C860 C 0.95733 0.31529 0.83685 0.0
H861 H 0.07349 0.43371 0.86274 0.0
H862 H 0.05014 0.39035 0.84835 0.0
H863 H 0.95979 0.3454 0.85334 0.0
H864 H 0.89536 0.23024 0.80395 0.0
H865 H 0.91586 0.27472 0.81739 0.0
H866 H 0.00707 0.32617 0.81 0.0
C867 C 0.03881 0.40087 0.85105 0.0
C868 C 0.97015 0.34148 0.84378 0.0
C869 C 0.05216 0.42568 0.85936 0.0
C870 C 0.91719 0.24075 0.80668 0.0
C871 C 0.92895 0.26624 0.81441 0.0
C872 C 0.99658 0.32994 0.81955 0.0
C873 C 0.01092 0.38922 0.84681 0.0
C874 C 0.99648 0.36201 0.8388 0.0
C875 C 0.95744 0.28113 0.81757 0.0
C876 C 0.97053 0.30912 0.82475 0.0
H877 H 0.99876 0.43852 0.86192 0.0
H878 H 0.97543 0.39503 0.8474 0.0
H879 H 0.02953 0.37154 0.82227 0.0
H880 H 0.9753 0.23606 0.80224 0.0
H881 H 0.99552 0.2799 0.81601 0.0
C882 C 0.71852 0.76004 0.19117 0.0
C883 C 0.70451 0.77395 0.19565 0.0
C884 C 0.70505 0.7355 0.18263 0.0
C885 C 0.63635 0.67644 0.17541 0.0
H886 H 0.6732 0.66112 0.14159 0.0
C887 C 0.58395 0.57511 0.1388 0.0
C888 C 0.60068 0.56417 0.13416 0.0
C889 C 0.59551 0.60073 0.14635 0.0
C890 C 0.66273 0.66492 0.15114 0.0
H891 H 0.66548 0.77331 0.19429 0.0
H892 H 0.64186 0.73021 0.17935 0.0
H893 H 0.69549 0.70664 0.15369 0.0
H894 H 0.64239 0.57092 0.13463 0.0
H895 H 0.66229 0.61506 0.14808 0.0
H896 H 0.60379 0.63451 0.17305 0.0
C897 C 0.66328 0.73836 0.18256 0.0
C898 C 0.67546 0.69106 0.15802 0.0
C899 C 0.67688 0.76313 0.191 0.0
C900 C 0.62894 0.57884 0.13787 0.0
C901 C 0.64041 0.6043 0.14548 0.0
C902 C 0.62363 0.65018 0.16857 0.0
C903 C 0.67717 0.72414 0.17844 0.0
C904 C 0.66258 0.69703 0.17034 0.0
C905 C 0.62399 0.61589 0.14949 0.0
C906 C 0.63684 0.644 0.15648 0.0
H907 H 0.73982 0.76779 0.19453 0.0
H908 H 0.71625 0.72493 0.17976 0.0
H909 H 0.62604 0.68034 0.18502 0.0
H910 H 0.56212 0.56437 0.13609 0.0
H911 H 0.58227 0.60909 0.14922 0.0
C912 C 0.24346 0.96209 0.19296 0.0
C913 C 0.22921 0.93375 0.19648 0.0
C914 C 0.26876 0.97403 0.18512 0.0
C915 C 0.31482 0.95817 0.16134 0.0
H916 H 0.37117 0.03003 0.17625 0.0
C917 C 0.42814 0.01047 0.13982 0.0
C918 C 0.43957 0.03818 0.13517 0.0
C919 C 0.40306 0.99718 0.14797 0.0
C920 C 0.35561 0.01003 0.17191 0.0
H921 H 0.22997 0.89556 0.19397 0.0
H922 H 0.27435 0.9165 0.1805 0.0
H923 H 0.32561 0.00766 0.18834 0.0
H924 H 0.43408 0.07391 0.136 0.0
H925 H 0.39063 0.05083 0.1503 0.0
H926 H 0.34509 0.96061 0.14497 0.0
C927 C 0.26581 0.92945 0.18365 0.0
C928 C 0.32943 0.99724 0.17877 0.0
C929 C 0.24036 0.91744 0.19142 0.0
C930 C 0.42588 0.05255 0.13937 0.0
C931 C 0.401 0.03936 0.14763 0.0
C932 C 0.34111 0.97092 0.15453 0.0
C933 C 0.28059 0.95801 0.18068 0.0
C934 C 0.30859 0.97127 0.17347 0.0
C935 C 0.38908 0.01142 0.15181 0.0
C936 C 0.36171 0.9971 0.15965 0.0
H937 H 0.23535 0.97523 0.19654 0.0
H938 H 0.27921 0.99595 0.18267 0.0
H939 H 0.29923 0.93831 0.15685 0.0
H940 H 0.43813 0.99878 0.13676 0.0
H941 H 0.39451 0.97571 0.1512 0.0
C942 C 0.04342 0.28384 0.19192 0.0
C943 C 0.07143 0.29819 0.19622 0.0
C944 C 0.03182 0.29708 0.18363 0.0
C945 C 0.04041 0.36556 0.17683 0.0
H946 H 0.98813 0.32882 0.14305 0.0
C947 C 0.99218 0.41852 0.14019 0.0
C948 C 0.96468 0.40198 0.13524 0.0
C949 C 0.00591 0.40675 0.1479 0.0
C950 C 0.0024 0.33925 0.15261 0.0
H951 H 0.10942 0.33758 0.19476 0.0
H952 H 0.08903 0.36075 0.18026 0.0
H953 H 0.01149 0.30655 0.15502 0.0
H954 H 0.92958 0.36036 0.13534 0.0
H955 H 0.95319 0.34006 0.14909 0.0
H956 H 0.03096 0.39807 0.1746 0.0
C957 C 0.07607 0.33926 0.18343 0.0
C958 C 0.01589 0.32652 0.1594 0.0
C959 C 0.08778 0.32592 0.19162 0.0
C960 C 0.95085 0.37368 0.13883 0.0
C961 C 0.96448 0.36197 0.14661 0.0
C962 C 0.02678 0.37826 0.17008 0.0
C963 C 0.04789 0.32505 0.17952 0.0
C964 C 0.03488 0.33941 0.17167 0.0
C965 C 0.99238 0.37821 0.1509 0.0
C966 C 0.0074 0.36514 0.15798 0.0
H967 H 0.03022 0.26246 0.19525 0.0
H968 H 0.01 0.28563 0.1809 0.0
H969 H 0.0547 0.37586 0.1864 0.0
H970 H 0.00348 0.44039 0.13757 0.0
H971 H 0.02742 0.41986 0.15097 0.0
C972 C 0.09935 0.77328 0.47705 0.0
C973 C 0.10165 0.78732 0.46294 0.0
C974 C 0.07515 0.76226 0.48596 0.0
C975 C 1.00079 0.73787 0.48247 0.0
H976 H 0.00394 0.74233 0.52798 0.0
C977 C 0.90292 0.69768 0.5214 0.0
C978 C 0.90226 0.68322 0.53505 0.0
C979 C 0.92709 0.71147 0.51245 0.0
C980 C 0.0027 0.74068 0.51528 0.0
H981 H 0.08028 0.80051 0.44701 0.0
H982 H 0.03804 0.78141 0.46261 0.0
H983 H 0.04658 0.76474 0.51281 0.0
H984 H 0.92647 0.67203 0.55005 0.0
H985 H 0.96838 0.69579 0.53444 0.0
H986 H 0.95689 0.71356 0.48498 0.0
C987 C 0.05493 0.77888 0.46678 0.0
C988 C 0.02714 0.75355 0.50659 0.0
C989 C 0.07916 0.78994 0.45789 0.0
C990 C 0.92631 0.68304 0.53961 0.0
C991 C 0.95039 0.69677 0.5307 0.0
C992 C 0.97631 0.72497 0.49118 0.0
C993 C 0.05259 0.76479 0.48089 0.0
C994 C 0.0265 0.75211 0.49009 0.0
C995 C 0.95114 0.71124 0.51703 0.0
C996 C 0.977 0.726 0.5077 0.0
H997 H 0.11576 0.76984 0.48097 0.0
H998 H 0.0738 0.751 0.49659 0.0
H999 H 0.99959 0.73606 0.46978 0.0
H1000 H 0.88506 0.69899 0.51783 0.0
H1001 H 0.92711 0.72279 0.50211 0.0
C1002 C 0.21514 0.2916 0.45699 0.0
C1003 C 0.21695 0.31611 0.46253 0.0
C1004 C 0.22617 0.27823 0.46572 0.0
C1005 C 0.24957 0.27345 0.50563 0.0
H1006 H 0.29243 0.24658 0.48386 0.0
C1007 C 0.31973 0.24315 0.5389 0.0
C1008 C 0.32051 0.21961 0.53394 0.0
C1009 C 0.30622 0.25369 0.52995 0.0
C1010 C 0.28022 0.25363 0.49009 0.0
H1011 H 0.23297 0.34647 0.48125 0.0
H1012 H 0.25172 0.32294 0.4966 0.0
H1013 H 0.2699 0.26696 0.46884 0.0
H1014 H 0.30688 0.18813 0.51589 0.0
H1015 H 0.2834 0.20669 0.50013 0.0
H1016 H 0.25995 0.2603 0.52687 0.0
C1017 C 0.24112 0.31365 0.4857 0.0
C1018 C 0.26731 0.2653 0.48149 0.0
C1019 C 0.23015 0.32704 0.47695 0.0
C1020 C 0.30738 0.20675 0.51981 0.0
C1021 C 0.29379 0.21731 0.51082 0.0
C1022 C 0.26242 0.26175 0.51421 0.0
C1023 C 0.2394 0.28917 0.48014 0.0
C1024 C 0.25206 0.27559 0.48918 0.0
C1025 C 0.29292 0.24083 0.51585 0.0
C1026 C 0.27816 0.25198 0.50657 0.0
H1027 H 0.20524 0.28277 0.44586 0.0
H1028 H 0.2243 0.25928 0.46117 0.0
H1029 H 0.23758 0.28074 0.51188 0.0
H1030 H 0.32974 0.25361 0.54971 0.0
H1031 H 0.30639 0.27211 0.53403 0.0
C1032 C 0.6853 0.92627 0.45595 0.0
C1033 C 0.68445 0.90202 0.46114 0.0
C1034 C 0.69897 0.95055 0.4647 0.0
C1035 C 0.72448 0.97686 0.50452 0.0
H1036 H 0.76767 0.04658 0.48281 0.0
C1037 C 0.78854 0.07905 0.5382 0.0
C1038 C 0.78732 0.10205 0.53263 0.0
C1039 C 0.77789 0.05492 0.52926 0.0
C1040 C 0.75551 0.02731 0.48904 0.0
H1041 H 0.69845 0.88468 0.4793 0.0
H1042 H 0.72207 0.92704 0.49473 0.0
H1043 H 0.74534 0.00374 0.46779 0.0
H1044 H 0.77307 0.11737 0.51351 0.0
H1045 H 0.75473 0.07545 0.49784 0.0
H1046 H 0.7344 1.00044 0.52575 0.0
C1047 C 0.71159 0.92704 0.48402 0.0
C1048 C 0.7427 0.00276 0.48044 0.0
C1049 C 0.69788 0.90268 0.47523 0.0
C1050 C 0.7753 0.10045 0.51789 0.0
C1051 C 0.7646 0.0763 0.50894 0.0
C1052 C 0.73727 0.00143 0.51313 0.0
C1053 C 0.71233 0.95128 0.47883 0.0
C1054 C 0.72686 0.97726 0.48806 0.0
C1055 C 0.76553 0.05315 0.51459 0.0
C1056 C 0.75279 0.02697 0.50548 0.0
H1057 H 0.67512 0.92644 0.44515 0.0
H1058 H 0.69878 0.96871 0.46048 0.0
H1059 H 0.71213 0.95761 0.51074 0.0
H1060 H 0.79762 0.07966 0.54955 0.0
H1061 H 0.77926 0.03761 0.53388 0.0
C1062 C 0.38623 0.0914 0.52638 0.0
C1063 C 0.37229 0.10579 0.52992 0.0
C1064 C 0.37274 0.06609 0.51858 0.0
C1065 C 0.31082 0.02025 0.49482 0.0
H1066 H 0.32652 0.9639 0.50952 0.0
C1067 C 0.25039 0.9072 0.47286 0.0
C1068 C 0.26678 0.8959 0.46818 0.0
C1069 C 0.26205 0.93219 0.48109 0.0
C1070 C 0.32202 0.97945 0.50523 0.0
H1071 H 0.33341 0.10522 0.52754 0.0
H1072 H 0.30969 0.06075 0.51412 0.0
H1073 H 0.34943 0.00927 0.5218 0.0
H1074 H 0.30806 0.90152 0.46902 0.0
H1075 H 0.32823 0.94487 0.48345 0.0
H1076 H 0.28322 0.99016 0.4783 0.0
C1077 C 0.33119 0.06922 0.51723 0.0
C1078 C 0.33525 0.00553 0.51221 0.0
C1079 C 0.34478 0.09471 0.52496 0.0
C1080 C 0.29483 0.90964 0.47241 0.0
C1081 C 0.3064 0.93445 0.48074 0.0
C1082 C 0.29745 0.99406 0.4879 0.0
C1083 C 0.34487 0.05435 0.51422 0.0
C1084 C 0.33008 0.02638 0.50698 0.0
C1085 C 0.29025 0.94622 0.48496 0.0
C1086 C 0.30313 0.97348 0.49293 0.0
H1087 H 0.40751 0.09944 0.52988 0.0
H1088 H 0.38415 0.05559 0.51609 0.0
H1089 H 0.30654 0.03586 0.49039 0.0
H1090 H 0.22872 0.89716 0.4698 0.0
H1091 H 0.24904 0.94062 0.48434 0.0
C1092 C 0.09702 0.34542 0.47338 0.0
C1093 C 0.10815 0.37295 0.46846 0.0
C1094 C 0.0721 0.3322 0.48167 0.0
C1095 C 0.02477 0.34496 0.50564 0.0
H1096 H 0.96847 0.27293 0.49092 0.0
C1097 C 0.91287 0.29648 0.52724 0.0
C1098 C 0.8986 0.26809 0.5306 0.0
C1099 C 0.93818 0.30854 0.51941 0.0
C1100 C 0.98405 0.29286 0.49532 0.0
H1101 H 0.10235 0.4085 0.46895 0.0
H1102 H 0.05911 0.38553 0.48353 0.0
H1103 H 0.01411 0.2954 0.47877 0.0
H1104 H 0.8994 0.22995 0.52793 0.0
H1105 H 0.94386 0.2511 0.51451 0.0
H1106 H 0.995 0.34247 0.52228 0.0
C1107 C 0.0696 0.37414 0.48094 0.0
C1108 C 0.0102 0.30572 0.48836 0.0
C1109 C 0.09434 0.38727 0.47253 0.0
C1110 C 0.90982 0.25187 0.52548 0.0
C1111 C 0.9353 0.26401 0.51775 0.0
C1112 C 0.99873 0.33204 0.51268 0.0
C1113 C 0.05798 0.34634 0.48537 0.0
C1114 C 0.03075 0.33202 0.49335 0.0
C1115 C 0.95003 0.29259 0.51485 0.0
C1116 C 0.97792 0.30595 0.50751 0.0
H1117 H 0.10711 0.33378 0.47044 0.0
H1118 H 0.06376 0.31085 0.4851 0.0
H1119 H 0.04031 0.36506 0.50988 0.0
H1120 H 0.9047 0.30955 0.53086 0.0
H1121 H 0.94856 0.33048 0.51702 0.0
C1122 C 0.7092 0.6177 0.52541 0.0
C1123 C 0.73747 0.63148 0.52911 0.0
C1124 C 0.69753 0.6315 0.51778 0.0
C1125 C 0.71372 0.69419 0.4948 0.0
H1126 H 0.64193 0.67841 0.51003 0.0
C1127 C 0.66033 0.7543 0.47329 0.0
C1128 C 0.63257 0.73769 0.46879 0.0
C1129 C 0.67396 0.7429 0.48149 0.0
C1130 C 0.66191 0.68295 0.5056 0.0
H1131 H 0.77587 0.67036 0.52707 0.0
H1132 H 0.75539 0.69458 0.5139 0.0
H1133 H 0.66442 0.65512 0.52181 0.0
H1134 H 0.5971 0.69634 0.46996 0.0
H1135 H 0.62076 0.67665 0.4843 0.0
H1136 H 0.71107 0.72211 0.47859 0.0
C1137 C 0.74228 0.67299 0.5168 0.0
C1138 C 0.67478 0.66951 0.51229 0.0
C1139 C 0.75403 0.6591 0.52437 0.0
C1140 C 0.61849 0.70973 0.47321 0.0
C1141 C 0.63202 0.69844 0.4815 0.0
C1142 C 0.70087 0.70776 0.48814 0.0
C1143 C 0.71376 0.65951 0.51373 0.0
C1144 C 0.70067 0.67465 0.50684 0.0
C1145 C 0.66002 0.71476 0.48551 0.0
C1146 C 0.67466 0.70201 0.49335 0.0
H1147 H 0.69587 0.59634 0.52873 0.0
H1148 H 0.67564 0.62025 0.51523 0.0
H1149 H 0.73355 0.6985 0.49023 0.0
H1150 H 0.67179 0.7759 0.47006 0.0
H1151 H 0.69546 0.75604 0.48458 0.0
C1152 C 0.08594 0.27143 0.28297 0.0
C1153 C 0.10084 0.28919 0.27053 0.0
C1154 C 0.0888 0.2817 0.29828 0.0
C1155 C 0.10735 0.34341 0.3213 0.0
H1156 H 0.13358 0.31181 0.35272 0.0
C1157 C 0.14922 0.39573 0.38159 0.0
C1158 C 0.14604 0.37889 0.39456 0.0
C1159 C 0.14141 0.38426 0.36655 0.0
C1160 C 0.12567 0.32058 0.34425 0.0
H1161 H 0.12951 0.33172 0.26421 0.0
H1162 H 0.13386 0.34966 0.29087 0.0
H1163 H 0.1225 0.29204 0.32645 0.0
H1164 H 0.13091 0.33676 0.40216 0.0
H1165 H 0.11601 0.31661 0.37624 0.0
H1166 H 0.10986 0.37158 0.33907 0.0
C1167 C 0.12027 0.32783 0.28879 0.0
C1168 C 0.11947 0.30926 0.32917 0.0
C1169 C 0.11789 0.3175 0.27359 0.0
C1170 C 0.134 0.35031 0.39233 0.0
C1171 C 0.12564 0.33879 0.3774 0.0
C1172 C 0.11303 0.35443 0.3365 0.0
C1173 C 0.10607 0.30997 0.30129 0.0
C1174 C 0.11054 0.32075 0.31753 0.0
C1175 C 0.12971 0.35561 0.36423 0.0
C1176 C 0.12255 0.34334 0.34816 0.0
H1177 H 0.07271 0.24952 0.28096 0.0
H1178 H 0.07765 0.26758 0.30778 0.0
H1179 H 0.10039 0.35253 0.31248 0.0
H1180 H 0.15857 0.41786 0.38299 0.0
H1181 H 0.14526 0.39799 0.35671 0.0
C1182 C 0.72395 0.80113 0.28076 0.0
C1183 C 0.71242 0.812 0.27025 0.0
C1184 C 0.71273 0.79246 0.29579 0.0
C1185 C 0.6495 0.77251 0.31921 0.0
H1186 H 0.69915 0.79378 0.35487 0.0
C1187 C 0.64754 0.7907 0.38972 0.0
C1188 C 0.62321 0.7667 0.39427 0.0
C1189 C 0.65835 0.79312 0.37466 0.0
C1190 C 0.68501 0.7877 0.34502 0.0
H1191 H 0.68001 0.82226 0.26737 0.0
H1192 H 0.66086 0.80759 0.29351 0.0
H1193 H 0.71798 0.80396 0.3283 0.0
H1194 H 0.59128 0.72628 0.38648 0.0
H1195 H 0.6103 0.73053 0.36006 0.0
H1196 H 0.61658 0.75725 0.33597 0.0
C1197 C 0.67824 0.80527 0.29008 0.0
C1198 C 0.6958 0.79326 0.32979 0.0
C1199 C 0.6894 0.81391 0.27511 0.0
C1200 C 0.61001 0.74507 0.38336 0.0
C1201 C 0.62085 0.74754 0.36822 0.0
C1202 C 0.63871 0.76695 0.33445 0.0
C1203 C 0.68974 0.79445 0.30061 0.0
C1204 C 0.67819 0.7862 0.31672 0.0
C1205 C 0.64515 0.77162 0.36371 0.0
C1206 C 0.65638 0.77497 0.34753 0.0
H1207 H 0.74162 0.79927 0.27738 0.0
H1208 H 0.72194 0.78402 0.3036 0.0
H1209 H 0.63536 0.76644 0.30937 0.0
H1210 H 0.65828 0.80784 0.39777 0.0
H1211 H 0.67681 0.81214 0.3715 0.0
C1212 C 0.20278 0.88414 0.27225 0.0
C1213 C 0.19072 0.90067 0.27003 0.0
C1214 C 0.21108 0.88089 0.28718 0.0
C1215 C 0.22339 0.90894 0.32815 0.0
H1216 H 0.21428 0.8372 0.33813 0.0
C1217 C 0.21844 0.86708 0.39105 0.0
C1218 C 0.23575 0.85612 0.39415 0.0
C1219 C 0.21598 0.87491 0.37583 0.0
C1220 C 0.2172 0.85741 0.33543 0.0
H1221 H 0.17805 0.92696 0.28164 0.0
H1222 H 0.19123 0.92025 0.30792 0.0
H1223 H 0.20332 0.84595 0.31183 0.0
H1224 H 0.26417 0.84492 0.38377 0.0
H1225 H 0.25908 0.85782 0.35692 0.0
H1226 H 0.2358 0.91958 0.3522 0.0
C1227 C 0.19517 0.91046 0.29807 0.0
C1228 C 0.21106 0.86256 0.32033 0.0
C1229 C 0.18742 0.9142 0.28303 0.0
C1230 C 0.25075 0.85337 0.38172 0.0
C1231 C 0.2478 0.86065 0.3664 0.0
C1232 C 0.22898 0.90355 0.34336 0.0
C1233 C 0.20692 0.89355 0.30037 0.0
C1234 C 0.21405 0.8884 0.31645 0.0
C1235 C 0.23033 0.87141 0.36335 0.0
C1236 C 0.22591 0.87774 0.3471 0.0
H1237 H 0.20594 0.87376 0.2624 0.0
H1238 H 0.22074 0.86837 0.28832 0.0
H1239 H 0.22647 0.92923 0.3256 0.0
H1240 H 0.20673 0.86958 0.40041 0.0
H1241 H 0.20224 0.88297 0.37373 0.0
C1242 C 0.39096 0.13786 0.61439 0.0
C1243 C 0.38 0.14869 0.60347 0.0
C1244 C 0.37986 0.13068 0.62957 0.0
C1245 C 0.34139 0.14717 0.65831 0.0
H1246 H 0.32556 0.07882 0.67874 0.0
C1247 C 0.31389 0.12846 0.72364 0.0
C1248 C 0.29099 0.10298 0.7279 0.0
C1249 C 0.32493 0.13266 0.70855 0.0
C1250 C 0.32977 0.0979 0.67312 0.0
H1251 H 0.3485 0.16006 0.59991 0.0
H1252 H 0.32944 0.14769 0.62621 0.0
H1253 H 0.34464 0.08869 0.65202 0.0
H1254 H 0.26216 0.0617 0.71965 0.0
H1255 H 0.2816 0.06917 0.69308 0.0
H1256 H 0.32647 0.15644 0.67922 0.0
C1257 C 0.34669 0.14493 0.62312 0.0
C1258 C 0.34092 0.10366 0.65793 0.0
C1259 C 0.3576 0.15192 0.60801 0.0
C1260 C 0.27973 0.08159 0.71673 0.0
C1261 C 0.29094 0.08579 0.70157 0.0
C1262 C 0.33049 0.14153 0.67347 0.0
C1263 C 0.3578 0.13444 0.63411 0.0
C1264 C 0.34671 0.12832 0.65036 0.0
C1265 C 0.31345 0.11151 0.6973 0.0
C1266 C 0.32457 0.11688 0.68105 0.0
H1267 H 0.40813 0.13502 0.61126 0.0
H1268 H 0.38891 0.12277 0.63786 0.0
H1269 H 0.34587 0.16645 0.65284 0.0
H1270 H 0.32328 0.14539 0.73193 0.0
H1271 H 0.34253 0.15256 0.70567 0.0
C1272 C 0.92076 0.19663 0.71712 0.0
C1273 C 0.89914 0.18615 0.72815 0.0
C1274 C 0.91656 0.20312 0.70183 0.0
C1275 C 0.86112 0.18564 0.67319 0.0
H1276 H 0.91349 0.2534 0.6522 0.0
C1277 C 0.85086 0.20391 0.60779 0.0
C1278 C 0.85417 0.22969 0.60356 0.0
C1279 C 0.85771 0.1995 0.62285 0.0
C1280 C 0.89865 0.23447 0.65797 0.0
H1281 H 0.85625 0.17468 0.73177 0.0
H1282 H 0.84908 0.18591 0.70528 0.0
H1283 H 0.92309 0.24413 0.67895 0.0
H1284 H 0.86776 0.27122 0.61184 0.0
H1285 H 0.87969 0.26339 0.63828 0.0
H1286 H 0.83653 0.176 0.65241 0.0
C1287 C 0.86918 0.18889 0.70837 0.0
C1288 C 0.90427 0.22905 0.67318 0.0
C1289 C 0.87338 0.18257 0.7236 0.0
C1290 C 0.86488 0.2511 0.61472 0.0
C1291 C 0.87188 0.24669 0.62982 0.0
C1292 C 0.85561 0.19095 0.65801 0.0
C1293 C 0.89061 0.19903 0.69728 0.0
C1294 C 0.88544 0.20464 0.68097 0.0
C1295 C 0.86813 0.22075 0.63406 0.0
C1296 C 0.87427 0.21543 0.65023 0.0
H1297 H 0.94087 0.19969 0.72025 0.0
H1298 H 0.93341 0.21077 0.69348 0.0
H1299 H 0.84635 0.16653 0.67883 0.0
H1300 H 0.84279 0.18695 0.5995 0.0
H1301 H 0.85493 0.1794 0.62571 0.0
C1302 C 0.81441 0.68889 0.72246 0.0
C1303 C 0.81418 0.71289 0.72712 0.0
C1304 C 0.8061 0.67814 0.70738 0.0
C1305 C 0.77371 0.65111 0.6779 0.0
H1306 H 0.80035 0.70074 0.64219 0.0
C1307 C 0.74672 0.61184 0.61379 0.0
C1308 C 0.76877 0.62362 0.60306 0.0
C1309 C 0.74955 0.6231 0.62884 0.0
C1310 C 0.79277 0.6866 0.65204 0.0
H1311 H 0.80487 0.74435 0.71949 0.0
H1312 H 0.79023 0.72542 0.69306 0.0
H1313 H 0.81043 0.71957 0.66877 0.0
H1314 H 0.81111 0.65654 0.59978 0.0
H1315 H 0.81609 0.67575 0.62594 0.0
H1316 H 0.757 0.61811 0.6612 0.0
C1317 C 0.79706 0.71509 0.70113 0.0
C1318 C 0.79828 0.69741 0.66727 0.0
C1319 C 0.80537 0.72588 0.71628 0.0
C1320 C 0.79363 0.64695 0.60769 0.0
C1321 C 0.79644 0.65815 0.62268 0.0
C1322 C 0.7682 0.6403 0.66268 0.0
C1323 C 0.79731 0.69106 0.69653 0.0
C1324 C 0.78925 0.67976 0.68038 0.0
C1325 C 0.77448 0.64637 0.63345 0.0
C1326 C 0.77811 0.6579 0.64957 0.0
H1327 H 0.82113 0.67835 0.73045 0.0
H1328 H 0.80704 0.65991 0.70414 0.0
H1329 H 0.76611 0.63697 0.68776 0.0
H1330 H 0.72726 0.59393 0.61059 0.0
H1331 H 0.73217 0.61367 0.63683 0.0
C1332 C 0.94196 0.42068 0.04852 0.0
C1333 C 0.95876 0.43419 0.06152 0.0
C1334 C 0.95347 0.4246 0.03346 0.0
C1335 C 0.0171 0.47306 0.01128 0.0
H1336 H 0.9851 0.41636 0.97921 0.0
C1337 C 0.06575 0.48332 0.94967 0.0
C1338 C 0.04782 0.48048 0.93733 0.0
C1339 C 0.05568 0.47587 0.96501 0.0
C1340 C 0.99423 0.4323 0.98811 0.0
H1341 H 1.00085 0.46122 0.06918 0.0
H1342 H 0.02107 0.46691 0.04324 0.0
H1343 H 0.9662 0.40627 0.00583 0.0
H1344 H 0.00521 0.46671 0.93123 0.0
H1345 H 0.98762 0.45305 0.95794 0.0
H1346 H 0.04551 0.49877 0.99351 0.0
C1347 C 0.9989 0.45428 0.04438 0.0
C1348 C 0.9833 0.42666 0.00332 0.0
C1349 C 0.98734 0.45085 0.05932 0.0
C1350 C 0.01955 0.46929 0.94053 0.0
C1351 C 0.00943 0.46131 0.95576 0.0
C1352 C 0.02834 0.47846 0.99616 0.0
C1353 C 0.98211 0.44167 0.03117 0.0
C1354 C 0.99439 0.44708 0.01509 0.0
C1355 C 0.02744 0.46485 0.96816 0.0
C1356 C 0.01681 0.45825 0.98442 0.0
H1357 H 0.91983 0.40782 0.04989 0.0
H1358 H 0.93975 0.41484 0.02361 0.0
H1359 H 0.02587 0.48958 0.01983 0.0
H1360 H 0.08762 0.49193 0.94754 0.0
H1361 H 0.06991 0.47875 0.97443 0.0
C1362 C 0.58922 0.53054 0.05002 0.0
C1363 C 0.56738 0.52146 0.06084 0.0
C1364 C 0.58665 0.53883 0.03488 0.0
C1365 C 0.56785 0.53759 0.00104 0.0
H1366 H 0.52921 0.57828 0.99496 0.0
C1367 C 0.52232 0.54223 0.9414 0.0
C1368 C 0.52379 0.56705 0.93676 0.0
C1369 C 0.53058 0.53939 0.95642 0.0
C1370 C 0.54037 0.56724 0.99645 0.0
H1371 H 0.52568 0.51397 0.06417 0.0
H1372 H 0.52118 0.52802 0.03787 0.0
H1373 H 0.53882 0.56903 0.02154 0.0
H1374 H 0.53534 0.60848 0.94432 0.0
H1375 H 0.54992 0.60351 0.97063 0.0
H1376 H 0.56941 0.53582 0.97596 0.0
C1377 C 0.54046 0.52919 0.04112 0.0
C1378 C 0.54559 0.56166 0.01168 0.0
C1379 C 0.54299 0.5209 0.05619 0.0
C1380 C 0.53386 0.58905 0.94753 0.0
C1381 C 0.54213 0.58618 0.96261 0.0
C1382 C 0.56262 0.54317 0.98582 0.0
C1383 C 0.56223 0.53828 0.03029 0.0
C1384 C 0.55895 0.54634 0.01414 0.0
C1385 C 0.54056 0.56129 0.96721 0.0
C1386 C 0.54838 0.55763 0.98335 0.0
H1387 H 0.60832 0.5313 0.05323 0.0
H1388 H 0.60387 0.5459 0.02683 0.0
H1389 H 0.57805 0.52562 0.00253 0.0
H1390 H 0.51461 0.52479 0.93347 0.0
H1391 H 0.52862 0.51978 0.95968 0.0
C1392 C 0.48212 0.06439 0.04878 0.0
C1393 C 0.47942 0.04662 0.06118 0.0
C1394 C 0.47479 0.05419 0.03346 0.0
C1395 C 0.43176 0.9926 0.0104 0.0
H1396 H 0.48927 0.02453 0.97881 0.0
C1397 C 0.42084 0.94057 0.94998 0.0
C1398 C 0.43441 0.95742 0.937 0.0
C1399 C 0.42459 0.95202 0.96504 0.0
C1400 C 0.47268 0.01567 0.98732 0.0
H1401 H 0.46603 0.00415 0.0674 0.0
H1402 H 0.45254 0.98631 0.04071 0.0
H1403 H 0.49816 0.04413 0.00513 0.0
H1404 H 0.46136 0.99955 0.92939 0.0
H1405 H 0.46676 0.01968 0.95534 0.0
H1406 H 0.40595 0.96452 0.99263 0.0
C1407 C 0.4606 0.00811 0.04284 0.0
C1408 C 0.47792 0.02688 0.00244 0.0
C1409 C 0.46848 0.01837 0.05806 0.0
C1410 C 0.45095 0.986 0.93924 0.0
C1411 C 0.45421 0.9975 0.95418 0.0
C1412 C 0.42629 0.98168 0.99518 0.0
C1413 C 0.46403 0.02597 0.03038 0.0
C1414 C 0.45762 0.01527 0.01413 0.0
C1415 C 0.44155 0.98066 0.96736 0.0
C1416 C 0.44678 0.99289 0.98345 0.0
H1417 H 0.49056 0.08625 0.05084 0.0
H1418 H 0.47757 0.06831 0.024 0.0
H1419 H 0.41576 0.98339 0.01926 0.0
H1420 H 0.40807 0.91844 0.94859 0.0
H1421 H 0.41479 0.93826 0.97488 0.0
C1422 C 0.16246 0.01594 0.20478 0.0
C1423 C 0.17108 0.00797 0.21832 0.0
C1424 C 0.15968 0.03938 0.20491 0.0
C1425 C 0.15261 0.08737 0.23228 0.0
H1426 H 0.16607 0.13066 0.1943 0.0
C1427 C 0.14872 0.18885 0.23019 0.0
C1428 C 0.1318 0.18976 0.21831 0.0
C1429 C 0.15565 0.16806 0.2302 0.0
C1430 C 0.16219 0.1187 0.20497 0.0
H1431 H 0.18417 0.0187 0.24253 0.0
H1432 H 0.18037 0.06026 0.24261 0.0
H1433 H 0.17511 0.09232 0.19449 0.0
H1434 H 0.10902 0.17027 0.19712 0.0
H1435 H 0.12166 0.13413 0.19688 0.0
H1436 H 0.1402 0.1143 0.24278 0.0
C1437 C 0.17495 0.04798 0.23199 0.0
C1438 C 0.16721 0.09661 0.20509 0.0
C1439 C 0.17734 0.02424 0.23193 0.0
C1440 C 0.12228 0.16997 0.2063 0.0
C1441 C 0.12955 0.14943 0.20617 0.0
C1442 C 0.14802 0.10974 0.23222 0.0
C1443 C 0.16585 0.05576 0.21851 0.0
C1444 C 0.16212 0.08037 0.21868 0.0
C1445 C 0.14604 0.14809 0.21822 0.0
C1446 C 0.15244 0.12539 0.21851 0.0
H1447 H 0.15721 0.00369 0.19415 0.0
H1448 H 0.15205 0.04425 0.19439 0.0
H1449 H 0.14797 0.07515 0.24289 0.0
H1450 H 0.15605 0.20386 0.23962 0.0
H1451 H 0.16847 0.16754 0.23958 0.0
C1452 C 0.82106 0.9578 0.20656 0.0
C1453 C 0.81713 0.94115 0.21973 0.0
C1454 C 0.84172 0.9856 0.20662 0.0
C1455 C 0.90698 0.0339 0.22675 0.0
H1456 H 0.89545 0.09027 0.20768 0.0
C1457 C 0.98669 0.14948 0.23282 0.0
C1458 C 0.99308 0.16547 0.21908 0.0
C1459 C 0.96421 0.12261 0.23316 0.0
C1460 C 0.89903 0.07472 0.21295 0.0
H1461 H 0.83065 0.94031 0.24344 0.0
H1462 H 0.86654 0.98887 0.2437 0.0
H1463 H 0.85804 0.04232 0.20772 0.0
H1464 H 0.98043 0.166 0.19502 0.0
H1465 H 0.94124 0.11907 0.19562 0.0
H1466 H 0.94791 0.06622 0.23198 0.0
C1467 C 0.85424 0.98049 0.23317 0.0
C1468 C 0.87763 0.04724 0.21295 0.0
C1469 C 0.83367 0.95275 0.23307 0.0
C1470 C 0.97608 0.15423 0.2058 0.0
C1471 C 0.95353 0.12738 0.20616 0.0
C1472 C 0.92831 0.06133 0.22679 0.0
C1473 C 0.85872 0.99722 0.21989 0.0
C1474 C 0.88135 0.0265 0.21986 0.0
C1475 C 0.94755 0.11115 0.21979 0.0
C1476 C 0.9246 0.08207 0.2199 0.0
H1477 H 0.80845 0.94917 0.19616 0.0
H1478 H 0.84477 0.9978 0.19615 0.0
H1479 H 0.91077 0.0184 0.2319 0.0
H1480 H 0.99933 0.15751 0.24326 0.0
H1481 H 0.95992 0.11076 0.24391 0.0
C1482 C 0.84534 0.81501 0.20641 0.0
C1483 C 0.83494 0.82178 0.21968 0.0
C1484 C 0.87182 0.81837 0.20658 0.0
C1485 C 0.92839 0.82755 0.23308 0.0
H1486 H 0.97433 0.8615 0.19644 0.0
C1487 C 0.04656 0.87378 0.23388 0.0
C1488 C 0.05919 0.87063 0.22042 0.0
C1489 C 0.01848 0.86536 0.2338 0.0
C1490 C 0.96167 0.85161 0.20668 0.0
H1491 H 0.84406 0.83683 0.24368 0.0
H1492 H 0.89033 0.84287 0.24394 0.0
H1493 H 0.92656 0.85111 0.19637 0.0
H1494 H 0.05258 0.85539 0.19654 0.0
H1495 H 0.00322 0.84031 0.19635 0.0
H1496 H 0.96367 0.82838 0.24345 0.0
C1497 C 0.87789 0.83469 0.23344 0.0
C1498 C 0.93426 0.84566 0.20664 0.0
C1499 C 0.85139 0.83133 0.23327 0.0
C1500 C 0.04321 0.8582 0.207 0.0
C1501 C 0.01508 0.84976 0.20689 0.0
C1502 C 0.95582 0.8335 0.23311 0.0
C1503 C 0.88855 0.82857 0.22003 0.0
C1504 C 0.91734 0.83375 0.21988 0.0
C1505 C 0.00243 0.85347 0.22025 0.0
C1506 C 0.97286 0.84581 0.21996 0.0
H1507 H 0.83317 0.80747 0.19577 0.0
H1508 H 0.87923 0.81306 0.19614 0.0
H1509 H 0.9158 0.818 0.24338 0.0
H1510 H 0.05851 0.88302 0.24443 0.0
H1511 H 0.0095 0.86877 0.24424 0.0
C1512 C 0.03101 0.18549 0.79199 0.0
C1513 C 0.01413 0.1792 0.77862 0.0
C1514 C 0.05398 0.18188 0.79186 0.0
C1515 C 0.10165 0.17297 0.76551 0.0
H1516 H 0.11213 0.13736 0.80186 0.0
C1517 C 0.1734 0.12652 0.76463 0.0
C1518 C 0.18863 0.129 0.77823 0.0
C1519 C 0.15372 0.13492 0.76469 0.0
C1520 C 0.10978 0.14771 0.79171 0.0
H1521 H 0.00854 0.16475 0.7545 0.0
H1522 H 0.04854 0.1583 0.75432 0.0
H1523 H 0.07503 0.14816 0.80185 0.0
H1524 H 0.19625 0.14301 0.80236 0.0
H1525 H 0.16199 0.15809 0.80251 0.0
H1526 H 0.13627 0.17225 0.75532 0.0
C1527 C 0.04416 0.16629 0.76486 0.0
C1528 C 0.08849 0.15389 0.7917 0.0
C1529 C 0.02116 0.16988 0.76499 0.0
C1530 C 0.18449 0.14071 0.79179 0.0
C1531 C 0.1648 0.14915 0.79187 0.0
C1532 C 0.12298 0.16681 0.76553 0.0
C1533 C 0.06063 0.17191 0.77837 0.0
C1534 C 0.08404 0.16642 0.77856 0.0
C1535 C 0.14901 0.14614 0.77835 0.0
C1536 C 0.12718 0.15391 0.77858 0.0
H1537 H 0.02628 0.19284 0.80267 0.0
H1538 H 0.06649 0.1868 0.80238 0.0
H1539 H 0.09902 0.18298 0.75529 0.0
H1540 H 0.1766 0.11789 0.75397 0.0
H1541 H 0.14178 0.13206 0.75412 0.0
C1542 C 0.86472 0.04393 0.79268 0.0
C1543 C 0.87697 0.06065 0.77948 0.0
C1544 C 0.85718 0.01603 0.79237 0.0
C1545 C 0.87239 0.9674 0.77122 0.0
H1546 H 0.80506 0.91135 0.79096 0.0
C1547 C 0.83578 0.85172 0.76483 0.0
C1548 C 0.82673 0.83582 0.77863 0.0
C1549 C 0.84013 0.87858 0.76458 0.0
C1550 C 0.82404 0.92681 0.78549 0.0
H1551 H 0.89003 0.06152 0.75544 0.0
H1552 H 0.87669 0.01279 0.75477 0.0
H1553 H 0.81611 0.95946 0.79129 0.0
H1554 H 0.81444 0.83542 0.80287 0.0
H1555 H 0.82215 0.88232 0.80243 0.0
H1556 H 0.88038 0.93485 0.76545 0.0
C1557 C 0.87345 0.02119 0.7655 0.0
C1558 C 0.83039 0.95437 0.7857 0.0
C1559 C 0.88101 0.04902 0.76585 0.0
C1560 C 0.82142 0.84711 0.79205 0.0
C1561 C 0.8257 0.87395 0.79178 0.0
C1562 C 0.86601 0.93989 0.77097 0.0
C1563 C 0.86168 0.00438 0.77881 0.0
C1564 C 0.85467 0.975 0.77857 0.0
C1565 C 0.83548 0.89013 0.77811 0.0
C1566 C 0.84178 0.91926 0.77811 0.0
H1567 H 0.86141 0.05257 0.8033 0.0
H1568 H 0.84841 0.00375 0.80287 0.0
H1569 H 0.89152 0.9828 0.76587 0.0
H1570 H 0.84002 0.84365 0.75428 0.0
H1571 H 0.84729 0.89037 0.75379 0.0
C1572 C 0.14772 0.98616 0.79326 0.0
C1573 C 0.16446 0.99338 0.7798 0.0
C1574 C 0.12124 0.96308 0.79319 0.0
C1575 C 0.06605 0.91498 0.7659 0.0
H1576 H 0.03495 0.87322 0.80423 0.0
C1577 C 0.96006 0.8142 0.7684 0.0
C1578 C 0.94207 0.81385 0.78 0.0
C1579 C 0.98779 0.83495 0.76836 0.0
C1580 C 0.04339 0.88477 0.79346 0.0
H1581 H 0.16684 0.98171 0.75581 0.0
H1582 H 0.12102 0.94074 0.75584 0.0
H1583 H 0.08266 0.91088 0.80403 0.0
H1584 H 0.93848 0.83436 0.80065 0.0
H1585 H 0.98731 0.87045 0.80086 0.0
H1586 H 0.02673 0.88825 0.75532 0.0
C1587 C 0.12797 0.95334 0.76634 0.0
C1588 C 0.07069 0.90647 0.79334 0.0
C1589 C 0.15435 0.97672 0.76634 0.0
C1590 C 0.95217 0.83424 0.79168 0.0
C1591 C 0.98 0.85474 0.7918 0.0
C1592 C 0.03888 0.89298 0.76598 0.0
C1593 C 0.11093 0.94633 0.77973 0.0
C1594 C 0.08232 0.92214 0.77961 0.0
C1595 C 0.99801 0.85544 0.78005 0.0
C1596 C 0.02721 0.87788 0.7798 0.0
H1597 H 0.15477 0.99873 0.80377 0.0
H1598 H 0.10865 0.95883 0.80362 0.0
H1599 H 0.07399 0.92678 0.75518 0.0
H1600 H 0.95252 0.79871 0.75922 0.0
H1601 H 1.00129 0.83497 0.75922 0.0
C1602 C 0.81876 0.52447 0.56074 0.0
C1603 C 0.79544 0.52043 0.55234 0.0
C1604 C 0.82626 0.50409 0.56087 0.0
C1605 C 0.81555 0.44181 0.53942 0.0
H1606 H 0.84075 0.42568 0.57835 0.0
C1607 C 0.85342 0.36332 0.54149 0.0
C1608 C 0.84473 0.34503 0.5543 0.0
C1609 C 0.84952 0.38611 0.54152 0.0
C1610 C 0.8336 0.42982 0.56741 0.0
H1611 H 0.76164 0.49213 0.53751 0.0
H1612 H 0.77433 0.45625 0.53792 0.0
H1613 H 0.82916 0.46227 0.57772 0.0
H1614 H 0.82559 0.33658 0.57734 0.0
H1615 H 0.81836 0.37609 0.5773 0.0
H1616 H 0.81907 0.40881 0.52923 0.0
C1617 C 0.78718 0.47531 0.54419 0.0
C1618 C 0.82728 0.45103 0.56699 0.0
C1619 C 0.77976 0.49571 0.54405 0.0
C1620 C 0.83265 0.35038 0.56732 0.0
C1621 C 0.8286 0.37311 0.56732 0.0
C1622 C 0.8218 0.42058 0.53985 0.0
C1623 C 0.81049 0.4792 0.55264 0.0
C1624 C 0.81803 0.45719 0.55301 0.0
C1625 C 0.83667 0.39105 0.55432 0.0
C1626 C 0.83082 0.41424 0.55385 0.0
H1627 H 0.83094 0.5432 0.56744 0.0
H1628 H 0.84446 0.50788 0.56737 0.0
H1629 H 0.80881 0.4462 0.52841 0.0
H1630 H 0.86299 0.35991 0.53133 0.0
H1631 H 0.85648 0.39979 0.53146 0.0
C1632 C 0.64482 0.48789 0.56307 0.0
C1633 C 0.66272 0.49718 0.55008 0.0
C1634 C 0.62134 0.46159 0.56302 0.0
C1635 C 0.57644 0.40307 0.53628 0.0
H1636 H 0.55549 0.36089 0.57502 0.0
C1637 C 0.50353 0.28482 0.53894 0.0
C1638 C 0.48272 0.27508 0.55038 0.0
C1639 C 0.52406 0.31263 0.53869 0.0
C1640 C 0.56095 0.37254 0.56415 0.0
H1641 H 0.67007 0.48614 0.52687 0.0
H1642 H 0.62987 0.44017 0.52696 0.0
H1643 H 0.59405 0.40812 0.57505 0.0
H1644 H 0.46682 0.28621 0.57056 0.0
H1645 H 0.50304 0.33496 0.5703 0.0
H1646 H 0.54385 0.36691 0.52534 0.0
C1647 C 0.63334 0.45334 0.53704 0.0
C1648 C 0.58298 0.39968 0.56416 0.0
C1649 C 0.65656 0.47972 0.53701 0.0
C1650 C 0.48265 0.29345 0.56157 0.0
C1651 C 0.50338 0.32119 0.56147 0.0
C1652 C 0.55467 0.3758 0.53625 0.0
C1653 C 0.61542 0.44383 0.55005 0.0
C1654 C 0.59115 0.4153 0.5502 0.0
C1655 C 0.52432 0.33103 0.55004 0.0
C1656 C 0.54679 0.36024 0.55017 0.0
H1657 H 0.64894 0.50093 0.57329 0.0
H1658 H 0.60782 0.45523 0.57315 0.0
H1659 H 0.58168 0.41455 0.52537 0.0
H1660 H 0.50397 0.27086 0.53028 0.0
H1661 H 0.5401 0.31963 0.52984 0.0
C1662 C 0.70923 0.18507 0.55957 0.0
C1663 C 0.7286 0.20857 0.55133 0.0
C1664 C 0.68141 0.17777 0.55983 0.0
C1665 C 0.63653 0.20775 0.55564 0.0
H1666 H 0.57804 0.13196 0.55007 0.0
C1667 C 0.52216 0.17387 0.56643 0.0
C1668 C 0.50359 0.15747 0.55463 0.0
C1669 C 0.54926 0.17887 0.56652 0.0
C1670 C 0.59416 0.15322 0.55161 0.0
H1671 H 0.73424 0.24268 0.53673 0.0
H1672 H 0.68559 0.23011 0.53725 0.0
H1673 H 0.62625 0.14329 0.54862 0.0
H1674 H 0.49869 0.13274 0.53394 0.0
H1675 H 0.54596 0.14131 0.53418 0.0
H1676 H 0.60453 0.21775 0.55852 0.0
C1677 C 0.6919 0.21738 0.54358 0.0
C1678 C 0.62173 0.15966 0.55089 0.0
C1679 C 0.71967 0.22453 0.54323 0.0
C1680 C 0.51249 0.1455 0.54319 0.0
C1681 C 0.53952 0.15029 0.54336 0.0
C1682 C 0.609 0.20127 0.55649 0.0
C1683 C 0.6725 0.19402 0.55197 0.0
C1684 C 0.6432 0.18703 0.55281 0.0
C1685 C 0.55831 0.16737 0.55488 0.0
C1686 C 0.58751 0.17396 0.55443 0.0
H1687 H 0.71571 0.17271 0.56615 0.0
H1688 H 0.66701 0.15985 0.56654 0.0
H1689 H 0.65262 0.22898 0.55733 0.0
H1690 H 0.51598 0.18343 0.57541 0.0
H1691 H 0.56319 0.19186 0.57565 0.0
C1692 C 0.83826 0.45568 0.09755 0.0
C1693 C 0.85522 0.46151 0.1108 0.0
C1694 C 0.81806 0.46335 0.09714 0.0
C1695 C 0.79645 0.5094 0.11569 0.0
H1696 H 0.72476 0.45642 0.09886 0.0
C1697 C 0.69922 0.51993 0.1231 0.0
C1698 C 0.68079 0.51213 0.11037 0.0
C1699 C 0.72172 0.51556 0.12264 0.0
C1700 C 0.74476 0.47162 0.1034 0.0
H1701 H 0.86507 0.48041 0.13382 0.0
H1702 H 0.82946 0.49372 0.13324 0.0
H1703 H 0.76164 0.44535 0.09919 0.0
H1704 H 0.672 0.49429 0.08697 0.0
H1705 H 0.71139 0.48692 0.08611 0.0
H1706 H 0.77936 0.53555 0.12002 0.0
C1707 C 0.83187 0.4834 0.12311 0.0
C1708 C 0.76592 0.46527 0.1036 0.0
C1709 C 0.85214 0.47572 0.1235 0.0
C1710 C 0.68575 0.50049 0.097 0.0
C1711 C 0.70823 0.49608 0.09655 0.0
C1712 C 0.77523 0.51576 0.1155 0.0
C1713 C 0.8144 0.47704 0.10997 0.0
C1714 C 0.79203 0.48406 0.10974 0.0
C1715 C 0.72628 0.50323 0.10944 0.0
C1716 C 0.74913 0.49692 0.10935 0.0
H1717 H 0.84063 0.44513 0.08751 0.0
H1718 H 0.80535 0.45862 0.08672 0.0
H1719 H 0.81642 0.52448 0.12032 0.0
H1720 H 0.696 0.52894 0.13359 0.0
H1721 H 0.73507 0.52107 0.13282 0.0
C1722 C 0.48401 0.17942 0.1249 0.0
C1723 C 0.49235 0.16962 0.11202 0.0
C1724 C 0.48789 0.2061 0.12483 0.0
C1725 C 0.50174 0.26451 0.09856 0.0
H1726 H 0.52949 0.30788 0.13668 0.0
C1727 C 0.54769 0.38252 0.09955 0.0
C1728 C 0.54159 0.39409 0.11249 0.0
C1729 C 0.53974 0.35457 0.09946 0.0
C1730 C 0.52137 0.29594 0.12601 0.0
H1731 H 0.51098 0.18006 0.08884 0.0
H1732 H 0.51798 0.2267 0.08876 0.0
H1733 H 0.51905 0.26008 0.13647 0.0
H1734 H 0.52197 0.38574 0.13531 0.0
H1735 H 0.50779 0.33659 0.13519 0.0
H1736 H 0.50442 0.30053 0.08806 0.0
C1737 C 0.5081 0.21363 0.09886 0.0
C1738 C 0.51538 0.26851 0.12588 0.0
C1739 C 0.50419 0.18692 0.09892 0.0
C1740 C 0.52698 0.37719 0.12524 0.0
C1741 C 0.51905 0.34919 0.12519 0.0
C1742 C 0.50777 0.29195 0.09869 0.0
C1743 C 0.50025 0.22364 0.11188 0.0
C1744 C 0.50565 0.25251 0.11213 0.0
C1745 C 0.52545 0.33758 0.11232 0.0
C1746 C 0.51785 0.30804 0.11238 0.0
H1747 H 0.4747 0.16659 0.13516 0.0
H1748 H 0.4812 0.213 0.13494 0.0
H1749 H 0.49386 0.25264 0.08785 0.0
H1750 H 0.5587 0.39516 0.08951 0.0
H1751 H 0.54525 0.34638 0.08944 0.0
C1752 C 0.62019 0.16339 0.09762 0.0
C1753 C 0.60942 0.1461 0.11077 0.0
C1754 C 0.64806 0.18355 0.09704 0.0
C1755 C 0.71632 0.2051 0.11493 0.0
H1756 H 0.73402 0.27704 0.099 0.0
C1757 C 0.82349 0.30299 0.12274 0.0
C1758 C 0.83388 0.32174 0.11014 0.0
C1759 C 0.79674 0.28028 0.1222 0.0
C1760 C 0.72951 0.25698 0.10328 0.0
H1761 H 0.61917 0.13545 0.13337 0.0
H1762 H 0.66809 0.17101 0.13253 0.0
H1763 H 0.68626 0.23982 0.09934 0.0
H1764 H 0.82453 0.33093 0.08692 0.0
H1765 H 0.77797 0.2912 0.08595 0.0
H1766 H 0.75967 0.22252 0.11905 0.0
C1767 C 0.65507 0.16892 0.12259 0.0
C1768 C 0.70209 0.23561 0.10348 0.0
C1769 C 0.62712 0.14867 0.12314 0.0
C1770 C 0.81716 0.31691 0.09684 0.0
C1771 C 0.79039 0.29425 0.09633 0.0
C1772 C 0.74379 0.22654 0.11476 0.0
C1773 C 0.6658 0.18684 0.10961 0.0
C1774 C 0.69512 0.2094 0.10931 0.0
C1775 C 0.77975 0.27584 0.10908 0.0
C1776 C 0.7507 0.25274 0.10894 0.0
H1777 H 0.60696 0.1614 0.08781 0.0
H1778 H 0.65573 0.19657 0.08672 0.0
H1779 H 0.71172 0.18508 0.11931 0.0
H1780 H 0.83582 0.30609 0.13317 0.0
H1781 H 0.7891 0.26666 0.13228 0.0
C1782 C 0.47717 0.85138 0.87542 0.0
C1783 C 0.46472 0.85561 0.88861 0.0
C1784 C 0.48525 0.83142 0.87577 0.0
C1785 C 0.47022 0.7676 0.89668 0.0
H1786 H 0.53747 0.77892 0.87681 0.0
C1787 C 0.50488 0.68679 0.90144 0.0
C1788 C 0.51428 0.68065 0.88753 0.0
C1789 C 0.50102 0.70959 0.90216 0.0
C1790 C 0.51852 0.77538 0.88231 0.0
H1791 H 0.45218 0.84369 0.91273 0.0
H1792 H 0.46637 0.80889 0.91346 0.0
H1793 H 0.52674 0.81621 0.87691 0.0
H1794 H 0.52771 0.6941 0.86359 0.0
H1795 H 0.52074 0.7337 0.86483 0.0
H1796 H 0.4618 0.72676 0.90195 0.0
C1797 C 0.46935 0.82042 0.90271 0.0
C1798 C 0.51236 0.79673 0.88236 0.0
C1799 C 0.4613 0.84033 0.90233 0.0
C1800 C 0.52045 0.69824 0.8745 0.0
C1801 C 0.5166 0.72105 0.87523 0.0
C1802 C 0.47636 0.7463 0.89664 0.0
C1803 C 0.48109 0.81543 0.88937 0.0
C1804 C 0.4881 0.79307 0.88952 0.0
C1805 C 0.50647 0.72677 0.889 0.0
C1806 C 0.50054 0.74988 0.88942 0.0
H1807 H 0.48008 0.8631 0.86474 0.0
H1808 H 0.49404 0.82798 0.86526 0.0
H1809 H 0.4511 0.76388 0.90204 0.0
H1810 H 0.50001 0.67372 0.91171 0.0
H1811 H 0.4936 0.71366 0.91303 0.0
C1812 C 0.31893 0.8143 0.87159 0.0
C1813 C 0.3273 0.83057 0.88525 0.0
C1814 C 0.29542 0.78812 0.87168 0.0
C1815 C 0.24825 0.73244 0.89894 0.0
H1816 H 0.20369 0.70368 0.8613 0.0
C1817 C 0.14701 0.62687 0.8969 0.0
C1818 C 0.14569 0.60951 0.88463 0.0
C1819 C 0.1677 0.65463 0.89704 0.0
C1820 C 0.216 0.71146 0.87187 0.0
H1821 H 0.31723 0.8324 0.90966 0.0
H1822 H 0.27559 0.78709 0.90972 0.0
H1823 H 0.24203 0.75105 0.86162 0.0
H1824 H 0.16434 0.60707 0.86287 0.0
H1825 H 0.20029 0.65592 0.86287 0.0
H1826 H 0.22173 0.69279 0.90921 0.0
C1827 C 0.28759 0.79419 0.89901 0.0
C1828 C 0.23809 0.73856 0.87206 0.0
C1829 C 0.31137 0.82028 0.89896 0.0
C1830 C 0.16496 0.62029 0.87236 0.0
C1831 C 0.18539 0.64813 0.87237 0.0
C1832 C 0.2259 0.70546 0.89881 0.0
C1833 C 0.27942 0.77764 0.88539 0.0
C1834 C 0.25479 0.74932 0.88553 0.0
C1835 C 0.18715 0.6655 0.8848 0.0
C1836 C 0.20979 0.69461 0.88521 0.0
H1837 H 0.33089 0.82151 0.86086 0.0
H1838 H 0.29022 0.77587 0.86105 0.0
H1839 H 0.26083 0.73972 0.90944 0.0
H1840 H 0.13242 0.61879 0.90654 0.0
H1841 H 0.16855 0.66761 0.90672 0.0
C1842 C 0.37864 0.52984 0.87263 0.0
C1843 C 0.39508 0.54307 0.88579 0.0
C1844 C 0.35075 0.52236 0.87248 0.0
C1845 C 0.29263 0.50909 0.8987 0.0
H1846 H 0.26265 0.52463 0.86151 0.0
C1847 C 0.18768 0.50564 0.8988 0.0
C1848 C 0.171 0.49542 0.88534 0.0
C1849 C 0.2144 0.50957 0.89888 0.0
C1850 C 0.27055 0.51976 0.87192 0.0
H1851 H 0.3955 0.55831 0.90923 0.0
H1852 H 0.34686 0.54555 0.90898 0.0
H1853 H 0.31038 0.53476 0.86151 0.0
H1854 H 0.16909 0.48069 0.86152 0.0
H1855 H 0.2155 0.48715 0.86174 0.0
H1856 H 0.25286 0.4942 0.90914 0.0
C1857 C 0.35533 0.54079 0.89879 0.0
C1858 C 0.29793 0.5256 0.87191 0.0
C1859 C 0.38319 0.54833 0.8989 0.0
C1860 C 0.18144 0.48873 0.87206 0.0
C1861 C 0.20813 0.49259 0.87215 0.0
C1862 C 0.26522 0.50319 0.8987 0.0
C1863 C 0.3388 0.52782 0.88556 0.0
C1864 C 0.30935 0.52052 0.88534 0.0
C1865 C 0.22504 0.50332 0.8855 0.0
C1866 C 0.2539 0.50863 0.88534 0.0
H1867 H 0.38746 0.52552 0.86243 0.0
H1868 H 0.3385 0.51213 0.86218 0.0
H1869 H 0.30069 0.50456 0.90915 0.0
H1870 H 0.18033 0.51114 0.9092 0.0
H1871 H 0.22697 0.51819 0.90929 0.0
C1872 C 0.50007 0.78266 0.45744 0.0
C1873 C 0.52139 0.79466 0.44633 0.0
C1874 C 0.47945 0.7898 0.45781 0.0
C1875 C 0.4428 0.81346 0.43287 0.0
H1876 H 0.42162 0.83368 0.47187 0.0
C1877 C 0.35798 0.84365 0.43435 0.0
C1878 C 0.34035 0.83519 0.44745 0.0
C1879 C 0.38154 0.84096 0.43429 0.0
C1880 C 0.42695 0.8277 0.46089 0.0
H1881 H 0.53797 0.82307 0.42677 0.0
H1882 H 0.5015 0.83529 0.4272 0.0
H1883 H 0.4597 0.82425 0.47173 0.0
H1884 H 0.33342 0.81706 0.47071 0.0
H1885 H 0.37368 0.81137 0.47041 0.0
H1886 H 0.40949 0.81569 0.42208 0.0
C1887 C 0.50093 0.82064 0.43573 0.0
C1888 C 0.44889 0.82247 0.46083 0.0
C1889 C 0.52181 0.81382 0.43554 0.0
C1890 C 0.34676 0.82406 0.4605 0.0
C1891 C 0.37003 0.82096 0.46035 0.0
C1892 C 0.42055 0.81825 0.43296 0.0
C1893 C 0.47955 0.80866 0.44687 0.0
C1894 C 0.45695 0.8152 0.44683 0.0
C1895 C 0.38776 0.82933 0.44724 0.0
C1896 C 0.4122 0.82531 0.447 0.0
H1897 H 0.49934 0.76767 0.46578 0.0
H1898 H 0.46305 0.78008 0.46641 0.0
H1899 H 0.44843 0.8076 0.42194 0.0
H1900 H 0.35364 0.85246 0.42415 0.0
H1901 H 0.3949 0.84813 0.4241 0.0
C1902 C 0.15859 0.51496 0.43348 0.0
C1903 C 0.16678 0.50585 0.44673 0.0
C1904 C 0.16055 0.54089 0.43344 0.0
C1905 C 0.17075 0.59829 0.46022 0.0
H1906 H 0.19293 0.64124 0.42175 0.0
C1907 C 0.2154 0.71633 0.45793 0.0
C1908 C 0.20456 0.72623 0.44644 0.0
C1909 C 0.208 0.68851 0.45816 0.0
C1910 C 0.18644 0.62934 0.43253 0.0
H1911 H 0.18364 0.51686 0.47028 0.0
H1912 H 0.18802 0.56225 0.47004 0.0
H1913 H 0.18557 0.59447 0.42169 0.0
H1914 H 0.17789 0.71537 0.42611 0.0
H1915 H 0.16519 0.66653 0.42632 0.0
H1916 H 0.17285 0.63382 0.47114 0.0
C1917 C 0.17923 0.54918 0.45982 0.0
C1918 C 0.18209 0.60247 0.43251 0.0
C1919 C 0.1769 0.52315 0.45994 0.0
C1920 C 0.1862 0.70798 0.43518 0.0
C1921 C 0.17913 0.68021 0.43524 0.0
C1922 C 0.17551 0.6253 0.46028 0.0
C1923 C 0.17112 0.55847 0.44658 0.0
C1924 C 0.17439 0.58662 0.44639 0.0
C1925 C 0.19004 0.67025 0.44671 0.0
C1926 C 0.18357 0.64113 0.44646 0.0
H1927 H 0.15057 0.50201 0.42315 0.0
H1928 H 0.15366 0.54706 0.42312 0.0
H1929 H 0.16423 0.58659 0.47105 0.0
H1930 H 0.2298 0.73022 0.46662 0.0
H1931 H 0.21693 0.68142 0.46702 0.0
C1932 C 0.48101 0.65439 0.46096 0.0
C1933 C 0.4987 0.66084 0.44797 0.0
C1934 C 0.45479 0.63092 0.46081 0.0
C1935 C 0.40209 0.58015 0.43336 0.0
H1936 H 0.36838 0.54131 0.47212 0.0
C1937 C 0.29576 0.4797 0.43572 0.0
C1938 C 0.27706 0.4805 0.44639 0.0
C1939 C 0.32359 0.50022 0.43603 0.0
C1940 C 0.37757 0.55201 0.46122 0.0
H1941 H 0.50311 0.64734 0.42482 0.0
H1942 H 0.45777 0.60576 0.42478 0.0
H1943 H 0.41596 0.57927 0.47237 0.0
H1944 H 0.27232 0.50283 0.46576 0.0
H1945 H 0.32123 0.53849 0.46658 0.0
H1946 H 0.36364 0.55235 0.42225 0.0
C1947 C 0.46375 0.61924 0.43492 0.0
C1948 C 0.40478 0.57389 0.46135 0.0
C1949 C 0.48985 0.64298 0.43497 0.0
C1950 C 0.28654 0.5018 0.45751 0.0
C1951 C 0.31443 0.52206 0.458 0.0
C1952 C 0.37502 0.55799 0.43321 0.0
C1953 C 0.44572 0.61304 0.44778 0.0
C1954 C 0.41731 0.58855 0.44746 0.0
C1955 C 0.33316 0.52162 0.44715 0.0
C1956 C 0.3624 0.54396 0.44717 0.0
H1957 H 0.4871 0.66788 0.4711 0.0
H1958 H 0.4414 0.62726 0.47081 0.0
H1959 H 0.41074 0.59115 0.42248 0.0
H1960 H 0.28872 0.46354 0.42695 0.0
H1961 H 0.33764 0.49939 0.42757 0.0
loop_
_geom_bond_atom_site_label_1
_geom_bond_atom_site_label_2
_geom_bond_distance
_geom_bond_site_symmetry_2
_ccdc_geom_bond_type
Co0 O3 1.970 . S
Co0 N17 1.989 . S
Co0 O25 1.967 . S
Co0 O32 1.920 . S
Co1 O4 1.966 . S
Co1 N10 2.022 . S
Co1 N18 1.993 . S
Co1 O26 1.941 . S
C2 O3 1.258 . S
C2 O4 1.263 . S
O3 Co0 1.970 . S
O3 C2 1.258 . S
O4 Co1 1.966 . S
O4 C2 1.263 . S
C5 O6 1.235 . S
C5 O32 1.289 . S
O6 C5 1.235 . S
C7 C9 1.400 . S
C7 N10 1.351 . S
C7 C12 1.501 . S
C8 C9 1.387 . S
C8 N11 1.341 . S
C9 C7 1.400 . S
C9 C8 1.387 . S
N10 Co1 2.022 . S
N10 C7 1.351 . S
N10 N11 1.365 . S
N11 C8 1.341 . S
N11 N10 1.365 . S
N11 H31 0.862 . S
C12 C7 1.501 . S
C12 H13 0.961 . S
C12 H14 0.961 . S
C12 H15 0.960 . S
H13 C12 0.961 . S
H14 C12 0.961 . S
H15 C12 0.960 . S
C16 N17 1.342 . S
C16 C20 1.401 . S
C16 C21 1.499 . S
N17 Co0 1.989 . S
N17 C16 1.342 . S
N17 N18 1.388 . S
N18 Co1 1.993 . S
N18 N17 1.388 . S
N18 C19 1.346 . S
C19 N18 1.346 . S
C19 C20 1.396 . S
C19 C29 1.510 . S
C20 C16 1.401 . S
C20 C19 1.396 . S
C21 C16 1.499 . S
C21 H22 0.959 . S
C21 H23 0.960 . S
C21 H24 0.961 . S
H22 C21 0.959 . S
H23 C21 0.960 . S
H24 C21 0.961 . S
O25 Co0 1.967 . S
O25 C33 1.258 . S
O26 Co1 1.941 . S
O26 C33 1.266 . S
H27 C29 0.959 . S
H28 C29 0.961 . S
C29 C19 1.510 . S
C29 H27 0.959 . S
C29 H28 0.961 . S
C29 H30 0.960 . S
H30 C29 0.960 . S
H31 N11 0.862 . S
O32 Co0 1.920 . S
O32 C5 1.289 . S
C33 O25 1.258 . S
C33 O26 1.266 . S
Co34 O37 1.970 . S
Co34 N51 1.989 . S
Co34 O59 1.967 . S
Co34 O66 1.920 . S
Co35 O38 1.966 . S
Co35 N44 2.022 . S
Co35 N52 1.993 . S
Co35 O60 1.941 . S
C36 O37 1.258 . S
C36 O38 1.263 . S
O37 Co34 1.970 . S
O37 C36 1.258 . S
O38 Co35 1.966 . S
O38 C36 1.263 . S
C39 O40 1.235 . S
C39 O66 1.289 . S
O40 C39 1.235 . S
C41 C43 1.400 . S
C41 N44 1.351 . S
C41 C46 1.501 . S
C42 C43 1.387 . S
C42 N45 1.341 . S
C43 C41 1.400 . S
C43 C42 1.387 . S
N44 Co35 2.022 . S
N44 C41 1.351 . S
N44 N45 1.365 . S
N45 C42 1.341 . S
N45 N44 1.365 . S
N45 H65 0.862 . S
C46 C41 1.501 . S
C46 H47 0.961 . S
C46 H48 0.961 . S
C46 H49 0.960 . S
H47 C46 0.961 . S
H48 C46 0.961 . S
H49 C46 0.960 . S
C50 N51 1.342 . S
C50 C54 1.401 . S
C50 C55 1.499 . S
N51 Co34 1.989 . S
N51 C50 1.342 . S
N51 N52 1.388 . S
N52 Co35 1.993 . S
N52 N51 1.388 . S
N52 C53 1.346 . S
C53 N52 1.346 . S
C53 C54 1.396 . S
C53 C63 1.510 . S
C54 C50 1.401 . S
C54 C53 1.396 . S
C55 C50 1.499 . S
C55 H56 0.959 . S
C55 H57 0.960 . S
C55 H58 0.961 . S
H56 C55 0.959 . S
H57 C55 0.960 . S
H58 C55 0.961 . S
O59 Co34 1.967 . S
O59 C67 1.258 . S
O60 Co35 1.941 . S
O60 C67 1.266 . S
H61 C63 0.959 . S
H62 C63 0.961 . S
C63 C53 1.510 . S
C63 H61 0.959 . S
C63 H62 0.961 . S
C63 H64 0.960 . S
H64 C63 0.960 . S
H65 N45 0.862 . S
O66 Co34 1.920 . S
O66 C39 1.289 . S
C67 O59 1.258 . S
C67 O60 1.266 . S
Co68 O71 1.970 . S
Co68 N85 1.989 . S
Co68 O93 1.967 . S
Co68 O100 1.920 . S
Co69 O72 1.966 . S
Co69 N78 2.022 . S
Co69 N86 1.993 . S
Co69 O94 1.941 . S
C70 O71 1.258 . S
C70 O72 1.263 . S
O71 Co68 1.970 . S
O71 C70 1.258 . S
O72 Co69 1.966 . S
O72 C70 1.263 . S
C73 O74 1.235 . S
C73 O100 1.289 . S
O74 C73 1.235 . S
C75 C77 1.400 . S
C75 N78 1.351 . S
C75 C80 1.501 . S
C76 C77 1.387 . S
C76 N79 1.341 . S
C77 C75 1.400 . S
C77 C76 1.387 . S
N78 Co69 2.022 . S
N78 C75 1.351 . S
N78 N79 1.365 . S
N79 C76 1.341 . S
N79 N78 1.365 . S
N79 H99 0.862 . S
C80 C75 1.501 . S
C80 H81 0.961 . S
C80 H82 0.961 . S
C80 H83 0.960 . S
H81 C80 0.961 . S
H82 C80 0.961 . S
H83 C80 0.960 . S
C84 N85 1.342 . S
C84 C88 1.401 . S
C84 C89 1.499 . S
N85 Co68 1.989 . S
N85 C84 1.342 . S
N85 N86 1.388 . S
N86 Co69 1.993 . S
N86 N85 1.388 . S
N86 C87 1.346 . S
C87 N86 1.346 . S
C87 C88 1.396 . S
C87 C97 1.510 . S
C88 C84 1.401 . S
C88 C87 1.396 . S
C89 C84 1.499 . S
C89 H90 0.959 . S
C89 H91 0.960 . S
C89 H92 0.961 . S
H90 C89 0.959 . S
H91 C89 0.960 . S
H92 C89 0.961 . S
O93 Co68 1.967 . S
O93 C101 1.258 . S
O94 Co69 1.941 . S
O94 C101 1.266 . S
H95 C97 0.959 . S
H96 C97 0.961 . S
C97 C87 1.510 . S
C97 H95 0.959 . S
C97 H96 0.961 . S
C97 H98 0.960 . S
H98 C97 0.960 . S
H99 N79 0.862 . S
O100 Co68 1.920 . S
O100 C73 1.289 . S
C101 O93 1.258 . S
C101 O94 1.266 . S
Co102 O105 1.970 . S
Co102 N119 1.989 . S
Co102 O127 1.967 . S
Co102 O134 1.920 . S
Co103 O106 1.966 . S
Co103 N112 2.022 . S
Co103 N120 1.993 . S
Co103 O128 1.941 . S
C104 O105 1.258 . S
C104 O106 1.263 . S
O105 Co102 1.970 . S
O105 C104 1.258 . S
O106 Co103 1.966 . S
O106 C104 1.263 . S
C107 O108 1.235 . S
C107 O134 1.289 . S
O108 C107 1.235 . S
C109 C111 1.400 . S
C109 N112 1.351 . S
C109 C114 1.501 . S
C110 C111 1.387 . S
C110 N113 1.341 . S
C111 C109 1.400 . S
C111 C110 1.387 . S
N112 Co103 2.022 . S
N112 C109 1.351 . S
N112 N113 1.365 . S
N113 C110 1.341 . S
N113 N112 1.365 . S
N113 H133 0.862 . S
C114 C109 1.501 . S
C114 H115 0.961 . S
C114 H116 0.961 . S
C114 H117 0.960 . S
H115 C114 0.961 . S
H116 C114 0.961 . S
H117 C114 0.960 . S
C118 N119 1.342 . S
C118 C122 1.401 . S
C118 C123 1.499 . S
N119 Co102 1.989 . S
N119 C118 1.342 . S
N119 N120 1.388 . S
N120 Co103 1.993 . S
N120 N119 1.388 . S
N120 C121 1.346 . S
C121 N120 1.346 . S
C121 C122 1.396 . S
C121 C131 1.510 . S
C122 C118 1.401 . S
C122 C121 1.396 . S
C123 C118 1.499 . S
C123 H124 0.959 . S
C123 H125 0.960 . S
C123 H126 0.961 . S
H124 C123 0.959 . S
H125 C123 0.960 . S
H126 C123 0.961 . S
O127 Co102 1.967 . S
O127 C135 1.258 . S
O128 Co103 1.941 . S
O128 C135 1.266 . S
H129 C131 0.959 . S
H130 C131 0.961 . S
C131 C121 1.510 . S
C131 H129 0.959 . S
C131 H130 0.961 . S
C131 H132 0.960 . S
H132 C131 0.960 . S
H133 N113 0.862 . S
O134 Co102 1.920 . S
O134 C107 1.289 . S
C135 O127 1.258 . S
C135 O128 1.266 . S
Co136 O139 1.970 . S
Co136 N153 1.989 . S
Co136 O161 1.967 . S
Co136 O168 1.920 . S
Co137 O140 1.966 . S
Co137 N146 2.022 . S
Co137 N154 1.993 . S
Co137 O162 1.941 . S
C138 O139 1.258 . S
C138 O140 1.263 . S
O139 Co136 1.970 . S
O139 C138 1.258 . S
O140 Co137 1.966 . S
O140 C138 1.263 . S
C141 O142 1.235 . S
C141 O168 1.289 . S
O142 C141 1.235 . S
C143 C145 1.400 . S
C143 N146 1.351 . S
C143 C148 1.501 . S
C144 C145 1.387 . S
C144 N147 1.341 . S
C145 C143 1.400 . S
C145 C144 1.387 . S
N146 Co137 2.022 . S
N146 C143 1.351 . S
N146 N147 1.365 . S
N147 C144 1.341 . S
N147 N146 1.365 . S
N147 H167 0.862 . S
C148 C143 1.501 . S
C148 H149 0.961 . S
C148 H150 0.961 . S
C148 H151 0.960 . S
H149 C148 0.961 . S
H150 C148 0.961 . S
H151 C148 0.960 . S
C152 N153 1.342 . S
C152 C156 1.401 . S
C152 C157 1.499 . S
N153 Co136 1.989 . S
N153 C152 1.342 . S
N153 N154 1.388 . S
N154 Co137 1.993 . S
N154 N153 1.388 . S
N154 C155 1.346 . S
C155 N154 1.346 . S
C155 C156 1.396 . S
C155 C165 1.510 . S
C156 C152 1.401 . S
C156 C155 1.396 . S
C157 C152 1.499 . S
C157 H158 0.959 . S
C157 H159 0.960 . S
C157 H160 0.961 . S
H158 C157 0.959 . S
H159 C157 0.960 . S
H160 C157 0.961 . S
O161 Co136 1.967 . S
O161 C169 1.258 . S
O162 Co137 1.941 . S
O162 C169 1.266 . S
H163 C165 0.959 . S
H164 C165 0.961 . S
C165 C155 1.510 . S
C165 H163 0.959 . S
C165 H164 0.961 . S
C165 H166 0.960 . S
H166 C165 0.960 . S
H167 N147 0.862 . S
O168 Co136 1.920 . S
O168 C141 1.289 . S
C169 O161 1.258 . S
C169 O162 1.266 . S
Co170 O173 1.970 . S
Co170 N187 1.989 . S
Co170 O195 1.967 . S
Co170 O202 1.920 . S
Co171 O174 1.966 . S
Co171 N180 2.022 . S
Co171 N188 1.993 . S
Co171 O196 1.941 . S
C172 O173 1.258 . S
C172 O174 1.263 . S
O173 Co170 1.970 . S
O173 C172 1.258 . S
O174 Co171 1.966 . S
O174 C172 1.263 . S
C175 O176 1.235 . S
C175 O202 1.289 . S
O176 C175 1.235 . S
C177 C179 1.400 . S
C177 N180 1.351 . S
C177 C182 1.501 . S
C178 C179 1.387 . S
C178 N181 1.341 . S
C179 C177 1.400 . S
C179 C178 1.387 . S
N180 Co171 2.022 . S
N180 C177 1.351 . S
N180 N181 1.365 . S
N181 C178 1.341 . S
N181 N180 1.365 . S
N181 H201 0.862 . S
C182 C177 1.501 . S
C182 H183 0.961 . S
C182 H184 0.961 . S
C182 H185 0.960 . S
H183 C182 0.961 . S
H184 C182 0.961 . S
H185 C182 0.960 . S
C186 N187 1.342 . S
C186 C190 1.401 . S
C186 C191 1.499 . S
N187 Co170 1.989 . S
N187 C186 1.342 . S
N187 N188 1.388 . S
N188 Co171 1.993 . S
N188 N187 1.388 . S
N188 C189 1.346 . S
C189 N188 1.346 . S
C189 C190 1.396 . S
C189 C199 1.510 . S
C190 C186 1.401 . S
C190 C189 1.396 . S
C191 C186 1.499 . S
C191 H192 0.959 . S
C191 H193 0.960 . S
C191 H194 0.961 . S
H192 C191 0.959 . S
H193 C191 0.960 . S
H194 C191 0.961 . S
O195 Co170 1.967 . S
O195 C203 1.258 . S
O196 Co171 1.941 . S
O196 C203 1.266 . S
H197 C199 0.959 . S
H198 C199 0.961 . S
C199 C189 1.510 . S
C199 H197 0.959 . S
C199 H198 0.961 . S
C199 H200 0.960 . S
H200 C199 0.960 . S
H201 N181 0.862 . S
O202 Co170 1.920 . S
O202 C175 1.289 . S
C203 O195 1.258 . S
C203 O196 1.266 . S
Co204 O207 1.970 . S
Co204 N221 1.989 . S
Co204 O229 1.967 . S
Co204 O236 1.920 . S
Co205 O208 1.966 . S
Co205 N214 2.022 . S
Co205 N222 1.993 . S
Co205 O230 1.941 . S
C206 O207 1.258 . S
C206 O208 1.263 . S
O207 Co204 1.970 . S
O207 C206 1.258 . S
O208 Co205 1.966 . S
O208 C206 1.263 . S
C209 O210 1.235 . S
C209 O236 1.289 . S
O210 C209 1.235 . S
C211 C213 1.400 . S
C211 N214 1.351 . S
C211 C216 1.501 . S
C212 C213 1.387 . S
C212 N215 1.341 . S
C213 C211 1.400 . S
C213 C212 1.387 . S
N214 Co205 2.022 . S
N214 C211 1.351 . S
N214 N215 1.365 . S
N215 C212 1.341 . S
N215 N214 1.365 . S
N215 H235 0.862 . S
C216 C211 1.501 . S
C216 H217 0.961 . S
C216 H218 0.961 . S
C216 H219 0.960 . S
H217 C216 0.961 . S
H218 C216 0.961 . S
H219 C216 0.960 . S
C220 N221 1.342 . S
C220 C224 1.401 . S
C220 C225 1.499 . S
N221 Co204 1.989 . S
N221 C220 1.342 . S
N221 N222 1.388 . S
N222 Co205 1.993 . S
N222 N221 1.388 . S
N222 C223 1.346 . S
C223 N222 1.346 . S
C223 C224 1.396 . S
C223 C233 1.510 . S
C224 C220 1.401 . S
C224 C223 1.396 . S
C225 C220 1.499 . S
C225 H226 0.959 . S
C225 H227 0.960 . S
C225 H228 0.961 . S
H226 C225 0.959 . S
H227 C225 0.960 . S
H228 C225 0.961 . S
O229 Co204 1.967 . S
O229 C237 1.258 . S
O230 Co205 1.941 . S
O230 C237 1.266 . S
H231 C233 0.959 . S
H232 C233 0.961 . S
C233 C223 1.510 . S
C233 H231 0.959 . S
C233 H232 0.961 . S
C233 H234 0.960 . S
H234 C233 0.960 . S
H235 N215 0.862 . S
O236 Co204 1.920 . S
O236 C209 1.289 . S
C237 O229 1.258 . S
C237 O230 1.266 . S
Co238 O241 1.970 . S
Co238 N255 1.989 . S
Co238 O263 1.967 . S
Co238 O270 1.920 . S
Co239 O242 1.966 . S
Co239 N248 2.022 . S
Co239 N256 1.993 . S
Co239 O264 1.941 . S
C240 O241 1.258 . S
C240 O242 1.263 . S
O241 Co238 1.970 . S
O241 C240 1.258 . S
O242 Co239 1.966 . S
O242 C240 1.263 . S
C243 O244 1.235 . S
C243 O270 1.289 . S
O244 C243 1.235 . S
C245 C247 1.400 . S
C245 N248 1.351 . S
C245 C250 1.501 . S
C246 C247 1.387 . S
C246 N249 1.341 . S
C247 C245 1.400 . S
C247 C246 1.387 . S
N248 Co239 2.022 . S
N248 C245 1.351 . S
N248 N249 1.365 . S
N249 C246 1.341 . S
N249 N248 1.365 . S
N249 H269 0.862 . S
C250 C245 1.501 . S
C250 H251 0.961 . S
C250 H252 0.961 . S
C250 H253 0.960 . S
H251 C250 0.961 . S
H252 C250 0.961 . S
H253 C250 0.960 . S
C254 N255 1.342 . S
C254 C258 1.401 . S
C254 C259 1.499 . S
N255 Co238 1.989 . S
N255 C254 1.342 . S
N255 N256 1.388 . S
N256 Co239 1.993 . S
N256 N255 1.388 . S
N256 C257 1.346 . S
C257 N256 1.346 . S
C257 C258 1.396 . S
C257 C267 1.510 . S
C258 C254 1.401 . S
C258 C257 1.396 . S
C259 C254 1.499 . S
C259 H260 0.959 . S
C259 H261 0.960 . S
C259 H262 0.961 . S
H260 C259 0.959 . S
H261 C259 0.960 . S
H262 C259 0.961 . S
O263 Co238 1.967 . S
O263 C271 1.258 . S
O264 Co239 1.941 . S
O264 C271 1.266 . S
H265 C267 0.959 . S
H266 C267 0.961 . S
C267 C257 1.510 . S
C267 H265 0.959 . S
C267 H266 0.961 . S
C267 H268 0.960 . S
H268 C267 0.960 . S
H269 N249 0.862 . S
O270 Co238 1.920 . S
O270 C243 1.289 . S
C271 O263 1.258 . S
C271 O264 1.266 . S
Co272 O275 1.970 . S
Co272 N289 1.989 . S
Co272 O297 1.967 . S
Co272 O304 1.920 . S
Co273 O276 1.966 . S
Co273 N282 2.022 . S
Co273 N290 1.993 . S
Co273 O298 1.941 . S
C274 O275 1.258 . S
C274 O276 1.263 . S
O275 Co272 1.970 . S
O275 C274 1.258 . S
O276 Co273 1.966 . S
O276 C274 1.263 . S
C277 O278 1.235 . S
C277 O304 1.289 . S
O278 C277 1.235 . S
C279 C281 1.400 . S
C279 N282 1.351 . S
C279 C284 1.501 . S
C280 C281 1.387 . S
C280 N283 1.341 . S
C281 C279 1.400 . S
C281 C280 1.387 . S
N282 Co273 2.022 . S
N282 C279 1.351 . S
N282 N283 1.365 . S
N283 C280 1.341 . S
N283 N282 1.365 . S
N283 H303 0.862 . S
C284 C279 1.501 . S
C284 H285 0.961 . S
C284 H286 0.961 . S
C284 H287 0.960 . S
H285 C284 0.961 . S
H286 C284 0.961 . S
H287 C284 0.960 . S
C288 N289 1.342 . S
C288 C292 1.401 . S
C288 C293 1.499 . S
N289 Co272 1.989 . S
N289 C288 1.342 . S
N289 N290 1.388 . S
N290 Co273 1.993 . S
N290 N289 1.388 . S
N290 C291 1.346 . S
C291 N290 1.346 . S
C291 C292 1.396 . S
C291 C301 1.510 . S
C292 C288 1.401 . S
C292 C291 1.396 . S
C293 C288 1.499 . S
C293 H294 0.959 . S
C293 H295 0.960 . S
C293 H296 0.961 . S
H294 C293 0.959 . S
H295 C293 0.960 . S
H296 C293 0.961 . S
O297 Co272 1.967 . S
O297 C305 1.258 . S
O298 Co273 1.941 . S
O298 C305 1.266 . S
H299 C301 0.959 . S
H300 C301 0.961 . S
C301 C291 1.510 . S
C301 H299 0.959 . S
C301 H300 0.961 . S
C301 H302 0.960 . S
H302 C301 0.960 . S
H303 N283 0.862 . S
O304 Co272 1.920 . S
O304 C277 1.289 . S
C305 O297 1.258 . S
C305 O298 1.266 . S
Co306 O309 1.970 . S
Co306 N323 1.989 . S
Co306 O331 1.967 . S
Co306 O338 1.920 . S
Co307 O310 1.966 . S
Co307 N316 2.022 . S
Co307 N324 1.993 . S
Co307 O332 1.941 . S
C308 O309 1.258 . S
C308 O310 1.263 . S
O309 Co306 1.970 . S
O309 C308 1.258 . S
O310 Co307 1.966 . S
O310 C308 1.263 . S
C311 O312 1.235 . S
C311 O338 1.289 . S
O312 C311 1.235 . S
C313 C315 1.400 . S
C313 N316 1.351 . S
C313 C318 1.501 . S
C314 C315 1.387 . S
C314 N317 1.341 . S
C315 C313 1.400 . S
C315 C314 1.387 . S
N316 Co307 2.022 . S
N316 C313 1.351 . S
N316 N317 1.365 . S
N317 C314 1.341 . S
N317 N316 1.365 . S
N317 H337 0.862 . S
C318 C313 1.501 . S
C318 H319 0.961 . S
C318 H320 0.961 . S
C318 H321 0.960 1_655 S
H319 C318 0.961 . S
H320 C318 0.961 . S
H321 C318 0.960 1_455 S
C322 N323 1.342 . S
C322 C326 1.401 . S
C322 C327 1.499 . S
N323 Co306 1.989 . S
N323 C322 1.342 . S
N323 N324 1.388 . S
N324 Co307 1.993 . S
N324 N323 1.388 . S
N324 C325 1.346 . S
C325 N324 1.346 . S
C325 C326 1.396 . S
C325 C335 1.510 . S
C326 C322 1.401 . S
C326 C325 1.396 . S
C327 C322 1.499 . S
C327 H328 0.959 . S
C327 H329 0.960 . S
C327 H330 0.961 . S
H328 C327 0.959 . S
H329 C327 0.960 . S
H330 C327 0.961 . S
O331 Co306 1.967 . S
O331 C339 1.258 . S
O332 Co307 1.941 . S
O332 C339 1.266 . S
H333 C335 0.959 . S
H334 C335 0.961 . S
C335 C325 1.510 . S
C335 H333 0.959 . S
C335 H334 0.961 . S
C335 H336 0.960 . S
H336 C335 0.960 . S
H337 N317 0.862 . S
O338 Co306 1.920 . S
O338 C311 1.289 . S
C339 O331 1.258 . S
C339 O332 1.266 . S
Co340 O343 1.970 . S
Co340 N357 1.989 . S
Co340 O365 1.967 . S
Co340 O372 1.920 . S
Co341 O344 1.966 . S
Co341 N350 2.022 . S
Co341 N358 1.993 . S
Co341 O366 1.941 . S
C342 O343 1.258 . S
C342 O344 1.263 . S
O343 Co340 1.970 . S
O343 C342 1.258 . S
O344 Co341 1.966 . S
O344 C342 1.263 . S
C345 O346 1.235 . S
C345 O372 1.289 . S
O346 C345 1.235 . S
C347 C349 1.400 . S
C347 N350 1.351 . S
C347 C352 1.501 . S
C348 C349 1.387 . S
C348 N351 1.341 . S
C349 C347 1.400 . S
C349 C348 1.387 . S
N350 Co341 2.022 . S
N350 C347 1.351 . S
N350 N351 1.365 . S
N351 C348 1.341 . S
N351 N350 1.365 . S
N351 H371 0.862 . S
C352 C347 1.501 . S
C352 H353 0.961 . S
C352 H354 0.961 . S
C352 H355 0.960 . S
H353 C352 0.961 . S
H354 C352 0.961 . S
H355 C352 0.960 . S
C356 N357 1.342 . S
C356 C360 1.401 . S
C356 C361 1.499 . S
N357 Co340 1.989 . S
N357 C356 1.342 . S
N357 N358 1.388 . S
N358 Co341 1.993 . S
N358 N357 1.388 . S
N358 C359 1.346 . S
C359 N358 1.346 . S
C359 C360 1.396 . S
C359 C369 1.510 . S
C360 C356 1.401 . S
C360 C359 1.396 . S
C361 C356 1.499 . S
C361 H362 0.959 . S
C361 H363 0.960 . S
C361 H364 0.961 . S
H362 C361 0.959 . S
H363 C361 0.960 . S
H364 C361 0.961 . S
O365 Co340 1.967 . S
O365 C373 1.258 . S
O366 Co341 1.941 . S
O366 C373 1.266 . S
H367 C369 0.959 . S
H368 C369 0.961 . S
C369 C359 1.510 . S
C369 H367 0.959 . S
C369 H368 0.961 . S
C369 H370 0.960 . S
H370 C369 0.960 . S
H371 N351 0.862 . S
O372 Co340 1.920 . S
O372 C345 1.289 . S
C373 O365 1.258 . S
C373 O366 1.266 . S
Co374 O377 1.970 . S
Co374 N391 1.989 . S
Co374 O399 1.967 . S
Co374 O406 1.920 . S
Co375 O378 1.966 . S
Co375 N384 2.022 . S
Co375 N392 1.993 . S
Co375 O400 1.941 . S
C376 O377 1.258 . S
C376 O378 1.263 . S
O377 Co374 1.970 . S
O377 C376 1.258 . S
O378 Co375 1.966 . S
O378 C376 1.263 . S
C379 O380 1.235 . S
C379 O406 1.289 . S
O380 C379 1.235 . S
C381 C383 1.400 . S
C381 N384 1.351 . S
C381 C386 1.501 . S
C382 C383 1.387 . S
C382 N385 1.341 . S
C383 C381 1.400 . S
C383 C382 1.387 . S
N384 Co375 2.022 . S
N384 C381 1.351 . S
N384 N385 1.365 . S
N385 C382 1.341 . S
N385 N384 1.365 . S
N385 H405 0.862 . S
C386 C381 1.501 . S
C386 H387 0.961 . S
C386 H388 0.961 . S
C386 H389 0.960 1_545 S
H387 C386 0.961 . S
H388 C386 0.961 . S
H389 C386 0.960 1_565 S
C390 N391 1.342 . S
C390 C394 1.401 . S
C390 C395 1.499 . S
N391 Co374 1.989 . S
N391 C390 1.342 . S
N391 N392 1.388 . S
N392 Co375 1.993 . S
N392 N391 1.388 . S
N392 C393 1.346 . S
C393 N392 1.346 . S
C393 C394 1.396 . S
C393 C403 1.510 . S
C394 C390 1.401 . S
C394 C393 1.396 . S
C395 C390 1.499 . S
C395 H396 0.959 . S
C395 H397 0.960 . S
C395 H398 0.961 . S
H396 C395 0.959 . S
H397 C395 0.960 . S
H398 C395 0.961 . S
O399 Co374 1.967 . S
O399 C407 1.258 . S
O400 Co375 1.941 . S
O400 C407 1.266 . S
H401 C403 0.959 . S
H402 C403 0.961 . S
C403 C393 1.510 . S
C403 H401 0.959 . S
C403 H402 0.961 . S
C403 H404 0.960 . S
H404 C403 0.960 . S
H405 N385 0.862 . S
O406 Co374 1.920 . S
O406 C379 1.289 . S
C407 O399 1.258 . S
C407 O400 1.266 . S
Co408 O411 1.970 . S
Co408 N425 1.989 . S
Co408 O433 1.967 . S
Co408 O440 1.920 . S
Co409 O412 1.966 . S
Co409 N418 2.022 . S
Co409 N426 1.993 . S
Co409 O434 1.941 . S
C410 O411 1.258 . S
C410 O412 1.263 . S
O411 Co408 1.970 . S
O411 C410 1.258 . S
O412 Co409 1.966 . S
O412 C410 1.263 . S
C413 O414 1.235 . S
C413 O440 1.289 . S
O414 C413 1.235 . S
C415 C417 1.400 . S
C415 N418 1.351 . S
C415 C420 1.501 . S
C416 C417 1.387 . S
C416 N419 1.341 . S
C417 C415 1.400 . S
C417 C416 1.387 . S
N418 Co409 2.022 . S
N418 C415 1.351 . S
N418 N419 1.365 . S
N419 C416 1.341 . S
N419 N418 1.365 . S
N419 H439 0.862 . S
C420 C415 1.501 . S
C420 H421 0.961 . S
C420 H422 0.961 . S
C420 H423 0.960 1_565 S
H421 C420 0.961 . S
H422 C420 0.961 . S
H423 C420 0.960 1_545 S
C424 N425 1.342 . S
C424 C428 1.401 . S
C424 C429 1.499 . S
N425 Co408 1.989 . S
N425 C424 1.342 . S
N425 N426 1.388 . S
N426 Co409 1.993 . S
N426 N425 1.388 . S
N426 C427 1.346 . S
C427 N426 1.346 . S
C427 C428 1.396 . S
C427 C437 1.510 . S
C428 C424 1.401 . S
C428 C427 1.396 . S
C429 C424 1.499 . S
C429 H430 0.959 . S
C429 H431 0.960 . S
C429 H432 0.961 . S
H430 C429 0.959 . S
H431 C429 0.960 . S
H432 C429 0.961 . S
O433 Co408 1.967 . S
O433 C441 1.258 . S
O434 Co409 1.941 . S
O434 C441 1.266 . S
H435 C437 0.959 . S
H436 C437 0.961 . S
C437 C427 1.510 . S
C437 H435 0.959 . S
C437 H436 0.961 . S
C437 H438 0.960 . S
H438 C437 0.960 . S
H439 N419 0.862 . S
O440 Co408 1.920 . S
O440 C413 1.289 . S
C441 O433 1.258 . S
C441 O434 1.266 . S
Co442 O445 1.970 . S
Co442 N459 1.989 . S
Co442 O467 1.967 . S
Co442 O474 1.920 . S
Co443 O446 1.966 . S
Co443 N452 2.022 . S
Co443 N460 1.993 . S
Co443 O468 1.941 . S
C444 O445 1.258 . S
C444 O446 1.263 . S
O445 Co442 1.970 . S
O445 C444 1.258 . S
O446 Co443 1.966 . S
O446 C444 1.263 . S
C447 O448 1.235 . S
C447 O474 1.289 . S
O448 C447 1.235 . S
C449 C451 1.400 . S
C449 N452 1.351 . S
C449 C454 1.501 . S
C450 C451 1.387 . S
C450 N453 1.341 . S
C451 C449 1.400 . S
C451 C450 1.387 . S
N452 Co443 2.022 . S
N452 C449 1.351 . S
N452 N453 1.365 . S
N453 C450 1.341 . S
N453 N452 1.365 . S
N453 H473 0.862 . S
C454 C449 1.501 . S
C454 H455 0.961 . S
C454 H456 0.961 . S
C454 H457 0.960 1_455 S
H455 C454 0.961 . S
H456 C454 0.961 . S
H457 C454 0.960 1_655 S
C458 N459 1.342 . S
C458 C462 1.401 . S
C458 C463 1.499 . S
N459 Co442 1.989 . S
N459 C458 1.342 . S
N459 N460 1.388 . S
N460 Co443 1.993 . S
N460 N459 1.388 . S
N460 C461 1.346 . S
C461 N460 1.346 . S
C461 C462 1.396 . S
C461 C471 1.510 . S
C462 C458 1.401 . S
C462 C461 1.396 . S
C463 C458 1.499 . S
C463 H464 0.959 . S
C463 H465 0.960 . S
C463 H466 0.961 . S
H464 C463 0.959 . S
H465 C463 0.960 . S
H466 C463 0.961 . S
O467 Co442 1.967 . S
O467 C475 1.258 . S
O468 Co443 1.941 . S
O468 C475 1.266 . S
H469 C471 0.959 . S
H470 C471 0.961 . S
C471 C461 1.510 . S
C471 H469 0.959 . S
C471 H470 0.961 . S
C471 H472 0.960 . S
H472 C471 0.960 . S
H473 N453 0.862 . S
O474 Co442 1.920 . S
O474 C447 1.289 . S
C475 O467 1.258 . S
C475 O468 1.266 . S
Co476 O479 1.970 . S
Co476 N493 1.989 . S
Co476 O501 1.967 . S
Co476 O508 1.920 . S
Co477 O480 1.966 . S
Co477 N486 2.022 . S
Co477 N494 1.993 . S
Co477 O502 1.941 . S
C478 O479 1.258 . S
C478 O480 1.263 . S
O479 Co476 1.970 . S
O479 C478 1.258 . S
O480 Co477 1.966 . S
O480 C478 1.263 . S
C481 O482 1.235 . S
C481 O508 1.289 . S
O482 C481 1.235 . S
C483 C485 1.400 . S
C483 N486 1.351 . S
C483 C488 1.501 . S
C484 C485 1.387 . S
C484 N487 1.341 . S
C485 C483 1.400 . S
C485 C484 1.387 . S
N486 Co477 2.022 . S
N486 C483 1.351 . S
N486 N487 1.365 . S
N487 C484 1.341 . S
N487 N486 1.365 . S
N487 H507 0.862 . S
C488 C483 1.501 . S
C488 H489 0.961 . S
C488 H490 0.961 . S
C488 H491 0.960 . S
H489 C488 0.961 . S
H490 C488 0.961 . S
H491 C488 0.960 . S
C492 N493 1.342 . S
C492 C496 1.401 . S
C492 C497 1.499 . S
N493 Co476 1.989 . S
N493 C492 1.342 . S
N493 N494 1.388 . S
N494 Co477 1.993 . S
N494 N493 1.388 . S
N494 C495 1.346 . S
C495 N494 1.346 . S
C495 C496 1.396 . S
C495 C505 1.510 . S
C496 C492 1.401 . S
C496 C495 1.396 . S
C497 C492 1.499 . S
C497 H498 0.959 . S
C497 H499 0.960 . S
C497 H500 0.961 . S
H498 C497 0.959 . S
H499 C497 0.960 . S
H500 C497 0.961 . S
O501 Co476 1.967 . S
O501 C509 1.258 . S
O502 Co477 1.941 . S
O502 C509 1.266 . S
H503 C505 0.959 . S
H504 C505 0.961 . S
C505 C495 1.510 . S
C505 H503 0.959 . S
C505 H504 0.961 . S
C505 H506 0.960 . S
H506 C505 0.960 . S
H507 N487 0.862 . S
O508 Co476 1.920 . S
O508 C481 1.289 . S
C509 O501 1.258 . S
C509 O502 1.266 . S
Co510 O513 1.970 . S
Co510 N527 1.989 . S
Co510 O535 1.967 . S
Co510 O542 1.920 . S
Co511 O514 1.966 . S
Co511 N520 2.022 . S
Co511 N528 1.993 . S
Co511 O536 1.941 . S
C512 O513 1.258 . S
C512 O514 1.263 . S
O513 Co510 1.970 . S
O513 C512 1.258 . S
O514 Co511 1.966 . S
O514 C512 1.263 . S
C515 O516 1.235 . S
C515 O542 1.289 . S
O516 C515 1.235 . S
C517 C519 1.400 . S
C517 N520 1.351 . S
C517 C522 1.501 . S
C518 C519 1.387 . S
C518 N521 1.341 . S
C519 C517 1.400 . S
C519 C518 1.387 . S
N520 Co511 2.022 . S
N520 C517 1.351 . S
N520 N521 1.365 . S
N521 C518 1.341 . S
N521 N520 1.365 . S
N521 H541 0.862 . S
C522 C517 1.501 . S
C522 H523 0.961 . S
C522 H524 0.961 . S
C522 H525 0.960 . S
H523 C522 0.961 . S
H524 C522 0.961 . S
H525 C522 0.960 . S
C526 N527 1.342 . S
C526 C530 1.401 . S
C526 C531 1.499 . S
N527 Co510 1.989 . S
N527 C526 1.342 . S
N527 N528 1.388 . S
N528 Co511 1.993 . S
N528 N527 1.388 . S
N528 C529 1.346 . S
C529 N528 1.346 . S
C529 C530 1.396 . S
C529 C539 1.510 . S
C530 C526 1.401 . S
C530 C529 1.396 . S
C531 C526 1.499 . S
C531 H532 0.959 . S
C531 H533 0.960 . S
C531 H534 0.961 . S
H532 C531 0.959 . S
H533 C531 0.960 . S
H534 C531 0.961 . S
O535 Co510 1.967 . S
O535 C543 1.258 . S
O536 Co511 1.941 . S
O536 C543 1.266 . S
H537 C539 0.959 . S
H538 C539 0.961 . S
C539 C529 1.510 . S
C539 H537 0.959 . S
C539 H538 0.961 . S
C539 H540 0.960 . S
H540 C539 0.960 . S
H541 N521 0.862 . S
O542 Co510 1.920 . S
O542 C515 1.289 . S
C543 O535 1.258 . S
C543 O536 1.266 . S
Co544 O547 1.970 . S
Co544 N561 1.989 . S
Co544 O569 1.967 . S
Co544 O576 1.920 . S
Co545 O548 1.966 . S
Co545 N554 2.022 . S
Co545 N562 1.993 . S
Co545 O570 1.941 . S
C546 O547 1.258 . S
C546 O548 1.263 . S
O547 Co544 1.970 . S
O547 C546 1.258 . S
O548 Co545 1.966 . S
O548 C546 1.263 . S
C549 O550 1.235 . S
C549 O576 1.289 . S
O550 C549 1.235 . S
C551 C553 1.400 . S
C551 N554 1.351 . S
C551 C556 1.501 . S
C552 C553 1.387 . S
C552 N555 1.341 . S
C553 C551 1.400 . S
C553 C552 1.387 . S
N554 Co545 2.022 . S
N554 C551 1.351 . S
N554 N555 1.365 . S
N555 C552 1.341 . S
N555 N554 1.365 . S
N555 H575 0.862 . S
C556 C551 1.501 . S
C556 H557 0.961 . S
C556 H558 0.961 . S
C556 H559 0.960 . S
H557 C556 0.961 . S
H558 C556 0.961 . S
H559 C556 0.960 . S
C560 N561 1.342 . S
C560 C564 1.401 . S
C560 C565 1.499 . S
N561 Co544 1.989 . S
N561 C560 1.342 . S
N561 N562 1.388 . S
N562 Co545 1.993 . S
N562 N561 1.388 . S
N562 C563 1.346 . S
C563 N562 1.346 . S
C563 C564 1.396 . S
C563 C573 1.510 . S
C564 C560 1.401 . S
C564 C563 1.396 . S
C565 C560 1.499 . S
C565 H566 0.959 . S
C565 H567 0.960 . S
C565 H568 0.961 . S
H566 C565 0.959 . S
H567 C565 0.960 . S
H568 C565 0.961 . S
O569 Co544 1.967 . S
O569 C577 1.258 . S
O570 Co545 1.941 . S
O570 C577 1.266 . S
H571 C573 0.959 . S
H572 C573 0.961 . S
C573 C563 1.510 . S
C573 H571 0.959 . S
C573 H572 0.961 . S
C573 H574 0.960 . S
H574 C573 0.960 . S
H575 N555 0.862 . S
O576 Co544 1.920 . S
O576 C549 1.289 . S
C577 O569 1.258 . S
C577 O570 1.266 . S
Co578 O581 1.970 . S
Co578 N595 1.989 . S
Co578 O603 1.967 . S
Co578 O610 1.920 . S
Co579 O582 1.966 . S
Co579 N588 2.022 . S
Co579 N596 1.993 . S
Co579 O604 1.941 . S
C580 O581 1.258 . S
C580 O582 1.263 . S
O581 Co578 1.970 . S
O581 C580 1.258 . S
O582 Co579 1.966 . S
O582 C580 1.263 . S
C583 O584 1.235 . S
C583 O610 1.289 . S
O584 C583 1.235 . S
C585 C587 1.400 . S
C585 N588 1.351 . S
C585 C590 1.501 . S
C586 C587 1.387 . S
C586 N589 1.341 . S
C587 C585 1.400 . S
C587 C586 1.387 . S
N588 Co579 2.022 . S
N588 C585 1.351 . S
N588 N589 1.365 . S
N589 C586 1.341 . S
N589 N588 1.365 . S
N589 H609 0.862 . S
C590 C585 1.501 . S
C590 H591 0.961 . S
C590 H592 0.961 . S
C590 H593 0.960 . S
H591 C590 0.961 . S
H592 C590 0.961 . S
H593 C590 0.960 . S
C594 N595 1.342 . S
C594 C598 1.401 . S
C594 C599 1.499 . S
N595 Co578 1.989 . S
N595 C594 1.342 . S
N595 N596 1.388 . S
N596 Co579 1.993 . S
N596 N595 1.388 . S
N596 C597 1.346 . S
C597 N596 1.346 . S
C597 C598 1.396 . S
C597 C607 1.510 . S
C598 C594 1.401 . S
C598 C597 1.396 . S
C599 C594 1.499 . S
C599 H600 0.959 . S
C599 H601 0.960 . S
C599 H602 0.961 . S
H600 C599 0.959 . S
H601 C599 0.960 . S
H602 C599 0.961 . S
O603 Co578 1.967 . S
O603 C611 1.258 . S
O604 Co579 1.941 . S
O604 C611 1.266 . S
H605 C607 0.959 . S
H606 C607 0.961 . S
C607 C597 1.510 . S
C607 H605 0.959 . S
C607 H606 0.961 . S
C607 H608 0.960 . S
H608 C607 0.960 . S
H609 N589 0.862 . S
O610 Co578 1.920 . S
O610 C583 1.289 . S
C611 O603 1.258 . S
C611 O604 1.266 . S
C612 C613 1.349 . S
C612 C614 1.327 . S
C612 H637 0.950 . S
C613 C612 1.349 . S
C613 C629 1.349 . S
C614 C612 1.327 . S
C614 C633 1.429 . S
C614 H638 0.950 . S
C615 C632 1.574 . S
C615 C634 1.368 . S
C615 H639 0.949 . S
H616 C620 0.949 . S
C617 C618 1.349 . S
C617 C619 1.327 . S
C617 H640 0.950 . S
C618 C617 1.349 . S
C618 C630 1.349 . S
C619 C617 1.327 . S
C619 C635 1.429 . S
C619 H641 0.950 . S
C620 H616 0.949 . S
C620 C628 1.574 . S
C620 C636 1.368 . S
H621 C629 0.950 . S
H622 C627 0.950 . S
H623 C628 0.949 . S
H624 C630 0.950 . S
H625 C631 0.950 . S
H626 C632 0.949 . S
C627 H622 0.950 . S
C627 C629 1.327 . S
C627 C633 1.429 . S
C628 C620 1.574 . S
C628 H623 0.949 . S
C628 C634 1.368 . S
C629 C613 1.349 . S
C629 H621 0.950 . S
C629 C627 1.327 . S
C630 C618 1.349 . S
C630 H624 0.950 . S
C630 C631 1.327 . S
C631 H625 0.950 . S
C631 C630 1.327 . S
C631 C635 1.429 . S
C632 C615 1.574 . S
C632 H626 0.949 . S
C632 C636 1.368 . S
C633 C614 1.429 . S
C633 C627 1.429 . S
C633 C634 1.523 . S
C634 C615 1.368 . S
C634 C628 1.368 . S
C634 C633 1.523 . S
C635 C619 1.429 . S
C635 C631 1.429 . S
C635 C636 1.523 . S
C636 C620 1.368 . S
C636 C632 1.368 . S
C636 C635 1.523 . S
H637 C612 0.950 . S
H638 C614 0.950 . S
H639 C615 0.949 . S
H640 C617 0.950 . S
H641 C619 0.950 . S
C642 C643 1.349 . S
C642 C644 1.327 . S
C642 H667 0.950 . S
C643 C642 1.349 . S
C643 C659 1.349 . S
C644 C642 1.327 . S
C644 C663 1.429 . S
C644 H668 0.950 . S
C645 C662 1.574 . S
C645 C664 1.368 . S
C645 H669 0.949 . S
H646 C650 0.949 . S
C647 C648 1.349 . S
C647 C649 1.327 . S
C647 H670 0.950 . S
C648 C647 1.349 . S
C648 C660 1.349 1_565 S
C649 C647 1.327 . S
C649 C665 1.429 . S
C649 H671 0.950 . S
C650 H646 0.949 . S
C650 C658 1.574 . S
C650 C666 1.368 . S
H651 C659 0.950 . S
H652 C657 0.950 . S
H653 C658 0.949 . S
H654 C660 0.950 . S
H655 C661 0.950 1_545 S
H656 C662 0.949 . S
C657 H652 0.950 . S
C657 C659 1.327 . S
C657 C663 1.429 . S
C658 C650 1.574 . S
C658 H653 0.949 . S
C658 C664 1.368 . S
C659 C643 1.349 . S
C659 H651 0.950 . S
C659 C657 1.327 . S
C660 C648 1.349 1_545 S
C660 H654 0.950 . S
C660 C661 1.327 1_545 S
C661 H655 0.950 1_565 S
C661 C660 1.327 1_565 S
C661 C665 1.429 . S
C662 C645 1.574 . S
C662 H656 0.949 . S
C662 C666 1.368 . S
C663 C644 1.429 . S
C663 C657 1.429 . S
C663 C664 1.523 . S
C664 C645 1.368 . S
C664 C658 1.368 . S
C664 C663 1.523 . S
C665 C649 1.429 . S
C665 C661 1.429 . S
C665 C666 1.523 . S
C666 C650 1.368 . S
C666 C662 1.368 . S
C666 C665 1.523 . S
H667 C642 0.950 . S
H668 C644 0.950 . S
H669 C645 0.949 . S
H670 C647 0.950 . S
H671 C649 0.950 . S
C672 C673 1.349 . S
C672 C674 1.327 . S
C672 H697 0.950 . S
C673 C672 1.349 . S
C673 C689 1.349 . S
C674 C672 1.327 . S
C674 C693 1.429 . S
C674 H698 0.950 . S
C675 C692 1.574 . S
C675 C694 1.368 . S
C675 H699 0.949 . S
H676 C680 0.949 . S
C677 C678 1.349 . S
C677 C679 1.327 . S
C677 H700 0.950 . S
C678 C677 1.349 . S
C678 C690 1.349 . S
C679 C677 1.327 . S
C679 C695 1.429 . S
C679 H701 0.950 . S
C680 H676 0.949 . S
C680 C688 1.574 . S
C680 C696 1.368 . S
H681 C689 0.950 1_655 S
H682 C687 0.950 . S
H683 C688 0.949 . S
H684 C690 0.950 . S
H685 C691 0.950 . S
H686 C692 0.949 . S
C687 H682 0.950 . S
C687 C689 1.327 . S
C687 C693 1.429 . S
C688 C680 1.574 . S
C688 H683 0.949 . S
C688 C694 1.368 . S
C689 C673 1.349 . S
C689 H681 0.950 1_455 S
C689 C687 1.327 . S
C690 C678 1.349 . S
C690 H684 0.950 . S
C690 C691 1.327 . S
C691 H685 0.950 . S
C691 C690 1.327 . S
C691 C695 1.429 . S
C692 C675 1.574 . S
C692 H686 0.949 . S
C692 C696 1.368 . S
C693 C674 1.429 . S
C693 C687 1.429 . S
C693 C694 1.523 . S
C694 C675 1.368 . S
C694 C688 1.368 . S
C694 C693 1.523 . S
C695 C679 1.429 . S
C695 C691 1.429 . S
C695 C696 1.523 . S
C696 C680 1.368 . S
C696 C692 1.368 . S
C696 C695 1.523 . S
H697 C672 0.950 . S
H698 C674 0.950 . S
H699 C675 0.949 . S
H700 C677 0.950 . S
H701 C679 0.950 . S
C702 C703 1.349 . S
C702 C704 1.327 . S
C702 H727 0.950 . S
C703 C702 1.349 . S
C703 C719 1.349 . S
C704 C702 1.327 . S
C704 C723 1.429 . S
C704 H728 0.950 . S
C705 C722 1.574 . S
C705 C724 1.368 . S
C705 H729 0.949 . S
H706 C710 0.949 . S
C707 C708 1.349 . S
C707 C709 1.327 . S
C707 H730 0.950 . S
C708 C707 1.349 . S
C708 C720 1.349 . S
C709 C707 1.327 . S
C709 C725 1.429 . S
C709 H731 0.950 . S
C710 H706 0.949 . S
C710 C718 1.574 . S
C710 C726 1.368 . S
H711 C719 0.950 . S
H712 C717 0.950 . S
H713 C718 0.949 . S
H714 C720 0.950 . S
H715 C721 0.950 . S
H716 C722 0.949 . S
C717 H712 0.950 . S
C717 C719 1.327 . S
C717 C723 1.429 . S
C718 C710 1.574 . S
C718 H713 0.949 . S
C718 C724 1.368 . S
C719 C703 1.349 . S
C719 H711 0.950 . S
C719 C717 1.327 . S
C720 C708 1.349 . S
C720 H714 0.950 . S
C720 C721 1.327 . S
C721 H715 0.950 . S
C721 C720 1.327 . S
C721 C725 1.429 . S
C722 C705 1.574 . S
C722 H716 0.949 . S
C722 C726 1.368 . S
C723 C704 1.429 . S
C723 C717 1.429 . S
C723 C724 1.523 . S
C724 C705 1.368 . S
C724 C718 1.368 . S
C724 C723 1.523 . S
C725 C709 1.429 . S
C725 C721 1.429 . S
C725 C726 1.523 . S
C726 C710 1.368 . S
C726 C722 1.368 . S
C726 C725 1.523 . S
H727 C702 0.950 . S
H728 C704 0.950 . S
H729 C705 0.949 . S
H730 C707 0.950 . S
H731 C709 0.950 . S
C732 C733 1.349 . S
C732 C734 1.327 . S
C732 H757 0.950 . S
C733 C732 1.349 . S
C733 C749 1.349 . S
C734 C732 1.327 . S
C734 C753 1.429 . S
C734 H758 0.950 . S
C735 C752 1.574 . S
C735 C754 1.368 . S
C735 H759 0.949 . S
H736 C740 0.949 . S
C737 C738 1.349 1_565 S
C737 C739 1.327 1_565 S
C737 H760 0.950 . S
C738 C737 1.349 1_545 S
C738 C750 1.349 . S
C739 C737 1.327 1_545 S
C739 C755 1.429 . S
C739 H761 0.950 1_545 S
C740 H736 0.949 . S
C740 C748 1.574 . S
C740 C756 1.368 . S
H741 C749 0.950 . S
H742 C747 0.950 . S
H743 C748 0.949 . S
H744 C750 0.950 . S
H745 C751 0.950 . S
H746 C752 0.949 . S
C747 H742 0.950 . S
C747 C749 1.327 . S
C747 C753 1.429 . S
C748 C740 1.574 . S
C748 H743 0.949 . S
C748 C754 1.368 . S
C749 C733 1.349 . S
C749 H741 0.950 . S
C749 C747 1.327 . S
C750 C738 1.349 . S
C750 H744 0.950 . S
C750 C751 1.327 . S
C751 H745 0.950 . S
C751 C750 1.327 . S
C751 C755 1.429 . S
C752 C735 1.574 . S
C752 H746 0.949 . S
C752 C756 1.368 . S
C753 C734 1.429 . S
C753 C747 1.429 . S
C753 C754 1.523 . S
C754 C735 1.368 . S
C754 C748 1.368 . S
C754 C753 1.523 . S
C755 C739 1.429 . S
C755 C751 1.429 . S
C755 C756 1.523 . S
C756 C740 1.368 . S
C756 C752 1.368 . S
C756 C755 1.523 . S
H757 C732 0.950 . S
H758 C734 0.950 . S
H759 C735 0.949 . S
H760 C737 0.950 . S
H761 C739 0.950 1_565 S
C762 C763 1.349 1_455 S
C762 C764 1.327 1_455 S
C762 H787 0.950 . S
C763 C762 1.349 1_655 S
C763 C779 1.349 . S
C764 C762 1.327 1_655 S
C764 C783 1.429 . S
C764 H788 0.950 1_655 S
C765 C782 1.574 . S
C765 C784 1.368 . S
C765 H789 0.949 . S
H766 C770 0.949 . S
C767 C768 1.349 . S
C767 C769 1.327 . S
C767 H790 0.950 . S
C768 C767 1.349 . S
C768 C780 1.349 . S
C769 C767 1.327 . S
C769 C785 1.429 . S
C769 H791 0.950 . S
C770 H766 0.949 . S
C770 C778 1.574 . S
C770 C786 1.368 . S
H771 C779 0.950 . S
H772 C777 0.950 . S
H773 C778 0.949 . S
H774 C780 0.950 . S
H775 C781 0.950 . S
H776 C782 0.949 . S
C777 H772 0.950 . S
C777 C779 1.327 . S
C777 C783 1.429 . S
C778 C770 1.574 . S
C778 H773 0.949 . S
C778 C784 1.368 . S
C779 C763 1.349 . S
C779 H771 0.950 . S
C779 C777 1.327 . S
C780 C768 1.349 . S
C780 H774 0.950 . S
C780 C781 1.327 . S
C781 H775 0.950 . S
C781 C780 1.327 . S
C781 C785 1.429 . S
C782 C765 1.574 . S
C782 H776 0.949 . S
C782 C786 1.368 . S
C783 C764 1.429 . S
C783 C777 1.429 . S
C783 C784 1.523 . S
C784 C765 1.368 . S
C784 C778 1.368 . S
C784 C783 1.523 . S
C785 C769 1.429 . S
C785 C781 1.429 . S
C785 C786 1.523 . S
C786 C770 1.368 . S
C786 C782 1.368 . S
C786 C785 1.523 . S
H787 C762 0.950 . S
H788 C764 0.950 1_455 S
H789 C765 0.949 . S
H790 C767 0.950 . S
H791 C769 0.950 . S
C792 C793 1.349 . S
C792 C794 1.327 . S
C792 H817 0.950 . S
C793 C792 1.349 . S
C793 C809 1.349 . S
C794 C792 1.327 . S
C794 C813 1.429 . S
C794 H818 0.950 . S
C795 C812 1.574 . S
C795 C814 1.368 . S
C795 H819 0.949 . S
H796 C800 0.949 . S
C797 C798 1.349 . S
C797 C799 1.327 . S
C797 H820 0.950 . S
C798 C797 1.349 . S
C798 C810 1.349 . S
C799 C797 1.327 . S
C799 C815 1.429 . S
C799 H821 0.950 . S
C800 H796 0.949 . S
C800 C808 1.574 . S
C800 C816 1.368 . S
H801 C809 0.950 . S
H802 C807 0.950 . S
H803 C808 0.949 . S
H804 C810 0.950 . S
H805 C811 0.950 . S
H806 C812 0.949 . S
C807 H802 0.950 . S
C807 C809 1.327 . S
C807 C813 1.429 . S
C808 C800 1.574 . S
C808 H803 0.949 . S
C808 C814 1.368 . S
C809 C793 1.349 . S
C809 H801 0.950 . S
C809 C807 1.327 . S
C810 C798 1.349 . S
C810 H804 0.950 . S
C810 C811 1.327 . S
C811 H805 0.950 . S
C811 C810 1.327 . S
C811 C815 1.429 . S
C812 C795 1.574 . S
C812 H806 0.949 . S
C812 C816 1.368 . S
C813 C794 1.429 . S
C813 C807 1.429 . S
C813 C814 1.523 . S
C814 C795 1.368 . S
C814 C808 1.368 . S
C814 C813 1.523 . S
C815 C799 1.429 . S
C815 C811 1.429 . S
C815 C816 1.523 . S
C816 C800 1.368 . S
C816 C812 1.368 . S
C816 C815 1.523 . S
H817 C792 0.950 . S
H818 C794 0.950 . S
H819 C795 0.949 . S
H820 C797 0.950 . S
H821 C799 0.950 . S
C822 C823 1.349 . S
C822 C824 1.327 1_565 S
C822 H847 0.950 1_565 S
C823 C822 1.349 . S
C823 C839 1.349 . S
C824 C822 1.327 1_545 S
C824 C843 1.429 1_545 S
C824 H848 0.950 . S
C825 C842 1.574 1_565 S
C825 C844 1.368 1_565 S
C825 H849 0.949 . S
H826 C830 0.949 . S
C827 C828 1.349 . S
C827 C829 1.327 . S
C827 H850 0.950 . S
C828 C827 1.349 . S
C828 C840 1.349 . S
C829 C827 1.327 . S
C829 C845 1.429 . S
C829 H851 0.950 . S
C830 H826 0.949 . S
C830 C838 1.574 . S
C830 C846 1.368 . S
H831 C839 0.950 . S
H832 C837 0.950 . S
H833 C838 0.949 . S
H834 C840 0.950 . S
H835 C841 0.950 . S
H836 C842 0.949 1_565 S
C837 H832 0.950 . S
C837 C839 1.327 . S
C837 C843 1.429 . S
C838 C830 1.574 . S
C838 H833 0.949 . S
C838 C844 1.368 . S
C839 C823 1.349 . S
C839 H831 0.950 . S
C839 C837 1.327 . S
C840 C828 1.349 . S
C840 H834 0.950 . S
C840 C841 1.327 . S
C841 H835 0.950 . S
C841 C840 1.327 . S
C841 C845 1.429 . S
C842 C825 1.574 1_545 S
C842 H836 0.949 1_545 S
C842 C846 1.368 . S
C843 C824 1.429 1_565 S
C843 C837 1.429 . S
C843 C844 1.523 1_565 S
C844 C825 1.368 1_545 S
C844 C838 1.368 . S
C844 C843 1.523 1_545 S
C845 C829 1.429 . S
C845 C841 1.429 . S
C845 C846 1.523 . S
C846 C830 1.368 . S
C846 C842 1.368 . S
C846 C845 1.523 . S
H847 C822 0.950 1_545 S
H848 C824 0.950 . S
H849 C825 0.949 . S
H850 C827 0.950 . S
H851 C829 0.950 . S
C852 C853 1.349 . S
C852 C854 1.327 1_455 S
C852 H877 0.967 . S
C853 C852 1.349 . S
C853 C869 1.349 . S
C854 C852 1.327 1_655 S
C854 C873 1.429 1_655 S
C854 H878 0.950 . S
C855 C872 1.574 1_455 S
C855 C874 1.368 1_455 S
C855 H879 0.949 . S
H856 C860 0.949 . S
C857 C858 1.349 . S
C857 C859 1.327 . S
C857 H880 0.950 . S
C858 C857 1.349 . S
C858 C870 1.349 . S
C859 C857 1.327 . S
C859 C875 1.429 . S
C859 H881 0.950 . S
C860 H856 0.949 . S
C860 C868 1.574 . S
C860 C876 1.368 . S
H861 C869 0.950 . S
H862 C867 0.950 . S
H863 C868 0.949 . S
H864 C870 0.950 . S
H865 C871 0.950 . S
H866 C872 0.949 . S
C867 H862 0.950 . S
C867 C869 1.327 . S
C867 C873 1.429 . S
C868 C860 1.574 . S
C868 H863 0.949 . S
C868 C874 1.368 . S
C869 C853 1.349 . S
C869 H861 0.950 . S
C869 C867 1.327 . S
C870 C858 1.349 . S
C870 H864 0.950 . S
C870 C871 1.327 . S
C871 H865 0.950 . S
C871 C870 1.327 . S
C871 C875 1.429 . S
C872 C855 1.574 1_655 S
C872 H866 0.949 . S
C872 C876 1.368 . S
C873 C854 1.429 1_455 S
C873 C867 1.429 . S
C873 C874 1.523 1_455 S
C874 C855 1.368 1_655 S
C874 C868 1.368 . S
C874 C873 1.523 1_655 S
C875 C859 1.429 . S
C875 C871 1.429 . S
C875 C876 1.523 . S
C876 C860 1.368 . S
C876 C872 1.368 . S
C876 C875 1.523 . S
H877 C852 0.967 . S
H878 C854 0.950 . S
H879 C855 0.949 . S
H880 C857 0.950 . S
H881 C859 0.950 . S
C882 C883 1.349 . S
C882 C884 1.327 . S
C882 H907 0.950 . S
C883 C882 1.349 . S
C883 C899 1.349 . S
C884 C882 1.327 . S
C884 C903 1.429 . S
C884 H908 0.950 . S
C885 C902 1.574 . S
C885 C904 1.368 . S
C885 H909 0.949 . S
H886 C890 0.949 . S
C887 C888 1.349 . S
C887 C889 1.327 . S
C887 H910 0.950 . S
C888 C887 1.349 . S
C888 C900 1.349 . S
C889 C887 1.327 . S
C889 C905 1.429 . S
C889 H911 0.950 . S
C890 H886 0.949 . S
C890 C898 1.574 . S
C890 C906 1.368 . S
H891 C899 0.950 . S
H892 C897 0.950 . S
H893 C898 0.949 . S
H894 C900 0.950 . S
H895 C901 0.950 . S
H896 C902 0.949 . S
C897 H892 0.950 . S
C897 C899 1.327 . S
C897 C903 1.429 . S
C898 C890 1.574 . S
C898 H893 0.949 . S
C898 C904 1.368 . S
C899 C883 1.349 . S
C899 H891 0.950 . S
C899 C897 1.327 . S
C900 C888 1.349 . S
C900 H894 0.950 . S
C900 C901 1.327 . S
C901 H895 0.950 . S
C901 C900 1.327 . S
C901 C905 1.429 . S
C902 C885 1.574 . S
C902 H896 0.949 . S
C902 C906 1.368 . S
C903 C884 1.429 . S
C903 C897 1.429 . S
C903 C904 1.523 . S
C904 C885 1.368 . S
C904 C898 1.368 . S
C904 C903 1.523 . S
C905 C889 1.429 . S
C905 C901 1.429 . S
C905 C906 1.523 . S
C906 C890 1.368 . S
C906 C902 1.368 . S
C906 C905 1.523 . S
H907 C882 0.950 . S
H908 C884 0.950 . S
H909 C885 0.949 . S
H910 C887 0.950 . S
H911 C889 0.950 . S
C912 C913 1.349 . S
C912 C914 1.327 . S
C912 H937 0.950 . S
C913 C912 1.349 . S
C913 C929 1.349 . S
C914 C912 1.327 . S
C914 C933 1.429 . S
C914 H938 0.950 . S
C915 C932 1.574 . S
C915 C934 1.368 . S
C915 H939 0.949 . S
H916 C920 0.949 . S
C917 C918 1.349 . S
C917 C919 1.327 1_545 S
C917 H940 0.950 . S
C918 C917 1.349 . S
C918 C930 1.349 . S
C919 C917 1.327 1_565 S
C919 C935 1.429 1_565 S
C919 H941 0.950 . S
C920 H916 0.949 . S
C920 C928 1.574 1_545 S
C920 C936 1.368 1_545 S
H921 C929 0.950 . S
H922 C927 0.950 . S
H923 C928 0.949 . S
H924 C930 0.950 . S
H925 C931 0.950 . S
H926 C932 0.949 . S
C927 H922 0.950 . S
C927 C929 1.327 . S
C927 C933 1.429 . S
C928 C920 1.574 1_565 S
C928 H923 0.949 . S
C928 C934 1.368 . S
C929 C913 1.349 . S
C929 H921 0.950 . S
C929 C927 1.327 . S
C930 C918 1.349 . S
C930 H924 0.950 . S
C930 C931 1.327 . S
C931 H925 0.950 . S
C931 C930 1.327 . S
C931 C935 1.429 . S
C932 C915 1.574 . S
C932 H926 0.949 . S
C932 C936 1.368 . S
C933 C914 1.429 . S
C933 C927 1.429 . S
C933 C934 1.523 . S
C934 C915 1.368 . S
C934 C928 1.368 . S
C934 C933 1.523 . S
C935 C919 1.429 1_545 S
C935 C931 1.429 . S
C935 C936 1.523 1_545 S
C936 C920 1.368 1_565 S
C936 C932 1.368 . S
C936 C935 1.523 1_565 S
H937 C912 0.950 . S
H938 C914 0.950 . S
H939 C915 0.949 . S
H940 C917 0.950 . S
H941 C919 0.950 . S
C942 C943 1.349 . S
C942 C944 1.327 . S
C942 H967 0.950 . S
C943 C942 1.349 . S
C943 C959 1.349 . S
C944 C942 1.327 . S
C944 C963 1.429 . S
C944 H968 0.950 . S
C945 C962 1.574 . S
C945 C964 1.368 . S
C945 H969 0.949 . S
H946 C950 0.949 . S
C947 C948 1.349 . S
C947 C949 1.327 1_655 S
C947 H970 0.950 1_655 S
C948 C947 1.349 . S
C948 C960 1.349 . S
C949 C947 1.327 1_455 S
C949 C965 1.429 1_455 S
C949 H971 0.950 . S
C950 H946 0.949 . S
C950 C958 1.574 1_655 S
C950 C966 1.368 1_655 S
H951 C959 0.950 . S
H952 C957 0.950 . S
H953 C958 0.949 1_655 S
H954 C960 0.950 . S
H955 C961 0.950 . S
H956 C962 0.949 . S
C957 H952 0.950 . S
C957 C959 1.327 . S
C957 C963 1.429 . S
C958 C950 1.574 1_455 S
C958 H953 0.949 1_455 S
C958 C964 1.368 . S
C959 C943 1.349 . S
C959 H951 0.950 . S
C959 C957 1.327 . S
C960 C948 1.349 . S
C960 H954 0.950 . S
C960 C961 1.327 . S
C961 H955 0.950 . S
C961 C960 1.327 . S
C961 C965 1.429 . S
C962 C945 1.574 . S
C962 H956 0.949 . S
C962 C966 1.368 . S
C963 C944 1.429 . S
C963 C957 1.429 . S
C963 C964 1.523 . S
C964 C945 1.368 . S
C964 C958 1.368 . S
C964 C963 1.523 . S
C965 C949 1.429 1_655 S
C965 C961 1.429 . S
C965 C966 1.523 1_655 S
C966 C950 1.368 1_455 S
C966 C962 1.368 . S
C966 C965 1.523 1_455 S
H967 C942 0.950 . S
H968 C944 0.950 . S
H969 C945 0.949 . S
H970 C947 0.950 1_455 S
H971 C949 0.950 . S
C972 C973 1.349 . S
C972 C974 1.327 . S
C972 H997 0.950 . S
C973 C972 1.349 . S
C973 C989 1.349 . S
C974 C972 1.327 . S
C974 C993 1.429 . S
C974 H998 0.950 . S
C975 C992 1.574 1_455 S
C975 C994 1.368 . S
C975 H999 0.949 . S
H976 C980 0.949 . S
C977 C978 1.349 . S
C977 C979 1.327 . S
C977 H1000 0.950 . S
C978 C977 1.349 . S
C978 C990 1.349 . S
C979 C977 1.327 . S
C979 C995 1.429 . S
C979 H1001 0.950 . S
C980 H976 0.949 . S
C980 C988 1.574 1_655 S
C980 C996 1.368 . S
H981 C989 0.950 . S
H982 C987 0.950 . S
H983 C988 0.949 . S
H984 C990 0.950 . S
H985 C991 0.950 . S
H986 C992 0.949 . S
C987 H982 0.950 . S
C987 C989 1.327 . S
C987 C993 1.429 . S
C988 C980 1.574 1_455 S
C988 H983 0.949 . S
C988 C994 1.368 . S
C989 C973 1.349 . S
C989 H981 0.950 . S
C989 C987 1.327 . S
C990 C978 1.349 . S
C990 H984 0.950 . S
C990 C991 1.327 . S
C991 H985 0.950 . S
C991 C990 1.327 . S
C991 C995 1.429 . S
C992 C975 1.574 1_655 S
C992 H986 0.949 . S
C992 C996 1.368 . S
C993 C974 1.429 . S
C993 C987 1.429 . S
C993 C994 1.523 . S
C994 C975 1.368 . S
C994 C988 1.368 . S
C994 C993 1.523 . S
C995 C979 1.429 . S
C995 C991 1.429 . S
C995 C996 1.523 . S
C996 C980 1.368 . S
C996 C992 1.368 . S
C996 C995 1.523 . S
H997 C972 0.950 . S
H998 C974 0.950 . S
H999 C975 0.949 . S
H1000 C977 0.950 . S
H1001 C979 0.950 . S
C1002 C1003 1.349 . S
C1002 C1004 1.327 . S
C1002 H1027 0.950 . S
C1003 C1002 1.349 . S
C1003 C1019 1.349 . S
C1004 C1002 1.327 . S
C1004 C1023 1.429 . S
C1004 H1028 0.950 . S
C1005 C1022 1.574 . S
C1005 C1024 1.368 . S
C1005 H1029 0.949 . S
H1006 C1010 0.949 . S
C1007 C1008 1.349 . S
C1007 C1009 1.327 . S
C1007 H1030 0.950 . S
C1008 C1007 1.349 . S
C1008 C1020 1.349 . S
C1009 C1007 1.327 . S
C1009 C1025 1.429 . S
C1009 H1031 0.950 . S
C1010 H1006 0.949 . S
C1010 C1018 1.574 . S
C1010 C1026 1.368 . S
H1011 C1019 0.950 . S
H1012 C1017 0.950 . S
H1013 C1018 0.949 . S
H1014 C1020 0.950 . S
H1015 C1021 0.950 . S
H1016 C1022 0.949 . S
C1017 H1012 0.950 . S
C1017 C1019 1.327 . S
C1017 C1023 1.429 . S
C1018 C1010 1.574 . S
C1018 H1013 0.949 . S
C1018 C1024 1.368 . S
C1019 C1003 1.349 . S
C1019 H1011 0.950 . S
C1019 C1017 1.327 . S
C1020 C1008 1.349 . S
C1020 H1014 0.950 . S
C1020 C1021 1.327 . S
C1021 H1015 0.950 . S
C1021 C1020 1.327 . S
C1021 C1025 1.429 . S
C1022 C1005 1.574 . S
C1022 H1016 0.949 . S
C1022 C1026 1.368 . S
C1023 C1004 1.429 . S
C1023 C1017 1.429 . S
C1023 C1024 1.523 . S
C1024 C1005 1.368 . S
C1024 C1018 1.368 . S
C1024 C1023 1.523 . S
C1025 C1009 1.429 . S
C1025 C1021 1.429 . S
C1025 C1026 1.523 . S
C1026 C1010 1.368 . S
C1026 C1022 1.368 . S
C1026 C1025 1.523 . S
H1027 C1002 0.950 . S
H1028 C1004 0.950 . S
H1029 C1005 0.949 . S
H1030 C1007 0.950 . S
H1031 C1009 0.950 . S
C1032 C1033 1.349 . S
C1032 C1034 1.327 . S
C1032 H1057 0.950 . S
C1033 C1032 1.349 . S
C1033 C1049 1.349 . S
C1034 C1032 1.327 . S
C1034 C1053 1.429 . S
C1034 H1058 0.950 . S
C1035 C1052 1.574 1_565 S
C1035 C1054 1.368 . S
C1035 H1059 0.949 . S
H1036 C1040 0.949 . S
C1037 C1038 1.349 . S
C1037 C1039 1.327 . S
C1037 H1060 0.950 . S
C1038 C1037 1.349 . S
C1038 C1050 1.349 . S
C1039 C1037 1.327 . S
C1039 C1055 1.429 . S
C1039 H1061 0.950 . S
C1040 H1036 0.949 . S
C1040 C1048 1.574 1_545 S
C1040 C1056 1.368 . S
H1041 C1049 0.950 . S
H1042 C1047 0.950 . S
H1043 C1048 0.949 . S
H1044 C1050 0.950 . S
H1045 C1051 0.950 . S
H1046 C1052 0.949 . S
C1047 H1042 0.950 . S
C1047 C1049 1.327 . S
C1047 C1053 1.429 . S
C1048 C1040 1.574 1_565 S
C1048 H1043 0.949 . S
C1048 C1054 1.368 . S
C1049 C1033 1.349 . S
C1049 H1041 0.950 . S
C1049 C1047 1.327 . S
C1050 C1038 1.349 . S
C1050 H1044 0.950 . S
C1050 C1051 1.327 . S
C1051 H1045 0.950 . S
C1051 C1050 1.327 . S
C1051 C1055 1.429 . S
C1052 C1035 1.574 1_545 S
C1052 H1046 0.949 . S
C1052 C1056 1.368 . S
C1053 C1034 1.429 . S
C1053 C1047 1.429 . S
C1053 C1054 1.523 . S
C1054 C1035 1.368 . S
C1054 C1048 1.368 . S
C1054 C1053 1.523 . S
C1055 C1039 1.429 . S
C1055 C1051 1.429 . S
C1055 C1056 1.523 . S
C1056 C1040 1.368 . S
C1056 C1052 1.368 . S
C1056 C1055 1.523 . S
H1057 C1032 0.950 . S
H1058 C1034 0.950 . S
H1059 C1035 0.949 . S
H1060 C1037 0.950 . S
H1061 C1039 0.950 . S
C1062 C1063 1.349 . S
C1062 C1064 1.327 . S
C1062 H1087 0.950 . S
C1063 C1062 1.349 . S
C1063 C1079 1.349 . S
C1064 C1062 1.327 . S
C1064 C1083 1.429 . S
C1064 H1088 0.950 . S
C1065 C1082 1.574 1_545 S
C1065 C1084 1.368 . S
C1065 H1089 0.949 . S
H1066 C1070 0.949 . S
C1067 C1068 1.349 . S
C1067 C1069 1.327 . S
C1067 H1090 0.950 . S
C1068 C1067 1.349 . S
C1068 C1080 1.349 . S
C1069 C1067 1.327 . S
C1069 C1085 1.429 . S
C1069 H1091 0.950 . S
C1070 H1066 0.949 . S
C1070 C1078 1.560 1_565 S
C1070 C1086 1.368 . S
H1071 C1079 0.950 . S
H1072 C1077 0.950 . S
H1073 C1078 0.948 . S
H1074 C1080 0.950 . S
H1075 C1081 0.950 . S
H1076 C1082 0.949 . S
C1077 H1072 0.950 . S
C1077 C1079 1.327 . S
C1077 C1083 1.429 . S
C1078 C1070 1.560 1_545 S
C1078 H1073 0.948 . S
C1078 C1084 1.383 . S
C1079 C1063 1.349 . S
C1079 H1071 0.950 . S
C1079 C1077 1.327 . S
C1080 C1068 1.349 . S
C1080 H1074 0.950 . S
C1080 C1081 1.327 . S
C1081 H1075 0.950 . S
C1081 C1080 1.327 . S
C1081 C1085 1.429 . S
C1082 C1065 1.574 1_565 S
C1082 H1076 0.949 . S
C1082 C1086 1.368 . S
C1083 C1064 1.429 . S
C1083 C1077 1.429 . S
C1083 C1084 1.523 . S
C1084 C1065 1.368 . S
C1084 C1078 1.383 . S
C1084 C1083 1.523 . S
C1085 C1069 1.429 . S
C1085 C1081 1.429 . S
C1085 C1086 1.523 . S
C1086 C1070 1.368 . S
C1086 C1082 1.368 . S
C1086 C1085 1.523 . S
H1087 C1062 0.950 . S
H1088 C1064 0.950 . S
H1089 C1065 0.949 . S
H1090 C1067 0.950 . S
H1091 C1069 0.950 . S
C1092 C1093 1.349 . S
C1092 C1094 1.327 . S
C1092 H1117 0.950 . S
C1093 C1092 1.349 . S
C1093 C1109 1.349 . S
C1094 C1092 1.327 . S
C1094 C1113 1.429 . S
C1094 H1118 0.950 . S
C1095 C1112 1.574 1_455 S
C1095 C1114 1.368 . S
C1095 H1119 0.949 . S
H1096 C1100 0.949 . S
C1097 C1098 1.349 . S
C1097 C1099 1.327 . S
C1097 H1120 0.950 . S
C1098 C1097 1.349 . S
C1098 C1110 1.349 . S
C1099 C1097 1.327 . S
C1099 C1115 1.429 . S
C1099 H1121 0.950 . S
C1100 H1096 0.949 . S
C1100 C1108 1.574 1_655 S
C1100 C1116 1.368 . S
H1101 C1109 0.950 . S
H1102 C1107 0.950 . S
H1103 C1108 0.949 . S
H1104 C1110 0.950 . S
H1105 C1111 0.950 . S
H1106 C1112 0.949 . S
C1107 H1102 0.950 . S
C1107 C1109 1.327 . S
C1107 C1113 1.429 . S
C1108 C1100 1.574 1_455 S
C1108 H1103 0.949 . S
C1108 C1114 1.368 . S
C1109 C1093 1.349 . S
C1109 H1101 0.950 . S
C1109 C1107 1.327 . S
C1110 C1098 1.349 . S
C1110 H1104 0.950 . S
C1110 C1111 1.327 . S
C1111 H1105 0.950 . S
C1111 C1110 1.327 . S
C1111 C1115 1.429 . S
C1112 C1095 1.574 1_655 S
C1112 H1106 0.949 . S
C1112 C1116 1.368 . S
C1113 C1094 1.429 . S
C1113 C1107 1.429 . S
C1113 C1114 1.523 . S
C1114 C1095 1.368 . S
C1114 C1108 1.368 . S
C1114 C1113 1.523 . S
C1115 C1099 1.429 . S
C1115 C1111 1.429 . S
C1115 C1116 1.523 . S
C1116 C1100 1.368 . S
C1116 C1112 1.368 . S
C1116 C1115 1.523 . S
H1117 C1092 0.950 . S
H1118 C1094 0.950 . S
H1119 C1095 0.949 . S
H1120 C1097 0.950 . S
H1121 C1099 0.950 . S
C1122 C1123 1.349 . S
C1122 C1124 1.327 . S
C1122 H1147 0.950 . S
C1123 C1122 1.349 . S
C1123 C1139 1.349 . S
C1124 C1122 1.327 . S
C1124 C1143 1.429 . S
C1124 H1148 0.950 . S
C1125 C1142 1.574 . S
C1125 C1144 1.368 . S
C1125 H1149 0.949 . S
H1126 C1130 0.949 . S
C1127 C1128 1.349 . S
C1127 C1129 1.327 . S
C1127 H1150 0.950 . S
C1128 C1127 1.349 . S
C1128 C1140 1.349 . S
C1129 C1127 1.327 . S
C1129 C1145 1.429 . S
C1129 H1151 0.950 . S
C1130 H1126 0.949 . S
C1130 C1138 1.574 . S
C1130 C1146 1.368 . S
H1131 C1139 0.950 . S
H1132 C1137 0.950 . S
H1133 C1138 0.949 . S
H1134 C1140 0.950 . S
H1135 C1141 0.950 . S
H1136 C1142 0.949 . S
C1137 H1132 0.950 . S
C1137 C1139 1.327 . S
C1137 C1143 1.429 . S
C1138 C1130 1.574 . S
C1138 H1133 0.949 . S
C1138 C1144 1.368 . S
C1139 C1123 1.349 . S
C1139 H1131 0.950 . S
C1139 C1137 1.327 . S
C1140 C1128 1.349 . S
C1140 H1134 0.950 . S
C1140 C1141 1.327 . S
C1141 H1135 0.950 . S
C1141 C1140 1.327 . S
C1141 C1145 1.429 . S
C1142 C1125 1.574 . S
C1142 H1136 0.949 . S
C1142 C1146 1.368 . S
C1143 C1124 1.429 . S
C1143 C1137 1.429 . S
C1143 C1144 1.523 . S
C1144 C1125 1.368 . S
C1144 C1138 1.368 . S
C1144 C1143 1.523 . S
C1145 C1129 1.429 . S
C1145 C1141 1.429 . S
C1145 C1146 1.523 . S
C1146 C1130 1.368 . S
C1146 C1142 1.368 . S
C1146 C1145 1.523 . S
H1147 C1122 0.950 . S
H1148 C1124 0.950 . S
H1149 C1125 0.949 . S
H1150 C1127 0.950 . S
H1151 C1129 0.950 . S
C1152 C1153 1.349 . S
C1152 C1154 1.327 . S
C1152 H1177 0.950 . S
C1153 C1152 1.349 . S
C1153 C1169 1.349 . S
C1154 C1152 1.327 . S
C1154 C1173 1.429 . S
C1154 H1178 0.950 . S
C1155 C1172 1.574 . S
C1155 C1174 1.368 . S
C1155 H1179 0.949 . S
H1156 C1160 0.949 . S
C1157 C1158 1.349 . S
C1157 C1159 1.327 . S
C1157 H1180 0.950 . S
C1158 C1157 1.349 . S
C1158 C1170 1.349 . S
C1159 C1157 1.327 . S
C1159 C1175 1.429 . S
C1159 H1181 0.950 . S
C1160 H1156 0.949 . S
C1160 C1168 1.574 . S
C1160 C1176 1.368 . S
H1161 C1169 0.950 . S
H1162 C1167 0.950 . S
H1163 C1168 0.949 . S
H1164 C1170 0.950 . S
H1165 C1171 0.950 . S
H1166 C1172 0.949 . S
C1167 H1162 0.950 . S
C1167 C1169 1.327 . S
C1167 C1173 1.429 . S
C1168 C1160 1.574 . S
C1168 H1163 0.949 . S
C1168 C1174 1.368 . S
C1169 C1153 1.349 . S
C1169 H1161 0.950 . S
C1169 C1167 1.327 . S
C1170 C1158 1.349 . S
C1170 H1164 0.950 . S
C1170 C1171 1.327 . S
C1171 H1165 0.950 . S
C1171 C1170 1.327 . S
C1171 C1175 1.429 . S
C1172 C1155 1.574 . S
C1172 H1166 0.949 . S
C1172 C1176 1.368 . S
C1173 C1154 1.429 . S
C1173 C1167 1.429 . S
C1173 C1174 1.523 . S
C1174 C1155 1.368 . S
C1174 C1168 1.368 . S
C1174 C1173 1.523 . S
C1175 C1159 1.429 . S
C1175 C1171 1.429 . S
C1175 C1176 1.523 . S
C1176 C1160 1.368 . S
C1176 C1172 1.368 . S
C1176 C1175 1.523 . S
H1177 C1152 0.950 . S
H1178 C1154 0.950 . S
H1179 C1155 0.949 . S
H1180 C1157 0.950 . S
H1181 C1159 0.950 . S
C1182 C1183 1.349 . S
C1182 C1184 1.327 . S
C1182 H1207 0.950 . S
C1183 C1182 1.349 . S
C1183 C1199 1.349 . S
C1184 C1182 1.327 . S
C1184 C1203 1.429 . S
C1184 H1208 0.950 . S
C1185 C1202 1.574 . S
C1185 C1204 1.368 . S
C1185 H1209 0.949 . S
H1186 C1190 0.949 . S
C1187 C1188 1.349 . S
C1187 C1189 1.327 . S
C1187 H1210 0.950 . S
C1188 C1187 1.349 . S
C1188 C1200 1.349 . S
C1189 C1187 1.327 . S
C1189 C1205 1.429 . S
C1189 H1211 0.950 . S
C1190 H1186 0.949 . S
C1190 C1198 1.574 . S
C1190 C1206 1.368 . S
H1191 C1199 0.950 . S
H1192 C1197 0.950 . S
H1193 C1198 0.949 . S
H1194 C1200 0.950 . S
H1195 C1201 0.950 . S
H1196 C1202 0.949 . S
C1197 H1192 0.950 . S
C1197 C1199 1.327 . S
C1197 C1203 1.429 . S
C1198 C1190 1.574 . S
C1198 H1193 0.949 . S
C1198 C1204 1.368 . S
C1199 C1183 1.349 . S
C1199 H1191 0.950 . S
C1199 C1197 1.327 . S
C1200 C1188 1.349 . S
C1200 H1194 0.950 . S
C1200 C1201 1.327 . S
C1201 H1195 0.950 . S
C1201 C1200 1.327 . S
C1201 C1205 1.429 . S
C1202 C1185 1.574 . S
C1202 H1196 0.949 . S
C1202 C1206 1.368 . S
C1203 C1184 1.429 . S
C1203 C1197 1.429 . S
C1203 C1204 1.523 . S
C1204 C1185 1.368 . S
C1204 C1198 1.368 . S
C1204 C1203 1.523 . S
C1205 C1189 1.429 . S
C1205 C1201 1.429 . S
C1205 C1206 1.523 . S
C1206 C1190 1.368 . S
C1206 C1202 1.368 . S
C1206 C1205 1.523 . S
H1207 C1182 0.950 . S
H1208 C1184 0.950 . S
H1209 C1185 0.949 . S
H1210 C1187 0.950 . S
H1211 C1189 0.950 . S
C1212 C1213 1.349 . S
C1212 C1214 1.327 . S
C1212 H1237 0.950 . S
C1213 C1212 1.349 . S
C1213 C1229 1.349 . S
C1214 C1212 1.327 . S
C1214 C1233 1.429 . S
C1214 H1238 0.950 . S
C1215 C1232 1.574 . S
C1215 C1234 1.368 . S
C1215 H1239 0.949 . S
H1216 C1220 0.949 . S
C1217 C1218 1.349 . S
C1217 C1219 1.327 . S
C1217 H1240 0.950 . S
C1218 C1217 1.349 . S
C1218 C1230 1.349 . S
C1219 C1217 1.327 . S
C1219 C1235 1.429 . S
C1219 H1241 0.950 . S
C1220 H1216 0.949 . S
C1220 C1228 1.574 . S
C1220 C1236 1.368 . S
H1221 C1229 0.950 . S
H1222 C1227 0.950 . S
H1223 C1228 0.949 . S
H1224 C1230 0.950 . S
H1225 C1231 0.950 . S
H1226 C1232 0.949 . S
C1227 H1222 0.950 . S
C1227 C1229 1.327 . S
C1227 C1233 1.429 . S
C1228 C1220 1.574 . S
C1228 H1223 0.949 . S
C1228 C1234 1.368 . S
C1229 C1213 1.349 . S
C1229 H1221 0.950 . S
C1229 C1227 1.327 . S
C1230 C1218 1.349 . S
C1230 H1224 0.950 . S
C1230 C1231 1.327 . S
C1231 H1225 0.950 . S
C1231 C1230 1.327 . S
C1231 C1235 1.429 . S
C1232 C1215 1.574 . S
C1232 H1226 0.949 . S
C1232 C1236 1.368 . S
C1233 C1214 1.429 . S
C1233 C1227 1.429 . S
C1233 C1234 1.523 . S
C1234 C1215 1.368 . S
C1234 C1228 1.368 . S
C1234 C1233 1.523 . S
C1235 C1219 1.429 . S
C1235 C1231 1.429 . S
C1235 C1236 1.523 . S
C1236 C1220 1.368 . S
C1236 C1232 1.368 . S
C1236 C1235 1.523 . S
H1237 C1212 0.950 . S
H1238 C1214 0.950 . S
H1239 C1215 0.949 . S
H1240 C1217 0.950 . S
H1241 C1219 0.950 . S
C1242 C1243 1.349 . S
C1242 C1244 1.327 . S
C1242 H1267 0.950 . S
C1243 C1242 1.349 . S
C1243 C1259 1.349 . S
C1244 C1242 1.327 . S
C1244 C1263 1.429 . S
C1244 H1268 0.950 . S
C1245 C1262 1.574 . S
C1245 C1264 1.368 . S
C1245 H1269 0.949 . S
H1246 C1250 0.949 . S
C1247 C1248 1.349 . S
C1247 C1249 1.327 . S
C1247 H1270 0.950 . S
C1248 C1247 1.349 . S
C1248 C1260 1.349 . S
C1249 C1247 1.327 . S
C1249 C1265 1.429 . S
C1249 H1271 0.950 . S
C1250 H1246 0.949 . S
C1250 C1258 1.574 . S
C1250 C1266 1.368 . S
H1251 C1259 0.950 . S
H1252 C1257 0.950 . S
H1253 C1258 0.949 . S
H1254 C1260 0.950 . S
H1255 C1261 0.950 . S
H1256 C1262 0.949 . S
C1257 H1252 0.950 . S
C1257 C1259 1.327 . S
C1257 C1263 1.429 . S
C1258 C1250 1.574 . S
C1258 H1253 0.949 . S
C1258 C1264 1.368 . S
C1259 C1243 1.349 . S
C1259 H1251 0.950 . S
C1259 C1257 1.327 . S
C1260 C1248 1.349 . S
C1260 H1254 0.950 . S
C1260 C1261 1.327 . S
C1261 H1255 0.950 . S
C1261 C1260 1.327 . S
C1261 C1265 1.429 . S
C1262 C1245 1.574 . S
C1262 H1256 0.949 . S
C1262 C1266 1.368 . S
C1263 C1244 1.429 . S
C1263 C1257 1.429 . S
C1263 C1264 1.523 . S
C1264 C1245 1.368 . S
C1264 C1258 1.368 . S
C1264 C1263 1.523 . S
C1265 C1249 1.429 . S
C1265 C1261 1.429 . S
C1265 C1266 1.523 . S
C1266 C1250 1.368 . S
C1266 C1262 1.368 . S
C1266 C1265 1.523 . S
H1267 C1242 0.950 . S
H1268 C1244 0.950 . S
H1269 C1245 0.949 . S
H1270 C1247 0.950 . S
H1271 C1249 0.950 . S
C1272 C1273 1.349 . S
C1272 C1274 1.327 . S
C1272 H1297 0.950 . S
C1273 C1272 1.349 . S
C1273 C1289 1.349 . S
C1274 C1272 1.327 . S
C1274 C1293 1.429 . S
C1274 H1298 0.950 . S
C1275 C1292 1.574 . S
C1275 C1294 1.368 . S
C1275 H1299 0.949 . S
H1276 C1280 0.949 . S
C1277 C1278 1.349 . S
C1277 C1279 1.327 . S
C1277 H1300 0.950 . S
C1278 C1277 1.349 . S
C1278 C1290 1.349 . S
C1279 C1277 1.327 . S
C1279 C1295 1.429 . S
C1279 H1301 0.950 . S
C1280 H1276 0.949 . S
C1280 C1288 1.574 . S
C1280 C1296 1.368 . S
H1281 C1289 0.950 . S
H1282 C1287 0.950 . S
H1283 C1288 0.949 . S
H1284 C1290 0.950 . S
H1285 C1291 0.950 . S
H1286 C1292 0.949 . S
C1287 H1282 0.950 . S
C1287 C1289 1.327 . S
C1287 C1293 1.429 . S
C1288 C1280 1.574 . S
C1288 H1283 0.949 . S
C1288 C1294 1.368 . S
C1289 C1273 1.349 . S
C1289 H1281 0.950 . S
C1289 C1287 1.327 . S
C1290 C1278 1.349 . S
C1290 H1284 0.950 . S
C1290 C1291 1.327 . S
C1291 H1285 0.950 . S
C1291 C1290 1.327 . S
C1291 C1295 1.429 . S
C1292 C1275 1.574 . S
C1292 H1286 0.949 . S
C1292 C1296 1.368 . S
C1293 C1274 1.429 . S
C1293 C1287 1.429 . S
C1293 C1294 1.523 . S
C1294 C1275 1.368 . S
C1294 C1288 1.368 . S
C1294 C1293 1.523 . S
C1295 C1279 1.429 . S
C1295 C1291 1.429 . S
C1295 C1296 1.523 . S
C1296 C1280 1.368 . S
C1296 C1292 1.368 . S
C1296 C1295 1.523 . S
H1297 C1272 0.950 . S
H1298 C1274 0.950 . S
H1299 C1275 0.949 . S
H1300 C1277 0.950 . S
H1301 C1279 0.950 . S
C1302 C1303 1.349 . S
C1302 C1304 1.327 . S
C1302 H1327 0.950 . S
C1303 C1302 1.349 . S
C1303 C1319 1.349 . S
C1304 C1302 1.327 . S
C1304 C1323 1.429 . S
C1304 H1328 0.950 . S
C1305 C1322 1.574 . S
C1305 C1324 1.368 . S
C1305 H1329 0.949 . S
H1306 C1310 0.949 . S
C1307 C1308 1.349 . S
C1307 C1309 1.327 . S
C1307 H1330 0.950 . S
C1308 C1307 1.349 . S
C1308 C1320 1.349 . S
C1309 C1307 1.327 . S
C1309 C1325 1.429 . S
C1309 H1331 0.950 . S
C1310 H1306 0.949 . S
C1310 C1318 1.574 . S
C1310 C1326 1.368 . S
H1311 C1319 0.950 . S
H1312 C1317 0.950 . S
H1313 C1318 0.949 . S
H1314 C1320 0.950 . S
H1315 C1321 0.950 . S
H1316 C1322 0.949 . S
C1317 H1312 0.950 . S
C1317 C1319 1.327 . S
C1317 C1323 1.429 . S
C1318 C1310 1.574 . S
C1318 H1313 0.949 . S
C1318 C1324 1.368 . S
C1319 C1303 1.349 . S
C1319 H1311 0.950 . S
C1319 C1317 1.327 . S
C1320 C1308 1.349 . S
C1320 H1314 0.950 . S
C1320 C1321 1.327 . S
C1321 H1315 0.950 . S
C1321 C1320 1.327 . S
C1321 C1325 1.429 . S
C1322 C1305 1.574 . S
C1322 H1316 0.949 . S
C1322 C1326 1.368 . S
C1323 C1304 1.429 . S
C1323 C1317 1.429 . S
C1323 C1324 1.523 . S
C1324 C1305 1.368 . S
C1324 C1318 1.368 . S
C1324 C1323 1.523 . S
C1325 C1309 1.429 . S
C1325 C1321 1.429 . S
C1325 C1326 1.523 . S
C1326 C1310 1.368 . S
C1326 C1322 1.368 . S
C1326 C1325 1.523 . S
H1327 C1302 0.950 . S
H1328 C1304 0.950 . S
H1329 C1305 0.949 . S
H1330 C1307 0.950 . S
H1331 C1309 0.950 . S
C1332 C1333 1.349 . S
C1332 C1334 1.327 . S
C1332 H1357 0.950 . S
C1333 C1332 1.349 . S
C1333 C1349 1.349 . S
C1334 C1332 1.327 . S
C1334 C1353 1.429 . S
C1334 H1358 0.950 . S
C1335 C1352 1.574 1_554 S
C1335 C1354 1.368 1_455 S
C1335 H1359 0.949 . S
H1336 C1340 0.949 . S
C1337 C1338 1.349 . S
C1337 C1339 1.327 . S
C1337 H1360 0.950 . S
C1338 C1337 1.349 . S
C1338 C1350 1.349 . S
C1339 C1337 1.327 . S
C1339 C1355 1.429 . S
C1339 H1361 0.950 . S
C1340 H1336 0.949 . S
C1340 C1348 1.574 1_556 S
C1340 C1356 1.368 1_655 S
H1341 C1349 0.950 . S
H1342 C1347 0.950 1_455 S
H1343 C1348 0.949 . S
H1344 C1350 0.950 . S
H1345 C1351 0.950 1_655 S
H1346 C1352 0.949 . S
C1347 H1342 0.950 1_655 S
C1347 C1349 1.327 . S
C1347 C1353 1.429 . S
C1348 C1340 1.574 1_554 S
C1348 H1343 0.949 . S
C1348 C1354 1.368 . S
C1349 C1333 1.349 . S
C1349 H1341 0.950 . S
C1349 C1347 1.327 . S
C1350 C1338 1.349 . S
C1350 H1344 0.950 . S
C1350 C1351 1.327 . S
C1351 H1345 0.950 1_455 S
C1351 C1350 1.327 . S
C1351 C1355 1.429 . S
C1352 C1335 1.574 1_556 S
C1352 H1346 0.949 . S
C1352 C1356 1.368 . S
C1353 C1334 1.429 . S
C1353 C1347 1.429 . S
C1353 C1354 1.523 . S
C1354 C1335 1.368 1_655 S
C1354 C1348 1.368 . S
C1354 C1353 1.523 . S
C1355 C1339 1.429 . S
C1355 C1351 1.429 . S
C1355 C1356 1.523 . S
C1356 C1340 1.368 1_455 S
C1356 C1352 1.368 . S
C1356 C1355 1.523 . S
H1357 C1332 0.950 . S
H1358 C1334 0.950 . S
H1359 C1335 0.949 . S
H1360 C1337 0.950 . S
H1361 C1339 0.950 . S
C1362 C1363 1.349 . S
C1362 C1364 1.327 . S
C1362 H1387 0.950 . S
C1363 C1362 1.349 . S
C1363 C1379 1.349 . S
C1364 C1362 1.327 . S
C1364 C1383 1.429 . S
C1364 H1388 0.950 . S
C1365 C1382 1.574 1_554 S
C1365 C1384 1.368 . S
C1365 H1389 0.949 . S
H1366 C1370 0.949 . S
C1367 C1368 1.349 . S
C1367 C1369 1.327 . S
C1367 H1390 0.950 . S
C1368 C1367 1.349 . S
C1368 C1380 1.349 . S
C1369 C1367 1.327 . S
C1369 C1385 1.429 . S
C1369 H1391 0.950 . S
C1370 H1366 0.949 . S
C1370 C1378 1.574 1_556 S
C1370 C1386 1.368 . S
H1371 C1379 0.950 . S
H1372 C1377 0.950 . S
H1373 C1378 0.949 . S
H1374 C1380 0.950 . S
H1375 C1381 0.950 . S
H1376 C1382 0.949 . S
C1377 H1372 0.950 . S
C1377 C1379 1.327 . S
C1377 C1383 1.429 . S
C1378 C1370 1.574 1_554 S
C1378 H1373 0.949 . S
C1378 C1384 1.368 . S
C1379 C1363 1.349 . S
C1379 H1371 0.950 . S
C1379 C1377 1.327 . S
C1380 C1368 1.349 . S
C1380 H1374 0.950 . S
C1380 C1381 1.327 . S
C1381 H1375 0.950 . S
C1381 C1380 1.327 . S
C1381 C1385 1.429 . S
C1382 C1365 1.574 1_556 S
C1382 H1376 0.949 . S
C1382 C1386 1.368 . S
C1383 C1364 1.429 . S
C1383 C1377 1.429 . S
C1383 C1384 1.523 . S
C1384 C1365 1.368 . S
C1384 C1378 1.368 . S
C1384 C1383 1.523 . S
C1385 C1369 1.429 . S
C1385 C1381 1.429 . S
C1385 C1386 1.523 . S
C1386 C1370 1.368 . S
C1386 C1382 1.368 . S
C1386 C1385 1.523 . S
H1387 C1362 0.950 . S
H1388 C1364 0.950 . S
H1389 C1365 0.949 . S
H1390 C1367 0.950 . S
H1391 C1369 0.950 . S
C1392 C1393 1.349 . S
C1392 C1394 1.327 . S
C1392 H1417 0.950 . S
C1393 C1392 1.349 . S
C1393 C1409 1.349 . S
C1394 C1392 1.327 . S
C1394 C1413 1.429 . S
C1394 H1418 0.950 . S
C1395 C1412 1.574 1_554 S
C1395 C1414 1.368 1_565 S
C1395 H1419 0.949 . S
H1396 C1400 0.949 . S
C1397 C1398 1.349 . S
C1397 C1399 1.327 . S
C1397 H1420 0.950 . S
C1398 C1397 1.349 . S
C1398 C1410 1.349 . S
C1399 C1397 1.327 . S
C1399 C1415 1.429 . S
C1399 H1421 0.950 . S
C1400 H1396 0.949 . S
C1400 C1408 1.574 1_556 S
C1400 C1416 1.368 1_545 S
H1401 C1409 0.950 . S
H1402 C1407 0.950 1_565 S
H1403 C1408 0.949 . S
H1404 C1410 0.950 . S
H1405 C1411 0.950 1_545 S
H1406 C1412 0.949 . S
C1407 H1402 0.950 1_545 S
C1407 C1409 1.327 . S
C1407 C1413 1.429 . S
C1408 C1400 1.574 1_554 S
C1408 H1403 0.949 . S
C1408 C1414 1.368 . S
C1409 C1393 1.349 . S
C1409 H1401 0.950 . S
C1409 C1407 1.327 . S
C1410 C1398 1.349 . S
C1410 H1404 0.950 . S
C1410 C1411 1.327 . S
C1411 H1405 0.950 1_565 S
C1411 C1410 1.327 . S
C1411 C1415 1.429 . S
C1412 C1395 1.574 1_556 S
C1412 H1406 0.949 . S
C1412 C1416 1.368 . S
C1413 C1394 1.429 . S
C1413 C1407 1.429 . S
C1413 C1414 1.523 . S
C1414 C1395 1.368 1_545 S
C1414 C1408 1.368 . S
C1414 C1413 1.523 . S
C1415 C1399 1.429 . S
C1415 C1411 1.429 . S
C1415 C1416 1.523 . S
C1416 C1400 1.368 1_565 S
C1416 C1412 1.368 . S
C1416 C1415 1.523 . S
H1417 C1392 0.950 . S
H1418 C1394 0.950 . S
H1419 C1395 0.949 . S
H1420 C1397 0.950 . S
H1421 C1399 0.950 . S
C1422 C1423 1.349 . S
C1422 C1424 1.327 . S
C1422 H1447 0.950 1_545 S
C1423 C1422 1.349 . S
C1423 C1439 1.349 . S
C1424 C1422 1.327 . S
C1424 C1443 1.429 . S
C1424 H1448 0.950 . S
C1425 C1442 1.574 . S
C1425 C1444 1.368 . S
C1425 H1449 0.949 . S
H1426 C1430 0.949 . S
C1427 C1428 1.349 . S
C1427 C1429 1.327 . S
C1427 H1450 0.950 . S
C1428 C1427 1.349 . S
C1428 C1440 1.349 . S
C1429 C1427 1.327 . S
C1429 C1445 1.429 . S
C1429 H1451 0.950 . S
C1430 H1426 0.949 . S
C1430 C1438 1.574 . S
C1430 C1446 1.368 . S
H1431 C1439 0.950 . S
H1432 C1437 0.950 . S
H1433 C1438 0.949 . S
H1434 C1440 0.950 . S
H1435 C1441 0.950 . S
H1436 C1442 0.949 . S
C1437 H1432 0.950 . S
C1437 C1439 1.327 . S
C1437 C1443 1.429 . S
C1438 C1430 1.574 . S
C1438 H1433 0.949 . S
C1438 C1444 1.368 . S
C1439 C1423 1.349 . S
C1439 H1431 0.950 . S
C1439 C1437 1.327 . S
C1440 C1428 1.349 . S
C1440 H1434 0.950 . S
C1440 C1441 1.327 . S
C1441 H1435 0.950 . S
C1441 C1440 1.327 . S
C1441 C1445 1.429 . S
C1442 C1425 1.574 . S
C1442 H1436 0.949 . S
C1442 C1446 1.368 . S
C1443 C1424 1.429 . S
C1443 C1437 1.429 . S
C1443 C1444 1.523 . S
C1444 C1425 1.368 . S
C1444 C1438 1.368 . S
C1444 C1443 1.523 . S
C1445 C1429 1.429 . S
C1445 C1441 1.429 . S
C1445 C1446 1.523 . S
C1446 C1430 1.368 . S
C1446 C1442 1.368 . S
C1446 C1445 1.523 . S
H1447 C1422 0.950 1_565 S
H1448 C1424 0.950 . S
H1449 C1425 0.949 . S
H1450 C1427 0.950 . S
H1451 C1429 0.950 . S
C1452 C1453 1.349 . S
C1452 C1454 1.327 . S
C1452 H1477 0.950 . S
C1453 C1452 1.349 . S
C1453 C1469 1.349 . S
C1454 C1452 1.327 . S
C1454 C1473 1.429 1_565 S
C1454 H1478 0.950 1_565 S
C1455 C1472 1.574 . S
C1455 C1474 1.368 . S
C1455 H1479 0.949 . S
H1456 C1460 0.949 . S
C1457 C1458 1.349 . S
C1457 C1459 1.327 . S
C1457 H1480 0.950 1_655 S
C1458 C1457 1.349 . S
C1458 C1470 1.349 . S
C1459 C1457 1.327 . S
C1459 C1475 1.429 . S
C1459 H1481 0.950 . S
C1460 H1456 0.949 . S
C1460 C1468 1.574 . S
C1460 C1476 1.368 . S
H1461 C1469 0.950 . S
H1462 C1467 0.950 . S
H1463 C1468 0.949 . S
H1464 C1470 0.950 . S
H1465 C1471 0.950 . S
H1466 C1472 0.949 . S
C1467 H1462 0.950 . S
C1467 C1469 1.327 . S
C1467 C1473 1.429 1_565 S
C1468 C1460 1.574 . S
C1468 H1463 0.949 . S
C1468 C1474 1.368 . S
C1469 C1453 1.349 . S
C1469 H1461 0.950 . S
C1469 C1467 1.327 . S
C1470 C1458 1.349 . S
C1470 H1464 0.950 . S
C1470 C1471 1.327 . S
C1471 H1465 0.950 . S
C1471 C1470 1.327 . S
C1471 C1475 1.429 . S
C1472 C1455 1.574 . S
C1472 H1466 0.949 . S
C1472 C1476 1.368 . S
C1473 C1454 1.429 1_545 S
C1473 C1467 1.429 1_545 S
C1473 C1474 1.523 . S
C1474 C1455 1.368 . S
C1474 C1468 1.368 . S
C1474 C1473 1.523 . S
C1475 C1459 1.429 . S
C1475 C1471 1.429 . S
C1475 C1476 1.523 . S
C1476 C1460 1.368 . S
C1476 C1472 1.368 . S
C1476 C1475 1.523 . S
H1477 C1452 0.950 . S
H1478 C1454 0.950 1_545 S
H1479 C1455 0.949 . S
H1480 C1457 0.950 1_455 S
H1481 C1459 0.950 . S
C1482 C1483 1.349 . S
C1482 C1484 1.327 . S
C1482 H1507 0.950 . S
C1483 C1482 1.349 . S
C1483 C1499 1.349 . S
C1484 C1482 1.327 . S
C1484 C1503 1.429 . S
C1484 H1508 0.950 . S
C1485 C1502 1.574 . S
C1485 C1504 1.368 . S
C1485 H1509 0.949 . S
H1486 C1490 0.949 . S
C1487 C1488 1.349 . S
C1487 C1489 1.327 . S
C1487 H1510 0.950 . S
C1488 C1487 1.349 . S
C1488 C1500 1.349 . S
C1489 C1487 1.327 . S
C1489 C1505 1.429 1_455 S
C1489 H1511 0.950 . S
C1490 H1486 0.949 . S
C1490 C1498 1.574 . S
C1490 C1506 1.368 . S
H1491 C1499 0.950 . S
H1492 C1497 0.950 . S
H1493 C1498 0.949 . S
H1494 C1500 0.950 . S
H1495 C1501 0.959 . S
H1496 C1502 0.949 . S
C1497 H1492 0.950 . S
C1497 C1499 1.327 . S
C1497 C1503 1.429 . S
C1498 C1490 1.574 . S
C1498 H1493 0.949 . S
C1498 C1504 1.368 . S
C1499 C1483 1.349 . S
C1499 H1491 0.950 . S
C1499 C1497 1.327 . S
C1500 C1488 1.349 . S
C1500 H1494 0.950 . S
C1500 C1501 1.327 . S
C1501 H1495 0.959 . S
C1501 C1500 1.327 . S
C1501 C1505 1.429 1_455 S
C1502 C1485 1.574 . S
C1502 H1496 0.949 . S
C1502 C1506 1.368 . S
C1503 C1484 1.429 . S
C1503 C1497 1.429 . S
C1503 C1504 1.523 . S
C1504 C1485 1.368 . S
C1504 C1498 1.368 . S
C1504 C1503 1.523 . S
C1505 C1489 1.429 1_655 S
C1505 C1501 1.429 1_655 S
C1505 C1506 1.523 . S
C1506 C1490 1.368 . S
C1506 C1502 1.368 . S
C1506 C1505 1.523 . S
H1507 C1482 0.950 . S
H1508 C1484 0.950 . S
H1509 C1485 0.949 . S
H1510 C1487 0.950 . S
H1511 C1489 0.950 . S
C1512 C1513 1.349 . S
C1512 C1514 1.327 . S
C1512 H1537 0.950 . S
C1513 C1512 1.349 . S
C1513 C1529 1.349 . S
C1514 C1512 1.327 . S
C1514 C1533 1.429 . S
C1514 H1538 0.950 . S
C1515 C1532 1.574 . S
C1515 C1534 1.368 . S
C1515 H1539 0.949 . S
H1516 C1520 0.949 . S
C1517 C1518 1.349 . S
C1517 C1519 1.327 . S
C1517 H1540 0.950 . S
C1518 C1517 1.349 . S
C1518 C1530 1.349 . S
C1519 C1517 1.327 . S
C1519 C1535 1.429 . S
C1519 H1541 0.950 . S
C1520 H1516 0.949 . S
C1520 C1528 1.574 . S
C1520 C1536 1.368 . S
H1521 C1529 0.950 . S
H1522 C1527 0.950 . S
H1523 C1528 0.949 . S
H1524 C1530 0.950 . S
H1525 C1531 0.950 . S
H1526 C1532 0.949 . S
C1527 H1522 0.950 . S
C1527 C1529 1.327 . S
C1527 C1533 1.429 . S
C1528 C1520 1.574 . S
C1528 H1523 0.949 . S
C1528 C1534 1.368 . S
C1529 C1513 1.349 . S
C1529 H1521 0.950 . S
C1529 C1527 1.327 . S
C1530 C1518 1.349 . S
C1530 H1524 0.950 . S
C1530 C1531 1.327 . S
C1531 H1525 0.950 . S
C1531 C1530 1.327 . S
C1531 C1535 1.429 . S
C1532 C1515 1.574 . S
C1532 H1526 0.949 . S
C1532 C1536 1.368 . S
C1533 C1514 1.429 . S
C1533 C1527 1.429 . S
C1533 C1534 1.523 . S
C1534 C1515 1.368 . S
C1534 C1528 1.368 . S
C1534 C1533 1.523 . S
C1535 C1519 1.429 . S
C1535 C1531 1.429 . S
C1535 C1536 1.523 . S
C1536 C1520 1.368 . S
C1536 C1532 1.368 . S
C1536 C1535 1.523 . S
H1537 C1512 0.950 . S
H1538 C1514 0.950 . S
H1539 C1515 0.949 . S
H1540 C1517 0.950 . S
H1541 C1519 0.950 . S
C1542 C1543 1.349 . S
C1542 C1544 1.327 . S
C1542 H1567 0.950 . S
C1543 C1542 1.349 . S
C1543 C1559 1.349 . S
C1544 C1542 1.327 . S
C1544 C1563 1.429 1_545 S
C1544 H1568 0.950 1_545 S
C1545 C1562 1.574 . S
C1545 C1564 1.368 . S
C1545 H1569 0.949 . S
H1546 C1550 0.949 . S
C1547 C1548 1.349 . S
C1547 C1549 1.327 . S
C1547 H1570 0.950 . S
C1548 C1547 1.349 . S
C1548 C1560 1.349 . S
C1549 C1547 1.327 . S
C1549 C1565 1.429 . S
C1549 H1571 0.950 . S
C1550 H1546 0.949 . S
C1550 C1558 1.574 . S
C1550 C1566 1.368 . S
H1551 C1559 0.950 . S
H1552 C1557 0.950 . S
H1553 C1558 0.949 . S
H1554 C1560 0.950 . S
H1555 C1561 0.950 . S
H1556 C1562 0.949 . S
C1557 H1552 0.950 . S
C1557 C1559 1.327 . S
C1557 C1563 1.429 1_545 S
C1558 C1550 1.574 . S
C1558 H1553 0.949 . S
C1558 C1564 1.368 . S
C1559 C1543 1.349 . S
C1559 H1551 0.950 . S
C1559 C1557 1.327 . S
C1560 C1548 1.349 . S
C1560 H1554 0.950 . S
C1560 C1561 1.327 . S
C1561 H1555 0.950 . S
C1561 C1560 1.327 . S
C1561 C1565 1.429 . S
C1562 C1545 1.574 . S
C1562 H1556 0.949 . S
C1562 C1566 1.368 . S
C1563 C1544 1.429 1_565 S
C1563 C1557 1.429 1_565 S
C1563 C1564 1.523 . S
C1564 C1545 1.368 . S
C1564 C1558 1.368 . S
C1564 C1563 1.523 . S
C1565 C1549 1.429 . S
C1565 C1561 1.429 . S
C1565 C1566 1.523 . S
C1566 C1550 1.368 . S
C1566 C1562 1.368 . S
C1566 C1565 1.523 . S
H1567 C1542 0.950 . S
H1568 C1544 0.950 1_565 S
H1569 C1545 0.949 . S
H1570 C1547 0.950 . S
H1571 C1549 0.950 . S
C1572 C1573 1.349 . S
C1572 C1574 1.327 . S
C1572 H1597 0.950 1_565 S
C1573 C1572 1.349 . S
C1573 C1589 1.349 . S
C1574 C1572 1.327 . S
C1574 C1593 1.429 . S
C1574 H1598 0.950 . S
C1575 C1592 1.574 . S
C1575 C1594 1.368 . S
C1575 H1599 0.949 . S
H1576 C1580 0.949 . S
C1577 C1578 1.349 . S
C1577 C1579 1.327 . S
C1577 H1600 0.950 . S
C1578 C1577 1.349 . S
C1578 C1590 1.349 . S
C1579 C1577 1.327 . S
C1579 C1595 1.429 1_655 S
C1579 H1601 0.974 . S
C1580 H1576 0.949 . S
C1580 C1588 1.574 . S
C1580 C1596 1.368 . S
H1581 C1589 0.950 . S
H1582 C1587 0.950 . S
H1583 C1588 0.949 . S
H1584 C1590 0.950 . S
H1585 C1591 0.950 . S
H1586 C1592 0.949 . S
C1587 H1582 0.950 . S
C1587 C1589 1.327 . S
C1587 C1593 1.429 . S
C1588 C1580 1.574 . S
C1588 H1583 0.949 . S
C1588 C1594 1.368 . S
C1589 C1573 1.349 . S
C1589 H1581 0.950 . S
C1589 C1587 1.327 . S
C1590 C1578 1.349 . S
C1590 H1584 0.950 . S
C1590 C1591 1.327 . S
C1591 H1585 0.950 . S
C1591 C1590 1.327 . S
C1591 C1595 1.429 1_655 S
C1592 C1575 1.574 . S
C1592 H1586 0.949 . S
C1592 C1596 1.368 . S
C1593 C1574 1.429 . S
C1593 C1587 1.429 . S
C1593 C1594 1.523 . S
C1594 C1575 1.368 . S
C1594 C1588 1.368 . S
C1594 C1593 1.523 . S
C1595 C1579 1.429 1_455 S
C1595 C1591 1.429 1_455 S
C1595 C1596 1.523 . S
C1596 C1580 1.368 . S
C1596 C1592 1.368 . S
C1596 C1595 1.523 . S
H1597 C1572 0.950 1_545 S
H1598 C1574 0.950 . S
H1599 C1575 0.949 . S
H1600 C1577 0.950 . S
H1601 C1579 0.974 . S
C1602 C1603 1.349 . S
C1602 C1604 1.327 . S
C1602 H1627 0.950 . S
C1603 C1602 1.349 . S
C1603 C1619 1.349 . S
C1604 C1602 1.327 . S
C1604 C1623 1.429 . S
C1604 H1628 0.950 . S
C1605 C1622 1.574 . S
C1605 C1624 1.368 . S
C1605 H1629 0.949 . S
H1606 C1610 0.949 . S
C1607 C1608 1.349 . S
C1607 C1609 1.327 . S
C1607 H1630 0.950 . S
C1608 C1607 1.349 . S
C1608 C1620 1.349 . S
C1609 C1607 1.327 . S
C1609 C1625 1.429 . S
C1609 H1631 0.950 . S
C1610 H1606 0.949 . S
C1610 C1618 1.574 . S
C1610 C1626 1.368 . S
H1611 C1619 0.950 . S
H1612 C1617 0.950 . S
H1613 C1618 0.949 . S
H1614 C1620 0.950 . S
H1615 C1621 0.950 . S
H1616 C1622 0.949 . S
C1617 H1612 0.950 . S
C1617 C1619 1.327 . S
C1617 C1623 1.429 . S
C1618 C1610 1.574 . S
C1618 H1613 0.949 . S
C1618 C1624 1.368 . S
C1619 C1603 1.349 . S
C1619 H1611 0.950 . S
C1619 C1617 1.327 . S
C1620 C1608 1.349 . S
C1620 H1614 0.950 . S
C1620 C1621 1.327 . S
C1621 H1615 0.950 . S
C1621 C1620 1.327 . S
C1621 C1625 1.429 . S
C1622 C1605 1.574 . S
C1622 H1616 0.949 . S
C1622 C1626 1.368 . S
C1623 C1604 1.429 . S
C1623 C1617 1.429 . S
C1623 C1624 1.523 . S
C1624 C1605 1.368 . S
C1624 C1618 1.368 . S
C1624 C1623 1.523 . S
C1625 C1609 1.429 . S
C1625 C1621 1.429 . S
C1625 C1626 1.523 . S
C1626 C1610 1.368 . S
C1626 C1622 1.368 . S
C1626 C1625 1.523 . S
H1627 C1602 0.950 . S
H1628 C1604 0.950 . S
H1629 C1605 0.949 . S
H1630 C1607 0.950 . S
H1631 C1609 0.950 . S
C1632 C1633 1.349 . S
C1632 C1634 1.327 . S
C1632 H1657 0.950 . S
C1633 C1632 1.349 . S
C1633 C1649 1.349 . S
C1634 C1632 1.327 . S
C1634 C1653 1.429 . S
C1634 H1658 0.950 . S
C1635 C1652 1.574 . S
C1635 C1654 1.368 . S
C1635 H1659 0.949 . S
H1636 C1640 0.949 . S
C1637 C1638 1.349 . S
C1637 C1639 1.327 . S
C1637 H1660 0.950 . S
C1638 C1637 1.349 . S
C1638 C1650 1.349 . S
C1639 C1637 1.327 . S
C1639 C1655 1.429 . S
C1639 H1661 0.950 . S
C1640 H1636 0.949 . S
C1640 C1648 1.574 . S
C1640 C1656 1.368 . S
H1641 C1649 0.950 . S
H1642 C1647 0.950 . S
H1643 C1648 0.949 . S
H1644 C1650 0.950 . S
H1645 C1651 0.950 . S
H1646 C1652 0.949 . S
C1647 H1642 0.950 . S
C1647 C1649 1.327 . S
C1647 C1653 1.429 . S
C1648 C1640 1.574 . S
C1648 H1643 0.949 . S
C1648 C1654 1.368 . S
C1649 C1633 1.349 . S
C1649 H1641 0.950 . S
C1649 C1647 1.327 . S
C1650 C1638 1.349 . S
C1650 H1644 0.950 . S
C1650 C1651 1.327 . S
C1651 H1645 0.950 . S
C1651 C1650 1.327 . S
C1651 C1655 1.429 . S
C1652 C1635 1.574 . S
C1652 H1646 0.949 . S
C1652 C1656 1.368 . S
C1653 C1634 1.429 . S
C1653 C1647 1.429 . S
C1653 C1654 1.523 . S
C1654 C1635 1.368 . S
C1654 C1648 1.368 . S
C1654 C1653 1.523 . S
C1655 C1639 1.429 . S
C1655 C1651 1.429 . S
C1655 C1656 1.523 . S
C1656 C1640 1.368 . S
C1656 C1652 1.368 . S
C1656 C1655 1.523 . S
H1657 C1632 0.950 . S
H1658 C1634 0.950 . S
H1659 C1635 0.949 . S
H1660 C1637 0.950 . S
H1661 C1639 0.950 . S
C1662 C1663 1.349 . S
C1662 C1664 1.327 . S
C1662 H1687 0.950 . S
C1663 C1662 1.349 . S
C1663 C1679 1.349 . S
C1664 C1662 1.327 . S
C1664 C1683 1.429 . S
C1664 H1688 0.950 . S
C1665 C1682 1.574 . S
C1665 C1684 1.368 . S
C1665 H1689 0.949 . S
H1666 C1670 0.949 . S
C1667 C1668 1.349 . S
C1667 C1669 1.327 . S
C1667 H1690 0.950 . S
C1668 C1667 1.349 . S
C1668 C1680 1.349 . S
C1669 C1667 1.327 . S
C1669 C1685 1.429 . S
C1669 H1691 0.950 . S
C1670 H1666 0.949 . S
C1670 C1678 1.574 . S
C1670 C1686 1.368 . S
H1671 C1679 0.950 . S
H1672 C1677 0.950 . S
H1673 C1678 0.949 . S
H1674 C1680 0.950 . S
H1675 C1681 0.950 . S
H1676 C1682 0.949 . S
C1677 H1672 0.950 . S
C1677 C1679 1.327 . S
C1677 C1683 1.429 . S
C1678 C1670 1.574 . S
C1678 H1673 0.949 . S
C1678 C1684 1.368 . S
C1679 C1663 1.349 . S
C1679 H1671 0.950 . S
C1679 C1677 1.327 . S
C1680 C1668 1.349 . S
C1680 H1674 0.950 . S
C1680 C1681 1.327 . S
C1681 H1675 0.950 . S
C1681 C1680 1.327 . S
C1681 C1685 1.429 . S
C1682 C1665 1.574 . S
C1682 H1676 0.949 . S
C1682 C1686 1.368 . S
C1683 C1664 1.429 . S
C1683 C1677 1.429 . S
C1683 C1684 1.523 . S
C1684 C1665 1.368 . S
C1684 C1678 1.368 . S
C1684 C1683 1.523 . S
C1685 C1669 1.429 . S
C1685 C1681 1.429 . S
C1685 C1686 1.523 . S
C1686 C1670 1.368 . S
C1686 C1682 1.368 . S
C1686 C1685 1.523 . S
H1687 C1662 0.950 . S
H1688 C1664 0.950 . S
H1689 C1665 0.949 . S
H1690 C1667 0.950 . S
H1691 C1669 0.950 . S
C1692 C1693 1.349 . S
C1692 C1694 1.327 . S
C1692 H1717 0.950 . S
C1693 C1692 1.349 . S
C1693 C1709 1.349 . S
C1694 C1692 1.327 . S
C1694 C1713 1.429 . S
C1694 H1718 0.950 . S
C1695 C1712 1.574 . S
C1695 C1714 1.368 . S
C1695 H1719 0.949 . S
H1696 C1700 0.949 . S
C1697 C1698 1.349 . S
C1697 C1699 1.327 . S
C1697 H1720 0.950 . S
C1698 C1697 1.349 . S
C1698 C1710 1.349 . S
C1699 C1697 1.327 . S
C1699 C1715 1.429 . S
C1699 H1721 0.950 . S
C1700 H1696 0.949 . S
C1700 C1708 1.574 . S
C1700 C1716 1.368 . S
H1701 C1709 0.950 . S
H1702 C1707 0.950 . S
H1703 C1708 0.949 . S
H1704 C1710 0.950 . S
H1705 C1711 0.950 . S
H1706 C1712 0.949 . S
C1707 H1702 0.950 . S
C1707 C1709 1.327 . S
C1707 C1713 1.429 . S
C1708 C1700 1.574 . S
C1708 H1703 0.949 . S
C1708 C1714 1.368 . S
C1709 C1693 1.349 . S
C1709 H1701 0.950 . S
C1709 C1707 1.327 . S
C1710 C1698 1.349 . S
C1710 H1704 0.950 . S
C1710 C1711 1.327 . S
C1711 H1705 0.950 . S
C1711 C1710 1.327 . S
C1711 C1715 1.429 . S
C1712 C1695 1.574 . S
C1712 H1706 0.949 . S
C1712 C1716 1.368 . S
C1713 C1694 1.429 . S
C1713 C1707 1.429 . S
C1713 C1714 1.523 . S
C1714 C1695 1.368 . S
C1714 C1708 1.368 . S
C1714 C1713 1.523 . S
C1715 C1699 1.429 . S
C1715 C1711 1.429 . S
C1715 C1716 1.523 . S
C1716 C1700 1.368 . S
C1716 C1712 1.368 . S
C1716 C1715 1.523 . S
H1717 C1692 0.950 . S
H1718 C1694 0.950 . S
H1719 C1695 0.949 . S
H1720 C1697 0.950 . S
H1721 C1699 0.950 . S
C1722 C1723 1.349 . S
C1722 C1724 1.327 . S
C1722 H1747 0.950 . S
C1723 C1722 1.349 . S
C1723 C1739 1.349 . S
C1724 C1722 1.327 . S
C1724 C1743 1.429 . S
C1724 H1748 0.950 . S
C1725 C1742 1.574 . S
C1725 C1744 1.368 . S
C1725 H1749 0.949 . S
H1726 C1730 0.949 . S
C1727 C1728 1.349 . S
C1727 C1729 1.327 . S
C1727 H1750 0.950 . S
C1728 C1727 1.349 . S
C1728 C1740 1.349 . S
C1729 C1727 1.327 . S
C1729 C1745 1.429 . S
C1729 H1751 0.950 . S
C1730 H1726 0.949 . S
C1730 C1738 1.574 . S
C1730 C1746 1.368 . S
H1731 C1739 0.950 . S
H1732 C1737 0.950 . S
H1733 C1738 0.949 . S
H1734 C1740 0.950 . S
H1735 C1741 0.950 . S
H1736 C1742 0.949 . S
C1737 H1732 0.950 . S
C1737 C1739 1.327 . S
C1737 C1743 1.429 . S
C1738 C1730 1.574 . S
C1738 H1733 0.949 . S
C1738 C1744 1.368 . S
C1739 C1723 1.349 . S
C1739 H1731 0.950 . S
C1739 C1737 1.327 . S
C1740 C1728 1.349 . S
C1740 H1734 0.950 . S
C1740 C1741 1.327 . S
C1741 H1735 0.950 . S
C1741 C1740 1.327 . S
C1741 C1745 1.429 . S
C1742 C1725 1.574 . S
C1742 H1736 0.949 . S
C1742 C1746 1.368 . S
C1743 C1724 1.429 . S
C1743 C1737 1.429 . S
C1743 C1744 1.523 . S
C1744 C1725 1.368 . S
C1744 C1738 1.368 . S
C1744 C1743 1.523 . S
C1745 C1729 1.429 . S
C1745 C1741 1.429 . S
C1745 C1746 1.523 . S
C1746 C1730 1.368 . S
C1746 C1742 1.368 . S
C1746 C1745 1.523 . S
H1747 C1722 0.950 . S
H1748 C1724 0.950 . S
H1749 C1725 0.949 . S
H1750 C1727 0.950 . S
H1751 C1729 0.950 . S
C1752 C1753 1.349 . S
C1752 C1754 1.327 . S
C1752 H1777 0.950 . S
C1753 C1752 1.349 . S
C1753 C1769 1.349 . S
C1754 C1752 1.327 . S
C1754 C1773 1.429 . S
C1754 H1778 0.950 . S
C1755 C1772 1.574 . S
C1755 C1774 1.368 . S
C1755 H1779 0.949 . S
H1756 C1760 0.949 . S
C1757 C1758 1.349 . S
C1757 C1759 1.327 . S
C1757 H1780 0.950 . S
C1758 C1757 1.349 . S
C1758 C1770 1.349 . S
C1759 C1757 1.327 . S
C1759 C1775 1.429 . S
C1759 H1781 0.950 . S
C1760 H1756 0.949 . S
C1760 C1768 1.574 . S
C1760 C1776 1.368 . S
H1761 C1769 0.950 . S
H1762 C1767 0.950 . S
H1763 C1768 0.949 . S
H1764 C1770 0.950 . S
H1765 C1771 0.950 . S
H1766 C1772 0.949 . S
C1767 H1762 0.950 . S
C1767 C1769 1.327 . S
C1767 C1773 1.429 . S
C1768 C1760 1.574 . S
C1768 H1763 0.949 . S
C1768 C1774 1.368 . S
C1769 C1753 1.349 . S
C1769 H1761 0.950 . S
C1769 C1767 1.327 . S
C1770 C1758 1.349 . S
C1770 H1764 0.950 . S
C1770 C1771 1.327 . S
C1771 H1765 0.950 . S
C1771 C1770 1.327 . S
C1771 C1775 1.429 . S
C1772 C1755 1.574 . S
C1772 H1766 0.949 . S
C1772 C1776 1.368 . S
C1773 C1754 1.429 . S
C1773 C1767 1.429 . S
C1773 C1774 1.523 . S
C1774 C1755 1.368 . S
C1774 C1768 1.368 . S
C1774 C1773 1.523 . S
C1775 C1759 1.429 . S
C1775 C1771 1.429 . S
C1775 C1776 1.523 . S
C1776 C1760 1.368 . S
C1776 C1772 1.368 . S
C1776 C1775 1.523 . S
H1777 C1752 0.950 . S
H1778 C1754 0.950 . S
H1779 C1755 0.949 . S
H1780 C1757 0.950 . S
H1781 C1759 0.950 . S
C1782 C1783 1.349 . S
C1782 C1784 1.327 . S
C1782 H1807 0.950 . S
C1783 C1782 1.349 . S
C1783 C1799 1.349 . S
C1784 C1782 1.327 . S
C1784 C1803 1.429 . S
C1784 H1808 0.950 . S
C1785 C1802 1.574 . S
C1785 C1804 1.368 . S
C1785 H1809 0.949 . S
H1786 C1790 0.949 . S
C1787 C1788 1.349 . S
C1787 C1789 1.327 . S
C1787 H1810 0.950 . S
C1788 C1787 1.349 . S
C1788 C1800 1.349 . S
C1789 C1787 1.327 . S
C1789 C1805 1.429 . S
C1789 H1811 0.950 . S
C1790 H1786 0.949 . S
C1790 C1798 1.574 . S
C1790 C1806 1.368 . S
H1791 C1799 0.950 . S
H1792 C1797 0.950 . S
H1793 C1798 0.949 . S
H1794 C1800 0.950 . S
H1795 C1801 0.950 . S
H1796 C1802 0.949 . S
C1797 H1792 0.950 . S
C1797 C1799 1.327 . S
C1797 C1803 1.429 . S
C1798 C1790 1.574 . S
C1798 H1793 0.949 . S
C1798 C1804 1.368 . S
C1799 C1783 1.349 . S
C1799 H1791 0.950 . S
C1799 C1797 1.327 . S
C1800 C1788 1.349 . S
C1800 H1794 0.950 . S
C1800 C1801 1.327 . S
C1801 H1795 0.950 . S
C1801 C1800 1.327 . S
C1801 C1805 1.429 . S
C1802 C1785 1.574 . S
C1802 H1796 0.949 . S
C1802 C1806 1.368 . S
C1803 C1784 1.429 . S
C1803 C1797 1.429 . S
C1803 C1804 1.523 . S
C1804 C1785 1.368 . S
C1804 C1798 1.368 . S
C1804 C1803 1.523 . S
C1805 C1789 1.429 . S
C1805 C1801 1.429 . S
C1805 C1806 1.523 . S
C1806 C1790 1.368 . S
C1806 C1802 1.368 . S
C1806 C1805 1.523 . S
H1807 C1782 0.950 . S
H1808 C1784 0.950 . S
H1809 C1785 0.949 . S
H1810 C1787 0.950 . S
H1811 C1789 0.950 . S
C1812 C1813 1.349 . S
C1812 C1814 1.327 . S
C1812 H1837 0.950 . S
C1813 C1812 1.349 . S
C1813 C1829 1.349 . S
C1814 C1812 1.327 . S
C1814 C1833 1.429 . S
C1814 H1838 0.950 . S
C1815 C1832 1.574 . S
C1815 C1834 1.368 . S
C1815 H1839 0.949 . S
H1816 C1820 0.949 . S
C1817 C1818 1.349 . S
C1817 C1819 1.327 . S
C1817 H1840 0.950 . S
C1818 C1817 1.349 . S
C1818 C1830 1.349 . S
C1819 C1817 1.327 . S
C1819 C1835 1.429 . S
C1819 H1841 0.950 . S
C1820 H1816 0.949 . S
C1820 C1828 1.574 . S
C1820 C1836 1.368 . S
H1821 C1829 0.950 . S
H1822 C1827 0.950 . S
H1823 C1828 0.949 . S
H1824 C1830 0.950 . S
H1825 C1831 0.950 . S
H1826 C1832 0.949 . S
C1827 H1822 0.950 . S
C1827 C1829 1.327 . S
C1827 C1833 1.429 . S
C1828 C1820 1.574 . S
C1828 H1823 0.949 . S
C1828 C1834 1.368 . S
C1829 C1813 1.349 . S
C1829 H1821 0.950 . S
C1829 C1827 1.327 . S
C1830 C1818 1.349 . S
C1830 H1824 0.950 . S
C1830 C1831 1.327 . S
C1831 H1825 0.950 . S
C1831 C1830 1.327 . S
C1831 C1835 1.429 . S
C1832 C1815 1.574 . S
C1832 H1826 0.949 . S
C1832 C1836 1.368 . S
C1833 C1814 1.429 . S
C1833 C1827 1.429 . S
C1833 C1834 1.523 . S
C1834 C1815 1.368 . S
C1834 C1828 1.368 . S
C1834 C1833 1.523 . S
C1835 C1819 1.429 . S
C1835 C1831 1.429 . S
C1835 C1836 1.523 . S
C1836 C1820 1.368 . S
C1836 C1832 1.368 . S
C1836 C1835 1.523 . S
H1837 C1812 0.950 . S
H1838 C1814 0.950 . S
H1839 C1815 0.949 . S
H1840 C1817 0.950 . S
H1841 C1819 0.950 . S
C1842 C1843 1.349 . S
C1842 C1844 1.327 . S
C1842 H1867 0.950 . S
C1843 C1842 1.349 . S
C1843 C1859 1.349 . S
C1844 C1842 1.327 . S
C1844 C1863 1.429 . S
C1844 H1868 0.950 . S
C1845 C1862 1.574 . S
C1845 C1864 1.368 . S
C1845 H1869 0.949 . S
H1846 C1850 0.949 . S
C1847 C1848 1.349 . S
C1847 C1849 1.327 . S
C1847 H1870 0.950 . S
C1848 C1847 1.349 . S
C1848 C1860 1.349 . S
C1849 C1847 1.327 . S
C1849 C1865 1.429 . S
C1849 H1871 0.950 . S
C1850 H1846 0.949 . S
C1850 C1858 1.574 . S
C1850 C1866 1.368 . S
H1851 C1859 0.950 . S
H1852 C1857 0.950 . S
H1853 C1858 0.949 . S
H1854 C1860 0.950 . S
H1855 C1861 0.950 . S
H1856 C1862 0.949 . S
C1857 H1852 0.950 . S
C1857 C1859 1.327 . S
C1857 C1863 1.429 . S
C1858 C1850 1.574 . S
C1858 H1853 0.949 . S
C1858 C1864 1.368 . S
C1859 C1843 1.349 . S
C1859 H1851 0.950 . S
C1859 C1857 1.327 . S
C1860 C1848 1.349 . S
C1860 H1854 0.950 . S
C1860 C1861 1.327 . S
C1861 H1855 0.950 . S
C1861 C1860 1.327 . S
C1861 C1865 1.429 . S
C1862 C1845 1.574 . S
C1862 H1856 0.949 . S
C1862 C1866 1.368 . S
C1863 C1844 1.429 . S
C1863 C1857 1.429 . S
C1863 C1864 1.523 . S
C1864 C1845 1.368 . S
C1864 C1858 1.368 . S
C1864 C1863 1.523 . S
C1865 C1849 1.429 . S
C1865 C1861 1.429 . S
C1865 C1866 1.523 . S
C1866 C1850 1.368 . S
C1866 C1862 1.368 . S
C1866 C1865 1.523 . S
H1867 C1842 0.950 . S
H1868 C1844 0.950 . S
H1869 C1845 0.949 . S
H1870 C1847 0.950 . S
H1871 C1849 0.950 . S
C1872 C1873 1.349 . S
C1872 C1874 1.327 . S
C1872 H1897 0.950 . S
C1873 C1872 1.349 . S
C1873 C1889 1.349 . S
C1874 C1872 1.327 . S
C1874 C1893 1.429 . S
C1874 H1898 0.950 . S
C1875 C1892 1.574 . S
C1875 C1894 1.368 . S
C1875 H1899 0.949 . S
H1876 C1880 0.949 . S
C1877 C1878 1.349 . S
C1877 C1879 1.327 . S
C1877 H1900 0.950 . S
C1878 C1877 1.349 . S
C1878 C1890 1.349 . S
C1879 C1877 1.327 . S
C1879 C1895 1.429 . S
C1879 H1901 0.950 . S
C1880 H1876 0.949 . S
C1880 C1888 1.574 . S
C1880 C1896 1.368 . S
H1881 C1889 0.950 . S
H1882 C1887 0.950 . S
H1883 C1888 0.949 . S
H1884 C1890 0.950 . S
H1885 C1891 0.950 . S
H1886 C1892 0.949 . S
C1887 H1882 0.950 . S
C1887 C1889 1.327 . S
C1887 C1893 1.429 . S
C1888 C1880 1.574 . S
C1888 H1883 0.949 . S
C1888 C1894 1.368 . S
C1889 C1873 1.349 . S
C1889 H1881 0.950 . S
C1889 C1887 1.327 . S
C1890 C1878 1.349 . S
C1890 H1884 0.950 . S
C1890 C1891 1.327 . S
C1891 H1885 0.950 . S
C1891 C1890 1.327 . S
C1891 C1895 1.429 . S
C1892 C1875 1.574 . S
C1892 H1886 0.949 . S
C1892 C1896 1.368 . S
C1893 C1874 1.429 . S
C1893 C1887 1.429 . S
C1893 C1894 1.523 . S
C1894 C1875 1.368 . S
C1894 C1888 1.368 . S
C1894 C1893 1.523 . S
C1895 C1879 1.429 . S
C1895 C1891 1.429 . S
C1895 C1896 1.523 . S
C1896 C1880 1.368 . S
C1896 C1892 1.368 . S
C1896 C1895 1.523 . S
H1897 C1872 0.950 . S
H1898 C1874 0.950 . S
H1899 C1875 0.949 . S
H1900 C1877 0.950 . S
H1901 C1879 0.950 . S
C1902 C1903 1.349 . S
C1902 C1904 1.327 . S
C1902 H1927 0.950 . S
C1903 C1902 1.349 . S
C1903 C1919 1.349 . S
C1904 C1902 1.327 . S
C1904 C1923 1.429 . S
C1904 H1928 0.950 . S
C1905 C1922 1.574 . S
C1905 C1924 1.368 . S
C1905 H1929 0.949 . S
H1906 C1910 0.949 . S
C1907 C1908 1.349 . S
C1907 C1909 1.327 . S
C1907 H1930 0.950 . S
C1908 C1907 1.349 . S
C1908 C1920 1.349 . S
C1909 C1907 1.327 . S
C1909 C1925 1.429 . S
C1909 H1931 0.950 . S
C1910 H1906 0.949 . S
C1910 C1918 1.574 . S
C1910 C1926 1.368 . S
H1911 C1919 0.950 . S
H1912 C1917 0.950 . S
H1913 C1918 0.949 . S
H1914 C1920 0.950 . S
H1915 C1921 0.950 . S
H1916 C1922 0.949 . S
C1917 H1912 0.950 . S
C1917 C1919 1.327 . S
C1917 C1923 1.429 . S
C1918 C1910 1.574 . S
C1918 H1913 0.949 . S
C1918 C1924 1.368 . S
C1919 C1903 1.349 . S
C1919 H1911 0.950 . S
C1919 C1917 1.327 . S
C1920 C1908 1.349 . S
C1920 H1914 0.950 . S
C1920 C1921 1.327 . S
C1921 H1915 0.950 . S
C1921 C1920 1.327 . S
C1921 C1925 1.429 . S
C1922 C1905 1.574 . S
C1922 H1916 0.949 . S
C1922 C1926 1.368 . S
C1923 C1904 1.429 . S
C1923 C1917 1.429 . S
C1923 C1924 1.523 . S
C1924 C1905 1.368 . S
C1924 C1918 1.368 . S
C1924 C1923 1.523 . S
C1925 C1909 1.429 . S
C1925 C1921 1.429 . S
C1925 C1926 1.523 . S
C1926 C1910 1.368 . S
C1926 C1922 1.368 . S
C1926 C1925 1.523 . S
H1927 C1902 0.950 . S
H1928 C1904 0.950 . S
H1929 C1905 0.949 . S
H1930 C1907 0.950 . S
H1931 C1909 0.950 . S
C1932 C1933 1.349 . S
C1932 C1934 1.327 . S
C1932 H1957 0.950 . S
C1933 C1932 1.349 . S
C1933 C1949 1.349 . S
C1934 C1932 1.327 . S
C1934 C1953 1.429 . S
C1934 H1958 0.950 . S
C1935 C1952 1.574 . S
C1935 C1954 1.368 . S
C1935 H1959 0.949 . S
H1936 C1940 0.949 . S
C1937 C1938 1.349 . S
C1937 C1939 1.327 . S
C1937 H1960 0.950 . S
C1938 C1937 1.349 . S
C1938 C1950 1.349 . S
C1939 C1937 1.327 . S
C1939 C1955 1.429 . S
C1939 H1961 0.950 . S
C1940 H1936 0.949 . S
C1940 C1948 1.574 . S
C1940 C1956 1.368 . S
H1941 C1949 0.950 . S
H1942 C1947 0.950 . S
H1943 C1948 0.949 . S
H1944 C1950 0.950 . S
H1945 C1951 0.950 . S
H1946 C1952 0.949 . S
C1947 H1942 0.950 . S
C1947 C1949 1.327 . S
C1947 C1953 1.429 . S
C1948 C1940 1.574 . S
C1948 H1943 0.949 . S
C1948 C1954 1.368 . S
C1949 C1933 1.349 . S
C1949 H1941 0.950 . S
C1949 C1947 1.327 . S
C1950 C1938 1.349 . S
C1950 H1944 0.950 . S
C1950 C1951 1.327 . S
C1951 H1945 0.950 . S
C1951 C1950 1.327 . S
C1951 C1955 1.429 . S
C1952 C1935 1.574 . S
C1952 H1946 0.949 . S
C1952 C1956 1.368 . S
C1953 C1934 1.429 . S
C1953 C1947 1.429 . S
C1953 C1954 1.523 . S
C1954 C1935 1.368 . S
C1954 C1948 1.368 . S
C1954 C1953 1.523 . S
C1955 C1939 1.429 . S
C1955 C1951 1.429 . S
C1955 C1956 1.523 . S
C1956 C1940 1.368 . S
C1956 C1952 1.368 . S
C1956 C1955 1.523 . S
H1957 C1932 0.950 . S
H1958 C1934 0.950 . S
H1959 C1935 0.949 . S
H1960 C1937 0.950 . S
H1961 C1939 0.950 . S
C613 C349 1.292 . S
C618 C9 1.292 . S
C643 C43 1.291 . S
C648 C383 1.291 1_565 S
C673 C315 1.292 1_455 S
C678 C77 1.292 . S
C703 C485 1.292 . S
C708 C111 1.292 . S
C733 C145 1.292 . S
C738 C417 1.292 1_545 S
C763 C451 1.291 1_655 S
C768 C179 1.291 . S
C793 C172 2.061 . S
C798 C478 2.061 . S
C823 C410 2.061 . S
C828 C104 2.061 . S
C853 C444 2.062 . S
C858 C138 2.062 . S
C883 C36 2.061 . S
C888 C342 2.061 . S
C913 C70 2.062 . S
C918 C376 2.062 . S
C943 C2 2.061 . S
C948 C308 2.061 . S
C973 C553 1.292 . S
C978 C213 1.292 . S
C1003 C587 1.291 . S
C1008 C247 1.291 . S
C1033 C519 1.292 . S
C1038 C281 1.292 . S
C1063 C240 2.062 . S
C1068 C546 2.062 . S
C1093 C580 2.062 . S
C1098 C274 2.062 . S
C1123 C206 2.062 . S
C1128 C512 2.062 . S
C1153 C33 1.326 . S
C1158 C611 1.326 . S
C1183 C67 1.326 . S
C1188 C543 1.326 . S
C1213 C101 1.325 . S
C1218 C577 1.325 . S
C1243 C271 1.326 . S
C1248 C135 1.326 . S
C1273 C169 1.325 . S
C1278 C305 1.325 . S
C1303 C203 1.326 . S
C1308 C237 1.326 . S
C1333 C339 1.326 . S
C1338 C475 1.326 . S
C1363 C373 1.325 . S
C1368 C509 1.325 . S
C1393 C407 1.326 . S
C1398 C441 1.326 . S
C1423 C73 1.447 1_545 S
C1428 C20 1.535 . S
C1453 C54 1.535 . S
C1458 C5 1.447 1_655 S
C1483 C39 1.447 . S
C1488 C88 1.535 . S
C1513 C141 1.447 1_455 S
C1518 C122 1.535 . S
C1543 C156 1.535 . S
C1548 C175 1.447 . S
C1573 C107 1.447 1_565 S
C1578 C190 1.535 . S
C1603 C224 1.535 . S
C1608 C277 1.447 . S
C1633 C209 1.447 . S
C1638 C258 1.535 . S
C1663 C292 1.535 . S
C1668 C243 1.447 . S
C1693 C326 1.535 . S
C1698 C345 1.447 . S
C1723 C379 1.447 . S
C1728 C360 1.535 . S
C1753 C394 1.535 . S
C1758 C311 1.447 . S
C1783 C428 1.535 . S
C1788 C481 1.447 . S
C1813 C413 1.447 . S
C1818 C462 1.535 . S
C1843 C496 1.535 . S
C1848 C447 1.447 . S
C1873 C530 1.535 . S
C1878 C549 1.447 . S
C1903 C583 1.447 . S
C1908 C564 1.535 . S
C1933 C515 1.447 . S
C1938 C598 1.535 . S
