# Generated by pormake.
# Topology wjw, (5)-cn, num edge types: 1
# Building blocks:
#     Node 0, Type 0, BuildingBlock: XOMCOT_clean_sbu_0, # of connection points: 5
#     Node 1, Type 0, BuildingBlock: XOMCOT_clean_sbu_0, # of connection points: 5
#     Node 2, Type 0, BuildingBlock: XOMCOT_clean_sbu_0, # of connection points: 5
#     Node 3, Type 0, BuildingBlock: XOMCOT_clean_sbu_0, # of connection points: 5
#     Node 4, Type 0, BuildingBlock: XOMCOT_clean_sbu_0, # of connection points: 5
#     Node 5, Type 0, BuildingBlock: XOMCOT_clean_sbu_0, # of connection points: 5
#     Node 6, Type 0, BuildingBlock: XOMCOT_clean_sbu_0, # of connection points: 5
#     Node 7, Type 0, BuildingBlock: XOMCOT_clean_sbu_0, # of connection points: 5
#     Node 8, Type 0, BuildingBlock: XOMCOT_clean_sbu_0, # of connection points: 5
#     Node 9, Type 0, BuildingBlock: XOMCOT_clean_sbu_0, # of connection points: 5
#     Node 10, Type 0, BuildingBlock: XOMCOT_clean_sbu_0, # of connection points: 5
#     Node 11, Type 0, BuildingBlock: XOMCOT_clean_sbu_0, # of connection points: 5
#     Edge 12, Type (0, 0), BuildingBlock: ZUJKAS_clean_linker_0, # of connection points: 2
#     Edge 13, Type (0, 0), BuildingBlock: ZUJKAS_clean_linker_0, # of connection points: 2
#     Edge 14, Type (0, 0), BuildingBlock: ZUJKAS_clean_linker_0, # of connection points: 2
#     Edge 15, Type (0, 0), BuildingBlock: ZUJKAS_clean_linker_0, # of connection points: 2
#     Edge 16, Type (0, 0), BuildingBlock: ZUJKAS_clean_linker_0, # of connection points: 2
#     Edge 17, Type (0, 0), BuildingBlock: ZUJKAS_clean_linker_0, # of connection points: 2
#     Edge 18, Type (0, 0), BuildingBlock: ZUJKAS_clean_linker_0, # of connection points: 2
#     Edge 19, Type (0, 0), BuildingBlock: ZUJKAS_clean_linker_0, # of connection points: 2
#     Edge 20, Type (0, 0), BuildingBlock: ZUJKAS_clean_linker_0, # of connection points: 2
#     Edge 21, Type (0, 0), BuildingBlock: ZUJKAS_clean_linker_0, # of connection points: 2
#     Edge 22, Type (0, 0), BuildingBlock: ZUJKAS_clean_linker_0, # of connection points: 2
#     Edge 23, Type (0, 0), BuildingBlock: ZUJKAS_clean_linker_0, # of connection points: 2
#     Edge 24, Type (0, 0), BuildingBlock: ZUJKAS_clean_linker_0, # of connection points: 2
#     Edge 25, Type (0, 0), BuildingBlock: ZUJKAS_clean_linker_0, # of connection points: 2
#     Edge 26, Type (0, 0), BuildingBlock: ZUJKAS_clean_linker_0, # of connection points: 2
#     Edge 27, Type (0, 0), BuildingBlock: ZUJKAS_clean_linker_0, # of connection points: 2
#     Edge 28, Type (0, 0), BuildingBlock: ZUJKAS_clean_linker_0, # of connection points: 2
#     Edge 29, Type (0, 0), BuildingBlock: ZUJKAS_clean_linker_0, # of connection points: 2
#     Edge 30, Type (0, 0), BuildingBlock: ZUJKAS_clean_linker_0, # of connection points: 2
#     Edge 31, Type (0, 0), BuildingBlock: ZUJKAS_clean_linker_0, # of connection points: 2
#     Edge 32, Type (0, 0), BuildingBlock: ZUJKAS_clean_linker_0, # of connection points: 2
#     Edge 33, Type (0, 0), BuildingBlock: ZUJKAS_clean_linker_0, # of connection points: 2
#     Edge 34, Type (0, 0), BuildingBlock: ZUJKAS_clean_linker_0, # of connection points: 2
#     Edge 35, Type (0, 0), BuildingBlock: ZUJKAS_clean_linker_0, # of connection points: 2
#     Edge 36, Type (0, 0), BuildingBlock: ZUJKAS_clean_linker_0, # of connection points: 2
#     Edge 37, Type (0, 0), BuildingBlock: ZUJKAS_clean_linker_0, # of connection points: 2
#     Edge 38, Type (0, 0), BuildingBlock: ZUJKAS_clean_linker_0, # of connection points: 2
#     Edge 39, Type (0, 0), BuildingBlock: ZUJKAS_clean_linker_0, # of connection points: 2
#     Edge 40, Type (0, 0), BuildingBlock: ZUJKAS_clean_linker_0, # of connection points: 2
#     Edge 41, Type (0, 0), BuildingBlock: ZUJKAS_clean_linker_0, # of connection points: 2
# Relax obj value: 0.222
# Max RMSD: 0.192
# Mean RMSD: 0.189
data_MOF--net-wjw--node1-XOMCOT_clean_sbu_0--edge1-ZUJKAS_clean_linker_0
_symmetry_space_group_name_H-M    P1
_symmetry_Int_Tables_number       1
_symmetry_cell_setting            triclinic
loop_
_symmetry_equiv_pos_as_xyz
'x, y, z'
_cell_length_a     50.466569
_cell_length_b     50.375886
_cell_length_c     49.239868
_cell_angle_alpha  90.204611
_cell_angle_beta   89.909921
_cell_angle_gamma 120.11004
loop_
_atom_site_label
_atom_site_type_symbol
_atom_site_fract_x
_atom_site_fract_y
_atom_site_fract_z
_atom_type_partial_charge
Co0 Co 0.14036 0.39124 0.2963 0.0
C1 C 0.10109 0.42081 0.30075 0.0
C2 C 0.08161 0.37649 0.31929 0.0
C3 C 0.06115 0.38671 0.32186 0.0
N4 N 0.10689 0.39794 0.3064 0.0
N5 N 0.07337 0.41459 0.31024 0.0
H6 H 0.11632 0.44141 0.28989 0.0
H7 H 0.07814 0.35456 0.32605 0.0
C8 C 0.13963 0.39146 0.35663 0.0
O9 O 0.13544 0.41513 0.35492 0.0
N10 N 0.17245 0.38298 0.28635 0.0
C11 C 0.19385 0.39679 0.26693 0.0
C12 C 0.21303 0.38466 0.26741 0.0
C13 C 0.17868 0.36272 0.29829 0.0
N14 N 0.20349 0.36338 0.28724 0.0
C15 C 0.17488 0.45637 0.28637 0.0
C16 C 0.21906 0.46982 0.32551 0.0
C17 C 0.22174 0.49357 0.3089 0.0
C18 C 0.19924 0.48648 0.28904 0.0
C19 C 0.19442 0.4401 0.3221 0.0
N20 N 0.17188 0.43376 0.3035 0.0
H21 H 0.15911 0.45109 0.26973 0.0
H22 H 0.19451 0.42198 0.33364 0.0
H23 H 0.1957 0.41476 0.25373 0.0
H24 H 0.16528 0.34775 0.31469 0.0
O25 O 0.13279 0.39499 0.25852 0.0
O26 O 0.11021 0.35158 0.28183 0.0
O27 O 0.1422 0.37881 0.33497 0.0
C28 C 0.11308 0.36575 0.25898 0.0
H29 H 0.03862 0.37412 0.33092 0.0
H30 H 0.23293 0.3916 0.25467 0.0
H31 H 0.23663 0.47381 0.34021 0.0
H32 H 0.20069 0.50391 0.27531 0.0
Co33 Co 0.75456 0.1501 0.62536 0.0
C34 C 0.68853 0.10226 0.63313 0.0
C35 C 0.70634 0.13464 0.66598 0.0
C36 C 0.6759 0.1145 0.67087 0.0
N37 N 0.71446 0.1269 0.64244 0.0
N38 N 0.66469 0.09417 0.65021 0.0
H39 H 0.6868 0.09073 0.61413 0.0
H40 H 0.72122 0.15435 0.67834 0.0
C41 C 0.77164 0.13882 0.67989 0.0
O42 O 0.77539 0.16092 0.66396 0.0
N43 N 0.79439 0.17353 0.60849 0.0
C44 C 0.80086 0.19016 0.58559 0.0
C45 C 0.83216 0.20612 0.58204 0.0
C46 C 0.82164 0.1792 0.61839 0.0
N47 N 0.8452 0.19933 0.60279 0.0
C48 C 0.72537 0.18538 0.61567 0.0
C49 C 0.77011 0.23913 0.63947 0.0
C50 C 0.7436 0.23802 0.62933 0.0
C51 C 0.7212 0.21077 0.617 0.0
C52 C 0.77335 0.21326 0.63775 0.0
N53 N 0.75084 0.18665 0.62648 0.0
H54 H 0.70786 0.16439 0.60636 0.0
H55 H 0.79408 0.21471 0.64544 0.0
H56 H 0.78406 0.19147 0.57293 0.0
H57 H 0.8243 0.16998 0.63732 0.0
O58 O 0.73693 0.13465 0.59008 0.0
O59 O 0.75516 0.11274 0.61757 0.0
O60 O 0.77456 0.15973 0.66323 0.0
C61 C 0.74288 0.11266 0.59428 0.0
H62 H 0.66273 0.11564 0.68774 0.0
H63 H 0.84433 0.22203 0.56577 0.0
H64 H 0.78836 0.25992 0.6485 0.0
H65 H 0.70035 0.20883 0.60895 0.0
Co66 Co 0.61302 0.75484 0.96155 0.0
C67 C 0.5817 0.68711 0.96644 0.0
C68 C 0.61526 0.71026 -0.00225 0.0
C69 C 0.60238 0.67917 0.00134 0.0
N70 N 0.60216 0.71518 0.97604 0.0
N71 N 0.58132 0.66463 0.98167 0.0
H72 H 0.56753 0.6833 0.94874 0.0
H73 H 0.63341 0.72803 0.00982 0.0
C74 C 0.61575 0.79109 0.01064 0.0
O75 O 0.60027 0.80103 -0.0033 0.0
N76 N 0.62572 0.79553 0.94729 0.0
C77 C 0.61588 0.80447 0.92556 0.0
C78 C 0.63223 0.83609 0.92403 0.0
C79 C 0.64905 0.82176 0.95753 0.0
N80 N 0.65279 0.84686 0.94444 0.0
C81 C 0.55383 0.7418 0.94227 0.0
C82 C 0.52558 0.73022 -0.00761 0.0
C83 C 0.50949 0.73098 0.96946 0.0
C84 C 0.52371 0.73584 0.94403 0.0
C85 C 0.55564 0.73615 -0.01038 0.0
N86 N 0.57026 0.74429 0.96507 0.0
H87 H 0.56367 0.74385 0.92245 0.0
H88 H 0.56725 0.73452 0.00739 0.0
H89 H 0.59848 0.7896 0.91138 0.0
H90 H 0.66288 0.82247 0.97458 0.0
O91 O 0.61134 0.73969 0.92531 0.0
O92 O 0.6528 0.76089 0.95133 0.0
O93 O 0.62286 0.77242 -0.00032 0.0
C94 C 0.6401 0.74815 0.92824 0.0
H95 H 0.60873 0.66813 0.01676 0.0
H96 H 0.62864 0.85003 0.90948 0.0
H97 H 0.51536 0.72571 0.01241 0.0
H98 H 0.5116 0.73477 0.92555 0.0
Co99 Co 0.85555 0.61166 0.28937 0.0
C100 C 0.89201 0.58108 0.29735 0.0
C101 C 0.90363 0.61757 0.326 0.0
C102 C 0.92234 0.6055 0.33051 0.0
N103 N 0.88458 0.60215 0.30536 0.0
N104 N 0.91508 0.58258 0.31249 0.0
H105 H 0.8809 0.56524 0.2807 0.0
H106 H 0.90447 0.63684 0.33654 0.0
C107 C 0.82194 0.61676 0.33745 0.0
O108 O 0.79632 0.60101 0.32371 0.0
N109 N 0.82727 0.62283 0.2733 0.0
C110 C 0.80957 0.61171 0.25092 0.0
C111 C 0.7937 0.62709 0.24731 0.0
C112 C 0.82325 0.64609 0.28183 0.0
N113 N 0.80211 0.64852 0.26698 0.0
C114 C 0.81022 0.55105 0.27169 0.0
C115 C 0.7924 0.5256 0.32271 0.0
C116 C 0.77606 0.50815 0.30003 0.0
C117 C 0.78608 0.52093 0.27419 0.0
C118 C 0.8166 0.5556 0.3192 0.0
N119 N 0.82357 0.56885 0.29406 0.0
H120 H 0.81843 0.55981 0.25165 0.0
H121 H 0.82948 0.56821 0.33685 0.0
H122 H 0.80849 0.59428 0.23751 0.0
H123 H 0.83495 0.66037 0.29919 0.0
O124 O 0.86942 0.60858 0.25369 0.0
O125 O 0.8892 0.6512 0.27838 0.0
O126 O 0.84756 0.62311 0.32672 0.0
C127 C 0.88958 0.63757 0.25595 0.0
H128 H 0.94063 0.61376 0.34532 0.0
H129 H 0.77734 0.62284 0.23133 0.0
H130 H 0.78622 0.51654 0.34309 0.0
H131 H 0.7755 0.50773 0.25597 0.0
Co132 Co 0.25147 0.85463 0.62467 0.0
C133 C 0.31902 0.88834 0.63096 0.0
C134 C 0.29653 0.90162 0.66064 0.0
C135 C 0.32754 0.91832 0.66515 0.0
N136 N 0.29123 0.88273 0.6394 0.0
N137 N 0.34166 0.90996 0.64653 0.0
H138 H 0.32251 0.87674 0.61397 0.0
H139 H 0.27906 0.90343 0.67186 0.0
C140 C 0.21497 0.82191 0.67388 0.0
O141 O 0.20386 0.7961 0.66011 0.0
N142 N 0.21074 0.82739 0.61008 0.0
C143 C 0.20188 0.81031 0.58714 0.0
C144 C 0.17041 0.79595 0.58498 0.0
C145 C 0.18469 0.82458 0.62044 0.0
N146 N 0.1597 0.80473 0.60621 0.0
C147 C 0.26182 0.80636 0.60563 0.0
C148 C 0.27432 0.79081 0.65581 0.0
C149 C 0.27232 0.77295 0.63316 0.0
C150 C 0.26686 0.78159 0.60768 0.0
C151 C 0.26906 0.81536 0.65279 0.0
N152 N 0.26072 0.82151 0.62823 0.0
H153 H 0.25947 0.8137 0.58575 0.0
H154 H 0.27149 0.82927 0.67038 0.0
H155 H 0.2168 0.8088 0.57234 0.0
H156 H 0.184 0.83704 0.63811 0.0
O157 O 0.26691 0.86806 0.58849 0.0
O158 O 0.2465 0.88901 0.61472 0.0
O159 O 0.23407 0.84737 0.66276 0.0
C160 C 0.25904 0.88883 0.59161 0.0
H161 H 0.33888 0.93587 0.68053 0.0
H162 H 0.15652 0.77998 0.56923 0.0
H163 H 0.27928 0.78555 0.67582 0.0
H164 H 0.26681 0.76953 0.58941 0.0
Co165 Co 0.3933 0.24933 0.96113 0.0
C166 C 0.42173 0.31667 0.96587 0.0
C167 C 0.39036 0.29314 -0.00151 0.0
C168 C 0.40144 0.32411 0.0014 0.0
N169 N 0.40314 0.28856 0.97629 0.0
N170 N 0.42104 0.33891 0.9808 0.0
H171 H 0.43459 0.32056 0.94727 0.0
H172 H 0.37359 0.2752 0.01135 0.0
C173 C 0.3917 0.21313 0.00969 0.0
O174 O 0.40805 0.20412 -0.00422 0.0
N175 N 0.38188 0.20923 0.94602 0.0
C176 C 0.3921 0.20163 0.92362 0.0
C177 C 0.37645 0.17014 0.92087 0.0
C178 C 0.35899 0.1823 0.95553 0.0
N179 N 0.35576 0.15803 0.9411 0.0
C180 C 0.45319 0.26457 0.94166 0.0
C181 C 0.48088 0.27472 -0.00808 0.0
C182 C 0.49732 0.27469 0.96888 0.0
C183 C 0.48342 0.27082 0.94338 0.0
C184 C 0.45085 0.26885 -0.01086 0.0
N185 N 0.43642 0.26108 0.96449 0.0
H186 H 0.44349 0.26296 0.92186 0.0
H187 H 0.43901 0.26991 0.00703 0.0
H188 H 0.409 0.2174 0.90959 0.0
H189 H 0.34539 0.1805 0.97315 0.0
O190 O 0.39443 0.26482 0.92521 0.0
O191 O 0.35309 0.24226 0.95132 0.0
O192 O 0.38368 0.2311 -0.00109 0.0
C193 C 0.36554 0.25571 0.92843 0.0
H194 H 0.39535 0.3348 0.01743 0.0
H195 H 0.37985 0.15724 0.90499 0.0
H196 H 0.49067 0.27843 0.01207 0.0
H197 H 0.49575 0.27265 0.92482 0.0
Co198 Co 0.60952 0.85852 0.34772 0.0
C199 C 0.57951 0.89745 0.34323 0.0
C200 C 0.62435 0.91764 0.32567 0.0
C201 C 0.6139 0.93788 0.32287 0.0
N202 N 0.60275 0.89206 0.33811 0.0
N203 N 0.58569 0.92521 0.33386 0.0
H204 H 0.55858 0.88183 0.35348 0.0
H205 H 0.64647 0.92138 0.31923 0.0
C206 C 0.60923 0.86001 0.28752 0.0
O207 O 0.58534 0.86375 0.28964 0.0
N208 N 0.61799 0.82647 0.35715 0.0
C209 C 0.60353 0.80403 0.37557 0.0
C210 C 0.61635 0.78545 0.37494 0.0
C211 C 0.63943 0.82155 0.34577 0.0
N212 N 0.63891 0.79653 0.35615 0.0
C213 C 0.54455 0.82387 0.35788 0.0
C214 C 0.53097 0.78008 0.31808 0.0
C215 C 0.50727 0.77741 0.33479 0.0
C216 C 0.51443 0.79965 0.35504 0.0
C217 C 0.56071 0.80456 0.32167 0.0
N218 N 0.5671 0.82695 0.34058 0.0
H219 H 0.54987 0.83958 0.37466 0.0
H220 H 0.57877 0.80455 0.30994 0.0
H221 H 0.58478 0.80119 0.38828 0.0
H222 H 0.65457 0.83562 0.32972 0.0
O223 O 0.60583 0.86585 0.38563 0.0
O224 O 0.64909 0.88872 0.36213 0.0
O225 O 0.62188 0.85702 0.30888 0.0
C226 C 0.63497 0.88575 0.38506 0.0
H227 H 0.62649 0.96053 0.31401 0.0
H228 H 0.60956 0.76539 0.38739 0.0
H229 H 0.52688 0.76267 0.30305 0.0
H230 H 0.49702 0.79818 0.36885 0.0
Co231 Co 0.75536 0.61788 0.6753 0.0
C232 C 0.68784 0.58775 0.67101 0.0
C233 C 0.71109 0.62627 0.64416 0.0
C234 C 0.68009 0.61473 0.6417 0.0
N235 N 0.71586 0.60934 0.66246 0.0
N236 N 0.66552 0.5906 0.65862 0.0
H237 H 0.68398 0.57099 0.68651 0.0
H238 H 0.72896 0.64605 0.63375 0.0
C239 C 0.78923 0.62218 0.62414 0.0
O240 O 0.79948 0.60586 0.63622 0.0
N241 N 0.79595 0.62833 0.68811 0.0
C242 C 0.80464 0.61731 0.70916 0.0
C243 C 0.8362 0.63264 0.71034 0.0
C244 C 0.82235 0.65142 0.67804 0.0
N245 N 0.84723 0.65381 0.69046 0.0
C246 C 0.74148 0.55699 0.6903 0.0
C247 C 0.72794 0.53214 0.63866 0.0
C248 C 0.72969 0.51461 0.65989 0.0
C249 C 0.73543 0.52702 0.6862 0.0
C250 C 0.73405 0.562 0.64377 0.0
N251 N 0.74329 0.57497 0.66893 0.0
H252 H 0.74451 0.56559 0.71076 0.0
H253 H 0.73179 0.57481 0.62729 0.0
H254 H 0.78962 0.59998 0.72327 0.0
H255 H 0.82334 0.66621 0.66172 0.0
O256 O 0.74145 0.61454 0.71221 0.0
O257 O 0.76318 0.65754 0.68824 0.0
O258 O 0.77159 0.62937 0.63692 0.0
C259 C 0.75073 0.64369 0.71099 0.0
H260 H 0.66912 0.62347 0.62848 0.0
H261 H 0.8499 0.62807 0.72438 0.0
H262 H 0.72201 0.52293 0.61825 0.0
H263 H 0.73605 0.51406 0.70344 0.0
Co264 Co 0.1477 0.75482 0.01121 0.0
C265 C 0.1089 0.68713 0.00621 0.0
C266 C 0.09676 0.71138 0.97762 0.0
C267 C 0.07679 0.68051 0.97455 0.0
N268 N 0.11689 0.7155 -0.00265 0.0
N269 N 0.08427 0.66523 -0.0074 0.0
H270 H 0.12028 0.68274 0.02275 0.0
H271 H 0.09621 0.72963 0.96661 0.0
C272 C 0.17873 0.79028 0.96108 0.0
O273 O 0.20502 0.80067 0.97377 0.0
N274 N 0.1777 0.79517 0.02501 0.0
C275 C 0.19763 0.80319 0.04587 0.0
C276 C 0.21371 0.8347 0.04817 0.0
C277 C 0.18082 0.82192 0.01609 0.0
N278 N 0.20324 0.84645 0.02924 0.0
C279 C 0.19303 0.7392 0.02738 0.0
C280 C 0.20697 0.72803 0.97588 0.0
C281 C 0.22447 0.72781 -0.00214 0.0
C282 C 0.21651 0.73245 0.02401 0.0
C283 C 0.18354 0.7347 0.98025 0.0
N284 N 0.17852 0.74271 0.0055 0.0
H285 H 0.18639 0.7413 0.0477 0.0
H286 H 0.16959 0.73354 0.96319 0.0
H287 H 0.20017 0.78771 0.05918 0.0
H288 H 0.16744 0.82338 -0.00036 0.0
O289 O 0.13608 0.74033 0.04783 0.0
O290 O 0.1155 0.76234 0.02341 0.0
O291 O 0.15363 0.77196 0.97315 0.0
C292 C 0.11633 0.74963 0.04616 0.0
H293 H 0.05815 0.67015 0.96009 0.0
H294 H 0.23153 0.84788 0.06284 0.0
H295 H 0.21124 0.72297 0.95547 0.0
H296 H 0.22867 0.73151 0.04174 0.0
Co297 Co 0.39098 0.14533 0.34744 0.0
C298 C 0.41936 0.10657 0.34116 0.0
C299 C 0.38313 0.09497 0.31243 0.0
C300 C 0.39433 0.07536 0.30864 0.0
N301 N 0.39895 0.11457 0.33266 0.0
N302 N 0.41709 0.08263 0.32671 0.0
H303 H 0.43542 0.11803 0.35756 0.0
H304 H 0.36429 0.09453 0.30159 0.0
C305 C 0.39074 0.17866 0.29758 0.0
O306 O 0.40873 0.20432 0.31068 0.0
N307 N 0.38111 0.17529 0.36229 0.0
C308 C 0.38843 0.18966 0.38666 0.0
C309 C 0.37426 0.20689 0.38924 0.0
C310 C 0.36097 0.1825 0.35141 0.0
N311 N 0.35727 0.20255 0.36683 0.0
C312 C 0.45118 0.19306 0.36392 0.0
C313 C 0.47821 0.2024 0.31335 0.0
C314 C 0.49502 0.22213 0.33473 0.0
C315 C 0.48146 0.21654 0.3605 0.0
C316 C 0.44806 0.17901 0.31777 0.0
N317 N 0.43414 0.17603 0.34234 0.0
H318 H 0.44165 0.18853 0.38401 0.0
H319 H 0.43559 0.16381 0.30113 0.0
H320 H 0.40191 0.18698 0.40223 0.0
H321 H 0.34839 0.17253 0.33287 0.0
O322 O 0.39368 0.13241 0.3835 0.0
O323 O 0.35098 0.11305 0.35916 0.0
O324 O 0.38054 0.1528 0.30952 0.0
C325 C 0.36453 0.11282 0.38163 0.0
H326 H 0.38568 0.05659 0.29422 0.0
H327 H 0.37634 0.22145 0.40628 0.0
H328 H 0.4882 0.2051 0.29335 0.0
H329 H 0.49383 0.23066 0.3778 0.0
Co330 Co 0.24955 0.38709 0.6793 0.0
C331 C 0.31822 0.41557 0.6764 0.0
C332 C 0.29344 0.37015 0.65971 0.0
C333 C 0.32416 0.3799 0.65845 0.0
N334 N 0.28959 0.39252 0.67076 0.0
N335 N 0.33969 0.40843 0.66895 0.0
H336 H 0.32359 0.43671 0.6864 0.0
H337 H 0.27499 0.34801 0.6532 0.0
C338 C 0.25251 0.38561 0.61906 0.0
O339 O 0.28092 0.40826 0.62115 0.0
N340 N 0.20939 0.38025 0.68791 0.0
C341 C 0.20217 0.39567 0.70603 0.0
C342 C 0.17099 0.38415 0.70506 0.0
C343 C 0.18276 0.35951 0.67633 0.0
N344 N 0.15884 0.36143 0.68634 0.0
C345 C 0.28096 0.45228 0.68926 0.0
C346 C 0.25337 0.46652 0.64786 0.0
C347 C 0.27355 0.49001 0.6653 0.0
C348 C 0.2874 0.48255 0.68628 0.0
C349 C 0.24747 0.43661 0.65165 0.0
N350 N 0.26209 0.42983 0.67149 0.0
H351 H 0.2903 0.44674 0.7066 0.0
H352 H 0.22974 0.41874 0.63944 0.0
H353 H 0.21847 0.41419 0.71881 0.0
H354 H 0.18109 0.34385 0.66046 0.0
O355 O 0.25966 0.39099 0.7174 0.0
O356 O 0.23836 0.34731 0.69425 0.0
O357 O 0.23622 0.37431 0.64041 0.0
C358 C 0.2494 0.36161 0.71717 0.0
H359 H 0.33427 0.36703 0.65029 0.0
H360 H 0.1583 0.39188 0.71728 0.0
H361 H 0.24098 0.47087 0.6322 0.0
H362 H 0.30264 0.49982 0.70062 0.0
Co363 Co 0.86046 0.24977 0.00983 0.0
C364 C 0.89931 0.31687 0.00257 0.0
C365 C 0.90643 0.29144 0.97113 0.0
C366 C 0.92658 0.32215 0.96721 0.0
N367 N 0.88935 0.28818 -0.00678 0.0
N368 N 0.92226 0.33815 -0.01293 0.0
H369 H 0.89082 0.3219 0.02093 0.0
H370 H 0.90505 0.27276 0.95916 0.0
C371 C 0.82482 0.20987 0.96304 0.0
O372 O 0.79996 0.20077 0.97771 0.0
N373 N 0.83238 0.21046 0.02643 0.0
C374 C 0.81383 0.20366 0.0482 0.0
C375 C 0.79835 0.17233 0.05197 0.0
C376 C 0.8291 0.18332 0.01837 0.0
N377 N 0.80776 0.15951 0.03296 0.0
C378 C 0.8166 0.26638 0.02851 0.0
C379 C 0.79653 0.27215 0.97793 0.0
C380 C 0.78136 0.27433 0.00103 0.0
C381 C 0.79264 0.27261 0.0266 0.0
C382 C 0.82076 0.26641 0.98086 0.0
N383 N 0.82873 0.26091 0.00585 0.0
H384 H 0.82557 0.26631 0.04833 0.0
H385 H 0.83276 0.26599 0.96285 0.0
H386 H 0.81168 0.21987 0.06095 0.0
H387 H 0.8414 0.18105 0.00136 0.0
O388 O 0.87549 0.26728 0.04517 0.0
O389 O 0.89409 0.24365 0.02025 0.0
O390 O 0.85102 0.22945 0.97274 0.0
C391 C 0.89533 0.25819 0.04259 0.0
H392 H 0.94335 0.33187 0.95109 0.0
H393 H 0.78148 0.16004 0.06756 0.0
H394 H 0.78945 0.27414 0.95766 0.0
H395 H 0.78316 0.27614 0.04509 0.0
H396 H 0.90754 0.29542 0.08641 0.0
H397 H 0.94593 0.30782 0.12158 0.0
H398 H 0.97336 0.24827 0.08314 0.0
H399 H 0.93529 0.23637 0.04718 0.0
H400 H 0.95167 0.27157 0.15799 0.0
H401 H 0.05482 0.32655 0.09196 0.0
H402 H 0.01739 0.31747 0.08008 0.0
H403 H 0.02711 0.2878 0.08286 0.0
C404 C 0.92175 0.28496 0.08534 0.0
C405 C 0.91846 0.26499 0.06395 0.0
C406 C 0.94369 0.29206 0.10552 0.0
C407 C 0.9628 0.27928 0.10488 0.0
C408 C 0.95932 0.25893 0.08375 0.0
H409 H 0.07267 0.30428 0.25209 0.0
H410 H 0.03729 0.27956 0.21403 0.0
C411 C 0.93746 0.25201 0.06332 0.0
C412 C 0.986 0.28738 0.12666 0.0
H413 H 0.06301 0.3232 0.13862 0.0
C414 C 0.97602 0.28266 0.15377 0.0
C415 C 0.01778 0.30207 0.1211 0.0
C416 C 0.03005 0.30907 0.09246 0.0
C417 C 0.99688 0.29304 0.17547 0.0
C418 C 0.02867 0.30775 0.16994 0.0
C419 C 0.03864 0.31169 0.14283 0.0
C420 C 0.05196 0.32172 0.19185 0.0
C421 C 0.98465 0.28952 0.20404 0.0
C422 C 0.07294 0.35337 0.19144 0.0
C423 C 0.09346 0.36741 0.21287 0.0
C424 C 0.09335 0.35012 0.23525 0.0
C425 C 0.0731 0.31824 0.23523 0.0
C426 C 0.05274 0.30412 0.21358 0.0
H427 H 0.96055 0.2845 0.20432 0.0
H428 H 0.98529 0.27016 0.21406 0.0
H429 H 0.9988 0.31062 0.21619 0.0
H430 H 0.07284 0.36742 0.17488 0.0
H431 H 0.10878 0.39201 0.21224 0.0
H432 H 0.69614 0.92698 0.39147 0.0
H433 H 0.7206 0.96322 0.4291 0.0
H434 H 0.63286 0.92725 0.46856 0.0
H435 H 0.6086 0.89049 0.43168 0.0
H436 H 0.71164 0.00819 0.44398 0.0
H437 H 0.68395 0.93091 0.53175 0.0
H438 H 0.67912 0.91722 0.49718 0.0
H439 H 0.64984 0.92216 0.51345 0.0
C440 C 0.68221 0.92644 0.40845 0.0
C441 C 0.65048 0.90579 0.40869 0.0
C442 C 0.69619 0.94718 0.42991 0.0
C443 C 0.67869 0.94767 0.45195 0.0
C444 C 0.64706 0.92677 0.45228 0.0
H445 H 0.70761 0.10091 0.54913 0.0
H446 H 0.69499 0.06114 0.51494 0.0
C447 C 0.63315 0.90587 0.43102 0.0
C448 C 0.69278 0.97165 0.47337 0.0
H449 H 0.69567 0.9827 0.54203 0.0
C450 C 0.70855 0.00257 0.46542 0.0
C451 C 0.68933 0.96446 0.5014 0.0
C452 C 0.67493 0.93186 0.51142 0.0
C453 C 0.71959 0.0264 0.48463 0.0
C454 C 0.71389 0.01915 0.51257 0.0
C455 C 0.69954 0.98829 0.5206 0.0
C456 C 0.72154 0.04315 0.53361 0.0
C457 C 0.73723 0.05911 0.47472 0.0
C458 C 0.73965 0.04553 0.55615 0.0
C459 C 0.74646 0.06798 0.57606 0.0
C460 C 0.73532 0.08845 0.57371 0.0
C461 C 0.71687 0.08574 0.55134 0.0
C462 C 0.70982 0.06314 0.53164 0.0
H463 H 0.74852 0.06064 0.45493 0.0
H464 H 0.72115 0.06782 0.47165 0.0
H465 H 0.755 0.07425 0.48958 0.0
H466 H 0.74871 0.03018 0.55824 0.0
H467 H 0.76068 0.0695 0.59312 0.0
H468 H 0.70172 0.7685 0.92521 0.0
H469 H 0.72893 0.75927 0.88828 0.0
H470 H 0.64349 0.70583 0.84556 0.0
H471 H 0.61649 0.71556 0.88174 0.0
H472 H 0.72319 0.70661 0.86954 0.0
H473 H 0.69612 0.76206 0.78619 0.0
H474 H 0.68992 0.76747 0.82139 0.0
H475 H 0.66181 0.73425 0.80294 0.0
C476 C 0.68885 0.75501 0.90781 0.0
C477 C 0.65702 0.74297 0.90627 0.0
C478 C 0.7044 0.74977 0.88674 0.0
C479 C 0.68836 0.73246 0.86382 0.0
C480 C 0.65653 0.72008 0.86256 0.0
H481 H 0.71899 0.61813 0.75741 0.0
H482 H 0.70895 0.64355 0.79485 0.0
C483 C 0.64107 0.72547 0.88342 0.0
C484 C 0.7043 0.72575 0.84178 0.0
H485 H 0.70963 0.72411 0.77274 0.0
C486 C 0.72068 0.71091 0.8484 0.0
C487 C 0.70171 0.73198 0.8142 0.0
C488 C 0.68673 0.75013 0.8058 0.0
C489 C 0.73283 0.70043 0.82811 0.0
C490 C 0.72776 0.70417 0.80046 0.0
C491 C 0.7131 0.72074 0.7939 0.0
C492 C 0.73544 0.68926 0.77813 0.0
C493 C 0.75074 0.68521 0.83658 0.0
C494 C 0.75294 0.7063 0.75573 0.0
C495 C 0.75831 0.69166 0.73393 0.0
C496 C 0.74624 0.65973 0.7342 0.0
C497 C 0.72889 0.6428 0.75669 0.0
C498 C 0.72334 0.65737 0.77828 0.0
H499 H 0.76195 0.694 0.85659 0.0
H500 H 0.73484 0.66016 0.83866 0.0
H501 H 0.76858 0.68896 0.8214 0.0
H502 H 0.76226 0.7309 0.75503 0.0
H503 H 0.77171 0.70529 0.71684 0.0
H504 H 0.06259 0.75064 0.04487 0.0
H505 H 0.02527 0.73681 0.08174 0.0
H506 H 0.0854 0.72406 0.13549 0.0
H507 H 0.12211 0.73675 0.09858 0.0
H508 H 0.02997 0.67635 0.13719 0.0
H509 H 0.02123 0.78114 0.14822 0.0
H510 H 0.01389 0.76638 0.11417 0.0
H511 H 0.05128 0.7805 0.12881 0.0
C512 C 0.06799 0.74534 0.06469 0.0
C513 C 0.09518 0.74466 0.06886 0.0
C514 C 0.04675 0.73764 0.0858 0.0
C515 C 0.05266 0.72975 0.11154 0.0
C516 C 0.08031 0.73008 0.11585 0.0
H517 H 0.94196 0.69386 0.25843 0.0
H518 H 0.98187 0.71756 0.2235 0.0
C519 C 0.10128 0.73733 0.09473 0.0
C520 C 0.0291 0.7185 0.13331 0.0
H521 H 0.98245 0.73595 0.17032 0.0
C522 C 0.01978 0.68954 0.14454 0.0
C523 C 0.01601 0.73581 0.14318 0.0
C524 C 0.02633 0.76781 0.13318 0.0
C525 C 0.99749 0.67719 0.16497 0.0
C526 C 0.98334 0.69382 0.17391 0.0
C527 C 0.99304 0.72307 0.16317 0.0
C528 C 0.95827 0.68089 0.19424 0.0
C529 C 0.98967 0.64659 0.17705 0.0
C530 C 0.93143 0.65294 0.18906 0.0
C531 C 0.90888 0.63928 0.20897 0.0
C532 C 0.91246 0.65356 0.23434 0.0
C533 C 0.93864 0.6823 0.23908 0.0
C534 C 0.96141 0.69586 0.21916 0.0
H535 H 0.00849 0.64148 0.17401 0.0
H536 H 0.98493 0.6459 0.19914 0.0
H537 H 0.96892 0.62817 0.1669 0.0
H538 H 0.92817 0.64138 0.16972 0.0
H539 H 0.88878 0.6173 0.20458 0.0
H540 H 0.30305 0.07089 0.38589 0.0
H541 H 0.27736 0.0334 0.42238 0.0
H542 H 0.36414 0.06666 0.46289 0.0
H543 H 0.38961 0.10439 0.42721 0.0
H544 H 0.28513 0.98693 0.4381 0.0
H545 H 0.31226 0.06598 0.52492 0.0
H546 H 0.31737 0.07895 0.49018 0.0
H547 H 0.34646 0.07423 0.50697 0.0
C548 C 0.31652 0.07041 0.40278 0.0
C549 C 0.3483 0.09074 0.40377 0.0
C550 C 0.30184 0.04899 0.42359 0.0
C551 C 0.31871 0.04764 0.44571 0.0
C552 C 0.35045 0.06785 0.44654 0.0
H553 H 0.29194 0.89844 0.54519 0.0
H554 H 0.3021 0.93599 0.50968 0.0
C555 C 0.36504 0.0893 0.42595 0.0
C556 C 0.30382 0.02399 0.46716 0.0
H557 H 0.3004 0.01439 0.53594 0.0
C558 C 0.28801 0.99294 0.4595 0.0
C559 C 0.30696 0.03174 0.49511 0.0
C560 C 0.32139 0.06456 0.50475 0.0
C561 C 0.27687 0.96949 0.47899 0.0
C562 C 0.28243 0.97731 0.50687 0.0
C563 C 0.2966 0.00832 0.51457 0.0
C564 C 0.27532 0.95391 0.52825 0.0
C565 C 0.25943 0.93658 0.46942 0.0
C566 C 0.25774 0.95211 0.55108 0.0
C567 C 0.25234 0.93093 0.57173 0.0
C568 C 0.26441 0.91119 0.56989 0.0
C569 C 0.28204 0.91311 0.54708 0.0
C570 C 0.28765 0.93441 0.52661 0.0
H571 H 0.24792 0.93456 0.44967 0.0
H572 H 0.27568 0.92807 0.46636 0.0
H573 H 0.24188 0.92161 0.48445 0.0
H574 H 0.24823 0.96711 0.55292 0.0
H575 H 0.2387 0.93001 0.58909 0.0
H576 H 0.28107 0.38814 0.76356 0.0
H577 H 0.29293 0.36356 0.80042 0.0
H578 H 0.23755 0.27529 0.76219 0.0
H579 H 0.22645 0.29999 0.72458 0.0
H580 H 0.26013 0.32032 0.83744 0.0
H581 H 0.31879 0.2788 0.76824 0.0
H582 H 0.30665 0.30514 0.75733 0.0
H583 H 0.2793 0.26484 0.76013 0.0
C584 C 0.27116 0.36345 0.76307 0.0
C585 C 0.2531 0.34602 0.74101 0.0
C586 C 0.27794 0.34941 0.78421 0.0
C587 C 0.26666 0.31765 0.78381 0.0
C588 C 0.24717 0.29993 0.76257 0.0
H589 H 0.30369 0.23423 0.92597 0.0
H590 H 0.2761 0.24559 0.89112 0.0
C591 C 0.24067 0.31404 0.7412 0.0
C592 C 0.27671 0.30371 0.80504 0.0
H593 H 0.31694 0.26656 0.81448 0.0
C594 C 0.27236 0.30834 0.83246 0.0
C595 C 0.29299 0.28841 0.79848 0.0
C596 C 0.30001 0.2842 0.76948 0.0
C597 C 0.28451 0.29885 0.85347 0.0
C598 C 0.30075 0.28353 0.84688 0.0
C599 C 0.30431 0.27812 0.81949 0.0
C600 C 0.31668 0.27544 0.86778 0.0
C601 C 0.28112 0.30667 0.88242 0.0
C602 C 0.34845 0.2876 0.8658 0.0
C603 C 0.36409 0.28077 0.88534 0.0
C604 C 0.34834 0.26169 0.9074 0.0
C605 C 0.31646 0.24917 0.90927 0.0
C606 C 0.30071 0.25581 0.88949 0.0
H607 H 0.27446 0.32459 0.88348 0.0
H608 H 0.263 0.28581 0.89262 0.0
H609 H 0.30281 0.31488 0.89388 0.0
H610 H 0.36127 0.30278 0.84924 0.0
H611 H 0.38866 0.29084 0.88332 0.0
H612 H 0.13093 0.40986 0.40626 0.0
H613 H 0.14692 0.40081 0.45036 0.0
H614 H 0.1786 0.34459 0.41229 0.0
H615 H 0.16241 0.35331 0.36787 0.0
H616 H 0.14668 0.32221 0.46496 0.0
H617 H 0.24066 0.44373 0.46653 0.0
H618 H 0.20326 0.43863 0.46058 0.0
H619 H 0.21992 0.42488 0.43597 0.0
C620 C 0.14096 0.39526 0.40723 0.0
C621 C 0.14575 0.38262 0.3835 0.0
C622 C 0.15008 0.39012 0.43246 0.0
C623 C 0.16432 0.37243 0.43446 0.0
C624 C 0.1677 0.35839 0.41109 0.0
H625 H 0.28183 0.39459 0.57073 0.0
H626 H 0.2597 0.38638 0.52531 0.0
C627 C 0.15846 0.36343 0.38575 0.0
C628 C 0.17772 0.37073 0.46065 0.0
H629 H 0.23177 0.41567 0.50725 0.0
C630 C 0.16542 0.34253 0.47421 0.0
C631 C 0.20245 0.39721 0.47238 0.0
C632 C 0.2176 0.4278 0.45805 0.0
C633 C 0.17674 0.34034 0.4997 0.0
C634 C 0.20066 0.36715 0.51193 0.0
C635 C 0.21335 0.39513 0.49795 0.0
C636 C 0.21297 0.36725 0.53931 0.0
C637 C 0.16321 0.30938 0.51314 0.0
C638 C 0.19397 0.35856 0.56233 0.0
C639 C 0.20658 0.36296 0.5884 0.0
C640 C 0.23845 0.37663 0.59182 0.0
C641 C 0.25722 0.38421 0.56873 0.0
C642 C 0.2446 0.37948 0.54276 0.0
H643 H 0.15209 0.29043 0.49808 0.0
H644 H 0.18098 0.30694 0.52427 0.0
H645 H 0.14547 0.30687 0.5279 0.0
H646 H 0.16961 0.34974 0.56024 0.0
H647 H 0.19157 0.35713 0.60583 0.0
H648 H 0.8033 0.19552 0.70503 0.0
H649 H 0.81634 0.20553 0.75308 0.0
H650 H 0.77674 0.10849 0.76735 0.0
H651 H 0.76387 0.09825 0.71892 0.0
H652 H 0.77354 0.1837 0.79437 0.0
H653 H 0.8587 0.1458 0.80838 0.0
H654 H 0.84862 0.15356 0.77535 0.0
H655 H 0.8236 0.11809 0.7923 0.0
C656 C 0.79773 0.17628 0.71825 0.0
C657 C 0.78246 0.14596 0.70826 0.0
C658 C 0.80522 0.18208 0.74574 0.0
C659 C 0.79775 0.1578 0.76374 0.0
C660 C 0.78322 0.1276 0.75371 0.0
H661 H 0.77339 0.16628 0.9372 0.0
H662 H 0.76756 0.15217 0.88917 0.0
C663 C 0.77575 0.12177 0.72613 0.0
C664 C 0.80286 0.16408 0.79327 0.0
H665 H 0.84024 0.15768 0.84844 0.0
C666 C 0.78818 0.17807 0.80618 0.0
C667 C 0.82216 0.15693 0.80855 0.0
C668 C 0.83943 0.14301 0.79546 0.0
C669 C 0.79204 0.18489 0.83401 0.0
C670 C 0.81068 0.17703 0.84946 0.0
C671 C 0.82572 0.16338 0.83655 0.0
C672 C 0.81501 0.1833 0.87901 0.0
C673 C 0.77649 0.20092 0.84655 0.0
C674 C 0.84391 0.20462 0.88939 0.0
C675 C 0.84739 0.21268 0.91691 0.0
C676 C 0.82199 0.19948 0.93449 0.0
C677 C 0.79336 0.17715 0.92418 0.0
C678 C 0.78994 0.16908 0.89672 0.0
H679 H 0.76927 0.21189 0.83094 0.0
H680 H 0.75573 0.18389 0.85763 0.0
H681 H 0.79188 0.21877 0.86127 0.0
H682 H 0.86356 0.21574 0.87602 0.0
H683 H 0.86978 0.22984 0.92421 0.0
H684 H 0.6429 0.83284 0.27388 0.0
H685 H 0.65515 0.82314 0.22786 0.0
H686 H 0.61019 0.86906 0.19394 0.0
H687 H 0.59773 0.8786 0.23952 0.0
H688 H 0.6077 0.78956 0.18631 0.0
H689 H 0.69456 0.90678 0.15374 0.0
H690 H 0.6865 0.89588 0.18904 0.0
H691 H 0.66148 0.90447 0.16984 0.0
C692 C 0.63608 0.84127 0.25659 0.0
C693 C 0.61932 0.85644 0.26025 0.0
C694 C 0.64303 0.83567 0.23039 0.0
C695 C 0.63386 0.84572 0.2076 0.0
C696 C 0.61787 0.86155 0.2113 0.0
H697 H 0.60566 0.83165 0.03917 0.0
H698 H 0.61479 0.84431 0.08735 0.0
C699 C 0.61061 0.8668 0.23735 0.0
C700 C 0.63851 0.83772 0.17976 0.0
H701 H 0.66862 0.86989 0.11832 0.0
C702 C 0.62154 0.80695 0.17149 0.0
C703 C 0.65653 0.86054 0.1606 0.0
C704 C 0.67605 0.89377 0.16874 0.0
C705 C 0.62048 0.79863 0.14409 0.0
C706 C 0.63738 0.8217 0.12466 0.0
C707 C 0.65564 0.85227 0.13324 0.0
C708 C 0.63395 0.81509 0.09512 0.0
C709 C 0.59978 0.76556 0.13593 0.0
C710 C 0.64227 0.79489 0.08337 0.0
C711 C 0.63693 0.78745 0.05575 0.0
C712 C 0.6233 0.80021 0.03944 0.0
C713 C 0.61597 0.82121 0.05115 0.0
C714 C 0.62128 0.82858 0.0787 0.0
H715 H 0.58407 0.75177 0.1526 0.0
H716 H 0.58583 0.76397 0.11791 0.0
H717 H 0.61395 0.75518 0.13044 0.0
H718 H 0.65258 0.78465 0.09561 0.0
H719 H 0.64303 0.77135 0.0473 0.0
H720 H 0.7605 0.64169 0.58908 0.0
H721 H 0.76764 0.64812 0.53979 0.0
H722 H 0.8392 0.6253 0.54395 0.0
H723 H 0.83222 0.61867 0.59316 0.0
H724 H 0.84709 0.68159 0.50786 0.0
H725 H 0.74405 0.56641 0.49101 0.0
H726 H 0.74189 0.59219 0.51521 0.0
H727 H 0.76569 0.57601 0.52225 0.0
C728 C 0.77808 0.63849 0.57958 0.0
C729 C 0.79564 0.62942 0.59497 0.0
C730 C 0.78207 0.64214 0.55146 0.0
C731 C 0.80384 0.63705 0.53838 0.0
C732 C 0.8223 0.62933 0.55378 0.0
H733 H 0.86605 0.63298 0.37635 0.0
H734 H 0.86194 0.64129 0.4247 0.0
C735 C 0.81818 0.62544 0.58184 0.0
C736 C 0.80588 0.6375 0.50845 0.0
H737 H 0.7716 0.59349 0.45251 0.0
C738 C 0.83054 0.6625 0.49563 0.0
C739 C 0.78412 0.61257 0.49275 0.0
C740 C 0.75742 0.58511 0.50583 0.0
C741 C 0.8341 0.66315 0.46728 0.0
C742 C 0.81284 0.63771 0.45157 0.0
C743 C 0.78787 0.61299 0.46451 0.0
C744 C 0.81649 0.63546 0.42187 0.0
C745 C 0.86035 0.69121 0.45448 0.0
C746 C 0.79215 0.62891 0.40417 0.0
C747 C 0.79422 0.62357 0.37659 0.0
C748 C 0.82074 0.6248 0.36615 0.0
C749 C 0.84542 0.63218 0.38373 0.0
C750 C 0.84319 0.63715 0.41138 0.0
H751 H 0.86783 0.71188 0.46743 0.0
H752 H 0.88016 0.68755 0.45213 0.0
H753 H 0.85406 0.69576 0.43413 0.0
H754 H 0.77127 0.62737 0.41181 0.0
H755 H 0.77486 0.61807 0.36353 0.0
H756 H 0.13072 0.76287 0.92543 0.0
H757 H 0.13215 0.77045 0.87623 0.0
H758 H 0.22742 0.84015 0.88142 0.0
H759 H 0.22637 0.83272 0.9306 0.0
H760 H 0.18044 0.84996 0.84498 0.0
H761 H 0.18866 0.74485 0.8278 0.0
H762 H 0.16094 0.7433 0.85182 0.0
H763 H 0.201 0.76632 0.8592 0.0
C764 C 0.15188 0.78013 0.9162 0.0
C765 C 0.17852 0.79704 0.9319 0.0
C766 C 0.15262 0.78439 0.88811 0.0
C767 C 0.17991 0.80575 0.87534 0.0
C768 C 0.20616 0.82358 0.89102 0.0
H769 H 0.24521 0.8661 0.71248 0.0
H770 H 0.23408 0.86277 0.76106 0.0
C771 C 0.20553 0.8192 0.91907 0.0
C772 C 0.18173 0.80794 0.84543 0.0
H773 H 0.18948 0.77256 0.78934 0.0
C774 C 0.18226 0.83303 0.83269 0.0
C775 C 0.18394 0.78567 0.82966 0.0
C776 C 0.18375 0.75849 0.84264 0.0
C777 C 0.18497 0.83646 0.80433 0.0
C778 C 0.18807 0.81461 0.78853 0.0
C779 C 0.18708 0.78929 0.80141 0.0
C780 C 0.19336 0.81783 0.75876 0.0
C781 C 0.18405 0.86318 0.79161 0.0
C782 C 0.17451 0.7935 0.74129 0.0
C783 C 0.18117 0.79511 0.71359 0.0
C784 C 0.20675 0.82116 0.7028 0.0
C785 C 0.22516 0.84584 0.72016 0.0
C786 C 0.2187 0.84406 0.74793 0.0
H787 H 0.17173 0.87144 0.80475 0.0
H788 H 0.20781 0.88248 0.78894 0.0
H789 H 0.17275 0.85697 0.77141 0.0
H790 H 0.15491 0.77299 0.7492 0.0
H791 H 0.16646 0.7758 0.70069 0.0
H792 H 0.34623 0.21181 0.04097 0.0
H793 H 0.33761 0.20079 0.08964 0.0
H794 H 0.41534 0.18699 0.0926 0.0
H795 H 0.42295 0.19631 0.04387 0.0
H796 H 0.37168 0.14626 0.12276 0.0
H797 H 0.38568 0.26006 0.14797 0.0
H798 H 0.35435 0.23788 0.12535 0.0
H799 H 0.39302 0.25078 0.11447 0.0
C800 C 0.36132 0.20623 0.05205 0.0
C801 C 0.38536 0.20508 0.0387 0.0
C802 C 0.35653 0.20017 0.07989 0.0
C803 C 0.3763 0.19381 0.095 0.0
C804 C 0.39982 0.19192 0.08146 0.0
H805 H 0.42374 0.22547 0.26264 0.0
H806 H 0.41648 0.22663 0.21387 0.0
C807 C 0.40418 0.19729 0.05358 0.0
C808 C 0.37317 0.18969 0.12495 0.0
H809 H 0.3735 0.22536 0.18415 0.0
C810 C 0.37201 0.16353 0.1362 0.0
C811 C 0.37385 0.21235 0.14252 0.0
C812 C 0.37709 0.24198 0.13202 0.0
C813 C 0.37253 0.15985 0.16442 0.0
C814 C 0.37292 0.18238 0.18198 0.0
C815 C 0.37302 0.20801 0.17071 0.0
C816 C 0.3761 0.18141 0.21192 0.0
C817 C 0.37427 0.13265 0.17497 0.0
C818 C 0.35557 0.15577 0.22731 0.0
C819 C 0.36009 0.1548 0.25526 0.0
C820 C 0.3847 0.17982 0.2684 0.0
C821 C 0.40447 0.20587 0.25315 0.0
C822 C 0.40032 0.20657 0.22522 0.0
H823 H 0.38197 0.12237 0.15903 0.0
H824 H 0.39023 0.13927 0.19246 0.0
H825 H 0.35119 0.11471 0.18179 0.0
H826 H 0.33617 0.13645 0.21771 0.0
H827 H 0.34433 0.13454 0.26659 0.0
H828 H 0.91931 0.5544 0.26677 0.0
H829 H 0.94683 0.52609 0.26176 0.0
H830 H 0.973 0.54265 0.34612 0.0
H831 H 0.9453 0.57045 0.35144 0.0
H832 H 0.02224 0.5566 0.30852 0.0
H833 H 0.92109 0.43989 0.29383 0.0
H834 H 0.92356 0.4699 0.2724 0.0
H835 H 0.91788 0.47117 0.30825 0.0
C836 C 0.93054 0.55166 0.28435 0.0
C837 C 0.93012 0.56479 0.30952 0.0
C838 C 0.94635 0.53557 0.28141 0.0
C839 C 0.96185 0.53225 0.3036 0.0
C840 C 0.9613 0.54512 0.32872 0.0
H841 H 0.03064 0.41409 0.34384 0.0
H842 H 0.00465 0.4436 0.33928 0.0
C843 C 0.94552 0.5611 0.33169 0.0
C844 C 0.97902 0.51568 0.30088 0.0
H845 H 0.96972 0.44413 0.29315 0.0
C846 C 0.01086 0.53206 0.30489 0.0
C847 C 0.96398 0.48366 0.29632 0.0
C848 C 0.92972 0.46493 0.29262 0.0
C849 C 0.02804 0.51713 0.30498 0.0
C850 C 0.01294 0.48505 0.30076 0.0
C851 C 0.98119 0.46877 0.29622 0.0
C852 C 0.02922 0.46758 0.30311 0.0
C853 C 0.06197 0.53551 0.31063 0.0
C854 C 0.05172 0.47132 0.28424 0.0
C855 C 0.06657 0.45427 0.2867 0.0
C856 C 0.05906 0.43312 0.30802 0.0
C857 C 0.03665 0.42973 0.32693 0.0
C858 C 0.02184 0.44668 0.32443 0.0
H859 H 0.06919 0.55911 0.31782 0.0
H860 H 0.06852 0.5239 0.32616 0.0
H861 H 0.07476 0.53726 0.29174 0.0
H862 H 0.05747 0.48711 0.26745 0.0
H863 H 0.0834 0.45717 0.27159 0.0
H864 H 0.63472 0.07129 0.60236 0.0
H865 H 0.57972 0.0354 0.59648 0.0
H866 H 0.56815 0.02837 0.68338 0.0
H867 H 0.62293 0.06368 0.68947 0.0
H868 H 0.53772 0.97157 0.62146 0.0
H869 H 0.5134 0.06359 0.65181 0.0
H870 H 0.55051 0.07158 0.63974 0.0
H871 H 0.5389 0.05864 0.67394 0.0
C872 C 0.62059 0.06163 0.62021 0.0
C873 C 0.63314 0.07068 0.64642 0.0
C874 C 0.58918 0.04121 0.61679 0.0
C875 C 0.56997 0.02962 0.63951 0.0
C876 C 0.58264 0.03741 0.66562 0.0
H877 H 0.38364 0.93188 0.6867 0.0
H878 H 0.43924 0.95889 0.68179 0.0
C879 C 0.6139 0.05772 0.66905 0.0
C880 C 0.53635 0.01108 0.63633 0.0
H881 H 0.47101 0.0129 0.64991 0.0
C882 C 0.52302 0.98058 0.62731 0.0
C883 C 0.51743 0.02312 0.64385 0.0
C884 C 0.53068 0.05611 0.65268 0.0
C885 C 0.491 0.96128 0.62693 0.0
C886 C 0.47214 0.97306 0.63551 0.0
C887 C 0.48558 0.0039 0.6435 0.0
C888 C 0.43849 0.9536 0.63813 0.0
C889 C 0.47757 0.92819 0.6185 0.0
C890 C 0.41962 0.94124 0.61522 0.0
C891 C 0.38768 0.92578 0.61799 0.0
C892 C 0.37424 0.92279 0.64369 0.0
C893 C 0.3933 0.93429 0.66661 0.0
C894 C 0.42506 0.94957 0.66385 0.0
H895 H 0.49535 0.92144 0.61666 0.0
H896 H 0.46003 0.91284 0.63338 0.0
H897 H 0.46612 0.9246 0.59851 0.0
H898 H 0.42956 0.94451 0.59514 0.0
H899 H 0.37357 0.91738 0.59996 0.0
H900 H 0.40437 0.37986 -0.00247 0.0
H901 H 0.43211 0.43508 -0.00944 0.0
H902 H 0.50061 0.42766 0.94407 0.0
H903 H 0.47354 0.37222 0.95194 0.0
H904 H 0.52602 0.47249 0.9816 0.0
H905 H 0.43896 0.48549 0.92469 0.0
H906 H 0.42363 0.46489 0.95574 0.0
H907 H 0.43625 0.4487 0.92956 0.0
C908 C 0.42537 0.38983 -0.0141 0.0
C909 C 0.43676 0.37147 0.97544 0.0
C910 C 0.44096 0.42146 0.98153 0.0
C911 C 0.46811 0.43547 0.96632 0.0
C912 C 0.47949 0.41727 0.95562 0.0
H913 H 0.56065 0.63419 0.93373 0.0
H914 H 0.5339 0.57836 0.92688 0.0
C915 C 0.46391 0.38555 0.96004 0.0
C916 C 0.48569 0.46937 0.96354 0.0
H917 H 0.47836 0.53117 0.9469 0.0
C918 C 0.51575 0.48529 0.97361 0.0
C919 C 0.47252 0.48612 0.95271 0.0
C920 C 0.44118 0.47038 0.93979 0.0
C921 C 0.53236 0.51746 0.9745 0.0
C922 C 0.51829 0.53414 0.96562 0.0
C923 C 0.48891 0.51832 0.95413 0.0
C924 C 0.53316 0.5678 0.96953 0.0
C925 C 0.56474 0.53327 0.98524 0.0
C926 C 0.54067 0.58024 -0.00421 0.0
C927 C 0.55583 0.61194 -0.00027 0.0
C928 C 0.56357 0.63192 0.9775 0.0
C929 C 0.5549 0.61939 0.95125 0.0
C930 C 0.53978 0.58755 0.9473 0.0
H931 H 0.57516 0.51849 0.98309 0.0
H932 H 0.57941 0.55525 0.97452 0.0
H933 H 0.56452 0.53831 0.00717 0.0
H934 H 0.53497 0.56539 0.0133 0.0
H935 H 0.56155 0.62083 0.02023 0.0
H936 H 0.54215 0.91477 0.37168 0.0
H937 H 0.51168 0.94025 0.37491 0.0
H938 H 0.55618 0.99287 0.30326 0.0
H939 H 0.58625 0.96736 0.29965 0.0
H940 H 0.55467 0.02803 0.3486 0.0
H941 H 0.44045 0.92767 0.32383 0.0
H942 H 0.46191 0.92257 0.35041 0.0
H943 H 0.4758 0.92838 0.31614 0.0
C944 C 0.54514 0.93145 0.35642 0.0
C945 C 0.56675 0.9391 0.33546 0.0
C946 C 0.52778 0.94604 0.35834 0.0
C947 C 0.53167 0.96836 0.33927 0.0
C948 C 0.55298 0.97581 0.31826 0.0
H949 H 0.42834 0.05068 0.28857 0.0
H950 H 0.45586 0.02282 0.29464 0.0
C951 C 0.57025 0.96128 0.3163 0.0
C952 C 0.51403 0.98451 0.34114 0.0
H953 H 0.44254 0.97467 0.3326 0.0
C954 C 0.5301 0.01638 0.34538 0.0
C955 C 0.48206 0.96917 0.33672 0.0
C956 C 0.46392 0.93509 0.33133 0.0
C957 C 0.51511 0.03348 0.34478 0.0
C958 C 0.48319 0.01819 0.34007 0.0
C959 C 0.46701 0.98624 0.33635 0.0
C960 C 0.46652 0.0352 0.33694 0.0
C961 C 0.53367 0.06788 0.34812 0.0
C962 C 0.46337 0.05139 0.35878 0.0
C963 C 0.44748 0.0673 0.35541 0.0
C964 C 0.43436 0.06714 0.33017 0.0
C965 C 0.43772 0.05094 0.30838 0.0
C966 C 0.45354 0.03507 0.31177 0.0
H967 H 0.55869 0.07662 0.34673 0.0
H968 H 0.52728 0.07943 0.33241 0.0
H969 H 0.52883 0.07434 0.36831 0.0
H970 H 0.47291 0.05142 0.37848 0.0
H971 H 0.44495 0.07915 0.37271 0.0
H972 H 0.63286 0.53045 0.67235 0.0
H973 H 0.57696 0.49918 0.67674 0.0
H974 H 0.56884 0.57863 0.65929 0.0
H975 H 0.62438 0.60978 0.65473 0.0
H976 H 0.53537 0.50461 0.71053 0.0
H977 H 0.51338 0.51709 0.60229 0.0
H978 H 0.55096 0.52749 0.61482 0.0
H979 H 0.53616 0.5531 0.61938 0.0
C980 C 0.61912 0.54123 0.66966 0.0
C981 C 0.63294 0.57245 0.6628 0.0
C982 C 0.58724 0.52336 0.67209 0.0
C983 C 0.56875 0.53647 0.66773 0.0
C984 C 0.58262 0.56788 0.66197 0.0
H985 H 0.37351 0.47045 0.66689 0.0
H986 H 0.4295 0.50195 0.66888 0.0
C987 C 0.61436 0.58565 0.65937 0.0
C988 C 0.53493 0.51738 0.66891 0.0
H989 H 0.4701 0.49484 0.63152 0.0
C990 C 0.52108 0.50232 0.69323 0.0
C991 C 0.51637 0.51439 0.64626 0.0
C992 C 0.52994 0.52862 0.61913 0.0
C993 C 0.48906 0.48485 0.69568 0.0
C994 C 0.47057 0.48226 0.67315 0.0
C995 C 0.48441 0.49717 0.64882 0.0
C996 C 0.43678 0.46345 0.67403 0.0
C997 C 0.47518 0.46972 0.72243 0.0
C998 C 0.42247 0.43146 0.67628 0.0
C999 C 0.39059 0.41347 0.67509 0.0
C1000 C 0.37244 0.42716 0.67162 0.0
C1001 C 0.38686 0.4593 0.66987 0.0
C1002 C 0.41879 0.47727 0.67087 0.0
H1003 H 0.49202 0.4794 0.73931 0.0
H1004 H 0.45515 0.47234 0.72749 0.0
H1005 H 0.46708 0.44482 0.72089 0.0
H1006 H 0.43599 0.42035 0.67835 0.0
H1007 H 0.38014 0.38882 0.67679 0.0
H1008 H 0.98073 0.37688 0.97126 0.0
H1009 H 0.00967 0.43249 0.97656 0.0
H1010 H 0.93321 0.42984 0.01829 0.0
H1011 H 0.90382 0.37393 0.01283 0.0
H1012 H 0.99253 0.47303 0.95579 0.0
H1013 H 0.00685 0.48454 0.06783 0.0
H1014 H 0.99615 0.44912 0.05007 0.0
H1015 H 0.96813 0.46043 0.05634 0.0
C1016 C 0.96994 0.38802 0.9815 0.0
C1017 C 0.9398 0.37089 -0.00858 0.0
C1018 C 0.98664 0.41983 0.9847 0.0
C1019 C 0.97373 0.43526 -0.00195 0.0
C1020 C 0.94384 0.4183 0.00839 0.0
H1021 H 0.02456 0.62484 0.98217 0.0
H1022 H 0.99874 0.56905 0.98496 0.0
C1023 C 0.92705 0.38637 0.0052 0.0
C1024 C 0.9909 0.46924 -0.00062 0.0
H1025 H 0.02182 0.53043 0.043 0.0
C1026 C 0.99904 0.48556 0.97486 0.0
C1027 C 0.99961 0.48551 0.02429 0.0
C1028 C 0.99252 0.46909 0.05117 0.0
C1029 C 0.01514 0.51772 0.97455 0.0
C1030 C 0.02305 0.534 -0.00058 0.0
C1031 C 0.01552 0.51779 0.02399 0.0
C1032 C 0.03835 0.56789 0.0 0.0
C1033 C 0.02363 0.53411 0.9476 0.0
C1034 C 0.06899 0.58572 0.00827 0.0
C1035 C 0.084 0.61779 0.0065 0.0
C1036 C 0.06851 0.63243 -0.00353 0.0
C1037 C 0.03743 0.61436 -0.0107 0.0
C1038 C 0.02254 0.58245 -0.00896 0.0
H1039 H 0.02183 0.51863 0.93068 0.0
H1040 H 0.00789 0.54294 0.94321 0.0
H1041 H 0.04735 0.55398 0.94816 0.0
H1042 H 0.08153 0.5748 0.01529 0.0
H1043 H 0.10793 0.63101 0.01211 0.0
H1044 H 0.23539 0.34479 0.25598 0.0
H1045 H 0.25988 0.31584 0.27069 0.0
H1046 H 0.22874 0.31439 0.35259 0.0
H1047 H 0.20401 0.343 0.33797 0.0
H1048 H 0.30522 0.33172 0.30777 0.0
H1049 H 0.2014 0.22483 0.34055 0.0
H1050 H 0.19944 0.25378 0.32061 0.0
H1051 H 0.20567 0.25875 0.35668 0.0
C1052 C 0.23375 0.33826 0.2771 0.0
C1053 C 0.21758 0.346 0.29576 0.0
C1054 C 0.24764 0.32164 0.28547 0.0
C1055 C 0.24568 0.31246 0.31265 0.0
C1056 C 0.22982 0.32044 0.33138 0.0
H1057 H 0.3303 0.22423 0.40125 0.0
H1058 H 0.30303 0.25131 0.38874 0.0
C1059 C 0.21574 0.33686 0.32299 0.0
C1060 C 0.26129 0.29565 0.32155 0.0
H1061 H 0.24943 0.22959 0.3518 0.0
C1062 C 0.29298 0.30934 0.31729 0.0
C1063 C 0.2453 0.26647 0.33405 0.0
C1064 C 0.21103 0.24993 0.33803 0.0
C1065 C 0.30916 0.29476 0.32537 0.0
C1066 C 0.29318 0.26564 0.33784 0.0
C1067 C 0.26157 0.25201 0.34233 0.0
C1068 C 0.30886 0.2486 0.34549 0.0
C1069 C 0.3433 0.31072 0.32075 0.0
C1070 C 0.32068 0.23778 0.32528 0.0
C1071 C 0.33618 0.22236 0.33233 0.0
C1072 C 0.34015 0.21741 0.35977 0.0
C1073 C 0.32788 0.22794 0.37999 0.0
C1074 C 0.31219 0.24325 0.37288 0.0
H1075 H 0.35311 0.33558 0.31658 0.0
H1076 H 0.35512 0.30808 0.33865 0.0
H1077 H 0.3481 0.30017 0.30299 0.0
H1078 H 0.31807 0.24144 0.30402 0.0
H1079 H 0.34566 0.21494 0.31626 0.0
H1080 H 0.87307 0.17557 0.63327 0.0
H1081 H 0.92689 0.2014 0.647 0.0
H1082 H 0.94444 0.28084 0.60033 0.0
H1083 H 0.8907 0.25544 0.58677 0.0
H1084 H 0.98929 0.26295 0.59403 0.0
H1085 H 0.96453 0.27281 0.70248 0.0
H1086 H 0.94422 0.23467 0.68854 0.0
H1087 H 0.93662 0.2636 0.67589 0.0
C1088 C 0.88831 0.19857 0.62599 0.0
C1089 C 0.87741 0.21348 0.60908 0.0
C1090 C 0.91908 0.21328 0.63384 0.0
C1091 C 0.93949 0.24319 0.62501 0.0
C1092 C 0.929 0.25776 0.60741 0.0
H1093 H 0.11535 0.37796 0.69005 0.0
H1094 H 0.06214 0.34837 0.67497 0.0
C1095 C 0.89825 0.2431 0.59956 0.0
C1096 C 0.97168 0.25963 0.63448 0.0
H1097 H 0.01605 0.28931 0.69113 0.0
C1098 C 0.99519 0.26867 0.61525 0.0
C1099 C 0.97923 0.26737 0.66214 0.0
C1100 C 0.95489 0.25939 0.68349 0.0
C1101 C 0.02613 0.28512 0.62299 0.0
C1102 C 0.03366 0.29236 0.65072 0.0
C1103 C 0.01015 0.28349 0.66992 0.0
C1104 C 0.06584 0.30989 0.66016 0.0
C1105 C 0.05051 0.29521 0.60137 0.0
C1106 C 0.08541 0.29782 0.65721 0.0
C1107 C 0.11582 0.31461 0.66596 0.0
C1108 C 0.12722 0.34375 0.67794 0.0
C1109 C 0.10733 0.35551 0.68121 0.0
C1110 C 0.07693 0.3387 0.67247 0.0
H1111 H 0.0411 0.29407 0.58074 0.0
H1112 H 0.06933 0.31903 0.60522 0.0
H1113 H 0.06041 0.2799 0.60169 0.0
H1114 H 0.0771 0.27533 0.64828 0.0
H1115 H 0.13027 0.30457 0.66357 0.0
H1116 H 0.75176 0.11251 0.04746 0.0
H1117 H 0.7286 0.0589 0.03373 0.0
H1118 H 0.81059 0.07945 -0.01033 0.0
H1119 H 0.83453 0.13284 0.00433 0.0
H1120 H 0.71626 0.03737 0.9821 0.0
H1121 H 0.79352 0.00289 0.0305 0.0
H1122 H 0.79369 0.03771 0.03962 0.0
H1123 H 0.81316 0.03631 0.0095 0.0
C1124 C 0.76526 0.10562 0.03545 0.0
C1125 C 0.7951 0.12725 0.02702 0.0
C1126 C 0.75183 0.07492 0.0274 0.0
C1127 C 0.76791 0.06508 0.01082 0.0
C1128 C 0.7979 0.08637 0.00283 0.0
H1129 H 0.67765 0.8975 0.9125 0.0
H1130 H 0.7072 0.9511 0.92756 0.0
C1131 C 0.81143 0.11706 0.01099 0.0
C1132 C 0.75254 0.03301 0.00056 0.0
H1133 H 0.75771 0.96798 -0.00164 0.0
C1134 C 0.72528 0.02217 -0.01428 0.0
C1135 C 0.76424 0.01315 0.00545 0.0
C1136 C 0.7926 0.02296 0.02235 0.0
C1137 C 0.7094 0.99205 0.97558 0.0
C1138 C 0.72149 0.97242 0.97986 0.0
C1139 C 0.74869 0.9832 -0.00519 0.0
C1140 C 0.70536 0.94011 0.97024 0.0
C1141 C 0.67939 0.9813 0.96103 0.0
C1142 C 0.69549 0.91617 -0.01092 0.0
C1143 C 0.67888 0.88564 0.98051 0.0
C1144 C 0.67181 0.87837 0.95286 0.0
C1145 C 0.68239 0.90238 0.93393 0.0
C1146 C 0.69921 0.93298 0.94252 0.0
H1147 H 0.66965 0.99635 0.96543 0.0
H1148 H 0.68318 0.98173 0.9388 0.0
H1149 H 0.66229 0.95745 0.96688 0.0
H1150 H 0.69996 0.92112 0.01056 0.0
H1151 H 0.67071 0.86778 -0.0043 0.0
H1152 H 0.828 0.7022 0.2953 0.0
H1153 H 0.80292 0.73061 0.30998 0.0
H1154 H 0.72078 0.66618 0.26747 0.0
H1155 H 0.74541 0.6374 0.253 0.0
H1156 H 0.73764 0.72889 0.26056 0.0
H1157 H 0.73539 0.69755 0.36907 0.0
H1158 H 0.77239 0.7154 0.35309 0.0
H1159 H 0.74302 0.67819 0.34187 0.0
C1160 C 0.8046 0.69401 0.28907 0.0
C1161 C 0.78867 0.66727 0.27315 0.0
C1162 C 0.79032 0.71031 0.29747 0.0
C1163 C 0.75986 0.70017 0.29017 0.0
C1164 C 0.74431 0.67431 0.27338 0.0
H1165 H 0.62511 0.7372 0.36056 0.0
H1166 H 0.65584 0.71514 0.34468 0.0
C1167 C 0.75853 0.65798 0.26499 0.0
C1168 C 0.74375 0.71589 0.30063 0.0
H1169 H 0.71655 0.73084 0.35879 0.0
C1170 C 0.73312 0.72946 0.28203 0.0
C1171 C 0.73759 0.7162 0.32863 0.0
C1172 C 0.74743 0.70086 0.34938 0.0
C1173 C 0.7165 0.74344 0.29071 0.0
C1174 C 0.71067 0.74409 0.31875 0.0
C1175 C 0.72126 0.73047 0.33734 0.0
C1176 C 0.69272 0.75791 0.32911 0.0
C1177 C 0.70463 0.75671 0.26977 0.0
C1178 C 0.70357 0.78938 0.32609 0.0
C1179 C 0.68614 0.80211 0.33528 0.0
C1180 C 0.65753 0.78362 0.34778 0.0
C1181 C 0.6471 0.75219 0.35129 0.0
C1182 C 0.66457 0.73949 0.3421 0.0
H1183 H 0.70518 0.74838 0.24896 0.0
H1184 H 0.68078 0.75081 0.27452 0.0
H1185 H 0.71916 0.78209 0.26989 0.0
H1186 H 0.72556 0.8041 0.31662 0.0
H1187 H 0.69521 0.82649 0.33272 0.0
H1188 H 0.11057 0.78386 0.57268 0.0
H1189 H 0.05681 0.76193 0.5862 0.0
H1190 H 0.08386 0.77658 0.67045 0.0
H1191 H 0.13733 0.79859 0.65714 0.0
H1192 H 0.02292 0.71122 0.6169 0.0
H1193 H 0.02766 0.81192 0.66746 0.0
H1194 H 0.05817 0.81508 0.64604 0.0
H1195 H 0.05526 0.8029 0.68078 0.0
C1196 C 0.10502 0.78258 0.59405 0.0
C1197 C 0.12822 0.79323 0.61381 0.0
C1198 C 0.07435 0.77016 0.60175 0.0
C1199 C 0.06638 0.76818 0.62932 0.0
C1200 C 0.08952 0.77875 0.64905 0.0
H1201 H 0.89805 0.67587 0.722 0.0
H1202 H 0.9515 0.70466 0.70666 0.0
C1203 C 0.12012 0.79131 0.64138 0.0
C1204 C 0.03377 0.7532 0.63762 0.0
H1205 H 0.98285 0.76329 0.67578 0.0
C1206 C 0.01409 0.72272 0.62952 0.0
C1207 C 0.02231 0.76822 0.65419 0.0
C1208 C 0.04187 0.80143 0.66241 0.0
C1209 C 0.98346 0.70659 0.63809 0.0
C1210 C 0.97219 0.72144 0.65499 0.0
C1211 C 0.9917 0.75198 0.66293 0.0
C1212 C 0.94006 0.70552 0.66448 0.0
C1213 C 0.96353 0.67354 0.62953 0.0
C1214 C 0.91612 0.69706 0.64589 0.0
C1215 C 0.88572 0.68067 0.65456 0.0
C1216 C 0.87866 0.67247 0.68203 0.0
C1217 C 0.90276 0.68161 0.70071 0.0
C1218 C 0.93324 0.69815 0.69202 0.0
H1219 H 0.97723 0.66368 0.6212 0.0
H1220 H 0.94979 0.6593 0.64694 0.0
H1221 H 0.94739 0.6721 0.61353 0.0
H1222 H 0.92098 0.70277 0.62459 0.0
H1223 H 0.86776 0.67365 0.63955 0.0
H1224 H 0.30207 0.13202 0.96899 0.0
H1225 H 0.27216 0.0787 0.98398 0.0
H1226 H 0.33543 0.05795 0.94347 0.0
H1227 H 0.36557 0.11119 0.92854 0.0
H1228 H 0.27371 0.0132 0.93566 0.0
H1229 H 0.30073 0.04311 0.04478 0.0
H1230 H 0.28377 0.06246 0.02779 0.0
H1231 H 0.32117 0.06995 0.01787 0.0
C1232 C 0.30968 0.11616 0.96329 0.0
C1233 C 0.33644 0.12603 0.94776 0.0
C1234 C 0.29254 0.08569 0.97189 0.0
C1235 C 0.3019 0.06454 0.96525 0.0
C1236 C 0.32788 0.07396 0.94889 0.0
H1237 H 0.26102 0.89334 0.03808 0.0
H1238 H 0.28291 0.94638 0.02301 0.0
C1239 C 0.34501 0.1044 0.94025 0.0
C1240 C 0.28514 0.03274 0.97582 0.0
H1241 H 0.26681 0.99095 0.03433 0.0
C1242 C 0.27205 0.00828 0.95723 0.0
C1243 C 0.28338 0.02647 0.00396 0.0
C1244 C 0.29821 0.05181 0.02481 0.0
C1245 C 0.25727 0.97767 0.96602 0.0
C1246 C 0.25519 0.9714 -0.00581 0.0
C1247 C 0.26821 0.99586 0.01277 0.0
C1248 C 0.24104 0.93962 0.00468 0.0
C1249 C 0.24487 0.95231 0.94507 0.0
C1250 C 0.21 0.91842 1e-05 0.0
C1251 C 0.19735 0.88805 0.00871 0.0
C1252 C 0.21547 0.87834 0.0224 0.0
C1253 C 0.24629 0.90001 0.02787 0.0
C1254 C 0.25892 0.93033 0.01913 0.0
H1255 H 0.25434 0.961 0.92453 0.0
H1256 H 0.2502 0.93416 0.95068 0.0
H1257 H 0.2196 0.94169 0.94399 0.0
H1258 H 0.19562 0.92531 -0.01057 0.0
H1259 H 0.17341 0.87216 0.0046 0.0
H1260 H 0.47583 0.75069 0.28795 0.0
H1261 H 0.42545 0.70455 0.28336 0.0
H1262 H 0.4173 0.6969 0.37054 0.0
H1263 H 0.46768 0.74292 0.37533 0.0
H1264 H 0.40866 0.64648 0.30214 0.0
H1265 H 0.33512 0.68745 0.34814 0.0
H1266 H 0.37408 0.71329 0.33764 0.0
H1267 H 0.36648 0.693 0.36926 0.0
C1268 C 0.46327 0.73926 0.30616 0.0
C1269 C 0.47578 0.75057 0.33201 0.0
C1270 C 0.43443 0.71297 0.30349 0.0
C1271 C 0.41743 0.69751 0.32659 0.0
C1272 C 0.42968 0.70887 0.35243 0.0
H1273 H 0.25006 0.52538 0.35527 0.0
H1274 H 0.29719 0.57517 0.35892 0.0
C1275 C 0.45851 0.7352 0.35513 0.0
C1276 C 0.38772 0.66854 0.3236 0.0
H1277 H 0.31163 0.63382 0.33949 0.0
C1278 C 0.3874 0.64378 0.31012 0.0
C1279 C 0.36004 0.66503 0.33415 0.0
C1280 C 0.35876 0.69117 0.3479 0.0
C1281 C 0.36028 0.61541 0.30734 0.0
C1282 C 0.33261 0.61187 0.31792 0.0
C1283 C 0.33288 0.63663 0.33137 0.0
C1284 C 0.30326 0.58244 0.31556 0.0
C1285 C 0.36164 0.58922 0.29374 0.0
C1286 C 0.2907 0.57034 0.28998 0.0
C1287 C 0.26387 0.54182 0.2878 0.0
C1288 C 0.24899 0.52491 0.31121 0.0
C1289 C 0.26117 0.5376 0.33683 0.0
C1290 C 0.28799 0.56612 0.33898 0.0
H1291 H 0.38542 0.59338 0.29277 0.0
H1292 H 0.34711 0.56733 0.30464 0.0
H1293 H 0.35293 0.58656 0.27265 0.0
H1294 H 0.30187 0.5828 0.27165 0.0
H1295 H 0.25531 0.53266 0.26775 0.0
H1296 H 0.69964 0.46217 0.6905 0.0
H1297 H 0.69957 0.41393 0.68387 0.0
H1298 H 0.75236 0.44961 0.61052 0.0
H1299 H 0.75331 0.49817 0.61734 0.0
H1300 H 0.67944 0.37149 0.63933 0.0
H1301 H 0.80454 0.42583 0.65825 0.0
H1302 H 0.78295 0.44442 0.66675 0.0
H1303 H 0.79405 0.44371 0.63219 0.0
C1304 C 0.71127 0.45977 0.67297 0.0
C1305 C 0.72672 0.48415 0.65458 0.0
C1306 C 0.71102 0.43213 0.66913 0.0
C1307 C 0.72635 0.42842 0.64694 0.0
C1308 C 0.74076 0.45221 0.62799 0.0
H1309 H 0.72032 0.2608 0.59155 0.0
H1310 H 0.71453 0.30609 0.59574 0.0
C1311 C 0.741 0.47983 0.63178 0.0
C1312 C 0.72822 0.40011 0.64416 0.0
H1313 H 0.77883 0.37389 0.64417 0.0
C1314 C 0.70113 0.37194 0.64036 0.0
C1315 C 0.75653 0.40081 0.64591 0.0
C1316 C 0.78619 0.43024 0.65124 0.0
C1317 C 0.70168 0.34441 0.63793 0.0
C1318 C 0.73009 0.34523 0.63904 0.0
C1319 C 0.75711 0.37338 0.64311 0.0
C1320 C 0.73239 0.31711 0.63669 0.0
C1321 C 0.67183 0.31463 0.63474 0.0
C1322 C 0.74474 0.30855 0.65817 0.0
C1323 C 0.74811 0.28277 0.65583 0.0
C1324 C 0.73936 0.26508 0.63188 0.0
C1325 C 0.72687 0.27366 0.61041 0.0
C1326 C 0.72352 0.29952 0.61277 0.0
H1327 H 0.6519 0.31703 0.64074 0.0
H1328 H 0.66886 0.30734 0.61314 0.0
H1329 H 0.67179 0.29624 0.64714 0.0
H1330 H 0.75174 0.32185 0.6768 0.0
H1331 H 0.75739 0.27656 0.6729 0.0
H1332 H 0.48588 0.76125 0.94149 0.0
H1333 H 0.4353 0.75603 0.94621 0.0
H1334 H 0.41198 0.68746 0.00806 0.0
H1335 H 0.46239 0.69202 0.00314 0.0
H1336 H 0.3756 0.70149 0.94055 0.0
H1337 H 0.3963 0.75339 0.04382 0.0
H1338 H 0.42706 0.75789 0.02198 0.0
H1339 H 0.4039 0.72237 0.03951 0.0
C1340 C 0.46991 0.74473 0.95587 0.0
C1341 C 0.47831 0.72709 0.97197 0.0
C1342 C 0.44106 0.74193 0.95863 0.0
C1343 C 0.42007 0.72163 0.97768 0.0
C1344 C 0.42808 0.70364 -0.00645 0.0
H1345 H 0.2417 0.6932 0.02799 0.0
H1346 H 0.28772 0.68906 0.02239 0.0
C1347 C 0.45694 0.70634 -0.00925 0.0
C1348 C 0.38988 0.71952 0.98093 0.0
H1349 H 0.34725 0.73527 0.02502 0.0
C1350 C 0.36931 0.70878 0.95903 0.0
C1351 C 0.38178 0.72897 0.00509 0.0
C1352 C 0.40342 0.74154 0.02894 0.0
C1353 C 0.34075 0.70717 0.96066 0.0
C1354 C 0.33288 0.71723 0.98463 0.0
C1355 C 0.3533 0.72753 0.00667 0.0
C1356 C 0.30409 0.7183 -0.013 0.0
C1357 C 0.31915 0.69436 0.9368 0.0
C1358 C 0.29803 0.73616 0.96901 0.0
C1359 C 0.27177 0.73855 0.97214 0.0
C1360 C 0.25119 0.72341 -0.00645 0.0
C1361 C 0.25722 0.70536 0.01144 0.0
C1362 C 0.28344 0.70288 0.00822 0.0
H1363 H 0.32427 0.6793 0.92397 0.0
H1364 H 0.29495 0.68104 0.94362 0.0
H1365 H 0.32177 0.71359 0.92396 0.0
H1366 H 0.31403 0.74893 0.95293 0.0
H1367 H 0.26811 0.75308 0.95832 0.0
H1368 H 0.51359 0.26229 0.29237 0.0
H1369 H 0.56324 0.30898 0.28631 0.0
H1370 H 0.59571 0.29026 0.3607 0.0
H1371 H 0.54619 0.24323 0.36677 0.0
H1372 H 0.58947 0.35844 0.32649 0.0
H1373 H 0.66484 0.31005 0.3035 0.0
H1374 H 0.62378 0.28824 0.29902 0.0
H1375 H 0.63996 0.29449 0.33245 0.0
C1376 C 0.53149 0.26776 0.30717 0.0
C1377 C 0.52598 0.24904 0.33004 0.0
C1378 C 0.55976 0.29453 0.30375 0.0
C1379 C 0.58316 0.3029 0.32295 0.0
C1380 C 0.57803 0.28398 0.3455 0.0
H1381 H 0.76627 0.46306 0.33688 0.0
H1382 H 0.71954 0.41346 0.34324 0.0
C1383 C 0.54967 0.25728 0.34904 0.0
C1384 C 0.61218 0.33244 0.3202 0.0
H1385 H 0.68886 0.3639 0.30858 0.0
C1386 C 0.61121 0.35969 0.32252 0.0
C1387 C 0.64048 0.33388 0.31532 0.0
C1388 C 0.64253 0.30516 0.31222 0.0
C1389 C 0.63787 0.38846 0.32019 0.0
C1390 C 0.66614 0.38998 0.31468 0.0
C1391 C 0.66716 0.36268 0.31271 0.0
C1392 C 0.69474 0.4197 0.31043 0.0
C1393 C 0.63554 0.41695 0.32418 0.0
C1394 C 0.6965 0.43941 0.28956 0.0
C1395 C 0.72297 0.46788 0.28609 0.0
C1396 C 0.74847 0.47716 0.30319 0.0
C1397 C 0.74692 0.45695 0.32364 0.0
C1398 C 0.72032 0.42847 0.32717 0.0
H1399 H 0.61482 0.41204 0.33602 0.0
H1400 H 0.65603 0.43519 0.33483 0.0
H1401 H 0.63388 0.42585 0.30405 0.0
H1402 H 0.67728 0.43285 0.27603 0.0
H1403 H 0.72315 0.48289 0.27031 0.0
H1404 H 0.31315 0.76587 0.66483 0.0
H1405 H 0.31647 0.71935 0.6708 0.0
H1406 H 0.2423 0.67117 0.61402 0.0
H1407 H 0.23834 0.71727 0.60838 0.0
H1408 H 0.23559 0.63958 0.66332 0.0
H1409 H 0.34972 0.68032 0.61619 0.0
H1410 H 0.34833 0.70487 0.64206 0.0
H1411 H 0.3278 0.69924 0.61084 0.0
C1412 C 0.29752 0.74536 0.65364 0.0
C1413 C 0.27552 0.74531 0.63607 0.0
C1414 C 0.29965 0.7189 0.65688 0.0
C1415 C 0.27986 0.69195 0.64261 0.0
C1416 C 0.25792 0.69182 0.62507 0.0
H1417 H 0.2815 0.52271 0.61873 0.0
H1418 H 0.28424 0.57243 0.61419 0.0
C1419 C 0.25584 0.71824 0.62174 0.0
C1420 C 0.28114 0.66346 0.64664 0.0
H1421 H 0.32636 0.63156 0.6373 0.0
C1422 C 0.25545 0.63781 0.65769 0.0
C1423 C 0.30698 0.66121 0.63903 0.0
C1424 C 0.33474 0.68775 0.62615 0.0
C1425 C 0.25492 0.60995 0.66146 0.0
C1426 C 0.28094 0.60782 0.65425 0.0
C1427 C 0.30659 0.6334 0.64304 0.0
C1428 C 0.28139 0.57879 0.65734 0.0
C1429 C 0.22628 0.5828 0.67255 0.0
C1430 C 0.27958 0.56627 0.68314 0.0
C1431 C 0.27794 0.53785 0.68581 0.0
C1432 C 0.2781 0.52144 0.66268 0.0
C1433 C 0.28094 0.53459 0.63691 0.0
C1434 C 0.28267 0.56305 0.63428 0.0
H1435 H 0.20625 0.5863 0.67159 0.0
H1436 H 0.22072 0.56156 0.66116 0.0
H1437 H 0.23006 0.5793 0.69412 0.0
H1438 H 0.27893 0.57826 0.70121 0.0
H1439 H 0.27551 0.52828 0.70593 0.0
H1440 H 0.52203 0.24725 0.93774 0.0
H1441 H 0.57154 0.25052 0.94289 0.0
H1442 H 0.59181 0.3107 0.01183 0.0
H1443 H 0.54312 0.30934 0.00573 0.0
H1444 H 0.64132 0.32951 0.98068 0.0
H1445 H 0.5899 0.20495 -0.00073 0.0
H1446 H 0.57849 0.2127 0.96718 0.0
H1447 H 0.56729 0.22351 -0.00183 0.0
C1448 C 0.53715 0.2617 0.95372 0.0
C1449 C 0.52826 0.27787 0.97142 0.0
C1450 C 0.56533 0.26311 0.95691 0.0
C1451 C 0.58508 0.28017 0.9782 0.0
C1452 C 0.57679 0.29707 -0.00456 0.0
H1453 H 0.7309 0.25026 0.03415 0.0
H1454 H 0.68511 0.25444 0.02974 0.0
C1455 C 0.54873 0.296 -0.00793 0.0
C1456 C 0.61425 0.28022 0.98257 0.0
H1457 H 0.64372 0.23292 -0.00835 0.0
C1458 C 0.64185 0.3084 0.98323 0.0
C1459 C 0.61493 0.25272 -0.0136 0.0
C1460 C 0.58604 0.2218 -0.01198 0.0
C1461 C 0.67013 0.30982 -0.01284 0.0
C1462 C 0.6709 0.28222 -0.0103 0.0
C1463 C 0.64323 0.25409 -0.01058 0.0
C1464 C 0.69997 0.28177 -0.00686 0.0
C1465 C 0.69872 0.34091 -0.01083 0.0
C1466 C 0.7238 0.29585 0.97411 0.0
C1467 C 0.7505 0.29415 0.97694 0.0
C1468 C 0.75374 0.27779 -0.00141 0.0
C1469 C 0.7297 0.26364 0.01754 0.0
C1470 C 0.70324 0.26572 0.01489 0.0
H1471 H 0.69333 0.35891 -0.00462 0.0
H1472 H 0.71521 0.34074 0.00397 0.0
H1473 H 0.70994 0.34734 0.96898 0.0
H1474 H 0.72158 0.30775 0.95677 0.0
H1475 H 0.76854 0.30564 0.96208 0.0
loop_
_geom_bond_atom_site_label_1
_geom_bond_atom_site_label_2
_geom_bond_distance
_geom_bond_site_symmetry_2
_ccdc_geom_bond_type
Co0 N4 2.148 . S
Co0 N10 2.128 . S
Co0 N20 2.194 . S
Co0 O25 2.351 . S
Co0 O26 2.155 . S
Co0 O27 2.096 . S
C1 N4 1.301 . S
C1 N5 1.328 . S
C1 H6 0.930 . S
C2 C3 1.333 . S
C2 N4 1.317 . S
C2 H7 0.930 . S
C3 C2 1.333 . S
C3 N5 1.350 . S
C3 H29 0.931 . S
N4 Co0 2.148 . S
N4 C1 1.301 . S
N4 C2 1.317 . S
N5 C1 1.328 . S
N5 C3 1.350 . S
H6 C1 0.930 . S
H7 C2 0.930 . S
C8 O9 1.224 . S
C8 O27 1.247 . S
O9 C8 1.224 . S
N10 Co0 2.128 . S
N10 C11 1.355 . S
N10 C13 1.311 . S
C11 N10 1.355 . S
C11 C12 1.363 . S
C11 H23 0.929 . S
C12 C11 1.363 . S
C12 N14 1.375 . S
C12 H30 0.931 . S
C13 N10 1.311 . S
C13 N14 1.347 . S
C13 H24 0.929 . S
N14 C12 1.375 . S
N14 C13 1.347 . S
C15 C18 1.365 . S
C15 N20 1.328 . S
C15 H21 0.929 . S
C16 C17 1.362 . S
C16 C19 1.378 . S
C16 H31 0.929 . S
C17 C16 1.362 . S
C17 C18 1.366 . S
C18 C15 1.365 . S
C18 C17 1.366 . S
C18 H32 0.930 . S
C19 C16 1.378 . S
C19 N20 1.315 . S
C19 H22 0.930 . S
N20 Co0 2.194 . S
N20 C15 1.328 . S
N20 C19 1.315 . S
H21 C15 0.929 . S
H22 C19 0.930 . S
H23 C11 0.929 . S
H24 C13 0.929 . S
O25 Co0 2.351 . S
O25 C28 1.244 . S
O26 Co0 2.155 . S
O26 C28 1.240 . S
O27 Co0 2.096 . S
O27 C8 1.247 . S
C28 O25 1.244 . S
C28 O26 1.240 . S
H29 C3 0.931 . S
H30 C12 0.931 . S
H31 C16 0.929 . S
H32 C18 0.930 . S
Co33 N37 2.148 . S
Co33 N43 2.128 . S
Co33 N53 2.194 . S
Co33 O58 2.351 . S
Co33 O59 2.155 . S
Co33 O60 2.096 . S
C34 N37 1.301 . S
C34 N38 1.328 . S
C34 H39 0.930 . S
C35 C36 1.333 . S
C35 N37 1.317 . S
C35 H40 0.930 . S
C36 C35 1.333 . S
C36 N38 1.350 . S
C36 H62 0.931 . S
N37 Co33 2.148 . S
N37 C34 1.301 . S
N37 C35 1.317 . S
N38 C34 1.328 . S
N38 C36 1.350 . S
H39 C34 0.930 . S
H40 C35 0.930 . S
C41 O42 1.224 . S
C41 O60 1.247 . S
O42 C41 1.224 . S
N43 Co33 2.128 . S
N43 C44 1.355 . S
N43 C46 1.311 . S
C44 N43 1.355 . S
C44 C45 1.363 . S
C44 H56 0.929 . S
C45 C44 1.363 . S
C45 N47 1.375 . S
C45 H63 0.931 . S
C46 N43 1.311 . S
C46 N47 1.347 . S
C46 H57 0.929 . S
N47 C45 1.375 . S
N47 C46 1.347 . S
C48 C51 1.365 . S
C48 N53 1.328 . S
C48 H54 0.929 . S
C49 C50 1.362 . S
C49 C52 1.378 . S
C49 H64 0.929 . S
C50 C49 1.362 . S
C50 C51 1.366 . S
C51 C48 1.365 . S
C51 C50 1.366 . S
C51 H65 0.930 . S
C52 C49 1.378 . S
C52 N53 1.315 . S
C52 H55 0.930 . S
N53 Co33 2.194 . S
N53 C48 1.328 . S
N53 C52 1.315 . S
H54 C48 0.929 . S
H55 C52 0.930 . S
H56 C44 0.929 . S
H57 C46 0.929 . S
O58 Co33 2.351 . S
O58 C61 1.244 . S
O59 Co33 2.155 . S
O59 C61 1.240 . S
O60 Co33 2.096 . S
O60 C41 1.247 . S
C61 O58 1.244 . S
C61 O59 1.240 . S
H62 C36 0.931 . S
H63 C45 0.931 . S
H64 C49 0.929 . S
H65 C51 0.930 . S
Co66 N70 2.157 . S
Co66 N76 2.121 1_554 S
Co66 N86 2.188 1_554 S
Co66 O91 2.320 1_554 S
Co66 O92 2.140 1_554 S
Co66 O93 2.122 . S
C67 N70 1.301 1_556 S
C67 N71 1.328 1_556 S
C67 H72 0.930 . S
C68 C69 1.333 . S
C68 N70 1.317 . S
C68 H73 0.930 . S
C69 C68 1.333 . S
C69 N71 1.350 . S
C69 H95 0.931 . S
N70 Co66 2.157 . S
N70 C67 1.301 1_554 S
N70 C68 1.317 . S
N71 C67 1.328 1_554 S
N71 C69 1.350 . S
H72 C67 0.930 . S
H73 C68 0.930 . S
C74 O75 1.224 . S
C74 O93 1.247 . S
O75 C74 1.224 . S
N76 Co66 2.121 1_556 S
N76 C77 1.355 . S
N76 C79 1.311 1_556 S
C77 N76 1.355 . S
C77 C78 1.363 . S
C77 H89 0.929 . S
C78 C77 1.363 . S
C78 N80 1.375 . S
C78 H96 0.931 . S
C79 N76 1.311 1_554 S
C79 N80 1.347 1_554 S
C79 H90 0.929 . S
N80 C78 1.375 . S
N80 C79 1.347 1_556 S
C81 C84 1.365 . S
C81 N86 1.328 . S
C81 H87 0.929 . S
C82 C83 1.362 1_554 S
C82 C85 1.378 . S
C82 H97 0.929 . S
C83 C82 1.362 1_556 S
C83 C84 1.366 . S
C84 C81 1.365 . S
C84 C83 1.366 . S
C84 H98 0.930 . S
C85 C82 1.378 . S
C85 N86 1.315 1_554 S
C85 H88 0.930 . S
N86 Co66 2.188 1_556 S
N86 C81 1.328 . S
N86 C85 1.315 1_556 S
H87 C81 0.929 . S
H88 C85 0.930 . S
H89 C77 0.929 . S
H90 C79 0.929 . S
O91 Co66 2.320 1_556 S
O91 C94 1.244 . S
O92 Co66 2.140 1_556 S
O92 C94 1.240 . S
O93 Co66 2.122 . S
O93 C74 1.247 . S
C94 O91 1.244 . S
C94 O92 1.240 . S
H95 C69 0.931 . S
H96 C78 0.931 . S
H97 C82 0.929 . S
H98 C84 0.930 . S
Co99 N103 2.148 . S
Co99 N109 2.128 . S
Co99 N119 2.194 . S
Co99 O124 2.351 . S
Co99 O125 2.155 . S
Co99 O126 2.096 . S
C100 N103 1.301 . S
C100 N104 1.328 . S
C100 H105 0.930 . S
C101 C102 1.333 . S
C101 N103 1.317 . S
C101 H106 0.930 . S
C102 C101 1.333 . S
C102 N104 1.350 . S
C102 H128 0.931 . S
N103 Co99 2.148 . S
N103 C100 1.301 . S
N103 C101 1.317 . S
N104 C100 1.328 . S
N104 C102 1.350 . S
H105 C100 0.930 . S
H106 C101 0.930 . S
C107 O108 1.224 . S
C107 O126 1.247 . S
O108 C107 1.224 . S
N109 Co99 2.128 . S
N109 C110 1.355 . S
N109 C112 1.311 . S
C110 N109 1.355 . S
C110 C111 1.363 . S
C110 H122 0.929 . S
C111 C110 1.363 . S
C111 N113 1.375 . S
C111 H129 0.931 . S
C112 N109 1.311 . S
C112 N113 1.347 . S
C112 H123 0.929 . S
N113 C111 1.375 . S
N113 C112 1.347 . S
C114 C117 1.365 . S
C114 N119 1.328 . S
C114 H120 0.929 . S
C115 C116 1.362 . S
C115 C118 1.378 . S
C115 H130 0.929 . S
C116 C115 1.362 . S
C116 C117 1.366 . S
C117 C114 1.365 . S
C117 C116 1.366 . S
C117 H131 0.930 . S
C118 C115 1.378 . S
C118 N119 1.315 . S
C118 H121 0.930 . S
N119 Co99 2.194 . S
N119 C114 1.328 . S
N119 C118 1.315 . S
H120 C114 0.929 . S
H121 C118 0.930 . S
H122 C110 0.929 . S
H123 C112 0.929 . S
O124 Co99 2.351 . S
O124 C127 1.244 . S
O125 Co99 2.155 . S
O125 C127 1.240 . S
O126 Co99 2.096 . S
O126 C107 1.247 . S
C127 O124 1.244 . S
C127 O125 1.240 . S
H128 C102 0.931 . S
H129 C111 0.931 . S
H130 C115 0.929 . S
H131 C117 0.930 . S
Co132 N136 2.148 . S
Co132 N142 2.128 . S
Co132 N152 2.194 . S
Co132 O157 2.351 . S
Co132 O158 2.155 . S
Co132 O159 2.096 . S
C133 N136 1.301 . S
C133 N137 1.328 . S
C133 H138 0.930 . S
C134 C135 1.333 . S
C134 N136 1.317 . S
C134 H139 0.930 . S
C135 C134 1.333 . S
C135 N137 1.350 . S
C135 H161 0.931 . S
N136 Co132 2.148 . S
N136 C133 1.301 . S
N136 C134 1.317 . S
N137 C133 1.328 . S
N137 C135 1.350 . S
H138 C133 0.930 . S
H139 C134 0.930 . S
C140 O141 1.224 . S
C140 O159 1.247 . S
O141 C140 1.224 . S
N142 Co132 2.128 . S
N142 C143 1.355 . S
N142 C145 1.311 . S
C143 N142 1.355 . S
C143 C144 1.363 . S
C143 H155 0.929 . S
C144 C143 1.363 . S
C144 N146 1.375 . S
C144 H162 0.931 . S
C145 N142 1.311 . S
C145 N146 1.347 . S
C145 H156 0.929 . S
N146 C144 1.375 . S
N146 C145 1.347 . S
C147 C150 1.365 . S
C147 N152 1.328 . S
C147 H153 0.929 . S
C148 C149 1.362 . S
C148 C151 1.378 . S
C148 H163 0.929 . S
C149 C148 1.362 . S
C149 C150 1.366 . S
C150 C147 1.365 . S
C150 C149 1.366 . S
C150 H164 0.930 . S
C151 C148 1.378 . S
C151 N152 1.315 . S
C151 H154 0.930 . S
N152 Co132 2.194 . S
N152 C147 1.328 . S
N152 C151 1.315 . S
H153 C147 0.929 . S
H154 C151 0.930 . S
H155 C143 0.929 . S
H156 C145 0.929 . S
O157 Co132 2.351 . S
O157 C160 1.244 . S
O158 Co132 2.155 . S
O158 C160 1.240 . S
O159 Co132 2.096 . S
O159 C140 1.247 . S
C160 O157 1.244 . S
C160 O158 1.240 . S
H161 C135 0.931 . S
H162 C144 0.931 . S
H163 C148 0.929 . S
H164 C150 0.930 . S
Co165 N169 2.157 . S
Co165 N175 2.121 1_554 S
Co165 N185 2.188 1_554 S
Co165 O190 2.320 1_554 S
Co165 O191 2.140 1_554 S
Co165 O192 2.122 . S
C166 N169 1.301 1_556 S
C166 N170 1.328 1_556 S
C166 H171 0.930 . S
C167 C168 1.333 . S
C167 N169 1.317 . S
C167 H172 0.930 . S
C168 C167 1.333 . S
C168 N170 1.350 . S
C168 H194 0.931 . S
N169 Co165 2.157 . S
N169 C166 1.301 1_554 S
N169 C167 1.317 . S
N170 C166 1.328 1_554 S
N170 C168 1.350 . S
H171 C166 0.930 . S
H172 C167 0.930 . S
C173 O174 1.224 . S
C173 O192 1.247 . S
O174 C173 1.224 . S
N175 Co165 2.121 1_556 S
N175 C176 1.355 . S
N175 C178 1.311 1_556 S
C176 N175 1.355 . S
C176 C177 1.363 . S
C176 H188 0.929 . S
C177 C176 1.363 . S
C177 N179 1.375 . S
C177 H195 0.931 . S
C178 N175 1.311 1_554 S
C178 N179 1.347 1_554 S
C178 H189 0.929 . S
N179 C177 1.375 . S
N179 C178 1.347 1_556 S
C180 C183 1.365 . S
C180 N185 1.328 . S
C180 H186 0.929 . S
C181 C182 1.362 1_554 S
C181 C184 1.378 . S
C181 H196 0.929 . S
C182 C181 1.362 1_556 S
C182 C183 1.366 . S
C183 C180 1.365 . S
C183 C182 1.366 . S
C183 H197 0.930 . S
C184 C181 1.378 . S
C184 N185 1.315 1_554 S
C184 H187 0.930 . S
N185 Co165 2.188 1_556 S
N185 C180 1.328 . S
N185 C184 1.315 1_556 S
H186 C180 0.929 . S
H187 C184 0.930 . S
H188 C176 0.929 . S
H189 C178 0.929 . S
O190 Co165 2.320 1_556 S
O190 C193 1.244 . S
O191 Co165 2.140 1_556 S
O191 C193 1.240 . S
O192 Co165 2.122 . S
O192 C173 1.247 . S
C193 O190 1.244 . S
C193 O191 1.240 . S
H194 C168 0.931 . S
H195 C177 0.931 . S
H196 C181 0.929 . S
H197 C183 0.930 . S
Co198 N202 2.148 . S
Co198 N208 2.128 . S
Co198 N218 2.194 . S
Co198 O223 2.351 . S
Co198 O224 2.155 . S
Co198 O225 2.096 . S
C199 N202 1.301 . S
C199 N203 1.328 . S
C199 H204 0.930 . S
C200 C201 1.333 . S
C200 N202 1.317 . S
C200 H205 0.930 . S
C201 C200 1.333 . S
C201 N203 1.350 . S
C201 H227 0.931 . S
N202 Co198 2.148 . S
N202 C199 1.301 . S
N202 C200 1.317 . S
N203 C199 1.328 . S
N203 C201 1.350 . S
H204 C199 0.930 . S
H205 C200 0.930 . S
C206 O207 1.224 . S
C206 O225 1.247 . S
O207 C206 1.224 . S
N208 Co198 2.128 . S
N208 C209 1.355 . S
N208 C211 1.311 . S
C209 N208 1.355 . S
C209 C210 1.363 . S
C209 H221 0.929 . S
C210 C209 1.363 . S
C210 N212 1.375 . S
C210 H228 0.931 . S
C211 N208 1.311 . S
C211 N212 1.347 . S
C211 H222 0.929 . S
N212 C210 1.375 . S
N212 C211 1.347 . S
C213 C216 1.365 . S
C213 N218 1.328 . S
C213 H219 0.929 . S
C214 C215 1.362 . S
C214 C217 1.378 . S
C214 H229 0.929 . S
C215 C214 1.362 . S
C215 C216 1.366 . S
C216 C213 1.365 . S
C216 C215 1.366 . S
C216 H230 0.930 . S
C217 C214 1.378 . S
C217 N218 1.315 . S
C217 H220 0.930 . S
N218 Co198 2.194 . S
N218 C213 1.328 . S
N218 C217 1.315 . S
H219 C213 0.929 . S
H220 C217 0.930 . S
H221 C209 0.929 . S
H222 C211 0.929 . S
O223 Co198 2.351 . S
O223 C226 1.244 . S
O224 Co198 2.155 . S
O224 C226 1.240 . S
O225 Co198 2.096 . S
O225 C206 1.247 . S
C226 O223 1.244 . S
C226 O224 1.240 . S
H227 C201 0.931 . S
H228 C210 0.931 . S
H229 C214 0.929 . S
H230 C216 0.930 . S
Co231 N235 2.148 . S
Co231 N241 2.128 . S
Co231 N251 2.194 . S
Co231 O256 2.351 . S
Co231 O257 2.155 . S
Co231 O258 2.096 . S
C232 N235 1.301 . S
C232 N236 1.328 . S
C232 H237 0.930 . S
C233 C234 1.333 . S
C233 N235 1.317 . S
C233 H238 0.930 . S
C234 C233 1.333 . S
C234 N236 1.350 . S
C234 H260 0.931 . S
N235 Co231 2.148 . S
N235 C232 1.301 . S
N235 C233 1.317 . S
N236 C232 1.328 . S
N236 C234 1.350 . S
H237 C232 0.930 . S
H238 C233 0.930 . S
C239 O240 1.224 . S
C239 O258 1.247 . S
O240 C239 1.224 . S
N241 Co231 2.128 . S
N241 C242 1.355 . S
N241 C244 1.311 . S
C242 N241 1.355 . S
C242 C243 1.363 . S
C242 H254 0.929 . S
C243 C242 1.363 . S
C243 N245 1.375 . S
C243 H261 0.931 . S
C244 N241 1.311 . S
C244 N245 1.347 . S
C244 H255 0.929 . S
N245 C243 1.375 . S
N245 C244 1.347 . S
C246 C249 1.365 . S
C246 N251 1.328 . S
C246 H252 0.929 . S
C247 C248 1.362 . S
C247 C250 1.378 . S
C247 H262 0.929 . S
C248 C247 1.362 . S
C248 C249 1.366 . S
C249 C246 1.365 . S
C249 C248 1.366 . S
C249 H263 0.930 . S
C250 C247 1.378 . S
C250 N251 1.315 . S
C250 H253 0.930 . S
N251 Co231 2.194 . S
N251 C246 1.328 . S
N251 C250 1.315 . S
H252 C246 0.929 . S
H253 C250 0.930 . S
H254 C242 0.929 . S
H255 C244 0.929 . S
O256 Co231 2.351 . S
O256 C259 1.244 . S
O257 Co231 2.155 . S
O257 C259 1.240 . S
O258 Co231 2.096 . S
O258 C239 1.247 . S
C259 O256 1.244 . S
C259 O257 1.240 . S
H260 C234 0.931 . S
H261 C243 0.931 . S
H262 C247 0.929 . S
H263 C249 0.930 . S
Co264 N268 2.157 . S
Co264 N274 2.121 1_556 S
Co264 N284 2.188 1_556 S
Co264 O289 2.320 1_556 S
Co264 O290 2.140 1_556 S
Co264 O291 2.122 . S
C265 N268 1.301 1_554 S
C265 N269 1.328 1_554 S
C265 H270 0.930 . S
C266 C267 1.333 . S
C266 N268 1.317 . S
C266 H271 0.930 . S
C267 C266 1.333 . S
C267 N269 1.350 . S
C267 H293 0.931 . S
N268 Co264 2.157 . S
N268 C265 1.301 1_556 S
N268 C266 1.317 . S
N269 C265 1.328 1_556 S
N269 C267 1.350 . S
H270 C265 0.930 . S
H271 C266 0.930 . S
C272 O273 1.224 . S
C272 O291 1.247 . S
O273 C272 1.224 . S
N274 Co264 2.121 1_554 S
N274 C275 1.355 . S
N274 C277 1.311 1_554 S
C275 N274 1.355 . S
C275 C276 1.363 . S
C275 H287 0.929 . S
C276 C275 1.363 . S
C276 N278 1.375 . S
C276 H294 0.931 . S
C277 N274 1.311 1_556 S
C277 N278 1.347 1_556 S
C277 H288 0.929 . S
N278 C276 1.375 . S
N278 C277 1.347 1_554 S
C279 C282 1.365 . S
C279 N284 1.328 . S
C279 H285 0.929 . S
C280 C281 1.362 1_556 S
C280 C283 1.378 . S
C280 H295 0.929 . S
C281 C280 1.362 1_554 S
C281 C282 1.366 . S
C282 C279 1.365 . S
C282 C281 1.366 . S
C282 H296 0.930 . S
C283 C280 1.378 . S
C283 N284 1.315 1_556 S
C283 H286 0.930 . S
N284 Co264 2.188 1_554 S
N284 C279 1.328 . S
N284 C283 1.315 1_554 S
H285 C279 0.929 . S
H286 C283 0.930 . S
H287 C275 0.929 . S
H288 C277 0.929 . S
O289 Co264 2.320 1_554 S
O289 C292 1.244 . S
O290 Co264 2.140 1_554 S
O290 C292 1.240 . S
O291 Co264 2.122 . S
O291 C272 1.247 . S
C292 O289 1.244 . S
C292 O290 1.240 . S
H293 C267 0.931 . S
H294 C276 0.931 . S
H295 C280 0.929 . S
H296 C282 0.930 . S
Co297 N301 2.148 . S
Co297 N307 2.128 . S
Co297 N317 2.194 . S
Co297 O322 2.351 . S
Co297 O323 2.155 . S
Co297 O324 2.096 . S
C298 N301 1.301 . S
C298 N302 1.328 . S
C298 H303 0.930 . S
C299 C300 1.333 . S
C299 N301 1.317 . S
C299 H304 0.930 . S
C300 C299 1.333 . S
C300 N302 1.350 . S
C300 H326 0.931 . S
N301 Co297 2.148 . S
N301 C298 1.301 . S
N301 C299 1.317 . S
N302 C298 1.328 . S
N302 C300 1.350 . S
H303 C298 0.930 . S
H304 C299 0.930 . S
C305 O306 1.224 . S
C305 O324 1.247 . S
O306 C305 1.224 . S
N307 Co297 2.128 . S
N307 C308 1.355 . S
N307 C310 1.311 . S
C308 N307 1.355 . S
C308 C309 1.363 . S
C308 H320 0.929 . S
C309 C308 1.363 . S
C309 N311 1.375 . S
C309 H327 0.931 . S
C310 N307 1.311 . S
C310 N311 1.347 . S
C310 H321 0.929 . S
N311 C309 1.375 . S
N311 C310 1.347 . S
C312 C315 1.365 . S
C312 N317 1.328 . S
C312 H318 0.929 . S
C313 C314 1.362 . S
C313 C316 1.378 . S
C313 H328 0.929 . S
C314 C313 1.362 . S
C314 C315 1.366 . S
C315 C312 1.365 . S
C315 C314 1.366 . S
C315 H329 0.930 . S
C316 C313 1.378 . S
C316 N317 1.315 . S
C316 H319 0.930 . S
N317 Co297 2.194 . S
N317 C312 1.328 . S
N317 C316 1.315 . S
H318 C312 0.929 . S
H319 C316 0.930 . S
H320 C308 0.929 . S
H321 C310 0.929 . S
O322 Co297 2.351 . S
O322 C325 1.244 . S
O323 Co297 2.155 . S
O323 C325 1.240 . S
O324 Co297 2.096 . S
O324 C305 1.247 . S
C325 O322 1.244 . S
C325 O323 1.240 . S
H326 C300 0.931 . S
H327 C309 0.931 . S
H328 C313 0.929 . S
H329 C315 0.930 . S
Co330 N334 2.148 . S
Co330 N340 2.128 . S
Co330 N350 2.194 . S
Co330 O355 2.351 . S
Co330 O356 2.155 . S
Co330 O357 2.096 . S
C331 N334 1.301 . S
C331 N335 1.328 . S
C331 H336 0.930 . S
C332 C333 1.333 . S
C332 N334 1.317 . S
C332 H337 0.930 . S
C333 C332 1.333 . S
C333 N335 1.350 . S
C333 H359 0.931 . S
N334 Co330 2.148 . S
N334 C331 1.301 . S
N334 C332 1.317 . S
N335 C331 1.328 . S
N335 C333 1.350 . S
H336 C331 0.930 . S
H337 C332 0.930 . S
C338 O339 1.224 . S
C338 O357 1.247 . S
O339 C338 1.224 . S
N340 Co330 2.128 . S
N340 C341 1.355 . S
N340 C343 1.311 . S
C341 N340 1.355 . S
C341 C342 1.363 . S
C341 H353 0.929 . S
C342 C341 1.363 . S
C342 N344 1.375 . S
C342 H360 0.931 . S
C343 N340 1.311 . S
C343 N344 1.347 . S
C343 H354 0.929 . S
N344 C342 1.375 . S
N344 C343 1.347 . S
C345 C348 1.365 . S
C345 N350 1.328 . S
C345 H351 0.929 . S
C346 C347 1.362 . S
C346 C349 1.378 . S
C346 H361 0.929 . S
C347 C346 1.362 . S
C347 C348 1.366 . S
C348 C345 1.365 . S
C348 C347 1.366 . S
C348 H362 0.930 . S
C349 C346 1.378 . S
C349 N350 1.315 . S
C349 H352 0.930 . S
N350 Co330 2.194 . S
N350 C345 1.328 . S
N350 C349 1.315 . S
H351 C345 0.929 . S
H352 C349 0.930 . S
H353 C341 0.929 . S
H354 C343 0.929 . S
O355 Co330 2.351 . S
O355 C358 1.244 . S
O356 Co330 2.155 . S
O356 C358 1.240 . S
O357 Co330 2.096 . S
O357 C338 1.247 . S
C358 O355 1.244 . S
C358 O356 1.240 . S
H359 C333 0.931 . S
H360 C342 0.931 . S
H361 C346 0.929 . S
H362 C348 0.930 . S
Co363 N367 2.157 . S
Co363 N373 2.121 1_556 S
Co363 N383 2.188 1_556 S
Co363 O388 2.320 1_556 S
Co363 O389 2.140 1_556 S
Co363 O390 2.122 . S
C364 N367 1.301 1_554 S
C364 N368 1.328 1_554 S
C364 H369 0.930 . S
C365 C366 1.333 . S
C365 N367 1.317 . S
C365 H370 0.930 . S
C366 C365 1.333 . S
C366 N368 1.350 . S
C366 H392 0.931 . S
N367 Co363 2.157 . S
N367 C364 1.301 1_556 S
N367 C365 1.317 . S
N368 C364 1.328 1_556 S
N368 C366 1.350 . S
H369 C364 0.930 . S
H370 C365 0.930 . S
C371 O372 1.224 . S
C371 O390 1.247 . S
O372 C371 1.224 . S
N373 Co363 2.121 1_554 S
N373 C374 1.355 . S
N373 C376 1.311 1_554 S
C374 N373 1.355 . S
C374 C375 1.363 . S
C374 H386 0.929 . S
C375 C374 1.363 . S
C375 N377 1.375 . S
C375 H393 0.931 . S
C376 N373 1.311 1_556 S
C376 N377 1.347 1_556 S
C376 H387 0.929 . S
N377 C375 1.375 . S
N377 C376 1.347 1_554 S
C378 C381 1.365 . S
C378 N383 1.328 . S
C378 H384 0.929 . S
C379 C380 1.362 1_556 S
C379 C382 1.378 . S
C379 H394 0.929 . S
C380 C379 1.362 1_554 S
C380 C381 1.366 . S
C381 C378 1.365 . S
C381 C380 1.366 . S
C381 H395 0.930 . S
C382 C379 1.378 . S
C382 N383 1.315 1_556 S
C382 H385 0.930 . S
N383 Co363 2.188 1_554 S
N383 C378 1.328 . S
N383 C382 1.315 1_554 S
H384 C378 0.929 . S
H385 C382 0.930 . S
H386 C374 0.929 . S
H387 C376 0.929 . S
O388 Co363 2.320 1_554 S
O388 C391 1.244 . S
O389 Co363 2.140 1_554 S
O389 C391 1.240 . S
O390 Co363 2.122 . S
O390 C371 1.247 . S
C391 O388 1.244 . S
C391 O389 1.240 . S
H392 C366 0.931 . S
H393 C375 0.931 . S
H394 C379 0.929 . S
H395 C381 0.930 . S
H396 C404 0.929 . S
H397 C406 0.930 . S
H398 C408 0.930 . S
H399 C411 0.929 . S
H400 C414 0.930 . S
H401 C416 0.960 . S
H402 C416 0.960 . S
H403 C416 0.960 . S
C404 H396 0.929 . S
C404 C405 1.377 . S
C404 C406 1.384 . S
C405 C404 1.377 . S
C405 C411 1.390 . S
C406 H397 0.930 . S
C406 C404 1.384 . S
C406 C407 1.372 . S
C407 C406 1.372 . S
C407 C408 1.400 . S
C407 C412 1.490 . S
C408 H398 0.930 . S
C408 C407 1.400 . S
C408 C411 1.386 . S
H409 C425 0.930 . S
H410 C426 0.931 . S
C411 H399 0.929 . S
C411 C405 1.390 . S
C411 C408 1.386 . S
C412 C407 1.490 . S
C412 C414 1.395 . S
C412 C415 1.403 1_655 S
H413 C419 0.930 . S
C414 H400 0.930 . S
C414 C412 1.395 . S
C414 C417 1.403 . S
C415 C412 1.403 1_455 S
C415 C416 1.524 . S
C415 C419 1.400 . S
C416 H401 0.960 . S
C416 H402 0.960 . S
C416 H403 0.960 . S
C416 C415 1.524 . S
C417 C414 1.403 . S
C417 C418 1.392 1_655 S
C417 C421 1.495 . S
C418 C417 1.392 1_455 S
C418 C419 1.385 . S
C418 C420 1.478 . S
C419 H413 0.930 . S
C419 C415 1.400 . S
C419 C418 1.385 . S
C420 C418 1.478 . S
C420 C422 1.381 . S
C420 C426 1.383 . S
C421 C417 1.495 . S
C421 H427 0.959 . S
C421 H428 0.961 . S
C421 H429 0.960 . S
C422 C420 1.381 . S
C422 C423 1.394 . S
C422 H430 0.930 . S
C423 C422 1.394 . S
C423 C424 1.383 . S
C423 H431 0.929 . S
C424 C423 1.383 . S
C424 C425 1.377 . S
C425 H409 0.930 . S
C425 C424 1.377 . S
C425 C426 1.379 . S
C426 H410 0.931 . S
C426 C420 1.383 . S
C426 C425 1.379 . S
H427 C421 0.959 . S
H428 C421 0.961 . S
H429 C421 0.960 . S
H430 C422 0.930 . S
H431 C423 0.929 . S
H432 C440 0.929 . S
H433 C442 0.930 . S
H434 C444 0.930 . S
H435 C447 0.929 . S
H436 C450 0.930 . S
H437 C452 0.960 . S
H438 C452 0.960 . S
H439 C452 0.960 . S
C440 H432 0.929 . S
C440 C441 1.377 . S
C440 C442 1.384 . S
C441 C440 1.377 . S
C441 C447 1.390 . S
C442 H433 0.930 . S
C442 C440 1.384 . S
C442 C443 1.372 . S
C443 C442 1.372 . S
C443 C444 1.400 . S
C443 C448 1.490 . S
C444 H434 0.930 . S
C444 C443 1.400 . S
C444 C447 1.386 . S
H445 C461 0.930 . S
H446 C462 0.931 . S
C447 H435 0.929 . S
C447 C441 1.390 . S
C447 C444 1.386 . S
C448 C443 1.490 . S
C448 C450 1.395 1_565 S
C448 C451 1.403 . S
H449 C455 0.930 . S
C450 H436 0.930 . S
C450 C448 1.395 1_545 S
C450 C453 1.403 . S
C451 C448 1.403 . S
C451 C452 1.524 . S
C451 C455 1.400 . S
C452 H437 0.960 . S
C452 H438 0.960 . S
C452 H439 0.960 . S
C452 C451 1.524 . S
C453 C450 1.403 . S
C453 C454 1.392 . S
C453 C457 1.495 . S
C454 C453 1.392 . S
C454 C455 1.385 1_545 S
C454 C456 1.478 . S
C455 H449 0.930 . S
C455 C451 1.400 . S
C455 C454 1.385 1_565 S
C456 C454 1.478 . S
C456 C458 1.381 . S
C456 C462 1.383 . S
C457 C453 1.495 . S
C457 H463 0.959 . S
C457 H464 0.961 . S
C457 H465 0.960 . S
C458 C456 1.381 . S
C458 C459 1.394 . S
C458 H466 0.930 . S
C459 C458 1.394 . S
C459 C460 1.383 . S
C459 H467 0.929 . S
C460 C459 1.383 . S
C460 C461 1.377 . S
C461 H445 0.930 . S
C461 C460 1.377 . S
C461 C462 1.379 . S
C462 H446 0.931 . S
C462 C456 1.383 . S
C462 C461 1.379 . S
H463 C457 0.959 . S
H464 C457 0.961 . S
H465 C457 0.960 . S
H466 C458 0.930 . S
H467 C459 0.929 . S
H468 C476 0.929 . S
H469 C478 0.930 . S
H470 C480 0.930 . S
H471 C483 0.929 . S
H472 C486 0.930 . S
H473 C488 0.960 . S
H474 C488 0.960 . S
H475 C488 0.960 . S
C476 H468 0.929 . S
C476 C477 1.377 . S
C476 C478 1.384 . S
C477 C476 1.377 . S
C477 C483 1.390 . S
C478 H469 0.930 . S
C478 C476 1.384 . S
C478 C479 1.372 . S
C479 C478 1.372 . S
C479 C480 1.400 . S
C479 C484 1.490 . S
C480 H470 0.930 . S
C480 C479 1.400 . S
C480 C483 1.386 . S
H481 C497 0.930 . S
H482 C498 0.931 . S
C483 H471 0.929 . S
C483 C477 1.390 . S
C483 C480 1.386 . S
C484 C479 1.490 . S
C484 C486 1.395 . S
C484 C487 1.403 . S
H485 C491 0.930 . S
C486 H472 0.930 . S
C486 C484 1.395 . S
C486 C489 1.403 . S
C487 C484 1.403 . S
C487 C488 1.524 . S
C487 C491 1.400 . S
C488 H473 0.960 . S
C488 H474 0.960 . S
C488 H475 0.960 . S
C488 C487 1.524 . S
C489 C486 1.403 . S
C489 C490 1.392 . S
C489 C493 1.495 . S
C490 C489 1.392 . S
C490 C491 1.385 . S
C490 C492 1.478 . S
C491 H485 0.930 . S
C491 C487 1.400 . S
C491 C490 1.385 . S
C492 C490 1.478 . S
C492 C494 1.381 . S
C492 C498 1.383 . S
C493 C489 1.495 . S
C493 H499 0.959 . S
C493 H500 0.961 . S
C493 H501 0.960 . S
C494 C492 1.381 . S
C494 C495 1.394 . S
C494 H502 0.930 . S
C495 C494 1.394 . S
C495 C496 1.383 . S
C495 H503 0.929 . S
C496 C495 1.383 . S
C496 C497 1.377 . S
C497 H481 0.930 . S
C497 C496 1.377 . S
C497 C498 1.379 . S
C498 H482 0.931 . S
C498 C492 1.383 . S
C498 C497 1.379 . S
H499 C493 0.959 . S
H500 C493 0.961 . S
H501 C493 0.960 . S
H502 C494 0.930 . S
H503 C495 0.929 . S
H504 C512 0.929 . S
H505 C514 0.930 . S
H506 C516 0.930 . S
H507 C519 0.929 . S
H508 C522 0.930 . S
H509 C524 0.960 1_655 S
H510 C524 0.960 1_655 S
H511 C524 0.960 . S
C512 H504 0.929 . S
C512 C513 1.377 . S
C512 C514 1.384 . S
C513 C512 1.377 . S
C513 C519 1.390 . S
C514 H505 0.930 . S
C514 C512 1.384 . S
C514 C515 1.372 . S
C515 C514 1.372 . S
C515 C516 1.400 . S
C515 C520 1.490 . S
C516 H506 0.930 . S
C516 C515 1.400 . S
C516 C519 1.386 . S
H517 C533 0.930 . S
H518 C534 0.931 . S
C519 H507 0.929 . S
C519 C513 1.390 . S
C519 C516 1.386 . S
C520 C515 1.490 . S
C520 C522 1.395 . S
C520 C523 1.403 . S
H521 C527 0.930 . S
C522 H508 0.930 . S
C522 C520 1.395 . S
C522 C525 1.403 1_455 S
C523 C520 1.403 . S
C523 C524 1.524 . S
C523 C527 1.400 1_455 S
C524 H509 0.960 1_455 S
C524 H510 0.960 1_455 S
C524 H511 0.960 . S
C524 C523 1.524 . S
C525 C522 1.403 1_655 S
C525 C526 1.392 . S
C525 C529 1.495 . S
C526 C525 1.392 . S
C526 C527 1.385 . S
C526 C528 1.478 . S
C527 H521 0.930 . S
C527 C523 1.400 1_655 S
C527 C526 1.385 . S
C528 C526 1.478 . S
C528 C530 1.381 . S
C528 C534 1.383 . S
C529 C525 1.495 . S
C529 H535 0.959 1_655 S
C529 H536 0.960 . S
C529 H537 0.960 . S
C530 C528 1.381 . S
C530 C531 1.394 . S
C530 H538 0.930 . S
C531 C530 1.394 . S
C531 C532 1.383 . S
C531 H539 0.929 . S
C532 C531 1.383 . S
C532 C533 1.377 . S
C533 H517 0.930 . S
C533 C532 1.377 . S
C533 C534 1.379 . S
C534 H518 0.931 . S
C534 C528 1.383 . S
C534 C533 1.379 . S
H535 C529 0.959 1_455 S
H536 C529 0.960 . S
H537 C529 0.960 . S
H538 C530 0.930 . S
H539 C531 0.929 . S
H540 C548 0.929 . S
H541 C550 0.930 . S
H542 C552 0.930 . S
H543 C555 0.929 . S
H544 C558 0.930 . S
H545 C560 0.960 . S
H546 C560 0.960 . S
H547 C560 0.960 . S
C548 H540 0.929 . S
C548 C549 1.377 . S
C548 C550 1.384 . S
C549 C548 1.377 . S
C549 C555 1.390 . S
C550 H541 0.930 . S
C550 C548 1.384 . S
C550 C551 1.372 . S
C551 C550 1.372 . S
C551 C552 1.400 . S
C551 C556 1.490 . S
C552 H542 0.930 . S
C552 C551 1.400 . S
C552 C555 1.386 . S
H553 C569 0.930 . S
H554 C570 0.931 . S
C555 H543 0.929 . S
C555 C549 1.390 . S
C555 C552 1.386 . S
C556 C551 1.490 . S
C556 C558 1.395 1_545 S
C556 C559 1.403 . S
H557 C563 0.930 . S
C558 H544 0.930 . S
C558 C556 1.395 1_565 S
C558 C561 1.403 . S
C559 C556 1.403 . S
C559 C560 1.524 . S
C559 C563 1.400 . S
C560 H545 0.960 . S
C560 H546 0.960 . S
C560 H547 0.960 . S
C560 C559 1.524 . S
C561 C558 1.403 . S
C561 C562 1.392 . S
C561 C565 1.495 . S
C562 C561 1.392 . S
C562 C563 1.385 1_565 S
C562 C564 1.478 . S
C563 H557 0.930 . S
C563 C559 1.400 . S
C563 C562 1.385 1_545 S
C564 C562 1.478 . S
C564 C566 1.381 . S
C564 C570 1.383 . S
C565 C561 1.495 . S
C565 H571 0.959 . S
C565 H572 0.961 . S
C565 H573 0.960 . S
C566 C564 1.381 . S
C566 C567 1.394 . S
C566 H574 0.930 . S
C567 C566 1.394 . S
C567 C568 1.383 . S
C567 H575 0.929 . S
C568 C567 1.383 . S
C568 C569 1.377 . S
C569 H553 0.930 . S
C569 C568 1.377 . S
C569 C570 1.379 . S
C570 H554 0.931 . S
C570 C564 1.383 . S
C570 C569 1.379 . S
H571 C565 0.959 . S
H572 C565 0.961 . S
H573 C565 0.960 . S
H574 C566 0.930 . S
H575 C567 0.929 . S
H576 C584 0.929 . S
H577 C586 0.930 . S
H578 C588 0.930 . S
H579 C591 0.929 . S
H580 C594 0.930 . S
H581 C596 0.960 . S
H582 C596 0.960 . S
H583 C596 0.960 . S
C584 H576 0.929 . S
C584 C585 1.377 . S
C584 C586 1.384 . S
C585 C584 1.377 . S
C585 C591 1.390 . S
C586 H577 0.930 . S
C586 C584 1.384 . S
C586 C587 1.372 . S
C587 C586 1.372 . S
C587 C588 1.400 . S
C587 C592 1.490 . S
C588 H578 0.930 . S
C588 C587 1.400 . S
C588 C591 1.386 . S
H589 C605 0.930 . S
H590 C606 0.931 . S
C591 H579 0.929 . S
C591 C585 1.390 . S
C591 C588 1.386 . S
C592 C587 1.490 . S
C592 C594 1.395 . S
C592 C595 1.403 . S
H593 C599 0.930 . S
C594 H580 0.930 . S
C594 C592 1.395 . S
C594 C597 1.403 . S
C595 C592 1.403 . S
C595 C596 1.524 . S
C595 C599 1.400 . S
C596 H581 0.960 . S
C596 H582 0.960 . S
C596 H583 0.960 . S
C596 C595 1.524 . S
C597 C594 1.403 . S
C597 C598 1.392 . S
C597 C601 1.495 . S
C598 C597 1.392 . S
C598 C599 1.385 . S
C598 C600 1.478 . S
C599 H593 0.930 . S
C599 C595 1.400 . S
C599 C598 1.385 . S
C600 C598 1.478 . S
C600 C602 1.381 . S
C600 C606 1.383 . S
C601 C597 1.495 . S
C601 H607 0.959 . S
C601 H608 0.961 . S
C601 H609 0.960 . S
C602 C600 1.381 . S
C602 C603 1.394 . S
C602 H610 0.930 . S
C603 C602 1.394 . S
C603 C604 1.383 . S
C603 H611 0.929 . S
C604 C603 1.383 . S
C604 C605 1.377 . S
C605 H589 0.930 . S
C605 C604 1.377 . S
C605 C606 1.379 . S
C606 H590 0.931 . S
C606 C600 1.383 . S
C606 C605 1.379 . S
H607 C601 0.959 . S
H608 C601 0.961 . S
H609 C601 0.960 . S
H610 C602 0.930 . S
H611 C603 0.929 . S
H612 C620 0.929 . S
H613 C622 0.930 . S
H614 C624 0.930 . S
H615 C627 0.929 . S
H616 C630 0.930 . S
H617 C632 0.960 . S
H618 C632 0.960 . S
H619 C632 0.960 . S
C620 H612 0.929 . S
C620 C621 1.377 . S
C620 C622 1.384 . S
C621 C620 1.377 . S
C621 C627 1.390 . S
C622 H613 0.930 . S
C622 C620 1.384 . S
C622 C623 1.372 . S
C623 C622 1.372 . S
C623 C624 1.400 . S
C623 C628 1.490 . S
C624 H614 0.930 . S
C624 C623 1.400 . S
C624 C627 1.386 . S
H625 C641 0.930 . S
H626 C642 0.931 . S
C627 H615 0.929 . S
C627 C621 1.390 . S
C627 C624 1.386 . S
C628 C623 1.490 . S
C628 C630 1.395 . S
C628 C631 1.403 . S
H629 C635 0.930 . S
C630 H616 0.930 . S
C630 C628 1.395 . S
C630 C633 1.403 . S
C631 C628 1.403 . S
C631 C632 1.524 . S
C631 C635 1.400 . S
C632 H617 0.960 . S
C632 H618 0.960 . S
C632 H619 0.960 . S
C632 C631 1.524 . S
C633 C630 1.403 . S
C633 C634 1.392 . S
C633 C637 1.495 . S
C634 C633 1.392 . S
C634 C635 1.385 . S
C634 C636 1.478 . S
C635 H629 0.930 . S
C635 C631 1.400 . S
C635 C634 1.385 . S
C636 C634 1.478 . S
C636 C638 1.381 . S
C636 C642 1.383 . S
C637 C633 1.495 . S
C637 H643 0.959 . S
C637 H644 0.961 . S
C637 H645 0.960 . S
C638 C636 1.381 . S
C638 C639 1.394 . S
C638 H646 0.930 . S
C639 C638 1.394 . S
C639 C640 1.383 . S
C639 H647 0.929 . S
C640 C639 1.383 . S
C640 C641 1.377 . S
C641 H625 0.930 . S
C641 C640 1.377 . S
C641 C642 1.379 . S
C642 H626 0.931 . S
C642 C636 1.383 . S
C642 C641 1.379 . S
H643 C637 0.959 . S
H644 C637 0.961 . S
H645 C637 0.960 . S
H646 C638 0.930 . S
H647 C639 0.929 . S
H648 C656 0.929 . S
H649 C658 0.930 . S
H650 C660 0.930 . S
H651 C663 0.929 . S
H652 C666 0.930 . S
H653 C668 0.960 . S
H654 C668 0.960 . S
H655 C668 0.960 . S
C656 H648 0.929 . S
C656 C657 1.377 . S
C656 C658 1.384 . S
C657 C656 1.377 . S
C657 C663 1.390 . S
C658 H649 0.930 . S
C658 C656 1.384 . S
C658 C659 1.372 . S
C659 C658 1.372 . S
C659 C660 1.400 . S
C659 C664 1.490 . S
C660 H650 0.930 . S
C660 C659 1.400 . S
C660 C663 1.386 . S
H661 C677 0.930 . S
H662 C678 0.931 . S
C663 H651 0.929 . S
C663 C657 1.390 . S
C663 C660 1.386 . S
C664 C659 1.490 . S
C664 C666 1.395 . S
C664 C667 1.403 . S
H665 C671 0.930 . S
C666 H652 0.930 . S
C666 C664 1.395 . S
C666 C669 1.403 . S
C667 C664 1.403 . S
C667 C668 1.524 . S
C667 C671 1.400 . S
C668 H653 0.960 . S
C668 H654 0.960 . S
C668 H655 0.960 . S
C668 C667 1.524 . S
C669 C666 1.403 . S
C669 C670 1.392 . S
C669 C673 1.495 . S
C670 C669 1.392 . S
C670 C671 1.385 . S
C670 C672 1.478 . S
C671 H665 0.930 . S
C671 C667 1.400 . S
C671 C670 1.385 . S
C672 C670 1.478 . S
C672 C674 1.381 . S
C672 C678 1.383 . S
C673 C669 1.495 . S
C673 H679 0.959 . S
C673 H680 0.961 . S
C673 H681 0.960 . S
C674 C672 1.381 . S
C674 C675 1.394 . S
C674 H682 0.930 . S
C675 C674 1.394 . S
C675 C676 1.383 . S
C675 H683 0.929 . S
C676 C675 1.383 . S
C676 C677 1.377 . S
C677 H661 0.930 . S
C677 C676 1.377 . S
C677 C678 1.379 . S
C678 H662 0.931 . S
C678 C672 1.383 . S
C678 C677 1.379 . S
H679 C673 0.959 . S
H680 C673 0.961 . S
H681 C673 0.960 . S
H682 C674 0.930 . S
H683 C675 0.929 . S
H684 C692 0.929 . S
H685 C694 0.930 . S
H686 C696 0.930 . S
H687 C699 0.929 . S
H688 C702 0.930 . S
H689 C704 0.960 . S
H690 C704 0.960 . S
H691 C704 0.960 . S
C692 H684 0.929 . S
C692 C693 1.377 . S
C692 C694 1.384 . S
C693 C692 1.377 . S
C693 C699 1.390 . S
C694 H685 0.930 . S
C694 C692 1.384 . S
C694 C695 1.372 . S
C695 C694 1.372 . S
C695 C696 1.400 . S
C695 C700 1.490 . S
C696 H686 0.930 . S
C696 C695 1.400 . S
C696 C699 1.386 . S
H697 C713 0.930 . S
H698 C714 0.931 . S
C699 H687 0.929 . S
C699 C693 1.390 . S
C699 C696 1.386 . S
C700 C695 1.490 . S
C700 C702 1.395 . S
C700 C703 1.403 . S
H701 C707 0.930 . S
C702 H688 0.930 . S
C702 C700 1.395 . S
C702 C705 1.403 . S
C703 C700 1.403 . S
C703 C704 1.524 . S
C703 C707 1.400 . S
C704 H689 0.960 . S
C704 H690 0.960 . S
C704 H691 0.960 . S
C704 C703 1.524 . S
C705 C702 1.403 . S
C705 C706 1.392 . S
C705 C709 1.495 . S
C706 C705 1.392 . S
C706 C707 1.385 . S
C706 C708 1.478 . S
C707 H701 0.930 . S
C707 C703 1.400 . S
C707 C706 1.385 . S
C708 C706 1.478 . S
C708 C710 1.381 . S
C708 C714 1.383 . S
C709 C705 1.495 . S
C709 H715 0.959 . S
C709 H716 0.961 . S
C709 H717 0.960 . S
C710 C708 1.381 . S
C710 C711 1.394 . S
C710 H718 0.930 . S
C711 C710 1.394 . S
C711 C712 1.383 . S
C711 H719 0.929 . S
C712 C711 1.383 . S
C712 C713 1.377 . S
C713 H697 0.930 . S
C713 C712 1.377 . S
C713 C714 1.379 . S
C714 H698 0.931 . S
C714 C708 1.383 . S
C714 C713 1.379 . S
H715 C709 0.959 . S
H716 C709 0.961 . S
H717 C709 0.960 . S
H718 C710 0.930 . S
H719 C711 0.929 . S
H720 C728 0.929 . S
H721 C730 0.930 . S
H722 C732 0.930 . S
H723 C735 0.929 . S
H724 C738 0.930 . S
H725 C740 0.960 . S
H726 C740 0.960 . S
H727 C740 0.960 . S
C728 H720 0.929 . S
C728 C729 1.377 . S
C728 C730 1.384 . S
C729 C728 1.377 . S
C729 C735 1.390 . S
C730 H721 0.930 . S
C730 C728 1.384 . S
C730 C731 1.372 . S
C731 C730 1.372 . S
C731 C732 1.400 . S
C731 C736 1.490 . S
C732 H722 0.930 . S
C732 C731 1.400 . S
C732 C735 1.386 . S
H733 C749 0.930 . S
H734 C750 0.931 . S
C735 H723 0.929 . S
C735 C729 1.390 . S
C735 C732 1.386 . S
C736 C731 1.490 . S
C736 C738 1.395 . S
C736 C739 1.403 . S
H737 C743 0.930 . S
C738 H724 0.930 . S
C738 C736 1.395 . S
C738 C741 1.403 . S
C739 C736 1.403 . S
C739 C740 1.524 . S
C739 C743 1.400 . S
C740 H725 0.960 . S
C740 H726 0.960 . S
C740 H727 0.960 . S
C740 C739 1.524 . S
C741 C738 1.403 . S
C741 C742 1.392 . S
C741 C745 1.495 . S
C742 C741 1.392 . S
C742 C743 1.385 . S
C742 C744 1.478 . S
C743 H737 0.930 . S
C743 C739 1.400 . S
C743 C742 1.385 . S
C744 C742 1.478 . S
C744 C746 1.381 . S
C744 C750 1.383 . S
C745 C741 1.495 . S
C745 H751 0.959 . S
C745 H752 0.961 . S
C745 H753 0.960 . S
C746 C744 1.381 . S
C746 C747 1.394 . S
C746 H754 0.930 . S
C747 C746 1.394 . S
C747 C748 1.383 . S
C747 H755 0.929 . S
C748 C747 1.383 . S
C748 C749 1.377 . S
C749 H733 0.930 . S
C749 C748 1.377 . S
C749 C750 1.379 . S
C750 H734 0.931 . S
C750 C744 1.383 . S
C750 C749 1.379 . S
H751 C745 0.959 . S
H752 C745 0.961 . S
H753 C745 0.960 . S
H754 C746 0.930 . S
H755 C747 0.929 . S
H756 C764 0.929 . S
H757 C766 0.930 . S
H758 C768 0.930 . S
H759 C771 0.929 . S
H760 C774 0.930 . S
H761 C776 0.960 . S
H762 C776 0.960 . S
H763 C776 0.960 . S
C764 H756 0.929 . S
C764 C765 1.377 . S
C764 C766 1.384 . S
C765 C764 1.377 . S
C765 C771 1.390 . S
C766 H757 0.930 . S
C766 C764 1.384 . S
C766 C767 1.372 . S
C767 C766 1.372 . S
C767 C768 1.400 . S
C767 C772 1.490 . S
C768 H758 0.930 . S
C768 C767 1.400 . S
C768 C771 1.386 . S
H769 C785 0.930 . S
H770 C786 0.931 . S
C771 H759 0.929 . S
C771 C765 1.390 . S
C771 C768 1.386 . S
C772 C767 1.490 . S
C772 C774 1.395 . S
C772 C775 1.403 . S
H773 C779 0.930 . S
C774 H760 0.930 . S
C774 C772 1.395 . S
C774 C777 1.403 . S
C775 C772 1.403 . S
C775 C776 1.524 . S
C775 C779 1.400 . S
C776 H761 0.960 . S
C776 H762 0.960 . S
C776 H763 0.960 . S
C776 C775 1.524 . S
C777 C774 1.403 . S
C777 C778 1.392 . S
C777 C781 1.495 . S
C778 C777 1.392 . S
C778 C779 1.385 . S
C778 C780 1.478 . S
C779 H773 0.930 . S
C779 C775 1.400 . S
C779 C778 1.385 . S
C780 C778 1.478 . S
C780 C782 1.381 . S
C780 C786 1.383 . S
C781 C777 1.495 . S
C781 H787 0.959 . S
C781 H788 0.961 . S
C781 H789 0.960 . S
C782 C780 1.381 . S
C782 C783 1.394 . S
C782 H790 0.930 . S
C783 C782 1.394 . S
C783 C784 1.383 . S
C783 H791 0.929 . S
C784 C783 1.383 . S
C784 C785 1.377 . S
C785 H769 0.930 . S
C785 C784 1.377 . S
C785 C786 1.379 . S
C786 H770 0.931 . S
C786 C780 1.383 . S
C786 C785 1.379 . S
H787 C781 0.959 . S
H788 C781 0.961 . S
H789 C781 0.960 . S
H790 C782 0.930 . S
H791 C783 0.929 . S
H792 C800 0.929 . S
H793 C802 0.930 . S
H794 C804 0.930 . S
H795 C807 0.929 . S
H796 C810 0.930 . S
H797 C812 0.960 . S
H798 C812 0.960 . S
H799 C812 0.960 . S
C800 H792 0.929 . S
C800 C801 1.377 . S
C800 C802 1.384 . S
C801 C800 1.377 . S
C801 C807 1.390 . S
C802 H793 0.930 . S
C802 C800 1.384 . S
C802 C803 1.372 . S
C803 C802 1.372 . S
C803 C804 1.400 . S
C803 C808 1.490 . S
C804 H794 0.930 . S
C804 C803 1.400 . S
C804 C807 1.386 . S
H805 C821 0.930 . S
H806 C822 0.931 . S
C807 H795 0.929 . S
C807 C801 1.390 . S
C807 C804 1.386 . S
C808 C803 1.490 . S
C808 C810 1.395 . S
C808 C811 1.403 . S
H809 C815 0.930 . S
C810 H796 0.930 . S
C810 C808 1.395 . S
C810 C813 1.403 . S
C811 C808 1.403 . S
C811 C812 1.524 . S
C811 C815 1.400 . S
C812 H797 0.960 . S
C812 H798 0.960 . S
C812 H799 0.960 . S
C812 C811 1.524 . S
C813 C810 1.403 . S
C813 C814 1.392 . S
C813 C817 1.495 . S
C814 C813 1.392 . S
C814 C815 1.385 . S
C814 C816 1.478 . S
C815 H809 0.930 . S
C815 C811 1.400 . S
C815 C814 1.385 . S
C816 C814 1.478 . S
C816 C818 1.381 . S
C816 C822 1.383 . S
C817 C813 1.495 . S
C817 H823 0.959 . S
C817 H824 0.961 . S
C817 H825 0.960 . S
C818 C816 1.381 . S
C818 C819 1.394 . S
C818 H826 0.930 . S
C819 C818 1.394 . S
C819 C820 1.383 . S
C819 H827 0.929 . S
C820 C819 1.383 . S
C820 C821 1.377 . S
C821 H805 0.930 . S
C821 C820 1.377 . S
C821 C822 1.379 . S
C822 H806 0.931 . S
C822 C816 1.383 . S
C822 C821 1.379 . S
H823 C817 0.959 . S
H824 C817 0.961 . S
H825 C817 0.960 . S
H826 C818 0.930 . S
H827 C819 0.929 . S
H828 C836 0.929 . S
H829 C838 0.930 . S
H830 C840 0.930 . S
H831 C843 0.929 . S
H832 C846 0.930 . S
H833 C848 0.960 . S
H834 C848 0.960 . S
H835 C848 0.960 . S
C836 H828 0.929 . S
C836 C837 1.377 . S
C836 C838 1.384 . S
C837 C836 1.377 . S
C837 C843 1.390 . S
C838 H829 0.930 . S
C838 C836 1.384 . S
C838 C839 1.372 . S
C839 C838 1.372 . S
C839 C840 1.400 . S
C839 C844 1.490 . S
C840 H830 0.930 . S
C840 C839 1.400 . S
C840 C843 1.386 . S
H841 C857 0.930 . S
H842 C858 0.931 . S
C843 H831 0.929 . S
C843 C837 1.390 . S
C843 C840 1.386 . S
C844 C839 1.490 . S
C844 C846 1.395 1_655 S
C844 C847 1.403 . S
H845 C851 0.930 . S
C846 H832 0.930 . S
C846 C844 1.395 1_455 S
C846 C849 1.403 . S
C847 C844 1.403 . S
C847 C848 1.524 . S
C847 C851 1.400 . S
C848 H833 0.960 . S
C848 H834 0.960 . S
C848 H835 0.960 . S
C848 C847 1.524 . S
C849 C846 1.403 . S
C849 C850 1.392 . S
C849 C853 1.495 . S
C850 C849 1.392 . S
C850 C851 1.385 1_455 S
C850 C852 1.478 . S
C851 H845 0.930 . S
C851 C847 1.400 . S
C851 C850 1.385 1_655 S
C852 C850 1.478 . S
C852 C854 1.381 . S
C852 C858 1.383 . S
C853 C849 1.495 . S
C853 H859 0.959 . S
C853 H860 0.961 . S
C853 H861 0.960 . S
C854 C852 1.381 . S
C854 C855 1.394 . S
C854 H862 0.930 . S
C855 C854 1.394 . S
C855 C856 1.383 . S
C855 H863 0.929 . S
C856 C855 1.383 . S
C856 C857 1.377 . S
C857 H841 0.930 . S
C857 C856 1.377 . S
C857 C858 1.379 . S
C858 H842 0.931 . S
C858 C852 1.383 . S
C858 C857 1.379 . S
H859 C853 0.959 . S
H860 C853 0.961 . S
H861 C853 0.960 . S
H862 C854 0.930 . S
H863 C855 0.929 . S
H864 C872 0.929 . S
H865 C874 0.930 . S
H866 C876 0.930 . S
H867 C879 0.929 . S
H868 C882 0.930 . S
H869 C884 0.960 . S
H870 C884 0.960 . S
H871 C884 0.960 . S
C872 H864 0.929 . S
C872 C873 1.377 . S
C872 C874 1.384 . S
C873 C872 1.377 . S
C873 C879 1.390 . S
C874 H865 0.930 . S
C874 C872 1.384 . S
C874 C875 1.372 . S
C875 C874 1.372 . S
C875 C876 1.400 . S
C875 C880 1.490 . S
C876 H866 0.930 . S
C876 C875 1.400 . S
C876 C879 1.386 . S
H877 C893 0.930 . S
H878 C894 0.931 . S
C879 H867 0.929 . S
C879 C873 1.390 . S
C879 C876 1.386 . S
C880 C875 1.490 . S
C880 C882 1.395 1_545 S
C880 C883 1.403 . S
H881 C887 0.930 . S
C882 H868 0.930 . S
C882 C880 1.395 1_565 S
C882 C885 1.403 . S
C883 C880 1.403 . S
C883 C884 1.524 . S
C883 C887 1.400 . S
C884 H869 0.960 . S
C884 H870 0.960 . S
C884 H871 0.960 . S
C884 C883 1.524 . S
C885 C882 1.403 . S
C885 C886 1.392 . S
C885 C889 1.495 . S
C886 C885 1.392 . S
C886 C887 1.385 1_565 S
C886 C888 1.478 . S
C887 H881 0.930 . S
C887 C883 1.400 . S
C887 C886 1.385 1_545 S
C888 C886 1.478 . S
C888 C890 1.381 . S
C888 C894 1.383 . S
C889 C885 1.495 . S
C889 H895 0.959 . S
C889 H896 0.961 . S
C889 H897 0.960 . S
C890 C888 1.381 . S
C890 C891 1.394 . S
C890 H898 0.930 . S
C891 C890 1.394 . S
C891 C892 1.383 . S
C891 H899 0.929 . S
C892 C891 1.383 . S
C892 C893 1.377 . S
C893 H877 0.930 . S
C893 C892 1.377 . S
C893 C894 1.379 . S
C894 H878 0.931 . S
C894 C888 1.383 . S
C894 C893 1.379 . S
H895 C889 0.959 . S
H896 C889 0.961 . S
H897 C889 0.960 . S
H898 C890 0.930 . S
H899 C891 0.929 . S
H900 C908 0.929 . S
H901 C910 0.930 . S
H902 C912 0.930 . S
H903 C915 0.929 . S
H904 C918 0.930 . S
H905 C920 0.960 . S
H906 C920 0.960 . S
H907 C920 0.960 . S
C908 H900 0.929 . S
C908 C909 1.377 . S
C908 C910 1.384 . S
C909 C908 1.377 . S
C909 C915 1.390 1_554 S
C910 H901 0.930 . S
C910 C908 1.384 . S
C910 C911 1.372 . S
C911 C910 1.372 . S
C911 C912 1.400 1_554 S
C911 C916 1.490 . S
C912 H902 0.930 . S
C912 C911 1.400 1_556 S
C912 C915 1.386 . S
H913 C929 0.930 . S
H914 C930 0.931 . S
C915 H903 0.929 . S
C915 C909 1.390 1_556 S
C915 C912 1.386 . S
C916 C911 1.490 . S
C916 C918 1.395 . S
C916 C919 1.403 1_554 S
H917 C923 0.930 . S
C918 H904 0.930 . S
C918 C916 1.395 . S
C918 C921 1.403 . S
C919 C916 1.403 1_556 S
C919 C920 1.524 . S
C919 C923 1.400 . S
C920 H905 0.960 . S
C920 H906 0.960 . S
C920 H907 0.960 . S
C920 C919 1.524 . S
C921 C918 1.403 . S
C921 C922 1.392 . S
C921 C925 1.495 . S
C922 C921 1.392 . S
C922 C923 1.385 1_554 S
C922 C924 1.478 . S
C923 H917 0.930 . S
C923 C919 1.400 . S
C923 C922 1.385 1_556 S
C924 C922 1.478 . S
C924 C926 1.381 . S
C924 C930 1.383 1_554 S
C925 C921 1.495 . S
C925 H931 0.959 . S
C925 H932 0.961 . S
C925 H933 0.960 . S
C926 C924 1.381 . S
C926 C927 1.394 . S
C926 H934 0.930 . S
C927 C926 1.394 . S
C927 C928 1.383 . S
C927 H935 0.929 . S
C928 C927 1.383 . S
C928 C929 1.377 1_554 S
C929 H913 0.930 . S
C929 C928 1.377 1_556 S
C929 C930 1.379 . S
C930 H914 0.931 . S
C930 C924 1.383 1_556 S
C930 C929 1.379 . S
H931 C925 0.959 . S
H932 C925 0.961 . S
H933 C925 0.960 . S
H934 C926 0.930 . S
H935 C927 0.929 . S
H936 C944 0.929 . S
H937 C946 0.930 . S
H938 C948 0.930 . S
H939 C951 0.929 . S
H940 C954 0.930 . S
H941 C956 0.960 . S
H942 C956 0.960 . S
H943 C956 0.960 . S
C944 H936 0.929 . S
C944 C945 1.377 . S
C944 C946 1.384 . S
C945 C944 1.377 . S
C945 C951 1.390 . S
C946 H937 0.930 . S
C946 C944 1.384 . S
C946 C947 1.372 . S
C947 C946 1.372 . S
C947 C948 1.400 . S
C947 C952 1.490 . S
C948 H938 0.930 . S
C948 C947 1.400 . S
C948 C951 1.386 . S
H949 C965 0.930 . S
H950 C966 0.931 . S
C951 H939 0.929 . S
C951 C945 1.390 . S
C951 C948 1.386 . S
C952 C947 1.490 . S
C952 C954 1.395 1_565 S
C952 C955 1.403 . S
H953 C959 0.930 . S
C954 H940 0.930 . S
C954 C952 1.395 1_545 S
C954 C957 1.403 . S
C955 C952 1.403 . S
C955 C956 1.524 . S
C955 C959 1.400 . S
C956 H941 0.960 . S
C956 H942 0.960 . S
C956 H943 0.960 . S
C956 C955 1.524 . S
C957 C954 1.403 . S
C957 C958 1.392 . S
C957 C961 1.495 . S
C958 C957 1.392 . S
C958 C959 1.385 1_545 S
C958 C960 1.478 . S
C959 H953 0.930 . S
C959 C955 1.400 . S
C959 C958 1.385 1_565 S
C960 C958 1.478 . S
C960 C962 1.381 . S
C960 C966 1.383 . S
C961 C957 1.495 . S
C961 H967 0.959 . S
C961 H968 0.961 . S
C961 H969 0.960 . S
C962 C960 1.381 . S
C962 C963 1.394 . S
C962 H970 0.930 . S
C963 C962 1.394 . S
C963 C964 1.383 . S
C963 H971 0.929 . S
C964 C963 1.383 . S
C964 C965 1.377 . S
C965 H949 0.930 . S
C965 C964 1.377 . S
C965 C966 1.379 . S
C966 H950 0.931 . S
C966 C960 1.383 . S
C966 C965 1.379 . S
H967 C961 0.959 . S
H968 C961 0.961 . S
H969 C961 0.960 . S
H970 C962 0.930 . S
H971 C963 0.929 . S
H972 C980 0.929 . S
H973 C982 0.930 . S
H974 C984 0.930 . S
H975 C987 0.929 . S
H976 C990 0.930 . S
H977 C992 0.960 . S
H978 C992 0.960 . S
H979 C992 0.960 . S
C980 H972 0.929 . S
C980 C981 1.377 . S
C980 C982 1.384 . S
C981 C980 1.377 . S
C981 C987 1.390 . S
C982 H973 0.930 . S
C982 C980 1.384 . S
C982 C983 1.372 . S
C983 C982 1.372 . S
C983 C984 1.400 . S
C983 C988 1.490 . S
C984 H974 0.930 . S
C984 C983 1.400 . S
C984 C987 1.386 . S
H985 C1001 0.930 . S
H986 C1002 0.931 . S
C987 H975 0.929 . S
C987 C981 1.390 . S
C987 C984 1.386 . S
C988 C983 1.490 . S
C988 C990 1.395 . S
C988 C991 1.403 . S
H989 C995 0.930 . S
C990 H976 0.930 . S
C990 C988 1.395 . S
C990 C993 1.403 . S
C991 C988 1.403 . S
C991 C992 1.524 . S
C991 C995 1.400 . S
C992 H977 0.960 . S
C992 H978 0.960 . S
C992 H979 0.960 . S
C992 C991 1.524 . S
C993 C990 1.403 . S
C993 C994 1.392 . S
C993 C997 1.495 . S
C994 C993 1.392 . S
C994 C995 1.385 . S
C994 C996 1.478 . S
C995 H989 0.930 . S
C995 C991 1.400 . S
C995 C994 1.385 . S
C996 C994 1.478 . S
C996 C998 1.381 . S
C996 C1002 1.383 . S
C997 C993 1.495 . S
C997 H1003 0.959 . S
C997 H1004 0.961 . S
C997 H1005 0.960 . S
C998 C996 1.381 . S
C998 C999 1.394 . S
C998 H1006 0.930 . S
C999 C998 1.394 . S
C999 C1000 1.383 . S
C999 H1007 0.929 . S
C1000 C999 1.383 . S
C1000 C1001 1.377 . S
C1001 H985 0.930 . S
C1001 C1000 1.377 . S
C1001 C1002 1.379 . S
C1002 H986 0.931 . S
C1002 C996 1.383 . S
C1002 C1001 1.379 . S
H1003 C997 0.959 . S
H1004 C997 0.961 . S
H1005 C997 0.960 . S
H1006 C998 0.930 . S
H1007 C999 0.929 . S
H1008 C1016 0.929 . S
H1009 C1018 0.930 . S
H1010 C1020 0.930 . S
H1011 C1023 0.929 . S
H1012 C1026 0.930 . S
H1013 C1028 0.960 . S
H1014 C1028 0.960 . S
H1015 C1028 0.960 . S
C1016 H1008 0.929 . S
C1016 C1017 1.377 . S
C1016 C1018 1.384 . S
C1017 C1016 1.377 . S
C1017 C1023 1.390 1_556 S
C1018 H1009 0.930 . S
C1018 C1016 1.384 . S
C1018 C1019 1.372 . S
C1019 C1018 1.372 . S
C1019 C1020 1.400 1_556 S
C1019 C1024 1.490 . S
C1020 H1010 0.930 . S
C1020 C1019 1.400 1_554 S
C1020 C1023 1.386 . S
H1021 C1037 0.930 1_554 S
H1022 C1038 0.925 1_554 S
C1023 H1011 0.929 . S
C1023 C1017 1.390 1_554 S
C1023 C1020 1.386 . S
C1024 C1019 1.490 . S
C1024 C1026 1.395 . S
C1024 C1027 1.403 1_556 S
H1025 C1031 0.930 . S
C1026 H1012 0.930 . S
C1026 C1024 1.395 . S
C1026 C1029 1.403 1_655 S
C1027 C1024 1.403 1_554 S
C1027 C1028 1.524 . S
C1027 C1031 1.400 1_655 S
C1028 H1013 0.960 . S
C1028 H1014 0.960 . S
C1028 H1015 0.960 . S
C1028 C1027 1.524 . S
C1029 C1026 1.403 1_455 S
C1029 C1030 1.392 . S
C1029 C1033 1.495 . S
C1030 C1029 1.392 . S
C1030 C1031 1.385 1_556 S
C1030 C1032 1.478 . S
C1031 H1025 0.930 . S
C1031 C1027 1.400 1_455 S
C1031 C1030 1.385 1_554 S
C1032 C1030 1.478 . S
C1032 C1034 1.381 . S
C1032 C1038 1.383 . S
C1033 C1029 1.495 . S
C1033 H1039 0.959 . S
C1033 H1040 0.961 . S
C1033 H1041 0.960 . S
C1034 C1032 1.381 . S
C1034 C1035 1.394 . S
C1034 H1042 0.930 . S
C1035 C1034 1.394 . S
C1035 C1036 1.383 . S
C1035 H1043 0.929 . S
C1036 C1035 1.383 . S
C1036 C1037 1.377 . S
C1037 H1021 0.930 1_556 S
C1037 C1036 1.377 . S
C1037 C1038 1.379 . S
C1038 H1022 0.925 1_556 S
C1038 C1032 1.383 . S
C1038 C1037 1.379 . S
H1039 C1033 0.959 . S
H1040 C1033 0.961 . S
H1041 C1033 0.960 . S
H1042 C1034 0.930 . S
H1043 C1035 0.929 . S
H1044 C1052 0.929 . S
H1045 C1054 0.930 . S
H1046 C1056 0.930 . S
H1047 C1059 0.929 . S
H1048 C1062 0.930 . S
H1049 C1064 0.960 . S
H1050 C1064 0.960 . S
H1051 C1064 0.960 . S
C1052 H1044 0.929 . S
C1052 C1053 1.377 . S
C1052 C1054 1.384 . S
C1053 C1052 1.377 . S
C1053 C1059 1.390 . S
C1054 H1045 0.930 . S
C1054 C1052 1.384 . S
C1054 C1055 1.372 . S
C1055 C1054 1.372 . S
C1055 C1056 1.400 . S
C1055 C1060 1.490 . S
C1056 H1046 0.930 . S
C1056 C1055 1.400 . S
C1056 C1059 1.386 . S
H1057 C1073 0.930 . S
H1058 C1074 0.931 . S
C1059 H1047 0.929 . S
C1059 C1053 1.390 . S
C1059 C1056 1.386 . S
C1060 C1055 1.490 . S
C1060 C1062 1.395 . S
C1060 C1063 1.403 . S
H1061 C1067 0.930 . S
C1062 H1048 0.930 . S
C1062 C1060 1.395 . S
C1062 C1065 1.403 . S
C1063 C1060 1.403 . S
C1063 C1064 1.524 . S
C1063 C1067 1.400 . S
C1064 H1049 0.960 . S
C1064 H1050 0.960 . S
C1064 H1051 0.960 . S
C1064 C1063 1.524 . S
C1065 C1062 1.403 . S
C1065 C1066 1.392 . S
C1065 C1069 1.495 . S
C1066 C1065 1.392 . S
C1066 C1067 1.385 . S
C1066 C1068 1.478 . S
C1067 H1061 0.930 . S
C1067 C1063 1.400 . S
C1067 C1066 1.385 . S
C1068 C1066 1.478 . S
C1068 C1070 1.381 . S
C1068 C1074 1.383 . S
C1069 C1065 1.495 . S
C1069 H1075 0.959 . S
C1069 H1076 0.961 . S
C1069 H1077 0.960 . S
C1070 C1068 1.381 . S
C1070 C1071 1.394 . S
C1070 H1078 0.930 . S
C1071 C1070 1.394 . S
C1071 C1072 1.383 . S
C1071 H1079 0.929 . S
C1072 C1071 1.383 . S
C1072 C1073 1.377 . S
C1073 H1057 0.930 . S
C1073 C1072 1.377 . S
C1073 C1074 1.379 . S
C1074 H1058 0.931 . S
C1074 C1068 1.383 . S
C1074 C1073 1.379 . S
H1075 C1069 0.959 . S
H1076 C1069 0.961 . S
H1077 C1069 0.960 . S
H1078 C1070 0.930 . S
H1079 C1071 0.929 . S
H1080 C1088 0.929 . S
H1081 C1090 0.930 . S
H1082 C1092 0.930 . S
H1083 C1095 0.929 . S
H1084 C1098 0.930 . S
H1085 C1100 0.960 . S
H1086 C1100 0.960 . S
H1087 C1100 0.960 . S
C1088 H1080 0.929 . S
C1088 C1089 1.377 . S
C1088 C1090 1.384 . S
C1089 C1088 1.377 . S
C1089 C1095 1.390 . S
C1090 H1081 0.930 . S
C1090 C1088 1.384 . S
C1090 C1091 1.372 . S
C1091 C1090 1.372 . S
C1091 C1092 1.400 . S
C1091 C1096 1.490 . S
C1092 H1082 0.930 . S
C1092 C1091 1.400 . S
C1092 C1095 1.386 . S
H1093 C1109 0.930 . S
H1094 C1110 0.931 . S
C1095 H1083 0.929 . S
C1095 C1089 1.390 . S
C1095 C1092 1.386 . S
C1096 C1091 1.490 . S
C1096 C1098 1.395 . S
C1096 C1099 1.403 . S
H1097 C1103 0.930 . S
C1098 H1084 0.930 . S
C1098 C1096 1.395 . S
C1098 C1101 1.403 1_655 S
C1099 C1096 1.403 . S
C1099 C1100 1.524 . S
C1099 C1103 1.400 1_655 S
C1100 H1085 0.960 . S
C1100 H1086 0.960 . S
C1100 H1087 0.960 . S
C1100 C1099 1.524 . S
C1101 C1098 1.403 1_455 S
C1101 C1102 1.392 . S
C1101 C1105 1.495 . S
C1102 C1101 1.392 . S
C1102 C1103 1.385 . S
C1102 C1104 1.478 . S
C1103 H1097 0.930 . S
C1103 C1099 1.400 1_455 S
C1103 C1102 1.385 . S
C1104 C1102 1.478 . S
C1104 C1106 1.381 . S
C1104 C1110 1.383 . S
C1105 C1101 1.495 . S
C1105 H1111 0.959 . S
C1105 H1112 0.961 . S
C1105 H1113 0.960 . S
C1106 C1104 1.381 . S
C1106 C1107 1.394 . S
C1106 H1114 0.930 . S
C1107 C1106 1.394 . S
C1107 C1108 1.383 . S
C1107 H1115 0.929 . S
C1108 C1107 1.383 . S
C1108 C1109 1.377 . S
C1109 H1093 0.930 . S
C1109 C1108 1.377 . S
C1109 C1110 1.379 . S
C1110 H1094 0.931 . S
C1110 C1104 1.383 . S
C1110 C1109 1.379 . S
H1111 C1105 0.959 . S
H1112 C1105 0.961 . S
H1113 C1105 0.960 . S
H1114 C1106 0.930 . S
H1115 C1107 0.929 . S
H1116 C1124 0.929 . S
H1117 C1126 0.930 . S
H1118 C1128 0.930 . S
H1119 C1131 0.929 . S
H1120 C1134 0.930 . S
H1121 C1136 0.960 . S
H1122 C1136 0.960 . S
H1123 C1136 0.960 . S
C1124 H1116 0.929 . S
C1124 C1125 1.377 . S
C1124 C1126 1.384 . S
C1125 C1124 1.377 . S
C1125 C1131 1.390 1_554 S
C1126 H1117 0.930 . S
C1126 C1124 1.384 . S
C1126 C1127 1.372 . S
C1127 C1126 1.372 . S
C1127 C1128 1.400 1_554 S
C1127 C1132 1.490 . S
C1128 H1118 0.930 . S
C1128 C1127 1.400 1_556 S
C1128 C1131 1.386 . S
H1129 C1145 0.930 . S
H1130 C1146 0.931 . S
C1131 H1119 0.929 . S
C1131 C1125 1.390 1_556 S
C1131 C1128 1.386 . S
C1132 C1127 1.490 . S
C1132 C1134 1.395 1_554 S
C1132 C1135 1.403 . S
H1133 C1139 0.930 . S
C1134 H1120 0.930 . S
C1134 C1132 1.395 1_556 S
C1134 C1137 1.403 1_545 S
C1135 C1132 1.403 . S
C1135 C1136 1.524 . S
C1135 C1139 1.400 1_545 S
C1136 H1121 0.960 . S
C1136 H1122 0.960 . S
C1136 H1123 0.960 . S
C1136 C1135 1.524 . S
C1137 C1134 1.403 1_565 S
C1137 C1138 1.392 . S
C1137 C1141 1.495 . S
C1138 C1137 1.392 . S
C1138 C1139 1.385 1_556 S
C1138 C1140 1.478 . S
C1139 H1133 0.930 . S
C1139 C1135 1.400 1_565 S
C1139 C1138 1.385 1_554 S
C1140 C1138 1.478 . S
C1140 C1142 1.381 1_556 S
C1140 C1146 1.383 . S
C1141 C1137 1.495 . S
C1141 H1147 0.959 . S
C1141 H1148 0.961 . S
C1141 H1149 0.960 . S
C1142 C1140 1.381 1_554 S
C1142 C1143 1.394 . S
C1142 H1150 0.930 . S
C1143 C1142 1.394 . S
C1143 C1144 1.383 1_554 S
C1143 H1151 0.929 . S
C1144 C1143 1.383 1_556 S
C1144 C1145 1.377 . S
C1145 H1129 0.930 . S
C1145 C1144 1.377 . S
C1145 C1146 1.379 . S
C1146 H1130 0.931 . S
C1146 C1140 1.383 . S
C1146 C1145 1.379 . S
H1147 C1141 0.959 . S
H1148 C1141 0.961 . S
H1149 C1141 0.960 . S
H1150 C1142 0.930 . S
H1151 C1143 0.929 . S
H1152 C1160 0.929 . S
H1153 C1162 0.930 . S
H1154 C1164 0.930 . S
H1155 C1167 0.929 . S
H1156 C1170 0.930 . S
H1157 C1172 0.960 . S
H1158 C1172 0.960 . S
H1159 C1172 0.960 . S
C1160 H1152 0.929 . S
C1160 C1161 1.377 . S
C1160 C1162 1.384 . S
C1161 C1160 1.377 . S
C1161 C1167 1.390 . S
C1162 H1153 0.930 . S
C1162 C1160 1.384 . S
C1162 C1163 1.372 . S
C1163 C1162 1.372 . S
C1163 C1164 1.400 . S
C1163 C1168 1.490 . S
C1164 H1154 0.930 . S
C1164 C1163 1.400 . S
C1164 C1167 1.386 . S
H1165 C1181 0.930 . S
H1166 C1182 0.931 . S
C1167 H1155 0.929 . S
C1167 C1161 1.390 . S
C1167 C1164 1.386 . S
C1168 C1163 1.490 . S
C1168 C1170 1.395 . S
C1168 C1171 1.403 . S
H1169 C1175 0.930 . S
C1170 H1156 0.930 . S
C1170 C1168 1.395 . S
C1170 C1173 1.403 . S
C1171 C1168 1.403 . S
C1171 C1172 1.524 . S
C1171 C1175 1.400 . S
C1172 H1157 0.960 . S
C1172 H1158 0.960 . S
C1172 H1159 0.960 . S
C1172 C1171 1.524 . S
C1173 C1170 1.403 . S
C1173 C1174 1.392 . S
C1173 C1177 1.495 . S
C1174 C1173 1.392 . S
C1174 C1175 1.385 . S
C1174 C1176 1.478 . S
C1175 H1169 0.930 . S
C1175 C1171 1.400 . S
C1175 C1174 1.385 . S
C1176 C1174 1.478 . S
C1176 C1178 1.381 . S
C1176 C1182 1.383 . S
C1177 C1173 1.495 . S
C1177 H1183 0.959 . S
C1177 H1184 0.961 . S
C1177 H1185 0.960 . S
C1178 C1176 1.381 . S
C1178 C1179 1.394 . S
C1178 H1186 0.930 . S
C1179 C1178 1.394 . S
C1179 C1180 1.383 . S
C1179 H1187 0.929 . S
C1180 C1179 1.383 . S
C1180 C1181 1.377 . S
C1181 H1165 0.930 . S
C1181 C1180 1.377 . S
C1181 C1182 1.379 . S
C1182 H1166 0.931 . S
C1182 C1176 1.383 . S
C1182 C1181 1.379 . S
H1183 C1177 0.959 . S
H1184 C1177 0.961 . S
H1185 C1177 0.960 . S
H1186 C1178 0.930 . S
H1187 C1179 0.929 . S
H1188 C1196 0.929 . S
H1189 C1198 0.930 . S
H1190 C1200 0.930 . S
H1191 C1203 0.929 . S
H1192 C1206 0.930 . S
H1193 C1208 0.960 . S
H1194 C1208 0.960 . S
H1195 C1208 0.960 . S
C1196 H1188 0.929 . S
C1196 C1197 1.377 . S
C1196 C1198 1.384 . S
C1197 C1196 1.377 . S
C1197 C1203 1.390 . S
C1198 H1189 0.930 . S
C1198 C1196 1.384 . S
C1198 C1199 1.372 . S
C1199 C1198 1.372 . S
C1199 C1200 1.400 . S
C1199 C1204 1.490 . S
C1200 H1190 0.930 . S
C1200 C1199 1.400 . S
C1200 C1203 1.386 . S
H1201 C1217 0.930 . S
H1202 C1218 0.931 . S
C1203 H1191 0.929 . S
C1203 C1197 1.390 . S
C1203 C1200 1.386 . S
C1204 C1199 1.490 . S
C1204 C1206 1.395 . S
C1204 C1207 1.403 . S
H1205 C1211 0.930 . S
C1206 H1192 0.930 . S
C1206 C1204 1.395 . S
C1206 C1209 1.403 1_455 S
C1207 C1204 1.403 . S
C1207 C1208 1.524 . S
C1207 C1211 1.400 1_455 S
C1208 H1193 0.960 . S
C1208 H1194 0.960 . S
C1208 H1195 0.960 . S
C1208 C1207 1.524 . S
C1209 C1206 1.403 1_655 S
C1209 C1210 1.392 . S
C1209 C1213 1.495 . S
C1210 C1209 1.392 . S
C1210 C1211 1.385 . S
C1210 C1212 1.478 . S
C1211 H1205 0.930 . S
C1211 C1207 1.400 1_655 S
C1211 C1210 1.385 . S
C1212 C1210 1.478 . S
C1212 C1214 1.381 . S
C1212 C1218 1.383 . S
C1213 C1209 1.495 . S
C1213 H1219 0.959 . S
C1213 H1220 0.961 . S
C1213 H1221 0.960 . S
C1214 C1212 1.381 . S
C1214 C1215 1.394 . S
C1214 H1222 0.930 . S
C1215 C1214 1.394 . S
C1215 C1216 1.383 . S
C1215 H1223 0.929 . S
C1216 C1215 1.383 . S
C1216 C1217 1.377 . S
C1217 H1201 0.930 . S
C1217 C1216 1.377 . S
C1217 C1218 1.379 . S
C1218 H1202 0.931 . S
C1218 C1212 1.383 . S
C1218 C1217 1.379 . S
H1219 C1213 0.959 . S
H1220 C1213 0.961 . S
H1221 C1213 0.960 . S
H1222 C1214 0.930 . S
H1223 C1215 0.929 . S
H1224 C1232 0.929 . S
H1225 C1234 0.930 . S
H1226 C1236 0.930 . S
H1227 C1239 0.929 . S
H1228 C1242 0.930 . S
H1229 C1244 0.960 . S
H1230 C1244 0.960 . S
H1231 C1244 0.960 . S
C1232 H1224 0.929 . S
C1232 C1233 1.374 1_554 S
C1232 C1234 1.384 . S
C1233 C1232 1.374 1_556 S
C1233 C1239 1.393 . S
C1234 H1225 0.930 . S
C1234 C1232 1.384 . S
C1234 C1235 1.371 1_554 S
C1235 C1234 1.371 1_556 S
C1235 C1236 1.400 . S
C1235 C1240 1.490 . S
C1236 H1226 0.930 . S
C1236 C1235 1.400 . S
C1236 C1239 1.386 . S
H1237 C1253 0.930 . S
H1238 C1254 0.931 . S
C1239 H1227 0.929 . S
C1239 C1233 1.393 . S
C1239 C1236 1.386 . S
C1240 C1235 1.490 . S
C1240 C1242 1.418 . S
C1240 C1243 1.381 1_556 S
H1241 C1247 0.930 . S
C1242 H1228 0.930 . S
C1242 C1240 1.418 . S
C1242 C1245 1.403 1_545 S
C1243 C1240 1.381 1_554 S
C1243 C1244 1.524 . S
C1243 C1247 1.400 1_545 S
C1244 H1229 0.960 . S
C1244 H1230 0.960 . S
C1244 H1231 0.960 . S
C1244 C1243 1.524 . S
C1245 C1242 1.403 1_565 S
C1245 C1246 1.392 . S
C1245 C1249 1.495 . S
C1246 C1245 1.392 . S
C1246 C1247 1.385 1_556 S
C1246 C1248 1.478 . S
C1247 H1241 0.930 . S
C1247 C1243 1.400 1_565 S
C1247 C1246 1.385 1_554 S
C1248 C1246 1.478 . S
C1248 C1250 1.381 1_556 S
C1248 C1254 1.383 . S
C1249 C1245 1.495 . S
C1249 H1255 0.959 . S
C1249 H1256 0.961 . S
C1249 H1257 0.960 . S
C1250 C1248 1.381 1_554 S
C1250 C1251 1.394 . S
C1250 H1258 0.930 . S
C1251 C1250 1.394 . S
C1251 C1252 1.379 1_554 S
C1251 H1259 0.929 . S
C1252 C1251 1.379 1_556 S
C1252 C1253 1.384 . S
C1253 H1237 0.930 . S
C1253 C1252 1.384 . S
C1253 C1254 1.379 . S
C1254 H1238 0.931 . S
C1254 C1248 1.383 . S
C1254 C1253 1.379 . S
H1255 C1249 0.959 . S
H1256 C1249 0.961 . S
H1257 C1249 0.960 . S
H1258 C1250 0.930 . S
H1259 C1251 0.929 . S
H1260 C1268 0.929 . S
H1261 C1270 0.930 . S
H1262 C1272 0.930 . S
H1263 C1275 0.929 . S
H1264 C1278 0.930 . S
H1265 C1280 0.960 . S
H1266 C1280 0.960 . S
H1267 C1280 0.960 . S
C1268 H1260 0.929 . S
C1268 C1269 1.377 . S
C1268 C1270 1.384 . S
C1269 C1268 1.377 . S
C1269 C1275 1.390 . S
C1270 H1261 0.930 . S
C1270 C1268 1.384 . S
C1270 C1271 1.372 . S
C1271 C1270 1.372 . S
C1271 C1272 1.400 . S
C1271 C1276 1.490 . S
C1272 H1262 0.930 . S
C1272 C1271 1.400 . S
C1272 C1275 1.386 . S
H1273 C1289 0.930 . S
H1274 C1290 0.931 . S
C1275 H1263 0.929 . S
C1275 C1269 1.390 . S
C1275 C1272 1.386 . S
C1276 C1271 1.490 . S
C1276 C1278 1.395 . S
C1276 C1279 1.403 . S
H1277 C1283 0.930 . S
C1278 H1264 0.930 . S
C1278 C1276 1.395 . S
C1278 C1281 1.403 . S
C1279 C1276 1.403 . S
C1279 C1280 1.524 . S
C1279 C1283 1.400 . S
C1280 H1265 0.960 . S
C1280 H1266 0.960 . S
C1280 H1267 0.960 . S
C1280 C1279 1.524 . S
C1281 C1278 1.403 . S
C1281 C1282 1.392 . S
C1281 C1285 1.495 . S
C1282 C1281 1.392 . S
C1282 C1283 1.385 . S
C1282 C1284 1.478 . S
C1283 H1277 0.930 . S
C1283 C1279 1.400 . S
C1283 C1282 1.385 . S
C1284 C1282 1.478 . S
C1284 C1286 1.381 . S
C1284 C1290 1.383 . S
C1285 C1281 1.495 . S
C1285 H1291 0.959 . S
C1285 H1292 0.961 . S
C1285 H1293 0.960 . S
C1286 C1284 1.381 . S
C1286 C1287 1.394 . S
C1286 H1294 0.930 . S
C1287 C1286 1.394 . S
C1287 C1288 1.383 . S
C1287 H1295 0.929 . S
C1288 C1287 1.383 . S
C1288 C1289 1.377 . S
C1289 H1273 0.930 . S
C1289 C1288 1.377 . S
C1289 C1290 1.379 . S
C1290 H1274 0.931 . S
C1290 C1284 1.383 . S
C1290 C1289 1.379 . S
H1291 C1285 0.959 . S
H1292 C1285 0.961 . S
H1293 C1285 0.960 . S
H1294 C1286 0.930 . S
H1295 C1287 0.929 . S
H1296 C1304 0.929 . S
H1297 C1306 0.930 . S
H1298 C1308 0.930 . S
H1299 C1311 0.929 . S
H1300 C1314 0.930 . S
H1301 C1316 0.960 . S
H1302 C1316 0.960 . S
H1303 C1316 0.960 . S
C1304 H1296 0.929 . S
C1304 C1305 1.377 . S
C1304 C1306 1.384 . S
C1305 C1304 1.377 . S
C1305 C1311 1.390 . S
C1306 H1297 0.930 . S
C1306 C1304 1.384 . S
C1306 C1307 1.372 . S
C1307 C1306 1.372 . S
C1307 C1308 1.400 . S
C1307 C1312 1.490 . S
C1308 H1298 0.930 . S
C1308 C1307 1.400 . S
C1308 C1311 1.386 . S
H1309 C1325 0.930 . S
H1310 C1326 0.931 . S
C1311 H1299 0.929 . S
C1311 C1305 1.390 . S
C1311 C1308 1.386 . S
C1312 C1307 1.490 . S
C1312 C1314 1.395 . S
C1312 C1315 1.403 . S
H1313 C1319 0.930 . S
C1314 H1300 0.930 . S
C1314 C1312 1.395 . S
C1314 C1317 1.403 . S
C1315 C1312 1.403 . S
C1315 C1316 1.524 . S
C1315 C1319 1.400 . S
C1316 H1301 0.960 . S
C1316 H1302 0.960 . S
C1316 H1303 0.960 . S
C1316 C1315 1.524 . S
C1317 C1314 1.403 . S
C1317 C1318 1.392 . S
C1317 C1321 1.495 . S
C1318 C1317 1.392 . S
C1318 C1319 1.385 . S
C1318 C1320 1.478 . S
C1319 H1313 0.930 . S
C1319 C1315 1.400 . S
C1319 C1318 1.385 . S
C1320 C1318 1.478 . S
C1320 C1322 1.381 . S
C1320 C1326 1.383 . S
C1321 C1317 1.495 . S
C1321 H1327 0.959 . S
C1321 H1328 0.961 . S
C1321 H1329 0.960 . S
C1322 C1320 1.381 . S
C1322 C1323 1.394 . S
C1322 H1330 0.930 . S
C1323 C1322 1.394 . S
C1323 C1324 1.383 . S
C1323 H1331 0.929 . S
C1324 C1323 1.383 . S
C1324 C1325 1.377 . S
C1325 H1309 0.930 . S
C1325 C1324 1.377 . S
C1325 C1326 1.379 . S
C1326 H1310 0.931 . S
C1326 C1320 1.383 . S
C1326 C1325 1.379 . S
H1327 C1321 0.959 . S
H1328 C1321 0.961 . S
H1329 C1321 0.960 . S
H1330 C1322 0.930 . S
H1331 C1323 0.929 . S
H1332 C1340 0.929 . S
H1333 C1342 0.930 . S
H1334 C1344 0.930 . S
H1335 C1347 0.929 1_554 S
H1336 C1350 0.930 . S
H1337 C1352 0.960 . S
H1338 C1352 0.960 . S
H1339 C1352 0.960 . S
C1340 H1332 0.929 . S
C1340 C1341 1.377 . S
C1340 C1342 1.384 . S
C1341 C1340 1.377 . S
C1341 C1347 1.390 . S
C1342 H1333 0.930 . S
C1342 C1340 1.384 . S
C1342 C1343 1.372 . S
C1343 C1342 1.372 . S
C1343 C1344 1.400 1_556 S
C1343 C1348 1.490 . S
C1344 H1334 0.930 . S
C1344 C1343 1.400 1_554 S
C1344 C1347 1.386 1_554 S
H1345 C1361 0.930 . S
H1346 C1362 0.931 . S
C1347 H1335 0.929 1_556 S
C1347 C1341 1.390 . S
C1347 C1344 1.386 1_556 S
C1348 C1343 1.490 . S
C1348 C1350 1.395 . S
C1348 C1351 1.403 1_556 S
H1349 C1355 0.930 . S
C1350 H1336 0.930 . S
C1350 C1348 1.395 . S
C1350 C1353 1.403 . S
C1351 C1348 1.403 1_554 S
C1351 C1352 1.524 . S
C1351 C1355 1.400 . S
C1352 H1337 0.960 . S
C1352 H1338 0.960 . S
C1352 H1339 0.960 . S
C1352 C1351 1.524 . S
C1353 C1350 1.403 . S
C1353 C1354 1.392 . S
C1353 C1357 1.495 . S
C1354 C1353 1.392 . S
C1354 C1355 1.385 1_556 S
C1354 C1356 1.478 1_556 S
C1355 H1349 0.930 . S
C1355 C1351 1.400 . S
C1355 C1354 1.385 1_554 S
C1356 C1354 1.478 1_554 S
C1356 C1358 1.381 1_554 S
C1356 C1362 1.383 . S
C1357 C1353 1.495 . S
C1357 H1363 0.959 . S
C1357 H1364 0.961 . S
C1357 H1365 0.960 . S
C1358 C1356 1.381 1_556 S
C1358 C1359 1.386 1_556 S
C1358 H1366 0.930 . S
C1359 C1358 1.386 1_554 S
C1359 C1360 1.406 . S
C1359 H1367 0.917 1_554 S
C1360 C1359 1.406 . S
C1360 C1361 1.377 . S
C1361 H1345 0.930 . S
C1361 C1360 1.377 . S
C1361 C1362 1.379 . S
C1362 H1346 0.931 . S
C1362 C1356 1.383 . S
C1362 C1361 1.379 . S
H1363 C1357 0.959 . S
H1364 C1357 0.961 . S
H1365 C1357 0.960 . S
H1366 C1358 0.930 . S
H1367 C1359 0.917 1_556 S
H1368 C1376 0.929 . S
H1369 C1378 0.930 . S
H1370 C1380 0.930 . S
H1371 C1383 0.929 . S
H1372 C1386 0.930 . S
H1373 C1388 0.960 . S
H1374 C1388 0.960 . S
H1375 C1388 0.960 . S
C1376 H1368 0.929 . S
C1376 C1377 1.377 . S
C1376 C1378 1.384 . S
C1377 C1376 1.377 . S
C1377 C1383 1.390 . S
C1378 H1369 0.930 . S
C1378 C1376 1.384 . S
C1378 C1379 1.372 . S
C1379 C1378 1.372 . S
C1379 C1380 1.400 . S
C1379 C1384 1.490 . S
C1380 H1370 0.930 . S
C1380 C1379 1.400 . S
C1380 C1383 1.386 . S
H1381 C1397 0.930 . S
H1382 C1398 0.931 . S
C1383 H1371 0.929 . S
C1383 C1377 1.390 . S
C1383 C1380 1.386 . S
C1384 C1379 1.490 . S
C1384 C1386 1.395 . S
C1384 C1387 1.403 . S
H1385 C1391 0.930 . S
C1386 H1372 0.930 . S
C1386 C1384 1.395 . S
C1386 C1389 1.403 . S
C1387 C1384 1.403 . S
C1387 C1388 1.524 . S
C1387 C1391 1.400 . S
C1388 H1373 0.960 . S
C1388 H1374 0.960 . S
C1388 H1375 0.960 . S
C1388 C1387 1.524 . S
C1389 C1386 1.403 . S
C1389 C1390 1.392 . S
C1389 C1393 1.495 . S
C1390 C1389 1.392 . S
C1390 C1391 1.385 . S
C1390 C1392 1.478 . S
C1391 H1385 0.930 . S
C1391 C1387 1.400 . S
C1391 C1390 1.385 . S
C1392 C1390 1.478 . S
C1392 C1394 1.381 . S
C1392 C1398 1.383 . S
C1393 C1389 1.495 . S
C1393 H1399 0.959 . S
C1393 H1400 0.961 . S
C1393 H1401 0.960 . S
C1394 C1392 1.381 . S
C1394 C1395 1.394 . S
C1394 H1402 0.930 . S
C1395 C1394 1.394 . S
C1395 C1396 1.383 . S
C1395 H1403 0.929 . S
C1396 C1395 1.383 . S
C1396 C1397 1.377 . S
C1397 H1381 0.930 . S
C1397 C1396 1.377 . S
C1397 C1398 1.379 . S
C1398 H1382 0.931 . S
C1398 C1392 1.383 . S
C1398 C1397 1.379 . S
H1399 C1393 0.959 . S
H1400 C1393 0.961 . S
H1401 C1393 0.960 . S
H1402 C1394 0.930 . S
H1403 C1395 0.929 . S
H1404 C1412 0.929 . S
H1405 C1414 0.930 . S
H1406 C1416 0.930 . S
H1407 C1419 0.929 . S
H1408 C1422 0.930 . S
H1409 C1424 0.960 . S
H1410 C1424 0.960 . S
H1411 C1424 0.960 . S
C1412 H1404 0.929 . S
C1412 C1413 1.377 . S
C1412 C1414 1.384 . S
C1413 C1412 1.377 . S
C1413 C1419 1.390 . S
C1414 H1405 0.930 . S
C1414 C1412 1.384 . S
C1414 C1415 1.372 . S
C1415 C1414 1.372 . S
C1415 C1416 1.400 . S
C1415 C1420 1.490 . S
C1416 H1406 0.930 . S
C1416 C1415 1.400 . S
C1416 C1419 1.386 . S
H1417 C1433 0.930 . S
H1418 C1434 0.931 . S
C1419 H1407 0.929 . S
C1419 C1413 1.390 . S
C1419 C1416 1.386 . S
C1420 C1415 1.490 . S
C1420 C1422 1.395 . S
C1420 C1423 1.403 . S
H1421 C1427 0.930 . S
C1422 H1408 0.930 . S
C1422 C1420 1.395 . S
C1422 C1425 1.403 . S
C1423 C1420 1.403 . S
C1423 C1424 1.524 . S
C1423 C1427 1.400 . S
C1424 H1409 0.960 . S
C1424 H1410 0.960 . S
C1424 H1411 0.960 . S
C1424 C1423 1.524 . S
C1425 C1422 1.403 . S
C1425 C1426 1.392 . S
C1425 C1429 1.495 . S
C1426 C1425 1.392 . S
C1426 C1427 1.385 . S
C1426 C1428 1.478 . S
C1427 H1421 0.930 . S
C1427 C1423 1.400 . S
C1427 C1426 1.385 . S
C1428 C1426 1.478 . S
C1428 C1430 1.381 . S
C1428 C1434 1.383 . S
C1429 C1425 1.495 . S
C1429 H1435 0.959 . S
C1429 H1436 0.961 . S
C1429 H1437 0.960 . S
C1430 C1428 1.381 . S
C1430 C1431 1.394 . S
C1430 H1438 0.930 . S
C1431 C1430 1.394 . S
C1431 C1432 1.383 . S
C1431 H1439 0.929 . S
C1432 C1431 1.383 . S
C1432 C1433 1.377 . S
C1433 H1417 0.930 . S
C1433 C1432 1.377 . S
C1433 C1434 1.379 . S
C1434 H1418 0.931 . S
C1434 C1428 1.383 . S
C1434 C1433 1.379 . S
H1435 C1429 0.959 . S
H1436 C1429 0.961 . S
H1437 C1429 0.960 . S
H1438 C1430 0.930 . S
H1439 C1431 0.929 . S
H1440 C1448 0.929 . S
H1441 C1450 0.930 . S
H1442 C1452 0.930 . S
H1443 C1455 0.929 . S
H1444 C1458 0.930 . S
H1445 C1460 0.960 . S
H1446 C1460 0.960 . S
H1447 C1460 0.960 . S
C1448 H1440 0.929 . S
C1448 C1449 1.377 . S
C1448 C1450 1.384 . S
C1449 C1448 1.377 . S
C1449 C1455 1.390 1_556 S
C1450 H1441 0.930 . S
C1450 C1448 1.384 . S
C1450 C1451 1.372 . S
C1451 C1450 1.372 . S
C1451 C1452 1.400 1_556 S
C1451 C1456 1.490 . S
C1452 H1442 0.930 . S
C1452 C1451 1.400 1_554 S
C1452 C1455 1.386 . S
H1453 C1469 0.930 . S
H1454 C1470 0.931 . S
C1455 H1443 0.929 . S
C1455 C1449 1.390 1_554 S
C1455 C1452 1.386 . S
C1456 C1451 1.490 . S
C1456 C1458 1.395 . S
C1456 C1459 1.403 1_556 S
H1457 C1463 0.930 . S
C1458 H1444 0.930 . S
C1458 C1456 1.395 . S
C1458 C1461 1.403 . S
C1459 C1456 1.403 1_554 S
C1459 C1460 1.524 . S
C1459 C1463 1.400 . S
C1460 H1445 0.960 . S
C1460 H1446 0.960 . S
C1460 H1447 0.960 . S
C1460 C1459 1.524 . S
C1461 C1458 1.403 . S
C1461 C1462 1.374 1_556 S
C1461 C1465 1.495 . S
C1462 C1461 1.374 1_554 S
C1462 C1463 1.399 . S
C1462 C1464 1.484 . S
C1463 H1457 0.930 . S
C1463 C1459 1.400 . S
C1463 C1462 1.399 . S
C1464 C1462 1.484 . S
C1464 C1466 1.381 1_554 S
C1464 C1470 1.383 . S
C1465 C1461 1.495 . S
C1465 H1471 0.959 . S
C1465 H1472 0.961 . S
C1465 H1473 0.960 . S
C1466 C1464 1.381 1_556 S
C1466 C1467 1.394 . S
C1466 H1474 0.930 . S
C1467 C1466 1.394 . S
C1467 C1468 1.383 1_556 S
C1467 H1475 0.929 . S
C1468 C1467 1.383 1_554 S
C1468 C1469 1.377 . S
C1469 H1453 0.930 . S
C1469 C1468 1.377 . S
C1469 C1470 1.379 . S
C1470 H1454 0.931 . S
C1470 C1464 1.383 . S
C1470 C1469 1.379 . S
H1471 C1465 0.959 . S
H1472 C1465 0.961 . S
H1473 C1465 0.960 . S
H1474 C1466 0.930 . S
H1475 C1467 0.929 . S
C405 C391 1.782 . S
C424 C28 1.775 . S
C441 C226 1.884 . S
C460 C61 1.872 . S
C477 C94 1.780 . S
C496 C259 1.770 . S
C513 C292 1.782 . S
C532 C127 1.770 . S
C549 C325 1.883 . S
C568 C160 1.873 . S
C585 C358 1.782 . S
C604 C193 1.772 . S
C621 C8 0.453 . S
C640 C338 0.481 . S
C657 C41 0.405 . S
C676 C371 0.327 . S
C693 C206 0.410 . S
C712 C74 0.339 . S
C729 C239 0.479 . S
C748 C107 0.555 . S
C765 C272 0.444 . S
C784 C140 0.509 . S
C801 C173 0.444 . S
C820 C305 0.507 . S
C837 N104 1.218 . S
C856 N5 1.213 . S
C873 N38 1.227 . S
C892 N137 1.235 . S
C909 N170 1.222 . S
C928 N71 1.202 . S
C945 N203 1.227 . S
C964 N302 1.233 . S
C981 N236 1.211 . S
C1000 N335 1.225 . S
C1017 N368 1.226 . S
C1036 N269 1.202 . S
C1053 N14 0.900 . S
C1072 N311 0.915 . S
C1089 N47 0.906 . S
C1108 N344 0.927 . S
C1125 N377 0.866 . S
C1144 N80 0.851 . S
C1161 N113 0.906 . S
C1180 N212 0.930 . S
C1197 N146 0.900 . S
C1216 N245 0.917 . S
C1233 N179 0.891 . S
C1252 N278 0.893 1_556 S
C1269 C215 1.803 . S
C1288 C17 1.808 . S
C1305 C248 1.808 . S
C1324 C50 1.797 . S
C1341 C83 1.792 . S
C1360 C281 1.774 . S
C1377 C314 1.803 . S
C1396 C116 1.795 . S
C1413 C149 1.804 . S
C1432 C347 1.810 . S
C1449 C182 1.795 . S
C1468 C380 1.780 . S
