# Generated by pormake.
# Topology mdf, (4)-cn, num edge types: 1
# Building blocks:
#     Node 0, Type 0, BuildingBlock: UXUYUI_clean_sbu_0, # of connection points: 4
#     Node 1, Type 0, BuildingBlock: UXUYUI_clean_sbu_0, # of connection points: 4
#     Node 2, Type 0, BuildingBlock: UXUYUI_clean_sbu_0, # of connection points: 4
#     Node 3, Type 0, BuildingBlock: UXUYUI_clean_sbu_0, # of connection points: 4
#     Node 4, Type 0, BuildingBlock: UXUYUI_clean_sbu_0, # of connection points: 4
#     Node 5, Type 0, BuildingBlock: UXUYUI_clean_sbu_0, # of connection points: 4
#     Node 6, Type 0, BuildingBlock: UXUYUI_clean_sbu_0, # of connection points: 4
#     Node 7, Type 0, BuildingBlock: UXUYUI_clean_sbu_0, # of connection points: 4
#     Edge 8, Type (0, 0), BuildingBlock: KIFKEQ_clean_linker_1, # of connection points: 2
#     Edge 9, Type (0, 0), BuildingBlock: KIFKEQ_clean_linker_1, # of connection points: 2
#     Edge 10, Type (0, 0), BuildingBlock: KIFKEQ_clean_linker_1, # of connection points: 2
#     Edge 11, Type (0, 0), BuildingBlock: KIFKEQ_clean_linker_1, # of connection points: 2
#     Edge 12, Type (0, 0), BuildingBlock: KIFKEQ_clean_linker_1, # of connection points: 2
#     Edge 13, Type (0, 0), BuildingBlock: KIFKEQ_clean_linker_1, # of connection points: 2
#     Edge 14, Type (0, 0), BuildingBlock: KIFKEQ_clean_linker_1, # of connection points: 2
#     Edge 15, Type (0, 0), BuildingBlock: KIFKEQ_clean_linker_1, # of connection points: 2
#     Edge 16, Type (0, 0), BuildingBlock: KIFKEQ_clean_linker_1, # of connection points: 2
#     Edge 17, Type (0, 0), BuildingBlock: KIFKEQ_clean_linker_1, # of connection points: 2
#     Edge 18, Type (0, 0), BuildingBlock: KIFKEQ_clean_linker_1, # of connection points: 2
#     Edge 19, Type (0, 0), BuildingBlock: KIFKEQ_clean_linker_1, # of connection points: 2
#     Edge 20, Type (0, 0), BuildingBlock: KIFKEQ_clean_linker_1, # of connection points: 2
#     Edge 21, Type (0, 0), BuildingBlock: KIFKEQ_clean_linker_1, # of connection points: 2
#     Edge 22, Type (0, 0), BuildingBlock: KIFKEQ_clean_linker_1, # of connection points: 2
#     Edge 23, Type (0, 0), BuildingBlock: KIFKEQ_clean_linker_1, # of connection points: 2
# Relax obj value: 0.090
# Max RMSD: 0.078
# Mean RMSD: 0.078
data_MOF--net-mdf--node1-UXUYUI_clean_sbu_0--edge1-KIFKEQ_clean_linker_1
_symmetry_space_group_name_H-M    P1
_symmetry_Int_Tables_number       1
_symmetry_cell_setting            triclinic
loop_
_symmetry_equiv_pos_as_xyz
'x, y, z'
_cell_length_a     50.820152
_cell_length_b     50.807304
_cell_length_c     23.091686
_cell_angle_alpha  89.945252
_cell_angle_beta   90.027884
_cell_angle_gamma 90.056079
loop_
_atom_site_label
_atom_site_type_symbol
_atom_site_fract_x
_atom_site_fract_y
_atom_site_fract_z
_atom_type_partial_charge
Li0 Li 0.24378 0.5748 0.43239 0.0
Li1 Li 0.22972 0.54012 0.36118 0.0
Li2 Li 0.27474 0.54047 0.40248 0.0
Li3 Li 0.26205 0.57325 0.32991 0.0
C4 C 0.24486 0.51527 0.47935 0.0
N5 N 0.25573 0.4724 0.5491 0.0
C6 C 0.23398 0.49066 0.46662 0.0
C7 C 0.26105 0.51811 0.52791 0.0
C8 C 0.23975 0.46922 0.50235 0.0
C9 C 0.26639 0.49619 0.56249 0.0
C10 C 0.20054 0.58549 0.33776 0.0
C11 C 0.1685 0.59006 0.26136 0.0
N12 N 0.15029 0.59779 0.301 0.0
C13 C 0.18157 0.59362 0.37772 0.0
C14 C 0.19404 0.58384 0.27907 0.0
C15 C 0.15625 0.5997 0.35828 0.0
C16 C 0.23043 0.6231 0.48781 0.0
N17 N 0.23195 0.59654 0.49419 0.0
C18 C 0.21497 0.59935 0.59045 0.0
C19 C 0.22446 0.58453 0.54414 0.0
C20 C 0.21288 0.62681 0.58514 0.0
C21 C 0.22078 0.63871 0.53295 0.0
H22 H 0.23645 0.63209 0.44744 0.0
H23 H 0.22559 0.56336 0.54781 0.0
C24 C 0.20829 0.49515 0.30825 0.0
N25 N 0.20162 0.51753 0.33689 0.0
C26 C 0.189 0.47697 0.29224 0.0
C27 C 0.15616 0.50526 0.33488 0.0
C28 C 0.17616 0.52271 0.35086 0.0
C29 C 0.16242 0.48184 0.30543 0.0
H30 H 0.22875 0.49106 0.29917 0.0
H31 H 0.17135 0.54016 0.37521 0.0
C32 C 0.30034 0.58992 0.43668 0.0
N33 N 0.34028 0.61224 0.50143 0.0
C34 C 0.3219 0.60155 0.40913 0.0
C35 C 0.299 0.58979 0.49714 0.0
C36 C 0.34193 0.61269 0.44264 0.0
C37 C 0.31942 0.60113 0.5291 0.0
C38 C 0.27093 0.52853 0.2669 0.0
C39 C 0.29625 0.51914 0.25575 0.0
C40 C 0.25326 0.53209 0.22119 0.0
C41 C 0.30361 0.51374 0.19869 0.0
C42 C 0.26136 0.52647 0.16475 0.0
N43 N 0.28617 0.51751 0.15475 0.0
C44 C 0.29877 0.4913 0.41355 0.0
C45 C 0.3256 0.52574 0.44935 0.0
C46 C 0.31792 0.47268 0.4277 0.0
N47 N 0.30276 0.51724 0.42499 0.0
C48 C 0.34543 0.50784 0.46359 0.0
C49 C 0.34176 0.48083 0.45292 0.0
H50 H 0.2806 0.48506 0.39339 0.0
H51 H 0.32873 0.54639 0.45728 0.0
C52 C 0.26115 0.61294 0.24151 0.0
N53 N 0.27543 0.59339 0.26659 0.0
C54 C 0.27169 0.62748 0.19547 0.0
C55 C 0.31128 0.60136 0.20195 0.0
C56 C 0.30012 0.58761 0.24813 0.0
C57 C 0.29715 0.62177 0.17499 0.0
H58 H 0.24169 0.61744 0.25761 0.0
H59 H 0.31123 0.57228 0.2695 0.0
O60 O 0.23979 0.5364 0.4443 0.0
O61 O 0.22549 0.5797 0.35596 0.0
O62 O 0.28049 0.57914 0.40443 0.0
O63 O 0.26346 0.53414 0.32239 0.0
H64 H 0.22131 0.48809 0.42946 0.0
H65 H 0.26966 0.53697 0.53842 0.0
H66 H 0.23154 0.45005 0.49287 0.0
H67 H 0.27906 0.49807 0.59993 0.0
H68 H 0.16317 0.58881 0.21609 0.0
H69 H 0.18628 0.59506 0.4233 0.0
H70 H 0.20858 0.5779 0.24751 0.0
H71 H 0.14133 0.60591 0.38873 0.0
H72 H 0.2087 0.58933 0.62952 0.0
H73 H 0.21959 0.65983 0.5272 0.0
H74 H 0.19504 0.45896 0.27105 0.0
H75 H 0.13602 0.51012 0.34565 0.0
H76 H 0.32318 0.60196 0.36237 0.0
H77 H 0.28244 0.581 0.5192 0.0
H78 H 0.35876 0.62172 0.42192 0.0
H79 H 0.31867 0.60111 0.57592 0.0
H80 H 0.31012 0.51624 0.29077 0.0
H81 H 0.23352 0.53907 0.22926 0.0
H82 H 0.32319 0.50659 0.18933 0.0
H83 H 0.24793 0.52921 0.1289 0.0
H84 H 0.31394 0.4521 0.41928 0.0
H85 H 0.36363 0.5152 0.48182 0.0
H86 H 0.26017 0.64328 0.17689 0.0
H87 H 0.33076 0.59586 0.1874 0.0
Li88 Li 0.43618 0.74469 0.68213 0.0
Li89 Li 0.47033 0.73111 0.6078 0.0
Li90 Li 0.46891 0.77454 0.64535 0.0
Li91 Li 0.43549 0.76259 0.57752 0.0
C92 C 0.49545 0.74877 0.72388 0.0
N93 N 0.53723 0.76519 0.79151 0.0
C94 C 0.52107 0.74809 0.70196 0.0
C95 C 0.49109 0.75772 0.78031 0.0
C96 C 0.54192 0.75653 0.73677 0.0
C97 C 0.51248 0.76592 0.81381 0.0
C98 C 0.41983 0.70169 0.59778 0.0
C99 C 0.39706 0.67053 0.5368 0.0
N100 N 0.39597 0.6533 0.58184 0.0
C101 C 0.41833 0.6837 0.64352 0.0
C102 C 0.40898 0.69511 0.54402 0.0
C103 C 0.40626 0.65932 0.63456 0.0
C104 C 0.38888 0.73554 0.74584 0.0
N105 N 0.41547 0.73257 0.74566 0.0
C106 C 0.41403 0.71044 0.837 0.0
C107 C 0.42812 0.72011 0.78971 0.0
C108 C 0.38656 0.71317 0.83853 0.0
C109 C 0.3739 0.72577 0.79203 0.0
H110 H 0.37931 0.74531 0.70991 0.0
H111 H 0.44917 0.71729 0.78768 0.0
C112 C 0.51627 0.70923 0.55889 0.0
N113 N 0.49298 0.70279 0.58423 0.0
C114 C 0.53417 0.68966 0.54325 0.0
C115 C 0.50388 0.65702 0.57992 0.0
C116 C 0.48661 0.67726 0.59507 0.0
C117 C 0.52814 0.66309 0.55387 0.0
H118 H 0.52121 0.72968 0.55176 0.0
H119 H 0.46833 0.67252 0.61622 0.0
C120 C 0.42814 0.80609 0.67192 0.0
N121 N 0.4242 0.85731 0.71078 0.0
C122 C 0.43405 0.82701 0.63479 0.0
C123 C 0.41995 0.81117 0.72857 0.0
C124 C 0.43205 0.85278 0.65536 0.0
C125 C 0.41813 0.83723 0.74744 0.0
C126 C 0.47834 0.75876 0.50587 0.0
C127 C 0.4937 0.77538 0.47135 0.0
C128 C 0.46693 0.73635 0.4813 0.0
C129 C 0.49744 0.76924 0.41297 0.0
C130 C 0.47115 0.73087 0.42279 0.0
N131 N 0.48619 0.74729 0.39009 0.0
C132 C 0.51067 0.8102 0.62944 0.0
C133 C 0.48935 0.81567 0.71978 0.0
C134 C 0.5285 0.83023 0.64269 0.0
N135 N 0.49153 0.80335 0.66769 0.0
C136 C 0.50691 0.8357 0.73505 0.0
C137 C 0.52683 0.84321 0.69621 0.0
H138 H 0.51239 0.7998 0.58891 0.0
H139 H 0.47425 0.80972 0.74996 0.0
C140 C 0.38923 0.76392 0.50632 0.0
N141 N 0.41356 0.77429 0.51546 0.0
C142 C 0.37389 0.7726 0.45966 0.0
C143 C 0.40883 0.80263 0.43344 0.0
C144 C 0.42335 0.79352 0.48063 0.0
C145 C 0.38379 0.79208 0.42219 0.0
H146 H 0.38177 0.74887 0.53513 0.0
H147 H 0.4425 0.80185 0.48955 0.0
O148 O 0.47474 0.74109 0.68994 0.0
O149 O 0.43098 0.72596 0.60614 0.0
O150 O 0.43 0.78074 0.65272 0.0
O151 O 0.47421 0.76481 0.56301 0.0
H152 H 0.52478 0.74145 0.6583 0.0
H153 H 0.47137 0.75888 0.79769 0.0
H154 H 0.56182 0.75625 0.7202 0.0
H155 H 0.50937 0.77306 0.85739 0.0
H156 H 0.38863 0.66518 0.49542 0.0
H157 H 0.42675 0.68832 0.68527 0.0
H158 H 0.40969 0.70882 0.5082 0.0
H159 H 0.40512 0.64518 0.66952 0.0
H160 H 0.42446 0.70041 0.87146 0.0
H161 H 0.35274 0.72824 0.79168 0.0
H162 H 0.55282 0.69539 0.52436 0.0
H163 H 0.49825 0.63684 0.58854 0.0
H164 H 0.4404 0.82335 0.59081 0.0
H165 H 0.41521 0.79514 0.7577 0.0
H166 H 0.43675 0.86918 0.62729 0.0
H167 H 0.41192 0.84149 0.79124 0.0
H168 H 0.50249 0.79297 0.48926 0.0
H169 H 0.45513 0.7232 0.5071 0.0
H170 H 0.50925 0.78197 0.38581 0.0
H171 H 0.46247 0.71353 0.40339 0.0
H172 H 0.54382 0.83509 0.61188 0.0
H173 H 0.50486 0.84526 0.77668 0.0
H174 H 0.3547 0.76392 0.45252 0.0
H175 H 0.417 0.81806 0.40648 0.0
Li176 Li 0.27599 0.96719 0.86675 0.0
Li177 Li 0.26014 0.9322 0.9353 0.0
Li178 Li 0.24347 0.93402 0.83378 0.0
Li179 Li 0.23155 0.96691 0.90229 0.0
C180 C 0.3036 0.9156 0.86052 0.0
N181 N 0.35153 0.88999 0.86074 0.0
C182 C 0.32057 0.9181 0.90786 0.0
C183 C 0.31096 0.90004 0.81338 0.0
C184 C 0.34472 0.90499 0.90714 0.0
C185 C 0.3353 0.88729 0.81425 0.0
C186 C 0.25672 0.98864 0.98766 0.0
C187 C 0.2317 1.00006 0.0727 0.0
N188 N 0.23845 0.02575 0.06517 0.0
C189 C 0.26356 0.01511 0.98096 0.0
C190 C 0.24078 0.98099 0.03404 0.0
C191 C 0.25408 0.03359 0.02055 0.0
C192 C 0.29744 0.01496 0.83107 0.0
N193 N 0.3044 0.98982 0.84422 0.0
C194 C 0.34973 0.99988 0.82693 0.0
C195 C 0.32995 0.98198 0.84192 0.0
C196 C 0.34315 0.02609 0.81377 0.0
C197 C 0.3165 0.03343 0.81547 0.0
H198 H 0.27697 0.02071 0.83306 0.0
H199 H 0.33516 0.96197 0.85214 0.0
C200 C 0.26944 0.88355 0.99449 0.0
N201 N 0.2711 0.91022 0.99794 0.0
C202 C 0.2788 0.86783 0.0399 0.0
C203 C 0.29107 0.90735 0.09147 0.0
C204 C 0.2817 0.92223 0.04509 0.0
C205 C 0.28979 0.87975 0.08928 0.0
H206 H 0.26113 0.87451 0.95621 0.0
H207 H 0.2834 0.94341 0.04622 0.0
C208 C 0.24974 0.97905 0.76611 0.0
N209 N 0.26307 0.9915 0.65338 0.0
C210 C 0.23663 0.99931 0.73709 0.0
C211 C 0.26971 0.96517 0.73785 0.0
C212 C 0.24363 0.00529 0.68009 0.0
C213 C 0.27614 0.97175 0.68085 0.0
C214 C 0.19771 0.9229 0.8941 0.0
C215 C 0.184 0.93818 0.85378 0.0
C216 C 0.1852 0.90155 0.92057 0.0
C217 C 0.15794 0.93181 0.84058 0.0
C218 C 0.15909 0.89583 0.90625 0.0
N219 N 0.14613 0.91095 0.86688 0.0
C220 C 0.23756 0.88738 0.7655 0.0
C221 C 0.21624 0.92532 0.72861 0.0
C222 C 0.22854 0.87241 0.71853 0.0
N223 N 0.23143 0.91338 0.76941 0.0
C224 C 0.20726 0.9113 0.68068 0.0
C225 C 0.21343 0.88454 0.67511 0.0
H226 H 0.24939 0.87827 0.7989 0.0
H227 H 0.21087 0.94575 0.7333 0.0
C228 C 0.20595 0.01558 0.90426 0.0
N229 N 0.20413 0.99055 0.92469 0.0
C230 C 0.1871 0.0343 0.91935 0.0
C231 C 0.16446 1.001 0.97526 0.0
C232 C 0.184 0.98299 0.95981 0.0
C233 C 0.16597 0.02705 0.95513 0.0
H234 H 0.22225 0.02102 0.87659 0.0
H235 H 0.18321 0.96306 0.97614 0.0
O236 O 0.27966 0.92786 0.86059 0.0
O237 O 0.26516 0.97036 0.9484 0.0
O238 O 0.24306 0.97317 0.82207 0.0
O239 O 0.22329 0.92863 0.90774 0.0
H240 H 0.31534 0.93035 0.94433 0.0
H241 H 0.298 0.8979 0.77644 0.0
H242 H 0.35809 0.90681 0.94338 0.0
H243 H 0.34128 0.87522 0.778 0.0
H244 H 0.21916 0.99446 0.10851 0.0
H245 H 0.2759 0.02136 0.94539 0.0
H246 H 0.23511 0.9606 0.03951 0.0
H247 H 0.25909 0.05417 0.01571 0.0
H248 H 0.36999 0.99333 0.82683 0.0
H249 H 0.31035 0.05323 0.80464 0.0
H250 H 0.27739 0.84661 0.03652 0.0
H251 H 0.29988 0.91736 0.12806 0.0
H252 H 0.22117 0.01027 0.75845 0.0
H253 H 0.28015 0.94948 0.75949 0.0
H254 H 0.23362 0.0209 0.65708 0.0
H255 H 0.29152 0.96116 0.65844 0.0
H256 H 0.19332 0.95484 0.83304 0.0
H257 H 0.19557 0.88953 0.95187 0.0
H258 H 0.1471 0.94347 0.80947 0.0
H259 H 0.14915 0.87937 0.92644 0.0
H260 H 0.23361 0.85175 0.71572 0.0
H261 H 0.19521 0.92122 0.64868 0.0
H262 H 0.18885 0.05416 0.90268 0.0
H263 H 0.14859 0.99477 1.00344 0.0
Li264 Li 0.03897 0.77844 0.1081 0.0
Li265 Li 0.07248 0.7656 0.17982 0.0
Li266 Li 0.07229 0.74566 0.07882 0.0
Li267 Li 0.03943 0.73261 0.15186 0.0
C268 C 0.08355 0.80633 0.07604 0.0
N269 N 0.09503 0.85342 0.02151 0.0
C270 C 0.0906 0.82841 0.10862 0.0
C271 C 0.08278 0.8081 0.01567 0.0
C272 C 0.09619 0.85207 0.08028 0.0
C273 C 0.08854 0.8321 0.98891 0.0
C274 C 0.02764 0.77545 0.24442 0.0
C275 C 0.02618 0.7677 0.34743 0.0
N276 N 0.01617 0.79225 0.35535 0.0
C277 C 0.01705 0.80048 0.2535 0.0
C278 C 0.03199 0.75881 0.29167 0.0
C279 C 0.0115 0.80866 0.30993 0.0
C280 C 0.99491 0.80027 0.05106 0.0
N281 N 0.01637 0.80639 0.08353 0.0
C282 C 1.0033 0.85161 0.08694 0.0
C283 C 0.02081 0.83147 0.10164 0.0
C284 C 0.98088 0.84587 0.05353 0.0
C285 C 0.97698 0.81978 0.03511 0.0
H286 H 0.99137 0.78011 0.03842 0.0
H287 H 0.03748 0.83572 0.12911 0.0
C288 C 0.11465 0.76529 0.26201 0.0
N289 N 0.09348 0.77892 0.24209 0.0
C290 C 0.12969 0.77517 0.30794 0.0
C291 C 0.10088 0.8129 0.31179 0.0
C292 C 0.08662 0.80244 0.2656 0.0
C293 C 0.12286 0.79933 0.33362 0.0
H294 H 0.11997 0.74681 0.24202 0.0
H295 H 0.07006 0.81319 0.24832 0.0
C296 C 0.02609 0.73621 0.01596 0.0
N297 N 0.01182 0.72092 0.90548 0.0
C298 C 0.01504 0.71137 0.00655 0.0
C299 C 0.02948 0.75341 0.9693 0.0
C300 C 0.00807 0.70396 0.95034 0.0
C301 C 0.02225 0.74529 0.91375 0.0
C302 C 0.08383 0.70435 0.17957 0.0
C303 C 0.09068 0.68307 0.14436 0.0
C304 C 0.08288 0.70103 0.23961 0.0
C305 C 0.09588 0.65865 0.16976 0.0
C306 C 0.08822 0.6763 0.26338 0.0
N307 N 0.09452 0.65579 0.22824 0.0
C308 C 0.11481 0.74596 0.99787 0.0
C309 C 0.0851 0.71025 0.98887 0.0
C310 C 0.12937 0.73689 0.95049 0.0
N311 N 0.09293 0.73277 0.01556 0.0
C312 C 0.09886 0.70064 0.94113 0.0
C313 C 0.12122 0.71408 0.92108 0.0
H314 H 0.12089 0.76362 0.02035 0.0
H315 H 0.0682 0.6996 0.00486 0.0
C316 C 0.99642 0.71029 0.21169 0.0
N317 N 0.01722 0.70446 0.17705 0.0
C318 C 0.97859 0.69068 0.22785 0.0
C319 C 0.00382 0.65935 0.17225 0.0
C320 C 0.02118 0.67959 0.1572 0.0
C321 C 0.98201 0.66483 0.20764 0.0
H322 H 0.99328 0.7303 0.22582 0.0
H323 H 0.03731 0.6756 0.12809 0.0
O324 O 0.07811 0.78296 0.10311 0.0
O325 O 0.03349 0.76722 0.18948 0.0
O326 O 0.03327 0.74369 0.07067 0.0
O327 O 0.0787 0.72842 0.15541 0.0
H328 H 0.09162 0.82735 0.1553 0.0
H329 H 0.07809 0.79108 0.98964 0.0
H330 H 0.10149 0.86936 0.10501 0.0
H331 H 0.08796 0.83374 0.94222 0.0
H332 H 0.02956 0.75505 0.3844 0.0
H333 H 0.01331 0.81353 0.21743 0.0
H334 H 0.03961 0.7392 0.28531 0.0
H335 H 1.00347 0.82806 0.31762 0.0
H336 H 0.00687 0.87127 0.10319 0.0
H337 H 0.96015 0.81441 0.00887 0.0
H338 H 0.1467 0.76418 0.3225 0.0
H339 H 0.09451 0.83137 0.33043 0.0
H340 H 0.01203 0.69789 0.04218 0.0
H341 H 0.03735 0.77292 0.97599 0.0
H342 H 0.99966 0.68473 0.9424 0.0
H343 H 0.02485 0.75839 0.87725 0.0
H344 H 0.09184 0.68532 0.0979 0.0
H345 H 0.0783 0.7174 0.26765 0.0
H346 H 0.10103 0.64197 0.14296 0.0
H347 H 0.08746 0.67345 0.30978 0.0
H348 H 0.14652 0.74782 0.93642 0.0
H349 H 0.09225 0.68266 0.92056 0.0
H350 H 0.9622 0.69579 0.25558 0.0
H351 H 0.00697 0.63985 0.15472 0.0
Li352 Li 0.74178 0.07306 0.92884 0.0
Li353 Li 0.73037 0.0395 0.85498 0.0
Li354 Li 0.77598 0.04051 0.8995 0.0
Li355 Li 0.76181 0.07338 0.82944 0.0
C356 C 0.7363 0.02026 0.986 0.0
N357 N 0.7262 0.99173 0.08565 0.0
C358 C 0.71221 0.00733 0.99303 0.0
C359 C 0.75536 0.01838 0.02951 0.0
C360 C 0.70743 0.99311 0.04377 0.0
C361 C 0.74987 0.00393 0.07957 0.0
C362 C 0.69919 0.08134 0.83301 0.0
C363 C 0.66649 0.07735 0.75776 0.0
N364 N 0.64792 0.08668 0.79483 0.0
C365 C 0.67981 0.09099 0.8703 0.0
C366 C 0.69253 0.07458 0.77619 0.0
C367 C 0.654 0.09352 0.85019 0.0
C368 C 0.73328 0.11914 0.99714 0.0
N369 N 0.72726 0.0932 0.99124 0.0
C370 C 0.69917 0.09495 0.07413 0.0
C371 C 0.71043 0.08107 0.02839 0.0
C372 C 0.70473 0.12187 0.08134 0.0
C373 C 0.72215 0.13394 0.04202 0.0
H374 H 0.74655 0.12838 0.96665 0.0
H375 H 0.70548 0.06064 0.02235 0.0
C376 C 0.70893 0.99632 0.79344 0.0
N377 N 0.70286 0.0164 0.82992 0.0
C378 C 0.68964 0.9782 0.77684 0.0
C379 C 0.65813 1.00191 0.8351 0.0
C380 C 0.67805 0.01944 0.85084 0.0
C381 C 0.66381 0.98074 0.798 0.0
H382 H 0.72891 0.99408 0.77812 0.0
H383 H 0.67379 0.03524 0.88069 0.0
C384 C 0.79673 0.08754 0.94792 0.0
N385 N 0.83147 0.10375 0.03295 0.0
C386 C 0.81958 0.10131 0.933 0.0
C387 C 0.7914 0.08237 0.00618 0.0
C388 C 0.83695 0.10923 0.97658 0.0
C389 C 0.80923 0.09063 0.04851 0.0
C390 C 0.77762 0.03362 0.76566 0.0
C391 C 0.80498 0.03122 0.76326 0.0
C392 C 0.76316 0.03569 0.71437 0.0
C393 C 0.8175 0.0313 0.7094 0.0
C394 C 0.77641 0.03573 0.66138 0.0
N395 N 0.80308 0.03358 0.66001 0.0
C396 C 0.79788 0.99271 0.93512 0.0
C397 C 0.8293 0.02707 0.92831 0.0
C398 C 0.81733 0.97493 0.952 0.0
N399 N 0.80407 0.01828 0.9243 0.0
C400 C 0.84946 0.00987 0.9446 0.0
C401 C 0.84356 0.98341 0.95684 0.0
H402 H 0.77776 0.98611 0.93026 0.0
H403 H 0.83387 0.0473 0.91804 0.0
C404 C 0.75896 0.1054 0.72692 0.0
N405 N 0.77514 0.09455 0.7673 0.0
C406 C 0.7695 0.11875 0.6792 0.0
C407 C 0.81307 0.11012 0.71649 0.0
C408 C 0.8017 0.09688 0.7632 0.0
C409 C 0.79696 0.121 0.67312 0.0
H410 H 0.7379 0.10323 0.73101 0.0
H411 H 0.81412 0.0878 0.79552 0.0
O412 O 0.74126 0.03422 0.93633 0.0
O413 O 0.72455 0.07874 0.85198 0.0
O414 O 0.77949 0.07973 0.90565 0.0
O415 O 0.76509 0.03436 0.81801 0.0
H416 H 0.69725 0.00839 0.95992 0.0
H417 H 0.77439 0.02757 0.02453 0.0
H418 H 0.68881 0.98316 0.04982 0.0
H419 H 0.76447 1.00232 0.11348 0.0
H420 H 0.66103 0.07203 0.71403 0.0
H421 H 0.68462 0.09645 0.91431 0.0
H422 H 0.70723 0.06696 0.74686 0.0
H423 H 0.63879 0.10091 0.8786 0.0
H424 H 0.6863 0.08454 0.10364 0.0
H425 H 0.7268 0.15469 0.04512 0.0
H426 H 0.69512 0.96198 0.74896 0.0
H427 H 0.63849 0.00492 0.852 0.0
H428 H 0.82393 0.10582 0.88825 0.0
H429 H 0.77357 0.07238 0.01875 0.0
H430 H 0.85477 0.11977 0.96558 0.0
H431 H 0.80532 0.0867 0.09374 0.0
H432 H 0.81646 0.02965 0.80257 0.0
H433 H 0.74196 0.03747 0.71552 0.0
H434 H 0.83869 0.02965 0.70688 0.0
H435 H 0.76549 0.03752 0.62134 0.0
H436 H 0.81198 0.9546 0.95995 0.0
H437 H 0.86942 0.01721 0.94782 0.0
H438 H 0.75628 0.12654 0.64666 0.0
H439 H 0.83429 0.11166 0.71432 0.0
Li440 Li 0.93636 0.24339 0.17845 0.0
Li441 Li 0.97014 0.22984 0.11197 0.0
Li442 Li 0.96933 0.27469 0.15145 0.0
Li443 Li 0.93568 0.26213 0.08256 0.0
C444 C 0.98145 0.24615 0.24923 0.0
N445 N 0.99532 0.25671 0.36255 0.0
C446 C 0.00368 0.23433 0.27351 0.0
C447 C 0.96625 0.26333 0.28256 0.0
C448 C 0.01038 0.23992 0.33089 0.0
C449 C 0.9736 0.26842 0.33976 0.0
C450 C 0.91698 0.20303 0.11994 0.0
C451 C 0.87498 0.18145 0.13112 0.0
N452 N 0.88721 0.16051 0.15607 0.0
C453 C 0.92912 0.18128 0.14569 0.0
C454 C 0.88968 0.20313 0.1126 0.0
C455 C 0.91374 0.15999 0.16366 0.0
C456 C 0.89133 0.23986 0.25342 0.0
N457 N 0.91544 0.22981 0.2408 0.0
C458 C 0.91121 0.19775 0.31604 0.0
C459 C 0.9256 0.20932 0.27138 0.0
C460 C 0.88616 0.2075 0.32997 0.0
C461 C 0.8763 0.22902 0.29838 0.0
H462 H 0.88371 0.25615 0.22831 0.0
H463 H 0.94486 0.20176 0.2606 0.0
C464 C 0.01913 0.20598 0.1033 0.0
N465 N 0.99353 0.20278 0.08804 0.0
C466 C 0.03777 0.18699 0.08856 0.0
C467 C 1.00334 0.16176 0.04231 0.0
C468 C 0.9854 0.18144 0.05738 0.0
C469 C 0.02998 0.16428 0.05819 0.0
H470 H 0.02504 0.22337 0.12701 0.0
H471 H 0.96494 0.17956 0.04512 0.0
C472 C 0.9251 0.30669 0.14625 0.0
N473 N 0.91389 0.3589 0.12346 0.0
C474 C 0.93992 0.32065 0.10545 0.0
C475 C 0.90462 0.3193 0.17548 0.0
C476 C 0.93393 0.34702 0.09453 0.0
C477 C 0.89925 0.34571 0.16336 0.0
C478 C 0.9821 0.25829 0.01434 0.0
C479 C 1.00304 0.27182 0.98873 0.0
C480 C 0.96866 0.23905 0.98265 0.0
C481 C 0.01018 0.2659 0.93179 0.0
C482 C 0.97641 0.2337 0.92585 0.0
N483 N 0.99684 0.24712 0.90181 0.0
C484 C 0.01592 0.30384 0.14861 0.0
C485 C 0.9852 0.3202 0.21686 0.0
C486 C 0.03363 0.32391 0.16222 0.0
N487 N 0.99218 0.30248 0.1755 0.0
C488 C 1.00251 0.34041 0.2325 0.0
C489 C 0.02699 0.34253 0.20463 0.0
H490 H 0.02107 0.28927 0.11651 0.0
H491 H 0.96616 0.31875 0.23749 0.0
C492 C 0.88805 0.27231 0.01965 0.0
N493 N 0.91463 0.27566 0.01956 0.0
C494 C 0.87272 0.28205 0.97394 0.0
C495 C 0.91231 0.2989 0.92951 0.0
C496 C 0.92671 0.28935 0.97639 0.0
C497 C 0.885 0.29514 0.92769 0.0
H498 H 0.8787 0.26227 0.0554 0.0
H499 H 0.94755 0.29321 0.9783 0.0
O500 O 0.97477 0.24084 0.19305 0.0
O501 O 0.93172 0.2242 0.10266 0.0
O502 O 0.93047 0.28084 0.15791 0.0
O503 O 0.97502 0.26378 0.07025 0.0
H504 H 0.01564 0.22098 0.24822 0.0
H505 H 0.94898 0.27268 0.26455 0.0
H506 H 0.02754 0.23091 0.35026 0.0
H507 H 0.96203 0.28169 0.36603 0.0
H508 H 0.85383 0.18128 0.12571 0.0
H509 H 0.95015 0.18106 0.15287 0.0
H510 H 0.87991 0.21975 0.09294 0.0
H511 H 0.92288 0.14312 0.18398 0.0
H512 H 0.91971 0.18145 0.33979 0.0
H513 H 0.85702 0.23704 0.30763 0.0
H514 H 0.05811 0.19022 0.10055 0.0
H515 H 0.99627 0.14458 0.01938 0.0
H516 H 0.95591 0.31131 0.08253 0.0
H517 H 0.893 0.30877 0.20724 0.0
H518 H 0.94523 0.35804 0.06307 0.0
H519 H 0.88345 0.35572 0.18568 0.0
H520 H 0.01361 0.28684 0.01245 0.0
H521 H 0.95235 0.22841 1.00147 0.0
H522 H 0.02633 0.27625 0.91143 0.0
H523 H 0.96617 0.21888 0.90087 0.0
H524 H 0.05245 0.32469 0.14031 0.0
H525 H 0.99666 0.35449 0.26523 0.0
H526 H 0.85162 0.27907 0.97428 0.0
H527 H 0.92237 0.30953 0.89536 0.0
Li528 Li 0.77861 0.46803 0.35992 0.0
Li529 Li 0.76518 0.43475 0.43113 0.0
Li530 Li 0.74494 0.43502 0.3305 0.0
Li531 Li 0.73327 0.46803 0.40424 0.0
C532 C 0.80286 0.4198 0.32197 0.0
N533 N 0.8442 0.4006 0.25673 0.0
C534 C 0.8253 0.4098 0.34921 0.0
C535 C 0.80127 0.41956 0.26154 0.0
C536 C 0.84605 0.40033 0.31548 0.0
C537 C 0.82241 0.4099 0.22932 0.0
C538 C 0.77998 0.47738 0.49369 0.0
C539 C 0.77928 0.47606 0.59808 0.0
N540 N 0.80483 0.48406 0.59911 0.0
C541 C 0.80615 0.48581 0.49577 0.0
C542 C 0.76634 0.47268 0.54522 0.0
C543 C 0.81839 0.489 0.5495 0.0
C544 C 0.79962 0.51563 0.32007 0.0
N545 N 0.80641 0.49061 0.33459 0.0
C546 C 0.85187 0.50019 0.31786 0.0
C547 C 0.83196 0.48268 0.33406 0.0
C548 C 0.84543 0.52616 0.30234 0.0
C549 C 0.81886 0.53375 0.30344 0.0
H550 H 0.77923 0.52161 0.32215 0.0
H551 H 0.837 0.46295 0.34726 0.0
C552 C 0.76295 0.39542 0.5199 0.0
N553 N 0.77847 0.41348 0.49298 0.0
C554 C 0.77281 0.38055 0.56614 0.0
C555 C 0.81434 0.40326 0.55611 0.0
C556 C 0.80381 0.41736 0.50973 0.0
C557 C 0.79887 0.38443 0.5851 0.0
H558 H 0.74292 0.39252 0.50543 0.0
H559 H 0.81583 0.43166 0.48736 0.0
C560 C 0.74092 0.4848 0.26899 0.0
N561 N 0.7352 0.50712 0.16051 0.0
C562 C 0.71845 0.49947 0.2557 0.0
C563 C 0.76063 0.48181 0.22734 0.0
C564 C 0.71587 0.51049 0.20054 0.0
C565 C 0.75734 0.49317 0.17272 0.0
C566 C 0.70285 0.42669 0.42839 0.0
C567 C 0.68218 0.4202 0.39108 0.0
C568 C 0.69775 0.43092 0.4871 0.0
C569 C 0.65662 0.41845 0.41306 0.0
C570 C 0.67193 0.429 0.5074 0.0
N571 N 0.65207 0.42288 0.47026 0.0
C572 C 0.73912 0.38985 0.25753 0.0
C573 C 0.7116 0.42605 0.23516 0.0
C574 C 0.72807 0.37516 0.21233 0.0
N575 N 0.7308 0.41485 0.26786 0.0
C576 C 0.70023 0.41224 0.18937 0.0
C577 C 0.70825 0.38632 0.17751 0.0
H578 H 0.75417 0.38125 0.28472 0.0
H579 H 0.70478 0.44563 0.2451 0.0
C580 C 0.7094 0.50818 0.4716 0.0
N581 N 0.70524 0.49031 0.42879 0.0
C582 C 0.68948 0.5257 0.48743 0.0
C583 C 0.6613 0.50592 0.41521 0.0
C584 C 0.6818 0.48891 0.4006 0.0
C585 C 0.66505 0.52487 0.45881 0.0
H586 H 0.72838 0.50925 0.49257 0.0
H587 H 0.67917 0.47483 0.36601 0.0
O588 O 0.78225 0.4289 0.35446 0.0
O589 O 0.76778 0.47387 0.44145 0.0
O590 O 0.74373 0.4739 0.32288 0.0
O591 O 0.72795 0.42877 0.40755 0.0
H592 H 0.82676 0.40946 0.39589 0.0
H593 H 0.78379 0.42644 0.23963 0.0
H594 H 0.8636 0.39271 0.33603 0.0
H595 H 0.82145 0.40967 0.18253 0.0
H596 H 0.76902 0.47233 0.63828 0.0
H597 H 0.81697 0.48967 0.45634 0.0
H598 H 0.74603 0.46638 0.54439 0.0
H599 H 0.83869 0.49536 0.55176 0.0
H600 H 0.87208 0.49346 0.31747 0.0
H601 H 0.81301 0.55369 0.29295 0.0
H602 H 0.76021 0.366 0.58631 0.0
H603 H 0.83432 0.40743 0.56947 0.0
H604 H 0.70311 0.50222 0.28754 0.0
H605 H 0.77847 0.47122 0.23733 0.0
H606 H 0.69851 0.52175 0.18958 0.0
H607 H 0.77246 0.49099 0.14011 0.0
H608 H 0.68579 0.41671 0.34559 0.0
H609 H 0.71355 0.43568 0.51664 0.0
H610 H 0.64041 0.41358 0.38463 0.0
H611 H 0.66768 0.43237 0.55269 0.0
H612 H 0.73464 0.35514 0.20555 0.0
H613 H 0.68533 0.42191 0.16349 0.0
H614 H 0.69348 0.54024 0.52055 0.0
H615 H 0.64276 0.50431 0.39236 0.0
Li616 Li 0.53723 0.27682 0.60808 0.0
Li617 Li 0.57021 0.26461 0.68132 0.0
Li618 Li 0.57004 0.24414 0.58064 0.0
Li619 Li 0.53666 0.23146 0.65265 0.0
C620 C 0.57908 0.30638 0.58238 0.0
N621 N 0.58393 0.35681 0.53876 0.0
C622 C 0.58315 0.32758 0.61983 0.0
C623 C 0.57782 0.31077 0.5227 0.0
C624 C 0.58546 0.35295 0.59695 0.0
C625 C 0.58022 0.33643 0.5015 0.0
C626 C 0.52281 0.27004 0.74557 0.0
C627 C 0.51941 0.25518 0.84453 0.0
N628 N 0.50609 0.27752 0.85823 0.0
C629 C 0.50881 0.29271 0.76049 0.0
C630 C 0.52794 0.25101 0.78779 0.0
C631 C 0.50063 0.29618 0.81773 0.0
C632 C 0.49872 0.3017 0.53738 0.0
N633 N 0.51532 0.30517 0.58294 0.0
C634 C 0.49848 0.34852 0.59883 0.0
C635 C 0.51558 0.32804 0.61347 0.0
C636 C 0.48099 0.34542 0.5522 0.0
C637 C 0.48145 0.32173 0.52092 0.0
H638 H 0.49838 0.28317 0.51462 0.0
H639 H 0.52874 0.33019 0.64996 0.0
C640 C 0.6147 0.26737 0.75735 0.0
N641 N 0.59082 0.27794 0.74428 0.0
C642 C 0.62911 0.27678 0.80474 0.0
C643 C 0.59426 0.30791 0.82367 0.0
C644 C 0.58076 0.2982 0.77564 0.0
C645 C 0.61867 0.29707 0.839 0.0
H646 H 0.62243 0.25148 0.73129 0.0
H647 H 0.56226 0.30696 0.76323 0.0
C648 C 0.52576 0.23196 0.5176 0.0
N649 N 0.51592 0.21072 0.40958 0.0
C650 C 0.51374 0.2073 0.51266 0.0
C651 C 0.53247 0.24594 0.46757 0.0
C652 C 0.509 0.19687 0.45766 0.0
C653 C 0.52743 0.23483 0.41338 0.0
C654 C 0.58342 0.20464 0.68539 0.0
C655 C 0.59018 0.18232 0.65335 0.0
C656 C 0.58546 0.20401 0.74575 0.0
C657 C 0.59811 0.1595 0.6823 0.0
C658 C 0.5935 0.18084 0.77312 0.0
N659 N 0.59956 0.15923 0.74111 0.0
C660 C 0.61113 0.24469 0.49581 0.0
C661 C 0.58399 0.20673 0.49585 0.0
C662 C 0.6251 0.23521 0.44792 0.0
N663 N 0.59079 0.23054 0.51822 0.0
C664 C 0.597 0.19681 0.44744 0.0
C665 C 0.6177 0.21119 0.42266 0.0
H666 H 0.61628 0.26348 0.51466 0.0
H667 H 0.56813 0.19558 0.51507 0.0
C668 C 0.49166 0.20966 0.70657 0.0
N669 N 0.51421 0.20346 0.67802 0.0
C670 C 0.47427 0.1899 0.72402 0.0
C671 C 0.50307 0.1577 0.68055 0.0
C672 C 0.52005 0.17808 0.66446 0.0
C673 C 0.47984 0.16351 0.71086 0.0
H674 H 0.48688 0.23001 0.71496 0.0
H675 H 0.53753 0.17369 0.63981 0.0
O676 O 0.57655 0.28143 0.60403 0.0
O677 O 0.53129 0.26651 0.68983 0.0
O678 O 0.53092 0.24228 0.57115 0.0
O679 O 0.57581 0.22723 0.65762 0.0
H680 H 0.58434 0.32453 0.66608 0.0
H681 H 0.57512 0.29456 0.49303 0.0
H682 H 0.58845 0.36956 0.62547 0.0
H683 H 0.57918 0.34012 0.45541 0.0
H684 H 0.5233 0.2406 0.87762 0.0
H685 H 0.50438 0.30753 0.72832 0.0
H686 H 0.53804 0.23305 0.77666 0.0
H687 H 0.48992 0.31372 0.82993 0.0
H688 H 0.49886 0.36653 0.62387 0.0
H689 H 0.468 0.31838 0.48528 0.0
H690 H 0.64793 0.26796 0.81516 0.0
H691 H 0.58581 0.32397 0.84824 0.0
H692 H 0.5082 0.19629 0.55083 0.0
H693 H 0.54159 0.26509 0.47059 0.0
H694 H 0.49982 0.17776 0.45321 0.0
H695 H 0.53269 0.24538 0.37433 0.0
H696 H 0.58914 0.18251 0.60664 0.0
H697 H 0.58121 0.22128 0.77131 0.0
H698 H 0.60316 0.14203 0.65801 0.0
H699 H 0.59505 0.18008 0.81982 0.0
H700 H 0.64102 0.2468 0.4299 0.0
H701 H 0.591 0.17802 0.4296 0.0
H702 H 0.45629 0.19529 0.74619 0.0
H703 H 0.50806 0.13761 0.66937 0.0
H704 H 0.34258 0.68214 0.83534 0.0
H705 H 0.3965 0.71979 0.95355 0.0
H706 H 0.32008 0.66134 0.91683 0.0
H707 H 0.37354 0.69998 0.03526 0.0
H708 H 0.34875 0.63641 0.16143 0.0
H709 H 0.36884 0.65909 0.08043 0.0
H710 H 0.29268 0.6665 0.99863 0.0
H711 H 0.27279 0.64197 0.07805 0.0
C712 C 0.34929 0.68633 0.87891 0.0
C713 C 0.3714 0.7024 0.88813 0.0
C714 C 0.33636 0.67448 0.92573 0.0
C715 C 0.34507 0.67872 0.98292 0.0
C716 C 0.36663 0.69565 0.99194 0.0
C717 C 0.37974 0.70717 0.94514 0.0
C718 C 0.33625 0.6425 0.1259 0.0
C719 C 0.30911 0.63704 0.12635 0.0
C720 C 0.34776 0.656 0.07966 0.0
C721 C 0.33245 0.66482 0.03274 0.0
C722 C 0.30521 0.65976 0.03354 0.0
C723 C 0.29371 0.64598 0.07963 0.0
H724 H 0.33121 0.80405 0.41848 0.0
H725 H 0.4011 0.80195 0.31227 0.0
H726 H 0.30633 0.82229 0.33717 0.0
H727 H 0.37646 0.82073 0.23164 0.0
H728 H 0.32037 0.83548 0.08246 0.0
H729 H 0.34109 0.81141 0.162 0.0
H730 H 0.30528 0.86447 0.28486 0.0
H731 H 0.28408 0.88806 0.20558 0.0
C732 C 0.34119 0.80724 0.37764 0.0
C733 C 0.36817 0.80169 0.37194 0.0
C734 C 0.32701 0.8179 0.33123 0.0
C735 C 0.33943 0.82305 0.27796 0.0
C736 C 0.36622 0.8168 0.27185 0.0
C737 C 0.38042 0.8063 0.31829 0.0
C738 C 0.31656 0.8417 0.12651 0.0
C739 C 0.30069 0.86376 0.13768 0.0
C740 C 0.32864 0.82808 0.17204 0.0
C741 C 0.32496 0.8361 0.22978 0.0
C742 C 0.30837 0.85762 0.24098 0.0
C743 C 0.29643 0.87132 0.19549 0.0
H744 H 0.13462 0.85113 0.35422 0.0
H745 H 0.14677 0.77309 0.42385 0.0
H746 H 0.15771 0.86989 0.4361 0.0
H747 H 0.17168 0.79184 0.5041 0.0
H748 H 0.1866 0.83786 0.67412 0.0
H749 H 0.16638 0.81614 0.5908 0.0
H750 H 0.19912 0.87574 0.47795 0.0
H751 H 0.2182 0.89785 0.56157 0.0
C752 C 0.14228 0.8379 0.3869 0.0
C753 C 0.13852 0.81055 0.38242 0.0
C754 C 0.156 0.84868 0.43359 0.0
C755 C 0.16677 0.83244 0.47692 0.0
C756 C 0.16344 0.80503 0.47202 0.0
C757 C 0.14944 0.79422 0.42545 0.0
C758 C 0.18964 0.84606 0.63131 0.0
C759 C 0.20372 0.86963 0.62424 0.0
C760 C 0.17814 0.8336 0.58346 0.0
C761 C 0.18078 0.84431 0.52743 0.0
C762 C 0.19599 0.86726 0.52043 0.0
C763 C 0.20711 0.87987 0.56827 0.0
H764 H 0.17456 0.70896 0.90816 0.0
H765 H 0.10097 0.69662 0.8186 0.0
H766 H 0.19835 0.69051 0.8255 0.0
H767 H 0.12465 0.67788 0.73655 0.0
H768 H 0.17663 0.66647 0.57835 0.0
H769 H 0.15587 0.6902 0.65822 0.0
H770 H 0.20262 0.64609 0.78064 0.0
H771 H 0.22368 0.62272 0.70082 0.0
C772 C 0.16351 0.70253 0.87062 0.0
C773 C 0.13589 0.70412 0.86996 0.0
C774 C 0.1771 0.69179 0.82352 0.0
C775 C 0.16338 0.68271 0.77454 0.0
C776 C 0.13581 0.68492 0.77339 0.0
C777 C 0.12223 0.69541 0.82062 0.0
C778 C 0.18277 0.66216 0.62227 0.0
C779 C 0.20171 0.64264 0.6333 0.0
C780 C 0.17071 0.67557 0.66801 0.0
C781 C 0.17752 0.66993 0.72574 0.0
C782 C 0.19708 0.65103 0.73665 0.0
C783 C 0.20896 0.63747 0.69097 0.0
H784 H 0.77974 0.16501 0.61479 0.0
H785 H 0.84108 0.10618 0.61354 0.0
H786 H 0.7992 0.18563 0.52945 0.0
H787 H 0.86127 0.12755 0.53069 0.0
H788 H 0.87835 0.15514 0.34947 0.0
H789 H 0.85536 0.13443 0.43003 0.0
H790 H 0.83644 0.21118 0.49899 0.0
H791 H 0.85901 0.23184 0.4173 0.0
C792 C 0.79735 0.15645 0.59639 0.0
C793 C 0.80884 0.13393 0.62132 0.0
C794 C 0.8087 0.16848 0.54781 0.0
C795 C 0.83183 0.1583 0.52296 0.0
C796 C 0.84326 0.13578 0.54796 0.0
C797 C 0.83187 0.12371 0.59623 0.0
C798 C 0.86925 0.16758 0.38185 0.0
C799 C 0.87067 0.19512 0.3773 0.0
C800 C 0.85614 0.15572 0.4282 0.0
C801 C 0.84426 0.17109 0.47158 0.0
C802 C 0.8451 0.19869 0.46618 0.0
C803 C 0.85808 0.21057 0.41943 0.0
H804 H 0.84195 0.32733 0.92907 0.0
H805 H 0.89394 0.28566 0.8137 0.0
H806 H 0.81996 0.3475 0.84602 0.0
H807 H 0.87131 0.30453 0.73051 0.0
H808 H 0.8494 0.36647 0.59878 0.0
H809 H 0.86839 0.34419 0.68139 0.0
H810 H 0.79231 0.34305 0.76509 0.0
H811 H 0.7737 0.36741 0.68405 0.0
C812 C 0.84827 0.32211 0.88578 0.0
C813 C 0.86974 0.30516 0.87765 0.0
C814 C 0.83563 0.33356 0.83807 0.0
C815 C 0.84397 0.32796 0.78118 0.0
C816 C 0.86475 0.30998 0.77344 0.0
C817 C 0.87763 0.29896 0.82107 0.0
C818 C 0.8367 0.36186 0.63504 0.0
C819 C 0.80999 0.36909 0.63461 0.0
C820 C 0.84755 0.34856 0.68227 0.0
C821 C 0.83195 0.34159 0.73025 0.0
C822 C 0.80509 0.34833 0.72942 0.0
C823 C 0.79428 0.362 0.68236 0.0
H824 H 0.65657 0.38722 0.14368 0.0
H825 H 0.73107 0.35072 0.10293 0.0
H826 H 0.63623 0.36461 0.06299 0.0
H827 H 0.71016 0.32649 0.02427 0.0
H828 H 0.67031 0.31199 0.847 0.0
H829 H 0.69248 0.33199 0.92998 0.0
H830 H 0.62128 0.32366 0.03088 0.0
H831 H 0.59906 0.30474 0.94726 0.0
C832 C 0.66867 0.37432 0.11761 0.0
C833 C 0.6956 0.37109 0.12973 0.0
C834 C 0.65684 0.36092 0.07171 0.0
C835 C 0.67145 0.34354 0.03694 0.0
C836 C 0.69831 0.33993 0.04957 0.0
C837 C 0.71025 0.35358 0.09529 0.0
C838 C 0.65956 0.31429 0.88717 0.0
C839 C 0.63292 0.30709 0.89058 0.0
C840 C 0.67226 0.32565 0.93487 0.0
C841 C 0.65865 0.32976 0.98723 0.0
C842 C 0.63225 0.32151 0.99099 0.0
C843 C 0.61951 0.31052 0.94317 0.0
H844 H 0.65491 0.11603 0.12512 0.0
H845 H 0.72562 0.16242 0.14613 0.0
H846 H 0.63506 0.13854 0.20622 0.0
H847 H 0.7048 0.18663 0.22468 0.0
H848 H 0.67035 0.20343 0.40571 0.0
H849 H 0.69166 0.18326 0.32189 0.0
H850 H 0.61607 0.1775 0.23649 0.0
H851 H 0.59494 0.19629 0.32152 0.0
C852 C 0.66628 0.1311 0.14688 0.0
C853 C 0.69208 0.13709 0.12913 0.0
C854 C 0.65463 0.14445 0.193 0.0
C855 C 0.66818 0.16462 0.22226 0.0
C856 C 0.69382 0.17101 0.20386 0.0
C857 C 0.70565 0.15735 0.15808 0.0
C858 C 0.65845 0.19793 0.3687 0.0
C859 C 0.63103 0.20113 0.37014 0.0
C860 C 0.67062 0.1865 0.32047 0.0
C861 C 0.65563 0.17841 0.27227 0.0
C862 C 0.62825 0.18271 0.2732 0.0
C863 C 0.6161 0.19366 0.32174 0.0
H864 H 0.37551 0.48105 0.54595 0.0
H865 H 0.35573 0.43639 0.39272 0.0
H866 H 0.41021 0.44977 0.56843 0.0
H867 H 0.38919 0.40417 0.4174 0.0
H868 H 0.46797 0.3642 0.44491 0.0
H869 H 0.43523 0.39751 0.42076 0.0
H870 H 0.41692 0.40638 0.60254 0.0
H871 H 0.45016 0.3736 0.62647 0.0
C872 C 0.37852 0.46459 0.51697 0.0
C873 C 0.36272 0.46137 0.4674 0.0
C874 C 0.39823 0.44639 0.53037 0.0
C875 C 0.40256 0.42433 0.49487 0.0
C876 C 0.38673 0.42107 0.44539 0.0
C877 C 0.36718 0.43939 0.4317 0.0
C878 C 0.45693 0.37331 0.47962 0.0
C879 C 0.46166 0.36631 0.53757 0.0
C880 C 0.43807 0.39234 0.46583 0.0
C881 C 0.42328 0.40465 0.50963 0.0
C882 C 0.4282 0.39771 0.56766 0.0
C883 C 0.44723 0.37886 0.58145 0.0
H884 H 0.62487 0.96082 0.86771 0.0
H885 H 0.65586 0.95592 0.6938 0.0
H886 H 0.59102 0.92889 0.84297 0.0
H887 H 0.62293 0.92282 0.67007 0.0
H888 H 0.54466 0.88351 0.62815 0.0
H889 H 0.57702 0.91718 0.65262 0.0
H890 H 0.58544 0.88322 0.82333 0.0
H891 H 0.55268 0.84992 0.79903 0.0
C892 C 0.62445 0.95302 0.8241 0.0
C893 C 0.64312 0.9611 0.78273 0.0
C894 C 0.60522 0.93437 0.81014 0.0
C895 C 0.60422 0.92315 0.75453 0.0
C896 C 0.62286 0.93124 0.71312 0.0
C897 C 0.64201 0.95 0.72699 0.0
C898 C 0.55349 0.88324 0.67085 0.0
C899 C 0.54611 0.86407 0.71166 0.0
C900 C 0.57211 0.90249 0.68486 0.0
C901 C 0.58396 0.90294 0.73994 0.0
C902 C 0.57645 0.88379 0.78083 0.0
C903 C 0.55768 0.86466 0.76692 0.0
H904 H 0.0323 0.13345 0.96036 0.0
H905 H 0.07201 0.14752 0.12316 0.0
H906 H 0.06454 0.09952 0.93694 0.0
H907 H 0.10467 0.11435 0.09836 0.0
H908 H 0.1738 0.07678 0.9959 0.0
H909 H 0.14048 0.10951 0.02125 0.0
H910 H 0.07915 0.05434 0.9762 0.0
H911 H 0.11253 0.02154 0.95088 0.0
C912 C 0.04772 0.12925 0.99139 0.0
C913 C 0.04951 0.14341 0.04364 0.0
C914 C 0.06623 0.10986 0.97779 0.0
C915 C 0.08714 0.10441 0.01574 0.0
C916 C 0.08894 0.11841 0.06795 0.0
C917 C 0.07027 0.13753 0.08194 0.0
C918 C 0.1532 0.0717 0.99134 0.0
C919 C 0.14572 0.04667 0.97141 0.0
C920 C 0.13416 0.09033 0.00619 0.0
C921 C 0.10726 0.08444 1.00064 0.0
C922 C 0.09976 0.05944 0.98052 0.0
C923 C 0.11881 0.04064 0.96648 0.0
H924 H 0.92841 0.66936 0.21101 0.0
H925 H 0.99113 0.61307 0.23523 0.0
H926 H 0.89615 0.63547 0.23369 0.0
H927 H 0.9587 0.57882 0.25574 0.0
H928 H 0.89365 0.53316 0.35328 0.0
H929 H 0.92698 0.56606 0.32984 0.0
H930 H 0.87763 0.59579 0.1922 0.0
H931 H 0.84431 0.56294 0.2157 0.0
C932 C 0.93534 0.64977 0.22139 0.0
C933 C 0.9624 0.64399 0.22155 0.0
C934 C 0.9168 0.63023 0.23363 0.0
C935 C 0.92481 0.60438 0.2463 0.0
C936 C 0.95187 0.59858 0.24663 0.0
C937 C 0.97044 0.61815 0.2343 0.0
C938 C 0.89006 0.5465 0.31755 0.0
C939 C 0.86626 0.54547 0.2865 0.0
C940 C 0.90917 0.56538 0.30412 0.0
C941 C 0.90494 0.58366 0.25932 0.0
C942 C 0.88132 0.58233 0.22768 0.0
C943 C 0.86222 0.56348 0.24112 0.0
H944 H 0.34529 0.07809 0.84495 0.0
H945 H 0.38816 0.01878 0.74984 0.0
H946 H 0.37849 0.11053 0.81969 0.0
H947 H 0.42226 0.05093 0.72751 0.0
H948 H 0.46264 0.12248 0.64428 0.0
H949 H 0.43019 0.08899 0.66946 0.0
H950 H 0.42255 0.12308 0.84008 0.0
H951 H 0.45454 0.15688 0.8142 0.0
C952 C 0.36178 0.07192 0.8186 0.0
C953 C 0.36389 0.04577 0.79922 0.0
C954 C 0.38109 0.09049 0.80484 0.0
C955 C 0.40318 0.08339 0.7717 0.0
C956 C 0.4054 0.0572 0.75257 0.0
C957 C 0.38598 0.03864 0.76605 0.0
C958 C 0.45419 0.12263 0.68733 0.0
C959 C 0.46107 0.14236 0.7272 0.0
C960 C 0.43561 0.1034 0.70186 0.0
C961 C 0.42362 0.10333 0.75679 0.0
C962 C 0.43095 0.12281 0.797 0.0
C963 C 0.44935 0.14215 0.78228 0.0
H964 H 0.89246 0.97782 0.90866 0.0
H965 H 0.84211 0.94625 0.04236 0.0
H966 H 0.92598 0.94519 0.93257 0.0
H967 H 0.8757 0.91393 0.06701 0.0
H968 H 0.92718 0.84133 0.0513 0.0
H969 H 0.89491 0.87496 0.02806 0.0
H970 H 0.95737 0.93175 0.0047 0.0
H971 H 0.98985 0.89764 0.025 0.0
C972 C 0.88871 0.96414 0.94371 0.0
C973 C 0.86458 0.96452 0.97341 0.0
C974 C 0.90794 0.94544 0.95749 0.0
C975 C 0.90352 0.92678 1.00151 0.0
C976 C 0.87958 0.92761 0.03204 0.0
C977 C 0.86033 0.94618 0.01804 0.0
C978 C 0.93412 0.86087 0.04041 0.0
C979 C 0.96119 0.86667 0.03974 0.0
C980 C 0.91554 0.88031 0.02793 0.0
C981 C 0.92348 0.90616 0.01477 0.0
C982 C 0.95055 0.91201 0.01412 0.0
C983 C 0.96917 0.8925 0.02643 0.0
H984 H 0.05305 0.37515 0.13042 0.0
H985 H 0.04294 0.35825 0.31216 0.0
H986 H 0.08439 0.40982 0.15406 0.0
H987 H 0.07517 0.39214 0.33622 0.0
H988 H 0.11752 0.46916 0.36606 0.0
H989 H 0.08376 0.43735 0.34067 0.0
H990 H 0.12729 0.41673 0.18646 0.0
H991 H 0.15987 0.45003 0.20933 0.0
C992 C 0.05774 0.37877 0.17548 0.0
C993 C 0.04562 0.364 0.21945 0.0
C994 C 0.07583 0.39855 0.18914 0.0
C995 C 0.08258 0.40382 0.24714 0.0
C996 C 0.07023 0.38906 0.29113 0.0
C997 C 0.05182 0.36953 0.27743 0.0
C998 C 0.11968 0.45826 0.32608 0.0
C999 C 0.14157 0.46235 0.28981 0.0
C1000 C 0.10046 0.43961 0.31198 0.0
C1001 C 0.1027 0.42425 0.26155 0.0
C1002 C 0.12456 0.42837 0.22524 0.0
C1003 C 0.14359 0.44726 0.23893 0.0
H1004 H 0.53977 0.6185 0.61591 0.0
H1005 H 0.56011 0.65983 0.45851 0.0
H1006 H 0.57147 0.58426 0.59228 0.0
H1007 H 0.59279 0.62634 0.43648 0.0
H1008 H 0.63121 0.54958 0.38401 0.0
H1009 H 0.59715 0.58154 0.40667 0.0
H1010 H 0.61805 0.57721 0.58784 0.0
H1011 H 0.65119 0.54414 0.56555 0.0
C1012 C 0.55091 0.62026 0.57613 0.0
C1013 C 0.54731 0.64197 0.53911 0.0
C1014 C 0.56938 0.60077 0.56298 0.0
C1015 C 0.58479 0.60253 0.51255 0.0
C1016 C 0.58107 0.62415 0.47535 0.0
C1017 C 0.56254 0.64358 0.48839 0.0
C1018 C 0.62828 0.55508 0.42883 0.0
C1019 C 0.64397 0.54418 0.47295 0.0
C1020 C 0.60896 0.57373 0.44174 0.0
C1021 C 0.60488 0.58209 0.49907 0.0
C1022 C 0.62043 0.57105 0.54327 0.0
C1023 C 0.63969 0.55231 0.53038 0.0
loop_
_geom_bond_atom_site_label_1
_geom_bond_atom_site_label_2
_geom_bond_distance
_geom_bond_site_symmetry_2
_ccdc_geom_bond_type
Li0 N17 1.990 . S
Li0 O60 1.956 . S
Li0 O61 1.970 . S
Li0 O62 1.961 . S
Li1 N25 1.990 . S
Li1 O60 1.970 . S
Li1 O61 1.956 . S
Li1 O63 1.961 . S
Li2 N47 1.990 . S
Li2 O60 1.961 . S
Li2 O62 1.956 . S
Li2 O63 1.970 . S
Li3 N53 1.990 . S
Li3 O61 1.961 . S
Li3 O62 1.970 . S
Li3 O63 1.956 . S
C4 C6 1.348 . S
C4 C7 1.356 . S
C4 O60 1.325 . S
N5 C8 1.314 . S
N5 C9 1.279 . S
C6 C4 1.348 . S
C6 C8 1.353 . S
C6 H64 0.929 . S
C7 C4 1.356 . S
C7 C9 1.358 . S
C7 H65 0.930 . S
C8 N5 1.314 . S
C8 C6 1.353 . S
C8 H66 0.930 . S
C9 N5 1.279 . S
C9 C7 1.358 . S
C9 H67 0.930 . S
C10 C13 1.348 . S
C10 C14 1.356 . S
C10 O61 1.325 . S
C11 N12 1.279 . S
C11 C14 1.358 . S
C11 H68 0.930 . S
N12 C11 1.279 . S
N12 C15 1.314 . S
C13 C10 1.348 . S
C13 C15 1.353 . S
C13 H69 0.929 . S
C14 C10 1.356 . S
C14 C11 1.358 . S
C14 H70 0.930 . S
C15 N12 1.314 . S
C15 C13 1.353 . S
C15 H71 0.930 . S
C16 N17 1.314 . S
C16 C21 1.353 . S
C16 H22 0.930 . S
N17 Li0 1.990 . S
N17 C16 1.314 . S
N17 C19 1.279 . S
C18 C19 1.358 . S
C18 C20 1.356 . S
C18 H72 0.930 . S
C19 N17 1.279 . S
C19 C18 1.358 . S
C19 H23 0.930 . S
C20 C18 1.356 . S
C20 C21 1.348 . S
C21 C16 1.353 . S
C21 C20 1.348 . S
C21 H73 0.929 . S
H22 C16 0.930 . S
H23 C19 0.930 . S
C24 N25 1.314 . S
C24 C26 1.353 . S
C24 H30 0.930 . S
N25 Li1 1.990 . S
N25 C24 1.314 . S
N25 C28 1.279 . S
C26 C24 1.353 . S
C26 C29 1.348 . S
C26 H74 0.929 . S
C27 C28 1.358 . S
C27 C29 1.356 . S
C27 H75 0.930 . S
C28 N25 1.279 . S
C28 C27 1.358 . S
C28 H31 0.930 . S
C29 C26 1.348 . S
C29 C27 1.356 . S
H30 C24 0.930 . S
H31 C28 0.930 . S
C32 C34 1.348 . S
C32 C35 1.356 . S
C32 O62 1.325 . S
N33 C36 1.314 . S
N33 C37 1.279 . S
C34 C32 1.348 . S
C34 C36 1.353 . S
C34 H76 0.929 . S
C35 C32 1.356 . S
C35 C37 1.358 . S
C35 H77 0.930 . S
C36 N33 1.314 . S
C36 C34 1.353 . S
C36 H78 0.930 . S
C37 N33 1.279 . S
C37 C35 1.358 . S
C37 H79 0.930 . S
C38 C39 1.348 . S
C38 C40 1.356 . S
C38 O63 1.325 . S
C39 C38 1.348 . S
C39 C41 1.353 . S
C39 H80 0.929 . S
C40 C38 1.356 . S
C40 C42 1.358 . S
C40 H81 0.930 . S
C41 C39 1.353 . S
C41 N43 1.314 . S
C41 H82 0.930 . S
C42 C40 1.358 . S
C42 N43 1.279 . S
C42 H83 0.930 . S
N43 C41 1.314 . S
N43 C42 1.279 . S
C44 C46 1.353 . S
C44 N47 1.314 . S
C44 H50 0.930 . S
C45 N47 1.279 . S
C45 C48 1.358 . S
C45 H51 0.930 . S
C46 C44 1.353 . S
C46 C49 1.348 . S
C46 H84 0.929 . S
N47 Li2 1.990 . S
N47 C44 1.314 . S
N47 C45 1.279 . S
C48 C45 1.358 . S
C48 C49 1.356 . S
C48 H85 0.930 . S
C49 C46 1.348 . S
C49 C48 1.356 . S
H50 C44 0.930 . S
H51 C45 0.930 . S
C52 N53 1.314 . S
C52 C54 1.353 . S
C52 H58 0.930 . S
N53 Li3 1.990 . S
N53 C52 1.314 . S
N53 C56 1.279 . S
C54 C52 1.353 . S
C54 C57 1.348 . S
C54 H86 0.929 . S
C55 C56 1.358 . S
C55 C57 1.356 . S
C55 H87 0.930 . S
C56 N53 1.279 . S
C56 C55 1.358 . S
C56 H59 0.930 . S
C57 C54 1.348 . S
C57 C55 1.356 . S
H58 C52 0.930 . S
H59 C56 0.930 . S
O60 Li0 1.956 . S
O60 Li1 1.970 . S
O60 Li2 1.961 . S
O60 C4 1.325 . S
O61 Li0 1.970 . S
O61 Li1 1.956 . S
O61 Li3 1.961 . S
O61 C10 1.325 . S
O62 Li0 1.961 . S
O62 Li2 1.956 . S
O62 Li3 1.970 . S
O62 C32 1.325 . S
O63 Li1 1.961 . S
O63 Li2 1.970 . S
O63 Li3 1.956 . S
O63 C38 1.325 . S
H64 C6 0.929 . S
H65 C7 0.930 . S
H66 C8 0.930 . S
H67 C9 0.930 . S
H68 C11 0.930 . S
H69 C13 0.929 . S
H70 C14 0.930 . S
H71 C15 0.930 . S
H72 C18 0.930 . S
H73 C21 0.929 . S
H74 C26 0.929 . S
H75 C27 0.930 . S
H76 C34 0.929 . S
H77 C35 0.930 . S
H78 C36 0.930 . S
H79 C37 0.930 . S
H80 C39 0.929 . S
H81 C40 0.930 . S
H82 C41 0.930 . S
H83 C42 0.930 . S
H84 C46 0.929 . S
H85 C48 0.930 . S
H86 C54 0.929 . S
H87 C55 0.930 . S
Li88 N105 1.990 . S
Li88 O148 1.956 . S
Li88 O149 1.970 . S
Li88 O150 1.961 . S
Li89 N113 1.990 . S
Li89 O148 1.970 . S
Li89 O149 1.956 . S
Li89 O151 1.961 . S
Li90 N135 1.990 . S
Li90 O148 1.961 . S
Li90 O150 1.956 . S
Li90 O151 1.970 . S
Li91 N141 1.990 . S
Li91 O149 1.961 . S
Li91 O150 1.970 . S
Li91 O151 1.956 . S
C92 C94 1.348 . S
C92 C95 1.356 . S
C92 O148 1.325 . S
N93 C96 1.314 . S
N93 C97 1.279 . S
C94 C92 1.348 . S
C94 C96 1.353 . S
C94 H152 0.929 . S
C95 C92 1.356 . S
C95 C97 1.358 . S
C95 H153 0.930 . S
C96 N93 1.314 . S
C96 C94 1.353 . S
C96 H154 0.930 . S
C97 N93 1.279 . S
C97 C95 1.358 . S
C97 H155 0.930 . S
C98 C101 1.348 . S
C98 C102 1.356 . S
C98 O149 1.325 . S
C99 N100 1.279 . S
C99 C102 1.358 . S
C99 H156 0.930 . S
N100 C99 1.279 . S
N100 C103 1.314 . S
C101 C98 1.348 . S
C101 C103 1.353 . S
C101 H157 0.929 . S
C102 C98 1.356 . S
C102 C99 1.358 . S
C102 H158 0.930 . S
C103 N100 1.314 . S
C103 C101 1.353 . S
C103 H159 0.930 . S
C104 N105 1.314 . S
C104 C109 1.353 . S
C104 H110 0.930 . S
N105 Li88 1.990 . S
N105 C104 1.314 . S
N105 C107 1.279 . S
C106 C107 1.358 . S
C106 C108 1.356 . S
C106 H160 0.930 . S
C107 N105 1.279 . S
C107 C106 1.358 . S
C107 H111 0.930 . S
C108 C106 1.356 . S
C108 C109 1.348 . S
C109 C104 1.353 . S
C109 C108 1.348 . S
C109 H161 0.929 . S
H110 C104 0.930 . S
H111 C107 0.930 . S
C112 N113 1.314 . S
C112 C114 1.353 . S
C112 H118 0.930 . S
N113 Li89 1.990 . S
N113 C112 1.314 . S
N113 C116 1.279 . S
C114 C112 1.353 . S
C114 C117 1.348 . S
C114 H162 0.929 . S
C115 C116 1.358 . S
C115 C117 1.356 . S
C115 H163 0.930 . S
C116 N113 1.279 . S
C116 C115 1.358 . S
C116 H119 0.930 . S
C117 C114 1.348 . S
C117 C115 1.356 . S
H118 C112 0.930 . S
H119 C116 0.930 . S
C120 C122 1.348 . S
C120 C123 1.356 . S
C120 O150 1.325 . S
N121 C124 1.314 . S
N121 C125 1.279 . S
C122 C120 1.348 . S
C122 C124 1.353 . S
C122 H164 0.929 . S
C123 C120 1.356 . S
C123 C125 1.358 . S
C123 H165 0.930 . S
C124 N121 1.314 . S
C124 C122 1.353 . S
C124 H166 0.930 . S
C125 N121 1.279 . S
C125 C123 1.358 . S
C125 H167 0.930 . S
C126 C127 1.348 . S
C126 C128 1.356 . S
C126 O151 1.325 . S
C127 C126 1.348 . S
C127 C129 1.353 . S
C127 H168 0.929 . S
C128 C126 1.356 . S
C128 C130 1.358 . S
C128 H169 0.930 . S
C129 C127 1.353 . S
C129 N131 1.314 . S
C129 H170 0.930 . S
C130 C128 1.358 . S
C130 N131 1.279 . S
C130 H171 0.930 . S
N131 C129 1.314 . S
N131 C130 1.279 . S
C132 C134 1.353 . S
C132 N135 1.314 . S
C132 H138 0.930 . S
C133 N135 1.279 . S
C133 C136 1.358 . S
C133 H139 0.930 . S
C134 C132 1.353 . S
C134 C137 1.348 . S
C134 H172 0.929 . S
N135 Li90 1.990 . S
N135 C132 1.314 . S
N135 C133 1.279 . S
C136 C133 1.358 . S
C136 C137 1.356 . S
C136 H173 0.930 . S
C137 C134 1.348 . S
C137 C136 1.356 . S
H138 C132 0.930 . S
H139 C133 0.930 . S
C140 N141 1.314 . S
C140 C142 1.353 . S
C140 H146 0.930 . S
N141 Li91 1.990 . S
N141 C140 1.314 . S
N141 C144 1.279 . S
C142 C140 1.353 . S
C142 C145 1.348 . S
C142 H174 0.929 . S
C143 C144 1.358 . S
C143 C145 1.356 . S
C143 H175 0.930 . S
C144 N141 1.279 . S
C144 C143 1.358 . S
C144 H147 0.930 . S
C145 C142 1.348 . S
C145 C143 1.356 . S
H146 C140 0.930 . S
H147 C144 0.930 . S
O148 Li88 1.956 . S
O148 Li89 1.970 . S
O148 Li90 1.961 . S
O148 C92 1.325 . S
O149 Li88 1.970 . S
O149 Li89 1.956 . S
O149 Li91 1.961 . S
O149 C98 1.325 . S
O150 Li88 1.961 . S
O150 Li90 1.956 . S
O150 Li91 1.970 . S
O150 C120 1.325 . S
O151 Li89 1.961 . S
O151 Li90 1.970 . S
O151 Li91 1.956 . S
O151 C126 1.325 . S
H152 C94 0.929 . S
H153 C95 0.930 . S
H154 C96 0.930 . S
H155 C97 0.930 . S
H156 C99 0.930 . S
H157 C101 0.929 . S
H158 C102 0.930 . S
H159 C103 0.930 . S
H160 C106 0.930 . S
H161 C109 0.929 . S
H162 C114 0.929 . S
H163 C115 0.930 . S
H164 C122 0.929 . S
H165 C123 0.930 . S
H166 C124 0.930 . S
H167 C125 0.930 . S
H168 C127 0.929 . S
H169 C128 0.930 . S
H170 C129 0.930 . S
H171 C130 0.930 . S
H172 C134 0.929 . S
H173 C136 0.930 . S
H174 C142 0.929 . S
H175 C143 0.930 . S
Li176 N193 1.990 . S
Li176 O236 1.956 . S
Li176 O237 1.970 . S
Li176 O238 1.961 . S
Li177 N201 1.990 . S
Li177 O236 1.970 . S
Li177 O237 1.956 . S
Li177 O239 1.961 . S
Li178 N223 1.990 . S
Li178 O236 1.961 . S
Li178 O238 1.956 . S
Li178 O239 1.970 . S
Li179 N229 1.990 . S
Li179 O237 1.961 . S
Li179 O238 1.970 . S
Li179 O239 1.956 . S
C180 C182 1.348 . S
C180 C183 1.356 . S
C180 O236 1.325 . S
N181 C184 1.314 . S
N181 C185 1.279 . S
C182 C180 1.348 . S
C182 C184 1.353 . S
C182 H240 0.929 . S
C183 C180 1.356 . S
C183 C185 1.358 . S
C183 H241 0.930 . S
C184 N181 1.314 . S
C184 C182 1.353 . S
C184 H242 0.930 . S
C185 N181 1.279 . S
C185 C183 1.358 . S
C185 H243 0.930 . S
C186 C189 1.348 . S
C186 C190 1.356 1_556 S
C186 O237 1.325 . S
C187 N188 1.279 1_565 S
C187 C190 1.358 . S
C187 H244 0.934 . S
N188 C187 1.279 1_545 S
N188 C191 1.314 . S
C189 C186 1.348 . S
C189 C191 1.353 1_566 S
C189 H245 0.929 . S
C190 C186 1.356 1_554 S
C190 C187 1.358 . S
C190 H246 0.930 . S
C191 N188 1.314 . S
C191 C189 1.353 1_544 S
C191 H247 0.930 . S
C192 N193 1.314 1_545 S
C192 C197 1.353 . S
C192 H198 0.930 . S
N193 Li176 1.990 . S
N193 C192 1.314 1_565 S
N193 C195 1.279 . S
C194 C195 1.358 . S
C194 C196 1.356 1_565 S
C194 H248 0.930 . S
C195 N193 1.279 . S
C195 C194 1.358 . S
C195 H199 0.930 . S
C196 C194 1.356 1_545 S
C196 C197 1.348 . S
C197 C192 1.353 . S
C197 C196 1.348 . S
C197 H249 0.929 . S
H198 C192 0.930 . S
H199 C195 0.930 . S
C200 N201 1.314 . S
C200 C202 1.353 1_556 S
C200 H206 0.930 . S
N201 Li177 1.990 . S
N201 C200 1.314 . S
N201 C204 1.279 1_556 S
C202 C200 1.353 1_554 S
C202 C205 1.348 . S
C202 H250 0.929 . S
C203 C204 1.358 . S
C203 C205 1.356 . S
C203 H251 0.930 . S
C204 N201 1.279 1_554 S
C204 C203 1.358 . S
C204 H207 0.930 . S
C205 C202 1.348 . S
C205 C203 1.356 . S
H206 C200 0.930 . S
H207 C204 0.930 . S
C208 C210 1.348 . S
C208 C211 1.356 . S
C208 O238 1.325 . S
N209 C212 1.314 . S
N209 C213 1.279 1_545 S
C210 C208 1.348 . S
C210 C212 1.353 1_565 S
C210 H252 0.929 . S
C211 C208 1.356 . S
C211 C213 1.358 . S
C211 H253 0.930 . S
C212 N209 1.314 . S
C212 C210 1.353 1_545 S
C212 H254 0.930 . S
C213 N209 1.279 1_565 S
C213 C211 1.358 . S
C213 H255 0.934 . S
C214 C215 1.348 . S
C214 C216 1.356 . S
C214 O239 1.325 . S
C215 C214 1.348 . S
C215 C217 1.353 . S
C215 H256 0.929 . S
C216 C214 1.356 . S
C216 C218 1.358 . S
C216 H257 0.930 1_556 S
C217 C215 1.353 . S
C217 N219 1.314 . S
C217 H258 0.930 . S
C218 C216 1.358 . S
C218 N219 1.279 . S
C218 H259 0.930 1_556 S
N219 C217 1.314 . S
N219 C218 1.279 . S
C220 C222 1.353 . S
C220 N223 1.314 . S
C220 H226 0.930 . S
C221 N223 1.279 . S
C221 C224 1.358 . S
C221 H227 0.930 . S
C222 C220 1.353 . S
C222 C225 1.348 . S
C222 H260 0.929 . S
N223 Li178 1.990 . S
N223 C220 1.314 . S
N223 C221 1.279 . S
C224 C221 1.358 . S
C224 C225 1.356 . S
C224 H261 0.930 . S
C225 C222 1.348 . S
C225 C224 1.356 . S
H226 C220 0.930 . S
H227 C221 0.930 . S
C228 N229 1.314 1_545 S
C228 C230 1.353 . S
C228 H234 0.930 . S
N229 Li179 1.990 . S
N229 C228 1.314 1_565 S
N229 C232 1.279 . S
C230 C228 1.353 . S
C230 C233 1.348 . S
C230 H262 0.929 . S
C231 C232 1.358 . S
C231 C233 1.356 1_565 S
C231 H263 0.930 . S
C232 N229 1.279 . S
C232 C231 1.358 . S
C232 H235 0.930 . S
C233 C230 1.348 . S
C233 C231 1.356 1_545 S
H234 C228 0.930 . S
H235 C232 0.930 . S
O236 Li176 1.956 . S
O236 Li177 1.970 . S
O236 Li178 1.961 . S
O236 C180 1.325 . S
O237 Li176 1.970 . S
O237 Li177 1.956 . S
O237 Li179 1.961 . S
O237 C186 1.325 . S
O238 Li176 1.961 . S
O238 Li178 1.956 . S
O238 Li179 1.970 . S
O238 C208 1.325 . S
O239 Li177 1.961 . S
O239 Li178 1.970 . S
O239 Li179 1.956 . S
O239 C214 1.325 . S
H240 C182 0.929 . S
H241 C183 0.930 . S
H242 C184 0.930 . S
H243 C185 0.930 . S
H244 C187 0.934 . S
H245 C189 0.929 . S
H246 C190 0.930 . S
H247 C191 0.930 . S
H248 C194 0.930 . S
H249 C197 0.929 . S
H250 C202 0.929 . S
H251 C203 0.930 . S
H252 C210 0.929 . S
H253 C211 0.930 . S
H254 C212 0.930 . S
H255 C213 0.934 . S
H256 C215 0.929 . S
H257 C216 0.930 1_554 S
H258 C217 0.930 . S
H259 C218 0.930 1_554 S
H260 C222 0.929 . S
H261 C224 0.930 . S
H262 C230 0.929 . S
H263 C231 0.930 . S
Li264 N281 1.990 . S
Li264 O324 1.956 . S
Li264 O325 1.970 . S
Li264 O326 1.961 . S
Li265 N289 1.990 . S
Li265 O324 1.970 . S
Li265 O325 1.956 . S
Li265 O327 1.961 . S
Li266 N311 1.990 . S
Li266 O324 1.961 . S
Li266 O326 1.956 . S
Li266 O327 1.970 . S
Li267 N317 1.990 . S
Li267 O325 1.961 . S
Li267 O326 1.970 . S
Li267 O327 1.956 . S
C268 C270 1.348 . S
C268 C271 1.356 . S
C268 O324 1.325 . S
N269 C272 1.314 . S
N269 C273 1.279 . S
C270 C268 1.348 . S
C270 C272 1.353 . S
C270 H328 0.929 . S
C271 C268 1.356 . S
C271 C273 1.358 . S
C271 H329 0.930 1_554 S
C272 N269 1.314 . S
C272 C270 1.353 . S
C272 H330 0.930 . S
C273 N269 1.279 . S
C273 C271 1.358 . S
C273 H331 0.930 1_554 S
C274 C277 1.348 . S
C274 C278 1.356 . S
C274 O325 1.325 . S
C275 N276 1.279 1_455 S
C275 C278 1.358 . S
C275 H332 0.934 . S
N276 C275 1.279 1_655 S
N276 C279 1.314 . S
C277 C274 1.348 . S
C277 C279 1.353 1_455 S
C277 H333 0.929 . S
C278 C274 1.356 . S
C278 C275 1.358 . S
C278 H334 0.930 . S
C279 N276 1.314 . S
C279 C277 1.353 1_655 S
C279 H335 0.930 . S
C280 N281 1.314 1_655 S
C280 C285 1.353 . S
C280 H286 0.930 . S
N281 Li264 1.990 . S
N281 C280 1.314 1_455 S
N281 C283 1.279 . S
C282 C283 1.358 . S
C282 C284 1.356 1_455 S
C282 H336 0.930 . S
C283 N281 1.279 . S
C283 C282 1.358 . S
C283 H287 0.930 . S
C284 C282 1.356 1_655 S
C284 C285 1.348 . S
C285 C280 1.353 . S
C285 C284 1.348 . S
C285 H337 0.929 . S
H286 C280 0.930 . S
H287 C283 0.930 . S
C288 N289 1.314 . S
C288 C290 1.353 . S
C288 H294 0.930 . S
N289 Li265 1.990 . S
N289 C288 1.314 . S
N289 C292 1.279 . S
C290 C288 1.353 . S
C290 C293 1.348 . S
C290 H338 0.929 . S
C291 C292 1.358 . S
C291 C293 1.356 . S
C291 H339 0.930 . S
C292 N289 1.279 . S
C292 C291 1.358 . S
C292 H295 0.930 . S
C293 C290 1.348 . S
C293 C291 1.356 . S
H294 C288 0.930 . S
H295 C292 0.930 . S
C296 C298 1.348 . S
C296 C299 1.356 1_554 S
C296 O326 1.325 . S
N297 C300 1.314 . S
N297 C301 1.279 1_655 S
C298 C296 1.348 . S
C298 C300 1.353 1_454 S
C298 H340 0.929 . S
C299 C296 1.356 1_556 S
C299 C301 1.358 . S
C299 H341 0.930 . S
C300 N297 1.314 . S
C300 C298 1.353 1_656 S
C300 H342 0.930 . S
C301 N297 1.279 1_455 S
C301 C299 1.358 . S
C301 H343 0.934 . S
C302 C303 1.348 . S
C302 C304 1.356 . S
C302 O327 1.325 . S
C303 C302 1.348 . S
C303 C305 1.353 . S
C303 H344 0.929 . S
C304 C302 1.356 . S
C304 C306 1.358 . S
C304 H345 0.930 . S
C305 C303 1.353 . S
C305 N307 1.314 . S
C305 H346 0.930 . S
C306 C304 1.358 . S
C306 N307 1.279 . S
C306 H347 0.930 . S
N307 C305 1.314 . S
N307 C306 1.279 . S
C308 C310 1.353 1_554 S
C308 N311 1.314 . S
C308 H314 0.930 . S
C309 N311 1.279 1_556 S
C309 C312 1.358 . S
C309 H315 0.930 . S
C310 C308 1.353 1_556 S
C310 C313 1.348 . S
C310 H348 0.929 . S
N311 Li266 1.990 . S
N311 C308 1.314 . S
N311 C309 1.279 1_554 S
C312 C309 1.358 . S
C312 C313 1.356 . S
C312 H349 0.930 . S
C313 C310 1.348 . S
C313 C312 1.356 . S
H314 C308 0.930 . S
H315 C309 0.930 . S
C316 N317 1.314 1_655 S
C316 C318 1.353 . S
C316 H322 0.930 . S
N317 Li267 1.990 . S
N317 C316 1.314 1_455 S
N317 C320 1.279 . S
C318 C316 1.353 . S
C318 C321 1.348 . S
C318 H350 0.929 . S
C319 C320 1.358 . S
C319 C321 1.356 1_455 S
C319 H351 0.930 . S
C320 N317 1.279 . S
C320 C319 1.358 . S
C320 H323 0.930 . S
C321 C318 1.348 . S
C321 C319 1.356 1_655 S
H322 C316 0.930 . S
H323 C320 0.930 . S
O324 Li264 1.956 . S
O324 Li265 1.970 . S
O324 Li266 1.961 . S
O324 C268 1.325 . S
O325 Li264 1.970 . S
O325 Li265 1.956 . S
O325 Li267 1.961 . S
O325 C274 1.325 . S
O326 Li264 1.961 . S
O326 Li266 1.956 . S
O326 Li267 1.970 . S
O326 C296 1.325 . S
O327 Li265 1.961 . S
O327 Li266 1.970 . S
O327 Li267 1.956 . S
O327 C302 1.325 . S
H328 C270 0.929 . S
H329 C271 0.930 1_556 S
H330 C272 0.930 . S
H331 C273 0.930 1_556 S
H332 C275 0.934 . S
H333 C277 0.929 . S
H334 C278 0.930 . S
H335 C279 0.930 . S
H336 C282 0.930 . S
H337 C285 0.929 . S
H338 C290 0.929 . S
H339 C291 0.930 . S
H340 C298 0.929 . S
H341 C299 0.930 . S
H342 C300 0.930 . S
H343 C301 0.934 . S
H344 C303 0.929 . S
H345 C304 0.930 . S
H346 C305 0.930 . S
H347 C306 0.930 . S
H348 C310 0.929 . S
H349 C312 0.930 . S
H350 C318 0.929 . S
H351 C319 0.930 . S
Li352 N369 1.990 . S
Li352 O412 1.956 . S
Li352 O413 1.970 . S
Li352 O414 1.961 . S
Li353 N377 1.990 . S
Li353 O412 1.970 . S
Li353 O413 1.956 . S
Li353 O415 1.961 . S
Li354 N399 1.990 . S
Li354 O412 1.961 . S
Li354 O414 1.956 . S
Li354 O415 1.970 . S
Li355 N405 1.990 . S
Li355 O413 1.961 . S
Li355 O414 1.970 . S
Li355 O415 1.956 . S
C356 C358 1.348 . S
C356 C359 1.356 1_556 S
C356 O412 1.325 . S
N357 C360 1.314 . S
N357 C361 1.279 1_565 S
C358 C356 1.348 . S
C358 C360 1.353 1_546 S
C358 H416 0.929 . S
C359 C356 1.356 1_554 S
C359 C361 1.358 . S
C359 H417 0.930 . S
C360 N357 1.314 . S
C360 C358 1.353 1_564 S
C360 H418 0.930 . S
C361 N357 1.279 1_545 S
C361 C359 1.358 . S
C361 H419 0.934 . S
C362 C365 1.348 . S
C362 C366 1.356 . S
C362 O413 1.325 . S
C363 N364 1.279 . S
C363 C366 1.358 . S
C363 H420 0.930 . S
N364 C363 1.279 . S
N364 C367 1.314 . S
C365 C362 1.348 . S
C365 C367 1.353 . S
C365 H421 0.929 . S
C366 C362 1.356 . S
C366 C363 1.358 . S
C366 H422 0.930 . S
C367 N364 1.314 . S
C367 C365 1.353 . S
C367 H423 0.930 . S
C368 N369 1.314 . S
C368 C373 1.353 1_556 S
C368 H374 0.930 . S
N369 Li352 1.990 . S
N369 C368 1.314 . S
N369 C371 1.279 1_556 S
C370 C371 1.358 . S
C370 C372 1.356 . S
C370 H424 0.930 . S
C371 N369 1.279 1_554 S
C371 C370 1.358 . S
C371 H375 0.930 . S
C372 C370 1.356 . S
C372 C373 1.348 . S
C373 C368 1.353 1_554 S
C373 C372 1.348 . S
C373 H425 0.929 . S
H374 C368 0.930 . S
H375 C371 0.930 . S
C376 N377 1.314 1_565 S
C376 C378 1.353 . S
C376 H382 0.930 . S
N377 Li353 1.990 . S
N377 C376 1.314 1_545 S
N377 C380 1.279 . S
C378 C376 1.353 . S
C378 C381 1.348 . S
C378 H426 0.929 . S
C379 C380 1.358 . S
C379 C381 1.356 1_545 S
C379 H427 0.930 . S
C380 N377 1.279 . S
C380 C379 1.358 . S
C380 H383 0.930 . S
C381 C378 1.348 . S
C381 C379 1.356 1_565 S
H382 C376 0.930 . S
H383 C380 0.930 . S
C384 C386 1.348 . S
C384 C387 1.356 . S
C384 O414 1.325 . S
N385 C388 1.314 . S
N385 C389 1.279 . S
C386 C384 1.348 . S
C386 C388 1.353 . S
C386 H428 0.929 . S
C387 C384 1.356 . S
C387 C389 1.358 . S
C387 H429 0.930 1_556 S
C388 N385 1.314 . S
C388 C386 1.353 . S
C388 H430 0.930 . S
C389 N385 1.279 . S
C389 C387 1.358 . S
C389 H431 0.930 1_556 S
C390 C391 1.348 . S
C390 C392 1.356 . S
C390 O415 1.325 . S
C391 C390 1.348 . S
C391 C393 1.353 1_545 S
C391 H432 0.929 . S
C392 C390 1.356 . S
C392 C394 1.358 . S
C392 H433 0.930 . S
C393 C391 1.353 1_565 S
C393 N395 1.314 . S
C393 H434 0.930 . S
C394 C392 1.358 . S
C394 N395 1.279 1_545 S
C394 H435 0.934 . S
N395 C393 1.314 . S
N395 C394 1.279 1_565 S
C396 C398 1.353 . S
C396 N399 1.314 1_565 S
C396 H402 0.930 . S
C397 N399 1.279 . S
C397 C400 1.358 . S
C397 H403 0.930 . S
C398 C396 1.353 . S
C398 C401 1.348 . S
C398 H436 0.929 . S
N399 Li354 1.990 . S
N399 C396 1.314 1_545 S
N399 C397 1.279 . S
C400 C397 1.358 . S
C400 C401 1.356 1_545 S
C400 H437 0.930 . S
C401 C398 1.348 . S
C401 C400 1.356 1_565 S
H402 C396 0.930 . S
H403 C397 0.930 . S
C404 N405 1.314 . S
C404 C406 1.353 . S
C404 H410 0.930 . S
N405 Li355 1.990 . S
N405 C404 1.314 . S
N405 C408 1.279 . S
C406 C404 1.353 . S
C406 C409 1.348 . S
C406 H438 0.929 . S
C407 C408 1.358 . S
C407 C409 1.356 . S
C407 H439 0.930 . S
C408 N405 1.279 . S
C408 C407 1.358 . S
C408 H411 0.930 . S
C409 C406 1.348 . S
C409 C407 1.356 . S
H410 C404 0.930 . S
H411 C408 0.930 . S
O412 Li352 1.956 . S
O412 Li353 1.970 . S
O412 Li354 1.961 . S
O412 C356 1.325 . S
O413 Li352 1.970 . S
O413 Li353 1.956 . S
O413 Li355 1.961 . S
O413 C362 1.325 . S
O414 Li352 1.961 . S
O414 Li354 1.956 . S
O414 Li355 1.970 . S
O414 C384 1.325 . S
O415 Li353 1.961 . S
O415 Li354 1.970 . S
O415 Li355 1.956 . S
O415 C390 1.325 . S
H416 C358 0.929 . S
H417 C359 0.930 . S
H418 C360 0.930 . S
H419 C361 0.934 . S
H420 C363 0.930 . S
H421 C365 0.929 . S
H422 C366 0.930 . S
H423 C367 0.930 . S
H424 C370 0.930 . S
H425 C373 0.929 . S
H426 C378 0.929 . S
H427 C379 0.930 . S
H428 C386 0.929 . S
H429 C387 0.930 1_554 S
H430 C388 0.930 . S
H431 C389 0.930 1_554 S
H432 C391 0.929 . S
H433 C392 0.930 . S
H434 C393 0.930 . S
H435 C394 0.934 . S
H436 C398 0.929 . S
H437 C400 0.930 . S
H438 C406 0.929 . S
H439 C407 0.930 . S
Li440 N457 1.990 . S
Li440 O500 1.956 . S
Li440 O501 1.970 . S
Li440 O502 1.961 . S
Li441 N465 1.990 . S
Li441 O500 1.970 . S
Li441 O501 1.956 . S
Li441 O503 1.961 . S
Li442 N487 1.990 . S
Li442 O500 1.961 . S
Li442 O502 1.956 . S
Li442 O503 1.970 . S
Li443 N493 1.990 . S
Li443 O501 1.961 . S
Li443 O502 1.970 . S
Li443 O503 1.956 . S
C444 C446 1.348 . S
C444 C447 1.356 . S
C444 O500 1.325 . S
N445 C448 1.314 . S
N445 C449 1.279 1_455 S
C446 C444 1.348 . S
C446 C448 1.353 1_655 S
C446 H504 0.929 . S
C447 C444 1.356 . S
C447 C449 1.358 . S
C447 H505 0.930 . S
C448 N445 1.314 . S
C448 C446 1.353 1_455 S
C448 H506 0.930 . S
C449 N445 1.279 1_655 S
C449 C447 1.358 . S
C449 H507 0.934 . S
C450 C453 1.348 . S
C450 C454 1.356 . S
C450 O501 1.325 . S
C451 N452 1.279 . S
C451 C454 1.358 . S
C451 H508 0.930 1_554 S
N452 C451 1.279 . S
N452 C455 1.314 . S
C453 C450 1.348 . S
C453 C455 1.353 . S
C453 H509 0.929 . S
C454 C450 1.356 . S
C454 C451 1.358 . S
C454 H510 0.930 1_554 S
C455 N452 1.314 . S
C455 C453 1.353 . S
C455 H511 0.930 . S
C456 N457 1.314 . S
C456 C461 1.353 . S
C456 H462 0.930 . S
N457 Li440 1.990 . S
N457 C456 1.314 . S
N457 C459 1.279 . S
C458 C459 1.358 . S
C458 C460 1.356 . S
C458 H512 0.930 . S
C459 N457 1.279 . S
C459 C458 1.358 . S
C459 H463 0.930 . S
C460 C458 1.356 . S
C460 C461 1.348 . S
C461 C456 1.353 . S
C461 C460 1.348 . S
C461 H513 0.929 . S
H462 C456 0.930 . S
H463 C459 0.930 . S
C464 N465 1.314 1_455 S
C464 C466 1.353 . S
C464 H470 0.930 . S
N465 Li441 1.990 . S
N465 C464 1.314 1_655 S
N465 C468 1.279 . S
C466 C464 1.353 . S
C466 C469 1.348 . S
C466 H514 0.929 . S
C467 C468 1.358 . S
C467 C469 1.356 1_655 S
C467 H515 0.930 . S
C468 N465 1.279 . S
C468 C467 1.358 . S
C468 H471 0.930 . S
C469 C466 1.348 . S
C469 C467 1.356 1_455 S
H470 C464 0.930 . S
H471 C468 0.930 . S
C472 C474 1.348 . S
C472 C475 1.356 . S
C472 O502 1.325 . S
N473 C476 1.314 . S
N473 C477 1.279 . S
C474 C472 1.348 . S
C474 C476 1.353 . S
C474 H516 0.929 . S
C475 C472 1.356 . S
C475 C477 1.358 . S
C475 H517 0.930 . S
C476 N473 1.314 . S
C476 C474 1.353 . S
C476 H518 0.930 . S
C477 N473 1.279 . S
C477 C475 1.358 . S
C477 H519 0.930 . S
C478 C479 1.348 . S
C478 C480 1.356 1_554 S
C478 O503 1.325 . S
C479 C478 1.348 . S
C479 C481 1.353 1_654 S
C479 H520 0.929 . S
C480 C478 1.356 1_556 S
C480 C482 1.358 . S
C480 H521 0.930 . S
C481 C479 1.353 1_456 S
C481 N483 1.314 . S
C481 H522 0.930 . S
C482 C480 1.358 . S
C482 N483 1.279 1_655 S
C482 H523 0.934 . S
N483 C481 1.314 . S
N483 C482 1.279 1_455 S
C484 C486 1.353 . S
C484 N487 1.314 1_455 S
C484 H490 0.930 . S
C485 N487 1.279 . S
C485 C488 1.358 . S
C485 H491 0.930 . S
C486 C484 1.353 . S
C486 C489 1.348 . S
C486 H524 0.929 . S
N487 Li442 1.990 . S
N487 C484 1.314 1_655 S
N487 C485 1.279 . S
C488 C485 1.358 . S
C488 C489 1.356 1_655 S
C488 H525 0.930 . S
C489 C486 1.348 . S
C489 C488 1.356 1_455 S
H490 C484 0.930 . S
H491 C485 0.930 . S
C492 N493 1.314 . S
C492 C494 1.353 1_554 S
C492 H498 0.930 . S
N493 Li443 1.990 . S
N493 C492 1.314 . S
N493 C496 1.279 1_554 S
C494 C492 1.353 1_556 S
C494 C497 1.348 . S
C494 H526 0.929 . S
C495 C496 1.358 . S
C495 C497 1.356 . S
C495 H527 0.930 . S
C496 N493 1.279 1_556 S
C496 C495 1.358 . S
C496 H499 0.930 . S
C497 C494 1.348 . S
C497 C495 1.356 . S
H498 C492 0.930 . S
H499 C496 0.930 . S
O500 Li440 1.956 . S
O500 Li441 1.970 . S
O500 Li442 1.961 . S
O500 C444 1.325 . S
O501 Li440 1.970 . S
O501 Li441 1.956 . S
O501 Li443 1.961 . S
O501 C450 1.325 . S
O502 Li440 1.961 . S
O502 Li442 1.956 . S
O502 Li443 1.970 . S
O502 C472 1.325 . S
O503 Li441 1.961 . S
O503 Li442 1.970 . S
O503 Li443 1.956 . S
O503 C478 1.325 . S
H504 C446 0.929 . S
H505 C447 0.930 . S
H506 C448 0.930 . S
H507 C449 0.934 . S
H508 C451 0.930 1_556 S
H509 C453 0.929 . S
H510 C454 0.930 1_556 S
H511 C455 0.930 . S
H512 C458 0.930 . S
H513 C461 0.929 . S
H514 C466 0.929 . S
H515 C467 0.930 . S
H516 C474 0.929 . S
H517 C475 0.930 . S
H518 C476 0.930 . S
H519 C477 0.930 . S
H520 C479 0.929 . S
H521 C480 0.930 . S
H522 C481 0.930 . S
H523 C482 0.934 . S
H524 C486 0.929 . S
H525 C488 0.930 . S
H526 C494 0.929 . S
H527 C495 0.930 . S
Li528 N545 1.990 . S
Li528 O588 1.956 . S
Li528 O589 1.970 . S
Li528 O590 1.961 . S
Li529 N553 1.990 . S
Li529 O588 1.970 . S
Li529 O589 1.956 . S
Li529 O591 1.961 . S
Li530 N575 1.990 . S
Li530 O588 1.961 . S
Li530 O590 1.956 . S
Li530 O591 1.970 . S
Li531 N581 1.990 . S
Li531 O589 1.961 . S
Li531 O590 1.970 . S
Li531 O591 1.956 . S
C532 C534 1.348 . S
C532 C535 1.356 . S
C532 O588 1.325 . S
N533 C536 1.314 . S
N533 C537 1.279 . S
C534 C532 1.348 . S
C534 C536 1.353 . S
C534 H592 0.929 . S
C535 C532 1.356 . S
C535 C537 1.358 . S
C535 H593 0.930 . S
C536 N533 1.314 . S
C536 C534 1.353 . S
C536 H594 0.930 . S
C537 N533 1.279 . S
C537 C535 1.358 . S
C537 H595 0.930 . S
C538 C541 1.348 . S
C538 C542 1.356 . S
C538 O589 1.325 . S
C539 N540 1.279 . S
C539 C542 1.358 . S
C539 H596 0.930 . S
N540 C539 1.279 . S
N540 C543 1.314 . S
C541 C538 1.348 . S
C541 C543 1.353 . S
C541 H597 0.929 . S
C542 C538 1.356 . S
C542 C539 1.358 . S
C542 H598 0.930 . S
C543 N540 1.314 . S
C543 C541 1.353 . S
C543 H599 0.930 . S
C544 N545 1.314 . S
C544 C549 1.353 . S
C544 H550 0.930 . S
N545 Li528 1.990 . S
N545 C544 1.314 . S
N545 C547 1.279 . S
C546 C547 1.358 . S
C546 C548 1.356 . S
C546 H600 0.930 . S
C547 N545 1.279 . S
C547 C546 1.358 . S
C547 H551 0.930 . S
C548 C546 1.356 . S
C548 C549 1.348 . S
C549 C544 1.353 . S
C549 C548 1.348 . S
C549 H601 0.929 . S
H550 C544 0.930 . S
H551 C547 0.930 . S
C552 N553 1.314 . S
C552 C554 1.353 . S
C552 H558 0.930 . S
N553 Li529 1.990 . S
N553 C552 1.314 . S
N553 C556 1.279 . S
C554 C552 1.353 . S
C554 C557 1.348 . S
C554 H602 0.929 . S
C555 C556 1.358 . S
C555 C557 1.356 . S
C555 H603 0.930 . S
C556 N553 1.279 . S
C556 C555 1.358 . S
C556 H559 0.930 . S
C557 C554 1.348 . S
C557 C555 1.356 . S
H558 C552 0.930 . S
H559 C556 0.930 . S
C560 C562 1.348 . S
C560 C563 1.356 . S
C560 O590 1.325 . S
N561 C564 1.314 . S
N561 C565 1.279 . S
C562 C560 1.348 . S
C562 C564 1.353 . S
C562 H604 0.929 . S
C563 C560 1.356 . S
C563 C565 1.358 . S
C563 H605 0.930 . S
C564 N561 1.314 . S
C564 C562 1.353 . S
C564 H606 0.930 . S
C565 N561 1.279 . S
C565 C563 1.358 . S
C565 H607 0.930 . S
C566 C567 1.348 . S
C566 C568 1.356 . S
C566 O591 1.325 . S
C567 C566 1.348 . S
C567 C569 1.353 . S
C567 H608 0.929 . S
C568 C566 1.356 . S
C568 C570 1.358 . S
C568 H609 0.930 . S
C569 C567 1.353 . S
C569 N571 1.314 . S
C569 H610 0.930 . S
C570 C568 1.358 . S
C570 N571 1.279 . S
C570 H611 0.930 . S
N571 C569 1.314 . S
N571 C570 1.279 . S
C572 C574 1.353 . S
C572 N575 1.314 . S
C572 H578 0.930 . S
C573 N575 1.279 . S
C573 C576 1.358 . S
C573 H579 0.930 . S
C574 C572 1.353 . S
C574 C577 1.348 . S
C574 H612 0.929 . S
N575 Li530 1.990 . S
N575 C572 1.314 . S
N575 C573 1.279 . S
C576 C573 1.358 . S
C576 C577 1.356 . S
C576 H613 0.930 . S
C577 C574 1.348 . S
C577 C576 1.356 . S
H578 C572 0.930 . S
H579 C573 0.930 . S
C580 N581 1.314 . S
C580 C582 1.353 . S
C580 H586 0.930 . S
N581 Li531 1.990 . S
N581 C580 1.314 . S
N581 C584 1.279 . S
C582 C580 1.353 . S
C582 C585 1.348 . S
C582 H614 0.929 . S
C583 C584 1.358 . S
C583 C585 1.356 . S
C583 H615 0.930 . S
C584 N581 1.279 . S
C584 C583 1.358 . S
C584 H587 0.930 . S
C585 C582 1.348 . S
C585 C583 1.356 . S
H586 C580 0.930 . S
H587 C584 0.930 . S
O588 Li528 1.956 . S
O588 Li529 1.970 . S
O588 Li530 1.961 . S
O588 C532 1.325 . S
O589 Li528 1.970 . S
O589 Li529 1.956 . S
O589 Li531 1.961 . S
O589 C538 1.325 . S
O590 Li528 1.961 . S
O590 Li530 1.956 . S
O590 Li531 1.970 . S
O590 C560 1.325 . S
O591 Li529 1.961 . S
O591 Li530 1.970 . S
O591 Li531 1.956 . S
O591 C566 1.325 . S
H592 C534 0.929 . S
H593 C535 0.930 . S
H594 C536 0.930 . S
H595 C537 0.930 . S
H596 C539 0.930 . S
H597 C541 0.929 . S
H598 C542 0.930 . S
H599 C543 0.930 . S
H600 C546 0.930 . S
H601 C549 0.929 . S
H602 C554 0.929 . S
H603 C555 0.930 . S
H604 C562 0.929 . S
H605 C563 0.930 . S
H606 C564 0.930 . S
H607 C565 0.930 . S
H608 C567 0.929 . S
H609 C568 0.930 . S
H610 C569 0.930 . S
H611 C570 0.930 . S
H612 C574 0.929 . S
H613 C576 0.930 . S
H614 C582 0.929 . S
H615 C583 0.930 . S
Li616 N633 1.990 . S
Li616 O676 1.956 . S
Li616 O677 1.970 . S
Li616 O678 1.961 . S
Li617 N641 1.990 . S
Li617 O676 1.970 . S
Li617 O677 1.956 . S
Li617 O679 1.961 . S
Li618 N663 1.990 . S
Li618 O676 1.961 . S
Li618 O678 1.956 . S
Li618 O679 1.970 . S
Li619 N669 1.990 . S
Li619 O677 1.961 . S
Li619 O678 1.970 . S
Li619 O679 1.956 . S
C620 C622 1.348 . S
C620 C623 1.356 . S
C620 O676 1.325 . S
N621 C624 1.314 . S
N621 C625 1.279 . S
C622 C620 1.348 . S
C622 C624 1.353 . S
C622 H680 0.929 . S
C623 C620 1.356 . S
C623 C625 1.358 . S
C623 H681 0.930 . S
C624 N621 1.314 . S
C624 C622 1.353 . S
C624 H682 0.930 . S
C625 N621 1.279 . S
C625 C623 1.358 . S
C625 H683 0.930 . S
C626 C629 1.348 . S
C626 C630 1.356 . S
C626 O677 1.325 . S
C627 N628 1.279 . S
C627 C630 1.358 . S
C627 H684 0.930 . S
N628 C627 1.279 . S
N628 C631 1.314 . S
C629 C626 1.348 . S
C629 C631 1.353 . S
C629 H685 0.929 . S
C630 C626 1.356 . S
C630 C627 1.358 . S
C630 H686 0.930 . S
C631 N628 1.314 . S
C631 C629 1.353 . S
C631 H687 0.930 . S
C632 N633 1.314 . S
C632 C637 1.353 . S
C632 H638 0.930 . S
N633 Li616 1.990 . S
N633 C632 1.314 . S
N633 C635 1.279 . S
C634 C635 1.358 . S
C634 C636 1.356 . S
C634 H688 0.930 . S
C635 N633 1.279 . S
C635 C634 1.358 . S
C635 H639 0.930 . S
C636 C634 1.356 . S
C636 C637 1.348 . S
C637 C632 1.353 . S
C637 C636 1.348 . S
C637 H689 0.929 . S
H638 C632 0.930 . S
H639 C635 0.930 . S
C640 N641 1.314 . S
C640 C642 1.353 . S
C640 H646 0.930 . S
N641 Li617 1.990 . S
N641 C640 1.314 . S
N641 C644 1.279 . S
C642 C640 1.353 . S
C642 C645 1.348 . S
C642 H690 0.929 . S
C643 C644 1.358 . S
C643 C645 1.356 . S
C643 H691 0.930 . S
C644 N641 1.279 . S
C644 C643 1.358 . S
C644 H647 0.930 . S
C645 C642 1.348 . S
C645 C643 1.356 . S
H646 C640 0.930 . S
H647 C644 0.930 . S
C648 C650 1.348 . S
C648 C651 1.356 . S
C648 O678 1.325 . S
N649 C652 1.314 . S
N649 C653 1.279 . S
C650 C648 1.348 . S
C650 C652 1.353 . S
C650 H692 0.929 . S
C651 C648 1.356 . S
C651 C653 1.358 . S
C651 H693 0.930 . S
C652 N649 1.314 . S
C652 C650 1.353 . S
C652 H694 0.930 . S
C653 N649 1.279 . S
C653 C651 1.358 . S
C653 H695 0.930 . S
C654 C655 1.348 . S
C654 C656 1.356 . S
C654 O679 1.325 . S
C655 C654 1.348 . S
C655 C657 1.353 . S
C655 H696 0.929 . S
C656 C654 1.356 . S
C656 C658 1.358 . S
C656 H697 0.930 . S
C657 C655 1.353 . S
C657 N659 1.314 . S
C657 H698 0.930 . S
C658 C656 1.358 . S
C658 N659 1.279 . S
C658 H699 0.930 . S
N659 C657 1.314 . S
N659 C658 1.279 . S
C660 C662 1.353 . S
C660 N663 1.314 . S
C660 H666 0.930 . S
C661 N663 1.279 . S
C661 C664 1.358 . S
C661 H667 0.930 . S
C662 C660 1.353 . S
C662 C665 1.348 . S
C662 H700 0.929 . S
N663 Li618 1.990 . S
N663 C660 1.314 . S
N663 C661 1.279 . S
C664 C661 1.358 . S
C664 C665 1.356 . S
C664 H701 0.930 . S
C665 C662 1.348 . S
C665 C664 1.356 . S
H666 C660 0.930 . S
H667 C661 0.930 . S
C668 N669 1.314 . S
C668 C670 1.353 . S
C668 H674 0.930 . S
N669 Li619 1.990 . S
N669 C668 1.314 . S
N669 C672 1.279 . S
C670 C668 1.353 . S
C670 C673 1.348 . S
C670 H702 0.929 . S
C671 C672 1.358 . S
C671 C673 1.356 . S
C671 H703 0.930 . S
C672 N669 1.279 . S
C672 C671 1.358 . S
C672 H675 0.930 . S
C673 C670 1.348 . S
C673 C671 1.356 . S
H674 C668 0.930 . S
H675 C672 0.930 . S
O676 Li616 1.956 . S
O676 Li617 1.970 . S
O676 Li618 1.961 . S
O676 C620 1.325 . S
O677 Li616 1.970 . S
O677 Li617 1.956 . S
O677 Li619 1.961 . S
O677 C626 1.325 . S
O678 Li616 1.961 . S
O678 Li618 1.956 . S
O678 Li619 1.970 . S
O678 C648 1.325 . S
O679 Li617 1.961 . S
O679 Li618 1.970 . S
O679 Li619 1.956 . S
O679 C654 1.325 . S
H680 C622 0.929 . S
H681 C623 0.930 . S
H682 C624 0.930 . S
H683 C625 0.930 . S
H684 C627 0.930 . S
H685 C629 0.929 . S
H686 C630 0.930 . S
H687 C631 0.930 . S
H688 C634 0.930 . S
H689 C637 0.929 . S
H690 C642 0.929 . S
H691 C643 0.930 . S
H692 C650 0.929 . S
H693 C651 0.930 . S
H694 C652 0.930 . S
H695 C653 0.930 . S
H696 C655 0.929 . S
H697 C656 0.930 . S
H698 C657 0.930 . S
H699 C658 0.930 . S
H700 C662 0.929 . S
H701 C664 0.930 . S
H702 C670 0.929 . S
H703 C671 0.930 . S
H704 C712 0.950 . S
H705 C717 0.950 . S
H706 C714 0.950 . S
H707 C716 0.955 . S
H708 C718 0.950 . S
H709 C720 0.950 . S
H710 C722 0.955 . S
H711 C723 0.950 . S
C712 H704 0.950 . S
C712 C713 1.386 . S
C712 C714 1.391 . S
C713 C712 1.386 . S
C713 C717 1.393 . S
C714 H706 0.950 . S
C714 C712 1.391 . S
C714 C715 1.400 . S
C715 C714 1.400 . S
C715 C716 1.398 . S
C715 C721 1.491 1_556 S
C716 H707 0.955 . S
C716 C715 1.398 . S
C716 C717 1.391 . S
C717 H705 0.950 . S
C717 C713 1.393 . S
C717 C716 1.391 . S
C718 H708 0.950 . S
C718 C719 1.386 . S
C718 C720 1.391 . S
C719 C718 1.386 . S
C719 C723 1.393 . S
C720 H709 0.950 . S
C720 C718 1.391 . S
C720 C721 1.400 . S
C721 C715 1.491 1_554 S
C721 C720 1.400 . S
C721 C722 1.398 . S
C722 H710 0.955 . S
C722 C721 1.398 . S
C722 C723 1.391 . S
C723 H711 0.950 . S
C723 C719 1.393 . S
C723 C722 1.391 . S
H724 C732 0.950 . S
H725 C737 0.950 . S
H726 C734 0.950 . S
H727 C736 0.950 . S
H728 C738 0.950 . S
H729 C740 0.950 . S
H730 C742 0.950 . S
H731 C743 0.950 . S
C732 H724 0.950 . S
C732 C733 1.386 . S
C732 C734 1.391 . S
C733 C732 1.386 . S
C733 C737 1.393 . S
C734 H726 0.950 . S
C734 C732 1.391 . S
C734 C735 1.400 . S
C735 C734 1.400 . S
C735 C736 1.398 . S
C735 C741 1.491 . S
C736 H727 0.950 . S
C736 C735 1.398 . S
C736 C737 1.391 . S
C737 H725 0.950 . S
C737 C733 1.393 . S
C737 C736 1.391 . S
C738 H728 0.950 . S
C738 C739 1.386 . S
C738 C740 1.391 . S
C739 C738 1.386 . S
C739 C743 1.393 . S
C740 H729 0.950 . S
C740 C738 1.391 . S
C740 C741 1.400 . S
C741 C735 1.491 . S
C741 C740 1.400 . S
C741 C742 1.398 . S
C742 H730 0.950 . S
C742 C741 1.398 . S
C742 C743 1.391 . S
C743 H731 0.950 . S
C743 C739 1.393 . S
C743 C742 1.391 . S
H744 C752 0.950 . S
H745 C757 0.950 . S
H746 C754 0.950 . S
H747 C756 0.950 . S
H748 C758 0.950 . S
H749 C760 0.950 . S
H750 C762 0.950 . S
H751 C763 0.950 . S
C752 H744 0.950 . S
C752 C753 1.386 . S
C752 C754 1.391 . S
C753 C752 1.386 . S
C753 C757 1.393 . S
C754 H746 0.950 . S
C754 C752 1.391 . S
C754 C755 1.400 . S
C755 C754 1.400 . S
C755 C756 1.398 . S
C755 C761 1.491 . S
C756 H747 0.950 . S
C756 C755 1.398 . S
C756 C757 1.391 . S
C757 H745 0.950 . S
C757 C753 1.393 . S
C757 C756 1.391 . S
C758 H748 0.950 . S
C758 C759 1.386 . S
C758 C760 1.391 . S
C759 C758 1.386 . S
C759 C763 1.393 . S
C760 H749 0.950 . S
C760 C758 1.391 . S
C760 C761 1.400 . S
C761 C755 1.491 . S
C761 C760 1.400 . S
C761 C762 1.398 . S
C762 H750 0.950 . S
C762 C761 1.398 . S
C762 C763 1.391 . S
C763 H751 0.950 . S
C763 C759 1.393 . S
C763 C762 1.391 . S
H764 C772 0.950 . S
H765 C777 0.950 . S
H766 C774 0.950 . S
H767 C776 0.950 . S
H768 C778 0.950 . S
H769 C780 0.950 . S
H770 C782 0.950 . S
H771 C783 0.950 . S
C772 H764 0.950 . S
C772 C773 1.386 . S
C772 C774 1.391 . S
C773 C772 1.386 . S
C773 C777 1.393 . S
C774 H766 0.950 . S
C774 C772 1.391 . S
C774 C775 1.400 . S
C775 C774 1.400 . S
C775 C776 1.398 . S
C775 C781 1.491 . S
C776 H767 0.950 . S
C776 C775 1.398 . S
C776 C777 1.391 . S
C777 H765 0.950 . S
C777 C773 1.393 . S
C777 C776 1.391 . S
C778 H768 0.950 . S
C778 C779 1.386 . S
C778 C780 1.391 . S
C779 C778 1.386 . S
C779 C783 1.393 . S
C780 H769 0.950 . S
C780 C778 1.391 . S
C780 C781 1.400 . S
C781 C775 1.491 . S
C781 C780 1.400 . S
C781 C782 1.398 . S
C782 H770 0.950 . S
C782 C781 1.398 . S
C782 C783 1.391 . S
C783 H771 0.950 . S
C783 C779 1.393 . S
C783 C782 1.391 . S
H784 C792 0.950 . S
H785 C797 0.950 . S
H786 C794 0.950 . S
H787 C796 0.950 . S
H788 C798 0.950 . S
H789 C800 0.950 . S
H790 C802 0.950 . S
H791 C803 0.950 . S
C792 H784 0.950 . S
C792 C793 1.386 . S
C792 C794 1.391 . S
C793 C792 1.386 . S
C793 C797 1.393 . S
C794 H786 0.950 . S
C794 C792 1.391 . S
C794 C795 1.400 . S
C795 C794 1.400 . S
C795 C796 1.398 . S
C795 C801 1.491 . S
C796 H787 0.950 . S
C796 C795 1.398 . S
C796 C797 1.391 . S
C797 H785 0.950 . S
C797 C793 1.393 . S
C797 C796 1.391 . S
C798 H788 0.950 . S
C798 C799 1.386 . S
C798 C800 1.391 . S
C799 C798 1.386 . S
C799 C803 1.393 . S
C800 H789 0.950 . S
C800 C798 1.391 . S
C800 C801 1.400 . S
C801 C795 1.491 . S
C801 C800 1.400 . S
C801 C802 1.398 . S
C802 H790 0.950 . S
C802 C801 1.398 . S
C802 C803 1.391 . S
C803 H791 0.950 . S
C803 C799 1.393 . S
C803 C802 1.391 . S
H804 C812 0.950 . S
H805 C817 0.950 . S
H806 C814 0.950 . S
H807 C816 0.950 . S
H808 C818 0.950 . S
H809 C820 0.950 . S
H810 C822 0.950 . S
H811 C823 0.950 . S
C812 H804 0.950 . S
C812 C813 1.386 . S
C812 C814 1.391 . S
C813 C812 1.386 . S
C813 C817 1.393 . S
C814 H806 0.950 . S
C814 C812 1.391 . S
C814 C815 1.400 . S
C815 C814 1.400 . S
C815 C816 1.398 . S
C815 C821 1.491 . S
C816 H807 0.950 . S
C816 C815 1.398 . S
C816 C817 1.391 . S
C817 H805 0.950 . S
C817 C813 1.393 . S
C817 C816 1.391 . S
C818 H808 0.950 . S
C818 C819 1.386 . S
C818 C820 1.391 . S
C819 C818 1.386 . S
C819 C823 1.393 . S
C820 H809 0.950 . S
C820 C818 1.391 . S
C820 C821 1.400 . S
C821 C815 1.491 . S
C821 C820 1.400 . S
C821 C822 1.398 . S
C822 H810 0.950 . S
C822 C821 1.398 . S
C822 C823 1.391 . S
C823 H811 0.950 . S
C823 C819 1.393 . S
C823 C822 1.391 . S
H824 C832 0.950 . S
H825 C837 0.950 . S
H826 C834 0.950 . S
H827 C836 0.950 . S
H828 C838 0.950 . S
H829 C840 0.950 . S
H830 C842 0.950 . S
H831 C843 0.950 . S
C832 H824 0.950 . S
C832 C833 1.386 . S
C832 C834 1.391 . S
C833 C832 1.386 . S
C833 C837 1.393 . S
C834 H826 0.950 . S
C834 C832 1.391 . S
C834 C835 1.400 . S
C835 C834 1.400 . S
C835 C836 1.398 . S
C835 C841 1.491 1_554 S
C836 H827 0.950 . S
C836 C835 1.398 . S
C836 C837 1.391 . S
C837 H825 0.950 . S
C837 C833 1.393 . S
C837 C836 1.391 . S
C838 H828 0.950 . S
C838 C839 1.386 . S
C838 C840 1.391 . S
C839 C838 1.386 . S
C839 C843 1.393 . S
C840 H829 0.950 . S
C840 C838 1.391 . S
C840 C841 1.400 . S
C841 C835 1.491 1_556 S
C841 C840 1.400 . S
C841 C842 1.398 . S
C842 H830 0.950 . S
C842 C841 1.398 . S
C842 C843 1.391 . S
C843 H831 0.950 . S
C843 C839 1.393 . S
C843 C842 1.391 . S
H844 C852 0.950 . S
H845 C857 0.950 . S
H846 C854 0.950 . S
H847 C856 0.950 . S
H848 C858 0.950 . S
H849 C860 0.950 . S
H850 C862 0.950 . S
H851 C863 0.950 . S
C852 H844 0.950 . S
C852 C853 1.386 . S
C852 C854 1.391 . S
C853 C852 1.386 . S
C853 C857 1.393 . S
C854 H846 0.950 . S
C854 C852 1.391 . S
C854 C855 1.400 . S
C855 C854 1.400 . S
C855 C856 1.398 . S
C855 C861 1.491 . S
C856 H847 0.950 . S
C856 C855 1.398 . S
C856 C857 1.391 . S
C857 H845 0.950 . S
C857 C853 1.393 . S
C857 C856 1.391 . S
C858 H848 0.950 . S
C858 C859 1.386 . S
C858 C860 1.391 . S
C859 C858 1.386 . S
C859 C863 1.393 . S
C860 H849 0.950 . S
C860 C858 1.391 . S
C860 C861 1.400 . S
C861 C855 1.491 . S
C861 C860 1.400 . S
C861 C862 1.398 . S
C862 H850 0.950 . S
C862 C861 1.398 . S
C862 C863 1.391 . S
C863 H851 0.950 . S
C863 C859 1.393 . S
C863 C862 1.391 . S
H864 C872 0.950 . S
H865 C877 0.950 . S
H866 C874 0.950 . S
H867 C876 0.950 . S
H868 C878 0.950 . S
H869 C880 0.950 . S
H870 C882 0.950 . S
H871 C883 0.950 . S
C872 H864 0.950 . S
C872 C873 1.386 . S
C872 C874 1.391 . S
C873 C872 1.386 . S
C873 C877 1.393 . S
C874 H866 0.950 . S
C874 C872 1.391 . S
C874 C875 1.400 . S
C875 C874 1.400 . S
C875 C876 1.398 . S
C875 C881 1.491 . S
C876 H867 0.950 . S
C876 C875 1.398 . S
C876 C877 1.391 . S
C877 H865 0.950 . S
C877 C873 1.393 . S
C877 C876 1.391 . S
C878 H868 0.950 . S
C878 C879 1.386 . S
C878 C880 1.391 . S
C879 C878 1.386 . S
C879 C883 1.393 . S
C880 H869 0.950 . S
C880 C878 1.391 . S
C880 C881 1.400 . S
C881 C875 1.491 . S
C881 C880 1.400 . S
C881 C882 1.398 . S
C882 H870 0.950 . S
C882 C881 1.398 . S
C882 C883 1.391 . S
C883 H871 0.950 . S
C883 C879 1.393 . S
C883 C882 1.391 . S
H884 C892 0.950 . S
H885 C897 0.950 . S
H886 C894 0.950 . S
H887 C896 0.950 . S
H888 C898 0.950 . S
H889 C900 0.950 . S
H890 C902 0.950 . S
H891 C903 0.950 . S
C892 H884 0.950 . S
C892 C893 1.386 . S
C892 C894 1.391 . S
C893 C892 1.386 . S
C893 C897 1.393 . S
C894 H886 0.950 . S
C894 C892 1.391 . S
C894 C895 1.400 . S
C895 C894 1.400 . S
C895 C896 1.398 . S
C895 C901 1.491 . S
C896 H887 0.950 . S
C896 C895 1.398 . S
C896 C897 1.391 . S
C897 H885 0.950 . S
C897 C893 1.393 . S
C897 C896 1.391 . S
C898 H888 0.950 . S
C898 C899 1.386 . S
C898 C900 1.391 . S
C899 C898 1.386 . S
C899 C903 1.393 . S
C900 H889 0.950 . S
C900 C898 1.391 . S
C900 C901 1.400 . S
C901 C895 1.491 . S
C901 C900 1.400 . S
C901 C902 1.398 . S
C902 H890 0.950 . S
C902 C901 1.398 . S
C902 C903 1.391 . S
C903 H891 0.950 . S
C903 C899 1.393 . S
C903 C902 1.391 . S
H904 C912 0.950 . S
H905 C917 0.950 . S
H906 C914 0.950 . S
H907 C916 0.950 . S
H908 C918 0.950 . S
H909 C920 0.950 . S
H910 C922 0.950 . S
H911 C923 0.950 . S
C912 H904 0.950 . S
C912 C913 1.386 1_556 S
C912 C914 1.391 . S
C913 C912 1.386 1_554 S
C913 C917 1.393 . S
C914 H906 0.950 . S
C914 C912 1.391 . S
C914 C915 1.400 1_556 S
C915 C914 1.400 1_554 S
C915 C916 1.398 . S
C915 C921 1.491 1_554 S
C916 H907 0.950 . S
C916 C915 1.398 . S
C916 C917 1.391 . S
C917 H905 0.950 . S
C917 C913 1.393 . S
C917 C916 1.391 . S
C918 H908 0.950 . S
C918 C919 1.386 1_554 S
C918 C920 1.391 . S
C919 C918 1.386 1_556 S
C919 C923 1.393 . S
C920 H909 0.950 . S
C920 C918 1.391 . S
C920 C921 1.400 1_554 S
C921 C915 1.491 1_556 S
C921 C920 1.400 1_556 S
C921 C922 1.398 . S
C922 H910 0.950 . S
C922 C921 1.398 . S
C922 C923 1.391 . S
C923 H911 0.950 . S
C923 C919 1.393 . S
C923 C922 1.391 . S
H924 C932 0.950 . S
H925 C937 0.950 . S
H926 C934 0.950 . S
H927 C936 0.950 . S
H928 C938 0.950 . S
H929 C940 0.950 . S
H930 C942 0.950 . S
H931 C943 0.950 . S
C932 H924 0.950 . S
C932 C933 1.386 . S
C932 C934 1.391 . S
C933 C932 1.386 . S
C933 C937 1.393 . S
C934 H926 0.950 . S
C934 C932 1.391 . S
C934 C935 1.400 . S
C935 C934 1.400 . S
C935 C936 1.398 . S
C935 C941 1.491 . S
C936 H927 0.950 . S
C936 C935 1.398 . S
C936 C937 1.391 . S
C937 H925 0.950 . S
C937 C933 1.393 . S
C937 C936 1.391 . S
C938 H928 0.950 . S
C938 C939 1.386 . S
C938 C940 1.391 . S
C939 C938 1.386 . S
C939 C943 1.393 . S
C940 H929 0.950 . S
C940 C938 1.391 . S
C940 C941 1.400 . S
C941 C935 1.491 . S
C941 C940 1.400 . S
C941 C942 1.398 . S
C942 H930 0.950 . S
C942 C941 1.398 . S
C942 C943 1.391 . S
C943 H931 0.950 . S
C943 C939 1.393 . S
C943 C942 1.391 . S
H944 C952 0.950 . S
H945 C957 0.950 . S
H946 C954 0.950 . S
H947 C956 0.950 . S
H948 C958 0.950 . S
H949 C960 0.950 . S
H950 C962 0.950 . S
H951 C963 0.950 . S
C952 H944 0.950 . S
C952 C953 1.386 . S
C952 C954 1.391 . S
C953 C952 1.386 . S
C953 C957 1.393 . S
C954 H946 0.950 . S
C954 C952 1.391 . S
C954 C955 1.400 . S
C955 C954 1.400 . S
C955 C956 1.398 . S
C955 C961 1.491 . S
C956 H947 0.950 . S
C956 C955 1.398 . S
C956 C957 1.391 . S
C957 H945 0.950 . S
C957 C953 1.393 . S
C957 C956 1.391 . S
C958 H948 0.950 . S
C958 C959 1.386 . S
C958 C960 1.391 . S
C959 C958 1.386 . S
C959 C963 1.393 . S
C960 H949 0.950 . S
C960 C958 1.391 . S
C960 C961 1.400 . S
C961 C955 1.491 . S
C961 C960 1.400 . S
C961 C962 1.398 . S
C962 H950 0.950 . S
C962 C961 1.398 . S
C962 C963 1.391 . S
C963 H951 0.950 . S
C963 C959 1.393 . S
C963 C962 1.391 . S
H964 C972 0.950 . S
H965 C977 0.950 . S
H966 C974 0.950 . S
H967 C976 0.950 . S
H968 C978 0.950 . S
H969 C980 0.950 . S
H970 C982 0.950 . S
H971 C983 0.950 . S
C972 H964 0.950 . S
C972 C973 1.386 . S
C972 C974 1.391 . S
C973 C972 1.386 . S
C973 C977 1.393 1_556 S
C974 H966 0.950 . S
C974 C972 1.391 . S
C974 C975 1.400 . S
C975 C974 1.400 . S
C975 C976 1.398 1_556 S
C975 C981 1.491 1_556 S
C976 H967 0.950 . S
C976 C975 1.398 1_554 S
C976 C977 1.391 . S
C977 H965 0.950 . S
C977 C973 1.393 1_554 S
C977 C976 1.391 . S
C978 H968 0.950 . S
C978 C979 1.386 . S
C978 C980 1.391 . S
C979 C978 1.386 . S
C979 C983 1.393 1_554 S
C980 H969 0.950 . S
C980 C978 1.391 . S
C980 C981 1.400 . S
C981 C975 1.491 1_554 S
C981 C980 1.400 . S
C981 C982 1.398 1_554 S
C982 H970 0.950 . S
C982 C981 1.398 1_556 S
C982 C983 1.391 . S
C983 H971 0.950 . S
C983 C979 1.393 1_556 S
C983 C982 1.391 . S
H984 C992 0.950 . S
H985 C997 0.950 . S
H986 C994 0.950 . S
H987 C996 0.950 . S
H988 C998 0.950 . S
H989 C1000 0.950 . S
H990 C1002 0.950 . S
H991 C1003 0.950 . S
C992 H984 0.950 . S
C992 C993 1.386 . S
C992 C994 1.391 . S
C993 C992 1.386 . S
C993 C997 1.393 . S
C994 H986 0.950 . S
C994 C992 1.391 . S
C994 C995 1.400 . S
C995 C994 1.400 . S
C995 C996 1.398 . S
C995 C1001 1.491 . S
C996 H987 0.950 . S
C996 C995 1.398 . S
C996 C997 1.391 . S
C997 H985 0.950 . S
C997 C993 1.393 . S
C997 C996 1.391 . S
C998 H988 0.950 . S
C998 C999 1.386 . S
C998 C1000 1.391 . S
C999 C998 1.386 . S
C999 C1003 1.393 . S
C1000 H989 0.950 . S
C1000 C998 1.391 . S
C1000 C1001 1.400 . S
C1001 C995 1.491 . S
C1001 C1000 1.400 . S
C1001 C1002 1.398 . S
C1002 H990 0.950 . S
C1002 C1001 1.398 . S
C1002 C1003 1.391 . S
C1003 H991 0.950 . S
C1003 C999 1.393 . S
C1003 C1002 1.391 . S
H1004 C1012 0.950 . S
H1005 C1017 0.950 . S
H1006 C1014 0.950 . S
H1007 C1016 0.950 . S
H1008 C1018 0.950 . S
H1009 C1020 0.950 . S
H1010 C1022 0.950 . S
H1011 C1023 0.950 . S
C1012 H1004 0.950 . S
C1012 C1013 1.386 . S
C1012 C1014 1.391 . S
C1013 C1012 1.386 . S
C1013 C1017 1.393 . S
C1014 H1006 0.950 . S
C1014 C1012 1.391 . S
C1014 C1015 1.400 . S
C1015 C1014 1.400 . S
C1015 C1016 1.398 . S
C1015 C1021 1.491 . S
C1016 H1007 0.950 . S
C1016 C1015 1.398 . S
C1016 C1017 1.391 . S
C1017 H1005 0.950 . S
C1017 C1013 1.393 . S
C1017 C1016 1.391 . S
C1018 H1008 0.950 . S
C1018 C1019 1.386 . S
C1018 C1020 1.391 . S
C1019 C1018 1.386 . S
C1019 C1023 1.393 . S
C1020 H1009 0.950 . S
C1020 C1018 1.391 . S
C1020 C1021 1.400 . S
C1021 C1015 1.491 . S
C1021 C1020 1.400 . S
C1021 C1022 1.398 . S
C1022 H1010 0.950 . S
C1022 C1021 1.398 . S
C1022 C1023 1.391 . S
C1023 H1011 0.950 . S
C1023 C1019 1.393 . S
C1023 C1022 1.391 . S
C713 C108 1.353 . S
C719 C57 1.361 . S
C733 C145 1.350 . S
C739 C205 1.359 . S
C753 C293 1.348 . S
C759 C225 1.356 . S
C773 C313 1.351 . S
C779 C20 1.360 . S
C793 C409 1.356 . S
C799 C460 1.361 . S
C813 C497 1.354 . S
C819 C557 1.361 . S
C833 C577 1.348 . S
C839 C645 1.354 . S
C853 C372 1.349 . S
C859 C665 1.352 . S
C873 C49 1.520 . S
C879 C636 1.522 . S
C893 C381 1.521 . S
C899 C137 1.516 . S
C913 C469 1.517 . S
C919 C233 1.521 . S
C933 C321 1.513 . S
C939 C548 1.511 . S
C953 C196 1.515 . S
C959 C673 1.511 . S
C973 C401 1.523 . S
C979 C284 1.522 . S
C993 C489 1.519 . S
C999 C29 1.514 . S
C1013 C117 1.520 . S
C1019 C585 1.515 . S
