# Generated by pormake.
# Topology cag, (4)-cn, num edge types: 1
# Building blocks:
#     Node 0, Type 0, BuildingBlock: NAHDIM_clean_sbu_0, # of connection points: 4
#     Node 1, Type 0, BuildingBlock: NAHDIM_clean_sbu_0, # of connection points: 4
#     Node 2, Type 0, BuildingBlock: NAHDIM_clean_sbu_0, # of connection points: 4
#     Node 3, Type 0, BuildingBlock: NAHDIM_clean_sbu_0, # of connection points: 4
#     Node 4, Type 0, BuildingBlock: NAHDIM_clean_sbu_0, # of connection points: 4
#     Node 5, Type 0, BuildingBlock: NAHDIM_clean_sbu_0, # of connection points: 4
#     Node 6, Type 0, BuildingBlock: NAHDIM_clean_sbu_0, # of connection points: 4
#     Node 7, Type 0, BuildingBlock: NAHDIM_clean_sbu_0, # of connection points: 4
#     Node 8, Type 0, BuildingBlock: NAHDIM_clean_sbu_0, # of connection points: 4
#     Node 9, Type 0, BuildingBlock: NAHDIM_clean_sbu_0, # of connection points: 4
#     Node 10, Type 0, BuildingBlock: NAHDIM_clean_sbu_0, # of connection points: 4
#     Node 11, Type 0, BuildingBlock: NAHDIM_clean_sbu_0, # of connection points: 4
#     Node 12, Type 0, BuildingBlock: NAHDIM_clean_sbu_0, # of connection points: 4
#     Node 13, Type 0, BuildingBlock: NAHDIM_clean_sbu_0, # of connection points: 4
#     Node 14, Type 0, BuildingBlock: NAHDIM_clean_sbu_0, # of connection points: 4
#     Node 15, Type 0, BuildingBlock: NAHDIM_clean_sbu_0, # of connection points: 4
#     Edge 16, Type (0, 0), BuildingBlock: UVAHIK_clean_linker_0, # of connection points: 2
#     Edge 17, Type (0, 0), BuildingBlock: UVAHIK_clean_linker_0, # of connection points: 2
#     Edge 18, Type (0, 0), BuildingBlock: UVAHIK_clean_linker_0, # of connection points: 2
#     Edge 19, Type (0, 0), BuildingBlock: UVAHIK_clean_linker_0, # of connection points: 2
#     Edge 20, Type (0, 0), BuildingBlock: UVAHIK_clean_linker_0, # of connection points: 2
#     Edge 21, Type (0, 0), BuildingBlock: UVAHIK_clean_linker_0, # of connection points: 2
#     Edge 22, Type (0, 0), BuildingBlock: UVAHIK_clean_linker_0, # of connection points: 2
#     Edge 23, Type (0, 0), BuildingBlock: UVAHIK_clean_linker_0, # of connection points: 2
#     Edge 24, Type (0, 0), BuildingBlock: UVAHIK_clean_linker_0, # of connection points: 2
#     Edge 25, Type (0, 0), BuildingBlock: UVAHIK_clean_linker_0, # of connection points: 2
#     Edge 26, Type (0, 0), BuildingBlock: UVAHIK_clean_linker_0, # of connection points: 2
#     Edge 27, Type (0, 0), BuildingBlock: UVAHIK_clean_linker_0, # of connection points: 2
#     Edge 28, Type (0, 0), BuildingBlock: UVAHIK_clean_linker_0, # of connection points: 2
#     Edge 29, Type (0, 0), BuildingBlock: UVAHIK_clean_linker_0, # of connection points: 2
#     Edge 30, Type (0, 0), BuildingBlock: UVAHIK_clean_linker_0, # of connection points: 2
#     Edge 31, Type (0, 0), BuildingBlock: UVAHIK_clean_linker_0, # of connection points: 2
#     Edge 32, Type (0, 0), BuildingBlock: UVAHIK_clean_linker_0, # of connection points: 2
#     Edge 33, Type (0, 0), BuildingBlock: UVAHIK_clean_linker_0, # of connection points: 2
#     Edge 34, Type (0, 0), BuildingBlock: UVAHIK_clean_linker_0, # of connection points: 2
#     Edge 35, Type (0, 0), BuildingBlock: UVAHIK_clean_linker_0, # of connection points: 2
#     Edge 36, Type (0, 0), BuildingBlock: UVAHIK_clean_linker_0, # of connection points: 2
#     Edge 37, Type (0, 0), BuildingBlock: UVAHIK_clean_linker_0, # of connection points: 2
#     Edge 38, Type (0, 0), BuildingBlock: UVAHIK_clean_linker_0, # of connection points: 2
#     Edge 39, Type (0, 0), BuildingBlock: UVAHIK_clean_linker_0, # of connection points: 2
#     Edge 40, Type (0, 0), BuildingBlock: UVAHIK_clean_linker_0, # of connection points: 2
#     Edge 41, Type (0, 0), BuildingBlock: UVAHIK_clean_linker_0, # of connection points: 2
#     Edge 42, Type (0, 0), BuildingBlock: UVAHIK_clean_linker_0, # of connection points: 2
#     Edge 43, Type (0, 0), BuildingBlock: UVAHIK_clean_linker_0, # of connection points: 2
#     Edge 44, Type (0, 0), BuildingBlock: UVAHIK_clean_linker_0, # of connection points: 2
#     Edge 45, Type (0, 0), BuildingBlock: UVAHIK_clean_linker_0, # of connection points: 2
#     Edge 46, Type (0, 0), BuildingBlock: UVAHIK_clean_linker_0, # of connection points: 2
#     Edge 47, Type (0, 0), BuildingBlock: UVAHIK_clean_linker_0, # of connection points: 2
# Relax obj value: 0.038
# Max RMSD: 0.071
# Mean RMSD: 0.070
data_MOF--net-cag--node1-NAHDIM_clean_sbu_0--edge1-UVAHIK_clean_linker_0
_symmetry_space_group_name_H-M    P1
_symmetry_Int_Tables_number       1
_symmetry_cell_setting            triclinic
loop_
_symmetry_equiv_pos_as_xyz
'x, y, z'
_cell_length_a     54.333754
_cell_length_b     65.057416
_cell_length_c     55.53063
_cell_angle_alpha  90.013428
_cell_angle_beta   89.954691
_cell_angle_gamma 89.927119
loop_
_atom_site_label
_atom_site_type_symbol
_atom_site_fract_x
_atom_site_fract_y
_atom_site_fract_z
_atom_type_partial_charge
C0 C 0.28608 0.15832 0.04236 0.0
O1 O 0.30177 0.14652 0.03077 0.0
O2 O 0.33388 0.13596 0.07989 0.0
Zn3 Zn 0.29759 0.13021 0.07988 0.0
O4 O 0.28526 0.12676 0.11373 0.0
C5 C 0.27576 0.09127 0.06358 0.0
O6 O 0.25857 0.09469 0.07975 0.0
O7 O 0.28067 0.15403 0.06404 0.0
C8 C 0.29649 0.11529 0.12864 0.0
O9 O 0.31617 0.10519 0.12155 0.0
C10 C 0.3456 0.14521 0.09644 0.0
O11 O 0.33373 0.15191 0.11551 0.0
O12 O 0.29293 0.1043 0.0608 0.0
C13 C 0.19582 0.81921 0.55881 0.0
O14 O 0.1754 0.81702 0.57123 0.0
O15 O 0.15439 0.85731 0.57694 0.0
Zn16 Zn 0.19119 0.8608 0.57547 0.0
O17 O 0.20479 0.86193 0.60911 0.0
C18 C 0.19261 0.90423 0.56632 0.0
O19 O 0.1823 0.90488 0.58772 0.0
O20 O 0.20612 0.83673 0.55802 0.0
C21 C 0.22357 0.87239 0.61501 0.0
O22 O 0.23533 0.88296 0.59847 0.0
C23 C 0.14199 0.86216 0.59551 0.0
O24 O 0.15341 0.86977 0.61435 0.0
O25 O 0.19849 0.8869 0.55743 0.0
C26 C 0.28855 0.81976 0.92472 0.0
O27 O 0.30663 0.81746 0.90923 0.0
O28 O 0.33375 0.8569 0.91373 0.0
Zn29 Zn 0.297 0.86182 0.91318 0.0
O30 O 0.28474 0.86413 0.87905 0.0
C31 C 0.3054 0.90199 0.9328 0.0
O32 O 0.32668 0.89933 0.922 0.0
O33 O 0.28068 0.83775 0.92929 0.0
C34 C 0.29103 0.87897 0.86549 0.0
O35 O 0.30557 0.89333 0.87405 0.0
C36 C 0.34664 0.85287 0.8952 0.0
O37 O 0.33595 0.85155 0.87406 0.0
O38 O 0.2893 0.88786 0.93156 0.0
C39 C 0.19252 0.17419 0.42857 0.0
O40 O 0.17221 0.1763 0.41599 0.0
O41 O 0.14943 0.13655 0.41316 0.0
Zn42 Zn 0.18598 0.132 0.41518 0.0
O43 O 0.199 0.12941 0.38148 0.0
C44 C 0.19672 0.08898 0.42475 0.0
O45 O 0.19721 0.08765 0.40115 0.0
O46 O 0.20195 0.15641 0.43092 0.0
C47 C 0.22144 0.12557 0.37686 0.0
O48 O 0.23698 0.12291 0.39471 0.0
C49 C 0.13565 0.12254 0.40472 0.0
O50 O 0.14558 0.10509 0.3978 0.0
O51 O 0.19256 0.1063 0.43457 0.0
C52 C 0.676 0.85337 0.86224 0.0
O53 O 0.66851 0.83623 0.87238 0.0
O54 O 0.62143 0.86221 0.90223 0.0
Zn55 Zn 0.6573 0.86948 0.90611 0.0
O56 O 0.67509 0.84785 0.92548 0.0
C57 C 0.64566 0.90323 0.93808 0.0
O58 O 0.62785 0.8909 0.94488 0.0
O59 O 0.67293 0.87025 0.87337 0.0
C60 C 0.67716 0.84789 0.94827 0.0
O61 O 0.66716 0.86284 0.96082 0.0
C62 C 0.60966 0.85152 0.91754 0.0
O63 O 0.62115 0.84457 0.93668 0.0
O64 O 0.66052 0.89737 0.92175 0.0
C65 C 0.80196 0.14062 0.36509 0.0
O66 O 0.80703 0.15772 0.37665 0.0
O67 O 0.86124 0.12473 0.40185 0.0
Zn68 Zn 0.82468 0.12241 0.4067 0.0
O69 O 0.81172 0.14543 0.42752 0.0
C70 C 0.81575 0.09245 0.44456 0.0
O71 O 0.81702 0.10856 0.45875 0.0
O72 O 0.8079 0.12351 0.37449 0.0
C73 C 0.82413 0.15426 0.44392 0.0
O74 O 0.84672 0.14809 0.4483 0.0
C75 C 0.87265 0.14138 0.39764 0.0
O76 O 0.86028 0.15871 0.39622 0.0
O77 O 0.818 0.09486 0.42195 0.0
C78 C 0.67806 0.14537 0.13596 0.0
O79 O 0.67068 0.16285 0.12657 0.0
O80 O 0.62221 0.1369 0.09647 0.0
Zn81 Zn 0.65796 0.13012 0.0921 0.0
O82 O 0.67372 0.15233 0.07231 0.0
C83 C 0.66569 0.10065 0.05327 0.0
O84 O 0.67049 0.1171 0.0404 0.0
O85 O 0.67448 0.12881 0.12436 0.0
C86 C 0.69662 0.15217 0.0677 0.0
O87 O 0.71028 0.13705 0.07594 0.0
C88 C 0.60905 0.1387 0.07769 0.0
O89 O 0.61943 0.13642 0.05648 0.0
O90 O 0.66031 0.1026 0.07545 0.0
C91 C 0.80518 0.84785 0.63575 0.0
O92 O 0.81123 0.83021 0.62583 0.0
O93 O 0.86471 0.86041 0.5987 0.0
Zn94 Zn 0.82837 0.86387 0.59325 0.0
O95 O 0.81556 0.84035 0.57341 0.0
C96 C 0.82509 0.89232 0.55342 0.0
O97 O 0.83124 0.87602 0.54079 0.0
O98 O 0.81079 0.86446 0.62506 0.0
C99 C 0.79465 0.8413 0.56326 0.0
O100 O 0.78118 0.85794 0.56588 0.0
C101 C 0.87822 0.85246 0.58248 0.0
O102 O 0.86805 0.84616 0.56234 0.0
O103 O 0.82266 0.8907 0.57611 0.0
C104 C 0.79267 0.6729 0.05863 0.0
O105 O 0.81285 0.67461 0.0715 0.0
O106 O 0.8361 0.63454 0.07072 0.0
Zn107 Zn 0.79934 0.63072 0.07093 0.0
O108 O 0.7876 0.6286 0.10514 0.0
C109 C 0.79407 0.58747 0.06235 0.0
O110 O 0.80125 0.58655 0.08491 0.0
O111 O 0.78321 0.65523 0.05559 0.0
C112 C 0.76716 0.62059 0.11104 0.0
O113 O 0.75261 0.61332 0.09419 0.0
C114 C 0.84938 0.62795 0.0879 0.0
O115 O 0.83889 0.6184 0.10603 0.0
O116 O 0.7915 0.60494 0.05242 0.0
C117 C 0.70887 0.32206 0.56967 0.0
O118 O 0.69619 0.31892 0.58949 0.0
O119 O 0.65334 0.35318 0.57628 0.0
Zn120 Zn 0.68905 0.36178 0.57687 0.0
O121 O 0.70128 0.36458 0.61095 0.0
C122 C 0.67508 0.40169 0.55979 0.0
O123 O 0.65461 0.39687 0.57103 0.0
O124 O 0.7089 0.33989 0.56035 0.0
C125 C 0.69297 0.37798 0.6255 0.0
O126 O 0.67577 0.39074 0.61822 0.0
C127 C 0.64131 0.34738 0.59471 0.0
O128 O 0.65236 0.3464 0.6157 0.0
O129 O 0.69276 0.38887 0.55955 0.0
C130 C 0.79864 0.31753 0.92787 0.0
O131 O 0.81938 0.31568 0.91589 0.0
O132 O 0.83979 0.35635 0.91186 0.0
Zn133 Zn 0.80298 0.35941 0.91224 0.0
O134 O 0.79026 0.36109 0.87834 0.0
C135 C 0.79702 0.40275 0.92138 0.0
O136 O 0.80433 0.40424 0.89889 0.0
O137 O 0.78803 0.33494 0.92872 0.0
C138 C 0.7696 0.36915 0.87328 0.0
O139 O 0.75585 0.37656 0.89073 0.0
C140 C 0.85299 0.36338 0.89487 0.0
O141 O 0.84237 0.37294 0.87681 0.0
O142 O 0.79471 0.38506 0.93079 0.0
C143 C 0.70684 0.67129 0.42157 0.0
O144 O 0.6897 0.67409 0.40523 0.0
O145 O 0.66097 0.63464 0.4081 0.0
Zn146 Zn 0.69754 0.62942 0.40942 0.0
O147 O 0.71095 0.62644 0.37592 0.0
C148 C 0.68957 0.60024 0.44648 0.0
O149 O 0.67406 0.61465 0.45323 0.0
O150 O 0.71382 0.65309 0.42639 0.0
C151 C 0.70235 0.61266 0.36208 0.0
O152 O 0.68518 0.60027 0.37025 0.0
C153 C 0.64929 0.64129 0.38986 0.0
O154 O 0.66132 0.64548 0.36994 0.0
O155 O 0.70279 0.60322 0.42792 0.0
C156 C 0.18657 0.35251 0.858 0.0
O157 O 0.17854 0.33533 0.86764 0.0
O158 O 0.13012 0.36631 0.89675 0.0
Zn159 Zn 0.16663 0.36907 0.90148 0.0
O160 O 0.17904 0.3449 0.92045 0.0
C161 C 0.17136 0.39758 0.94127 0.0
O162 O 0.16564 0.3814 0.95427 0.0
O163 O 0.1834 0.3693 0.86927 0.0
C164 C 0.2003 0.34427 0.9299 0.0
O165 O 0.21494 0.36023 0.9278 0.0
C166 C 0.11696 0.35781 0.91283 0.0
O167 O 0.12758 0.35067 0.93237 0.0
O168 O 0.17323 0.39574 0.91856 0.0
C169 C 0.31496 0.64234 0.35933 0.0
O170 O 0.32269 0.65967 0.36881 0.0
O171 O 0.3728 0.63359 0.39563 0.0
Zn172 Zn 0.33735 0.62683 0.40179 0.0
O173 O 0.32244 0.64927 0.42196 0.0
C174 C 0.33104 0.59751 0.44097 0.0
O175 O 0.32649 0.61399 0.45389 0.0
O176 O 0.31928 0.62558 0.3703 0.0
C177 C 0.2996 0.64939 0.42687 0.0
O178 O 0.28568 0.63428 0.4191 0.0
C179 C 0.38706 0.6356 0.41359 0.0
O180 O 0.37802 0.63341 0.4354 0.0
O181 O 0.33575 0.59938 0.41864 0.0
C182 C 0.18292 0.64286 0.13456 0.0
O183 O 0.17646 0.66022 0.12426 0.0
O184 O 0.12586 0.62996 0.09508 0.0
Zn185 Zn 0.16238 0.62615 0.09133 0.0
O186 O 0.17628 0.64933 0.07162 0.0
C187 C 0.1672 0.59719 0.05222 0.0
O188 O 0.16237 0.6135 0.03909 0.0
O189 O 0.17853 0.62601 0.12382 0.0
C190 C 0.19761 0.64842 0.06231 0.0
O191 O 0.21109 0.63187 0.06561 0.0
C192 C 0.11339 0.6383 0.07837 0.0
O193 O 0.12475 0.64479 0.05891 0.0
O194 O 0.16838 0.59898 0.07498 0.0
C195 C 0.31201 0.34999 0.62945 0.0
O196 O 0.31754 0.33245 0.61902 0.0
O197 O 0.36801 0.35651 0.58976 0.0
Zn198 Zn 0.33261 0.36534 0.5859 0.0
O199 O 0.31365 0.34465 0.56621 0.0
C200 C 0.3464 0.39893 0.55448 0.0
O201 O 0.3636 0.386 0.5476 0.0
O202 O 0.317 0.36668 0.61862 0.0
C203 C 0.3116 0.34516 0.54342 0.0
O204 O 0.32233 0.35995 0.53125 0.0
C205 C 0.3791 0.3453 0.57444 0.0
O206 O 0.36715 0.33883 0.55534 0.0
O207 O 0.3311 0.39346 0.57058 0.0
C208 C 0.26191 0.19111 0.04415 0.0
C209 C 0.276 0.17699 0.0308 0.0
C210 C 0.25336 0.20921 0.03349 0.0
C211 C 0.23938 0.23267 0.97487 0.0
H212 H 0.24587 0.2842 0.00945 0.0
C213 C 0.19398 0.30764 0.94204 0.0
C214 C 0.20861 0.32545 0.94243 0.0
C215 C 0.20203 0.28962 0.95318 0.0
C216 C 0.24405 0.26994 -0.00045 0.0
H217 H 0.29186 0.17067 -0.00431 0.0
H218 H 0.27682 0.20223 0.97709 0.0
H219 H 0.26024 0.25231 0.02801 0.0
H220 H 0.24299 0.33839 0.95516 0.0
H221 H 0.25703 0.30685 0.97473 0.0
H222 H 0.22338 0.25028 0.94633 0.0
C223 C 0.27234 0.19925 -0.00422 0.0
C224 C 0.25205 0.25167 0.01025 0.0
C225 C 0.28103 0.18121 0.00647 0.0
C226 C 0.23131 0.32493 0.95452 0.0
C227 C 0.2393 0.30691 0.96582 0.0
C228 C 0.23123 0.25089 0.96424 0.0
C229 C 0.25856 0.2135 0.00922 0.0
C230 C 0.24983 0.23286 -0.002 0.0
C231 C 0.22481 0.28903 0.9651 0.0
C232 C 0.2335 0.26972 0.97646 0.0
H233 H 0.25771 0.18832 0.06294 0.0
H234 H 0.24254 0.21981 0.04422 0.0
H235 H 0.23727 0.21838 0.96507 0.0
H236 H 0.17636 0.30752 0.93293 0.0
H237 H 0.19034 0.27615 0.95259 0.0
C238 C 0.26451 0.66542 0.44939 0.0
C239 C 0.28888 0.66646 0.44098 0.0
C240 C 0.25437 0.68171 0.46251 0.0
C241 C 0.26077 0.73711 0.47258 0.0
H242 H 0.22414 0.72685 0.5313 0.0
C243 C 0.22986 0.80307 0.53492 0.0
C244 C 0.20653 0.80154 0.54571 0.0
C245 C 0.23989 0.78642 0.52241 0.0
C246 C 0.23403 0.72998 0.51477 0.0
H247 H 0.32174 0.68538 0.43977 0.0
H248 H 0.30395 0.71381 0.46252 0.0
H249 H 0.24138 0.69802 0.50877 0.0
H250 H 0.17539 0.78135 0.55175 0.0
H251 H 0.19262 0.75247 0.52948 0.0
H252 H 0.25318 0.76899 0.47824 0.0
C253 C 0.29269 0.70043 0.45889 0.0
C254 C 0.24394 0.71346 0.50192 0.0
C255 C 0.3029 0.68409 0.44598 0.0
C256 C 0.19346 0.783 0.54374 0.0
C257 C 0.20342 0.76639 0.53108 0.0
C258 C 0.2507 0.75362 0.48531 0.0
C259 C 0.26833 0.69942 0.46726 0.0
C260 C 0.2575 0.71688 0.48076 0.0
C261 C 0.22675 0.76789 0.52024 0.0
C262 C 0.23729 0.75027 0.50662 0.0
H263 H 0.25324 0.65204 0.44585 0.0
H264 H 0.23547 0.68059 0.4686 0.0
H265 H 0.27084 0.74017 0.45613 0.0
H266 H 0.24047 0.81711 0.53624 0.0
H267 H 0.25808 0.78801 0.51465 0.0
C268 C 0.28964 0.78238 0.93523 0.0
C269 C 0.27831 0.80172 0.93743 0.0
C270 C 0.28064 0.76547 0.94797 0.0
C271 C 0.22556 0.74538 0.9782 0.0
H272 H 0.27201 0.71132 0.01314 0.0
C273 C 0.19381 0.68432 0.0466 0.0
C274 C 0.2069 0.6657 0.04761 0.0
C275 C 0.20246 0.70065 0.03267 0.0
C276 C 0.25881 0.72047 0.00321 0.0
H277 H 0.24834 0.81841 0.95437 0.0
H278 H 0.23253 0.7888 0.9765 0.0
H279 H 0.28697 0.74015 0.98926 0.0
H280 H 0.23923 0.64954 0.03464 0.0
H281 H 0.25407 0.67789 0.00992 0.0
H282 H 0.1974 0.72564 0.99189 0.0
C283 C 0.24837 0.78675 0.96489 0.0
C284 C 0.2674 0.73701 0.98957 0.0
C285 C 0.2575 0.80372 0.95231 0.0
C286 C 0.2288 0.66374 0.03435 0.0
C287 C 0.23737 0.68004 0.02027 0.0
C288 C 0.21698 0.72874 0.99168 0.0
C289 C 0.25998 0.76751 0.963 0.0
C290 C 0.25085 0.74969 0.97703 0.0
C291 C 0.22431 0.69871 0.01928 0.0
C292 C 0.23349 0.71614 0.00447 0.0
H293 H 0.3057 0.78031 0.9239 0.0
H294 H 0.28979 0.75076 0.94597 0.0
H295 H 0.21243 0.75475 0.96844 0.0
H296 H 0.17693 0.68637 0.05672 0.0
H297 H 0.19215 0.71491 0.03267 0.0
C298 C 0.30011 0.32649 0.50562 0.0
C299 C 0.29811 0.3287 0.53072 0.0
C300 C 0.28808 0.31043 0.49379 0.0
C301 C 0.23669 0.27422 0.49947 0.0
H302 H 0.27381 0.24079 0.45436 0.0
C303 C 0.19206 0.21134 0.4403 0.0
C304 C 0.20432 0.19231 0.4397 0.0
C305 C 0.20317 0.22847 0.45086 0.0
C306 C 0.26325 0.24998 0.46694 0.0
H307 H 0.28154 0.31604 0.56305 0.0
H308 H 0.26036 0.28814 0.54231 0.0
H309 H 0.29357 0.27015 0.47384 0.0
H310 H 0.23794 0.17636 0.44954 0.0
H311 H 0.25738 0.20635 0.46784 0.0
H312 H 0.20642 0.25397 0.4927 0.0
C313 C 0.27125 0.29883 0.53182 0.0
C314 C 0.27447 0.26686 0.47791 0.0
C315 C 0.28348 0.31474 0.54369 0.0
C316 C 0.22799 0.1908 0.44975 0.0
C317 C 0.23919 0.20798 0.46009 0.0
C318 C 0.22539 0.25747 0.4883 0.0
C319 C 0.27359 0.29642 0.50679 0.0
C320 C 0.26136 0.27905 0.49442 0.0
C321 C 0.22686 0.22696 0.46081 0.0
C322 C 0.23862 0.24509 0.47208 0.0
H323 H 0.31126 0.33699 0.49513 0.0
H324 H 0.29003 0.309 0.47444 0.0
H325 H 0.22612 0.28345 0.51201 0.0
H326 H 0.17381 0.21301 0.43271 0.0
H327 H 0.19333 0.24296 0.45101 0.0
C328 C 0.75744 0.69026 0.03781 0.0
C329 C 0.78108 0.69135 0.04799 0.0
C330 C 0.74646 0.70776 0.02793 0.0
C331 C 0.76099 0.75757 0.00108 0.0
H332 H 0.69302 0.77095 0.01579 0.0
C333 C 0.70418 0.81675 0.94718 0.0
C334 C 0.69 0.83081 0.96052 0.0
C335 C 0.71593 0.80035 0.95861 0.0
C336 C 0.71206 0.76746 0.01166 0.0
H337 H 0.81177 0.71161 0.0557 0.0
H338 H 0.79265 0.7421 0.03819 0.0
H339 H 0.71224 0.74093 0.03452 0.0
H340 H 0.67709 0.83873 -0.00368 0.0
H341 H 0.69746 0.80986 0.01626 0.0
H342 H 0.76075 0.78399 0.97806 0.0
C343 C 0.78266 0.7277 0.03789 0.0
C344 C 0.72297 0.75021 0.02219 0.0
C345 C 0.79354 0.71027 0.048 0.0
C346 C 0.6879 0.82817 0.98555 0.0
C347 C 0.69944 0.81161 -0.00305 0.0
C348 C 0.75 0.77468 0.99034 0.0
C349 C 0.759 0.72663 0.0278 0.0
C350 C 0.74753 0.74508 0.01696 0.0
C351 C 0.71354 0.79754 0.98357 0.0
C352 C 0.72541 0.77975 0.99549 0.0
H353 H 0.74735 0.67591 0.03756 0.0
H354 H 0.72828 0.70647 0.02007 0.0
H355 H 0.77991 0.75389 -0.00338 0.0
H356 H 0.70618 0.81838 0.92786 0.0
H357 H 0.72652 0.78963 0.94784 0.0
C358 C 0.82715 0.18222 0.47487 0.0
C359 C 0.81312 0.17131 0.4579 0.0
C360 C 0.8167 0.19845 0.48787 0.0
C361 C 0.75693 0.21931 0.50753 0.0
H362 H 0.79291 0.2703 0.51561 0.0
C363 C 0.72099 0.28497 0.56773 0.0
C364 C 0.72233 0.30492 0.5581 0.0
C365 C 0.73303 0.26862 0.55644 0.0
C366 C 0.78262 0.25618 0.51342 0.0
H367 H 0.7771 0.16888 0.44126 0.0
H368 H 0.75895 0.19716 0.46388 0.0
H369 H 0.8119 0.24173 0.49384 0.0
H370 H 0.73772 0.32339 0.52927 0.0
H371 H 0.75865 0.29478 0.50951 0.0
H372 H 0.72749 0.23382 0.5267 0.0
C373 C 0.77796 0.19306 0.4673 0.0
C374 C 0.79358 0.23976 0.50118 0.0
C375 C 0.78842 0.17693 0.45424 0.0
C376 C 0.73631 0.30821 0.53714 0.0
C377 C 0.74842 0.29185 0.5259 0.0
C378 C 0.74604 0.23567 0.51986 0.0
C379 C 0.79197 0.20401 0.48424 0.0
C380 C 0.78076 0.22121 0.49795 0.0
C381 C 0.74674 0.27185 0.53532 0.0
C382 C 0.7587 0.25432 0.52282 0.0
H383 H 0.84624 0.17827 0.4781 0.0
H384 H 0.82789 0.20649 0.50096 0.0
H385 H 0.74669 0.20514 0.50554 0.0
H386 H 0.71047 0.28192 0.58391 0.0
H387 H 0.73165 0.25343 0.56431 0.0
C388 C 0.80159 0.28136 0.943 0.0
C389 C 0.78809 0.2997 0.94073 0.0
C390 C 0.79192 0.26471 0.95576 0.0
C391 C 0.73385 0.24235 0.97713 0.0
H392 H 0.77486 0.21516 0.02459 0.0
C393 C 0.69357 0.18596 0.04647 0.0
C394 C 0.70751 0.16855 0.05266 0.0
C395 C 0.70369 0.20141 0.03213 0.0
C396 C 0.76326 0.22236 0.01117 0.0
H397 H 0.75369 0.31485 0.94975 0.0
H398 H 0.73678 0.28574 0.97191 0.0
H399 H 0.79194 0.24292 0.00031 0.0
H400 H 0.74297 0.1536 0.04853 0.0
H401 H 0.7605 0.18038 0.02306 0.0
H402 H 0.70521 0.22175 0.98777 0.0
C403 C 0.75482 0.28424 0.96376 0.0
C404 C 0.77305 0.23829 -0.0027 0.0
C405 C 0.76457 0.30095 0.95119 0.0
C406 C 0.7318 0.16689 0.04418 0.0
C407 C 0.74188 0.1823 0.02967 0.0
C408 C 0.72411 0.22632 0.99086 0.0
C409 C 0.76846 0.26601 0.96631 0.0
C410 C 0.75837 0.24856 0.9803 0.0
C411 C 0.72794 0.19974 0.02347 0.0
C412 C 0.73862 0.21626 0.00821 0.0
H413 H 0.81976 0.2799 0.93514 0.0
H414 H 0.80273 0.25077 0.95726 0.0
H415 H 0.72223 0.24981 0.96391 0.0
H416 H 0.67484 0.18776 0.05284 0.0
H417 H 0.69257 0.21479 0.0281 0.0
C418 C 0.76461 0.82607 0.53413 0.0
C419 C 0.78584 0.82399 0.54835 0.0
C420 C 0.75647 0.80977 0.51984 0.0
C421 C 0.77734 0.76066 0.49255 0.0
H422 H 0.7073 0.75032 0.4869 0.0
C423 C 0.73689 0.6865 0.45078 0.0
C424 C 0.71697 0.68902 0.43491 0.0
C425 C 0.74585 0.7032 0.46395 0.0
C426 C 0.72691 0.75314 0.48814 0.0
H427 H 0.81505 0.8031 0.55891 0.0
H428 H 0.80052 0.77452 0.53448 0.0
H429 H 0.72168 0.7789 0.51149 0.0
H430 H 0.69101 0.71108 0.42023 0.0
H431 H 0.70659 0.74016 0.44333 0.0
H432 H 0.78246 0.73458 0.4695 0.0
C433 C 0.79045 0.78888 0.53392 0.0
C434 C 0.73516 0.76955 0.50217 0.0
C435 C 0.79869 0.80523 0.54806 0.0
C436 C 0.70637 0.70861 0.43232 0.0
C437 C 0.71518 0.72525 0.44564 0.0
C438 C 0.76907 0.74414 0.47867 0.0
C439 C 0.76926 0.79095 0.51959 0.0
C440 C 0.76048 0.77353 0.50455 0.0
C441 C 0.73493 0.72269 0.46167 0.0
C442 C 0.74377 0.74024 0.4763 0.0
H443 H 0.75439 0.84038 0.53384 0.0
H444 H 0.7403 0.81202 0.50875 0.0
H445 H 0.79694 0.76347 0.49364 0.0
H446 H 0.74548 0.67161 0.45316 0.0
H447 H 0.76099 0.70077 0.47632 0.0
C448 C 0.29595 0.06785 0.03386 0.0
C449 C 0.27631 0.07185 0.04969 0.0
C450 C 0.29752 0.04914 0.02172 0.0
C451 C 0.26201 0.00457 0.00109 0.0
H452 H 0.32606 0.97819 -2e-05 0.0
C453 C 0.27871 0.92363 0.95976 0.0
C454 C 0.30051 0.92113 0.9464 0.0
C455 C 0.27458 0.94163 0.97298 0.0
C456 C 0.3081 0.98544 -0.00012 0.0
H457 H 0.24252 0.05949 0.06463 0.0
H458 H 0.24529 0.02666 0.04322 0.0
H459 H 0.32072 0.01039 0.02165 0.0
H460 H 0.3348 0.93574 0.93604 0.0
H461 H 0.32745 0.9671 0.95868 0.0
H462 H 0.24951 0.97969 0.97897 0.0
C463 C 0.25943 0.03811 0.04029 0.0
C464 C 0.30505 0.00387 0.01235 0.0
C465 C 0.25791 0.05687 0.0526 0.0
C466 C 0.3179 0.93708 0.94628 0.0
C467 C 0.31375 0.95504 0.95941 0.0
C468 C 0.2651 0.9861 0.98848 0.0
C469 C 0.27947 0.03397 0.02501 0.0
C470 C 0.28207 0.01379 0.01282 0.0
C471 C 0.29216 0.95748 0.97308 0.0
C472 C 0.28829 0.97648 0.98747 0.0
H473 H 0.31039 0.07907 0.03106 0.0
H474 H 0.31296 0.04653 0.00974 0.0
H475 H 0.24413 0.01194 0.00106 0.0
H476 H 0.26495 0.91161 0.96023 0.0
H477 H 0.25785 0.94297 0.98347 0.0
C478 C 0.19089 0.94257 0.56253 0.0
C479 C 0.19641 0.92333 0.55236 0.0
C480 C 0.1934 0.96055 0.54897 0.0
C481 C 0.19344 0.97862 0.48644 0.0
H482 H 0.22082 0.02856 0.51348 0.0
C483 C 0.20606 0.05147 0.42894 0.0
C484 C 0.19971 0.0703 0.43967 0.0
C485 C 0.20776 0.0336 0.44279 0.0
C486 C 0.21291 0.01479 0.50574 0.0
H487 H 0.20943 0.9079 0.52011 0.0
H488 H 0.21379 0.93927 0.49647 0.0
H489 H 0.21995 -0.0028 0.53762 0.0
H490 H 0.19057 0.08523 0.47346 0.0
H491 H 0.19307 0.05401 0.49755 0.0
H492 H 0.1859 0.99618 0.45477 0.0
C493 C 0.20732 0.94043 0.51487 0.0
C494 C 0.21246 -0.00316 0.51956 0.0
C495 C 0.20493 0.92247 0.52847 0.0
C496 C 0.19555 0.07096 0.46464 0.0
C497 C 0.19713 0.05307 0.47848 0.0
C498 C 0.19378 -0.00343 0.47268 0.0
C499 C 0.20137 0.95964 0.52491 0.0
C500 C 0.20264 0.97858 0.51007 0.0
C501 C 0.20302 0.03413 0.46769 0.0
C502 C 0.20344 0.01491 0.48217 0.0
H503 H 0.18432 0.94377 0.5809 0.0
H504 H 0.18847 0.9751 0.55713 0.0
H505 H 0.18539 0.96488 0.47876 0.0
H506 H 0.20957 0.05045 0.40977 0.0
H507 H 0.21277 0.01936 0.43396 0.0
C508 C 0.66432 0.93842 0.93968 0.0
C509 C 0.64871 0.92349 0.94975 0.0
C510 C 0.66709 0.95757 0.95077 0.0
C511 C 0.662 0.98349 0.00901 0.0
H512 H 0.65523 0.03334 0.97132 0.0
C513 C 0.65478 0.06329 0.0536 0.0
C514 C 0.6655 0.08015 0.0418 0.0
C515 C 0.65371 0.0441 0.04236 0.0
C516 C 0.65761 0.0196 0.98208 0.0
H517 H 0.62395 0.91686 0.97941 0.0
H518 H 0.62908 0.95021 -0.0011 0.0
H519 H 0.65185 -3e-05 0.9516 0.0
H520 H 0.68407 0.09 0.00922 0.0
H521 H 0.68293 0.0564 0.98992 0.0
H522 H 0.66818 0.00294 0.03942 0.0
C523 C 0.6391 0.94708 0.98242 0.0
C524 C 0.65556 0.0005 0.97075 0.0
C525 C 0.63607 0.92805 0.97118 0.0
C526 C 0.67552 0.07734 0.01871 0.0
C527 C 0.67471 0.05808 0.00758 0.0
C528 C 0.66434 0.00258 0.02029 0.0
C529 C 0.65459 0.96204 0.9723 0.0
C530 C 0.65754 0.98227 0.98415 0.0
C531 C 0.66361 0.04125 0.01917 0.0
C532 C 0.66197 0.0209 0.00701 0.0
H533 H 0.67428 0.93537 0.92316 0.0
H534 H 0.67926 0.9688 0.94268 0.0
H535 H 0.66391 0.96965 0.01969 0.0
H536 H 0.64673 0.06499 0.07134 0.0
H537 H 0.64464 0.03161 0.0517 0.0
C538 C 0.81106 0.06885 0.47989 0.0
C539 C 0.81323 0.07159 0.45487 0.0
C540 C 0.81006 0.04911 0.48975 0.0
C541 C 0.82827 0.99589 0.47681 0.0
H542 H 0.78464 0.98267 0.52987 0.0
C543 C 0.8226 0.91402 0.51625 0.0
C544 C 0.82149 0.91241 0.54146 0.0
C545 C 0.81983 0.93309 0.50499 0.0
C546 C 0.79709 0.98617 0.5152 0.0
H547 H 0.81545 0.05574 0.42054 0.0
H548 H 0.81361 0.02131 0.43779 0.0
H549 H 0.78276 0.01669 0.51145 0.0
H550 H 0.81637 0.92954 0.57463 0.0
H551 H 0.81196 0.96281 0.55504 0.0
H552 H 0.84294 0.96557 0.48078 0.0
C553 C 0.81296 0.03444 0.44977 0.0
C554 C 0.79598 0.00565 0.50464 0.0
C555 C 0.81388 0.05417 0.4399 0.0
C556 C 0.81726 0.93024 0.55516 0.0
C557 C 0.81458 0.94931 0.54391 0.0
C558 C 0.82944 0.97645 0.48742 0.0
C559 C 0.81128 0.03169 0.47482 0.0
C560 C 0.81166 0.01075 0.48542 0.0
C561 C 0.81595 0.95099 0.5187 0.0
C562 C 0.81398 0.9714 0.50684 0.0
H563 H 0.81053 0.08194 0.49193 0.0
H564 H 0.80902 0.0475 0.50914 0.0
H565 H 0.84086 -0.00054 0.46227 0.0
H566 H 0.82568 0.90056 0.50516 0.0
H567 H 0.82062 0.9338 0.48552 0.0
C568 C 0.79315 0.44099 0.92518 0.0
C569 C 0.79271 0.42145 0.93595 0.0
C570 C 0.79034 0.4587 0.93918 0.0
C571 C 0.8001 0.47742 0.00043 0.0
H572 H 0.75937 0.52336 0.98057 0.0
C573 C 0.78991 0.54924 0.06003 0.0
C574 C 0.79027 0.56839 0.04838 0.0
C575 C 0.78768 0.5311 0.04675 0.0
C576 C 0.77102 0.51076 0.98626 0.0
H577 H 0.78843 0.40514 0.96979 0.0
H578 H 0.7837 0.43607 0.99419 0.0
H579 H 0.76018 0.49206 0.9563 0.0
H580 H 0.78811 0.58359 0.01368 0.0
H581 H 0.78488 0.55196 0.99046 0.0
H582 H 0.81158 0.49614 0.02993 0.0
C583 C 0.78632 0.43767 0.97494 0.0
C584 C 0.77142 0.49282 0.97238 0.0
C585 C 0.78892 0.41997 0.96094 0.0
C586 C 0.78782 0.56906 0.0232 0.0
C587 C 0.78582 0.55091 0.00989 0.0
C588 C 0.79988 0.49538 0.01418 0.0
C589 C 0.78724 0.45722 0.96424 0.0
C590 C 0.78603 0.47601 0.9793 0.0
C591 C 0.786 0.53168 0.02148 0.0
C592 C 0.78541 0.51231 0.00724 0.0
H593 H 0.79597 0.44265 0.90597 0.0
H594 H 0.79131 0.47358 0.93048 0.0
H595 H 0.81184 0.46482 0.006 0.0
H596 H 0.79152 0.54822 0.07944 0.0
H597 H 0.78738 0.5166 0.05633 0.0
C598 C 0.6595 0.43715 0.55153 0.0
C599 C 0.67756 0.42197 0.54801 0.0
C600 C 0.66173 0.45637 0.54061 0.0
C601 C 0.70697 0.49118 0.51172 0.0
H602 H 0.64807 0.51789 0.48767 0.0
C603 C 0.70758 0.56515 0.4531 0.0
C604 C 0.69017 0.58029 0.45923 0.0
C605 C 0.70709 0.54589 0.46428 0.0
C606 C 0.66465 0.51069 0.49449 0.0
H607 H 0.71212 0.41504 0.53018 0.0
H608 H 0.71573 0.44848 0.51061 0.0
H609 H 0.64507 0.48394 0.50583 0.0
H610 H 0.65894 0.58722 0.48226 0.0
H611 H 0.65806 0.55363 0.5016 0.0
H612 H 0.72652 0.51796 0.4999 0.0
C613 C 0.70007 0.44566 0.52221 0.0
C614 C 0.66295 0.49125 0.50495 0.0
C615 C 0.69792 0.42644 0.5333 0.0
C616 C 0.67259 0.5759 0.47707 0.0
C617 C 0.67197 0.55662 0.48806 0.0
C618 C 0.70869 0.51059 0.50104 0.0
C619 C 0.68197 0.46086 0.52571 0.0
C620 C 0.68404 0.4813 0.5139 0.0
C621 C 0.68905 0.54135 0.48161 0.0
C622 C 0.6875 0.5206 0.49251 0.0
H623 H 0.64368 0.43427 0.56291 0.0
H624 H 0.64769 0.46782 0.54411 0.0
H625 H 0.72355 0.4841 0.51869 0.0
H626 H 0.72138 0.56807 0.43945 0.0
H627 H 0.7204 0.53436 0.45889 0.0
C628 C 0.17163 0.57513 0.01552 0.0
C629 C 0.17043 0.57686 0.04071 0.0
C630 C 0.17383 0.55587 0.00461 0.0
C631 C 0.19017 0.5014 0.01693 0.0
H632 H 0.15174 0.49124 0.95934 0.0
C633 C 0.17294 0.42013 0.97786 0.0
C634 C 0.17421 0.41798 0.9527 0.0
C635 C 0.17435 0.43957 0.98851 0.0
C636 C 0.16281 0.49391 0.97525 0.0
H637 H 0.17087 0.55973 0.07423 0.0
H638 H 0.17417 0.52612 0.05519 0.0
H639 H 0.15065 0.52506 0.97806 0.0
H640 H 0.17851 0.43455 0.91903 0.0
H641 H 0.18092 0.46841 0.93764 0.0
H642 H 0.20187 0.47 0.0143 0.0
C643 C 0.17386 0.53966 0.04385 0.0
C644 C 0.16223 0.51331 0.98597 0.0
C645 C 0.17182 0.55894 0.05477 0.0
C646 C 0.17738 0.43565 0.93846 0.0
C647 C 0.17864 0.45507 0.9491 0.0
C648 C 0.19062 0.48193 0.00628 0.0
C649 C 0.17472 0.53787 0.01862 0.0
C650 C 0.17587 0.51731 0.00696 0.0
C651 C 0.1769 0.45726 0.97421 0.0
C652 C 0.17691 0.47798 0.98534 0.0
H653 H 0.1708 0.58866 0.00418 0.0
H654 H 0.17488 0.55509 0.98515 0.0
H655 H 0.20118 0.50402 0.03288 0.0
H656 H 0.17053 0.40682 0.98934 0.0
H657 H 0.17276 0.44079 0.0079 0.0
C658 C 0.32194 0.57423 0.47574 0.0
C659 C 0.33151 0.57701 0.45246 0.0
C660 C 0.32279 0.55494 0.48677 0.0
C661 C 0.33199 0.49939 0.47342 0.0
H662 H 0.34479 0.49609 0.54201 0.0
C663 C 0.35743 0.42373 0.5218 0.0
C664 C 0.34448 0.41942 0.54312 0.0
C665 C 0.35534 0.44295 0.51079 0.0
C666 C 0.34102 0.49681 0.52288 0.0
H667 H 0.34963 0.56179 0.42255 0.0
H668 H 0.35181 0.52834 0.44202 0.0
H669 H 0.34226 0.52964 0.52259 0.0
H670 H 0.31942 0.43196 0.56979 0.0
H671 H 0.3161 0.46571 0.55069 0.0
H672 H 0.33144 0.46646 0.47374 0.0
C673 C 0.34304 0.54088 0.45157 0.0
C674 C 0.33945 0.51602 0.51173 0.0
C675 C 0.34192 0.56011 0.44044 0.0
C676 C 0.32959 0.43481 0.55334 0.0
C677 C 0.32777 0.45414 0.5425 0.0
C678 C 0.33386 0.48019 0.48452 0.0
C679 C 0.33349 0.53803 0.4749 0.0
C680 C 0.33491 0.51757 0.48684 0.0
C681 C 0.34052 0.45834 0.52105 0.0
C682 C 0.33838 0.47872 0.50935 0.0
H683 H 0.31365 0.58693 0.48541 0.0
H684 H 0.31486 0.55328 0.50456 0.0
H685 H 0.328 0.49994 0.45433 0.0
H686 H 0.36902 0.41218 0.51345 0.0
H687 H 0.36553 0.44586 0.49437 0.0
C688 C 0.57114 0.14567 0.10218 0.0
C689 C 0.58223 0.14219 0.07965 0.0
C690 C 0.54561 0.14789 0.10405 0.0
C691 C 0.48899 0.13301 0.0732 0.0
H692 H 0.45783 0.17492 0.11249 0.0
C693 C 0.38437 0.14374 0.07239 0.0
C694 C 0.37258 0.14746 0.09448 0.0
C695 C 0.40994 0.14467 0.07061 0.0
C696 C 0.46626 0.16299 0.10166 0.0
H697 H 0.5753 0.13885 0.04137 0.0
H698 H 0.53081 0.14265 0.04469 0.0
H699 H 0.50272 0.17369 0.10946 0.0
H700 H 0.3783 0.1555 0.13195 0.0
H701 H 0.42313 0.15664 0.129 0.0
H702 H 0.45284 0.12194 0.06573 0.0
C703 C 0.54184 0.14351 0.0609 0.0
C704 C 0.49194 0.16233 0.09989 0.0
C705 C 0.56734 0.14143 0.059 0.0
C706 C 0.38688 0.1526 0.11467 0.0
C707 C 0.41256 0.15334 0.11294 0.0
C708 C 0.46341 0.13356 0.0751 0.0
C709 C 0.5307 0.14652 0.08346 0.0
C710 C 0.50352 0.14739 0.08552 0.0
C711 C 0.4244 0.14911 0.09094 0.0
C712 C 0.4517 0.14862 0.08922 0.0
H713 H 0.58212 0.14639 0.11843 0.0
H714 H 0.53748 0.15008 0.12169 0.0
H715 H 0.49743 0.12107 0.06237 0.0
H716 H 0.37385 0.13999 0.05642 0.0
H717 H 0.41839 0.14181 0.05326 0.0
C718 C 0.91621 0.85816 0.60716 0.0
C719 C 0.9052 0.85122 0.58575 0.0
C720 C 0.94178 0.85786 0.60976 0.0
C721 C -0.00126 0.83507 0.58456 0.0
H722 H 0.02975 0.88334 0.61201 0.0
C723 C 0.10274 0.85122 0.5757 0.0
C724 C 0.11496 0.8595 0.59578 0.0
C725 C 0.07716 0.84906 0.57577 0.0
C726 C 0.02137 0.86962 0.60462 0.0
H727 H 0.91239 0.83816 0.55048 0.0
H728 H 0.95698 0.83787 0.55493 0.0
H729 H 0.98503 0.88144 0.60997 0.0
H730 H 0.10995 0.87171 0.63182 0.0
H731 H 0.06532 0.86783 0.63196 0.0
H732 H 0.03516 0.82339 0.57893 0.0
C733 C 0.94585 0.84331 0.56982 0.0
C734 C -0.00426 0.86852 0.60346 0.0
C735 C 0.92028 0.8436 0.56721 0.0
C736 C 0.10109 0.86536 0.61602 0.0
C737 C 0.0755 0.86323 0.61607 0.0
C738 C 0.0244 0.83618 0.5857 0.0
C739 C 0.9569 0.85062 0.59103 0.0
C740 C 0.98413 0.8513 0.59325 0.0
C741 C 0.06325 0.85515 0.5959 0.0
C742 C 0.036 0.85354 0.59558 0.0
H743 H 0.9051 0.86402 0.62184 0.0
H744 H 0.94971 0.86332 0.62647 0.0
H745 H 0.99035 0.82145 0.57693 0.0
H746 H 0.11288 0.84655 0.55981 0.0
H747 H 0.06825 0.84302 0.55984 0.0
C748 C 0.38432 0.84695 0.92011 0.0
C749 C 0.37353 0.85009 0.89743 0.0
C750 C 0.4098 0.84485 0.92232 0.0
C751 C 0.46692 0.83536 0.88677 0.0
H752 H 0.49824 0.86096 0.94185 0.0
C753 C 0.57115 0.85297 0.89286 0.0
C754 C 0.58289 0.84832 0.91474 0.0
C755 C 0.54564 0.85106 0.89067 0.0
C756 C 0.48971 0.85354 0.92652 0.0
H757 H 0.38093 0.85342 0.85926 0.0
H758 H 0.42543 0.85047 0.86316 0.0
H759 H 0.45363 0.86197 0.93815 0.0
H760 H 0.57716 0.83764 0.95134 0.0
H761 H 0.53254 0.8346 0.94755 0.0
H762 H 0.50331 0.82764 0.87482 0.0
C763 C 0.41423 0.84907 0.87921 0.0
C764 C 0.46412 0.85404 0.92441 0.0
C765 C 0.38871 0.8509 0.87697 0.0
C766 C 0.56866 0.84135 0.93424 0.0
C767 C 0.54313 0.83969 0.93213 0.0
C768 C 0.49256 0.83509 0.88875 0.0
C769 C 0.42513 0.84613 0.90194 0.0
C770 C 0.45237 0.84501 0.90447 0.0
C771 C 0.53136 0.84471 0.9104 0.0
C772 C 0.50418 0.84423 0.90862 0.0
H773 H 0.37307 0.84604 0.93619 0.0
H774 H 0.41745 0.84218 0.94004 0.0
H775 H 0.45851 0.82793 0.87139 0.0
H776 H 0.58162 0.85831 0.87749 0.0
H777 H 0.53699 0.85515 0.87376 0.0
C778 C 0.09856 0.14544 0.40652 0.0
C779 C 0.10885 0.12591 0.40239 0.0
C780 C 0.07323 0.1486 0.40412 0.0
C781 C 0.01706 0.12529 0.37757 0.0
H782 H 0.98309 0.15958 0.42411 0.0
C783 C 0.91236 0.12246 0.39263 0.0
C784 C 0.89975 0.14119 0.39541 0.0
C785 C 0.938 0.12203 0.39144 0.0
C786 C 0.99238 0.15019 0.4108 0.0
H787 H 0.10061 0.09437 0.39268 0.0
H788 H 0.05645 0.09974 0.3891 0.0
H789 H 0.02772 0.15595 0.42631 0.0
H790 H 0.90415 0.1742 0.39887 0.0
H791 H 0.94915 0.17338 0.39706 0.0
H792 H 0.98155 0.11906 0.36257 0.0
C793 C 0.06796 0.11275 0.39364 0.0
C794 C 0.01796 0.14812 0.41202 0.0
C795 C 0.09328 0.10963 0.39587 0.0
C796 C 0.91334 0.15953 0.3967 0.0
C797 C 0.93907 0.15907 0.39579 0.0
C798 C 0.99149 0.12723 0.37649 0.0
C799 C 0.05761 0.13228 0.39769 0.0
C800 C 0.03058 0.13544 0.39559 0.0
C801 C 0.95163 0.14029 0.39324 0.0
C802 C 0.97888 0.13951 0.39326 0.0
H803 H 0.11009 0.15834 0.41143 0.0
H804 H 0.06594 0.1639 0.40707 0.0
H805 H 0.02622 0.11577 0.3643 0.0
H806 H 0.90243 0.10807 0.39153 0.0
H807 H 0.9472 0.10732 0.38972 0.0
C808 C 0.07391 0.63183 0.10043 0.0
C809 C 0.08629 0.63977 0.08025 0.0
C810 C 0.04823 0.63232 0.10163 0.0
C811 C 0.99355 0.63516 0.06268 0.0
H812 H 0.95933 0.64658 0.12253 0.0
C813 C 0.88771 0.64078 0.06783 0.0
C814 C 0.87637 0.63086 0.08738 0.0
C815 C 0.91325 0.64321 0.06717 0.0
C816 C 0.96864 0.6432 0.10573 0.0
H817 H 0.08143 0.65495 0.04578 0.0
H818 H 0.03665 0.65597 0.04801 0.0
H819 H 0.00415 0.64872 0.1211 0.0
H820 H 0.88293 0.6159 0.1217 0.0
H821 H 0.92748 0.61999 0.12045 0.0
H822 H 0.9581 0.62948 0.04736 0.0
C823 C 0.04678 0.64908 0.06273 0.0
C824 C 0.9943 0.64443 0.10491 0.0
C825 C 0.07246 0.64859 0.06153 0.0
C826 C 0.89108 0.62362 0.10638 0.0
C827 C 0.91661 0.62608 0.10574 0.0
C828 C 0.96791 0.63395 0.0635 0.0
C829 C 0.03437 0.64076 0.08269 0.0
C830 C 0.00705 0.64029 0.08341 0.0
C831 C 0.92799 0.63582 0.08608 0.0
C832 C 0.95518 0.63783 0.08506 0.0
H833 H 0.08401 0.62491 0.11516 0.0
H834 H 0.03922 0.62557 0.11713 0.0
H835 H 0.00283 0.63156 0.04593 0.0
H836 H 0.8769 0.64663 0.05294 0.0
H837 H 0.92144 0.651 0.05191 0.0
C838 C 0.60404 0.33936 0.57008 0.0
C839 C 0.61474 0.34295 0.59269 0.0
C840 C 0.57869 0.33632 0.56798 0.0
C841 C 0.52177 0.32607 0.60378 0.0
H842 H 0.48993 0.35159 0.5489 0.0
C843 C 0.41785 0.34542 0.59883 0.0
C844 C 0.40569 0.34107 0.57708 0.0
C845 C 0.44329 0.34275 0.60077 0.0
C846 C 0.49859 0.34416 0.56416 0.0
H847 H 0.60737 0.34588 0.63091 0.0
H848 H 0.56308 0.34136 0.62723 0.0
H849 H 0.53452 0.35252 0.55219 0.0
H850 H 0.41058 0.32999 0.54052 0.0
H851 H 0.4551 0.32564 0.54386 0.0
H852 H 0.48546 0.31856 0.61614 0.0
C853 C 0.57425 0.34031 0.61112 0.0
C854 C 0.52419 0.3446 0.56604 0.0
C855 C 0.59966 0.34304 0.61324 0.0
C856 C 0.4194 0.33351 0.55751 0.0
C857 C 0.44488 0.33109 0.55937 0.0
C858 C 0.49609 0.32587 0.60204 0.0
C859 C 0.56338 0.33714 0.58842 0.0
C860 C 0.53615 0.33567 0.58594 0.0
C861 C 0.45709 0.33592 0.58092 0.0
C862 C 0.48428 0.33502 0.58227 0.0
H863 H 0.61524 0.33897 0.55394 0.0
H864 H 0.5711 0.33345 0.55028 0.0
H865 H 0.53031 0.31871 0.61914 0.0
H866 H 0.40777 0.35119 0.61425 0.0
H867 H 0.45229 0.34672 0.61754 0.0
C868 C 0.07833 0.36518 0.88974 0.0
C869 C 0.08994 0.35657 0.90999 0.0
C870 C 0.05273 0.36464 0.88751 0.0
C871 C -0.0036 0.35982 0.92401 0.0
H872 H 0.96506 0.34958 0.86245 0.0
C873 C 0.89137 0.35099 0.91515 0.0
C874 C 0.88008 0.36118 0.89576 0.0
C875 C 0.91697 0.3494 0.91639 0.0
C876 C 0.97356 0.35264 0.87971 0.0
H877 H 0.08379 0.34024 0.94352 0.0
H878 H 0.03917 0.33912 0.9395 0.0
H879 H 0.00987 0.34848 0.86549 0.0
H880 H 0.88679 0.37744 0.86229 0.0
H881 H 0.93151 0.3748 0.86458 0.0
H882 H 0.96017 0.36409 0.93822 0.0
C883 C 0.04984 0.34657 0.92552 0.0
C884 C -0.00079 0.35201 0.88146 0.0
C885 C 0.07543 0.34712 0.92776 0.0
C886 C 0.89492 0.36948 0.87746 0.0
C887 C 0.92054 0.36787 0.8787 0.0
C888 C 0.97079 0.36043 0.92227 0.0
C889 C 0.03818 0.35547 0.90548 0.0
C890 C 0.01092 0.35565 0.90362 0.0
C891 C 0.93185 0.35794 0.89827 0.0
C892 C 0.95907 0.3569 0.9001 0.0
H893 H 0.08898 0.3726 0.87573 0.0
H894 H 0.04431 0.37184 0.87198 0.0
H895 H 0.00485 0.36305 0.94126 0.0
H896 H 0.88047 0.34432 0.92948 0.0
H897 H 0.92511 0.34139 0.93152 0.0
C898 C 0.60996 0.64185 0.41323 0.0
C899 C 0.6223 0.64394 0.39112 0.0
C900 C 0.58441 0.64374 0.41445 0.0
C901 C 0.52896 0.63785 0.37799 0.0
H902 H 0.49756 0.66694 0.43071 0.0
C903 C 0.42323 0.64265 0.38679 0.0
C904 C 0.4136 0.63955 0.41001 0.0
C905 C 0.44847 0.64559 0.38341 0.0
C906 C 0.50605 0.65863 0.41597 0.0
H907 H 0.61752 0.64989 0.35296 0.0
H908 H 0.57274 0.65305 0.35511 0.0
H909 H 0.54227 0.66773 0.42671 0.0
H910 H 0.42288 0.6374 0.44792 0.0
H911 H 0.46687 0.64213 0.442 0.0
H912 H 0.49287 0.62823 0.3676 0.0
C913 C 0.58292 0.64991 0.37146 0.0
C914 C 0.53163 0.65913 0.41367 0.0
C915 C 0.60855 0.64818 0.37027 0.0
C916 C 0.42969 0.63979 0.4298 0.0
C917 C 0.45491 0.64265 0.42641 0.0
C918 C 0.50337 0.63725 0.38036 0.0
C919 C 0.5706 0.64762 0.39356 0.0
C920 C 0.54337 0.6485 0.39485 0.0
C921 C 0.46464 0.64543 0.40317 0.0
C922 C 0.49164 0.64739 0.39958 0.0
H923 H 0.62001 0.6386 0.42964 0.0
H924 H 0.5754 0.64165 0.43168 0.0
H925 H 0.53752 0.62933 0.36346 0.0
H926 H 0.41129 0.64268 0.37118 0.0
H927 H 0.45532 0.64797 0.3653 0.0
C928 C 0.26592 0.12332 0.16097 0.0
C929 C 0.28847 0.11453 0.15406 0.0
C930 C 0.25888 0.12367 0.18515 0.0
C931 C 0.27212 0.10048 0.2448 0.0
H932 H 0.23988 0.14982 0.26823 0.0
C933 C 0.25344 0.11661 0.34599 0.0
C934 C 0.22974 0.12388 0.35157 0.0
C935 C 0.26108 0.115 0.322 0.0
C936 C 0.24871 0.13589 0.2619 0.0
H937 H 0.32117 0.09893 0.16703 0.0
H938 H 0.30913 0.09993 0.20932 0.0
H939 H 0.25222 0.14763 0.22616 0.0
H940 H 0.19547 0.13514 0.33639 0.0
H941 H 0.20889 0.13245 0.29466 0.0
H942 H 0.26883 0.08894 0.28082 0.0
C943 C 0.29667 0.10625 0.19602 0.0
C944 C 0.25571 0.13458 0.23777 0.0
C945 C 0.30363 0.10575 0.17178 0.0
C946 C 0.21387 0.12951 0.33272 0.0
C947 C 0.22158 0.12808 0.30881 0.0
C948 C 0.26527 0.10186 0.26903 0.0
C949 C 0.27432 0.11541 0.20302 0.0
C950 C 0.2673 0.1168 0.22886 0.0
C951 C 0.24525 0.12083 0.3032 0.0
C952 C 0.25332 0.11952 0.27775 0.0
H953 H 0.25371 0.13005 0.14772 0.0
H954 H 0.24129 0.13044 0.18981 0.0
H955 H 0.28076 0.08647 0.23849 0.0
H956 H 0.26607 0.11211 0.36012 0.0
H957 H 0.2795 0.10949 0.31817 0.0
C958 C 0.29362 0.89369 0.8239 0.0
C959 C 0.28358 0.87921 0.83989 0.0
C960 C 0.2875 0.89327 0.79946 0.0
C961 C 0.26265 0.85852 0.75267 0.0
H962 H 0.25277 0.90904 0.71688 0.0
C963 C 0.22043 0.86015 0.65759 0.0
C964 C 0.23156 0.87304 0.64045 0.0
C965 C 0.22755 0.86095 0.68171 0.0
C966 C 0.25574 0.89482 0.7266 0.0
H967 H 0.25876 0.85324 0.8429 0.0
H968 H 0.24767 0.85278 0.80043 0.0
H969 H 0.26306 0.91062 0.75962 0.0
H970 H 0.25894 0.89687 0.63519 0.0
H971 H 0.27132 0.8983 0.67746 0.0
H972 H 0.25497 0.84274 0.71971 0.0
C973 C 0.26072 0.86418 0.80663 0.0
C974 C 0.26165 0.89571 0.75107 0.0
C975 C 0.26694 0.86454 0.83102 0.0
C976 C 0.25002 0.88673 0.64795 0.0
C977 C 0.25702 0.88764 0.67216 0.0
C978 C 0.25661 0.85764 0.72826 0.0
C979 C 0.2711 0.87841 0.79051 0.0
C980 C 0.26506 0.87756 0.76442 0.0
C981 C 0.24584 0.87475 0.68927 0.0
C982 C 0.25299 0.87577 0.715 0.0
H983 H 0.30658 0.90515 0.83014 0.0
H984 H 0.29605 0.9043 0.78751 0.0
H985 H 0.26566 0.84425 0.76227 0.0
H986 H 0.20612 0.84944 0.65242 0.0
H987 H 0.21842 0.851 0.69454 0.0
C988 C 0.69604 0.87124 0.8274 0.0
C989 C 0.68844 0.85292 0.83854 0.0
C990 C 0.70829 0.87074 0.80527 0.0
C991 C 0.71957 0.83765 0.75221 0.0
H992 H 0.77531 0.87384 0.74222 0.0
C993 C 0.78461 0.83007 0.67034 0.0
C994 C 0.79183 0.8484 0.65897 0.0
C995 C 0.77183 0.83061 0.69218 0.0
C996 C 0.75963 0.86379 0.74464 0.0
H997 H 0.68764 0.8197 0.83512 0.0
H998 H 0.70925 0.81882 0.79669 0.0
H999 H 0.7531 0.87486 0.78036 0.0
H1000 H 0.79129 0.88168 0.66163 0.0
H1001 H 0.76892 0.8826 0.69967 0.0
H1002 H 0.72622 0.82651 0.71651 0.0
C1003 C 0.70546 0.8336 0.80489 0.0
C1004 C 0.74687 0.86439 0.76648 0.0
C1005 C 0.69318 0.8341 0.82699 0.0
C1006 C 0.78605 0.86727 0.66994 0.0
C1007 C 0.77334 0.86781 0.69181 0.0
C1008 C 0.73236 0.83702 0.73038 0.0
C1009 C 0.71324 0.8519 0.79381 0.0
C1010 C 0.72669 0.85133 0.77052 0.0
C1011 C 0.76607 0.84949 0.70315 0.0
C1012 C 0.75252 0.85009 0.72636 0.0
H1013 H 0.69258 0.886 0.83578 0.0
H1014 H 0.71372 0.88513 0.79706 0.0
H1015 H 0.70388 0.8276 0.7546 0.0
H1016 H 0.7888 0.81527 0.66238 0.0
H1017 H 0.76672 0.81623 0.70062 0.0
C1018 C 0.78414 0.12298 0.329 0.0
C1019 C 0.78928 0.14125 0.34154 0.0
C1020 C 0.772 0.12357 0.30685 0.0
C1021 C 0.7576 0.15806 0.25598 0.0
H1022 H 0.70713 0.11766 0.2421 0.0
C1023 C 0.69504 0.16335 0.17219 0.0
C1024 C 0.69051 0.14499 0.15964 0.0
C1025 C 0.70695 0.16302 0.19448 0.0
C1026 C 0.72135 0.12892 0.24561 0.0
H1027 H 0.78569 0.17446 0.34063 0.0
H1028 H 0.7643 0.17545 0.30209 0.0
H1029 H 0.72822 0.11688 0.28083 0.0
H1030 H 0.69493 0.11184 0.16066 0.0
H1031 H 0.71583 0.11128 0.19947 0.0
H1032 H 0.75069 0.1701 0.22076 0.0
C1033 C 0.76993 0.16069 0.30925 0.0
C1034 C 0.73345 0.12847 0.26779 0.0
C1035 C 0.78208 0.16011 0.33141 0.0
C1036 C 0.69808 0.12627 0.16988 0.0
C1037 C 0.70994 0.12593 0.19219 0.0
C1038 C 0.74548 0.15852 0.23381 0.0
C1039 C 0.76473 0.14242 0.29673 0.0
C1040 C 0.75175 0.14301 0.27321 0.0
C1041 C 0.71453 0.1443 0.20472 0.0
C1042 C 0.72726 0.14393 0.22836 0.0
H1043 H 0.78951 0.10819 0.33626 0.0
H1044 H 0.76858 0.10924 0.2975 0.0
H1045 H 0.77185 0.1693 0.25946 0.0
H1046 H 0.6894 0.17803 0.16482 0.0
H1047 H 0.70996 0.17741 0.20382 0.0
C1048 C 0.72976 0.62386 0.32835 0.0
C1049 C 0.71008 0.61176 0.33658 0.0
C1050 C 0.73617 0.62397 0.30401 0.0
C1051 C 0.72825 0.5954 0.24672 0.0
H1052 H 0.74586 0.64786 0.2184 0.0
C1053 C 0.73932 0.60802 0.14393 0.0
C1054 C 0.76018 0.61921 0.13673 0.0
C1055 C 0.73301 0.60662 0.16829 0.0
C1056 C 0.74116 0.63307 0.2261 0.0
H1057 H 0.68194 0.59001 0.32578 0.0
H1058 H 0.69282 0.5905 0.2832 0.0
H1059 H 0.73552 0.64604 0.26101 0.0
H1060 H 0.79078 0.63769 0.14943 0.0
H1061 H 0.77967 0.63531 0.19182 0.0
H1062 H 0.73362 0.58255 0.21155 0.0
C1063 C 0.70357 0.59967 0.29562 0.0
C1064 C 0.73533 0.632 0.25054 0.0
C1065 C 0.69726 0.59945 0.32002 0.0
C1066 C 0.77455 0.62899 0.15436 0.0
C1067 C 0.76814 0.62772 0.17864 0.0
C1068 C 0.73394 0.59651 0.2222 0.0
C1069 C 0.72293 0.6121 0.28728 0.0
C1070 C 0.72895 0.61313 0.2612 0.0
C1071 C 0.74732 0.61653 0.18587 0.0
C1072 C 0.7406 0.61534 0.21169 0.0
H1073 H 0.74013 0.6334 0.34069 0.0
H1074 H 0.75151 0.6334 0.29829 0.0
H1075 H 0.7237 0.58058 0.2544 0.0
H1076 H 0.7279 0.60028 0.13077 0.0
H1077 H 0.71675 0.59802 0.17336 0.0
C1078 C 0.68954 0.39059 0.66799 0.0
C1079 C 0.70147 0.37827 0.65077 0.0
C1080 C 0.69688 0.3901 0.6921 0.0
C1081 C 0.73048 0.3574 0.7356 0.0
H1082 H 0.73156 0.40699 0.77438 0.0
C1083 C 0.77475 0.36039 0.82972 0.0
C1084 C 0.7614 0.37043 0.84795 0.0
C1085 C 0.76712 0.36157 0.80576 0.0
C1086 C 0.73112 0.393 0.76381 0.0
H1087 H 0.73091 0.35621 0.6452 0.0
H1088 H 0.74406 0.35572 0.68707 0.0
H1089 H 0.71936 0.40895 0.73213 0.0
H1090 H 0.72966 0.38971 0.85533 0.0
H1091 H 0.71641 0.39183 0.81336 0.0
H1092 H 0.74255 0.34153 0.76721 0.0
C1093 C 0.72864 0.36539 0.68211 0.0
C1094 C 0.72411 0.3941 0.73963 0.0
C1095 C 0.72121 0.36578 0.65806 0.0
C1096 C 0.74032 0.38177 0.8417 0.0
C1097 C 0.7328 0.38309 0.81768 0.0
C1098 C 0.73764 0.35634 0.7597 0.0
C1099 C 0.71641 0.37738 0.69948 0.0
C1100 C 0.72376 0.37631 0.72522 0.0
C1101 C 0.74609 0.37294 0.79949 0.0
C1102 C 0.73809 0.37412 0.77403 0.0
H1103 H 0.6742 0.40033 0.66296 0.0
H1104 H 0.68686 0.39936 0.70504 0.0
H1105 H 0.72993 0.34334 0.72519 0.0
H1106 H 0.7911 0.35155 0.83392 0.0
H1107 H 0.77787 0.35378 0.79208 0.0
C1108 C 0.2944 0.36901 0.66474 0.0
C1109 C 0.29968 0.35028 0.65321 0.0
C1110 C 0.28238 0.36926 0.68699 0.0
C1111 C 0.26802 0.33661 0.73964 0.0
H1112 H 0.21719 0.37733 0.75128 0.0
C1113 C 0.204 0.33359 0.82259 0.0
C1114 C 0.19935 0.35227 0.83448 0.0
C1115 C 0.2163 0.33334 0.80049 0.0
C1116 C 0.23151 0.366 0.74839 0.0
H1117 H 0.29653 0.31712 0.65603 0.0
H1118 H 0.2753 0.31759 0.69468 0.0
H1119 H 0.2387 0.3769 0.71274 0.0
H1120 H 0.20393 0.38536 0.83245 0.0
H1121 H 0.22546 0.3849 0.79392 0.0
H1122 H 0.26071 0.32564 0.77527 0.0
C1123 C 0.28075 0.33207 0.68669 0.0
C1124 C 0.24386 0.36576 0.72632 0.0
C1125 C 0.29281 0.33182 0.66447 0.0
C1126 C 0.20718 0.37071 0.82374 0.0
C1127 C 0.2194 0.37046 0.8016 0.0
C1128 C 0.25563 0.33681 0.76169 0.0
C1129 C 0.27534 0.3508 0.69819 0.0
C1130 C 0.26227 0.35107 0.72169 0.0
C1131 C 0.22413 0.35177 0.78976 0.0
C1132 C 0.23725 0.35152 0.76631 0.0
H1133 H 0.29954 0.38351 0.65659 0.0
H1134 H 0.27881 0.38394 0.69552 0.0
H1135 H 0.28236 0.32529 0.73679 0.0
H1136 H 0.19818 0.31912 0.83035 0.0
H1137 H 0.21942 0.31872 0.79166 0.0
C1138 C 0.29361 0.62387 0.32569 0.0
C1139 C 0.3012 0.6424 0.33636 0.0
C1140 C 0.28051 0.624 0.30405 0.0
C1141 C 0.2672 0.6565 0.25104 0.0
H1142 H 0.21258 0.61894 0.24216 0.0
C1143 C 0.20192 0.66156 0.16931 0.0
C1144 C 0.19562 0.64292 0.15812 0.0
C1145 C 0.2144 0.6616 0.1913 0.0
C1146 C 0.22793 0.62939 0.24429 0.0
H1147 H 0.30086 0.67561 0.33272 0.0
H1148 H 0.27777 0.67583 0.29515 0.0
H1149 H 0.23525 0.61879 0.28006 0.0
H1150 H 0.19733 0.6097 0.16133 0.0
H1151 H 0.21919 0.60981 0.19964 0.0
H1152 H 0.25983 0.66712 0.21529 0.0
C1153 C 0.28226 0.66118 0.30331 0.0
C1154 C 0.24094 0.62929 0.26599 0.0
C1155 C 0.29539 0.66105 0.32493 0.0
C1156 C 0.20188 0.62433 0.16949 0.0
C1157 C 0.21429 0.62439 0.19151 0.0
C1158 C 0.25416 0.65663 0.22938 0.0
C1159 C 0.27467 0.64266 0.29261 0.0
C1160 C 0.26076 0.64282 0.2696 0.0
C1161 C 0.22078 0.64302 0.2026 0.0
C1162 C 0.23441 0.64305 0.22575 0.0
H1163 H 0.29786 0.60923 0.334 0.0
H1164 H 0.27524 0.60945 0.29611 0.0
H1165 H 0.28261 0.6669 0.25309 0.0
H1166 H 0.19732 0.67615 0.16106 0.0
H1167 H 0.2189 0.67621 0.19955 0.0
loop_
_geom_bond_atom_site_label_1
_geom_bond_atom_site_label_2
_geom_bond_distance
_geom_bond_site_symmetry_2
_ccdc_geom_bond_type
C0 O1 1.160 . S
C0 O7 1.185 . S
O1 C0 1.160 . S
O2 Zn3 1.899 . S
O2 C10 1.284 . S
Zn3 O2 1.899 . S
Zn3 O4 2.032 . S
Zn3 O7 2.086 . S
Zn3 O12 1.977 . S
O4 Zn3 2.032 . S
O4 C8 1.278 . S
C5 O6 1.203 . S
C5 O12 1.267 . S
O6 C5 1.203 . S
O7 C0 1.185 . S
O7 Zn3 2.086 . S
C8 O4 1.278 . S
C8 O9 1.211 . S
O9 C8 1.211 . S
C10 O2 1.284 . S
C10 O11 1.273 . S
O11 C10 1.273 . S
O12 Zn3 1.977 . S
O12 C5 1.267 . S
C13 O14 1.160 . S
C13 O20 1.185 . S
O14 C13 1.160 . S
O15 Zn16 1.899 . S
O15 C23 1.284 . S
Zn16 O15 1.899 . S
Zn16 O17 2.032 . S
Zn16 O20 2.086 . S
Zn16 O25 1.977 . S
O17 Zn16 2.032 . S
O17 C21 1.278 . S
C18 O19 1.203 . S
C18 O25 1.267 . S
O19 C18 1.203 . S
O20 C13 1.185 . S
O20 Zn16 2.086 . S
C21 O17 1.278 . S
C21 O22 1.211 . S
O22 C21 1.211 . S
C23 O15 1.284 . S
C23 O24 1.273 . S
O24 C23 1.273 . S
O25 Zn16 1.977 . S
O25 C18 1.267 . S
C26 O27 1.160 . S
C26 O33 1.185 . S
O27 C26 1.160 . S
O28 Zn29 1.899 . S
O28 C36 1.284 . S
Zn29 O28 1.899 . S
Zn29 O30 2.032 . S
Zn29 O33 2.086 . S
Zn29 O38 1.977 . S
O30 Zn29 2.032 . S
O30 C34 1.278 . S
C31 O32 1.203 . S
C31 O38 1.267 . S
O32 C31 1.203 . S
O33 C26 1.185 . S
O33 Zn29 2.086 . S
C34 O30 1.278 . S
C34 O35 1.211 . S
O35 C34 1.211 . S
C36 O28 1.284 . S
C36 O37 1.273 . S
O37 C36 1.273 . S
O38 Zn29 1.977 . S
O38 C31 1.267 . S
C39 O40 1.160 . S
C39 O46 1.185 . S
O40 C39 1.160 . S
O41 Zn42 1.899 . S
O41 C49 1.284 . S
Zn42 O41 1.899 . S
Zn42 O43 2.032 . S
Zn42 O46 2.086 . S
Zn42 O51 1.977 . S
O43 Zn42 2.032 . S
O43 C47 1.278 . S
C44 O45 1.203 . S
C44 O51 1.267 . S
O45 C44 1.203 . S
O46 C39 1.185 . S
O46 Zn42 2.086 . S
C47 O43 1.278 . S
C47 O48 1.211 . S
O48 C47 1.211 . S
C49 O41 1.284 . S
C49 O50 1.273 . S
O50 C49 1.273 . S
O51 Zn42 1.977 . S
O51 C44 1.267 . S
C52 O53 1.160 . S
C52 O59 1.185 . S
O53 C52 1.160 . S
O54 Zn55 1.899 . S
O54 C62 1.284 . S
Zn55 O54 1.899 . S
Zn55 O56 2.032 . S
Zn55 O59 2.086 . S
Zn55 O64 1.977 . S
O56 Zn55 2.032 . S
O56 C60 1.278 . S
C57 O58 1.203 . S
C57 O64 1.267 . S
O58 C57 1.203 . S
O59 C52 1.185 . S
O59 Zn55 2.086 . S
C60 O56 1.278 . S
C60 O61 1.211 . S
O61 C60 1.211 . S
C62 O54 1.284 . S
C62 O63 1.273 . S
O63 C62 1.273 . S
O64 Zn55 1.977 . S
O64 C57 1.267 . S
C65 O66 1.160 . S
C65 O72 1.185 . S
O66 C65 1.160 . S
O67 Zn68 1.899 . S
O67 C75 1.284 . S
Zn68 O67 1.899 . S
Zn68 O69 2.032 . S
Zn68 O72 2.086 . S
Zn68 O77 1.977 . S
O69 Zn68 2.032 . S
O69 C73 1.278 . S
C70 O71 1.203 . S
C70 O77 1.267 . S
O71 C70 1.203 . S
O72 C65 1.185 . S
O72 Zn68 2.086 . S
C73 O69 1.278 . S
C73 O74 1.211 . S
O74 C73 1.211 . S
C75 O67 1.284 . S
C75 O76 1.273 . S
O76 C75 1.273 . S
O77 Zn68 1.977 . S
O77 C70 1.267 . S
C78 O79 1.160 . S
C78 O85 1.185 . S
O79 C78 1.160 . S
O80 Zn81 1.899 . S
O80 C88 1.284 . S
Zn81 O80 1.899 . S
Zn81 O82 2.032 . S
Zn81 O85 2.086 . S
Zn81 O90 1.977 . S
O82 Zn81 2.032 . S
O82 C86 1.278 . S
C83 O84 1.203 . S
C83 O90 1.267 . S
O84 C83 1.203 . S
O85 C78 1.185 . S
O85 Zn81 2.086 . S
C86 O82 1.278 . S
C86 O87 1.211 . S
O87 C86 1.211 . S
C88 O80 1.284 . S
C88 O89 1.273 . S
O89 C88 1.273 . S
O90 Zn81 1.977 . S
O90 C83 1.267 . S
C91 O92 1.160 . S
C91 O98 1.185 . S
O92 C91 1.160 . S
O93 Zn94 1.899 . S
O93 C101 1.284 . S
Zn94 O93 1.899 . S
Zn94 O95 2.032 . S
Zn94 O98 2.086 . S
Zn94 O103 1.977 . S
O95 Zn94 2.032 . S
O95 C99 1.278 . S
C96 O97 1.203 . S
C96 O103 1.267 . S
O97 C96 1.203 . S
O98 C91 1.185 . S
O98 Zn94 2.086 . S
C99 O95 1.278 . S
C99 O100 1.211 . S
O100 C99 1.211 . S
C101 O93 1.284 . S
C101 O102 1.273 . S
O102 C101 1.273 . S
O103 Zn94 1.977 . S
O103 C96 1.267 . S
C104 O105 1.160 . S
C104 O111 1.185 . S
O105 C104 1.160 . S
O106 Zn107 1.899 . S
O106 C114 1.284 . S
Zn107 O106 1.899 . S
Zn107 O108 2.032 . S
Zn107 O111 2.086 . S
Zn107 O116 1.977 . S
O108 Zn107 2.032 . S
O108 C112 1.278 . S
C109 O110 1.203 . S
C109 O116 1.267 . S
O110 C109 1.203 . S
O111 C104 1.185 . S
O111 Zn107 2.086 . S
C112 O108 1.278 . S
C112 O113 1.211 . S
O113 C112 1.211 . S
C114 O106 1.284 . S
C114 O115 1.273 . S
O115 C114 1.273 . S
O116 Zn107 1.977 . S
O116 C109 1.267 . S
C117 O118 1.160 . S
C117 O124 1.185 . S
O118 C117 1.160 . S
O119 Zn120 1.899 . S
O119 C127 1.284 . S
Zn120 O119 1.899 . S
Zn120 O121 2.032 . S
Zn120 O124 2.086 . S
Zn120 O129 1.977 . S
O121 Zn120 2.032 . S
O121 C125 1.278 . S
C122 O123 1.203 . S
C122 O129 1.267 . S
O123 C122 1.203 . S
O124 C117 1.185 . S
O124 Zn120 2.086 . S
C125 O121 1.278 . S
C125 O126 1.211 . S
O126 C125 1.211 . S
C127 O119 1.284 . S
C127 O128 1.273 . S
O128 C127 1.273 . S
O129 Zn120 1.977 . S
O129 C122 1.267 . S
C130 O131 1.160 . S
C130 O137 1.185 . S
O131 C130 1.160 . S
O132 Zn133 1.899 . S
O132 C140 1.284 . S
Zn133 O132 1.899 . S
Zn133 O134 2.032 . S
Zn133 O137 2.086 . S
Zn133 O142 1.977 . S
O134 Zn133 2.032 . S
O134 C138 1.278 . S
C135 O136 1.203 . S
C135 O142 1.267 . S
O136 C135 1.203 . S
O137 C130 1.185 . S
O137 Zn133 2.086 . S
C138 O134 1.278 . S
C138 O139 1.211 . S
O139 C138 1.211 . S
C140 O132 1.284 . S
C140 O141 1.273 . S
O141 C140 1.273 . S
O142 Zn133 1.977 . S
O142 C135 1.267 . S
C143 O144 1.160 . S
C143 O150 1.185 . S
O144 C143 1.160 . S
O145 Zn146 1.899 . S
O145 C153 1.284 . S
Zn146 O145 1.899 . S
Zn146 O147 2.032 . S
Zn146 O150 2.086 . S
Zn146 O155 1.977 . S
O147 Zn146 2.032 . S
O147 C151 1.278 . S
C148 O149 1.203 . S
C148 O155 1.267 . S
O149 C148 1.203 . S
O150 C143 1.185 . S
O150 Zn146 2.086 . S
C151 O147 1.278 . S
C151 O152 1.211 . S
O152 C151 1.211 . S
C153 O145 1.284 . S
C153 O154 1.273 . S
O154 C153 1.273 . S
O155 Zn146 1.977 . S
O155 C148 1.267 . S
C156 O157 1.160 . S
C156 O163 1.185 . S
O157 C156 1.160 . S
O158 Zn159 1.899 . S
O158 C166 1.284 . S
Zn159 O158 1.899 . S
Zn159 O160 2.032 . S
Zn159 O163 2.086 . S
Zn159 O168 1.977 . S
O160 Zn159 2.032 . S
O160 C164 1.278 . S
C161 O162 1.203 . S
C161 O168 1.267 . S
O162 C161 1.203 . S
O163 C156 1.185 . S
O163 Zn159 2.086 . S
C164 O160 1.278 . S
C164 O165 1.211 . S
O165 C164 1.211 . S
C166 O158 1.284 . S
C166 O167 1.273 . S
O167 C166 1.273 . S
O168 Zn159 1.977 . S
O168 C161 1.267 . S
C169 O170 1.160 . S
C169 O176 1.185 . S
O170 C169 1.160 . S
O171 Zn172 1.899 . S
O171 C179 1.284 . S
Zn172 O171 1.899 . S
Zn172 O173 2.032 . S
Zn172 O176 2.086 . S
Zn172 O181 1.977 . S
O173 Zn172 2.032 . S
O173 C177 1.278 . S
C174 O175 1.203 . S
C174 O181 1.267 . S
O175 C174 1.203 . S
O176 C169 1.185 . S
O176 Zn172 2.086 . S
C177 O173 1.278 . S
C177 O178 1.211 . S
O178 C177 1.211 . S
C179 O171 1.284 . S
C179 O180 1.273 . S
O180 C179 1.273 . S
O181 Zn172 1.977 . S
O181 C174 1.267 . S
C182 O183 1.160 . S
C182 O189 1.185 . S
O183 C182 1.160 . S
O184 Zn185 1.899 . S
O184 C192 1.284 . S
Zn185 O184 1.899 . S
Zn185 O186 2.032 . S
Zn185 O189 2.086 . S
Zn185 O194 1.977 . S
O186 Zn185 2.032 . S
O186 C190 1.278 . S
C187 O188 1.203 . S
C187 O194 1.267 . S
O188 C187 1.203 . S
O189 C182 1.185 . S
O189 Zn185 2.086 . S
C190 O186 1.278 . S
C190 O191 1.211 . S
O191 C190 1.211 . S
C192 O184 1.284 . S
C192 O193 1.273 . S
O193 C192 1.273 . S
O194 Zn185 1.977 . S
O194 C187 1.267 . S
C195 O196 1.160 . S
C195 O202 1.185 . S
O196 C195 1.160 . S
O197 Zn198 1.899 . S
O197 C205 1.284 . S
Zn198 O197 1.899 . S
Zn198 O199 2.032 . S
Zn198 O202 2.086 . S
Zn198 O207 1.977 . S
O199 Zn198 2.032 . S
O199 C203 1.278 . S
C200 O201 1.203 . S
C200 O207 1.267 . S
O201 C200 1.203 . S
O202 C195 1.185 . S
O202 Zn198 2.086 . S
C203 O199 1.278 . S
C203 O204 1.211 . S
O204 C203 1.211 . S
C205 O197 1.284 . S
C205 O206 1.273 . S
O206 C205 1.273 . S
O207 Zn198 1.977 . S
O207 C200 1.267 . S
C208 C209 1.349 . S
C208 C210 1.327 . S
C208 H233 0.950 . S
C209 C208 1.349 . S
C209 C225 1.349 . S
C210 C208 1.327 . S
C210 C229 1.429 . S
C210 H234 0.950 . S
C211 C228 1.574 . S
C211 C230 1.368 1_556 S
C211 H235 0.949 . S
H212 C216 0.949 . S
C213 C214 1.349 . S
C213 C215 1.327 . S
C213 H236 0.950 . S
C214 C213 1.349 . S
C214 C226 1.349 . S
C215 C213 1.327 . S
C215 C231 1.429 . S
C215 H237 0.950 . S
C216 H212 0.949 . S
C216 C224 1.574 . S
C216 C232 1.368 1_554 S
H217 C225 0.950 . S
H218 C223 0.950 . S
H219 C224 0.949 . S
H220 C226 0.950 . S
H221 C227 0.950 . S
H222 C228 0.949 . S
C223 H218 0.950 . S
C223 C225 1.327 . S
C223 C229 1.429 . S
C224 C216 1.574 . S
C224 H219 0.949 . S
C224 C230 1.368 . S
C225 C209 1.349 . S
C225 H217 0.950 . S
C225 C223 1.327 . S
C226 C214 1.349 . S
C226 H220 0.950 . S
C226 C227 1.327 . S
C227 H221 0.950 . S
C227 C226 1.327 . S
C227 C231 1.429 . S
C228 C211 1.574 . S
C228 H222 0.949 . S
C228 C232 1.368 . S
C229 C210 1.429 . S
C229 C223 1.429 . S
C229 C230 1.523 . S
C230 C211 1.368 1_554 S
C230 C224 1.368 . S
C230 C229 1.523 . S
C231 C215 1.429 . S
C231 C227 1.429 . S
C231 C232 1.523 . S
C232 C216 1.368 1_556 S
C232 C228 1.368 . S
C232 C231 1.523 . S
H233 C208 0.950 . S
H234 C210 0.950 . S
H235 C211 0.949 . S
H236 C213 0.950 . S
H237 C215 0.950 . S
C238 C239 1.349 . S
C238 C240 1.327 . S
C238 H263 0.950 . S
C239 C238 1.349 . S
C239 C255 1.349 . S
C240 C238 1.327 . S
C240 C259 1.429 . S
C240 H264 0.950 . S
C241 C258 1.574 . S
C241 C260 1.368 . S
C241 H265 0.949 . S
H242 C246 0.949 . S
C243 C244 1.349 . S
C243 C245 1.327 . S
C243 H266 0.950 . S
C244 C243 1.349 . S
C244 C256 1.349 . S
C245 C243 1.327 . S
C245 C261 1.429 . S
C245 H267 0.950 . S
C246 H242 0.949 . S
C246 C254 1.574 . S
C246 C262 1.368 . S
H247 C255 0.950 . S
H248 C253 0.950 . S
H249 C254 0.949 . S
H250 C256 0.950 . S
H251 C257 0.950 . S
H252 C258 0.949 . S
C253 H248 0.950 . S
C253 C255 1.327 . S
C253 C259 1.429 . S
C254 C246 1.574 . S
C254 H249 0.949 . S
C254 C260 1.368 . S
C255 C239 1.349 . S
C255 H247 0.950 . S
C255 C253 1.327 . S
C256 C244 1.349 . S
C256 H250 0.950 . S
C256 C257 1.327 . S
C257 H251 0.950 . S
C257 C256 1.327 . S
C257 C261 1.429 . S
C258 C241 1.574 . S
C258 H252 0.949 . S
C258 C262 1.368 . S
C259 C240 1.429 . S
C259 C253 1.429 . S
C259 C260 1.523 . S
C260 C241 1.368 . S
C260 C254 1.368 . S
C260 C259 1.523 . S
C261 C245 1.429 . S
C261 C257 1.429 . S
C261 C262 1.523 . S
C262 C246 1.368 . S
C262 C258 1.368 . S
C262 C261 1.523 . S
H263 C238 0.950 . S
H264 C240 0.950 . S
H265 C241 0.949 . S
H266 C243 0.950 . S
H267 C245 0.950 . S
C268 C269 1.349 . S
C268 C270 1.327 . S
C268 H293 0.950 . S
C269 C268 1.349 . S
C269 C285 1.349 . S
C270 C268 1.327 . S
C270 C289 1.429 . S
C270 H294 0.950 . S
C271 C288 1.574 . S
C271 C290 1.368 1_554 S
C271 H295 0.949 . S
H272 C276 0.950 . S
C273 C274 1.349 . S
C273 C275 1.327 . S
C273 H296 0.950 . S
C274 C273 1.349 . S
C274 C286 1.349 . S
C275 C273 1.327 . S
C275 C291 1.429 . S
C275 H297 0.950 . S
C276 H272 0.950 . S
C276 C284 1.584 . S
C276 C292 1.358 1_556 S
H277 C285 0.950 . S
H278 C283 0.950 . S
H279 C284 0.949 . S
H280 C286 0.950 . S
H281 C287 0.950 . S
H282 C288 0.949 . S
C283 H278 0.950 . S
C283 C285 1.327 . S
C283 C289 1.429 . S
C284 C276 1.584 . S
C284 H279 0.949 . S
C284 C290 1.368 . S
C285 C269 1.349 . S
C285 H277 0.950 . S
C285 C283 1.327 . S
C286 C274 1.349 . S
C286 H280 0.950 . S
C286 C287 1.327 . S
C287 H281 0.950 . S
C287 C286 1.327 . S
C287 C291 1.429 . S
C288 C271 1.574 . S
C288 H282 0.949 . S
C288 C292 1.368 . S
C289 C270 1.429 . S
C289 C283 1.429 . S
C289 C290 1.523 . S
C290 C271 1.368 1_556 S
C290 C284 1.368 . S
C290 C289 1.523 . S
C291 C275 1.429 . S
C291 C287 1.429 . S
C291 C292 1.523 . S
C292 C276 1.358 1_554 S
C292 C288 1.368 . S
C292 C291 1.523 . S
H293 C268 0.950 . S
H294 C270 0.950 . S
H295 C271 0.949 . S
H296 C273 0.950 . S
H297 C275 0.950 . S
C298 C299 1.349 . S
C298 C300 1.327 . S
C298 H323 0.950 . S
C299 C298 1.349 . S
C299 C315 1.349 . S
C300 C298 1.327 . S
C300 C319 1.429 . S
C300 H324 0.950 . S
C301 C318 1.574 . S
C301 C320 1.368 . S
C301 H325 0.949 . S
H302 C306 0.949 . S
C303 C304 1.349 . S
C303 C305 1.327 . S
C303 H326 0.950 . S
C304 C303 1.349 . S
C304 C316 1.349 . S
C305 C303 1.327 . S
C305 C321 1.429 . S
C305 H327 0.950 . S
C306 H302 0.949 . S
C306 C314 1.574 . S
C306 C322 1.368 . S
H307 C315 0.950 . S
H308 C313 0.950 . S
H309 C314 0.949 . S
H310 C316 0.950 . S
H311 C317 0.950 . S
H312 C318 0.949 . S
C313 H308 0.950 . S
C313 C315 1.327 . S
C313 C319 1.429 . S
C314 C306 1.574 . S
C314 H309 0.949 . S
C314 C320 1.368 . S
C315 C299 1.349 . S
C315 H307 0.950 . S
C315 C313 1.327 . S
C316 C304 1.349 . S
C316 H310 0.950 . S
C316 C317 1.327 . S
C317 H311 0.950 . S
C317 C316 1.327 . S
C317 C321 1.429 . S
C318 C301 1.574 . S
C318 H312 0.949 . S
C318 C322 1.368 . S
C319 C300 1.429 . S
C319 C313 1.429 . S
C319 C320 1.523 . S
C320 C301 1.368 . S
C320 C314 1.368 . S
C320 C319 1.523 . S
C321 C305 1.429 . S
C321 C317 1.429 . S
C321 C322 1.523 . S
C322 C306 1.368 . S
C322 C318 1.368 . S
C322 C321 1.523 . S
H323 C298 0.950 . S
H324 C300 0.950 . S
H325 C301 0.949 . S
H326 C303 0.950 . S
H327 C305 0.950 . S
C328 C329 1.349 . S
C328 C330 1.327 . S
C328 H353 0.950 . S
C329 C328 1.349 . S
C329 C345 1.349 . S
C330 C328 1.327 . S
C330 C349 1.429 . S
C330 H354 0.950 . S
C331 C348 1.574 . S
C331 C350 1.368 1_556 S
C331 H355 0.948 1_556 S
H332 C336 0.949 . S
C333 C334 1.349 . S
C333 C335 1.327 . S
C333 H356 0.950 . S
C334 C333 1.349 . S
C334 C346 1.349 . S
C335 C333 1.327 . S
C335 C351 1.429 . S
C335 H357 0.950 . S
C336 H332 0.949 . S
C336 C344 1.574 1_556 S
C336 C352 1.368 . S
H337 C345 0.950 . S
H338 C343 0.950 . S
H339 C344 0.949 . S
H340 C346 0.950 . S
H341 C347 0.950 . S
H342 C348 0.949 . S
C343 H338 0.950 . S
C343 C345 1.327 . S
C343 C349 1.429 . S
C344 C336 1.574 1_554 S
C344 H339 0.949 . S
C344 C350 1.368 . S
C345 C329 1.349 . S
C345 H337 0.950 . S
C345 C343 1.327 . S
C346 C334 1.349 . S
C346 H340 0.950 . S
C346 C347 1.327 . S
C347 H341 0.950 . S
C347 C346 1.327 . S
C347 C351 1.429 . S
C348 C331 1.574 . S
C348 H342 0.949 . S
C348 C352 1.368 . S
C349 C330 1.429 . S
C349 C343 1.429 . S
C349 C350 1.523 . S
C350 C331 1.368 1_554 S
C350 C344 1.368 . S
C350 C349 1.523 . S
C351 C335 1.429 . S
C351 C347 1.429 . S
C351 C352 1.523 . S
C352 C336 1.368 . S
C352 C348 1.368 . S
C352 C351 1.523 . S
H353 C328 0.950 . S
H354 C330 0.950 . S
H355 C331 0.948 1_554 S
H356 C333 0.950 . S
H357 C335 0.950 . S
C358 C359 1.349 . S
C358 C360 1.327 . S
C358 H383 0.950 . S
C359 C358 1.349 . S
C359 C375 1.349 . S
C360 C358 1.327 . S
C360 C379 1.429 . S
C360 H384 0.950 . S
C361 C378 1.574 . S
C361 C380 1.368 . S
C361 H385 0.949 . S
H362 C366 0.949 . S
C363 C364 1.349 . S
C363 C365 1.327 . S
C363 H386 0.950 . S
C364 C363 1.349 . S
C364 C376 1.349 . S
C365 C363 1.327 . S
C365 C381 1.429 . S
C365 H387 0.950 . S
C366 H362 0.949 . S
C366 C374 1.574 . S
C366 C382 1.368 . S
H367 C375 0.950 . S
H368 C373 0.950 . S
H369 C374 0.949 . S
H370 C376 0.950 . S
H371 C377 0.950 . S
H372 C378 0.949 . S
C373 H368 0.950 . S
C373 C375 1.327 . S
C373 C379 1.429 . S
C374 C366 1.574 . S
C374 H369 0.949 . S
C374 C380 1.368 . S
C375 C359 1.349 . S
C375 H367 0.950 . S
C375 C373 1.327 . S
C376 C364 1.349 . S
C376 H370 0.950 . S
C376 C377 1.327 . S
C377 H371 0.950 . S
C377 C376 1.327 . S
C377 C381 1.429 . S
C378 C361 1.574 . S
C378 H372 0.949 . S
C378 C382 1.368 . S
C379 C360 1.429 . S
C379 C373 1.429 . S
C379 C380 1.523 . S
C380 C361 1.368 . S
C380 C374 1.368 . S
C380 C379 1.523 . S
C381 C365 1.429 . S
C381 C377 1.429 . S
C381 C382 1.523 . S
C382 C366 1.368 . S
C382 C378 1.368 . S
C382 C381 1.523 . S
H383 C358 0.950 . S
H384 C360 0.950 . S
H385 C361 0.949 . S
H386 C363 0.950 . S
H387 C365 0.950 . S
C388 C389 1.349 . S
C388 C390 1.327 . S
C388 H413 0.950 . S
C389 C388 1.349 . S
C389 C405 1.349 . S
C390 C388 1.327 . S
C390 C409 1.429 . S
C390 H414 0.950 . S
C391 C408 1.574 . S
C391 C410 1.368 1_554 S
C391 H415 0.949 . S
H392 C396 0.949 . S
C393 C394 1.349 . S
C393 C395 1.327 . S
C393 H416 0.950 . S
C394 C393 1.349 . S
C394 C406 1.349 . S
C395 C393 1.327 . S
C395 C411 1.429 . S
C395 H417 0.950 . S
C396 H392 0.949 . S
C396 C404 1.574 . S
C396 C412 1.368 1_556 S
H397 C405 0.950 . S
H398 C403 0.950 . S
H399 C404 0.949 . S
H400 C406 0.950 . S
H401 C407 0.950 . S
H402 C408 0.949 . S
C403 H398 0.950 . S
C403 C405 1.327 . S
C403 C409 1.429 . S
C404 C396 1.574 . S
C404 H399 0.949 . S
C404 C410 1.368 . S
C405 C389 1.349 . S
C405 H397 0.950 . S
C405 C403 1.327 . S
C406 C394 1.349 . S
C406 H400 0.950 . S
C406 C407 1.327 . S
C407 H401 0.950 . S
C407 C406 1.327 . S
C407 C411 1.429 . S
C408 C391 1.574 . S
C408 H402 0.949 . S
C408 C412 1.368 . S
C409 C390 1.429 . S
C409 C403 1.429 . S
C409 C410 1.523 . S
C410 C391 1.368 1_556 S
C410 C404 1.368 . S
C410 C409 1.523 . S
C411 C395 1.429 . S
C411 C407 1.429 . S
C411 C412 1.523 . S
C412 C396 1.368 1_554 S
C412 C408 1.368 . S
C412 C411 1.523 . S
H413 C388 0.950 . S
H414 C390 0.950 . S
H415 C391 0.949 . S
H416 C393 0.950 . S
H417 C395 0.950 . S
C418 C419 1.349 . S
C418 C420 1.327 . S
C418 H443 0.950 . S
C419 C418 1.349 . S
C419 C435 1.349 . S
C420 C418 1.327 . S
C420 C439 1.429 . S
C420 H444 0.950 . S
C421 C438 1.574 . S
C421 C440 1.368 . S
C421 H445 0.949 . S
H422 C426 0.949 . S
C423 C424 1.349 . S
C423 C425 1.327 . S
C423 H446 0.950 . S
C424 C423 1.349 . S
C424 C436 1.349 . S
C425 C423 1.327 . S
C425 C441 1.429 . S
C425 H447 0.950 . S
C426 H422 0.949 . S
C426 C434 1.574 . S
C426 C442 1.368 . S
H427 C435 0.950 . S
H428 C433 0.950 . S
H429 C434 0.949 . S
H430 C436 0.950 . S
H431 C437 0.950 . S
H432 C438 0.949 . S
C433 H428 0.950 . S
C433 C435 1.327 . S
C433 C439 1.429 . S
C434 C426 1.574 . S
C434 H429 0.949 . S
C434 C440 1.368 . S
C435 C419 1.349 . S
C435 H427 0.950 . S
C435 C433 1.327 . S
C436 C424 1.349 . S
C436 H430 0.950 . S
C436 C437 1.327 . S
C437 H431 0.950 . S
C437 C436 1.327 . S
C437 C441 1.429 . S
C438 C421 1.574 . S
C438 H432 0.949 . S
C438 C442 1.368 . S
C439 C420 1.429 . S
C439 C433 1.429 . S
C439 C440 1.523 . S
C440 C421 1.368 . S
C440 C434 1.368 . S
C440 C439 1.523 . S
C441 C425 1.429 . S
C441 C437 1.429 . S
C441 C442 1.523 . S
C442 C426 1.368 . S
C442 C438 1.368 . S
C442 C441 1.523 . S
H443 C418 0.950 . S
H444 C420 0.950 . S
H445 C421 0.949 . S
H446 C423 0.950 . S
H447 C425 0.950 . S
C448 C449 1.349 . S
C448 C450 1.327 . S
C448 H473 0.950 . S
C449 C448 1.349 . S
C449 C465 1.349 . S
C450 C448 1.327 . S
C450 C469 1.429 . S
C450 H474 0.950 . S
C451 C468 1.574 1_545 S
C451 C470 1.368 . S
C451 H475 0.949 . S
H452 C456 0.949 . S
C453 C454 1.349 . S
C453 C455 1.327 . S
C453 H476 0.950 . S
C454 C453 1.349 . S
C454 C466 1.349 . S
C455 C453 1.327 . S
C455 C471 1.429 . S
C455 H477 0.950 . S
C456 H452 0.949 . S
C456 C464 1.574 1_565 S
C456 C472 1.368 . S
H457 C465 0.950 . S
H458 C463 0.950 . S
H459 C464 0.949 . S
H460 C466 0.950 . S
H461 C467 0.950 . S
H462 C468 0.949 . S
C463 H458 0.950 . S
C463 C465 1.327 . S
C463 C469 1.429 . S
C464 C456 1.574 1_545 S
C464 H459 0.949 . S
C464 C470 1.368 1_556 S
C465 C449 1.349 . S
C465 H457 0.950 . S
C465 C463 1.327 . S
C466 C454 1.349 . S
C466 H460 0.950 . S
C466 C467 1.327 . S
C467 H461 0.950 . S
C467 C466 1.327 . S
C467 C471 1.429 . S
C468 C451 1.574 1_565 S
C468 H462 0.949 . S
C468 C472 1.368 1_554 S
C469 C450 1.429 . S
C469 C463 1.429 . S
C469 C470 1.523 . S
C470 C451 1.368 . S
C470 C464 1.368 1_554 S
C470 C469 1.523 . S
C471 C455 1.429 . S
C471 C467 1.429 . S
C471 C472 1.523 . S
C472 C456 1.368 . S
C472 C468 1.368 1_556 S
C472 C471 1.523 . S
H473 C448 0.950 . S
H474 C450 0.950 . S
H475 C451 0.949 . S
H476 C453 0.950 . S
H477 C455 0.950 . S
C478 C479 1.349 . S
C478 C480 1.327 . S
C478 H503 0.950 . S
C479 C478 1.349 . S
C479 C495 1.349 . S
C480 C478 1.327 . S
C480 C499 1.429 . S
C480 H504 0.950 . S
C481 C498 1.574 1_565 S
C481 C500 1.368 . S
C481 H505 0.949 . S
H482 C486 0.949 . S
C483 C484 1.349 . S
C483 C485 1.327 . S
C483 H506 0.950 . S
C484 C483 1.349 . S
C484 C496 1.349 . S
C485 C483 1.327 . S
C485 C501 1.429 . S
C485 H507 0.950 . S
C486 H482 0.949 . S
C486 C494 1.574 1_545 S
C486 C502 1.368 . S
H487 C495 0.950 . S
H488 C493 0.950 . S
H489 C494 0.949 . S
H490 C496 0.950 . S
H491 C497 0.950 . S
H492 C498 0.949 . S
C493 H488 0.950 . S
C493 C495 1.327 . S
C493 C499 1.429 . S
C494 C486 1.574 1_565 S
C494 H489 0.949 . S
C494 C500 1.368 . S
C495 C479 1.349 . S
C495 H487 0.950 . S
C495 C493 1.327 . S
C496 C484 1.349 . S
C496 H490 0.950 . S
C496 C497 1.327 . S
C497 H491 0.950 . S
C497 C496 1.327 . S
C497 C501 1.429 . S
C498 C481 1.574 1_545 S
C498 H492 0.949 . S
C498 C502 1.368 . S
C499 C480 1.429 . S
C499 C493 1.429 . S
C499 C500 1.523 . S
C500 C481 1.368 . S
C500 C494 1.368 . S
C500 C499 1.523 . S
C501 C485 1.429 . S
C501 C497 1.429 . S
C501 C502 1.523 . S
C502 C486 1.368 . S
C502 C498 1.368 . S
C502 C501 1.523 . S
H503 C478 0.950 . S
H504 C480 0.950 . S
H505 C481 0.949 . S
H506 C483 0.950 . S
H507 C485 0.950 . S
C508 C509 1.349 . S
C508 C510 1.327 . S
C508 H533 0.950 . S
C509 C508 1.349 . S
C509 C525 1.349 . S
C510 C508 1.327 . S
C510 C529 1.429 . S
C510 H534 0.950 . S
C511 C528 1.574 1_565 S
C511 C530 1.368 1_554 S
C511 H535 0.949 . S
H512 C516 0.949 . S
C513 C514 1.349 . S
C513 C515 1.327 . S
C513 H536 0.950 . S
C514 C513 1.349 . S
C514 C526 1.349 . S
C515 C513 1.327 . S
C515 C531 1.429 . S
C515 H537 0.950 . S
C516 H512 0.949 . S
C516 C524 1.574 1_545 S
C516 C532 1.368 1_556 S
H517 C525 0.950 . S
H518 C523 0.943 1_554 S
H519 C524 0.949 . S
H520 C526 0.950 . S
H521 C527 0.943 1_556 S
H522 C528 0.949 . S
C523 H518 0.943 1_556 S
C523 C525 1.327 . S
C523 C529 1.429 . S
C524 C516 1.574 1_565 S
C524 H519 0.949 . S
C524 C530 1.368 . S
C525 C509 1.349 . S
C525 H517 0.950 . S
C525 C523 1.327 . S
C526 C514 1.349 . S
C526 H520 0.950 . S
C526 C527 1.327 . S
C527 H521 0.943 1_554 S
C527 C526 1.327 . S
C527 C531 1.429 . S
C528 C511 1.574 1_545 S
C528 H522 0.949 . S
C528 C532 1.368 . S
C529 C510 1.429 . S
C529 C523 1.429 . S
C529 C530 1.523 . S
C530 C511 1.368 1_556 S
C530 C524 1.368 . S
C530 C529 1.523 . S
C531 C515 1.429 . S
C531 C527 1.429 . S
C531 C532 1.523 . S
C532 C516 1.368 1_554 S
C532 C528 1.368 . S
C532 C531 1.523 . S
H533 C508 0.950 . S
H534 C510 0.950 . S
H535 C511 0.949 . S
H536 C513 0.950 . S
H537 C515 0.950 . S
C538 C539 1.349 . S
C538 C540 1.327 . S
C538 H563 0.950 . S
C539 C538 1.349 . S
C539 C555 1.349 . S
C540 C538 1.327 . S
C540 C559 1.429 . S
C540 H564 0.950 . S
C541 C558 1.574 1_545 S
C541 C560 1.368 . S
C541 H565 0.949 . S
H542 C546 0.949 . S
C543 C544 1.349 . S
C543 C545 1.327 . S
C543 H566 0.950 . S
C544 C543 1.349 . S
C544 C556 1.349 . S
C545 C543 1.327 . S
C545 C561 1.429 . S
C545 H567 0.950 . S
C546 H542 0.949 . S
C546 C554 1.574 1_565 S
C546 C562 1.368 . S
H547 C555 0.950 . S
H548 C553 0.950 . S
H549 C554 0.949 . S
H550 C556 0.950 . S
H551 C557 0.950 . S
H552 C558 0.949 . S
C553 H548 0.950 . S
C553 C555 1.327 . S
C553 C559 1.429 . S
C554 C546 1.574 1_545 S
C554 H549 0.949 . S
C554 C560 1.368 . S
C555 C539 1.349 . S
C555 H547 0.950 . S
C555 C553 1.327 . S
C556 C544 1.349 . S
C556 H550 0.950 . S
C556 C557 1.327 . S
C557 H551 0.950 . S
C557 C556 1.327 . S
C557 C561 1.429 . S
C558 C541 1.574 1_565 S
C558 H552 0.949 . S
C558 C562 1.368 . S
C559 C540 1.429 . S
C559 C553 1.429 . S
C559 C560 1.523 . S
C560 C541 1.368 . S
C560 C554 1.368 . S
C560 C559 1.523 . S
C561 C545 1.429 . S
C561 C557 1.429 . S
C561 C562 1.523 . S
C562 C546 1.368 . S
C562 C558 1.368 . S
C562 C561 1.523 . S
H563 C538 0.950 . S
H564 C540 0.950 . S
H565 C541 0.949 . S
H566 C543 0.950 . S
H567 C545 0.950 . S
C568 C569 1.349 . S
C568 C570 1.327 . S
C568 H593 0.950 . S
C569 C568 1.349 . S
C569 C585 1.349 . S
C570 C568 1.327 . S
C570 C589 1.429 . S
C570 H594 0.950 . S
C571 C588 1.574 . S
C571 C590 1.368 1_554 S
C571 H595 0.949 . S
H572 C576 0.949 . S
C573 C574 1.349 . S
C573 C575 1.327 . S
C573 H596 0.950 . S
C574 C573 1.349 . S
C574 C586 1.349 . S
C575 C573 1.327 . S
C575 C591 1.429 . S
C575 H597 0.950 . S
C576 H572 0.949 . S
C576 C584 1.574 . S
C576 C592 1.368 1_556 S
H577 C585 0.950 . S
H578 C583 0.950 . S
H579 C584 0.949 . S
H580 C586 0.950 . S
H581 C587 0.950 . S
H582 C588 0.949 . S
C583 H578 0.950 . S
C583 C585 1.327 . S
C583 C589 1.429 . S
C584 C576 1.574 . S
C584 H579 0.949 . S
C584 C590 1.368 . S
C585 C569 1.349 . S
C585 H577 0.950 . S
C585 C583 1.327 . S
C586 C574 1.349 . S
C586 H580 0.950 . S
C586 C587 1.327 . S
C587 H581 0.950 . S
C587 C586 1.327 . S
C587 C591 1.429 . S
C588 C571 1.574 . S
C588 H582 0.949 . S
C588 C592 1.368 . S
C589 C570 1.429 . S
C589 C583 1.429 . S
C589 C590 1.523 . S
C590 C571 1.368 1_556 S
C590 C584 1.368 . S
C590 C589 1.523 . S
C591 C575 1.429 . S
C591 C587 1.429 . S
C591 C592 1.523 . S
C592 C576 1.368 1_554 S
C592 C588 1.368 . S
C592 C591 1.523 . S
H593 C568 0.950 . S
H594 C570 0.950 . S
H595 C571 0.949 . S
H596 C573 0.950 . S
H597 C575 0.950 . S
C598 C599 1.349 . S
C598 C600 1.327 . S
C598 H623 0.950 . S
C599 C598 1.349 . S
C599 C615 1.349 . S
C600 C598 1.327 . S
C600 C619 1.429 . S
C600 H624 0.950 . S
C601 C618 1.574 . S
C601 C620 1.368 . S
C601 H625 0.949 . S
H602 C606 0.949 . S
C603 C604 1.349 . S
C603 C605 1.327 . S
C603 H626 0.950 . S
C604 C603 1.349 . S
C604 C616 1.349 . S
C605 C603 1.327 . S
C605 C621 1.429 . S
C605 H627 0.950 . S
C606 H602 0.949 . S
C606 C614 1.574 . S
C606 C622 1.368 . S
H607 C615 0.950 . S
H608 C613 0.950 . S
H609 C614 0.949 . S
H610 C616 0.950 . S
H611 C617 0.950 . S
H612 C618 0.949 . S
C613 H608 0.950 . S
C613 C615 1.327 . S
C613 C619 1.429 . S
C614 C606 1.574 . S
C614 H609 0.949 . S
C614 C620 1.368 . S
C615 C599 1.349 . S
C615 H607 0.950 . S
C615 C613 1.327 . S
C616 C604 1.349 . S
C616 H610 0.950 . S
C616 C617 1.327 . S
C617 H611 0.950 . S
C617 C616 1.327 . S
C617 C621 1.429 . S
C618 C601 1.574 . S
C618 H612 0.949 . S
C618 C622 1.368 . S
C619 C600 1.429 . S
C619 C613 1.429 . S
C619 C620 1.523 . S
C620 C601 1.368 . S
C620 C614 1.368 . S
C620 C619 1.523 . S
C621 C605 1.429 . S
C621 C617 1.429 . S
C621 C622 1.523 . S
C622 C606 1.368 . S
C622 C618 1.368 . S
C622 C621 1.523 . S
H623 C598 0.950 . S
H624 C600 0.950 . S
H625 C601 0.949 . S
H626 C603 0.950 . S
H627 C605 0.950 . S
C628 C629 1.349 . S
C628 C630 1.327 . S
C628 H653 0.950 . S
C629 C628 1.349 . S
C629 C645 1.349 . S
C630 C628 1.327 . S
C630 C649 1.429 . S
C630 H654 0.950 1_554 S
C631 C648 1.574 . S
C631 C650 1.368 . S
C631 H655 0.949 . S
H632 C636 0.949 . S
C633 C634 1.349 . S
C633 C635 1.327 . S
C633 H656 0.950 . S
C634 C633 1.349 . S
C634 C646 1.349 . S
C635 C633 1.327 . S
C635 C651 1.429 . S
C635 H657 0.950 1_556 S
C636 H632 0.949 . S
C636 C644 1.574 . S
C636 C652 1.368 . S
H637 C645 0.950 . S
H638 C643 0.950 . S
H639 C644 0.949 . S
H640 C646 0.950 . S
H641 C647 0.950 . S
H642 C648 0.949 . S
C643 H638 0.950 . S
C643 C645 1.327 . S
C643 C649 1.429 . S
C644 C636 1.574 . S
C644 H639 0.949 . S
C644 C650 1.368 1_556 S
C645 C629 1.349 . S
C645 H637 0.950 . S
C645 C643 1.327 . S
C646 C634 1.349 . S
C646 H640 0.950 . S
C646 C647 1.327 . S
C647 H641 0.950 . S
C647 C646 1.327 . S
C647 C651 1.429 . S
C648 C631 1.574 . S
C648 H642 0.949 . S
C648 C652 1.368 1_554 S
C649 C630 1.429 . S
C649 C643 1.429 . S
C649 C650 1.523 . S
C650 C631 1.368 . S
C650 C644 1.368 1_554 S
C650 C649 1.523 . S
C651 C635 1.429 . S
C651 C647 1.429 . S
C651 C652 1.523 . S
C652 C636 1.368 . S
C652 C648 1.368 1_556 S
C652 C651 1.523 . S
H653 C628 0.950 . S
H654 C630 0.950 1_556 S
H655 C631 0.949 . S
H656 C633 0.950 . S
H657 C635 0.950 1_554 S
C658 C659 1.349 . S
C658 C660 1.327 . S
C658 H683 0.950 . S
C659 C658 1.349 . S
C659 C675 1.349 . S
C660 C658 1.327 . S
C660 C679 1.429 . S
C660 H684 0.950 . S
C661 C678 1.574 . S
C661 C680 1.368 . S
C661 H685 0.949 . S
H662 C666 0.949 . S
C663 C664 1.349 . S
C663 C665 1.327 . S
C663 H686 0.950 . S
C664 C663 1.349 . S
C664 C676 1.349 . S
C665 C663 1.327 . S
C665 C681 1.429 . S
C665 H687 0.950 . S
C666 H662 0.949 . S
C666 C674 1.574 . S
C666 C682 1.368 . S
H667 C675 0.950 . S
H668 C673 0.950 . S
H669 C674 0.949 . S
H670 C676 0.950 . S
H671 C677 0.950 . S
H672 C678 0.949 . S
C673 H668 0.950 . S
C673 C675 1.327 . S
C673 C679 1.429 . S
C674 C666 1.574 . S
C674 H669 0.949 . S
C674 C680 1.368 . S
C675 C659 1.349 . S
C675 H667 0.950 . S
C675 C673 1.327 . S
C676 C664 1.349 . S
C676 H670 0.950 . S
C676 C677 1.327 . S
C677 H671 0.950 . S
C677 C676 1.327 . S
C677 C681 1.429 . S
C678 C661 1.574 . S
C678 H672 0.949 . S
C678 C682 1.368 . S
C679 C660 1.429 . S
C679 C673 1.429 . S
C679 C680 1.523 . S
C680 C661 1.368 . S
C680 C674 1.368 . S
C680 C679 1.523 . S
C681 C665 1.429 . S
C681 C677 1.429 . S
C681 C682 1.523 . S
C682 C666 1.368 . S
C682 C678 1.368 . S
C682 C681 1.523 . S
H683 C658 0.950 . S
H684 C660 0.950 . S
H685 C661 0.949 . S
H686 C663 0.950 . S
H687 C665 0.950 . S
C688 C689 1.349 . S
C688 C690 1.327 . S
C688 H713 0.950 . S
C689 C688 1.349 . S
C689 C705 1.349 . S
C690 C688 1.327 . S
C690 C709 1.429 . S
C690 H714 0.950 . S
C691 C708 1.574 . S
C691 C710 1.368 . S
C691 H715 0.949 . S
H692 C696 0.949 . S
C693 C694 1.349 . S
C693 C695 1.327 . S
C693 H716 0.950 . S
C694 C693 1.349 . S
C694 C706 1.349 . S
C695 C693 1.327 . S
C695 C711 1.429 . S
C695 H717 0.950 . S
C696 H692 0.949 . S
C696 C704 1.574 . S
C696 C712 1.368 . S
H697 C705 0.950 . S
H698 C703 0.950 . S
H699 C704 0.949 . S
H700 C706 0.950 . S
H701 C707 0.950 . S
H702 C708 0.949 . S
C703 H698 0.950 . S
C703 C705 1.327 . S
C703 C709 1.429 . S
C704 C696 1.574 . S
C704 H699 0.949 . S
C704 C710 1.368 . S
C705 C689 1.349 . S
C705 H697 0.950 . S
C705 C703 1.327 . S
C706 C694 1.349 . S
C706 H700 0.950 . S
C706 C707 1.327 . S
C707 H701 0.950 . S
C707 C706 1.327 . S
C707 C711 1.429 . S
C708 C691 1.574 . S
C708 H702 0.949 . S
C708 C712 1.368 . S
C709 C690 1.429 . S
C709 C703 1.429 . S
C709 C710 1.523 . S
C710 C691 1.368 . S
C710 C704 1.368 . S
C710 C709 1.523 . S
C711 C695 1.429 . S
C711 C707 1.429 . S
C711 C712 1.523 . S
C712 C696 1.368 . S
C712 C708 1.368 . S
C712 C711 1.523 . S
H713 C688 0.950 . S
H714 C690 0.950 . S
H715 C691 0.949 . S
H716 C693 0.950 . S
H717 C695 0.950 . S
C718 C719 1.349 . S
C718 C720 1.327 . S
C718 H743 0.950 . S
C719 C718 1.349 . S
C719 C735 1.349 . S
C720 C718 1.327 . S
C720 C739 1.429 . S
C720 H744 0.950 . S
C721 C738 1.574 1_655 S
C721 C740 1.368 . S
C721 H745 0.949 . S
H722 C726 0.949 . S
C723 C724 1.349 . S
C723 C725 1.327 . S
C723 H746 0.950 . S
C724 C723 1.349 . S
C724 C736 1.349 . S
C725 C723 1.327 . S
C725 C741 1.429 . S
C725 H747 0.950 . S
C726 H722 0.949 . S
C726 C734 1.574 1_455 S
C726 C742 1.368 . S
H727 C735 0.950 . S
H728 C733 0.950 . S
H729 C734 0.949 . S
H730 C736 0.950 . S
H731 C737 0.950 . S
H732 C738 0.949 . S
C733 H728 0.950 . S
C733 C735 1.327 . S
C733 C739 1.429 . S
C734 C726 1.574 1_655 S
C734 H729 0.949 . S
C734 C740 1.368 . S
C735 C719 1.349 . S
C735 H727 0.950 . S
C735 C733 1.327 . S
C736 C724 1.349 . S
C736 H730 0.950 . S
C736 C737 1.327 . S
C737 H731 0.950 . S
C737 C736 1.327 . S
C737 C741 1.429 . S
C738 C721 1.574 1_455 S
C738 H732 0.949 . S
C738 C742 1.368 . S
C739 C720 1.429 . S
C739 C733 1.429 . S
C739 C740 1.523 . S
C740 C721 1.368 . S
C740 C734 1.368 . S
C740 C739 1.523 . S
C741 C725 1.429 . S
C741 C737 1.429 . S
C741 C742 1.523 . S
C742 C726 1.368 . S
C742 C738 1.368 . S
C742 C741 1.523 . S
H743 C718 0.950 . S
H744 C720 0.950 . S
H745 C721 0.949 . S
H746 C723 0.950 . S
H747 C725 0.950 . S
C748 C749 1.349 . S
C748 C750 1.327 . S
C748 H773 0.950 . S
C749 C748 1.349 . S
C749 C765 1.349 . S
C750 C748 1.327 . S
C750 C769 1.429 . S
C750 H774 0.950 . S
C751 C768 1.574 . S
C751 C770 1.368 . S
C751 H775 0.949 . S
H752 C756 0.949 . S
C753 C754 1.349 . S
C753 C755 1.327 . S
C753 H776 0.950 . S
C754 C753 1.349 . S
C754 C766 1.349 . S
C755 C753 1.327 . S
C755 C771 1.429 . S
C755 H777 0.950 . S
C756 H752 0.949 . S
C756 C764 1.574 . S
C756 C772 1.368 . S
H757 C765 0.950 . S
H758 C763 0.950 . S
H759 C764 0.949 . S
H760 C766 0.950 . S
H761 C767 0.950 . S
H762 C768 0.949 . S
C763 H758 0.950 . S
C763 C765 1.327 . S
C763 C769 1.429 . S
C764 C756 1.574 . S
C764 H759 0.949 . S
C764 C770 1.368 . S
C765 C749 1.349 . S
C765 H757 0.950 . S
C765 C763 1.327 . S
C766 C754 1.349 . S
C766 H760 0.950 . S
C766 C767 1.327 . S
C767 H761 0.950 . S
C767 C766 1.327 . S
C767 C771 1.429 . S
C768 C751 1.574 . S
C768 H762 0.949 . S
C768 C772 1.368 . S
C769 C750 1.429 . S
C769 C763 1.429 . S
C769 C770 1.523 . S
C770 C751 1.368 . S
C770 C764 1.368 . S
C770 C769 1.523 . S
C771 C755 1.429 . S
C771 C767 1.429 . S
C771 C772 1.523 . S
C772 C756 1.368 . S
C772 C768 1.368 . S
C772 C771 1.523 . S
H773 C748 0.950 . S
H774 C750 0.950 . S
H775 C751 0.949 . S
H776 C753 0.950 . S
H777 C755 0.950 . S
C778 C779 1.349 . S
C778 C780 1.327 . S
C778 H803 0.950 . S
C779 C778 1.349 . S
C779 C795 1.349 . S
C780 C778 1.327 . S
C780 C799 1.429 . S
C780 H804 0.950 . S
C781 C798 1.574 1_455 S
C781 C800 1.368 . S
C781 H805 0.949 . S
H782 C786 0.949 . S
C783 C784 1.349 . S
C783 C785 1.327 . S
C783 H806 0.950 . S
C784 C783 1.349 . S
C784 C796 1.349 . S
C785 C783 1.327 . S
C785 C801 1.429 . S
C785 H807 0.950 . S
C786 H782 0.949 . S
C786 C794 1.574 1_655 S
C786 C802 1.368 . S
H787 C795 0.950 . S
H788 C793 0.950 . S
H789 C794 0.949 . S
H790 C796 0.950 . S
H791 C797 0.950 . S
H792 C798 0.949 . S
C793 H788 0.950 . S
C793 C795 1.327 . S
C793 C799 1.429 . S
C794 C786 1.574 1_455 S
C794 H789 0.949 . S
C794 C800 1.368 . S
C795 C779 1.349 . S
C795 H787 0.950 . S
C795 C793 1.327 . S
C796 C784 1.349 . S
C796 H790 0.950 . S
C796 C797 1.327 . S
C797 H791 0.950 . S
C797 C796 1.327 . S
C797 C801 1.429 . S
C798 C781 1.574 1_655 S
C798 H792 0.949 . S
C798 C802 1.368 . S
C799 C780 1.429 . S
C799 C793 1.429 . S
C799 C800 1.523 . S
C800 C781 1.368 . S
C800 C794 1.368 . S
C800 C799 1.523 . S
C801 C785 1.429 . S
C801 C797 1.429 . S
C801 C802 1.523 . S
C802 C786 1.368 . S
C802 C798 1.368 . S
C802 C801 1.523 . S
H803 C778 0.950 . S
H804 C780 0.950 . S
H805 C781 0.949 . S
H806 C783 0.950 . S
H807 C785 0.950 . S
C808 C809 1.349 . S
C808 C810 1.327 . S
C808 H833 0.950 . S
C809 C808 1.349 . S
C809 C825 1.349 . S
C810 C808 1.327 . S
C810 C829 1.429 . S
C810 H834 0.950 . S
C811 C828 1.574 1_455 S
C811 C830 1.368 . S
C811 H835 0.949 . S
H812 C816 0.949 . S
C813 C814 1.349 . S
C813 C815 1.327 . S
C813 H836 0.950 . S
C814 C813 1.349 . S
C814 C826 1.349 . S
C815 C813 1.327 . S
C815 C831 1.429 . S
C815 H837 0.950 . S
C816 H812 0.949 . S
C816 C824 1.574 1_655 S
C816 C832 1.368 . S
H817 C825 0.950 . S
H818 C823 0.950 . S
H819 C824 0.949 . S
H820 C826 0.950 . S
H821 C827 0.950 . S
H822 C828 0.949 . S
C823 H818 0.950 . S
C823 C825 1.327 . S
C823 C829 1.429 . S
C824 C816 1.574 1_455 S
C824 H819 0.949 . S
C824 C830 1.368 . S
C825 C809 1.349 . S
C825 H817 0.950 . S
C825 C823 1.327 . S
C826 C814 1.349 . S
C826 H820 0.950 . S
C826 C827 1.327 . S
C827 H821 0.950 . S
C827 C826 1.327 . S
C827 C831 1.429 . S
C828 C811 1.574 1_655 S
C828 H822 0.949 . S
C828 C832 1.368 . S
C829 C810 1.429 . S
C829 C823 1.429 . S
C829 C830 1.523 . S
C830 C811 1.368 . S
C830 C824 1.368 . S
C830 C829 1.523 . S
C831 C815 1.429 . S
C831 C827 1.429 . S
C831 C832 1.523 . S
C832 C816 1.368 . S
C832 C828 1.368 . S
C832 C831 1.523 . S
H833 C808 0.950 . S
H834 C810 0.950 . S
H835 C811 0.949 . S
H836 C813 0.950 . S
H837 C815 0.950 . S
C838 C839 1.349 . S
C838 C840 1.327 . S
C838 H863 0.950 . S
C839 C838 1.349 . S
C839 C855 1.349 . S
C840 C838 1.327 . S
C840 C859 1.429 . S
C840 H864 0.950 . S
C841 C858 1.574 . S
C841 C860 1.368 . S
C841 H865 0.949 . S
H842 C846 0.949 . S
C843 C844 1.349 . S
C843 C845 1.327 . S
C843 H866 0.950 . S
C844 C843 1.349 . S
C844 C856 1.349 . S
C845 C843 1.327 . S
C845 C861 1.429 . S
C845 H867 0.950 . S
C846 H842 0.949 . S
C846 C854 1.574 . S
C846 C862 1.368 . S
H847 C855 0.950 . S
H848 C853 0.950 . S
H849 C854 0.949 . S
H850 C856 0.950 . S
H851 C857 0.950 . S
H852 C858 0.949 . S
C853 H848 0.950 . S
C853 C855 1.327 . S
C853 C859 1.429 . S
C854 C846 1.574 . S
C854 H849 0.949 . S
C854 C860 1.368 . S
C855 C839 1.349 . S
C855 H847 0.950 . S
C855 C853 1.327 . S
C856 C844 1.349 . S
C856 H850 0.950 . S
C856 C857 1.327 . S
C857 H851 0.950 . S
C857 C856 1.327 . S
C857 C861 1.429 . S
C858 C841 1.574 . S
C858 H852 0.949 . S
C858 C862 1.368 . S
C859 C840 1.429 . S
C859 C853 1.429 . S
C859 C860 1.523 . S
C860 C841 1.368 . S
C860 C854 1.368 . S
C860 C859 1.523 . S
C861 C845 1.429 . S
C861 C857 1.429 . S
C861 C862 1.523 . S
C862 C846 1.368 . S
C862 C858 1.368 . S
C862 C861 1.523 . S
H863 C838 0.950 . S
H864 C840 0.950 . S
H865 C841 0.949 . S
H866 C843 0.950 . S
H867 C845 0.950 . S
C868 C869 1.349 . S
C868 C870 1.327 . S
C868 H893 0.950 . S
C869 C868 1.349 . S
C869 C885 1.349 . S
C870 C868 1.327 . S
C870 C889 1.429 . S
C870 H894 0.950 . S
C871 C888 1.574 1_455 S
C871 C890 1.368 . S
C871 H895 0.949 . S
H872 C876 0.949 . S
C873 C874 1.349 . S
C873 C875 1.327 . S
C873 H896 0.950 . S
C874 C873 1.349 . S
C874 C886 1.349 . S
C875 C873 1.327 . S
C875 C891 1.429 . S
C875 H897 0.950 . S
C876 H872 0.949 . S
C876 C884 1.574 1_655 S
C876 C892 1.368 . S
H877 C885 0.950 . S
H878 C883 0.950 . S
H879 C884 0.949 . S
H880 C886 0.950 . S
H881 C887 0.950 . S
H882 C888 0.949 . S
C883 H878 0.950 . S
C883 C885 1.327 . S
C883 C889 1.429 . S
C884 C876 1.574 1_455 S
C884 H879 0.949 . S
C884 C890 1.368 . S
C885 C869 1.349 . S
C885 H877 0.950 . S
C885 C883 1.327 . S
C886 C874 1.349 . S
C886 H880 0.950 . S
C886 C887 1.327 . S
C887 H881 0.950 . S
C887 C886 1.327 . S
C887 C891 1.429 . S
C888 C871 1.574 1_655 S
C888 H882 0.949 . S
C888 C892 1.368 . S
C889 C870 1.429 . S
C889 C883 1.429 . S
C889 C890 1.523 . S
C890 C871 1.368 . S
C890 C884 1.368 . S
C890 C889 1.523 . S
C891 C875 1.429 . S
C891 C887 1.429 . S
C891 C892 1.523 . S
C892 C876 1.368 . S
C892 C888 1.368 . S
C892 C891 1.523 . S
H893 C868 0.950 . S
H894 C870 0.950 . S
H895 C871 0.949 . S
H896 C873 0.950 . S
H897 C875 0.950 . S
C898 C899 1.349 . S
C898 C900 1.327 . S
C898 H923 0.950 . S
C899 C898 1.349 . S
C899 C915 1.349 . S
C900 C898 1.327 . S
C900 C919 1.429 . S
C900 H924 0.950 . S
C901 C918 1.574 . S
C901 C920 1.368 . S
C901 H925 0.949 . S
H902 C906 0.949 . S
C903 C904 1.349 . S
C903 C905 1.327 . S
C903 H926 0.950 . S
C904 C903 1.349 . S
C904 C916 1.349 . S
C905 C903 1.327 . S
C905 C921 1.429 . S
C905 H927 0.950 . S
C906 H902 0.949 . S
C906 C914 1.574 . S
C906 C922 1.368 . S
H907 C915 0.950 . S
H908 C913 0.950 . S
H909 C914 0.949 . S
H910 C916 0.950 . S
H911 C917 0.950 . S
H912 C918 0.949 . S
C913 H908 0.950 . S
C913 C915 1.327 . S
C913 C919 1.429 . S
C914 C906 1.574 . S
C914 H909 0.949 . S
C914 C920 1.368 . S
C915 C899 1.349 . S
C915 H907 0.950 . S
C915 C913 1.327 . S
C916 C904 1.349 . S
C916 H910 0.950 . S
C916 C917 1.327 . S
C917 H911 0.950 . S
C917 C916 1.327 . S
C917 C921 1.429 . S
C918 C901 1.574 . S
C918 H912 0.949 . S
C918 C922 1.368 . S
C919 C900 1.429 . S
C919 C913 1.429 . S
C919 C920 1.523 . S
C920 C901 1.368 . S
C920 C914 1.368 . S
C920 C919 1.523 . S
C921 C905 1.429 . S
C921 C917 1.429 . S
C921 C922 1.523 . S
C922 C906 1.368 . S
C922 C918 1.368 . S
C922 C921 1.523 . S
H923 C898 0.950 . S
H924 C900 0.950 . S
H925 C901 0.949 . S
H926 C903 0.950 . S
H927 C905 0.950 . S
C928 C929 1.349 . S
C928 C930 1.327 . S
C928 H953 0.950 . S
C929 C928 1.349 . S
C929 C945 1.349 . S
C930 C928 1.327 . S
C930 C949 1.429 . S
C930 H954 0.950 . S
C931 C948 1.574 . S
C931 C950 1.368 . S
C931 H955 0.949 . S
H932 C936 0.949 . S
C933 C934 1.349 . S
C933 C935 1.327 . S
C933 H956 0.950 . S
C934 C933 1.349 . S
C934 C946 1.349 . S
C935 C933 1.327 . S
C935 C951 1.429 . S
C935 H957 0.950 . S
C936 H932 0.949 . S
C936 C944 1.574 . S
C936 C952 1.368 . S
H937 C945 0.950 . S
H938 C943 0.950 . S
H939 C944 0.949 . S
H940 C946 0.950 . S
H941 C947 0.950 . S
H942 C948 0.949 . S
C943 H938 0.950 . S
C943 C945 1.327 . S
C943 C949 1.429 . S
C944 C936 1.574 . S
C944 H939 0.949 . S
C944 C950 1.368 . S
C945 C929 1.349 . S
C945 H937 0.950 . S
C945 C943 1.327 . S
C946 C934 1.349 . S
C946 H940 0.950 . S
C946 C947 1.327 . S
C947 H941 0.950 . S
C947 C946 1.327 . S
C947 C951 1.429 . S
C948 C931 1.574 . S
C948 H942 0.949 . S
C948 C952 1.368 . S
C949 C930 1.429 . S
C949 C943 1.429 . S
C949 C950 1.523 . S
C950 C931 1.368 . S
C950 C944 1.368 . S
C950 C949 1.523 . S
C951 C935 1.429 . S
C951 C947 1.429 . S
C951 C952 1.523 . S
C952 C936 1.368 . S
C952 C948 1.368 . S
C952 C951 1.523 . S
H953 C928 0.950 . S
H954 C930 0.950 . S
H955 C931 0.949 . S
H956 C933 0.950 . S
H957 C935 0.950 . S
C958 C959 1.349 . S
C958 C960 1.327 . S
C958 H983 0.950 . S
C959 C958 1.349 . S
C959 C975 1.349 . S
C960 C958 1.327 . S
C960 C979 1.429 . S
C960 H984 0.950 . S
C961 C978 1.574 . S
C961 C980 1.368 . S
C961 H985 0.949 . S
H962 C966 0.949 . S
C963 C964 1.349 . S
C963 C965 1.327 . S
C963 H986 0.950 . S
C964 C963 1.349 . S
C964 C976 1.349 . S
C965 C963 1.327 . S
C965 C981 1.429 . S
C965 H987 0.950 . S
C966 H962 0.949 . S
C966 C974 1.574 . S
C966 C982 1.368 . S
H967 C975 0.950 . S
H968 C973 0.950 . S
H969 C974 0.949 . S
H970 C976 0.950 . S
H971 C977 0.950 . S
H972 C978 0.949 . S
C973 H968 0.950 . S
C973 C975 1.327 . S
C973 C979 1.429 . S
C974 C966 1.574 . S
C974 H969 0.949 . S
C974 C980 1.368 . S
C975 C959 1.349 . S
C975 H967 0.950 . S
C975 C973 1.327 . S
C976 C964 1.349 . S
C976 H970 0.950 . S
C976 C977 1.327 . S
C977 H971 0.950 . S
C977 C976 1.327 . S
C977 C981 1.429 . S
C978 C961 1.574 . S
C978 H972 0.949 . S
C978 C982 1.368 . S
C979 C960 1.429 . S
C979 C973 1.429 . S
C979 C980 1.523 . S
C980 C961 1.368 . S
C980 C974 1.368 . S
C980 C979 1.523 . S
C981 C965 1.429 . S
C981 C977 1.429 . S
C981 C982 1.523 . S
C982 C966 1.368 . S
C982 C978 1.368 . S
C982 C981 1.523 . S
H983 C958 0.950 . S
H984 C960 0.950 . S
H985 C961 0.949 . S
H986 C963 0.950 . S
H987 C965 0.950 . S
C988 C989 1.349 . S
C988 C990 1.327 . S
C988 H1013 0.950 . S
C989 C988 1.349 . S
C989 C1005 1.349 . S
C990 C988 1.327 . S
C990 C1009 1.429 . S
C990 H1014 0.950 . S
C991 C1008 1.574 . S
C991 C1010 1.368 . S
C991 H1015 0.949 . S
H992 C996 0.949 . S
C993 C994 1.349 . S
C993 C995 1.327 . S
C993 H1016 0.950 . S
C994 C993 1.349 . S
C994 C1006 1.349 . S
C995 C993 1.327 . S
C995 C1011 1.429 . S
C995 H1017 0.950 . S
C996 H992 0.949 . S
C996 C1004 1.574 . S
C996 C1012 1.368 . S
H997 C1005 0.950 . S
H998 C1003 0.950 . S
H999 C1004 0.949 . S
H1000 C1006 0.950 . S
H1001 C1007 0.950 . S
H1002 C1008 0.949 . S
C1003 H998 0.950 . S
C1003 C1005 1.327 . S
C1003 C1009 1.429 . S
C1004 C996 1.574 . S
C1004 H999 0.949 . S
C1004 C1010 1.368 . S
C1005 C989 1.349 . S
C1005 H997 0.950 . S
C1005 C1003 1.327 . S
C1006 C994 1.349 . S
C1006 H1000 0.950 . S
C1006 C1007 1.327 . S
C1007 H1001 0.950 . S
C1007 C1006 1.327 . S
C1007 C1011 1.429 . S
C1008 C991 1.574 . S
C1008 H1002 0.949 . S
C1008 C1012 1.368 . S
C1009 C990 1.429 . S
C1009 C1003 1.429 . S
C1009 C1010 1.523 . S
C1010 C991 1.368 . S
C1010 C1004 1.368 . S
C1010 C1009 1.523 . S
C1011 C995 1.429 . S
C1011 C1007 1.429 . S
C1011 C1012 1.523 . S
C1012 C996 1.368 . S
C1012 C1008 1.368 . S
C1012 C1011 1.523 . S
H1013 C988 0.950 . S
H1014 C990 0.950 . S
H1015 C991 0.949 . S
H1016 C993 0.950 . S
H1017 C995 0.950 . S
C1018 C1019 1.349 . S
C1018 C1020 1.327 . S
C1018 H1043 0.950 . S
C1019 C1018 1.349 . S
C1019 C1035 1.349 . S
C1020 C1018 1.327 . S
C1020 C1039 1.429 . S
C1020 H1044 0.950 . S
C1021 C1038 1.574 . S
C1021 C1040 1.368 . S
C1021 H1045 0.949 . S
H1022 C1026 0.949 . S
C1023 C1024 1.349 . S
C1023 C1025 1.327 . S
C1023 H1046 0.950 . S
C1024 C1023 1.349 . S
C1024 C1036 1.349 . S
C1025 C1023 1.327 . S
C1025 C1041 1.429 . S
C1025 H1047 0.950 . S
C1026 H1022 0.949 . S
C1026 C1034 1.574 . S
C1026 C1042 1.368 . S
H1027 C1035 0.950 . S
H1028 C1033 0.950 . S
H1029 C1034 0.949 . S
H1030 C1036 0.950 . S
H1031 C1037 0.950 . S
H1032 C1038 0.949 . S
C1033 H1028 0.950 . S
C1033 C1035 1.327 . S
C1033 C1039 1.429 . S
C1034 C1026 1.574 . S
C1034 H1029 0.949 . S
C1034 C1040 1.368 . S
C1035 C1019 1.349 . S
C1035 H1027 0.950 . S
C1035 C1033 1.327 . S
C1036 C1024 1.349 . S
C1036 H1030 0.950 . S
C1036 C1037 1.327 . S
C1037 H1031 0.950 . S
C1037 C1036 1.327 . S
C1037 C1041 1.429 . S
C1038 C1021 1.574 . S
C1038 H1032 0.949 . S
C1038 C1042 1.368 . S
C1039 C1020 1.429 . S
C1039 C1033 1.429 . S
C1039 C1040 1.523 . S
C1040 C1021 1.368 . S
C1040 C1034 1.368 . S
C1040 C1039 1.523 . S
C1041 C1025 1.429 . S
C1041 C1037 1.429 . S
C1041 C1042 1.523 . S
C1042 C1026 1.368 . S
C1042 C1038 1.368 . S
C1042 C1041 1.523 . S
H1043 C1018 0.950 . S
H1044 C1020 0.950 . S
H1045 C1021 0.949 . S
H1046 C1023 0.950 . S
H1047 C1025 0.950 . S
C1048 C1049 1.349 . S
C1048 C1050 1.327 . S
C1048 H1073 0.950 . S
C1049 C1048 1.349 . S
C1049 C1065 1.349 . S
C1050 C1048 1.327 . S
C1050 C1069 1.429 . S
C1050 H1074 0.950 . S
C1051 C1068 1.574 . S
C1051 C1070 1.368 . S
C1051 H1075 0.949 . S
H1052 C1056 0.949 . S
C1053 C1054 1.349 . S
C1053 C1055 1.327 . S
C1053 H1076 0.950 . S
C1054 C1053 1.349 . S
C1054 C1066 1.349 . S
C1055 C1053 1.327 . S
C1055 C1071 1.429 . S
C1055 H1077 0.950 . S
C1056 H1052 0.949 . S
C1056 C1064 1.574 . S
C1056 C1072 1.368 . S
H1057 C1065 0.950 . S
H1058 C1063 0.950 . S
H1059 C1064 0.949 . S
H1060 C1066 0.950 . S
H1061 C1067 0.950 . S
H1062 C1068 0.949 . S
C1063 H1058 0.950 . S
C1063 C1065 1.327 . S
C1063 C1069 1.429 . S
C1064 C1056 1.574 . S
C1064 H1059 0.949 . S
C1064 C1070 1.368 . S
C1065 C1049 1.349 . S
C1065 H1057 0.950 . S
C1065 C1063 1.327 . S
C1066 C1054 1.349 . S
C1066 H1060 0.950 . S
C1066 C1067 1.327 . S
C1067 H1061 0.950 . S
C1067 C1066 1.327 . S
C1067 C1071 1.429 . S
C1068 C1051 1.574 . S
C1068 H1062 0.949 . S
C1068 C1072 1.368 . S
C1069 C1050 1.429 . S
C1069 C1063 1.429 . S
C1069 C1070 1.523 . S
C1070 C1051 1.368 . S
C1070 C1064 1.368 . S
C1070 C1069 1.523 . S
C1071 C1055 1.429 . S
C1071 C1067 1.429 . S
C1071 C1072 1.523 . S
C1072 C1056 1.368 . S
C1072 C1068 1.368 . S
C1072 C1071 1.523 . S
H1073 C1048 0.950 . S
H1074 C1050 0.950 . S
H1075 C1051 0.949 . S
H1076 C1053 0.950 . S
H1077 C1055 0.950 . S
C1078 C1079 1.349 . S
C1078 C1080 1.327 . S
C1078 H1103 0.950 . S
C1079 C1078 1.349 . S
C1079 C1095 1.349 . S
C1080 C1078 1.327 . S
C1080 C1099 1.429 . S
C1080 H1104 0.950 . S
C1081 C1098 1.574 . S
C1081 C1100 1.368 . S
C1081 H1105 0.949 . S
H1082 C1086 0.949 . S
C1083 C1084 1.349 . S
C1083 C1085 1.327 . S
C1083 H1106 0.950 . S
C1084 C1083 1.349 . S
C1084 C1096 1.349 . S
C1085 C1083 1.327 . S
C1085 C1101 1.429 . S
C1085 H1107 0.950 . S
C1086 H1082 0.949 . S
C1086 C1094 1.574 . S
C1086 C1102 1.368 . S
H1087 C1095 0.950 . S
H1088 C1093 0.950 . S
H1089 C1094 0.949 . S
H1090 C1096 0.950 . S
H1091 C1097 0.950 . S
H1092 C1098 0.949 . S
C1093 H1088 0.950 . S
C1093 C1095 1.327 . S
C1093 C1099 1.429 . S
C1094 C1086 1.574 . S
C1094 H1089 0.949 . S
C1094 C1100 1.368 . S
C1095 C1079 1.349 . S
C1095 H1087 0.950 . S
C1095 C1093 1.327 . S
C1096 C1084 1.349 . S
C1096 H1090 0.950 . S
C1096 C1097 1.327 . S
C1097 H1091 0.950 . S
C1097 C1096 1.327 . S
C1097 C1101 1.429 . S
C1098 C1081 1.574 . S
C1098 H1092 0.949 . S
C1098 C1102 1.368 . S
C1099 C1080 1.429 . S
C1099 C1093 1.429 . S
C1099 C1100 1.523 . S
C1100 C1081 1.368 . S
C1100 C1094 1.368 . S
C1100 C1099 1.523 . S
C1101 C1085 1.429 . S
C1101 C1097 1.429 . S
C1101 C1102 1.523 . S
C1102 C1086 1.368 . S
C1102 C1098 1.368 . S
C1102 C1101 1.523 . S
H1103 C1078 0.950 . S
H1104 C1080 0.950 . S
H1105 C1081 0.949 . S
H1106 C1083 0.950 . S
H1107 C1085 0.950 . S
C1108 C1109 1.349 . S
C1108 C1110 1.327 . S
C1108 H1133 0.950 . S
C1109 C1108 1.349 . S
C1109 C1125 1.349 . S
C1110 C1108 1.327 . S
C1110 C1129 1.429 . S
C1110 H1134 0.950 . S
C1111 C1128 1.574 . S
C1111 C1130 1.368 . S
C1111 H1135 0.949 . S
H1112 C1116 0.949 . S
C1113 C1114 1.349 . S
C1113 C1115 1.327 . S
C1113 H1136 0.950 . S
C1114 C1113 1.349 . S
C1114 C1126 1.349 . S
C1115 C1113 1.327 . S
C1115 C1131 1.429 . S
C1115 H1137 0.950 . S
C1116 H1112 0.949 . S
C1116 C1124 1.574 . S
C1116 C1132 1.368 . S
H1117 C1125 0.950 . S
H1118 C1123 0.950 . S
H1119 C1124 0.949 . S
H1120 C1126 0.950 . S
H1121 C1127 0.950 . S
H1122 C1128 0.949 . S
C1123 H1118 0.950 . S
C1123 C1125 1.327 . S
C1123 C1129 1.429 . S
C1124 C1116 1.574 . S
C1124 H1119 0.949 . S
C1124 C1130 1.368 . S
C1125 C1109 1.349 . S
C1125 H1117 0.950 . S
C1125 C1123 1.327 . S
C1126 C1114 1.349 . S
C1126 H1120 0.950 . S
C1126 C1127 1.327 . S
C1127 H1121 0.950 . S
C1127 C1126 1.327 . S
C1127 C1131 1.429 . S
C1128 C1111 1.574 . S
C1128 H1122 0.949 . S
C1128 C1132 1.368 . S
C1129 C1110 1.429 . S
C1129 C1123 1.429 . S
C1129 C1130 1.523 . S
C1130 C1111 1.368 . S
C1130 C1124 1.368 . S
C1130 C1129 1.523 . S
C1131 C1115 1.429 . S
C1131 C1127 1.429 . S
C1131 C1132 1.523 . S
C1132 C1116 1.368 . S
C1132 C1128 1.368 . S
C1132 C1131 1.523 . S
H1133 C1108 0.950 . S
H1134 C1110 0.950 . S
H1135 C1111 0.949 . S
H1136 C1113 0.950 . S
H1137 C1115 0.950 . S
C1138 C1139 1.349 . S
C1138 C1140 1.327 . S
C1138 H1163 0.950 . S
C1139 C1138 1.349 . S
C1139 C1155 1.349 . S
C1140 C1138 1.327 . S
C1140 C1159 1.429 . S
C1140 H1164 0.950 . S
C1141 C1158 1.574 . S
C1141 C1160 1.368 . S
C1141 H1165 0.949 . S
H1142 C1146 0.949 . S
C1143 C1144 1.349 . S
C1143 C1145 1.327 . S
C1143 H1166 0.950 . S
C1144 C1143 1.349 . S
C1144 C1156 1.349 . S
C1145 C1143 1.327 . S
C1145 C1161 1.429 . S
C1145 H1167 0.950 . S
C1146 H1142 0.949 . S
C1146 C1154 1.574 . S
C1146 C1162 1.368 . S
H1147 C1155 0.950 . S
H1148 C1153 0.950 . S
H1149 C1154 0.949 . S
H1150 C1156 0.950 . S
H1151 C1157 0.950 . S
H1152 C1158 0.949 . S
C1153 H1148 0.950 . S
C1153 C1155 1.327 . S
C1153 C1159 1.429 . S
C1154 C1146 1.574 . S
C1154 H1149 0.949 . S
C1154 C1160 1.368 . S
C1155 C1139 1.349 . S
C1155 H1147 0.950 . S
C1155 C1153 1.327 . S
C1156 C1144 1.349 . S
C1156 H1150 0.950 . S
C1156 C1157 1.327 . S
C1157 H1151 0.950 . S
C1157 C1156 1.327 . S
C1157 C1161 1.429 . S
C1158 C1141 1.574 . S
C1158 H1152 0.949 . S
C1158 C1162 1.368 . S
C1159 C1140 1.429 . S
C1159 C1153 1.429 . S
C1159 C1160 1.523 . S
C1160 C1141 1.368 . S
C1160 C1154 1.368 . S
C1160 C1159 1.523 . S
C1161 C1145 1.429 . S
C1161 C1157 1.429 . S
C1161 C1162 1.523 . S
C1162 C1146 1.368 . S
C1162 C1158 1.368 . S
C1162 C1161 1.523 . S
H1163 C1138 0.950 . S
H1164 C1140 0.950 . S
H1165 C1141 0.949 . S
H1166 C1143 0.950 . S
H1167 C1145 0.950 . S
C209 C0 1.380 . S
C214 C164 1.385 . S
C239 C177 1.385 . S
C244 C13 1.380 . S
C269 C26 1.380 . S
C274 C190 1.385 . S
C299 C203 1.385 . S
C304 C39 1.380 . S
C329 C104 1.380 . S
C334 C60 1.385 . S
C359 C73 1.385 . S
C364 C117 1.380 . S
C389 C130 1.380 . S
C394 C86 1.385 . S
C419 C99 1.385 . S
C424 C143 1.380 . S
C449 C5 1.521 . S
C454 C31 1.521 . S
C479 C18 1.521 . S
C484 C44 1.521 . S
C509 C57 1.321 . S
C514 C83 1.321 . S
C539 C70 1.321 . S
C544 C96 1.321 . S
C569 C135 1.521 . S
C574 C109 1.521 . S
C599 C122 1.521 . S
C604 C148 1.521 . S
C629 C187 1.321 . S
C634 C161 1.321 . S
C659 C174 1.321 . S
C664 C200 1.321 . S
C689 C88 1.449 . S
C694 C10 1.450 . S
C719 C101 1.449 . S
C724 C23 1.450 . S
C749 C36 1.450 . S
C754 C62 1.449 . S
C779 C49 1.450 . S
C784 C75 1.449 . S
C809 C192 1.449 . S
C814 C114 1.450 . S
C839 C127 1.450 . S
C844 C205 1.449 . S
C869 C166 1.449 . S
C874 C140 1.450 . S
C899 C153 1.450 . S
C904 C179 1.449 . S
C929 C8 1.560 . S
C934 C47 1.560 . S
C959 C34 1.560 . S
C964 C21 1.560 . S
C989 C52 1.210 . S
C994 C91 1.210 . S
C1019 C65 1.210 . S
C1024 C78 1.210 . S
C1049 C151 1.560 . S
C1054 C112 1.560 . S
C1079 C125 1.560 . S
C1084 C138 1.560 . S
C1109 C195 1.210 . S
C1114 C156 1.210 . S
C1139 C169 1.210 . S
C1144 C182 1.210 . S
