# Generated by pormake.
# Topology une, (4)-cn, num edge types: 1
# Building blocks:
#     Node 0, Type 0, BuildingBlock: QUQFOY_clean_sbu_1, # of connection points: 4
#     Node 1, Type 0, BuildingBlock: QUQFOY_clean_sbu_1, # of connection points: 4
#     Node 2, Type 0, BuildingBlock: QUQFOY_clean_sbu_1, # of connection points: 4
#     Node 3, Type 0, BuildingBlock: QUQFOY_clean_sbu_1, # of connection points: 4
#     Node 4, Type 0, BuildingBlock: QUQFOY_clean_sbu_1, # of connection points: 4
#     Node 5, Type 0, BuildingBlock: QUQFOY_clean_sbu_1, # of connection points: 4
#     Node 6, Type 0, BuildingBlock: QUQFOY_clean_sbu_1, # of connection points: 4
#     Node 7, Type 0, BuildingBlock: QUQFOY_clean_sbu_1, # of connection points: 4
#     Node 8, Type 0, BuildingBlock: QUQFOY_clean_sbu_1, # of connection points: 4
#     Node 9, Type 0, BuildingBlock: QUQFOY_clean_sbu_1, # of connection points: 4
#     Node 10, Type 0, BuildingBlock: QUQFOY_clean_sbu_1, # of connection points: 4
#     Node 11, Type 0, BuildingBlock: QUQFOY_clean_sbu_1, # of connection points: 4
#     Node 12, Type 0, BuildingBlock: QUQFOY_clean_sbu_1, # of connection points: 4
#     Node 13, Type 0, BuildingBlock: QUQFOY_clean_sbu_1, # of connection points: 4
#     Node 14, Type 0, BuildingBlock: QUQFOY_clean_sbu_1, # of connection points: 4
#     Node 15, Type 0, BuildingBlock: QUQFOY_clean_sbu_1, # of connection points: 4
#     Node 16, Type 0, BuildingBlock: QUQFOY_clean_sbu_1, # of connection points: 4
#     Node 17, Type 0, BuildingBlock: QUQFOY_clean_sbu_1, # of connection points: 4
#     Edge 18, Type (0, 0), BuildingBlock: TEMPAE_clean_linker_10, # of connection points: 2
#     Edge 19, Type (0, 0), BuildingBlock: TEMPAE_clean_linker_10, # of connection points: 2
#     Edge 20, Type (0, 0), BuildingBlock: TEMPAE_clean_linker_10, # of connection points: 2
#     Edge 21, Type (0, 0), BuildingBlock: TEMPAE_clean_linker_10, # of connection points: 2
#     Edge 22, Type (0, 0), BuildingBlock: TEMPAE_clean_linker_10, # of connection points: 2
#     Edge 23, Type (0, 0), BuildingBlock: TEMPAE_clean_linker_10, # of connection points: 2
#     Edge 24, Type (0, 0), BuildingBlock: TEMPAE_clean_linker_10, # of connection points: 2
#     Edge 25, Type (0, 0), BuildingBlock: TEMPAE_clean_linker_10, # of connection points: 2
#     Edge 26, Type (0, 0), BuildingBlock: TEMPAE_clean_linker_10, # of connection points: 2
#     Edge 27, Type (0, 0), BuildingBlock: TEMPAE_clean_linker_10, # of connection points: 2
#     Edge 28, Type (0, 0), BuildingBlock: TEMPAE_clean_linker_10, # of connection points: 2
#     Edge 29, Type (0, 0), BuildingBlock: TEMPAE_clean_linker_10, # of connection points: 2
#     Edge 30, Type (0, 0), BuildingBlock: TEMPAE_clean_linker_10, # of connection points: 2
#     Edge 31, Type (0, 0), BuildingBlock: TEMPAE_clean_linker_10, # of connection points: 2
#     Edge 32, Type (0, 0), BuildingBlock: TEMPAE_clean_linker_10, # of connection points: 2
#     Edge 33, Type (0, 0), BuildingBlock: TEMPAE_clean_linker_10, # of connection points: 2
#     Edge 34, Type (0, 0), BuildingBlock: TEMPAE_clean_linker_10, # of connection points: 2
#     Edge 35, Type (0, 0), BuildingBlock: TEMPAE_clean_linker_10, # of connection points: 2
#     Edge 36, Type (0, 0), BuildingBlock: TEMPAE_clean_linker_10, # of connection points: 2
#     Edge 37, Type (0, 0), BuildingBlock: TEMPAE_clean_linker_10, # of connection points: 2
#     Edge 38, Type (0, 0), BuildingBlock: TEMPAE_clean_linker_10, # of connection points: 2
#     Edge 39, Type (0, 0), BuildingBlock: TEMPAE_clean_linker_10, # of connection points: 2
#     Edge 40, Type (0, 0), BuildingBlock: TEMPAE_clean_linker_10, # of connection points: 2
#     Edge 41, Type (0, 0), BuildingBlock: TEMPAE_clean_linker_10, # of connection points: 2
#     Edge 42, Type (0, 0), BuildingBlock: TEMPAE_clean_linker_10, # of connection points: 2
#     Edge 43, Type (0, 0), BuildingBlock: TEMPAE_clean_linker_10, # of connection points: 2
#     Edge 44, Type (0, 0), BuildingBlock: TEMPAE_clean_linker_10, # of connection points: 2
#     Edge 45, Type (0, 0), BuildingBlock: TEMPAE_clean_linker_10, # of connection points: 2
#     Edge 46, Type (0, 0), BuildingBlock: TEMPAE_clean_linker_10, # of connection points: 2
#     Edge 47, Type (0, 0), BuildingBlock: TEMPAE_clean_linker_10, # of connection points: 2
#     Edge 48, Type (0, 0), BuildingBlock: TEMPAE_clean_linker_10, # of connection points: 2
#     Edge 49, Type (0, 0), BuildingBlock: TEMPAE_clean_linker_10, # of connection points: 2
#     Edge 50, Type (0, 0), BuildingBlock: TEMPAE_clean_linker_10, # of connection points: 2
#     Edge 51, Type (0, 0), BuildingBlock: TEMPAE_clean_linker_10, # of connection points: 2
#     Edge 52, Type (0, 0), BuildingBlock: TEMPAE_clean_linker_10, # of connection points: 2
#     Edge 53, Type (0, 0), BuildingBlock: TEMPAE_clean_linker_10, # of connection points: 2
# Relax obj value: 0.133
# Max RMSD: 0.153
# Mean RMSD: 0.148
data_MOF--net-une--node1-QUQFOY_clean_sbu_1--edge1-TEMPAE_clean_linker_10
_symmetry_space_group_name_H-M    P1
_symmetry_Int_Tables_number       1
_symmetry_cell_setting            triclinic
loop_
_symmetry_equiv_pos_as_xyz
'x, y, z'
_cell_length_a     40.861454
_cell_length_b     40.835673
_cell_length_c     61.212325
_cell_angle_alpha  89.983926
_cell_angle_beta   90.044437
_cell_angle_gamma 119.96073
loop_
_atom_site_label
_atom_site_type_symbol
_atom_site_fract_x
_atom_site_fract_y
_atom_site_fract_z
_atom_type_partial_charge
O0 O 0.30769 0.0578 0.02788 0.0
Cd1 Cd 0.32059 0.03152 0.05226 0.0
Cd2 Cd 0.35219 0.01342 0.01257 0.0
O3 O 0.33761 0.05097 0.99972 0.0
O4 O 0.30556 0.04797 0.07918 0.0
O5 O 0.36484 0.06478 0.07172 0.0
C6 C 0.34073 0.06684 0.08443 0.0
C7 C 0.39825 0.00758 0.99307 0.0
C8 C 0.31825 0.06428 0.00806 0.0
C9 C 0.28925 0.95036 0.04053 0.0
O10 O 0.31099 0.96183 0.02405 0.0
O11 O 0.2893 0.97358 0.05432 0.0
O12 O 0.36487 -0.00461 0.9854 0.0
O13 O 0.40623 0.0245 0.01175 0.0
O14 O 0.8838 0.1978 0.05234 0.0
Cd15 Cd 0.91336 0.23267 0.07801 0.0
Cd16 Cd 0.92066 0.28971 0.0472 0.0
O17 O 0.88482 0.24128 0.03037 0.0
O18 O 0.90235 0.19862 0.10361 0.0
O19 O 0.88437 0.24149 0.10166 0.0
C20 C 0.88509 0.21452 0.1123 0.0
C21 C 0.91781 0.34364 0.03739 0.0
C22 C 0.8748 0.20705 0.03445 0.0
C23 C 0.99097 0.28815 0.06242 0.0
O24 O 0.97539 0.30178 0.0504 0.0
O25 O 0.97145 0.26107 0.07544 0.0
O26 O 0.9273 0.32614 0.02367 0.0
O27 O 0.90875 0.33016 0.0569 0.0
O28 O 0.75143 0.6754 0.05303 0.0
Cd29 Cd 0.72541 0.67924 0.08082 0.0
Cd30 Cd 0.65811 0.63112 0.04988 0.0
O31 O 0.70362 0.64108 0.03082 0.0
O32 O 0.76913 0.70329 0.10126 0.0
O33 O 0.71924 0.64694 0.10717 0.0
C34 C 0.75232 0.67337 0.11316 0.0
C35 C 0.60053 0.58397 0.03533 0.0
C36 C 0.73884 0.65961 0.03466 0.0
C37 C 0.67175 0.70648 0.0708 0.0
O38 O 0.65274 0.67589 0.06026 0.0
O39 O 0.70281 0.71438 0.07989 0.0
O40 O 0.61995 0.61633 0.02617 0.0
O41 O 0.61402 0.57747 0.0528 0.0
O42 O 0.67931 0.87716 0.95163 0.0
Cd43 Cd 0.69327 0.91061 0.92422 0.0
Cd44 Cd 0.63576 0.92494 0.94252 0.0
O45 O 0.63304 0.88513 0.96407 0.0
O46 O 0.71902 0.89105 0.905 0.0
O47 O 0.66569 0.88937 0.89595 0.0
C48 C 0.69164 0.88117 0.89132 0.0
C49 C 0.58194 0.93133 0.94374 0.0
C50 C 0.65387 0.8704 0.96569 0.0
C51 C 0.71805 0.98942 0.9376 0.0
O52 O 0.68388 0.97665 0.94316 0.0
O53 O 0.72863 0.96786 0.92904 0.0
O54 O 0.60343 0.93805 0.96036 0.0
O55 O 0.59042 0.92046 0.92593 0.0
O56 O 0.06491 0.75059 0.95821 0.0
Cd57 Cd 0.02937 0.72913 0.93179 0.0
Cd58 Cd 0.00615 0.65911 0.96442 0.0
O59 O 0.05118 0.70269 0.98046 0.0
O60 O 0.04885 0.77578 0.91373 0.0
O61 O 0.05023 0.72503 0.90262 0.0
C62 C 0.05844 0.7595 0.89913 0.0
C63 C 0.98915 0.59919 0.97823 0.0
C64 C 0.07073 0.73752 0.9757 0.0
C65 C 0.94907 0.68288 0.94646 0.0
O66 O 0.95882 0.66229 0.95695 0.0
O67 O 0.97298 0.71148 0.93571 0.0
O68 O 0.98292 0.62255 0.98892 0.0
O69 O 0.00606 0.60993 0.95964 0.0
O70 O 0.19639 0.29618 0.96032 0.0
Cd71 Cd 0.22826 0.29738 0.93407 0.0
Cd72 Cd 0.28886 0.34145 0.96518 0.0
O73 O 0.24276 0.33725 0.98128 0.0
O74 O 0.19264 0.27891 0.90891 0.0
O75 O 0.24039 0.33764 0.9115 0.0
C76 C 0.21112 0.31258 0.90097 0.0
C77 C 0.34649 0.39316 0.97583 0.0
C78 C 0.20775 0.31599 0.9776 0.0
C79 C 0.27686 0.2658 0.94785 0.0
O80 O 0.29291 0.29377 0.96077 0.0
O81 O 0.25111 0.2625 0.93489 0.0
O82 O 0.32626 0.36612 0.98906 0.0
O83 O 0.33397 0.39147 0.95627 0.0
O84 O 0.00563 0.41551 0.37397 0.0
Cd85 Cd 0.01805 0.39509 0.4016 0.0
Cd86 Cd 0.05852 0.37559 0.36484 0.0
O87 O 0.03592 0.40332 0.34813 0.0
O88 O -0.00674 0.40864 0.42518 0.0
O89 O 0.05508 0.43281 0.42326 0.0
C90 C 0.02626 0.43105 0.43305 0.0
C91 C 0.10609 0.37233 0.3452 0.0
C92 C 0.01521 0.4167 0.3541 0.0
C93 C -0.00119 0.3141 0.39505 0.0
O94 O 0.02319 0.32511 0.37987 0.0
O95 O -0.0073 0.33742 0.40545 0.0
O96 O 0.07128 0.35371 0.33943 0.0
O97 O 0.11457 0.39381 0.36216 0.0
O98 O 0.59594 0.54589 0.3751 0.0
Cd99 Cd 0.61517 0.57757 0.40312 0.0
Cd100 Cd 0.64067 0.63808 0.37173 0.0
O101 O 0.61248 0.59223 0.35132 0.0
O102 O 0.58957 0.54136 0.42741 0.0
O103 O 0.57887 0.58818 0.41957 0.0
C104 C 0.57147 0.55903 0.43136 0.0
C105 C 0.64514 0.69424 0.35899 0.0
C106 C 0.59713 0.5572 0.35563 0.0
C107 C 0.69792 0.6301 0.40041 0.0
O108 O 0.69011 0.64714 0.38576 0.0
O109 O 0.67183 0.6013 0.40996 0.0
O110 O 0.66308 0.67956 0.34986 0.0
O111 O 0.62346 0.67649 0.37529 0.0
O112 O 0.42407 0.0365 0.3953 0.0
Cd113 Cd 0.38141 0.02676 0.4166 0.0
Cd114 Cd 0.33772 0.97456 0.38433 0.0
O115 O 0.39077 0.98575 0.37506 0.0
O116 O 0.40673 0.04673 0.4452 0.0
O117 O 0.36867 0.98572 0.43863 0.0
C118 C 0.39175 0.01213 0.45167 0.0
C119 C 0.2868 0.91602 0.37412 0.0
C120 C 0.42221 0.01438 0.38017 0.0
C121 C 0.33041 0.04453 0.39208 0.0
O122 O 0.32466 0.01658 0.3803 0.0
O123 O 0.35049 0.05259 0.40924 0.0
O124 O 0.30787 0.94068 0.35989 0.0
O125 O 0.2954 0.92377 0.39448 0.0
O126 O 0.37014 0.23394 0.271 0.0
Cd127 Cd 0.39006 0.26962 0.24459 0.0
Cd128 Cd 0.33901 0.29597 0.26745 0.0
O129 O 0.32868 0.24825 0.28444 0.0
O130 O 0.41458 0.24699 0.22685 0.0
O131 O 0.36579 0.25158 0.21513 0.0
C132 C 0.38982 0.24027 0.21188 0.0
C133 C 0.29529 0.31438 0.27801 0.0
C134 C 0.34461 0.2284 0.28474 0.0
C135 C 0.4253 0.34971 0.25927 0.0
O136 O 0.39272 0.3418 0.26595 0.0
O137 O 0.43071 0.32489 0.25013 0.0
O138 O 0.32012 0.31534 0.2912 0.0
O139 O 0.29516 0.30337 0.25826 0.0
O140 O 0.77934 0.11095 0.3146 0.0
Cd141 Cd 0.73655 0.0864 0.29191 0.0
Cd142 Cd 0.72127 0.02199 0.32064 0.0
O143 O 0.77135 0.06211 0.33419 0.0
O144 O 0.75229 0.12883 0.27078 0.0
O145 O 0.74739 0.07416 0.26174 0.0
C146 C 0.75612 0.10813 0.25631 0.0
C147 C 0.70818 0.95967 0.32428 0.0
C148 C 0.78969 0.09717 0.32994 0.0
C149 C 0.66283 0.04773 0.31582 0.0
O150 O 0.67446 0.02741 0.32484 0.0
O151 O 0.68265 0.07217 0.30148 0.0
O152 O 0.70943 0.9795 0.34087 0.0
O153 O 0.71485 0.97528 0.30524 0.0
O154 O 0.8856 0.6244 0.3013 0.0
Cd155 Cd 0.91018 0.6234 0.27223 0.0
Cd156 Cd 0.97971 0.66617 0.30169 0.0
O157 O 0.93597 0.65725 0.32211 0.0
O158 O 0.86828 0.60284 0.25047 0.0
O159 O 0.91648 0.66144 0.24924 0.0
C160 C 0.88491 0.63544 0.24113 0.0
C161 C 0.0387 0.71347 0.31446 0.0
C162 C 0.90039 0.63967 0.31949 0.0
C163 C 0.96226 0.59237 0.27773 0.0
O164 O 0.98285 0.62108 0.28945 0.0
O165 O 0.9316 0.58746 0.26954 0.0
O166 O 0.02039 0.68118 0.32387 0.0
O167 O 0.02341 0.71961 0.29767 0.0
O168 O 0.62309 0.72556 0.70209 0.0
Cd169 Cd 0.63264 0.69287 0.72379 0.0
Cd170 Cd 0.67321 0.68856 0.68704 0.0
O171 O 0.66225 0.72977 0.67599 0.0
O172 O 0.6151 0.70229 0.75223 0.0
O173 O 0.67502 0.72083 0.74533 0.0
C174 C 0.64987 0.72007 0.75843 0.0
C175 C 0.72962 0.69259 0.67552 0.0
C176 C 0.63923 0.73895 0.68391 0.0
C177 C 0.6034 0.61731 0.70303 0.0
O178 O 0.62877 0.63416 0.68863 0.0
O179 O 0.60131 0.63514 0.71949 0.0
O180 O 0.70275 0.68555 0.66204 0.0
O181 O 0.72496 0.69818 0.69576 0.0
O182 O 0.24613 0.90414 0.71373 0.0
Cd183 Cd 0.26423 0.93414 0.74243 0.0
Cd184 Cd 0.2846 -0.00246 0.71019 0.0
O185 O 0.26256 0.95086 0.69017 0.0
O186 O 0.24761 0.89422 0.76527 0.0
O187 O 0.22526 0.93349 0.76294 0.0
C188 C 0.22527 0.90536 0.77258 0.0
C189 C 0.28341 0.04882 0.69377 0.0
C190 C 0.2484 0.9159 0.69426 0.0
C191 C 0.34512 -0.00287 0.73966 0.0
O192 O 0.33455 0.01346 0.72606 0.0
O193 O 0.32161 0.96524 0.74771 0.0
O194 O 0.30596 0.03746 0.68735 0.0
O195 O 0.26087 0.03097 0.70972 0.0
O196 O 0.08722 0.37194 0.71257 0.0
Cd197 Cd 0.06534 0.37791 0.7415 0.0
Cd198 Cd -0.00368 0.33814 0.71441 0.0
O199 O 0.03655 0.34608 0.69156 0.0
O200 O 0.11023 0.39675 0.76097 0.0
O201 O 0.05689 0.34339 0.76706 0.0
C202 C 0.09134 0.36685 0.77265 0.0
C203 C 0.93698 0.28671 0.70589 0.0
C204 C 0.0718 0.35961 0.69409 0.0
C205 C 0.01832 0.41455 0.73558 0.0
O206 O -0.00543 0.38458 0.72577 0.0
O207 O 0.04929 0.41833 0.7426 0.0
O208 O 0.95101 0.31792 0.69527 0.0
O209 O 0.95648 0.28432 0.72176 0.0
O210 O 0.02874 0.5945 0.62184 0.0
Cd211 Cd 0.0427 0.62518 0.59333 0.0
Cd212 Cd -0.00062 0.65567 0.61768 0.0
O213 O 0.00266 0.62124 0.64111 0.0
O214 O 0.0669 0.60106 0.57658 0.0
O215 O 0.01627 0.60201 0.56482 0.0
C216 C 0.04117 0.59176 0.56191 0.0
C217 C 0.94857 0.66601 0.62375 0.0
C218 C 0.01436 0.59782 0.63952 0.0
C219 C 0.07971 0.70876 0.60101 0.0
O220 O 0.04827 0.70318 0.60835 0.0
O221 O 0.08391 0.68127 0.59509 0.0
O222 O 0.97838 0.68149 0.63568 0.0
O223 O 0.94731 0.64453 0.60794 0.0
O224 O 0.37885 0.4347 0.60689 0.0
Cd225 Cd 0.34325 0.41155 0.58071 0.0
Cd226 Cd 0.32138 0.34154 0.60985 0.0
O227 O 0.36859 0.38381 0.62515 0.0
O228 O 0.3639 0.45566 0.56058 0.0
O229 O 0.36404 0.4028 0.55288 0.0
C230 C 0.37362 0.43711 0.54767 0.0
C231 C 0.30786 0.28216 0.62308 0.0
C232 C 0.38657 0.41939 0.62258 0.0
C233 C 0.26364 0.36673 0.59619 0.0
O234 O 0.27341 0.34554 0.60604 0.0
O235 O 0.28715 0.39472 0.58486 0.0
O236 O 0.30427 0.306 0.63499 0.0
O237 O 0.31865 0.29149 0.60313 0.0
O238 O 0.53382 0.99355 0.64183 0.0
Cd239 Cd 0.55423 0.98066 0.61442 0.0
Cd240 Cd 0.62657 0.02798 0.64275 0.0
O241 O 0.58537 0.0298 0.66096 0.0
O242 O 0.50739 0.95461 0.59632 0.0
O243 O 0.55801 0.0075 0.58601 0.0
C244 C 0.52356 0.98147 0.58227 0.0
C245 C 0.68686 0.07622 0.65287 0.0
C246 C 0.54986 0.01372 0.65853 0.0
C247 C 0.60216 0.94666 0.62726 0.0
O248 O 0.62406 0.97719 0.63725 0.0
O249 O 0.5731 0.94245 0.61716 0.0
O250 O 0.66628 0.0487 0.66573 0.0
O251 O 0.67366 0.07641 0.63375 0.0
C252 C 0.46329 0.01759 0.98752 0.0
C253 C 0.42518 -0.00037 0.98144 0.0
C254 C 0.48798 0.00717 0.97798 0.0
C255 C 0.47394 0.97756 0.96239 0.0
C256 C 0.43587 0.96046 0.95553 0.0
C257 C 0.41202 0.97195 0.965 0.0
C258 C 0.52868 0.02663 0.98536 0.0
C259 C 0.41968 0.92841 0.93923 0.0
C260 C 0.5462 0.96264 0.93156 0.0
C261 C 0.54961 0.9374 0.94554 0.0
C262 C 0.52073 0.97532 0.9364 0.0
C263 C 0.49787 0.96161 0.95533 0.0
C264 C 0.49955 0.93405 0.96857 0.0
C265 C 0.52589 0.92277 0.9637 0.0
C266 C 0.52014 0.00514 0.92212 0.0
C267 C 0.4749 0.91789 0.98855 0.0
H268 H 0.47364 0.03924 1.00005 0.0
H269 H 0.38254 0.95791 0.96023 0.0
H270 H 0.53373 0.00671 0.99515 0.0
H271 H 0.54783 0.03526 0.97103 0.0
H272 H 0.53622 0.052 0.99548 0.0
H273 H 0.39087 0.92109 0.93379 0.0
H274 H 0.4382 0.93571 0.92469 0.0
H275 H 0.41818 0.90298 0.94679 0.0
H276 H 0.56518 0.97438 0.91775 0.0
H277 H 0.52885 0.90334 0.9745 0.0
H278 H 0.53283 0.03231 0.93116 0.0
H279 H 0.49071 -0.0026 0.91799 0.0
H280 H 0.53623 0.00957 0.90673 0.0
H281 H 0.48344 0.94024 0.00115 0.0
H282 H 0.477 0.89403 0.99576 0.0
H283 H 0.44492 0.9078 0.98438 0.0
C284 C 0.9087 0.38319 0.01012 0.0
C285 C 0.92057 0.37958 0.03099 0.0
C286 C 0.91693 0.41861 0.00205 0.0
C287 C 0.93887 0.45127 0.01487 0.0
C288 C 0.94994 0.44758 0.03627 0.0
C289 C 0.94007 0.41154 0.04423 0.0
C290 C 0.90337 0.42121 0.9795 0.0
C291 C 0.97413 0.48182 0.05021 0.0
C292 C -0.00331 0.54261 0.98327 0.0
C293 C 0.97626 0.56114 0.9871 0.0
C294 C 0.98523 0.50709 0.99262 0.0
C295 C 0.95186 0.48931 0.00541 0.0
C296 C 0.9307 0.50764 0.00886 0.0
C297 C 0.94353 0.54365 0.99995 0.0
C298 C 0.00903 0.48878 0.98904 0.0
C299 C 0.89431 0.48906 0.02173 0.0
H300 H 0.89366 0.35831 0.99991 0.0
H301 H 0.94975 0.40866 0.06023 0.0
H302 H 0.88958 0.43871 0.97988 0.0
H303 H 0.92781 0.43517 0.96824 0.0
H304 H 0.88308 0.39295 0.97274 0.0
H305 H 0.97877 0.47402 0.06685 0.0
H306 H 0.00201 0.49924 0.04226 0.0
H307 H 0.96093 0.49973 0.05174 0.0
H308 H 0.02215 0.55633 0.97346 0.0
H309 H 0.92753 0.55791 0.00274 0.0
H310 H -0.00753 0.46174 0.9801 0.0
H311 H 0.01719 0.48207 0.00501 0.0
H312 H 0.0351 0.50714 0.97959 0.0
H313 H 0.87418 0.46143 0.01425 0.0
H314 H 0.88071 0.50676 0.02242 0.0
H315 H 0.89974 0.48335 0.03866 0.0
C316 C 0.41473 0.4387 0.96926 0.0
C317 C 0.38331 0.42414 0.9831 0.0
C318 C 0.45087 0.46472 0.97714 0.0
C319 C 0.45517 0.47719 0.99911 0.0
C320 C 0.42313 0.46364 0.01282 0.0
C321 C 0.38767 0.43675 0.00474 0.0
C322 C 0.48454 0.4779 0.96222 0.0
C323 C 0.42635 0.47725 0.03609 0.0
C324 C 0.54931 0.51737 0.02864 0.0
C325 C 0.56356 0.55623 0.02617 0.0
C326 C 0.51449 0.49119 0.01929 0.0
C327 C 0.4931 0.50439 0.00789 0.0
C328 C 0.50728 0.54367 0.00562 0.0
C329 C 0.54261 0.56909 0.01452 0.0
C330 C 0.5006 0.44946 0.02157 0.0
C331 C 0.48482 0.55885 0.9942 0.0
H332 H 0.4113 0.42845 0.95261 0.0
H333 H 0.36322 0.42546 0.01538 0.0
H334 H 0.49975 0.50914 0.96079 0.0
H335 H 0.50464 0.46995 0.96927 0.0
H336 H 0.47638 0.46552 0.94559 0.0
H337 H 0.39836 0.4656 0.04414 0.0
H338 H 0.44391 0.46883 0.04577 0.0
H339 H 0.4406 0.50857 0.03648 0.0
H340 H 0.5657 0.50747 0.03749 0.0
H341 H 0.55352 0.59922 0.01275 0.0
H342 H 0.49399 0.43587 0.00523 0.0
H343 H 0.47412 0.43578 0.03124 0.0
H344 H 0.52166 0.44391 0.02971 0.0
H345 H 0.47862 0.54836 0.97714 0.0
H346 H 0.49991 0.59024 0.9939 0.0
H347 H 0.45731 0.54854 0.00258 0.0
C348 C 0.12291 0.33434 0.32087 0.0
C349 C 0.13455 0.36733 0.33315 0.0
C350 C 0.14922 0.32743 0.31028 0.0
C351 C 0.18808 0.35464 0.31155 0.0
C352 C 0.19992 0.38881 0.32312 0.0
C353 C 0.17298 0.39453 0.3341 0.0
C354 C 0.13551 0.29017 0.29867 0.0
C355 C 0.24108 0.41884 0.32437 0.0
C356 C 0.25676 0.31823 0.30799 0.0
C357 C 0.26752 0.32454 0.28598 0.0
C358 C 0.23096 0.32795 0.31644 0.0
C359 C 0.21636 0.34544 0.30268 0.0
C360 C 0.22754 0.35245 0.28047 0.0
C361 C 0.25265 0.34131 0.27225 0.0
C362 C 0.21888 0.31889 0.34004 0.0
C363 C 0.2132 0.37189 0.26549 0.0
H364 H 0.0932 0.31314 0.32018 0.0
H365 H 0.18197 0.42022 0.34341 0.0
H366 H 0.14622 0.29497 0.28165 0.0
H367 H 0.14667 0.27369 0.30708 0.0
H368 H 0.10419 0.27289 0.29824 0.0
H369 H 0.24513 0.4455 0.33171 0.0
H370 H 0.25666 0.40848 0.33441 0.0
H371 H 0.25387 0.42506 0.30782 0.0
H372 H 0.26809 0.305 0.31859 0.0
H373 H 0.26132 0.34651 0.25528 0.0
H374 H 0.18778 0.30023 0.34098 0.0
H375 H 0.22608 0.34518 0.34907 0.0
H376 H 0.23251 0.30465 0.34842 0.0
H377 H 0.18208 0.3545 0.2638 0.0
H378 H 0.22606 0.37695 0.24897 0.0
H379 H 0.21945 0.39941 0.27263 0.0
C380 C 0.62595 0.74364 0.35703 0.0
C381 C 0.65126 0.73126 0.35154 0.0
C382 C 0.63303 0.77971 0.35076 0.0
C383 C 0.66666 0.80412 0.33928 0.0
C384 C 0.69191 0.79141 0.33337 0.0
C385 C 0.68367 0.75499 0.33936 0.0
C386 C 0.60507 0.79207 0.35691 0.0
C387 C 0.7285 0.81688 0.32162 0.0
C388 C 0.67981 0.89295 0.31115 0.0
C389 C 0.69881 0.92016 0.32738 0.0
C390 C 0.66838 0.85477 0.31491 0.0
C391 C 0.6772 0.84401 0.3351 0.0
C392 C 0.69717 0.87165 0.3513 0.0
C393 C 0.70727 0.90929 0.34734 0.0
C394 C 0.64643 0.82588 0.29747 0.0
C395 C 0.70806 0.86152 0.3728 0.0
H396 H 0.60073 0.72523 0.36628 0.0
H397 H 0.70345 0.74562 0.33516 0.0
H398 H 0.61779 0.81491 0.36929 0.0
H399 H 0.59802 0.80373 0.34243 0.0
H400 H 0.57855 0.76848 0.36372 0.0
H401 H 0.74414 0.80203 0.31726 0.0
H402 H 0.72299 0.82822 0.30646 0.0
H403 H 0.74689 0.8414 0.33216 0.0
H404 H 0.6729 0.90135 0.29581 0.0
H405 H 0.72215 0.93039 0.35986 0.0
H406 H 0.61892 0.80383 0.30416 0.0
H407 H 0.66207 0.81151 0.29225 0.0
H408 H 0.64106 0.83872 0.28289 0.0
H409 H 0.68236 0.84089 0.38175 0.0
H410 H 0.72444 0.88661 0.38342 0.0
H411 H 0.7253 0.84788 0.36982 0.0
C412 C 0.09749 0.73036 0.33507 0.0
C413 C 0.07603 0.74201 0.32289 0.0
C414 C 0.13262 0.75674 0.34383 0.0
C415 C 0.14615 0.79575 0.34077 0.0
C416 C 0.12456 0.80772 0.32851 0.0
C417 C 0.08988 0.78061 0.31944 0.0
C418 C 0.15529 0.74287 0.35627 0.0
C419 C 0.13785 0.84915 0.32522 0.0
C420 C 0.21976 0.86606 0.38004 0.0
C421 C 0.25222 0.88176 0.36699 0.0
C422 C 0.18498 0.83762 0.3718 0.0
C423 C 0.18306 0.82409 0.35026 0.0
C424 C 0.21626 0.83846 0.33749 0.0
C425 C 0.25037 0.8675 0.34592 0.0
C426 C 0.15003 0.82334 0.38576 0.0
C427 C 0.21557 0.82396 0.3147 0.0
H428 H 0.08696 0.70045 0.3376 0.0
H429 H 0.07319 0.78963 0.31014 0.0
H430 H 0.18358 0.75414 0.3487 0.0
H431 H 0.1598 0.75342 0.37332 0.0
H432 H 0.1412 0.71153 0.35663 0.0
H433 H 0.11727 0.85376 0.31577 0.0
H434 H 0.14255 0.86338 0.3413 0.0
H435 H 0.16524 0.86297 0.31644 0.0
H436 H 0.22111 0.87741 0.39623 0.0
H437 H 0.27555 0.87959 0.33585 0.0
H438 H 0.13568 0.79214 0.38729 0.0
H439 H 0.12982 0.83029 0.37784 0.0
H440 H 0.15652 0.83588 0.4024 0.0
H441 H 0.2019 0.79267 0.31481 0.0
H442 H 0.24435 0.83587 0.30767 0.0
H443 H 0.19861 0.83148 0.30382 0.0
C444 C 0.87941 0.64317 0.62568 0.0
C445 C 0.91675 0.67204 0.62888 0.0
C446 C 0.8491 0.64729 0.63303 0.0
C447 C 0.85646 0.68151 0.64319 0.0
C448 C 0.89414 0.71133 0.64554 0.0
C449 C 0.92385 0.706 0.63866 0.0
C450 C 0.80931 0.61458 0.63065 0.0
C451 C 0.90311 0.74865 0.65565 0.0
C452 C 0.77522 0.70137 0.64605 0.0
C453 C 0.76376 0.69247 0.66786 0.0
C454 C 0.80592 0.69877 0.63792 0.0
C455 C 0.82484 0.68587 0.6518 0.0
C456 C 0.8135 0.67705 0.6739 0.0
C457 C 0.78338 0.681 0.68177 0.0
C458 C 0.81794 0.7096 0.61447 0.0
C459 C 0.83253 0.6625 0.68907 0.0
H460 H 0.87398 0.61677 0.61831 0.0
H461 H 0.95279 0.72844 0.64102 0.0
H462 H 0.79623 0.60538 0.64703 0.0
H463 H 0.79181 0.62348 0.6213 0.0
H464 H 0.80836 0.59002 0.62224 0.0
H465 H 0.93371 0.76984 0.65485 0.0
H466 H 0.88711 0.76031 0.6472 0.0
H467 H 0.89425 0.74441 0.67302 0.0
H468 H 0.76014 0.71042 0.63531 0.0
H469 H 0.77425 0.67374 0.69858 0.0
H470 H 0.81421 0.6846 0.60523 0.0
H471 H 0.84837 0.73123 0.61376 0.0
H472 H 0.8015 0.72095 0.60619 0.0
H473 H 0.83023 0.63623 0.68227 0.0
H474 H 0.81996 0.65639 0.70569 0.0
H475 H 0.86305 0.68351 0.69047 0.0
C476 C 0.29158 0.21451 0.61954 0.0
C477 C 0.30114 0.24616 0.63264 0.0
C478 C 0.28534 0.18042 0.62891 0.0
C479 C 0.28991 0.17853 0.65175 0.0
C480 C 0.29952 0.21047 0.66498 0.0
C481 C 0.30453 0.24371 0.65529 0.0
C482 C 0.27426 0.1466 0.61439 0.0
C483 C 0.30574 0.20998 0.68929 0.0
C484 C 0.25221 0.08553 0.68234 0.0
C485 C 0.28434 0.08164 0.68311 0.0
C486 C 0.25312 0.11629 0.67144 0.0
C487 C 0.28727 0.14416 0.66176 0.0
C488 C 0.31983 0.14039 0.6627 0.0
C489 C 0.3178 0.10891 0.67311 0.0
C490 C 0.21766 0.11902 0.67031 0.0
C491 C 0.35708 0.17004 0.65316 0.0
H492 H 0.28864 0.2163 0.60205 0.0
H493 H 0.31217 0.26824 0.66545 0.0
H494 H 0.29715 0.13949 0.61423 0.0
H495 H 0.24857 0.12162 0.62089 0.0
H496 H 0.26872 0.15171 0.59732 0.0
H497 H 0.31249 0.23706 0.6973 0.0
H498 H 0.28022 0.1868 0.69715 0.0
H499 H 0.32937 0.20451 0.69235 0.0
H500 H 0.22623 0.06421 0.68988 0.0
H501 H 0.34275 0.10602 0.6738 0.0
H502 H 0.21134 0.1223 0.65307 0.0
H503 H 0.22187 0.14441 0.6793 0.0
H504 H 0.19284 0.09376 0.67735 0.0
H505 H 0.35383 0.17365 0.63548 0.0
H506 H 0.37969 0.16274 0.65525 0.0
H507 H 0.36628 0.19769 0.66115 0.0
C508 C 0.72937 0.11561 0.68272 0.0
C509 C 0.72383 0.10676 0.66042 0.0
C510 C 0.76409 0.14443 0.69056 0.0
C511 C 0.79436 0.16408 0.6758 0.0
C512 C 0.78915 0.1548 0.65327 0.0
C513 C 0.75363 0.12657 0.64576 0.0
C514 C 0.76814 0.15432 0.71457 0.0
C515 C 0.82112 0.17456 0.63716 0.0
C516 C 0.87248 0.26229 0.69098 0.0
C517 C 0.89997 0.25491 0.69951 0.0
C518 C 0.83778 0.23289 0.6835 0.0
C519 C 0.83097 0.19535 0.6839 0.0
C520 C 0.85875 0.18773 0.69243 0.0
C521 C 0.8928 0.21766 0.7005 0.0
C522 C 0.80839 0.24201 0.67523 0.0
C523 C 0.85279 0.14815 0.6926 0.0
H524 H 0.70619 0.10044 0.69404 0.0
H525 H 0.74938 0.11944 0.62854 0.0
H526 H 0.79105 0.15083 0.72188 0.0
H527 H 0.77611 0.18441 0.71662 0.0
H528 H 0.74167 0.1365 0.72382 0.0
H529 H 0.81306 0.16249 0.62046 0.0
H530 H 0.83011 0.20504 0.6364 0.0
H531 H 0.8459 0.17244 0.64262 0.0
H532 H 0.87806 0.29117 0.69031 0.0
H533 H 0.91435 0.21211 0.70684 0.0
H534 H 0.78166 0.22546 0.68445 0.0
H535 H 0.8021 0.23387 0.6578 0.0
H536 H 0.81765 0.27253 0.6768 0.0
H537 H 0.82769 0.12937 0.7026 0.0
H538 H 0.8776 0.14716 0.69922 0.0
H539 H 0.84719 0.13657 0.67575 0.0
C540 C 0.38722 0.1256 0.10401 0.0
C541 C 0.35261 0.09166 0.1038 0.0
C542 C 0.39638 0.15168 0.12116 0.0
C543 C 0.3707 0.143 0.13868 0.0
C544 C 0.33649 0.10795 0.13896 0.0
C545 C 0.32764 0.08296 0.12136 0.0
C546 C 0.43275 0.18907 0.12009 0.0
C547 C 0.30884 0.09714 0.15764 0.0
C548 C 0.40358 0.19452 0.19285 0.0
C549 C 0.38773 0.21808 0.19232 0.0
C550 C 0.39901 0.17052 0.1753 0.0
C551 C 0.37887 0.17075 0.15655 0.0
C552 C 0.36424 0.19571 0.15552 0.0
C553 C 0.36841 0.21875 0.17356 0.0
C554 C 0.41427 0.14372 0.17724 0.0
C555 C 0.34332 0.19737 0.13559 0.0
H556 H 0.40635 0.13253 0.0903 0.0
H557 H 0.30092 0.05662 0.12124 0.0
H558 H 0.4263 0.2124 0.11907 0.0
H559 H 0.44956 0.19361 0.13517 0.0
H560 H 0.45029 0.19092 0.10577 0.0
H561 H 0.28482 0.06778 0.15608 0.0
H562 H 0.32336 0.09973 0.17341 0.0
H563 H 0.29741 0.11669 0.15826 0.0
H564 H 0.41834 0.19371 0.20738 0.0
H565 H 0.35634 0.23711 0.17304 0.0
H566 H 0.43233 0.14679 0.16299 0.0
H567 H 0.39047 0.11414 0.17727 0.0
H568 H 0.43104 0.14851 0.1924 0.0
H569 H 0.36022 0.20116 0.12065 0.0
H570 H 0.3369 0.22075 0.13654 0.0
H571 H 0.31635 0.17033 0.13382 0.0
C572 C 0.8328 0.20199 0.1382 0.0
C573 C 0.86596 0.20118 0.13358 0.0
C574 C 0.81287 0.18654 0.15772 0.0
C575 C 0.82721 0.17109 0.17321 0.0
C576 C 0.86131 0.17125 0.16883 0.0
C577 C 0.87992 0.18572 0.1489 0.0
C578 C 0.77612 0.186 0.16156 0.0
C579 C 0.8782 0.15619 0.1852 0.0
C580 C 0.79656 0.16308 0.23244 0.0
C581 C 0.77228 0.12402 0.23466 0.0
C582 C 0.81439 0.17881 0.21249 0.0
C583 C 0.80688 0.15502 0.19414 0.0
C584 C 0.78135 0.11567 0.1961 0.0
C585 C 0.76481 0.10053 0.21647 0.0
C586 C 0.84226 0.22069 0.21128 0.0
C587 C 0.77185 0.08955 0.17674 0.0
H588 H 0.82177 0.21356 0.12623 0.0
H589 H 0.90568 0.18525 0.14537 0.0
H590 H 0.75299 0.15647 0.16403 0.0
H591 H 0.77801 0.20191 0.17664 0.0
H592 H 0.76847 0.19848 0.14772 0.0
H593 H 0.90576 0.15993 0.17969 0.0
H594 H 0.8824 0.17082 0.2011 0.0
H595 H 0.85856 0.12566 0.18806 0.0
H596 H 0.80269 0.1813 0.24654 0.0
H597 H 0.74588 0.07035 0.21813 0.0
H598 H 0.83386 0.23396 0.19829 0.0
H599 H 0.87062 0.22529 0.20692 0.0
H600 H 0.84452 0.23536 0.22697 0.0
H601 H 0.76263 0.10031 0.16276 0.0
H602 H 0.74919 0.06028 0.18053 0.0
H603 H 0.79734 0.08865 0.17145 0.0
C604 C 0.84872 0.61425 0.20637 0.0
C605 C 0.86744 0.64262 0.22203 0.0
C606 C 0.83045 0.6198 0.18854 0.0
C607 C 0.82958 0.65395 0.18687 0.0
C608 C 0.84816 0.68256 0.20282 0.0
C609 C 0.86755 0.67682 0.22002 0.0
C610 C 0.81227 0.5892 0.17143 0.0
C611 C 0.84682 0.71882 0.20199 0.0
C612 C 0.81079 0.68338 0.13157 0.0
C613 C 0.77167 0.66894 0.13231 0.0
C614 C 0.82992 0.67841 0.14914 0.0
C615 C 0.80963 0.65982 0.16824 0.0
C616 C 0.7702 0.64603 0.16928 0.0
C617 C 0.75151 0.65008 0.15108 0.0
C618 C 0.87166 0.69224 0.14703 0.0
C619 C 0.74783 0.62716 0.18963 0.0
H620 H 0.84879 0.58783 0.20795 0.0
H621 H 0.88164 0.69852 0.23234 0.0
H622 H 0.78139 0.57823 0.17097 0.0
H623 H 0.82361 0.60101 0.15504 0.0
H624 H 0.81716 0.56518 0.17458 0.0
H625 H 0.86157 0.73763 0.21608 0.0
H626 H 0.86005 0.73436 0.1867 0.0
H627 H 0.817 0.71232 0.20189 0.0
H628 H 0.8263 0.69763 0.11693 0.0
H629 H 0.72128 0.63913 0.15165 0.0
H630 H 0.8769 0.66828 0.14931 0.0
H631 H 0.88758 0.71327 0.15997 0.0
H632 H 0.88308 0.70541 0.13088 0.0
H633 H 0.74822 0.60061 0.19276 0.0
H634 H 0.71796 0.62034 0.18833 0.0
H635 H 0.76094 0.64581 0.20399 0.0
C636 C 0.66877 0.85948 0.85322 0.0
C637 C 0.68917 0.85923 0.87155 0.0
C638 C 0.66514 0.83746 0.83475 0.0
C639 C 0.6813 0.81377 0.83493 0.0
C640 C 0.70201 0.81352 0.85341 0.0
C641 C 0.70615 0.83667 0.87137 0.0
C642 C 0.64366 0.83924 0.81513 0.0
C643 C 0.71874 0.7879 0.85451 0.0
C644 C 0.63465 0.72974 0.79645 0.0
C645 C 0.66037 0.74164 0.77908 0.0
C646 C 0.64192 0.75227 0.81513 0.0
C647 C 0.67515 0.78814 0.81614 0.0
C648 C 0.70165 0.79993 0.79882 0.0
C649 C 0.69417 0.77624 0.78061 0.0
C650 C 0.61354 0.73811 0.83354 0.0
C651 C 0.73696 0.83831 0.79904 0.0
H652 H 0.65579 0.87703 0.85327 0.0
H653 H 0.72165 0.83612 0.88561 0.0
H654 H 0.66113 0.84544 0.80018 0.0
H655 H 0.61777 0.81146 0.81267 0.0
H656 H 0.63529 0.86114 0.81695 0.0
H657 H 0.73472 0.79165 0.86988 0.0
H658 H 0.69585 0.75797 0.85337 0.0
H659 H 0.73797 0.79337 0.84049 0.0
H660 H 0.60852 0.70293 0.7953 0.0
H661 H 0.71385 0.78571 0.76705 0.0
H662 H 0.6002 0.75594 0.83484 0.0
H663 H 0.62785 0.74024 0.84932 0.0
H664 H 0.59093 0.7083 0.83109 0.0
H665 H 0.72906 0.86066 0.79892 0.0
H666 H 0.75544 0.84261 0.78475 0.0
H667 H 0.75335 0.84203 0.81419 0.0
C668 C 0.10255 0.8203 0.88089 0.0
C669 C 0.08021 0.78083 0.87976 0.0
C670 C 0.12541 0.84125 0.86331 0.0
C671 C 0.1251 0.82237 0.84387 0.0
C672 C 0.10164 0.7826 0.84236 0.0
C673 C 0.07989 0.76219 0.86049 0.0
C674 C 0.15085 0.88343 0.86584 0.0
C675 C 0.09985 0.76161 0.82169 0.0
C676 C 0.16456 0.88277 0.79279 0.0
C677 C 0.2001 0.88565 0.79118 0.0
C678 C 0.13947 0.86165 0.80964 0.0
C679 C 0.15079 0.84409 0.82557 0.0
C680 C 0.18708 0.84779 0.82427 0.0
C681 C 0.21104 0.86802 0.80689 0.0
C682 C 0.10067 0.85755 0.8102 0.0
C683 C 0.2007 0.83053 0.84129 0.0
H684 H 0.10315 0.83479 0.89586 0.0
H685 H 0.06248 0.73169 0.85955 0.0
H686 H 0.18079 0.8908 0.86408 0.0
H687 H 0.14494 0.89861 0.85279 0.0
H688 H 0.14735 0.89386 0.88193 0.0
H689 H 0.07799 0.73121 0.82256 0.0
H690 H 0.09363 0.77454 0.8075 0.0
H691 H 0.12763 0.7638 0.81863 0.0
H692 H 0.15593 0.89606 0.7805 0.0
H693 H 0.23862 0.87039 0.8057 0.0
H694 H 0.09677 0.86939 0.82564 0.0
H695 H 0.07878 0.82717 0.80978 0.0
H696 H 0.09585 0.87209 0.79627 0.0
H697 H 0.19916 0.84103 0.85776 0.0
H698 H 0.23022 0.83719 0.83831 0.0
H699 H 0.18218 0.79938 0.84144 0.0
C700 C 0.17911 0.29511 0.86476 0.0
C701 C 0.1974 0.32229 0.88109 0.0
C702 C 0.163 0.30271 0.84659 0.0
C703 C 0.16401 0.33782 0.8452 0.0
C704 C 0.18265 0.36545 0.86165 0.0
C705 C 0.19973 0.35757 0.87924 0.0
C706 C 0.14461 0.27305 0.82901 0.0
C707 C 0.18342 0.4028 0.86105 0.0
C708 C 0.14822 0.37161 0.79052 0.0
C709 C 0.1095 0.35934 0.79131 0.0
C710 C 0.1662 0.36429 0.8078 0.0
C711 C 0.14519 0.34543 0.82665 0.0
C712 C 0.10615 0.33352 0.82768 0.0
C713 C 0.08858 0.34002 0.80978 0.0
C714 C 0.20751 0.37624 0.80574 0.0
C715 C 0.08306 0.31427 0.84776 0.0
H716 H 0.17742 0.26784 0.8662 0.0
H717 H 0.21344 0.37838 0.89206 0.0
H718 H 0.11389 0.26291 0.82839 0.0
H719 H 0.15651 0.28542 0.81279 0.0
H720 H 0.14858 0.24837 0.83179 0.0
H721 H 0.19889 0.42113 0.87518 0.0
H722 H 0.19699 0.4182 0.84578 0.0
H723 H 0.1541 0.39778 0.86111 0.0
H724 H 0.16432 0.38621 0.7761 0.0
H725 H 0.05868 0.33073 0.81041 0.0
H726 H 0.2113 0.35132 0.80777 0.0
H727 H 0.22399 0.39659 0.81887 0.0
H728 H 0.21949 0.3896 0.78971 0.0
H729 H 0.0825 0.28717 0.85056 0.0
H730 H 0.0535 0.3084 0.84635 0.0
H731 H 0.09625 0.33225 0.86235 0.0
C732 C 0.06286 0.48989 0.45522 0.0
C733 C 0.03041 0.45451 0.45236 0.0
C734 C 0.06554 0.51351 0.47266 0.0
C735 C 0.03552 0.50088 0.48789 0.0
C736 C 0.00316 0.4647 0.48535 0.0
C737 C 0.00078 0.4422 0.46743 0.0
C738 C 0.10012 0.55224 0.47456 0.0
C739 C 0.97103 0.44972 0.50156 0.0
C740 C 0.05642 0.54616 0.54411 0.0
C741 C 0.04005 0.56919 0.54276 0.0
C742 C 0.05512 0.52378 0.52639 0.0
C743 C 0.03793 0.52525 0.50661 0.0
C744 C 0.02201 0.54906 0.505 0.0
C745 C 0.02277 0.57036 0.52323 0.0
C746 C 0.07143 0.49798 0.52898 0.0
C747 C 0.0042 0.55202 0.48403 0.0
H748 H 0.08562 0.49959 0.44344 0.0
H749 H 0.97572 0.41475 0.4653 0.0
H750 H 0.09165 0.57417 0.47425 0.0
H751 H 0.11447 0.55496 0.49039 0.0
H752 H 0.12064 0.55808 0.46116 0.0
H753 H 0.94855 0.4204 0.49769 0.0
H754 H 0.9818 0.4501 0.51826 0.0
H755 H 0.95827 0.46814 0.50177 0.0
H756 H 0.06955 0.54495 0.55926 0.0
H757 H 0.01033 0.58835 0.52211 0.0
H758 H 0.0938 0.50493 0.51662 0.0
H759 H 0.04908 0.46823 0.52615 0.0
H760 H 0.08369 0.50007 0.54548 0.0
H761 H 0.02453 0.55966 0.47034 0.0
H762 H -0.00496 0.57341 0.48506 0.0
H763 H 0.97926 0.52426 0.48001 0.0
C764 C 0.54615 0.52752 0.46705 0.0
C765 C 0.54203 0.54488 0.44835 0.0
C766 C 0.51737 0.51131 0.48271 0.0
C767 C 0.4831 0.51129 0.47916 0.0
C768 C 0.47882 0.52889 0.46028 0.0
C769 C 0.50869 0.54608 0.44524 0.0
C770 C 0.52356 0.49398 0.50298 0.0
C771 C 0.44235 0.52852 0.45566 0.0
C772 C 0.40047 0.43524 0.51122 0.0
C773 C 0.39829 0.45613 0.52874 0.0
C774 C 0.42661 0.4532 0.49426 0.0
C775 C 0.45191 0.49271 0.4953 0.0
C776 C 0.44921 0.51397 0.51273 0.0
C777 C 0.42205 0.49549 0.52906 0.0
C778 C 0.42792 0.42975 0.47559 0.0
C779 C 0.47633 0.55592 0.5148 0.0
H780 H 0.57204 0.52673 0.46946 0.0
H781 H 0.50537 0.55909 0.43059 0.0
H782 H 0.51837 0.50637 0.5178 0.0
H783 H 0.50323 0.46316 0.50329 0.0
H784 H 0.55264 0.49838 0.50387 0.0
H785 H 0.44364 0.54363 0.4403 0.0
H786 H 0.41886 0.49888 0.45435 0.0
H787 H 0.43543 0.54182 0.46934 0.0
H788 H 0.382 0.40484 0.51089 0.0
H789 H 0.42071 0.51171 0.5427 0.0
H790 H 0.45443 0.42857 0.47646 0.0
H791 H 0.42792 0.44292 0.45973 0.0
H792 H 0.40366 0.40037 0.47589 0.0
H793 H 0.50542 0.56099 0.51727 0.0
H794 H 0.46916 0.56868 0.52869 0.0
H795 H 0.47653 0.57074 0.49958 0.0
C796 C 0.52121 0.00332 0.54435 0.0
C797 C 0.50232 0.98309 0.56311 0.0
C798 C 0.50103 0.00562 0.52637 0.0
C799 C 0.46112 0.98821 0.52748 0.0
C800 C 0.44196 0.96783 0.54644 0.0
C801 C 0.46276 0.96509 0.56389 0.0
C802 C 0.52241 0.02684 0.50622 0.0
C803 C 0.3996 0.94973 0.54851 0.0
C804 C 0.41807 0.02989 0.48934 0.0
C805 C 0.40427 0.00331 0.47238 0.0
C806 C 0.43516 0.02447 0.50783 0.0
C807 C 0.43962 0.99228 0.50903 0.0
C808 C 0.42481 0.96483 0.49219 0.0
C809 C 0.40681 0.97043 0.47419 0.0
C810 C 0.44948 0.0538 0.52575 0.0
C811 C 0.42967 0.93053 0.49265 0.0
H812 H 0.55176 0.0171 0.54365 0.0
H813 H 0.44805 0.94971 0.57847 0.0
H814 H 0.5109 0.00847 0.49161 0.0
H815 H 0.51877 0.05171 0.50361 0.0
H816 H 0.5531 0.03678 0.50745 0.0
H817 H 0.38896 0.93463 0.56428 0.0
H818 H 0.39128 0.97171 0.54718 0.0
H819 H 0.38543 0.92938 0.53499 0.0
H820 H 0.41607 0.05531 0.48798 0.0
H821 H 0.39662 0.95009 0.46094 0.0
H822 H 0.48077 0.06845 0.52637 0.0
H823 H 0.43884 0.04006 0.54185 0.0
H824 H 0.44074 0.0753 0.52328 0.0
H825 H 0.46018 0.93965 0.49189 0.0
H826 H 0.41508 0.91102 0.47879 0.0
H827 H 0.41858 0.91478 0.50816 0.0
C828 C 0.26318 0.88395 0.02819 0.0
C829 C 0.25948 0.91018 0.0412 0.0
C830 C 0.23151 0.84943 0.02254 0.0
C831 C 0.19546 0.84126 0.03002 0.0
C832 C 0.19246 0.86508 0.04572 0.0
C833 C 0.22469 0.89945 0.05119 0.0
C834 C 0.23611 0.82428 0.00625 0.0
C835 C 0.15462 0.85671 0.05459 0.0
C836 C 0.12172 0.80234 0.98548 0.0
C837 C 0.10128 0.76373 0.99054 0.0
C838 C 0.15169 0.82773 0.99861 0.0
C839 C 0.1616 0.81431 0.01739 0.0
C840 C 0.14051 0.77559 0.02303 0.0
C841 C 0.1106 0.75063 0.00945 0.0
C842 C 0.17334 0.86891 0.99199 0.0
C843 C 0.15014 0.76024 0.04294 0.0
H844 H 0.29028 0.89173 0.02089 0.0
H845 H 0.22175 0.91936 0.06155 0.0
H846 H 0.21767 0.79406 0.01048 0.0
H847 H 0.22768 0.82888 0.9898 0.0
H848 H 0.26583 0.83048 0.00538 0.0
H849 H 0.15771 0.8726 0.06991 0.0
H850 H 0.1402 0.86514 0.04231 0.0
H851 H 0.13626 0.82605 0.05779 0.0
H852 H 0.11465 0.81285 0.97101 0.0
H853 H 0.09489 0.72083 0.01353 0.0
H854 H 0.20317 0.87737 0.98848 0.0
H855 H 0.17339 0.88696 0.00555 0.0
H856 H 0.16123 0.87483 0.97727 0.0
H857 H 0.17504 0.75712 0.03931 0.0
H858 H 0.12642 0.73211 0.04776 0.0
H859 H 0.1576 0.77985 0.05699 0.0
C860 C 0.04512 0.276 0.06338 0.0
C861 C 0.03098 0.30007 0.05823 0.0
C862 C 0.07873 0.28146 0.05387 0.0
C863 C 0.09838 0.31166 0.03902 0.0
C864 C 0.08652 0.33846 0.03582 0.0
C865 C 0.05295 0.33237 0.04553 0.0
C866 C 0.09095 0.25271 0.05801 0.0
C867 C 0.10694 0.37133 0.02031 0.0
C868 C 0.19189 0.33322 0.01378 0.0
C869 C 0.17993 0.31423 0.99369 0.0
C870 C 0.16568 0.33199 0.02905 0.0
C871 C 0.12674 0.31152 0.02398 0.0
C872 C 0.1145 0.29195 0.00386 0.0
C873 C 0.14123 0.29347 0.989 0.0
C874 C 0.17964 0.35298 0.0504 0.0
C875 C 0.07312 0.26989 0.99782 0.0
H876 H 0.02846 0.25116 0.07335 0.0
H877 H 0.04252 0.35151 0.04184 0.0
H878 H 0.08267 0.23314 0.04387 0.0
H879 H 0.12209 0.26663 0.05974 0.0
H880 H 0.07755 0.23575 0.07292 0.0
H881 H 0.09796 0.39273 0.0224 0.0
H882 H 0.13794 0.3853 0.02269 0.0
H883 H 0.1008 0.36079 0.00324 0.0
H884 H 0.22176 0.34917 0.0176 0.0
H885 H 0.13173 0.27869 0.97355 0.0
H886 H 0.16507 0.33373 0.06432 0.0
H887 H 0.17289 0.3761 0.0512 0.0
H888 H 0.21062 0.36538 0.05248 0.0
H889 H 0.05714 0.2482 0.01044 0.0
H890 H 0.06829 0.25555 0.98175 0.0
H891 H 0.06131 0.28915 0.99717 0.0
C892 C 0.68958 0.77408 0.06682 0.0
C893 C 0.66134 0.73594 0.0675 0.0
C894 C 0.68424 0.8001 0.05457 0.0
C895 C 0.65011 0.7873 0.04281 0.0
C896 C 0.6195 0.75051 0.04656 0.0
C897 C 0.6254 0.72528 0.05911 0.0
C898 C 0.7169 0.83977 0.05181 0.0
C899 C 0.58232 0.73592 0.03476 0.0
C900 C 0.63633 0.85307 0.00481 0.0
C901 C 0.65047 0.84751 0.98511 0.0
C902 C 0.63603 0.83386 0.0239 0.0
C903 C 0.64971 0.80819 0.02308 0.0
C904 C 0.66307 0.80179 0.00306 0.0
C905 C 0.66363 0.82183 0.98438 0.0
C906 C 0.62239 0.84209 0.04499 0.0
C907 C 0.67713 0.77394 0.00134 0.0
H908 H 0.71722 0.78275 0.07365 0.0
H909 H 0.60309 0.69599 0.06015 0.0
H910 H 0.73166 0.84166 0.03624 0.0
H911 H 0.70684 0.86044 0.05103 0.0
H912 H 0.73761 0.84776 0.06537 0.0
H913 H 0.55946 0.71014 0.04268 0.0
H914 H 0.57372 0.75771 0.03407 0.0
H915 H 0.58546 0.72866 0.0177 0.0
H916 H 0.62663 0.87338 0.0055 0.0
H917 H 0.67445 0.81742 0.96916 0.0
H918 H 0.6471 0.8602 0.05546 0.0
H919 H 0.60422 0.81573 0.05421 0.0
H920 H 0.60638 0.8571 0.04213 0.0
H921 H 0.7021 0.78299 0.01206 0.0
H922 H 0.68523 0.77133 0.98439 0.0
H923 H 0.65493 0.7456 0.00694 0.0
C924 C 0.73279 0.0519 0.9525 0.0
C925 C 0.74586 0.02825 0.94454 0.0
C926 C 0.75637 0.08429 0.96461 0.0
C927 C 0.79416 0.09366 0.96852 0.0
C928 C 0.80866 0.07219 0.95861 0.0
C929 C 0.78421 0.0395 0.94675 0.0
C930 C 0.73977 0.10642 0.97486 0.0
C931 C 0.84915 0.082 0.96196 0.0
C932 C 0.85624 0.18857 0.99557 0.0
C933 C 0.85427 0.17805 0.01758 0.0
C934 C 0.83797 0.16131 0.97923 0.0
C935 C 0.81662 0.12277 0.98514 0.0
C936 C 0.8146 0.11198 0.00732 0.0
C937 C 0.83377 0.13976 0.02326 0.0
C938 C 0.84129 0.17372 0.9557 0.0
C939 C 0.79155 0.07113 0.0143 0.0
H940 H 0.70331 0.04375 0.95053 0.0
H941 H 0.79459 0.02152 0.94053 0.0
H942 H 0.73734 0.10159 0.99278 0.0
H943 H 0.75844 0.13716 0.97215 0.0
H944 H 0.71127 0.09798 0.96829 0.0
H945 H 0.8577 0.06691 0.95022 0.0
H946 H 0.86852 0.11288 0.9602 0.0
H947 H 0.85263 0.07401 0.97876 0.0
H948 H 0.87254 0.21815 0.99105 0.0
H949 H 0.83223 0.13152 0.04023 0.0
H950 H 0.81317 0.16709 0.94941 0.0
H951 H 0.85121 0.158 0.94544 0.0
H952 H 0.86109 0.2045 0.95368 0.0
H953 H 0.76145 0.05994 0.00991 0.0
H954 H 0.7934 0.06745 0.03216 0.0
H955 H 0.80132 0.0538 0.00556 0.0
C956 C 0.75386 0.6524 0.99584 0.0
C957 C 0.76584 0.66312 0.01749 0.0
C958 C 0.77946 0.65544 0.97957 0.0
C959 C 0.81765 0.66895 0.98523 0.0
C960 C 0.82997 0.68038 0.00697 0.0
C961 C 0.80397 0.6775 0.02278 0.0
C962 C 0.76552 0.64352 0.9565 0.0
C963 C 0.8705 0.69476 0.01373 0.0
C964 C 0.88296 0.64127 0.95866 0.0
C965 C 0.91041 0.67604 0.94996 0.0
C966 C 0.85018 0.63732 0.96832 0.0
C967 C 0.84473 0.66888 0.96915 0.0
C968 C 0.86994 0.70254 0.95796 0.0
C969 C 0.90269 0.70578 0.94845 0.0
C970 C 0.82383 0.60077 0.97986 0.0
C971 C 0.86452 0.73648 0.95803 0.0
H972 H 0.72448 0.64162 0.99158 0.0
H973 H 0.81348 0.6859 0.03944 0.0
H974 H 0.78444 0.6655 0.94471 0.0
H975 H 0.76589 0.61724 0.95246 0.0
H976 H 0.7363 0.63822 0.9542 0.0
H977 H 0.87563 0.70344 0.03116 0.0
H978 H 0.87794 0.67237 0.01112 0.0
H979 H 0.88982 0.71934 0.00352 0.0
H980 H 0.88843 0.6179 0.95944 0.0
H981 H 0.92362 0.73261 0.94154 0.0
H982 H 0.79392 0.59238 0.97674 0.0
H983 H 0.82866 0.60477 0.99775 0.0
H984 H 0.82847 0.57732 0.97469 0.0
H985 H 0.8343 0.72784 0.95594 0.0
H986 H 0.88121 0.75685 0.94493 0.0
H987 H 0.87396 0.75119 0.97399 0.0
C988 C 0.31824 0.24167 0.96143 0.0
C989 C 0.28596 0.23518 0.94981 0.0
C990 C 0.32386 0.21174 0.9673 0.0
C991 C 0.29649 0.17441 0.96141 0.0
C992 C 0.26545 0.16797 0.94814 0.0
C993 C 0.26055 0.19855 0.94243 0.0
C994 C 0.3576 0.21985 0.98126 0.0
C995 C 0.23593 0.12856 0.94136 0.0
C996 C 0.32427 0.10059 0.97382 0.0
C997 C 0.3093 0.08919 0.9949 0.0
C998 C 0.31877 0.12701 0.96211 0.0
C999 C 0.2979 0.14231 0.97176 0.0
C1000 C 0.28119 0.12953 0.99255 0.0
C1001 C 0.28709 0.10314 0.00386 0.0
C1002 C 0.33674 0.13982 0.9399 0.0
C1003 C 0.25857 0.14509 0.00336 0.0
H1004 H 0.33832 0.27002 0.96687 0.0
H1005 H 0.23563 0.19337 0.93334 0.0
H1006 H 0.34799 0.20911 0.99806 0.0
H1007 H 0.37205 0.20508 0.97471 0.0
H1008 H 0.37838 0.25057 0.98226 0.0
H1009 H 0.21749 0.12889 0.92812 0.0
H1010 H 0.24934 0.11219 0.93576 0.0
H1011 H 0.21792 0.11349 0.95563 0.0
H1012 H 0.34127 0.08977 0.9667 0.0
H1013 H 0.27507 0.09422 0.02003 0.0
H1014 H 0.36077 0.16919 0.94104 0.0
H1015 H 0.31625 0.13996 0.92806 0.0
H1016 H 0.34747 0.12153 0.93343 0.0
H1017 H 0.2773 0.17552 0.00707 0.0
H1018 H 0.24517 0.13015 0.01883 0.0
H1019 H 0.23613 0.14278 0.99219 0.0
C1020 C 0.98001 0.24754 0.38616 0.0
C1021 C 0.97204 0.27309 0.39693 0.0
C1022 C 0.95081 0.21171 0.38002 0.0
C1023 C 0.91306 0.20157 0.38478 0.0
C1024 C 0.90568 0.22462 0.39885 0.0
C1025 C 0.93544 0.26031 0.40485 0.0
C1026 C 0.96001 0.18721 0.36579 0.0
C1027 C 0.86586 0.21408 0.40499 0.0
C1028 C 0.8448 0.16078 0.33754 0.0
C1029 C 0.82254 0.12279 0.34356 0.0
C1030 C 0.87452 0.18631 0.35078 0.0
C1031 C 0.88232 0.1736 0.37062 0.0
C1032 C 0.86064 0.13509 0.3766 0.0
C1033 C 0.83086 0.11008 0.36299 0.0
C1034 C 0.89724 0.22713 0.3436 0.0
C1035 C 0.86796 0.12044 0.3976 0.0
H1036 H 0.00851 0.25684 0.38057 0.0
H1037 H 0.92914 0.27956 0.41363 0.0
H1038 H 0.94142 0.15685 0.36968 0.0
H1039 H 0.95527 0.19148 0.34841 0.0
H1040 H 0.98994 0.1945 0.36769 0.0
H1041 H 0.8653 0.23044 0.41934 0.0
H1042 H 0.85237 0.22014 0.39101 0.0
H1043 H 0.84874 0.18347 0.4087 0.0
H1044 H 0.83876 0.1708 0.32251 0.0
H1045 H 0.81366 0.08075 0.36781 0.0
H1046 H 0.92755 0.2357 0.34227 0.0
H1047 H 0.8948 0.24571 0.35593 0.0
H1048 H 0.88774 0.23218 0.32758 0.0
H1049 H 0.89867 0.13356 0.40092 0.0
H1050 H 0.85533 0.08923 0.39728 0.0
H1051 H 0.85517 0.12775 0.41138 0.0
C1052 C 0.83712 0.6235 0.33397 0.0
C1053 C 0.87578 0.63815 0.33764 0.0
C1054 C 0.81369 0.62429 0.35034 0.0
C1055 C 0.82918 0.63976 0.37108 0.0
C1056 C 0.86784 0.65302 0.37529 0.0
C1057 C 0.89081 0.65238 0.35842 0.0
C1058 C 0.7725 0.60971 0.3451 0.0
C1059 C 0.88545 0.6692 0.3972 0.0
C1060 C 0.76609 0.67304 0.39331 0.0
C1061 C 0.73758 0.63907 0.40224 0.0
C1062 C 0.79974 0.67592 0.38574 0.0
C1063 C 0.80472 0.64413 0.38734 0.0
C1064 C 0.77925 0.61262 0.4 0.0
C1065 C 0.74566 0.61037 0.40735 0.0
C1066 C 0.82701 0.71071 0.37311 0.0
C1067 C 0.78478 0.57907 0.40309 0.0
H1068 H 0.8252 0.6123 0.31803 0.0
H1069 H 0.92066 0.66352 0.36148 0.0
H1070 H 0.75427 0.58727 0.35685 0.0
H1071 H 0.766 0.63295 0.34664 0.0
H1072 H 0.76487 0.59792 0.32832 0.0
H1073 H 0.91068 0.66624 0.40015 0.0
H1074 H 0.89475 0.69978 0.3975 0.0
H1075 H 0.86514 0.65537 0.41077 0.0
H1076 H 0.76041 0.69582 0.38997 0.0
H1077 H 0.7241 0.58434 0.41473 0.0
H1078 H 0.82249 0.70462 0.35535 0.0
H1079 H 0.85662 0.71873 0.37691 0.0
H1080 H 0.82294 0.7351 0.37674 0.0
H1081 H 0.77484 0.56104 0.38826 0.0
H1082 H 0.76847 0.56165 0.41731 0.0
H1083 H 0.8151 0.58825 0.40544 0.0
C1084 C 0.30866 0.19513 0.31854 0.0
C1085 C 0.33492 0.19998 0.30224 0.0
C1086 C 0.30126 0.17007 0.33601 0.0
C1087 C 0.32069 0.14959 0.33718 0.0
C1088 C 0.34667 0.15386 0.32058 0.0
C1089 C 0.3534 0.17892 0.30332 0.0
C1090 C 0.27322 0.16602 0.35335 0.0
C1091 C 0.36784 0.13229 0.32117 0.0
C1092 C 0.34131 0.10986 0.38746 0.0
C1093 C 0.31921 0.07108 0.38319 0.0
C1094 C 0.33931 0.13636 0.37375 0.0
C1095 C 0.31442 0.12351 0.35562 0.0
C1096 C 0.2886 0.08447 0.35308 0.0
C1097 C 0.29138 0.05865 0.3669 0.0
C1098 C 0.36694 0.17783 0.3772 0.0
C1099 C 0.26103 0.06963 0.33426 0.0
H1100 H 0.29425 0.21132 0.31787 0.0
H1101 H 0.37366 0.18239 0.29081 0.0
H1102 H 0.25192 0.13579 0.3558 0.0
H1103 H 0.28806 0.17687 0.36915 0.0
H1104 H 0.25835 0.18171 0.34916 0.0
H1105 H 0.38701 0.13883 0.30695 0.0
H1106 H 0.3849 0.13921 0.33635 0.0
H1107 H 0.34757 0.10144 0.32131 0.0
H1108 H 0.3627 0.11963 0.40013 0.0
H1109 H 0.27374 0.02861 0.36381 0.0
H1110 H 0.35329 0.19505 0.37427 0.0
H1111 H 0.39051 0.18716 0.36536 0.0
H1112 H 0.37898 0.18362 0.39396 0.0
H1113 H 0.24804 0.08749 0.33148 0.0
H1114 H 0.23823 0.04002 0.33708 0.0
H1115 H 0.2763 0.07032 0.31913 0.0
C1116 C 0.55525 0.49102 0.34297 0.0
C1117 C 0.57921 0.52922 0.33789 0.0
C1118 C 0.53537 0.46457 0.32656 0.0
C1119 C 0.53993 0.47652 0.3045 0.0
C1120 C 0.56569 0.51459 0.29911 0.0
C1121 C 0.58484 0.54063 0.31592 0.0
C1122 C 0.50798 0.42419 0.33301 0.0
C1123 C 0.57185 0.52815 0.27573 0.0
C1124 C 0.49428 0.39239 0.26656 0.0
C1125 C 0.4576 0.38691 0.26531 0.0
C1126 C 0.52293 0.42376 0.27765 0.0
C1127 C 0.51437 0.4498 0.28771 0.0
C1128 C 0.47853 0.44642 0.28448 0.0
C1129 C 0.45065 0.4151 0.27321 0.0
C1130 C 0.5612 0.4271 0.28024 0.0
C1131 C 0.46829 0.47371 0.29481 0.0
H1132 H 0.55089 0.48194 0.35988 0.0
H1133 H 0.60373 0.57004 0.31185 0.0
H1134 H 0.47872 0.41732 0.32902 0.0
H1135 H 0.51385 0.40445 0.32365 0.0
H1136 H 0.50937 0.41907 0.35072 0.0
H1137 H 0.59736 0.55651 0.27396 0.0
H1138 H 0.57476 0.50795 0.26491 0.0
H1139 H 0.54701 0.52988 0.26998 0.0
H1140 H 0.49999 0.37091 0.2603 0.0
H1141 H 0.42254 0.41144 0.2719 0.0
H1142 H 0.56329 0.41694 0.29671 0.0
H1143 H 0.58407 0.45699 0.27882 0.0
H1144 H 0.5659 0.40995 0.26788 0.0
H1145 H 0.46593 0.46938 0.31277 0.0
H1146 H 0.44101 0.46977 0.28859 0.0
H1147 H 0.49062 0.50334 0.29174 0.0
C1148 C 0.60566 0.01733 0.33949 0.0
C1149 C 0.62621 0.04327 0.32291 0.0
C1150 C 0.57192 0.01371 0.34739 0.0
C1151 C 0.55817 0.03644 0.33842 0.0
C1152 C 0.5782 0.06213 0.32136 0.0
C1153 C 0.61214 0.06533 0.31381 0.0
C1154 C 0.55136 0.98603 0.36565 0.0
C1155 C 0.56408 0.08657 0.31135 0.0
C1156 C 0.45477 0.00045 0.35006 0.0
C1157 C 0.45692 0.02183 0.3685 0.0
C1158 C 0.48757 0.00618 0.3394 0.0
C1159 C 0.52329 0.03372 0.3475 0.0
C1160 C 0.52564 0.05621 0.36567 0.0
C1161 C 0.4924 0.05008 0.37592 0.0
C1162 C 0.48403 0.98185 0.31996 0.0
C1163 C 0.5633 0.0857 0.37485 0.0
H1164 H 0.61619 7e-05 0.34662 0.0
H1165 H 0.6278 0.08537 0.30097 0.0
H1166 H 0.54957 0.00134 0.38016 0.0
H1167 H 0.52203 0.96559 0.36056 0.0
H1168 H 0.56555 0.96999 0.37055 0.0
H1169 H 0.58206 0.10387 0.29755 0.0
H1170 H 0.53473 0.06871 0.30536 0.0
H1171 H 0.56348 0.10582 0.32393 0.0
H1172 H 0.42745 0.97885 0.34407 0.0
H1173 H 0.49431 0.06684 0.3901 0.0
H1174 H 0.49498 0.96271 0.32429 0.0
H1175 H 0.50128 -0.00029 0.30614 0.0
H1176 H 0.4543 0.96438 0.3144 0.0
H1177 H 0.57835 0.07169 0.38168 0.0
H1178 H 0.56023 0.10278 0.38796 0.0
H1179 H 0.58131 0.10502 0.36172 0.0
C1180 C 0.94228 0.52382 0.276 0.0
C1181 C 0.97129 0.56161 0.27743 0.0
C1182 C 0.94813 0.49457 0.28335 0.0
C1183 C 0.98365 0.50366 0.29227 0.0
C1184 C 0.01429 0.5411 0.29079 0.0
C1185 C 0.00773 0.56967 0.28331 0.0
C1186 C 0.91518 0.4547 0.28388 0.0
C1187 C 0.05286 0.55191 0.29972 0.0
C1188 C 0.98713 0.45685 0.34471 0.0
C1189 C 0.00337 0.43547 0.33779 0.0
C1190 C 0.97899 0.47775 0.32979 0.0
C1191 C 0.98683 0.4769 0.30731 0.0
C1192 C 0.00111 0.45362 0.30001 0.0
C1193 C 0.00956 0.4334 0.31538 0.0
C1194 C 0.96371 0.50226 0.3383 0.0
C1195 C 0.00906 0.45129 0.27616 0.0
H1196 H 0.91413 0.51734 0.27118 0.0
H1197 H 0.03047 0.59881 0.28393 0.0
H1198 H 0.92446 0.43396 0.28026 0.0
H1199 H 0.90256 0.44846 0.30047 0.0
H1200 H 0.89292 0.45075 0.272 0.0
H1201 H 0.07474 0.5806 0.29433 0.0
H1202 H 0.05185 0.55161 0.31785 0.0
H1203 H 0.06149 0.53132 0.29452 0.0
H1204 H 0.98203 0.45843 0.36195 0.0
H1205 H 0.02166 0.41652 0.30985 0.0
H1206 H 0.93737 0.49572 0.32953 0.0
H1207 H 0.98456 0.53247 0.33529 0.0
H1208 H 0.95758 0.49834 0.35608 0.0
H1209 H 0.98709 0.45151 0.2656 0.0
H1210 H 0.01061 0.42543 0.27257 0.0
H1211 H 0.03657 0.47619 0.27173 0.0
C1212 C 0.42731 0.42748 0.65518 0.0
C1213 C 0.41715 0.44349 0.63801 0.0
C1214 C 0.45692 0.45031 0.6695 0.0
C1215 C 0.47675 0.48994 0.66651 0.0
C1216 C 0.46617 0.50625 0.64946 0.0
C1217 C 0.43656 0.48286 0.63545 0.0
C1218 C 0.46745 0.43202 0.68752 0.0
C1219 C 0.48658 0.54849 0.64574 0.0
C1220 C 0.53682 0.56497 0.70755 0.0
C1221 C 0.57275 0.57842 0.69841 0.0
C1222 C 0.50514 0.53336 0.69864 0.0
C1223 C 0.50979 0.5149 0.68034 0.0
C1224 C 0.54652 0.52564 0.67281 0.0
C1225 C 0.57762 0.55738 0.68193 0.0
C1226 C 0.46644 0.52239 0.70734 0.0
C1227 C 0.55278 0.50628 0.65357 0.0
H1228 H 0.4124 0.39707 0.65732 0.0
H1229 H 0.42885 0.49554 0.62233 0.0
H1230 H 0.49598 0.43612 0.68438 0.0
H1231 H 0.46868 0.44557 0.70344 0.0
H1232 H 0.44715 0.40123 0.68886 0.0
H1233 H 0.47406 0.55668 0.63216 0.0
H1234 H 0.48583 0.5632 0.66081 0.0
H1235 H 0.51669 0.55874 0.64185 0.0
H1236 H 0.53287 0.58091 0.72042 0.0
H1237 H 0.60546 0.56723 0.67508 0.0
H1238 H 0.44809 0.49122 0.70785 0.0
H1239 H 0.45286 0.53368 0.6963 0.0
H1240 H 0.46794 0.53396 0.72397 0.0
H1241 H 0.53467 0.47515 0.6548 0.0
H1242 H 0.58274 0.5134 0.65225 0.0
H1243 H 0.54497 0.51538 0.6383 0.0
C1244 C 0.48795 0.00338 0.67204 0.0
C1245 C 0.52658 0.01773 0.67565 0.0
C1246 C 0.46498 0.00565 0.68818 0.0
C1247 C 0.48098 0.02267 0.70856 0.0
C1248 C 0.52006 0.03769 0.71229 0.0
C1249 C 0.54244 0.03496 0.69577 0.0
C1250 C 0.42341 0.98955 0.68335 0.0
C1251 C 0.53818 0.05572 0.7338 0.0
C1252 C 0.41168 0.04634 0.7324 0.0
C1253 C 0.38608 0.01103 0.74138 0.0
C1254 C 0.44665 0.05329 0.72435 0.0
C1255 C 0.45587 0.02425 0.7255 0.0
C1256 C 0.43347 0.9918 0.73835 0.0
C1257 C 0.39859 0.98552 0.74626 0.0
C1258 C 0.4707 0.08912 0.71164 0.0
C1259 C 0.44338 0.96104 0.74086 0.0
H1260 H 0.47548 0.99019 0.65654 0.0
H1261 H 0.57228 0.04593 0.69875 0.0
H1262 H 0.4062 0.96684 0.69522 0.0
H1263 H 0.41569 0.0119 0.6851 0.0
H1264 H 0.41565 0.97761 0.66661 0.0
H1265 H 0.56921 0.0744 0.73213 0.0
H1266 H 0.52596 0.07243 0.74063 0.0
H1267 H 0.53303 0.03321 0.74574 0.0
H1268 H 0.4027 0.06682 0.72929 0.0
H1269 H 0.37943 0.95858 0.75378 0.0
H1270 H 0.46448 0.08335 0.69395 0.0
H1271 H 0.50119 0.0993 0.71411 0.0
H1272 H 0.46475 0.11188 0.71642 0.0
H1273 H 0.43506 0.94353 0.72581 0.0
H1274 H 0.42838 0.94229 0.75492 0.0
H1275 H 0.47425 0.97324 0.74312 0.0
C1276 C 0.0446 0.48424 0.73376 0.0
C1277 C 0.01302 0.44774 0.73399 0.0
C1278 C 0.04274 0.51399 0.72348 0.0
C1279 C 0.00859 0.50673 0.71337 0.0
C1280 C 0.97528 0.47173 0.71694 0.0
C1281 C 0.97789 0.44254 0.7273 0.0
C1282 C 0.07856 0.55147 0.72078 0.0
C1283 C 0.938 0.46318 0.70703 0.0
C1284 C 0.00338 0.58219 0.6795 0.0
C1285 C 0.01202 0.57447 0.65859 0.0
C1286 C 0.0022 0.5606 0.69768 0.0
C1287 C 0.00983 0.53069 0.69479 0.0
C1288 C 0.01827 0.52266 0.67369 0.0
C1289 C 0.01936 0.54468 0.65591 0.0
C1290 C -0.0064 0.57033 0.71994 0.0
C1291 C 0.02617 0.49067 0.66978 0.0
H1292 H 0.07174 0.48873 0.73932 0.0
H1293 H 0.95309 0.4146 0.72804 0.0
H1294 H 0.0908 0.55253 0.70443 0.0
H1295 H 0.07273 0.5752 0.72178 0.0
H1296 H 0.09991 0.55556 0.73334 0.0
H1297 H 0.91388 0.43857 0.71507 0.0
H1298 H 0.93381 0.48794 0.70824 0.0
H1299 H 0.9378 0.45646 0.68945 0.0
H1300 H -0.00201 0.60541 0.68173 0.0
H1301 H 0.02591 0.53842 0.63983 0.0
H1302 H 0.02005 0.58478 0.72963 0.0
H1303 H 0.97355 0.54447 0.72901 0.0
H1304 H 0.98158 0.5894 0.71885 0.0
H1305 H 0.05092 0.49516 0.67959 0.0
H1306 H 0.03199 0.4881 0.65233 0.0
H1307 H 0.00162 0.46348 0.67506 0.0
C1308 C 0.2408 0.90032 0.65433 0.0
C1309 C 0.23244 0.88839 0.67616 0.0
C1310 C 0.22298 0.87493 0.63704 0.0
C1311 C 0.19558 0.83707 0.64178 0.0
C1312 C 0.18837 0.82453 0.66376 0.0
C1313 C 0.20715 0.85028 0.68066 0.0
C1314 C 0.23229 0.88917 0.61385 0.0
C1315 C 0.15923 0.78433 0.66956 0.0
C1316 C 0.10749 0.77698 0.6096 0.0
C1317 C 0.11299 0.74684 0.60385 0.0
C1318 C 0.13608 0.80909 0.61997 0.0
C1319 C 0.17108 0.81119 0.62434 0.0
C1320 C 0.17865 0.78359 0.61558 0.0
C1321 C 0.14933 0.75146 0.60545 0.0
C1322 C 0.12704 0.83828 0.62868 0.0
C1323 C 0.21628 0.78586 0.61904 0.0
H1324 H 0.26078 0.92968 0.65072 0.0
H1325 H 0.20069 0.84082 0.69746 0.0
H1326 H 0.23166 0.86732 0.6028 0.0
H1327 H 0.21101 0.89635 0.60789 0.0
H1328 H 0.26054 0.91503 0.61275 0.0
H1329 H 0.15815 0.77881 0.68739 0.0
H1330 H 0.13085 0.77844 0.66417 0.0
H1331 H 0.16547 0.76417 0.66096 0.0
H1332 H 0.07973 0.77403 0.60787 0.0
H1333 H 0.15406 0.7286 0.60066 0.0
H1334 H 0.15062 0.86724 0.62545 0.0
H1335 H 0.12315 0.83496 0.64665 0.0
H1336 H 0.10083 0.83535 0.62134 0.0
H1337 H 0.2398 0.81543 0.61755 0.0
H1338 H 0.22075 0.76791 0.60715 0.0
H1339 H 0.21731 0.77586 0.63575 0.0
C1340 C 0.07986 0.34964 0.65441 0.0
C1341 C 0.09537 0.36087 0.67542 0.0
C1342 C 0.10211 0.34996 0.63683 0.0
C1343 C 0.14053 0.36137 0.64048 0.0
C1344 C 0.15646 0.37346 0.66153 0.0
C1345 C 0.13374 0.37315 0.67869 0.0
C1346 C 0.0843 0.33721 0.61457 0.0
C1347 C 0.19739 0.38584 0.66614 0.0
C1348 C 0.1986 0.32788 0.61082 0.0
C1349 C 0.22601 0.36166 0.60114 0.0
C1350 C 0.16766 0.326 0.62176 0.0
C1351 C 0.16417 0.35871 0.62297 0.0
C1352 C 0.18896 0.39128 0.6108 0.0
C1353 C 0.21976 0.39239 0.59995 0.0
C1354 C 0.14148 0.29047 0.63421 0.0
C1355 C 0.18556 0.4264 0.61125 0.0
H1356 H 0.05026 0.34031 0.65171 0.0
H1357 H 0.14604 0.38201 0.6948 0.0
H1358 H 0.10275 0.35698 0.60173 0.0
H1359 H 0.08078 0.30904 0.61086 0.0
H1360 H 0.05613 0.33505 0.61365 0.0
H1361 H 0.2056 0.39545 0.68327 0.0
H1362 H 0.20259 0.36205 0.66303 0.0
H1363 H 0.21606 0.40929 0.65505 0.0
H1364 H 0.20285 0.30371 0.61135 0.0
H1365 H 0.2406 0.41846 0.59225 0.0
H1366 H 0.11171 0.28366 0.63255 0.0
H1367 H 0.14883 0.29491 0.65183 0.0
H1368 H 0.14375 0.26584 0.62853 0.0
H1369 H 0.15553 0.4191 0.61051 0.0
H1370 H 0.20113 0.44572 0.5975 0.0
H1371 H 0.19757 0.44178 0.62679 0.0
C1372 C 0.64452 0.77705 0.65063 0.0
C1373 C 0.63158 0.76601 0.67209 0.0
C1374 C 0.63878 0.804 0.63971 0.0
C1375 C 0.62013 0.82055 0.65064 0.0
C1376 C 0.60604 0.80869 0.67204 0.0
C1377 C 0.61177 0.78144 0.68245 0.0
C1378 C 0.6537 0.81562 0.61678 0.0
C1379 C 0.58621 0.82589 0.68431 0.0
C1380 C 0.64265 0.92047 0.63945 0.0
C1381 C 0.60925 0.91463 0.62942 0.0
C1382 C 0.64747 0.89002 0.64524 0.0
C1383 C 0.61828 0.85276 0.64077 0.0
C1384 C 0.58575 0.8467 0.62915 0.0
C1385 C 0.58155 0.8778 0.62363 0.0
C1386 C 0.68267 0.89769 0.65756 0.0
C1387 C 0.55435 0.80734 0.62379 0.0
H1388 H 0.6595 0.76494 0.64242 0.0
H1389 H 0.60157 0.773 0.699 0.0
H1390 H 0.63157 0.81504 0.60601 0.0
H1391 H 0.67773 0.84506 0.61688 0.0
H1392 H 0.66355 0.79701 0.60967 0.0
H1393 H 0.57518 0.81209 0.70037 0.0
H1394 H 0.60613 0.85641 0.68712 0.0
H1395 H 0.56232 0.82362 0.67451 0.0
H1396 H 0.6645 0.94887 0.64369 0.0
H1397 H 0.55577 0.87304 0.61574 0.0
H1398 H 0.69554 0.88205 0.65008 0.0
H1399 H 0.67513 0.8876 0.67464 0.0
H1400 H 0.70416 0.92825 0.65791 0.0
H1401 H 0.56596 0.78996 0.61715 0.0
H1402 H 0.53408 0.80762 0.61178 0.0
H1403 H 0.53865 0.79336 0.63893 0.0
loop_
_geom_bond_atom_site_label_1
_geom_bond_atom_site_label_2
_geom_bond_distance
_geom_bond_site_symmetry_2
_ccdc_geom_bond_type
O0 Cd1 2.223 . S
O0 C8 1.315 . S
Cd1 O0 2.223 . S
Cd1 O4 2.297 . S
Cd1 O5 2.439 . S
Cd1 O11 2.240 . S
Cd2 O3 2.240 . S
Cd2 O10 2.223 . S
Cd2 O12 2.297 . S
Cd2 O13 2.439 . S
O3 Cd2 2.240 . S
O3 C8 1.279 . S
O4 Cd1 2.297 . S
O4 C6 1.247 . S
O5 Cd1 2.439 . S
O5 C6 1.208 . S
C6 O4 1.247 . S
C6 O5 1.208 . S
C7 O12 1.247 . S
C7 O13 1.208 . S
C8 O0 1.315 . S
C8 O3 1.279 . S
C9 O10 1.315 . S
C9 O11 1.279 . S
O10 Cd2 2.223 . S
O10 C9 1.315 . S
O11 Cd1 2.240 . S
O11 C9 1.279 . S
O12 Cd2 2.297 . S
O12 C7 1.247 . S
O13 Cd2 2.439 . S
O13 C7 1.208 . S
O14 Cd15 2.223 . S
O14 C22 1.315 . S
Cd15 O14 2.223 . S
Cd15 O18 2.297 . S
Cd15 O19 2.439 . S
Cd15 O25 2.240 . S
Cd16 O17 2.240 . S
Cd16 O24 2.223 . S
Cd16 O26 2.297 . S
Cd16 O27 2.439 . S
O17 Cd16 2.240 . S
O17 C22 1.279 . S
O18 Cd15 2.297 . S
O18 C20 1.247 . S
O19 Cd15 2.439 . S
O19 C20 1.208 . S
C20 O18 1.247 . S
C20 O19 1.208 . S
C21 O26 1.247 . S
C21 O27 1.208 . S
C22 O14 1.315 . S
C22 O17 1.279 . S
C23 O24 1.315 . S
C23 O25 1.279 . S
O24 Cd16 2.223 . S
O24 C23 1.315 . S
O25 Cd15 2.240 . S
O25 C23 1.279 . S
O26 Cd16 2.297 . S
O26 C21 1.247 . S
O27 Cd16 2.439 . S
O27 C21 1.208 . S
O28 Cd29 2.223 . S
O28 C36 1.315 . S
Cd29 O28 2.223 . S
Cd29 O32 2.297 . S
Cd29 O33 2.439 . S
Cd29 O39 2.240 . S
Cd30 O31 2.240 . S
Cd30 O38 2.223 . S
Cd30 O40 2.297 . S
Cd30 O41 2.439 . S
O31 Cd30 2.240 . S
O31 C36 1.279 . S
O32 Cd29 2.297 . S
O32 C34 1.247 . S
O33 Cd29 2.439 . S
O33 C34 1.208 . S
C34 O32 1.247 . S
C34 O33 1.208 . S
C35 O40 1.247 . S
C35 O41 1.208 . S
C36 O28 1.315 . S
C36 O31 1.279 . S
C37 O38 1.315 . S
C37 O39 1.279 . S
O38 Cd30 2.223 . S
O38 C37 1.315 . S
O39 Cd29 2.240 . S
O39 C37 1.279 . S
O40 Cd30 2.297 . S
O40 C35 1.247 . S
O41 Cd30 2.439 . S
O41 C35 1.208 . S
O42 Cd43 2.223 . S
O42 C50 1.315 . S
Cd43 O42 2.223 . S
Cd43 O46 2.297 . S
Cd43 O47 2.439 . S
Cd43 O53 2.240 . S
Cd44 O45 2.240 . S
Cd44 O52 2.223 . S
Cd44 O54 2.297 . S
Cd44 O55 2.439 . S
O45 Cd44 2.240 . S
O45 C50 1.279 . S
O46 Cd43 2.297 . S
O46 C48 1.247 . S
O47 Cd43 2.439 . S
O47 C48 1.208 . S
C48 O46 1.247 . S
C48 O47 1.208 . S
C49 O54 1.247 . S
C49 O55 1.208 . S
C50 O42 1.315 . S
C50 O45 1.279 . S
C51 O52 1.315 . S
C51 O53 1.279 . S
O52 Cd44 2.223 . S
O52 C51 1.315 . S
O53 Cd43 2.240 . S
O53 C51 1.279 . S
O54 Cd44 2.297 . S
O54 C49 1.247 . S
O55 Cd44 2.439 . S
O55 C49 1.208 . S
O56 Cd57 2.223 . S
O56 C64 1.315 . S
Cd57 O56 2.223 . S
Cd57 O60 2.297 . S
Cd57 O61 2.439 . S
Cd57 O67 2.240 . S
Cd58 O59 2.240 . S
Cd58 O66 2.223 . S
Cd58 O68 2.297 . S
Cd58 O69 2.439 . S
O59 Cd58 2.240 . S
O59 C64 1.279 . S
O60 Cd57 2.297 . S
O60 C62 1.247 . S
O61 Cd57 2.439 . S
O61 C62 1.208 . S
C62 O60 1.247 . S
C62 O61 1.208 . S
C63 O68 1.247 . S
C63 O69 1.208 . S
C64 O56 1.315 . S
C64 O59 1.279 . S
C65 O66 1.315 . S
C65 O67 1.279 . S
O66 Cd58 2.223 . S
O66 C65 1.315 . S
O67 Cd57 2.240 . S
O67 C65 1.279 . S
O68 Cd58 2.297 . S
O68 C63 1.247 . S
O69 Cd58 2.439 . S
O69 C63 1.208 . S
O70 Cd71 2.223 . S
O70 C78 1.315 . S
Cd71 O70 2.223 . S
Cd71 O74 2.297 . S
Cd71 O75 2.439 . S
Cd71 O81 2.240 . S
Cd72 O73 2.240 . S
Cd72 O80 2.223 . S
Cd72 O82 2.297 . S
Cd72 O83 2.439 . S
O73 Cd72 2.240 . S
O73 C78 1.279 . S
O74 Cd71 2.297 . S
O74 C76 1.247 . S
O75 Cd71 2.439 . S
O75 C76 1.208 . S
C76 O74 1.247 . S
C76 O75 1.208 . S
C77 O82 1.247 . S
C77 O83 1.208 . S
C78 O70 1.315 . S
C78 O73 1.279 . S
C79 O80 1.315 . S
C79 O81 1.279 . S
O80 Cd72 2.223 . S
O80 C79 1.315 . S
O81 Cd71 2.240 . S
O81 C79 1.279 . S
O82 Cd72 2.297 . S
O82 C77 1.247 . S
O83 Cd72 2.439 . S
O83 C77 1.208 . S
O84 Cd85 2.223 . S
O84 C92 1.315 . S
Cd85 O84 2.223 . S
Cd85 O88 2.297 . S
Cd85 O89 2.439 1_655 S
Cd85 O95 2.240 . S
Cd86 O87 2.240 . S
Cd86 O94 2.223 1_455 S
Cd86 O96 2.297 . S
Cd86 O97 2.439 . S
O87 Cd86 2.240 . S
O87 C92 1.279 1_455 S
O88 Cd85 2.297 . S
O88 C90 1.247 1_655 S
O89 Cd85 2.439 1_455 S
O89 C90 1.208 . S
C90 O88 1.247 1_455 S
C90 O89 1.208 . S
C91 O96 1.247 . S
C91 O97 1.208 . S
C92 O84 1.315 . S
C92 O87 1.279 1_655 S
C93 O94 1.315 . S
C93 O95 1.279 . S
O94 Cd86 2.223 1_655 S
O94 C93 1.315 . S
O95 Cd85 2.240 . S
O95 C93 1.279 . S
O96 Cd86 2.297 . S
O96 C91 1.247 . S
O97 Cd86 2.439 . S
O97 C91 1.208 . S
O98 Cd99 2.223 . S
O98 C106 1.315 . S
Cd99 O98 2.223 . S
Cd99 O102 2.297 . S
Cd99 O103 2.439 . S
Cd99 O109 2.240 . S
Cd100 O101 2.240 . S
Cd100 O108 2.223 . S
Cd100 O110 2.297 . S
Cd100 O111 2.439 . S
O101 Cd100 2.240 . S
O101 C106 1.279 . S
O102 Cd99 2.297 . S
O102 C104 1.247 . S
O103 Cd99 2.439 . S
O103 C104 1.208 . S
C104 O102 1.247 . S
C104 O103 1.208 . S
C105 O110 1.247 . S
C105 O111 1.208 . S
C106 O98 1.315 . S
C106 O101 1.279 . S
C107 O108 1.315 . S
C107 O109 1.279 . S
O108 Cd100 2.223 . S
O108 C107 1.315 . S
O109 Cd99 2.240 . S
O109 C107 1.279 . S
O110 Cd100 2.297 . S
O110 C105 1.247 . S
O111 Cd100 2.439 . S
O111 C105 1.208 . S
O112 Cd113 2.223 . S
O112 C120 1.315 . S
Cd113 O112 2.223 . S
Cd113 O116 2.297 . S
Cd113 O117 2.439 1_545 S
Cd113 O123 2.240 . S
Cd114 O115 2.240 . S
Cd114 O122 2.223 1_565 S
Cd114 O124 2.297 . S
Cd114 O125 2.439 . S
O115 Cd114 2.240 . S
O115 C120 1.279 1_565 S
O116 Cd113 2.297 . S
O116 C118 1.247 1_545 S
O117 Cd113 2.439 1_565 S
O117 C118 1.208 . S
C118 O116 1.247 1_565 S
C118 O117 1.208 . S
C119 O124 1.247 . S
C119 O125 1.208 . S
C120 O112 1.315 . S
C120 O115 1.279 1_545 S
C121 O122 1.315 . S
C121 O123 1.279 . S
O122 Cd114 2.223 1_545 S
O122 C121 1.315 . S
O123 Cd113 2.240 . S
O123 C121 1.279 . S
O124 Cd114 2.297 . S
O124 C119 1.247 . S
O125 Cd114 2.439 . S
O125 C119 1.208 . S
O126 Cd127 2.223 . S
O126 C134 1.315 . S
Cd127 O126 2.223 . S
Cd127 O130 2.297 . S
Cd127 O131 2.439 . S
Cd127 O137 2.240 . S
Cd128 O129 2.240 . S
Cd128 O136 2.223 . S
Cd128 O138 2.297 . S
Cd128 O139 2.439 . S
O129 Cd128 2.240 . S
O129 C134 1.279 . S
O130 Cd127 2.297 . S
O130 C132 1.247 . S
O131 Cd127 2.439 . S
O131 C132 1.208 . S
C132 O130 1.247 . S
C132 O131 1.208 . S
C133 O138 1.247 . S
C133 O139 1.208 . S
C134 O126 1.315 . S
C134 O129 1.279 . S
C135 O136 1.315 . S
C135 O137 1.279 . S
O136 Cd128 2.223 . S
O136 C135 1.315 . S
O137 Cd127 2.240 . S
O137 C135 1.279 . S
O138 Cd128 2.297 . S
O138 C133 1.247 . S
O139 Cd128 2.439 . S
O139 C133 1.208 . S
O140 Cd141 2.223 . S
O140 C148 1.315 . S
Cd141 O140 2.223 . S
Cd141 O144 2.297 . S
Cd141 O145 2.439 . S
Cd141 O151 2.240 . S
Cd142 O143 2.240 . S
Cd142 O150 2.223 . S
Cd142 O152 2.297 1_545 S
Cd142 O153 2.439 1_545 S
O143 Cd142 2.240 . S
O143 C148 1.279 . S
O144 Cd141 2.297 . S
O144 C146 1.247 . S
O145 Cd141 2.439 . S
O145 C146 1.208 . S
C146 O144 1.247 . S
C146 O145 1.208 . S
C147 O152 1.247 . S
C147 O153 1.208 . S
C148 O140 1.315 . S
C148 O143 1.279 . S
C149 O150 1.315 . S
C149 O151 1.279 . S
O150 Cd142 2.223 . S
O150 C149 1.315 . S
O151 Cd141 2.240 . S
O151 C149 1.279 . S
O152 Cd142 2.297 1_565 S
O152 C147 1.247 . S
O153 Cd142 2.439 1_565 S
O153 C147 1.208 . S
O154 Cd155 2.223 . S
O154 C162 1.315 . S
Cd155 O154 2.223 . S
Cd155 O158 2.297 . S
Cd155 O159 2.439 . S
Cd155 O165 2.240 . S
Cd156 O157 2.240 . S
Cd156 O164 2.223 . S
Cd156 O166 2.297 1_655 S
Cd156 O167 2.439 1_655 S
O157 Cd156 2.240 . S
O157 C162 1.279 . S
O158 Cd155 2.297 . S
O158 C160 1.247 . S
O159 Cd155 2.439 . S
O159 C160 1.208 . S
C160 O158 1.247 . S
C160 O159 1.208 . S
C161 O166 1.247 . S
C161 O167 1.208 . S
C162 O154 1.315 . S
C162 O157 1.279 . S
C163 O164 1.315 . S
C163 O165 1.279 . S
O164 Cd156 2.223 . S
O164 C163 1.315 . S
O165 Cd155 2.240 . S
O165 C163 1.279 . S
O166 Cd156 2.297 1_455 S
O166 C161 1.247 . S
O167 Cd156 2.439 1_455 S
O167 C161 1.208 . S
O168 Cd169 2.223 . S
O168 C176 1.315 . S
Cd169 O168 2.223 . S
Cd169 O172 2.297 . S
Cd169 O173 2.439 . S
Cd169 O179 2.240 . S
Cd170 O171 2.240 . S
Cd170 O178 2.223 . S
Cd170 O180 2.297 . S
Cd170 O181 2.439 . S
O171 Cd170 2.240 . S
O171 C176 1.279 . S
O172 Cd169 2.297 . S
O172 C174 1.247 . S
O173 Cd169 2.439 . S
O173 C174 1.208 . S
C174 O172 1.247 . S
C174 O173 1.208 . S
C175 O180 1.247 . S
C175 O181 1.208 . S
C176 O168 1.315 . S
C176 O171 1.279 . S
C177 O178 1.315 . S
C177 O179 1.279 . S
O178 Cd170 2.223 . S
O178 C177 1.315 . S
O179 Cd169 2.240 . S
O179 C177 1.279 . S
O180 Cd170 2.297 . S
O180 C175 1.247 . S
O181 Cd170 2.439 . S
O181 C175 1.208 . S
O182 Cd183 2.223 . S
O182 C190 1.315 . S
Cd183 O182 2.223 . S
Cd183 O186 2.297 . S
Cd183 O187 2.439 . S
Cd183 O193 2.240 . S
Cd184 O185 2.240 . S
Cd184 O192 2.223 . S
Cd184 O194 2.297 1_565 S
Cd184 O195 2.439 1_565 S
O185 Cd184 2.240 . S
O185 C190 1.279 . S
O186 Cd183 2.297 . S
O186 C188 1.247 . S
O187 Cd183 2.439 . S
O187 C188 1.208 . S
C188 O186 1.247 . S
C188 O187 1.208 . S
C189 O194 1.247 . S
C189 O195 1.208 . S
C190 O182 1.315 . S
C190 O185 1.279 . S
C191 O192 1.315 . S
C191 O193 1.279 . S
O192 Cd184 2.223 . S
O192 C191 1.315 . S
O193 Cd183 2.240 . S
O193 C191 1.279 . S
O194 Cd184 2.297 1_545 S
O194 C189 1.247 . S
O195 Cd184 2.439 1_545 S
O195 C189 1.208 . S
O196 Cd197 2.223 . S
O196 C204 1.315 . S
Cd197 O196 2.223 . S
Cd197 O200 2.297 . S
Cd197 O201 2.439 . S
Cd197 O207 2.240 . S
Cd198 O199 2.240 . S
Cd198 O206 2.223 . S
Cd198 O208 2.297 1_455 S
Cd198 O209 2.439 1_455 S
O199 Cd198 2.240 . S
O199 C204 1.279 . S
O200 Cd197 2.297 . S
O200 C202 1.247 . S
O201 Cd197 2.439 . S
O201 C202 1.208 . S
C202 O200 1.247 . S
C202 O201 1.208 . S
C203 O208 1.247 . S
C203 O209 1.208 . S
C204 O196 1.315 . S
C204 O199 1.279 . S
C205 O206 1.315 . S
C205 O207 1.279 . S
O206 Cd198 2.223 . S
O206 C205 1.315 . S
O207 Cd197 2.240 . S
O207 C205 1.279 . S
O208 Cd198 2.297 1_655 S
O208 C203 1.247 . S
O209 Cd198 2.439 1_655 S
O209 C203 1.208 . S
O210 Cd211 2.223 . S
O210 C218 1.315 . S
Cd211 O210 2.223 . S
Cd211 O214 2.297 . S
Cd211 O215 2.439 1_455 S
Cd211 O221 2.240 . S
Cd212 O213 2.240 . S
Cd212 O220 2.223 1_655 S
Cd212 O222 2.297 . S
Cd212 O223 2.439 . S
O213 Cd212 2.240 . S
O213 C218 1.279 1_655 S
O214 Cd211 2.297 . S
O214 C216 1.247 1_455 S
O215 Cd211 2.439 1_655 S
O215 C216 1.208 . S
C216 O214 1.247 1_655 S
C216 O215 1.208 . S
C217 O222 1.247 . S
C217 O223 1.208 . S
C218 O210 1.315 . S
C218 O213 1.279 1_455 S
C219 O220 1.315 . S
C219 O221 1.279 . S
O220 Cd212 2.223 1_455 S
O220 C219 1.315 . S
O221 Cd211 2.240 . S
O221 C219 1.279 . S
O222 Cd212 2.297 . S
O222 C217 1.247 . S
O223 Cd212 2.439 . S
O223 C217 1.208 . S
O224 Cd225 2.223 . S
O224 C232 1.315 . S
Cd225 O224 2.223 . S
Cd225 O228 2.297 . S
Cd225 O229 2.439 . S
Cd225 O235 2.240 . S
Cd226 O227 2.240 . S
Cd226 O234 2.223 . S
Cd226 O236 2.297 . S
Cd226 O237 2.439 . S
O227 Cd226 2.240 . S
O227 C232 1.279 . S
O228 Cd225 2.297 . S
O228 C230 1.247 . S
O229 Cd225 2.439 . S
O229 C230 1.208 . S
C230 O228 1.247 . S
C230 O229 1.208 . S
C231 O236 1.247 . S
C231 O237 1.208 . S
C232 O224 1.315 . S
C232 O227 1.279 . S
C233 O234 1.315 . S
C233 O235 1.279 . S
O234 Cd226 2.223 . S
O234 C233 1.315 . S
O235 Cd225 2.240 . S
O235 C233 1.279 . S
O236 Cd226 2.297 . S
O236 C231 1.247 . S
O237 Cd226 2.439 . S
O237 C231 1.208 . S
O238 Cd239 2.223 . S
O238 C246 1.315 . S
Cd239 O238 2.223 . S
Cd239 O242 2.297 . S
Cd239 O243 2.439 1_565 S
Cd239 O249 2.240 . S
Cd240 O241 2.240 . S
Cd240 O248 2.223 1_545 S
Cd240 O250 2.297 . S
Cd240 O251 2.439 . S
O241 Cd240 2.240 . S
O241 C246 1.279 1_545 S
O242 Cd239 2.297 . S
O242 C244 1.247 1_565 S
O243 Cd239 2.439 1_545 S
O243 C244 1.208 . S
C244 O242 1.247 1_545 S
C244 O243 1.208 . S
C245 O250 1.247 . S
C245 O251 1.208 . S
C246 O238 1.315 . S
C246 O241 1.279 1_565 S
C247 O248 1.315 . S
C247 O249 1.279 . S
O248 Cd240 2.223 1_565 S
O248 C247 1.315 . S
O249 Cd239 2.240 . S
O249 C247 1.279 . S
O250 Cd240 2.297 . S
O250 C245 1.247 . S
O251 Cd240 2.439 . S
O251 C245 1.208 . S
C252 C253 1.391 . S
C252 C254 1.394 1_545 S
C252 H268 0.931 . S
C253 C252 1.391 . S
C253 C257 1.376 . S
C254 C252 1.394 1_565 S
C254 C255 1.369 . S
C254 C258 1.531 . S
C255 C254 1.369 . S
C255 C256 1.410 1_564 S
C255 C263 1.503 1_554 S
C256 C255 1.410 1_546 S
C256 C257 1.392 1_556 S
C256 C259 1.511 . S
C257 C253 1.376 . S
C257 C256 1.392 1_554 S
C257 H269 0.929 1_554 S
C258 C254 1.531 . S
C258 H270 0.960 . S
C258 H271 0.962 1_565 S
C258 H272 0.960 . S
C259 C256 1.511 . S
C259 H273 0.961 . S
C259 H274 0.961 . S
C259 H275 0.961 1_545 S
C260 C261 1.370 1_545 S
C260 C262 1.363 . S
C260 H276 0.931 . S
C261 C260 1.370 1_565 S
C261 C265 1.408 . S
C262 C260 1.363 . S
C262 C263 1.370 1_545 S
C262 C266 1.524 . S
C263 C255 1.503 1_556 S
C263 C262 1.370 1_565 S
C263 C264 1.403 . S
C264 C263 1.403 . S
C264 C265 1.404 . S
C264 C267 1.539 . S
C265 C261 1.408 . S
C265 C264 1.404 . S
C265 H277 0.930 . S
C266 C262 1.524 . S
C266 H278 0.956 1_556 S
C266 H279 0.961 . S
C266 H280 0.961 . S
C267 C264 1.539 . S
C267 H281 0.958 1_556 S
C267 H282 0.961 . S
C267 H283 0.960 . S
H268 C252 0.931 . S
H269 C257 0.929 1_556 S
H270 C258 0.960 . S
H271 C258 0.962 1_545 S
H272 C258 0.960 . S
H273 C259 0.961 . S
H274 C259 0.961 . S
H275 C259 0.961 1_565 S
H276 C260 0.931 . S
H277 C265 0.930 . S
H278 C266 0.956 1_554 S
H279 C266 0.961 . S
H280 C266 0.961 . S
H281 C267 0.958 1_554 S
H282 C267 0.961 . S
H283 C267 0.960 . S
C284 C285 1.391 . S
C284 C286 1.394 . S
C284 H300 0.931 . S
C285 C284 1.391 . S
C285 C289 1.376 1_655 S
C286 C284 1.394 . S
C286 C287 1.369 . S
C286 C290 1.531 . S
C287 C286 1.369 . S
C287 C288 1.410 1_655 S
C287 C295 1.503 1_654 S
C288 C287 1.410 1_455 S
C288 C289 1.392 . S
C288 C291 1.511 . S
C289 C285 1.376 1_455 S
C289 C288 1.392 . S
C289 H301 0.929 . S
C290 C286 1.531 . S
C290 H302 0.960 . S
C290 H303 0.962 1_554 S
C290 H304 0.960 . S
C291 C288 1.511 . S
C291 H305 0.961 . S
C291 H306 0.961 . S
C291 H307 0.961 . S
C292 C293 1.370 . S
C292 C294 1.363 . S
C292 H308 0.931 . S
C293 C292 1.370 . S
C293 C297 1.408 . S
C294 C292 1.363 . S
C294 C295 1.370 . S
C294 C298 1.524 . S
C295 C287 1.503 1_456 S
C295 C294 1.370 . S
C295 C296 1.403 1_556 S
C296 C295 1.403 1_554 S
C296 C297 1.404 1_554 S
C296 C299 1.539 1_455 S
C297 C293 1.408 . S
C297 C296 1.404 1_556 S
C297 H309 0.930 1_556 S
C298 C294 1.524 . S
C298 H310 0.956 1_455 S
C298 H311 0.961 . S
C298 H312 0.961 . S
C299 C296 1.539 1_655 S
C299 H313 0.958 . S
C299 H314 0.961 1_655 S
C299 H315 0.960 1_655 S
H300 C284 0.931 . S
H301 C289 0.929 . S
H302 C290 0.960 . S
H303 C290 0.962 1_556 S
H304 C290 0.960 . S
H305 C291 0.961 . S
H306 C291 0.961 . S
H307 C291 0.961 . S
H308 C292 0.931 . S
H309 C297 0.930 1_554 S
H310 C298 0.956 1_655 S
H311 C298 0.961 . S
H312 C298 0.961 . S
H313 C299 0.958 . S
H314 C299 0.961 1_455 S
H315 C299 0.960 1_455 S
C316 C317 1.391 . S
C316 C318 1.394 . S
C316 H332 0.931 . S
C317 C316 1.391 . S
C317 C321 1.376 . S
C318 C316 1.394 . S
C318 C319 1.369 . S
C318 C322 1.531 . S
C319 C318 1.369 . S
C319 C320 1.410 . S
C319 C327 1.503 1_556 S
C320 C319 1.410 . S
C320 C321 1.392 . S
C320 C323 1.511 . S
C321 C317 1.376 . S
C321 C320 1.392 . S
C321 H333 0.929 . S
C322 C318 1.531 . S
C322 H334 0.960 . S
C322 H335 0.962 1_556 S
C322 H336 0.960 . S
C323 C320 1.511 . S
C323 H337 0.961 . S
C323 H338 0.987 . S
C323 H339 0.961 . S
C324 C325 1.370 . S
C324 C326 1.363 . S
C324 H340 0.931 . S
C325 C324 1.370 . S
C325 C329 1.408 . S
C326 C324 1.363 . S
C326 C327 1.370 . S
C326 C330 1.524 . S
C327 C319 1.503 1_554 S
C327 C326 1.370 . S
C327 C328 1.403 1_554 S
C328 C327 1.403 1_556 S
C328 C329 1.404 1_556 S
C328 C331 1.539 . S
C329 C325 1.408 . S
C329 C328 1.404 1_554 S
C329 H341 0.930 1_554 S
C330 C326 1.524 . S
C330 H342 0.956 . S
C330 H343 0.961 . S
C330 H344 0.961 . S
C331 C328 1.539 . S
C331 H345 0.958 . S
C331 H346 0.961 . S
C331 H347 0.960 . S
H332 C316 0.931 . S
H333 C321 0.929 . S
H334 C322 0.960 . S
H335 C322 0.962 1_554 S
H336 C322 0.960 . S
H337 C323 0.961 . S
H338 C323 0.987 . S
H339 C323 0.961 . S
H340 C324 0.931 . S
H341 C329 0.930 1_556 S
H342 C330 0.956 . S
H343 C330 0.961 . S
H344 C330 0.961 . S
H345 C331 0.958 . S
H346 C331 0.961 . S
H347 C331 0.960 . S
C348 C349 1.391 . S
C348 C350 1.394 . S
C348 H364 0.931 . S
C349 C348 1.391 . S
C349 C353 1.376 . S
C350 C348 1.394 . S
C350 C351 1.369 . S
C350 C354 1.531 . S
C351 C350 1.369 . S
C351 C352 1.410 . S
C351 C359 1.503 . S
C352 C351 1.410 . S
C352 C353 1.392 . S
C352 C355 1.511 . S
C353 C349 1.376 . S
C353 C352 1.392 . S
C353 H365 0.929 . S
C354 C350 1.531 . S
C354 H366 0.960 . S
C354 H367 0.962 . S
C354 H368 0.960 . S
C355 C352 1.511 . S
C355 H369 0.961 . S
C355 H370 0.961 . S
C355 H371 0.961 . S
C356 C357 1.370 . S
C356 C358 1.363 . S
C356 H372 0.931 . S
C357 C356 1.370 . S
C357 C361 1.408 . S
C358 C356 1.363 . S
C358 C359 1.370 . S
C358 C362 1.524 . S
C359 C351 1.503 . S
C359 C358 1.370 . S
C359 C360 1.403 . S
C360 C359 1.403 . S
C360 C361 1.404 . S
C360 C363 1.539 . S
C361 C357 1.408 . S
C361 C360 1.404 . S
C361 H373 0.930 . S
C362 C358 1.524 . S
C362 H374 0.956 . S
C362 H375 0.961 . S
C362 H376 0.961 . S
C363 C360 1.539 . S
C363 H377 0.958 . S
C363 H378 0.961 . S
C363 H379 0.960 . S
H364 C348 0.931 . S
H365 C353 0.929 . S
H366 C354 0.960 . S
H367 C354 0.962 . S
H368 C354 0.960 . S
H369 C355 0.961 . S
H370 C355 0.961 . S
H371 C355 0.961 . S
H372 C356 0.931 . S
H373 C361 0.930 . S
H374 C362 0.956 . S
H375 C362 0.961 . S
H376 C362 0.961 . S
H377 C363 0.958 . S
H378 C363 0.961 . S
H379 C363 0.960 . S
C380 C381 1.391 . S
C380 C382 1.394 . S
C380 H396 0.931 . S
C381 C380 1.391 . S
C381 C385 1.376 . S
C382 C380 1.394 . S
C382 C383 1.369 . S
C382 C386 1.531 . S
C383 C382 1.369 . S
C383 C384 1.410 . S
C383 C391 1.503 . S
C384 C383 1.410 . S
C384 C385 1.392 . S
C384 C387 1.511 . S
C385 C381 1.376 . S
C385 C384 1.392 . S
C385 H397 0.929 . S
C386 C382 1.531 . S
C386 H398 0.960 . S
C386 H399 0.962 . S
C386 H400 0.960 . S
C387 C384 1.511 . S
C387 H401 0.961 . S
C387 H402 0.961 . S
C387 H403 0.961 . S
C388 C389 1.370 . S
C388 C390 1.363 . S
C388 H404 0.931 . S
C389 C388 1.370 . S
C389 C393 1.408 . S
C390 C388 1.363 . S
C390 C391 1.370 . S
C390 C394 1.524 . S
C391 C383 1.503 . S
C391 C390 1.370 . S
C391 C392 1.403 . S
C392 C391 1.403 . S
C392 C393 1.404 . S
C392 C395 1.539 . S
C393 C389 1.408 . S
C393 C392 1.404 . S
C393 H405 0.930 . S
C394 C390 1.524 . S
C394 H406 0.956 . S
C394 H407 0.961 . S
C394 H408 0.961 . S
C395 C392 1.539 . S
C395 H409 0.958 . S
C395 H410 0.961 . S
C395 H411 0.960 . S
H396 C380 0.931 . S
H397 C385 0.929 . S
H398 C386 0.960 . S
H399 C386 0.962 . S
H400 C386 0.960 . S
H401 C387 0.961 . S
H402 C387 0.961 . S
H403 C387 0.961 . S
H404 C388 0.931 . S
H405 C393 0.930 . S
H406 C394 0.956 . S
H407 C394 0.961 . S
H408 C394 0.961 . S
H409 C395 0.958 . S
H410 C395 0.961 . S
H411 C395 0.960 . S
C412 C413 1.391 . S
C412 C414 1.394 . S
C412 H428 0.931 . S
C413 C412 1.391 . S
C413 C417 1.376 . S
C414 C412 1.394 . S
C414 C415 1.369 . S
C414 C418 1.531 . S
C415 C414 1.369 . S
C415 C416 1.410 . S
C415 C423 1.503 . S
C416 C415 1.410 . S
C416 C417 1.392 . S
C416 C419 1.511 . S
C417 C413 1.376 . S
C417 C416 1.392 . S
C417 H429 0.929 . S
C418 C414 1.531 . S
C418 H430 0.960 . S
C418 H431 0.962 . S
C418 H432 0.960 . S
C419 C416 1.511 . S
C419 H433 0.961 . S
C419 H434 0.961 . S
C419 H435 0.961 . S
C420 C421 1.370 . S
C420 C422 1.363 . S
C420 H436 0.931 . S
C421 C420 1.370 . S
C421 C425 1.408 . S
C422 C420 1.363 . S
C422 C423 1.370 . S
C422 C426 1.524 . S
C423 C415 1.503 . S
C423 C422 1.370 . S
C423 C424 1.403 . S
C424 C423 1.403 . S
C424 C425 1.404 . S
C424 C427 1.539 . S
C425 C421 1.408 . S
C425 C424 1.404 . S
C425 H437 0.930 . S
C426 C422 1.524 . S
C426 H438 0.956 . S
C426 H439 0.961 . S
C426 H440 0.961 . S
C427 C424 1.539 . S
C427 H441 0.958 . S
C427 H442 0.961 . S
C427 H443 0.960 . S
H428 C412 0.931 . S
H429 C417 0.929 . S
H430 C418 0.960 . S
H431 C418 0.962 . S
H432 C418 0.960 . S
H433 C419 0.961 . S
H434 C419 0.961 . S
H435 C419 0.961 . S
H436 C420 0.931 . S
H437 C425 0.930 . S
H438 C426 0.956 . S
H439 C426 0.961 . S
H440 C426 0.961 . S
H441 C427 0.958 . S
H442 C427 0.961 . S
H443 C427 0.960 . S
C444 C445 1.391 . S
C444 C446 1.394 . S
C444 H460 0.931 . S
C445 C444 1.391 . S
C445 C449 1.376 . S
C446 C444 1.394 . S
C446 C447 1.369 . S
C446 C450 1.531 . S
C447 C446 1.369 . S
C447 C448 1.410 . S
C447 C455 1.503 . S
C448 C447 1.410 . S
C448 C449 1.392 . S
C448 C451 1.511 . S
C449 C445 1.376 . S
C449 C448 1.392 . S
C449 H461 0.929 . S
C450 C446 1.531 . S
C450 H462 0.960 . S
C450 H463 0.962 . S
C450 H464 0.960 . S
C451 C448 1.511 . S
C451 H465 0.961 . S
C451 H466 0.961 . S
C451 H467 0.961 . S
C452 C453 1.370 . S
C452 C454 1.363 . S
C452 H468 0.931 . S
C453 C452 1.370 . S
C453 C457 1.408 . S
C454 C452 1.363 . S
C454 C455 1.370 . S
C454 C458 1.524 . S
C455 C447 1.503 . S
C455 C454 1.370 . S
C455 C456 1.403 . S
C456 C455 1.403 . S
C456 C457 1.404 . S
C456 C459 1.539 . S
C457 C453 1.408 . S
C457 C456 1.404 . S
C457 H469 0.930 . S
C458 C454 1.524 . S
C458 H470 0.956 . S
C458 H471 0.961 . S
C458 H472 0.961 . S
C459 C456 1.539 . S
C459 H473 0.958 . S
C459 H474 0.961 . S
C459 H475 0.960 . S
H460 C444 0.931 . S
H461 C449 0.929 . S
H462 C450 0.960 . S
H463 C450 0.962 . S
H464 C450 0.960 . S
H465 C451 0.961 . S
H466 C451 0.961 . S
H467 C451 0.961 . S
H468 C452 0.931 . S
H469 C457 0.930 . S
H470 C458 0.956 . S
H471 C458 0.961 . S
H472 C458 0.961 . S
H473 C459 0.958 . S
H474 C459 0.961 . S
H475 C459 0.960 . S
C476 C477 1.391 . S
C476 C478 1.394 . S
C476 H492 0.931 . S
C477 C476 1.391 . S
C477 C481 1.376 . S
C478 C476 1.394 . S
C478 C479 1.369 . S
C478 C482 1.531 . S
C479 C478 1.369 . S
C479 C480 1.410 . S
C479 C487 1.503 . S
C480 C479 1.410 . S
C480 C481 1.392 . S
C480 C483 1.511 . S
C481 C477 1.376 . S
C481 C480 1.392 . S
C481 H493 0.929 . S
C482 C478 1.531 . S
C482 H494 0.960 . S
C482 H495 0.962 . S
C482 H496 0.960 . S
C483 C480 1.511 . S
C483 H497 0.961 . S
C483 H498 0.961 . S
C483 H499 0.961 . S
C484 C485 1.370 . S
C484 C486 1.363 . S
C484 H500 0.931 . S
C485 C484 1.370 . S
C485 C489 1.408 . S
C486 C484 1.363 . S
C486 C487 1.370 . S
C486 C490 1.524 . S
C487 C479 1.503 . S
C487 C486 1.370 . S
C487 C488 1.403 . S
C488 C487 1.403 . S
C488 C489 1.404 . S
C488 C491 1.539 . S
C489 C485 1.408 . S
C489 C488 1.404 . S
C489 H501 0.930 . S
C490 C486 1.524 . S
C490 H502 0.956 . S
C490 H503 0.961 . S
C490 H504 0.961 . S
C491 C488 1.539 . S
C491 H505 0.958 . S
C491 H506 0.961 . S
C491 H507 0.960 . S
H492 C476 0.931 . S
H493 C481 0.929 . S
H494 C482 0.960 . S
H495 C482 0.962 . S
H496 C482 0.960 . S
H497 C483 0.961 . S
H498 C483 0.961 . S
H499 C483 0.961 . S
H500 C484 0.931 . S
H501 C489 0.930 . S
H502 C490 0.956 . S
H503 C490 0.961 . S
H504 C490 0.961 . S
H505 C491 0.958 . S
H506 C491 0.961 . S
H507 C491 0.960 . S
C508 C509 1.391 . S
C508 C510 1.394 . S
C508 H524 0.931 . S
C509 C508 1.391 . S
C509 C513 1.376 . S
C510 C508 1.394 . S
C510 C511 1.369 . S
C510 C514 1.531 . S
C511 C510 1.369 . S
C511 C512 1.410 . S
C511 C519 1.503 . S
C512 C511 1.410 . S
C512 C513 1.392 . S
C512 C515 1.511 . S
C513 C509 1.376 . S
C513 C512 1.392 . S
C513 H525 0.929 . S
C514 C510 1.531 . S
C514 H526 0.960 . S
C514 H527 0.962 . S
C514 H528 0.960 . S
C515 C512 1.511 . S
C515 H529 0.961 . S
C515 H530 0.961 . S
C515 H531 0.961 . S
C516 C517 1.370 . S
C516 C518 1.363 . S
C516 H532 0.931 . S
C517 C516 1.370 . S
C517 C521 1.408 . S
C518 C516 1.363 . S
C518 C519 1.370 . S
C518 C522 1.524 . S
C519 C511 1.503 . S
C519 C518 1.370 . S
C519 C520 1.403 . S
C520 C519 1.403 . S
C520 C521 1.404 . S
C520 C523 1.539 . S
C521 C517 1.408 . S
C521 C520 1.404 . S
C521 H533 0.930 . S
C522 C518 1.524 . S
C522 H534 0.956 . S
C522 H535 0.961 . S
C522 H536 0.961 . S
C523 C520 1.539 . S
C523 H537 0.958 . S
C523 H538 0.961 . S
C523 H539 0.960 . S
H524 C508 0.931 . S
H525 C513 0.929 . S
H526 C514 0.960 . S
H527 C514 0.962 . S
H528 C514 0.960 . S
H529 C515 0.961 . S
H530 C515 0.961 . S
H531 C515 0.961 . S
H532 C516 0.931 . S
H533 C521 0.930 . S
H534 C522 0.956 . S
H535 C522 0.961 . S
H536 C522 0.961 . S
H537 C523 0.958 . S
H538 C523 0.961 . S
H539 C523 0.960 . S
C540 C541 1.391 . S
C540 C542 1.394 . S
C540 H556 0.931 . S
C541 C540 1.391 . S
C541 C545 1.376 . S
C542 C540 1.394 . S
C542 C543 1.369 . S
C542 C546 1.531 . S
C543 C542 1.369 . S
C543 C544 1.410 . S
C543 C551 1.503 . S
C544 C543 1.410 . S
C544 C545 1.392 . S
C544 C547 1.511 . S
C545 C541 1.376 . S
C545 C544 1.392 . S
C545 H557 0.929 . S
C546 C542 1.531 . S
C546 H558 0.960 . S
C546 H559 0.962 . S
C546 H560 0.960 . S
C547 C544 1.511 . S
C547 H561 0.961 . S
C547 H562 0.961 . S
C547 H563 0.961 . S
C548 C549 1.370 . S
C548 C550 1.363 . S
C548 H564 0.931 . S
C549 C548 1.370 . S
C549 C553 1.408 . S
C550 C548 1.363 . S
C550 C551 1.370 . S
C550 C554 1.524 . S
C551 C543 1.503 . S
C551 C550 1.370 . S
C551 C552 1.403 . S
C552 C551 1.403 . S
C552 C553 1.404 . S
C552 C555 1.539 . S
C553 C549 1.408 . S
C553 C552 1.404 . S
C553 H565 0.930 . S
C554 C550 1.524 . S
C554 H566 0.956 . S
C554 H567 0.961 . S
C554 H568 0.961 . S
C555 C552 1.539 . S
C555 H569 0.958 . S
C555 H570 0.961 . S
C555 H571 0.960 . S
H556 C540 0.931 . S
H557 C545 0.929 . S
H558 C546 0.960 . S
H559 C546 0.962 . S
H560 C546 0.960 . S
H561 C547 0.961 . S
H562 C547 0.961 . S
H563 C547 0.961 . S
H564 C548 0.931 . S
H565 C553 0.930 . S
H566 C554 0.956 . S
H567 C554 0.961 . S
H568 C554 0.961 . S
H569 C555 0.958 . S
H570 C555 0.961 . S
H571 C555 0.960 . S
C572 C573 1.391 . S
C572 C574 1.394 . S
C572 H588 0.931 . S
C573 C572 1.391 . S
C573 C577 1.376 . S
C574 C572 1.394 . S
C574 C575 1.369 . S
C574 C578 1.531 . S
C575 C574 1.369 . S
C575 C576 1.410 . S
C575 C583 1.503 . S
C576 C575 1.410 . S
C576 C577 1.392 . S
C576 C579 1.511 . S
C577 C573 1.376 . S
C577 C576 1.392 . S
C577 H589 0.929 . S
C578 C574 1.531 . S
C578 H590 0.960 . S
C578 H591 0.962 . S
C578 H592 0.960 . S
C579 C576 1.511 . S
C579 H593 0.961 . S
C579 H594 0.961 . S
C579 H595 0.961 . S
C580 C581 1.370 . S
C580 C582 1.363 . S
C580 H596 0.931 . S
C581 C580 1.370 . S
C581 C585 1.408 . S
C582 C580 1.363 . S
C582 C583 1.370 . S
C582 C586 1.524 . S
C583 C575 1.503 . S
C583 C582 1.370 . S
C583 C584 1.403 . S
C584 C583 1.403 . S
C584 C585 1.404 . S
C584 C587 1.539 . S
C585 C581 1.408 . S
C585 C584 1.404 . S
C585 H597 0.930 . S
C586 C582 1.524 . S
C586 H598 0.956 . S
C586 H599 0.961 . S
C586 H600 0.961 . S
C587 C584 1.539 . S
C587 H601 0.958 . S
C587 H602 0.961 . S
C587 H603 0.960 . S
H588 C572 0.931 . S
H589 C577 0.929 . S
H590 C578 0.960 . S
H591 C578 0.962 . S
H592 C578 0.960 . S
H593 C579 0.961 . S
H594 C579 0.961 . S
H595 C579 0.961 . S
H596 C580 0.931 . S
H597 C585 0.930 . S
H598 C586 0.956 . S
H599 C586 0.961 . S
H600 C586 0.961 . S
H601 C587 0.958 . S
H602 C587 0.961 . S
H603 C587 0.960 . S
C604 C605 1.391 . S
C604 C606 1.394 . S
C604 H620 0.931 . S
C605 C604 1.391 . S
C605 C609 1.376 . S
C606 C604 1.394 . S
C606 C607 1.369 . S
C606 C610 1.531 . S
C607 C606 1.369 . S
C607 C608 1.410 . S
C607 C615 1.503 . S
C608 C607 1.410 . S
C608 C609 1.392 . S
C608 C611 1.511 . S
C609 C605 1.376 . S
C609 C608 1.392 . S
C609 H621 0.929 . S
C610 C606 1.531 . S
C610 H622 0.960 . S
C610 H623 0.962 . S
C610 H624 0.960 . S
C611 C608 1.511 . S
C611 H625 0.961 . S
C611 H626 0.961 . S
C611 H627 0.961 . S
C612 C613 1.370 . S
C612 C614 1.363 . S
C612 H628 0.931 . S
C613 C612 1.370 . S
C613 C617 1.408 . S
C614 C612 1.363 . S
C614 C615 1.370 . S
C614 C618 1.524 . S
C615 C607 1.503 . S
C615 C614 1.370 . S
C615 C616 1.403 . S
C616 C615 1.403 . S
C616 C617 1.404 . S
C616 C619 1.539 . S
C617 C613 1.408 . S
C617 C616 1.404 . S
C617 H629 0.930 . S
C618 C614 1.524 . S
C618 H630 0.956 . S
C618 H631 0.961 . S
C618 H632 0.961 . S
C619 C616 1.539 . S
C619 H633 0.958 . S
C619 H634 0.961 . S
C619 H635 0.960 . S
H620 C604 0.931 . S
H621 C609 0.929 . S
H622 C610 0.960 . S
H623 C610 0.962 . S
H624 C610 0.960 . S
H625 C611 0.961 . S
H626 C611 0.961 . S
H627 C611 0.961 . S
H628 C612 0.931 . S
H629 C617 0.930 . S
H630 C618 0.956 . S
H631 C618 0.961 . S
H632 C618 0.961 . S
H633 C619 0.958 . S
H634 C619 0.961 . S
H635 C619 0.960 . S
C636 C637 1.391 . S
C636 C638 1.394 . S
C636 H652 0.931 . S
C637 C636 1.391 . S
C637 C641 1.376 . S
C638 C636 1.394 . S
C638 C639 1.369 . S
C638 C642 1.531 . S
C639 C638 1.369 . S
C639 C640 1.410 . S
C639 C647 1.503 . S
C640 C639 1.410 . S
C640 C641 1.392 . S
C640 C643 1.511 . S
C641 C637 1.376 . S
C641 C640 1.392 . S
C641 H653 0.929 . S
C642 C638 1.531 . S
C642 H654 0.960 . S
C642 H655 0.962 . S
C642 H656 0.960 . S
C643 C640 1.511 . S
C643 H657 0.961 . S
C643 H658 0.961 . S
C643 H659 0.961 . S
C644 C645 1.370 . S
C644 C646 1.363 . S
C644 H660 0.931 . S
C645 C644 1.370 . S
C645 C649 1.408 . S
C646 C644 1.363 . S
C646 C647 1.370 . S
C646 C650 1.524 . S
C647 C639 1.503 . S
C647 C646 1.370 . S
C647 C648 1.403 . S
C648 C647 1.403 . S
C648 C649 1.404 . S
C648 C651 1.539 . S
C649 C645 1.408 . S
C649 C648 1.404 . S
C649 H661 0.930 . S
C650 C646 1.524 . S
C650 H662 0.956 . S
C650 H663 0.961 . S
C650 H664 0.961 . S
C651 C648 1.539 . S
C651 H665 0.958 . S
C651 H666 0.961 . S
C651 H667 0.960 . S
H652 C636 0.931 . S
H653 C641 0.929 . S
H654 C642 0.960 . S
H655 C642 0.962 . S
H656 C642 0.960 . S
H657 C643 0.961 . S
H658 C643 0.961 . S
H659 C643 0.961 . S
H660 C644 0.931 . S
H661 C649 0.930 . S
H662 C650 0.956 . S
H663 C650 0.961 . S
H664 C650 0.961 . S
H665 C651 0.958 . S
H666 C651 0.961 . S
H667 C651 0.960 . S
C668 C669 1.391 . S
C668 C670 1.394 . S
C668 H684 0.931 . S
C669 C668 1.391 . S
C669 C673 1.376 . S
C670 C668 1.394 . S
C670 C671 1.369 . S
C670 C674 1.531 . S
C671 C670 1.369 . S
C671 C672 1.410 . S
C671 C679 1.503 . S
C672 C671 1.410 . S
C672 C673 1.392 . S
C672 C675 1.511 . S
C673 C669 1.376 . S
C673 C672 1.392 . S
C673 H685 0.929 . S
C674 C670 1.531 . S
C674 H686 0.960 . S
C674 H687 0.962 . S
C674 H688 0.960 . S
C675 C672 1.511 . S
C675 H689 0.961 . S
C675 H690 0.961 . S
C675 H691 0.961 . S
C676 C677 1.370 . S
C676 C678 1.363 . S
C676 H692 0.931 . S
C677 C676 1.370 . S
C677 C681 1.408 . S
C678 C676 1.363 . S
C678 C679 1.370 . S
C678 C682 1.524 . S
C679 C671 1.503 . S
C679 C678 1.370 . S
C679 C680 1.403 . S
C680 C679 1.403 . S
C680 C681 1.404 . S
C680 C683 1.539 . S
C681 C677 1.408 . S
C681 C680 1.404 . S
C681 H693 0.930 . S
C682 C678 1.524 . S
C682 H694 0.956 . S
C682 H695 0.961 . S
C682 H696 0.961 . S
C683 C680 1.539 . S
C683 H697 0.958 . S
C683 H698 0.961 . S
C683 H699 0.960 . S
H684 C668 0.931 . S
H685 C673 0.929 . S
H686 C674 0.960 . S
H687 C674 0.962 . S
H688 C674 0.960 . S
H689 C675 0.961 . S
H690 C675 0.961 . S
H691 C675 0.961 . S
H692 C676 0.931 . S
H693 C681 0.930 . S
H694 C682 0.956 . S
H695 C682 0.961 . S
H696 C682 0.961 . S
H697 C683 0.958 . S
H698 C683 0.961 . S
H699 C683 0.960 . S
C700 C701 1.391 . S
C700 C702 1.394 . S
C700 H716 0.931 . S
C701 C700 1.391 . S
C701 C705 1.376 . S
C702 C700 1.394 . S
C702 C703 1.369 . S
C702 C706 1.531 . S
C703 C702 1.369 . S
C703 C704 1.410 . S
C703 C711 1.503 . S
C704 C703 1.410 . S
C704 C705 1.392 . S
C704 C707 1.511 . S
C705 C701 1.376 . S
C705 C704 1.392 . S
C705 H717 0.929 . S
C706 C702 1.531 . S
C706 H718 0.960 . S
C706 H719 0.962 . S
C706 H720 0.960 . S
C707 C704 1.511 . S
C707 H721 0.961 . S
C707 H722 0.961 . S
C707 H723 0.961 . S
C708 C709 1.370 . S
C708 C710 1.363 . S
C708 H724 0.931 . S
C709 C708 1.370 . S
C709 C713 1.408 . S
C710 C708 1.363 . S
C710 C711 1.370 . S
C710 C714 1.524 . S
C711 C703 1.503 . S
C711 C710 1.370 . S
C711 C712 1.403 . S
C712 C711 1.403 . S
C712 C713 1.404 . S
C712 C715 1.539 . S
C713 C709 1.408 . S
C713 C712 1.404 . S
C713 H725 0.930 . S
C714 C710 1.524 . S
C714 H726 0.956 . S
C714 H727 0.961 . S
C714 H728 0.961 . S
C715 C712 1.539 . S
C715 H729 0.958 . S
C715 H730 0.961 . S
C715 H731 0.960 . S
H716 C700 0.931 . S
H717 C705 0.929 . S
H718 C706 0.960 . S
H719 C706 0.962 . S
H720 C706 0.960 . S
H721 C707 0.961 . S
H722 C707 0.961 . S
H723 C707 0.961 . S
H724 C708 0.931 . S
H725 C713 0.930 . S
H726 C714 0.956 . S
H727 C714 0.961 . S
H728 C714 0.961 . S
H729 C715 0.958 . S
H730 C715 0.961 . S
H731 C715 0.960 . S
C732 C733 1.391 . S
C732 C734 1.394 . S
C732 H748 0.931 . S
C733 C732 1.391 . S
C733 C737 1.376 1_455 S
C734 C732 1.394 . S
C734 C735 1.371 1_455 S
C734 C738 1.531 . S
C735 C734 1.371 1_655 S
C735 C736 1.409 . S
C735 C743 1.502 . S
C736 C735 1.409 . S
C736 C737 1.392 . S
C736 C739 1.511 . S
C737 C733 1.376 1_655 S
C737 C736 1.392 . S
C737 H749 0.929 . S
C738 C734 1.531 . S
C738 H750 0.960 . S
C738 H751 0.962 . S
C738 H752 0.960 . S
C739 C736 1.511 . S
C739 H753 0.961 . S
C739 H754 0.961 . S
C739 H755 0.961 . S
C740 C741 1.370 1_455 S
C740 C742 1.363 . S
C740 H756 0.931 . S
C741 C740 1.370 1_655 S
C741 C745 1.408 . S
C742 C740 1.363 . S
C742 C743 1.370 1_455 S
C742 C746 1.524 . S
C743 C735 1.502 . S
C743 C742 1.370 1_655 S
C743 C744 1.403 . S
C744 C743 1.403 . S
C744 C745 1.404 . S
C744 C747 1.539 . S
C745 C741 1.408 . S
C745 C744 1.404 . S
C745 H757 0.930 . S
C746 C742 1.524 . S
C746 H758 0.956 . S
C746 H759 0.961 . S
C746 H760 0.961 . S
C747 C744 1.539 . S
C747 H761 0.958 . S
C747 H762 0.961 . S
C747 H763 0.960 . S
H748 C732 0.931 . S
H749 C737 0.929 . S
H750 C738 0.960 . S
H751 C738 0.962 . S
H752 C738 0.960 . S
H753 C739 0.961 . S
H754 C739 0.961 . S
H755 C739 0.961 . S
H756 C740 0.931 . S
H757 C745 0.930 . S
H758 C746 0.956 . S
H759 C746 0.961 . S
H760 C746 0.961 . S
H761 C747 0.958 . S
H762 C747 0.961 . S
H763 C747 0.960 . S
C764 C765 1.391 . S
C764 C766 1.394 . S
C764 H780 0.931 . S
C765 C764 1.391 . S
C765 C769 1.376 . S
C766 C764 1.394 . S
C766 C767 1.369 . S
C766 C770 1.531 . S
C767 C766 1.369 . S
C767 C768 1.410 . S
C767 C775 1.503 . S
C768 C767 1.410 . S
C768 C769 1.392 . S
C768 C771 1.511 . S
C769 C765 1.376 . S
C769 C768 1.392 . S
C769 H781 0.929 . S
C770 C766 1.531 . S
C770 H782 0.960 . S
C770 H783 0.962 . S
C770 H784 0.960 . S
C771 C768 1.511 . S
C771 H785 0.961 . S
C771 H786 0.961 . S
C771 H787 0.961 . S
C772 C773 1.370 . S
C772 C774 1.363 . S
C772 H788 0.931 . S
C773 C772 1.370 . S
C773 C777 1.408 . S
C774 C772 1.363 . S
C774 C775 1.370 . S
C774 C778 1.524 . S
C775 C767 1.503 . S
C775 C774 1.370 . S
C775 C776 1.403 . S
C776 C775 1.403 . S
C776 C777 1.404 . S
C776 C779 1.539 . S
C777 C773 1.408 . S
C777 C776 1.404 . S
C777 H789 0.930 . S
C778 C774 1.524 . S
C778 H790 0.956 . S
C778 H791 0.961 . S
C778 H792 0.961 . S
C779 C776 1.539 . S
C779 H793 0.958 . S
C779 H794 0.961 . S
C779 H795 0.960 . S
H780 C764 0.931 . S
H781 C769 0.929 . S
H782 C770 0.960 . S
H783 C770 0.962 . S
H784 C770 0.960 . S
H785 C771 0.961 . S
H786 C771 0.961 . S
H787 C771 0.961 . S
H788 C772 0.931 . S
H789 C777 0.930 . S
H790 C778 0.956 . S
H791 C778 0.961 . S
H792 C778 0.961 . S
H793 C779 0.958 . S
H794 C779 0.961 . S
H795 C779 0.960 . S
C796 C797 1.391 . S
C796 C798 1.394 . S
C796 H812 0.931 . S
C797 C796 1.391 . S
C797 C801 1.376 1_545 S
C798 C796 1.394 . S
C798 C799 1.369 1_545 S
C798 C802 1.531 . S
C799 C798 1.369 1_565 S
C799 C800 1.410 . S
C799 C807 1.503 . S
C800 C799 1.410 . S
C800 C801 1.392 . S
C800 C803 1.511 . S
C801 C797 1.376 1_565 S
C801 C800 1.392 . S
C801 H813 0.929 . S
C802 C798 1.531 . S
C802 H814 0.960 . S
C802 H815 0.962 . S
C802 H816 0.960 . S
C803 C800 1.511 . S
C803 H817 0.961 . S
C803 H818 0.961 . S
C803 H819 0.961 . S
C804 C805 1.370 1_545 S
C804 C806 1.363 . S
C804 H820 0.931 . S
C805 C804 1.370 1_565 S
C805 C809 1.408 . S
C806 C804 1.363 . S
C806 C807 1.370 1_545 S
C806 C810 1.524 . S
C807 C799 1.503 . S
C807 C806 1.370 1_565 S
C807 C808 1.403 . S
C808 C807 1.403 . S
C808 C809 1.404 . S
C808 C811 1.539 . S
C809 C805 1.408 . S
C809 C808 1.404 . S
C809 H821 0.930 . S
C810 C806 1.524 . S
C810 H822 0.956 . S
C810 H823 0.961 . S
C810 H824 0.961 . S
C811 C808 1.539 . S
C811 H825 0.958 . S
C811 H826 0.961 . S
C811 H827 0.960 . S
H812 C796 0.931 . S
H813 C801 0.929 . S
H814 C802 0.960 . S
H815 C802 0.962 . S
H816 C802 0.960 . S
H817 C803 0.961 . S
H818 C803 0.961 . S
H819 C803 0.961 . S
H820 C804 0.931 . S
H821 C809 0.930 . S
H822 C810 0.956 . S
H823 C810 0.961 . S
H824 C810 0.961 . S
H825 C811 0.958 . S
H826 C811 0.961 . S
H827 C811 0.960 . S
C828 C829 1.391 . S
C828 C830 1.394 1_554 S
C828 H844 0.931 1_565 S
C829 C828 1.391 . S
C829 C833 1.376 . S
C830 C828 1.394 1_556 S
C830 C831 1.372 . S
C830 C834 1.531 . S
C831 C830 1.372 . S
C831 C832 1.397 1_556 S
C831 C839 1.511 . S
C832 C831 1.397 1_554 S
C832 C833 1.392 . S
C832 C835 1.511 . S
C833 C829 1.376 . S
C833 C832 1.392 . S
C833 H845 0.929 . S
C834 C830 1.531 . S
C834 H846 0.960 . S
C834 H847 0.962 . S
C834 H848 0.960 . S
C835 C832 1.511 . S
C835 H849 0.961 . S
C835 H850 0.961 . S
C835 H851 0.961 . S
C836 C837 1.370 . S
C836 C838 1.363 1_556 S
C836 H852 0.931 1_556 S
C837 C836 1.370 . S
C837 C841 1.408 . S
C838 C836 1.363 1_554 S
C838 C839 1.370 1_554 S
C838 C842 1.524 . S
C839 C831 1.511 . S
C839 C838 1.370 1_556 S
C839 C840 1.403 . S
C840 C839 1.403 . S
C840 C841 1.404 . S
C840 C843 1.539 . S
C841 C837 1.408 . S
C841 C840 1.404 . S
C841 H853 0.930 . S
C842 C838 1.524 . S
C842 H854 0.956 . S
C842 H855 0.961 . S
C842 H856 0.961 . S
C843 C840 1.539 . S
C843 H857 0.958 . S
C843 H858 0.961 . S
C843 H859 0.960 . S
H844 C828 0.931 1_545 S
H845 C833 0.929 . S
H846 C834 0.960 . S
H847 C834 0.962 . S
H848 C834 0.960 . S
H849 C835 0.961 . S
H850 C835 0.961 . S
H851 C835 0.961 . S
H852 C836 0.931 1_554 S
H853 C841 0.930 . S
H854 C842 0.956 . S
H855 C842 0.961 . S
H856 C842 0.961 . S
H857 C843 0.958 . S
H858 C843 0.961 . S
H859 C843 0.960 . S
C860 C861 1.391 . S
C860 C862 1.394 . S
C860 H876 0.931 . S
C861 C860 1.391 . S
C861 C865 1.376 . S
C862 C860 1.394 . S
C862 C863 1.373 1_554 S
C862 C866 1.531 . S
C863 C862 1.373 1_556 S
C863 C864 1.408 . S
C863 C871 1.501 . S
C864 C863 1.408 . S
C864 C865 1.392 1_556 S
C864 C867 1.511 . S
C865 C861 1.376 . S
C865 C864 1.392 1_554 S
C865 H877 0.929 . S
C866 C862 1.531 . S
C866 H878 0.960 . S
C866 H879 0.962 . S
C866 H880 0.960 . S
C867 C864 1.511 . S
C867 H881 0.961 . S
C867 H882 0.961 . S
C867 H883 0.961 . S
C868 C869 1.370 . S
C868 C870 1.363 1_556 S
C868 H884 0.931 1_556 S
C869 C868 1.370 . S
C869 C873 1.408 . S
C870 C868 1.363 1_554 S
C870 C871 1.370 1_554 S
C870 C874 1.524 . S
C871 C863 1.501 . S
C871 C870 1.370 1_556 S
C871 C872 1.403 . S
C872 C871 1.403 . S
C872 C873 1.404 . S
C872 C875 1.539 . S
C873 C869 1.408 . S
C873 C872 1.404 . S
C873 H885 0.930 . S
C874 C870 1.524 . S
C874 H886 0.956 . S
C874 H887 0.961 . S
C874 H888 0.961 . S
C875 C872 1.539 . S
C875 H889 0.958 . S
C875 H890 0.961 . S
C875 H891 0.960 . S
H876 C860 0.931 . S
H877 C865 0.929 . S
H878 C866 0.960 . S
H879 C866 0.962 . S
H880 C866 0.960 . S
H881 C867 0.961 . S
H882 C867 0.961 . S
H883 C867 0.961 . S
H884 C868 0.931 1_554 S
H885 C873 0.930 . S
H886 C874 0.956 . S
H887 C874 0.961 . S
H888 C874 0.961 . S
H889 C875 0.958 . S
H890 C875 0.961 . S
H891 C875 0.960 . S
C892 C893 1.391 . S
C892 C894 1.394 . S
C892 H908 0.931 . S
C893 C892 1.391 . S
C893 C897 1.376 . S
C894 C892 1.394 . S
C894 C895 1.369 . S
C894 C898 1.531 . S
C895 C894 1.369 . S
C895 C896 1.410 1_554 S
C895 C903 1.503 1_554 S
C896 C895 1.410 1_556 S
C896 C897 1.392 1_556 S
C896 C899 1.511 . S
C897 C893 1.376 . S
C897 C896 1.392 1_554 S
C897 H909 0.929 1_554 S
C898 C894 1.531 . S
C898 H910 0.960 . S
C898 H911 0.962 . S
C898 H912 0.960 . S
C899 C896 1.511 . S
C899 H913 0.961 . S
C899 H914 0.961 . S
C899 H915 0.961 . S
C900 C901 1.370 . S
C900 C902 1.363 . S
C900 H916 0.931 . S
C901 C900 1.370 . S
C901 C905 1.408 . S
C902 C900 1.363 . S
C902 C903 1.370 . S
C902 C906 1.524 . S
C903 C895 1.503 1_556 S
C903 C902 1.370 . S
C903 C904 1.403 1_556 S
C904 C903 1.403 1_554 S
C904 C905 1.404 1_554 S
C904 C907 1.539 . S
C905 C901 1.408 . S
C905 C904 1.404 1_556 S
C905 H917 0.930 . S
C906 C902 1.524 . S
C906 H918 0.956 . S
C906 H919 0.961 . S
C906 H920 0.961 . S
C907 C904 1.539 . S
C907 H921 0.958 . S
C907 H922 0.961 . S
C907 H923 0.960 . S
H908 C892 0.931 . S
H909 C897 0.929 1_556 S
H910 C898 0.960 . S
H911 C898 0.962 . S
H912 C898 0.960 . S
H913 C899 0.961 . S
H914 C899 0.961 . S
H915 C899 0.961 . S
H916 C900 0.931 . S
H917 C905 0.930 . S
H918 C906 0.956 . S
H919 C906 0.961 . S
H920 C906 0.961 . S
H921 C907 0.958 . S
H922 C907 0.961 . S
H923 C907 0.960 . S
C924 C925 1.391 . S
C924 C926 1.394 . S
C924 H940 0.931 1_545 S
C925 C924 1.391 . S
C925 C929 1.376 . S
C926 C924 1.394 . S
C926 C927 1.369 . S
C926 C930 1.531 1_556 S
C927 C926 1.369 . S
C927 C928 1.410 . S
C927 C935 1.503 1_556 S
C928 C927 1.410 . S
C928 C929 1.392 . S
C928 C931 1.511 . S
C929 C925 1.376 . S
C929 C928 1.392 . S
C929 H941 0.929 . S
C930 C926 1.531 1_554 S
C930 H942 0.960 . S
C930 H943 0.962 . S
C930 H944 0.960 . S
C931 C928 1.511 . S
C931 H945 0.961 . S
C931 H946 0.961 . S
C931 H947 0.961 . S
C932 C933 1.370 . S
C932 C934 1.363 . S
C932 H948 0.931 . S
C933 C932 1.370 . S
C933 C937 1.408 . S
C934 C932 1.363 . S
C934 C935 1.370 . S
C934 C938 1.524 . S
C935 C927 1.503 1_554 S
C935 C934 1.370 . S
C935 C936 1.403 1_554 S
C936 C935 1.403 1_556 S
C936 C937 1.404 1_556 S
C936 C939 1.539 . S
C937 C933 1.408 . S
C937 C936 1.404 1_554 S
C937 H949 0.930 1_554 S
C938 C934 1.524 . S
C938 H950 0.956 . S
C938 H951 0.961 . S
C938 H952 0.961 . S
C939 C936 1.539 . S
C939 H953 0.958 . S
C939 H954 0.961 . S
C939 H955 0.960 . S
H940 C924 0.931 1_565 S
H941 C929 0.929 . S
H942 C930 0.960 . S
H943 C930 0.962 . S
H944 C930 0.960 . S
H945 C931 0.961 . S
H946 C931 0.961 . S
H947 C931 0.961 . S
H948 C932 0.931 . S
H949 C937 0.930 1_556 S
H950 C938 0.956 . S
H951 C938 0.961 . S
H952 C938 0.961 . S
H953 C939 0.958 . S
H954 C939 0.961 . S
H955 C939 0.960 . S
C956 C957 1.391 . S
C956 C958 1.394 . S
C956 H972 0.931 . S
C957 C956 1.391 . S
C957 C961 1.376 . S
C958 C956 1.394 . S
C958 C959 1.369 . S
C958 C962 1.531 . S
C959 C958 1.369 . S
C959 C960 1.410 . S
C959 C967 1.503 1_554 S
C960 C959 1.410 . S
C960 C961 1.392 . S
C960 C963 1.511 1_554 S
C961 C957 1.376 . S
C961 C960 1.392 . S
C961 H973 0.929 . S
C962 C958 1.531 . S
C962 H974 0.960 1_554 S
C962 H975 0.962 . S
C962 H976 0.960 . S
C963 C960 1.511 1_556 S
C963 H977 0.961 1_556 S
C963 H978 0.961 . S
C963 H979 0.961 . S
C964 C965 1.370 . S
C964 C966 1.363 1_556 S
C964 H980 0.931 1_556 S
C965 C964 1.370 . S
C965 C969 1.408 . S
C966 C964 1.363 1_554 S
C966 C967 1.370 1_554 S
C966 C970 1.524 . S
C967 C959 1.503 1_556 S
C967 C966 1.370 1_556 S
C967 C968 1.403 . S
C968 C967 1.403 . S
C968 C969 1.404 . S
C968 C971 1.539 . S
C969 C965 1.408 . S
C969 C968 1.404 . S
C969 H981 0.930 . S
C970 C966 1.524 . S
C970 H982 0.956 . S
C970 H983 0.961 . S
C970 H984 0.961 . S
C971 C968 1.539 . S
C971 H985 0.958 . S
C971 H986 0.961 . S
C971 H987 0.960 . S
H972 C956 0.931 . S
H973 C961 0.929 . S
H974 C962 0.960 1_556 S
H975 C962 0.962 . S
H976 C962 0.960 . S
H977 C963 0.961 1_554 S
H978 C963 0.961 . S
H979 C963 0.961 . S
H980 C964 0.931 1_554 S
H981 C969 0.930 . S
H982 C970 0.956 . S
H983 C970 0.961 . S
H984 C970 0.961 . S
H985 C971 0.958 . S
H986 C971 0.961 . S
H987 C971 0.960 . S
C988 C989 1.391 . S
C988 C990 1.394 1_556 S
C988 H1004 0.925 1_556 S
C989 C988 1.391 . S
C989 C993 1.376 . S
C990 C988 1.394 1_554 S
C990 C991 1.362 1_554 S
C990 C994 1.531 . S
C991 C990 1.362 1_556 S
C991 C992 1.428 . S
C991 C999 1.494 1_556 S
C992 C991 1.428 . S
C992 C993 1.392 . S
C992 C995 1.511 . S
C993 C989 1.376 . S
C993 C992 1.392 . S
C993 H1005 0.929 . S
C994 C990 1.531 . S
C994 H1006 0.960 . S
C994 H1007 0.962 . S
C994 H1008 0.960 . S
C995 C992 1.511 . S
C995 H1009 0.961 . S
C995 H1010 0.961 . S
C995 H1011 0.961 . S
C996 C997 1.370 . S
C996 C998 1.363 1_554 S
C996 H1012 0.951 . S
C997 C996 1.370 . S
C997 C1001 1.408 . S
C998 C996 1.363 1_556 S
C998 C999 1.370 1_556 S
C998 C1002 1.524 . S
C999 C991 1.494 1_554 S
C999 C998 1.370 1_554 S
C999 C1000 1.403 . S
C1000 C999 1.403 . S
C1000 C1001 1.404 . S
C1000 C1003 1.539 . S
C1001 C997 1.408 . S
C1001 C1000 1.404 . S
C1001 H1013 0.930 . S
C1002 C998 1.524 . S
C1002 H1014 0.956 . S
C1002 H1015 0.961 . S
C1002 H1016 0.961 . S
C1003 C1000 1.539 . S
C1003 H1017 0.958 . S
C1003 H1018 0.961 . S
C1003 H1019 0.960 . S
H1004 C988 0.925 1_554 S
H1005 C993 0.929 . S
H1006 C994 0.960 . S
H1007 C994 0.962 . S
H1008 C994 0.960 . S
H1009 C995 0.961 . S
H1010 C995 0.961 . S
H1011 C995 0.961 . S
H1012 C996 0.951 . S
H1013 C1001 0.930 . S
H1014 C1002 0.956 . S
H1015 C1002 0.961 . S
H1016 C1002 0.961 . S
H1017 C1003 0.958 . S
H1018 C1003 0.961 . S
H1019 C1003 0.960 . S
C1020 C1021 1.391 . S
C1020 C1022 1.394 . S
C1020 H1036 0.931 . S
C1021 C1020 1.391 . S
C1021 C1025 1.376 . S
C1022 C1020 1.394 . S
C1022 C1023 1.369 . S
C1022 C1026 1.531 . S
C1023 C1022 1.369 . S
C1023 C1024 1.410 . S
C1023 C1031 1.503 . S
C1024 C1023 1.410 . S
C1024 C1025 1.392 . S
C1024 C1027 1.511 . S
C1025 C1021 1.376 . S
C1025 C1024 1.392 . S
C1025 H1037 0.929 . S
C1026 C1022 1.531 . S
C1026 H1038 0.960 . S
C1026 H1039 0.962 . S
C1026 H1040 0.960 . S
C1027 C1024 1.511 . S
C1027 H1041 0.961 . S
C1027 H1042 0.961 . S
C1027 H1043 0.961 . S
C1028 C1029 1.370 . S
C1028 C1030 1.363 . S
C1028 H1044 0.931 . S
C1029 C1028 1.370 . S
C1029 C1033 1.408 . S
C1030 C1028 1.363 . S
C1030 C1031 1.370 . S
C1030 C1034 1.524 . S
C1031 C1023 1.503 . S
C1031 C1030 1.370 . S
C1031 C1032 1.403 . S
C1032 C1031 1.403 . S
C1032 C1033 1.404 . S
C1032 C1035 1.539 . S
C1033 C1029 1.408 . S
C1033 C1032 1.404 . S
C1033 H1045 0.930 . S
C1034 C1030 1.524 . S
C1034 H1046 0.956 . S
C1034 H1047 0.961 . S
C1034 H1048 0.961 . S
C1035 C1032 1.539 . S
C1035 H1049 0.958 . S
C1035 H1050 0.961 . S
C1035 H1051 0.960 . S
H1036 C1020 0.931 . S
H1037 C1025 0.929 . S
H1038 C1026 0.960 . S
H1039 C1026 0.962 . S
H1040 C1026 0.960 . S
H1041 C1027 0.961 . S
H1042 C1027 0.961 . S
H1043 C1027 0.961 . S
H1044 C1028 0.931 . S
H1045 C1033 0.930 . S
H1046 C1034 0.956 . S
H1047 C1034 0.961 . S
H1048 C1034 0.961 . S
H1049 C1035 0.958 . S
H1050 C1035 0.961 . S
H1051 C1035 0.960 . S
C1052 C1053 1.391 . S
C1052 C1054 1.394 . S
C1052 H1068 0.931 . S
C1053 C1052 1.391 . S
C1053 C1057 1.376 . S
C1054 C1052 1.394 . S
C1054 C1055 1.369 . S
C1054 C1058 1.531 . S
C1055 C1054 1.369 . S
C1055 C1056 1.410 . S
C1055 C1063 1.503 . S
C1056 C1055 1.410 . S
C1056 C1057 1.392 . S
C1056 C1059 1.511 . S
C1057 C1053 1.376 . S
C1057 C1056 1.392 . S
C1057 H1069 0.929 . S
C1058 C1054 1.531 . S
C1058 H1070 0.960 . S
C1058 H1071 0.962 . S
C1058 H1072 0.960 . S
C1059 C1056 1.511 . S
C1059 H1073 0.961 . S
C1059 H1074 0.961 . S
C1059 H1075 0.961 . S
C1060 C1061 1.370 . S
C1060 C1062 1.363 . S
C1060 H1076 0.931 . S
C1061 C1060 1.370 . S
C1061 C1065 1.408 . S
C1062 C1060 1.363 . S
C1062 C1063 1.370 . S
C1062 C1066 1.524 . S
C1063 C1055 1.503 . S
C1063 C1062 1.370 . S
C1063 C1064 1.403 . S
C1064 C1063 1.403 . S
C1064 C1065 1.404 . S
C1064 C1067 1.539 . S
C1065 C1061 1.408 . S
C1065 C1064 1.404 . S
C1065 H1077 0.930 . S
C1066 C1062 1.524 . S
C1066 H1078 0.956 . S
C1066 H1079 0.961 . S
C1066 H1080 0.961 . S
C1067 C1064 1.539 . S
C1067 H1081 0.958 . S
C1067 H1082 0.961 . S
C1067 H1083 0.960 . S
H1068 C1052 0.931 . S
H1069 C1057 0.929 . S
H1070 C1058 0.960 . S
H1071 C1058 0.962 . S
H1072 C1058 0.960 . S
H1073 C1059 0.961 . S
H1074 C1059 0.961 . S
H1075 C1059 0.961 . S
H1076 C1060 0.931 . S
H1077 C1065 0.930 . S
H1078 C1066 0.956 . S
H1079 C1066 0.961 . S
H1080 C1066 0.961 . S
H1081 C1067 0.958 . S
H1082 C1067 0.961 . S
H1083 C1067 0.960 . S
C1084 C1085 1.391 . S
C1084 C1086 1.394 . S
C1084 H1100 0.931 . S
C1085 C1084 1.391 . S
C1085 C1089 1.376 . S
C1086 C1084 1.394 . S
C1086 C1087 1.369 . S
C1086 C1090 1.531 . S
C1087 C1086 1.369 . S
C1087 C1088 1.410 . S
C1087 C1095 1.503 . S
C1088 C1087 1.410 . S
C1088 C1089 1.392 . S
C1088 C1091 1.511 . S
C1089 C1085 1.376 . S
C1089 C1088 1.392 . S
C1089 H1101 0.929 . S
C1090 C1086 1.531 . S
C1090 H1102 0.960 . S
C1090 H1103 0.962 . S
C1090 H1104 0.960 . S
C1091 C1088 1.511 . S
C1091 H1105 0.961 . S
C1091 H1106 0.961 . S
C1091 H1107 0.961 . S
C1092 C1093 1.370 . S
C1092 C1094 1.363 . S
C1092 H1108 0.931 . S
C1093 C1092 1.370 . S
C1093 C1097 1.408 . S
C1094 C1092 1.363 . S
C1094 C1095 1.370 . S
C1094 C1098 1.524 . S
C1095 C1087 1.503 . S
C1095 C1094 1.370 . S
C1095 C1096 1.403 . S
C1096 C1095 1.403 . S
C1096 C1097 1.404 . S
C1096 C1099 1.539 . S
C1097 C1093 1.408 . S
C1097 C1096 1.404 . S
C1097 H1109 0.930 . S
C1098 C1094 1.524 . S
C1098 H1110 0.956 . S
C1098 H1111 0.961 . S
C1098 H1112 0.961 . S
C1099 C1096 1.539 . S
C1099 H1113 0.958 . S
C1099 H1114 0.961 . S
C1099 H1115 0.960 . S
H1100 C1084 0.931 . S
H1101 C1089 0.929 . S
H1102 C1090 0.960 . S
H1103 C1090 0.962 . S
H1104 C1090 0.960 . S
H1105 C1091 0.961 . S
H1106 C1091 0.961 . S
H1107 C1091 0.961 . S
H1108 C1092 0.931 . S
H1109 C1097 0.930 . S
H1110 C1098 0.956 . S
H1111 C1098 0.961 . S
H1112 C1098 0.961 . S
H1113 C1099 0.958 . S
H1114 C1099 0.961 . S
H1115 C1099 0.960 . S
C1116 C1117 1.391 . S
C1116 C1118 1.394 . S
C1116 H1132 0.931 . S
C1117 C1116 1.391 . S
C1117 C1121 1.376 . S
C1118 C1116 1.394 . S
C1118 C1119 1.369 . S
C1118 C1122 1.531 . S
C1119 C1118 1.369 . S
C1119 C1120 1.410 . S
C1119 C1127 1.503 . S
C1120 C1119 1.410 . S
C1120 C1121 1.392 . S
C1120 C1123 1.511 . S
C1121 C1117 1.376 . S
C1121 C1120 1.392 . S
C1121 H1133 0.929 . S
C1122 C1118 1.531 . S
C1122 H1134 0.960 . S
C1122 H1135 0.962 . S
C1122 H1136 0.960 . S
C1123 C1120 1.511 . S
C1123 H1137 0.961 . S
C1123 H1138 0.961 . S
C1123 H1139 0.961 . S
C1124 C1125 1.370 . S
C1124 C1126 1.363 . S
C1124 H1140 0.931 . S
C1125 C1124 1.370 . S
C1125 C1129 1.408 . S
C1126 C1124 1.363 . S
C1126 C1127 1.370 . S
C1126 C1130 1.524 . S
C1127 C1119 1.503 . S
C1127 C1126 1.370 . S
C1127 C1128 1.403 . S
C1128 C1127 1.403 . S
C1128 C1129 1.404 . S
C1128 C1131 1.539 . S
C1129 C1125 1.408 . S
C1129 C1128 1.404 . S
C1129 H1141 0.930 . S
C1130 C1126 1.524 . S
C1130 H1142 0.956 . S
C1130 H1143 0.961 . S
C1130 H1144 0.961 . S
C1131 C1128 1.539 . S
C1131 H1145 0.958 . S
C1131 H1146 0.961 . S
C1131 H1147 0.960 . S
H1132 C1116 0.931 . S
H1133 C1121 0.929 . S
H1134 C1122 0.960 . S
H1135 C1122 0.962 . S
H1136 C1122 0.960 . S
H1137 C1123 0.961 . S
H1138 C1123 0.961 . S
H1139 C1123 0.961 . S
H1140 C1124 0.931 . S
H1141 C1129 0.930 . S
H1142 C1130 0.956 . S
H1143 C1130 0.961 . S
H1144 C1130 0.961 . S
H1145 C1131 0.958 . S
H1146 C1131 0.961 . S
H1147 C1131 0.960 . S
C1148 C1149 1.391 . S
C1148 C1150 1.394 . S
C1148 H1164 0.931 . S
C1149 C1148 1.391 . S
C1149 C1153 1.376 . S
C1150 C1148 1.394 . S
C1150 C1151 1.369 . S
C1150 C1154 1.531 . S
C1151 C1150 1.369 . S
C1151 C1152 1.410 . S
C1151 C1159 1.503 . S
C1152 C1151 1.410 . S
C1152 C1153 1.392 . S
C1152 C1155 1.511 . S
C1153 C1149 1.376 . S
C1153 C1152 1.392 . S
C1153 H1165 0.929 . S
C1154 C1150 1.531 . S
C1154 H1166 0.960 . S
C1154 H1167 0.962 . S
C1154 H1168 0.960 . S
C1155 C1152 1.511 . S
C1155 H1169 0.958 1_545 S
C1155 H1170 0.961 . S
C1155 H1171 0.961 . S
C1156 C1157 1.370 . S
C1156 C1158 1.363 . S
C1156 H1172 0.931 1_545 S
C1157 C1156 1.370 . S
C1157 C1161 1.408 . S
C1158 C1156 1.363 . S
C1158 C1159 1.370 . S
C1158 C1162 1.524 1_545 S
C1159 C1151 1.503 . S
C1159 C1158 1.370 . S
C1159 C1160 1.403 . S
C1160 C1159 1.403 . S
C1160 C1161 1.404 . S
C1160 C1163 1.539 . S
C1161 C1157 1.408 . S
C1161 C1160 1.404 . S
C1161 H1173 0.930 . S
C1162 C1158 1.524 1_565 S
C1162 H1174 0.956 . S
C1162 H1175 0.961 . S
C1162 H1176 0.961 . S
C1163 C1160 1.539 . S
C1163 H1177 0.958 . S
C1163 H1178 0.961 . S
C1163 H1179 0.960 . S
H1164 C1148 0.931 . S
H1165 C1153 0.929 . S
H1166 C1154 0.960 . S
H1167 C1154 0.962 . S
H1168 C1154 0.960 . S
H1169 C1155 0.958 1_565 S
H1170 C1155 0.961 . S
H1171 C1155 0.961 . S
H1172 C1156 0.931 1_565 S
H1173 C1161 0.930 . S
H1174 C1162 0.956 . S
H1175 C1162 0.961 . S
H1176 C1162 0.961 . S
H1177 C1163 0.958 . S
H1178 C1163 0.961 . S
H1179 C1163 0.960 . S
C1180 C1181 1.391 . S
C1180 C1182 1.394 . S
C1180 H1196 0.931 . S
C1181 C1180 1.391 . S
C1181 C1185 1.376 . S
C1182 C1180 1.394 . S
C1182 C1183 1.369 . S
C1182 C1186 1.531 . S
C1183 C1182 1.369 . S
C1183 C1184 1.410 . S
C1183 C1191 1.503 . S
C1184 C1183 1.410 . S
C1184 C1185 1.392 . S
C1184 C1187 1.511 1_655 S
C1185 C1181 1.376 . S
C1185 C1184 1.392 . S
C1185 H1197 0.929 . S
C1186 C1182 1.531 . S
C1186 H1198 0.960 . S
C1186 H1199 0.962 . S
C1186 H1200 0.960 . S
C1187 C1184 1.511 1_455 S
C1187 H1201 0.961 . S
C1187 H1202 0.961 . S
C1187 H1203 0.961 . S
C1188 C1189 1.370 . S
C1188 C1190 1.363 . S
C1188 H1204 0.931 . S
C1189 C1188 1.370 . S
C1189 C1193 1.408 . S
C1190 C1188 1.363 . S
C1190 C1191 1.370 . S
C1190 C1194 1.524 . S
C1191 C1183 1.503 . S
C1191 C1190 1.370 . S
C1191 C1192 1.403 . S
C1192 C1191 1.403 . S
C1192 C1193 1.404 . S
C1192 C1195 1.539 . S
C1193 C1189 1.408 . S
C1193 C1192 1.404 . S
C1193 H1205 0.930 . S
C1194 C1190 1.524 . S
C1194 H1206 0.956 . S
C1194 H1207 0.961 1_655 S
C1194 H1208 0.963 . S
C1195 C1192 1.539 . S
C1195 H1209 0.958 . S
C1195 H1210 0.961 . S
C1195 H1211 0.960 . S
H1196 C1180 0.931 . S
H1197 C1185 0.929 . S
H1198 C1186 0.960 . S
H1199 C1186 0.962 . S
H1200 C1186 0.960 . S
H1201 C1187 0.961 . S
H1202 C1187 0.961 . S
H1203 C1187 0.961 . S
H1204 C1188 0.931 . S
H1205 C1193 0.930 . S
H1206 C1194 0.956 . S
H1207 C1194 0.961 1_455 S
H1208 C1194 0.963 . S
H1209 C1195 0.958 . S
H1210 C1195 0.961 . S
H1211 C1195 0.960 . S
C1212 C1213 1.391 . S
C1212 C1214 1.394 . S
C1212 H1228 0.931 . S
C1213 C1212 1.391 . S
C1213 C1217 1.376 . S
C1214 C1212 1.394 . S
C1214 C1215 1.369 . S
C1214 C1218 1.531 . S
C1215 C1214 1.369 . S
C1215 C1216 1.410 . S
C1215 C1223 1.503 . S
C1216 C1215 1.410 . S
C1216 C1217 1.392 . S
C1216 C1219 1.511 . S
C1217 C1213 1.376 . S
C1217 C1216 1.392 . S
C1217 H1229 0.929 . S
C1218 C1214 1.531 . S
C1218 H1230 0.960 . S
C1218 H1231 0.962 . S
C1218 H1232 0.960 . S
C1219 C1216 1.511 . S
C1219 H1233 0.961 . S
C1219 H1234 0.961 . S
C1219 H1235 0.961 . S
C1220 C1221 1.370 . S
C1220 C1222 1.363 . S
C1220 H1236 0.931 . S
C1221 C1220 1.370 . S
C1221 C1225 1.408 . S
C1222 C1220 1.363 . S
C1222 C1223 1.370 . S
C1222 C1226 1.524 . S
C1223 C1215 1.503 . S
C1223 C1222 1.370 . S
C1223 C1224 1.403 . S
C1224 C1223 1.403 . S
C1224 C1225 1.404 . S
C1224 C1227 1.539 . S
C1225 C1221 1.408 . S
C1225 C1224 1.404 . S
C1225 H1237 0.930 . S
C1226 C1222 1.524 . S
C1226 H1238 0.956 . S
C1226 H1239 0.961 . S
C1226 H1240 0.961 . S
C1227 C1224 1.539 . S
C1227 H1241 0.958 . S
C1227 H1242 0.961 . S
C1227 H1243 0.960 . S
H1228 C1212 0.931 . S
H1229 C1217 0.929 . S
H1230 C1218 0.960 . S
H1231 C1218 0.962 . S
H1232 C1218 0.960 . S
H1233 C1219 0.961 . S
H1234 C1219 0.961 . S
H1235 C1219 0.961 . S
H1236 C1220 0.931 . S
H1237 C1225 0.930 . S
H1238 C1226 0.956 . S
H1239 C1226 0.961 . S
H1240 C1226 0.961 . S
H1241 C1227 0.958 . S
H1242 C1227 0.961 . S
H1243 C1227 0.960 . S
C1244 C1245 1.391 . S
C1244 C1246 1.394 . S
C1244 H1260 0.931 . S
C1245 C1244 1.391 . S
C1245 C1249 1.376 . S
C1246 C1244 1.394 . S
C1246 C1247 1.369 . S
C1246 C1250 1.531 . S
C1247 C1246 1.369 . S
C1247 C1248 1.410 . S
C1247 C1255 1.503 . S
C1248 C1247 1.410 . S
C1248 C1249 1.392 . S
C1248 C1251 1.511 . S
C1249 C1245 1.376 . S
C1249 C1248 1.392 . S
C1249 H1261 0.929 . S
C1250 C1246 1.531 . S
C1250 H1262 0.960 . S
C1250 H1263 0.962 . S
C1250 H1264 0.960 . S
C1251 C1248 1.511 . S
C1251 H1265 0.961 1_565 S
C1251 H1266 0.961 . S
C1251 H1267 0.961 . S
C1252 C1253 1.370 . S
C1252 C1254 1.363 . S
C1252 H1268 0.931 . S
C1253 C1252 1.370 . S
C1253 C1257 1.408 . S
C1254 C1252 1.363 . S
C1254 C1255 1.370 . S
C1254 C1258 1.524 1_565 S
C1255 C1247 1.503 . S
C1255 C1254 1.370 . S
C1255 C1256 1.403 . S
C1256 C1255 1.403 . S
C1256 C1257 1.404 . S
C1256 C1259 1.539 . S
C1257 C1253 1.408 . S
C1257 C1256 1.404 . S
C1257 H1269 0.930 . S
C1258 C1254 1.524 1_545 S
C1258 H1270 0.956 . S
C1258 H1271 0.961 . S
C1258 H1272 0.961 . S
C1259 C1256 1.539 . S
C1259 H1273 0.958 . S
C1259 H1274 0.961 . S
C1259 H1275 0.960 . S
H1260 C1244 0.931 . S
H1261 C1249 0.929 . S
H1262 C1250 0.960 . S
H1263 C1250 0.962 . S
H1264 C1250 0.960 . S
H1265 C1251 0.961 1_545 S
H1266 C1251 0.961 . S
H1267 C1251 0.961 . S
H1268 C1252 0.931 . S
H1269 C1257 0.930 . S
H1270 C1258 0.956 . S
H1271 C1258 0.961 . S
H1272 C1258 0.961 . S
H1273 C1259 0.958 . S
H1274 C1259 0.961 . S
H1275 C1259 0.960 . S
C1276 C1277 1.391 . S
C1276 C1278 1.394 . S
C1276 H1292 0.931 . S
C1277 C1276 1.391 . S
C1277 C1281 1.376 . S
C1278 C1276 1.394 . S
C1278 C1279 1.369 . S
C1278 C1282 1.531 . S
C1279 C1278 1.369 . S
C1279 C1280 1.410 . S
C1279 C1287 1.503 . S
C1280 C1279 1.410 . S
C1280 C1281 1.392 . S
C1280 C1283 1.511 . S
C1281 C1277 1.376 . S
C1281 C1280 1.392 . S
C1281 H1293 0.929 . S
C1282 C1278 1.531 . S
C1282 H1294 0.960 . S
C1282 H1295 0.962 . S
C1282 H1296 0.960 . S
C1283 C1280 1.511 . S
C1283 H1297 0.961 . S
C1283 H1298 0.961 . S
C1283 H1299 0.961 . S
C1284 C1285 1.370 . S
C1284 C1286 1.363 . S
C1284 H1300 0.931 1_455 S
C1285 C1284 1.370 . S
C1285 C1289 1.408 . S
C1286 C1284 1.363 . S
C1286 C1287 1.370 . S
C1286 C1290 1.524 1_455 S
C1287 C1279 1.503 . S
C1287 C1286 1.370 . S
C1287 C1288 1.403 . S
C1288 C1287 1.403 . S
C1288 C1289 1.404 . S
C1288 C1291 1.539 . S
C1289 C1285 1.408 . S
C1289 C1288 1.404 . S
C1289 H1301 0.930 . S
C1290 C1286 1.524 1_655 S
C1290 H1302 0.956 . S
C1290 H1303 0.961 . S
C1290 H1304 0.961 . S
C1291 C1288 1.539 . S
C1291 H1305 0.958 . S
C1291 H1306 0.961 . S
C1291 H1307 0.960 . S
H1292 C1276 0.931 . S
H1293 C1281 0.929 . S
H1294 C1282 0.960 . S
H1295 C1282 0.962 . S
H1296 C1282 0.960 . S
H1297 C1283 0.961 . S
H1298 C1283 0.961 . S
H1299 C1283 0.961 . S
H1300 C1284 0.931 1_655 S
H1301 C1289 0.930 . S
H1302 C1290 0.956 . S
H1303 C1290 0.961 . S
H1304 C1290 0.961 . S
H1305 C1291 0.958 . S
H1306 C1291 0.961 . S
H1307 C1291 0.960 . S
C1308 C1309 1.391 . S
C1308 C1310 1.394 . S
C1308 H1324 0.931 . S
C1309 C1308 1.391 . S
C1309 C1313 1.376 . S
C1310 C1308 1.394 . S
C1310 C1311 1.369 . S
C1310 C1314 1.531 . S
C1311 C1310 1.369 . S
C1311 C1312 1.410 . S
C1311 C1319 1.503 . S
C1312 C1311 1.410 . S
C1312 C1313 1.392 . S
C1312 C1315 1.511 . S
C1313 C1309 1.376 . S
C1313 C1312 1.392 . S
C1313 H1325 0.929 . S
C1314 C1310 1.531 . S
C1314 H1326 0.960 . S
C1314 H1327 0.962 . S
C1314 H1328 0.960 . S
C1315 C1312 1.511 . S
C1315 H1329 0.961 . S
C1315 H1330 0.961 . S
C1315 H1331 0.961 . S
C1316 C1317 1.370 . S
C1316 C1318 1.363 . S
C1316 H1332 0.931 . S
C1317 C1316 1.370 . S
C1317 C1321 1.408 . S
C1318 C1316 1.363 . S
C1318 C1319 1.370 . S
C1318 C1322 1.524 . S
C1319 C1311 1.503 . S
C1319 C1318 1.370 . S
C1319 C1320 1.403 . S
C1320 C1319 1.403 . S
C1320 C1321 1.404 . S
C1320 C1323 1.539 . S
C1321 C1317 1.408 . S
C1321 C1320 1.404 . S
C1321 H1333 0.930 . S
C1322 C1318 1.524 . S
C1322 H1334 0.956 . S
C1322 H1335 0.961 . S
C1322 H1336 0.961 . S
C1323 C1320 1.539 . S
C1323 H1337 0.958 . S
C1323 H1338 0.961 . S
C1323 H1339 0.960 . S
H1324 C1308 0.931 . S
H1325 C1313 0.929 . S
H1326 C1314 0.960 . S
H1327 C1314 0.962 . S
H1328 C1314 0.960 . S
H1329 C1315 0.961 . S
H1330 C1315 0.961 . S
H1331 C1315 0.961 . S
H1332 C1316 0.931 . S
H1333 C1321 0.930 . S
H1334 C1322 0.956 . S
H1335 C1322 0.961 . S
H1336 C1322 0.961 . S
H1337 C1323 0.958 . S
H1338 C1323 0.961 . S
H1339 C1323 0.960 . S
C1340 C1341 1.391 . S
C1340 C1342 1.394 . S
C1340 H1356 0.931 . S
C1341 C1340 1.391 . S
C1341 C1345 1.376 . S
C1342 C1340 1.394 . S
C1342 C1343 1.369 . S
C1342 C1346 1.531 . S
C1343 C1342 1.369 . S
C1343 C1344 1.410 . S
C1343 C1351 1.503 . S
C1344 C1343 1.410 . S
C1344 C1345 1.392 . S
C1344 C1347 1.511 . S
C1345 C1341 1.376 . S
C1345 C1344 1.392 . S
C1345 H1357 0.929 . S
C1346 C1342 1.531 . S
C1346 H1358 0.960 . S
C1346 H1359 0.962 . S
C1346 H1360 0.960 . S
C1347 C1344 1.511 . S
C1347 H1361 0.961 . S
C1347 H1362 0.961 . S
C1347 H1363 0.961 . S
C1348 C1349 1.370 . S
C1348 C1350 1.363 . S
C1348 H1364 0.931 . S
C1349 C1348 1.370 . S
C1349 C1353 1.408 . S
C1350 C1348 1.363 . S
C1350 C1351 1.370 . S
C1350 C1354 1.524 . S
C1351 C1343 1.503 . S
C1351 C1350 1.370 . S
C1351 C1352 1.403 . S
C1352 C1351 1.403 . S
C1352 C1353 1.404 . S
C1352 C1355 1.539 . S
C1353 C1349 1.408 . S
C1353 C1352 1.404 . S
C1353 H1365 0.930 . S
C1354 C1350 1.524 . S
C1354 H1366 0.956 . S
C1354 H1367 0.961 . S
C1354 H1368 0.961 . S
C1355 C1352 1.539 . S
C1355 H1369 0.958 . S
C1355 H1370 0.961 . S
C1355 H1371 0.960 . S
H1356 C1340 0.931 . S
H1357 C1345 0.929 . S
H1358 C1346 0.960 . S
H1359 C1346 0.962 . S
H1360 C1346 0.960 . S
H1361 C1347 0.961 . S
H1362 C1347 0.961 . S
H1363 C1347 0.961 . S
H1364 C1348 0.931 . S
H1365 C1353 0.930 . S
H1366 C1354 0.956 . S
H1367 C1354 0.961 . S
H1368 C1354 0.961 . S
H1369 C1355 0.958 . S
H1370 C1355 0.961 . S
H1371 C1355 0.960 . S
C1372 C1373 1.391 . S
C1372 C1374 1.394 . S
C1372 H1388 0.931 . S
C1373 C1372 1.391 . S
C1373 C1377 1.376 . S
C1374 C1372 1.394 . S
C1374 C1375 1.369 . S
C1374 C1378 1.531 . S
C1375 C1374 1.369 . S
C1375 C1376 1.410 . S
C1375 C1383 1.503 . S
C1376 C1375 1.410 . S
C1376 C1377 1.392 . S
C1376 C1379 1.511 . S
C1377 C1373 1.376 . S
C1377 C1376 1.392 . S
C1377 H1389 0.929 . S
C1378 C1374 1.531 . S
C1378 H1390 0.960 . S
C1378 H1391 0.962 . S
C1378 H1392 0.960 . S
C1379 C1376 1.511 . S
C1379 H1393 0.961 . S
C1379 H1394 0.961 . S
C1379 H1395 0.961 . S
C1380 C1381 1.370 . S
C1380 C1382 1.363 . S
C1380 H1396 0.931 . S
C1381 C1380 1.370 . S
C1381 C1385 1.408 . S
C1382 C1380 1.363 . S
C1382 C1383 1.370 . S
C1382 C1386 1.524 . S
C1383 C1375 1.503 . S
C1383 C1382 1.370 . S
C1383 C1384 1.403 . S
C1384 C1383 1.403 . S
C1384 C1385 1.404 . S
C1384 C1387 1.539 . S
C1385 C1381 1.408 . S
C1385 C1384 1.404 . S
C1385 H1397 0.930 . S
C1386 C1382 1.524 . S
C1386 H1398 0.956 . S
C1386 H1399 0.961 . S
C1386 H1400 0.961 . S
C1387 C1384 1.539 . S
C1387 H1401 0.958 . S
C1387 H1402 0.961 . S
C1387 H1403 0.960 . S
H1388 C1372 0.931 . S
H1389 C1377 0.929 . S
H1390 C1378 0.960 . S
H1391 C1378 0.962 . S
H1392 C1378 0.960 . S
H1393 C1379 0.961 . S
H1394 C1379 0.961 . S
H1395 C1379 0.961 . S
H1396 C1380 0.931 . S
H1397 C1385 0.930 . S
H1398 C1386 0.956 . S
H1399 C1386 0.961 . S
H1400 C1386 0.961 . S
H1401 C1387 0.958 . S
H1402 C1387 0.961 . S
H1403 C1387 0.960 . S
C253 C7 1.921 . S
C261 C49 1.920 . S
C285 C21 1.950 . S
C293 C63 1.916 . S
C317 C77 1.945 . S
C325 C35 1.909 . S
C349 C91 1.876 . S
C357 C133 1.904 . S
C381 C105 1.948 . S
C389 C147 1.911 . S
C413 C161 1.893 . S
C421 C119 1.884 . S
C445 C217 1.866 . S
C453 C175 1.910 . S
C477 C231 1.940 . S
C485 C189 1.916 . S
C509 C245 1.873 . S
C517 C203 1.892 . S
C541 C6 1.440 . S
C549 C132 1.484 . S
C573 C20 1.450 . S
C581 C146 1.487 . S
C605 C160 1.450 . S
C613 C34 1.493 . S
C637 C48 1.439 . S
C645 C174 1.484 . S
C669 C62 1.472 . S
C677 C188 1.474 . S
C701 C76 1.446 . S
C709 C202 1.496 . S
C733 C90 1.466 . S
C741 C216 1.501 . S
C765 C104 1.509 . S
C773 C230 1.466 . S
C797 C244 1.451 . S
C805 C118 1.476 . S
C829 C9 0.861 1_565 S
C837 C64 0.881 . S
C861 C23 0.881 1_455 S
C869 C78 0.873 . S
C893 C37 0.924 . S
C901 C50 0.899 . S
C925 C51 0.921 1_545 S
C933 C22 0.907 . S
C957 C36 0.918 . S
C965 C65 0.896 1_655 S
C989 C79 0.891 . S
C997 C8 0.884 . S
C1021 C93 0.965 . S
C1029 C148 0.957 . S
C1053 C162 0.901 . S
C1061 C107 0.900 . S
C1085 C134 0.921 . S
C1093 C121 0.949 . S
C1117 C106 0.860 . S
C1125 C135 0.887 . S
C1149 C149 0.930 . S
C1157 C120 0.906 . S
C1181 C163 0.895 . S
C1189 C92 0.879 . S
C1213 C232 0.867 . S
C1221 C177 0.896 . S
C1245 C246 0.912 . S
C1253 C191 0.910 . S
C1277 C205 0.895 . S
C1285 C218 0.867 . S
C1309 C190 0.969 . S
C1317 C219 0.959 . S
C1341 C204 0.881 . S
C1349 C233 0.892 . S
C1373 C176 0.939 . S
C1381 C247 0.950 . S
