# Generated by pormake.
# Topology fnk, (5)-cn, num edge types: 1
# Building blocks:
#     Node 0, Type 0, BuildingBlock: XOMCOT_clean_sbu_1, # of connection points: 5
#     Node 1, Type 0, BuildingBlock: XOMCOT_clean_sbu_1, # of connection points: 5
#     Node 2, Type 0, BuildingBlock: XOMCOT_clean_sbu_1, # of connection points: 5
#     Node 3, Type 0, BuildingBlock: XOMCOT_clean_sbu_1, # of connection points: 5
#     Node 4, Type 0, BuildingBlock: XOMCOT_clean_sbu_1, # of connection points: 5
#     Node 5, Type 0, BuildingBlock: XOMCOT_clean_sbu_1, # of connection points: 5
#     Node 6, Type 0, BuildingBlock: XOMCOT_clean_sbu_1, # of connection points: 5
#     Node 7, Type 0, BuildingBlock: XOMCOT_clean_sbu_1, # of connection points: 5
#     Node 8, Type 0, BuildingBlock: XOMCOT_clean_sbu_1, # of connection points: 5
#     Node 9, Type 0, BuildingBlock: XOMCOT_clean_sbu_1, # of connection points: 5
#     Node 10, Type 0, BuildingBlock: XOMCOT_clean_sbu_1, # of connection points: 5
#     Node 11, Type 0, BuildingBlock: XOMCOT_clean_sbu_1, # of connection points: 5
#     Node 12, Type 0, BuildingBlock: XOMCOT_clean_sbu_1, # of connection points: 5
#     Node 13, Type 0, BuildingBlock: XOMCOT_clean_sbu_1, # of connection points: 5
#     Node 14, Type 0, BuildingBlock: XOMCOT_clean_sbu_1, # of connection points: 5
#     Node 15, Type 0, BuildingBlock: XOMCOT_clean_sbu_1, # of connection points: 5
#     Edge 16, Type (0, 0), BuildingBlock: ZUJKAS_clean_linker_0, # of connection points: 2
#     Edge 17, Type (0, 0), BuildingBlock: ZUJKAS_clean_linker_0, # of connection points: 2
#     Edge 18, Type (0, 0), BuildingBlock: ZUJKAS_clean_linker_0, # of connection points: 2
#     Edge 19, Type (0, 0), BuildingBlock: ZUJKAS_clean_linker_0, # of connection points: 2
#     Edge 20, Type (0, 0), BuildingBlock: ZUJKAS_clean_linker_0, # of connection points: 2
#     Edge 21, Type (0, 0), BuildingBlock: ZUJKAS_clean_linker_0, # of connection points: 2
#     Edge 22, Type (0, 0), BuildingBlock: ZUJKAS_clean_linker_0, # of connection points: 2
#     Edge 23, Type (0, 0), BuildingBlock: ZUJKAS_clean_linker_0, # of connection points: 2
#     Edge 24, Type (0, 0), BuildingBlock: ZUJKAS_clean_linker_0, # of connection points: 2
#     Edge 25, Type (0, 0), BuildingBlock: ZUJKAS_clean_linker_0, # of connection points: 2
#     Edge 26, Type (0, 0), BuildingBlock: ZUJKAS_clean_linker_0, # of connection points: 2
#     Edge 27, Type (0, 0), BuildingBlock: ZUJKAS_clean_linker_0, # of connection points: 2
#     Edge 28, Type (0, 0), BuildingBlock: ZUJKAS_clean_linker_0, # of connection points: 2
#     Edge 29, Type (0, 0), BuildingBlock: ZUJKAS_clean_linker_0, # of connection points: 2
#     Edge 30, Type (0, 0), BuildingBlock: ZUJKAS_clean_linker_0, # of connection points: 2
#     Edge 31, Type (0, 0), BuildingBlock: ZUJKAS_clean_linker_0, # of connection points: 2
#     Edge 32, Type (0, 0), BuildingBlock: ZUJKAS_clean_linker_0, # of connection points: 2
#     Edge 33, Type (0, 0), BuildingBlock: ZUJKAS_clean_linker_0, # of connection points: 2
#     Edge 34, Type (0, 0), BuildingBlock: ZUJKAS_clean_linker_0, # of connection points: 2
#     Edge 35, Type (0, 0), BuildingBlock: ZUJKAS_clean_linker_0, # of connection points: 2
#     Edge 36, Type (0, 0), BuildingBlock: ZUJKAS_clean_linker_0, # of connection points: 2
#     Edge 37, Type (0, 0), BuildingBlock: ZUJKAS_clean_linker_0, # of connection points: 2
#     Edge 38, Type (0, 0), BuildingBlock: ZUJKAS_clean_linker_0, # of connection points: 2
#     Edge 39, Type (0, 0), BuildingBlock: ZUJKAS_clean_linker_0, # of connection points: 2
#     Edge 40, Type (0, 0), BuildingBlock: ZUJKAS_clean_linker_0, # of connection points: 2
#     Edge 41, Type (0, 0), BuildingBlock: ZUJKAS_clean_linker_0, # of connection points: 2
#     Edge 42, Type (0, 0), BuildingBlock: ZUJKAS_clean_linker_0, # of connection points: 2
#     Edge 43, Type (0, 0), BuildingBlock: ZUJKAS_clean_linker_0, # of connection points: 2
#     Edge 44, Type (0, 0), BuildingBlock: ZUJKAS_clean_linker_0, # of connection points: 2
#     Edge 45, Type (0, 0), BuildingBlock: ZUJKAS_clean_linker_0, # of connection points: 2
#     Edge 46, Type (0, 0), BuildingBlock: ZUJKAS_clean_linker_0, # of connection points: 2
#     Edge 47, Type (0, 0), BuildingBlock: ZUJKAS_clean_linker_0, # of connection points: 2
#     Edge 48, Type (0, 0), BuildingBlock: ZUJKAS_clean_linker_0, # of connection points: 2
#     Edge 49, Type (0, 0), BuildingBlock: ZUJKAS_clean_linker_0, # of connection points: 2
#     Edge 50, Type (0, 0), BuildingBlock: ZUJKAS_clean_linker_0, # of connection points: 2
#     Edge 51, Type (0, 0), BuildingBlock: ZUJKAS_clean_linker_0, # of connection points: 2
#     Edge 52, Type (0, 0), BuildingBlock: ZUJKAS_clean_linker_0, # of connection points: 2
#     Edge 53, Type (0, 0), BuildingBlock: ZUJKAS_clean_linker_0, # of connection points: 2
#     Edge 54, Type (0, 0), BuildingBlock: ZUJKAS_clean_linker_0, # of connection points: 2
#     Edge 55, Type (0, 0), BuildingBlock: ZUJKAS_clean_linker_0, # of connection points: 2
# Relax obj value: 0.619
# Max RMSD: 0.261
# Mean RMSD: 0.261
data_MOF--net-fnk--node1-XOMCOT_clean_sbu_1--edge1-ZUJKAS_clean_linker_0
_symmetry_space_group_name_H-M    P1
_symmetry_Int_Tables_number       1
_symmetry_cell_setting            triclinic
loop_
_symmetry_equiv_pos_as_xyz
'x, y, z'
_cell_length_a     56.411912
_cell_length_b     56.381801
_cell_length_c     60.985004
_cell_angle_alpha  90.085713
_cell_angle_beta   89.931841
_cell_angle_gamma 90.051982
loop_
_atom_site_label
_atom_site_type_symbol
_atom_site_fract_x
_atom_site_fract_y
_atom_site_fract_z
_atom_type_partial_charge
C0 C 0.17815 0.34171 0.14312 0.0
C1 C 0.19925 0.33237 0.15026 0.0
N2 N 0.20211 0.33807 0.17156 0.0
N3 N 0.16754 0.35355 0.15967 0.0
C4 C 0.18284 0.35128 0.17669 0.0
H5 H 0.17068 0.33894 0.12703 0.0
Co6 Co 0.13634 0.36578 0.159 0.0
C7 C 0.13794 0.41357 0.17984 0.0
O8 O 0.11655 0.40993 0.18769 0.0
N9 N 0.10468 0.37751 0.15764 0.0
C10 C 0.06564 0.38197 0.16117 0.0
C11 C 0.08465 0.36757 0.16562 0.0
C12 C 0.09703 0.39759 0.14763 0.0
N13 N 0.07343 0.40104 0.15001 0.0
O14 O 0.14027 0.37418 0.12858 0.0
H15 H 0.08359 0.351 0.17435 0.0
H16 H 0.1088 0.40983 0.13935 0.0
O17 O 0.14838 0.39722 0.1688 0.0
C18 C 0.12884 0.35904 0.11707 0.0
O19 O 0.1175 0.34195 0.12733 0.0
N20 N 0.1316 0.35481 0.1878 0.0
C21 C 0.11737 0.33261 0.22648 0.0
C22 C 0.12909 0.35461 0.22706 0.0
C23 C 0.13616 0.36541 0.20752 0.0
C24 C 0.12294 0.33228 0.18717 0.0
C25 C 0.11525 0.32102 0.2062 0.0
H26 H 0.14551 0.382 0.20855 0.0
H27 H 0.12048 0.32364 0.17149 0.0
H28 H 0.17935 0.35804 0.19292 0.0
H29 H 0.21109 0.32151 0.14056 0.0
H30 H 0.04758 0.37897 0.1665 0.0
H31 H 0.13225 0.36371 0.24243 0.0
H32 H 0.10642 0.30404 0.20472 0.0
C33 C 0.68319 0.1732 0.15709 0.0
C34 C 0.69343 0.19259 0.16701 0.0
N35 N 0.68633 0.19332 0.18812 0.0
N36 N 0.66953 0.16165 0.17176 0.0
C37 C 0.67155 0.17456 0.19044 0.0
H38 H 0.6866 0.16724 0.14054 0.0
Co39 Co 0.6563 0.13143 0.16763 0.0
C40 C 0.61678 0.12822 0.19964 0.0
O41 O 0.62249 0.10594 0.20313 0.0
N42 N 0.6431 0.1006 0.16288 0.0
C43 C 0.63923 0.06187 0.15643 0.0
C44 C 0.65485 0.07978 0.16143 0.0
C45 C 0.62031 0.09478 0.158 0.0
N46 N 0.61744 0.07126 0.15438 0.0
O47 O 0.64071 0.14187 0.14131 0.0
H48 H 0.67369 0.07746 0.16336 0.0
H49 H 0.6061 0.10762 0.15702 0.0
O50 O 0.62893 0.14059 0.18605 0.0
C51 C 0.65339 0.13379 0.1256 0.0
O52 O 0.6728 0.12202 0.13033 0.0
N53 N 0.67436 0.12053 0.19143 0.0
C54 C 0.70532 0.09616 0.21888 0.0
C55 C 0.68596 0.10878 0.22763 0.0
C56 C 0.67072 0.1211 0.21358 0.0
C57 C 0.69507 0.11185 0.18332 0.0
C58 C 0.71052 0.09914 0.19654 0.0
H59 H 0.656 0.13056 0.22065 0.0
H60 H 0.69867 0.11315 0.16595 0.0
H61 H 0.66363 0.16942 0.20586 0.0
H62 H 0.70589 0.20467 0.15943 0.0
H63 H 0.6436 0.04328 0.15467 0.0
H64 H 0.68196 0.10827 0.24498 0.0
H65 H 0.72524 0.0902 0.18873 0.0
C66 C 0.82075 0.66321 0.14407 0.0
C67 C 0.80094 0.67325 0.15339 0.0
N68 N 0.80021 0.6672 0.17474 0.0
N69 N 0.83266 0.65069 0.15934 0.0
C70 C 0.81923 0.65297 0.17771 0.0
H71 H 0.82687 0.66651 0.12758 0.0
Co72 Co 0.86446 0.64033 0.15652 0.0
C73 C 0.86858 0.59484 0.18061 0.0
O74 O 0.88988 0.60123 0.18701 0.0
N75 N 0.89657 0.63059 0.15304 0.0
C76 C 0.93599 0.62867 0.1534 0.0
C77 C 0.91661 0.64249 0.15819 0.0
C78 C 0.90447 0.60993 0.14423 0.0
N79 N 0.92837 0.608 0.14482 0.0
O80 O 0.8585 0.62911 0.12717 0.0
H81 H 0.91742 0.65998 0.1653 0.0
H82 H 0.89274 0.59617 0.13825 0.0
O83 O 0.85585 0.60905 0.16918 0.0
C84 C 0.86696 0.6448 0.11423 0.0
O85 O 0.87565 0.66429 0.12296 0.0
N86 N 0.8711 0.65398 0.18396 0.0
C87 C 0.88576 0.68116 0.21971 0.0
C88 C 0.87566 0.65861 0.22282 0.0
C89 C 0.86849 0.64524 0.20472 0.0
C90 C 0.87816 0.67682 0.18092 0.0
C91 C 0.88608 0.69054 0.19841 0.0
H92 H 0.86039 0.62826 0.20767 0.0
H93 H 0.87898 0.68394 0.16448 0.0
H94 H 0.82423 0.64602 0.19348 0.0
H95 H 0.78885 0.68528 0.14531 0.0
H96 H 0.95425 0.63318 0.15688 0.0
H97 H 0.87381 0.65106 0.23904 0.0
H98 H 0.89365 0.70775 0.19488 0.0
C99 C 0.33772 0.83134 0.13864 0.0
C100 C 0.32068 0.81566 0.14565 0.0
N101 N 0.32938 0.80344 0.16278 0.0
N102 N 0.35711 0.82979 0.15155 0.0
C103 C 0.35167 0.81184 0.16552 0.0
H104 H 0.33604 0.84307 0.12473 0.0
Co105 Co 0.38533 0.84798 0.14681 0.0
C106 C 0.39936 0.82839 0.19064 0.0
O107 O 0.37986 0.83651 0.19978 0.0
N108 N 0.41352 0.86523 0.14145 0.0
C109 C 0.45202 0.87144 0.13617 0.0
C110 C 0.43476 0.85458 0.13895 0.0
C111 C 0.41839 0.88877 0.13999 0.0
N112 N 0.44183 0.89302 0.1369 0.0
O113 O 0.39415 0.82544 0.12477 0.0
H114 H 0.4376 0.83563 0.13956 0.0
H115 H 0.40509 0.9025 0.14145 0.0
O116 O 0.40259 0.83079 0.16997 0.0
C117 C 0.38704 0.83494 0.10698 0.0
O118 O 0.37778 0.8563 0.10777 0.0
N119 N 0.37502 0.87184 0.16619 0.0
C120 C 0.35687 0.91134 0.188 0.0
C121 C 0.37882 0.90171 0.19415 0.0
C122 C 0.38778 0.88204 0.18279 0.0
C123 C 0.35436 0.88196 0.15946 0.0
C124 C 0.34471 0.90123 0.17039 0.0
H125 H 0.40527 0.87556 0.18681 0.0
H126 H 0.34581 0.87599 0.14471 0.0
H127 H 0.36384 0.80445 0.17717 0.0
H128 H 0.30336 0.81328 0.13838 0.0
H129 H 0.47083 0.86804 0.13455 0.0
H130 H 0.38916 0.90959 0.20722 0.0
H131 H 0.32844 0.90896 0.16426 0.0
C132 C 0.16166 0.68183 0.34623 0.0
C133 C 0.17561 0.69583 0.33317 0.0
N134 N 0.18696 0.68188 0.31858 0.0
N135 N 0.16421 0.65896 0.34029 0.0
C136 C 0.17981 0.65949 0.32335 0.0
H137 H 0.14982 0.68811 0.35891 0.0
Co138 Co 0.14623 0.63467 0.35314 0.0
C139 C 0.1464 0.59478 0.32243 0.0
O140 O 0.12346 0.59338 0.3259 0.0
N141 N 0.12802 0.60999 0.36686 0.0
C142 C 0.12116 0.57541 0.38349 0.0
C143 C 0.13825 0.59058 0.37576 0.0
C144 C 0.1044 0.60594 0.36947 0.0
N145 N 0.09979 0.585 0.37948 0.0
O146 O 0.17149 0.62849 0.37333 0.0
H147 H 0.15708 0.58705 0.37588 0.0
H148 H 0.09065 0.61761 0.36367 0.0
O149 O 0.15846 0.61124 0.33171 0.0
C150 C 0.16725 0.64245 0.38933 0.0
O151 O 0.14863 0.65635 0.38824 0.0
N152 N 0.12114 0.64376 0.33536 0.0
C153 C 0.08708 0.67122 0.31436 0.0
C154 C 0.10345 0.65788 0.3021 0.0
C155 C 0.12074 0.64454 0.31297 0.0
C156 C 0.10562 0.65693 0.34735 0.0
C157 C 0.08816 0.6703 0.33727 0.0
H158 H 0.13453 0.63614 0.30343 0.0
H159 H 0.10733 0.65761 0.365 0.0
H160 H 0.18512 0.64393 0.3142 0.0
H161 H 0.17709 0.71492 0.33434 0.0
H162 H 0.12428 0.55811 0.39059 0.0
H163 H 0.10356 0.6586 0.28436 0.0
H164 H 0.07583 0.68013 0.34742 0.0
C165 C 0.34059 0.18906 0.35529 0.0
C166 C 0.33251 0.21016 0.34692 0.0
N167 N 0.34303 0.21385 0.3274 0.0
N168 N 0.35634 0.17929 0.34127 0.0
C169 C 0.35788 0.19522 0.3247 0.0
H170 H 0.33366 0.18058 0.36979 0.0
Co171 Co 0.36615 0.14729 0.34251 0.0
C172 C 0.40989 0.14327 0.31638 0.0
O173 O 0.40127 0.12302 0.30922 0.0
N174 N 0.37542 0.11474 0.34469 0.0
C175 C 0.37622 0.07524 0.34449 0.0
C176 C 0.36273 0.09497 0.34027 0.0
C177 C 0.39633 0.10629 0.35248 0.0
N178 N 0.3975 0.0823 0.35206 0.0
O179 O 0.37694 0.15161 0.37212 0.0
H180 H 0.34472 0.09446 0.33446 0.0
H181 H 0.41059 0.11765 0.35803 0.0
O182 O 0.39778 0.15568 0.33008 0.0
C183 C 0.36008 0.14367 0.38406 0.0
O184 O 0.34104 0.13542 0.37424 0.0
N185 N 0.35261 0.14253 0.31446 0.0
C186 C 0.32894 0.12762 0.27682 0.0
C187 C 0.34939 0.14171 0.27525 0.0
C188 C 0.36101 0.14897 0.29427 0.0
C189 C 0.33056 0.13289 0.31614 0.0
C190 C 0.31871 0.12457 0.29764 0.0
H191 H 0.37698 0.15921 0.29242 0.0
H192 H 0.32294 0.12993 0.33219 0.0
H193 H 0.36856 0.19266 0.31025 0.0
H194 H 0.3182 0.22067 0.35367 0.0
H195 H 0.37082 0.05708 0.34165 0.0
H196 H 0.35717 0.146 0.2595 0.0
H197 H 0.30269 0.11433 0.29999 0.0
C198 C 0.83969 0.33765 0.37198 0.0
C199 C 0.82437 0.31983 0.36583 0.0
N200 N 0.80843 0.32884 0.35165 0.0
N201 N 0.83368 0.35786 0.3616 0.0
C202 C 0.81409 0.35209 0.34995 0.0
H203 H 0.85523 0.33558 0.38218 0.0
Co204 Co 0.85253 0.38537 0.36008 0.0
C205 C 0.8339 0.38859 0.31086 0.0
O206 O 0.82924 0.36717 0.30352 0.0
N207 N 0.87154 0.41299 0.35799 0.0
C208 C 0.89406 0.44077 0.34253 0.0
C209 C 0.88015 0.42136 0.33878 0.0
C210 C 0.8813 0.42744 0.37338 0.0
N211 N 0.89492 0.44464 0.36424 0.0
O212 O 0.82669 0.40389 0.37056 0.0
H213 H 0.87759 0.41328 0.3229 0.0
H214 H 0.87897 0.42508 0.39085 0.0
O215 O 0.84172 0.39159 0.33032 0.0
C216 C 0.82001 0.40939 0.38993 0.0
O217 O 0.80123 0.423 0.39192 0.0
N218 N 0.87844 0.36717 0.35094 0.0
C219 C 0.91945 0.34154 0.34173 0.0
C220 C 0.8996 0.33987 0.32795 0.0
C221 C 0.87912 0.35279 0.33295 0.0
C222 C 0.8972 0.36811 0.36497 0.0
C223 C 0.91788 0.35556 0.36064 0.0
H224 H 0.86387 0.35098 0.32254 0.0
H225 H 0.89626 0.37889 0.3796 0.0
H226 H 0.805 0.36434 0.33928 0.0
H227 H 0.82566 0.3014 0.37061 0.0
H228 H 0.90396 0.45053 0.33026 0.0
H229 H 0.90004 0.32912 0.31322 0.0
H230 H 0.93258 0.35693 0.37199 0.0
C231 C 0.67719 0.85735 0.329 0.0
C232 C 0.69533 0.842 0.32422 0.0
N233 N 0.6875 0.81957 0.3269 0.0
N234 N 0.65761 0.84491 0.33428 0.0
C235 C 0.66482 0.82201 0.33403 0.0
H236 H 0.67764 0.8764 0.3269 0.0
Co237 Co 0.6276 0.85969 0.33599 0.0
C238 C 0.60895 0.81148 0.31574 0.0
O239 O 0.62792 0.80115 0.30775 0.0
N240 N 0.59783 0.87508 0.33768 0.0
C241 C 0.56117 0.88601 0.32882 0.0
C242 C 0.5794 0.8708 0.32409 0.0
C243 C 0.5905 0.89361 0.35018 0.0
N244 N 0.56813 0.90046 0.34515 0.0
O245 O 0.62494 0.85008 0.36611 0.0
H246 H 0.57953 0.85828 0.31067 0.0
H247 H 0.60151 0.90233 0.36227 0.0
O248 O 0.61052 0.8316 0.32534 0.0
C249 C 0.63692 0.86508 0.37725 0.0
O250 O 0.64683 0.88284 0.3667 0.0
N251 N 0.63163 0.871 0.3073 0.0
C252 C 0.65337 0.89278 0.27179 0.0
C253 C 0.6513 0.86807 0.27249 0.0
C254 C 0.63992 0.85746 0.29034 0.0
C255 C 0.63203 0.89512 0.30597 0.0
C256 C 0.64242 0.90638 0.28811 0.0
H257 H 0.64059 0.83849 0.29167 0.0
H258 H 0.62646 0.90576 0.31978 0.0
H259 H 0.65345 0.80736 0.33837 0.0
H260 H 0.71227 0.84715 0.3174 0.0
H261 H 0.54452 0.88725 0.32007 0.0
H262 H 0.65997 0.85708 0.2603 0.0
H263 H 0.64415 0.92553 0.28832 0.0
C264 C 0.8481 0.682 0.85533 0.0
C265 C 0.83924 0.70349 0.84844 0.0
N266 N 0.84614 0.70711 0.82753 0.0
N267 N 0.86069 0.67212 0.83891 0.0
C268 C 0.85944 0.68796 0.82233 0.0
H269 H 0.84426 0.67347 0.87079 0.0
Co270 Co 0.8716 0.64094 0.8377 0.0
C271 C 0.91325 0.64155 0.8073 0.0
O272 O 0.90808 0.61989 0.8009 0.0
N273 N 0.88229 0.6089 0.83682 0.0
C274 C 0.88398 0.56987 0.83149 0.0
C275 C 0.86996 0.58962 0.83013 0.0
C276 C 0.90361 0.6 0.84307 0.0
N277 N 0.90519 0.57639 0.83947 0.0
O278 O 0.88717 0.64492 0.86554 0.0
H279 H 0.85188 0.58946 0.82456 0.0
H280 H 0.91801 0.6108 0.84925 0.0
O281 O 0.90008 0.65189 0.82155 0.0
C282 C 0.87461 0.63395 0.87974 0.0
O283 O 0.85516 0.62329 0.87309 0.0
N284 N 0.8536 0.63639 0.81215 0.0
C285 C 0.82425 0.61539 0.7812 0.0
C286 C 0.84485 0.62759 0.77464 0.0
C287 C 0.85936 0.63814 0.79047 0.0
C288 C 0.8315 0.62916 0.81811 0.0
C289 C 0.81666 0.61812 0.80301 0.0
H290 H 0.87541 0.64672 0.78518 0.0
H291 H 0.82661 0.62922 0.83527 0.0
H292 H 0.86714 0.68486 0.80634 0.0
H293 H 0.82719 0.71466 0.85762 0.0
H294 H 0.8789 0.55198 0.82702 0.0
H295 H 0.85063 0.62754 0.7577 0.0
H296 H 0.80079 0.60962 0.80913 0.0
C297 C 0.36059 0.82356 0.82767 0.0
C298 C 0.3459 0.80557 0.82078 0.0
N299 N 0.32366 0.81404 0.82 0.0
N300 N 0.34797 0.8437 0.83051 0.0
C301 C 0.32526 0.83674 0.82688 0.0
H302 H 0.37927 0.82166 0.83106 0.0
Co303 Co 0.36057 0.8726 0.84162 0.0
C304 C 0.31967 0.89069 0.81653 0.0
O305 O 0.32604 0.87641 0.8005 0.0
N306 N 0.3735 0.90027 0.85362 0.0
C307 C 0.37852 0.93504 0.87012 0.0
C308 C 0.3625 0.9173 0.86535 0.0
C309 C 0.39617 0.90778 0.85178 0.0
N310 N 0.39968 0.92908 0.8614 0.0
O311 O 0.34947 0.86366 0.87011 0.0
H312 H 0.34394 0.91704 0.86981 0.0
H313 H 0.40976 0.8979 0.84319 0.0
O314 O 0.33104 0.89013 0.83474 0.0
C315 C 0.36676 0.85376 0.87997 0.0
O316 O 0.38677 0.85113 0.86917 0.0
N317 N 0.37387 0.88139 0.81409 0.0
C318 C 0.40569 0.90003 0.78345 0.0
C319 C 0.38615 0.91328 0.7904 0.0
C320 C 0.37076 0.90386 0.80599 0.0
C321 C 0.392 0.86776 0.80633 0.0
C322 C 0.40791 0.8766 0.79083 0.0
H323 H 0.35817 0.91586 0.81332 0.0
H324 H 0.39608 0.85107 0.81387 0.0
H325 H 0.30993 0.84782 0.82964 0.0
H326 H 0.35124 0.78775 0.81637 0.0
H327 H 0.37469 0.95139 0.87875 0.0
H328 H 0.38392 0.93155 0.78532 0.0
H329 H 0.42319 0.86597 0.78646 0.0
C330 C 0.16306 0.33565 0.83286 0.0
C331 C 0.17944 0.32094 0.82325 0.0
N332 N 0.16848 0.30066 0.81764 0.0
N333 N 0.14147 0.32523 0.83278 0.0
C334 C 0.14583 0.30331 0.82445 0.0
H335 H 0.16704 0.35279 0.83983 0.0
Co336 Co 0.11366 0.33932 0.84494 0.0
C337 C 0.09209 0.30728 0.81205 0.0
O338 O 0.10797 0.31523 0.79806 0.0
N339 N 0.08734 0.35347 0.85795 0.0
C340 C 0.05209 0.36068 0.87269 0.0
C341 C 0.06787 0.3432 0.86658 0.0
C342 C 0.08333 0.37701 0.85951 0.0
N343 N 0.06179 0.38194 0.86797 0.0
O344 O 0.11857 0.32175 0.87134 0.0
H345 H 0.06498 0.32427 0.86761 0.0
H346 H 0.09566 0.39028 0.85366 0.0
O347 O 0.09285 0.31434 0.83208 0.0
C348 C 0.13176 0.33444 0.88366 0.0
O349 O 0.14044 0.35423 0.8756 0.0
N350 N 0.10889 0.35908 0.82009 0.0
C351 C 0.09701 0.39882 0.79509 0.0
C352 C 0.08096 0.3801 0.79752 0.0
C353 C 0.08698 0.36075 0.81048 0.0
C354 C 0.12514 0.37665 0.81682 0.0
C355 C 0.11968 0.39651 0.80422 0.0
H356 H 0.07292 0.34861 0.81467 0.0
H357 H 0.14134 0.37697 0.82601 0.0
H358 H 0.13282 0.28928 0.82349 0.0
H359 H 0.19785 0.32516 0.82009 0.0
H360 H 0.03433 0.35788 0.87893 0.0
H361 H 0.06318 0.38119 0.7909 0.0
H362 H 0.13239 0.4109 0.80345 0.0
C363 C 0.68392 0.16486 0.85906 0.0
C364 C 0.69769 0.1806 0.84754 0.0
N365 N 0.7055 0.16978 0.8292 0.0
N366 N 0.68305 0.14402 0.84823 0.0
C367 C 0.69656 0.14751 0.83011 0.0
H368 H 0.67431 0.16884 0.87394 0.0
Co369 Co 0.66304 0.1189 0.85613 0.0
C370 C 0.66929 0.08206 0.82254 0.0
O371 O 0.64612 0.07993 0.82304 0.0
N372 N 0.64273 0.09327 0.8647 0.0
C373 C 0.63308 0.05729 0.87701 0.0
C374 C 0.65125 0.07301 0.87354 0.0
C375 C 0.61904 0.08918 0.86297 0.0
N376 N 0.6128 0.06738 0.87025 0.0
O377 O 0.68393 0.1109 0.87995 0.0
H378 H 0.66978 0.06936 0.8765 0.0
H379 H 0.60654 0.10146 0.85593 0.0
O380 O 0.67942 0.09727 0.83513 0.0
C381 C 0.67479 0.12163 0.8964 0.0
O382 O 0.6555 0.1342 0.89338 0.0
N383 N 0.64156 0.12963 0.83521 0.0
C384 C 0.60693 0.15279 0.81089 0.0
C385 C 0.62597 0.14147 0.80033 0.0
C386 C 0.64351 0.1304 0.81288 0.0
C387 C 0.62421 0.14207 0.84559 0.0
C388 C 0.60648 0.15332 0.83384 0.0
H389 H 0.65863 0.12285 0.80459 0.0
H390 H 0.62381 0.14271 0.86329 0.0
H391 H 0.69868 0.1345 0.81721 0.0
H392 H 0.70119 0.19882 0.8521 0.0
H393 H 0.63488 0.03935 0.88307 0.0
H394 H 0.62736 0.14132 0.78262 0.0
H395 H 0.59215 0.16169 0.84279 0.0
C396 C 0.83478 0.32269 0.63331 0.0
C397 C 0.82003 0.30545 0.64179 0.0
N398 N 0.82663 0.30114 0.66261 0.0
N399 N 0.85071 0.32923 0.64869 0.0
C400 C 0.84506 0.31586 0.66638 0.0
H401 H 0.83338 0.33025 0.61713 0.0
Co402 Co 0.87382 0.35348 0.64814 0.0
C403 C 0.90179 0.31212 0.66589 0.0
O404 O 0.89207 0.29613 0.65304 0.0
N405 N 0.89704 0.37775 0.64854 0.0
C406 C 0.9279 0.39878 0.66043 0.0
C407 C 0.91339 0.37994 0.66463 0.0
C408 C 0.90171 0.39624 0.63493 0.0
N409 N 0.92066 0.40904 0.64178 0.0
O410 O 0.88623 0.34188 0.62067 0.0
H411 H 0.91462 0.3689 0.67901 0.0
H412 H 0.89162 0.40022 0.62033 0.0
O413 O 0.89538 0.33376 0.66491 0.0
C414 C 0.87496 0.35265 0.60551 0.0
O415 O 0.85853 0.36802 0.61111 0.0
N416 N 0.86015 0.36649 0.67298 0.0
C417 C 0.8354 0.39327 0.7037 0.0
C418 C 0.85426 0.37858 0.71028 0.0
C419 C 0.86643 0.36506 0.69455 0.0
C420 C 0.84157 0.38006 0.66652 0.0
C421 C 0.82891 0.39349 0.68154 0.0
H422 H 0.88109 0.35403 0.6996 0.0
H423 H 0.83698 0.38091 0.64933 0.0
H424 H 0.8539 0.3174 0.68204 0.0
H425 H 0.80552 0.29688 0.6333 0.0
H426 H 0.94234 0.40493 0.67066 0.0
H427 H 0.85981 0.37794 0.72726 0.0
H428 H 0.81492 0.40492 0.67555 0.0
C429 C 0.69118 0.85136 0.6491 0.0
C430 C 0.7062 0.83606 0.65973 0.0
N431 N 0.7173 0.84804 0.67587 0.0
N432 N 0.69282 0.87304 0.6583 0.0
C433 C 0.70879 0.87044 0.67468 0.0
H434 H 0.67934 0.84664 0.63589 0.0
Co435 Co 0.67467 0.89948 0.65067 0.0
C436 C 0.71815 0.93249 0.64952 0.0
O437 O 0.72151 0.93514 0.62836 0.0
N438 N 0.65611 0.92578 0.64304 0.0
C439 C 0.64291 0.95958 0.62893 0.0
C440 C 0.66188 0.94432 0.63015 0.0
C441 C 0.63345 0.92997 0.64915 0.0
N442 N 0.62503 0.95057 0.64099 0.0
O443 O 0.68308 0.8954 0.62025 0.0
H444 H 0.67866 0.9466 0.62193 0.0
H445 H 0.6232 0.91797 0.65923 0.0
O446 O 0.70128 0.91967 0.65663 0.0
C447 C 0.66605 0.88477 0.61053 0.0
O448 O 0.64753 0.87848 0.62229 0.0
N449 N 0.66478 0.90286 0.67974 0.0
C450 C 0.63517 0.9127 0.71496 0.0
C451 C 0.65371 0.9282 0.7096 0.0
C452 C 0.66828 0.92306 0.69176 0.0
C453 C 0.64877 0.88627 0.68632 0.0
C454 C 0.63371 0.89083 0.70397 0.0
H455 H 0.68049 0.93661 0.68642 0.0
H456 H 0.64595 0.8706 0.6764 0.0
H457 H 0.71376 0.88465 0.6857 0.0
H458 H 0.70806 0.81732 0.65632 0.0
H459 H 0.64246 0.97617 0.62003 0.0
H460 H 0.6556 0.94512 0.71786 0.0
H461 H 0.61953 0.87841 0.7074 0.0
C462 C 0.15484 0.67319 0.65016 0.0
C463 C 0.17218 0.68511 0.66147 0.0
N464 N 0.16203 0.69629 0.67859 0.0
N465 N 0.1337 0.677 0.65988 0.0
C466 C 0.13868 0.69098 0.67736 0.0
H467 H 0.15762 0.66219 0.63588 0.0
Co468 Co 0.10494 0.66432 0.65012 0.0
C469 C 0.08007 0.71342 0.65456 0.0
O470 O 0.07924 0.72247 0.63475 0.0
N471 N 0.07623 0.65156 0.64009 0.0
C472 C 0.0418 0.64687 0.62301 0.0
C473 C 0.05959 0.66264 0.628 0.0
C474 C 0.06824 0.62905 0.64214 0.0
N475 N 0.04725 0.62569 0.63189 0.0
O476 O 0.11216 0.67462 0.62087 0.0
H477 H 0.06052 0.68088 0.62272 0.0
H478 H 0.07799 0.61528 0.65055 0.0
O479 O 0.08917 0.69312 0.65766 0.0
C480 C 0.11857 0.65657 0.60968 0.0
O481 O 0.11876 0.63576 0.61938 0.0
N482 N 0.09847 0.65276 0.67808 0.0
C483 C 0.08734 0.62703 0.71553 0.0
C484 C 0.07216 0.64497 0.70814 0.0
C485 C 0.078 0.65761 0.68926 0.0
C486 C 0.11393 0.63618 0.68559 0.0
C487 C 0.10882 0.62322 0.70442 0.0
H488 H 0.06522 0.67003 0.68284 0.0
H489 H 0.12968 0.63206 0.67621 0.0
H490 H 0.12548 0.69711 0.68894 0.0
H491 H 0.19094 0.68506 0.65771 0.0
H492 H 0.02606 0.65076 0.61355 0.0
H493 H 0.05533 0.64826 0.71614 0.0
H494 H 0.12077 0.60913 0.7092 0.0
C495 C 0.33379 0.15858 0.64731 0.0
C496 C 0.31722 0.17588 0.65152 0.0
N497 N 0.2999 0.16635 0.6639 0.0
N498 N 0.32761 0.13829 0.65759 0.0
C499 C 0.30614 0.14338 0.6664 0.0
H500 H 0.34992 0.16097 0.63797 0.0
Co501 Co 0.34708 0.11068 0.65796 0.0
C502 C 0.31236 0.09345 0.69176 0.0
O503 O 0.31577 0.11261 0.70368 0.0
N504 N 0.36613 0.08335 0.65735 0.0
C505 C 0.37651 0.04568 0.65303 0.0
C506 C 0.3581 0.06152 0.65222 0.0
C507 C 0.38964 0.08044 0.66084 0.0
N508 N 0.3964 0.05751 0.65855 0.0
O509 O 0.33561 0.10304 0.62922 0.0
H510 H 0.34002 0.05744 0.64772 0.0
H511 H 0.40146 0.09482 0.66518 0.0
O512 O 0.32239 0.09154 0.67293 0.0
C513 C 0.35237 0.1099 0.6166 0.0
O514 O 0.37136 0.11931 0.6256 0.0
N515 N 0.361 0.11963 0.68481 0.0
C516 C 0.38801 0.13496 0.72044 0.0
C517 C 0.37758 0.11234 0.72047 0.0
C518 C 0.36459 0.1048 0.70224 0.0
C519 C 0.37179 0.14124 0.68434 0.0
C520 C 0.38491 0.14941 0.70203 0.0
H521 H 0.358 0.08679 0.70187 0.0
H522 H 0.37161 0.15178 0.66968 0.0
H523 H 0.29502 0.13073 0.67455 0.0
H524 H 0.31824 0.19419 0.64631 0.0
H525 H 0.37539 0.02696 0.64924 0.0
H526 H 0.38009 0.1003 0.73408 0.0
H527 H 0.39382 0.16636 0.70058 0.0
H528 H 0.91446 0.56173 0.14559 0.0
H529 H 0.93992 0.52679 0.14219 0.0
H530 H 1.00041 0.57195 0.13111 0.0
H531 H 0.97509 0.60696 0.13413 0.0
H532 H 0.97303 0.51176 0.10702 0.0
H533 H 0.01729 0.53148 0.18644 0.0
H534 H 0.98937 0.54469 0.17874 0.0
H535 H 0.01652 0.55537 0.16695 0.0
C536 C 0.93306 0.56429 0.14201 0.0
C537 C 0.94271 0.58728 0.14037 0.0
C538 C 0.94763 0.54426 0.14017 0.0
C539 C 0.97211 0.5468 0.13675 0.0
C540 C 0.98162 0.56961 0.13414 0.0
H541 H 0.08936 0.44631 0.14513 0.0
H542 H 0.06535 0.48182 0.13917 0.0
C543 C 0.9671 0.58962 0.13592 0.0
C544 C 0.98787 0.5257 0.13685 0.0
H545 H 0.03178 0.4989 0.16629 0.0
C546 C 0.98589 0.5089 0.11995 0.0
C547 C 0.0047 0.52209 0.1537 0.0
C548 C 0.00709 0.53922 0.17262 0.0
C549 C 1.00048 0.48867 0.11933 0.0
C550 C 0.0171 0.48486 0.13638 0.0
C551 C 0.01915 0.50182 0.15318 0.0
C552 C 0.03191 0.46304 0.13771 0.0
C553 C 0.99822 0.47181 0.10022 0.0
C554 C 0.02121 0.44058 0.13871 0.0
C555 C 0.03492 0.42021 0.14186 0.0
C556 C 0.05968 0.42181 0.14439 0.0
C557 C 0.07043 0.44429 0.14294 0.0
C558 C 0.05668 0.46468 0.1397 0.0
H559 H 0.99076 0.48082 0.08557 0.0
H560 H 0.01562 0.46399 0.09574 0.0
H561 H 0.98598 0.4572 0.10474 0.0
H562 H 0.00212 0.43881 0.13772 0.0
H563 H 0.02603 0.40323 0.14271 0.0
H564 H 0.61258 0.03177 0.12961 0.0
H565 H 0.57712 0.00732 0.12537 0.0
H566 H 0.53754 0.05633 0.16549 0.0
H567 H 0.57331 0.08089 0.16999 0.0
H568 H 0.53305 0.0078 0.17814 0.0
H569 H 0.51667 0.0186 0.08926 0.0
H570 H 0.54681 0.01091 0.09544 0.0
H571 H 0.53505 0.03882 0.10476 0.0
C572 C 0.59631 0.03747 0.13741 0.0
C573 C 0.59579 0.05828 0.15016 0.0
C574 C 0.57596 0.02357 0.13481 0.0
C575 C 0.55454 0.03008 0.14489 0.0
C576 C 0.55381 0.05104 0.15741 0.0
H577 H 0.42973 0.93447 0.15715 0.0
H578 H 0.45369 0.97088 0.15895 0.0
C579 C 0.5742 0.06513 0.15986 0.0
C580 C 0.53357 0.01404 0.14336 0.0
H581 H 0.49859 0.98481 0.10639 0.0
C582 C 0.52516 0.00308 0.16252 0.0
C583 C 0.52328 0.00789 0.12298 0.0
C584 C 0.53074 0.01983 0.10195 0.0
C585 C 0.50782 0.98509 0.16169 0.0
C586 C 0.49824 0.9782 0.14116 0.0
C587 C 0.5059 0.98999 0.12213 0.0
C588 C 0.48224 0.95724 0.13879 0.0
C589 C 0.50093 0.97268 0.18266 0.0
C590 C 0.4897 0.93786 0.12609 0.0
C591 C 0.47596 0.91727 0.12485 0.0
C592 C 0.45433 0.91545 0.13624 0.0
C593 C 0.44626 0.93527 0.14816 0.0
C594 C 0.4601 0.95599 0.14941 0.0
H595 H 0.51328 0.97687 0.19631 0.0
H596 H 0.4829 0.97844 0.18762 0.0
H597 H 0.50057 0.95316 0.18027 0.0
H598 H 0.50656 0.93839 0.11758 0.0
H599 H 0.48252 0.90255 0.11519 0.0
H600 H 0.92428 0.438 0.3989 0.0
H601 H 0.95698 0.4645 0.40976 0.0
H602 H 0.93382 0.5158 0.36197 0.0
H603 H 0.90124 0.48968 0.35153 0.0
H604 H 0.99207 0.47684 0.38137 0.0
H605 H 0.95037 0.55891 0.41231 0.0
H606 H 0.93426 0.53133 0.4099 0.0
H607 H 0.93817 0.55024 0.38638 0.0
C608 C 0.92571 0.45535 0.39143 0.0
C609 C 0.91025 0.46187 0.37444 0.0
C610 C 0.94447 0.47039 0.39747 0.0
C611 C 0.94781 0.49231 0.38683 0.0
C612 C 0.93143 0.49933 0.37081 0.0
H613 H 0.05884 0.59145 0.35662 0.0
H614 H 0.02169 0.5694 0.36107 0.0
C615 C 0.91286 0.48432 0.36475 0.0
C616 C 0.96988 0.50644 0.39009 0.0
H617 H 0.99031 0.56292 0.39827 0.0
C618 C 0.99172 0.49555 0.38552 0.0
C619 C 0.96947 0.53094 0.39528 0.0
C620 C 0.94681 0.54346 0.40146 0.0
C621 C 0.01294 0.50864 0.385 0.0
C622 C 0.01241 0.53328 0.38949 0.0
C623 C 0.99069 0.54407 0.39469 0.0
C624 C 0.03418 0.54813 0.38819 0.0
C625 C 0.03562 0.49617 0.37868 0.0
C626 C 0.0533 0.54402 0.40236 0.0
C627 C 0.0745 0.55664 0.39991 0.0
C628 C 0.07708 0.57375 0.38326 0.0
C629 C 0.0575 0.57856 0.36969 0.0
C630 C 0.03626 0.56589 0.37216 0.0
H631 H 0.03221 0.47853 0.37118 0.0
H632 H 0.04602 0.50704 0.36693 0.0
H633 H 0.04659 0.49348 0.39355 0.0
H634 H 0.05195 0.53076 0.41514 0.0
H635 H 0.089 0.55282 0.41095 0.0
H636 H 0.58434 0.94492 0.35341 0.0
H637 H 0.55985 0.98024 0.36085 0.0
H638 H 0.49717 0.93643 0.36139 0.0
H639 H 0.52146 0.90142 0.35385 0.0
H640 H 0.52132 0.99456 0.33155 0.0
H641 H 0.48977 0.97959 0.41649 0.0
H642 H 0.51619 0.96574 0.40562 0.0
H643 H 0.48743 0.95405 0.39897 0.0
C644 C 0.56542 0.94285 0.35573 0.0
C645 C 0.55476 0.92047 0.35313 0.0
C646 C 0.55144 0.963 0.35983 0.0
C647 C 0.52669 0.96095 0.36186 0.0
C648 C 0.51623 0.93843 0.36021 0.0
H649 H 0.39656 0.03573 0.36334 0.0
H650 H 0.43023 0.00907 0.3671 0.0
C651 C 0.5301 0.91845 0.35582 0.0
C652 C 0.51128 0.98228 0.3636 0.0
H653 H 0.46731 0.00683 0.39479 0.0
C654 C 0.50981 0.9976 0.34554 0.0
C655 C 0.4962 0.98607 0.3818 0.0
C656 C 0.49755 0.97063 0.40193 0.0
C657 C 0.4927 0.01573 0.34461 0.0
C658 C 0.47701 0.01905 0.36254 0.0
C659 C 0.47926 0.00434 0.38102 0.0
C660 C 0.45682 0.03611 0.36163 0.0
C661 C 0.49069 0.03018 0.32388 0.0
C662 C 0.4604 0.06045 0.35786 0.0
C663 C 0.44101 0.07581 0.35534 0.0
C664 C 0.41762 0.06717 0.35677 0.0
C665 C 0.41421 0.043 0.36162 0.0
C666 C 0.43353 0.0277 0.36398 0.0
H667 H 0.50029 0.02183 0.30995 0.0
H668 H 0.47185 0.03255 0.31912 0.0
H669 H 0.49853 0.04798 0.32668 0.0
H670 H 0.47818 0.06754 0.3565 0.0
H671 H 0.44441 0.09425 0.3516 0.0
H672 H 0.93735 0.57683 0.87256 0.0
H673 H 0.96832 0.54694 0.8792 0.0
H674 H 0.94928 0.51159 0.81894 0.0
H675 H 0.91833 0.54097 0.81259 0.0
H676 H 0.94902 0.48176 0.85322 0.0
H677 H 0.03317 0.53283 0.85193 0.0
H678 H 0.01108 0.54429 0.87037 0.0
H679 H 0.00569 0.54453 0.84134 0.0
C680 C 0.94019 0.56291 0.8606 0.0
C681 C 0.92531 0.56099 0.84222 0.0
C682 C 0.9579 0.54591 0.86434 0.0
C683 C 0.96118 0.52703 0.84953 0.0
C684 C 0.94703 0.52589 0.83065 0.0
H685 H 0.06887 0.4186 0.84002 0.0
H686 H 0.04537 0.45484 0.8374 0.0
C687 C 0.9293 0.54263 0.82707 0.0
C688 C 0.97756 0.5071 0.85442 0.0
H689 H 0.03561 0.49255 0.86304 0.0
C690 C 0.96795 0.48415 0.85541 0.0
C691 C 0.0023 0.51019 0.85698 0.0
C692 C 0.01378 0.53424 0.85491 0.0
C693 C 0.9823 0.46419 0.85869 0.0
C694 C 0.00697 0.46727 0.86193 0.0
C695 C 0.01666 0.49023 0.86093 0.0
C696 C 0.02299 0.44665 0.86524 0.0
C697 C 0.97092 0.43995 0.85777 0.0
C698 C 0.01884 0.43035 0.88223 0.0
C699 C 0.03203 0.40941 0.88354 0.0
C700 C 0.04999 0.40462 0.86819 0.0
C701 C 0.05516 0.42173 0.85209 0.0
C702 C 0.04172 0.44249 0.85057 0.0
H703 H 0.95361 0.44038 0.84909 0.0
H704 H 0.98258 0.42695 0.84935 0.0
H705 H 0.96759 0.4336 0.87471 0.0
H706 H 0.00496 0.43352 0.89415 0.0
H707 H 0.02797 0.39678 0.89636 0.0
H708 H 0.43397 0.92951 0.83017 0.0
H709 H 0.46949 0.9544 0.82927 0.0
H710 H 0.44967 0.98532 0.89139 0.0
H711 H 0.41378 0.96097 0.89199 0.0
H712 H 0.46449 0.01879 0.86343 0.0
H713 H 0.5294 0.94484 0.86334 0.0
H714 H 0.50905 0.94402 0.84078 0.0
H715 H 0.49824 0.94015 0.86833 0.0
C716 C 0.43726 0.9415 0.84369 0.0
C717 C 0.42105 0.94321 0.86118 0.0
C718 C 0.45765 0.95568 0.84321 0.0
C719 C 0.46254 0.97149 0.86046 0.0
C720 C 0.44633 0.97327 0.87789 0.0
H721 H 0.5958 0.03379 0.89765 0.0
H722 H 0.55872 0.01174 0.89417 0.0
C723 C 0.42579 0.95934 0.87822 0.0
C724 C 0.48439 0.98636 0.86045 0.0
H725 H 0.54491 0.98359 0.85962 0.0
C726 C 0.48208 0.01109 0.86257 0.0
C727 C 0.50738 0.97632 0.85942 0.0
C728 C 0.51125 0.94987 0.85804 0.0
C729 C 0.50204 0.02599 0.86395 0.0
C730 C 0.52498 0.01595 0.86281 0.0
C731 C 0.5273 0.99128 0.86041 0.0
C732 C 0.54687 0.03045 0.86524 0.0
C733 C 0.49838 0.05225 0.86732 0.0
C734 C 0.55253 0.04851 0.85025 0.0
C735 C 0.5738 0.06124 0.85226 0.0
C736 C 0.5899 0.05595 0.86916 0.0
C737 C 0.58394 0.03812 0.88431 0.0
C738 C 0.56272 0.02552 0.88236 0.0
H739 H 0.4801 0.05633 0.87296 0.0
H740 H 0.51115 0.05939 0.8795 0.0
H741 H 0.50136 0.0616 0.85155 0.0
H742 H 0.54081 0.05235 0.83667 0.0
H743 H 0.57801 0.07459 0.84013 0.0
H744 H 0.96701 0.41704 0.63603 0.0
H745 H 0.98587 0.45537 0.62913 0.0
H746 H 0.91707 0.48747 0.621 0.0
H747 H 0.8981 0.44879 0.62809 0.0
H748 H 0.98413 0.48954 0.59509 0.0
H749 H 0.94708 0.52281 0.674 0.0
H750 H 0.94667 0.49179 0.66666 0.0
H751 H 0.92606 0.51193 0.65423 0.0
C752 C 0.95596 0.43219 0.63223 0.0
C753 C 0.93115 0.43008 0.63266 0.0
C754 C 0.96672 0.45406 0.62832 0.0
C755 C 0.95288 0.47435 0.62495 0.0
C756 C 0.92806 0.47205 0.62386 0.0
H757 H 0.01707 0.61316 0.59925 0.0
H758 H 0.99332 0.57703 0.59676 0.0
C759 C 0.91725 0.44999 0.62764 0.0
C760 C 0.96469 0.49791 0.62447 0.0
H761 H 0.97284 0.54823 0.65489 0.0
C762 C 0.98146 0.50254 0.60799 0.0
C763 C 0.96153 0.51459 0.6416 0.0
C764 C 0.94452 0.5101 0.66026 0.0
C765 C 0.9953 0.52329 0.60828 0.0
C766 C 0.99211 0.53996 0.6254 0.0
C767 C 0.97518 0.53545 0.64176 0.0
C768 C 0.00655 0.56194 0.62693 0.0
C769 C 0.01381 0.52682 0.5907 0.0
C770 C 0.0216 0.56571 0.64495 0.0
C771 C 0.03512 0.58649 0.64652 0.0
C772 C 0.03368 0.60402 0.63019 0.0
C773 C 0.01847 0.60019 0.61223 0.0
C774 C 0.00504 0.5794 0.61065 0.0
H775 H 0.01772 0.51008 0.58175 0.0
H776 H 0.00726 0.53999 0.57864 0.0
H777 H 0.03055 0.53373 0.59784 0.0
H778 H 0.02292 0.55251 0.65779 0.0
H779 H 0.04639 0.58899 0.66069 0.0
H780 H 0.4073 0.01213 0.66904 0.0
H781 H 0.4465 0.99396 0.6694 0.0
H782 H 0.47821 0.06145 0.65378 0.0
H783 H 0.43883 0.07981 0.65305 0.0
H784 H 0.47733 0.99312 0.63279 0.0
H785 H 0.51907 0.0357 0.70534 0.0
H786 H 0.48736 0.0351 0.70117 0.0
H787 H 0.50544 0.05573 0.68621 0.0
C788 C 0.42255 0.02319 0.66567 0.0
C789 C 0.41982 0.04743 0.66075 0.0
C790 C 0.44499 0.01277 0.66604 0.0
C791 C 0.46527 0.02635 0.66174 0.0
C792 C 0.46279 0.05071 0.65748 0.0
H793 H 0.6014 0.98035 0.61389 0.0
H794 H 0.56251 0.99821 0.62003 0.0
C795 C 0.44027 0.06118 0.65706 0.0
C796 C 0.48872 0.01456 0.66007 0.0
H797 H 0.54431 0.01287 0.68224 0.0
C798 C 0.49195 0.99738 0.64366 0.0
C799 C 0.50764 0.01991 0.67445 0.0
C800 C 0.50477 0.03747 0.69294 0.0
C801 C 0.51378 0.98585 0.64086 0.0
C802 C 0.53297 0.99182 0.6547 0.0
C803 C 0.5296 0.0085 0.67153 0.0
C804 C 0.55681 0.98135 0.65143 0.0
C805 C 0.51615 0.96729 0.62314 0.0
C806 C 0.56666 0.96623 0.66723 0.0
C807 C 0.58895 0.95594 0.66375 0.0
C808 C 0.60192 0.96089 0.64454 0.0
C809 C 0.59204 0.97631 0.62892 0.0
C810 C 0.56973 0.98641 0.63234 0.0
H811 H 0.49859 0.9608 0.61747 0.0
H812 H 0.52552 0.9751 0.60885 0.0
H813 H 0.52669 0.95195 0.62903 0.0
H814 H 0.55701 0.96219 0.68213 0.0
H815 H 0.59611 0.94435 0.67619 0.0
H816 H 0.21459 0.35537 0.21179 0.0
H817 H 0.24184 0.33729 0.23804 0.0
H818 H 0.2577 0.28191 0.19151 0.0
H819 H 0.22996 0.29911 0.16563 0.0
H820 H 0.24628 0.26445 0.23168 0.0
H821 H 0.31394 0.33538 0.24045 0.0
H822 H 0.28402 0.34491 0.24535 0.0
H823 H 0.29256 0.33506 0.21843 0.0
C824 C 0.22387 0.33939 0.20706 0.0
C825 C 0.21986 0.32881 0.18644 0.0
C826 C 0.23972 0.32921 0.22204 0.0
C827 C 0.25208 0.30837 0.21667 0.0
C828 C 0.24849 0.29807 0.19599 0.0
H829 H 0.34283 0.20709 0.28322 0.0
H830 H 0.3227 0.23154 0.256 0.0
C831 C 0.23265 0.30812 0.18108 0.0
C832 C 0.26745 0.29621 0.23299 0.0
H833 H 0.31683 0.30274 0.26498 0.0
C834 C 0.26177 0.27281 0.23885 0.0
C835 C 0.2876 0.30715 0.24247 0.0
C836 C 0.29508 0.33194 0.23625 0.0
C837 C 0.27551 0.26011 0.254 0.0
C838 C 0.29577 0.27095 0.26334 0.0
C839 C 0.30137 0.29443 0.25769 0.0
C840 C 0.31098 0.25808 0.27925 0.0
C841 C 0.26794 0.23532 0.2602 0.0
C842 C 0.31214 0.26551 0.30118 0.0
C843 C 0.32389 0.25166 0.31681 0.0
C844 C 0.33479 0.23015 0.31079 0.0
C845 C 0.33486 0.22358 0.2885 0.0
C846 C 0.32309 0.23743 0.27291 0.0
H847 H 0.24922 0.23173 0.25562 0.0
H848 H 0.27931 0.2223 0.25149 0.0
H849 H 0.26999 0.23237 0.2781 0.0
H850 H 0.30307 0.28148 0.3064 0.0
H851 H 0.32374 0.25735 0.33377 0.0
H852 H 0.81271 0.28302 0.33841 0.0
H853 H 0.78782 0.26188 0.31227 0.0
H854 H 0.74261 0.32318 0.3066 0.0
H855 H 0.76778 0.34467 0.3327 0.0
H856 H 0.742 0.24895 0.31156 0.0
H857 H 0.7596 0.31156 0.24328 0.0
H858 H 0.77585 0.31257 0.2687 0.0
H859 H 0.74659 0.3251 0.26707 0.0
C860 C 0.7973 0.29198 0.33192 0.0
C861 C 0.79235 0.31566 0.33769 0.0
C862 C 0.78309 0.27985 0.31683 0.0
C863 C 0.76353 0.29101 0.30708 0.0
C864 C 0.75795 0.31434 0.31341 0.0
H865 H 0.66428 0.20676 0.22585 0.0
H866 H 0.68076 0.23143 0.25531 0.0
C867 C 0.7723 0.3266 0.32843 0.0
C868 C 0.74951 0.2782 0.29 0.0
H869 H 0.73298 0.28023 0.2361 0.0
C870 C 0.73991 0.25586 0.29509 0.0
C871 C 0.74701 0.28703 0.26838 0.0
C872 C 0.75797 0.31026 0.2614 0.0
C873 C 0.72826 0.24199 0.27918 0.0
C874 C 0.72557 0.25093 0.25762 0.0
C875 C 0.73484 0.27343 0.25263 0.0
C876 C 0.71481 0.23659 0.23958 0.0
C877 C 0.71987 0.21749 0.28542 0.0
C878 C 0.72805 0.23185 0.22056 0.0
C879 C 0.71858 0.21803 0.20365 0.0
C880 C 0.69556 0.20852 0.20526 0.0
C881 C 0.68214 0.21354 0.22418 0.0
C882 C 0.6916 0.22758 0.24108 0.0
H883 H 0.72849 0.21109 0.30067 0.0
H884 H 0.70045 0.21791 0.28832 0.0
H885 H 0.7235 0.20454 0.27209 0.0
H886 H 0.74599 0.23853 0.21896 0.0
H887 H 0.72961 0.21431 0.18954 0.0
H888 H 0.66694 0.77679 0.31709 0.0
H889 H 0.68452 0.74458 0.29602 0.0
H890 H 0.75118 0.78199 0.29455 0.0
H891 H 0.73417 0.81368 0.31645 0.0
H892 H 0.6996 0.74758 0.25558 0.0
H893 H 0.77486 0.71672 0.30552 0.0
H894 H 0.75203 0.7357 0.31659 0.0
H895 H 0.77659 0.74815 0.30152 0.0
C896 C 0.68548 0.77806 0.31284 0.0
C897 C 0.69884 0.7984 0.31821 0.0
C898 C 0.69554 0.75952 0.30063 0.0
C899 C 0.71925 0.76069 0.29361 0.0
C900 C 0.73298 0.78031 0.29998 0.0
H901 H 0.77986 0.71083 0.1739 0.0
H902 H 0.75851 0.73054 0.20335 0.0
C903 C 0.72302 0.79873 0.31233 0.0
C904 C 0.7289 0.74287 0.2778 0.0
H905 H 0.77749 0.7087 0.26652 0.0
C906 C 0.71645 0.7388 0.25819 0.0
C907 C 0.75071 0.73098 0.28117 0.0
C908 C 0.76416 0.73292 0.30246 0.0
C909 C 0.72571 0.72423 0.24153 0.0
C910 C 0.74839 0.71388 0.24419 0.0
C911 C 0.76028 0.7169 0.26424 0.0
C912 C 0.76061 0.70107 0.22596 0.0
C913 C 0.71104 0.72018 0.22119 0.0
C914 C 0.7695 0.678 0.22886 0.0
C915 C 0.78195 0.6666 0.21191 0.0
C916 C 0.78582 0.67805 0.1917 0.0
C917 C 0.77675 0.70111 0.1889 0.0
C918 C 0.76448 0.71249 0.20583 0.0
H919 H 0.6918 0.72197 0.22475 0.0
H920 H 0.71571 0.73374 0.20874 0.0
H921 H 0.71428 0.70234 0.21407 0.0
H922 H 0.7669 0.66884 0.24427 0.0
H923 H 0.78863 0.64886 0.21465 0.0
H924 H 0.22118 0.65652 0.29718 0.0
H925 H 0.24864 0.67139 0.269 0.0
H926 H 0.21571 0.74019 0.27256 0.0
H927 H 0.188 0.72556 0.29993 0.0
H928 H 0.23527 0.69863 0.22567 0.0
H929 H 0.29048 0.74812 0.28575 0.0
H930 H 0.27256 0.72282 0.29335 0.0
H931 H 0.2589 0.75114 0.28886 0.0
C932 C 0.2196 0.67472 0.2918 0.0
C933 C 0.20252 0.68988 0.30119 0.0
C934 C 0.23537 0.68321 0.27575 0.0
C935 C 0.23437 0.70698 0.26896 0.0
C936 C 0.21699 0.72189 0.27782 0.0
H937 H 0.28165 0.79732 0.16639 0.0
H938 H 0.26066 0.77042 0.1908 0.0
C939 C 0.20123 0.71346 0.29365 0.0
C940 C 0.25151 0.71675 0.25285 0.0
H941 H 0.29574 0.75783 0.24814 0.0
C942 C 0.24876 0.71129 0.23055 0.0
C943 C 0.26916 0.73314 0.25931 0.0
C944 C 0.27319 0.73911 0.28313 0.0
C945 C 0.26255 0.72266 0.21443 0.0
C946 C 0.27931 0.74006 0.22081 0.0
C947 C 0.28282 0.74461 0.24322 0.0
C948 C 0.29233 0.75485 0.20457 0.0
C949 C 0.25883 0.71619 0.19068 0.0
C950 C 0.3172 0.75526 0.20424 0.0
C951 C 0.32939 0.77063 0.19013 0.0
C952 C 0.31696 0.7862 0.1762 0.0
C953 C 0.29198 0.78543 0.17646 0.0
C954 C 0.27986 0.76999 0.19047 0.0
H955 H 0.25087 0.69826 0.18895 0.0
H956 H 0.24652 0.72916 0.18312 0.0
H957 H 0.27581 0.71668 0.18145 0.0
H958 H 0.32721 0.7438 0.21506 0.0
H959 H 0.34855 0.77035 0.19033 0.0
H960 H 0.74596 0.80997 0.67038 0.0
H961 H 0.77065 0.79093 0.69802 0.0
H962 H 0.75125 0.84485 0.74491 0.0
H963 H 0.72576 0.86364 0.71745 0.0
H964 H 0.80904 0.80725 0.72232 0.0
H965 H 0.73329 0.78345 0.7765 0.0
H966 H 0.72918 0.79364 0.74873 0.0
H967 H 0.73611 0.81442 0.77014 0.0
C968 C 0.74678 0.81775 0.68659 0.0
C969 C 0.73354 0.83817 0.69174 0.0
C970 C 0.76109 0.80693 0.70234 0.0
C971 C 0.7625 0.81621 0.72365 0.0
C972 C 0.75008 0.83712 0.72868 0.0
H973 H 0.82972 0.7509 0.8384 0.0
H974 H 0.81134 0.77987 0.81387 0.0
C975 C 0.7357 0.84799 0.71288 0.0
C976 C 0.77654 0.80345 0.74054 0.0
H977 H 0.7713 0.77199 0.78816 0.0
C978 C 0.80082 0.79968 0.7368 0.0
C979 C 0.76582 0.79358 0.75945 0.0
C980 C 0.73964 0.79625 0.76396 0.0
C981 C 0.81459 0.78608 0.75128 0.0
C982 C 0.80372 0.77567 0.76984 0.0
C983 C 0.77962 0.78002 0.77394 0.0
C984 C 0.81658 0.75901 0.78447 0.0
C985 C 0.84066 0.78296 0.74656 0.0
C986 C 0.82567 0.73767 0.77612 0.0
C987 C 0.83605 0.72101 0.79009 0.0
C988 C 0.83747 0.72525 0.81282 0.0
C989 C 0.82875 0.74691 0.82106 0.0
C990 C 0.81832 0.76355 0.80705 0.0
H991 H 0.84758 0.79742 0.73597 0.0
H992 H 0.85114 0.78253 0.76196 0.0
H993 H 0.84339 0.76592 0.7378 0.0
H994 H 0.82402 0.73351 0.75884 0.0
H995 H 0.84206 0.70443 0.78311 0.0
H996 H 0.19952 0.72504 0.67202 0.0
H997 H 0.22325 0.74508 0.69994 0.0
H998 H 0.17655 0.71858 0.75032 0.0
H999 H 0.15234 0.69879 0.72216 0.0
H1000 H 0.19065 0.76464 0.75836 0.0
H1001 H 0.26867 0.7091 0.73886 0.0
H1002 H 0.25791 0.72455 0.71521 0.0
H1003 H 0.23951 0.70262 0.72832 0.0
C1004 C 0.19426 0.72355 0.68904 0.0
C1005 C 0.1743 0.71007 0.69496 0.0
C1006 C 0.20787 0.73495 0.70499 0.0
C1007 C 0.2021 0.73277 0.72729 0.0
C1008 C 0.18147 0.72031 0.73323 0.0
H1009 H 0.31329 0.76717 0.82183 0.0
H1010 H 0.28118 0.74665 0.80255 0.0
C1011 C 0.16762 0.70908 0.71716 0.0
C1012 C 0.21812 0.74296 0.74423 0.0
H1013 H 0.276 0.7437 0.76046 0.0
C1014 C 0.20927 0.75991 0.759 0.0
C1015 C 0.24231 0.73639 0.74544 0.0
C1016 C 0.25261 0.71698 0.73127 0.0
C1017 C 0.22418 0.77119 0.77431 0.0
C1018 C 0.24871 0.76576 0.77449 0.0
C1019 C 0.25729 0.74812 0.76027 0.0
C1020 C 0.26611 0.77856 0.78859 0.0
C1021 C 0.21342 0.78865 0.79021 0.0
C1022 C 0.26822 0.80337 0.78752 0.0
C1023 C 0.28638 0.81511 0.79876 0.0
C1024 C 0.30316 0.80226 0.81096 0.0
C1025 C 0.30072 0.77751 0.81246 0.0
C1026 C 0.28234 0.7658 0.80147 0.0
H1027 H 0.1944 0.78465 0.79323 0.0
H1028 H 0.2229 0.78861 0.80615 0.0
H1029 H 0.21448 0.80674 0.78313 0.0
H1030 H 0.25646 0.81362 0.77721 0.0
H1031 H 0.28805 0.83414 0.79695 0.0
H1032 H 0.25937 0.14763 0.68121 0.0
H1033 H 0.23188 0.16728 0.7063 0.0
H1034 H 0.27055 0.23274 0.69897 0.0
H1035 H 0.29843 0.21326 0.67435 0.0
H1036 H 0.24584 0.18875 0.74646 0.0
H1037 H 0.20063 0.25292 0.69189 0.0
H1038 H 0.21643 0.22736 0.68157 0.0
H1039 H 0.2324 0.25352 0.68976 0.0
C1040 C 0.26203 0.16624 0.68476 0.0
C1041 C 0.28139 0.17872 0.67576 0.0
C1042 C 0.24618 0.17747 0.69907 0.0
C1043 C 0.2491 0.20149 0.70442 0.0
C1044 C 0.26773 0.21428 0.69479 0.0
H1045 H 0.21413 0.28597 0.81603 0.0
H1046 H 0.23161 0.25889 0.78916 0.0
C1047 C 0.28367 0.20305 0.6806 0.0
C1048 C 0.23393 0.21279 0.72137 0.0
H1049 H 0.19717 0.25986 0.73046 0.0
C1050 C 0.23495 0.20412 0.74292 0.0
C1051 C 0.21956 0.23268 0.7167 0.0
C1052 C 0.21695 0.24207 0.69369 0.0
C1053 C 0.22278 0.21545 0.76011 0.0
C1054 C 0.20942 0.23608 0.75563 0.0
C1055 C 0.20756 0.24413 0.73391 0.0
C1056 C 0.19835 0.25041 0.77332 0.0
C1057 C 0.22449 0.20536 0.78294 0.0
C1058 C 0.17382 0.25458 0.77344 0.0
C1059 C 0.16378 0.2701 0.78879 0.0
C1060 C 0.17816 0.28201 0.80412 0.0
C1061 C 0.20261 0.27718 0.80438 0.0
C1062 C 0.2126 0.26156 0.78913 0.0
H1063 H 0.22948 0.1863 0.78265 0.0
H1064 H 0.23837 0.21511 0.79218 0.0
H1065 H 0.20745 0.20731 0.7919 0.0
H1066 H 0.16253 0.24626 0.7613 0.0
H1067 H 0.14496 0.27367 0.78795 0.0
H1068 H 0.84822 0.27789 0.6959 0.0
H1069 H 0.82961 0.25181 0.72295 0.0
H1070 H 0.76179 0.26227 0.69184 0.0
H1071 H 0.78041 0.28803 0.66456 0.0
H1072 H 0.79695 0.26186 0.7525 0.0
H1073 H 0.76153 0.19149 0.69842 0.0
H1074 H 0.78255 0.21334 0.68892 0.0
H1075 H 0.75144 0.22034 0.69039 0.0
C1076 C 0.82935 0.27455 0.69478 0.0
C1077 C 0.8158 0.28502 0.67805 0.0
C1078 C 0.81875 0.25955 0.7102 0.0
C1079 C 0.79433 0.25468 0.70928 0.0
C1080 C 0.78076 0.26512 0.69257 0.0
H1081 H 0.70424 0.21593 0.81712 0.0
H1082 H 0.72695 0.23498 0.78808 0.0
C1083 C 0.79141 0.27995 0.67701 0.0
C1084 C 0.78286 0.23999 0.72661 0.0
H1085 H 0.74561 0.19294 0.73494 0.0
C1086 C 0.78593 0.24665 0.74863 0.0
C1087 C 0.76877 0.21985 0.72169 0.0
C1088 C 0.76607 0.21067 0.69858 0.0
C1089 C 0.7747 0.23432 0.76573 0.0
C1090 C 0.75943 0.21511 0.76071 0.0
C1091 C 0.75704 0.20786 0.73879 0.0
C1092 C 0.74516 0.20302 0.77795 0.0
C1093 C 0.77944 0.24196 0.78905 0.0
C1094 C 0.74704 0.17845 0.78142 0.0
C1095 C 0.73386 0.16739 0.79806 0.0
C1096 C 0.71858 0.18074 0.81152 0.0
C1097 C 0.71631 0.20521 0.80752 0.0
C1098 C 0.72931 0.21616 0.79088 0.0
H1099 H 0.79672 0.25129 0.79049 0.0
H1100 H 0.76537 0.25446 0.79437 0.0
H1101 H 0.77945 0.22657 0.80038 0.0
H1102 H 0.759 0.1679 0.77151 0.0
H1103 H 0.73598 0.14854 0.80071 0.0
H1104 H 0.09739 0.33716 0.09046 0.0
H1105 H 0.0995 0.33196 0.05088 0.0
H1106 H 0.16286 0.37475 0.04874 0.0
H1107 H 0.16096 0.37994 0.08884 0.0
H1108 H 0.09992 0.36551 0.01675 0.0
H1109 H 0.18232 0.31145 0.01876 0.0
H1110 H 0.16486 0.31731 0.043 0.0
H1111 H 0.18384 0.33993 0.032 0.0
C1112 C 0.11175 0.34563 0.08162 0.0
C1113 C 0.12914 0.35883 0.0928 0.0
C1114 C 0.11289 0.34264 0.05896 0.0
C1115 C 0.13153 0.3526 0.04691 0.0
C1116 C 0.14852 0.36657 0.05783 0.0
H1117 H 0.16704 0.35011 0.90989 0.0
H1118 H 0.16707 0.35198 0.94983 0.0
C1119 C 0.14731 0.36972 0.08066 0.0
C1120 C 0.13302 0.34785 0.023 0.0
H1121 H 0.16599 0.31952 0.98391 0.0
C1122 C 0.11436 0.35546 0.00954 0.0
C1123 C 0.15178 0.33456 0.01371 0.0
C1124 C 0.17179 0.32512 0.02757 0.0
C1125 C 0.11415 0.35054 0.98696 0.0
C1126 C 0.13286 0.33715 0.97765 0.0
C1127 C 0.15154 0.32954 0.99112 0.0
C1128 C 0.13425 0.33257 0.95368 0.0
C1129 C 0.09422 0.36029 0.97316 0.0
C1130 C 0.11637 0.31997 0.94256 0.0
C1131 C 0.11634 0.31879 0.91956 0.0
C1132 C 0.13422 0.33021 0.90747 0.0
C1133 C 0.15295 0.34125 0.91877 0.0
C1134 C 0.153 0.34236 0.94162 0.0
H1135 H 0.08422 0.37443 0.98188 0.0
H1136 H 0.1011 0.36766 0.95752 0.0
H1137 H 0.08164 0.34578 0.96917 0.0
H1138 H 0.10197 0.31186 0.9516 0.0
H1139 H 0.10164 0.31026 0.91129 0.0
H1140 H 0.67348 0.0821 0.92192 0.0
H1141 H 0.67091 0.08271 0.96218 0.0
H1142 H 0.68887 0.15706 0.96223 0.0
H1143 H 0.6915 0.1564 0.92221 0.0
H1144 H 0.7077 0.13159 0.99854 0.0
H1145 H 0.61116 0.11603 0.98684 0.0
H1146 H 0.63044 0.09387 0.97537 0.0
H1147 H 0.63071 0.12342 0.96442 0.0
C1148 C 0.67812 0.09819 0.93066 0.0
C1149 C 0.68311 0.11911 0.91908 0.0
C1150 C 0.67619 0.09867 0.9536 0.0
C1151 C 0.67915 0.12009 0.96515 0.0
C1152 C 0.68641 0.14038 0.95369 0.0
H1153 H 0.65865 0.17199 0.09887 0.0
H1154 H 0.66272 0.16994 0.05876 0.0
C1155 C 0.6882 0.13993 0.93084 0.0
C1156 C 0.67233 0.12223 0.98864 0.0
H1157 H 0.62455 0.12054 0.02321 0.0
C1158 C 0.68954 0.12912 0.00396 0.0
C1159 C 0.64855 0.11925 0.99564 0.0
C1160 C 0.62904 0.11293 0.97974 0.0
C1161 C 0.68373 0.13271 0.02615 0.0
C1162 C 0.65991 0.1299 0.03313 0.0
C1163 C 0.64272 0.1229 0.01782 0.0
C1164 C 0.65287 0.13288 0.0565 0.0
C1165 C 0.70329 0.13894 0.04203 0.0
C1166 C 0.64422 0.11333 0.06828 0.0
C1167 C 0.64146 0.11467 0.09103 0.0
C1168 C 0.64696 0.13566 0.10235 0.0
C1169 C 0.65367 0.15583 0.09041 0.0
C1170 C 0.65646 0.15449 0.06758 0.0
H1171 H 0.72109 0.1349 0.03518 0.0
H1172 H 0.70259 0.15821 0.04568 0.0
H1173 H 0.70113 0.12915 0.05769 0.0
H1174 H 0.64123 0.09652 0.0601 0.0
H1175 H 0.63687 0.09872 0.1 0.0
H1176 H 0.86292 0.59928 0.90817 0.0
H1177 H 0.86541 0.60017 0.94805 0.0
H1178 H 0.90125 0.66768 0.94505 0.0
H1179 H 0.8987 0.66692 0.90469 0.0
H1180 H 0.90348 0.60511 0.9787 0.0
H1181 H 0.83962 0.68024 0.98095 0.0
H1182 H 0.84462 0.66277 0.95656 0.0
H1183 H 0.86592 0.68472 0.96478 0.0
C1184 C 0.87168 0.61419 0.91595 0.0
C1185 C 0.88041 0.63318 0.90336 0.0
C1186 C 0.87314 0.61461 0.93876 0.0
C1187 C 0.88315 0.63413 0.94953 0.0
C1188 C 0.89317 0.65257 0.93701 0.0
H1189 H 0.88332 0.67681 0.0848 0.0
H1190 H 0.88741 0.67263 0.04542 0.0
C1191 C 0.89189 0.65206 0.91401 0.0
C1192 C 0.8813 0.63568 0.97377 0.0
H1193 H 0.85321 0.66583 0.01483 0.0
C1194 C 0.8926 0.61844 0.98666 0.0
C1195 C 0.86678 0.65286 0.98404 0.0
C1196 C 0.85334 0.67112 0.97095 0.0
C1197 C 0.89017 0.61825 0.00963 0.0
C1198 C 0.87562 0.63544 0.01989 0.0
C1199 C 0.86428 0.6526 0.00694 0.0
C1200 C 0.87308 0.63708 0.04412 0.0
C1201 C 0.9036 0.60001 0.02273 0.0
C1202 C 0.86339 0.61848 0.05666 0.0
C1203 C 0.86103 0.62078 0.07952 0.0
C1204 C 0.86821 0.64177 0.09008 0.0
C1205 C 0.87759 0.66034 0.07733 0.0
C1206 C 0.87997 0.65802 0.0547 0.0
H1207 H 0.91801 0.59168 0.01297 0.0
H1208 H 0.91145 0.60811 0.03767 0.0
H1209 H 0.89121 0.58582 0.02799 0.0
H1210 H 0.8575 0.60231 0.04877 0.0
H1211 H 0.85373 0.60618 0.08887 0.0
H1212 H 0.32763 0.84984 0.90706 0.0
H1213 H 0.32735 0.83819 0.94591 0.0
H1214 H 0.40344 0.83069 0.94433 0.0
H1215 H 0.40375 0.84131 0.90579 0.0
H1216 H 0.38438 0.79515 0.96656 0.0
H1217 H 0.34602 0.88022 0.99607 0.0
H1218 H 0.32763 0.86437 0.97704 0.0
H1219 H 0.3557 0.87611 0.96815 0.0
C1220 C 0.34423 0.84565 0.91505 0.0
C1221 C 0.36569 0.84661 0.90334 0.0
C1222 C 0.34409 0.8391 0.93727 0.0
C1223 C 0.36545 0.83389 0.94819 0.0
C1224 C 0.38674 0.83456 0.93635 0.0
H1225 H 0.42229 0.82821 0.0772 0.0
H1226 H 0.41591 0.82211 0.03774 0.0
C1227 C 0.38686 0.84075 0.91424 0.0
C1228 C 0.36617 0.82827 0.97203 0.0
H1229 H 0.35483 0.8515 0.02273 0.0
C1230 C 0.37775 0.80742 0.97883 0.0
C1231 C 0.35767 0.8443 0.98811 0.0
C1232 C 0.34626 0.8676 0.98206 0.0
C1233 C 0.38143 0.80245 1.00116 0.0
C1234 C 0.37322 0.81865 0.01709 0.0
C1235 C 0.36099 0.83906 0.0104 0.0
C1236 C 0.37821 0.81576 0.0408 0.0
C1237 C 0.39427 0.7801 0.00764 0.0
C1238 C 0.35935 0.81319 0.0556 0.0
C1239 C 0.36307 0.81634 0.07805 0.0
C1240 C 0.38566 0.82219 0.08604 0.0
C1241 C 0.40489 0.82294 0.07146 0.0
C1242 C 0.4012 0.81965 0.04893 0.0
H1243 H 0.39546 0.76728 0.99383 0.0
H1244 H 0.41253 0.78469 0.01291 0.0
H1245 H 0.3852 0.77143 0.02168 0.0
H1246 H 0.34147 0.81041 0.04964 0.0
H1247 H 0.34788 0.81632 0.08896 0.0
H1248 H 0.18987 0.67836 0.40928 0.0
H1249 H 0.19279 0.68296 0.44902 0.0
H1250 H 0.17167 0.60998 0.45733 0.0
H1251 H 0.16924 0.6053 0.41749 0.0
H1252 H 0.15044 0.67808 0.47004 0.0
H1253 H 0.21681 0.61947 0.50892 0.0
H1254 H 0.21837 0.62784 0.48035 0.0
H1255 H 0.19884 0.6044 0.48901 0.0
C1256 C 0.18737 0.66291 0.41958 0.0
C1257 C 0.17964 0.6414 0.41042 0.0
C1258 C 0.18878 0.66562 0.44229 0.0
C1259 C 0.18235 0.64688 0.45619 0.0
C1260 C 0.17713 0.62459 0.44697 0.0
H1261 H 0.12163 0.62084 0.58027 0.0
H1262 H 0.13899 0.62161 0.54376 0.0
C1263 C 0.1759 0.62183 0.42416 0.0
C1264 C 0.17627 0.65188 0.47943 0.0
H1265 H 0.18454 0.63252 0.53183 0.0
C1266 C 0.15823 0.66848 0.48363 0.0
C1267 C 0.18633 0.63924 0.49709 0.0
C1268 C 0.20632 0.6219 0.49368 0.0
C1269 C 0.14906 0.67183 0.50482 0.0
C1270 C 0.15852 0.65856 0.52239 0.0
C1271 C 0.17727 0.64269 0.51833 0.0
C1272 C 0.14768 0.65898 0.54458 0.0
C1273 C 0.12842 0.68852 0.50794 0.0
C1274 C 0.14643 0.67988 0.55717 0.0
C1275 C 0.13613 0.67957 0.57814 0.0
C1276 C 0.12728 0.65827 0.58686 0.0
C1277 C 0.12838 0.63753 0.57407 0.0
C1278 C 0.13841 0.6379 0.55321 0.0
H1279 H 0.12016 0.6936 0.4921 0.0
H1280 H 0.11461 0.68036 0.51851 0.0
H1281 H 0.13471 0.70495 0.51611 0.0
H1282 H 0.15377 0.6963 0.55096 0.0
H1283 H 0.13576 0.69574 0.58775 0.0
H1284 H 0.39901 0.14275 0.41153 0.0
H1285 H 0.39838 0.13676 0.4516 0.0
H1286 H 0.32194 0.13711 0.45072 0.0
H1287 H 0.32242 0.14325 0.41127 0.0
H1288 H 0.34138 0.16333 0.48537 0.0
H1289 H 0.3794 0.07251 0.47968 0.0
H1290 H 0.39652 0.09581 0.46723 0.0
H1291 H 0.3681 0.0881 0.45607 0.0
C1292 C 0.38216 0.14192 0.42002 0.0
C1293 C 0.36079 0.14326 0.40828 0.0
C1294 C 0.38179 0.13827 0.44281 0.0
C1295 C 0.36007 0.13607 0.45404 0.0
C1296 C 0.33886 0.13858 0.4424 0.0
H1297 H 0.31315 0.11004 0.5895 0.0
H1298 H 0.31349 0.11459 0.54928 0.0
C1299 C 0.33921 0.14204 0.41981 0.0
C1300 C 0.35896 0.13046 0.47778 0.0
H1301 H 0.37041 0.08685 0.51509 0.0
C1302 C 0.34775 0.14663 0.49191 0.0
C1303 C 0.36702 0.10854 0.48616 0.0
C1304 C 0.37828 0.09009 0.47154 0.0
C1305 C 0.34479 0.14167 0.51432 0.0
C1306 C 0.35282 0.11972 0.52271 0.0
C1307 C 0.36402 0.10354 0.50856 0.0
C1308 C 0.35179 0.11418 0.54648 0.0
C1309 C 0.33369 0.16023 0.52892 0.0
C1310 C 0.37304 0.11128 0.55799 0.0
C1311 C 0.37283 0.10856 0.58067 0.0
C1312 C 0.35136 0.10853 0.59242 0.0
C1313 C 0.32992 0.10997 0.58083 0.0
C1314 C 0.33014 0.11282 0.55795 0.0
H1315 H 0.33294 0.17786 0.52082 0.0
H1316 H 0.3153 0.15481 0.53302 0.0
H1317 H 0.34373 0.16202 0.54448 0.0
H1318 H 0.38991 0.11209 0.54951 0.0
H1319 H 0.38967 0.10725 0.58912 0.0
H1320 H 0.80996 0.42156 0.43217 0.0
H1321 H 0.82856 0.40758 0.46573 0.0
H1322 H 0.87657 0.36441 0.42788 0.0
H1323 H 0.85793 0.37838 0.39418 0.0
H1324 H 0.85544 0.34001 0.46302 0.0
H1325 H 0.89333 0.42515 0.49133 0.0
H1326 H 0.86251 0.42772 0.48451 0.0
H1327 H 0.88366 0.42043 0.46343 0.0
C1328 C 0.82458 0.4092 0.43082 0.0
C1329 C 0.83237 0.40109 0.41017 0.0
C1330 C 0.83532 0.40133 0.45013 0.0
C1331 C 0.85422 0.38521 0.44938 0.0
C1332 C 0.8621 0.37699 0.4289 0.0
H1333 H 0.91466 0.35983 0.58049 0.0
H1334 H 0.91534 0.36354 0.54022 0.0
C1335 C 0.85137 0.38498 0.40952 0.0
C1336 C 0.86476 0.37626 0.47016 0.0
H1337 H 0.88725 0.39531 0.51909 0.0
C1338 C 0.86283 0.35202 0.47513 0.0
C1339 C 0.87491 0.39177 0.48583 0.0
C1340 C 0.87898 0.41767 0.48093 0.0
C1341 C 0.86912 0.34324 0.49592 0.0
C1342 C 0.87724 0.35916 0.51226 0.0
C1343 C 0.88085 0.38307 0.5067 0.0
C1344 C 0.87895 0.35226 0.5358 0.0
C1345 C 0.86638 0.31708 0.50034 0.0
C1346 C 0.85856 0.34412 0.54665 0.0
C1347 C 0.85822 0.34202 0.56945 0.0
C1348 C 0.87828 0.34782 0.58195 0.0
C1349 C 0.8992 0.35459 0.57114 0.0
C1350 C 0.89949 0.35694 0.54819 0.0
H1351 H 0.86881 0.30655 0.48509 0.0
H1352 H 0.87928 0.31084 0.5128 0.0
H1353 H 0.84819 0.31358 0.50651 0.0
H1354 H 0.8423 0.34101 0.53767 0.0
H1355 H 0.8417 0.33734 0.57743 0.0
H1356 H 0.66831 0.89003 0.40172 0.0
H1357 H 0.67432 0.88905 0.44111 0.0
H1358 H 0.62046 0.83519 0.4473 0.0
H1359 H 0.61417 0.83606 0.40729 0.0
H1360 H 0.61597 0.87527 0.4767 0.0
H1361 H 0.70682 0.83796 0.47872 0.0
H1362 H 0.70346 0.8624 0.46013 0.0
H1363 H 0.68768 0.83521 0.45511 0.0
C1364 C 0.65775 0.87779 0.41131 0.0
C1365 C 0.64069 0.86311 0.40128 0.0
C1366 C 0.6614 0.87715 0.4339 0.0
C1367 C 0.64815 0.8618 0.44714 0.0
C1368 C 0.63105 0.84702 0.43731 0.0
H1369 H 0.63792 0.85344 0.58912 0.0
H1370 H 0.63443 0.84689 0.54981 0.0
C1371 C 0.62748 0.84751 0.41449 0.0
C1372 C 0.65143 0.86255 0.47131 0.0
H1373 H 0.69323 0.85674 0.51154 0.0
C1374 C 0.63274 0.87091 0.48438 0.0
C1375 C 0.67346 0.85719 0.48126 0.0
C1376 C 0.69396 0.84749 0.46813 0.0
C1377 C 0.63566 0.8747 0.507 0.0
C1378 C 0.65774 0.86947 0.51695 0.0
C1379 C 0.67637 0.86086 0.50392 0.0
C1380 C 0.66151 0.87231 0.54097 0.0
C1381 C 0.61527 0.88501 0.51991 0.0
C1382 C 0.67878 0.88797 0.54924 0.0
C1383 C 0.68106 0.89161 0.57196 0.0
C1384 C 0.66605 0.87963 0.58667 0.0
C1385 C 0.64953 0.86325 0.57827 0.0
C1386 C 0.6474 0.85954 0.55574 0.0
H1387 H 0.60235 0.89417 0.5091 0.0
H1388 H 0.60575 0.87048 0.52846 0.0
H1389 H 0.62165 0.89782 0.53243 0.0
H1390 H 0.69003 0.89786 0.53812 0.0
H1391 H 0.69395 0.9043 0.57793 0.0
H1392 H 0.13057 0.55052 0.31431 0.0
H1393 H 0.14489 0.52229 0.28726 0.0
H1394 H 0.20091 0.57053 0.26906 0.0
H1395 H 0.18646 0.59929 0.29657 0.0
H1396 H 0.17377 0.55302 0.23317 0.0
H1397 H 0.20301 0.47895 0.28539 0.0
H1398 H 0.17458 0.48965 0.29407 0.0
H1399 H 0.20005 0.5089 0.29565 0.0
C1400 C 0.14615 0.55509 0.30481 0.0
C1401 C 0.15736 0.57716 0.30754 0.0
C1402 C 0.15447 0.53879 0.28945 0.0
C1403 C 0.1742 0.54409 0.27635 0.0
C1404 C 0.18581 0.56598 0.2792 0.0
H1405 H 0.18498 0.41932 0.1906 0.0
H1406 H 0.2023 0.45353 0.21003 0.0
C1407 C 0.1776 0.58233 0.29492 0.0
C1408 C 0.18067 0.52734 0.25849 0.0
H1409 H 0.18655 0.46787 0.24969 0.0
C1410 C 0.17734 0.53451 0.23668 0.0
C1411 C 0.18585 0.50328 0.26291 0.0
C1412 C 0.19134 0.4948 0.28579 0.0
C1413 C 0.17644 0.51782 0.21955 0.0
C1414 C 0.17852 0.49336 0.22445 0.0
C1415 C 0.18455 0.48655 0.24587 0.0
C1416 C 0.17028 0.47466 0.20897 0.0
C1417 C 0.17201 0.52646 0.19653 0.0
C1418 C 0.14674 0.4753 0.20157 0.0
C1419 C 0.13692 0.45591 0.19067 0.0
C1420 C 0.15035 0.43535 0.18689 0.0
C1421 C 0.17435 0.43509 0.19306 0.0
C1422 C 0.18419 0.45456 0.20424 0.0
H1423 H 0.18033 0.5441 0.19391 0.0
H1424 H 0.17902 0.51386 0.18411 0.0
H1425 H 0.15265 0.52851 0.19397 0.0
H1426 H 0.1354 0.49022 0.20546 0.0
H1427 H 0.11835 0.45655 0.18614 0.0
H1428 H 0.60058 0.17447 0.19959 0.0
H1429 H 0.5686 0.19122 0.22233 0.0
H1430 H 0.55767 0.12277 0.25215 0.0
H1431 H 0.58921 0.10611 0.22991 0.0
H1432 H 0.52149 0.17816 0.22369 0.0
H1433 H 0.5604 0.1656 0.3056 0.0
H1434 H 0.57806 0.16482 0.28086 0.0
H1435 H 0.56257 0.13868 0.29007 0.0
C1436 C 0.59142 0.16308 0.2111 0.0
C1437 C 0.59754 0.13896 0.21296 0.0
C1438 C 0.57324 0.17269 0.22414 0.0
C1439 C 0.56117 0.1584 0.23938 0.0
C1440 C 0.56721 0.13435 0.24105 0.0
H1441 H 0.42982 0.12705 0.27897 0.0
H1442 H 0.46632 0.13942 0.26163 0.0
C1443 C 0.58517 0.12478 0.22809 0.0
C1444 C 0.54088 0.16754 0.25245 0.0
H1445 H 0.51695 0.16308 0.30373 0.0
C1446 C 0.52071 0.17561 0.2413 0.0
C1447 C 0.53992 0.16485 0.27553 0.0
C1448 C 0.56153 0.15827 0.28871 0.0
C1449 C 0.49897 0.17838 0.25224 0.0
C1450 C 0.49733 0.17255 0.27477 0.0
C1451 C 0.51807 0.16719 0.28639 0.0
C1452 C 0.47414 0.1671 0.28514 0.0
C1453 C 0.47759 0.18609 0.23928 0.0
C1454 C 0.46646 0.17823 0.30456 0.0
C1455 C 0.44523 0.17106 0.31476 0.0
C1456 C 0.4318 0.15234 0.30587 0.0
C1457 C 0.43967 0.14145 0.28641 0.0
C1458 C 0.4605 0.1487 0.27625 0.0
H1459 H 0.48281 0.19813 0.22569 0.0
H1460 H 0.46904 0.17026 0.23187 0.0
H1461 H 0.4644 0.19525 0.24984 0.0
H1462 H 0.47695 0.19225 0.31187 0.0
H1463 H 0.43965 0.17973 0.32976 0.0
H1464 H 0.83272 0.38917 0.26596 0.0
H1465 H 0.8335 0.42405 0.24202 0.0
H1466 H 0.82996 0.46975 0.2987 0.0
H1467 H 0.82987 0.43508 0.32269 0.0
H1468 H 0.80457 0.46273 0.23498 0.0
H1469 H 0.8908 0.49118 0.26994 0.0
H1470 H 0.87798 0.46256 0.27569 0.0
H1471 H 0.86778 0.48851 0.29009 0.0
C1472 C 0.8319 0.40665 0.2733 0.0
C1473 C 0.83167 0.40939 0.29621 0.0
C1474 C 0.83231 0.42657 0.2596 0.0
C1475 C 0.83232 0.44952 0.26858 0.0
C1476 C 0.8306 0.45223 0.29142 0.0
H1477 H 0.82412 0.5842 0.19626 0.0
H1478 H 0.81281 0.54805 0.21631 0.0
C1479 C 0.83049 0.43239 0.3051 0.0
C1480 C 0.83559 0.47055 0.25423 0.0
H1481 H 0.87241 0.51759 0.24524 0.0
C1482 C 0.8194 0.47474 0.23716 0.0
C1483 C 0.85514 0.48603 0.25692 0.0
C1484 C 0.87405 0.48177 0.274 0.0
C1485 C 0.82221 0.49407 0.22277 0.0
C1486 C 0.8415 0.5098 0.2258 0.0
C1487 C 0.85757 0.50559 0.24294 0.0
C1488 C 0.84634 0.53019 0.21099 0.0
C1489 C 0.80492 0.49709 0.20415 0.0
C1490 C 0.86875 0.53211 0.20112 0.0
C1491 C 0.87529 0.55276 0.19014 0.0
C1492 C 0.85947 0.57186 0.18847 0.0
C1493 C 0.83648 0.56953 0.19708 0.0
C1494 C 0.83003 0.54888 0.2085 0.0
H1495 H 0.79505 0.48043 0.20071 0.0
H1496 H 0.79183 0.51097 0.20859 0.0
H1497 H 0.81416 0.50277 0.18895 0.0
H1498 H 0.88161 0.51795 0.20272 0.0
H1499 H 0.89311 0.55412 0.18361 0.0
H1500 H 0.59922 0.78776 0.27784 0.0
H1501 H 0.56081 0.78458 0.25975 0.0
H1502 H 0.52687 0.81522 0.31651 0.0
H1503 H 0.56551 0.81917 0.33449 0.0
H1504 H 0.5178 0.7649 0.26644 0.0
H1505 H 0.51089 0.86313 0.26998 0.0
H1506 H 0.53745 0.84757 0.2778 0.0
H1507 H 0.51274 0.84937 0.29642 0.0
C1508 C 0.58354 0.79331 0.28672 0.0
C1509 C 0.58542 0.80414 0.30744 0.0
C1510 C 0.56156 0.79154 0.27631 0.0
C1511 C 0.54105 0.80035 0.28648 0.0
C1512 C 0.54257 0.80901 0.30806 0.0
H1513 H 0.39958 0.82531 0.2353 0.0
H1514 H 0.43303 0.81571 0.25904 0.0
C1515 C 0.56461 0.81107 0.31839 0.0
C1516 C 0.5187 0.8023 0.27374 0.0
H1517 H 0.4788 0.84256 0.25407 0.0
C1518 C 0.50923 0.78187 0.2638 0.0
C1519 C 0.50768 0.82453 0.27004 0.0
C1520 C 0.5178 0.84743 0.27892 0.0
C1521 C 0.48899 0.78307 0.2504 0.0
C1522 C 0.47801 0.80523 0.24688 0.0
C1523 C 0.48726 0.82558 0.25697 0.0
C1524 C 0.45714 0.80798 0.23241 0.0
C1525 C 0.47939 0.76073 0.24009 0.0
C1526 C 0.45959 0.80652 0.20954 0.0
C1527 C 0.44051 0.81218 0.19583 0.0
C1528 C 0.41868 0.81937 0.20482 0.0
C1529 C 0.4161 0.81985 0.22778 0.0
C1530 C 0.4352 0.81436 0.24142 0.0
H1531 H 0.48762 0.74454 0.2471 0.0
H1532 H 0.45988 0.75971 0.24235 0.0
H1533 H 0.48301 0.76105 0.2222 0.0
H1534 H 0.47651 0.80189 0.2023 0.0
H1535 H 0.44313 0.81168 0.17824 0.0
H1536 H 0.84709 0.58757 0.75098 0.0
H1537 H 0.83402 0.54961 0.73704 0.0
H1538 H 0.7657 0.55943 0.76731 0.0
H1539 H 0.77797 0.59864 0.78029 0.0
H1540 H 0.79716 0.51865 0.78238 0.0
H1541 H 0.78281 0.52227 0.69247 0.0
H1542 H 0.80783 0.53912 0.70209 0.0
H1543 H 0.77842 0.54761 0.71026 0.0
C1544 C 0.82884 0.58253 0.75384 0.0
C1545 C 0.81382 0.59624 0.7673 0.0
C1546 C 0.82146 0.56055 0.74592 0.0
C1547 C 0.79903 0.5517 0.75136 0.0
C1548 C 0.78316 0.56602 0.76307 0.0
H1549 H 0.78843 0.40506 0.7068 0.0
H1550 H 0.77253 0.44167 0.72258 0.0
C1551 C 0.79034 0.58834 0.77062 0.0
C1552 C 0.79424 0.52625 0.74787 0.0
H1553 H 0.79452 0.48458 0.70742 0.0
C1554 C 0.79583 0.5111 0.76605 0.0
C1555 C 0.79248 0.51657 0.7266 0.0
C1556 C 0.79008 0.53221 0.7067 0.0
C1557 C 0.79777 0.48647 0.76331 0.0
C1558 C 0.79809 0.47696 0.7419 0.0
C1559 C 0.79437 0.49196 0.72386 0.0
C1560 C 0.80564 0.45233 0.73744 0.0
C1561 C 0.8007 0.47092 0.78321 0.0
C1562 C 0.82926 0.44579 0.74139 0.0
C1563 C 0.83849 0.42508 0.73216 0.0
C1564 C 0.82422 0.41066 0.71878 0.0
C1565 C 0.79995 0.41607 0.71674 0.0
C1566 C 0.79079 0.43689 0.72579 0.0
H1567 H 0.79324 0.47948 0.79813 0.0
H1568 H 0.79195 0.45347 0.78077 0.0
H1569 H 0.81986 0.46778 0.78607 0.0
H1570 H 0.84108 0.45768 0.75009 0.0
H1571 H 0.85727 0.42156 0.73389 0.0
H1572 H 0.61426 0.95622 0.71383 0.0
H1573 H 0.5755 0.96685 0.72845 0.0
H1574 H 0.57036 0.89841 0.75963 0.0
H1575 H 0.60943 0.88776 0.74538 0.0
H1576 H 0.53686 0.94165 0.71522 0.0
H1577 H 0.54143 0.94222 0.8057 0.0
H1578 H 0.5675 0.94488 0.78861 0.0
H1579 H 0.55506 0.91615 0.79447 0.0
C1580 C 0.6054 0.94377 0.72458 0.0
C1581 C 0.61488 0.92105 0.72837 0.0
C1582 C 0.58314 0.94987 0.7328 0.0
C1583 C 0.57013 0.93349 0.7452 0.0
C1584 C 0.58029 0.91148 0.7504 0.0
H1585 H 0.43339 0.88254 0.75025 0.0
H1586 H 0.47198 0.89784 0.73867 0.0
C1587 C 0.60253 0.90532 0.74209 0.0
C1588 C 0.54472 0.93761 0.74963 0.0
H1589 H 0.50308 0.93261 0.78985 0.0
C1590 C 0.52947 0.94028 0.7316 0.0
C1591 C 0.53513 0.93621 0.77099 0.0
C1592 C 0.55068 0.93497 0.79106 0.0
C1593 C 0.50481 0.9396 0.73422 0.0
C1594 C 0.49529 0.93582 0.75535 0.0
C1595 C 0.51047 0.93518 0.77358 0.0
C1596 C 0.47015 0.92951 0.75874 0.0
C1597 C 0.4892 0.94208 0.7143 0.0
C1598 C 0.45618 0.94253 0.77344 0.0
C1599 C 0.43415 0.93382 0.78006 0.0
C1600 C 0.42594 0.91173 0.77235 0.0
C1601 C 0.43932 0.89952 0.75653 0.0
C1602 C 0.46127 0.90834 0.74979 0.0
H1603 H 0.49815 0.95253 0.70124 0.0
H1604 H 0.48532 0.9242 0.70756 0.0
H1605 H 0.47213 0.95077 0.7185 0.0
H1606 H 0.46284 0.95879 0.78065 0.0
H1607 H 0.4244 0.94361 0.7924 0.0
H1608 H 0.12208 0.42978 0.76942 0.0
H1609 H 0.11101 0.47031 0.75973 0.0
H1610 H 0.04299 0.46079 0.79086 0.0
H1611 H 0.05407 0.42054 0.80117 0.0
H1612 H 0.07244 0.48722 0.73536 0.0
H1613 H 0.07042 0.51979 0.82165 0.0
H1614 H 0.08296 0.49142 0.81427 0.0
H1615 H 0.05138 0.4952 0.81516 0.0
C1616 C 0.10475 0.43627 0.77416 0.0
C1617 C 0.0891 0.42198 0.78625 0.0
C1618 C 0.09842 0.45938 0.76856 0.0
C1619 C 0.07638 0.46859 0.77498 0.0
C1620 C 0.06024 0.45409 0.78613 0.0
H1621 H 0.04368 0.60655 0.71891 0.0
H1622 H 0.0345 0.56968 0.73804 0.0
C1623 C 0.06655 0.43097 0.79174 0.0
C1624 C 0.07069 0.49354 0.7701 0.0
H1625 H 0.06472 0.54814 0.79379 0.0
C1626 C 0.07035 0.50053 0.74808 0.0
C1627 C 0.06797 0.51071 0.78688 0.0
C1628 C 0.06833 0.50404 0.81084 0.0
C1629 C 0.0685 0.52444 0.74231 0.0
C1630 C 0.06663 0.54174 0.75906 0.0
C1631 C 0.06595 0.53472 0.78109 0.0
C1632 C 0.06872 0.56712 0.75375 0.0
C1633 C 0.06997 0.53114 0.71836 0.0
C1634 C 0.09033 0.57865 0.75769 0.0
C1635 C 0.09561 0.59981 0.74694 0.0
C1636 C 0.07932 0.60961 0.73208 0.0
C1637 C 0.0566 0.59948 0.73028 0.0
C1638 C 0.05133 0.57833 0.7411 0.0
H1639 H 0.07461 0.51579 0.70775 0.0
H1640 H 0.05258 0.53815 0.71289 0.0
H1641 H 0.08342 0.54527 0.71585 0.0
H1642 H 0.10392 0.57023 0.76752 0.0
H1643 H 0.11308 0.6075 0.74891 0.0
H1644 H 0.42102 0.10765 0.74127 0.0
H1645 H 0.45506 0.12184 0.76203 0.0
H1646 H 0.42891 0.19349 0.7579 0.0
H1647 H 0.39402 0.17936 0.73793 0.0
H1648 H 0.47611 0.18057 0.73638 0.0
H1649 H 0.46785 0.15539 0.82411 0.0
H1650 H 0.45797 0.13348 0.80466 0.0
H1651 H 0.44244 0.16117 0.80684 0.0
C1652 C 0.42182 0.12626 0.74562 0.0
C1653 C 0.40497 0.14243 0.73766 0.0
C1654 C 0.44138 0.13435 0.75741 0.0
C1655 C 0.4444 0.15867 0.76132 0.0
C1656 C 0.42676 0.17465 0.75497 0.0
H1657 H 0.58167 0.19337 0.81913 0.0
H1658 H 0.54189 0.20233 0.80555 0.0
C1659 C 0.40698 0.16654 0.74348 0.0
C1660 C 0.46768 0.16733 0.7686 0.0
H1661 H 0.50713 0.1621 0.81046 0.0
C1662 C 0.4828 0.17718 0.75274 0.0
C1663 C 0.47615 0.16286 0.78992 0.0
C1664 C 0.46025 0.1528 0.80748 0.0
C1665 C 0.50685 0.18097 0.75725 0.0
C1666 C 0.51569 0.17484 0.77809 0.0
C1667 C 0.50016 0.16675 0.79446 0.0
C1668 C 0.54127 0.17329 0.7824 0.0
C1669 C 0.5229 0.1903 0.73947 0.0
C1670 C 0.55422 0.15451 0.77323 0.0
C1671 C 0.57668 0.14901 0.78123 0.0
C1672 C 0.58646 0.16227 0.79852 0.0
C1673 C 0.57433 0.18249 0.80614 0.0
C1674 C 0.55173 0.18778 0.79833 0.0
H1675 H 0.51273 0.19934 0.72633 0.0
H1676 H 0.53611 0.20288 0.74636 0.0
H1677 H 0.53272 0.17527 0.73199 0.0
H1678 H 0.54621 0.143 0.76106 0.0
H1679 H 0.58546 0.13325 0.77512 0.0
H1680 H 0.65043 0.05754 0.7886 0.0
H1681 H 0.67038 0.03331 0.7615 0.0
H1682 H 0.73799 0.05029 0.79044 0.0
H1683 H 0.71786 0.07542 0.81797 0.0
H1684 H 0.73751 0.05063 0.7429 0.0
H1685 H 0.69834 0.96819 0.77567 0.0
H1686 H 0.67605 0.9902 0.77082 0.0
H1687 H 0.69866 0.99555 0.79108 0.0
C1688 C 0.66956 0.05623 0.78942 0.0
C1689 C 0.6825 0.06819 0.80578 0.0
C1690 C 0.68095 0.04226 0.77383 0.0
C1691 C 0.70561 0.0395 0.77422 0.0
C1692 C 0.71888 0.052 0.78999 0.0
H1693 H 0.73977 0.92177 0.68787 0.0
H1694 H 0.74514 0.94854 0.71906 0.0
C1695 C 0.70739 0.06629 0.80571 0.0
C1696 C 0.71678 0.02311 0.75812 0.0
H1697 H 0.71007 0.96723 0.73766 0.0
C1698 C 0.73202 0.03222 0.74197 0.0
C1699 C 0.71003 0.99896 0.75711 0.0
C1700 C 0.69507 0.98759 0.77475 0.0
C1701 C 0.7393 0.01821 0.72401 0.0
C1702 C 0.73062 0.9947 0.72192 0.0
C1703 C 0.71669 0.98525 0.73894 0.0
C1704 C 0.73378 0.98004 0.7017 0.0
C1705 C 0.75598 0.0289 0.70741 0.0
C1706 C 0.72684 0.98887 0.6811 0.0
C1707 C 0.72453 0.97362 0.66305 0.0
C1708 C 0.72856 0.9492 0.66542 0.0
C1709 C 0.73692 0.9406 0.68556 0.0
C1710 C 0.73979 0.9559 0.70344 0.0
H1711 H 0.768 0.04201 0.71528 0.0
H1712 H 0.76689 0.01514 0.69916 0.0
H1713 H 0.74553 0.03847 0.69482 0.0
H1714 H 0.72136 0.00715 0.67931 0.0
H1715 H 0.71737 0.98055 0.64788 0.0
H1716 H 0.94159 0.62468 0.77474 0.0
H1717 H 0.97112 0.64588 0.75347 0.0
H1718 H 0.95814 0.70922 0.79133 0.0
H1719 H 0.92765 0.68807 0.81257 0.0
H1720 H 0.96077 0.71884 0.74767 0.0
H1721 H 0.03739 0.66347 0.77053 0.0
H1722 H 0.01397 0.64536 0.75991 0.0
H1723 H 0.0095 0.6618 0.78498 0.0
C1724 C 0.94503 0.64307 0.77878 0.0
C1725 C 0.93227 0.6546 0.79552 0.0
C1726 C 0.96213 0.65516 0.76663 0.0
C1727 C 0.96731 0.67902 0.77107 0.0
C1728 C 0.95462 0.69073 0.78774 0.0
H1729 H 0.09107 0.72383 0.69669 0.0
H1730 H 0.06354 0.72269 0.72768 0.0
C1731 C 0.93727 0.67861 0.79992 0.0
C1732 C 0.98531 0.6916 0.75751 0.0
H1733 H 0.04094 0.68493 0.73648 0.0
C1734 C 0.97848 0.71172 0.7455 0.0
C1735 C 0.0086 0.68268 0.75495 0.0
C1736 C 0.01785 0.6623 0.76849 0.0
C1737 C 0.99378 0.72218 0.73002 0.0
C1738 C 0.01632 0.71194 0.72611 0.0
C1739 C 0.02361 0.69274 0.73914 0.0
C1740 C 0.03204 0.7193 0.70763 0.0
C1741 C 0.98551 0.74397 0.71795 0.0
C1742 C 0.02353 0.71913 0.68594 0.0
C1743 C 0.03928 0.72052 0.66821 0.0
C1744 C 0.06381 0.72158 0.67188 0.0
C1745 C 0.0722 0.72346 0.69347 0.0
C1746 C 0.05645 0.72255 0.71117 0.0
H1747 H 0.97318 0.75459 0.72825 0.0
H1748 H 1.0006 0.75541 0.71297 0.0
H1749 H 0.97568 0.73846 0.70304 0.0
H1750 H 0.00496 0.71594 0.68262 0.0
H1751 H 0.03245 0.71825 0.65174 0.0
H1752 H 0.31457 0.04684 0.67881 0.0
H1753 H 0.30547 0.01217 0.70134 0.0
H1754 H 0.27787 0.05777 0.7521 0.0
H1755 H 0.28675 0.09247 0.72968 0.0
H1756 H 0.32815 0.00794 0.7421 0.0
H1757 H 0.23043 1.00201 0.75172 0.0
H1758 H 0.24438 0.01798 0.72949 0.0
H1759 H 0.2428 0.03098 0.75635 0.0
C1760 C 0.30588 0.04949 0.69444 0.0
C1761 C 0.30166 0.07246 0.70252 0.0
C1762 C 0.30074 0.02964 0.70734 0.0
C1763 C 0.29096 0.03239 0.72839 0.0
C1764 C 0.2851 0.05519 0.73581 0.0
H1765 H 0.32085 0.9352 0.83474 0.0
H1766 H 0.30916 0.97164 0.81586 0.0
C1767 C 0.29033 0.07503 0.72298 0.0
C1768 C 0.29026 0.01203 0.74373 0.0
H1769 H 0.25372 0.97813 0.77569 0.0
C1770 C 0.31186 1.00139 0.74938 0.0
C1771 C 0.26899 0.00361 0.75328 0.0
C1772 C 0.24527 0.01406 0.74731 0.0
C1773 C 0.31284 0.98259 0.76435 0.0
C1774 C 0.29164 0.97437 0.77417 0.0
C1775 C 0.26995 0.98481 0.76842 0.0
C1776 C 0.29197 0.95355 0.78891 0.0
C1777 C 0.33655 0.97132 0.76923 0.0
C1778 C 0.28462 0.93149 0.78078 0.0
C1779 C 0.29128 0.91067 0.79151 0.0
C1780 C 0.30536 0.91165 0.81051 0.0
C1781 C 0.31003 0.93384 0.82013 0.0
C1782 C 0.30349 0.9547 0.80929 0.0
H1783 H 0.35056 0.9772 0.75763 0.0
H1784 H 0.34216 0.97624 0.78607 0.0
H1785 H 0.33523 0.95168 0.76847 0.0
H1786 H 0.27565 0.93026 0.76512 0.0
H1787 H 0.28722 0.89381 0.78383 0.0
H1788 H 0.9417 0.33621 0.67639 0.0
H1789 H 0.97006 0.32741 0.70539 0.0
H1790 H 0.93054 0.26438 0.72212 0.0
H1791 H 0.90234 0.27293 0.69243 0.0
H1792 H 0.96272 0.32558 0.74799 0.0
H1793 H 0.99651 0.23798 0.72029 0.0
H1794 H 0.97856 0.25664 0.703 0.0
H1795 H 0.96503 0.23937 0.7244 0.0
C1796 C 0.9391 0.32044 0.6862 0.0
C1797 C 0.9198 0.30532 0.68227 0.0
C1798 C 0.95535 0.31537 0.70277 0.0
C1799 C 0.9526 0.29516 0.71597 0.0
C1800 C 0.9334 0.27981 0.71192 0.0
H1801 H 0.04774 0.30301 0.83084 0.0
H1802 H 0.01069 0.29458 0.81126 0.0
C1803 C 0.91726 0.28472 0.695 0.0
C1804 C 0.96956 0.29106 0.73431 0.0
H1805 H 0.01214 0.25318 0.75321 0.0
C1806 C 0.9734 0.30965 0.74926 0.0
C1807 C 0.98347 0.27026 0.73599 0.0
C1808 C 0.9809 0.24998 0.71999 0.0
C1809 C 0.99156 0.30867 0.76496 0.0
C1810 C 0.00579 0.28802 0.76644 0.0
C1811 C 1.00112 0.2689 0.75224 0.0
C1812 C 0.02771 0.28749 0.78006 0.0
C1813 C 0.9963 0.33048 0.77871 0.0
C1814 C 0.04965 0.28419 0.76965 0.0
C1815 C 0.07075 0.28836 0.78091 0.0
C1816 C 0.07044 0.29617 0.80283 0.0
C1817 C 0.0486 0.29718 0.81393 0.0
C1818 C 0.02738 0.29269 0.80265 0.0
H1819 H 0.98697 0.34637 0.7723 0.0
H1820 H 0.98998 0.32736 0.79569 0.0
H1821 H 0.01557 0.33448 0.77932 0.0
H1822 H 0.05049 0.27993 0.75233 0.0
H1823 H 0.08728 0.28706 0.77193 0.0
H1824 H 0.38113 0.95206 0.19684 0.0
H1825 H 0.36431 0.99047 0.20723 0.0
H1826 H 0.29458 0.95922 0.2104 0.0
H1827 H 0.31135 0.92059 0.20048 0.0
H1828 H 0.32617 0.01353 0.18122 0.0
H1829 H 0.30246 0.99755 0.26884 0.0
H1830 H 0.32435 0.97969 0.25487 0.0
H1831 H 0.29353 0.97611 0.24855 0.0
C1832 C 0.36234 0.95322 0.20037 0.0
C1833 C 0.34754 0.93338 0.1979 0.0
C1834 C 0.35272 0.97518 0.20601 0.0
C1835 C 0.32824 0.97757 0.20942 0.0
C1836 C 0.31353 0.95764 0.20788 0.0
H1837 H 0.28379 0.11133 0.26689 0.0
H1838 H 0.27491 0.0766 0.24426 0.0
C1839 C 0.32312 0.93566 0.20221 0.0
C1840 C 0.31826 1.00124 0.21387 0.0
H1841 H 0.29914 0.03634 0.2557 0.0
C1842 C 0.31979 0.01849 0.19737 0.0
C1843 C 0.30941 0.0074 0.23476 0.0
C1844 C 0.30733 0.98934 0.25289 0.0
C1845 C 0.31445 0.04228 0.20179 0.0
C1846 C 0.30787 0.04887 0.2233 0.0
C1847 C 0.30417 0.03123 0.23919 0.0
C1848 C 0.3104 0.07353 0.23114 0.0
C1849 C 0.31714 0.06032 0.18373 0.0
C1850 C 0.33296 0.0839 0.23043 0.0
C1851 C 0.33828 0.10324 0.2437 0.0
C1852 C 0.3211 0.11271 0.258 0.0
C1853 C 0.29769 0.10406 0.25665 0.0
C1854 C 0.29246 0.08438 0.24353 0.0
H1855 H 0.31251 0.05243 0.16759 0.0
H1856 H 0.3058 0.07611 0.18664 0.0
H1857 H 0.33591 0.06615 0.18288 0.0
H1858 H 0.34724 0.07556 0.22137 0.0
H1859 H 0.35657 0.109 0.24425 0.0
H1860 H 0.11044 0.28595 0.23886 0.0
H1861 H 0.08149 0.27156 0.26574 0.0
H1862 H 0.06718 0.34352 0.28558 0.0
H1863 H 0.09498 0.35815 0.25843 0.0
H1864 H 0.06778 0.30461 0.32115 0.0
H1865 H 0.01008 0.28893 0.2482 0.0
H1866 H 0.03947 0.27649 0.24931 0.0
H1867 H 0.03578 0.30788 0.24611 0.0
C1868 C 0.10137 0.29872 0.24915 0.0
C1869 C 0.10478 0.32328 0.24611 0.0
C1870 C 0.08503 0.29041 0.26462 0.0
C1871 C 0.07216 0.30654 0.27743 0.0
C1872 C 0.07709 0.33082 0.27587 0.0
H1873 H 0.96352 0.36065 0.34435 0.0
H1874 H 1.00082 0.34327 0.33277 0.0
C1875 C 0.09315 0.33915 0.26033 0.0
C1876 C 0.05097 0.29918 0.28987 0.0
H1877 H 0.99139 0.29462 0.28199 0.0
C1878 C 0.05111 0.3016 0.31274 0.0
C1879 C 0.02935 0.2949 0.27884 0.0
C1880 C 0.02842 0.29187 0.25426 0.0
C1881 C 0.02984 0.30206 0.32466 0.0
C1882 C 0.00803 0.30089 0.31324 0.0
C1883 C 0.00809 0.29579 0.29071 0.0
C1884 C 0.98564 0.30952 0.32312 0.0
C1885 C 0.03093 0.30512 0.3492 0.0
C1886 C 0.96444 0.29661 0.32105 0.0
C1887 C 0.94285 0.30674 0.32744 0.0
C1888 C 0.94218 0.32993 0.33596 0.0
C1889 C 0.96348 0.34257 0.33832 0.0
C1890 C 0.98491 0.33254 0.33186 0.0
H1891 H 0.04651 0.29564 0.35604 0.0
H1892 H 0.03309 0.32422 0.35316 0.0
H1893 H 0.01463 0.29843 0.35733 0.0
H1894 H 0.96455 0.27896 0.31401 0.0
H1895 H 0.92669 0.29654 0.32555 0.0
H1896 H 0.64558 0.92816 0.2425 0.0
H1897 H 0.67545 0.9563 0.22972 0.0
H1898 H 0.73056 0.91336 0.25834 0.0
H1899 H 0.7006 0.88491 0.27084 0.0
H1900 H 0.72553 0.95845 0.27704 0.0
H1901 H 0.73113 0.96624 0.1871 0.0
H1902 H 0.70095 0.96258 0.19576 0.0
H1903 H 0.72201 0.93916 0.20062 0.0
C1904 C 0.66416 0.92411 0.24496 0.0
C1905 C 0.67089 0.90444 0.2575 0.0
C1906 C 0.68126 0.94014 0.23764 0.0
C1907 C 0.70526 0.93683 0.243 0.0
C1908 C 0.7122 0.91605 0.25382 0.0
H1909 H 0.75139 0.07944 0.21518 0.0
H1910 H 0.76397 0.03926 0.2246 0.0
C1911 C 0.69509 0.89979 0.26084 0.0
C1912 C 0.72132 0.95751 0.24188 0.0
H1913 H 0.73281 0.00381 0.20782 0.0
C1914 C 0.72811 0.96803 0.26181 0.0
C1915 C 0.72513 0.96982 0.22207 0.0
C1916 C 0.71964 0.95871 0.20016 0.0
C1917 C 0.73525 0.99183 0.26263 0.0
C1918 C 0.73556 0.00518 0.24309 0.0
C1919 C 0.73227 0.99362 0.22289 0.0
C1920 C 0.73253 0.03119 0.24344 0.0
C1921 C 0.74017 0.00312 0.28457 0.0
C1922 C 0.71126 0.04031 0.25186 0.0
C1923 C 0.70359 0.06286 0.24589 0.0
C1924 C 0.71713 0.07681 0.23142 0.0
C1925 C 0.74001 0.06886 0.2256 0.0
C1926 C 0.74744 0.04599 0.23119 0.0
H1927 H 0.74782 0.99001 0.29616 0.0
H1928 H 0.75253 0.01837 0.28296 0.0
H1929 H 0.72328 0.00963 0.29171 0.0
H1930 H 0.69931 0.02907 0.26111 0.0
H1931 H 0.68589 0.06806 0.25077 0.0
H1932 H 0.9101 0.66057 0.25344 0.0
H1933 H 0.94005 0.67884 0.276 0.0
H1934 H 0.92359 0.74731 0.24862 0.0
H1935 H 0.89211 0.72932 0.22661 0.0
H1936 H 0.96956 0.73035 0.23927 0.0
H1937 H 0.95189 0.72362 0.32789 0.0
H1938 H 0.94235 0.69719 0.31407 0.0
H1939 H 0.92839 0.7251 0.30775 0.0
C1940 C 0.91171 0.67969 0.25291 0.0
C1941 C 0.89891 0.69331 0.23767 0.0
C1942 C 0.92901 0.69017 0.26595 0.0
C1943 C 0.93405 0.71442 0.26396 0.0
C1944 C 0.9199 0.72855 0.25038 0.0
H1945 H 0.07234 0.71565 0.32634 0.0
H1946 H 0.03718 0.73662 0.31323 0.0
C1947 C 0.90215 0.71812 0.23759 0.0
C1948 C 0.95715 0.72298 0.27205 0.0
H1949 H 0.9929 0.71454 0.31621 0.0
C1950 C 0.97463 0.72793 0.25628 0.0
C1951 C 0.96372 0.72022 0.29421 0.0
C1952 C 0.94549 0.71649 0.31196 0.0
C1953 C 0.99873 0.72673 0.26162 0.0
C1954 C 0.00527 0.72044 0.28317 0.0
C1955 C 0.98782 0.71891 0.29955 0.0
C1956 C 0.02896 0.7108 0.28813 0.0
C1957 C 0.01695 0.7303 0.24383 0.0
C1958 C 0.03616 0.68958 0.27803 0.0
C1959 C 0.05595 0.67733 0.28571 0.0
C1960 C 0.06878 0.68608 0.30369 0.0
C1961 C 0.06245 0.70818 0.31277 0.0
C1962 C 0.04255 0.72033 0.30519 0.0
H1963 H 0.01037 0.7428 0.23115 0.0
H1964 H 0.03387 0.73718 0.25062 0.0
H1965 H 0.02051 0.71306 0.23567 0.0
H1966 H 0.02558 0.68168 0.26513 0.0
H1967 H 0.06025 0.66031 0.27849 0.0
loop_
_geom_bond_atom_site_label_1
_geom_bond_atom_site_label_2
_geom_bond_distance
_geom_bond_site_symmetry_2
_ccdc_geom_bond_type
C0 C1 1.351 . S
C0 N3 1.368 . S
C0 H5 0.931 . S
C1 C0 1.351 . S
C1 N2 1.373 . S
C1 H29 0.930 . S
N2 C1 1.373 . S
N2 C4 1.340 . S
N3 C0 1.368 . S
N3 C4 1.321 . S
N3 Co6 2.135 . S
C4 N2 1.340 . S
C4 N3 1.321 . S
C4 H28 0.930 . S
H5 C0 0.931 . S
Co6 N3 2.135 . S
Co6 N9 2.121 . S
Co6 O14 2.055 . S
Co6 O17 2.039 . S
Co6 N20 2.140 . S
C7 O8 1.227 . S
C7 O17 1.265 . S
O8 C7 1.227 . S
N9 Co6 2.121 . S
N9 C11 1.375 . S
N9 C12 1.313 . S
C10 C11 1.338 . S
C10 N13 1.377 . S
C10 H30 0.930 . S
C11 N9 1.375 . S
C11 C10 1.338 . S
C11 H15 0.931 . S
C12 N9 1.313 . S
C12 N13 1.344 . S
C12 H16 0.930 . S
N13 C10 1.377 . S
N13 C12 1.344 . S
O14 Co6 2.055 . S
O14 C18 1.253 . S
H15 C11 0.931 . S
H16 C12 0.930 . S
O17 Co6 2.039 . S
O17 C7 1.265 . S
C18 O14 1.253 . S
C18 O19 1.227 . S
O19 C18 1.227 . S
N20 Co6 2.140 . S
N20 C23 1.346 . S
N20 C24 1.345 . S
C21 C22 1.387 . S
C21 C25 1.391 . S
C22 C21 1.387 . S
C22 C23 1.369 . S
C22 H31 0.929 . S
C23 N20 1.346 . S
C23 C22 1.369 . S
C23 H26 0.928 . S
C24 N20 1.345 . S
C24 C25 1.371 . S
C24 H27 0.931 . S
C25 C21 1.391 . S
C25 C24 1.371 . S
C25 H32 0.930 . S
H26 C23 0.928 . S
H27 C24 0.931 . S
H28 C4 0.930 . S
H29 C1 0.930 . S
H30 C10 0.930 . S
H31 C22 0.929 . S
H32 C25 0.930 . S
C33 C34 1.351 . S
C33 N36 1.368 . S
C33 H38 0.931 . S
C34 C33 1.351 . S
C34 N35 1.373 . S
C34 H62 0.930 . S
N35 C34 1.373 . S
N35 C37 1.340 . S
N36 C33 1.368 . S
N36 C37 1.321 . S
N36 Co39 2.135 . S
C37 N35 1.340 . S
C37 N36 1.321 . S
C37 H61 0.930 . S
H38 C33 0.931 . S
Co39 N36 2.135 . S
Co39 N42 2.121 . S
Co39 O47 2.055 . S
Co39 O50 2.039 . S
Co39 N53 2.140 . S
C40 O41 1.227 . S
C40 O50 1.265 . S
O41 C40 1.227 . S
N42 Co39 2.121 . S
N42 C44 1.375 . S
N42 C45 1.313 . S
C43 C44 1.338 . S
C43 N46 1.377 . S
C43 H63 0.930 . S
C44 N42 1.375 . S
C44 C43 1.338 . S
C44 H48 0.931 . S
C45 N42 1.313 . S
C45 N46 1.344 . S
C45 H49 0.930 . S
N46 C43 1.377 . S
N46 C45 1.344 . S
O47 Co39 2.055 . S
O47 C51 1.253 . S
H48 C44 0.931 . S
H49 C45 0.930 . S
O50 Co39 2.039 . S
O50 C40 1.265 . S
C51 O47 1.253 . S
C51 O52 1.227 . S
O52 C51 1.227 . S
N53 Co39 2.140 . S
N53 C56 1.346 . S
N53 C57 1.345 . S
C54 C55 1.387 . S
C54 C58 1.391 . S
C55 C54 1.387 . S
C55 C56 1.369 . S
C55 H64 0.929 . S
C56 N53 1.346 . S
C56 C55 1.369 . S
C56 H59 0.928 . S
C57 N53 1.345 . S
C57 C58 1.371 . S
C57 H60 0.931 . S
C58 C54 1.391 . S
C58 C57 1.371 . S
C58 H65 0.930 . S
H59 C56 0.928 . S
H60 C57 0.931 . S
H61 C37 0.930 . S
H62 C34 0.930 . S
H63 C43 0.930 . S
H64 C55 0.929 . S
H65 C58 0.930 . S
C66 C67 1.351 . S
C66 N69 1.368 . S
C66 H71 0.931 . S
C67 C66 1.351 . S
C67 N68 1.373 . S
C67 H95 0.930 . S
N68 C67 1.373 . S
N68 C70 1.340 . S
N69 C66 1.368 . S
N69 C70 1.321 . S
N69 Co72 2.135 . S
C70 N68 1.340 . S
C70 N69 1.321 . S
C70 H94 0.930 . S
H71 C66 0.931 . S
Co72 N69 2.135 . S
Co72 N75 2.121 . S
Co72 O80 2.055 . S
Co72 O83 2.039 . S
Co72 N86 2.140 . S
C73 O74 1.227 . S
C73 O83 1.265 . S
O74 C73 1.227 . S
N75 Co72 2.121 . S
N75 C77 1.375 . S
N75 C78 1.313 . S
C76 C77 1.338 . S
C76 N79 1.377 . S
C76 H96 0.930 . S
C77 N75 1.375 . S
C77 C76 1.338 . S
C77 H81 0.931 . S
C78 N75 1.313 . S
C78 N79 1.344 . S
C78 H82 0.930 . S
N79 C76 1.377 . S
N79 C78 1.344 . S
O80 Co72 2.055 . S
O80 C84 1.253 . S
H81 C77 0.931 . S
H82 C78 0.930 . S
O83 Co72 2.039 . S
O83 C73 1.265 . S
C84 O80 1.253 . S
C84 O85 1.227 . S
O85 C84 1.227 . S
N86 Co72 2.140 . S
N86 C89 1.346 . S
N86 C90 1.345 . S
C87 C88 1.387 . S
C87 C91 1.391 . S
C88 C87 1.387 . S
C88 C89 1.369 . S
C88 H97 0.929 . S
C89 N86 1.346 . S
C89 C88 1.369 . S
C89 H92 0.928 . S
C90 N86 1.345 . S
C90 C91 1.371 . S
C90 H93 0.931 . S
C91 C87 1.391 . S
C91 C90 1.371 . S
C91 H98 0.930 . S
H92 C89 0.928 . S
H93 C90 0.931 . S
H94 C70 0.930 . S
H95 C67 0.930 . S
H96 C76 0.930 . S
H97 C88 0.929 . S
H98 C91 0.930 . S
C99 C100 1.351 . S
C99 N102 1.368 . S
C99 H104 0.931 . S
C100 C99 1.351 . S
C100 N101 1.373 . S
C100 H128 0.930 . S
N101 C100 1.373 . S
N101 C103 1.340 . S
N102 C99 1.368 . S
N102 C103 1.321 . S
N102 Co105 2.135 . S
C103 N101 1.340 . S
C103 N102 1.321 . S
C103 H127 0.930 . S
H104 C99 0.931 . S
Co105 N102 2.135 . S
Co105 N108 2.121 . S
Co105 O113 2.055 . S
Co105 O116 2.039 . S
Co105 N119 2.140 . S
C106 O107 1.227 . S
C106 O116 1.265 . S
O107 C106 1.227 . S
N108 Co105 2.121 . S
N108 C110 1.375 . S
N108 C111 1.313 . S
C109 C110 1.338 . S
C109 N112 1.377 . S
C109 H129 0.930 . S
C110 N108 1.375 . S
C110 C109 1.338 . S
C110 H114 0.931 . S
C111 N108 1.313 . S
C111 N112 1.344 . S
C111 H115 0.930 . S
N112 C109 1.377 . S
N112 C111 1.344 . S
O113 Co105 2.055 . S
O113 C117 1.253 . S
H114 C110 0.931 . S
H115 C111 0.930 . S
O116 Co105 2.039 . S
O116 C106 1.265 . S
C117 O113 1.253 . S
C117 O118 1.227 . S
O118 C117 1.227 . S
N119 Co105 2.140 . S
N119 C122 1.346 . S
N119 C123 1.345 . S
C120 C121 1.387 . S
C120 C124 1.391 . S
C121 C120 1.387 . S
C121 C122 1.369 . S
C121 H130 0.929 . S
C122 N119 1.346 . S
C122 C121 1.369 . S
C122 H125 0.928 . S
C123 N119 1.345 . S
C123 C124 1.371 . S
C123 H126 0.931 . S
C124 C120 1.391 . S
C124 C123 1.371 . S
C124 H131 0.930 . S
H125 C122 0.928 . S
H126 C123 0.931 . S
H127 C103 0.930 . S
H128 C100 0.930 . S
H129 C109 0.930 . S
H130 C121 0.929 . S
H131 C124 0.930 . S
C132 C133 1.351 . S
C132 N135 1.368 . S
C132 H137 0.931 . S
C133 C132 1.351 . S
C133 N134 1.373 . S
C133 H161 0.930 . S
N134 C133 1.373 . S
N134 C136 1.340 . S
N135 C132 1.368 . S
N135 C136 1.321 . S
N135 Co138 2.135 . S
C136 N134 1.340 . S
C136 N135 1.321 . S
C136 H160 0.930 . S
H137 C132 0.931 . S
Co138 N135 2.135 . S
Co138 N141 2.121 . S
Co138 O146 2.055 . S
Co138 O149 2.039 . S
Co138 N152 2.140 . S
C139 O140 1.227 . S
C139 O149 1.265 . S
O140 C139 1.227 . S
N141 Co138 2.121 . S
N141 C143 1.375 . S
N141 C144 1.313 . S
C142 C143 1.338 . S
C142 N145 1.377 . S
C142 H162 0.930 . S
C143 N141 1.375 . S
C143 C142 1.338 . S
C143 H147 0.931 . S
C144 N141 1.313 . S
C144 N145 1.344 . S
C144 H148 0.930 . S
N145 C142 1.377 . S
N145 C144 1.344 . S
O146 Co138 2.055 . S
O146 C150 1.253 . S
H147 C143 0.931 . S
H148 C144 0.930 . S
O149 Co138 2.039 . S
O149 C139 1.265 . S
C150 O146 1.253 . S
C150 O151 1.227 . S
O151 C150 1.227 . S
N152 Co138 2.140 . S
N152 C155 1.346 . S
N152 C156 1.345 . S
C153 C154 1.387 . S
C153 C157 1.391 . S
C154 C153 1.387 . S
C154 C155 1.369 . S
C154 H163 0.929 . S
C155 N152 1.346 . S
C155 C154 1.369 . S
C155 H158 0.928 . S
C156 N152 1.345 . S
C156 C157 1.371 . S
C156 H159 0.931 . S
C157 C153 1.391 . S
C157 C156 1.371 . S
C157 H164 0.930 . S
H158 C155 0.928 . S
H159 C156 0.931 . S
H160 C136 0.930 . S
H161 C133 0.930 . S
H162 C142 0.930 . S
H163 C154 0.929 . S
H164 C157 0.930 . S
C165 C166 1.351 . S
C165 N168 1.368 . S
C165 H170 0.931 . S
C166 C165 1.351 . S
C166 N167 1.373 . S
C166 H194 0.930 . S
N167 C166 1.373 . S
N167 C169 1.340 . S
N168 C165 1.368 . S
N168 C169 1.321 . S
N168 Co171 2.135 . S
C169 N167 1.340 . S
C169 N168 1.321 . S
C169 H193 0.930 . S
H170 C165 0.931 . S
Co171 N168 2.135 . S
Co171 N174 2.121 . S
Co171 O179 2.055 . S
Co171 O182 2.039 . S
Co171 N185 2.140 . S
C172 O173 1.227 . S
C172 O182 1.265 . S
O173 C172 1.227 . S
N174 Co171 2.121 . S
N174 C176 1.375 . S
N174 C177 1.313 . S
C175 C176 1.338 . S
C175 N178 1.377 . S
C175 H195 0.930 . S
C176 N174 1.375 . S
C176 C175 1.338 . S
C176 H180 0.931 . S
C177 N174 1.313 . S
C177 N178 1.344 . S
C177 H181 0.930 . S
N178 C175 1.377 . S
N178 C177 1.344 . S
O179 Co171 2.055 . S
O179 C183 1.253 . S
H180 C176 0.931 . S
H181 C177 0.930 . S
O182 Co171 2.039 . S
O182 C172 1.265 . S
C183 O179 1.253 . S
C183 O184 1.227 . S
O184 C183 1.227 . S
N185 Co171 2.140 . S
N185 C188 1.346 . S
N185 C189 1.345 . S
C186 C187 1.387 . S
C186 C190 1.391 . S
C187 C186 1.387 . S
C187 C188 1.369 . S
C187 H196 0.929 . S
C188 N185 1.346 . S
C188 C187 1.369 . S
C188 H191 0.928 . S
C189 N185 1.345 . S
C189 C190 1.371 . S
C189 H192 0.931 . S
C190 C186 1.391 . S
C190 C189 1.371 . S
C190 H197 0.930 . S
H191 C188 0.928 . S
H192 C189 0.931 . S
H193 C169 0.930 . S
H194 C166 0.930 . S
H195 C175 0.930 . S
H196 C187 0.929 . S
H197 C190 0.930 . S
C198 C199 1.351 . S
C198 N201 1.368 . S
C198 H203 0.931 . S
C199 C198 1.351 . S
C199 N200 1.373 . S
C199 H227 0.930 . S
N200 C199 1.373 . S
N200 C202 1.340 . S
N201 C198 1.368 . S
N201 C202 1.321 . S
N201 Co204 2.135 . S
C202 N200 1.340 . S
C202 N201 1.321 . S
C202 H226 0.930 . S
H203 C198 0.931 . S
Co204 N201 2.135 . S
Co204 N207 2.121 . S
Co204 O212 2.055 . S
Co204 O215 2.039 . S
Co204 N218 2.140 . S
C205 O206 1.227 . S
C205 O215 1.265 . S
O206 C205 1.227 . S
N207 Co204 2.121 . S
N207 C209 1.375 . S
N207 C210 1.313 . S
C208 C209 1.338 . S
C208 N211 1.377 . S
C208 H228 0.930 . S
C209 N207 1.375 . S
C209 C208 1.338 . S
C209 H213 0.931 . S
C210 N207 1.313 . S
C210 N211 1.344 . S
C210 H214 0.930 . S
N211 C208 1.377 . S
N211 C210 1.344 . S
O212 Co204 2.055 . S
O212 C216 1.253 . S
H213 C209 0.931 . S
H214 C210 0.930 . S
O215 Co204 2.039 . S
O215 C205 1.265 . S
C216 O212 1.253 . S
C216 O217 1.227 . S
O217 C216 1.227 . S
N218 Co204 2.140 . S
N218 C221 1.346 . S
N218 C222 1.345 . S
C219 C220 1.387 . S
C219 C223 1.391 . S
C220 C219 1.387 . S
C220 C221 1.369 . S
C220 H229 0.929 . S
C221 N218 1.346 . S
C221 C220 1.369 . S
C221 H224 0.928 . S
C222 N218 1.345 . S
C222 C223 1.371 . S
C222 H225 0.931 . S
C223 C219 1.391 . S
C223 C222 1.371 . S
C223 H230 0.930 . S
H224 C221 0.928 . S
H225 C222 0.931 . S
H226 C202 0.930 . S
H227 C199 0.930 . S
H228 C208 0.930 . S
H229 C220 0.929 . S
H230 C223 0.930 . S
C231 C232 1.351 . S
C231 N234 1.368 . S
C231 H236 0.931 . S
C232 C231 1.351 . S
C232 N233 1.373 . S
C232 H260 0.930 . S
N233 C232 1.373 . S
N233 C235 1.340 . S
N234 C231 1.368 . S
N234 C235 1.321 . S
N234 Co237 2.135 . S
C235 N233 1.340 . S
C235 N234 1.321 . S
C235 H259 0.930 . S
H236 C231 0.931 . S
Co237 N234 2.135 . S
Co237 N240 2.121 . S
Co237 O245 2.055 . S
Co237 O248 2.039 . S
Co237 N251 2.140 . S
C238 O239 1.227 . S
C238 O248 1.265 . S
O239 C238 1.227 . S
N240 Co237 2.121 . S
N240 C242 1.375 . S
N240 C243 1.313 . S
C241 C242 1.338 . S
C241 N244 1.377 . S
C241 H261 0.930 . S
C242 N240 1.375 . S
C242 C241 1.338 . S
C242 H246 0.931 . S
C243 N240 1.313 . S
C243 N244 1.344 . S
C243 H247 0.930 . S
N244 C241 1.377 . S
N244 C243 1.344 . S
O245 Co237 2.055 . S
O245 C249 1.253 . S
H246 C242 0.931 . S
H247 C243 0.930 . S
O248 Co237 2.039 . S
O248 C238 1.265 . S
C249 O245 1.253 . S
C249 O250 1.227 . S
O250 C249 1.227 . S
N251 Co237 2.140 . S
N251 C254 1.346 . S
N251 C255 1.345 . S
C252 C253 1.387 . S
C252 C256 1.391 . S
C253 C252 1.387 . S
C253 C254 1.369 . S
C253 H262 0.929 . S
C254 N251 1.346 . S
C254 C253 1.369 . S
C254 H257 0.928 . S
C255 N251 1.345 . S
C255 C256 1.371 . S
C255 H258 0.931 . S
C256 C252 1.391 . S
C256 C255 1.371 . S
C256 H263 0.930 . S
H257 C254 0.928 . S
H258 C255 0.931 . S
H259 C235 0.930 . S
H260 C232 0.930 . S
H261 C241 0.930 . S
H262 C253 0.929 . S
H263 C256 0.930 . S
C264 C265 1.351 . S
C264 N267 1.368 . S
C264 H269 0.931 . S
C265 C264 1.351 . S
C265 N266 1.373 . S
C265 H293 0.930 . S
N266 C265 1.373 . S
N266 C268 1.340 . S
N267 C264 1.368 . S
N267 C268 1.321 . S
N267 Co270 2.135 . S
C268 N266 1.340 . S
C268 N267 1.321 . S
C268 H292 0.930 . S
H269 C264 0.931 . S
Co270 N267 2.135 . S
Co270 N273 2.121 . S
Co270 O278 2.055 . S
Co270 O281 2.039 . S
Co270 N284 2.140 . S
C271 O272 1.227 . S
C271 O281 1.265 . S
O272 C271 1.227 . S
N273 Co270 2.121 . S
N273 C275 1.375 . S
N273 C276 1.313 . S
C274 C275 1.338 . S
C274 N277 1.377 . S
C274 H294 0.930 . S
C275 N273 1.375 . S
C275 C274 1.338 . S
C275 H279 0.931 . S
C276 N273 1.313 . S
C276 N277 1.344 . S
C276 H280 0.930 . S
N277 C274 1.377 . S
N277 C276 1.344 . S
O278 Co270 2.055 . S
O278 C282 1.253 . S
H279 C275 0.931 . S
H280 C276 0.930 . S
O281 Co270 2.039 . S
O281 C271 1.265 . S
C282 O278 1.253 . S
C282 O283 1.227 . S
O283 C282 1.227 . S
N284 Co270 2.140 . S
N284 C287 1.346 . S
N284 C288 1.345 . S
C285 C286 1.387 . S
C285 C289 1.391 . S
C286 C285 1.387 . S
C286 C287 1.369 . S
C286 H295 0.929 . S
C287 N284 1.346 . S
C287 C286 1.369 . S
C287 H290 0.928 . S
C288 N284 1.345 . S
C288 C289 1.371 . S
C288 H291 0.931 . S
C289 C285 1.391 . S
C289 C288 1.371 . S
C289 H296 0.930 . S
H290 C287 0.928 . S
H291 C288 0.931 . S
H292 C268 0.930 . S
H293 C265 0.930 . S
H294 C274 0.930 . S
H295 C286 0.929 . S
H296 C289 0.930 . S
C297 C298 1.351 . S
C297 N300 1.368 . S
C297 H302 0.931 . S
C298 C297 1.351 . S
C298 N299 1.373 . S
C298 H326 0.930 . S
N299 C298 1.373 . S
N299 C301 1.340 . S
N300 C297 1.368 . S
N300 C301 1.321 . S
N300 Co303 2.135 . S
C301 N299 1.340 . S
C301 N300 1.321 . S
C301 H325 0.930 . S
H302 C297 0.931 . S
Co303 N300 2.135 . S
Co303 N306 2.121 . S
Co303 O311 2.055 . S
Co303 O314 2.039 . S
Co303 N317 2.140 . S
C304 O305 1.227 . S
C304 O314 1.265 . S
O305 C304 1.227 . S
N306 Co303 2.121 . S
N306 C308 1.375 . S
N306 C309 1.313 . S
C307 C308 1.338 . S
C307 N310 1.377 . S
C307 H327 0.930 . S
C308 N306 1.375 . S
C308 C307 1.338 . S
C308 H312 0.931 . S
C309 N306 1.313 . S
C309 N310 1.344 . S
C309 H313 0.930 . S
N310 C307 1.377 . S
N310 C309 1.344 . S
O311 Co303 2.055 . S
O311 C315 1.253 . S
H312 C308 0.931 . S
H313 C309 0.930 . S
O314 Co303 2.039 . S
O314 C304 1.265 . S
C315 O311 1.253 . S
C315 O316 1.227 . S
O316 C315 1.227 . S
N317 Co303 2.140 . S
N317 C320 1.346 . S
N317 C321 1.345 . S
C318 C319 1.387 . S
C318 C322 1.391 . S
C319 C318 1.387 . S
C319 C320 1.369 . S
C319 H328 0.929 . S
C320 N317 1.346 . S
C320 C319 1.369 . S
C320 H323 0.928 . S
C321 N317 1.345 . S
C321 C322 1.371 . S
C321 H324 0.931 . S
C322 C318 1.391 . S
C322 C321 1.371 . S
C322 H329 0.930 . S
H323 C320 0.928 . S
H324 C321 0.931 . S
H325 C301 0.930 . S
H326 C298 0.930 . S
H327 C307 0.930 . S
H328 C319 0.929 . S
H329 C322 0.930 . S
C330 C331 1.351 . S
C330 N333 1.368 . S
C330 H335 0.931 . S
C331 C330 1.351 . S
C331 N332 1.373 . S
C331 H359 0.930 . S
N332 C331 1.373 . S
N332 C334 1.340 . S
N333 C330 1.368 . S
N333 C334 1.321 . S
N333 Co336 2.135 . S
C334 N332 1.340 . S
C334 N333 1.321 . S
C334 H358 0.930 . S
H335 C330 0.931 . S
Co336 N333 2.135 . S
Co336 N339 2.121 . S
Co336 O344 2.055 . S
Co336 O347 2.039 . S
Co336 N350 2.140 . S
C337 O338 1.227 . S
C337 O347 1.265 . S
O338 C337 1.227 . S
N339 Co336 2.121 . S
N339 C341 1.375 . S
N339 C342 1.313 . S
C340 C341 1.338 . S
C340 N343 1.377 . S
C340 H360 0.930 . S
C341 N339 1.375 . S
C341 C340 1.338 . S
C341 H345 0.931 . S
C342 N339 1.313 . S
C342 N343 1.344 . S
C342 H346 0.930 . S
N343 C340 1.377 . S
N343 C342 1.344 . S
O344 Co336 2.055 . S
O344 C348 1.253 . S
H345 C341 0.931 . S
H346 C342 0.930 . S
O347 Co336 2.039 . S
O347 C337 1.265 . S
C348 O344 1.253 . S
C348 O349 1.227 . S
O349 C348 1.227 . S
N350 Co336 2.140 . S
N350 C353 1.346 . S
N350 C354 1.345 . S
C351 C352 1.387 . S
C351 C355 1.391 . S
C352 C351 1.387 . S
C352 C353 1.369 . S
C352 H361 0.929 . S
C353 N350 1.346 . S
C353 C352 1.369 . S
C353 H356 0.928 . S
C354 N350 1.345 . S
C354 C355 1.371 . S
C354 H357 0.931 . S
C355 C351 1.391 . S
C355 C354 1.371 . S
C355 H362 0.930 . S
H356 C353 0.928 . S
H357 C354 0.931 . S
H358 C334 0.930 . S
H359 C331 0.930 . S
H360 C340 0.930 . S
H361 C352 0.929 . S
H362 C355 0.930 . S
C363 C364 1.351 . S
C363 N366 1.368 . S
C363 H368 0.931 . S
C364 C363 1.351 . S
C364 N365 1.373 . S
C364 H392 0.930 . S
N365 C364 1.373 . S
N365 C367 1.340 . S
N366 C363 1.368 . S
N366 C367 1.321 . S
N366 Co369 2.135 . S
C367 N365 1.340 . S
C367 N366 1.321 . S
C367 H391 0.930 . S
H368 C363 0.931 . S
Co369 N366 2.135 . S
Co369 N372 2.121 . S
Co369 O377 2.055 . S
Co369 O380 2.039 . S
Co369 N383 2.140 . S
C370 O371 1.227 . S
C370 O380 1.265 . S
O371 C370 1.227 . S
N372 Co369 2.121 . S
N372 C374 1.375 . S
N372 C375 1.313 . S
C373 C374 1.338 . S
C373 N376 1.377 . S
C373 H393 0.930 . S
C374 N372 1.375 . S
C374 C373 1.338 . S
C374 H378 0.931 . S
C375 N372 1.313 . S
C375 N376 1.344 . S
C375 H379 0.930 . S
N376 C373 1.377 . S
N376 C375 1.344 . S
O377 Co369 2.055 . S
O377 C381 1.253 . S
H378 C374 0.931 . S
H379 C375 0.930 . S
O380 Co369 2.039 . S
O380 C370 1.265 . S
C381 O377 1.253 . S
C381 O382 1.227 . S
O382 C381 1.227 . S
N383 Co369 2.140 . S
N383 C386 1.346 . S
N383 C387 1.345 . S
C384 C385 1.387 . S
C384 C388 1.391 . S
C385 C384 1.387 . S
C385 C386 1.369 . S
C385 H394 0.929 . S
C386 N383 1.346 . S
C386 C385 1.369 . S
C386 H389 0.928 . S
C387 N383 1.345 . S
C387 C388 1.371 . S
C387 H390 0.931 . S
C388 C384 1.391 . S
C388 C387 1.371 . S
C388 H395 0.930 . S
H389 C386 0.928 . S
H390 C387 0.931 . S
H391 C367 0.930 . S
H392 C364 0.930 . S
H393 C373 0.930 . S
H394 C385 0.929 . S
H395 C388 0.930 . S
C396 C397 1.351 . S
C396 N399 1.368 . S
C396 H401 0.931 . S
C397 C396 1.351 . S
C397 N398 1.373 . S
C397 H425 0.930 . S
N398 C397 1.373 . S
N398 C400 1.340 . S
N399 C396 1.368 . S
N399 C400 1.321 . S
N399 Co402 2.135 . S
C400 N398 1.340 . S
C400 N399 1.321 . S
C400 H424 0.930 . S
H401 C396 0.931 . S
Co402 N399 2.135 . S
Co402 N405 2.121 . S
Co402 O410 2.055 . S
Co402 O413 2.039 . S
Co402 N416 2.140 . S
C403 O404 1.227 . S
C403 O413 1.265 . S
O404 C403 1.227 . S
N405 Co402 2.121 . S
N405 C407 1.375 . S
N405 C408 1.313 . S
C406 C407 1.338 . S
C406 N409 1.377 . S
C406 H426 0.930 . S
C407 N405 1.375 . S
C407 C406 1.338 . S
C407 H411 0.931 . S
C408 N405 1.313 . S
C408 N409 1.344 . S
C408 H412 0.930 . S
N409 C406 1.377 . S
N409 C408 1.344 . S
O410 Co402 2.055 . S
O410 C414 1.253 . S
H411 C407 0.931 . S
H412 C408 0.930 . S
O413 Co402 2.039 . S
O413 C403 1.265 . S
C414 O410 1.253 . S
C414 O415 1.227 . S
O415 C414 1.227 . S
N416 Co402 2.140 . S
N416 C419 1.346 . S
N416 C420 1.345 . S
C417 C418 1.387 . S
C417 C421 1.391 . S
C418 C417 1.387 . S
C418 C419 1.369 . S
C418 H427 0.929 . S
C419 N416 1.346 . S
C419 C418 1.369 . S
C419 H422 0.928 . S
C420 N416 1.345 . S
C420 C421 1.371 . S
C420 H423 0.931 . S
C421 C417 1.391 . S
C421 C420 1.371 . S
C421 H428 0.930 . S
H422 C419 0.928 . S
H423 C420 0.931 . S
H424 C400 0.930 . S
H425 C397 0.930 . S
H426 C406 0.930 . S
H427 C418 0.929 . S
H428 C421 0.930 . S
C429 C430 1.351 . S
C429 N432 1.368 . S
C429 H434 0.931 . S
C430 C429 1.351 . S
C430 N431 1.373 . S
C430 H458 0.930 . S
N431 C430 1.373 . S
N431 C433 1.340 . S
N432 C429 1.368 . S
N432 C433 1.321 . S
N432 Co435 2.135 . S
C433 N431 1.340 . S
C433 N432 1.321 . S
C433 H457 0.930 . S
H434 C429 0.931 . S
Co435 N432 2.135 . S
Co435 N438 2.121 . S
Co435 O443 2.055 . S
Co435 O446 2.039 . S
Co435 N449 2.140 . S
C436 O437 1.227 . S
C436 O446 1.265 . S
O437 C436 1.227 . S
N438 Co435 2.121 . S
N438 C440 1.375 . S
N438 C441 1.313 . S
C439 C440 1.338 . S
C439 N442 1.377 . S
C439 H459 0.930 . S
C440 N438 1.375 . S
C440 C439 1.338 . S
C440 H444 0.931 . S
C441 N438 1.313 . S
C441 N442 1.344 . S
C441 H445 0.930 . S
N442 C439 1.377 . S
N442 C441 1.344 . S
O443 Co435 2.055 . S
O443 C447 1.253 . S
H444 C440 0.931 . S
H445 C441 0.930 . S
O446 Co435 2.039 . S
O446 C436 1.265 . S
C447 O443 1.253 . S
C447 O448 1.227 . S
O448 C447 1.227 . S
N449 Co435 2.140 . S
N449 C452 1.346 . S
N449 C453 1.345 . S
C450 C451 1.387 . S
C450 C454 1.391 . S
C451 C450 1.387 . S
C451 C452 1.369 . S
C451 H460 0.929 . S
C452 N449 1.346 . S
C452 C451 1.369 . S
C452 H455 0.928 . S
C453 N449 1.345 . S
C453 C454 1.371 . S
C453 H456 0.931 . S
C454 C450 1.391 . S
C454 C453 1.371 . S
C454 H461 0.930 . S
H455 C452 0.928 . S
H456 C453 0.931 . S
H457 C433 0.930 . S
H458 C430 0.930 . S
H459 C439 0.930 . S
H460 C451 0.929 . S
H461 C454 0.930 . S
C462 C463 1.351 . S
C462 N465 1.368 . S
C462 H467 0.931 . S
C463 C462 1.351 . S
C463 N464 1.373 . S
C463 H491 0.930 . S
N464 C463 1.373 . S
N464 C466 1.340 . S
N465 C462 1.368 . S
N465 C466 1.321 . S
N465 Co468 2.135 . S
C466 N464 1.340 . S
C466 N465 1.321 . S
C466 H490 0.930 . S
H467 C462 0.931 . S
Co468 N465 2.135 . S
Co468 N471 2.121 . S
Co468 O476 2.055 . S
Co468 O479 2.039 . S
Co468 N482 2.140 . S
C469 O470 1.227 . S
C469 O479 1.265 . S
O470 C469 1.227 . S
N471 Co468 2.121 . S
N471 C473 1.375 . S
N471 C474 1.313 . S
C472 C473 1.338 . S
C472 N475 1.377 . S
C472 H492 0.930 . S
C473 N471 1.375 . S
C473 C472 1.338 . S
C473 H477 0.931 . S
C474 N471 1.313 . S
C474 N475 1.344 . S
C474 H478 0.930 . S
N475 C472 1.377 . S
N475 C474 1.344 . S
O476 Co468 2.055 . S
O476 C480 1.253 . S
H477 C473 0.931 . S
H478 C474 0.930 . S
O479 Co468 2.039 . S
O479 C469 1.265 . S
C480 O476 1.253 . S
C480 O481 1.227 . S
O481 C480 1.227 . S
N482 Co468 2.140 . S
N482 C485 1.346 . S
N482 C486 1.345 . S
C483 C484 1.387 . S
C483 C487 1.391 . S
C484 C483 1.387 . S
C484 C485 1.369 . S
C484 H493 0.929 . S
C485 N482 1.346 . S
C485 C484 1.369 . S
C485 H488 0.928 . S
C486 N482 1.345 . S
C486 C487 1.371 . S
C486 H489 0.931 . S
C487 C483 1.391 . S
C487 C486 1.371 . S
C487 H494 0.930 . S
H488 C485 0.928 . S
H489 C486 0.931 . S
H490 C466 0.930 . S
H491 C463 0.930 . S
H492 C472 0.930 . S
H493 C484 0.929 . S
H494 C487 0.930 . S
C495 C496 1.351 . S
C495 N498 1.368 . S
C495 H500 0.931 . S
C496 C495 1.351 . S
C496 N497 1.373 . S
C496 H524 0.930 . S
N497 C496 1.373 . S
N497 C499 1.340 . S
N498 C495 1.368 . S
N498 C499 1.321 . S
N498 Co501 2.135 . S
C499 N497 1.340 . S
C499 N498 1.321 . S
C499 H523 0.930 . S
H500 C495 0.931 . S
Co501 N498 2.135 . S
Co501 N504 2.121 . S
Co501 O509 2.055 . S
Co501 O512 2.039 . S
Co501 N515 2.140 . S
C502 O503 1.227 . S
C502 O512 1.265 . S
O503 C502 1.227 . S
N504 Co501 2.121 . S
N504 C506 1.375 . S
N504 C507 1.313 . S
C505 C506 1.338 . S
C505 N508 1.377 . S
C505 H525 0.930 . S
C506 N504 1.375 . S
C506 C505 1.338 . S
C506 H510 0.931 . S
C507 N504 1.313 . S
C507 N508 1.344 . S
C507 H511 0.930 . S
N508 C505 1.377 . S
N508 C507 1.344 . S
O509 Co501 2.055 . S
O509 C513 1.253 . S
H510 C506 0.931 . S
H511 C507 0.930 . S
O512 Co501 2.039 . S
O512 C502 1.265 . S
C513 O509 1.253 . S
C513 O514 1.227 . S
O514 C513 1.227 . S
N515 Co501 2.140 . S
N515 C518 1.346 . S
N515 C519 1.345 . S
C516 C517 1.387 . S
C516 C520 1.391 . S
C517 C516 1.387 . S
C517 C518 1.369 . S
C517 H526 0.929 . S
C518 N515 1.346 . S
C518 C517 1.369 . S
C518 H521 0.928 . S
C519 N515 1.345 . S
C519 C520 1.371 . S
C519 H522 0.931 . S
C520 C516 1.391 . S
C520 C519 1.371 . S
C520 H527 0.930 . S
H521 C518 0.928 . S
H522 C519 0.931 . S
H523 C499 0.930 . S
H524 C496 0.930 . S
H525 C505 0.930 . S
H526 C517 0.929 . S
H527 C520 0.930 . S
H528 C536 0.929 . S
H529 C538 0.930 . S
H530 C540 0.930 . S
H531 C543 0.929 . S
H532 C546 0.930 . S
H533 C548 0.960 . S
H534 C548 0.960 1_655 S
H535 C548 0.959 . S
C536 H528 0.929 . S
C536 C537 1.377 . S
C536 C538 1.384 . S
C537 C536 1.377 . S
C537 C543 1.390 . S
C538 H529 0.930 . S
C538 C536 1.384 . S
C538 C539 1.372 . S
C539 C538 1.372 . S
C539 C540 1.400 . S
C539 C544 1.490 . S
C540 H530 0.930 . S
C540 C539 1.400 . S
C540 C543 1.386 . S
H541 C557 0.930 . S
H542 C558 0.931 . S
C543 H531 0.929 . S
C543 C537 1.390 . S
C543 C540 1.386 . S
C544 C539 1.490 . S
C544 C546 1.395 . S
C544 C547 1.403 1_655 S
H545 C551 0.930 . S
C546 H532 0.930 . S
C546 C544 1.395 . S
C546 C549 1.403 . S
C547 C544 1.403 1_455 S
C547 C548 1.524 . S
C547 C551 1.400 . S
C548 H533 0.960 . S
C548 H534 0.960 1_455 S
C548 H535 0.959 . S
C548 C547 1.524 . S
C549 C546 1.403 . S
C549 C550 1.392 1_655 S
C549 C553 1.495 . S
C550 C549 1.392 1_455 S
C550 C551 1.385 . S
C550 C552 1.478 . S
C551 H545 0.930 . S
C551 C547 1.400 . S
C551 C550 1.385 . S
C552 C550 1.478 . S
C552 C554 1.381 . S
C552 C558 1.383 . S
C553 C549 1.495 . S
C553 H559 0.959 . S
C553 H560 0.938 1_655 S
C553 H561 0.960 . S
C554 C552 1.381 . S
C554 C555 1.394 . S
C554 H562 0.930 . S
C555 C554 1.394 . S
C555 C556 1.383 . S
C555 H563 0.929 . S
C556 C555 1.383 . S
C556 C557 1.377 . S
C557 H541 0.930 . S
C557 C556 1.377 . S
C557 C558 1.379 . S
C558 H542 0.931 . S
C558 C552 1.383 . S
C558 C557 1.379 . S
H559 C553 0.959 . S
H560 C553 0.938 1_455 S
H561 C553 0.960 . S
H562 C554 0.930 . S
H563 C555 0.929 . S
H564 C572 0.929 . S
H565 C574 0.930 . S
H566 C576 0.930 . S
H567 C579 0.929 . S
H568 C582 0.930 . S
H569 C584 0.960 . S
H570 C584 0.960 . S
H571 C584 0.960 . S
C572 H564 0.929 . S
C572 C573 1.377 . S
C572 C574 1.384 . S
C573 C572 1.377 . S
C573 C579 1.390 . S
C574 H565 0.930 . S
C574 C572 1.384 . S
C574 C575 1.372 . S
C575 C574 1.372 . S
C575 C576 1.400 . S
C575 C580 1.490 . S
C576 H566 0.930 . S
C576 C575 1.400 . S
C576 C579 1.386 . S
H577 C593 0.930 . S
H578 C594 0.931 . S
C579 H567 0.929 . S
C579 C573 1.390 . S
C579 C576 1.386 . S
C580 C575 1.490 . S
C580 C582 1.395 1_545 S
C580 C583 1.403 . S
H581 C587 0.930 . S
C582 H568 0.930 . S
C582 C580 1.395 1_565 S
C582 C585 1.403 . S
C583 C580 1.403 . S
C583 C584 1.524 . S
C583 C587 1.400 1_545 S
C584 H569 0.960 . S
C584 H570 0.960 . S
C584 H571 0.960 . S
C584 C583 1.524 . S
C585 C582 1.403 . S
C585 C586 1.392 . S
C585 C589 1.495 . S
C586 C585 1.392 . S
C586 C587 1.385 . S
C586 C588 1.478 . S
C587 H581 0.930 . S
C587 C583 1.400 1_565 S
C587 C586 1.385 . S
C588 C586 1.478 . S
C588 C590 1.381 . S
C588 C594 1.383 . S
C589 C585 1.495 . S
C589 H595 0.959 . S
C589 H596 0.961 . S
C589 H597 0.960 . S
C590 C588 1.381 . S
C590 C591 1.394 . S
C590 H598 0.930 . S
C591 C590 1.394 . S
C591 C592 1.383 . S
C591 H599 0.929 . S
C592 C591 1.383 . S
C592 C593 1.377 . S
C593 H577 0.930 . S
C593 C592 1.377 . S
C593 C594 1.379 . S
C594 H578 0.931 . S
C594 C588 1.383 . S
C594 C593 1.379 . S
H595 C589 0.959 . S
H596 C589 0.961 . S
H597 C589 0.960 . S
H598 C590 0.930 . S
H599 C591 0.929 . S
H600 C608 0.929 . S
H601 C610 0.930 . S
H602 C612 0.930 . S
H603 C615 0.929 . S
H604 C618 0.930 . S
H605 C620 0.960 . S
H606 C620 0.960 . S
H607 C620 0.960 . S
C608 H600 0.929 . S
C608 C609 1.377 . S
C608 C610 1.384 . S
C609 C608 1.377 . S
C609 C615 1.390 . S
C610 H601 0.930 . S
C610 C608 1.384 . S
C610 C611 1.372 . S
C611 C610 1.372 . S
C611 C612 1.400 . S
C611 C616 1.490 . S
C612 H602 0.930 . S
C612 C611 1.400 . S
C612 C615 1.386 . S
H613 C629 0.930 . S
H614 C630 0.931 . S
C615 H603 0.929 . S
C615 C609 1.390 . S
C615 C612 1.386 . S
C616 C611 1.490 . S
C616 C618 1.395 1_655 S
C616 C619 1.403 . S
H617 C623 0.930 . S
C618 H604 0.930 . S
C618 C616 1.395 1_455 S
C618 C621 1.403 . S
C619 C616 1.403 . S
C619 C620 1.524 . S
C619 C623 1.400 1_655 S
C620 H605 0.960 . S
C620 H606 0.960 . S
C620 H607 0.960 . S
C620 C619 1.524 . S
C621 C618 1.403 . S
C621 C622 1.392 . S
C621 C625 1.495 . S
C622 C621 1.392 . S
C622 C623 1.385 . S
C622 C624 1.478 . S
C623 H617 0.930 . S
C623 C619 1.400 1_455 S
C623 C622 1.385 . S
C624 C622 1.478 . S
C624 C626 1.381 . S
C624 C630 1.383 . S
C625 C621 1.495 . S
C625 H631 0.959 . S
C625 H632 0.961 . S
C625 H633 0.960 . S
C626 C624 1.381 . S
C626 C627 1.394 . S
C626 H634 0.930 . S
C627 C626 1.394 . S
C627 C628 1.383 . S
C627 H635 0.929 . S
C628 C627 1.383 . S
C628 C629 1.377 . S
C629 H613 0.930 . S
C629 C628 1.377 . S
C629 C630 1.379 . S
C630 H614 0.931 . S
C630 C624 1.383 . S
C630 C629 1.379 . S
H631 C625 0.959 . S
H632 C625 0.961 . S
H633 C625 0.960 . S
H634 C626 0.930 . S
H635 C627 0.929 . S
H636 C644 0.929 . S
H637 C646 0.930 . S
H638 C648 0.930 . S
H639 C651 0.929 . S
H640 C654 0.933 . S
H641 C656 0.960 . S
H642 C656 0.960 . S
H643 C656 0.960 . S
C644 H636 0.929 . S
C644 C645 1.377 . S
C644 C646 1.384 . S
C645 C644 1.377 . S
C645 C651 1.390 . S
C646 H637 0.930 . S
C646 C644 1.384 . S
C646 C647 1.372 . S
C647 C646 1.372 . S
C647 C648 1.400 . S
C647 C652 1.490 . S
C648 H638 0.930 . S
C648 C647 1.400 . S
C648 C651 1.386 . S
H649 C665 0.930 . S
H650 C666 0.931 . S
C651 H639 0.929 . S
C651 C645 1.390 . S
C651 C648 1.386 . S
C652 C647 1.490 . S
C652 C654 1.395 1_565 S
C652 C655 1.403 . S
H653 C659 0.930 . S
C654 H640 0.933 . S
C654 C652 1.395 1_545 S
C654 C657 1.403 . S
C655 C652 1.403 . S
C655 C656 1.524 . S
C655 C659 1.400 1_565 S
C656 H641 0.960 . S
C656 H642 0.960 . S
C656 H643 0.960 . S
C656 C655 1.524 . S
C657 C654 1.403 . S
C657 C658 1.392 . S
C657 C661 1.495 . S
C658 C657 1.392 . S
C658 C659 1.385 . S
C658 C660 1.478 . S
C659 H653 0.930 . S
C659 C655 1.400 1_545 S
C659 C658 1.385 . S
C660 C658 1.478 . S
C660 C662 1.381 . S
C660 C666 1.383 . S
C661 C657 1.495 . S
C661 H667 0.959 . S
C661 H668 0.961 . S
C661 H669 0.960 . S
C662 C660 1.381 . S
C662 C663 1.394 . S
C662 H670 0.930 . S
C663 C662 1.394 . S
C663 C664 1.383 . S
C663 H671 0.929 . S
C664 C663 1.383 . S
C664 C665 1.377 . S
C665 H649 0.930 . S
C665 C664 1.377 . S
C665 C666 1.379 . S
C666 H650 0.931 . S
C666 C660 1.383 . S
C666 C665 1.379 . S
H667 C661 0.959 . S
H668 C661 0.961 . S
H669 C661 0.960 . S
H670 C662 0.930 . S
H671 C663 0.929 . S
H672 C680 0.929 . S
H673 C682 0.930 . S
H674 C684 0.930 . S
H675 C687 0.929 . S
H676 C690 0.930 . S
H677 C692 0.960 . S
H678 C692 0.960 . S
H679 C692 0.960 . S
C680 H672 0.929 . S
C680 C681 1.377 . S
C680 C682 1.384 . S
C681 C680 1.377 . S
C681 C687 1.390 . S
C682 H673 0.930 . S
C682 C680 1.384 . S
C682 C683 1.372 . S
C683 C682 1.372 . S
C683 C684 1.400 . S
C683 C688 1.490 . S
C684 H674 0.930 . S
C684 C683 1.400 . S
C684 C687 1.386 . S
H685 C701 0.930 . S
H686 C702 0.931 . S
C687 H675 0.929 . S
C687 C681 1.390 . S
C687 C684 1.386 . S
C688 C683 1.490 . S
C688 C690 1.395 . S
C688 C691 1.403 1_655 S
H689 C695 0.930 . S
C690 H676 0.930 . S
C690 C688 1.395 . S
C690 C693 1.403 . S
C691 C688 1.403 1_455 S
C691 C692 1.524 . S
C691 C695 1.400 . S
C692 H677 0.960 . S
C692 H678 0.960 . S
C692 H679 0.960 . S
C692 C691 1.524 . S
C693 C690 1.403 . S
C693 C694 1.392 1_655 S
C693 C697 1.495 . S
C694 C693 1.392 1_455 S
C694 C695 1.385 . S
C694 C696 1.478 . S
C695 H689 0.930 . S
C695 C691 1.400 . S
C695 C694 1.385 . S
C696 C694 1.478 . S
C696 C698 1.381 . S
C696 C702 1.383 . S
C697 C693 1.495 . S
C697 H703 0.959 . S
C697 H704 0.961 . S
C697 H705 0.960 . S
C698 C696 1.381 . S
C698 C699 1.394 . S
C698 H706 0.930 . S
C699 C698 1.394 . S
C699 C700 1.383 . S
C699 H707 0.929 . S
C700 C699 1.383 . S
C700 C701 1.377 . S
C701 H685 0.930 . S
C701 C700 1.377 . S
C701 C702 1.379 . S
C702 H686 0.931 . S
C702 C696 1.383 . S
C702 C701 1.379 . S
H703 C697 0.959 . S
H704 C697 0.961 . S
H705 C697 0.960 . S
H706 C698 0.930 . S
H707 C699 0.929 . S
H708 C716 0.929 . S
H709 C718 0.930 . S
H710 C720 0.930 . S
H711 C723 0.929 . S
H712 C726 0.930 . S
H713 C728 0.960 . S
H714 C728 0.960 . S
H715 C728 0.960 . S
C716 H708 0.929 . S
C716 C717 1.377 . S
C716 C718 1.384 . S
C717 C716 1.377 . S
C717 C723 1.390 . S
C718 H709 0.930 . S
C718 C716 1.384 . S
C718 C719 1.372 . S
C719 C718 1.372 . S
C719 C720 1.400 . S
C719 C724 1.490 . S
C720 H710 0.930 . S
C720 C719 1.400 . S
C720 C723 1.386 . S
H721 C737 0.930 . S
H722 C738 0.931 . S
C723 H711 0.929 . S
C723 C717 1.390 . S
C723 C720 1.386 . S
C724 C719 1.490 . S
C724 C726 1.395 1_565 S
C724 C727 1.403 . S
H725 C731 0.930 . S
C726 H712 0.930 . S
C726 C724 1.395 1_545 S
C726 C729 1.403 . S
C727 C724 1.403 . S
C727 C728 1.524 . S
C727 C731 1.400 . S
C728 H713 0.960 . S
C728 H714 0.960 . S
C728 H715 0.960 . S
C728 C727 1.524 . S
C729 C726 1.403 . S
C729 C730 1.392 . S
C729 C733 1.495 . S
C730 C729 1.392 . S
C730 C731 1.385 1_545 S
C730 C732 1.478 . S
C731 H725 0.930 . S
C731 C727 1.400 . S
C731 C730 1.385 1_565 S
C732 C730 1.478 . S
C732 C734 1.381 . S
C732 C738 1.383 . S
C733 C729 1.495 . S
C733 H739 0.959 . S
C733 H740 0.961 . S
C733 H741 0.960 . S
C734 C732 1.381 . S
C734 C735 1.394 . S
C734 H742 0.930 . S
C735 C734 1.394 . S
C735 C736 1.383 . S
C735 H743 0.929 . S
C736 C735 1.383 . S
C736 C737 1.377 . S
C737 H721 0.930 . S
C737 C736 1.377 . S
C737 C738 1.379 . S
C738 H722 0.931 . S
C738 C732 1.383 . S
C738 C737 1.379 . S
H739 C733 0.959 . S
H740 C733 0.961 . S
H741 C733 0.960 . S
H742 C734 0.930 . S
H743 C735 0.929 . S
H744 C752 0.929 . S
H745 C754 0.930 . S
H746 C756 0.930 . S
H747 C759 0.929 . S
H748 C762 0.930 . S
H749 C764 0.960 . S
H750 C764 0.960 . S
H751 C764 0.960 . S
C752 H744 0.929 . S
C752 C753 1.377 . S
C752 C754 1.384 . S
C753 C752 1.377 . S
C753 C759 1.390 . S
C754 H745 0.930 . S
C754 C752 1.384 . S
C754 C755 1.372 . S
C755 C754 1.372 . S
C755 C756 1.400 . S
C755 C760 1.490 . S
C756 H746 0.930 . S
C756 C755 1.400 . S
C756 C759 1.386 . S
H757 C773 0.930 . S
H758 C774 0.931 . S
C759 H747 0.929 . S
C759 C753 1.390 . S
C759 C756 1.386 . S
C760 C755 1.490 . S
C760 C762 1.395 1_655 S
C760 C763 1.403 . S
H761 C767 0.930 . S
C762 H748 0.930 . S
C762 C760 1.395 1_455 S
C762 C765 1.403 . S
C763 C760 1.403 . S
C763 C764 1.524 . S
C763 C767 1.400 . S
C764 H749 0.960 . S
C764 H750 0.960 . S
C764 H751 0.960 . S
C764 C763 1.524 . S
C765 C762 1.403 . S
C765 C766 1.392 . S
C765 C769 1.495 . S
C766 C765 1.392 . S
C766 C767 1.385 1_455 S
C766 C768 1.478 . S
C767 H761 0.930 . S
C767 C763 1.400 . S
C767 C766 1.385 1_655 S
C768 C766 1.478 . S
C768 C770 1.381 . S
C768 C774 1.383 . S
C769 C765 1.495 . S
C769 H775 0.959 . S
C769 H776 0.961 . S
C769 H777 0.960 . S
C770 C768 1.381 . S
C770 C771 1.394 . S
C770 H778 0.930 . S
C771 C770 1.394 . S
C771 C772 1.383 . S
C771 H779 0.929 . S
C772 C771 1.383 . S
C772 C773 1.377 . S
C773 H757 0.930 . S
C773 C772 1.377 . S
C773 C774 1.379 . S
C774 H758 0.931 . S
C774 C768 1.383 . S
C774 C773 1.379 . S
H775 C769 0.959 . S
H776 C769 0.961 . S
H777 C769 0.960 . S
H778 C770 0.930 . S
H779 C771 0.929 . S
H780 C788 0.929 . S
H781 C790 0.930 . S
H782 C792 0.930 . S
H783 C795 0.929 . S
H784 C798 0.930 . S
H785 C800 0.960 . S
H786 C800 0.960 . S
H787 C800 0.960 . S
C788 H780 0.929 . S
C788 C789 1.377 . S
C788 C790 1.384 . S
C789 C788 1.377 . S
C789 C795 1.390 . S
C790 H781 0.930 . S
C790 C788 1.384 . S
C790 C791 1.372 . S
C791 C790 1.372 . S
C791 C792 1.400 . S
C791 C796 1.490 . S
C792 H782 0.930 . S
C792 C791 1.400 . S
C792 C795 1.386 . S
H793 C809 0.930 . S
H794 C810 0.931 . S
C795 H783 0.929 . S
C795 C789 1.390 . S
C795 C792 1.386 . S
C796 C791 1.490 . S
C796 C798 1.395 1_545 S
C796 C799 1.403 . S
H797 C803 0.930 . S
C798 H784 0.930 . S
C798 C796 1.395 1_565 S
C798 C801 1.403 . S
C799 C796 1.403 . S
C799 C800 1.524 . S
C799 C803 1.400 . S
C800 H785 0.960 . S
C800 H786 0.960 . S
C800 H787 0.960 . S
C800 C799 1.524 . S
C801 C798 1.403 . S
C801 C802 1.392 . S
C801 C805 1.495 . S
C802 C801 1.392 . S
C802 C803 1.385 1_565 S
C802 C804 1.478 . S
C803 H797 0.930 . S
C803 C799 1.400 . S
C803 C802 1.385 1_545 S
C804 C802 1.478 . S
C804 C806 1.381 . S
C804 C810 1.383 . S
C805 C801 1.495 . S
C805 H811 0.959 . S
C805 H812 0.961 . S
C805 H813 0.960 . S
C806 C804 1.381 . S
C806 C807 1.394 . S
C806 H814 0.930 . S
C807 C806 1.394 . S
C807 C808 1.383 . S
C807 H815 0.929 . S
C808 C807 1.383 . S
C808 C809 1.377 . S
C809 H793 0.930 . S
C809 C808 1.377 . S
C809 C810 1.379 . S
C810 H794 0.931 . S
C810 C804 1.383 . S
C810 C809 1.379 . S
H811 C805 0.959 . S
H812 C805 0.961 . S
H813 C805 0.960 . S
H814 C806 0.930 . S
H815 C807 0.929 . S
H816 C824 0.929 . S
H817 C826 0.930 . S
H818 C828 0.930 . S
H819 C831 0.929 . S
H820 C834 0.930 . S
H821 C836 0.960 . S
H822 C836 0.960 . S
H823 C836 0.960 . S
C824 H816 0.929 . S
C824 C825 1.377 . S
C824 C826 1.384 . S
C825 C824 1.377 . S
C825 C831 1.390 . S
C826 H817 0.930 . S
C826 C824 1.384 . S
C826 C827 1.372 . S
C827 C826 1.372 . S
C827 C828 1.400 . S
C827 C832 1.490 . S
C828 H818 0.930 . S
C828 C827 1.400 . S
C828 C831 1.386 . S
H829 C845 0.930 . S
H830 C846 0.931 . S
C831 H819 0.929 . S
C831 C825 1.390 . S
C831 C828 1.386 . S
C832 C827 1.490 . S
C832 C834 1.395 . S
C832 C835 1.403 . S
H833 C839 0.930 . S
C834 H820 0.930 . S
C834 C832 1.395 . S
C834 C837 1.403 . S
C835 C832 1.403 . S
C835 C836 1.524 . S
C835 C839 1.400 . S
C836 H821 0.960 . S
C836 H822 0.960 . S
C836 H823 0.960 . S
C836 C835 1.524 . S
C837 C834 1.403 . S
C837 C838 1.392 . S
C837 C841 1.495 . S
C838 C837 1.392 . S
C838 C839 1.385 . S
C838 C840 1.478 . S
C839 H833 0.930 . S
C839 C835 1.400 . S
C839 C838 1.385 . S
C840 C838 1.478 . S
C840 C842 1.381 . S
C840 C846 1.383 . S
C841 C837 1.495 . S
C841 H847 0.959 . S
C841 H848 0.961 . S
C841 H849 0.960 . S
C842 C840 1.381 . S
C842 C843 1.394 . S
C842 H850 0.930 . S
C843 C842 1.394 . S
C843 C844 1.383 . S
C843 H851 0.929 . S
C844 C843 1.383 . S
C844 C845 1.377 . S
C845 H829 0.930 . S
C845 C844 1.377 . S
C845 C846 1.379 . S
C846 H830 0.931 . S
C846 C840 1.383 . S
C846 C845 1.379 . S
H847 C841 0.959 . S
H848 C841 0.961 . S
H849 C841 0.960 . S
H850 C842 0.930 . S
H851 C843 0.929 . S
H852 C860 0.929 . S
H853 C862 0.930 . S
H854 C864 0.930 . S
H855 C867 0.929 . S
H856 C870 0.930 . S
H857 C872 0.960 . S
H858 C872 0.960 . S
H859 C872 0.960 . S
C860 H852 0.929 . S
C860 C861 1.377 . S
C860 C862 1.384 . S
C861 C860 1.377 . S
C861 C867 1.390 . S
C862 H853 0.930 . S
C862 C860 1.384 . S
C862 C863 1.372 . S
C863 C862 1.372 . S
C863 C864 1.400 . S
C863 C868 1.490 . S
C864 H854 0.930 . S
C864 C863 1.400 . S
C864 C867 1.386 . S
H865 C881 0.930 . S
H866 C882 0.931 . S
C867 H855 0.929 . S
C867 C861 1.390 . S
C867 C864 1.386 . S
C868 C863 1.490 . S
C868 C870 1.395 . S
C868 C871 1.403 . S
H869 C875 0.930 . S
C870 H856 0.930 . S
C870 C868 1.395 . S
C870 C873 1.403 . S
C871 C868 1.403 . S
C871 C872 1.524 . S
C871 C875 1.400 . S
C872 H857 0.960 . S
C872 H858 0.960 . S
C872 H859 0.960 . S
C872 C871 1.524 . S
C873 C870 1.403 . S
C873 C874 1.392 . S
C873 C877 1.495 . S
C874 C873 1.392 . S
C874 C875 1.385 . S
C874 C876 1.478 . S
C875 H869 0.930 . S
C875 C871 1.400 . S
C875 C874 1.385 . S
C876 C874 1.478 . S
C876 C878 1.381 . S
C876 C882 1.383 . S
C877 C873 1.495 . S
C877 H883 0.959 . S
C877 H884 0.961 . S
C877 H885 0.960 . S
C878 C876 1.381 . S
C878 C879 1.394 . S
C878 H886 0.930 . S
C879 C878 1.394 . S
C879 C880 1.383 . S
C879 H887 0.929 . S
C880 C879 1.383 . S
C880 C881 1.377 . S
C881 H865 0.930 . S
C881 C880 1.377 . S
C881 C882 1.379 . S
C882 H866 0.931 . S
C882 C876 1.383 . S
C882 C881 1.379 . S
H883 C877 0.959 . S
H884 C877 0.961 . S
H885 C877 0.960 . S
H886 C878 0.930 . S
H887 C879 0.929 . S
H888 C896 0.929 . S
H889 C898 0.930 . S
H890 C900 0.930 . S
H891 C903 0.929 . S
H892 C906 0.930 . S
H893 C908 0.960 . S
H894 C908 0.960 . S
H895 C908 0.960 . S
C896 H888 0.929 . S
C896 C897 1.377 . S
C896 C898 1.384 . S
C897 C896 1.377 . S
C897 C903 1.390 . S
C898 H889 0.930 . S
C898 C896 1.384 . S
C898 C899 1.372 . S
C899 C898 1.372 . S
C899 C900 1.400 . S
C899 C904 1.490 . S
C900 H890 0.930 . S
C900 C899 1.400 . S
C900 C903 1.386 . S
H901 C917 0.930 . S
H902 C918 0.931 . S
C903 H891 0.929 . S
C903 C897 1.390 . S
C903 C900 1.386 . S
C904 C899 1.490 . S
C904 C906 1.395 . S
C904 C907 1.403 . S
H905 C911 0.930 . S
C906 H892 0.930 . S
C906 C904 1.395 . S
C906 C909 1.403 . S
C907 C904 1.403 . S
C907 C908 1.524 . S
C907 C911 1.400 . S
C908 H893 0.960 . S
C908 H894 0.960 . S
C908 H895 0.960 . S
C908 C907 1.524 . S
C909 C906 1.403 . S
C909 C910 1.392 . S
C909 C913 1.495 . S
C910 C909 1.392 . S
C910 C911 1.385 . S
C910 C912 1.478 . S
C911 H905 0.930 . S
C911 C907 1.400 . S
C911 C910 1.385 . S
C912 C910 1.478 . S
C912 C914 1.381 . S
C912 C918 1.383 . S
C913 C909 1.495 . S
C913 H919 0.959 . S
C913 H920 0.961 . S
C913 H921 0.960 . S
C914 C912 1.381 . S
C914 C915 1.394 . S
C914 H922 0.930 . S
C915 C914 1.394 . S
C915 C916 1.383 . S
C915 H923 0.929 . S
C916 C915 1.383 . S
C916 C917 1.377 . S
C917 H901 0.930 . S
C917 C916 1.377 . S
C917 C918 1.379 . S
C918 H902 0.931 . S
C918 C912 1.383 . S
C918 C917 1.379 . S
H919 C913 0.959 . S
H920 C913 0.961 . S
H921 C913 0.960 . S
H922 C914 0.930 . S
H923 C915 0.929 . S
H924 C932 0.929 . S
H925 C934 0.930 . S
H926 C936 0.930 . S
H927 C939 0.929 . S
H928 C942 0.930 . S
H929 C944 0.960 . S
H930 C944 0.960 . S
H931 C944 0.960 . S
C932 H924 0.929 . S
C932 C933 1.377 . S
C932 C934 1.384 . S
C933 C932 1.377 . S
C933 C939 1.390 . S
C934 H925 0.930 . S
C934 C932 1.384 . S
C934 C935 1.372 . S
C935 C934 1.372 . S
C935 C936 1.400 . S
C935 C940 1.490 . S
C936 H926 0.930 . S
C936 C935 1.400 . S
C936 C939 1.386 . S
H937 C953 0.930 . S
H938 C954 0.931 . S
C939 H927 0.929 . S
C939 C933 1.390 . S
C939 C936 1.386 . S
C940 C935 1.490 . S
C940 C942 1.395 . S
C940 C943 1.403 . S
H941 C947 0.930 . S
C942 H928 0.930 . S
C942 C940 1.395 . S
C942 C945 1.403 . S
C943 C940 1.403 . S
C943 C944 1.524 . S
C943 C947 1.400 . S
C944 H929 0.960 . S
C944 H930 0.960 . S
C944 H931 0.960 . S
C944 C943 1.524 . S
C945 C942 1.403 . S
C945 C946 1.392 . S
C945 C949 1.495 . S
C946 C945 1.392 . S
C946 C947 1.385 . S
C946 C948 1.478 . S
C947 H941 0.930 . S
C947 C943 1.400 . S
C947 C946 1.385 . S
C948 C946 1.478 . S
C948 C950 1.381 . S
C948 C954 1.383 . S
C949 C945 1.495 . S
C949 H955 0.959 . S
C949 H956 0.961 . S
C949 H957 0.960 . S
C950 C948 1.381 . S
C950 C951 1.394 . S
C950 H958 0.930 . S
C951 C950 1.394 . S
C951 C952 1.383 . S
C951 H959 0.929 . S
C952 C951 1.383 . S
C952 C953 1.377 . S
C953 H937 0.930 . S
C953 C952 1.377 . S
C953 C954 1.379 . S
C954 H938 0.931 . S
C954 C948 1.383 . S
C954 C953 1.379 . S
H955 C949 0.959 . S
H956 C949 0.961 . S
H957 C949 0.960 . S
H958 C950 0.930 . S
H959 C951 0.929 . S
H960 C968 0.929 . S
H961 C970 0.930 . S
H962 C972 0.930 . S
H963 C975 0.929 . S
H964 C978 0.930 . S
H965 C980 0.960 . S
H966 C980 0.960 . S
H967 C980 0.960 . S
C968 H960 0.929 . S
C968 C969 1.377 . S
C968 C970 1.384 . S
C969 C968 1.377 . S
C969 C975 1.390 . S
C970 H961 0.930 . S
C970 C968 1.384 . S
C970 C971 1.372 . S
C971 C970 1.372 . S
C971 C972 1.400 . S
C971 C976 1.490 . S
C972 H962 0.930 . S
C972 C971 1.400 . S
C972 C975 1.386 . S
H973 C989 0.930 . S
H974 C990 0.931 . S
C975 H963 0.929 . S
C975 C969 1.390 . S
C975 C972 1.386 . S
C976 C971 1.490 . S
C976 C978 1.395 . S
C976 C979 1.403 . S
H977 C983 0.930 . S
C978 H964 0.930 . S
C978 C976 1.395 . S
C978 C981 1.403 . S
C979 C976 1.403 . S
C979 C980 1.524 . S
C979 C983 1.400 . S
C980 H965 0.960 . S
C980 H966 0.960 . S
C980 H967 0.960 . S
C980 C979 1.524 . S
C981 C978 1.403 . S
C981 C982 1.392 . S
C981 C985 1.495 . S
C982 C981 1.392 . S
C982 C983 1.385 . S
C982 C984 1.478 . S
C983 H977 0.930 . S
C983 C979 1.400 . S
C983 C982 1.385 . S
C984 C982 1.478 . S
C984 C986 1.381 . S
C984 C990 1.383 . S
C985 C981 1.495 . S
C985 H991 0.959 . S
C985 H992 0.961 . S
C985 H993 0.960 . S
C986 C984 1.381 . S
C986 C987 1.394 . S
C986 H994 0.930 . S
C987 C986 1.394 . S
C987 C988 1.383 . S
C987 H995 0.929 . S
C988 C987 1.383 . S
C988 C989 1.377 . S
C989 H973 0.930 . S
C989 C988 1.377 . S
C989 C990 1.379 . S
C990 H974 0.931 . S
C990 C984 1.383 . S
C990 C989 1.379 . S
H991 C985 0.959 . S
H992 C985 0.961 . S
H993 C985 0.960 . S
H994 C986 0.930 . S
H995 C987 0.929 . S
H996 C1004 0.929 . S
H997 C1006 0.930 . S
H998 C1008 0.930 . S
H999 C1011 0.929 . S
H1000 C1014 0.930 . S
H1001 C1016 0.960 . S
H1002 C1016 0.960 . S
H1003 C1016 0.960 . S
C1004 H996 0.929 . S
C1004 C1005 1.377 . S
C1004 C1006 1.384 . S
C1005 C1004 1.377 . S
C1005 C1011 1.390 . S
C1006 H997 0.930 . S
C1006 C1004 1.384 . S
C1006 C1007 1.372 . S
C1007 C1006 1.372 . S
C1007 C1008 1.400 . S
C1007 C1012 1.490 . S
C1008 H998 0.930 . S
C1008 C1007 1.400 . S
C1008 C1011 1.386 . S
H1009 C1025 0.930 . S
H1010 C1026 0.931 . S
C1011 H999 0.929 . S
C1011 C1005 1.390 . S
C1011 C1008 1.386 . S
C1012 C1007 1.490 . S
C1012 C1014 1.395 . S
C1012 C1015 1.403 . S
H1013 C1019 0.930 . S
C1014 H1000 0.930 . S
C1014 C1012 1.395 . S
C1014 C1017 1.403 . S
C1015 C1012 1.403 . S
C1015 C1016 1.524 . S
C1015 C1019 1.400 . S
C1016 H1001 0.960 . S
C1016 H1002 0.960 . S
C1016 H1003 0.960 . S
C1016 C1015 1.524 . S
C1017 C1014 1.403 . S
C1017 C1018 1.392 . S
C1017 C1021 1.495 . S
C1018 C1017 1.392 . S
C1018 C1019 1.385 . S
C1018 C1020 1.478 . S
C1019 H1013 0.930 . S
C1019 C1015 1.400 . S
C1019 C1018 1.385 . S
C1020 C1018 1.478 . S
C1020 C1022 1.381 . S
C1020 C1026 1.383 . S
C1021 C1017 1.495 . S
C1021 H1027 0.959 . S
C1021 H1028 0.961 . S
C1021 H1029 0.960 . S
C1022 C1020 1.381 . S
C1022 C1023 1.394 . S
C1022 H1030 0.930 . S
C1023 C1022 1.394 . S
C1023 C1024 1.383 . S
C1023 H1031 0.929 . S
C1024 C1023 1.383 . S
C1024 C1025 1.377 . S
C1025 H1009 0.930 . S
C1025 C1024 1.377 . S
C1025 C1026 1.379 . S
C1026 H1010 0.931 . S
C1026 C1020 1.383 . S
C1026 C1025 1.379 . S
H1027 C1021 0.959 . S
H1028 C1021 0.961 . S
H1029 C1021 0.960 . S
H1030 C1022 0.930 . S
H1031 C1023 0.929 . S
H1032 C1040 0.929 . S
H1033 C1042 0.930 . S
H1034 C1044 0.930 . S
H1035 C1047 0.929 . S
H1036 C1050 0.930 . S
H1037 C1052 0.960 . S
H1038 C1052 0.960 . S
H1039 C1052 0.960 . S
C1040 H1032 0.929 . S
C1040 C1041 1.377 . S
C1040 C1042 1.384 . S
C1041 C1040 1.377 . S
C1041 C1047 1.390 . S
C1042 H1033 0.930 . S
C1042 C1040 1.384 . S
C1042 C1043 1.372 . S
C1043 C1042 1.372 . S
C1043 C1044 1.400 . S
C1043 C1048 1.490 . S
C1044 H1034 0.930 . S
C1044 C1043 1.400 . S
C1044 C1047 1.386 . S
H1045 C1061 0.930 . S
H1046 C1062 0.931 . S
C1047 H1035 0.929 . S
C1047 C1041 1.390 . S
C1047 C1044 1.386 . S
C1048 C1043 1.490 . S
C1048 C1050 1.395 . S
C1048 C1051 1.403 . S
H1049 C1055 0.930 . S
C1050 H1036 0.930 . S
C1050 C1048 1.395 . S
C1050 C1053 1.403 . S
C1051 C1048 1.403 . S
C1051 C1052 1.524 . S
C1051 C1055 1.400 . S
C1052 H1037 0.960 . S
C1052 H1038 0.960 . S
C1052 H1039 0.960 . S
C1052 C1051 1.524 . S
C1053 C1050 1.403 . S
C1053 C1054 1.392 . S
C1053 C1057 1.495 . S
C1054 C1053 1.392 . S
C1054 C1055 1.385 . S
C1054 C1056 1.478 . S
C1055 H1049 0.930 . S
C1055 C1051 1.400 . S
C1055 C1054 1.385 . S
C1056 C1054 1.478 . S
C1056 C1058 1.381 . S
C1056 C1062 1.383 . S
C1057 C1053 1.495 . S
C1057 H1063 0.959 . S
C1057 H1064 0.961 . S
C1057 H1065 0.960 . S
C1058 C1056 1.381 . S
C1058 C1059 1.394 . S
C1058 H1066 0.930 . S
C1059 C1058 1.394 . S
C1059 C1060 1.383 . S
C1059 H1067 0.929 . S
C1060 C1059 1.383 . S
C1060 C1061 1.377 . S
C1061 H1045 0.930 . S
C1061 C1060 1.377 . S
C1061 C1062 1.379 . S
C1062 H1046 0.931 . S
C1062 C1056 1.383 . S
C1062 C1061 1.379 . S
H1063 C1057 0.959 . S
H1064 C1057 0.961 . S
H1065 C1057 0.960 . S
H1066 C1058 0.930 . S
H1067 C1059 0.929 . S
H1068 C1076 0.929 . S
H1069 C1078 0.930 . S
H1070 C1080 0.930 . S
H1071 C1083 0.929 . S
H1072 C1086 0.930 . S
H1073 C1088 0.960 . S
H1074 C1088 0.960 . S
H1075 C1088 0.960 . S
C1076 H1068 0.929 . S
C1076 C1077 1.377 . S
C1076 C1078 1.384 . S
C1077 C1076 1.377 . S
C1077 C1083 1.390 . S
C1078 H1069 0.930 . S
C1078 C1076 1.384 . S
C1078 C1079 1.372 . S
C1079 C1078 1.372 . S
C1079 C1080 1.400 . S
C1079 C1084 1.490 . S
C1080 H1070 0.930 . S
C1080 C1079 1.400 . S
C1080 C1083 1.386 . S
H1081 C1097 0.930 . S
H1082 C1098 0.931 . S
C1083 H1071 0.929 . S
C1083 C1077 1.390 . S
C1083 C1080 1.386 . S
C1084 C1079 1.490 . S
C1084 C1086 1.395 . S
C1084 C1087 1.403 . S
H1085 C1091 0.930 . S
C1086 H1072 0.930 . S
C1086 C1084 1.395 . S
C1086 C1089 1.403 . S
C1087 C1084 1.403 . S
C1087 C1088 1.524 . S
C1087 C1091 1.400 . S
C1088 H1073 0.960 . S
C1088 H1074 0.960 . S
C1088 H1075 0.960 . S
C1088 C1087 1.524 . S
C1089 C1086 1.403 . S
C1089 C1090 1.392 . S
C1089 C1093 1.495 . S
C1090 C1089 1.392 . S
C1090 C1091 1.385 . S
C1090 C1092 1.478 . S
C1091 H1085 0.930 . S
C1091 C1087 1.400 . S
C1091 C1090 1.385 . S
C1092 C1090 1.478 . S
C1092 C1094 1.381 . S
C1092 C1098 1.383 . S
C1093 C1089 1.495 . S
C1093 H1099 0.959 . S
C1093 H1100 0.961 . S
C1093 H1101 0.960 . S
C1094 C1092 1.381 . S
C1094 C1095 1.394 . S
C1094 H1102 0.930 . S
C1095 C1094 1.394 . S
C1095 C1096 1.383 . S
C1095 H1103 0.929 . S
C1096 C1095 1.383 . S
C1096 C1097 1.377 . S
C1097 H1081 0.930 . S
C1097 C1096 1.377 . S
C1097 C1098 1.379 . S
C1098 H1082 0.931 . S
C1098 C1092 1.383 . S
C1098 C1097 1.379 . S
H1099 C1093 0.959 . S
H1100 C1093 0.961 . S
H1101 C1093 0.960 . S
H1102 C1094 0.930 . S
H1103 C1095 0.929 . S
H1104 C1112 0.929 . S
H1105 C1114 0.930 . S
H1106 C1116 0.930 . S
H1107 C1119 0.929 . S
H1108 C1122 0.930 . S
H1109 C1124 0.960 . S
H1110 C1124 0.960 . S
H1111 C1124 0.960 . S
C1112 H1104 0.929 . S
C1112 C1113 1.377 . S
C1112 C1114 1.384 . S
C1113 C1112 1.377 . S
C1113 C1119 1.390 . S
C1114 H1105 0.930 . S
C1114 C1112 1.384 . S
C1114 C1115 1.372 . S
C1115 C1114 1.372 . S
C1115 C1116 1.400 . S
C1115 C1120 1.490 . S
C1116 H1106 0.930 . S
C1116 C1115 1.400 . S
C1116 C1119 1.386 . S
H1117 C1133 0.930 . S
H1118 C1134 0.931 . S
C1119 H1107 0.929 . S
C1119 C1113 1.390 . S
C1119 C1116 1.386 . S
C1120 C1115 1.490 . S
C1120 C1122 1.395 . S
C1120 C1123 1.403 . S
H1121 C1127 0.930 . S
C1122 H1108 0.930 . S
C1122 C1120 1.395 . S
C1122 C1125 1.403 1_554 S
C1123 C1120 1.403 . S
C1123 C1124 1.524 . S
C1123 C1127 1.400 1_554 S
C1124 H1109 0.960 . S
C1124 H1110 0.960 . S
C1124 H1111 0.960 . S
C1124 C1123 1.524 . S
C1125 C1122 1.403 1_556 S
C1125 C1126 1.392 . S
C1125 C1129 1.495 . S
C1126 C1125 1.392 . S
C1126 C1127 1.385 . S
C1126 C1128 1.478 . S
C1127 H1121 0.930 . S
C1127 C1123 1.400 1_556 S
C1127 C1126 1.385 . S
C1128 C1126 1.478 . S
C1128 C1130 1.381 . S
C1128 C1134 1.383 . S
C1129 C1125 1.495 . S
C1129 H1135 0.959 . S
C1129 H1136 0.961 . S
C1129 H1137 0.960 . S
C1130 C1128 1.381 . S
C1130 C1131 1.394 . S
C1130 H1138 0.930 . S
C1131 C1130 1.394 . S
C1131 C1132 1.383 . S
C1131 H1139 0.929 . S
C1132 C1131 1.383 . S
C1132 C1133 1.377 . S
C1133 H1117 0.930 . S
C1133 C1132 1.377 . S
C1133 C1134 1.379 . S
C1134 H1118 0.931 . S
C1134 C1128 1.383 . S
C1134 C1133 1.379 . S
H1135 C1129 0.959 . S
H1136 C1129 0.961 . S
H1137 C1129 0.960 . S
H1138 C1130 0.930 . S
H1139 C1131 0.929 . S
H1140 C1148 0.929 . S
H1141 C1150 0.930 . S
H1142 C1152 0.930 . S
H1143 C1155 0.929 . S
H1144 C1158 0.930 . S
H1145 C1160 0.960 . S
H1146 C1160 0.960 . S
H1147 C1160 0.960 . S
C1148 H1140 0.929 . S
C1148 C1149 1.377 . S
C1148 C1150 1.384 . S
C1149 C1148 1.377 . S
C1149 C1155 1.390 . S
C1150 H1141 0.930 . S
C1150 C1148 1.384 . S
C1150 C1151 1.372 . S
C1151 C1150 1.372 . S
C1151 C1152 1.400 . S
C1151 C1156 1.490 . S
C1152 H1142 0.930 . S
C1152 C1151 1.400 . S
C1152 C1155 1.386 . S
H1153 C1169 0.930 . S
H1154 C1170 0.931 . S
C1155 H1143 0.929 . S
C1155 C1149 1.390 . S
C1155 C1152 1.386 . S
C1156 C1151 1.490 . S
C1156 C1158 1.395 . S
C1156 C1159 1.403 . S
H1157 C1163 0.930 . S
C1158 H1144 0.930 . S
C1158 C1156 1.395 . S
C1158 C1161 1.403 1_556 S
C1159 C1156 1.403 . S
C1159 C1160 1.524 . S
C1159 C1163 1.400 1_556 S
C1160 H1145 0.960 . S
C1160 H1146 0.960 . S
C1160 H1147 0.960 . S
C1160 C1159 1.524 . S
C1161 C1158 1.403 1_554 S
C1161 C1162 1.392 . S
C1161 C1165 1.495 . S
C1162 C1161 1.392 . S
C1162 C1163 1.385 . S
C1162 C1164 1.478 . S
C1163 H1157 0.930 . S
C1163 C1159 1.400 1_554 S
C1163 C1162 1.385 . S
C1164 C1162 1.478 . S
C1164 C1166 1.381 . S
C1164 C1170 1.383 . S
C1165 C1161 1.495 . S
C1165 H1171 0.959 . S
C1165 H1172 0.961 . S
C1165 H1173 0.960 . S
C1166 C1164 1.381 . S
C1166 C1167 1.394 . S
C1166 H1174 0.930 . S
C1167 C1166 1.394 . S
C1167 C1168 1.383 . S
C1167 H1175 0.929 . S
C1168 C1167 1.383 . S
C1168 C1169 1.377 . S
C1169 H1153 0.930 . S
C1169 C1168 1.377 . S
C1169 C1170 1.379 . S
C1170 H1154 0.931 . S
C1170 C1164 1.383 . S
C1170 C1169 1.379 . S
H1171 C1165 0.959 . S
H1172 C1165 0.961 . S
H1173 C1165 0.960 . S
H1174 C1166 0.930 . S
H1175 C1167 0.929 . S
H1176 C1184 0.929 . S
H1177 C1186 0.930 . S
H1178 C1188 0.930 . S
H1179 C1191 0.929 . S
H1180 C1194 0.930 . S
H1181 C1196 0.960 . S
H1182 C1196 0.960 . S
H1183 C1196 0.960 . S
C1184 H1176 0.929 . S
C1184 C1185 1.377 . S
C1184 C1186 1.384 . S
C1185 C1184 1.377 . S
C1185 C1191 1.390 . S
C1186 H1177 0.930 . S
C1186 C1184 1.384 . S
C1186 C1187 1.372 . S
C1187 C1186 1.372 . S
C1187 C1188 1.400 . S
C1187 C1192 1.490 . S
C1188 H1178 0.930 . S
C1188 C1187 1.400 . S
C1188 C1191 1.386 . S
H1189 C1205 0.930 . S
H1190 C1206 0.931 . S
C1191 H1179 0.929 . S
C1191 C1185 1.390 . S
C1191 C1188 1.386 . S
C1192 C1187 1.490 . S
C1192 C1194 1.395 . S
C1192 C1195 1.403 . S
H1193 C1199 0.930 . S
C1194 H1180 0.930 . S
C1194 C1192 1.395 . S
C1194 C1197 1.403 1_556 S
C1195 C1192 1.403 . S
C1195 C1196 1.524 . S
C1195 C1199 1.400 1_556 S
C1196 H1181 0.960 . S
C1196 H1182 0.960 . S
C1196 H1183 0.960 . S
C1196 C1195 1.524 . S
C1197 C1194 1.403 1_554 S
C1197 C1198 1.392 . S
C1197 C1201 1.495 . S
C1198 C1197 1.392 . S
C1198 C1199 1.385 . S
C1198 C1200 1.478 . S
C1199 H1193 0.930 . S
C1199 C1195 1.400 1_554 S
C1199 C1198 1.385 . S
C1200 C1198 1.478 . S
C1200 C1202 1.381 . S
C1200 C1206 1.383 . S
C1201 C1197 1.495 . S
C1201 H1207 0.959 . S
C1201 H1208 0.961 . S
C1201 H1209 0.960 . S
C1202 C1200 1.381 . S
C1202 C1203 1.394 . S
C1202 H1210 0.930 . S
C1203 C1202 1.394 . S
C1203 C1204 1.383 . S
C1203 H1211 0.929 . S
C1204 C1203 1.383 . S
C1204 C1205 1.377 . S
C1205 H1189 0.930 . S
C1205 C1204 1.377 . S
C1205 C1206 1.379 . S
C1206 H1190 0.931 . S
C1206 C1200 1.383 . S
C1206 C1205 1.379 . S
H1207 C1201 0.959 . S
H1208 C1201 0.961 . S
H1209 C1201 0.960 . S
H1210 C1202 0.930 . S
H1211 C1203 0.929 . S
H1212 C1220 0.929 . S
H1213 C1222 0.930 . S
H1214 C1224 0.930 . S
H1215 C1227 0.929 . S
H1216 C1230 0.930 . S
H1217 C1232 0.960 . S
H1218 C1232 0.960 . S
H1219 C1232 0.960 . S
C1220 H1212 0.929 . S
C1220 C1221 1.377 . S
C1220 C1222 1.384 . S
C1221 C1220 1.377 . S
C1221 C1227 1.390 . S
C1222 H1213 0.930 . S
C1222 C1220 1.384 . S
C1222 C1223 1.372 . S
C1223 C1222 1.372 . S
C1223 C1224 1.400 . S
C1223 C1228 1.490 . S
C1224 H1214 0.930 . S
C1224 C1223 1.400 . S
C1224 C1227 1.386 . S
H1225 C1241 0.930 . S
H1226 C1242 0.931 . S
C1227 H1215 0.929 . S
C1227 C1221 1.390 . S
C1227 C1224 1.386 . S
C1228 C1223 1.490 . S
C1228 C1230 1.395 . S
C1228 C1231 1.403 . S
H1229 C1235 0.930 . S
C1230 H1216 0.930 . S
C1230 C1228 1.395 . S
C1230 C1233 1.403 1_556 S
C1231 C1228 1.403 . S
C1231 C1232 1.524 . S
C1231 C1235 1.400 1_556 S
C1232 H1217 0.960 . S
C1232 H1218 0.960 . S
C1232 H1219 0.960 . S
C1232 C1231 1.524 . S
C1233 C1230 1.403 1_554 S
C1233 C1234 1.392 . S
C1233 C1237 1.495 . S
C1234 C1233 1.392 . S
C1234 C1235 1.385 . S
C1234 C1236 1.478 . S
C1235 H1229 0.930 . S
C1235 C1231 1.400 1_554 S
C1235 C1234 1.385 . S
C1236 C1234 1.478 . S
C1236 C1238 1.381 . S
C1236 C1242 1.383 . S
C1237 C1233 1.495 . S
C1237 H1243 0.959 . S
C1237 H1244 0.961 . S
C1237 H1245 0.960 . S
C1238 C1236 1.381 . S
C1238 C1239 1.394 . S
C1238 H1246 0.930 . S
C1239 C1238 1.394 . S
C1239 C1240 1.383 . S
C1239 H1247 0.929 . S
C1240 C1239 1.383 . S
C1240 C1241 1.377 . S
C1241 H1225 0.930 . S
C1241 C1240 1.377 . S
C1241 C1242 1.379 . S
C1242 H1226 0.931 . S
C1242 C1236 1.383 . S
C1242 C1241 1.379 . S
H1243 C1237 0.959 . S
H1244 C1237 0.961 . S
H1245 C1237 0.960 . S
H1246 C1238 0.930 . S
H1247 C1239 0.929 . S
H1248 C1256 0.929 . S
H1249 C1258 0.930 . S
H1250 C1260 0.930 . S
H1251 C1263 0.929 . S
H1252 C1266 0.930 . S
H1253 C1268 0.960 . S
H1254 C1268 0.960 . S
H1255 C1268 0.960 . S
C1256 H1248 0.929 . S
C1256 C1257 1.377 . S
C1256 C1258 1.384 . S
C1257 C1256 1.377 . S
C1257 C1263 1.390 . S
C1258 H1249 0.930 . S
C1258 C1256 1.384 . S
C1258 C1259 1.372 . S
C1259 C1258 1.372 . S
C1259 C1260 1.400 . S
C1259 C1264 1.490 . S
C1260 H1250 0.930 . S
C1260 C1259 1.400 . S
C1260 C1263 1.386 . S
H1261 C1277 0.930 . S
H1262 C1278 0.931 . S
C1263 H1251 0.929 . S
C1263 C1257 1.390 . S
C1263 C1260 1.386 . S
C1264 C1259 1.490 . S
C1264 C1266 1.395 . S
C1264 C1267 1.403 . S
H1265 C1271 0.930 . S
C1266 H1252 0.930 . S
C1266 C1264 1.395 . S
C1266 C1269 1.403 . S
C1267 C1264 1.403 . S
C1267 C1268 1.524 . S
C1267 C1271 1.400 . S
C1268 H1253 0.960 . S
C1268 H1254 0.960 . S
C1268 H1255 0.960 . S
C1268 C1267 1.524 . S
C1269 C1266 1.403 . S
C1269 C1270 1.392 . S
C1269 C1273 1.495 . S
C1270 C1269 1.392 . S
C1270 C1271 1.385 . S
C1270 C1272 1.478 . S
C1271 H1265 0.930 . S
C1271 C1267 1.400 . S
C1271 C1270 1.385 . S
C1272 C1270 1.478 . S
C1272 C1274 1.381 . S
C1272 C1278 1.383 . S
C1273 C1269 1.495 . S
C1273 H1279 0.959 . S
C1273 H1280 0.961 . S
C1273 H1281 0.960 . S
C1274 C1272 1.381 . S
C1274 C1275 1.394 . S
C1274 H1282 0.930 . S
C1275 C1274 1.394 . S
C1275 C1276 1.383 . S
C1275 H1283 0.929 . S
C1276 C1275 1.383 . S
C1276 C1277 1.377 . S
C1277 H1261 0.930 . S
C1277 C1276 1.377 . S
C1277 C1278 1.379 . S
C1278 H1262 0.931 . S
C1278 C1272 1.383 . S
C1278 C1277 1.379 . S
H1279 C1273 0.959 . S
H1280 C1273 0.961 . S
H1281 C1273 0.960 . S
H1282 C1274 0.930 . S
H1283 C1275 0.929 . S
H1284 C1292 0.929 . S
H1285 C1294 0.930 . S
H1286 C1296 0.930 . S
H1287 C1299 0.929 . S
H1288 C1302 0.930 . S
H1289 C1304 0.960 . S
H1290 C1304 0.960 . S
H1291 C1304 0.960 . S
C1292 H1284 0.929 . S
C1292 C1293 1.377 . S
C1292 C1294 1.384 . S
C1293 C1292 1.377 . S
C1293 C1299 1.390 . S
C1294 H1285 0.930 . S
C1294 C1292 1.384 . S
C1294 C1295 1.372 . S
C1295 C1294 1.372 . S
C1295 C1296 1.400 . S
C1295 C1300 1.490 . S
C1296 H1286 0.930 . S
C1296 C1295 1.400 . S
C1296 C1299 1.386 . S
H1297 C1313 0.930 . S
H1298 C1314 0.931 . S
C1299 H1287 0.929 . S
C1299 C1293 1.390 . S
C1299 C1296 1.386 . S
C1300 C1295 1.490 . S
C1300 C1302 1.395 . S
C1300 C1303 1.403 . S
H1301 C1307 0.930 . S
C1302 H1288 0.930 . S
C1302 C1300 1.395 . S
C1302 C1305 1.403 . S
C1303 C1300 1.403 . S
C1303 C1304 1.524 . S
C1303 C1307 1.400 . S
C1304 H1289 0.960 . S
C1304 H1290 0.960 . S
C1304 H1291 0.960 . S
C1304 C1303 1.524 . S
C1305 C1302 1.403 . S
C1305 C1306 1.392 . S
C1305 C1309 1.495 . S
C1306 C1305 1.392 . S
C1306 C1307 1.385 . S
C1306 C1308 1.478 . S
C1307 H1301 0.930 . S
C1307 C1303 1.400 . S
C1307 C1306 1.385 . S
C1308 C1306 1.478 . S
C1308 C1310 1.381 . S
C1308 C1314 1.383 . S
C1309 C1305 1.495 . S
C1309 H1315 0.959 . S
C1309 H1316 0.961 . S
C1309 H1317 0.960 . S
C1310 C1308 1.381 . S
C1310 C1311 1.394 . S
C1310 H1318 0.930 . S
C1311 C1310 1.394 . S
C1311 C1312 1.383 . S
C1311 H1319 0.929 . S
C1312 C1311 1.383 . S
C1312 C1313 1.377 . S
C1313 H1297 0.930 . S
C1313 C1312 1.377 . S
C1313 C1314 1.379 . S
C1314 H1298 0.931 . S
C1314 C1308 1.383 . S
C1314 C1313 1.379 . S
H1315 C1309 0.959 . S
H1316 C1309 0.961 . S
H1317 C1309 0.960 . S
H1318 C1310 0.930 . S
H1319 C1311 0.929 . S
H1320 C1328 0.929 . S
H1321 C1330 0.930 . S
H1322 C1332 0.930 . S
H1323 C1335 0.929 . S
H1324 C1338 0.930 . S
H1325 C1340 0.960 . S
H1326 C1340 0.960 . S
H1327 C1340 0.960 . S
C1328 H1320 0.929 . S
C1328 C1329 1.377 . S
C1328 C1330 1.384 . S
C1329 C1328 1.377 . S
C1329 C1335 1.390 . S
C1330 H1321 0.930 . S
C1330 C1328 1.384 . S
C1330 C1331 1.372 . S
C1331 C1330 1.372 . S
C1331 C1332 1.400 . S
C1331 C1336 1.490 . S
C1332 H1322 0.930 . S
C1332 C1331 1.400 . S
C1332 C1335 1.386 . S
H1333 C1349 0.930 . S
H1334 C1350 0.931 . S
C1335 H1323 0.929 . S
C1335 C1329 1.390 . S
C1335 C1332 1.386 . S
C1336 C1331 1.490 . S
C1336 C1338 1.395 . S
C1336 C1339 1.403 . S
H1337 C1343 0.930 . S
C1338 H1324 0.930 . S
C1338 C1336 1.395 . S
C1338 C1341 1.403 . S
C1339 C1336 1.403 . S
C1339 C1340 1.524 . S
C1339 C1343 1.400 . S
C1340 H1325 0.960 . S
C1340 H1326 0.960 . S
C1340 H1327 0.960 . S
C1340 C1339 1.524 . S
C1341 C1338 1.403 . S
C1341 C1342 1.392 . S
C1341 C1345 1.495 . S
C1342 C1341 1.392 . S
C1342 C1343 1.385 . S
C1342 C1344 1.478 . S
C1343 H1337 0.930 . S
C1343 C1339 1.400 . S
C1343 C1342 1.385 . S
C1344 C1342 1.478 . S
C1344 C1346 1.381 . S
C1344 C1350 1.383 . S
C1345 C1341 1.495 . S
C1345 H1351 0.959 . S
C1345 H1352 0.961 . S
C1345 H1353 0.960 . S
C1346 C1344 1.381 . S
C1346 C1347 1.394 . S
C1346 H1354 0.930 . S
C1347 C1346 1.394 . S
C1347 C1348 1.383 . S
C1347 H1355 0.929 . S
C1348 C1347 1.383 . S
C1348 C1349 1.377 . S
C1349 H1333 0.930 . S
C1349 C1348 1.377 . S
C1349 C1350 1.379 . S
C1350 H1334 0.931 . S
C1350 C1344 1.383 . S
C1350 C1349 1.379 . S
H1351 C1345 0.959 . S
H1352 C1345 0.961 . S
H1353 C1345 0.960 . S
H1354 C1346 0.930 . S
H1355 C1347 0.929 . S
H1356 C1364 0.929 . S
H1357 C1366 0.930 . S
H1358 C1368 0.930 . S
H1359 C1371 0.929 . S
H1360 C1374 0.930 . S
H1361 C1376 0.960 . S
H1362 C1376 0.960 . S
H1363 C1376 0.960 . S
C1364 H1356 0.929 . S
C1364 C1365 1.377 . S
C1364 C1366 1.384 . S
C1365 C1364 1.377 . S
C1365 C1371 1.390 . S
C1366 H1357 0.930 . S
C1366 C1364 1.384 . S
C1366 C1367 1.372 . S
C1367 C1366 1.372 . S
C1367 C1368 1.400 . S
C1367 C1372 1.490 . S
C1368 H1358 0.930 . S
C1368 C1367 1.400 . S
C1368 C1371 1.386 . S
H1369 C1385 0.930 . S
H1370 C1386 0.931 . S
C1371 H1359 0.929 . S
C1371 C1365 1.390 . S
C1371 C1368 1.386 . S
C1372 C1367 1.490 . S
C1372 C1374 1.395 . S
C1372 C1375 1.403 . S
H1373 C1379 0.930 . S
C1374 H1360 0.930 . S
C1374 C1372 1.395 . S
C1374 C1377 1.403 . S
C1375 C1372 1.403 . S
C1375 C1376 1.524 . S
C1375 C1379 1.400 . S
C1376 H1361 0.960 . S
C1376 H1362 0.960 . S
C1376 H1363 0.960 . S
C1376 C1375 1.524 . S
C1377 C1374 1.403 . S
C1377 C1378 1.392 . S
C1377 C1381 1.495 . S
C1378 C1377 1.392 . S
C1378 C1379 1.385 . S
C1378 C1380 1.478 . S
C1379 H1373 0.930 . S
C1379 C1375 1.400 . S
C1379 C1378 1.385 . S
C1380 C1378 1.478 . S
C1380 C1382 1.381 . S
C1380 C1386 1.383 . S
C1381 C1377 1.495 . S
C1381 H1387 0.959 . S
C1381 H1388 0.961 . S
C1381 H1389 0.960 . S
C1382 C1380 1.381 . S
C1382 C1383 1.394 . S
C1382 H1390 0.930 . S
C1383 C1382 1.394 . S
C1383 C1384 1.383 . S
C1383 H1391 0.929 . S
C1384 C1383 1.383 . S
C1384 C1385 1.377 . S
C1385 H1369 0.930 . S
C1385 C1384 1.377 . S
C1385 C1386 1.379 . S
C1386 H1370 0.931 . S
C1386 C1380 1.383 . S
C1386 C1385 1.379 . S
H1387 C1381 0.959 . S
H1388 C1381 0.961 . S
H1389 C1381 0.960 . S
H1390 C1382 0.930 . S
H1391 C1383 0.929 . S
H1392 C1400 0.929 . S
H1393 C1402 0.930 . S
H1394 C1404 0.930 . S
H1395 C1407 0.929 . S
H1396 C1410 0.930 . S
H1397 C1412 0.960 . S
H1398 C1412 0.960 . S
H1399 C1412 0.960 . S
C1400 H1392 0.929 . S
C1400 C1401 1.377 . S
C1400 C1402 1.384 . S
C1401 C1400 1.377 . S
C1401 C1407 1.390 . S
C1402 H1393 0.930 . S
C1402 C1400 1.384 . S
C1402 C1403 1.372 . S
C1403 C1402 1.372 . S
C1403 C1404 1.400 . S
C1403 C1408 1.490 . S
C1404 H1394 0.930 . S
C1404 C1403 1.400 . S
C1404 C1407 1.386 . S
H1405 C1421 0.930 . S
H1406 C1422 0.931 . S
C1407 H1395 0.929 . S
C1407 C1401 1.390 . S
C1407 C1404 1.386 . S
C1408 C1403 1.490 . S
C1408 C1410 1.395 . S
C1408 C1411 1.403 . S
H1409 C1415 0.930 . S
C1410 H1396 0.930 . S
C1410 C1408 1.395 . S
C1410 C1413 1.403 . S
C1411 C1408 1.403 . S
C1411 C1412 1.524 . S
C1411 C1415 1.400 . S
C1412 H1397 0.960 . S
C1412 H1398 0.960 . S
C1412 H1399 0.960 . S
C1412 C1411 1.524 . S
C1413 C1410 1.403 . S
C1413 C1414 1.392 . S
C1413 C1417 1.495 . S
C1414 C1413 1.392 . S
C1414 C1415 1.385 . S
C1414 C1416 1.478 . S
C1415 H1409 0.930 . S
C1415 C1411 1.400 . S
C1415 C1414 1.385 . S
C1416 C1414 1.478 . S
C1416 C1418 1.381 . S
C1416 C1422 1.383 . S
C1417 C1413 1.495 . S
C1417 H1423 0.959 . S
C1417 H1424 0.961 . S
C1417 H1425 0.960 . S
C1418 C1416 1.381 . S
C1418 C1419 1.394 . S
C1418 H1426 0.930 . S
C1419 C1418 1.394 . S
C1419 C1420 1.383 . S
C1419 H1427 0.929 . S
C1420 C1419 1.383 . S
C1420 C1421 1.377 . S
C1421 H1405 0.930 . S
C1421 C1420 1.377 . S
C1421 C1422 1.379 . S
C1422 H1406 0.931 . S
C1422 C1416 1.383 . S
C1422 C1421 1.379 . S
H1423 C1417 0.959 . S
H1424 C1417 0.961 . S
H1425 C1417 0.960 . S
H1426 C1418 0.930 . S
H1427 C1419 0.929 . S
H1428 C1436 0.929 . S
H1429 C1438 0.930 . S
H1430 C1440 0.930 . S
H1431 C1443 0.929 . S
H1432 C1446 0.930 . S
H1433 C1448 0.960 . S
H1434 C1448 0.960 . S
H1435 C1448 0.960 . S
C1436 H1428 0.929 . S
C1436 C1437 1.377 . S
C1436 C1438 1.384 . S
C1437 C1436 1.377 . S
C1437 C1443 1.390 . S
C1438 H1429 0.930 . S
C1438 C1436 1.384 . S
C1438 C1439 1.372 . S
C1439 C1438 1.372 . S
C1439 C1440 1.400 . S
C1439 C1444 1.490 . S
C1440 H1430 0.930 . S
C1440 C1439 1.400 . S
C1440 C1443 1.386 . S
H1441 C1457 0.930 . S
H1442 C1458 0.931 . S
C1443 H1431 0.929 . S
C1443 C1437 1.390 . S
C1443 C1440 1.386 . S
C1444 C1439 1.490 . S
C1444 C1446 1.395 . S
C1444 C1447 1.403 . S
H1445 C1451 0.930 . S
C1446 H1432 0.930 . S
C1446 C1444 1.395 . S
C1446 C1449 1.403 . S
C1447 C1444 1.403 . S
C1447 C1448 1.524 . S
C1447 C1451 1.400 . S
C1448 H1433 0.960 . S
C1448 H1434 0.960 . S
C1448 H1435 0.960 . S
C1448 C1447 1.524 . S
C1449 C1446 1.403 . S
C1449 C1450 1.392 . S
C1449 C1453 1.495 . S
C1450 C1449 1.392 . S
C1450 C1451 1.385 . S
C1450 C1452 1.478 . S
C1451 H1445 0.930 . S
C1451 C1447 1.400 . S
C1451 C1450 1.385 . S
C1452 C1450 1.478 . S
C1452 C1454 1.381 . S
C1452 C1458 1.383 . S
C1453 C1449 1.495 . S
C1453 H1459 0.959 . S
C1453 H1460 0.961 . S
C1453 H1461 0.960 . S
C1454 C1452 1.381 . S
C1454 C1455 1.394 . S
C1454 H1462 0.930 . S
C1455 C1454 1.394 . S
C1455 C1456 1.383 . S
C1455 H1463 0.929 . S
C1456 C1455 1.383 . S
C1456 C1457 1.377 . S
C1457 H1441 0.930 . S
C1457 C1456 1.377 . S
C1457 C1458 1.379 . S
C1458 H1442 0.931 . S
C1458 C1452 1.383 . S
C1458 C1457 1.379 . S
H1459 C1453 0.959 . S
H1460 C1453 0.961 . S
H1461 C1453 0.960 . S
H1462 C1454 0.930 . S
H1463 C1455 0.929 . S
H1464 C1472 0.929 . S
H1465 C1474 0.930 . S
H1466 C1476 0.930 . S
H1467 C1479 0.929 . S
H1468 C1482 0.930 . S
H1469 C1484 0.960 . S
H1470 C1484 0.960 . S
H1471 C1484 0.960 . S
C1472 H1464 0.929 . S
C1472 C1473 1.377 . S
C1472 C1474 1.384 . S
C1473 C1472 1.377 . S
C1473 C1479 1.390 . S
C1474 H1465 0.930 . S
C1474 C1472 1.384 . S
C1474 C1475 1.372 . S
C1475 C1474 1.372 . S
C1475 C1476 1.400 . S
C1475 C1480 1.490 . S
C1476 H1466 0.930 . S
C1476 C1475 1.400 . S
C1476 C1479 1.386 . S
H1477 C1493 0.930 . S
H1478 C1494 0.931 . S
C1479 H1467 0.929 . S
C1479 C1473 1.390 . S
C1479 C1476 1.386 . S
C1480 C1475 1.490 . S
C1480 C1482 1.395 . S
C1480 C1483 1.403 . S
H1481 C1487 0.930 . S
C1482 H1468 0.930 . S
C1482 C1480 1.395 . S
C1482 C1485 1.403 . S
C1483 C1480 1.403 . S
C1483 C1484 1.524 . S
C1483 C1487 1.400 . S
C1484 H1469 0.960 . S
C1484 H1470 0.960 . S
C1484 H1471 0.960 . S
C1484 C1483 1.524 . S
C1485 C1482 1.403 . S
C1485 C1486 1.392 . S
C1485 C1489 1.495 . S
C1486 C1485 1.392 . S
C1486 C1487 1.385 . S
C1486 C1488 1.478 . S
C1487 H1481 0.930 . S
C1487 C1483 1.400 . S
C1487 C1486 1.385 . S
C1488 C1486 1.478 . S
C1488 C1490 1.381 . S
C1488 C1494 1.383 . S
C1489 C1485 1.495 . S
C1489 H1495 0.959 . S
C1489 H1496 0.961 . S
C1489 H1497 0.960 . S
C1490 C1488 1.381 . S
C1490 C1491 1.394 . S
C1490 H1498 0.930 . S
C1491 C1490 1.394 . S
C1491 C1492 1.383 . S
C1491 H1499 0.929 . S
C1492 C1491 1.383 . S
C1492 C1493 1.377 . S
C1493 H1477 0.930 . S
C1493 C1492 1.377 . S
C1493 C1494 1.379 . S
C1494 H1478 0.931 . S
C1494 C1488 1.383 . S
C1494 C1493 1.379 . S
H1495 C1489 0.959 . S
H1496 C1489 0.961 . S
H1497 C1489 0.960 . S
H1498 C1490 0.930 . S
H1499 C1491 0.929 . S
H1500 C1508 0.929 . S
H1501 C1510 0.930 . S
H1502 C1512 0.930 . S
H1503 C1515 0.929 . S
H1504 C1518 0.930 . S
H1505 C1520 0.960 . S
H1506 C1520 0.960 . S
H1507 C1520 0.960 . S
C1508 H1500 0.929 . S
C1508 C1509 1.377 . S
C1508 C1510 1.384 . S
C1509 C1508 1.377 . S
C1509 C1515 1.390 . S
C1510 H1501 0.930 . S
C1510 C1508 1.384 . S
C1510 C1511 1.372 . S
C1511 C1510 1.372 . S
C1511 C1512 1.400 . S
C1511 C1516 1.490 . S
C1512 H1502 0.930 . S
C1512 C1511 1.400 . S
C1512 C1515 1.386 . S
H1513 C1529 0.930 . S
H1514 C1530 0.931 . S
C1515 H1503 0.929 . S
C1515 C1509 1.390 . S
C1515 C1512 1.386 . S
C1516 C1511 1.490 . S
C1516 C1518 1.395 . S
C1516 C1519 1.403 . S
H1517 C1523 0.930 . S
C1518 H1504 0.930 . S
C1518 C1516 1.395 . S
C1518 C1521 1.403 . S
C1519 C1516 1.403 . S
C1519 C1520 1.524 . S
C1519 C1523 1.400 . S
C1520 H1505 0.960 . S
C1520 H1506 0.960 . S
C1520 H1507 0.960 . S
C1520 C1519 1.524 . S
C1521 C1518 1.403 . S
C1521 C1522 1.392 . S
C1521 C1525 1.495 . S
C1522 C1521 1.392 . S
C1522 C1523 1.385 . S
C1522 C1524 1.478 . S
C1523 H1517 0.930 . S
C1523 C1519 1.400 . S
C1523 C1522 1.385 . S
C1524 C1522 1.478 . S
C1524 C1526 1.381 . S
C1524 C1530 1.383 . S
C1525 C1521 1.495 . S
C1525 H1531 0.959 . S
C1525 H1532 0.961 . S
C1525 H1533 0.960 . S
C1526 C1524 1.381 . S
C1526 C1527 1.394 . S
C1526 H1534 0.930 . S
C1527 C1526 1.394 . S
C1527 C1528 1.383 . S
C1527 H1535 0.929 . S
C1528 C1527 1.383 . S
C1528 C1529 1.377 . S
C1529 H1513 0.930 . S
C1529 C1528 1.377 . S
C1529 C1530 1.379 . S
C1530 H1514 0.931 . S
C1530 C1524 1.383 . S
C1530 C1529 1.379 . S
H1531 C1525 0.959 . S
H1532 C1525 0.961 . S
H1533 C1525 0.960 . S
H1534 C1526 0.930 . S
H1535 C1527 0.929 . S
H1536 C1544 0.929 . S
H1537 C1546 0.930 . S
H1538 C1548 0.930 . S
H1539 C1551 0.929 . S
H1540 C1554 0.930 . S
H1541 C1556 0.960 . S
H1542 C1556 0.960 . S
H1543 C1556 0.960 . S
C1544 H1536 0.929 . S
C1544 C1545 1.377 . S
C1544 C1546 1.384 . S
C1545 C1544 1.377 . S
C1545 C1551 1.390 . S
C1546 H1537 0.930 . S
C1546 C1544 1.384 . S
C1546 C1547 1.372 . S
C1547 C1546 1.372 . S
C1547 C1548 1.400 . S
C1547 C1552 1.490 . S
C1548 H1538 0.930 . S
C1548 C1547 1.400 . S
C1548 C1551 1.386 . S
H1549 C1565 0.930 . S
H1550 C1566 0.931 . S
C1551 H1539 0.929 . S
C1551 C1545 1.390 . S
C1551 C1548 1.386 . S
C1552 C1547 1.490 . S
C1552 C1554 1.395 . S
C1552 C1555 1.403 . S
H1553 C1559 0.930 . S
C1554 H1540 0.930 . S
C1554 C1552 1.395 . S
C1554 C1557 1.403 . S
C1555 C1552 1.403 . S
C1555 C1556 1.524 . S
C1555 C1559 1.400 . S
C1556 H1541 0.960 . S
C1556 H1542 0.960 . S
C1556 H1543 0.960 . S
C1556 C1555 1.524 . S
C1557 C1554 1.403 . S
C1557 C1558 1.392 . S
C1557 C1561 1.495 . S
C1558 C1557 1.392 . S
C1558 C1559 1.385 . S
C1558 C1560 1.478 . S
C1559 H1553 0.930 . S
C1559 C1555 1.400 . S
C1559 C1558 1.385 . S
C1560 C1558 1.478 . S
C1560 C1562 1.381 . S
C1560 C1566 1.383 . S
C1561 C1557 1.495 . S
C1561 H1567 0.959 . S
C1561 H1568 0.961 . S
C1561 H1569 0.960 . S
C1562 C1560 1.381 . S
C1562 C1563 1.394 . S
C1562 H1570 0.930 . S
C1563 C1562 1.394 . S
C1563 C1564 1.383 . S
C1563 H1571 0.929 . S
C1564 C1563 1.383 . S
C1564 C1565 1.377 . S
C1565 H1549 0.930 . S
C1565 C1564 1.377 . S
C1565 C1566 1.379 . S
C1566 H1550 0.931 . S
C1566 C1560 1.383 . S
C1566 C1565 1.379 . S
H1567 C1561 0.959 . S
H1568 C1561 0.961 . S
H1569 C1561 0.960 . S
H1570 C1562 0.930 . S
H1571 C1563 0.929 . S
H1572 C1580 0.929 . S
H1573 C1582 0.930 . S
H1574 C1584 0.930 . S
H1575 C1587 0.929 . S
H1576 C1590 0.930 . S
H1577 C1592 0.960 . S
H1578 C1592 0.960 . S
H1579 C1592 0.960 . S
C1580 H1572 0.929 . S
C1580 C1581 1.377 . S
C1580 C1582 1.384 . S
C1581 C1580 1.377 . S
C1581 C1587 1.390 . S
C1582 H1573 0.930 . S
C1582 C1580 1.384 . S
C1582 C1583 1.372 . S
C1583 C1582 1.372 . S
C1583 C1584 1.400 . S
C1583 C1588 1.490 . S
C1584 H1574 0.930 . S
C1584 C1583 1.400 . S
C1584 C1587 1.386 . S
H1585 C1601 0.930 . S
H1586 C1602 0.931 . S
C1587 H1575 0.929 . S
C1587 C1581 1.390 . S
C1587 C1584 1.386 . S
C1588 C1583 1.490 . S
C1588 C1590 1.395 . S
C1588 C1591 1.403 . S
H1589 C1595 0.930 . S
C1590 H1576 0.930 . S
C1590 C1588 1.395 . S
C1590 C1593 1.403 . S
C1591 C1588 1.403 . S
C1591 C1592 1.524 . S
C1591 C1595 1.400 . S
C1592 H1577 0.960 . S
C1592 H1578 0.960 . S
C1592 H1579 0.960 . S
C1592 C1591 1.524 . S
C1593 C1590 1.403 . S
C1593 C1594 1.392 . S
C1593 C1597 1.495 . S
C1594 C1593 1.392 . S
C1594 C1595 1.385 . S
C1594 C1596 1.478 . S
C1595 H1589 0.930 . S
C1595 C1591 1.400 . S
C1595 C1594 1.385 . S
C1596 C1594 1.478 . S
C1596 C1598 1.381 . S
C1596 C1602 1.383 . S
C1597 C1593 1.495 . S
C1597 H1603 0.959 . S
C1597 H1604 0.961 . S
C1597 H1605 0.960 . S
C1598 C1596 1.381 . S
C1598 C1599 1.394 . S
C1598 H1606 0.930 . S
C1599 C1598 1.394 . S
C1599 C1600 1.383 . S
C1599 H1607 0.929 . S
C1600 C1599 1.383 . S
C1600 C1601 1.377 . S
C1601 H1585 0.930 . S
C1601 C1600 1.377 . S
C1601 C1602 1.379 . S
C1602 H1586 0.931 . S
C1602 C1596 1.383 . S
C1602 C1601 1.379 . S
H1603 C1597 0.959 . S
H1604 C1597 0.961 . S
H1605 C1597 0.960 . S
H1606 C1598 0.930 . S
H1607 C1599 0.929 . S
H1608 C1616 0.929 . S
H1609 C1618 0.930 . S
H1610 C1620 0.930 . S
H1611 C1623 0.929 . S
H1612 C1626 0.930 . S
H1613 C1628 0.960 . S
H1614 C1628 0.960 . S
H1615 C1628 0.960 . S
C1616 H1608 0.929 . S
C1616 C1617 1.377 . S
C1616 C1618 1.384 . S
C1617 C1616 1.377 . S
C1617 C1623 1.390 . S
C1618 H1609 0.930 . S
C1618 C1616 1.384 . S
C1618 C1619 1.372 . S
C1619 C1618 1.372 . S
C1619 C1620 1.400 . S
C1619 C1624 1.490 . S
C1620 H1610 0.930 . S
C1620 C1619 1.400 . S
C1620 C1623 1.386 . S
H1621 C1637 0.930 . S
H1622 C1638 0.931 . S
C1623 H1611 0.929 . S
C1623 C1617 1.390 . S
C1623 C1620 1.386 . S
C1624 C1619 1.490 . S
C1624 C1626 1.395 . S
C1624 C1627 1.403 . S
H1625 C1631 0.930 . S
C1626 H1612 0.930 . S
C1626 C1624 1.395 . S
C1626 C1629 1.403 . S
C1627 C1624 1.403 . S
C1627 C1628 1.524 . S
C1627 C1631 1.400 . S
C1628 H1613 0.960 . S
C1628 H1614 0.960 . S
C1628 H1615 0.960 . S
C1628 C1627 1.524 . S
C1629 C1626 1.403 . S
C1629 C1630 1.392 . S
C1629 C1633 1.495 . S
C1630 C1629 1.392 . S
C1630 C1631 1.385 . S
C1630 C1632 1.478 . S
C1631 H1625 0.930 . S
C1631 C1627 1.400 . S
C1631 C1630 1.385 . S
C1632 C1630 1.478 . S
C1632 C1634 1.381 . S
C1632 C1638 1.383 . S
C1633 C1629 1.495 . S
C1633 H1639 0.959 . S
C1633 H1640 0.961 . S
C1633 H1641 0.960 . S
C1634 C1632 1.381 . S
C1634 C1635 1.394 . S
C1634 H1642 0.930 . S
C1635 C1634 1.394 . S
C1635 C1636 1.383 . S
C1635 H1643 0.929 . S
C1636 C1635 1.383 . S
C1636 C1637 1.377 . S
C1637 H1621 0.930 . S
C1637 C1636 1.377 . S
C1637 C1638 1.379 . S
C1638 H1622 0.931 . S
C1638 C1632 1.383 . S
C1638 C1637 1.379 . S
H1639 C1633 0.959 . S
H1640 C1633 0.961 . S
H1641 C1633 0.960 . S
H1642 C1634 0.930 . S
H1643 C1635 0.929 . S
H1644 C1652 0.929 . S
H1645 C1654 0.930 . S
H1646 C1656 0.930 . S
H1647 C1659 0.929 . S
H1648 C1662 0.930 . S
H1649 C1664 0.960 . S
H1650 C1664 0.960 . S
H1651 C1664 0.960 . S
C1652 H1644 0.929 . S
C1652 C1653 1.377 . S
C1652 C1654 1.384 . S
C1653 C1652 1.377 . S
C1653 C1659 1.390 . S
C1654 H1645 0.930 . S
C1654 C1652 1.384 . S
C1654 C1655 1.372 . S
C1655 C1654 1.372 . S
C1655 C1656 1.400 . S
C1655 C1660 1.490 . S
C1656 H1646 0.930 . S
C1656 C1655 1.400 . S
C1656 C1659 1.386 . S
H1657 C1673 0.930 . S
H1658 C1674 0.931 . S
C1659 H1647 0.929 . S
C1659 C1653 1.390 . S
C1659 C1656 1.386 . S
C1660 C1655 1.490 . S
C1660 C1662 1.395 . S
C1660 C1663 1.403 . S
H1661 C1667 0.930 . S
C1662 H1648 0.930 . S
C1662 C1660 1.395 . S
C1662 C1665 1.403 . S
C1663 C1660 1.403 . S
C1663 C1664 1.524 . S
C1663 C1667 1.400 . S
C1664 H1649 0.960 . S
C1664 H1650 0.960 . S
C1664 H1651 0.960 . S
C1664 C1663 1.524 . S
C1665 C1662 1.403 . S
C1665 C1666 1.392 . S
C1665 C1669 1.495 . S
C1666 C1665 1.392 . S
C1666 C1667 1.385 . S
C1666 C1668 1.478 . S
C1667 H1661 0.930 . S
C1667 C1663 1.400 . S
C1667 C1666 1.385 . S
C1668 C1666 1.478 . S
C1668 C1670 1.381 . S
C1668 C1674 1.383 . S
C1669 C1665 1.495 . S
C1669 H1675 0.959 . S
C1669 H1676 0.961 . S
C1669 H1677 0.960 . S
C1670 C1668 1.381 . S
C1670 C1671 1.394 . S
C1670 H1678 0.930 . S
C1671 C1670 1.394 . S
C1671 C1672 1.383 . S
C1671 H1679 0.929 . S
C1672 C1671 1.383 . S
C1672 C1673 1.377 . S
C1673 H1657 0.930 . S
C1673 C1672 1.377 . S
C1673 C1674 1.379 . S
C1674 H1658 0.931 . S
C1674 C1668 1.383 . S
C1674 C1673 1.379 . S
H1675 C1669 0.959 . S
H1676 C1669 0.961 . S
H1677 C1669 0.960 . S
H1678 C1670 0.930 . S
H1679 C1671 0.929 . S
H1680 C1688 0.929 . S
H1681 C1690 0.930 . S
H1682 C1692 0.930 . S
H1683 C1695 0.929 . S
H1684 C1698 0.930 . S
H1685 C1700 0.960 . S
H1686 C1700 0.960 . S
H1687 C1700 0.960 . S
C1688 H1680 0.929 . S
C1688 C1689 1.377 . S
C1688 C1690 1.384 . S
C1689 C1688 1.377 . S
C1689 C1695 1.390 . S
C1690 H1681 0.930 . S
C1690 C1688 1.384 . S
C1690 C1691 1.372 . S
C1691 C1690 1.372 . S
C1691 C1692 1.400 . S
C1691 C1696 1.490 . S
C1692 H1682 0.930 . S
C1692 C1691 1.400 . S
C1692 C1695 1.386 . S
H1693 C1709 0.930 . S
H1694 C1710 0.931 . S
C1695 H1683 0.929 . S
C1695 C1689 1.390 . S
C1695 C1692 1.386 . S
C1696 C1691 1.490 . S
C1696 C1698 1.395 . S
C1696 C1699 1.403 . S
H1697 C1703 0.930 . S
C1698 H1684 0.930 . S
C1698 C1696 1.395 . S
C1698 C1701 1.403 1_545 S
C1699 C1696 1.403 . S
C1699 C1700 1.524 . S
C1699 C1703 1.400 1_545 S
C1700 H1685 0.960 . S
C1700 H1686 0.960 . S
C1700 H1687 0.960 . S
C1700 C1699 1.524 . S
C1701 C1698 1.403 1_565 S
C1701 C1702 1.392 . S
C1701 C1705 1.495 . S
C1702 C1701 1.392 . S
C1702 C1703 1.385 . S
C1702 C1704 1.478 . S
C1703 H1697 0.930 . S
C1703 C1699 1.400 1_565 S
C1703 C1702 1.385 . S
C1704 C1702 1.478 . S
C1704 C1706 1.381 . S
C1704 C1710 1.383 . S
C1705 C1701 1.495 . S
C1705 H1711 0.959 . S
C1705 H1712 0.961 . S
C1705 H1713 0.960 . S
C1706 C1704 1.381 . S
C1706 C1707 1.394 . S
C1706 H1714 0.930 . S
C1707 C1706 1.394 . S
C1707 C1708 1.383 . S
C1707 H1715 0.929 . S
C1708 C1707 1.383 . S
C1708 C1709 1.377 . S
C1709 H1693 0.930 . S
C1709 C1708 1.377 . S
C1709 C1710 1.379 . S
C1710 H1694 0.931 . S
C1710 C1704 1.383 . S
C1710 C1709 1.379 . S
H1711 C1705 0.959 . S
H1712 C1705 0.961 . S
H1713 C1705 0.960 . S
H1714 C1706 0.930 . S
H1715 C1707 0.929 . S
H1716 C1724 0.929 . S
H1717 C1726 0.930 . S
H1718 C1728 0.930 . S
H1719 C1731 0.929 . S
H1720 C1734 0.930 . S
H1721 C1736 0.960 . S
H1722 C1736 0.960 . S
H1723 C1736 0.960 . S
C1724 H1716 0.929 . S
C1724 C1725 1.377 . S
C1724 C1726 1.384 . S
C1725 C1724 1.377 . S
C1725 C1731 1.390 . S
C1726 H1717 0.930 . S
C1726 C1724 1.384 . S
C1726 C1727 1.372 . S
C1727 C1726 1.372 . S
C1727 C1728 1.400 . S
C1727 C1732 1.490 . S
C1728 H1718 0.930 . S
C1728 C1727 1.400 . S
C1728 C1731 1.386 . S
H1729 C1745 0.930 . S
H1730 C1746 0.931 . S
C1731 H1719 0.929 . S
C1731 C1725 1.390 . S
C1731 C1728 1.386 . S
C1732 C1727 1.490 . S
C1732 C1734 1.395 . S
C1732 C1735 1.403 . S
H1733 C1739 0.930 . S
C1734 H1720 0.930 . S
C1734 C1732 1.395 . S
C1734 C1737 1.403 1_655 S
C1735 C1732 1.403 . S
C1735 C1736 1.524 . S
C1735 C1739 1.400 1_655 S
C1736 H1721 0.960 . S
C1736 H1722 0.960 . S
C1736 H1723 0.960 . S
C1736 C1735 1.524 . S
C1737 C1734 1.403 1_455 S
C1737 C1738 1.392 . S
C1737 C1741 1.495 . S
C1738 C1737 1.392 . S
C1738 C1739 1.385 . S
C1738 C1740 1.478 . S
C1739 H1733 0.930 . S
C1739 C1735 1.400 1_455 S
C1739 C1738 1.385 . S
C1740 C1738 1.478 . S
C1740 C1742 1.381 . S
C1740 C1746 1.383 . S
C1741 C1737 1.495 . S
C1741 H1747 0.959 . S
C1741 H1748 0.961 . S
C1741 H1749 0.960 . S
C1742 C1740 1.381 . S
C1742 C1743 1.394 . S
C1742 H1750 0.930 . S
C1743 C1742 1.394 . S
C1743 C1744 1.383 . S
C1743 H1751 0.929 . S
C1744 C1743 1.383 . S
C1744 C1745 1.377 . S
C1745 H1729 0.930 . S
C1745 C1744 1.377 . S
C1745 C1746 1.379 . S
C1746 H1730 0.931 . S
C1746 C1740 1.383 . S
C1746 C1745 1.379 . S
H1747 C1741 0.959 . S
H1748 C1741 0.961 . S
H1749 C1741 0.960 . S
H1750 C1742 0.930 . S
H1751 C1743 0.929 . S
H1752 C1760 0.929 . S
H1753 C1762 0.930 . S
H1754 C1764 0.930 . S
H1755 C1767 0.929 . S
H1756 C1770 0.930 . S
H1757 C1772 0.974 . S
H1758 C1772 0.962 . S
H1759 C1772 0.944 1_545 S
C1760 H1752 0.929 . S
C1760 C1761 1.377 . S
C1760 C1762 1.384 . S
C1761 C1760 1.377 . S
C1761 C1767 1.390 . S
C1762 H1753 0.930 . S
C1762 C1760 1.384 . S
C1762 C1763 1.372 . S
C1763 C1762 1.372 . S
C1763 C1764 1.400 . S
C1763 C1768 1.490 . S
C1764 H1754 0.930 . S
C1764 C1763 1.400 . S
C1764 C1767 1.386 . S
H1765 C1781 0.930 . S
H1766 C1782 0.931 . S
C1767 H1755 0.929 . S
C1767 C1761 1.390 . S
C1767 C1764 1.386 . S
C1768 C1763 1.490 . S
C1768 C1770 1.395 . S
C1768 C1771 1.425 . S
H1769 C1775 0.930 . S
C1770 H1756 0.930 . S
C1770 C1768 1.395 . S
C1770 C1773 1.387 1_545 S
C1771 C1768 1.425 . S
C1771 C1772 1.522 1_545 S
C1771 C1775 1.378 1_545 S
C1772 H1757 0.974 . S
C1772 H1758 0.962 . S
C1772 H1759 0.944 1_565 S
C1772 C1771 1.522 1_565 S
C1773 C1770 1.387 1_565 S
C1773 C1774 1.408 . S
C1773 C1777 1.495 . S
C1774 C1773 1.408 . S
C1774 C1775 1.385 . S
C1774 C1776 1.478 . S
C1775 H1769 0.930 . S
C1775 C1771 1.378 1_565 S
C1775 C1774 1.385 . S
C1776 C1774 1.478 . S
C1776 C1778 1.381 . S
C1776 C1782 1.383 . S
C1777 C1773 1.495 . S
C1777 H1783 0.952 1_565 S
C1777 H1784 0.960 1_565 S
C1777 H1785 0.968 . S
C1778 C1776 1.381 . S
C1778 C1779 1.394 . S
C1778 H1786 0.930 . S
C1779 C1778 1.394 . S
C1779 C1780 1.383 . S
C1779 H1787 0.929 . S
C1780 C1779 1.383 . S
C1780 C1781 1.377 . S
C1781 H1765 0.930 . S
C1781 C1780 1.377 . S
C1781 C1782 1.379 . S
C1782 H1766 0.931 . S
C1782 C1776 1.383 . S
C1782 C1781 1.379 . S
H1783 C1777 0.952 1_545 S
H1784 C1777 0.960 1_545 S
H1785 C1777 0.968 . S
H1786 C1778 0.930 . S
H1787 C1779 0.929 . S
H1788 C1796 0.929 . S
H1789 C1798 0.930 . S
H1790 C1800 0.930 . S
H1791 C1803 0.929 . S
H1792 C1806 0.930 . S
H1793 C1808 0.960 . S
H1794 C1808 0.960 . S
H1795 C1808 0.960 . S
C1796 H1788 0.929 . S
C1796 C1797 1.377 . S
C1796 C1798 1.384 . S
C1797 C1796 1.377 . S
C1797 C1803 1.390 . S
C1798 H1789 0.930 . S
C1798 C1796 1.384 . S
C1798 C1799 1.372 . S
C1799 C1798 1.372 . S
C1799 C1800 1.400 . S
C1799 C1804 1.490 . S
C1800 H1790 0.930 . S
C1800 C1799 1.400 . S
C1800 C1803 1.386 . S
H1801 C1817 0.930 . S
H1802 C1818 0.931 . S
C1803 H1791 0.929 . S
C1803 C1797 1.390 . S
C1803 C1800 1.386 . S
C1804 C1799 1.490 . S
C1804 C1806 1.395 . S
C1804 C1807 1.403 1_655 S
H1805 C1811 0.930 . S
C1806 H1792 0.930 . S
C1806 C1804 1.395 . S
C1806 C1809 1.403 . S
C1807 C1804 1.403 1_455 S
C1807 C1808 1.524 . S
C1807 C1811 1.400 . S
C1808 H1793 0.960 . S
C1808 H1794 0.960 . S
C1808 H1795 0.960 . S
C1808 C1807 1.524 . S
C1809 C1806 1.403 . S
C1809 C1810 1.392 1_655 S
C1809 C1813 1.495 . S
C1810 C1809 1.392 1_455 S
C1810 C1811 1.385 . S
C1810 C1812 1.478 . S
C1811 H1805 0.930 . S
C1811 C1807 1.400 . S
C1811 C1810 1.385 . S
C1812 C1810 1.478 . S
C1812 C1814 1.381 . S
C1812 C1818 1.383 . S
C1813 C1809 1.495 . S
C1813 H1819 0.959 . S
C1813 H1820 0.961 . S
C1813 H1821 0.960 . S
C1814 C1812 1.381 . S
C1814 C1815 1.394 . S
C1814 H1822 0.930 . S
C1815 C1814 1.394 . S
C1815 C1816 1.383 . S
C1815 H1823 0.929 . S
C1816 C1815 1.383 . S
C1816 C1817 1.377 . S
C1817 H1801 0.930 . S
C1817 C1816 1.377 . S
C1817 C1818 1.379 . S
C1818 H1802 0.931 . S
C1818 C1812 1.383 . S
C1818 C1817 1.379 . S
H1819 C1813 0.959 . S
H1820 C1813 0.961 . S
H1821 C1813 0.960 . S
H1822 C1814 0.930 . S
H1823 C1815 0.929 . S
H1824 C1832 0.929 . S
H1825 C1834 0.930 . S
H1826 C1836 0.930 . S
H1827 C1839 0.929 . S
H1828 C1842 0.932 . S
H1829 C1844 0.960 . S
H1830 C1844 0.960 . S
H1831 C1844 0.960 . S
C1832 H1824 0.929 . S
C1832 C1833 1.377 . S
C1832 C1834 1.384 . S
C1833 C1832 1.377 . S
C1833 C1839 1.390 . S
C1834 H1825 0.930 . S
C1834 C1832 1.384 . S
C1834 C1835 1.372 . S
C1835 C1834 1.372 . S
C1835 C1836 1.400 . S
C1835 C1840 1.490 . S
C1836 H1826 0.930 . S
C1836 C1835 1.400 . S
C1836 C1839 1.386 . S
H1837 C1853 0.930 . S
H1838 C1854 0.931 . S
C1839 H1827 0.929 . S
C1839 C1833 1.390 . S
C1839 C1836 1.386 . S
C1840 C1835 1.490 . S
C1840 C1842 1.395 1_565 S
C1840 C1843 1.403 . S
H1841 C1847 0.930 . S
C1842 H1828 0.932 . S
C1842 C1840 1.395 1_545 S
C1842 C1845 1.403 . S
C1843 C1840 1.403 . S
C1843 C1844 1.524 . S
C1843 C1847 1.400 1_565 S
C1844 H1829 0.960 . S
C1844 H1830 0.960 . S
C1844 H1831 0.960 . S
C1844 C1843 1.524 . S
C1845 C1842 1.403 . S
C1845 C1846 1.392 . S
C1845 C1849 1.495 . S
C1846 C1845 1.392 . S
C1846 C1847 1.385 . S
C1846 C1848 1.478 . S
C1847 H1841 0.930 . S
C1847 C1843 1.400 1_545 S
C1847 C1846 1.385 . S
C1848 C1846 1.478 . S
C1848 C1850 1.381 . S
C1848 C1854 1.383 . S
C1849 C1845 1.495 . S
C1849 H1855 0.959 . S
C1849 H1856 0.961 . S
C1849 H1857 0.960 . S
C1850 C1848 1.381 . S
C1850 C1851 1.394 . S
C1850 H1858 0.930 . S
C1851 C1850 1.394 . S
C1851 C1852 1.383 . S
C1851 H1859 0.929 . S
C1852 C1851 1.383 . S
C1852 C1853 1.377 . S
C1853 H1837 0.930 . S
C1853 C1852 1.377 . S
C1853 C1854 1.379 . S
C1854 H1838 0.931 . S
C1854 C1848 1.383 . S
C1854 C1853 1.379 . S
H1855 C1849 0.959 . S
H1856 C1849 0.961 . S
H1857 C1849 0.960 . S
H1858 C1850 0.930 . S
H1859 C1851 0.929 . S
H1860 C1868 0.929 . S
H1861 C1870 0.930 . S
H1862 C1872 0.930 . S
H1863 C1875 0.929 . S
H1864 C1878 0.930 . S
H1865 C1880 0.960 . S
H1866 C1880 0.960 . S
H1867 C1880 0.960 1_455 S
C1868 H1860 0.929 . S
C1868 C1869 1.377 . S
C1868 C1870 1.384 . S
C1869 C1868 1.377 . S
C1869 C1875 1.390 . S
C1870 H1861 0.930 . S
C1870 C1868 1.384 . S
C1870 C1871 1.372 . S
C1871 C1870 1.372 . S
C1871 C1872 1.400 . S
C1871 C1876 1.490 . S
C1872 H1862 0.930 . S
C1872 C1871 1.400 . S
C1872 C1875 1.386 . S
H1873 C1889 0.930 . S
H1874 C1890 0.931 . S
C1875 H1863 0.929 . S
C1875 C1869 1.390 . S
C1875 C1872 1.386 . S
C1876 C1871 1.490 . S
C1876 C1878 1.395 . S
C1876 C1879 1.404 1_455 S
H1877 C1883 0.930 . S
C1878 H1864 0.930 . S
C1878 C1876 1.395 . S
C1878 C1881 1.403 . S
C1879 C1876 1.404 1_655 S
C1879 C1880 1.524 . S
C1879 C1883 1.399 . S
C1880 H1865 0.960 . S
C1880 H1866 0.960 . S
C1880 H1867 0.960 1_655 S
C1880 C1879 1.524 . S
C1881 C1878 1.403 . S
C1881 C1882 1.392 1_455 S
C1881 C1885 1.495 . S
C1882 C1881 1.392 1_655 S
C1882 C1883 1.385 . S
C1882 C1884 1.478 . S
C1883 H1877 0.930 . S
C1883 C1879 1.399 . S
C1883 C1882 1.385 . S
C1884 C1882 1.478 . S
C1884 C1886 1.381 . S
C1884 C1890 1.383 . S
C1885 C1881 1.495 . S
C1885 H1891 0.959 . S
C1885 H1892 0.961 . S
C1885 H1893 0.960 1_455 S
C1886 C1884 1.381 . S
C1886 C1887 1.394 . S
C1886 H1894 0.930 . S
C1887 C1886 1.394 . S
C1887 C1888 1.383 . S
C1887 H1895 0.929 . S
C1888 C1887 1.383 . S
C1888 C1889 1.377 . S
C1889 H1873 0.930 . S
C1889 C1888 1.377 . S
C1889 C1890 1.379 . S
C1890 H1874 0.931 . S
C1890 C1884 1.383 . S
C1890 C1889 1.379 . S
H1891 C1885 0.959 . S
H1892 C1885 0.961 . S
H1893 C1885 0.960 1_655 S
H1894 C1886 0.930 . S
H1895 C1887 0.929 . S
H1896 C1904 0.929 . S
H1897 C1906 0.930 . S
H1898 C1908 0.930 . S
H1899 C1911 0.929 . S
H1900 C1914 0.930 . S
H1901 C1916 0.960 . S
H1902 C1916 0.960 . S
H1903 C1916 0.960 . S
C1904 H1896 0.929 . S
C1904 C1905 1.377 . S
C1904 C1906 1.384 . S
C1905 C1904 1.377 . S
C1905 C1911 1.390 . S
C1906 H1897 0.930 . S
C1906 C1904 1.384 . S
C1906 C1907 1.372 . S
C1907 C1906 1.372 . S
C1907 C1908 1.400 . S
C1907 C1912 1.490 . S
C1908 H1898 0.930 . S
C1908 C1907 1.400 . S
C1908 C1911 1.386 . S
H1909 C1925 0.930 . S
H1910 C1926 0.931 . S
C1911 H1899 0.929 . S
C1911 C1905 1.390 . S
C1911 C1908 1.386 . S
C1912 C1907 1.490 . S
C1912 C1914 1.395 1_565 S
C1912 C1915 1.403 . S
H1913 C1919 0.930 . S
C1914 H1900 0.930 . S
C1914 C1912 1.395 1_545 S
C1914 C1917 1.403 . S
C1915 C1912 1.403 . S
C1915 C1916 1.524 . S
C1915 C1919 1.400 1_565 S
C1916 H1901 0.960 . S
C1916 H1902 0.960 . S
C1916 H1903 0.960 . S
C1916 C1915 1.524 . S
C1917 C1914 1.403 . S
C1917 C1918 1.392 . S
C1917 C1921 1.495 . S
C1918 C1917 1.392 . S
C1918 C1919 1.385 . S
C1918 C1920 1.478 . S
C1919 H1913 0.930 . S
C1919 C1915 1.400 1_545 S
C1919 C1918 1.385 . S
C1920 C1918 1.478 . S
C1920 C1922 1.381 . S
C1920 C1926 1.383 . S
C1921 C1917 1.495 . S
C1921 H1927 0.959 . S
C1921 H1928 0.961 . S
C1921 H1929 0.960 . S
C1922 C1920 1.381 . S
C1922 C1923 1.394 . S
C1922 H1930 0.930 . S
C1923 C1922 1.394 . S
C1923 C1924 1.383 . S
C1923 H1931 0.929 . S
C1924 C1923 1.383 . S
C1924 C1925 1.377 . S
C1925 H1909 0.930 . S
C1925 C1924 1.377 . S
C1925 C1926 1.379 . S
C1926 H1910 0.931 . S
C1926 C1920 1.383 . S
C1926 C1925 1.379 . S
H1927 C1921 0.959 . S
H1928 C1921 0.961 . S
H1929 C1921 0.960 . S
H1930 C1922 0.930 . S
H1931 C1923 0.929 . S
H1932 C1940 0.929 . S
H1933 C1942 0.930 . S
H1934 C1944 0.930 . S
H1935 C1947 0.929 . S
H1936 C1950 0.930 . S
H1937 C1952 0.960 . S
H1938 C1952 0.960 . S
H1939 C1952 0.960 . S
C1940 H1932 0.929 . S
C1940 C1941 1.377 . S
C1940 C1942 1.384 . S
C1941 C1940 1.377 . S
C1941 C1947 1.390 . S
C1942 H1933 0.930 . S
C1942 C1940 1.384 . S
C1942 C1943 1.372 . S
C1943 C1942 1.372 . S
C1943 C1944 1.400 . S
C1943 C1948 1.490 . S
C1944 H1934 0.930 . S
C1944 C1943 1.400 . S
C1944 C1947 1.386 . S
H1945 C1961 0.930 . S
H1946 C1962 0.931 . S
C1947 H1935 0.929 . S
C1947 C1941 1.390 . S
C1947 C1944 1.386 . S
C1948 C1943 1.490 . S
C1948 C1950 1.395 1_655 S
C1948 C1951 1.403 . S
H1949 C1955 0.931 . S
C1950 H1936 0.930 . S
C1950 C1948 1.395 1_455 S
C1950 C1953 1.403 . S
C1951 C1948 1.403 . S
C1951 C1952 1.524 . S
C1951 C1955 1.400 1_655 S
C1952 H1937 0.960 . S
C1952 H1938 0.960 . S
C1952 H1939 0.960 . S
C1952 C1951 1.524 . S
C1953 C1950 1.403 . S
C1953 C1954 1.392 . S
C1953 C1957 1.495 . S
C1954 C1953 1.392 . S
C1954 C1955 1.385 . S
C1954 C1956 1.478 . S
C1955 H1949 0.931 . S
C1955 C1951 1.400 1_455 S
C1955 C1954 1.385 . S
C1956 C1954 1.478 . S
C1956 C1958 1.381 . S
C1956 C1962 1.383 . S
C1957 C1953 1.495 . S
C1957 H1963 0.959 . S
C1957 H1964 0.961 . S
C1957 H1965 0.960 . S
C1958 C1956 1.381 . S
C1958 C1959 1.394 . S
C1958 H1966 0.930 . S
C1959 C1958 1.394 . S
C1959 C1960 1.383 . S
C1959 H1967 0.929 . S
C1960 C1959 1.383 . S
C1960 C1961 1.377 . S
C1961 H1945 0.930 . S
C1961 C1960 1.377 . S
C1961 C1962 1.379 . S
C1962 H1946 0.931 . S
C1962 C1956 1.383 . S
C1962 C1961 1.379 . S
H1963 C1957 0.959 . S
H1964 C1957 0.961 . S
H1965 C1957 0.960 . S
H1966 C1958 0.930 . S
H1967 C1959 0.929 . S
C537 N79 0.705 . S
C556 N13 0.751 . S
C573 N46 0.735 . S
C592 N112 0.703 . S
C609 N211 0.734 . S
C628 N145 0.714 . S
C645 N244 0.735 . S
C664 N178 0.687 . S
C681 N277 0.735 . S
C700 N343 0.675 . S
C717 N310 0.711 . S
C736 N376 0.701 . S
C753 N409 0.706 . S
C772 N475 0.777 . S
C789 N508 0.709 . S
C808 N442 0.713 . S
C825 N2 1.799 . S
C844 N167 1.785 . S
C861 N200 1.798 . S
C880 N35 1.790 . S
C897 N233 1.798 . S
C916 N68 1.788 . S
C933 N134 1.797 . S
C952 N101 1.791 . S
C969 N431 1.795 . S
C988 N266 1.802 . S
C1005 N464 1.795 . S
C1024 N299 1.802 . S
C1041 N497 1.797 . S
C1060 N332 1.791 . S
C1077 N398 1.796 . S
C1096 N365 1.795 . S
C1113 C18 1.071 . S
C1132 C348 1.054 . S
C1149 C381 1.069 . S
C1168 C51 1.076 . S
C1185 C282 1.069 . S
C1204 C84 1.066 . S
C1221 C315 1.077 . S
C1240 C117 1.072 . S
C1257 C150 1.077 . S
C1276 C480 1.067 . S
C1293 C183 1.069 . S
C1312 C513 1.069 . S
C1329 C216 1.072 . S
C1348 C414 1.088 . S
C1365 C249 1.069 . S
C1384 C447 1.072 . S
C1401 C139 0.657 . S
C1420 C7 0.584 . S
C1437 C40 0.658 . S
C1456 C172 0.585 . S
C1473 C205 0.637 . S
C1492 C73 0.672 . S
C1509 C238 0.632 . S
C1528 C106 0.702 . S
C1545 C285 0.355 . S
C1564 C417 0.335 . S
C1581 C450 0.349 . S
C1600 C318 0.383 . S
C1617 C351 0.388 . S
C1636 C483 0.309 . S
C1653 C516 0.347 . S
C1672 C384 0.417 . S
C1689 C370 0.634 . S
C1708 C436 0.702 . S
C1725 C271 0.635 . S
C1744 C469 0.700 . S
C1761 C502 0.649 . S
C1780 C304 0.617 . S
C1797 C403 0.640 . S
C1816 C337 0.660 . S
C1833 C120 0.348 . S
C1852 C186 0.437 . S
C1869 C21 0.376 . S
C1888 C219 0.440 . S
C1905 C252 0.347 . S
C1924 C54 0.428 . S
C1941 C87 0.347 . S
C1960 C153 0.406 . S
