# Generated by pormake.
# Topology fnv, (5)-cn, num edge types: 1
# Building blocks:
#     Node 0, Type 0, BuildingBlock: BEQFEK_clean_sbu_0, # of connection points: 5
#     Node 1, Type 0, BuildingBlock: BEQFEK_clean_sbu_0, # of connection points: 5
#     Node 2, Type 0, BuildingBlock: BEQFEK_clean_sbu_0, # of connection points: 5
#     Node 3, Type 0, BuildingBlock: BEQFEK_clean_sbu_0, # of connection points: 5
#     Node 4, Type 0, BuildingBlock: BEQFEK_clean_sbu_0, # of connection points: 5
#     Node 5, Type 0, BuildingBlock: BEQFEK_clean_sbu_0, # of connection points: 5
#     Edge 6, Type (0, 0), BuildingBlock: XIVTED_clean_linker_0, # of connection points: 2
#     Edge 7, Type (0, 0), BuildingBlock: XIVTED_clean_linker_0, # of connection points: 2
#     Edge 8, Type (0, 0), BuildingBlock: XIVTED_clean_linker_0, # of connection points: 2
#     Edge 9, Type (0, 0), BuildingBlock: XIVTED_clean_linker_0, # of connection points: 2
#     Edge 10, Type (0, 0), BuildingBlock: XIVTED_clean_linker_0, # of connection points: 2
#     Edge 11, Type (0, 0), BuildingBlock: XIVTED_clean_linker_0, # of connection points: 2
#     Edge 12, Type (0, 0), BuildingBlock: XIVTED_clean_linker_0, # of connection points: 2
#     Edge 13, Type (0, 0), BuildingBlock: XIVTED_clean_linker_0, # of connection points: 2
#     Edge 14, Type (0, 0), BuildingBlock: XIVTED_clean_linker_0, # of connection points: 2
#     Edge 15, Type (0, 0), BuildingBlock: XIVTED_clean_linker_0, # of connection points: 2
#     Edge 16, Type (0, 0), BuildingBlock: XIVTED_clean_linker_0, # of connection points: 2
#     Edge 17, Type (0, 0), BuildingBlock: XIVTED_clean_linker_0, # of connection points: 2
#     Edge 18, Type (0, 0), BuildingBlock: XIVTED_clean_linker_0, # of connection points: 2
#     Edge 19, Type (0, 0), BuildingBlock: XIVTED_clean_linker_0, # of connection points: 2
#     Edge 20, Type (0, 0), BuildingBlock: XIVTED_clean_linker_0, # of connection points: 2
# Relax obj value: 0.499
# Max RMSD: 0.269
# Mean RMSD: 0.269
data_MOF--net-fnv--node1-BEQFEK_clean_sbu_0--edge1-XIVTED_clean_linker_0
_symmetry_space_group_name_H-M    P1
_symmetry_Int_Tables_number       1
_symmetry_cell_setting            triclinic
loop_
_symmetry_equiv_pos_as_xyz
'x, y, z'
_cell_length_a     35.372829
_cell_length_b     34.873014
_cell_length_c     30.250199
_cell_angle_alpha  90.57146
_cell_angle_beta   89.352656
_cell_angle_gamma 120.32938
loop_
_atom_site_label
_atom_site_type_symbol
_atom_site_fract_x
_atom_site_fract_y
_atom_site_fract_z
_atom_type_partial_charge
Co0 Co 0.27152 0.39077 -0.01827 0.0
Co1 Co 0.26264 0.46464 0.03181 0.0
C2 C 0.25756 0.45929 0.93496 0.0
O3 O 0.2652 0.42727 0.93556 0.0
O4 O 0.25362 0.47677 0.97062 0.0
C5 C 0.24589 0.32106 0.91806 0.0
O6 O 0.22505 0.33902 0.89972 0.0
C7 C 0.2563 0.54043 0.06642 0.0
C8 C 0.26209 0.53308 0.13817 0.0
C9 C 0.25901 0.56028 0.10715 0.0
N10 N 0.25744 0.50299 0.07325 0.0
N11 N 0.26099 0.49889 0.11615 0.0
C12 C 0.25816 0.55914 0.02163 0.0
H13 H 0.22605 0.5388 0.00522 0.0
H14 H 0.2662 0.59424 0.02347 0.0
H15 H 0.28336 0.55723 0.00113 0.0
C16 C 0.19355 0.33317 0.03597 0.0
N17 N 0.22731 0.37336 0.02489 0.0
N18 N 0.22322 0.40436 0.04577 0.0
C19 C 0.18638 0.38484 0.07045 0.0
C20 C 0.16677 0.3392 0.06532 0.0
C21 C 0.18543 0.29007 0.01656 0.0
H22 H 0.21617 0.28888 0.01654 0.0
H23 H 0.17453 0.28755 -0.01813 0.0
H24 H 0.15976 0.26138 0.03541 0.0
O25 O 0.33057 0.42569 0.00758 0.0
O26 O 0.32428 0.4807 0.03691 0.0
H27 H 0.18126 0.41943 0.12673 0.0
H28 H 0.13092 0.38805 0.09696 0.0
C29 C 0.16696 0.4093 0.09326 0.0
H30 H 0.1745 0.43948 0.07442 0.0
H31 H 0.26403 0.4734 0.13026 0.0
O32 O 0.26756 0.33798 0.95317 0.0
C33 C 0.34709 0.463 0.02736 0.0
Co34 Co 0.84779 0.26328 0.26524 0.0
Co35 Co 0.78824 0.27132 0.33749 0.0
C36 C 0.76779 0.26556 0.24083 0.0
O37 O 0.80082 0.26212 0.22969 0.0
O38 O 0.7589 0.26833 0.28129 0.0
C39 C 0.88127 0.23797 0.18818 0.0
O40 O 0.84809 0.23401 0.16539 0.0
C41 C 0.71641 0.27018 0.38871 0.0
C42 C 0.74373 0.28264 0.45617 0.0
C43 C 0.7078 0.27617 0.43228 0.0
N44 N 0.75557 0.27267 0.38708 0.0
N45 N 0.77181 0.28037 0.42744 0.0
C46 C 0.69061 0.26713 0.34864 0.0
H47 H 0.67945 0.23474 0.33188 0.0
H48 H 0.66208 0.27098 0.3568 0.0
H49 H 0.71214 0.29384 0.32533 0.0
C50 C 0.82658 0.1841 0.31796 0.0
N51 N 0.82491 0.22133 0.31136 0.0
N52 N 0.7992 0.22398 0.34143 0.0
C53 C 0.78329 0.18826 0.36794 0.0
C54 C 0.80039 0.16202 0.35404 0.0
C55 C 0.85239 0.16983 0.28984 0.0
H56 H 0.88691 0.19725 0.2882 0.0
H57 H 0.83909 0.16279 0.2558 0.0
H58 H 0.85153 0.13989 0.30321 0.0
O59 O 0.88445 0.32535 0.28648 0.0
O60 O 0.84246 0.32926 0.33915 0.0
H61 H 0.76412 0.19625 0.43297 0.0
H62 H 0.73122 0.14106 0.41061 0.0
C63 C 0.74862 0.17696 0.40249 0.0
H64 H 0.72451 0.18594 0.39084 0.0
H65 H 0.80234 0.28457 0.43524 0.0
O66 O 0.8858 0.25016 0.22838 0.0
C67 C 0.87754 0.34705 0.31638 0.0
Co68 Co 0.59368 0.83007 0.56984 0.0
Co69 Co 0.52628 0.75672 0.63293 0.0
C70 C 0.50528 0.7557 0.53929 0.0
O71 O 0.54146 0.79171 0.53287 0.0
O72 O 0.49561 0.73644 0.57664 0.0
C73 C 0.64554 0.86935 0.49093 0.0
O74 O 0.61513 0.8346 0.46961 0.0
C75 C 0.45346 0.68211 0.67998 0.0
C76 C 0.47435 0.70216 0.74915 0.0
C77 C 0.44016 0.67113 0.72359 0.0
N78 N 0.49384 0.71819 0.67993 0.0
N79 N 0.50616 0.72979 0.72133 0.0
C80 C 0.42637 0.66299 0.63936 0.0
H81 H 0.42169 0.68884 0.62351 0.0
H82 H 0.44414 0.65329 0.61548 0.0
H83 H 0.39378 0.63387 0.64688 0.0
C84 C 0.65118 0.80021 0.60701 0.0
N85 N 0.61179 0.79684 0.60276 0.0
N86 N 0.58313 0.76466 0.62816 0.0
C87 C 0.60306 0.74543 0.64823 0.0
C88 C 0.64685 0.7675 0.63565 0.0
C89 C 0.69237 0.83534 0.58552 0.0
H90 H 0.69721 0.86857 0.59392 0.0
H91 H 0.68908 0.83123 0.54911 0.0
H92 H 0.72133 0.83341 0.596 0.0
O93 O 0.57846 0.86614 0.60854 0.0
O94 O 0.52696 0.81212 0.64897 0.0
H95 H 0.58246 0.72376 0.71444 0.0
H96 H 0.59875 0.68996 0.68398 0.0
C97 C 0.58152 0.70901 0.68154 0.0
H98 H 0.5469 0.68606 0.67248 0.0
H99 H 0.53547 0.75793 0.73054 0.0
O100 O 0.64215 0.8725 0.53244 0.0
C101 C 0.54873 0.85278 0.63808 0.0
Co102 Co 0.73754 0.63657 0.94903 0.0
Co103 Co 0.73846 0.58622 0.03334 0.0
C104 C 0.72004 0.54365 0.94371 0.0
O105 O 0.72493 0.57807 0.92428 0.0
O106 O 0.72442 0.54333 -0.01477 0.0
C107 C 0.76538 0.67196 0.86326 0.0
O108 O 0.77849 0.64282 0.86132 0.0
C109 C 0.75823 0.53 0.0857 0.0
C110 C 0.71881 0.52149 0.14584 0.0
C111 C 0.74191 0.50464 0.12375 0.0
N112 N 0.74423 0.5593 0.08491 0.0
N113 N 0.72178 0.555 0.12154 0.0
C114 C 0.7821 0.52323 0.04799 0.0
H115 H 0.78803 0.5466 0.02072 0.0
H116 H 0.81461 0.53001 0.05929 0.0
H117 H 0.76346 0.48836 0.036 0.0
C118 C 0.82545 0.70241 -0.01596 0.0
N119 N 0.78784 0.66289 -0.0145 0.0
N120 N 0.78821 0.64106 0.02055 0.0
C121 C 0.82595 0.66557 0.0423 0.0
C122 C 0.85072 0.70509 0.01982 0.0
C123 C 0.83637 0.73724 0.94988 0.0
H124 H 0.80832 0.74274 0.94594 0.0
H125 H 0.84219 0.72549 0.91771 0.0
H126 H 0.86611 0.76902 0.95891 0.0
O127 O 0.68412 0.6267 -0.01793 0.0
O128 O 0.68704 0.59227 0.04213 0.0
H129 H 0.81074 0.64388 0.10937 0.0
H130 H 0.86882 0.6784 0.09811 0.0
C131 C 0.83712 0.65194 0.08469 0.0
H132 H 0.83893 0.62146 0.07886 0.0
H133 H 0.70515 0.5721 0.12802 0.0
O134 O 0.74724 0.67543 0.89837 0.0
C135 C 0.66816 0.60785 0.01906 0.0
Co136 Co 0.10443 0.76583 0.27774 0.0
Co137 Co 0.1507 0.7415 0.35052 0.0
C138 C 0.17887 0.75346 0.25469 0.0
O139 O 0.15087 0.76371 0.24241 0.0
O140 O 0.18103 0.74418 0.29473 0.0
C141 C 0.09384 0.81164 0.20512 0.0
O142 O 0.13419 0.82233 0.19497 0.0
C143 C 0.22547 0.75044 0.39843 0.0
C144 C 0.19353 0.69562 0.4465 0.0
C145 C 0.2341 0.72714 0.42985 0.0
N146 N 0.1819 0.73298 0.3963 0.0
N147 N 0.16301 0.70081 0.42568 0.0
C148 C 0.25743 0.78582 0.36787 0.0
H149 H 0.24045 0.79471 0.34306 0.0
H150 H 0.27864 0.81642 0.38705 0.0
H151 H 0.27853 0.77481 0.35133 0.0
C152 C 0.12716 0.84019 0.34147 0.0
N153 N 0.12688 0.80289 0.32865 0.0
N154 N 0.14569 0.79194 0.35936 0.0
C155 C 0.15794 0.82123 0.39291 0.0
C156 C 0.14644 0.8527 0.3828 0.0
C157 C 0.10882 0.86286 0.31487 0.0
H158 H 0.07426 0.83871 0.30651 0.0
H159 H 0.12752 0.87468 0.28342 0.0
H160 H 0.11041 0.89143 0.33307 0.0
O161 O 0.06047 0.70283 0.29359 0.0
O162 O 0.09285 0.68845 0.3483 0.0
H163 H 0.16362 0.78733 0.44877 0.0
H164 H 0.18897 0.84676 0.45669 0.0
C165 C 0.18247 0.82015 0.43247 0.0
H166 H 0.2143 0.82432 0.42147 0.0
H167 H 0.12918 0.68058 0.42958 0.0
O168 O 0.07549 0.7884 0.23928 0.0
C169 C 0.06046 0.67671 0.32284 0.0
Co170 Co 0.38305 0.09335 0.65931 0.0
Co171 Co 0.4592 0.15183 0.7244 0.0
C172 C 0.46332 0.17691 0.63002 0.0
O173 O 0.42673 0.14234 0.62174 0.0
O174 O 0.47915 0.18497 0.66874 0.0
C175 C 0.31965 0.07922 0.59417 0.0
O176 O 0.34397 0.12243 0.58925 0.0
C177 C 0.52282 0.23133 0.77158 0.0
C178 C 0.54493 0.20368 0.82405 0.0
C179 C 0.5517 0.24338 0.80671 0.0
N180 N 0.50055 0.18683 0.76827 0.0
N181 N 0.51396 0.17045 0.79959 0.0
C182 C 0.51419 0.26088 0.74305 0.0
H183 H 0.48132 0.24188 0.72784 0.0
H184 H 0.51632 0.28896 0.76269 0.0
H185 H 0.539 0.27447 0.71613 0.0
C186 C 0.33286 0.11235 0.72638 0.0
N187 N 0.37008 0.1149 0.71155 0.0
N188 N 0.40183 0.13878 0.73948 0.0
C189 C 0.38576 0.15195 0.77318 0.0
C190 C 0.3415 0.13579 0.76582 0.0
C191 C 0.29008 0.08892 0.70261 0.0
H192 H 0.28341 0.0557 0.69146 0.0
H193 H 0.29202 0.10839 0.67303 0.0
H194 H 0.26272 0.08495 0.72412 0.0
O195 O 0.40638 0.05365 0.67352 0.0
O196 O 0.462 0.09715 0.71739 0.0
H197 H 0.43463 0.17155 0.8232 0.0
H198 H 0.39367 0.18633 0.83585 0.0
C199 C 0.41346 0.1832 0.80901 0.0
H200 H 0.43478 0.21657 0.79473 0.0
H201 H 0.50209 0.13661 0.80413 0.0
O202 O 0.33001 0.0599 0.62302 0.0
C203 C 0.43923 0.06073 0.69665 0.0
H204 H 0.6168 0.55005 0.08325 0.0
H205 H 0.39977 0.55287 0.02789 0.0
H206 H 0.61655 0.63817 -0.01608 0.0
H207 H 0.40206 0.43131 0.04491 0.0
H208 H 0.47982 0.59512 0.03437 0.0
H209 H 0.53813 0.51839 0.09312 0.0
C210 C 0.60052 0.56359 0.06422 0.0
C211 C 0.62327 0.59641 0.03206 0.0
C212 C 0.46255 0.55926 0.03724 0.0
C213 C 0.53338 0.56035 0.04381 0.0
C214 C 0.41707 0.53515 0.03377 0.0
C215 C 0.39449 0.48854 0.03568 0.0
C216 C 0.48525 0.53659 0.04387 0.0
C217 C 0.41838 0.46717 0.04296 0.0
C218 C 0.55559 0.54521 0.0698 0.0
C219 C 0.60023 0.61259 0.00865 0.0
N220 N 0.46262 0.49145 0.04694 0.0
N221 N 0.55628 0.59412 0.01477 0.0
H222 H 0.01299 0.62494 0.25322 0.0
H223 H 0.89023 0.39944 0.38884 0.0
H224 H 0.03117 0.62111 0.39358 0.0
H225 H 0.9302 0.40474 0.25264 0.0
H226 H 0.93067 0.48085 0.39142 0.0
H227 H 0.96808 0.54359 0.25255 0.0
C228 C 0.00653 0.60706 0.28405 0.0
C229 C 0.02575 0.62961 0.32352 0.0
C230 C 0.9308 0.46408 0.36113 0.0
C231 C 0.97518 0.5371 0.32285 0.0
C232 C 0.90801 0.41776 0.35969 0.0
C233 C 0.90722 0.39541 0.32057 0.0
C234 C 0.95197 0.48809 0.32289 0.0
C235 C 0.93047 0.42068 0.28362 0.0
C236 C 0.98152 0.56073 0.28352 0.0
C237 C 0.01696 0.60485 0.36246 0.0
N238 N 0.95152 0.46576 0.28552 0.0
N239 N -0.00767 0.55984 0.36116 0.0
H240 H 0.5964 0.94383 0.64081 0.0
H241 H 0.39148 0.97178 0.67685 0.0
H242 H 0.47008 0.8319 0.67522 0.0
H243 H 0.52079 0.07538 0.71487 0.0
H244 H 0.41919 0.92013 0.6701 0.0
H245 H 0.56952 0.99388 0.66233 0.0
C246 C 0.56325 0.92984 0.65338 0.0
C247 C 0.53542 0.8837 0.65616 0.0
C248 C 0.44126 0.95408 0.68044 0.0
C249 C 0.50434 0.94047 0.67976 0.0
C250 C 0.42554 0.98352 0.68413 0.0
C251 C 0.45389 0.02789 0.69635 0.0
C252 C 0.48578 0.96948 0.68797 0.0
C253 C 0.49775 0.0414 0.70549 0.0
C254 C 0.54798 0.95835 0.66569 0.0
C255 C 0.49271 0.86729 0.67267 0.0
N256 N 0.51254 0.01247 0.70046 0.0
N257 N 0.47822 0.89564 0.68317 0.0
H258 H 0.16083 0.73261 0.16694 0.0
H259 H 0.31052 0.62345 0.16652 0.0
H260 H 0.25488 0.75341 0.26763 0.0
H261 H 0.20772 0.59064 0.07248 0.0
H262 H 0.30388 0.68639 0.1921 0.0
H263 H 0.19178 0.69751 0.12004 0.0
C264 C 0.18886 0.73106 0.17863 0.0
C265 C 0.20468 0.74491 0.22162 0.0
C266 C 0.28329 0.66601 0.16528 0.0
C267 C 0.23969 0.70441 0.16861 0.0
C268 C 0.28703 0.63005 0.15078 0.0
C269 C 0.25957 0.60193 0.11748 0.0
C270 C 0.25115 0.67331 0.14699 0.0
C271 C 0.22981 0.6119 0.09796 0.0
C272 C 0.20629 0.71072 0.15199 0.0
C273 C 0.24109 0.74224 0.23506 0.0
N274 N 0.22589 0.64645 0.1135 0.0
N275 N 0.25686 0.7216 0.20896 0.0
H276 H 0.45179 0.159 0.54113 0.0
H277 H 0.70398 0.32855 0.49705 0.0
H278 H 0.53903 0.25733 0.63491 0.0
H279 H 0.62214 0.21684 0.41302 0.0
H280 H 0.63874 0.31656 0.53763 0.0
H281 H 0.50792 0.1946 0.48383 0.0
C282 C 0.48229 0.18872 0.54947 0.0
C283 C 0.49129 0.20445 0.5932 0.0
C284 C 0.63492 0.2953 0.50965 0.0
C285 C 0.55562 0.24493 0.52798 0.0
C286 C 0.6721 0.30209 0.4866 0.0
C287 C 0.66828 0.27377 0.45161 0.0
C288 C 0.59375 0.25938 0.49809 0.0
C289 C 0.62639 0.23995 0.43928 0.0
C290 C 0.5144 0.2089 0.51676 0.0
C291 C 0.53113 0.2434 0.6019 0.0
N292 N 0.59073 0.23331 0.46292 0.0
N293 N 0.56217 0.26182 0.56977 0.0
H294 H 0.3949 0.58258 0.70281 0.0
H295 H 0.25121 0.53334 0.92022 0.0
H296 H 0.39022 0.68151 0.78548 0.0
H297 H 0.27365 0.43683 0.85267 0.0
H298 H 0.28049 0.58172 0.85611 0.0
H299 H 0.33129 0.5245 0.74291 0.0
C300 C 0.37961 0.59204 0.72856 0.0
C301 C 0.3977 0.6366 0.74125 0.0
C302 C 0.27813 0.54953 0.85495 0.0
C303 C 0.32583 0.57087 0.7874 0.0
C304 C 0.26128 0.52178 0.89155 0.0
C305 C 0.2616 0.48172 0.89252 0.0
C306 C 0.29562 0.5372 0.81933 0.0
C307 C 0.27402 0.46805 0.8539 0.0
C308 C 0.34352 0.55899 0.75152 0.0
C309 C 0.37735 0.64733 0.77518 0.0
N310 N 0.29159 0.49626 0.81923 0.0
N311 N 0.34277 0.61465 0.79743 0.0
H312 H 0.79777 0.29569 0.15733 0.0
H313 H 0.67227 0.4312 0.15938 0.0
H314 H 0.69171 0.26828 0.24756 0.0
H315 H 0.80387 0.47975 0.11079 0.0
H316 H 0.66592 0.35926 0.17392 0.0
H317 H 0.78297 0.34718 0.11784 0.0
C318 C 0.7703 0.29917 0.16798 0.0
C319 C 0.74718 0.27922 0.20708 0.0
C320 C 0.69583 0.38553 0.15929 0.0
C321 C 0.73073 0.33852 0.16243 0.0
C322 C 0.69974 0.42672 0.15145 0.0
C323 C 0.73854 0.46152 0.13326 0.0
C324 C 0.73094 0.37911 0.14881 0.0
C325 C 0.77288 0.45371 0.12337 0.0
C326 C 0.76227 0.32904 0.14566 0.0
C327 C 0.71145 0.2844 0.21861 0.0
N328 N 0.7683 0.41336 0.13139 0.0
N329 N 0.70501 0.31457 0.19708 0.0
H330 H 0.31732 0.80023 0.43319 0.0
H331 H 0.42742 0.67688 0.5355 0.0
H332 H 0.24609 0.6577 0.44805 0.0
H333 H 0.50154 0.80357 0.47025 0.0
H334 H 0.36129 0.66583 0.49933 0.0
H335 H 0.3854 0.80078 0.44466 0.0
C336 C 0.31594 0.76889 0.43768 0.0
C337 C 0.27592 0.72874 0.43842 0.0
C338 C 0.39223 0.69553 0.49209 0.0
C339 C 0.35392 0.72931 0.45345 0.0
C340 C 0.43004 0.7018 0.5126 0.0
C341 C 0.46983 0.74176 0.50684 0.0
C342 C 0.3943 0.72976 0.46627 0.0
C343 C 0.47145 0.77257 0.47626 0.0
C344 C 0.35495 0.76925 0.44456 0.0
C345 C 0.27627 0.68945 0.44718 0.0
N346 N 0.43394 0.76646 0.458 0.0
N347 N 0.31467 0.69072 0.45468 0.0
H348 H 0.57737 0.26525 0.89193 0.0
H349 H 0.69824 0.52625 0.85567 0.0
H350 H 0.59783 0.32329 0.76222 0.0
H351 H 0.70595 0.46471 0.97585 0.0
H352 H 0.66265 0.45315 0.81955 0.0
H353 H 0.62539 0.33892 0.92267 0.0
C354 C 0.59187 0.29349 0.86986 0.0
C355 C 0.58223 0.28814 0.82463 0.0
C356 C 0.67272 0.4559 0.85366 0.0
C357 C 0.63738 0.37278 0.85961 0.0
C358 C 0.69308 0.49759 0.87426 0.0
C359 C 0.70466 0.5016 0.91902 0.0
C360 C 0.66366 0.41813 0.87817 0.0
C361 C 0.69728 0.46331 0.94144 0.0
C362 C 0.61936 0.33559 0.88743 0.0
C363 C 0.60245 0.32592 0.79756 0.0
N364 N 0.67683 0.42321 0.92094 0.0
N365 N 0.62872 0.36677 0.81555 0.0
H366 H 0.31819 0.12656 0.85305 0.0
H367 H 0.222 0.28951 0.83368 0.0
H368 H 0.30183 0.17728 0.72984 0.0
H369 H 0.27154 0.26659 0.95429 0.0
H370 H 0.23269 0.23287 0.79676 0.0
H371 H 0.28249 0.16205 0.89186 0.0
C372 C 0.30644 0.14468 0.83424 0.0
C373 C 0.31351 0.14991 0.78855 0.0
C374 C 0.24068 0.23991 0.83145 0.0
C375 C 0.27276 0.19013 0.83216 0.0
C376 C 0.23453 0.27213 0.85254 0.0
C377 C 0.24672 0.2833 0.89683 0.0
C378 C 0.25884 0.21863 0.855 0.0
C379 C 0.26251 0.25956 0.91983 0.0
C380 C 0.28612 0.16483 0.85625 0.0
C381 C 0.29709 0.17282 0.76525 0.0
N382 N 0.2685 0.22861 0.89852 0.0
N383 N 0.27791 0.19264 0.78741 0.0
H384 H 0.94186 0.22472 0.22866 0.0
H385 H 0.09444 0.29113 0.0149 0.0
H386 H 0.90067 0.24036 0.09961 0.0
H387 H 0.13955 0.31451 0.14947 0.0
H388 H 0.01843 0.24861 0.04206 0.0
H389 H 0.00818 0.23198 0.19578 0.0
C390 C 0.94644 0.229 0.19323 0.0
C391 C 0.91633 0.23318 0.16693 0.0
C392 C 0.04504 0.2621 0.06553 0.0
C393 C -0.00753 0.24201 0.12925 0.0
C394 C 0.08817 0.28605 0.05011 0.0
C395 C 0.12266 0.30615 0.08028 0.0
C396 C 0.03691 0.25831 0.11127 0.0
C397 C 0.11348 0.29939 0.12546 0.0
C398 C 0.98434 0.23312 0.17451 0.0
C399 C 0.92348 0.23769 0.12112 0.0
N400 N 0.07133 0.27629 0.13968 0.0
N401 N 0.96143 0.24295 0.10372 0.0
H402 H 0.76523 0.08467 0.30714 0.0
H403 H 0.71818 0.94052 0.5253 0.0
H404 H 0.80739 0.13922 0.43773 0.0
H405 H 0.65087 0.88663 0.40205 0.0
H406 H 0.76625 0.01072 0.48848 0.0
H407 H 0.73758 0.00984 0.33683 0.0
C408 C 0.76931 0.08076 0.34194 0.0
C409 C 0.78827 0.11767 0.3703 0.0
C410 C 0.74134 0.98338 0.46933 0.0
C411 C 0.75681 0.03292 0.40432 0.0
C412 C 0.71391 0.94326 0.49029 0.0
C413 C 0.67982 0.90809 0.46688 0.0
C414 C 0.73451 0.98844 0.42471 0.0
C415 C 0.67638 0.91315 0.42143 0.0
C416 C 0.75348 0.03823 0.35884 0.0
C417 C 0.79262 0.11128 0.41507 0.0
N418 N 0.70297 0.95298 0.4019 0.0
N419 N 0.77671 0.06958 0.43083 0.0
H420 H 0.70718 0.82696 0.69206 0.0
H421 H 0.76904 0.65016 0.77695 0.0
H422 H 0.66421 0.70001 0.62989 0.0
H423 H 0.76345 0.74894 0.85937 0.0
H424 H 0.75607 0.6833 0.71201 0.0
H425 H 0.75357 0.81337 0.74161 0.0
C426 C 0.70868 0.79684 0.68812 0.0
C427 C 0.68188 0.76424 0.65755 0.0
C428 C 0.75864 0.6982 0.74425 0.0
C429 C 0.73395 0.74834 0.71377 0.0
C430 C 0.76613 0.67944 0.78123 0.0
C431 C 0.76631 0.69636 0.82353 0.0
C432 C 0.75188 0.7343 0.74981 0.0
C433 C 0.76258 0.7344 0.82733 0.0
C434 C 0.73484 0.789 0.71638 0.0
C435 C 0.68441 0.72563 0.65349 0.0
N436 N 0.75502 0.75184 0.79092 0.0
N437 N 0.70962 0.71837 0.68183 0.0
H438 H 0.86575 0.77546 0.07113 0.0
H439 H 0.02123 0.81724 0.22279 0.0
H440 H 0.93076 0.71639 0.00169 0.0
H441 H 0.10499 0.82202 0.11565 0.0
H442 H 0.96768 0.81126 0.16928 0.0
H443 H 0.93376 0.82394 0.11111 0.0
C444 C 0.8949 0.77381 0.06351 0.0
C445 C 0.89317 0.7421 0.03366 0.0
C446 C -0.00158 0.81539 0.15718 0.0
C447 C 0.96971 0.79526 0.08014 0.0
C448 C 0.02883 0.81833 0.18786 0.0
C449 C 0.06708 0.8193 0.17352 0.0
C450 C 0.00608 0.81257 0.11189 0.0
C451 C 0.07563 0.82097 0.12799 0.0
C452 C 0.9334 0.80092 0.08661 0.0
C453 C 0.93124 0.7406 0.02474 0.0
N454 N 0.04469 0.8162 0.09871 0.0
N455 N 0.96798 0.76641 0.04846 0.0
H456 H 0.19961 0.93891 0.35923 0.0
H457 H 0.30149 0.10492 0.51562 0.0
H458 H 0.11892 0.85633 0.46594 0.0
H459 H 0.25463 0.99296 0.60353 0.0
H460 H 0.2474 0.05672 0.46096 0.0
H461 H 0.23304 0.00233 0.4099 0.0
C462 C 0.18781 0.93475 0.39305 0.0
C463 C 0.15709 0.89265 0.4089 0.0
C464 C 0.24893 0.04274 0.49219 0.0
C465 C 0.19493 0.96446 0.46711 0.0
C466 C 0.27954 0.0703 0.52358 0.0
C467 C 0.28325 0.05257 0.56367 0.0
C468 C 0.22201 0.99726 0.50119 0.0
C469 C 0.25357 0.00774 0.57259 0.0
C470 C 0.20681 0.97093 0.42207 0.0
C471 C 0.14296 0.88845 0.45288 0.0
N472 N 0.22448 0.98155 0.54141 0.0
N473 N 0.16277 0.92372 0.4808 0.0
loop_
_geom_bond_atom_site_label_1
_geom_bond_atom_site_label_2
_geom_bond_distance
_geom_bond_site_symmetry_2
_ccdc_geom_bond_type
Co0 O3 1.970 . S
Co0 N17 1.989 1_556 S
Co0 O25 1.970 . S
Co0 O32 1.920 . S
Co1 O4 1.966 1_554 S
Co1 N10 2.022 . S
Co1 N18 1.993 . S
Co1 O26 1.941 . S
C2 O3 1.258 . S
C2 O4 1.263 . S
O3 Co0 1.970 . S
O3 C2 1.258 . S
O4 Co1 1.966 1_556 S
O4 C2 1.263 . S
C5 O6 1.235 . S
C5 O32 1.289 . S
O6 C5 1.235 . S
C7 C9 1.400 . S
C7 N10 1.351 . S
C7 C12 1.501 . S
C8 C9 1.387 . S
C8 N11 1.341 . S
C9 C7 1.400 . S
C9 C8 1.387 . S
N10 Co1 2.022 . S
N10 C7 1.351 . S
N10 N11 1.365 . S
N11 C8 1.341 . S
N11 N10 1.365 . S
N11 H31 0.862 . S
C12 C7 1.501 . S
C12 H13 0.961 . S
C12 H14 0.961 . S
C12 H15 0.960 . S
H13 C12 0.961 . S
H14 C12 0.961 . S
H15 C12 0.960 . S
C16 N17 1.342 . S
C16 C20 1.401 . S
C16 C21 1.500 1_554 S
N17 Co0 1.989 1_554 S
N17 C16 1.342 . S
N17 N18 1.388 . S
N18 Co1 1.993 . S
N18 N17 1.388 . S
N18 C19 1.346 . S
C19 N18 1.346 . S
C19 C20 1.396 . S
C19 C29 1.510 . S
C20 C16 1.401 . S
C20 C19 1.396 . S
C21 C16 1.500 1_556 S
C21 H22 0.958 . S
C21 H23 0.959 . S
C21 H24 0.962 1_556 S
H22 C21 0.958 . S
H23 C21 0.959 . S
H24 C21 0.962 1_554 S
O25 Co0 1.970 . S
O25 C33 1.253 1_556 S
O26 Co1 1.941 . S
O26 C33 1.266 . S
H27 C29 0.959 . S
H28 C29 0.961 . S
C29 C19 1.510 . S
C29 H27 0.959 . S
C29 H28 0.961 . S
C29 H30 0.960 . S
H30 C29 0.960 . S
H31 N11 0.862 . S
O32 Co0 1.920 . S
O32 C5 1.289 . S
C33 O25 1.253 1_554 S
C33 O26 1.266 . S
Co34 O37 1.970 . S
Co34 N51 1.989 . S
Co34 O59 1.967 . S
Co34 O66 1.920 . S
Co35 O38 1.966 . S
Co35 N44 2.022 . S
Co35 N52 1.993 . S
Co35 O60 1.941 . S
C36 O37 1.258 . S
C36 O38 1.263 . S
O37 Co34 1.970 . S
O37 C36 1.258 . S
O38 Co35 1.966 . S
O38 C36 1.263 . S
C39 O40 1.235 . S
C39 O66 1.289 . S
O40 C39 1.235 . S
C41 C43 1.400 . S
C41 N44 1.351 . S
C41 C46 1.501 . S
C42 C43 1.387 . S
C42 N45 1.341 . S
C43 C41 1.400 . S
C43 C42 1.387 . S
N44 Co35 2.022 . S
N44 C41 1.351 . S
N44 N45 1.365 . S
N45 C42 1.341 . S
N45 N44 1.365 . S
N45 H65 0.862 . S
C46 C41 1.501 . S
C46 H47 0.961 . S
C46 H48 0.961 . S
C46 H49 0.960 . S
H47 C46 0.961 . S
H48 C46 0.961 . S
H49 C46 0.960 . S
C50 N51 1.342 . S
C50 C54 1.401 . S
C50 C55 1.499 . S
N51 Co34 1.989 . S
N51 C50 1.342 . S
N51 N52 1.388 . S
N52 Co35 1.993 . S
N52 N51 1.388 . S
N52 C53 1.346 . S
C53 N52 1.346 . S
C53 C54 1.396 . S
C53 C63 1.510 . S
C54 C50 1.401 . S
C54 C53 1.396 . S
C55 C50 1.499 . S
C55 H56 0.959 . S
C55 H57 0.960 . S
C55 H58 0.961 . S
H56 C55 0.959 . S
H57 C55 0.960 . S
H58 C55 0.961 . S
O59 Co34 1.967 . S
O59 C67 1.258 . S
O60 Co35 1.941 . S
O60 C67 1.266 . S
H61 C63 0.959 . S
H62 C63 0.961 . S
C63 C53 1.510 . S
C63 H61 0.959 . S
C63 H62 0.961 . S
C63 H64 0.960 . S
H64 C63 0.960 . S
H65 N45 0.862 . S
O66 Co34 1.920 . S
O66 C39 1.289 . S
C67 O59 1.258 . S
C67 O60 1.266 . S
Co68 O71 1.970 . S
Co68 N85 1.989 . S
Co68 O93 1.967 . S
Co68 O100 1.920 . S
Co69 O72 1.966 . S
Co69 N78 2.022 . S
Co69 N86 1.993 . S
Co69 O94 1.941 . S
C70 O71 1.258 . S
C70 O72 1.263 . S
O71 Co68 1.970 . S
O71 C70 1.258 . S
O72 Co69 1.966 . S
O72 C70 1.263 . S
C73 O74 1.235 . S
C73 O100 1.289 . S
O74 C73 1.235 . S
C75 C77 1.400 . S
C75 N78 1.351 . S
C75 C80 1.501 . S
C76 C77 1.387 . S
C76 N79 1.341 . S
C77 C75 1.400 . S
C77 C76 1.387 . S
N78 Co69 2.022 . S
N78 C75 1.351 . S
N78 N79 1.365 . S
N79 C76 1.341 . S
N79 N78 1.365 . S
N79 H99 0.862 . S
C80 C75 1.501 . S
C80 H81 0.961 . S
C80 H82 0.961 . S
C80 H83 0.960 . S
H81 C80 0.961 . S
H82 C80 0.961 . S
H83 C80 0.960 . S
C84 N85 1.342 . S
C84 C88 1.401 . S
C84 C89 1.499 . S
N85 Co68 1.989 . S
N85 C84 1.342 . S
N85 N86 1.388 . S
N86 Co69 1.993 . S
N86 N85 1.388 . S
N86 C87 1.346 . S
C87 N86 1.346 . S
C87 C88 1.396 . S
C87 C97 1.510 . S
C88 C84 1.401 . S
C88 C87 1.396 . S
C89 C84 1.499 . S
C89 H90 0.959 . S
C89 H91 0.960 . S
C89 H92 0.961 . S
H90 C89 0.959 . S
H91 C89 0.960 . S
H92 C89 0.961 . S
O93 Co68 1.967 . S
O93 C101 1.258 . S
O94 Co69 1.941 . S
O94 C101 1.266 . S
H95 C97 0.959 . S
H96 C97 0.961 . S
C97 C87 1.510 . S
C97 H95 0.959 . S
C97 H96 0.961 . S
C97 H98 0.960 . S
H98 C97 0.960 . S
H99 N79 0.862 . S
O100 Co68 1.920 . S
O100 C73 1.289 . S
C101 O93 1.258 . S
C101 O94 1.266 . S
Co102 O105 1.970 . S
Co102 N119 1.989 1_556 S
Co102 O127 1.970 . S
Co102 O134 1.920 . S
Co103 O106 1.966 1_554 S
Co103 N112 2.022 . S
Co103 N120 1.993 . S
Co103 O128 1.941 . S
C104 O105 1.258 . S
C104 O106 1.263 . S
O105 Co102 1.970 . S
O105 C104 1.258 . S
O106 Co103 1.966 1_556 S
O106 C104 1.263 . S
C107 O108 1.235 . S
C107 O134 1.289 . S
O108 C107 1.235 . S
C109 C111 1.400 . S
C109 N112 1.351 . S
C109 C114 1.501 . S
C110 C111 1.387 . S
C110 N113 1.341 . S
C111 C109 1.400 . S
C111 C110 1.387 . S
N112 Co103 2.022 . S
N112 C109 1.351 . S
N112 N113 1.365 . S
N113 C110 1.341 . S
N113 N112 1.365 . S
N113 H133 0.862 . S
C114 C109 1.501 . S
C114 H115 0.961 . S
C114 H116 0.961 . S
C114 H117 0.960 . S
H115 C114 0.961 . S
H116 C114 0.961 . S
H117 C114 0.960 . S
C118 N119 1.342 . S
C118 C122 1.401 . S
C118 C123 1.500 1_554 S
N119 Co102 1.989 1_554 S
N119 C118 1.342 . S
N119 N120 1.388 . S
N120 Co103 1.993 . S
N120 N119 1.388 . S
N120 C121 1.346 . S
C121 N120 1.346 . S
C121 C122 1.396 . S
C121 C131 1.510 . S
C122 C118 1.401 . S
C122 C121 1.396 . S
C123 C118 1.500 1_556 S
C123 H124 0.958 . S
C123 H125 0.959 . S
C123 H126 0.962 1_556 S
H124 C123 0.958 . S
H125 C123 0.959 . S
H126 C123 0.962 1_554 S
O127 Co102 1.970 . S
O127 C135 1.253 1_556 S
O128 Co103 1.941 . S
O128 C135 1.266 . S
H129 C131 0.959 . S
H130 C131 0.961 . S
C131 C121 1.510 . S
C131 H129 0.959 . S
C131 H130 0.961 . S
C131 H132 0.960 . S
H132 C131 0.960 . S
H133 N113 0.862 . S
O134 Co102 1.920 . S
O134 C107 1.289 . S
C135 O127 1.253 1_554 S
C135 O128 1.266 . S
Co136 O139 1.970 . S
Co136 N153 1.989 . S
Co136 O161 1.967 . S
Co136 O168 1.920 . S
Co137 O140 1.966 . S
Co137 N146 2.022 . S
Co137 N154 1.993 . S
Co137 O162 1.941 . S
C138 O139 1.258 . S
C138 O140 1.263 . S
O139 Co136 1.970 . S
O139 C138 1.258 . S
O140 Co137 1.966 . S
O140 C138 1.263 . S
C141 O142 1.235 . S
C141 O168 1.289 . S
O142 C141 1.235 . S
C143 C145 1.400 . S
C143 N146 1.351 . S
C143 C148 1.501 . S
C144 C145 1.387 . S
C144 N147 1.341 . S
C145 C143 1.400 . S
C145 C144 1.387 . S
N146 Co137 2.022 . S
N146 C143 1.351 . S
N146 N147 1.365 . S
N147 C144 1.341 . S
N147 N146 1.365 . S
N147 H167 0.862 . S
C148 C143 1.501 . S
C148 H149 0.961 . S
C148 H150 0.961 . S
C148 H151 0.960 . S
H149 C148 0.961 . S
H150 C148 0.961 . S
H151 C148 0.960 . S
C152 N153 1.342 . S
C152 C156 1.401 . S
C152 C157 1.499 . S
N153 Co136 1.989 . S
N153 C152 1.342 . S
N153 N154 1.388 . S
N154 Co137 1.993 . S
N154 N153 1.388 . S
N154 C155 1.346 . S
C155 N154 1.346 . S
C155 C156 1.396 . S
C155 C165 1.510 . S
C156 C152 1.401 . S
C156 C155 1.396 . S
C157 C152 1.499 . S
C157 H158 0.959 . S
C157 H159 0.960 . S
C157 H160 0.961 . S
H158 C157 0.959 . S
H159 C157 0.960 . S
H160 C157 0.961 . S
O161 Co136 1.967 . S
O161 C169 1.258 . S
O162 Co137 1.941 . S
O162 C169 1.266 . S
H163 C165 0.959 . S
H164 C165 0.961 . S
C165 C155 1.510 . S
C165 H163 0.959 . S
C165 H164 0.961 . S
C165 H166 0.960 . S
H166 C165 0.960 . S
H167 N147 0.862 . S
O168 Co136 1.920 . S
O168 C141 1.289 . S
C169 O161 1.258 . S
C169 O162 1.266 . S
Co170 O173 1.970 . S
Co170 N187 1.989 . S
Co170 O195 1.967 . S
Co170 O202 1.920 . S
Co171 O174 1.966 . S
Co171 N180 2.022 . S
Co171 N188 1.993 . S
Co171 O196 1.941 . S
C172 O173 1.258 . S
C172 O174 1.263 . S
O173 Co170 1.970 . S
O173 C172 1.258 . S
O174 Co171 1.966 . S
O174 C172 1.263 . S
C175 O176 1.235 . S
C175 O202 1.289 . S
O176 C175 1.235 . S
C177 C179 1.400 . S
C177 N180 1.351 . S
C177 C182 1.501 . S
C178 C179 1.387 . S
C178 N181 1.341 . S
C179 C177 1.400 . S
C179 C178 1.387 . S
N180 Co171 2.022 . S
N180 C177 1.351 . S
N180 N181 1.365 . S
N181 C178 1.341 . S
N181 N180 1.365 . S
N181 H201 0.862 . S
C182 C177 1.501 . S
C182 H183 0.961 . S
C182 H184 0.961 . S
C182 H185 0.960 . S
H183 C182 0.961 . S
H184 C182 0.961 . S
H185 C182 0.960 . S
C186 N187 1.342 . S
C186 C190 1.401 . S
C186 C191 1.499 . S
N187 Co170 1.989 . S
N187 C186 1.342 . S
N187 N188 1.388 . S
N188 Co171 1.993 . S
N188 N187 1.388 . S
N188 C189 1.346 . S
C189 N188 1.346 . S
C189 C190 1.396 . S
C189 C199 1.510 . S
C190 C186 1.401 . S
C190 C189 1.396 . S
C191 C186 1.499 . S
C191 H192 0.959 . S
C191 H193 0.960 . S
C191 H194 0.961 . S
H192 C191 0.959 . S
H193 C191 0.960 . S
H194 C191 0.961 . S
O195 Co170 1.967 . S
O195 C203 1.258 . S
O196 Co171 1.941 . S
O196 C203 1.266 . S
H197 C199 0.959 . S
H198 C199 0.961 . S
C199 C189 1.510 . S
C199 H197 0.959 . S
C199 H198 0.961 . S
C199 H200 0.960 . S
H200 C199 0.960 . S
H201 N181 0.862 . S
O202 Co170 1.920 . S
O202 C175 1.289 . S
C203 O195 1.258 . S
C203 O196 1.266 . S
H204 C210 0.930 . S
H205 C214 0.930 . S
H206 C219 0.929 . S
H207 C217 0.929 . S
H208 C212 0.929 . S
H209 C218 0.929 . S
C210 H204 0.930 . S
C210 C211 1.367 . S
C210 C218 1.378 . S
C211 C210 1.367 . S
C211 C219 1.433 . S
C212 H208 0.929 . S
C212 C214 1.378 . S
C212 C216 1.350 . S
C213 C216 1.463 . S
C213 C218 1.350 . S
C213 N221 1.427 . S
C214 H205 0.930 . S
C214 C212 1.378 . S
C214 C215 1.367 . S
C215 C214 1.367 . S
C215 C217 1.433 . S
C216 C212 1.350 . S
C216 C213 1.463 . S
C216 N220 1.427 . S
C217 H207 0.929 . S
C217 C215 1.433 . S
C217 N220 1.384 . S
C218 H209 0.929 . S
C218 C210 1.378 . S
C218 C213 1.350 . S
C219 H206 0.929 . S
C219 C211 1.433 . S
C219 N221 1.384 . S
N220 C216 1.427 . S
N220 C217 1.384 . S
N221 C213 1.427 . S
N221 C219 1.384 . S
H222 C228 0.930 . S
H223 C232 0.930 . S
H224 C237 0.929 . S
H225 C235 0.929 . S
H226 C230 0.929 . S
H227 C236 0.929 . S
C228 H222 0.930 . S
C228 C229 1.367 . S
C228 C236 1.378 . S
C229 C228 1.367 . S
C229 C237 1.433 . S
C230 H226 0.929 . S
C230 C232 1.378 . S
C230 C234 1.350 . S
C231 C234 1.463 1_455 S
C231 C236 1.350 . S
C231 N239 1.427 . S
C232 H223 0.930 . S
C232 C230 1.378 . S
C232 C233 1.367 . S
C233 C232 1.367 . S
C233 C235 1.433 . S
C234 C230 1.350 . S
C234 C231 1.463 1_655 S
C234 N238 1.427 . S
C235 H225 0.929 . S
C235 C233 1.433 . S
C235 N238 1.384 . S
C236 H227 0.929 . S
C236 C228 1.378 . S
C236 C231 1.350 . S
C237 H224 0.929 . S
C237 C229 1.433 . S
C237 N239 1.384 . S
N238 C234 1.427 . S
N238 C235 1.384 . S
N239 C231 1.427 . S
N239 C237 1.384 . S
H240 C246 0.930 1_545 S
H241 C250 0.930 1_565 S
H242 C255 0.929 . S
H243 C253 0.929 . S
H244 C248 0.929 . S
H245 C254 0.929 . S
C246 H240 0.930 1_565 S
C246 C247 1.367 . S
C246 C254 1.378 1_565 S
C247 C246 1.367 . S
C247 C255 1.433 . S
C248 H244 0.929 . S
C248 C250 1.378 1_565 S
C248 C252 1.350 1_565 S
C249 C252 1.463 1_565 S
C249 C254 1.350 1_565 S
C249 N257 1.427 . S
C250 H241 0.930 1_545 S
C250 C248 1.378 1_545 S
C250 C251 1.367 . S
C251 C250 1.367 . S
C251 C253 1.433 . S
C252 C248 1.350 1_545 S
C252 C249 1.463 1_545 S
C252 N256 1.427 . S
C253 H243 0.929 . S
C253 C251 1.433 . S
C253 N256 1.384 . S
C254 H245 0.929 . S
C254 C246 1.378 1_545 S
C254 C249 1.350 1_545 S
C255 H242 0.929 . S
C255 C247 1.433 . S
C255 N257 1.384 . S
N256 C252 1.427 . S
N256 C253 1.384 . S
N257 C249 1.427 . S
N257 C255 1.384 . S
H258 C264 0.930 . S
H259 C268 0.930 . S
H260 C273 0.929 . S
H261 C271 0.929 . S
H262 C266 0.929 . S
H263 C272 0.929 . S
C264 H258 0.930 . S
C264 C265 1.367 . S
C264 C272 1.378 . S
C265 C264 1.367 . S
C265 C273 1.433 . S
C266 H262 0.929 . S
C266 C268 1.378 . S
C266 C270 1.350 . S
C267 C270 1.463 . S
C267 C272 1.350 . S
C267 N275 1.427 . S
C268 H259 0.930 . S
C268 C266 1.378 . S
C268 C269 1.367 . S
C269 C268 1.367 . S
C269 C271 1.433 . S
C270 C266 1.350 . S
C270 C267 1.463 . S
C270 N274 1.427 . S
C271 H261 0.929 . S
C271 C269 1.433 . S
C271 N274 1.384 . S
C272 H263 0.929 . S
C272 C264 1.378 . S
C272 C267 1.350 . S
C273 H260 0.929 . S
C273 C265 1.433 . S
C273 N275 1.384 . S
N274 C270 1.427 . S
N274 C271 1.384 . S
N275 C267 1.427 . S
N275 C273 1.384 . S
H276 C282 0.930 . S
H277 C286 0.930 . S
H278 C291 0.929 . S
H279 C289 0.929 . S
H280 C284 0.929 . S
H281 C290 0.929 . S
C282 H276 0.930 . S
C282 C283 1.367 . S
C282 C290 1.378 . S
C283 C282 1.367 . S
C283 C291 1.433 . S
C284 H280 0.929 . S
C284 C286 1.378 . S
C284 C288 1.350 . S
C285 C288 1.463 . S
C285 C290 1.350 . S
C285 N293 1.427 . S
C286 H277 0.930 . S
C286 C284 1.378 . S
C286 C287 1.367 . S
C287 C286 1.367 . S
C287 C289 1.433 . S
C288 C284 1.350 . S
C288 C285 1.463 . S
C288 N292 1.427 . S
C289 H279 0.929 . S
C289 C287 1.433 . S
C289 N292 1.384 . S
C290 H281 0.929 . S
C290 C282 1.378 . S
C290 C285 1.350 . S
C291 H278 0.929 . S
C291 C283 1.433 . S
C291 N293 1.384 . S
N292 C288 1.427 . S
N292 C289 1.384 . S
N293 C285 1.427 . S
N293 C291 1.384 . S
H294 C300 0.930 . S
H295 C304 0.930 . S
H296 C309 0.929 . S
H297 C307 0.929 . S
H298 C302 0.929 . S
H299 C308 0.929 . S
C300 H294 0.930 . S
C300 C301 1.367 . S
C300 C308 1.378 . S
C301 C300 1.367 . S
C301 C309 1.433 . S
C302 H298 0.929 . S
C302 C304 1.378 . S
C302 C306 1.350 . S
C303 C306 1.463 . S
C303 C308 1.350 . S
C303 N311 1.427 . S
C304 H295 0.930 . S
C304 C302 1.378 . S
C304 C305 1.367 . S
C305 C304 1.367 . S
C305 C307 1.433 . S
C306 C302 1.350 . S
C306 C303 1.463 . S
C306 N310 1.427 . S
C307 H297 0.929 . S
C307 C305 1.433 . S
C307 N310 1.384 . S
C308 H299 0.929 . S
C308 C300 1.378 . S
C308 C303 1.350 . S
C309 H296 0.929 . S
C309 C301 1.433 . S
C309 N311 1.384 . S
N310 C306 1.427 . S
N310 C307 1.384 . S
N311 C303 1.427 . S
N311 C309 1.384 . S
H312 C318 0.930 . S
H313 C322 0.930 . S
H314 C327 0.929 . S
H315 C325 0.929 . S
H316 C320 0.929 . S
H317 C326 0.929 . S
C318 H312 0.930 . S
C318 C319 1.367 . S
C318 C326 1.378 . S
C319 C318 1.367 . S
C319 C327 1.433 . S
C320 H316 0.929 . S
C320 C322 1.378 . S
C320 C324 1.350 . S
C321 C324 1.463 . S
C321 C326 1.350 . S
C321 N329 1.427 . S
C322 H313 0.930 . S
C322 C320 1.378 . S
C322 C323 1.367 . S
C323 C322 1.367 . S
C323 C325 1.433 . S
C324 C320 1.350 . S
C324 C321 1.463 . S
C324 N328 1.427 . S
C325 H315 0.929 . S
C325 C323 1.433 . S
C325 N328 1.384 . S
C326 H317 0.929 . S
C326 C318 1.378 . S
C326 C321 1.350 . S
C327 H314 0.929 . S
C327 C319 1.433 . S
C327 N329 1.384 . S
N328 C324 1.427 . S
N328 C325 1.384 . S
N329 C321 1.427 . S
N329 C327 1.384 . S
H330 C336 0.930 . S
H331 C340 0.930 . S
H332 C345 0.929 . S
H333 C343 0.929 . S
H334 C338 0.929 . S
H335 C344 0.929 . S
C336 H330 0.930 . S
C336 C337 1.367 . S
C336 C344 1.378 . S
C337 C336 1.367 . S
C337 C345 1.433 . S
C338 H334 0.929 . S
C338 C340 1.378 . S
C338 C342 1.350 . S
C339 C342 1.463 . S
C339 C344 1.350 . S
C339 N347 1.427 . S
C340 H331 0.930 . S
C340 C338 1.378 . S
C340 C341 1.367 . S
C341 C340 1.367 . S
C341 C343 1.433 . S
C342 C338 1.350 . S
C342 C339 1.463 . S
C342 N346 1.427 . S
C343 H333 0.929 . S
C343 C341 1.433 . S
C343 N346 1.384 . S
C344 H335 0.929 . S
C344 C336 1.378 . S
C344 C339 1.350 . S
C345 H332 0.929 . S
C345 C337 1.433 . S
C345 N347 1.384 . S
N346 C342 1.427 . S
N346 C343 1.384 . S
N347 C339 1.427 . S
N347 C345 1.384 . S
H348 C354 0.930 . S
H349 C358 0.930 . S
H350 C363 0.929 . S
H351 C361 0.929 . S
H352 C356 0.929 . S
H353 C362 0.929 . S
C354 H348 0.930 . S
C354 C355 1.367 . S
C354 C362 1.378 . S
C355 C354 1.367 . S
C355 C363 1.433 . S
C356 H352 0.929 . S
C356 C358 1.378 . S
C356 C360 1.350 . S
C357 C360 1.463 . S
C357 C362 1.350 . S
C357 N365 1.427 . S
C358 H349 0.930 . S
C358 C356 1.378 . S
C358 C359 1.367 . S
C359 C358 1.367 . S
C359 C361 1.433 . S
C360 C356 1.350 . S
C360 C357 1.463 . S
C360 N364 1.427 . S
C361 H351 0.929 . S
C361 C359 1.433 . S
C361 N364 1.384 . S
C362 H353 0.929 . S
C362 C354 1.378 . S
C362 C357 1.350 . S
C363 H350 0.929 . S
C363 C355 1.433 . S
C363 N365 1.384 . S
N364 C360 1.427 . S
N364 C361 1.384 . S
N365 C357 1.427 . S
N365 C363 1.384 . S
H366 C372 0.930 . S
H367 C376 0.930 . S
H368 C381 0.929 . S
H369 C379 0.929 . S
H370 C374 0.929 . S
H371 C380 0.929 . S
C372 H366 0.930 . S
C372 C373 1.367 . S
C372 C380 1.378 . S
C373 C372 1.367 . S
C373 C381 1.433 . S
C374 H370 0.929 . S
C374 C376 1.378 . S
C374 C378 1.350 . S
C375 C378 1.463 . S
C375 C380 1.350 . S
C375 N383 1.427 . S
C376 H367 0.930 . S
C376 C374 1.378 . S
C376 C377 1.367 . S
C377 C376 1.367 . S
C377 C379 1.433 . S
C378 C374 1.350 . S
C378 C375 1.463 . S
C378 N382 1.427 . S
C379 H369 0.929 . S
C379 C377 1.433 . S
C379 N382 1.384 . S
C380 H371 0.929 . S
C380 C372 1.378 . S
C380 C375 1.350 . S
C381 H368 0.929 . S
C381 C373 1.433 . S
C381 N383 1.384 . S
N382 C378 1.427 . S
N382 C379 1.384 . S
N383 C375 1.427 . S
N383 C381 1.384 . S
H384 C390 0.930 . S
H385 C394 0.930 . S
H386 C399 0.929 . S
H387 C397 0.929 . S
H388 C392 0.929 . S
H389 C398 0.929 . S
C390 H384 0.930 . S
C390 C391 1.367 . S
C390 C398 1.378 1_655 S
C391 C390 1.367 . S
C391 C399 1.433 . S
C392 H388 0.929 . S
C392 C394 1.378 . S
C392 C396 1.350 . S
C393 C396 1.463 . S
C393 C398 1.350 . S
C393 N401 1.427 . S
C394 H385 0.930 . S
C394 C392 1.378 . S
C394 C395 1.367 . S
C395 C394 1.367 . S
C395 C397 1.433 . S
C396 C392 1.350 . S
C396 C393 1.463 . S
C396 N400 1.427 . S
C397 H387 0.929 . S
C397 C395 1.433 . S
C397 N400 1.384 . S
C398 H389 0.929 . S
C398 C390 1.378 1_455 S
C398 C393 1.350 . S
C399 H386 0.929 . S
C399 C391 1.433 . S
C399 N401 1.384 1_655 S
N400 C396 1.427 . S
N400 C397 1.384 . S
N401 C393 1.427 . S
N401 C399 1.384 1_455 S
H402 C408 0.930 . S
H403 C412 0.930 . S
H404 C417 0.929 . S
H405 C415 0.929 . S
H406 C410 0.929 . S
H407 C416 0.929 . S
C408 H402 0.930 . S
C408 C409 1.367 . S
C408 C416 1.378 . S
C409 C408 1.367 . S
C409 C417 1.433 . S
C410 H406 0.929 . S
C410 C412 1.378 1_545 S
C410 C414 1.350 . S
C411 C414 1.463 . S
C411 C416 1.350 . S
C411 N419 1.427 . S
C412 H403 0.930 . S
C412 C410 1.378 1_565 S
C412 C413 1.367 . S
C413 C412 1.367 . S
C413 C415 1.433 . S
C414 C410 1.350 . S
C414 C411 1.463 . S
C414 N418 1.427 . S
C415 H405 0.929 . S
C415 C413 1.433 . S
C415 N418 1.384 1_565 S
C416 H407 0.929 . S
C416 C408 1.378 . S
C416 C411 1.350 . S
C417 H404 0.929 . S
C417 C409 1.433 . S
C417 N419 1.384 . S
N418 C414 1.427 . S
N418 C415 1.384 1_545 S
N419 C411 1.427 . S
N419 C417 1.384 . S
H420 C426 0.930 . S
H421 C430 0.930 . S
H422 C435 0.929 . S
H423 C433 0.929 . S
H424 C428 0.929 . S
H425 C434 0.929 . S
C426 H420 0.930 . S
C426 C427 1.367 . S
C426 C434 1.378 . S
C427 C426 1.367 . S
C427 C435 1.433 . S
C428 H424 0.929 . S
C428 C430 1.378 . S
C428 C432 1.350 . S
C429 C432 1.463 . S
C429 C434 1.350 . S
C429 N437 1.427 . S
C430 H421 0.930 . S
C430 C428 1.378 . S
C430 C431 1.367 . S
C431 C430 1.367 . S
C431 C433 1.433 . S
C432 C428 1.350 . S
C432 C429 1.463 . S
C432 N436 1.427 . S
C433 H423 0.929 . S
C433 C431 1.433 . S
C433 N436 1.384 . S
C434 H425 0.929 . S
C434 C426 1.378 . S
C434 C429 1.350 . S
C435 H422 0.929 . S
C435 C427 1.433 . S
C435 N437 1.384 . S
N436 C432 1.427 . S
N436 C433 1.384 . S
N437 C429 1.427 . S
N437 C435 1.384 . S
H438 C444 0.930 . S
H439 C448 0.930 . S
H440 C453 0.929 . S
H441 C451 0.929 . S
H442 C446 0.929 . S
H443 C452 0.929 . S
C444 H438 0.930 . S
C444 C445 1.367 . S
C444 C452 1.378 . S
C445 C444 1.367 . S
C445 C453 1.433 . S
C446 H442 0.929 . S
C446 C448 1.378 1_655 S
C446 C450 1.350 . S
C447 C450 1.463 . S
C447 C452 1.350 . S
C447 N455 1.427 . S
C448 H439 0.930 . S
C448 C446 1.378 1_455 S
C448 C449 1.367 . S
C449 C448 1.367 . S
C449 C451 1.433 . S
C450 C446 1.350 . S
C450 C447 1.463 . S
C450 N454 1.427 1_655 S
C451 H441 0.929 . S
C451 C449 1.433 . S
C451 N454 1.384 . S
C452 H443 0.929 . S
C452 C444 1.378 . S
C452 C447 1.350 . S
C453 H440 0.929 . S
C453 C445 1.433 . S
C453 N455 1.384 . S
N454 C450 1.427 1_455 S
N454 C451 1.384 . S
N455 C447 1.427 . S
N455 C453 1.384 . S
H456 C462 0.930 . S
H457 C466 0.930 . S
H458 C471 0.929 . S
H459 C469 0.929 . S
H460 C464 0.929 . S
H461 C470 0.929 . S
C462 H456 0.930 . S
C462 C463 1.367 . S
C462 C470 1.378 . S
C463 C462 1.367 . S
C463 C471 1.433 . S
C464 H460 0.929 . S
C464 C466 1.378 1_565 S
C464 C468 1.350 . S
C465 C468 1.463 . S
C465 C470 1.350 . S
C465 N473 1.427 . S
C466 H457 0.930 . S
C466 C464 1.378 1_545 S
C466 C467 1.367 . S
C467 C466 1.367 . S
C467 C469 1.433 . S
C468 C464 1.350 . S
C468 C465 1.463 . S
C468 N472 1.427 1_565 S
C469 H459 0.929 . S
C469 C467 1.433 . S
C469 N472 1.384 . S
C470 H461 0.929 . S
C470 C462 1.378 . S
C470 C465 1.350 . S
C471 H458 0.929 . S
C471 C463 1.433 . S
C471 N473 1.384 . S
N472 C468 1.427 1_545 S
N472 C469 1.384 . S
N473 C465 1.427 . S
N473 C471 1.384 . S
C211 C135 1.211 . S
C215 C33 1.211 . S
C229 C169 1.210 . S
C233 C67 1.219 . S
C247 C101 1.224 . S
C251 C203 1.226 . S
C265 C138 1.021 . S
C269 C9 1.013 . S
C283 C172 1.025 . S
C287 C43 1.002 . S
C301 C77 1.018 . S
C305 C2 1.029 . S
C319 C36 1.027 . S
C323 C111 1.000 . S
C337 C145 1.010 . S
C341 C70 1.033 . S
C355 C179 0.999 . S
C359 C104 1.033 . S
C373 C190 0.895 . S
C377 C5 0.909 . S
C391 C39 0.915 . S
C395 C20 0.886 . S
C409 C54 0.888 . S
C413 C73 0.916 . S
C427 C88 0.901 . S
C431 C107 0.907 . S
C445 C122 0.909 . S
C449 C141 0.908 . S
C463 C156 0.908 . S
C467 C175 0.909 . S
