# Generated by pormake.
# Topology ana-e, (6)-cn, num edge types: 1
# Building blocks:
#     Node 0, Type 0, BuildingBlock: BETDEL_clean_sbu_0, # of connection points: 6
#     Node 1, Type 0, BuildingBlock: BETDEL_clean_sbu_0, # of connection points: 6
#     Node 2, Type 0, BuildingBlock: BETDEL_clean_sbu_0, # of connection points: 6
#     Node 3, Type 0, BuildingBlock: BETDEL_clean_sbu_0, # of connection points: 6
#     Node 4, Type 0, BuildingBlock: BETDEL_clean_sbu_0, # of connection points: 6
#     Node 5, Type 0, BuildingBlock: BETDEL_clean_sbu_0, # of connection points: 6
#     Node 6, Type 0, BuildingBlock: BETDEL_clean_sbu_0, # of connection points: 6
#     Node 7, Type 0, BuildingBlock: BETDEL_clean_sbu_0, # of connection points: 6
#     Node 8, Type 0, BuildingBlock: BETDEL_clean_sbu_0, # of connection points: 6
#     Node 9, Type 0, BuildingBlock: BETDEL_clean_sbu_0, # of connection points: 6
#     Node 10, Type 0, BuildingBlock: BETDEL_clean_sbu_0, # of connection points: 6
#     Node 11, Type 0, BuildingBlock: BETDEL_clean_sbu_0, # of connection points: 6
#     Node 12, Type 0, BuildingBlock: BETDEL_clean_sbu_0, # of connection points: 6
#     Node 13, Type 0, BuildingBlock: BETDEL_clean_sbu_0, # of connection points: 6
#     Node 14, Type 0, BuildingBlock: BETDEL_clean_sbu_0, # of connection points: 6
#     Node 15, Type 0, BuildingBlock: BETDEL_clean_sbu_0, # of connection points: 6
#     Node 16, Type 0, BuildingBlock: BETDEL_clean_sbu_0, # of connection points: 6
#     Node 17, Type 0, BuildingBlock: BETDEL_clean_sbu_0, # of connection points: 6
#     Node 18, Type 0, BuildingBlock: BETDEL_clean_sbu_0, # of connection points: 6
#     Node 19, Type 0, BuildingBlock: BETDEL_clean_sbu_0, # of connection points: 6
#     Node 20, Type 0, BuildingBlock: BETDEL_clean_sbu_0, # of connection points: 6
#     Node 21, Type 0, BuildingBlock: BETDEL_clean_sbu_0, # of connection points: 6
#     Node 22, Type 0, BuildingBlock: BETDEL_clean_sbu_0, # of connection points: 6
#     Node 23, Type 0, BuildingBlock: BETDEL_clean_sbu_0, # of connection points: 6
#     Node 24, Type 0, BuildingBlock: BETDEL_clean_sbu_0, # of connection points: 6
#     Node 25, Type 0, BuildingBlock: BETDEL_clean_sbu_0, # of connection points: 6
#     Node 26, Type 0, BuildingBlock: BETDEL_clean_sbu_0, # of connection points: 6
#     Node 27, Type 0, BuildingBlock: BETDEL_clean_sbu_0, # of connection points: 6
#     Node 28, Type 0, BuildingBlock: BETDEL_clean_sbu_0, # of connection points: 6
#     Node 29, Type 0, BuildingBlock: BETDEL_clean_sbu_0, # of connection points: 6
#     Node 30, Type 0, BuildingBlock: BETDEL_clean_sbu_0, # of connection points: 6
#     Node 31, Type 0, BuildingBlock: BETDEL_clean_sbu_0, # of connection points: 6
#     Node 32, Type 0, BuildingBlock: BETDEL_clean_sbu_0, # of connection points: 6
#     Node 33, Type 0, BuildingBlock: BETDEL_clean_sbu_0, # of connection points: 6
#     Node 34, Type 0, BuildingBlock: BETDEL_clean_sbu_0, # of connection points: 6
#     Node 35, Type 0, BuildingBlock: BETDEL_clean_sbu_0, # of connection points: 6
#     Node 36, Type 0, BuildingBlock: BETDEL_clean_sbu_0, # of connection points: 6
#     Node 37, Type 0, BuildingBlock: BETDEL_clean_sbu_0, # of connection points: 6
#     Node 38, Type 0, BuildingBlock: BETDEL_clean_sbu_0, # of connection points: 6
#     Node 39, Type 0, BuildingBlock: BETDEL_clean_sbu_0, # of connection points: 6
#     Node 40, Type 0, BuildingBlock: BETDEL_clean_sbu_0, # of connection points: 6
#     Node 41, Type 0, BuildingBlock: BETDEL_clean_sbu_0, # of connection points: 6
#     Node 42, Type 0, BuildingBlock: BETDEL_clean_sbu_0, # of connection points: 6
#     Node 43, Type 0, BuildingBlock: BETDEL_clean_sbu_0, # of connection points: 6
#     Node 44, Type 0, BuildingBlock: BETDEL_clean_sbu_0, # of connection points: 6
#     Node 45, Type 0, BuildingBlock: BETDEL_clean_sbu_0, # of connection points: 6
#     Node 46, Type 0, BuildingBlock: BETDEL_clean_sbu_0, # of connection points: 6
#     Node 47, Type 0, BuildingBlock: BETDEL_clean_sbu_0, # of connection points: 6
#     Node 48, Type 0, BuildingBlock: BETDEL_clean_sbu_0, # of connection points: 6
#     Node 49, Type 0, BuildingBlock: BETDEL_clean_sbu_0, # of connection points: 6
#     Node 50, Type 0, BuildingBlock: BETDEL_clean_sbu_0, # of connection points: 6
#     Node 51, Type 0, BuildingBlock: BETDEL_clean_sbu_0, # of connection points: 6
#     Node 52, Type 0, BuildingBlock: BETDEL_clean_sbu_0, # of connection points: 6
#     Node 53, Type 0, BuildingBlock: BETDEL_clean_sbu_0, # of connection points: 6
#     Node 54, Type 0, BuildingBlock: BETDEL_clean_sbu_0, # of connection points: 6
#     Node 55, Type 0, BuildingBlock: BETDEL_clean_sbu_0, # of connection points: 6
#     Node 56, Type 0, BuildingBlock: BETDEL_clean_sbu_0, # of connection points: 6
#     Node 57, Type 0, BuildingBlock: BETDEL_clean_sbu_0, # of connection points: 6
#     Node 58, Type 0, BuildingBlock: BETDEL_clean_sbu_0, # of connection points: 6
#     Node 59, Type 0, BuildingBlock: BETDEL_clean_sbu_0, # of connection points: 6
#     Node 60, Type 0, BuildingBlock: BETDEL_clean_sbu_0, # of connection points: 6
#     Node 61, Type 0, BuildingBlock: BETDEL_clean_sbu_0, # of connection points: 6
#     Node 62, Type 0, BuildingBlock: BETDEL_clean_sbu_0, # of connection points: 6
#     Node 63, Type 0, BuildingBlock: BETDEL_clean_sbu_0, # of connection points: 6
#     Node 64, Type 0, BuildingBlock: BETDEL_clean_sbu_0, # of connection points: 6
#     Node 65, Type 0, BuildingBlock: BETDEL_clean_sbu_0, # of connection points: 6
#     Node 66, Type 0, BuildingBlock: BETDEL_clean_sbu_0, # of connection points: 6
#     Node 67, Type 0, BuildingBlock: BETDEL_clean_sbu_0, # of connection points: 6
#     Node 68, Type 0, BuildingBlock: BETDEL_clean_sbu_0, # of connection points: 6
#     Node 69, Type 0, BuildingBlock: BETDEL_clean_sbu_0, # of connection points: 6
#     Node 70, Type 0, BuildingBlock: BETDEL_clean_sbu_0, # of connection points: 6
#     Node 71, Type 0, BuildingBlock: BETDEL_clean_sbu_0, # of connection points: 6
#     Node 72, Type 0, BuildingBlock: BETDEL_clean_sbu_0, # of connection points: 6
#     Node 73, Type 0, BuildingBlock: BETDEL_clean_sbu_0, # of connection points: 6
#     Node 74, Type 0, BuildingBlock: BETDEL_clean_sbu_0, # of connection points: 6
#     Node 75, Type 0, BuildingBlock: BETDEL_clean_sbu_0, # of connection points: 6
#     Node 76, Type 0, BuildingBlock: BETDEL_clean_sbu_0, # of connection points: 6
#     Node 77, Type 0, BuildingBlock: BETDEL_clean_sbu_0, # of connection points: 6
#     Node 78, Type 0, BuildingBlock: BETDEL_clean_sbu_0, # of connection points: 6
#     Node 79, Type 0, BuildingBlock: BETDEL_clean_sbu_0, # of connection points: 6
#     Node 80, Type 0, BuildingBlock: BETDEL_clean_sbu_0, # of connection points: 6
#     Node 81, Type 0, BuildingBlock: BETDEL_clean_sbu_0, # of connection points: 6
#     Node 82, Type 0, BuildingBlock: BETDEL_clean_sbu_0, # of connection points: 6
#     Node 83, Type 0, BuildingBlock: BETDEL_clean_sbu_0, # of connection points: 6
#     Node 84, Type 0, BuildingBlock: BETDEL_clean_sbu_0, # of connection points: 6
#     Node 85, Type 0, BuildingBlock: BETDEL_clean_sbu_0, # of connection points: 6
#     Node 86, Type 0, BuildingBlock: BETDEL_clean_sbu_0, # of connection points: 6
#     Node 87, Type 0, BuildingBlock: BETDEL_clean_sbu_0, # of connection points: 6
#     Node 88, Type 0, BuildingBlock: BETDEL_clean_sbu_0, # of connection points: 6
#     Node 89, Type 0, BuildingBlock: BETDEL_clean_sbu_0, # of connection points: 6
#     Node 90, Type 0, BuildingBlock: BETDEL_clean_sbu_0, # of connection points: 6
#     Node 91, Type 0, BuildingBlock: BETDEL_clean_sbu_0, # of connection points: 6
#     Node 92, Type 0, BuildingBlock: BETDEL_clean_sbu_0, # of connection points: 6
#     Node 93, Type 0, BuildingBlock: BETDEL_clean_sbu_0, # of connection points: 6
#     Node 94, Type 0, BuildingBlock: BETDEL_clean_sbu_0, # of connection points: 6
#     Node 95, Type 0, BuildingBlock: BETDEL_clean_sbu_0, # of connection points: 6
#     Edge 96, Type (0, 0), BuildingBlock: KIFKEQ_clean_linker_1, # of connection points: 2
#     Edge 97, Type (0, 0), BuildingBlock: KIFKEQ_clean_linker_1, # of connection points: 2
#     Edge 98, Type (0, 0), BuildingBlock: KIFKEQ_clean_linker_1, # of connection points: 2
#     Edge 99, Type (0, 0), BuildingBlock: KIFKEQ_clean_linker_1, # of connection points: 2
#     Edge 100, Type (0, 0), BuildingBlock: KIFKEQ_clean_linker_1, # of connection points: 2
#     Edge 101, Type (0, 0), BuildingBlock: KIFKEQ_clean_linker_1, # of connection points: 2
#     Edge 102, Type (0, 0), BuildingBlock: KIFKEQ_clean_linker_1, # of connection points: 2
#     Edge 103, Type (0, 0), BuildingBlock: KIFKEQ_clean_linker_1, # of connection points: 2
#     Edge 104, Type (0, 0), BuildingBlock: KIFKEQ_clean_linker_1, # of connection points: 2
#     Edge 105, Type (0, 0), BuildingBlock: KIFKEQ_clean_linker_1, # of connection points: 2
#     Edge 106, Type (0, 0), BuildingBlock: KIFKEQ_clean_linker_1, # of connection points: 2
#     Edge 107, Type (0, 0), BuildingBlock: KIFKEQ_clean_linker_1, # of connection points: 2
#     Edge 108, Type (0, 0), BuildingBlock: KIFKEQ_clean_linker_1, # of connection points: 2
#     Edge 109, Type (0, 0), BuildingBlock: KIFKEQ_clean_linker_1, # of connection points: 2
#     Edge 110, Type (0, 0), BuildingBlock: KIFKEQ_clean_linker_1, # of connection points: 2
#     Edge 111, Type (0, 0), BuildingBlock: KIFKEQ_clean_linker_1, # of connection points: 2
#     Edge 112, Type (0, 0), BuildingBlock: KIFKEQ_clean_linker_1, # of connection points: 2
#     Edge 113, Type (0, 0), BuildingBlock: KIFKEQ_clean_linker_1, # of connection points: 2
#     Edge 114, Type (0, 0), BuildingBlock: KIFKEQ_clean_linker_1, # of connection points: 2
#     Edge 115, Type (0, 0), BuildingBlock: KIFKEQ_clean_linker_1, # of connection points: 2
#     Edge 116, Type (0, 0), BuildingBlock: KIFKEQ_clean_linker_1, # of connection points: 2
#     Edge 117, Type (0, 0), BuildingBlock: KIFKEQ_clean_linker_1, # of connection points: 2
#     Edge 118, Type (0, 0), BuildingBlock: KIFKEQ_clean_linker_1, # of connection points: 2
#     Edge 119, Type (0, 0), BuildingBlock: KIFKEQ_clean_linker_1, # of connection points: 2
#     Edge 120, Type (0, 0), BuildingBlock: KIFKEQ_clean_linker_1, # of connection points: 2
#     Edge 121, Type (0, 0), BuildingBlock: KIFKEQ_clean_linker_1, # of connection points: 2
#     Edge 122, Type (0, 0), BuildingBlock: KIFKEQ_clean_linker_1, # of connection points: 2
#     Edge 123, Type (0, 0), BuildingBlock: KIFKEQ_clean_linker_1, # of connection points: 2
#     Edge 124, Type (0, 0), BuildingBlock: KIFKEQ_clean_linker_1, # of connection points: 2
#     Edge 125, Type (0, 0), BuildingBlock: KIFKEQ_clean_linker_1, # of connection points: 2
#     Edge 126, Type (0, 0), BuildingBlock: KIFKEQ_clean_linker_1, # of connection points: 2
#     Edge 127, Type (0, 0), BuildingBlock: KIFKEQ_clean_linker_1, # of connection points: 2
#     Edge 128, Type (0, 0), BuildingBlock: KIFKEQ_clean_linker_1, # of connection points: 2
#     Edge 129, Type (0, 0), BuildingBlock: KIFKEQ_clean_linker_1, # of connection points: 2
#     Edge 130, Type (0, 0), BuildingBlock: KIFKEQ_clean_linker_1, # of connection points: 2
#     Edge 131, Type (0, 0), BuildingBlock: KIFKEQ_clean_linker_1, # of connection points: 2
#     Edge 132, Type (0, 0), BuildingBlock: KIFKEQ_clean_linker_1, # of connection points: 2
#     Edge 133, Type (0, 0), BuildingBlock: KIFKEQ_clean_linker_1, # of connection points: 2
#     Edge 134, Type (0, 0), BuildingBlock: KIFKEQ_clean_linker_1, # of connection points: 2
#     Edge 135, Type (0, 0), BuildingBlock: KIFKEQ_clean_linker_1, # of connection points: 2
#     Edge 136, Type (0, 0), BuildingBlock: KIFKEQ_clean_linker_1, # of connection points: 2
#     Edge 137, Type (0, 0), BuildingBlock: KIFKEQ_clean_linker_1, # of connection points: 2
#     Edge 138, Type (0, 0), BuildingBlock: KIFKEQ_clean_linker_1, # of connection points: 2
#     Edge 139, Type (0, 0), BuildingBlock: KIFKEQ_clean_linker_1, # of connection points: 2
#     Edge 140, Type (0, 0), BuildingBlock: KIFKEQ_clean_linker_1, # of connection points: 2
#     Edge 141, Type (0, 0), BuildingBlock: KIFKEQ_clean_linker_1, # of connection points: 2
#     Edge 142, Type (0, 0), BuildingBlock: KIFKEQ_clean_linker_1, # of connection points: 2
#     Edge 143, Type (0, 0), BuildingBlock: KIFKEQ_clean_linker_1, # of connection points: 2
#     Edge 144, Type (0, 0), BuildingBlock: KIFKEQ_clean_linker_1, # of connection points: 2
#     Edge 145, Type (0, 0), BuildingBlock: KIFKEQ_clean_linker_1, # of connection points: 2
#     Edge 146, Type (0, 0), BuildingBlock: KIFKEQ_clean_linker_1, # of connection points: 2
#     Edge 147, Type (0, 0), BuildingBlock: KIFKEQ_clean_linker_1, # of connection points: 2
#     Edge 148, Type (0, 0), BuildingBlock: KIFKEQ_clean_linker_1, # of connection points: 2
#     Edge 149, Type (0, 0), BuildingBlock: KIFKEQ_clean_linker_1, # of connection points: 2
#     Edge 150, Type (0, 0), BuildingBlock: KIFKEQ_clean_linker_1, # of connection points: 2
#     Edge 151, Type (0, 0), BuildingBlock: KIFKEQ_clean_linker_1, # of connection points: 2
#     Edge 152, Type (0, 0), BuildingBlock: KIFKEQ_clean_linker_1, # of connection points: 2
#     Edge 153, Type (0, 0), BuildingBlock: KIFKEQ_clean_linker_1, # of connection points: 2
#     Edge 154, Type (0, 0), BuildingBlock: KIFKEQ_clean_linker_1, # of connection points: 2
#     Edge 155, Type (0, 0), BuildingBlock: KIFKEQ_clean_linker_1, # of connection points: 2
#     Edge 156, Type (0, 0), BuildingBlock: KIFKEQ_clean_linker_1, # of connection points: 2
#     Edge 157, Type (0, 0), BuildingBlock: KIFKEQ_clean_linker_1, # of connection points: 2
#     Edge 158, Type (0, 0), BuildingBlock: KIFKEQ_clean_linker_1, # of connection points: 2
#     Edge 159, Type (0, 0), BuildingBlock: KIFKEQ_clean_linker_1, # of connection points: 2
#     Edge 160, Type (0, 0), BuildingBlock: KIFKEQ_clean_linker_1, # of connection points: 2
#     Edge 161, Type (0, 0), BuildingBlock: KIFKEQ_clean_linker_1, # of connection points: 2
#     Edge 162, Type (0, 0), BuildingBlock: KIFKEQ_clean_linker_1, # of connection points: 2
#     Edge 163, Type (0, 0), BuildingBlock: KIFKEQ_clean_linker_1, # of connection points: 2
#     Edge 164, Type (0, 0), BuildingBlock: KIFKEQ_clean_linker_1, # of connection points: 2
#     Edge 165, Type (0, 0), BuildingBlock: KIFKEQ_clean_linker_1, # of connection points: 2
#     Edge 166, Type (0, 0), BuildingBlock: KIFKEQ_clean_linker_1, # of connection points: 2
#     Edge 167, Type (0, 0), BuildingBlock: KIFKEQ_clean_linker_1, # of connection points: 2
#     Edge 168, Type (0, 0), BuildingBlock: KIFKEQ_clean_linker_1, # of connection points: 2
#     Edge 169, Type (0, 0), BuildingBlock: KIFKEQ_clean_linker_1, # of connection points: 2
#     Edge 170, Type (0, 0), BuildingBlock: KIFKEQ_clean_linker_1, # of connection points: 2
#     Edge 171, Type (0, 0), BuildingBlock: KIFKEQ_clean_linker_1, # of connection points: 2
#     Edge 172, Type (0, 0), BuildingBlock: KIFKEQ_clean_linker_1, # of connection points: 2
#     Edge 173, Type (0, 0), BuildingBlock: KIFKEQ_clean_linker_1, # of connection points: 2
#     Edge 174, Type (0, 0), BuildingBlock: KIFKEQ_clean_linker_1, # of connection points: 2
#     Edge 175, Type (0, 0), BuildingBlock: KIFKEQ_clean_linker_1, # of connection points: 2
#     Edge 176, Type (0, 0), BuildingBlock: KIFKEQ_clean_linker_1, # of connection points: 2
#     Edge 177, Type (0, 0), BuildingBlock: KIFKEQ_clean_linker_1, # of connection points: 2
#     Edge 178, Type (0, 0), BuildingBlock: KIFKEQ_clean_linker_1, # of connection points: 2
#     Edge 179, Type (0, 0), BuildingBlock: KIFKEQ_clean_linker_1, # of connection points: 2
#     Edge 180, Type (0, 0), BuildingBlock: KIFKEQ_clean_linker_1, # of connection points: 2
#     Edge 181, Type (0, 0), BuildingBlock: KIFKEQ_clean_linker_1, # of connection points: 2
#     Edge 182, Type (0, 0), BuildingBlock: KIFKEQ_clean_linker_1, # of connection points: 2
#     Edge 183, Type (0, 0), BuildingBlock: KIFKEQ_clean_linker_1, # of connection points: 2
#     Edge 184, Type (0, 0), BuildingBlock: KIFKEQ_clean_linker_1, # of connection points: 2
#     Edge 185, Type (0, 0), BuildingBlock: KIFKEQ_clean_linker_1, # of connection points: 2
#     Edge 186, Type (0, 0), BuildingBlock: KIFKEQ_clean_linker_1, # of connection points: 2
#     Edge 187, Type (0, 0), BuildingBlock: KIFKEQ_clean_linker_1, # of connection points: 2
#     Edge 188, Type (0, 0), BuildingBlock: KIFKEQ_clean_linker_1, # of connection points: 2
#     Edge 189, Type (0, 0), BuildingBlock: KIFKEQ_clean_linker_1, # of connection points: 2
#     Edge 190, Type (0, 0), BuildingBlock: KIFKEQ_clean_linker_1, # of connection points: 2
#     Edge 191, Type (0, 0), BuildingBlock: KIFKEQ_clean_linker_1, # of connection points: 2
#     Edge 192, Type (0, 0), BuildingBlock: KIFKEQ_clean_linker_1, # of connection points: 2
#     Edge 193, Type (0, 0), BuildingBlock: KIFKEQ_clean_linker_1, # of connection points: 2
#     Edge 194, Type (0, 0), BuildingBlock: KIFKEQ_clean_linker_1, # of connection points: 2
#     Edge 195, Type (0, 0), BuildingBlock: KIFKEQ_clean_linker_1, # of connection points: 2
#     Edge 196, Type (0, 0), BuildingBlock: KIFKEQ_clean_linker_1, # of connection points: 2
#     Edge 197, Type (0, 0), BuildingBlock: KIFKEQ_clean_linker_1, # of connection points: 2
#     Edge 198, Type (0, 0), BuildingBlock: KIFKEQ_clean_linker_1, # of connection points: 2
#     Edge 199, Type (0, 0), BuildingBlock: KIFKEQ_clean_linker_1, # of connection points: 2
#     Edge 200, Type (0, 0), BuildingBlock: KIFKEQ_clean_linker_1, # of connection points: 2
#     Edge 201, Type (0, 0), BuildingBlock: KIFKEQ_clean_linker_1, # of connection points: 2
#     Edge 202, Type (0, 0), BuildingBlock: KIFKEQ_clean_linker_1, # of connection points: 2
#     Edge 203, Type (0, 0), BuildingBlock: KIFKEQ_clean_linker_1, # of connection points: 2
#     Edge 204, Type (0, 0), BuildingBlock: KIFKEQ_clean_linker_1, # of connection points: 2
#     Edge 205, Type (0, 0), BuildingBlock: KIFKEQ_clean_linker_1, # of connection points: 2
#     Edge 206, Type (0, 0), BuildingBlock: KIFKEQ_clean_linker_1, # of connection points: 2
#     Edge 207, Type (0, 0), BuildingBlock: KIFKEQ_clean_linker_1, # of connection points: 2
#     Edge 208, Type (0, 0), BuildingBlock: KIFKEQ_clean_linker_1, # of connection points: 2
#     Edge 209, Type (0, 0), BuildingBlock: KIFKEQ_clean_linker_1, # of connection points: 2
#     Edge 210, Type (0, 0), BuildingBlock: KIFKEQ_clean_linker_1, # of connection points: 2
#     Edge 211, Type (0, 0), BuildingBlock: KIFKEQ_clean_linker_1, # of connection points: 2
#     Edge 212, Type (0, 0), BuildingBlock: KIFKEQ_clean_linker_1, # of connection points: 2
#     Edge 213, Type (0, 0), BuildingBlock: KIFKEQ_clean_linker_1, # of connection points: 2
#     Edge 214, Type (0, 0), BuildingBlock: KIFKEQ_clean_linker_1, # of connection points: 2
#     Edge 215, Type (0, 0), BuildingBlock: KIFKEQ_clean_linker_1, # of connection points: 2
#     Edge 216, Type (0, 0), BuildingBlock: KIFKEQ_clean_linker_1, # of connection points: 2
#     Edge 217, Type (0, 0), BuildingBlock: KIFKEQ_clean_linker_1, # of connection points: 2
#     Edge 218, Type (0, 0), BuildingBlock: KIFKEQ_clean_linker_1, # of connection points: 2
#     Edge 219, Type (0, 0), BuildingBlock: KIFKEQ_clean_linker_1, # of connection points: 2
#     Edge 220, Type (0, 0), BuildingBlock: KIFKEQ_clean_linker_1, # of connection points: 2
#     Edge 221, Type (0, 0), BuildingBlock: KIFKEQ_clean_linker_1, # of connection points: 2
#     Edge 222, Type (0, 0), BuildingBlock: KIFKEQ_clean_linker_1, # of connection points: 2
#     Edge 223, Type (0, 0), BuildingBlock: KIFKEQ_clean_linker_1, # of connection points: 2
#     Edge 224, Type (0, 0), BuildingBlock: KIFKEQ_clean_linker_1, # of connection points: 2
#     Edge 225, Type (0, 0), BuildingBlock: KIFKEQ_clean_linker_1, # of connection points: 2
#     Edge 226, Type (0, 0), BuildingBlock: KIFKEQ_clean_linker_1, # of connection points: 2
#     Edge 227, Type (0, 0), BuildingBlock: KIFKEQ_clean_linker_1, # of connection points: 2
#     Edge 228, Type (0, 0), BuildingBlock: KIFKEQ_clean_linker_1, # of connection points: 2
#     Edge 229, Type (0, 0), BuildingBlock: KIFKEQ_clean_linker_1, # of connection points: 2
#     Edge 230, Type (0, 0), BuildingBlock: KIFKEQ_clean_linker_1, # of connection points: 2
#     Edge 231, Type (0, 0), BuildingBlock: KIFKEQ_clean_linker_1, # of connection points: 2
#     Edge 232, Type (0, 0), BuildingBlock: KIFKEQ_clean_linker_1, # of connection points: 2
#     Edge 233, Type (0, 0), BuildingBlock: KIFKEQ_clean_linker_1, # of connection points: 2
#     Edge 234, Type (0, 0), BuildingBlock: KIFKEQ_clean_linker_1, # of connection points: 2
#     Edge 235, Type (0, 0), BuildingBlock: KIFKEQ_clean_linker_1, # of connection points: 2
#     Edge 236, Type (0, 0), BuildingBlock: KIFKEQ_clean_linker_1, # of connection points: 2
#     Edge 237, Type (0, 0), BuildingBlock: KIFKEQ_clean_linker_1, # of connection points: 2
#     Edge 238, Type (0, 0), BuildingBlock: KIFKEQ_clean_linker_1, # of connection points: 2
#     Edge 239, Type (0, 0), BuildingBlock: KIFKEQ_clean_linker_1, # of connection points: 2
#     Edge 240, Type (0, 0), BuildingBlock: KIFKEQ_clean_linker_1, # of connection points: 2
#     Edge 241, Type (0, 0), BuildingBlock: KIFKEQ_clean_linker_1, # of connection points: 2
#     Edge 242, Type (0, 0), BuildingBlock: KIFKEQ_clean_linker_1, # of connection points: 2
#     Edge 243, Type (0, 0), BuildingBlock: KIFKEQ_clean_linker_1, # of connection points: 2
#     Edge 244, Type (0, 0), BuildingBlock: KIFKEQ_clean_linker_1, # of connection points: 2
#     Edge 245, Type (0, 0), BuildingBlock: KIFKEQ_clean_linker_1, # of connection points: 2
#     Edge 246, Type (0, 0), BuildingBlock: KIFKEQ_clean_linker_1, # of connection points: 2
#     Edge 247, Type (0, 0), BuildingBlock: KIFKEQ_clean_linker_1, # of connection points: 2
#     Edge 248, Type (0, 0), BuildingBlock: KIFKEQ_clean_linker_1, # of connection points: 2
#     Edge 249, Type (0, 0), BuildingBlock: KIFKEQ_clean_linker_1, # of connection points: 2
#     Edge 250, Type (0, 0), BuildingBlock: KIFKEQ_clean_linker_1, # of connection points: 2
#     Edge 251, Type (0, 0), BuildingBlock: KIFKEQ_clean_linker_1, # of connection points: 2
#     Edge 252, Type (0, 0), BuildingBlock: KIFKEQ_clean_linker_1, # of connection points: 2
#     Edge 253, Type (0, 0), BuildingBlock: KIFKEQ_clean_linker_1, # of connection points: 2
#     Edge 254, Type (0, 0), BuildingBlock: KIFKEQ_clean_linker_1, # of connection points: 2
#     Edge 255, Type (0, 0), BuildingBlock: KIFKEQ_clean_linker_1, # of connection points: 2
#     Edge 256, Type (0, 0), BuildingBlock: KIFKEQ_clean_linker_1, # of connection points: 2
#     Edge 257, Type (0, 0), BuildingBlock: KIFKEQ_clean_linker_1, # of connection points: 2
#     Edge 258, Type (0, 0), BuildingBlock: KIFKEQ_clean_linker_1, # of connection points: 2
#     Edge 259, Type (0, 0), BuildingBlock: KIFKEQ_clean_linker_1, # of connection points: 2
#     Edge 260, Type (0, 0), BuildingBlock: KIFKEQ_clean_linker_1, # of connection points: 2
#     Edge 261, Type (0, 0), BuildingBlock: KIFKEQ_clean_linker_1, # of connection points: 2
#     Edge 262, Type (0, 0), BuildingBlock: KIFKEQ_clean_linker_1, # of connection points: 2
#     Edge 263, Type (0, 0), BuildingBlock: KIFKEQ_clean_linker_1, # of connection points: 2
#     Edge 264, Type (0, 0), BuildingBlock: KIFKEQ_clean_linker_1, # of connection points: 2
#     Edge 265, Type (0, 0), BuildingBlock: KIFKEQ_clean_linker_1, # of connection points: 2
#     Edge 266, Type (0, 0), BuildingBlock: KIFKEQ_clean_linker_1, # of connection points: 2
#     Edge 267, Type (0, 0), BuildingBlock: KIFKEQ_clean_linker_1, # of connection points: 2
#     Edge 268, Type (0, 0), BuildingBlock: KIFKEQ_clean_linker_1, # of connection points: 2
#     Edge 269, Type (0, 0), BuildingBlock: KIFKEQ_clean_linker_1, # of connection points: 2
#     Edge 270, Type (0, 0), BuildingBlock: KIFKEQ_clean_linker_1, # of connection points: 2
#     Edge 271, Type (0, 0), BuildingBlock: KIFKEQ_clean_linker_1, # of connection points: 2
#     Edge 272, Type (0, 0), BuildingBlock: KIFKEQ_clean_linker_1, # of connection points: 2
#     Edge 273, Type (0, 0), BuildingBlock: KIFKEQ_clean_linker_1, # of connection points: 2
#     Edge 274, Type (0, 0), BuildingBlock: KIFKEQ_clean_linker_1, # of connection points: 2
#     Edge 275, Type (0, 0), BuildingBlock: KIFKEQ_clean_linker_1, # of connection points: 2
#     Edge 276, Type (0, 0), BuildingBlock: KIFKEQ_clean_linker_1, # of connection points: 2
#     Edge 277, Type (0, 0), BuildingBlock: KIFKEQ_clean_linker_1, # of connection points: 2
#     Edge 278, Type (0, 0), BuildingBlock: KIFKEQ_clean_linker_1, # of connection points: 2
#     Edge 279, Type (0, 0), BuildingBlock: KIFKEQ_clean_linker_1, # of connection points: 2
#     Edge 280, Type (0, 0), BuildingBlock: KIFKEQ_clean_linker_1, # of connection points: 2
#     Edge 281, Type (0, 0), BuildingBlock: KIFKEQ_clean_linker_1, # of connection points: 2
#     Edge 282, Type (0, 0), BuildingBlock: KIFKEQ_clean_linker_1, # of connection points: 2
#     Edge 283, Type (0, 0), BuildingBlock: KIFKEQ_clean_linker_1, # of connection points: 2
#     Edge 284, Type (0, 0), BuildingBlock: KIFKEQ_clean_linker_1, # of connection points: 2
#     Edge 285, Type (0, 0), BuildingBlock: KIFKEQ_clean_linker_1, # of connection points: 2
#     Edge 286, Type (0, 0), BuildingBlock: KIFKEQ_clean_linker_1, # of connection points: 2
#     Edge 287, Type (0, 0), BuildingBlock: KIFKEQ_clean_linker_1, # of connection points: 2
#     Edge 288, Type (0, 0), BuildingBlock: KIFKEQ_clean_linker_1, # of connection points: 2
#     Edge 289, Type (0, 0), BuildingBlock: KIFKEQ_clean_linker_1, # of connection points: 2
#     Edge 290, Type (0, 0), BuildingBlock: KIFKEQ_clean_linker_1, # of connection points: 2
#     Edge 291, Type (0, 0), BuildingBlock: KIFKEQ_clean_linker_1, # of connection points: 2
#     Edge 292, Type (0, 0), BuildingBlock: KIFKEQ_clean_linker_1, # of connection points: 2
#     Edge 293, Type (0, 0), BuildingBlock: KIFKEQ_clean_linker_1, # of connection points: 2
#     Edge 294, Type (0, 0), BuildingBlock: KIFKEQ_clean_linker_1, # of connection points: 2
#     Edge 295, Type (0, 0), BuildingBlock: KIFKEQ_clean_linker_1, # of connection points: 2
#     Edge 296, Type (0, 0), BuildingBlock: KIFKEQ_clean_linker_1, # of connection points: 2
#     Edge 297, Type (0, 0), BuildingBlock: KIFKEQ_clean_linker_1, # of connection points: 2
#     Edge 298, Type (0, 0), BuildingBlock: KIFKEQ_clean_linker_1, # of connection points: 2
#     Edge 299, Type (0, 0), BuildingBlock: KIFKEQ_clean_linker_1, # of connection points: 2
#     Edge 300, Type (0, 0), BuildingBlock: KIFKEQ_clean_linker_1, # of connection points: 2
#     Edge 301, Type (0, 0), BuildingBlock: KIFKEQ_clean_linker_1, # of connection points: 2
#     Edge 302, Type (0, 0), BuildingBlock: KIFKEQ_clean_linker_1, # of connection points: 2
#     Edge 303, Type (0, 0), BuildingBlock: KIFKEQ_clean_linker_1, # of connection points: 2
#     Edge 304, Type (0, 0), BuildingBlock: KIFKEQ_clean_linker_1, # of connection points: 2
#     Edge 305, Type (0, 0), BuildingBlock: KIFKEQ_clean_linker_1, # of connection points: 2
#     Edge 306, Type (0, 0), BuildingBlock: KIFKEQ_clean_linker_1, # of connection points: 2
#     Edge 307, Type (0, 0), BuildingBlock: KIFKEQ_clean_linker_1, # of connection points: 2
#     Edge 308, Type (0, 0), BuildingBlock: KIFKEQ_clean_linker_1, # of connection points: 2
#     Edge 309, Type (0, 0), BuildingBlock: KIFKEQ_clean_linker_1, # of connection points: 2
#     Edge 310, Type (0, 0), BuildingBlock: KIFKEQ_clean_linker_1, # of connection points: 2
#     Edge 311, Type (0, 0), BuildingBlock: KIFKEQ_clean_linker_1, # of connection points: 2
#     Edge 312, Type (0, 0), BuildingBlock: KIFKEQ_clean_linker_1, # of connection points: 2
#     Edge 313, Type (0, 0), BuildingBlock: KIFKEQ_clean_linker_1, # of connection points: 2
#     Edge 314, Type (0, 0), BuildingBlock: KIFKEQ_clean_linker_1, # of connection points: 2
#     Edge 315, Type (0, 0), BuildingBlock: KIFKEQ_clean_linker_1, # of connection points: 2
#     Edge 316, Type (0, 0), BuildingBlock: KIFKEQ_clean_linker_1, # of connection points: 2
#     Edge 317, Type (0, 0), BuildingBlock: KIFKEQ_clean_linker_1, # of connection points: 2
#     Edge 318, Type (0, 0), BuildingBlock: KIFKEQ_clean_linker_1, # of connection points: 2
#     Edge 319, Type (0, 0), BuildingBlock: KIFKEQ_clean_linker_1, # of connection points: 2
#     Edge 320, Type (0, 0), BuildingBlock: KIFKEQ_clean_linker_1, # of connection points: 2
#     Edge 321, Type (0, 0), BuildingBlock: KIFKEQ_clean_linker_1, # of connection points: 2
#     Edge 322, Type (0, 0), BuildingBlock: KIFKEQ_clean_linker_1, # of connection points: 2
#     Edge 323, Type (0, 0), BuildingBlock: KIFKEQ_clean_linker_1, # of connection points: 2
#     Edge 324, Type (0, 0), BuildingBlock: KIFKEQ_clean_linker_1, # of connection points: 2
#     Edge 325, Type (0, 0), BuildingBlock: KIFKEQ_clean_linker_1, # of connection points: 2
#     Edge 326, Type (0, 0), BuildingBlock: KIFKEQ_clean_linker_1, # of connection points: 2
#     Edge 327, Type (0, 0), BuildingBlock: KIFKEQ_clean_linker_1, # of connection points: 2
#     Edge 328, Type (0, 0), BuildingBlock: KIFKEQ_clean_linker_1, # of connection points: 2
#     Edge 329, Type (0, 0), BuildingBlock: KIFKEQ_clean_linker_1, # of connection points: 2
#     Edge 330, Type (0, 0), BuildingBlock: KIFKEQ_clean_linker_1, # of connection points: 2
#     Edge 331, Type (0, 0), BuildingBlock: KIFKEQ_clean_linker_1, # of connection points: 2
#     Edge 332, Type (0, 0), BuildingBlock: KIFKEQ_clean_linker_1, # of connection points: 2
#     Edge 333, Type (0, 0), BuildingBlock: KIFKEQ_clean_linker_1, # of connection points: 2
#     Edge 334, Type (0, 0), BuildingBlock: KIFKEQ_clean_linker_1, # of connection points: 2
#     Edge 335, Type (0, 0), BuildingBlock: KIFKEQ_clean_linker_1, # of connection points: 2
#     Edge 336, Type (0, 0), BuildingBlock: KIFKEQ_clean_linker_1, # of connection points: 2
#     Edge 337, Type (0, 0), BuildingBlock: KIFKEQ_clean_linker_1, # of connection points: 2
#     Edge 338, Type (0, 0), BuildingBlock: KIFKEQ_clean_linker_1, # of connection points: 2
#     Edge 339, Type (0, 0), BuildingBlock: KIFKEQ_clean_linker_1, # of connection points: 2
#     Edge 340, Type (0, 0), BuildingBlock: KIFKEQ_clean_linker_1, # of connection points: 2
#     Edge 341, Type (0, 0), BuildingBlock: KIFKEQ_clean_linker_1, # of connection points: 2
#     Edge 342, Type (0, 0), BuildingBlock: KIFKEQ_clean_linker_1, # of connection points: 2
#     Edge 343, Type (0, 0), BuildingBlock: KIFKEQ_clean_linker_1, # of connection points: 2
#     Edge 344, Type (0, 0), BuildingBlock: KIFKEQ_clean_linker_1, # of connection points: 2
#     Edge 345, Type (0, 0), BuildingBlock: KIFKEQ_clean_linker_1, # of connection points: 2
#     Edge 346, Type (0, 0), BuildingBlock: KIFKEQ_clean_linker_1, # of connection points: 2
#     Edge 347, Type (0, 0), BuildingBlock: KIFKEQ_clean_linker_1, # of connection points: 2
#     Edge 348, Type (0, 0), BuildingBlock: KIFKEQ_clean_linker_1, # of connection points: 2
#     Edge 349, Type (0, 0), BuildingBlock: KIFKEQ_clean_linker_1, # of connection points: 2
#     Edge 350, Type (0, 0), BuildingBlock: KIFKEQ_clean_linker_1, # of connection points: 2
#     Edge 351, Type (0, 0), BuildingBlock: KIFKEQ_clean_linker_1, # of connection points: 2
#     Edge 352, Type (0, 0), BuildingBlock: KIFKEQ_clean_linker_1, # of connection points: 2
#     Edge 353, Type (0, 0), BuildingBlock: KIFKEQ_clean_linker_1, # of connection points: 2
#     Edge 354, Type (0, 0), BuildingBlock: KIFKEQ_clean_linker_1, # of connection points: 2
#     Edge 355, Type (0, 0), BuildingBlock: KIFKEQ_clean_linker_1, # of connection points: 2
#     Edge 356, Type (0, 0), BuildingBlock: KIFKEQ_clean_linker_1, # of connection points: 2
#     Edge 357, Type (0, 0), BuildingBlock: KIFKEQ_clean_linker_1, # of connection points: 2
#     Edge 358, Type (0, 0), BuildingBlock: KIFKEQ_clean_linker_1, # of connection points: 2
#     Edge 359, Type (0, 0), BuildingBlock: KIFKEQ_clean_linker_1, # of connection points: 2
#     Edge 360, Type (0, 0), BuildingBlock: KIFKEQ_clean_linker_1, # of connection points: 2
#     Edge 361, Type (0, 0), BuildingBlock: KIFKEQ_clean_linker_1, # of connection points: 2
#     Edge 362, Type (0, 0), BuildingBlock: KIFKEQ_clean_linker_1, # of connection points: 2
#     Edge 363, Type (0, 0), BuildingBlock: KIFKEQ_clean_linker_1, # of connection points: 2
#     Edge 364, Type (0, 0), BuildingBlock: KIFKEQ_clean_linker_1, # of connection points: 2
#     Edge 365, Type (0, 0), BuildingBlock: KIFKEQ_clean_linker_1, # of connection points: 2
#     Edge 366, Type (0, 0), BuildingBlock: KIFKEQ_clean_linker_1, # of connection points: 2
#     Edge 367, Type (0, 0), BuildingBlock: KIFKEQ_clean_linker_1, # of connection points: 2
#     Edge 368, Type (0, 0), BuildingBlock: KIFKEQ_clean_linker_1, # of connection points: 2
#     Edge 369, Type (0, 0), BuildingBlock: KIFKEQ_clean_linker_1, # of connection points: 2
#     Edge 370, Type (0, 0), BuildingBlock: KIFKEQ_clean_linker_1, # of connection points: 2
#     Edge 371, Type (0, 0), BuildingBlock: KIFKEQ_clean_linker_1, # of connection points: 2
#     Edge 372, Type (0, 0), BuildingBlock: KIFKEQ_clean_linker_1, # of connection points: 2
#     Edge 373, Type (0, 0), BuildingBlock: KIFKEQ_clean_linker_1, # of connection points: 2
#     Edge 374, Type (0, 0), BuildingBlock: KIFKEQ_clean_linker_1, # of connection points: 2
#     Edge 375, Type (0, 0), BuildingBlock: KIFKEQ_clean_linker_1, # of connection points: 2
#     Edge 376, Type (0, 0), BuildingBlock: KIFKEQ_clean_linker_1, # of connection points: 2
#     Edge 377, Type (0, 0), BuildingBlock: KIFKEQ_clean_linker_1, # of connection points: 2
#     Edge 378, Type (0, 0), BuildingBlock: KIFKEQ_clean_linker_1, # of connection points: 2
#     Edge 379, Type (0, 0), BuildingBlock: KIFKEQ_clean_linker_1, # of connection points: 2
#     Edge 380, Type (0, 0), BuildingBlock: KIFKEQ_clean_linker_1, # of connection points: 2
#     Edge 381, Type (0, 0), BuildingBlock: KIFKEQ_clean_linker_1, # of connection points: 2
#     Edge 382, Type (0, 0), BuildingBlock: KIFKEQ_clean_linker_1, # of connection points: 2
#     Edge 383, Type (0, 0), BuildingBlock: KIFKEQ_clean_linker_1, # of connection points: 2
# Relax obj value: 0.381
# Max RMSD: 0.265
# Mean RMSD: 0.249
data_MOF--net-ana-e--node1-BETDEL_clean_sbu_0--edge1-KIFKEQ_clean_linker_1
_symmetry_space_group_name_H-M    P1
_symmetry_Int_Tables_number       1
_symmetry_cell_setting            triclinic
loop_
_symmetry_equiv_pos_as_xyz
'x, y, z'
_cell_length_a     78.99578
_cell_length_b     80.032241
_cell_length_c     81.441942
_cell_angle_alpha  90.20362
_cell_angle_beta   90.76583
_cell_angle_gamma 89.570476
loop_
_atom_site_label
_atom_site_type_symbol
_atom_site_fract_x
_atom_site_fract_y
_atom_site_fract_z
_atom_type_partial_charge
Dy0 Dy 0.02203 0.09233 0.36053 0.0
C1 C 0.96369 0.11841 0.39421 0.0
C2 C 0.04996 0.08446 0.34282 0.0
Dy3 Dy 0.99233 0.11071 0.37768 0.0
O4 O 0.04237 0.07437 0.35272 0.0
O5 O 0.04223 0.09883 0.34253 0.0
O6 O 0.01415 0.06757 0.37094 0.0
O7 O 0.9962 0.08652 0.36649 0.0
C8 C -0.00129 0.07264 0.37329 0.0
C9 C 0.01607 0.13031 0.36508 0.0
O10 O 0.00724 0.10096 0.39918 0.0
O11 O 0.0329 0.09768 0.38599 0.0
O12 O 0.97802 0.12615 0.39594 0.0
O13 O 0.96513 0.10647 0.3835 0.0
O14 O 0.00038 0.13509 0.36659 0.0
O15 O 0.01835 0.11645 0.37196 0.0
O16 O 0.00547 0.09989 0.33852 0.0
O17 O 0.9822 0.11117 0.35217 0.0
C18 C 0.02393 0.09916 0.39971 0.0
C19 C 0.99014 0.10702 0.33852 0.0
Dy20 Dy 0.14641 0.78639 0.60623 0.0
C21 C 0.10294 0.7315 0.62604 0.0
C22 C 0.15818 0.81675 0.59693 0.0
Dy23 Dy 0.12141 0.75922 0.61909 0.0
O24 O 0.14317 0.81103 0.5938 0.0
O25 O 0.16702 0.8058 0.60525 0.0
O26 O 0.16592 0.7669 0.60057 0.0
O27 O 0.14862 0.76318 0.6198 0.0
C28 C 0.15996 0.75641 0.61123 0.0
C29 C 0.10875 0.7896 0.6133 0.0
O30 O 0.13202 0.76812 0.64287 0.0
O31 O 0.14199 0.79339 0.63282 0.0
O32 O 0.0973 0.74676 0.62614 0.0
O33 O 0.11894 0.73129 0.62242 0.0
O34 O 0.10318 0.78016 0.62496 0.0
O35 O 0.11958 0.78194 0.60504 0.0
O36 O 0.13832 0.77562 0.58209 0.0
O37 O 0.12271 0.75323 0.59222 0.0
C38 C 0.1376 0.78355 0.6452 0.0
C39 C 0.12934 0.76184 0.58001 0.0
Dy40 Dy 0.48021 0.87973 0.83668 0.0
C41 C 0.46489 0.8692 0.90361 0.0
C42 C 0.49157 0.87941 0.80518 0.0
Dy43 Dy 0.47467 0.87647 0.87269 0.0
O44 O 0.48459 0.86709 0.81268 0.0
O45 O 0.49243 0.89234 0.81494 0.0
O46 O 0.45563 0.86697 0.83162 0.0
O47 O 0.47046 0.85977 0.85206 0.0
C48 C 0.45658 0.85761 0.84454 0.0
C49 C 0.49991 0.89716 0.86583 0.0
O50 O 0.49442 0.85693 0.87025 0.0
O51 O 0.5041 0.86661 0.84547 0.0
O52 O 0.46839 0.88409 0.89845 0.0
O53 O 0.4662 0.85841 0.89178 0.0
O54 O 0.49902 0.88841 0.87912 0.0
O55 O 0.48621 0.89626 0.85751 0.0
O56 O 0.45784 0.89723 0.83837 0.0
O57 O 0.4506 0.88905 0.86471 0.0
C58 C 0.506 0.85727 0.85878 0.0
C59 C 0.44716 0.89706 0.85086 0.0
Dy60 Dy 0.35799 0.21787 0.10564 0.0
C61 C 0.39595 0.2734 0.13173 0.0
C62 C 0.34426 0.18815 0.09613 0.0
Dy63 Dy 0.38042 0.24501 0.1212 0.0
O64 O 0.33645 0.19959 0.10455 0.0
O65 O 0.35947 0.19304 0.0928 0.0
O66 O 0.33874 0.2377 0.09862 0.0
O67 O 0.35367 0.24033 0.11996 0.0
C68 C 0.34307 0.24748 0.11075 0.0
C69 C 0.39528 0.21538 0.11828 0.0
O70 O 0.36716 0.23592 0.14333 0.0
O71 O 0.36102 0.21 0.13212 0.0
O72 O 0.40058 0.25832 0.13551 0.0
O73 O 0.38266 0.27306 0.12216 0.0
O74 O 0.39902 0.22597 0.12979 0.0
O75 O 0.3853 0.22176 0.10775 0.0
O76 O 0.36688 0.22933 0.08238 0.0
O77 O 0.3813 0.25166 0.09439 0.0
C78 C 0.36311 0.21999 0.14504 0.0
C79 C 0.37542 0.24348 0.08132 0.0
Dy80 Dy 0.01739 0.881 0.13568 0.0
C81 C 0.95283 0.8604 0.10574 0.0
C82 C 0.04789 0.88708 0.15047 0.0
Dy83 Dy 0.98474 0.86421 0.11801 0.0
O84 O 0.0355 0.89784 0.14937 0.0
O85 O 0.04344 0.87299 0.1438 0.0
O86 O 0.00843 0.9064 0.12629 0.0
O87 O 0.99128 0.88715 0.13028 0.0
C88 C 0.99285 0.9015 0.12444 0.0
C89 C 0.00995 0.84192 0.12178 0.0
O90 O -0.00158 0.87648 0.09738 0.0
O91 O 0.0253 0.8783 0.10945 0.0
O92 O 0.9666 0.85653 0.098 0.0
O93 O 0.95654 0.86637 0.12018 0.0
O94 O 0.99544 0.83822 0.11496 0.0
O95 O 0.00946 0.85695 0.12633 0.0
O96 O 0.00298 0.87158 0.15765 0.0
O97 O 0.97977 0.85879 0.14434 0.0
C98 C 0.01508 0.87826 0.09635 0.0
C99 C 0.98854 0.86299 0.15776 0.0
Dy100 Dy 0.37801 0.7675 0.40097 0.0
C101 C 0.37645 0.77711 0.33195 0.0
C102 C 0.3771 0.75652 0.43269 0.0
Dy103 Dy 0.37675 0.77024 0.36454 0.0
O104 O 0.39021 0.7628 0.42564 0.0
O105 O 0.36433 0.75648 0.42246 0.0
O106 O 0.39285 0.79117 0.4033 0.0
O107 O 0.39637 0.7757 0.3827 0.0
C108 C 0.40011 0.7896 0.38916 0.0
C109 C 0.35656 0.74654 0.37611 0.0
O110 O 0.39698 0.75082 0.36624 0.0
O111 O 0.39073 0.74365 0.39291 0.0
O112 O 0.39002 0.77547 0.34098 0.0
O113 O 0.36304 0.77555 0.34081 0.0
O114 O 0.36423 0.74563 0.36223 0.0
O115 O 0.35858 0.76081 0.38264 0.0
O116 O 0.36027 0.78937 0.39943 0.0
O117 O 0.36655 0.79527 0.37238 0.0
C118 C 0.39844 0.74058 0.37887 0.0
C119 C 0.35962 0.79946 0.38656 0.0
Dy120 Dy 0.48098 0.11131 0.6601 0.0
C121 C 0.46324 0.10526 0.59158 0.0
C122 C 0.49139 0.10898 0.69203 0.0
Dy123 Dy 0.47214 0.10451 0.62405 0.0
O124 O 0.4851 0.1223 0.68518 0.0
O125 O 0.49193 0.09682 0.68141 0.0
O126 O 0.47239 0.13789 0.65784 0.0
O127 O 0.46086 0.11928 0.64343 0.0
C128 C 0.46174 0.13475 0.64593 0.0
C129 C 0.49284 0.08176 0.63826 0.0
O130 O 0.49273 0.12364 0.62165 0.0
O131 O 0.50347 0.12303 0.64835 0.0
O132 O 0.46497 0.09184 0.60034 0.0
O133 O 0.46631 0.11837 0.60057 0.0
O134 O 0.48181 0.07823 0.62686 0.0
O135 O 0.49287 0.09729 0.64047 0.0
O136 O 0.45814 0.09453 0.66263 0.0
O137 O 0.44828 0.09606 0.63569 0.0
C138 C 0.50417 0.12816 0.63289 0.0
C139 C 0.4464 0.09143 0.65118 0.0
Dy140 Dy 0.15666 0.21583 0.89634 0.0
C141 C 0.11655 0.26849 0.86525 0.0
C142 C 0.16794 0.1863 0.90887 0.0
Dy143 Dy 0.13246 0.24336 0.88151 0.0
O144 O 0.17547 0.19458 0.89734 0.0
O145 O 0.15458 0.19439 0.91371 0.0
O146 O 0.17757 0.23467 0.89946 0.0
O147 O 0.15918 0.23724 0.88073 0.0
C148 C 0.17143 0.24418 0.88785 0.0
C149 C 0.11799 0.21888 0.89877 0.0
O150 O 0.13874 0.22956 0.85874 0.0
O151 O 0.15263 0.20631 0.87009 0.0
O152 O 0.11114 0.25321 0.86594 0.0
O153 O 0.13072 0.27005 0.87339 0.0
O154 O 0.11176 0.23391 0.89794 0.0
O155 O 0.13033 0.21769 0.88937 0.0
O156 O 0.14825 0.23086 0.9187 0.0
O157 O 0.14025 0.25514 0.90493 0.0
C158 C 0.1459 0.21461 0.85731 0.0
C159 C 0.14364 0.24692 0.91862 0.0
Dy160 Dy 0.34303 0.03714 0.1039 0.0
C161 C 0.37643 0.9799 0.13322 0.0
C162 C 0.32781 0.06675 0.09587 0.0
Dy163 Dy 0.35966 0.00783 0.12335 0.0
O164 O 0.33694 0.05771 0.08604 0.0
O165 O 0.32655 0.05929 0.10995 0.0
O166 O 0.35281 0.0273 0.07976 0.0
O167 O 0.34819 0.011 0.0993 0.0
C168 C 0.35484 0.01224 0.08542 0.0
C169 C 0.34817 0.03331 0.14144 0.0
O170 O 0.38208 0.01965 0.11179 0.0
O171 O 0.36999 0.04586 0.10852 0.0
O172 O 0.38028 0.99496 0.13788 0.0
O173 O 0.36335 0.98015 0.12343 0.0
O174 O 0.3491 0.01808 0.14689 0.0
O175 O 0.35511 0.03421 0.12771 0.0
O176 O 0.31969 0.02249 0.11167 0.0
O177 O 0.33304 -0.0007 0.12368 0.0
C178 C 0.38359 0.03594 0.10957 0.0
C179 C 0.31924 0.00766 0.11916 0.0
Dy180 Dy 0.20289 0.09272 0.34813 0.0
C181 C 0.26261 0.12114 0.37786 0.0
C182 C 0.1725 0.08142 0.33677 0.0
Dy183 Dy 0.23208 0.10887 0.36832 0.0
O184 O 0.1815 0.09273 0.32964 0.0
O185 O 0.1802 0.07621 0.34999 0.0
O186 O 0.22042 0.09152 0.32623 0.0
O187 O 0.22249 0.11071 0.3436 0.0
C188 C 0.22906 0.10444 0.33112 0.0
C189 C 0.20627 0.09909 0.38637 0.0
O190 O 0.21745 0.13117 0.36017 0.0
O191 O 0.192 0.11723 0.35722 0.0
O192 O 0.24819 0.12533 0.38421 0.0
O193 O 0.26037 0.11018 0.36624 0.0
O194 O 0.21696 0.11041 0.39121 0.0
O195 O 0.21154 0.09181 0.37365 0.0
O196 O 0.21809 0.06951 0.35313 0.0
O197 O 0.24144 0.08254 0.36537 0.0
C198 C 0.20072 0.1312 0.35938 0.0
C199 C 0.2335 0.06906 0.3598 0.0
Dy200 Dy 0.1514 0.96908 0.60744 0.0
C201 C 0.11846 0.02489 0.6407 0.0
C202 C 0.16449 0.93895 0.59819 0.0
Dy203 Dy 0.13189 -0.00363 0.62777 0.0
O204 O 0.15588 0.94887 0.58853 0.0
O205 O 0.16604 0.94563 0.61263 0.0
O206 O 0.15821 0.98833 0.58845 0.0
O207 O 0.13594 0.99079 0.60213 0.0
C208 C 0.14544 -0.00202 0.59221 0.0
C209 C 0.13778 0.96725 0.64274 0.0
O210 O 0.11152 0.98634 0.61183 0.0
O211 O 0.12411 0.96036 0.60821 0.0
O212 O 0.11328 0.00987 0.64373 0.0
O213 O 0.13102 0.02436 0.63055 0.0
O214 O 0.12482 0.97665 0.64614 0.0
O215 O 0.14738 0.97466 0.63311 0.0
O216 O 0.17361 0.98211 0.61887 0.0
O217 O 0.15878 0.00445 0.63057 0.0
C218 C 0.11045 0.97022 0.60838 0.0
C219 C 0.1731 -0.00345 0.62694 0.0
Dy220 Dy 0.28787 0.8888 0.86429 0.0
C221 C 0.22387 0.86672 0.88996 0.0
C222 C 0.32128 0.89599 0.85874 0.0
Dy223 Dy 0.25616 0.87371 0.88088 0.0
O224 O 0.30947 0.89548 0.84743 0.0
O225 O 0.31473 0.89272 0.87289 0.0
O226 O 0.27088 0.8989 0.84368 0.0
O227 O 0.26456 0.87712 0.85616 0.0
C228 C 0.25933 0.88756 0.84582 0.0
C229 C 0.28434 0.87248 0.8991 0.0
O230 O 0.26456 0.85173 0.86619 0.0
O231 O 0.29209 0.86091 0.86234 0.0
O232 O 0.2374 0.85935 0.89568 0.0
O233 O 0.22798 0.87783 0.87916 0.0
O234 O 0.27215 0.86177 0.90018 0.0
O235 O 0.28005 0.88443 0.88971 0.0
O236 O 0.27737 0.9125 0.87474 0.0
O237 O 0.25233 0.90123 0.88469 0.0
C238 C 0.28057 0.84886 0.86231 0.0
C239 C 0.26237 0.91406 0.88172 0.0
Dy240 Dy 0.34807 0.95629 0.38468 0.0
C241 C 0.36829 0.02 0.35832 0.0
C242 C 0.3417 0.92345 0.39152 0.0
Dy243 Dy 0.36069 0.98802 0.36639 0.0
O244 O 0.3514 0.93316 0.40031 0.0
O245 O 0.33514 0.93186 0.37938 0.0
O246 O 0.34343 0.97216 0.40742 0.0
O247 O 0.36256 0.97841 0.39108 0.0
C248 C 0.35468 0.98327 0.40351 0.0
C249 C 0.35617 0.96123 0.34738 0.0
O250 O 0.38496 0.97728 0.37537 0.0
O251 O 0.37475 0.95029 0.37681 0.0
O252 O 0.37415 0.00675 0.35102 0.0
O253 O 0.35818 0.01578 0.37004 0.0
O254 O 0.36675 0.97304 0.34393 0.0
O255 O 0.34725 0.9654 0.35948 0.0
O256 O 0.32276 0.96808 0.37935 0.0
O257 O 0.33276 0.99262 0.36744 0.0
C258 C 0.38746 0.96093 0.37539 0.0
C259 C 0.32033 0.98301 0.37261 0.0
Dy260 Dy 0.28983 0.10394 0.6496 0.0
C261 C 0.22756 0.12234 0.61331 0.0
C262 C 0.3222 0.09567 0.65849 0.0
Dy263 Dy 0.25651 0.11112 0.62853 0.0
O264 O 0.31253 0.08703 0.64868 0.0
O265 O 0.31413 0.10893 0.66362 0.0
O266 O 0.27456 0.10283 0.67292 0.0
O267 O 0.26607 0.11707 0.65291 0.0
C268 C 0.26211 0.11163 0.66675 0.0
C269 C 0.28144 0.09413 0.61346 0.0
O270 O 0.2678 0.13651 0.63034 0.0
O271 O 0.29498 0.12965 0.64005 0.0
O272 O 0.24287 0.1253 0.60854 0.0
O273 O 0.22801 0.11318 0.6265 0.0
O274 O 0.26553 0.09251 0.60964 0.0
O275 O 0.283 0.10571 0.62376 0.0
O276 O 0.27811 0.07875 0.64617 0.0
O277 O 0.25033 0.08786 0.64197 0.0
C278 C 0.28373 0.14048 0.63388 0.0
C279 C 0.2616 0.07608 0.64553 0.0
Dy280 Dy 0.15294 0.03367 0.89513 0.0
C281 C 0.126 0.97606 0.85995 0.0
C282 C 0.16529 0.06357 0.90569 0.0
Dy283 Dy 0.13853 0.00502 0.87253 0.0
O284 O 0.15397 0.05492 0.91335 0.0
O285 O 0.16991 0.05577 0.89249 0.0
O286 O 0.15181 0.01653 0.91703 0.0
O287 O 0.13459 0.01383 0.89732 0.0
C288 C 0.13983 0.00744 0.91051 0.0
C289 C 0.15107 0.03092 0.85643 0.0
O290 O 0.1151 0.01928 0.87827 0.0
O291 O 0.12815 0.04423 0.8854 0.0
O292 O 0.12246 0.99091 0.85451 0.0
O293 O 0.13652 0.97695 0.87233 0.0
O294 O 0.14044 0.02057 0.84974 0.0
O295 O 0.15622 0.02535 0.87003 0.0
O296 O 0.1763 0.01773 0.89317 0.0
O297 O 0.16436 0.99513 0.87894 0.0
C298 C 0.11461 0.03567 0.88055 0.0
C299 C 0.17725 0.00257 0.88653 0.0
Dy300 Dy 0.20263 0.89378 0.14099 0.0
C301 C 0.26193 0.86783 0.10922 0.0
C302 C 0.1716 0.90223 0.15308 0.0
Dy303 Dy 0.23188 0.87914 0.12084 0.0
O304 O 0.1818 0.89107 0.15927 0.0
O305 O 0.17857 0.90915 0.14047 0.0
O306 O 0.22012 0.89532 0.16303 0.0
O307 O 0.22313 0.87604 0.1457 0.0
C308 C 0.22933 0.88265 0.15842 0.0
C309 C 0.20577 0.89016 0.10269 0.0
O310 O 0.21857 0.85588 0.12769 0.0
O311 O 0.19274 0.86906 0.13087 0.0
O312 O 0.24725 0.86173 0.10539 0.0
O313 O 0.26027 0.88008 0.11957 0.0
O314 O 0.21666 0.87933 0.09737 0.0
O315 O 0.21103 0.89648 0.11593 0.0
O316 O 0.21746 0.91753 0.13702 0.0
O317 O 0.24203 0.90419 0.12817 0.0
C318 C 0.20187 0.85529 0.12821 0.0
C319 C 0.23375 0.91779 0.13296 0.0
Dy320 Dy 0.11911 0.36096 0.0316 0.0
C321 C 0.13796 0.39434 0.97151 0.0
C322 C 0.1118 0.34702 0.0611 0.0
Dy323 Dy 0.13268 0.38088 0.00175 0.0
O324 O 0.12504 0.3434 0.05244 0.0
O325 O 0.1027 0.35838 0.05375 0.0
O326 O 0.09543 0.35548 0.01709 0.0
O327 O 0.1084 0.37791 0.01338 0.0
C328 C 0.09638 0.36897 0.00834 0.0
C329 C 0.1558 0.37208 0.02444 0.0
O330 O 0.12318 0.40161 0.01761 0.0
O331 O 0.12609 0.38654 0.04178 0.0
O332 O 0.14578 0.39873 0.98495 0.0
O333 O 0.12714 0.3827 0.97464 0.0
O334 O 0.15732 0.3852 0.01527 0.0
O335 O 0.14325 0.36377 0.01975 0.0
O336 O 0.12625 0.3392 0.01544 0.0
O337 O 0.13092 0.35467 0.99173 0.0
C338 C 0.12486 0.40102 0.03382 0.0
C339 C 0.12921 0.34016 -0.00057 0.0
Dy340 Dy 0.6039 0.15834 0.98016 0.0
C341 C 0.6192 0.0944 0.95111 0.0
C342 C 0.59602 0.18981 0.99061 0.0
Dy343 Dy 0.60867 0.12231 0.96697 0.0
O344 O 0.60487 0.18621 0.97775 0.0
O345 O 0.59104 0.17609 -0.00247 0.0
O346 O 0.63238 0.16094 0.98051 0.0
O347 O 0.62039 0.14609 0.96281 0.0
C348 C 0.63444 0.1507 0.96832 0.0
C349 C 0.58305 0.12574 0.98757 0.0
O350 O 0.6251 0.12252 0.98965 0.0
O351 O 0.61173 0.14448 0.00296 0.0
O352 O 0.60371 0.10002 0.95097 0.0
O353 O 0.62895 0.10404 0.95986 0.0
O354 O 0.59126 0.11181 0.98547 0.0
O355 O 0.58763 0.13655 0.97734 0.0
O356 O 0.59025 0.16063 0.95578 0.0
O357 O 0.59713 0.13438 0.94497 0.0
C358 C 0.62207 0.13134 0.00311 0.0
C359 C 0.59015 0.14943 0.94367 0.0
Dy360 Dy 0.11943 0.34622 0.21087 0.0
C361 C 0.14393 0.38884 0.26346 0.0
C362 C 0.11201 0.3359 0.17993 0.0
Dy363 Dy 0.13468 0.36948 0.23757 0.0
O364 O 0.10249 0.3327 0.19253 0.0
O365 O 0.12497 0.34473 0.18435 0.0
O366 O 0.12777 0.32311 0.22453 0.0
O367 O 0.12248 0.34523 0.23741 0.0
C368 C 0.12859 0.33073 0.23866 0.0
C369 C 0.13541 0.38068 0.20655 0.0
O370 O 0.157 0.35361 0.23235 0.0
O371 O 0.14747 0.34689 0.20631 0.0
O372 O 0.14675 0.37283 0.26255 0.0
O373 O 0.13579 0.39405 0.2505 0.0
O374 O 0.14721 0.38381 0.21733 0.0
O375 O 0.12369 0.37277 0.21317 0.0
O376 O 0.09533 0.3584 0.21963 0.0
O377 O 0.10711 0.37247 0.24222 0.0
C378 C 0.15992 0.3485 0.21726 0.0
C379 C 0.09393 0.36797 0.23298 0.0
Dy380 Dy 0.88999 0.84962 0.46142 0.0
C381 C 0.86005 0.87582 0.52163 0.0
C382 C 0.89524 0.84012 0.4294 0.0
Dy383 Dy 0.87012 0.86472 0.4916 0.0
O384 O 0.88202 0.83662 0.43802 0.0
O385 O 0.90601 0.84841 0.43851 0.0
O386 O 0.91328 0.84622 0.47776 0.0
O387 O 0.89567 0.8653 0.48256 0.0
C388 C 0.9086 0.85787 0.48808 0.0
C389 C 0.85128 0.85838 0.46485 0.0
O390 O 0.87923 0.88798 0.48003 0.0
O391 O 0.88443 0.87637 0.45428 0.0
O392 O 0.85271 0.87947 0.50773 0.0
O393 O 0.87288 0.86589 0.51918 0.0
O394 O 0.84721 0.86941 0.47586 0.0
O395 O 0.86396 0.85003 0.46983 0.0
O396 O 0.88594 0.82593 0.47556 0.0
O397 O 0.87267 0.83776 0.4985 0.0
C398 C 0.8817 0.88942 0.46405 0.0
C399 C 0.8791 0.82483 0.49037 0.0
Dy400 Dy 0.88254 0.13066 0.21541 0.0
C401 C 0.84561 0.11237 0.27351 0.0
C402 C 0.89741 0.13698 0.18604 0.0
Dy403 Dy 0.86127 0.11724 0.24433 0.0
O404 O 0.88626 0.14652 0.19304 0.0
O405 O 0.90066 0.12407 0.19521 0.0
O406 O 0.88632 0.15456 0.22965 0.0
O407 O 0.86394 0.14095 0.23215 0.0
C408 C 0.87213 0.15326 0.23746 0.0
C409 C 0.87137 0.09373 0.22333 0.0
O410 O 0.84082 0.12552 0.22714 0.0
O411 O 0.85722 0.12351 0.20384 0.0
O412 O 0.84071 0.10628 0.25946 0.0
O413 O 0.85902 0.12139 0.27153 0.0
O414 O 0.85871 0.09173 0.23308 0.0
O415 O 0.87941 0.10667 0.22727 0.0
O416 O 0.90388 0.12475 0.23333 0.0
O417 O 0.88684 0.12062 0.25609 0.0
C418 C 0.84218 0.12392 0.21102 0.0
C419 C 0.90195 0.12236 0.24938 0.0
Dy420 Dy 0.40267 0.63611 0.53606 0.0
C421 C 0.36707 0.61549 0.47722 0.0
C422 C 0.41066 0.64653 0.56717 0.0
Dy423 Dy 0.38047 0.62829 0.50539 0.0
O424 O 0.42017 0.63686 0.55823 0.0
O425 O 0.39718 0.65082 0.55888 0.0
O426 O 0.42577 0.62503 0.52363 0.0
O427 O 0.40624 0.63609 0.50979 0.0
C428 C 0.41964 0.62767 0.50892 0.0
C429 C 0.36349 0.63745 0.53217 0.0
O430 O 0.38992 0.60305 0.51315 0.0
O431 O 0.3959 0.60941 0.54036 0.0
O432 O 0.36228 0.61174 0.4919 0.0
O433 O 0.37899 0.62658 0.47781 0.0
O434 O 0.3582 0.64054 0.51729 0.0
O435 O 0.3766 0.62838 0.53179 0.0
O436 O 0.39743 0.66207 0.52596 0.0
O437 O 0.38342 0.65545 0.50127 0.0
C438 C 0.3929 0.59844 0.52849 0.0
C439 C 0.38981 0.66635 0.51188 0.0
Dy440 Dy 0.10861 0.64582 0.3007 0.0
C441 C 0.134 0.60538 0.24642 0.0
C442 C 0.09719 0.65647 0.33026 0.0
Dy443 Dy 0.12521 0.62331 0.27357 0.0
O444 O 0.08839 0.6573 0.31665 0.0
O445 O 0.11194 0.64982 0.32766 0.0
O446 O 0.11419 0.66922 0.28657 0.0
O447 O 0.11058 0.64637 0.27433 0.0
C448 C 0.11511 0.66126 0.27264 0.0
C449 C 0.12764 0.61254 0.30466 0.0
O450 O 0.14619 0.64082 0.2792 0.0
O451 O 0.13673 0.64728 0.30532 0.0
O452 O 0.12906 0.59914 0.26023 0.0
O453 O 0.13419 0.62162 0.24734 0.0
O454 O 0.13929 0.60974 0.29386 0.0
O455 O 0.11521 0.61974 0.298 0.0
O456 O 0.08548 0.6323 0.29155 0.0
O457 O 0.09784 0.61749 0.26983 0.0
C458 C 0.14889 0.6466 0.29423 0.0
C459 C 0.08459 0.622 0.27872 0.0
Dy460 Dy 0.38137 0.34885 0.77178 0.0
C461 C 0.35213 0.37548 0.71127 0.0
C462 C 0.39107 0.3428 0.80384 0.0
Dy463 Dy 0.36367 0.36649 0.74167 0.0
O464 O 0.38359 0.33209 0.79413 0.0
O465 O 0.39375 0.3565 0.79578 0.0
O466 O 0.38766 0.32683 0.75527 0.0
O467 O 0.36588 0.34133 0.75085 0.0
C468 C 0.37498 0.32978 0.74521 0.0
C469 C 0.36863 0.38576 0.76803 0.0
O470 O 0.34147 0.35487 0.75304 0.0
O471 O 0.35389 0.35283 0.77895 0.0
O472 O 0.3471 0.38197 0.725 0.0
O473 O 0.36355 0.36405 0.71413 0.0
O474 O 0.35664 0.38838 0.75728 0.0
O475 O 0.37852 0.37442 0.76307 0.0
O476 O 0.40482 0.35572 0.75771 0.0
O477 O 0.39082 0.36652 0.73449 0.0
C478 C 0.34027 0.35368 0.76916 0.0
C479 C 0.40481 0.36212 0.74261 0.0
Dy480 Dy 0.00217 0.88547 0.6165 0.0
C481 C 0.94043 0.91145 0.64526 0.0
C482 C 0.03116 0.87837 0.60034 0.0
Dy483 Dy 0.97097 0.90244 0.63289 0.0
O484 O 0.01701 0.87031 0.59847 0.0
O485 O 0.02934 0.89034 0.61098 0.0
O486 O -0.00131 0.86229 0.63184 0.0
O487 O 0.978 0.87734 0.62571 0.0
C488 C 0.9827 0.86515 0.63428 0.0
C489 C 0.99561 0.92276 0.62299 0.0
O490 O 0.9875 0.89533 0.65481 0.0
O491 O 0.01259 0.89476 0.64043 0.0
O492 O 0.94789 0.91898 0.63326 0.0
O493 O 0.94969 0.89904 0.65052 0.0
O494 O 0.9866 0.92588 0.63589 0.0
O495 O 0.99033 0.90985 0.61598 0.0
O496 O 0.9853 0.88751 0.5945 0.0
O497 O 0.96028 0.89484 0.60781 0.0
C498 C 0.00433 0.89498 0.65446 0.0
C499 C 0.96868 0.8901 0.59439 0.0
Dy500 Dy 0.87036 0.23521 0.37035 0.0
C501 C 0.83768 0.17717 0.39689 0.0
C502 C 0.88637 0.26354 0.36085 0.0
Dy503 Dy 0.84729 0.20774 0.38598 0.0
O504 O 0.89255 0.24851 0.35987 0.0
O505 O 0.87117 0.26316 0.36679 0.0
O506 O 0.88977 0.21504 0.36544 0.0
O507 O 0.87385 0.21365 0.38576 0.0
C508 C 0.88493 0.20608 0.37777 0.0
C509 C 0.83208 0.23656 0.37896 0.0
O510 O 0.85617 0.22029 0.40911 0.0
O511 O 0.8703 0.24259 0.39694 0.0
O512 O 0.85251 0.1837 0.39895 0.0
O513 O 0.82777 0.18748 0.3889 0.0
O514 O 0.82692 0.22682 0.39068 0.0
O515 O 0.84355 0.22957 0.3708 0.0
O516 O 0.8589 0.22449 0.34777 0.0
O517 O 0.85122 0.19927 0.35964 0.0
C518 C 0.86479 0.23444 0.40998 0.0
C519 C 0.85436 0.20863 0.34652 0.0
Dy520 Dy 0.5184 0.11196 0.12124 0.0
C521 C 0.49705 0.10247 0.18885 0.0
C522 C 0.52352 0.12206 0.08995 0.0
Dy523 Dy 0.51107 0.11027 0.15955 0.0
O524 O 0.5131 0.11044 0.09419 0.0
O525 O 0.53152 0.12784 0.10275 0.0
O526 O 0.51019 0.08524 0.11935 0.0
O527 O 0.49924 0.10091 0.1368 0.0
C528 C 0.49908 0.08625 0.13102 0.0
C529 C 0.53196 0.13557 0.15275 0.0
O530 O 0.53477 0.0942 0.15728 0.0
O531 O 0.54255 0.10079 0.13032 0.0
O532 O 0.50452 0.1164 0.1855 0.0
O533 O 0.49751 0.09248 0.17619 0.0
O534 O 0.52666 0.1326 0.1675 0.0
O535 O 0.52545 0.12498 0.1432 0.0
O536 O 0.49744 0.13055 0.12344 0.0
O537 O 0.48908 0.12593 0.15047 0.0
C538 C 0.54573 0.094 0.14489 0.0
C539 C 0.48698 0.13299 0.13581 0.0
Dy540 Dy 0.61341 0.74446 0.86889 0.0
C541 C 0.64386 0.80438 0.89185 0.0
C542 C 0.59587 0.71769 0.85747 0.0
Dy543 Dy 0.63435 0.77236 0.88529 0.0
O544 O 0.58939 0.73208 0.86125 0.0
O545 O 0.61211 0.71764 0.86026 0.0
O546 O 0.5968 0.76383 0.85794 0.0
O547 O 0.60732 0.76797 0.88164 0.0
C548 C 0.59856 0.77426 0.87002 0.0
C549 C 0.651 0.74365 0.88052 0.0
O550 O 0.62339 0.76123 0.90801 0.0
O551 O 0.61358 0.73687 0.89544 0.0
O552 O 0.65242 0.79121 0.89645 0.0
O553 O 0.63014 0.79994 0.88417 0.0
O554 O 0.65524 0.75403 0.8922 0.0
O555 O 0.6399 0.75013 0.87141 0.0
O556 O 0.62663 0.75316 0.84652 0.0
O557 O 0.63669 0.77783 0.85812 0.0
C558 C 0.61702 0.74594 0.90874 0.0
C559 C 0.63352 0.76815 0.84513 0.0
Dy560 Dy 0.00448 0.12669 0.87836 0.0
C561 C 0.94448 0.10471 0.84421 0.0
C562 C 0.03438 0.1336 0.89376 0.0
Dy563 Dy 0.97524 0.113 0.85729 0.0
O564 O 0.01955 0.1379 0.899 0.0
O565 O 0.03292 0.1255 0.87996 0.0
O566 O 0.98828 0.14675 0.88877 0.0
O567 O 0.98322 0.13807 0.86477 0.0
C568 C 0.97786 0.14711 0.87636 0.0
C569 C 0.00242 0.09303 0.86093 0.0
O570 O 0.98936 0.12524 0.83702 0.0
O571 O 0.01311 0.13257 0.85276 0.0
O572 O 0.95505 0.0943 0.85109 0.0
O573 O 0.9508 0.11965 0.84432 0.0
O574 O 0.99329 0.09332 0.84753 0.0
O575 O 0.99584 0.1022 0.8716 0.0
O576 O 0.99141 0.11065 0.89639 0.0
O577 O 0.96545 0.11316 0.88328 0.0
C578 C 0.00483 0.13147 0.83848 0.0
C579 C 0.9747 0.11025 0.8967 0.0
Dy580 Dy 0.62008 0.22173 0.62436 0.0
C581 C 0.62435 0.24192 0.55751 0.0
C582 C 0.61749 0.21015 0.65542 0.0
Dy583 Dy 0.62066 0.22706 0.58737 0.0
O584 O 0.63143 0.2151 0.64882 0.0
O585 O 0.60492 0.21149 0.64507 0.0
O586 O 0.63356 0.24554 0.62916 0.0
O587 O 0.63866 0.23208 0.60736 0.0
C588 C 0.641 0.24569 0.61509 0.0
C589 C 0.59784 0.2049 0.59726 0.0
O590 O 0.63739 0.20424 0.58816 0.0
O591 O 0.63132 0.1977 0.61524 0.0
O592 O 0.61089 0.23423 0.5623 0.0
O593 O 0.63603 0.24101 0.56887 0.0
O594 O 0.60518 0.20397 0.58306 0.0
O595 O 0.60187 0.21828 0.60451 0.0
O596 O 0.60073 0.24198 0.62348 0.0
O597 O 0.60606 0.24953 0.59651 0.0
C598 C 0.63807 0.19389 0.60088 0.0
C599 C 0.5987 0.25218 0.61087 0.0
Dy600 Dy 0.52595 0.88908 0.36362 0.0
C601 C 0.50131 0.8947 0.29675 0.0
C602 C 0.54221 0.88529 0.39287 0.0
Dy603 Dy 0.51349 0.88872 0.32761 0.0
O604 O 0.53687 0.89949 0.387 0.0
O605 O 0.53892 0.87319 0.38264 0.0
O606 O 0.5023 0.90117 0.37199 0.0
O607 O 0.51096 0.90619 0.34811 0.0
C608 C 0.49886 0.90803 0.35795 0.0
C609 C 0.53167 0.86229 0.33733 0.0
O610 O 0.53698 0.90432 0.32497 0.0
O611 O 0.54637 0.90412 0.35229 0.0
O612 O 0.51452 0.88562 0.30027 0.0
O613 O 0.49484 0.90074 0.31014 0.0
O614 O 0.51929 0.86107 0.32673 0.0
O615 O 0.534 0.87724 0.34124 0.0
O616 O 0.50728 0.86803 0.36351 0.0
O617 O 0.49205 0.87596 0.34022 0.0
C618 C 0.54811 0.9084 0.33669 0.0
C619 C 0.49367 0.867 0.35384 0.0
Dy620 Dy 0.85937 0.74211 0.10794 0.0
C621 C 0.83027 0.80374 0.08354 0.0
C622 C 0.87545 0.71277 0.11385 0.0
Dy623 Dy 0.8375 0.77303 0.09592 0.0
O624 O 0.88016 0.72387 0.10329 0.0
O625 O 0.86177 0.71764 0.1213 0.0
O626 O 0.88046 0.75987 0.11393 0.0
O627 O 0.86364 0.76497 0.09448 0.0
C628 C 0.87586 0.77052 0.10277 0.0
C629 C 0.82073 0.7489 0.11117 0.0
O630 O 0.84034 0.75889 0.07188 0.0
O631 O 0.85239 0.73425 0.08245 0.0
O632 O 0.8197 0.79128 0.08323 0.0
O633 O 0.84438 0.79935 0.09066 0.0
O634 O 0.81543 0.76436 0.11118 0.0
O635 O 0.83316 0.74729 0.10186 0.0
O636 O 0.85203 0.75315 0.13197 0.0
O637 O 0.84527 0.77974 0.12203 0.0
C638 C 0.84607 0.74326 0.07015 0.0
C639 C 0.84899 0.76928 0.13428 0.0
Dy640 Dy 0.63084 0.98825 0.87247 0.0
C641 C 0.66415 0.92589 0.88959 0.0
C642 C 0.61502 0.01836 0.86912 0.0
Dy643 Dy 0.65167 0.95723 0.88386 0.0
O644 O 0.61013 0.00451 0.86234 0.0
O645 O 0.62873 0.01582 0.8778 0.0
O646 O 0.62432 0.97628 0.84836 0.0
O647 O 0.6468 0.96966 0.86061 0.0
C648 C 0.63706 0.96597 0.84883 0.0
C649 C 0.64487 0.98041 0.90659 0.0
O650 O 0.67345 0.97362 0.87653 0.0
O651 O 0.65741 -0.00204 0.87235 0.0
O652 O 0.66567 0.93406 0.87594 0.0
O653 O 0.65609 0.935 0.90019 0.0
O654 O 0.65904 0.97204 0.90644 0.0
O655 O 0.63515 0.97533 0.89539 0.0
O656 O 0.61066 0.97244 0.88267 0.0
O657 O 0.62506 0.94764 0.87835 0.0
C658 C 0.67217 0.98991 0.87334 0.0
C659 C 0.61064 0.95612 0.88017 0.0
Dy660 Dy 0.75667 0.87564 0.63264 0.0
C661 C 0.81643 0.91034 0.65461 0.0
C662 C 0.72698 0.86078 0.62386 0.0
Dy663 Dy 0.78569 0.8963 0.64845 0.0
O664 O 0.74193 0.85552 0.61986 0.0
O665 O 0.72824 0.87414 0.63289 0.0
O666 O 0.77231 0.86917 0.61091 0.0
O667 O 0.7765 0.8918 0.62344 0.0
C668 C 0.78213 0.88198 0.61263 0.0
C669 C 0.76034 0.88786 0.66832 0.0
O670 O 0.76952 0.91761 0.63961 0.0
O671 O 0.74609 0.90174 0.63191 0.0
O672 O 0.80776 0.91182 0.64105 0.0
O673 O 0.80816 0.90134 0.66503 0.0
O674 O 0.769 0.90151 0.67045 0.0
O675 O 0.76668 0.87926 0.65707 0.0
O676 O 0.77177 0.8558 0.64509 0.0
O677 O 0.79682 0.87054 0.64442 0.0
C678 C 0.75364 0.91634 0.63425 0.0
C679 C 0.78852 0.85618 0.645 0.0
Dy680 Dy 0.86156 0.99321 0.36592 0.0
C681 C 0.83562 0.05398 0.39624 0.0
C682 C 0.87041 0.96269 0.35341 0.0
Dy683 Dy 0.84631 0.02298 0.38686 0.0
O684 O 0.87747 0.97677 0.34969 0.0
O685 O 0.85865 0.96528 0.36416 0.0
O686 O 0.86709 0.01044 0.34484 0.0
O687 O 0.84778 0.01613 0.36125 0.0
C688 C 0.85664 0.02186 0.34997 0.0
C689 C 0.85162 0.99448 0.40305 0.0
O690 O 0.82222 0.01146 0.37802 0.0
O691 O 0.83375 0.98781 0.36531 0.0
O692 O 0.84601 0.04459 0.40472 0.0
O693 O 0.83102 0.04633 0.38287 0.0
O694 O 0.8404 0.00554 0.40757 0.0
O695 O 0.86047 0.00018 0.39169 0.0
O696 O 0.88463 0.00324 0.37841 0.0
O697 O 0.87357 0.02985 0.38307 0.0
C698 C 0.82066 -0.00294 0.37007 0.0
C699 C 0.88662 0.01935 0.38181 0.0
Dy700 Dy 0.73544 0.11423 0.11044 0.0
C701 C 0.67148 0.09326 0.13597 0.0
C702 C 0.76495 0.11837 0.09409 0.0
Dy703 Dy 0.70459 0.10065 0.12924 0.0
O704 O 0.75267 0.10863 0.08966 0.0
O705 O 0.76119 0.12616 0.10766 0.0
O706 O 0.71809 0.12542 0.09181 0.0
O707 O 0.71112 0.10294 0.10329 0.0
C708 C 0.70629 0.11446 0.0936 0.0
C709 C 0.73324 0.10373 0.14722 0.0
O710 O 0.71657 0.07626 0.12189 0.0
O711 O 0.74277 0.08801 0.11678 0.0
O712 O 0.68299 0.09694 0.14696 0.0
O713 O 0.67817 0.09344 0.12151 0.0
O714 O 0.72161 0.09282 0.15063 0.0
O715 O 0.72802 0.11308 0.13584 0.0
O716 O 0.72705 0.13823 0.12146 0.0
O717 O 0.70033 0.12868 0.12876 0.0
C718 C 0.73305 0.07488 0.11923 0.0
C719 C 0.71136 0.14098 0.12649 0.0
Dy720 Dy 0.63501 0.00421 0.62837 0.0
C721 C 0.65094 0.06942 0.60203 0.0
C722 C 0.62832 0.97295 0.63961 0.0
Dy723 Dy 0.64509 0.03665 0.60996 0.0
O724 O 0.64289 0.98029 0.64075 0.0
O725 O 0.6174 0.98265 0.63229 0.0
O726 O 0.63149 0.01846 0.65176 0.0
O727 O 0.6492 0.02684 0.63475 0.0
C728 C 0.64164 0.0304 0.64787 0.0
C729 C 0.63701 0.01043 0.59057 0.0
O730 O 0.67045 0.0239 0.61227 0.0
O731 O 0.65939 -0.00264 0.61646 0.0
O732 O 0.65885 0.06107 0.61349 0.0
O733 O 0.64008 0.05973 0.59468 0.0
O734 O 0.64714 0.02225 0.58596 0.0
O735 O 0.63056 0.01434 0.6041 0.0
O736 O 0.60966 0.01532 0.62396 0.0
O737 O 0.61931 0.04236 0.62036 0.0
C738 C 0.67214 0.00741 0.61322 0.0
C739 C 0.607 0.03163 0.62348 0.0
Dy740 Dy 0.73631 0.88225 0.36155 0.0
C741 C 0.67152 0.9033 0.33536 0.0
C742 C 0.76674 0.87742 0.37709 0.0
Dy743 Dy 0.70407 0.8931 0.34067 0.0
O744 O 0.75469 0.88727 0.382 0.0
O745 O 0.7623 0.87015 0.36336 0.0
O746 O 0.71885 0.87341 0.38115 0.0
O747 O 0.71192 0.89375 0.36633 0.0
C748 C 0.70701 0.8841 0.37737 0.0
C749 C 0.73016 0.88053 0.32391 0.0
O750 O 0.71555 0.91831 0.34457 0.0
O751 O 0.74025 0.90969 0.35863 0.0
O752 O 0.68367 0.90529 0.32482 0.0
O753 O 0.67725 0.89574 0.34838 0.0
O754 O 0.71453 0.87923 0.31868 0.0
O755 O 0.73084 0.88957 0.33652 0.0
O756 O 0.72726 0.85771 0.35203 0.0
O757 O 0.6995 0.86626 0.34683 0.0
C758 C 0.73015 0.92139 0.35223 0.0
C759 C 0.71105 0.85437 0.34932 0.0
Dy760 Dy 0.85653 0.98026 0.1206 0.0
C761 C 0.8276 0.92525 0.08461 0.0
C762 C 0.86907 0.00727 0.13694 0.0
Dy763 Dy 0.83959 0.95452 0.09723 0.0
O764 O 0.87271 0.99181 0.14025 0.0
O765 O 0.8585 0.00807 0.1246 0.0
O766 O 0.86252 0.96005 0.13861 0.0
O767 O 0.84069 0.95828 0.12369 0.0
C768 C 0.85004 0.9507 0.13391 0.0
C769 C 0.84783 0.98356 0.08345 0.0
O770 O 0.81618 0.96853 0.10463 0.0
O771 O 0.82954 0.98899 0.12061 0.0
O772 O 0.83795 0.93514 0.07714 0.0
O773 O 0.82376 0.93145 0.09884 0.0
O774 O 0.83549 0.97433 0.07784 0.0
O775 O 0.8559 0.97586 0.09444 0.0
O776 O 0.87892 0.97035 0.10747 0.0
O777 O 0.86654 0.94496 0.10112 0.0
C778 C 0.81582 0.98227 0.1138 0.0
C779 C 0.88021 0.95438 0.1034 0.0
Dy780 Dy 0.76426 0.1179 0.8841 0.0
C781 C 0.82084 0.09337 0.84761 0.0
C782 C 0.73762 0.12813 0.90225 0.0
Dy783 Dy 0.79078 0.10333 0.86061 0.0
O784 O 0.75023 0.1192 0.90768 0.0
O785 O 0.73938 0.13137 0.88674 0.0
O786 O 0.78489 0.12099 0.90292 0.0
O787 O 0.78574 0.1008 0.88642 0.0
C788 C 0.79361 0.10827 0.89776 0.0
C789 C 0.76237 0.11382 0.84599 0.0
O790 O 0.77543 0.07998 0.86479 0.0
O791 O 0.75254 0.09373 0.87662 0.0
O792 O 0.8147 0.08801 0.8613 0.0
O793 O 0.81034 0.10391 0.8408 0.0
O794 O 0.77166 0.10171 0.84018 0.0
O795 O 0.76962 0.12067 0.85813 0.0
O796 O 0.77659 0.1416 0.87761 0.0
O797 O 0.80114 0.12886 0.86822 0.0
C798 C 0.75962 0.08014 0.87028 0.0
C799 C 0.79265 0.14234 0.87335 0.0
Dy800 Dy 0.86728 0.6177 0.98896 0.0
C801 C 0.8985 0.64786 0.93226 0.0
C802 C 0.85762 0.60462 0.01811 0.0
Dy803 Dy 0.88815 0.63299 0.96033 0.0
O804 O 0.84963 0.60243 0.00419 0.0
O805 O 0.87096 0.61367 0.01594 0.0
O806 O 0.84334 0.62879 0.97838 0.0
O807 O 0.86336 0.6222 0.96291 0.0
C808 C 0.84928 0.62956 0.96358 0.0
C809 C 0.90637 0.62195 0.98585 0.0
O810 O 0.87876 0.65652 0.97308 0.0
O811 O 0.86602 0.64455 0.99595 0.0
O812 O 0.90565 0.63489 0.93901 0.0
O813 O 0.88572 0.65284 0.94094 0.0
O814 O 0.91289 0.62396 0.97146 0.0
O815 O 0.89198 0.62865 0.98622 0.0
O816 O 0.87686 0.59449 0.97637 0.0
O817 O 0.8824 0.60688 0.95127 0.0
C818 C 0.87049 0.65767 0.9872 0.0
C819 C 0.88017 0.59334 0.96045 0.0
Dy820 Dy 0.38628 0.86913 0.02558 0.0
C821 C 0.38639 0.79898 0.0084 0.0
C822 C 0.37963 0.9011 0.03514 0.0
Dy823 Dy 0.38363 0.83179 0.01712 0.0
O824 O 0.38935 0.89697 0.02302 0.0
O825 O 0.37358 0.88782 0.04195 0.0
O826 O 0.414 0.86859 0.0203 0.0
O827 O 0.39747 0.85273 0.0074 0.0
C828 C 0.4128 0.85628 0.00986 0.0
C829 C 0.35733 0.84507 0.03288 0.0
O830 O 0.40067 0.83068 0.03953 0.0
O831 O 0.39887 0.85858 0.04781 0.0
O832 O 0.37341 0.80583 0.01536 0.0
O833 O 0.3981 0.8101 0.00636 0.0
O834 O 0.35577 0.83344 0.02183 0.0
O835 O 0.37269 0.84815 0.0355 0.0
O836 O 0.36774 0.86918 0.00421 0.0
O837 O 0.37436 0.84305 0.99357 0.0
C838 C 0.40413 0.84297 0.05004 0.0
C839 C 0.36683 0.85786 0.99226 0.0
Dy840 Dy 0.85996 0.63338 0.75369 0.0
C841 C 0.89127 0.65846 0.81288 0.0
C842 C 0.84562 0.62556 0.72407 0.0
Dy843 Dy 0.87953 0.64859 0.78283 0.0
O844 O 0.83981 0.62131 0.73825 0.0
O845 O 0.85932 0.63427 0.72603 0.0
O846 O 0.85227 0.61115 0.76838 0.0
O847 O 0.87513 0.6232 0.77399 0.0
C848 C 0.86486 0.61233 0.77868 0.0
C849 C 0.8743 0.66892 0.75718 0.0
O850 O 0.90139 0.63674 0.76992 0.0
O851 O 0.88692 0.63065 0.74556 0.0
O852 O 0.8981 0.64681 0.80396 0.0
O853 O 0.87811 0.6647 0.80538 0.0
O854 O 0.88755 0.66989 0.76673 0.0
O855 O 0.86411 0.65847 0.7627 0.0
O856 O 0.83952 0.64615 0.76749 0.0
O857 O 0.85356 0.64299 0.79225 0.0
C858 C 0.90113 0.63151 0.75444 0.0
C859 C 0.8393 0.6446 0.78363 0.0
Dy860 Dy 0.11874 0.12206 0.5023 0.0
C861 C 0.09755 0.15414 0.5626 0.0
C862 C 0.12627 0.10628 0.47354 0.0
Dy863 Dy 0.10248 0.14236 0.5312 0.0
O864 O 0.13152 0.1017 0.488 0.0
O865 O 0.1169 0.11963 0.47473 0.0
O866 O 0.143 0.11856 0.51627 0.0
O867 O 0.12782 0.13951 0.52111 0.0
C868 C 0.1405 0.13112 0.52604 0.0
C869 C 0.08138 0.13152 0.50715 0.0
O870 O 0.1074 0.16388 0.5141 0.0
O871 O 0.11478 0.14741 0.49148 0.0
O872 O 0.08649 0.14587 0.55387 0.0
O873 O 0.11092 0.15663 0.55383 0.0
O874 O 0.07844 0.14508 0.51564 0.0
O875 O 0.09409 0.1241 0.51308 0.0
O876 O 0.10841 0.10169 0.51741 0.0
O877 O 0.10924 0.11696 0.54153 0.0
C878 C 0.11108 0.16209 0.49824 0.0
C879 C 0.10936 0.10245 0.53361 0.0
Dy880 Dy 0.1322 0.87297 0.74767 0.0
C881 C 0.09668 0.85572 0.80703 0.0
C882 C 0.14701 0.87709 0.71795 0.0
Dy883 Dy 0.11055 0.86077 0.77687 0.0
O884 O 0.15139 0.88471 0.73143 0.0
O885 O 0.13462 0.86698 0.72081 0.0
O886 O 0.13638 0.89777 0.75988 0.0
O887 O 0.11439 0.88434 0.76452 0.0
C888 C 0.12303 0.89673 0.76891 0.0
C889 C 0.12018 0.83756 0.75507 0.0
O890 O 0.08916 0.86766 0.7593 0.0
O891 O 0.1062 0.87099 0.73638 0.0
O892 O 0.0959 0.86964 0.79888 0.0
O893 O 0.10474 0.84451 0.79855 0.0
O894 O 0.10584 0.83696 0.76272 0.0
O895 O 0.12882 0.84961 0.76031 0.0
O896 O 0.15274 0.86457 0.76464 0.0
O897 O 0.1364 0.86685 0.788 0.0
C898 C 0.09107 0.86994 0.74321 0.0
C899 C 0.15143 0.86631 0.78075 0.0
Dy900 Dy 0.60889 0.38217 0.48543 0.0
C901 C 0.58826 0.35212 0.42428 0.0
C902 C 0.6153 0.39616 0.51535 0.0
Dy903 Dy 0.59433 0.36297 0.45561 0.0
O904 O 0.62082 0.40168 0.50148 0.0
O905 O 0.60627 0.38285 0.51292 0.0
O906 O 0.63178 0.38967 0.47134 0.0
O907 O 0.61965 0.36712 0.46568 0.0
C908 C 0.6308 0.37721 0.46116 0.0
C909 C 0.57318 0.36847 0.48058 0.0
O910 O 0.60392 0.34095 0.46983 0.0
O911 O 0.61047 0.35549 0.49396 0.0
O912 O 0.57789 0.36122 0.43284 0.0
O913 O 0.60162 0.34851 0.43307 0.0
O914 O 0.57247 0.3551 0.47145 0.0
O915 O 0.58394 0.37835 0.47507 0.0
O916 O 0.59599 0.40258 0.47179 0.0
O917 O 0.59872 0.38926 0.44684 0.0
C918 C 0.60878 0.34133 0.4855 0.0
C919 C 0.59711 0.40313 0.45565 0.0
Dy920 Dy 0.85883 0.36257 0.73048 0.0
C921 C 0.89157 0.34519 0.66929 0.0
C922 C 0.84842 0.3709 0.76142 0.0
Dy923 Dy 0.87876 0.34949 0.69989 0.0
O924 O 0.84181 0.37655 0.74783 0.0
O925 O 0.86028 0.36012 0.75805 0.0
O926 O 0.84962 0.38452 0.71563 0.0
O927 O 0.87322 0.37355 0.71086 0.0
C928 C 0.86253 0.38409 0.70596 0.0
C929 C 0.87583 0.32814 0.72458 0.0
O930 O 0.90038 0.36081 0.71381 0.0
O931 O 0.88604 0.36518 0.73831 0.0
O932 O 0.88796 0.33311 0.67924 0.0
O933 O 0.88807 0.35951 0.67602 0.0
O934 O 0.88875 0.32801 0.71483 0.0
O935 O 0.86478 0.33845 0.71974 0.0
O936 O 0.83824 0.349 0.71731 0.0
O937 O 0.8513 0.34972 0.69184 0.0
C938 C 0.90011 0.36504 0.72957 0.0
C939 C 0.8376 0.34804 0.70103 0.0
Dy940 Dy 0.62798 0.63175 0.24851 0.0
C941 C 0.59935 0.65531 0.1867 0.0
C942 C 0.6416 0.62426 0.27853 0.0
Dy943 Dy 0.61005 0.64883 0.21836 0.0
O944 O 0.64729 0.61894 0.26457 0.0
O945 O 0.62828 0.6336 0.27612 0.0
O946 O 0.63235 0.60784 0.235 0.0
O947 O 0.61207 0.62337 0.22788 0.0
C948 C 0.621 0.61094 0.22375 0.0
C949 C 0.61837 0.66854 0.24408 0.0
O950 O 0.58698 0.64317 0.2333 0.0
O951 O 0.60121 0.63411 0.25713 0.0
O952 O 0.60916 0.66491 0.19552 0.0
O953 O 0.59486 0.6426 0.19548 0.0
O954 O 0.60533 0.67163 0.23452 0.0
O955 O 0.62661 0.65648 0.23837 0.0
O956 O 0.64997 0.64224 0.23543 0.0
O957 O 0.63665 0.64289 0.20996 0.0
C958 C 0.58719 0.63822 0.24889 0.0
C959 C 0.65063 0.64261 0.21921 0.0
Dy960 Dy 0.52151 0.5905 0.85951 0.0
C961 C 0.46464 0.62332 0.89093 0.0
C962 C 0.55039 0.58224 0.84331 0.0
Dy963 Dy 0.49117 0.61054 0.874 0.0
O964 O 0.54193 0.57216 0.85253 0.0
O965 O 0.54289 0.59673 0.84274 0.0
O966 O 0.51414 0.56717 0.87306 0.0
O967 O 0.49583 0.58512 0.86637 0.0
C968 C 0.49864 0.57236 0.87491 0.0
C969 C 0.5146 0.62797 0.85832 0.0
O970 O 0.50605 0.60354 0.89664 0.0
O971 O 0.53192 0.59826 0.8844 0.0
O972 O 0.47929 0.63035 0.88952 0.0
O973 O 0.46438 0.60923 0.88296 0.0
O974 O 0.49869 0.63226 0.85825 0.0
O975 O 0.51709 0.61577 0.86768 0.0
O976 O 0.5048 0.59528 0.8368 0.0
O977 O 0.4801 0.60473 0.84944 0.0
C978 C 0.5227 0.6014 0.89765 0.0
C979 C 0.48856 0.60011 0.8362 0.0
Dy980 Dy 0.65216 0.2857 0.10496 0.0
C981 C 0.60865 0.23162 0.12679 0.0
C982 C 0.66476 0.31449 0.09236 0.0
Dy983 Dy 0.62688 0.25793 0.11553 0.0
O984 O 0.65163 0.30663 0.08664 0.0
O985 O 0.67123 0.30644 0.10481 0.0
O986 O 0.67455 0.27093 0.11495 0.0
O987 O 0.65265 0.25882 0.1068 0.0
C988 C 0.66645 0.25685 0.1143 0.0
C989 C 0.61374 0.28636 0.10385 0.0
O990 O 0.63723 0.26699 0.13972 0.0
O991 O 0.64622 0.29295 0.13081 0.0
O992 O 0.60349 0.24706 0.12651 0.0
O993 O 0.62397 0.23057 0.12124 0.0
O994 O 0.6068 0.27193 0.10123 0.0
O995 O 0.62634 0.28498 0.11328 0.0
O996 O 0.64299 0.27531 0.08047 0.0
O997 O 0.63097 0.25052 0.08966 0.0
C998 C 0.64257 0.28239 0.14277 0.0
C999 C 0.63585 0.26053 0.07774 0.0
Dy1000 Dy 0.98485 0.38489 0.33612 0.0
C1001 C 0.96845 0.37401 0.40304 0.0
C1002 C -0.00192 0.3868 0.3054 0.0
Dy1003 Dy 0.97839 0.38101 0.37216 0.0
O1004 O 0.99249 0.3734 0.31227 0.0
O1005 O 0.99636 0.39948 0.31533 0.0
O1006 O 0.96046 0.37182 0.33017 0.0
O1007 O 0.97465 0.36493 0.35105 0.0
C1008 C 0.96097 0.36269 0.34328 0.0
C1009 C 0.00462 0.40075 0.36617 0.0
O1010 O -0.00299 0.36043 0.36925 0.0
O1011 O 0.00805 0.37089 0.34531 0.0
O1012 O 0.97549 0.38783 0.39859 0.0
O1013 O 0.96618 0.3642 0.3905 0.0
O1014 O 0.00331 0.39131 0.37895 0.0
O1015 O 0.99102 0.40062 0.35756 0.0
O1016 O 0.96215 0.40198 0.33756 0.0
O1017 O 0.95502 0.39482 0.36425 0.0
C1018 C 0.00908 0.36086 0.35823 0.0
C1019 C 0.95158 0.40233 0.35013 0.0
Dy1020 Dy 0.86073 0.71961 0.60657 0.0
C1021 C 0.90132 0.77318 0.63197 0.0
C1022 C 0.84348 0.69134 0.59843 0.0
Dy1023 Dy 0.88487 0.74555 0.62093 0.0
O1024 O 0.85645 0.69696 0.59058 0.0
O1025 O 0.83998 0.70113 0.61066 0.0
O1026 O 0.84156 0.73987 0.60065 0.0
O1027 O 0.85783 0.74233 0.62095 0.0
C1028 C 0.84695 0.74973 0.61227 0.0
C1029 C 0.89861 0.71534 0.61809 0.0
O1030 O 0.8718 0.73696 0.64341 0.0
O1031 O 0.86543 0.71104 0.63254 0.0
O1032 O 0.90538 0.75794 0.63565 0.0
O1033 O 0.88826 0.77343 0.62209 0.0
O1034 O 0.90322 0.72619 0.62906 0.0
O1035 O 0.88836 0.72173 0.60777 0.0
O1036 O 0.86947 0.73047 0.58291 0.0
O1037 O 0.88534 0.75218 0.59418 0.0
C1038 C 0.86773 0.72108 0.64536 0.0
C1039 C 0.87862 0.74419 0.5814 0.0
Dy1040 Dy 0.51941 0.38114 0.63177 0.0
C1041 C 0.45918 0.3635 0.59616 0.0
C1042 C 0.54971 0.38977 0.64564 0.0
Dy1043 Dy 0.48987 0.36861 0.61096 0.0
O1044 O 0.53902 0.40006 0.63883 0.0
O1045 O 0.54386 0.37464 0.64492 0.0
O1046 O 0.50221 0.40249 0.63929 0.0
O1047 O 0.50085 0.39272 0.61544 0.0
C1048 C 0.49462 0.40324 0.62507 0.0
C1049 C 0.51416 0.34588 0.61592 0.0
O1050 O 0.50495 0.38123 0.59183 0.0
O1051 O 0.53019 0.37824 0.60621 0.0
O1052 O 0.47326 0.35623 0.5921 0.0
O1053 O 0.46188 0.37366 0.60837 0.0
O1054 O 0.5046 0.34631 0.60287 0.0
O1055 O 0.50917 0.35636 0.62645 0.0
O1056 O 0.50387 0.37156 0.65246 0.0
O1057 O 0.47951 0.3676 0.63663 0.0
C1058 C 0.52169 0.38053 0.59219 0.0
C1059 C 0.48747 0.36831 0.6511 0.0
Dy1060 Dy 0.8777 0.26781 0.90752 0.0
C1061 C 0.87611 0.28455 0.83925 0.0
C1062 C 0.87678 0.25293 0.93759 0.0
Dy1063 Dy 0.87592 0.27375 0.87067 0.0
O1064 O 0.89008 0.25946 0.9311 0.0
O1065 O 0.86379 0.25498 0.92781 0.0
O1066 O 0.89412 0.29028 0.91159 0.0
O1067 O 0.89538 0.27697 0.88933 0.0
C1068 C 0.89998 0.29007 0.89675 0.0
C1069 C 0.85554 0.24973 0.88088 0.0
O1070 O 0.89536 0.25354 0.87057 0.0
O1071 O 0.88944 0.24454 0.89688 0.0
O1072 O 0.86265 0.28044 0.84717 0.0
O1073 O 0.88951 0.28295 0.84851 0.0
O1074 O 0.8622 0.25 0.86645 0.0
O1075 O 0.85837 0.26325 0.88858 0.0
O1076 O 0.86064 0.29031 0.90796 0.0
O1077 O 0.86547 0.29764 0.88082 0.0
C1078 C 0.89663 0.24234 0.88241 0.0
C1079 C 0.85926 0.30094 0.89552 0.0
Dy1080 Dy 0.98195 0.60649 0.16511 0.0
C1081 C 0.95872 0.60759 0.09712 0.0
C1082 C -0.00236 0.6027 0.19485 0.0
Dy1083 Dy 0.97233 0.60526 0.12787 0.0
O1084 O 0.98615 0.61387 0.19145 0.0
O1085 O 0.00062 0.59354 0.18197 0.0
O1086 O 0.95974 0.62331 0.17013 0.0
O1087 O 0.97164 0.62381 0.14716 0.0
C1088 C 0.9591 0.62891 0.15517 0.0
C1089 C 0.99487 0.58207 0.13738 0.0
O1090 O 0.99091 0.62625 0.12811 0.0
O1091 O 0.00347 0.62073 0.15352 0.0
O1092 O 0.97469 0.60576 0.10051 0.0
O1093 O 0.95006 0.60822 0.11055 0.0
O1094 O 0.99348 0.58762 0.12252 0.0
O1095 O 0.9828 0.58766 0.14582 0.0
O1096 O 0.95876 0.59031 0.16636 0.0
O1097 O 0.94955 0.59393 0.1392 0.0
C1098 C 0.00349 0.6282 0.13892 0.0
C1099 C 0.94718 0.58871 0.15443 0.0
Dy1100 Dy 0.65219 0.7161 0.39654 0.0
C1101 C 0.61076 0.76984 0.37065 0.0
C1102 C 0.66502 0.68664 0.40796 0.0
Dy1103 Dy 0.62722 0.74268 0.38265 0.0
O1104 O 0.67207 0.69577 0.39681 0.0
O1105 O 0.65122 0.69378 0.41296 0.0
O1106 O 0.67321 0.73493 0.3976 0.0
O1107 O 0.65384 0.73684 0.37967 0.0
C1108 C 0.66647 0.74402 0.38595 0.0
C1109 C 0.61299 0.71458 0.39284 0.0
O1110 O 0.63677 0.73128 0.35975 0.0
O1111 O 0.64406 0.70589 0.37135 0.0
O1112 O 0.60774 0.75455 0.36632 0.0
O1113 O 0.62286 0.77043 0.3816 0.0
O1114 O 0.60581 0.72437 0.38216 0.0
O1115 O 0.6256 0.72161 0.39922 0.0
O1116 O 0.64798 0.73143 0.41957 0.0
O1117 O 0.63178 0.75294 0.40782 0.0
C1118 C 0.63978 0.71509 0.35829 0.0
C1119 C 0.63975 0.74599 0.42052 0.0
Dy1120 Dy 0.83651 0.54058 0.6047 0.0
C1121 C 0.86444 0.48063 0.6343 0.0
C1122 C 0.82384 0.57066 0.59478 0.0
Dy1123 Dy 0.85087 0.51044 0.62524 0.0
O1124 O 0.83425 0.56137 0.58651 0.0
O1125 O 0.81991 0.56326 0.6084 0.0
O1126 O 0.84571 0.5293 0.58093 0.0
O1127 O 0.84004 0.5142 0.60109 0.0
C1128 C 0.84685 0.51447 0.58729 0.0
C1129 C 0.84045 0.53699 0.64239 0.0
O1130 O 0.87449 0.52108 0.61489 0.0
O1131 O 0.86387 0.5477 0.60992 0.0
O1132 O 0.86795 0.49482 0.64137 0.0
O1133 O 0.85349 0.48279 0.62248 0.0
O1134 O 0.84043 0.52189 0.6483 0.0
O1135 O 0.84775 0.53712 0.6288 0.0
O1136 O 0.81211 0.52737 0.61192 0.0
O1137 O 0.8237 0.50392 0.62518 0.0
C1138 C 0.87686 0.5371 0.61174 0.0
C1139 C 0.81058 0.51284 0.61983 0.0
Dy1140 Dy 0.70523 0.59234 0.84871 0.0
C1141 C 0.76366 0.62397 0.87824 0.0
C1142 C 0.67435 0.58055 0.83917 0.0
Dy1143 Dy 0.73417 0.60993 0.86796 0.0
O1144 O 0.68381 0.5901 0.83031 0.0
O1145 O 0.68191 0.57729 0.85305 0.0
O1146 O 0.72336 0.58811 0.8277 0.0
O1147 O 0.72538 0.60934 0.84278 0.0
C1148 C 0.73208 0.60142 0.83128 0.0
C1149 C 0.70712 0.60295 0.88574 0.0
O1150 O 0.72089 0.63171 0.85703 0.0
O1151 O 0.6951 0.61833 0.85412 0.0
O1152 O 0.74877 0.62781 0.88366 0.0
O1153 O 0.76256 0.61218 0.86726 0.0
O1154 O 0.71738 0.61507 0.88924 0.0
O1155 O 0.71304 0.59399 0.8744 0.0
O1156 O 0.72023 0.5696 0.85586 0.0
O1157 O 0.7434 0.58336 0.86767 0.0
C1158 C 0.70424 0.63214 0.85547 0.0
C1159 C 0.73552 0.56955 0.86283 0.0
Dy1160 Dy 0.65375 0.46677 0.10059 0.0
C1161 C 0.62634 0.52107 0.13999 0.0
C1162 C 0.66427 0.43704 0.08764 0.0
Dy1163 Dy 0.63783 0.49317 0.12417 0.0
O1164 O 0.67115 0.44447 0.10021 0.0
O1165 O 0.65174 0.446 0.08193 0.0
O1166 O 0.65866 0.48651 0.08157 0.0
O1167 O 0.63846 0.4892 0.09785 0.0
C1168 C 0.64692 0.49649 0.08712 0.0
C1169 C 0.64373 0.46297 0.13698 0.0
O1170 O 0.61517 0.48401 0.11064 0.0
O1171 O 0.6269 0.45818 0.10443 0.0
O1172 O 0.62245 0.50581 0.14362 0.0
O1173 O 0.6366 0.52116 0.12763 0.0
O1174 O 0.63165 0.47275 0.14197 0.0
O1175 O 0.65283 0.47048 0.12693 0.0
O1176 O 0.67757 0.47845 0.10999 0.0
O1177 O 0.66528 0.50003 0.12525 0.0
C1178 C 0.61352 0.46812 0.10638 0.0
C1179 C 0.67867 0.49206 0.11925 0.0
Dy1180 Dy 0.79254 0.39251 0.36289 0.0
C1181 C 0.7284 0.36934 0.38701 0.0
C1182 C 0.82573 0.40065 0.35746 0.0
Dy1183 Dy 0.7607 0.37724 0.37863 0.0
O1184 O 0.81439 0.39813 0.34598 0.0
O1185 O 0.81884 0.39886 0.37172 0.0
O1186 O 0.77579 0.40162 0.34175 0.0
O1187 O 0.77014 0.37949 0.35405 0.0
C1188 C 0.76494 0.38956 0.34334 0.0
C1189 C 0.78795 0.37778 0.39811 0.0
O1190 O 0.77067 0.35486 0.36572 0.0
O1191 O 0.7981 0.36476 0.36342 0.0
O1192 O 0.74203 0.3633 0.39389 0.0
O1193 O 0.7324 0.37955 0.37534 0.0
O1194 O 0.77618 0.36663 0.39907 0.0
O1195 O 0.78372 0.38918 0.38808 0.0
O1196 O 0.78097 0.41633 0.37179 0.0
O1197 O 0.75571 0.40476 0.38084 0.0
C1198 C 0.78706 0.35229 0.36339 0.0
C1199 C 0.76554 0.41774 0.37785 0.0
Dy1200 Dy 0.85052 0.45581 0.8846 0.0
C1201 C 0.87076 0.51705 0.85413 0.0
C1202 C 0.84373 0.42403 0.89484 0.0
Dy1203 Dy 0.8629 0.48582 0.86453 0.0
O1204 O 0.85454 0.43405 0.90182 0.0
O1205 O 0.83643 0.43152 0.88249 0.0
O1206 O 0.84598 0.47278 0.90639 0.0
O1207 O 0.86534 0.47812 0.88991 0.0
C1208 C 0.85732 0.48358 0.90206 0.0
C1209 C 0.85727 0.45813 0.84689 0.0
O1210 O 0.88732 0.47554 0.8736 0.0
O1211 O 0.87692 0.44881 0.87646 0.0
O1212 O 0.87585 0.50325 0.8473 0.0
O1213 O 0.86132 0.51381 0.86663 0.0
O1214 O 0.86827 0.46934 0.8429 0.0
O1215 O 0.84861 0.46318 0.85886 0.0
O1216 O 0.8252 0.46782 0.8797 0.0
O1217 O 0.83524 0.4915 0.86638 0.0
C1218 C 0.88974 0.45922 0.87447 0.0
C1219 C 0.82281 0.48252 0.87251 0.0
Dy1220 Dy 0.78862 0.6025 0.15084 0.0
C1221 C 0.72631 0.61685 0.11318 0.0
C1222 C 0.82204 0.59495 0.15592 0.0
Dy1223 Dy 0.75627 0.61307 0.12993 0.0
O1224 O 0.80989 0.59012 0.16552 0.0
O1225 O 0.81582 0.60382 0.14393 0.0
O1226 O 0.77647 0.61259 0.17388 0.0
O1227 O 0.76152 0.6035 0.15429 0.0
C1228 C 0.76115 0.61091 0.16791 0.0
C1229 C 0.78627 0.61497 0.11506 0.0
O1230 O 0.76221 0.63696 0.14276 0.0
O1231 O 0.79039 0.63036 0.14865 0.0
O1232 O 0.73941 0.60849 0.10816 0.0
O1233 O 0.72941 0.62315 0.12768 0.0
O1234 O 0.77376 0.62515 0.11205 0.0
O1235 O 0.78166 0.604 0.12499 0.0
O1236 O 0.77904 0.57699 0.14439 0.0
O1237 O 0.75402 0.58524 0.13064 0.0
C1238 C 0.77773 0.64132 0.14726 0.0
C1239 C 0.76476 0.57366 0.13624 0.0
Dy1240 Dy 0.65363 0.53458 0.39008 0.0
C1241 C 0.62695 0.47707 0.35464 0.0
C1242 C 0.66555 0.56466 0.40046 0.0
Dy1243 Dy 0.63846 0.50615 0.36789 0.0
O1244 O 0.65607 0.55493 0.40914 0.0
O1245 O 0.66849 0.5579 0.38627 0.0
O1246 O 0.65437 0.51679 0.41168 0.0
O1247 O 0.63607 0.51426 0.39299 0.0
C1248 C 0.64222 0.50761 0.40563 0.0
C1249 C 0.6482 0.53341 0.35208 0.0
O1250 O 0.61516 0.519 0.37665 0.0
O1251 O 0.62792 0.54452 0.38216 0.0
O1252 O 0.62296 0.49191 0.34947 0.0
O1253 O 0.63726 0.47806 0.36718 0.0
O1254 O 0.63652 0.5235 0.3465 0.0
O1255 O 0.65531 0.52707 0.36452 0.0
O1256 O 0.67726 0.51963 0.3864 0.0
O1257 O 0.66512 0.49713 0.37222 0.0
C1258 C 0.61428 0.5354 0.3789 0.0
C1259 C 0.67822 0.5047 0.37934 0.0
Dy1260 Dy 0.70073 0.39286 0.6357 0.0
C1261 C 0.75385 0.36869 0.59343 0.0
C1262 C 0.67204 0.40549 0.64943 0.0
Dy1263 Dy 0.72823 0.38211 0.6112 0.0
O1264 O 0.67835 0.41036 0.63562 0.0
O1265 O 0.68177 0.39411 0.65597 0.0
O1266 O 0.71188 0.37707 0.6559 0.0
O1267 O 0.72747 0.38646 0.63747 0.0
C1268 C 0.72668 0.37629 0.6492 0.0
C1269 C 0.7014 0.39852 0.59869 0.0
O1270 O 0.71616 0.35753 0.61685 0.0
O1271 O 0.69068 0.36828 0.6261 0.0
O1272 O 0.73865 0.37146 0.58785 0.0
O1273 O 0.75508 0.37325 0.6087 0.0
O1274 O 0.71658 0.39997 0.59296 0.0
O1275 O 0.70129 0.38763 0.60974 0.0
O1276 O 0.7151 0.41719 0.63234 0.0
O1277 O 0.7388 0.40669 0.61882 0.0
C1278 C 0.70011 0.35553 0.6209 0.0
C1279 C 0.73044 0.41909 0.62598 0.0
Dy1280 Dy 0.61196 0.85995 0.53161 0.0
C1281 C 0.64175 0.89064 0.47543 0.0
C1282 C 0.60329 0.84274 0.55892 0.0
Dy1283 Dy 0.63402 0.8751 0.50385 0.0
O1284 O 0.59333 0.85308 0.55108 0.0
O1285 O 0.61781 0.84172 0.55171 0.0
O1286 O 0.58809 0.86862 0.51845 0.0
O1287 O 0.61 0.86249 0.50546 0.0
C1288 C 0.59539 0.86857 0.50421 0.0
C1289 C 0.65065 0.86478 0.53055 0.0
O1290 O 0.62446 0.89836 0.51632 0.0
O1291 O 0.61463 0.88669 0.54051 0.0
O1292 O 0.65238 0.88815 0.48755 0.0
O1293 O 0.627 0.88473 0.47895 0.0
O1294 O 0.65766 0.86507 0.51613 0.0
O1295 O 0.63633 0.87169 0.53001 0.0
O1296 O 0.62158 0.83661 0.51831 0.0
O1297 O 0.6356 0.84847 0.49614 0.0
C1298 C 0.61871 0.89991 0.5315 0.0
C1299 C 0.63041 0.8353 0.50447 0.0
Dy1300 Dy 0.10983 0.65259 0.48161 0.0
C1301 C 0.11241 0.58426 0.4619 0.0
C1302 C 0.10551 0.68478 0.49163 0.0
Dy1303 Dy 0.10673 0.61662 0.47063 0.0
O1304 O 0.1178 0.67941 0.48259 0.0
O1305 O 0.09549 0.67255 0.49512 0.0
O1306 O 0.13773 0.65099 0.47768 0.0
O1307 O 0.12118 0.63779 0.46204 0.0
C1308 C 0.13649 0.64066 0.46541 0.0
C1309 C 0.08006 0.6287 0.48671 0.0
O1310 O 0.12339 0.6141 0.49325 0.0
O1311 O 0.12006 0.64059 0.50444 0.0
O1312 O 0.09762 0.59079 0.46458 0.0
O1313 O 0.12409 0.59547 0.4637 0.0
O1314 O 0.07884 0.61748 0.47523 0.0
O1315 O 0.09539 0.63149 0.48994 0.0
O1316 O 0.09284 0.65502 0.45921 0.0
O1317 O 0.0982 0.62903 0.44755 0.0
C1318 C 0.12593 0.62505 0.5053 0.0
C1319 C 0.09153 0.64426 0.44681 0.0
Dy1320 Dy 0.61382 0.84051 0.70966 0.0
C1321 C 0.62711 0.87148 0.77279 0.0
C1322 C 0.60348 0.83282 0.67854 0.0
Dy1323 Dy 0.61939 0.86031 0.74207 0.0
O1324 O 0.61267 0.82307 0.68785 0.0
O1325 O 0.60001 0.84659 0.68626 0.0
O1326 O 0.62536 0.81719 0.72113 0.0
O1327 O 0.61299 0.83499 0.7356 0.0
C1328 C 0.62214 0.82215 0.736 0.0
C1329 C 0.61147 0.87887 0.71564 0.0
O1330 O 0.64619 0.85601 0.73407 0.0
O1331 O 0.64086 0.84814 0.70688 0.0
O1332 O 0.63759 0.86343 0.76343 0.0
O1333 O 0.61267 0.87353 0.76531 0.0
O1334 O 0.60794 0.88338 0.73053 0.0
O1335 O 0.6206 0.86599 0.71606 0.0
O1336 O 0.58715 0.84644 0.71785 0.0
O1337 O 0.59345 0.85039 0.74544 0.0
C1338 C 0.65137 0.85248 0.71901 0.0
C1339 C 0.58239 0.84877 0.73324 0.0
Dy1340 Dy 0.38911 0.34787 0.96049 0.0
C1341 C 0.35829 0.37771 0.01911 0.0
C1342 C 0.39541 0.3395 0.9283 0.0
Dy1343 Dy 0.36973 0.36361 0.99079 0.0
O1344 O 0.38274 0.33429 0.93687 0.0
O1345 O 0.40516 0.34868 0.93763 0.0
O1346 O 0.4125 0.34394 0.9766 0.0
O1347 O 0.39534 0.36328 0.98175 0.0
C1348 C 0.40809 0.35548 0.98714 0.0
C1349 C 0.35054 0.35776 0.9641 0.0
O1350 O 0.38123 0.38583 0.97925 0.0
O1351 O 0.3826 0.37428 0.95322 0.0
O1352 O 0.35435 0.38254 0.00438 0.0
O1353 O 0.36854 0.3649 0.01852 0.0
O1354 O 0.34652 0.36835 0.9755 0.0
O1355 O 0.36312 0.34921 0.9689 0.0
O1356 O 0.38402 0.32442 0.97473 0.0
O1357 O 0.37243 0.33687 -0.0017 0.0
C1358 C 0.38173 0.38745 0.96311 0.0
C1359 C 0.37791 0.32368 0.98989 0.0
Dy1360 Dy 0.38125 0.63427 0.71598 0.0
C1361 C 0.34763 0.60432 0.77119 0.0
C1362 C 0.39828 0.64233 0.68816 0.0
Dy1363 Dy 0.3644 0.6136 0.74381 0.0
O1364 O 0.38844 0.65246 0.69622 0.0
O1365 O 0.39916 0.62802 0.69559 0.0
O1366 O 0.37131 0.65825 0.72719 0.0
O1367 O 0.37698 0.63744 0.74189 0.0
C1368 C 0.37051 0.6518 0.74182 0.0
C1369 C 0.37617 0.59617 0.7184 0.0
O1370 O 0.34157 0.62372 0.73048 0.0
O1371 O 0.35445 0.63114 0.70607 0.0
O1372 O 0.34889 0.59531 0.75794 0.0
O1373 O 0.35543 0.61837 0.76938 0.0
O1374 O 0.37534 0.58997 0.73313 0.0
O1375 O 0.36913 0.61029 0.71791 0.0
O1376 O 0.40437 0.62509 0.73086 0.0
O1377 O 0.39094 0.61225 0.75289 0.0
C1378 C 0.34065 0.62816 0.71482 0.0
C1379 C 0.40477 0.61683 0.74513 0.0
Dy1380 Dy 0.90417 0.12553 0.03307 0.0
C1381 C 0.88664 0.09776 0.96968 0.0
C1382 C 0.90975 0.13557 0.06471 0.0
Dy1383 Dy 0.89073 0.1093 0.00102 0.0
O1384 O 0.89708 0.14028 0.05548 0.0
O1385 O 0.91961 0.12558 0.05654 0.0
O1386 O 0.92811 0.13137 0.0194 0.0
O1387 O 0.91466 0.10958 0.01403 0.0
C1388 C 0.92703 0.11827 0.00994 0.0
C1389 C 0.86657 0.11623 0.02266 0.0
O1390 O 0.89773 0.08674 0.01539 0.0
O1391 O 0.89546 0.1 0.0406 0.0
O1392 O 0.87911 0.09197 0.9825 0.0
O1393 O 0.89658 0.10991 0.97401 0.0
O1394 O 0.86491 0.10523 0.01103 0.0
O1395 O 0.87969 0.12474 0.02038 0.0
O1396 O 0.898 0.14895 0.01928 0.0
O1397 O 0.89289 0.13628 0.99387 0.0
C1398 C 0.89567 0.08629 0.03144 0.0
C1399 C 0.89477 0.14978 0.00326 0.0
Dy1400 Dy 0.60864 0.14413 0.79591 0.0
C1401 C 0.63859 0.11394 0.7371 0.0
C1402 C 0.59641 0.15384 0.82548 0.0
Dy1403 Dy 0.62481 0.12475 0.76587 0.0
O1404 O 0.60825 0.16159 0.81763 0.0
O1405 O 0.59146 0.14077 0.81726 0.0
O1406 O 0.59966 0.16466 0.77906 0.0
O1407 O 0.62136 0.15062 0.77342 0.0
C1408 C 0.6111 0.16145 0.76816 0.0
C1409 C 0.6122 0.10604 0.79007 0.0
O1410 O 0.64819 0.13348 0.77882 0.0
O1411 O 0.63615 0.14256 0.80349 0.0
O1412 O 0.64274 0.10834 0.75162 0.0
O1413 O 0.62731 0.12577 0.73843 0.0
O1414 O 0.61307 0.10084 0.77498 0.0
O1415 O 0.61956 0.11976 0.79143 0.0
O1416 O 0.58626 0.13149 0.78404 0.0
O1417 O 0.59798 0.12828 0.7582 0.0
C1418 C 0.64949 0.13891 0.79424 0.0
C1419 C 0.58491 0.12796 0.76816 0.0
Dy1420 Dy 0.87872 0.83758 0.27339 0.0
C1421 C 0.84737 0.86241 0.213 0.0
C1422 C 0.88978 0.83357 0.30533 0.0
Dy1423 Dy 0.85989 0.85381 0.24325 0.0
O1424 O 0.88206 0.8222 0.29658 0.0
O1425 O 0.89196 0.84675 0.29638 0.0
O1426 O 0.88351 0.81429 0.25796 0.0
O1427 O 0.86201 0.82917 0.25368 0.0
C1428 C 0.87041 0.81699 0.24832 0.0
C1429 C 0.86713 0.87467 0.26801 0.0
O1430 O 0.83819 0.84262 0.25617 0.0
O1431 O 0.85176 0.8423 0.28157 0.0
O1432 O 0.8416 0.86781 0.2269 0.0
O1433 O 0.85998 0.85223 0.21564 0.0
O1434 O 0.85463 0.87701 0.2578 0.0
O1435 O 0.87623 0.86265 0.26322 0.0
O1436 O 0.90155 0.84352 0.25823 0.0
O1437 O 0.88644 0.85068 0.23436 0.0
C1438 C 0.83768 0.8422 0.2724 0.0
C1439 C 0.90084 0.84733 0.24233 0.0
Dy1440 Dy 0.50622 0.38096 0.10995 0.0
C1441 C 0.44727 0.4043 0.14555 0.0
C1442 C 0.53488 0.37377 0.09302 0.0
Dy1443 Dy 0.47657 0.39613 0.1301 0.0
O1444 O 0.52007 0.36748 0.09013 0.0
O1445 O 0.5341 0.38417 0.10528 0.0
O1446 O 0.49422 0.35558 0.1089 0.0
O1447 O 0.48872 0.37189 0.12825 0.0
C1448 C 0.48442 0.35858 0.1212 0.0
C1449 C 0.49941 0.4177 0.11907 0.0
O1450 O 0.49523 0.39061 0.15071 0.0
O1451 O 0.51881 0.38554 0.13441 0.0
O1452 O 0.45424 0.41312 0.13417 0.0
O1453 O 0.4563 0.39101 0.14852 0.0
O1454 O 0.49138 0.41986 0.13274 0.0
O1455 O 0.49387 0.40507 0.11161 0.0
O1456 O 0.48826 0.38873 0.09012 0.0
O1457 O 0.46427 0.3877 0.10608 0.0
C1458 C 0.51179 0.38798 0.14898 0.0
C1459 C 0.47167 0.3872 0.09148 0.0
Dy1460 Dy 0.36349 0.7334 0.87436 0.0
C1461 C 0.32861 0.67869 0.90425 0.0
C1462 C 0.38024 0.75959 0.86105 0.0
Dy1463 Dy 0.33964 0.70617 0.888 0.0
O1464 O 0.38626 0.74454 0.8626 0.0
O1465 O 0.36478 0.76025 0.86631 0.0
O1466 O 0.38501 0.7207 0.8875 0.0
O1467 O 0.36486 0.7064 0.87795 0.0
C1468 C 0.37825 0.70601 0.88645 0.0
C1469 C 0.32449 0.73442 0.87838 0.0
O1470 O 0.35051 0.7178 0.91124 0.0
O1471 O 0.3623 0.74179 0.90021 0.0
O1472 O 0.3207 0.68565 0.89191 0.0
O1473 O 0.34235 0.68683 0.90766 0.0
O1474 O 0.31659 0.72022 0.87843 0.0
O1475 O 0.33868 0.73288 0.88524 0.0
O1476 O 0.352 0.72278 0.85132 0.0
O1477 O 0.34375 0.69737 0.86218 0.0
C1478 C 0.35853 0.73229 0.9129 0.0
C1479 C 0.34667 0.70721 0.84943 0.0
Dy1480 Dy 0.01612 0.60624 0.61977 0.0
C1481 C -0.00082 0.60114 0.68711 0.0
C1482 C 0.02145 0.61519 0.58818 0.0
Dy1483 Dy 0.00942 0.60686 0.65577 0.0
O1484 O 0.02039 0.59989 0.59329 0.0
O1485 O 0.02002 0.62554 0.60036 0.0
O1486 O 0.0063 0.57996 0.61784 0.0
O1487 O 0.99589 0.59625 0.63478 0.0
C1488 C 0.99523 0.58152 0.62939 0.0
C1489 C 0.02603 0.6336 0.6452 0.0
O1490 O 0.03335 0.59082 0.65534 0.0
O1491 O 0.04083 0.59564 0.62829 0.0
O1492 O 0.00714 0.61429 0.68219 0.0
O1493 O -0.00256 0.5907 0.67494 0.0
O1494 O 0.01512 0.63409 0.65699 0.0
O1495 O 0.0284 0.61873 0.64049 0.0
O1496 O 0.99514 0.62516 0.62042 0.0
O1497 O 0.98552 0.6192 0.64639 0.0
C1498 C 0.04421 0.58941 0.64301 0.0
C1499 C 0.9838 0.62693 0.63209 0.0
Dy1500 Dy 0.11572 0.24617 0.368 0.0
C1501 C 0.14868 0.30243 0.39791 0.0
C1502 C 0.10334 0.21672 0.35624 0.0
Dy1503 Dy 0.13502 0.27316 0.38703 0.0
O1504 O 0.09819 0.23145 0.35172 0.0
O1505 O 0.11548 0.21806 0.36707 0.0
O1506 O 0.09749 0.26447 0.35766 0.0
O1507 O 0.10818 0.26897 0.38122 0.0
C1508 C 0.09932 0.27509 0.36959 0.0
C1509 C 0.15113 0.24399 0.38272 0.0
O1510 O 0.12335 0.26114 0.40883 0.0
O1511 O 0.11161 0.23885 0.3943 0.0
O1512 O 0.1569 0.29069 0.39032 0.0
O1513 O 0.13301 0.29806 0.39981 0.0
O1514 O 0.15299 0.25285 0.39602 0.0
O1515 O 0.14194 0.25157 0.37253 0.0
O1516 O 0.13103 0.25651 0.34773 0.0
O1517 O 0.1351 0.28198 0.3607 0.0
C1518 C 0.1153 0.24666 0.40831 0.0
C1519 C 0.13494 0.27257 0.34723 0.0
Dy1520 Dy 0.50429 0.62083 0.37973 0.0
C1521 C 0.44267 0.60136 0.34692 0.0
C1522 C 0.53529 0.62549 0.39403 0.0
Dy1523 Dy 0.47386 0.60895 0.35956 0.0
O1524 O 0.52103 0.63095 0.39972 0.0
O1525 O 0.53265 0.6174 0.38039 0.0
O1526 O 0.49025 0.64281 0.38943 0.0
O1527 O 0.48387 0.6336 0.36593 0.0
C1528 C 0.47957 0.64357 0.37723 0.0
C1529 C 0.49945 0.58714 0.36342 0.0
O1530 O 0.48877 0.61929 0.33869 0.0
O1531 O 0.51342 0.62437 0.35388 0.0
O1532 O 0.45309 0.59077 0.35372 0.0
O1533 O 0.44934 0.61616 0.34689 0.0
O1534 O 0.49072 0.58833 0.34984 0.0
O1535 O 0.49359 0.59685 0.37403 0.0
O1536 O 0.49035 0.607 0.39884 0.0
O1537 O 0.46444 0.61009 0.38574 0.0
C1538 C 0.50495 0.62366 0.33969 0.0
C1539 C 0.47362 0.60739 0.39928 0.0
Dy1540 Dy 0.12043 0.72247 0.12939 0.0
C1541 C 0.12178 0.74086 0.06203 0.0
C1542 C 0.11903 0.71201 0.16094 0.0
Dy1543 Dy 0.12004 0.72687 0.09255 0.0
O1544 O 0.13245 0.71778 0.15402 0.0
O1545 O 0.10636 0.71188 0.15063 0.0
O1546 O 0.13317 0.74675 0.13335 0.0
O1547 O 0.13861 0.73282 0.11188 0.0
C1548 C 0.14061 0.7467 0.11929 0.0
C1549 C 0.09756 0.70473 0.10348 0.0
O1550 O 0.13711 0.70428 0.09333 0.0
O1551 O 0.13188 0.69836 0.12068 0.0
O1552 O 0.10843 0.73407 0.0682 0.0
O1553 O 0.1344 0.73947 0.07237 0.0
O1554 O 0.10472 0.70349 0.08923 0.0
O1555 O 0.10156 0.71836 0.11027 0.0
O1556 O 0.10048 0.74217 0.12828 0.0
O1557 O 0.1066 0.75 0.10166 0.0
C1558 C 0.13827 0.69423 0.10625 0.0
C1559 C 0.0989 0.75265 0.11583 0.0
Dy1560 Dy 0.02765 0.38501 0.86706 0.0
C1561 C -0.00221 0.38825 0.80232 0.0
C1562 C 0.04463 0.38187 0.89604 0.0
Dy1563 Dy 0.01514 0.38573 0.83125 0.0
O1564 O 0.03767 0.39555 0.89067 0.0
O1565 O 0.04248 0.36982 0.8855 0.0
O1566 O 0.00517 0.39902 0.87561 0.0
O1567 O 0.01425 0.40336 0.85164 0.0
C1568 C 0.00236 0.40617 0.86157 0.0
C1569 C 0.0397 0.36378 0.83779 0.0
O1570 O 0.03712 0.40303 0.82873 0.0
O1571 O 0.04922 0.39703 0.85431 0.0
O1572 O 0.00614 0.37516 0.80727 0.0
O1573 O -0.00114 0.40011 0.81323 0.0
O1574 O 0.03819 0.37128 0.82373 0.0
O1575 O 0.02743 0.36733 0.84689 0.0
O1576 O 0.00707 0.36644 0.86926 0.0
O1577 O 0.99408 0.37195 0.84399 0.0
C1578 C 0.04969 0.40405 0.83964 0.0
C1579 C 0.99432 0.36474 0.85869 0.0
Dy1580 Dy 0.36165 0.24978 0.60781 0.0
C1581 C 0.33352 0.31077 0.58147 0.0
C1582 C 0.37489 0.21952 0.61555 0.0
Dy1583 Dy 0.34182 0.28001 0.5934 0.0
O1584 O 0.3652 0.22823 0.62519 0.0
O1585 O 0.37736 0.2274 0.60193 0.0
O1586 O 0.38511 0.26524 0.60893 0.0
O1587 O 0.36692 0.26957 0.59046 0.0
C1588 C 0.38043 0.27484 0.59688 0.0
C1589 C 0.32297 0.25565 0.60563 0.0
O1590 O 0.34412 0.26339 0.57095 0.0
O1591 O 0.34825 0.23911 0.58598 0.0
O1592 O 0.34816 0.30353 0.58006 0.0
O1593 O 0.32328 0.30117 0.58941 0.0
O1594 O 0.31788 0.26475 0.59324 0.0
O1595 O 0.33686 0.26085 0.61115 0.0
O1596 O 0.35895 0.26401 0.63092 0.0
O1597 O 0.35091 0.28923 0.61873 0.0
C1598 C 0.34499 0.2468 0.57195 0.0
C1599 C 0.3562 0.28033 0.63175 0.0
Dy1600 Dy 0.14135 0.48808 0.37837 0.0
C1601 C 0.16987 0.42348 0.39813 0.0
C1602 C 0.12686 0.51881 0.37533 0.0
Dy1603 Dy 0.15639 0.4544 0.39214 0.0
O1604 O 0.1247 0.50653 0.36504 0.0
O1605 O 0.13683 0.51423 0.3873 0.0
O1606 O 0.1541 0.48343 0.35419 0.0
O1607 O 0.14662 0.46339 0.36885 0.0
C1608 C 0.15469 0.4673 0.35627 0.0
C1609 C 0.14252 0.47521 0.41386 0.0
O1610 O 0.18039 0.46918 0.38748 0.0
O1611 O 0.16812 0.49545 0.38255 0.0
O1612 O 0.16962 0.43083 0.38392 0.0
O1613 O 0.16325 0.43328 0.40907 0.0
O1614 O 0.14303 0.45919 0.41618 0.0
O1615 O 0.15091 0.47902 0.40153 0.0
O1616 O 0.11769 0.47328 0.3828 0.0
O1617 O 0.1303 0.44692 0.38336 0.0
C1618 C 0.18148 0.48557 0.3847 0.0
C1619 C 0.11664 0.45673 0.38215 0.0
Dy1620 Dy 0.26188 0.38524 0.12987 0.0
C1621 C 0.32402 0.40925 0.15899 0.0
C1622 C 0.23402 0.36989 0.11735 0.0
Dy1623 Dy 0.29269 0.39859 0.14988 0.0
O1624 O 0.2492 0.36848 0.11152 0.0
O1625 O 0.23408 0.37966 0.13014 0.0
O1626 O 0.26841 0.40254 0.10909 0.0
O1627 O 0.28738 0.39316 0.12425 0.0
C1628 C 0.2845 0.40295 0.11255 0.0
C1629 C 0.26665 0.38754 0.16748 0.0
O1630 O 0.27745 0.42194 0.14444 0.0
O1631 O 0.25177 0.40847 0.14122 0.0
O1632 O 0.31576 0.39746 0.16631 0.0
O1633 O 0.31499 0.41534 0.14694 0.0
O1634 O 0.27642 0.39952 0.1727 0.0
O1635 O 0.27214 0.38176 0.1543 0.0
O1636 O 0.27657 0.36169 0.13269 0.0
O1637 O 0.30207 0.37296 0.14214 0.0
C1638 C 0.26066 0.42222 0.14349 0.0
C1639 C 0.29289 0.36024 0.13641 0.0
Dy1640 Dy 0.35957 0.4987 0.87593 0.0
C1641 C 0.33851 0.55828 0.90916 0.0
C1642 C 0.36455 0.47128 0.85655 0.0
Dy1643 Dy 0.34559 0.52696 0.898 0.0
O1644 O 0.37131 0.47318 0.87112 0.0
O1645 O 0.35534 0.48421 0.85286 0.0
O1646 O 0.3671 0.51849 0.85816 0.0
O1647 O 0.34495 0.52171 0.87188 0.0
C1648 C 0.35461 0.5284 0.86173 0.0
C1649 C 0.35243 0.49846 0.91367 0.0
O1650 O 0.32201 0.51697 0.88614 0.0
O1651 O 0.33363 0.49063 0.8829 0.0
O1652 O 0.32925 0.54527 0.91199 0.0
O1653 O 0.3514 0.55414 0.90032 0.0
O1654 O 0.34144 0.50923 0.91915 0.0
O1655 O 0.36026 0.50457 0.90191 0.0
O1656 O 0.3843 0.50762 0.88542 0.0
O1657 O 0.37355 0.53271 0.89578 0.0
C1658 C 0.32033 0.50072 0.88365 0.0
C1659 C 0.38645 0.52279 0.89162 0.0
Dy1660 Dy 0.23573 0.61443 0.6163 0.0
C1661 C 0.17043 0.59155 0.63904 0.0
C1662 C 0.26764 0.62223 0.60656 0.0
Dy1663 Dy 0.20331 0.60082 0.63356 0.0
O1664 O 0.25669 0.63292 0.61218 0.0
O1665 O 0.26116 0.60739 0.6063 0.0
O1666 O 0.22195 0.61834 0.59249 0.0
O1667 O 0.21352 0.59998 0.60871 0.0
C1668 C 0.20977 0.60828 0.59598 0.0
C1669 C 0.22953 0.60862 0.65363 0.0
O1670 O 0.21763 0.57685 0.62938 0.0
O1671 O 0.24374 0.58975 0.62653 0.0
O1672 O 0.18074 0.59753 0.65015 0.0
O1673 O 0.17822 0.59041 0.62514 0.0
O1674 O 0.21819 0.59756 0.65744 0.0
O1675 O 0.2251 0.61582 0.64056 0.0
O1676 O 0.22333 0.63833 0.62338 0.0
O1677 O 0.19645 0.62755 0.62769 0.0
C1678 C 0.23441 0.57628 0.62867 0.0
C1679 C 0.2068 0.64032 0.62532 0.0
Dy1680 Dy 0.13265 0.50418 0.1271 0.0
C1681 C 0.1539 0.56966 0.10646 0.0
C1682 C 0.12487 0.47127 0.1303 0.0
Dy1683 Dy 0.14754 0.53675 0.11365 0.0
O1684 O 0.11817 0.48342 0.13866 0.0
O1685 O 0.13573 0.47714 0.12001 0.0
O1686 O 0.12526 0.51557 0.15084 0.0
O1687 O 0.14604 0.52546 0.13814 0.0
C1688 C 0.13597 0.52778 0.14995 0.0
C1689 C 0.14227 0.51155 0.09203 0.0
O1690 O 0.1722 0.52473 0.12117 0.0
O1691 O 0.16061 0.49904 0.12834 0.0
O1692 O 0.14415 0.5598 0.09794 0.0
O1693 O 0.16054 0.56137 0.11868 0.0
O1694 O 0.15512 0.52157 0.09118 0.0
O1695 O 0.13288 0.51613 0.1035 0.0
O1696 O 0.10901 0.51718 0.11923 0.0
O1697 O 0.12108 0.54332 0.1216 0.0
C1698 C 0.17374 0.50897 0.12606 0.0
C1699 C 0.10761 0.53351 0.12138 0.0
Dy1700 Dy 0.2413 0.38528 0.86165 0.0
C1701 C 0.17355 0.40434 0.83988 0.0
C1702 C 0.27346 0.37675 0.87155 0.0
Dy1703 Dy 0.20687 0.39606 0.84444 0.0
O1704 O 0.26173 0.36628 0.8673 0.0
O1705 O 0.26768 0.39193 0.87021 0.0
O1706 O 0.22854 0.38438 0.88601 0.0
O1707 O 0.21952 0.40083 0.86794 0.0
C1708 C 0.21654 0.39466 0.88177 0.0
C1709 C 0.23145 0.38522 0.82451 0.0
O1710 O 0.2201 0.42049 0.84743 0.0
O1711 O 0.2472 0.40892 0.84828 0.0
O1712 O 0.18464 0.40353 0.82822 0.0
O1713 O 0.1807 0.40061 0.85384 0.0
O1714 O 0.21942 0.39524 0.81943 0.0
O1715 O 0.22836 0.38036 0.83873 0.0
O1716 O 0.22895 0.36064 0.85842 0.0
O1717 O 0.20139 0.37004 0.85335 0.0
C1718 C 0.23678 0.42192 0.84662 0.0
C1719 C 0.21242 0.35806 0.85738 0.0
Dy1720 Dy 0.36315 0.48891 0.61326 0.0
C1721 C 0.33109 0.43312 0.581 0.0
C1722 C 0.3767 0.5171 0.62659 0.0
Dy1723 Dy 0.3441 0.46251 0.59216 0.0
O1724 O 0.38176 0.50198 0.62975 0.0
O1725 O 0.36425 0.51686 0.61599 0.0
O1726 O 0.36875 0.47021 0.63291 0.0
O1727 O 0.34672 0.4679 0.61832 0.0
C1728 C 0.35601 0.46082 0.62893 0.0
C1729 C 0.35319 0.49029 0.57635 0.0
O1730 O 0.32148 0.47689 0.60078 0.0
O1731 O 0.33625 0.49793 0.61468 0.0
O1732 O 0.3417 0.44228 0.573 0.0
O1733 O 0.32748 0.44017 0.5949 0.0
O1734 O 0.34011 0.48148 0.57186 0.0
O1735 O 0.36132 0.48285 0.58748 0.0
O1736 O 0.38442 0.47629 0.60049 0.0
O1737 O 0.37003 0.45141 0.59711 0.0
C1738 C 0.32197 0.49096 0.60941 0.0
C1739 C 0.38438 0.45989 0.5984 0.0
Dy1740 Dy 0.25953 0.61795 0.37248 0.0
C1741 C 0.31844 0.59056 0.34025 0.0
C1742 C 0.23156 0.63191 0.38604 0.0
Dy1743 Dy 0.28865 0.60403 0.3508 0.0
O1744 O 0.24691 0.63371 0.39165 0.0
O1745 O 0.23156 0.62279 0.37283 0.0
O1746 O 0.2692 0.60258 0.39357 0.0
O1747 O 0.28613 0.61161 0.37625 0.0
C1748 C 0.28475 0.60231 0.38856 0.0
C1749 C 0.26356 0.61966 0.33465 0.0
O1750 O 0.27386 0.58024 0.35568 0.0
O1751 O 0.24989 0.59245 0.36729 0.0
O1752 O 0.30924 0.60134 0.33218 0.0
O1753 O 0.31096 0.58663 0.3538 0.0
O1754 O 0.27857 0.61803 0.32851 0.0
O1755 O 0.26239 0.61079 0.34722 0.0
O1756 O 0.27285 0.64154 0.36561 0.0
O1757 O 0.29856 0.629 0.35945 0.0
C1758 C 0.2583 0.57922 0.36178 0.0
C1759 C 0.28934 0.6425 0.36296 0.0
Dy1760 Dy 0.36549 0.11323 0.49222 0.0
C1761 C 0.38566 0.14921 0.4342 0.0
C1762 C 0.35753 0.09991 0.52184 0.0
Dy1763 Dy 0.38216 0.13265 0.46303 0.0
O1764 O 0.35186 0.09469 0.50775 0.0
O1765 O 0.36747 0.11256 0.51981 0.0
O1766 O 0.34392 0.10561 0.47553 0.0
O1767 O 0.3568 0.12798 0.47158 0.0
C1768 C 0.3459 0.11822 0.46579 0.0
C1769 C 0.40384 0.1184 0.48447 0.0
O1770 O 0.37398 0.1544 0.47906 0.0
O1771 O 0.35914 0.1397 0.49916 0.0
O1772 O 0.39625 0.15033 0.44657 0.0
O1773 O 0.37343 0.13916 0.43768 0.0
O1774 O 0.40807 0.12195 0.46949 0.0
O1775 O 0.38958 0.12463 0.48738 0.0
O1776 O 0.37882 0.09285 0.47863 0.0
O1777 O 0.37851 0.10636 0.4535 0.0
C1778 C 0.36452 0.15388 0.49253 0.0
C1779 C 0.37913 0.09244 0.46236 0.0
Dy1780 Dy 0.88295 0.37247 0.52791 0.0
C1781 C 0.89599 0.30662 0.50169 0.0
C1782 C 0.87545 0.40142 0.54352 0.0
Dy1783 Dy 0.88725 0.33673 0.51477 0.0
O1784 O 0.89063 0.39544 0.54167 0.0
O1785 O 0.86425 0.39138 0.53717 0.0
O1786 O 0.89845 0.38284 0.50805 0.0
O1787 O 0.90378 0.35847 0.51661 0.0
C1788 C 0.90727 0.36932 0.50597 0.0
C1789 C 0.85692 0.34418 0.52726 0.0
O1790 O 0.90085 0.33375 0.53899 0.0
O1791 O 0.89568 0.36053 0.54947 0.0
O1792 O 0.88663 0.30867 0.51454 0.0
O1793 O 0.90095 0.32102 0.49635 0.0
O1794 O 0.85881 0.3339 0.51506 0.0
O1795 O 0.87107 0.34884 0.53255 0.0
O1796 O 0.86541 0.37247 0.506 0.0
O1797 O 0.87859 0.35065 0.4924 0.0
C1798 C 0.90198 0.34519 0.55081 0.0
C1799 C 0.86817 0.36368 0.49246 0.0
Dy1800 Dy 0.35871 0.1315 0.25539 0.0
C1801 C 0.38765 0.15974 0.31465 0.0
C1802 C 0.34668 0.12093 0.2257 0.0
Dy1803 Dy 0.37695 0.14968 0.28422 0.0
O1804 O 0.34064 0.11672 0.23982 0.0
O1805 O 0.35929 0.1311 0.22777 0.0
O1806 O 0.34979 0.1114 0.27221 0.0
O1807 O 0.37264 0.12373 0.27736 0.0
C1808 C 0.36197 0.11366 0.28284 0.0
C1809 C 0.37295 0.16737 0.25665 0.0
O1810 O 0.39974 0.13814 0.27248 0.0
O1811 O 0.38598 0.127 0.24937 0.0
O1812 O 0.37726 0.16807 0.30521 0.0
O1813 O 0.39234 0.14605 0.30735 0.0
O1814 O 0.38553 0.16971 0.26686 0.0
O1815 O 0.36262 0.15725 0.26255 0.0
O1816 O 0.33753 0.14585 0.26618 0.0
O1817 O 0.34982 0.14649 0.29205 0.0
C1818 C 0.39986 0.13016 0.25817 0.0
C1819 C 0.33619 0.14681 0.28231 0.0
Dy1820 Dy 0.61814 0.62396 0.00079 0.0
C1821 C 0.59535 0.65221 0.06249 0.0
C1822 C 0.62558 0.61025 0.97105 0.0
Dy1823 Dy 0.60075 0.64177 0.03075 0.0
O1824 O 0.63292 0.6064 0.98489 0.0
O1825 O 0.61423 0.62182 0.97339 0.0
O1826 O 0.64192 0.61925 0.01508 0.0
O1827 O 0.62642 0.63963 0.02135 0.0
C1828 C 0.639 0.63083 0.0259 0.0
C1829 C 0.58045 0.63245 0.0055 0.0
O1830 O 0.60572 0.6645 0.01535 0.0
O1831 O 0.61658 0.65059 0.99232 0.0
O1832 O 0.60858 0.65559 0.05381 0.0
O1833 O 0.58469 0.64366 0.05355 0.0
O1834 O 0.57701 0.64525 0.01492 0.0
O1835 O 0.59319 0.62486 0.01114 0.0
O1836 O 0.60862 0.6021 0.0146 0.0
O1837 O 0.60726 0.61582 0.03965 0.0
C1838 C 0.6116 0.66437 9e-05 0.0
C1839 C 0.60838 0.60187 0.03085 0.0
Dy1840 Dy 0.63994 0.37136 0.24407 0.0
C1841 C 0.60309 0.35576 0.30311 0.0
C1842 C 0.65487 0.37485 0.21424 0.0
Dy1843 Dy 0.61766 0.36058 0.27328 0.0
O1844 O 0.65907 0.3829 0.22753 0.0
O1845 O 0.64273 0.36454 0.21741 0.0
O1846 O 0.64393 0.39659 0.25552 0.0
O1847 O 0.62167 0.38354 0.25994 0.0
C1848 C 0.6302 0.3961 0.26405 0.0
C1849 C 0.62736 0.33634 0.2526 0.0
O1850 O 0.59667 0.3669 0.2552 0.0
O1851 O 0.61414 0.36855 0.23241 0.0
O1852 O 0.60238 0.36961 0.29484 0.0
O1853 O 0.61154 0.34458 0.29499 0.0
O1854 O 0.61287 0.33634 0.25999 0.0
O1855 O 0.63612 0.34848 0.25748 0.0
O1856 O 0.65999 0.36317 0.2618 0.0
O1857 O 0.64314 0.36748 0.28456 0.0
C1858 C 0.59889 0.36805 0.23906 0.0
C1859 C 0.65831 0.36593 0.27776 0.0
Dy1860 Dy 0.10704 0.88099 0.99064 0.0
C1861 C 0.0849 0.85282 0.92897 0.0
C1862 C 0.11625 0.89412 0.02036 0.0
Dy1863 Dy 0.09106 0.86295 0.96057 0.0
O1864 O 0.12095 0.8996 0.00619 0.0
O1865 O 0.10628 0.8814 0.01834 0.0
O1866 O 0.12984 0.88773 0.97607 0.0
O1867 O 0.11663 0.86582 0.97042 0.0
C1868 C 0.12812 0.87546 0.96579 0.0
C1869 C 0.0703 0.86884 0.98573 0.0
O1870 O 0.09959 0.84027 0.97457 0.0
O1871 O 0.10743 0.85418 -0.00128 0.0
O1872 O 0.07471 0.86199 0.93766 0.0
O1873 O 0.09813 0.84876 0.93776 0.0
O1874 O 0.06846 0.85615 0.9758 0.0
O1875 O 0.08173 0.87828 0.98065 0.0
O1876 O 0.09482 0.90229 0.97762 0.0
O1877 O 0.09606 0.88931 0.95231 0.0
C1878 C 0.10487 0.84024 0.99014 0.0
C1879 C 0.09527 0.90307 0.96142 0.0
Dy1880 Dy 0.37189 0.86634 0.23173 0.0
C1881 C 0.39444 0.84359 0.16739 0.0
C1882 C 0.36034 0.87495 0.26208 0.0
Dy1883 Dy 0.38304 0.85017 0.19818 0.0
O1884 O 0.35499 0.88123 0.24827 0.0
O1885 O 0.37189 0.86363 0.25931 0.0
O1886 O 0.38142 0.89137 0.22436 0.0
O1887 O 0.37305 0.87431 0.20629 0.0
C1888 C 0.38046 0.88803 0.20877 0.0
C1889 C 0.37681 0.82913 0.22282 0.0
O1890 O 0.407 0.86222 0.20744 0.0
O1891 O 0.3999 0.86497 0.23512 0.0
O1892 O 0.40064 0.8368 0.18066 0.0
O1893 O 0.38203 0.85353 0.171 0.0
O1894 O 0.37462 0.82487 0.20752 0.0
O1895 O 0.38338 0.84325 0.22365 0.0
O1896 O 0.34741 0.85632 0.22132 0.0
O1897 O 0.35528 0.85261 0.19408 0.0
C1898 C 0.41099 0.86528 0.22304 0.0
C1899 C 0.3436 0.85382 0.20556 0.0
Dy1900 Dy 0.12559 0.13057 0.74957 0.0
C1901 C 0.1012 0.1577 0.68695 0.0
C1902 C 0.13698 0.12052 0.77969 0.0
Dy1903 Dy 0.11107 0.15016 0.71867 0.0
O1904 O 0.14644 0.12655 0.76826 0.0
O1905 O 0.12133 0.11998 0.77465 0.0
O1906 O 0.12391 0.10576 0.73695 0.0
O1907 O 0.108 0.12544 0.72934 0.0
C1908 C 0.11352 0.11111 0.72564 0.0
C1909 C 0.12418 0.16868 0.74333 0.0
O1910 O 0.08794 0.14956 0.73468 0.0
O1911 O 0.1029 0.1441 0.75901 0.0
O1912 O 0.11259 0.16567 0.69553 0.0
O1913 O 0.09466 0.14613 0.69603 0.0
O1914 O 0.11212 0.17415 0.73359 0.0
O1915 O 0.12925 0.15467 0.73833 0.0
O1916 O 0.14886 0.13159 0.73484 0.0
O1917 O 0.13595 0.13934 0.71002 0.0
C1918 C 0.08883 0.14842 0.751 0.0
C1919 C 0.14918 0.13386 0.71878 0.0
H1920 H 0.10609 0.187 0.37211 0.0
H1921 H 0.07922 0.21198 0.33265 0.0
H1922 H 0.08594 0.16419 0.37081 0.0
H1923 H 0.05941 0.1888 0.33075 0.0
H1924 H 0.01367 0.16217 0.35377 0.0
H1925 H 0.03682 0.18102 0.34786 0.0
H1926 H 0.07289 0.14121 0.35761 0.0
H1927 H 0.04969 0.12271 0.36442 0.0
C1928 C 0.09619 0.1873 0.36277 0.0
C1929 C 0.094 0.2013 0.35265 0.0
C1930 C 0.08465 0.17419 0.36195 0.0
C1931 C 0.07083 0.17479 0.35086 0.0
C1932 C 0.06963 0.18815 0.33973 0.0
C1933 C 0.08105 0.20135 0.3407 0.0
C1934 C 0.02655 0.15744 0.35447 0.0
C1935 C 0.02991 0.14106 0.35963 0.0
C1936 C 0.03984 0.16817 0.35091 0.0
C1937 C 0.05678 0.16266 0.35229 0.0
C1938 C 0.06004 0.14595 0.35666 0.0
C1939 C 0.04674 0.1353 0.36042 0.0
H1940 H 0.03725 0.85401 0.57788 0.0
H1941 H 0.06201 0.88704 0.61255 0.0
H1942 H 0.0622 0.8359 0.578 0.0
H1943 H 0.08681 0.86864 0.61297 0.0
H1944 H 0.10925 0.80466 0.58357 0.0
H1945 H 0.09583 0.83128 0.57598 0.0
H1946 H 0.0808 0.83857 0.62631 0.0
H1947 H 0.09392 0.81187 0.63381 0.0
C1948 C 0.04832 0.85776 0.58494 0.0
C1949 C 0.04763 0.87158 0.59553 0.0
C1950 C 0.06261 0.84745 0.58497 0.0
C1951 C 0.07619 0.8508 0.59575 0.0
C1952 C 0.07638 0.86582 0.60466 0.0
C1953 C 0.0622 0.87631 0.6044 0.0
C1954 C 0.10336 0.81217 0.59303 0.0
C1955 C 0.10237 0.80629 0.60922 0.0
C1956 C 0.09581 0.82736 0.5887 0.0
C1957 C 0.0875 0.83695 0.6006 0.0
C1958 C 0.08742 0.83149 0.61699 0.0
C1959 C 0.09468 0.81617 0.62124 0.0
H1960 H 0.46059 0.83141 0.86565 0.0
H1961 H 0.42549 0.8535 0.83074 0.0
H1962 H 0.44136 0.80789 0.86918 0.0
H1963 H 0.40631 0.83001 0.83421 0.0
H1964 H 0.41375 0.75991 0.85432 0.0
H1965 H 0.43172 0.78427 0.85088 0.0
H1966 H 0.38805 0.81666 0.85557 0.0
H1967 H 0.37001 0.79218 0.85903 0.0
C1968 C 0.44872 0.83128 0.85885 0.0
C1969 C 0.44455 0.84413 0.84783 0.0
C1970 C 0.43778 0.8178 0.86077 0.0
C1971 C 0.42243 0.81707 0.85183 0.0
C1972 C 0.41803 0.83027 0.84127 0.0
C1973 C 0.42903 0.84365 0.83924 0.0
C1974 C 0.40796 0.77222 0.85442 0.0
C1975 C 0.39052 0.77421 0.85693 0.0
C1976 C 0.41827 0.78616 0.85263 0.0
C1977 C 0.4113 0.80234 0.85318 0.0
C1978 C 0.39374 0.80431 0.85509 0.0
C1979 C 0.38343 0.79034 0.85702 0.0
H1980 H 0.39371 0.19082 0.14044 0.0
H1981 H 0.4166 0.20439 0.0947 0.0
H1982 H 0.41388 0.16784 0.1437 0.0
H1983 H 0.43757 0.18211 0.09827 0.0
H1984 H 0.47157 0.1379 0.10621 0.0
H1985 H 0.44618 0.15417 0.10017 0.0
H1986 H 0.44243 0.16717 0.15162 0.0
H1987 H 0.46739 0.15011 0.1577 0.0
C1988 C 0.40282 0.18849 0.13085 0.0
C1989 C 0.40365 0.19912 0.11727 0.0
C1990 C 0.41456 0.17555 0.13283 0.0
C1991 C 0.42767 0.17336 0.1215 0.0
C1992 C 0.42762 0.1833 0.10722 0.0
C1993 C 0.41559 0.19604 0.10508 0.0
C1994 C 0.46529 0.14423 0.11624 0.0
C1995 C 0.47156 0.14293 0.13243 0.0
C1996 C 0.45072 0.15357 0.11276 0.0
C1997 C 0.44221 0.16206 0.12535 0.0
C1998 C 0.4484 0.16054 0.14161 0.0
C1999 C 0.46283 0.15093 0.14513 0.0
H2000 H 0.03725 0.84072 0.14313 0.0
H2001 H 0.0157 0.8177 0.09974 0.0
H2002 H 0.06108 0.82068 0.14232 0.0
H2003 H 0.03918 0.79795 0.09888 0.0
H2004 H 0.09057 0.77542 0.09216 0.0
H2005 H 0.0711 0.79902 0.09429 0.0
H2006 H 0.06327 0.78783 0.14542 0.0
H2007 H 0.08282 0.76407 0.14339 0.0
C2008 C 0.03779 0.83159 0.13332 0.0
C2009 C 0.0248 0.83077 0.12143 0.0
C2010 C 0.05127 0.82008 0.13293 0.0
C2011 C 0.05199 0.80789 0.12045 0.0
C2012 C 0.03907 0.80736 0.10849 0.0
C2013 C 0.02558 0.81858 0.10905 0.0
C2014 C 0.08485 0.77802 0.10392 0.0
C2015 C 0.08805 0.76768 0.11754 0.0
C2016 C 0.07372 0.79156 0.10512 0.0
C2017 C 0.06565 0.79516 0.11999 0.0
C2018 C 0.06944 0.78537 0.13384 0.0
C2019 C 0.08049 0.77169 0.13262 0.0
H2020 H 0.46665 0.85646 0.33497 0.0
H2021 H 0.48937 0.85132 0.38326 0.0
H2022 H 0.44387 0.83768 0.34291 0.0
H2023 H 0.46663 0.83267 0.39113 0.0
H2024 H 0.413 0.81671 0.40499 0.0
H2025 H 0.4354 0.83525 0.396 0.0
H2026 H 0.43958 0.80714 0.35088 0.0
H2027 H 0.41715 0.78839 0.36 0.0
C2028 C 0.46681 0.85135 0.34726 0.0
C2029 C 0.47986 0.85545 0.35848 0.0
C2030 C 0.4538 0.84051 0.35177 0.0
C2031 C 0.45341 0.83373 0.36767 0.0
C2032 C 0.46646 0.83782 0.37885 0.0
C2033 C 0.47956 0.84845 0.37429 0.0
C2034 C 0.41868 0.81447 0.39314 0.0
C2035 C 0.41337 0.80103 0.38324 0.0
C2036 C 0.43157 0.82506 0.38803 0.0
C2037 C 0.43935 0.82262 0.37277 0.0
C2038 C 0.43379 0.8094 0.36267 0.0
C2039 C 0.42099 0.79863 0.3679 0.0
H2040 H 0.43719 0.12935 0.62296 0.0
H2041 H 0.45568 0.16593 0.65788 0.0
H2042 H 0.41326 0.1477 0.61612 0.0
H2043 H 0.43178 0.18423 0.65103 0.0
H2044 H 0.37958 0.20654 0.64614 0.0
H2045 H 0.39948 0.18415 0.65375 0.0
H2046 H 0.41066 0.1761 0.60252 0.0
H2047 H 0.3909 0.19838 0.59497 0.0
C2048 C 0.43615 0.14134 0.62909 0.0
C2049 C 0.44822 0.14631 0.64091 0.0
C2050 C 0.42247 0.15176 0.62524 0.0
C2051 C 0.42062 0.1672 0.63324 0.0
C2052 C 0.43278 0.17221 0.64495 0.0
C2053 C 0.44654 0.16186 0.6487 0.0
C2054 C 0.38601 0.19968 0.63654 0.0
C2055 C 0.38396 0.2042 0.62003 0.0
C2056 C 0.39743 0.18701 0.64088 0.0
C2057 C 0.40668 0.17863 0.6287 0.0
C2058 C 0.40363 0.18236 0.61211 0.0
C2059 C 0.3924 0.19512 0.60781 0.0
H2060 H 0.08725 0.21818 0.91353 0.0
H2061 H 0.12814 0.18648 0.89705 0.0
H2062 H 0.06988 0.19362 0.91775 0.0
H2063 H 0.11135 0.16186 0.9024 0.0
H2064 H 0.06523 0.13325 0.8795 0.0
H2065 H 0.08861 0.15158 0.88638 0.0
H2066 H 0.06267 0.1678 0.93016 0.0
H2067 H 0.03892 0.14983 0.92279 0.0
C2068 C 0.09273 0.20593 0.91142 0.0
C2069 C 0.10894 0.20422 0.90484 0.0
C2070 C 0.08286 0.1918 0.91399 0.0
C2071 C 0.08916 0.17573 0.91019 0.0
C2072 C 0.10601 0.17405 0.90514 0.0
C2073 C 0.11571 0.18817 0.90227 0.0
C2074 C 0.06478 0.14034 0.89085 0.0
C2075 C 0.05019 0.1405 0.90041 0.0
C2076 C 0.07824 0.15082 0.89489 0.0
C2077 C 0.07735 0.16147 0.90867 0.0
C2078 C 0.06353 0.16008 0.91925 0.0
C2079 C 0.05 0.14973 0.91509 0.0
H2080 H 0.33563 0.03335 0.17229 0.0
H2081 H 0.35076 0.0662 0.13327 0.0
H2082 H 0.33146 0.05733 0.19023 0.0
H2083 H 0.34593 0.09038 0.151 0.0
H2084 H 0.36424 0.12112 0.19719 0.0
H2085 H 0.36091 0.10157 0.1744 0.0
H2086 H 0.3157 0.08211 0.19652 0.0
H2087 H 0.31948 0.10128 0.2196 0.0
C2088 C 0.33771 0.04575 0.16746 0.0
C2089 C 0.34364 0.04794 0.15149 0.0
C2090 C 0.33515 0.05954 0.17767 0.0
C2091 C 0.33839 0.07581 0.17206 0.0
C2092 C 0.34352 0.07801 0.15575 0.0
C2093 C 0.34618 0.06418 0.14557 0.0
C2094 C 0.35336 0.11296 0.19693 0.0
C2095 C 0.34229 0.11244 0.21023 0.0
C2096 C 0.35138 0.10178 0.18384 0.0
C2097 C 0.33821 0.09003 0.18381 0.0
C2098 C 0.32622 0.09071 0.19639 0.0
C2099 C 0.3283 0.10175 0.20954 0.0
H2100 H 0.1449 0.07797 0.46994 0.0
H2101 H 0.12248 0.1188 0.44257 0.0
H2102 H 0.16159 0.0701 0.44611 0.0
H2103 H 0.13942 0.1111 0.41878 0.0
H2104 H 0.17316 0.0942 0.37781 0.0
H2105 H 0.14963 0.09047 0.39691 0.0
H2106 H 0.18555 0.08799 0.43735 0.0
H2107 H 0.20869 0.09188 0.41841 0.0
C2108 C 0.14321 0.08497 0.45867 0.0
C2109 C 0.13275 0.09921 0.45815 0.0
C2110 C 0.15273 0.08045 0.44505 0.0
C2111 C 0.15202 0.09017 0.43072 0.0
C2112 C 0.14018 0.10334 0.42964 0.0
C2113 C 0.13057 0.10783 0.44329 0.0
C2114 C 0.17592 0.09224 0.39072 0.0
C2115 C 0.1926 0.09321 0.39676 0.0
C2116 C 0.16252 0.09024 0.40163 0.0
C2117 C 0.16577 0.08888 0.4186 0.0
C2118 C 0.18263 0.08871 0.42434 0.0
C2119 C 0.19588 0.09104 0.41354 0.0
H2120 H 0.17249 0.898 0.71033 0.0
H2121 H 0.13047 0.87093 0.68904 0.0
H2122 H 0.17251 0.91654 0.68677 0.0
H2123 H 0.1305 0.88952 0.66531 0.0
H2124 H 0.16795 0.95085 0.64475 0.0
H2125 H 0.17362 0.92359 0.65722 0.0
H2126 H 0.1205 0.91909 0.66836 0.0
H2127 H 0.11486 0.94608 0.65552 0.0
C2128 C 0.16376 0.89557 0.70024 0.0
C2129 C 0.1512 0.88339 0.70163 0.0
C2130 C 0.16379 0.90616 0.6867 0.0
C2131 C 0.15119 0.90472 0.67444 0.0
C2132 C 0.14013 0.89106 0.67478 0.0
C2133 C 0.14018 0.88038 0.6883 0.0
C2134 C 0.15746 0.94377 0.64949 0.0
C2135 C 0.14099 0.95047 0.64927 0.0
C2136 C 0.16071 0.92823 0.65663 0.0
C2137 C 0.14751 0.91918 0.66368 0.0
C2138 C 0.1309 0.92561 0.66276 0.0
C2139 C 0.12768 0.94117 0.65567 0.0
H2140 H 0.34599 0.88482 0.98587 0.0
H2141 H 0.36628 0.83993 0.96371 0.0
H2142 H 0.32861 0.88976 0.96125 0.0
H2143 H 0.34927 0.84506 0.93914 0.0
H2144 H 0.29711 0.84492 0.91331 0.0
H2145 H 0.31908 0.84283 0.93426 0.0
H2146 H 0.32761 0.89598 0.931 0.0
H2147 H 0.30515 0.89806 0.90978 0.0
C2148 C 0.34693 0.87613 0.97569 0.0
C2149 C 0.35731 0.86181 0.9769 0.0
C2150 C 0.33708 0.87905 0.96152 0.0
C2151 C 0.33743 0.86772 0.94828 0.0
C2152 C 0.34846 0.85388 0.94922 0.0
C2153 C 0.35823 0.85093 0.96335 0.0
C2154 C 0.30382 0.85616 0.91688 0.0
C2155 C 0.29938 0.87166 0.91001 0.0
C2156 C 0.31651 0.85494 0.92883 0.0
C2157 C 0.32513 0.86924 0.93434 0.0
C2158 C 0.3211 0.88476 0.92708 0.0
C2159 C 0.30838 0.88595 0.91488 0.0
H2160 H 0.32938 0.93989 0.34361 0.0
H2161 H 0.38199 0.94627 0.33166 0.0
H2162 H 0.32836 0.91474 0.32613 0.0
H2163 H 0.38111 0.9212 0.31463 0.0
H2164 H 0.37848 0.87161 0.29063 0.0
H2165 H 0.37611 0.88933 0.3151 0.0
H2166 H 0.33162 0.91307 0.29417 0.0
H2167 H 0.33413 0.89557 0.26968 0.0
C2168 C 0.34076 0.93571 0.33751 0.0
C2169 C 0.35569 0.94506 0.33872 0.0
C2170 C 0.34019 0.92138 0.32755 0.0
C2171 C 0.35467 0.91602 0.31907 0.0
C2172 C 0.36981 0.9249 0.32115 0.0
C2173 C 0.37027 0.93935 0.33075 0.0
C2174 C 0.36791 0.88025 0.2915 0.0
C2175 C 0.35659 0.88239 0.27823 0.0
C2176 C 0.36659 0.89041 0.30546 0.0
C2177 C 0.35376 0.90264 0.30645 0.0
C2178 C 0.34156 0.90368 0.29379 0.0
C2179 C 0.34304 0.89372 0.27974 0.0
H2180 H 0.31516 0.09848 0.61875 0.0
H2181 H 0.27903 0.07758 0.58432 0.0
H2182 H 0.33768 0.09424 0.59907 0.0
H2183 H 0.30114 0.0745 0.56413 0.0
H2184 H 0.34096 0.07104 0.528 0.0
H2185 H 0.32601 0.06393 0.55302 0.0
H2186 H 0.34433 0.10941 0.57582 0.0
H2187 H 0.35996 0.1158 0.55122 0.0
C2188 C 0.31212 0.09263 0.60709 0.0
C2189 C 0.29536 0.08851 0.60296 0.0
C2190 C 0.32498 0.09039 0.59571 0.0
C2191 C 0.32123 0.08442 0.57982 0.0
C2192 C 0.30464 0.07903 0.57624 0.0
C2193 C 0.29186 0.08093 0.58777 0.0
C2194 C 0.3421 0.07922 0.53858 0.0
C2195 C 0.35133 0.09408 0.5377 0.0
C2196 C 0.33347 0.07523 0.55287 0.0
C2197 C 0.33361 0.08624 0.56637 0.0
C2198 C 0.34398 0.10048 0.5658 0.0
C2199 C 0.35287 0.10427 0.55163 0.0
H2200 H 0.11895 0.11267 0.80665 0.0
H2201 H 0.16915 0.11003 0.78643 0.0
H2202 H 0.12788 0.09407 0.82889 0.0
H2203 H 0.17798 0.09103 0.80853 0.0
H2204 H 0.16322 0.03472 0.82603 0.0
H2205 H 0.16461 0.06071 0.81052 0.0
H2206 H 0.14961 0.08846 0.85357 0.0
H2207 H 0.14858 0.06241 0.86913 0.0
C2208 C 0.13202 0.10847 0.80725 0.0
C2209 C 0.14333 0.11255 0.7948 0.0
C2210 C 0.13716 0.09794 0.82003 0.0
C2211 C 0.15359 0.09112 0.82034 0.0
C2212 C 0.16526 0.09619 0.80853 0.0
C2213 C 0.1602 0.10701 0.79593 0.0
C2214 C 0.16092 0.04646 0.83231 0.0
C2215 C 0.15599 0.04665 0.84876 0.0
C2216 C 0.16178 0.06132 0.82349 0.0
C2217 C 0.15724 0.07655 0.8309 0.0
C2218 C 0.15329 0.07686 0.84766 0.0
C2219 C 0.15281 0.06198 0.85658 0.0
H2220 H 0.20509 0.89763 0.07054 0.0
H2221 H 0.1734 0.89448 0.11307 0.0
H2222 H 0.18026 0.90338 0.05334 0.0
H2223 H 0.14829 0.90025 0.09583 0.0
H2224 H 0.11482 0.87838 0.05001 0.0
H2225 H 0.13485 0.88202 0.0729 0.0
H2226 H 0.15653 0.92438 0.04837 0.0
H2227 H 0.13665 0.92068 0.02551 0.0
C2228 C 0.1928 0.89861 0.07623 0.0
C2229 C 0.19108 0.89596 0.09309 0.0
C2230 C 0.17861 0.902 0.06645 0.0
C2231 C 0.16237 0.90244 0.0733 0.0
C2232 C 0.16068 0.90014 0.0903 0.0
C2233 C 0.17501 0.89704 0.10016 0.0
C2234 C 0.12346 0.88882 0.04982 0.0
C2235 C 0.12448 0.89905 0.03591 0.0
C2236 C 0.13489 0.89094 0.06292 0.0
C2237 C 0.14741 0.9033 0.06221 0.0
C2238 C 0.14715 0.91461 0.04908 0.0
C2239 C 0.13577 0.9125 0.03603 0.0
H2240 H 0.15992 0.34292 0.04108 0.0
H2241 H 0.1713 0.39558 0.04309 0.0
H2242 H 0.17534 0.33874 0.06719 0.0
H2243 H 0.18623 0.3915 0.06923 0.0
H2244 H 0.20219 0.38244 0.1205 0.0
H2245 H 0.17951 0.38047 0.09984 0.0
H2246 H 0.20901 0.34438 0.07276 0.0
H2247 H 0.23184 0.34661 0.09318 0.0
C2248 C 0.16559 0.35357 0.04722 0.0
C2249 C 0.16471 0.36951 0.04011 0.0
C2250 C 0.17426 0.3512 0.0621 0.0
C2251 C 0.18172 0.36484 0.0702 0.0
C2252 C 0.18033 0.38085 0.0633 0.0
C2253 C 0.17203 0.38314 0.04828 0.0
C2254 C 0.20354 0.37363 0.11046 0.0
C2255 C 0.21879 0.36487 0.1082 0.0
C2256 C 0.19062 0.37255 0.09867 0.0
C2257 C 0.1927 0.36242 0.08473 0.0
C2258 C 0.20715 0.35222 0.08347 0.0
C2259 C 0.22019 0.35354 0.09509 0.0
H2260 H 0.70821 0.14275 0.89189 0.0
H2261 H 0.73495 0.12523 0.93522 0.0
H2262 H 0.68359 0.14955 0.90865 0.0
H2263 H 0.71039 0.13204 0.95193 0.0
H2264 H 0.66623 0.16107 0.97701 0.0
H2265 H 0.69216 0.15726 0.96106 0.0
H2266 H 0.66377 0.13019 0.92404 0.0
H2267 H 0.63811 0.13389 0.93983 0.0
C2268 C 0.70885 0.14052 0.905 0.0
C2269 C 0.72331 0.13336 0.9123 0.0
C2270 C 0.69482 0.14436 0.91455 0.0
C2271 C 0.69517 0.14122 0.93151 0.0
C2272 C 0.7099 0.13467 0.93889 0.0
C2273 C 0.72385 0.13068 0.92933 0.0
C2274 C 0.66564 0.15426 0.9655 0.0
C2275 C 0.65027 0.14781 0.95958 0.0
C2276 C 0.68039 0.15211 0.95641 0.0
C2277 C 0.6798 0.14365 0.94127 0.0
C2278 C 0.66444 0.13703 0.93553 0.0
C2279 C 0.64982 0.13903 0.94464 0.0
H2280 H 0.14628 0.44573 0.12236 0.0
H2281 H 0.10076 0.45726 0.14901 0.0
H2282 H 0.14835 0.41872 0.13631 0.0
H2283 H 0.10269 0.43034 0.16277 0.0
H2284 H 0.10804 0.38107 0.18588 0.0
H2285 H 0.10394 0.39877 0.1617 0.0
H2286 H 0.15549 0.41591 0.1667 0.0
H2287 H 0.15954 0.39828 0.19083 0.0
C2288 C 0.13639 0.44222 0.13074 0.0
C2289 C 0.1235 0.4536 0.13486 0.0
C2290 C 0.13761 0.42682 0.13875 0.0
C2291 C 0.12579 0.42254 0.15074 0.0
C2292 C 0.11193 0.43324 0.15351 0.0
C2293 C 0.11085 0.4487 0.14571 0.0
C2294 C 0.11859 0.38835 0.18156 0.0
C2295 C 0.13399 0.38868 0.19037 0.0
C2296 C 0.11624 0.39842 0.16773 0.0
C2297 C 0.12934 0.4088 0.16243 0.0
C2298 C 0.1452 0.40794 0.17043 0.0
C2299 C 0.14749 0.398 0.18433 0.0
H2300 H 0.83831 0.83335 0.44537 0.0
H2301 H 0.84892 0.88608 0.44655 0.0
H2302 H 0.82046 0.83752 0.4207 0.0
H2303 H 0.8322 0.89016 0.42168 0.0
H2304 H 0.79081 0.8526 0.3731 0.0
H2305 H 0.81536 0.84686 0.39128 0.0
H2306 H 0.80174 0.88962 0.421 0.0
H2307 H 0.77779 0.8953 0.40304 0.0
C2308 C 0.83741 0.84566 0.43994 0.0
C2309 C 0.84481 0.85944 0.44786 0.0
C2310 C 0.82724 0.84807 0.42583 0.0
C2311 C 0.82458 0.86426 0.41947 0.0
C2312 C 0.8336 0.87761 0.42649 0.0
C2313 C 0.84333 0.87527 0.44067 0.0
C2314 C 0.79333 0.86085 0.38341 0.0
C2315 C 0.78244 0.87441 0.38668 0.0
C2316 C 0.80728 0.85752 0.39383 0.0
C2317 C 0.81062 0.86786 0.4075 0.0
C2318 C 0.79983 0.88159 0.41041 0.0
C2319 C 0.78597 0.8848 0.40016 0.0
H2320 H 0.88067 0.10067 0.19204 0.0
H2321 H 0.87061 0.06019 0.22515 0.0
H2322 H 0.88457 0.0807 0.16954 0.0
H2323 H 0.87414 0.0402 0.20277 0.0
H2324 H 0.89061 0.0064 0.16307 0.0
H2325 H 0.89539 0.02847 0.1833 0.0
H2326 H 0.86365 0.06196 0.15475 0.0
H2327 H 0.85901 0.03986 0.13438 0.0
C2328 C 0.87997 0.08748 0.1946 0.0
C2329 C 0.87582 0.08188 0.21032 0.0
C2330 C 0.8819 0.07608 0.18171 0.0
C2331 C 0.87979 0.0589 0.18445 0.0
C2332 C 0.87615 0.05333 0.20036 0.0
C2333 C 0.87404 0.06474 0.21314 0.0
C2334 C 0.88495 0.01859 0.16095 0.0
C2335 C 0.87425 0.02142 0.14734 0.0
C2336 C 0.88766 0.03118 0.17253 0.0
C2337 C 0.87973 0.04682 0.17068 0.0
C2338 C 0.87001 0.05003 0.15643 0.0
C2339 C 0.86727 0.03739 0.14483 0.0
H2340 H 0.33443 0.65551 0.53449 0.0
H2341 H 0.36751 0.62247 0.56208 0.0
H2342 H 0.31344 0.65396 0.55609 0.0
H2343 H 0.34645 0.62092 0.58379 0.0
H2344 H 0.29239 0.60057 0.59751 0.0
H2345 H 0.3182 0.60693 0.58278 0.0
H2346 H 0.30618 0.65961 0.58543 0.0
H2347 H 0.28024 0.65318 0.60024 0.0
C2348 C 0.33734 0.6482 0.54536 0.0
C2349 C 0.35243 0.63889 0.54652 0.0
C2350 C 0.32538 0.6474 0.55778 0.0
C2351 C 0.32824 0.63719 0.57155 0.0
C2352 C 0.34384 0.62874 0.57321 0.0
C2353 C 0.35589 0.62966 0.56083 0.0
C2354 C 0.29543 0.61352 0.59521 0.0
C2355 C 0.28429 0.62638 0.59983 0.0
C2356 C 0.31027 0.61718 0.5869 0.0
C2357 C 0.31417 0.63377 0.58291 0.0
C2358 C 0.30341 0.64671 0.58826 0.0
C2359 C 0.28862 0.64304 0.59675 0.0
H2360 H 0.10014 0.60982 0.3241 0.0
H2361 H 0.15317 0.5967 0.32121 0.0
H2362 H 0.09709 0.59085 0.34732 0.0
H2363 H 0.15017 0.57805 0.34467 0.0
H2364 H 0.14157 0.54663 0.38803 0.0
H2365 H 0.14031 0.57457 0.37592 0.0
H2366 H 0.10121 0.55803 0.3422 0.0
H2367 H 0.10283 0.53004 0.35393 0.0
C2368 C 0.11125 0.60327 0.32876 0.0
C2369 C 0.12682 0.60432 0.32069 0.0
C2370 C 0.10948 0.59252 0.34206 0.0
C2371 C 0.12336 0.58301 0.34765 0.0
C2372 C 0.13932 0.58539 0.34063 0.0
C2373 C 0.14101 0.59591 0.32714 0.0
C2374 C 0.13229 0.54917 0.37843 0.0
C2375 C 0.12247 0.53623 0.37166 0.0
C2376 C 0.13159 0.56511 0.37154 0.0
C2377 C 0.12075 0.56832 0.35812 0.0
C2378 C 0.10958 0.55585 0.35264 0.0
C2379 C 0.11056 0.53984 0.35927 0.0
H2380 H 0.34901 0.46718 0.82733 0.0
H2381 H 0.38418 0.44276 0.86066 0.0
H2382 H 0.35098 0.44386 0.80851 0.0
H2383 H 0.3861 0.41887 0.84146 0.0
H2384 H 0.39635 0.39392 0.78723 0.0
H2385 H 0.39623 0.41272 0.81128 0.0
H2386 H 0.34158 0.41431 0.80912 0.0
H2387 H 0.34177 0.3962 0.7851 0.0
C2388 C 0.35716 0.45675 0.83067 0.0
C2389 C 0.36637 0.45675 0.8455 0.0
C2390 C 0.3582 0.4433 0.8199 0.0
C2391 C 0.36848 0.42941 0.82362 0.0
C2392 C 0.37803 0.42942 0.83834 0.0
C2393 C 0.3769 0.44301 0.84929 0.0
C2394 C 0.38437 0.39807 0.79219 0.0
C2395 C 0.36909 0.39405 0.78417 0.0
C2396 C 0.38429 0.40874 0.80594 0.0
C2397 C 0.36891 0.41527 0.8118 0.0
C2398 C 0.35364 0.40981 0.80462 0.0
C2399 C 0.35375 0.39946 0.79088 0.0
H2400 H 0.98898 0.83251 0.64211 0.0
H2401 H 0.94922 0.86967 0.63908 0.0
H2402 H 0.96781 0.81082 0.64557 0.0
H2403 H 0.92816 0.84836 0.64369 0.0
H2404 H 0.8983 0.80483 0.62039 0.0
H2405 H 0.91751 0.8279 0.62553 0.0
H2406 H 0.94584 0.79752 0.66028 0.0
H2407 H 0.9269 0.77421 0.65452 0.0
C2408 C 0.97576 0.8361 0.64281 0.0
C2409 C 0.97069 0.85271 0.64021 0.0
C2410 C 0.96361 0.82371 0.64488 0.0
C2411 C 0.94623 0.82783 0.64461 0.0
C2412 C 0.94138 0.84471 0.64354 0.0
C2413 C 0.95348 0.85697 0.64114 0.0
C2414 C 0.90847 0.80322 0.62931 0.0
C2415 C 0.91129 0.78778 0.63692 0.0
C2416 C 0.91944 0.81646 0.63239 0.0
C2417 C 0.9333 0.81455 0.6433 0.0
C2418 C 0.93547 0.79932 0.65162 0.0
C2419 C 0.9246 0.78601 0.64839 0.0
H2420 H 0.88592 0.19318 0.40843 0.0
H2421 H 0.90013 0.18303 0.35834 0.0
H2422 H 0.89994 0.16728 0.41731 0.0
H2423 H 0.91391 0.15705 0.36716 0.0
H2424 H 0.93251 0.10929 0.38325 0.0
H2425 H 0.90788 0.12786 0.38233 0.0
H2426 H 0.9335 0.16231 0.41493 0.0
H2427 H 0.95829 0.14397 0.41557 0.0
C2428 C 0.89176 0.18519 0.39931 0.0
C2429 C 0.89217 0.19001 0.38274 0.0
C2430 C 0.89964 0.17042 0.40438 0.0
C2431 C 0.90775 0.16018 0.39289 0.0
C2432 C 0.90743 0.16463 0.37619 0.0
C2433 C 0.89981 0.17955 0.37117 0.0
C2434 C 0.93259 0.12047 0.3908 0.0
C2435 C 0.94739 0.12555 0.39909 0.0
C2436 C 0.91851 0.13105 0.39025 0.0
C2437 C 0.91905 0.14656 0.39828 0.0
C2438 C 0.93286 0.15038 0.40862 0.0
C2439 C 0.94705 0.13993 0.40895 0.0
H2440 H 0.53834 0.16303 0.17099 0.0
H2441 H 0.55147 0.13898 0.12538 0.0
H2442 H 0.55736 0.18594 0.16492 0.0
H2443 H 0.57039 0.1622 0.11903 0.0
H2444 H 0.61612 0.19839 0.12372 0.0
H2445 H 0.5976 0.17477 0.12959 0.0
H2446 H 0.55854 0.20919 0.14514 0.0
H2447 H 0.57702 0.23266 0.13937 0.0
C2448 C 0.54522 0.16274 0.15957 0.0
C2449 C 0.54322 0.14942 0.14847 0.0
C2450 C 0.55606 0.17589 0.15607 0.0
C2451 C 0.56528 0.17594 0.14145 0.0
C2452 C 0.56346 0.16248 0.13041 0.0
C2453 C 0.55247 0.14933 0.13389 0.0
C2454 C 0.60361 0.20084 0.1285 0.0
C2455 C 0.598 0.21731 0.13117 0.0
C2456 C 0.59297 0.18736 0.13171 0.0
C2457 C 0.57661 0.19014 0.1378 0.0
C2458 C 0.57113 0.20664 0.14061 0.0
C2459 C 0.5817 0.22008 0.13729 0.0
H2460 H 0.5357 0.85939 0.84196 0.0
H2461 H 0.51217 0.83359 0.88211 0.0
H2462 H 0.56167 0.84328 0.84667 0.0
H2463 H 0.53782 0.81723 0.8865 0.0
H2464 H 0.58751 0.79284 0.89637 0.0
H2465 H 0.5674 0.81639 0.89496 0.0
H2466 H 0.56934 0.81482 0.84193 0.0
H2467 H 0.58941 0.79188 0.84345 0.0
C2468 C 0.53604 0.85025 0.85174 0.0
C2469 C 0.52179 0.84759 0.86149 0.0
C2470 C 0.55094 0.84107 0.85449 0.0
C2471 C 0.55184 0.82895 0.86698 0.0
C2472 C 0.53771 0.82666 0.87699 0.0
C2473 C 0.52289 0.83589 0.87431 0.0
C2474 C 0.58395 0.79795 0.88451 0.0
C2475 C 0.58971 0.79046 0.87002 0.0
C2476 C 0.57236 0.81129 0.88366 0.0
C2477 C 0.56655 0.81733 0.86831 0.0
C2478 C 0.57355 0.81063 0.85395 0.0
C2479 C 0.58497 0.79736 0.85481 0.0
H2480 H 0.89484 0.21357 0.89992 0.0
H2481 H 0.91926 0.23544 0.85804 0.0
H2482 H 0.91148 0.18819 0.89642 0.0
H2483 H 0.93637 0.21009 0.85485 0.0
H2484 H 0.9598 0.15795 0.84924 0.0
H2485 H 0.93736 0.17946 0.84892 0.0
H2486 H 0.9412 0.18324 0.90181 0.0
H2487 H 0.96308 0.16191 0.90208 0.0
C2488 C 0.90377 0.21296 0.88995 0.0
C2489 C 0.90601 0.22663 0.87946 0.0
C2490 C 0.91328 0.1984 0.88793 0.0
C2491 C 0.92539 0.19723 0.87549 0.0
C2492 C 0.92704 0.21057 0.86447 0.0
C2493 C 0.91737 0.22514 0.8664 0.0
C2494 C 0.95556 0.16327 0.86074 0.0
C2495 C 0.96321 0.15849 0.87566 0.0
C2496 C 0.94285 0.17559 0.86056 0.0
C2497 C 0.93754 0.18304 0.87534 0.0
C2498 C 0.9448 0.17762 0.89023 0.0
C2499 C 0.95747 0.1655 0.89038 0.0
H2500 H 0.58798 0.17579 0.58277 0.0
H2501 H 0.57814 0.20767 0.62447 0.0
H2502 H 0.56588 0.15675 0.59164 0.0
H2503 H 0.55605 0.18865 0.63339 0.0
H2504 H 0.51182 0.13866 0.6019 0.0
H2505 H 0.53484 0.15677 0.5937 0.0
H2506 H 0.55198 0.16016 0.64416 0.0
H2507 H 0.52883 0.14214 0.65246 0.0
C2508 C 0.58111 0.1787 0.59385 0.0
C2509 C 0.58479 0.19319 0.60295 0.0
C2510 C 0.56841 0.16783 0.5989 0.0
C2511 C 0.55916 0.17119 0.6132 0.0
C2512 C 0.56306 0.18559 0.62242 0.0
C2513 C 0.5757 0.1965 0.61731 0.0
C2514 C 0.52049 0.14322 0.61128 0.0
C2515 C 0.51843 0.13893 0.62786 0.0
C2516 C 0.53377 0.15354 0.60654 0.0
C2517 C 0.54527 0.15991 0.61827 0.0
C2518 C 0.54324 0.1556 0.63485 0.0
C2519 C 0.53001 0.14518 0.63958 0.0
H2520 H 0.6075 0.80014 0.38541 0.0
H2521 H 0.59111 0.77129 0.34331 0.0
H2522 H 0.58798 0.82256 0.37755 0.0
H2523 H 0.57232 0.79399 0.33481 0.0
H2524 H 0.5268 0.82877 0.33426 0.0
H2525 H 0.54655 0.80655 0.34237 0.0
H2526 H 0.58273 0.84375 0.35842 0.0
H2527 H 0.56265 0.8657 0.3512 0.0
C2528 C 0.59995 0.79881 0.37428 0.0
C2529 C 0.60066 0.7841 0.36496 0.0
C2530 C 0.58881 0.81162 0.36972 0.0
C2531 C 0.57847 0.81002 0.35559 0.0
C2532 C 0.57976 0.79546 0.34598 0.0
C2533 C 0.59064 0.78255 0.35072 0.0
C2534 C 0.53897 0.83207 0.33959 0.0
C2535 C 0.54328 0.84881 0.34215 0.0
C2536 C 0.55033 0.81942 0.34412 0.0
C2537 C 0.56628 0.82338 0.35099 0.0
C2538 C 0.57049 0.84022 0.35345 0.0
C2539 C 0.55903 0.8528 0.34921 0.0
H2540 H 0.89035 0.78861 0.12706 0.0
H2541 H 0.87601 0.79046 0.07577 0.0
H2542 H 0.90313 0.81604 0.12495 0.0
H2543 H 0.88881 0.8182 0.07356 0.0
H2544 H 0.94417 0.84328 0.07809 0.0
H2545 H 0.91962 0.82531 0.07519 0.0
H2546 H 0.89878 0.84646 0.1195 0.0
H2547 H 0.92355 0.86431 0.12252 0.0
C2548 C 0.88978 0.79505 0.11538 0.0
C2549 C 0.88243 0.7875 0.10154 0.0
C2550 C 0.89681 0.81087 0.11421 0.0
C2551 C 0.89681 0.81932 0.0991 0.0
C2552 C 0.88891 0.81196 0.08535 0.0
C2553 C 0.8817 0.79614 0.08659 0.0
C2554 C 0.93401 0.84458 0.08683 0.0
C2555 C 0.93592 0.85468 0.10083 0.0
C2556 C 0.91988 0.83436 0.08512 0.0
C2557 C 0.90757 0.83419 0.09741 0.0
C2558 C 0.90832 0.84614 0.11007 0.0
C2559 C 0.92246 0.85635 0.11178 0.0
H2560 H 0.61128 0.95273 0.83133 0.0
H2561 H 0.66334 0.94371 0.84566 0.0
H2562 H 0.61075 0.92649 0.81655 0.0
H2563 H 0.66264 0.91663 0.83139 0.0
H2564 H 0.65723 0.88529 0.7817 0.0
H2565 H 0.66125 0.90631 0.80323 0.0
H2566 H 0.61061 0.89704 0.82039 0.0
H2567 H 0.60638 0.87687 0.79827 0.0
C2568 C 0.6226 0.945 0.83143 0.0
C2569 C 0.63732 0.95012 0.83972 0.0
C2570 C 0.62223 0.92979 0.82318 0.0
C2571 C 0.63655 0.91925 0.82308 0.0
C2572 C 0.65138 0.92442 0.83133 0.0
C2573 C 0.65176 0.9398 0.83957 0.0
C2574 C 0.64722 0.88743 0.79043 0.0
C2575 C 0.63141 0.87983 0.78827 0.0
C2576 C 0.6495 0.89943 0.80278 0.0
C2577 C 0.63605 0.90368 0.81319 0.0
C2578 C 0.62101 0.89443 0.8122 0.0
C2579 C 0.61861 0.8828 0.79966 0.0
H2580 H 0.79778 0.91074 0.60295 0.0
H2581 H 0.80201 0.85695 0.60207 0.0
H2582 H 0.82138 0.91253 0.5836 0.0
H2583 H 0.82546 0.85866 0.58315 0.0
H2584 H 0.8697 0.86401 0.55175 0.0
H2585 H 0.85501 0.86856 0.57771 0.0
H2586 H 0.82078 0.90323 0.55358 0.0
H2587 H 0.83539 0.89866 0.52776 0.0
C2588 C 0.80406 0.89938 0.59894 0.0
C2589 C 0.798 0.88371 0.60365 0.0
C2590 C 0.81749 0.90038 0.58791 0.0
C2591 C 0.8252 0.88573 0.58184 0.0
C2592 C 0.81991 0.87017 0.58771 0.0
C2593 C 0.80637 0.86918 0.5984 0.0
C2594 C 0.8593 0.87289 0.55214 0.0
C2595 C 0.85344 0.88076 0.53776 0.0
C2596 C 0.85092 0.87551 0.56696 0.0
C2597 C 0.83669 0.88616 0.56762 0.0
C2598 C 0.83179 0.89507 0.55349 0.0
C2599 C 0.84004 0.89233 0.53867 0.0
H2600 H 0.85397 0.0532 0.36247 0.0
H2601 H 0.85021 0.02476 0.31754 0.0
H2602 H 0.84566 0.0787 0.34763 0.0
H2603 H 0.84225 0.05007 0.30261 0.0
H2604 H 0.81916 0.09188 0.27903 0.0
H2605 H 0.81814 0.07144 0.30111 0.0
H2606 H 0.86062 0.09533 0.32517 0.0
H2607 H 0.86152 0.1159 0.30317 0.0
C2608 C 0.85102 0.05243 0.34949 0.0
C2609 C 0.85238 0.03716 0.34109 0.0
C2610 C 0.8464 0.06695 0.34102 0.0
C2611 C 0.84295 0.06625 0.32408 0.0
C2612 C 0.84438 0.05088 0.31576 0.0
C2613 C 0.84917 0.03647 0.32419 0.0
C2614 C 0.82778 0.0932 0.28941 0.0
C2615 C 0.84073 0.10509 0.28924 0.0
C2616 C 0.82725 0.08147 0.30198 0.0
C2617 C 0.83964 0.08156 0.31449 0.0
C2618 C 0.85099 0.09495 0.31557 0.0
C2619 C 0.85151 0.10672 0.30298 0.0
H2620 H 0.64423 0.10531 0.00833 0.0
H2621 H 0.62058 0.14709 0.03304 0.0
H2622 H 0.66137 0.09963 0.03282 0.0
H2623 H 0.63758 0.14122 0.0576 0.0
H2624 H 0.68601 0.0887 0.08245 0.0
H2625 H 0.66252 0.09116 0.06237 0.0
H2626 H 0.66775 0.14486 0.06308 0.0
H2627 H 0.69086 0.14236 0.08286 0.0
C2628 C 0.64249 0.11315 0.01905 0.0
C2629 C 0.63118 0.12683 0.01859 0.0
C2630 C 0.65222 0.10977 0.03317 0.0
C2631 C 0.65093 0.12002 0.04716 0.0
C2632 C 0.63903 0.1332 0.04696 0.0
C2633 C 0.62927 0.13656 0.03286 0.0
C2634 C 0.68179 0.10099 0.07854 0.0
C2635 C 0.69028 0.11533 0.08406 0.0
C2636 C 0.66847 0.10241 0.06698 0.0
C2637 C 0.6633 0.11822 0.06104 0.0
C2638 C 0.67122 0.13252 0.06746 0.0
C2639 C 0.68457 0.13108 0.07873 0.0
H2640 H 0.66211 0.08925 0.73208 0.0
H2641 H 0.62459 0.11957 0.70692 0.0
H2642 H 0.66513 0.07192 0.70739 0.0
H2643 H 0.62739 0.10206 0.68243 0.0
H2644 H 0.61628 0.04672 0.66278 0.0
H2645 H 0.61825 0.07019 0.68186 0.0
H2646 H 0.67222 0.07222 0.67457 0.0
H2647 H 0.6701 0.04883 0.65482 0.0
C2648 C 0.65484 0.09246 0.72115 0.0
C2649 C 0.64301 0.10566 0.72145 0.0
C2650 C 0.65663 0.08259 0.70702 0.0
C2651 C 0.64643 0.08562 0.69305 0.0
C2652 C 0.63538 0.09946 0.69304 0.0
C2653 C 0.63379 0.10947 0.70706 0.0
C2654 C 0.62852 0.0524 0.66499 0.0
C2655 C 0.64305 0.04601 0.65743 0.0
C2656 C 0.62963 0.06587 0.67584 0.0
C2657 C 0.64538 0.073 0.67969 0.0
C2658 C 0.65993 0.06693 0.67177 0.0
C2659 C 0.65872 0.05366 0.66047 0.0
H2660 H 0.68959 0.86154 0.39481 0.0
H2661 H 0.6919 0.9141 0.38331 0.0
H2662 H 0.66864 0.86754 0.41593 0.0
H2663 H 0.67142 0.92016 0.405 0.0
H2664 H 0.62463 0.88456 0.44701 0.0
H2665 H 0.63624 0.88598 0.41934 0.0
H2666 H 0.68127 0.90933 0.4389 0.0
H2667 H 0.67001 0.90735 0.46668 0.0
C2668 C 0.6853 0.8743 0.39659 0.0
C2669 C 0.69235 0.88738 0.38768 0.0
C2670 C 0.67329 0.87772 0.40853 0.0
C2671 C 0.66853 0.89428 0.41191 0.0
C2672 C 0.67487 0.90731 0.40239 0.0
C2673 C 0.68655 0.90383 0.3901 0.0
C2674 C 0.63676 0.89051 0.44532 0.0
C2675 C 0.64661 0.89565 0.45889 0.0
C2676 C 0.64332 0.89134 0.42953 0.0
C2677 C 0.65953 0.8978 0.42717 0.0
C2678 C 0.66863 0.90449 0.44053 0.0
C2679 C 0.66226 0.90328 0.45637 0.0
H2680 H 0.8202 0.93365 0.13635 0.0
H2681 H 0.874 0.92978 0.14562 0.0
H2682 H 0.81599 0.90732 0.15122 0.0
H2683 H 0.86995 0.90369 0.16013 0.0
H2684 H 0.86247 0.85642 0.18369 0.0
H2685 H 0.86023 0.87396 0.15923 0.0
H2686 H 0.82031 0.90266 0.18193 0.0
H2687 H 0.82249 0.8851 0.20627 0.0
C2688 C 0.83111 0.92694 0.14121 0.0
C2689 C 0.84737 0.93377 0.14017 0.0
C2690 C 0.82873 0.91194 0.14968 0.0
C2691 C 0.84264 0.90347 0.15683 0.0
C2692 C 0.85899 0.90978 0.1546 0.0
C2693 C 0.86131 0.92482 0.14646 0.0
C2694 C 0.85284 0.86612 0.1832 0.0
C2695 C 0.84291 0.8697 0.19695 0.0
C2696 C 0.85156 0.87615 0.16922 0.0
C2697 C 0.8403 0.88983 0.16881 0.0
C2698 C 0.82907 0.89218 0.18187 0.0
C2699 C 0.8304 0.8822 0.19586 0.0
H2700 H 0.89214 0.11641 0.94232 0.0
H2701 H 0.86706 0.0721 0.95932 0.0
H2702 H 0.87361 0.11687 0.91804 0.0
H2703 H 0.84855 0.07259 0.93529 0.0
H2704 H 0.81179 0.07925 0.89477 0.0
H2705 H 0.8404 0.07371 0.90569 0.0
H2706 H 0.8436 0.12508 0.92198 0.0
H2707 H 0.81536 0.13049 0.91107 0.0
C2708 C 0.88318 0.10636 0.9405 0.0
C2709 C 0.88061 0.0945 0.95284 0.0
C2710 C 0.87255 0.10665 0.92665 0.0
C2711 C 0.85933 0.09505 0.92502 0.0
C2712 C 0.85855 0.08174 0.93619 0.0
C2713 C 0.8691 0.08151 0.95004 0.0
C2714 C 0.81885 0.08937 0.90039 0.0
C2715 C 0.81136 0.10518 0.90243 0.0
C2716 C 0.83518 0.08623 0.90656 0.0
C2717 C 0.84425 0.09895 0.91469 0.0
C2718 C 0.8371 0.11506 0.91559 0.0
C2719 C 0.82079 0.11811 0.90961 0.0
H2720 H 0.85909 0.62856 0.93164 0.0
H2721 H 0.81705 0.64135 0.96275 0.0
H2722 H 0.84106 0.63249 0.90733 0.0
H2723 H 0.79894 0.64479 0.93867 0.0
H2724 H 0.76761 0.65235 0.89592 0.0
H2725 H 0.79144 0.65916 0.91398 0.0
H2726 H 0.81842 0.61562 0.89626 0.0
H2727 H 0.79485 0.60933 0.8777 0.0
C2728 C 0.84605 0.63246 0.93324 0.0
C2729 C 0.8393 0.63438 0.94901 0.0
C2730 C 0.83574 0.63466 0.91935 0.0
C2731 C 0.81853 0.6388 0.92104 0.0
C2732 C 0.81218 0.64182 0.93686 0.0
C2733 C 0.82249 0.63967 0.9507 0.0
C2734 C 0.77889 0.64457 0.89556 0.0
C2735 C 0.77937 0.63015 0.88575 0.0
C2736 C 0.79248 0.64842 0.90593 0.0
C2737 C 0.80662 0.6377 0.90688 0.0
C2738 C 0.80775 0.62418 0.89582 0.0
C2739 C 0.79422 0.6205 0.88523 0.0
H2740 H 0.36083 0.85976 0.06288 0.0
H2741 H 0.32364 0.8405 0.02853 0.0
H2742 H 0.33874 0.86449 0.08304 0.0
H2743 H 0.30141 0.84587 0.04834 0.0
H2744 H 0.26789 0.84 0.09126 0.0
H2745 H 0.29188 0.83462 0.07349 0.0
H2746 H 0.31449 0.88114 0.08931 0.0
H2747 H 0.29078 0.88605 0.10767 0.0
C2748 C 0.34786 0.85681 0.05958 0.0
C2749 C 0.34386 0.84967 0.04425 0.0
C2750 C 0.33522 0.85954 0.0711 0.0
C2751 C 0.31835 0.85533 0.06739 0.0
C2752 C 0.31434 0.8488 0.05176 0.0
C2753 C 0.32701 0.84589 0.04034 0.0
C2754 C 0.27818 0.84888 0.09113 0.0
C2755 C 0.27754 0.86346 0.10068 0.0
C2756 C 0.29181 0.84592 0.08084 0.0
C2757 C 0.30491 0.85764 0.0797 0.0
C2758 C 0.30464 0.87184 0.08993 0.0
C2759 C 0.29109 0.87467 0.10043 0.0
H2760 H 0.85408 0.54579 0.86194 0.0
H2761 H 0.89285 0.52573 0.83043 0.0
H2762 H 0.85446 0.5721 0.84669 0.0
H2763 H 0.8934 0.55207 0.81537 0.0
H2764 H 0.84068 0.59497 0.79407 0.0
H2765 H 0.84446 0.57475 0.81616 0.0
H2766 H 0.89814 0.58462 0.81745 0.0
H2767 H 0.89426 0.6053 0.79544 0.0
C2768 C 0.86299 0.54719 0.85205 0.0
C2769 C 0.87327 0.53374 0.84716 0.0
C2770 C 0.8632 0.56219 0.84335 0.0
C2771 C 0.8739 0.56402 0.82985 0.0
C2772 C 0.88513 0.55101 0.82582 0.0
C2773 C 0.88474 0.53592 0.83435 0.0
C2774 C 0.85325 0.593 0.79925 0.0
C2775 C 0.86722 0.60146 0.793 0.0
C2776 C 0.85538 0.58157 0.81198 0.0
C2777 C 0.87158 0.57819 0.81848 0.0
C2778 C 0.88553 0.58707 0.81261 0.0
C2779 C 0.88332 0.59882 0.80006 0.0
H2780 H 0.14952 0.10554 0.5456 0.0
H2781 H 0.15096 0.15931 0.5426 0.0
H2782 H 0.16773 0.1062 0.56989 0.0
H2783 H 0.16975 0.16002 0.56701 0.0
H2784 H 0.22508 0.14412 0.58782 0.0
H2785 H 0.2006 0.14902 0.56977 0.0
H2786 H 0.17078 0.11607 0.59945 0.0
H2787 H 0.19529 0.11127 0.61763 0.0
C2788 C 0.15353 0.11755 0.55037 0.0
C2789 C 0.14901 0.13237 0.5422 0.0
C2790 C 0.16387 0.11794 0.56436 0.0
C2791 C 0.17024 0.13315 0.57033 0.0
C2792 C 0.16505 0.14812 0.56262 0.0
C2793 C 0.15429 0.14774 0.54875 0.0
C2794 C 0.21319 0.13821 0.59069 0.0
C2795 C 0.21211 0.12716 0.604 0.0
C2796 C 0.19914 0.14113 0.58043 0.0
C2797 C 0.18379 0.13289 0.58317 0.0
C2798 C 0.18247 0.12254 0.59702 0.0
C2799 C 0.19648 0.11979 0.60741 0.0
H2800 H 0.0942 0.90273 0.78616 0.0
H2801 H 0.14833 0.90987 0.78728 0.0
H2802 H 0.09187 0.91823 0.81217 0.0
H2803 H 0.14607 0.92508 0.81309 0.0
H2804 H 0.14057 0.94522 0.86276 0.0
H2805 H 0.13743 0.9221 0.84319 0.0
H2806 H 0.09787 0.94951 0.81767 0.0
H2807 H 0.1011 0.97256 0.83708 0.0
C2808 C 0.10556 0.90746 0.79209 0.0
C2809 C 0.12139 0.90539 0.78472 0.0
C2810 C 0.10424 0.91623 0.80692 0.0
C2811 C 0.1188 0.92271 0.81466 0.0
C2812 C 0.13468 0.92 0.80753 0.0
C2813 C 0.13594 0.91153 0.79264 0.0
C2814 C 0.13085 0.94603 0.85328 0.0
C2815 C 0.12127 0.9607 0.85118 0.0
C2816 C 0.12908 0.93285 0.8421 0.0
C2817 C 0.11755 0.93416 0.82885 0.0
C2818 C 0.10679 0.94815 0.82781 0.0
C2819 C 0.10871 0.96138 0.83884 0.0
H2820 H 0.71825 0.34689 0.40975 0.0
H2821 H 0.70017 0.38777 0.37967 0.0
H2822 H 0.69168 0.34725 0.42476 0.0
H2823 H 0.67359 0.38823 0.39481 0.0
H2824 H 0.64924 0.40086 0.44623 0.0
H2825 H 0.67014 0.39698 0.42478 0.0
H2826 H 0.65918 0.34421 0.42318 0.0
H2827 H 0.63797 0.34818 0.44467 0.0
C2828 C 0.70841 0.35567 0.4061 0.0
C2829 C 0.71128 0.3674 0.39369 0.0
C2830 C 0.69318 0.35583 0.41463 0.0
C2831 C 0.68065 0.36786 0.41103 0.0
C2832 C 0.68311 0.37891 0.3979 0.0
C2833 C 0.69827 0.3786 0.38922 0.0
C2834 C 0.65115 0.38847 0.44115 0.0
C2835 C 0.64219 0.37478 0.44719 0.0
C2836 C 0.66299 0.38627 0.42877 0.0
C2837 C 0.66627 0.37029 0.42232 0.0
C2838 C 0.6569 0.35664 0.42798 0.0
C2839 C 0.6448 0.35891 0.44023 0.0
H2840 H 0.88589 0.47375 0.65988 0.0
H2841 H 0.854 0.45056 0.62293 0.0
H2842 H 0.88852 0.44698 0.67414 0.0
H2843 H 0.85642 0.42394 0.63735 0.0
H2844 H 0.83843 0.4008 0.68871 0.0
H2845 H 0.84277 0.42159 0.66731 0.0
H2846 H 0.89686 0.41402 0.67133 0.0
H2847 H 0.89248 0.39285 0.69255 0.0
C2848 C 0.87989 0.46283 0.65457 0.0
C2849 C 0.86947 0.46419 0.64056 0.0
C2850 C 0.88146 0.44754 0.66265 0.0
C2851 C 0.8725 0.43359 0.65685 0.0
C2852 C 0.86335 0.43463 0.64203 0.0
C2853 C 0.86195 0.44983 0.63384 0.0
C2854 C 0.8512 0.40342 0.68482 0.0
C2855 C 0.86513 0.39546 0.69225 0.0
C2856 C 0.85368 0.41513 0.67252 0.0
C2857 C 0.87014 0.41923 0.66772 0.0
C2858 C 0.88408 0.41093 0.67484 0.0
C2859 C 0.88156 0.39892 0.68692 0.0
H2860 H 0.63743 0.55324 0.13724 0.0
H2861 H 0.60401 0.52195 0.16495 0.0
H2862 H 0.63229 0.57632 0.15642 0.0
H2863 H 0.59861 0.54499 0.18388 0.0
H2864 H 0.62 0.57754 0.22653 0.0
H2865 H 0.61782 0.55696 0.20458 0.0
H2866 H 0.61177 0.59662 0.16906 0.0
H2867 H 0.61426 0.6173 0.1913 0.0
C2868 C 0.6287 0.55144 0.14721 0.0
C2869 C 0.62132 0.53578 0.1498 0.0
C2870 C 0.62567 0.56466 0.15813 0.0
C2871 C 0.6152 0.5624 0.17178 0.0
C2872 C 0.60696 0.54703 0.17364 0.0
C2873 C 0.61002 0.53385 0.16279 0.0
C2874 C 0.61781 0.58183 0.21407 0.0
C2875 C 0.61694 0.59895 0.21059 0.0
C2876 C 0.61648 0.57006 0.20149 0.0
C2877 C 0.6145 0.57514 0.18507 0.0
C2878 C 0.61324 0.59233 0.1816 0.0
C2879 C 0.61438 0.60416 0.19431 0.0
H2880 H 0.51217 0.65272 0.83557 0.0
H2881 H 0.54789 0.62605 0.86654 0.0
H2882 H 0.53414 0.67273 0.82867 0.0
H2883 H 0.56947 0.64642 0.86058 0.0
H2884 H 0.60651 0.68572 0.85087 0.0
H2885 H 0.58843 0.66175 0.84445 0.0
H2886 H 0.54444 0.69432 0.84527 0.0
H2887 H 0.56242 0.71793 0.85092 0.0
C2888 C 0.52478 0.65107 0.84072 0.0
C2889 C 0.52829 0.63821 0.85189 0.0
C2890 C 0.53735 0.66251 0.83684 0.0
C2891 C 0.55345 0.66147 0.84443 0.0
C2892 C 0.55729 0.64764 0.85443 0.0
C2893 C 0.54484 0.63604 0.85802 0.0
C2894 C 0.593 0.68766 0.84931 0.0
C2895 C 0.58576 0.70352 0.85167 0.0
C2896 C 0.58265 0.67399 0.84567 0.0
C2897 C 0.56494 0.67604 0.84447 0.0
C2898 C 0.55799 0.6922 0.84582 0.0
C2899 C 0.56829 0.70577 0.84932 0.0
H2900 H 0.56762 0.38289 0.09973 0.0
H2901 H 0.53734 0.34785 0.07195 0.0
H2902 H 0.5925 0.36509 0.09595 0.0
H2903 H 0.56131 0.32952 0.06934 0.0
H2904 H 0.59931 0.29168 0.07387 0.0
H2905 H 0.58617 0.31746 0.06401 0.0
H2906 H 0.60054 0.34187 0.10968 0.0
H2907 H 0.61508 0.31666 0.11841 0.0
C2908 C 0.56641 0.37155 0.09251 0.0
C2909 C 0.55054 0.36639 0.08661 0.0
C2910 C 0.58059 0.3612 0.09051 0.0
C2911 C 0.57891 0.34534 0.08306 0.0
C2912 C 0.56339 0.34144 0.07528 0.0
C2913 C 0.54942 0.35196 0.0769 0.0
C2914 C 0.59987 0.30277 0.08153 0.0
C2915 C 0.60765 0.30222 0.09705 0.0
C2916 C 0.59229 0.31755 0.07597 0.0
C2917 C 0.59158 0.33176 0.08624 0.0
C2918 C 0.60071 0.33141 0.10125 0.0
C2919 C 0.60888 0.31683 0.10646 0.0
H2920 H 0.87526 0.29607 0.36084 0.0
H2921 H 0.91961 0.26517 0.35357 0.0
H2922 H 0.89251 0.32119 0.35712 0.0
H2923 H 0.93672 0.29008 0.35006 0.0
H2924 H 0.96484 0.33728 0.36512 0.0
H2925 H 0.9457 0.31391 0.36944 0.0
H2926 H 0.91049 0.33475 0.33391 0.0
H2927 H 0.92974 0.35816 0.32949 0.0
C2928 C 0.88863 0.29468 0.35835 0.0
C2929 C 0.89614 0.27873 0.35751 0.0
C2930 C 0.89846 0.30899 0.35622 0.0
C2931 C 0.91595 0.30752 0.3535 0.0
C2932 C 0.92332 0.29155 0.3524 0.0
C2933 C 0.9135 0.27731 0.35429 0.0
C2934 C 0.95296 0.33693 0.35834 0.0
C2935 C 0.94882 0.34937 0.34685 0.0
C2936 C 0.94205 0.32355 0.36076 0.0
C2937 C 0.92671 0.32248 0.35189 0.0
C2938 C 0.92223 0.33531 0.34091 0.0
C2939 C 0.93326 0.34861 0.33833 0.0
H2940 H 0.95388 0.62681 0.64858 0.0
H2941 H 0.97862 0.64893 0.60703 0.0
H2942 H 0.92874 0.64385 0.64296 0.0
H2943 H 0.95381 0.66633 0.60176 0.0
H2944 H 0.90667 0.69489 0.59203 0.0
H2945 H 0.9243 0.66947 0.59379 0.0
H2946 H 0.92344 0.67277 0.64681 0.0
H2947 H 0.90584 0.69755 0.64493 0.0
C2948 C 0.95395 0.63532 0.63827 0.0
C2949 C 0.96833 0.63677 0.62844 0.0
C2950 C 0.93953 0.64503 0.63499 0.0
C2951 C 0.93927 0.65654 0.62195 0.0
C2952 C 0.95343 0.65743 0.61173 0.0
C2953 C 0.96777 0.64761 0.61491 0.0
C2954 C 0.90983 0.68972 0.60397 0.0
C2955 C 0.90521 0.69817 0.61834 0.0
C2956 C 0.92003 0.67532 0.60502 0.0
C2957 C 0.92551 0.66922 0.62045 0.0
C2958 C 0.91943 0.67695 0.63473 0.0
C2959 C 0.90943 0.69127 0.63366 0.0
H2960 H 0.52445 0.32684 0.64215 0.0
H2961 H 0.53693 0.34002 0.59253 0.0
H2962 H 0.546 0.30467 0.64175 0.0
H2963 H 0.55941 0.31923 0.59246 0.0
H2964 H 0.58017 0.26736 0.5869 0.0
H2965 H 0.56113 0.29103 0.58947 0.0
H2966 H 0.5737 0.2947 0.64126 0.0
H2967 H 0.59195 0.27006 0.63873 0.0
C2968 C 0.53223 0.3253 0.63138 0.0
C2969 C 0.52906 0.33491 0.61732 0.0
C2970 C 0.54462 0.31266 0.63111 0.0
C2971 C 0.55427 0.30978 0.6169 0.0
C2972 C 0.55185 0.3205 0.60339 0.0
C2973 C 0.53915 0.33264 0.60349 0.0
C2974 C 0.57888 0.27325 0.59882 0.0
C2975 C 0.58751 0.26689 0.6126 0.0
C2976 C 0.56807 0.287 0.60031 0.0
C2977 C 0.56596 0.2951 0.61556 0.0
C2978 C 0.57478 0.28875 0.62936 0.0
C2979 C 0.58531 0.27468 0.62792 0.0
H2980 H 0.92821 0.29966 0.91339 0.0
H2981 H 0.9016 0.30582 0.86731 0.0
H2982 H 0.95086 0.31743 0.90377 0.0
H2983 H 0.92364 0.32451 0.85778 0.0
H2984 H 0.97356 0.34542 0.83938 0.0
H2985 H 0.9508 0.32725 0.84833 0.0
H2986 H 0.95891 0.34404 0.89839 0.0
H2987 H 0.98229 0.36111 0.88948 0.0
C2988 C 0.92719 0.30501 0.90121 0.0
C2989 C 0.91336 0.30123 0.89096 0.0
C2990 C 0.94009 0.31536 0.89568 0.0
C2991 C 0.93922 0.32261 0.87992 0.0
C2992 C 0.9251 0.31894 0.86981 0.0
C2993 C 0.9124 0.30824 0.87523 0.0
C2994 C 0.97041 0.34515 0.85228 0.0
C2995 C 0.97979 0.35452 0.86375 0.0
C2996 C 0.95727 0.33481 0.85745 0.0
C2997 C 0.95295 0.33393 0.87419 0.0
C2998 C 0.96208 0.34385 0.8855 0.0
C2999 C 0.97544 0.3538 0.88038 0.0
H3000 H 0.90645 0.70511 0.10261 0.0
H3001 H 0.86733 0.68724 0.13449 0.0
H3002 H 0.92515 0.68293 0.11176 0.0
H3003 H 0.88585 0.66415 0.14316 0.0
H3004 H 0.93231 0.64235 0.1713 0.0
H3005 H 0.91016 0.66043 0.15992 0.0
H3006 H 0.93187 0.6548 0.11167 0.0
H3007 H 0.9547 0.63804 0.1234 0.0
C3008 C 0.90172 0.69613 0.11133 0.0
C3009 C 0.88555 0.69791 0.11798 0.0
C3010 C 0.91241 0.68328 0.11649 0.0
C3011 C 0.90705 0.67169 0.12823 0.0
C3012 C 0.89048 0.67302 0.13431 0.0
C3013 C 0.87984 0.68613 0.12929 0.0
C3014 C 0.93227 0.64505 0.15827 0.0
C3015 C 0.94521 0.63897 0.14821 0.0
C3016 C 0.91947 0.65521 0.15169 0.0
C3017 C 0.91926 0.65919 0.13487 0.0
C3018 C 0.93183 0.65234 0.12473 0.0
C3019 C 0.94483 0.64258 0.1314 0.0
H3020 H 0.56514 0.62492 0.37765 0.0
H3021 H 0.54227 0.64076 0.42303 0.0
H3022 H 0.58854 0.64408 0.38266 0.0
H3023 H 0.56581 0.65968 0.42821 0.0
H3024 H 0.5816 0.71111 0.40448 0.0
H3025 H 0.56709 0.68512 0.41032 0.0
H3026 H 0.61262 0.6572 0.39928 0.0
H3027 H 0.62711 0.6835 0.39336 0.0
C3028 C 0.56554 0.63192 0.38906 0.0
C3029 C 0.55175 0.6318 0.39973 0.0
C3030 C 0.57897 0.64285 0.39198 0.0
C3031 C 0.57871 0.65365 0.40563 0.0
C3032 C 0.56611 0.65169 0.41744 0.0
C3033 C 0.55267 0.64087 0.41448 0.0
C3034 C 0.58859 0.69943 0.40377 0.0
C3035 C 0.60543 0.69917 0.39874 0.0
C3036 C 0.58039 0.68456 0.40725 0.0
C3037 C 0.58881 0.66913 0.40543 0.0
C3038 C 0.60592 0.66893 0.40094 0.0
C3039 C 0.61422 0.68392 0.39769 0.0
H3040 H 0.86236 0.62457 0.6951 0.0
H3041 H 0.81639 0.60885 0.71838 0.0
H3042 H 0.85695 0.60517 0.67255 0.0
H3043 H 0.8106 0.58983 0.69556 0.0
H3044 H 0.84418 0.5693 0.63278 0.0
H3045 H 0.8407 0.59438 0.64958 0.0
H3046 H 0.82484 0.56376 0.69014 0.0
H3047 H 0.8278 0.53886 0.67318 0.0
C3048 C 0.85077 0.61742 0.69505 0.0
C3049 C 0.83996 0.61789 0.70856 0.0
C3050 C 0.84761 0.60633 0.68211 0.0
C3051 C 0.83352 0.59567 0.68247 0.0
C3052 C 0.82178 0.59756 0.69516 0.0
C3053 C 0.82502 0.60853 0.70815 0.0
C3054 C 0.83959 0.56801 0.64518 0.0
C3055 C 0.8364 0.55217 0.65179 0.0
C3056 C 0.83767 0.58236 0.65481 0.0
C3057 C 0.83259 0.58108 0.67122 0.0
C3058 C 0.82854 0.56525 0.67748 0.0
C3059 C 0.83039 0.55094 0.66784 0.0
H3060 H 0.68788 0.6279 0.89742 0.0
H3061 H 0.68904 0.57435 0.89133 0.0
H3062 H 0.66261 0.62593 0.91371 0.0
H3063 H 0.66361 0.57221 0.90841 0.0
H3064 H 0.64769 0.58492 0.96511 0.0
H3065 H 0.66264 0.57964 0.9396 0.0
H3066 H 0.63174 0.61699 0.9152 0.0
H3067 H 0.61671 0.62226 0.94082 0.0
C3068 C 0.68247 0.61571 0.89929 0.0
C3069 C 0.69045 0.60128 0.8933 0.0
C3070 C 0.66786 0.61457 0.90851 0.0
C3071 C 0.6611 0.59892 0.9123 0.0
C3072 C 0.66856 0.58443 0.90558 0.0
C3073 C 0.68306 0.58564 0.89589 0.0
C3074 C 0.64373 0.59161 0.95416 0.0
C3075 C 0.63138 0.60428 0.95496 0.0
C3076 C 0.65216 0.58845 0.93951 0.0
C3077 C 0.64846 0.59804 0.9255 0.0
C3078 C 0.63488 0.6095 0.92589 0.0
C3079 C 0.62634 0.61256 0.94053 0.0
H3080 H 0.62155 0.44275 0.15199 0.0
H3081 H 0.67338 0.44527 0.1361 0.0
H3082 H 0.62758 0.41614 0.16539 0.0
H3083 H 0.67956 0.41861 0.14983 0.0
H3084 H 0.67974 0.39625 0.20575 0.0
H3085 H 0.67928 0.41393 0.18144 0.0
H3086 H 0.63753 0.38555 0.1614 0.0
H3087 H 0.63812 0.3677 0.18569 0.0
C3088 C 0.63417 0.43743 0.15117 0.0
C3089 C 0.64706 0.44607 0.14327 0.0
C3090 C 0.63758 0.42212 0.15865 0.0
C3091 C 0.65403 0.4153 0.15857 0.0
C3092 C 0.66678 0.42359 0.14999 0.0
C3093 C 0.66325 0.43881 0.14221 0.0
C3094 C 0.671 0.39331 0.19581 0.0
C3095 C 0.65873 0.3809 0.1977 0.0
C3096 C 0.67076 0.4034 0.18186 0.0
C3097 C 0.65814 0.40128 0.16974 0.0
C3098 C 0.64726 0.38752 0.1707 0.0
C3099 C 0.64765 0.37729 0.18456 0.0
H3100 H 0.87166 0.34916 0.4623 0.0
H3101 H 0.84436 0.38843 0.48745 0.0
H3102 H 0.85522 0.35467 0.43742 0.0
H3103 H 0.82776 0.39382 0.46242 0.0
H3104 H 0.80627 0.40432 0.41045 0.0
H3105 H 0.82833 0.40291 0.43212 0.0
H3106 H 0.82481 0.34907 0.43194 0.0
H3107 H 0.803 0.35053 0.41069 0.0
C3108 C 0.86225 0.35907 0.46252 0.0
C3109 C 0.85914 0.36816 0.47699 0.0
C3110 C 0.85285 0.36224 0.44822 0.0
C3111 C 0.84012 0.37459 0.448 0.0
C3112 C 0.83759 0.3843 0.46218 0.0
C3113 C 0.84699 0.38111 0.47656 0.0
C3114 C 0.81053 0.39224 0.41489 0.0
C3115 C 0.80294 0.37753 0.40904 0.0
C3116 C 0.82302 0.39142 0.42732 0.0
C3117 C 0.82827 0.37587 0.43374 0.0
C3118 C 0.8212 0.36122 0.42717 0.0
C3119 C 0.80863 0.36206 0.41506 0.0
H3120 H 0.82416 0.39347 0.7703 0.0
H3121 H 0.86849 0.3674 0.78868 0.0
H3122 H 0.82489 0.41193 0.79431 0.0
H3123 H 0.86934 0.38601 0.81257 0.0
H3124 H 0.8804 0.44196 0.82855 0.0
H3125 H 0.87629 0.41746 0.81112 0.0
H3126 H 0.82434 0.4144 0.82659 0.0
H3127 H 0.82864 0.43892 0.84449 0.0
C3128 C 0.83374 0.39137 0.77972 0.0
C3129 C 0.84634 0.3791 0.77757 0.0
C3130 C 0.83414 0.40192 0.79348 0.0
C3131 C 0.84728 0.40051 0.80521 0.0
C3132 C 0.85915 0.38744 0.80364 0.0
C3133 C 0.85861 0.37674 0.79001 0.0
C3134 C 0.86817 0.43592 0.82841 0.0
C3135 C 0.8548 0.44238 0.83772 0.0
C3136 C 0.86585 0.42182 0.81854 0.0
C3137 C 0.85 0.414 0.81751 0.0
C3138 C 0.83668 0.4202 0.82716 0.0
C3139 C 0.83914 0.43416 0.83738 0.0
H3140 H 0.8274 0.59022 0.0248 0.0
H3141 H 0.87167 0.61197 0.04786 0.0
H3142 H 0.81287 0.59106 0.05118 0.0
H3143 H 0.85696 0.61292 0.07415 0.0
H3144 H 0.80759 0.58808 0.11288 0.0
H3145 H 0.82789 0.58237 0.09095 0.0
H3146 H 0.81704 0.63073 0.06997 0.0
H3147 H 0.79669 0.63649 0.09171 0.0
C3148 C 0.83419 0.59466 0.03559 0.0
C3149 C 0.85055 0.60119 0.03433 0.0
C3150 C 0.8259 0.59513 0.05061 0.0
C3151 C 0.83391 0.60207 0.06448 0.0
C3152 C 0.85068 0.60744 0.06354 0.0
C3153 C 0.85902 0.6069 0.04854 0.0
C3154 C 0.80984 0.59763 0.10379 0.0
C3155 C 0.80053 0.61269 0.10385 0.0
C3156 C 0.82137 0.59433 0.0913 0.0
C3157 C 0.82381 0.60613 0.07893 0.0
C3158 C 0.81527 0.62153 0.07951 0.0
C3159 C 0.80368 0.6248 0.09189 0.0
H3160 H 0.62656 0.62859 0.30819 0.0
H3161 H 0.66917 0.60481 0.28476 0.0
H3162 H 0.63106 0.61094 0.33233 0.0
H3163 H 0.67361 0.58718 0.30873 0.0
H3164 H 0.67628 0.55325 0.35159 0.0
H3165 H 0.6781 0.58117 0.33918 0.0
H3166 H 0.62418 0.58047 0.32946 0.0
H3167 H 0.62253 0.55287 0.34148 0.0
C3168 C 0.63725 0.62003 0.30846 0.0
C3169 C 0.64723 0.61765 0.29451 0.0
C3170 C 0.63984 0.60997 0.32226 0.0
C3171 C 0.65247 0.59749 0.32225 0.0
C3172 C 0.6638 0.5967 0.30912 0.0
C3173 C 0.66115 0.60669 0.29531 0.0
C3174 C 0.66485 0.55934 0.3471 0.0
C3175 C 0.64934 0.55094 0.34714 0.0
C3176 C 0.66586 0.57526 0.34008 0.0
C3177 C 0.65129 0.58299 0.33338 0.0
C3178 C 0.6356 0.57499 0.3347 0.0
C3179 C 0.63468 0.55907 0.34136 0.0
H3180 H 0.63028 0.42577 0.52232 0.0
H3181 H 0.61518 0.37927 0.5442 0.0
H3182 H 0.64769 0.43205 0.54648 0.0
H3183 H 0.6332 0.38497 0.56792 0.0
H3184 H 0.66875 0.39408 0.60791 0.0
H3185 H 0.64333 0.39923 0.59136 0.0
H3186 H 0.67419 0.42021 0.5532 0.0
H3187 H 0.69932 0.41589 0.57014 0.0
C3188 C 0.6304 0.41709 0.53251 0.0
C3189 C 0.62175 0.40189 0.53136 0.0
C3190 C 0.64045 0.42062 0.54629 0.0
C3191 C 0.64228 0.40881 0.55894 0.0
C3192 C 0.63212 0.39441 0.55848 0.0
C3193 C 0.62183 0.39105 0.54482 0.0
C3194 C 0.66997 0.40029 0.59619 0.0
C3195 C 0.68598 0.40439 0.59015 0.0
C3196 C 0.65543 0.40313 0.58667 0.0
C3197 C 0.65668 0.40986 0.57081 0.0
C3198 C 0.67263 0.41516 0.56539 0.0
C3199 C 0.68712 0.41253 0.57502 0.0
H3200 H 0.69675 0.87713 0.62271 0.0
H3201 H 0.72259 0.83296 0.60516 0.0
H3202 H 0.6751 0.87367 0.60155 0.0
H3203 H 0.70053 0.82903 0.58429 0.0
H3204 H 0.68201 0.85096 0.53413 0.0
H3205 H 0.69707 0.84506 0.55974 0.0
H3206 H 0.65282 0.8599 0.5871 0.0
H3207 H 0.63816 0.86665 0.56144 0.0
C3208 C 0.69737 0.86626 0.61476 0.0
C3209 C 0.71147 0.85553 0.61525 0.0
C3210 C 0.68493 0.86422 0.60262 0.0
C3211 C 0.68635 0.85131 0.59093 0.0
C3212 C 0.69937 0.83938 0.59282 0.0
C3213 C 0.7119 0.84153 0.60485 0.0
C3214 C 0.67549 0.85277 0.54562 0.0
C3215 C 0.65904 0.85938 0.54585 0.0
C3216 C 0.684 0.84918 0.56032 0.0
C3217 C 0.67615 0.85203 0.57552 0.0
C3218 C 0.6593 0.85776 0.57563 0.0
C3219 C 0.65088 0.86154 0.56094 0.0
H3220 H 0.20038 0.61859 0.38206 0.0
H3221 H 0.22885 0.65378 0.41146 0.0
H3222 H 0.17701 0.62058 0.40104 0.0
H3223 H 0.20502 0.65675 0.42999 0.0
H3224 H 0.17033 0.64206 0.47105 0.0
H3225 H 0.19268 0.6412 0.45072 0.0
H3226 H 0.1549 0.63579 0.4121 0.0
H3227 H 0.13281 0.63553 0.43259 0.0
C3228 C 0.20138 0.62717 0.39234 0.0
C3229 C 0.21638 0.63594 0.39544 0.0
C3230 C 0.18797 0.62836 0.40324 0.0
C3231 C 0.18919 0.63863 0.41725 0.0
C3232 C 0.20383 0.64831 0.41963 0.0
C3233 C 0.21739 0.64682 0.40892 0.0
C3234 C 0.16693 0.64046 0.45821 0.0
C3235 C 0.14996 0.63877 0.45334 0.0
C3236 C 0.17966 0.64022 0.44652 0.0
C3237 C 0.17562 0.63866 0.42969 0.0
C3238 C 0.15855 0.63679 0.42492 0.0
C3239 C 0.14587 0.63666 0.43665 0.0
H3240 H 0.62731 0.87521 0.68636 0.0
H3241 H 0.59384 0.90807 0.7131 0.0
H3242 H 0.62966 0.89616 0.66476 0.0
H3243 H 0.59608 0.92896 0.69141 0.0
H3244 H 0.59716 0.95988 0.64483 0.0
H3245 H 0.59062 0.93479 0.66062 0.0
H3246 H 0.64409 0.92478 0.66708 0.0
H3247 H 0.6506 0.94989 0.6515 0.0
C3248 C 0.6202 0.88678 0.68745 0.0
C3249 C 0.6106 0.8902 0.70148 0.0
C3250 C 0.62157 0.89874 0.67512 0.0
C3251 C 0.61316 0.91418 0.67652 0.0
C3252 C 0.60262 0.9171 0.69 0.0
C3253 C 0.60141 0.90522 0.70244 0.0
C3254 C 0.60747 0.95213 0.64941 0.0
C3255 C 0.62437 0.95681 0.64712 0.0
C3256 C 0.60373 0.93785 0.65845 0.0
C3257 C 0.61685 0.92791 0.66506 0.0
C3258 C 0.63374 0.93214 0.66198 0.0
C3259 C 0.63747 0.94654 0.65317 0.0
H3260 H 0.28212 0.34661 0.8846 0.0
H3261 H 0.30089 0.39645 0.87711 0.0
H3262 H 0.30539 0.3409 0.90374 0.0
H3263 H 0.32478 0.39052 0.89554 0.0
H3264 H 0.33831 0.38586 0.95047 0.0
H3265 H 0.32411 0.38921 0.9243 0.0
H3266 H 0.33445 0.33739 0.91257 0.0
H3267 H 0.34839 0.33396 0.93956 0.0
C3268 C 0.29159 0.35614 0.88663 0.0
C3269 C 0.28955 0.37209 0.87973 0.0
C3270 C 0.30503 0.35284 0.89752 0.0
C3271 C 0.31679 0.36538 0.90151 0.0
C3272 C 0.31568 0.38073 0.89313 0.0
C3273 C 0.30206 0.38413 0.88251 0.0
C3274 C 0.33773 0.37519 0.94226 0.0
C3275 C 0.34423 0.35959 0.9471 0.0
C3276 C 0.32978 0.37717 0.92707 0.0
C3277 C 0.32807 0.36358 0.91622 0.0
C3278 C 0.33541 0.34809 0.92069 0.0
C3279 C 0.34349 0.34612 0.93605 0.0
H3280 H 0.40347 0.51952 0.64769 0.0
H3281 H 0.36098 0.54736 0.62776 0.0
H3282 H 0.40798 0.54121 0.66839 0.0
H3283 H 0.36492 0.56867 0.64878 0.0
H3284 H 0.37494 0.60673 0.68669 0.0
H3285 H 0.38026 0.59024 0.66209 0.0
H3286 H 0.39241 0.54741 0.69242 0.0
H3287 H 0.38804 0.56425 0.71695 0.0
C3288 C 0.39532 0.53047 0.64756 0.0
C3289 C 0.38174 0.53173 0.63635 0.0
C3290 C 0.3978 0.54281 0.65947 0.0
C3291 C 0.38659 0.5565 0.66049 0.0
C3292 C 0.37388 0.55838 0.64834 0.0
C3293 C 0.37154 0.54613 0.63631 0.0
C3294 C 0.3792 0.59391 0.68807 0.0
C3295 C 0.38104 0.5867 0.70369 0.0
C3296 C 0.38211 0.58442 0.67397 0.0
C3297 C 0.38661 0.56745 0.67523 0.0
C3298 C 0.3892 0.5605 0.69094 0.0
C3299 C 0.38651 0.57007 0.70503 0.0
H3300 H 0.86771 0.12404 0.0554 0.0
H3301 H 0.83377 0.11863 0.01385 0.0
H3302 H 0.84332 0.12677 0.07368 0.0
H3303 H 0.80958 0.12195 0.03174 0.0
H3304 H 0.77366 0.10012 0.06773 0.0
H3305 H 0.7987 0.10233 0.05117 0.0
H3306 H 0.817 0.14248 0.08212 0.0
H3307 H 0.79165 0.13992 0.09922 0.0
C3308 C 0.85505 0.12401 0.05017 0.0
C3309 C 0.85251 0.12105 0.03332 0.0
C3310 C 0.84111 0.12554 0.06058 0.0
C3311 C 0.82452 0.12423 0.05419 0.0
C3312 C 0.82218 0.12255 0.03712 0.0
C3313 C 0.83601 0.12075 0.02685 0.0
C3314 C 0.78298 0.10946 0.07106 0.0
C3315 C 0.78065 0.11996 0.08467 0.0
C3316 C 0.79731 0.11081 0.06147 0.0
C3317 C 0.80969 0.12283 0.0651 0.0
C3318 C 0.80763 0.13314 0.07899 0.0
C3319 C 0.79316 0.13172 0.08872 0.0
H3320 H 0.61373 0.11463 0.82236 0.0
H3321 H 0.59855 0.07501 0.78933 0.0
H3322 H 0.60846 0.09664 0.84585 0.0
H3323 H 0.59383 0.05682 0.81266 0.0
H3324 H 0.58524 0.02502 0.85356 0.0
H3325 H 0.57886 0.0498 0.83722 0.0
H3326 H 0.62457 0.07295 0.85581 0.0
H3327 H 0.63053 0.04843 0.87254 0.0
C3328 C 0.60895 0.10216 0.82016 0.0
C3329 C 0.60672 0.09606 0.80409 0.0
C3330 C 0.606 0.09186 0.83359 0.0
C3331 C 0.60085 0.07527 0.83115 0.0
C3332 C 0.59756 0.0696 0.81503 0.0
C3333 C 0.60045 0.07993 0.80162 0.0
C3334 C 0.59354 0.0357 0.8546 0.0
C3335 C 0.60857 0.03476 0.86393 0.0
C3336 C 0.58995 0.04983 0.84518 0.0
C3337 C 0.60147 0.0631 0.84482 0.0
C3338 C 0.61542 0.06294 0.85577 0.0
C3339 C 0.6189 0.04886 0.86534 0.0
H3340 H 0.84266 0.89052 0.28474 0.0
H3341 H 0.89647 0.88076 0.28553 0.0
H3342 H 0.84574 0.90893 0.3084 0.0
H3343 H 0.89965 0.89952 0.3094 0.0
H3344 H 0.89413 0.95587 0.33026 0.0
H3345 H 0.8953 0.93144 0.31218 0.0
H3346 H 0.85401 0.90934 0.33843 0.0
H3347 H 0.85284 0.93376 0.35651 0.0
C3348 C 0.85515 0.89221 0.29013 0.0
C3349 C 0.86935 0.88435 0.28329 0.0
C3350 C 0.8569 0.90263 0.30378 0.0
C3351 C 0.87293 0.90564 0.31078 0.0
C3352 C 0.88715 0.89742 0.30422 0.0
C3353 C 0.88534 0.88668 0.29064 0.0
C3354 C 0.88559 0.9456 0.33241 0.0
C3355 C 0.87325 0.94677 0.34463 0.0
C3356 C 0.88633 0.93158 0.32212 0.0
C3357 C 0.87464 0.91856 0.32381 0.0
C3358 C 0.86306 0.91927 0.33676 0.0
C3359 C 0.86242 0.93322 0.34712 0.0
H3360 H 0.45247 0.36693 0.13021 0.0
H3361 H 0.48599 0.32497 0.12281 0.0
H3362 H 0.42952 0.34796 0.13717 0.0
H3363 H 0.46309 0.30588 0.1293 0.0
H3364 H 0.42374 0.27493 0.15144 0.0
H3365 H 0.44461 0.29721 0.15245 0.0
H3366 H 0.41289 0.32715 0.12027 0.0
H3367 H 0.39187 0.30485 0.11941 0.0
C3368 C 0.45504 0.35369 0.13067 0.0
C3369 C 0.47102 0.34737 0.12652 0.0
C3370 C 0.44188 0.34283 0.13435 0.0
C3371 C 0.4446 0.32548 0.13397 0.0
C3372 C 0.46073 0.31922 0.13004 0.0
C3373 C 0.47379 0.33008 0.12621 0.0
C3374 C 0.42104 0.28644 0.14492 0.0
C3375 C 0.40638 0.28814 0.13514 0.0
C3376 C 0.433 0.29914 0.14545 0.0
C3377 C 0.43047 0.31374 0.13621 0.0
C3378 C 0.41512 0.31602 0.12754 0.0
C3379 C 0.40313 0.30327 0.127 0.0
H3380 H 0.43193 0.61234 0.89137 0.0
H3381 H 0.46397 0.65344 0.90582 0.0
H3382 H 0.40685 0.62946 0.8969 0.0
H3383 H 0.43938 0.6707 0.91054 0.0
H3384 H 0.37641 0.67457 0.87403 0.0
H3385 H 0.39465 0.65111 0.88149 0.0
H3386 H 0.4147 0.6796 0.92256 0.0
H3387 H 0.39735 0.70346 0.9141 0.0
C3388 C 0.43357 0.62491 0.89608 0.0
C3389 C 0.44979 0.63177 0.89782 0.0
C3390 C 0.41925 0.63475 0.89915 0.0
C3391 C 0.421 0.65162 0.90381 0.0
C3392 C 0.43735 0.65779 0.90709 0.0
C3393 C 0.45157 0.64793 0.90421 0.0
C3394 C 0.38453 0.67561 0.88481 0.0
C3395 C 0.38605 0.69084 0.89318 0.0
C3396 C 0.39487 0.66211 0.88926 0.0
C3397 C 0.40658 0.66359 0.90238 0.0
C3398 C 0.40634 0.67823 0.912 0.0
C3399 C 0.3964 0.69188 0.90722 0.0
H3400 H 0.02541 0.66445 0.65892 0.0
H3401 H 0.05231 0.6344 0.62353 0.0
H3402 H 0.04459 0.68746 0.65432 0.0
H3403 H 0.07139 0.65781 0.61845 0.0
H3404 H 0.11245 0.69844 0.62712 0.0
H3405 H 0.09401 0.67431 0.63122 0.0
H3406 H 0.05072 0.70753 0.63391 0.0
H3407 H 0.06909 0.73139 0.63038 0.0
C3408 C 0.03536 0.66283 0.65001 0.0
C3409 C 0.03736 0.64765 0.64157 0.0
C3410 C 0.04633 0.67607 0.64731 0.0
C3411 C 0.0595 0.67456 0.63594 0.0
C3412 C 0.06149 0.65934 0.62742 0.0
C3413 C 0.0505 0.646 0.63021 0.0
C3414 C 0.09899 0.70049 0.62868 0.0
C3415 C 0.0922 0.71676 0.6286 0.0
C3416 C 0.08841 0.6867 0.63089 0.0
C3417 C 0.07088 0.68897 0.633 0.0
C3418 C 0.06418 0.7053 0.63267 0.0
C3419 C 0.07472 0.719 0.63057 0.0
H3420 H 0.08868 0.29399 0.3959 0.0
H3421 H 0.0896 0.29226 0.34294 0.0
H3422 H 0.06903 0.31795 0.3945 0.0
H3423 H 0.07007 0.31567 0.34146 0.0
H3424 H 0.03897 0.36194 0.34167 0.0
H3425 H 0.0642 0.34478 0.34641 0.0
H3426 H 0.03912 0.31954 0.38599 0.0
H3427 H 0.01412 0.33689 0.38154 0.0
C3428 C 0.08497 0.29898 0.38403 0.0
C3429 C 0.09035 0.29122 0.36953 0.0
C3430 C 0.07368 0.31256 0.38319 0.0
C3431 C 0.06785 0.31859 0.36786 0.0
C3432 C 0.07436 0.31149 0.35346 0.0
C3433 C 0.08545 0.29795 0.35431 0.0
C3434 C 0.03886 0.35275 0.3514 0.0
C3435 C 0.02444 0.35058 0.36104 0.0
C3436 C 0.05334 0.34298 0.35417 0.0
C3437 C 0.05366 0.33078 0.36658 0.0
C3438 C 0.03941 0.329 0.37653 0.0
C3439 C 0.02498 0.33881 0.37381 0.0
H3440 H 0.46881 0.66294 0.40204 0.0
H3441 H 0.45983 0.65283 0.35054 0.0
H3442 H 0.44786 0.68518 0.40126 0.0
H3443 H 0.43835 0.67528 0.34977 0.0
H3444 H 0.4197 0.73154 0.35392 0.0
H3445 H 0.43762 0.70656 0.35235 0.0
H3446 H 0.41754 0.6894 0.39834 0.0
H3447 H 0.39998 0.71438 0.40011 0.0
C3448 C 0.46222 0.66542 0.39054 0.0
C3449 C 0.46599 0.65625 0.37632 0.0
C3450 C 0.45009 0.67809 0.39013 0.0
C3451 C 0.44138 0.68195 0.37548 0.0
C3452 C 0.44495 0.67263 0.36122 0.0
C3453 C 0.45714 0.65977 0.36166 0.0
C3454 C 0.41906 0.72239 0.36364 0.0
C3455 C 0.40866 0.7251 0.37729 0.0
C3456 C 0.42922 0.70801 0.36266 0.0
C3457 C 0.42911 0.69609 0.37529 0.0
C3458 C 0.41815 0.69851 0.38856 0.0
C3459 C 0.40809 0.71285 0.38958 0.0
H3460 H 0.01016 0.6412 0.10881 0.0
H3461 H 0.02905 0.64045 0.15885 0.0
H3462 H 0.03333 0.65923 0.10106 0.0
H3463 H 0.05239 0.65866 0.15097 0.0
H3464 H 0.08681 0.6759 0.08909 0.0
H3465 H 0.06467 0.65713 0.09834 0.0
H3466 H 0.05681 0.6884 0.14091 0.0
H3467 H 0.07887 0.70733 0.1315 0.0
C3468 C 0.01923 0.64489 0.1182 0.0
C3469 C 0.01767 0.63937 0.13449 0.0
C3470 C 0.03261 0.65516 0.1137 0.0
C3471 C 0.04476 0.66033 0.12537 0.0
C3472 C 0.04317 0.65496 0.14172 0.0
C3473 C 0.02984 0.64448 0.14621 0.0
C3474 C 0.08038 0.67875 0.10044 0.0
C3475 C 0.08457 0.69309 0.10956 0.0
C3476 C 0.06768 0.66802 0.10572 0.0
C3477 C 0.05893 0.6713 0.12034 0.0
C3478 C 0.06341 0.68545 0.12968 0.0
C3479 C 0.07603 0.69629 0.12429 0.0
H3480 H 0.1268 0.30062 0.86123 0.0
H3481 H 0.08412 0.26778 0.85419 0.0
H3482 H 0.10892 0.3246 0.85342 0.0
H3483 H 0.06631 0.2917 0.8467 0.0
H3484 H 0.03839 0.34059 0.86187 0.0
H3485 H 0.05819 0.31749 0.86673 0.0
H3486 H 0.08917 0.33457 0.82697 0.0
H3487 H 0.06914 0.35765 0.82186 0.0
C3488 C 0.11369 0.29854 0.85778 0.0
C3489 C 0.10673 0.28247 0.8584 0.0
C3490 C 0.10354 0.31218 0.85331 0.0
C3491 C 0.0863 0.30987 0.84969 0.0
C3492 C 0.07956 0.29371 0.84962 0.0
C3493 C 0.08974 0.28008 0.85383 0.0
C3494 C 0.04947 0.33946 0.85423 0.0
C3495 C 0.05225 0.35072 0.84142 0.0
C3496 C 0.0607 0.32625 0.85695 0.0
C3497 C 0.075 0.32429 0.84708 0.0
C3498 C 0.07816 0.3359 0.83466 0.0
C3499 C 0.06673 0.34899 0.83174 0.0
H3500 H 0.39432 0.29466 0.62009 0.0
H3501 H 0.38151 0.29276 0.56844 0.0
H3502 H 0.40775 0.32156 0.61635 0.0
H3503 H 0.39527 0.31993 0.56454 0.0
H3504 H 0.45206 0.34319 0.57032 0.0
H3505 H 0.42719 0.32558 0.56761 0.0
H3506 H 0.40386 0.35199 0.60784 0.0
H3507 H 0.42884 0.36969 0.61054 0.0
C3508 C 0.39425 0.30015 0.60795 0.0
C3509 C 0.38719 0.29164 0.59449 0.0
C3510 C 0.40167 0.31568 0.60584 0.0
C3511 C 0.40243 0.32288 0.59016 0.0
C3512 C 0.39475 0.31465 0.57675 0.0
C3513 C 0.38701 0.29916 0.57895 0.0
C3514 C 0.44132 0.3457 0.57812 0.0
C3515 C 0.44247 0.35743 0.59092 0.0
C3516 C 0.42702 0.33568 0.57649 0.0
C3517 C 0.4138 0.33722 0.58776 0.0
C3518 C 0.41403 0.35046 0.59915 0.0
C3519 C 0.42829 0.36058 0.60068 0.0
H3520 H 0.13972 0.4223 0.26512 0.0
H3521 H 0.16076 0.38027 0.29176 0.0
H3522 H 0.14741 0.44082 0.28763 0.0
H3523 H 0.16882 0.39898 0.3144 0.0
H3524 H 0.15003 0.43384 0.3572 0.0
H3525 H 0.15195 0.41426 0.33454 0.0
H3526 H 0.1705 0.45355 0.30341 0.0
H3527 H 0.16838 0.47336 0.32629 0.0
C3528 C 0.14619 0.41707 0.27576 0.0
C3529 C 0.14948 0.39987 0.27687 0.0
C3530 C 0.1508 0.42772 0.28856 0.0
C3531 C 0.1588 0.42137 0.30274 0.0
C3532 C 0.16259 0.40419 0.30363 0.0
C3533 C 0.15797 0.3935 0.29074 0.0
C3534 C 0.15498 0.43822 0.34567 0.0
C3535 C 0.15889 0.45514 0.3434 0.0
C3536 C 0.15615 0.42696 0.33268 0.0
C3537 C 0.16122 0.43241 0.31716 0.0
C3538 C 0.16632 0.44909 0.31522 0.0
C3539 C 0.16515 0.46039 0.32827 0.0
H3540 H 0.35946 0.36554 0.05044 0.0
H3541 H 0.3402 0.40648 0.02113 0.0
H3542 H 0.34358 0.37597 0.07395 0.0
H3543 H 0.32478 0.41725 0.04466 0.0
H3544 H 0.27949 0.41149 0.0804 0.0
H3545 H 0.29993 0.40841 0.05848 0.0
H3546 H 0.33926 0.3974 0.09434 0.0
H3547 H 0.31862 0.39999 0.11621 0.0
C3548 C 0.35213 0.37697 0.04916 0.0
C3549 C 0.35085 0.38509 0.03398 0.0
C3550 C 0.3431 0.38304 0.06263 0.0
C3551 C 0.33276 0.3974 0.06115 0.0
C3552 C 0.33234 0.406 0.04615 0.0
C3553 C 0.34124 0.39987 0.03269 0.0
C3554 C 0.29259 0.40888 0.08362 0.0
C3555 C 0.29742 0.40576 0.09996 0.0
C3556 C 0.30436 0.40713 0.07106 0.0
C3557 C 0.32121 0.40234 0.07463 0.0
C3558 C 0.32631 0.4007 0.09114 0.0
C3559 C 0.31453 0.40238 0.10368 0.0
H3560 H 0.32337 0.54142 0.85493 0.0
H3561 H 0.37677 0.5494 0.84789 0.0
H3562 H 0.31677 0.56412 0.83557 0.0
H3563 H 0.37021 0.57238 0.82914 0.0
H3564 H 0.35451 0.61724 0.80137 0.0
H3565 H 0.35264 0.6023 0.82743 0.0
H3566 H 0.32659 0.56195 0.80283 0.0
H3567 H 0.32888 0.57661 0.77667 0.0
C3568 C 0.33364 0.54838 0.84962 0.0
C3569 C 0.35056 0.54367 0.85262 0.0
C3570 C 0.32987 0.56131 0.83864 0.0
C3571 C 0.343 0.56995 0.83104 0.0
C3572 C 0.35989 0.566 0.83505 0.0
C3573 C 0.36365 0.55282 0.84562 0.0
C3574 C 0.34786 0.60545 0.80164 0.0
C3575 C 0.34209 0.59786 0.78706 0.0
C3576 C 0.34678 0.59697 0.81653 0.0
C3577 C 0.33955 0.58103 0.817 0.0
C3578 C 0.3321 0.57431 0.80272 0.0
C3579 C 0.33349 0.58263 0.78778 0.0
H3580 H 0.17612 0.61315 0.6015 0.0
H3581 H 0.21172 0.59837 0.56444 0.0
H3582 H 0.15354 0.61462 0.58056 0.0
H3583 H 0.18938 0.59989 0.54351 0.0
H3584 H 0.14393 0.596 0.50986 0.0
H3585 H 0.16212 0.58844 0.53317 0.0
H3586 H 0.14881 0.63467 0.5574 0.0
H3587 H 0.13055 0.64224 0.53417 0.0
C3588 C 0.17892 0.60953 0.589 0.0
C3589 C 0.1955 0.60524 0.58459 0.0
C3590 C 0.1661 0.61064 0.57697 0.0
C3591 C 0.16967 0.60741 0.56035 0.0
C3592 C 0.18612 0.60224 0.55619 0.0
C3593 C 0.19892 0.60134 0.56816 0.0
C3594 C 0.1447 0.60449 0.52023 0.0
C3595 C 0.13587 0.61982 0.52005 0.0
C3596 C 0.15517 0.60015 0.53358 0.0
C3597 C 0.15694 0.61095 0.54713 0.0
C3598 C 0.14758 0.62597 0.54724 0.0
C3599 C 0.13722 0.63038 0.53384 0.0
H3600 H 0.16026 0.55222 0.15434 0.0
H3601 H 0.11349 0.53347 0.17377 0.0
H3602 H 0.16185 0.57258 0.17717 0.0
H3603 H 0.11513 0.55342 0.19618 0.0
H3604 H 0.13485 0.57173 0.24456 0.0
H3605 H 0.13713 0.55437 0.22012 0.0
H3606 H 0.14305 0.59838 0.19032 0.0
H3607 H 0.14079 0.61601 0.21509 0.0
C3608 C 0.15032 0.55254 0.16337 0.0
C3609 C 0.13693 0.54108 0.1625 0.0
C3610 C 0.1512 0.56416 0.17634 0.0
C3611 C 0.13876 0.56431 0.18855 0.0
C3612 C 0.12506 0.55334 0.18713 0.0
C3613 C 0.12414 0.54191 0.17428 0.0
C3614 C 0.13685 0.57775 0.23285 0.0
C3615 C 0.13744 0.59521 0.23167 0.0
C3616 C 0.13814 0.5678 0.21886 0.0
C3617 C 0.14007 0.57507 0.20334 0.0
C3618 C 0.14161 0.59251 0.20218 0.0
C3619 C 0.14025 0.60255 0.21629 0.0
H3620 H 0.19689 0.42269 0.88561 0.0
H3621 H 0.2007 0.37047 0.89823 0.0
H3622 H 0.17273 0.42585 0.90427 0.0
H3623 H 0.17649 0.37342 0.91624 0.0
H3624 H 0.12908 0.37951 0.94259 0.0
H3625 H 0.14407 0.38189 0.91662 0.0
H3626 H 0.17445 0.42159 0.93716 0.0
H3627 H 0.15969 0.41904 0.96321 0.0
C3628 C 0.19227 0.41187 0.89207 0.0
C3629 C 0.20067 0.39641 0.89078 0.0
C3630 C 0.17851 0.41365 0.90265 0.0
C3631 C 0.17275 0.39985 0.91158 0.0
C3632 C 0.18054 0.3842 0.90935 0.0
C3633 C 0.19448 0.38254 0.89919 0.0
C3634 C 0.13857 0.38911 0.94137 0.0
C3635 C 0.14349 0.39889 0.95494 0.0
C3636 C 0.1471 0.39048 0.92653 0.0
C3637 C 0.16047 0.40183 0.92499 0.0
C3638 C 0.16411 0.41283 0.93801 0.0
C3639 C 0.15575 0.4113 0.95293 0.0
H3640 H 0.32611 0.44405 0.63193 0.0
H3641 H 0.37983 0.44043 0.64182 0.0
H3642 H 0.32172 0.41835 0.64777 0.0
H3643 H 0.37558 0.41491 0.65724 0.0
H3644 H 0.36722 0.36821 0.68219 0.0
H3645 H 0.36539 0.38497 0.65715 0.0
H3646 H 0.32618 0.41536 0.67891 0.0
H3647 H 0.32804 0.39869 0.70386 0.0
C3648 C 0.33697 0.43752 0.63715 0.0
C3649 C 0.35325 0.44425 0.636 0.0
C3650 C 0.33447 0.42287 0.64614 0.0
C3651 C 0.34831 0.41466 0.65371 0.0
C3652 C 0.3647 0.42082 0.6514 0.0
C3653 C 0.36712 0.43554 0.64275 0.0
C3654 C 0.35784 0.37813 0.68138 0.0
C3655 C 0.34802 0.38245 0.69501 0.0
C3656 C 0.35679 0.38769 0.66708 0.0
C3657 C 0.3458 0.40157 0.6662 0.0
C3658 C 0.3347 0.40469 0.6792 0.0
C3659 C 0.33586 0.39523 0.69354 0.0
H3660 H 0.36753 0.62902 0.44667 0.0
H3661 H 0.34872 0.58722 0.47412 0.0
H3662 H 0.35006 0.62087 0.42318 0.0
H3663 H 0.33196 0.57835 0.45036 0.0
H3664 H 0.28362 0.59006 0.41952 0.0
H3665 H 0.30673 0.58905 0.43934 0.0
H3666 H 0.34182 0.60301 0.40149 0.0
H3667 H 0.31833 0.60489 0.38183 0.0
C3668 C 0.36001 0.61779 0.44745 0.0
C3669 C 0.35909 0.60894 0.46221 0.0
C3670 C 0.3501 0.61299 0.43395 0.0
C3671 C 0.33935 0.59906 0.43494 0.0
C3672 C 0.33971 0.58939 0.44932 0.0
C3673 C 0.34934 0.59441 0.4629 0.0
C3674 C 0.29633 0.59257 0.41537 0.0
C3675 C 0.29917 0.59788 0.39928 0.0
C3676 C 0.30966 0.59185 0.4267 0.0
C3677 C 0.32617 0.59621 0.42209 0.0
C3678 C 0.32921 0.59998 0.40554 0.0
C3679 C 0.3158 0.60091 0.39425 0.0
H3680 H 0.29286 0.10555 0.37297 0.0
H3681 H 0.269 0.14549 0.40017 0.0
H3682 H 0.31755 0.10696 0.39137 0.0
H3683 H 0.29358 0.14695 0.41846 0.0
H3684 H 0.3408 0.14717 0.44908 0.0
H3685 H 0.32501 0.15087 0.42323 0.0
H3686 H 0.31609 0.09768 0.42113 0.0
H3687 H 0.33194 0.09404 0.44681 0.0
C3688 C 0.29318 0.11502 0.3825 0.0
C3689 C 0.27899 0.12519 0.38545 0.0
C3690 C 0.30724 0.11578 0.39303 0.0
C3691 C 0.3073 0.12687 0.40645 0.0
C3692 C 0.29388 0.13832 0.40819 0.0
C3693 C 0.27978 0.13743 0.39779 0.0
C3694 C 0.33565 0.13629 0.44289 0.0
C3695 C 0.33734 0.12035 0.44988 0.0
C3696 C 0.3267 0.1384 0.42815 0.0
C3697 C 0.31944 0.12456 0.42018 0.0
C3698 C 0.32181 0.10853 0.42688 0.0
C3699 C 0.33062 0.10646 0.44167 0.0
H3700 H 0.82555 0.33146 0.52046 0.0
H3701 H 0.8528 0.36395 0.55383 0.0
H3702 H 0.79982 0.33559 0.53653 0.0
H3703 H 0.82723 0.36854 0.56943 0.0
H3704 H 0.78528 0.36017 0.60432 0.0
H3705 H 0.80973 0.35286 0.58776 0.0
H3706 H 0.77894 0.35712 0.54366 0.0
H3707 H 0.75433 0.36392 0.56036 0.0
C3708 C 0.82596 0.3396 0.53111 0.0
C3709 C 0.84108 0.34737 0.53597 0.0
C3710 C 0.81128 0.342 0.54027 0.0
C3711 C 0.81158 0.35222 0.55436 0.0
C3712 C 0.82668 0.36027 0.55888 0.0
C3713 C 0.84128 0.35781 0.54983 0.0
C3714 C 0.78373 0.35934 0.5911 0.0
C3715 C 0.76805 0.36273 0.58355 0.0
C3716 C 0.79772 0.35527 0.58162 0.0
C3717 C 0.7963 0.35469 0.56439 0.0
C3718 C 0.78039 0.3574 0.5569 0.0
C3719 C 0.76635 0.36135 0.56643 0.0
H3720 H 0.39088 0.10858 0.3009 0.0
H3721 H 0.33756 0.09715 0.29888 0.0
H3722 H 0.39466 0.08914 0.32391 0.0
H3723 H 0.34126 0.07796 0.32184 0.0
H3724 H 0.35013 0.04782 0.36643 0.0
H3725 H 0.35016 0.07462 0.352 0.0
H3726 H 0.39163 0.05723 0.32226 0.0
H3727 H 0.39149 0.0305 0.33653 0.0
C3728 C 0.37995 0.10218 0.30563 0.0
C3729 C 0.364 0.10403 0.29803 0.0
C3730 C 0.3821 0.09111 0.31875 0.0
C3731 C 0.36826 0.08206 0.3246 0.0
C3732 C 0.35211 0.0849 0.3177 0.0
C3733 C 0.35002 0.09572 0.30445 0.0
C3734 C 0.35953 0.04994 0.35711 0.0
C3735 C 0.37063 0.03709 0.35235 0.0
C3736 C 0.35953 0.06522 0.34888 0.0
C3737 C 0.37081 0.0679 0.33597 0.0
C3738 C 0.38289 0.05555 0.33225 0.0
C3739 C 0.38273 0.04021 0.34032 0.0
H3740 H 0.64549 0.60307 0.04319 0.0
H3741 H 0.65015 0.65668 0.04569 0.0
H3742 H 0.66346 0.60014 0.06741 0.0
H3743 H 0.66909 0.65374 0.06985 0.0
H3744 H 0.6996 0.63873 0.11803 0.0
H3745 H 0.67493 0.64314 0.09959 0.0
H3746 H 0.6941 0.60478 0.06718 0.0
H3747 H 0.71824 0.60043 0.08533 0.0
C3748 C 0.65013 0.61428 0.04917 0.0
C3749 C 0.64664 0.63009 0.0425 0.0
C3750 C 0.66051 0.6126 0.063 0.0
C3751 C 0.66809 0.62666 0.07027 0.0
C3752 C 0.66346 0.64266 0.06447 0.0
C3753 C 0.65268 0.64437 0.05067 0.0
C3754 C 0.69833 0.63118 0.10703 0.0
C3755 C 0.71077 0.61919 0.10312 0.0
C3756 C 0.68431 0.63376 0.09647 0.0
C3757 C 0.68247 0.62419 0.08202 0.0
C3758 C 0.69491 0.61215 0.07835 0.0
C3759 C 0.70884 0.6097 0.08873 0.0
H3760 H 0.64269 0.44682 0.3574 0.0
H3761 H 0.60316 0.47306 0.33068 0.0
H3762 H 0.64132 0.42398 0.33736 0.0
H3763 H 0.60167 0.45019 0.3108 0.0
H3764 H 0.60069 0.40177 0.28028 0.0
H3765 H 0.597 0.41816 0.30559 0.0
H3766 H 0.65071 0.42789 0.30716 0.0
H3767 H 0.65431 0.41184 0.28197 0.0
C3768 C 0.63333 0.44743 0.34757 0.0
C3769 C 0.6232 0.46174 0.34538 0.0
C3770 C 0.63259 0.43442 0.33611 0.0
C3771 C 0.62152 0.43548 0.32249 0.0
C3772 C 0.61025 0.44906 0.32124 0.0
C3773 C 0.61117 0.46216 0.33255 0.0
C3774 C 0.61165 0.40738 0.28616 0.0
C3775 C 0.62774 0.40574 0.2792 0.0
C3776 C 0.60956 0.41666 0.30059 0.0
C3777 C 0.62361 0.42409 0.30836 0.0
C3778 C 0.63973 0.42205 0.30156 0.0
C3779 C 0.64175 0.41308 0.28703 0.0
H3780 H 0.21366 0.84394 0.91242 0.0
H3781 H 0.19589 0.88568 0.88331 0.0
H3782 H 0.18727 0.84445 0.92774 0.0
H3783 H 0.1695 0.88623 0.89868 0.0
H3784 H 0.14655 0.89881 0.95054 0.0
H3785 H 0.16684 0.89466 0.92862 0.0
H3786 H 0.15473 0.84213 0.92689 0.0
H3787 H 0.13412 0.84639 0.9489 0.0
C3788 C 0.20392 0.85295 0.90904 0.0
C3789 C 0.20685 0.86491 0.89686 0.0
C3790 C 0.18879 0.85318 0.91774 0.0
C3791 C 0.17643 0.86548 0.91448 0.0
C3792 C 0.1789 0.87671 0.90152 0.0
C3793 C 0.19396 0.87637 0.89272 0.0
C3794 C 0.14806 0.88642 0.94532 0.0
C3795 C 0.13897 0.87288 0.95147 0.0
C3796 C 0.15954 0.88407 0.93267 0.0
C3797 C 0.16234 0.86808 0.92605 0.0
C3798 C 0.15281 0.85458 0.93182 0.0
C3799 C 0.14105 0.85701 0.94435 0.0
H3800 H 0.36565 0.94849 0.12781 0.0
H3801 H 0.40356 0.97691 0.15414 0.0
H3802 H 0.37239 0.92426 0.14415 0.0
H3803 H 0.41134 0.95212 0.17002 0.0
H3804 H 0.39268 0.91931 0.21299 0.0
H3805 H 0.39791 0.93981 0.19187 0.0
H3806 H 0.38768 0.90246 0.15449 0.0
H3807 H 0.38043 0.88282 0.1758 0.0
C3808 C 0.37589 0.94933 0.13676 0.0
C3809 C 0.38376 0.96459 0.14012 0.0
C3810 C 0.37995 0.93533 0.14607 0.0
C3811 C 0.3922 0.93625 0.15875 0.0
C3812 C 0.40146 0.95111 0.16073 0.0
C3813 C 0.39712 0.96527 0.15159 0.0
C3814 C 0.39166 0.91551 0.20023 0.0
C3815 C 0.38595 0.89952 0.19595 0.0
C3816 C 0.39496 0.92718 0.18806 0.0
C3817 C 0.393 0.92292 0.17136 0.0
C3818 C 0.38886 0.90637 0.16719 0.0
C3819 C 0.38494 0.89495 0.17938 0.0
H3820 H 0.11173 0.11983 0.69328 0.0
H3821 H 0.10483 0.07879 0.72656 0.0
H3822 H 0.10787 0.10092 0.66986 0.0
H3823 H 0.10159 0.05975 0.70343 0.0
H3824 H 0.09173 0.02758 0.66119 0.0
H3825 H 0.08535 0.05077 0.67969 0.0
H3826 H 0.12634 0.07897 0.65906 0.0
H3827 H 0.13235 0.05594 0.64026 0.0
C3828 C 0.10863 0.10693 0.69555 0.0
C3829 C 0.10811 0.10079 0.71163 0.0
C3830 C 0.10675 0.09602 0.68218 0.0
C3831 C 0.10439 0.07882 0.68476 0.0
C3832 C 0.10306 0.07295 0.70094 0.0
C3833 C 0.10502 0.08381 0.71422 0.0
C3834 C 0.09909 0.03891 0.66037 0.0
C3835 C 0.1127 0.03992 0.64953 0.0
C3836 C 0.09548 0.05216 0.67098 0.0
C3837 C 0.10551 0.0666 0.67104 0.0
C3838 C 0.11829 0.06808 0.65927 0.0
C3839 C 0.12182 0.05485 0.64857 0.0
H3840 H 0.9695 0.13338 0.33281 0.0
H3841 H 0.98964 0.08938 0.30907 0.0
H3842 H 0.9504 0.1381 0.3097 0.0
H3843 H 0.96998 0.09399 0.28569 0.0
H3844 H 0.93581 0.11651 0.24221 0.0
H3845 H 0.95958 0.11352 0.26197 0.0
H3846 H 0.92517 0.12229 0.30187 0.0
H3847 H 0.9019 0.1254 0.28256 0.0
C3848 C 0.96995 0.12476 0.32254 0.0
C3849 C 0.98091 0.11084 0.32292 0.0
C3850 C 0.95894 0.12746 0.30927 0.0
C3851 C 0.95835 0.11623 0.29598 0.0
C3852 C 0.9701 0.10287 0.29575 0.0
C3853 C 0.98135 0.10022 0.30912 0.0
C3854 C 0.93343 0.11793 0.2552 0.0
C3855 C 0.9169 0.12124 0.26073 0.0
C3856 C 0.947 0.11609 0.26651 0.0
C3857 C 0.94433 0.11779 0.28352 0.0
C3858 C 0.92781 0.12116 0.28889 0.0
C3859 C 0.91438 0.12285 0.27773 0.0
H3860 H 0.08479 0.69489 0.516 0.0
H3861 H 0.12618 0.71116 0.48604 0.0
H3862 H 0.08925 0.71839 0.53431 0.0
H3863 H 0.13029 0.73532 0.50403 0.0
H3864 H 0.15064 0.75143 0.55611 0.0
H3865 H 0.1425 0.73711 0.53071 0.0
H3866 H 0.08971 0.74677 0.54112 0.0
H3867 H 0.09804 0.76007 0.56696 0.0
C3868 C 0.09445 0.70388 0.51302 0.0
C3869 C 0.10534 0.70111 0.49985 0.0
C3870 C 0.09698 0.71747 0.52346 0.0
C3871 C 0.11035 0.72866 0.5208 0.0
C3872 C 0.12016 0.72672 0.50664 0.0
C3873 C 0.11773 0.71299 0.49628 0.0
C3874 C 0.13736 0.75073 0.55268 0.0
C3875 C 0.1249 0.75649 0.56338 0.0
C3876 C 0.13264 0.74267 0.5381 0.0
C3877 C 0.11539 0.74054 0.53398 0.0
C3878 C 0.10307 0.74779 0.54412 0.0
C3879 C 0.10779 0.75546 0.55883 0.0
H3880 H 0.51484 0.89983 0.79078 0.0
H3881 H 0.48728 0.85389 0.78387 0.0
H3882 H 0.5333 0.89209 0.76792 0.0
H3883 H 0.50568 0.84618 0.76126 0.0
H3884 H 0.56383 0.83027 0.75382 0.0
H3885 H 0.53753 0.83902 0.76682 0.0
H3886 H 0.53566 0.88304 0.73632 0.0
H3887 H 0.56185 0.87387 0.7229 0.0
C3888 C 0.51238 0.8884 0.78402 0.0
C3889 C 0.49986 0.87733 0.78921 0.0
C3890 C 0.52288 0.88398 0.77094 0.0
C3891 C 0.52097 0.86845 0.76299 0.0
C3892 C 0.50747 0.85815 0.76728 0.0
C3893 C 0.49698 0.86258 0.78022 0.0
C3894 C 0.55734 0.84138 0.74939 0.0
C3895 C 0.56455 0.85126 0.73722 0.0
C3896 C 0.54236 0.84645 0.75684 0.0
C3897 C 0.53462 0.86173 0.75256 0.0
C3898 C 0.54138 0.8712 0.73976 0.0
C3899 C 0.55619 0.86588 0.732 0.0
H3900 H 0.35589 0.23919 0.05367 0.0
H3901 H 0.39979 0.26546 0.07215 0.0
H3902 H 0.35706 0.25518 0.02814 0.0
H3903 H 0.40109 0.28117 0.04654 0.0
H3904 H 0.40373 0.30126 0.99441 0.0
H3905 H 0.40447 0.27823 0.01435 0.0
H3906 H 0.35188 0.28746 0.02519 0.0
H3907 H 0.35132 0.31061 0.00573 0.0
C3908 C 0.36603 0.24805 0.05213 0.0
C3909 C 0.37767 0.25116 0.06497 0.0
C3910 C 0.36666 0.25721 0.03754 0.0
C3911 C 0.37917 0.26938 0.03537 0.0
C3912 C 0.39142 0.27174 0.04781 0.0
C3913 C 0.39059 0.26284 0.06251 0.0
C3914 C 0.39223 0.29796 0.0007 0.0
C3915 C 0.37744 0.30757 -0.00147 0.0
C3916 C 0.39268 0.28491 0.01216 0.0
C3917 C 0.37822 0.28108 0.02129 0.0
C3918 C 0.36314 0.29 0.01821 0.0
C3919 C 0.36282 0.30324 0.0071 0.0
H3920 H 0.9725 0.83414 0.16431 0.0
H3921 H 0.9868 0.88106 0.18655 0.0
H3922 H 0.95413 0.82836 0.18731 0.0
H3923 H 0.96789 0.87544 0.20962 0.0
H3924 H 0.93387 0.85443 0.25191 0.0
H3925 H 0.95863 0.85656 0.23387 0.0
H3926 H 0.92712 0.84292 0.19227 0.0
H3927 H 0.9029 0.84078 0.20993 0.0
C3928 C 0.97197 0.84308 0.17433 0.0
C3929 C 0.98091 0.85814 0.17354 0.0
C3930 C 0.96139 0.83979 0.18748 0.0
C3931 C 0.95924 0.85161 0.20011 0.0
C3932 C 0.96929 0.86608 0.20008 0.0
C3933 C 0.9801 0.86931 0.18689 0.0
C3934 C 0.93239 0.85171 0.23894 0.0
C3935 C 0.91642 0.84751 0.23234 0.0
C3936 C 0.9465 0.85303 0.22862 0.0
C3937 C 0.94488 0.84979 0.21165 0.0
C3938 C 0.92895 0.84524 0.20529 0.0
C3939 C 0.91497 0.84416 0.21544 0.0
H3940 H 0.35318 0.73628 0.44549 0.0
H3941 H 0.40252 0.75698 0.45558 0.0
H3942 H 0.35644 0.71782 0.46897 0.0
H3943 H 0.40561 0.739 0.4796 0.0
H3944 H 0.36242 0.68666 0.51254 0.0
H3945 H 0.35869 0.71274 0.49734 0.0
H3946 H 0.41118 0.71017 0.48296 0.0
H3947 H 0.41487 0.6846 0.49885 0.0
C3948 C 0.36451 0.73722 0.45306 0.0
C3949 C 0.37767 0.74789 0.44864 0.0
C3950 C 0.36638 0.7267 0.46663 0.0
C3951 C 0.38139 0.72676 0.47617 0.0
C3952 C 0.39404 0.73836 0.47236 0.0
C3953 C 0.39223 0.74875 0.45867 0.0
C3954 C 0.37327 0.69216 0.50667 0.0
C3955 C 0.38897 0.6839 0.50696 0.0
C3956 C 0.37111 0.70694 0.49777 0.0
C3957 C 0.38454 0.71347 0.48865 0.0
C3958 C 0.40058 0.7057 0.48996 0.0
C3959 C 0.40276 0.69105 0.49906 0.0
H3960 H 0.58054 0.10753 0.74211 0.0
H3961 H 0.55265 0.1358 0.77821 0.0
H3962 H 0.55438 0.10014 0.72826 0.0
H3963 H 0.52601 0.12826 0.76413 0.0
H3964 H 0.49425 0.13482 0.71359 0.0
H3965 H 0.51426 0.13678 0.73654 0.0
H3966 H 0.52765 0.08476 0.73 0.0
H3967 H 0.50788 0.08294 0.70676 0.0
C3968 C 0.56874 0.11204 0.74718 0.0
C3969 C 0.56862 0.12249 0.76106 0.0
C3970 C 0.55369 0.10758 0.73937 0.0
C3971 C 0.53811 0.11353 0.74515 0.0
C3972 C 0.53787 0.1235 0.75943 0.0
C3973 C 0.55305 0.12781 0.76746 0.0
C3974 C 0.50111 0.12368 0.71737 0.0
C3975 C 0.49987 0.10883 0.70821 0.0
C3976 C 0.51248 0.12477 0.7306 0.0
C3977 C 0.52274 0.111 0.73485 0.0
C3978 C 0.5201 0.09565 0.72678 0.0
C3979 C 0.50878 0.09459 0.71351 0.0
H3980 H 0.12683 0.33734 0.96624 0.0
H3981 H 0.13584 0.30786 0.00989 0.0
H3982 H 0.13001 0.31252 0.94935 0.0
H3983 H 0.13913 0.2827 0.99265 0.0
H3984 H 0.16385 0.25035 0.94653 0.0
H3985 H 0.16001 0.27154 0.96834 0.0
H3986 H 0.11215 0.28603 0.94632 0.0
H3987 H 0.11599 0.26524 0.92484 0.0
C3988 C 0.12953 0.32556 0.97228 0.0
C3989 C 0.13102 0.32464 0.98947 0.0
C3990 C 0.13128 0.31128 0.96256 0.0
C3991 C 0.13472 0.29563 0.96967 0.0
C3992 C 0.13651 0.29462 0.98685 0.0
C3993 C 0.13451 0.30898 -0.00331 0.0
C3994 C 0.15232 0.25774 0.94674 0.0
C3995 C 0.14028 0.25628 0.93395 0.0
C3996 C 0.15013 0.26987 0.95915 0.0
C3997 C 0.13591 0.28064 0.95883 0.0
C3998 C 0.12336 0.27815 0.94674 0.0
C3999 C 0.12554 0.26619 0.93447 0.0
H4000 H 0.29043 0.00387 0.09967 0.0
H4001 H 0.31171 0.99206 0.1473 0.0
H4002 H 0.26719 0.98415 0.10456 0.0
H4003 H 0.2887 0.9728 0.15225 0.0
H4004 H 0.26682 0.92095 0.14092 0.0
H4005 H 0.28469 0.94533 0.13859 0.0
H4006 H 0.24154 0.97488 0.12287 0.0
H4007 H 0.22335 0.95006 0.12534 0.0
C4008 C 0.28983 -0.00247 0.11136 0.0
C4009 C 0.30298 -0.00061 0.12303 0.0
C4010 C 0.27656 0.98621 0.11417 0.0
C4011 C 0.27625 0.97665 0.12869 0.0
C4012 C 0.28869 0.97967 0.14081 0.0
C4013 C 0.30186 0.99079 0.13799 0.0
C4014 C 0.26102 0.93267 0.13718 0.0
C4015 C 0.24363 0.93356 0.13341 0.0
C4016 C 0.27128 0.94671 0.13589 0.0
C4017 C 0.26458 0.96214 0.13059 0.0
C4018 C 0.2471 0.96318 0.12696 0.0
C4019 C 0.23667 0.94904 0.12853 0.0
H4020 H 0.29503 0.98545 0.39503 0.0
H4021 H 0.30733 0.99599 0.34469 0.0
H4022 H 0.26942 0.00293 0.3923 0.0
H4023 H 0.28177 0.01307 0.34183 0.0
H4024 H 0.23188 0.04099 0.3404 0.0
H4025 H 0.24887 0.01529 0.34358 0.0
H4026 H 0.271 0.03506 0.38828 0.0
H4027 H 0.25444 0.0606 0.38497 0.0
C4028 C 0.29187 0.99097 0.38324 0.0
C4029 C 0.30308 0.98956 0.3701 0.0
C4030 C 0.27732 0.00098 0.38168 0.0
C4031 C 0.27369 0.00937 0.36687 0.0
C4032 C 0.28415 0.00663 0.35332 0.0
C4033 C 0.29882 -0.00305 0.35499 0.0
C4034 C 0.24019 0.03965 0.35101 0.0
C4035 C 0.24209 0.05283 0.36229 0.0
C4036 C 0.24984 0.02499 0.35285 0.0
C4037 C 0.26114 0.02318 0.36624 0.0
C4038 C 0.26222 0.03601 0.37799 0.0
C4039 C 0.25291 0.05072 0.37596 0.0
H4040 H 0.1763 0.02359 0.64689 0.0
H4041 H 0.20588 0.98693 0.62038 0.0
H4042 H 0.20174 0.03797 0.65485 0.0
H4043 H 0.23183 0.00136 0.62886 0.0
H4044 H 0.26278 0.0519 0.62257 0.0
H4045 H 0.24406 0.02784 0.62108 0.0
H4046 H 0.22733 0.03833 0.67045 0.0
H4047 H 0.2454 0.06297 0.67138 0.0
C4048 C 0.18829 0.01842 0.64293 0.0
C4049 C 0.18902 0.00425 0.63274 0.0
C4050 C 0.20299 0.02657 0.64776 0.0
C4051 C 0.21889 0.02076 0.64261 0.0
C4052 C 0.21975 0.00616 0.63297 0.0
C4053 C 0.20491 -0.00207 0.6281 0.0
C4054 C 0.25556 0.04858 0.63329 0.0
C4055 C 0.2553 0.05912 0.64704 0.0
C4056 C 0.24488 0.03478 0.63249 0.0
C4057 C 0.2339 0.03141 0.64551 0.0
C4058 C 0.23533 0.04087 0.66007 0.0
C4059 C 0.24574 0.05485 0.6607 0.0
H4060 H 0.24247 0.9229 0.90726 0.0
H4061 H 0.26644 0.9427 0.86423 0.0
H4062 H 0.22566 0.94849 0.9098 0.0
H4063 H 0.24928 0.96824 0.86659 0.0
H4064 H 0.19049 0.9846 0.8617 0.0
H4065 H 0.21582 0.96702 0.86231 0.0
H4066 H 0.22587 0.98204 0.91244 0.0
H4067 H 0.20055 0.00019 0.91165 0.0
C4068 C 0.24448 0.93295 0.89864 0.0
C4069 C 0.25562 0.93083 0.88548 0.0
C4070 C 0.23495 0.94762 0.90016 0.0
C4071 C 0.23615 0.96025 0.88834 0.0
C4072 C 0.24818 0.95865 0.87586 0.0
C4073 C 0.25801 0.94409 0.87454 0.0
C4074 C 0.19829 0.9844 0.87275 0.0
C4075 C 0.19357 0.9936 0.88667 0.0
C4076 C 0.21286 0.97449 0.87304 0.0
C4077 C 0.22281 0.97328 0.88739 0.0
C4078 C 0.21842 0.98289 0.90121 0.0
C4079 C 0.204 0.99321 0.90076 0.0
H4080 H 0.61357 0.21737 0.98149 0.0
H4081 H 0.5808 0.19853 0.01911 0.0
H4082 H 0.62311 0.23952 0.00017 0.0
H4083 H 0.59025 0.22076 0.0376 0.0
H4084 H 0.64128 0.22955 0.06631 0.0
H4085 H 0.62841 0.21711 0.04187 0.0
H4086 H 0.60865 0.26531 0.02731 0.0
H4087 H 0.62172 0.27797 0.05207 0.0
C4088 C 0.6078 0.21845 0.99345 0.0
C4089 C 0.59673 0.20607 -0.00095 0.0
C4090 C 0.61324 0.23115 0.00406 0.0
C4091 C 0.60747 0.23163 0.02024 0.0
C4092 C 0.59479 0.22056 0.0251 0.0
C4093 C 0.58942 0.20785 0.01455 0.0
C4094 C 0.63465 0.23759 0.05764 0.0
C4095 C 0.63243 0.25465 0.06098 0.0
C4096 C 0.62722 0.23048 0.04378 0.0
C4097 C 0.61737 0.24028 0.03304 0.0
C4098 C 0.61618 0.2576 0.03557 0.0
C4099 C 0.62375 0.26481 0.04955 0.0
H4100 H 0.06235 0.35586 0.22453 0.0
H4101 H 0.08748 0.39334 0.25417 0.0
H4102 H 0.03543 0.36319 0.23745 0.0
H4103 H 0.06117 0.40013 0.26734 0.0
H4104 H 0.01349 0.41297 0.29014 0.0
H4105 H 0.03349 0.41109 0.26752 0.0
H4106 H 0.02456 0.35793 0.26398 0.0
H4107 H 0.00419 0.36005 0.2859 0.0
C4108 C 0.06209 0.3658 0.23359 0.0
C4109 C 0.0771 0.37374 0.23857 0.0
C4110 C 0.04671 0.36996 0.24106 0.0
C4111 C 0.04611 0.38215 0.2536 0.0
C4112 C 0.06098 0.39083 0.25765 0.0
C4113 C 0.07621 0.38672 0.25022 0.0
C4114 C 0.01551 0.40102 0.28417 0.0
C4115 C 0.00756 0.38662 0.28993 0.0
C4116 C 0.02702 0.39988 0.27129 0.0
C4117 C 0.03094 0.38428 0.2641 0.0
C4118 C 0.02186 0.37017 0.26906 0.0
C4119 C 0.01026 0.37136 0.28178 0.0
H4120 H 0.85293 0.81149 0.50669 0.0
H4121 H 0.90509 0.8024 0.49419 0.0
H4122 H 0.85395 0.78814 0.52587 0.0
H4123 H 0.90629 0.77911 0.51381 0.0
H4124 H 0.85821 0.74018 0.55428 0.0
H4125 H 0.85887 0.75619 0.52874 0.0
H4126 H 0.904 0.78125 0.54581 0.0
H4127 H 0.90326 0.76548 0.57139 0.0
C4128 C 0.86448 0.80416 0.50775 0.0
C4129 C 0.8789 0.80865 0.49895 0.0
C4130 C 0.86506 0.79078 0.51869 0.0
C4131 C 0.88021 0.78184 0.52136 0.0
C4132 C 0.89445 0.78581 0.51197 0.0
C4133 C 0.89374 0.79901 0.50069 0.0
C4134 C 0.86849 0.74883 0.55243 0.0
C4135 C 0.8806 0.75168 0.56492 0.0
C4136 C 0.86883 0.75801 0.53783 0.0
C4137 C 0.88147 0.76996 0.53531 0.0
C4138 C 0.8942 0.77201 0.54734 0.0
C4139 C 0.89369 0.76306 0.56204 0.0
H4140 H 0.05615 0.64069 0.27403 0.0
H4141 H 0.07625 0.59073 0.26903 0.0
H4142 H 0.03222 0.63336 0.25636 0.0
H4143 H 0.05178 0.58287 0.25226 0.0
H4144 H 0.02715 0.58612 0.20083 0.0
H4145 H 0.04529 0.58841 0.225 0.0
H4146 H 0.00755 0.61944 0.24854 0.0
H4147 H 0.98985 0.61781 0.22379 0.0
C4148 C 0.05498 0.62791 0.26975 0.0
C4149 C 0.06802 0.6163 0.27268 0.0
C4150 C 0.04125 0.62364 0.2596 0.0
C4151 C 0.04022 0.60758 0.25249 0.0
C4152 C 0.05242 0.5955 0.25702 0.0
C4153 C 0.06633 0.59991 0.2668 0.0
C4154 C 0.02265 0.5932 0.21128 0.0
C4155 C 0.00725 0.60195 0.21042 0.0
C4156 C 0.03298 0.59443 0.22526 0.0
C4157 C 0.02798 0.60421 0.23881 0.0
C4158 C 0.012 0.61209 0.23826 0.0
C4159 C 0.0018 0.61108 0.22414 0.0
H4160 H 0.4531 0.36785 0.65317 0.0
H4161 H 0.49849 0.36424 0.68324 0.0
H4162 H 0.43592 0.36664 0.67763 0.0
H4163 H 0.48095 0.36284 0.70795 0.0
H4164 H 0.4331 0.34159 0.74146 0.0
H4165 H 0.45539 0.34261 0.72054 0.0
H4166 H 0.4339 0.38856 0.70184 0.0
H4167 H 0.412 0.38765 0.72249 0.0
C4168 C 0.45947 0.36661 0.66497 0.0
C4169 C 0.47724 0.36623 0.66618 0.0
C4170 C 0.44957 0.36599 0.67902 0.0
C4171 C 0.4571 0.36479 0.69469 0.0
C4172 C 0.47484 0.36376 0.696 0.0
C4173 C 0.48484 0.36462 0.68186 0.0
C4174 C 0.43357 0.35219 0.73324 0.0
C4175 C 0.42075 0.36447 0.73352 0.0
C4176 C 0.44624 0.35272 0.72124 0.0
C4177 C 0.44614 0.36551 0.7094 0.0
C4178 C 0.43412 0.37842 0.71062 0.0
C4179 C 0.42162 0.37792 0.72251 0.0
H4180 H 0.03674 0.90503 0.65887 0.0
H4181 H 0.99579 0.88179 0.68464 0.0
H4182 H 0.05588 0.89894 0.68165 0.0
H4183 H 0.01528 0.87541 0.70769 0.0
H4184 H 0.05811 0.87981 0.75037 0.0
H4185 H 0.0354 0.88694 0.73046 0.0
H4186 H 0.068 0.8722 0.69076 0.0
H4187 H 0.09032 0.8653 0.71025 0.0
C4188 C 0.03175 0.89875 0.66951 0.0
C4189 C 0.01475 0.89373 0.6698 0.0
C4190 C 0.04279 0.89516 0.68258 0.0
C4191 C 0.03726 0.88631 0.69637 0.0
C4192 C 0.01997 0.8822 0.69723 0.0
C4193 C 0.0088 0.88588 0.68404 0.0
C4194 C 0.06027 0.8779 0.7374 0.0
C4195 C 0.07617 0.87223 0.73194 0.0
C4196 C 0.04728 0.88201 0.72599 0.0
C4197 C 0.05 0.88054 0.70896 0.0
C4198 C 0.06558 0.87399 0.70372 0.0
C4199 C 0.07841 0.86994 0.71497 0.0
H4200 H 0.84678 0.24106 0.43775 0.0
H4201 H 0.89717 0.24043 0.41802 0.0
H4202 H 0.85759 0.25455 0.46279 0.0
H4203 H 0.90824 0.25286 0.44323 0.0
H4204 H 0.91236 0.3019 0.47309 0.0
H4205 H 0.90657 0.28038 0.45289 0.0
H4206 H 0.87457 0.25504 0.48742 0.0
H4207 H 0.88001 0.27715 0.50757 0.0
C4208 C 0.86022 0.24345 0.43902 0.0
C4209 C 0.87113 0.24019 0.42598 0.0
C4210 C 0.86648 0.251 0.45337 0.0
C4211 C 0.88379 0.25504 0.45492 0.0
C4212 C 0.89481 0.25038 0.44228 0.0
C4213 C 0.88849 0.24325 0.42787 0.0
C4214 C 0.90449 0.29148 0.47654 0.0
C4215 C 0.89644 0.29128 0.49175 0.0
C4216 C 0.90119 0.27904 0.46497 0.0
C4217 C 0.88987 0.26606 0.46843 0.0
C4218 C 0.88306 0.26505 0.48426 0.0
C4219 C 0.88632 0.27759 0.49585 0.0
H4220 H 0.43014 0.14602 0.25613 0.0
H4221 H 0.40548 0.09915 0.24616 0.0
H4222 H 0.45537 0.13599 0.2422 0.0
H4223 H 0.43104 0.0884 0.23342 0.0
H4224 H 0.46712 0.08618 0.18955 0.0
H4225 H 0.44473 0.09077 0.20919 0.0
H4226 H 0.47908 0.11965 0.23972 0.0
H4227 H 0.501 0.11603 0.2192 0.0
C4228 C 0.43037 0.13338 0.25133 0.0
C4229 C 0.41591 0.12343 0.25194 0.0
C4230 C 0.44488 0.12749 0.24344 0.0
C4231 C 0.44534 0.11133 0.23642 0.0
C4232 C 0.4311 0.10105 0.23814 0.0
C4233 C 0.41647 0.10714 0.24556 0.0
C4234 C 0.46997 0.09308 0.20071 0.0
C4235 C 0.48567 0.10085 0.20287 0.0
C4236 C 0.45712 0.09575 0.21207 0.0
C4237 C 0.45986 0.10593 0.22603 0.0
C4238 C 0.47623 0.11225 0.22889 0.0
C4239 C 0.48891 0.10996 0.21729 0.0
H4240 H 0.63837 0.67566 0.98306 0.0
H4241 H 0.58677 0.68792 0.9952 0.0
H4242 H 0.63877 0.69878 0.96349 0.0
H4243 H 0.58696 0.71081 0.97508 0.0
H4244 H 0.59249 0.72389 0.91694 0.0
H4245 H 0.59065 0.70738 0.94206 0.0
H4246 H 0.63461 0.73242 0.96184 0.0
H4247 H 0.63616 0.74939 0.93683 0.0
C4248 C 0.62724 0.68357 0.98178 0.0
C4249 C 0.61259 0.68013 0.99072 0.0
C4250 C 0.62748 0.6968 0.97061 0.0
C4251 C 0.61291 0.70659 0.96778 0.0
C4252 C 0.59838 0.70349 0.97709 0.0
C4253 C 0.5983 0.6905 0.98865 0.0
C4254 C 0.60152 0.72616 0.92681 0.0
C4255 C 0.61447 0.73794 0.92492 0.0
C4256 C 0.60041 0.71676 0.94121 0.0
C4257 C 0.61248 0.71863 0.9539 0.0
C4258 C 0.62512 0.73078 0.95226 0.0
C4259 C 0.62596 0.74052 0.93799 0.0
H4260 H 0.00468 0.11765 0.8077 0.0
H4261 H 0.02457 0.15888 0.83597 0.0
H4262 H 0.02261 0.12529 0.7847 0.0
H4263 H 0.04152 0.16735 0.81277 0.0
H4264 H 0.08881 0.15936 0.78234 0.0
H4265 H 0.06623 0.15774 0.80179 0.0
H4266 H 0.03168 0.14249 0.76298 0.0
H4267 H 0.05503 0.14332 0.74339 0.0
C4268 C 0.01256 0.12863 0.8088 0.0
C4269 C 0.0135 0.1375 0.82368 0.0
C4270 C 0.02277 0.13311 0.79557 0.0
C4271 C 0.03387 0.1468 0.79687 0.0
C4272 C 0.03365 0.1564 0.81141 0.0
C4273 C 0.02384 0.15163 0.82472 0.0
C4274 C 0.07634 0.1559 0.77783 0.0
C4275 C 0.07378 0.15126 0.76134 0.0
C4276 C 0.06323 0.15513 0.78904 0.0
C4277 C 0.04697 0.14987 0.78412 0.0
C4278 C 0.04407 0.14631 0.76732 0.0
C4279 C 0.05737 0.14702 0.75602 0.0
H4280 H 0.59981 0.24666 0.53418 0.0
H4281 H 0.64945 0.26339 0.54938 0.0
H4282 H 0.59777 0.2696 0.51456 0.0
H4283 H 0.64752 0.28624 0.52962 0.0
H4284 H 0.62382 0.33743 0.51559 0.0
H4285 H 0.62962 0.31163 0.53025 0.0
H4286 H 0.60902 0.28325 0.48955 0.0
H4287 H 0.60302 0.30925 0.47477 0.0
C4288 C 0.61047 0.25498 0.533 0.0
C4289 C 0.62472 0.25336 0.54338 0.0
C4290 C 0.60932 0.26809 0.52173 0.0
C4291 C 0.62239 0.27986 0.52071 0.0
C4292 C 0.63713 0.27752 0.53032 0.0
C4293 C 0.6383 0.26437 0.54154 0.0
C4294 C 0.62057 0.32573 0.50967 0.0
C4295 C 0.61286 0.32544 0.49401 0.0
C4296 C 0.62408 0.3109 0.51803 0.0
C4297 C 0.61988 0.29539 0.51101 0.0
C4298 C 0.61235 0.29503 0.49528 0.0
C4299 C 0.60895 0.30992 0.48681 0.0
H4300 H 0.42517 0.89547 0.21854 0.0
H4301 H 0.43471 0.84629 0.23817 0.0
H4302 H 0.45128 0.90561 0.23184 0.0
H4303 H 0.46088 0.85618 0.25112 0.0
H4304 H 0.47375 0.91309 0.28742 0.0
H4305 H 0.45524 0.90752 0.26381 0.0
H4306 H 0.49035 0.86993 0.24667 0.0
H4307 H 0.50901 0.87567 0.27017 0.0
C4308 C 0.43326 0.88674 0.22517 0.0
C4309 C 0.42824 0.87014 0.22734 0.0
C4310 C 0.44808 0.89251 0.23277 0.0
C4311 C 0.45807 0.88165 0.24241 0.0
C4312 C 0.45356 0.86473 0.24353 0.0
C4313 C 0.43862 0.85907 0.23619 0.0
C4314 C 0.47779 0.90408 0.27829 0.0
C4315 C 0.49262 0.89462 0.28069 0.0
C4316 C 0.46726 0.90095 0.26474 0.0
C4317 C 0.47135 0.88818 0.25356 0.0
C4318 C 0.48693 0.87978 0.25519 0.0
C4319 C 0.49758 0.88308 0.26861 0.0
H4320 H 0.83213 0.71343 0.06397 0.0
H4321 H 0.85956 0.75306 0.04079 0.0
H4322 H 0.83654 0.69557 0.04026 0.0
H4323 H 0.86409 0.73503 0.01662 0.0
H4324 H 0.88993 0.68525 0.99422 0.0
H4325 H 0.88141 0.70922 0.01127 0.0
H4326 H 0.83019 0.69068 0.01174 0.0
H4327 H 0.8389 0.66665 0.99539 0.0
C4328 C 0.83864 0.71849 0.05348 0.0
C4329 C 0.8453 0.73466 0.0541 0.0
C4330 C 0.84119 0.70825 0.03984 0.0
C4331 C 0.85067 0.71383 0.02644 0.0
C4332 C 0.85677 0.73034 0.02674 0.0
C4333 C 0.854 0.74073 0.04044 0.0
C4334 C 0.87678 0.68665 -0.00239 0.0
C4335 C 0.86508 0.6741 0.99367 0.0
C4336 C 0.87187 0.70036 0.00735 0.0
C4337 C 0.85516 0.70173 0.01315 0.0
C4338 C 0.84323 0.68985 0.00784 0.0
C4339 C 0.84818 0.67614 -0.00161 0.0
H4340 H 0.72547 0.07955 0.87194 0.0
H4341 H 0.76864 0.04667 0.86612 0.0
H4342 H 0.70675 0.05593 0.87128 0.0
H4343 H 0.74936 0.0225 0.86527 0.0
H4344 H 0.7044 0.98684 0.88689 0.0
H4345 H 0.72762 0.00711 0.88457 0.0
H4346 H 0.69739 0.03575 0.85008 0.0
H4347 H 0.67443 0.01602 0.85264 0.0
C4348 C 0.73105 0.06724 0.87048 0.0
C4349 C 0.74867 0.06509 0.8691 0.0
C4350 C 0.7202 0.05363 0.86998 0.0
C4351 C 0.72649 0.03731 0.86805 0.0
C4352 C 0.74413 0.03495 0.86677 0.0
C4353 C 0.75514 0.04877 0.86714 0.0
C4354 C 0.70294 -0.0027 0.87859 0.0
C4355 C 0.68748 1e-05 0.87018 0.0
C4356 C 0.71622 0.00887 0.87723 0.0
C4357 C 0.71422 0.02321 0.86737 0.0
C4358 C 0.69923 0.02507 0.85806 0.0
C4359 C 0.68604 0.01373 0.85953 0.0
H4360 H 0.6999 0.01131 0.63289 0.0
H4361 H 0.68078 0.98416 0.59087 0.0
H4362 H 0.7225 0.99043 0.63648 0.0
H4363 H 0.70361 0.96369 0.59393 0.0
H4364 H 0.72108 0.91819 0.62302 0.0
H4365 H 0.70494 0.9427 0.61518 0.0
H4366 H 0.74764 0.97405 0.62725 0.0
H4367 H 0.76402 0.94921 0.63543 0.0
C4368 C 0.70112 0.00136 0.62392 0.0
C4369 C 0.68874 -0.00072 0.61158 0.0
C4370 C 0.71398 0.98935 0.62601 0.0
C4371 C 0.71458 0.97517 0.61574 0.0
C4372 C 0.70324 0.97423 0.60231 0.0
C4373 C 0.69032 0.98606 0.60038 0.0
C4374 C 0.72717 0.93025 0.624 0.0
C4375 C 0.74392 0.93166 0.62986 0.0
C4376 C 0.71792 0.94435 0.61931 0.0
C4377 C 0.7251 0.96035 0.62027 0.0
C4378 C 0.74179 0.96189 0.6263 0.0
C4379 C 0.75114 0.94766 0.63099 0.0
H4380 H 0.73571 0.94385 0.32791 0.0
H4381 H 0.73846 0.93693 0.38037 0.0
H4382 H 0.75387 0.9685 0.33055 0.0
H4383 H 0.75629 0.96147 0.38312 0.0
H4384 H 0.79064 0.00463 0.38489 0.0
H4385 H 0.76296 0.9922 0.37886 0.0
H4386 H 0.7848 0.96431 0.33877 0.0
H4387 H 0.81222 0.97653 0.34478 0.0
C4388 C 0.73956 0.9481 0.34003 0.0
C4389 C 0.73597 0.93858 0.35394 0.0
C4390 C 0.74994 0.96211 0.34156 0.0
C4391 C 0.7566 0.96674 0.35702 0.0
C4392 C 0.75126 0.95828 0.37107 0.0
C4393 C 0.74116 0.94419 0.36951 0.0
C4394 C 0.78939 0.99607 0.37462 0.0
C4395 C 0.80361 0.99122 0.36553 0.0
C4396 C 0.77358 0.98907 0.37112 0.0
C4397 C 0.77175 0.97737 0.35832 0.0
C4398 C 0.78576 0.97348 0.34855 0.0
C4399 C 0.80154 0.98026 0.35218 0.0
H4400 H 0.76414 0.06972 0.1319 0.0
H4401 H 0.72207 0.04347 0.10971 0.0
H4402 H 0.78082 0.04432 0.13207 0.0
H4403 H 0.73905 0.01743 0.10997 0.0
H4404 H 0.78924 0.98694 0.0922 0.0
H4405 H 0.76577 0.00695 0.09536 0.0
H4406 H 0.78246 0.01701 0.14511 0.0
H4407 H 0.80605 -0.00236 0.14173 0.0
C4408 C 0.75838 0.0584 0.12719 0.0
C4409 C 0.74185 0.0586 0.12068 0.0
C4410 C 0.76791 0.04374 0.12744 0.0
C4411 C 0.76125 0.02879 0.12114 0.0
C4412 C 0.74452 0.02879 0.1149 0.0
C4413 C 0.73478 0.0436 0.11484 0.0
C4414 C 0.78756 0.99313 0.10392 0.0
C4415 C 0.7996 0.99104 0.11661 0.0
C4416 C 0.77411 0.00453 0.10575 0.0
C4417 C 0.77248 0.01381 0.12037 0.0
C4418 C 0.7836 0.01035 0.13356 0.0
C4419 C 0.7971 -0.00075 0.13165 0.0
H4420 H 0.35986 0.77764 0.0068 0.0
H4421 H 0.4112 0.78401 0.99051 0.0
H4422 H 0.35527 0.75646 0.98575 0.0
H4423 H 0.40683 0.76229 0.9698 0.0
H4424 H 0.37998 0.75776 0.91936 0.0
H4425 H 0.38956 0.76816 0.94559 0.0
H4426 H 0.36064 0.7303 0.97019 0.0
H4427 H 0.3507 0.71975 0.94341 0.0
C4428 C 0.37039 0.77399 -0.00085 0.0
C4429 C 0.38573 0.78276 -0.00011 0.0
C4430 C 0.36779 0.76176 0.98715 0.0
C4431 C 0.38054 0.75808 0.97582 0.0
C4432 C 0.39663 0.76523 0.97811 0.0
C4433 C 0.39918 0.77759 0.99 0.0
C4434 C 0.37562 0.75152 0.93028 0.0
C4435 C 0.36433 0.73806 0.92926 0.0
C4436 C 0.3814 0.75733 0.94539 0.0
C4437 C 0.37607 0.74991 0.96 0.0
C4438 C 0.365 0.73622 0.9591 0.0
C4439 C 0.35926 0.73025 0.94381 0.0
H4440 H -0.00044 0.62381 0.71202 0.0
H4441 H 0.9748 0.57884 0.69526 0.0
H4442 H 0.97676 0.62894 0.73128 0.0
H4443 H 0.95207 0.5838 0.71477 0.0
H4444 H 0.90462 0.61646 0.72459 0.0
H4445 H 0.93026 0.6058 0.71221 0.0
H4446 H 0.95925 0.62095 0.755 0.0
H4447 H 0.9334 0.63187 0.76751 0.0
C4448 C 0.98956 0.61468 0.71291 0.0
C4449 C 0.98877 0.60108 0.70198 0.0
C4450 C 0.9765 0.61761 0.72397 0.0
C4451 C 0.96243 0.60698 0.72426 0.0
C4452 C 0.96259 0.5924 0.71455 0.0
C4453 C 0.97568 0.58946 0.7035 0.0
C4454 C 0.91641 0.61752 0.73145 0.0
C4455 C 0.91694 0.62514 0.74702 0.0
C4456 C 0.93111 0.61118 0.72441 0.0
C4457 C 0.94676 0.61233 0.73271 0.0
C4458 C 0.94735 0.61987 0.74833 0.0
C4459 C 0.93256 0.62615 0.75545 0.0
H4460 H 0.09276 0.22154 0.41237 0.0
H4461 H 0.12894 0.25161 0.43929 0.0
H4462 H 0.09005 0.20333 0.43598 0.0
H4463 H 0.12627 0.23306 0.46307 0.0
H4464 H 0.10677 0.19598 0.50518 0.0
H4465 H 0.10564 0.21911 0.48519 0.0
H4466 H 0.1134 0.18381 0.44579 0.0
H4467 H 0.11455 0.16119 0.46515 0.0
C4468 C 0.09993 0.22446 0.42343 0.0
C4469 C 0.11129 0.23789 0.42381 0.0
C4470 C 0.09836 0.214 0.43698 0.0
C4471 C 0.10816 0.2166 0.45128 0.0
C4472 C 0.11854 0.23078 0.45222 0.0
C4473 C 0.12009 0.24136 0.43858 0.0
C4474 C 0.10825 0.19324 0.49225 0.0
C4475 C 0.1107 0.17665 0.48687 0.0
C4476 C 0.10763 0.20646 0.48084 0.0
C4477 C 0.10916 0.20322 0.46391 0.0
C4478 C 0.11181 0.18671 0.45869 0.0
C4479 C 0.11259 0.17369 0.46993 0.0
H4480 H 0.93268 0.36309 0.71831 0.0
H4481 H 0.90292 0.38038 0.7593 0.0
H4482 H 0.95849 0.37211 0.73268 0.0
H4483 H 0.92847 0.38915 0.7735 0.0
H4484 H 0.99567 0.36454 0.7786 0.0
H4485 H 0.9733 0.3616 0.75795 0.0
H4486 H 0.95219 0.40921 0.77271 0.0
H4487 H 0.97454 0.41203 0.7936 0.0
C4488 C 0.93163 0.36889 0.73028 0.0
C4489 C 0.91579 0.37085 0.73773 0.0
C4490 C 0.94637 0.37407 0.73848 0.0
C4491 C 0.94545 0.38144 0.75414 0.0
C4492 C 0.92956 0.3838 0.76131 0.0
C4493 C 0.91492 0.37854 0.75324 0.0
C4494 C 0.98648 0.37455 0.77716 0.0
C4495 C 0.98659 0.38837 0.78781 0.0
C4496 C 0.97375 0.37293 0.76525 0.0
C4497 C 0.96091 0.38508 0.76389 0.0
C4498 C 0.96183 0.39956 0.77369 0.0
C4499 C 0.97462 0.40121 0.78557 0.0
H4500 H 0.53261 0.64353 0.33684 0.0
H4501 H 0.49875 0.6125 0.30824 0.0
H4502 H 0.54969 0.64824 0.3126 0.0
H4503 H 0.51612 0.61705 0.28389 0.0
H4504 H 0.56907 0.61058 0.25604 0.0
H4505 H 0.54664 0.60832 0.27644 0.0
H4506 H 0.54839 0.66166 0.2843 0.0
H4507 H 0.57069 0.66383 0.26373 0.0
C4508 C 0.52871 0.63783 0.32533 0.0
C4509 C 0.51431 0.62763 0.32449 0.0
C4510 C 0.53846 0.64062 0.3114 0.0
C4511 C 0.53425 0.63305 0.2963 0.0
C4512 C 0.51969 0.62304 0.29536 0.0
C4513 C 0.50971 0.62051 0.30927 0.0
C4514 C 0.56418 0.62185 0.26173 0.0
C4515 C 0.57129 0.63742 0.25813 0.0
C4516 C 0.55139 0.62058 0.27342 0.0
C4517 C 0.54576 0.6348 0.28202 0.0
C4518 C 0.55249 0.65047 0.27792 0.0
C4519 C 0.56511 0.65176 0.26605 0.0
H4520 H 0.43329 0.63627 0.75006 0.0
H4521 H 0.41243 0.58776 0.76002 0.0
H4522 H 0.45626 0.63073 0.77019 0.0
H4523 H 0.43516 0.5822 0.77973 0.0
H4524 H 0.45534 0.5935 0.83184 0.0
H4525 H 0.43805 0.5965 0.80716 0.0
H4526 H 0.48204 0.61098 0.77991 0.0
H4527 H 0.49967 0.60777 0.80501 0.0
C4528 C 0.43395 0.62424 0.75609 0.0
C4529 C 0.42099 0.61251 0.75359 0.0
C4530 C 0.44706 0.62107 0.76763 0.0
C4531 C 0.44735 0.60613 0.77678 0.0
C4532 C 0.43516 0.59394 0.77314 0.0
C4533 C 0.42216 0.59711 0.76178 0.0
C4534 C 0.46145 0.59712 0.82057 0.0
C4535 C 0.47891 0.6003 0.82039 0.0
C4536 C 0.45152 0.59881 0.80637 0.0
C4537 C 0.45865 0.60392 0.79151 0.0
C4538 C 0.47618 0.60703 0.79118 0.0
C4539 C 0.48627 0.60504 0.80548 0.0
H4540 H 0.9024 0.18088 0.01564 0.0
H4541 H 0.88 0.156 0.97352 0.0
H4542 H 0.89647 0.20801 0.00277 0.0
H4543 H 0.87408 0.18288 0.96092 0.0
H4544 H 0.85194 0.23212 0.94767 0.0
H4545 H 0.85538 0.20827 0.96611 0.0
H4546 H 0.90683 0.22303 0.97678 0.0
H4547 H 0.9034 0.24689 0.95834 0.0
C4548 C 0.8962 0.18119 0.0037 0.0
C4549 C 0.89172 0.16628 0.99559 0.0
C4550 C 0.89281 0.19669 0.99637 0.0
C4551 C 0.88461 0.19752 0.98097 0.0
C4552 C 0.88012 0.18263 0.97294 0.0
C4553 C 0.8837 0.1672 0.98011 0.0
C4554 C 0.86381 0.23054 0.95432 0.0
C4555 C 0.87746 0.24121 0.95149 0.0
C4556 C 0.86582 0.21684 0.96477 0.0
C4557 C 0.88146 0.2137 0.97265 0.0
C4558 C 0.89464 0.22519 0.97089 0.0
C4559 C 0.89268 0.23881 0.96032 0.0
H4560 H 0.60997 0.8077 0.50463 0.0
H4561 H 0.65753 0.82574 0.48651 0.0
H4562 H 0.61276 0.78269 0.48728 0.0
H4563 H 0.66042 0.80079 0.46945 0.0
H4564 H 0.66431 0.74987 0.44454 0.0
H4565 H 0.66307 0.76867 0.4685 0.0
H4566 H 0.61131 0.78135 0.45589 0.0
H4567 H 0.61267 0.76298 0.43203 0.0
C4568 C 0.62124 0.80609 0.49734 0.0
C4569 C 0.63347 0.81872 0.49684 0.0
C4570 C 0.6228 0.79184 0.48734 0.0
C4571 C 0.63679 0.7898 0.47694 0.0
C4572 C 0.64958 0.80189 0.4774 0.0
C4573 C 0.64786 0.81624 0.48711 0.0
C4574 C 0.65261 0.75643 0.44714 0.0
C4575 C 0.63863 0.75506 0.43638 0.0
C4576 C 0.6519 0.76722 0.46079 0.0
C4577 C 0.63707 0.77647 0.46411 0.0
C4578 C 0.62284 0.77428 0.45382 0.0
C4579 C 0.62367 0.76384 0.44007 0.0
H4580 H 0.80024 0.49857 0.64775 0.0
H4581 H 0.78392 0.50848 0.59796 0.0
H4582 H 0.77787 0.47802 0.65052 0.0
H4583 H 0.76119 0.48776 0.60083 0.0
H4584 H 0.71725 0.45098 0.62234 0.0
H4585 H 0.73329 0.47737 0.62154 0.0
H4586 H 0.7795 0.44993 0.63137 0.0
H4587 H 0.76378 0.42387 0.63173 0.0
C4588 C 0.79143 0.49681 0.63758 0.0
C4589 C 0.79387 0.5051 0.62262 0.0
C4590 C 0.77865 0.48499 0.63917 0.0
C4591 C 0.76791 0.48118 0.62585 0.0
C4592 C 0.76925 0.49056 0.61133 0.0
C4593 C 0.78218 0.50247 0.6097 0.0
C4594 C 0.7308 0.4507 0.62451 0.0
C4595 C 0.73927 0.43538 0.62717 0.0
C4596 C 0.73997 0.46574 0.62391 0.0
C4597 C 0.75763 0.46567 0.62641 0.0
C4598 C 0.7659 0.45038 0.62948 0.0
C4599 C 0.75689 0.43545 0.62968 0.0
H4600 H 0.73291 0.54075 0.84475 0.0
H4601 H 0.7582 0.56214 0.88711 0.0
H4602 H 0.75038 0.5154 0.84763 0.0
H4603 H 0.77532 0.53685 0.89013 0.0
H4604 H 0.79928 0.4863 0.8965 0.0
H4605 H 0.77408 0.50452 0.89514 0.0
H4606 H 0.7832 0.51347 0.84377 0.0
H4607 H 0.80841 0.49571 0.84527 0.0
C4608 C 0.74191 0.53988 0.85486 0.0
C4609 C 0.74436 0.55346 0.86559 0.0
C4610 C 0.75187 0.52541 0.85651 0.0
C4611 C 0.76412 0.52417 0.86915 0.0
C4612 C 0.76583 0.53738 0.88041 0.0
C4613 C 0.75616 0.55193 0.87857 0.0
C4614 C 0.7955 0.49174 0.88484 0.0
C4615 C 0.80569 0.48971 0.87099 0.0
C4616 C 0.7812 0.5022 0.88407 0.0
C4617 C 0.77675 0.5104 0.86935 0.0
C4618 C 0.78622 0.50718 0.85521 0.0
C4619 C 0.80066 0.49709 0.85608 0.0
H4620 H 0.75446 0.55979 0.10775 0.0
H4621 H 0.76273 0.54903 0.15911 0.0
H4622 H 0.73806 0.53433 0.10463 0.0
H4623 H 0.74596 0.52346 0.1561 0.0
H4624 H 0.70798 0.48813 0.10209 0.0
H4625 H 0.73476 0.50269 0.10703 0.0
H4626 H 0.714 0.5254 0.1506 0.0
H4627 H 0.68739 0.51107 0.14566 0.0
C4628 C 0.75327 0.55157 0.11822 0.0
C4629 C 0.75965 0.55629 0.13367 0.0
C4630 C 0.74398 0.53695 0.11642 0.0
C4631 C 0.74063 0.52703 0.13016 0.0
C4632 C 0.74836 0.53097 0.14534 0.0
C4633 C 0.75798 0.5455 0.14706 0.0
C4634 C 0.70931 0.49595 0.1129 0.0
C4635 C 0.69554 0.49876 0.12332 0.0
C4636 C 0.72462 0.50421 0.11575 0.0
C4637 C 0.72644 0.51512 0.12921 0.0
C4638 C 0.71305 0.51689 0.14026 0.0
C4639 C 0.69772 0.50888 0.13729 0.0
H4640 H 0.70282 0.50459 0.40323 0.0
H4641 H 0.6904 0.48478 0.35521 0.0
H4642 H 0.72836 0.48686 0.40422 0.0
H4643 H 0.71604 0.46756 0.35601 0.0
H4644 H 0.76829 0.44508 0.35832 0.0
H4645 H 0.75024 0.47016 0.35912 0.0
H4646 H 0.72783 0.45273 0.4039 0.0
H4647 H 0.74544 0.42753 0.40285 0.0
C4648 C 0.70579 0.49677 0.39275 0.0
C4649 C 0.69464 0.49589 0.3792 0.0
C4650 C 0.72035 0.48669 0.39332 0.0
C4651 C 0.72415 0.47601 0.38013 0.0
C4652 C 0.71348 0.47588 0.36622 0.0
C4653 C 0.69876 0.48559 0.36584 0.0
C4654 C 0.75991 0.44692 0.3686 0.0
C4655 C 0.75813 0.43442 0.38048 0.0
C4656 C 0.74958 0.46119 0.36903 0.0
C4657 C 0.7377 0.46329 0.38157 0.0
C4658 C 0.73702 0.45146 0.39421 0.0
C4659 C 0.74702 0.43704 0.39356 0.0
H4660 H 0.50366 0.38062 0.18108 0.0
H4661 H 0.54581 0.39251 0.15011 0.0
H4662 H 0.52344 0.37528 0.20405 0.0
H4663 H 0.56529 0.38767 0.17287 0.0
H4664 H 0.59782 0.35845 0.20719 0.0
H4665 H 0.57581 0.36362 0.18682 0.0
H4666 H 0.54461 0.38669 0.22383 0.0
H4667 H 0.56683 0.38102 0.2446 0.0
C4668 C 0.51709 0.38236 0.17924 0.0
C4669 C 0.52315 0.38675 0.16367 0.0
C4670 C 0.52843 0.3793 0.19241 0.0
C4671 C 0.54604 0.38065 0.19026 0.0
C4672 C 0.5519 0.38595 0.1749 0.0
C4673 C 0.54067 0.38884 0.16182 0.0
C4674 C 0.58623 0.36453 0.21109 0.0
C4675 C 0.58419 0.36951 0.22751 0.0
C4676 C 0.57361 0.36762 0.19933 0.0
C4677 C 0.55854 0.376 0.20351 0.0
C4678 C 0.55606 0.38026 0.22014 0.0
C4679 C 0.56877 0.377 0.23205 0.0
H4680 H 0.09634 0.80844 0.98017 0.0
H4681 H 0.12218 0.83559 0.01891 0.0
H4682 H 0.10221 0.78219 0.9947 0.0
H4683 H 0.12789 0.80963 0.03326 0.0
H4684 H 0.09541 0.74652 0.04085 0.0
H4685 H 0.09269 0.76922 0.02099 0.0
H4686 H 0.14443 0.7834 0.03118 0.0
H4687 H 0.14707 0.76079 0.05116 0.0
C4688 C 0.10334 0.80882 0.99169 0.0
C4689 C 0.1087 0.82414 -0.0016 0.0
C4690 C 0.10667 0.7938 1e-05 0.0
C4691 C 0.11563 0.79382 0.01506 0.0
C4692 C 0.12123 0.80912 0.02156 0.0
C4693 C 0.11777 0.82407 0.01338 0.0
C4694 C 0.10633 0.75424 0.03853 0.0
C4695 C 0.1214 0.75201 0.04763 0.0
C4696 C 0.10478 0.76721 0.02712 0.0
C4697 C 0.11827 0.77825 0.02469 0.0
C4698 C 0.13373 0.77525 0.03298 0.0
C4699 C 0.13529 0.76224 0.04433 0.0
H4700 H 0.35437 0.25299 0.53997 0.0
H4701 H 0.33266 0.2155 0.57109 0.0
H4702 H 0.35701 0.23216 0.51785 0.0
H4703 H 0.33577 0.19484 0.54966 0.0
H4704 H 0.33514 0.1599 0.50845 0.0
H4705 H 0.32721 0.18441 0.52432 0.0
H4706 H 0.37425 0.20801 0.51153 0.0
H4707 H 0.38173 0.1836 0.4948 0.0
C4708 C 0.34978 0.24045 0.54193 0.0
C4709 C 0.34333 0.23588 0.55727 0.0
C4710 C 0.35151 0.22843 0.52937 0.0
C4711 C 0.34671 0.21169 0.5319 0.0
C4712 C 0.3394 0.20755 0.547 0.0
C4713 C 0.3377 0.21944 0.55942 0.0
C4714 C 0.34371 0.1704 0.50885 0.0
C4715 C 0.35919 0.16971 0.50058 0.0
C4716 C 0.3392 0.18448 0.51803 0.0
C4717 C 0.35023 0.19816 0.5196 0.0
C4718 C 0.36536 0.19782 0.51059 0.0
C4719 C 0.36972 0.18378 0.50106 0.0
H4720 H 0.20643 0.48158 0.36189 0.0
H4721 H 0.19264 0.50975 0.40494 0.0
H4722 H 0.22815 0.5025 0.35561 0.0
H4723 H 0.2142 0.53038 0.39884 0.0
H4724 H 0.22466 0.57451 0.36552 0.0
H4725 H 0.20998 0.54906 0.37214 0.0
H4726 H 0.25649 0.52091 0.36796 0.0
H4727 H 0.27167 0.54691 0.36144 0.0
C4728 C 0.20865 0.49176 0.37044 0.0
C4729 C 0.19802 0.494 0.38401 0.0
C4730 C 0.22098 0.50377 0.36679 0.0
C4731 C 0.22271 0.51816 0.37664 0.0
C4732 C 0.21308 0.51949 0.39098 0.0
C4733 C 0.20083 0.50761 0.39456 0.0
C4734 C 0.23192 0.56297 0.3659 0.0
C4735 C 0.24948 0.56288 0.36318 0.0
C4736 C 0.22343 0.54835 0.36975 0.0
C4737 C 0.23214 0.53306 0.37093 0.0
C4738 C 0.24951 0.53258 0.36725 0.0
C4739 C 0.25816 0.54743 0.36346 0.0
H4740 H 0.18287 0.49757 0.15582 0.0
H4741 H 0.20149 0.50397 0.10675 0.0
H4742 H 0.20712 0.47978 0.16261 0.0
H4743 H 0.22572 0.48559 0.11333 0.0
H4744 H 0.27024 0.45333 0.13283 0.0
H4745 H 0.252 0.4783 0.1303 0.0
H4746 H 0.21121 0.45134 0.15273 0.0
H4747 H 0.22921 0.42682 0.15526 0.0
C4748 C 0.19247 0.49548 0.14663 0.0
C4749 C 0.1904 0.50206 0.13079 0.0
C4750 C 0.20629 0.48522 0.15046 0.0
C4751 C 0.21818 0.481 0.13842 0.0
C4752 C 0.21682 0.48867 0.1229 0.0
C4753 C 0.20299 0.49918 0.11911 0.0
C4754 C 0.2575 0.45298 0.13755 0.0
C4755 C 0.25112 0.43816 0.14422 0.0
C4756 C 0.24703 0.46718 0.13597 0.0
C4757 C 0.23017 0.46684 0.14135 0.0
C4758 C 0.22418 0.45219 0.14868 0.0
C4759 C 0.23448 0.43805 0.15005 0.0
H4760 H 0.22466 0.45017 0.86132 0.0
H4761 H 0.26672 0.43074 0.83358 0.0
H4762 H 0.24197 0.47401 0.87009 0.0
H4763 H 0.28377 0.45459 0.84215 0.0
H4764 H 0.30989 0.46992 0.8916 0.0
H4765 H 0.28583 0.45504 0.87979 0.0
H4766 H 0.26958 0.49972 0.85445 0.0
H4767 H 0.29385 0.51489 0.86647 0.0
C4768 C 0.23727 0.45144 0.85642 0.0
C4769 C 0.24451 0.43856 0.84697 0.0
C4770 C 0.24712 0.46505 0.86145 0.0
C4771 C 0.26411 0.46593 0.85681 0.0
C4772 C 0.27063 0.4541 0.8458 0.0
C4773 C 0.26092 0.44047 0.84094 0.0
C4774 C 0.30094 0.47672 0.88388 0.0
C4775 C 0.30373 0.49346 0.8798 0.0
C4776 C 0.28724 0.46822 0.87714 0.0
C4777 C 0.27614 0.47628 0.86614 0.0
C4778 C 0.27807 0.49337 0.86296 0.0
C4779 C 0.29183 0.50199 0.86986 0.0
H4780 H 0.22517 0.54522 0.61712 0.0
H4781 H 0.26504 0.57165 0.64271 0.0
H4782 H 0.24392 0.52069 0.61458 0.0
H4783 H 0.28366 0.54782 0.63988 0.0
H4784 H 0.31496 0.5036 0.63927 0.0
H4785 H 0.29049 0.52024 0.64717 0.0
H4786 H 0.26895 0.51397 0.59847 0.0
H4787 H 0.29319 0.49635 0.59094 0.0
C4788 C 0.23775 0.54561 0.62256 0.0
C4789 C 0.24373 0.56031 0.63002 0.0
C4790 C 0.24855 0.53168 0.62095 0.0
C4791 C 0.26535 0.53226 0.62695 0.0
C4792 C 0.27078 0.5467 0.63531 0.0
C4793 C 0.26012 0.56049 0.63683 0.0
C4794 C 0.30483 0.50554 0.63036 0.0
C4795 C 0.30604 0.49902 0.61442 0.0
C4796 C 0.29082 0.5151 0.63486 0.0
C4797 C 0.27792 0.51882 0.62334 0.0
C4798 C 0.2786 0.51132 0.60768 0.0
C4799 C 0.29252 0.50135 0.6033 0.0
H4800 H 0.05818 0.09834 0.40698 0.0
H4801 H 0.00939 0.10642 0.42919 0.0
H4802 H 0.07207 0.10597 0.43301 0.0
H4803 H 0.02324 0.11411 0.45491 0.0
H4804 H 0.08865 0.10445 0.48814 0.0
H4805 H 0.07533 0.09594 0.46227 0.0
H4806 H 0.04095 0.13799 0.46531 0.0
H4807 H 0.05457 0.1467 0.49118 0.0
C4808 C 0.0504 0.10152 0.41741 0.0
C4809 C 0.03264 0.10173 0.41588 0.0
C4810 C 0.05836 0.10593 0.43232 0.0
C4811 C 0.04875 0.11085 0.446 0.0
C4812 C 0.03103 0.11066 0.44456 0.0
C4813 C 0.02309 0.10608 0.42978 0.0
C4814 C 0.0783 0.11195 0.48326 0.0
C4815 C 0.0727 0.12631 0.49169 0.0
C4816 C 0.07071 0.10708 0.46839 0.0
C4817 C 0.05708 0.11627 0.46169 0.0
C4818 C 0.05134 0.13055 0.47021 0.0
C4819 C 0.05913 0.13557 0.48501 0.0
H4820 H 0.10028 0.81508 0.73882 0.0
H4821 H 0.14929 0.83856 0.73769 0.0
H4822 H 0.10623 0.80111 0.71277 0.0
H4823 H 0.15524 0.82465 0.71163 0.0
H4824 H 0.14693 0.81485 0.6555 0.0
H4825 H 0.14397 0.82682 0.68292 0.0
H4826 H 0.12533 0.77969 0.70059 0.0
H4827 H 0.12814 0.76771 0.67326 0.0
C4828 C 0.11239 0.81708 0.73309 0.0
C4829 C 0.12428 0.82796 0.74017 0.0
C4830 C 0.11582 0.80907 0.71821 0.0
C4831 C 0.13118 0.81185 0.71015 0.0
C4832 C 0.14323 0.82242 0.71748 0.0
C4833 C 0.13985 0.83032 0.73241 0.0
C4834 C 0.14241 0.80697 0.66526 0.0
C4835 C 0.13768 0.79035 0.66213 0.0
C4836 C 0.14076 0.81382 0.68098 0.0
C4837 C 0.1343 0.80421 0.69385 0.0
C4838 C 0.13012 0.78745 0.69085 0.0
C4839 C 0.13183 0.78058 0.67518 0.0
H4840 H 0.4103 0.83485 0.98417 0.0
H4841 H 0.44414 0.87009 0.00754 0.0
H4842 H 0.42729 0.83529 0.95961 0.0
H4843 H 0.46153 0.87024 0.98297 0.0
H4844 H 0.4612 0.89058 0.92922 0.0
H4845 H 0.45353 0.88368 0.95722 0.0
H4846 H 0.45305 0.83119 0.94443 0.0
H4847 H 0.4603 0.83822 0.91623 0.0
C4848 C 0.42174 0.84223 0.98424 0.0
C4849 C 0.42569 0.8528 -0.0025 0.0
C4850 C 0.43155 0.84241 0.97019 0.0
C4851 C 0.44551 0.85312 0.96924 0.0
C4852 C 0.45058 0.86218 0.98326 0.0
C4853 C 0.44071 0.86202 -0.00267 0.0
C4854 C 0.45956 0.87757 0.93246 0.0
C4855 C 0.46103 0.86494 0.92061 0.0
C4856 C 0.45542 0.87358 0.94853 0.0
C4857 C 0.45276 0.85686 0.95304 0.0
C4858 C 0.45491 0.84417 0.94127 0.0
C4859 C 0.45898 0.84819 0.92516 0.0
H4860 H 0.39384 0.18984 0.24236 0.0
H4861 H 0.34681 0.16352 0.23498 0.0
H4862 H 0.39016 0.20308 0.2155 0.0
H4863 H 0.34311 0.17672 0.20819 0.0
H4864 H 0.3554 0.18797 0.15369 0.0
H4865 H 0.35711 0.17565 0.18101 0.0
H4866 H 0.37099 0.22356 0.20148 0.0
H4867 H 0.36942 0.23591 0.1742 0.0
C4868 C 0.38271 0.18696 0.23501 0.0
C4869 C 0.37065 0.17565 0.24067 0.0
C4870 C 0.38054 0.19457 0.2197 0.0
C4871 C 0.36633 0.19092 0.20977 0.0
C4872 C 0.35426 0.17964 0.21551 0.0
C4873 C 0.35636 0.17213 0.23085 0.0
C4874 C 0.35862 0.19593 0.16403 0.0
C4875 C 0.36231 0.21291 0.16175 0.0
C4876 C 0.35956 0.18888 0.17969 0.0
C4877 C 0.3643 0.19863 0.19335 0.0
C4878 C 0.36754 0.2157 0.19113 0.0
C4879 C 0.36651 0.22278 0.17551 0.0
H4880 H 0.0481 0.88439 0.08847 0.0
H4881 H -0.00077 0.87339 0.06664 0.0
H4882 H 0.0609 0.88287 0.06139 0.0
H4883 H 0.01207 0.87194 0.03963 0.0
H4884 H 0.07457 0.89406 0.00786 0.0
H4885 H 0.06088 0.89754 0.03438 0.0
H4886 H 0.03219 0.85261 0.02548 0.0
H4887 H 0.04599 0.84909 -0.00105 0.0
C4888 C 0.04005 0.88183 0.07791 0.0
C4889 C 0.02263 0.87898 0.07978 0.0
C4890 C 0.04738 0.881 0.06238 0.0
C4891 C 0.03751 0.87718 0.04839 0.0
C4892 C 0.02005 0.8747 0.0502 0.0
C4893 C 0.01268 0.87567 0.0657 0.0
C4894 C 0.06532 0.88494 0.01157 0.0
C4895 C 0.06138 0.87126 0.00139 0.0
C4896 C 0.05753 0.88691 0.02678 0.0
C4897 C 0.04547 0.87534 0.03204 0.0
C4898 C 0.04131 0.86182 0.02169 0.0
C4899 C 0.04924 0.85976 0.00654 0.0
H4900 H 0.39652 0.83205 0.24965 0.0
H4901 H 0.35777 0.80098 0.22771 0.0
H4902 H 0.39654 0.81514 0.27413 0.0
H4903 H 0.35766 0.7838 0.25285 0.0
H4904 H 0.34906 0.78315 0.31217 0.0
H4905 H 0.34933 0.79146 0.28327 0.0
H4906 H 0.40373 0.78564 0.28304 0.0
H4907 H 0.4035 0.77766 0.31192 0.0
C4908 C 0.38806 0.82146 0.25004 0.0
C4909 C 0.37706 0.81781 0.23688 0.0
C4910 C 0.38822 0.81167 0.26402 0.0
C4911 C 0.37724 0.79809 0.26526 0.0
C4912 C 0.3663 0.7942 0.25204 0.0
C4913 C 0.36636 0.80394 0.23776 0.0
C4914 C 0.36102 0.78341 0.30582 0.0
C4915 C 0.37631 0.7802 0.31424 0.0
C4916 C 0.36114 0.78794 0.28928 0.0
C4917 C 0.37656 0.78925 0.28105 0.0
C4918 C 0.3917 0.78482 0.28921 0.0
C4919 C 0.39158 0.78038 0.30572 0.0
H4920 H 0.45213 0.07904 0.57323 0.0
H4921 H 0.46163 0.13204 0.57101 0.0
H4922 H 0.44043 0.07977 0.54529 0.0
H4923 H 0.45004 0.13274 0.54299 0.0
H4924 H 0.43728 0.12591 0.4886 0.0
H4925 H 0.45453 0.12111 0.51351 0.0
H4926 H 0.41327 0.09388 0.53478 0.0
H4927 H 0.39619 0.09877 0.51006 0.0
C4928 C 0.45192 0.09079 0.56667 0.0
C4929 C 0.45763 0.10552 0.57427 0.0
C4930 C 0.44524 0.0912 0.55072 0.0
C4931 C 0.44435 0.1063 0.54201 0.0
C4932 C 0.45076 0.1209 0.54937 0.0
C4933 C 0.45726 0.12053 0.56542 0.0
C4934 C 0.43215 0.11855 0.49847 0.0
C4935 C 0.41543 0.11279 0.4976 0.0
C4936 C 0.44192 0.11593 0.51272 0.0
C4937 C 0.43518 0.10722 0.52607 0.0
C4938 C 0.41883 0.10055 0.52466 0.0
C4939 C 0.40901 0.10343 0.51059 0.0
H4940 H 0.1084 0.19406 0.75983 0.0
H4941 H 0.14974 0.15876 0.76388 0.0
H4942 H 0.11485 0.20433 0.78751 0.0
H4943 H 0.15615 0.16886 0.79164 0.0
H4944 H 0.14205 0.23127 0.82856 0.0
H4945 H 0.13757 0.21995 0.80126 0.0
H4946 H 0.1442 0.16994 0.82011 0.0
H4947 H 0.14879 0.1814 0.84787 0.0
C4948 C 0.11893 0.18858 0.76661 0.0
C4949 C 0.12854 0.1756 0.75972 0.0
C4950 C 0.12264 0.19442 0.78247 0.0
C4951 C 0.13605 0.18741 0.79182 0.0
C4952 C 0.14563 0.17439 0.78489 0.0
C4953 C 0.14198 0.16864 0.76898 0.0
C4954 C 0.14265 0.21783 0.827 0.0
C4955 C 0.14559 0.20723 0.84052 0.0
C4956 C 0.13997 0.21135 0.81128 0.0
C4957 C 0.14017 0.19404 0.80852 0.0
C4958 C 0.14393 0.18337 0.82185 0.0
C4959 C 0.14661 0.18991 0.83774 0.0
H4960 H 0.4695 0.09222 0.1472 0.0
H4961 H 0.49211 0.05907 0.11163 0.0
H4962 H 0.44182 0.07999 0.14143 0.0
H4963 H 0.46442 0.04702 0.10565 0.0
H4964 H 0.41393 0.01926 0.10977 0.0
H4965 H 0.44188 0.03028 0.11606 0.0
H4966 H 0.42068 0.08005 0.11942 0.0
H4967 H 0.39251 0.06893 0.11344 0.0
C4968 C 0.46861 0.08214 0.13833 0.0
C4969 C 0.48305 0.07665 0.12986 0.0
C4970 C 0.45268 0.07528 0.13485 0.0
C4971 C 0.45076 0.06269 0.12285 0.0
C4972 C 0.46536 0.05664 0.11499 0.0
C4973 C 0.48129 0.06353 0.11845 0.0
C4974 C 0.41519 0.0326 0.11167 0.0
C4975 C 0.40088 0.04319 0.11108 0.0
C4976 C 0.4313 0.03893 0.11527 0.0
C4977 C 0.43361 0.05605 0.11842 0.0
C4978 C 0.41936 0.06674 0.11737 0.0
C4979 C 0.40321 0.0604 0.11371 0.0
H4980 H 0.15478 0.22913 0.35325 0.0
H4981 H 0.1624 0.22096 0.40525 0.0
H4982 H 0.1656 0.20112 0.34748 0.0
H4983 H 0.17296 0.19253 0.39936 0.0
H4984 H 0.17061 0.13679 0.37459 0.0
H4985 H 0.15786 0.16413 0.38114 0.0
H4986 H 0.19844 0.18875 0.3561 0.0
H4987 H 0.21139 0.16165 0.34993 0.0
C4988 C 0.15873 0.22129 0.36345 0.0
C4989 C 0.15794 0.22717 0.37969 0.0
C4990 C 0.16484 0.20531 0.36012 0.0
C4991 C 0.16996 0.19481 0.373 0.0
C4992 C 0.16893 0.20049 0.3893 0.0
C4993 C 0.16308 0.2167 0.39263 0.0
C4994 C 0.17664 0.14807 0.37034 0.0
C4995 C 0.19189 0.14722 0.36171 0.0
C4996 C 0.16948 0.16361 0.37423 0.0
C4997 C 0.17732 0.17836 0.36918 0.0
C4998 C 0.19227 0.17746 0.36013 0.0
C4999 C 0.1996 0.16202 0.35658 0.0
H5000 H 0.08074 0.9875 0.60717 0.0
H5001 H 0.10131 0.93725 0.60549 0.0
H5002 H 0.05236 0.97635 0.60915 0.0
H5003 H 0.07251 0.92614 0.60712 0.0
H5004 H 0.01252 0.94668 0.64041 0.0
H5005 H 0.04031 0.9583 0.63418 0.0
H5006 H 0.04243 0.92829 0.5901 0.0
H5007 H 0.0144 0.91715 0.59595 0.0
C5008 C 0.07923 0.97406 0.60693 0.0
C5009 C 0.09333 0.96323 0.6064 0.0
C5010 C 0.06295 0.96774 0.60811 0.0
C5011 C 0.06041 0.95048 0.60851 0.0
C5012 C 0.07429 0.93955 0.60685 0.0
C5013 C 0.0907 0.94589 0.60589 0.0
C5014 C 0.01883 0.94278 0.62929 0.0
C5015 C 0.01151 0.93093 0.61875 0.0
C5016 C 0.03467 0.94936 0.62575 0.0
C5017 C 0.04342 0.94401 0.61174 0.0
C5018 C 0.03593 0.93243 0.60104 0.0
C5019 C 0.01996 0.92612 0.6044 0.0
H5020 H 0.29586 0.74017 0.85985 0.0
H5021 H 0.33757 0.76482 0.88442 0.0
H5022 H 0.28476 0.76747 0.85087 0.0
H5023 H 0.32674 0.79172 0.87555 0.0
H5024 H 0.31146 0.83794 0.85184 0.0
H5025 H 0.32175 0.80918 0.85142 0.0
H5026 H 0.27221 0.79191 0.86503 0.0
H5027 H 0.26176 0.82055 0.86504 0.0
C5028 C 0.30267 0.7514 0.8632 0.0
C5029 C 0.31761 0.75047 0.87268 0.0
C5030 C 0.29639 0.76695 0.85805 0.0
C5031 C 0.30504 0.78169 0.86229 0.0
C5032 C 0.32005 0.78059 0.87166 0.0
C5033 C 0.32622 0.76517 0.87683 0.0
C5034 C 0.30266 0.82799 0.85438 0.0
C5035 C 0.28591 0.83153 0.85885 0.0
C5036 C 0.30856 0.81153 0.85416 0.0
C5037 C 0.29786 0.79836 0.85852 0.0
C5038 C 0.28074 0.80179 0.86157 0.0
C5039 C 0.2748 0.81824 0.8617 0.0
H5040 H 0.41684 0.97856 0.37481 0.0
H5041 H 0.39649 0.92909 0.36701 0.0
H5042 H 0.4447 0.9685 0.3667 0.0
H5043 H 0.42444 0.91904 0.35914 0.0
H5044 H 0.47352 0.90734 0.33509 0.0
H5045 H 0.44636 0.92222 0.33715 0.0
H5046 H 0.4654 0.94898 0.37965 0.0
H5047 H 0.49232 0.9342 0.37746 0.0
C5048 C 0.41833 0.96552 0.37146 0.0
C5049 C 0.40452 0.95455 0.37174 0.0
C5050 C 0.43425 0.95981 0.36674 0.0
C5051 C 0.43665 0.94306 0.36215 0.0
C5052 C 0.42285 0.93211 0.36233 0.0
C5053 C 0.40693 0.93779 0.36712 0.0
C5054 C 0.47204 0.91693 0.34437 0.0
C5055 C 0.48488 0.91986 0.35602 0.0
C5056 C 0.4565 0.92525 0.34571 0.0
C5057 C 0.45378 0.9366 0.35866 0.0
C5058 C 0.46718 0.9404 0.36948 0.0
C5059 C 0.48257 0.93198 0.36825 0.0
H5060 H 0.26384 0.16658 0.62371 0.0
H5061 H 0.31564 0.15345 0.63627 0.0
H5062 H 0.27257 0.19485 0.61739 0.0
H5063 H 0.32438 0.18173 0.6296 0.0
H5064 H 0.33113 0.23781 0.63268 0.0
H5065 H 0.32123 0.21014 0.64002 0.0
H5066 H 0.28898 0.20952 0.59671 0.0
H5067 H 0.29877 0.23748 0.58952 0.0
C5068 C 0.27711 0.16969 0.62511 0.0
C5069 C 0.28906 0.15774 0.63052 0.0
C5070 C 0.28209 0.18589 0.62139 0.0
C5071 C 0.29914 0.19048 0.62297 0.0
C5072 C 0.3111 0.17858 0.62847 0.0
C5073 C 0.3061 0.16237 0.63223 0.0
C5074 C 0.32183 0.23179 0.6248 0.0
C5075 C 0.31569 0.23967 0.61054 0.0
C5076 C 0.31626 0.21592 0.62894 0.0
C5077 C 0.30446 0.20762 0.61887 0.0
C5078 C 0.29799 0.2157 0.60478 0.0
C5079 C 0.30355 0.23165 0.60066 0.0
H5080 H 0.08617 0.02306 0.86601 0.0
H5081 H 0.10643 0.06827 0.88758 0.0
H5082 H 0.05944 0.03736 0.86046 0.0
H5083 H 0.07951 0.08259 0.88194 0.0
H5084 H 0.02213 0.09311 0.88836 0.0
H5085 H 0.04975 0.07999 0.89242 0.0
H5086 H 0.04768 0.06075 0.84282 0.0
H5087 H 0.0199 0.07413 0.83867 0.0
C5088 C 0.08493 0.03605 0.8696 0.0
C5089 C 0.0984 0.0445 0.87738 0.0
C5090 C 0.06965 0.04426 0.86626 0.0
C5091 C 0.06743 0.06106 0.87074 0.0
C5092 C 0.08088 0.06957 0.87846 0.0
C5093 C 0.09627 0.06139 0.88167 0.0
C5094 C 0.02759 0.08615 0.87828 0.0
C5095 C 0.01893 0.08464 0.86317 0.0
C5096 C 0.04345 0.07873 0.88059 0.0
C5097 C 0.05089 0.06944 0.86792 0.0
C5098 C 0.04217 0.0678 0.85282 0.0
C5099 C 0.02633 0.07542 0.85043 0.0
H5100 H 0.16775 0.84845 0.12674 0.0
H5101 H 0.21694 0.82501 0.12243 0.0
H5102 H 0.15432 0.82151 0.12138 0.0
H5103 H 0.20357 0.79831 0.11677 0.0
H5104 H 0.1726 0.75106 0.13043 0.0
H5105 H 0.18796 0.7774 0.13114 0.0
H5106 H 0.14904 0.8001 0.10063 0.0
H5107 H 0.13364 0.77363 0.1002 0.0
C5108 C 0.17571 0.83759 0.12462 0.0
C5109 C 0.19345 0.83895 0.12517 0.0
C5110 C 0.16801 0.82215 0.12136 0.0
C5111 C 0.17784 0.80767 0.11858 0.0
C5112 C 0.19557 0.8091 0.11901 0.0
C5113 C 0.20325 0.82449 0.12225 0.0
C5114 C 0.16776 0.76149 0.12328 0.0
C5115 C 0.15222 0.76021 0.11487 0.0
C5116 C 0.17647 0.77667 0.12379 0.0
C5117 C 0.16969 0.79101 0.11608 0.0
C5118 C 0.15454 0.78941 0.1069 0.0
C5119 C 0.14587 0.77417 0.10635 0.0
H5120 H 0.14283 0.40681 0.06225 0.0
H5121 H 0.11137 0.43147 0.02583 0.0
H5122 H 0.14767 0.43378 0.07599 0.0
H5123 H 0.11578 0.45824 0.0399 0.0
H5124 H 0.1128 0.49526 0.08648 0.0
H5125 H 0.10848 0.46842 0.07256 0.0
H5126 H 0.1621 0.46452 0.06392 0.0
H5127 H 0.1664 0.4918 0.07741 0.0
C5128 C 0.13677 0.41793 0.05732 0.0
C5129 C 0.12665 0.41701 0.04299 0.0
C5130 C 0.13966 0.43335 0.0651 0.0
C5131 C 0.13216 0.44806 0.05893 0.0
C5132 C 0.12172 0.44708 0.04487 0.0
C5133 C 0.11919 0.43176 0.03685 0.0
C5134 C 0.12365 0.48876 0.08146 0.0
C5135 C 0.13992 0.49568 0.08287 0.0
C5136 C 0.12117 0.47341 0.07353 0.0
C5137 C 0.13495 0.46441 0.06723 0.0
C5138 C 0.15127 0.47122 0.06874 0.0
C5139 C 0.15371 0.48684 0.07632 0.0
H5140 H 0.66879 0.0028 0.91665 0.0
H5141 H 0.61495 0.99421 0.91444 0.0
H5142 H 0.66363 0.03125 0.92658 0.0
H5143 H 0.6097 0.0221 0.92516 0.0
H5144 H 0.60303 0.07719 0.92699 0.0
H5145 H 0.61049 0.04976 0.91616 0.0
H5146 H 0.65425 0.04803 0.94867 0.0
H5147 H 0.64723 0.07598 0.95869 0.0
C5148 C 0.65589 0.0069 0.91872 0.0
C5149 C 0.64223 -0.00355 0.91487 0.0
C5150 C 0.65291 0.02317 0.92437 0.0
C5151 C 0.63623 0.02908 0.92645 0.0
C5152 C 0.62268 0.0182 0.92324 0.0
C5153 C 0.62565 0.00213 0.91733 0.0
C5154 C 0.61433 0.07097 0.93164 0.0
C5155 C 0.62451 0.07853 0.9437 0.0
C5156 C 0.61854 0.0552 0.92558 0.0
C5157 C 0.63278 0.0465 0.9318 0.0
C5158 C 0.64326 0.05438 0.94353 0.0
C5159 C 0.63923 0.07035 0.94933 0.0
H5160 H 0.25063 0.39897 0.19506 0.0
H5161 H 0.25114 0.35864 0.15968 0.0
H5162 H 0.22625 0.38626 0.20839 0.0
H5163 H 0.22742 0.34572 0.17318 0.0
H5164 H 0.1888 0.35491 0.23512 0.0
H5165 H 0.21627 0.36251 0.22421 0.0
H5166 H 0.19795 0.35171 0.17509 0.0
H5167 H 0.17079 0.34374 0.18594 0.0
C5168 C 0.24566 0.38731 0.1903 0.0
C5169 C 0.2526 0.37987 0.1763 0.0
C5170 C 0.23183 0.37995 0.19797 0.0
C5171 C 0.22487 0.36499 0.19179 0.0
C5172 C 0.23227 0.35735 0.17809 0.0
C5173 C 0.2459 0.36476 0.17038 0.0
C5174 C 0.19079 0.35372 0.22203 0.0
C5175 C 0.17752 0.3489 0.21138 0.0
C5176 C 0.20647 0.35827 0.21578 0.0
C5177 C 0.2092 0.35801 0.19878 0.0
C5178 C 0.19633 0.35198 0.18827 0.0
C5179 C 0.1807 0.34741 0.19451 0.0
H5180 H 0.90061 0.90423 0.44052 0.0
H5181 H 0.85667 0.91118 0.47068 0.0
H5182 H 0.89473 0.9308 0.42699 0.0
H5183 H 0.8495 0.93661 0.45616 0.0
H5184 H 0.84387 0.98749 0.43471 0.0
H5185 H 0.85328 0.9636 0.4508 0.0
H5186 H 0.87853 0.94348 0.40802 0.0
H5187 H 0.87088 0.96844 0.39292 0.0
C5188 C 0.88966 0.91151 0.44416 0.0
C5189 C 0.87917 0.9059 0.45665 0.0
C5190 C 0.88607 0.92663 0.43628 0.0
C5191 C 0.87145 0.93599 0.44024 0.0
C5192 C 0.8611 0.93021 0.45292 0.0
C5193 C 0.86511 0.91551 0.46124 0.0
C5194 C 0.85147 0.97791 0.42886 0.0
C5195 C 0.85639 0.97957 0.41251 0.0
C5196 C 0.85679 0.96408 0.43802 0.0
C5197 C 0.86661 0.95129 0.4308 0.0
C5198 C 0.87134 0.95306 0.41429 0.0
C5199 C 0.86661 0.96722 0.4054 0.0
H5200 H 0.81015 0.11921 0.22227 0.0
H5201 H 0.83843 0.12255 0.17736 0.0
H5202 H 0.78446 0.1136 0.20648 0.0
H5203 H 0.8125 0.11693 0.1615 0.0
H5204 H 0.75782 0.12623 0.14055 0.0
H5205 H 0.78451 0.13076 0.15529 0.0
H5206 H 0.77234 0.091 0.18873 0.0
H5207 H 0.74561 0.08637 0.17379 0.0
C5208 C 0.81091 0.11885 0.20901 0.0
C5209 C 0.82642 0.12142 0.20111 0.0
C5210 C 0.79616 0.11546 0.19996 0.0
C5211 C 0.79643 0.1147 0.18274 0.0
C5212 C 0.81186 0.1175 0.17477 0.0
C5213 C 0.82672 0.12072 0.18385 0.0
C5214 C 0.76092 0.11833 0.15094 0.0
C5215 C 0.74962 0.10594 0.15603 0.0
C5216 C 0.77624 0.12091 0.15936 0.0
C5217 C 0.78056 0.11128 0.17321 0.0
C5218 C 0.76931 0.09875 0.1782 0.0
C5219 C 0.75404 0.09605 0.16964 0.0
H5220 H 0.41159 0.57725 0.54778 0.0
H5221 H 0.36506 0.58125 0.51981 0.0
H5222 H 0.40335 0.5497 0.55732 0.0
H5223 H 0.35577 0.55474 0.53055 0.0
H5224 H 0.344 0.5026 0.54619 0.0
H5225 H 0.35555 0.52692 0.53249 0.0
H5226 H 0.38719 0.5367 0.57531 0.0
H5227 H 0.37714 0.51139 0.58774 0.0
C5228 C 0.39958 0.57214 0.54371 0.0
C5229 C 0.38901 0.58117 0.53302 0.0
C5230 C 0.39464 0.55645 0.54936 0.0
C5231 C 0.37863 0.54985 0.54505 0.0
C5232 C 0.36829 0.55897 0.53401 0.0
C5233 C 0.37355 0.5743 0.52787 0.0
C5234 C 0.3535 0.50999 0.55252 0.0
C5235 C 0.35947 0.50533 0.56813 0.0
C5236 C 0.36008 0.52407 0.54476 0.0
C5237 C 0.37236 0.53412 0.55271 0.0
C5238 C 0.37814 0.52929 0.56844 0.0
C5239 C 0.37206 0.51491 0.57584 0.0
H5240 H 0.17675 0.65149 0.27521 0.0
H5241 H 0.16111 0.64671 0.32559 0.0
H5242 H 0.20634 0.64979 0.28406 0.0
H5243 H 0.19034 0.64412 0.33434 0.0
H5244 H 0.24344 0.64235 0.34949 0.0
H5245 H 0.21714 0.6544 0.33892 0.0
H5246 H 0.22469 0.6285 0.2928 0.0
H5247 H 0.25158 0.61739 0.30329 0.0
C5248 C 0.17964 0.65034 0.2882 0.0
C5249 C 0.1666 0.6491 0.29969 0.0
C5250 C 0.1966 0.6492 0.29327 0.0
C5251 C 0.20084 0.64654 0.3099 0.0
C5252 C 0.18773 0.6464 0.32146 0.0
C5253 C 0.17085 0.64781 0.31642 0.0
C5254 C 0.23953 0.63951 0.33702 0.0
C5255 C 0.24926 0.6288 0.32725 0.0
C5256 C 0.22443 0.64634 0.33095 0.0
C5257 C 0.21848 0.64217 0.3151 0.0
C5258 C 0.22885 0.63217 0.305 0.0
C5259 C 0.24421 0.62569 0.31099 0.0
H5260 H 0.32875 0.34204 0.79853 0.0
H5261 H 0.31393 0.3711 0.75611 0.0
H5262 H 0.30152 0.34824 0.81106 0.0
H5263 H 0.28743 0.3784 0.76894 0.0
H5264 H 0.23547 0.38158 0.79134 0.0
H5265 H 0.26083 0.37162 0.77731 0.0
H5266 H 0.28756 0.36947 0.82405 0.0
H5267 H 0.26198 0.3782 0.83775 0.0
C5268 C 0.31964 0.34972 0.79191 0.0
C5269 C 0.32338 0.35597 0.77634 0.0
C5270 C 0.30408 0.35349 0.79912 0.0
C5271 C 0.29219 0.36404 0.79115 0.0
C5272 C 0.29597 0.36999 0.7754 0.0
C5273 C 0.31127 0.36585 0.76804 0.0
C5274 C 0.24684 0.37892 0.79848 0.0
C5275 C 0.24683 0.3805 0.81561 0.0
C5276 C 0.26142 0.37326 0.7905 0.0
C5277 C 0.27638 0.36953 0.7995 0.0
C5278 C 0.27628 0.37161 0.81665 0.0
C5279 C 0.26164 0.37681 0.82456 0.0
H5280 H 0.93589 0.84253 0.50301 0.0
H5281 H 0.90069 0.88357 0.50862 0.0
H5282 H 0.94981 0.85039 0.52894 0.0
H5283 H 0.91451 0.89144 0.53442 0.0
H5284 H 0.93417 0.89066 0.58827 0.0
H5285 H 0.91935 0.88247 0.5629 0.0
H5286 H 0.96736 0.87283 0.53985 0.0
H5287 H 0.98207 0.88078 0.56496 0.0
C5288 C 0.93114 0.85322 0.50978 0.0
C5289 C 0.91719 0.8624 0.50378 0.0
C5290 C 0.93913 0.85778 0.52461 0.0
C5291 C 0.9333 0.87159 0.53382 0.0
C5292 C 0.91922 0.88063 0.52782 0.0
C5293 C 0.91134 0.87615 0.51297 0.0
C5294 C 0.94155 0.8869 0.57775 0.0
C5295 C 0.95934 0.88639 0.57877 0.0
C5296 C 0.93306 0.88221 0.56319 0.0
C5297 C 0.94215 0.87681 0.54933 0.0
C5298 C 0.95991 0.87657 0.55032 0.0
C5299 C 0.96837 0.8813 0.56477 0.0
H5300 H 0.84802 0.17599 0.33809 0.0
H5301 H 0.86022 0.22406 0.31737 0.0
H5302 H 0.85093 0.16315 0.31097 0.0
H5303 H 0.86308 0.21121 0.29049 0.0
H5304 H 0.89067 0.17734 0.25287 0.0
H5305 H 0.88448 0.19112 0.27896 0.0
H5306 H 0.83794 0.1634 0.28222 0.0
H5307 H 0.84405 0.14975 0.25604 0.0
C5308 C 0.85107 0.18385 0.32776 0.0
C5309 C 0.85402 0.20102 0.32995 0.0
C5310 C 0.85271 0.17651 0.31224 0.0
C5311 C 0.85741 0.18619 0.2987 0.0
C5312 C 0.85971 0.20342 0.30078 0.0
C5313 C 0.85798 0.21077 0.3162 0.0
C5314 C 0.87904 0.17435 0.25909 0.0
C5315 C 0.86787 0.16247 0.25253 0.0
C5316 C 0.87548 0.18223 0.27398 0.0
C5317 C 0.86074 0.17828 0.2826 0.0
C5318 C 0.84945 0.16655 0.2759 0.0
C5319 C 0.85293 0.15882 0.26091 0.0
H5320 H 0.56774 0.10102 0.0038 0.0
H5321 H 0.56727 0.15457 -0.00244 0.0
H5322 H 0.5479 0.10367 0.02612 0.0
H5323 H 0.54764 0.15735 0.02061 0.0
H5324 H 0.54544 0.14564 0.07952 0.0
H5325 H 0.55475 0.14985 0.05137 0.0
H5326 H 0.51823 0.1137 0.03413 0.0
H5327 H 0.50895 0.10943 0.06228 0.0
C5328 C 0.56318 0.11338 0.00709 0.0
C5329 C 0.56929 0.12766 -0.0007 0.0
C5330 C 0.55169 0.11488 0.01976 0.0
C5331 C 0.54628 0.13072 0.02504 0.0
C5332 C 0.55168 0.14502 0.0167 0.0
C5333 C 0.56296 0.14345 0.00368 0.0
C5334 C 0.53912 0.13894 0.06964 0.0
C5335 C 0.52682 0.12692 0.07299 0.0
C5336 C 0.5443 0.14149 0.05355 0.0
C5337 C 0.53726 0.13198 0.04069 0.0
C5338 C 0.52387 0.12109 0.04391 0.0
C5339 C 0.51866 0.11859 0.05998 0.0
H5340 H 0.62759 0.7528 0.81553 0.0
H5341 H 0.64706 0.79833 0.83713 0.0
H5342 H 0.6285 0.76549 0.78843 0.0
H5343 H 0.64823 0.81085 0.80998 0.0
H5344 H 0.61747 0.83369 0.76677 0.0
H5345 H 0.62439 0.81998 0.79249 0.0
H5346 H 0.64552 0.77805 0.76596 0.0
H5347 H 0.63846 0.79199 0.73987 0.0
C5348 C 0.63242 0.76537 0.81449 0.0
C5349 C 0.63696 0.77466 0.82854 0.0
C5350 C 0.63305 0.7726 0.79891 0.0
C5351 C 0.63821 0.78924 0.79712 0.0
C5352 C 0.64391 0.79809 0.81104 0.0
C5353 C 0.64329 0.79088 0.8266 0.0
C5354 C 0.62376 0.82163 0.76638 0.0
C5355 C 0.62737 0.81384 0.75135 0.0
C5356 C 0.62787 0.81382 0.78115 0.0
C5357 C 0.63561 0.79797 0.78126 0.0
C5358 C 0.63952 0.79025 0.76621 0.0
C5359 C 0.63551 0.7982 0.75133 0.0
H5360 H 0.94517 0.12492 0.9061 0.0
H5361 H 0.98613 0.09346 0.92374 0.0
H5362 H 0.93393 0.12658 0.93398 0.0
H5363 H 0.97457 0.09477 0.95151 0.0
H5364 H 0.932 0.08955 0.99302 0.0
H5365 H 0.94306 0.08636 0.96519 0.0
H5366 H 0.95027 0.13965 0.96244 0.0
H5367 H 0.93968 0.14283 0.99051 0.0
C5368 C 0.95151 0.11803 0.91584 0.0
C5369 C 0.96646 0.10898 0.91279 0.0
C5370 C 0.94519 0.11913 0.93177 0.0
C5371 C 0.95351 0.1109 0.94479 0.0
C5372 C 0.96799 0.10122 0.94162 0.0
C5373 C 0.97455 0.10045 0.92578 0.0
C5374 C 0.93622 0.10053 0.98654 0.0
C5375 C 0.93521 0.1164 0.9939 0.0
C5376 C 0.94246 0.0987 0.97066 0.0
C5377 C 0.94738 0.11277 0.96175 0.0
C5378 C 0.94644 0.12865 0.96911 0.0
C5379 C 0.94057 0.13044 0.98517 0.0
H5380 H 0.63615 0.15792 0.74603 0.0
H5381 H 0.58797 0.18232 0.75392 0.0
H5382 H 0.63728 0.16993 0.71863 0.0
H5383 H 0.58933 0.19486 0.72664 0.0
H5384 H 0.58963 0.19755 0.67003 0.0
H5385 H 0.58791 0.18603 0.69771 0.0
H5386 H 0.64079 0.19723 0.70608 0.0
H5387 H 0.64257 0.20834 0.67834 0.0
C5388 C 0.62583 0.1659 0.74187 0.0
C5389 C 0.61193 0.16916 0.75194 0.0
C5390 C 0.62654 0.17288 0.72628 0.0
C5391 C 0.6134 0.18335 0.72055 0.0
C5392 C 0.59953 0.18669 0.7307 0.0
C5393 C 0.5988 0.17963 0.74631 0.0
C5394 C 0.60084 0.19755 0.67785 0.0
C5395 C 0.61624 0.20373 0.67215 0.0
C5396 C 0.59984 0.19107 0.69368 0.0
C5397 C 0.61424 0.19071 0.704 0.0
C5398 C 0.62957 0.19712 0.6983 0.0
C5399 C 0.63057 0.20355 0.68248 0.0
H5400 H 0.56571 0.88538 0.49781 0.0
H5401 H 0.60601 0.85754 0.47472 0.0
H5402 H 0.55217 0.88964 0.47076 0.0
H5403 H 0.59282 0.86199 0.44799 0.0
H5404 H 0.55475 0.85658 0.406 0.0
H5405 H 0.5667 0.85258 0.43351 0.0
H5406 H 0.55857 0.90492 0.44423 0.0
H5407 H 0.54648 0.90889 0.41667 0.0
C5408 C 0.57163 0.88023 0.48697 0.0
C5409 C 0.5869 0.87126 0.48827 0.0
C5410 C 0.56399 0.88272 0.47156 0.0
C5411 C 0.57146 0.87609 0.45733 0.0
C5412 C 0.58668 0.86706 0.45875 0.0
C5413 C 0.5943 0.86466 0.47405 0.0
C5414 C 0.55555 0.86722 0.41424 0.0
C5415 C 0.54982 0.88304 0.40926 0.0
C5416 C 0.56239 0.86495 0.42994 0.0
C5417 C 0.56354 0.87846 0.44096 0.0
C5418 C 0.55766 0.89428 0.43601 0.0
C5419 C 0.5509 0.89657 0.42024 0.0
H5420 H 0.82588 0.78417 0.15434 0.0
H5421 H 0.87828 0.76938 0.15176 0.0
H5422 H 0.83041 0.79411 0.18239 0.0
H5423 H 0.88348 0.78057 0.17917 0.0
H5424 H 0.88733 0.79082 0.23364 0.0
H5425 H 0.88154 0.77845 0.20672 0.0
H5426 H 0.84048 0.81389 0.19928 0.0
H5427 H 0.84527 0.82477 0.22663 0.0
C5428 C 0.83845 0.78334 0.15977 0.0
C5429 C 0.85172 0.77605 0.15098 0.0
C5430 C 0.84118 0.78916 0.17586 0.0
C5431 C 0.85742 0.78833 0.18337 0.0
C5432 C 0.87071 0.78117 0.17425 0.0
C5433 C 0.86781 0.7749 0.15839 0.0
C5434 C 0.87696 0.79575 0.22626 0.0
C5435 C 0.8669 0.80889 0.23221 0.0
C5436 C 0.87371 0.78882 0.21065 0.0
C5437 C 0.86055 0.79514 0.20042 0.0
C5438 C 0.85049 0.80828 0.20662 0.0
C5439 C 0.85343 0.81479 0.22234 0.0
H5440 H 0.52443 0.89796 0.84257 0.0
H5441 H 0.50685 0.92259 0.88632 0.0
H5442 H 0.55148 0.91281 0.84507 0.0
H5443 H 0.53363 0.93718 0.88908 0.0
H5444 H 0.57932 0.96977 0.88462 0.0
H5445 H 0.55195 0.9577 0.87828 0.0
H5446 H 0.57638 0.9117 0.86343 0.0
H5447 H 0.60408 0.92408 0.86933 0.0
C5448 C 0.52612 0.90707 0.85231 0.0
C5449 C 0.51344 0.90953 0.864 0.0
C5450 C 0.54171 0.91531 0.85397 0.0
C5451 C 0.54484 0.92613 0.86736 0.0
C5452 C 0.53169 0.92916 0.8785 0.0
C5453 C 0.51626 0.92089 0.87688 0.0
C5454 C 0.57895 0.95704 0.88008 0.0
C5455 C 0.59398 0.94786 0.87767 0.0
C5456 C 0.56317 0.95009 0.87644 0.0
C5457 C 0.56186 0.9337 0.87033 0.0
C5458 C 0.57689 0.92445 0.86791 0.0
C5459 C 0.59277 0.93145 0.87154 0.0
H5460 H 0.82279 0.85145 0.64263 0.0
H5461 H 0.77526 0.82494 0.64202 0.0
H5462 H 0.83748 0.82575 0.6347 0.0
H5463 H 0.78998 0.79943 0.63404 0.0
H5464 H 0.81902 0.76481 0.59871 0.0
H5465 H 0.8053 0.79068 0.60792 0.0
H5466 H 0.84368 0.79643 0.64574 0.0
H5467 H 0.85724 0.77057 0.63669 0.0
C5468 C 0.81552 0.84012 0.64109 0.0
C5469 C 0.79784 0.84027 0.64292 0.0
C5470 C 0.82393 0.82544 0.63651 0.0
C5471 C 0.81479 0.81072 0.63353 0.0
C5472 C 0.79726 0.81071 0.63598 0.0
C5473 C 0.78887 0.8253 0.64071 0.0
C5474 C 0.82453 0.77167 0.60892 0.0
C5475 C 0.83915 0.76574 0.617 0.0
C5476 C 0.81666 0.78638 0.61424 0.0
C5477 C 0.82342 0.79545 0.62759 0.0
C5478 C 0.83828 0.78971 0.63537 0.0
C5479 C 0.84601 0.77492 0.63019 0.0
H5480 H 0.89609 0.05188 0.38533 0.0
H5481 H 0.91635 0.00158 0.38306 0.0
H5482 H 0.92463 0.06285 0.38649 0.0
H5483 H 0.94501 0.01261 0.38467 0.0
H5484 H 0.98985 0.04218 0.36152 0.0
H5485 H 0.96324 0.02776 0.36652 0.0
H5486 H 0.95011 0.06525 0.40266 0.0
H5487 H 0.97664 0.07966 0.39732 0.0
C5488 C 0.90663 0.04313 0.38535 0.0
C5489 C 0.90394 0.02586 0.38396 0.0
C5490 C 0.92302 0.04943 0.38615 0.0
C5491 C 0.93711 0.0386 0.38569 0.0
C5492 C 0.93442 0.02128 0.38486 0.0
C5493 C 0.91799 0.01497 0.38398 0.0
C5494 C 0.9814 0.04701 0.3708 0.0
C5495 C 0.9849 0.06212 0.37882 0.0
C5496 C 0.96619 0.03879 0.3737 0.0
C5497 C 0.95441 0.04555 0.38478 0.0
C5498 C 0.95871 0.05999 0.39374 0.0
C5499 C 0.97382 0.06824 0.39071 0.0
H5500 H 0.65306 0.22685 0.10668 0.0
H5501 H 0.69555 0.24975 0.13164 0.0
H5502 H 0.66419 0.19936 0.11332 0.0
H5503 H 0.70696 0.2219 0.13826 0.0
H5504 H 0.72955 0.1695 0.12195 0.0
H5505 H 0.71893 0.19813 0.12202 0.0
H5506 H 0.66982 0.18067 0.13673 0.0
H5507 H 0.68028 0.15198 0.1364 0.0
C5508 C 0.66464 0.22598 0.11388 0.0
C5509 C 0.67336 0.24039 0.11882 0.0
C5510 C 0.67101 0.21022 0.11772 0.0
C5511 C 0.68634 0.20849 0.12648 0.0
C5512 C 0.69511 0.22291 0.13149 0.0
C5513 C 0.68862 0.23879 0.12772 0.0
C5514 C 0.71655 0.17176 0.12544 0.0
C5515 C 0.70567 0.15842 0.12888 0.0
C5516 C 0.71052 0.18819 0.1256 0.0
C5517 C 0.69351 0.19158 0.1292 0.0
C5518 C 0.68293 0.17836 0.13365 0.0
C5519 C 0.68895 0.16193 0.13349 0.0
H5520 H 0.49984 0.05105 0.62542 0.0
H5521 H 0.52066 0.08982 0.65654 0.0
H5522 H 0.52764 0.03783 0.62391 0.0
H5523 H 0.54846 0.07641 0.6553 0.0
H5524 H 0.59649 0.0642 0.62559 0.0
H5525 H 0.5684 0.07452 0.63255 0.0
H5526 H 0.55107 0.02379 0.63801 0.0
H5527 H 0.57901 0.01341 0.63072 0.0
C5528 C 0.51026 0.05646 0.63233 0.0
C5529 C 0.50821 0.07159 0.64084 0.0
C5530 C 0.52619 0.04888 0.63149 0.0
C5531 C 0.54029 0.0563 0.63921 0.0
C5532 C 0.53789 0.07066 0.64891 0.0
C5533 C 0.52196 0.07823 0.64973 0.0
C5534 C 0.58669 0.05524 0.62824 0.0
C5535 C 0.58995 0.03799 0.62744 0.0
C5536 C 0.57065 0.06116 0.63243 0.0
C5537 C 0.55757 0.04995 0.63593 0.0
C5538 C 0.56087 0.03271 0.63527 0.0
C5539 C 0.57689 0.02679 0.63107 0.0
H5540 H 0.67857 0.84311 0.34803 0.0
H5541 H 0.73027 0.82645 0.35578 0.0
H5542 H 0.6685 0.81578 0.35588 0.0
H5543 H 0.72011 0.79884 0.36325 0.0
H5544 H 0.69388 0.76116 0.39751 0.0
H5545 H 0.7054 0.78706 0.38657 0.0
H5546 H 0.66708 0.78691 0.34816 0.0
H5547 H 0.65534 0.76144 0.35939 0.0
C5548 C 0.68783 0.83352 0.35107 0.0
C5549 C 0.70523 0.83703 0.3514 0.0
C5550 C 0.68203 0.8178 0.35553 0.0
C5551 C 0.69351 0.80518 0.36033 0.0
C5552 C 0.71096 0.80842 0.3599 0.0
C5553 C 0.71677 0.82419 0.35548 0.0
C5554 C 0.68799 0.7667 0.38672 0.0
C5555 C 0.67372 0.75939 0.37932 0.0
C5556 C 0.69465 0.78142 0.38036 0.0
C5557 C 0.68716 0.78902 0.36647 0.0
C5558 C 0.67301 0.78149 0.35898 0.0
C5559 C 0.66633 0.76687 0.36538 0.0
H5560 H 0.8891 0.92134 0.10492 0.0
H5561 H 0.91012 0.97075 0.10033 0.0
H5562 H 0.91756 0.90966 0.10743 0.0
H5563 H 0.93861 0.95906 0.10234 0.0
H5564 H 0.98367 0.93382 0.13076 0.0
H5565 H 0.95674 0.94721 0.12306 0.0
H5566 H 0.94341 0.9038 0.094 0.0
H5567 H 0.96997 0.89057 0.1021 0.0
C5568 C 0.89981 0.92965 0.10405 0.0
C5569 C 0.89736 0.94695 0.10252 0.0
C5570 C 0.91616 0.92297 0.10545 0.0
C5571 C 0.93043 0.93344 0.10518 0.0
C5572 C 0.92794 0.95068 0.10292 0.0
C5573 C 0.91159 0.95735 0.10165 0.0
C5574 C 0.97507 0.92739 0.12245 0.0
C5575 C 0.97866 0.91106 0.11723 0.0
C5576 C 0.95965 0.93501 0.11802 0.0
C5577 C 0.94771 0.92644 0.10814 0.0
C5578 C 0.95202 0.91058 0.10201 0.0
C5579 C 0.96727 0.90298 0.1066 0.0
H5580 H 0.82342 0.24595 0.87018 0.0
H5581 H 0.86238 0.22277 0.89998 0.0
H5582 H 0.80769 0.21983 0.86955 0.0
H5583 H 0.84668 0.19646 0.89949 0.0
H5584 H 0.82682 0.14878 0.87263 0.0
H5585 H 0.84083 0.17552 0.87771 0.0
H5586 H 0.79217 0.19918 0.88494 0.0
H5587 H 0.77822 0.17273 0.8796 0.0
C5588 C 0.82819 0.23543 0.87723 0.0
C5589 C 0.84383 0.23644 0.88548 0.0
C5590 C 0.81929 0.2204 0.87676 0.0
C5591 C 0.82601 0.20597 0.88432 0.0
C5592 C 0.84126 0.20728 0.89336 0.0
C5593 C 0.8501 0.2224 0.89392 0.0
C5594 C 0.81913 0.15972 0.87517 0.0
C5595 C 0.80139 0.15859 0.87556 0.0
C5596 C 0.82716 0.175 0.87831 0.0
C5597 C 0.81762 0.1895 0.88183 0.0
C5598 C 0.7999 0.18832 0.88217 0.0
C5599 C 0.79191 0.17309 0.87911 0.0
H5600 H 0.88322 0.58609 0.92768 0.0
H5601 H 0.87375 0.56291 0.97447 0.0
H5602 H 0.87809 0.55955 0.91385 0.0
H5603 H 0.86895 0.53627 0.96064 0.0
H5604 H 0.84145 0.49702 0.92872 0.0
H5605 H 0.84799 0.52317 0.94299 0.0
H5606 H 0.88904 0.53173 0.90959 0.0
H5607 H 0.88229 0.50576 0.89524 0.0
C5608 C 0.88029 0.5753 0.93507 0.0
C5609 C 0.87887 0.57673 0.95223 0.0
C5610 C 0.87738 0.56001 0.92712 0.0
C5611 C 0.87298 0.54572 0.93608 0.0
C5612 C 0.87201 0.54705 0.95329 0.0
C5613 C 0.87493 0.56234 0.96125 0.0
C5614 C 0.85187 0.5045 0.92447 0.0
C5615 C 0.86133 0.49935 0.91086 0.0
C5616 C 0.85571 0.51944 0.93271 0.0
C5617 C 0.86909 0.52961 0.9275 0.0
C5618 C 0.87854 0.52437 0.91385 0.0
C5619 C 0.87471 0.50943 0.90566 0.0
H5620 H 0.38815 0.93047 0.02038 0.0
H5621 H 0.3641 0.91022 0.0632 0.0
H5622 H 0.38368 0.9589 0.03112 0.0
H5623 H 0.3599 0.9384 0.07394 0.0
H5624 H 0.37511 0.98772 0.09689 0.0
H5625 H 0.38166 0.9611 0.08361 0.0
H5626 H 0.35694 0.97835 0.03914 0.0
H5627 H 0.34978 0.00488 0.0529 0.0
C5628 C 0.3819 0.93212 0.03203 0.0
C5629 C 0.37652 0.91823 0.04102 0.0
C5630 C 0.37931 0.94832 0.03812 0.0
C5631 C 0.3716 0.95074 0.05339 0.0
C5632 C 0.36607 0.93682 0.06222 0.0
C5633 C 0.3684 0.92073 0.05605 0.0
C5634 C 0.37087 0.98566 0.08441 0.0
C5635 C 0.36135 -0.00212 0.07614 0.0
C5636 C 0.3748 0.97059 0.07674 0.0
C5637 C 0.36948 0.96761 0.0605 0.0
C5638 C 0.36109 0.98038 0.05172 0.0
C5639 C 0.35703 0.99549 0.05953 0.0
H5640 H 0.75714 0.58343 0.81623 0.0
H5641 H 0.74041 0.63367 0.82724 0.0
H5642 H 0.78333 0.5947 0.8046 0.0
H5643 H 0.76612 0.64482 0.81524 0.0
H5644 H 0.80735 0.6531 0.77332 0.0
H5645 H 0.78064 0.6423 0.78389 0.0
H5646 H 0.80824 0.6146 0.82101 0.0
H5647 H 0.83486 0.62573 0.8109 0.0
C5648 C 0.75894 0.59682 0.81585 0.0
C5649 C 0.74687 0.60771 0.82257 0.0
C5650 C 0.77386 0.60324 0.80934 0.0
C5651 C 0.77659 0.62058 0.80911 0.0
C5652 C 0.76421 0.63142 0.81527 0.0
C5653 C 0.74957 0.62503 0.82212 0.0
C5654 C 0.80766 0.64496 0.78393 0.0
C5655 C 0.82314 0.64037 0.79138 0.0
C5656 C 0.79245 0.63872 0.78986 0.0
C5657 C 0.79256 0.62746 0.80303 0.0
C5658 C 0.80795 0.62311 0.81069 0.0
C5659 C 0.82311 0.62967 0.80503 0.0
H5660 H 0.11185 0.09846 0.56689 0.0
H5661 H 0.1157 0.07152 0.52092 0.0
H5662 H 0.12145 0.07351 0.58162 0.0
H5663 H 0.12533 0.04676 0.53568 0.0
H5664 H 0.16112 0.01329 0.56666 0.0
H5665 H 0.15195 0.03903 0.55275 0.0
H5666 H 0.11034 0.04397 0.58633 0.0
H5667 H 0.11925 0.01832 0.59996 0.0
C5668 C 0.11452 0.08719 0.55996 0.0
C5669 C 0.11296 0.08695 0.54276 0.0
C5670 C 0.12007 0.07297 0.56838 0.0
C5671 C 0.12431 0.05836 0.55972 0.0
C5672 C 0.1224 0.05799 0.54259 0.0
C5673 C 0.11669 0.07212 0.53418 0.0
C5674 C 0.15011 0.01998 0.57108 0.0
C5675 C 0.14091 0.01389 0.58435 0.0
C5676 C 0.14483 0.0346 0.56313 0.0
C5677 C 0.13044 0.04339 0.56851 0.0
C5678 C 0.12155 0.03749 0.58206 0.0
C5679 C 0.12667 0.02282 0.58983 0.0
H5680 H 0.23561 0.86379 0.85028 0.0
H5681 H 0.24668 0.90648 0.82013 0.0
H5682 H 0.20928 0.85948 0.83515 0.0
H5683 H 0.2202 0.90188 0.80455 0.0
H5684 H 0.15524 0.86724 0.81435 0.0
H5685 H 0.18093 0.8736 0.83025 0.0
H5686 H 0.20866 0.8792 0.78533 0.0
H5687 H 0.18316 0.87274 0.76944 0.0
C5688 C 0.23234 0.87239 0.8405 0.0
C5689 C 0.24319 0.88559 0.83651 0.0
C5690 C 0.2172 0.8699 0.83183 0.0
C5691 C 0.2126 0.88035 0.81869 0.0
C5692 C 0.22345 0.89357 0.8146 0.0
C5693 C 0.23856 0.89625 0.82352 0.0
C5694 C 0.16683 0.86971 0.80786 0.0
C5695 C 0.16713 0.86927 0.7906 0.0
C5696 C 0.18154 0.87339 0.81697 0.0
C5697 C 0.19681 0.87698 0.80903 0.0
C5698 C 0.19707 0.87668 0.7918 0.0
C5699 C 0.18245 0.87278 0.78271 0.0
H5700 H 0.60203 0.4094 0.42312 0.0
H5701 H 0.5998 0.43363 0.47062 0.0
H5702 H 0.61253 0.43512 0.41118 0.0
H5703 H 0.61022 0.45934 0.45858 0.0
H5704 H 0.61672 0.48887 0.39328 0.0
H5705 H 0.60391 0.46436 0.40529 0.0
H5706 H 0.63824 0.46791 0.44687 0.0
H5707 H 0.65114 0.49271 0.43476 0.0
C5708 C 0.60342 0.42029 0.43095 0.0
C5709 C 0.60014 0.41943 0.44783 0.0
C5710 C 0.60948 0.43501 0.42411 0.0
C5711 C 0.61241 0.44912 0.43403 0.0
C5712 C 0.60836 0.44853 0.45073 0.0
C5713 C 0.60221 0.43384 0.45756 0.0
C5714 C 0.6216 0.48442 0.40496 0.0
C5715 C 0.63497 0.49263 0.4131 0.0
C5716 C 0.61426 0.47036 0.41181 0.0
C5717 C 0.62006 0.46426 0.427 0.0
C5718 C 0.6334 0.4725 0.43521 0.0
C5719 C 0.64086 0.48657 0.42827 0.0
H5720 H 0.73586 0.37722 0.68135 0.0
H5721 H 0.75046 0.35713 0.63447 0.0
H5722 H 0.76214 0.36668 0.69369 0.0
H5723 H 0.77665 0.34613 0.64666 0.0
H5724 H 0.83021 0.35375 0.66876 0.0
H5725 H 0.80243 0.35747 0.65629 0.0
H5726 H 0.77915 0.34365 0.70199 0.0
H5727 H 0.8071 0.34057 0.7147 0.0
C5728 C 0.74467 0.37032 0.67377 0.0
C5729 C 0.74156 0.36839 0.6569 0.0
C5730 C 0.75966 0.36415 0.68081 0.0
C5731 C 0.77166 0.3557 0.67113 0.0
C5732 C 0.76794 0.35297 0.65439 0.0
C5733 C 0.75305 0.35935 0.64735 0.0
C5734 C 0.81919 0.35118 0.67609 0.0
C5735 C 0.82087 0.34706 0.69279 0.0
C5736 C 0.8032 0.35324 0.66889 0.0
C5737 C 0.7885 0.35105 0.67817 0.0
C5738 C 0.7902 0.34582 0.69459 0.0
C5739 C 0.80623 0.34393 0.70185 0.0
H5740 H 0.72904 0.60457 0.15792 0.0
H5741 H 0.75795 0.63186 0.19434 0.0
H5742 H 0.70287 0.61474 0.16983 0.0
H5743 H 0.73163 0.64256 0.20612 0.0
H5744 H 0.68139 0.63842 0.23435 0.0
H5745 H 0.7084 0.63261 0.22164 0.0
H5746 H 0.68517 0.63859 0.17364 0.0
H5747 H 0.65788 0.64383 0.18641 0.0
C5748 C 0.72977 0.61291 0.16842 0.0
C5749 C 0.74548 0.61738 0.17529 0.0
C5750 C 0.71475 0.61888 0.17516 0.0
C5751 C 0.71509 0.62956 0.1889 0.0
C5752 C 0.7309 0.6342 0.19565 0.0
C5753 C 0.74596 0.62812 0.18893 0.0
C5754 C 0.68203 0.63871 0.22108 0.0
C5755 C 0.6674 0.64142 0.21139 0.0
C5756 C 0.69761 0.63547 0.21378 0.0
C5757 C 0.69897 0.63497 0.1966 0.0
C5758 C 0.6845 0.63853 0.18691 0.0
C5759 C 0.66887 0.64166 0.19423 0.0
H5760 H 0.55414 0.64865 0.98968 0.0
H5761 H 0.58666 0.60524 0.98637 0.0
H5762 H 0.54026 0.64065 0.96371 0.0
H5763 H 0.57301 0.59734 0.96051 0.0
H5764 H 0.55667 0.59923 0.90565 0.0
H5765 H 0.57043 0.60675 0.93171 0.0
H5766 H 0.52171 0.61857 0.95231 0.0
H5767 H 0.50797 0.61115 0.92642 0.0
C5768 C 0.55829 0.6374 0.98343 0.0
C5769 C 0.57155 0.62765 0.99003 0.0
C5770 C 0.55033 0.63278 0.96858 0.0
C5771 C 0.55556 0.61836 0.95995 0.0
C5772 C 0.5688 0.60862 0.96666 0.0
C5773 C 0.57659 0.61314 0.98154 0.0
C5774 C 0.54887 0.60328 0.91577 0.0
C5775 C 0.53118 0.60453 0.91384 0.0
C5776 C 0.55676 0.60759 0.93074 0.0
C5777 C 0.54719 0.6134 0.94411 0.0
C5778 C 0.52951 0.61441 0.94223 0.0
C5779 C 0.52161 0.60999 0.92736 0.0
H5780 H 0.65671 0.33584 0.23555 0.0
H5781 H 0.60694 0.31397 0.23692 0.0
H5782 H 0.66232 0.32114 0.20984 0.0
H5783 H 0.61247 0.29934 0.21116 0.0
H5784 H 0.65341 0.31274 0.15394 0.0
H5785 H 0.6512 0.32405 0.18158 0.0
H5786 H 0.63016 0.27748 0.19814 0.0
H5787 H 0.63213 0.26615 0.17037 0.0
C5788 C 0.64704 0.32775 0.23042 0.0
C5789 C 0.63135 0.32612 0.2381 0.0
C5790 C 0.65023 0.3194 0.21569 0.0
C5791 C 0.6378 0.30917 0.20845 0.0
C5792 C 0.62236 0.30701 0.21653 0.0
C5793 C 0.61916 0.31543 0.23123 0.0
C5794 C 0.64846 0.30482 0.16348 0.0
C5795 C 0.64283 0.28857 0.1599 0.0
C5796 C 0.6473 0.31128 0.17936 0.0
C5797 C 0.64046 0.30167 0.19201 0.0
C5798 C 0.63531 0.28524 0.18858 0.0
C5799 C 0.63653 0.27873 0.17269 0.0
H5800 H 0.97833 0.39066 0.43035 0.0
H5801 H 0.94897 0.34838 0.41373 0.0
H5802 H 0.96829 0.38658 0.45819 0.0
H5803 H 0.93852 0.34455 0.44165 0.0
H5804 H 0.9257 0.3416 0.49664 0.0
H5805 H 0.94491 0.33982 0.4731 0.0
H5806 H 0.93782 0.39272 0.46473 0.0
H5807 H 0.91862 0.39434 0.48748 0.0
C5808 C 0.96988 0.38037 0.43273 0.0
C5809 C 0.964 0.37009 0.41995 0.0
C5810 C 0.96427 0.37796 0.44864 0.0
C5811 C 0.95252 0.36539 0.45194 0.0
C5812 C 0.94769 0.35425 0.4394 0.0
C5813 C 0.95346 0.35657 0.42345 0.0
C5814 C 0.92836 0.35275 0.48971 0.0
C5815 C 0.92045 0.368 0.49356 0.0
C5816 C 0.93937 0.35177 0.4764 0.0
C5817 C 0.94286 0.36615 0.46724 0.0
C5818 C 0.93558 0.38149 0.47174 0.0
C5819 C 0.92445 0.38238 0.48471 0.0
H5820 H 0.85886 0.68947 0.65433 0.0
H5821 H 0.87455 0.73713 0.67432 0.0
H5822 H 0.85946 0.67761 0.68187 0.0
H5823 H 0.87499 0.72525 0.70182 0.0
H5824 H 0.84779 0.66658 0.73568 0.0
H5825 H 0.84485 0.67987 0.70881 0.0
H5826 H 0.893 0.70415 0.71638 0.0
H5827 H 0.89593 0.69084 0.74324 0.0
C5828 C 0.86226 0.69747 0.66459 0.0
C5829 C 0.86671 0.71423 0.66212 0.0
C5830 C 0.86252 0.69068 0.68037 0.0
C5831 C 0.86734 0.7005 0.69396 0.0
C5832 C 0.87142 0.71735 0.69154 0.0
C5833 C 0.87107 0.72416 0.67578 0.0
C5834 C 0.8577 0.6748 0.7316 0.0
C5835 C 0.87212 0.67765 0.74144 0.0
C5836 C 0.85604 0.68235 0.71623 0.0
C5837 C 0.8687 0.69301 0.71052 0.0
C5838 C 0.88296 0.69613 0.72055 0.0
C5839 C 0.88468 0.68847 0.73587 0.0
H5840 H 0.51108 0.39485 0.56355 0.0
H5841 H 0.55238 0.36641 0.58507 0.0
H5842 H 0.5241 0.39229 0.53656 0.0
H5843 H 0.56505 0.36337 0.55786 0.0
H5844 H 0.56191 0.34418 0.50121 0.0
H5845 H 0.55076 0.34808 0.52902 0.0
H5846 H 0.55588 0.40146 0.52419 0.0
H5847 H 0.56748 0.39758 0.49668 0.0
C5848 C 0.523 0.38817 0.56253 0.0
C5849 C 0.5307 0.3808 0.57641 0.0
C5850 C 0.53041 0.3867 0.54711 0.0
C5851 C 0.54543 0.37749 0.5452 0.0
C5852 C 0.55337 0.37041 0.55907 0.0
C5853 C 0.54619 0.37226 0.57461 0.0
C5854 C 0.56054 0.35672 0.50609 0.0
C5855 C 0.56538 0.3706 0.49681 0.0
C5856 C 0.55434 0.35893 0.52199 0.0
C5857 C 0.55255 0.37506 0.52866 0.0
C5858 C 0.55715 0.38892 0.51927 0.0
C5859 C 0.56372 0.38669 0.50357 0.0
H5860 H 0.84991 0.28312 0.81758 0.0
H5861 H 0.90235 0.29748 0.82238 0.0
H5862 H 0.84975 0.2916 0.7889 0.0
H5863 H 0.90207 0.30662 0.79382 0.0
H5864 H 0.90041 0.30866 0.73847 0.0
H5865 H 0.9004 0.29646 0.76591 0.0
H5866 H 0.85041 0.31715 0.77386 0.0
H5867 H 0.85017 0.32859 0.74626 0.0
C5868 C 0.86137 0.28819 0.81247 0.0
C5869 C 0.87612 0.28975 0.82207 0.0
C5870 C 0.86127 0.29309 0.7961 0.0
C5871 C 0.87588 0.29982 0.78913 0.0
C5872 C 0.8907 0.30124 0.79878 0.0
C5873 C 0.89084 0.29616 0.81513 0.0
C5874 C 0.88937 0.31035 0.74605 0.0
C5875 C 0.87535 0.31963 0.74042 0.0
C5876 C 0.88941 0.30352 0.76177 0.0
C5877 C 0.87546 0.30597 0.77207 0.0
C5878 C 0.86126 0.31487 0.76616 0.0
C5879 C 0.86117 0.32154 0.75042 0.0
H5880 H 0.8978 0.59884 0.00819 0.0
H5881 H 0.93641 0.63444 0.99643 0.0
H5882 H 0.91089 0.59441 0.03523 0.0
H5883 H 0.94984 0.62989 0.02335 0.0
H5884 H 0.92553 0.61034 0.08811 0.0
H5885 H 0.91387 0.61215 0.06021 0.0
H5886 H 0.9644 0.60873 0.0407 0.0
H5887 H 0.97602 0.60711 0.06858 0.0
C5888 C 0.90906 0.60575 0.01153 0.0
C5889 C 0.91589 0.6173 0.00065 0.0
C5890 C 0.9166 0.60316 0.02688 0.0
C5891 C 0.9312 0.61202 0.03148 0.0
C5892 C 0.9386 0.62287 0.02011 0.0
C5893 C 0.93098 0.62547 0.00475 0.0
C5894 C 0.93409 0.60995 0.07783 0.0
C5895 C 0.95162 0.60861 0.08041 0.0
C5896 C 0.92745 0.61086 0.0619 0.0
C5897 C 0.93825 0.61051 0.04831 0.0
C5898 C 0.9558 0.60916 0.05095 0.0
C5899 C 0.96243 0.60818 0.06688 0.0
H5900 H 0.59843 0.69022 0.26168 0.0
H5901 H 0.64539 0.66239 0.26416 0.0
H5902 H 0.60357 0.70057 0.28967 0.0
H5903 H 0.65044 0.67251 0.29207 0.0
H5904 H 0.64448 0.68224 0.34826 0.0
H5905 H 0.63897 0.67056 0.32075 0.0
H5906 H 0.62408 0.71948 0.30341 0.0
H5907 H 0.6295 0.73105 0.33042 0.0
C5908 C 0.60986 0.68639 0.26816 0.0
C5909 C 0.6215 0.67553 0.26072 0.0
C5910 C 0.61281 0.69226 0.2842 0.0
C5911 C 0.62741 0.6873 0.29314 0.0
C5912 C 0.63898 0.67639 0.28565 0.0
C5913 C 0.63613 0.6707 0.2696 0.0
C5914 C 0.64013 0.69048 0.33854 0.0
C5915 C 0.63749 0.70759 0.34164 0.0
C5916 C 0.63697 0.68381 0.32279 0.0
C5917 C 0.63091 0.69409 0.30992 0.0
C5918 C 0.62843 0.71115 0.31307 0.0
C5919 C 0.63171 0.7178 0.32863 0.0
H5920 H 0.88766 0.56956 0.61487 0.0
H5921 H 0.90617 0.51877 0.61118 0.0
H5922 H 0.91662 0.5792 0.61967 0.0
H5923 H 0.93495 0.52836 0.61621 0.0
H5924 H 0.9864 0.55508 0.60958 0.0
H5925 H 0.95793 0.54432 0.60442 0.0
H5926 H 0.93824 0.57756 0.64157 0.0
H5927 H 0.96663 0.58836 0.64662 0.0
C5928 C 0.89789 0.56047 0.61489 0.0
C5929 C 0.89453 0.54339 0.61266 0.0
C5930 C 0.91449 0.56597 0.61784 0.0
C5931 C 0.92813 0.55453 0.61853 0.0
C5932 C 0.9248 0.53753 0.61571 0.0
C5933 C 0.90824 0.53204 0.61287 0.0
C5934 C 0.97604 0.55985 0.61686 0.0
C5935 C 0.97879 0.57263 0.62846 0.0
C5936 C 0.9597 0.55373 0.61386 0.0
C5937 C 0.94571 0.56028 0.62237 0.0
C5938 C 0.94863 0.5725 0.63451 0.0
C5939 C 0.96496 0.57855 0.63756 0.0
H5940 H 0.68712 0.65205 0.83369 0.0
H5941 H 0.7038 0.64837 0.88411 0.0
H5942 H 0.67564 0.67991 0.83913 0.0
H5943 H 0.69069 0.67506 0.89031 0.0
H5944 H 0.67857 0.7294 0.89579 0.0
H5945 H 0.69227 0.70301 0.88877 0.0
H5946 H 0.65482 0.69525 0.85015 0.0
H5947 H 0.64288 0.72243 0.85591 0.0
C5948 C 0.68784 0.6571 0.84604 0.0
C5949 C 0.69593 0.64814 0.8586 0.0
C5950 C 0.6812 0.67301 0.84927 0.0
C5951 C 0.68207 0.67992 0.86526 0.0
C5952 C 0.69003 0.67055 0.87778 0.0
C5953 C 0.69721 0.65503 0.87437 0.0
C5954 C 0.67345 0.72202 0.88575 0.0
C5955 C 0.6594 0.7277 0.87667 0.0
C5956 C 0.68114 0.70676 0.88179 0.0
C5957 C 0.67457 0.69665 0.86898 0.0
C5958 C 0.66053 0.70258 0.85991 0.0
C5959 C 0.65332 0.71806 0.86348 0.0
H5960 H 0.60424 0.43569 0.10041 0.0
H5961 H 0.58373 0.48521 0.10887 0.0
H5962 H 0.57564 0.42426 0.10125 0.0
H5963 H 0.55536 0.47376 0.10965 0.0
H5964 H 0.5191 0.41253 0.09229 0.0
H5965 H 0.54658 0.42515 0.08677 0.0
H5966 H 0.54212 0.45515 0.13073 0.0
H5967 H 0.51488 0.44239 0.13635 0.0
C5968 C 0.59365 0.44416 0.10218 0.0
C5969 C 0.59627 0.46132 0.10478 0.0
C5970 C 0.5773 0.43762 0.1026 0.0
C5971 C 0.56338 0.44814 0.10568 0.0
C5972 C 0.56593 0.46537 0.10749 0.0
C5973 C 0.5822 0.4719 0.107 0.0
C5974 C 0.52401 0.42188 0.1007 0.0
C5975 C 0.51503 0.42641 0.11482 0.0
C5976 C 0.53969 0.42905 0.09756 0.0
C5977 C 0.54642 0.44109 0.10833 0.0
C5978 C 0.53712 0.44601 0.12214 0.0
C5979 C 0.52158 0.4387 0.12538 0.0
H5980 H 0.81969 0.34145 0.35944 0.0
H5981 H 0.76838 0.32383 0.36458 0.0
H5982 H 0.83013 0.31275 0.36154 0.0
H5983 H 0.7789 0.29526 0.36665 0.0
H5984 H 0.84025 0.25657 0.35344 0.0
H5985 H 0.829 0.28441 0.3473 0.0
H5986 H 0.79616 0.28119 0.38915 0.0
H5987 H 0.80757 0.25343 0.39541 0.0
C5988 C 0.81063 0.33146 0.36072 0.0
C5989 C 0.79323 0.33493 0.36202 0.0
C5990 C 0.81661 0.31505 0.36189 0.0
C5991 C 0.8053 0.30189 0.36446 0.0
C5992 C 0.78787 0.30526 0.36492 0.0
C5993 C 0.78188 0.32161 0.36364 0.0
C5994 C 0.83068 0.26187 0.36136 0.0
C5995 C 0.82487 0.25301 0.375 0.0
C5996 C 0.82425 0.27774 0.35782 0.0
C5997 C 0.81172 0.28486 0.36774 0.0
C5998 C 0.80568 0.27585 0.3812 0.0
C5999 C 0.81225 0.26005 0.38484 0.0
H6000 H 0.91925 0.47662 0.87404 0.0
H6001 H 0.89892 0.42698 0.86755 0.0
H6002 H 0.94736 0.46614 0.86736 0.0
H6003 H 0.92717 0.4165 0.86103 0.0
H6004 H 0.97744 0.40449 0.8383 0.0
H6005 H 0.94996 0.41893 0.83949 0.0
H6006 H 0.96762 0.447 0.8817 0.0
H6007 H 0.99486 0.43261 0.8804 0.0
C6008 C 0.92078 0.46346 0.87125 0.0
C6009 C 0.9069 0.45258 0.87148 0.0
C6010 C 0.93687 0.4575 0.86737 0.0
C6011 C 0.93939 0.44056 0.86354 0.0
C6012 C 0.92551 0.42968 0.86367 0.0
C6013 C 0.90941 0.43563 0.86766 0.0
C6014 C 0.97561 0.41428 0.84731 0.0
C6015 C 0.9882 0.41774 0.85908 0.0
C6016 C 0.95986 0.42232 0.84819 0.0
C6017 C 0.95666 0.43397 0.86078 0.0
C6018 C 0.96977 0.4382 0.87179 0.0
C6019 C 0.98535 0.43003 0.87104 0.0
H6020 H 0.80686 0.65517 0.15911 0.0
H6021 H 0.75776 0.66808 0.13848 0.0
H6022 H 0.81627 0.68368 0.15478 0.0
H6023 H 0.76735 0.69664 0.13412 0.0
H6024 H 0.83094 0.71685 0.10989 0.0
H6025 H 0.81958 0.69311 0.12429 0.0
H6026 H 0.78161 0.72489 0.14622 0.0
H6027 H 0.79363 0.74921 0.13209 0.0
C6028 C 0.79792 0.66417 0.15406 0.0
C6029 C 0.78174 0.65925 0.14868 0.0
C6030 C 0.8033 0.6805 0.15167 0.0
C6031 C 0.7926 0.69219 0.14388 0.0
C6032 C 0.7758 0.68783 0.14019 0.0
C6033 C 0.77038 0.67144 0.14259 0.0
C6034 C 0.82046 0.71893 0.1181 0.0
C6035 C 0.81335 0.73488 0.12012 0.0
C6036 C 0.81396 0.70532 0.12635 0.0
C6037 C 0.79995 0.70728 0.13659 0.0
C6038 C 0.79257 0.72318 0.13852 0.0
C6039 C 0.79937 0.737 0.13043 0.0
H6040 H 0.60709 0.56714 0.36871 0.0
H6041 H 0.58385 0.52175 0.38567 0.0
H6042 H 0.57888 0.57959 0.36424 0.0
H6043 H 0.55583 0.5344 0.38162 0.0
H6044 H 0.51423 0.57739 0.39186 0.0
H6045 H 0.54245 0.56511 0.39579 0.0
H6046 H 0.55044 0.5668 0.34353 0.0
H6047 H 0.52187 0.57871 0.33946 0.0
C6048 C 0.59598 0.55995 0.37167 0.0
C6049 C 0.59757 0.54352 0.37754 0.0
C6050 C 0.57994 0.56699 0.36898 0.0
C6051 C 0.56538 0.55782 0.37252 0.0
C6052 C 0.56697 0.5416 0.37879 0.0
C6053 C 0.58294 0.53443 0.3811 0.0
C6054 C 0.52195 0.57496 0.3812 0.0
C6055 C 0.51592 0.57877 0.36535 0.0
C6056 C 0.53803 0.56802 0.38347 0.0
C6057 C 0.54845 0.56517 0.36996 0.0
C6058 C 0.54252 0.56902 0.35408 0.0
C6059 C 0.52622 0.57564 0.35177 0.0
H6060 H 0.66642 0.34744 0.62141 0.0
H6061 H 0.71606 0.32572 0.6145 0.0
H6062 H 0.65366 0.3201 0.61677 0.0
H6063 H 0.70326 0.29842 0.60981 0.0
H6064 H 0.67279 0.25091 0.62652 0.0
H6065 H 0.68799 0.27742 0.62627 0.0
H6066 H 0.64893 0.29864 0.59494 0.0
H6067 H 0.63383 0.27199 0.59524 0.0
C6068 C 0.67463 0.33686 0.61891 0.0
C6069 C 0.69229 0.33882 0.61841 0.0
C6070 C 0.66729 0.3212 0.61607 0.0
C6071 C 0.67742 0.30706 0.61279 0.0
C6072 C 0.69509 0.30902 0.61234 0.0
C6073 C 0.70242 0.3247 0.61502 0.0
C6074 C 0.66789 0.26105 0.61901 0.0
C6075 C 0.65241 0.25933 0.61056 0.0
C6076 C 0.6765 0.27628 0.61896 0.0
C6077 C 0.6696 0.29024 0.61072 0.0
C6078 C 0.6545 0.2882 0.60156 0.0
C6079 C 0.64599 0.27289 0.60148 0.0
H6080 H 0.63914 0.00466 0.55753 0.0
H6081 H 0.6273 0.98069 0.60311 0.0
H6082 H 0.63278 0.97888 0.54267 0.0
H6083 H 0.62207 0.95457 0.58874 0.0
H6084 H 0.60201 0.91147 0.5588 0.0
H6085 H 0.60508 0.93857 0.5723 0.0
H6086 H 0.64177 0.9528 0.53603 0.0
H6087 H 0.63773 0.92638 0.5221 0.0
C6088 C 0.63532 0.99377 0.56439 0.0
C6089 C 0.63358 0.9947 0.58148 0.0
C6090 C 0.63177 0.97888 0.55591 0.0
C6091 C 0.62685 0.96435 0.56437 0.0
C6092 C 0.62534 0.9654 0.58157 0.0
C6093 C 0.62847 0.9804 0.58993 0.0
C6094 C 0.61053 0.92053 0.55363 0.0
C6095 C 0.61951 0.91674 0.53931 0.0
C6096 C 0.61248 0.93608 0.56147 0.0
C6097 C 0.62381 0.94811 0.55545 0.0
C6098 C 0.63264 0.94424 0.54099 0.0
C6099 C 0.63039 0.92891 0.53298 0.0
H6100 H 0.11544 0.4946 0.40671 0.0
H6101 H 0.15272 0.48417 0.44451 0.0
H6102 H 0.10657 0.5197 0.42133 0.0
H6103 H 0.14385 0.50945 0.45936 0.0
H6104 H 0.14281 0.56855 0.45894 0.0
H6105 H 0.14795 0.53961 0.45069 0.0
H6106 H 0.09403 0.5314 0.44727 0.0
H6107 H 0.08889 0.56041 0.45552 0.0
C6108 C 0.12135 0.49746 0.41843 0.0
C6109 C 0.13467 0.48759 0.42459 0.0
C6110 C 0.11626 0.51178 0.42683 0.0
C6111 C 0.1246 0.51654 0.44142 0.0
C6112 C 0.1373 0.50607 0.44808 0.0
C6113 C 0.14226 0.4916 0.43971 0.0
C6114 C 0.13208 0.5605 0.45656 0.0
C6115 C 0.11547 0.56667 0.45768 0.0
C6116 C 0.13501 0.54392 0.45202 0.0
C6117 C 0.12137 0.53329 0.44843 0.0
C6118 C 0.10474 0.53937 0.44996 0.0
C6119 C 0.10182 0.55593 0.45462 0.0
H6120 H 0.73988 0.8621 0.66086 0.0
H6121 H 0.7474 0.90123 0.69671 0.0
H6122 H 0.71456 0.85345 0.67445 0.0
H6123 H 0.72273 0.89147 0.71168 0.0
H6124 H 0.66684 0.88211 0.72323 0.0
H6125 H 0.69395 0.8906 0.7123 0.0
H6126 H 0.70269 0.83991 0.69535 0.0
H6127 H 0.67475 0.83213 0.70492 0.0
C6128 C 0.73613 0.86879 0.67182 0.0
C6129 C 0.7454 0.88254 0.67755 0.0
C6130 C 0.72171 0.86358 0.6799 0.0
C6131 C 0.71645 0.87156 0.6944 0.0
C6132 C 0.72608 0.88513 0.70041 0.0
C6133 C 0.74031 0.8907 0.69193 0.0
C6134 C 0.67474 0.87282 0.71729 0.0
C6135 C 0.66885 0.85652 0.7148 0.0
C6136 C 0.69037 0.87763 0.71108 0.0
C6137 C 0.70063 0.86607 0.70264 0.0
C6138 C 0.69501 0.84941 0.70118 0.0
C6139 C 0.6791 0.8448 0.70686 0.0
H6140 H 0.33819 0.48364 0.94025 0.0
H6141 H 0.37742 0.47751 0.90422 0.0
H6142 H 0.34643 0.45682 0.95254 0.0
H6143 H 0.38566 0.45095 0.91645 0.0
H6144 H 0.37815 0.41705 0.97948 0.0
H6145 H 0.37133 0.44427 0.96772 0.0
H6146 H 0.37298 0.42285 0.91899 0.0
H6147 H 0.37995 0.39565 0.93065 0.0
C6148 C 0.34855 0.47657 0.93501 0.0
C6149 C 0.35712 0.48251 0.92128 0.0
C6150 C 0.35332 0.46133 0.94206 0.0
C6151 C 0.36666 0.45186 0.93539 0.0
C6152 C 0.37521 0.45791 0.92169 0.0
C6153 C 0.3705 0.4731 0.91472 0.0
C6154 C 0.37727 0.41817 0.96625 0.0
C6155 C 0.37961 0.40421 0.95598 0.0
C6156 C 0.37321 0.43372 0.95955 0.0
C6157 C 0.37152 0.43558 0.94249 0.0
C6158 C 0.37434 0.42175 0.9322 0.0
C6159 C 0.37834 0.40619 0.93888 0.0
H6160 H 0.3289 0.64485 0.68735 0.0
H6161 H 0.31467 0.60797 0.72299 0.0
H6162 H 0.30169 0.64135 0.67324 0.0
H6163 H 0.28831 0.60336 0.7084 0.0
H6164 H 0.2359 0.60449 0.68644 0.0
H6165 H 0.2618 0.61097 0.70164 0.0
H6166 H 0.28543 0.62565 0.65628 0.0
H6167 H 0.259 0.62048 0.64166 0.0
C6168 C 0.31996 0.63596 0.69212 0.0
C6169 C 0.3239 0.62686 0.70639 0.0
C6170 C 0.30436 0.63375 0.68393 0.0
C6171 C 0.29248 0.62198 0.6895 0.0
C6172 C 0.29663 0.61289 0.7038 0.0
C6173 C 0.31194 0.61545 0.7122 0.0
C6174 C 0.24667 0.60918 0.67981 0.0
C6175 C 0.24543 0.61203 0.66287 0.0
C6176 C 0.26167 0.6128 0.68849 0.0
C6177 C 0.27609 0.61884 0.68034 0.0
C6178 C 0.27473 0.62146 0.66326 0.0
C6179 C 0.25955 0.61833 0.65474 0.0
H6180 H 0.91279 0.06349 0.05029 0.0
H6181 H 0.86407 0.07491 0.02852 0.0
H6182 H 0.90121 0.03804 0.06225 0.0
H6183 H 0.85207 0.05023 0.04112 0.0
H6184 H 0.8384 -0.00296 0.0539 0.0
H6185 H 0.85075 0.02125 0.04054 0.0
H6186 H 0.88354 0.02887 0.08288 0.0
H6187 H 0.87207 0.00407 0.09547 0.0
C6188 C 0.89959 0.06049 0.04816 0.0
C6189 C 0.88927 0.07088 0.0385 0.0
C6190 C 0.89287 0.04605 0.05509 0.0
C6191 C 0.87564 0.04203 0.05271 0.0
C6192 C 0.86543 0.05265 0.04298 0.0
C6193 C 0.87223 0.06685 0.03586 0.0
C6194 C 0.84822 0.00397 0.06029 0.0
C6195 C 0.85421 -0.0012 0.07573 0.0
C6196 C 0.85527 0.01789 0.0527 0.0
C6197 C 0.86822 0.02708 0.0606 0.0
C6198 C 0.8739 0.02196 0.07622 0.0
C6199 C 0.86712 0.00788 0.0836 0.0
H6200 H 0.6798 0.13569 0.77882 0.0
H6201 H 0.65801 0.1427 0.82682 0.0
H6202 H 0.70756 0.1317 0.79147 0.0
H6203 H 0.68592 0.13851 0.83947 0.0
H6204 H 0.74572 0.09955 0.82039 0.0
H6205 H 0.71892 0.10825 0.80794 0.0
H6206 H 0.71564 0.14934 0.84234 0.0
H6207 H 0.74267 0.14056 0.85484 0.0
C6208 C 0.68093 0.13658 0.79206 0.0
C6209 C 0.66661 0.13927 0.80182 0.0
C6210 C 0.69685 0.13422 0.7993 0.0
C6211 C 0.69884 0.1345 0.81646 0.0
C6212 C 0.68476 0.13825 0.8262 0.0
C6213 C 0.66877 0.14062 0.81894 0.0
C6214 C 0.73932 0.11048 0.82525 0.0
C6215 C 0.74621 0.11937 0.83858 0.0
C6216 C 0.72403 0.11553 0.81807 0.0
C6217 C 0.71526 0.12957 0.82408 0.0
C6218 C 0.7221 0.13844 0.8375 0.0
C6219 C 0.73753 0.13342 0.84465 0.0
H6220 H 0.83096 0.8416 0.30529 0.0
H6221 H 0.80662 0.84555 0.25759 0.0
H6222 H 0.80405 0.84782 0.31834 0.0
H6223 H 0.77995 0.8523 0.2706 0.0
H6224 H 0.73124 0.8572 0.29921 0.0
H6225 H 0.7566 0.84416 0.28753 0.0
H6226 H 0.78796 0.87314 0.32075 0.0
H6227 H 0.76283 0.88573 0.33247 0.0
C6228 C 0.81985 0.84358 0.29759 0.0
C6229 C 0.82101 0.84328 0.2804 0.0
C6230 C 0.80444 0.84726 0.30506 0.0
C6231 C 0.7899 0.85084 0.29551 0.0
C6232 C 0.79085 0.84952 0.27834 0.0
C6233 C 0.80622 0.84573 0.27087 0.0
C6234 C 0.7436 0.86065 0.30399 0.0
C6235 C 0.74513 0.87245 0.3167 0.0
C6236 C 0.75809 0.85323 0.29733 0.0
C6237 C 0.77432 0.85752 0.30327 0.0
C6238 C 0.7757 0.86923 0.31611 0.0
C6239 C 0.76128 0.87657 0.32274 0.0
H6240 H 0.43727 0.34164 -0.00013 0.0
H6241 H 0.39894 0.3789 0.00972 0.0
H6242 H 0.45206 0.34936 0.02541 0.0
H6243 H 0.41355 0.3865 0.03522 0.0
H6244 H 0.43709 0.38345 0.08793 0.0
H6245 H 0.42133 0.37529 0.06307 0.0
H6246 H 0.46789 0.37401 0.03595 0.0
H6247 H 0.48356 0.38213 0.06052 0.0
C6248 C 0.43198 0.35142 0.00751 0.0
C6249 C 0.41696 0.35966 0.00277 0.0
C6250 C 0.44046 0.35589 0.02211 0.0
C6251 C 0.434 0.36858 0.03237 0.0
C6252 C 0.41879 0.37658 0.02773 0.0
C6253 C 0.41045 0.37225 0.01306 0.0
C6254 C 0.44394 0.38158 0.07663 0.0
C6255 C 0.46161 0.38352 0.0763 0.0
C6256 C 0.43491 0.37689 0.06238 0.0
C6257 C 0.44338 0.37383 0.04754 0.0
C6258 C 0.461 0.37598 0.04721 0.0
C6259 C 0.46996 0.38081 0.06133 0.0
H6260 H 0.37746 0.64274 0.77311 0.0
H6261 H 0.35214 0.68089 0.74437 0.0
H6262 H 0.36852 0.65637 0.79824 0.0
H6263 H 0.34325 0.69486 0.76981 0.0
H6264 H 0.35336 0.72283 0.82036 0.0
H6265 H 0.35697 0.7098 0.79353 0.0
H6266 H 0.34244 0.66224 0.81364 0.0
H6267 H 0.33905 0.67514 0.84053 0.0
C6268 C 0.36974 0.65394 0.77219 0.0
C6269 C 0.36521 0.66061 0.75682 0.0
C6270 C 0.3646 0.66175 0.78659 0.0
C6271 C 0.35495 0.67655 0.786 0.0
C6272 C 0.35065 0.68344 0.77061 0.0
C6273 C 0.35572 0.67549 0.7561 0.0
C6274 C 0.35068 0.70964 0.81903 0.0
C6275 C 0.34619 0.69997 0.83268 0.0
C6276 C 0.35266 0.70221 0.80361 0.0
C6277 C 0.35023 0.68497 0.80155 0.0
C6278 C 0.34471 0.67551 0.81495 0.0
C6279 C 0.3427 0.68293 0.83034 0.0
H6280 H 0.02583 0.64662 0.57654 0.0
H6281 H 0.02393 0.59479 0.5617 0.0
H6282 H 0.03463 0.65437 0.54894 0.0
H6283 H 0.03288 0.60243 0.53428 0.0
H6284 H 0.08213 0.64789 0.51412 0.0
H6285 H 0.06242 0.64823 0.5367 0.0
H6286 H 0.02769 0.61781 0.50832 0.0
H6287 H 0.04762 0.61741 0.48561 0.0
C6288 C 0.02703 0.63695 0.56728 0.0
C6289 C 0.02456 0.62009 0.5712 0.0
C6290 C 0.03199 0.64138 0.55152 0.0
C6291 C 0.03449 0.629 0.53951 0.0
C6292 C 0.03083 0.61228 0.54321 0.0
C6293 C 0.02593 0.60786 0.55895 0.0
C6294 C 0.07005 0.64175 0.51249 0.0
C6295 C 0.06651 0.63231 0.49834 0.0
C6296 C 0.05869 0.64203 0.52539 0.0
C6297 C 0.04365 0.63281 0.52433 0.0
C6298 C 0.03934 0.62481 0.50949 0.0
C6299 C 0.05071 0.62459 0.49654 0.0
H6300 H 0.12931 0.25916 0.31679 0.0
H6301 H 0.14667 0.30401 0.34124 0.0
H6302 H 0.13021 0.27337 0.29053 0.0
H6303 H 0.14817 0.31809 0.31483 0.0
H6304 H 0.12428 0.34345 0.26932 0.0
H6305 H 0.12852 0.32918 0.2954 0.0
H6306 H 0.14679 0.28541 0.26964 0.0
H6307 H 0.14188 0.2996 0.24348 0.0
C6308 C 0.13368 0.27195 0.31653 0.0
C6309 C 0.13778 0.2805 0.33114 0.0
C6310 C 0.13428 0.2801 0.30142 0.0
C6311 C 0.13914 0.29694 0.30053 0.0
C6312 C 0.14404 0.30522 0.31508 0.0
C6313 C 0.14329 0.29712 0.33023 0.0
C6314 C 0.12931 0.33082 0.26927 0.0
C6315 C 0.13258 0.32253 0.25442 0.0
C6316 C 0.13189 0.32266 0.28423 0.0
C6317 C 0.13795 0.30608 0.28467 0.0
C6318 C 0.14182 0.29805 0.26976 0.0
C6319 C 0.1391 0.30619 0.25478 0.0
H6320 H 0.41109 0.63898 0.47864 0.0
H6321 H 0.44597 0.60575 0.50373 0.0
H6322 H 0.42352 0.63159 0.4525 0.0
H6323 H 0.45836 0.59792 0.47731 0.0
H6324 H 0.48879 0.60594 0.42962 0.0
H6325 H 0.47555 0.60913 0.45619 0.0
H6326 H 0.42628 0.61017 0.4325 0.0
H6327 H 0.43962 0.60758 0.40577 0.0
C6328 C 0.42132 0.62989 0.47852 0.0
C6329 C 0.42753 0.62289 0.49321 0.0
C6330 C 0.4284 0.62555 0.46348 0.0
C6331 C 0.44188 0.61401 0.46268 0.0
C6332 C 0.44809 0.60695 0.47744 0.0
C6333 C 0.441 0.61139 0.49258 0.0
C6334 C 0.47511 0.60662 0.43004 0.0
C6335 C 0.46529 0.60666 0.41549 0.0
C6336 C 0.46749 0.60837 0.44536 0.0
C6337 C 0.44983 0.61012 0.44656 0.0
C6338 C 0.43994 0.60925 0.43205 0.0
C6339 C 0.44758 0.60761 0.4167 0.0
H6340 H 0.14356 0.71457 0.18448 0.0
H6341 H 0.09324 0.69561 0.17522 0.0
H6342 H 0.14314 0.70291 0.21223 0.0
H6343 H 0.09287 0.68393 0.20289 0.0
H6344 H 0.10937 0.64703 0.24297 0.0
H6345 H 0.11051 0.66033 0.21618 0.0
H6346 H 0.12595 0.70657 0.23921 0.0
H6347 H 0.1248 0.69319 0.26624 0.0
C6348 C 0.1324 0.708 0.18845 0.0
C6349 C 0.11846 0.70586 0.17781 0.0
C6350 C 0.13214 0.70143 0.20428 0.0
C6351 C 0.11802 0.69249 0.20954 0.0
C6352 C 0.10396 0.69065 0.19898 0.0
C6353 C 0.10414 0.69736 0.18324 0.0
C6354 C 0.11314 0.66 0.24231 0.0
C6355 C 0.11695 0.66916 0.25659 0.0
C6356 C 0.11366 0.66761 0.22702 0.0
C6357 C 0.11814 0.68447 0.22575 0.0
C6358 C 0.12247 0.69354 0.23997 0.0
C6359 C 0.12177 0.68593 0.25535 0.0
H6360 H 0.09722 0.3964 0.98897 0.0
H6361 H 0.07618 0.34688 0.99209 0.0
H6362 H 0.08528 0.39943 0.9614 0.0
H6363 H 0.06362 0.35011 0.96472 0.0
H6364 H 0.06043 0.35439 0.90882 0.0
H6365 H 0.07277 0.35147 0.93637 0.0
H6366 H 0.05846 0.40252 0.94739 0.0
H6367 H 0.04667 0.40551 0.91979 0.0
C6368 C 0.08984 0.38626 0.98379 0.0
C6369 C 0.08768 0.37138 0.99252 0.0
C6370 C 0.08294 0.38801 0.96806 0.0
C6371 C 0.07358 0.37497 0.96086 0.0
C6372 C 0.07103 0.36025 0.96983 0.0
C6373 C 0.07803 0.35847 0.98555 0.0
C6374 C 0.06006 0.36497 0.91715 0.0
C6375 C 0.05267 0.38016 0.91227 0.0
C6376 C 0.06698 0.36328 0.93292 0.0
C6377 C 0.06651 0.37675 0.94405 0.0
C6378 C 0.05921 0.39198 0.93903 0.0
C6379 C 0.0524 0.39368 0.92327 0.0
H6380 H 0.39669 0.30952 0.72811 0.0
H6381 H 0.34799 0.33411 0.72457 0.0
H6382 H 0.3929 0.29872 0.70013 0.0
H6383 H 0.34416 0.32339 0.69671 0.0
H6384 H 0.34968 0.31299 0.64127 0.0
H6385 H 0.35492 0.32555 0.6684 0.0
H6386 H 0.37509 0.27849 0.6859 0.0
H6387 H 0.37012 0.26611 0.65915 0.0
C6388 C 0.38516 0.31254 0.72138 0.0
C6389 C 0.37265 0.32263 0.72853 0.0
C6390 C 0.38296 0.30639 0.70535 0.0
C6391 C 0.36822 0.31023 0.69611 0.0
C6392 C 0.35576 0.32039 0.70332 0.0
C6393 C 0.35791 0.32642 0.71935 0.0
C6394 C 0.35526 0.30537 0.65091 0.0
C6395 C 0.35936 0.2885 0.64796 0.0
C6396 C 0.35822 0.31254 0.66647 0.0
C6397 C 0.36548 0.30303 0.67935 0.0
C6398 C 0.36972 0.28627 0.67627 0.0
C6399 C 0.3667 0.27912 0.66086 0.0
H6400 H 0.11131 0.42624 0.36815 0.0
H6401 H 0.08463 0.47007 0.38531 0.0
H6402 H 0.08466 0.41376 0.35974 0.0
H6403 H 0.05765 0.45717 0.37762 0.0
H6404 H 0.01061 0.43297 0.35523 0.0
H6405 H 0.03809 0.44738 0.3567 0.0
H6406 H 0.06206 0.4013 0.3725 0.0
H6407 H 0.03523 0.38726 0.37055 0.0
C6408 C 0.0997 0.43313 0.37037 0.0
C6409 C 0.10012 0.44904 0.3777 0.0
C6410 C 0.08434 0.42596 0.36551 0.0
C6411 C 0.06884 0.43431 0.36813 0.0
C6412 C 0.06927 0.45041 0.3752 0.0
C6413 C 0.08474 0.45773 0.37982 0.0
C6414 C 0.02194 0.42592 0.35839 0.0
C6415 C 0.02085 0.40899 0.36265 0.0
C6416 C 0.03763 0.43418 0.35953 0.0
C6417 C 0.05241 0.42558 0.36484 0.0
C6418 C 0.05121 0.4084 0.36812 0.0
C6419 C 0.03571 0.40029 0.36703 0.0
H6420 H 0.32656 0.35156 0.13939 0.0
H6421 H 0.27746 0.33178 0.12591 0.0
H6422 H 0.33959 0.32467 0.13228 0.0
H6423 H 0.29041 0.30521 0.11902 0.0
H6424 H 0.3509 0.26762 0.13651 0.0
H6425 H 0.33973 0.29539 0.14242 0.0
H6426 H 0.30932 0.29342 0.09797 0.0
H6427 H 0.32052 0.26545 0.09207 0.0
C6428 C 0.31855 0.3415 0.13504 0.0
C6429 C 0.30099 0.34386 0.13322 0.0
C6430 C 0.326 0.32614 0.13096 0.0
C6431 C 0.31601 0.31293 0.12492 0.0
C6432 C 0.29847 0.31526 0.12331 0.0
C6433 C 0.29105 0.3305 0.12742 0.0
C6434 C 0.34191 0.27316 0.12793 0.0
C6435 C 0.33648 0.2644 0.11386 0.0
C6436 C 0.33561 0.2891 0.13128 0.0
C6437 C 0.32365 0.29655 0.12068 0.0
C6438 C 0.3184 0.28788 0.10645 0.0
C6439 C 0.3248 0.27192 0.10305 0.0
H6440 H 0.39642 0.5552 0.89355 0.0
H6441 H 0.41569 0.50454 0.89371 0.0
H6442 H 0.42515 0.5657 0.89317 0.0
H6443 H 0.44458 0.51501 0.8941 0.0
H6444 H 0.48928 0.54069 0.86762 0.0
H6445 H 0.46272 0.52754 0.87512 0.0
H6446 H 0.45119 0.56965 0.90667 0.0
H6447 H 0.47742 0.58294 0.89842 0.0
C6448 C 0.40683 0.54632 0.89391 0.0
C6449 C 0.40384 0.52907 0.89347 0.0
C6450 C 0.42335 0.55232 0.89381 0.0
C6451 C 0.43725 0.5412 0.89355 0.0
C6452 C 0.4342 0.52392 0.89398 0.0
C6453 C 0.41765 0.51792 0.89382 0.0
C6454 C 0.48119 0.54684 0.87646 0.0
C6455 C 0.48507 0.56282 0.88233 0.0
C6456 C 0.466 0.53934 0.88082 0.0
C6457 C 0.45463 0.54767 0.89131 0.0
C6458 C 0.45938 0.5631 0.89821 0.0
C6459 C 0.4744 0.57069 0.89359 0.0
H6460 H 0.17363 0.65003 0.62816 0.0
H6461 H 0.22395 0.66931 0.62061 0.0
H6462 H 0.16196 0.67821 0.62512 0.0
H6463 H 0.21227 0.69732 0.61776 0.0
H6464 H 0.15123 0.73445 0.63508 0.0
H6465 H 0.16227 0.70612 0.6392 0.0
H6466 H 0.19432 0.71183 0.59704 0.0
H6467 H 0.1833 0.74009 0.59295 0.0
C6468 C 0.18221 0.66026 0.626 0.0
C6469 C 0.19971 0.65741 0.62455 0.0
C6470 C 0.17553 0.67638 0.62432 0.0
C6471 C 0.18622 0.68989 0.62108 0.0
C6472 C 0.20372 0.68708 0.61999 0.0
C6473 C 0.2104 0.67103 0.62172 0.0
C6474 C 0.16055 0.72956 0.62666 0.0
C6475 C 0.16643 0.73936 0.6137 0.0
C6476 C 0.16683 0.71338 0.629 0.0
C6477 C 0.17919 0.70684 0.61848 0.0
C6478 C 0.18498 0.71667 0.60547 0.0
C6479 C 0.17864 0.73279 0.60309 0.0
H6480 H 0.02406 0.59874 0.13776 0.0
H6481 H 0.00243 0.55086 0.14869 0.0
H6482 H 0.05202 0.58639 0.13719 0.0
H6483 H 0.0308 0.53816 0.14842 0.0
H6484 H 0.07602 0.52052 0.11625 0.0
H6485 H 0.04911 0.53189 0.12576 0.0
H6486 H 0.07561 0.57285 0.14912 0.0
H6487 H 0.10229 0.56189 0.13901 0.0
C6488 C 0.02546 0.58569 0.14097 0.0
C6489 C 0.01119 0.57579 0.14354 0.0
C6490 C 0.04153 0.57852 0.14053 0.0
C6491 C 0.04369 0.5612 0.14251 0.0
C6492 C 0.02952 0.5515 0.14656 0.0
C6493 C 0.01334 0.55878 0.14704 0.0
C6494 C 0.07603 0.53201 0.12333 0.0
C6495 C 0.09119 0.54054 0.12651 0.0
C6496 C 0.06065 0.53839 0.12903 0.0
C6497 C 0.06016 0.5533 0.13825 0.0
C6498 C 0.07546 0.5615 0.14183 0.0
C6499 C 0.09075 0.55528 0.13593 0.0
H6500 H 0.16179 0.26249 0.86148 0.0
H6501 H 0.19512 0.2629 0.90396 0.0
H6502 H 0.17137 0.29027 0.85399 0.0
H6503 H 0.20483 0.29079 0.89641 0.0
H6504 H 0.17964 0.34713 0.85718 0.0
H6505 H 0.16966 0.31947 0.86486 0.0
H6506 H 0.22128 0.30332 0.87363 0.0
H6507 H 0.23129 0.33082 0.86615 0.0
C6508 C 0.1711 0.26861 0.86927 0.0
C6509 C 0.17768 0.2607 0.88334 0.0
C6510 C 0.17654 0.28449 0.865 0.0
C6511 C 0.18877 0.29266 0.87466 0.0
C6512 C 0.19547 0.28467 0.88869 0.0
C6513 C 0.18993 0.26878 0.89302 0.0
C6514 C 0.18885 0.33765 0.86065 0.0
C6515 C 0.20624 0.34118 0.86103 0.0
C6516 C 0.18314 0.32184 0.86502 0.0
C6517 C 0.19472 0.30935 0.86992 0.0
C6518 C 0.21208 0.31282 0.87014 0.0
C6519 C 0.2178 0.32856 0.86572 0.0
H6520 H 0.47006 0.4137 0.64614 0.0
H6521 H 0.48408 0.41324 0.59507 0.0
H6522 H 0.44285 0.42696 0.63861 0.0
H6523 H 0.45723 0.42686 0.58768 0.0
H6524 H 0.41576 0.47102 0.59073 0.0
H6525 H 0.44294 0.45744 0.59718 0.0
H6526 H 0.41667 0.41535 0.61745 0.0
H6527 H 0.38946 0.42865 0.61061 0.0
C6528 C 0.46742 0.41671 0.6334 0.0
C6529 C 0.47908 0.41262 0.62117 0.0
C6530 C 0.45189 0.42411 0.62909 0.0
C6531 C 0.44809 0.42782 0.61259 0.0
C6532 C 0.45996 0.42412 0.60047 0.0
C6533 C 0.47526 0.41638 0.6047 0.0
C6534 C 0.41581 0.45874 0.59629 0.0
C6535 C 0.40056 0.45081 0.60008 0.0
C6536 C 0.4313 0.45105 0.60002 0.0
C6537 C 0.43174 0.43552 0.60795 0.0
C6538 C 0.41654 0.42742 0.61146 0.0
C6539 C 0.40104 0.43493 0.60737 0.0
H6540 H 0.27521 0.67275 0.37156 0.0
H6541 H 0.32327 0.64895 0.36152 0.0
H6542 H 0.28981 0.6987 0.37838 0.0
H6543 H 0.33776 0.67489 0.36804 0.0
H6544 H 0.36244 0.71788 0.39248 0.0
H6545 H 0.34498 0.69283 0.39096 0.0
H6546 H 0.30582 0.72097 0.36557 0.0
H6547 H 0.32329 0.74605 0.36751 0.0
C6548 C 0.28887 0.67305 0.37068 0.0
C6549 C 0.29804 0.65869 0.36596 0.0
C6550 C 0.29724 0.68796 0.37461 0.0
C6551 C 0.315 0.68888 0.37399 0.0
C6552 C 0.32411 0.67458 0.36905 0.0
C6553 C 0.31576 0.65971 0.3651 0.0
C6554 C 0.34976 0.71883 0.3873 0.0
C6555 C 0.34399 0.73394 0.3805 0.0
C6556 C 0.33988 0.70442 0.38611 0.0
C6557 C 0.3241 0.70476 0.37785 0.0
C6558 C 0.31784 0.72023 0.3721 0.0
C6559 C 0.32775 0.73466 0.37334 0.0
H6560 H 0.33961 0.99602 0.43116 0.0
H6561 H 0.37895 0.00587 0.3963 0.0
H6562 H 0.34645 0.02215 0.44556 0.0
H6563 H 0.38572 0.03183 0.41053 0.0
H6564 H 0.37518 0.06153 0.47623 0.0
H6565 H 0.36944 0.03509 0.46231 0.0
H6566 H 0.37321 0.05958 0.41537 0.0
H6567 H 0.37903 0.08602 0.42923 0.0
C6568 C 0.34971 0.00374 0.42659 0.0
C6569 C 0.35866 -0.00107 0.41254 0.0
C6570 C 0.3537 0.01867 0.43487 0.0
C6571 C 0.36663 0.02914 0.42918 0.0
C6572 C 0.37556 0.02422 0.41514 0.0
C6573 C 0.37168 0.00929 0.407 0.0
C6574 C 0.37501 0.06128 0.46293 0.0
C6575 C 0.37766 0.07598 0.45388 0.0
C6576 C 0.37153 0.04612 0.45495 0.0
C6577 C 0.37074 0.0452 0.43771 0.0
C6578 C 0.37384 0.05979 0.42866 0.0
C6579 C 0.37719 0.07498 0.43663 0.0
H6580 H 0.89802 0.42377 0.5556 0.0
H6581 H 0.84471 0.4168 0.54546 0.0
H6582 H 0.89237 0.45238 0.56446 0.0
H6583 H 0.83898 0.44541 0.55459 0.0
H6584 H 0.87089 0.49332 0.59857 0.0
H6585 H 0.8781 0.46592 0.58756 0.0
H6586 H 0.84464 0.47484 0.54601 0.0
H6587 H 0.83701 0.50224 0.55756 0.0
C6588 C 0.88508 0.42834 0.55541 0.0
C6589 C 0.87177 0.41815 0.54995 0.0
C6590 C 0.88185 0.44469 0.56045 0.0
C6591 C 0.86526 0.4511 0.5601 0.0
C6592 C 0.85193 0.44084 0.55471 0.0
C6593 C 0.85516 0.42446 0.54969 0.0
C6594 C 0.86509 0.48937 0.58712 0.0
C6595 C 0.85319 0.49954 0.57903 0.0
C6596 C 0.86936 0.47381 0.5807 0.0
C6597 C 0.86179 0.46821 0.56602 0.0
C6598 C 0.85045 0.4788 0.55748 0.0
C6599 C 0.84623 0.49446 0.56394 0.0
H6600 H 0.30611 0.14238 0.26596 0.0
H6601 H 0.32817 0.14486 0.31481 0.0
H6602 H 0.27963 0.13268 0.27743 0.0
H6603 H 0.30164 0.13514 0.32619 0.0
H6604 H 0.24644 0.13157 0.34132 0.0
H6605 H 0.27149 0.1437 0.32937 0.0
H6606 H 0.27078 0.10592 0.29136 0.0
H6607 H 0.24545 0.09362 0.30347 0.0
C6608 C 0.30525 0.14117 0.27917 0.0
C6609 C 0.31931 0.14435 0.28948 0.0
C6610 C 0.29012 0.13543 0.28568 0.0
C6611 C 0.28868 0.13293 0.30264 0.0
C6612 C 0.3024 0.13698 0.31305 0.0
C6613 C 0.31758 0.14261 0.30653 0.0
C6614 C 0.2516 0.12579 0.33042 0.0
C6615 C 0.24408 0.11157 0.32335 0.0
C6616 C 0.26598 0.13275 0.32361 0.0
C6617 C 0.27308 0.12575 0.30948 0.0
C6618 C 0.26543 0.11165 0.3022 0.0
C6619 C 0.25104 0.10456 0.30914 0.0
H6620 H 0.62118 0.51676 0.09665 0.0
H6621 H 0.66005 0.51157 0.06014 0.0
H6622 H 0.6107 0.54199 0.08318 0.0
H6623 H 0.64958 0.53698 0.04663 0.0
H6624 H 0.61441 0.57126 0.01705 0.0
H6625 H 0.62371 0.54587 0.03099 0.0
H6626 H 0.61973 0.571 0.07781 0.0
H6627 H 0.61026 0.5964 0.06394 0.0
C6628 C 0.62757 0.52112 0.08581 0.0
C6629 C 0.64142 0.51225 0.07941 0.0
C6630 C 0.62158 0.53557 0.07812 0.0
C6631 C 0.62926 0.54139 0.06381 0.0
C6632 C 0.64327 0.53263 0.05752 0.0
C6633 C 0.64934 0.51819 0.0653 0.0
C6634 C 0.61526 0.57133 0.03033 0.0
C6635 C 0.61158 0.58587 0.03938 0.0
C6636 C 0.62077 0.55683 0.03829 0.0
C6637 C 0.62264 0.55653 0.05545 0.0
C6638 C 0.61834 0.57085 0.06456 0.0
C6639 C 0.61289 0.58539 0.0566 0.0
H6640 H 0.69024 0.35386 0.2726 0.0
H6641 H 0.66141 0.38519 0.30543 0.0
H6642 H 0.71611 0.36021 0.28829 0.0
H6643 H 0.68745 0.39196 0.32075 0.0
H6644 H 0.74522 0.41253 0.32662 0.0
H6645 H 0.71886 0.40701 0.31099 0.0
H6646 H 0.72393 0.35445 0.32163 0.0
H6647 H 0.74971 0.35993 0.33756 0.0
C6648 C 0.68942 0.36207 0.28317 0.0
C6649 C 0.67377 0.3689 0.28786 0.0
C6650 C 0.70422 0.36574 0.29209 0.0
C6651 C 0.70374 0.37668 0.3056 0.0
C6652 C 0.68814 0.3836 0.31028 0.0
C6653 C 0.67325 0.37959 0.30161 0.0
C6654 C 0.74068 0.39983 0.32555 0.0
C6655 C 0.74951 0.38666 0.33325 0.0
C6656 C 0.72561 0.39669 0.31672 0.0
C6657 C 0.71945 0.3803 0.31512 0.0
C6658 C 0.72845 0.36717 0.32263 0.0
C6659 C 0.74318 0.37034 0.33176 0.0
H6660 H 0.09913 0.90956 0.92876 0.0
H6661 H 0.09818 0.93358 0.9764 0.0
H6662 H 0.10888 0.93541 0.91656 0.0
H6663 H 0.10774 0.9595 0.96408 0.0
H6664 H 0.11414 0.98877 0.89804 0.0
H6665 H 0.10099 0.96445 0.91031 0.0
H6666 H 0.13488 0.9685 0.9522 0.0
H6667 H 0.14795 0.99302 0.93993 0.0
C6668 C 0.10064 0.92043 0.93658 0.0
C6669 C 0.09798 0.91945 0.95358 0.0
C6670 C 0.10623 0.93527 0.92957 0.0
C6671 C 0.10929 0.94942 0.93941 0.0
C6672 C 0.10579 0.94869 0.95625 0.0
C6673 C 0.10015 0.93388 0.96327 0.0
C6674 C 0.11878 0.98446 0.90988 0.0
C6675 C 0.13209 0.99272 0.91805 0.0
C6676 C 0.11126 0.97052 0.91688 0.0
C6677 C 0.11686 0.96459 0.93223 0.0
C6678 C 0.13013 0.97293 0.94046 0.0
C6679 C 0.1377 0.98687 0.93341 0.0
H6680 H 0.24611 0.89697 0.18433 0.0
H6681 H 0.24759 0.8548 0.15117 0.0
H6682 H 0.27278 0.88766 0.19697 0.0
H6683 H 0.27385 0.84516 0.16407 0.0
H6684 H 0.31554 0.86132 0.22386 0.0
H6685 H 0.28677 0.8665 0.21363 0.0
H6686 H 0.3026 0.85376 0.16454 0.0
H6687 H 0.331 0.84812 0.17473 0.0
C6688 C 0.25204 0.8856 0.17991 0.0
C6689 C 0.24488 0.87665 0.16674 0.0
C6690 C 0.26723 0.88017 0.18722 0.0
C6691 C 0.27549 0.86566 0.18153 0.0
C6692 C 0.26799 0.85651 0.16861 0.0
C6693 C 0.2529 0.86199 0.16126 0.0
C6694 C 0.31278 0.85928 0.21095 0.0
C6695 C 0.32563 0.8544 0.20011 0.0
C6696 C 0.29633 0.86242 0.20506 0.0
C6697 C 0.2924 0.86071 0.18824 0.0
C6698 C 0.30509 0.85505 0.17759 0.0
C6699 C 0.32146 0.85189 0.18345 0.0
H6700 H 0.17009 0.10749 0.72407 0.0
H6701 H 0.1641 0.15209 0.69497 0.0
H6702 H 0.19704 0.10159 0.7111 0.0
H6703 H 0.19174 0.14719 0.68291 0.0
H6704 H 0.23526 0.12804 0.65346 0.0
H6705 H 0.20748 0.13219 0.66505 0.0
H6706 H 0.22489 0.10863 0.71008 0.0
H6707 H 0.25217 0.10291 0.69752 0.0
C6708 C 0.17471 0.1161 0.71495 0.0
C6709 C 0.16512 0.1302 0.71043 0.0
C6710 C 0.19026 0.11286 0.70763 0.0
C6711 C 0.19683 0.12395 0.69599 0.0
C6712 C 0.18707 0.13811 0.69152 0.0
C6713 C 0.17125 0.14104 0.69848 0.0
C6714 C 0.23297 0.12343 0.66569 0.0
C6715 C 0.24568 0.11484 0.67447 0.0
C6716 C 0.2171 0.1261 0.67252 0.0
C6717 C 0.21374 0.1208 0.6886 0.0
C6718 C 0.22673 0.11255 0.69753 0.0
C6719 C 0.24247 0.10941 0.69045 0.0
H6720 H 0.06671 0.0547 0.3413 0.0
H6721 H 0.07068 0.10677 0.32836 0.0
H6722 H 0.09641 0.05035 0.33444 0.0
H6723 H 0.10044 0.10267 0.3221 0.0
H6724 H 0.15385 0.09317 0.31081 0.0
H6725 H 0.12324 0.09068 0.30679 0.0
H6726 H 0.12102 0.05879 0.34946 0.0
H6727 H 0.15147 0.06091 0.35307 0.0
C6728 C 0.07388 0.06513 0.33668 0.0
C6729 C 0.06657 0.08111 0.33557 0.0
C6730 C 0.09089 0.06267 0.33282 0.0
C6731 C 0.10089 0.07621 0.328 0.0
C6732 C 0.09312 0.09191 0.32564 0.0
C6733 C 0.07607 0.09432 0.32933 0.0
C6734 C 0.14681 0.08528 0.31902 0.0
C6735 C 0.1549 0.07739 0.33236 0.0
C6736 C 0.1293 0.08392 0.31678 0.0
C6737 C 0.11963 0.07471 0.32791 0.0
C6738 C 0.12803 0.06584 0.34053 0.0
C6739 C 0.1455 0.06714 0.3427 0.0
H6740 H 0.17972 0.91689 0.61883 0.0
H6741 H 0.15935 0.9216 0.56959 0.0
H6742 H 0.18212 0.88684 0.61526 0.0
H6743 H 0.16223 0.89139 0.56574 0.0
H6744 H 0.14001 0.8397 0.57987 0.0
H6745 H 0.14584 0.86923 0.57701 0.0
H6746 H 0.19382 0.86233 0.60236 0.0
H6747 H 0.18764 0.83257 0.60559 0.0
C6748 C 0.17622 0.91152 0.60704 0.0
C6749 C 0.16912 0.92149 0.59455 0.0
C6750 C 0.17772 0.89427 0.60494 0.0
C6751 C 0.17219 0.88665 0.59027 0.0
C6752 C 0.16633 0.89685 0.5773 0.0
C6753 C 0.16475 0.91414 0.57944 0.0
C6754 C 0.15195 0.84442 0.58457 0.0
C6755 C 0.1633 0.83393 0.59312 0.0
C6756 C 0.15539 0.86135 0.5828 0.0
C6757 C 0.17029 0.8682 0.58951 0.0
C6758 C 0.18214 0.85747 0.59723 0.0
C6759 C 0.17866 0.84045 0.59903 0.0
H6760 H 0.42548 0.89179 0.82499 0.0
H6761 H 0.42877 0.91477 0.87285 0.0
H6762 H 0.39458 0.89373 0.82577 0.0
H6763 H 0.39806 0.91755 0.8734 0.0
H6764 H 0.34643 0.89465 0.88165 0.0
H6765 H 0.37658 0.89828 0.87798 0.0
H6766 H 0.36798 0.90828 0.8264 0.0
H6767 H 0.33753 0.90401 0.83012 0.0
C6768 C 0.41962 0.89799 0.83533 0.0
C6769 C 0.42953 0.9032 0.84883 0.0
C6770 C 0.40186 0.89902 0.83585 0.0
C6771 C 0.39367 0.90544 0.84984 0.0
C6772 C 0.40379 0.91204 0.86264 0.0
C6773 C 0.42145 0.91073 0.86223 0.0
C6774 C 0.35093 0.89773 0.86953 0.0
C6775 C 0.33958 0.89905 0.85618 0.0
C6776 C 0.36829 0.89998 0.86742 0.0
C6777 C 0.37489 0.90381 0.8519 0.0
C6778 C 0.36346 0.90527 0.83851 0.0
C6779 C 0.34599 0.9029 0.84064 0.0
H6780 H 0.33123 0.08427 0.06757 0.0
H6781 H 0.31579 0.0893 0.118 0.0
H6782 H 0.33108 0.11463 0.06476 0.0
H6783 H 0.31601 0.11962 0.11537 0.0
H6784 H 0.31436 0.17472 0.10588 0.0
H6785 H 0.30551 0.14558 0.10308 0.0
H6786 H 0.35107 0.13452 0.07619 0.0
H6787 H 0.35967 0.16353 0.07879 0.0
C6788 C 0.32739 0.09187 0.07792 0.0
C6789 C 0.32369 0.08449 0.09304 0.0
C6790 C 0.32742 0.10925 0.07635 0.0
C6791 C 0.32384 0.11955 0.08992 0.0
C6792 C 0.31874 0.11207 0.10464 0.0
C6793 C 0.31865 0.09469 0.10618 0.0
C6794 C 0.32227 0.16608 0.09911 0.0
C6795 C 0.33774 0.17129 0.09264 0.0
C6796 C 0.31725 0.14941 0.09756 0.0
C6797 C 0.32759 0.1377 0.08946 0.0
C6798 C 0.34266 0.14322 0.0823 0.0
C6799 C 0.34768 0.15983 0.08389 0.0
H6800 H 0.15501 0.88557 0.17694 0.0
H6801 H 0.14752 0.92205 0.13854 0.0
H6802 H 0.12441 0.88377 0.18034 0.0
H6803 H 0.11688 0.92022 0.14191 0.0
H6804 H 0.07344 0.86502 0.1563 0.0
H6805 H 0.10329 0.87125 0.16079 0.0
H6806 H 0.09173 0.92409 0.16061 0.0
H6807 H 0.06168 0.91778 0.15618 0.0
C6808 C 0.14683 0.8935 0.1695 0.0
C6809 C 0.15359 0.90384 0.15738 0.0
C6810 C 0.12933 0.89241 0.17141 0.0
C6811 C 0.11826 0.90172 0.16128 0.0
C6812 C 0.12509 0.91299 0.14997 0.0
C6813 C 0.14262 0.914 0.148 0.0
C6814 C 0.07722 0.87795 0.15759 0.0
C6815 C 0.06531 0.89092 0.15585 0.0
C6816 C 0.09431 0.88153 0.16024 0.0
C6817 C 0.09985 0.89817 0.16102 0.0
C6818 C 0.08781 0.91116 0.15997 0.0
C6819 C 0.07064 0.90755 0.15754 0.0
H6820 H 0.32318 0.90202 0.37264 0.0
H6821 H 0.3581 0.90334 0.41382 0.0
H6822 H 0.32428 0.87155 0.37272 0.0
H6823 H 0.35951 0.87279 0.41373 0.0
H6824 H 0.35214 0.81653 0.41499 0.0
H6825 H 0.34494 0.8462 0.41775 0.0
H6826 H 0.3455 0.8513 0.36499 0.0
H6827 H 0.35237 0.82182 0.36222 0.0
C6828 C 0.33091 0.89578 0.38187 0.0
C6829 C 0.34061 0.90506 0.39319 0.0
C6830 C 0.33165 0.8783 0.38184 0.0
C6831 C 0.34213 0.86967 0.39311 0.0
C6832 C 0.35119 0.87898 0.40496 0.0
C6833 C 0.35044 0.8965 0.40499 0.0
C6834 C 0.35039 0.82393 0.40397 0.0
C6835 C 0.35289 0.81676 0.38838 0.0
C6836 C 0.34641 0.84098 0.40557 0.0
C6837 C 0.3447 0.85121 0.39161 0.0
C6838 C 0.3465 0.84383 0.37602 0.0
C6839 C 0.35055 0.82688 0.37443 0.0
H6840 H 0.42281 0.07621 0.63197 0.0
H6841 H 0.43101 0.09567 0.68092 0.0
H6842 H 0.39268 0.07446 0.63698 0.0
H6843 H 0.40063 0.09366 0.68612 0.0
H6844 H 0.34583 0.11498 0.67423 0.0
H6845 H 0.37639 0.11001 0.67571 0.0
H6846 H 0.36963 0.06229 0.65159 0.0
H6847 H 0.33922 0.06752 0.64974 0.0
C6848 C 0.41821 0.07963 0.64401 0.0
C6849 C 0.42926 0.08619 0.656 0.0
C6850 C 0.4009 0.07857 0.64693 0.0
C6851 C 0.39417 0.08409 0.66191 0.0
C6852 C 0.40539 0.08952 0.67437 0.0
C6853 C 0.42282 0.09047 0.67147 0.0
C6854 C 0.35088 0.10332 0.66952 0.0
C6855 C 0.34022 0.09173 0.66169 0.0
C6856 C 0.36838 0.1004 0.67046 0.0
C6857 C 0.37549 0.0858 0.66363 0.0
C6858 C 0.36461 0.07378 0.65672 0.0
C6859 C 0.34718 0.07675 0.65571 0.0
H6860 H 0.19577 0.16762 0.90098 0.0
H6861 H 0.14816 0.16552 0.92624 0.0
H6862 H 0.19917 0.13742 0.90406 0.0
H6863 H 0.15096 0.13544 0.92857 0.0
H6864 H 0.15865 0.08114 0.93373 0.0
H6865 H 0.16345 0.1109 0.93856 0.0
H6866 H 0.18664 0.1146 0.89088 0.0
H6867 H 0.18262 0.0849 0.8866 0.0
C6868 C 0.18618 0.16071 0.90741 0.0
C6869 C 0.17165 0.16882 0.91325 0.0
C6870 C 0.18802 0.1434 0.90906 0.0
C6871 C 0.1752 0.13387 0.91631 0.0
C6872 C 0.16121 0.14227 0.92309 0.0
C6873 C 0.15953 0.15956 0.92166 0.0
C6874 C 0.16511 0.08832 0.9245 0.0
C6875 C 0.17016 0.08082 0.90976 0.0
C6876 C 0.16777 0.10539 0.92719 0.0
C6877 C 0.17526 0.11529 0.91503 0.0
C6878 C 0.18107 0.10745 0.90066 0.0
C6879 C 0.17865 0.09039 0.89811 0.0
H6880 H 0.12779 0.32107 0.07638 0.0
H6881 H 0.08786 0.35758 0.08257 0.0
H6882 H 0.12455 0.31223 0.10481 0.0
H6883 H 0.08505 0.34928 0.11118 0.0
H6884 H 0.13624 0.32936 0.15828 0.0
H6885 H 0.13335 0.32718 0.12879 0.0
H6886 H 0.07884 0.32915 0.13292 0.0
H6887 H 0.08193 0.33154 0.16297 0.0
C6888 C 0.11819 0.32706 0.08379 0.0
C6889 C 0.1083 0.3402 0.07745 0.0
C6890 C 0.11631 0.32201 0.10005 0.0
C6891 C 0.10471 0.33022 0.11035 0.0
C6892 C 0.09399 0.34258 0.10359 0.0
C6893 C 0.09573 0.34748 0.08725 0.0
C6894 C 0.12361 0.32888 0.15293 0.0
C6895 C 0.10931 0.33075 0.16279 0.0
C6896 C 0.12192 0.32749 0.136 0.0
C6897 C 0.10585 0.32805 0.12844 0.0
C6898 C 0.0914 0.32881 0.13841 0.0
C6899 C 0.09312 0.33004 0.15555 0.0
H6900 H 0.61149 0.17432 0.84802 0.0
H6901 H 0.56793 0.14295 0.84009 0.0
H6902 H 0.60435 0.1771 0.87696 0.0
H6903 H 0.56022 0.14636 0.86879 0.0
H6904 H 0.57605 0.1288 0.92115 0.0
H6905 H 0.57301 0.13382 0.89203 0.0
H6906 H 0.58672 0.18554 0.89953 0.0
H6907 H 0.59022 0.18022 0.92901 0.0
C6908 C 0.6001 0.16844 0.8524 0.0
C6909 C 0.59045 0.15814 0.842 0.0
C6910 C 0.59589 0.17016 0.86895 0.0
C6911 C 0.58182 0.16174 0.87529 0.0
C6912 C 0.57135 0.15268 0.86442 0.0
C6913 C 0.57573 0.15075 0.84798 0.0
C6914 C 0.57795 0.14137 0.91666 0.0
C6915 C 0.58362 0.15405 0.92726 0.0
C6916 C 0.57608 0.14432 0.89991 0.0
C6917 C 0.57984 0.16006 0.89334 0.0
C6918 C 0.58399 0.17321 0.90418 0.0
C6919 C 0.58582 0.17023 0.92107 0.0
H6920 H 0.87263 0.82405 0.40949 0.0
H6921 H 0.92047 0.84963 0.40858 0.0
H6922 H 0.87298 0.82127 0.37968 0.0
H6923 H 0.92103 0.84663 0.37864 0.0
H6924 H 0.90381 0.85764 0.32488 0.0
H6925 H 0.90662 0.85788 0.35476 0.0
H6926 H 0.88615 0.80803 0.3565 0.0
H6927 H 0.88308 0.80798 0.32655 0.0
C6928 C 0.88338 0.82885 0.40292 0.0
C6929 C 0.89654 0.83705 0.41142 0.0
C6930 C 0.88363 0.82719 0.38578 0.0
C6931 C 0.89703 0.83373 0.37661 0.0
C6932 C 0.9104 0.8416 0.38521 0.0
C6933 C 0.91016 0.84322 0.4024 0.0
C6934 C 0.90012 0.84664 0.33163 0.0
C6935 C 0.89322 0.83278 0.32333 0.0
C6936 C 0.90179 0.84674 0.3488 0.0
C6937 C 0.89656 0.833 0.35818 0.0
C6938 C 0.8901 0.81894 0.34977 0.0
C6939 C 0.88846 0.81884 0.33257 0.0
H6940 H 0.93492 0.12567 0.08593 0.0
H6941 H 0.8875 0.15276 0.08353 0.0
H6942 H 0.93522 0.12837 0.11586 0.0
H6943 H 0.88743 0.15501 0.11329 0.0
H6944 H 0.89351 0.16437 0.16665 0.0
H6945 H 0.89971 0.16661 0.13748 0.0
H6946 H 0.91993 0.11625 0.13793 0.0
H6947 H 0.91429 0.11434 0.16722 0.0
C6948 C 0.92468 0.13237 0.09181 0.0
C6949 C 0.91116 0.13897 0.08247 0.0
C6950 C 0.92478 0.13382 0.10894 0.0
C6951 C 0.9113 0.14181 0.11704 0.0
C6952 C 0.89816 0.14899 0.10753 0.0
C6953 C 0.89813 0.14763 0.09044 0.0
C6954 C 0.89958 0.15393 0.16054 0.0
C6955 C 0.90334 0.13915 0.16911 0.0
C6956 C 0.90304 0.15515 0.14381 0.0
C6957 C 0.91012 0.14154 0.13526 0.0
C6958 C 0.91464 0.12706 0.14411 0.0
C6959 C 0.91134 0.12591 0.16089 0.0
H6960 H 0.41399 0.62013 0.66799 0.0
H6961 H 0.39675 0.67135 0.67065 0.0
H6962 H 0.42019 0.62363 0.639 0.0
H6963 H 0.40344 0.6751 0.64169 0.0
H6964 H 0.43578 0.63474 0.58764 0.0
H6965 H 0.4365 0.63612 0.61769 0.0
H6966 H 0.39049 0.66572 0.61673 0.0
H6967 H 0.39011 0.66468 0.58692 0.0
C6968 C 0.41195 0.63228 0.66246 0.0
C6969 C 0.40477 0.64543 0.67152 0.0
C6970 C 0.41559 0.63433 0.64583 0.0
C6971 C 0.41219 0.64962 0.63791 0.0
C6972 C 0.40594 0.66307 0.6473 0.0
C6973 C 0.40221 0.66097 0.66392 0.0
C6974 C 0.42608 0.64185 0.5939 0.0
C6975 C 0.41286 0.64954 0.58498 0.0
C6976 C 0.42639 0.64254 0.61111 0.0
C6977 C 0.41348 0.65092 0.6197 0.0
C6978 C 0.40078 0.65934 0.61062 0.0
C6979 C 0.4005 0.65867 0.59348 0.0
H6980 H 0.1159 0.66942 0.35492 0.0
H6981 H 0.06553 0.65255 0.34271 0.0
H6982 H 0.10848 0.67099 0.38382 0.0
H6983 H 0.05816 0.65357 0.37196 0.0
H6984 H 0.07697 0.62551 0.42268 0.0
H6985 H 0.07286 0.63349 0.39402 0.0
H6986 H 0.08797 0.68388 0.40583 0.0
H6987 H 0.09182 0.67598 0.43465 0.0
C6988 C 0.10307 0.66652 0.35843 0.0
C6989 C 0.09127 0.66084 0.34673 0.0
C6990 C 0.09878 0.66751 0.37494 0.0
C6991 C 0.08274 0.66242 0.38008 0.0
C6992 C 0.07057 0.65765 0.36824 0.0
C6993 C 0.07476 0.6571 0.35158 0.0
C6994 C 0.07884 0.63843 0.41925 0.0
C6995 C 0.08493 0.65007 0.4308 0.0
C6996 C 0.07635 0.64303 0.40288 0.0
C6997 C 0.08019 0.65927 0.39775 0.0
C6998 C 0.0849 0.67129 0.40954 0.0
C6999 C 0.08709 0.66675 0.426 0.0
H7000 H 0.38409 0.31562 0.823 0.0
H7001 H 0.40416 0.36554 0.8255 0.0
H7002 H 0.3867 0.3133 0.85289 0.0
H7003 H 0.40645 0.36346 0.85532 0.0
H7004 H 0.42016 0.35143 0.90826 0.0
H7005 H 0.42074 0.3509 0.87824 0.0
H7006 H 0.37367 0.32376 0.87725 0.0
H7007 H 0.37337 0.32402 0.90721 0.0
C7008 C 0.38919 0.32606 0.82993 0.0
C7009 C 0.39396 0.34074 0.82185 0.0
C7010 C 0.39056 0.3248 0.84711 0.0
C7011 C 0.39674 0.33821 0.85669 0.0
C7012 C 0.40187 0.35275 0.84847 0.0
C7013 C 0.40049 0.35399 0.83132 0.0
C7014 C 0.41008 0.34514 0.90161 0.0
C7015 C 0.39677 0.3377 0.91015 0.0
C7016 C 0.41031 0.34496 0.88436 0.0
C7017 C 0.3972 0.33736 0.87515 0.0
C7018 C 0.38412 0.32954 0.8838 0.0
C7019 C 0.38391 0.32972 0.90103 0.0
H7020 H 0.8357 0.92547 0.63192 0.0
H7021 H 0.83723 0.90629 0.68139 0.0
H7022 H 0.86616 0.929 0.63272 0.0
H7023 H 0.86787 0.91042 0.68253 0.0
H7024 H 0.92104 0.89252 0.66509 0.0
H7025 H 0.89095 0.89598 0.67027 0.0
H7026 H 0.89073 0.9423 0.64305 0.0
H7027 H 0.92075 0.93835 0.6373 0.0
C7028 C 0.84254 0.92246 0.64316 0.0
C7029 C 0.83419 0.91543 0.65653 0.0
C7030 C 0.86003 0.92459 0.64368 0.0
C7031 C 0.86955 0.91986 0.65765 0.0
C7032 C 0.86097 0.9139 0.67147 0.0
C7033 C 0.84343 0.91165 0.67088 0.0
C7034 C 0.91459 0.90358 0.66047 0.0
C7035 C 0.92308 0.91505 0.65061 0.0
C7036 C 0.89736 0.90565 0.66354 0.0
C7037 C 0.88834 0.91935 0.65694 0.0
C7038 C 0.8972 0.93143 0.64803 0.0
C7039 C 0.9144 0.92923 0.64479 0.0
H7040 H 0.80854 0.15979 0.39053 0.0
H7041 H 0.85853 0.15513 0.41219 0.0
H7042 H 0.80441 0.12969 0.39385 0.0
H7043 H 0.85474 0.12527 0.41503 0.0
H7044 H 0.84415 0.07206 0.42359 0.0
H7045 H 0.84098 0.10224 0.42739 0.0
H7046 H 0.81577 0.10573 0.38005 0.0
H7047 H 0.81841 0.07566 0.37663 0.0
C7048 C 0.81851 0.15237 0.39623 0.0
C7049 C 0.83388 0.15971 0.40099 0.0
C7050 C 0.81621 0.13514 0.39805 0.0
C7051 C 0.82929 0.12501 0.4046 0.0
C7052 C 0.84428 0.13264 0.41016 0.0
C7053 C 0.84653 0.14978 0.40841 0.0
C7054 C 0.83761 0.0793 0.41421 0.0
C7055 C 0.83165 0.07161 0.39977 0.0
C7056 C 0.83587 0.09657 0.41632 0.0
C7057 C 0.82828 0.10647 0.40394 0.0
C7058 C 0.82148 0.09854 0.38993 0.0
C7059 C 0.82311 0.08129 0.3879 0.0
H7060 H 0.56767 0.10284 0.16946 0.0
H7061 H 0.56374 0.07305 0.12543 0.0
H7062 H 0.59852 0.10053 0.16868 0.0
H7063 H 0.59441 0.06979 0.12506 0.0
H7064 H 0.64638 0.09002 0.11319 0.0
H7065 H 0.61626 0.08707 0.1175 0.0
H7066 H 0.62494 0.08659 0.17004 0.0
H7067 H 0.65531 0.09033 0.16555 0.0
C7068 C 0.5734 0.09512 0.16007 0.0
C7069 C 0.56332 0.08805 0.14756 0.0
C7070 C 0.59114 0.09384 0.15953 0.0
C7071 C 0.59916 0.0853 0.14656 0.0
C7072 C 0.58885 0.07696 0.13494 0.0
C7073 C 0.57121 0.07854 0.13529 0.0
C7074 C 0.64189 0.08917 0.12568 0.0
C7075 C 0.65324 0.09041 0.13902 0.0
C7076 C 0.62454 0.0873 0.12819 0.0
C7077 C 0.61795 0.08639 0.14416 0.0
C7078 C 0.62941 0.08738 0.15756 0.0
C7079 C 0.64685 0.08943 0.15502 0.0
H7080 H 0.67298 0.90381 0.86575 0.0
H7081 H 0.66184 0.90729 0.91744 0.0
H7082 H 0.67143 0.87337 0.86728 0.0
H7083 H 0.66054 0.87674 0.91896 0.0
H7084 H 0.66907 0.81764 0.91144 0.0
H7085 H 0.67847 0.84699 0.91198 0.0
H7086 H 0.64127 0.85909 0.87451 0.0
H7087 H 0.63163 0.8303 0.8743 0.0
C7088 C 0.67077 0.89805 0.87754 0.0
C7089 C 0.66733 0.90785 0.89144 0.0
C7090 C 0.66987 0.88066 0.8784 0.0
C7091 C 0.66577 0.87283 0.89321 0.0
C7092 C 0.66383 0.88254 0.90745 0.0
C7093 C 0.66451 0.89997 0.90655 0.0
C7094 C 0.66293 0.82666 0.90341 0.0
C7095 C 0.64961 0.8218 0.89288 0.0
C7096 C 0.66831 0.84333 0.90369 0.0
C7097 C 0.66072 0.85511 0.89311 0.0
C7098 C 0.64748 0.85015 0.8826 0.0
C7099 C 0.64188 0.83372 0.88259 0.0
H7100 H 0.8451 0.07503 0.86329 0.0
H7101 H 0.83644 0.10639 0.82094 0.0
H7102 H 0.8754 0.07548 0.85842 0.0
H7103 H 0.86686 0.10659 0.81577 0.0
H7104 H 0.92942 0.07424 0.84479 0.0
H7105 H 0.89927 0.06837 0.84136 0.0
H7106 H 0.88981 0.12043 0.83035 0.0
H7107 H 0.91994 0.12614 0.83339 0.0
C7108 C 0.84966 0.08161 0.85264 0.0
C7109 C 0.83849 0.0908 0.84257 0.0
C7110 C 0.86704 0.08182 0.84979 0.0
C7111 C 0.87358 0.09121 0.83678 0.0
C7112 C 0.86223 0.09945 0.82604 0.0
C7113 C 0.84483 0.09925 0.82892 0.0
C7114 C 0.92091 0.08433 0.84128 0.0
C7115 C 0.92692 0.10067 0.83951 0.0
C7116 C 0.90365 0.08099 0.83939 0.0
C7117 C 0.89211 0.09396 0.83575 0.0
C7118 C 0.89835 0.11011 0.83298 0.0
C7119 C 0.9156 0.11343 0.83483 0.0
H7120 H 0.63248 0.08902 0.58087 0.0
H7121 H 0.67279 0.09105 0.61707 0.0
H7122 H 0.63265 0.11947 0.57881 0.0
H7123 H 0.67334 0.12145 0.61474 0.0
H7124 H 0.6496 0.17333 0.6251 0.0
H7125 H 0.65519 0.14356 0.62349 0.0
H7126 H 0.64704 0.14491 0.57095 0.0
H7127 H 0.64103 0.17498 0.57267 0.0
C7128 C 0.64161 0.09597 0.58815 0.0
C7129 C 0.65253 0.08765 0.59923 0.0
C7130 C 0.64179 0.11345 0.5869 0.0
C7131 C 0.65292 0.12303 0.5967 0.0
C7132 C 0.66439 0.11456 0.60721 0.0
C7133 C 0.66415 0.0971 0.60849 0.0
C7134 C 0.64929 0.16739 0.61312 0.0
C7135 C 0.64479 0.17658 0.59901 0.0
C7136 C 0.65261 0.15025 0.61219 0.0
C7137 C 0.6515 0.1417 0.5971 0.0
C7138 C 0.64781 0.15103 0.58282 0.0
C7139 C 0.64457 0.16831 0.58375 0.0
H7140 H 0.64824 0.90452 0.35912 0.0
H7141 H 0.65446 0.91389 0.30739 0.0
H7142 H 0.61837 0.91099 0.35669 0.0
H7143 H 0.62404 0.92061 0.30487 0.0
H7144 H 0.56638 0.90155 0.30922 0.0
H7145 H 0.59701 0.9046 0.30681 0.0
H7146 H 0.59814 0.93333 0.35181 0.0
H7147 H 0.5677 0.92974 0.35448 0.0
C7148 C 0.64322 0.90818 0.34721 0.0
C7149 C 0.65366 0.90863 0.33343 0.0
C7150 C 0.62606 0.91209 0.34584 0.0
C7151 C 0.61878 0.91652 0.33061 0.0
C7152 C 0.62928 0.91726 0.31678 0.0
C7153 C 0.64665 0.91347 0.31821 0.0
C7154 C 0.57309 0.90909 0.31823 0.0
C7155 C 0.56473 0.91522 0.33217 0.0
C7156 C 0.59067 0.91082 0.31686 0.0
C7157 C 0.60008 0.91882 0.32936 0.0
C7158 C 0.59132 0.9267 0.3422 0.0
C7159 C 0.57386 0.92477 0.34368 0.0
H7160 H 0.83948 0.9083 0.05799 0.0
H7161 H 0.80623 0.90372 0.09936 0.0
H7162 H 0.83683 0.87834 0.05258 0.0
H7163 H 0.80365 0.87384 0.09403 0.0
H7164 H 0.85356 0.82632 0.07504 0.0
H7165 H 0.84933 0.85602 0.07043 0.0
H7166 H 0.79532 0.8499 0.07519 0.0
H7167 H 0.79966 0.81979 0.07972 0.0
C7168 C 0.83125 0.90096 0.06564 0.0
C7169 C 0.82325 0.90821 0.07922 0.0
C7170 C 0.82976 0.88384 0.06257 0.0
C7171 C 0.82016 0.87374 0.07298 0.0
C7172 C 0.81101 0.88131 0.08571 0.0
C7173 C 0.81259 0.8984 0.08884 0.0
C7174 C 0.84074 0.83123 0.0747 0.0
C7175 C 0.82693 0.82087 0.07785 0.0
C7176 C 0.8383 0.84824 0.07192 0.0
C7177 C 0.82199 0.8553 0.07246 0.0
C7178 C 0.80803 0.84476 0.07474 0.0
C7179 C 0.81048 0.82758 0.07727 0.0
H7180 H 0.9211 0.65123 0.82853 0.0
H7181 H 0.87193 0.67366 0.83574 0.0
H7182 H 0.92715 0.65351 0.85791 0.0
H7183 H 0.87724 0.67486 0.86508 0.0
H7184 H 0.91754 0.63222 0.90945 0.0
H7185 H 0.91899 0.63874 0.88052 0.0
H7186 H 0.89013 0.68414 0.88884 0.0
H7187 H 0.88772 0.67676 0.91777 0.0
C7188 C 0.91167 0.65678 0.83644 0.0
C7189 C 0.896 0.6621 0.83001 0.0
C7190 C 0.91503 0.65798 0.85329 0.0
C7191 C 0.90257 0.66406 0.86405 0.0
C7192 C 0.88729 0.6703 0.85731 0.0
C7193 C 0.88413 0.66949 0.84045 0.0
C7194 C 0.91177 0.64374 0.90512 0.0
C7195 C 0.90228 0.65386 0.9157 0.0
C7196 C 0.91271 0.64761 0.88849 0.0
C7197 C 0.90445 0.66189 0.88214 0.0
C7198 C 0.89622 0.67278 0.89314 0.0
C7199 C 0.89495 0.66867 0.90974 0.0
H7200 H 0.42394 0.86302 0.06889 0.0
H7201 H 0.40058 0.81442 0.06791 0.0
H7202 H 0.42749 0.86104 0.09859 0.0
H7203 H 0.40394 0.81256 0.09776 0.0
H7204 H 0.39002 0.86525 0.14266 0.0
H7205 H 0.39926 0.86254 0.11451 0.0
H7206 H 0.42265 0.81493 0.12581 0.0
H7207 H 0.41355 0.81787 0.15458 0.0
C7208 C 0.42017 0.85163 0.07496 0.0
C7209 C 0.41165 0.83903 0.06622 0.0
C7210 C 0.42222 0.8505 0.09193 0.0
C7211 C 0.41564 0.83682 0.10043 0.0
C7212 C 0.40913 0.82322 0.09147 0.0
C7213 C 0.40719 0.8243 0.07439 0.0
C7214 C 0.39728 0.85427 0.13923 0.0
C7215 C 0.40102 0.84172 0.1507 0.0
C7216 C 0.40273 0.8528 0.12315 0.0
C7217 C 0.41186 0.83863 0.11807 0.0
C7218 C 0.41575 0.82603 0.12953 0.0
C7219 C 0.41056 0.8277 0.14588 0.0
H7220 H 0.07068 0.14884 0.58285 0.0
H7221 H 0.12216 0.16636 0.5831 0.0
H7222 H 0.06997 0.15153 0.61274 0.0
H7223 H 0.12177 0.16855 0.61295 0.0
H7224 H 0.08241 0.13766 0.66662 0.0
H7225 H 0.08051 0.13837 0.63672 0.0
H7226 H 0.11176 0.18246 0.63649 0.0
H7227 H 0.11406 0.18132 0.66642 0.0
C7228 C 0.0818 0.15341 0.58929 0.0
C7229 C 0.09644 0.15745 0.58057 0.0
C7230 C 0.08149 0.15481 0.60649 0.0
C7231 C 0.09585 0.16017 0.61548 0.0
C7232 C 0.11035 0.16461 0.6066 0.0
C7233 C 0.11061 0.1633 0.58942 0.0
C7234 C 0.08868 0.14764 0.66018 0.0
C7235 C 0.09836 0.15945 0.66892 0.0
C7236 C 0.08755 0.1481 0.64297 0.0
C7237 C 0.09604 0.16044 0.63397 0.0
C7238 C 0.10529 0.17257 0.64284 0.0
C7239 C 0.10648 0.17204 0.66006 0.0
H7240 H 0.08317 0.87926 0.82741 0.0
H7241 H 0.09857 0.82744 0.82546 0.0
H7242 H 0.07783 0.8766 0.85676 0.0
H7243 H 0.09295 0.82464 0.85473 0.0
H7244 H 0.10649 0.83545 0.90947 0.0
H7245 H 0.10678 0.83474 0.87958 0.0
H7246 H 0.06053 0.8639 0.87796 0.0
H7247 H 0.06043 0.8648 0.90801 0.0
C7248 C 0.08508 0.86722 0.83321 0.0
C7249 C 0.09136 0.85358 0.82421 0.0
C7250 C 0.08195 0.86566 0.85001 0.0
C7251 C 0.08505 0.85042 0.85814 0.0
C7252 C 0.09066 0.83661 0.84891 0.0
C7253 C 0.09379 0.83818 0.83213 0.0
C7254 C 0.09621 0.84144 0.90273 0.0
C7255 C 0.08346 0.8502 0.91105 0.0
C7256 C 0.09634 0.84099 0.88558 0.0
C7257 C 0.08372 0.84934 0.87634 0.0
C7258 C 0.07055 0.85752 0.88471 0.0
C7259 C 0.07041 0.85792 0.9019 0.0
H7260 H 0.58909 0.37925 0.32329 0.0
H7261 H 0.60387 0.32726 0.32114 0.0
H7262 H 0.58267 0.37625 0.35241 0.0
H7263 H 0.59717 0.32413 0.35012 0.0
H7264 H 0.60992 0.33452 0.40513 0.0
H7265 H 0.6107 0.33394 0.37526 0.0
H7266 H 0.5646 0.3633 0.37304 0.0
H7267 H 0.56399 0.36405 0.40308 0.0
C7268 C 0.59063 0.36711 0.32898 0.0
C7269 C 0.59709 0.35353 0.32003 0.0
C7270 C 0.58688 0.36535 0.34563 0.0
C7271 C 0.58952 0.34996 0.35363 0.0
C7272 C 0.59524 0.3362 0.3444 0.0
C7273 C 0.599 0.33798 0.32779 0.0
C7274 C 0.59976 0.34055 0.39826 0.0
C7275 C 0.58692 0.34936 0.40639 0.0
C7276 C 0.60016 0.34018 0.38112 0.0
C7277 C 0.58775 0.34866 0.37174 0.0
C7278 C 0.57445 0.35683 0.37992 0.0
C7279 C 0.57402 0.35713 0.3971 0.0
H7280 H 0.92384 0.36241 0.57015 0.0
H7281 H 0.89337 0.31796 0.56847 0.0
H7282 H 0.92666 0.35987 0.59987 0.0
H7283 H 0.89525 0.31585 0.59831 0.0
H7284 H 0.89749 0.36968 0.6474 0.0
H7285 H 0.90552 0.36671 0.61894 0.0
H7286 H 0.90858 0.31305 0.62475 0.0
H7287 H 0.89989 0.31614 0.65338 0.0
C7288 C 0.91821 0.35179 0.57615 0.0
C7289 C 0.90831 0.34044 0.56716 0.0
C7290 C 0.91962 0.35043 0.59318 0.0
C7291 C 0.9107 0.338 0.60155 0.0
C7292 C 0.90229 0.32559 0.59231 0.0
C7293 C 0.90122 0.32675 0.57519 0.0
C7294 C 0.90006 0.35727 0.64266 0.0
C7295 C 0.89794 0.34314 0.6525 0.0
C7296 C 0.90488 0.35553 0.62635 0.0
C7297 C 0.90784 0.33962 0.6195 0.0
C7298 C 0.90628 0.32548 0.62958 0.0
C7299 C 0.90135 0.32723 0.64596 0.0
H7300 H 0.56915 0.6444 0.08277 0.0
H7301 H 0.61883 0.66638 0.08297 0.0
H7302 H 0.56832 0.64689 0.11269 0.0
H7303 H 0.6183 0.66847 0.11283 0.0
H7304 H 0.60924 0.6805 0.16631 0.0
H7305 H 0.60665 0.68161 0.13638 0.0
H7306 H 0.58066 0.63429 0.13645 0.0
H7307 H 0.58288 0.6335 0.16633 0.0
C7308 C 0.57984 0.64991 0.0892 0.0
C7309 C 0.59403 0.65523 0.08048 0.0
C7310 C 0.57945 0.6512 0.1064 0.0
C7311 C 0.59329 0.65781 0.11535 0.0
C7312 C 0.60728 0.66354 0.10648 0.0
C7313 C 0.60764 0.66229 0.0893 0.0
C7314 C 0.60275 0.67048 0.15992 0.0
C7315 C 0.59623 0.65694 0.16871 0.0
C7316 C 0.60139 0.67102 0.14271 0.0
C7317 C 0.59353 0.65799 0.13382 0.0
C7318 C 0.58659 0.64469 0.14275 0.0
C7319 C 0.58791 0.64419 0.15994 0.0
H7320 H 0.57124 0.60402 0.82819 0.0
H7321 H 0.56831 0.55307 0.84508 0.0
H7322 H 0.60137 0.60037 0.82335 0.0
H7323 H 0.59847 0.54919 0.83982 0.0
H7324 H 0.65532 0.59002 0.8125 0.0
H7325 H 0.62464 0.58728 0.80903 0.0
H7326 H 0.62271 0.55986 0.8546 0.0
H7327 H 0.65322 0.56229 0.85779 0.0
C7328 C 0.57697 0.59188 0.8304 0.0
C7329 C 0.56755 0.57889 0.8372 0.0
C7330 C 0.59424 0.58974 0.82754 0.0
C7331 C 0.6024 0.57453 0.83138 0.0
C7332 C 0.59262 0.56115 0.83701 0.0
C7333 C 0.57535 0.56332 0.83993 0.0
C7334 C 0.64833 0.58306 0.82152 0.0
C7335 C 0.65655 0.57649 0.83548 0.0
C7336 C 0.63078 0.58158 0.8196 0.0
C7337 C 0.62119 0.57348 0.8316 0.0
C7338 C 0.62967 0.566 0.845 0.0
C7339 C 0.64717 0.56748 0.84691 0.0
H7340 H 0.65507 0.33126 0.06473 0.0
H7341 H 0.68431 0.33628 0.10957 0.0
H7342 H 0.65861 0.36097 0.05923 0.0
H7343 H 0.68699 0.36603 0.1048 0.0
H7344 H 0.69293 0.41918 0.09419 0.0
H7345 H 0.69692 0.38909 0.09116 0.0
H7346 H 0.64688 0.38548 0.06917 0.0
H7347 H 0.64356 0.41561 0.07123 0.0
C7348 C 0.66245 0.33873 0.07329 0.0
C7349 C 0.66934 0.33157 0.08761 0.0
C7350 C 0.66434 0.35579 0.07025 0.0
C7351 C 0.67284 0.3661 0.08168 0.0
C7352 C 0.68055 0.3586 0.09554 0.0
C7353 C 0.67894 0.3415 0.09838 0.0
C7354 C 0.68303 0.41193 0.08829 0.0
C7355 C 0.66791 0.41961 0.08303 0.0
C7356 C 0.68521 0.39466 0.0867 0.0
C7357 C 0.6721 0.38467 0.08023 0.0
C7358 C 0.65738 0.39264 0.07404 0.0
C7359 C 0.65539 0.40996 0.07529 0.0
H7360 H 0.92998 0.39604 0.32453 0.0
H7361 H 0.93312 0.42094 0.37145 0.0
H7362 H 0.89913 0.39789 0.32518 0.0
H7363 H 0.90241 0.42377 0.3718 0.0
H7364 H 0.84223 0.40697 0.3286 0.0
H7365 H 0.87259 0.41159 0.32495 0.0
H7366 H 0.88066 0.4055 0.37722 0.0
H7367 H 0.85051 0.40169 0.38078 0.0
C7368 C 0.92408 0.40265 0.3346 0.0
C7369 C 0.93396 0.40842 0.3479 0.0
C7370 C 0.90633 0.40364 0.33506 0.0
C7371 C 0.89807 0.41063 0.34875 0.0
C7372 C 0.90816 0.41778 0.3613 0.0
C7373 C 0.92583 0.41646 0.36099 0.0
C7374 C 0.85055 0.40682 0.33928 0.0
C7375 C 0.84398 0.40401 0.35498 0.0
C7376 C 0.86799 0.40937 0.3372 0.0
C7377 C 0.87927 0.40905 0.35078 0.0
C7378 C 0.8725 0.40632 0.36646 0.0
C7379 C 0.85514 0.40395 0.36853 0.0
H7380 H 0.84176 0.67403 0.56964 0.0
H7381 H 0.82729 0.6722 0.62046 0.0
H7382 H 0.83121 0.64575 0.56548 0.0
H7383 H 0.81815 0.64356 0.61693 0.0
H7384 H 0.80172 0.59205 0.60979 0.0
H7385 H 0.8013 0.62247 0.60769 0.0
H7386 H 0.84045 0.61953 0.57103 0.0
H7387 H 0.8397 0.58944 0.57227 0.0
C7388 C 0.83626 0.66751 0.5799 0.0
C7389 C 0.83545 0.67512 0.59538 0.0
C7390 C 0.83033 0.65125 0.5776 0.0
C7391 C 0.82408 0.64204 0.59093 0.0
C7392 C 0.82258 0.65013 0.60625 0.0
C7393 C 0.828 0.66656 0.60837 0.0
C7394 C 0.80979 0.59801 0.60093 0.0
C7395 C 0.82085 0.58847 0.59132 0.0
C7396 C 0.80975 0.61546 0.59985 0.0
C7397 C 0.82116 0.62368 0.58948 0.0
C7398 C 0.83132 0.61389 0.57905 0.0
C7399 C 0.83101 0.59651 0.57984 0.0
H7400 H 0.65576 0.39246 0.67565 0.0
H7401 H 0.6484 0.42453 0.6336 0.0
H7402 H 0.62515 0.39124 0.67925 0.0
H7403 H 0.61789 0.42312 0.63698 0.0
H7404 H 0.57482 0.36913 0.6569 0.0
H7405 H 0.60429 0.37643 0.66229 0.0
H7406 H 0.59247 0.42836 0.65283 0.0
H7407 H 0.56304 0.42094 0.64713 0.0
C7408 C 0.64761 0.39963 0.66747 0.0
C7409 C 0.65438 0.40844 0.65424 0.0
C7410 C 0.63009 0.39883 0.66946 0.0
C7411 C 0.61909 0.40683 0.65824 0.0
C7412 C 0.62599 0.41688 0.6459 0.0
C7413 C 0.64349 0.41767 0.64392 0.0
C7414 C 0.57848 0.38213 0.65629 0.0
C7415 C 0.56677 0.39444 0.65141 0.0
C7416 C 0.59533 0.38636 0.6595 0.0
C7417 C 0.60074 0.40299 0.65789 0.0
C7418 C 0.58873 0.41543 0.65396 0.0
C7419 C 0.57189 0.41119 0.65075 0.0
H7420 H 0.84596 0.32143 0.8722 0.0
H7421 H 0.85672 0.31902 0.92426 0.0
H7422 H 0.83918 0.35086 0.87464 0.0
H7423 H 0.84949 0.34878 0.92684 0.0
H7424 H 0.86276 0.40516 0.91614 0.0
H7425 H 0.86288 0.37475 0.91867 0.0
H7426 H 0.82056 0.372 0.88461 0.0
H7427 H 0.82088 0.40232 0.88171 0.0
C7428 C 0.84651 0.32713 0.88428 0.0
C7429 C 0.85201 0.31789 0.89802 0.0
C7430 C 0.84248 0.34406 0.88571 0.0
C7431 C 0.84383 0.3523 0.90094 0.0
C7432 C 0.84849 0.34287 0.91489 0.0
C7433 C 0.85246 0.32578 0.91346 0.0
C7434 C 0.8533 0.39805 0.90944 0.0
C7435 C 0.84194 0.40607 0.89858 0.0
C7436 C 0.85329 0.38061 0.91096 0.0
C7437 C 0.84186 0.37085 0.90169 0.0
C7438 C 0.82977 0.37907 0.89168 0.0
C7439 C 0.82987 0.39646 0.89007 0.0
H7440 H 0.8459 0.59979 0.13314 0.0
H7441 H 0.83949 0.58115 0.18233 0.0
H7442 H 0.87606 0.59419 0.13506 0.0
H7443 H 0.8702 0.57551 0.18432 0.0
H7444 H 0.92893 0.59433 0.18237 0.0
H7445 H 0.89801 0.59284 0.18447 0.0
H7446 H 0.89536 0.56953 0.13664 0.0
H7447 H 0.92601 0.57125 0.13446 0.0
C7448 C 0.85095 0.5944 0.14439 0.0
C7449 C 0.84031 0.59089 0.15759 0.0
C7450 C 0.86827 0.59106 0.14544 0.0
C7451 C 0.87554 0.5842 0.15977 0.0
C7452 C 0.86495 0.58075 0.17311 0.0
C7453 C 0.84741 0.58392 0.17196 0.0
C7454 C 0.92178 0.58827 0.17262 0.0
C7455 C 0.92987 0.58301 0.15819 0.0
C7456 C 0.90406 0.58749 0.17379 0.0
C7457 C 0.89422 0.5814 0.16056 0.0
C7458 C 0.90255 0.57461 0.14689 0.0
C7459 C 0.92013 0.57548 0.1457 0.0
H7460 H 0.68061 0.58733 0.38103 0.0
H7461 H 0.66122 0.58057 0.42984 0.0
H7462 H 0.68449 0.61686 0.38649 0.0
H7463 H 0.66578 0.6102 0.43571 0.0
H7464 H 0.64716 0.66466 0.42586 0.0
H7465 H 0.65131 0.63465 0.42719 0.0
H7466 H 0.69787 0.63927 0.40026 0.0
H7467 H 0.69318 0.66943 0.39833 0.0
C7468 C 0.67761 0.59213 0.39311 0.0
C7469 C 0.6704 0.58178 0.40495 0.0
C7470 C 0.67998 0.60907 0.39633 0.0
C7471 C 0.67534 0.616 0.41153 0.0
C7472 C 0.6692 0.60533 0.42377 0.0
C7473 C 0.66665 0.58837 0.42047 0.0
C7474 C 0.65849 0.65931 0.42056 0.0
C7475 C 0.66974 0.66927 0.41179 0.0
C7476 C 0.66095 0.64207 0.42141 0.0
C7477 C 0.67483 0.63446 0.41364 0.0
C7478 C 0.68685 0.64468 0.40606 0.0
C7479 C 0.68426 0.66195 0.40504 0.0
H7480 H 0.58493 0.85294 0.65857 0.0
H7481 H 0.61278 0.80632 0.65928 0.0
H7482 H 0.58174 0.85091 0.62898 0.0
H7483 H 0.60921 0.80397 0.62944 0.0
H7484 H 0.62529 0.82556 0.57844 0.0
H7485 H 0.62198 0.81906 0.60734 0.0
H7486 H 0.57035 0.83734 0.60507 0.0
H7487 H 0.57395 0.84437 0.57615 0.0
C7488 C 0.59002 0.84203 0.65239 0.0
C7489 C 0.59929 0.82989 0.66113 0.0
C7490 C 0.58806 0.84077 0.63541 0.0
C7491 C 0.5953 0.82731 0.62679 0.0
C7492 C 0.60368 0.8146 0.63571 0.0
C7493 C 0.60567 0.81589 0.65277 0.0
C7494 C 0.6131 0.82782 0.58403 0.0
C7495 C 0.59994 0.83569 0.57519 0.0
C7496 C 0.61115 0.82398 0.60058 0.0
C7497 C 0.59595 0.82787 0.60859 0.0
C7498 C 0.58232 0.83449 0.59933 0.0
C7499 C 0.58433 0.83844 0.58278 0.0
H7500 H 0.42967 0.43359 0.14464 0.0
H7501 H 0.42707 0.38267 0.16162 0.0
H7502 H 0.40031 0.43821 0.15251 0.0
H7503 H 0.39752 0.38687 0.16868 0.0
H7504 H 0.34494 0.39726 0.18322 0.0
H7505 H 0.37581 0.39908 0.18434 0.0
H7506 H 0.37448 0.42999 0.14085 0.0
H7507 H 0.34384 0.42877 0.14031 0.0
C7508 C 0.42282 0.42345 0.15021 0.0
C7509 C 0.43048 0.40775 0.15239 0.0
C7510 C 0.40598 0.42604 0.15464 0.0
C7511 C 0.3964 0.41285 0.161 0.0
C7512 C 0.40448 0.3974 0.16402 0.0
C7513 C 0.42141 0.39492 0.15986 0.0
C7514 C 0.35131 0.40479 0.17421 0.0
C7515 C 0.3421 0.41275 0.1616 0.0
C7516 C 0.36898 0.40573 0.17474 0.0
C7517 C 0.37772 0.41447 0.16255 0.0
C7518 C 0.36829 0.42331 0.15059 0.0
C7519 C 0.35067 0.42253 0.15019 0.0
H7520 H 0.36088 0.58326 0.91232 0.0
H7521 H 0.30772 0.57218 0.91657 0.0
H7522 H 0.3549 0.61277 0.91643 0.0
H7523 H 0.30158 0.60212 0.92048 0.0
H7524 H 0.30508 0.65628 0.89332 0.0
H7525 H 0.30468 0.62645 0.89976 0.0
H7526 H 0.34368 0.63396 0.93666 0.0
H7527 H 0.34421 0.66366 0.93011 0.0
C7528 C 0.34792 0.58716 0.91446 0.0
C7529 C 0.33474 0.57556 0.91408 0.0
C7530 C 0.3445 0.60404 0.91694 0.0
C7531 C 0.32777 0.60972 0.91885 0.0
C7532 C 0.31458 0.59802 0.91908 0.0
C7533 C 0.31808 0.58097 0.9169 0.0
C7534 C 0.31312 0.65163 0.90319 0.0
C7535 C 0.32491 0.66212 0.911 0.0
C7536 C 0.31284 0.63459 0.90693 0.0
C7537 C 0.32436 0.62791 0.91852 0.0
C7538 C 0.33484 0.63879 0.92752 0.0
C7539 C 0.33513 0.65576 0.92377 0.0
H7540 H 0.06348 0.56902 0.62406 0.0
H7541 H 0.06516 0.59891 0.66814 0.0
H7542 H 0.09419 0.56628 0.62482 0.0
H7543 H 0.09601 0.5973 0.66842 0.0
H7544 H 0.15283 0.58922 0.66781 0.0
H7545 H 0.12244 0.58469 0.67098 0.0
H7546 H 0.11652 0.58279 0.61811 0.0
H7547 H 0.14677 0.58632 0.61519 0.0
C7548 C 0.07047 0.5747 0.63414 0.0
C7549 C 0.06193 0.58404 0.64611 0.0
C7550 C 0.08815 0.57343 0.63444 0.0
C7551 C 0.09786 0.58198 0.64641 0.0
C7552 C 0.08916 0.59043 0.65903 0.0
C7553 C 0.0714 0.59132 0.65894 0.0
C7554 C 0.14498 0.5876 0.65693 0.0
C7555 C 0.15218 0.58806 0.64126 0.0
C7556 C 0.1275 0.58511 0.65871 0.0
C7557 C 0.11676 0.58329 0.64483 0.0
C7558 C 0.12419 0.58365 0.62918 0.0
C7559 C 0.14163 0.58585 0.62744 0.0
H7560 H 0.16614 0.40595 0.42635 0.0
H7561 H 0.17951 0.40036 0.37538 0.0
H7562 H 0.16443 0.37563 0.42899 0.0
H7563 H 0.17776 0.37003 0.37799 0.0
H7564 H 0.13317 0.32779 0.41432 0.0
H7565 H 0.14258 0.35668 0.41673 0.0
H7566 H 0.18868 0.34384 0.39152 0.0
H7567 H 0.17923 0.31487 0.38913 0.0
C7568 C 0.16915 0.39822 0.41583 0.0
C7569 C 0.1728 0.40546 0.40062 0.0
C7570 C 0.16807 0.38088 0.41732 0.0
C7571 C 0.17074 0.37049 0.40365 0.0
C7572 C 0.17573 0.37771 0.38877 0.0
C7573 C 0.17671 0.39507 0.38726 0.0
C7574 C 0.14546 0.33108 0.4096 0.0
C7575 C 0.15543 0.31917 0.40148 0.0
C7576 C 0.1509 0.34759 0.41105 0.0
C7577 C 0.16637 0.35252 0.40427 0.0
C7578 C 0.17667 0.34041 0.39676 0.0
C7579 C 0.17129 0.32385 0.39546 0.0
H7580 H 0.41872 0.62272 0.3346 0.0
H7581 H 0.42715 0.57116 0.34801 0.0
H7582 H 0.38881 0.61693 0.32959 0.0
H7583 H 0.39726 0.56524 0.34276 0.0
H7584 H 0.34071 0.57252 0.35893 0.0
H7585 H 0.37148 0.57292 0.35728 0.0
H7586 H 0.36776 0.60209 0.31281 0.0
H7587 H 0.33692 0.60187 0.31463 0.0
C7588 C 0.41422 0.61008 0.33616 0.0
C7589 C 0.42517 0.59742 0.34182 0.0
C7590 C 0.39711 0.60671 0.33319 0.0
C7591 C 0.39064 0.59062 0.33584 0.0
C7592 C 0.40182 0.5778 0.34079 0.0
C7593 C 0.41893 0.58117 0.34373 0.0
C7594 C 0.34646 0.5786 0.34855 0.0
C7595 C 0.33647 0.58728 0.33699 0.0
C7596 C 0.36411 0.57882 0.34758 0.0
C7597 C 0.37208 0.58775 0.33503 0.0
C7598 C 0.36199 0.59536 0.32278 0.0
C7599 C 0.34434 0.59511 0.32374 0.0
H7600 H 0.17373 0.59167 0.12354 0.0
H7601 H 0.1368 0.58911 0.08415 0.0
H7602 H 0.17354 0.62212 0.12173 0.0
H7603 H 0.13612 0.61958 0.08262 0.0
H7604 H 0.14296 0.67551 0.07807 0.0
H7605 H 0.1497 0.6456 0.07638 0.0
H7606 H 0.15467 0.64377 0.12924 0.0
H7607 H 0.1485 0.67339 0.13084 0.0
C7608 C 0.16568 0.59763 0.11438 0.0
C7609 C 0.15523 0.58799 0.10405 0.0
C7610 C 0.16546 0.61512 0.1134 0.0
C7611 C 0.15466 0.62346 0.10215 0.0
C7612 C 0.14474 0.61371 0.09133 0.0
C7613 C 0.14504 0.5962 0.09226 0.0
C7614 C 0.14592 0.66878 0.08927 0.0
C7615 C 0.14513 0.67691 0.10459 0.0
C7616 C 0.14959 0.65156 0.08834 0.0
C7617 C 0.15264 0.64211 0.10269 0.0
C7618 C 0.15263 0.65052 0.11788 0.0
C7619 C 0.14896 0.6676 0.11881 0.0
H7620 H 0.06857 0.39605 0.81309 0.0
H7621 H 0.06804 0.42675 0.85668 0.0
H7622 H 0.09919 0.39966 0.8112 0.0
H7623 H 0.09843 0.43109 0.85446 0.0
H7624 H 0.15035 0.40677 0.86386 0.0
H7625 H 0.12008 0.4113 0.86098 0.0
H7626 H 0.12517 0.41559 0.80837 0.0
H7627 H 0.15577 0.41061 0.81134 0.0
C7628 C 0.0749 0.40431 0.82173 0.0
C7629 C 0.06605 0.41114 0.83502 0.0
C7630 C 0.09247 0.40632 0.82073 0.0
C7631 C 0.10135 0.41532 0.83294 0.0
C7632 C 0.09207 0.42369 0.84513 0.0
C7633 C 0.07463 0.42142 0.84628 0.0
C7634 C 0.14505 0.40883 0.85168 0.0
C7635 C 0.15537 0.40827 0.83782 0.0
C7636 C 0.12768 0.41162 0.85002 0.0
C7637 C 0.12014 0.41399 0.83444 0.0
C7638 C 0.13055 0.41376 0.82054 0.0
C7639 C 0.14804 0.41096 0.82223 0.0
H7640 H 0.35527 0.33257 0.56784 0.0
H7641 H 0.30383 0.32808 0.58444 0.0
H7642 H 0.35104 0.36239 0.56386 0.0
H7643 H 0.29933 0.35801 0.57999 0.0
H7644 H 0.312 0.41194 0.59869 0.0
H7645 H 0.3095 0.38195 0.59489 0.0
H7646 H 0.3374 0.38522 0.5497 0.0
H7647 H 0.34031 0.41534 0.55386 0.0
C7648 C 0.3429 0.33793 0.57024 0.0
C7649 C 0.32993 0.32813 0.57664 0.0
C7650 C 0.34042 0.35502 0.56783 0.0
C7651 C 0.32486 0.36263 0.5717 0.0
C7652 C 0.31153 0.35256 0.57712 0.0
C7653 C 0.31407 0.33544 0.57961 0.0
C7654 C 0.31725 0.40631 0.58775 0.0
C7655 C 0.32655 0.41586 0.57668 0.0
C7656 C 0.31573 0.3891 0.58549 0.0
C7657 C 0.32343 0.38113 0.57208 0.0
C7658 C 0.33159 0.39096 0.56031 0.0
C7659 C 0.33317 0.40819 0.56262 0.0
H7660 H 0.41497 0.15864 0.41936 0.0
H7661 H 0.36084 0.1558 0.41211 0.0
H7662 H 0.41819 0.16581 0.39023 0.0
H7663 H 0.36396 0.16323 0.38334 0.0
H7664 H 0.37245 0.18346 0.33359 0.0
H7665 H 0.37406 0.18583 0.36354 0.0
H7666 H 0.41198 0.14671 0.36495 0.0
H7667 H 0.41027 0.14424 0.33507 0.0
C7668 C 0.40377 0.16004 0.41165 0.0
C7669 C 0.38768 0.15661 0.41785 0.0
C7670 C 0.4056 0.16406 0.39504 0.0
C7671 C 0.39132 0.16508 0.38457 0.0
C7672 C 0.37517 0.16274 0.39115 0.0
C7673 C 0.37339 0.15839 0.40758 0.0
C7674 C 0.38144 0.17568 0.34028 0.0
C7675 C 0.3911 0.16354 0.33209 0.0
C7676 C 0.38234 0.17702 0.35739 0.0
C7677 C 0.39308 0.1664 0.36654 0.0
C7678 C 0.40371 0.15517 0.3582 0.0
C7679 C 0.40265 0.15368 0.34112 0.0
loop_
_geom_bond_atom_site_label_1
_geom_bond_atom_site_label_2
_geom_bond_distance
_geom_bond_site_symmetry_2
_ccdc_geom_bond_type
Dy0 O4 2.398 . S
Dy0 O5 2.491 . S
Dy0 O6 2.403 . S
Dy0 O7 2.664 1_455 S
Dy0 O11 2.326 . S
Dy0 O15 2.310 . S
Dy0 O16 2.351 . S
C1 O12 1.185 . S
C1 O13 1.355 . S
C2 O4 1.185 . S
C2 O5 1.355 . S
Dy3 O7 2.310 . S
Dy3 O10 2.351 1_655 S
Dy3 O12 2.398 . S
Dy3 O13 2.491 . S
Dy3 O14 2.403 1_655 S
Dy3 O15 2.664 1_655 S
Dy3 O17 2.326 . S
O4 Dy0 2.398 . S
O4 C2 1.185 . S
O5 Dy0 2.491 . S
O5 C2 1.355 . S
O6 Dy0 2.403 . S
O6 C8 1.254 1_455 S
O7 Dy0 2.664 1_655 S
O7 Dy3 2.310 . S
O7 C8 1.268 . S
C8 O6 1.254 1_655 S
C8 O7 1.268 . S
C9 O14 1.254 . S
C9 O15 1.268 . S
O10 Dy3 2.351 1_455 S
O10 C18 1.249 . S
O11 Dy0 2.326 . S
O11 C18 1.267 . S
O12 C1 1.185 . S
O12 Dy3 2.398 . S
O13 C1 1.355 . S
O13 Dy3 2.491 . S
O14 Dy3 2.403 1_455 S
O14 C9 1.254 . S
O15 Dy0 2.310 . S
O15 Dy3 2.664 1_455 S
O15 C9 1.268 . S
O16 Dy0 2.351 . S
O16 C19 1.249 1_455 S
O17 Dy3 2.326 . S
O17 C19 1.267 . S
C18 O10 1.249 . S
C18 O11 1.267 . S
C19 O16 1.249 1_655 S
C19 O17 1.267 . S
Dy20 O24 2.398 . S
Dy20 O25 2.491 . S
Dy20 O26 2.403 . S
Dy20 O27 2.664 . S
Dy20 O31 2.326 . S
Dy20 O35 2.310 . S
Dy20 O36 2.351 . S
C21 O32 1.185 . S
C21 O33 1.355 . S
C22 O24 1.185 . S
C22 O25 1.355 . S
Dy23 O27 2.310 . S
Dy23 O30 2.351 . S
Dy23 O32 2.398 . S
Dy23 O33 2.491 . S
Dy23 O34 2.403 . S
Dy23 O35 2.664 . S
Dy23 O37 2.326 . S
O24 Dy20 2.398 . S
O24 C22 1.185 . S
O25 Dy20 2.491 . S
O25 C22 1.355 . S
O26 Dy20 2.403 . S
O26 C28 1.254 . S
O27 Dy20 2.664 . S
O27 Dy23 2.310 . S
O27 C28 1.268 . S
C28 O26 1.254 . S
C28 O27 1.268 . S
C29 O34 1.254 . S
C29 O35 1.268 . S
O30 Dy23 2.351 . S
O30 C38 1.249 . S
O31 Dy20 2.326 . S
O31 C38 1.267 . S
O32 C21 1.185 . S
O32 Dy23 2.398 . S
O33 C21 1.355 . S
O33 Dy23 2.491 . S
O34 Dy23 2.403 . S
O34 C29 1.254 . S
O35 Dy20 2.310 . S
O35 Dy23 2.664 . S
O35 C29 1.268 . S
O36 Dy20 2.351 . S
O36 C39 1.249 . S
O37 Dy23 2.326 . S
O37 C39 1.267 . S
C38 O30 1.249 . S
C38 O31 1.267 . S
C39 O36 1.249 . S
C39 O37 1.267 . S
Dy40 O44 2.398 . S
Dy40 O45 2.491 . S
Dy40 O46 2.403 . S
Dy40 O47 2.664 . S
Dy40 O51 2.326 . S
Dy40 O55 2.310 . S
Dy40 O56 2.351 . S
C41 O52 1.185 . S
C41 O53 1.355 . S
C42 O44 1.185 . S
C42 O45 1.355 . S
Dy43 O47 2.310 . S
Dy43 O50 2.351 . S
Dy43 O52 2.398 . S
Dy43 O53 2.491 . S
Dy43 O54 2.403 . S
Dy43 O55 2.664 . S
Dy43 O57 2.326 . S
O44 Dy40 2.398 . S
O44 C42 1.185 . S
O45 Dy40 2.491 . S
O45 C42 1.355 . S
O46 Dy40 2.403 . S
O46 C48 1.254 . S
O47 Dy40 2.664 . S
O47 Dy43 2.310 . S
O47 C48 1.268 . S
C48 O46 1.254 . S
C48 O47 1.268 . S
C49 O54 1.254 . S
C49 O55 1.268 . S
O50 Dy43 2.351 . S
O50 C58 1.249 . S
O51 Dy40 2.326 . S
O51 C58 1.267 . S
O52 C41 1.185 . S
O52 Dy43 2.398 . S
O53 C41 1.355 . S
O53 Dy43 2.491 . S
O54 Dy43 2.403 . S
O54 C49 1.254 . S
O55 Dy40 2.310 . S
O55 Dy43 2.664 . S
O55 C49 1.268 . S
O56 Dy40 2.351 . S
O56 C59 1.249 . S
O57 Dy43 2.326 . S
O57 C59 1.267 . S
C58 O50 1.249 . S
C58 O51 1.267 . S
C59 O56 1.249 . S
C59 O57 1.267 . S
Dy60 O64 2.398 . S
Dy60 O65 2.491 . S
Dy60 O66 2.403 . S
Dy60 O67 2.664 . S
Dy60 O71 2.326 . S
Dy60 O75 2.310 . S
Dy60 O76 2.351 . S
C61 O72 1.185 . S
C61 O73 1.355 . S
C62 O64 1.185 . S
C62 O65 1.355 . S
Dy63 O67 2.310 . S
Dy63 O70 2.351 . S
Dy63 O72 2.398 . S
Dy63 O73 2.491 . S
Dy63 O74 2.403 . S
Dy63 O75 2.664 . S
Dy63 O77 2.326 . S
O64 Dy60 2.398 . S
O64 C62 1.185 . S
O65 Dy60 2.491 . S
O65 C62 1.355 . S
O66 Dy60 2.403 . S
O66 C68 1.254 . S
O67 Dy60 2.664 . S
O67 Dy63 2.310 . S
O67 C68 1.268 . S
C68 O66 1.254 . S
C68 O67 1.268 . S
C69 O74 1.254 . S
C69 O75 1.268 . S
O70 Dy63 2.351 . S
O70 C78 1.249 . S
O71 Dy60 2.326 . S
O71 C78 1.267 . S
O72 C61 1.185 . S
O72 Dy63 2.398 . S
O73 C61 1.355 . S
O73 Dy63 2.491 . S
O74 Dy63 2.403 . S
O74 C69 1.254 . S
O75 Dy60 2.310 . S
O75 Dy63 2.664 . S
O75 C69 1.268 . S
O76 Dy60 2.351 . S
O76 C79 1.249 . S
O77 Dy63 2.326 . S
O77 C79 1.267 . S
C78 O70 1.249 . S
C78 O71 1.267 . S
C79 O76 1.249 . S
C79 O77 1.267 . S
Dy80 O84 2.398 . S
Dy80 O85 2.491 . S
Dy80 O86 2.403 . S
Dy80 O87 2.664 1_455 S
Dy80 O91 2.326 . S
Dy80 O95 2.310 . S
Dy80 O96 2.351 . S
C81 O92 1.185 . S
C81 O93 1.355 . S
C82 O84 1.185 . S
C82 O85 1.355 . S
Dy83 O87 2.310 . S
Dy83 O90 2.351 1_655 S
Dy83 O92 2.398 . S
Dy83 O93 2.491 . S
Dy83 O94 2.403 1_655 S
Dy83 O95 2.664 1_655 S
Dy83 O97 2.326 . S
O84 Dy80 2.398 . S
O84 C82 1.185 . S
O85 Dy80 2.491 . S
O85 C82 1.355 . S
O86 Dy80 2.403 . S
O86 C88 1.254 1_455 S
O87 Dy80 2.664 1_655 S
O87 Dy83 2.310 . S
O87 C88 1.268 . S
C88 O86 1.254 1_655 S
C88 O87 1.268 . S
C89 O94 1.254 . S
C89 O95 1.268 . S
O90 Dy83 2.351 1_455 S
O90 C98 1.249 . S
O91 Dy80 2.326 . S
O91 C98 1.267 . S
O92 C81 1.185 . S
O92 Dy83 2.398 . S
O93 C81 1.355 . S
O93 Dy83 2.491 . S
O94 Dy83 2.403 1_455 S
O94 C89 1.254 . S
O95 Dy80 2.310 . S
O95 Dy83 2.664 1_455 S
O95 C89 1.268 . S
O96 Dy80 2.351 . S
O96 C99 1.249 1_455 S
O97 Dy83 2.326 . S
O97 C99 1.267 . S
C98 O90 1.249 . S
C98 O91 1.267 . S
C99 O96 1.249 1_655 S
C99 O97 1.267 . S
Dy100 O104 2.398 . S
Dy100 O105 2.491 . S
Dy100 O106 2.403 . S
Dy100 O107 2.664 . S
Dy100 O111 2.326 . S
Dy100 O115 2.310 . S
Dy100 O116 2.351 . S
C101 O112 1.185 . S
C101 O113 1.355 . S
C102 O104 1.185 . S
C102 O105 1.355 . S
Dy103 O107 2.310 . S
Dy103 O110 2.351 . S
Dy103 O112 2.398 . S
Dy103 O113 2.491 . S
Dy103 O114 2.403 . S
Dy103 O115 2.664 . S
Dy103 O117 2.326 . S
O104 Dy100 2.398 . S
O104 C102 1.185 . S
O105 Dy100 2.491 . S
O105 C102 1.355 . S
O106 Dy100 2.403 . S
O106 C108 1.254 . S
O107 Dy100 2.664 . S
O107 Dy103 2.310 . S
O107 C108 1.268 . S
C108 O106 1.254 . S
C108 O107 1.268 . S
C109 O114 1.254 . S
C109 O115 1.268 . S
O110 Dy103 2.351 . S
O110 C118 1.249 . S
O111 Dy100 2.326 . S
O111 C118 1.267 . S
O112 C101 1.185 . S
O112 Dy103 2.398 . S
O113 C101 1.355 . S
O113 Dy103 2.491 . S
O114 Dy103 2.403 . S
O114 C109 1.254 . S
O115 Dy100 2.310 . S
O115 Dy103 2.664 . S
O115 C109 1.268 . S
O116 Dy100 2.351 . S
O116 C119 1.249 . S
O117 Dy103 2.326 . S
O117 C119 1.267 . S
C118 O110 1.249 . S
C118 O111 1.267 . S
C119 O116 1.249 . S
C119 O117 1.267 . S
Dy120 O124 2.398 . S
Dy120 O125 2.491 . S
Dy120 O126 2.403 . S
Dy120 O127 2.664 . S
Dy120 O131 2.326 . S
Dy120 O135 2.310 . S
Dy120 O136 2.351 . S
C121 O132 1.185 . S
C121 O133 1.355 . S
C122 O124 1.185 . S
C122 O125 1.355 . S
Dy123 O127 2.310 . S
Dy123 O130 2.351 . S
Dy123 O132 2.398 . S
Dy123 O133 2.491 . S
Dy123 O134 2.403 . S
Dy123 O135 2.664 . S
Dy123 O137 2.326 . S
O124 Dy120 2.398 . S
O124 C122 1.185 . S
O125 Dy120 2.491 . S
O125 C122 1.355 . S
O126 Dy120 2.403 . S
O126 C128 1.254 . S
O127 Dy120 2.664 . S
O127 Dy123 2.310 . S
O127 C128 1.268 . S
C128 O126 1.254 . S
C128 O127 1.268 . S
C129 O134 1.254 . S
C129 O135 1.268 . S
O130 Dy123 2.351 . S
O130 C138 1.249 . S
O131 Dy120 2.326 . S
O131 C138 1.267 . S
O132 C121 1.185 . S
O132 Dy123 2.398 . S
O133 C121 1.355 . S
O133 Dy123 2.491 . S
O134 Dy123 2.403 . S
O134 C129 1.254 . S
O135 Dy120 2.310 . S
O135 Dy123 2.664 . S
O135 C129 1.268 . S
O136 Dy120 2.351 . S
O136 C139 1.249 . S
O137 Dy123 2.326 . S
O137 C139 1.267 . S
C138 O130 1.249 . S
C138 O131 1.267 . S
C139 O136 1.249 . S
C139 O137 1.267 . S
Dy140 O144 2.398 . S
Dy140 O145 2.491 . S
Dy140 O146 2.403 . S
Dy140 O147 2.664 . S
Dy140 O151 2.326 . S
Dy140 O155 2.310 . S
Dy140 O156 2.351 . S
C141 O152 1.185 . S
C141 O153 1.355 . S
C142 O144 1.185 . S
C142 O145 1.355 . S
Dy143 O147 2.310 . S
Dy143 O150 2.351 . S
Dy143 O152 2.398 . S
Dy143 O153 2.491 . S
Dy143 O154 2.403 . S
Dy143 O155 2.664 . S
Dy143 O157 2.326 . S
O144 Dy140 2.398 . S
O144 C142 1.185 . S
O145 Dy140 2.491 . S
O145 C142 1.355 . S
O146 Dy140 2.403 . S
O146 C148 1.254 . S
O147 Dy140 2.664 . S
O147 Dy143 2.310 . S
O147 C148 1.268 . S
C148 O146 1.254 . S
C148 O147 1.268 . S
C149 O154 1.254 . S
C149 O155 1.268 . S
O150 Dy143 2.351 . S
O150 C158 1.249 . S
O151 Dy140 2.326 . S
O151 C158 1.267 . S
O152 C141 1.185 . S
O152 Dy143 2.398 . S
O153 C141 1.355 . S
O153 Dy143 2.491 . S
O154 Dy143 2.403 . S
O154 C149 1.254 . S
O155 Dy140 2.310 . S
O155 Dy143 2.664 . S
O155 C149 1.268 . S
O156 Dy140 2.351 . S
O156 C159 1.249 . S
O157 Dy143 2.326 . S
O157 C159 1.267 . S
C158 O150 1.249 . S
C158 O151 1.267 . S
C159 O156 1.249 . S
C159 O157 1.267 . S
Dy160 O164 2.398 . S
Dy160 O165 2.491 . S
Dy160 O166 2.403 . S
Dy160 O167 2.664 . S
Dy160 O171 2.326 . S
Dy160 O175 2.310 . S
Dy160 O176 2.351 . S
C161 O172 1.185 . S
C161 O173 1.355 . S
C162 O164 1.185 . S
C162 O165 1.355 . S
Dy163 O167 2.310 . S
Dy163 O170 2.351 . S
Dy163 O172 2.398 1_545 S
Dy163 O173 2.491 1_545 S
Dy163 O174 2.403 . S
Dy163 O175 2.664 . S
Dy163 O177 2.326 . S
O164 Dy160 2.398 . S
O164 C162 1.185 . S
O165 Dy160 2.491 . S
O165 C162 1.355 . S
O166 Dy160 2.403 . S
O166 C168 1.254 . S
O167 Dy160 2.664 . S
O167 Dy163 2.310 . S
O167 C168 1.268 . S
C168 O166 1.254 . S
C168 O167 1.268 . S
C169 O174 1.254 . S
C169 O175 1.268 . S
O170 Dy163 2.351 . S
O170 C178 1.249 . S
O171 Dy160 2.326 . S
O171 C178 1.267 . S
O172 C161 1.185 . S
O172 Dy163 2.398 1_565 S
O173 C161 1.355 . S
O173 Dy163 2.491 1_565 S
O174 Dy163 2.403 . S
O174 C169 1.254 . S
O175 Dy160 2.310 . S
O175 Dy163 2.664 . S
O175 C169 1.268 . S
O176 Dy160 2.351 . S
O176 C179 1.249 . S
O177 Dy163 2.326 . S
O177 C179 1.267 . S
C178 O170 1.249 . S
C178 O171 1.267 . S
C179 O176 1.249 . S
C179 O177 1.267 . S
Dy180 O184 2.398 . S
Dy180 O185 2.491 . S
Dy180 O186 2.403 . S
Dy180 O187 2.664 . S
Dy180 O191 2.326 . S
Dy180 O195 2.310 . S
Dy180 O196 2.351 . S
C181 O192 1.185 . S
C181 O193 1.355 . S
C182 O184 1.185 . S
C182 O185 1.355 . S
Dy183 O187 2.310 . S
Dy183 O190 2.351 . S
Dy183 O192 2.398 . S
Dy183 O193 2.491 . S
Dy183 O194 2.403 . S
Dy183 O195 2.664 . S
Dy183 O197 2.326 . S
O184 Dy180 2.398 . S
O184 C182 1.185 . S
O185 Dy180 2.491 . S
O185 C182 1.355 . S
O186 Dy180 2.403 . S
O186 C188 1.254 . S
O187 Dy180 2.664 . S
O187 Dy183 2.310 . S
O187 C188 1.268 . S
C188 O186 1.254 . S
C188 O187 1.268 . S
C189 O194 1.254 . S
C189 O195 1.268 . S
O190 Dy183 2.351 . S
O190 C198 1.249 . S
O191 Dy180 2.326 . S
O191 C198 1.267 . S
O192 C181 1.185 . S
O192 Dy183 2.398 . S
O193 C181 1.355 . S
O193 Dy183 2.491 . S
O194 Dy183 2.403 . S
O194 C189 1.254 . S
O195 Dy180 2.310 . S
O195 Dy183 2.664 . S
O195 C189 1.268 . S
O196 Dy180 2.351 . S
O196 C199 1.249 . S
O197 Dy183 2.326 . S
O197 C199 1.267 . S
C198 O190 1.249 . S
C198 O191 1.267 . S
C199 O196 1.249 . S
C199 O197 1.267 . S
Dy200 O204 2.398 . S
Dy200 O205 2.491 . S
Dy200 O206 2.403 . S
Dy200 O207 2.664 1_565 S
Dy200 O211 2.326 . S
Dy200 O215 2.310 . S
Dy200 O216 2.351 . S
C201 O212 1.185 . S
C201 O213 1.355 . S
C202 O204 1.185 . S
C202 O205 1.355 . S
Dy203 O207 2.310 . S
Dy203 O210 2.351 1_545 S
Dy203 O212 2.398 . S
Dy203 O213 2.491 . S
Dy203 O214 2.403 1_545 S
Dy203 O215 2.664 1_545 S
Dy203 O217 2.326 . S
O204 Dy200 2.398 . S
O204 C202 1.185 . S
O205 Dy200 2.491 . S
O205 C202 1.355 . S
O206 Dy200 2.403 . S
O206 C208 1.254 1_565 S
O207 Dy200 2.664 1_545 S
O207 Dy203 2.310 . S
O207 C208 1.268 . S
C208 O206 1.254 1_545 S
C208 O207 1.268 . S
C209 O214 1.254 . S
C209 O215 1.268 . S
O210 Dy203 2.351 1_565 S
O210 C218 1.249 . S
O211 Dy200 2.326 . S
O211 C218 1.267 . S
O212 C201 1.185 . S
O212 Dy203 2.398 . S
O213 C201 1.355 . S
O213 Dy203 2.491 . S
O214 Dy203 2.403 1_565 S
O214 C209 1.254 . S
O215 Dy200 2.310 . S
O215 Dy203 2.664 1_565 S
O215 C209 1.268 . S
O216 Dy200 2.351 . S
O216 C219 1.249 1_565 S
O217 Dy203 2.326 . S
O217 C219 1.267 . S
C218 O210 1.249 . S
C218 O211 1.267 . S
C219 O216 1.249 1_545 S
C219 O217 1.267 . S
Dy220 O224 2.398 . S
Dy220 O225 2.491 . S
Dy220 O226 2.403 . S
Dy220 O227 2.664 . S
Dy220 O231 2.326 . S
Dy220 O235 2.310 . S
Dy220 O236 2.351 . S
C221 O232 1.185 . S
C221 O233 1.355 . S
C222 O224 1.185 . S
C222 O225 1.355 . S
Dy223 O227 2.310 . S
Dy223 O230 2.351 . S
Dy223 O232 2.398 . S
Dy223 O233 2.491 . S
Dy223 O234 2.403 . S
Dy223 O235 2.664 . S
Dy223 O237 2.326 . S
O224 Dy220 2.398 . S
O224 C222 1.185 . S
O225 Dy220 2.491 . S
O225 C222 1.355 . S
O226 Dy220 2.403 . S
O226 C228 1.254 . S
O227 Dy220 2.664 . S
O227 Dy223 2.310 . S
O227 C228 1.268 . S
C228 O226 1.254 . S
C228 O227 1.268 . S
C229 O234 1.254 . S
C229 O235 1.268 . S
O230 Dy223 2.351 . S
O230 C238 1.249 . S
O231 Dy220 2.326 . S
O231 C238 1.267 . S
O232 C221 1.185 . S
O232 Dy223 2.398 . S
O233 C221 1.355 . S
O233 Dy223 2.491 . S
O234 Dy223 2.403 . S
O234 C229 1.254 . S
O235 Dy220 2.310 . S
O235 Dy223 2.664 . S
O235 C229 1.268 . S
O236 Dy220 2.351 . S
O236 C239 1.249 . S
O237 Dy223 2.326 . S
O237 C239 1.267 . S
C238 O230 1.249 . S
C238 O231 1.267 . S
C239 O236 1.249 . S
C239 O237 1.267 . S
Dy240 O244 2.398 . S
Dy240 O245 2.491 . S
Dy240 O246 2.403 . S
Dy240 O247 2.664 . S
Dy240 O251 2.326 . S
Dy240 O255 2.310 . S
Dy240 O256 2.351 . S
C241 O252 1.185 . S
C241 O253 1.355 . S
C242 O244 1.185 . S
C242 O245 1.355 . S
Dy243 O247 2.310 . S
Dy243 O250 2.351 . S
Dy243 O252 2.398 1_565 S
Dy243 O253 2.491 1_565 S
Dy243 O254 2.403 . S
Dy243 O255 2.664 . S
Dy243 O257 2.326 . S
O244 Dy240 2.398 . S
O244 C242 1.185 . S
O245 Dy240 2.491 . S
O245 C242 1.355 . S
O246 Dy240 2.403 . S
O246 C248 1.254 . S
O247 Dy240 2.664 . S
O247 Dy243 2.310 . S
O247 C248 1.268 . S
C248 O246 1.254 . S
C248 O247 1.268 . S
C249 O254 1.254 . S
C249 O255 1.268 . S
O250 Dy243 2.351 . S
O250 C258 1.249 . S
O251 Dy240 2.326 . S
O251 C258 1.267 . S
O252 C241 1.185 . S
O252 Dy243 2.398 1_545 S
O253 C241 1.355 . S
O253 Dy243 2.491 1_545 S
O254 Dy243 2.403 . S
O254 C249 1.254 . S
O255 Dy240 2.310 . S
O255 Dy243 2.664 . S
O255 C249 1.268 . S
O256 Dy240 2.351 . S
O256 C259 1.249 . S
O257 Dy243 2.326 . S
O257 C259 1.267 . S
C258 O250 1.249 . S
C258 O251 1.267 . S
C259 O256 1.249 . S
C259 O257 1.267 . S
Dy260 O264 2.398 . S
Dy260 O265 2.491 . S
Dy260 O266 2.403 . S
Dy260 O267 2.664 . S
Dy260 O271 2.326 . S
Dy260 O275 2.310 . S
Dy260 O276 2.351 . S
C261 O272 1.185 . S
C261 O273 1.355 . S
C262 O264 1.185 . S
C262 O265 1.355 . S
Dy263 O267 2.310 . S
Dy263 O270 2.351 . S
Dy263 O272 2.398 . S
Dy263 O273 2.491 . S
Dy263 O274 2.403 . S
Dy263 O275 2.664 . S
Dy263 O277 2.326 . S
O264 Dy260 2.398 . S
O264 C262 1.185 . S
O265 Dy260 2.491 . S
O265 C262 1.355 . S
O266 Dy260 2.403 . S
O266 C268 1.254 . S
O267 Dy260 2.664 . S
O267 Dy263 2.310 . S
O267 C268 1.268 . S
C268 O266 1.254 . S
C268 O267 1.268 . S
C269 O274 1.254 . S
C269 O275 1.268 . S
O270 Dy263 2.351 . S
O270 C278 1.249 . S
O271 Dy260 2.326 . S
O271 C278 1.267 . S
O272 C261 1.185 . S
O272 Dy263 2.398 . S
O273 C261 1.355 . S
O273 Dy263 2.491 . S
O274 Dy263 2.403 . S
O274 C269 1.254 . S
O275 Dy260 2.310 . S
O275 Dy263 2.664 . S
O275 C269 1.268 . S
O276 Dy260 2.351 . S
O276 C279 1.249 . S
O277 Dy263 2.326 . S
O277 C279 1.267 . S
C278 O270 1.249 . S
C278 O271 1.267 . S
C279 O276 1.249 . S
C279 O277 1.267 . S
Dy280 O284 2.398 . S
Dy280 O285 2.491 . S
Dy280 O286 2.403 . S
Dy280 O287 2.664 . S
Dy280 O291 2.326 . S
Dy280 O295 2.310 . S
Dy280 O296 2.351 . S
C281 O292 1.185 . S
C281 O293 1.355 . S
C282 O284 1.185 . S
C282 O285 1.355 . S
Dy283 O287 2.310 . S
Dy283 O290 2.351 . S
Dy283 O292 2.398 1_545 S
Dy283 O293 2.491 1_545 S
Dy283 O294 2.403 . S
Dy283 O295 2.664 . S
Dy283 O297 2.331 . S
O284 Dy280 2.398 . S
O284 C282 1.185 . S
O285 Dy280 2.491 . S
O285 C282 1.355 . S
O286 Dy280 2.403 . S
O286 C288 1.254 . S
O287 Dy280 2.664 . S
O287 Dy283 2.310 . S
O287 C288 1.268 . S
C288 O286 1.254 . S
C288 O287 1.268 . S
C289 O294 1.254 . S
C289 O295 1.268 . S
O290 Dy283 2.351 . S
O290 C298 1.249 . S
O291 Dy280 2.326 . S
O291 C298 1.267 . S
O292 C281 1.185 . S
O292 Dy283 2.398 1_565 S
O293 C281 1.355 . S
O293 Dy283 2.491 1_565 S
O294 Dy283 2.403 . S
O294 C289 1.254 . S
O295 Dy280 2.310 . S
O295 Dy283 2.664 . S
O295 C289 1.268 . S
O296 Dy280 2.351 . S
O296 C299 1.249 . S
O297 Dy283 2.331 . S
O297 C299 1.273 . S
C298 O290 1.249 . S
C298 O291 1.267 . S
C299 O296 1.249 . S
C299 O297 1.273 . S
Dy300 O304 2.398 . S
Dy300 O305 2.491 . S
Dy300 O306 2.403 . S
Dy300 O307 2.664 . S
Dy300 O311 2.326 . S
Dy300 O315 2.310 . S
Dy300 O316 2.351 . S
C301 O312 1.185 . S
C301 O313 1.355 . S
C302 O304 1.185 . S
C302 O305 1.355 . S
Dy303 O307 2.310 . S
Dy303 O310 2.351 . S
Dy303 O312 2.398 . S
Dy303 O313 2.491 . S
Dy303 O314 2.403 . S
Dy303 O315 2.664 . S
Dy303 O317 2.326 . S
O304 Dy300 2.398 . S
O304 C302 1.185 . S
O305 Dy300 2.491 . S
O305 C302 1.355 . S
O306 Dy300 2.403 . S
O306 C308 1.254 . S
O307 Dy300 2.664 . S
O307 Dy303 2.310 . S
O307 C308 1.268 . S
C308 O306 1.254 . S
C308 O307 1.268 . S
C309 O314 1.254 . S
C309 O315 1.268 . S
O310 Dy303 2.351 . S
O310 C318 1.249 . S
O311 Dy300 2.326 . S
O311 C318 1.267 . S
O312 C301 1.185 . S
O312 Dy303 2.398 . S
O313 C301 1.355 . S
O313 Dy303 2.491 . S
O314 Dy303 2.403 . S
O314 C309 1.254 . S
O315 Dy300 2.310 . S
O315 Dy303 2.664 . S
O315 C309 1.268 . S
O316 Dy300 2.351 . S
O316 C319 1.249 . S
O317 Dy303 2.326 . S
O317 C319 1.267 . S
C318 O310 1.249 . S
C318 O311 1.267 . S
C319 O316 1.249 . S
C319 O317 1.267 . S
Dy320 O324 2.398 . S
Dy320 O325 2.491 . S
Dy320 O326 2.403 . S
Dy320 O327 2.664 . S
Dy320 O331 2.326 . S
Dy320 O335 2.310 . S
Dy320 O336 2.351 . S
C321 O332 1.185 . S
C321 O333 1.355 . S
C322 O324 1.185 . S
C322 O325 1.355 . S
Dy323 O327 2.310 . S
Dy323 O330 2.351 . S
Dy323 O332 2.398 1_554 S
Dy323 O333 2.491 1_554 S
Dy323 O334 2.403 . S
Dy323 O335 2.664 . S
Dy323 O337 2.333 . S
O324 Dy320 2.398 . S
O324 C322 1.185 . S
O325 Dy320 2.491 . S
O325 C322 1.355 . S
O326 Dy320 2.403 . S
O326 C328 1.254 . S
O327 Dy320 2.664 . S
O327 Dy323 2.310 . S
O327 C328 1.268 . S
C328 O326 1.254 . S
C328 O327 1.268 . S
C329 O334 1.254 . S
C329 O335 1.268 . S
O330 Dy323 2.351 . S
O330 C338 1.249 . S
O331 Dy320 2.326 . S
O331 C338 1.267 . S
O332 C321 1.185 . S
O332 Dy323 2.398 1_556 S
O333 C321 1.355 . S
O333 Dy323 2.491 1_556 S
O334 Dy323 2.403 . S
O334 C329 1.254 . S
O335 Dy320 2.310 . S
O335 Dy323 2.664 . S
O335 C329 1.268 . S
O336 Dy320 2.351 . S
O336 C339 1.249 . S
O337 Dy323 2.333 . S
O337 C339 1.277 . S
C338 O330 1.249 . S
C338 O331 1.267 . S
C339 O336 1.249 . S
C339 O337 1.277 . S
Dy340 O344 2.398 . S
Dy340 O345 2.491 1_556 S
Dy340 O346 2.403 . S
Dy340 O347 2.664 . S
Dy340 O351 2.305 1_556 S
Dy340 O355 2.310 . S
Dy340 O356 2.351 . S
C341 O352 1.185 . S
C341 O353 1.355 . S
C342 O344 1.185 1_554 S
C342 O345 1.355 . S
Dy343 O347 2.310 . S
Dy343 O350 2.351 1_556 S
Dy343 O352 2.398 . S
Dy343 O353 2.491 . S
Dy343 O354 2.403 . S
Dy343 O355 2.664 . S
Dy343 O357 2.326 . S
O344 Dy340 2.398 . S
O344 C342 1.185 1_556 S
O345 Dy340 2.491 1_554 S
O345 C342 1.355 . S
O346 Dy340 2.403 . S
O346 C348 1.254 . S
O347 Dy340 2.664 . S
O347 Dy343 2.310 . S
O347 C348 1.268 . S
C348 O346 1.254 . S
C348 O347 1.268 . S
C349 O354 1.254 . S
C349 O355 1.268 . S
O350 Dy343 2.351 1_554 S
O350 C358 1.249 . S
O351 Dy340 2.305 1_554 S
O351 C358 1.282 . S
O352 C341 1.185 . S
O352 Dy343 2.398 . S
O353 C341 1.355 . S
O353 Dy343 2.491 . S
O354 Dy343 2.403 . S
O354 C349 1.254 . S
O355 Dy340 2.310 . S
O355 Dy343 2.664 . S
O355 C349 1.268 . S
O356 Dy340 2.351 . S
O356 C359 1.249 . S
O357 Dy343 2.326 . S
O357 C359 1.267 . S
C358 O350 1.249 . S
C358 O351 1.282 . S
C359 O356 1.249 . S
C359 O357 1.267 . S
Dy360 O364 2.398 . S
Dy360 O365 2.491 . S
Dy360 O366 2.403 . S
Dy360 O367 2.664 . S
Dy360 O371 2.326 . S
Dy360 O375 2.310 . S
Dy360 O376 2.351 . S
C361 O372 1.185 . S
C361 O373 1.355 . S
C362 O364 1.185 . S
C362 O365 1.355 . S
Dy363 O367 2.310 . S
Dy363 O370 2.351 . S
Dy363 O372 2.398 . S
Dy363 O373 2.491 . S
Dy363 O374 2.403 . S
Dy363 O375 2.664 . S
Dy363 O377 2.326 . S
O364 Dy360 2.398 . S
O364 C362 1.185 . S
O365 Dy360 2.491 . S
O365 C362 1.355 . S
O366 Dy360 2.403 . S
O366 C368 1.254 . S
O367 Dy360 2.664 . S
O367 Dy363 2.310 . S
O367 C368 1.268 . S
C368 O366 1.254 . S
C368 O367 1.268 . S
C369 O374 1.254 . S
C369 O375 1.268 . S
O370 Dy363 2.351 . S
O370 C378 1.249 . S
O371 Dy360 2.326 . S
O371 C378 1.267 . S
O372 C361 1.185 . S
O372 Dy363 2.398 . S
O373 C361 1.355 . S
O373 Dy363 2.491 . S
O374 Dy363 2.403 . S
O374 C369 1.254 . S
O375 Dy360 2.310 . S
O375 Dy363 2.664 . S
O375 C369 1.268 . S
O376 Dy360 2.351 . S
O376 C379 1.249 . S
O377 Dy363 2.326 . S
O377 C379 1.267 . S
C378 O370 1.249 . S
C378 O371 1.267 . S
C379 O376 1.249 . S
C379 O377 1.267 . S
Dy380 O384 2.398 . S
Dy380 O385 2.491 . S
Dy380 O386 2.403 . S
Dy380 O387 2.664 . S
Dy380 O391 2.326 . S
Dy380 O395 2.310 . S
Dy380 O396 2.351 . S
C381 O392 1.185 . S
C381 O393 1.355 . S
C382 O384 1.185 . S
C382 O385 1.355 . S
Dy383 O387 2.310 . S
Dy383 O390 2.351 . S
Dy383 O392 2.398 . S
Dy383 O393 2.491 . S
Dy383 O394 2.403 . S
Dy383 O395 2.664 . S
Dy383 O397 2.326 . S
O384 Dy380 2.398 . S
O384 C382 1.185 . S
O385 Dy380 2.491 . S
O385 C382 1.355 . S
O386 Dy380 2.403 . S
O386 C388 1.254 . S
O387 Dy380 2.664 . S
O387 Dy383 2.310 . S
O387 C388 1.268 . S
C388 O386 1.254 . S
C388 O387 1.268 . S
C389 O394 1.254 . S
C389 O395 1.268 . S
O390 Dy383 2.351 . S
O390 C398 1.249 . S
O391 Dy380 2.326 . S
O391 C398 1.267 . S
O392 C381 1.185 . S
O392 Dy383 2.398 . S
O393 C381 1.355 . S
O393 Dy383 2.491 . S
O394 Dy383 2.403 . S
O394 C389 1.254 . S
O395 Dy380 2.310 . S
O395 Dy383 2.664 . S
O395 C389 1.268 . S
O396 Dy380 2.351 . S
O396 C399 1.249 . S
O397 Dy383 2.326 . S
O397 C399 1.267 . S
C398 O390 1.249 . S
C398 O391 1.267 . S
C399 O396 1.249 . S
C399 O397 1.267 . S
Dy400 O404 2.398 . S
Dy400 O405 2.491 . S
Dy400 O406 2.403 . S
Dy400 O407 2.664 . S
Dy400 O411 2.326 . S
Dy400 O415 2.310 . S
Dy400 O416 2.351 . S
C401 O412 1.185 . S
C401 O413 1.355 . S
C402 O404 1.185 . S
C402 O405 1.355 . S
Dy403 O407 2.310 . S
Dy403 O410 2.351 . S
Dy403 O412 2.398 . S
Dy403 O413 2.491 . S
Dy403 O414 2.403 . S
Dy403 O415 2.664 . S
Dy403 O417 2.326 . S
O404 Dy400 2.398 . S
O404 C402 1.185 . S
O405 Dy400 2.491 . S
O405 C402 1.355 . S
O406 Dy400 2.403 . S
O406 C408 1.254 . S
O407 Dy400 2.664 . S
O407 Dy403 2.310 . S
O407 C408 1.268 . S
C408 O406 1.254 . S
C408 O407 1.268 . S
C409 O414 1.254 . S
C409 O415 1.268 . S
O410 Dy403 2.351 . S
O410 C418 1.249 . S
O411 Dy400 2.326 . S
O411 C418 1.267 . S
O412 C401 1.185 . S
O412 Dy403 2.398 . S
O413 C401 1.355 . S
O413 Dy403 2.491 . S
O414 Dy403 2.403 . S
O414 C409 1.254 . S
O415 Dy400 2.310 . S
O415 Dy403 2.664 . S
O415 C409 1.268 . S
O416 Dy400 2.351 . S
O416 C419 1.249 . S
O417 Dy403 2.326 . S
O417 C419 1.267 . S
C418 O410 1.249 . S
C418 O411 1.267 . S
C419 O416 1.249 . S
C419 O417 1.267 . S
Dy420 O424 2.398 . S
Dy420 O425 2.491 . S
Dy420 O426 2.403 . S
Dy420 O427 2.664 . S
Dy420 O431 2.326 . S
Dy420 O435 2.310 . S
Dy420 O436 2.351 . S
C421 O432 1.185 . S
C421 O433 1.355 . S
C422 O424 1.185 . S
C422 O425 1.355 . S
Dy423 O427 2.310 . S
Dy423 O430 2.351 . S
Dy423 O432 2.398 . S
Dy423 O433 2.491 . S
Dy423 O434 2.403 . S
Dy423 O435 2.664 . S
Dy423 O437 2.326 . S
O424 Dy420 2.398 . S
O424 C422 1.185 . S
O425 Dy420 2.491 . S
O425 C422 1.355 . S
O426 Dy420 2.403 . S
O426 C428 1.254 . S
O427 Dy420 2.664 . S
O427 Dy423 2.310 . S
O427 C428 1.268 . S
C428 O426 1.254 . S
C428 O427 1.268 . S
C429 O434 1.254 . S
C429 O435 1.268 . S
O430 Dy423 2.351 . S
O430 C438 1.249 . S
O431 Dy420 2.326 . S
O431 C438 1.267 . S
O432 C421 1.185 . S
O432 Dy423 2.398 . S
O433 C421 1.355 . S
O433 Dy423 2.491 . S
O434 Dy423 2.403 . S
O434 C429 1.254 . S
O435 Dy420 2.310 . S
O435 Dy423 2.664 . S
O435 C429 1.268 . S
O436 Dy420 2.351 . S
O436 C439 1.249 . S
O437 Dy423 2.326 . S
O437 C439 1.267 . S
C438 O430 1.249 . S
C438 O431 1.267 . S
C439 O436 1.249 . S
C439 O437 1.267 . S
Dy440 O444 2.398 . S
Dy440 O445 2.491 . S
Dy440 O446 2.403 . S
Dy440 O447 2.664 . S
Dy440 O451 2.326 . S
Dy440 O455 2.310 . S
Dy440 O456 2.351 . S
C441 O452 1.185 . S
C441 O453 1.355 . S
C442 O444 1.185 . S
C442 O445 1.355 . S
Dy443 O447 2.310 . S
Dy443 O450 2.351 . S
Dy443 O452 2.398 . S
Dy443 O453 2.491 . S
Dy443 O454 2.403 . S
Dy443 O455 2.664 . S
Dy443 O457 2.326 . S
O444 Dy440 2.398 . S
O444 C442 1.185 . S
O445 Dy440 2.491 . S
O445 C442 1.355 . S
O446 Dy440 2.403 . S
O446 C448 1.254 . S
O447 Dy440 2.664 . S
O447 Dy443 2.310 . S
O447 C448 1.268 . S
C448 O446 1.254 . S
C448 O447 1.268 . S
C449 O454 1.254 . S
C449 O455 1.268 . S
O450 Dy443 2.351 . S
O450 C458 1.249 . S
O451 Dy440 2.326 . S
O451 C458 1.267 . S
O452 C441 1.185 . S
O452 Dy443 2.398 . S
O453 C441 1.355 . S
O453 Dy443 2.491 . S
O454 Dy443 2.403 . S
O454 C449 1.254 . S
O455 Dy440 2.310 . S
O455 Dy443 2.664 . S
O455 C449 1.268 . S
O456 Dy440 2.351 . S
O456 C459 1.249 . S
O457 Dy443 2.326 . S
O457 C459 1.267 . S
C458 O450 1.249 . S
C458 O451 1.267 . S
C459 O456 1.249 . S
C459 O457 1.267 . S
Dy460 O464 2.398 . S
Dy460 O465 2.491 . S
Dy460 O466 2.403 . S
Dy460 O467 2.664 . S
Dy460 O471 2.326 . S
Dy460 O475 2.310 . S
Dy460 O476 2.351 . S
C461 O472 1.185 . S
C461 O473 1.355 . S
C462 O464 1.185 . S
C462 O465 1.355 . S
Dy463 O467 2.310 . S
Dy463 O470 2.351 . S
Dy463 O472 2.398 . S
Dy463 O473 2.491 . S
Dy463 O474 2.403 . S
Dy463 O475 2.664 . S
Dy463 O477 2.326 . S
O464 Dy460 2.398 . S
O464 C462 1.185 . S
O465 Dy460 2.491 . S
O465 C462 1.355 . S
O466 Dy460 2.403 . S
O466 C468 1.254 . S
O467 Dy460 2.664 . S
O467 Dy463 2.310 . S
O467 C468 1.268 . S
C468 O466 1.254 . S
C468 O467 1.268 . S
C469 O474 1.254 . S
C469 O475 1.268 . S
O470 Dy463 2.351 . S
O470 C478 1.249 . S
O471 Dy460 2.326 . S
O471 C478 1.267 . S
O472 C461 1.185 . S
O472 Dy463 2.398 . S
O473 C461 1.355 . S
O473 Dy463 2.491 . S
O474 Dy463 2.403 . S
O474 C469 1.254 . S
O475 Dy460 2.310 . S
O475 Dy463 2.664 . S
O475 C469 1.268 . S
O476 Dy460 2.351 . S
O476 C479 1.249 . S
O477 Dy463 2.326 . S
O477 C479 1.267 . S
C478 O470 1.249 . S
C478 O471 1.267 . S
C479 O476 1.249 . S
C479 O477 1.267 . S
Dy480 O484 2.398 . S
Dy480 O485 2.491 . S
Dy480 O486 2.403 1_455 S
Dy480 O487 2.664 1_455 S
Dy480 O491 2.326 . S
Dy480 O495 2.310 . S
Dy480 O496 2.351 1_455 S
C481 O492 1.185 . S
C481 O493 1.355 . S
C482 O484 1.185 . S
C482 O485 1.355 . S
Dy483 O487 2.310 . S
Dy483 O490 2.351 . S
Dy483 O492 2.398 . S
Dy483 O493 2.491 . S
Dy483 O494 2.403 . S
Dy483 O495 2.664 1_655 S
Dy483 O497 2.326 . S
O484 Dy480 2.398 . S
O484 C482 1.185 . S
O485 Dy480 2.491 . S
O485 C482 1.355 . S
O486 Dy480 2.403 1_655 S
O486 C488 1.254 . S
O487 Dy480 2.664 1_655 S
O487 Dy483 2.310 . S
O487 C488 1.268 . S
C488 O486 1.254 . S
C488 O487 1.268 . S
C489 O494 1.254 1_455 S
C489 O495 1.268 . S
O490 Dy483 2.351 . S
O490 C498 1.249 1_655 S
O491 Dy480 2.326 . S
O491 C498 1.267 . S
O492 C481 1.185 . S
O492 Dy483 2.398 . S
O493 C481 1.355 . S
O493 Dy483 2.491 . S
O494 Dy483 2.403 . S
O494 C489 1.254 1_655 S
O495 Dy480 2.310 . S
O495 Dy483 2.664 1_455 S
O495 C489 1.268 . S
O496 Dy480 2.351 1_655 S
O496 C499 1.249 . S
O497 Dy483 2.326 . S
O497 C499 1.267 . S
C498 O490 1.249 1_455 S
C498 O491 1.267 . S
C499 O496 1.249 . S
C499 O497 1.267 . S
Dy500 O504 2.398 . S
Dy500 O505 2.491 . S
Dy500 O506 2.403 . S
Dy500 O507 2.664 . S
Dy500 O511 2.326 . S
Dy500 O515 2.310 . S
Dy500 O516 2.351 . S
C501 O512 1.185 . S
C501 O513 1.355 . S
C502 O504 1.185 . S
C502 O505 1.355 . S
Dy503 O507 2.310 . S
Dy503 O510 2.351 . S
Dy503 O512 2.398 . S
Dy503 O513 2.491 . S
Dy503 O514 2.403 . S
Dy503 O515 2.664 . S
Dy503 O517 2.326 . S
O504 Dy500 2.398 . S
O504 C502 1.185 . S
O505 Dy500 2.491 . S
O505 C502 1.355 . S
O506 Dy500 2.403 . S
O506 C508 1.254 . S
O507 Dy500 2.664 . S
O507 Dy503 2.310 . S
O507 C508 1.268 . S
C508 O506 1.254 . S
C508 O507 1.268 . S
C509 O514 1.254 . S
C509 O515 1.268 . S
O510 Dy503 2.351 . S
O510 C518 1.249 . S
O511 Dy500 2.326 . S
O511 C518 1.267 . S
O512 C501 1.185 . S
O512 Dy503 2.398 . S
O513 C501 1.355 . S
O513 Dy503 2.491 . S
O514 Dy503 2.403 . S
O514 C509 1.254 . S
O515 Dy500 2.310 . S
O515 Dy503 2.664 . S
O515 C509 1.268 . S
O516 Dy500 2.351 . S
O516 C519 1.249 . S
O517 Dy503 2.326 . S
O517 C519 1.267 . S
C518 O510 1.249 . S
C518 O511 1.267 . S
C519 O516 1.249 . S
C519 O517 1.267 . S
Dy520 O524 2.398 . S
Dy520 O525 2.491 . S
Dy520 O526 2.403 . S
Dy520 O527 2.664 . S
Dy520 O531 2.326 . S
Dy520 O535 2.310 . S
Dy520 O536 2.351 . S
C521 O532 1.185 . S
C521 O533 1.355 . S
C522 O524 1.185 . S
C522 O525 1.355 . S
Dy523 O527 2.310 . S
Dy523 O530 2.351 . S
Dy523 O532 2.398 . S
Dy523 O533 2.491 . S
Dy523 O534 2.403 . S
Dy523 O535 2.664 . S
Dy523 O537 2.326 . S
O524 Dy520 2.398 . S
O524 C522 1.185 . S
O525 Dy520 2.491 . S
O525 C522 1.355 . S
O526 Dy520 2.403 . S
O526 C528 1.254 . S
O527 Dy520 2.664 . S
O527 Dy523 2.310 . S
O527 C528 1.268 . S
C528 O526 1.254 . S
C528 O527 1.268 . S
C529 O534 1.254 . S
C529 O535 1.268 . S
O530 Dy523 2.351 . S
O530 C538 1.249 . S
O531 Dy520 2.326 . S
O531 C538 1.267 . S
O532 C521 1.185 . S
O532 Dy523 2.398 . S
O533 C521 1.355 . S
O533 Dy523 2.491 . S
O534 Dy523 2.403 . S
O534 C529 1.254 . S
O535 Dy520 2.310 . S
O535 Dy523 2.664 . S
O535 C529 1.268 . S
O536 Dy520 2.351 . S
O536 C539 1.249 . S
O537 Dy523 2.326 . S
O537 C539 1.267 . S
C538 O530 1.249 . S
C538 O531 1.267 . S
C539 O536 1.249 . S
C539 O537 1.267 . S
Dy540 O544 2.398 . S
Dy540 O545 2.491 . S
Dy540 O546 2.403 . S
Dy540 O547 2.664 . S
Dy540 O551 2.326 . S
Dy540 O555 2.310 . S
Dy540 O556 2.351 . S
C541 O552 1.185 . S
C541 O553 1.355 . S
C542 O544 1.185 . S
C542 O545 1.355 . S
Dy543 O547 2.310 . S
Dy543 O550 2.351 . S
Dy543 O552 2.398 . S
Dy543 O553 2.491 . S
Dy543 O554 2.403 . S
Dy543 O555 2.664 . S
Dy543 O557 2.326 . S
O544 Dy540 2.398 . S
O544 C542 1.185 . S
O545 Dy540 2.491 . S
O545 C542 1.355 . S
O546 Dy540 2.403 . S
O546 C548 1.254 . S
O547 Dy540 2.664 . S
O547 Dy543 2.310 . S
O547 C548 1.268 . S
C548 O546 1.254 . S
C548 O547 1.268 . S
C549 O554 1.254 . S
C549 O555 1.268 . S
O550 Dy543 2.351 . S
O550 C558 1.249 . S
O551 Dy540 2.326 . S
O551 C558 1.267 . S
O552 C541 1.185 . S
O552 Dy543 2.398 . S
O553 C541 1.355 . S
O553 Dy543 2.491 . S
O554 Dy543 2.403 . S
O554 C549 1.254 . S
O555 Dy540 2.310 . S
O555 Dy543 2.664 . S
O555 C549 1.268 . S
O556 Dy540 2.351 . S
O556 C559 1.249 . S
O557 Dy543 2.326 . S
O557 C559 1.267 . S
C558 O550 1.249 . S
C558 O551 1.267 . S
C559 O556 1.249 . S
C559 O557 1.267 . S
Dy560 O564 2.398 . S
Dy560 O565 2.491 . S
Dy560 O566 2.403 1_455 S
Dy560 O567 2.664 1_455 S
Dy560 O571 2.326 . S
Dy560 O575 2.310 . S
Dy560 O576 2.351 1_455 S
C561 O572 1.185 . S
C561 O573 1.355 . S
C562 O564 1.185 . S
C562 O565 1.355 . S
Dy563 O567 2.310 . S
Dy563 O570 2.351 . S
Dy563 O572 2.398 . S
Dy563 O573 2.491 . S
Dy563 O574 2.403 . S
Dy563 O575 2.664 1_655 S
Dy563 O577 2.326 . S
O564 Dy560 2.398 . S
O564 C562 1.185 . S
O565 Dy560 2.491 . S
O565 C562 1.355 . S
O566 Dy560 2.403 1_655 S
O566 C568 1.254 . S
O567 Dy560 2.664 1_655 S
O567 Dy563 2.310 . S
O567 C568 1.268 . S
C568 O566 1.254 . S
C568 O567 1.268 . S
C569 O574 1.254 1_455 S
C569 O575 1.268 . S
O570 Dy563 2.351 . S
O570 C578 1.249 1_655 S
O571 Dy560 2.326 . S
O571 C578 1.267 . S
O572 C561 1.185 . S
O572 Dy563 2.398 . S
O573 C561 1.355 . S
O573 Dy563 2.491 . S
O574 Dy563 2.403 . S
O574 C569 1.254 1_655 S
O575 Dy560 2.310 . S
O575 Dy563 2.664 1_455 S
O575 C569 1.268 . S
O576 Dy560 2.351 1_655 S
O576 C579 1.249 . S
O577 Dy563 2.326 . S
O577 C579 1.267 . S
C578 O570 1.249 1_455 S
C578 O571 1.267 . S
C579 O576 1.249 . S
C579 O577 1.267 . S
Dy580 O584 2.398 . S
Dy580 O585 2.491 . S
Dy580 O586 2.403 . S
Dy580 O587 2.664 . S
Dy580 O591 2.326 . S
Dy580 O595 2.310 . S
Dy580 O596 2.351 . S
C581 O592 1.185 . S
C581 O593 1.355 . S
C582 O584 1.185 . S
C582 O585 1.355 . S
Dy583 O587 2.310 . S
Dy583 O590 2.351 . S
Dy583 O592 2.398 . S
Dy583 O593 2.491 . S
Dy583 O594 2.403 . S
Dy583 O595 2.664 . S
Dy583 O597 2.326 . S
O584 Dy580 2.398 . S
O584 C582 1.185 . S
O585 Dy580 2.491 . S
O585 C582 1.355 . S
O586 Dy580 2.403 . S
O586 C588 1.254 . S
O587 Dy580 2.664 . S
O587 Dy583 2.310 . S
O587 C588 1.268 . S
C588 O586 1.254 . S
C588 O587 1.268 . S
C589 O594 1.254 . S
C589 O595 1.268 . S
O590 Dy583 2.351 . S
O590 C598 1.249 . S
O591 Dy580 2.326 . S
O591 C598 1.267 . S
O592 C581 1.185 . S
O592 Dy583 2.398 . S
O593 C581 1.355 . S
O593 Dy583 2.491 . S
O594 Dy583 2.403 . S
O594 C589 1.254 . S
O595 Dy580 2.310 . S
O595 Dy583 2.664 . S
O595 C589 1.268 . S
O596 Dy580 2.351 . S
O596 C599 1.249 . S
O597 Dy583 2.326 . S
O597 C599 1.267 . S
C598 O590 1.249 . S
C598 O591 1.267 . S
C599 O596 1.249 . S
C599 O597 1.267 . S
Dy600 O604 2.398 . S
Dy600 O605 2.491 . S
Dy600 O606 2.403 . S
Dy600 O607 2.664 . S
Dy600 O611 2.326 . S
Dy600 O615 2.310 . S
Dy600 O616 2.351 . S
C601 O612 1.185 . S
C601 O613 1.355 . S
C602 O604 1.185 . S
C602 O605 1.355 . S
Dy603 O607 2.310 . S
Dy603 O610 2.351 . S
Dy603 O612 2.398 . S
Dy603 O613 2.491 . S
Dy603 O614 2.403 . S
Dy603 O615 2.664 . S
Dy603 O617 2.326 . S
O604 Dy600 2.398 . S
O604 C602 1.185 . S
O605 Dy600 2.491 . S
O605 C602 1.355 . S
O606 Dy600 2.403 . S
O606 C608 1.254 . S
O607 Dy600 2.664 . S
O607 Dy603 2.310 . S
O607 C608 1.268 . S
C608 O606 1.254 . S
C608 O607 1.268 . S
C609 O614 1.254 . S
C609 O615 1.268 . S
O610 Dy603 2.351 . S
O610 C618 1.249 . S
O611 Dy600 2.326 . S
O611 C618 1.267 . S
O612 C601 1.185 . S
O612 Dy603 2.398 . S
O613 C601 1.355 . S
O613 Dy603 2.491 . S
O614 Dy603 2.403 . S
O614 C609 1.254 . S
O615 Dy600 2.310 . S
O615 Dy603 2.664 . S
O615 C609 1.268 . S
O616 Dy600 2.351 . S
O616 C619 1.249 . S
O617 Dy603 2.326 . S
O617 C619 1.267 . S
C618 O610 1.249 . S
C618 O611 1.267 . S
C619 O616 1.249 . S
C619 O617 1.267 . S
Dy620 O624 2.398 . S
Dy620 O625 2.491 . S
Dy620 O626 2.403 . S
Dy620 O627 2.664 . S
Dy620 O631 2.326 . S
Dy620 O635 2.310 . S
Dy620 O636 2.351 . S
C621 O632 1.185 . S
C621 O633 1.355 . S
C622 O624 1.185 . S
C622 O625 1.355 . S
Dy623 O627 2.310 . S
Dy623 O630 2.351 . S
Dy623 O632 2.398 . S
Dy623 O633 2.491 . S
Dy623 O634 2.403 . S
Dy623 O635 2.664 . S
Dy623 O637 2.326 . S
O624 Dy620 2.398 . S
O624 C622 1.185 . S
O625 Dy620 2.491 . S
O625 C622 1.355 . S
O626 Dy620 2.403 . S
O626 C628 1.254 . S
O627 Dy620 2.664 . S
O627 Dy623 2.310 . S
O627 C628 1.268 . S
C628 O626 1.254 . S
C628 O627 1.268 . S
C629 O634 1.254 . S
C629 O635 1.268 . S
O630 Dy623 2.351 . S
O630 C638 1.249 . S
O631 Dy620 2.326 . S
O631 C638 1.267 . S
O632 C621 1.185 . S
O632 Dy623 2.398 . S
O633 C621 1.355 . S
O633 Dy623 2.491 . S
O634 Dy623 2.403 . S
O634 C629 1.254 . S
O635 Dy620 2.310 . S
O635 Dy623 2.664 . S
O635 C629 1.268 . S
O636 Dy620 2.351 . S
O636 C639 1.249 . S
O637 Dy623 2.326 . S
O637 C639 1.267 . S
C638 O630 1.249 . S
C638 O631 1.267 . S
C639 O636 1.249 . S
C639 O637 1.267 . S
Dy640 O644 2.398 1_565 S
Dy640 O645 2.491 1_565 S
Dy640 O646 2.403 . S
Dy640 O647 2.664 . S
Dy640 O651 2.326 . S
Dy640 O655 2.310 . S
Dy640 O656 2.351 . S
C641 O652 1.185 . S
C641 O653 1.355 . S
C642 O644 1.185 . S
C642 O645 1.355 . S
Dy643 O647 2.310 . S
Dy643 O650 2.351 . S
Dy643 O652 2.398 . S
Dy643 O653 2.491 . S
Dy643 O654 2.403 . S
Dy643 O655 2.664 . S
Dy643 O657 2.326 . S
O644 Dy640 2.398 1_545 S
O644 C642 1.185 . S
O645 Dy640 2.491 1_545 S
O645 C642 1.355 . S
O646 Dy640 2.403 . S
O646 C648 1.254 . S
O647 Dy640 2.664 . S
O647 Dy643 2.310 . S
O647 C648 1.268 . S
C648 O646 1.254 . S
C648 O647 1.268 . S
C649 O654 1.254 . S
C649 O655 1.268 . S
O650 Dy643 2.351 . S
O650 C658 1.249 . S
O651 Dy640 2.326 . S
O651 C658 1.267 . S
O652 C641 1.185 . S
O652 Dy643 2.398 . S
O653 C641 1.355 . S
O653 Dy643 2.491 . S
O654 Dy643 2.403 . S
O654 C649 1.254 . S
O655 Dy640 2.310 . S
O655 Dy643 2.664 . S
O655 C649 1.268 . S
O656 Dy640 2.351 . S
O656 C659 1.249 . S
O657 Dy643 2.326 . S
O657 C659 1.267 . S
C658 O650 1.249 . S
C658 O651 1.267 . S
C659 O656 1.249 . S
C659 O657 1.267 . S
Dy660 O664 2.398 . S
Dy660 O665 2.491 . S
Dy660 O666 2.403 . S
Dy660 O667 2.664 . S
Dy660 O671 2.326 . S
Dy660 O675 2.310 . S
Dy660 O676 2.351 . S
C661 O672 1.185 . S
C661 O673 1.355 . S
C662 O664 1.185 . S
C662 O665 1.355 . S
Dy663 O667 2.310 . S
Dy663 O670 2.351 . S
Dy663 O672 2.398 . S
Dy663 O673 2.491 . S
Dy663 O674 2.403 . S
Dy663 O675 2.664 . S
Dy663 O677 2.326 . S
O664 Dy660 2.398 . S
O664 C662 1.185 . S
O665 Dy660 2.491 . S
O665 C662 1.355 . S
O666 Dy660 2.403 . S
O666 C668 1.254 . S
O667 Dy660 2.664 . S
O667 Dy663 2.310 . S
O667 C668 1.268 . S
C668 O666 1.254 . S
C668 O667 1.268 . S
C669 O674 1.254 . S
C669 O675 1.268 . S
O670 Dy663 2.351 . S
O670 C678 1.249 . S
O671 Dy660 2.326 . S
O671 C678 1.267 . S
O672 C661 1.185 . S
O672 Dy663 2.398 . S
O673 C661 1.355 . S
O673 Dy663 2.491 . S
O674 Dy663 2.403 . S
O674 C669 1.254 . S
O675 Dy660 2.310 . S
O675 Dy663 2.664 . S
O675 C669 1.268 . S
O676 Dy660 2.351 . S
O676 C679 1.249 . S
O677 Dy663 2.326 . S
O677 C679 1.267 . S
C678 O670 1.249 . S
C678 O671 1.267 . S
C679 O676 1.249 . S
C679 O677 1.267 . S
Dy680 O684 2.398 . S
Dy680 O685 2.491 . S
Dy680 O686 2.403 1_565 S
Dy680 O687 2.664 1_565 S
Dy680 O691 2.326 . S
Dy680 O695 2.310 . S
Dy680 O696 2.351 1_565 S
C681 O692 1.185 . S
C681 O693 1.355 . S
C682 O684 1.185 . S
C682 O685 1.355 . S
Dy683 O687 2.310 . S
Dy683 O690 2.351 . S
Dy683 O692 2.398 . S
Dy683 O693 2.491 . S
Dy683 O694 2.403 . S
Dy683 O695 2.664 1_545 S
Dy683 O697 2.326 . S
O684 Dy680 2.398 . S
O684 C682 1.185 . S
O685 Dy680 2.491 . S
O685 C682 1.355 . S
O686 Dy680 2.403 1_545 S
O686 C688 1.254 . S
O687 Dy680 2.664 1_545 S
O687 Dy683 2.310 . S
O687 C688 1.268 . S
C688 O686 1.254 . S
C688 O687 1.268 . S
C689 O694 1.254 1_565 S
C689 O695 1.268 . S
O690 Dy683 2.351 . S
O690 C698 1.249 1_545 S
O691 Dy680 2.326 . S
O691 C698 1.267 . S
O692 C681 1.185 . S
O692 Dy683 2.398 . S
O693 C681 1.355 . S
O693 Dy683 2.491 . S
O694 Dy683 2.403 . S
O694 C689 1.254 1_545 S
O695 Dy680 2.310 . S
O695 Dy683 2.664 1_565 S
O695 C689 1.268 . S
O696 Dy680 2.351 1_545 S
O696 C699 1.249 . S
O697 Dy683 2.326 . S
O697 C699 1.267 . S
C698 O690 1.249 1_565 S
C698 O691 1.267 . S
C699 O696 1.249 . S
C699 O697 1.267 . S
Dy700 O704 2.398 . S
Dy700 O705 2.491 . S
Dy700 O706 2.403 . S
Dy700 O707 2.664 . S
Dy700 O711 2.326 . S
Dy700 O715 2.310 . S
Dy700 O716 2.351 . S
C701 O712 1.185 . S
C701 O713 1.355 . S
C702 O704 1.185 . S
C702 O705 1.355 . S
Dy703 O707 2.310 . S
Dy703 O710 2.351 . S
Dy703 O712 2.398 . S
Dy703 O713 2.491 . S
Dy703 O714 2.403 . S
Dy703 O715 2.664 . S
Dy703 O717 2.326 . S
O704 Dy700 2.398 . S
O704 C702 1.185 . S
O705 Dy700 2.491 . S
O705 C702 1.355 . S
O706 Dy700 2.403 . S
O706 C708 1.254 . S
O707 Dy700 2.664 . S
O707 Dy703 2.310 . S
O707 C708 1.268 . S
C708 O706 1.254 . S
C708 O707 1.268 . S
C709 O714 1.254 . S
C709 O715 1.268 . S
O710 Dy703 2.351 . S
O710 C718 1.249 . S
O711 Dy700 2.326 . S
O711 C718 1.267 . S
O712 C701 1.185 . S
O712 Dy703 2.398 . S
O713 C701 1.355 . S
O713 Dy703 2.491 . S
O714 Dy703 2.403 . S
O714 C709 1.254 . S
O715 Dy700 2.310 . S
O715 Dy703 2.664 . S
O715 C709 1.268 . S
O716 Dy700 2.351 . S
O716 C719 1.249 . S
O717 Dy703 2.326 . S
O717 C719 1.267 . S
C718 O710 1.249 . S
C718 O711 1.267 . S
C719 O716 1.249 . S
C719 O717 1.267 . S
Dy720 O724 2.398 1_545 S
Dy720 O725 2.491 1_545 S
Dy720 O726 2.403 . S
Dy720 O727 2.664 . S
Dy720 O731 2.326 . S
Dy720 O735 2.310 . S
Dy720 O736 2.351 . S
C721 O732 1.185 . S
C721 O733 1.355 . S
C722 O724 1.185 . S
C722 O725 1.355 . S
Dy723 O727 2.310 . S
Dy723 O730 2.351 . S
Dy723 O732 2.398 . S
Dy723 O733 2.491 . S
Dy723 O734 2.403 . S
Dy723 O735 2.664 . S
Dy723 O737 2.326 . S
O724 Dy720 2.398 1_565 S
O724 C722 1.185 . S
O725 Dy720 2.491 1_565 S
O725 C722 1.355 . S
O726 Dy720 2.403 . S
O726 C728 1.254 . S
O727 Dy720 2.664 . S
O727 Dy723 2.310 . S
O727 C728 1.268 . S
C728 O726 1.254 . S
C728 O727 1.268 . S
C729 O734 1.254 . S
C729 O735 1.268 . S
O730 Dy723 2.351 . S
O730 C738 1.249 . S
O731 Dy720 2.326 . S
O731 C738 1.267 . S
O732 C721 1.185 . S
O732 Dy723 2.398 . S
O733 C721 1.355 . S
O733 Dy723 2.491 . S
O734 Dy723 2.403 . S
O734 C729 1.254 . S
O735 Dy720 2.310 . S
O735 Dy723 2.664 . S
O735 C729 1.268 . S
O736 Dy720 2.351 . S
O736 C739 1.249 . S
O737 Dy723 2.326 . S
O737 C739 1.267 . S
C738 O730 1.249 . S
C738 O731 1.267 . S
C739 O736 1.249 . S
C739 O737 1.267 . S
Dy740 O744 2.398 . S
Dy740 O745 2.491 . S
Dy740 O746 2.403 . S
Dy740 O747 2.664 . S
Dy740 O751 2.326 . S
Dy740 O755 2.310 . S
Dy740 O756 2.351 . S
C741 O752 1.185 . S
C741 O753 1.355 . S
C742 O744 1.185 . S
C742 O745 1.355 . S
Dy743 O747 2.310 . S
Dy743 O750 2.351 . S
Dy743 O752 2.398 . S
Dy743 O753 2.491 . S
Dy743 O754 2.403 . S
Dy743 O755 2.664 . S
Dy743 O757 2.326 . S
O744 Dy740 2.398 . S
O744 C742 1.185 . S
O745 Dy740 2.491 . S
O745 C742 1.355 . S
O746 Dy740 2.403 . S
O746 C748 1.254 . S
O747 Dy740 2.664 . S
O747 Dy743 2.310 . S
O747 C748 1.268 . S
C748 O746 1.254 . S
C748 O747 1.268 . S
C749 O754 1.254 . S
C749 O755 1.268 . S
O750 Dy743 2.351 . S
O750 C758 1.249 . S
O751 Dy740 2.326 . S
O751 C758 1.267 . S
O752 C741 1.185 . S
O752 Dy743 2.398 . S
O753 C741 1.355 . S
O753 Dy743 2.491 . S
O754 Dy743 2.403 . S
O754 C749 1.254 . S
O755 Dy740 2.310 . S
O755 Dy743 2.664 . S
O755 C749 1.268 . S
O756 Dy740 2.351 . S
O756 C759 1.249 . S
O757 Dy743 2.326 . S
O757 C759 1.267 . S
C758 O750 1.249 . S
C758 O751 1.267 . S
C759 O756 1.249 . S
C759 O757 1.267 . S
Dy760 O764 2.398 1_565 S
Dy760 O765 2.491 1_565 S
Dy760 O766 2.403 . S
Dy760 O767 2.664 . S
Dy760 O771 2.331 . S
Dy760 O775 2.310 . S
Dy760 O776 2.351 . S
C761 O772 1.185 . S
C761 O773 1.355 . S
C762 O764 1.185 . S
C762 O765 1.355 . S
Dy763 O767 2.310 . S
Dy763 O770 2.351 . S
Dy763 O772 2.398 . S
Dy763 O773 2.491 . S
Dy763 O774 2.403 . S
Dy763 O775 2.664 . S
Dy763 O777 2.326 . S
O764 Dy760 2.398 1_545 S
O764 C762 1.185 . S
O765 Dy760 2.491 1_545 S
O765 C762 1.355 . S
O766 Dy760 2.403 . S
O766 C768 1.254 . S
O767 Dy760 2.664 . S
O767 Dy763 2.310 . S
O767 C768 1.268 . S
C768 O766 1.254 . S
C768 O767 1.268 . S
C769 O774 1.254 . S
C769 O775 1.268 . S
O770 Dy763 2.351 . S
O770 C778 1.249 . S
O771 Dy760 2.331 . S
O771 C778 1.273 . S
O772 C761 1.185 . S
O772 Dy763 2.398 . S
O773 C761 1.355 . S
O773 Dy763 2.491 . S
O774 Dy763 2.403 . S
O774 C769 1.254 . S
O775 Dy760 2.310 . S
O775 Dy763 2.664 . S
O775 C769 1.268 . S
O776 Dy760 2.351 . S
O776 C779 1.249 . S
O777 Dy763 2.326 . S
O777 C779 1.267 . S
C778 O770 1.249 . S
C778 O771 1.273 . S
C779 O776 1.249 . S
C779 O777 1.267 . S
Dy780 O784 2.398 . S
Dy780 O785 2.491 . S
Dy780 O786 2.403 . S
Dy780 O787 2.664 . S
Dy780 O791 2.326 . S
Dy780 O795 2.310 . S
Dy780 O796 2.351 . S
C781 O792 1.185 . S
C781 O793 1.355 . S
C782 O784 1.185 . S
C782 O785 1.355 . S
Dy783 O787 2.310 . S
Dy783 O790 2.351 . S
Dy783 O792 2.398 . S
Dy783 O793 2.491 . S
Dy783 O794 2.403 . S
Dy783 O795 2.664 . S
Dy783 O797 2.326 . S
O784 Dy780 2.398 . S
O784 C782 1.185 . S
O785 Dy780 2.491 . S
O785 C782 1.355 . S
O786 Dy780 2.403 . S
O786 C788 1.254 . S
O787 Dy780 2.664 . S
O787 Dy783 2.310 . S
O787 C788 1.268 . S
C788 O786 1.254 . S
C788 O787 1.268 . S
C789 O794 1.254 . S
C789 O795 1.268 . S
O790 Dy783 2.351 . S
O790 C798 1.249 . S
O791 Dy780 2.326 . S
O791 C798 1.267 . S
O792 C781 1.185 . S
O792 Dy783 2.398 . S
O793 C781 1.355 . S
O793 Dy783 2.491 . S
O794 Dy783 2.403 . S
O794 C789 1.254 . S
O795 Dy780 2.310 . S
O795 Dy783 2.664 . S
O795 C789 1.268 . S
O796 Dy780 2.351 . S
O796 C799 1.249 . S
O797 Dy783 2.326 . S
O797 C799 1.267 . S
C798 O790 1.249 . S
C798 O791 1.267 . S
C799 O796 1.249 . S
C799 O797 1.267 . S
Dy800 O804 2.398 1_556 S
Dy800 O805 2.491 1_556 S
Dy800 O806 2.403 . S
Dy800 O807 2.664 . S
Dy800 O811 2.333 . S
Dy800 O815 2.310 . S
Dy800 O816 2.351 . S
C801 O812 1.185 . S
C801 O813 1.355 . S
C802 O804 1.185 . S
C802 O805 1.355 . S
Dy803 O807 2.310 . S
Dy803 O810 2.351 . S
Dy803 O812 2.398 . S
Dy803 O813 2.491 . S
Dy803 O814 2.403 . S
Dy803 O815 2.664 . S
Dy803 O817 2.326 . S
O804 Dy800 2.398 1_554 S
O804 C802 1.185 . S
O805 Dy800 2.491 1_554 S
O805 C802 1.355 . S
O806 Dy800 2.403 . S
O806 C808 1.254 . S
O807 Dy800 2.664 . S
O807 Dy803 2.310 . S
O807 C808 1.268 . S
C808 O806 1.254 . S
C808 O807 1.268 . S
C809 O814 1.254 . S
C809 O815 1.268 . S
O810 Dy803 2.351 . S
O810 C818 1.249 . S
O811 Dy800 2.333 . S
O811 C818 1.277 . S
O812 C801 1.185 . S
O812 Dy803 2.398 . S
O813 C801 1.355 . S
O813 Dy803 2.491 . S
O814 Dy803 2.403 . S
O814 C809 1.254 . S
O815 Dy800 2.310 . S
O815 Dy803 2.664 . S
O815 C809 1.268 . S
O816 Dy800 2.351 . S
O816 C819 1.249 . S
O817 Dy803 2.326 . S
O817 C819 1.267 . S
C818 O810 1.249 . S
C818 O811 1.277 . S
C819 O816 1.249 . S
C819 O817 1.267 . S
Dy820 O824 2.398 . S
Dy820 O825 2.491 . S
Dy820 O826 2.403 . S
Dy820 O827 2.664 . S
Dy820 O831 2.326 . S
Dy820 O835 2.310 . S
Dy820 O836 2.351 1_554 S
C821 O832 1.185 1_556 S
C821 O833 1.355 . S
C822 O824 1.185 . S
C822 O825 1.355 . S
Dy823 O827 2.310 . S
Dy823 O830 2.351 . S
Dy823 O832 2.398 . S
Dy823 O833 2.491 1_554 S
Dy823 O834 2.403 . S
Dy823 O835 2.664 . S
Dy823 O837 2.305 1_554 S
O824 Dy820 2.398 . S
O824 C822 1.185 . S
O825 Dy820 2.491 . S
O825 C822 1.355 . S
O826 Dy820 2.403 . S
O826 C828 1.254 . S
O827 Dy820 2.664 . S
O827 Dy823 2.310 . S
O827 C828 1.268 . S
C828 O826 1.254 . S
C828 O827 1.268 . S
C829 O834 1.254 . S
C829 O835 1.268 . S
O830 Dy823 2.351 . S
O830 C838 1.249 . S
O831 Dy820 2.326 . S
O831 C838 1.267 . S
O832 C821 1.185 1_554 S
O832 Dy823 2.398 . S
O833 C821 1.355 . S
O833 Dy823 2.491 1_556 S
O834 Dy823 2.403 . S
O834 C829 1.254 . S
O835 Dy820 2.310 . S
O835 Dy823 2.664 . S
O835 C829 1.268 . S
O836 Dy820 2.351 1_556 S
O836 C839 1.249 . S
O837 Dy823 2.305 1_556 S
O837 C839 1.282 . S
C838 O830 1.249 . S
C838 O831 1.267 . S
C839 O836 1.249 . S
C839 O837 1.282 . S
Dy840 O844 2.398 . S
Dy840 O845 2.491 . S
Dy840 O846 2.403 . S
Dy840 O847 2.664 . S
Dy840 O851 2.326 . S
Dy840 O855 2.310 . S
Dy840 O856 2.351 . S
C841 O852 1.185 . S
C841 O853 1.355 . S
C842 O844 1.185 . S
C842 O845 1.355 . S
Dy843 O847 2.310 . S
Dy843 O850 2.351 . S
Dy843 O852 2.398 . S
Dy843 O853 2.491 . S
Dy843 O854 2.403 . S
Dy843 O855 2.664 . S
Dy843 O857 2.326 . S
O844 Dy840 2.398 . S
O844 C842 1.185 . S
O845 Dy840 2.491 . S
O845 C842 1.355 . S
O846 Dy840 2.403 . S
O846 C848 1.254 . S
O847 Dy840 2.664 . S
O847 Dy843 2.310 . S
O847 C848 1.268 . S
C848 O846 1.254 . S
C848 O847 1.268 . S
C849 O854 1.254 . S
C849 O855 1.268 . S
O850 Dy843 2.351 . S
O850 C858 1.249 . S
O851 Dy840 2.326 . S
O851 C858 1.267 . S
O852 C841 1.185 . S
O852 Dy843 2.398 . S
O853 C841 1.355 . S
O853 Dy843 2.491 . S
O854 Dy843 2.403 . S
O854 C849 1.254 . S
O855 Dy840 2.310 . S
O855 Dy843 2.664 . S
O855 C849 1.268 . S
O856 Dy840 2.351 . S
O856 C859 1.249 . S
O857 Dy843 2.326 . S
O857 C859 1.267 . S
C858 O850 1.249 . S
C858 O851 1.267 . S
C859 O856 1.249 . S
C859 O857 1.267 . S
Dy860 O864 2.398 . S
Dy860 O865 2.491 . S
Dy860 O866 2.403 . S
Dy860 O867 2.664 . S
Dy860 O871 2.326 . S
Dy860 O875 2.310 . S
Dy860 O876 2.351 . S
C861 O872 1.185 . S
C861 O873 1.355 . S
C862 O864 1.185 . S
C862 O865 1.355 . S
Dy863 O867 2.310 . S
Dy863 O870 2.351 . S
Dy863 O872 2.398 . S
Dy863 O873 2.491 . S
Dy863 O874 2.403 . S
Dy863 O875 2.664 . S
Dy863 O877 2.326 . S
O864 Dy860 2.398 . S
O864 C862 1.185 . S
O865 Dy860 2.491 . S
O865 C862 1.355 . S
O866 Dy860 2.403 . S
O866 C868 1.254 . S
O867 Dy860 2.664 . S
O867 Dy863 2.310 . S
O867 C868 1.268 . S
C868 O866 1.254 . S
C868 O867 1.268 . S
C869 O874 1.254 . S
C869 O875 1.268 . S
O870 Dy863 2.351 . S
O870 C878 1.249 . S
O871 Dy860 2.326 . S
O871 C878 1.267 . S
O872 C861 1.185 . S
O872 Dy863 2.398 . S
O873 C861 1.355 . S
O873 Dy863 2.491 . S
O874 Dy863 2.403 . S
O874 C869 1.254 . S
O875 Dy860 2.310 . S
O875 Dy863 2.664 . S
O875 C869 1.268 . S
O876 Dy860 2.351 . S
O876 C879 1.249 . S
O877 Dy863 2.326 . S
O877 C879 1.267 . S
C878 O870 1.249 . S
C878 O871 1.267 . S
C879 O876 1.249 . S
C879 O877 1.267 . S
Dy880 O884 2.398 . S
Dy880 O885 2.491 . S
Dy880 O886 2.403 . S
Dy880 O887 2.664 . S
Dy880 O891 2.326 . S
Dy880 O895 2.310 . S
Dy880 O896 2.351 . S
C881 O892 1.185 . S
C881 O893 1.355 . S
C882 O884 1.185 . S
C882 O885 1.355 . S
Dy883 O887 2.310 . S
Dy883 O890 2.351 . S
Dy883 O892 2.398 . S
Dy883 O893 2.491 . S
Dy883 O894 2.403 . S
Dy883 O895 2.664 . S
Dy883 O897 2.326 . S
O884 Dy880 2.398 . S
O884 C882 1.185 . S
O885 Dy880 2.491 . S
O885 C882 1.355 . S
O886 Dy880 2.403 . S
O886 C888 1.254 . S
O887 Dy880 2.664 . S
O887 Dy883 2.310 . S
O887 C888 1.268 . S
C888 O886 1.254 . S
C888 O887 1.268 . S
C889 O894 1.254 . S
C889 O895 1.268 . S
O890 Dy883 2.351 . S
O890 C898 1.249 . S
O891 Dy880 2.326 . S
O891 C898 1.267 . S
O892 C881 1.185 . S
O892 Dy883 2.398 . S
O893 C881 1.355 . S
O893 Dy883 2.491 . S
O894 Dy883 2.403 . S
O894 C889 1.254 . S
O895 Dy880 2.310 . S
O895 Dy883 2.664 . S
O895 C889 1.268 . S
O896 Dy880 2.351 . S
O896 C899 1.249 . S
O897 Dy883 2.326 . S
O897 C899 1.267 . S
C898 O890 1.249 . S
C898 O891 1.267 . S
C899 O896 1.249 . S
C899 O897 1.267 . S
Dy900 O904 2.398 . S
Dy900 O905 2.491 . S
Dy900 O906 2.403 . S
Dy900 O907 2.664 . S
Dy900 O911 2.326 . S
Dy900 O915 2.310 . S
Dy900 O916 2.351 . S
C901 O912 1.185 . S
C901 O913 1.355 . S
C902 O904 1.185 . S
C902 O905 1.355 . S
Dy903 O907 2.310 . S
Dy903 O910 2.351 . S
Dy903 O912 2.398 . S
Dy903 O913 2.491 . S
Dy903 O914 2.403 . S
Dy903 O915 2.664 . S
Dy903 O917 2.326 . S
O904 Dy900 2.398 . S
O904 C902 1.185 . S
O905 Dy900 2.491 . S
O905 C902 1.355 . S
O906 Dy900 2.403 . S
O906 C908 1.254 . S
O907 Dy900 2.664 . S
O907 Dy903 2.310 . S
O907 C908 1.268 . S
C908 O906 1.254 . S
C908 O907 1.268 . S
C909 O914 1.254 . S
C909 O915 1.268 . S
O910 Dy903 2.351 . S
O910 C918 1.249 . S
O911 Dy900 2.326 . S
O911 C918 1.267 . S
O912 C901 1.185 . S
O912 Dy903 2.398 . S
O913 C901 1.355 . S
O913 Dy903 2.491 . S
O914 Dy903 2.403 . S
O914 C909 1.254 . S
O915 Dy900 2.310 . S
O915 Dy903 2.664 . S
O915 C909 1.268 . S
O916 Dy900 2.351 . S
O916 C919 1.249 . S
O917 Dy903 2.326 . S
O917 C919 1.267 . S
C918 O910 1.249 . S
C918 O911 1.267 . S
C919 O916 1.249 . S
C919 O917 1.267 . S
Dy920 O924 2.398 . S
Dy920 O925 2.491 . S
Dy920 O926 2.403 . S
Dy920 O927 2.664 . S
Dy920 O931 2.326 . S
Dy920 O935 2.310 . S
Dy920 O936 2.351 . S
C921 O932 1.185 . S
C921 O933 1.355 . S
C922 O924 1.185 . S
C922 O925 1.355 . S
Dy923 O927 2.310 . S
Dy923 O930 2.351 . S
Dy923 O932 2.398 . S
Dy923 O933 2.491 . S
Dy923 O934 2.403 . S
Dy923 O935 2.664 . S
Dy923 O937 2.326 . S
O924 Dy920 2.398 . S
O924 C922 1.185 . S
O925 Dy920 2.491 . S
O925 C922 1.355 . S
O926 Dy920 2.403 . S
O926 C928 1.254 . S
O927 Dy920 2.664 . S
O927 Dy923 2.310 . S
O927 C928 1.268 . S
C928 O926 1.254 . S
C928 O927 1.268 . S
C929 O934 1.254 . S
C929 O935 1.268 . S
O930 Dy923 2.351 . S
O930 C938 1.249 . S
O931 Dy920 2.326 . S
O931 C938 1.267 . S
O932 C921 1.185 . S
O932 Dy923 2.398 . S
O933 C921 1.355 . S
O933 Dy923 2.491 . S
O934 Dy923 2.403 . S
O934 C929 1.254 . S
O935 Dy920 2.310 . S
O935 Dy923 2.664 . S
O935 C929 1.268 . S
O936 Dy920 2.351 . S
O936 C939 1.249 . S
O937 Dy923 2.326 . S
O937 C939 1.267 . S
C938 O930 1.249 . S
C938 O931 1.267 . S
C939 O936 1.249 . S
C939 O937 1.267 . S
Dy940 O944 2.398 . S
Dy940 O945 2.491 . S
Dy940 O946 2.403 . S
Dy940 O947 2.664 . S
Dy940 O951 2.326 . S
Dy940 O955 2.310 . S
Dy940 O956 2.351 . S
C941 O952 1.185 . S
C941 O953 1.355 . S
C942 O944 1.185 . S
C942 O945 1.355 . S
Dy943 O947 2.310 . S
Dy943 O950 2.351 . S
Dy943 O952 2.398 . S
Dy943 O953 2.491 . S
Dy943 O954 2.403 . S
Dy943 O955 2.664 . S
Dy943 O957 2.326 . S
O944 Dy940 2.398 . S
O944 C942 1.185 . S
O945 Dy940 2.491 . S
O945 C942 1.355 . S
O946 Dy940 2.403 . S
O946 C948 1.254 . S
O947 Dy940 2.664 . S
O947 Dy943 2.310 . S
O947 C948 1.268 . S
C948 O946 1.254 . S
C948 O947 1.268 . S
C949 O954 1.254 . S
C949 O955 1.268 . S
O950 Dy943 2.351 . S
O950 C958 1.249 . S
O951 Dy940 2.326 . S
O951 C958 1.267 . S
O952 C941 1.185 . S
O952 Dy943 2.398 . S
O953 C941 1.355 . S
O953 Dy943 2.491 . S
O954 Dy943 2.403 . S
O954 C949 1.254 . S
O955 Dy940 2.310 . S
O955 Dy943 2.664 . S
O955 C949 1.268 . S
O956 Dy940 2.351 . S
O956 C959 1.249 . S
O957 Dy943 2.326 . S
O957 C959 1.267 . S
C958 O950 1.249 . S
C958 O951 1.267 . S
C959 O956 1.249 . S
C959 O957 1.267 . S
Dy960 O964 2.398 . S
Dy960 O965 2.491 . S
Dy960 O966 2.403 . S
Dy960 O967 2.664 . S
Dy960 O971 2.326 . S
Dy960 O975 2.310 . S
Dy960 O976 2.351 . S
C961 O972 1.185 . S
C961 O973 1.355 . S
C962 O964 1.185 . S
C962 O965 1.355 . S
Dy963 O967 2.310 . S
Dy963 O970 2.351 . S
Dy963 O972 2.398 . S
Dy963 O973 2.491 . S
Dy963 O974 2.403 . S
Dy963 O975 2.664 . S
Dy963 O977 2.326 . S
O964 Dy960 2.398 . S
O964 C962 1.185 . S
O965 Dy960 2.491 . S
O965 C962 1.355 . S
O966 Dy960 2.403 . S
O966 C968 1.254 . S
O967 Dy960 2.664 . S
O967 Dy963 2.310 . S
O967 C968 1.268 . S
C968 O966 1.254 . S
C968 O967 1.268 . S
C969 O974 1.254 . S
C969 O975 1.268 . S
O970 Dy963 2.351 . S
O970 C978 1.249 . S
O971 Dy960 2.326 . S
O971 C978 1.267 . S
O972 C961 1.185 . S
O972 Dy963 2.398 . S
O973 C961 1.355 . S
O973 Dy963 2.491 . S
O974 Dy963 2.403 . S
O974 C969 1.254 . S
O975 Dy960 2.310 . S
O975 Dy963 2.664 . S
O975 C969 1.268 . S
O976 Dy960 2.351 . S
O976 C979 1.249 . S
O977 Dy963 2.326 . S
O977 C979 1.267 . S
C978 O970 1.249 . S
C978 O971 1.267 . S
C979 O976 1.249 . S
C979 O977 1.267 . S
Dy980 O984 2.398 . S
Dy980 O985 2.491 . S
Dy980 O986 2.403 . S
Dy980 O987 2.664 . S
Dy980 O991 2.326 . S
Dy980 O995 2.310 . S
Dy980 O996 2.351 . S
C981 O992 1.185 . S
C981 O993 1.355 . S
C982 O984 1.185 . S
C982 O985 1.355 . S
Dy983 O987 2.310 . S
Dy983 O990 2.351 . S
Dy983 O992 2.398 . S
Dy983 O993 2.491 . S
Dy983 O994 2.403 . S
Dy983 O995 2.664 . S
Dy983 O997 2.326 . S
O984 Dy980 2.398 . S
O984 C982 1.185 . S
O985 Dy980 2.491 . S
O985 C982 1.355 . S
O986 Dy980 2.403 . S
O986 C988 1.254 . S
O987 Dy980 2.664 . S
O987 Dy983 2.310 . S
O987 C988 1.268 . S
C988 O986 1.254 . S
C988 O987 1.268 . S
C989 O994 1.254 . S
C989 O995 1.268 . S
O990 Dy983 2.351 . S
O990 C998 1.249 . S
O991 Dy980 2.326 . S
O991 C998 1.267 . S
O992 C981 1.185 . S
O992 Dy983 2.398 . S
O993 C981 1.355 . S
O993 Dy983 2.491 . S
O994 Dy983 2.403 . S
O994 C989 1.254 . S
O995 Dy980 2.310 . S
O995 Dy983 2.664 . S
O995 C989 1.268 . S
O996 Dy980 2.351 . S
O996 C999 1.249 . S
O997 Dy983 2.326 . S
O997 C999 1.267 . S
C998 O990 1.249 . S
C998 O991 1.267 . S
C999 O996 1.249 . S
C999 O997 1.267 . S
Dy1000 O1004 2.413 . S
Dy1000 O1005 2.491 1_655 S
Dy1000 O1006 2.403 . S
Dy1000 O1007 2.664 . S
Dy1000 O1011 2.326 1_655 S
Dy1000 O1015 2.310 . S
Dy1000 O1016 2.351 . S
C1001 O1012 1.185 . S
C1001 O1013 1.355 . S
C1002 O1004 1.153 1_455 S
C1002 O1005 1.355 . S
Dy1003 O1007 2.310 . S
Dy1003 O1010 2.351 1_655 S
Dy1003 O1012 2.398 . S
Dy1003 O1013 2.491 . S
Dy1003 O1014 2.403 . S
Dy1003 O1015 2.664 . S
Dy1003 O1017 2.326 . S
O1004 Dy1000 2.413 . S
O1004 C1002 1.153 1_655 S
O1005 Dy1000 2.491 1_455 S
O1005 C1002 1.355 . S
O1006 Dy1000 2.403 . S
O1006 C1008 1.254 . S
O1007 Dy1000 2.664 . S
O1007 Dy1003 2.310 . S
O1007 C1008 1.268 . S
C1008 O1006 1.254 . S
C1008 O1007 1.268 . S
C1009 O1014 1.254 1_455 S
C1009 O1015 1.268 1_455 S
O1010 Dy1003 2.351 1_455 S
O1010 C1018 1.249 . S
O1011 Dy1000 2.326 1_455 S
O1011 C1018 1.267 . S
O1012 C1001 1.185 . S
O1012 Dy1003 2.398 . S
O1013 C1001 1.355 . S
O1013 Dy1003 2.491 . S
O1014 Dy1003 2.403 . S
O1014 C1009 1.254 1_655 S
O1015 Dy1000 2.310 . S
O1015 Dy1003 2.664 . S
O1015 C1009 1.268 1_655 S
O1016 Dy1000 2.351 . S
O1016 C1019 1.249 . S
O1017 Dy1003 2.326 . S
O1017 C1019 1.267 . S
C1018 O1010 1.249 . S
C1018 O1011 1.267 . S
C1019 O1016 1.249 . S
C1019 O1017 1.267 . S
Dy1020 O1024 2.398 . S
Dy1020 O1025 2.491 . S
Dy1020 O1026 2.403 . S
Dy1020 O1027 2.664 . S
Dy1020 O1031 2.326 . S
Dy1020 O1035 2.310 . S
Dy1020 O1036 2.351 . S
C1021 O1032 1.185 . S
C1021 O1033 1.355 . S
C1022 O1024 1.185 . S
C1022 O1025 1.355 . S
Dy1023 O1027 2.310 . S
Dy1023 O1030 2.351 . S
Dy1023 O1032 2.398 . S
Dy1023 O1033 2.491 . S
Dy1023 O1034 2.403 . S
Dy1023 O1035 2.664 . S
Dy1023 O1037 2.326 . S
O1024 Dy1020 2.398 . S
O1024 C1022 1.185 . S
O1025 Dy1020 2.491 . S
O1025 C1022 1.355 . S
O1026 Dy1020 2.403 . S
O1026 C1028 1.254 . S
O1027 Dy1020 2.664 . S
O1027 Dy1023 2.310 . S
O1027 C1028 1.268 . S
C1028 O1026 1.254 . S
C1028 O1027 1.268 . S
C1029 O1034 1.254 . S
C1029 O1035 1.268 . S
O1030 Dy1023 2.351 . S
O1030 C1038 1.249 . S
O1031 Dy1020 2.326 . S
O1031 C1038 1.267 . S
O1032 C1021 1.185 . S
O1032 Dy1023 2.398 . S
O1033 C1021 1.355 . S
O1033 Dy1023 2.491 . S
O1034 Dy1023 2.403 . S
O1034 C1029 1.254 . S
O1035 Dy1020 2.310 . S
O1035 Dy1023 2.664 . S
O1035 C1029 1.268 . S
O1036 Dy1020 2.351 . S
O1036 C1039 1.249 . S
O1037 Dy1023 2.326 . S
O1037 C1039 1.267 . S
C1038 O1030 1.249 . S
C1038 O1031 1.267 . S
C1039 O1036 1.249 . S
C1039 O1037 1.267 . S
Dy1040 O1044 2.398 . S
Dy1040 O1045 2.491 . S
Dy1040 O1046 2.403 . S
Dy1040 O1047 2.664 . S
Dy1040 O1051 2.326 . S
Dy1040 O1055 2.310 . S
Dy1040 O1056 2.351 . S
C1041 O1052 1.185 . S
C1041 O1053 1.355 . S
C1042 O1044 1.185 . S
C1042 O1045 1.355 . S
Dy1043 O1047 2.310 . S
Dy1043 O1050 2.351 . S
Dy1043 O1052 2.398 . S
Dy1043 O1053 2.491 . S
Dy1043 O1054 2.403 . S
Dy1043 O1055 2.664 . S
Dy1043 O1057 2.326 . S
O1044 Dy1040 2.398 . S
O1044 C1042 1.185 . S
O1045 Dy1040 2.491 . S
O1045 C1042 1.355 . S
O1046 Dy1040 2.403 . S
O1046 C1048 1.254 . S
O1047 Dy1040 2.664 . S
O1047 Dy1043 2.310 . S
O1047 C1048 1.268 . S
C1048 O1046 1.254 . S
C1048 O1047 1.268 . S
C1049 O1054 1.254 . S
C1049 O1055 1.268 . S
O1050 Dy1043 2.351 . S
O1050 C1058 1.249 . S
O1051 Dy1040 2.326 . S
O1051 C1058 1.267 . S
O1052 C1041 1.185 . S
O1052 Dy1043 2.398 . S
O1053 C1041 1.355 . S
O1053 Dy1043 2.491 . S
O1054 Dy1043 2.403 . S
O1054 C1049 1.254 . S
O1055 Dy1040 2.310 . S
O1055 Dy1043 2.664 . S
O1055 C1049 1.268 . S
O1056 Dy1040 2.351 . S
O1056 C1059 1.249 . S
O1057 Dy1043 2.326 . S
O1057 C1059 1.267 . S
C1058 O1050 1.249 . S
C1058 O1051 1.267 . S
C1059 O1056 1.249 . S
C1059 O1057 1.267 . S
Dy1060 O1064 2.398 . S
Dy1060 O1065 2.491 . S
Dy1060 O1066 2.403 . S
Dy1060 O1067 2.664 . S
Dy1060 O1071 2.326 . S
Dy1060 O1075 2.310 . S
Dy1060 O1076 2.351 . S
C1061 O1072 1.185 . S
C1061 O1073 1.355 . S
C1062 O1064 1.185 . S
C1062 O1065 1.355 . S
Dy1063 O1067 2.310 . S
Dy1063 O1070 2.351 . S
Dy1063 O1072 2.398 . S
Dy1063 O1073 2.491 . S
Dy1063 O1074 2.403 . S
Dy1063 O1075 2.664 . S
Dy1063 O1077 2.326 . S
O1064 Dy1060 2.398 . S
O1064 C1062 1.185 . S
O1065 Dy1060 2.491 . S
O1065 C1062 1.355 . S
O1066 Dy1060 2.403 . S
O1066 C1068 1.254 . S
O1067 Dy1060 2.664 . S
O1067 Dy1063 2.310 . S
O1067 C1068 1.268 . S
C1068 O1066 1.254 . S
C1068 O1067 1.268 . S
C1069 O1074 1.254 . S
C1069 O1075 1.268 . S
O1070 Dy1063 2.351 . S
O1070 C1078 1.249 . S
O1071 Dy1060 2.326 . S
O1071 C1078 1.267 . S
O1072 C1061 1.185 . S
O1072 Dy1063 2.398 . S
O1073 C1061 1.355 . S
O1073 Dy1063 2.491 . S
O1074 Dy1063 2.403 . S
O1074 C1069 1.254 . S
O1075 Dy1060 2.310 . S
O1075 Dy1063 2.664 . S
O1075 C1069 1.268 . S
O1076 Dy1060 2.351 . S
O1076 C1079 1.249 . S
O1077 Dy1063 2.326 . S
O1077 C1079 1.267 . S
C1078 O1070 1.249 . S
C1078 O1071 1.267 . S
C1079 O1076 1.249 . S
C1079 O1077 1.267 . S
Dy1080 O1084 2.398 . S
Dy1080 O1085 2.491 1_655 S
Dy1080 O1086 2.403 . S
Dy1080 O1087 2.664 . S
Dy1080 O1091 2.326 1_655 S
Dy1080 O1095 2.310 . S
Dy1080 O1096 2.351 . S
C1081 O1092 1.185 . S
C1081 O1093 1.355 . S
C1082 O1084 1.185 1_455 S
C1082 O1085 1.355 . S
Dy1083 O1087 2.310 . S
Dy1083 O1090 2.351 1_655 S
Dy1083 O1092 2.398 . S
Dy1083 O1093 2.491 . S
Dy1083 O1094 2.403 . S
Dy1083 O1095 2.664 . S
Dy1083 O1097 2.326 . S
O1084 Dy1080 2.398 . S
O1084 C1082 1.185 1_655 S
O1085 Dy1080 2.491 1_455 S
O1085 C1082 1.355 . S
O1086 Dy1080 2.403 . S
O1086 C1088 1.254 . S
O1087 Dy1080 2.664 . S
O1087 Dy1083 2.310 . S
O1087 C1088 1.268 . S
C1088 O1086 1.254 . S
C1088 O1087 1.268 . S
C1089 O1094 1.255 1_455 S
C1089 O1095 1.268 1_455 S
O1090 Dy1083 2.351 1_455 S
O1090 C1098 1.249 . S
O1091 Dy1080 2.326 1_455 S
O1091 C1098 1.267 . S
O1092 C1081 1.185 . S
O1092 Dy1083 2.398 . S
O1093 C1081 1.355 . S
O1093 Dy1083 2.491 . S
O1094 Dy1083 2.403 . S
O1094 C1089 1.255 1_655 S
O1095 Dy1080 2.310 . S
O1095 Dy1083 2.664 . S
O1095 C1089 1.268 1_655 S
O1096 Dy1080 2.351 . S
O1096 C1099 1.249 . S
O1097 Dy1083 2.326 . S
O1097 C1099 1.267 . S
C1098 O1090 1.249 . S
C1098 O1091 1.267 . S
C1099 O1096 1.249 . S
C1099 O1097 1.267 . S
Dy1100 O1104 2.398 . S
Dy1100 O1105 2.491 . S
Dy1100 O1106 2.403 . S
Dy1100 O1107 2.664 . S
Dy1100 O1111 2.326 . S
Dy1100 O1115 2.310 . S
Dy1100 O1116 2.351 . S
C1101 O1112 1.185 . S
C1101 O1113 1.355 . S
C1102 O1104 1.185 . S
C1102 O1105 1.355 . S
Dy1103 O1107 2.310 . S
Dy1103 O1110 2.351 . S
Dy1103 O1112 2.398 . S
Dy1103 O1113 2.491 . S
Dy1103 O1114 2.403 . S
Dy1103 O1115 2.664 . S
Dy1103 O1117 2.326 . S
O1104 Dy1100 2.398 . S
O1104 C1102 1.185 . S
O1105 Dy1100 2.491 . S
O1105 C1102 1.355 . S
O1106 Dy1100 2.403 . S
O1106 C1108 1.254 . S
O1107 Dy1100 2.664 . S
O1107 Dy1103 2.310 . S
O1107 C1108 1.268 . S
C1108 O1106 1.254 . S
C1108 O1107 1.268 . S
C1109 O1114 1.254 . S
C1109 O1115 1.268 . S
O1110 Dy1103 2.351 . S
O1110 C1118 1.249 . S
O1111 Dy1100 2.326 . S
O1111 C1118 1.267 . S
O1112 C1101 1.185 . S
O1112 Dy1103 2.398 . S
O1113 C1101 1.355 . S
O1113 Dy1103 2.491 . S
O1114 Dy1103 2.403 . S
O1114 C1109 1.254 . S
O1115 Dy1100 2.310 . S
O1115 Dy1103 2.664 . S
O1115 C1109 1.268 . S
O1116 Dy1100 2.351 . S
O1116 C1119 1.249 . S
O1117 Dy1103 2.326 . S
O1117 C1119 1.267 . S
C1118 O1110 1.249 . S
C1118 O1111 1.267 . S
C1119 O1116 1.249 . S
C1119 O1117 1.267 . S
Dy1120 O1124 2.398 . S
Dy1120 O1125 2.491 . S
Dy1120 O1126 2.403 . S
Dy1120 O1127 2.664 . S
Dy1120 O1131 2.326 . S
Dy1120 O1135 2.310 . S
Dy1120 O1136 2.351 . S
C1121 O1132 1.185 . S
C1121 O1133 1.355 . S
C1122 O1124 1.185 . S
C1122 O1125 1.355 . S
Dy1123 O1127 2.310 . S
Dy1123 O1130 2.351 . S
Dy1123 O1132 2.398 . S
Dy1123 O1133 2.491 . S
Dy1123 O1134 2.403 . S
Dy1123 O1135 2.664 . S
Dy1123 O1137 2.326 . S
O1124 Dy1120 2.398 . S
O1124 C1122 1.185 . S
O1125 Dy1120 2.491 . S
O1125 C1122 1.355 . S
O1126 Dy1120 2.403 . S
O1126 C1128 1.254 . S
O1127 Dy1120 2.664 . S
O1127 Dy1123 2.310 . S
O1127 C1128 1.268 . S
C1128 O1126 1.254 . S
C1128 O1127 1.268 . S
C1129 O1134 1.254 . S
C1129 O1135 1.268 . S
O1130 Dy1123 2.351 . S
O1130 C1138 1.249 . S
O1131 Dy1120 2.326 . S
O1131 C1138 1.267 . S
O1132 C1121 1.185 . S
O1132 Dy1123 2.398 . S
O1133 C1121 1.355 . S
O1133 Dy1123 2.491 . S
O1134 Dy1123 2.403 . S
O1134 C1129 1.254 . S
O1135 Dy1120 2.310 . S
O1135 Dy1123 2.664 . S
O1135 C1129 1.268 . S
O1136 Dy1120 2.351 . S
O1136 C1139 1.249 . S
O1137 Dy1123 2.326 . S
O1137 C1139 1.267 . S
C1138 O1130 1.249 . S
C1138 O1131 1.267 . S
C1139 O1136 1.249 . S
C1139 O1137 1.267 . S
Dy1140 O1144 2.398 . S
Dy1140 O1145 2.491 . S
Dy1140 O1146 2.403 . S
Dy1140 O1147 2.664 . S
Dy1140 O1151 2.326 . S
Dy1140 O1155 2.310 . S
Dy1140 O1156 2.351 . S
C1141 O1152 1.185 . S
C1141 O1153 1.355 . S
C1142 O1144 1.185 . S
C1142 O1145 1.355 . S
Dy1143 O1147 2.310 . S
Dy1143 O1150 2.351 . S
Dy1143 O1152 2.398 . S
Dy1143 O1153 2.491 . S
Dy1143 O1154 2.403 . S
Dy1143 O1155 2.664 . S
Dy1143 O1157 2.326 . S
O1144 Dy1140 2.398 . S
O1144 C1142 1.185 . S
O1145 Dy1140 2.491 . S
O1145 C1142 1.355 . S
O1146 Dy1140 2.403 . S
O1146 C1148 1.254 . S
O1147 Dy1140 2.664 . S
O1147 Dy1143 2.310 . S
O1147 C1148 1.268 . S
C1148 O1146 1.254 . S
C1148 O1147 1.268 . S
C1149 O1154 1.254 . S
C1149 O1155 1.268 . S
O1150 Dy1143 2.351 . S
O1150 C1158 1.249 . S
O1151 Dy1140 2.326 . S
O1151 C1158 1.267 . S
O1152 C1141 1.185 . S
O1152 Dy1143 2.398 . S
O1153 C1141 1.355 . S
O1153 Dy1143 2.491 . S
O1154 Dy1143 2.403 . S
O1154 C1149 1.254 . S
O1155 Dy1140 2.310 . S
O1155 Dy1143 2.664 . S
O1155 C1149 1.268 . S
O1156 Dy1140 2.351 . S
O1156 C1159 1.249 . S
O1157 Dy1143 2.326 . S
O1157 C1159 1.267 . S
C1158 O1150 1.249 . S
C1158 O1151 1.267 . S
C1159 O1156 1.249 . S
C1159 O1157 1.267 . S
Dy1160 O1164 2.398 . S
Dy1160 O1165 2.491 . S
Dy1160 O1166 2.403 . S
Dy1160 O1167 2.664 . S
Dy1160 O1171 2.326 . S
Dy1160 O1175 2.310 . S
Dy1160 O1176 2.351 . S
C1161 O1172 1.185 . S
C1161 O1173 1.355 . S
C1162 O1164 1.185 . S
C1162 O1165 1.355 . S
Dy1163 O1167 2.310 . S
Dy1163 O1170 2.351 . S
Dy1163 O1172 2.398 . S
Dy1163 O1173 2.491 . S
Dy1163 O1174 2.403 . S
Dy1163 O1175 2.664 . S
Dy1163 O1177 2.326 . S
O1164 Dy1160 2.398 . S
O1164 C1162 1.185 . S
O1165 Dy1160 2.491 . S
O1165 C1162 1.355 . S
O1166 Dy1160 2.403 . S
O1166 C1168 1.254 . S
O1167 Dy1160 2.664 . S
O1167 Dy1163 2.310 . S
O1167 C1168 1.268 . S
C1168 O1166 1.254 . S
C1168 O1167 1.268 . S
C1169 O1174 1.254 . S
C1169 O1175 1.268 . S
O1170 Dy1163 2.351 . S
O1170 C1178 1.249 . S
O1171 Dy1160 2.326 . S
O1171 C1178 1.267 . S
O1172 C1161 1.185 . S
O1172 Dy1163 2.398 . S
O1173 C1161 1.355 . S
O1173 Dy1163 2.491 . S
O1174 Dy1163 2.403 . S
O1174 C1169 1.254 . S
O1175 Dy1160 2.310 . S
O1175 Dy1163 2.664 . S
O1175 C1169 1.268 . S
O1176 Dy1160 2.351 . S
O1176 C1179 1.249 . S
O1177 Dy1163 2.326 . S
O1177 C1179 1.267 . S
C1178 O1170 1.249 . S
C1178 O1171 1.267 . S
C1179 O1176 1.249 . S
C1179 O1177 1.267 . S
Dy1180 O1184 2.398 . S
Dy1180 O1185 2.491 . S
Dy1180 O1186 2.403 . S
Dy1180 O1187 2.664 . S
Dy1180 O1191 2.326 . S
Dy1180 O1195 2.310 . S
Dy1180 O1196 2.351 . S
C1181 O1192 1.185 . S
C1181 O1193 1.355 . S
C1182 O1184 1.185 . S
C1182 O1185 1.355 . S
Dy1183 O1187 2.310 . S
Dy1183 O1190 2.351 . S
Dy1183 O1192 2.398 . S
Dy1183 O1193 2.491 . S
Dy1183 O1194 2.403 . S
Dy1183 O1195 2.664 . S
Dy1183 O1197 2.326 . S
O1184 Dy1180 2.398 . S
O1184 C1182 1.185 . S
O1185 Dy1180 2.491 . S
O1185 C1182 1.355 . S
O1186 Dy1180 2.403 . S
O1186 C1188 1.254 . S
O1187 Dy1180 2.664 . S
O1187 Dy1183 2.310 . S
O1187 C1188 1.268 . S
C1188 O1186 1.254 . S
C1188 O1187 1.268 . S
C1189 O1194 1.254 . S
C1189 O1195 1.268 . S
O1190 Dy1183 2.351 . S
O1190 C1198 1.249 . S
O1191 Dy1180 2.326 . S
O1191 C1198 1.267 . S
O1192 C1181 1.185 . S
O1192 Dy1183 2.398 . S
O1193 C1181 1.355 . S
O1193 Dy1183 2.491 . S
O1194 Dy1183 2.403 . S
O1194 C1189 1.254 . S
O1195 Dy1180 2.310 . S
O1195 Dy1183 2.664 . S
O1195 C1189 1.268 . S
O1196 Dy1180 2.351 . S
O1196 C1199 1.249 . S
O1197 Dy1183 2.326 . S
O1197 C1199 1.267 . S
C1198 O1190 1.249 . S
C1198 O1191 1.267 . S
C1199 O1196 1.249 . S
C1199 O1197 1.267 . S
Dy1200 O1204 2.398 . S
Dy1200 O1205 2.491 . S
Dy1200 O1206 2.403 . S
Dy1200 O1207 2.664 . S
Dy1200 O1211 2.326 . S
Dy1200 O1215 2.310 . S
Dy1200 O1216 2.351 . S
C1201 O1212 1.185 . S
C1201 O1213 1.355 . S
C1202 O1204 1.185 . S
C1202 O1205 1.355 . S
Dy1203 O1207 2.310 . S
Dy1203 O1210 2.351 . S
Dy1203 O1212 2.398 . S
Dy1203 O1213 2.491 . S
Dy1203 O1214 2.403 . S
Dy1203 O1215 2.664 . S
Dy1203 O1217 2.326 . S
O1204 Dy1200 2.398 . S
O1204 C1202 1.185 . S
O1205 Dy1200 2.491 . S
O1205 C1202 1.355 . S
O1206 Dy1200 2.403 . S
O1206 C1208 1.254 . S
O1207 Dy1200 2.664 . S
O1207 Dy1203 2.310 . S
O1207 C1208 1.268 . S
C1208 O1206 1.254 . S
C1208 O1207 1.268 . S
C1209 O1214 1.254 . S
C1209 O1215 1.268 . S
O1210 Dy1203 2.351 . S
O1210 C1218 1.249 . S
O1211 Dy1200 2.326 . S
O1211 C1218 1.267 . S
O1212 C1201 1.185 . S
O1212 Dy1203 2.398 . S
O1213 C1201 1.355 . S
O1213 Dy1203 2.491 . S
O1214 Dy1203 2.403 . S
O1214 C1209 1.254 . S
O1215 Dy1200 2.310 . S
O1215 Dy1203 2.664 . S
O1215 C1209 1.268 . S
O1216 Dy1200 2.351 . S
O1216 C1219 1.249 . S
O1217 Dy1203 2.326 . S
O1217 C1219 1.267 . S
C1218 O1210 1.249 . S
C1218 O1211 1.267 . S
C1219 O1216 1.249 . S
C1219 O1217 1.267 . S
Dy1220 O1224 2.398 . S
Dy1220 O1225 2.491 . S
Dy1220 O1226 2.403 . S
Dy1220 O1227 2.664 . S
Dy1220 O1231 2.326 . S
Dy1220 O1235 2.310 . S
Dy1220 O1236 2.351 . S
C1221 O1232 1.185 . S
C1221 O1233 1.355 . S
C1222 O1224 1.185 . S
C1222 O1225 1.355 . S
Dy1223 O1227 2.310 . S
Dy1223 O1230 2.351 . S
Dy1223 O1232 2.398 . S
Dy1223 O1233 2.491 . S
Dy1223 O1234 2.403 . S
Dy1223 O1235 2.664 . S
Dy1223 O1237 2.326 . S
O1224 Dy1220 2.398 . S
O1224 C1222 1.185 . S
O1225 Dy1220 2.491 . S
O1225 C1222 1.355 . S
O1226 Dy1220 2.403 . S
O1226 C1228 1.254 . S
O1227 Dy1220 2.664 . S
O1227 Dy1223 2.310 . S
O1227 C1228 1.268 . S
C1228 O1226 1.254 . S
C1228 O1227 1.268 . S
C1229 O1234 1.254 . S
C1229 O1235 1.268 . S
O1230 Dy1223 2.351 . S
O1230 C1238 1.249 . S
O1231 Dy1220 2.326 . S
O1231 C1238 1.267 . S
O1232 C1221 1.185 . S
O1232 Dy1223 2.398 . S
O1233 C1221 1.355 . S
O1233 Dy1223 2.491 . S
O1234 Dy1223 2.403 . S
O1234 C1229 1.254 . S
O1235 Dy1220 2.310 . S
O1235 Dy1223 2.664 . S
O1235 C1229 1.268 . S
O1236 Dy1220 2.351 . S
O1236 C1239 1.249 . S
O1237 Dy1223 2.326 . S
O1237 C1239 1.267 . S
C1238 O1230 1.249 . S
C1238 O1231 1.267 . S
C1239 O1236 1.249 . S
C1239 O1237 1.267 . S
Dy1240 O1244 2.398 . S
Dy1240 O1245 2.491 . S
Dy1240 O1246 2.403 . S
Dy1240 O1247 2.664 . S
Dy1240 O1251 2.326 . S
Dy1240 O1255 2.310 . S
Dy1240 O1256 2.351 . S
C1241 O1252 1.185 . S
C1241 O1253 1.355 . S
C1242 O1244 1.185 . S
C1242 O1245 1.355 . S
Dy1243 O1247 2.310 . S
Dy1243 O1250 2.351 . S
Dy1243 O1252 2.398 . S
Dy1243 O1253 2.491 . S
Dy1243 O1254 2.403 . S
Dy1243 O1255 2.664 . S
Dy1243 O1257 2.326 . S
O1244 Dy1240 2.398 . S
O1244 C1242 1.185 . S
O1245 Dy1240 2.491 . S
O1245 C1242 1.355 . S
O1246 Dy1240 2.403 . S
O1246 C1248 1.254 . S
O1247 Dy1240 2.664 . S
O1247 Dy1243 2.310 . S
O1247 C1248 1.268 . S
C1248 O1246 1.254 . S
C1248 O1247 1.268 . S
C1249 O1254 1.254 . S
C1249 O1255 1.268 . S
O1250 Dy1243 2.351 . S
O1250 C1258 1.249 . S
O1251 Dy1240 2.326 . S
O1251 C1258 1.267 . S
O1252 C1241 1.185 . S
O1252 Dy1243 2.398 . S
O1253 C1241 1.355 . S
O1253 Dy1243 2.491 . S
O1254 Dy1243 2.403 . S
O1254 C1249 1.254 . S
O1255 Dy1240 2.310 . S
O1255 Dy1243 2.664 . S
O1255 C1249 1.268 . S
O1256 Dy1240 2.351 . S
O1256 C1259 1.249 . S
O1257 Dy1243 2.326 . S
O1257 C1259 1.267 . S
C1258 O1250 1.249 . S
C1258 O1251 1.267 . S
C1259 O1256 1.249 . S
C1259 O1257 1.267 . S
Dy1260 O1264 2.398 . S
Dy1260 O1265 2.491 . S
Dy1260 O1266 2.403 . S
Dy1260 O1267 2.664 . S
Dy1260 O1271 2.326 . S
Dy1260 O1275 2.310 . S
Dy1260 O1276 2.351 . S
C1261 O1272 1.185 . S
C1261 O1273 1.355 . S
C1262 O1264 1.185 . S
C1262 O1265 1.355 . S
Dy1263 O1267 2.310 . S
Dy1263 O1270 2.351 . S
Dy1263 O1272 2.398 . S
Dy1263 O1273 2.491 . S
Dy1263 O1274 2.403 . S
Dy1263 O1275 2.664 . S
Dy1263 O1277 2.326 . S
O1264 Dy1260 2.398 . S
O1264 C1262 1.185 . S
O1265 Dy1260 2.491 . S
O1265 C1262 1.355 . S
O1266 Dy1260 2.403 . S
O1266 C1268 1.254 . S
O1267 Dy1260 2.664 . S
O1267 Dy1263 2.310 . S
O1267 C1268 1.268 . S
C1268 O1266 1.254 . S
C1268 O1267 1.268 . S
C1269 O1274 1.254 . S
C1269 O1275 1.268 . S
O1270 Dy1263 2.351 . S
O1270 C1278 1.249 . S
O1271 Dy1260 2.326 . S
O1271 C1278 1.267 . S
O1272 C1261 1.185 . S
O1272 Dy1263 2.398 . S
O1273 C1261 1.355 . S
O1273 Dy1263 2.491 . S
O1274 Dy1263 2.403 . S
O1274 C1269 1.254 . S
O1275 Dy1260 2.310 . S
O1275 Dy1263 2.664 . S
O1275 C1269 1.268 . S
O1276 Dy1260 2.351 . S
O1276 C1279 1.249 . S
O1277 Dy1263 2.326 . S
O1277 C1279 1.267 . S
C1278 O1270 1.249 . S
C1278 O1271 1.267 . S
C1279 O1276 1.249 . S
C1279 O1277 1.267 . S
Dy1280 O1284 2.398 . S
Dy1280 O1285 2.491 . S
Dy1280 O1286 2.403 . S
Dy1280 O1287 2.664 . S
Dy1280 O1291 2.326 . S
Dy1280 O1295 2.310 . S
Dy1280 O1296 2.351 . S
C1281 O1292 1.185 . S
C1281 O1293 1.355 . S
C1282 O1284 1.185 . S
C1282 O1285 1.355 . S
Dy1283 O1287 2.310 . S
Dy1283 O1290 2.351 . S
Dy1283 O1292 2.398 . S
Dy1283 O1293 2.491 . S
Dy1283 O1294 2.403 . S
Dy1283 O1295 2.664 . S
Dy1283 O1297 2.326 . S
O1284 Dy1280 2.398 . S
O1284 C1282 1.185 . S
O1285 Dy1280 2.491 . S
O1285 C1282 1.355 . S
O1286 Dy1280 2.403 . S
O1286 C1288 1.254 . S
O1287 Dy1280 2.664 . S
O1287 Dy1283 2.310 . S
O1287 C1288 1.268 . S
C1288 O1286 1.254 . S
C1288 O1287 1.268 . S
C1289 O1294 1.254 . S
C1289 O1295 1.268 . S
O1290 Dy1283 2.351 . S
O1290 C1298 1.249 . S
O1291 Dy1280 2.326 . S
O1291 C1298 1.267 . S
O1292 C1281 1.185 . S
O1292 Dy1283 2.398 . S
O1293 C1281 1.355 . S
O1293 Dy1283 2.491 . S
O1294 Dy1283 2.403 . S
O1294 C1289 1.254 . S
O1295 Dy1280 2.310 . S
O1295 Dy1283 2.664 . S
O1295 C1289 1.268 . S
O1296 Dy1280 2.351 . S
O1296 C1299 1.249 . S
O1297 Dy1283 2.326 . S
O1297 C1299 1.267 . S
C1298 O1290 1.249 . S
C1298 O1291 1.267 . S
C1299 O1296 1.249 . S
C1299 O1297 1.267 . S
Dy1300 O1304 2.398 . S
Dy1300 O1305 2.491 . S
Dy1300 O1306 2.403 . S
Dy1300 O1307 2.664 . S
Dy1300 O1311 2.326 . S
Dy1300 O1315 2.310 . S
Dy1300 O1316 2.351 . S
C1301 O1312 1.185 . S
C1301 O1313 1.355 . S
C1302 O1304 1.185 . S
C1302 O1305 1.355 . S
Dy1303 O1307 2.310 . S
Dy1303 O1310 2.351 . S
Dy1303 O1312 2.398 . S
Dy1303 O1313 2.491 . S
Dy1303 O1314 2.403 . S
Dy1303 O1315 2.664 . S
Dy1303 O1317 2.326 . S
O1304 Dy1300 2.398 . S
O1304 C1302 1.185 . S
O1305 Dy1300 2.491 . S
O1305 C1302 1.355 . S
O1306 Dy1300 2.403 . S
O1306 C1308 1.254 . S
O1307 Dy1300 2.664 . S
O1307 Dy1303 2.310 . S
O1307 C1308 1.268 . S
C1308 O1306 1.254 . S
C1308 O1307 1.268 . S
C1309 O1314 1.254 . S
C1309 O1315 1.268 . S
O1310 Dy1303 2.351 . S
O1310 C1318 1.249 . S
O1311 Dy1300 2.326 . S
O1311 C1318 1.267 . S
O1312 C1301 1.185 . S
O1312 Dy1303 2.398 . S
O1313 C1301 1.355 . S
O1313 Dy1303 2.491 . S
O1314 Dy1303 2.403 . S
O1314 C1309 1.254 . S
O1315 Dy1300 2.310 . S
O1315 Dy1303 2.664 . S
O1315 C1309 1.268 . S
O1316 Dy1300 2.351 . S
O1316 C1319 1.249 . S
O1317 Dy1303 2.326 . S
O1317 C1319 1.267 . S
C1318 O1310 1.249 . S
C1318 O1311 1.267 . S
C1319 O1316 1.249 . S
C1319 O1317 1.267 . S
Dy1320 O1324 2.398 . S
Dy1320 O1325 2.491 . S
Dy1320 O1326 2.403 . S
Dy1320 O1327 2.664 . S
Dy1320 O1331 2.326 . S
Dy1320 O1335 2.310 . S
Dy1320 O1336 2.351 . S
C1321 O1332 1.185 . S
C1321 O1333 1.355 . S
C1322 O1324 1.185 . S
C1322 O1325 1.355 . S
Dy1323 O1327 2.310 . S
Dy1323 O1330 2.351 . S
Dy1323 O1332 2.398 . S
Dy1323 O1333 2.491 . S
Dy1323 O1334 2.403 . S
Dy1323 O1335 2.664 . S
Dy1323 O1337 2.326 . S
O1324 Dy1320 2.398 . S
O1324 C1322 1.185 . S
O1325 Dy1320 2.491 . S
O1325 C1322 1.355 . S
O1326 Dy1320 2.403 . S
O1326 C1328 1.254 . S
O1327 Dy1320 2.664 . S
O1327 Dy1323 2.310 . S
O1327 C1328 1.268 . S
C1328 O1326 1.254 . S
C1328 O1327 1.268 . S
C1329 O1334 1.254 . S
C1329 O1335 1.268 . S
O1330 Dy1323 2.351 . S
O1330 C1338 1.249 . S
O1331 Dy1320 2.326 . S
O1331 C1338 1.267 . S
O1332 C1321 1.185 . S
O1332 Dy1323 2.398 . S
O1333 C1321 1.355 . S
O1333 Dy1323 2.491 . S
O1334 Dy1323 2.403 . S
O1334 C1329 1.254 . S
O1335 Dy1320 2.310 . S
O1335 Dy1323 2.664 . S
O1335 C1329 1.268 . S
O1336 Dy1320 2.351 . S
O1336 C1339 1.249 . S
O1337 Dy1323 2.326 . S
O1337 C1339 1.267 . S
C1338 O1330 1.249 . S
C1338 O1331 1.267 . S
C1339 O1336 1.249 . S
C1339 O1337 1.267 . S
Dy1340 O1344 2.398 . S
Dy1340 O1345 2.491 . S
Dy1340 O1346 2.403 . S
Dy1340 O1347 2.664 . S
Dy1340 O1351 2.326 . S
Dy1340 O1355 2.310 . S
Dy1340 O1356 2.351 . S
C1341 O1352 1.185 . S
C1341 O1353 1.355 . S
C1342 O1344 1.185 . S
C1342 O1345 1.355 . S
Dy1343 O1347 2.310 . S
Dy1343 O1350 2.351 . S
Dy1343 O1352 2.398 1_556 S
Dy1343 O1353 2.491 1_556 S
Dy1343 O1354 2.403 . S
Dy1343 O1355 2.664 . S
Dy1343 O1357 2.326 1_556 S
O1344 Dy1340 2.398 . S
O1344 C1342 1.185 . S
O1345 Dy1340 2.491 . S
O1345 C1342 1.355 . S
O1346 Dy1340 2.403 . S
O1346 C1348 1.254 . S
O1347 Dy1340 2.664 . S
O1347 Dy1343 2.310 . S
O1347 C1348 1.268 . S
C1348 O1346 1.254 . S
C1348 O1347 1.268 . S
C1349 O1354 1.254 . S
C1349 O1355 1.268 . S
O1350 Dy1343 2.351 . S
O1350 C1358 1.249 . S
O1351 Dy1340 2.326 . S
O1351 C1358 1.267 . S
O1352 C1341 1.185 . S
O1352 Dy1343 2.398 1_554 S
O1353 C1341 1.355 . S
O1353 Dy1343 2.491 1_554 S
O1354 Dy1343 2.403 . S
O1354 C1349 1.254 . S
O1355 Dy1340 2.310 . S
O1355 Dy1343 2.664 . S
O1355 C1349 1.268 . S
O1356 Dy1340 2.351 . S
O1356 C1359 1.249 1_556 S
O1357 Dy1343 2.326 1_554 S
O1357 C1359 1.267 . S
C1358 O1350 1.249 . S
C1358 O1351 1.267 . S
C1359 O1356 1.249 1_554 S
C1359 O1357 1.267 . S
Dy1360 O1364 2.398 . S
Dy1360 O1365 2.491 . S
Dy1360 O1366 2.403 . S
Dy1360 O1367 2.664 . S
Dy1360 O1371 2.326 . S
Dy1360 O1375 2.310 . S
Dy1360 O1376 2.351 . S
C1361 O1372 1.185 . S
C1361 O1373 1.355 . S
C1362 O1364 1.185 . S
C1362 O1365 1.355 . S
Dy1363 O1367 2.310 . S
Dy1363 O1370 2.351 . S
Dy1363 O1372 2.398 . S
Dy1363 O1373 2.491 . S
Dy1363 O1374 2.403 . S
Dy1363 O1375 2.664 . S
Dy1363 O1377 2.326 . S
O1364 Dy1360 2.398 . S
O1364 C1362 1.185 . S
O1365 Dy1360 2.491 . S
O1365 C1362 1.355 . S
O1366 Dy1360 2.403 . S
O1366 C1368 1.254 . S
O1367 Dy1360 2.664 . S
O1367 Dy1363 2.310 . S
O1367 C1368 1.268 . S
C1368 O1366 1.254 . S
C1368 O1367 1.268 . S
C1369 O1374 1.254 . S
C1369 O1375 1.268 . S
O1370 Dy1363 2.351 . S
O1370 C1378 1.249 . S
O1371 Dy1360 2.326 . S
O1371 C1378 1.267 . S
O1372 C1361 1.185 . S
O1372 Dy1363 2.398 . S
O1373 C1361 1.355 . S
O1373 Dy1363 2.491 . S
O1374 Dy1363 2.403 . S
O1374 C1369 1.254 . S
O1375 Dy1360 2.310 . S
O1375 Dy1363 2.664 . S
O1375 C1369 1.268 . S
O1376 Dy1360 2.351 . S
O1376 C1379 1.249 . S
O1377 Dy1363 2.326 . S
O1377 C1379 1.267 . S
C1378 O1370 1.249 . S
C1378 O1371 1.267 . S
C1379 O1376 1.249 . S
C1379 O1377 1.267 . S
Dy1380 O1384 2.398 . S
Dy1380 O1385 2.491 . S
Dy1380 O1386 2.403 . S
Dy1380 O1387 2.664 . S
Dy1380 O1391 2.326 . S
Dy1380 O1395 2.310 . S
Dy1380 O1396 2.351 . S
C1381 O1392 1.185 . S
C1381 O1393 1.355 . S
C1382 O1384 1.185 . S
C1382 O1385 1.355 . S
Dy1383 O1387 2.310 . S
Dy1383 O1390 2.351 . S
Dy1383 O1392 2.398 1_554 S
Dy1383 O1393 2.491 1_554 S
Dy1383 O1394 2.403 . S
Dy1383 O1395 2.664 . S
Dy1383 O1397 2.320 1_554 S
O1384 Dy1380 2.398 . S
O1384 C1382 1.185 . S
O1385 Dy1380 2.491 . S
O1385 C1382 1.355 . S
O1386 Dy1380 2.403 . S
O1386 C1388 1.254 . S
O1387 Dy1380 2.664 . S
O1387 Dy1383 2.310 . S
O1387 C1388 1.268 . S
C1388 O1386 1.254 . S
C1388 O1387 1.268 . S
C1389 O1394 1.254 . S
C1389 O1395 1.268 . S
O1390 Dy1383 2.351 . S
O1390 C1398 1.249 . S
O1391 Dy1380 2.326 . S
O1391 C1398 1.267 . S
O1392 C1381 1.185 . S
O1392 Dy1383 2.398 1_556 S
O1393 C1381 1.355 . S
O1393 Dy1383 2.491 1_556 S
O1394 Dy1383 2.403 . S
O1394 C1389 1.254 . S
O1395 Dy1380 2.310 . S
O1395 Dy1383 2.664 . S
O1395 C1389 1.268 . S
O1396 Dy1380 2.351 . S
O1396 C1399 1.249 . S
O1397 Dy1383 2.320 1_556 S
O1397 C1399 1.257 1_556 S
C1398 O1390 1.249 . S
C1398 O1391 1.267 . S
C1399 O1396 1.249 . S
C1399 O1397 1.257 1_554 S
Dy1400 O1404 2.398 . S
Dy1400 O1405 2.491 . S
Dy1400 O1406 2.403 . S
Dy1400 O1407 2.664 . S
Dy1400 O1411 2.326 . S
Dy1400 O1415 2.310 . S
Dy1400 O1416 2.351 . S
C1401 O1412 1.185 . S
C1401 O1413 1.355 . S
C1402 O1404 1.185 . S
C1402 O1405 1.355 . S
Dy1403 O1407 2.310 . S
Dy1403 O1410 2.351 . S
Dy1403 O1412 2.398 . S
Dy1403 O1413 2.491 . S
Dy1403 O1414 2.403 . S
Dy1403 O1415 2.664 . S
Dy1403 O1417 2.326 . S
O1404 Dy1400 2.398 . S
O1404 C1402 1.185 . S
O1405 Dy1400 2.491 . S
O1405 C1402 1.355 . S
O1406 Dy1400 2.403 . S
O1406 C1408 1.254 . S
O1407 Dy1400 2.664 . S
O1407 Dy1403 2.310 . S
O1407 C1408 1.268 . S
C1408 O1406 1.254 . S
C1408 O1407 1.268 . S
C1409 O1414 1.254 . S
C1409 O1415 1.268 . S
O1410 Dy1403 2.351 . S
O1410 C1418 1.249 . S
O1411 Dy1400 2.326 . S
O1411 C1418 1.267 . S
O1412 C1401 1.185 . S
O1412 Dy1403 2.398 . S
O1413 C1401 1.355 . S
O1413 Dy1403 2.491 . S
O1414 Dy1403 2.403 . S
O1414 C1409 1.254 . S
O1415 Dy1400 2.310 . S
O1415 Dy1403 2.664 . S
O1415 C1409 1.268 . S
O1416 Dy1400 2.351 . S
O1416 C1419 1.249 . S
O1417 Dy1403 2.326 . S
O1417 C1419 1.267 . S
C1418 O1410 1.249 . S
C1418 O1411 1.267 . S
C1419 O1416 1.249 . S
C1419 O1417 1.267 . S
Dy1420 O1424 2.398 . S
Dy1420 O1425 2.491 . S
Dy1420 O1426 2.403 . S
Dy1420 O1427 2.664 . S
Dy1420 O1431 2.326 . S
Dy1420 O1435 2.310 . S
Dy1420 O1436 2.351 . S
C1421 O1432 1.185 . S
C1421 O1433 1.355 . S
C1422 O1424 1.185 . S
C1422 O1425 1.355 . S
Dy1423 O1427 2.310 . S
Dy1423 O1430 2.351 . S
Dy1423 O1432 2.398 . S
Dy1423 O1433 2.491 . S
Dy1423 O1434 2.403 . S
Dy1423 O1435 2.664 . S
Dy1423 O1437 2.326 . S
O1424 Dy1420 2.398 . S
O1424 C1422 1.185 . S
O1425 Dy1420 2.491 . S
O1425 C1422 1.355 . S
O1426 Dy1420 2.403 . S
O1426 C1428 1.254 . S
O1427 Dy1420 2.664 . S
O1427 Dy1423 2.310 . S
O1427 C1428 1.268 . S
C1428 O1426 1.254 . S
C1428 O1427 1.268 . S
C1429 O1434 1.254 . S
C1429 O1435 1.268 . S
O1430 Dy1423 2.351 . S
O1430 C1438 1.249 . S
O1431 Dy1420 2.326 . S
O1431 C1438 1.267 . S
O1432 C1421 1.185 . S
O1432 Dy1423 2.398 . S
O1433 C1421 1.355 . S
O1433 Dy1423 2.491 . S
O1434 Dy1423 2.403 . S
O1434 C1429 1.254 . S
O1435 Dy1420 2.310 . S
O1435 Dy1423 2.664 . S
O1435 C1429 1.268 . S
O1436 Dy1420 2.351 . S
O1436 C1439 1.249 . S
O1437 Dy1423 2.326 . S
O1437 C1439 1.267 . S
C1438 O1430 1.249 . S
C1438 O1431 1.267 . S
C1439 O1436 1.249 . S
C1439 O1437 1.267 . S
Dy1440 O1444 2.398 . S
Dy1440 O1445 2.491 . S
Dy1440 O1446 2.403 . S
Dy1440 O1447 2.664 . S
Dy1440 O1451 2.326 . S
Dy1440 O1455 2.310 . S
Dy1440 O1456 2.351 . S
C1441 O1452 1.185 . S
C1441 O1453 1.355 . S
C1442 O1444 1.185 . S
C1442 O1445 1.355 . S
Dy1443 O1447 2.310 . S
Dy1443 O1450 2.351 . S
Dy1443 O1452 2.398 . S
Dy1443 O1453 2.491 . S
Dy1443 O1454 2.403 . S
Dy1443 O1455 2.664 . S
Dy1443 O1457 2.326 . S
O1444 Dy1440 2.398 . S
O1444 C1442 1.185 . S
O1445 Dy1440 2.491 . S
O1445 C1442 1.355 . S
O1446 Dy1440 2.403 . S
O1446 C1448 1.254 . S
O1447 Dy1440 2.664 . S
O1447 Dy1443 2.310 . S
O1447 C1448 1.268 . S
C1448 O1446 1.254 . S
C1448 O1447 1.268 . S
C1449 O1454 1.254 . S
C1449 O1455 1.268 . S
O1450 Dy1443 2.351 . S
O1450 C1458 1.249 . S
O1451 Dy1440 2.326 . S
O1451 C1458 1.267 . S
O1452 C1441 1.185 . S
O1452 Dy1443 2.398 . S
O1453 C1441 1.355 . S
O1453 Dy1443 2.491 . S
O1454 Dy1443 2.403 . S
O1454 C1449 1.254 . S
O1455 Dy1440 2.310 . S
O1455 Dy1443 2.664 . S
O1455 C1449 1.268 . S
O1456 Dy1440 2.351 . S
O1456 C1459 1.249 . S
O1457 Dy1443 2.326 . S
O1457 C1459 1.267 . S
C1458 O1450 1.249 . S
C1458 O1451 1.267 . S
C1459 O1456 1.249 . S
C1459 O1457 1.267 . S
Dy1460 O1464 2.398 . S
Dy1460 O1465 2.491 . S
Dy1460 O1466 2.403 . S
Dy1460 O1467 2.664 . S
Dy1460 O1471 2.326 . S
Dy1460 O1475 2.310 . S
Dy1460 O1476 2.351 . S
C1461 O1472 1.185 . S
C1461 O1473 1.355 . S
C1462 O1464 1.185 . S
C1462 O1465 1.355 . S
Dy1463 O1467 2.310 . S
Dy1463 O1470 2.351 . S
Dy1463 O1472 2.398 . S
Dy1463 O1473 2.491 . S
Dy1463 O1474 2.403 . S
Dy1463 O1475 2.664 . S
Dy1463 O1477 2.326 . S
O1464 Dy1460 2.398 . S
O1464 C1462 1.185 . S
O1465 Dy1460 2.491 . S
O1465 C1462 1.355 . S
O1466 Dy1460 2.403 . S
O1466 C1468 1.254 . S
O1467 Dy1460 2.664 . S
O1467 Dy1463 2.310 . S
O1467 C1468 1.268 . S
C1468 O1466 1.254 . S
C1468 O1467 1.268 . S
C1469 O1474 1.254 . S
C1469 O1475 1.268 . S
O1470 Dy1463 2.351 . S
O1470 C1478 1.249 . S
O1471 Dy1460 2.326 . S
O1471 C1478 1.267 . S
O1472 C1461 1.185 . S
O1472 Dy1463 2.398 . S
O1473 C1461 1.355 . S
O1473 Dy1463 2.491 . S
O1474 Dy1463 2.403 . S
O1474 C1469 1.254 . S
O1475 Dy1460 2.310 . S
O1475 Dy1463 2.664 . S
O1475 C1469 1.268 . S
O1476 Dy1460 2.351 . S
O1476 C1479 1.249 . S
O1477 Dy1463 2.326 . S
O1477 C1479 1.267 . S
C1478 O1470 1.249 . S
C1478 O1471 1.267 . S
C1479 O1476 1.249 . S
C1479 O1477 1.267 . S
Dy1480 O1484 2.398 . S
Dy1480 O1485 2.491 . S
Dy1480 O1486 2.403 . S
Dy1480 O1487 2.664 . S
Dy1480 O1491 2.326 . S
Dy1480 O1495 2.310 . S
Dy1480 O1496 2.351 1_455 S
C1481 O1492 1.153 1_655 S
C1481 O1493 1.355 . S
C1482 O1484 1.185 . S
C1482 O1485 1.355 . S
Dy1483 O1487 2.310 . S
Dy1483 O1490 2.351 . S
Dy1483 O1492 2.413 . S
Dy1483 O1493 2.491 1_455 S
Dy1483 O1494 2.403 . S
Dy1483 O1495 2.664 . S
Dy1483 O1497 2.326 1_455 S
O1484 Dy1480 2.398 . S
O1484 C1482 1.185 . S
O1485 Dy1480 2.491 . S
O1485 C1482 1.355 . S
O1486 Dy1480 2.403 . S
O1486 C1488 1.254 1_455 S
O1487 Dy1480 2.664 . S
O1487 Dy1483 2.310 . S
O1487 C1488 1.268 1_455 S
C1488 O1486 1.254 1_655 S
C1488 O1487 1.268 1_655 S
C1489 O1494 1.254 . S
C1489 O1495 1.268 . S
O1490 Dy1483 2.351 . S
O1490 C1498 1.249 . S
O1491 Dy1480 2.326 . S
O1491 C1498 1.267 . S
O1492 C1481 1.153 1_455 S
O1492 Dy1483 2.413 . S
O1493 C1481 1.355 . S
O1493 Dy1483 2.491 1_655 S
O1494 Dy1483 2.403 . S
O1494 C1489 1.254 . S
O1495 Dy1480 2.310 . S
O1495 Dy1483 2.664 . S
O1495 C1489 1.268 . S
O1496 Dy1480 2.351 1_655 S
O1496 C1499 1.249 . S
O1497 Dy1483 2.326 1_655 S
O1497 C1499 1.267 . S
C1498 O1490 1.249 . S
C1498 O1491 1.267 . S
C1499 O1496 1.249 . S
C1499 O1497 1.267 . S
Dy1500 O1504 2.398 . S
Dy1500 O1505 2.491 . S
Dy1500 O1506 2.403 . S
Dy1500 O1507 2.664 . S
Dy1500 O1511 2.326 . S
Dy1500 O1515 2.310 . S
Dy1500 O1516 2.351 . S
C1501 O1512 1.185 . S
C1501 O1513 1.355 . S
C1502 O1504 1.185 . S
C1502 O1505 1.355 . S
Dy1503 O1507 2.310 . S
Dy1503 O1510 2.351 . S
Dy1503 O1512 2.398 . S
Dy1503 O1513 2.491 . S
Dy1503 O1514 2.403 . S
Dy1503 O1515 2.664 . S
Dy1503 O1517 2.326 . S
O1504 Dy1500 2.398 . S
O1504 C1502 1.185 . S
O1505 Dy1500 2.491 . S
O1505 C1502 1.355 . S
O1506 Dy1500 2.403 . S
O1506 C1508 1.254 . S
O1507 Dy1500 2.664 . S
O1507 Dy1503 2.310 . S
O1507 C1508 1.268 . S
C1508 O1506 1.254 . S
C1508 O1507 1.268 . S
C1509 O1514 1.254 . S
C1509 O1515 1.268 . S
O1510 Dy1503 2.351 . S
O1510 C1518 1.249 . S
O1511 Dy1500 2.326 . S
O1511 C1518 1.267 . S
O1512 C1501 1.185 . S
O1512 Dy1503 2.398 . S
O1513 C1501 1.355 . S
O1513 Dy1503 2.491 . S
O1514 Dy1503 2.403 . S
O1514 C1509 1.254 . S
O1515 Dy1500 2.310 . S
O1515 Dy1503 2.664 . S
O1515 C1509 1.268 . S
O1516 Dy1500 2.351 . S
O1516 C1519 1.249 . S
O1517 Dy1503 2.326 . S
O1517 C1519 1.267 . S
C1518 O1510 1.249 . S
C1518 O1511 1.267 . S
C1519 O1516 1.249 . S
C1519 O1517 1.267 . S
Dy1520 O1524 2.398 . S
Dy1520 O1525 2.491 . S
Dy1520 O1526 2.403 . S
Dy1520 O1527 2.664 . S
Dy1520 O1531 2.326 . S
Dy1520 O1535 2.310 . S
Dy1520 O1536 2.351 . S
C1521 O1532 1.185 . S
C1521 O1533 1.355 . S
C1522 O1524 1.185 . S
C1522 O1525 1.355 . S
Dy1523 O1527 2.310 . S
Dy1523 O1530 2.351 . S
Dy1523 O1532 2.398 . S
Dy1523 O1533 2.491 . S
Dy1523 O1534 2.403 . S
Dy1523 O1535 2.664 . S
Dy1523 O1537 2.326 . S
O1524 Dy1520 2.398 . S
O1524 C1522 1.185 . S
O1525 Dy1520 2.491 . S
O1525 C1522 1.355 . S
O1526 Dy1520 2.403 . S
O1526 C1528 1.254 . S
O1527 Dy1520 2.664 . S
O1527 Dy1523 2.310 . S
O1527 C1528 1.268 . S
C1528 O1526 1.254 . S
C1528 O1527 1.268 . S
C1529 O1534 1.254 . S
C1529 O1535 1.268 . S
O1530 Dy1523 2.351 . S
O1530 C1538 1.249 . S
O1531 Dy1520 2.326 . S
O1531 C1538 1.267 . S
O1532 C1521 1.185 . S
O1532 Dy1523 2.398 . S
O1533 C1521 1.355 . S
O1533 Dy1523 2.491 . S
O1534 Dy1523 2.403 . S
O1534 C1529 1.254 . S
O1535 Dy1520 2.310 . S
O1535 Dy1523 2.664 . S
O1535 C1529 1.268 . S
O1536 Dy1520 2.351 . S
O1536 C1539 1.249 . S
O1537 Dy1523 2.326 . S
O1537 C1539 1.267 . S
C1538 O1530 1.249 . S
C1538 O1531 1.267 . S
C1539 O1536 1.249 . S
C1539 O1537 1.267 . S
Dy1540 O1544 2.398 . S
Dy1540 O1545 2.491 . S
Dy1540 O1546 2.403 . S
Dy1540 O1547 2.664 . S
Dy1540 O1551 2.326 . S
Dy1540 O1555 2.310 . S
Dy1540 O1556 2.351 . S
C1541 O1552 1.185 . S
C1541 O1553 1.355 . S
C1542 O1544 1.185 . S
C1542 O1545 1.355 . S
Dy1543 O1547 2.310 . S
Dy1543 O1550 2.351 . S
Dy1543 O1552 2.398 . S
Dy1543 O1553 2.491 . S
Dy1543 O1554 2.403 . S
Dy1543 O1555 2.664 . S
Dy1543 O1557 2.326 . S
O1544 Dy1540 2.398 . S
O1544 C1542 1.185 . S
O1545 Dy1540 2.491 . S
O1545 C1542 1.355 . S
O1546 Dy1540 2.403 . S
O1546 C1548 1.254 . S
O1547 Dy1540 2.664 . S
O1547 Dy1543 2.310 . S
O1547 C1548 1.268 . S
C1548 O1546 1.254 . S
C1548 O1547 1.268 . S
C1549 O1554 1.254 . S
C1549 O1555 1.268 . S
O1550 Dy1543 2.351 . S
O1550 C1558 1.249 . S
O1551 Dy1540 2.326 . S
O1551 C1558 1.267 . S
O1552 C1541 1.185 . S
O1552 Dy1543 2.398 . S
O1553 C1541 1.355 . S
O1553 Dy1543 2.491 . S
O1554 Dy1543 2.403 . S
O1554 C1549 1.254 . S
O1555 Dy1540 2.310 . S
O1555 Dy1543 2.664 . S
O1555 C1549 1.268 . S
O1556 Dy1540 2.351 . S
O1556 C1559 1.249 . S
O1557 Dy1543 2.326 . S
O1557 C1559 1.267 . S
C1558 O1550 1.249 . S
C1558 O1551 1.267 . S
C1559 O1556 1.249 . S
C1559 O1557 1.267 . S
Dy1560 O1564 2.398 . S
Dy1560 O1565 2.491 . S
Dy1560 O1566 2.403 . S
Dy1560 O1567 2.664 . S
Dy1560 O1571 2.326 . S
Dy1560 O1575 2.310 . S
Dy1560 O1576 2.351 1_455 S
C1561 O1572 1.185 1_655 S
C1561 O1573 1.355 . S
C1562 O1564 1.185 . S
C1562 O1565 1.355 . S
Dy1563 O1567 2.310 . S
Dy1563 O1570 2.351 . S
Dy1563 O1572 2.398 . S
Dy1563 O1573 2.491 1_455 S
Dy1563 O1574 2.403 . S
Dy1563 O1575 2.664 . S
Dy1563 O1577 2.326 1_455 S
O1564 Dy1560 2.398 . S
O1564 C1562 1.185 . S
O1565 Dy1560 2.491 . S
O1565 C1562 1.355 . S
O1566 Dy1560 2.403 . S
O1566 C1568 1.255 1_455 S
O1567 Dy1560 2.664 . S
O1567 Dy1563 2.310 . S
O1567 C1568 1.268 1_455 S
C1568 O1566 1.255 1_655 S
C1568 O1567 1.268 1_655 S
C1569 O1574 1.254 . S
C1569 O1575 1.268 . S
O1570 Dy1563 2.351 . S
O1570 C1578 1.249 . S
O1571 Dy1560 2.326 . S
O1571 C1578 1.267 . S
O1572 C1561 1.185 1_455 S
O1572 Dy1563 2.398 . S
O1573 C1561 1.355 . S
O1573 Dy1563 2.491 1_655 S
O1574 Dy1563 2.403 . S
O1574 C1569 1.254 . S
O1575 Dy1560 2.310 . S
O1575 Dy1563 2.664 . S
O1575 C1569 1.268 . S
O1576 Dy1560 2.351 1_655 S
O1576 C1579 1.249 . S
O1577 Dy1563 2.326 1_655 S
O1577 C1579 1.267 . S
C1578 O1570 1.249 . S
C1578 O1571 1.267 . S
C1579 O1576 1.249 . S
C1579 O1577 1.267 . S
Dy1580 O1584 2.398 . S
Dy1580 O1585 2.491 . S
Dy1580 O1586 2.403 . S
Dy1580 O1587 2.664 . S
Dy1580 O1591 2.326 . S
Dy1580 O1595 2.310 . S
Dy1580 O1596 2.351 . S
C1581 O1592 1.185 . S
C1581 O1593 1.355 . S
C1582 O1584 1.185 . S
C1582 O1585 1.355 . S
Dy1583 O1587 2.310 . S
Dy1583 O1590 2.351 . S
Dy1583 O1592 2.398 . S
Dy1583 O1593 2.491 . S
Dy1583 O1594 2.403 . S
Dy1583 O1595 2.664 . S
Dy1583 O1597 2.326 . S
O1584 Dy1580 2.398 . S
O1584 C1582 1.185 . S
O1585 Dy1580 2.491 . S
O1585 C1582 1.355 . S
O1586 Dy1580 2.403 . S
O1586 C1588 1.254 . S
O1587 Dy1580 2.664 . S
O1587 Dy1583 2.310 . S
O1587 C1588 1.268 . S
C1588 O1586 1.254 . S
C1588 O1587 1.268 . S
C1589 O1594 1.254 . S
C1589 O1595 1.268 . S
O1590 Dy1583 2.351 . S
O1590 C1598 1.249 . S
O1591 Dy1580 2.326 . S
O1591 C1598 1.267 . S
O1592 C1581 1.185 . S
O1592 Dy1583 2.398 . S
O1593 C1581 1.355 . S
O1593 Dy1583 2.491 . S
O1594 Dy1583 2.403 . S
O1594 C1589 1.254 . S
O1595 Dy1580 2.310 . S
O1595 Dy1583 2.664 . S
O1595 C1589 1.268 . S
O1596 Dy1580 2.351 . S
O1596 C1599 1.249 . S
O1597 Dy1583 2.326 . S
O1597 C1599 1.267 . S
C1598 O1590 1.249 . S
C1598 O1591 1.267 . S
C1599 O1596 1.249 . S
C1599 O1597 1.267 . S
Dy1600 O1604 2.398 . S
Dy1600 O1605 2.491 . S
Dy1600 O1606 2.403 . S
Dy1600 O1607 2.664 . S
Dy1600 O1611 2.326 . S
Dy1600 O1615 2.310 . S
Dy1600 O1616 2.351 . S
C1601 O1612 1.185 . S
C1601 O1613 1.355 . S
C1602 O1604 1.185 . S
C1602 O1605 1.355 . S
Dy1603 O1607 2.310 . S
Dy1603 O1610 2.351 . S
Dy1603 O1612 2.398 . S
Dy1603 O1613 2.491 . S
Dy1603 O1614 2.403 . S
Dy1603 O1615 2.664 . S
Dy1603 O1617 2.326 . S
O1604 Dy1600 2.398 . S
O1604 C1602 1.185 . S
O1605 Dy1600 2.491 . S
O1605 C1602 1.355 . S
O1606 Dy1600 2.403 . S
O1606 C1608 1.254 . S
O1607 Dy1600 2.664 . S
O1607 Dy1603 2.310 . S
O1607 C1608 1.268 . S
C1608 O1606 1.254 . S
C1608 O1607 1.268 . S
C1609 O1614 1.254 . S
C1609 O1615 1.268 . S
O1610 Dy1603 2.351 . S
O1610 C1618 1.249 . S
O1611 Dy1600 2.326 . S
O1611 C1618 1.267 . S
O1612 C1601 1.185 . S
O1612 Dy1603 2.398 . S
O1613 C1601 1.355 . S
O1613 Dy1603 2.491 . S
O1614 Dy1603 2.403 . S
O1614 C1609 1.254 . S
O1615 Dy1600 2.310 . S
O1615 Dy1603 2.664 . S
O1615 C1609 1.268 . S
O1616 Dy1600 2.351 . S
O1616 C1619 1.249 . S
O1617 Dy1603 2.326 . S
O1617 C1619 1.267 . S
C1618 O1610 1.249 . S
C1618 O1611 1.267 . S
C1619 O1616 1.249 . S
C1619 O1617 1.267 . S
Dy1620 O1624 2.398 . S
Dy1620 O1625 2.491 . S
Dy1620 O1626 2.403 . S
Dy1620 O1627 2.664 . S
Dy1620 O1631 2.326 . S
Dy1620 O1635 2.310 . S
Dy1620 O1636 2.351 . S
C1621 O1632 1.185 . S
C1621 O1633 1.355 . S
C1622 O1624 1.185 . S
C1622 O1625 1.355 . S
Dy1623 O1627 2.310 . S
Dy1623 O1630 2.351 . S
Dy1623 O1632 2.398 . S
Dy1623 O1633 2.491 . S
Dy1623 O1634 2.403 . S
Dy1623 O1635 2.664 . S
Dy1623 O1637 2.326 . S
O1624 Dy1620 2.398 . S
O1624 C1622 1.185 . S
O1625 Dy1620 2.491 . S
O1625 C1622 1.355 . S
O1626 Dy1620 2.403 . S
O1626 C1628 1.254 . S
O1627 Dy1620 2.664 . S
O1627 Dy1623 2.310 . S
O1627 C1628 1.268 . S
C1628 O1626 1.254 . S
C1628 O1627 1.268 . S
C1629 O1634 1.254 . S
C1629 O1635 1.268 . S
O1630 Dy1623 2.351 . S
O1630 C1638 1.249 . S
O1631 Dy1620 2.326 . S
O1631 C1638 1.267 . S
O1632 C1621 1.185 . S
O1632 Dy1623 2.398 . S
O1633 C1621 1.355 . S
O1633 Dy1623 2.491 . S
O1634 Dy1623 2.403 . S
O1634 C1629 1.254 . S
O1635 Dy1620 2.310 . S
O1635 Dy1623 2.664 . S
O1635 C1629 1.268 . S
O1636 Dy1620 2.351 . S
O1636 C1639 1.249 . S
O1637 Dy1623 2.326 . S
O1637 C1639 1.267 . S
C1638 O1630 1.249 . S
C1638 O1631 1.267 . S
C1639 O1636 1.249 . S
C1639 O1637 1.267 . S
Dy1640 O1644 2.398 . S
Dy1640 O1645 2.491 . S
Dy1640 O1646 2.403 . S
Dy1640 O1647 2.664 . S
Dy1640 O1651 2.326 . S
Dy1640 O1655 2.310 . S
Dy1640 O1656 2.351 . S
C1641 O1652 1.185 . S
C1641 O1653 1.355 . S
C1642 O1644 1.185 . S
C1642 O1645 1.355 . S
Dy1643 O1647 2.310 . S
Dy1643 O1650 2.351 . S
Dy1643 O1652 2.398 . S
Dy1643 O1653 2.491 . S
Dy1643 O1654 2.403 . S
Dy1643 O1655 2.664 . S
Dy1643 O1657 2.326 . S
O1644 Dy1640 2.398 . S
O1644 C1642 1.185 . S
O1645 Dy1640 2.491 . S
O1645 C1642 1.355 . S
O1646 Dy1640 2.403 . S
O1646 C1648 1.254 . S
O1647 Dy1640 2.664 . S
O1647 Dy1643 2.310 . S
O1647 C1648 1.268 . S
C1648 O1646 1.254 . S
C1648 O1647 1.268 . S
C1649 O1654 1.254 . S
C1649 O1655 1.268 . S
O1650 Dy1643 2.351 . S
O1650 C1658 1.249 . S
O1651 Dy1640 2.326 . S
O1651 C1658 1.267 . S
O1652 C1641 1.185 . S
O1652 Dy1643 2.398 . S
O1653 C1641 1.355 . S
O1653 Dy1643 2.491 . S
O1654 Dy1643 2.403 . S
O1654 C1649 1.254 . S
O1655 Dy1640 2.310 . S
O1655 Dy1643 2.664 . S
O1655 C1649 1.268 . S
O1656 Dy1640 2.351 . S
O1656 C1659 1.249 . S
O1657 Dy1643 2.326 . S
O1657 C1659 1.267 . S
C1658 O1650 1.249 . S
C1658 O1651 1.267 . S
C1659 O1656 1.249 . S
C1659 O1657 1.267 . S
Dy1660 O1664 2.398 . S
Dy1660 O1665 2.491 . S
Dy1660 O1666 2.403 . S
Dy1660 O1667 2.664 . S
Dy1660 O1671 2.326 . S
Dy1660 O1675 2.310 . S
Dy1660 O1676 2.351 . S
C1661 O1672 1.185 . S
C1661 O1673 1.355 . S
C1662 O1664 1.185 . S
C1662 O1665 1.355 . S
Dy1663 O1667 2.310 . S
Dy1663 O1670 2.351 . S
Dy1663 O1672 2.398 . S
Dy1663 O1673 2.491 . S
Dy1663 O1674 2.403 . S
Dy1663 O1675 2.664 . S
Dy1663 O1677 2.326 . S
O1664 Dy1660 2.398 . S
O1664 C1662 1.185 . S
O1665 Dy1660 2.491 . S
O1665 C1662 1.355 . S
O1666 Dy1660 2.403 . S
O1666 C1668 1.254 . S
O1667 Dy1660 2.664 . S
O1667 Dy1663 2.310 . S
O1667 C1668 1.268 . S
C1668 O1666 1.254 . S
C1668 O1667 1.268 . S
C1669 O1674 1.254 . S
C1669 O1675 1.268 . S
O1670 Dy1663 2.351 . S
O1670 C1678 1.249 . S
O1671 Dy1660 2.326 . S
O1671 C1678 1.267 . S
O1672 C1661 1.185 . S
O1672 Dy1663 2.398 . S
O1673 C1661 1.355 . S
O1673 Dy1663 2.491 . S
O1674 Dy1663 2.403 . S
O1674 C1669 1.254 . S
O1675 Dy1660 2.310 . S
O1675 Dy1663 2.664 . S
O1675 C1669 1.268 . S
O1676 Dy1660 2.351 . S
O1676 C1679 1.249 . S
O1677 Dy1663 2.326 . S
O1677 C1679 1.267 . S
C1678 O1670 1.249 . S
C1678 O1671 1.267 . S
C1679 O1676 1.249 . S
C1679 O1677 1.267 . S
Dy1680 O1684 2.398 . S
Dy1680 O1685 2.491 . S
Dy1680 O1686 2.403 . S
Dy1680 O1687 2.664 . S
Dy1680 O1691 2.326 . S
Dy1680 O1695 2.310 . S
Dy1680 O1696 2.351 . S
C1681 O1692 1.185 . S
C1681 O1693 1.355 . S
C1682 O1684 1.185 . S
C1682 O1685 1.355 . S
Dy1683 O1687 2.310 . S
Dy1683 O1690 2.351 . S
Dy1683 O1692 2.398 . S
Dy1683 O1693 2.491 . S
Dy1683 O1694 2.403 . S
Dy1683 O1695 2.664 . S
Dy1683 O1697 2.326 . S
O1684 Dy1680 2.398 . S
O1684 C1682 1.185 . S
O1685 Dy1680 2.491 . S
O1685 C1682 1.355 . S
O1686 Dy1680 2.403 . S
O1686 C1688 1.254 . S
O1687 Dy1680 2.664 . S
O1687 Dy1683 2.310 . S
O1687 C1688 1.268 . S
C1688 O1686 1.254 . S
C1688 O1687 1.268 . S
C1689 O1694 1.254 . S
C1689 O1695 1.268 . S
O1690 Dy1683 2.351 . S
O1690 C1698 1.249 . S
O1691 Dy1680 2.326 . S
O1691 C1698 1.267 . S
O1692 C1681 1.185 . S
O1692 Dy1683 2.398 . S
O1693 C1681 1.355 . S
O1693 Dy1683 2.491 . S
O1694 Dy1683 2.403 . S
O1694 C1689 1.254 . S
O1695 Dy1680 2.310 . S
O1695 Dy1683 2.664 . S
O1695 C1689 1.268 . S
O1696 Dy1680 2.351 . S
O1696 C1699 1.249 . S
O1697 Dy1683 2.326 . S
O1697 C1699 1.267 . S
C1698 O1690 1.249 . S
C1698 O1691 1.267 . S
C1699 O1696 1.249 . S
C1699 O1697 1.267 . S
Dy1700 O1704 2.398 . S
Dy1700 O1705 2.491 . S
Dy1700 O1706 2.403 . S
Dy1700 O1707 2.664 . S
Dy1700 O1711 2.326 . S
Dy1700 O1715 2.310 . S
Dy1700 O1716 2.351 . S
C1701 O1712 1.185 . S
C1701 O1713 1.355 . S
C1702 O1704 1.185 . S
C1702 O1705 1.355 . S
Dy1703 O1707 2.310 . S
Dy1703 O1710 2.351 . S
Dy1703 O1712 2.398 . S
Dy1703 O1713 2.491 . S
Dy1703 O1714 2.403 . S
Dy1703 O1715 2.664 . S
Dy1703 O1717 2.326 . S
O1704 Dy1700 2.398 . S
O1704 C1702 1.185 . S
O1705 Dy1700 2.491 . S
O1705 C1702 1.355 . S
O1706 Dy1700 2.403 . S
O1706 C1708 1.254 . S
O1707 Dy1700 2.664 . S
O1707 Dy1703 2.310 . S
O1707 C1708 1.268 . S
C1708 O1706 1.254 . S
C1708 O1707 1.268 . S
C1709 O1714 1.254 . S
C1709 O1715 1.268 . S
O1710 Dy1703 2.351 . S
O1710 C1718 1.249 . S
O1711 Dy1700 2.326 . S
O1711 C1718 1.267 . S
O1712 C1701 1.185 . S
O1712 Dy1703 2.398 . S
O1713 C1701 1.355 . S
O1713 Dy1703 2.491 . S
O1714 Dy1703 2.403 . S
O1714 C1709 1.254 . S
O1715 Dy1700 2.310 . S
O1715 Dy1703 2.664 . S
O1715 C1709 1.268 . S
O1716 Dy1700 2.351 . S
O1716 C1719 1.249 . S
O1717 Dy1703 2.326 . S
O1717 C1719 1.267 . S
C1718 O1710 1.249 . S
C1718 O1711 1.267 . S
C1719 O1716 1.249 . S
C1719 O1717 1.267 . S
Dy1720 O1724 2.398 . S
Dy1720 O1725 2.491 . S
Dy1720 O1726 2.403 . S
Dy1720 O1727 2.664 . S
Dy1720 O1731 2.326 . S
Dy1720 O1735 2.310 . S
Dy1720 O1736 2.351 . S
C1721 O1732 1.185 . S
C1721 O1733 1.355 . S
C1722 O1724 1.185 . S
C1722 O1725 1.355 . S
Dy1723 O1727 2.310 . S
Dy1723 O1730 2.351 . S
Dy1723 O1732 2.398 . S
Dy1723 O1733 2.491 . S
Dy1723 O1734 2.403 . S
Dy1723 O1735 2.664 . S
Dy1723 O1737 2.326 . S
O1724 Dy1720 2.398 . S
O1724 C1722 1.185 . S
O1725 Dy1720 2.491 . S
O1725 C1722 1.355 . S
O1726 Dy1720 2.403 . S
O1726 C1728 1.254 . S
O1727 Dy1720 2.664 . S
O1727 Dy1723 2.310 . S
O1727 C1728 1.268 . S
C1728 O1726 1.254 . S
C1728 O1727 1.268 . S
C1729 O1734 1.254 . S
C1729 O1735 1.268 . S
O1730 Dy1723 2.351 . S
O1730 C1738 1.249 . S
O1731 Dy1720 2.326 . S
O1731 C1738 1.267 . S
O1732 C1721 1.185 . S
O1732 Dy1723 2.398 . S
O1733 C1721 1.355 . S
O1733 Dy1723 2.491 . S
O1734 Dy1723 2.403 . S
O1734 C1729 1.254 . S
O1735 Dy1720 2.310 . S
O1735 Dy1723 2.664 . S
O1735 C1729 1.268 . S
O1736 Dy1720 2.351 . S
O1736 C1739 1.249 . S
O1737 Dy1723 2.326 . S
O1737 C1739 1.267 . S
C1738 O1730 1.249 . S
C1738 O1731 1.267 . S
C1739 O1736 1.249 . S
C1739 O1737 1.267 . S
Dy1740 O1744 2.398 . S
Dy1740 O1745 2.491 . S
Dy1740 O1746 2.403 . S
Dy1740 O1747 2.664 . S
Dy1740 O1751 2.326 . S
Dy1740 O1755 2.310 . S
Dy1740 O1756 2.351 . S
C1741 O1752 1.185 . S
C1741 O1753 1.355 . S
C1742 O1744 1.185 . S
C1742 O1745 1.355 . S
Dy1743 O1747 2.310 . S
Dy1743 O1750 2.351 . S
Dy1743 O1752 2.398 . S
Dy1743 O1753 2.491 . S
Dy1743 O1754 2.403 . S
Dy1743 O1755 2.664 . S
Dy1743 O1757 2.326 . S
O1744 Dy1740 2.398 . S
O1744 C1742 1.185 . S
O1745 Dy1740 2.491 . S
O1745 C1742 1.355 . S
O1746 Dy1740 2.403 . S
O1746 C1748 1.254 . S
O1747 Dy1740 2.664 . S
O1747 Dy1743 2.310 . S
O1747 C1748 1.268 . S
C1748 O1746 1.254 . S
C1748 O1747 1.268 . S
C1749 O1754 1.254 . S
C1749 O1755 1.268 . S
O1750 Dy1743 2.351 . S
O1750 C1758 1.249 . S
O1751 Dy1740 2.326 . S
O1751 C1758 1.267 . S
O1752 C1741 1.185 . S
O1752 Dy1743 2.398 . S
O1753 C1741 1.355 . S
O1753 Dy1743 2.491 . S
O1754 Dy1743 2.403 . S
O1754 C1749 1.254 . S
O1755 Dy1740 2.310 . S
O1755 Dy1743 2.664 . S
O1755 C1749 1.268 . S
O1756 Dy1740 2.351 . S
O1756 C1759 1.249 . S
O1757 Dy1743 2.326 . S
O1757 C1759 1.267 . S
C1758 O1750 1.249 . S
C1758 O1751 1.267 . S
C1759 O1756 1.249 . S
C1759 O1757 1.267 . S
Dy1760 O1764 2.398 . S
Dy1760 O1765 2.491 . S
Dy1760 O1766 2.403 . S
Dy1760 O1767 2.664 . S
Dy1760 O1771 2.326 . S
Dy1760 O1775 2.310 . S
Dy1760 O1776 2.351 . S
C1761 O1772 1.185 . S
C1761 O1773 1.355 . S
C1762 O1764 1.185 . S
C1762 O1765 1.355 . S
Dy1763 O1767 2.310 . S
Dy1763 O1770 2.351 . S
Dy1763 O1772 2.398 . S
Dy1763 O1773 2.491 . S
Dy1763 O1774 2.403 . S
Dy1763 O1775 2.664 . S
Dy1763 O1777 2.326 . S
O1764 Dy1760 2.398 . S
O1764 C1762 1.185 . S
O1765 Dy1760 2.491 . S
O1765 C1762 1.355 . S
O1766 Dy1760 2.403 . S
O1766 C1768 1.254 . S
O1767 Dy1760 2.664 . S
O1767 Dy1763 2.310 . S
O1767 C1768 1.268 . S
C1768 O1766 1.254 . S
C1768 O1767 1.268 . S
C1769 O1774 1.254 . S
C1769 O1775 1.268 . S
O1770 Dy1763 2.351 . S
O1770 C1778 1.249 . S
O1771 Dy1760 2.326 . S
O1771 C1778 1.267 . S
O1772 C1761 1.185 . S
O1772 Dy1763 2.398 . S
O1773 C1761 1.355 . S
O1773 Dy1763 2.491 . S
O1774 Dy1763 2.403 . S
O1774 C1769 1.254 . S
O1775 Dy1760 2.310 . S
O1775 Dy1763 2.664 . S
O1775 C1769 1.268 . S
O1776 Dy1760 2.351 . S
O1776 C1779 1.249 . S
O1777 Dy1763 2.326 . S
O1777 C1779 1.267 . S
C1778 O1770 1.249 . S
C1778 O1771 1.267 . S
C1779 O1776 1.249 . S
C1779 O1777 1.267 . S
Dy1780 O1784 2.398 . S
Dy1780 O1785 2.491 . S
Dy1780 O1786 2.403 . S
Dy1780 O1787 2.664 . S
Dy1780 O1791 2.326 . S
Dy1780 O1795 2.310 . S
Dy1780 O1796 2.351 . S
C1781 O1792 1.185 . S
C1781 O1793 1.355 . S
C1782 O1784 1.185 . S
C1782 O1785 1.355 . S
Dy1783 O1787 2.310 . S
Dy1783 O1790 2.351 . S
Dy1783 O1792 2.398 . S
Dy1783 O1793 2.491 . S
Dy1783 O1794 2.403 . S
Dy1783 O1795 2.664 . S
Dy1783 O1797 2.326 . S
O1784 Dy1780 2.398 . S
O1784 C1782 1.185 . S
O1785 Dy1780 2.491 . S
O1785 C1782 1.355 . S
O1786 Dy1780 2.403 . S
O1786 C1788 1.254 . S
O1787 Dy1780 2.664 . S
O1787 Dy1783 2.310 . S
O1787 C1788 1.268 . S
C1788 O1786 1.254 . S
C1788 O1787 1.268 . S
C1789 O1794 1.254 . S
C1789 O1795 1.268 . S
O1790 Dy1783 2.351 . S
O1790 C1798 1.249 . S
O1791 Dy1780 2.326 . S
O1791 C1798 1.267 . S
O1792 C1781 1.185 . S
O1792 Dy1783 2.398 . S
O1793 C1781 1.355 . S
O1793 Dy1783 2.491 . S
O1794 Dy1783 2.403 . S
O1794 C1789 1.254 . S
O1795 Dy1780 2.310 . S
O1795 Dy1783 2.664 . S
O1795 C1789 1.268 . S
O1796 Dy1780 2.351 . S
O1796 C1799 1.249 . S
O1797 Dy1783 2.326 . S
O1797 C1799 1.267 . S
C1798 O1790 1.249 . S
C1798 O1791 1.267 . S
C1799 O1796 1.249 . S
C1799 O1797 1.267 . S
Dy1800 O1804 2.398 . S
Dy1800 O1805 2.491 . S
Dy1800 O1806 2.403 . S
Dy1800 O1807 2.664 . S
Dy1800 O1811 2.326 . S
Dy1800 O1815 2.310 . S
Dy1800 O1816 2.351 . S
C1801 O1812 1.185 . S
C1801 O1813 1.355 . S
C1802 O1804 1.185 . S
C1802 O1805 1.355 . S
Dy1803 O1807 2.310 . S
Dy1803 O1810 2.351 . S
Dy1803 O1812 2.398 . S
Dy1803 O1813 2.491 . S
Dy1803 O1814 2.403 . S
Dy1803 O1815 2.664 . S
Dy1803 O1817 2.326 . S
O1804 Dy1800 2.398 . S
O1804 C1802 1.185 . S
O1805 Dy1800 2.491 . S
O1805 C1802 1.355 . S
O1806 Dy1800 2.403 . S
O1806 C1808 1.254 . S
O1807 Dy1800 2.664 . S
O1807 Dy1803 2.310 . S
O1807 C1808 1.268 . S
C1808 O1806 1.254 . S
C1808 O1807 1.268 . S
C1809 O1814 1.254 . S
C1809 O1815 1.268 . S
O1810 Dy1803 2.351 . S
O1810 C1818 1.249 . S
O1811 Dy1800 2.326 . S
O1811 C1818 1.267 . S
O1812 C1801 1.185 . S
O1812 Dy1803 2.398 . S
O1813 C1801 1.355 . S
O1813 Dy1803 2.491 . S
O1814 Dy1803 2.403 . S
O1814 C1809 1.254 . S
O1815 Dy1800 2.310 . S
O1815 Dy1803 2.664 . S
O1815 C1809 1.268 . S
O1816 Dy1800 2.351 . S
O1816 C1819 1.249 . S
O1817 Dy1803 2.326 . S
O1817 C1819 1.267 . S
C1818 O1810 1.249 . S
C1818 O1811 1.267 . S
C1819 O1816 1.249 . S
C1819 O1817 1.267 . S
Dy1820 O1824 2.398 1_554 S
Dy1820 O1825 2.491 1_554 S
Dy1820 O1826 2.403 . S
Dy1820 O1827 2.664 . S
Dy1820 O1831 2.326 1_554 S
Dy1820 O1835 2.310 . S
Dy1820 O1836 2.351 . S
C1821 O1832 1.185 . S
C1821 O1833 1.355 . S
C1822 O1824 1.185 . S
C1822 O1825 1.355 . S
Dy1823 O1827 2.310 . S
Dy1823 O1830 2.351 . S
Dy1823 O1832 2.398 . S
Dy1823 O1833 2.491 . S
Dy1823 O1834 2.403 . S
Dy1823 O1835 2.664 . S
Dy1823 O1837 2.326 . S
O1824 Dy1820 2.398 1_556 S
O1824 C1822 1.185 . S
O1825 Dy1820 2.491 1_556 S
O1825 C1822 1.355 . S
O1826 Dy1820 2.403 . S
O1826 C1828 1.254 . S
O1827 Dy1820 2.664 . S
O1827 Dy1823 2.310 . S
O1827 C1828 1.268 . S
C1828 O1826 1.254 . S
C1828 O1827 1.268 . S
C1829 O1834 1.254 . S
C1829 O1835 1.268 . S
O1830 Dy1823 2.351 . S
O1830 C1838 1.249 1_554 S
O1831 Dy1820 2.326 1_556 S
O1831 C1838 1.267 . S
O1832 C1821 1.185 . S
O1832 Dy1823 2.398 . S
O1833 C1821 1.355 . S
O1833 Dy1823 2.491 . S
O1834 Dy1823 2.403 . S
O1834 C1829 1.254 . S
O1835 Dy1820 2.310 . S
O1835 Dy1823 2.664 . S
O1835 C1829 1.268 . S
O1836 Dy1820 2.351 . S
O1836 C1839 1.249 . S
O1837 Dy1823 2.326 . S
O1837 C1839 1.267 . S
C1838 O1830 1.249 1_556 S
C1838 O1831 1.267 . S
C1839 O1836 1.249 . S
C1839 O1837 1.267 . S
Dy1840 O1844 2.398 . S
Dy1840 O1845 2.491 . S
Dy1840 O1846 2.403 . S
Dy1840 O1847 2.664 . S
Dy1840 O1851 2.326 . S
Dy1840 O1855 2.310 . S
Dy1840 O1856 2.351 . S
C1841 O1852 1.185 . S
C1841 O1853 1.355 . S
C1842 O1844 1.185 . S
C1842 O1845 1.355 . S
Dy1843 O1847 2.310 . S
Dy1843 O1850 2.351 . S
Dy1843 O1852 2.398 . S
Dy1843 O1853 2.491 . S
Dy1843 O1854 2.403 . S
Dy1843 O1855 2.664 . S
Dy1843 O1857 2.326 . S
O1844 Dy1840 2.398 . S
O1844 C1842 1.185 . S
O1845 Dy1840 2.491 . S
O1845 C1842 1.355 . S
O1846 Dy1840 2.403 . S
O1846 C1848 1.254 . S
O1847 Dy1840 2.664 . S
O1847 Dy1843 2.310 . S
O1847 C1848 1.268 . S
C1848 O1846 1.254 . S
C1848 O1847 1.268 . S
C1849 O1854 1.254 . S
C1849 O1855 1.268 . S
O1850 Dy1843 2.351 . S
O1850 C1858 1.249 . S
O1851 Dy1840 2.326 . S
O1851 C1858 1.267 . S
O1852 C1841 1.185 . S
O1852 Dy1843 2.398 . S
O1853 C1841 1.355 . S
O1853 Dy1843 2.491 . S
O1854 Dy1843 2.403 . S
O1854 C1849 1.254 . S
O1855 Dy1840 2.310 . S
O1855 Dy1843 2.664 . S
O1855 C1849 1.268 . S
O1856 Dy1840 2.351 . S
O1856 C1859 1.249 . S
O1857 Dy1843 2.326 . S
O1857 C1859 1.267 . S
C1858 O1850 1.249 . S
C1858 O1851 1.267 . S
C1859 O1856 1.249 . S
C1859 O1857 1.267 . S
Dy1860 O1864 2.398 1_556 S
Dy1860 O1865 2.491 1_556 S
Dy1860 O1866 2.403 . S
Dy1860 O1867 2.664 . S
Dy1860 O1871 2.320 1_556 S
Dy1860 O1875 2.310 . S
Dy1860 O1876 2.351 . S
C1861 O1872 1.185 . S
C1861 O1873 1.355 . S
C1862 O1864 1.185 . S
C1862 O1865 1.355 . S
Dy1863 O1867 2.310 . S
Dy1863 O1870 2.351 . S
Dy1863 O1872 2.398 . S
Dy1863 O1873 2.491 . S
Dy1863 O1874 2.403 . S
Dy1863 O1875 2.664 . S
Dy1863 O1877 2.326 . S
O1864 Dy1860 2.398 1_554 S
O1864 C1862 1.185 . S
O1865 Dy1860 2.491 1_554 S
O1865 C1862 1.355 . S
O1866 Dy1860 2.403 . S
O1866 C1868 1.254 . S
O1867 Dy1860 2.664 . S
O1867 Dy1863 2.310 . S
O1867 C1868 1.268 . S
C1868 O1866 1.254 . S
C1868 O1867 1.268 . S
C1869 O1874 1.254 . S
C1869 O1875 1.268 . S
O1870 Dy1863 2.351 . S
O1870 C1878 1.249 . S
O1871 Dy1860 2.320 1_554 S
O1871 C1878 1.257 1_554 S
O1872 C1861 1.185 . S
O1872 Dy1863 2.398 . S
O1873 C1861 1.355 . S
O1873 Dy1863 2.491 . S
O1874 Dy1863 2.403 . S
O1874 C1869 1.254 . S
O1875 Dy1860 2.310 . S
O1875 Dy1863 2.664 . S
O1875 C1869 1.268 . S
O1876 Dy1860 2.351 . S
O1876 C1879 1.249 . S
O1877 Dy1863 2.326 . S
O1877 C1879 1.267 . S
C1878 O1870 1.249 . S
C1878 O1871 1.257 1_556 S
C1879 O1876 1.249 . S
C1879 O1877 1.267 . S
Dy1880 O1884 2.398 . S
Dy1880 O1885 2.491 . S
Dy1880 O1886 2.403 . S
Dy1880 O1887 2.664 . S
Dy1880 O1891 2.326 . S
Dy1880 O1895 2.310 . S
Dy1880 O1896 2.351 . S
C1881 O1892 1.185 . S
C1881 O1893 1.355 . S
C1882 O1884 1.185 . S
C1882 O1885 1.355 . S
Dy1883 O1887 2.310 . S
Dy1883 O1890 2.351 . S
Dy1883 O1892 2.398 . S
Dy1883 O1893 2.491 . S
Dy1883 O1894 2.403 . S
Dy1883 O1895 2.664 . S
Dy1883 O1897 2.326 . S
O1884 Dy1880 2.398 . S
O1884 C1882 1.185 . S
O1885 Dy1880 2.491 . S
O1885 C1882 1.355 . S
O1886 Dy1880 2.403 . S
O1886 C1888 1.254 . S
O1887 Dy1880 2.664 . S
O1887 Dy1883 2.310 . S
O1887 C1888 1.268 . S
C1888 O1886 1.254 . S
C1888 O1887 1.268 . S
C1889 O1894 1.254 . S
C1889 O1895 1.268 . S
O1890 Dy1883 2.351 . S
O1890 C1898 1.249 . S
O1891 Dy1880 2.326 . S
O1891 C1898 1.267 . S
O1892 C1881 1.185 . S
O1892 Dy1883 2.398 . S
O1893 C1881 1.355 . S
O1893 Dy1883 2.491 . S
O1894 Dy1883 2.403 . S
O1894 C1889 1.254 . S
O1895 Dy1880 2.310 . S
O1895 Dy1883 2.664 . S
O1895 C1889 1.268 . S
O1896 Dy1880 2.351 . S
O1896 C1899 1.249 . S
O1897 Dy1883 2.326 . S
O1897 C1899 1.267 . S
C1898 O1890 1.249 . S
C1898 O1891 1.267 . S
C1899 O1896 1.249 . S
C1899 O1897 1.267 . S
Dy1900 O1904 2.398 . S
Dy1900 O1905 2.491 . S
Dy1900 O1906 2.403 . S
Dy1900 O1907 2.664 . S
Dy1900 O1911 2.326 . S
Dy1900 O1915 2.310 . S
Dy1900 O1916 2.351 . S
C1901 O1912 1.185 . S
C1901 O1913 1.355 . S
C1902 O1904 1.185 . S
C1902 O1905 1.355 . S
Dy1903 O1907 2.310 . S
Dy1903 O1910 2.351 . S
Dy1903 O1912 2.398 . S
Dy1903 O1913 2.491 . S
Dy1903 O1914 2.403 . S
Dy1903 O1915 2.664 . S
Dy1903 O1917 2.326 . S
O1904 Dy1900 2.398 . S
O1904 C1902 1.185 . S
O1905 Dy1900 2.491 . S
O1905 C1902 1.355 . S
O1906 Dy1900 2.403 . S
O1906 C1908 1.254 . S
O1907 Dy1900 2.664 . S
O1907 Dy1903 2.310 . S
O1907 C1908 1.268 . S
C1908 O1906 1.254 . S
C1908 O1907 1.268 . S
C1909 O1914 1.254 . S
C1909 O1915 1.268 . S
O1910 Dy1903 2.351 . S
O1910 C1918 1.249 . S
O1911 Dy1900 2.326 . S
O1911 C1918 1.267 . S
O1912 C1901 1.185 . S
O1912 Dy1903 2.398 . S
O1913 C1901 1.355 . S
O1913 Dy1903 2.491 . S
O1914 Dy1903 2.403 . S
O1914 C1909 1.254 . S
O1915 Dy1900 2.310 . S
O1915 Dy1903 2.664 . S
O1915 C1909 1.268 . S
O1916 Dy1900 2.351 . S
O1916 C1919 1.249 . S
O1917 Dy1903 2.326 . S
O1917 C1919 1.267 . S
C1918 O1910 1.249 . S
C1918 O1911 1.267 . S
C1919 O1916 1.249 . S
C1919 O1917 1.267 . S
H1920 C1928 0.950 . S
H1921 C1933 0.950 . S
H1922 C1930 0.950 . S
H1923 C1932 0.950 . S
H1924 C1934 0.950 . S
H1925 C1936 0.950 . S
H1926 C1938 0.950 . S
H1927 C1939 0.950 . S
C1928 H1920 0.950 . S
C1928 C1929 1.386 . S
C1928 C1930 1.391 . S
C1929 C1928 1.386 . S
C1929 C1933 1.393 . S
C1930 H1922 0.950 . S
C1930 C1928 1.391 . S
C1930 C1931 1.400 . S
C1931 C1930 1.400 . S
C1931 C1932 1.398 . S
C1931 C1937 1.491 . S
C1932 H1923 0.950 . S
C1932 C1931 1.398 . S
C1932 C1933 1.391 . S
C1933 H1921 0.950 . S
C1933 C1929 1.393 . S
C1933 C1932 1.391 . S
C1934 H1924 0.950 . S
C1934 C1935 1.386 . S
C1934 C1936 1.391 . S
C1935 C1934 1.386 . S
C1935 C1939 1.393 . S
C1936 H1925 0.950 . S
C1936 C1934 1.391 . S
C1936 C1937 1.400 . S
C1937 C1931 1.491 . S
C1937 C1936 1.400 . S
C1937 C1938 1.398 . S
C1938 H1926 0.950 . S
C1938 C1937 1.398 . S
C1938 C1939 1.391 . S
C1939 H1927 0.950 . S
C1939 C1935 1.393 . S
C1939 C1938 1.391 . S
H1940 C1948 0.950 . S
H1941 C1953 0.950 . S
H1942 C1950 0.950 . S
H1943 C1952 0.950 . S
H1944 C1954 0.950 . S
H1945 C1956 0.950 . S
H1946 C1958 0.950 . S
H1947 C1959 0.950 . S
C1948 H1940 0.950 . S
C1948 C1949 1.386 . S
C1948 C1950 1.391 . S
C1949 C1948 1.386 . S
C1949 C1953 1.393 . S
C1950 H1942 0.950 . S
C1950 C1948 1.391 . S
C1950 C1951 1.400 . S
C1951 C1950 1.400 . S
C1951 C1952 1.398 . S
C1951 C1957 1.491 . S
C1952 H1943 0.950 . S
C1952 C1951 1.398 . S
C1952 C1953 1.391 . S
C1953 H1941 0.950 . S
C1953 C1949 1.393 . S
C1953 C1952 1.391 . S
C1954 H1944 0.950 . S
C1954 C1955 1.386 . S
C1954 C1956 1.391 . S
C1955 C1954 1.386 . S
C1955 C1959 1.393 . S
C1956 H1945 0.950 . S
C1956 C1954 1.391 . S
C1956 C1957 1.400 . S
C1957 C1951 1.491 . S
C1957 C1956 1.400 . S
C1957 C1958 1.398 . S
C1958 H1946 0.950 . S
C1958 C1957 1.398 . S
C1958 C1959 1.391 . S
C1959 H1947 0.950 . S
C1959 C1955 1.393 . S
C1959 C1958 1.391 . S
H1960 C1968 0.950 . S
H1961 C1973 0.950 . S
H1962 C1970 0.950 . S
H1963 C1972 0.950 . S
H1964 C1974 0.950 . S
H1965 C1976 0.950 . S
H1966 C1978 0.950 . S
H1967 C1979 0.950 . S
C1968 H1960 0.950 . S
C1968 C1969 1.386 . S
C1968 C1970 1.391 . S
C1969 C1968 1.386 . S
C1969 C1973 1.393 . S
C1970 H1962 0.950 . S
C1970 C1968 1.391 . S
C1970 C1971 1.400 . S
C1971 C1970 1.400 . S
C1971 C1972 1.398 . S
C1971 C1977 1.491 . S
C1972 H1963 0.950 . S
C1972 C1971 1.398 . S
C1972 C1973 1.391 . S
C1973 H1961 0.950 . S
C1973 C1969 1.393 . S
C1973 C1972 1.391 . S
C1974 H1964 0.950 . S
C1974 C1975 1.386 . S
C1974 C1976 1.391 . S
C1975 C1974 1.386 . S
C1975 C1979 1.393 . S
C1976 H1965 0.950 . S
C1976 C1974 1.391 . S
C1976 C1977 1.400 . S
C1977 C1971 1.491 . S
C1977 C1976 1.400 . S
C1977 C1978 1.398 . S
C1978 H1966 0.950 . S
C1978 C1977 1.398 . S
C1978 C1979 1.391 . S
C1979 H1967 0.950 . S
C1979 C1975 1.393 . S
C1979 C1978 1.391 . S
H1980 C1988 0.950 . S
H1981 C1993 0.950 . S
H1982 C1990 0.950 . S
H1983 C1992 0.950 . S
H1984 C1994 0.950 . S
H1985 C1996 0.950 . S
H1986 C1998 0.950 . S
H1987 C1999 0.950 . S
C1988 H1980 0.950 . S
C1988 C1989 1.386 . S
C1988 C1990 1.391 . S
C1989 C1988 1.386 . S
C1989 C1993 1.393 . S
C1990 H1982 0.950 . S
C1990 C1988 1.391 . S
C1990 C1991 1.400 . S
C1991 C1990 1.400 . S
C1991 C1992 1.398 . S
C1991 C1997 1.491 . S
C1992 H1983 0.950 . S
C1992 C1991 1.398 . S
C1992 C1993 1.391 . S
C1993 H1981 0.950 . S
C1993 C1989 1.393 . S
C1993 C1992 1.391 . S
C1994 H1984 0.950 . S
C1994 C1995 1.386 . S
C1994 C1996 1.391 . S
C1995 C1994 1.386 . S
C1995 C1999 1.393 . S
C1996 H1985 0.950 . S
C1996 C1994 1.391 . S
C1996 C1997 1.400 . S
C1997 C1991 1.491 . S
C1997 C1996 1.400 . S
C1997 C1998 1.398 . S
C1998 H1986 0.950 . S
C1998 C1997 1.398 . S
C1998 C1999 1.391 . S
C1999 H1987 0.950 . S
C1999 C1995 1.393 . S
C1999 C1998 1.391 . S
H2000 C2008 0.950 . S
H2001 C2013 0.950 . S
H2002 C2010 0.950 . S
H2003 C2012 0.950 . S
H2004 C2014 0.950 . S
H2005 C2016 0.950 . S
H2006 C2018 0.950 . S
H2007 C2019 0.950 . S
C2008 H2000 0.950 . S
C2008 C2009 1.386 . S
C2008 C2010 1.391 . S
C2009 C2008 1.386 . S
C2009 C2013 1.393 . S
C2010 H2002 0.950 . S
C2010 C2008 1.391 . S
C2010 C2011 1.400 . S
C2011 C2010 1.400 . S
C2011 C2012 1.398 . S
C2011 C2017 1.491 . S
C2012 H2003 0.950 . S
C2012 C2011 1.398 . S
C2012 C2013 1.391 . S
C2013 H2001 0.950 . S
C2013 C2009 1.393 . S
C2013 C2012 1.391 . S
C2014 H2004 0.950 . S
C2014 C2015 1.386 . S
C2014 C2016 1.391 . S
C2015 C2014 1.386 . S
C2015 C2019 1.393 . S
C2016 H2005 0.950 . S
C2016 C2014 1.391 . S
C2016 C2017 1.400 . S
C2017 C2011 1.491 . S
C2017 C2016 1.400 . S
C2017 C2018 1.398 . S
C2018 H2006 0.950 . S
C2018 C2017 1.398 . S
C2018 C2019 1.391 . S
C2019 H2007 0.950 . S
C2019 C2015 1.393 . S
C2019 C2018 1.391 . S
H2020 C2028 0.950 . S
H2021 C2033 0.950 . S
H2022 C2030 0.950 . S
H2023 C2032 0.950 . S
H2024 C2034 0.950 . S
H2025 C2036 0.950 . S
H2026 C2038 0.950 . S
H2027 C2039 0.950 . S
C2028 H2020 0.950 . S
C2028 C2029 1.386 . S
C2028 C2030 1.391 . S
C2029 C2028 1.386 . S
C2029 C2033 1.393 . S
C2030 H2022 0.950 . S
C2030 C2028 1.391 . S
C2030 C2031 1.400 . S
C2031 C2030 1.400 . S
C2031 C2032 1.398 . S
C2031 C2037 1.491 . S
C2032 H2023 0.950 . S
C2032 C2031 1.398 . S
C2032 C2033 1.391 . S
C2033 H2021 0.950 . S
C2033 C2029 1.393 . S
C2033 C2032 1.391 . S
C2034 H2024 0.950 . S
C2034 C2035 1.386 . S
C2034 C2036 1.391 . S
C2035 C2034 1.386 . S
C2035 C2039 1.393 . S
C2036 H2025 0.950 . S
C2036 C2034 1.391 . S
C2036 C2037 1.400 . S
C2037 C2031 1.491 . S
C2037 C2036 1.400 . S
C2037 C2038 1.398 . S
C2038 H2026 0.950 . S
C2038 C2037 1.398 . S
C2038 C2039 1.391 . S
C2039 H2027 0.950 . S
C2039 C2035 1.393 . S
C2039 C2038 1.391 . S
H2040 C2048 0.950 . S
H2041 C2053 0.950 . S
H2042 C2050 0.950 . S
H2043 C2052 0.950 . S
H2044 C2054 0.950 . S
H2045 C2056 0.950 . S
H2046 C2058 0.950 . S
H2047 C2059 0.950 . S
C2048 H2040 0.950 . S
C2048 C2049 1.386 . S
C2048 C2050 1.391 . S
C2049 C2048 1.386 . S
C2049 C2053 1.393 . S
C2050 H2042 0.950 . S
C2050 C2048 1.391 . S
C2050 C2051 1.400 . S
C2051 C2050 1.400 . S
C2051 C2052 1.398 . S
C2051 C2057 1.491 . S
C2052 H2043 0.950 . S
C2052 C2051 1.398 . S
C2052 C2053 1.391 . S
C2053 H2041 0.950 . S
C2053 C2049 1.393 . S
C2053 C2052 1.391 . S
C2054 H2044 0.950 . S
C2054 C2055 1.386 . S
C2054 C2056 1.391 . S
C2055 C2054 1.386 . S
C2055 C2059 1.393 . S
C2056 H2045 0.950 . S
C2056 C2054 1.391 . S
C2056 C2057 1.400 . S
C2057 C2051 1.491 . S
C2057 C2056 1.400 . S
C2057 C2058 1.398 . S
C2058 H2046 0.950 . S
C2058 C2057 1.398 . S
C2058 C2059 1.391 . S
C2059 H2047 0.950 . S
C2059 C2055 1.393 . S
C2059 C2058 1.391 . S
H2060 C2068 0.950 . S
H2061 C2073 0.950 . S
H2062 C2070 0.950 . S
H2063 C2072 0.950 . S
H2064 C2074 0.950 . S
H2065 C2076 0.950 . S
H2066 C2078 0.950 . S
H2067 C2079 0.950 . S
C2068 H2060 0.950 . S
C2068 C2069 1.386 . S
C2068 C2070 1.391 . S
C2069 C2068 1.386 . S
C2069 C2073 1.393 . S
C2070 H2062 0.950 . S
C2070 C2068 1.391 . S
C2070 C2071 1.400 . S
C2071 C2070 1.400 . S
C2071 C2072 1.398 . S
C2071 C2077 1.491 . S
C2072 H2063 0.950 . S
C2072 C2071 1.398 . S
C2072 C2073 1.391 . S
C2073 H2061 0.950 . S
C2073 C2069 1.393 . S
C2073 C2072 1.391 . S
C2074 H2064 0.950 . S
C2074 C2075 1.386 . S
C2074 C2076 1.391 . S
C2075 C2074 1.386 . S
C2075 C2079 1.393 . S
C2076 H2065 0.950 . S
C2076 C2074 1.391 . S
C2076 C2077 1.400 . S
C2077 C2071 1.491 . S
C2077 C2076 1.400 . S
C2077 C2078 1.398 . S
C2078 H2066 0.950 . S
C2078 C2077 1.398 . S
C2078 C2079 1.391 . S
C2079 H2067 0.950 . S
C2079 C2075 1.393 . S
C2079 C2078 1.391 . S
H2080 C2088 0.950 . S
H2081 C2093 0.950 . S
H2082 C2090 0.950 . S
H2083 C2092 0.950 . S
H2084 C2094 0.950 . S
H2085 C2096 0.950 . S
H2086 C2098 0.950 . S
H2087 C2099 0.950 . S
C2088 H2080 0.950 . S
C2088 C2089 1.386 . S
C2088 C2090 1.391 . S
C2089 C2088 1.386 . S
C2089 C2093 1.393 . S
C2090 H2082 0.950 . S
C2090 C2088 1.391 . S
C2090 C2091 1.400 . S
C2091 C2090 1.400 . S
C2091 C2092 1.398 . S
C2091 C2097 1.491 . S
C2092 H2083 0.950 . S
C2092 C2091 1.398 . S
C2092 C2093 1.391 . S
C2093 H2081 0.950 . S
C2093 C2089 1.393 . S
C2093 C2092 1.391 . S
C2094 H2084 0.950 . S
C2094 C2095 1.386 . S
C2094 C2096 1.391 . S
C2095 C2094 1.386 . S
C2095 C2099 1.393 . S
C2096 H2085 0.950 . S
C2096 C2094 1.391 . S
C2096 C2097 1.400 . S
C2097 C2091 1.491 . S
C2097 C2096 1.400 . S
C2097 C2098 1.398 . S
C2098 H2086 0.950 . S
C2098 C2097 1.398 . S
C2098 C2099 1.391 . S
C2099 H2087 0.950 . S
C2099 C2095 1.393 . S
C2099 C2098 1.391 . S
H2100 C2108 0.950 . S
H2101 C2113 0.950 . S
H2102 C2110 0.950 . S
H2103 C2112 0.950 . S
H2104 C2114 0.950 . S
H2105 C2116 0.950 . S
H2106 C2118 0.950 . S
H2107 C2119 0.950 . S
C2108 H2100 0.950 . S
C2108 C2109 1.386 . S
C2108 C2110 1.391 . S
C2109 C2108 1.386 . S
C2109 C2113 1.393 . S
C2110 H2102 0.950 . S
C2110 C2108 1.391 . S
C2110 C2111 1.400 . S
C2111 C2110 1.400 . S
C2111 C2112 1.398 . S
C2111 C2117 1.491 . S
C2112 H2103 0.950 . S
C2112 C2111 1.398 . S
C2112 C2113 1.391 . S
C2113 H2101 0.950 . S
C2113 C2109 1.393 . S
C2113 C2112 1.391 . S
C2114 H2104 0.950 . S
C2114 C2115 1.386 . S
C2114 C2116 1.391 . S
C2115 C2114 1.386 . S
C2115 C2119 1.393 . S
C2116 H2105 0.950 . S
C2116 C2114 1.391 . S
C2116 C2117 1.400 . S
C2117 C2111 1.491 . S
C2117 C2116 1.400 . S
C2117 C2118 1.398 . S
C2118 H2106 0.950 . S
C2118 C2117 1.398 . S
C2118 C2119 1.391 . S
C2119 H2107 0.950 . S
C2119 C2115 1.393 . S
C2119 C2118 1.391 . S
H2120 C2128 0.950 . S
H2121 C2133 0.950 . S
H2122 C2130 0.950 . S
H2123 C2132 0.950 . S
H2124 C2134 0.950 . S
H2125 C2136 0.950 . S
H2126 C2138 0.950 . S
H2127 C2139 0.950 . S
C2128 H2120 0.950 . S
C2128 C2129 1.386 . S
C2128 C2130 1.391 . S
C2129 C2128 1.386 . S
C2129 C2133 1.393 . S
C2130 H2122 0.950 . S
C2130 C2128 1.391 . S
C2130 C2131 1.400 . S
C2131 C2130 1.400 . S
C2131 C2132 1.398 . S
C2131 C2137 1.491 . S
C2132 H2123 0.950 . S
C2132 C2131 1.398 . S
C2132 C2133 1.391 . S
C2133 H2121 0.950 . S
C2133 C2129 1.393 . S
C2133 C2132 1.391 . S
C2134 H2124 0.950 . S
C2134 C2135 1.386 . S
C2134 C2136 1.391 . S
C2135 C2134 1.386 . S
C2135 C2139 1.393 . S
C2136 H2125 0.950 . S
C2136 C2134 1.391 . S
C2136 C2137 1.400 . S
C2137 C2131 1.491 . S
C2137 C2136 1.400 . S
C2137 C2138 1.398 . S
C2138 H2126 0.950 . S
C2138 C2137 1.398 . S
C2138 C2139 1.391 . S
C2139 H2127 0.950 . S
C2139 C2135 1.393 . S
C2139 C2138 1.391 . S
H2140 C2148 0.950 . S
H2141 C2153 0.950 . S
H2142 C2150 0.950 . S
H2143 C2152 0.950 . S
H2144 C2154 0.950 . S
H2145 C2156 0.950 . S
H2146 C2158 0.950 . S
H2147 C2159 0.950 . S
C2148 H2140 0.950 . S
C2148 C2149 1.386 . S
C2148 C2150 1.391 . S
C2149 C2148 1.386 . S
C2149 C2153 1.393 . S
C2150 H2142 0.950 . S
C2150 C2148 1.391 . S
C2150 C2151 1.400 . S
C2151 C2150 1.400 . S
C2151 C2152 1.398 . S
C2151 C2157 1.491 . S
C2152 H2143 0.950 . S
C2152 C2151 1.398 . S
C2152 C2153 1.391 . S
C2153 H2141 0.950 . S
C2153 C2149 1.393 . S
C2153 C2152 1.391 . S
C2154 H2144 0.950 . S
C2154 C2155 1.386 . S
C2154 C2156 1.391 . S
C2155 C2154 1.386 . S
C2155 C2159 1.393 . S
C2156 H2145 0.950 . S
C2156 C2154 1.391 . S
C2156 C2157 1.400 . S
C2157 C2151 1.491 . S
C2157 C2156 1.400 . S
C2157 C2158 1.398 . S
C2158 H2146 0.950 . S
C2158 C2157 1.398 . S
C2158 C2159 1.391 . S
C2159 H2147 0.950 . S
C2159 C2155 1.393 . S
C2159 C2158 1.391 . S
H2160 C2168 0.950 . S
H2161 C2173 0.950 . S
H2162 C2170 0.950 . S
H2163 C2172 0.950 . S
H2164 C2174 0.950 . S
H2165 C2176 0.950 . S
H2166 C2178 0.950 . S
H2167 C2179 0.950 . S
C2168 H2160 0.950 . S
C2168 C2169 1.386 . S
C2168 C2170 1.391 . S
C2169 C2168 1.386 . S
C2169 C2173 1.393 . S
C2170 H2162 0.950 . S
C2170 C2168 1.391 . S
C2170 C2171 1.400 . S
C2171 C2170 1.400 . S
C2171 C2172 1.398 . S
C2171 C2177 1.491 . S
C2172 H2163 0.950 . S
C2172 C2171 1.398 . S
C2172 C2173 1.391 . S
C2173 H2161 0.950 . S
C2173 C2169 1.393 . S
C2173 C2172 1.391 . S
C2174 H2164 0.950 . S
C2174 C2175 1.386 . S
C2174 C2176 1.391 . S
C2175 C2174 1.386 . S
C2175 C2179 1.393 . S
C2176 H2165 0.950 . S
C2176 C2174 1.391 . S
C2176 C2177 1.400 . S
C2177 C2171 1.491 . S
C2177 C2176 1.400 . S
C2177 C2178 1.398 . S
C2178 H2166 0.950 . S
C2178 C2177 1.398 . S
C2178 C2179 1.391 . S
C2179 H2167 0.950 . S
C2179 C2175 1.393 . S
C2179 C2178 1.391 . S
H2180 C2188 0.950 . S
H2181 C2193 0.950 . S
H2182 C2190 0.950 . S
H2183 C2192 0.950 . S
H2184 C2194 0.950 . S
H2185 C2196 0.950 . S
H2186 C2198 0.950 . S
H2187 C2199 0.950 . S
C2188 H2180 0.950 . S
C2188 C2189 1.386 . S
C2188 C2190 1.391 . S
C2189 C2188 1.386 . S
C2189 C2193 1.393 . S
C2190 H2182 0.950 . S
C2190 C2188 1.391 . S
C2190 C2191 1.400 . S
C2191 C2190 1.400 . S
C2191 C2192 1.398 . S
C2191 C2197 1.491 . S
C2192 H2183 0.950 . S
C2192 C2191 1.398 . S
C2192 C2193 1.391 . S
C2193 H2181 0.950 . S
C2193 C2189 1.393 . S
C2193 C2192 1.391 . S
C2194 H2184 0.950 . S
C2194 C2195 1.386 . S
C2194 C2196 1.391 . S
C2195 C2194 1.386 . S
C2195 C2199 1.393 . S
C2196 H2185 0.950 . S
C2196 C2194 1.391 . S
C2196 C2197 1.400 . S
C2197 C2191 1.491 . S
C2197 C2196 1.400 . S
C2197 C2198 1.398 . S
C2198 H2186 0.950 . S
C2198 C2197 1.398 . S
C2198 C2199 1.391 . S
C2199 H2187 0.950 . S
C2199 C2195 1.393 . S
C2199 C2198 1.391 . S
H2200 C2208 0.950 . S
H2201 C2213 0.950 . S
H2202 C2210 0.950 . S
H2203 C2212 0.950 . S
H2204 C2214 0.950 . S
H2205 C2216 0.950 . S
H2206 C2218 0.950 . S
H2207 C2219 0.950 . S
C2208 H2200 0.950 . S
C2208 C2209 1.386 . S
C2208 C2210 1.391 . S
C2209 C2208 1.386 . S
C2209 C2213 1.393 . S
C2210 H2202 0.950 . S
C2210 C2208 1.391 . S
C2210 C2211 1.400 . S
C2211 C2210 1.400 . S
C2211 C2212 1.398 . S
C2211 C2217 1.491 . S
C2212 H2203 0.950 . S
C2212 C2211 1.398 . S
C2212 C2213 1.391 . S
C2213 H2201 0.950 . S
C2213 C2209 1.393 . S
C2213 C2212 1.391 . S
C2214 H2204 0.950 . S
C2214 C2215 1.386 . S
C2214 C2216 1.391 . S
C2215 C2214 1.386 . S
C2215 C2219 1.393 . S
C2216 H2205 0.950 . S
C2216 C2214 1.391 . S
C2216 C2217 1.400 . S
C2217 C2211 1.491 . S
C2217 C2216 1.400 . S
C2217 C2218 1.398 . S
C2218 H2206 0.950 . S
C2218 C2217 1.398 . S
C2218 C2219 1.391 . S
C2219 H2207 0.950 . S
C2219 C2215 1.393 . S
C2219 C2218 1.391 . S
H2220 C2228 0.950 . S
H2221 C2233 0.950 . S
H2222 C2230 0.950 . S
H2223 C2232 0.950 . S
H2224 C2234 0.950 . S
H2225 C2236 0.950 . S
H2226 C2238 0.950 . S
H2227 C2239 0.950 . S
C2228 H2220 0.950 . S
C2228 C2229 1.386 . S
C2228 C2230 1.391 . S
C2229 C2228 1.386 . S
C2229 C2233 1.393 . S
C2230 H2222 0.950 . S
C2230 C2228 1.391 . S
C2230 C2231 1.400 . S
C2231 C2230 1.400 . S
C2231 C2232 1.398 . S
C2231 C2237 1.491 . S
C2232 H2223 0.950 . S
C2232 C2231 1.398 . S
C2232 C2233 1.391 . S
C2233 H2221 0.950 . S
C2233 C2229 1.393 . S
C2233 C2232 1.391 . S
C2234 H2224 0.950 . S
C2234 C2235 1.386 . S
C2234 C2236 1.391 . S
C2235 C2234 1.386 . S
C2235 C2239 1.393 . S
C2236 H2225 0.950 . S
C2236 C2234 1.391 . S
C2236 C2237 1.400 . S
C2237 C2231 1.491 . S
C2237 C2236 1.400 . S
C2237 C2238 1.398 . S
C2238 H2226 0.950 . S
C2238 C2237 1.398 . S
C2238 C2239 1.391 . S
C2239 H2227 0.950 . S
C2239 C2235 1.393 . S
C2239 C2238 1.391 . S
H2240 C2248 0.950 . S
H2241 C2253 0.950 . S
H2242 C2250 0.950 . S
H2243 C2252 0.950 . S
H2244 C2254 0.950 . S
H2245 C2256 0.950 . S
H2246 C2258 0.950 . S
H2247 C2259 0.950 . S
C2248 H2240 0.950 . S
C2248 C2249 1.386 . S
C2248 C2250 1.391 . S
C2249 C2248 1.386 . S
C2249 C2253 1.393 . S
C2250 H2242 0.950 . S
C2250 C2248 1.391 . S
C2250 C2251 1.400 . S
C2251 C2250 1.400 . S
C2251 C2252 1.398 . S
C2251 C2257 1.491 . S
C2252 H2243 0.950 . S
C2252 C2251 1.398 . S
C2252 C2253 1.391 . S
C2253 H2241 0.950 . S
C2253 C2249 1.393 . S
C2253 C2252 1.391 . S
C2254 H2244 0.950 . S
C2254 C2255 1.386 . S
C2254 C2256 1.391 . S
C2255 C2254 1.386 . S
C2255 C2259 1.393 . S
C2256 H2245 0.950 . S
C2256 C2254 1.391 . S
C2256 C2257 1.400 . S
C2257 C2251 1.491 . S
C2257 C2256 1.400 . S
C2257 C2258 1.398 . S
C2258 H2246 0.950 . S
C2258 C2257 1.398 . S
C2258 C2259 1.391 . S
C2259 H2247 0.950 . S
C2259 C2255 1.393 . S
C2259 C2258 1.391 . S
H2260 C2268 0.950 . S
H2261 C2273 0.950 . S
H2262 C2270 0.950 . S
H2263 C2272 0.950 . S
H2264 C2274 0.950 . S
H2265 C2276 0.950 . S
H2266 C2278 0.950 . S
H2267 C2279 0.950 . S
C2268 H2260 0.950 . S
C2268 C2269 1.386 . S
C2268 C2270 1.391 . S
C2269 C2268 1.386 . S
C2269 C2273 1.393 . S
C2270 H2262 0.950 . S
C2270 C2268 1.391 . S
C2270 C2271 1.400 . S
C2271 C2270 1.400 . S
C2271 C2272 1.398 . S
C2271 C2277 1.491 . S
C2272 H2263 0.950 . S
C2272 C2271 1.398 . S
C2272 C2273 1.391 . S
C2273 H2261 0.950 . S
C2273 C2269 1.393 . S
C2273 C2272 1.391 . S
C2274 H2264 0.950 . S
C2274 C2275 1.386 . S
C2274 C2276 1.391 . S
C2275 C2274 1.386 . S
C2275 C2279 1.393 . S
C2276 H2265 0.950 . S
C2276 C2274 1.391 . S
C2276 C2277 1.400 . S
C2277 C2271 1.491 . S
C2277 C2276 1.400 . S
C2277 C2278 1.398 . S
C2278 H2266 0.950 . S
C2278 C2277 1.398 . S
C2278 C2279 1.391 . S
C2279 H2267 0.950 . S
C2279 C2275 1.393 . S
C2279 C2278 1.391 . S
H2280 C2288 0.950 . S
H2281 C2293 0.950 . S
H2282 C2290 0.950 . S
H2283 C2292 0.950 . S
H2284 C2294 0.950 . S
H2285 C2296 0.950 . S
H2286 C2298 0.950 . S
H2287 C2299 0.950 . S
C2288 H2280 0.950 . S
C2288 C2289 1.386 . S
C2288 C2290 1.391 . S
C2289 C2288 1.386 . S
C2289 C2293 1.393 . S
C2290 H2282 0.950 . S
C2290 C2288 1.391 . S
C2290 C2291 1.400 . S
C2291 C2290 1.400 . S
C2291 C2292 1.398 . S
C2291 C2297 1.491 . S
C2292 H2283 0.950 . S
C2292 C2291 1.398 . S
C2292 C2293 1.391 . S
C2293 H2281 0.950 . S
C2293 C2289 1.393 . S
C2293 C2292 1.391 . S
C2294 H2284 0.950 . S
C2294 C2295 1.386 . S
C2294 C2296 1.391 . S
C2295 C2294 1.386 . S
C2295 C2299 1.393 . S
C2296 H2285 0.950 . S
C2296 C2294 1.391 . S
C2296 C2297 1.400 . S
C2297 C2291 1.491 . S
C2297 C2296 1.400 . S
C2297 C2298 1.398 . S
C2298 H2286 0.950 . S
C2298 C2297 1.398 . S
C2298 C2299 1.391 . S
C2299 H2287 0.950 . S
C2299 C2295 1.393 . S
C2299 C2298 1.391 . S
H2300 C2308 0.950 . S
H2301 C2313 0.950 . S
H2302 C2310 0.950 . S
H2303 C2312 0.950 . S
H2304 C2314 0.950 . S
H2305 C2316 0.950 . S
H2306 C2318 0.950 . S
H2307 C2319 0.950 . S
C2308 H2300 0.950 . S
C2308 C2309 1.386 . S
C2308 C2310 1.391 . S
C2309 C2308 1.386 . S
C2309 C2313 1.393 . S
C2310 H2302 0.950 . S
C2310 C2308 1.391 . S
C2310 C2311 1.400 . S
C2311 C2310 1.400 . S
C2311 C2312 1.398 . S
C2311 C2317 1.491 . S
C2312 H2303 0.950 . S
C2312 C2311 1.398 . S
C2312 C2313 1.391 . S
C2313 H2301 0.950 . S
C2313 C2309 1.393 . S
C2313 C2312 1.391 . S
C2314 H2304 0.950 . S
C2314 C2315 1.386 . S
C2314 C2316 1.391 . S
C2315 C2314 1.386 . S
C2315 C2319 1.393 . S
C2316 H2305 0.950 . S
C2316 C2314 1.391 . S
C2316 C2317 1.400 . S
C2317 C2311 1.491 . S
C2317 C2316 1.400 . S
C2317 C2318 1.398 . S
C2318 H2306 0.950 . S
C2318 C2317 1.398 . S
C2318 C2319 1.391 . S
C2319 H2307 0.950 . S
C2319 C2315 1.393 . S
C2319 C2318 1.391 . S
H2320 C2328 0.950 . S
H2321 C2333 0.950 . S
H2322 C2330 0.950 . S
H2323 C2332 0.950 . S
H2324 C2334 0.950 . S
H2325 C2336 0.950 . S
H2326 C2338 0.950 . S
H2327 C2339 0.950 . S
C2328 H2320 0.950 . S
C2328 C2329 1.386 . S
C2328 C2330 1.391 . S
C2329 C2328 1.386 . S
C2329 C2333 1.393 . S
C2330 H2322 0.950 . S
C2330 C2328 1.391 . S
C2330 C2331 1.400 . S
C2331 C2330 1.400 . S
C2331 C2332 1.398 . S
C2331 C2337 1.491 . S
C2332 H2323 0.950 . S
C2332 C2331 1.398 . S
C2332 C2333 1.391 . S
C2333 H2321 0.950 . S
C2333 C2329 1.393 . S
C2333 C2332 1.391 . S
C2334 H2324 0.950 . S
C2334 C2335 1.386 . S
C2334 C2336 1.391 . S
C2335 C2334 1.386 . S
C2335 C2339 1.393 . S
C2336 H2325 0.950 . S
C2336 C2334 1.391 . S
C2336 C2337 1.400 . S
C2337 C2331 1.491 . S
C2337 C2336 1.400 . S
C2337 C2338 1.398 . S
C2338 H2326 0.950 . S
C2338 C2337 1.398 . S
C2338 C2339 1.391 . S
C2339 H2327 0.950 . S
C2339 C2335 1.393 . S
C2339 C2338 1.391 . S
H2340 C2348 0.950 . S
H2341 C2353 0.950 . S
H2342 C2350 0.950 . S
H2343 C2352 0.950 . S
H2344 C2354 0.950 . S
H2345 C2356 0.950 . S
H2346 C2358 0.950 . S
H2347 C2359 0.950 . S
C2348 H2340 0.950 . S
C2348 C2349 1.386 . S
C2348 C2350 1.391 . S
C2349 C2348 1.386 . S
C2349 C2353 1.393 . S
C2350 H2342 0.950 . S
C2350 C2348 1.391 . S
C2350 C2351 1.400 . S
C2351 C2350 1.400 . S
C2351 C2352 1.398 . S
C2351 C2357 1.491 . S
C2352 H2343 0.950 . S
C2352 C2351 1.398 . S
C2352 C2353 1.391 . S
C2353 H2341 0.950 . S
C2353 C2349 1.393 . S
C2353 C2352 1.391 . S
C2354 H2344 0.950 . S
C2354 C2355 1.386 . S
C2354 C2356 1.391 . S
C2355 C2354 1.386 . S
C2355 C2359 1.393 . S
C2356 H2345 0.950 . S
C2356 C2354 1.391 . S
C2356 C2357 1.400 . S
C2357 C2351 1.491 . S
C2357 C2356 1.400 . S
C2357 C2358 1.398 . S
C2358 H2346 0.950 . S
C2358 C2357 1.398 . S
C2358 C2359 1.391 . S
C2359 H2347 0.950 . S
C2359 C2355 1.393 . S
C2359 C2358 1.391 . S
H2360 C2368 0.950 . S
H2361 C2373 0.950 . S
H2362 C2370 0.950 . S
H2363 C2372 0.950 . S
H2364 C2374 0.950 . S
H2365 C2376 0.950 . S
H2366 C2378 0.950 . S
H2367 C2379 0.950 . S
C2368 H2360 0.950 . S
C2368 C2369 1.386 . S
C2368 C2370 1.391 . S
C2369 C2368 1.386 . S
C2369 C2373 1.393 . S
C2370 H2362 0.950 . S
C2370 C2368 1.391 . S
C2370 C2371 1.400 . S
C2371 C2370 1.400 . S
C2371 C2372 1.398 . S
C2371 C2377 1.491 . S
C2372 H2363 0.950 . S
C2372 C2371 1.398 . S
C2372 C2373 1.391 . S
C2373 H2361 0.950 . S
C2373 C2369 1.393 . S
C2373 C2372 1.391 . S
C2374 H2364 0.950 . S
C2374 C2375 1.386 . S
C2374 C2376 1.391 . S
C2375 C2374 1.386 . S
C2375 C2379 1.393 . S
C2376 H2365 0.950 . S
C2376 C2374 1.391 . S
C2376 C2377 1.400 . S
C2377 C2371 1.491 . S
C2377 C2376 1.400 . S
C2377 C2378 1.398 . S
C2378 H2366 0.950 . S
C2378 C2377 1.398 . S
C2378 C2379 1.391 . S
C2379 H2367 0.950 . S
C2379 C2375 1.393 . S
C2379 C2378 1.391 . S
H2380 C2388 0.950 . S
H2381 C2393 0.950 . S
H2382 C2390 0.950 . S
H2383 C2392 0.950 . S
H2384 C2394 0.950 . S
H2385 C2396 0.950 . S
H2386 C2398 0.950 . S
H2387 C2399 0.950 . S
C2388 H2380 0.950 . S
C2388 C2389 1.386 . S
C2388 C2390 1.391 . S
C2389 C2388 1.386 . S
C2389 C2393 1.393 . S
C2390 H2382 0.950 . S
C2390 C2388 1.391 . S
C2390 C2391 1.400 . S
C2391 C2390 1.400 . S
C2391 C2392 1.398 . S
C2391 C2397 1.491 . S
C2392 H2383 0.950 . S
C2392 C2391 1.398 . S
C2392 C2393 1.391 . S
C2393 H2381 0.950 . S
C2393 C2389 1.393 . S
C2393 C2392 1.391 . S
C2394 H2384 0.950 . S
C2394 C2395 1.386 . S
C2394 C2396 1.391 . S
C2395 C2394 1.386 . S
C2395 C2399 1.393 . S
C2396 H2385 0.950 . S
C2396 C2394 1.391 . S
C2396 C2397 1.400 . S
C2397 C2391 1.491 . S
C2397 C2396 1.400 . S
C2397 C2398 1.398 . S
C2398 H2386 0.950 . S
C2398 C2397 1.398 . S
C2398 C2399 1.391 . S
C2399 H2387 0.950 . S
C2399 C2395 1.393 . S
C2399 C2398 1.391 . S
H2400 C2408 0.950 . S
H2401 C2413 0.950 . S
H2402 C2410 0.950 . S
H2403 C2412 0.950 . S
H2404 C2414 0.950 . S
H2405 C2416 0.950 . S
H2406 C2418 0.950 . S
H2407 C2419 0.950 . S
C2408 H2400 0.950 . S
C2408 C2409 1.386 . S
C2408 C2410 1.391 . S
C2409 C2408 1.386 . S
C2409 C2413 1.393 . S
C2410 H2402 0.950 . S
C2410 C2408 1.391 . S
C2410 C2411 1.400 . S
C2411 C2410 1.400 . S
C2411 C2412 1.398 . S
C2411 C2417 1.491 . S
C2412 H2403 0.950 . S
C2412 C2411 1.398 . S
C2412 C2413 1.391 . S
C2413 H2401 0.950 . S
C2413 C2409 1.393 . S
C2413 C2412 1.391 . S
C2414 H2404 0.950 . S
C2414 C2415 1.386 . S
C2414 C2416 1.391 . S
C2415 C2414 1.386 . S
C2415 C2419 1.393 . S
C2416 H2405 0.950 . S
C2416 C2414 1.391 . S
C2416 C2417 1.400 . S
C2417 C2411 1.491 . S
C2417 C2416 1.400 . S
C2417 C2418 1.398 . S
C2418 H2406 0.950 . S
C2418 C2417 1.398 . S
C2418 C2419 1.391 . S
C2419 H2407 0.950 . S
C2419 C2415 1.393 . S
C2419 C2418 1.391 . S
H2420 C2428 0.950 . S
H2421 C2433 0.950 . S
H2422 C2430 0.950 . S
H2423 C2432 0.950 . S
H2424 C2434 0.950 . S
H2425 C2436 0.950 . S
H2426 C2438 0.950 . S
H2427 C2439 0.950 . S
C2428 H2420 0.950 . S
C2428 C2429 1.386 . S
C2428 C2430 1.391 . S
C2429 C2428 1.386 . S
C2429 C2433 1.393 . S
C2430 H2422 0.950 . S
C2430 C2428 1.391 . S
C2430 C2431 1.400 . S
C2431 C2430 1.400 . S
C2431 C2432 1.398 . S
C2431 C2437 1.491 . S
C2432 H2423 0.950 . S
C2432 C2431 1.398 . S
C2432 C2433 1.391 . S
C2433 H2421 0.950 . S
C2433 C2429 1.393 . S
C2433 C2432 1.391 . S
C2434 H2424 0.950 . S
C2434 C2435 1.386 . S
C2434 C2436 1.391 . S
C2435 C2434 1.386 . S
C2435 C2439 1.393 . S
C2436 H2425 0.950 . S
C2436 C2434 1.391 . S
C2436 C2437 1.400 . S
C2437 C2431 1.491 . S
C2437 C2436 1.400 . S
C2437 C2438 1.398 . S
C2438 H2426 0.950 . S
C2438 C2437 1.398 . S
C2438 C2439 1.391 . S
C2439 H2427 0.950 . S
C2439 C2435 1.393 . S
C2439 C2438 1.391 . S
H2440 C2448 0.950 . S
H2441 C2453 0.950 . S
H2442 C2450 0.950 . S
H2443 C2452 0.950 . S
H2444 C2454 0.950 . S
H2445 C2456 0.950 . S
H2446 C2458 0.950 . S
H2447 C2459 0.950 . S
C2448 H2440 0.950 . S
C2448 C2449 1.386 . S
C2448 C2450 1.391 . S
C2449 C2448 1.386 . S
C2449 C2453 1.393 . S
C2450 H2442 0.950 . S
C2450 C2448 1.391 . S
C2450 C2451 1.400 . S
C2451 C2450 1.400 . S
C2451 C2452 1.398 . S
C2451 C2457 1.491 . S
C2452 H2443 0.950 . S
C2452 C2451 1.398 . S
C2452 C2453 1.391 . S
C2453 H2441 0.950 . S
C2453 C2449 1.393 . S
C2453 C2452 1.391 . S
C2454 H2444 0.950 . S
C2454 C2455 1.386 . S
C2454 C2456 1.391 . S
C2455 C2454 1.386 . S
C2455 C2459 1.393 . S
C2456 H2445 0.950 . S
C2456 C2454 1.391 . S
C2456 C2457 1.400 . S
C2457 C2451 1.491 . S
C2457 C2456 1.400 . S
C2457 C2458 1.398 . S
C2458 H2446 0.950 . S
C2458 C2457 1.398 . S
C2458 C2459 1.391 . S
C2459 H2447 0.950 . S
C2459 C2455 1.393 . S
C2459 C2458 1.391 . S
H2460 C2468 0.950 . S
H2461 C2473 0.950 . S
H2462 C2470 0.950 . S
H2463 C2472 0.950 . S
H2464 C2474 0.950 . S
H2465 C2476 0.950 . S
H2466 C2478 0.950 . S
H2467 C2479 0.950 . S
C2468 H2460 0.950 . S
C2468 C2469 1.386 . S
C2468 C2470 1.391 . S
C2469 C2468 1.386 . S
C2469 C2473 1.393 . S
C2470 H2462 0.950 . S
C2470 C2468 1.391 . S
C2470 C2471 1.400 . S
C2471 C2470 1.400 . S
C2471 C2472 1.398 . S
C2471 C2477 1.491 . S
C2472 H2463 0.950 . S
C2472 C2471 1.398 . S
C2472 C2473 1.391 . S
C2473 H2461 0.950 . S
C2473 C2469 1.393 . S
C2473 C2472 1.391 . S
C2474 H2464 0.950 . S
C2474 C2475 1.386 . S
C2474 C2476 1.391 . S
C2475 C2474 1.386 . S
C2475 C2479 1.393 . S
C2476 H2465 0.950 . S
C2476 C2474 1.391 . S
C2476 C2477 1.400 . S
C2477 C2471 1.491 . S
C2477 C2476 1.400 . S
C2477 C2478 1.398 . S
C2478 H2466 0.950 . S
C2478 C2477 1.398 . S
C2478 C2479 1.391 . S
C2479 H2467 0.950 . S
C2479 C2475 1.393 . S
C2479 C2478 1.391 . S
H2480 C2488 0.950 . S
H2481 C2493 0.950 . S
H2482 C2490 0.950 . S
H2483 C2492 0.950 . S
H2484 C2494 0.950 . S
H2485 C2496 0.950 . S
H2486 C2498 0.950 . S
H2487 C2499 0.950 . S
C2488 H2480 0.950 . S
C2488 C2489 1.386 . S
C2488 C2490 1.391 . S
C2489 C2488 1.386 . S
C2489 C2493 1.393 . S
C2490 H2482 0.950 . S
C2490 C2488 1.391 . S
C2490 C2491 1.400 . S
C2491 C2490 1.400 . S
C2491 C2492 1.398 . S
C2491 C2497 1.491 . S
C2492 H2483 0.950 . S
C2492 C2491 1.398 . S
C2492 C2493 1.391 . S
C2493 H2481 0.950 . S
C2493 C2489 1.393 . S
C2493 C2492 1.391 . S
C2494 H2484 0.950 . S
C2494 C2495 1.386 . S
C2494 C2496 1.391 . S
C2495 C2494 1.386 . S
C2495 C2499 1.393 . S
C2496 H2485 0.950 . S
C2496 C2494 1.391 . S
C2496 C2497 1.400 . S
C2497 C2491 1.491 . S
C2497 C2496 1.400 . S
C2497 C2498 1.398 . S
C2498 H2486 0.950 . S
C2498 C2497 1.398 . S
C2498 C2499 1.391 . S
C2499 H2487 0.950 . S
C2499 C2495 1.393 . S
C2499 C2498 1.391 . S
H2500 C2508 0.950 . S
H2501 C2513 0.950 . S
H2502 C2510 0.950 . S
H2503 C2512 0.950 . S
H2504 C2514 0.950 . S
H2505 C2516 0.950 . S
H2506 C2518 0.950 . S
H2507 C2519 0.950 . S
C2508 H2500 0.950 . S
C2508 C2509 1.386 . S
C2508 C2510 1.391 . S
C2509 C2508 1.386 . S
C2509 C2513 1.393 . S
C2510 H2502 0.950 . S
C2510 C2508 1.391 . S
C2510 C2511 1.400 . S
C2511 C2510 1.400 . S
C2511 C2512 1.398 . S
C2511 C2517 1.491 . S
C2512 H2503 0.950 . S
C2512 C2511 1.398 . S
C2512 C2513 1.391 . S
C2513 H2501 0.950 . S
C2513 C2509 1.393 . S
C2513 C2512 1.391 . S
C2514 H2504 0.950 . S
C2514 C2515 1.386 . S
C2514 C2516 1.391 . S
C2515 C2514 1.386 . S
C2515 C2519 1.393 . S
C2516 H2505 0.950 . S
C2516 C2514 1.391 . S
C2516 C2517 1.400 . S
C2517 C2511 1.491 . S
C2517 C2516 1.400 . S
C2517 C2518 1.398 . S
C2518 H2506 0.950 . S
C2518 C2517 1.398 . S
C2518 C2519 1.391 . S
C2519 H2507 0.950 . S
C2519 C2515 1.393 . S
C2519 C2518 1.391 . S
H2520 C2528 0.950 . S
H2521 C2533 0.950 . S
H2522 C2530 0.950 . S
H2523 C2532 0.950 . S
H2524 C2534 0.950 . S
H2525 C2536 0.950 . S
H2526 C2538 0.950 . S
H2527 C2539 0.950 . S
C2528 H2520 0.950 . S
C2528 C2529 1.386 . S
C2528 C2530 1.391 . S
C2529 C2528 1.386 . S
C2529 C2533 1.393 . S
C2530 H2522 0.950 . S
C2530 C2528 1.391 . S
C2530 C2531 1.400 . S
C2531 C2530 1.400 . S
C2531 C2532 1.398 . S
C2531 C2537 1.491 . S
C2532 H2523 0.950 . S
C2532 C2531 1.398 . S
C2532 C2533 1.391 . S
C2533 H2521 0.950 . S
C2533 C2529 1.393 . S
C2533 C2532 1.391 . S
C2534 H2524 0.950 . S
C2534 C2535 1.386 . S
C2534 C2536 1.391 . S
C2535 C2534 1.386 . S
C2535 C2539 1.393 . S
C2536 H2525 0.950 . S
C2536 C2534 1.391 . S
C2536 C2537 1.400 . S
C2537 C2531 1.491 . S
C2537 C2536 1.400 . S
C2537 C2538 1.398 . S
C2538 H2526 0.950 . S
C2538 C2537 1.398 . S
C2538 C2539 1.391 . S
C2539 H2527 0.950 . S
C2539 C2535 1.393 . S
C2539 C2538 1.391 . S
H2540 C2548 0.950 . S
H2541 C2553 0.950 . S
H2542 C2550 0.950 . S
H2543 C2552 0.950 . S
H2544 C2554 0.950 . S
H2545 C2556 0.950 . S
H2546 C2558 0.950 . S
H2547 C2559 0.950 . S
C2548 H2540 0.950 . S
C2548 C2549 1.386 . S
C2548 C2550 1.391 . S
C2549 C2548 1.386 . S
C2549 C2553 1.393 . S
C2550 H2542 0.950 . S
C2550 C2548 1.391 . S
C2550 C2551 1.400 . S
C2551 C2550 1.400 . S
C2551 C2552 1.398 . S
C2551 C2557 1.491 . S
C2552 H2543 0.950 . S
C2552 C2551 1.398 . S
C2552 C2553 1.391 . S
C2553 H2541 0.950 . S
C2553 C2549 1.393 . S
C2553 C2552 1.391 . S
C2554 H2544 0.950 . S
C2554 C2555 1.386 . S
C2554 C2556 1.391 . S
C2555 C2554 1.386 . S
C2555 C2559 1.393 . S
C2556 H2545 0.950 . S
C2556 C2554 1.391 . S
C2556 C2557 1.400 . S
C2557 C2551 1.491 . S
C2557 C2556 1.400 . S
C2557 C2558 1.398 . S
C2558 H2546 0.950 . S
C2558 C2557 1.398 . S
C2558 C2559 1.391 . S
C2559 H2547 0.950 . S
C2559 C2555 1.393 . S
C2559 C2558 1.391 . S
H2560 C2568 0.950 . S
H2561 C2573 0.950 . S
H2562 C2570 0.950 . S
H2563 C2572 0.950 . S
H2564 C2574 0.950 . S
H2565 C2576 0.950 . S
H2566 C2578 0.950 . S
H2567 C2579 0.950 . S
C2568 H2560 0.950 . S
C2568 C2569 1.386 . S
C2568 C2570 1.391 . S
C2569 C2568 1.386 . S
C2569 C2573 1.393 . S
C2570 H2562 0.950 . S
C2570 C2568 1.391 . S
C2570 C2571 1.400 . S
C2571 C2570 1.400 . S
C2571 C2572 1.398 . S
C2571 C2577 1.491 . S
C2572 H2563 0.950 . S
C2572 C2571 1.398 . S
C2572 C2573 1.391 . S
C2573 H2561 0.950 . S
C2573 C2569 1.393 . S
C2573 C2572 1.391 . S
C2574 H2564 0.950 . S
C2574 C2575 1.386 . S
C2574 C2576 1.391 . S
C2575 C2574 1.386 . S
C2575 C2579 1.393 . S
C2576 H2565 0.950 . S
C2576 C2574 1.391 . S
C2576 C2577 1.400 . S
C2577 C2571 1.491 . S
C2577 C2576 1.400 . S
C2577 C2578 1.398 . S
C2578 H2566 0.950 . S
C2578 C2577 1.398 . S
C2578 C2579 1.391 . S
C2579 H2567 0.950 . S
C2579 C2575 1.393 . S
C2579 C2578 1.391 . S
H2580 C2588 0.950 . S
H2581 C2593 0.950 . S
H2582 C2590 0.950 . S
H2583 C2592 0.950 . S
H2584 C2594 0.950 . S
H2585 C2596 0.950 . S
H2586 C2598 0.950 . S
H2587 C2599 0.950 . S
C2588 H2580 0.950 . S
C2588 C2589 1.386 . S
C2588 C2590 1.391 . S
C2589 C2588 1.386 . S
C2589 C2593 1.393 . S
C2590 H2582 0.950 . S
C2590 C2588 1.391 . S
C2590 C2591 1.400 . S
C2591 C2590 1.400 . S
C2591 C2592 1.398 . S
C2591 C2597 1.491 . S
C2592 H2583 0.950 . S
C2592 C2591 1.398 . S
C2592 C2593 1.391 . S
C2593 H2581 0.950 . S
C2593 C2589 1.393 . S
C2593 C2592 1.391 . S
C2594 H2584 0.950 . S
C2594 C2595 1.386 . S
C2594 C2596 1.391 . S
C2595 C2594 1.386 . S
C2595 C2599 1.393 . S
C2596 H2585 0.950 . S
C2596 C2594 1.391 . S
C2596 C2597 1.400 . S
C2597 C2591 1.491 . S
C2597 C2596 1.400 . S
C2597 C2598 1.398 . S
C2598 H2586 0.950 . S
C2598 C2597 1.398 . S
C2598 C2599 1.391 . S
C2599 H2587 0.950 . S
C2599 C2595 1.393 . S
C2599 C2598 1.391 . S
H2600 C2608 0.950 . S
H2601 C2613 0.950 . S
H2602 C2610 0.950 . S
H2603 C2612 0.950 . S
H2604 C2614 0.950 . S
H2605 C2616 0.950 . S
H2606 C2618 0.950 . S
H2607 C2619 0.950 . S
C2608 H2600 0.950 . S
C2608 C2609 1.386 . S
C2608 C2610 1.391 . S
C2609 C2608 1.386 . S
C2609 C2613 1.393 . S
C2610 H2602 0.950 . S
C2610 C2608 1.391 . S
C2610 C2611 1.400 . S
C2611 C2610 1.400 . S
C2611 C2612 1.398 . S
C2611 C2617 1.491 . S
C2612 H2603 0.950 . S
C2612 C2611 1.398 . S
C2612 C2613 1.391 . S
C2613 H2601 0.950 . S
C2613 C2609 1.393 . S
C2613 C2612 1.391 . S
C2614 H2604 0.950 . S
C2614 C2615 1.386 . S
C2614 C2616 1.391 . S
C2615 C2614 1.386 . S
C2615 C2619 1.393 . S
C2616 H2605 0.950 . S
C2616 C2614 1.391 . S
C2616 C2617 1.400 . S
C2617 C2611 1.491 . S
C2617 C2616 1.400 . S
C2617 C2618 1.398 . S
C2618 H2606 0.950 . S
C2618 C2617 1.398 . S
C2618 C2619 1.391 . S
C2619 H2607 0.950 . S
C2619 C2615 1.393 . S
C2619 C2618 1.391 . S
H2620 C2628 0.950 . S
H2621 C2633 0.950 . S
H2622 C2630 0.950 . S
H2623 C2632 0.950 . S
H2624 C2634 0.950 . S
H2625 C2636 0.950 . S
H2626 C2638 0.950 . S
H2627 C2639 0.950 . S
C2628 H2620 0.950 . S
C2628 C2629 1.386 . S
C2628 C2630 1.391 . S
C2629 C2628 1.386 . S
C2629 C2633 1.393 . S
C2630 H2622 0.950 . S
C2630 C2628 1.391 . S
C2630 C2631 1.400 . S
C2631 C2630 1.400 . S
C2631 C2632 1.398 . S
C2631 C2637 1.491 . S
C2632 H2623 0.950 . S
C2632 C2631 1.398 . S
C2632 C2633 1.391 . S
C2633 H2621 0.950 . S
C2633 C2629 1.393 . S
C2633 C2632 1.391 . S
C2634 H2624 0.950 . S
C2634 C2635 1.386 . S
C2634 C2636 1.391 . S
C2635 C2634 1.386 . S
C2635 C2639 1.393 . S
C2636 H2625 0.950 . S
C2636 C2634 1.391 . S
C2636 C2637 1.400 . S
C2637 C2631 1.491 . S
C2637 C2636 1.400 . S
C2637 C2638 1.398 . S
C2638 H2626 0.950 . S
C2638 C2637 1.398 . S
C2638 C2639 1.391 . S
C2639 H2627 0.950 . S
C2639 C2635 1.393 . S
C2639 C2638 1.391 . S
H2640 C2648 0.950 . S
H2641 C2653 0.950 . S
H2642 C2650 0.950 . S
H2643 C2652 0.950 . S
H2644 C2654 0.950 . S
H2645 C2656 0.950 . S
H2646 C2658 0.950 . S
H2647 C2659 0.950 . S
C2648 H2640 0.950 . S
C2648 C2649 1.386 . S
C2648 C2650 1.391 . S
C2649 C2648 1.386 . S
C2649 C2653 1.393 . S
C2650 H2642 0.950 . S
C2650 C2648 1.391 . S
C2650 C2651 1.400 . S
C2651 C2650 1.400 . S
C2651 C2652 1.398 . S
C2651 C2657 1.491 . S
C2652 H2643 0.950 . S
C2652 C2651 1.398 . S
C2652 C2653 1.391 . S
C2653 H2641 0.950 . S
C2653 C2649 1.393 . S
C2653 C2652 1.391 . S
C2654 H2644 0.950 . S
C2654 C2655 1.386 . S
C2654 C2656 1.391 . S
C2655 C2654 1.386 . S
C2655 C2659 1.393 . S
C2656 H2645 0.950 . S
C2656 C2654 1.391 . S
C2656 C2657 1.400 . S
C2657 C2651 1.491 . S
C2657 C2656 1.400 . S
C2657 C2658 1.398 . S
C2658 H2646 0.950 . S
C2658 C2657 1.398 . S
C2658 C2659 1.391 . S
C2659 H2647 0.950 . S
C2659 C2655 1.393 . S
C2659 C2658 1.391 . S
H2660 C2668 0.950 . S
H2661 C2673 0.950 . S
H2662 C2670 0.950 . S
H2663 C2672 0.950 . S
H2664 C2674 0.950 . S
H2665 C2676 0.950 . S
H2666 C2678 0.950 . S
H2667 C2679 0.950 . S
C2668 H2660 0.950 . S
C2668 C2669 1.386 . S
C2668 C2670 1.391 . S
C2669 C2668 1.386 . S
C2669 C2673 1.393 . S
C2670 H2662 0.950 . S
C2670 C2668 1.391 . S
C2670 C2671 1.400 . S
C2671 C2670 1.400 . S
C2671 C2672 1.398 . S
C2671 C2677 1.491 . S
C2672 H2663 0.950 . S
C2672 C2671 1.398 . S
C2672 C2673 1.391 . S
C2673 H2661 0.950 . S
C2673 C2669 1.393 . S
C2673 C2672 1.391 . S
C2674 H2664 0.950 . S
C2674 C2675 1.386 . S
C2674 C2676 1.391 . S
C2675 C2674 1.386 . S
C2675 C2679 1.393 . S
C2676 H2665 0.950 . S
C2676 C2674 1.391 . S
C2676 C2677 1.400 . S
C2677 C2671 1.491 . S
C2677 C2676 1.400 . S
C2677 C2678 1.398 . S
C2678 H2666 0.950 . S
C2678 C2677 1.398 . S
C2678 C2679 1.391 . S
C2679 H2667 0.950 . S
C2679 C2675 1.393 . S
C2679 C2678 1.391 . S
H2680 C2688 0.950 . S
H2681 C2693 0.950 . S
H2682 C2690 0.950 . S
H2683 C2692 0.950 . S
H2684 C2694 0.950 . S
H2685 C2696 0.950 . S
H2686 C2698 0.950 . S
H2687 C2699 0.950 . S
C2688 H2680 0.950 . S
C2688 C2689 1.386 . S
C2688 C2690 1.391 . S
C2689 C2688 1.386 . S
C2689 C2693 1.393 . S
C2690 H2682 0.950 . S
C2690 C2688 1.391 . S
C2690 C2691 1.400 . S
C2691 C2690 1.400 . S
C2691 C2692 1.398 . S
C2691 C2697 1.491 . S
C2692 H2683 0.950 . S
C2692 C2691 1.398 . S
C2692 C2693 1.391 . S
C2693 H2681 0.950 . S
C2693 C2689 1.393 . S
C2693 C2692 1.391 . S
C2694 H2684 0.950 . S
C2694 C2695 1.386 . S
C2694 C2696 1.391 . S
C2695 C2694 1.386 . S
C2695 C2699 1.393 . S
C2696 H2685 0.950 . S
C2696 C2694 1.391 . S
C2696 C2697 1.400 . S
C2697 C2691 1.491 . S
C2697 C2696 1.400 . S
C2697 C2698 1.398 . S
C2698 H2686 0.950 . S
C2698 C2697 1.398 . S
C2698 C2699 1.391 . S
C2699 H2687 0.950 . S
C2699 C2695 1.393 . S
C2699 C2698 1.391 . S
H2700 C2708 0.950 . S
H2701 C2713 0.950 . S
H2702 C2710 0.950 . S
H2703 C2712 0.950 . S
H2704 C2714 0.950 . S
H2705 C2716 0.950 . S
H2706 C2718 0.950 . S
H2707 C2719 0.950 . S
C2708 H2700 0.950 . S
C2708 C2709 1.386 . S
C2708 C2710 1.391 . S
C2709 C2708 1.386 . S
C2709 C2713 1.393 . S
C2710 H2702 0.950 . S
C2710 C2708 1.391 . S
C2710 C2711 1.400 . S
C2711 C2710 1.400 . S
C2711 C2712 1.398 . S
C2711 C2717 1.491 . S
C2712 H2703 0.950 . S
C2712 C2711 1.398 . S
C2712 C2713 1.391 . S
C2713 H2701 0.950 . S
C2713 C2709 1.393 . S
C2713 C2712 1.391 . S
C2714 H2704 0.950 . S
C2714 C2715 1.386 . S
C2714 C2716 1.391 . S
C2715 C2714 1.386 . S
C2715 C2719 1.393 . S
C2716 H2705 0.950 . S
C2716 C2714 1.391 . S
C2716 C2717 1.400 . S
C2717 C2711 1.491 . S
C2717 C2716 1.400 . S
C2717 C2718 1.398 . S
C2718 H2706 0.950 . S
C2718 C2717 1.398 . S
C2718 C2719 1.391 . S
C2719 H2707 0.950 . S
C2719 C2715 1.393 . S
C2719 C2718 1.391 . S
H2720 C2728 0.950 . S
H2721 C2733 0.950 . S
H2722 C2730 0.950 . S
H2723 C2732 0.950 . S
H2724 C2734 0.950 . S
H2725 C2736 0.950 . S
H2726 C2738 0.950 . S
H2727 C2739 0.950 . S
C2728 H2720 0.950 . S
C2728 C2729 1.386 . S
C2728 C2730 1.391 . S
C2729 C2728 1.386 . S
C2729 C2733 1.393 . S
C2730 H2722 0.950 . S
C2730 C2728 1.391 . S
C2730 C2731 1.400 . S
C2731 C2730 1.400 . S
C2731 C2732 1.398 . S
C2731 C2737 1.491 . S
C2732 H2723 0.950 . S
C2732 C2731 1.398 . S
C2732 C2733 1.391 . S
C2733 H2721 0.950 . S
C2733 C2729 1.393 . S
C2733 C2732 1.391 . S
C2734 H2724 0.950 . S
C2734 C2735 1.386 . S
C2734 C2736 1.391 . S
C2735 C2734 1.386 . S
C2735 C2739 1.393 . S
C2736 H2725 0.950 . S
C2736 C2734 1.391 . S
C2736 C2737 1.400 . S
C2737 C2731 1.491 . S
C2737 C2736 1.400 . S
C2737 C2738 1.398 . S
C2738 H2726 0.950 . S
C2738 C2737 1.398 . S
C2738 C2739 1.391 . S
C2739 H2727 0.950 . S
C2739 C2735 1.393 . S
C2739 C2738 1.391 . S
H2740 C2748 0.950 . S
H2741 C2753 0.950 . S
H2742 C2750 0.950 . S
H2743 C2752 0.950 . S
H2744 C2754 0.950 . S
H2745 C2756 0.950 . S
H2746 C2758 0.950 . S
H2747 C2759 0.950 . S
C2748 H2740 0.950 . S
C2748 C2749 1.386 . S
C2748 C2750 1.391 . S
C2749 C2748 1.386 . S
C2749 C2753 1.393 . S
C2750 H2742 0.950 . S
C2750 C2748 1.391 . S
C2750 C2751 1.400 . S
C2751 C2750 1.400 . S
C2751 C2752 1.398 . S
C2751 C2757 1.491 . S
C2752 H2743 0.950 . S
C2752 C2751 1.398 . S
C2752 C2753 1.391 . S
C2753 H2741 0.950 . S
C2753 C2749 1.393 . S
C2753 C2752 1.391 . S
C2754 H2744 0.950 . S
C2754 C2755 1.386 . S
C2754 C2756 1.391 . S
C2755 C2754 1.386 . S
C2755 C2759 1.393 . S
C2756 H2745 0.950 . S
C2756 C2754 1.391 . S
C2756 C2757 1.400 . S
C2757 C2751 1.491 . S
C2757 C2756 1.400 . S
C2757 C2758 1.398 . S
C2758 H2746 0.950 . S
C2758 C2757 1.398 . S
C2758 C2759 1.391 . S
C2759 H2747 0.950 . S
C2759 C2755 1.393 . S
C2759 C2758 1.391 . S
H2760 C2768 0.950 . S
H2761 C2773 0.950 . S
H2762 C2770 0.950 . S
H2763 C2772 0.950 . S
H2764 C2774 0.950 . S
H2765 C2776 0.950 . S
H2766 C2778 0.950 . S
H2767 C2779 0.950 . S
C2768 H2760 0.950 . S
C2768 C2769 1.386 . S
C2768 C2770 1.391 . S
C2769 C2768 1.386 . S
C2769 C2773 1.393 . S
C2770 H2762 0.950 . S
C2770 C2768 1.391 . S
C2770 C2771 1.400 . S
C2771 C2770 1.400 . S
C2771 C2772 1.398 . S
C2771 C2777 1.491 . S
C2772 H2763 0.950 . S
C2772 C2771 1.398 . S
C2772 C2773 1.391 . S
C2773 H2761 0.950 . S
C2773 C2769 1.393 . S
C2773 C2772 1.391 . S
C2774 H2764 0.950 . S
C2774 C2775 1.386 . S
C2774 C2776 1.391 . S
C2775 C2774 1.386 . S
C2775 C2779 1.393 . S
C2776 H2765 0.950 . S
C2776 C2774 1.391 . S
C2776 C2777 1.400 . S
C2777 C2771 1.491 . S
C2777 C2776 1.400 . S
C2777 C2778 1.398 . S
C2778 H2766 0.950 . S
C2778 C2777 1.398 . S
C2778 C2779 1.391 . S
C2779 H2767 0.950 . S
C2779 C2775 1.393 . S
C2779 C2778 1.391 . S
H2780 C2788 0.950 . S
H2781 C2793 0.950 . S
H2782 C2790 0.950 . S
H2783 C2792 0.950 . S
H2784 C2794 0.950 . S
H2785 C2796 0.950 . S
H2786 C2798 0.950 . S
H2787 C2799 0.950 . S
C2788 H2780 0.950 . S
C2788 C2789 1.386 . S
C2788 C2790 1.391 . S
C2789 C2788 1.386 . S
C2789 C2793 1.393 . S
C2790 H2782 0.950 . S
C2790 C2788 1.391 . S
C2790 C2791 1.400 . S
C2791 C2790 1.400 . S
C2791 C2792 1.398 . S
C2791 C2797 1.491 . S
C2792 H2783 0.950 . S
C2792 C2791 1.398 . S
C2792 C2793 1.391 . S
C2793 H2781 0.950 . S
C2793 C2789 1.393 . S
C2793 C2792 1.391 . S
C2794 H2784 0.950 . S
C2794 C2795 1.386 . S
C2794 C2796 1.391 . S
C2795 C2794 1.386 . S
C2795 C2799 1.393 . S
C2796 H2785 0.950 . S
C2796 C2794 1.391 . S
C2796 C2797 1.400 . S
C2797 C2791 1.491 . S
C2797 C2796 1.400 . S
C2797 C2798 1.398 . S
C2798 H2786 0.950 . S
C2798 C2797 1.398 . S
C2798 C2799 1.391 . S
C2799 H2787 0.950 . S
C2799 C2795 1.393 . S
C2799 C2798 1.391 . S
H2800 C2808 0.950 . S
H2801 C2813 0.950 . S
H2802 C2810 0.950 . S
H2803 C2812 0.950 . S
H2804 C2814 0.950 . S
H2805 C2816 0.950 . S
H2806 C2818 0.950 . S
H2807 C2819 0.950 . S
C2808 H2800 0.950 . S
C2808 C2809 1.386 . S
C2808 C2810 1.391 . S
C2809 C2808 1.386 . S
C2809 C2813 1.393 . S
C2810 H2802 0.950 . S
C2810 C2808 1.391 . S
C2810 C2811 1.400 . S
C2811 C2810 1.400 . S
C2811 C2812 1.398 . S
C2811 C2817 1.491 . S
C2812 H2803 0.950 . S
C2812 C2811 1.398 . S
C2812 C2813 1.391 . S
C2813 H2801 0.950 . S
C2813 C2809 1.393 . S
C2813 C2812 1.391 . S
C2814 H2804 0.950 . S
C2814 C2815 1.386 . S
C2814 C2816 1.391 . S
C2815 C2814 1.386 . S
C2815 C2819 1.393 . S
C2816 H2805 0.950 . S
C2816 C2814 1.391 . S
C2816 C2817 1.400 . S
C2817 C2811 1.491 . S
C2817 C2816 1.400 . S
C2817 C2818 1.398 . S
C2818 H2806 0.950 . S
C2818 C2817 1.398 . S
C2818 C2819 1.391 . S
C2819 H2807 0.950 . S
C2819 C2815 1.393 . S
C2819 C2818 1.391 . S
H2820 C2828 0.950 . S
H2821 C2833 0.950 . S
H2822 C2830 0.950 . S
H2823 C2832 0.950 . S
H2824 C2834 0.950 . S
H2825 C2836 0.950 . S
H2826 C2838 0.950 . S
H2827 C2839 0.950 . S
C2828 H2820 0.950 . S
C2828 C2829 1.386 . S
C2828 C2830 1.391 . S
C2829 C2828 1.386 . S
C2829 C2833 1.393 . S
C2830 H2822 0.950 . S
C2830 C2828 1.391 . S
C2830 C2831 1.400 . S
C2831 C2830 1.400 . S
C2831 C2832 1.398 . S
C2831 C2837 1.491 . S
C2832 H2823 0.950 . S
C2832 C2831 1.398 . S
C2832 C2833 1.391 . S
C2833 H2821 0.950 . S
C2833 C2829 1.393 . S
C2833 C2832 1.391 . S
C2834 H2824 0.950 . S
C2834 C2835 1.386 . S
C2834 C2836 1.391 . S
C2835 C2834 1.386 . S
C2835 C2839 1.393 . S
C2836 H2825 0.950 . S
C2836 C2834 1.391 . S
C2836 C2837 1.400 . S
C2837 C2831 1.491 . S
C2837 C2836 1.400 . S
C2837 C2838 1.398 . S
C2838 H2826 0.950 . S
C2838 C2837 1.398 . S
C2838 C2839 1.391 . S
C2839 H2827 0.950 . S
C2839 C2835 1.393 . S
C2839 C2838 1.391 . S
H2840 C2848 0.950 . S
H2841 C2853 0.950 . S
H2842 C2850 0.950 . S
H2843 C2852 0.950 . S
H2844 C2854 0.950 . S
H2845 C2856 0.950 . S
H2846 C2858 0.950 . S
H2847 C2859 0.950 . S
C2848 H2840 0.950 . S
C2848 C2849 1.386 . S
C2848 C2850 1.391 . S
C2849 C2848 1.386 . S
C2849 C2853 1.393 . S
C2850 H2842 0.950 . S
C2850 C2848 1.391 . S
C2850 C2851 1.400 . S
C2851 C2850 1.400 . S
C2851 C2852 1.398 . S
C2851 C2857 1.491 . S
C2852 H2843 0.950 . S
C2852 C2851 1.398 . S
C2852 C2853 1.391 . S
C2853 H2841 0.950 . S
C2853 C2849 1.393 . S
C2853 C2852 1.391 . S
C2854 H2844 0.950 . S
C2854 C2855 1.386 . S
C2854 C2856 1.391 . S
C2855 C2854 1.386 . S
C2855 C2859 1.393 . S
C2856 H2845 0.950 . S
C2856 C2854 1.391 . S
C2856 C2857 1.400 . S
C2857 C2851 1.491 . S
C2857 C2856 1.400 . S
C2857 C2858 1.398 . S
C2858 H2846 0.950 . S
C2858 C2857 1.398 . S
C2858 C2859 1.391 . S
C2859 H2847 0.950 . S
C2859 C2855 1.393 . S
C2859 C2858 1.391 . S
H2860 C2868 0.950 . S
H2861 C2873 0.950 . S
H2862 C2870 0.950 . S
H2863 C2872 0.950 . S
H2864 C2874 0.950 . S
H2865 C2876 0.950 . S
H2866 C2878 0.950 . S
H2867 C2879 0.950 . S
C2868 H2860 0.950 . S
C2868 C2869 1.386 . S
C2868 C2870 1.391 . S
C2869 C2868 1.386 . S
C2869 C2873 1.393 . S
C2870 H2862 0.950 . S
C2870 C2868 1.391 . S
C2870 C2871 1.400 . S
C2871 C2870 1.400 . S
C2871 C2872 1.398 . S
C2871 C2877 1.491 . S
C2872 H2863 0.950 . S
C2872 C2871 1.398 . S
C2872 C2873 1.391 . S
C2873 H2861 0.950 . S
C2873 C2869 1.393 . S
C2873 C2872 1.391 . S
C2874 H2864 0.950 . S
C2874 C2875 1.386 . S
C2874 C2876 1.391 . S
C2875 C2874 1.386 . S
C2875 C2879 1.393 . S
C2876 H2865 0.950 . S
C2876 C2874 1.391 . S
C2876 C2877 1.400 . S
C2877 C2871 1.491 . S
C2877 C2876 1.400 . S
C2877 C2878 1.398 . S
C2878 H2866 0.950 . S
C2878 C2877 1.398 . S
C2878 C2879 1.391 . S
C2879 H2867 0.950 . S
C2879 C2875 1.393 . S
C2879 C2878 1.391 . S
H2880 C2888 0.950 . S
H2881 C2893 0.950 . S
H2882 C2890 0.950 . S
H2883 C2892 0.950 . S
H2884 C2894 0.950 . S
H2885 C2896 0.950 . S
H2886 C2898 0.950 . S
H2887 C2899 0.950 . S
C2888 H2880 0.950 . S
C2888 C2889 1.386 . S
C2888 C2890 1.391 . S
C2889 C2888 1.386 . S
C2889 C2893 1.393 . S
C2890 H2882 0.950 . S
C2890 C2888 1.391 . S
C2890 C2891 1.400 . S
C2891 C2890 1.400 . S
C2891 C2892 1.398 . S
C2891 C2897 1.491 . S
C2892 H2883 0.950 . S
C2892 C2891 1.398 . S
C2892 C2893 1.391 . S
C2893 H2881 0.950 . S
C2893 C2889 1.393 . S
C2893 C2892 1.391 . S
C2894 H2884 0.950 . S
C2894 C2895 1.386 . S
C2894 C2896 1.391 . S
C2895 C2894 1.386 . S
C2895 C2899 1.393 . S
C2896 H2885 0.950 . S
C2896 C2894 1.391 . S
C2896 C2897 1.400 . S
C2897 C2891 1.491 . S
C2897 C2896 1.400 . S
C2897 C2898 1.398 . S
C2898 H2886 0.950 . S
C2898 C2897 1.398 . S
C2898 C2899 1.391 . S
C2899 H2887 0.950 . S
C2899 C2895 1.393 . S
C2899 C2898 1.391 . S
H2900 C2908 0.950 . S
H2901 C2913 0.950 . S
H2902 C2910 0.950 . S
H2903 C2912 0.950 . S
H2904 C2914 0.950 . S
H2905 C2916 0.950 . S
H2906 C2918 0.950 . S
H2907 C2919 0.950 . S
C2908 H2900 0.950 . S
C2908 C2909 1.386 . S
C2908 C2910 1.391 . S
C2909 C2908 1.386 . S
C2909 C2913 1.393 . S
C2910 H2902 0.950 . S
C2910 C2908 1.391 . S
C2910 C2911 1.400 . S
C2911 C2910 1.400 . S
C2911 C2912 1.398 . S
C2911 C2917 1.491 . S
C2912 H2903 0.950 . S
C2912 C2911 1.398 . S
C2912 C2913 1.391 . S
C2913 H2901 0.950 . S
C2913 C2909 1.393 . S
C2913 C2912 1.391 . S
C2914 H2904 0.950 . S
C2914 C2915 1.386 . S
C2914 C2916 1.391 . S
C2915 C2914 1.386 . S
C2915 C2919 1.393 . S
C2916 H2905 0.950 . S
C2916 C2914 1.391 . S
C2916 C2917 1.400 . S
C2917 C2911 1.491 . S
C2917 C2916 1.400 . S
C2917 C2918 1.398 . S
C2918 H2906 0.950 . S
C2918 C2917 1.398 . S
C2918 C2919 1.391 . S
C2919 H2907 0.950 . S
C2919 C2915 1.393 . S
C2919 C2918 1.391 . S
H2920 C2928 0.950 . S
H2921 C2933 0.950 . S
H2922 C2930 0.950 . S
H2923 C2932 0.950 . S
H2924 C2934 0.950 . S
H2925 C2936 0.950 . S
H2926 C2938 0.950 . S
H2927 C2939 0.950 . S
C2928 H2920 0.950 . S
C2928 C2929 1.386 . S
C2928 C2930 1.391 . S
C2929 C2928 1.386 . S
C2929 C2933 1.393 . S
C2930 H2922 0.950 . S
C2930 C2928 1.391 . S
C2930 C2931 1.400 . S
C2931 C2930 1.400 . S
C2931 C2932 1.398 . S
C2931 C2937 1.491 . S
C2932 H2923 0.950 . S
C2932 C2931 1.398 . S
C2932 C2933 1.391 . S
C2933 H2921 0.950 . S
C2933 C2929 1.393 . S
C2933 C2932 1.391 . S
C2934 H2924 0.950 . S
C2934 C2935 1.386 . S
C2934 C2936 1.391 . S
C2935 C2934 1.386 . S
C2935 C2939 1.393 . S
C2936 H2925 0.950 . S
C2936 C2934 1.391 . S
C2936 C2937 1.400 . S
C2937 C2931 1.491 . S
C2937 C2936 1.400 . S
C2937 C2938 1.398 . S
C2938 H2926 0.950 . S
C2938 C2937 1.398 . S
C2938 C2939 1.391 . S
C2939 H2927 0.950 . S
C2939 C2935 1.393 . S
C2939 C2938 1.391 . S
H2940 C2948 0.950 . S
H2941 C2953 0.950 . S
H2942 C2950 0.950 . S
H2943 C2952 0.950 . S
H2944 C2954 0.950 . S
H2945 C2956 0.950 . S
H2946 C2958 0.950 . S
H2947 C2959 0.950 . S
C2948 H2940 0.950 . S
C2948 C2949 1.386 . S
C2948 C2950 1.391 . S
C2949 C2948 1.386 . S
C2949 C2953 1.393 . S
C2950 H2942 0.950 . S
C2950 C2948 1.391 . S
C2950 C2951 1.400 . S
C2951 C2950 1.400 . S
C2951 C2952 1.398 . S
C2951 C2957 1.491 . S
C2952 H2943 0.950 . S
C2952 C2951 1.398 . S
C2952 C2953 1.391 . S
C2953 H2941 0.950 . S
C2953 C2949 1.393 . S
C2953 C2952 1.391 . S
C2954 H2944 0.950 . S
C2954 C2955 1.386 . S
C2954 C2956 1.391 . S
C2955 C2954 1.386 . S
C2955 C2959 1.393 . S
C2956 H2945 0.950 . S
C2956 C2954 1.391 . S
C2956 C2957 1.400 . S
C2957 C2951 1.491 . S
C2957 C2956 1.400 . S
C2957 C2958 1.398 . S
C2958 H2946 0.950 . S
C2958 C2957 1.398 . S
C2958 C2959 1.391 . S
C2959 H2947 0.950 . S
C2959 C2955 1.393 . S
C2959 C2958 1.391 . S
H2960 C2968 0.950 . S
H2961 C2973 0.950 . S
H2962 C2970 0.950 . S
H2963 C2972 0.950 . S
H2964 C2974 0.950 . S
H2965 C2976 0.950 . S
H2966 C2978 0.950 . S
H2967 C2979 0.950 . S
C2968 H2960 0.950 . S
C2968 C2969 1.386 . S
C2968 C2970 1.391 . S
C2969 C2968 1.386 . S
C2969 C2973 1.393 . S
C2970 H2962 0.950 . S
C2970 C2968 1.391 . S
C2970 C2971 1.400 . S
C2971 C2970 1.400 . S
C2971 C2972 1.398 . S
C2971 C2977 1.491 . S
C2972 H2963 0.950 . S
C2972 C2971 1.398 . S
C2972 C2973 1.391 . S
C2973 H2961 0.950 . S
C2973 C2969 1.393 . S
C2973 C2972 1.391 . S
C2974 H2964 0.950 . S
C2974 C2975 1.386 . S
C2974 C2976 1.391 . S
C2975 C2974 1.386 . S
C2975 C2979 1.393 . S
C2976 H2965 0.950 . S
C2976 C2974 1.391 . S
C2976 C2977 1.400 . S
C2977 C2971 1.491 . S
C2977 C2976 1.400 . S
C2977 C2978 1.398 . S
C2978 H2966 0.950 . S
C2978 C2977 1.398 . S
C2978 C2979 1.391 . S
C2979 H2967 0.950 . S
C2979 C2975 1.393 . S
C2979 C2978 1.391 . S
H2980 C2988 0.950 . S
H2981 C2993 0.950 . S
H2982 C2990 0.950 . S
H2983 C2992 0.950 . S
H2984 C2994 0.950 . S
H2985 C2996 0.950 . S
H2986 C2998 0.950 . S
H2987 C2999 0.950 . S
C2988 H2980 0.950 . S
C2988 C2989 1.386 . S
C2988 C2990 1.391 . S
C2989 C2988 1.386 . S
C2989 C2993 1.393 . S
C2990 H2982 0.950 . S
C2990 C2988 1.391 . S
C2990 C2991 1.400 . S
C2991 C2990 1.400 . S
C2991 C2992 1.398 . S
C2991 C2997 1.491 . S
C2992 H2983 0.950 . S
C2992 C2991 1.398 . S
C2992 C2993 1.391 . S
C2993 H2981 0.950 . S
C2993 C2989 1.393 . S
C2993 C2992 1.391 . S
C2994 H2984 0.950 . S
C2994 C2995 1.386 . S
C2994 C2996 1.391 . S
C2995 C2994 1.386 . S
C2995 C2999 1.393 . S
C2996 H2985 0.950 . S
C2996 C2994 1.391 . S
C2996 C2997 1.400 . S
C2997 C2991 1.491 . S
C2997 C2996 1.400 . S
C2997 C2998 1.398 . S
C2998 H2986 0.950 . S
C2998 C2997 1.398 . S
C2998 C2999 1.391 . S
C2999 H2987 0.950 . S
C2999 C2995 1.393 . S
C2999 C2998 1.391 . S
H3000 C3008 0.950 . S
H3001 C3013 0.950 . S
H3002 C3010 0.950 . S
H3003 C3012 0.950 . S
H3004 C3014 0.950 . S
H3005 C3016 0.950 . S
H3006 C3018 0.950 . S
H3007 C3019 0.950 . S
C3008 H3000 0.950 . S
C3008 C3009 1.386 . S
C3008 C3010 1.391 . S
C3009 C3008 1.386 . S
C3009 C3013 1.393 . S
C3010 H3002 0.950 . S
C3010 C3008 1.391 . S
C3010 C3011 1.400 . S
C3011 C3010 1.400 . S
C3011 C3012 1.398 . S
C3011 C3017 1.491 . S
C3012 H3003 0.950 . S
C3012 C3011 1.398 . S
C3012 C3013 1.391 . S
C3013 H3001 0.950 . S
C3013 C3009 1.393 . S
C3013 C3012 1.391 . S
C3014 H3004 0.950 . S
C3014 C3015 1.386 . S
C3014 C3016 1.391 . S
C3015 C3014 1.386 . S
C3015 C3019 1.393 . S
C3016 H3005 0.950 . S
C3016 C3014 1.391 . S
C3016 C3017 1.400 . S
C3017 C3011 1.491 . S
C3017 C3016 1.400 . S
C3017 C3018 1.398 . S
C3018 H3006 0.950 . S
C3018 C3017 1.398 . S
C3018 C3019 1.391 . S
C3019 H3007 0.950 . S
C3019 C3015 1.393 . S
C3019 C3018 1.391 . S
H3020 C3028 0.950 . S
H3021 C3033 0.950 . S
H3022 C3030 0.950 . S
H3023 C3032 0.950 . S
H3024 C3034 0.950 . S
H3025 C3036 0.950 . S
H3026 C3038 0.950 . S
H3027 C3039 0.950 . S
C3028 H3020 0.950 . S
C3028 C3029 1.386 . S
C3028 C3030 1.391 . S
C3029 C3028 1.386 . S
C3029 C3033 1.393 . S
C3030 H3022 0.950 . S
C3030 C3028 1.391 . S
C3030 C3031 1.400 . S
C3031 C3030 1.400 . S
C3031 C3032 1.398 . S
C3031 C3037 1.491 . S
C3032 H3023 0.950 . S
C3032 C3031 1.398 . S
C3032 C3033 1.391 . S
C3033 H3021 0.950 . S
C3033 C3029 1.393 . S
C3033 C3032 1.391 . S
C3034 H3024 0.950 . S
C3034 C3035 1.386 . S
C3034 C3036 1.391 . S
C3035 C3034 1.386 . S
C3035 C3039 1.393 . S
C3036 H3025 0.950 . S
C3036 C3034 1.391 . S
C3036 C3037 1.400 . S
C3037 C3031 1.491 . S
C3037 C3036 1.400 . S
C3037 C3038 1.398 . S
C3038 H3026 0.950 . S
C3038 C3037 1.398 . S
C3038 C3039 1.391 . S
C3039 H3027 0.950 . S
C3039 C3035 1.393 . S
C3039 C3038 1.391 . S
H3040 C3048 0.950 . S
H3041 C3053 0.950 . S
H3042 C3050 0.950 . S
H3043 C3052 0.950 . S
H3044 C3054 0.950 . S
H3045 C3056 0.950 . S
H3046 C3058 0.950 . S
H3047 C3059 0.950 . S
C3048 H3040 0.950 . S
C3048 C3049 1.386 . S
C3048 C3050 1.391 . S
C3049 C3048 1.386 . S
C3049 C3053 1.393 . S
C3050 H3042 0.950 . S
C3050 C3048 1.391 . S
C3050 C3051 1.400 . S
C3051 C3050 1.400 . S
C3051 C3052 1.398 . S
C3051 C3057 1.491 . S
C3052 H3043 0.950 . S
C3052 C3051 1.398 . S
C3052 C3053 1.391 . S
C3053 H3041 0.950 . S
C3053 C3049 1.393 . S
C3053 C3052 1.391 . S
C3054 H3044 0.950 . S
C3054 C3055 1.386 . S
C3054 C3056 1.391 . S
C3055 C3054 1.386 . S
C3055 C3059 1.393 . S
C3056 H3045 0.950 . S
C3056 C3054 1.391 . S
C3056 C3057 1.400 . S
C3057 C3051 1.491 . S
C3057 C3056 1.400 . S
C3057 C3058 1.398 . S
C3058 H3046 0.950 . S
C3058 C3057 1.398 . S
C3058 C3059 1.391 . S
C3059 H3047 0.950 . S
C3059 C3055 1.393 . S
C3059 C3058 1.391 . S
H3060 C3068 0.950 . S
H3061 C3073 0.950 . S
H3062 C3070 0.950 . S
H3063 C3072 0.950 . S
H3064 C3074 0.950 . S
H3065 C3076 0.950 . S
H3066 C3078 0.950 . S
H3067 C3079 0.950 . S
C3068 H3060 0.950 . S
C3068 C3069 1.386 . S
C3068 C3070 1.391 . S
C3069 C3068 1.386 . S
C3069 C3073 1.393 . S
C3070 H3062 0.950 . S
C3070 C3068 1.391 . S
C3070 C3071 1.400 . S
C3071 C3070 1.400 . S
C3071 C3072 1.398 . S
C3071 C3077 1.491 . S
C3072 H3063 0.950 . S
C3072 C3071 1.398 . S
C3072 C3073 1.391 . S
C3073 H3061 0.950 . S
C3073 C3069 1.393 . S
C3073 C3072 1.391 . S
C3074 H3064 0.950 . S
C3074 C3075 1.386 . S
C3074 C3076 1.391 . S
C3075 C3074 1.386 . S
C3075 C3079 1.393 . S
C3076 H3065 0.950 . S
C3076 C3074 1.391 . S
C3076 C3077 1.400 . S
C3077 C3071 1.491 . S
C3077 C3076 1.400 . S
C3077 C3078 1.398 . S
C3078 H3066 0.950 . S
C3078 C3077 1.398 . S
C3078 C3079 1.391 . S
C3079 H3067 0.950 . S
C3079 C3075 1.393 . S
C3079 C3078 1.391 . S
H3080 C3088 0.950 . S
H3081 C3093 0.950 . S
H3082 C3090 0.950 . S
H3083 C3092 0.950 . S
H3084 C3094 0.950 . S
H3085 C3096 0.950 . S
H3086 C3098 0.950 . S
H3087 C3099 0.950 . S
C3088 H3080 0.950 . S
C3088 C3089 1.386 . S
C3088 C3090 1.391 . S
C3089 C3088 1.386 . S
C3089 C3093 1.393 . S
C3090 H3082 0.950 . S
C3090 C3088 1.391 . S
C3090 C3091 1.400 . S
C3091 C3090 1.400 . S
C3091 C3092 1.398 . S
C3091 C3097 1.491 . S
C3092 H3083 0.950 . S
C3092 C3091 1.398 . S
C3092 C3093 1.391 . S
C3093 H3081 0.950 . S
C3093 C3089 1.393 . S
C3093 C3092 1.391 . S
C3094 H3084 0.950 . S
C3094 C3095 1.386 . S
C3094 C3096 1.391 . S
C3095 C3094 1.386 . S
C3095 C3099 1.393 . S
C3096 H3085 0.950 . S
C3096 C3094 1.391 . S
C3096 C3097 1.400 . S
C3097 C3091 1.491 . S
C3097 C3096 1.400 . S
C3097 C3098 1.398 . S
C3098 H3086 0.950 . S
C3098 C3097 1.398 . S
C3098 C3099 1.391 . S
C3099 H3087 0.950 . S
C3099 C3095 1.393 . S
C3099 C3098 1.391 . S
H3100 C3108 0.950 . S
H3101 C3113 0.950 . S
H3102 C3110 0.950 . S
H3103 C3112 0.950 . S
H3104 C3114 0.950 . S
H3105 C3116 0.950 . S
H3106 C3118 0.950 . S
H3107 C3119 0.950 . S
C3108 H3100 0.950 . S
C3108 C3109 1.386 . S
C3108 C3110 1.391 . S
C3109 C3108 1.386 . S
C3109 C3113 1.393 . S
C3110 H3102 0.950 . S
C3110 C3108 1.391 . S
C3110 C3111 1.400 . S
C3111 C3110 1.400 . S
C3111 C3112 1.398 . S
C3111 C3117 1.491 . S
C3112 H3103 0.950 . S
C3112 C3111 1.398 . S
C3112 C3113 1.391 . S
C3113 H3101 0.950 . S
C3113 C3109 1.393 . S
C3113 C3112 1.391 . S
C3114 H3104 0.950 . S
C3114 C3115 1.386 . S
C3114 C3116 1.391 . S
C3115 C3114 1.386 . S
C3115 C3119 1.393 . S
C3116 H3105 0.950 . S
C3116 C3114 1.391 . S
C3116 C3117 1.400 . S
C3117 C3111 1.491 . S
C3117 C3116 1.400 . S
C3117 C3118 1.398 . S
C3118 H3106 0.950 . S
C3118 C3117 1.398 . S
C3118 C3119 1.391 . S
C3119 H3107 0.950 . S
C3119 C3115 1.393 . S
C3119 C3118 1.391 . S
H3120 C3128 0.950 . S
H3121 C3133 0.950 . S
H3122 C3130 0.950 . S
H3123 C3132 0.950 . S
H3124 C3134 0.950 . S
H3125 C3136 0.950 . S
H3126 C3138 0.950 . S
H3127 C3139 0.950 . S
C3128 H3120 0.950 . S
C3128 C3129 1.386 . S
C3128 C3130 1.391 . S
C3129 C3128 1.386 . S
C3129 C3133 1.393 . S
C3130 H3122 0.950 . S
C3130 C3128 1.391 . S
C3130 C3131 1.400 . S
C3131 C3130 1.400 . S
C3131 C3132 1.398 . S
C3131 C3137 1.491 . S
C3132 H3123 0.950 . S
C3132 C3131 1.398 . S
C3132 C3133 1.391 . S
C3133 H3121 0.950 . S
C3133 C3129 1.393 . S
C3133 C3132 1.391 . S
C3134 H3124 0.950 . S
C3134 C3135 1.386 . S
C3134 C3136 1.391 . S
C3135 C3134 1.386 . S
C3135 C3139 1.393 . S
C3136 H3125 0.950 . S
C3136 C3134 1.391 . S
C3136 C3137 1.400 . S
C3137 C3131 1.491 . S
C3137 C3136 1.400 . S
C3137 C3138 1.398 . S
C3138 H3126 0.950 . S
C3138 C3137 1.398 . S
C3138 C3139 1.391 . S
C3139 H3127 0.950 . S
C3139 C3135 1.393 . S
C3139 C3138 1.391 . S
H3140 C3148 0.950 . S
H3141 C3153 0.950 . S
H3142 C3150 0.950 . S
H3143 C3152 0.950 . S
H3144 C3154 0.950 . S
H3145 C3156 0.950 . S
H3146 C3158 0.950 . S
H3147 C3159 0.950 . S
C3148 H3140 0.950 . S
C3148 C3149 1.386 . S
C3148 C3150 1.391 . S
C3149 C3148 1.386 . S
C3149 C3153 1.393 . S
C3150 H3142 0.950 . S
C3150 C3148 1.391 . S
C3150 C3151 1.400 . S
C3151 C3150 1.400 . S
C3151 C3152 1.398 . S
C3151 C3157 1.491 . S
C3152 H3143 0.950 . S
C3152 C3151 1.398 . S
C3152 C3153 1.391 . S
C3153 H3141 0.950 . S
C3153 C3149 1.393 . S
C3153 C3152 1.391 . S
C3154 H3144 0.950 . S
C3154 C3155 1.386 . S
C3154 C3156 1.391 . S
C3155 C3154 1.386 . S
C3155 C3159 1.393 . S
C3156 H3145 0.950 . S
C3156 C3154 1.391 . S
C3156 C3157 1.400 . S
C3157 C3151 1.491 . S
C3157 C3156 1.400 . S
C3157 C3158 1.398 . S
C3158 H3146 0.950 . S
C3158 C3157 1.398 . S
C3158 C3159 1.391 . S
C3159 H3147 0.950 . S
C3159 C3155 1.393 . S
C3159 C3158 1.391 . S
H3160 C3168 0.950 . S
H3161 C3173 0.950 . S
H3162 C3170 0.950 . S
H3163 C3172 0.950 . S
H3164 C3174 0.950 . S
H3165 C3176 0.950 . S
H3166 C3178 0.950 . S
H3167 C3179 0.950 . S
C3168 H3160 0.950 . S
C3168 C3169 1.386 . S
C3168 C3170 1.391 . S
C3169 C3168 1.386 . S
C3169 C3173 1.393 . S
C3170 H3162 0.950 . S
C3170 C3168 1.391 . S
C3170 C3171 1.400 . S
C3171 C3170 1.400 . S
C3171 C3172 1.398 . S
C3171 C3177 1.491 . S
C3172 H3163 0.950 . S
C3172 C3171 1.398 . S
C3172 C3173 1.391 . S
C3173 H3161 0.950 . S
C3173 C3169 1.393 . S
C3173 C3172 1.391 . S
C3174 H3164 0.950 . S
C3174 C3175 1.386 . S
C3174 C3176 1.391 . S
C3175 C3174 1.386 . S
C3175 C3179 1.393 . S
C3176 H3165 0.950 . S
C3176 C3174 1.391 . S
C3176 C3177 1.400 . S
C3177 C3171 1.491 . S
C3177 C3176 1.400 . S
C3177 C3178 1.398 . S
C3178 H3166 0.950 . S
C3178 C3177 1.398 . S
C3178 C3179 1.391 . S
C3179 H3167 0.950 . S
C3179 C3175 1.393 . S
C3179 C3178 1.391 . S
H3180 C3188 0.950 . S
H3181 C3193 0.950 . S
H3182 C3190 0.950 . S
H3183 C3192 0.950 . S
H3184 C3194 0.950 . S
H3185 C3196 0.950 . S
H3186 C3198 0.950 . S
H3187 C3199 0.950 . S
C3188 H3180 0.950 . S
C3188 C3189 1.386 . S
C3188 C3190 1.391 . S
C3189 C3188 1.386 . S
C3189 C3193 1.393 . S
C3190 H3182 0.950 . S
C3190 C3188 1.391 . S
C3190 C3191 1.400 . S
C3191 C3190 1.400 . S
C3191 C3192 1.398 . S
C3191 C3197 1.491 . S
C3192 H3183 0.950 . S
C3192 C3191 1.398 . S
C3192 C3193 1.391 . S
C3193 H3181 0.950 . S
C3193 C3189 1.393 . S
C3193 C3192 1.391 . S
C3194 H3184 0.950 . S
C3194 C3195 1.386 . S
C3194 C3196 1.391 . S
C3195 C3194 1.386 . S
C3195 C3199 1.393 . S
C3196 H3185 0.950 . S
C3196 C3194 1.391 . S
C3196 C3197 1.400 . S
C3197 C3191 1.491 . S
C3197 C3196 1.400 . S
C3197 C3198 1.398 . S
C3198 H3186 0.950 . S
C3198 C3197 1.398 . S
C3198 C3199 1.391 . S
C3199 H3187 0.950 . S
C3199 C3195 1.393 . S
C3199 C3198 1.391 . S
H3200 C3208 0.950 . S
H3201 C3213 0.950 . S
H3202 C3210 0.950 . S
H3203 C3212 0.950 . S
H3204 C3214 0.950 . S
H3205 C3216 0.950 . S
H3206 C3218 0.950 . S
H3207 C3219 0.950 . S
C3208 H3200 0.950 . S
C3208 C3209 1.386 . S
C3208 C3210 1.391 . S
C3209 C3208 1.386 . S
C3209 C3213 1.393 . S
C3210 H3202 0.950 . S
C3210 C3208 1.391 . S
C3210 C3211 1.400 . S
C3211 C3210 1.400 . S
C3211 C3212 1.398 . S
C3211 C3217 1.491 . S
C3212 H3203 0.950 . S
C3212 C3211 1.398 . S
C3212 C3213 1.391 . S
C3213 H3201 0.950 . S
C3213 C3209 1.393 . S
C3213 C3212 1.391 . S
C3214 H3204 0.950 . S
C3214 C3215 1.386 . S
C3214 C3216 1.391 . S
C3215 C3214 1.386 . S
C3215 C3219 1.393 . S
C3216 H3205 0.950 . S
C3216 C3214 1.391 . S
C3216 C3217 1.400 . S
C3217 C3211 1.491 . S
C3217 C3216 1.400 . S
C3217 C3218 1.398 . S
C3218 H3206 0.950 . S
C3218 C3217 1.398 . S
C3218 C3219 1.391 . S
C3219 H3207 0.950 . S
C3219 C3215 1.393 . S
C3219 C3218 1.391 . S
H3220 C3228 0.950 . S
H3221 C3233 0.950 . S
H3222 C3230 0.950 . S
H3223 C3232 0.950 . S
H3224 C3234 0.950 . S
H3225 C3236 0.950 . S
H3226 C3238 0.950 . S
H3227 C3239 0.950 . S
C3228 H3220 0.950 . S
C3228 C3229 1.386 . S
C3228 C3230 1.391 . S
C3229 C3228 1.386 . S
C3229 C3233 1.393 . S
C3230 H3222 0.950 . S
C3230 C3228 1.391 . S
C3230 C3231 1.400 . S
C3231 C3230 1.400 . S
C3231 C3232 1.398 . S
C3231 C3237 1.491 . S
C3232 H3223 0.950 . S
C3232 C3231 1.398 . S
C3232 C3233 1.391 . S
C3233 H3221 0.950 . S
C3233 C3229 1.393 . S
C3233 C3232 1.391 . S
C3234 H3224 0.950 . S
C3234 C3235 1.386 . S
C3234 C3236 1.391 . S
C3235 C3234 1.386 . S
C3235 C3239 1.393 . S
C3236 H3225 0.950 . S
C3236 C3234 1.391 . S
C3236 C3237 1.400 . S
C3237 C3231 1.491 . S
C3237 C3236 1.400 . S
C3237 C3238 1.398 . S
C3238 H3226 0.950 . S
C3238 C3237 1.398 . S
C3238 C3239 1.391 . S
C3239 H3227 0.950 . S
C3239 C3235 1.393 . S
C3239 C3238 1.391 . S
H3240 C3248 0.950 . S
H3241 C3253 0.950 . S
H3242 C3250 0.950 . S
H3243 C3252 0.950 . S
H3244 C3254 0.950 . S
H3245 C3256 0.950 . S
H3246 C3258 0.950 . S
H3247 C3259 0.950 . S
C3248 H3240 0.950 . S
C3248 C3249 1.386 . S
C3248 C3250 1.391 . S
C3249 C3248 1.386 . S
C3249 C3253 1.393 . S
C3250 H3242 0.950 . S
C3250 C3248 1.391 . S
C3250 C3251 1.400 . S
C3251 C3250 1.400 . S
C3251 C3252 1.398 . S
C3251 C3257 1.491 . S
C3252 H3243 0.950 . S
C3252 C3251 1.398 . S
C3252 C3253 1.391 . S
C3253 H3241 0.950 . S
C3253 C3249 1.393 . S
C3253 C3252 1.391 . S
C3254 H3244 0.950 . S
C3254 C3255 1.386 . S
C3254 C3256 1.391 . S
C3255 C3254 1.386 . S
C3255 C3259 1.393 . S
C3256 H3245 0.950 . S
C3256 C3254 1.391 . S
C3256 C3257 1.400 . S
C3257 C3251 1.491 . S
C3257 C3256 1.400 . S
C3257 C3258 1.398 . S
C3258 H3246 0.950 . S
C3258 C3257 1.398 . S
C3258 C3259 1.391 . S
C3259 H3247 0.950 . S
C3259 C3255 1.393 . S
C3259 C3258 1.391 . S
H3260 C3268 0.950 . S
H3261 C3273 0.950 . S
H3262 C3270 0.950 . S
H3263 C3272 0.950 . S
H3264 C3274 0.950 . S
H3265 C3276 0.950 . S
H3266 C3278 0.950 . S
H3267 C3279 0.950 . S
C3268 H3260 0.950 . S
C3268 C3269 1.386 . S
C3268 C3270 1.391 . S
C3269 C3268 1.386 . S
C3269 C3273 1.393 . S
C3270 H3262 0.950 . S
C3270 C3268 1.391 . S
C3270 C3271 1.400 . S
C3271 C3270 1.400 . S
C3271 C3272 1.398 . S
C3271 C3277 1.491 . S
C3272 H3263 0.950 . S
C3272 C3271 1.398 . S
C3272 C3273 1.391 . S
C3273 H3261 0.950 . S
C3273 C3269 1.393 . S
C3273 C3272 1.391 . S
C3274 H3264 0.950 . S
C3274 C3275 1.386 . S
C3274 C3276 1.391 . S
C3275 C3274 1.386 . S
C3275 C3279 1.393 . S
C3276 H3265 0.950 . S
C3276 C3274 1.391 . S
C3276 C3277 1.400 . S
C3277 C3271 1.491 . S
C3277 C3276 1.400 . S
C3277 C3278 1.398 . S
C3278 H3266 0.950 . S
C3278 C3277 1.398 . S
C3278 C3279 1.391 . S
C3279 H3267 0.950 . S
C3279 C3275 1.393 . S
C3279 C3278 1.391 . S
H3280 C3288 0.950 . S
H3281 C3293 0.950 . S
H3282 C3290 0.950 . S
H3283 C3292 0.950 . S
H3284 C3294 0.950 . S
H3285 C3296 0.950 . S
H3286 C3298 0.950 . S
H3287 C3299 0.950 . S
C3288 H3280 0.950 . S
C3288 C3289 1.386 . S
C3288 C3290 1.391 . S
C3289 C3288 1.386 . S
C3289 C3293 1.393 . S
C3290 H3282 0.950 . S
C3290 C3288 1.391 . S
C3290 C3291 1.400 . S
C3291 C3290 1.400 . S
C3291 C3292 1.398 . S
C3291 C3297 1.491 . S
C3292 H3283 0.950 . S
C3292 C3291 1.398 . S
C3292 C3293 1.391 . S
C3293 H3281 0.950 . S
C3293 C3289 1.393 . S
C3293 C3292 1.391 . S
C3294 H3284 0.950 . S
C3294 C3295 1.386 . S
C3294 C3296 1.391 . S
C3295 C3294 1.386 . S
C3295 C3299 1.393 . S
C3296 H3285 0.950 . S
C3296 C3294 1.391 . S
C3296 C3297 1.400 . S
C3297 C3291 1.491 . S
C3297 C3296 1.400 . S
C3297 C3298 1.398 . S
C3298 H3286 0.950 . S
C3298 C3297 1.398 . S
C3298 C3299 1.391 . S
C3299 H3287 0.950 . S
C3299 C3295 1.393 . S
C3299 C3298 1.391 . S
H3300 C3308 0.950 . S
H3301 C3313 0.950 . S
H3302 C3310 0.950 . S
H3303 C3312 0.950 . S
H3304 C3314 0.950 . S
H3305 C3316 0.950 . S
H3306 C3318 0.950 . S
H3307 C3319 0.950 . S
C3308 H3300 0.950 . S
C3308 C3309 1.386 . S
C3308 C3310 1.391 . S
C3309 C3308 1.386 . S
C3309 C3313 1.393 . S
C3310 H3302 0.950 . S
C3310 C3308 1.391 . S
C3310 C3311 1.400 . S
C3311 C3310 1.400 . S
C3311 C3312 1.398 . S
C3311 C3317 1.491 . S
C3312 H3303 0.950 . S
C3312 C3311 1.398 . S
C3312 C3313 1.391 . S
C3313 H3301 0.950 . S
C3313 C3309 1.393 . S
C3313 C3312 1.391 . S
C3314 H3304 0.950 . S
C3314 C3315 1.386 . S
C3314 C3316 1.391 . S
C3315 C3314 1.386 . S
C3315 C3319 1.393 . S
C3316 H3305 0.950 . S
C3316 C3314 1.391 . S
C3316 C3317 1.400 . S
C3317 C3311 1.491 . S
C3317 C3316 1.400 . S
C3317 C3318 1.398 . S
C3318 H3306 0.950 . S
C3318 C3317 1.398 . S
C3318 C3319 1.391 . S
C3319 H3307 0.950 . S
C3319 C3315 1.393 . S
C3319 C3318 1.391 . S
H3320 C3328 0.950 . S
H3321 C3333 0.950 . S
H3322 C3330 0.950 . S
H3323 C3332 0.950 . S
H3324 C3334 0.950 . S
H3325 C3336 0.950 . S
H3326 C3338 0.950 . S
H3327 C3339 0.950 . S
C3328 H3320 0.950 . S
C3328 C3329 1.386 . S
C3328 C3330 1.391 . S
C3329 C3328 1.386 . S
C3329 C3333 1.393 . S
C3330 H3322 0.950 . S
C3330 C3328 1.391 . S
C3330 C3331 1.400 . S
C3331 C3330 1.400 . S
C3331 C3332 1.398 . S
C3331 C3337 1.491 . S
C3332 H3323 0.950 . S
C3332 C3331 1.398 . S
C3332 C3333 1.391 . S
C3333 H3321 0.950 . S
C3333 C3329 1.393 . S
C3333 C3332 1.391 . S
C3334 H3324 0.950 . S
C3334 C3335 1.386 . S
C3334 C3336 1.391 . S
C3335 C3334 1.386 . S
C3335 C3339 1.393 . S
C3336 H3325 0.950 . S
C3336 C3334 1.391 . S
C3336 C3337 1.400 . S
C3337 C3331 1.491 . S
C3337 C3336 1.400 . S
C3337 C3338 1.398 . S
C3338 H3326 0.950 . S
C3338 C3337 1.398 . S
C3338 C3339 1.391 . S
C3339 H3327 0.950 . S
C3339 C3335 1.393 . S
C3339 C3338 1.391 . S
H3340 C3348 0.950 . S
H3341 C3353 0.950 . S
H3342 C3350 0.950 . S
H3343 C3352 0.950 . S
H3344 C3354 0.950 . S
H3345 C3356 0.950 . S
H3346 C3358 0.950 . S
H3347 C3359 0.950 . S
C3348 H3340 0.950 . S
C3348 C3349 1.386 . S
C3348 C3350 1.391 . S
C3349 C3348 1.386 . S
C3349 C3353 1.393 . S
C3350 H3342 0.950 . S
C3350 C3348 1.391 . S
C3350 C3351 1.400 . S
C3351 C3350 1.400 . S
C3351 C3352 1.398 . S
C3351 C3357 1.491 . S
C3352 H3343 0.950 . S
C3352 C3351 1.398 . S
C3352 C3353 1.391 . S
C3353 H3341 0.950 . S
C3353 C3349 1.393 . S
C3353 C3352 1.391 . S
C3354 H3344 0.950 . S
C3354 C3355 1.386 . S
C3354 C3356 1.391 . S
C3355 C3354 1.386 . S
C3355 C3359 1.393 . S
C3356 H3345 0.950 . S
C3356 C3354 1.391 . S
C3356 C3357 1.400 . S
C3357 C3351 1.491 . S
C3357 C3356 1.400 . S
C3357 C3358 1.398 . S
C3358 H3346 0.950 . S
C3358 C3357 1.398 . S
C3358 C3359 1.391 . S
C3359 H3347 0.950 . S
C3359 C3355 1.393 . S
C3359 C3358 1.391 . S
H3360 C3368 0.950 . S
H3361 C3373 0.950 . S
H3362 C3370 0.950 . S
H3363 C3372 0.950 . S
H3364 C3374 0.950 . S
H3365 C3376 0.950 . S
H3366 C3378 0.950 . S
H3367 C3379 0.950 . S
C3368 H3360 0.950 . S
C3368 C3369 1.386 . S
C3368 C3370 1.391 . S
C3369 C3368 1.386 . S
C3369 C3373 1.393 . S
C3370 H3362 0.950 . S
C3370 C3368 1.391 . S
C3370 C3371 1.400 . S
C3371 C3370 1.400 . S
C3371 C3372 1.398 . S
C3371 C3377 1.491 . S
C3372 H3363 0.950 . S
C3372 C3371 1.398 . S
C3372 C3373 1.391 . S
C3373 H3361 0.950 . S
C3373 C3369 1.393 . S
C3373 C3372 1.391 . S
C3374 H3364 0.950 . S
C3374 C3375 1.386 . S
C3374 C3376 1.391 . S
C3375 C3374 1.386 . S
C3375 C3379 1.393 . S
C3376 H3365 0.950 . S
C3376 C3374 1.391 . S
C3376 C3377 1.400 . S
C3377 C3371 1.491 . S
C3377 C3376 1.400 . S
C3377 C3378 1.398 . S
C3378 H3366 0.950 . S
C3378 C3377 1.398 . S
C3378 C3379 1.391 . S
C3379 H3367 0.950 . S
C3379 C3375 1.393 . S
C3379 C3378 1.391 . S
H3380 C3388 0.950 . S
H3381 C3393 0.950 . S
H3382 C3390 0.950 . S
H3383 C3392 0.950 . S
H3384 C3394 0.950 . S
H3385 C3396 0.950 . S
H3386 C3398 0.950 . S
H3387 C3399 0.950 . S
C3388 H3380 0.950 . S
C3388 C3389 1.386 . S
C3388 C3390 1.391 . S
C3389 C3388 1.386 . S
C3389 C3393 1.393 . S
C3390 H3382 0.950 . S
C3390 C3388 1.391 . S
C3390 C3391 1.400 . S
C3391 C3390 1.400 . S
C3391 C3392 1.398 . S
C3391 C3397 1.491 . S
C3392 H3383 0.950 . S
C3392 C3391 1.398 . S
C3392 C3393 1.391 . S
C3393 H3381 0.950 . S
C3393 C3389 1.393 . S
C3393 C3392 1.391 . S
C3394 H3384 0.950 . S
C3394 C3395 1.386 . S
C3394 C3396 1.391 . S
C3395 C3394 1.386 . S
C3395 C3399 1.393 . S
C3396 H3385 0.950 . S
C3396 C3394 1.391 . S
C3396 C3397 1.400 . S
C3397 C3391 1.491 . S
C3397 C3396 1.400 . S
C3397 C3398 1.398 . S
C3398 H3386 0.950 . S
C3398 C3397 1.398 . S
C3398 C3399 1.391 . S
C3399 H3387 0.950 . S
C3399 C3395 1.393 . S
C3399 C3398 1.391 . S
H3400 C3408 0.950 . S
H3401 C3413 0.950 . S
H3402 C3410 0.950 . S
H3403 C3412 0.950 . S
H3404 C3414 0.950 . S
H3405 C3416 0.950 . S
H3406 C3418 0.950 . S
H3407 C3419 0.950 . S
C3408 H3400 0.950 . S
C3408 C3409 1.386 . S
C3408 C3410 1.391 . S
C3409 C3408 1.386 . S
C3409 C3413 1.393 . S
C3410 H3402 0.950 . S
C3410 C3408 1.391 . S
C3410 C3411 1.400 . S
C3411 C3410 1.400 . S
C3411 C3412 1.398 . S
C3411 C3417 1.491 . S
C3412 H3403 0.950 . S
C3412 C3411 1.398 . S
C3412 C3413 1.391 . S
C3413 H3401 0.950 . S
C3413 C3409 1.393 . S
C3413 C3412 1.391 . S
C3414 H3404 0.950 . S
C3414 C3415 1.386 . S
C3414 C3416 1.391 . S
C3415 C3414 1.386 . S
C3415 C3419 1.393 . S
C3416 H3405 0.950 . S
C3416 C3414 1.391 . S
C3416 C3417 1.400 . S
C3417 C3411 1.491 . S
C3417 C3416 1.400 . S
C3417 C3418 1.398 . S
C3418 H3406 0.950 . S
C3418 C3417 1.398 . S
C3418 C3419 1.391 . S
C3419 H3407 0.950 . S
C3419 C3415 1.393 . S
C3419 C3418 1.391 . S
H3420 C3428 0.950 . S
H3421 C3433 0.950 . S
H3422 C3430 0.950 . S
H3423 C3432 0.950 . S
H3424 C3434 0.950 . S
H3425 C3436 0.950 . S
H3426 C3438 0.950 . S
H3427 C3439 0.950 . S
C3428 H3420 0.950 . S
C3428 C3429 1.386 . S
C3428 C3430 1.391 . S
C3429 C3428 1.386 . S
C3429 C3433 1.393 . S
C3430 H3422 0.950 . S
C3430 C3428 1.391 . S
C3430 C3431 1.400 . S
C3431 C3430 1.400 . S
C3431 C3432 1.398 . S
C3431 C3437 1.491 . S
C3432 H3423 0.950 . S
C3432 C3431 1.398 . S
C3432 C3433 1.391 . S
C3433 H3421 0.950 . S
C3433 C3429 1.393 . S
C3433 C3432 1.391 . S
C3434 H3424 0.950 . S
C3434 C3435 1.386 . S
C3434 C3436 1.391 . S
C3435 C3434 1.386 . S
C3435 C3439 1.393 . S
C3436 H3425 0.950 . S
C3436 C3434 1.391 . S
C3436 C3437 1.400 . S
C3437 C3431 1.491 . S
C3437 C3436 1.400 . S
C3437 C3438 1.398 . S
C3438 H3426 0.950 . S
C3438 C3437 1.398 . S
C3438 C3439 1.391 . S
C3439 H3427 0.950 . S
C3439 C3435 1.393 . S
C3439 C3438 1.391 . S
H3440 C3448 0.950 . S
H3441 C3453 0.950 . S
H3442 C3450 0.950 . S
H3443 C3452 0.950 . S
H3444 C3454 0.950 . S
H3445 C3456 0.950 . S
H3446 C3458 0.950 . S
H3447 C3459 0.950 . S
C3448 H3440 0.950 . S
C3448 C3449 1.386 . S
C3448 C3450 1.391 . S
C3449 C3448 1.386 . S
C3449 C3453 1.393 . S
C3450 H3442 0.950 . S
C3450 C3448 1.391 . S
C3450 C3451 1.400 . S
C3451 C3450 1.400 . S
C3451 C3452 1.398 . S
C3451 C3457 1.491 . S
C3452 H3443 0.950 . S
C3452 C3451 1.398 . S
C3452 C3453 1.391 . S
C3453 H3441 0.950 . S
C3453 C3449 1.393 . S
C3453 C3452 1.391 . S
C3454 H3444 0.950 . S
C3454 C3455 1.386 . S
C3454 C3456 1.391 . S
C3455 C3454 1.386 . S
C3455 C3459 1.393 . S
C3456 H3445 0.950 . S
C3456 C3454 1.391 . S
C3456 C3457 1.400 . S
C3457 C3451 1.491 . S
C3457 C3456 1.400 . S
C3457 C3458 1.398 . S
C3458 H3446 0.950 . S
C3458 C3457 1.398 . S
C3458 C3459 1.391 . S
C3459 H3447 0.950 . S
C3459 C3455 1.393 . S
C3459 C3458 1.391 . S
H3460 C3468 0.950 . S
H3461 C3473 0.950 . S
H3462 C3470 0.950 . S
H3463 C3472 0.950 . S
H3464 C3474 0.950 . S
H3465 C3476 0.950 . S
H3466 C3478 0.950 . S
H3467 C3479 0.950 . S
C3468 H3460 0.950 . S
C3468 C3469 1.386 . S
C3468 C3470 1.391 . S
C3469 C3468 1.386 . S
C3469 C3473 1.393 . S
C3470 H3462 0.950 . S
C3470 C3468 1.391 . S
C3470 C3471 1.400 . S
C3471 C3470 1.400 . S
C3471 C3472 1.398 . S
C3471 C3477 1.491 . S
C3472 H3463 0.950 . S
C3472 C3471 1.398 . S
C3472 C3473 1.391 . S
C3473 H3461 0.950 . S
C3473 C3469 1.393 . S
C3473 C3472 1.391 . S
C3474 H3464 0.950 . S
C3474 C3475 1.386 . S
C3474 C3476 1.391 . S
C3475 C3474 1.386 . S
C3475 C3479 1.393 . S
C3476 H3465 0.950 . S
C3476 C3474 1.391 . S
C3476 C3477 1.400 . S
C3477 C3471 1.491 . S
C3477 C3476 1.400 . S
C3477 C3478 1.398 . S
C3478 H3466 0.950 . S
C3478 C3477 1.398 . S
C3478 C3479 1.391 . S
C3479 H3467 0.950 . S
C3479 C3475 1.393 . S
C3479 C3478 1.391 . S
H3480 C3488 0.950 . S
H3481 C3493 0.950 . S
H3482 C3490 0.950 . S
H3483 C3492 0.950 . S
H3484 C3494 0.950 . S
H3485 C3496 0.950 . S
H3486 C3498 0.950 . S
H3487 C3499 0.950 . S
C3488 H3480 0.950 . S
C3488 C3489 1.386 . S
C3488 C3490 1.391 . S
C3489 C3488 1.386 . S
C3489 C3493 1.393 . S
C3490 H3482 0.950 . S
C3490 C3488 1.391 . S
C3490 C3491 1.400 . S
C3491 C3490 1.400 . S
C3491 C3492 1.398 . S
C3491 C3497 1.491 . S
C3492 H3483 0.950 . S
C3492 C3491 1.398 . S
C3492 C3493 1.391 . S
C3493 H3481 0.950 . S
C3493 C3489 1.393 . S
C3493 C3492 1.391 . S
C3494 H3484 0.950 . S
C3494 C3495 1.386 . S
C3494 C3496 1.391 . S
C3495 C3494 1.386 . S
C3495 C3499 1.393 . S
C3496 H3485 0.950 . S
C3496 C3494 1.391 . S
C3496 C3497 1.400 . S
C3497 C3491 1.491 . S
C3497 C3496 1.400 . S
C3497 C3498 1.398 . S
C3498 H3486 0.950 . S
C3498 C3497 1.398 . S
C3498 C3499 1.391 . S
C3499 H3487 0.950 . S
C3499 C3495 1.393 . S
C3499 C3498 1.391 . S
H3500 C3508 0.950 . S
H3501 C3513 0.950 . S
H3502 C3510 0.950 . S
H3503 C3512 0.950 . S
H3504 C3514 0.950 . S
H3505 C3516 0.950 . S
H3506 C3518 0.950 . S
H3507 C3519 0.950 . S
C3508 H3500 0.950 . S
C3508 C3509 1.386 . S
C3508 C3510 1.391 . S
C3509 C3508 1.386 . S
C3509 C3513 1.393 . S
C3510 H3502 0.950 . S
C3510 C3508 1.391 . S
C3510 C3511 1.400 . S
C3511 C3510 1.400 . S
C3511 C3512 1.398 . S
C3511 C3517 1.491 . S
C3512 H3503 0.950 . S
C3512 C3511 1.398 . S
C3512 C3513 1.391 . S
C3513 H3501 0.950 . S
C3513 C3509 1.393 . S
C3513 C3512 1.391 . S
C3514 H3504 0.950 . S
C3514 C3515 1.386 . S
C3514 C3516 1.391 . S
C3515 C3514 1.386 . S
C3515 C3519 1.393 . S
C3516 H3505 0.950 . S
C3516 C3514 1.391 . S
C3516 C3517 1.400 . S
C3517 C3511 1.491 . S
C3517 C3516 1.400 . S
C3517 C3518 1.398 . S
C3518 H3506 0.950 . S
C3518 C3517 1.398 . S
C3518 C3519 1.391 . S
C3519 H3507 0.950 . S
C3519 C3515 1.393 . S
C3519 C3518 1.391 . S
H3520 C3528 0.950 . S
H3521 C3533 0.950 . S
H3522 C3530 0.950 . S
H3523 C3532 0.950 . S
H3524 C3534 0.950 . S
H3525 C3536 0.950 . S
H3526 C3538 0.950 . S
H3527 C3539 0.950 . S
C3528 H3520 0.950 . S
C3528 C3529 1.386 . S
C3528 C3530 1.391 . S
C3529 C3528 1.386 . S
C3529 C3533 1.393 . S
C3530 H3522 0.950 . S
C3530 C3528 1.391 . S
C3530 C3531 1.400 . S
C3531 C3530 1.400 . S
C3531 C3532 1.398 . S
C3531 C3537 1.491 . S
C3532 H3523 0.950 . S
C3532 C3531 1.398 . S
C3532 C3533 1.391 . S
C3533 H3521 0.950 . S
C3533 C3529 1.393 . S
C3533 C3532 1.391 . S
C3534 H3524 0.950 . S
C3534 C3535 1.386 . S
C3534 C3536 1.391 . S
C3535 C3534 1.386 . S
C3535 C3539 1.393 . S
C3536 H3525 0.950 . S
C3536 C3534 1.391 . S
C3536 C3537 1.400 . S
C3537 C3531 1.491 . S
C3537 C3536 1.400 . S
C3537 C3538 1.398 . S
C3538 H3526 0.950 . S
C3538 C3537 1.398 . S
C3538 C3539 1.391 . S
C3539 H3527 0.950 . S
C3539 C3535 1.393 . S
C3539 C3538 1.391 . S
H3540 C3548 0.950 . S
H3541 C3553 0.950 . S
H3542 C3550 0.950 . S
H3543 C3552 0.950 . S
H3544 C3554 0.950 . S
H3545 C3556 0.950 . S
H3546 C3558 0.950 . S
H3547 C3559 0.950 . S
C3548 H3540 0.950 . S
C3548 C3549 1.386 . S
C3548 C3550 1.391 . S
C3549 C3548 1.386 . S
C3549 C3553 1.393 . S
C3550 H3542 0.950 . S
C3550 C3548 1.391 . S
C3550 C3551 1.400 . S
C3551 C3550 1.400 . S
C3551 C3552 1.398 . S
C3551 C3557 1.491 . S
C3552 H3543 0.950 . S
C3552 C3551 1.398 . S
C3552 C3553 1.391 . S
C3553 H3541 0.950 . S
C3553 C3549 1.393 . S
C3553 C3552 1.391 . S
C3554 H3544 0.950 . S
C3554 C3555 1.386 . S
C3554 C3556 1.391 . S
C3555 C3554 1.386 . S
C3555 C3559 1.393 . S
C3556 H3545 0.950 . S
C3556 C3554 1.391 . S
C3556 C3557 1.400 . S
C3557 C3551 1.491 . S
C3557 C3556 1.400 . S
C3557 C3558 1.398 . S
C3558 H3546 0.950 . S
C3558 C3557 1.398 . S
C3558 C3559 1.391 . S
C3559 H3547 0.950 . S
C3559 C3555 1.393 . S
C3559 C3558 1.391 . S
H3560 C3568 0.950 . S
H3561 C3573 0.950 . S
H3562 C3570 0.950 . S
H3563 C3572 0.950 . S
H3564 C3574 0.950 . S
H3565 C3576 0.950 . S
H3566 C3578 0.950 . S
H3567 C3579 0.950 . S
C3568 H3560 0.950 . S
C3568 C3569 1.386 . S
C3568 C3570 1.391 . S
C3569 C3568 1.386 . S
C3569 C3573 1.393 . S
C3570 H3562 0.950 . S
C3570 C3568 1.391 . S
C3570 C3571 1.400 . S
C3571 C3570 1.400 . S
C3571 C3572 1.398 . S
C3571 C3577 1.491 . S
C3572 H3563 0.950 . S
C3572 C3571 1.398 . S
C3572 C3573 1.391 . S
C3573 H3561 0.950 . S
C3573 C3569 1.393 . S
C3573 C3572 1.391 . S
C3574 H3564 0.950 . S
C3574 C3575 1.386 . S
C3574 C3576 1.391 . S
C3575 C3574 1.386 . S
C3575 C3579 1.393 . S
C3576 H3565 0.950 . S
C3576 C3574 1.391 . S
C3576 C3577 1.400 . S
C3577 C3571 1.491 . S
C3577 C3576 1.400 . S
C3577 C3578 1.398 . S
C3578 H3566 0.950 . S
C3578 C3577 1.398 . S
C3578 C3579 1.391 . S
C3579 H3567 0.950 . S
C3579 C3575 1.393 . S
C3579 C3578 1.391 . S
H3580 C3588 0.950 . S
H3581 C3593 0.950 . S
H3582 C3590 0.950 . S
H3583 C3592 0.950 . S
H3584 C3594 0.950 . S
H3585 C3596 0.950 . S
H3586 C3598 0.950 . S
H3587 C3599 0.950 . S
C3588 H3580 0.950 . S
C3588 C3589 1.386 . S
C3588 C3590 1.391 . S
C3589 C3588 1.386 . S
C3589 C3593 1.393 . S
C3590 H3582 0.950 . S
C3590 C3588 1.391 . S
C3590 C3591 1.400 . S
C3591 C3590 1.400 . S
C3591 C3592 1.398 . S
C3591 C3597 1.491 . S
C3592 H3583 0.950 . S
C3592 C3591 1.398 . S
C3592 C3593 1.391 . S
C3593 H3581 0.950 . S
C3593 C3589 1.393 . S
C3593 C3592 1.391 . S
C3594 H3584 0.950 . S
C3594 C3595 1.386 . S
C3594 C3596 1.391 . S
C3595 C3594 1.386 . S
C3595 C3599 1.393 . S
C3596 H3585 0.950 . S
C3596 C3594 1.391 . S
C3596 C3597 1.400 . S
C3597 C3591 1.491 . S
C3597 C3596 1.400 . S
C3597 C3598 1.398 . S
C3598 H3586 0.950 . S
C3598 C3597 1.398 . S
C3598 C3599 1.391 . S
C3599 H3587 0.950 . S
C3599 C3595 1.393 . S
C3599 C3598 1.391 . S
H3600 C3608 0.950 . S
H3601 C3613 0.950 . S
H3602 C3610 0.950 . S
H3603 C3612 0.950 . S
H3604 C3614 0.950 . S
H3605 C3616 0.950 . S
H3606 C3618 0.950 . S
H3607 C3619 0.950 . S
C3608 H3600 0.950 . S
C3608 C3609 1.386 . S
C3608 C3610 1.391 . S
C3609 C3608 1.386 . S
C3609 C3613 1.393 . S
C3610 H3602 0.950 . S
C3610 C3608 1.391 . S
C3610 C3611 1.400 . S
C3611 C3610 1.400 . S
C3611 C3612 1.398 . S
C3611 C3617 1.491 . S
C3612 H3603 0.950 . S
C3612 C3611 1.398 . S
C3612 C3613 1.391 . S
C3613 H3601 0.950 . S
C3613 C3609 1.393 . S
C3613 C3612 1.391 . S
C3614 H3604 0.950 . S
C3614 C3615 1.386 . S
C3614 C3616 1.391 . S
C3615 C3614 1.386 . S
C3615 C3619 1.393 . S
C3616 H3605 0.950 . S
C3616 C3614 1.391 . S
C3616 C3617 1.400 . S
C3617 C3611 1.491 . S
C3617 C3616 1.400 . S
C3617 C3618 1.398 . S
C3618 H3606 0.950 . S
C3618 C3617 1.398 . S
C3618 C3619 1.391 . S
C3619 H3607 0.950 . S
C3619 C3615 1.393 . S
C3619 C3618 1.391 . S
H3620 C3628 0.950 . S
H3621 C3633 0.950 . S
H3622 C3630 0.950 . S
H3623 C3632 0.950 . S
H3624 C3634 0.950 . S
H3625 C3636 0.950 . S
H3626 C3638 0.950 . S
H3627 C3639 0.950 . S
C3628 H3620 0.950 . S
C3628 C3629 1.386 . S
C3628 C3630 1.391 . S
C3629 C3628 1.386 . S
C3629 C3633 1.393 . S
C3630 H3622 0.950 . S
C3630 C3628 1.391 . S
C3630 C3631 1.400 . S
C3631 C3630 1.400 . S
C3631 C3632 1.398 . S
C3631 C3637 1.491 . S
C3632 H3623 0.950 . S
C3632 C3631 1.398 . S
C3632 C3633 1.391 . S
C3633 H3621 0.950 . S
C3633 C3629 1.393 . S
C3633 C3632 1.391 . S
C3634 H3624 0.950 . S
C3634 C3635 1.386 . S
C3634 C3636 1.391 . S
C3635 C3634 1.386 . S
C3635 C3639 1.393 . S
C3636 H3625 0.950 . S
C3636 C3634 1.391 . S
C3636 C3637 1.400 . S
C3637 C3631 1.491 . S
C3637 C3636 1.400 . S
C3637 C3638 1.398 . S
C3638 H3626 0.950 . S
C3638 C3637 1.398 . S
C3638 C3639 1.391 . S
C3639 H3627 0.950 . S
C3639 C3635 1.393 . S
C3639 C3638 1.391 . S
H3640 C3648 0.950 . S
H3641 C3653 0.950 . S
H3642 C3650 0.950 . S
H3643 C3652 0.950 . S
H3644 C3654 0.950 . S
H3645 C3656 0.950 . S
H3646 C3658 0.950 . S
H3647 C3659 0.950 . S
C3648 H3640 0.950 . S
C3648 C3649 1.386 . S
C3648 C3650 1.391 . S
C3649 C3648 1.386 . S
C3649 C3653 1.393 . S
C3650 H3642 0.950 . S
C3650 C3648 1.391 . S
C3650 C3651 1.400 . S
C3651 C3650 1.400 . S
C3651 C3652 1.398 . S
C3651 C3657 1.491 . S
C3652 H3643 0.950 . S
C3652 C3651 1.398 . S
C3652 C3653 1.391 . S
C3653 H3641 0.950 . S
C3653 C3649 1.393 . S
C3653 C3652 1.391 . S
C3654 H3644 0.950 . S
C3654 C3655 1.386 . S
C3654 C3656 1.391 . S
C3655 C3654 1.386 . S
C3655 C3659 1.393 . S
C3656 H3645 0.950 . S
C3656 C3654 1.391 . S
C3656 C3657 1.400 . S
C3657 C3651 1.491 . S
C3657 C3656 1.400 . S
C3657 C3658 1.398 . S
C3658 H3646 0.950 . S
C3658 C3657 1.398 . S
C3658 C3659 1.391 . S
C3659 H3647 0.950 . S
C3659 C3655 1.393 . S
C3659 C3658 1.391 . S
H3660 C3668 0.950 . S
H3661 C3673 0.950 . S
H3662 C3670 0.950 . S
H3663 C3672 0.950 . S
H3664 C3674 0.950 . S
H3665 C3676 0.950 . S
H3666 C3678 0.950 . S
H3667 C3679 0.950 . S
C3668 H3660 0.950 . S
C3668 C3669 1.386 . S
C3668 C3670 1.391 . S
C3669 C3668 1.386 . S
C3669 C3673 1.393 . S
C3670 H3662 0.950 . S
C3670 C3668 1.391 . S
C3670 C3671 1.400 . S
C3671 C3670 1.400 . S
C3671 C3672 1.398 . S
C3671 C3677 1.491 . S
C3672 H3663 0.950 . S
C3672 C3671 1.398 . S
C3672 C3673 1.391 . S
C3673 H3661 0.950 . S
C3673 C3669 1.393 . S
C3673 C3672 1.391 . S
C3674 H3664 0.950 . S
C3674 C3675 1.386 . S
C3674 C3676 1.391 . S
C3675 C3674 1.386 . S
C3675 C3679 1.393 . S
C3676 H3665 0.950 . S
C3676 C3674 1.391 . S
C3676 C3677 1.400 . S
C3677 C3671 1.491 . S
C3677 C3676 1.400 . S
C3677 C3678 1.398 . S
C3678 H3666 0.950 . S
C3678 C3677 1.398 . S
C3678 C3679 1.391 . S
C3679 H3667 0.950 . S
C3679 C3675 1.393 . S
C3679 C3678 1.391 . S
H3680 C3688 0.950 . S
H3681 C3693 0.950 . S
H3682 C3690 0.950 . S
H3683 C3692 0.950 . S
H3684 C3694 0.950 . S
H3685 C3696 0.950 . S
H3686 C3698 0.950 . S
H3687 C3699 0.950 . S
C3688 H3680 0.950 . S
C3688 C3689 1.386 . S
C3688 C3690 1.391 . S
C3689 C3688 1.386 . S
C3689 C3693 1.393 . S
C3690 H3682 0.950 . S
C3690 C3688 1.391 . S
C3690 C3691 1.400 . S
C3691 C3690 1.400 . S
C3691 C3692 1.398 . S
C3691 C3697 1.491 . S
C3692 H3683 0.950 . S
C3692 C3691 1.398 . S
C3692 C3693 1.391 . S
C3693 H3681 0.950 . S
C3693 C3689 1.393 . S
C3693 C3692 1.391 . S
C3694 H3684 0.950 . S
C3694 C3695 1.386 . S
C3694 C3696 1.391 . S
C3695 C3694 1.386 . S
C3695 C3699 1.393 . S
C3696 H3685 0.950 . S
C3696 C3694 1.391 . S
C3696 C3697 1.400 . S
C3697 C3691 1.491 . S
C3697 C3696 1.400 . S
C3697 C3698 1.398 . S
C3698 H3686 0.950 . S
C3698 C3697 1.398 . S
C3698 C3699 1.391 . S
C3699 H3687 0.950 . S
C3699 C3695 1.393 . S
C3699 C3698 1.391 . S
H3700 C3708 0.950 . S
H3701 C3713 0.950 . S
H3702 C3710 0.950 . S
H3703 C3712 0.950 . S
H3704 C3714 0.950 . S
H3705 C3716 0.950 . S
H3706 C3718 0.950 . S
H3707 C3719 0.950 . S
C3708 H3700 0.950 . S
C3708 C3709 1.386 . S
C3708 C3710 1.391 . S
C3709 C3708 1.386 . S
C3709 C3713 1.393 . S
C3710 H3702 0.950 . S
C3710 C3708 1.391 . S
C3710 C3711 1.400 . S
C3711 C3710 1.400 . S
C3711 C3712 1.398 . S
C3711 C3717 1.491 . S
C3712 H3703 0.950 . S
C3712 C3711 1.398 . S
C3712 C3713 1.391 . S
C3713 H3701 0.950 . S
C3713 C3709 1.393 . S
C3713 C3712 1.391 . S
C3714 H3704 0.950 . S
C3714 C3715 1.386 . S
C3714 C3716 1.391 . S
C3715 C3714 1.386 . S
C3715 C3719 1.393 . S
C3716 H3705 0.950 . S
C3716 C3714 1.391 . S
C3716 C3717 1.400 . S
C3717 C3711 1.491 . S
C3717 C3716 1.400 . S
C3717 C3718 1.398 . S
C3718 H3706 0.950 . S
C3718 C3717 1.398 . S
C3718 C3719 1.391 . S
C3719 H3707 0.950 . S
C3719 C3715 1.393 . S
C3719 C3718 1.391 . S
H3720 C3728 0.950 . S
H3721 C3733 0.950 . S
H3722 C3730 0.950 . S
H3723 C3732 0.950 . S
H3724 C3734 0.950 . S
H3725 C3736 0.950 . S
H3726 C3738 0.950 . S
H3727 C3739 0.950 . S
C3728 H3720 0.950 . S
C3728 C3729 1.386 . S
C3728 C3730 1.391 . S
C3729 C3728 1.386 . S
C3729 C3733 1.393 . S
C3730 H3722 0.950 . S
C3730 C3728 1.391 . S
C3730 C3731 1.400 . S
C3731 C3730 1.400 . S
C3731 C3732 1.398 . S
C3731 C3737 1.491 . S
C3732 H3723 0.950 . S
C3732 C3731 1.398 . S
C3732 C3733 1.391 . S
C3733 H3721 0.950 . S
C3733 C3729 1.393 . S
C3733 C3732 1.391 . S
C3734 H3724 0.950 . S
C3734 C3735 1.386 . S
C3734 C3736 1.391 . S
C3735 C3734 1.386 . S
C3735 C3739 1.393 . S
C3736 H3725 0.950 . S
C3736 C3734 1.391 . S
C3736 C3737 1.400 . S
C3737 C3731 1.491 . S
C3737 C3736 1.400 . S
C3737 C3738 1.398 . S
C3738 H3726 0.950 . S
C3738 C3737 1.398 . S
C3738 C3739 1.391 . S
C3739 H3727 0.950 . S
C3739 C3735 1.393 . S
C3739 C3738 1.391 . S
H3740 C3748 0.950 . S
H3741 C3753 0.950 . S
H3742 C3750 0.950 . S
H3743 C3752 0.950 . S
H3744 C3754 0.950 . S
H3745 C3756 0.950 . S
H3746 C3758 0.950 . S
H3747 C3759 0.950 . S
C3748 H3740 0.950 . S
C3748 C3749 1.386 . S
C3748 C3750 1.391 . S
C3749 C3748 1.386 . S
C3749 C3753 1.393 . S
C3750 H3742 0.950 . S
C3750 C3748 1.391 . S
C3750 C3751 1.400 . S
C3751 C3750 1.400 . S
C3751 C3752 1.398 . S
C3751 C3757 1.491 . S
C3752 H3743 0.950 . S
C3752 C3751 1.398 . S
C3752 C3753 1.391 . S
C3753 H3741 0.950 . S
C3753 C3749 1.393 . S
C3753 C3752 1.391 . S
C3754 H3744 0.950 . S
C3754 C3755 1.386 . S
C3754 C3756 1.391 . S
C3755 C3754 1.386 . S
C3755 C3759 1.393 . S
C3756 H3745 0.950 . S
C3756 C3754 1.391 . S
C3756 C3757 1.400 . S
C3757 C3751 1.491 . S
C3757 C3756 1.400 . S
C3757 C3758 1.398 . S
C3758 H3746 0.950 . S
C3758 C3757 1.398 . S
C3758 C3759 1.391 . S
C3759 H3747 0.950 . S
C3759 C3755 1.393 . S
C3759 C3758 1.391 . S
H3760 C3768 0.950 . S
H3761 C3773 0.950 . S
H3762 C3770 0.950 . S
H3763 C3772 0.950 . S
H3764 C3774 0.950 . S
H3765 C3776 0.950 . S
H3766 C3778 0.950 . S
H3767 C3779 0.950 . S
C3768 H3760 0.950 . S
C3768 C3769 1.386 . S
C3768 C3770 1.391 . S
C3769 C3768 1.386 . S
C3769 C3773 1.393 . S
C3770 H3762 0.950 . S
C3770 C3768 1.391 . S
C3770 C3771 1.400 . S
C3771 C3770 1.400 . S
C3771 C3772 1.398 . S
C3771 C3777 1.491 . S
C3772 H3763 0.950 . S
C3772 C3771 1.398 . S
C3772 C3773 1.391 . S
C3773 H3761 0.950 . S
C3773 C3769 1.393 . S
C3773 C3772 1.391 . S
C3774 H3764 0.950 . S
C3774 C3775 1.386 . S
C3774 C3776 1.391 . S
C3775 C3774 1.386 . S
C3775 C3779 1.393 . S
C3776 H3765 0.950 . S
C3776 C3774 1.391 . S
C3776 C3777 1.400 . S
C3777 C3771 1.491 . S
C3777 C3776 1.400 . S
C3777 C3778 1.398 . S
C3778 H3766 0.950 . S
C3778 C3777 1.398 . S
C3778 C3779 1.391 . S
C3779 H3767 0.950 . S
C3779 C3775 1.393 . S
C3779 C3778 1.391 . S
H3780 C3788 0.950 . S
H3781 C3793 0.950 . S
H3782 C3790 0.950 . S
H3783 C3792 0.950 . S
H3784 C3794 0.950 . S
H3785 C3796 0.950 . S
H3786 C3798 0.950 . S
H3787 C3799 0.950 . S
C3788 H3780 0.950 . S
C3788 C3789 1.386 . S
C3788 C3790 1.391 . S
C3789 C3788 1.386 . S
C3789 C3793 1.393 . S
C3790 H3782 0.950 . S
C3790 C3788 1.391 . S
C3790 C3791 1.400 . S
C3791 C3790 1.400 . S
C3791 C3792 1.398 . S
C3791 C3797 1.491 . S
C3792 H3783 0.950 . S
C3792 C3791 1.398 . S
C3792 C3793 1.391 . S
C3793 H3781 0.950 . S
C3793 C3789 1.393 . S
C3793 C3792 1.391 . S
C3794 H3784 0.950 . S
C3794 C3795 1.386 . S
C3794 C3796 1.391 . S
C3795 C3794 1.386 . S
C3795 C3799 1.393 . S
C3796 H3785 0.950 . S
C3796 C3794 1.391 . S
C3796 C3797 1.400 . S
C3797 C3791 1.491 . S
C3797 C3796 1.400 . S
C3797 C3798 1.398 . S
C3798 H3786 0.950 . S
C3798 C3797 1.398 . S
C3798 C3799 1.391 . S
C3799 H3787 0.950 . S
C3799 C3795 1.393 . S
C3799 C3798 1.391 . S
H3800 C3808 0.950 . S
H3801 C3813 0.950 . S
H3802 C3810 0.950 . S
H3803 C3812 0.950 . S
H3804 C3814 0.950 . S
H3805 C3816 0.950 . S
H3806 C3818 0.950 . S
H3807 C3819 0.950 . S
C3808 H3800 0.950 . S
C3808 C3809 1.386 . S
C3808 C3810 1.391 . S
C3809 C3808 1.386 . S
C3809 C3813 1.393 . S
C3810 H3802 0.950 . S
C3810 C3808 1.391 . S
C3810 C3811 1.400 . S
C3811 C3810 1.400 . S
C3811 C3812 1.398 . S
C3811 C3817 1.491 . S
C3812 H3803 0.950 . S
C3812 C3811 1.398 . S
C3812 C3813 1.391 . S
C3813 H3801 0.950 . S
C3813 C3809 1.393 . S
C3813 C3812 1.391 . S
C3814 H3804 0.950 . S
C3814 C3815 1.386 . S
C3814 C3816 1.391 . S
C3815 C3814 1.386 . S
C3815 C3819 1.393 . S
C3816 H3805 0.950 . S
C3816 C3814 1.391 . S
C3816 C3817 1.400 . S
C3817 C3811 1.491 . S
C3817 C3816 1.400 . S
C3817 C3818 1.398 . S
C3818 H3806 0.950 . S
C3818 C3817 1.398 . S
C3818 C3819 1.391 . S
C3819 H3807 0.950 . S
C3819 C3815 1.393 . S
C3819 C3818 1.391 . S
H3820 C3828 0.950 . S
H3821 C3833 0.950 . S
H3822 C3830 0.950 . S
H3823 C3832 0.950 . S
H3824 C3834 0.950 . S
H3825 C3836 0.950 . S
H3826 C3838 0.950 . S
H3827 C3839 0.950 . S
C3828 H3820 0.950 . S
C3828 C3829 1.386 . S
C3828 C3830 1.391 . S
C3829 C3828 1.386 . S
C3829 C3833 1.393 . S
C3830 H3822 0.950 . S
C3830 C3828 1.391 . S
C3830 C3831 1.400 . S
C3831 C3830 1.400 . S
C3831 C3832 1.398 . S
C3831 C3837 1.491 . S
C3832 H3823 0.950 . S
C3832 C3831 1.398 . S
C3832 C3833 1.391 . S
C3833 H3821 0.950 . S
C3833 C3829 1.393 . S
C3833 C3832 1.391 . S
C3834 H3824 0.950 . S
C3834 C3835 1.386 . S
C3834 C3836 1.391 . S
C3835 C3834 1.386 . S
C3835 C3839 1.393 . S
C3836 H3825 0.950 . S
C3836 C3834 1.391 . S
C3836 C3837 1.400 . S
C3837 C3831 1.491 . S
C3837 C3836 1.400 . S
C3837 C3838 1.398 . S
C3838 H3826 0.950 . S
C3838 C3837 1.398 . S
C3838 C3839 1.391 . S
C3839 H3827 0.950 . S
C3839 C3835 1.393 . S
C3839 C3838 1.391 . S
H3840 C3848 0.950 . S
H3841 C3853 0.950 . S
H3842 C3850 0.950 . S
H3843 C3852 0.950 . S
H3844 C3854 0.950 . S
H3845 C3856 0.950 . S
H3846 C3858 0.950 . S
H3847 C3859 0.950 . S
C3848 H3840 0.950 . S
C3848 C3849 1.386 . S
C3848 C3850 1.391 . S
C3849 C3848 1.386 . S
C3849 C3853 1.393 . S
C3850 H3842 0.950 . S
C3850 C3848 1.391 . S
C3850 C3851 1.400 . S
C3851 C3850 1.400 . S
C3851 C3852 1.398 . S
C3851 C3857 1.491 . S
C3852 H3843 0.950 . S
C3852 C3851 1.398 . S
C3852 C3853 1.391 . S
C3853 H3841 0.950 . S
C3853 C3849 1.393 . S
C3853 C3852 1.391 . S
C3854 H3844 0.950 . S
C3854 C3855 1.386 . S
C3854 C3856 1.391 . S
C3855 C3854 1.386 . S
C3855 C3859 1.393 . S
C3856 H3845 0.950 . S
C3856 C3854 1.391 . S
C3856 C3857 1.400 . S
C3857 C3851 1.491 . S
C3857 C3856 1.400 . S
C3857 C3858 1.398 . S
C3858 H3846 0.950 . S
C3858 C3857 1.398 . S
C3858 C3859 1.391 . S
C3859 H3847 0.950 . S
C3859 C3855 1.393 . S
C3859 C3858 1.391 . S
H3860 C3868 0.950 . S
H3861 C3873 0.950 . S
H3862 C3870 0.950 . S
H3863 C3872 0.950 . S
H3864 C3874 0.950 . S
H3865 C3876 0.950 . S
H3866 C3878 0.950 . S
H3867 C3879 0.950 . S
C3868 H3860 0.950 . S
C3868 C3869 1.386 . S
C3868 C3870 1.391 . S
C3869 C3868 1.386 . S
C3869 C3873 1.393 . S
C3870 H3862 0.950 . S
C3870 C3868 1.391 . S
C3870 C3871 1.400 . S
C3871 C3870 1.400 . S
C3871 C3872 1.398 . S
C3871 C3877 1.491 . S
C3872 H3863 0.950 . S
C3872 C3871 1.398 . S
C3872 C3873 1.391 . S
C3873 H3861 0.950 . S
C3873 C3869 1.393 . S
C3873 C3872 1.391 . S
C3874 H3864 0.950 . S
C3874 C3875 1.386 . S
C3874 C3876 1.391 . S
C3875 C3874 1.386 . S
C3875 C3879 1.393 . S
C3876 H3865 0.950 . S
C3876 C3874 1.391 . S
C3876 C3877 1.400 . S
C3877 C3871 1.491 . S
C3877 C3876 1.400 . S
C3877 C3878 1.398 . S
C3878 H3866 0.950 . S
C3878 C3877 1.398 . S
C3878 C3879 1.391 . S
C3879 H3867 0.950 . S
C3879 C3875 1.393 . S
C3879 C3878 1.391 . S
H3880 C3888 0.950 . S
H3881 C3893 0.950 . S
H3882 C3890 0.950 . S
H3883 C3892 0.950 . S
H3884 C3894 0.950 . S
H3885 C3896 0.950 . S
H3886 C3898 0.950 . S
H3887 C3899 0.950 . S
C3888 H3880 0.950 . S
C3888 C3889 1.386 . S
C3888 C3890 1.391 . S
C3889 C3888 1.386 . S
C3889 C3893 1.393 . S
C3890 H3882 0.950 . S
C3890 C3888 1.391 . S
C3890 C3891 1.400 . S
C3891 C3890 1.400 . S
C3891 C3892 1.398 . S
C3891 C3897 1.491 . S
C3892 H3883 0.950 . S
C3892 C3891 1.398 . S
C3892 C3893 1.391 . S
C3893 H3881 0.950 . S
C3893 C3889 1.393 . S
C3893 C3892 1.391 . S
C3894 H3884 0.950 . S
C3894 C3895 1.386 . S
C3894 C3896 1.391 . S
C3895 C3894 1.386 . S
C3895 C3899 1.393 . S
C3896 H3885 0.950 . S
C3896 C3894 1.391 . S
C3896 C3897 1.400 . S
C3897 C3891 1.491 . S
C3897 C3896 1.400 . S
C3897 C3898 1.398 . S
C3898 H3886 0.950 . S
C3898 C3897 1.398 . S
C3898 C3899 1.391 . S
C3899 H3887 0.950 . S
C3899 C3895 1.393 . S
C3899 C3898 1.391 . S
H3900 C3908 0.950 . S
H3901 C3913 0.950 . S
H3902 C3910 0.950 . S
H3903 C3912 0.950 . S
H3904 C3914 0.950 . S
H3905 C3916 0.950 . S
H3906 C3918 0.950 . S
H3907 C3919 0.950 . S
C3908 H3900 0.950 . S
C3908 C3909 1.386 . S
C3908 C3910 1.391 . S
C3909 C3908 1.386 . S
C3909 C3913 1.393 . S
C3910 H3902 0.950 . S
C3910 C3908 1.391 . S
C3910 C3911 1.400 . S
C3911 C3910 1.400 . S
C3911 C3912 1.398 . S
C3911 C3917 1.491 . S
C3912 H3903 0.950 . S
C3912 C3911 1.398 . S
C3912 C3913 1.391 . S
C3913 H3901 0.950 . S
C3913 C3909 1.393 . S
C3913 C3912 1.391 . S
C3914 H3904 0.950 . S
C3914 C3915 1.386 . S
C3914 C3916 1.391 . S
C3915 C3914 1.386 . S
C3915 C3919 1.393 . S
C3916 H3905 0.950 . S
C3916 C3914 1.391 . S
C3916 C3917 1.400 . S
C3917 C3911 1.491 . S
C3917 C3916 1.400 . S
C3917 C3918 1.398 . S
C3918 H3906 0.950 . S
C3918 C3917 1.398 . S
C3918 C3919 1.391 . S
C3919 H3907 0.950 . S
C3919 C3915 1.393 . S
C3919 C3918 1.391 . S
H3920 C3928 0.950 . S
H3921 C3933 0.950 . S
H3922 C3930 0.950 . S
H3923 C3932 0.950 . S
H3924 C3934 0.950 . S
H3925 C3936 0.950 . S
H3926 C3938 0.950 . S
H3927 C3939 0.950 . S
C3928 H3920 0.950 . S
C3928 C3929 1.386 . S
C3928 C3930 1.391 . S
C3929 C3928 1.386 . S
C3929 C3933 1.393 . S
C3930 H3922 0.950 . S
C3930 C3928 1.391 . S
C3930 C3931 1.400 . S
C3931 C3930 1.400 . S
C3931 C3932 1.398 . S
C3931 C3937 1.491 . S
C3932 H3923 0.950 . S
C3932 C3931 1.398 . S
C3932 C3933 1.391 . S
C3933 H3921 0.950 . S
C3933 C3929 1.393 . S
C3933 C3932 1.391 . S
C3934 H3924 0.950 . S
C3934 C3935 1.386 . S
C3934 C3936 1.391 . S
C3935 C3934 1.386 . S
C3935 C3939 1.393 . S
C3936 H3925 0.950 . S
C3936 C3934 1.391 . S
C3936 C3937 1.400 . S
C3937 C3931 1.491 . S
C3937 C3936 1.400 . S
C3937 C3938 1.398 . S
C3938 H3926 0.950 . S
C3938 C3937 1.398 . S
C3938 C3939 1.391 . S
C3939 H3927 0.950 . S
C3939 C3935 1.393 . S
C3939 C3938 1.391 . S
H3940 C3948 0.950 . S
H3941 C3953 0.950 . S
H3942 C3950 0.950 . S
H3943 C3952 0.950 . S
H3944 C3954 0.950 . S
H3945 C3956 0.950 . S
H3946 C3958 0.950 . S
H3947 C3959 0.950 . S
C3948 H3940 0.950 . S
C3948 C3949 1.386 . S
C3948 C3950 1.391 . S
C3949 C3948 1.386 . S
C3949 C3953 1.393 . S
C3950 H3942 0.950 . S
C3950 C3948 1.391 . S
C3950 C3951 1.400 . S
C3951 C3950 1.400 . S
C3951 C3952 1.398 . S
C3951 C3957 1.491 . S
C3952 H3943 0.950 . S
C3952 C3951 1.398 . S
C3952 C3953 1.391 . S
C3953 H3941 0.950 . S
C3953 C3949 1.393 . S
C3953 C3952 1.391 . S
C3954 H3944 0.950 . S
C3954 C3955 1.386 . S
C3954 C3956 1.391 . S
C3955 C3954 1.386 . S
C3955 C3959 1.393 . S
C3956 H3945 0.950 . S
C3956 C3954 1.391 . S
C3956 C3957 1.400 . S
C3957 C3951 1.491 . S
C3957 C3956 1.400 . S
C3957 C3958 1.398 . S
C3958 H3946 0.950 . S
C3958 C3957 1.398 . S
C3958 C3959 1.391 . S
C3959 H3947 0.950 . S
C3959 C3955 1.393 . S
C3959 C3958 1.391 . S
H3960 C3968 0.950 . S
H3961 C3973 0.950 . S
H3962 C3970 0.950 . S
H3963 C3972 0.950 . S
H3964 C3974 0.950 . S
H3965 C3976 0.950 . S
H3966 C3978 0.950 . S
H3967 C3979 0.950 . S
C3968 H3960 0.950 . S
C3968 C3969 1.386 . S
C3968 C3970 1.391 . S
C3969 C3968 1.386 . S
C3969 C3973 1.393 . S
C3970 H3962 0.950 . S
C3970 C3968 1.391 . S
C3970 C3971 1.400 . S
C3971 C3970 1.400 . S
C3971 C3972 1.398 . S
C3971 C3977 1.491 . S
C3972 H3963 0.950 . S
C3972 C3971 1.398 . S
C3972 C3973 1.391 . S
C3973 H3961 0.950 . S
C3973 C3969 1.393 . S
C3973 C3972 1.391 . S
C3974 H3964 0.950 . S
C3974 C3975 1.386 . S
C3974 C3976 1.391 . S
C3975 C3974 1.386 . S
C3975 C3979 1.393 . S
C3976 H3965 0.950 . S
C3976 C3974 1.391 . S
C3976 C3977 1.400 . S
C3977 C3971 1.491 . S
C3977 C3976 1.400 . S
C3977 C3978 1.398 . S
C3978 H3966 0.950 . S
C3978 C3977 1.398 . S
C3978 C3979 1.391 . S
C3979 H3967 0.950 . S
C3979 C3975 1.393 . S
C3979 C3978 1.391 . S
H3980 C3988 0.950 . S
H3981 C3993 0.950 . S
H3982 C3990 0.950 . S
H3983 C3992 0.950 . S
H3984 C3994 0.950 . S
H3985 C3996 0.950 . S
H3986 C3998 0.950 . S
H3987 C3999 0.950 . S
C3988 H3980 0.950 . S
C3988 C3989 1.386 . S
C3988 C3990 1.391 . S
C3989 C3988 1.386 . S
C3989 C3993 1.393 . S
C3990 H3982 0.950 . S
C3990 C3988 1.391 . S
C3990 C3991 1.400 . S
C3991 C3990 1.400 . S
C3991 C3992 1.398 . S
C3991 C3997 1.491 . S
C3992 H3983 0.950 . S
C3992 C3991 1.398 . S
C3992 C3993 1.391 . S
C3993 H3981 0.950 . S
C3993 C3989 1.393 . S
C3993 C3992 1.391 . S
C3994 H3984 0.950 . S
C3994 C3995 1.386 . S
C3994 C3996 1.391 . S
C3995 C3994 1.386 . S
C3995 C3999 1.393 . S
C3996 H3985 0.950 . S
C3996 C3994 1.391 . S
C3996 C3997 1.400 . S
C3997 C3991 1.491 . S
C3997 C3996 1.400 . S
C3997 C3998 1.398 . S
C3998 H3986 0.950 . S
C3998 C3997 1.398 . S
C3998 C3999 1.391 . S
C3999 H3987 0.950 . S
C3999 C3995 1.393 . S
C3999 C3998 1.391 . S
H4000 C4008 0.950 . S
H4001 C4013 0.950 . S
H4002 C4010 0.950 . S
H4003 C4012 0.950 . S
H4004 C4014 0.950 . S
H4005 C4016 0.950 . S
H4006 C4018 0.950 . S
H4007 C4019 0.950 . S
C4008 H4000 0.950 . S
C4008 C4009 1.386 . S
C4008 C4010 1.391 . S
C4009 C4008 1.386 . S
C4009 C4013 1.393 . S
C4010 H4002 0.950 . S
C4010 C4008 1.391 . S
C4010 C4011 1.400 . S
C4011 C4010 1.400 . S
C4011 C4012 1.398 . S
C4011 C4017 1.491 . S
C4012 H4003 0.950 . S
C4012 C4011 1.398 . S
C4012 C4013 1.391 . S
C4013 H4001 0.950 . S
C4013 C4009 1.393 . S
C4013 C4012 1.391 . S
C4014 H4004 0.950 . S
C4014 C4015 1.386 . S
C4014 C4016 1.391 . S
C4015 C4014 1.386 . S
C4015 C4019 1.393 . S
C4016 H4005 0.950 . S
C4016 C4014 1.391 . S
C4016 C4017 1.400 . S
C4017 C4011 1.491 . S
C4017 C4016 1.400 . S
C4017 C4018 1.398 . S
C4018 H4006 0.950 . S
C4018 C4017 1.398 . S
C4018 C4019 1.391 . S
C4019 H4007 0.950 . S
C4019 C4015 1.393 . S
C4019 C4018 1.391 . S
H4020 C4028 0.950 . S
H4021 C4033 0.992 . S
H4022 C4030 0.950 . S
H4023 C4032 0.950 . S
H4024 C4034 0.950 . S
H4025 C4036 0.950 . S
H4026 C4038 0.950 . S
H4027 C4039 0.950 . S
C4028 H4020 0.950 . S
C4028 C4029 1.386 . S
C4028 C4030 1.391 . S
C4029 C4028 1.386 . S
C4029 C4033 1.393 . S
C4030 H4022 0.950 . S
C4030 C4028 1.391 . S
C4030 C4031 1.400 . S
C4031 C4030 1.400 . S
C4031 C4032 1.398 . S
C4031 C4037 1.491 . S
C4032 H4023 0.950 . S
C4032 C4031 1.398 . S
C4032 C4033 1.391 . S
C4033 H4021 0.992 . S
C4033 C4029 1.393 . S
C4033 C4032 1.391 . S
C4034 H4024 0.950 . S
C4034 C4035 1.386 . S
C4034 C4036 1.391 . S
C4035 C4034 1.386 . S
C4035 C4039 1.393 . S
C4036 H4025 0.950 . S
C4036 C4034 1.391 . S
C4036 C4037 1.400 . S
C4037 C4031 1.491 . S
C4037 C4036 1.400 . S
C4037 C4038 1.398 . S
C4038 H4026 0.950 . S
C4038 C4037 1.398 . S
C4038 C4039 1.391 . S
C4039 H4027 0.950 . S
C4039 C4035 1.393 . S
C4039 C4038 1.391 . S
H4040 C4048 0.950 . S
H4041 C4053 0.950 . S
H4042 C4050 0.950 . S
H4043 C4052 0.950 . S
H4044 C4054 0.950 . S
H4045 C4056 0.950 . S
H4046 C4058 0.950 . S
H4047 C4059 0.950 . S
C4048 H4040 0.950 . S
C4048 C4049 1.386 . S
C4048 C4050 1.391 . S
C4049 C4048 1.386 . S
C4049 C4053 1.393 . S
C4050 H4042 0.950 . S
C4050 C4048 1.391 . S
C4050 C4051 1.400 . S
C4051 C4050 1.400 . S
C4051 C4052 1.398 . S
C4051 C4057 1.491 . S
C4052 H4043 0.950 . S
C4052 C4051 1.398 . S
C4052 C4053 1.391 . S
C4053 H4041 0.950 . S
C4053 C4049 1.393 . S
C4053 C4052 1.391 . S
C4054 H4044 0.950 . S
C4054 C4055 1.386 . S
C4054 C4056 1.391 . S
C4055 C4054 1.386 . S
C4055 C4059 1.393 . S
C4056 H4045 0.950 . S
C4056 C4054 1.391 . S
C4056 C4057 1.400 . S
C4057 C4051 1.491 . S
C4057 C4056 1.400 . S
C4057 C4058 1.398 . S
C4058 H4046 0.950 . S
C4058 C4057 1.398 . S
C4058 C4059 1.391 . S
C4059 H4047 0.950 . S
C4059 C4055 1.393 . S
C4059 C4058 1.391 . S
H4060 C4068 0.950 . S
H4061 C4073 0.950 . S
H4062 C4070 0.950 . S
H4063 C4072 0.950 . S
H4064 C4074 0.950 . S
H4065 C4076 0.950 . S
H4066 C4078 0.950 . S
H4067 C4079 0.950 . S
C4068 H4060 0.950 . S
C4068 C4069 1.386 . S
C4068 C4070 1.391 . S
C4069 C4068 1.386 . S
C4069 C4073 1.393 . S
C4070 H4062 0.950 . S
C4070 C4068 1.391 . S
C4070 C4071 1.400 . S
C4071 C4070 1.400 . S
C4071 C4072 1.398 . S
C4071 C4077 1.491 . S
C4072 H4063 0.950 . S
C4072 C4071 1.398 . S
C4072 C4073 1.391 . S
C4073 H4061 0.950 . S
C4073 C4069 1.393 . S
C4073 C4072 1.391 . S
C4074 H4064 0.950 . S
C4074 C4075 1.386 . S
C4074 C4076 1.391 . S
C4075 C4074 1.386 . S
C4075 C4079 1.393 . S
C4076 H4065 0.950 . S
C4076 C4074 1.391 . S
C4076 C4077 1.400 . S
C4077 C4071 1.491 . S
C4077 C4076 1.400 . S
C4077 C4078 1.398 . S
C4078 H4066 0.950 . S
C4078 C4077 1.398 . S
C4078 C4079 1.391 . S
C4079 H4067 0.950 . S
C4079 C4075 1.393 . S
C4079 C4078 1.391 . S
H4080 C4088 0.950 . S
H4081 C4093 0.950 . S
H4082 C4090 0.950 . S
H4083 C4092 0.950 . S
H4084 C4094 0.950 . S
H4085 C4096 0.950 . S
H4086 C4098 0.950 . S
H4087 C4099 0.950 . S
C4088 H4080 0.950 . S
C4088 C4089 1.386 . S
C4088 C4090 1.391 . S
C4089 C4088 1.386 . S
C4089 C4093 1.393 . S
C4090 H4082 0.950 . S
C4090 C4088 1.391 . S
C4090 C4091 1.400 . S
C4091 C4090 1.400 . S
C4091 C4092 1.398 . S
C4091 C4097 1.491 . S
C4092 H4083 0.950 . S
C4092 C4091 1.398 . S
C4092 C4093 1.391 . S
C4093 H4081 0.950 . S
C4093 C4089 1.393 . S
C4093 C4092 1.391 . S
C4094 H4084 0.950 . S
C4094 C4095 1.386 . S
C4094 C4096 1.391 . S
C4095 C4094 1.386 . S
C4095 C4099 1.393 . S
C4096 H4085 0.950 . S
C4096 C4094 1.391 . S
C4096 C4097 1.400 . S
C4097 C4091 1.491 . S
C4097 C4096 1.400 . S
C4097 C4098 1.398 . S
C4098 H4086 0.950 . S
C4098 C4097 1.398 . S
C4098 C4099 1.391 . S
C4099 H4087 0.950 . S
C4099 C4095 1.393 . S
C4099 C4098 1.391 . S
H4100 C4108 0.950 . S
H4101 C4113 0.950 . S
H4102 C4110 0.950 . S
H4103 C4112 0.950 . S
H4104 C4114 0.950 . S
H4105 C4116 0.950 . S
H4106 C4118 0.950 . S
H4107 C4119 0.950 . S
C4108 H4100 0.950 . S
C4108 C4109 1.386 . S
C4108 C4110 1.391 . S
C4109 C4108 1.386 . S
C4109 C4113 1.393 . S
C4110 H4102 0.950 . S
C4110 C4108 1.391 . S
C4110 C4111 1.400 . S
C4111 C4110 1.400 . S
C4111 C4112 1.398 . S
C4111 C4117 1.491 . S
C4112 H4103 0.950 . S
C4112 C4111 1.398 . S
C4112 C4113 1.391 . S
C4113 H4101 0.950 . S
C4113 C4109 1.393 . S
C4113 C4112 1.391 . S
C4114 H4104 0.950 . S
C4114 C4115 1.386 . S
C4114 C4116 1.391 . S
C4115 C4114 1.386 . S
C4115 C4119 1.393 . S
C4116 H4105 0.950 . S
C4116 C4114 1.391 . S
C4116 C4117 1.400 . S
C4117 C4111 1.491 . S
C4117 C4116 1.400 . S
C4117 C4118 1.398 . S
C4118 H4106 0.950 . S
C4118 C4117 1.398 . S
C4118 C4119 1.391 . S
C4119 H4107 0.950 . S
C4119 C4115 1.393 . S
C4119 C4118 1.391 . S
H4120 C4128 0.950 . S
H4121 C4133 0.950 . S
H4122 C4130 0.950 . S
H4123 C4132 0.950 . S
H4124 C4134 0.950 . S
H4125 C4136 0.950 . S
H4126 C4138 0.950 . S
H4127 C4139 0.950 . S
C4128 H4120 0.950 . S
C4128 C4129 1.386 . S
C4128 C4130 1.391 . S
C4129 C4128 1.386 . S
C4129 C4133 1.393 . S
C4130 H4122 0.950 . S
C4130 C4128 1.391 . S
C4130 C4131 1.400 . S
C4131 C4130 1.400 . S
C4131 C4132 1.398 . S
C4131 C4137 1.491 . S
C4132 H4123 0.950 . S
C4132 C4131 1.398 . S
C4132 C4133 1.391 . S
C4133 H4121 0.950 . S
C4133 C4129 1.393 . S
C4133 C4132 1.391 . S
C4134 H4124 0.950 . S
C4134 C4135 1.386 . S
C4134 C4136 1.391 . S
C4135 C4134 1.386 . S
C4135 C4139 1.393 . S
C4136 H4125 0.950 . S
C4136 C4134 1.391 . S
C4136 C4137 1.400 . S
C4137 C4131 1.491 . S
C4137 C4136 1.400 . S
C4137 C4138 1.398 . S
C4138 H4126 0.950 . S
C4138 C4137 1.398 . S
C4138 C4139 1.391 . S
C4139 H4127 0.950 . S
C4139 C4135 1.393 . S
C4139 C4138 1.391 . S
H4140 C4148 0.950 . S
H4141 C4153 0.950 . S
H4142 C4150 0.950 . S
H4143 C4152 0.950 . S
H4144 C4154 0.950 . S
H4145 C4156 0.950 . S
H4146 C4158 0.950 . S
H4147 C4159 0.950 . S
C4148 H4140 0.950 . S
C4148 C4149 1.386 . S
C4148 C4150 1.391 . S
C4149 C4148 1.386 . S
C4149 C4153 1.393 . S
C4150 H4142 0.950 . S
C4150 C4148 1.391 . S
C4150 C4151 1.400 . S
C4151 C4150 1.400 . S
C4151 C4152 1.398 . S
C4151 C4157 1.491 . S
C4152 H4143 0.950 . S
C4152 C4151 1.398 . S
C4152 C4153 1.391 . S
C4153 H4141 0.950 . S
C4153 C4149 1.393 . S
C4153 C4152 1.391 . S
C4154 H4144 0.950 . S
C4154 C4155 1.386 . S
C4154 C4156 1.391 . S
C4155 C4154 1.386 . S
C4155 C4159 1.393 . S
C4156 H4145 0.950 . S
C4156 C4154 1.391 . S
C4156 C4157 1.400 . S
C4157 C4151 1.491 . S
C4157 C4156 1.400 . S
C4157 C4158 1.398 . S
C4158 H4146 0.950 . S
C4158 C4157 1.398 . S
C4158 C4159 1.391 . S
C4159 H4147 0.950 . S
C4159 C4155 1.393 . S
C4159 C4158 1.391 . S
H4160 C4168 0.950 . S
H4161 C4173 0.950 . S
H4162 C4170 0.950 . S
H4163 C4172 0.950 . S
H4164 C4174 0.950 . S
H4165 C4176 0.950 . S
H4166 C4178 0.950 . S
H4167 C4179 0.950 . S
C4168 H4160 0.950 . S
C4168 C4169 1.386 . S
C4168 C4170 1.391 . S
C4169 C4168 1.386 . S
C4169 C4173 1.393 . S
C4170 H4162 0.950 . S
C4170 C4168 1.391 . S
C4170 C4171 1.400 . S
C4171 C4170 1.400 . S
C4171 C4172 1.398 . S
C4171 C4177 1.491 . S
C4172 H4163 0.950 . S
C4172 C4171 1.398 . S
C4172 C4173 1.391 . S
C4173 H4161 0.950 . S
C4173 C4169 1.393 . S
C4173 C4172 1.391 . S
C4174 H4164 0.950 . S
C4174 C4175 1.386 . S
C4174 C4176 1.391 . S
C4175 C4174 1.386 . S
C4175 C4179 1.393 . S
C4176 H4165 0.950 . S
C4176 C4174 1.391 . S
C4176 C4177 1.400 . S
C4177 C4171 1.491 . S
C4177 C4176 1.400 . S
C4177 C4178 1.398 . S
C4178 H4166 0.950 . S
C4178 C4177 1.398 . S
C4178 C4179 1.391 . S
C4179 H4167 0.950 . S
C4179 C4175 1.393 . S
C4179 C4178 1.391 . S
H4180 C4188 0.950 . S
H4181 C4193 0.950 . S
H4182 C4190 0.950 . S
H4183 C4192 0.950 . S
H4184 C4194 0.950 . S
H4185 C4196 0.950 . S
H4186 C4198 0.950 . S
H4187 C4199 0.950 . S
C4188 H4180 0.950 . S
C4188 C4189 1.386 . S
C4188 C4190 1.391 . S
C4189 C4188 1.386 . S
C4189 C4193 1.393 . S
C4190 H4182 0.950 . S
C4190 C4188 1.391 . S
C4190 C4191 1.400 . S
C4191 C4190 1.400 . S
C4191 C4192 1.398 . S
C4191 C4197 1.491 . S
C4192 H4183 0.950 . S
C4192 C4191 1.398 . S
C4192 C4193 1.391 . S
C4193 H4181 0.950 . S
C4193 C4189 1.393 . S
C4193 C4192 1.391 . S
C4194 H4184 0.950 . S
C4194 C4195 1.386 . S
C4194 C4196 1.391 . S
C4195 C4194 1.386 . S
C4195 C4199 1.393 . S
C4196 H4185 0.950 . S
C4196 C4194 1.391 . S
C4196 C4197 1.400 . S
C4197 C4191 1.491 . S
C4197 C4196 1.400 . S
C4197 C4198 1.398 . S
C4198 H4186 0.950 . S
C4198 C4197 1.398 . S
C4198 C4199 1.391 . S
C4199 H4187 0.950 . S
C4199 C4195 1.393 . S
C4199 C4198 1.391 . S
H4200 C4208 0.950 . S
H4201 C4213 0.950 . S
H4202 C4210 0.950 . S
H4203 C4212 0.950 . S
H4204 C4214 0.950 . S
H4205 C4216 0.950 . S
H4206 C4218 0.950 . S
H4207 C4219 0.950 . S
C4208 H4200 0.950 . S
C4208 C4209 1.386 . S
C4208 C4210 1.391 . S
C4209 C4208 1.386 . S
C4209 C4213 1.393 . S
C4210 H4202 0.950 . S
C4210 C4208 1.391 . S
C4210 C4211 1.400 . S
C4211 C4210 1.400 . S
C4211 C4212 1.398 . S
C4211 C4217 1.491 . S
C4212 H4203 0.950 . S
C4212 C4211 1.398 . S
C4212 C4213 1.391 . S
C4213 H4201 0.950 . S
C4213 C4209 1.393 . S
C4213 C4212 1.391 . S
C4214 H4204 0.950 . S
C4214 C4215 1.386 . S
C4214 C4216 1.391 . S
C4215 C4214 1.386 . S
C4215 C4219 1.393 . S
C4216 H4205 0.950 . S
C4216 C4214 1.391 . S
C4216 C4217 1.400 . S
C4217 C4211 1.491 . S
C4217 C4216 1.400 . S
C4217 C4218 1.398 . S
C4218 H4206 0.950 . S
C4218 C4217 1.398 . S
C4218 C4219 1.391 . S
C4219 H4207 0.950 . S
C4219 C4215 1.393 . S
C4219 C4218 1.391 . S
H4220 C4228 0.950 . S
H4221 C4233 0.950 . S
H4222 C4230 0.950 . S
H4223 C4232 0.950 . S
H4224 C4234 0.950 . S
H4225 C4236 0.950 . S
H4226 C4238 0.950 . S
H4227 C4239 0.950 . S
C4228 H4220 0.950 . S
C4228 C4229 1.386 . S
C4228 C4230 1.391 . S
C4229 C4228 1.386 . S
C4229 C4233 1.393 . S
C4230 H4222 0.950 . S
C4230 C4228 1.391 . S
C4230 C4231 1.400 . S
C4231 C4230 1.400 . S
C4231 C4232 1.398 . S
C4231 C4237 1.491 . S
C4232 H4223 0.950 . S
C4232 C4231 1.398 . S
C4232 C4233 1.391 . S
C4233 H4221 0.950 . S
C4233 C4229 1.393 . S
C4233 C4232 1.391 . S
C4234 H4224 0.950 . S
C4234 C4235 1.386 . S
C4234 C4236 1.391 . S
C4235 C4234 1.386 . S
C4235 C4239 1.393 . S
C4236 H4225 0.950 . S
C4236 C4234 1.391 . S
C4236 C4237 1.400 . S
C4237 C4231 1.491 . S
C4237 C4236 1.400 . S
C4237 C4238 1.398 . S
C4238 H4226 0.950 . S
C4238 C4237 1.398 . S
C4238 C4239 1.391 . S
C4239 H4227 0.950 . S
C4239 C4235 1.393 . S
C4239 C4238 1.391 . S
H4240 C4248 0.950 . S
H4241 C4253 0.950 . S
H4242 C4250 0.950 . S
H4243 C4252 0.950 . S
H4244 C4254 0.950 . S
H4245 C4256 0.950 . S
H4246 C4258 0.950 . S
H4247 C4259 0.950 . S
C4248 H4240 0.950 . S
C4248 C4249 1.386 . S
C4248 C4250 1.391 . S
C4249 C4248 1.386 . S
C4249 C4253 1.393 . S
C4250 H4242 0.950 . S
C4250 C4248 1.391 . S
C4250 C4251 1.400 . S
C4251 C4250 1.400 . S
C4251 C4252 1.398 . S
C4251 C4257 1.491 . S
C4252 H4243 0.950 . S
C4252 C4251 1.398 . S
C4252 C4253 1.391 . S
C4253 H4241 0.950 . S
C4253 C4249 1.393 . S
C4253 C4252 1.391 . S
C4254 H4244 0.950 . S
C4254 C4255 1.386 . S
C4254 C4256 1.391 . S
C4255 C4254 1.386 . S
C4255 C4259 1.393 . S
C4256 H4245 0.950 . S
C4256 C4254 1.391 . S
C4256 C4257 1.400 . S
C4257 C4251 1.491 . S
C4257 C4256 1.400 . S
C4257 C4258 1.398 . S
C4258 H4246 0.950 . S
C4258 C4257 1.398 . S
C4258 C4259 1.391 . S
C4259 H4247 0.950 . S
C4259 C4255 1.393 . S
C4259 C4258 1.391 . S
H4260 C4268 0.950 . S
H4261 C4273 0.950 . S
H4262 C4270 0.950 . S
H4263 C4272 0.950 . S
H4264 C4274 0.950 . S
H4265 C4276 0.950 . S
H4266 C4278 0.950 . S
H4267 C4279 0.950 . S
C4268 H4260 0.950 . S
C4268 C4269 1.386 . S
C4268 C4270 1.391 . S
C4269 C4268 1.386 . S
C4269 C4273 1.393 . S
C4270 H4262 0.950 . S
C4270 C4268 1.391 . S
C4270 C4271 1.400 . S
C4271 C4270 1.400 . S
C4271 C4272 1.398 . S
C4271 C4277 1.491 . S
C4272 H4263 0.950 . S
C4272 C4271 1.398 . S
C4272 C4273 1.391 . S
C4273 H4261 0.950 . S
C4273 C4269 1.393 . S
C4273 C4272 1.391 . S
C4274 H4264 0.950 . S
C4274 C4275 1.386 . S
C4274 C4276 1.391 . S
C4275 C4274 1.386 . S
C4275 C4279 1.393 . S
C4276 H4265 0.950 . S
C4276 C4274 1.391 . S
C4276 C4277 1.400 . S
C4277 C4271 1.491 . S
C4277 C4276 1.400 . S
C4277 C4278 1.398 . S
C4278 H4266 0.950 . S
C4278 C4277 1.398 . S
C4278 C4279 1.391 . S
C4279 H4267 0.950 . S
C4279 C4275 1.393 . S
C4279 C4278 1.391 . S
H4280 C4288 0.950 . S
H4281 C4293 0.950 . S
H4282 C4290 0.950 . S
H4283 C4292 0.950 . S
H4284 C4294 0.950 . S
H4285 C4296 0.950 . S
H4286 C4298 0.950 . S
H4287 C4299 0.950 . S
C4288 H4280 0.950 . S
C4288 C4289 1.386 . S
C4288 C4290 1.391 . S
C4289 C4288 1.386 . S
C4289 C4293 1.393 . S
C4290 H4282 0.950 . S
C4290 C4288 1.391 . S
C4290 C4291 1.400 . S
C4291 C4290 1.400 . S
C4291 C4292 1.398 . S
C4291 C4297 1.491 . S
C4292 H4283 0.950 . S
C4292 C4291 1.398 . S
C4292 C4293 1.391 . S
C4293 H4281 0.950 . S
C4293 C4289 1.393 . S
C4293 C4292 1.391 . S
C4294 H4284 0.950 . S
C4294 C4295 1.386 . S
C4294 C4296 1.391 . S
C4295 C4294 1.386 . S
C4295 C4299 1.393 . S
C4296 H4285 0.950 . S
C4296 C4294 1.391 . S
C4296 C4297 1.400 . S
C4297 C4291 1.491 . S
C4297 C4296 1.400 . S
C4297 C4298 1.398 . S
C4298 H4286 0.950 . S
C4298 C4297 1.398 . S
C4298 C4299 1.391 . S
C4299 H4287 0.950 . S
C4299 C4295 1.393 . S
C4299 C4298 1.391 . S
H4300 C4308 0.950 . S
H4301 C4313 0.950 . S
H4302 C4310 0.950 . S
H4303 C4312 0.950 . S
H4304 C4314 0.950 . S
H4305 C4316 0.950 . S
H4306 C4318 0.950 . S
H4307 C4319 0.950 . S
C4308 H4300 0.950 . S
C4308 C4309 1.386 . S
C4308 C4310 1.391 . S
C4309 C4308 1.386 . S
C4309 C4313 1.393 . S
C4310 H4302 0.950 . S
C4310 C4308 1.391 . S
C4310 C4311 1.400 . S
C4311 C4310 1.400 . S
C4311 C4312 1.398 . S
C4311 C4317 1.491 . S
C4312 H4303 0.950 . S
C4312 C4311 1.398 . S
C4312 C4313 1.391 . S
C4313 H4301 0.950 . S
C4313 C4309 1.393 . S
C4313 C4312 1.391 . S
C4314 H4304 0.950 . S
C4314 C4315 1.386 . S
C4314 C4316 1.391 . S
C4315 C4314 1.386 . S
C4315 C4319 1.393 . S
C4316 H4305 0.950 . S
C4316 C4314 1.391 . S
C4316 C4317 1.400 . S
C4317 C4311 1.491 . S
C4317 C4316 1.400 . S
C4317 C4318 1.398 . S
C4318 H4306 0.950 . S
C4318 C4317 1.398 . S
C4318 C4319 1.391 . S
C4319 H4307 0.950 . S
C4319 C4315 1.393 . S
C4319 C4318 1.391 . S
H4320 C4328 0.950 . S
H4321 C4333 0.950 . S
H4322 C4330 0.950 . S
H4323 C4332 0.950 . S
H4324 C4334 0.950 . S
H4325 C4336 0.950 . S
H4326 C4338 0.950 . S
H4327 C4339 0.950 . S
C4328 H4320 0.950 . S
C4328 C4329 1.386 . S
C4328 C4330 1.391 . S
C4329 C4328 1.386 . S
C4329 C4333 1.393 . S
C4330 H4322 0.950 . S
C4330 C4328 1.391 . S
C4330 C4331 1.400 . S
C4331 C4330 1.400 . S
C4331 C4332 1.398 . S
C4331 C4337 1.491 . S
C4332 H4323 0.950 . S
C4332 C4331 1.398 . S
C4332 C4333 1.391 . S
C4333 H4321 0.950 . S
C4333 C4329 1.393 . S
C4333 C4332 1.391 . S
C4334 H4324 0.950 . S
C4334 C4335 1.386 . S
C4334 C4336 1.391 . S
C4335 C4334 1.386 . S
C4335 C4339 1.393 . S
C4336 H4325 0.950 . S
C4336 C4334 1.391 . S
C4336 C4337 1.400 . S
C4337 C4331 1.491 . S
C4337 C4336 1.400 . S
C4337 C4338 1.398 . S
C4338 H4326 0.950 . S
C4338 C4337 1.398 . S
C4338 C4339 1.391 . S
C4339 H4327 0.950 . S
C4339 C4335 1.393 . S
C4339 C4338 1.391 . S
H4340 C4348 0.950 . S
H4341 C4353 0.950 . S
H4342 C4350 0.950 . S
H4343 C4352 0.950 . S
H4344 C4354 0.982 . S
H4345 C4356 0.950 . S
H4346 C4358 0.950 . S
H4347 C4359 0.950 . S
C4348 H4340 0.950 . S
C4348 C4349 1.386 . S
C4348 C4350 1.391 . S
C4349 C4348 1.386 . S
C4349 C4353 1.393 . S
C4350 H4342 0.950 . S
C4350 C4348 1.391 . S
C4350 C4351 1.400 . S
C4351 C4350 1.400 . S
C4351 C4352 1.398 . S
C4351 C4357 1.491 . S
C4352 H4343 0.950 . S
C4352 C4351 1.398 . S
C4352 C4353 1.391 . S
C4353 H4341 0.950 . S
C4353 C4349 1.393 . S
C4353 C4352 1.391 . S
C4354 H4344 0.982 . S
C4354 C4355 1.386 . S
C4354 C4356 1.391 . S
C4355 C4354 1.386 . S
C4355 C4359 1.393 . S
C4356 H4345 0.950 . S
C4356 C4354 1.391 . S
C4356 C4357 1.400 . S
C4357 C4351 1.491 . S
C4357 C4356 1.400 . S
C4357 C4358 1.398 . S
C4358 H4346 0.950 . S
C4358 C4357 1.398 . S
C4358 C4359 1.391 . S
C4359 H4347 0.950 . S
C4359 C4355 1.393 . S
C4359 C4358 1.391 . S
H4360 C4368 0.950 . S
H4361 C4373 0.950 . S
H4362 C4370 0.950 . S
H4363 C4372 0.950 . S
H4364 C4374 0.950 . S
H4365 C4376 0.950 . S
H4366 C4378 0.950 . S
H4367 C4379 0.950 . S
C4368 H4360 0.950 . S
C4368 C4369 1.386 . S
C4368 C4370 1.391 . S
C4369 C4368 1.386 . S
C4369 C4373 1.393 . S
C4370 H4362 0.950 . S
C4370 C4368 1.391 . S
C4370 C4371 1.400 . S
C4371 C4370 1.400 . S
C4371 C4372 1.398 . S
C4371 C4377 1.491 . S
C4372 H4363 0.950 . S
C4372 C4371 1.398 . S
C4372 C4373 1.391 . S
C4373 H4361 0.950 . S
C4373 C4369 1.393 . S
C4373 C4372 1.391 . S
C4374 H4364 0.950 . S
C4374 C4375 1.386 . S
C4374 C4376 1.391 . S
C4375 C4374 1.386 . S
C4375 C4379 1.393 . S
C4376 H4365 0.950 . S
C4376 C4374 1.391 . S
C4376 C4377 1.400 . S
C4377 C4371 1.491 . S
C4377 C4376 1.400 . S
C4377 C4378 1.398 . S
C4378 H4366 0.950 . S
C4378 C4377 1.398 . S
C4378 C4379 1.391 . S
C4379 H4367 0.950 . S
C4379 C4375 1.393 . S
C4379 C4378 1.391 . S
H4380 C4388 0.950 . S
H4381 C4393 0.950 . S
H4382 C4390 0.950 . S
H4383 C4392 0.950 . S
H4384 C4394 0.950 . S
H4385 C4396 0.950 . S
H4386 C4398 0.950 . S
H4387 C4399 0.950 . S
C4388 H4380 0.950 . S
C4388 C4389 1.386 . S
C4388 C4390 1.391 . S
C4389 C4388 1.386 . S
C4389 C4393 1.393 . S
C4390 H4382 0.950 . S
C4390 C4388 1.391 . S
C4390 C4391 1.400 . S
C4391 C4390 1.400 . S
C4391 C4392 1.398 . S
C4391 C4397 1.491 . S
C4392 H4383 0.950 . S
C4392 C4391 1.398 . S
C4392 C4393 1.391 . S
C4393 H4381 0.950 . S
C4393 C4389 1.393 . S
C4393 C4392 1.391 . S
C4394 H4384 0.950 . S
C4394 C4395 1.386 . S
C4394 C4396 1.391 . S
C4395 C4394 1.386 . S
C4395 C4399 1.393 . S
C4396 H4385 0.950 . S
C4396 C4394 1.391 . S
C4396 C4397 1.400 . S
C4397 C4391 1.491 . S
C4397 C4396 1.400 . S
C4397 C4398 1.398 . S
C4398 H4386 0.950 . S
C4398 C4397 1.398 . S
C4398 C4399 1.391 . S
C4399 H4387 0.950 . S
C4399 C4395 1.393 . S
C4399 C4398 1.391 . S
H4400 C4408 0.950 . S
H4401 C4413 0.950 . S
H4402 C4410 0.950 . S
H4403 C4412 0.950 . S
H4404 C4414 0.950 . S
H4405 C4416 0.950 . S
H4406 C4418 0.950 . S
H4407 C4419 0.950 . S
C4408 H4400 0.950 . S
C4408 C4409 1.386 . S
C4408 C4410 1.391 . S
C4409 C4408 1.386 . S
C4409 C4413 1.393 . S
C4410 H4402 0.950 . S
C4410 C4408 1.391 . S
C4410 C4411 1.400 . S
C4411 C4410 1.400 . S
C4411 C4412 1.398 . S
C4411 C4417 1.491 . S
C4412 H4403 0.950 . S
C4412 C4411 1.398 . S
C4412 C4413 1.391 . S
C4413 H4401 0.950 . S
C4413 C4409 1.393 . S
C4413 C4412 1.391 . S
C4414 H4404 0.950 . S
C4414 C4415 1.386 . S
C4414 C4416 1.391 . S
C4415 C4414 1.386 . S
C4415 C4419 1.393 . S
C4416 H4405 0.950 . S
C4416 C4414 1.391 . S
C4416 C4417 1.400 . S
C4417 C4411 1.491 . S
C4417 C4416 1.400 . S
C4417 C4418 1.398 . S
C4418 H4406 0.950 . S
C4418 C4417 1.398 . S
C4418 C4419 1.391 . S
C4419 H4407 0.950 . S
C4419 C4415 1.393 . S
C4419 C4418 1.391 . S
H4420 C4428 0.950 . S
H4421 C4433 0.950 . S
H4422 C4430 0.950 . S
H4423 C4432 0.950 . S
H4424 C4434 0.950 . S
H4425 C4436 0.950 . S
H4426 C4438 0.950 . S
H4427 C4439 0.950 . S
C4428 H4420 0.950 . S
C4428 C4429 1.386 . S
C4428 C4430 1.391 . S
C4429 C4428 1.386 . S
C4429 C4433 1.393 . S
C4430 H4422 0.950 . S
C4430 C4428 1.391 . S
C4430 C4431 1.400 . S
C4431 C4430 1.400 . S
C4431 C4432 1.398 . S
C4431 C4437 1.491 . S
C4432 H4423 0.950 . S
C4432 C4431 1.398 . S
C4432 C4433 1.391 . S
C4433 H4421 0.950 . S
C4433 C4429 1.393 . S
C4433 C4432 1.391 . S
C4434 H4424 0.950 . S
C4434 C4435 1.386 . S
C4434 C4436 1.391 . S
C4435 C4434 1.386 . S
C4435 C4439 1.393 . S
C4436 H4425 0.950 . S
C4436 C4434 1.391 . S
C4436 C4437 1.400 . S
C4437 C4431 1.491 . S
C4437 C4436 1.400 . S
C4437 C4438 1.398 . S
C4438 H4426 0.950 . S
C4438 C4437 1.398 . S
C4438 C4439 1.391 . S
C4439 H4427 0.950 . S
C4439 C4435 1.393 . S
C4439 C4438 1.391 . S
H4440 C4448 0.950 . S
H4441 C4453 0.950 . S
H4442 C4450 0.950 . S
H4443 C4452 0.950 . S
H4444 C4454 0.950 . S
H4445 C4456 0.950 . S
H4446 C4458 0.950 . S
H4447 C4459 0.950 . S
C4448 H4440 0.950 . S
C4448 C4449 1.386 . S
C4448 C4450 1.391 . S
C4449 C4448 1.386 . S
C4449 C4453 1.393 . S
C4450 H4442 0.950 . S
C4450 C4448 1.391 . S
C4450 C4451 1.400 . S
C4451 C4450 1.400 . S
C4451 C4452 1.398 . S
C4451 C4457 1.491 . S
C4452 H4443 0.950 . S
C4452 C4451 1.398 . S
C4452 C4453 1.391 . S
C4453 H4441 0.950 . S
C4453 C4449 1.393 . S
C4453 C4452 1.391 . S
C4454 H4444 0.950 . S
C4454 C4455 1.386 . S
C4454 C4456 1.391 . S
C4455 C4454 1.386 . S
C4455 C4459 1.393 . S
C4456 H4445 0.950 . S
C4456 C4454 1.391 . S
C4456 C4457 1.400 . S
C4457 C4451 1.491 . S
C4457 C4456 1.400 . S
C4457 C4458 1.398 . S
C4458 H4446 0.950 . S
C4458 C4457 1.398 . S
C4458 C4459 1.391 . S
C4459 H4447 0.950 . S
C4459 C4455 1.393 . S
C4459 C4458 1.391 . S
H4460 C4468 0.950 . S
H4461 C4473 0.950 . S
H4462 C4470 0.950 . S
H4463 C4472 0.950 . S
H4464 C4474 0.950 . S
H4465 C4476 0.950 . S
H4466 C4478 0.950 . S
H4467 C4479 0.950 . S
C4468 H4460 0.950 . S
C4468 C4469 1.386 . S
C4468 C4470 1.391 . S
C4469 C4468 1.386 . S
C4469 C4473 1.393 . S
C4470 H4462 0.950 . S
C4470 C4468 1.391 . S
C4470 C4471 1.400 . S
C4471 C4470 1.400 . S
C4471 C4472 1.398 . S
C4471 C4477 1.491 . S
C4472 H4463 0.950 . S
C4472 C4471 1.398 . S
C4472 C4473 1.391 . S
C4473 H4461 0.950 . S
C4473 C4469 1.393 . S
C4473 C4472 1.391 . S
C4474 H4464 0.950 . S
C4474 C4475 1.386 . S
C4474 C4476 1.391 . S
C4475 C4474 1.386 . S
C4475 C4479 1.393 . S
C4476 H4465 0.950 . S
C4476 C4474 1.391 . S
C4476 C4477 1.400 . S
C4477 C4471 1.491 . S
C4477 C4476 1.400 . S
C4477 C4478 1.398 . S
C4478 H4466 0.950 . S
C4478 C4477 1.398 . S
C4478 C4479 1.391 . S
C4479 H4467 0.950 . S
C4479 C4475 1.393 . S
C4479 C4478 1.391 . S
H4480 C4488 0.950 . S
H4481 C4493 0.950 . S
H4482 C4490 0.950 . S
H4483 C4492 0.950 . S
H4484 C4494 0.950 . S
H4485 C4496 0.950 . S
H4486 C4498 0.950 . S
H4487 C4499 0.950 . S
C4488 H4480 0.950 . S
C4488 C4489 1.386 . S
C4488 C4490 1.391 . S
C4489 C4488 1.386 . S
C4489 C4493 1.393 . S
C4490 H4482 0.950 . S
C4490 C4488 1.391 . S
C4490 C4491 1.400 . S
C4491 C4490 1.400 . S
C4491 C4492 1.398 . S
C4491 C4497 1.491 . S
C4492 H4483 0.950 . S
C4492 C4491 1.398 . S
C4492 C4493 1.391 . S
C4493 H4481 0.950 . S
C4493 C4489 1.393 . S
C4493 C4492 1.391 . S
C4494 H4484 0.950 . S
C4494 C4495 1.386 . S
C4494 C4496 1.391 . S
C4495 C4494 1.386 . S
C4495 C4499 1.393 . S
C4496 H4485 0.950 . S
C4496 C4494 1.391 . S
C4496 C4497 1.400 . S
C4497 C4491 1.491 . S
C4497 C4496 1.400 . S
C4497 C4498 1.398 . S
C4498 H4486 0.950 . S
C4498 C4497 1.398 . S
C4498 C4499 1.391 . S
C4499 H4487 0.950 . S
C4499 C4495 1.393 . S
C4499 C4498 1.391 . S
H4500 C4508 0.950 . S
H4501 C4513 0.950 . S
H4502 C4510 0.950 . S
H4503 C4512 0.950 . S
H4504 C4514 0.950 . S
H4505 C4516 0.950 . S
H4506 C4518 0.950 . S
H4507 C4519 0.950 . S
C4508 H4500 0.950 . S
C4508 C4509 1.386 . S
C4508 C4510 1.391 . S
C4509 C4508 1.386 . S
C4509 C4513 1.393 . S
C4510 H4502 0.950 . S
C4510 C4508 1.391 . S
C4510 C4511 1.400 . S
C4511 C4510 1.400 . S
C4511 C4512 1.398 . S
C4511 C4517 1.491 . S
C4512 H4503 0.950 . S
C4512 C4511 1.398 . S
C4512 C4513 1.391 . S
C4513 H4501 0.950 . S
C4513 C4509 1.393 . S
C4513 C4512 1.391 . S
C4514 H4504 0.950 . S
C4514 C4515 1.386 . S
C4514 C4516 1.391 . S
C4515 C4514 1.386 . S
C4515 C4519 1.393 . S
C4516 H4505 0.950 . S
C4516 C4514 1.391 . S
C4516 C4517 1.400 . S
C4517 C4511 1.491 . S
C4517 C4516 1.400 . S
C4517 C4518 1.398 . S
C4518 H4506 0.950 . S
C4518 C4517 1.398 . S
C4518 C4519 1.391 . S
C4519 H4507 0.950 . S
C4519 C4515 1.393 . S
C4519 C4518 1.391 . S
H4520 C4528 0.950 . S
H4521 C4533 0.950 . S
H4522 C4530 0.950 . S
H4523 C4532 0.950 . S
H4524 C4534 0.950 . S
H4525 C4536 0.950 . S
H4526 C4538 0.950 . S
H4527 C4539 0.950 . S
C4528 H4520 0.950 . S
C4528 C4529 1.386 . S
C4528 C4530 1.391 . S
C4529 C4528 1.386 . S
C4529 C4533 1.393 . S
C4530 H4522 0.950 . S
C4530 C4528 1.391 . S
C4530 C4531 1.400 . S
C4531 C4530 1.400 . S
C4531 C4532 1.398 . S
C4531 C4537 1.491 . S
C4532 H4523 0.950 . S
C4532 C4531 1.398 . S
C4532 C4533 1.391 . S
C4533 H4521 0.950 . S
C4533 C4529 1.393 . S
C4533 C4532 1.391 . S
C4534 H4524 0.950 . S
C4534 C4535 1.386 . S
C4534 C4536 1.391 . S
C4535 C4534 1.386 . S
C4535 C4539 1.393 . S
C4536 H4525 0.950 . S
C4536 C4534 1.391 . S
C4536 C4537 1.400 . S
C4537 C4531 1.491 . S
C4537 C4536 1.400 . S
C4537 C4538 1.398 . S
C4538 H4526 0.950 . S
C4538 C4537 1.398 . S
C4538 C4539 1.391 . S
C4539 H4527 0.950 . S
C4539 C4535 1.393 . S
C4539 C4538 1.391 . S
H4540 C4548 0.950 . S
H4541 C4553 0.950 1_554 S
H4542 C4550 0.950 . S
H4543 C4552 0.950 . S
H4544 C4554 0.950 . S
H4545 C4556 0.950 . S
H4546 C4558 0.950 . S
H4547 C4559 0.950 . S
C4548 H4540 0.950 . S
C4548 C4549 1.386 . S
C4548 C4550 1.391 . S
C4549 C4548 1.386 . S
C4549 C4553 1.393 . S
C4550 H4542 0.950 . S
C4550 C4548 1.391 . S
C4550 C4551 1.400 . S
C4551 C4550 1.400 . S
C4551 C4552 1.398 . S
C4551 C4557 1.491 . S
C4552 H4543 0.950 . S
C4552 C4551 1.398 . S
C4552 C4553 1.391 . S
C4553 H4541 0.950 1_556 S
C4553 C4549 1.393 . S
C4553 C4552 1.391 . S
C4554 H4544 0.950 . S
C4554 C4555 1.386 . S
C4554 C4556 1.391 . S
C4555 C4554 1.386 . S
C4555 C4559 1.393 . S
C4556 H4545 0.950 . S
C4556 C4554 1.391 . S
C4556 C4557 1.400 . S
C4557 C4551 1.491 . S
C4557 C4556 1.400 . S
C4557 C4558 1.398 . S
C4558 H4546 0.950 . S
C4558 C4557 1.398 . S
C4558 C4559 1.391 . S
C4559 H4547 0.950 . S
C4559 C4555 1.393 . S
C4559 C4558 1.391 . S
H4560 C4568 0.950 . S
H4561 C4573 0.950 . S
H4562 C4570 0.950 . S
H4563 C4572 0.950 . S
H4564 C4574 0.950 . S
H4565 C4576 0.950 . S
H4566 C4578 0.950 . S
H4567 C4579 0.950 . S
C4568 H4560 0.950 . S
C4568 C4569 1.386 . S
C4568 C4570 1.391 . S
C4569 C4568 1.386 . S
C4569 C4573 1.393 . S
C4570 H4562 0.950 . S
C4570 C4568 1.391 . S
C4570 C4571 1.400 . S
C4571 C4570 1.400 . S
C4571 C4572 1.398 . S
C4571 C4577 1.491 . S
C4572 H4563 0.950 . S
C4572 C4571 1.398 . S
C4572 C4573 1.391 . S
C4573 H4561 0.950 . S
C4573 C4569 1.393 . S
C4573 C4572 1.391 . S
C4574 H4564 0.950 . S
C4574 C4575 1.386 . S
C4574 C4576 1.391 . S
C4575 C4574 1.386 . S
C4575 C4579 1.393 . S
C4576 H4565 0.950 . S
C4576 C4574 1.391 . S
C4576 C4577 1.400 . S
C4577 C4571 1.491 . S
C4577 C4576 1.400 . S
C4577 C4578 1.398 . S
C4578 H4566 0.950 . S
C4578 C4577 1.398 . S
C4578 C4579 1.391 . S
C4579 H4567 0.950 . S
C4579 C4575 1.393 . S
C4579 C4578 1.391 . S
H4580 C4588 0.950 . S
H4581 C4593 0.950 . S
H4582 C4590 0.950 . S
H4583 C4592 0.950 . S
H4584 C4594 0.950 . S
H4585 C4596 0.950 . S
H4586 C4598 0.950 . S
H4587 C4599 0.950 . S
C4588 H4580 0.950 . S
C4588 C4589 1.386 . S
C4588 C4590 1.391 . S
C4589 C4588 1.386 . S
C4589 C4593 1.393 . S
C4590 H4582 0.950 . S
C4590 C4588 1.391 . S
C4590 C4591 1.400 . S
C4591 C4590 1.400 . S
C4591 C4592 1.398 . S
C4591 C4597 1.491 . S
C4592 H4583 0.950 . S
C4592 C4591 1.398 . S
C4592 C4593 1.391 . S
C4593 H4581 0.950 . S
C4593 C4589 1.393 . S
C4593 C4592 1.391 . S
C4594 H4584 0.950 . S
C4594 C4595 1.386 . S
C4594 C4596 1.391 . S
C4595 C4594 1.386 . S
C4595 C4599 1.393 . S
C4596 H4585 0.950 . S
C4596 C4594 1.391 . S
C4596 C4597 1.400 . S
C4597 C4591 1.491 . S
C4597 C4596 1.400 . S
C4597 C4598 1.398 . S
C4598 H4586 0.950 . S
C4598 C4597 1.398 . S
C4598 C4599 1.391 . S
C4599 H4587 0.950 . S
C4599 C4595 1.393 . S
C4599 C4598 1.391 . S
H4600 C4608 0.950 . S
H4601 C4613 0.950 . S
H4602 C4610 0.950 . S
H4603 C4612 0.950 . S
H4604 C4614 0.950 . S
H4605 C4616 0.950 . S
H4606 C4618 0.950 . S
H4607 C4619 0.950 . S
C4608 H4600 0.950 . S
C4608 C4609 1.386 . S
C4608 C4610 1.391 . S
C4609 C4608 1.386 . S
C4609 C4613 1.393 . S
C4610 H4602 0.950 . S
C4610 C4608 1.391 . S
C4610 C4611 1.400 . S
C4611 C4610 1.400 . S
C4611 C4612 1.398 . S
C4611 C4617 1.491 . S
C4612 H4603 0.950 . S
C4612 C4611 1.398 . S
C4612 C4613 1.391 . S
C4613 H4601 0.950 . S
C4613 C4609 1.393 . S
C4613 C4612 1.391 . S
C4614 H4604 0.950 . S
C4614 C4615 1.386 . S
C4614 C4616 1.391 . S
C4615 C4614 1.386 . S
C4615 C4619 1.393 . S
C4616 H4605 0.950 . S
C4616 C4614 1.391 . S
C4616 C4617 1.400 . S
C4617 C4611 1.491 . S
C4617 C4616 1.400 . S
C4617 C4618 1.398 . S
C4618 H4606 0.950 . S
C4618 C4617 1.398 . S
C4618 C4619 1.391 . S
C4619 H4607 0.950 . S
C4619 C4615 1.393 . S
C4619 C4618 1.391 . S
H4620 C4628 0.950 . S
H4621 C4633 0.950 . S
H4622 C4630 0.950 . S
H4623 C4632 0.950 . S
H4624 C4634 0.950 . S
H4625 C4636 0.950 . S
H4626 C4638 0.950 . S
H4627 C4639 0.950 . S
C4628 H4620 0.950 . S
C4628 C4629 1.386 . S
C4628 C4630 1.391 . S
C4629 C4628 1.386 . S
C4629 C4633 1.393 . S
C4630 H4622 0.950 . S
C4630 C4628 1.391 . S
C4630 C4631 1.400 . S
C4631 C4630 1.400 . S
C4631 C4632 1.398 . S
C4631 C4637 1.491 . S
C4632 H4623 0.950 . S
C4632 C4631 1.398 . S
C4632 C4633 1.391 . S
C4633 H4621 0.950 . S
C4633 C4629 1.393 . S
C4633 C4632 1.391 . S
C4634 H4624 0.950 . S
C4634 C4635 1.386 . S
C4634 C4636 1.391 . S
C4635 C4634 1.386 . S
C4635 C4639 1.393 . S
C4636 H4625 0.950 . S
C4636 C4634 1.391 . S
C4636 C4637 1.400 . S
C4637 C4631 1.491 . S
C4637 C4636 1.400 . S
C4637 C4638 1.398 . S
C4638 H4626 0.950 . S
C4638 C4637 1.398 . S
C4638 C4639 1.391 . S
C4639 H4627 0.950 . S
C4639 C4635 1.393 . S
C4639 C4638 1.391 . S
H4640 C4648 0.950 . S
H4641 C4653 0.950 . S
H4642 C4650 0.950 . S
H4643 C4652 0.950 . S
H4644 C4654 0.950 . S
H4645 C4656 0.950 . S
H4646 C4658 0.950 . S
H4647 C4659 0.950 . S
C4648 H4640 0.950 . S
C4648 C4649 1.386 . S
C4648 C4650 1.391 . S
C4649 C4648 1.386 . S
C4649 C4653 1.393 . S
C4650 H4642 0.950 . S
C4650 C4648 1.391 . S
C4650 C4651 1.400 . S
C4651 C4650 1.400 . S
C4651 C4652 1.398 . S
C4651 C4657 1.491 . S
C4652 H4643 0.950 . S
C4652 C4651 1.398 . S
C4652 C4653 1.391 . S
C4653 H4641 0.950 . S
C4653 C4649 1.393 . S
C4653 C4652 1.391 . S
C4654 H4644 0.950 . S
C4654 C4655 1.386 . S
C4654 C4656 1.391 . S
C4655 C4654 1.386 . S
C4655 C4659 1.393 . S
C4656 H4645 0.950 . S
C4656 C4654 1.391 . S
C4656 C4657 1.400 . S
C4657 C4651 1.491 . S
C4657 C4656 1.400 . S
C4657 C4658 1.398 . S
C4658 H4646 0.950 . S
C4658 C4657 1.398 . S
C4658 C4659 1.391 . S
C4659 H4647 0.950 . S
C4659 C4655 1.393 . S
C4659 C4658 1.391 . S
H4660 C4668 0.950 . S
H4661 C4673 0.950 . S
H4662 C4670 0.950 . S
H4663 C4672 0.950 . S
H4664 C4674 0.950 . S
H4665 C4676 0.950 . S
H4666 C4678 0.950 . S
H4667 C4679 0.950 . S
C4668 H4660 0.950 . S
C4668 C4669 1.386 . S
C4668 C4670 1.391 . S
C4669 C4668 1.386 . S
C4669 C4673 1.393 . S
C4670 H4662 0.950 . S
C4670 C4668 1.391 . S
C4670 C4671 1.400 . S
C4671 C4670 1.400 . S
C4671 C4672 1.398 . S
C4671 C4677 1.491 . S
C4672 H4663 0.950 . S
C4672 C4671 1.398 . S
C4672 C4673 1.391 . S
C4673 H4661 0.950 . S
C4673 C4669 1.393 . S
C4673 C4672 1.391 . S
C4674 H4664 0.950 . S
C4674 C4675 1.386 . S
C4674 C4676 1.391 . S
C4675 C4674 1.386 . S
C4675 C4679 1.393 . S
C4676 H4665 0.950 . S
C4676 C4674 1.391 . S
C4676 C4677 1.400 . S
C4677 C4671 1.491 . S
C4677 C4676 1.400 . S
C4677 C4678 1.398 . S
C4678 H4666 0.950 . S
C4678 C4677 1.398 . S
C4678 C4679 1.391 . S
C4679 H4667 0.950 . S
C4679 C4675 1.393 . S
C4679 C4678 1.391 . S
H4680 C4688 0.950 . S
H4681 C4693 0.950 . S
H4682 C4690 0.950 . S
H4683 C4692 0.950 . S
H4684 C4694 0.950 . S
H4685 C4696 0.950 . S
H4686 C4698 0.950 . S
H4687 C4699 0.950 . S
C4688 H4680 0.950 . S
C4688 C4689 1.386 . S
C4688 C4690 1.391 . S
C4689 C4688 1.386 . S
C4689 C4693 1.393 . S
C4690 H4682 0.950 . S
C4690 C4688 1.391 . S
C4690 C4691 1.400 . S
C4691 C4690 1.400 . S
C4691 C4692 1.398 . S
C4691 C4697 1.491 . S
C4692 H4683 0.950 . S
C4692 C4691 1.398 . S
C4692 C4693 1.391 . S
C4693 H4681 0.950 . S
C4693 C4689 1.393 . S
C4693 C4692 1.391 . S
C4694 H4684 0.950 . S
C4694 C4695 1.386 . S
C4694 C4696 1.391 . S
C4695 C4694 1.386 . S
C4695 C4699 1.393 . S
C4696 H4685 0.950 . S
C4696 C4694 1.391 . S
C4696 C4697 1.400 . S
C4697 C4691 1.491 . S
C4697 C4696 1.400 . S
C4697 C4698 1.398 . S
C4698 H4686 0.950 . S
C4698 C4697 1.398 . S
C4698 C4699 1.391 . S
C4699 H4687 0.950 . S
C4699 C4695 1.393 . S
C4699 C4698 1.391 . S
H4700 C4708 0.950 . S
H4701 C4713 0.950 . S
H4702 C4710 0.950 . S
H4703 C4712 0.950 . S
H4704 C4714 0.950 . S
H4705 C4716 0.950 . S
H4706 C4718 0.950 . S
H4707 C4719 0.950 . S
C4708 H4700 0.950 . S
C4708 C4709 1.386 . S
C4708 C4710 1.391 . S
C4709 C4708 1.386 . S
C4709 C4713 1.393 . S
C4710 H4702 0.950 . S
C4710 C4708 1.391 . S
C4710 C4711 1.400 . S
C4711 C4710 1.400 . S
C4711 C4712 1.398 . S
C4711 C4717 1.491 . S
C4712 H4703 0.950 . S
C4712 C4711 1.398 . S
C4712 C4713 1.391 . S
C4713 H4701 0.950 . S
C4713 C4709 1.393 . S
C4713 C4712 1.391 . S
C4714 H4704 0.950 . S
C4714 C4715 1.386 . S
C4714 C4716 1.391 . S
C4715 C4714 1.386 . S
C4715 C4719 1.393 . S
C4716 H4705 0.950 . S
C4716 C4714 1.391 . S
C4716 C4717 1.400 . S
C4717 C4711 1.491 . S
C4717 C4716 1.400 . S
C4717 C4718 1.398 . S
C4718 H4706 0.950 . S
C4718 C4717 1.398 . S
C4718 C4719 1.391 . S
C4719 H4707 0.950 . S
C4719 C4715 1.393 . S
C4719 C4718 1.391 . S
H4720 C4728 0.950 . S
H4721 C4733 0.950 . S
H4722 C4730 0.950 . S
H4723 C4732 0.950 . S
H4724 C4734 0.950 . S
H4725 C4736 0.950 . S
H4726 C4738 0.950 . S
H4727 C4739 0.950 . S
C4728 H4720 0.950 . S
C4728 C4729 1.386 . S
C4728 C4730 1.391 . S
C4729 C4728 1.386 . S
C4729 C4733 1.393 . S
C4730 H4722 0.950 . S
C4730 C4728 1.391 . S
C4730 C4731 1.400 . S
C4731 C4730 1.400 . S
C4731 C4732 1.398 . S
C4731 C4737 1.491 . S
C4732 H4723 0.950 . S
C4732 C4731 1.398 . S
C4732 C4733 1.391 . S
C4733 H4721 0.950 . S
C4733 C4729 1.393 . S
C4733 C4732 1.391 . S
C4734 H4724 0.950 . S
C4734 C4735 1.386 . S
C4734 C4736 1.391 . S
C4735 C4734 1.386 . S
C4735 C4739 1.393 . S
C4736 H4725 0.950 . S
C4736 C4734 1.391 . S
C4736 C4737 1.400 . S
C4737 C4731 1.491 . S
C4737 C4736 1.400 . S
C4737 C4738 1.398 . S
C4738 H4726 0.950 . S
C4738 C4737 1.398 . S
C4738 C4739 1.391 . S
C4739 H4727 0.950 . S
C4739 C4735 1.393 . S
C4739 C4738 1.391 . S
H4740 C4748 0.950 . S
H4741 C4753 0.950 . S
H4742 C4750 0.950 . S
H4743 C4752 0.950 . S
H4744 C4754 0.950 . S
H4745 C4756 0.950 . S
H4746 C4758 0.950 . S
H4747 C4759 0.950 . S
C4748 H4740 0.950 . S
C4748 C4749 1.386 . S
C4748 C4750 1.391 . S
C4749 C4748 1.386 . S
C4749 C4753 1.393 . S
C4750 H4742 0.950 . S
C4750 C4748 1.391 . S
C4750 C4751 1.400 . S
C4751 C4750 1.400 . S
C4751 C4752 1.398 . S
C4751 C4757 1.491 . S
C4752 H4743 0.950 . S
C4752 C4751 1.398 . S
C4752 C4753 1.391 . S
C4753 H4741 0.950 . S
C4753 C4749 1.393 . S
C4753 C4752 1.391 . S
C4754 H4744 0.950 . S
C4754 C4755 1.386 . S
C4754 C4756 1.391 . S
C4755 C4754 1.386 . S
C4755 C4759 1.393 . S
C4756 H4745 0.950 . S
C4756 C4754 1.391 . S
C4756 C4757 1.400 . S
C4757 C4751 1.491 . S
C4757 C4756 1.400 . S
C4757 C4758 1.398 . S
C4758 H4746 0.950 . S
C4758 C4757 1.398 . S
C4758 C4759 1.391 . S
C4759 H4747 0.950 . S
C4759 C4755 1.393 . S
C4759 C4758 1.391 . S
H4760 C4768 0.950 . S
H4761 C4773 0.950 . S
H4762 C4770 0.950 . S
H4763 C4772 0.950 . S
H4764 C4774 0.950 . S
H4765 C4776 0.950 . S
H4766 C4778 0.950 . S
H4767 C4779 0.950 . S
C4768 H4760 0.950 . S
C4768 C4769 1.386 . S
C4768 C4770 1.391 . S
C4769 C4768 1.386 . S
C4769 C4773 1.393 . S
C4770 H4762 0.950 . S
C4770 C4768 1.391 . S
C4770 C4771 1.400 . S
C4771 C4770 1.400 . S
C4771 C4772 1.398 . S
C4771 C4777 1.491 . S
C4772 H4763 0.950 . S
C4772 C4771 1.398 . S
C4772 C4773 1.391 . S
C4773 H4761 0.950 . S
C4773 C4769 1.393 . S
C4773 C4772 1.391 . S
C4774 H4764 0.950 . S
C4774 C4775 1.386 . S
C4774 C4776 1.391 . S
C4775 C4774 1.386 . S
C4775 C4779 1.393 . S
C4776 H4765 0.950 . S
C4776 C4774 1.391 . S
C4776 C4777 1.400 . S
C4777 C4771 1.491 . S
C4777 C4776 1.400 . S
C4777 C4778 1.398 . S
C4778 H4766 0.950 . S
C4778 C4777 1.398 . S
C4778 C4779 1.391 . S
C4779 H4767 0.950 . S
C4779 C4775 1.393 . S
C4779 C4778 1.391 . S
H4780 C4788 0.950 . S
H4781 C4793 0.950 . S
H4782 C4790 0.950 . S
H4783 C4792 0.950 . S
H4784 C4794 0.950 . S
H4785 C4796 0.950 . S
H4786 C4798 0.950 . S
H4787 C4799 0.950 . S
C4788 H4780 0.950 . S
C4788 C4789 1.386 . S
C4788 C4790 1.391 . S
C4789 C4788 1.386 . S
C4789 C4793 1.393 . S
C4790 H4782 0.950 . S
C4790 C4788 1.391 . S
C4790 C4791 1.400 . S
C4791 C4790 1.400 . S
C4791 C4792 1.398 . S
C4791 C4797 1.491 . S
C4792 H4783 0.950 . S
C4792 C4791 1.398 . S
C4792 C4793 1.391 . S
C4793 H4781 0.950 . S
C4793 C4789 1.393 . S
C4793 C4792 1.391 . S
C4794 H4784 0.950 . S
C4794 C4795 1.386 . S
C4794 C4796 1.391 . S
C4795 C4794 1.386 . S
C4795 C4799 1.393 . S
C4796 H4785 0.950 . S
C4796 C4794 1.391 . S
C4796 C4797 1.400 . S
C4797 C4791 1.491 . S
C4797 C4796 1.400 . S
C4797 C4798 1.398 . S
C4798 H4786 0.950 . S
C4798 C4797 1.398 . S
C4798 C4799 1.391 . S
C4799 H4787 0.950 . S
C4799 C4795 1.393 . S
C4799 C4798 1.391 . S
H4800 C4808 0.950 . S
H4801 C4813 0.950 . S
H4802 C4810 0.950 . S
H4803 C4812 0.950 . S
H4804 C4814 0.950 . S
H4805 C4816 0.950 . S
H4806 C4818 0.950 . S
H4807 C4819 0.950 . S
C4808 H4800 0.950 . S
C4808 C4809 1.386 . S
C4808 C4810 1.391 . S
C4809 C4808 1.386 . S
C4809 C4813 1.393 . S
C4810 H4802 0.950 . S
C4810 C4808 1.391 . S
C4810 C4811 1.400 . S
C4811 C4810 1.400 . S
C4811 C4812 1.398 . S
C4811 C4817 1.491 . S
C4812 H4803 0.950 . S
C4812 C4811 1.398 . S
C4812 C4813 1.391 . S
C4813 H4801 0.950 . S
C4813 C4809 1.393 . S
C4813 C4812 1.391 . S
C4814 H4804 0.950 . S
C4814 C4815 1.386 . S
C4814 C4816 1.391 . S
C4815 C4814 1.386 . S
C4815 C4819 1.393 . S
C4816 H4805 0.950 . S
C4816 C4814 1.391 . S
C4816 C4817 1.400 . S
C4817 C4811 1.491 . S
C4817 C4816 1.400 . S
C4817 C4818 1.398 . S
C4818 H4806 0.950 . S
C4818 C4817 1.398 . S
C4818 C4819 1.391 . S
C4819 H4807 0.950 . S
C4819 C4815 1.393 . S
C4819 C4818 1.391 . S
H4820 C4828 0.950 . S
H4821 C4833 0.950 . S
H4822 C4830 0.950 . S
H4823 C4832 0.950 . S
H4824 C4834 0.950 . S
H4825 C4836 0.950 . S
H4826 C4838 0.950 . S
H4827 C4839 0.950 . S
C4828 H4820 0.950 . S
C4828 C4829 1.386 . S
C4828 C4830 1.391 . S
C4829 C4828 1.386 . S
C4829 C4833 1.393 . S
C4830 H4822 0.950 . S
C4830 C4828 1.391 . S
C4830 C4831 1.400 . S
C4831 C4830 1.400 . S
C4831 C4832 1.398 . S
C4831 C4837 1.491 . S
C4832 H4823 0.950 . S
C4832 C4831 1.398 . S
C4832 C4833 1.391 . S
C4833 H4821 0.950 . S
C4833 C4829 1.393 . S
C4833 C4832 1.391 . S
C4834 H4824 0.950 . S
C4834 C4835 1.386 . S
C4834 C4836 1.391 . S
C4835 C4834 1.386 . S
C4835 C4839 1.393 . S
C4836 H4825 0.950 . S
C4836 C4834 1.391 . S
C4836 C4837 1.400 . S
C4837 C4831 1.491 . S
C4837 C4836 1.400 . S
C4837 C4838 1.398 . S
C4838 H4826 0.950 . S
C4838 C4837 1.398 . S
C4838 C4839 1.391 . S
C4839 H4827 0.950 . S
C4839 C4835 1.393 . S
C4839 C4838 1.391 . S
H4840 C4848 0.950 1_554 S
H4841 C4853 0.968 . S
H4842 C4850 0.950 . S
H4843 C4852 0.950 . S
H4844 C4854 0.950 . S
H4845 C4856 0.950 . S
H4846 C4858 0.950 . S
H4847 C4859 0.950 . S
C4848 H4840 0.950 1_556 S
C4848 C4849 1.386 1_556 S
C4848 C4850 1.391 . S
C4849 C4848 1.386 1_554 S
C4849 C4853 1.393 1_554 S
C4850 H4842 0.950 . S
C4850 C4848 1.391 . S
C4850 C4851 1.400 . S
C4851 C4850 1.400 . S
C4851 C4852 1.398 . S
C4851 C4857 1.491 . S
C4852 H4843 0.950 . S
C4852 C4851 1.398 . S
C4852 C4853 1.391 . S
C4853 H4841 0.968 . S
C4853 C4849 1.393 1_556 S
C4853 C4852 1.391 . S
C4854 H4844 0.950 . S
C4854 C4855 1.386 . S
C4854 C4856 1.391 . S
C4855 C4854 1.386 . S
C4855 C4859 1.393 . S
C4856 H4845 0.950 . S
C4856 C4854 1.391 . S
C4856 C4857 1.400 . S
C4857 C4851 1.491 . S
C4857 C4856 1.400 . S
C4857 C4858 1.398 . S
C4858 H4846 0.950 . S
C4858 C4857 1.398 . S
C4858 C4859 1.391 . S
C4859 H4847 0.950 . S
C4859 C4855 1.393 . S
C4859 C4858 1.391 . S
H4860 C4868 0.950 . S
H4861 C4873 0.950 . S
H4862 C4870 0.950 . S
H4863 C4872 0.950 . S
H4864 C4874 0.950 . S
H4865 C4876 0.950 . S
H4866 C4878 0.950 . S
H4867 C4879 0.950 . S
C4868 H4860 0.950 . S
C4868 C4869 1.386 . S
C4868 C4870 1.391 . S
C4869 C4868 1.386 . S
C4869 C4873 1.393 . S
C4870 H4862 0.950 . S
C4870 C4868 1.391 . S
C4870 C4871 1.400 . S
C4871 C4870 1.400 . S
C4871 C4872 1.398 . S
C4871 C4877 1.491 . S
C4872 H4863 0.950 . S
C4872 C4871 1.398 . S
C4872 C4873 1.391 . S
C4873 H4861 0.950 . S
C4873 C4869 1.393 . S
C4873 C4872 1.391 . S
C4874 H4864 0.950 . S
C4874 C4875 1.386 . S
C4874 C4876 1.391 . S
C4875 C4874 1.386 . S
C4875 C4879 1.393 . S
C4876 H4865 0.950 . S
C4876 C4874 1.391 . S
C4876 C4877 1.400 . S
C4877 C4871 1.491 . S
C4877 C4876 1.400 . S
C4877 C4878 1.398 . S
C4878 H4866 0.950 . S
C4878 C4877 1.398 . S
C4878 C4879 1.391 . S
C4879 H4867 0.950 . S
C4879 C4875 1.393 . S
C4879 C4878 1.391 . S
H4880 C4888 0.950 . S
H4881 C4893 0.950 . S
H4882 C4890 0.950 . S
H4883 C4892 0.950 . S
H4884 C4894 0.950 1_556 S
H4885 C4896 0.950 . S
H4886 C4898 0.950 . S
H4887 C4899 0.950 . S
C4888 H4880 0.950 . S
C4888 C4889 1.386 . S
C4888 C4890 1.391 . S
C4889 C4888 1.386 . S
C4889 C4893 1.393 . S
C4890 H4882 0.950 . S
C4890 C4888 1.391 . S
C4890 C4891 1.400 . S
C4891 C4890 1.400 . S
C4891 C4892 1.398 . S
C4891 C4897 1.491 . S
C4892 H4883 0.950 . S
C4892 C4891 1.398 . S
C4892 C4893 1.391 . S
C4893 H4881 0.950 . S
C4893 C4889 1.393 . S
C4893 C4892 1.391 . S
C4894 H4884 0.950 1_554 S
C4894 C4895 1.386 . S
C4894 C4896 1.391 . S
C4895 C4894 1.386 . S
C4895 C4899 1.393 . S
C4896 H4885 0.950 . S
C4896 C4894 1.391 . S
C4896 C4897 1.400 . S
C4897 C4891 1.491 . S
C4897 C4896 1.400 . S
C4897 C4898 1.398 . S
C4898 H4886 0.950 . S
C4898 C4897 1.398 . S
C4898 C4899 1.391 . S
C4899 H4887 0.950 . S
C4899 C4895 1.393 . S
C4899 C4898 1.391 . S
H4900 C4908 0.950 . S
H4901 C4913 0.950 . S
H4902 C4910 0.950 . S
H4903 C4912 0.950 . S
H4904 C4914 0.950 . S
H4905 C4916 0.950 . S
H4906 C4918 0.950 . S
H4907 C4919 0.950 . S
C4908 H4900 0.950 . S
C4908 C4909 1.386 . S
C4908 C4910 1.391 . S
C4909 C4908 1.386 . S
C4909 C4913 1.393 . S
C4910 H4902 0.950 . S
C4910 C4908 1.391 . S
C4910 C4911 1.400 . S
C4911 C4910 1.400 . S
C4911 C4912 1.398 . S
C4911 C4917 1.491 . S
C4912 H4903 0.950 . S
C4912 C4911 1.398 . S
C4912 C4913 1.391 . S
C4913 H4901 0.950 . S
C4913 C4909 1.393 . S
C4913 C4912 1.391 . S
C4914 H4904 0.950 . S
C4914 C4915 1.386 . S
C4914 C4916 1.391 . S
C4915 C4914 1.386 . S
C4915 C4919 1.393 . S
C4916 H4905 0.950 . S
C4916 C4914 1.391 . S
C4916 C4917 1.400 . S
C4917 C4911 1.491 . S
C4917 C4916 1.400 . S
C4917 C4918 1.398 . S
C4918 H4906 0.950 . S
C4918 C4917 1.398 . S
C4918 C4919 1.391 . S
C4919 H4907 0.950 . S
C4919 C4915 1.393 . S
C4919 C4918 1.391 . S
H4920 C4928 0.950 . S
H4921 C4933 0.950 . S
H4922 C4930 0.950 . S
H4923 C4932 0.950 . S
H4924 C4934 0.950 . S
H4925 C4936 0.950 . S
H4926 C4938 0.950 . S
H4927 C4939 0.950 . S
C4928 H4920 0.950 . S
C4928 C4929 1.386 . S
C4928 C4930 1.391 . S
C4929 C4928 1.386 . S
C4929 C4933 1.393 . S
C4930 H4922 0.950 . S
C4930 C4928 1.391 . S
C4930 C4931 1.400 . S
C4931 C4930 1.400 . S
C4931 C4932 1.398 . S
C4931 C4937 1.491 . S
C4932 H4923 0.950 . S
C4932 C4931 1.398 . S
C4932 C4933 1.391 . S
C4933 H4921 0.950 . S
C4933 C4929 1.393 . S
C4933 C4932 1.391 . S
C4934 H4924 0.950 . S
C4934 C4935 1.386 . S
C4934 C4936 1.391 . S
C4935 C4934 1.386 . S
C4935 C4939 1.393 . S
C4936 H4925 0.950 . S
C4936 C4934 1.391 . S
C4936 C4937 1.400 . S
C4937 C4931 1.491 . S
C4937 C4936 1.400 . S
C4937 C4938 1.398 . S
C4938 H4926 0.950 . S
C4938 C4937 1.398 . S
C4938 C4939 1.391 . S
C4939 H4927 0.950 . S
C4939 C4935 1.393 . S
C4939 C4938 1.391 . S
H4940 C4948 0.950 . S
H4941 C4953 0.950 . S
H4942 C4950 0.950 . S
H4943 C4952 0.950 . S
H4944 C4954 0.950 . S
H4945 C4956 0.950 . S
H4946 C4958 0.950 . S
H4947 C4959 0.950 . S
C4948 H4940 0.950 . S
C4948 C4949 1.386 . S
C4948 C4950 1.391 . S
C4949 C4948 1.386 . S
C4949 C4953 1.393 . S
C4950 H4942 0.950 . S
C4950 C4948 1.391 . S
C4950 C4951 1.400 . S
C4951 C4950 1.400 . S
C4951 C4952 1.398 . S
C4951 C4957 1.491 . S
C4952 H4943 0.950 . S
C4952 C4951 1.398 . S
C4952 C4953 1.391 . S
C4953 H4941 0.950 . S
C4953 C4949 1.393 . S
C4953 C4952 1.391 . S
C4954 H4944 0.950 . S
C4954 C4955 1.386 . S
C4954 C4956 1.391 . S
C4955 C4954 1.386 . S
C4955 C4959 1.393 . S
C4956 H4945 0.950 . S
C4956 C4954 1.391 . S
C4956 C4957 1.400 . S
C4957 C4951 1.491 . S
C4957 C4956 1.400 . S
C4957 C4958 1.398 . S
C4958 H4946 0.950 . S
C4958 C4957 1.398 . S
C4958 C4959 1.391 . S
C4959 H4947 0.950 . S
C4959 C4955 1.393 . S
C4959 C4958 1.391 . S
H4960 C4968 0.950 . S
H4961 C4973 0.950 . S
H4962 C4970 0.950 . S
H4963 C4972 0.950 . S
H4964 C4974 0.950 . S
H4965 C4976 0.950 . S
H4966 C4978 0.950 . S
H4967 C4979 0.950 . S
C4968 H4960 0.950 . S
C4968 C4969 1.386 . S
C4968 C4970 1.391 . S
C4969 C4968 1.386 . S
C4969 C4973 1.393 . S
C4970 H4962 0.950 . S
C4970 C4968 1.391 . S
C4970 C4971 1.400 . S
C4971 C4970 1.400 . S
C4971 C4972 1.398 . S
C4971 C4977 1.491 . S
C4972 H4963 0.950 . S
C4972 C4971 1.398 . S
C4972 C4973 1.391 . S
C4973 H4961 0.950 . S
C4973 C4969 1.393 . S
C4973 C4972 1.391 . S
C4974 H4964 0.950 . S
C4974 C4975 1.386 . S
C4974 C4976 1.391 . S
C4975 C4974 1.386 . S
C4975 C4979 1.393 . S
C4976 H4965 0.950 . S
C4976 C4974 1.391 . S
C4976 C4977 1.400 . S
C4977 C4971 1.491 . S
C4977 C4976 1.400 . S
C4977 C4978 1.398 . S
C4978 H4966 0.950 . S
C4978 C4977 1.398 . S
C4978 C4979 1.391 . S
C4979 H4967 0.950 . S
C4979 C4975 1.393 . S
C4979 C4978 1.391 . S
H4980 C4988 0.950 . S
H4981 C4993 0.950 . S
H4982 C4990 0.950 . S
H4983 C4992 0.950 . S
H4984 C4994 0.950 . S
H4985 C4996 0.950 . S
H4986 C4998 0.950 . S
H4987 C4999 0.950 . S
C4988 H4980 0.950 . S
C4988 C4989 1.386 . S
C4988 C4990 1.391 . S
C4989 C4988 1.386 . S
C4989 C4993 1.393 . S
C4990 H4982 0.950 . S
C4990 C4988 1.391 . S
C4990 C4991 1.400 . S
C4991 C4990 1.400 . S
C4991 C4992 1.398 . S
C4991 C4997 1.491 . S
C4992 H4983 0.950 . S
C4992 C4991 1.398 . S
C4992 C4993 1.391 . S
C4993 H4981 0.950 . S
C4993 C4989 1.393 . S
C4993 C4992 1.391 . S
C4994 H4984 0.950 . S
C4994 C4995 1.386 . S
C4994 C4996 1.391 . S
C4995 C4994 1.386 . S
C4995 C4999 1.393 . S
C4996 H4985 0.950 . S
C4996 C4994 1.391 . S
C4996 C4997 1.400 . S
C4997 C4991 1.491 . S
C4997 C4996 1.400 . S
C4997 C4998 1.398 . S
C4998 H4986 0.950 . S
C4998 C4997 1.398 . S
C4998 C4999 1.391 . S
C4999 H4987 0.950 . S
C4999 C4995 1.393 . S
C4999 C4998 1.391 . S
H5000 C5008 0.950 . S
H5001 C5013 0.950 . S
H5002 C5010 0.950 . S
H5003 C5012 0.950 . S
H5004 C5014 0.950 . S
H5005 C5016 0.950 . S
H5006 C5018 0.950 . S
H5007 C5019 0.950 . S
C5008 H5000 0.950 . S
C5008 C5009 1.386 . S
C5008 C5010 1.391 . S
C5009 C5008 1.386 . S
C5009 C5013 1.393 . S
C5010 H5002 0.950 . S
C5010 C5008 1.391 . S
C5010 C5011 1.400 . S
C5011 C5010 1.400 . S
C5011 C5012 1.398 . S
C5011 C5017 1.491 . S
C5012 H5003 0.950 . S
C5012 C5011 1.398 . S
C5012 C5013 1.391 . S
C5013 H5001 0.950 . S
C5013 C5009 1.393 . S
C5013 C5012 1.391 . S
C5014 H5004 0.950 . S
C5014 C5015 1.386 . S
C5014 C5016 1.391 . S
C5015 C5014 1.386 . S
C5015 C5019 1.393 . S
C5016 H5005 0.950 . S
C5016 C5014 1.391 . S
C5016 C5017 1.400 . S
C5017 C5011 1.491 . S
C5017 C5016 1.400 . S
C5017 C5018 1.398 . S
C5018 H5006 0.950 . S
C5018 C5017 1.398 . S
C5018 C5019 1.391 . S
C5019 H5007 0.950 . S
C5019 C5015 1.393 . S
C5019 C5018 1.391 . S
H5020 C5028 0.950 . S
H5021 C5033 0.950 . S
H5022 C5030 0.950 . S
H5023 C5032 0.950 . S
H5024 C5034 0.950 . S
H5025 C5036 0.950 . S
H5026 C5038 0.950 . S
H5027 C5039 0.950 . S
C5028 H5020 0.950 . S
C5028 C5029 1.386 . S
C5028 C5030 1.391 . S
C5029 C5028 1.386 . S
C5029 C5033 1.393 . S
C5030 H5022 0.950 . S
C5030 C5028 1.391 . S
C5030 C5031 1.400 . S
C5031 C5030 1.400 . S
C5031 C5032 1.398 . S
C5031 C5037 1.491 . S
C5032 H5023 0.950 . S
C5032 C5031 1.398 . S
C5032 C5033 1.391 . S
C5033 H5021 0.950 . S
C5033 C5029 1.393 . S
C5033 C5032 1.391 . S
C5034 H5024 0.950 . S
C5034 C5035 1.386 . S
C5034 C5036 1.391 . S
C5035 C5034 1.386 . S
C5035 C5039 1.393 . S
C5036 H5025 0.950 . S
C5036 C5034 1.391 . S
C5036 C5037 1.400 . S
C5037 C5031 1.491 . S
C5037 C5036 1.400 . S
C5037 C5038 1.398 . S
C5038 H5026 0.950 . S
C5038 C5037 1.398 . S
C5038 C5039 1.391 . S
C5039 H5027 0.950 . S
C5039 C5035 1.393 . S
C5039 C5038 1.391 . S
H5040 C5048 0.950 . S
H5041 C5053 0.950 . S
H5042 C5050 0.950 . S
H5043 C5052 0.950 . S
H5044 C5054 0.950 . S
H5045 C5056 0.950 . S
H5046 C5058 0.950 . S
H5047 C5059 0.950 . S
C5048 H5040 0.950 . S
C5048 C5049 1.386 . S
C5048 C5050 1.391 . S
C5049 C5048 1.386 . S
C5049 C5053 1.393 . S
C5050 H5042 0.950 . S
C5050 C5048 1.391 . S
C5050 C5051 1.400 . S
C5051 C5050 1.400 . S
C5051 C5052 1.398 . S
C5051 C5057 1.491 . S
C5052 H5043 0.950 . S
C5052 C5051 1.398 . S
C5052 C5053 1.391 . S
C5053 H5041 0.950 . S
C5053 C5049 1.393 . S
C5053 C5052 1.391 . S
C5054 H5044 0.950 . S
C5054 C5055 1.386 . S
C5054 C5056 1.391 . S
C5055 C5054 1.386 . S
C5055 C5059 1.393 . S
C5056 H5045 0.950 . S
C5056 C5054 1.391 . S
C5056 C5057 1.400 . S
C5057 C5051 1.491 . S
C5057 C5056 1.400 . S
C5057 C5058 1.398 . S
C5058 H5046 0.950 . S
C5058 C5057 1.398 . S
C5058 C5059 1.391 . S
C5059 H5047 0.950 . S
C5059 C5055 1.393 . S
C5059 C5058 1.391 . S
H5060 C5068 0.950 . S
H5061 C5073 0.950 . S
H5062 C5070 0.950 . S
H5063 C5072 0.950 . S
H5064 C5074 0.950 . S
H5065 C5076 0.950 . S
H5066 C5078 0.950 . S
H5067 C5079 0.950 . S
C5068 H5060 0.950 . S
C5068 C5069 1.386 . S
C5068 C5070 1.391 . S
C5069 C5068 1.386 . S
C5069 C5073 1.393 . S
C5070 H5062 0.950 . S
C5070 C5068 1.391 . S
C5070 C5071 1.400 . S
C5071 C5070 1.400 . S
C5071 C5072 1.398 . S
C5071 C5077 1.491 . S
C5072 H5063 0.950 . S
C5072 C5071 1.398 . S
C5072 C5073 1.391 . S
C5073 H5061 0.950 . S
C5073 C5069 1.393 . S
C5073 C5072 1.391 . S
C5074 H5064 0.950 . S
C5074 C5075 1.386 . S
C5074 C5076 1.391 . S
C5075 C5074 1.386 . S
C5075 C5079 1.393 . S
C5076 H5065 0.950 . S
C5076 C5074 1.391 . S
C5076 C5077 1.400 . S
C5077 C5071 1.491 . S
C5077 C5076 1.400 . S
C5077 C5078 1.398 . S
C5078 H5066 0.950 . S
C5078 C5077 1.398 . S
C5078 C5079 1.391 . S
C5079 H5067 0.950 . S
C5079 C5075 1.393 . S
C5079 C5078 1.391 . S
H5080 C5088 0.950 . S
H5081 C5093 0.950 . S
H5082 C5090 0.950 . S
H5083 C5092 0.950 . S
H5084 C5094 0.950 . S
H5085 C5096 0.950 . S
H5086 C5098 0.950 . S
H5087 C5099 0.950 . S
C5088 H5080 0.950 . S
C5088 C5089 1.386 . S
C5088 C5090 1.391 . S
C5089 C5088 1.386 . S
C5089 C5093 1.393 . S
C5090 H5082 0.950 . S
C5090 C5088 1.391 . S
C5090 C5091 1.400 . S
C5091 C5090 1.400 . S
C5091 C5092 1.398 . S
C5091 C5097 1.491 . S
C5092 H5083 0.950 . S
C5092 C5091 1.398 . S
C5092 C5093 1.391 . S
C5093 H5081 0.950 . S
C5093 C5089 1.393 . S
C5093 C5092 1.391 . S
C5094 H5084 0.950 . S
C5094 C5095 1.386 . S
C5094 C5096 1.391 . S
C5095 C5094 1.386 . S
C5095 C5099 1.393 . S
C5096 H5085 0.950 . S
C5096 C5094 1.391 . S
C5096 C5097 1.400 . S
C5097 C5091 1.491 . S
C5097 C5096 1.400 . S
C5097 C5098 1.398 . S
C5098 H5086 0.950 . S
C5098 C5097 1.398 . S
C5098 C5099 1.391 . S
C5099 H5087 0.950 . S
C5099 C5095 1.393 . S
C5099 C5098 1.391 . S
H5100 C5108 0.950 . S
H5101 C5113 0.950 . S
H5102 C5110 0.950 . S
H5103 C5112 0.950 . S
H5104 C5114 0.950 . S
H5105 C5116 0.950 . S
H5106 C5118 0.950 . S
H5107 C5119 0.950 . S
C5108 H5100 0.950 . S
C5108 C5109 1.386 . S
C5108 C5110 1.391 . S
C5109 C5108 1.386 . S
C5109 C5113 1.393 . S
C5110 H5102 0.950 . S
C5110 C5108 1.391 . S
C5110 C5111 1.400 . S
C5111 C5110 1.400 . S
C5111 C5112 1.398 . S
C5111 C5117 1.491 . S
C5112 H5103 0.950 . S
C5112 C5111 1.398 . S
C5112 C5113 1.391 . S
C5113 H5101 0.950 . S
C5113 C5109 1.393 . S
C5113 C5112 1.391 . S
C5114 H5104 0.950 . S
C5114 C5115 1.386 . S
C5114 C5116 1.391 . S
C5115 C5114 1.386 . S
C5115 C5119 1.393 . S
C5116 H5105 0.950 . S
C5116 C5114 1.391 . S
C5116 C5117 1.400 . S
C5117 C5111 1.491 . S
C5117 C5116 1.400 . S
C5117 C5118 1.398 . S
C5118 H5106 0.950 . S
C5118 C5117 1.398 . S
C5118 C5119 1.391 . S
C5119 H5107 0.950 . S
C5119 C5115 1.393 . S
C5119 C5118 1.391 . S
H5120 C5128 0.950 . S
H5121 C5133 0.950 . S
H5122 C5130 0.950 . S
H5123 C5132 0.950 . S
H5124 C5134 0.950 . S
H5125 C5136 0.950 . S
H5126 C5138 0.950 . S
H5127 C5139 0.950 . S
C5128 H5120 0.950 . S
C5128 C5129 1.386 . S
C5128 C5130 1.391 . S
C5129 C5128 1.386 . S
C5129 C5133 1.393 . S
C5130 H5122 0.950 . S
C5130 C5128 1.391 . S
C5130 C5131 1.400 . S
C5131 C5130 1.400 . S
C5131 C5132 1.398 . S
C5131 C5137 1.491 . S
C5132 H5123 0.950 . S
C5132 C5131 1.398 . S
C5132 C5133 1.391 . S
C5133 H5121 0.950 . S
C5133 C5129 1.393 . S
C5133 C5132 1.391 . S
C5134 H5124 0.950 . S
C5134 C5135 1.386 . S
C5134 C5136 1.391 . S
C5135 C5134 1.386 . S
C5135 C5139 1.393 . S
C5136 H5125 0.950 . S
C5136 C5134 1.391 . S
C5136 C5137 1.400 . S
C5137 C5131 1.491 . S
C5137 C5136 1.400 . S
C5137 C5138 1.398 . S
C5138 H5126 0.950 . S
C5138 C5137 1.398 . S
C5138 C5139 1.391 . S
C5139 H5127 0.950 . S
C5139 C5135 1.393 . S
C5139 C5138 1.391 . S
H5140 C5148 0.950 . S
H5141 C5153 0.950 . S
H5142 C5150 0.950 . S
H5143 C5152 0.950 . S
H5144 C5154 0.950 . S
H5145 C5156 0.950 . S
H5146 C5158 0.950 . S
H5147 C5159 0.950 . S
C5148 H5140 0.950 . S
C5148 C5149 1.386 . S
C5148 C5150 1.391 1_565 S
C5149 C5148 1.386 . S
C5149 C5153 1.393 1_565 S
C5150 H5142 0.950 . S
C5150 C5148 1.391 1_545 S
C5150 C5151 1.400 . S
C5151 C5150 1.400 . S
C5151 C5152 1.398 . S
C5151 C5157 1.491 . S
C5152 H5143 0.950 . S
C5152 C5151 1.398 . S
C5152 C5153 1.391 . S
C5153 H5141 0.950 . S
C5153 C5149 1.393 1_545 S
C5153 C5152 1.391 . S
C5154 H5144 0.950 . S
C5154 C5155 1.386 . S
C5154 C5156 1.391 . S
C5155 C5154 1.386 . S
C5155 C5159 1.393 . S
C5156 H5145 0.950 . S
C5156 C5154 1.391 . S
C5156 C5157 1.400 . S
C5157 C5151 1.491 . S
C5157 C5156 1.400 . S
C5157 C5158 1.398 . S
C5158 H5146 0.950 . S
C5158 C5157 1.398 . S
C5158 C5159 1.391 . S
C5159 H5147 0.950 . S
C5159 C5155 1.393 . S
C5159 C5158 1.391 . S
H5160 C5168 0.950 . S
H5161 C5173 0.950 . S
H5162 C5170 0.950 . S
H5163 C5172 0.950 . S
H5164 C5174 0.950 . S
H5165 C5176 0.950 . S
H5166 C5178 0.950 . S
H5167 C5179 0.950 . S
C5168 H5160 0.950 . S
C5168 C5169 1.386 . S
C5168 C5170 1.391 . S
C5169 C5168 1.386 . S
C5169 C5173 1.393 . S
C5170 H5162 0.950 . S
C5170 C5168 1.391 . S
C5170 C5171 1.400 . S
C5171 C5170 1.400 . S
C5171 C5172 1.398 . S
C5171 C5177 1.491 . S
C5172 H5163 0.950 . S
C5172 C5171 1.398 . S
C5172 C5173 1.391 . S
C5173 H5161 0.950 . S
C5173 C5169 1.393 . S
C5173 C5172 1.391 . S
C5174 H5164 0.950 . S
C5174 C5175 1.386 . S
C5174 C5176 1.391 . S
C5175 C5174 1.386 . S
C5175 C5179 1.393 . S
C5176 H5165 0.950 . S
C5176 C5174 1.391 . S
C5176 C5177 1.400 . S
C5177 C5171 1.491 . S
C5177 C5176 1.400 . S
C5177 C5178 1.398 . S
C5178 H5166 0.950 . S
C5178 C5177 1.398 . S
C5178 C5179 1.391 . S
C5179 H5167 0.950 . S
C5179 C5175 1.393 . S
C5179 C5178 1.391 . S
H5180 C5188 0.950 . S
H5181 C5193 0.950 . S
H5182 C5190 0.950 . S
H5183 C5192 0.950 . S
H5184 C5194 0.950 . S
H5185 C5196 0.950 . S
H5186 C5198 0.950 . S
H5187 C5199 0.950 . S
C5188 H5180 0.950 . S
C5188 C5189 1.386 . S
C5188 C5190 1.391 . S
C5189 C5188 1.386 . S
C5189 C5193 1.393 . S
C5190 H5182 0.950 . S
C5190 C5188 1.391 . S
C5190 C5191 1.400 . S
C5191 C5190 1.400 . S
C5191 C5192 1.398 . S
C5191 C5197 1.491 . S
C5192 H5183 0.950 . S
C5192 C5191 1.398 . S
C5192 C5193 1.391 . S
C5193 H5181 0.950 . S
C5193 C5189 1.393 . S
C5193 C5192 1.391 . S
C5194 H5184 0.950 . S
C5194 C5195 1.386 . S
C5194 C5196 1.391 . S
C5195 C5194 1.386 . S
C5195 C5199 1.393 . S
C5196 H5185 0.950 . S
C5196 C5194 1.391 . S
C5196 C5197 1.400 . S
C5197 C5191 1.491 . S
C5197 C5196 1.400 . S
C5197 C5198 1.398 . S
C5198 H5186 0.950 . S
C5198 C5197 1.398 . S
C5198 C5199 1.391 . S
C5199 H5187 0.950 . S
C5199 C5195 1.393 . S
C5199 C5198 1.391 . S
H5200 C5208 0.950 . S
H5201 C5213 0.950 . S
H5202 C5210 0.950 . S
H5203 C5212 0.950 . S
H5204 C5214 0.950 . S
H5205 C5216 0.950 . S
H5206 C5218 0.950 . S
H5207 C5219 0.950 . S
C5208 H5200 0.950 . S
C5208 C5209 1.386 . S
C5208 C5210 1.391 . S
C5209 C5208 1.386 . S
C5209 C5213 1.393 . S
C5210 H5202 0.950 . S
C5210 C5208 1.391 . S
C5210 C5211 1.400 . S
C5211 C5210 1.400 . S
C5211 C5212 1.398 . S
C5211 C5217 1.491 . S
C5212 H5203 0.950 . S
C5212 C5211 1.398 . S
C5212 C5213 1.391 . S
C5213 H5201 0.950 . S
C5213 C5209 1.393 . S
C5213 C5212 1.391 . S
C5214 H5204 0.950 . S
C5214 C5215 1.386 . S
C5214 C5216 1.391 . S
C5215 C5214 1.386 . S
C5215 C5219 1.393 . S
C5216 H5205 0.950 . S
C5216 C5214 1.391 . S
C5216 C5217 1.400 . S
C5217 C5211 1.491 . S
C5217 C5216 1.400 . S
C5217 C5218 1.398 . S
C5218 H5206 0.950 . S
C5218 C5217 1.398 . S
C5218 C5219 1.391 . S
C5219 H5207 0.950 . S
C5219 C5215 1.393 . S
C5219 C5218 1.391 . S
H5220 C5228 0.950 . S
H5221 C5233 0.950 . S
H5222 C5230 0.950 . S
H5223 C5232 0.950 . S
H5224 C5234 0.950 . S
H5225 C5236 0.950 . S
H5226 C5238 0.950 . S
H5227 C5239 0.950 . S
C5228 H5220 0.950 . S
C5228 C5229 1.386 . S
C5228 C5230 1.391 . S
C5229 C5228 1.386 . S
C5229 C5233 1.393 . S
C5230 H5222 0.950 . S
C5230 C5228 1.391 . S
C5230 C5231 1.400 . S
C5231 C5230 1.400 . S
C5231 C5232 1.398 . S
C5231 C5237 1.491 . S
C5232 H5223 0.950 . S
C5232 C5231 1.398 . S
C5232 C5233 1.391 . S
C5233 H5221 0.950 . S
C5233 C5229 1.393 . S
C5233 C5232 1.391 . S
C5234 H5224 0.950 . S
C5234 C5235 1.386 . S
C5234 C5236 1.391 . S
C5235 C5234 1.386 . S
C5235 C5239 1.393 . S
C5236 H5225 0.950 . S
C5236 C5234 1.391 . S
C5236 C5237 1.400 . S
C5237 C5231 1.491 . S
C5237 C5236 1.400 . S
C5237 C5238 1.398 . S
C5238 H5226 0.950 . S
C5238 C5237 1.398 . S
C5238 C5239 1.391 . S
C5239 H5227 0.950 . S
C5239 C5235 1.393 . S
C5239 C5238 1.391 . S
H5240 C5248 0.950 . S
H5241 C5253 0.950 . S
H5242 C5250 0.950 . S
H5243 C5252 0.950 . S
H5244 C5254 0.950 . S
H5245 C5256 0.950 . S
H5246 C5258 0.950 . S
H5247 C5259 0.950 . S
C5248 H5240 0.950 . S
C5248 C5249 1.386 . S
C5248 C5250 1.391 . S
C5249 C5248 1.386 . S
C5249 C5253 1.393 . S
C5250 H5242 0.950 . S
C5250 C5248 1.391 . S
C5250 C5251 1.400 . S
C5251 C5250 1.400 . S
C5251 C5252 1.398 . S
C5251 C5257 1.491 . S
C5252 H5243 0.950 . S
C5252 C5251 1.398 . S
C5252 C5253 1.391 . S
C5253 H5241 0.950 . S
C5253 C5249 1.393 . S
C5253 C5252 1.391 . S
C5254 H5244 0.950 . S
C5254 C5255 1.386 . S
C5254 C5256 1.391 . S
C5255 C5254 1.386 . S
C5255 C5259 1.393 . S
C5256 H5245 0.950 . S
C5256 C5254 1.391 . S
C5256 C5257 1.400 . S
C5257 C5251 1.491 . S
C5257 C5256 1.400 . S
C5257 C5258 1.398 . S
C5258 H5246 0.950 . S
C5258 C5257 1.398 . S
C5258 C5259 1.391 . S
C5259 H5247 0.950 . S
C5259 C5255 1.393 . S
C5259 C5258 1.391 . S
H5260 C5268 0.950 . S
H5261 C5273 0.950 . S
H5262 C5270 0.950 . S
H5263 C5272 0.950 . S
H5264 C5274 0.950 . S
H5265 C5276 0.950 . S
H5266 C5278 0.950 . S
H5267 C5279 0.950 . S
C5268 H5260 0.950 . S
C5268 C5269 1.386 . S
C5268 C5270 1.391 . S
C5269 C5268 1.386 . S
C5269 C5273 1.393 . S
C5270 H5262 0.950 . S
C5270 C5268 1.391 . S
C5270 C5271 1.400 . S
C5271 C5270 1.400 . S
C5271 C5272 1.398 . S
C5271 C5277 1.491 . S
C5272 H5263 0.950 . S
C5272 C5271 1.398 . S
C5272 C5273 1.391 . S
C5273 H5261 0.950 . S
C5273 C5269 1.393 . S
C5273 C5272 1.391 . S
C5274 H5264 0.950 . S
C5274 C5275 1.386 . S
C5274 C5276 1.391 . S
C5275 C5274 1.386 . S
C5275 C5279 1.393 . S
C5276 H5265 0.950 . S
C5276 C5274 1.391 . S
C5276 C5277 1.400 . S
C5277 C5271 1.491 . S
C5277 C5276 1.400 . S
C5277 C5278 1.398 . S
C5278 H5266 0.950 . S
C5278 C5277 1.398 . S
C5278 C5279 1.391 . S
C5279 H5267 0.950 . S
C5279 C5275 1.393 . S
C5279 C5278 1.391 . S
H5280 C5288 0.950 . S
H5281 C5293 0.950 . S
H5282 C5290 0.950 . S
H5283 C5292 0.950 . S
H5284 C5294 0.950 . S
H5285 C5296 0.950 . S
H5286 C5298 0.950 . S
H5287 C5299 0.950 . S
C5288 H5280 0.950 . S
C5288 C5289 1.386 . S
C5288 C5290 1.391 . S
C5289 C5288 1.386 . S
C5289 C5293 1.393 . S
C5290 H5282 0.950 . S
C5290 C5288 1.391 . S
C5290 C5291 1.400 . S
C5291 C5290 1.400 . S
C5291 C5292 1.398 . S
C5291 C5297 1.491 . S
C5292 H5283 0.950 . S
C5292 C5291 1.398 . S
C5292 C5293 1.391 . S
C5293 H5281 0.950 . S
C5293 C5289 1.393 . S
C5293 C5292 1.391 . S
C5294 H5284 0.950 . S
C5294 C5295 1.386 . S
C5294 C5296 1.391 . S
C5295 C5294 1.386 . S
C5295 C5299 1.393 . S
C5296 H5285 0.950 . S
C5296 C5294 1.391 . S
C5296 C5297 1.400 . S
C5297 C5291 1.491 . S
C5297 C5296 1.400 . S
C5297 C5298 1.398 . S
C5298 H5286 0.950 . S
C5298 C5297 1.398 . S
C5298 C5299 1.391 . S
C5299 H5287 0.950 . S
C5299 C5295 1.393 . S
C5299 C5298 1.391 . S
H5300 C5308 0.950 . S
H5301 C5313 0.950 . S
H5302 C5310 0.950 . S
H5303 C5312 0.950 . S
H5304 C5314 0.950 . S
H5305 C5316 0.950 . S
H5306 C5318 0.950 . S
H5307 C5319 0.950 . S
C5308 H5300 0.950 . S
C5308 C5309 1.386 . S
C5308 C5310 1.391 . S
C5309 C5308 1.386 . S
C5309 C5313 1.393 . S
C5310 H5302 0.950 . S
C5310 C5308 1.391 . S
C5310 C5311 1.400 . S
C5311 C5310 1.400 . S
C5311 C5312 1.398 . S
C5311 C5317 1.491 . S
C5312 H5303 0.950 . S
C5312 C5311 1.398 . S
C5312 C5313 1.391 . S
C5313 H5301 0.950 . S
C5313 C5309 1.393 . S
C5313 C5312 1.391 . S
C5314 H5304 0.950 . S
C5314 C5315 1.386 . S
C5314 C5316 1.391 . S
C5315 C5314 1.386 . S
C5315 C5319 1.393 . S
C5316 H5305 0.950 . S
C5316 C5314 1.391 . S
C5316 C5317 1.400 . S
C5317 C5311 1.491 . S
C5317 C5316 1.400 . S
C5317 C5318 1.398 . S
C5318 H5306 0.950 . S
C5318 C5317 1.398 . S
C5318 C5319 1.391 . S
C5319 H5307 0.950 . S
C5319 C5315 1.393 . S
C5319 C5318 1.391 . S
H5320 C5328 0.950 . S
H5321 C5333 0.950 . S
H5322 C5330 0.950 . S
H5323 C5332 0.950 . S
H5324 C5334 0.950 . S
H5325 C5336 0.950 . S
H5326 C5338 0.950 . S
H5327 C5339 0.950 . S
C5328 H5320 0.950 . S
C5328 C5329 1.386 . S
C5328 C5330 1.391 1_556 S
C5329 C5328 1.386 . S
C5329 C5333 1.393 1_556 S
C5330 H5322 0.950 . S
C5330 C5328 1.391 1_554 S
C5330 C5331 1.400 . S
C5331 C5330 1.400 . S
C5331 C5332 1.398 . S
C5331 C5337 1.491 . S
C5332 H5323 0.950 . S
C5332 C5331 1.398 . S
C5332 C5333 1.391 . S
C5333 H5321 0.950 . S
C5333 C5329 1.393 1_554 S
C5333 C5332 1.391 . S
C5334 H5324 0.950 . S
C5334 C5335 1.386 . S
C5334 C5336 1.391 . S
C5335 C5334 1.386 . S
C5335 C5339 1.393 . S
C5336 H5325 0.950 . S
C5336 C5334 1.391 . S
C5336 C5337 1.400 . S
C5337 C5331 1.491 . S
C5337 C5336 1.400 . S
C5337 C5338 1.398 . S
C5338 H5326 0.950 . S
C5338 C5337 1.398 . S
C5338 C5339 1.391 . S
C5339 H5327 0.950 . S
C5339 C5335 1.393 . S
C5339 C5338 1.391 . S
H5340 C5348 0.950 . S
H5341 C5353 0.950 . S
H5342 C5350 0.950 . S
H5343 C5352 0.950 . S
H5344 C5354 0.950 . S
H5345 C5356 0.950 . S
H5346 C5358 0.950 . S
H5347 C5359 0.950 . S
C5348 H5340 0.950 . S
C5348 C5349 1.386 . S
C5348 C5350 1.391 . S
C5349 C5348 1.386 . S
C5349 C5353 1.393 . S
C5350 H5342 0.950 . S
C5350 C5348 1.391 . S
C5350 C5351 1.400 . S
C5351 C5350 1.400 . S
C5351 C5352 1.398 . S
C5351 C5357 1.491 . S
C5352 H5343 0.950 . S
C5352 C5351 1.398 . S
C5352 C5353 1.391 . S
C5353 H5341 0.950 . S
C5353 C5349 1.393 . S
C5353 C5352 1.391 . S
C5354 H5344 0.950 . S
C5354 C5355 1.386 . S
C5354 C5356 1.391 . S
C5355 C5354 1.386 . S
C5355 C5359 1.393 . S
C5356 H5345 0.950 . S
C5356 C5354 1.391 . S
C5356 C5357 1.400 . S
C5357 C5351 1.491 . S
C5357 C5356 1.400 . S
C5357 C5358 1.398 . S
C5358 H5346 0.950 . S
C5358 C5357 1.398 . S
C5358 C5359 1.391 . S
C5359 H5347 0.950 . S
C5359 C5355 1.393 . S
C5359 C5358 1.391 . S
H5360 C5368 0.950 . S
H5361 C5373 0.950 . S
H5362 C5370 0.950 . S
H5363 C5372 0.950 . S
H5364 C5374 0.950 . S
H5365 C5376 0.950 . S
H5366 C5378 0.950 . S
H5367 C5379 0.950 1_554 S
C5368 H5360 0.950 . S
C5368 C5369 1.386 . S
C5368 C5370 1.391 . S
C5369 C5368 1.386 . S
C5369 C5373 1.393 . S
C5370 H5362 0.950 . S
C5370 C5368 1.391 . S
C5370 C5371 1.400 . S
C5371 C5370 1.400 . S
C5371 C5372 1.398 . S
C5371 C5377 1.491 . S
C5372 H5363 0.950 . S
C5372 C5371 1.398 . S
C5372 C5373 1.391 . S
C5373 H5361 0.950 . S
C5373 C5369 1.393 . S
C5373 C5372 1.391 . S
C5374 H5364 0.950 . S
C5374 C5375 1.386 . S
C5374 C5376 1.391 . S
C5375 C5374 1.386 . S
C5375 C5379 1.393 . S
C5376 H5365 0.950 . S
C5376 C5374 1.391 . S
C5376 C5377 1.400 . S
C5377 C5371 1.491 . S
C5377 C5376 1.400 . S
C5377 C5378 1.398 . S
C5378 H5366 0.950 . S
C5378 C5377 1.398 . S
C5378 C5379 1.391 . S
C5379 H5367 0.950 1_556 S
C5379 C5375 1.393 . S
C5379 C5378 1.391 . S
H5380 C5388 0.950 . S
H5381 C5393 0.950 . S
H5382 C5390 0.950 . S
H5383 C5392 0.950 . S
H5384 C5394 0.950 . S
H5385 C5396 0.950 . S
H5386 C5398 0.950 . S
H5387 C5399 0.950 . S
C5388 H5380 0.950 . S
C5388 C5389 1.386 . S
C5388 C5390 1.391 . S
C5389 C5388 1.386 . S
C5389 C5393 1.393 . S
C5390 H5382 0.950 . S
C5390 C5388 1.391 . S
C5390 C5391 1.400 . S
C5391 C5390 1.400 . S
C5391 C5392 1.398 . S
C5391 C5397 1.491 . S
C5392 H5383 0.950 . S
C5392 C5391 1.398 . S
C5392 C5393 1.391 . S
C5393 H5381 0.950 . S
C5393 C5389 1.393 . S
C5393 C5392 1.391 . S
C5394 H5384 0.950 . S
C5394 C5395 1.386 . S
C5394 C5396 1.391 . S
C5395 C5394 1.386 . S
C5395 C5399 1.393 . S
C5396 H5385 0.950 . S
C5396 C5394 1.391 . S
C5396 C5397 1.400 . S
C5397 C5391 1.491 . S
C5397 C5396 1.400 . S
C5397 C5398 1.398 . S
C5398 H5386 0.950 . S
C5398 C5397 1.398 . S
C5398 C5399 1.391 . S
C5399 H5387 0.950 . S
C5399 C5395 1.393 . S
C5399 C5398 1.391 . S
H5400 C5408 0.950 . S
H5401 C5413 0.950 . S
H5402 C5410 0.950 . S
H5403 C5412 0.950 . S
H5404 C5414 0.950 . S
H5405 C5416 0.950 . S
H5406 C5418 0.950 . S
H5407 C5419 0.950 . S
C5408 H5400 0.950 . S
C5408 C5409 1.386 . S
C5408 C5410 1.391 . S
C5409 C5408 1.386 . S
C5409 C5413 1.393 . S
C5410 H5402 0.950 . S
C5410 C5408 1.391 . S
C5410 C5411 1.400 . S
C5411 C5410 1.400 . S
C5411 C5412 1.398 . S
C5411 C5417 1.491 . S
C5412 H5403 0.950 . S
C5412 C5411 1.398 . S
C5412 C5413 1.391 . S
C5413 H5401 0.950 . S
C5413 C5409 1.393 . S
C5413 C5412 1.391 . S
C5414 H5404 0.950 . S
C5414 C5415 1.386 . S
C5414 C5416 1.391 . S
C5415 C5414 1.386 . S
C5415 C5419 1.393 . S
C5416 H5405 0.950 . S
C5416 C5414 1.391 . S
C5416 C5417 1.400 . S
C5417 C5411 1.491 . S
C5417 C5416 1.400 . S
C5417 C5418 1.398 . S
C5418 H5406 0.950 . S
C5418 C5417 1.398 . S
C5418 C5419 1.391 . S
C5419 H5407 0.950 . S
C5419 C5415 1.393 . S
C5419 C5418 1.391 . S
H5420 C5428 0.950 . S
H5421 C5433 0.950 . S
H5422 C5430 0.950 . S
H5423 C5432 0.950 . S
H5424 C5434 0.950 . S
H5425 C5436 0.950 . S
H5426 C5438 0.950 . S
H5427 C5439 0.950 . S
C5428 H5420 0.950 . S
C5428 C5429 1.386 . S
C5428 C5430 1.391 . S
C5429 C5428 1.386 . S
C5429 C5433 1.393 . S
C5430 H5422 0.950 . S
C5430 C5428 1.391 . S
C5430 C5431 1.400 . S
C5431 C5430 1.400 . S
C5431 C5432 1.398 . S
C5431 C5437 1.491 . S
C5432 H5423 0.950 . S
C5432 C5431 1.398 . S
C5432 C5433 1.391 . S
C5433 H5421 0.950 . S
C5433 C5429 1.393 . S
C5433 C5432 1.391 . S
C5434 H5424 0.950 . S
C5434 C5435 1.386 . S
C5434 C5436 1.391 . S
C5435 C5434 1.386 . S
C5435 C5439 1.393 . S
C5436 H5425 0.950 . S
C5436 C5434 1.391 . S
C5436 C5437 1.400 . S
C5437 C5431 1.491 . S
C5437 C5436 1.400 . S
C5437 C5438 1.398 . S
C5438 H5426 0.950 . S
C5438 C5437 1.398 . S
C5438 C5439 1.391 . S
C5439 H5427 0.950 . S
C5439 C5435 1.393 . S
C5439 C5438 1.391 . S
H5440 C5448 0.950 . S
H5441 C5453 0.950 . S
H5442 C5450 0.950 . S
H5443 C5452 0.950 . S
H5444 C5454 0.950 . S
H5445 C5456 0.950 . S
H5446 C5458 0.950 . S
H5447 C5459 0.950 . S
C5448 H5440 0.950 . S
C5448 C5449 1.386 . S
C5448 C5450 1.391 . S
C5449 C5448 1.386 . S
C5449 C5453 1.393 . S
C5450 H5442 0.950 . S
C5450 C5448 1.391 . S
C5450 C5451 1.400 . S
C5451 C5450 1.400 . S
C5451 C5452 1.398 . S
C5451 C5457 1.491 . S
C5452 H5443 0.950 . S
C5452 C5451 1.398 . S
C5452 C5453 1.391 . S
C5453 H5441 0.950 . S
C5453 C5449 1.393 . S
C5453 C5452 1.391 . S
C5454 H5444 0.950 . S
C5454 C5455 1.386 . S
C5454 C5456 1.391 . S
C5455 C5454 1.386 . S
C5455 C5459 1.393 . S
C5456 H5445 0.950 . S
C5456 C5454 1.391 . S
C5456 C5457 1.400 . S
C5457 C5451 1.491 . S
C5457 C5456 1.400 . S
C5457 C5458 1.398 . S
C5458 H5446 0.950 . S
C5458 C5457 1.398 . S
C5458 C5459 1.391 . S
C5459 H5447 0.950 . S
C5459 C5455 1.393 . S
C5459 C5458 1.391 . S
H5460 C5468 0.950 . S
H5461 C5473 0.950 . S
H5462 C5470 0.950 . S
H5463 C5472 0.950 . S
H5464 C5474 0.950 . S
H5465 C5476 0.950 . S
H5466 C5478 0.950 . S
H5467 C5479 0.950 . S
C5468 H5460 0.950 . S
C5468 C5469 1.386 . S
C5468 C5470 1.391 . S
C5469 C5468 1.386 . S
C5469 C5473 1.393 . S
C5470 H5462 0.950 . S
C5470 C5468 1.391 . S
C5470 C5471 1.400 . S
C5471 C5470 1.400 . S
C5471 C5472 1.398 . S
C5471 C5477 1.491 . S
C5472 H5463 0.950 . S
C5472 C5471 1.398 . S
C5472 C5473 1.391 . S
C5473 H5461 0.950 . S
C5473 C5469 1.393 . S
C5473 C5472 1.391 . S
C5474 H5464 0.950 . S
C5474 C5475 1.386 . S
C5474 C5476 1.391 . S
C5475 C5474 1.386 . S
C5475 C5479 1.393 . S
C5476 H5465 0.950 . S
C5476 C5474 1.391 . S
C5476 C5477 1.400 . S
C5477 C5471 1.491 . S
C5477 C5476 1.400 . S
C5477 C5478 1.398 . S
C5478 H5466 0.950 . S
C5478 C5477 1.398 . S
C5478 C5479 1.391 . S
C5479 H5467 0.950 . S
C5479 C5475 1.393 . S
C5479 C5478 1.391 . S
H5480 C5488 0.950 . S
H5481 C5493 0.950 . S
H5482 C5490 0.950 . S
H5483 C5492 0.950 . S
H5484 C5494 0.950 . S
H5485 C5496 0.950 . S
H5486 C5498 0.950 . S
H5487 C5499 0.950 . S
C5488 H5480 0.950 . S
C5488 C5489 1.386 . S
C5488 C5490 1.391 . S
C5489 C5488 1.386 . S
C5489 C5493 1.393 . S
C5490 H5482 0.950 . S
C5490 C5488 1.391 . S
C5490 C5491 1.400 . S
C5491 C5490 1.400 . S
C5491 C5492 1.398 . S
C5491 C5497 1.491 . S
C5492 H5483 0.950 . S
C5492 C5491 1.398 . S
C5492 C5493 1.391 . S
C5493 H5481 0.950 . S
C5493 C5489 1.393 . S
C5493 C5492 1.391 . S
C5494 H5484 0.950 . S
C5494 C5495 1.386 . S
C5494 C5496 1.391 . S
C5495 C5494 1.386 . S
C5495 C5499 1.393 . S
C5496 H5485 0.950 . S
C5496 C5494 1.391 . S
C5496 C5497 1.400 . S
C5497 C5491 1.491 . S
C5497 C5496 1.400 . S
C5497 C5498 1.398 . S
C5498 H5486 0.950 . S
C5498 C5497 1.398 . S
C5498 C5499 1.391 . S
C5499 H5487 0.950 . S
C5499 C5495 1.393 . S
C5499 C5498 1.391 . S
H5500 C5508 0.950 . S
H5501 C5513 0.950 . S
H5502 C5510 0.950 . S
H5503 C5512 0.950 . S
H5504 C5514 0.950 . S
H5505 C5516 0.950 . S
H5506 C5518 0.950 . S
H5507 C5519 0.950 . S
C5508 H5500 0.950 . S
C5508 C5509 1.386 . S
C5508 C5510 1.391 . S
C5509 C5508 1.386 . S
C5509 C5513 1.393 . S
C5510 H5502 0.950 . S
C5510 C5508 1.391 . S
C5510 C5511 1.400 . S
C5511 C5510 1.400 . S
C5511 C5512 1.398 . S
C5511 C5517 1.491 . S
C5512 H5503 0.950 . S
C5512 C5511 1.398 . S
C5512 C5513 1.391 . S
C5513 H5501 0.950 . S
C5513 C5509 1.393 . S
C5513 C5512 1.391 . S
C5514 H5504 0.950 . S
C5514 C5515 1.386 . S
C5514 C5516 1.391 . S
C5515 C5514 1.386 . S
C5515 C5519 1.393 . S
C5516 H5505 0.950 . S
C5516 C5514 1.391 . S
C5516 C5517 1.400 . S
C5517 C5511 1.491 . S
C5517 C5516 1.400 . S
C5517 C5518 1.398 . S
C5518 H5506 0.950 . S
C5518 C5517 1.398 . S
C5518 C5519 1.391 . S
C5519 H5507 0.950 . S
C5519 C5515 1.393 . S
C5519 C5518 1.391 . S
H5520 C5528 0.950 . S
H5521 C5533 0.950 . S
H5522 C5530 0.950 . S
H5523 C5532 0.950 . S
H5524 C5534 0.950 . S
H5525 C5536 0.950 . S
H5526 C5538 0.950 . S
H5527 C5539 0.950 . S
C5528 H5520 0.950 . S
C5528 C5529 1.386 . S
C5528 C5530 1.391 . S
C5529 C5528 1.386 . S
C5529 C5533 1.393 . S
C5530 H5522 0.950 . S
C5530 C5528 1.391 . S
C5530 C5531 1.400 . S
C5531 C5530 1.400 . S
C5531 C5532 1.398 . S
C5531 C5537 1.491 . S
C5532 H5523 0.950 . S
C5532 C5531 1.398 . S
C5532 C5533 1.391 . S
C5533 H5521 0.950 . S
C5533 C5529 1.393 . S
C5533 C5532 1.391 . S
C5534 H5524 0.950 . S
C5534 C5535 1.386 . S
C5534 C5536 1.391 . S
C5535 C5534 1.386 . S
C5535 C5539 1.393 . S
C5536 H5525 0.950 . S
C5536 C5534 1.391 . S
C5536 C5537 1.400 . S
C5537 C5531 1.491 . S
C5537 C5536 1.400 . S
C5537 C5538 1.398 . S
C5538 H5526 0.950 . S
C5538 C5537 1.398 . S
C5538 C5539 1.391 . S
C5539 H5527 0.950 . S
C5539 C5535 1.393 . S
C5539 C5538 1.391 . S
H5540 C5548 0.950 . S
H5541 C5553 0.950 . S
H5542 C5550 0.950 . S
H5543 C5552 0.950 . S
H5544 C5554 0.950 . S
H5545 C5556 0.950 . S
H5546 C5558 0.950 . S
H5547 C5559 0.950 . S
C5548 H5540 0.950 . S
C5548 C5549 1.386 . S
C5548 C5550 1.391 . S
C5549 C5548 1.386 . S
C5549 C5553 1.393 . S
C5550 H5542 0.950 . S
C5550 C5548 1.391 . S
C5550 C5551 1.400 . S
C5551 C5550 1.400 . S
C5551 C5552 1.398 . S
C5551 C5557 1.491 . S
C5552 H5543 0.950 . S
C5552 C5551 1.398 . S
C5552 C5553 1.391 . S
C5553 H5541 0.950 . S
C5553 C5549 1.393 . S
C5553 C5552 1.391 . S
C5554 H5544 0.950 . S
C5554 C5555 1.386 . S
C5554 C5556 1.391 . S
C5555 C5554 1.386 . S
C5555 C5559 1.393 . S
C5556 H5545 0.950 . S
C5556 C5554 1.391 . S
C5556 C5557 1.400 . S
C5557 C5551 1.491 . S
C5557 C5556 1.400 . S
C5557 C5558 1.398 . S
C5558 H5546 0.950 . S
C5558 C5557 1.398 . S
C5558 C5559 1.391 . S
C5559 H5547 0.950 . S
C5559 C5555 1.393 . S
C5559 C5558 1.391 . S
H5560 C5568 0.950 . S
H5561 C5573 0.950 . S
H5562 C5570 0.950 . S
H5563 C5572 0.950 . S
H5564 C5574 0.950 . S
H5565 C5576 0.950 . S
H5566 C5578 0.950 . S
H5567 C5579 0.950 . S
C5568 H5560 0.950 . S
C5568 C5569 1.386 . S
C5568 C5570 1.391 . S
C5569 C5568 1.386 . S
C5569 C5573 1.393 . S
C5570 H5562 0.950 . S
C5570 C5568 1.391 . S
C5570 C5571 1.400 . S
C5571 C5570 1.400 . S
C5571 C5572 1.398 . S
C5571 C5577 1.491 . S
C5572 H5563 0.950 . S
C5572 C5571 1.398 . S
C5572 C5573 1.391 . S
C5573 H5561 0.950 . S
C5573 C5569 1.393 . S
C5573 C5572 1.391 . S
C5574 H5564 0.950 . S
C5574 C5575 1.386 . S
C5574 C5576 1.391 . S
C5575 C5574 1.386 . S
C5575 C5579 1.393 . S
C5576 H5565 0.950 . S
C5576 C5574 1.391 . S
C5576 C5577 1.400 . S
C5577 C5571 1.491 . S
C5577 C5576 1.400 . S
C5577 C5578 1.398 . S
C5578 H5566 0.950 . S
C5578 C5577 1.398 . S
C5578 C5579 1.391 . S
C5579 H5567 0.950 . S
C5579 C5575 1.393 . S
C5579 C5578 1.391 . S
H5580 C5588 0.950 . S
H5581 C5593 0.950 . S
H5582 C5590 0.950 . S
H5583 C5592 0.950 . S
H5584 C5594 0.950 . S
H5585 C5596 0.950 . S
H5586 C5598 0.950 . S
H5587 C5599 0.950 . S
C5588 H5580 0.950 . S
C5588 C5589 1.386 . S
C5588 C5590 1.391 . S
C5589 C5588 1.386 . S
C5589 C5593 1.393 . S
C5590 H5582 0.950 . S
C5590 C5588 1.391 . S
C5590 C5591 1.400 . S
C5591 C5590 1.400 . S
C5591 C5592 1.398 . S
C5591 C5597 1.491 . S
C5592 H5583 0.950 . S
C5592 C5591 1.398 . S
C5592 C5593 1.391 . S
C5593 H5581 0.950 . S
C5593 C5589 1.393 . S
C5593 C5592 1.391 . S
C5594 H5584 0.950 . S
C5594 C5595 1.386 . S
C5594 C5596 1.391 . S
C5595 C5594 1.386 . S
C5595 C5599 1.393 . S
C5596 H5585 0.950 . S
C5596 C5594 1.391 . S
C5596 C5597 1.400 . S
C5597 C5591 1.491 . S
C5597 C5596 1.400 . S
C5597 C5598 1.398 . S
C5598 H5586 0.950 . S
C5598 C5597 1.398 . S
C5598 C5599 1.391 . S
C5599 H5587 0.950 . S
C5599 C5595 1.393 . S
C5599 C5598 1.391 . S
H5600 C5608 0.950 . S
H5601 C5613 0.950 . S
H5602 C5610 0.950 . S
H5603 C5612 0.950 . S
H5604 C5614 0.950 . S
H5605 C5616 0.950 . S
H5606 C5618 0.950 . S
H5607 C5619 0.950 . S
C5608 H5600 0.950 . S
C5608 C5609 1.386 . S
C5608 C5610 1.391 . S
C5609 C5608 1.386 . S
C5609 C5613 1.393 . S
C5610 H5602 0.950 . S
C5610 C5608 1.391 . S
C5610 C5611 1.400 . S
C5611 C5610 1.400 . S
C5611 C5612 1.398 . S
C5611 C5617 1.491 . S
C5612 H5603 0.950 . S
C5612 C5611 1.398 . S
C5612 C5613 1.391 . S
C5613 H5601 0.950 . S
C5613 C5609 1.393 . S
C5613 C5612 1.391 . S
C5614 H5604 0.950 . S
C5614 C5615 1.386 . S
C5614 C5616 1.391 . S
C5615 C5614 1.386 . S
C5615 C5619 1.393 . S
C5616 H5605 0.950 . S
C5616 C5614 1.391 . S
C5616 C5617 1.400 . S
C5617 C5611 1.491 . S
C5617 C5616 1.400 . S
C5617 C5618 1.398 . S
C5618 H5606 0.950 . S
C5618 C5617 1.398 . S
C5618 C5619 1.391 . S
C5619 H5607 0.950 . S
C5619 C5615 1.393 . S
C5619 C5618 1.391 . S
H5620 C5628 0.950 . S
H5621 C5633 0.950 . S
H5622 C5630 0.950 . S
H5623 C5632 0.950 . S
H5624 C5634 0.950 . S
H5625 C5636 0.950 . S
H5626 C5638 0.950 . S
H5627 C5639 0.950 . S
C5628 H5620 0.950 . S
C5628 C5629 1.386 . S
C5628 C5630 1.391 . S
C5629 C5628 1.386 . S
C5629 C5633 1.393 . S
C5630 H5622 0.950 . S
C5630 C5628 1.391 . S
C5630 C5631 1.400 . S
C5631 C5630 1.400 . S
C5631 C5632 1.398 . S
C5631 C5637 1.491 . S
C5632 H5623 0.950 . S
C5632 C5631 1.398 . S
C5632 C5633 1.391 . S
C5633 H5621 0.950 . S
C5633 C5629 1.393 . S
C5633 C5632 1.391 . S
C5634 H5624 0.950 . S
C5634 C5635 1.386 1_565 S
C5634 C5636 1.391 . S
C5635 C5634 1.386 1_545 S
C5635 C5639 1.393 . S
C5636 H5625 0.950 . S
C5636 C5634 1.391 . S
C5636 C5637 1.400 . S
C5637 C5631 1.491 . S
C5637 C5636 1.400 . S
C5637 C5638 1.398 . S
C5638 H5626 0.950 . S
C5638 C5637 1.398 . S
C5638 C5639 1.391 1_565 S
C5639 H5627 0.950 . S
C5639 C5635 1.393 . S
C5639 C5638 1.391 1_545 S
H5640 C5648 0.950 . S
H5641 C5653 0.950 . S
H5642 C5650 0.950 . S
H5643 C5652 0.950 . S
H5644 C5654 0.950 . S
H5645 C5656 0.950 . S
H5646 C5658 0.950 . S
H5647 C5659 0.950 . S
C5648 H5640 0.950 . S
C5648 C5649 1.386 . S
C5648 C5650 1.391 . S
C5649 C5648 1.386 . S
C5649 C5653 1.393 . S
C5650 H5642 0.950 . S
C5650 C5648 1.391 . S
C5650 C5651 1.400 . S
C5651 C5650 1.400 . S
C5651 C5652 1.398 . S
C5651 C5657 1.491 . S
C5652 H5643 0.950 . S
C5652 C5651 1.398 . S
C5652 C5653 1.391 . S
C5653 H5641 0.950 . S
C5653 C5649 1.393 . S
C5653 C5652 1.391 . S
C5654 H5644 0.950 . S
C5654 C5655 1.386 . S
C5654 C5656 1.391 . S
C5655 C5654 1.386 . S
C5655 C5659 1.393 . S
C5656 H5645 0.950 . S
C5656 C5654 1.391 . S
C5656 C5657 1.400 . S
C5657 C5651 1.491 . S
C5657 C5656 1.400 . S
C5657 C5658 1.398 . S
C5658 H5646 0.950 . S
C5658 C5657 1.398 . S
C5658 C5659 1.391 . S
C5659 H5647 0.950 . S
C5659 C5655 1.393 . S
C5659 C5658 1.391 . S
H5660 C5668 0.950 . S
H5661 C5673 0.950 . S
H5662 C5670 0.950 . S
H5663 C5672 0.950 . S
H5664 C5674 0.950 . S
H5665 C5676 0.950 . S
H5666 C5678 0.950 . S
H5667 C5679 0.950 . S
C5668 H5660 0.950 . S
C5668 C5669 1.386 . S
C5668 C5670 1.391 . S
C5669 C5668 1.386 . S
C5669 C5673 1.393 . S
C5670 H5662 0.950 . S
C5670 C5668 1.391 . S
C5670 C5671 1.400 . S
C5671 C5670 1.400 . S
C5671 C5672 1.398 . S
C5671 C5677 1.491 . S
C5672 H5663 0.950 . S
C5672 C5671 1.398 . S
C5672 C5673 1.391 . S
C5673 H5661 0.950 . S
C5673 C5669 1.393 . S
C5673 C5672 1.391 . S
C5674 H5664 0.950 . S
C5674 C5675 1.386 . S
C5674 C5676 1.391 . S
C5675 C5674 1.386 . S
C5675 C5679 1.393 . S
C5676 H5665 0.950 . S
C5676 C5674 1.391 . S
C5676 C5677 1.400 . S
C5677 C5671 1.491 . S
C5677 C5676 1.400 . S
C5677 C5678 1.398 . S
C5678 H5666 0.950 . S
C5678 C5677 1.398 . S
C5678 C5679 1.391 . S
C5679 H5667 0.950 . S
C5679 C5675 1.393 . S
C5679 C5678 1.391 . S
H5680 C5688 0.950 . S
H5681 C5693 0.950 . S
H5682 C5690 0.950 . S
H5683 C5692 0.950 . S
H5684 C5694 0.950 . S
H5685 C5696 0.950 . S
H5686 C5698 0.950 . S
H5687 C5699 0.950 . S
C5688 H5680 0.950 . S
C5688 C5689 1.386 . S
C5688 C5690 1.391 . S
C5689 C5688 1.386 . S
C5689 C5693 1.393 . S
C5690 H5682 0.950 . S
C5690 C5688 1.391 . S
C5690 C5691 1.400 . S
C5691 C5690 1.400 . S
C5691 C5692 1.398 . S
C5691 C5697 1.491 . S
C5692 H5683 0.950 . S
C5692 C5691 1.398 . S
C5692 C5693 1.391 . S
C5693 H5681 0.950 . S
C5693 C5689 1.393 . S
C5693 C5692 1.391 . S
C5694 H5684 0.950 . S
C5694 C5695 1.386 . S
C5694 C5696 1.391 . S
C5695 C5694 1.386 . S
C5695 C5699 1.393 . S
C5696 H5685 0.950 . S
C5696 C5694 1.391 . S
C5696 C5697 1.400 . S
C5697 C5691 1.491 . S
C5697 C5696 1.400 . S
C5697 C5698 1.398 . S
C5698 H5686 0.950 . S
C5698 C5697 1.398 . S
C5698 C5699 1.391 . S
C5699 H5687 0.950 . S
C5699 C5695 1.393 . S
C5699 C5698 1.391 . S
H5700 C5708 0.950 . S
H5701 C5713 0.950 . S
H5702 C5710 0.950 . S
H5703 C5712 0.950 . S
H5704 C5714 0.950 . S
H5705 C5716 0.950 . S
H5706 C5718 0.950 . S
H5707 C5719 0.950 . S
C5708 H5700 0.950 . S
C5708 C5709 1.386 . S
C5708 C5710 1.391 . S
C5709 C5708 1.386 . S
C5709 C5713 1.393 . S
C5710 H5702 0.950 . S
C5710 C5708 1.391 . S
C5710 C5711 1.400 . S
C5711 C5710 1.400 . S
C5711 C5712 1.398 . S
C5711 C5717 1.491 . S
C5712 H5703 0.950 . S
C5712 C5711 1.398 . S
C5712 C5713 1.391 . S
C5713 H5701 0.950 . S
C5713 C5709 1.393 . S
C5713 C5712 1.391 . S
C5714 H5704 0.950 . S
C5714 C5715 1.386 . S
C5714 C5716 1.391 . S
C5715 C5714 1.386 . S
C5715 C5719 1.393 . S
C5716 H5705 0.950 . S
C5716 C5714 1.391 . S
C5716 C5717 1.400 . S
C5717 C5711 1.491 . S
C5717 C5716 1.400 . S
C5717 C5718 1.398 . S
C5718 H5706 0.950 . S
C5718 C5717 1.398 . S
C5718 C5719 1.391 . S
C5719 H5707 0.950 . S
C5719 C5715 1.393 . S
C5719 C5718 1.391 . S
H5720 C5728 0.950 . S
H5721 C5733 0.950 . S
H5722 C5730 0.950 . S
H5723 C5732 0.950 . S
H5724 C5734 0.950 . S
H5725 C5736 0.950 . S
H5726 C5738 0.950 . S
H5727 C5739 0.950 . S
C5728 H5720 0.950 . S
C5728 C5729 1.386 . S
C5728 C5730 1.391 . S
C5729 C5728 1.386 . S
C5729 C5733 1.393 . S
C5730 H5722 0.950 . S
C5730 C5728 1.391 . S
C5730 C5731 1.400 . S
C5731 C5730 1.400 . S
C5731 C5732 1.398 . S
C5731 C5737 1.491 . S
C5732 H5723 0.950 . S
C5732 C5731 1.398 . S
C5732 C5733 1.391 . S
C5733 H5721 0.950 . S
C5733 C5729 1.393 . S
C5733 C5732 1.391 . S
C5734 H5724 0.950 . S
C5734 C5735 1.386 . S
C5734 C5736 1.391 . S
C5735 C5734 1.386 . S
C5735 C5739 1.393 . S
C5736 H5725 0.950 . S
C5736 C5734 1.391 . S
C5736 C5737 1.400 . S
C5737 C5731 1.491 . S
C5737 C5736 1.400 . S
C5737 C5738 1.398 . S
C5738 H5726 0.950 . S
C5738 C5737 1.398 . S
C5738 C5739 1.391 . S
C5739 H5727 0.950 . S
C5739 C5735 1.393 . S
C5739 C5738 1.391 . S
H5740 C5748 0.950 . S
H5741 C5753 0.950 . S
H5742 C5750 0.950 . S
H5743 C5752 0.950 . S
H5744 C5754 0.950 . S
H5745 C5756 0.950 . S
H5746 C5758 0.950 . S
H5747 C5759 0.950 . S
C5748 H5740 0.950 . S
C5748 C5749 1.386 . S
C5748 C5750 1.391 . S
C5749 C5748 1.386 . S
C5749 C5753 1.393 . S
C5750 H5742 0.950 . S
C5750 C5748 1.391 . S
C5750 C5751 1.400 . S
C5751 C5750 1.400 . S
C5751 C5752 1.398 . S
C5751 C5757 1.491 . S
C5752 H5743 0.950 . S
C5752 C5751 1.398 . S
C5752 C5753 1.391 . S
C5753 H5741 0.950 . S
C5753 C5749 1.393 . S
C5753 C5752 1.391 . S
C5754 H5744 0.950 . S
C5754 C5755 1.386 . S
C5754 C5756 1.391 . S
C5755 C5754 1.386 . S
C5755 C5759 1.393 . S
C5756 H5745 0.950 . S
C5756 C5754 1.391 . S
C5756 C5757 1.400 . S
C5757 C5751 1.491 . S
C5757 C5756 1.400 . S
C5757 C5758 1.398 . S
C5758 H5746 0.950 . S
C5758 C5757 1.398 . S
C5758 C5759 1.391 . S
C5759 H5747 0.950 . S
C5759 C5755 1.393 . S
C5759 C5758 1.391 . S
H5760 C5768 0.950 . S
H5761 C5773 0.950 . S
H5762 C5770 0.950 . S
H5763 C5772 0.950 . S
H5764 C5774 0.950 . S
H5765 C5776 0.950 . S
H5766 C5778 0.950 . S
H5767 C5779 0.950 . S
C5768 H5760 0.950 . S
C5768 C5769 1.386 . S
C5768 C5770 1.391 . S
C5769 C5768 1.386 . S
C5769 C5773 1.393 . S
C5770 H5762 0.950 . S
C5770 C5768 1.391 . S
C5770 C5771 1.400 . S
C5771 C5770 1.400 . S
C5771 C5772 1.398 . S
C5771 C5777 1.491 . S
C5772 H5763 0.950 . S
C5772 C5771 1.398 . S
C5772 C5773 1.391 . S
C5773 H5761 0.950 . S
C5773 C5769 1.393 . S
C5773 C5772 1.391 . S
C5774 H5764 0.950 . S
C5774 C5775 1.386 . S
C5774 C5776 1.391 . S
C5775 C5774 1.386 . S
C5775 C5779 1.393 . S
C5776 H5765 0.950 . S
C5776 C5774 1.391 . S
C5776 C5777 1.400 . S
C5777 C5771 1.491 . S
C5777 C5776 1.400 . S
C5777 C5778 1.398 . S
C5778 H5766 0.950 . S
C5778 C5777 1.398 . S
C5778 C5779 1.391 . S
C5779 H5767 0.950 . S
C5779 C5775 1.393 . S
C5779 C5778 1.391 . S
H5780 C5788 0.950 . S
H5781 C5793 0.950 . S
H5782 C5790 0.950 . S
H5783 C5792 0.950 . S
H5784 C5794 0.950 . S
H5785 C5796 0.950 . S
H5786 C5798 0.950 . S
H5787 C5799 0.950 . S
C5788 H5780 0.950 . S
C5788 C5789 1.386 . S
C5788 C5790 1.391 . S
C5789 C5788 1.386 . S
C5789 C5793 1.393 . S
C5790 H5782 0.950 . S
C5790 C5788 1.391 . S
C5790 C5791 1.400 . S
C5791 C5790 1.400 . S
C5791 C5792 1.398 . S
C5791 C5797 1.491 . S
C5792 H5783 0.950 . S
C5792 C5791 1.398 . S
C5792 C5793 1.391 . S
C5793 H5781 0.950 . S
C5793 C5789 1.393 . S
C5793 C5792 1.391 . S
C5794 H5784 0.950 . S
C5794 C5795 1.386 . S
C5794 C5796 1.391 . S
C5795 C5794 1.386 . S
C5795 C5799 1.393 . S
C5796 H5785 0.950 . S
C5796 C5794 1.391 . S
C5796 C5797 1.400 . S
C5797 C5791 1.491 . S
C5797 C5796 1.400 . S
C5797 C5798 1.398 . S
C5798 H5786 0.950 . S
C5798 C5797 1.398 . S
C5798 C5799 1.391 . S
C5799 H5787 0.950 . S
C5799 C5795 1.393 . S
C5799 C5798 1.391 . S
H5800 C5808 0.950 . S
H5801 C5813 0.950 . S
H5802 C5810 0.950 . S
H5803 C5812 0.950 . S
H5804 C5814 0.950 . S
H5805 C5816 0.950 . S
H5806 C5818 0.950 . S
H5807 C5819 0.950 . S
C5808 H5800 0.950 . S
C5808 C5809 1.386 . S
C5808 C5810 1.391 . S
C5809 C5808 1.386 . S
C5809 C5813 1.393 . S
C5810 H5802 0.950 . S
C5810 C5808 1.391 . S
C5810 C5811 1.400 . S
C5811 C5810 1.400 . S
C5811 C5812 1.398 . S
C5811 C5817 1.491 . S
C5812 H5803 0.950 . S
C5812 C5811 1.398 . S
C5812 C5813 1.391 . S
C5813 H5801 0.950 . S
C5813 C5809 1.393 . S
C5813 C5812 1.391 . S
C5814 H5804 0.950 . S
C5814 C5815 1.386 . S
C5814 C5816 1.391 . S
C5815 C5814 1.386 . S
C5815 C5819 1.393 . S
C5816 H5805 0.950 . S
C5816 C5814 1.391 . S
C5816 C5817 1.400 . S
C5817 C5811 1.491 . S
C5817 C5816 1.400 . S
C5817 C5818 1.398 . S
C5818 H5806 0.950 . S
C5818 C5817 1.398 . S
C5818 C5819 1.391 . S
C5819 H5807 0.950 . S
C5819 C5815 1.393 . S
C5819 C5818 1.391 . S
H5820 C5828 0.950 . S
H5821 C5833 0.950 . S
H5822 C5830 0.950 . S
H5823 C5832 0.950 . S
H5824 C5834 0.950 . S
H5825 C5836 0.950 . S
H5826 C5838 0.950 . S
H5827 C5839 0.950 . S
C5828 H5820 0.950 . S
C5828 C5829 1.386 . S
C5828 C5830 1.391 . S
C5829 C5828 1.386 . S
C5829 C5833 1.393 . S
C5830 H5822 0.950 . S
C5830 C5828 1.391 . S
C5830 C5831 1.400 . S
C5831 C5830 1.400 . S
C5831 C5832 1.398 . S
C5831 C5837 1.491 . S
C5832 H5823 0.950 . S
C5832 C5831 1.398 . S
C5832 C5833 1.391 . S
C5833 H5821 0.950 . S
C5833 C5829 1.393 . S
C5833 C5832 1.391 . S
C5834 H5824 0.950 . S
C5834 C5835 1.386 . S
C5834 C5836 1.391 . S
C5835 C5834 1.386 . S
C5835 C5839 1.393 . S
C5836 H5825 0.950 . S
C5836 C5834 1.391 . S
C5836 C5837 1.400 . S
C5837 C5831 1.491 . S
C5837 C5836 1.400 . S
C5837 C5838 1.398 . S
C5838 H5826 0.950 . S
C5838 C5837 1.398 . S
C5838 C5839 1.391 . S
C5839 H5827 0.950 . S
C5839 C5835 1.393 . S
C5839 C5838 1.391 . S
H5840 C5848 0.950 . S
H5841 C5853 0.950 . S
H5842 C5850 0.950 . S
H5843 C5852 0.950 . S
H5844 C5854 0.950 . S
H5845 C5856 0.950 . S
H5846 C5858 0.950 . S
H5847 C5859 0.950 . S
C5848 H5840 0.950 . S
C5848 C5849 1.386 . S
C5848 C5850 1.391 . S
C5849 C5848 1.386 . S
C5849 C5853 1.393 . S
C5850 H5842 0.950 . S
C5850 C5848 1.391 . S
C5850 C5851 1.400 . S
C5851 C5850 1.400 . S
C5851 C5852 1.398 . S
C5851 C5857 1.491 . S
C5852 H5843 0.950 . S
C5852 C5851 1.398 . S
C5852 C5853 1.391 . S
C5853 H5841 0.950 . S
C5853 C5849 1.393 . S
C5853 C5852 1.391 . S
C5854 H5844 0.950 . S
C5854 C5855 1.386 . S
C5854 C5856 1.391 . S
C5855 C5854 1.386 . S
C5855 C5859 1.393 . S
C5856 H5845 0.950 . S
C5856 C5854 1.391 . S
C5856 C5857 1.400 . S
C5857 C5851 1.491 . S
C5857 C5856 1.400 . S
C5857 C5858 1.398 . S
C5858 H5846 0.950 . S
C5858 C5857 1.398 . S
C5858 C5859 1.391 . S
C5859 H5847 0.950 . S
C5859 C5855 1.393 . S
C5859 C5858 1.391 . S
H5860 C5868 0.950 . S
H5861 C5873 0.950 . S
H5862 C5870 0.950 . S
H5863 C5872 0.950 . S
H5864 C5874 0.950 . S
H5865 C5876 0.950 . S
H5866 C5878 0.950 . S
H5867 C5879 0.950 . S
C5868 H5860 0.950 . S
C5868 C5869 1.386 . S
C5868 C5870 1.391 . S
C5869 C5868 1.386 . S
C5869 C5873 1.393 . S
C5870 H5862 0.950 . S
C5870 C5868 1.391 . S
C5870 C5871 1.400 . S
C5871 C5870 1.400 . S
C5871 C5872 1.398 . S
C5871 C5877 1.491 . S
C5872 H5863 0.950 . S
C5872 C5871 1.398 . S
C5872 C5873 1.391 . S
C5873 H5861 0.950 . S
C5873 C5869 1.393 . S
C5873 C5872 1.391 . S
C5874 H5864 0.950 . S
C5874 C5875 1.386 . S
C5874 C5876 1.391 . S
C5875 C5874 1.386 . S
C5875 C5879 1.393 . S
C5876 H5865 0.950 . S
C5876 C5874 1.391 . S
C5876 C5877 1.400 . S
C5877 C5871 1.491 . S
C5877 C5876 1.400 . S
C5877 C5878 1.398 . S
C5878 H5866 0.950 . S
C5878 C5877 1.398 . S
C5878 C5879 1.391 . S
C5879 H5867 0.950 . S
C5879 C5875 1.393 . S
C5879 C5878 1.391 . S
H5880 C5888 0.950 1_556 S
H5881 C5893 0.950 . S
H5882 C5890 0.950 . S
H5883 C5892 0.950 . S
H5884 C5894 0.950 . S
H5885 C5896 0.950 . S
H5886 C5898 0.950 . S
H5887 C5899 0.950 . S
C5888 H5880 0.950 1_554 S
C5888 C5889 1.386 1_554 S
C5888 C5890 1.391 . S
C5889 C5888 1.386 1_556 S
C5889 C5893 1.393 1_556 S
C5890 H5882 0.950 . S
C5890 C5888 1.391 . S
C5890 C5891 1.400 . S
C5891 C5890 1.400 . S
C5891 C5892 1.398 . S
C5891 C5897 1.491 . S
C5892 H5883 0.950 . S
C5892 C5891 1.398 . S
C5892 C5893 1.391 . S
C5893 H5881 0.950 . S
C5893 C5889 1.393 1_554 S
C5893 C5892 1.391 . S
C5894 H5884 0.950 . S
C5894 C5895 1.386 . S
C5894 C5896 1.391 . S
C5895 C5894 1.386 . S
C5895 C5899 1.393 . S
C5896 H5885 0.950 . S
C5896 C5894 1.391 . S
C5896 C5897 1.400 . S
C5897 C5891 1.491 . S
C5897 C5896 1.400 . S
C5897 C5898 1.398 . S
C5898 H5886 0.950 . S
C5898 C5897 1.398 . S
C5898 C5899 1.391 . S
C5899 H5887 0.950 . S
C5899 C5895 1.393 . S
C5899 C5898 1.391 . S
H5900 C5908 0.950 . S
H5901 C5913 0.950 . S
H5902 C5910 0.950 . S
H5903 C5912 0.950 . S
H5904 C5914 0.950 . S
H5905 C5916 0.950 . S
H5906 C5918 0.950 . S
H5907 C5919 0.950 . S
C5908 H5900 0.950 . S
C5908 C5909 1.386 . S
C5908 C5910 1.391 . S
C5909 C5908 1.386 . S
C5909 C5913 1.393 . S
C5910 H5902 0.950 . S
C5910 C5908 1.391 . S
C5910 C5911 1.400 . S
C5911 C5910 1.400 . S
C5911 C5912 1.398 . S
C5911 C5917 1.491 . S
C5912 H5903 0.950 . S
C5912 C5911 1.398 . S
C5912 C5913 1.391 . S
C5913 H5901 0.950 . S
C5913 C5909 1.393 . S
C5913 C5912 1.391 . S
C5914 H5904 0.950 . S
C5914 C5915 1.386 . S
C5914 C5916 1.391 . S
C5915 C5914 1.386 . S
C5915 C5919 1.393 . S
C5916 H5905 0.950 . S
C5916 C5914 1.391 . S
C5916 C5917 1.400 . S
C5917 C5911 1.491 . S
C5917 C5916 1.400 . S
C5917 C5918 1.398 . S
C5918 H5906 0.950 . S
C5918 C5917 1.398 . S
C5918 C5919 1.391 . S
C5919 H5907 0.950 . S
C5919 C5915 1.393 . S
C5919 C5918 1.391 . S
H5920 C5928 0.950 . S
H5921 C5933 0.950 . S
H5922 C5930 0.950 . S
H5923 C5932 0.950 . S
H5924 C5934 0.950 . S
H5925 C5936 0.950 . S
H5926 C5938 0.950 . S
H5927 C5939 0.950 . S
C5928 H5920 0.950 . S
C5928 C5929 1.386 . S
C5928 C5930 1.391 . S
C5929 C5928 1.386 . S
C5929 C5933 1.393 . S
C5930 H5922 0.950 . S
C5930 C5928 1.391 . S
C5930 C5931 1.400 . S
C5931 C5930 1.400 . S
C5931 C5932 1.398 . S
C5931 C5937 1.491 . S
C5932 H5923 0.950 . S
C5932 C5931 1.398 . S
C5932 C5933 1.391 . S
C5933 H5921 0.950 . S
C5933 C5929 1.393 . S
C5933 C5932 1.391 . S
C5934 H5924 0.950 . S
C5934 C5935 1.386 . S
C5934 C5936 1.391 . S
C5935 C5934 1.386 . S
C5935 C5939 1.393 . S
C5936 H5925 0.950 . S
C5936 C5934 1.391 . S
C5936 C5937 1.400 . S
C5937 C5931 1.491 . S
C5937 C5936 1.400 . S
C5937 C5938 1.398 . S
C5938 H5926 0.950 . S
C5938 C5937 1.398 . S
C5938 C5939 1.391 . S
C5939 H5927 0.950 . S
C5939 C5935 1.393 . S
C5939 C5938 1.391 . S
H5940 C5948 0.950 . S
H5941 C5953 0.950 . S
H5942 C5950 0.950 . S
H5943 C5952 0.950 . S
H5944 C5954 0.950 . S
H5945 C5956 0.950 . S
H5946 C5958 0.950 . S
H5947 C5959 0.950 . S
C5948 H5940 0.950 . S
C5948 C5949 1.386 . S
C5948 C5950 1.391 . S
C5949 C5948 1.386 . S
C5949 C5953 1.393 . S
C5950 H5942 0.950 . S
C5950 C5948 1.391 . S
C5950 C5951 1.400 . S
C5951 C5950 1.400 . S
C5951 C5952 1.398 . S
C5951 C5957 1.491 . S
C5952 H5943 0.950 . S
C5952 C5951 1.398 . S
C5952 C5953 1.391 . S
C5953 H5941 0.950 . S
C5953 C5949 1.393 . S
C5953 C5952 1.391 . S
C5954 H5944 0.950 . S
C5954 C5955 1.386 . S
C5954 C5956 1.391 . S
C5955 C5954 1.386 . S
C5955 C5959 1.393 . S
C5956 H5945 0.950 . S
C5956 C5954 1.391 . S
C5956 C5957 1.400 . S
C5957 C5951 1.491 . S
C5957 C5956 1.400 . S
C5957 C5958 1.398 . S
C5958 H5946 0.950 . S
C5958 C5957 1.398 . S
C5958 C5959 1.391 . S
C5959 H5947 0.950 . S
C5959 C5955 1.393 . S
C5959 C5958 1.391 . S
H5960 C5968 0.950 . S
H5961 C5973 0.950 . S
H5962 C5970 0.950 . S
H5963 C5972 0.950 . S
H5964 C5974 0.950 . S
H5965 C5976 0.950 . S
H5966 C5978 0.950 . S
H5967 C5979 0.950 . S
C5968 H5960 0.950 . S
C5968 C5969 1.386 . S
C5968 C5970 1.391 . S
C5969 C5968 1.386 . S
C5969 C5973 1.393 . S
C5970 H5962 0.950 . S
C5970 C5968 1.391 . S
C5970 C5971 1.400 . S
C5971 C5970 1.400 . S
C5971 C5972 1.398 . S
C5971 C5977 1.491 . S
C5972 H5963 0.950 . S
C5972 C5971 1.398 . S
C5972 C5973 1.391 . S
C5973 H5961 0.950 . S
C5973 C5969 1.393 . S
C5973 C5972 1.391 . S
C5974 H5964 0.950 . S
C5974 C5975 1.386 . S
C5974 C5976 1.391 . S
C5975 C5974 1.386 . S
C5975 C5979 1.393 . S
C5976 H5965 0.950 . S
C5976 C5974 1.391 . S
C5976 C5977 1.400 . S
C5977 C5971 1.491 . S
C5977 C5976 1.400 . S
C5977 C5978 1.398 . S
C5978 H5966 0.950 . S
C5978 C5977 1.398 . S
C5978 C5979 1.391 . S
C5979 H5967 0.950 . S
C5979 C5975 1.393 . S
C5979 C5978 1.391 . S
H5980 C5988 0.950 . S
H5981 C5993 0.950 . S
H5982 C5990 0.950 . S
H5983 C5992 0.950 . S
H5984 C5994 0.950 . S
H5985 C5996 0.950 . S
H5986 C5998 0.950 . S
H5987 C5999 0.950 . S
C5988 H5980 0.950 . S
C5988 C5989 1.386 . S
C5988 C5990 1.391 . S
C5989 C5988 1.386 . S
C5989 C5993 1.393 . S
C5990 H5982 0.950 . S
C5990 C5988 1.391 . S
C5990 C5991 1.400 . S
C5991 C5990 1.400 . S
C5991 C5992 1.398 . S
C5991 C5997 1.491 . S
C5992 H5983 0.950 . S
C5992 C5991 1.398 . S
C5992 C5993 1.391 . S
C5993 H5981 0.950 . S
C5993 C5989 1.393 . S
C5993 C5992 1.391 . S
C5994 H5984 0.950 . S
C5994 C5995 1.386 . S
C5994 C5996 1.391 . S
C5995 C5994 1.386 . S
C5995 C5999 1.393 . S
C5996 H5985 0.950 . S
C5996 C5994 1.391 . S
C5996 C5997 1.400 . S
C5997 C5991 1.491 . S
C5997 C5996 1.400 . S
C5997 C5998 1.398 . S
C5998 H5986 0.950 . S
C5998 C5997 1.398 . S
C5998 C5999 1.391 . S
C5999 H5987 0.950 . S
C5999 C5995 1.393 . S
C5999 C5998 1.391 . S
H6000 C6008 0.950 . S
H6001 C6013 0.950 . S
H6002 C6010 0.950 . S
H6003 C6012 0.950 . S
H6004 C6014 0.950 . S
H6005 C6016 0.950 . S
H6006 C6018 0.950 . S
H6007 C6019 0.981 . S
C6008 H6000 0.950 . S
C6008 C6009 1.386 . S
C6008 C6010 1.391 . S
C6009 C6008 1.386 . S
C6009 C6013 1.393 . S
C6010 H6002 0.950 . S
C6010 C6008 1.391 . S
C6010 C6011 1.400 . S
C6011 C6010 1.400 . S
C6011 C6012 1.398 . S
C6011 C6017 1.491 . S
C6012 H6003 0.950 . S
C6012 C6011 1.398 . S
C6012 C6013 1.391 . S
C6013 H6001 0.950 . S
C6013 C6009 1.393 . S
C6013 C6012 1.391 . S
C6014 H6004 0.950 . S
C6014 C6015 1.386 . S
C6014 C6016 1.391 . S
C6015 C6014 1.386 . S
C6015 C6019 1.393 . S
C6016 H6005 0.950 . S
C6016 C6014 1.391 . S
C6016 C6017 1.400 . S
C6017 C6011 1.491 . S
C6017 C6016 1.400 . S
C6017 C6018 1.398 . S
C6018 H6006 0.950 . S
C6018 C6017 1.398 . S
C6018 C6019 1.391 . S
C6019 H6007 0.981 . S
C6019 C6015 1.393 . S
C6019 C6018 1.391 . S
H6020 C6028 0.950 . S
H6021 C6033 0.950 . S
H6022 C6030 0.950 . S
H6023 C6032 0.950 . S
H6024 C6034 0.950 . S
H6025 C6036 0.950 . S
H6026 C6038 0.950 . S
H6027 C6039 0.950 . S
C6028 H6020 0.950 . S
C6028 C6029 1.386 . S
C6028 C6030 1.391 . S
C6029 C6028 1.386 . S
C6029 C6033 1.393 . S
C6030 H6022 0.950 . S
C6030 C6028 1.391 . S
C6030 C6031 1.400 . S
C6031 C6030 1.400 . S
C6031 C6032 1.398 . S
C6031 C6037 1.491 . S
C6032 H6023 0.950 . S
C6032 C6031 1.398 . S
C6032 C6033 1.391 . S
C6033 H6021 0.950 . S
C6033 C6029 1.393 . S
C6033 C6032 1.391 . S
C6034 H6024 0.950 . S
C6034 C6035 1.386 . S
C6034 C6036 1.391 . S
C6035 C6034 1.386 . S
C6035 C6039 1.393 . S
C6036 H6025 0.950 . S
C6036 C6034 1.391 . S
C6036 C6037 1.400 . S
C6037 C6031 1.491 . S
C6037 C6036 1.400 . S
C6037 C6038 1.398 . S
C6038 H6026 0.950 . S
C6038 C6037 1.398 . S
C6038 C6039 1.391 . S
C6039 H6027 0.950 . S
C6039 C6035 1.393 . S
C6039 C6038 1.391 . S
H6040 C6048 0.950 . S
H6041 C6053 0.950 . S
H6042 C6050 0.950 . S
H6043 C6052 0.950 . S
H6044 C6054 0.950 . S
H6045 C6056 0.950 . S
H6046 C6058 0.950 . S
H6047 C6059 0.950 . S
C6048 H6040 0.950 . S
C6048 C6049 1.386 . S
C6048 C6050 1.391 . S
C6049 C6048 1.386 . S
C6049 C6053 1.393 . S
C6050 H6042 0.950 . S
C6050 C6048 1.391 . S
C6050 C6051 1.400 . S
C6051 C6050 1.400 . S
C6051 C6052 1.398 . S
C6051 C6057 1.491 . S
C6052 H6043 0.950 . S
C6052 C6051 1.398 . S
C6052 C6053 1.391 . S
C6053 H6041 0.950 . S
C6053 C6049 1.393 . S
C6053 C6052 1.391 . S
C6054 H6044 0.950 . S
C6054 C6055 1.386 . S
C6054 C6056 1.391 . S
C6055 C6054 1.386 . S
C6055 C6059 1.393 . S
C6056 H6045 0.950 . S
C6056 C6054 1.391 . S
C6056 C6057 1.400 . S
C6057 C6051 1.491 . S
C6057 C6056 1.400 . S
C6057 C6058 1.398 . S
C6058 H6046 0.950 . S
C6058 C6057 1.398 . S
C6058 C6059 1.391 . S
C6059 H6047 0.950 . S
C6059 C6055 1.393 . S
C6059 C6058 1.391 . S
H6060 C6068 0.950 . S
H6061 C6073 0.950 . S
H6062 C6070 0.950 . S
H6063 C6072 0.950 . S
H6064 C6074 0.950 . S
H6065 C6076 0.950 . S
H6066 C6078 0.950 . S
H6067 C6079 0.950 . S
C6068 H6060 0.950 . S
C6068 C6069 1.386 . S
C6068 C6070 1.391 . S
C6069 C6068 1.386 . S
C6069 C6073 1.393 . S
C6070 H6062 0.950 . S
C6070 C6068 1.391 . S
C6070 C6071 1.400 . S
C6071 C6070 1.400 . S
C6071 C6072 1.398 . S
C6071 C6077 1.491 . S
C6072 H6063 0.950 . S
C6072 C6071 1.398 . S
C6072 C6073 1.391 . S
C6073 H6061 0.950 . S
C6073 C6069 1.393 . S
C6073 C6072 1.391 . S
C6074 H6064 0.950 . S
C6074 C6075 1.386 . S
C6074 C6076 1.391 . S
C6075 C6074 1.386 . S
C6075 C6079 1.393 . S
C6076 H6065 0.950 . S
C6076 C6074 1.391 . S
C6076 C6077 1.400 . S
C6077 C6071 1.491 . S
C6077 C6076 1.400 . S
C6077 C6078 1.398 . S
C6078 H6066 0.950 . S
C6078 C6077 1.398 . S
C6078 C6079 1.391 . S
C6079 H6067 0.950 . S
C6079 C6075 1.393 . S
C6079 C6078 1.391 . S
H6080 C6088 0.950 . S
H6081 C6093 0.950 . S
H6082 C6090 0.950 . S
H6083 C6092 0.950 . S
H6084 C6094 0.950 . S
H6085 C6096 0.950 . S
H6086 C6098 0.950 . S
H6087 C6099 0.950 . S
C6088 H6080 0.950 . S
C6088 C6089 1.386 . S
C6088 C6090 1.391 . S
C6089 C6088 1.386 . S
C6089 C6093 1.393 . S
C6090 H6082 0.950 . S
C6090 C6088 1.391 . S
C6090 C6091 1.400 . S
C6091 C6090 1.400 . S
C6091 C6092 1.398 . S
C6091 C6097 1.491 . S
C6092 H6083 0.950 . S
C6092 C6091 1.398 . S
C6092 C6093 1.391 . S
C6093 H6081 0.950 . S
C6093 C6089 1.393 . S
C6093 C6092 1.391 . S
C6094 H6084 0.950 . S
C6094 C6095 1.386 . S
C6094 C6096 1.391 . S
C6095 C6094 1.386 . S
C6095 C6099 1.393 . S
C6096 H6085 0.950 . S
C6096 C6094 1.391 . S
C6096 C6097 1.400 . S
C6097 C6091 1.491 . S
C6097 C6096 1.400 . S
C6097 C6098 1.398 . S
C6098 H6086 0.950 . S
C6098 C6097 1.398 . S
C6098 C6099 1.391 . S
C6099 H6087 0.950 . S
C6099 C6095 1.393 . S
C6099 C6098 1.391 . S
H6100 C6108 0.950 . S
H6101 C6113 0.950 . S
H6102 C6110 0.950 . S
H6103 C6112 0.950 . S
H6104 C6114 0.950 . S
H6105 C6116 0.950 . S
H6106 C6118 0.950 . S
H6107 C6119 0.950 . S
C6108 H6100 0.950 . S
C6108 C6109 1.386 . S
C6108 C6110 1.391 . S
C6109 C6108 1.386 . S
C6109 C6113 1.393 . S
C6110 H6102 0.950 . S
C6110 C6108 1.391 . S
C6110 C6111 1.400 . S
C6111 C6110 1.400 . S
C6111 C6112 1.398 . S
C6111 C6117 1.491 . S
C6112 H6103 0.950 . S
C6112 C6111 1.398 . S
C6112 C6113 1.391 . S
C6113 H6101 0.950 . S
C6113 C6109 1.393 . S
C6113 C6112 1.391 . S
C6114 H6104 0.950 . S
C6114 C6115 1.386 . S
C6114 C6116 1.391 . S
C6115 C6114 1.386 . S
C6115 C6119 1.393 . S
C6116 H6105 0.950 . S
C6116 C6114 1.391 . S
C6116 C6117 1.400 . S
C6117 C6111 1.491 . S
C6117 C6116 1.400 . S
C6117 C6118 1.398 . S
C6118 H6106 0.950 . S
C6118 C6117 1.398 . S
C6118 C6119 1.391 . S
C6119 H6107 0.950 . S
C6119 C6115 1.393 . S
C6119 C6118 1.391 . S
H6120 C6128 0.950 . S
H6121 C6133 0.950 . S
H6122 C6130 0.950 . S
H6123 C6132 0.950 . S
H6124 C6134 0.950 . S
H6125 C6136 0.950 . S
H6126 C6138 0.950 . S
H6127 C6139 0.950 . S
C6128 H6120 0.950 . S
C6128 C6129 1.386 . S
C6128 C6130 1.391 . S
C6129 C6128 1.386 . S
C6129 C6133 1.393 . S
C6130 H6122 0.950 . S
C6130 C6128 1.391 . S
C6130 C6131 1.400 . S
C6131 C6130 1.400 . S
C6131 C6132 1.398 . S
C6131 C6137 1.491 . S
C6132 H6123 0.950 . S
C6132 C6131 1.398 . S
C6132 C6133 1.391 . S
C6133 H6121 0.950 . S
C6133 C6129 1.393 . S
C6133 C6132 1.391 . S
C6134 H6124 0.950 . S
C6134 C6135 1.386 . S
C6134 C6136 1.391 . S
C6135 C6134 1.386 . S
C6135 C6139 1.393 . S
C6136 H6125 0.950 . S
C6136 C6134 1.391 . S
C6136 C6137 1.400 . S
C6137 C6131 1.491 . S
C6137 C6136 1.400 . S
C6137 C6138 1.398 . S
C6138 H6126 0.950 . S
C6138 C6137 1.398 . S
C6138 C6139 1.391 . S
C6139 H6127 0.950 . S
C6139 C6135 1.393 . S
C6139 C6138 1.391 . S
H6140 C6148 0.950 . S
H6141 C6153 0.950 . S
H6142 C6150 0.950 . S
H6143 C6152 0.950 . S
H6144 C6154 0.950 . S
H6145 C6156 0.950 . S
H6146 C6158 0.950 . S
H6147 C6159 0.950 . S
C6148 H6140 0.950 . S
C6148 C6149 1.386 . S
C6148 C6150 1.391 . S
C6149 C6148 1.386 . S
C6149 C6153 1.393 . S
C6150 H6142 0.950 . S
C6150 C6148 1.391 . S
C6150 C6151 1.400 . S
C6151 C6150 1.400 . S
C6151 C6152 1.398 . S
C6151 C6157 1.491 . S
C6152 H6143 0.950 . S
C6152 C6151 1.398 . S
C6152 C6153 1.391 . S
C6153 H6141 0.950 . S
C6153 C6149 1.393 . S
C6153 C6152 1.391 . S
C6154 H6144 0.950 . S
C6154 C6155 1.386 . S
C6154 C6156 1.391 . S
C6155 C6154 1.386 . S
C6155 C6159 1.393 . S
C6156 H6145 0.950 . S
C6156 C6154 1.391 . S
C6156 C6157 1.400 . S
C6157 C6151 1.491 . S
C6157 C6156 1.400 . S
C6157 C6158 1.398 . S
C6158 H6146 0.950 . S
C6158 C6157 1.398 . S
C6158 C6159 1.391 . S
C6159 H6147 0.950 . S
C6159 C6155 1.393 . S
C6159 C6158 1.391 . S
H6160 C6168 0.950 . S
H6161 C6173 0.950 . S
H6162 C6170 0.950 . S
H6163 C6172 0.950 . S
H6164 C6174 0.950 . S
H6165 C6176 0.950 . S
H6166 C6178 0.950 . S
H6167 C6179 0.950 . S
C6168 H6160 0.950 . S
C6168 C6169 1.386 . S
C6168 C6170 1.391 . S
C6169 C6168 1.386 . S
C6169 C6173 1.393 . S
C6170 H6162 0.950 . S
C6170 C6168 1.391 . S
C6170 C6171 1.400 . S
C6171 C6170 1.400 . S
C6171 C6172 1.398 . S
C6171 C6177 1.491 . S
C6172 H6163 0.950 . S
C6172 C6171 1.398 . S
C6172 C6173 1.391 . S
C6173 H6161 0.950 . S
C6173 C6169 1.393 . S
C6173 C6172 1.391 . S
C6174 H6164 0.950 . S
C6174 C6175 1.386 . S
C6174 C6176 1.391 . S
C6175 C6174 1.386 . S
C6175 C6179 1.393 . S
C6176 H6165 0.950 . S
C6176 C6174 1.391 . S
C6176 C6177 1.400 . S
C6177 C6171 1.491 . S
C6177 C6176 1.400 . S
C6177 C6178 1.398 . S
C6178 H6166 0.950 . S
C6178 C6177 1.398 . S
C6178 C6179 1.391 . S
C6179 H6167 0.950 . S
C6179 C6175 1.393 . S
C6179 C6178 1.391 . S
H6180 C6188 0.950 . S
H6181 C6193 0.950 . S
H6182 C6190 0.950 . S
H6183 C6192 0.950 . S
H6184 C6194 0.950 1_565 S
H6185 C6196 0.950 . S
H6186 C6198 0.950 . S
H6187 C6199 0.950 . S
C6188 H6180 0.950 . S
C6188 C6189 1.386 . S
C6188 C6190 1.391 . S
C6189 C6188 1.386 . S
C6189 C6193 1.393 . S
C6190 H6182 0.950 . S
C6190 C6188 1.391 . S
C6190 C6191 1.400 . S
C6191 C6190 1.400 . S
C6191 C6192 1.398 . S
C6191 C6197 1.491 . S
C6192 H6183 0.950 . S
C6192 C6191 1.398 . S
C6192 C6193 1.391 . S
C6193 H6181 0.950 . S
C6193 C6189 1.393 . S
C6193 C6192 1.391 . S
C6194 H6184 0.950 1_545 S
C6194 C6195 1.386 . S
C6194 C6196 1.391 . S
C6195 C6194 1.386 . S
C6195 C6199 1.393 . S
C6196 H6185 0.950 . S
C6196 C6194 1.391 . S
C6196 C6197 1.400 . S
C6197 C6191 1.491 . S
C6197 C6196 1.400 . S
C6197 C6198 1.398 . S
C6198 H6186 0.950 . S
C6198 C6197 1.398 . S
C6198 C6199 1.391 . S
C6199 H6187 0.950 . S
C6199 C6195 1.393 . S
C6199 C6198 1.391 . S
H6200 C6208 0.950 . S
H6201 C6213 0.950 . S
H6202 C6210 0.950 . S
H6203 C6212 0.950 . S
H6204 C6214 0.950 . S
H6205 C6216 0.950 . S
H6206 C6218 0.950 . S
H6207 C6219 0.950 . S
C6208 H6200 0.950 . S
C6208 C6209 1.386 . S
C6208 C6210 1.391 . S
C6209 C6208 1.386 . S
C6209 C6213 1.393 . S
C6210 H6202 0.950 . S
C6210 C6208 1.391 . S
C6210 C6211 1.400 . S
C6211 C6210 1.400 . S
C6211 C6212 1.398 . S
C6211 C6217 1.491 . S
C6212 H6203 0.950 . S
C6212 C6211 1.398 . S
C6212 C6213 1.391 . S
C6213 H6201 0.950 . S
C6213 C6209 1.393 . S
C6213 C6212 1.391 . S
C6214 H6204 0.950 . S
C6214 C6215 1.386 . S
C6214 C6216 1.391 . S
C6215 C6214 1.386 . S
C6215 C6219 1.393 . S
C6216 H6205 0.950 . S
C6216 C6214 1.391 . S
C6216 C6217 1.400 . S
C6217 C6211 1.491 . S
C6217 C6216 1.400 . S
C6217 C6218 1.398 . S
C6218 H6206 0.950 . S
C6218 C6217 1.398 . S
C6218 C6219 1.391 . S
C6219 H6207 0.950 . S
C6219 C6215 1.393 . S
C6219 C6218 1.391 . S
H6220 C6228 0.950 . S
H6221 C6233 0.950 . S
H6222 C6230 0.950 . S
H6223 C6232 0.950 . S
H6224 C6234 0.950 . S
H6225 C6236 0.950 . S
H6226 C6238 0.950 . S
H6227 C6239 0.950 . S
C6228 H6220 0.950 . S
C6228 C6229 1.386 . S
C6228 C6230 1.391 . S
C6229 C6228 1.386 . S
C6229 C6233 1.393 . S
C6230 H6222 0.950 . S
C6230 C6228 1.391 . S
C6230 C6231 1.400 . S
C6231 C6230 1.400 . S
C6231 C6232 1.398 . S
C6231 C6237 1.491 . S
C6232 H6223 0.950 . S
C6232 C6231 1.398 . S
C6232 C6233 1.391 . S
C6233 H6221 0.950 . S
C6233 C6229 1.393 . S
C6233 C6232 1.391 . S
C6234 H6224 0.950 . S
C6234 C6235 1.386 . S
C6234 C6236 1.391 . S
C6235 C6234 1.386 . S
C6235 C6239 1.393 . S
C6236 H6225 0.950 . S
C6236 C6234 1.391 . S
C6236 C6237 1.400 . S
C6237 C6231 1.491 . S
C6237 C6236 1.400 . S
C6237 C6238 1.398 . S
C6238 H6226 0.950 . S
C6238 C6237 1.398 . S
C6238 C6239 1.391 . S
C6239 H6227 0.950 . S
C6239 C6235 1.393 . S
C6239 C6238 1.391 . S
H6240 C6248 0.950 . S
H6241 C6253 0.950 . S
H6242 C6250 0.950 . S
H6243 C6252 0.950 . S
H6244 C6254 0.950 . S
H6245 C6256 0.950 . S
H6246 C6258 0.950 . S
H6247 C6259 0.950 . S
C6248 H6240 0.950 . S
C6248 C6249 1.386 . S
C6248 C6250 1.391 . S
C6249 C6248 1.386 . S
C6249 C6253 1.393 . S
C6250 H6242 0.950 . S
C6250 C6248 1.391 . S
C6250 C6251 1.400 . S
C6251 C6250 1.400 . S
C6251 C6252 1.398 . S
C6251 C6257 1.491 . S
C6252 H6243 0.950 . S
C6252 C6251 1.398 . S
C6252 C6253 1.391 . S
C6253 H6241 0.950 . S
C6253 C6249 1.393 . S
C6253 C6252 1.391 . S
C6254 H6244 0.950 . S
C6254 C6255 1.386 . S
C6254 C6256 1.391 . S
C6255 C6254 1.386 . S
C6255 C6259 1.393 . S
C6256 H6245 0.950 . S
C6256 C6254 1.391 . S
C6256 C6257 1.400 . S
C6257 C6251 1.491 . S
C6257 C6256 1.400 . S
C6257 C6258 1.398 . S
C6258 H6246 0.950 . S
C6258 C6257 1.398 . S
C6258 C6259 1.391 . S
C6259 H6247 0.950 . S
C6259 C6255 1.393 . S
C6259 C6258 1.391 . S
H6260 C6268 0.950 . S
H6261 C6273 0.950 . S
H6262 C6270 0.950 . S
H6263 C6272 0.950 . S
H6264 C6274 0.950 . S
H6265 C6276 0.950 . S
H6266 C6278 0.950 . S
H6267 C6279 0.950 . S
C6268 H6260 0.950 . S
C6268 C6269 1.386 . S
C6268 C6270 1.391 . S
C6269 C6268 1.386 . S
C6269 C6273 1.393 . S
C6270 H6262 0.950 . S
C6270 C6268 1.391 . S
C6270 C6271 1.400 . S
C6271 C6270 1.400 . S
C6271 C6272 1.398 . S
C6271 C6277 1.491 . S
C6272 H6263 0.950 . S
C6272 C6271 1.398 . S
C6272 C6273 1.391 . S
C6273 H6261 0.950 . S
C6273 C6269 1.393 . S
C6273 C6272 1.391 . S
C6274 H6264 0.950 . S
C6274 C6275 1.386 . S
C6274 C6276 1.391 . S
C6275 C6274 1.386 . S
C6275 C6279 1.393 . S
C6276 H6265 0.950 . S
C6276 C6274 1.391 . S
C6276 C6277 1.400 . S
C6277 C6271 1.491 . S
C6277 C6276 1.400 . S
C6277 C6278 1.398 . S
C6278 H6266 0.950 . S
C6278 C6277 1.398 . S
C6278 C6279 1.391 . S
C6279 H6267 0.950 . S
C6279 C6275 1.393 . S
C6279 C6278 1.391 . S
H6280 C6288 0.950 . S
H6281 C6293 0.950 . S
H6282 C6290 0.950 . S
H6283 C6292 0.950 . S
H6284 C6294 0.950 . S
H6285 C6296 0.950 . S
H6286 C6298 0.950 . S
H6287 C6299 0.950 . S
C6288 H6280 0.950 . S
C6288 C6289 1.386 . S
C6288 C6290 1.391 . S
C6289 C6288 1.386 . S
C6289 C6293 1.393 . S
C6290 H6282 0.950 . S
C6290 C6288 1.391 . S
C6290 C6291 1.400 . S
C6291 C6290 1.400 . S
C6291 C6292 1.398 . S
C6291 C6297 1.491 . S
C6292 H6283 0.950 . S
C6292 C6291 1.398 . S
C6292 C6293 1.391 . S
C6293 H6281 0.950 . S
C6293 C6289 1.393 . S
C6293 C6292 1.391 . S
C6294 H6284 0.950 . S
C6294 C6295 1.386 . S
C6294 C6296 1.391 . S
C6295 C6294 1.386 . S
C6295 C6299 1.393 . S
C6296 H6285 0.950 . S
C6296 C6294 1.391 . S
C6296 C6297 1.400 . S
C6297 C6291 1.491 . S
C6297 C6296 1.400 . S
C6297 C6298 1.398 . S
C6298 H6286 0.950 . S
C6298 C6297 1.398 . S
C6298 C6299 1.391 . S
C6299 H6287 0.950 . S
C6299 C6295 1.393 . S
C6299 C6298 1.391 . S
H6300 C6308 0.950 . S
H6301 C6313 0.950 . S
H6302 C6310 0.950 . S
H6303 C6312 0.950 . S
H6304 C6314 0.950 . S
H6305 C6316 0.950 . S
H6306 C6318 0.950 . S
H6307 C6319 0.950 . S
C6308 H6300 0.950 . S
C6308 C6309 1.386 . S
C6308 C6310 1.391 . S
C6309 C6308 1.386 . S
C6309 C6313 1.393 . S
C6310 H6302 0.950 . S
C6310 C6308 1.391 . S
C6310 C6311 1.400 . S
C6311 C6310 1.400 . S
C6311 C6312 1.398 . S
C6311 C6317 1.491 . S
C6312 H6303 0.950 . S
C6312 C6311 1.398 . S
C6312 C6313 1.391 . S
C6313 H6301 0.950 . S
C6313 C6309 1.393 . S
C6313 C6312 1.391 . S
C6314 H6304 0.950 . S
C6314 C6315 1.386 . S
C6314 C6316 1.391 . S
C6315 C6314 1.386 . S
C6315 C6319 1.393 . S
C6316 H6305 0.950 . S
C6316 C6314 1.391 . S
C6316 C6317 1.400 . S
C6317 C6311 1.491 . S
C6317 C6316 1.400 . S
C6317 C6318 1.398 . S
C6318 H6306 0.950 . S
C6318 C6317 1.398 . S
C6318 C6319 1.391 . S
C6319 H6307 0.950 . S
C6319 C6315 1.393 . S
C6319 C6318 1.391 . S
H6320 C6328 0.950 . S
H6321 C6333 0.950 . S
H6322 C6330 0.950 . S
H6323 C6332 0.950 . S
H6324 C6334 0.950 . S
H6325 C6336 0.950 . S
H6326 C6338 0.950 . S
H6327 C6339 0.950 . S
C6328 H6320 0.950 . S
C6328 C6329 1.386 . S
C6328 C6330 1.391 . S
C6329 C6328 1.386 . S
C6329 C6333 1.393 . S
C6330 H6322 0.950 . S
C6330 C6328 1.391 . S
C6330 C6331 1.400 . S
C6331 C6330 1.400 . S
C6331 C6332 1.398 . S
C6331 C6337 1.491 . S
C6332 H6323 0.950 . S
C6332 C6331 1.398 . S
C6332 C6333 1.391 . S
C6333 H6321 0.950 . S
C6333 C6329 1.393 . S
C6333 C6332 1.391 . S
C6334 H6324 0.950 . S
C6334 C6335 1.386 . S
C6334 C6336 1.391 . S
C6335 C6334 1.386 . S
C6335 C6339 1.393 . S
C6336 H6325 0.950 . S
C6336 C6334 1.391 . S
C6336 C6337 1.400 . S
C6337 C6331 1.491 . S
C6337 C6336 1.400 . S
C6337 C6338 1.398 . S
C6338 H6326 0.950 . S
C6338 C6337 1.398 . S
C6338 C6339 1.391 . S
C6339 H6327 0.950 . S
C6339 C6335 1.393 . S
C6339 C6338 1.391 . S
H6340 C6348 0.950 . S
H6341 C6353 0.950 . S
H6342 C6350 0.950 . S
H6343 C6352 0.950 . S
H6344 C6354 0.950 . S
H6345 C6356 0.950 . S
H6346 C6358 0.950 . S
H6347 C6359 0.950 . S
C6348 H6340 0.950 . S
C6348 C6349 1.386 . S
C6348 C6350 1.391 . S
C6349 C6348 1.386 . S
C6349 C6353 1.393 . S
C6350 H6342 0.950 . S
C6350 C6348 1.391 . S
C6350 C6351 1.400 . S
C6351 C6350 1.400 . S
C6351 C6352 1.398 . S
C6351 C6357 1.491 . S
C6352 H6343 0.950 . S
C6352 C6351 1.398 . S
C6352 C6353 1.391 . S
C6353 H6341 0.950 . S
C6353 C6349 1.393 . S
C6353 C6352 1.391 . S
C6354 H6344 0.950 . S
C6354 C6355 1.386 . S
C6354 C6356 1.391 . S
C6355 C6354 1.386 . S
C6355 C6359 1.393 . S
C6356 H6345 0.950 . S
C6356 C6354 1.391 . S
C6356 C6357 1.400 . S
C6357 C6351 1.491 . S
C6357 C6356 1.400 . S
C6357 C6358 1.398 . S
C6358 H6346 0.950 . S
C6358 C6357 1.398 . S
C6358 C6359 1.391 . S
C6359 H6347 0.950 . S
C6359 C6355 1.393 . S
C6359 C6358 1.391 . S
H6360 C6368 0.950 1_554 S
H6361 C6373 0.950 . S
H6362 C6370 0.950 . S
H6363 C6372 0.950 . S
H6364 C6374 0.950 . S
H6365 C6376 0.950 . S
H6366 C6378 0.950 . S
H6367 C6379 0.950 . S
C6368 H6360 0.950 1_556 S
C6368 C6369 1.386 1_556 S
C6368 C6370 1.391 . S
C6369 C6368 1.386 1_554 S
C6369 C6373 1.393 1_554 S
C6370 H6362 0.950 . S
C6370 C6368 1.391 . S
C6370 C6371 1.400 . S
C6371 C6370 1.400 . S
C6371 C6372 1.398 . S
C6371 C6377 1.491 . S
C6372 H6363 0.950 . S
C6372 C6371 1.398 . S
C6372 C6373 1.391 . S
C6373 H6361 0.950 . S
C6373 C6369 1.393 1_556 S
C6373 C6372 1.391 . S
C6374 H6364 0.950 . S
C6374 C6375 1.386 . S
C6374 C6376 1.391 . S
C6375 C6374 1.386 . S
C6375 C6379 1.393 . S
C6376 H6365 0.950 . S
C6376 C6374 1.391 . S
C6376 C6377 1.400 . S
C6377 C6371 1.491 . S
C6377 C6376 1.400 . S
C6377 C6378 1.398 . S
C6378 H6366 0.950 . S
C6378 C6377 1.398 . S
C6378 C6379 1.391 . S
C6379 H6367 0.950 . S
C6379 C6375 1.393 . S
C6379 C6378 1.391 . S
H6380 C6388 0.950 . S
H6381 C6393 0.950 . S
H6382 C6390 0.950 . S
H6383 C6392 0.950 . S
H6384 C6394 0.950 . S
H6385 C6396 0.950 . S
H6386 C6398 0.950 . S
H6387 C6399 0.950 . S
C6388 H6380 0.950 . S
C6388 C6389 1.386 . S
C6388 C6390 1.391 . S
C6389 C6388 1.386 . S
C6389 C6393 1.393 . S
C6390 H6382 0.950 . S
C6390 C6388 1.391 . S
C6390 C6391 1.400 . S
C6391 C6390 1.400 . S
C6391 C6392 1.398 . S
C6391 C6397 1.491 . S
C6392 H6383 0.950 . S
C6392 C6391 1.398 . S
C6392 C6393 1.391 . S
C6393 H6381 0.950 . S
C6393 C6389 1.393 . S
C6393 C6392 1.391 . S
C6394 H6384 0.950 . S
C6394 C6395 1.386 . S
C6394 C6396 1.391 . S
C6395 C6394 1.386 . S
C6395 C6399 1.393 . S
C6396 H6385 0.950 . S
C6396 C6394 1.391 . S
C6396 C6397 1.400 . S
C6397 C6391 1.491 . S
C6397 C6396 1.400 . S
C6397 C6398 1.398 . S
C6398 H6386 0.950 . S
C6398 C6397 1.398 . S
C6398 C6399 1.391 . S
C6399 H6387 0.950 . S
C6399 C6395 1.393 . S
C6399 C6398 1.391 . S
H6400 C6408 0.950 . S
H6401 C6413 0.950 . S
H6402 C6410 0.950 . S
H6403 C6412 0.950 . S
H6404 C6414 0.950 . S
H6405 C6416 0.950 . S
H6406 C6418 0.950 . S
H6407 C6419 0.950 . S
C6408 H6400 0.950 . S
C6408 C6409 1.386 . S
C6408 C6410 1.391 . S
C6409 C6408 1.386 . S
C6409 C6413 1.393 . S
C6410 H6402 0.950 . S
C6410 C6408 1.391 . S
C6410 C6411 1.400 . S
C6411 C6410 1.400 . S
C6411 C6412 1.398 . S
C6411 C6417 1.491 . S
C6412 H6403 0.950 . S
C6412 C6411 1.398 . S
C6412 C6413 1.391 . S
C6413 H6401 0.950 . S
C6413 C6409 1.393 . S
C6413 C6412 1.391 . S
C6414 H6404 0.950 . S
C6414 C6415 1.386 . S
C6414 C6416 1.391 . S
C6415 C6414 1.386 . S
C6415 C6419 1.393 . S
C6416 H6405 0.950 . S
C6416 C6414 1.391 . S
C6416 C6417 1.400 . S
C6417 C6411 1.491 . S
C6417 C6416 1.400 . S
C6417 C6418 1.398 . S
C6418 H6406 0.950 . S
C6418 C6417 1.398 . S
C6418 C6419 1.391 . S
C6419 H6407 0.950 . S
C6419 C6415 1.393 . S
C6419 C6418 1.391 . S
H6420 C6428 0.950 . S
H6421 C6433 0.950 . S
H6422 C6430 0.950 . S
H6423 C6432 0.950 . S
H6424 C6434 0.950 . S
H6425 C6436 0.950 . S
H6426 C6438 0.950 . S
H6427 C6439 0.950 . S
C6428 H6420 0.950 . S
C6428 C6429 1.386 . S
C6428 C6430 1.391 . S
C6429 C6428 1.386 . S
C6429 C6433 1.393 . S
C6430 H6422 0.950 . S
C6430 C6428 1.391 . S
C6430 C6431 1.400 . S
C6431 C6430 1.400 . S
C6431 C6432 1.398 . S
C6431 C6437 1.491 . S
C6432 H6423 0.950 . S
C6432 C6431 1.398 . S
C6432 C6433 1.391 . S
C6433 H6421 0.950 . S
C6433 C6429 1.393 . S
C6433 C6432 1.391 . S
C6434 H6424 0.950 . S
C6434 C6435 1.386 . S
C6434 C6436 1.391 . S
C6435 C6434 1.386 . S
C6435 C6439 1.393 . S
C6436 H6425 0.950 . S
C6436 C6434 1.391 . S
C6436 C6437 1.400 . S
C6437 C6431 1.491 . S
C6437 C6436 1.400 . S
C6437 C6438 1.398 . S
C6438 H6426 0.950 . S
C6438 C6437 1.398 . S
C6438 C6439 1.391 . S
C6439 H6427 0.950 . S
C6439 C6435 1.393 . S
C6439 C6438 1.391 . S
H6440 C6448 0.950 . S
H6441 C6453 0.950 . S
H6442 C6450 0.950 . S
H6443 C6452 0.950 . S
H6444 C6454 0.950 . S
H6445 C6456 0.950 . S
H6446 C6458 0.950 . S
H6447 C6459 0.950 . S
C6448 H6440 0.950 . S
C6448 C6449 1.386 . S
C6448 C6450 1.391 . S
C6449 C6448 1.386 . S
C6449 C6453 1.393 . S
C6450 H6442 0.950 . S
C6450 C6448 1.391 . S
C6450 C6451 1.400 . S
C6451 C6450 1.400 . S
C6451 C6452 1.398 . S
C6451 C6457 1.491 . S
C6452 H6443 0.950 . S
C6452 C6451 1.398 . S
C6452 C6453 1.391 . S
C6453 H6441 0.950 . S
C6453 C6449 1.393 . S
C6453 C6452 1.391 . S
C6454 H6444 0.950 . S
C6454 C6455 1.386 . S
C6454 C6456 1.391 . S
C6455 C6454 1.386 . S
C6455 C6459 1.393 . S
C6456 H6445 0.950 . S
C6456 C6454 1.391 . S
C6456 C6457 1.400 . S
C6457 C6451 1.491 . S
C6457 C6456 1.400 . S
C6457 C6458 1.398 . S
C6458 H6446 0.950 . S
C6458 C6457 1.398 . S
C6458 C6459 1.391 . S
C6459 H6447 0.950 . S
C6459 C6455 1.393 . S
C6459 C6458 1.391 . S
H6460 C6468 0.950 . S
H6461 C6473 0.950 . S
H6462 C6470 0.950 . S
H6463 C6472 0.950 . S
H6464 C6474 0.950 . S
H6465 C6476 0.950 . S
H6466 C6478 0.950 . S
H6467 C6479 0.950 . S
C6468 H6460 0.950 . S
C6468 C6469 1.386 . S
C6468 C6470 1.391 . S
C6469 C6468 1.386 . S
C6469 C6473 1.393 . S
C6470 H6462 0.950 . S
C6470 C6468 1.391 . S
C6470 C6471 1.400 . S
C6471 C6470 1.400 . S
C6471 C6472 1.398 . S
C6471 C6477 1.491 . S
C6472 H6463 0.950 . S
C6472 C6471 1.398 . S
C6472 C6473 1.391 . S
C6473 H6461 0.950 . S
C6473 C6469 1.393 . S
C6473 C6472 1.391 . S
C6474 H6464 0.950 . S
C6474 C6475 1.386 . S
C6474 C6476 1.391 . S
C6475 C6474 1.386 . S
C6475 C6479 1.393 . S
C6476 H6465 0.950 . S
C6476 C6474 1.391 . S
C6476 C6477 1.400 . S
C6477 C6471 1.491 . S
C6477 C6476 1.400 . S
C6477 C6478 1.398 . S
C6478 H6466 0.950 . S
C6478 C6477 1.398 . S
C6478 C6479 1.391 . S
C6479 H6467 0.950 . S
C6479 C6475 1.393 . S
C6479 C6478 1.391 . S
H6480 C6488 0.950 . S
H6481 C6493 0.996 . S
H6482 C6490 0.950 . S
H6483 C6492 0.950 . S
H6484 C6494 0.950 . S
H6485 C6496 0.950 . S
H6486 C6498 0.950 . S
H6487 C6499 0.950 . S
C6488 H6480 0.950 . S
C6488 C6489 1.386 . S
C6488 C6490 1.391 . S
C6489 C6488 1.386 . S
C6489 C6493 1.393 . S
C6490 H6482 0.950 . S
C6490 C6488 1.391 . S
C6490 C6491 1.400 . S
C6491 C6490 1.400 . S
C6491 C6492 1.398 . S
C6491 C6497 1.491 . S
C6492 H6483 0.950 . S
C6492 C6491 1.398 . S
C6492 C6493 1.391 . S
C6493 H6481 0.996 . S
C6493 C6489 1.393 . S
C6493 C6492 1.391 . S
C6494 H6484 0.950 . S
C6494 C6495 1.386 . S
C6494 C6496 1.391 . S
C6495 C6494 1.386 . S
C6495 C6499 1.393 . S
C6496 H6485 0.950 . S
C6496 C6494 1.391 . S
C6496 C6497 1.400 . S
C6497 C6491 1.491 . S
C6497 C6496 1.400 . S
C6497 C6498 1.398 . S
C6498 H6486 0.950 . S
C6498 C6497 1.398 . S
C6498 C6499 1.391 . S
C6499 H6487 0.950 . S
C6499 C6495 1.393 . S
C6499 C6498 1.391 . S
H6500 C6508 0.950 . S
H6501 C6513 0.950 . S
H6502 C6510 0.950 . S
H6503 C6512 0.950 . S
H6504 C6514 0.950 . S
H6505 C6516 0.950 . S
H6506 C6518 0.950 . S
H6507 C6519 0.950 . S
C6508 H6500 0.950 . S
C6508 C6509 1.386 . S
C6508 C6510 1.391 . S
C6509 C6508 1.386 . S
C6509 C6513 1.393 . S
C6510 H6502 0.950 . S
C6510 C6508 1.391 . S
C6510 C6511 1.400 . S
C6511 C6510 1.400 . S
C6511 C6512 1.398 . S
C6511 C6517 1.491 . S
C6512 H6503 0.950 . S
C6512 C6511 1.398 . S
C6512 C6513 1.391 . S
C6513 H6501 0.950 . S
C6513 C6509 1.393 . S
C6513 C6512 1.391 . S
C6514 H6504 0.950 . S
C6514 C6515 1.386 . S
C6514 C6516 1.391 . S
C6515 C6514 1.386 . S
C6515 C6519 1.393 . S
C6516 H6505 0.950 . S
C6516 C6514 1.391 . S
C6516 C6517 1.400 . S
C6517 C6511 1.491 . S
C6517 C6516 1.400 . S
C6517 C6518 1.398 . S
C6518 H6506 0.950 . S
C6518 C6517 1.398 . S
C6518 C6519 1.391 . S
C6519 H6507 0.950 . S
C6519 C6515 1.393 . S
C6519 C6518 1.391 . S
H6520 C6528 0.950 . S
H6521 C6533 0.950 . S
H6522 C6530 0.950 . S
H6523 C6532 0.950 . S
H6524 C6534 0.950 . S
H6525 C6536 0.950 . S
H6526 C6538 0.950 . S
H6527 C6539 0.950 . S
C6528 H6520 0.950 . S
C6528 C6529 1.386 . S
C6528 C6530 1.391 . S
C6529 C6528 1.386 . S
C6529 C6533 1.393 . S
C6530 H6522 0.950 . S
C6530 C6528 1.391 . S
C6530 C6531 1.400 . S
C6531 C6530 1.400 . S
C6531 C6532 1.398 . S
C6531 C6537 1.491 . S
C6532 H6523 0.950 . S
C6532 C6531 1.398 . S
C6532 C6533 1.391 . S
C6533 H6521 0.950 . S
C6533 C6529 1.393 . S
C6533 C6532 1.391 . S
C6534 H6524 0.950 . S
C6534 C6535 1.386 . S
C6534 C6536 1.391 . S
C6535 C6534 1.386 . S
C6535 C6539 1.393 . S
C6536 H6525 0.950 . S
C6536 C6534 1.391 . S
C6536 C6537 1.400 . S
C6537 C6531 1.491 . S
C6537 C6536 1.400 . S
C6537 C6538 1.398 . S
C6538 H6526 0.950 . S
C6538 C6537 1.398 . S
C6538 C6539 1.391 . S
C6539 H6527 0.950 . S
C6539 C6535 1.393 . S
C6539 C6538 1.391 . S
H6540 C6548 0.950 . S
H6541 C6553 0.950 . S
H6542 C6550 0.950 . S
H6543 C6552 0.950 . S
H6544 C6554 0.950 . S
H6545 C6556 0.950 . S
H6546 C6558 0.950 . S
H6547 C6559 0.950 . S
C6548 H6540 0.950 . S
C6548 C6549 1.386 . S
C6548 C6550 1.391 . S
C6549 C6548 1.386 . S
C6549 C6553 1.393 . S
C6550 H6542 0.950 . S
C6550 C6548 1.391 . S
C6550 C6551 1.400 . S
C6551 C6550 1.400 . S
C6551 C6552 1.398 . S
C6551 C6557 1.491 . S
C6552 H6543 0.950 . S
C6552 C6551 1.398 . S
C6552 C6553 1.391 . S
C6553 H6541 0.950 . S
C6553 C6549 1.393 . S
C6553 C6552 1.391 . S
C6554 H6544 0.950 . S
C6554 C6555 1.386 . S
C6554 C6556 1.391 . S
C6555 C6554 1.386 . S
C6555 C6559 1.393 . S
C6556 H6545 0.950 . S
C6556 C6554 1.391 . S
C6556 C6557 1.400 . S
C6557 C6551 1.491 . S
C6557 C6556 1.400 . S
C6557 C6558 1.398 . S
C6558 H6546 0.950 . S
C6558 C6557 1.398 . S
C6558 C6559 1.391 . S
C6559 H6547 0.950 . S
C6559 C6555 1.393 . S
C6559 C6558 1.391 . S
H6560 C6568 0.950 . S
H6561 C6573 0.950 . S
H6562 C6570 0.950 . S
H6563 C6572 0.950 . S
H6564 C6574 0.950 . S
H6565 C6576 0.950 . S
H6566 C6578 0.950 . S
H6567 C6579 0.950 . S
C6568 H6560 0.950 . S
C6568 C6569 1.386 . S
C6568 C6570 1.391 . S
C6569 C6568 1.386 . S
C6569 C6573 1.393 . S
C6570 H6562 0.950 . S
C6570 C6568 1.391 . S
C6570 C6571 1.400 . S
C6571 C6570 1.400 . S
C6571 C6572 1.398 . S
C6571 C6577 1.491 . S
C6572 H6563 0.950 . S
C6572 C6571 1.398 . S
C6572 C6573 1.391 . S
C6573 H6561 0.950 . S
C6573 C6569 1.393 . S
C6573 C6572 1.391 . S
C6574 H6564 0.950 . S
C6574 C6575 1.386 . S
C6574 C6576 1.391 . S
C6575 C6574 1.386 . S
C6575 C6579 1.393 . S
C6576 H6565 0.950 . S
C6576 C6574 1.391 . S
C6576 C6577 1.400 . S
C6577 C6571 1.491 . S
C6577 C6576 1.400 . S
C6577 C6578 1.398 . S
C6578 H6566 0.950 . S
C6578 C6577 1.398 . S
C6578 C6579 1.391 . S
C6579 H6567 0.950 . S
C6579 C6575 1.393 . S
C6579 C6578 1.391 . S
H6580 C6588 0.950 . S
H6581 C6593 0.950 . S
H6582 C6590 0.950 . S
H6583 C6592 0.950 . S
H6584 C6594 0.950 . S
H6585 C6596 0.950 . S
H6586 C6598 0.950 . S
H6587 C6599 0.950 . S
C6588 H6580 0.950 . S
C6588 C6589 1.386 . S
C6588 C6590 1.391 . S
C6589 C6588 1.386 . S
C6589 C6593 1.393 . S
C6590 H6582 0.950 . S
C6590 C6588 1.391 . S
C6590 C6591 1.400 . S
C6591 C6590 1.400 . S
C6591 C6592 1.398 . S
C6591 C6597 1.491 . S
C6592 H6583 0.950 . S
C6592 C6591 1.398 . S
C6592 C6593 1.391 . S
C6593 H6581 0.950 . S
C6593 C6589 1.393 . S
C6593 C6592 1.391 . S
C6594 H6584 0.950 . S
C6594 C6595 1.386 . S
C6594 C6596 1.391 . S
C6595 C6594 1.386 . S
C6595 C6599 1.393 . S
C6596 H6585 0.950 . S
C6596 C6594 1.391 . S
C6596 C6597 1.400 . S
C6597 C6591 1.491 . S
C6597 C6596 1.400 . S
C6597 C6598 1.398 . S
C6598 H6586 0.950 . S
C6598 C6597 1.398 . S
C6598 C6599 1.391 . S
C6599 H6587 0.950 . S
C6599 C6595 1.393 . S
C6599 C6598 1.391 . S
H6600 C6608 0.950 . S
H6601 C6613 0.950 . S
H6602 C6610 0.950 . S
H6603 C6612 0.950 . S
H6604 C6614 0.950 . S
H6605 C6616 0.950 . S
H6606 C6618 0.950 . S
H6607 C6619 0.950 . S
C6608 H6600 0.950 . S
C6608 C6609 1.386 . S
C6608 C6610 1.391 . S
C6609 C6608 1.386 . S
C6609 C6613 1.393 . S
C6610 H6602 0.950 . S
C6610 C6608 1.391 . S
C6610 C6611 1.400 . S
C6611 C6610 1.400 . S
C6611 C6612 1.398 . S
C6611 C6617 1.491 . S
C6612 H6603 0.950 . S
C6612 C6611 1.398 . S
C6612 C6613 1.391 . S
C6613 H6601 0.950 . S
C6613 C6609 1.393 . S
C6613 C6612 1.391 . S
C6614 H6604 0.950 . S
C6614 C6615 1.386 . S
C6614 C6616 1.391 . S
C6615 C6614 1.386 . S
C6615 C6619 1.393 . S
C6616 H6605 0.950 . S
C6616 C6614 1.391 . S
C6616 C6617 1.400 . S
C6617 C6611 1.491 . S
C6617 C6616 1.400 . S
C6617 C6618 1.398 . S
C6618 H6606 0.950 . S
C6618 C6617 1.398 . S
C6618 C6619 1.391 . S
C6619 H6607 0.950 . S
C6619 C6615 1.393 . S
C6619 C6618 1.391 . S
H6620 C6628 0.950 . S
H6621 C6633 0.950 . S
H6622 C6630 0.950 . S
H6623 C6632 0.950 . S
H6624 C6634 0.950 . S
H6625 C6636 0.950 . S
H6626 C6638 0.950 . S
H6627 C6639 0.950 . S
C6628 H6620 0.950 . S
C6628 C6629 1.386 . S
C6628 C6630 1.391 . S
C6629 C6628 1.386 . S
C6629 C6633 1.393 . S
C6630 H6622 0.950 . S
C6630 C6628 1.391 . S
C6630 C6631 1.400 . S
C6631 C6630 1.400 . S
C6631 C6632 1.398 . S
C6631 C6637 1.491 . S
C6632 H6623 0.950 . S
C6632 C6631 1.398 . S
C6632 C6633 1.391 . S
C6633 H6621 0.950 . S
C6633 C6629 1.393 . S
C6633 C6632 1.391 . S
C6634 H6624 0.950 . S
C6634 C6635 1.386 . S
C6634 C6636 1.391 . S
C6635 C6634 1.386 . S
C6635 C6639 1.393 . S
C6636 H6625 0.950 . S
C6636 C6634 1.391 . S
C6636 C6637 1.400 . S
C6637 C6631 1.491 . S
C6637 C6636 1.400 . S
C6637 C6638 1.398 . S
C6638 H6626 0.950 . S
C6638 C6637 1.398 . S
C6638 C6639 1.391 . S
C6639 H6627 0.950 . S
C6639 C6635 1.393 . S
C6639 C6638 1.391 . S
H6640 C6648 0.950 . S
H6641 C6653 0.950 . S
H6642 C6650 0.950 . S
H6643 C6652 0.950 . S
H6644 C6654 0.950 . S
H6645 C6656 0.950 . S
H6646 C6658 0.950 . S
H6647 C6659 0.950 . S
C6648 H6640 0.950 . S
C6648 C6649 1.386 . S
C6648 C6650 1.391 . S
C6649 C6648 1.386 . S
C6649 C6653 1.393 . S
C6650 H6642 0.950 . S
C6650 C6648 1.391 . S
C6650 C6651 1.400 . S
C6651 C6650 1.400 . S
C6651 C6652 1.398 . S
C6651 C6657 1.491 . S
C6652 H6643 0.950 . S
C6652 C6651 1.398 . S
C6652 C6653 1.391 . S
C6653 H6641 0.950 . S
C6653 C6649 1.393 . S
C6653 C6652 1.391 . S
C6654 H6644 0.950 . S
C6654 C6655 1.386 . S
C6654 C6656 1.391 . S
C6655 C6654 1.386 . S
C6655 C6659 1.393 . S
C6656 H6645 0.950 . S
C6656 C6654 1.391 . S
C6656 C6657 1.400 . S
C6657 C6651 1.491 . S
C6657 C6656 1.400 . S
C6657 C6658 1.398 . S
C6658 H6646 0.950 . S
C6658 C6657 1.398 . S
C6658 C6659 1.391 . S
C6659 H6647 0.950 . S
C6659 C6655 1.393 . S
C6659 C6658 1.391 . S
H6660 C6668 0.950 . S
H6661 C6673 0.950 . S
H6662 C6670 0.950 . S
H6663 C6672 0.950 . S
H6664 C6674 0.950 1_545 S
H6665 C6676 0.950 . S
H6666 C6678 0.950 . S
H6667 C6679 0.950 . S
C6668 H6660 0.950 . S
C6668 C6669 1.386 . S
C6668 C6670 1.391 . S
C6669 C6668 1.386 . S
C6669 C6673 1.393 . S
C6670 H6662 0.950 . S
C6670 C6668 1.391 . S
C6670 C6671 1.400 . S
C6671 C6670 1.400 . S
C6671 C6672 1.398 . S
C6671 C6677 1.491 . S
C6672 H6663 0.950 . S
C6672 C6671 1.398 . S
C6672 C6673 1.391 . S
C6673 H6661 0.950 . S
C6673 C6669 1.393 . S
C6673 C6672 1.391 . S
C6674 H6664 0.950 1_565 S
C6674 C6675 1.386 . S
C6674 C6676 1.391 . S
C6675 C6674 1.386 . S
C6675 C6679 1.393 . S
C6676 H6665 0.950 . S
C6676 C6674 1.391 . S
C6676 C6677 1.400 . S
C6677 C6671 1.491 . S
C6677 C6676 1.400 . S
C6677 C6678 1.398 . S
C6678 H6666 0.950 . S
C6678 C6677 1.398 . S
C6678 C6679 1.391 . S
C6679 H6667 0.950 . S
C6679 C6675 1.393 . S
C6679 C6678 1.391 . S
H6680 C6688 0.950 . S
H6681 C6693 0.950 . S
H6682 C6690 0.950 . S
H6683 C6692 0.950 . S
H6684 C6694 0.950 . S
H6685 C6696 0.950 . S
H6686 C6698 0.950 . S
H6687 C6699 0.950 . S
C6688 H6680 0.950 . S
C6688 C6689 1.386 . S
C6688 C6690 1.391 . S
C6689 C6688 1.386 . S
C6689 C6693 1.393 . S
C6690 H6682 0.950 . S
C6690 C6688 1.391 . S
C6690 C6691 1.400 . S
C6691 C6690 1.400 . S
C6691 C6692 1.398 . S
C6691 C6697 1.491 . S
C6692 H6683 0.950 . S
C6692 C6691 1.398 . S
C6692 C6693 1.391 . S
C6693 H6681 0.950 . S
C6693 C6689 1.393 . S
C6693 C6692 1.391 . S
C6694 H6684 0.950 . S
C6694 C6695 1.386 . S
C6694 C6696 1.391 . S
C6695 C6694 1.386 . S
C6695 C6699 1.393 . S
C6696 H6685 0.950 . S
C6696 C6694 1.391 . S
C6696 C6697 1.400 . S
C6697 C6691 1.491 . S
C6697 C6696 1.400 . S
C6697 C6698 1.398 . S
C6698 H6686 0.950 . S
C6698 C6697 1.398 . S
C6698 C6699 1.391 . S
C6699 H6687 0.950 . S
C6699 C6695 1.393 . S
C6699 C6698 1.391 . S
H6700 C6708 0.950 . S
H6701 C6713 0.950 . S
H6702 C6710 0.950 . S
H6703 C6712 0.950 . S
H6704 C6714 0.950 . S
H6705 C6716 0.950 . S
H6706 C6718 0.950 . S
H6707 C6719 0.950 . S
C6708 H6700 0.950 . S
C6708 C6709 1.386 . S
C6708 C6710 1.391 . S
C6709 C6708 1.386 . S
C6709 C6713 1.393 . S
C6710 H6702 0.950 . S
C6710 C6708 1.391 . S
C6710 C6711 1.400 . S
C6711 C6710 1.400 . S
C6711 C6712 1.398 . S
C6711 C6717 1.491 . S
C6712 H6703 0.950 . S
C6712 C6711 1.398 . S
C6712 C6713 1.391 . S
C6713 H6701 0.950 . S
C6713 C6709 1.393 . S
C6713 C6712 1.391 . S
C6714 H6704 0.950 . S
C6714 C6715 1.386 . S
C6714 C6716 1.391 . S
C6715 C6714 1.386 . S
C6715 C6719 1.393 . S
C6716 H6705 0.950 . S
C6716 C6714 1.391 . S
C6716 C6717 1.400 . S
C6717 C6711 1.491 . S
C6717 C6716 1.400 . S
C6717 C6718 1.398 . S
C6718 H6706 0.950 . S
C6718 C6717 1.398 . S
C6718 C6719 1.391 . S
C6719 H6707 0.950 . S
C6719 C6715 1.393 . S
C6719 C6718 1.391 . S
H6720 C6728 0.950 . S
H6721 C6733 0.950 . S
H6722 C6730 0.950 . S
H6723 C6732 0.950 . S
H6724 C6734 0.950 . S
H6725 C6736 0.950 . S
H6726 C6738 0.950 . S
H6727 C6739 0.950 . S
C6728 H6720 0.950 . S
C6728 C6729 1.386 . S
C6728 C6730 1.391 . S
C6729 C6728 1.386 . S
C6729 C6733 1.393 . S
C6730 H6722 0.950 . S
C6730 C6728 1.391 . S
C6730 C6731 1.400 . S
C6731 C6730 1.400 . S
C6731 C6732 1.398 . S
C6731 C6737 1.491 . S
C6732 H6723 0.950 . S
C6732 C6731 1.398 . S
C6732 C6733 1.391 . S
C6733 H6721 0.950 . S
C6733 C6729 1.393 . S
C6733 C6732 1.391 . S
C6734 H6724 0.950 . S
C6734 C6735 1.386 . S
C6734 C6736 1.391 . S
C6735 C6734 1.386 . S
C6735 C6739 1.393 . S
C6736 H6725 0.950 . S
C6736 C6734 1.391 . S
C6736 C6737 1.400 . S
C6737 C6731 1.491 . S
C6737 C6736 1.400 . S
C6737 C6738 1.398 . S
C6738 H6726 0.950 . S
C6738 C6737 1.398 . S
C6738 C6739 1.391 . S
C6739 H6727 0.950 . S
C6739 C6735 1.393 . S
C6739 C6738 1.391 . S
H6740 C6748 0.950 . S
H6741 C6753 0.950 . S
H6742 C6750 0.950 . S
H6743 C6752 0.950 . S
H6744 C6754 0.950 . S
H6745 C6756 0.950 . S
H6746 C6758 0.950 . S
H6747 C6759 0.950 . S
C6748 H6740 0.950 . S
C6748 C6749 1.386 . S
C6748 C6750 1.391 . S
C6749 C6748 1.386 . S
C6749 C6753 1.393 . S
C6750 H6742 0.950 . S
C6750 C6748 1.391 . S
C6750 C6751 1.400 . S
C6751 C6750 1.400 . S
C6751 C6752 1.398 . S
C6751 C6757 1.491 . S
C6752 H6743 0.950 . S
C6752 C6751 1.398 . S
C6752 C6753 1.391 . S
C6753 H6741 0.950 . S
C6753 C6749 1.393 . S
C6753 C6752 1.391 . S
C6754 H6744 0.950 . S
C6754 C6755 1.386 . S
C6754 C6756 1.391 . S
C6755 C6754 1.386 . S
C6755 C6759 1.393 . S
C6756 H6745 0.950 . S
C6756 C6754 1.391 . S
C6756 C6757 1.400 . S
C6757 C6751 1.491 . S
C6757 C6756 1.400 . S
C6757 C6758 1.398 . S
C6758 H6746 0.950 . S
C6758 C6757 1.398 . S
C6758 C6759 1.391 . S
C6759 H6747 0.950 . S
C6759 C6755 1.393 . S
C6759 C6758 1.391 . S
H6760 C6768 0.950 . S
H6761 C6773 0.950 . S
H6762 C6770 0.950 . S
H6763 C6772 0.950 . S
H6764 C6774 0.950 . S
H6765 C6776 0.950 . S
H6766 C6778 0.950 . S
H6767 C6779 0.950 . S
C6768 H6760 0.950 . S
C6768 C6769 1.386 . S
C6768 C6770 1.391 . S
C6769 C6768 1.386 . S
C6769 C6773 1.393 . S
C6770 H6762 0.950 . S
C6770 C6768 1.391 . S
C6770 C6771 1.400 . S
C6771 C6770 1.400 . S
C6771 C6772 1.398 . S
C6771 C6777 1.491 . S
C6772 H6763 0.950 . S
C6772 C6771 1.398 . S
C6772 C6773 1.391 . S
C6773 H6761 0.950 . S
C6773 C6769 1.393 . S
C6773 C6772 1.391 . S
C6774 H6764 0.950 . S
C6774 C6775 1.386 . S
C6774 C6776 1.391 . S
C6775 C6774 1.386 . S
C6775 C6779 1.393 . S
C6776 H6765 0.950 . S
C6776 C6774 1.391 . S
C6776 C6777 1.400 . S
C6777 C6771 1.491 . S
C6777 C6776 1.400 . S
C6777 C6778 1.398 . S
C6778 H6766 0.950 . S
C6778 C6777 1.398 . S
C6778 C6779 1.391 . S
C6779 H6767 0.950 . S
C6779 C6775 1.393 . S
C6779 C6778 1.391 . S
H6780 C6788 0.950 . S
H6781 C6793 0.950 . S
H6782 C6790 0.950 . S
H6783 C6792 0.950 . S
H6784 C6794 0.950 . S
H6785 C6796 0.950 . S
H6786 C6798 0.950 . S
H6787 C6799 0.950 . S
C6788 H6780 0.950 . S
C6788 C6789 1.386 . S
C6788 C6790 1.391 . S
C6789 C6788 1.386 . S
C6789 C6793 1.393 . S
C6790 H6782 0.950 . S
C6790 C6788 1.391 . S
C6790 C6791 1.400 . S
C6791 C6790 1.400 . S
C6791 C6792 1.398 . S
C6791 C6797 1.491 . S
C6792 H6783 0.950 . S
C6792 C6791 1.398 . S
C6792 C6793 1.391 . S
C6793 H6781 0.950 . S
C6793 C6789 1.393 . S
C6793 C6792 1.391 . S
C6794 H6784 0.950 . S
C6794 C6795 1.386 . S
C6794 C6796 1.391 . S
C6795 C6794 1.386 . S
C6795 C6799 1.393 . S
C6796 H6785 0.950 . S
C6796 C6794 1.391 . S
C6796 C6797 1.400 . S
C6797 C6791 1.491 . S
C6797 C6796 1.400 . S
C6797 C6798 1.398 . S
C6798 H6786 0.950 . S
C6798 C6797 1.398 . S
C6798 C6799 1.391 . S
C6799 H6787 0.950 . S
C6799 C6795 1.393 . S
C6799 C6798 1.391 . S
H6800 C6808 0.950 . S
H6801 C6813 0.950 . S
H6802 C6810 0.950 . S
H6803 C6812 0.950 . S
H6804 C6814 0.950 . S
H6805 C6816 0.950 . S
H6806 C6818 0.950 . S
H6807 C6819 0.950 . S
C6808 H6800 0.950 . S
C6808 C6809 1.386 . S
C6808 C6810 1.391 . S
C6809 C6808 1.386 . S
C6809 C6813 1.393 . S
C6810 H6802 0.950 . S
C6810 C6808 1.391 . S
C6810 C6811 1.400 . S
C6811 C6810 1.400 . S
C6811 C6812 1.398 . S
C6811 C6817 1.491 . S
C6812 H6803 0.950 . S
C6812 C6811 1.398 . S
C6812 C6813 1.391 . S
C6813 H6801 0.950 . S
C6813 C6809 1.393 . S
C6813 C6812 1.391 . S
C6814 H6804 0.950 . S
C6814 C6815 1.386 . S
C6814 C6816 1.391 . S
C6815 C6814 1.386 . S
C6815 C6819 1.393 . S
C6816 H6805 0.950 . S
C6816 C6814 1.391 . S
C6816 C6817 1.400 . S
C6817 C6811 1.491 . S
C6817 C6816 1.400 . S
C6817 C6818 1.398 . S
C6818 H6806 0.950 . S
C6818 C6817 1.398 . S
C6818 C6819 1.391 . S
C6819 H6807 0.950 . S
C6819 C6815 1.393 . S
C6819 C6818 1.391 . S
H6820 C6828 0.950 . S
H6821 C6833 0.950 . S
H6822 C6830 0.950 . S
H6823 C6832 0.950 . S
H6824 C6834 0.950 . S
H6825 C6836 0.950 . S
H6826 C6838 0.950 . S
H6827 C6839 0.950 . S
C6828 H6820 0.950 . S
C6828 C6829 1.386 . S
C6828 C6830 1.391 . S
C6829 C6828 1.386 . S
C6829 C6833 1.393 . S
C6830 H6822 0.950 . S
C6830 C6828 1.391 . S
C6830 C6831 1.400 . S
C6831 C6830 1.400 . S
C6831 C6832 1.398 . S
C6831 C6837 1.491 . S
C6832 H6823 0.950 . S
C6832 C6831 1.398 . S
C6832 C6833 1.391 . S
C6833 H6821 0.950 . S
C6833 C6829 1.393 . S
C6833 C6832 1.391 . S
C6834 H6824 0.950 . S
C6834 C6835 1.386 . S
C6834 C6836 1.391 . S
C6835 C6834 1.386 . S
C6835 C6839 1.393 . S
C6836 H6825 0.950 . S
C6836 C6834 1.391 . S
C6836 C6837 1.400 . S
C6837 C6831 1.491 . S
C6837 C6836 1.400 . S
C6837 C6838 1.398 . S
C6838 H6826 0.950 . S
C6838 C6837 1.398 . S
C6838 C6839 1.391 . S
C6839 H6827 0.950 . S
C6839 C6835 1.393 . S
C6839 C6838 1.391 . S
H6840 C6848 0.950 . S
H6841 C6853 0.950 . S
H6842 C6850 0.950 . S
H6843 C6852 0.950 . S
H6844 C6854 0.950 . S
H6845 C6856 0.950 . S
H6846 C6858 0.950 . S
H6847 C6859 0.950 . S
C6848 H6840 0.950 . S
C6848 C6849 1.386 . S
C6848 C6850 1.391 . S
C6849 C6848 1.386 . S
C6849 C6853 1.393 . S
C6850 H6842 0.950 . S
C6850 C6848 1.391 . S
C6850 C6851 1.400 . S
C6851 C6850 1.400 . S
C6851 C6852 1.398 . S
C6851 C6857 1.491 . S
C6852 H6843 0.950 . S
C6852 C6851 1.398 . S
C6852 C6853 1.391 . S
C6853 H6841 0.950 . S
C6853 C6849 1.393 . S
C6853 C6852 1.391 . S
C6854 H6844 0.950 . S
C6854 C6855 1.386 . S
C6854 C6856 1.391 . S
C6855 C6854 1.386 . S
C6855 C6859 1.393 . S
C6856 H6845 0.950 . S
C6856 C6854 1.391 . S
C6856 C6857 1.400 . S
C6857 C6851 1.491 . S
C6857 C6856 1.400 . S
C6857 C6858 1.398 . S
C6858 H6846 0.950 . S
C6858 C6857 1.398 . S
C6858 C6859 1.391 . S
C6859 H6847 0.950 . S
C6859 C6855 1.393 . S
C6859 C6858 1.391 . S
H6860 C6868 0.950 . S
H6861 C6873 0.950 . S
H6862 C6870 0.950 . S
H6863 C6872 0.950 . S
H6864 C6874 0.950 . S
H6865 C6876 0.950 . S
H6866 C6878 0.950 . S
H6867 C6879 0.950 . S
C6868 H6860 0.950 . S
C6868 C6869 1.386 . S
C6868 C6870 1.391 . S
C6869 C6868 1.386 . S
C6869 C6873 1.393 . S
C6870 H6862 0.950 . S
C6870 C6868 1.391 . S
C6870 C6871 1.400 . S
C6871 C6870 1.400 . S
C6871 C6872 1.398 . S
C6871 C6877 1.491 . S
C6872 H6863 0.950 . S
C6872 C6871 1.398 . S
C6872 C6873 1.391 . S
C6873 H6861 0.950 . S
C6873 C6869 1.393 . S
C6873 C6872 1.391 . S
C6874 H6864 0.950 . S
C6874 C6875 1.386 . S
C6874 C6876 1.391 . S
C6875 C6874 1.386 . S
C6875 C6879 1.393 . S
C6876 H6865 0.950 . S
C6876 C6874 1.391 . S
C6876 C6877 1.400 . S
C6877 C6871 1.491 . S
C6877 C6876 1.400 . S
C6877 C6878 1.398 . S
C6878 H6866 0.950 . S
C6878 C6877 1.398 . S
C6878 C6879 1.391 . S
C6879 H6867 0.950 . S
C6879 C6875 1.393 . S
C6879 C6878 1.391 . S
H6880 C6888 0.950 . S
H6881 C6893 0.950 . S
H6882 C6890 0.950 . S
H6883 C6892 0.950 . S
H6884 C6894 0.950 . S
H6885 C6896 0.950 . S
H6886 C6898 0.950 . S
H6887 C6899 0.950 . S
C6888 H6880 0.950 . S
C6888 C6889 1.386 . S
C6888 C6890 1.391 . S
C6889 C6888 1.386 . S
C6889 C6893 1.393 . S
C6890 H6882 0.950 . S
C6890 C6888 1.391 . S
C6890 C6891 1.400 . S
C6891 C6890 1.400 . S
C6891 C6892 1.398 . S
C6891 C6897 1.491 . S
C6892 H6883 0.950 . S
C6892 C6891 1.398 . S
C6892 C6893 1.391 . S
C6893 H6881 0.950 . S
C6893 C6889 1.393 . S
C6893 C6892 1.391 . S
C6894 H6884 0.950 . S
C6894 C6895 1.386 . S
C6894 C6896 1.391 . S
C6895 C6894 1.386 . S
C6895 C6899 1.393 . S
C6896 H6885 0.950 . S
C6896 C6894 1.391 . S
C6896 C6897 1.400 . S
C6897 C6891 1.491 . S
C6897 C6896 1.400 . S
C6897 C6898 1.398 . S
C6898 H6886 0.950 . S
C6898 C6897 1.398 . S
C6898 C6899 1.391 . S
C6899 H6887 0.950 . S
C6899 C6895 1.393 . S
C6899 C6898 1.391 . S
H6900 C6908 0.950 . S
H6901 C6913 0.950 . S
H6902 C6910 0.950 . S
H6903 C6912 0.950 . S
H6904 C6914 0.950 . S
H6905 C6916 0.950 . S
H6906 C6918 0.950 . S
H6907 C6919 0.950 . S
C6908 H6900 0.950 . S
C6908 C6909 1.386 . S
C6908 C6910 1.391 . S
C6909 C6908 1.386 . S
C6909 C6913 1.393 . S
C6910 H6902 0.950 . S
C6910 C6908 1.391 . S
C6910 C6911 1.400 . S
C6911 C6910 1.400 . S
C6911 C6912 1.398 . S
C6911 C6917 1.491 . S
C6912 H6903 0.950 . S
C6912 C6911 1.398 . S
C6912 C6913 1.391 . S
C6913 H6901 0.950 . S
C6913 C6909 1.393 . S
C6913 C6912 1.391 . S
C6914 H6904 0.950 . S
C6914 C6915 1.386 . S
C6914 C6916 1.391 . S
C6915 C6914 1.386 . S
C6915 C6919 1.393 . S
C6916 H6905 0.950 . S
C6916 C6914 1.391 . S
C6916 C6917 1.400 . S
C6917 C6911 1.491 . S
C6917 C6916 1.400 . S
C6917 C6918 1.398 . S
C6918 H6906 0.950 . S
C6918 C6917 1.398 . S
C6918 C6919 1.391 . S
C6919 H6907 0.950 . S
C6919 C6915 1.393 . S
C6919 C6918 1.391 . S
H6920 C6928 0.950 . S
H6921 C6933 0.950 . S
H6922 C6930 0.950 . S
H6923 C6932 0.950 . S
H6924 C6934 0.950 . S
H6925 C6936 0.950 . S
H6926 C6938 0.950 . S
H6927 C6939 0.950 . S
C6928 H6920 0.950 . S
C6928 C6929 1.386 . S
C6928 C6930 1.391 . S
C6929 C6928 1.386 . S
C6929 C6933 1.393 . S
C6930 H6922 0.950 . S
C6930 C6928 1.391 . S
C6930 C6931 1.400 . S
C6931 C6930 1.400 . S
C6931 C6932 1.398 . S
C6931 C6937 1.491 . S
C6932 H6923 0.950 . S
C6932 C6931 1.398 . S
C6932 C6933 1.391 . S
C6933 H6921 0.950 . S
C6933 C6929 1.393 . S
C6933 C6932 1.391 . S
C6934 H6924 0.950 . S
C6934 C6935 1.386 . S
C6934 C6936 1.391 . S
C6935 C6934 1.386 . S
C6935 C6939 1.393 . S
C6936 H6925 0.950 . S
C6936 C6934 1.391 . S
C6936 C6937 1.400 . S
C6937 C6931 1.491 . S
C6937 C6936 1.400 . S
C6937 C6938 1.398 . S
C6938 H6926 0.950 . S
C6938 C6937 1.398 . S
C6938 C6939 1.391 . S
C6939 H6927 0.950 . S
C6939 C6935 1.393 . S
C6939 C6938 1.391 . S
H6940 C6948 0.950 . S
H6941 C6953 0.950 . S
H6942 C6950 0.950 . S
H6943 C6952 0.950 . S
H6944 C6954 0.950 . S
H6945 C6956 0.950 . S
H6946 C6958 0.950 . S
H6947 C6959 0.950 . S
C6948 H6940 0.950 . S
C6948 C6949 1.386 . S
C6948 C6950 1.391 . S
C6949 C6948 1.386 . S
C6949 C6953 1.393 . S
C6950 H6942 0.950 . S
C6950 C6948 1.391 . S
C6950 C6951 1.400 . S
C6951 C6950 1.400 . S
C6951 C6952 1.398 . S
C6951 C6957 1.491 . S
C6952 H6943 0.950 . S
C6952 C6951 1.398 . S
C6952 C6953 1.391 . S
C6953 H6941 0.950 . S
C6953 C6949 1.393 . S
C6953 C6952 1.391 . S
C6954 H6944 0.950 . S
C6954 C6955 1.386 . S
C6954 C6956 1.391 . S
C6955 C6954 1.386 . S
C6955 C6959 1.393 . S
C6956 H6945 0.950 . S
C6956 C6954 1.391 . S
C6956 C6957 1.400 . S
C6957 C6951 1.491 . S
C6957 C6956 1.400 . S
C6957 C6958 1.398 . S
C6958 H6946 0.950 . S
C6958 C6957 1.398 . S
C6958 C6959 1.391 . S
C6959 H6947 0.950 . S
C6959 C6955 1.393 . S
C6959 C6958 1.391 . S
H6960 C6968 0.950 . S
H6961 C6973 0.950 . S
H6962 C6970 0.950 . S
H6963 C6972 0.950 . S
H6964 C6974 0.950 . S
H6965 C6976 0.950 . S
H6966 C6978 0.950 . S
H6967 C6979 0.950 . S
C6968 H6960 0.950 . S
C6968 C6969 1.386 . S
C6968 C6970 1.391 . S
C6969 C6968 1.386 . S
C6969 C6973 1.393 . S
C6970 H6962 0.950 . S
C6970 C6968 1.391 . S
C6970 C6971 1.400 . S
C6971 C6970 1.400 . S
C6971 C6972 1.398 . S
C6971 C6977 1.491 . S
C6972 H6963 0.950 . S
C6972 C6971 1.398 . S
C6972 C6973 1.391 . S
C6973 H6961 0.950 . S
C6973 C6969 1.393 . S
C6973 C6972 1.391 . S
C6974 H6964 0.950 . S
C6974 C6975 1.386 . S
C6974 C6976 1.391 . S
C6975 C6974 1.386 . S
C6975 C6979 1.393 . S
C6976 H6965 0.950 . S
C6976 C6974 1.391 . S
C6976 C6977 1.400 . S
C6977 C6971 1.491 . S
C6977 C6976 1.400 . S
C6977 C6978 1.398 . S
C6978 H6966 0.950 . S
C6978 C6977 1.398 . S
C6978 C6979 1.391 . S
C6979 H6967 0.950 . S
C6979 C6975 1.393 . S
C6979 C6978 1.391 . S
H6980 C6988 0.950 . S
H6981 C6993 0.950 . S
H6982 C6990 0.950 . S
H6983 C6992 0.950 . S
H6984 C6994 0.950 . S
H6985 C6996 0.950 . S
H6986 C6998 0.950 . S
H6987 C6999 0.950 . S
C6988 H6980 0.950 . S
C6988 C6989 1.386 . S
C6988 C6990 1.391 . S
C6989 C6988 1.386 . S
C6989 C6993 1.393 . S
C6990 H6982 0.950 . S
C6990 C6988 1.391 . S
C6990 C6991 1.400 . S
C6991 C6990 1.400 . S
C6991 C6992 1.398 . S
C6991 C6997 1.491 . S
C6992 H6983 0.950 . S
C6992 C6991 1.398 . S
C6992 C6993 1.391 . S
C6993 H6981 0.950 . S
C6993 C6989 1.393 . S
C6993 C6992 1.391 . S
C6994 H6984 0.950 . S
C6994 C6995 1.386 . S
C6994 C6996 1.391 . S
C6995 C6994 1.386 . S
C6995 C6999 1.393 . S
C6996 H6985 0.950 . S
C6996 C6994 1.391 . S
C6996 C6997 1.400 . S
C6997 C6991 1.491 . S
C6997 C6996 1.400 . S
C6997 C6998 1.398 . S
C6998 H6986 0.950 . S
C6998 C6997 1.398 . S
C6998 C6999 1.391 . S
C6999 H6987 0.950 . S
C6999 C6995 1.393 . S
C6999 C6998 1.391 . S
H7000 C7008 0.950 . S
H7001 C7013 0.950 . S
H7002 C7010 0.950 . S
H7003 C7012 0.950 . S
H7004 C7014 0.950 . S
H7005 C7016 0.950 . S
H7006 C7018 0.950 . S
H7007 C7019 0.950 . S
C7008 H7000 0.950 . S
C7008 C7009 1.386 . S
C7008 C7010 1.391 . S
C7009 C7008 1.386 . S
C7009 C7013 1.393 . S
C7010 H7002 0.950 . S
C7010 C7008 1.391 . S
C7010 C7011 1.400 . S
C7011 C7010 1.400 . S
C7011 C7012 1.398 . S
C7011 C7017 1.491 . S
C7012 H7003 0.950 . S
C7012 C7011 1.398 . S
C7012 C7013 1.391 . S
C7013 H7001 0.950 . S
C7013 C7009 1.393 . S
C7013 C7012 1.391 . S
C7014 H7004 0.950 . S
C7014 C7015 1.386 . S
C7014 C7016 1.391 . S
C7015 C7014 1.386 . S
C7015 C7019 1.393 . S
C7016 H7005 0.950 . S
C7016 C7014 1.391 . S
C7016 C7017 1.400 . S
C7017 C7011 1.491 . S
C7017 C7016 1.400 . S
C7017 C7018 1.398 . S
C7018 H7006 0.950 . S
C7018 C7017 1.398 . S
C7018 C7019 1.391 . S
C7019 H7007 0.950 . S
C7019 C7015 1.393 . S
C7019 C7018 1.391 . S
H7020 C7028 0.950 . S
H7021 C7033 0.950 . S
H7022 C7030 0.950 . S
H7023 C7032 0.950 . S
H7024 C7034 0.950 . S
H7025 C7036 0.950 . S
H7026 C7038 0.950 . S
H7027 C7039 0.950 . S
C7028 H7020 0.950 . S
C7028 C7029 1.386 . S
C7028 C7030 1.391 . S
C7029 C7028 1.386 . S
C7029 C7033 1.393 . S
C7030 H7022 0.950 . S
C7030 C7028 1.391 . S
C7030 C7031 1.400 . S
C7031 C7030 1.400 . S
C7031 C7032 1.398 . S
C7031 C7037 1.491 . S
C7032 H7023 0.950 . S
C7032 C7031 1.398 . S
C7032 C7033 1.391 . S
C7033 H7021 0.950 . S
C7033 C7029 1.393 . S
C7033 C7032 1.391 . S
C7034 H7024 0.950 . S
C7034 C7035 1.386 . S
C7034 C7036 1.391 . S
C7035 C7034 1.386 . S
C7035 C7039 1.393 . S
C7036 H7025 0.950 . S
C7036 C7034 1.391 . S
C7036 C7037 1.400 . S
C7037 C7031 1.491 . S
C7037 C7036 1.400 . S
C7037 C7038 1.398 . S
C7038 H7026 0.950 . S
C7038 C7037 1.398 . S
C7038 C7039 1.391 . S
C7039 H7027 0.950 . S
C7039 C7035 1.393 . S
C7039 C7038 1.391 . S
H7040 C7048 0.950 . S
H7041 C7053 0.950 . S
H7042 C7050 0.950 . S
H7043 C7052 0.950 . S
H7044 C7054 0.950 . S
H7045 C7056 0.950 . S
H7046 C7058 0.950 . S
H7047 C7059 0.950 . S
C7048 H7040 0.950 . S
C7048 C7049 1.386 . S
C7048 C7050 1.391 . S
C7049 C7048 1.386 . S
C7049 C7053 1.393 . S
C7050 H7042 0.950 . S
C7050 C7048 1.391 . S
C7050 C7051 1.400 . S
C7051 C7050 1.400 . S
C7051 C7052 1.398 . S
C7051 C7057 1.491 . S
C7052 H7043 0.950 . S
C7052 C7051 1.398 . S
C7052 C7053 1.391 . S
C7053 H7041 0.950 . S
C7053 C7049 1.393 . S
C7053 C7052 1.391 . S
C7054 H7044 0.950 . S
C7054 C7055 1.386 . S
C7054 C7056 1.391 . S
C7055 C7054 1.386 . S
C7055 C7059 1.393 . S
C7056 H7045 0.950 . S
C7056 C7054 1.391 . S
C7056 C7057 1.400 . S
C7057 C7051 1.491 . S
C7057 C7056 1.400 . S
C7057 C7058 1.398 . S
C7058 H7046 0.950 . S
C7058 C7057 1.398 . S
C7058 C7059 1.391 . S
C7059 H7047 0.950 . S
C7059 C7055 1.393 . S
C7059 C7058 1.391 . S
H7060 C7068 0.950 . S
H7061 C7073 0.950 . S
H7062 C7070 0.950 . S
H7063 C7072 0.950 . S
H7064 C7074 0.950 . S
H7065 C7076 0.950 . S
H7066 C7078 0.950 . S
H7067 C7079 0.950 . S
C7068 H7060 0.950 . S
C7068 C7069 1.386 . S
C7068 C7070 1.391 . S
C7069 C7068 1.386 . S
C7069 C7073 1.393 . S
C7070 H7062 0.950 . S
C7070 C7068 1.391 . S
C7070 C7071 1.400 . S
C7071 C7070 1.400 . S
C7071 C7072 1.398 . S
C7071 C7077 1.491 . S
C7072 H7063 0.950 . S
C7072 C7071 1.398 . S
C7072 C7073 1.391 . S
C7073 H7061 0.950 . S
C7073 C7069 1.393 . S
C7073 C7072 1.391 . S
C7074 H7064 0.950 . S
C7074 C7075 1.386 . S
C7074 C7076 1.391 . S
C7075 C7074 1.386 . S
C7075 C7079 1.393 . S
C7076 H7065 0.950 . S
C7076 C7074 1.391 . S
C7076 C7077 1.400 . S
C7077 C7071 1.491 . S
C7077 C7076 1.400 . S
C7077 C7078 1.398 . S
C7078 H7066 0.950 . S
C7078 C7077 1.398 . S
C7078 C7079 1.391 . S
C7079 H7067 0.950 . S
C7079 C7075 1.393 . S
C7079 C7078 1.391 . S
H7080 C7088 0.950 . S
H7081 C7093 0.950 . S
H7082 C7090 0.950 . S
H7083 C7092 0.950 . S
H7084 C7094 0.950 . S
H7085 C7096 0.950 . S
H7086 C7098 0.950 . S
H7087 C7099 0.950 . S
C7088 H7080 0.950 . S
C7088 C7089 1.386 . S
C7088 C7090 1.391 . S
C7089 C7088 1.386 . S
C7089 C7093 1.393 . S
C7090 H7082 0.950 . S
C7090 C7088 1.391 . S
C7090 C7091 1.400 . S
C7091 C7090 1.400 . S
C7091 C7092 1.398 . S
C7091 C7097 1.491 . S
C7092 H7083 0.950 . S
C7092 C7091 1.398 . S
C7092 C7093 1.391 . S
C7093 H7081 0.950 . S
C7093 C7089 1.393 . S
C7093 C7092 1.391 . S
C7094 H7084 0.950 . S
C7094 C7095 1.386 . S
C7094 C7096 1.391 . S
C7095 C7094 1.386 . S
C7095 C7099 1.393 . S
C7096 H7085 0.950 . S
C7096 C7094 1.391 . S
C7096 C7097 1.400 . S
C7097 C7091 1.491 . S
C7097 C7096 1.400 . S
C7097 C7098 1.398 . S
C7098 H7086 0.950 . S
C7098 C7097 1.398 . S
C7098 C7099 1.391 . S
C7099 H7087 0.950 . S
C7099 C7095 1.393 . S
C7099 C7098 1.391 . S
H7100 C7108 0.950 . S
H7101 C7113 0.950 . S
H7102 C7110 0.950 . S
H7103 C7112 0.950 . S
H7104 C7114 0.950 . S
H7105 C7116 0.950 . S
H7106 C7118 0.950 . S
H7107 C7119 0.950 . S
C7108 H7100 0.950 . S
C7108 C7109 1.386 . S
C7108 C7110 1.391 . S
C7109 C7108 1.386 . S
C7109 C7113 1.393 . S
C7110 H7102 0.950 . S
C7110 C7108 1.391 . S
C7110 C7111 1.400 . S
C7111 C7110 1.400 . S
C7111 C7112 1.398 . S
C7111 C7117 1.491 . S
C7112 H7103 0.950 . S
C7112 C7111 1.398 . S
C7112 C7113 1.391 . S
C7113 H7101 0.950 . S
C7113 C7109 1.393 . S
C7113 C7112 1.391 . S
C7114 H7104 0.950 . S
C7114 C7115 1.386 . S
C7114 C7116 1.391 . S
C7115 C7114 1.386 . S
C7115 C7119 1.393 . S
C7116 H7105 0.950 . S
C7116 C7114 1.391 . S
C7116 C7117 1.400 . S
C7117 C7111 1.491 . S
C7117 C7116 1.400 . S
C7117 C7118 1.398 . S
C7118 H7106 0.950 . S
C7118 C7117 1.398 . S
C7118 C7119 1.391 . S
C7119 H7107 0.950 . S
C7119 C7115 1.393 . S
C7119 C7118 1.391 . S
H7120 C7128 0.950 . S
H7121 C7133 0.950 . S
H7122 C7130 0.950 . S
H7123 C7132 0.950 . S
H7124 C7134 0.950 . S
H7125 C7136 0.950 . S
H7126 C7138 0.950 . S
H7127 C7139 0.950 . S
C7128 H7120 0.950 . S
C7128 C7129 1.386 . S
C7128 C7130 1.391 . S
C7129 C7128 1.386 . S
C7129 C7133 1.393 . S
C7130 H7122 0.950 . S
C7130 C7128 1.391 . S
C7130 C7131 1.400 . S
C7131 C7130 1.400 . S
C7131 C7132 1.398 . S
C7131 C7137 1.491 . S
C7132 H7123 0.950 . S
C7132 C7131 1.398 . S
C7132 C7133 1.391 . S
C7133 H7121 0.950 . S
C7133 C7129 1.393 . S
C7133 C7132 1.391 . S
C7134 H7124 0.950 . S
C7134 C7135 1.386 . S
C7134 C7136 1.391 . S
C7135 C7134 1.386 . S
C7135 C7139 1.393 . S
C7136 H7125 0.950 . S
C7136 C7134 1.391 . S
C7136 C7137 1.400 . S
C7137 C7131 1.491 . S
C7137 C7136 1.400 . S
C7137 C7138 1.398 . S
C7138 H7126 0.950 . S
C7138 C7137 1.398 . S
C7138 C7139 1.391 . S
C7139 H7127 0.950 . S
C7139 C7135 1.393 . S
C7139 C7138 1.391 . S
H7140 C7148 0.950 . S
H7141 C7153 0.950 . S
H7142 C7150 0.950 . S
H7143 C7152 0.950 . S
H7144 C7154 0.950 . S
H7145 C7156 0.950 . S
H7146 C7158 0.950 . S
H7147 C7159 0.950 . S
C7148 H7140 0.950 . S
C7148 C7149 1.386 . S
C7148 C7150 1.391 . S
C7149 C7148 1.386 . S
C7149 C7153 1.393 . S
C7150 H7142 0.950 . S
C7150 C7148 1.391 . S
C7150 C7151 1.400 . S
C7151 C7150 1.400 . S
C7151 C7152 1.398 . S
C7151 C7157 1.491 . S
C7152 H7143 0.950 . S
C7152 C7151 1.398 . S
C7152 C7153 1.391 . S
C7153 H7141 0.950 . S
C7153 C7149 1.393 . S
C7153 C7152 1.391 . S
C7154 H7144 0.950 . S
C7154 C7155 1.386 . S
C7154 C7156 1.391 . S
C7155 C7154 1.386 . S
C7155 C7159 1.393 . S
C7156 H7145 0.950 . S
C7156 C7154 1.391 . S
C7156 C7157 1.400 . S
C7157 C7151 1.491 . S
C7157 C7156 1.400 . S
C7157 C7158 1.398 . S
C7158 H7146 0.950 . S
C7158 C7157 1.398 . S
C7158 C7159 1.391 . S
C7159 H7147 0.950 . S
C7159 C7155 1.393 . S
C7159 C7158 1.391 . S
H7160 C7168 0.950 . S
H7161 C7173 0.950 . S
H7162 C7170 0.950 . S
H7163 C7172 0.950 . S
H7164 C7174 0.950 . S
H7165 C7176 0.950 . S
H7166 C7178 0.950 . S
H7167 C7179 0.950 . S
C7168 H7160 0.950 . S
C7168 C7169 1.386 . S
C7168 C7170 1.391 . S
C7169 C7168 1.386 . S
C7169 C7173 1.393 . S
C7170 H7162 0.950 . S
C7170 C7168 1.391 . S
C7170 C7171 1.400 . S
C7171 C7170 1.400 . S
C7171 C7172 1.398 . S
C7171 C7177 1.491 . S
C7172 H7163 0.950 . S
C7172 C7171 1.398 . S
C7172 C7173 1.391 . S
C7173 H7161 0.950 . S
C7173 C7169 1.393 . S
C7173 C7172 1.391 . S
C7174 H7164 0.950 . S
C7174 C7175 1.386 . S
C7174 C7176 1.391 . S
C7175 C7174 1.386 . S
C7175 C7179 1.393 . S
C7176 H7165 0.950 . S
C7176 C7174 1.391 . S
C7176 C7177 1.400 . S
C7177 C7171 1.491 . S
C7177 C7176 1.400 . S
C7177 C7178 1.398 . S
C7178 H7166 0.950 . S
C7178 C7177 1.398 . S
C7178 C7179 1.391 . S
C7179 H7167 0.950 . S
C7179 C7175 1.393 . S
C7179 C7178 1.391 . S
H7180 C7188 0.950 . S
H7181 C7193 0.950 . S
H7182 C7190 0.950 . S
H7183 C7192 0.950 . S
H7184 C7194 0.950 . S
H7185 C7196 0.950 . S
H7186 C7198 0.950 . S
H7187 C7199 0.950 . S
C7188 H7180 0.950 . S
C7188 C7189 1.386 . S
C7188 C7190 1.391 . S
C7189 C7188 1.386 . S
C7189 C7193 1.393 . S
C7190 H7182 0.950 . S
C7190 C7188 1.391 . S
C7190 C7191 1.400 . S
C7191 C7190 1.400 . S
C7191 C7192 1.398 . S
C7191 C7197 1.491 . S
C7192 H7183 0.950 . S
C7192 C7191 1.398 . S
C7192 C7193 1.391 . S
C7193 H7181 0.950 . S
C7193 C7189 1.393 . S
C7193 C7192 1.391 . S
C7194 H7184 0.950 . S
C7194 C7195 1.386 . S
C7194 C7196 1.391 . S
C7195 C7194 1.386 . S
C7195 C7199 1.393 . S
C7196 H7185 0.950 . S
C7196 C7194 1.391 . S
C7196 C7197 1.400 . S
C7197 C7191 1.491 . S
C7197 C7196 1.400 . S
C7197 C7198 1.398 . S
C7198 H7186 0.950 . S
C7198 C7197 1.398 . S
C7198 C7199 1.391 . S
C7199 H7187 0.950 . S
C7199 C7195 1.393 . S
C7199 C7198 1.391 . S
H7200 C7208 0.950 . S
H7201 C7213 0.950 . S
H7202 C7210 0.950 . S
H7203 C7212 0.950 . S
H7204 C7214 0.950 . S
H7205 C7216 0.950 . S
H7206 C7218 0.950 . S
H7207 C7219 0.950 . S
C7208 H7200 0.950 . S
C7208 C7209 1.386 . S
C7208 C7210 1.391 . S
C7209 C7208 1.386 . S
C7209 C7213 1.393 . S
C7210 H7202 0.950 . S
C7210 C7208 1.391 . S
C7210 C7211 1.400 . S
C7211 C7210 1.400 . S
C7211 C7212 1.398 . S
C7211 C7217 1.491 . S
C7212 H7203 0.950 . S
C7212 C7211 1.398 . S
C7212 C7213 1.391 . S
C7213 H7201 0.950 . S
C7213 C7209 1.393 . S
C7213 C7212 1.391 . S
C7214 H7204 0.950 . S
C7214 C7215 1.386 . S
C7214 C7216 1.391 . S
C7215 C7214 1.386 . S
C7215 C7219 1.393 . S
C7216 H7205 0.950 . S
C7216 C7214 1.391 . S
C7216 C7217 1.400 . S
C7217 C7211 1.491 . S
C7217 C7216 1.400 . S
C7217 C7218 1.398 . S
C7218 H7206 0.950 . S
C7218 C7217 1.398 . S
C7218 C7219 1.391 . S
C7219 H7207 0.950 . S
C7219 C7215 1.393 . S
C7219 C7218 1.391 . S
H7220 C7228 0.950 . S
H7221 C7233 0.950 . S
H7222 C7230 0.950 . S
H7223 C7232 0.950 . S
H7224 C7234 0.950 . S
H7225 C7236 0.950 . S
H7226 C7238 0.950 . S
H7227 C7239 0.950 . S
C7228 H7220 0.950 . S
C7228 C7229 1.386 . S
C7228 C7230 1.391 . S
C7229 C7228 1.386 . S
C7229 C7233 1.393 . S
C7230 H7222 0.950 . S
C7230 C7228 1.391 . S
C7230 C7231 1.400 . S
C7231 C7230 1.400 . S
C7231 C7232 1.398 . S
C7231 C7237 1.491 . S
C7232 H7223 0.950 . S
C7232 C7231 1.398 . S
C7232 C7233 1.391 . S
C7233 H7221 0.950 . S
C7233 C7229 1.393 . S
C7233 C7232 1.391 . S
C7234 H7224 0.950 . S
C7234 C7235 1.386 . S
C7234 C7236 1.391 . S
C7235 C7234 1.386 . S
C7235 C7239 1.393 . S
C7236 H7225 0.950 . S
C7236 C7234 1.391 . S
C7236 C7237 1.400 . S
C7237 C7231 1.491 . S
C7237 C7236 1.400 . S
C7237 C7238 1.398 . S
C7238 H7226 0.950 . S
C7238 C7237 1.398 . S
C7238 C7239 1.391 . S
C7239 H7227 0.950 . S
C7239 C7235 1.393 . S
C7239 C7238 1.391 . S
H7240 C7248 0.950 . S
H7241 C7253 0.950 . S
H7242 C7250 0.950 . S
H7243 C7252 0.950 . S
H7244 C7254 0.950 . S
H7245 C7256 0.950 . S
H7246 C7258 0.950 . S
H7247 C7259 0.950 . S
C7248 H7240 0.950 . S
C7248 C7249 1.386 . S
C7248 C7250 1.391 . S
C7249 C7248 1.386 . S
C7249 C7253 1.393 . S
C7250 H7242 0.950 . S
C7250 C7248 1.391 . S
C7250 C7251 1.400 . S
C7251 C7250 1.400 . S
C7251 C7252 1.398 . S
C7251 C7257 1.491 . S
C7252 H7243 0.950 . S
C7252 C7251 1.398 . S
C7252 C7253 1.391 . S
C7253 H7241 0.950 . S
C7253 C7249 1.393 . S
C7253 C7252 1.391 . S
C7254 H7244 0.950 . S
C7254 C7255 1.386 . S
C7254 C7256 1.391 . S
C7255 C7254 1.386 . S
C7255 C7259 1.393 . S
C7256 H7245 0.950 . S
C7256 C7254 1.391 . S
C7256 C7257 1.400 . S
C7257 C7251 1.491 . S
C7257 C7256 1.400 . S
C7257 C7258 1.398 . S
C7258 H7246 0.950 . S
C7258 C7257 1.398 . S
C7258 C7259 1.391 . S
C7259 H7247 0.950 . S
C7259 C7255 1.393 . S
C7259 C7258 1.391 . S
H7260 C7268 0.950 . S
H7261 C7273 0.950 . S
H7262 C7270 0.950 . S
H7263 C7272 0.950 . S
H7264 C7274 0.950 . S
H7265 C7276 0.950 . S
H7266 C7278 0.950 . S
H7267 C7279 0.950 . S
C7268 H7260 0.950 . S
C7268 C7269 1.386 . S
C7268 C7270 1.391 . S
C7269 C7268 1.386 . S
C7269 C7273 1.393 . S
C7270 H7262 0.950 . S
C7270 C7268 1.391 . S
C7270 C7271 1.400 . S
C7271 C7270 1.400 . S
C7271 C7272 1.398 . S
C7271 C7277 1.491 . S
C7272 H7263 0.950 . S
C7272 C7271 1.398 . S
C7272 C7273 1.391 . S
C7273 H7261 0.950 . S
C7273 C7269 1.393 . S
C7273 C7272 1.391 . S
C7274 H7264 0.950 . S
C7274 C7275 1.386 . S
C7274 C7276 1.391 . S
C7275 C7274 1.386 . S
C7275 C7279 1.393 . S
C7276 H7265 0.950 . S
C7276 C7274 1.391 . S
C7276 C7277 1.400 . S
C7277 C7271 1.491 . S
C7277 C7276 1.400 . S
C7277 C7278 1.398 . S
C7278 H7266 0.950 . S
C7278 C7277 1.398 . S
C7278 C7279 1.391 . S
C7279 H7267 0.950 . S
C7279 C7275 1.393 . S
C7279 C7278 1.391 . S
H7280 C7288 0.950 . S
H7281 C7293 0.950 . S
H7282 C7290 0.950 . S
H7283 C7292 0.950 . S
H7284 C7294 0.950 . S
H7285 C7296 0.950 . S
H7286 C7298 0.950 . S
H7287 C7299 0.950 . S
C7288 H7280 0.950 . S
C7288 C7289 1.386 . S
C7288 C7290 1.391 . S
C7289 C7288 1.386 . S
C7289 C7293 1.393 . S
C7290 H7282 0.950 . S
C7290 C7288 1.391 . S
C7290 C7291 1.400 . S
C7291 C7290 1.400 . S
C7291 C7292 1.398 . S
C7291 C7297 1.491 . S
C7292 H7283 0.950 . S
C7292 C7291 1.398 . S
C7292 C7293 1.391 . S
C7293 H7281 0.950 . S
C7293 C7289 1.393 . S
C7293 C7292 1.391 . S
C7294 H7284 0.950 . S
C7294 C7295 1.386 . S
C7294 C7296 1.391 . S
C7295 C7294 1.386 . S
C7295 C7299 1.393 . S
C7296 H7285 0.950 . S
C7296 C7294 1.391 . S
C7296 C7297 1.400 . S
C7297 C7291 1.491 . S
C7297 C7296 1.400 . S
C7297 C7298 1.398 . S
C7298 H7286 0.950 . S
C7298 C7297 1.398 . S
C7298 C7299 1.391 . S
C7299 H7287 0.950 . S
C7299 C7295 1.393 . S
C7299 C7298 1.391 . S
H7300 C7308 0.950 . S
H7301 C7313 0.950 . S
H7302 C7310 0.950 . S
H7303 C7312 0.950 . S
H7304 C7314 0.950 . S
H7305 C7316 0.950 . S
H7306 C7318 0.950 . S
H7307 C7319 0.950 . S
C7308 H7300 0.950 . S
C7308 C7309 1.386 . S
C7308 C7310 1.391 . S
C7309 C7308 1.386 . S
C7309 C7313 1.393 . S
C7310 H7302 0.950 . S
C7310 C7308 1.391 . S
C7310 C7311 1.400 . S
C7311 C7310 1.400 . S
C7311 C7312 1.398 . S
C7311 C7317 1.491 . S
C7312 H7303 0.950 . S
C7312 C7311 1.398 . S
C7312 C7313 1.391 . S
C7313 H7301 0.950 . S
C7313 C7309 1.393 . S
C7313 C7312 1.391 . S
C7314 H7304 0.950 . S
C7314 C7315 1.386 . S
C7314 C7316 1.391 . S
C7315 C7314 1.386 . S
C7315 C7319 1.393 . S
C7316 H7305 0.950 . S
C7316 C7314 1.391 . S
C7316 C7317 1.400 . S
C7317 C7311 1.491 . S
C7317 C7316 1.400 . S
C7317 C7318 1.398 . S
C7318 H7306 0.950 . S
C7318 C7317 1.398 . S
C7318 C7319 1.391 . S
C7319 H7307 0.950 . S
C7319 C7315 1.393 . S
C7319 C7318 1.391 . S
H7320 C7328 0.950 . S
H7321 C7333 0.950 . S
H7322 C7330 0.950 . S
H7323 C7332 0.950 . S
H7324 C7334 0.950 . S
H7325 C7336 0.950 . S
H7326 C7338 0.950 . S
H7327 C7339 0.950 . S
C7328 H7320 0.950 . S
C7328 C7329 1.386 . S
C7328 C7330 1.391 . S
C7329 C7328 1.386 . S
C7329 C7333 1.393 . S
C7330 H7322 0.950 . S
C7330 C7328 1.391 . S
C7330 C7331 1.400 . S
C7331 C7330 1.400 . S
C7331 C7332 1.398 . S
C7331 C7337 1.491 . S
C7332 H7323 0.950 . S
C7332 C7331 1.398 . S
C7332 C7333 1.391 . S
C7333 H7321 0.950 . S
C7333 C7329 1.393 . S
C7333 C7332 1.391 . S
C7334 H7324 0.950 . S
C7334 C7335 1.386 . S
C7334 C7336 1.391 . S
C7335 C7334 1.386 . S
C7335 C7339 1.393 . S
C7336 H7325 0.950 . S
C7336 C7334 1.391 . S
C7336 C7337 1.400 . S
C7337 C7331 1.491 . S
C7337 C7336 1.400 . S
C7337 C7338 1.398 . S
C7338 H7326 0.950 . S
C7338 C7337 1.398 . S
C7338 C7339 1.391 . S
C7339 H7327 0.950 . S
C7339 C7335 1.393 . S
C7339 C7338 1.391 . S
H7340 C7348 0.950 . S
H7341 C7353 0.950 . S
H7342 C7350 0.950 . S
H7343 C7352 0.950 . S
H7344 C7354 0.950 . S
H7345 C7356 0.950 . S
H7346 C7358 0.950 . S
H7347 C7359 0.950 . S
C7348 H7340 0.950 . S
C7348 C7349 1.386 . S
C7348 C7350 1.391 . S
C7349 C7348 1.386 . S
C7349 C7353 1.393 . S
C7350 H7342 0.950 . S
C7350 C7348 1.391 . S
C7350 C7351 1.400 . S
C7351 C7350 1.400 . S
C7351 C7352 1.398 . S
C7351 C7357 1.491 . S
C7352 H7343 0.950 . S
C7352 C7351 1.398 . S
C7352 C7353 1.391 . S
C7353 H7341 0.950 . S
C7353 C7349 1.393 . S
C7353 C7352 1.391 . S
C7354 H7344 0.950 . S
C7354 C7355 1.386 . S
C7354 C7356 1.391 . S
C7355 C7354 1.386 . S
C7355 C7359 1.393 . S
C7356 H7345 0.950 . S
C7356 C7354 1.391 . S
C7356 C7357 1.400 . S
C7357 C7351 1.491 . S
C7357 C7356 1.400 . S
C7357 C7358 1.398 . S
C7358 H7346 0.950 . S
C7358 C7357 1.398 . S
C7358 C7359 1.391 . S
C7359 H7347 0.950 . S
C7359 C7355 1.393 . S
C7359 C7358 1.391 . S
H7360 C7368 0.950 . S
H7361 C7373 0.950 . S
H7362 C7370 0.950 . S
H7363 C7372 0.950 . S
H7364 C7374 0.950 . S
H7365 C7376 0.950 . S
H7366 C7378 0.950 . S
H7367 C7379 0.950 . S
C7368 H7360 0.950 . S
C7368 C7369 1.386 . S
C7368 C7370 1.391 . S
C7369 C7368 1.386 . S
C7369 C7373 1.393 . S
C7370 H7362 0.950 . S
C7370 C7368 1.391 . S
C7370 C7371 1.400 . S
C7371 C7370 1.400 . S
C7371 C7372 1.398 . S
C7371 C7377 1.491 . S
C7372 H7363 0.950 . S
C7372 C7371 1.398 . S
C7372 C7373 1.391 . S
C7373 H7361 0.950 . S
C7373 C7369 1.393 . S
C7373 C7372 1.391 . S
C7374 H7364 0.950 . S
C7374 C7375 1.386 . S
C7374 C7376 1.391 . S
C7375 C7374 1.386 . S
C7375 C7379 1.393 . S
C7376 H7365 0.950 . S
C7376 C7374 1.391 . S
C7376 C7377 1.400 . S
C7377 C7371 1.491 . S
C7377 C7376 1.400 . S
C7377 C7378 1.398 . S
C7378 H7366 0.950 . S
C7378 C7377 1.398 . S
C7378 C7379 1.391 . S
C7379 H7367 0.950 . S
C7379 C7375 1.393 . S
C7379 C7378 1.391 . S
H7380 C7388 0.950 . S
H7381 C7393 0.950 . S
H7382 C7390 0.950 . S
H7383 C7392 0.950 . S
H7384 C7394 0.950 . S
H7385 C7396 0.950 . S
H7386 C7398 0.950 . S
H7387 C7399 0.950 . S
C7388 H7380 0.950 . S
C7388 C7389 1.386 . S
C7388 C7390 1.391 . S
C7389 C7388 1.386 . S
C7389 C7393 1.393 . S
C7390 H7382 0.950 . S
C7390 C7388 1.391 . S
C7390 C7391 1.400 . S
C7391 C7390 1.400 . S
C7391 C7392 1.398 . S
C7391 C7397 1.491 . S
C7392 H7383 0.950 . S
C7392 C7391 1.398 . S
C7392 C7393 1.391 . S
C7393 H7381 0.950 . S
C7393 C7389 1.393 . S
C7393 C7392 1.391 . S
C7394 H7384 0.950 . S
C7394 C7395 1.386 . S
C7394 C7396 1.391 . S
C7395 C7394 1.386 . S
C7395 C7399 1.393 . S
C7396 H7385 0.950 . S
C7396 C7394 1.391 . S
C7396 C7397 1.400 . S
C7397 C7391 1.491 . S
C7397 C7396 1.400 . S
C7397 C7398 1.398 . S
C7398 H7386 0.950 . S
C7398 C7397 1.398 . S
C7398 C7399 1.391 . S
C7399 H7387 0.950 . S
C7399 C7395 1.393 . S
C7399 C7398 1.391 . S
H7400 C7408 0.950 . S
H7401 C7413 0.950 . S
H7402 C7410 0.950 . S
H7403 C7412 0.950 . S
H7404 C7414 0.950 . S
H7405 C7416 0.950 . S
H7406 C7418 0.950 . S
H7407 C7419 0.950 . S
C7408 H7400 0.950 . S
C7408 C7409 1.386 . S
C7408 C7410 1.391 . S
C7409 C7408 1.386 . S
C7409 C7413 1.393 . S
C7410 H7402 0.950 . S
C7410 C7408 1.391 . S
C7410 C7411 1.400 . S
C7411 C7410 1.400 . S
C7411 C7412 1.398 . S
C7411 C7417 1.491 . S
C7412 H7403 0.950 . S
C7412 C7411 1.398 . S
C7412 C7413 1.391 . S
C7413 H7401 0.950 . S
C7413 C7409 1.393 . S
C7413 C7412 1.391 . S
C7414 H7404 0.950 . S
C7414 C7415 1.386 . S
C7414 C7416 1.391 . S
C7415 C7414 1.386 . S
C7415 C7419 1.393 . S
C7416 H7405 0.950 . S
C7416 C7414 1.391 . S
C7416 C7417 1.400 . S
C7417 C7411 1.491 . S
C7417 C7416 1.400 . S
C7417 C7418 1.398 . S
C7418 H7406 0.950 . S
C7418 C7417 1.398 . S
C7418 C7419 1.391 . S
C7419 H7407 0.950 . S
C7419 C7415 1.393 . S
C7419 C7418 1.391 . S
H7420 C7428 0.950 . S
H7421 C7433 0.950 . S
H7422 C7430 0.950 . S
H7423 C7432 0.950 . S
H7424 C7434 0.950 . S
H7425 C7436 0.950 . S
H7426 C7438 0.950 . S
H7427 C7439 0.950 . S
C7428 H7420 0.950 . S
C7428 C7429 1.386 . S
C7428 C7430 1.391 . S
C7429 C7428 1.386 . S
C7429 C7433 1.393 . S
C7430 H7422 0.950 . S
C7430 C7428 1.391 . S
C7430 C7431 1.400 . S
C7431 C7430 1.400 . S
C7431 C7432 1.398 . S
C7431 C7437 1.491 . S
C7432 H7423 0.950 . S
C7432 C7431 1.398 . S
C7432 C7433 1.391 . S
C7433 H7421 0.950 . S
C7433 C7429 1.393 . S
C7433 C7432 1.391 . S
C7434 H7424 0.950 . S
C7434 C7435 1.386 . S
C7434 C7436 1.391 . S
C7435 C7434 1.386 . S
C7435 C7439 1.393 . S
C7436 H7425 0.950 . S
C7436 C7434 1.391 . S
C7436 C7437 1.400 . S
C7437 C7431 1.491 . S
C7437 C7436 1.400 . S
C7437 C7438 1.398 . S
C7438 H7426 0.950 . S
C7438 C7437 1.398 . S
C7438 C7439 1.391 . S
C7439 H7427 0.950 . S
C7439 C7435 1.393 . S
C7439 C7438 1.391 . S
H7440 C7448 0.950 . S
H7441 C7453 0.950 . S
H7442 C7450 0.950 . S
H7443 C7452 0.950 . S
H7444 C7454 0.950 . S
H7445 C7456 0.950 . S
H7446 C7458 0.950 . S
H7447 C7459 0.950 . S
C7448 H7440 0.950 . S
C7448 C7449 1.386 . S
C7448 C7450 1.391 . S
C7449 C7448 1.386 . S
C7449 C7453 1.393 . S
C7450 H7442 0.950 . S
C7450 C7448 1.391 . S
C7450 C7451 1.400 . S
C7451 C7450 1.400 . S
C7451 C7452 1.398 . S
C7451 C7457 1.491 . S
C7452 H7443 0.950 . S
C7452 C7451 1.398 . S
C7452 C7453 1.391 . S
C7453 H7441 0.950 . S
C7453 C7449 1.393 . S
C7453 C7452 1.391 . S
C7454 H7444 0.950 . S
C7454 C7455 1.386 . S
C7454 C7456 1.391 . S
C7455 C7454 1.386 . S
C7455 C7459 1.393 . S
C7456 H7445 0.950 . S
C7456 C7454 1.391 . S
C7456 C7457 1.400 . S
C7457 C7451 1.491 . S
C7457 C7456 1.400 . S
C7457 C7458 1.398 . S
C7458 H7446 0.950 . S
C7458 C7457 1.398 . S
C7458 C7459 1.391 . S
C7459 H7447 0.950 . S
C7459 C7455 1.393 . S
C7459 C7458 1.391 . S
H7460 C7468 0.950 . S
H7461 C7473 0.950 . S
H7462 C7470 0.950 . S
H7463 C7472 0.950 . S
H7464 C7474 0.950 . S
H7465 C7476 0.950 . S
H7466 C7478 0.950 . S
H7467 C7479 0.950 . S
C7468 H7460 0.950 . S
C7468 C7469 1.386 . S
C7468 C7470 1.391 . S
C7469 C7468 1.386 . S
C7469 C7473 1.393 . S
C7470 H7462 0.950 . S
C7470 C7468 1.391 . S
C7470 C7471 1.400 . S
C7471 C7470 1.400 . S
C7471 C7472 1.398 . S
C7471 C7477 1.491 . S
C7472 H7463 0.950 . S
C7472 C7471 1.398 . S
C7472 C7473 1.391 . S
C7473 H7461 0.950 . S
C7473 C7469 1.393 . S
C7473 C7472 1.391 . S
C7474 H7464 0.950 . S
C7474 C7475 1.386 . S
C7474 C7476 1.391 . S
C7475 C7474 1.386 . S
C7475 C7479 1.393 . S
C7476 H7465 0.950 . S
C7476 C7474 1.391 . S
C7476 C7477 1.400 . S
C7477 C7471 1.491 . S
C7477 C7476 1.400 . S
C7477 C7478 1.398 . S
C7478 H7466 0.950 . S
C7478 C7477 1.398 . S
C7478 C7479 1.391 . S
C7479 H7467 0.950 . S
C7479 C7475 1.393 . S
C7479 C7478 1.391 . S
H7480 C7488 0.950 . S
H7481 C7493 0.950 . S
H7482 C7490 0.950 . S
H7483 C7492 0.950 . S
H7484 C7494 0.950 . S
H7485 C7496 0.950 . S
H7486 C7498 0.950 . S
H7487 C7499 0.950 . S
C7488 H7480 0.950 . S
C7488 C7489 1.386 . S
C7488 C7490 1.391 . S
C7489 C7488 1.386 . S
C7489 C7493 1.393 . S
C7490 H7482 0.950 . S
C7490 C7488 1.391 . S
C7490 C7491 1.400 . S
C7491 C7490 1.400 . S
C7491 C7492 1.398 . S
C7491 C7497 1.491 . S
C7492 H7483 0.950 . S
C7492 C7491 1.398 . S
C7492 C7493 1.391 . S
C7493 H7481 0.950 . S
C7493 C7489 1.393 . S
C7493 C7492 1.391 . S
C7494 H7484 0.950 . S
C7494 C7495 1.386 . S
C7494 C7496 1.391 . S
C7495 C7494 1.386 . S
C7495 C7499 1.393 . S
C7496 H7485 0.950 . S
C7496 C7494 1.391 . S
C7496 C7497 1.400 . S
C7497 C7491 1.491 . S
C7497 C7496 1.400 . S
C7497 C7498 1.398 . S
C7498 H7486 0.950 . S
C7498 C7497 1.398 . S
C7498 C7499 1.391 . S
C7499 H7487 0.950 . S
C7499 C7495 1.393 . S
C7499 C7498 1.391 . S
H7500 C7508 0.950 . S
H7501 C7513 0.950 . S
H7502 C7510 0.950 . S
H7503 C7512 0.950 . S
H7504 C7514 0.950 . S
H7505 C7516 0.950 . S
H7506 C7518 0.950 . S
H7507 C7519 0.950 . S
C7508 H7500 0.950 . S
C7508 C7509 1.386 . S
C7508 C7510 1.391 . S
C7509 C7508 1.386 . S
C7509 C7513 1.393 . S
C7510 H7502 0.950 . S
C7510 C7508 1.391 . S
C7510 C7511 1.400 . S
C7511 C7510 1.400 . S
C7511 C7512 1.398 . S
C7511 C7517 1.491 . S
C7512 H7503 0.950 . S
C7512 C7511 1.398 . S
C7512 C7513 1.391 . S
C7513 H7501 0.950 . S
C7513 C7509 1.393 . S
C7513 C7512 1.391 . S
C7514 H7504 0.950 . S
C7514 C7515 1.386 . S
C7514 C7516 1.391 . S
C7515 C7514 1.386 . S
C7515 C7519 1.393 . S
C7516 H7505 0.950 . S
C7516 C7514 1.391 . S
C7516 C7517 1.400 . S
C7517 C7511 1.491 . S
C7517 C7516 1.400 . S
C7517 C7518 1.398 . S
C7518 H7506 0.950 . S
C7518 C7517 1.398 . S
C7518 C7519 1.391 . S
C7519 H7507 0.950 . S
C7519 C7515 1.393 . S
C7519 C7518 1.391 . S
H7520 C7528 0.950 . S
H7521 C7533 0.950 . S
H7522 C7530 0.950 . S
H7523 C7532 0.950 . S
H7524 C7534 0.950 . S
H7525 C7536 0.950 . S
H7526 C7538 0.950 . S
H7527 C7539 0.950 . S
C7528 H7520 0.950 . S
C7528 C7529 1.386 . S
C7528 C7530 1.391 . S
C7529 C7528 1.386 . S
C7529 C7533 1.393 . S
C7530 H7522 0.950 . S
C7530 C7528 1.391 . S
C7530 C7531 1.400 . S
C7531 C7530 1.400 . S
C7531 C7532 1.398 . S
C7531 C7537 1.491 . S
C7532 H7523 0.950 . S
C7532 C7531 1.398 . S
C7532 C7533 1.391 . S
C7533 H7521 0.950 . S
C7533 C7529 1.393 . S
C7533 C7532 1.391 . S
C7534 H7524 0.950 . S
C7534 C7535 1.386 . S
C7534 C7536 1.391 . S
C7535 C7534 1.386 . S
C7535 C7539 1.393 . S
C7536 H7525 0.950 . S
C7536 C7534 1.391 . S
C7536 C7537 1.400 . S
C7537 C7531 1.491 . S
C7537 C7536 1.400 . S
C7537 C7538 1.398 . S
C7538 H7526 0.950 . S
C7538 C7537 1.398 . S
C7538 C7539 1.391 . S
C7539 H7527 0.950 . S
C7539 C7535 1.393 . S
C7539 C7538 1.391 . S
H7540 C7548 0.950 . S
H7541 C7553 0.950 . S
H7542 C7550 0.950 . S
H7543 C7552 0.950 . S
H7544 C7554 0.950 . S
H7545 C7556 0.950 . S
H7546 C7558 0.950 . S
H7547 C7559 0.950 . S
C7548 H7540 0.950 . S
C7548 C7549 1.386 . S
C7548 C7550 1.391 . S
C7549 C7548 1.386 . S
C7549 C7553 1.393 . S
C7550 H7542 0.950 . S
C7550 C7548 1.391 . S
C7550 C7551 1.400 . S
C7551 C7550 1.400 . S
C7551 C7552 1.398 . S
C7551 C7557 1.491 . S
C7552 H7543 0.950 . S
C7552 C7551 1.398 . S
C7552 C7553 1.391 . S
C7553 H7541 0.950 . S
C7553 C7549 1.393 . S
C7553 C7552 1.391 . S
C7554 H7544 0.950 . S
C7554 C7555 1.386 . S
C7554 C7556 1.391 . S
C7555 C7554 1.386 . S
C7555 C7559 1.393 . S
C7556 H7545 0.950 . S
C7556 C7554 1.391 . S
C7556 C7557 1.400 . S
C7557 C7551 1.491 . S
C7557 C7556 1.400 . S
C7557 C7558 1.398 . S
C7558 H7546 0.950 . S
C7558 C7557 1.398 . S
C7558 C7559 1.391 . S
C7559 H7547 0.950 . S
C7559 C7555 1.393 . S
C7559 C7558 1.391 . S
H7560 C7568 0.950 . S
H7561 C7573 0.950 . S
H7562 C7570 0.950 . S
H7563 C7572 0.950 . S
H7564 C7574 0.950 . S
H7565 C7576 0.950 . S
H7566 C7578 0.950 . S
H7567 C7579 0.950 . S
C7568 H7560 0.950 . S
C7568 C7569 1.386 . S
C7568 C7570 1.391 . S
C7569 C7568 1.386 . S
C7569 C7573 1.393 . S
C7570 H7562 0.950 . S
C7570 C7568 1.391 . S
C7570 C7571 1.400 . S
C7571 C7570 1.400 . S
C7571 C7572 1.398 . S
C7571 C7577 1.491 . S
C7572 H7563 0.950 . S
C7572 C7571 1.398 . S
C7572 C7573 1.391 . S
C7573 H7561 0.950 . S
C7573 C7569 1.393 . S
C7573 C7572 1.391 . S
C7574 H7564 0.950 . S
C7574 C7575 1.386 . S
C7574 C7576 1.391 . S
C7575 C7574 1.386 . S
C7575 C7579 1.393 . S
C7576 H7565 0.950 . S
C7576 C7574 1.391 . S
C7576 C7577 1.400 . S
C7577 C7571 1.491 . S
C7577 C7576 1.400 . S
C7577 C7578 1.398 . S
C7578 H7566 0.950 . S
C7578 C7577 1.398 . S
C7578 C7579 1.391 . S
C7579 H7567 0.950 . S
C7579 C7575 1.393 . S
C7579 C7578 1.391 . S
H7580 C7588 0.950 . S
H7581 C7593 0.950 . S
H7582 C7590 0.950 . S
H7583 C7592 0.950 . S
H7584 C7594 0.950 . S
H7585 C7596 0.950 . S
H7586 C7598 0.950 . S
H7587 C7599 0.950 . S
C7588 H7580 0.950 . S
C7588 C7589 1.386 . S
C7588 C7590 1.391 . S
C7589 C7588 1.386 . S
C7589 C7593 1.393 . S
C7590 H7582 0.950 . S
C7590 C7588 1.391 . S
C7590 C7591 1.400 . S
C7591 C7590 1.400 . S
C7591 C7592 1.398 . S
C7591 C7597 1.491 . S
C7592 H7583 0.950 . S
C7592 C7591 1.398 . S
C7592 C7593 1.391 . S
C7593 H7581 0.950 . S
C7593 C7589 1.393 . S
C7593 C7592 1.391 . S
C7594 H7584 0.950 . S
C7594 C7595 1.386 . S
C7594 C7596 1.391 . S
C7595 C7594 1.386 . S
C7595 C7599 1.393 . S
C7596 H7585 0.950 . S
C7596 C7594 1.391 . S
C7596 C7597 1.400 . S
C7597 C7591 1.491 . S
C7597 C7596 1.400 . S
C7597 C7598 1.398 . S
C7598 H7586 0.950 . S
C7598 C7597 1.398 . S
C7598 C7599 1.391 . S
C7599 H7587 0.950 . S
C7599 C7595 1.393 . S
C7599 C7598 1.391 . S
H7600 C7608 0.950 . S
H7601 C7613 0.950 . S
H7602 C7610 0.950 . S
H7603 C7612 0.950 . S
H7604 C7614 0.950 . S
H7605 C7616 0.950 . S
H7606 C7618 0.950 . S
H7607 C7619 0.950 . S
C7608 H7600 0.950 . S
C7608 C7609 1.386 . S
C7608 C7610 1.391 . S
C7609 C7608 1.386 . S
C7609 C7613 1.393 . S
C7610 H7602 0.950 . S
C7610 C7608 1.391 . S
C7610 C7611 1.400 . S
C7611 C7610 1.400 . S
C7611 C7612 1.398 . S
C7611 C7617 1.491 . S
C7612 H7603 0.950 . S
C7612 C7611 1.398 . S
C7612 C7613 1.391 . S
C7613 H7601 0.950 . S
C7613 C7609 1.393 . S
C7613 C7612 1.391 . S
C7614 H7604 0.950 . S
C7614 C7615 1.386 . S
C7614 C7616 1.391 . S
C7615 C7614 1.386 . S
C7615 C7619 1.393 . S
C7616 H7605 0.950 . S
C7616 C7614 1.391 . S
C7616 C7617 1.400 . S
C7617 C7611 1.491 . S
C7617 C7616 1.400 . S
C7617 C7618 1.398 . S
C7618 H7606 0.950 . S
C7618 C7617 1.398 . S
C7618 C7619 1.391 . S
C7619 H7607 0.950 . S
C7619 C7615 1.393 . S
C7619 C7618 1.391 . S
H7620 C7628 0.950 . S
H7621 C7633 0.950 . S
H7622 C7630 0.950 . S
H7623 C7632 0.950 . S
H7624 C7634 0.950 . S
H7625 C7636 0.950 . S
H7626 C7638 0.950 . S
H7627 C7639 0.950 . S
C7628 H7620 0.950 . S
C7628 C7629 1.386 . S
C7628 C7630 1.391 . S
C7629 C7628 1.386 . S
C7629 C7633 1.393 . S
C7630 H7622 0.950 . S
C7630 C7628 1.391 . S
C7630 C7631 1.400 . S
C7631 C7630 1.400 . S
C7631 C7632 1.398 . S
C7631 C7637 1.491 . S
C7632 H7623 0.950 . S
C7632 C7631 1.398 . S
C7632 C7633 1.391 . S
C7633 H7621 0.950 . S
C7633 C7629 1.393 . S
C7633 C7632 1.391 . S
C7634 H7624 0.950 . S
C7634 C7635 1.386 . S
C7634 C7636 1.391 . S
C7635 C7634 1.386 . S
C7635 C7639 1.393 . S
C7636 H7625 0.950 . S
C7636 C7634 1.391 . S
C7636 C7637 1.400 . S
C7637 C7631 1.491 . S
C7637 C7636 1.400 . S
C7637 C7638 1.398 . S
C7638 H7626 0.950 . S
C7638 C7637 1.398 . S
C7638 C7639 1.391 . S
C7639 H7627 0.950 . S
C7639 C7635 1.393 . S
C7639 C7638 1.391 . S
H7640 C7648 0.950 . S
H7641 C7653 0.950 . S
H7642 C7650 0.950 . S
H7643 C7652 0.950 . S
H7644 C7654 0.950 . S
H7645 C7656 0.950 . S
H7646 C7658 0.950 . S
H7647 C7659 0.950 . S
C7648 H7640 0.950 . S
C7648 C7649 1.386 . S
C7648 C7650 1.391 . S
C7649 C7648 1.386 . S
C7649 C7653 1.393 . S
C7650 H7642 0.950 . S
C7650 C7648 1.391 . S
C7650 C7651 1.400 . S
C7651 C7650 1.400 . S
C7651 C7652 1.398 . S
C7651 C7657 1.491 . S
C7652 H7643 0.950 . S
C7652 C7651 1.398 . S
C7652 C7653 1.391 . S
C7653 H7641 0.950 . S
C7653 C7649 1.393 . S
C7653 C7652 1.391 . S
C7654 H7644 0.950 . S
C7654 C7655 1.386 . S
C7654 C7656 1.391 . S
C7655 C7654 1.386 . S
C7655 C7659 1.393 . S
C7656 H7645 0.950 . S
C7656 C7654 1.391 . S
C7656 C7657 1.400 . S
C7657 C7651 1.491 . S
C7657 C7656 1.400 . S
C7657 C7658 1.398 . S
C7658 H7646 0.950 . S
C7658 C7657 1.398 . S
C7658 C7659 1.391 . S
C7659 H7647 0.950 . S
C7659 C7655 1.393 . S
C7659 C7658 1.391 . S
H7660 C7668 0.950 . S
H7661 C7673 0.950 . S
H7662 C7670 0.950 . S
H7663 C7672 0.950 . S
H7664 C7674 0.950 . S
H7665 C7676 0.950 . S
H7666 C7678 0.950 . S
H7667 C7679 0.950 . S
C7668 H7660 0.950 . S
C7668 C7669 1.386 . S
C7668 C7670 1.391 . S
C7669 C7668 1.386 . S
C7669 C7673 1.393 . S
C7670 H7662 0.950 . S
C7670 C7668 1.391 . S
C7670 C7671 1.400 . S
C7671 C7670 1.400 . S
C7671 C7672 1.398 . S
C7671 C7677 1.491 . S
C7672 H7663 0.950 . S
C7672 C7671 1.398 . S
C7672 C7673 1.391 . S
C7673 H7661 0.950 . S
C7673 C7669 1.393 . S
C7673 C7672 1.391 . S
C7674 H7664 0.950 . S
C7674 C7675 1.386 . S
C7674 C7676 1.391 . S
C7675 C7674 1.386 . S
C7675 C7679 1.393 . S
C7676 H7665 0.950 . S
C7676 C7674 1.391 . S
C7676 C7677 1.400 . S
C7677 C7671 1.491 . S
C7677 C7676 1.400 . S
C7677 C7678 1.398 . S
C7678 H7666 0.950 . S
C7678 C7677 1.398 . S
C7678 C7679 1.391 . S
C7679 H7667 0.950 . S
C7679 C7675 1.393 . S
C7679 C7678 1.391 . S
C1929 C1502 0.695 . S
C1935 C9 0.714 . S
C1949 C482 0.645 . S
C1955 C29 0.636 . S
C1969 C48 0.899 . S
C1975 C1462 0.913 . S
C1989 C69 1.245 . S
C1995 C539 1.221 . S
C2009 C89 1.213 . S
C2015 C1559 1.219 . S
C2029 C619 1.279 . S
C2035 C108 1.301 . S
C2049 C128 0.721 . S
C2055 C1582 0.705 . S
C2069 C149 0.600 . S
C2075 C562 0.580 . S
C2089 C169 0.778 . S
C2095 C1802 0.768 . S
C2109 C862 0.831 . S
C2115 C189 0.803 . S
C2129 C882 0.794 . S
C2135 C209 0.792 . S
C2149 C839 1.164 . S
C2155 C229 1.128 . S
C2169 C249 0.866 . S
C2175 C1882 0.884 . S
C2189 C269 0.731 . S
C2195 C1762 0.747 . S
C2209 C1902 0.836 . S
C2215 C289 0.865 . S
C2229 C309 0.746 . S
C2235 C1862 0.770 . S
C2249 C329 0.742 . S
C2255 C1622 0.748 . S
C2269 C782 0.735 . S
C2275 C348 0.757 . S
C2289 C1682 0.849 . S
C2295 C369 0.854 . S
C2309 C389 0.900 . S
C2315 C742 0.907 . S
C2329 C409 0.831 . S
C2335 C762 0.803 . S
C2349 C429 0.842 . S
C2355 C1662 0.864 . S
C2369 C449 0.615 . S
C2375 C1602 0.619 . S
C2389 C1642 0.803 . S
C2395 C469 0.828 . S
C2409 C488 0.732 . S
C2415 C1021 0.738 . S
C2429 C508 0.672 . S
C2435 C1 0.648 . S
C2449 C529 0.897 . S
C2455 C981 0.907 . S
C2469 C58 1.248 . S
C2475 C548 1.230 . S
C2489 C1078 1.217 . S
C2495 C568 1.214 . S
C2509 C589 1.319 . S
C2515 C138 1.298 . S
C2529 C1101 0.758 . S
C2535 C609 0.742 . S
C2549 C628 0.578 . S
C2555 C81 0.607 . S
C2569 C648 0.808 . S
C2575 C1321 0.804 . S
C2589 C668 0.832 . S
C2595 C381 0.805 . S
C2609 C688 0.811 . S
C2615 C401 0.831 . S
C2629 C358 1.170 . S
C2635 C708 1.144 . S
C2649 C1401 0.904 . S
C2655 C728 0.900 . S
C2669 C748 0.747 . S
C2675 C1281 0.739 . S
C2689 C768 0.861 . S
C2695 C1421 0.833 . S
C2709 C1381 0.789 . S
C2715 C788 0.777 . S
C2729 C808 0.762 . S
C2735 C1141 0.787 . S
C2749 C829 0.764 . S
C2755 C301 0.788 . S
C2769 C1201 0.846 . S
C2775 C848 0.858 . S
C2789 C868 0.902 . S
C2795 C261 0.918 . S
C2809 C888 0.795 . S
C2815 C281 0.802 . S
C2829 C1181 0.838 . S
C2835 C908 0.861 . S
C2849 C1121 0.625 . S
C2855 C928 0.661 . S
C2869 C1161 0.832 . S
C2875 C948 0.811 . S
C2889 C969 0.727 . S
C2895 C542 0.741 . S
C2909 C1442 0.673 . S
C2915 C989 0.676 . S
C2929 C502 0.901 . S
C2935 C1008 0.897 . S
C2949 C1499 1.235 . S
C2955 C1029 1.229 . S
C2969 C1049 1.202 . S
C2975 C599 1.223 . S
C2989 C1068 1.316 . S
C2995 C1579 1.304 . S
C3009 C622 0.721 . S
C3015 C1088 0.712 . S
C3029 C1522 0.598 . S
C3035 C1109 0.628 . S
C3049 C842 0.772 . S
C3055 C1129 0.772 . S
C3069 C1149 0.832 . S
C3075 C1822 0.804 . S
C3089 C1169 0.824 . S
C3095 C1842 0.795 . S
C3109 C1799 1.150 . S
C3115 C1189 1.160 . S
C3129 C922 0.899 . S
C3135 C1209 0.870 . S
C3149 C802 0.731 . S
C3155 C1229 0.703 . S
C3169 C942 0.831 . S
C3175 C1249 0.857 . S
C3189 C902 0.790 . S
C3195 C1269 0.773 . S
C3209 C662 0.753 . S
C3215 C1289 0.781 . S
C3229 C1742 0.739 . S
C3235 C1308 0.751 . S
C3249 C1329 0.869 . S
C3255 C722 0.845 . S
C3269 C1702 0.907 . S
C3275 C1349 0.900 . S
C3289 C1722 0.836 . S
C3295 C1369 0.816 . S
C3309 C1389 0.864 . S
C3315 C702 0.861 . S
C3329 C1409 0.650 . S
C3335 C642 0.666 . S
C3349 C1429 0.850 . S
C3355 C682 0.828 . S
C3369 C1448 0.701 . S
C3375 C61 0.730 . S
C3389 C961 0.634 . S
C3395 C1468 0.650 . S
C3409 C1489 0.902 . S
C3415 C21 0.919 . S
C3429 C1508 1.253 . S
C3435 C1018 1.226 . S
C3449 C1528 1.196 . S
C3455 C118 1.219 . S
C3469 C1098 1.299 . S
C3475 C1549 1.305 . S
C3489 C141 0.711 . S
C3495 C1569 0.739 . S
C3509 C1588 0.632 . S
C3515 C1041 0.625 . S
C3529 C361 0.804 . S
C3535 C1608 0.808 . S
C3549 C1341 0.791 . S
C3555 C1628 0.810 . S
C3569 C1648 0.822 . S
C3575 C1361 0.792 . S
C3589 C1668 1.141 . S
C3595 C1318 1.171 . S
C3609 C1688 0.866 . S
C3615 C441 0.890 . S
C3629 C1708 0.749 . S
C3635 C321 0.736 . S
C3649 C1728 0.874 . S
C3655 C461 0.849 . S
C3669 C421 0.789 . S
C3675 C1748 0.760 . S
C3689 C181 0.787 . S
C3695 C1768 0.782 . S
C3709 C1789 0.751 . S
C3715 C1261 0.739 . S
C3729 C1808 0.882 . S
C3735 C241 0.856 . S
C3749 C1828 0.907 . S
C3755 C1221 0.926 . S
C3769 C1241 0.835 . S
C3775 C1848 0.830 . S
C3789 C221 0.834 . S
C3795 C1868 0.858 . S
C3809 C161 0.611 . S
C3815 C1888 0.637 . S
C3829 C1908 0.817 . S
C3835 C201 0.840 . S
C3849 C19 1.761 . S
C3855 C419 1.761 . S
C3869 C1302 1.342 . S
C3875 C39 1.339 . S
C3889 C42 1.285 . S
C3895 C1339 1.285 . S
C3909 C79 1.805 . S
C3915 C1359 1.805 . S
C3929 C99 1.813 . S
C3935 C1439 1.810 . S
C3949 C102 1.352 . S
C3955 C439 1.357 . S
C3969 C1419 1.377 . S
C3975 C122 1.377 . S
C3989 C339 1.835 1_556 S
C3995 C159 1.837 . S
C4009 C179 1.851 1_565 S
C4015 C319 1.857 . S
C4029 C259 1.735 1_545 S
C4035 C199 1.739 . S
C4049 C219 1.612 . S
C4055 C279 1.609 . S
C4069 C239 1.771 . S
C4075 C299 1.771 1_565 S
C4089 C342 1.337 . S
C4095 C999 1.343 . S
C4109 C379 1.288 . S
C4115 C1002 1.280 . S
C4129 C399 1.804 . S
C4135 C1039 1.805 . S
C4149 C459 1.376 . S
C4155 C1082 1.370 . S
C4169 C1059 1.813 . S
C4175 C479 1.812 . S
C4189 C498 1.764 . S
C4195 C898 1.763 . S
C4209 C518 1.339 . S
C4215 C1781 1.342 . S
C4229 C1818 1.284 . S
C4235 C521 1.287 . S
C4249 C1838 1.801 . S
C4255 C558 1.805 . S
C4269 C578 1.813 . S
C4275 C1918 1.810 . S
C4289 C581 1.353 . S
C4295 C918 1.357 . S
C4309 C1898 1.377 . S
C4315 C601 1.377 . S
C4329 C638 1.839 . S
C4335 C818 1.837 1_554 S
C4349 C798 1.858 . S
C4355 C658 1.853 1_545 S
C4369 C738 1.736 1_565 S
C4375 C678 1.740 . S
C4389 C758 1.614 . S
C4395 C698 1.614 . S
C4409 C718 1.771 . S
C4415 C778 1.770 1_545 S
C4429 C821 1.343 . S
C4435 C1478 1.340 . S
C4449 C1481 1.287 . S
C4455 C858 1.286 . S
C4469 C1518 1.805 . S
C4475 C878 1.803 . S
C4489 C938 1.377 . S
C4495 C1561 1.369 . S
C4509 C1538 1.814 . S
C4515 C958 1.813 . S
C4529 C1379 1.762 . S
C4535 C979 1.763 . S
C4549 C1399 1.357 1_556 S
C4555 C1062 1.353 . S
C4569 C1299 1.836 . S
C4575 C1119 1.838 . S
C4589 C1139 1.853 . S
C4595 C1279 1.856 . S
C4609 C1159 1.739 . S
C4615 C1219 1.739 . S
C4629 C1239 1.613 . S
C4635 C1179 1.612 . S
C4649 C1259 1.770 . S
C4655 C1199 1.771 . S
C4669 C1458 1.760 . S
C4675 C1858 1.761 . S
C4689 C1878 1.357 1_554 S
C4695 C1541 1.348 . S
C4709 C1598 1.837 . S
C4715 C1778 1.837 . S
C4729 C1618 1.850 . S
C4735 C1758 1.855 . S
C4749 C1698 1.738 . S
C4755 C1638 1.741 . S
C4769 C1718 1.609 . S
C4775 C1658 1.611 . S
C4789 C1678 1.768 . S
C4795 C1738 1.770 . S
C4809 C18 1.160 . S
C4815 C869 1.164 . S
C4829 C889 0.905 . S
C4835 C38 0.911 . S
C4849 C828 0.579 . S
C4855 C41 0.535 . S
C4869 C1809 1.095 . S
C4875 C78 1.109 . S
C4889 C98 1.120 . S
C4895 C1869 1.117 1_554 S
C4909 C1889 0.630 . S
C4915 C101 0.653 . S
C4929 C121 0.606 . S
C4935 C1769 0.569 . S
C4949 C1909 1.109 . S
C4955 C158 1.096 . S
C4969 C528 1.100 . S
C4975 C178 1.154 . S
C4989 C1509 0.989 . S
C4995 C198 0.987 . S
C5009 C218 0.843 . S
C5015 C489 0.823 . S
C5029 C1469 0.869 . S
C5035 C238 0.876 . S
C5049 C258 0.940 . S
C5055 C608 0.921 . S
C5069 C278 0.719 . S
C5075 C1589 0.699 . S
C5089 C298 0.935 . S
C5095 C569 0.939 . S
C5109 C318 1.173 . S
C5115 C1548 1.106 . S
C5129 C338 1.212 . S
C5135 C1689 1.226 . S
C5149 C649 0.529 . S
C5155 C341 0.607 . S
C5169 C1629 0.892 . S
C5175 C378 0.872 . S
C5189 C398 0.966 . S
C5195 C689 0.972 . S
C5209 C418 1.134 . S
C5215 C709 1.137 . S
C5229 C438 0.960 . S
C5235 C1729 0.964 . S
C5249 C458 0.764 . S
C5255 C1749 0.747 . S
C5269 C478 1.117 . S
C5275 C1709 1.129 . S
C5289 C388 1.177 . S
C5295 C499 1.166 . S
C5309 C519 0.912 . S
C5315 C408 0.904 . S
C5329 C349 0.558 . S
C5335 C522 0.520 . S
C5349 C559 1.123 . S
C5355 C1328 1.114 . S
C5369 C579 1.130 . S
C5375 C1388 1.123 1_556 S
C5389 C1408 0.665 . S
C5395 C582 0.637 . S
C5409 C1288 0.527 . S
C5415 C602 0.593 . S
C5429 C639 1.095 . S
C5435 C1428 1.104 . S
C5449 C49 1.112 . S
C5455 C659 1.154 . S
C5469 C679 0.973 . S
C5475 C1028 0.970 . S
C5489 C699 0.834 . S
C5495 C8 0.818 . S
C5509 C988 0.867 . S
C5515 C719 0.881 . S
C5529 C129 0.867 . S
C5535 C739 0.914 . S
C5549 C759 0.695 . S
C5555 C1108 0.704 . S
C5569 C779 0.937 . S
C5575 C88 0.935 . S
C5589 C1069 1.104 . S
C5595 C799 1.172 . S
C5609 C819 1.211 . S
C5615 C1208 1.215 . S
C5629 C822 0.593 . S
C5635 C168 0.567 . S
C5649 C1148 0.889 . S
C5655 C859 0.900 . S
C5669 C879 0.962 . S
C5675 C208 0.953 . S
C5689 C228 1.140 . S
C5695 C899 1.132 . S
C5709 C919 0.965 . S
C5715 C1248 0.955 . S
C5729 C1268 0.773 . S
C5735 C939 0.753 . S
C5749 C1228 1.115 . S
C5755 C959 1.125 . S
C5769 C1829 1.159 1_556 S
C5775 C978 1.167 . S
C5789 C1849 0.920 . S
C5795 C998 0.928 . S
C5809 C1001 0.591 . S
C5815 C1788 0.645 . S
C5829 C1038 1.114 . S
C5835 C849 1.108 . S
C5849 C1058 1.134 . S
C5855 C909 1.114 . S
C5869 C1061 0.688 . S
C5875 C929 0.669 . S
C5889 C809 0.564 . S
C5895 C1081 0.617 . S
C5909 C949 1.105 . S
C5915 C1118 1.095 . S
C5929 C1138 1.151 . S
C5935 C1488 1.092 . S
C5949 C1158 0.982 . S
C5955 C549 0.991 . S
C5969 C1178 0.828 . S
C5975 C1449 0.845 . S
C5989 C1198 0.883 . S
C5995 C509 0.895 . S
C6009 C1218 0.940 . S
C6015 C1568 0.921 . S
C6029 C1238 0.714 . S
C6035 C629 0.730 . S
C6049 C1258 0.936 . S
C6055 C1529 0.946 . S
C6069 C1278 1.175 . S
C6075 C588 1.107 . S
C6089 C729 1.215 1_565 S
C6095 C1298 1.210 . S
C6109 C1609 0.569 . S
C6115 C1301 0.617 . S
C6129 C669 0.899 . S
C6135 C1338 0.889 . S
C6149 C1649 0.964 . S
C6155 C1358 0.948 . S
C6169 C1378 1.142 . S
C6175 C1669 1.151 . S
C6189 C1398 0.950 . S
C6195 C769 0.966 1_545 S
C6209 C1418 0.778 . S
C6215 C789 0.759 . S
C6229 C1438 1.110 . S
C6235 C749 1.128 . S
C6249 C1348 1.168 1_554 S
C6255 C1459 1.159 . S
C6269 C1368 0.916 . S
C6275 C1479 0.928 . S
C6289 C1482 0.562 . S
C6295 C1309 0.607 . S
C6309 C1519 1.127 . S
C6315 C368 1.105 . S
C6329 C428 1.116 . S
C6335 C1539 1.134 . S
C6349 C1542 0.645 . S
C6355 C448 0.632 . S
C6369 C328 0.530 . S
C6375 C1562 0.563 . S
C6389 C468 1.116 . S
C6395 C1599 1.102 . S
C6409 C1619 1.147 . S
C6415 C1009 1.103 . S
C6429 C1639 0.988 . S
C6435 C68 0.972 . S
C6449 C1659 0.828 . S
C6455 C968 0.819 . S
C6469 C1679 0.902 . S
C6475 C28 0.882 . S
C6489 C1089 0.921 . S
C6495 C1699 0.940 . S
C6509 C148 0.715 . S
C6515 C1719 0.696 . S
C6529 C1048 0.938 . S
C6535 C1739 0.955 . S
C6549 C1759 1.176 . S
C6555 C109 1.109 . S
C6569 C248 1.225 1_545 S
C6575 C1779 1.227 . S
C6589 C1782 0.587 . S
C6595 C1128 0.565 . S
C6609 C1819 0.880 . S
C6615 C188 0.899 . S
C6629 C1168 0.954 . S
C6635 C1839 0.955 . S
C6649 C1859 1.136 . S
C6655 C1188 1.150 . S
C6669 C1879 0.959 . S
C6675 C288 0.949 1_565 S
C6689 C308 0.778 . S
C6695 C1899 0.771 . S
C6709 C1919 1.124 . S
C6715 C268 1.126 . S
C6729 C2 1.529 . S
C6735 C182 1.535 . S
C6749 C202 1.665 . S
C6755 C22 1.654 . S
C6769 C59 1.833 . S
C6775 C222 1.786 . S
C6789 C162 1.371 . S
C6795 C62 1.366 . S
C6809 C302 1.427 . S
C6815 C82 1.429 . S
C6829 C242 1.833 . S
C6835 C119 1.883 . S
C6849 C139 1.915 . S
C6855 C262 1.857 . S
C6869 C142 1.624 . S
C6875 C282 1.629 . S
C6889 C322 1.480 . S
C6895 C362 1.489 . S
C6909 C1402 1.586 . S
C6915 C359 1.642 . S
C6929 C382 1.752 . S
C6935 C1422 1.747 . S
C6949 C1382 1.648 . S
C6955 C402 1.647 . S
C6969 C1362 1.636 . S
C6975 C422 1.635 . S
C6989 C442 1.591 . S
C6995 C1319 1.645 . S
C7009 C462 1.737 . S
C7015 C1342 1.747 . S
C7029 C661 1.571 . S
C7035 C481 1.564 . S
C7049 C501 1.623 . S
C7055 C681 1.639 . S
C7069 C538 1.853 . S
C7075 C701 1.809 . S
C7089 C641 1.384 . S
C7095 C541 1.377 . S
C7109 C781 1.430 . S
C7115 C561 1.432 . S
C7129 C721 1.809 . S
C7135 C598 1.871 . S
C7149 C741 1.866 . S
C7155 C618 1.914 . S
C7169 C761 1.619 . S
C7175 C621 1.616 . S
C7189 C841 1.525 . S
C7195 C801 1.519 . S
C7209 C838 1.654 . S
C7215 C1881 1.601 . S
C7229 C861 1.770 . S
C7235 C1901 1.758 . S
C7249 C881 1.644 . S
C7255 C1861 1.644 . S
C7269 C1841 1.647 . S
C7275 C901 1.649 . S
C7289 C1798 1.651 . S
C7295 C921 1.599 . S
C7309 C1821 1.747 . S
C7315 C941 1.737 . S
C7329 C962 1.556 . S
C7335 C1142 1.564 . S
C7349 C982 1.635 . S
C7355 C1162 1.653 . S
C7369 C1019 1.847 . S
C7375 C1182 1.805 . S
C7389 C1022 1.389 . S
C7395 C1122 1.396 . S
C7409 C1262 1.422 . S
C7415 C1042 1.424 . S
C7429 C1079 1.873 . S
C7435 C1202 1.811 . S
C7449 C1222 1.882 . S
C7455 C1099 1.932 . S
C7469 C1242 1.600 . S
C7475 C1102 1.595 . S
C7489 C1322 1.524 . S
C7495 C1282 1.519 . S
C7509 C1441 1.529 . S
C7515 C1621 1.537 . S
C7529 C1641 1.642 . S
C7535 C1461 1.631 . S
C7549 C1498 1.833 . S
C7555 C1661 1.786 . S
C7569 C1601 1.391 . S
C7575 C1501 1.392 . S
C7589 C1521 1.417 . S
C7595 C1741 1.410 . S
C7609 C1681 1.827 . S
C7615 C1558 1.878 . S
C7629 C1578 1.931 . S
C7635 C1701 1.878 . S
C7649 C1581 1.622 . S
C7655 C1721 1.626 . S
C7669 C1761 1.480 . S
C7675 C1801 1.489 . S
