# Generated by pormake.
# Topology gan, (5)-cn, num edge types: 1
# Building blocks:
#     Node 0, Type 0, BuildingBlock: XOMCOT_clean_sbu_0, # of connection points: 5
#     Node 1, Type 0, BuildingBlock: XOMCOT_clean_sbu_0, # of connection points: 5
#     Node 2, Type 0, BuildingBlock: XOMCOT_clean_sbu_0, # of connection points: 5
#     Node 3, Type 0, BuildingBlock: XOMCOT_clean_sbu_0, # of connection points: 5
#     Node 4, Type 0, BuildingBlock: XOMCOT_clean_sbu_0, # of connection points: 5
#     Node 5, Type 0, BuildingBlock: XOMCOT_clean_sbu_0, # of connection points: 5
#     Node 6, Type 0, BuildingBlock: XOMCOT_clean_sbu_0, # of connection points: 5
#     Node 7, Type 0, BuildingBlock: XOMCOT_clean_sbu_0, # of connection points: 5
#     Node 8, Type 0, BuildingBlock: XOMCOT_clean_sbu_0, # of connection points: 5
#     Node 9, Type 0, BuildingBlock: XOMCOT_clean_sbu_0, # of connection points: 5
#     Node 10, Type 0, BuildingBlock: XOMCOT_clean_sbu_0, # of connection points: 5
#     Node 11, Type 0, BuildingBlock: XOMCOT_clean_sbu_0, # of connection points: 5
#     Node 12, Type 0, BuildingBlock: XOMCOT_clean_sbu_0, # of connection points: 5
#     Node 13, Type 0, BuildingBlock: XOMCOT_clean_sbu_0, # of connection points: 5
#     Node 14, Type 0, BuildingBlock: XOMCOT_clean_sbu_0, # of connection points: 5
#     Node 15, Type 0, BuildingBlock: XOMCOT_clean_sbu_0, # of connection points: 5
#     Edge 16, Type (0, 0), BuildingBlock: OJICUG_clean_linker_0, # of connection points: 2
#     Edge 17, Type (0, 0), BuildingBlock: OJICUG_clean_linker_0, # of connection points: 2
#     Edge 18, Type (0, 0), BuildingBlock: OJICUG_clean_linker_0, # of connection points: 2
#     Edge 19, Type (0, 0), BuildingBlock: OJICUG_clean_linker_0, # of connection points: 2
#     Edge 20, Type (0, 0), BuildingBlock: OJICUG_clean_linker_0, # of connection points: 2
#     Edge 21, Type (0, 0), BuildingBlock: OJICUG_clean_linker_0, # of connection points: 2
#     Edge 22, Type (0, 0), BuildingBlock: OJICUG_clean_linker_0, # of connection points: 2
#     Edge 23, Type (0, 0), BuildingBlock: OJICUG_clean_linker_0, # of connection points: 2
#     Edge 24, Type (0, 0), BuildingBlock: OJICUG_clean_linker_0, # of connection points: 2
#     Edge 25, Type (0, 0), BuildingBlock: OJICUG_clean_linker_0, # of connection points: 2
#     Edge 26, Type (0, 0), BuildingBlock: OJICUG_clean_linker_0, # of connection points: 2
#     Edge 27, Type (0, 0), BuildingBlock: OJICUG_clean_linker_0, # of connection points: 2
#     Edge 28, Type (0, 0), BuildingBlock: OJICUG_clean_linker_0, # of connection points: 2
#     Edge 29, Type (0, 0), BuildingBlock: OJICUG_clean_linker_0, # of connection points: 2
#     Edge 30, Type (0, 0), BuildingBlock: OJICUG_clean_linker_0, # of connection points: 2
#     Edge 31, Type (0, 0), BuildingBlock: OJICUG_clean_linker_0, # of connection points: 2
#     Edge 32, Type (0, 0), BuildingBlock: OJICUG_clean_linker_0, # of connection points: 2
#     Edge 33, Type (0, 0), BuildingBlock: OJICUG_clean_linker_0, # of connection points: 2
#     Edge 34, Type (0, 0), BuildingBlock: OJICUG_clean_linker_0, # of connection points: 2
#     Edge 35, Type (0, 0), BuildingBlock: OJICUG_clean_linker_0, # of connection points: 2
#     Edge 36, Type (0, 0), BuildingBlock: OJICUG_clean_linker_0, # of connection points: 2
#     Edge 37, Type (0, 0), BuildingBlock: OJICUG_clean_linker_0, # of connection points: 2
#     Edge 38, Type (0, 0), BuildingBlock: OJICUG_clean_linker_0, # of connection points: 2
#     Edge 39, Type (0, 0), BuildingBlock: OJICUG_clean_linker_0, # of connection points: 2
#     Edge 40, Type (0, 0), BuildingBlock: OJICUG_clean_linker_0, # of connection points: 2
#     Edge 41, Type (0, 0), BuildingBlock: OJICUG_clean_linker_0, # of connection points: 2
#     Edge 42, Type (0, 0), BuildingBlock: OJICUG_clean_linker_0, # of connection points: 2
#     Edge 43, Type (0, 0), BuildingBlock: OJICUG_clean_linker_0, # of connection points: 2
#     Edge 44, Type (0, 0), BuildingBlock: OJICUG_clean_linker_0, # of connection points: 2
#     Edge 45, Type (0, 0), BuildingBlock: OJICUG_clean_linker_0, # of connection points: 2
#     Edge 46, Type (0, 0), BuildingBlock: OJICUG_clean_linker_0, # of connection points: 2
#     Edge 47, Type (0, 0), BuildingBlock: OJICUG_clean_linker_0, # of connection points: 2
#     Edge 48, Type (0, 0), BuildingBlock: OJICUG_clean_linker_0, # of connection points: 2
#     Edge 49, Type (0, 0), BuildingBlock: OJICUG_clean_linker_0, # of connection points: 2
#     Edge 50, Type (0, 0), BuildingBlock: OJICUG_clean_linker_0, # of connection points: 2
#     Edge 51, Type (0, 0), BuildingBlock: OJICUG_clean_linker_0, # of connection points: 2
#     Edge 52, Type (0, 0), BuildingBlock: OJICUG_clean_linker_0, # of connection points: 2
#     Edge 53, Type (0, 0), BuildingBlock: OJICUG_clean_linker_0, # of connection points: 2
#     Edge 54, Type (0, 0), BuildingBlock: OJICUG_clean_linker_0, # of connection points: 2
#     Edge 55, Type (0, 0), BuildingBlock: OJICUG_clean_linker_0, # of connection points: 2
# Relax obj value: 0.085
# Max RMSD: 0.113
# Mean RMSD: 0.099
data_MOF--net-gan--node1-XOMCOT_clean_sbu_0--edge1-OJICUG_clean_linker_0
_symmetry_space_group_name_H-M    P1
_symmetry_Int_Tables_number       1
_symmetry_cell_setting            triclinic
loop_
_symmetry_equiv_pos_as_xyz
'x, y, z'
_cell_length_a     31.975908
_cell_length_b     32.740364
_cell_length_c     31.852194
_cell_angle_alpha  91.03889
_cell_angle_beta   91.052476
_cell_angle_gamma 91.053471
loop_
_atom_site_label
_atom_site_type_symbol
_atom_site_fract_x
_atom_site_fract_y
_atom_site_fract_z
_atom_type_partial_charge
Co0 Co 0.10608 0.15725 0.08743 0.0
C1 C 0.15802 0.20932 0.1477 0.0
C2 C 0.18264 0.20902 0.08549 0.0
C3 C 0.20864 0.23284 0.11135 0.0
N4 N 0.15102 0.194 0.10826 0.0
N5 N 0.19337 0.23289 0.1506 0.0
H6 H 0.13792 0.20289 0.17383 0.0
H7 H 0.18697 0.20244 0.05248 0.0
C8 C 0.16057 0.0858 0.06167 0.0
O9 O 0.13788 0.05829 0.08089 0.0
N10 N 0.06001 0.1211 0.06644 0.0
C11 C 1.01948 0.12518 0.07687 0.0
C12 C 0.99557 0.09512 0.05734 0.0
C13 C 0.05938 0.08911 0.03855 0.0
N14 N 1.02048 0.07207 0.03341 0.0
C15 C 0.07469 0.12495 0.16395 0.0
C16 C 0.15024 0.09599 0.19295 0.0
C17 C 0.11474 0.09161 0.21758 0.0
C18 C 0.07656 0.10624 0.20282 0.0
C19 C 0.14688 0.11463 0.15431 0.0
N20 N 0.10924 0.12781 0.13956 0.0
H21 H 0.04578 0.13851 0.15446 0.0
H22 H 0.17496 0.11985 0.13701 0.0
H23 H 1.00726 0.149 0.09678 0.0
H24 H 0.08632 0.07878 1.02173 0.0
O25 O 0.06678 0.19769 0.1036 0.0
O26 O 0.09662 0.19292 0.04095 0.0
O27 O 0.14982 0.12307 0.0605 0.0
C28 C 0.07166 0.21192 0.06609 0.0
H29 H 0.23746 0.24774 0.10217 0.0
H30 H 0.96197 0.09146 0.05947 0.0
H31 H 0.18047 0.0854 0.20356 0.0
H32 H 0.04877 0.10446 0.22171 0.0
Co33 Co 0.16184 0.96179 0.41994 0.0
C34 C 0.10048 1.01722 0.46515 0.0
C35 C 0.16029 1.017 0.49635 0.0
C36 C 0.13402 0.04197 0.51883 0.0
N37 N 0.13959 1.001 0.46239 0.0
N38 N 0.0961 0.04215 0.49957 0.0
H39 H 0.07557 1.01122 0.44235 0.0
H40 H 0.19224 1.01074 0.50515 0.0
C41 C 0.24841 0.97733 0.44958 0.0
O42 O 0.25107 1.00248 0.41812 0.0
N43 N 0.18174 0.92192 0.37698 0.0
C44 C 0.15431 0.89708 0.35581 0.0
C45 C 0.17522 0.87079 0.32992 0.0
C46 C 0.21999 0.91 0.36269 0.0
N47 N 0.21671 0.87828 0.33385 0.0
C48 C 0.09261 0.91588 0.44844 0.0
C49 C 0.13655 0.84576 0.46485 0.0
C50 C 0.0928 0.8437 0.46134 0.0
C51 C 0.0708 0.87973 0.4555 0.0
C52 C 0.15732 0.88297 0.45808 0.0
N53 N 0.1352 0.91683 0.44799 0.0
H54 H 0.07502 0.94205 0.43932 0.0
H55 H 0.19107 0.88346 0.45676 0.0
H56 H 0.12076 0.89754 0.35943 0.0
H57 H 0.24944 0.9235 0.37359 0.0
O58 O 0.11675 0.97546 0.38162 0.0
O59 O 0.17878 1.00661 0.38615 0.0
O60 O 0.21483 0.95618 0.45466 0.0
C61 C 0.14211 1.00363 0.36832 0.0
H62 H 0.14207 0.0578 0.54808 0.0
H63 H 0.16061 0.84795 0.30918 0.0
H64 H 0.15456 0.81843 0.46927 0.0
H65 H 0.03694 0.87941 0.45328 0.0
Co66 Co 0.44312 0.9079 0.61136 0.0
C67 C 0.39253 0.85808 0.67392 0.0
C68 C 0.36466 0.85958 0.61238 0.0
C69 C 0.34167 0.83305 0.63622 0.0
N70 N 0.39644 0.87603 0.63572 0.0
N71 N 0.35905 0.83145 0.67509 0.0
H72 H 0.41485 0.86294 0.69955 0.0
H73 H 0.35991 0.86446 0.57921 0.0
C74 C 0.3883 0.96855 0.56621 0.0
O75 O 0.40643 1.00044 0.58494 0.0
N76 N 0.49125 0.93784 0.58503 0.0
C77 C 0.53181 0.92973 0.59376 0.0
C78 C 0.55773 0.95307 0.56969 0.0
C79 C 0.49401 0.96633 0.55395 0.0
N80 N 0.53456 0.97633 0.54415 0.0
C81 C 0.47364 0.96312 0.67511 0.0
C82 C 0.39694 0.98401 0.70676 0.0
C83 C 0.43362 0.99678 0.72845 0.0
C84 C 0.47222 0.98693 0.71162 0.0
C85 C 0.39978 0.96095 0.66942 0.0
N86 N 0.4379 0.95027 0.65437 0.0
H87 H 0.50371 0.95295 0.66525 0.0
H88 H 0.37135 0.95007 0.65369 0.0
H89 H 0.54272 0.90839 0.61676 0.0
H90 H 0.46729 0.97876 0.53785 0.0
O91 O 0.48055 0.87444 0.64193 0.0
O92 O 0.45492 0.86053 0.57752 0.0
O93 O 0.40133 0.93262 0.57221 0.0
C94 C 0.47656 0.84903 0.61018 0.0
H95 H 0.31448 0.81565 0.62509 0.0
H96 H 0.59154 0.95312 0.57166 0.0
H97 H 0.36647 0.99113 0.71896 0.0
H98 H 0.50119 0.99558 0.72789 0.0
Co99 Co 0.38666 0.0951 0.96795 0.0
C100 C 0.34062 0.16037 0.91432 0.0
C101 C 0.32999 0.09831 0.89437 0.0
C102 C 0.30757 0.12317 0.86819 0.0
N103 N 0.35133 0.12104 0.92358 0.0
N104 N 0.31399 0.16255 0.88024 0.0
H105 H 0.35197 0.18706 0.93149 0.0
H106 H 0.33057 0.06532 0.8922 0.0
C107 C 0.42835 0.08286 0.88765 0.0
O108 O 0.42753 0.1228 0.88458 0.0
N109 N 0.42084 0.06929 1.01278 0.0
C110 C 0.42414 0.0858 0.05183 0.0
C111 C 0.45066 0.06327 0.07616 0.0
C112 C 0.44679 0.03641 1.01416 0.0
N113 N 0.46524 0.03185 0.05309 0.0
C114 C 0.41337 0.17688 0.9867 0.0
C115 C 0.49716 0.16577 0.97121 0.0
C116 C 0.48376 0.20432 0.98451 0.0
C117 C 0.44138 0.20947 0.99304 0.0
C118 C 0.46796 0.13397 0.96523 0.0
N119 N 0.42632 0.14041 0.97077 0.0
H120 H 0.38117 0.18095 0.99508 0.0
H121 H 0.47889 0.10401 0.95655 0.0
H122 H 0.40901 0.11343 0.06199 0.0
H123 H 0.45219 1.01647 0.98742 0.0
O124 O 0.34916 0.11424 1.0096 0.0
O125 O 0.34197 0.05495 0.97522 0.0
O126 O 0.4172 0.06591 0.92171 0.0
C127 C 0.32757 0.08075 1.00274 0.0
H128 H 0.2873 0.11251 0.84258 0.0
H129 H 0.45958 0.07056 0.10841 0.0
H130 H 0.52988 0.16023 0.96552 0.0
H131 H 0.42969 0.23865 1.00367 0.0
Co132 Co 0.6518 0.46074 0.91071 0.0
C133 C 0.59219 0.51146 0.96187 0.0
C134 C 0.65574 0.53298 0.96844 0.0
C135 C 0.63061 0.55781 0.99239 0.0
N136 N 0.63187 0.50375 0.94919 0.0
N137 N 0.59037 0.54456 0.98849 0.0
H138 H 0.56518 0.49337 0.95148 0.0
H139 H 0.68927 0.53608 0.96536 0.0
C140 C 0.72061 0.42089 0.96038 0.0
O141 O 0.70633 0.38416 0.94987 0.0
N142 N 0.67072 0.4172 0.87072 0.0
C143 C 0.64434 0.39544 0.84494 0.0
C144 C 0.66619 0.3689 0.82025 0.0
C145 C 0.70949 0.40408 0.85908 0.0
N146 N 0.70734 0.37366 0.82883 0.0
C147 C 0.58094 0.4079 0.91902 0.0
C148 C 0.60448 0.37424 0.99455 0.0
C149 C 0.57307 0.35516 0.96973 0.0
C150 C 0.55942 0.37381 0.93303 0.0
C151 C 0.62523 0.40864 0.97905 0.0
N152 N 0.6164 0.42176 0.9394 0.0
H153 H 0.56996 0.42194 0.89068 0.0
H154 H 0.64928 0.42349 0.9983 0.0
H155 H 0.61113 0.39957 0.84207 0.0
H156 H 0.73856 0.41647 0.87226 0.0
O157 O 0.61262 0.47876 0.86857 0.0
O158 O 0.67834 0.50105 0.8769 0.0
O159 O 0.7015 0.45271 0.94886 0.0
C160 C 0.64307 0.50226 0.85615 0.0
H161 H 0.64163 0.58336 1.01184 0.0
H162 H 0.65261 0.34869 0.79619 0.0
H163 H 0.61424 0.36158 1.02426 0.0
H164 H 0.53352 0.36102 0.91436 0.0
Co165 Co 0.94193 0.40265 0.10161 0.0
C166 C 0.90076 0.3427 0.16341 0.0
C167 C 0.88343 0.33306 0.09866 0.0
C168 C 0.85996 0.30688 0.12234 0.0
N169 N 0.90915 0.35603 0.12385 0.0
N170 N 0.87024 0.31276 0.16327 0.0
H171 H 0.91532 0.35556 0.19171 0.0
H172 H 0.88065 0.33616 0.06499 0.0
C173 C 0.88021 0.43461 0.04469 0.0
O174 O 0.91095 0.43491 1.01792 0.0
N175 N 0.97279 0.45015 0.07869 0.0
C176 C 0.96061 0.48893 0.08493 0.0
C177 C 0.98694 0.51521 0.06446 0.0
C178 C 1.00711 0.45376 0.05395 0.0
N179 N 1.01659 0.49355 0.04479 0.0
C180 C 0.9808 0.43922 0.17258 0.0
C181 C 0.91013 0.45909 0.21637 0.0
C182 C 0.94991 0.46737 0.23471 0.0
C183 C 0.98537 0.45738 0.21205 0.0
C184 C 0.90691 0.44066 0.17635 0.0
N185 N 0.94217 0.43057 0.15544 0.0
H186 H 1.00868 0.43204 0.15556 0.0
H187 H 0.87639 0.43373 0.16259 0.0
H188 H 0.93367 0.49763 0.10284 0.0
H189 H 1.02472 0.42798 0.04289 0.0
O190 O 0.99283 0.37394 0.10966 0.0
O191 O 0.95292 0.36995 0.05184 0.0
O192 O 0.88743 0.42599 0.08297 0.0
C193 C 0.98589 0.35816 0.0725 0.0
H194 H 0.83662 0.28521 0.11013 0.0
H195 H 0.98354 0.54797 0.06361 0.0
H196 H 0.88187 0.4668 0.23272 0.0
H197 H 1.01659 0.46275 0.22498 0.0
Co198 Co 0.895 0.58651 0.45228 0.0
C199 C 0.84802 0.65041 0.40113 0.0
C200 C 0.85289 0.59261 0.36917 0.0
C201 C 0.83044 0.61843 0.34399 0.0
N202 N 0.86438 0.6123 0.40515 0.0
N203 N 0.82684 0.65507 0.36372 0.0
H204 H 0.85098 0.67391 0.42538 0.0
H205 H 0.85987 0.56114 0.36171 0.0
C206 C 0.96032 0.54597 0.3972 0.0
O207 O 0.99284 0.56603 0.4135 0.0
N208 N 0.92462 0.55993 0.50032 0.0
C209 C 0.91561 0.56699 0.54114 0.0
C210 C 0.94019 0.54375 0.56664 0.0
C211 C 0.95513 0.53108 0.50239 0.0
N212 N 0.96526 0.52074 0.54278 0.0
C213 C 0.94788 0.64915 0.48842 0.0
C214 C 0.98236 0.67491 0.41431 0.0
C215 C 0.99469 0.69445 0.45223 0.0
C216 C 0.97704 0.68121 0.48958 0.0
C217 C 0.95304 0.64283 0.4146 0.0
N218 N 0.93708 0.62964 0.45153 0.0
H219 H 0.93302 0.64094 0.51718 0.0
H220 H 0.94311 0.62857 0.38512 0.0
H221 H 0.8929 0.5883 0.55254 0.0
H222 H 0.96912 0.51718 0.47524 0.0
O223 O 0.85672 0.61109 0.49041 0.0
O224 O 0.84861 0.54991 0.45897 0.0
O225 O 0.92367 0.55133 0.41066 0.0
C226 C 0.8344 0.57765 0.4843 0.0
H227 H 0.81791 0.61041 0.31311 0.0
H228 H 0.93994 0.54458 0.6006 0.0
H229 H 0.99493 0.68455 0.38466 0.0
H230 H 0.98439 0.69653 0.5193 0.0
Co231 Co 0.84726 0.88388 0.87012 0.0
C232 C 0.91769 0.92711 0.91979 0.0
C233 C 0.91595 0.94353 0.85517 0.0
C234 C 0.94646 0.96675 0.8753 0.0
N235 N 0.89775 0.91794 0.88256 0.0
N236 N 0.94756 0.95687 0.91608 0.0
H237 H 0.90961 0.91368 0.94937 0.0
H238 H 0.90628 0.94772 0.82299 0.0
C239 C 0.83013 0.92227 0.78367 0.0
O240 O 0.83538 0.88925 0.76058 0.0
N241 N 0.79624 0.8512 0.85645 0.0
C242 C 0.7618 0.84643 0.88003 0.0
C243 C 0.73272 0.82215 0.85844 0.0
C244 C 0.78695 0.82971 0.82048 0.0
N245 N 0.74841 0.81171 0.82089 0.0
C246 C 0.87998 0.80671 0.85151 0.0
C247 C 0.93586 0.82873 0.79072 0.0
C248 C 0.939 0.78978 0.8084 0.0
C249 C 0.90913 0.77855 0.83798 0.0
C250 C 0.90681 0.85648 0.8061 0.0
N251 N 0.88015 0.84574 0.8372 0.0
H252 H 0.85859 0.79773 0.87567 0.0
H253 H 0.9072 0.88674 0.79372 0.0
H254 H 0.75717 0.86004 0.91067 0.0
H255 H 0.80814 0.82659 0.79468 0.0
O256 O 0.85331 0.85716 0.92345 0.0
O257 O 0.81806 0.91388 0.91295 0.0
O258 O 0.83355 0.92182 0.8235 0.0
C259 C 0.83084 0.88628 0.93895 0.0
H260 H 0.96413 0.99145 0.8615 0.0
H261 H 0.70183 0.81384 0.86915 0.0
H262 H 0.95697 0.83868 0.76663 0.0
H263 H 0.90977 0.74932 0.85323 0.0
Co264 Co 0.88213 0.19828 0.6482 0.0
C265 C 0.82935 0.25082 0.70971 0.0
C266 C 0.86919 0.28432 0.66896 0.0
C267 C 0.84963 0.31165 0.69504 0.0
N268 N 0.85685 0.24581 0.67752 0.0
N269 N 0.82441 0.29102 0.72104 0.0
H270 H 0.81393 0.22602 0.72544 0.0
H271 H 0.89173 0.29218 0.64539 0.0
C272 C 0.97514 0.20762 0.67458 0.0
O273 O 0.98387 0.16988 0.66386 0.0
N274 N 0.90847 0.15214 0.61762 0.0
C275 C 0.89462 0.11298 0.61742 0.0
C276 C 0.92034 0.08923 0.59309 0.0
C277 C 0.94197 0.15151 0.59144 0.0
N278 N 0.95068 0.1131 0.57696 0.0
C279 C 0.8318 0.14996 0.70083 0.0
C280 C 0.89574 0.10426 0.73351 0.0
C281 C 0.85486 0.0882 0.73321 0.0
C282 C 0.82237 0.1127 0.71927 0.0
C283 C 0.90368 0.14235 0.71575 0.0
N284 N 0.87234 0.16309 0.69627 0.0
H285 H 0.80633 0.16619 0.68657 0.0
H286 H 0.93534 0.15307 0.71543 0.0
H287 H 0.86772 0.10203 0.63422 0.0
H288 H 0.96033 0.17847 0.5841 0.0
O289 O 0.83022 0.1853 0.61941 0.0
O290 O 0.87844 0.22725 0.59478 0.0
O291 O 0.9379 0.22088 0.67081 0.0
C292 C 0.84188 0.20918 0.58986 0.0
H293 H 0.85349 0.34454 0.69438 0.0
H294 H 0.91761 0.05641 0.58882 0.0
H295 H 0.92156 0.08673 0.74564 0.0
H296 H 0.79021 0.10167 0.71924 0.0
Co297 Co 0.7032 0.15725 0.36492 0.0
C298 C 0.7551 0.20389 0.30097 0.0
C299 C 0.79099 0.16404 0.33955 0.0
C300 C 0.81799 0.18599 0.31485 0.0
N301 N 0.75135 0.17504 0.33127 0.0
N302 N 0.79579 0.21145 0.29054 0.0
H303 H 0.72886 0.22014 0.28796 0.0
H304 H 0.7999 0.14232 0.36313 0.0
C305 C 0.72458 0.19233 0.45137 0.0
O306 O 0.68499 0.20021 0.45698 0.0
N307 N 0.65466 0.13892 0.39961 0.0
C308 C 0.62044 0.16075 0.4089 0.0
C309 C 0.59323 0.13774 0.43213 0.0
C310 C 0.64682 0.10208 0.41814 0.0
N311 N 0.60919 0.10042 0.43813 0.0
C312 C 0.64465 0.21067 0.32829 0.0
C313 C 0.67173 0.28273 0.36718 0.0
C314 C 0.63571 0.28268 0.34133 0.0
C315 C 0.6232 0.24629 0.32077 0.0
C316 C 0.69324 0.2462 0.37303 0.0
N317 N 0.67802 0.21025 0.35568 0.0
H318 H 0.63241 0.18286 0.31385 0.0
H319 H 0.72171 0.24704 0.39169 0.0
H320 H 0.61547 0.19222 0.40116 0.0
H321 H 0.66812 0.07685 0.4168 0.0
O322 O 0.67834 0.12858 0.31714 0.0
O323 O 0.72225 0.10102 0.36248 0.0
O324 O 0.73631 0.17632 0.41677 0.0
C325 C 0.6977 0.09645 0.32956 0.0
H326 H 0.85167 0.18335 0.31503 0.0
H327 H 0.56415 0.14863 0.44454 0.0
H328 H 0.68271 0.31049 0.38314 0.0
H329 H 0.59522 0.24461 0.30105 0.0
Co330 Co 0.6681 0.86293 0.20886 0.0
C331 C 0.71879 0.80049 0.25861 0.0
C332 C 0.70935 0.85612 0.2931 0.0
C333 C 0.73232 0.83034 0.31785 0.0
N334 N 0.70084 0.83807 0.25543 0.0
N335 N 0.73872 0.79508 0.29653 0.0
H336 H 0.71726 0.77752 0.2338 0.0
H337 H 0.6992 0.886 0.30285 0.0
C338 C 0.65127 0.93884 0.25701 0.0
O339 O 0.61326 0.92432 0.26252 0.0
N340 N 0.63556 0.88679 0.16155 0.0
C341 C 0.63865 0.87287 0.12166 0.0
C342 C 0.61188 0.89368 0.09574 0.0
C343 C 0.60579 0.91631 0.1589 0.0
N344 N 0.59086 0.92136 0.11866 0.0
C345 C 0.7358 0.83665 0.15841 0.0
C346 C 0.75733 0.91368 0.13084 0.0
C347 C 0.77175 0.87944 0.10882 0.0
C348 C 0.76244 0.84054 0.12437 0.0
C349 C 0.73029 0.90847 0.16419 0.0
N350 N 0.71841 0.87024 0.17646 0.0
H351 H 0.72607 0.80641 0.16749 0.0
H352 H 0.71616 0.9354 0.17719 0.0
H353 H 0.65879 0.84844 0.11189 0.0
H354 H 0.59514 0.93371 0.18558 0.0
O355 O 0.651 0.80935 0.18861 0.0
O356 O 0.61646 0.84657 0.23483 0.0
O357 O 0.6774 0.91835 0.236 0.0
C358 C 0.61848 0.81331 0.21206 0.0
H359 H 0.74261 0.83703 0.34982 0.0
H360 H 0.60769 0.8878 0.0624 0.0
H361 H 0.76445 0.94434 0.12058 0.0
H362 H 0.7726 0.81312 0.10834 0.0
Co363 Co 0.38609 0.69861 0.15202 0.0
C364 C 0.33475 0.7538 0.21164 0.0
C365 C 0.37291 0.78595 0.16825 0.0
C366 C 0.35376 0.8141 0.19386 0.0
N367 N 0.3613 0.74778 0.1788 0.0
N368 N 0.32961 0.79433 0.22157 0.0
H369 H 0.32023 0.72936 0.22877 0.0
H370 H 0.39473 0.79304 0.14376 0.0
C371 C 0.4788 0.70482 0.17634 0.0
O372 O 0.48465 0.66596 0.16808 0.0
N373 N 0.41157 0.65048 0.1241 0.0
C374 C 0.39991 0.61105 0.12866 0.0
C375 C 0.42442 0.58643 0.10401 0.0
C376 C 0.44235 0.64894 0.09483 0.0
N377 N 0.45165 0.60992 0.08275 0.0
C378 C 0.33516 0.65169 0.20535 0.0
C379 C 0.39983 0.61286 0.24562 0.0
C380 C 0.36029 0.59373 0.24305 0.0
C381 C 0.32701 0.6151 0.22558 0.0
C382 C 0.4064 0.64995 0.22555 0.0
N383 N 0.37518 0.66658 0.20196 0.0
H384 H 0.30957 0.66573 0.18887 0.0
H385 H 0.43721 0.66316 0.22706 0.0
H386 H 0.37523 0.60043 0.1486 0.0
H387 H 0.45837 0.67588 0.08353 0.0
O388 O 0.3345 0.68548 0.12257 0.0
O389 O 0.38503 0.72449 0.09728 0.0
O390 O 0.44237 0.7202 0.17357 0.0
C391 C 0.34869 0.70628 0.09162 0.0
H392 H 0.3573 0.84692 0.19176 0.0
H393 H 0.42284 0.55339 0.10288 0.0
H394 H 0.42594 0.59816 0.26088 0.0
H395 H 0.2957 0.60192 0.2239 0.0
Co396 Co 0.21894 0.65115 0.87999 0.0
C397 C 0.15583 0.60102 0.92984 0.0
C398 C 0.20867 0.56724 0.90918 0.0
C399 C 0.18262 0.54134 0.93061 0.0
N400 N 0.19203 0.60467 0.90804 0.0
N401 N 0.1491 0.56219 0.94371 0.0
H402 H 0.13475 0.62602 0.935 0.0
H403 H 0.23827 0.55932 0.89564 0.0
C404 C 0.21443 0.61212 0.79256 0.0
O405 O 0.19871 0.64525 0.77634 0.0
N406 N 0.24782 0.69834 0.85239 0.0
C407 C 0.25472 0.73501 0.8719 0.0
C408 C 0.27719 0.76057 0.84697 0.0
C409 C 0.26788 0.70279 0.81493 0.0
N410 N 0.28592 0.74083 0.81092 0.0
C411 C 0.15494 0.70832 0.86753 0.0
C412 C 0.09854 0.65903 0.82251 0.0
C413 C 0.08994 0.70071 0.82821 0.0
C414 C 0.11823 0.72487 0.85229 0.0
C415 C 0.13602 0.64346 0.83885 0.0
N416 N 0.16477 0.6688 0.85892 0.0
H417 H 0.17527 0.7275 0.88689 0.0
H418 H 0.14213 0.61128 0.83484 0.0
H419 H 0.2443 0.74354 0.90283 0.0
H420 H 0.27054 0.67866 0.79163 0.0
O421 O 0.21945 0.681 0.93267 0.0
O422 O 0.27062 0.64148 0.911 0.0
O423 O 0.22759 0.61252 0.83065 0.0
C424 C 0.25629 0.66622 0.93965 0.0
H425 H 0.18861 0.50958 0.93685 0.0
H426 H 0.2859 0.79192 0.85483 0.0
H427 H 0.07689 0.63882 0.80535 0.0
H428 H 0.11186 0.75647 0.86009 0.0
Co429 Co 0.16622 0.36267 0.7074 0.0
C430 C 0.21497 0.30507 0.76345 0.0
C431 C 0.19796 0.3601 0.79565 0.0
C432 C 0.21943 0.33569 0.82335 0.0
N433 N 0.19514 0.34129 0.75776 0.0
N434 N 0.2305 0.30077 0.80345 0.0
H435 H 0.21767 0.2822 0.73886 0.0
H436 H 0.18473 0.38945 0.80307 0.0
C437 C 0.1782 0.45556 0.70868 0.0
O438 O 0.17349 0.45539 0.66767 0.0
N439 N 0.13645 0.38249 0.65652 0.0
C440 C 0.14535 0.3724 0.61644 0.0
C441 C 0.1186 0.39191 0.58942 0.0
C442 C 0.10255 0.40718 0.6528 0.0
N443 N 0.09169 0.41435 0.61187 0.0
C444 C 0.22679 0.32267 0.65755 0.0
C445 C 0.26615 0.39291 0.63096 0.0
C446 C 0.2676 0.35732 0.60607 0.0
C447 C 0.25104 0.32103 0.62171 0.0
C448 C 0.24251 0.39279 0.66735 0.0
N449 N 0.21861 0.35932 0.67677 0.0
H450 H 0.21084 0.29498 0.66638 0.0
H451 H 0.24221 0.42027 0.68606 0.0
H452 H 0.16939 0.35187 0.60679 0.0
H453 H 0.08729 0.42086 0.67949 0.0
O454 O 0.14519 0.30879 0.69391 0.0
O455 O 0.11189 0.35373 0.73307 0.0
O456 O 0.17824 0.4216 0.72854 0.0
C457 C 0.11233 0.31764 0.71504 0.0
H458 H 0.2255 0.34321 0.85611 0.0
H459 H 0.11881 0.38914 0.55553 0.0
H460 H 0.28099 0.42105 0.62106 0.0
H461 H 0.2527 0.29255 0.604 0.0
Co462 Co 0.57584 0.63377 0.6393 0.0
C463 C 0.51834 0.58217 0.58711 0.0
C464 C 0.51032 0.57042 0.65255 0.0
C465 C 0.48459 0.54384 0.62931 0.0
N466 N 0.53154 0.59428 0.62597 0.0
N467 N 0.48973 0.55127 0.58814 0.0
H468 H 0.53039 0.59501 0.5586 0.0
H469 H 0.51365 0.57181 0.68639 0.0
C470 C 0.6275 0.59764 0.70732 0.0
O471 O 0.66131 0.61126 0.68888 0.0
N472 N 0.62051 0.67441 0.65253 0.0
C473 C 0.64714 0.69197 0.62563 0.0
C474 C 0.67316 0.71909 0.64731 0.0
C475 C 0.62999 0.69271 0.69026 0.0
N476 N 0.66277 0.71968 0.68821 0.0
C477 C 0.62018 0.61675 0.56449 0.0
C478 C 0.66083 0.54868 0.5932 0.0
C479 C 0.67459 0.5681 0.55722 0.0
C480 C 0.65199 0.60037 0.54095 0.0
C481 C 0.62769 0.56545 0.61503 0.0
N482 N 0.61193 0.60218 0.60338 0.0
H483 H 0.60467 0.64326 0.55272 0.0
H484 H 0.61655 0.54995 0.64232 0.0
H485 H 0.64781 0.68651 0.59226 0.0
H486 H 0.61331 0.68599 0.71862 0.0
O487 O 0.55353 0.66971 0.59805 0.0
O488 O 0.53702 0.6696 0.66555 0.0
O489 O 0.5914 0.60247 0.6906 0.0
C490 C 0.53332 0.68611 0.62883 0.0
H491 H 0.4635 0.52106 0.6418 0.0
H492 H 0.69813 0.73666 0.63348 0.0
H493 H 0.67711 0.52269 0.60565 0.0
H494 H 0.66158 0.6154 0.51255 0.0
Co495 Co 0.34435 0.38486 0.37375 0.0
C496 C 0.39393 0.43712 0.4363 0.0
C497 C 0.34821 0.47063 0.40152 0.0
C498 C 0.36861 0.49711 0.42913 0.0
N499 N 0.36437 0.43312 0.40536 0.0
N500 N 0.39732 0.4762 0.45104 0.0
H501 H 0.41251 0.41216 0.44763 0.0
H502 H 0.32256 0.47824 0.38073 0.0
C503 C 0.34358 0.42568 0.2905 0.0
O504 O 0.36681 0.39688 0.27437 0.0
N505 N 0.32143 0.3368 0.34203 0.0
C506 C 0.31943 0.29808 0.35602 0.0
C507 C 0.29661 0.27383 0.32794 0.0
C508 C 0.29829 0.33528 0.30567 0.0
N509 N 0.28317 0.2971 0.29616 0.0
C510 C 0.41731 0.3392 0.35671 0.0
C511 C 0.46871 0.40474 0.33677 0.0
C512 C 0.48592 0.36619 0.3417 0.0
C513 C 0.45974 0.33311 0.35095 0.0
C514 C 0.42579 0.40958 0.34282 0.0
N515 N 0.40055 0.37696 0.35278 0.0
H516 H 0.39864 0.31385 0.36708 0.0
H517 H 0.41322 0.43994 0.3412 0.0
H518 H 0.33283 0.28781 0.38529 0.0
H519 H 0.29069 0.36165 0.28739 0.0
O520 O 0.3506 0.35335 0.42345 0.0
O521 O 0.29357 0.38728 0.40537 0.0
O522 O 0.32856 0.422 0.327 0.0
C523 C 0.31344 0.36544 0.43296 0.0
H524 H 0.36189 0.52916 0.4337 0.0
H525 H 0.29032 0.24143 0.33088 0.0
H526 H 0.48839 0.43099 0.33 0.0
H527 H 0.47238 0.30297 0.35547 0.0
C528 C 0.20826 0.23361 0.22756 0.0
C529 C 0.21321 0.25124 0.18798 0.0
H530 H 0.22614 0.23438 0.29273 0.0
C531 C 0.23982 0.28592 0.18527 0.0
H532 H 0.18837 0.20681 0.23096 0.0
C533 C 0.26162 0.30183 0.22086 0.0
C534 C 0.25785 0.28323 0.26011 0.0
H535 H 0.24411 0.30061 0.15546 0.0
H536 H 0.28252 0.32788 0.21734 0.0
C537 C 0.23037 0.24924 0.263 0.0
C538 C 1.02677 0.11629 0.55892 0.0
C539 C 0.9866 0.09837 0.55342 0.0
H540 H 0.09256 0.11284 0.54647 0.0
C541 C 0.98304 0.06307 0.5272 0.0
H542 H 0.03113 0.14313 0.57899 0.0
C543 C 1.01834 0.04571 0.50818 0.0
C544 C 0.0588 0.06255 0.51519 0.0
H545 H 0.95278 0.04834 0.52185 0.0
H546 H 1.01411 1.01807 0.4893 0.0
C547 C 0.06221 0.09854 0.54046 0.0
C548 C 0.29929 0.74907 0.73416 0.0
C549 C 0.30854 0.75946 0.77634 0.0
H550 H 0.30809 0.76276 0.66938 0.0
C551 C 0.33771 0.79194 0.78422 0.0
H552 H 0.27718 0.72448 0.72658 0.0
C553 C 0.3552 0.81456 0.75139 0.0
C554 C 0.3443 0.80566 0.7092 0.0
H555 H 0.34653 0.80062 0.81615 0.0
H556 H 0.37621 0.83994 0.75927 0.0
C557 C 0.3168 0.77173 0.70122 0.0
C558 C 0.49913 0.99406 0.11228 0.0
C559 C 0.49544 1.00213 0.06876 0.0
H560 H 0.53124 0.96305 0.16206 0.0
C561 C 0.52376 0.98256 0.04216 0.0
H562 H 0.47777 1.00772 0.13416 0.0
C563 C 0.55489 0.95668 0.0585 0.0
C564 C 0.55888 0.94896 0.10216 0.0
H565 H 0.52264 0.98806 1.00876 0.0
H566 H 0.5763 0.94331 0.03654 0.0
C567 C 0.53015 0.9682 0.12861 0.0
C568 C 0.26808 0.79417 0.26964 0.0
C569 C 0.30371 0.81392 0.25366 0.0
H570 H 0.21356 0.79836 0.30769 0.0
C571 C 0.31214 0.85458 0.26822 0.0
H572 H 0.26016 0.76316 0.2597 0.0
C573 C 0.28512 0.87511 0.29606 0.0
C574 C 0.2484 0.85594 0.31026 0.0
H575 H 0.33951 0.87103 0.25769 0.0
H576 H 0.29215 0.90655 0.30509 0.0
C577 C 0.24102 0.81475 0.29717 0.0
C578 C 0.5936 1.00311 0.50058 0.0
C579 C 0.55173 1.00574 0.5143 0.0
H580 H 0.64442 0.02999 0.46668 0.0
C581 C 0.52861 0.03904 0.49996 0.0
H582 H 0.6127 0.97772 0.50962 0.0
C583 C 0.54704 0.06915 0.47444 0.0
C584 C 0.58951 0.06742 0.46218 0.0
H585 H 0.49649 0.04253 0.50933 0.0
H586 H 0.52759 0.09401 0.46469 0.0
C587 C 0.61207 0.03325 0.47525 0.0
C588 C 0.27685 0.1953 0.81944 0.0
C589 C 0.29491 0.19818 0.86041 0.0
H590 H 0.24279 0.22409 0.7697 0.0
C591 C 0.29243 0.23628 0.88143 0.0
H592 H 0.27841 0.16719 0.80127 0.0
C593 C 0.272 0.26961 0.86274 0.0
C594 C 0.25304 0.26642 0.82212 0.0
H595 H 0.30562 0.24033 0.91278 0.0
H596 H 0.27119 0.29793 0.88062 0.0
C597 C 0.2564 0.22853 0.80081 0.0
C598 C 0.97049 1.015 1.01684 0.0
C599 C 1.00635 0.03821 1.00655 0.0
H600 H 0.9238 0.97079 0.9965 0.0
C601 C 1.02563 0.02981 0.96819 0.0
H602 H 0.95534 1.01997 0.04656 0.0
C603 C 1.00768 1.00115 0.9396 0.0
C604 C 0.97011 0.98007 0.94869 0.0
H605 H 0.05327 0.04689 0.95929 0.0
H606 H 1.0224 0.9966 0.90959 0.0
C607 C 0.95262 0.9863 0.98834 0.0
C608 C 0.80651 0.34925 0.76983 0.0
C609 C 0.79743 0.30971 0.7526 0.0
H610 H 0.78595 0.40025 0.80771 0.0
C611 C 0.75999 0.29055 0.76486 0.0
H612 H 0.83526 0.36508 0.76208 0.0
C613 C 0.7318 0.31089 0.79131 0.0
C614 C 0.73991 0.35114 0.80691 0.0
H615 H 0.75155 0.26039 0.75265 0.0
H616 H 0.70287 0.29523 0.79884 0.0
C617 C 0.77838 0.36951 0.79661 0.0
C618 C 0.09144 0.57005 0.99516 0.0
C619 C 0.11473 0.54532 0.96811 0.0
H620 H 0.04386 0.5736 0.04116 0.0
C621 C 0.10492 0.50296 0.96677 0.0
H622 H 0.09817 0.60253 0.9977 0.0
C623 C 0.07326 0.48597 0.99175 0.0
C624 C 0.05009 0.51064 1.01915 0.0
H625 H 0.12153 0.48267 0.94603 0.0
H626 H 0.06678 0.45348 0.98917 0.0
C627 C 0.05997 0.55308 1.02032 0.0
C628 C 0.81109 0.7302 0.36398 0.0
C629 C 0.80452 0.69047 0.34713 0.0
H630 H 0.79694 0.79385 0.36107 0.0
C631 C 0.77591 0.68627 0.31263 0.0
H632 H 0.8329 0.73539 0.38998 0.0
C633 C 0.75504 0.72015 0.29571 0.0
C634 C 0.7615 0.75982 0.31267 0.0
H635 H 0.76893 0.65657 0.29862 0.0
H636 H 0.73317 0.71501 0.26974 0.0
C637 C 0.79014 0.76407 0.3471 0.0
C638 C 0.03124 0.48099 0.53569 0.0
C639 C 0.99629 0.49235 0.55908 0.0
H640 H 0.08891 0.44872 0.53396 0.0
C641 C 0.99334 0.47689 0.60024 0.0
H642 H 0.03522 0.49232 0.50428 0.0
C643 C 1.02439 0.45186 0.61759 0.0
C644 C 0.05953 0.44082 0.5944 0.0
H645 H 0.96676 0.48388 0.6194 0.0
H646 H 1.02051 0.44073 0.6491 0.0
C647 C 0.06226 0.45578 0.55302 0.0
C648 C 0.55573 0.60218 0.02708 0.0
C649 C 0.55418 0.56203 1.00966 0.0
H650 H 0.52526 0.64878 0.0633 0.0
C651 C 0.51688 0.53922 1.01484 0.0
H652 H 0.58324 0.6214 1.02353 0.0
C653 C 0.48321 0.55531 0.03756 0.0
C654 C 0.48525 0.59499 0.05603 0.0
H655 H 0.51393 0.50838 1.00223 0.0
H656 H 0.45552 0.53626 0.04086 0.0
C657 C 0.52198 0.61833 0.04972 0.0
C658 C 0.71354 0.77419 0.71307 0.0
C659 C 0.68378 0.74322 0.72198 0.0
H660 H 0.75725 0.81972 0.73701 0.0
C661 C 0.67605 0.73532 0.76453 0.0
H662 H 0.72032 0.78218 0.68114 0.0
C663 C 0.69728 0.75757 0.79681 0.0
C664 C 0.72721 0.78809 0.78762 0.0
H665 H 0.65396 0.71168 0.77315 0.0
H666 H 0.69065 0.75045 0.82909 0.0
C667 C 0.73505 0.79598 0.7453 0.0
C668 C 0.85491 0.25558 0.2649 0.0
C669 C 0.81322 0.24032 0.26051 0.0
H670 H 0.90542 0.29075 0.23835 0.0
C671 C 0.79006 0.25247 0.22506 0.0
H672 H 0.87384 0.24776 0.29197 0.0
C673 C 0.80839 0.27721 0.19428 0.0
C674 C 0.8505 0.29123 0.19787 0.0
H675 H 0.7581 0.2417 0.22027 0.0
H676 H 0.7895 0.28498 0.16715 0.0
C677 C 0.87312 0.28076 0.23427 0.0
C678 C 0.43242 0.47137 0.52091 0.0
C679 C 0.42402 0.49321 0.48424 0.0
H680 H 0.45975 0.47285 0.58303 0.0
C681 C 0.43933 0.53362 0.48171 0.0
H682 H 0.42077 0.44031 0.52383 0.0
C683 C 0.46151 0.55221 0.51534 0.0
C684 C 0.4687 0.53105 0.55268 0.0
H685 H 0.43361 0.55111 0.45373 0.0
H686 H 0.47188 0.58367 0.5125 0.0
C687 C 0.45428 0.4902 0.55493 0.0
C688 C 0.15192 0.08316 0.28585 0.0
C689 C 0.1182 0.07252 0.25885 0.0
H690 H 0.18558 0.06977 0.34213 0.0
C691 C 0.08956 0.04189 0.27037 0.0
H692 H 0.17386 0.10735 0.27801 0.0
C693 C 0.0961 1.02045 0.30729 0.0
C694 C 0.13134 0.02952 0.33291 0.0
H695 H 0.06331 0.03325 0.24991 0.0
H696 H 0.0747 0.99571 0.31476 0.0
C697 C 0.15848 0.06179 0.32256 0.0
C698 C 0.31616 1.00557 0.47998 0.0
C699 C 0.28363 0.97587 0.48034 0.0
H700 H 0.3746 0.02707 0.50753 0.0
C701 C 0.28494 0.9454 0.51067 0.0
H702 H 0.31587 0.0298 0.45728 0.0
C703 C 0.3186 0.94392 0.53912 0.0
C704 C 0.35147 0.97302 0.5382 0.0
H705 H 0.26024 0.9224 0.51213 0.0
H706 H 0.31879 0.91999 0.56206 0.0
C707 C 0.34962 1.00435 0.50891 0.0
C708 C 0.45598 0.05463 0.77641 0.0
C709 C 0.43241 1.01844 0.76957 0.0
H710 H 0.47344 0.10317 0.81953 0.0
C711 C 0.40991 1.00188 0.8029 0.0
H712 H 0.47379 0.06782 0.75125 0.0
C713 C 0.41065 1.02148 0.84235 0.0
C714 C 0.43328 0.05835 0.8488 0.0
H715 H 0.39205 0.97364 0.79849 0.0
H716 H 0.39222 1.00865 0.86726 0.0
C717 C 0.45605 0.0746 0.81551 0.0
C718 C 0.27581 0.1035 0.05407 0.0
C719 C 0.28675 0.07531 1.02273 0.0
H720 H 0.22736 0.1289 0.09019 0.0
C721 C 0.25676 0.04616 1.00798 0.0
H722 H 0.29821 0.12606 0.06647 0.0
C723 C 0.21554 0.04729 1.02255 0.0
C724 C 0.20429 0.07784 0.05145 0.0
H725 H 0.2645 1.0241 0.98374 0.0
H726 H 0.19213 0.02615 1.00943 0.0
C727 C 0.23506 0.10502 0.06787 0.0
C728 C 0.07448 0.28645 0.0709 0.0
C729 C 0.05408 0.25102 0.05543 0.0
H730 H 0.0684 0.34956 0.08735 0.0
C731 C 1.01384 0.25301 0.03757 0.0
H732 H 0.10551 0.28505 0.08505 0.0
C733 C 0.99271 0.29 0.03841 0.0
C734 C 1.01165 0.32459 0.05792 0.0
H735 H 0.99771 0.22554 0.02603 0.0
H736 H 0.96035 0.29047 0.02776 0.0
C737 C 0.05334 0.32314 0.07217 0.0
C738 C 0.5321 0.30741 1.01412 0.0
C739 C 0.55665 0.31429 0.97893 0.0
H740 H 0.48976 0.26613 0.044 0.0
C741 C 0.56166 0.28294 0.94898 0.0
H742 H 0.52802 0.3314 0.03748 0.0
C743 C 0.54 0.24603 0.95247 0.0
C744 C 0.51278 0.23994 0.98592 0.0
H745 H 0.58074 0.28784 0.92168 0.0
H746 H 0.54247 0.22339 0.92745 0.0
C747 C 0.51012 0.27035 1.01757 0.0
C748 C 1.01692 0.76128 0.42295 0.0
C749 C 1.02282 0.73081 0.45274 0.0
H750 H 0.03481 0.82057 0.40232 0.0
C751 C 0.05365 0.73673 0.48451 0.0
H752 H 0.99319 0.75781 0.39838 0.0
C753 C 0.07729 0.77308 0.48708 0.0
C754 C 0.07006 0.80409 0.45818 0.0
H755 H 0.05909 0.71348 0.50764 0.0
H756 H 0.10029 0.77741 0.51224 0.0
C757 C 0.04033 0.79747 0.42561 0.0
C758 C 0.50632 0.7411 0.58351 0.0
C759 C 0.51389 0.72579 0.6238 0.0
H760 H 0.48856 0.79286 0.54745 0.0
C761 C 0.50834 0.75093 0.65922 0.0
H762 H 0.51062 0.72218 0.55572 0.0
C763 C 0.49702 0.79133 0.65443 0.0
C764 C 0.49038 0.807 0.61418 0.0
H765 H 0.51439 0.73996 0.6906 0.0
H766 H 0.49329 0.81021 0.68235 0.0
C767 C 0.49419 0.78147 0.57874 0.0
C768 C 0.86802 1.01349 0.7241 0.0
C769 C 0.84631 0.04514 0.74405 0.0
H770 H 0.87852 0.94898 0.71984 0.0
C771 C 0.81552 0.03529 0.77317 0.0
H772 H 0.8914 1.02039 0.70094 0.0
C773 C 0.80822 0.99463 0.7839 0.0
C774 C 0.83079 0.96304 0.76492 0.0
H775 H 0.79816 0.05913 0.78867 0.0
H776 H 0.78592 0.98794 0.80817 0.0
C777 C 0.86006 0.97268 0.73419 0.0
C778 C 0.82807 0.20688 0.51193 0.0
C779 C 0.81392 0.21353 0.55289 0.0
H780 H 0.81075 0.19428 0.44739 0.0
C781 C 0.77077 0.2165 0.55945 0.0
H782 H 0.86115 0.20367 0.50625 0.0
C783 C 0.74207 0.21134 0.52614 0.0
C784 C 0.75574 0.20219 0.48545 0.0
H785 H 0.75908 0.22122 0.59087 0.0
H786 H 0.70901 0.21271 0.53276 0.0
C787 C 0.79916 0.20097 0.47846 0.0
C788 C 0.71644 0.02481 0.30825 0.0
C789 C 0.68711 0.05609 0.31044 0.0
H790 H 0.72827 0.9631 0.28828 0.0
C791 C 0.64619 0.0485 0.29498 0.0
H792 H 0.74812 0.02994 0.32007 0.0
C793 C 0.63453 1.01022 0.27816 0.0
C794 C 0.66387 0.97908 0.27527 0.0
H795 H 0.62282 0.07199 0.29671 0.0
H796 H 0.60265 1.00516 0.26687 0.0
C797 C 0.70509 0.98676 0.29005 0.0
C798 C 0.82182 0.85728 0.05297 0.0
C799 C 0.79091 0.88405 0.06693 0.0
H800 H 0.85883 0.83707 1.00147 0.0
C801 C 0.77534 0.91319 0.03895 0.0
H802 H 0.8348 0.83477 0.07376 0.0
C803 C 0.78937 0.91474 0.99781 0.0
C804 C 0.81897 0.88695 0.98348 0.0
H805 H 0.75086 0.93375 0.04816 0.0
H806 H 0.77588 0.93682 0.97683 0.0
C807 C 0.83565 0.85866 1.01161 0.0
C808 C 1.01198 0.69963 0.81473 0.0
C809 C 0.05103 0.7196 0.81198 0.0
H810 H 0.94554 0.70538 0.81309 0.0
C811 C 0.05229 0.76035 0.79882 0.0
H812 H 1.00982 0.66805 0.82412 0.0
C813 C 1.01564 0.78232 0.79433 0.0
C814 C 0.97645 0.76381 0.80167 0.0
H815 H 0.08192 0.77627 0.79484 0.0
H816 H 1.01877 0.81464 0.78838 0.0
C817 C 0.97505 0.7214 0.80909 0.0
C818 C 0.55573 0.71847 0.18198 0.0
C819 C 0.51479 0.73097 0.1899 0.0
H820 H 0.62082 0.73491 0.18301 0.0
C821 C 0.50865 0.76937 0.20905 0.0
H822 H 0.56146 0.68905 0.16727 0.0
C823 C 0.54278 0.79535 0.2187 0.0
C824 C 0.58346 0.7836 0.20871 0.0
H825 H 0.47744 0.7797 0.21579 0.0
H826 H 0.5371 0.82533 0.23212 0.0
C827 C 0.58972 0.74468 0.19099 0.0
C828 C 1.00166 0.27624 0.70211 0.0
C829 C 1.00916 0.23515 0.69111 0.0
H830 H 0.02878 0.33493 0.71936 0.0
C831 C 0.05022 0.22085 0.69407 0.0
H832 H 0.97031 0.28816 0.70047 0.0
C833 C 0.08331 0.24746 0.70499 0.0
C834 C 0.07622 0.28896 0.71351 0.0
H835 H 0.0572 0.18938 0.68634 0.0
H836 H 0.11483 0.23583 0.70499 0.0
C837 C 0.035 0.30296 0.71337 0.0
C838 C 0.54926 0.34841 0.302 0.0
C839 C 0.53121 0.35951 0.34016 0.0
H840 H 0.59865 0.31614 0.27231 0.0
C841 C 0.55358 0.35398 0.37789 0.0
H842 H 0.53221 0.35213 0.27265 0.0
C843 C 0.59145 0.33336 0.37783 0.0
C844 C 0.60701 0.31763 0.34002 0.0
H845 H 0.53978 0.36203 0.40767 0.0
H846 H 0.60588 0.32575 0.40765 0.0
C847 C 0.58712 0.32776 0.3019 0.0
C848 C 0.59986 0.53041 0.79805 0.0
C849 C 0.63858 0.52792 0.81912 0.0
H850 H 0.56594 0.55458 0.74609 0.0
C851 C 0.67347 0.54917 0.80374 0.0
H852 H 0.57247 0.51434 0.80929 0.0
C853 C 0.66985 0.57202 0.76743 0.0
C854 C 0.63123 0.57416 0.74605 0.0
H855 H 0.70375 0.54775 0.81941 0.0
H856 H 0.69733 0.58788 0.75611 0.0
C857 C 0.59617 0.55346 0.76188 0.0
C858 C 0.76964 0.40037 1.01804 0.0
C859 C 0.75987 0.42623 0.98477 0.0
H860 H 0.81514 0.38436 0.06492 0.0
C861 C 0.78826 0.4575 0.97433 0.0
H862 H 0.74796 0.37632 0.02682 0.0
C863 C 0.82688 0.46145 0.99527 0.0
C864 C 0.83706 0.43519 0.02803 0.0
H865 H 0.78131 0.47783 0.94875 0.0
H866 H 0.84922 0.4844 0.98523 0.0
C867 C 0.80774 0.4053 0.04005 0.0
C868 C 0.92854 0.4731 0.30964 0.0
C869 C 0.95495 0.48559 0.27747 0.0
H870 H 0.91073 0.48166 0.37341 0.0
C871 C 0.98676 0.51497 0.28668 0.0
H872 H 0.90449 0.44984 0.30389 0.0
C873 C 0.99097 0.53262 0.32688 0.0
C874 C 0.96318 0.52141 0.35831 0.0
H875 H 1.00751 0.52542 0.26246 0.0
H876 H 1.01426 0.55662 0.33259 0.0
C877 C 0.93259 0.49086 0.34959 0.0
C878 C 0.7485 0.58807 0.5618 0.0
C879 C 0.71715 0.56308 0.54295 0.0
H880 H 0.81049 0.61284 0.55724 0.0
C881 C 0.7252 0.54061 0.50637 0.0
H882 H 0.74217 0.60618 0.58973 0.0
C883 C 0.76431 0.54412 0.48799 0.0
C884 C 0.79491 0.57103 0.50555 0.0
H885 H 0.70082 0.52193 0.49118 0.0
H886 H 0.76988 0.52739 0.45903 0.0
C887 C 0.78713 0.59229 0.54301 0.0
C888 C 0.38316 0.52126 0.23926 0.0
C889 C 0.35473 0.55026 0.25392 0.0
H890 H 0.40115 0.45861 0.23817 0.0
C891 C 0.32001 0.53704 0.27666 0.0
H892 H 0.40962 0.53053 0.22067 0.0
C893 C 0.31487 0.49582 0.28621 0.0
C894 C 0.34414 0.46701 0.27286 0.0
H895 H 0.29742 0.55871 0.28795 0.0
H896 H 0.28867 0.48668 0.30521 0.0
C897 C 0.37782 0.47998 0.24847 0.0
C898 C 0.26021 0.69361 1.01312 0.0
C899 C 0.28093 0.67904 0.97751 0.0
H900 H 0.26585 0.71398 0.07731 0.0
C901 C 0.32488 0.67802 0.97834 0.0
H902 H 0.22638 0.69492 1.01333 0.0
C903 C 0.34759 0.69047 1.01463 0.0
C904 C 0.32654 0.70326 0.05075 0.0
H905 H 0.34163 0.66736 0.95112 0.0
H906 H 0.38132 0.68787 1.01524 0.0
C907 C 0.28275 0.70497 0.04956 0.0
C908 C 0.19255 0.56997 0.72873 0.0
C909 C 0.20876 0.57195 0.77001 0.0
H910 H 0.17009 0.53211 0.67742 0.0
C911 C 0.21555 0.53493 0.79092 0.0
H912 H 0.18664 0.59764 0.71165 0.0
C913 C 0.2054 0.49711 0.77147 0.0
C914 C 0.18869 0.49528 0.73038 0.0
H915 H 0.22786 0.53507 0.82277 0.0
H916 H 0.21071 0.46935 0.78862 0.0
C917 C 0.18284 0.53222 0.70916 0.0
C918 C 0.27002 0.38813 0.49269 0.0
C919 C 0.29844 0.36042 0.4759 0.0
H920 H 0.23896 0.40932 0.54766 0.0
C921 C 0.31684 0.33148 0.5022 0.0
H922 H 0.25585 0.41108 0.47323 0.0
C923 C 0.30732 0.33058 0.54478 0.0
C924 C 0.27994 0.35915 0.5618 0.0
H925 H 0.33911 0.30995 0.49 0.0
H926 H 0.32173 0.30798 0.56452 0.0
C927 C 0.26106 0.38766 0.53536 0.0
loop_
_geom_bond_atom_site_label_1
_geom_bond_atom_site_label_2
_geom_bond_distance
_geom_bond_site_symmetry_2
_ccdc_geom_bond_type
Co0 N4 2.148 . S
Co0 N10 2.128 . S
Co0 N20 2.194 . S
Co0 O25 2.351 . S
Co0 O26 2.155 . S
Co0 O27 2.096 . S
C1 N4 1.301 . S
C1 N5 1.328 . S
C1 H6 0.930 . S
C2 C3 1.333 . S
C2 N4 1.317 . S
C2 H7 0.930 . S
C3 C2 1.333 . S
C3 N5 1.350 . S
C3 H29 0.931 . S
N4 Co0 2.148 . S
N4 C1 1.301 . S
N4 C2 1.317 . S
N5 C1 1.328 . S
N5 C3 1.350 . S
H6 C1 0.930 . S
H7 C2 0.930 . S
C8 O9 1.224 . S
C8 O27 1.247 . S
O9 C8 1.224 . S
N10 Co0 2.128 . S
N10 C11 1.355 . S
N10 C13 1.311 . S
C11 N10 1.355 . S
C11 C12 1.363 . S
C11 H23 0.929 . S
C12 C11 1.363 . S
C12 N14 1.375 . S
C12 H30 0.931 1_455 S
C13 N10 1.311 . S
C13 N14 1.347 . S
C13 H24 0.929 . S
N14 C12 1.375 . S
N14 C13 1.347 . S
C15 C18 1.365 . S
C15 N20 1.328 . S
C15 H21 0.929 . S
C16 C17 1.362 . S
C16 C19 1.378 . S
C16 H31 0.929 . S
C17 C16 1.362 . S
C17 C18 1.366 . S
C18 C15 1.365 . S
C18 C17 1.366 . S
C18 H32 0.930 . S
C19 C16 1.378 . S
C19 N20 1.315 . S
C19 H22 0.930 . S
N20 Co0 2.194 . S
N20 C15 1.328 . S
N20 C19 1.315 . S
H21 C15 0.929 . S
H22 C19 0.930 . S
H23 C11 0.929 . S
H24 C13 0.929 . S
O25 Co0 2.351 . S
O25 C28 1.244 . S
O26 Co0 2.155 . S
O26 C28 1.240 . S
O27 Co0 2.096 . S
O27 C8 1.247 . S
C28 O25 1.244 . S
C28 O26 1.240 . S
H29 C3 0.931 . S
H30 C12 0.931 1_655 S
H31 C16 0.929 . S
H32 C18 0.930 . S
Co33 N37 2.148 . S
Co33 N43 2.128 . S
Co33 N53 2.194 . S
Co33 O58 2.351 . S
Co33 O59 2.155 . S
Co33 O60 2.096 . S
C34 N37 1.301 . S
C34 N38 1.328 . S
C34 H39 0.930 . S
C35 C36 1.333 . S
C35 N37 1.317 . S
C35 H40 0.930 . S
C36 C35 1.333 . S
C36 N38 1.350 . S
C36 H62 0.931 . S
N37 Co33 2.148 . S
N37 C34 1.301 . S
N37 C35 1.317 . S
N38 C34 1.328 . S
N38 C36 1.350 . S
H39 C34 0.930 . S
H40 C35 0.930 . S
C41 O42 1.224 . S
C41 O60 1.247 . S
O42 C41 1.224 . S
N43 Co33 2.128 . S
N43 C44 1.355 . S
N43 C46 1.311 . S
C44 N43 1.355 . S
C44 C45 1.363 . S
C44 H56 0.929 . S
C45 C44 1.363 . S
C45 N47 1.375 . S
C45 H63 0.931 . S
C46 N43 1.311 . S
C46 N47 1.347 . S
C46 H57 0.929 . S
N47 C45 1.375 . S
N47 C46 1.347 . S
C48 C51 1.365 . S
C48 N53 1.328 . S
C48 H54 0.929 . S
C49 C50 1.362 . S
C49 C52 1.378 . S
C49 H64 0.929 . S
C50 C49 1.362 . S
C50 C51 1.366 . S
C51 C48 1.365 . S
C51 C50 1.366 . S
C51 H65 0.930 . S
C52 C49 1.378 . S
C52 N53 1.315 . S
C52 H55 0.930 . S
N53 Co33 2.194 . S
N53 C48 1.328 . S
N53 C52 1.315 . S
H54 C48 0.929 . S
H55 C52 0.930 . S
H56 C44 0.929 . S
H57 C46 0.929 . S
O58 Co33 2.351 . S
O58 C61 1.244 . S
O59 Co33 2.155 . S
O59 C61 1.240 . S
O60 Co33 2.096 . S
O60 C41 1.247 . S
C61 O58 1.244 . S
C61 O59 1.240 . S
H62 C36 0.931 . S
H63 C45 0.931 . S
H64 C49 0.929 . S
H65 C51 0.930 . S
Co66 N70 2.148 . S
Co66 N76 2.128 . S
Co66 N86 2.194 . S
Co66 O91 2.351 . S
Co66 O92 2.155 . S
Co66 O93 2.096 . S
C67 N70 1.301 . S
C67 N71 1.328 . S
C67 H72 0.930 . S
C68 C69 1.333 . S
C68 N70 1.317 . S
C68 H73 0.930 . S
C69 C68 1.333 . S
C69 N71 1.350 . S
C69 H95 0.931 . S
N70 Co66 2.148 . S
N70 C67 1.301 . S
N70 C68 1.317 . S
N71 C67 1.328 . S
N71 C69 1.350 . S
H72 C67 0.930 . S
H73 C68 0.930 . S
C74 O75 1.224 . S
C74 O93 1.247 . S
O75 C74 1.224 . S
N76 Co66 2.128 . S
N76 C77 1.355 . S
N76 C79 1.311 . S
C77 N76 1.355 . S
C77 C78 1.363 . S
C77 H89 0.929 . S
C78 C77 1.363 . S
C78 N80 1.375 . S
C78 H96 0.931 . S
C79 N76 1.311 . S
C79 N80 1.347 . S
C79 H90 0.929 . S
N80 C78 1.375 . S
N80 C79 1.347 . S
C81 C84 1.365 . S
C81 N86 1.328 . S
C81 H87 0.929 . S
C82 C83 1.362 . S
C82 C85 1.378 . S
C82 H97 0.929 . S
C83 C82 1.362 . S
C83 C84 1.366 . S
C84 C81 1.365 . S
C84 C83 1.366 . S
C84 H98 0.930 . S
C85 C82 1.378 . S
C85 N86 1.315 . S
C85 H88 0.930 . S
N86 Co66 2.194 . S
N86 C81 1.328 . S
N86 C85 1.315 . S
H87 C81 0.929 . S
H88 C85 0.930 . S
H89 C77 0.929 . S
H90 C79 0.929 . S
O91 Co66 2.351 . S
O91 C94 1.244 . S
O92 Co66 2.155 . S
O92 C94 1.240 . S
O93 Co66 2.096 . S
O93 C74 1.247 . S
C94 O91 1.244 . S
C94 O92 1.240 . S
H95 C69 0.931 . S
H96 C78 0.931 . S
H97 C82 0.929 . S
H98 C84 0.930 . S
Co99 N103 2.148 . S
Co99 N109 2.128 . S
Co99 N119 2.194 . S
Co99 O124 2.351 . S
Co99 O125 2.155 . S
Co99 O126 2.096 . S
C100 N103 1.301 . S
C100 N104 1.328 . S
C100 H105 0.930 . S
C101 C102 1.333 . S
C101 N103 1.317 . S
C101 H106 0.930 . S
C102 C101 1.333 . S
C102 N104 1.350 . S
C102 H128 0.931 . S
N103 Co99 2.148 . S
N103 C100 1.301 . S
N103 C101 1.317 . S
N104 C100 1.328 . S
N104 C102 1.350 . S
H105 C100 0.930 . S
H106 C101 0.930 . S
C107 O108 1.224 . S
C107 O126 1.247 . S
O108 C107 1.224 . S
N109 Co99 2.128 . S
N109 C110 1.355 . S
N109 C112 1.311 . S
C110 N109 1.355 . S
C110 C111 1.363 . S
C110 H122 0.929 . S
C111 C110 1.363 . S
C111 N113 1.375 . S
C111 H129 0.931 . S
C112 N109 1.311 . S
C112 N113 1.347 . S
C112 H123 0.929 . S
N113 C111 1.375 . S
N113 C112 1.347 . S
C114 C117 1.365 . S
C114 N119 1.328 . S
C114 H120 0.929 . S
C115 C116 1.362 . S
C115 C118 1.378 . S
C115 H130 0.929 . S
C116 C115 1.362 . S
C116 C117 1.366 . S
C117 C114 1.365 . S
C117 C116 1.366 . S
C117 H131 0.930 . S
C118 C115 1.378 . S
C118 N119 1.315 . S
C118 H121 0.930 . S
N119 Co99 2.194 . S
N119 C114 1.328 . S
N119 C118 1.315 . S
H120 C114 0.929 . S
H121 C118 0.930 . S
H122 C110 0.929 . S
H123 C112 0.929 . S
O124 Co99 2.351 . S
O124 C127 1.244 . S
O125 Co99 2.155 . S
O125 C127 1.240 . S
O126 Co99 2.096 . S
O126 C107 1.247 . S
C127 O124 1.244 . S
C127 O125 1.240 . S
H128 C102 0.931 . S
H129 C111 0.931 . S
H130 C115 0.929 . S
H131 C117 0.930 . S
Co132 N136 2.148 . S
Co132 N142 2.128 . S
Co132 N152 2.194 . S
Co132 O157 2.351 . S
Co132 O158 2.155 . S
Co132 O159 2.096 . S
C133 N136 1.301 . S
C133 N137 1.328 . S
C133 H138 0.930 . S
C134 C135 1.333 . S
C134 N136 1.317 . S
C134 H139 0.930 . S
C135 C134 1.333 . S
C135 N137 1.350 . S
C135 H161 0.931 . S
N136 Co132 2.148 . S
N136 C133 1.301 . S
N136 C134 1.317 . S
N137 C133 1.328 . S
N137 C135 1.350 . S
H138 C133 0.930 . S
H139 C134 0.930 . S
C140 O141 1.224 . S
C140 O159 1.247 . S
O141 C140 1.224 . S
N142 Co132 2.128 . S
N142 C143 1.355 . S
N142 C145 1.311 . S
C143 N142 1.355 . S
C143 C144 1.363 . S
C143 H155 0.929 . S
C144 C143 1.363 . S
C144 N146 1.375 . S
C144 H162 0.931 . S
C145 N142 1.311 . S
C145 N146 1.347 . S
C145 H156 0.929 . S
N146 C144 1.375 . S
N146 C145 1.347 . S
C147 C150 1.365 . S
C147 N152 1.328 . S
C147 H153 0.929 . S
C148 C149 1.362 . S
C148 C151 1.378 . S
C148 H163 0.929 . S
C149 C148 1.362 . S
C149 C150 1.366 . S
C150 C147 1.365 . S
C150 C149 1.366 . S
C150 H164 0.930 . S
C151 C148 1.378 . S
C151 N152 1.315 . S
C151 H154 0.930 . S
N152 Co132 2.194 . S
N152 C147 1.328 . S
N152 C151 1.315 . S
H153 C147 0.929 . S
H154 C151 0.930 . S
H155 C143 0.929 . S
H156 C145 0.929 . S
O157 Co132 2.351 . S
O157 C160 1.244 . S
O158 Co132 2.155 . S
O158 C160 1.240 . S
O159 Co132 2.096 . S
O159 C140 1.247 . S
C160 O157 1.244 . S
C160 O158 1.240 . S
H161 C135 0.931 . S
H162 C144 0.931 . S
H163 C148 0.929 . S
H164 C150 0.930 . S
Co165 N169 2.148 . S
Co165 N175 2.128 . S
Co165 N185 2.194 . S
Co165 O190 2.351 . S
Co165 O191 2.155 . S
Co165 O192 2.096 . S
C166 N169 1.301 . S
C166 N170 1.328 . S
C166 H171 0.930 . S
C167 C168 1.333 . S
C167 N169 1.317 . S
C167 H172 0.930 . S
C168 C167 1.333 . S
C168 N170 1.350 . S
C168 H194 0.931 . S
N169 Co165 2.148 . S
N169 C166 1.301 . S
N169 C167 1.317 . S
N170 C166 1.328 . S
N170 C168 1.350 . S
H171 C166 0.930 . S
H172 C167 0.930 . S
C173 O174 1.224 . S
C173 O192 1.247 . S
O174 C173 1.224 . S
N175 Co165 2.128 . S
N175 C176 1.355 . S
N175 C178 1.311 . S
C176 N175 1.355 . S
C176 C177 1.363 . S
C176 H188 0.929 . S
C177 C176 1.363 . S
C177 N179 1.375 . S
C177 H195 0.931 1_655 S
C178 N175 1.311 . S
C178 N179 1.347 . S
C178 H189 0.929 . S
N179 C177 1.375 . S
N179 C178 1.347 . S
C180 C183 1.365 . S
C180 N185 1.328 . S
C180 H186 0.929 . S
C181 C182 1.362 . S
C181 C184 1.378 . S
C181 H196 0.929 . S
C182 C181 1.362 . S
C182 C183 1.366 . S
C183 C180 1.365 . S
C183 C182 1.366 . S
C183 H197 0.930 . S
C184 C181 1.378 . S
C184 N185 1.315 . S
C184 H187 0.930 . S
N185 Co165 2.194 . S
N185 C180 1.328 . S
N185 C184 1.315 . S
H186 C180 0.929 . S
H187 C184 0.930 . S
H188 C176 0.929 . S
H189 C178 0.929 . S
O190 Co165 2.351 . S
O190 C193 1.244 . S
O191 Co165 2.155 . S
O191 C193 1.240 . S
O192 Co165 2.096 . S
O192 C173 1.247 . S
C193 O190 1.244 . S
C193 O191 1.240 . S
H194 C168 0.931 . S
H195 C177 0.931 1_455 S
H196 C181 0.929 . S
H197 C183 0.930 . S
Co198 N202 2.148 . S
Co198 N208 2.128 . S
Co198 N218 2.194 . S
Co198 O223 2.351 . S
Co198 O224 2.155 . S
Co198 O225 2.096 . S
C199 N202 1.301 . S
C199 N203 1.328 . S
C199 H204 0.930 . S
C200 C201 1.333 . S
C200 N202 1.317 . S
C200 H205 0.930 . S
C201 C200 1.333 . S
C201 N203 1.350 . S
C201 H227 0.931 . S
N202 Co198 2.148 . S
N202 C199 1.301 . S
N202 C200 1.317 . S
N203 C199 1.328 . S
N203 C201 1.350 . S
H204 C199 0.930 . S
H205 C200 0.930 . S
C206 O207 1.224 . S
C206 O225 1.247 . S
O207 C206 1.224 . S
N208 Co198 2.128 . S
N208 C209 1.355 . S
N208 C211 1.311 . S
C209 N208 1.355 . S
C209 C210 1.363 . S
C209 H221 0.929 . S
C210 C209 1.363 . S
C210 N212 1.375 . S
C210 H228 0.931 . S
C211 N208 1.311 . S
C211 N212 1.347 . S
C211 H222 0.929 . S
N212 C210 1.375 . S
N212 C211 1.347 . S
C213 C216 1.365 . S
C213 N218 1.328 . S
C213 H219 0.929 . S
C214 C215 1.362 . S
C214 C217 1.378 . S
C214 H229 0.929 . S
C215 C214 1.362 . S
C215 C216 1.366 . S
C216 C213 1.365 . S
C216 C215 1.366 . S
C216 H230 0.930 . S
C217 C214 1.378 . S
C217 N218 1.315 . S
C217 H220 0.930 . S
N218 Co198 2.194 . S
N218 C213 1.328 . S
N218 C217 1.315 . S
H219 C213 0.929 . S
H220 C217 0.930 . S
H221 C209 0.929 . S
H222 C211 0.929 . S
O223 Co198 2.351 . S
O223 C226 1.244 . S
O224 Co198 2.155 . S
O224 C226 1.240 . S
O225 Co198 2.096 . S
O225 C206 1.247 . S
C226 O223 1.244 . S
C226 O224 1.240 . S
H227 C201 0.931 . S
H228 C210 0.931 . S
H229 C214 0.929 . S
H230 C216 0.930 . S
Co231 N235 2.148 . S
Co231 N241 2.128 . S
Co231 N251 2.194 . S
Co231 O256 2.351 . S
Co231 O257 2.155 . S
Co231 O258 2.096 . S
C232 N235 1.301 . S
C232 N236 1.328 . S
C232 H237 0.930 . S
C233 C234 1.333 . S
C233 N235 1.317 . S
C233 H238 0.930 . S
C234 C233 1.333 . S
C234 N236 1.350 . S
C234 H260 0.931 1_565 S
N235 Co231 2.148 . S
N235 C232 1.301 . S
N235 C233 1.317 . S
N236 C232 1.328 . S
N236 C234 1.350 . S
H237 C232 0.930 . S
H238 C233 0.930 . S
C239 O240 1.224 . S
C239 O258 1.247 . S
O240 C239 1.224 . S
N241 Co231 2.128 . S
N241 C242 1.355 . S
N241 C244 1.311 . S
C242 N241 1.355 . S
C242 C243 1.363 . S
C242 H254 0.929 . S
C243 C242 1.363 . S
C243 N245 1.375 . S
C243 H261 0.931 . S
C244 N241 1.311 . S
C244 N245 1.347 . S
C244 H255 0.929 . S
N245 C243 1.375 . S
N245 C244 1.347 . S
C246 C249 1.365 . S
C246 N251 1.328 . S
C246 H252 0.929 . S
C247 C248 1.362 . S
C247 C250 1.378 . S
C247 H262 0.929 . S
C248 C247 1.362 . S
C248 C249 1.366 . S
C249 C246 1.365 . S
C249 C248 1.366 . S
C249 H263 0.930 . S
C250 C247 1.378 . S
C250 N251 1.315 . S
C250 H253 0.930 . S
N251 Co231 2.194 . S
N251 C246 1.328 . S
N251 C250 1.315 . S
H252 C246 0.929 . S
H253 C250 0.930 . S
H254 C242 0.929 . S
H255 C244 0.929 . S
O256 Co231 2.351 . S
O256 C259 1.244 . S
O257 Co231 2.155 . S
O257 C259 1.240 . S
O258 Co231 2.096 . S
O258 C239 1.247 . S
C259 O256 1.244 . S
C259 O257 1.240 . S
H260 C234 0.931 1_545 S
H261 C243 0.931 . S
H262 C247 0.929 . S
H263 C249 0.930 . S
Co264 N268 2.148 . S
Co264 N274 2.128 . S
Co264 N284 2.194 . S
Co264 O289 2.351 . S
Co264 O290 2.155 . S
Co264 O291 2.096 . S
C265 N268 1.301 . S
C265 N269 1.328 . S
C265 H270 0.930 . S
C266 C267 1.333 . S
C266 N268 1.317 . S
C266 H271 0.930 . S
C267 C266 1.333 . S
C267 N269 1.350 . S
C267 H293 0.931 . S
N268 Co264 2.148 . S
N268 C265 1.301 . S
N268 C266 1.317 . S
N269 C265 1.328 . S
N269 C267 1.350 . S
H270 C265 0.930 . S
H271 C266 0.930 . S
C272 O273 1.224 . S
C272 O291 1.247 . S
O273 C272 1.224 . S
N274 Co264 2.128 . S
N274 C275 1.355 . S
N274 C277 1.311 . S
C275 N274 1.355 . S
C275 C276 1.363 . S
C275 H287 0.929 . S
C276 C275 1.363 . S
C276 N278 1.375 . S
C276 H294 0.931 . S
C277 N274 1.311 . S
C277 N278 1.347 . S
C277 H288 0.929 . S
N278 C276 1.375 . S
N278 C277 1.347 . S
C279 C282 1.365 . S
C279 N284 1.328 . S
C279 H285 0.929 . S
C280 C281 1.362 . S
C280 C283 1.378 . S
C280 H295 0.929 . S
C281 C280 1.362 . S
C281 C282 1.366 . S
C282 C279 1.365 . S
C282 C281 1.366 . S
C282 H296 0.930 . S
C283 C280 1.378 . S
C283 N284 1.315 . S
C283 H286 0.930 . S
N284 Co264 2.194 . S
N284 C279 1.328 . S
N284 C283 1.315 . S
H285 C279 0.929 . S
H286 C283 0.930 . S
H287 C275 0.929 . S
H288 C277 0.929 . S
O289 Co264 2.351 . S
O289 C292 1.244 . S
O290 Co264 2.155 . S
O290 C292 1.240 . S
O291 Co264 2.096 . S
O291 C272 1.247 . S
C292 O289 1.244 . S
C292 O290 1.240 . S
H293 C267 0.931 . S
H294 C276 0.931 . S
H295 C280 0.929 . S
H296 C282 0.930 . S
Co297 N301 2.148 . S
Co297 N307 2.128 . S
Co297 N317 2.194 . S
Co297 O322 2.351 . S
Co297 O323 2.155 . S
Co297 O324 2.096 . S
C298 N301 1.301 . S
C298 N302 1.328 . S
C298 H303 0.930 . S
C299 C300 1.333 . S
C299 N301 1.317 . S
C299 H304 0.930 . S
C300 C299 1.333 . S
C300 N302 1.350 . S
C300 H326 0.931 . S
N301 Co297 2.148 . S
N301 C298 1.301 . S
N301 C299 1.317 . S
N302 C298 1.328 . S
N302 C300 1.350 . S
H303 C298 0.930 . S
H304 C299 0.930 . S
C305 O306 1.224 . S
C305 O324 1.247 . S
O306 C305 1.224 . S
N307 Co297 2.128 . S
N307 C308 1.355 . S
N307 C310 1.311 . S
C308 N307 1.355 . S
C308 C309 1.363 . S
C308 H320 0.929 . S
C309 C308 1.363 . S
C309 N311 1.375 . S
C309 H327 0.931 . S
C310 N307 1.311 . S
C310 N311 1.347 . S
C310 H321 0.929 . S
N311 C309 1.375 . S
N311 C310 1.347 . S
C312 C315 1.365 . S
C312 N317 1.328 . S
C312 H318 0.929 . S
C313 C314 1.362 . S
C313 C316 1.378 . S
C313 H328 0.929 . S
C314 C313 1.362 . S
C314 C315 1.366 . S
C315 C312 1.365 . S
C315 C314 1.366 . S
C315 H329 0.930 . S
C316 C313 1.378 . S
C316 N317 1.315 . S
C316 H319 0.930 . S
N317 Co297 2.194 . S
N317 C312 1.328 . S
N317 C316 1.315 . S
H318 C312 0.929 . S
H319 C316 0.930 . S
H320 C308 0.929 . S
H321 C310 0.929 . S
O322 Co297 2.351 . S
O322 C325 1.244 . S
O323 Co297 2.155 . S
O323 C325 1.240 . S
O324 Co297 2.096 . S
O324 C305 1.247 . S
C325 O322 1.244 . S
C325 O323 1.240 . S
H326 C300 0.931 . S
H327 C309 0.931 . S
H328 C313 0.929 . S
H329 C315 0.930 . S
Co330 N334 2.148 . S
Co330 N340 2.128 . S
Co330 N350 2.194 . S
Co330 O355 2.351 . S
Co330 O356 2.155 . S
Co330 O357 2.096 . S
C331 N334 1.301 . S
C331 N335 1.328 . S
C331 H336 0.930 . S
C332 C333 1.333 . S
C332 N334 1.317 . S
C332 H337 0.930 . S
C333 C332 1.333 . S
C333 N335 1.350 . S
C333 H359 0.931 . S
N334 Co330 2.148 . S
N334 C331 1.301 . S
N334 C332 1.317 . S
N335 C331 1.328 . S
N335 C333 1.350 . S
H336 C331 0.930 . S
H337 C332 0.930 . S
C338 O339 1.224 . S
C338 O357 1.247 . S
O339 C338 1.224 . S
N340 Co330 2.128 . S
N340 C341 1.355 . S
N340 C343 1.311 . S
C341 N340 1.355 . S
C341 C342 1.363 . S
C341 H353 0.929 . S
C342 C341 1.363 . S
C342 N344 1.375 . S
C342 H360 0.931 . S
C343 N340 1.311 . S
C343 N344 1.347 . S
C343 H354 0.929 . S
N344 C342 1.375 . S
N344 C343 1.347 . S
C345 C348 1.365 . S
C345 N350 1.328 . S
C345 H351 0.929 . S
C346 C347 1.362 . S
C346 C349 1.378 . S
C346 H361 0.929 . S
C347 C346 1.362 . S
C347 C348 1.366 . S
C348 C345 1.365 . S
C348 C347 1.366 . S
C348 H362 0.930 . S
C349 C346 1.378 . S
C349 N350 1.315 . S
C349 H352 0.930 . S
N350 Co330 2.194 . S
N350 C345 1.328 . S
N350 C349 1.315 . S
H351 C345 0.929 . S
H352 C349 0.930 . S
H353 C341 0.929 . S
H354 C343 0.929 . S
O355 Co330 2.351 . S
O355 C358 1.244 . S
O356 Co330 2.155 . S
O356 C358 1.240 . S
O357 Co330 2.096 . S
O357 C338 1.247 . S
C358 O355 1.244 . S
C358 O356 1.240 . S
H359 C333 0.931 . S
H360 C342 0.931 . S
H361 C346 0.929 . S
H362 C348 0.930 . S
Co363 N367 2.148 . S
Co363 N373 2.128 . S
Co363 N383 2.194 . S
Co363 O388 2.351 . S
Co363 O389 2.155 . S
Co363 O390 2.096 . S
C364 N367 1.301 . S
C364 N368 1.328 . S
C364 H369 0.930 . S
C365 C366 1.333 . S
C365 N367 1.317 . S
C365 H370 0.930 . S
C366 C365 1.333 . S
C366 N368 1.350 . S
C366 H392 0.931 . S
N367 Co363 2.148 . S
N367 C364 1.301 . S
N367 C365 1.317 . S
N368 C364 1.328 . S
N368 C366 1.350 . S
H369 C364 0.930 . S
H370 C365 0.930 . S
C371 O372 1.224 . S
C371 O390 1.247 . S
O372 C371 1.224 . S
N373 Co363 2.128 . S
N373 C374 1.355 . S
N373 C376 1.311 . S
C374 N373 1.355 . S
C374 C375 1.363 . S
C374 H386 0.929 . S
C375 C374 1.363 . S
C375 N377 1.375 . S
C375 H393 0.931 . S
C376 N373 1.311 . S
C376 N377 1.347 . S
C376 H387 0.929 . S
N377 C375 1.375 . S
N377 C376 1.347 . S
C378 C381 1.365 . S
C378 N383 1.328 . S
C378 H384 0.929 . S
C379 C380 1.362 . S
C379 C382 1.378 . S
C379 H394 0.929 . S
C380 C379 1.362 . S
C380 C381 1.366 . S
C381 C378 1.365 . S
C381 C380 1.366 . S
C381 H395 0.930 . S
C382 C379 1.378 . S
C382 N383 1.315 . S
C382 H385 0.930 . S
N383 Co363 2.194 . S
N383 C378 1.328 . S
N383 C382 1.315 . S
H384 C378 0.929 . S
H385 C382 0.930 . S
H386 C374 0.929 . S
H387 C376 0.929 . S
O388 Co363 2.351 . S
O388 C391 1.244 . S
O389 Co363 2.155 . S
O389 C391 1.240 . S
O390 Co363 2.096 . S
O390 C371 1.247 . S
C391 O388 1.244 . S
C391 O389 1.240 . S
H392 C366 0.931 . S
H393 C375 0.931 . S
H394 C379 0.929 . S
H395 C381 0.930 . S
Co396 N400 2.148 . S
Co396 N406 2.128 . S
Co396 N416 2.194 . S
Co396 O421 2.351 . S
Co396 O422 2.155 . S
Co396 O423 2.096 . S
C397 N400 1.301 . S
C397 N401 1.328 . S
C397 H402 0.930 . S
C398 C399 1.333 . S
C398 N400 1.317 . S
C398 H403 0.930 . S
C399 C398 1.333 . S
C399 N401 1.350 . S
C399 H425 0.931 . S
N400 Co396 2.148 . S
N400 C397 1.301 . S
N400 C398 1.317 . S
N401 C397 1.328 . S
N401 C399 1.350 . S
H402 C397 0.930 . S
H403 C398 0.930 . S
C404 O405 1.224 . S
C404 O423 1.247 . S
O405 C404 1.224 . S
N406 Co396 2.128 . S
N406 C407 1.355 . S
N406 C409 1.311 . S
C407 N406 1.355 . S
C407 C408 1.363 . S
C407 H419 0.929 . S
C408 C407 1.363 . S
C408 N410 1.375 . S
C408 H426 0.931 . S
C409 N406 1.311 . S
C409 N410 1.347 . S
C409 H420 0.929 . S
N410 C408 1.375 . S
N410 C409 1.347 . S
C411 C414 1.365 . S
C411 N416 1.328 . S
C411 H417 0.929 . S
C412 C413 1.362 . S
C412 C415 1.378 . S
C412 H427 0.929 . S
C413 C412 1.362 . S
C413 C414 1.366 . S
C414 C411 1.365 . S
C414 C413 1.366 . S
C414 H428 0.930 . S
C415 C412 1.378 . S
C415 N416 1.315 . S
C415 H418 0.930 . S
N416 Co396 2.194 . S
N416 C411 1.328 . S
N416 C415 1.315 . S
H417 C411 0.929 . S
H418 C415 0.930 . S
H419 C407 0.929 . S
H420 C409 0.929 . S
O421 Co396 2.351 . S
O421 C424 1.244 . S
O422 Co396 2.155 . S
O422 C424 1.240 . S
O423 Co396 2.096 . S
O423 C404 1.247 . S
C424 O421 1.244 . S
C424 O422 1.240 . S
H425 C399 0.931 . S
H426 C408 0.931 . S
H427 C412 0.929 . S
H428 C414 0.930 . S
Co429 N433 2.148 . S
Co429 N439 2.128 . S
Co429 N449 2.194 . S
Co429 O454 2.351 . S
Co429 O455 2.155 . S
Co429 O456 2.096 . S
C430 N433 1.301 . S
C430 N434 1.328 . S
C430 H435 0.930 . S
C431 C432 1.333 . S
C431 N433 1.317 . S
C431 H436 0.930 . S
C432 C431 1.333 . S
C432 N434 1.350 . S
C432 H458 0.931 . S
N433 Co429 2.148 . S
N433 C430 1.301 . S
N433 C431 1.317 . S
N434 C430 1.328 . S
N434 C432 1.350 . S
H435 C430 0.930 . S
H436 C431 0.930 . S
C437 O438 1.224 . S
C437 O456 1.247 . S
O438 C437 1.224 . S
N439 Co429 2.128 . S
N439 C440 1.355 . S
N439 C442 1.311 . S
C440 N439 1.355 . S
C440 C441 1.363 . S
C440 H452 0.929 . S
C441 C440 1.363 . S
C441 N443 1.375 . S
C441 H459 0.931 . S
C442 N439 1.311 . S
C442 N443 1.347 . S
C442 H453 0.929 . S
N443 C441 1.375 . S
N443 C442 1.347 . S
C444 C447 1.365 . S
C444 N449 1.328 . S
C444 H450 0.929 . S
C445 C446 1.362 . S
C445 C448 1.378 . S
C445 H460 0.929 . S
C446 C445 1.362 . S
C446 C447 1.366 . S
C447 C444 1.365 . S
C447 C446 1.366 . S
C447 H461 0.930 . S
C448 C445 1.378 . S
C448 N449 1.315 . S
C448 H451 0.930 . S
N449 Co429 2.194 . S
N449 C444 1.328 . S
N449 C448 1.315 . S
H450 C444 0.929 . S
H451 C448 0.930 . S
H452 C440 0.929 . S
H453 C442 0.929 . S
O454 Co429 2.351 . S
O454 C457 1.244 . S
O455 Co429 2.155 . S
O455 C457 1.240 . S
O456 Co429 2.096 . S
O456 C437 1.247 . S
C457 O454 1.244 . S
C457 O455 1.240 . S
H458 C432 0.931 . S
H459 C441 0.931 . S
H460 C445 0.929 . S
H461 C447 0.930 . S
Co462 N466 2.148 . S
Co462 N472 2.128 . S
Co462 N482 2.194 . S
Co462 O487 2.351 . S
Co462 O488 2.155 . S
Co462 O489 2.096 . S
C463 N466 1.301 . S
C463 N467 1.328 . S
C463 H468 0.930 . S
C464 C465 1.333 . S
C464 N466 1.317 . S
C464 H469 0.930 . S
C465 C464 1.333 . S
C465 N467 1.350 . S
C465 H491 0.931 . S
N466 Co462 2.148 . S
N466 C463 1.301 . S
N466 C464 1.317 . S
N467 C463 1.328 . S
N467 C465 1.350 . S
H468 C463 0.930 . S
H469 C464 0.930 . S
C470 O471 1.224 . S
C470 O489 1.247 . S
O471 C470 1.224 . S
N472 Co462 2.128 . S
N472 C473 1.355 . S
N472 C475 1.311 . S
C473 N472 1.355 . S
C473 C474 1.363 . S
C473 H485 0.929 . S
C474 C473 1.363 . S
C474 N476 1.375 . S
C474 H492 0.931 . S
C475 N472 1.311 . S
C475 N476 1.347 . S
C475 H486 0.929 . S
N476 C474 1.375 . S
N476 C475 1.347 . S
C477 C480 1.365 . S
C477 N482 1.328 . S
C477 H483 0.929 . S
C478 C479 1.362 . S
C478 C481 1.378 . S
C478 H493 0.929 . S
C479 C478 1.362 . S
C479 C480 1.366 . S
C480 C477 1.365 . S
C480 C479 1.366 . S
C480 H494 0.930 . S
C481 C478 1.378 . S
C481 N482 1.315 . S
C481 H484 0.930 . S
N482 Co462 2.194 . S
N482 C477 1.328 . S
N482 C481 1.315 . S
H483 C477 0.929 . S
H484 C481 0.930 . S
H485 C473 0.929 . S
H486 C475 0.929 . S
O487 Co462 2.351 . S
O487 C490 1.244 . S
O488 Co462 2.155 . S
O488 C490 1.240 . S
O489 Co462 2.096 . S
O489 C470 1.247 . S
C490 O487 1.244 . S
C490 O488 1.240 . S
H491 C465 0.931 . S
H492 C474 0.931 . S
H493 C478 0.929 . S
H494 C480 0.930 . S
Co495 N499 2.148 . S
Co495 N505 2.128 . S
Co495 N515 2.194 . S
Co495 O520 2.351 . S
Co495 O521 2.155 . S
Co495 O522 2.096 . S
C496 N499 1.301 . S
C496 N500 1.328 . S
C496 H501 0.930 . S
C497 C498 1.333 . S
C497 N499 1.317 . S
C497 H502 0.930 . S
C498 C497 1.333 . S
C498 N500 1.350 . S
C498 H524 0.931 . S
N499 Co495 2.148 . S
N499 C496 1.301 . S
N499 C497 1.317 . S
N500 C496 1.328 . S
N500 C498 1.350 . S
H501 C496 0.930 . S
H502 C497 0.930 . S
C503 O504 1.224 . S
C503 O522 1.247 . S
O504 C503 1.224 . S
N505 Co495 2.128 . S
N505 C506 1.355 . S
N505 C508 1.311 . S
C506 N505 1.355 . S
C506 C507 1.363 . S
C506 H518 0.929 . S
C507 C506 1.363 . S
C507 N509 1.375 . S
C507 H525 0.931 . S
C508 N505 1.311 . S
C508 N509 1.347 . S
C508 H519 0.929 . S
N509 C507 1.375 . S
N509 C508 1.347 . S
C510 C513 1.365 . S
C510 N515 1.328 . S
C510 H516 0.929 . S
C511 C512 1.362 . S
C511 C514 1.378 . S
C511 H526 0.929 . S
C512 C511 1.362 . S
C512 C513 1.366 . S
C513 C510 1.365 . S
C513 C512 1.366 . S
C513 H527 0.930 . S
C514 C511 1.378 . S
C514 N515 1.315 . S
C514 H517 0.930 . S
N515 Co495 2.194 . S
N515 C510 1.328 . S
N515 C514 1.315 . S
H516 C510 0.929 . S
H517 C514 0.930 . S
H518 C506 0.929 . S
H519 C508 0.929 . S
O520 Co495 2.351 . S
O520 C523 1.244 . S
O521 Co495 2.155 . S
O521 C523 1.240 . S
O522 Co495 2.096 . S
O522 C503 1.247 . S
C523 O520 1.244 . S
C523 O521 1.240 . S
H524 C498 0.931 . S
H525 C507 0.931 . S
H526 C511 0.929 . S
H527 C513 0.930 . S
C528 C529 1.387 . S
C528 H532 0.950 . S
C528 C537 1.390 . S
C529 C528 1.387 . S
C529 C531 1.387 . S
H530 C537 0.950 . S
C531 C529 1.387 . S
C531 C533 1.390 . S
C531 H535 0.950 . S
H532 C528 0.950 . S
C533 C531 1.390 . S
C533 C534 1.387 . S
C533 H536 0.950 . S
C534 C533 1.387 . S
C534 C537 1.387 . S
H535 C531 0.950 . S
H536 C533 0.950 . S
C537 C528 1.390 . S
C537 H530 0.950 . S
C537 C534 1.387 . S
C538 C539 1.387 1_455 S
C538 H542 0.950 . S
C538 C547 1.390 . S
C539 C538 1.387 1_655 S
C539 C541 1.387 . S
H540 C547 0.950 . S
C541 C539 1.387 . S
C541 C543 1.390 1_645 S
C541 H545 0.950 1_545 S
H542 C538 0.950 . S
C543 C541 1.390 1_465 S
C543 C544 1.387 1_565 S
C543 H546 0.950 . S
C544 C543 1.387 1_545 S
C544 C547 1.387 . S
H545 C541 0.950 1_565 S
H546 C543 0.950 . S
C547 C538 1.390 . S
C547 H540 0.950 . S
C547 C544 1.387 . S
C548 C549 1.387 . S
C548 H552 0.950 . S
C548 C557 1.390 . S
C549 C548 1.387 . S
C549 C551 1.387 . S
H550 C557 0.950 . S
C551 C549 1.387 . S
C551 C553 1.390 . S
C551 H555 0.950 . S
H552 C548 0.950 . S
C553 C551 1.390 . S
C553 C554 1.387 . S
C553 H556 0.950 . S
C554 C553 1.387 . S
C554 C557 1.387 . S
H555 C551 0.950 . S
H556 C553 0.950 . S
C557 C548 1.390 . S
C557 H550 0.950 . S
C557 C554 1.387 . S
C558 C559 1.387 1_554 S
C558 H562 0.950 . S
C558 C567 1.390 . S
C559 C558 1.387 1_556 S
C559 C561 1.387 1_545 S
H560 C567 0.950 . S
C561 C559 1.387 1_565 S
C561 C563 1.390 . S
C561 H565 0.950 . S
H562 C558 0.950 . S
C563 C561 1.390 . S
C563 C564 1.387 1_556 S
C563 H566 0.950 . S
C564 C563 1.387 1_554 S
C564 C567 1.387 1_565 S
H565 C561 0.950 . S
H566 C563 0.950 . S
C567 C558 1.390 . S
C567 H560 0.950 . S
C567 C564 1.387 1_545 S
C568 C569 1.387 . S
C568 H572 0.950 . S
C568 C577 1.390 . S
C569 C568 1.387 . S
C569 C571 1.387 . S
H570 C577 0.950 . S
C571 C569 1.387 . S
C571 C573 1.390 . S
C571 H575 0.950 . S
H572 C568 0.950 . S
C573 C571 1.390 . S
C573 C574 1.387 . S
C573 H576 0.950 . S
C574 C573 1.387 . S
C574 C577 1.387 . S
H575 C571 0.950 . S
H576 C573 0.950 . S
C577 C568 1.390 . S
C577 H570 0.950 . S
C577 C574 1.387 . S
C578 C579 1.387 . S
C578 H582 0.950 . S
C578 C587 1.390 1_565 S
C579 C578 1.387 . S
C579 C581 1.387 . S
H580 C587 0.950 . S
C581 C579 1.387 . S
C581 C583 1.390 . S
C581 H585 0.950 . S
H582 C578 0.950 . S
C583 C581 1.390 . S
C583 C584 1.387 1_565 S
C583 H586 0.950 . S
C584 C583 1.387 1_545 S
C584 C587 1.387 . S
H585 C581 0.950 . S
H586 C583 0.950 . S
C587 C578 1.390 1_545 S
C587 H580 0.950 . S
C587 C584 1.387 . S
C588 C589 1.387 . S
C588 H592 0.950 . S
C588 C597 1.390 . S
C589 C588 1.387 . S
C589 C591 1.387 . S
H590 C597 0.950 . S
C591 C589 1.387 . S
C591 C593 1.390 . S
C591 H595 0.950 . S
H592 C588 0.950 . S
C593 C591 1.390 . S
C593 C594 1.387 . S
C593 H596 0.950 . S
C594 C593 1.387 . S
C594 C597 1.387 . S
H595 C591 0.950 . S
H596 C593 0.950 . S
C597 C588 1.390 . S
C597 H590 0.950 . S
C597 C594 1.387 . S
C598 C599 1.387 . S
C598 H602 0.950 . S
C598 C607 1.390 1_445 S
C599 C598 1.387 . S
C599 C601 1.387 1_554 S
H600 C607 0.950 . S
C601 C599 1.387 1_556 S
C601 C603 1.390 1_455 S
C601 H605 0.950 . S
H602 C598 0.950 . S
C603 C601 1.390 1_655 S
C603 C604 1.387 1_545 S
C603 H606 0.950 . S
C604 C603 1.387 1_565 S
C604 C607 1.387 1_556 S
H605 C601 0.950 . S
H606 C603 0.950 . S
C607 C598 1.390 1_665 S
C607 H600 0.950 . S
C607 C604 1.387 1_554 S
C608 C609 1.387 . S
C608 H612 0.950 . S
C608 C617 1.390 . S
C609 C608 1.387 . S
C609 C611 1.387 . S
H610 C617 0.950 . S
C611 C609 1.387 . S
C611 C613 1.390 . S
C611 H615 0.950 . S
H612 C608 0.950 . S
C613 C611 1.390 . S
C613 C614 1.387 . S
C613 H616 0.950 . S
C614 C613 1.387 . S
C614 C617 1.387 . S
H615 C611 0.950 . S
H616 C613 0.950 . S
C617 C608 1.390 . S
C617 H610 0.950 . S
C617 C614 1.387 . S
C618 C619 1.387 1_554 S
C618 H622 0.950 . S
C618 C627 1.390 . S
C619 C618 1.387 1_556 S
C619 C621 1.387 . S
H620 C627 0.950 1_655 S
C621 C619 1.387 . S
C621 C623 1.396 . S
C621 H625 0.950 . S
H622 C618 0.950 . S
C623 C621 1.396 . S
C623 C624 1.384 1_456 S
C623 H626 0.947 1_455 S
C624 C623 1.384 1_654 S
C624 C627 1.387 1_655 S
H625 C621 0.950 . S
H626 C623 0.947 1_655 S
C627 C618 1.390 . S
C627 H620 0.950 1_455 S
C627 C624 1.387 1_455 S
C628 C629 1.387 . S
C628 H632 0.950 . S
C628 C637 1.390 . S
C629 C628 1.387 . S
C629 C631 1.387 . S
H630 C637 0.950 . S
C631 C629 1.387 . S
C631 C633 1.390 . S
C631 H635 0.950 . S
H632 C628 0.950 . S
C633 C631 1.390 . S
C633 C634 1.387 . S
C633 H636 0.950 . S
C634 C633 1.387 . S
C634 C637 1.387 . S
H635 C631 0.950 . S
H636 C633 0.950 . S
C637 C628 1.390 . S
C637 H630 0.950 . S
C637 C634 1.387 . S
C638 C639 1.387 . S
C638 H642 0.950 . S
C638 C647 1.390 . S
C639 C638 1.387 . S
C639 C641 1.387 . S
H640 C647 0.950 1_455 S
C641 C639 1.387 . S
C641 C643 1.401 . S
C641 H645 0.950 . S
H642 C638 0.950 . S
C643 C641 1.401 . S
C643 C644 1.381 1_655 S
C643 H646 0.946 1_655 S
C644 C643 1.381 1_455 S
C644 C647 1.387 1_455 S
H645 C641 0.950 . S
H646 C643 0.946 1_455 S
C647 C638 1.390 . S
C647 H640 0.950 1_655 S
C647 C644 1.387 1_655 S
C648 C649 1.387 . S
C648 H652 0.950 . S
C648 C657 1.390 . S
C649 C648 1.387 . S
C649 C651 1.387 1_556 S
H650 C657 0.950 . S
C651 C649 1.387 1_554 S
C651 C653 1.390 . S
C651 H655 0.950 . S
H652 C648 0.950 . S
C653 C651 1.390 . S
C653 C654 1.387 . S
C653 H656 0.950 . S
C654 C653 1.387 . S
C654 C657 1.387 1_554 S
H655 C651 0.950 . S
H656 C653 0.950 . S
C657 C648 1.390 . S
C657 H650 0.950 . S
C657 C654 1.387 1_556 S
C658 C659 1.387 . S
C658 H662 0.950 . S
C658 C667 1.390 . S
C659 C658 1.387 . S
C659 C661 1.387 . S
H660 C667 0.950 . S
C661 C659 1.387 . S
C661 C663 1.390 . S
C661 H665 0.950 . S
H662 C658 0.950 . S
C663 C661 1.390 . S
C663 C664 1.387 . S
C663 H666 0.950 . S
C664 C663 1.387 . S
C664 C667 1.387 . S
H665 C661 0.950 . S
H666 C663 0.950 . S
C667 C658 1.390 . S
C667 H660 0.950 . S
C667 C664 1.387 . S
C668 C669 1.387 . S
C668 H672 0.950 . S
C668 C677 1.390 . S
C669 C668 1.387 . S
C669 C671 1.387 . S
H670 C677 0.950 . S
C671 C669 1.387 . S
C671 C673 1.390 . S
C671 H675 0.950 . S
H672 C668 0.950 . S
C673 C671 1.390 . S
C673 C674 1.387 . S
C673 H676 0.950 . S
C674 C673 1.387 . S
C674 C677 1.387 . S
H675 C671 0.950 . S
H676 C673 0.950 . S
C677 C668 1.390 . S
C677 H670 0.950 . S
C677 C674 1.387 . S
C678 C679 1.387 . S
C678 H682 0.950 . S
C678 C687 1.390 . S
C679 C678 1.387 . S
C679 C681 1.387 . S
H680 C687 0.950 . S
C681 C679 1.387 . S
C681 C683 1.390 . S
C681 H685 0.950 . S
H682 C678 0.950 . S
C683 C681 1.390 . S
C683 C684 1.387 . S
C683 H686 0.950 . S
C684 C683 1.387 . S
C684 C687 1.387 . S
H685 C681 0.950 . S
H686 C683 0.950 . S
C687 C678 1.390 . S
C687 H680 0.950 . S
C687 C684 1.387 . S
C688 C689 1.387 . S
C688 H692 0.950 . S
C688 C697 1.390 . S
C689 C688 1.387 . S
C689 C691 1.387 . S
H690 C697 0.950 . S
C691 C689 1.387 . S
C691 C693 1.390 1_545 S
C691 H695 0.950 . S
H692 C688 0.950 . S
C693 C691 1.390 1_565 S
C693 C694 1.387 . S
C693 H696 0.950 . S
C694 C693 1.387 . S
C694 C697 1.387 1_565 S
H695 C691 0.950 . S
H696 C693 0.950 . S
C697 C688 1.390 . S
C697 H690 0.950 . S
C697 C694 1.387 1_545 S
C698 C699 1.387 . S
C698 H702 0.950 . S
C698 C707 1.390 . S
C699 C698 1.387 . S
C699 C701 1.387 . S
H700 C707 0.950 . S
C701 C699 1.387 . S
C701 C703 1.390 . S
C701 H705 0.950 . S
H702 C698 0.950 . S
C703 C701 1.390 . S
C703 C704 1.387 . S
C703 H706 0.950 . S
C704 C703 1.387 . S
C704 C707 1.387 . S
H705 C701 0.950 . S
H706 C703 0.950 . S
C707 C698 1.390 . S
C707 H700 0.950 . S
C707 C704 1.387 . S
C708 C709 1.387 . S
C708 H712 0.950 . S
C708 C717 1.390 1_565 S
C709 C708 1.387 . S
C709 C711 1.387 . S
H710 C717 0.950 . S
C711 C709 1.387 . S
C711 C713 1.399 . S
C711 H715 0.950 . S
H712 C708 0.950 . S
C713 C711 1.399 . S
C713 C714 1.381 1_565 S
C713 H716 0.947 1_565 S
C714 C713 1.381 1_545 S
C714 C717 1.387 . S
H715 C711 0.950 . S
H716 C713 0.947 1_545 S
C717 C708 1.390 1_545 S
C717 H710 0.950 . S
C717 C714 1.387 . S
C718 C719 1.387 . S
C718 H722 0.950 . S
C718 C727 1.390 1_556 S
C719 C718 1.387 . S
C719 C721 1.387 . S
H720 C727 0.950 . S
C721 C719 1.387 . S
C721 C723 1.390 1_556 S
C721 H725 0.950 . S
H722 C718 0.950 . S
C723 C721 1.390 1_554 S
C723 C724 1.387 . S
C723 H726 0.950 . S
C724 C723 1.387 . S
C724 C727 1.387 . S
H725 C721 0.950 . S
H726 C723 0.950 . S
C727 C718 1.390 1_554 S
C727 H720 0.950 . S
C727 C724 1.387 . S
C728 C729 1.387 . S
C728 H732 0.950 . S
C728 C737 1.390 1_455 S
C729 C728 1.387 . S
C729 C731 1.387 . S
H730 C737 0.950 . S
C731 C729 1.387 . S
C731 C733 1.390 1_455 S
C731 H735 0.950 . S
H732 C728 0.950 . S
C733 C731 1.390 1_655 S
C733 C734 1.387 . S
C733 H736 0.950 . S
C734 C733 1.387 . S
C734 C737 1.387 . S
H735 C731 0.950 . S
H736 C733 0.950 . S
C737 C728 1.390 1_655 S
C737 H730 0.950 . S
C737 C734 1.387 . S
C738 C739 1.387 . S
C738 H742 0.950 . S
C738 C747 1.390 . S
C739 C738 1.387 . S
C739 C741 1.387 . S
H740 C747 0.950 . S
C741 C739 1.387 . S
C741 C743 1.390 . S
C741 H745 0.950 . S
H742 C738 0.950 . S
C743 C741 1.390 . S
C743 C744 1.387 . S
C743 H746 0.950 . S
C744 C743 1.387 . S
C744 C747 1.387 . S
H745 C741 0.950 . S
H746 C743 0.950 . S
C747 C738 1.390 . S
C747 H740 0.950 . S
C747 C744 1.387 . S
C748 C749 1.387 . S
C748 H752 0.950 . S
C748 C757 1.390 1_655 S
C749 C748 1.387 . S
C749 C751 1.387 1_655 S
H750 C757 0.950 . S
C751 C749 1.387 1_455 S
C751 C753 1.390 . S
C751 H755 0.950 . S
H752 C748 0.950 . S
C753 C751 1.390 . S
C753 C754 1.387 . S
C753 H756 0.950 . S
C754 C753 1.387 . S
C754 C757 1.387 . S
H755 C751 0.950 . S
H756 C753 0.950 . S
C757 C748 1.390 1_455 S
C757 H750 0.950 . S
C757 C754 1.387 . S
C758 C759 1.387 . S
C758 H762 0.950 . S
C758 C767 1.390 . S
C759 C758 1.387 . S
C759 C761 1.387 . S
H760 C767 0.950 . S
C761 C759 1.387 . S
C761 C763 1.390 . S
C761 H765 0.950 . S
H762 C758 0.950 . S
C763 C761 1.390 . S
C763 C764 1.387 . S
C763 H766 0.950 . S
C764 C763 1.387 . S
C764 C767 1.387 . S
H765 C761 0.950 . S
H766 C763 0.950 . S
C767 C758 1.390 . S
C767 H760 0.950 . S
C767 C764 1.387 . S
C768 C769 1.387 1_565 S
C768 H772 0.950 . S
C768 C777 1.390 . S
C769 C768 1.387 1_545 S
C769 C771 1.387 . S
H770 C777 0.950 . S
C771 C769 1.387 . S
C771 C773 1.390 1_545 S
C771 H775 0.950 . S
H772 C768 0.950 . S
C773 C771 1.390 1_565 S
C773 C774 1.387 . S
C773 H776 0.950 . S
C774 C773 1.387 . S
C774 C777 1.387 . S
H775 C771 0.950 . S
H776 C773 0.950 . S
C777 C768 1.390 . S
C777 H770 0.950 . S
C777 C774 1.387 . S
C778 C779 1.387 . S
C778 H782 0.950 . S
C778 C787 1.390 . S
C779 C778 1.387 . S
C779 C781 1.387 . S
H780 C787 0.950 . S
C781 C779 1.387 . S
C781 C783 1.390 . S
C781 H785 0.950 . S
H782 C778 0.950 . S
C783 C781 1.390 . S
C783 C784 1.387 . S
C783 H786 0.950 . S
C784 C783 1.387 . S
C784 C787 1.387 . S
H785 C781 0.950 . S
H786 C783 0.950 . S
C787 C778 1.390 . S
C787 H780 0.950 . S
C787 C784 1.387 . S
C788 C789 1.387 1_565 S
C788 H792 0.950 . S
C788 C797 1.390 . S
C789 C788 1.387 1_545 S
C789 C791 1.387 . S
H790 C797 0.950 . S
C791 C789 1.387 . S
C791 C793 1.398 . S
C791 H795 0.950 . S
H792 C788 0.950 . S
C793 C791 1.398 . S
C793 C794 1.379 1_545 S
C793 H796 0.950 . S
C794 C793 1.379 1_565 S
C794 C797 1.387 . S
H795 C791 0.950 . S
H796 C793 0.950 . S
C797 C788 1.390 . S
C797 H790 0.950 . S
C797 C794 1.387 . S
C798 C799 1.387 1_556 S
C798 H802 0.950 1_556 S
C798 C807 1.390 . S
C799 C798 1.387 1_554 S
C799 C801 1.387 . S
H800 C807 0.950 . S
C801 C799 1.387 . S
C801 C803 1.390 1_554 S
C801 H805 0.950 . S
H802 C798 0.950 1_554 S
C803 C801 1.390 1_556 S
C803 C804 1.387 . S
C803 H806 0.950 . S
C804 C803 1.387 . S
C804 C807 1.387 . S
H805 C801 0.950 . S
H806 C803 0.950 . S
C807 C798 1.390 . S
C807 H800 0.950 . S
C807 C804 1.387 . S
C808 C809 1.387 . S
C808 H812 0.950 . S
C808 C817 1.390 1_455 S
C809 C808 1.387 . S
C809 C811 1.387 . S
H810 C817 0.950 . S
C811 C809 1.387 . S
C811 C813 1.390 1_455 S
C811 H815 0.950 . S
H812 C808 0.950 . S
C813 C811 1.390 1_655 S
C813 C814 1.387 . S
C813 H816 0.950 . S
C814 C813 1.387 . S
C814 C817 1.387 . S
H815 C811 0.950 . S
H816 C813 0.950 . S
C817 C808 1.390 1_655 S
C817 H810 0.950 . S
C817 C814 1.387 . S
C818 C819 1.387 . S
C818 H822 0.950 . S
C818 C827 1.390 . S
C819 C818 1.387 . S
C819 C821 1.387 . S
H820 C827 0.950 . S
C821 C819 1.387 . S
C821 C823 1.390 . S
C821 H825 0.950 . S
H822 C818 0.950 . S
C823 C821 1.390 . S
C823 C824 1.387 . S
C823 H826 0.950 . S
C824 C823 1.387 . S
C824 C827 1.387 . S
H825 C821 0.950 . S
H826 C823 0.950 . S
C827 C818 1.390 . S
C827 H820 0.950 . S
C827 C824 1.387 . S
C828 C829 1.387 . S
C828 H832 0.950 . S
C828 C837 1.390 1_655 S
C829 C828 1.387 . S
C829 C831 1.387 . S
H830 C837 0.950 . S
C831 C829 1.387 . S
C831 C833 1.390 1_655 S
C831 H835 0.950 . S
H832 C828 0.950 . S
C833 C831 1.390 1_455 S
C833 C834 1.387 . S
C833 H836 0.950 . S
C834 C833 1.387 . S
C834 C837 1.387 . S
H835 C831 0.950 . S
H836 C833 0.950 . S
C837 C828 1.390 1_455 S
C837 H830 0.950 . S
C837 C834 1.387 . S
C838 C839 1.387 . S
C838 H842 0.950 . S
C838 C847 1.390 . S
C839 C838 1.387 . S
C839 C841 1.387 . S
H840 C847 0.950 . S
C841 C839 1.387 . S
C841 C843 1.390 . S
C841 H845 0.950 . S
H842 C838 0.950 . S
C843 C841 1.390 . S
C843 C844 1.387 . S
C843 H846 0.950 . S
C844 C843 1.387 . S
C844 C847 1.387 . S
H845 C841 0.950 . S
H846 C843 0.950 . S
C847 C838 1.390 . S
C847 H840 0.950 . S
C847 C844 1.387 . S
C848 C849 1.387 . S
C848 H852 0.950 . S
C848 C857 1.390 . S
C849 C848 1.387 . S
C849 C851 1.387 . S
H850 C857 0.950 . S
C851 C849 1.387 . S
C851 C853 1.390 . S
C851 H855 0.950 . S
H852 C848 0.950 . S
C853 C851 1.390 . S
C853 C854 1.387 . S
C853 H856 0.950 . S
C854 C853 1.387 . S
C854 C857 1.387 . S
H855 C851 0.950 . S
H856 C853 0.950 . S
C857 C848 1.390 . S
C857 H850 0.950 . S
C857 C854 1.387 . S
C858 C859 1.387 . S
C858 H862 0.950 . S
C858 C867 1.390 . S
C859 C858 1.387 . S
C859 C861 1.387 . S
H860 C867 0.950 . S
C861 C859 1.387 . S
C861 C863 1.390 1_556 S
C861 H865 0.950 1_556 S
H862 C858 0.950 . S
C863 C861 1.390 1_554 S
C863 C864 1.387 . S
C863 H866 0.950 . S
C864 C863 1.387 . S
C864 C867 1.387 1_554 S
H865 C861 0.950 1_554 S
H866 C863 0.950 . S
C867 C858 1.390 . S
C867 H860 0.950 . S
C867 C864 1.387 1_556 S
C868 C869 1.387 . S
C868 H872 0.950 . S
C868 C877 1.390 . S
C869 C868 1.387 . S
C869 C871 1.387 . S
H870 C877 0.950 . S
C871 C869 1.387 . S
C871 C873 1.390 . S
C871 H875 0.950 . S
H872 C868 0.950 . S
C873 C871 1.390 . S
C873 C874 1.387 . S
C873 H876 0.950 . S
C874 C873 1.387 . S
C874 C877 1.387 . S
H875 C871 0.950 . S
H876 C873 0.950 . S
C877 C868 1.390 . S
C877 H870 0.950 . S
C877 C874 1.387 . S
C878 C879 1.387 . S
C878 H882 0.950 . S
C878 C887 1.390 . S
C879 C878 1.387 . S
C879 C881 1.387 . S
H880 C887 0.950 . S
C881 C879 1.387 . S
C881 C883 1.390 . S
C881 H885 0.950 . S
H882 C878 0.950 . S
C883 C881 1.390 . S
C883 C884 1.387 . S
C883 H886 0.950 . S
C884 C883 1.387 . S
C884 C887 1.387 . S
H885 C881 0.950 . S
H886 C883 0.950 . S
C887 C878 1.390 . S
C887 H880 0.950 . S
C887 C884 1.387 . S
C888 C889 1.387 . S
C888 H892 0.950 . S
C888 C897 1.390 . S
C889 C888 1.387 . S
C889 C891 1.387 . S
H890 C897 0.950 . S
C891 C889 1.387 . S
C891 C893 1.390 . S
C891 H895 0.950 . S
H892 C888 0.950 . S
C893 C891 1.390 . S
C893 C894 1.387 . S
C893 H896 0.950 . S
C894 C893 1.387 . S
C894 C897 1.387 . S
H895 C891 0.950 . S
H896 C893 0.950 . S
C897 C888 1.390 . S
C897 H890 0.950 . S
C897 C894 1.387 . S
C898 C899 1.387 . S
C898 H902 0.950 . S
C898 C907 1.390 1_556 S
C899 C898 1.387 . S
C899 C901 1.387 . S
H900 C907 0.950 . S
C901 C899 1.387 . S
C901 C903 1.390 1_556 S
C901 H905 0.950 . S
H902 C898 0.950 . S
C903 C901 1.390 1_554 S
C903 C904 1.387 . S
C903 H906 0.950 . S
C904 C903 1.387 . S
C904 C907 1.387 . S
H905 C901 0.950 . S
H906 C903 0.950 . S
C907 C898 1.390 1_554 S
C907 H900 0.950 . S
C907 C904 1.387 . S
C908 C909 1.387 . S
C908 H912 0.950 . S
C908 C917 1.390 . S
C909 C908 1.387 . S
C909 C911 1.387 . S
H910 C917 0.950 . S
C911 C909 1.387 . S
C911 C913 1.390 . S
C911 H915 0.950 . S
H912 C908 0.950 . S
C913 C911 1.390 . S
C913 C914 1.387 . S
C913 H916 0.950 . S
C914 C913 1.387 . S
C914 C917 1.387 . S
H915 C911 0.950 . S
H916 C913 0.950 . S
C917 C908 1.390 . S
C917 H910 0.950 . S
C917 C914 1.387 . S
C918 C919 1.387 . S
C918 H922 0.950 . S
C918 C927 1.390 . S
C919 C918 1.387 . S
C919 C921 1.387 . S
H920 C927 0.950 . S
C921 C919 1.387 . S
C921 C923 1.390 . S
C921 H925 0.950 . S
H922 C918 0.950 . S
C923 C921 1.390 . S
C923 C924 1.387 . S
C923 H926 0.950 . S
C924 C923 1.387 . S
C924 C927 1.387 . S
H925 C921 0.950 . S
H926 C923 0.950 . S
C927 C918 1.390 . S
C927 H920 0.950 . S
C927 C924 1.387 . S
C529 N5 1.394 . S
C534 N509 1.384 . S
C539 N278 1.929 . S
C544 N38 1.926 1_545 S
C549 N410 1.639 . S
C554 N71 1.644 . S
C559 N113 1.953 . S
C564 N344 1.945 . S
C569 N368 1.907 . S
C574 N47 1.913 . S
C579 N80 1.781 . S
C584 N311 1.773 . S
C589 N104 1.806 . S
C594 N434 1.807 . S
C599 N14 1.399 . S
C604 N236 1.393 . S
C609 N269 1.980 . S
C614 N146 1.998 . S
C619 N401 1.648 . S
C624 N179 1.641 . S
C629 N203 1.843 . S
C634 N335 1.844 . S
C639 N212 1.858 . S
C644 N443 1.849 . S
C649 N137 1.855 . S
C654 N377 1.867 . S
C659 N476 1.431 . S
C664 N245 1.424 . S
C669 N302 1.711 . S
C674 N170 1.715 . S
C679 N500 1.352 . S
C684 N467 1.353 . S
C689 C17 1.088 . S
C694 C61 1.097 . S
C699 C41 1.446 . S
C704 C74 1.446 . S
C709 C83 1.317 . S
C714 C107 1.319 . S
C719 C127 1.598 . S
C724 C8 1.592 . S
C729 C28 1.134 . S
C734 C193 1.134 . S
C739 C149 1.015 . S
C744 C116 1.014 . S
C749 C215 0.731 . S
C754 C50 0.730 . S
C759 C490 1.096 . S
C764 C94 1.099 . S
C769 C281 1.122 . S
C774 C239 1.117 . S
C779 C292 1.514 . S
C784 C305 1.515 . S
C789 C325 1.410 . S
C794 C338 1.414 . S
C799 C347 0.923 . S
C804 C259 0.919 . S
C809 C413 0.826 . S
C814 C248 0.827 . S
C819 C371 1.407 . S
C824 C358 1.408 . S
C829 C272 1.460 . S
C834 C457 1.464 . S
C839 C512 1.004 . S
C844 C314 1.001 . S
C849 C160 1.518 . S
C854 C470 1.508 . S
C859 C140 1.589 . S
C864 C173 1.593 . S
C869 C182 1.140 . S
C874 C206 1.143 . S
C879 C479 1.136 . S
C884 C226 1.138 . S
C889 C380 1.002 . S
C894 C503 0.999 . S
C899 C424 1.471 . S
C904 C391 1.468 . S
C909 C404 1.432 . S
C914 C437 1.433 . S
C919 C523 0.854 . S
C924 C446 0.857 . S
