# Generated by pormake.
# Topology umz, (4)-cn, num edge types: 1
# Building blocks:
#     Node 0, Type 0, BuildingBlock: GALJAG_clean_sbu_0, # of connection points: 4
#     Node 1, Type 0, BuildingBlock: GALJAG_clean_sbu_0, # of connection points: 4
#     Node 2, Type 0, BuildingBlock: GALJAG_clean_sbu_0, # of connection points: 4
#     Node 3, Type 0, BuildingBlock: GALJAG_clean_sbu_0, # of connection points: 4
#     Node 4, Type 0, BuildingBlock: GALJAG_clean_sbu_0, # of connection points: 4
#     Node 5, Type 0, BuildingBlock: GALJAG_clean_sbu_0, # of connection points: 4
#     Node 6, Type 0, BuildingBlock: GALJAG_clean_sbu_0, # of connection points: 4
#     Node 7, Type 0, BuildingBlock: GALJAG_clean_sbu_0, # of connection points: 4
#     Node 8, Type 0, BuildingBlock: GALJAG_clean_sbu_0, # of connection points: 4
#     Node 9, Type 0, BuildingBlock: GALJAG_clean_sbu_0, # of connection points: 4
#     Node 10, Type 0, BuildingBlock: GALJAG_clean_sbu_0, # of connection points: 4
#     Node 11, Type 0, BuildingBlock: GALJAG_clean_sbu_0, # of connection points: 4
#     Node 12, Type 0, BuildingBlock: GALJAG_clean_sbu_0, # of connection points: 4
#     Node 13, Type 0, BuildingBlock: GALJAG_clean_sbu_0, # of connection points: 4
#     Node 14, Type 0, BuildingBlock: GALJAG_clean_sbu_0, # of connection points: 4
#     Node 15, Type 0, BuildingBlock: GALJAG_clean_sbu_0, # of connection points: 4
#     Edge 16, Type (0, 0), BuildingBlock: OJICUG_clean_linker_0, # of connection points: 2
#     Edge 17, Type (0, 0), BuildingBlock: OJICUG_clean_linker_0, # of connection points: 2
#     Edge 18, Type (0, 0), BuildingBlock: OJICUG_clean_linker_0, # of connection points: 2
#     Edge 19, Type (0, 0), BuildingBlock: OJICUG_clean_linker_0, # of connection points: 2
#     Edge 20, Type (0, 0), BuildingBlock: OJICUG_clean_linker_0, # of connection points: 2
#     Edge 21, Type (0, 0), BuildingBlock: OJICUG_clean_linker_0, # of connection points: 2
#     Edge 22, Type (0, 0), BuildingBlock: OJICUG_clean_linker_0, # of connection points: 2
#     Edge 23, Type (0, 0), BuildingBlock: OJICUG_clean_linker_0, # of connection points: 2
#     Edge 24, Type (0, 0), BuildingBlock: OJICUG_clean_linker_0, # of connection points: 2
#     Edge 25, Type (0, 0), BuildingBlock: OJICUG_clean_linker_0, # of connection points: 2
#     Edge 26, Type (0, 0), BuildingBlock: OJICUG_clean_linker_0, # of connection points: 2
#     Edge 27, Type (0, 0), BuildingBlock: OJICUG_clean_linker_0, # of connection points: 2
#     Edge 28, Type (0, 0), BuildingBlock: OJICUG_clean_linker_0, # of connection points: 2
#     Edge 29, Type (0, 0), BuildingBlock: OJICUG_clean_linker_0, # of connection points: 2
#     Edge 30, Type (0, 0), BuildingBlock: OJICUG_clean_linker_0, # of connection points: 2
#     Edge 31, Type (0, 0), BuildingBlock: OJICUG_clean_linker_0, # of connection points: 2
#     Edge 32, Type (0, 0), BuildingBlock: OJICUG_clean_linker_0, # of connection points: 2
#     Edge 33, Type (0, 0), BuildingBlock: OJICUG_clean_linker_0, # of connection points: 2
#     Edge 34, Type (0, 0), BuildingBlock: OJICUG_clean_linker_0, # of connection points: 2
#     Edge 35, Type (0, 0), BuildingBlock: OJICUG_clean_linker_0, # of connection points: 2
#     Edge 36, Type (0, 0), BuildingBlock: OJICUG_clean_linker_0, # of connection points: 2
#     Edge 37, Type (0, 0), BuildingBlock: OJICUG_clean_linker_0, # of connection points: 2
#     Edge 38, Type (0, 0), BuildingBlock: OJICUG_clean_linker_0, # of connection points: 2
#     Edge 39, Type (0, 0), BuildingBlock: OJICUG_clean_linker_0, # of connection points: 2
#     Edge 40, Type (0, 0), BuildingBlock: OJICUG_clean_linker_0, # of connection points: 2
#     Edge 41, Type (0, 0), BuildingBlock: OJICUG_clean_linker_0, # of connection points: 2
#     Edge 42, Type (0, 0), BuildingBlock: OJICUG_clean_linker_0, # of connection points: 2
#     Edge 43, Type (0, 0), BuildingBlock: OJICUG_clean_linker_0, # of connection points: 2
#     Edge 44, Type (0, 0), BuildingBlock: OJICUG_clean_linker_0, # of connection points: 2
#     Edge 45, Type (0, 0), BuildingBlock: OJICUG_clean_linker_0, # of connection points: 2
#     Edge 46, Type (0, 0), BuildingBlock: OJICUG_clean_linker_0, # of connection points: 2
#     Edge 47, Type (0, 0), BuildingBlock: OJICUG_clean_linker_0, # of connection points: 2
# Relax obj value: 0.183
# Max RMSD: 0.169
# Mean RMSD: 0.169
data_MOF--net-umz--node1-GALJAG_clean_sbu_0--edge1-OJICUG_clean_linker_0
_symmetry_space_group_name_H-M    P1
_symmetry_Int_Tables_number       1
_symmetry_cell_setting            triclinic
loop_
_symmetry_equiv_pos_as_xyz
'x, y, z'
_cell_length_a     42.35458
_cell_length_b     42.505803
_cell_length_c     18.366995
_cell_angle_alpha  89.94689
_cell_angle_beta   89.872858
_cell_angle_gamma 89.858186
loop_
_atom_site_label
_atom_site_type_symbol
_atom_site_fract_x
_atom_site_fract_y
_atom_site_fract_z
_atom_type_partial_charge
In0 In 0.00527 0.60556 0.09773 0.0
O1 O 0.00112 0.58044 0.98806 0.0
O2 O 0.04681 0.59368 0.02458 0.0
C3 C 0.9499 0.59024 0.15953 0.0
C4 C 0.00303 0.66618 0.05595 0.0
C5 C 0.038 0.58086 0.20926 0.0
O6 O 0.95889 0.57849 0.09965 0.0
O7 O 0.96801 0.61089 0.18553 0.0
O8 O 0.0348 0.61022 0.20068 0.0
O9 O 0.02594 0.5642 0.15977 0.0
C10 C 0.03042 0.58139 0.97502 0.0
O11 O 0.02693 0.65428 0.08637 0.0
O12 O 0.97986 0.64787 0.04924 0.0
In13 In 0.85676 0.006 0.60521 0.0
O14 O 0.80794 0.02801 0.59357 0.0
O15 O 0.81401 0.98059 0.55946 0.0
C16 C 0.88163 0.03867 0.7162 0.0
C17 C 0.88083 0.0306 0.48192 0.0
C18 C 0.87281 0.95074 0.6657 0.0
O19 O 0.85215 0.03536 0.70846 0.0
O20 O 0.89826 0.02672 0.66623 0.0
O21 O 0.88396 0.9597 0.60518 0.0
O22 O 0.85242 0.96888 0.69328 0.0
C23 C 0.79579 0.00395 0.56502 0.0
O24 O 0.8815 0.00141 0.49496 0.0
O25 O 0.86884 0.04717 0.53172 0.0
In26 In 0.46368 0.85937 0.09664 0.0
O27 O 0.4419 0.81086 0.08406 0.0
O28 O 0.48862 0.81769 0.04437 0.0
C29 C 0.43089 0.88376 0.20853 0.0
C30 C 0.43853 0.88408 0.97493 0.0
C31 C 0.51907 0.87346 0.15892 0.0
O32 O 0.43397 0.85441 0.19951 0.0
O33 O 0.44314 0.90057 0.15936 0.0
O34 O 0.51024 0.88597 0.09977 0.0
O35 O 0.50079 0.85264 0.18385 0.0
C36 C 0.46543 0.79938 0.05115 0.0
O37 O 0.46779 0.88546 0.98809 0.0
O38 O 0.4222 0.87129 0.02411 0.0
In39 In 0.6129 0.44975 0.61869 0.0
O40 O 0.66203 0.42872 0.60283 0.0
O41 O 0.65537 0.47691 0.57625 0.0
C42 C 0.58881 0.41617 0.72938 0.0
C43 C 0.58862 0.42534 0.49594 0.0
C44 C 0.59355 0.50409 0.67824 0.0
O45 O 0.61812 0.42133 0.72342 0.0
O46 O 0.57219 0.4266 0.67774 0.0
O47 O 0.58507 0.49561 0.61526 0.0
O48 O 0.61305 0.48602 0.70912 0.0
C49 C 0.67383 0.45364 0.57741 0.0
O50 O 0.58787 0.45448 0.50937 0.0
O51 O 0.60096 0.40864 0.54503 0.0
In52 In 0.00575 0.85139 0.89193 0.0
O53 O 0.00115 0.87536 0.00285 0.0
O54 O 0.04712 0.86344 0.96492 0.0
C55 C 0.9507 0.86892 0.83203 0.0
C56 C 0.00334 0.79049 0.93153 0.0
C57 C 0.0388 0.87583 0.78048 0.0
O58 O 0.95993 0.87956 0.89266 0.0
O59 O 0.96834 0.84816 0.80426 0.0
O60 O 0.035 0.84651 0.78817 0.0
O61 O 0.02721 0.89249 0.83075 0.0
C62 C 0.03048 0.87494 0.01531 0.0
O63 O 0.02765 0.80271 0.90379 0.0
O64 O 0.97984 0.80861 0.93649 0.0
In65 In 0.61037 0.00504 0.39958 0.0
O66 O 0.58467 -0.0002 0.50851 0.0
O67 O 0.59783 0.04573 0.47397 0.0
C68 C 0.59668 0.95 0.33594 0.0
C69 C 0.67112 0.00351 0.44131 0.0
C70 C 0.58445 0.03722 0.28877 0.0
O71 O 0.58464 0.95808 0.39626 0.0
O72 O 0.61692 0.96881 0.31057 0.0
O73 O 0.61402 0.03526 0.29732 0.0
O74 O 0.5682 0.02437 0.33815 0.0
C75 C 0.58534 0.0289 0.52262 0.0
O76 O 0.65894 0.02731 0.4112 0.0
O77 O 0.65301 0.98018 0.4478 0.0
In78 In 0.45827 0.61746 0.87221 0.0
O79 O 0.43775 0.66671 0.88541 0.0
O80 O 0.48545 0.65939 0.91654 0.0
C81 C 0.42603 0.59971 0.75332 0.0
C82 C 0.43193 0.59589 0.9956 0.0
C83 C 0.51194 0.59004 0.82596 0.0
O84 O 0.44394 0.62337 0.75356 0.0
O85 O 0.42313 0.58589 0.81371 0.0
O86 O 0.49652 0.57962 0.8798 0.0
O87 O 0.50107 0.61491 0.79817 0.0
C88 C 0.46242 0.6781 0.91296 0.0
O89 O 0.46149 0.59616 0.98564 0.0
O90 O 0.41575 0.60554 0.94237 0.0
In91 In 0.85664 0.4574 0.39556 0.0
O92 O 0.80838 0.43459 0.40895 0.0
O93 O 0.81393 0.48163 0.44597 0.0
C94 C 0.88196 0.4252 0.28384 0.0
C95 C 0.88204 0.43322 0.51764 0.0
C96 C 0.87108 0.51268 0.33325 0.0
O97 O 0.85243 0.42811 0.29207 0.0
O98 O 0.89841 0.4372 0.33379 0.0
O99 O 0.88289 0.50408 0.39331 0.0
O100 O 0.8506 0.49429 0.30746 0.0
C101 C 0.79614 0.45803 0.4404 0.0
O102 O 0.88231 0.46239 0.50427 0.0
O103 O 0.86986 0.41647 0.46861 0.0
In104 In 0.96297 0.35473 0.89514 0.0
O105 O 0.96714 0.37986 0.00478 0.0
O106 O 0.92142 0.36682 0.96806 0.0
C107 C 0.01834 0.36995 0.83323 0.0
C108 C 0.965 0.2942 0.93741 0.0
C109 C 0.93028 0.37933 0.7835 0.0
O110 O 0.00936 0.38176 0.89306 0.0
O111 O 0.00022 0.34927 0.80736 0.0
O112 O 0.93343 0.34997 0.79225 0.0
O113 O 0.94236 0.39603 0.83288 0.0
C114 C 0.93783 0.37901 0.01771 0.0
O115 O 0.94116 0.30611 0.9068 0.0
O116 O -0.01176 0.31244 0.94397 0.0
In117 In 0.11029 0.9551 0.39119 0.0
O118 O 0.15949 0.93392 0.40297 0.0
O119 O 0.1525 0.98119 0.43727 0.0
C120 C 0.08549 0.92221 0.2804 0.0
C121 C 0.08638 0.93039 0.51452 0.0
C122 C 0.09417 0.01024 0.3304 0.0
O123 O 0.11496 0.92556 0.28817 0.0
O124 O 0.06884 0.93421 0.33027 0.0
O125 O 0.08302 0.00134 0.39098 0.0
O126 O 0.11452 -0.00794 0.30281 0.0
C127 C 0.17117 0.95819 0.43164 0.0
O128 O 0.08502 0.9595 0.5008 0.0
O129 O 0.09901 0.91392 0.46537 0.0
In130 In 0.50314 0.10656 0.90019 0.0
O131 O 0.52422 0.15543 0.91201 0.0
O132 O 0.47782 0.1479 0.953 0.0
C133 C 0.53615 0.08216 0.78858 0.0
C134 C 0.52844 0.08208 0.02206 0.0
C135 C 0.44786 0.09237 0.83746 0.0
O136 O 0.53317 0.11151 0.79776 0.0
O137 O 0.5237 0.06536 0.8375 0.0
O138 O 0.4566 0.07991 0.89672 0.0
O139 O 0.46618 0.11316 0.81258 0.0
C140 C 0.50067 0.16658 0.94545 0.0
O141 O 0.49925 0.08025 0.0085 0.0
O142 O 0.54467 0.09523 0.97321 0.0
In143 In 0.35446 0.51534 0.37285 0.0
O144 O 0.39338 0.52204 0.4578 0.0
O145 O 0.35093 0.54847 0.4695 0.0
C146 C 0.37136 0.45905 0.31846 0.0
C147 C 0.29434 0.50857 0.41565 0.0
C148 C 0.37599 0.5514 0.26275 0.0
O149 O 0.37868 0.46739 0.38233 0.0
O150 O 0.35435 0.47841 0.28424 0.0
O151 O 0.34729 0.54364 0.26782 0.0
O152 O 0.39299 0.54258 0.31512 0.0
C153 C 0.37788 0.54204 0.49412 0.0
O154 O 0.30396 0.53281 0.38243 0.0
O155 O 0.31475 0.48719 0.42441 0.0
In156 In 0.96138 0.10958 0.10439 0.0
O157 O 0.96592 0.08529 0.9939 0.0
O158 O 0.92001 0.09775 0.03129 0.0
C159 C 0.01644 0.09212 0.16419 0.0
C160 C 0.96406 0.17037 0.06415 0.0
C161 C 0.92834 0.08521 0.21594 0.0
O162 O 0.00717 0.08143 0.10364 0.0
O163 O -0.0012 0.11289 0.19196 0.0
O164 O 0.93225 0.11452 0.20831 0.0
O165 O 0.93981 0.06853 0.16555 0.0
C166 C 0.93662 0.08596 0.9812 0.0
O167 O 0.93968 0.15833 0.09209 0.0
O168 O -0.01253 0.15212 0.05937 0.0
In169 In 0.3565 0.96083 0.59727 0.0
O170 O 0.38179 0.96625 0.48787 0.0
O171 O 0.36979 0.92016 0.52359 0.0
C172 C 0.37004 0.01603 0.66038 0.0
C173 C 0.29573 0.96127 0.5556 0.0
C174 C 0.38249 0.92893 0.70834 0.0
O175 O 0.38213 0.00785 0.60019 0.0
O176 O 0.34976 -0.00274 0.68578 0.0
O177 O 0.35292 0.93092 0.69993 0.0
O178 O 0.39873 0.94163 0.65873 0.0
C179 C 0.38175 0.93709 0.47439 0.0
O180 O 0.30836 0.93771 0.58569 0.0
O181 O 0.31338 -0.01504 0.54919 0.0
In182 In 0.50571 0.34953 0.11883 0.0
O183 O 0.52712 0.30077 0.10527 0.0
O184 O 0.47864 0.30661 0.07908 0.0
C185 C 0.53877 0.37226 0.23158 0.0
C186 C 0.53187 0.37161 0.99528 0.0
C187 C 0.45073 0.37121 0.17207 0.0
O188 O 0.53289 0.34324 0.22488 0.0
O189 O 0.52908 0.38935 0.18 0.0
O190 O 0.46173 0.38015 0.11143 0.0
O191 O 0.46663 0.35011 0.2037 0.0
C192 C 0.50225 0.28854 0.08076 0.0
O193 O 0.50237 0.37121 0.00536 0.0
O194 O 0.54802 0.36177 0.04821 0.0
In195 In 0.11166 0.50277 0.59733 0.0
O196 O 0.15952 0.5262 0.58304 0.0
O197 O 0.15499 0.47863 0.54907 0.0
C198 C 0.08631 0.53491 0.70916 0.0
C199 C 0.08629 0.52678 0.47496 0.0
C200 C 0.09716 0.44748 0.65941 0.0
O201 O 0.11584 0.53202 0.70091 0.0
O202 O 0.06987 0.52289 0.65922 0.0
O203 O 0.0854 0.45609 0.59929 0.0
O204 O 0.11761 0.46586 0.68533 0.0
C205 C 0.17229 0.50263 0.55335 0.0
O206 O 0.08651 0.49756 0.4879 0.0
O207 O 0.09795 0.5436 0.52452 0.0
C208 C 0.0316 0.71358 0.01104 0.0
C209 C 0.00297 0.69824 0.02564 0.0
H210 H 0.05412 0.75462 0.96792 0.0
C211 C 0.9744 0.71316 0.00773 0.0
H212 H 0.05396 0.70244 0.02371 0.0
C213 C 0.97448 0.74314 0.97656 0.0
C214 C 0.00314 0.75835 0.96134 0.0
H215 H 0.95201 0.70174 0.01824 0.0
H216 H 0.95214 0.75437 0.96407 0.0
C217 C 0.0317 0.74326 0.97848 0.0
C218 C 0.71844 0.97513 0.48855 0.0
C219 C 0.70328 0.00358 0.47135 0.0
H220 H 0.75989 0.95298 0.53153 0.0
C221 C 0.71848 0.03215 0.48645 0.0
H222 H 0.70714 0.95279 0.47764 0.0
C223 C 0.74826 0.03226 0.51884 0.0
C224 C 0.76357 0.0038 0.53531 0.0
H225 H 0.70714 0.05441 0.4743 0.0
H226 H 0.75953 0.05461 0.52984 0.0
C227 C 0.7485 0.97524 0.51957 0.0
C228 C 0.49306 0.75323 0.99613 0.0
C229 C 0.46485 0.76805 0.01733 0.0
H230 H 0.51439 0.71281 0.94642 0.0
C231 C 0.43588 0.75354 0.00208 0.0
H232 H 0.51569 0.76407 0.00697 0.0
C233 C 0.43511 0.72473 0.9658 0.0
C234 C 0.46332 0.70968 0.94551 0.0
H235 H 0.41378 0.76467 0.01715 0.0
H236 H 0.41246 0.71394 0.955 0.0
C237 C 0.49231 0.72407 0.96122 0.0
C238 C 0.72097 0.42688 0.5242 0.0
C239 C 0.70563 0.45479 0.54498 0.0
H240 H 0.7614 0.40612 0.47294 0.0
C241 C 0.72001 0.48383 0.53006 0.0
H242 H 0.71023 0.40419 0.5344 0.0
C243 C 0.74938 0.48493 0.49543 0.0
C244 C 0.76453 0.45703 0.47385 0.0
H245 H 0.70857 0.5057 0.54523 0.0
H246 H 0.76015 0.5076 0.48522 0.0
C247 C 0.75004 0.428 0.48833 0.0
C248 C -0.00661 0.24727 0.98654 0.0
C249 C 0.9649 0.26225 0.96827 0.0
H250 H 0.01543 0.20613 0.0311 0.0
C251 C 0.93618 0.24711 0.98314 0.0
H252 H 0.01584 0.25854 0.97585 0.0
C253 C 0.93593 0.21756 0.01632 0.0
C254 C 0.96441 0.20241 0.03382 0.0
H255 H 0.91388 0.25831 0.9702 0.0
H256 H 0.91345 0.20635 0.02706 0.0
C257 C -0.00685 0.21741 0.01835 0.0
C258 C 0.24902 0.93164 0.51035 0.0
C259 C 0.2636 0.96053 0.52543 0.0
H260 H 0.20847 0.9083 0.46692 0.0
C261 C 0.24787 -0.01135 0.50811 0.0
H262 H 0.26082 0.90962 0.52259 0.0
C263 C 0.21783 -0.01211 0.47703 0.0
C264 C 0.20338 0.959 0.46134 0.0
H265 H 0.25869 0.01122 0.519 0.0
H266 H 0.20599 0.0099 0.46498 0.0
C267 C 0.21926 0.93088 0.47789 0.0
C268 C 0.52959 0.2133 0.99201 0.0
C269 C 0.50084 0.19803 0.97877 0.0
H270 H 0.55255 0.25366 0.0367 0.0
C271 C 0.47251 0.21227 0.0013 0.0
H272 H 0.55179 0.20264 0.97588 0.0
C273 C 0.47292 0.2416 0.03551 0.0
C274 C 0.50171 0.25677 0.04912 0.0
H275 H 0.45004 0.20084 0.99201 0.0
H276 H 0.45075 0.25239 0.05133 0.0
C277 C 0.53004 0.24229 0.02753 0.0
C278 C 0.24988 0.47761 0.46907 0.0
C279 C 0.26269 0.50676 0.4486 0.0
H280 H 0.21085 0.45344 0.51811 0.0
C281 C 0.24587 0.53446 0.46409 0.0
H282 H 0.2625 0.45593 0.45802 0.0
C283 C 0.21688 0.53309 0.50017 0.0
C284 C 0.20389 0.50396 0.51997 0.0
H285 H 0.25541 0.55726 0.4496 0.0
H286 H 0.20438 0.55483 0.51141 0.0
C287 C 0.22049 0.4762 0.50368 0.0
C288 C 0.02546 0.55823 0.85036 0.0
C289 C 0.04456 0.56997 0.90641 0.0
H290 H 0.02372 0.53829 0.74348 0.0
C291 C 0.07743 0.57127 0.89593 0.0
H292 H 6e-05 0.5571 0.85677 0.0
C293 C 0.09098 0.5606 0.83105 0.0
C294 C 0.07192 0.54853 0.77531 0.0
H295 H 0.09275 0.58034 0.93808 0.0
H296 H 0.11641 0.56144 0.82498 0.0
C297 C 0.03901 0.54765 0.78537 0.0
C298 C 0.91441 0.03839 0.29172 0.0
C299 C 0.9143 0.0712 0.282 0.0
H300 H 0.90415 -0.00021 0.36296 0.0
C301 C 0.90269 0.09048 0.33803 0.0
H302 H 0.92339 0.02294 0.24959 0.0
C303 C 0.89176 0.07722 0.40294 0.0
C304 C 0.89236 0.04444 0.41314 0.0
H305 H 0.90246 0.11584 0.33219 0.0
H306 H 0.88309 0.09269 0.44538 0.0
C307 C 0.90359 0.02513 0.35676 0.0
C308 C 0.39164 0.89299 0.89536 0.0
C309 C 0.4244 0.89529 0.90627 0.0
H310 H 0.35272 0.90153 0.82379 0.0
C311 C 0.44341 0.90755 0.85041 0.0
H312 H 0.3764 0.88347 0.93734 0.0
C313 C 0.42984 0.91765 0.78512 0.0
C314 C 0.39703 0.91572 0.77462 0.0
H315 H 0.46873 0.90942 0.85717 0.0
H316 H 0.44502 0.92744 0.74336 0.0
C317 C 0.37808 0.90315 0.8302 0.0
C318 C 0.56412 0.36604 0.35357 0.0
C319 C 0.55327 0.3857 0.29745 0.0
H320 H 0.58384 0.36326 0.46059 0.0
C321 C 0.55458 0.41849 0.30661 0.0
H322 H 0.56328 0.34069 0.34806 0.0
C323 C 0.56602 0.4314 0.37121 0.0
C324 C 0.57655 0.41176 0.42765 0.0
H325 H 0.54623 0.43423 0.26438 0.0
H326 H 0.56652 0.45676 0.377 0.0
C327 C 0.57576 0.37897 0.41802 0.0
C328 C 0.09065 0.89646 0.15864 0.0
C329 C 0.07136 0.90817 0.21468 0.0
H330 H 0.09279 0.87688 0.05147 0.0
C331 C 0.03843 0.90838 0.20523 0.0
H332 H 0.1161 0.89614 0.16428 0.0
C333 C 0.02507 0.89757 0.14043 0.0
C334 C 0.0444 0.8863 0.08399 0.0
H335 H 0.02296 0.91742 0.24738 0.0
H336 H -0.00036 0.89824 0.13441 0.0
C337 C 0.0773 0.88559 0.09395 0.0
C338 C 0.56299 0.08791 0.668 0.0
C339 C 0.55044 0.06841 0.72249 0.0
H340 H 0.58376 0.09066 0.5619 0.0
C341 C 0.54979 0.0357 0.71119 0.0
H342 H 0.56367 0.1132 0.67505 0.0
C343 C 0.56106 0.02279 0.64617 0.0
C344 C 0.57327 0.04235 0.59134 0.0
H345 H 0.54008 0.02009 0.75211 0.0
H346 H 0.56009 -0.00247 0.63874 0.0
C347 C 0.57434 0.075 0.6031 0.0
C348 C 0.42265 0.56905 0.19065 0.0
C349 C 0.38973 0.56571 0.19667 0.0
H350 H 0.46179 0.58085 0.12209 0.0
C351 C 0.37067 0.57329 0.13668 0.0
H352 H 0.43798 0.56325 0.23585 0.0
C353 C 0.38437 0.58339 0.07138 0.0
C354 C 0.41736 0.58583 0.06484 0.0
H355 H 0.34526 0.57078 0.13966 0.0
H356 H 0.36915 0.58877 0.02569 0.0
C357 C 0.43632 0.57891 0.12533 0.0
C358 C 0.90425 0.37382 0.66225 0.0
C359 C 0.91626 0.39322 0.71736 0.0
H360 H 0.88414 0.37131 0.55567 0.0
C361 C 0.91669 0.42598 0.70664 0.0
H362 H 0.90376 0.3485 0.66885 0.0
C363 C 0.90569 0.43904 0.6416 0.0
C364 C 0.89399 0.4196 0.58619 0.0
H365 H 0.92599 0.44151 0.74805 0.0
H366 H 0.90644 0.46434 0.63466 0.0
C367 C 0.89318 0.38689 0.59732 0.0
C368 C 0.89081 0.38913 0.09678 0.0
C369 C 0.92368 0.39039 0.08636 0.0
H370 H 0.85183 0.39889 0.16778 0.0
C371 C 0.94279 0.40201 0.14253 0.0
H372 H 0.87549 0.38015 0.05453 0.0
C373 C 0.92925 0.41249 0.20761 0.0
C374 C 0.89633 0.41164 0.21762 0.0
H375 H 0.9682 0.4031 0.13616 0.0
H376 H 0.94454 0.42175 0.24959 0.0
C377 C 0.87726 0.3997 0.16174 0.0
C378 C 0.06491 0.87058 0.65889 0.0
C379 C 0.05286 0.88985 0.71445 0.0
H380 H 0.08491 0.86836 0.55192 0.0
C381 C 0.05233 0.92263 0.70426 0.0
H382 H 0.06548 0.84524 0.66511 0.0
C383 C 0.06318 0.93586 0.63922 0.0
C384 C 0.07486 0.91656 0.58331 0.0
H385 H 0.043 0.93807 0.74602 0.0
H386 H 0.06227 0.96118 0.63264 0.0
C387 C 0.07589 0.88382 0.59399 0.0
C388 C 0.53715 0.04832 0.21169 0.0
C389 C 0.56993 0.05049 0.2225 0.0
H390 H 0.49831 0.05633 0.1394 0.0
C391 C 0.58885 0.06332 0.1672 0.0
H392 H 0.52198 0.03832 0.25322 0.0
C393 C 0.5753 0.0735 0.10202 0.0
C394 C 0.54259 0.07093 0.09079 0.0
H395 H 0.61419 0.06513 0.17384 0.0
H396 H 0.59052 0.08321 0.06024 0.0
C397 C 0.52361 0.05841 0.14638 0.0
C398 C 0.3702 0.56178 0.62036 0.0
C399 C 0.39013 0.55706 0.56014 0.0
H400 H 0.36638 0.57852 0.73035 0.0
C401 C 0.4215 0.5674 0.56297 0.0
H402 H 0.34588 0.55393 0.61905 0.0
C403 C 0.43272 0.58262 0.6251 0.0
C404 C 0.41302 0.58661 0.68599 0.0
H405 H 0.43714 0.56413 0.51682 0.0
H406 H 0.45707 0.59038 0.6265 0.0
C407 C 0.38179 0.57586 0.68358 0.0
C408 C 0.92869 0.0523 0.79154 0.0
C409 C 0.89577 0.05267 0.78193 0.0
H410 H 0.96745 0.06233 0.86248 0.0
C411 C 0.87648 0.06454 0.83779 0.0
H412 H 0.94415 0.04313 0.74952 0.0
C413 C 0.88982 0.07543 0.90247 0.0
C414 C 0.9227 0.07456 0.91258 0.0
H415 H 0.85103 0.06499 0.83201 0.0
H416 H 0.87433 0.08428 0.9448 0.0
C417 C 0.94203 0.06311 0.85633 0.0
C418 C 0.39318 0.89093 0.39448 0.0
C419 C 0.39385 0.92363 0.40574 0.0
H420 H 0.40413 0.85269 0.32291 0.0
C421 C 0.40565 0.9432 0.35048 0.0
H422 H 0.38408 0.87526 0.43602 0.0
C423 C 0.41693 0.93026 0.28548 0.0
C424 C 0.41665 0.89752 0.27466 0.0
H425 H 0.40631 0.96849 0.35753 0.0
H426 H 0.42631 0.94589 0.24419 0.0
C427 C 0.40451 0.878 0.3296 0.0
C428 C 0.57951 0.38287 0.91911 0.0
C429 C 0.54648 0.38201 0.92641 0.0
H430 H 0.6189 0.39409 0.85055 0.0
C431 C 0.52758 0.3908 0.86709 0.0
H432 H 0.59467 0.37604 0.96388 0.0
C433 C 0.54145 0.40083 0.8021 0.0
C434 C 0.57448 0.40236 0.79529 0.0
H435 H 0.50207 0.39016 0.87101 0.0
H436 H 0.52625 0.40803 0.75772 0.0
C437 C 0.59339 0.39301 0.85415 0.0
C438 C 0.06292 0.521 0.35063 0.0
C439 C 0.07434 0.54042 0.4064 0.0
H440 H 0.04279 0.5186 0.24396 0.0
C441 C 0.07487 0.57317 0.39566 0.0
H442 H 0.06239 0.49568 0.35726 0.0
C443 C 0.0638 0.58628 0.3308 0.0
C444 C 0.05204 0.56691 0.27534 0.0
H445 H 0.08369 0.58873 0.43757 0.0
H446 H 0.06407 0.61163 0.32453 0.0
C447 C 0.05189 0.53413 0.28565 0.0
C448 C 0.88253 0.53741 0.21316 0.0
C449 C 0.88492 0.53828 0.28949 0.0
H450 H 0.90162 0.55333 0.11147 0.0
C451 C 0.90489 0.56044 0.32201 0.0
H452 H 0.86735 0.52048 0.1866 0.0
C453 C 0.92402 0.57968 0.2789 0.0
C454 C 0.92398 0.5765 0.2027 0.0
H455 H 0.9071 0.56161 0.3807 0.0
H456 H 0.94062 0.5952 0.30557 0.0
C457 C 0.90219 0.55613 0.17007 0.0
C458 C 0.90644 0.90252 0.67263 0.0
C459 C 0.88679 0.92452 0.70728 0.0
H460 H 0.94155 0.86672 0.68568 0.0
C461 C 0.88444 0.92423 0.78366 0.0
H462 H 0.90859 0.90221 0.61385 0.0
C463 C 0.90374 0.90438 0.82487 0.0
C464 C 0.92514 0.88404 0.79026 0.0
H465 H 0.86949 0.941 0.81183 0.0
H466 H 0.90318 0.90621 0.88369 0.0
C467 C 0.92522 0.88217 0.71383 0.0
C468 C 0.5444 0.88305 0.27899 0.0
C469 C 0.54488 0.88668 0.20288 0.0
H470 H 0.56063 0.90064 0.38159 0.0
C471 C 0.56687 0.90719 0.17122 0.0
H472 H 0.52763 0.8674 0.30488 0.0
C473 C 0.58622 0.92571 0.21519 0.0
C474 C 0.5833 0.9245 0.29142 0.0
H475 H 0.56778 0.91032 0.11271 0.0
H476 H 0.60153 0.94281 0.18934 0.0
C477 C 0.56322 0.9021 0.32299 0.0
C478 C 0.57447 0.52832 0.79356 0.0
C479 C 0.57775 0.5299 0.71746 0.0
H480 H 0.55049 0.54612 0.88796 0.0
C481 C 0.56227 0.55388 0.67899 0.0
H482 H 0.586 0.50986 0.82442 0.0
C483 C 0.5426 0.57504 0.7156 0.0
C484 C 0.53744 0.57195 0.7909 0.0
H485 H 0.56441 0.55551 0.62031 0.0
H486 H 0.52986 0.5925 0.68418 0.0
C487 C 0.55411 0.54893 0.8299 0.0
C488 C 0.08576 0.42266 0.77943 0.0
C489 C 0.08329 0.42188 0.70311 0.0
H490 H 0.06675 0.4067 0.88116 0.0
C491 C 0.06322 0.39979 0.6706 0.0
H492 H 0.10101 0.43953 0.80599 0.0
C493 C 0.0441 0.38055 0.71374 0.0
C494 C 0.04424 0.38366 0.78996 0.0
H495 H 0.06095 0.39867 0.61192 0.0
H496 H 0.02743 0.36509 0.68712 0.0
C497 C 0.06611 0.40395 0.82255 0.0
C498 C 0.06337 0.05667 0.17129 0.0
C499 C 0.04201 0.07704 0.20591 0.0
H500 H 0.09755 0.01999 0.1843 0.0
C501 C 0.04194 0.07892 0.28234 0.0
H502 H 0.06393 0.05485 0.11247 0.0
C503 C 0.06067 0.05853 0.32352 0.0
C504 C 0.08026 0.03648 0.28885 0.0
H505 H 0.02564 0.0944 0.31049 0.0
H506 H 0.05853 0.05884 0.38231 0.0
C507 C 0.08263 0.03678 0.21248 0.0
C508 C 0.38053 0.04033 0.78111 0.0
C509 C 0.38347 0.04152 0.70487 0.0
H510 H 0.39901 0.05566 0.8836 0.0
C511 C 0.40367 0.06382 0.67331 0.0
H512 H 0.36514 0.02331 0.80694 0.0
C513 C 0.42256 0.08279 0.71732 0.0
C514 C 0.42204 0.07919 0.79343 0.0
H515 H 0.40628 0.06526 0.61472 0.0
H516 H 0.4394 0.09837 0.69143 0.0
C517 C 0.39995 0.05877 0.82508 0.0
C518 C 0.40529 0.40857 0.1693 0.0
C519 C 0.42492 0.38824 0.20896 0.0
H520 H 0.3721 0.44648 0.17339 0.0
C521 C 0.42293 0.38801 0.28539 0.0
H522 H 0.4063 0.40912 0.11037 0.0
C523 C 0.40378 0.40981 0.32165 0.0
C524 C 0.38592 0.43172 0.28194 0.0
H525 H 0.43789 0.3726 0.31734 0.0
H526 H 0.40428 0.41061 0.38059 0.0
C527 C 0.3857 0.42992 0.20549 0.0
loop_
_geom_bond_atom_site_label_1
_geom_bond_atom_site_label_2
_geom_bond_distance
_geom_bond_site_symmetry_2
_ccdc_geom_bond_type
In0 O1 2.294 . S
In0 O2 2.326 . S
In0 O6 2.266 1_455 S
In0 O7 2.326 1_455 S
In0 O8 2.266 . S
In0 O9 2.326 . S
In0 O11 2.294 . S
In0 O12 2.325 . S
O1 In0 2.294 . S
O1 C10 1.242 . S
O2 In0 2.326 . S
O2 C10 1.258 . S
C3 O6 1.252 . S
C3 O7 1.260 . S
C4 O11 1.240 . S
C4 O12 1.251 . S
C5 O8 1.252 . S
C5 O9 1.260 . S
O6 In0 2.266 1_655 S
O6 C3 1.252 . S
O7 In0 2.326 1_655 S
O7 C3 1.260 . S
O8 In0 2.266 . S
O8 C5 1.252 . S
O9 In0 2.326 . S
O9 C5 1.260 . S
C10 O1 1.242 . S
C10 O2 1.258 . S
O11 In0 2.294 . S
O11 C4 1.240 . S
O12 In0 2.325 . S
O12 C4 1.251 . S
In13 O14 2.294 . S
In13 O15 2.325 . S
In13 O19 2.266 . S
In13 O20 2.326 . S
In13 O21 2.266 1_545 S
In13 O22 2.326 1_545 S
In13 O24 2.294 . S
In13 O25 2.326 . S
O14 In13 2.294 . S
O14 C23 1.240 . S
O15 In13 2.325 . S
O15 C23 1.251 . S
C16 O19 1.252 . S
C16 O20 1.260 . S
C17 O24 1.240 . S
C17 O25 1.252 . S
C18 O21 1.252 . S
C18 O22 1.260 . S
O19 In13 2.266 . S
O19 C16 1.252 . S
O20 In13 2.326 . S
O20 C16 1.260 . S
O21 In13 2.266 1_565 S
O21 C18 1.252 . S
O22 In13 2.326 1_565 S
O22 C18 1.260 . S
C23 O14 1.240 . S
C23 O15 1.251 . S
O24 In13 2.294 . S
O24 C17 1.240 . S
O25 In13 2.326 . S
O25 C17 1.252 . S
In26 O27 2.294 . S
In26 O28 2.326 . S
In26 O32 2.266 . S
In26 O33 2.326 . S
In26 O34 2.266 . S
In26 O35 2.326 . S
In26 O37 2.294 . S
In26 O38 2.326 . S
O27 In26 2.294 . S
O27 C36 1.240 . S
O28 In26 2.326 . S
O28 C36 1.252 . S
C29 O32 1.252 . S
C29 O33 1.260 . S
C30 O37 1.242 . S
C30 O38 1.258 . S
C31 O34 1.252 . S
C31 O35 1.260 . S
O32 In26 2.266 . S
O32 C29 1.252 . S
O33 In26 2.326 . S
O33 C29 1.260 . S
O34 In26 2.266 . S
O34 C31 1.252 . S
O35 In26 2.326 . S
O35 C31 1.260 . S
C36 O27 1.240 . S
C36 O28 1.252 . S
O37 In26 2.294 . S
O37 C30 1.242 . S
O38 In26 2.326 . S
O38 C30 1.258 . S
In39 O40 2.294 . S
In39 O41 2.326 . S
In39 O45 2.266 . S
In39 O46 2.326 . S
In39 O47 2.266 . S
In39 O48 2.326 . S
In39 O50 2.294 . S
In39 O51 2.326 . S
O40 In39 2.294 . S
O40 C49 1.240 . S
O41 In39 2.326 . S
O41 C49 1.252 . S
C42 O45 1.252 . S
C42 O46 1.260 . S
C43 O50 1.240 . S
C43 O51 1.252 . S
C44 O47 1.252 . S
C44 O48 1.260 . S
O45 In39 2.266 . S
O45 C42 1.252 . S
O46 In39 2.326 . S
O46 C42 1.260 . S
O47 In39 2.266 . S
O47 C44 1.252 . S
O48 In39 2.326 . S
O48 C44 1.260 . S
C49 O40 1.240 . S
C49 O41 1.252 . S
O50 In39 2.294 . S
O50 C43 1.240 . S
O51 In39 2.326 . S
O51 C43 1.252 . S
In52 O53 2.294 . S
In52 O54 2.326 . S
In52 O58 2.266 1_455 S
In52 O59 2.326 1_455 S
In52 O60 2.266 . S
In52 O61 2.326 . S
In52 O63 2.294 . S
In52 O64 2.325 . S
O53 In52 2.294 . S
O53 C62 1.242 . S
O54 In52 2.326 . S
O54 C62 1.258 . S
C55 O58 1.252 . S
C55 O59 1.260 . S
C56 O63 1.240 . S
C56 O64 1.251 . S
C57 O60 1.252 . S
C57 O61 1.260 . S
O58 In52 2.266 1_655 S
O58 C55 1.252 . S
O59 In52 2.326 1_655 S
O59 C55 1.260 . S
O60 In52 2.266 . S
O60 C57 1.252 . S
O61 In52 2.326 . S
O61 C57 1.260 . S
C62 O53 1.242 . S
C62 O54 1.258 . S
O63 In52 2.294 . S
O63 C56 1.240 . S
O64 In52 2.325 . S
O64 C56 1.251 . S
In65 O66 2.294 . S
In65 O67 2.326 . S
In65 O71 2.266 1_545 S
In65 O72 2.326 1_545 S
In65 O73 2.266 . S
In65 O74 2.326 . S
In65 O76 2.294 . S
In65 O77 2.325 . S
O66 In65 2.294 . S
O66 C75 1.240 . S
O67 In65 2.326 . S
O67 C75 1.252 . S
C68 O71 1.252 . S
C68 O72 1.260 . S
C69 O76 1.240 . S
C69 O77 1.251 . S
C70 O73 1.252 . S
C70 O74 1.260 . S
O71 In65 2.266 1_565 S
O71 C68 1.252 . S
O72 In65 2.326 1_565 S
O72 C68 1.260 . S
O73 In65 2.266 . S
O73 C70 1.252 . S
O74 In65 2.326 . S
O74 C70 1.260 . S
C75 O66 1.240 . S
C75 O67 1.252 . S
O76 In65 2.294 . S
O76 C69 1.240 . S
O77 In65 2.325 . S
O77 C69 1.251 . S
In78 O79 2.294 . S
In78 O80 2.326 . S
In78 O84 2.266 . S
In78 O85 2.326 . S
In78 O86 2.266 . S
In78 O87 2.326 . S
In78 O89 2.294 . S
In78 O90 2.326 . S
O79 In78 2.294 . S
O79 C88 1.240 . S
O80 In78 2.326 . S
O80 C88 1.252 . S
C81 O84 1.252 . S
C81 O85 1.260 . S
C82 O89 1.242 . S
C82 O90 1.258 . S
C83 O86 1.252 . S
C83 O87 1.260 . S
O84 In78 2.266 . S
O84 C81 1.252 . S
O85 In78 2.326 . S
O85 C81 1.260 . S
O86 In78 2.266 . S
O86 C83 1.252 . S
O87 In78 2.326 . S
O87 C83 1.260 . S
C88 O79 1.240 . S
C88 O80 1.252 . S
O89 In78 2.294 . S
O89 C82 1.242 . S
O90 In78 2.326 . S
O90 C82 1.258 . S
In91 O92 2.294 . S
In91 O93 2.326 . S
In91 O97 2.266 . S
In91 O98 2.326 . S
In91 O99 2.266 . S
In91 O100 2.326 . S
In91 O102 2.294 . S
In91 O103 2.326 . S
O92 In91 2.294 . S
O92 C101 1.240 . S
O93 In91 2.326 . S
O93 C101 1.252 . S
C94 O97 1.252 . S
C94 O98 1.260 . S
C95 O102 1.240 . S
C95 O103 1.252 . S
C96 O99 1.252 . S
C96 O100 1.260 . S
O97 In91 2.266 . S
O97 C94 1.252 . S
O98 In91 2.326 . S
O98 C94 1.260 . S
O99 In91 2.266 . S
O99 C96 1.252 . S
O100 In91 2.326 . S
O100 C96 1.260 . S
C101 O92 1.240 . S
C101 O93 1.252 . S
O102 In91 2.294 . S
O102 C95 1.240 . S
O103 In91 2.326 . S
O103 C95 1.252 . S
In104 O105 2.294 . S
In104 O106 2.326 . S
In104 O110 2.266 1_655 S
In104 O111 2.326 1_655 S
In104 O112 2.266 . S
In104 O113 2.326 . S
In104 O115 2.294 . S
In104 O116 2.325 . S
O105 In104 2.294 . S
O105 C114 1.242 . S
O106 In104 2.326 . S
O106 C114 1.258 . S
C107 O110 1.252 . S
C107 O111 1.260 . S
C108 O115 1.240 . S
C108 O116 1.251 . S
C109 O112 1.252 . S
C109 O113 1.260 . S
O110 In104 2.266 1_455 S
O110 C107 1.252 . S
O111 In104 2.326 1_455 S
O111 C107 1.260 . S
O112 In104 2.266 . S
O112 C109 1.252 . S
O113 In104 2.326 . S
O113 C109 1.260 . S
C114 O105 1.242 . S
C114 O106 1.258 . S
O115 In104 2.294 . S
O115 C108 1.240 . S
O116 In104 2.325 . S
O116 C108 1.251 . S
In117 O118 2.294 . S
In117 O119 2.325 . S
In117 O123 2.266 . S
In117 O124 2.326 . S
In117 O125 2.266 1_565 S
In117 O126 2.326 1_565 S
In117 O128 2.294 . S
In117 O129 2.326 . S
O118 In117 2.294 . S
O118 C127 1.240 . S
O119 In117 2.325 . S
O119 C127 1.251 . S
C120 O123 1.252 . S
C120 O124 1.260 . S
C121 O128 1.240 . S
C121 O129 1.252 . S
C122 O125 1.252 . S
C122 O126 1.260 . S
O123 In117 2.266 . S
O123 C120 1.252 . S
O124 In117 2.326 . S
O124 C120 1.260 . S
O125 In117 2.266 1_545 S
O125 C122 1.252 . S
O126 In117 2.326 1_545 S
O126 C122 1.260 . S
C127 O118 1.240 . S
C127 O119 1.251 . S
O128 In117 2.294 . S
O128 C121 1.240 . S
O129 In117 2.326 . S
O129 C121 1.252 . S
In130 O131 2.294 . S
In130 O132 2.326 . S
In130 O136 2.266 . S
In130 O137 2.326 . S
In130 O138 2.266 . S
In130 O139 2.326 . S
In130 O141 2.294 . S
In130 O142 2.326 . S
O131 In130 2.294 . S
O131 C140 1.240 . S
O132 In130 2.326 . S
O132 C140 1.252 . S
C133 O136 1.252 . S
C133 O137 1.260 . S
C134 O141 1.242 . S
C134 O142 1.258 . S
C135 O138 1.252 . S
C135 O139 1.260 . S
O136 In130 2.266 . S
O136 C133 1.252 . S
O137 In130 2.326 . S
O137 C133 1.260 . S
O138 In130 2.266 . S
O138 C135 1.252 . S
O139 In130 2.326 . S
O139 C135 1.260 . S
C140 O131 1.240 . S
C140 O132 1.252 . S
O141 In130 2.294 . S
O141 C134 1.242 . S
O142 In130 2.326 . S
O142 C134 1.258 . S
In143 O144 2.294 . S
In143 O145 2.326 . S
In143 O149 2.266 . S
In143 O150 2.326 . S
In143 O151 2.266 . S
In143 O152 2.326 . S
In143 O154 2.294 . S
In143 O155 2.326 . S
O144 In143 2.294 . S
O144 C153 1.240 . S
O145 In143 2.326 . S
O145 C153 1.252 . S
C146 O149 1.252 . S
C146 O150 1.260 . S
C147 O154 1.240 . S
C147 O155 1.252 . S
C148 O151 1.252 . S
C148 O152 1.260 . S
O149 In143 2.266 . S
O149 C146 1.252 . S
O150 In143 2.326 . S
O150 C146 1.260 . S
O151 In143 2.266 . S
O151 C148 1.252 . S
O152 In143 2.326 . S
O152 C148 1.260 . S
C153 O144 1.240 . S
C153 O145 1.252 . S
O154 In143 2.294 . S
O154 C147 1.240 . S
O155 In143 2.326 . S
O155 C147 1.252 . S
In156 O157 2.294 . S
In156 O158 2.326 . S
In156 O162 2.266 1_655 S
In156 O163 2.326 1_655 S
In156 O164 2.266 . S
In156 O165 2.326 . S
In156 O167 2.294 . S
In156 O168 2.325 . S
O157 In156 2.294 . S
O157 C166 1.242 . S
O158 In156 2.326 . S
O158 C166 1.258 . S
C159 O162 1.252 . S
C159 O163 1.260 . S
C160 O167 1.240 . S
C160 O168 1.251 . S
C161 O164 1.252 . S
C161 O165 1.260 . S
O162 In156 2.266 1_455 S
O162 C159 1.252 . S
O163 In156 2.326 1_455 S
O163 C159 1.260 . S
O164 In156 2.266 . S
O164 C161 1.252 . S
O165 In156 2.326 . S
O165 C161 1.260 . S
C166 O157 1.242 . S
C166 O158 1.258 . S
O167 In156 2.294 . S
O167 C160 1.240 . S
O168 In156 2.325 . S
O168 C160 1.251 . S
In169 O170 2.294 . S
In169 O171 2.326 . S
In169 O175 2.266 1_565 S
In169 O176 2.326 1_565 S
In169 O177 2.266 . S
In169 O178 2.326 . S
In169 O180 2.294 . S
In169 O181 2.325 . S
O170 In169 2.294 . S
O170 C179 1.240 . S
O171 In169 2.326 . S
O171 C179 1.252 . S
C172 O175 1.252 . S
C172 O176 1.260 . S
C173 O180 1.240 . S
C173 O181 1.251 . S
C174 O177 1.252 . S
C174 O178 1.260 . S
O175 In169 2.266 1_545 S
O175 C172 1.252 . S
O176 In169 2.326 1_545 S
O176 C172 1.260 . S
O177 In169 2.266 . S
O177 C174 1.252 . S
O178 In169 2.326 . S
O178 C174 1.260 . S
C179 O170 1.240 . S
C179 O171 1.252 . S
O180 In169 2.294 . S
O180 C173 1.240 . S
O181 In169 2.325 . S
O181 C173 1.251 . S
In182 O183 2.294 . S
In182 O184 2.326 . S
In182 O188 2.266 . S
In182 O189 2.326 . S
In182 O190 2.266 . S
In182 O191 2.326 . S
In182 O193 2.294 . S
In182 O194 2.326 . S
O183 In182 2.294 . S
O183 C192 1.240 . S
O184 In182 2.326 . S
O184 C192 1.252 . S
C185 O188 1.252 . S
C185 O189 1.260 . S
C186 O193 1.242 . S
C186 O194 1.258 . S
C187 O190 1.252 . S
C187 O191 1.260 . S
O188 In182 2.266 . S
O188 C185 1.252 . S
O189 In182 2.326 . S
O189 C185 1.260 . S
O190 In182 2.266 . S
O190 C187 1.252 . S
O191 In182 2.326 . S
O191 C187 1.260 . S
C192 O183 1.240 . S
C192 O184 1.252 . S
O193 In182 2.294 . S
O193 C186 1.242 . S
O194 In182 2.326 . S
O194 C186 1.258 . S
In195 O196 2.294 . S
In195 O197 2.326 . S
In195 O201 2.266 . S
In195 O202 2.326 . S
In195 O203 2.266 . S
In195 O204 2.326 . S
In195 O206 2.294 . S
In195 O207 2.326 . S
O196 In195 2.294 . S
O196 C205 1.240 . S
O197 In195 2.326 . S
O197 C205 1.252 . S
C198 O201 1.252 . S
C198 O202 1.260 . S
C199 O206 1.240 . S
C199 O207 1.252 . S
C200 O203 1.252 . S
C200 O204 1.260 . S
O201 In195 2.266 . S
O201 C198 1.252 . S
O202 In195 2.326 . S
O202 C198 1.260 . S
O203 In195 2.266 . S
O203 C200 1.252 . S
O204 In195 2.326 . S
O204 C200 1.260 . S
C205 O196 1.240 . S
C205 O197 1.252 . S
O206 In195 2.294 . S
O206 C199 1.240 . S
O207 In195 2.326 . S
O207 C199 1.252 . S
C208 C209 1.387 . S
C208 H212 0.950 . S
C208 C217 1.390 1_554 S
C209 C208 1.387 . S
C209 C211 1.387 1_455 S
H210 C217 0.950 . S
C211 C209 1.387 1_655 S
C211 C213 1.390 1_554 S
C211 H215 0.950 . S
H212 C208 0.950 . S
C213 C211 1.390 1_556 S
C213 C214 1.387 1_655 S
C213 H216 0.950 . S
C214 C213 1.387 1_455 S
C214 C217 1.387 . S
H215 C211 0.950 . S
H216 C213 0.950 . S
C217 C208 1.390 1_556 S
C217 H210 0.950 . S
C217 C214 1.387 . S
C218 C219 1.387 1_565 S
C218 H222 0.950 . S
C218 C227 1.390 . S
C219 C218 1.387 1_545 S
C219 C221 1.387 . S
H220 C227 0.950 . S
C221 C219 1.387 . S
C221 C223 1.390 . S
C221 H225 0.950 . S
H222 C218 0.950 . S
C223 C221 1.390 . S
C223 C224 1.387 . S
C223 H226 0.950 . S
C224 C223 1.387 . S
C224 C227 1.387 1_545 S
H225 C221 0.950 . S
H226 C223 0.950 . S
C227 C218 1.390 . S
C227 H220 0.950 . S
C227 C224 1.387 1_565 S
C228 C229 1.387 . S
C228 H232 0.950 . S
C228 C237 1.390 1_554 S
C229 C228 1.387 . S
C229 C231 1.387 . S
H230 C237 0.950 . S
C231 C229 1.387 . S
C231 C233 1.390 1_554 S
C231 H235 0.950 . S
H232 C228 0.950 . S
C233 C231 1.390 1_556 S
C233 C234 1.387 . S
C233 H236 0.950 . S
C234 C233 1.387 . S
C234 C237 1.387 . S
H235 C231 0.950 . S
H236 C233 0.950 . S
C237 C228 1.390 1_556 S
C237 H230 0.950 . S
C237 C234 1.387 . S
C238 C239 1.387 . S
C238 H242 0.950 . S
C238 C247 1.390 . S
C239 C238 1.387 . S
C239 C241 1.387 . S
H240 C247 0.950 . S
C241 C239 1.387 . S
C241 C243 1.390 . S
C241 H245 0.950 . S
H242 C238 0.950 . S
C243 C241 1.390 . S
C243 C244 1.387 . S
C243 H246 0.950 . S
C244 C243 1.387 . S
C244 C247 1.387 . S
H245 C241 0.950 . S
H246 C243 0.950 . S
C247 C238 1.390 . S
C247 H240 0.950 . S
C247 C244 1.387 . S
C248 C249 1.387 1_455 S
C248 H252 0.950 . S
C248 C257 1.390 1_556 S
C249 C248 1.387 1_655 S
C249 C251 1.387 . S
H250 C257 0.950 . S
C251 C249 1.387 . S
C251 C253 1.390 1_556 S
C251 H255 0.950 . S
H252 C248 0.950 . S
C253 C251 1.390 1_554 S
C253 C254 1.387 . S
C253 H256 0.950 . S
C254 C253 1.387 . S
C254 C257 1.387 1_655 S
H255 C251 0.950 . S
H256 C253 0.950 . S
C257 C248 1.390 1_554 S
C257 H250 0.950 . S
C257 C254 1.387 1_455 S
C258 C259 1.387 . S
C258 H262 0.950 . S
C258 C267 1.390 . S
C259 C258 1.387 . S
C259 C261 1.387 1_565 S
H260 C267 0.950 . S
C261 C259 1.387 1_545 S
C261 C263 1.390 . S
C261 H265 0.950 . S
H262 C258 0.950 . S
C263 C261 1.390 . S
C263 C264 1.387 1_545 S
C263 H266 0.950 . S
C264 C263 1.387 1_565 S
C264 C267 1.387 . S
H265 C261 0.950 . S
H266 C263 0.950 . S
C267 C258 1.390 . S
C267 H260 0.950 . S
C267 C264 1.387 . S
C268 C269 1.387 . S
C268 H272 0.950 . S
C268 C277 1.390 1_556 S
C269 C268 1.387 . S
C269 C271 1.387 . S
H270 C277 0.950 . S
C271 C269 1.387 . S
C271 C273 1.390 1_556 S
C271 H275 0.950 . S
H272 C268 0.950 . S
C273 C271 1.390 1_554 S
C273 C274 1.387 . S
C273 H276 0.950 . S
C274 C273 1.387 . S
C274 C277 1.387 . S
H275 C271 0.950 . S
H276 C273 0.950 . S
C277 C268 1.390 1_554 S
C277 H270 0.950 . S
C277 C274 1.387 . S
C278 C279 1.387 . S
C278 H282 0.950 . S
C278 C287 1.390 . S
C279 C278 1.387 . S
C279 C281 1.387 . S
H280 C287 0.950 . S
C281 C279 1.387 . S
C281 C283 1.390 . S
C281 H285 0.950 . S
H282 C278 0.950 . S
C283 C281 1.390 . S
C283 C284 1.387 . S
C283 H286 0.950 . S
C284 C283 1.387 . S
C284 C287 1.387 . S
H285 C281 0.950 . S
H286 C283 0.950 . S
C287 C278 1.390 . S
C287 H280 0.950 . S
C287 C284 1.387 . S
C288 C289 1.387 . S
C288 H292 0.950 . S
C288 C297 1.390 . S
C289 C288 1.387 . S
C289 C291 1.387 . S
H290 C297 0.950 . S
C291 C289 1.387 . S
C291 C293 1.390 . S
C291 H295 0.950 . S
H292 C288 0.950 . S
C293 C291 1.390 . S
C293 C294 1.387 . S
C293 H296 0.950 . S
C294 C293 1.387 . S
C294 C297 1.387 . S
H295 C291 0.950 . S
H296 C293 0.950 . S
C297 C288 1.390 . S
C297 H290 0.950 . S
C297 C294 1.387 . S
C298 C299 1.387 . S
C298 H302 0.950 . S
C298 C307 1.390 . S
C299 C298 1.387 . S
C299 C301 1.387 . S
H300 C307 0.950 . S
C301 C299 1.387 . S
C301 C303 1.390 . S
C301 H305 0.950 . S
H302 C298 0.950 . S
C303 C301 1.390 . S
C303 C304 1.387 . S
C303 H306 0.950 . S
C304 C303 1.387 . S
C304 C307 1.387 . S
H305 C301 0.950 . S
H306 C303 0.950 . S
C307 C298 1.390 . S
C307 H300 0.950 . S
C307 C304 1.387 . S
C308 C309 1.387 . S
C308 H312 0.950 . S
C308 C317 1.390 . S
C309 C308 1.387 . S
C309 C311 1.387 . S
H310 C317 0.950 . S
C311 C309 1.387 . S
C311 C313 1.390 . S
C311 H315 0.950 . S
H312 C308 0.950 . S
C313 C311 1.390 . S
C313 C314 1.387 . S
C313 H316 0.950 . S
C314 C313 1.387 . S
C314 C317 1.387 . S
H315 C311 0.950 . S
H316 C313 0.950 . S
C317 C308 1.390 . S
C317 H310 0.950 . S
C317 C314 1.387 . S
C318 C319 1.387 . S
C318 H322 0.950 . S
C318 C327 1.390 . S
C319 C318 1.387 . S
C319 C321 1.387 . S
H320 C327 0.950 . S
C321 C319 1.387 . S
C321 C323 1.390 . S
C321 H325 0.950 . S
H322 C318 0.950 . S
C323 C321 1.390 . S
C323 C324 1.387 . S
C323 H326 0.950 . S
C324 C323 1.387 . S
C324 C327 1.387 . S
H325 C321 0.950 . S
H326 C323 0.950 . S
C327 C318 1.390 . S
C327 H320 0.950 . S
C327 C324 1.387 . S
C328 C329 1.387 . S
C328 H332 0.950 . S
C328 C337 1.390 . S
C329 C328 1.387 . S
C329 C331 1.387 . S
H330 C337 0.950 . S
C331 C329 1.387 . S
C331 C333 1.390 . S
C331 H335 0.950 . S
H332 C328 0.950 . S
C333 C331 1.390 . S
C333 C334 1.387 . S
C333 H336 0.950 . S
C334 C333 1.387 . S
C334 C337 1.387 . S
H335 C331 0.950 . S
H336 C333 0.950 . S
C337 C328 1.390 . S
C337 H330 0.950 . S
C337 C334 1.387 . S
C338 C339 1.387 . S
C338 H342 0.950 . S
C338 C347 1.390 . S
C339 C338 1.387 . S
C339 C341 1.387 . S
H340 C347 0.950 . S
C341 C339 1.387 . S
C341 C343 1.390 . S
C341 H345 0.950 . S
H342 C338 0.950 . S
C343 C341 1.390 . S
C343 C344 1.387 . S
C343 H346 0.950 . S
C344 C343 1.387 . S
C344 C347 1.387 . S
H345 C341 0.950 . S
H346 C343 0.950 . S
C347 C338 1.390 . S
C347 H340 0.950 . S
C347 C344 1.387 . S
C348 C349 1.387 . S
C348 H352 0.950 . S
C348 C357 1.390 . S
C349 C348 1.387 . S
C349 C351 1.387 . S
H350 C357 0.950 . S
C351 C349 1.387 . S
C351 C353 1.390 . S
C351 H355 0.950 . S
H352 C348 0.950 . S
C353 C351 1.390 . S
C353 C354 1.387 . S
C353 H356 0.950 . S
C354 C353 1.387 . S
C354 C357 1.387 . S
H355 C351 0.950 . S
H356 C353 0.950 . S
C357 C348 1.390 . S
C357 H350 0.950 . S
C357 C354 1.387 . S
C358 C359 1.387 . S
C358 H362 0.950 . S
C358 C367 1.390 . S
C359 C358 1.387 . S
C359 C361 1.387 . S
H360 C367 0.950 . S
C361 C359 1.387 . S
C361 C363 1.390 . S
C361 H365 0.950 . S
H362 C358 0.950 . S
C363 C361 1.390 . S
C363 C364 1.387 . S
C363 H366 0.950 . S
C364 C363 1.387 . S
C364 C367 1.387 . S
H365 C361 0.950 . S
H366 C363 0.950 . S
C367 C358 1.390 . S
C367 H360 0.950 . S
C367 C364 1.387 . S
C368 C369 1.387 . S
C368 H372 0.950 . S
C368 C377 1.390 . S
C369 C368 1.387 . S
C369 C371 1.387 . S
H370 C377 0.950 . S
C371 C369 1.387 . S
C371 C373 1.390 . S
C371 H375 0.950 . S
H372 C368 0.950 . S
C373 C371 1.390 . S
C373 C374 1.387 . S
C373 H376 0.950 . S
C374 C373 1.387 . S
C374 C377 1.387 . S
H375 C371 0.950 . S
H376 C373 0.950 . S
C377 C368 1.390 . S
C377 H370 0.950 . S
C377 C374 1.387 . S
C378 C379 1.387 . S
C378 H382 0.950 . S
C378 C387 1.390 . S
C379 C378 1.387 . S
C379 C381 1.387 . S
H380 C387 0.950 . S
C381 C379 1.387 . S
C381 C383 1.390 . S
C381 H385 0.950 . S
H382 C378 0.950 . S
C383 C381 1.390 . S
C383 C384 1.387 . S
C383 H386 0.950 . S
C384 C383 1.387 . S
C384 C387 1.387 . S
H385 C381 0.950 . S
H386 C383 0.950 . S
C387 C378 1.390 . S
C387 H380 0.950 . S
C387 C384 1.387 . S
C388 C389 1.387 . S
C388 H392 0.950 . S
C388 C397 1.390 . S
C389 C388 1.387 . S
C389 C391 1.387 . S
H390 C397 0.950 . S
C391 C389 1.387 . S
C391 C393 1.390 . S
C391 H395 0.950 . S
H392 C388 0.950 . S
C393 C391 1.390 . S
C393 C394 1.387 . S
C393 H396 0.950 . S
C394 C393 1.387 . S
C394 C397 1.387 . S
H395 C391 0.950 . S
H396 C393 0.950 . S
C397 C388 1.390 . S
C397 H390 0.950 . S
C397 C394 1.387 . S
C398 C399 1.387 . S
C398 H402 0.950 . S
C398 C407 1.390 . S
C399 C398 1.387 . S
C399 C401 1.387 . S
H400 C407 0.950 . S
C401 C399 1.387 . S
C401 C403 1.390 . S
C401 H405 0.950 . S
H402 C398 0.950 . S
C403 C401 1.390 . S
C403 C404 1.387 . S
C403 H406 0.950 . S
C404 C403 1.387 . S
C404 C407 1.387 . S
H405 C401 0.950 . S
H406 C403 0.950 . S
C407 C398 1.390 . S
C407 H400 0.950 . S
C407 C404 1.387 . S
C408 C409 1.387 . S
C408 H412 0.950 . S
C408 C417 1.390 . S
C409 C408 1.387 . S
C409 C411 1.387 . S
H410 C417 0.950 . S
C411 C409 1.387 . S
C411 C413 1.390 . S
C411 H415 0.950 . S
H412 C408 0.950 . S
C413 C411 1.390 . S
C413 C414 1.387 . S
C413 H416 0.950 . S
C414 C413 1.387 . S
C414 C417 1.387 . S
H415 C411 0.950 . S
H416 C413 0.950 . S
C417 C408 1.390 . S
C417 H410 0.950 . S
C417 C414 1.387 . S
C418 C419 1.387 . S
C418 H422 0.950 . S
C418 C427 1.390 . S
C419 C418 1.387 . S
C419 C421 1.387 . S
H420 C427 0.950 . S
C421 C419 1.387 . S
C421 C423 1.390 . S
C421 H425 0.950 . S
H422 C418 0.950 . S
C423 C421 1.390 . S
C423 C424 1.387 . S
C423 H426 0.950 . S
C424 C423 1.387 . S
C424 C427 1.387 . S
H425 C421 0.950 . S
H426 C423 0.950 . S
C427 C418 1.390 . S
C427 H420 0.950 . S
C427 C424 1.387 . S
C428 C429 1.387 . S
C428 H432 0.950 . S
C428 C437 1.390 . S
C429 C428 1.387 . S
C429 C431 1.387 . S
H430 C437 0.950 . S
C431 C429 1.387 . S
C431 C433 1.390 . S
C431 H435 0.950 . S
H432 C428 0.950 . S
C433 C431 1.390 . S
C433 C434 1.387 . S
C433 H436 0.950 . S
C434 C433 1.387 . S
C434 C437 1.387 . S
H435 C431 0.950 . S
H436 C433 0.950 . S
C437 C428 1.390 . S
C437 H430 0.950 . S
C437 C434 1.387 . S
C438 C439 1.387 . S
C438 H442 0.950 . S
C438 C447 1.390 . S
C439 C438 1.387 . S
C439 C441 1.387 . S
H440 C447 0.950 . S
C441 C439 1.387 . S
C441 C443 1.390 . S
C441 H445 0.950 . S
H442 C438 0.950 . S
C443 C441 1.390 . S
C443 C444 1.387 . S
C443 H446 0.950 . S
C444 C443 1.387 . S
C444 C447 1.387 . S
H445 C441 0.950 . S
H446 C443 0.950 . S
C447 C438 1.390 . S
C447 H440 0.950 . S
C447 C444 1.387 . S
C448 C449 1.387 . S
C448 H452 0.950 . S
C448 C457 1.390 . S
C449 C448 1.387 . S
C449 C451 1.387 . S
H450 C457 0.950 . S
C451 C449 1.387 . S
C451 C453 1.390 . S
C451 H455 0.950 . S
H452 C448 0.950 . S
C453 C451 1.390 . S
C453 C454 1.387 . S
C453 H456 0.950 . S
C454 C453 1.387 . S
C454 C457 1.387 . S
H455 C451 0.950 . S
H456 C453 0.950 . S
C457 C448 1.390 . S
C457 H450 0.950 . S
C457 C454 1.387 . S
C458 C459 1.387 . S
C458 H462 0.950 . S
C458 C467 1.390 . S
C459 C458 1.387 . S
C459 C461 1.387 . S
H460 C467 0.950 . S
C461 C459 1.387 . S
C461 C463 1.390 . S
C461 H465 0.950 . S
H462 C458 0.950 . S
C463 C461 1.390 . S
C463 C464 1.387 . S
C463 H466 0.950 . S
C464 C463 1.387 . S
C464 C467 1.387 . S
H465 C461 0.950 . S
H466 C463 0.950 . S
C467 C458 1.390 . S
C467 H460 0.950 . S
C467 C464 1.387 . S
C468 C469 1.387 . S
C468 H472 0.950 . S
C468 C477 1.390 . S
C469 C468 1.387 . S
C469 C471 1.387 . S
H470 C477 0.950 . S
C471 C469 1.387 . S
C471 C473 1.390 . S
C471 H475 0.950 . S
H472 C468 0.950 . S
C473 C471 1.390 . S
C473 C474 1.387 . S
C473 H476 0.950 . S
C474 C473 1.387 . S
C474 C477 1.387 . S
H475 C471 0.950 . S
H476 C473 0.950 . S
C477 C468 1.390 . S
C477 H470 0.950 . S
C477 C474 1.387 . S
C478 C479 1.387 . S
C478 H482 0.950 . S
C478 C487 1.390 . S
C479 C478 1.387 . S
C479 C481 1.387 . S
H480 C487 0.950 . S
C481 C479 1.387 . S
C481 C483 1.390 . S
C481 H485 0.950 . S
H482 C478 0.950 . S
C483 C481 1.390 . S
C483 C484 1.387 . S
C483 H486 0.950 . S
C484 C483 1.387 . S
C484 C487 1.387 . S
H485 C481 0.950 . S
H486 C483 0.950 . S
C487 C478 1.390 . S
C487 H480 0.950 . S
C487 C484 1.387 . S
C488 C489 1.387 . S
C488 H492 0.950 . S
C488 C497 1.390 . S
C489 C488 1.387 . S
C489 C491 1.387 . S
H490 C497 0.950 . S
C491 C489 1.387 . S
C491 C493 1.390 . S
C491 H495 0.950 . S
H492 C488 0.950 . S
C493 C491 1.390 . S
C493 C494 1.387 . S
C493 H496 0.950 . S
C494 C493 1.387 . S
C494 C497 1.387 . S
H495 C491 0.950 . S
H496 C493 0.950 . S
C497 C488 1.390 . S
C497 H490 0.950 . S
C497 C494 1.387 . S
C498 C499 1.387 . S
C498 H502 0.950 . S
C498 C507 1.390 . S
C499 C498 1.387 . S
C499 C501 1.387 . S
H500 C507 0.950 . S
C501 C499 1.387 . S
C501 C503 1.390 . S
C501 H505 0.950 . S
H502 C498 0.950 . S
C503 C501 1.390 . S
C503 C504 1.387 . S
C503 H506 0.950 . S
C504 C503 1.387 . S
C504 C507 1.387 . S
H505 C501 0.950 . S
H506 C503 0.950 . S
C507 C498 1.390 . S
C507 H500 0.950 . S
C507 C504 1.387 . S
C508 C509 1.387 . S
C508 H512 0.950 . S
C508 C517 1.390 . S
C509 C508 1.387 . S
C509 C511 1.387 . S
H510 C517 0.950 . S
C511 C509 1.387 . S
C511 C513 1.390 . S
C511 H515 0.950 . S
H512 C508 0.950 . S
C513 C511 1.390 . S
C513 C514 1.387 . S
C513 H516 0.950 . S
C514 C513 1.387 . S
C514 C517 1.387 . S
H515 C511 0.950 . S
H516 C513 0.950 . S
C517 C508 1.390 . S
C517 H510 0.950 . S
C517 C514 1.387 . S
C518 C519 1.387 . S
C518 H522 0.950 . S
C518 C527 1.390 . S
C519 C518 1.387 . S
C519 C521 1.387 . S
H520 C527 0.950 . S
C521 C519 1.387 . S
C521 C523 1.390 . S
C521 H525 0.950 . S
H522 C518 0.950 . S
C523 C521 1.390 . S
C523 C524 1.387 . S
C523 H526 0.950 . S
C524 C523 1.387 . S
C524 C527 1.387 . S
H525 C521 0.950 . S
H526 C523 0.950 . S
C527 C518 1.390 . S
C527 H520 0.950 . S
C527 C524 1.387 . S
C209 C4 1.199 . S
C214 C56 1.199 . S
C219 C69 1.198 . S
C224 C23 1.198 . S
C229 C36 1.198 . S
C234 C88 1.198 . S
C239 C49 1.199 . S
C244 C101 1.199 . S
C249 C108 1.199 . S
C254 C160 1.199 . S
C259 C173 1.198 . S
C264 C127 1.198 . S
C269 C140 1.198 . S
C274 C192 1.198 . S
C279 C147 1.199 . S
C284 C205 1.199 . S
C289 C10 1.569 1_556 S
C294 C198 1.584 . S
C299 C161 1.584 . S
C304 C17 1.576 . S
C309 C30 1.568 1_556 S
C314 C174 1.584 . S
C319 C185 1.584 . S
C324 C43 1.576 . S
C329 C120 1.584 . S
C334 C62 1.568 1_554 S
C339 C133 1.584 . S
C344 C75 1.576 . S
C349 C148 1.584 . S
C354 C82 1.568 1_554 S
C359 C109 1.584 . S
C364 C95 1.577 . S
C369 C114 1.569 1_554 S
C374 C94 1.584 . S
C379 C57 1.584 . S
C384 C121 1.576 . S
C389 C70 1.584 . S
C394 C134 1.568 1_554 S
C399 C153 1.577 . S
C404 C81 1.584 . S
C409 C16 1.584 . S
C414 C166 1.569 1_556 S
C419 C179 1.575 . S
C424 C29 1.584 . S
C429 C186 1.568 1_556 S
C434 C42 1.584 . S
C439 C199 1.577 . S
C444 C5 1.584 . S
C449 C96 1.352 . S
C454 C3 1.354 . S
C459 C18 1.355 . S
C464 C55 1.352 . S
C469 C31 1.352 . S
C474 C68 1.355 . S
C479 C44 1.353 . S
C484 C83 1.354 . S
C489 C200 1.355 . S
C494 C107 1.352 . S
C499 C159 1.352 . S
C504 C122 1.354 . S
C509 C172 1.354 . S
C514 C135 1.353 . S
C519 C187 1.352 . S
C524 C146 1.355 . S
