# Generated by pormake.
# Topology why, (6)-cn, num edge types: 1
# Building blocks:
#     Node 0, Type 0, BuildingBlock: VOLQOD_clean_sbu_1, # of connection points: 6
#     Node 1, Type 0, BuildingBlock: VOLQOD_clean_sbu_1, # of connection points: 6
#     Node 2, Type 0, BuildingBlock: VOLQOD_clean_sbu_1, # of connection points: 6
#     Node 3, Type 0, BuildingBlock: VOLQOD_clean_sbu_1, # of connection points: 6
#     Node 4, Type 0, BuildingBlock: VOLQOD_clean_sbu_1, # of connection points: 6
#     Node 5, Type 0, BuildingBlock: VOLQOD_clean_sbu_1, # of connection points: 6
#     Node 6, Type 0, BuildingBlock: VOLQOD_clean_sbu_1, # of connection points: 6
#     Node 7, Type 0, BuildingBlock: VOLQOD_clean_sbu_1, # of connection points: 6
#     Node 8, Type 0, BuildingBlock: VOLQOD_clean_sbu_1, # of connection points: 6
#     Node 9, Type 0, BuildingBlock: VOLQOD_clean_sbu_1, # of connection points: 6
#     Node 10, Type 0, BuildingBlock: VOLQOD_clean_sbu_1, # of connection points: 6
#     Node 11, Type 0, BuildingBlock: VOLQOD_clean_sbu_1, # of connection points: 6
#     Node 12, Type 0, BuildingBlock: VOLQOD_clean_sbu_1, # of connection points: 6
#     Node 13, Type 0, BuildingBlock: VOLQOD_clean_sbu_1, # of connection points: 6
#     Node 14, Type 0, BuildingBlock: VOLQOD_clean_sbu_1, # of connection points: 6
#     Node 15, Type 0, BuildingBlock: VOLQOD_clean_sbu_1, # of connection points: 6
#     Edge 16, Type (0, 0), BuildingBlock: EZIPEK_clean_linker_0, # of connection points: 2
#     Edge 17, Type (0, 0), BuildingBlock: EZIPEK_clean_linker_0, # of connection points: 2
#     Edge 18, Type (0, 0), BuildingBlock: EZIPEK_clean_linker_0, # of connection points: 2
#     Edge 19, Type (0, 0), BuildingBlock: EZIPEK_clean_linker_0, # of connection points: 2
#     Edge 20, Type (0, 0), BuildingBlock: EZIPEK_clean_linker_0, # of connection points: 2
#     Edge 21, Type (0, 0), BuildingBlock: EZIPEK_clean_linker_0, # of connection points: 2
#     Edge 22, Type (0, 0), BuildingBlock: EZIPEK_clean_linker_0, # of connection points: 2
#     Edge 23, Type (0, 0), BuildingBlock: EZIPEK_clean_linker_0, # of connection points: 2
#     Edge 24, Type (0, 0), BuildingBlock: EZIPEK_clean_linker_0, # of connection points: 2
#     Edge 25, Type (0, 0), BuildingBlock: EZIPEK_clean_linker_0, # of connection points: 2
#     Edge 26, Type (0, 0), BuildingBlock: EZIPEK_clean_linker_0, # of connection points: 2
#     Edge 27, Type (0, 0), BuildingBlock: EZIPEK_clean_linker_0, # of connection points: 2
#     Edge 28, Type (0, 0), BuildingBlock: EZIPEK_clean_linker_0, # of connection points: 2
#     Edge 29, Type (0, 0), BuildingBlock: EZIPEK_clean_linker_0, # of connection points: 2
#     Edge 30, Type (0, 0), BuildingBlock: EZIPEK_clean_linker_0, # of connection points: 2
#     Edge 31, Type (0, 0), BuildingBlock: EZIPEK_clean_linker_0, # of connection points: 2
#     Edge 32, Type (0, 0), BuildingBlock: EZIPEK_clean_linker_0, # of connection points: 2
#     Edge 33, Type (0, 0), BuildingBlock: EZIPEK_clean_linker_0, # of connection points: 2
#     Edge 34, Type (0, 0), BuildingBlock: EZIPEK_clean_linker_0, # of connection points: 2
#     Edge 35, Type (0, 0), BuildingBlock: EZIPEK_clean_linker_0, # of connection points: 2
#     Edge 36, Type (0, 0), BuildingBlock: EZIPEK_clean_linker_0, # of connection points: 2
#     Edge 37, Type (0, 0), BuildingBlock: EZIPEK_clean_linker_0, # of connection points: 2
#     Edge 38, Type (0, 0), BuildingBlock: EZIPEK_clean_linker_0, # of connection points: 2
#     Edge 39, Type (0, 0), BuildingBlock: EZIPEK_clean_linker_0, # of connection points: 2
#     Edge 40, Type (0, 0), BuildingBlock: EZIPEK_clean_linker_0, # of connection points: 2
#     Edge 41, Type (0, 0), BuildingBlock: EZIPEK_clean_linker_0, # of connection points: 2
#     Edge 42, Type (0, 0), BuildingBlock: EZIPEK_clean_linker_0, # of connection points: 2
#     Edge 43, Type (0, 0), BuildingBlock: EZIPEK_clean_linker_0, # of connection points: 2
#     Edge 44, Type (0, 0), BuildingBlock: EZIPEK_clean_linker_0, # of connection points: 2
#     Edge 45, Type (0, 0), BuildingBlock: EZIPEK_clean_linker_0, # of connection points: 2
#     Edge 46, Type (0, 0), BuildingBlock: EZIPEK_clean_linker_0, # of connection points: 2
#     Edge 47, Type (0, 0), BuildingBlock: EZIPEK_clean_linker_0, # of connection points: 2
#     Edge 48, Type (0, 0), BuildingBlock: EZIPEK_clean_linker_0, # of connection points: 2
#     Edge 49, Type (0, 0), BuildingBlock: EZIPEK_clean_linker_0, # of connection points: 2
#     Edge 50, Type (0, 0), BuildingBlock: EZIPEK_clean_linker_0, # of connection points: 2
#     Edge 51, Type (0, 0), BuildingBlock: EZIPEK_clean_linker_0, # of connection points: 2
#     Edge 52, Type (0, 0), BuildingBlock: EZIPEK_clean_linker_0, # of connection points: 2
#     Edge 53, Type (0, 0), BuildingBlock: EZIPEK_clean_linker_0, # of connection points: 2
#     Edge 54, Type (0, 0), BuildingBlock: EZIPEK_clean_linker_0, # of connection points: 2
#     Edge 55, Type (0, 0), BuildingBlock: EZIPEK_clean_linker_0, # of connection points: 2
#     Edge 56, Type (0, 0), BuildingBlock: EZIPEK_clean_linker_0, # of connection points: 2
#     Edge 57, Type (0, 0), BuildingBlock: EZIPEK_clean_linker_0, # of connection points: 2
#     Edge 58, Type (0, 0), BuildingBlock: EZIPEK_clean_linker_0, # of connection points: 2
#     Edge 59, Type (0, 0), BuildingBlock: EZIPEK_clean_linker_0, # of connection points: 2
#     Edge 60, Type (0, 0), BuildingBlock: EZIPEK_clean_linker_0, # of connection points: 2
#     Edge 61, Type (0, 0), BuildingBlock: EZIPEK_clean_linker_0, # of connection points: 2
#     Edge 62, Type (0, 0), BuildingBlock: EZIPEK_clean_linker_0, # of connection points: 2
#     Edge 63, Type (0, 0), BuildingBlock: EZIPEK_clean_linker_0, # of connection points: 2
# Relax obj value: 0.320
# Max RMSD: 0.188
# Mean RMSD: 0.188
data_MOF--net-why--node1-VOLQOD_clean_sbu_1--edge1-EZIPEK_clean_linker_0
_symmetry_space_group_name_H-M    P1
_symmetry_Int_Tables_number       1
_symmetry_cell_setting            triclinic
loop_
_symmetry_equiv_pos_as_xyz
'x, y, z'
_cell_length_a     38.030474
_cell_length_b     37.897144
_cell_length_c     24.530114
_cell_angle_alpha  89.660182
_cell_angle_beta   89.788838
_cell_angle_gamma 89.929681
loop_
_atom_site_label
_atom_site_type_symbol
_atom_site_fract_x
_atom_site_fract_y
_atom_site_fract_z
_atom_type_partial_charge
O0 O 0.30212 0.20123 0.93334 0.0
Zn1 Zn 0.30787 0.15616 0.97488 0.0
O2 O 0.32714 0.16485 0.04595 0.0
Zn3 Zn 0.37347 0.14343 0.04927 0.0
Zn4 Zn 0.32888 0.21572 0.05981 0.0
Zn5 Zn 0.29741 0.14228 0.09989 0.0
O6 O 0.3779 0.11127 0.11399 0.0
O7 O 0.32531 0.11404 0.15182 0.0
O8 O 0.33919 0.12557 0.92944 0.0
O9 O 0.38705 0.11818 0.97965 0.0
O10 O 0.40857 0.18062 0.06266 0.0
O11 O 0.37816 0.22927 0.08269 0.0
O12 O 0.29375 0.22972 0.11897 0.0
O13 O 0.26247 0.13098 0.9809 0.0
O14 O 0.27238 0.17753 0.1446 0.0
O15 O 0.2606 0.11184 0.06683 0.0
C16 C 0.30743 0.23366 0.94323 0.0
C17 C 0.35715 0.10423 0.15338 0.0
C18 C 0.40705 0.21236 0.07875 0.0
C19 C 0.37009 0.11342 0.93561 0.0
C20 C 0.27343 0.21084 0.14865 0.0
C21 C 0.24826 0.11295 0.01884 0.0
O22 O 0.31864 0.24303 0.98994 0.0
O23 O 0.49244 0.57749 0.19803 0.0
Zn24 Zn 0.54246 0.57529 0.22192 0.0
O25 O 0.54571 0.58075 0.3 0.0
Zn26 Zn 0.57197 0.6234 0.31339 0.0
Zn27 Zn 0.49884 0.58426 0.3323 0.0
Zn28 Zn 0.57034 0.54082 0.33148 0.0
O29 O 0.60991 0.61501 0.36651 0.0
O30 O 0.61336 0.5564 0.37166 0.0
O31 O 0.56774 0.6126 0.18112 0.0
O32 O 0.59457 0.64295 0.24578 0.0
O33 O 0.53994 0.66122 0.33883 0.0
O34 O 0.48968 0.63393 0.35843 0.0
O35 O 0.49172 0.54815 0.3921 0.0
O36 O 0.56554 0.53116 0.198 0.0
O37 O 0.54012 0.51533 0.38471 0.0
O38 O 0.58428 0.5062 0.27457 0.0
C39 C 0.46318 0.57767 0.22332 0.0
C40 C 0.62465 0.58698 0.3835 0.0
C41 C 0.50837 0.66177 0.35578 0.0
C42 C 0.58891 0.63642 0.1959 0.0
C43 C 0.51032 0.52162 0.40604 0.0
C44 C 0.581 0.5062 0.22303 0.0
O45 O 0.46165 0.57716 0.27512 0.0
O46 O 0.14776 0.76314 0.43433 0.0
Zn47 Zn 0.14883 0.80771 0.47534 0.0
O48 O 0.13659 0.79882 0.55058 0.0
Zn49 Zn 0.09064 0.8189 0.56434 0.0
Zn50 Zn 0.13594 0.74811 0.56603 0.0
Zn51 Zn 0.17089 0.82227 0.59572 0.0
O52 O 0.09227 0.85424 0.62314 0.0
O53 O 0.14958 0.86381 0.63283 0.0
O54 O 0.1148 0.83976 0.43798 0.0
O55 O 0.07184 0.84474 0.49889 0.0
O56 O 0.05596 0.78171 0.58335 0.0
O57 O 0.08804 0.73303 0.59414 0.0
O58 O 0.17337 0.73553 0.62148 0.0
O59 O 0.19608 0.82819 0.46736 0.0
O60 O 0.19094 0.78855 0.64983 0.0
O61 O 0.21187 0.84003 0.55243 0.0
C62 C 0.14473 0.7307 0.44672 0.0
C63 C 0.11771 0.87189 0.64228 0.0
C64 C 0.05865 0.74921 0.59544 0.0
C65 C 0.08499 0.85164 0.45234 0.0
C66 C 0.19151 0.75505 0.65288 0.0
C67 C 0.21796 0.84 0.50153 0.0
O68 O 0.14143 0.72034 0.49599 0.0
O69 O 0.95652 0.40394 0.69036 0.0
Zn70 Zn 0.91281 0.40703 0.73268 0.0
O71 O 0.91966 0.38698 0.80302 0.0
Zn72 Zn 0.90511 0.33874 0.80064 0.0
Zn73 Zn 0.9689 0.38896 0.82182 0.0
Zn74 Zn 0.89081 0.41412 0.85116 0.0
O75 O 0.86833 0.32963 0.85687 0.0
O76 O 0.85457 0.38346 0.88525 0.0
O77 O 0.87793 0.38018 0.68979 0.0
O78 O 0.88514 0.32701 0.7269 0.0
O79 O 0.94503 0.30702 0.81794 0.0
O80 O -0.01476 0.34245 0.85417 0.0
O81 O 0.97612 0.42841 0.87566 0.0
O82 O 0.89626 0.45578 0.73566 0.0
O83 O 0.92127 0.43717 0.9061 0.0
O84 O 0.86637 0.45427 0.81363 0.0
C85 C -0.01175 0.39802 0.70306 0.0
C86 C 0.84934 0.3503 0.885 0.0
C87 C 0.97367 0.31175 0.84339 0.0
C88 C 0.87353 0.34702 0.68913 0.0
C89 C 0.95418 0.44304 0.90801 0.0
C90 C 0.8747 0.46928 0.76905 0.0
O91 O -0.00222 0.39336 0.75236 0.0
O92 O 0.64751 0.75941 0.04186 0.0
Zn93 Zn 0.64862 0.80565 0.00484 0.0
O94 O 0.64037 0.80047 0.92786 0.0
Zn95 Zn 0.59865 0.82713 0.91091 0.0
Zn96 Zn 0.63406 0.75105 0.90823 0.0
Zn97 Zn 0.68041 0.81975 0.88884 0.0
O98 O 0.60944 0.86361 0.85699 0.0
O99 O 0.66759 0.8624 0.84578 0.0
O100 O 0.61168 0.83324 0.0428 0.0
O101 O 0.57712 0.85089 0.97548 0.0
O102 O 0.56091 0.79605 0.88422 0.0
O103 O 0.58594 0.74331 0.87672 0.0
O104 O 0.67085 0.73495 0.85377 0.0
O105 O 0.69389 0.82797 0.01959 0.0
O106 O 0.69935 0.78524 0.83715 0.0
O107 O 0.7197 0.83184 0.9385 0.0
C108 C 0.63923 0.72861 0.02657 0.0
C109 C 0.63758 0.87571 0.83629 0.0
C110 C 0.55937 0.76358 0.87238 0.0
C111 C 0.58497 0.84986 0.02567 0.0
C112 C 0.69415 0.75277 0.82826 0.0
C113 C 0.72026 0.83531 0.9899 0.0
O114 O 0.63347 0.72129 0.97678 0.0
O115 O 0.462 0.37517 0.78542 0.0
Zn116 Zn 0.41331 0.38153 0.75776 0.0
O117 O 0.41334 0.37703 0.67924 0.0
Zn118 Zn 0.38178 0.33957 0.66209 0.0
Zn119 Zn 0.46024 0.36691 0.65117 0.0
Zn120 Zn 0.39539 0.41928 0.64503 0.0
O121 O 0.34867 0.35363 0.60543 0.0
O122 O 0.34758 0.41201 0.61239 0.0
O123 O 0.38278 0.34564 0.79583 0.0
O124 O 0.35327 0.3231 0.7267 0.0
O125 O 0.40778 0.29786 0.63732 0.0
O126 O 0.46309 0.31599 0.628 0.0
O127 O 0.47355 0.39989 0.58946 0.0
O128 O 0.39659 0.42954 0.77875 0.0
O129 O 0.42729 0.43596 0.58643 0.0
O130 O 0.39205 0.45746 0.69908 0.0
C131 C 0.49198 0.37247 0.76274 0.0
C132 C 0.33489 0.38332 0.5946 0.0
C133 C 0.43975 0.29198 0.62576 0.0
C134 C 0.3589 0.3255 0.7776 0.0
C135 C 0.45724 0.42622 0.56916 0.0
C136 C 0.3911 0.4574 0.75082 0.0
O137 O 0.49576 0.37124 0.71119 0.0
O138 O 0.82616 0.22741 0.54514 0.0
Zn139 Zn 0.8216 0.17763 0.52202 0.0
O140 O 0.82829 0.17488 0.44377 0.0
Zn141 Zn 0.86865 0.14498 0.43159 0.0
Zn142 Zn 0.83553 0.22167 0.41116 0.0
Zn143 Zn 0.78744 0.15377 0.41065 0.0
O144 O 0.85738 0.10722 0.38006 0.0
O145 O 0.79912 0.10909 0.37179 0.0
O146 O 0.85804 0.15118 0.56414 0.0
O147 O 0.88755 0.12266 0.49995 0.0
O148 O 0.90822 0.17324 0.40212 0.0
O149 O 0.88581 0.22635 0.38458 0.0
O150 O 0.80095 0.23212 0.35047 0.0
O151 O 0.77477 0.15888 0.5445 0.0
O152 O 0.76605 0.18517 0.35565 0.0
O153 O 0.75049 0.14477 0.46538 0.0
C154 C 0.82918 0.2568 0.52039 0.0
C155 C 0.82876 0.09508 0.36161 0.0
C156 C 0.91149 0.20471 0.38488 0.0
C157 C 0.88174 0.12952 0.54981 0.0
C158 C 0.77407 0.21485 0.33511 0.0
C159 C 0.74902 0.14742 0.51688 0.0
O160 O 0.83031 0.25902 0.46861 0.0
O161 O 0.00578 0.58501 0.28032 0.0
Zn162 Zn 0.05395 0.58234 0.24839 0.0
O163 O 0.05254 0.5904 0.17062 0.0
Zn164 Zn 0.08255 0.63041 0.15474 0.0
Zn165 Zn 0.0045 0.59975 0.14689 0.0
Zn166 Zn 0.07025 0.54926 0.13305 0.0
O167 O 0.1169 0.61884 0.0976 0.0
O168 O 0.11269 0.56056 0.08851 0.0
O169 O 0.0827 0.61796 0.287 0.0
O170 O 0.10982 0.64668 0.22004 0.0
O171 O 0.05406 0.67213 0.13246 0.0
O172 O -0.0005 0.6513 0.12775 0.0
O173 O -0.00989 0.56841 0.08447 0.0
O174 O 0.0747 0.53566 0.26546 0.0
O175 O 0.03496 0.53059 0.08214 0.0
O176 O 0.08232 0.51057 0.18466 0.0
C177 C 0.97526 0.58817 0.25997 0.0
C178 C 0.1271 0.58991 0.07713 0.0
C179 C 0.02142 0.67661 0.1241 0.0
C180 C 0.1049 0.64059 0.27048 0.0
C181 C 0.00518 0.54106 0.06549 0.0
C182 C 0.08376 0.50955 0.23634 0.0
O183 O 0.97045 0.59186 0.20892 0.0
O184 O 0.82498 0.71337 0.44467 0.0
Zn185 Zn 0.81958 0.66409 0.47206 0.0
O186 O 0.83361 0.66078 0.54761 0.0
Zn187 Zn 0.8744 0.63011 0.55417 0.0
Zn188 Zn 0.84368 0.70753 0.57725 0.0
Zn189 Zn 0.79514 0.63991 0.58744 0.0
O190 O 0.86648 0.59234 0.61001 0.0
O191 O 0.81095 0.6013 0.63524 0.0
O192 O 0.85182 0.63631 0.42518 0.0
O193 O 0.8895 0.61036 0.48167 0.0
O194 O 0.91563 0.65792 0.57827 0.0
O195 O 0.89479 0.71097 0.59959 0.0
O196 O 0.81067 0.71939 0.63968 0.0
O197 O 0.77109 0.64576 0.45948 0.0
O198 O 0.77342 0.67412 0.63687 0.0
O199 O 0.75772 0.6215 0.53964 0.0
C200 C 0.83325 0.74229 0.46717 0.0
C201 C 0.83985 0.58492 0.63941 0.0
C202 C 0.92018 0.6892 0.5951 0.0
C203 C 0.87831 0.61666 0.43377 0.0
C204 C 0.78303 0.70349 0.65614 0.0
C205 C 0.75075 0.62773 0.49 0.0
O206 O 0.83933 0.74439 0.51807 0.0
O207 O 0.0119 0.082 0.69775 0.0
Zn208 Zn 0.05925 0.07781 0.73092 0.0
O209 O 0.05649 0.08634 0.8084 0.0
Zn210 Zn 0.08996 0.12351 0.82439 0.0
Zn211 Zn 0.00859 0.09944 0.83031 0.0
Zn212 Zn 0.06958 0.04365 0.84706 0.0
O213 O 0.1227 0.10809 0.88296 0.0
O214 O 0.11157 0.05077 0.89352 0.0
O215 O 0.08862 0.11372 0.69183 0.0
O216 O 0.11806 0.13956 0.75829 0.0
O217 O 0.064 0.16682 0.84769 0.0
O218 O 0.00787 0.1504 0.85251 0.0
O219 O -0.00988 0.06869 0.89237 0.0
O220 O 0.07837 0.03006 0.71542 0.0
O221 O 0.0325 0.02834 0.89807 0.0
O222 O 0.07917 0.00408 0.79687 0.0
C223 C 0.98155 0.09026 0.71543 0.0
C224 C 0.12897 0.07827 0.90491 0.0
C225 C 0.03178 0.17367 0.85686 0.0
C226 C 0.11163 0.13553 0.70784 0.0
C227 C 0.00311 0.0407 0.91323 0.0
C228 C 0.08333 0.00312 0.74556 0.0
O229 O 0.97592 0.0972 0.76547 0.0
O230 O 0.6359 0.24076 0.94895 0.0
Zn231 Zn 0.64634 0.28973 0.97218 0.0
O232 O 0.63307 0.29477 0.04775 0.0
Zn233 Zn 0.59168 0.32364 0.05074 0.0
Zn234 Zn 0.62407 0.24873 0.0813 0.0
Zn235 Zn 0.67008 0.3189 0.08595 0.0
O236 O 0.59849 0.36467 0.09772 0.0
O237 O 0.6564 0.36844 0.10658 0.0
O238 O 0.61796 0.31944 0.92203 0.0
O239 O 0.57688 0.34088 0.97702 0.0
O240 O 0.55127 0.29663 0.07738 0.0
O241 O 0.57267 0.24457 0.10311 0.0
O242 O 0.65694 0.24033 0.14493 0.0
O243 O 0.69656 0.3018 0.95997 0.0
O244 O 0.68396 0.29229 0.15211 0.0
O245 O 0.71359 0.32009 0.04135 0.0
C246 C 0.63007 0.21188 0.9739 0.0
C247 C 0.6257 0.38111 0.11315 0.0
C248 C 0.54701 0.26582 0.09653 0.0
C249 C 0.59014 0.3372 0.92983 0.0
C250 C 0.67842 0.26098 0.16867 0.0
C251 C 0.72018 0.31333 0.99177 0.0
O252 O 0.62926 0.20994 0.02573 0.0
O253 O 0.45772 0.89947 0.18037 0.0
Zn254 Zn 0.41241 0.90586 0.21966 0.0
O255 O 0.41711 0.88748 0.29323 0.0
Zn256 Zn 0.38957 0.84471 0.29755 0.0
Zn257 Zn 0.46631 0.87795 0.31146 0.0
Zn258 Zn 0.39887 0.92223 0.34314 0.0
O259 O 0.34995 0.85053 0.35037 0.0
O260 O 0.3574 0.90457 0.3838 0.0
O261 O 0.37704 0.87963 0.17467 0.0
O262 O 0.37116 0.83064 0.22378 0.0
O263 O 0.41903 0.80467 0.32346 0.0
O264 O 0.47208 0.82754 0.33753 0.0
O265 O 0.48456 0.91157 0.36884 0.0
O266 O 0.40048 0.9568 0.21905 0.0
O267 O 0.43471 0.93679 0.39612 0.0
O268 O 0.38666 0.96707 0.30563 0.0
C269 C 0.4884 0.88994 0.19453 0.0
C270 C 0.34089 0.87553 0.38188 0.0
C271 C 0.45085 0.80158 0.3384 0.0
C272 C 0.36666 0.8479 0.17969 0.0
C273 C 0.46762 0.93228 0.40018 0.0
C274 C 0.38991 0.97725 0.25652 0.0
O275 O 0.49584 0.88147 0.24344 0.0
O276 O 0.14603 0.26275 0.54297 0.0
Zn277 Zn 0.14033 0.30858 0.50512 0.0
O278 O 0.13136 0.30165 0.42901 0.0
Zn279 Zn 0.08723 0.32443 0.41207 0.0
Zn280 Zn 0.12947 0.25134 0.4113 0.0
Zn281 Zn 0.16881 0.32533 0.38954 0.0
O282 O 0.09327 0.36146 0.3564 0.0
O283 O 0.15111 0.36989 0.35483 0.0
O284 O 0.10185 0.3329 0.54356 0.0
O285 O 0.06527 0.348 0.47728 0.0
O286 O 0.05214 0.28987 0.38744 0.0
O287 O 0.08043 0.2385 0.38599 0.0
O288 O 0.16503 0.24057 0.35081 0.0
O289 O 0.18201 0.33758 0.51791 0.0
O290 O 0.18798 0.29365 0.33272 0.0
O291 O 0.20893 0.33882 0.43777 0.0
C292 C 0.14212 0.23062 0.52982 0.0
C293 C 0.12008 0.37914 0.3419 0.0
C294 C 0.0527 0.25689 0.37916 0.0
C295 C 0.07417 0.34807 0.52714 0.0
C296 C 0.18519 0.26087 0.323 0.0
C297 C 0.20842 0.34516 0.48854 0.0
O298 O 0.13617 0.22158 0.48062 0.0
O299 O 0.96397 0.90741 0.30373 0.0
Zn300 Zn 0.91611 0.90816 0.27201 0.0
O301 O 0.9184 0.89546 0.19572 0.0
Zn302 Zn 0.89713 0.84968 0.18666 0.0
Zn303 Zn 0.96737 0.89445 0.17031 0.0
Zn304 Zn 0.89088 0.92927 0.15445 0.0
O305 O 0.85951 0.85054 0.13247 0.0
O306 O 0.85069 0.90743 0.11615 0.0
O307 O 0.88937 0.87275 0.3162 0.0
O308 O 0.87727 0.8306 0.25669 0.0
O309 O 0.93132 0.81496 0.16056 0.0
O310 O 0.98077 0.84476 0.14585 0.0
O311 O 0.97447 0.93066 0.10949 0.0
O312 O 0.89292 0.95459 0.28318 0.0
O313 O 0.92062 0.95318 0.09924 0.0
O314 O 0.87056 0.96625 0.20139 0.0
C315 C -0.00509 0.90547 0.28437 0.0
C316 C 0.84262 0.8753 0.10956 0.0
C317 C 0.96333 0.81602 0.14619 0.0
C318 C 0.87593 0.84311 0.30459 0.0
C319 C 0.95288 0.9516 0.08597 0.0
C320 C 0.8746 0.97364 0.25129 0.0
O321 O 0.00064 0.90293 0.23331 0.0
O322 O 0.32122 0.7205 0.03519 0.0
Zn323 Zn 0.31787 0.67128 0.0062 0.0
O324 O 0.33653 0.66911 0.93267 0.0
Zn325 Zn 0.3814 0.64516 0.93454 0.0
Zn326 Zn 0.34145 0.71679 0.90277 0.0
Zn327 Zn 0.30519 0.64184 0.88777 0.0
O328 O 0.38336 0.60449 0.88434 0.0
O329 O 0.32804 0.59908 0.85776 0.0
O330 O 0.34573 0.64142 0.05773 0.0
O331 O 0.39298 0.62685 0.00942 0.0
O332 O 0.41879 0.67743 0.91105 0.0
O333 O 0.39192 0.7255 0.87909 0.0
O334 O 0.30752 0.72471 0.84043 0.0
O335 O 0.26908 0.6524 0.00951 0.0
O336 O 0.28522 0.671 0.82783 0.0
O337 O 0.26451 0.62483 0.92994 0.0
C338 C 0.32747 0.7502 0.01275 0.0
C339 C 0.35959 0.58815 0.85867 0.0
C340 C 0.4197 0.70759 0.88833 0.0
C341 C 0.37563 0.62667 0.05384 0.0
C342 C 0.2876 0.70342 0.81497 0.0
C343 C 0.25262 0.6326 0.97663 0.0
O344 O 0.33304 0.75306 0.96165 0.0
O345 O 0.48729 0.05802 0.79167 0.0
Zn346 Zn 0.53711 0.05988 0.76505 0.0
O347 O 0.53915 0.07621 0.69005 0.0
Zn348 Zn 0.55758 0.12361 0.68862 0.0
Zn349 Zn 0.49247 0.07426 0.65792 0.0
Zn350 Zn 0.5707 0.0472 0.64834 0.0
O351 O 0.59823 0.12897 0.63827 0.0
O352 O 0.61278 0.07325 0.62342 0.0
O353 O 0.56239 0.09248 0.81493 0.0
O354 O 0.57483 0.1387 0.76219 0.0
O355 O 0.52097 0.15623 0.66305 0.0
O356 O 0.47921 0.12212 0.62773 0.0
O357 O 0.49054 0.03787 0.59765 0.0
O358 O 0.56131 0.01358 0.77311 0.0
O359 O 0.54722 0.02565 0.58432 0.0
O360 O 0.58828 0.008 0.6928 0.0
C361 C 0.45764 0.06022 0.76797 0.0
C362 C 0.61915 0.10599 0.61932 0.0
C363 C 0.4926 0.15231 0.63671 0.0
C364 C 0.57556 0.12294 0.80807 0.0
C365 C 0.51507 0.02227 0.57154 0.0
C366 C 0.58198 -0.00255 0.7409 0.0
O367 O 0.45591 0.06485 0.71658 0.0
C368 C 0.4587 0.24206 0.03901 0.0
C369 C 0.44061 0.23065 0.0863 0.0
C370 C 0.49197 0.24392 0.14261 0.0
C371 C 0.51103 0.25184 0.0944 0.0
N372 N 0.51498 0.25197 -0.00415 0.0
N373 N 0.43959 0.21749 0.18249 0.0
C374 C 0.49505 0.2492 0.0423 0.0
C375 C 0.45705 0.23079 0.13813 0.0
N376 N 0.44096 0.2463 0.99098 0.0
N377 N 0.50698 0.24964 0.19229 0.0
H378 H 0.41352 0.20901 0.1807 0.0
H379 H 0.45136 0.21319 0.2202 0.0
H380 H 0.53281 0.25847 0.19648 0.0
H381 H 0.49332 0.24777 0.22904 0.0
H382 H 0.45196 0.25804 0.95643 0.0
H383 H 0.41412 0.24119 0.98715 0.0
H384 H 0.50546 0.24638 0.95711 0.0
H385 H 0.54205 0.2564 -0.00387 0.0
C386 C 0.49058 0.71842 0.40105 0.0
C387 C 0.49055 0.69623 0.35477 0.0
C388 C 0.46719 0.74398 0.29805 0.0
C389 C 0.46495 0.76559 0.34498 0.0
N390 N 0.47033 0.77315 0.44198 0.0
N391 N 0.47434 0.68542 0.26111 0.0
C392 C 0.4755 0.75278 0.39686 0.0
C393 C 0.47728 0.70824 0.30394 0.0
N394 N 0.50569 0.70685 0.44835 0.0
N395 N 0.46143 0.75815 0.24736 0.0
H396 H 0.48274 0.65923 0.26262 0.0
H397 H 0.46107 0.69151 0.22522 0.0
H398 H 0.45407 0.78433 0.24092 0.0
H399 H 0.46696 0.74501 0.21117 0.0
H400 H 0.50999 0.72288 0.48197 0.0
H401 H 0.51571 0.68135 0.45288 0.0
H402 H 0.47427 0.76421 0.48169 0.0
H403 H 0.4598 0.79857 0.43986 0.0
C404 C 0.00474 0.73066 0.64739 0.0
C405 C 0.02577 0.72886 0.59962 0.0
C406 C 0.97719 0.70256 0.5493 0.0
C407 C 0.95663 0.70241 0.59783 0.0
N408 N 0.95193 0.71105 0.69476 0.0
N409 N 0.03488 0.70723 0.50818 0.0
C410 C 0.97072 0.71495 0.64751 0.0
C411 C 0.01296 0.71263 0.55174 0.0
N412 N 0.01707 0.74803 0.69207 0.0
N413 N 0.96195 0.69535 0.5001 0.0
H414 H 0.06103 0.71537 0.50722 0.0
H415 H 0.02806 0.69195 0.47469 0.0
H416 H 0.93553 0.68876 0.49568 0.0
H417 H 0.97451 0.6993 0.46277 0.0
H418 H 0.00169 0.75385 0.72605 0.0
H419 H 0.04252 0.75823 0.69395 0.0
H420 H 0.962 0.71652 0.73318 0.0
H421 H 0.92692 0.69975 0.6959 0.0
C422 C -0.00419 0.26238 0.9027 0.0
C423 C -0.00396 0.28058 0.85205 0.0
C424 C 0.01997 0.22912 0.80616 0.0
C425 C 0.02101 0.21095 0.85686 0.0
N426 N 0.01569 0.21125 0.95466 0.0
N427 N 0.01774 0.28562 0.7601 0.0
C428 C 0.01088 0.22797 0.90577 0.0
C429 C 0.0114 0.26533 0.80533 0.0
N430 N 0.97999 0.27742 0.94691 0.0
N431 N 0.02497 0.21133 0.7584 0.0
H432 H 0.01238 0.31263 0.75906 0.0
H433 H 0.03164 0.27657 0.72626 0.0
H434 H 0.03118 0.18454 0.75674 0.0
H435 H 0.0202 0.22251 0.72021 0.0
H436 H 0.97545 0.26413 0.98351 0.0
H437 H 0.96998 0.30308 0.94597 0.0
H438 H 0.01168 0.22333 -0.00783 0.0
H439 H 0.02615 0.18583 0.9576 0.0
C440 C 0.51134 0.73551 0.92445 0.0
C441 C 0.52426 0.74762 0.87334 0.0
C442 C 0.46792 0.73394 0.83043 0.0
C443 C 0.45449 0.72408 0.88237 0.0
N444 N 0.46057 0.72332 0.98051 0.0
N445 N 0.51452 0.76323 0.77936 0.0
C446 C 0.47541 0.72708 0.92985 0.0
C447 C 0.5024 0.7484 0.82671 0.0
N448 N 0.53345 0.73182 0.96805 0.0
N449 N 0.44832 0.72821 0.78476 0.0
H450 H 0.54016 0.77271 0.77511 0.0
H451 H 0.49872 0.76801 0.74554 0.0
H452 H 0.42292 0.71788 0.78626 0.0
H453 H 0.45798 0.73145 0.74528 0.0
H454 H 0.52642 0.71869 0.00388 0.0
H455 H 0.55977 0.73935 0.96741 0.0
H456 H 0.4735 0.7297 0.01649 0.0
H457 H 0.43416 0.71719 0.98684 0.0
C458 C 0.44685 0.2348 0.67326 0.0
C459 C 0.45085 0.25496 0.62467 0.0
C460 C 0.47737 0.2044 0.57871 0.0
C461 C 0.47192 0.18422 0.62676 0.0
N462 N 0.44364 0.17668 0.71402 0.0
N463 N 0.46432 0.25842 0.52877 0.0
C464 C 0.45372 0.19827 0.67193 0.0
C465 C 0.46435 0.23958 0.57642 0.0
N466 N 0.43883 0.25093 0.72156 0.0
N467 N 0.49595 0.19025 0.53637 0.0
H468 H 0.45536 0.28443 0.52642 0.0
H469 H 0.47087 0.24766 0.49113 0.0
H470 H 0.50428 0.16399 0.53639 0.0
H471 H 0.50427 0.20474 0.50253 0.0
H472 H 0.43936 0.23797 0.7591 0.0
H473 H 0.43499 0.27807 0.72526 0.0
H474 H 0.42751 0.18498 0.74586 0.0
H475 H 0.44859 0.14958 0.7143 0.0
C476 C 0.96482 0.22705 0.43011 0.0
C477 C 0.9475 0.21852 0.38084 0.0
C478 C 0.0006 0.23311 0.32857 0.0
C479 C 0.01836 0.23923 0.37831 0.0
N480 N 0.02008 0.23526 0.47658 0.0
N481 N 0.94893 0.20908 0.28392 0.0
C482 C 0.00128 0.234 0.42913 0.0
C483 C 0.96541 0.22023 0.33011 0.0
N484 N 0.94614 0.22966 0.47771 0.0
N485 N 0.01714 0.24037 0.28028 0.0
H486 H 0.92284 0.20056 0.28391 0.0
H487 H 0.96155 0.20637 0.24645 0.0
H488 H 0.04334 0.24848 0.27826 0.0
H489 H 0.00459 0.24002 0.24265 0.0
H490 H 0.9565 0.24001 0.51346 0.0
H491 H 0.91934 0.22415 0.4807 0.0
H492 H 0.00982 0.22788 0.51438 0.0
H493 H 0.04695 0.24068 0.47785 0.0
C494 C 0.00674 0.73554 0.08226 0.0
C495 C 0.00788 0.71285 0.12833 0.0
C496 C 0.98184 0.75839 0.18586 0.0
C497 C 0.98146 0.78177 0.14022 0.0
N498 N -0.00332 0.79482 0.04681 0.0
N499 N 0.00385 0.7044 0.22587 0.0
C500 C -0.00486 0.77109 0.08894 0.0
C501 C -0.00247 0.72479 0.18063 0.0
N502 N 0.0158 0.72267 0.03219 0.0
N503 N 0.96646 0.76791 0.23417 0.0
H504 H 0.0145 0.67905 0.22427 0.0
H505 H 0.00126 0.71352 0.26564 0.0
H506 H 0.95732 0.79323 0.24242 0.0
H507 H 0.96095 0.75014 0.26559 0.0
H508 H 0.01264 0.73653 -0.00418 0.0
H509 H 0.02483 0.69691 0.02666 0.0
H510 H 0.00913 0.78992 0.00979 0.0
H511 H -0.0129 0.82053 0.04989 0.0
C512 C 0.18958 0.06034 0.93152 0.0
C513 C 0.15704 0.07617 0.94541 0.0
C514 C 0.1833 0.1061 0.02282 0.0
C515 C 0.21644 0.09322 0.00545 0.0
N516 N 0.25028 0.04976 0.95742 0.0
N517 N 0.1199 0.10337 0.01271 0.0
C518 C 0.21913 0.06715 0.9647 0.0
C519 C 0.1529 0.0953 -0.00566 0.0
N520 N 0.19271 0.04108 0.88479 0.0
N521 N 0.18126 0.1305 0.06352 0.0
H522 H 0.09729 0.09544 -0.00788 0.0
H523 H 0.11484 0.11487 0.05037 0.0
H524 H 0.20298 0.13812 0.08639 0.0
H525 H 0.15839 0.14423 0.0733 0.0
H526 H 0.21664 0.03237 0.86913 0.0
H527 H 0.17135 0.03506 0.86004 0.0
H528 H 0.25351 0.02857 0.93107 0.0
H529 H 0.27214 0.05465 0.98189 0.0
C530 C 0.63709 0.42748 0.18483 0.0
C531 C 0.62032 0.41654 0.13621 0.0
C532 C 0.57723 0.46354 0.14536 0.0
C533 C 0.59552 0.47649 0.19142 0.0
N534 N 0.65046 0.47761 0.24126 0.0
N535 N 0.58393 0.43348 0.05974 0.0
C536 C 0.62793 0.46068 0.20698 0.0
C537 C 0.59367 0.43786 0.11282 0.0
N538 N 0.66006 0.40589 0.21178 0.0
N539 N 0.54337 0.47341 0.13452 0.0
H540 H 0.59682 0.41593 0.03378 0.0
H541 H 0.56611 0.45025 0.04029 0.0
H542 H 0.52832 0.48902 0.16051 0.0
H543 H 0.52875 0.46214 0.10325 0.0
H544 H 0.66995 0.41197 0.25019 0.0
H545 H 0.66667 0.38065 0.19878 0.0
H546 H 0.67549 0.46794 0.25014 0.0
H547 H 0.64608 0.50321 0.25508 0.0
C548 C 0.27986 0.89016 0.41132 0.0
C549 C 0.31099 0.87013 0.41867 0.0
C550 C 0.28253 0.83353 0.48804 0.0
C551 C 0.25139 0.8535 0.48052 0.0
N552 N 0.2224 0.90574 0.44695 0.0
N553 N 0.34536 0.82952 0.47276 0.0
C554 C 0.25078 0.88355 0.44603 0.0
C555 C 0.31342 0.84393 0.45995 0.0
N556 N 0.27744 0.91402 0.36942 0.0
N557 N 0.28208 0.80362 0.5195 0.0
H558 H 0.36864 0.83678 0.45304 0.0
H559 H 0.34934 0.81286 0.50609 0.0
H560 H 0.26008 0.79548 0.54169 0.0
H561 H 0.30278 0.78563 0.52102 0.0
H562 H 0.25409 0.92645 0.35833 0.0
H563 H 0.29822 0.91959 0.3429 0.0
H564 H 0.22167 0.92988 0.42649 0.0
H565 H 0.20078 0.90152 0.4725 0.0
C566 C 0.82327 0.52608 0.67716 0.0
C567 C 0.84302 0.55765 0.68149 0.0
C568 C 0.8755 0.53406 0.75909 0.0
C569 C 0.85745 0.50187 0.7522 0.0
N570 N 0.80782 0.46976 0.71833 0.0
N571 N 0.87978 0.59602 0.73489 0.0
C572 C 0.82884 0.49896 0.71604 0.0
C573 C 0.86652 0.5631 0.72539 0.0
N574 N 0.80117 0.52112 0.63401 0.0
N575 N 0.90225 0.53604 0.79599 0.0
H576 H 0.87329 0.61794 0.711 0.0
H577 H 0.89477 0.60229 0.76889 0.0
H578 H 0.9078 0.51548 0.82316 0.0
H579 H 0.91948 0.55728 0.79857 0.0
H580 H 0.78906 0.49717 0.62548 0.0
H581 H 0.79662 0.5403 0.60422 0.0
H582 H 0.78476 0.46708 0.69603 0.0
H583 H 0.81187 0.44954 0.74672 0.0
C584 C 0.7731 0.87448 -0.0006 0.0
C585 C 0.75297 0.84507 0.0172 0.0
C586 C 0.78816 0.84028 0.09909 0.0
C587 C 0.81142 0.86613 0.07788 0.0
N588 N 0.83036 0.90191 0.00104 0.0
N589 N 0.74924 0.79308 0.07496 0.0
C590 C 0.80526 0.88164 0.02596 0.0
C591 C 0.76292 0.82575 0.06426 0.0
N592 N 0.76106 0.8964 0.95916 0.0
N593 N 0.78893 0.83065 0.15289 0.0
H594 H 0.73243 0.78012 0.0482 0.0
H595 H 0.7581 0.77723 0.10701 0.0
H596 H 0.80512 0.8428 0.18141 0.0
H597 H 0.77034 0.81375 0.17027 0.0
H598 H 0.77356 0.91997 0.94874 0.0
H599 H 0.73685 0.89307 0.94013 0.0
H600 H 0.82797 0.91103 0.96104 0.0
H601 H 0.85507 0.90643 0.01786 0.0
C602 C 0.39089 0.52984 0.85612 0.0
C603 C 0.3685 0.55503 0.83071 0.0
C604 C 0.35646 0.51327 0.75822 0.0
C605 C 0.38313 0.49068 0.77886 0.0
N606 N 0.4327 0.48328 0.83979 0.0
N607 N 0.33816 0.57383 0.74881 0.0
C608 C 0.40252 0.50059 0.82557 0.0
C609 C 0.35368 0.54777 0.77905 0.0
N610 N 0.39971 0.53256 0.90988 0.0
N611 N 0.33277 0.50155 0.72071 0.0
H612 H 0.3378 0.60021 0.76068 0.0
H613 H 0.32957 0.56986 0.70899 0.0
H614 H 0.3319 0.47549 0.70739 0.0
H615 H 0.3113 0.51666 0.70815 0.0
H616 H 0.41365 0.51292 0.93052 0.0
H617 H 0.38956 0.5519 0.93547 0.0
H618 H 0.44893 0.49186 0.8712 0.0
H619 H 0.44374 0.46318 0.81646 0.0
C620 C 0.67284 0.14435 0.61668 0.0
C621 C 0.65212 0.11732 0.59309 0.0
C622 C 0.6987 0.1058 0.52738 0.0
C623 C 0.71644 0.13662 0.54478 0.0
N624 N 0.71452 0.1906 0.59745 0.0
N625 N 0.64184 0.07912 0.51589 0.0
C626 C 0.70191 0.15758 0.58701 0.0
C627 C 0.66394 0.09998 0.54537 0.0
N628 N 0.66607 0.15632 0.66811 0.0
N629 N 0.71527 0.08132 0.49562 0.0
H630 H 0.61523 0.07615 0.52527 0.0
H631 H 0.64901 0.06835 0.47843 0.0
H632 H 0.74178 0.08305 0.48492 0.0
H633 H 0.70381 0.0572 0.4858 0.0
H634 H 0.68261 0.17395 0.688 0.0
H635 H 0.64668 0.14562 0.69335 0.0
H636 H 0.70243 0.20759 0.62507 0.0
H637 H 0.7342 0.20263 0.57427 0.0
C638 C 0.0881 0.436 0.33989 0.0
C639 C 0.11389 0.41372 0.31638 0.0
C640 C 0.12479 0.45793 0.24574 0.0
C641 C 0.09453 0.47667 0.26366 0.0
N642 N 0.04201 0.47749 0.3201 0.0
N643 N 0.15352 0.40102 0.2417 0.0
C644 C 0.07461 0.4641 0.30865 0.0
C645 C 0.13154 0.42395 0.26785 0.0
N646 N 0.07716 0.43106 0.39254 0.0
N647 N 0.14777 0.47293 0.20949 0.0
H648 H 0.15851 0.37553 0.25588 0.0
H649 H 0.16417 0.40624 0.20328 0.0
H650 H 0.1448 0.49855 0.19446 0.0
H651 H 0.17175 0.4614 0.1991 0.0
H652 H 0.06037 0.44863 0.41234 0.0
H653 H 0.08815 0.41206 0.41833 0.0
H654 H 0.02567 0.46672 0.35009 0.0
H655 H 0.02951 0.49623 0.29566 0.0
C656 C 0.65431 0.60946 0.46578 0.0
C657 C 0.65659 0.59081 0.4161 0.0
C658 C 0.72057 0.58951 0.42275 0.0
C659 C 0.71832 0.61329 0.467 0.0
N660 N 0.68336 0.64897 0.5281 0.0
N661 N 0.69158 0.56533 0.34382 0.0
C662 C 0.68528 0.62381 0.48843 0.0
C663 C 0.68961 0.58095 0.39386 0.0
N664 N 0.62249 0.61318 0.49126 0.0
N665 N 0.75215 0.57462 0.4091 0.0
H666 H 0.66952 0.55836 0.32121 0.0
H667 H 0.71514 0.56156 0.32286 0.0
H668 H 0.7754 0.58002 0.42992 0.0
H669 H 0.75471 0.55444 0.38072 0.0
H670 H 0.61961 0.62367 0.53017 0.0
H671 H 0.59936 0.60248 0.47565 0.0
H672 H 0.65982 0.66038 0.54086 0.0
H673 H 0.70544 0.66079 0.54519 0.0
C674 C 0.07329 0.95816 0.67379 0.0
C675 C 0.09247 0.96939 0.7199 0.0
C676 C 0.12562 0.91415 0.71954 0.0
C677 C 0.10968 0.90542 0.6693 0.0
N678 N 0.07656 0.92521 0.59049 0.0
N679 N 0.14265 0.96155 0.77928 0.0
C680 C 0.08589 0.92917 0.6439 0.0
C681 C 0.12033 0.9484 0.7409 0.0
N682 N 0.0423 0.97402 0.65963 0.0
N683 N 0.14479 0.88961 0.74767 0.0
H684 H 0.14086 -0.01277 0.79405 0.0
H685 H 0.16521 0.94827 0.79201 0.0
H686 H 0.14839 0.86383 0.73405 0.0
H687 H 0.15408 0.89385 0.78701 0.0
H688 H 0.02618 0.96437 0.62883 0.0
H689 H 0.03063 -0.00601 0.68251 0.0
H690 H 0.06158 0.94388 0.56949 0.0
H691 H 0.08723 0.90584 0.56534 0.0
C692 C 0.76946 0.29687 0.92927 0.0
C693 C 0.75588 0.31958 0.96999 0.0
C694 C 0.81067 0.35263 0.96689 0.0
C695 C 0.81958 0.33611 0.91705 0.0
N696 N 0.8016 0.29603 0.84492 0.0
N697 N 0.762 0.3751 0.01862 0.0
C698 C 0.79767 0.30886 0.89654 0.0
C699 C 0.77608 0.34904 0.98701 0.0
N700 N 0.75597 0.26384 0.92214 0.0
N701 N 0.83502 0.3716 -0.00492 0.0
H702 H 0.73556 0.37635 0.02951 0.0
H703 H 0.77578 0.39806 0.02788 0.0
H704 H 0.86137 0.37295 0.98321 0.0
H705 H 0.82983 0.38207 0.03352 0.0
H706 H 0.76701 0.24578 0.89506 0.0
H707 H 0.73691 0.25306 0.94799 0.0
H708 H 0.78384 0.27826 0.82802 0.0
H709 H 0.81948 0.30594 0.81659 0.0
C710 C 0.41185 0.03505 0.2218 0.0
C711 C 0.38371 0.01446 0.24318 0.0
C712 C 0.34391 0.06434 0.23307 0.0
C713 C 0.36898 0.08045 0.19824 0.0
N714 N 0.43055 0.09204 0.18597 0.0
N715 N 0.32274 0.00941 0.27087 0.0
C716 C 0.4044 0.06915 0.2006 0.0
C717 C 0.34981 0.02929 0.25057 0.0
N718 N 0.44525 0.02161 0.22092 0.0
N719 N 0.31581 0.08317 0.25193 0.0
H720 H 0.32566 0.9833 0.28365 0.0
H721 H 0.2967 0.01808 0.271 0.0
H722 H 0.31356 0.11031 0.24538 0.0
H723 H 0.29802 0.07326 0.28052 0.0
H724 H 0.4662 0.03336 0.20045 0.0
H725 H 0.45199 -0.00208 0.24012 0.0
H726 H 0.45728 0.08644 0.18886 0.0
H727 H 0.42533 0.11844 0.17667 0.0
C728 C 0.25989 0.38696 0.49392 0.0
C729 C 0.24 0.35845 0.51605 0.0
C730 C 0.27538 0.35978 0.59809 0.0
C731 C 0.29956 0.38222 0.57142 0.0
N732 N 0.31656 0.41632 0.49242 0.0
N733 N 0.23582 0.31161 0.58389 0.0
C734 C 0.29227 0.39597 0.51896 0.0
C735 C 0.2494 0.34326 0.56698 0.0
N736 N 0.24753 0.406 0.45059 0.0
N737 N 0.27807 0.3534 0.6528 0.0
H738 H 0.21975 0.296 0.55957 0.0
H739 H 0.24437 0.29866 0.61905 0.0
H740 H 0.29686 0.36586 0.67693 0.0
H741 H 0.25934 0.33896 0.67462 0.0
H742 H 0.25983 0.42876 0.43608 0.0
H743 H 0.22318 0.40123 0.43275 0.0
H744 H 0.31413 0.42375 0.45164 0.0
H745 H 0.34014 0.42396 0.51044 0.0
C746 C 0.82185 0.0307 0.34622 0.0
C747 C 0.83105 0.06448 0.32597 0.0
C748 C 0.86547 0.03876 0.2524 0.0
C749 C 0.85695 0.00483 0.2732 0.0
N750 N 0.8194 0.9679 0.32881 0.0
N751 N 0.85166 0.10119 0.25226 0.0
C752 C 0.83256 0.00058 0.3166 0.0
C753 C 0.84941 0.0686 0.27618 0.0
N754 N 0.8047 0.02739 0.39505 0.0
N755 N 0.89061 0.04269 0.21278 0.0
H756 H 0.83981 0.12347 0.26921 0.0
H757 H 0.86206 0.10545 0.21344 0.0
H758 H 0.90378 0.02153 0.19495 0.0
H759 H 0.90054 0.0671 0.2006 0.0
H760 H 0.80121 0.00336 0.41517 0.0
H761 H 0.79551 0.04901 0.41704 0.0
H762 H 0.79915 0.96367 0.35678 0.0
H763 H 0.82641 0.94531 0.30718 0.0
C764 C 0.15646 0.61071 -0.00653 0.0
C765 C 0.15833 0.59103 0.04249 0.0
C766 C 0.22224 0.59009 0.03721 0.0
C767 C 0.22026 0.61564 -0.005 0.0
N768 N 0.18646 0.65048 0.93122 0.0
N769 N 0.19219 0.56146 0.11232 0.0
C770 C 0.18766 0.62555 0.97174 0.0
C771 C 0.19098 0.5798 0.06417 0.0
N772 N 0.12472 0.61526 0.96841 0.0
N773 N 0.25396 0.57558 0.05101 0.0
H774 H 0.1698 0.55258 0.13277 0.0
H775 H 0.21535 0.55667 0.13366 0.0
H776 H 0.27748 0.5826 0.03176 0.0
H777 H 0.25661 0.55435 0.07783 0.0
H778 H 0.12177 0.62698 0.93021 0.0
H779 H 0.10159 0.60418 0.98391 0.0
H780 H 0.16322 0.66159 0.91677 0.0
H781 H 0.20894 0.6618 0.91408 0.0
C782 C 0.59179 0.93291 0.73949 0.0
C783 C 0.60076 0.96641 0.76032 0.0
C784 C 0.64368 0.94014 0.82182 0.0
C785 C 0.63411 0.90666 0.80136 0.0
N786 N 0.60864 0.87159 0.73053 0.0
N787 N 0.64105 0.00356 0.80966 0.0
C788 C 0.6116 0.90336 0.75612 0.0
C789 C 0.62875 0.97062 0.79767 0.0
N790 N 0.56295 0.92907 0.70703 0.0
N791 N 0.66502 0.94267 0.86633 0.0
H792 H 0.63032 0.02657 0.79305 0.0
H793 H 0.66365 0.00796 0.83248 0.0
H794 H 0.67746 0.92092 0.88394 0.0
H795 H 0.66912 0.96609 0.88737 0.0
H796 H 0.55337 0.90469 0.69457 0.0
H797 H 0.5465 0.95013 0.69701 0.0
H798 H 0.5946 0.86809 0.69459 0.0
H799 H 0.62329 0.84958 0.74265 0.0
C800 C 0.40326 0.06143 0.89727 0.0
C801 C 0.3872 0.09494 0.88926 0.0
C802 C 0.40153 0.09161 0.79207 0.0
C803 C 0.42558 0.06392 0.80309 0.0
N804 N 0.44473 0.01771 0.86371 0.0
N805 N 0.37482 0.14415 0.82853 0.0
C806 C 0.42473 0.04715 0.85503 0.0
C807 C 0.38693 0.11051 0.83637 0.0
N808 N 0.39713 0.04294 0.94436 0.0
N809 N 0.392 0.09955 0.73983 0.0
H810 H 0.36628 0.16036 0.86008 0.0
H811 H 0.37686 0.15737 0.79129 0.0
H812 H 0.39879 0.08371 0.7069 0.0
H813 H 0.3729 0.11836 0.73044 0.0
H814 H 0.4057 0.01717 0.95091 0.0
H815 H 0.3806 0.05218 0.97516 0.0
H816 H 0.44915 0.00669 0.90205 0.0
H817 H 0.45749 0.00472 0.83183 0.0
C818 C 0.63524 0.65248 0.12777 0.0
C819 C 0.60291 0.66035 0.15404 0.0
C820 C 0.59513 0.71292 0.09747 0.0
C821 C 0.62668 0.70418 0.06911 0.0
N822 N 0.6751 0.66474 0.05223 0.0
N823 N 0.54958 0.69462 0.16081 0.0
C824 C 0.64627 0.67359 0.08271 0.0
C825 C 0.5822 0.68969 0.13816 0.0
N826 N 0.65552 0.62526 0.14678 0.0
N827 N 0.57768 0.74371 0.08594 0.0
H828 H 0.5397 0.6791 0.1926 0.0
H829 H 0.53117 0.7126 0.14606 0.0
H830 H 0.58406 0.76026 0.05332 0.0
H831 H 0.55771 0.75402 0.11023 0.0
H832 H 0.68084 0.61989 0.13297 0.0
H833 H 0.64778 0.6091 0.17925 0.0
H834 H 0.68877 0.6411 0.05644 0.0
H835 H 0.68432 0.68038 0.02008 0.0
C836 C 0.02342 0.85627 0.33319 0.0
C837 C 0.02217 0.89303 0.32241 0.0
C838 C 0.06447 0.9033 0.39574 0.0
C839 C 0.0623 0.867 0.40993 0.0
N840 N 0.03364 0.81059 0.40003 0.0
N841 N 0.0387 0.95235 0.34517 0.0
C842 C 0.04005 0.84396 0.38091 0.0
C843 C 0.04199 0.91691 0.35415 0.0
N844 N 0.00899 0.8329 0.29745 0.0
N845 N 0.08795 0.92451 0.42186 0.0
H846 H 0.02345 0.96265 0.31354 0.0
H847 H 0.04958 0.97141 0.37039 0.0
H848 H 0.10372 0.91541 0.45373 0.0
H849 H 0.0932 0.95041 0.41008 0.0
H850 H 0.013 0.80575 0.30028 0.0
H851 H -0.00392 0.84065 0.26198 0.0
H852 H 0.01434 0.79424 0.38386 0.0
H853 H 0.04496 0.80042 0.43541 0.0
C854 C 0.8125 0.29542 0.59761 0.0
C855 C 0.83596 0.28815 0.55406 0.0
C856 C 0.87889 0.3292 0.59203 0.0
C857 C 0.85826 0.33094 0.64024 0.0
N858 N 0.80503 0.31761 0.68958 0.0
N859 N 0.89265 0.29682 0.51038 0.0
C860 C 0.82471 0.31488 0.64304 0.0
C861 C 0.86912 0.30536 0.55054 0.0
N862 N 0.77859 0.28367 0.59498 0.0
N863 N 0.90825 0.34974 0.58624 0.0
H864 H 0.88693 0.28045 0.47778 0.0
H865 H 0.919 0.30425 0.51099 0.0
H866 H 0.91763 0.36625 0.61663 0.0
H867 H 0.92185 0.35266 0.54957 0.0
H868 H 0.7592 0.29014 0.62325 0.0
H869 H 0.76907 0.26989 0.56137 0.0
H870 H 0.78221 0.30317 0.69688 0.0
H871 H 0.81244 0.33348 0.7222 0.0
C872 C 0.52946 0.84084 0.07711 0.0
C873 C 0.55925 0.86226 0.06605 0.0
C874 C 0.54141 0.90368 0.13734 0.0
C875 C 0.51334 0.88074 0.15106 0.0
N876 N 0.48343 0.82499 0.14091 0.0
N877 N 0.59601 0.91204 0.08717 0.0
C878 C 0.50802 0.84869 0.12269 0.0
C879 C 0.56597 0.89316 0.09664 0.0
N880 N 0.52157 0.81301 0.04398 0.0
N881 N 0.54399 0.93571 0.16235 0.0
H882 H 0.61365 0.90588 0.05594 0.0
H883 H 0.60447 0.9326 0.11179 0.0
H884 H 0.5267 0.9437 0.19303 0.0
H885 H 0.5617 0.95525 0.15055 0.0
H886 H 0.4979 0.79926 0.04591 0.0
H887 H 0.53749 0.80494 0.01171 0.0
H888 H 0.48126 0.79935 0.12629 0.0
H889 H 0.46669 0.82988 0.17377 0.0
C890 C 0.32346 0.31904 0.86425 0.0
C891 C 0.33807 0.3036 0.81648 0.0
C892 C 0.31159 0.24739 0.8429 0.0
C893 C 0.30705 0.2598 0.89685 0.0
N894 N 0.29936 0.31011 0.95524 0.0
N895 N 0.34905 0.25047 0.76402 0.0
C896 C 0.31004 0.29662 0.90643 0.0
C897 C 0.33264 0.26713 0.80633 0.0
N898 N 0.32114 0.35494 0.86816 0.0
N899 N 0.29484 0.21767 0.8257 0.0
H900 H 0.36664 0.26289 0.73761 0.0
H901 H 0.34805 0.22318 0.75903 0.0
H902 H 0.27528 0.20541 0.84888 0.0
H903 H 0.2962 0.20893 0.78549 0.0
H904 H 0.30843 0.36791 0.89992 0.0
H905 H 0.32902 0.37191 0.8368 0.0
H906 H 0.30527 0.33552 0.96815 0.0
H907 H 0.2842 0.2955 0.98279 0.0
C908 C 0.92303 0.08079 0.67 0.0
C909 C 0.95484 0.09998 0.67461 0.0
C910 C 0.9402 0.13496 0.59373 0.0
C911 C 0.90724 0.11759 0.59113 0.0
N912 N 0.86494 0.07706 0.62938 0.0
N913 N -0.01009 0.15073 0.64945 0.0
C914 C 0.89788 0.09143 0.6302 0.0
C915 C 0.96241 0.12854 0.63879 0.0
N916 N 0.91749 0.05184 0.70237 0.0
N917 N 0.95047 0.15758 0.55304 0.0
H918 H 0.00652 0.14762 0.68286 0.0
H919 H -0.00577 0.17431 0.62846 0.0
H920 H 0.93454 0.16438 0.5202 0.0
H921 H 0.97592 0.16748 0.54945 0.0
H922 H 0.89654 0.03452 0.69743 0.0
H923 H 0.9353 0.04376 0.73222 0.0
H924 H 0.85511 0.06067 0.66002 0.0
H925 H 0.84656 0.08317 0.59928 0.0
C926 C 0.10713 0.71547 0.36824 0.0
C927 C 0.13603 0.70646 0.40196 0.0
C928 C 0.14615 0.65337 0.34766 0.0
C929 C 0.1196 0.66482 0.31103 0.0
N930 N 0.08083 0.71117 0.27945 0.0
N931 N 0.186 0.6693 0.42081 0.0
C932 C 0.10224 0.69742 0.31887 0.0
C933 C 0.15647 0.676 0.39097 0.0
N934 N 0.08285 0.73975 0.38509 0.0
N935 N 0.16106 0.62084 0.34131 0.0
H936 H 0.19394 0.68536 0.45288 0.0
H937 H 0.20386 0.64937 0.41144 0.0
H938 H 0.1552 0.60455 0.3084 0.0
H939 H 0.17778 0.60935 0.36989 0.0
H940 H 0.05931 0.74425 0.36459 0.0
H941 H 0.08405 0.7521 0.4229 0.0
H942 H 0.07047 0.73663 0.28137 0.0
H943 H 0.07623 0.6988 0.24239 0.0
C944 C 0.90919 0.57242 0.37417 0.0
C945 C 0.90087 0.60794 0.38672 0.0
C946 C 0.93345 0.62838 0.30649 0.0
C947 C 0.94562 0.59348 0.29793 0.0
N948 N 0.94732 0.53222 0.32464 0.0
N949 N 0.91196 0.67025 0.37229 0.0
C950 C 0.93407 0.56539 0.33206 0.0
C951 C 0.91462 0.6361 0.35471 0.0
N952 N 0.89273 0.5456 0.40156 0.0
N953 N 0.94023 0.65441 0.26907 0.0
H954 H 0.8999 0.67742 0.40882 0.0
H955 H 0.92512 0.69125 0.35372 0.0
H956 H 0.95454 0.65034 0.23343 0.0
H957 H 0.92872 0.67935 0.27079 0.0
H958 H 0.89513 0.51915 0.39091 0.0
H959 H 0.8744 0.55006 0.43253 0.0
H960 H 0.9432 0.51146 0.35189 0.0
H961 H 0.96396 0.52591 0.29218 0.0
C962 C 0.11246 0.19564 0.66675 0.0
C963 C 0.12596 0.16081 0.66709 0.0
C964 C 0.15455 0.17248 0.57859 0.0
C965 C 0.13638 0.20516 0.57525 0.0
N966 N 0.08895 0.24165 0.60967 0.0
N967 N 0.15819 0.11466 0.62175 0.0
C968 C 0.11287 0.21509 0.61759 0.0
C969 C 0.14654 0.14875 0.62239 0.0
N970 N 0.09883 0.21037 0.7129 0.0
N971 N 0.17998 0.16461 0.54115 0.0
H972 H 0.15458 0.09745 0.65468 0.0
H973 H 0.16989 0.10309 0.5878 0.0
H974 H 0.18653 0.18157 0.50905 0.0
H975 H 0.1964 0.14269 0.54438 0.0
H976 H 0.09202 0.23699 0.71506 0.0
H977 H 0.09779 0.19747 0.75039 0.0
H978 H 0.06916 0.24746 0.63777 0.0
H979 H 0.08582 0.25476 0.57249 0.0
C980 C 0.53292 0.32945 0.80474 0.0
C981 C 0.52224 0.36505 0.79803 0.0
C982 C 0.56181 0.38331 0.87114 0.0
C983 C 0.56891 0.34727 0.88224 0.0
N984 N 0.55704 0.2855 0.86574 0.0
N985 N 0.52464 0.42604 0.82473 0.0
C986 C 0.55377 0.32014 0.85026 0.0
C987 C 0.53633 0.39214 0.83103 0.0
N988 N 0.52252 0.30434 0.76832 0.0
N989 N 0.57986 0.40887 0.89837 0.0
H990 H 0.50743 0.43355 0.7937 0.0
H991 H 0.53064 0.44636 0.85149 0.0
H992 H 0.5987 0.403 0.9279 0.0
H993 H 0.57826 0.43564 0.88897 0.0
H994 H 0.53284 0.27888 0.76762 0.0
H995 H 0.5057 0.30951 0.73578 0.0
H996 H 0.54292 0.26504 0.84805 0.0
H997 H 0.57131 0.27715 0.89965 0.0
C998 C 0.36924 0.79537 0.04928 0.0
C999 C 0.33486 0.78063 0.0487 0.0
C1000 C 0.31957 0.81375 0.13125 0.0
C1001 C 0.35373 0.82883 0.13111 0.0
N1002 N 0.40829 0.84036 0.08276 0.0
N1003 N 0.27519 0.781 0.0815 0.0
C1004 C 0.37742 0.82206 0.08743 0.0
C1005 C 0.30932 0.79151 0.08742 0.0
N1006 N 0.39524 0.78184 0.01676 0.0
N1007 N 0.2972 0.8203 0.17375 0.0
H1008 H 0.26701 0.76516 0.04929 0.0
H1009 H 0.25452 0.79033 0.10535 0.0
H1010 H 0.30301 0.83829 0.20446 0.0
H1011 H 0.27362 0.80691 0.17992 0.0
H1012 H 0.42176 0.78798 0.02125 0.0
H1013 H 0.39128 0.76202 0.98835 0.0
H1014 H 0.42398 0.83983 0.04787 0.0
H1015 H 0.4173 0.85822 0.11146 0.0
C1016 C 0.02117 0.34328 0.58574 0.0
C1017 C 0.05064 0.36324 0.56844 0.0
C1018 C 0.03901 0.40743 0.63895 0.0
C1019 C 0.01135 0.38594 0.65879 0.0
N1020 N 0.97958 0.33068 0.65799 0.0
N1021 N 0.08996 0.41253 0.57943 0.0
C1022 C 0.00331 0.35313 0.63398 0.0
C1023 C 0.06028 0.39487 0.59532 0.0
N1024 N 0.01022 0.3149 0.55602 0.0
N1025 N 0.04422 0.44008 0.66087 0.0
H1026 H 0.10494 0.40513 0.54563 0.0
H1027 H 0.10072 0.43346 0.60096 0.0
H1028 H 0.02949 0.44946 0.69373 0.0
H1029 H 0.06155 0.45867 0.64475 0.0
H1030 H -0.01353 0.30193 0.56286 0.0
H1031 H 0.02341 0.30588 0.52149 0.0
H1032 H 0.97557 0.30482 0.64542 0.0
H1033 H 0.96592 0.33663 0.69373 0.0
C1034 C 0.89039 0.80083 0.37885 0.0
C1035 C 0.86446 0.81994 0.34955 0.0
C1036 C 0.81751 0.7903 0.40079 0.0
C1037 C 0.84346 0.77187 0.43113 0.0
N1038 N 0.90454 0.76243 0.45478 0.0
N1039 N 0.80426 0.83744 0.33628 0.0
C1040 C 0.87989 0.77825 0.4222 0.0
C1041 C 0.82821 0.81606 0.36166 0.0
N1042 N 0.92497 0.80294 0.3633 0.0
N1043 N 0.78276 0.78254 0.40878 0.0
H1044 H 0.81142 0.85616 0.30692 0.0
H1045 H 0.77772 0.83843 0.34661 0.0
H1046 H 0.7741 0.76518 0.43915 0.0
H1047 H 0.7626 0.79196 0.38409 0.0
H1048 H 0.94457 0.78617 0.37775 0.0
H1049 H 0.93404 0.81994 0.33278 0.0
H1050 H 0.93099 0.76944 0.45494 0.0
H1051 H 0.89855 0.74368 0.48455 0.0
C1052 C 0.39688 0.63153 0.15008 0.0
C1053 C 0.39156 0.61068 0.10297 0.0
C1054 C 0.42521 0.56235 0.1441 0.0
C1055 C 0.43104 0.5836 0.19058 0.0
N1056 N 0.41031 0.63206 0.24611 0.0
N1057 N 0.39144 0.55316 0.0616 0.0
C1058 C 0.41259 0.61592 0.19659 0.0
C1059 C 0.40278 0.57498 0.10204 0.0
N1060 N 0.38951 0.66688 0.14934 0.0
N1061 N 0.44186 0.53052 0.13985 0.0
H1062 H 0.37404 0.56156 0.03139 0.0
H1063 H 0.39646 0.52615 0.0609 0.0
H1064 H 0.45627 0.5196 0.17196 0.0
H1065 H 0.44237 0.51566 0.10429 0.0
H1066 H 0.39684 0.68388 0.18053 0.0
H1067 H 0.37936 0.6801 0.11552 0.0
H1068 H 0.39463 0.65418 0.25295 0.0
H1069 H 0.42036 0.62126 0.28185 0.0
C1070 C 0.58261 0.17155 0.94215 0.0
C1071 C 0.61863 0.18164 0.94062 0.0
C1072 C 0.62756 0.14648 0.85809 0.0
C1073 C 0.59072 0.14113 0.85534 0.0
N1074 N 0.53238 0.15073 0.89119 0.0
N1075 N 0.67587 0.17881 0.89861 0.0
C1076 C 0.56805 0.15374 0.89684 0.0
C1077 C 0.64133 0.16881 0.89919 0.0
N1078 N 0.56203 0.1794 0.9863 0.0
N1079 N 0.64925 0.1297 0.82196 0.0
H1080 H 0.68722 0.19301 0.93034 0.0
H1081 H 0.69292 0.17423 0.86613 0.0
H1082 H 0.63985 0.11318 0.79142 0.0
H1083 H 0.67655 0.12986 0.82459 0.0
H1084 H 0.53686 0.16924 -0.00784 0.0
H1085 H 0.57074 0.19355 0.01978 0.0
H1086 H 0.51428 0.16353 0.91616 0.0
H1087 H 0.52053 0.13773 0.85872 0.0
C1088 C 0.26631 0.23838 0.24022 0.0
C1089 C 0.25089 0.22706 0.19076 0.0
C1090 C 0.19185 0.23774 0.22808 0.0
C1091 C 0.20726 0.24649 0.27877 0.0
N1092 N 0.2582 0.25064 0.33646 0.0
N1093 N 0.19952 0.21299 0.1378 0.0
C1094 C 0.24428 0.24573 0.28569 0.0
C1095 C 0.21376 0.22587 0.18478 0.0
N1096 N 0.30202 0.24199 0.24372 0.0
N1097 N 0.15647 0.24214 0.22074 0.0
H1098 H 0.21464 0.2066 0.10367 0.0
H1099 H 0.17298 0.20706 0.13334 0.0
H1100 H 0.13952 0.25006 0.25189 0.0
H1101 H 0.1441 0.24018 0.18311 0.0
H1102 H 0.31467 0.25382 0.27642 0.0
H1103 H 0.31917 0.23551 0.21207 0.0
H1104 H 0.28461 0.24684 0.34577 0.0
H1105 H 0.24278 0.25567 0.37082 0.0
C1106 C 0.51436 0.49466 0.49889 0.0
C1107 C 0.49712 0.49682 0.44773 0.0
C1108 C 0.45857 0.44767 0.47325 0.0
C1109 C 0.47369 0.44765 0.52594 0.0
N1110 N 0.51313 0.47279 0.59196 0.0
N1111 N 0.45186 0.4774 0.38605 0.0
C1112 C 0.50111 0.47132 0.53949 0.0
C1113 C 0.46887 0.47392 0.43486 0.0
N1114 N 0.54334 0.51501 0.50865 0.0
N1115 N 0.43512 0.42183 0.45968 0.0
H1116 H 0.4599 0.49488 0.3555 0.0
H1117 H 0.42857 0.46445 0.37667 0.0
H1118 H 0.42734 0.40204 0.48692 0.0
H1119 H 0.42547 0.41807 0.42052 0.0
H1120 H 0.55976 0.51145 0.5421 0.0
H1121 H 0.5523 0.53445 0.48174 0.0
H1122 H 0.52989 0.49233 0.60621 0.0
H1123 H 0.5046 0.45567 0.62271 0.0
C1124 C 0.2047 0.73832 0.74886 0.0
C1125 C 0.21509 0.73885 0.69336 0.0
C1126 C 0.27281 0.71461 0.71722 0.0
C1127 C 0.26348 0.717 0.77305 0.0
N1128 N 0.22233 0.73349 0.84357 0.0
N1129 N 0.25931 0.73091 0.62379 0.0
C1130 C 0.22988 0.72952 0.78935 0.0
C1131 C 0.24919 0.72774 0.67717 0.0
N1132 N 0.1705 0.74539 0.76247 0.0
N1133 N 0.30396 0.69919 0.7026 0.0
H1134 H 0.24224 0.73911 0.59301 0.0
H1135 H 0.28505 0.7274 0.61029 0.0
H1136 H 0.32244 0.6905 0.73104 0.0
H1137 H 0.31065 0.69298 0.66261 0.0
H1138 H 0.16016 0.74205 0.80148 0.0
H1139 H 0.15147 0.75196 0.73359 0.0
H1140 H 0.19981 0.74592 0.85818 0.0
H1141 H 0.23978 0.72643 0.87449 0.0
C1142 C -0.00602 0.52568 0.96855 0.0
C1143 C -0.01243 0.5193 0.02464 0.0
C1144 C 0.96162 0.46196 0.00437 0.0
C1145 C 0.96664 0.4689 0.948 0.0
N1146 N 0.98069 0.50989 0.87534 0.0
N1147 N 0.95966 0.48551 0.09604 0.0
C1148 C 0.98089 0.5015 0.92966 0.0
C1149 C 0.96946 0.48873 0.04254 0.0
N1150 N 0.01347 0.55428 0.9527 0.0
N1151 N 0.9509 0.42926 0.02145 0.0
H1152 H 0.96524 0.50474 0.12504 0.0
H1153 H 0.94339 0.46551 0.11074 0.0
H1154 H 0.94546 0.40872 -0.00536 0.0
H1155 H 0.95027 0.4214 0.06218 0.0
H1156 H 0.02276 0.55804 0.9131 0.0
H1157 H 0.0221 0.57339 0.98002 0.0
H1158 H -0.01292 0.5348 0.86019 0.0
H1159 H 0.97135 0.49286 0.84547 0.0
C1160 C 0.70254 0.73421 0.73231 0.0
C1161 C 0.71593 0.73634 0.78598 0.0
C1162 C 0.77403 0.71732 0.7545 0.0
C1163 C 0.76138 0.71818 0.70019 0.0
N1164 N 0.71566 0.73175 0.63558 0.0
N1165 N 0.76451 0.73366 0.84878 0.0
C1166 C 0.72612 0.72774 0.68858 0.0
C1167 C 0.75175 0.72896 0.79727 0.0
N1168 N 0.66728 0.73833 0.72336 0.0
N1169 N 0.80667 0.70387 0.76542 0.0
H1170 H 0.74847 0.74001 0.88192 0.0
H1171 H 0.79118 0.7331 0.85822 0.0
H1172 H 0.82403 0.69551 0.73511 0.0
H1173 H 0.81573 0.69866 0.80465 0.0
H1174 H 0.65528 0.73359 0.68606 0.0
H1175 H 0.64937 0.74381 0.75449 0.0
H1176 H 0.69134 0.74194 0.62414 0.0
H1177 H 0.73253 0.72772 0.60254 0.0
C1178 C 0.6991 0.26222 0.26496 0.0
C1179 C 0.70146 0.24745 0.21211 0.0
C1180 C 0.7524 0.21213 0.23963 0.0
C1181 C 0.75138 0.22856 0.29141 0.0
N1182 N 0.72706 0.2719 0.35243 0.0
N1183 N 0.73365 0.2134 0.14548 0.0
C1184 C 0.72576 0.25455 0.30374 0.0
C1185 C 0.72889 0.22361 0.19843 0.0
N1186 N 0.67069 0.28263 0.27837 0.0
N1187 N 0.77569 0.18529 0.23005 0.0
H1188 H 0.71701 0.221 0.11382 0.0
H1189 H 0.75564 0.19958 0.13188 0.0
H1190 H 0.79505 0.17777 0.25782 0.0
H1191 H 0.77461 0.16914 0.19591 0.0
H1192 H 0.66544 0.29152 0.31761 0.0
H1193 H 0.65059 0.2884 0.25087 0.0
H1194 H 0.71144 0.29361 0.36183 0.0
H1195 H 0.74565 0.26621 0.38238 0.0
C1196 C 0.96 -0.0034 0.94782 0.0
C1197 C -0.01441 0.02258 0.95903 0.0
C1198 C -0.01265 0.00416 0.0549 0.0
C1199 C 0.96507 0.97542 0.04213 0.0
N1200 N 0.93229 0.94186 0.97627 0.0
N1201 N 0.02531 0.0509 0.02137 0.0
C1202 C 0.95165 0.97114 0.98859 0.0
C1203 C -0.00039 0.02643 0.01218 0.0
N1204 N 0.94384 -0.00367 0.89812 0.0
N1205 N -0.0043 0.0109 0.10803 0.0
H1206 H 0.03322 0.06927 -0.00806 0.0
H1207 H 0.03994 0.05198 0.0571 0.0
H1208 H -0.01267 -0.00495 0.14047 0.0
H1209 H 0.0086 0.03364 0.12058 0.0
H1210 H 0.92256 0.98023 0.88885 0.0
H1211 H 0.94983 0.0145 0.86735 0.0
H1212 H 0.92466 0.9353 0.93692 0.0
H1213 H 0.92612 0.92234 0.00491 0.0
C1214 C 0.49329 0.01402 0.47638 0.0
C1215 C 0.50622 -0.00097 0.52548 0.0
C1216 C 0.49902 0.93937 0.48877 0.0
C1217 C 0.48616 0.95443 0.43985 0.0
N1218 N 0.47833 0.00504 0.38133 0.0
N1219 N 0.52787 0.94835 0.57536 0.0
C1220 C 0.48557 -0.00847 0.43193 0.0
C1221 C 0.51136 0.96196 0.53053 0.0
N1222 N 0.48808 0.04967 0.47251 0.0
N1223 N 0.49754 0.90362 0.49647 0.0
H1224 H 0.53554 0.96378 0.60816 0.0
H1225 H 0.53609 0.92222 0.57865 0.0
H1226 H 0.48953 0.88622 0.46617 0.0
H1227 H 0.50226 0.89122 0.53371 0.0
H1228 H 0.47479 0.06181 0.44047 0.0
H1229 H 0.49546 0.06726 0.50294 0.0
H1230 H 0.48048 0.03165 0.37117 0.0
H1231 H 0.47314 -0.01091 0.34777 0.0
loop_
_geom_bond_atom_site_label_1
_geom_bond_atom_site_label_2
_geom_bond_distance
_geom_bond_site_symmetry_2
_ccdc_geom_bond_type
O0 Zn1 1.953 . S
O0 C16 1.225 . S
Zn1 O0 1.953 . S
Zn1 O2 1.949 1_556 S
Zn1 O8 1.919 . S
Zn1 O13 1.924 . S
O2 Zn1 1.949 1_554 S
O2 Zn3 1.923 . S
O2 Zn4 1.950 . S
O2 Zn5 1.945 . S
Zn3 O2 1.923 . S
Zn3 O6 1.933 . S
Zn3 O9 1.941 1_554 S
Zn3 O10 1.965 . S
Zn4 O2 1.950 . S
Zn4 O11 1.938 . S
Zn4 O12 1.906 . S
Zn4 O22 1.953 . S
Zn5 O2 1.945 . S
Zn5 O7 1.932 . S
Zn5 O14 1.977 . S
Zn5 O15 1.910 . S
O6 Zn3 1.933 . S
O6 C17 1.226 . S
O7 Zn5 1.932 . S
O7 C17 1.307 . S
O8 Zn1 1.919 . S
O8 C19 1.253 . S
O9 Zn3 1.941 1_556 S
O9 C19 1.283 . S
O10 Zn3 1.965 . S
O10 C18 1.303 . S
O11 Zn4 1.938 . S
O11 C18 1.247 . S
O12 Zn4 1.906 . S
O12 C20 1.304 . S
O13 Zn1 1.924 . S
O13 C21 1.311 . S
O14 Zn5 1.977 . S
O14 C20 1.272 . S
O15 Zn5 1.910 . S
O15 C21 1.231 1_554 S
C16 O0 1.225 . S
C16 O22 1.298 1_556 S
C17 O6 1.226 . S
C17 O7 1.307 . S
C18 O10 1.303 . S
C18 O11 1.247 . S
C19 O8 1.253 . S
C19 O9 1.283 . S
C20 O12 1.304 . S
C20 O14 1.272 . S
C21 O13 1.311 . S
C21 O15 1.231 1_556 S
O22 Zn4 1.953 . S
O22 C16 1.298 1_554 S
O23 Zn24 1.953 . S
O23 C39 1.225 . S
Zn24 O23 1.953 . S
Zn24 O25 1.949 . S
Zn24 O31 1.919 . S
Zn24 O36 1.924 . S
O25 Zn24 1.949 . S
O25 Zn26 1.923 . S
O25 Zn27 1.950 . S
O25 Zn28 1.945 . S
Zn26 O25 1.923 . S
Zn26 O29 1.933 . S
Zn26 O32 1.941 . S
Zn26 O33 1.965 . S
Zn27 O25 1.950 . S
Zn27 O34 1.938 . S
Zn27 O35 1.906 . S
Zn27 O45 1.953 . S
Zn28 O25 1.945 . S
Zn28 O30 1.932 . S
Zn28 O37 1.977 . S
Zn28 O38 1.910 . S
O29 Zn26 1.933 . S
O29 C40 1.226 . S
O30 Zn28 1.932 . S
O30 C40 1.307 . S
O31 Zn24 1.919 . S
O31 C42 1.253 . S
O32 Zn26 1.941 . S
O32 C42 1.283 . S
O33 Zn26 1.965 . S
O33 C41 1.303 . S
O34 Zn27 1.938 . S
O34 C41 1.247 . S
O35 Zn27 1.906 . S
O35 C43 1.304 . S
O36 Zn24 1.924 . S
O36 C44 1.311 . S
O37 Zn28 1.977 . S
O37 C43 1.272 . S
O38 Zn28 1.910 . S
O38 C44 1.231 . S
C39 O23 1.225 . S
C39 O45 1.298 . S
C40 O29 1.226 . S
C40 O30 1.307 . S
C41 O33 1.303 . S
C41 O34 1.247 . S
C42 O31 1.253 . S
C42 O32 1.283 . S
C43 O35 1.304 . S
C43 O37 1.272 . S
C44 O36 1.311 . S
C44 O38 1.231 . S
O45 Zn27 1.953 . S
O45 C39 1.298 . S
O46 Zn47 1.953 . S
O46 C62 1.225 . S
Zn47 O46 1.953 . S
Zn47 O48 1.949 . S
Zn47 O54 1.919 . S
Zn47 O59 1.924 . S
O48 Zn47 1.949 . S
O48 Zn49 1.923 . S
O48 Zn50 1.950 . S
O48 Zn51 1.945 . S
Zn49 O48 1.923 . S
Zn49 O52 1.933 . S
Zn49 O55 1.941 . S
Zn49 O56 1.965 . S
Zn50 O48 1.950 . S
Zn50 O57 1.938 . S
Zn50 O58 1.906 . S
Zn50 O68 1.953 . S
Zn51 O48 1.945 . S
Zn51 O53 1.932 . S
Zn51 O60 1.977 . S
Zn51 O61 1.910 . S
O52 Zn49 1.933 . S
O52 C63 1.226 . S
O53 Zn51 1.932 . S
O53 C63 1.307 . S
O54 Zn47 1.919 . S
O54 C65 1.253 . S
O55 Zn49 1.941 . S
O55 C65 1.283 . S
O56 Zn49 1.965 . S
O56 C64 1.303 . S
O57 Zn50 1.938 . S
O57 C64 1.247 . S
O58 Zn50 1.906 . S
O58 C66 1.304 . S
O59 Zn47 1.924 . S
O59 C67 1.311 . S
O60 Zn51 1.977 . S
O60 C66 1.272 . S
O61 Zn51 1.910 . S
O61 C67 1.231 . S
C62 O46 1.225 . S
C62 O68 1.298 . S
C63 O52 1.226 . S
C63 O53 1.307 . S
C64 O56 1.303 . S
C64 O57 1.247 . S
C65 O54 1.253 . S
C65 O55 1.283 . S
C66 O58 1.304 . S
C66 O60 1.272 . S
C67 O59 1.311 . S
C67 O61 1.231 . S
O68 Zn50 1.953 . S
O68 C62 1.298 . S
O69 Zn70 1.953 . S
O69 C85 1.225 1_655 S
Zn70 O69 1.953 . S
Zn70 O71 1.949 . S
Zn70 O77 1.919 . S
Zn70 O82 1.924 . S
O71 Zn70 1.949 . S
O71 Zn72 1.923 . S
O71 Zn73 1.950 . S
O71 Zn74 1.945 . S
Zn72 O71 1.923 . S
Zn72 O75 1.933 . S
Zn72 O78 1.941 . S
Zn72 O79 1.965 . S
Zn73 O71 1.950 . S
Zn73 O80 1.938 . S
Zn73 O81 1.906 . S
Zn73 O91 1.953 1_655 S
Zn74 O71 1.945 . S
Zn74 O76 1.932 . S
Zn74 O83 1.977 . S
Zn74 O84 1.910 . S
O75 Zn72 1.933 . S
O75 C86 1.226 . S
O76 Zn74 1.932 . S
O76 C86 1.307 . S
O77 Zn70 1.919 . S
O77 C88 1.253 . S
O78 Zn72 1.941 . S
O78 C88 1.283 . S
O79 Zn72 1.965 . S
O79 C87 1.303 . S
O80 Zn73 1.938 . S
O80 C87 1.247 . S
O81 Zn73 1.906 . S
O81 C89 1.304 . S
O82 Zn70 1.924 . S
O82 C90 1.311 . S
O83 Zn74 1.977 . S
O83 C89 1.272 . S
O84 Zn74 1.910 . S
O84 C90 1.231 . S
C85 O69 1.225 1_455 S
C85 O91 1.298 . S
C86 O75 1.226 . S
C86 O76 1.307 . S
C87 O79 1.303 . S
C87 O80 1.247 . S
C88 O77 1.253 . S
C88 O78 1.283 . S
C89 O81 1.304 . S
C89 O83 1.272 . S
C90 O82 1.311 . S
C90 O84 1.231 . S
O91 Zn73 1.953 1_455 S
O91 C85 1.298 . S
O92 Zn93 1.953 . S
O92 C108 1.225 . S
Zn93 O92 1.953 . S
Zn93 O94 1.949 1_554 S
Zn93 O100 1.919 . S
Zn93 O105 1.924 . S
O94 Zn93 1.949 1_556 S
O94 Zn95 1.923 . S
O94 Zn96 1.950 . S
O94 Zn97 1.945 . S
Zn95 O94 1.923 . S
Zn95 O98 1.933 . S
Zn95 O101 1.941 1_556 S
Zn95 O102 1.965 . S
Zn96 O94 1.950 . S
Zn96 O103 1.938 . S
Zn96 O104 1.906 . S
Zn96 O114 1.953 . S
Zn97 O94 1.945 . S
Zn97 O99 1.932 . S
Zn97 O106 1.977 . S
Zn97 O107 1.910 . S
O98 Zn95 1.933 . S
O98 C109 1.226 . S
O99 Zn97 1.932 . S
O99 C109 1.307 . S
O100 Zn93 1.919 . S
O100 C111 1.253 . S
O101 Zn95 1.941 1_554 S
O101 C111 1.283 . S
O102 Zn95 1.965 . S
O102 C110 1.303 . S
O103 Zn96 1.938 . S
O103 C110 1.247 . S
O104 Zn96 1.906 . S
O104 C112 1.304 . S
O105 Zn93 1.924 . S
O105 C113 1.311 . S
O106 Zn97 1.977 . S
O106 C112 1.272 . S
O107 Zn97 1.910 . S
O107 C113 1.231 1_556 S
C108 O92 1.225 . S
C108 O114 1.298 1_554 S
C109 O98 1.226 . S
C109 O99 1.307 . S
C110 O102 1.303 . S
C110 O103 1.247 . S
C111 O100 1.253 . S
C111 O101 1.283 . S
C112 O104 1.304 . S
C112 O106 1.272 . S
C113 O105 1.311 . S
C113 O107 1.231 1_554 S
O114 Zn96 1.953 . S
O114 C108 1.298 1_556 S
O115 Zn116 1.953 . S
O115 C131 1.225 . S
Zn116 O115 1.953 . S
Zn116 O117 1.949 . S
Zn116 O123 1.919 . S
Zn116 O128 1.924 . S
O117 Zn116 1.949 . S
O117 Zn118 1.923 . S
O117 Zn119 1.950 . S
O117 Zn120 1.945 . S
Zn118 O117 1.923 . S
Zn118 O121 1.933 . S
Zn118 O124 1.941 . S
Zn118 O125 1.965 . S
Zn119 O117 1.950 . S
Zn119 O126 1.938 . S
Zn119 O127 1.906 . S
Zn119 O137 1.953 . S
Zn120 O117 1.945 . S
Zn120 O122 1.932 . S
Zn120 O129 1.977 . S
Zn120 O130 1.910 . S
O121 Zn118 1.933 . S
O121 C132 1.226 . S
O122 Zn120 1.932 . S
O122 C132 1.307 . S
O123 Zn116 1.919 . S
O123 C134 1.253 . S
O124 Zn118 1.941 . S
O124 C134 1.283 . S
O125 Zn118 1.965 . S
O125 C133 1.303 . S
O126 Zn119 1.938 . S
O126 C133 1.247 . S
O127 Zn119 1.906 . S
O127 C135 1.304 . S
O128 Zn116 1.924 . S
O128 C136 1.311 . S
O129 Zn120 1.977 . S
O129 C135 1.272 . S
O130 Zn120 1.910 . S
O130 C136 1.231 . S
C131 O115 1.225 . S
C131 O137 1.298 . S
C132 O121 1.226 . S
C132 O122 1.307 . S
C133 O125 1.303 . S
C133 O126 1.247 . S
C134 O123 1.253 . S
C134 O124 1.283 . S
C135 O127 1.304 . S
C135 O129 1.272 . S
C136 O128 1.311 . S
C136 O130 1.231 . S
O137 Zn119 1.953 . S
O137 C131 1.298 . S
O138 Zn139 1.953 . S
O138 C154 1.225 . S
Zn139 O138 1.953 . S
Zn139 O140 1.949 . S
Zn139 O146 1.919 . S
Zn139 O151 1.924 . S
O140 Zn139 1.949 . S
O140 Zn141 1.923 . S
O140 Zn142 1.950 . S
O140 Zn143 1.945 . S
Zn141 O140 1.923 . S
Zn141 O144 1.933 . S
Zn141 O147 1.941 . S
Zn141 O148 1.965 . S
Zn142 O140 1.950 . S
Zn142 O149 1.938 . S
Zn142 O150 1.906 . S
Zn142 O160 1.953 . S
Zn143 O140 1.945 . S
Zn143 O145 1.932 . S
Zn143 O152 1.977 . S
Zn143 O153 1.910 . S
O144 Zn141 1.933 . S
O144 C155 1.226 . S
O145 Zn143 1.932 . S
O145 C155 1.307 . S
O146 Zn139 1.919 . S
O146 C157 1.253 . S
O147 Zn141 1.941 . S
O147 C157 1.283 . S
O148 Zn141 1.965 . S
O148 C156 1.303 . S
O149 Zn142 1.938 . S
O149 C156 1.247 . S
O150 Zn142 1.906 . S
O150 C158 1.304 . S
O151 Zn139 1.924 . S
O151 C159 1.311 . S
O152 Zn143 1.977 . S
O152 C158 1.272 . S
O153 Zn143 1.910 . S
O153 C159 1.231 . S
C154 O138 1.225 . S
C154 O160 1.298 . S
C155 O144 1.226 . S
C155 O145 1.307 . S
C156 O148 1.303 . S
C156 O149 1.247 . S
C157 O146 1.253 . S
C157 O147 1.283 . S
C158 O150 1.304 . S
C158 O152 1.272 . S
C159 O151 1.311 . S
C159 O153 1.231 . S
O160 Zn142 1.953 . S
O160 C154 1.298 . S
O161 Zn162 1.953 . S
O161 C177 1.225 1_455 S
Zn162 O161 1.953 . S
Zn162 O163 1.949 . S
Zn162 O169 1.919 . S
Zn162 O174 1.924 . S
O163 Zn162 1.949 . S
O163 Zn164 1.923 . S
O163 Zn165 1.950 . S
O163 Zn166 1.945 . S
Zn164 O163 1.923 . S
Zn164 O167 1.933 . S
Zn164 O170 1.941 . S
Zn164 O171 1.965 . S
Zn165 O163 1.950 . S
Zn165 O172 1.938 . S
Zn165 O173 1.906 . S
Zn165 O183 1.953 1_455 S
Zn166 O163 1.945 . S
Zn166 O168 1.932 . S
Zn166 O175 1.977 . S
Zn166 O176 1.910 . S
O167 Zn164 1.933 . S
O167 C178 1.226 . S
O168 Zn166 1.932 . S
O168 C178 1.307 . S
O169 Zn162 1.919 . S
O169 C180 1.253 . S
O170 Zn164 1.941 . S
O170 C180 1.283 . S
O171 Zn164 1.965 . S
O171 C179 1.303 . S
O172 Zn165 1.938 . S
O172 C179 1.247 . S
O173 Zn165 1.906 . S
O173 C181 1.304 . S
O174 Zn162 1.924 . S
O174 C182 1.311 . S
O175 Zn166 1.977 . S
O175 C181 1.272 . S
O176 Zn166 1.910 . S
O176 C182 1.231 . S
C177 O161 1.225 1_655 S
C177 O183 1.298 . S
C178 O167 1.226 . S
C178 O168 1.307 . S
C179 O171 1.303 . S
C179 O172 1.247 . S
C180 O169 1.253 . S
C180 O170 1.283 . S
C181 O173 1.304 . S
C181 O175 1.272 . S
C182 O174 1.311 . S
C182 O176 1.231 . S
O183 Zn165 1.953 1_655 S
O183 C177 1.298 . S
O184 Zn185 1.953 . S
O184 C200 1.225 . S
Zn185 O184 1.953 . S
Zn185 O186 1.949 . S
Zn185 O192 1.919 . S
Zn185 O197 1.924 . S
O186 Zn185 1.949 . S
O186 Zn187 1.923 . S
O186 Zn188 1.950 . S
O186 Zn189 1.945 . S
Zn187 O186 1.923 . S
Zn187 O190 1.933 . S
Zn187 O193 1.941 . S
Zn187 O194 1.965 . S
Zn188 O186 1.950 . S
Zn188 O195 1.938 . S
Zn188 O196 1.906 . S
Zn188 O206 1.953 . S
Zn189 O186 1.945 . S
Zn189 O191 1.932 . S
Zn189 O198 1.977 . S
Zn189 O199 1.910 . S
O190 Zn187 1.933 . S
O190 C201 1.226 . S
O191 Zn189 1.932 . S
O191 C201 1.307 . S
O192 Zn185 1.919 . S
O192 C203 1.253 . S
O193 Zn187 1.941 . S
O193 C203 1.283 . S
O194 Zn187 1.965 . S
O194 C202 1.303 . S
O195 Zn188 1.938 . S
O195 C202 1.247 . S
O196 Zn188 1.906 . S
O196 C204 1.304 . S
O197 Zn185 1.924 . S
O197 C205 1.311 . S
O198 Zn189 1.977 . S
O198 C204 1.272 . S
O199 Zn189 1.910 . S
O199 C205 1.231 . S
C200 O184 1.225 . S
C200 O206 1.298 . S
C201 O190 1.226 . S
C201 O191 1.307 . S
C202 O194 1.303 . S
C202 O195 1.247 . S
C203 O192 1.253 . S
C203 O193 1.283 . S
C204 O196 1.304 . S
C204 O198 1.272 . S
C205 O197 1.311 . S
C205 O199 1.231 . S
O206 Zn188 1.953 . S
O206 C200 1.298 . S
O207 Zn208 1.953 . S
O207 C223 1.225 1_455 S
Zn208 O207 1.953 . S
Zn208 O209 1.949 . S
Zn208 O215 1.919 . S
Zn208 O220 1.924 . S
O209 Zn208 1.949 . S
O209 Zn210 1.923 . S
O209 Zn211 1.950 . S
O209 Zn212 1.945 . S
Zn210 O209 1.923 . S
Zn210 O213 1.933 . S
Zn210 O216 1.941 . S
Zn210 O217 1.965 . S
Zn211 O209 1.950 . S
Zn211 O218 1.938 . S
Zn211 O219 1.906 . S
Zn211 O229 1.953 1_455 S
Zn212 O209 1.945 . S
Zn212 O214 1.932 . S
Zn212 O221 1.977 . S
Zn212 O222 1.910 . S
O213 Zn210 1.933 . S
O213 C224 1.226 . S
O214 Zn212 1.932 . S
O214 C224 1.307 . S
O215 Zn208 1.919 . S
O215 C226 1.253 . S
O216 Zn210 1.941 . S
O216 C226 1.283 . S
O217 Zn210 1.965 . S
O217 C225 1.303 . S
O218 Zn211 1.938 . S
O218 C225 1.247 . S
O219 Zn211 1.906 . S
O219 C227 1.304 . S
O220 Zn208 1.924 . S
O220 C228 1.311 . S
O221 Zn212 1.977 . S
O221 C227 1.272 . S
O222 Zn212 1.910 . S
O222 C228 1.231 . S
C223 O207 1.225 1_655 S
C223 O229 1.298 . S
C224 O213 1.226 . S
C224 O214 1.307 . S
C225 O217 1.303 . S
C225 O218 1.247 . S
C226 O215 1.253 . S
C226 O216 1.283 . S
C227 O219 1.304 . S
C227 O221 1.272 . S
C228 O220 1.311 . S
C228 O222 1.231 . S
O229 Zn211 1.953 1_655 S
O229 C223 1.298 . S
O230 Zn231 1.953 . S
O230 C246 1.225 . S
Zn231 O230 1.953 . S
Zn231 O232 1.949 1_556 S
Zn231 O238 1.919 . S
Zn231 O243 1.924 . S
O232 Zn231 1.949 1_554 S
O232 Zn233 1.923 . S
O232 Zn234 1.950 . S
O232 Zn235 1.945 . S
Zn233 O232 1.923 . S
Zn233 O236 1.933 . S
Zn233 O239 1.941 1_554 S
Zn233 O240 1.965 . S
Zn234 O232 1.950 . S
Zn234 O241 1.938 . S
Zn234 O242 1.906 . S
Zn234 O252 1.953 . S
Zn235 O232 1.945 . S
Zn235 O237 1.932 . S
Zn235 O244 1.977 . S
Zn235 O245 1.910 . S
O236 Zn233 1.933 . S
O236 C247 1.226 . S
O237 Zn235 1.932 . S
O237 C247 1.307 . S
O238 Zn231 1.919 . S
O238 C249 1.253 . S
O239 Zn233 1.941 1_556 S
O239 C249 1.283 . S
O240 Zn233 1.965 . S
O240 C248 1.303 . S
O241 Zn234 1.938 . S
O241 C248 1.247 . S
O242 Zn234 1.906 . S
O242 C250 1.304 . S
O243 Zn231 1.924 . S
O243 C251 1.311 . S
O244 Zn235 1.977 . S
O244 C250 1.272 . S
O245 Zn235 1.910 . S
O245 C251 1.231 1_554 S
C246 O230 1.225 . S
C246 O252 1.298 1_556 S
C247 O236 1.226 . S
C247 O237 1.307 . S
C248 O240 1.303 . S
C248 O241 1.247 . S
C249 O238 1.253 . S
C249 O239 1.283 . S
C250 O242 1.304 . S
C250 O244 1.272 . S
C251 O243 1.311 . S
C251 O245 1.231 1_556 S
O252 Zn234 1.953 . S
O252 C246 1.298 1_554 S
O253 Zn254 1.953 . S
O253 C269 1.225 . S
Zn254 O253 1.953 . S
Zn254 O255 1.949 . S
Zn254 O261 1.919 . S
Zn254 O266 1.924 . S
O255 Zn254 1.949 . S
O255 Zn256 1.923 . S
O255 Zn257 1.950 . S
O255 Zn258 1.945 . S
Zn256 O255 1.923 . S
Zn256 O259 1.933 . S
Zn256 O262 1.941 . S
Zn256 O263 1.965 . S
Zn257 O255 1.950 . S
Zn257 O264 1.938 . S
Zn257 O265 1.906 . S
Zn257 O275 1.953 . S
Zn258 O255 1.945 . S
Zn258 O260 1.932 . S
Zn258 O267 1.977 . S
Zn258 O268 1.910 . S
O259 Zn256 1.933 . S
O259 C270 1.226 . S
O260 Zn258 1.932 . S
O260 C270 1.307 . S
O261 Zn254 1.919 . S
O261 C272 1.253 . S
O262 Zn256 1.941 . S
O262 C272 1.283 . S
O263 Zn256 1.965 . S
O263 C271 1.303 . S
O264 Zn257 1.938 . S
O264 C271 1.247 . S
O265 Zn257 1.906 . S
O265 C273 1.304 . S
O266 Zn254 1.924 . S
O266 C274 1.311 . S
O267 Zn258 1.977 . S
O267 C273 1.272 . S
O268 Zn258 1.910 . S
O268 C274 1.231 . S
C269 O253 1.225 . S
C269 O275 1.298 . S
C270 O259 1.226 . S
C270 O260 1.307 . S
C271 O263 1.303 . S
C271 O264 1.247 . S
C272 O261 1.253 . S
C272 O262 1.283 . S
C273 O265 1.304 . S
C273 O267 1.272 . S
C274 O266 1.311 . S
C274 O268 1.231 . S
O275 Zn257 1.953 . S
O275 C269 1.298 . S
O276 Zn277 1.953 . S
O276 C292 1.225 . S
Zn277 O276 1.953 . S
Zn277 O278 1.949 . S
Zn277 O284 1.919 . S
Zn277 O289 1.924 . S
O278 Zn277 1.949 . S
O278 Zn279 1.923 . S
O278 Zn280 1.950 . S
O278 Zn281 1.945 . S
Zn279 O278 1.923 . S
Zn279 O282 1.933 . S
Zn279 O285 1.941 . S
Zn279 O286 1.965 . S
Zn280 O278 1.950 . S
Zn280 O287 1.938 . S
Zn280 O288 1.906 . S
Zn280 O298 1.953 . S
Zn281 O278 1.945 . S
Zn281 O283 1.932 . S
Zn281 O290 1.977 . S
Zn281 O291 1.910 . S
O282 Zn279 1.933 . S
O282 C293 1.226 . S
O283 Zn281 1.932 . S
O283 C293 1.307 . S
O284 Zn277 1.919 . S
O284 C295 1.253 . S
O285 Zn279 1.941 . S
O285 C295 1.283 . S
O286 Zn279 1.965 . S
O286 C294 1.303 . S
O287 Zn280 1.938 . S
O287 C294 1.247 . S
O288 Zn280 1.906 . S
O288 C296 1.304 . S
O289 Zn277 1.924 . S
O289 C297 1.311 . S
O290 Zn281 1.977 . S
O290 C296 1.272 . S
O291 Zn281 1.910 . S
O291 C297 1.231 . S
C292 O276 1.225 . S
C292 O298 1.298 . S
C293 O282 1.226 . S
C293 O283 1.307 . S
C294 O286 1.303 . S
C294 O287 1.247 . S
C295 O284 1.253 . S
C295 O285 1.283 . S
C296 O288 1.304 . S
C296 O290 1.272 . S
C297 O289 1.311 . S
C297 O291 1.231 . S
O298 Zn280 1.953 . S
O298 C292 1.298 . S
O299 Zn300 1.953 . S
O299 C315 1.225 1_655 S
Zn300 O299 1.953 . S
Zn300 O301 1.949 . S
Zn300 O307 1.919 . S
Zn300 O312 1.924 . S
O301 Zn300 1.949 . S
O301 Zn302 1.923 . S
O301 Zn303 1.950 . S
O301 Zn304 1.945 . S
Zn302 O301 1.923 . S
Zn302 O305 1.933 . S
Zn302 O308 1.941 . S
Zn302 O309 1.965 . S
Zn303 O301 1.950 . S
Zn303 O310 1.938 . S
Zn303 O311 1.906 . S
Zn303 O321 1.953 1_655 S
Zn304 O301 1.945 . S
Zn304 O306 1.932 . S
Zn304 O313 1.977 . S
Zn304 O314 1.910 . S
O305 Zn302 1.933 . S
O305 C316 1.226 . S
O306 Zn304 1.932 . S
O306 C316 1.307 . S
O307 Zn300 1.919 . S
O307 C318 1.253 . S
O308 Zn302 1.941 . S
O308 C318 1.283 . S
O309 Zn302 1.965 . S
O309 C317 1.303 . S
O310 Zn303 1.938 . S
O310 C317 1.247 . S
O311 Zn303 1.906 . S
O311 C319 1.304 . S
O312 Zn300 1.924 . S
O312 C320 1.311 . S
O313 Zn304 1.977 . S
O313 C319 1.272 . S
O314 Zn304 1.910 . S
O314 C320 1.231 . S
C315 O299 1.225 1_455 S
C315 O321 1.298 . S
C316 O305 1.226 . S
C316 O306 1.307 . S
C317 O309 1.303 . S
C317 O310 1.247 . S
C318 O307 1.253 . S
C318 O308 1.283 . S
C319 O311 1.304 . S
C319 O313 1.272 . S
C320 O312 1.311 . S
C320 O314 1.231 . S
O321 Zn303 1.953 1_455 S
O321 C315 1.298 . S
O322 Zn323 1.953 . S
O322 C338 1.225 . S
Zn323 O322 1.953 . S
Zn323 O324 1.949 1_554 S
Zn323 O330 1.919 . S
Zn323 O335 1.924 . S
O324 Zn323 1.949 1_556 S
O324 Zn325 1.923 . S
O324 Zn326 1.950 . S
O324 Zn327 1.945 . S
Zn325 O324 1.923 . S
Zn325 O328 1.933 . S
Zn325 O331 1.941 1_556 S
Zn325 O332 1.965 . S
Zn326 O324 1.950 . S
Zn326 O333 1.938 . S
Zn326 O334 1.906 . S
Zn326 O344 1.953 . S
Zn327 O324 1.945 . S
Zn327 O329 1.932 . S
Zn327 O336 1.977 . S
Zn327 O337 1.910 . S
O328 Zn325 1.933 . S
O328 C339 1.226 . S
O329 Zn327 1.932 . S
O329 C339 1.307 . S
O330 Zn323 1.919 . S
O330 C341 1.253 . S
O331 Zn325 1.941 1_554 S
O331 C341 1.283 . S
O332 Zn325 1.965 . S
O332 C340 1.303 . S
O333 Zn326 1.938 . S
O333 C340 1.247 . S
O334 Zn326 1.906 . S
O334 C342 1.304 . S
O335 Zn323 1.924 . S
O335 C343 1.311 . S
O336 Zn327 1.977 . S
O336 C342 1.272 . S
O337 Zn327 1.910 . S
O337 C343 1.231 1_556 S
C338 O322 1.225 . S
C338 O344 1.298 1_554 S
C339 O328 1.226 . S
C339 O329 1.307 . S
C340 O332 1.303 . S
C340 O333 1.247 . S
C341 O330 1.253 . S
C341 O331 1.283 . S
C342 O334 1.304 . S
C342 O336 1.272 . S
C343 O335 1.311 . S
C343 O337 1.231 1_554 S
O344 Zn326 1.953 . S
O344 C338 1.298 1_556 S
O345 Zn346 1.953 . S
O345 C361 1.225 . S
Zn346 O345 1.953 . S
Zn346 O347 1.949 . S
Zn346 O353 1.919 . S
Zn346 O358 1.924 . S
O347 Zn346 1.949 . S
O347 Zn348 1.923 . S
O347 Zn349 1.950 . S
O347 Zn350 1.945 . S
Zn348 O347 1.923 . S
Zn348 O351 1.933 . S
Zn348 O354 1.941 . S
Zn348 O355 1.965 . S
Zn349 O347 1.950 . S
Zn349 O356 1.938 . S
Zn349 O357 1.906 . S
Zn349 O367 1.953 . S
Zn350 O347 1.945 . S
Zn350 O352 1.932 . S
Zn350 O359 1.977 . S
Zn350 O360 1.910 . S
O351 Zn348 1.933 . S
O351 C362 1.226 . S
O352 Zn350 1.932 . S
O352 C362 1.307 . S
O353 Zn346 1.919 . S
O353 C364 1.253 . S
O354 Zn348 1.941 . S
O354 C364 1.283 . S
O355 Zn348 1.965 . S
O355 C363 1.303 . S
O356 Zn349 1.938 . S
O356 C363 1.247 . S
O357 Zn349 1.906 . S
O357 C365 1.304 . S
O358 Zn346 1.924 . S
O358 C366 1.311 . S
O359 Zn350 1.977 . S
O359 C365 1.272 . S
O360 Zn350 1.910 . S
O360 C366 1.231 . S
C361 O345 1.225 . S
C361 O367 1.298 . S
C362 O351 1.226 . S
C362 O352 1.307 . S
C363 O355 1.303 . S
C363 O356 1.247 . S
C364 O353 1.253 . S
C364 O354 1.283 . S
C365 O357 1.304 . S
C365 O359 1.272 . S
C366 O358 1.311 . S
C366 O360 1.231 . S
O367 Zn349 1.953 . S
O367 C361 1.298 . S
C368 C369 1.363 . S
C368 C374 1.379 . S
C368 N376 1.356 . S
C369 C368 1.363 . S
C369 C375 1.363 . S
C370 C371 1.363 . S
C370 C375 1.379 . S
C370 N377 1.356 . S
C371 C370 1.363 . S
C371 C374 1.363 . S
N372 C374 1.356 . S
N372 H384 0.984 1_554 S
N372 H385 0.985 . S
N373 C375 1.356 . S
N373 H378 0.984 . S
N373 H379 0.985 . S
C374 C368 1.379 . S
C374 C371 1.363 . S
C374 N372 1.356 . S
C375 C369 1.363 . S
C375 C370 1.379 . S
C375 N373 1.356 . S
N376 C368 1.356 . S
N376 H382 0.984 1_554 S
N376 H383 0.984 . S
N377 C370 1.356 . S
N377 H380 0.984 . S
N377 H381 0.985 . S
H378 N373 0.984 . S
H379 N373 0.985 . S
H380 N377 0.984 . S
H381 N377 0.985 . S
H382 N376 0.984 1_556 S
H383 N376 0.984 . S
H384 N372 0.984 1_556 S
H385 N372 0.985 . S
C386 C387 1.363 . S
C386 C392 1.379 . S
C386 N394 1.356 . S
C387 C386 1.363 . S
C387 C393 1.363 . S
C388 C389 1.363 . S
C388 C393 1.379 . S
C388 N395 1.356 . S
C389 C388 1.363 . S
C389 C392 1.363 . S
N390 C392 1.356 . S
N390 H402 0.984 . S
N390 H403 0.985 . S
N391 C393 1.356 . S
N391 H396 0.984 . S
N391 H397 0.985 . S
C392 C386 1.379 . S
C392 C389 1.363 . S
C392 N390 1.356 . S
C393 C387 1.363 . S
C393 C388 1.379 . S
C393 N391 1.356 . S
N394 C386 1.356 . S
N394 H400 0.984 . S
N394 H401 0.984 . S
N395 C388 1.356 . S
N395 H398 0.984 . S
N395 H399 0.985 . S
H396 N391 0.984 . S
H397 N391 0.985 . S
H398 N395 0.984 . S
H399 N395 0.985 . S
H400 N394 0.984 . S
H401 N394 0.984 . S
H402 N390 0.984 . S
H403 N390 0.985 . S
C404 C405 1.363 . S
C404 C410 1.379 1_455 S
C404 N412 1.356 . S
C405 C404 1.363 . S
C405 C411 1.363 . S
C406 C407 1.363 . S
C406 C411 1.379 1_655 S
C406 N413 1.356 . S
C407 C406 1.363 . S
C407 C410 1.363 . S
N408 C410 1.356 . S
N408 H420 0.984 . S
N408 H421 0.985 . S
N409 C411 1.356 . S
N409 H414 0.984 . S
N409 H415 0.985 . S
C410 C404 1.379 1_655 S
C410 C407 1.363 . S
C410 N408 1.356 . S
C411 C405 1.363 . S
C411 C406 1.379 1_455 S
C411 N409 1.356 . S
N412 C404 1.356 . S
N412 H418 0.984 . S
N412 H419 0.984 . S
N413 C406 1.356 . S
N413 H416 0.984 . S
N413 H417 0.985 . S
H414 N409 0.984 . S
H415 N409 0.985 . S
H416 N413 0.984 . S
H417 N413 0.985 . S
H418 N412 0.984 . S
H419 N412 0.984 . S
H420 N408 0.984 . S
H421 N408 0.985 . S
C422 C423 1.363 1_455 S
C422 C428 1.379 . S
C422 N430 1.356 . S
C423 C422 1.363 1_655 S
C423 C429 1.363 . S
C424 C425 1.363 1_655 S
C424 C429 1.379 . S
C424 N431 1.356 . S
C425 C424 1.363 1_455 S
C425 C428 1.363 . S
N426 C428 1.356 . S
N426 H438 0.984 . S
N426 H439 0.985 . S
N427 C429 1.356 . S
N427 H432 0.984 . S
N427 H433 0.985 . S
C428 C422 1.379 . S
C428 C425 1.363 . S
C428 N426 1.356 . S
C429 C423 1.363 . S
C429 C424 1.379 . S
C429 N427 1.356 . S
N430 C422 1.356 . S
N430 H436 0.984 . S
N430 H437 0.984 . S
N431 C424 1.356 . S
N431 H434 0.984 . S
N431 H435 0.985 . S
H432 N427 0.984 . S
H433 N427 0.985 . S
H434 N431 0.984 . S
H435 N431 0.985 . S
H436 N430 0.984 . S
H437 N430 0.984 . S
H438 N426 0.984 . S
H439 N426 0.985 . S
C440 C441 1.363 . S
C440 C446 1.379 . S
C440 N448 1.356 . S
C441 C440 1.363 . S
C441 C447 1.363 . S
C442 C443 1.363 . S
C442 C447 1.379 . S
C442 N449 1.356 . S
C443 C442 1.363 . S
C443 C446 1.363 . S
N444 C446 1.356 . S
N444 H456 0.984 1_556 S
N444 H457 0.985 . S
N445 C447 1.356 . S
N445 H450 0.984 . S
N445 H451 0.985 . S
C446 C440 1.379 . S
C446 C443 1.363 . S
C446 N444 1.356 . S
C447 C441 1.363 . S
C447 C442 1.379 . S
C447 N445 1.356 . S
N448 C440 1.356 . S
N448 H454 0.984 1_556 S
N448 H455 0.984 . S
N449 C442 1.356 . S
N449 H452 0.984 . S
N449 H453 0.985 . S
H450 N445 0.984 . S
H451 N445 0.985 . S
H452 N449 0.984 . S
H453 N449 0.985 . S
H454 N448 0.984 1_554 S
H455 N448 0.984 . S
H456 N444 0.984 1_554 S
H457 N444 0.985 . S
C458 C459 1.363 . S
C458 C464 1.379 . S
C458 N466 1.356 . S
C459 C458 1.363 . S
C459 C465 1.363 . S
C460 C461 1.363 . S
C460 C465 1.379 . S
C460 N467 1.356 . S
C461 C460 1.363 . S
C461 C464 1.363 . S
N462 C464 1.356 . S
N462 H474 0.984 . S
N462 H475 0.985 . S
N463 C465 1.356 . S
N463 H468 0.984 . S
N463 H469 0.985 . S
C464 C458 1.379 . S
C464 C461 1.363 . S
C464 N462 1.356 . S
C465 C459 1.363 . S
C465 C460 1.379 . S
C465 N463 1.356 . S
N466 C458 1.356 . S
N466 H472 0.984 . S
N466 H473 0.984 . S
N467 C460 1.356 . S
N467 H470 0.984 . S
N467 H471 0.985 . S
H468 N463 0.984 . S
H469 N463 0.985 . S
H470 N467 0.984 . S
H471 N467 0.985 . S
H472 N466 0.984 . S
H473 N466 0.984 . S
H474 N462 0.984 . S
H475 N462 0.985 . S
C476 C477 1.363 . S
C476 C482 1.379 1_655 S
C476 N484 1.356 . S
C477 C476 1.363 . S
C477 C483 1.363 . S
C478 C479 1.363 . S
C478 C483 1.379 1_455 S
C478 N485 1.356 . S
C479 C478 1.363 . S
C479 C482 1.363 . S
N480 C482 1.356 . S
N480 H492 0.984 . S
N480 H493 0.985 . S
N481 C483 1.356 . S
N481 H486 0.984 . S
N481 H487 0.985 . S
C482 C476 1.379 1_455 S
C482 C479 1.363 . S
C482 N480 1.356 . S
C483 C477 1.363 . S
C483 C478 1.379 1_655 S
C483 N481 1.356 . S
N484 C476 1.356 . S
N484 H490 0.984 . S
N484 H491 0.984 . S
N485 C478 1.356 . S
N485 H488 0.984 . S
N485 H489 0.985 . S
H486 N481 0.984 . S
H487 N481 0.985 . S
H488 N485 0.984 . S
H489 N485 0.985 . S
H490 N484 0.984 . S
H491 N484 0.984 . S
H492 N480 0.984 . S
H493 N480 0.985 . S
C494 C495 1.363 . S
C494 C500 1.379 . S
C494 N502 1.356 . S
C495 C494 1.363 . S
C495 C501 1.363 1_455 S
C496 C497 1.363 . S
C496 C501 1.379 . S
C496 N503 1.356 . S
C497 C496 1.363 . S
C497 C500 1.363 1_655 S
N498 C500 1.356 . S
N498 H510 0.984 . S
N498 H511 0.985 . S
N499 C501 1.356 . S
N499 H504 0.984 . S
N499 H505 0.985 . S
C500 C494 1.379 . S
C500 C497 1.363 1_455 S
C500 N498 1.356 . S
C501 C495 1.363 1_655 S
C501 C496 1.379 . S
C501 N499 1.356 . S
N502 C494 1.356 . S
N502 H508 0.984 . S
N502 H509 0.984 . S
N503 C496 1.356 . S
N503 H506 0.984 . S
N503 H507 0.985 . S
H504 N499 0.984 . S
H505 N499 0.985 . S
H506 N503 0.984 . S
H507 N503 0.985 . S
H508 N502 0.984 . S
H509 N502 0.984 . S
H510 N498 0.984 . S
H511 N498 0.985 . S
C512 C513 1.363 . S
C512 C518 1.379 . S
C512 N520 1.356 . S
C513 C512 1.363 . S
C513 C519 1.363 . S
C514 C515 1.363 . S
C514 C519 1.379 . S
C514 N521 1.356 1_556 S
C515 C514 1.363 . S
C515 C518 1.363 . S
N516 C518 1.356 . S
N516 H528 0.984 . S
N516 H529 0.985 . S
N517 C519 1.356 . S
N517 H522 0.984 . S
N517 H523 0.985 1_556 S
C518 C512 1.379 . S
C518 C515 1.363 . S
C518 N516 1.356 . S
C519 C513 1.363 . S
C519 C514 1.379 . S
C519 N517 1.356 . S
N520 C512 1.356 . S
N520 H526 0.984 . S
N520 H527 0.984 . S
N521 C514 1.356 1_554 S
N521 H524 0.984 . S
N521 H525 0.985 . S
H522 N517 0.984 . S
H523 N517 0.985 1_554 S
H524 N521 0.984 . S
H525 N521 0.985 . S
H526 N520 0.984 . S
H527 N520 0.984 . S
H528 N516 0.984 . S
H529 N516 0.985 . S
C530 C531 1.363 . S
C530 C536 1.379 . S
C530 N538 1.356 . S
C531 C530 1.363 . S
C531 C537 1.363 . S
C532 C533 1.363 . S
C532 C537 1.379 . S
C532 N539 1.356 . S
C533 C532 1.363 . S
C533 C536 1.363 . S
N534 C536 1.356 . S
N534 H546 0.984 . S
N534 H547 0.985 . S
N535 C537 1.356 . S
N535 H540 0.984 . S
N535 H541 0.985 . S
C536 C530 1.379 . S
C536 C533 1.363 . S
C536 N534 1.356 . S
C537 C531 1.363 . S
C537 C532 1.379 . S
C537 N535 1.356 . S
N538 C530 1.356 . S
N538 H544 0.984 . S
N538 H545 0.984 . S
N539 C532 1.356 . S
N539 H542 0.984 . S
N539 H543 0.985 . S
H540 N535 0.984 . S
H541 N535 0.985 . S
H542 N539 0.984 . S
H543 N539 0.985 . S
H544 N538 0.984 . S
H545 N538 0.984 . S
H546 N534 0.984 . S
H547 N534 0.985 . S
C548 C549 1.363 . S
C548 C554 1.379 . S
C548 N556 1.356 . S
C549 C548 1.363 . S
C549 C555 1.363 . S
C550 C551 1.363 . S
C550 C555 1.379 . S
C550 N557 1.356 . S
C551 C550 1.363 . S
C551 C554 1.363 . S
N552 C554 1.356 . S
N552 H564 0.984 . S
N552 H565 0.985 . S
N553 C555 1.356 . S
N553 H558 0.984 . S
N553 H559 0.985 . S
C554 C548 1.379 . S
C554 C551 1.363 . S
C554 N552 1.356 . S
C555 C549 1.363 . S
C555 C550 1.379 . S
C555 N553 1.356 . S
N556 C548 1.356 . S
N556 H562 0.984 . S
N556 H563 0.984 . S
N557 C550 1.356 . S
N557 H560 0.984 . S
N557 H561 0.985 . S
H558 N553 0.984 . S
H559 N553 0.985 . S
H560 N557 0.984 . S
H561 N557 0.985 . S
H562 N556 0.984 . S
H563 N556 0.984 . S
H564 N552 0.984 . S
H565 N552 0.985 . S
C566 C567 1.363 . S
C566 C572 1.379 . S
C566 N574 1.356 . S
C567 C566 1.363 . S
C567 C573 1.363 . S
C568 C569 1.363 . S
C568 C573 1.379 . S
C568 N575 1.356 . S
C569 C568 1.363 . S
C569 C572 1.363 . S
N570 C572 1.356 . S
N570 H582 0.984 . S
N570 H583 0.985 . S
N571 C573 1.356 . S
N571 H576 0.984 . S
N571 H577 0.985 . S
C572 C566 1.379 . S
C572 C569 1.363 . S
C572 N570 1.356 . S
C573 C567 1.363 . S
C573 C568 1.379 . S
C573 N571 1.356 . S
N574 C566 1.356 . S
N574 H580 0.984 . S
N574 H581 0.984 . S
N575 C568 1.356 . S
N575 H578 0.984 . S
N575 H579 0.985 . S
H576 N571 0.984 . S
H577 N571 0.985 . S
H578 N575 0.984 . S
H579 N575 0.985 . S
H580 N574 0.984 . S
H581 N574 0.984 . S
H582 N570 0.984 . S
H583 N570 0.985 . S
C584 C585 1.363 . S
C584 C590 1.379 . S
C584 N592 1.356 1_554 S
C585 C584 1.363 . S
C585 C591 1.363 . S
C586 C587 1.363 . S
C586 C591 1.379 . S
C586 N593 1.356 . S
C587 C586 1.363 . S
C587 C590 1.363 . S
N588 C590 1.356 . S
N588 H600 0.984 1_554 S
N588 H601 0.985 . S
N589 C591 1.356 . S
N589 H594 0.984 . S
N589 H595 0.985 . S
C590 C584 1.379 . S
C590 C587 1.363 . S
C590 N588 1.356 . S
C591 C585 1.363 . S
C591 C586 1.379 . S
C591 N589 1.356 . S
N592 C584 1.356 1_556 S
N592 H598 0.984 . S
N592 H599 0.984 . S
N593 C586 1.356 . S
N593 H596 0.984 . S
N593 H597 0.985 . S
H594 N589 0.984 . S
H595 N589 0.985 . S
H596 N593 0.984 . S
H597 N593 0.985 . S
H598 N592 0.984 . S
H599 N592 0.984 . S
H600 N588 0.984 1_556 S
H601 N588 0.985 . S
C602 C603 1.363 . S
C602 C608 1.379 . S
C602 N610 1.356 . S
C603 C602 1.363 . S
C603 C609 1.363 . S
C604 C605 1.363 . S
C604 C609 1.379 . S
C604 N611 1.356 . S
C605 C604 1.363 . S
C605 C608 1.363 . S
N606 C608 1.356 . S
N606 H618 0.984 . S
N606 H619 0.985 . S
N607 C609 1.356 . S
N607 H612 0.984 . S
N607 H613 0.985 . S
C608 C602 1.379 . S
C608 C605 1.363 . S
C608 N606 1.356 . S
C609 C603 1.363 . S
C609 C604 1.379 . S
C609 N607 1.356 . S
N610 C602 1.356 . S
N610 H616 0.984 . S
N610 H617 0.984 . S
N611 C604 1.356 . S
N611 H614 0.984 . S
N611 H615 0.985 . S
H612 N607 0.984 . S
H613 N607 0.985 . S
H614 N611 0.984 . S
H615 N611 0.985 . S
H616 N610 0.984 . S
H617 N610 0.984 . S
H618 N606 0.984 . S
H619 N606 0.985 . S
C620 C621 1.363 . S
C620 C626 1.379 . S
C620 N628 1.356 . S
C621 C620 1.363 . S
C621 C627 1.363 . S
C622 C623 1.363 . S
C622 C627 1.379 . S
C622 N629 1.356 . S
C623 C622 1.363 . S
C623 C626 1.363 . S
N624 C626 1.356 . S
N624 H636 0.984 . S
N624 H637 0.985 . S
N625 C627 1.356 . S
N625 H630 0.984 . S
N625 H631 0.985 . S
C626 C620 1.379 . S
C626 C623 1.363 . S
C626 N624 1.356 . S
C627 C621 1.363 . S
C627 C622 1.379 . S
C627 N625 1.356 . S
N628 C620 1.356 . S
N628 H634 0.984 . S
N628 H635 0.984 . S
N629 C622 1.356 . S
N629 H632 0.984 . S
N629 H633 0.985 . S
H630 N625 0.984 . S
H631 N625 0.985 . S
H632 N629 0.984 . S
H633 N629 0.985 . S
H634 N628 0.984 . S
H635 N628 0.984 . S
H636 N624 0.984 . S
H637 N624 0.985 . S
C638 C639 1.363 . S
C638 C644 1.379 . S
C638 N646 1.356 . S
C639 C638 1.363 . S
C639 C645 1.363 . S
C640 C641 1.363 . S
C640 C645 1.379 . S
C640 N647 1.356 . S
C641 C640 1.363 . S
C641 C644 1.363 . S
N642 C644 1.356 . S
N642 H654 0.984 . S
N642 H655 0.985 . S
N643 C645 1.356 . S
N643 H648 0.984 . S
N643 H649 0.985 . S
C644 C638 1.379 . S
C644 C641 1.363 . S
C644 N642 1.356 . S
C645 C639 1.363 . S
C645 C640 1.379 . S
C645 N643 1.356 . S
N646 C638 1.356 . S
N646 H652 0.984 . S
N646 H653 0.984 . S
N647 C640 1.356 . S
N647 H650 0.984 . S
N647 H651 0.985 . S
H648 N643 0.984 . S
H649 N643 0.985 . S
H650 N647 0.984 . S
H651 N647 0.985 . S
H652 N646 0.984 . S
H653 N646 0.984 . S
H654 N642 0.984 . S
H655 N642 0.985 . S
C656 C657 1.363 . S
C656 C662 1.379 . S
C656 N664 1.356 . S
C657 C656 1.363 . S
C657 C663 1.363 . S
C658 C659 1.363 . S
C658 C663 1.379 . S
C658 N665 1.356 . S
C659 C658 1.363 . S
C659 C662 1.363 . S
N660 C662 1.356 . S
N660 H672 0.984 . S
N660 H673 0.985 . S
N661 C663 1.356 . S
N661 H666 0.984 . S
N661 H667 0.985 . S
C662 C656 1.379 . S
C662 C659 1.363 . S
C662 N660 1.356 . S
C663 C657 1.363 . S
C663 C658 1.379 . S
C663 N661 1.356 . S
N664 C656 1.356 . S
N664 H670 0.984 . S
N664 H671 0.984 . S
N665 C658 1.356 . S
N665 H668 0.984 . S
N665 H669 0.985 . S
H666 N661 0.984 . S
H667 N661 0.985 . S
H668 N665 0.984 . S
H669 N665 0.985 . S
H670 N664 0.984 . S
H671 N664 0.984 . S
H672 N660 0.984 . S
H673 N660 0.985 . S
C674 C675 1.363 . S
C674 C680 1.379 . S
C674 N682 1.356 . S
C675 C674 1.363 . S
C675 C681 1.363 . S
C676 C677 1.363 . S
C676 C681 1.379 . S
C676 N683 1.356 . S
C677 C676 1.363 . S
C677 C680 1.363 . S
N678 C680 1.356 . S
N678 H690 0.984 . S
N678 H691 0.985 . S
N679 C681 1.356 1_545 S
N679 H684 0.984 . S
N679 H685 0.985 . S
C680 C674 1.379 . S
C680 C677 1.363 . S
C680 N678 1.356 . S
C681 C675 1.363 . S
C681 C676 1.379 . S
C681 N679 1.356 1_565 S
N682 C674 1.356 . S
N682 H688 0.984 . S
N682 H689 0.984 1_565 S
N683 C676 1.356 . S
N683 H686 0.984 . S
N683 H687 0.985 . S
H684 N679 0.984 . S
H685 N679 0.985 . S
H686 N683 0.984 . S
H687 N683 0.985 . S
H688 N682 0.984 . S
H689 N682 0.984 1_545 S
H690 N678 0.984 . S
H691 N678 0.985 . S
C692 C693 1.363 . S
C692 C698 1.379 . S
C692 N700 1.356 . S
C693 C692 1.363 . S
C693 C699 1.363 . S
C694 C695 1.363 . S
C694 C699 1.379 . S
C694 N701 1.356 . S
C695 C694 1.363 . S
C695 C698 1.363 . S
N696 C698 1.356 . S
N696 H708 0.984 . S
N696 H709 0.985 . S
N697 C699 1.356 . S
N697 H702 0.984 . S
N697 H703 0.985 . S
C698 C692 1.379 . S
C698 C695 1.363 . S
C698 N696 1.356 . S
C699 C693 1.363 . S
C699 C694 1.379 . S
C699 N697 1.356 . S
N700 C692 1.356 . S
N700 H706 0.984 . S
N700 H707 0.984 . S
N701 C694 1.356 . S
N701 H704 0.984 . S
N701 H705 0.985 . S
H702 N697 0.984 . S
H703 N697 0.985 . S
H704 N701 0.984 . S
H705 N701 0.985 . S
H706 N700 0.984 . S
H707 N700 0.984 . S
H708 N696 0.984 . S
H709 N696 0.985 . S
C710 C711 1.363 . S
C710 C716 1.379 . S
C710 N718 1.356 1_545 S
C711 C710 1.363 . S
C711 C717 1.363 . S
C712 C713 1.363 . S
C712 C717 1.379 . S
C712 N719 1.356 . S
C713 C712 1.363 . S
C713 C716 1.363 . S
N714 C716 1.356 . S
N714 H726 0.984 . S
N714 H727 0.985 . S
N715 C717 1.356 . S
N715 H720 0.984 1_545 S
N715 H721 0.985 . S
C716 C710 1.379 . S
C716 C713 1.363 . S
C716 N714 1.356 . S
C717 C711 1.363 . S
C717 C712 1.379 . S
C717 N715 1.356 . S
N718 C710 1.356 1_565 S
N718 H724 0.984 . S
N718 H725 0.984 . S
N719 C712 1.356 . S
N719 H722 0.984 . S
N719 H723 0.985 . S
H720 N715 0.984 1_565 S
H721 N715 0.985 . S
H722 N719 0.984 . S
H723 N719 0.985 . S
H724 N718 0.984 . S
H725 N718 0.984 . S
H726 N714 0.984 . S
H727 N714 0.985 . S
C728 C729 1.363 . S
C728 C734 1.379 . S
C728 N736 1.356 . S
C729 C728 1.363 . S
C729 C735 1.363 . S
C730 C731 1.363 . S
C730 C735 1.379 . S
C730 N737 1.356 . S
C731 C730 1.363 . S
C731 C734 1.363 . S
N732 C734 1.356 . S
N732 H744 0.984 . S
N732 H745 0.985 . S
N733 C735 1.356 . S
N733 H738 0.984 . S
N733 H739 0.985 . S
C734 C728 1.379 . S
C734 C731 1.363 . S
C734 N732 1.356 . S
C735 C729 1.363 . S
C735 C730 1.379 . S
C735 N733 1.356 . S
N736 C728 1.356 . S
N736 H742 0.984 . S
N736 H743 0.984 . S
N737 C730 1.356 . S
N737 H740 0.984 . S
N737 H741 0.985 . S
H738 N733 0.984 . S
H739 N733 0.985 . S
H740 N737 0.984 . S
H741 N737 0.985 . S
H742 N736 0.984 . S
H743 N736 0.984 . S
H744 N732 0.984 . S
H745 N732 0.985 . S
C746 C747 1.363 . S
C746 C752 1.379 . S
C746 N754 1.356 . S
C747 C746 1.363 . S
C747 C753 1.363 . S
C748 C749 1.363 . S
C748 C753 1.379 . S
C748 N755 1.356 . S
C749 C748 1.363 . S
C749 C752 1.363 . S
N750 C752 1.356 1_565 S
N750 H762 0.984 . S
N750 H763 0.985 . S
N751 C753 1.356 . S
N751 H756 0.984 . S
N751 H757 0.985 . S
C752 C746 1.379 . S
C752 C749 1.363 . S
C752 N750 1.356 1_545 S
C753 C747 1.363 . S
C753 C748 1.379 . S
C753 N751 1.356 . S
N754 C746 1.356 . S
N754 H760 0.984 . S
N754 H761 0.984 . S
N755 C748 1.356 . S
N755 H758 0.984 . S
N755 H759 0.985 . S
H756 N751 0.984 . S
H757 N751 0.985 . S
H758 N755 0.984 . S
H759 N755 0.985 . S
H760 N754 0.984 . S
H761 N754 0.984 . S
H762 N750 0.984 . S
H763 N750 0.985 . S
C764 C765 1.363 . S
C764 C770 1.379 . S
C764 N772 1.356 . S
C765 C764 1.363 . S
C765 C771 1.363 . S
C766 C767 1.363 . S
C766 C771 1.379 . S
C766 N773 1.356 . S
C767 C766 1.363 . S
C767 C770 1.363 . S
N768 C770 1.356 . S
N768 H780 0.984 . S
N768 H781 0.985 . S
N769 C771 1.356 . S
N769 H774 0.984 . S
N769 H775 0.985 . S
C770 C764 1.379 . S
C770 C767 1.363 . S
C770 N768 1.356 . S
C771 C765 1.363 . S
C771 C766 1.379 . S
C771 N769 1.356 . S
N772 C764 1.356 . S
N772 H778 0.984 . S
N772 H779 0.984 . S
N773 C766 1.356 . S
N773 H776 0.984 . S
N773 H777 0.985 . S
H774 N769 0.984 . S
H775 N769 0.985 . S
H776 N773 0.984 . S
H777 N773 0.985 . S
H778 N772 0.984 . S
H779 N772 0.984 . S
H780 N768 0.984 . S
H781 N768 0.985 . S
C782 C783 1.363 . S
C782 C788 1.379 . S
C782 N790 1.356 . S
C783 C782 1.363 . S
C783 C789 1.363 . S
C784 C785 1.363 . S
C784 C789 1.379 . S
C784 N791 1.356 . S
C785 C784 1.363 . S
C785 C788 1.363 . S
N786 C788 1.356 . S
N786 H798 0.984 . S
N786 H799 0.985 . S
N787 C789 1.356 1_545 S
N787 H792 0.984 . S
N787 H793 0.985 . S
C788 C782 1.379 . S
C788 C785 1.363 . S
C788 N786 1.356 . S
C789 C783 1.363 . S
C789 C784 1.379 . S
C789 N787 1.356 1_565 S
N790 C782 1.356 . S
N790 H796 0.984 . S
N790 H797 0.984 . S
N791 C784 1.356 . S
N791 H794 0.984 . S
N791 H795 0.985 . S
H792 N787 0.984 . S
H793 N787 0.985 . S
H794 N791 0.984 . S
H795 N791 0.985 . S
H796 N790 0.984 . S
H797 N790 0.984 . S
H798 N786 0.984 . S
H799 N786 0.985 . S
C800 C801 1.363 . S
C800 C806 1.379 . S
C800 N808 1.356 . S
C801 C800 1.363 . S
C801 C807 1.363 . S
C802 C803 1.363 . S
C802 C807 1.379 . S
C802 N809 1.356 . S
C803 C802 1.363 . S
C803 C806 1.363 . S
N804 C806 1.356 . S
N804 H816 0.984 . S
N804 H817 0.985 . S
N805 C807 1.356 . S
N805 H810 0.984 . S
N805 H811 0.985 . S
C806 C800 1.379 . S
C806 C803 1.363 . S
C806 N804 1.356 . S
C807 C801 1.363 . S
C807 C802 1.379 . S
C807 N805 1.356 . S
N808 C800 1.356 . S
N808 H814 0.984 . S
N808 H815 0.977 1_556 S
N809 C802 1.356 . S
N809 H812 0.984 . S
N809 H813 0.985 . S
H810 N805 0.984 . S
H811 N805 0.985 . S
H812 N809 0.984 . S
H813 N809 0.985 . S
H814 N808 0.984 . S
H815 N808 0.977 1_554 S
H816 N804 0.984 . S
H817 N804 0.985 . S
C818 C819 1.363 . S
C818 C824 1.379 . S
C818 N826 1.356 . S
C819 C818 1.363 . S
C819 C825 1.363 . S
C820 C821 1.363 . S
C820 C825 1.379 . S
C820 N827 1.356 . S
C821 C820 1.363 . S
C821 C824 1.363 . S
N822 C824 1.356 . S
N822 H834 0.984 . S
N822 H835 0.985 . S
N823 C825 1.356 . S
N823 H828 0.984 . S
N823 H829 0.985 . S
C824 C818 1.379 . S
C824 C821 1.363 . S
C824 N822 1.356 . S
C825 C819 1.363 . S
C825 C820 1.379 . S
C825 N823 1.356 . S
N826 C818 1.356 . S
N826 H832 0.984 . S
N826 H833 0.984 . S
N827 C820 1.356 . S
N827 H830 0.984 . S
N827 H831 0.985 . S
H828 N823 0.984 . S
H829 N823 0.985 . S
H830 N827 0.984 . S
H831 N827 0.985 . S
H832 N826 0.984 . S
H833 N826 0.984 . S
H834 N822 0.984 . S
H835 N822 0.985 . S
C836 C837 1.363 . S
C836 C842 1.379 . S
C836 N844 1.356 . S
C837 C836 1.363 . S
C837 C843 1.363 . S
C838 C839 1.363 . S
C838 C843 1.379 . S
C838 N845 1.356 . S
C839 C838 1.363 . S
C839 C842 1.363 . S
N840 C842 1.356 . S
N840 H852 0.984 . S
N840 H853 0.985 . S
N841 C843 1.356 . S
N841 H846 0.984 . S
N841 H847 0.985 . S
C842 C836 1.379 . S
C842 C839 1.363 . S
C842 N840 1.356 . S
C843 C837 1.363 . S
C843 C838 1.379 . S
C843 N841 1.356 . S
N844 C836 1.356 . S
N844 H850 0.984 . S
N844 H851 0.984 1_455 S
N845 C838 1.356 . S
N845 H848 0.984 . S
N845 H849 0.985 . S
H846 N841 0.984 . S
H847 N841 0.985 . S
H848 N845 0.984 . S
H849 N845 0.985 . S
H850 N844 0.984 . S
H851 N844 0.984 1_655 S
H852 N840 0.984 . S
H853 N840 0.985 . S
C854 C855 1.363 . S
C854 C860 1.379 . S
C854 N862 1.356 . S
C855 C854 1.363 . S
C855 C861 1.363 . S
C856 C857 1.363 . S
C856 C861 1.379 . S
C856 N863 1.356 . S
C857 C856 1.363 . S
C857 C860 1.363 . S
N858 C860 1.356 . S
N858 H870 0.984 . S
N858 H871 0.985 . S
N859 C861 1.356 . S
N859 H864 0.984 . S
N859 H865 0.985 . S
C860 C854 1.379 . S
C860 C857 1.363 . S
C860 N858 1.356 . S
C861 C855 1.363 . S
C861 C856 1.379 . S
C861 N859 1.356 . S
N862 C854 1.356 . S
N862 H868 0.984 . S
N862 H869 0.984 . S
N863 C856 1.356 . S
N863 H866 0.984 . S
N863 H867 0.985 . S
H864 N859 0.984 . S
H865 N859 0.985 . S
H866 N863 0.984 . S
H867 N863 0.985 . S
H868 N862 0.984 . S
H869 N862 0.984 . S
H870 N858 0.984 . S
H871 N858 0.985 . S
C872 C873 1.363 . S
C872 C878 1.379 . S
C872 N880 1.356 . S
C873 C872 1.363 . S
C873 C879 1.363 . S
C874 C875 1.363 . S
C874 C879 1.379 . S
C874 N881 1.356 . S
C875 C874 1.363 . S
C875 C878 1.363 . S
N876 C878 1.356 . S
N876 H888 0.984 . S
N876 H889 0.985 . S
N877 C879 1.356 . S
N877 H882 0.984 . S
N877 H883 0.985 . S
C878 C872 1.379 . S
C878 C875 1.363 . S
C878 N876 1.356 . S
C879 C873 1.363 . S
C879 C874 1.379 . S
C879 N877 1.356 . S
N880 C872 1.356 . S
N880 H886 0.984 . S
N880 H887 0.984 . S
N881 C874 1.356 . S
N881 H884 0.984 . S
N881 H885 0.985 . S
H882 N877 0.984 . S
H883 N877 0.985 . S
H884 N881 0.984 . S
H885 N881 0.985 . S
H886 N880 0.984 . S
H887 N880 0.984 . S
H888 N876 0.984 . S
H889 N876 0.985 . S
C890 C891 1.363 . S
C890 C896 1.379 . S
C890 N898 1.356 . S
C891 C890 1.363 . S
C891 C897 1.363 . S
C892 C893 1.363 . S
C892 C897 1.379 . S
C892 N899 1.356 . S
C893 C892 1.363 . S
C893 C896 1.363 . S
N894 C896 1.356 . S
N894 H906 0.984 1_556 S
N894 H907 0.985 1_556 S
N895 C897 1.356 . S
N895 H900 0.984 . S
N895 H901 0.985 . S
C896 C890 1.379 . S
C896 C893 1.363 . S
C896 N894 1.356 . S
C897 C891 1.363 . S
C897 C892 1.379 . S
C897 N895 1.356 . S
N898 C890 1.356 . S
N898 H904 0.984 . S
N898 H905 0.984 . S
N899 C892 1.356 . S
N899 H902 0.984 . S
N899 H903 0.985 . S
H900 N895 0.984 . S
H901 N895 0.985 . S
H902 N899 0.984 . S
H903 N899 0.985 . S
H904 N898 0.984 . S
H905 N898 0.984 . S
H906 N894 0.984 1_554 S
H907 N894 0.985 1_554 S
C908 C909 1.363 . S
C908 C914 1.379 . S
C908 N916 1.356 . S
C909 C908 1.363 . S
C909 C915 1.363 . S
C910 C911 1.363 . S
C910 C915 1.379 . S
C910 N917 1.356 . S
C911 C910 1.363 . S
C911 C914 1.363 . S
N912 C914 1.356 . S
N912 H924 0.984 . S
N912 H925 0.985 . S
N913 C915 1.356 1_455 S
N913 H918 0.984 . S
N913 H919 0.985 . S
C914 C908 1.379 . S
C914 C911 1.363 . S
C914 N912 1.356 . S
C915 C909 1.363 . S
C915 C910 1.379 . S
C915 N913 1.356 1_655 S
N916 C908 1.356 . S
N916 H922 0.984 . S
N916 H923 0.984 . S
N917 C910 1.356 . S
N917 H920 0.984 . S
N917 H921 0.985 . S
H918 N913 0.984 . S
H919 N913 0.985 . S
H920 N917 0.984 . S
H921 N917 0.985 . S
H922 N916 0.984 . S
H923 N916 0.984 . S
H924 N912 0.984 . S
H925 N912 0.985 . S
C926 C927 1.363 . S
C926 C932 1.379 . S
C926 N934 1.356 . S
C927 C926 1.363 . S
C927 C933 1.363 . S
C928 C929 1.363 . S
C928 C933 1.379 . S
C928 N935 1.356 . S
C929 C928 1.363 . S
C929 C932 1.363 . S
N930 C932 1.356 . S
N930 H942 0.984 . S
N930 H943 0.985 . S
N931 C933 1.356 . S
N931 H936 0.984 . S
N931 H937 0.985 . S
C932 C926 1.379 . S
C932 C929 1.363 . S
C932 N930 1.356 . S
C933 C927 1.363 . S
C933 C928 1.379 . S
C933 N931 1.356 . S
N934 C926 1.356 . S
N934 H940 0.984 . S
N934 H941 0.984 . S
N935 C928 1.356 . S
N935 H938 0.984 . S
N935 H939 0.985 . S
H936 N931 0.984 . S
H937 N931 0.985 . S
H938 N935 0.984 . S
H939 N935 0.985 . S
H940 N934 0.984 . S
H941 N934 0.984 . S
H942 N930 0.984 . S
H943 N930 0.985 . S
C944 C945 1.363 . S
C944 C950 1.379 . S
C944 N952 1.356 . S
C945 C944 1.363 . S
C945 C951 1.363 . S
C946 C947 1.363 . S
C946 C951 1.379 . S
C946 N953 1.356 . S
C947 C946 1.363 . S
C947 C950 1.363 . S
N948 C950 1.356 1_455 S
N948 H960 0.984 . S
N948 H961 0.985 . S
N949 C951 1.356 . S
N949 H954 0.984 . S
N949 H955 0.985 . S
C950 C944 1.379 . S
C950 C947 1.363 . S
C950 N948 1.356 1_655 S
C951 C945 1.363 . S
C951 C946 1.379 . S
C951 N949 1.356 . S
N952 C944 1.356 . S
N952 H958 0.984 . S
N952 H959 0.984 . S
N953 C946 1.356 . S
N953 H956 0.984 . S
N953 H957 0.985 . S
H954 N949 0.984 . S
H955 N949 0.985 . S
H956 N953 0.984 . S
H957 N953 0.985 . S
H958 N952 0.984 . S
H959 N952 0.984 . S
H960 N948 0.984 . S
H961 N948 0.985 . S
C962 C963 1.363 . S
C962 C968 1.379 . S
C962 N970 1.356 . S
C963 C962 1.363 . S
C963 C969 1.363 . S
C964 C965 1.363 . S
C964 C969 1.379 . S
C964 N971 1.356 . S
C965 C964 1.363 . S
C965 C968 1.363 . S
N966 C968 1.356 . S
N966 H978 0.984 . S
N966 H979 0.985 . S
N967 C969 1.356 . S
N967 H972 0.984 . S
N967 H973 0.985 . S
C968 C962 1.379 . S
C968 C965 1.363 . S
C968 N966 1.356 . S
C969 C963 1.363 . S
C969 C964 1.379 . S
C969 N967 1.356 . S
N970 C962 1.356 . S
N970 H976 0.984 . S
N970 H977 0.984 . S
N971 C964 1.356 . S
N971 H974 0.984 . S
N971 H975 0.985 . S
H972 N967 0.984 . S
H973 N967 0.985 . S
H974 N971 0.984 . S
H975 N971 0.985 . S
H976 N970 0.984 . S
H977 N970 0.984 . S
H978 N966 0.984 . S
H979 N966 0.985 . S
C980 C981 1.363 . S
C980 C986 1.379 . S
C980 N988 1.356 . S
C981 C980 1.363 . S
C981 C987 1.363 . S
C982 C983 1.363 . S
C982 C987 1.379 . S
C982 N989 1.356 . S
C983 C982 1.363 . S
C983 C986 1.363 . S
N984 C986 1.356 . S
N984 H996 0.984 . S
N984 H997 0.985 . S
N985 C987 1.356 . S
N985 H990 0.984 . S
N985 H991 0.985 . S
C986 C980 1.379 . S
C986 C983 1.363 . S
C986 N984 1.356 . S
C987 C981 1.363 . S
C987 C982 1.379 . S
C987 N985 1.356 . S
N988 C980 1.356 . S
N988 H994 0.984 . S
N988 H995 0.984 . S
N989 C982 1.356 . S
N989 H992 0.984 . S
N989 H993 0.985 . S
H990 N985 0.984 . S
H991 N985 0.985 . S
H992 N989 0.984 . S
H993 N989 0.985 . S
H994 N988 0.984 . S
H995 N988 0.984 . S
H996 N984 0.984 . S
H997 N984 0.985 . S
C998 C999 1.363 . S
C998 C1004 1.379 . S
C998 N1006 1.356 . S
C999 C998 1.363 . S
C999 C1005 1.363 . S
C1000 C1001 1.363 . S
C1000 C1005 1.379 . S
C1000 N1007 1.356 . S
C1001 C1000 1.363 . S
C1001 C1004 1.363 . S
N1002 C1004 1.356 . S
N1002 H1014 0.984 . S
N1002 H1015 0.985 . S
N1003 C1005 1.356 . S
N1003 H1008 0.984 . S
N1003 H1009 0.985 . S
C1004 C998 1.379 . S
C1004 C1001 1.363 . S
C1004 N1002 1.356 . S
C1005 C999 1.363 . S
C1005 C1000 1.379 . S
C1005 N1003 1.356 . S
N1006 C998 1.356 . S
N1006 H1012 0.984 . S
N1006 H1013 0.984 . S
N1007 C1000 1.356 . S
N1007 H1010 0.984 . S
N1007 H1011 0.985 . S
H1008 N1003 0.984 . S
H1009 N1003 0.985 . S
H1010 N1007 0.984 . S
H1011 N1007 0.985 . S
H1012 N1006 0.984 . S
H1013 N1006 0.984 . S
H1014 N1002 0.984 . S
H1015 N1002 0.985 . S
C1016 C1017 1.363 . S
C1016 C1022 1.379 . S
C1016 N1024 1.356 . S
C1017 C1016 1.363 . S
C1017 C1023 1.363 . S
C1018 C1019 1.363 . S
C1018 C1023 1.379 . S
C1018 N1025 1.356 . S
C1019 C1018 1.363 . S
C1019 C1022 1.363 . S
N1020 C1022 1.356 1_655 S
N1020 H1032 0.984 . S
N1020 H1033 0.985 . S
N1021 C1023 1.356 . S
N1021 H1026 0.984 . S
N1021 H1027 0.985 . S
C1022 C1016 1.379 . S
C1022 C1019 1.363 . S
C1022 N1020 1.356 1_455 S
C1023 C1017 1.363 . S
C1023 C1018 1.379 . S
C1023 N1021 1.356 . S
N1024 C1016 1.356 . S
N1024 H1030 0.984 . S
N1024 H1031 0.984 . S
N1025 C1018 1.356 . S
N1025 H1028 0.984 . S
N1025 H1029 0.985 . S
H1026 N1021 0.984 . S
H1027 N1021 0.985 . S
H1028 N1025 0.984 . S
H1029 N1025 0.985 . S
H1030 N1024 0.984 . S
H1031 N1024 0.984 . S
H1032 N1020 0.984 . S
H1033 N1020 0.985 . S
C1034 C1035 1.363 . S
C1034 C1040 1.379 . S
C1034 N1042 1.356 . S
C1035 C1034 1.363 . S
C1035 C1041 1.363 . S
C1036 C1037 1.363 . S
C1036 C1041 1.379 . S
C1036 N1043 1.356 . S
C1037 C1036 1.363 . S
C1037 C1040 1.363 . S
N1038 C1040 1.356 . S
N1038 H1050 0.984 . S
N1038 H1051 0.985 . S
N1039 C1041 1.356 . S
N1039 H1044 0.984 . S
N1039 H1045 0.985 . S
C1040 C1034 1.379 . S
C1040 C1037 1.363 . S
C1040 N1038 1.356 . S
C1041 C1035 1.363 . S
C1041 C1036 1.379 . S
C1041 N1039 1.356 . S
N1042 C1034 1.356 . S
N1042 H1048 0.984 . S
N1042 H1049 0.984 . S
N1043 C1036 1.356 . S
N1043 H1046 0.984 . S
N1043 H1047 0.985 . S
H1044 N1039 0.984 . S
H1045 N1039 0.985 . S
H1046 N1043 0.984 . S
H1047 N1043 0.985 . S
H1048 N1042 0.984 . S
H1049 N1042 0.984 . S
H1050 N1038 0.984 . S
H1051 N1038 0.985 . S
C1052 C1053 1.363 . S
C1052 C1058 1.379 . S
C1052 N1060 1.356 . S
C1053 C1052 1.363 . S
C1053 C1059 1.363 . S
C1054 C1055 1.363 . S
C1054 C1059 1.379 . S
C1054 N1061 1.356 . S
C1055 C1054 1.363 . S
C1055 C1058 1.363 . S
N1056 C1058 1.356 . S
N1056 H1068 0.984 . S
N1056 H1069 0.985 . S
N1057 C1059 1.356 . S
N1057 H1062 0.984 . S
N1057 H1063 0.985 . S
C1058 C1052 1.379 . S
C1058 C1055 1.363 . S
C1058 N1056 1.356 . S
C1059 C1053 1.363 . S
C1059 C1054 1.379 . S
C1059 N1057 1.356 . S
N1060 C1052 1.356 . S
N1060 H1066 0.984 . S
N1060 H1067 0.984 . S
N1061 C1054 1.356 . S
N1061 H1064 0.984 . S
N1061 H1065 0.985 . S
H1062 N1057 0.984 . S
H1063 N1057 0.985 . S
H1064 N1061 0.984 . S
H1065 N1061 0.985 . S
H1066 N1060 0.984 . S
H1067 N1060 0.984 . S
H1068 N1056 0.984 . S
H1069 N1056 0.985 . S
C1070 C1071 1.363 . S
C1070 C1076 1.379 . S
C1070 N1078 1.356 . S
C1071 C1070 1.363 . S
C1071 C1077 1.363 . S
C1072 C1073 1.363 . S
C1072 C1077 1.379 . S
C1072 N1079 1.356 . S
C1073 C1072 1.363 . S
C1073 C1076 1.363 . S
N1074 C1076 1.356 . S
N1074 H1086 0.984 . S
N1074 H1087 0.985 . S
N1075 C1077 1.356 . S
N1075 H1080 0.984 . S
N1075 H1081 0.985 . S
C1076 C1070 1.379 . S
C1076 C1073 1.363 . S
C1076 N1074 1.356 . S
C1077 C1071 1.363 . S
C1077 C1072 1.379 . S
C1077 N1075 1.356 . S
N1078 C1070 1.356 . S
N1078 H1084 0.984 . S
N1078 H1085 0.984 . S
N1079 C1072 1.356 . S
N1079 H1082 0.984 . S
N1079 H1083 0.985 . S
H1080 N1075 0.984 . S
H1081 N1075 0.985 . S
H1082 N1079 0.984 . S
H1083 N1079 0.985 . S
H1084 N1078 0.984 . S
H1085 N1078 0.984 . S
H1086 N1074 0.984 . S
H1087 N1074 0.985 . S
C1088 C1089 1.363 . S
C1088 C1094 1.379 . S
C1088 N1096 1.356 . S
C1089 C1088 1.363 . S
C1089 C1095 1.363 . S
C1090 C1091 1.363 . S
C1090 C1095 1.379 . S
C1090 N1097 1.356 . S
C1091 C1090 1.363 . S
C1091 C1094 1.363 . S
N1092 C1094 1.356 . S
N1092 H1104 0.984 . S
N1092 H1105 0.985 . S
N1093 C1095 1.356 . S
N1093 H1098 0.984 . S
N1093 H1099 0.985 . S
C1094 C1088 1.379 . S
C1094 C1091 1.363 . S
C1094 N1092 1.356 . S
C1095 C1089 1.363 . S
C1095 C1090 1.379 . S
C1095 N1093 1.356 . S
N1096 C1088 1.356 . S
N1096 H1102 0.984 . S
N1096 H1103 0.984 . S
N1097 C1090 1.356 . S
N1097 H1100 0.984 . S
N1097 H1101 0.985 . S
H1098 N1093 0.984 . S
H1099 N1093 0.985 . S
H1100 N1097 0.984 . S
H1101 N1097 0.985 . S
H1102 N1096 0.984 . S
H1103 N1096 0.984 . S
H1104 N1092 0.984 . S
H1105 N1092 0.985 . S
C1106 C1107 1.363 . S
C1106 C1112 1.379 . S
C1106 N1114 1.356 . S
C1107 C1106 1.363 . S
C1107 C1113 1.363 . S
C1108 C1109 1.363 . S
C1108 C1113 1.379 . S
C1108 N1115 1.356 . S
C1109 C1108 1.363 . S
C1109 C1112 1.363 . S
N1110 C1112 1.356 . S
N1110 H1122 0.984 . S
N1110 H1123 0.985 . S
N1111 C1113 1.356 . S
N1111 H1116 0.984 . S
N1111 H1117 0.985 . S
C1112 C1106 1.379 . S
C1112 C1109 1.363 . S
C1112 N1110 1.356 . S
C1113 C1107 1.363 . S
C1113 C1108 1.379 . S
C1113 N1111 1.356 . S
N1114 C1106 1.356 . S
N1114 H1120 0.984 . S
N1114 H1121 0.984 . S
N1115 C1108 1.356 . S
N1115 H1118 0.984 . S
N1115 H1119 0.985 . S
H1116 N1111 0.984 . S
H1117 N1111 0.985 . S
H1118 N1115 0.984 . S
H1119 N1115 0.985 . S
H1120 N1114 0.984 . S
H1121 N1114 0.984 . S
H1122 N1110 0.984 . S
H1123 N1110 0.985 . S
C1124 C1125 1.363 . S
C1124 C1130 1.379 . S
C1124 N1132 1.356 . S
C1125 C1124 1.363 . S
C1125 C1131 1.363 . S
C1126 C1127 1.363 . S
C1126 C1131 1.379 . S
C1126 N1133 1.356 . S
C1127 C1126 1.363 . S
C1127 C1130 1.363 . S
N1128 C1130 1.356 . S
N1128 H1140 0.984 . S
N1128 H1141 0.985 . S
N1129 C1131 1.356 . S
N1129 H1134 0.984 . S
N1129 H1135 0.985 . S
C1130 C1124 1.379 . S
C1130 C1127 1.363 . S
C1130 N1128 1.356 . S
C1131 C1125 1.363 . S
C1131 C1126 1.379 . S
C1131 N1129 1.356 . S
N1132 C1124 1.356 . S
N1132 H1138 0.984 . S
N1132 H1139 0.984 . S
N1133 C1126 1.356 . S
N1133 H1136 0.984 . S
N1133 H1137 0.985 . S
H1134 N1129 0.984 . S
H1135 N1129 0.985 . S
H1136 N1133 0.984 . S
H1137 N1133 0.985 . S
H1138 N1132 0.984 . S
H1139 N1132 0.984 . S
H1140 N1128 0.984 . S
H1141 N1128 0.985 . S
C1142 C1143 1.364 . S
C1142 C1148 1.378 1_554 S
C1142 N1150 1.357 . S
C1143 C1142 1.364 . S
C1143 C1149 1.363 1_455 S
C1144 C1145 1.364 . S
C1144 C1149 1.378 1_556 S
C1144 N1151 1.357 . S
C1145 C1144 1.364 . S
C1145 C1148 1.363 1_655 S
N1146 C1148 1.356 . S
N1146 H1158 0.984 . S
N1146 H1159 0.985 . S
N1147 C1149 1.356 . S
N1147 H1152 0.984 . S
N1147 H1153 0.985 . S
C1148 C1142 1.378 1_556 S
C1148 C1145 1.363 1_455 S
C1148 N1146 1.356 . S
C1149 C1143 1.363 1_655 S
C1149 C1144 1.378 1_554 S
C1149 N1147 1.356 . S
N1150 C1142 1.357 . S
N1150 H1156 0.984 1_554 S
N1150 H1157 0.984 . S
N1151 C1144 1.357 . S
N1151 H1154 0.984 . S
N1151 H1155 0.985 1_556 S
H1152 N1147 0.984 . S
H1153 N1147 0.985 . S
H1154 N1151 0.984 . S
H1155 N1151 0.985 1_554 S
H1156 N1150 0.984 1_556 S
H1157 N1150 0.984 . S
H1158 N1146 0.984 . S
H1159 N1146 0.985 . S
C1160 C1161 1.363 . S
C1160 C1166 1.379 . S
C1160 N1168 1.356 . S
C1161 C1160 1.363 . S
C1161 C1167 1.363 . S
C1162 C1163 1.363 . S
C1162 C1167 1.379 . S
C1162 N1169 1.356 . S
C1163 C1162 1.363 . S
C1163 C1166 1.363 . S
N1164 C1166 1.356 . S
N1164 H1176 0.984 . S
N1164 H1177 0.985 . S
N1165 C1167 1.356 . S
N1165 H1170 0.984 . S
N1165 H1171 0.985 . S
C1166 C1160 1.379 . S
C1166 C1163 1.363 . S
C1166 N1164 1.356 . S
C1167 C1161 1.363 . S
C1167 C1162 1.379 . S
C1167 N1165 1.356 . S
N1168 C1160 1.356 . S
N1168 H1174 0.984 . S
N1168 H1175 0.984 . S
N1169 C1162 1.356 . S
N1169 H1172 0.984 . S
N1169 H1173 0.985 . S
H1170 N1165 0.984 . S
H1171 N1165 0.985 . S
H1172 N1169 0.984 . S
H1173 N1169 0.985 . S
H1174 N1168 0.984 . S
H1175 N1168 0.984 . S
H1176 N1164 0.984 . S
H1177 N1164 0.985 . S
C1178 C1179 1.363 . S
C1178 C1184 1.379 . S
C1178 N1186 1.356 . S
C1179 C1178 1.363 . S
C1179 C1185 1.363 . S
C1180 C1181 1.363 . S
C1180 C1185 1.379 . S
C1180 N1187 1.356 . S
C1181 C1180 1.363 . S
C1181 C1184 1.363 . S
N1182 C1184 1.356 . S
N1182 H1194 0.984 . S
N1182 H1195 0.985 . S
N1183 C1185 1.356 . S
N1183 H1188 0.984 . S
N1183 H1189 0.985 . S
C1184 C1178 1.379 . S
C1184 C1181 1.363 . S
C1184 N1182 1.356 . S
C1185 C1179 1.363 . S
C1185 C1180 1.379 . S
C1185 N1183 1.356 . S
N1186 C1178 1.356 . S
N1186 H1192 0.984 . S
N1186 H1193 0.984 . S
N1187 C1180 1.356 . S
N1187 H1190 0.984 . S
N1187 H1191 0.985 . S
H1188 N1183 0.984 . S
H1189 N1183 0.985 . S
H1190 N1187 0.984 . S
H1191 N1187 0.985 . S
H1192 N1186 0.984 . S
H1193 N1186 0.984 . S
H1194 N1182 0.984 . S
H1195 N1182 0.985 . S
C1196 C1197 1.363 1_565 S
C1196 C1202 1.379 1_556 S
C1196 N1204 1.356 . S
C1197 C1196 1.363 1_545 S
C1197 C1203 1.363 1_455 S
C1198 C1199 1.363 1_545 S
C1198 C1203 1.379 1_554 S
C1198 N1205 1.356 . S
C1199 C1198 1.363 1_565 S
C1199 C1202 1.363 1_655 S
N1200 C1202 1.356 . S
N1200 H1212 0.984 . S
N1200 H1213 0.985 1_455 S
N1201 C1203 1.356 . S
N1201 H1206 0.984 1_655 S
N1201 H1207 0.985 . S
C1202 C1196 1.379 1_554 S
C1202 C1199 1.363 1_455 S
C1202 N1200 1.356 . S
C1203 C1197 1.363 1_655 S
C1203 C1198 1.379 1_556 S
C1203 N1201 1.356 . S
N1204 C1196 1.356 . S
N1204 H1210 0.984 . S
N1204 H1211 0.984 1_565 S
N1205 C1198 1.356 . S
N1205 H1208 0.984 1_545 S
N1205 H1209 0.985 . S
H1206 N1201 0.984 1_455 S
H1207 N1201 0.985 . S
H1208 N1205 0.984 1_565 S
H1209 N1205 0.985 . S
H1210 N1204 0.984 . S
H1211 N1204 0.984 1_545 S
H1212 N1200 0.984 . S
H1213 N1200 0.985 1_655 S
C1214 C1215 1.363 . S
C1214 C1220 1.379 . S
C1214 N1222 1.356 . S
C1215 C1214 1.363 . S
C1215 C1221 1.363 1_545 S
C1216 C1217 1.363 . S
C1216 C1221 1.379 . S
C1216 N1223 1.356 . S
C1217 C1216 1.363 . S
C1217 C1220 1.363 1_565 S
N1218 C1220 1.356 . S
N1218 H1230 0.984 . S
N1218 H1231 0.985 1_545 S
N1219 C1221 1.356 . S
N1219 H1224 0.984 1_565 S
N1219 H1225 0.985 . S
C1220 C1214 1.379 . S
C1220 C1217 1.363 1_545 S
C1220 N1218 1.356 . S
C1221 C1215 1.363 1_565 S
C1221 C1216 1.379 . S
C1221 N1219 1.356 . S
N1222 C1214 1.356 . S
N1222 H1228 0.984 . S
N1222 H1229 0.984 . S
N1223 C1216 1.356 . S
N1223 H1226 0.984 . S
N1223 H1227 0.985 . S
H1224 N1219 0.984 1_545 S
H1225 N1219 0.985 . S
H1226 N1223 0.984 . S
H1227 N1223 0.985 . S
H1228 N1222 0.984 . S
H1229 N1222 0.984 . S
H1230 N1218 0.984 . S
H1231 N1218 0.985 1_565 S
C369 C18 1.424 . S
C371 C248 1.424 . S
C387 C41 1.424 . S
C389 C271 1.424 . S
C405 C64 1.424 . S
C407 C202 1.424 . S
C423 C87 1.424 . S
C425 C225 1.424 . S
C441 C110 1.424 . S
C443 C340 1.424 . S
C459 C133 1.424 . S
C461 C363 1.424 . S
C477 C156 1.424 . S
C479 C294 1.424 . S
C495 C179 1.424 . S
C497 C317 1.424 . S
C513 C224 1.189 . S
C515 C21 1.176 . S
C531 C247 1.189 . S
C533 C44 1.176 . S
C549 C270 1.189 . S
C551 C67 1.176 . S
C567 C201 1.189 . S
C569 C90 1.176 . S
C585 C113 1.176 . S
C587 C316 1.189 . S
C603 C339 1.189 . S
C605 C136 1.176 . S
C621 C362 1.189 . S
C623 C159 1.176 . S
C639 C293 1.189 . S
C641 C182 1.176 . S
C657 C40 1.189 . S
C659 C205 1.176 . S
C675 C228 1.176 1_565 S
C677 C63 1.189 . S
C693 C251 1.176 . S
C695 C86 1.189 . S
C711 C274 1.176 1_545 S
C713 C17 1.189 . S
C729 C297 1.176 . S
C731 C132 1.189 . S
C747 C155 1.189 . S
C749 C320 1.176 1_545 S
C765 C178 1.189 . S
C767 C343 1.176 . S
C783 C366 1.176 1_565 S
C785 C109 1.189 . S
C801 C19 1.147 . S
C803 C361 1.198 . S
C819 C42 1.147 . S
C821 C108 1.198 . S
C837 C315 1.198 . S
C839 C65 1.147 . S
C855 C154 1.198 . S
C857 C88 1.147 . S
C873 C111 1.147 . S
C875 C269 1.198 . S
C891 C134 1.147 . S
C893 C16 1.198 . S
C909 C223 1.198 . S
C911 C157 1.147 . S
C927 C62 1.198 . S
C929 C180 1.147 . S
C945 C203 1.147 . S
C947 C177 1.198 . S
C963 C226 1.147 . S
C965 C292 1.198 . S
C981 C131 1.198 . S
C983 C249 1.147 . S
C999 C338 1.198 . S
C1001 C272 1.147 . S
C1017 C295 1.147 . S
C1019 C85 1.198 . S
C1035 C318 1.147 . S
C1037 C200 1.198 . S
C1053 C341 1.147 . S
C1055 C39 1.198 . S
C1071 C246 1.198 . S
C1073 C364 1.147 . S
C1089 C20 1.905 . S
C1091 C296 1.905 . S
C1107 C43 1.905 . S
C1109 C135 1.905 . S
C1125 C66 1.905 . S
C1127 C342 1.905 . S
C1143 C181 1.905 . S
C1145 C89 1.905 . S
C1161 C112 1.905 . S
C1163 C204 1.905 . S
C1179 C250 1.905 . S
C1181 C158 1.905 . S
C1197 C227 1.905 . S
C1199 C319 1.905 . S
C1215 C365 1.905 . S
C1217 C273 1.905 . S
