# Generated by pormake.
# Topology snp, (6)-cn, num edge types: 1
# Building blocks:
#     Node 0, Type 0, BuildingBlock: PAMTUU_clean_sbu_0, # of connection points: 6
#     Node 1, Type 0, BuildingBlock: PAMTUU_clean_sbu_0, # of connection points: 6
#     Node 2, Type 0, BuildingBlock: PAMTUU_clean_sbu_0, # of connection points: 6
#     Node 3, Type 0, BuildingBlock: PAMTUU_clean_sbu_0, # of connection points: 6
#     Edge 4, Type (0, 0), BuildingBlock: XIVTED_clean_linker_0, # of connection points: 2
#     Edge 5, Type (0, 0), BuildingBlock: XIVTED_clean_linker_0, # of connection points: 2
#     Edge 6, Type (0, 0), BuildingBlock: XIVTED_clean_linker_0, # of connection points: 2
#     Edge 7, Type (0, 0), BuildingBlock: XIVTED_clean_linker_0, # of connection points: 2
#     Edge 8, Type (0, 0), BuildingBlock: XIVTED_clean_linker_0, # of connection points: 2
#     Edge 9, Type (0, 0), BuildingBlock: XIVTED_clean_linker_0, # of connection points: 2
#     Edge 10, Type (0, 0), BuildingBlock: XIVTED_clean_linker_0, # of connection points: 2
#     Edge 11, Type (0, 0), BuildingBlock: XIVTED_clean_linker_0, # of connection points: 2
#     Edge 12, Type (0, 0), BuildingBlock: XIVTED_clean_linker_0, # of connection points: 2
#     Edge 13, Type (0, 0), BuildingBlock: XIVTED_clean_linker_0, # of connection points: 2
#     Edge 14, Type (0, 0), BuildingBlock: XIVTED_clean_linker_0, # of connection points: 2
#     Edge 15, Type (0, 0), BuildingBlock: XIVTED_clean_linker_0, # of connection points: 2
# Relax obj value: 0.409
# Max RMSD: 0.235
# Mean RMSD: 0.221
data_MOF--net-snp--node1-PAMTUU_clean_sbu_0--edge1-XIVTED_clean_linker_0
_symmetry_space_group_name_H-M    P1
_symmetry_Int_Tables_number       1
_symmetry_cell_setting            triclinic
loop_
_symmetry_equiv_pos_as_xyz
'x, y, z'
_cell_length_a     26.134621
_cell_length_b     26.039301
_cell_length_c     32.900097
_cell_angle_alpha  95.872987
_cell_angle_beta   84.483822
_cell_angle_gamma 97.938272
loop_
_atom_site_label
_atom_site_type_symbol
_atom_site_fract_x
_atom_site_fract_y
_atom_site_fract_z
_atom_type_partial_charge
Tb0 Tb 0.19827 0.93869 0.25839 0.0
Tb1 Tb 0.23683 0.05823 0.29742 0.0
C2 C 0.12522 0.02099 0.27575 0.0
C3 C 0.19185 0.8153 0.19373 0.0
C4 C 0.22818 0.77186 0.11621 0.0
C5 C 0.17462 0.76956 0.1275 0.0
C6 C 0.15665 0.79107 0.16597 0.0
C7 C 0.24529 0.81455 0.18355 0.0
C8 C 0.26323 0.7928 0.14523 0.0
C9 C 0.17296 0.84569 0.23102 0.0
O10 O 0.19892 0.98381 0.20568 0.0
O11 O 0.23651 0.06561 0.23048 0.0
O12 O 0.30024 0.01113 0.29327 0.0
O13 O 0.2784 0.95733 0.23688 0.0
O14 O 0.22369 0.12601 0.33453 0.0
O15 O 0.29879 0.11899 0.30217 0.0
O16 O 0.19931 0.01548 0.34916 0.0
O17 O 0.2137 0.93389 0.32186 0.0
O18 O 0.1339 0.97669 0.28769 0.0
O19 O 0.16207 0.06035 0.27656 0.0
C20 C 0.21643 0.03302 0.20047 0.0
O21 O 0.2062 0.8598 0.25846 0.0
O22 O 0.14766 0.88376 0.2251 0.0
C23 C 0.31334 0.98091 0.2606 0.0
C24 C 0.29634 0.16936 0.36619 0.0
C25 C 0.32773 0.22026 0.4412 0.0
C26 C 0.33893 0.24509 0.40474 0.0
C27 C 0.32311 0.21987 0.36758 0.0
C28 C 0.28888 0.14279 0.4017 0.0
C29 C 0.30433 0.16805 0.43891 0.0
C30 C 0.27177 0.14717 0.32889 0.0
C31 C 0.20026 0.96579 0.35336 0.0
H32 H 0.14654 0.75431 0.1057 0.0
H33 H 0.11533 0.79126 0.17321 0.0
H34 H 0.27349 0.8328 0.2044 0.0
H35 H 0.30466 0.79455 0.13764 0.0
H36 H 0.35763 0.28492 0.40527 0.0
H37 H 0.32956 0.24076 0.34032 0.0
H38 H 0.26847 0.10359 0.40114 0.0
H39 H 0.29447 0.14776 0.46629 0.0
Tb40 Tb 0.07617 0.24168 0.74843 0.0
Tb41 Tb 0.03272 0.26174 0.65377 0.0
C42 C 0.03031 0.34539 0.72995 0.0
C43 C 0.11408 0.20028 0.8564 0.0
C44 C 0.13837 0.16678 0.93268 0.0
C45 C 0.1368 0.21995 0.92781 0.0
C46 C 0.12499 0.23634 0.89042 0.0
C47 C 0.11577 0.14733 0.86109 0.0
C48 C 0.1278 0.13097 0.89827 0.0
C49 C 0.10008 0.21699 0.81654 0.0
O50 O 0.00073 0.19664 0.7386 0.0
O51 O 0.96498 0.2434 0.69502 0.0
O52 O 0.05098 0.1853 0.65929 0.0
O53 O 0.1187 0.19905 0.69901 0.0
O54 O -0.02318 0.27663 0.61523 0.0
O55 O 0.04978 0.25258 0.58981 0.0
O56 O 0.11152 0.30137 0.65527 0.0
O57 O 0.14339 0.2831 0.71589 0.0
O58 O 0.03805 0.31287 0.75667 0.0
O59 O 0.03446 0.33544 0.68977 0.0
C60 C 0.96061 0.21152 0.72383 0.0
O61 O 0.0836 0.1834 0.78689 0.0
O62 O 0.10342 0.2653 0.80769 0.0
C63 C 0.09841 0.17913 0.66507 0.0
C64 C -0.02115 0.23291 0.54651 0.0
C65 C 0.9371 0.18435 0.47243 0.0
C66 C -0.02289 0.16445 0.48932 0.0
C67 C -0.00213 0.18852 0.52556 0.0
C68 C 0.93798 0.25193 0.53029 0.0
C69 C 0.91747 0.22815 0.4939 0.0
C70 C 0.00491 0.26378 0.58169 0.0
C71 C 0.14867 0.30362 0.68028 0.0
H72 H 0.1438 0.24921 0.95316 0.0
H73 H 0.12387 0.2774 0.88836 0.0
H74 H 0.1079 0.11815 0.83578 0.0
H75 H 0.12941 0.08989 0.89963 0.0
H76 H -0.00614 0.13126 0.47372 0.0
H77 H 0.02987 0.1731 0.53638 0.0
H78 H 0.92273 0.28635 0.54519 0.0
H79 H 0.8863 0.24442 0.48245 0.0
Tb80 Tb 0.78257 0.92591 0.13813 0.0
Tb81 Tb 0.7744 0.03983 0.10876 0.0
C82 C 0.88071 -0.0033 0.09642 0.0
C83 C 0.74903 0.81092 0.1961 0.0
C84 C 0.69927 0.77102 0.2679 0.0
C85 C 0.74331 0.75065 0.24809 0.0
C86 C 0.76796 0.77051 0.21245 0.0
C87 C 0.70336 0.82927 0.21417 0.0
C88 C 0.67845 0.80922 0.24971 0.0
C89 C 0.77978 0.83712 0.1629 0.0
O90 O 0.78923 0.97947 0.19398 0.0
O91 O 0.81058 0.05878 0.16691 0.0
O92 O 0.71296 0.02002 0.15551 0.0
O93 O 0.7015 0.93442 0.13572 0.0
O94 O 0.79527 0.11787 0.09636 0.0
O95 O 0.71734 0.07905 0.08998 0.0
O96 O 0.76834 0.9838 1.05328 0.0
O97 O 0.80288 0.91504 0.0733 0.0
O98 O 0.86117 0.95673 0.11729 0.0
O99 O 0.85375 0.03254 0.08797 0.0
C100 C 0.80791 0.0294 0.19775 0.0
O101 O 0.75409 0.84642 0.13298 0.0
O102 O 0.81208 0.87742 0.17474 0.0
C103 C 0.68307 0.97574 0.1536 0.0
C104 C 0.75252 0.13292 1.03995 0.0
C105 C 0.747 0.14691 0.9571 0.0
C106 C 0.72001 0.17661 0.98792 0.0
C107 C 0.7224 0.16926 1.02925 0.0
C108 C 0.78021 0.10414 1.00927 0.0
C109 C 0.77751 0.11105 0.96829 0.0
C110 C 0.75055 0.11978 0.08224 0.0
C111 C 0.79043 0.94079 1.04442 0.0
H112 H 0.76096 0.72189 0.26155 0.0
H113 H 0.80331 0.75616 0.19887 0.0
H114 H 0.68825 0.86061 0.20183 0.0
H115 H 0.64434 0.82531 0.26396 0.0
H116 H 0.69664 0.20482 0.98003 0.0
H117 H 0.70019 0.19118 1.05271 0.0
H118 H 0.80336 0.07564 1.01701 0.0
H119 H 0.79999 0.08869 0.94533 0.0
Tb120 Tb 0.05925 0.82411 0.70725 0.0
Tb121 Tb 0.94342 0.79426 0.67129 0.0
C122 C 0.01185 0.89781 0.65959 0.0
C123 C 0.17046 0.83184 0.76835 0.0
C124 C 0.21725 0.79303 0.83023 0.0
C125 C 0.24642 0.82792 0.80419 0.0
C126 C 0.22309 0.84721 0.77344 0.0
C127 C 0.14157 0.79602 0.79338 0.0
C128 C 0.16466 0.77695 0.82415 0.0
C129 C 0.14583 0.85163 0.73615 0.0
O130 O 0.00234 0.81585 0.76058 0.0
O131 O 0.93457 0.83927 0.73063 0.0
O132 O 0.9574 0.72836 0.70338 0.0
O133 O 0.04557 0.74114 0.70833 0.0
O134 O 0.86947 0.81497 0.666 0.0
O135 O 0.88737 0.73653 0.64805 0.0
O136 O -0.0029 0.78416 0.6159 0.0
O137 O 0.07625 0.81749 0.64064 0.0
O138 O 0.02414 0.89114 0.69603 0.0
O139 O -0.02256 0.86353 0.64211 0.0
C140 C 0.95734 0.83409 0.7636 0.0
O141 O 0.13892 0.81905 0.70385 0.0
O142 O 0.10449 0.8738 0.74817 0.0
C143 C 0.00067 0.71205 0.71111 0.0
C144 C 0.82358 0.76588 0.61348 0.0
C145 C 0.76344 0.75352 0.546 0.0
C146 C 0.81573 0.74499 0.54071 0.0
C147 C 0.84568 0.75135 0.57417 0.0
C148 C 0.77168 0.77518 0.61879 0.0
C149 C 0.74182 0.76933 0.58524 0.0
C150 C 0.85283 0.76861 0.64963 0.0
C151 C 0.04747 0.80032 0.61007 0.0
H152 H 0.28708 0.84067 0.80781 0.0
H153 H 0.24599 0.8743 0.75384 0.0
H154 H 0.10091 0.78337 0.78946 0.0
H155 H 0.14071 0.751 0.84407 0.0
H156 H 0.83361 0.73384 0.51059 0.0
H157 H 0.88582 0.74433 0.56939 0.0
H158 H 0.75406 0.78629 0.64902 0.0
H159 H 0.70166 0.77623 0.59005 0.0
H160 H 0.94288 0.08963 0.09932 0.0
H161 H 0.0687 0.93615 0.23838 0.0
H162 H 0.94735 0.92424 0.07838 0.0
H163 H 0.10443 0.1031 0.23762 0.0
H164 H 0.03477 0.93228 0.1719 0.0
H165 H 0.02231 0.0986 0.13361 0.0
C166 C 0.96217 0.05548 0.09993 0.0
C167 C 0.93704 0.00559 0.08918 0.0
C168 C 0.0505 0.96979 0.18605 0.0
C169 C 0.02547 0.01511 0.12936 0.0
C170 C 0.06888 0.97207 0.22447 0.0
C171 C 0.09022 0.01983 0.24327 0.0
C172 C 0.05178 0.01584 0.16693 0.0
C173 C 0.08851 0.06531 0.2241 0.0
C174 C 0.0072 0.06048 0.12013 0.0
C175 C 0.96442 0.96304 0.0889 0.0
N176 N 0.06963 0.06218 0.18691 0.0
N177 N 0.00633 0.96826 0.11078 0.0
H178 H 0.11583 0.91532 0.66517 0.0
H179 H 0.08055 0.15359 0.58515 0.0
H180 H -0.00278 0.94486 0.59135 0.0
H181 H 0.18251 0.12956 0.67464 0.0
H182 H 0.10011 0.07337 0.54587 0.0
H183 H 0.17866 0.97403 0.62751 0.0
C184 C 0.10289 0.93446 0.64103 0.0
C185 C 0.05037 0.92871 0.63343 0.0
C186 C 0.11992 0.08645 0.57327 0.0
C187 C 0.12181 -0.00216 0.5918 0.0
C188 C 0.10799 0.13185 0.59605 0.0
C189 C 0.12579 0.14473 0.63511 0.0
C190 C 0.14592 0.05263 0.59186 0.0
C191 C 0.16439 0.11816 0.64628 0.0
C192 C 0.13916 0.96704 0.61883 0.0
C193 C 0.0367 0.95128 0.59999 0.0
N194 N 0.17234 0.07204 0.62515 0.0
N195 N 0.07193 0.98648 0.58117 0.0
H196 H 0.64149 0.04937 0.20639 0.0
H197 H 0.35233 0.90865 0.20424 0.0
H198 H 0.60323 0.8958 0.14552 0.0
H199 H 0.39939 0.03861 0.29092 0.0
H200 H 0.44333 0.90323 0.18159 0.0
H201 H 0.55249 0.04653 0.2366 0.0
C202 C 0.61433 0.01494 0.1994 0.0
C203 C 0.62964 0.9729 0.17309 0.0
C204 C 0.43376 0.93257 0.20584 0.0
C205 C 0.52749 0.96952 0.20761 0.0
C206 C 0.38182 0.93583 0.21874 0.0
C207 C 0.36826 0.97441 0.24936 0.0
C208 C 0.47238 0.96859 0.22328 0.0
C209 C 0.40809 0.00833 0.26721 0.0
C210 C 0.56355 0.01327 0.21687 0.0
C211 C 0.59293 0.92914 0.1655 0.0
N212 N 0.45837 0.00497 0.25358 0.0
N213 N 0.54329 0.92878 0.18239 0.0
H214 H 0.94239 0.38176 0.71651 0.0
H215 H 0.07608 0.67325 0.74638 0.0
H216 H 0.08585 0.42592 0.77296 0.0
H217 H 0.92178 0.63052 0.70703 0.0
H218 H 0.07599 0.58452 0.76383 0.0
H219 H 0.92838 0.47315 0.72199 0.0
C220 C 0.97009 0.41083 0.73131 0.0
C221 C 0.01512 0.39668 0.74457 0.0
C222 C 0.04191 0.59459 0.75179 0.0
C223 C 0.00067 0.5014 0.74938 0.0
C224 C 0.04202 0.64526 0.74151 0.0
C225 C -0.00086 0.65921 0.7245 0.0
C226 C -0.00114 0.55724 0.74464 0.0
C227 C 0.95585 0.62143 0.71968 0.0
C228 C 0.96235 0.463 0.73415 0.0
C229 C 0.05036 0.43549 0.76288 0.0
N230 N 0.95709 0.57201 0.72919 0.0
N231 N 0.04288 0.48636 0.76408 0.0
H232 H 0.18116 0.38178 0.63091 0.0
H233 H 0.35591 0.18931 0.51279 0.0
H234 H 0.23474 0.25741 0.68528 0.0
H235 H 0.30803 0.32043 0.4629 0.0
H236 H 0.33713 0.23025 0.58182 0.0
H237 H 0.25306 0.37952 0.57804 0.0
C238 C 0.20942 0.35547 0.63266 0.0
C239 C 0.20143 0.31893 0.66182 0.0
C240 C 0.33214 0.25077 0.55574 0.0
C241 C 0.28215 0.31411 0.60035 0.0
C242 C 0.34261 0.22723 0.51627 0.0
C243 C 0.33195 0.25056 0.48189 0.0
C244 C 0.3103 0.29765 0.56082 0.0
C245 C 0.31633 0.30047 0.4883 0.0
C246 C 0.25029 0.35377 0.60223 0.0
C247 C 0.23926 0.2859 0.66299 0.0
N248 N 0.30481 0.3217 0.52694 0.0
N249 N 0.27704 0.28296 0.63174 0.0
H250 H 0.92437 0.11733 0.75154 0.0
H251 H 0.75989 0.23951 0.92254 0.0
H252 H 0.88025 0.26853 0.74041 0.0
H253 H 0.73674 0.07332 0.89202 0.0
H254 H 0.79046 0.25118 0.85118 0.0
H255 H 0.84607 0.09748 0.79683 0.0
C256 C 0.89742 0.14582 0.75797 0.0
C257 C 0.90883 0.19481 0.74299 0.0
C258 C 0.77694 0.21223 0.85974 0.0
C259 C 0.82025 0.17321 0.79543 0.0
C260 C 0.75936 0.20559 0.9005 0.0
C261 C 0.74771 0.1553 0.91331 0.0
C262 C 0.78372 0.16821 0.83228 0.0
C263 C 0.74736 0.1127 0.88349 0.0
C264 C 0.85258 0.13447 0.78357 0.0
C265 C 0.8727 0.23037 0.75175 0.0
N266 N 0.76682 0.11998 0.84452 0.0
N267 N 0.83062 0.21952 0.77854 0.0
H268 H 0.70023 0.82 0.52478 0.0
H269 H 0.68934 0.67647 0.30033 0.0
H270 H 0.75611 0.67294 0.48603 0.0
H271 H 0.66909 0.83781 0.33261 0.0
H272 H 0.68439 0.66367 0.37326 0.0
H273 H 0.66037 0.81538 0.45994 0.0
C274 C 0.70314 0.78623 0.50295 0.0
C275 C 0.73238 0.74733 0.5102 0.0
C276 C 0.6798 0.70154 0.36428 0.0
C277 C 0.68729 0.7419 0.43623 0.0
C278 C 0.6827 0.70889 0.3227 0.0
C279 C 0.68114 0.75863 0.31031 0.0
C280 C 0.67541 0.74424 0.39352 0.0
C281 C 0.67093 0.79885 0.34059 0.0
C282 C 0.68052 0.78365 0.46598 0.0
C283 C 0.73495 0.70437 0.48103 0.0
N284 N 0.66954 0.79104 0.38082 0.0
N285 N 0.71331 0.70312 0.44503 0.0
H286 H 0.2009 0.69786 0.86202 0.0
H287 H 0.30666 0.82686 0.07153 0.0
H288 H 0.28407 0.85251 0.88079 0.0
H289 H 0.19177 0.69106 1.06146 0.0
H290 H 0.32341 0.81973 0.99731 0.0
H291 H 0.2214 0.68008 0.92977 0.0
C292 C 0.22417 0.72779 0.88006 0.0
C293 C 0.23951 0.7773 0.86616 0.0
C294 C 0.29532 0.79081 1.01137 0.0
C295 C 0.26358 0.75688 0.94325 0.0
C296 C 0.28598 0.79454 1.05386 0.0
C297 C 0.24692 0.76007 0.07274 0.0
C298 C 0.26513 0.75265 0.98754 0.0
C299 C 0.22123 0.71928 1.04805 0.0
C300 C 0.23606 0.71746 0.91858 0.0
C301 C 0.27106 0.81392 0.89022 0.0
N302 N 0.23009 0.71725 1.0066 0.0
N303 N 0.28127 0.80327 0.9279 0.0
H304 H 0.83893 0.85543 1.01876 0.0
H305 H 0.8805 0.89707 0.78037 0.0
H306 H 0.78515 0.98521 0.97128 0.0
H307 H -0.02458 0.80994 0.84034 0.0
H308 H 0.83725 0.92323 0.84723 0.0
H309 H 0.87889 0.83101 0.95123 0.0
C310 C 0.83487 0.87875 0.99411 0.0
C311 C 0.80836 0.92285 1.00128 0.0
C312 C 0.86757 0.89849 0.84576 0.0
C313 C 0.85506 0.89438 0.92273 0.0
C314 C 0.89229 0.88329 0.80755 0.0
C315 C 0.93178 0.85096 0.8045 0.0
C316 C 0.88159 0.88059 0.88141 0.0
C317 C 0.94538 0.83484 0.84101 0.0
C318 C 0.85825 0.86474 0.95539 0.0
C319 C 0.80493 0.95095 0.9675 0.0
N320 N 0.92011 0.84943 0.87775 0.0
N321 N 0.82798 0.93624 0.92972 0.0
H322 H 0.12434 -0.00379 0.41125 0.0
H323 H 0.14872 0.80351 0.5773 0.0
H324 H 0.23098 0.88247 0.38514 0.0
H325 H -0.00153 0.8337 0.54938 0.0
H326 H 0.18754 0.84395 0.51518 0.0
H327 H 0.08635 0.95141 0.47171 0.0
C328 C 0.1404 0.96242 0.41857 0.0
C329 C 0.18112 0.94327 0.393 0.0
C330 C 0.14599 0.841 0.52242 0.0
C331 C 0.13782 0.89191 0.46232 0.0
C332 C 0.12369 0.8175 0.55766 0.0
C333 C 0.06995 0.81399 0.56832 0.0
C334 C 0.11476 0.86311 0.49831 0.0
C335 C 0.03981 0.83422 0.54203 0.0
C336 C 0.11828 0.93654 0.4528 0.0
C337 C 0.1997 0.8987 0.40387 0.0
N338 N 0.06264 0.85865 0.5088 0.0
N339 N 0.17832 0.87488 0.43778 0.0
H340 H 0.20069 0.21874 0.99264 0.0
H341 H 0.16748 0.97993 0.13508 0.0
H342 H 0.10453 0.07267 0.96647 0.0
H343 H 0.24454 0.13211 0.17315 0.0
H344 H 0.14847 0.01267 0.07199 0.0
H345 H 0.2201 0.18796 1.05676 0.0
C346 C 0.18322 0.18036 1.00011 0.0
C347 C 0.15074 0.14863 0.97301 0.0
C348 C 0.16985 0.03902 0.09389 0.0
C349 C 0.17411 0.11239 1.04743 0.0
C350 C 0.1811 0.0202 0.13019 0.0
C351 C 0.20824 0.05291 0.16008 0.0
C352 C 0.18605 0.09126 0.08639 0.0
C353 C 0.22388 0.105 0.15133 0.0
C354 C 0.19476 0.16264 1.03696 0.0
C355 C 0.13053 0.09877 0.98517 0.0
N356 N 0.21275 0.12235 0.11552 0.0
N357 N 0.14255 0.08246 1.02097 0.0
H358 H 0.83703 0.13317 0.22293 0.0
H359 H 0.91992 0.08033 0.44301 0.0
H360 H 0.82084 0.9802 0.26582 0.0
H361 H 0.90863 0.2338 0.40911 0.0
H362 H 0.88864 0.04309 0.37702 0.0
H363 H 0.8676 0.17051 0.28918 0.0
C364 C 0.83977 0.1073 0.24617 0.0
C365 C 0.82595 0.05323 0.2384 0.0
C366 C 0.89287 0.08493 0.38403 0.0
C367 C 0.86167 0.09612 0.31489 0.0
C368 C 0.91108 0.10637 0.42177 0.0
C369 C 0.91704 0.16058 0.43218 0.0
C370 C 0.8808 0.11769 0.3558 0.0
C371 C 0.90416 0.19186 0.40309 0.0
C372 C 0.85725 0.12877 0.28416 0.0
C373 C 0.83065 0.02205 0.27012 0.0
N374 N 0.887 0.1701 0.36645 0.0
N375 N 0.84817 0.04381 0.30663 0.0
loop_
_geom_bond_atom_site_label_1
_geom_bond_atom_site_label_2
_geom_bond_distance
_geom_bond_site_symmetry_2
_ccdc_geom_bond_type
Tb0 C9 2.764 . S
Tb0 O10 2.325 1_565 S
Tb0 O13 2.303 1_565 S
Tb0 O17 2.322 . S
Tb0 O18 2.349 . S
Tb0 O21 2.415 . S
Tb0 O22 2.399 . S
Tb1 O11 2.322 . S
Tb1 O12 2.349 . S
Tb1 O14 2.415 . S
Tb1 O15 2.399 . S
Tb1 O16 2.325 . S
Tb1 O19 2.303 . S
Tb1 C30 2.764 . S
C2 O18 1.261 1_545 S
C2 O19 1.257 . S
C3 C6 1.358 . S
C3 C7 1.332 . S
C3 C9 1.504 . S
C4 C5 1.373 . S
C4 C8 1.308 . S
C5 C4 1.373 . S
C5 C6 1.429 1_556 S
C5 H32 0.932 . S
C6 C3 1.358 . S
C6 C5 1.429 1_554 S
C6 H33 0.930 . S
C7 C3 1.332 . S
C7 C8 1.394 1_554 S
C7 H34 0.932 . S
C8 C4 1.308 . S
C8 C7 1.394 1_556 S
C8 H35 0.929 . S
C9 Tb0 2.764 . S
C9 C3 1.504 . S
C9 O21 1.239 . S
C9 O22 1.263 . S
O10 Tb0 2.325 1_545 S
O10 C20 1.236 . S
O11 Tb1 2.322 . S
O11 C20 1.257 . S
O12 Tb1 2.349 . S
O12 C23 1.261 . S
O13 Tb0 2.303 1_545 S
O13 C23 1.257 . S
O14 Tb1 2.415 . S
O14 C30 1.239 . S
O15 Tb1 2.399 . S
O15 C30 1.263 . S
O16 Tb1 2.325 . S
O16 C31 1.236 1_545 S
O17 Tb0 2.322 . S
O17 C31 1.257 . S
O18 Tb0 2.349 . S
O18 C2 1.261 1_565 S
O19 Tb1 2.303 . S
O19 C2 1.257 . S
C20 O10 1.236 . S
C20 O11 1.257 . S
O21 Tb0 2.415 . S
O21 C9 1.239 . S
O22 Tb0 2.399 . S
O22 C9 1.263 . S
C23 O12 1.261 . S
C23 O13 1.257 . S
C24 C27 1.358 . S
C24 C28 1.332 . S
C24 C30 1.504 . S
C25 C26 1.373 . S
C25 C29 1.308 . S
C26 C25 1.373 . S
C26 C27 1.429 . S
C26 H36 0.932 . S
C27 C24 1.358 . S
C27 C26 1.429 . S
C27 H37 0.930 . S
C28 C24 1.332 . S
C28 C29 1.394 . S
C28 H38 0.932 . S
C29 C25 1.308 . S
C29 C28 1.394 . S
C29 H39 0.929 . S
C30 Tb1 2.764 . S
C30 O14 1.239 . S
C30 O15 1.263 . S
C30 C24 1.504 . S
C31 O16 1.236 1_565 S
C31 O17 1.257 . S
H32 C5 0.932 . S
H33 C6 0.930 . S
H34 C7 0.932 . S
H35 C8 0.929 . S
H36 C26 0.932 . S
H37 C27 0.930 . S
H38 C28 0.932 . S
H39 C29 0.929 . S
Tb40 C49 2.764 . S
Tb40 O50 2.325 . S
Tb40 O53 2.303 . S
Tb40 O57 2.322 . S
Tb40 O58 2.349 . S
Tb40 O61 2.415 . S
Tb40 O62 2.399 . S
Tb41 O51 2.322 . S
Tb41 O52 2.349 . S
Tb41 O54 2.419 . S
Tb41 O55 2.399 1_455 S
Tb41 O56 2.325 . S
Tb41 O59 2.303 . S
Tb41 C70 2.764 1_455 S
C42 O58 1.261 . S
C42 O59 1.257 . S
C43 C46 1.358 . S
C43 C47 1.332 . S
C43 C49 1.504 . S
C44 C45 1.373 . S
C44 C48 1.308 . S
C45 C44 1.373 . S
C45 C46 1.429 . S
C45 H72 0.932 . S
C46 C43 1.358 . S
C46 C45 1.429 . S
C46 H73 0.930 . S
C47 C43 1.332 . S
C47 C48 1.394 . S
C47 H74 0.932 . S
C48 C44 1.308 . S
C48 C47 1.394 . S
C48 H75 0.929 . S
C49 Tb40 2.764 . S
C49 C43 1.504 . S
C49 O61 1.239 . S
C49 O62 1.263 . S
O50 Tb40 2.325 . S
O50 C60 1.236 . S
O51 Tb41 2.322 . S
O51 C60 1.257 . S
O52 Tb41 2.349 . S
O52 C63 1.261 . S
O53 Tb40 2.303 . S
O53 C63 1.257 . S
O54 Tb41 2.419 . S
O54 C70 1.236 1_455 S
O55 Tb41 2.399 1_655 S
O55 C70 1.263 . S
O56 Tb41 2.325 . S
O56 C71 1.236 . S
O57 Tb40 2.322 . S
O57 C71 1.257 . S
O58 Tb40 2.349 . S
O58 C42 1.261 . S
O59 Tb41 2.303 . S
O59 C42 1.257 . S
C60 O50 1.236 . S
C60 O51 1.257 . S
O61 Tb40 2.415 . S
O61 C49 1.239 . S
O62 Tb40 2.399 . S
O62 C49 1.263 . S
C63 O52 1.261 . S
C63 O53 1.257 . S
C64 C67 1.358 . S
C64 C68 1.332 . S
C64 C70 1.504 . S
C65 C66 1.373 . S
C65 C69 1.308 . S
C66 C65 1.373 . S
C66 C67 1.429 . S
C66 H76 0.932 . S
C67 C64 1.358 . S
C67 C66 1.429 . S
C67 H77 0.930 . S
C68 C64 1.332 . S
C68 C69 1.394 . S
C68 H78 0.932 . S
C69 C65 1.308 . S
C69 C68 1.394 . S
C69 H79 0.929 . S
C70 Tb41 2.764 1_655 S
C70 O54 1.236 1_655 S
C70 O55 1.263 . S
C70 C64 1.504 . S
C71 O56 1.236 . S
C71 O57 1.257 . S
H72 C45 0.932 . S
H73 C46 0.930 . S
H74 C47 0.932 . S
H75 C48 0.929 . S
H76 C66 0.932 . S
H77 C67 0.930 . S
H78 C68 0.932 . S
H79 C69 0.929 . S
Tb80 C89 2.764 . S
Tb80 O90 2.325 1_565 S
Tb80 O93 2.303 . S
Tb80 O97 2.322 . S
Tb80 O98 2.349 . S
Tb80 O101 2.415 . S
Tb80 O102 2.399 . S
Tb81 O91 2.322 . S
Tb81 O92 2.349 . S
Tb81 O94 2.415 . S
Tb81 O95 2.399 . S
Tb81 O96 2.325 1_545 S
Tb81 O99 2.303 . S
Tb81 C110 2.764 1_554 S
C82 O98 1.261 . S
C82 O99 1.257 1_565 S
C83 C86 1.358 . S
C83 C87 1.332 . S
C83 C89 1.504 . S
C84 C85 1.373 . S
C84 C88 1.308 . S
C85 C84 1.373 . S
C85 C86 1.429 . S
C85 H112 0.932 . S
C86 C83 1.358 . S
C86 C85 1.429 . S
C86 H113 0.930 . S
C87 C83 1.332 . S
C87 C88 1.394 . S
C87 H114 0.932 . S
C88 C84 1.308 . S
C88 C87 1.394 . S
C88 H115 0.929 . S
C89 Tb80 2.764 . S
C89 C83 1.504 . S
C89 O101 1.239 . S
C89 O102 1.263 . S
O90 Tb80 2.325 1_545 S
O90 C100 1.236 . S
O91 Tb81 2.322 . S
O91 C100 1.257 . S
O92 Tb81 2.349 . S
O92 C103 1.261 . S
O93 Tb80 2.303 . S
O93 C103 1.257 1_565 S
O94 Tb81 2.415 . S
O94 C110 1.239 1_554 S
O95 Tb81 2.399 . S
O95 C110 1.263 1_554 S
O96 Tb81 2.325 1_565 S
O96 C111 1.236 . S
O97 Tb80 2.322 . S
O97 C111 1.257 . S
O98 Tb80 2.349 . S
O98 C82 1.261 . S
O99 Tb81 2.303 . S
O99 C82 1.257 1_545 S
C100 O90 1.236 . S
C100 O91 1.257 . S
O101 Tb80 2.415 . S
O101 C89 1.239 . S
O102 Tb80 2.399 . S
O102 C89 1.263 . S
C103 O92 1.261 . S
C103 O93 1.257 1_545 S
C104 C107 1.358 . S
C104 C108 1.332 . S
C104 C110 1.504 . S
C105 C106 1.373 . S
C105 C109 1.308 . S
C106 C105 1.373 . S
C106 C107 1.429 . S
C106 H116 0.932 . S
C107 C104 1.358 . S
C107 C106 1.429 . S
C107 H117 0.930 . S
C108 C104 1.332 . S
C108 C109 1.394 . S
C108 H118 0.932 . S
C109 C105 1.308 . S
C109 C108 1.394 . S
C109 H119 0.929 . S
C110 Tb81 2.764 1_556 S
C110 O94 1.239 1_556 S
C110 O95 1.263 1_556 S
C110 C104 1.504 . S
C111 O96 1.236 . S
C111 O97 1.257 . S
H112 C85 0.932 . S
H113 C86 0.930 . S
H114 C87 0.932 . S
H115 C88 0.929 . S
H116 C106 0.932 . S
H117 C107 0.930 . S
H118 C108 0.932 . S
H119 C109 0.929 . S
Tb120 C129 2.764 . S
Tb120 O130 2.325 1_455 S
Tb120 O133 2.303 . S
Tb120 O137 2.322 . S
Tb120 O138 2.349 . S
Tb120 O141 2.415 . S
Tb120 O142 2.399 . S
Tb121 O131 2.322 . S
Tb121 O132 2.349 . S
Tb121 O134 2.415 . S
Tb121 O135 2.399 . S
Tb121 O136 2.325 1_655 S
Tb121 O139 2.303 . S
Tb121 C150 2.764 . S
C122 O138 1.261 . S
C122 O139 1.257 1_455 S
C123 C126 1.358 . S
C123 C127 1.332 . S
C123 C129 1.504 . S
C124 C125 1.373 . S
C124 C128 1.308 . S
C125 C124 1.373 . S
C125 C126 1.429 . S
C125 H152 0.932 . S
C126 C123 1.358 . S
C126 C125 1.429 . S
C126 H153 0.930 . S
C127 C123 1.332 . S
C127 C128 1.394 . S
C127 H154 0.932 . S
C128 C124 1.308 . S
C128 C127 1.394 . S
C128 H155 0.929 . S
C129 Tb120 2.764 . S
C129 C123 1.504 . S
C129 O141 1.239 . S
C129 O142 1.263 . S
O130 Tb120 2.325 1_655 S
O130 C140 1.236 . S
O131 Tb121 2.322 . S
O131 C140 1.257 . S
O132 Tb121 2.349 . S
O132 C143 1.261 . S
O133 Tb120 2.303 . S
O133 C143 1.257 1_455 S
O134 Tb121 2.415 . S
O134 C150 1.239 . S
O135 Tb121 2.399 . S
O135 C150 1.263 . S
O136 Tb121 2.325 1_455 S
O136 C151 1.236 . S
O137 Tb120 2.322 . S
O137 C151 1.257 . S
O138 Tb120 2.349 . S
O138 C122 1.261 . S
O139 Tb121 2.303 . S
O139 C122 1.257 1_655 S
C140 O130 1.236 . S
C140 O131 1.257 . S
O141 Tb120 2.415 . S
O141 C129 1.239 . S
O142 Tb120 2.399 . S
O142 C129 1.263 . S
C143 O132 1.261 . S
C143 O133 1.257 1_655 S
C144 C147 1.358 . S
C144 C148 1.332 . S
C144 C150 1.504 . S
C145 C146 1.373 . S
C145 C149 1.308 . S
C146 C145 1.373 . S
C146 C147 1.429 . S
C146 H156 0.932 . S
C147 C144 1.358 . S
C147 C146 1.429 . S
C147 H157 0.930 . S
C148 C144 1.332 . S
C148 C149 1.394 . S
C148 H158 0.932 . S
C149 C145 1.308 . S
C149 C148 1.394 . S
C149 H159 0.929 . S
C150 Tb121 2.764 . S
C150 O134 1.239 . S
C150 O135 1.263 . S
C150 C144 1.504 . S
C151 O136 1.236 . S
C151 O137 1.257 . S
H152 C125 0.932 . S
H153 C126 0.930 . S
H154 C127 0.932 . S
H155 C128 0.929 . S
H156 C146 0.932 . S
H157 C147 0.930 . S
H158 C148 0.932 . S
H159 C149 0.929 . S
H160 C166 0.930 . S
H161 C170 0.930 . S
H162 C175 0.929 . S
H163 C173 0.929 . S
H164 C168 0.929 . S
H165 C174 0.929 . S
C166 H160 0.930 . S
C166 C167 1.367 . S
C166 C174 1.378 1_655 S
C167 C166 1.367 . S
C167 C175 1.433 1_545 S
C168 H164 0.929 . S
C168 C170 1.378 . S
C168 C172 1.350 1_565 S
C169 C172 1.463 . S
C169 C174 1.350 . S
C169 N177 1.427 1_445 S
C170 H161 0.930 . S
C170 C168 1.378 . S
C170 C171 1.367 1_565 S
C171 C170 1.367 1_545 S
C171 C173 1.433 . S
C172 C168 1.350 1_545 S
C172 C169 1.463 . S
C172 N176 1.427 . S
C173 H163 0.929 . S
C173 C171 1.433 . S
C173 N176 1.384 . S
C174 H165 0.929 . S
C174 C166 1.378 1_455 S
C174 C169 1.350 . S
C175 H162 0.929 . S
C175 C167 1.433 1_565 S
C175 N177 1.384 . S
N176 C172 1.427 . S
N176 C173 1.384 . S
N177 C169 1.427 1_665 S
N177 C175 1.384 . S
H178 C184 0.930 . S
H179 C188 0.930 . S
H180 C193 0.929 . S
H181 C191 0.929 . S
H182 C186 0.929 1_655 S
H183 C192 0.929 . S
C184 H178 0.930 . S
C184 C185 1.367 . S
C184 C192 1.378 . S
C185 C184 1.367 . S
C185 C193 1.433 1_455 S
C186 H182 0.929 1_455 S
C186 C188 1.378 . S
C186 C190 1.350 . S
C187 C190 1.463 1_565 S
C187 C192 1.350 . S
C187 N195 1.427 1_455 S
C188 H179 0.930 . S
C188 C186 1.378 . S
C188 C189 1.367 . S
C189 C188 1.367 . S
C189 C191 1.433 . S
C190 C186 1.350 . S
C190 C187 1.463 1_545 S
C190 N194 1.427 . S
C191 H181 0.929 . S
C191 C189 1.433 . S
C191 N194 1.384 . S
C192 H183 0.929 . S
C192 C184 1.378 . S
C192 C187 1.350 . S
C193 H180 0.929 . S
C193 C185 1.433 1_655 S
C193 N195 1.384 . S
N194 C190 1.427 . S
N194 C191 1.384 . S
N195 C187 1.427 1_655 S
N195 C193 1.384 . S
H196 C202 0.930 . S
H197 C206 0.930 . S
H198 C211 0.929 . S
H199 C209 0.929 . S
H200 C204 0.929 . S
H201 C210 0.929 . S
C202 H196 0.930 . S
C202 C203 1.367 1_565 S
C202 C210 1.378 . S
C203 C202 1.367 1_545 S
C203 C211 1.433 . S
C204 H200 0.929 . S
C204 C206 1.378 . S
C204 C208 1.350 . S
C205 C208 1.463 . S
C205 C210 1.350 1_545 S
C205 N213 1.427 . S
C206 H197 0.930 . S
C206 C204 1.378 . S
C206 C207 1.367 . S
C207 C206 1.367 . S
C207 C209 1.433 . S
C208 C204 1.350 . S
C208 C205 1.463 . S
C208 N212 1.427 . S
C209 H199 0.929 . S
C209 C207 1.433 . S
C209 N212 1.384 . S
C210 H201 0.929 . S
C210 C202 1.378 . S
C210 C205 1.350 1_565 S
C211 H198 0.929 . S
C211 C203 1.433 . S
C211 N213 1.384 . S
N212 C208 1.427 . S
N212 C209 1.384 . S
N213 C205 1.427 . S
N213 C211 1.384 . S
H214 C220 0.930 . S
H215 C224 0.930 . S
H216 C229 0.929 . S
H217 C227 0.929 . S
H218 C222 0.929 1_655 S
H219 C228 0.929 . S
C220 H214 0.930 . S
C220 C221 1.367 . S
C220 C228 1.378 . S
C221 C220 1.367 . S
C221 C229 1.433 . S
C222 H218 0.929 1_455 S
C222 C224 1.378 1_455 S
C222 C226 1.350 . S
C223 C226 1.463 . S
C223 C228 1.350 . S
C223 N231 1.427 . S
C224 H215 0.930 . S
C224 C222 1.378 1_655 S
C224 C225 1.367 . S
C225 C224 1.367 . S
C225 C227 1.433 1_655 S
C226 C222 1.350 . S
C226 C223 1.463 . S
C226 N230 1.427 . S
C227 H217 0.929 . S
C227 C225 1.433 1_455 S
C227 N230 1.384 . S
C228 H219 0.929 . S
C228 C220 1.378 . S
C228 C223 1.350 . S
C229 H216 0.929 . S
C229 C221 1.433 . S
C229 N231 1.384 . S
N230 C226 1.427 . S
N230 C227 1.384 . S
N231 C223 1.427 . S
N231 C229 1.384 . S
H232 C238 0.930 . S
H233 C242 0.930 . S
H234 C247 0.929 . S
H235 C245 0.929 . S
H236 C240 0.929 . S
H237 C246 0.929 . S
C238 H232 0.930 . S
C238 C239 1.367 . S
C238 C246 1.378 . S
C239 C238 1.367 . S
C239 C247 1.433 . S
C240 H236 0.929 . S
C240 C242 1.378 . S
C240 C244 1.350 . S
C241 C244 1.463 . S
C241 C246 1.350 . S
C241 N249 1.427 . S
C242 H233 0.930 . S
C242 C240 1.378 . S
C242 C243 1.367 . S
C243 C242 1.367 . S
C243 C245 1.433 . S
C244 C240 1.350 . S
C244 C241 1.463 . S
C244 N248 1.427 . S
C245 H235 0.929 . S
C245 C243 1.433 . S
C245 N248 1.384 . S
C246 H237 0.929 . S
C246 C238 1.378 . S
C246 C241 1.350 . S
C247 H234 0.929 . S
C247 C239 1.433 . S
C247 N249 1.384 . S
N248 C244 1.427 . S
N248 C245 1.384 . S
N249 C241 1.427 . S
N249 C247 1.384 . S
H250 C256 0.930 . S
H251 C260 0.930 . S
H252 C265 0.929 . S
H253 C263 0.929 . S
H254 C258 0.929 . S
H255 C264 0.929 1_455 S
C256 H250 0.930 . S
C256 C257 1.367 . S
C256 C264 1.378 1_455 S
C257 C256 1.367 . S
C257 C265 1.433 1_455 S
C258 H254 0.929 . S
C258 C260 1.378 . S
C258 C262 1.350 . S
C259 C262 1.463 . S
C259 C264 1.350 . S
C259 N267 1.427 . S
C260 H251 0.930 . S
C260 C258 1.378 . S
C260 C261 1.367 . S
C261 C260 1.367 . S
C261 C263 1.433 . S
C262 C258 1.350 . S
C262 C259 1.463 . S
C262 N266 1.427 . S
C263 H253 0.929 . S
C263 C261 1.433 . S
C263 N266 1.384 . S
C264 H255 0.929 1_655 S
C264 C256 1.378 1_655 S
C264 C259 1.350 . S
C265 H252 0.929 . S
C265 C257 1.433 1_655 S
C265 N267 1.384 . S
N266 C262 1.427 . S
N266 C263 1.384 . S
N267 C259 1.427 . S
N267 C265 1.384 . S
H268 C274 0.930 . S
H269 C278 0.930 . S
H270 C283 0.929 . S
H271 C281 0.929 . S
H272 C276 0.929 . S
H273 C282 0.929 . S
C274 H268 0.930 . S
C274 C275 1.367 . S
C274 C282 1.378 . S
C275 C274 1.367 . S
C275 C283 1.433 . S
C276 H272 0.929 . S
C276 C278 1.378 . S
C276 C280 1.350 . S
C277 C280 1.463 . S
C277 C282 1.350 . S
C277 N285 1.427 . S
C278 H269 0.930 . S
C278 C276 1.378 . S
C278 C279 1.367 . S
C279 C278 1.367 . S
C279 C281 1.433 . S
C280 C276 1.350 . S
C280 C277 1.463 . S
C280 N284 1.427 . S
C281 H271 0.929 . S
C281 C279 1.433 . S
C281 N284 1.384 . S
C282 H273 0.929 . S
C282 C274 1.378 . S
C282 C277 1.350 . S
C283 H270 0.929 . S
C283 C275 1.433 . S
C283 N285 1.384 . S
N284 C280 1.427 . S
N284 C281 1.384 . S
N285 C277 1.427 . S
N285 C283 1.384 . S
H286 C292 0.930 . S
H287 C296 0.930 . S
H288 C301 0.929 . S
H289 C299 0.929 . S
H290 C294 0.929 . S
H291 C300 0.929 . S
C292 H286 0.930 . S
C292 C293 1.367 . S
C292 C300 1.378 . S
C293 C292 1.367 . S
C293 C301 1.433 . S
C294 H290 0.929 . S
C294 C296 1.378 . S
C294 C298 1.350 . S
C295 C298 1.463 . S
C295 C300 1.350 . S
C295 N303 1.427 . S
C296 H287 0.930 . S
C296 C294 1.378 . S
C296 C297 1.367 . S
C297 C296 1.367 . S
C297 C299 1.433 . S
C298 C294 1.350 . S
C298 C295 1.463 . S
C298 N302 1.427 . S
C299 H289 0.929 . S
C299 C297 1.433 . S
C299 N302 1.384 . S
C300 H291 0.929 . S
C300 C292 1.378 . S
C300 C295 1.350 . S
C301 H288 0.929 . S
C301 C293 1.433 . S
C301 N303 1.384 . S
N302 C298 1.427 . S
N302 C299 1.384 . S
N303 C295 1.427 . S
N303 C301 1.384 . S
H304 C310 0.930 . S
H305 C314 0.930 . S
H306 C319 0.929 . S
H307 C317 0.929 . S
H308 C312 0.929 . S
H309 C318 0.929 . S
C310 H304 0.930 . S
C310 C311 1.367 . S
C310 C318 1.378 . S
C311 C310 1.367 . S
C311 C319 1.433 . S
C312 H308 0.929 . S
C312 C314 1.378 . S
C312 C316 1.350 . S
C313 C316 1.463 . S
C313 C318 1.350 . S
C313 N321 1.427 . S
C314 H305 0.930 . S
C314 C312 1.378 . S
C314 C315 1.367 . S
C315 C314 1.367 . S
C315 C317 1.433 . S
C316 C312 1.350 . S
C316 C313 1.463 . S
C316 N320 1.427 . S
C317 H307 0.929 . S
C317 C315 1.433 . S
C317 N320 1.384 . S
C318 H309 0.929 . S
C318 C310 1.378 . S
C318 C313 1.350 . S
C319 H306 0.929 . S
C319 C311 1.433 . S
C319 N321 1.384 . S
N320 C316 1.427 . S
N320 C317 1.384 . S
N321 C313 1.427 . S
N321 C319 1.384 . S
H322 C328 0.930 . S
H323 C332 0.930 . S
H324 C337 0.929 . S
H325 C335 0.929 . S
H326 C330 0.929 . S
H327 C336 0.929 . S
C328 H322 0.930 . S
C328 C329 1.367 . S
C328 C336 1.378 . S
C329 C328 1.367 . S
C329 C337 1.433 . S
C330 H326 0.929 . S
C330 C332 1.378 . S
C330 C334 1.350 . S
C331 C334 1.463 . S
C331 C336 1.350 . S
C331 N339 1.427 . S
C332 H323 0.930 . S
C332 C330 1.378 . S
C332 C333 1.367 . S
C333 C332 1.367 . S
C333 C335 1.433 . S
C334 C330 1.350 . S
C334 C331 1.463 . S
C334 N338 1.427 . S
C335 H325 0.929 . S
C335 C333 1.433 . S
C335 N338 1.384 . S
C336 H327 0.929 . S
C336 C328 1.378 . S
C336 C331 1.350 . S
C337 H324 0.929 . S
C337 C329 1.433 . S
C337 N339 1.384 . S
N338 C334 1.427 . S
N338 C335 1.384 . S
N339 C331 1.427 . S
N339 C337 1.384 . S
H340 C346 0.930 . S
H341 C350 0.930 . S
H342 C355 0.929 . S
H343 C353 0.929 . S
H344 C348 0.929 . S
H345 C354 0.929 . S
C346 H340 0.930 . S
C346 C347 1.367 . S
C346 C354 1.378 . S
C347 C346 1.367 . S
C347 C355 1.433 . S
C348 H344 0.929 . S
C348 C350 1.378 . S
C348 C352 1.350 1_554 S
C349 C352 1.463 . S
C349 C354 1.350 . S
C349 N357 1.427 . S
C350 H341 0.930 . S
C350 C348 1.378 . S
C350 C351 1.367 . S
C351 C350 1.367 . S
C351 C353 1.433 . S
C352 C348 1.350 1_556 S
C352 C349 1.463 . S
C352 N356 1.427 . S
C353 H343 0.929 . S
C353 C351 1.433 . S
C353 N356 1.384 1_554 S
C354 H345 0.929 . S
C354 C346 1.378 . S
C354 C349 1.350 . S
C355 H342 0.929 . S
C355 C347 1.433 . S
C355 N357 1.384 . S
N356 C352 1.427 . S
N356 C353 1.384 1_556 S
N357 C349 1.427 . S
N357 C355 1.384 . S
H358 C364 0.930 . S
H359 C368 0.930 . S
H360 C373 0.929 . S
H361 C371 0.929 . S
H362 C366 0.929 . S
H363 C372 0.929 . S
C364 H358 0.930 . S
C364 C365 1.367 . S
C364 C372 1.378 . S
C365 C364 1.367 . S
C365 C373 1.433 . S
C366 H362 0.929 . S
C366 C368 1.378 . S
C366 C370 1.350 . S
C367 C370 1.463 . S
C367 C372 1.350 . S
C367 N375 1.427 . S
C368 H359 0.930 . S
C368 C366 1.378 . S
C368 C369 1.367 . S
C369 C368 1.367 . S
C369 C371 1.433 . S
C370 C366 1.350 . S
C370 C367 1.463 . S
C370 N374 1.427 . S
C371 H361 0.929 . S
C371 C369 1.433 . S
C371 N374 1.384 . S
C372 H363 0.929 . S
C372 C364 1.378 . S
C372 C367 1.350 . S
C373 H360 0.929 . S
C373 C365 1.433 . S
C373 N375 1.384 . S
N374 C370 1.427 . S
N374 C371 1.384 . S
N375 C367 1.427 . S
N375 C373 1.384 . S
C167 C82 0.808 1_545 S
C171 C2 0.789 . S
C185 C122 0.511 . S
C189 C63 0.511 . S
C203 C103 0.937 . S
C207 C23 0.943 . S
C221 C42 0.846 . S
C225 C143 0.845 . S
C239 C71 0.508 . S
C243 C25 0.540 . S
C257 C60 0.711 . S
C261 C105 0.733 . S
C275 C145 0.283 . S
C279 C84 0.391 . S
C293 C124 0.326 . S
C297 C4 0.489 . S
C311 C111 3.376 1_556 S
C315 C140 3.274 . S
C329 C31 3.649 . S
C333 C151 3.636 . S
C347 C44 2.643 . S
C351 C20 2.699 . S
C365 C100 2.392 . S
C369 C65 2.368 . S
