# Generated by pormake.
# Topology ukt, (4)-cn, num edge types: 1
# Building blocks:
#     Node 0, Type 0, BuildingBlock: QUQFOY_clean_sbu_1, # of connection points: 4
#     Node 1, Type 0, BuildingBlock: QUQFOY_clean_sbu_1, # of connection points: 4
#     Node 2, Type 0, BuildingBlock: QUQFOY_clean_sbu_1, # of connection points: 4
#     Node 3, Type 0, BuildingBlock: QUQFOY_clean_sbu_1, # of connection points: 4
#     Node 4, Type 0, BuildingBlock: QUQFOY_clean_sbu_1, # of connection points: 4
#     Node 5, Type 0, BuildingBlock: QUQFOY_clean_sbu_1, # of connection points: 4
#     Node 6, Type 0, BuildingBlock: QUQFOY_clean_sbu_1, # of connection points: 4
#     Node 7, Type 0, BuildingBlock: QUQFOY_clean_sbu_1, # of connection points: 4
#     Node 8, Type 0, BuildingBlock: QUQFOY_clean_sbu_1, # of connection points: 4
#     Node 9, Type 0, BuildingBlock: QUQFOY_clean_sbu_1, # of connection points: 4
#     Node 10, Type 0, BuildingBlock: QUQFOY_clean_sbu_1, # of connection points: 4
#     Node 11, Type 0, BuildingBlock: QUQFOY_clean_sbu_1, # of connection points: 4
#     Node 12, Type 0, BuildingBlock: QUQFOY_clean_sbu_1, # of connection points: 4
#     Node 13, Type 0, BuildingBlock: QUQFOY_clean_sbu_1, # of connection points: 4
#     Node 14, Type 0, BuildingBlock: QUQFOY_clean_sbu_1, # of connection points: 4
#     Node 15, Type 0, BuildingBlock: QUQFOY_clean_sbu_1, # of connection points: 4
#     Edge 16, Type (0, 0), BuildingBlock: OJICUG_clean_linker_0, # of connection points: 2
#     Edge 17, Type (0, 0), BuildingBlock: OJICUG_clean_linker_0, # of connection points: 2
#     Edge 18, Type (0, 0), BuildingBlock: OJICUG_clean_linker_0, # of connection points: 2
#     Edge 19, Type (0, 0), BuildingBlock: OJICUG_clean_linker_0, # of connection points: 2
#     Edge 20, Type (0, 0), BuildingBlock: OJICUG_clean_linker_0, # of connection points: 2
#     Edge 21, Type (0, 0), BuildingBlock: OJICUG_clean_linker_0, # of connection points: 2
#     Edge 22, Type (0, 0), BuildingBlock: OJICUG_clean_linker_0, # of connection points: 2
#     Edge 23, Type (0, 0), BuildingBlock: OJICUG_clean_linker_0, # of connection points: 2
#     Edge 24, Type (0, 0), BuildingBlock: OJICUG_clean_linker_0, # of connection points: 2
#     Edge 25, Type (0, 0), BuildingBlock: OJICUG_clean_linker_0, # of connection points: 2
#     Edge 26, Type (0, 0), BuildingBlock: OJICUG_clean_linker_0, # of connection points: 2
#     Edge 27, Type (0, 0), BuildingBlock: OJICUG_clean_linker_0, # of connection points: 2
#     Edge 28, Type (0, 0), BuildingBlock: OJICUG_clean_linker_0, # of connection points: 2
#     Edge 29, Type (0, 0), BuildingBlock: OJICUG_clean_linker_0, # of connection points: 2
#     Edge 30, Type (0, 0), BuildingBlock: OJICUG_clean_linker_0, # of connection points: 2
#     Edge 31, Type (0, 0), BuildingBlock: OJICUG_clean_linker_0, # of connection points: 2
#     Edge 32, Type (0, 0), BuildingBlock: OJICUG_clean_linker_0, # of connection points: 2
#     Edge 33, Type (0, 0), BuildingBlock: OJICUG_clean_linker_0, # of connection points: 2
#     Edge 34, Type (0, 0), BuildingBlock: OJICUG_clean_linker_0, # of connection points: 2
#     Edge 35, Type (0, 0), BuildingBlock: OJICUG_clean_linker_0, # of connection points: 2
#     Edge 36, Type (0, 0), BuildingBlock: OJICUG_clean_linker_0, # of connection points: 2
#     Edge 37, Type (0, 0), BuildingBlock: OJICUG_clean_linker_0, # of connection points: 2
#     Edge 38, Type (0, 0), BuildingBlock: OJICUG_clean_linker_0, # of connection points: 2
#     Edge 39, Type (0, 0), BuildingBlock: OJICUG_clean_linker_0, # of connection points: 2
#     Edge 40, Type (0, 0), BuildingBlock: OJICUG_clean_linker_0, # of connection points: 2
#     Edge 41, Type (0, 0), BuildingBlock: OJICUG_clean_linker_0, # of connection points: 2
#     Edge 42, Type (0, 0), BuildingBlock: OJICUG_clean_linker_0, # of connection points: 2
#     Edge 43, Type (0, 0), BuildingBlock: OJICUG_clean_linker_0, # of connection points: 2
#     Edge 44, Type (0, 0), BuildingBlock: OJICUG_clean_linker_0, # of connection points: 2
#     Edge 45, Type (0, 0), BuildingBlock: OJICUG_clean_linker_0, # of connection points: 2
#     Edge 46, Type (0, 0), BuildingBlock: OJICUG_clean_linker_0, # of connection points: 2
#     Edge 47, Type (0, 0), BuildingBlock: OJICUG_clean_linker_0, # of connection points: 2
# Relax obj value: 0.109
# Max RMSD: 0.078
# Mean RMSD: 0.078
data_MOF--net-ukt--node1-QUQFOY_clean_sbu_1--edge1-OJICUG_clean_linker_0
_symmetry_space_group_name_H-M    P1
_symmetry_Int_Tables_number       1
_symmetry_cell_setting            triclinic
loop_
_symmetry_equiv_pos_as_xyz
'x, y, z'
_cell_length_a     33.893969
_cell_length_b     34.164109
_cell_length_c     30.165461
_cell_angle_alpha  89.951992
_cell_angle_beta   90.007085
_cell_angle_gamma 89.802805
loop_
_atom_site_label
_atom_site_type_symbol
_atom_site_fract_x
_atom_site_fract_y
_atom_site_fract_z
_atom_type_partial_charge
O0 O 0.59183 0.11077 0.02518 0.0
Cd1 Cd 0.53387 0.12263 0.03278 0.0
Cd2 Cd 0.56868 0.15987 0.10762 0.0
O3 O 0.61027 0.11625 0.09477 0.0
O4 O 0.51297 0.0848 0.98946 0.0
O5 O 0.50303 0.0801 0.06189 0.0
C6 C 0.50087 0.06465 0.02285 0.0
C7 C 0.56914 0.1888 0.17828 0.0
C8 C 0.61644 0.10375 0.05571 0.0
C9 C 0.5349 0.20523 0.02614 0.0
O10 O 0.55711 0.20198 0.05996 0.0
O11 O 0.51667 0.17604 0.01057 0.0
O12 O 0.59821 0.19243 0.15126 0.0
O13 O 0.54001 0.16704 0.16621 0.0
O14 O 0.36513 0.59597 0.03004 0.0
Cd15 Cd 0.34817 0.53961 0.03484 0.0
Cd16 Cd 0.31278 0.57464 0.11122 0.0
O17 O 0.35926 0.61316 0.10003 0.0
O18 O 0.38465 0.51707 0.99074 0.0
O19 O 0.38833 0.50462 0.06276 0.0
C20 C 0.40391 0.50253 0.0237 0.0
C21 C 0.28392 0.57334 0.18198 0.0
C22 C 0.37333 0.61897 0.06153 0.0
C23 C 0.26474 0.54716 0.02899 0.0
O24 O 0.26936 0.56771 0.06374 0.0
O25 O 0.29302 0.52783 0.01237 0.0
O26 O 0.28195 0.60375 0.15694 0.0
O27 O 0.30426 0.54383 0.16799 0.0
O28 O 0.87741 0.35362 0.02555 0.0
Cd29 Cd 0.93535 0.34122 0.0322 0.0
Cd30 Cd 0.90102 0.30378 0.10773 0.0
O31 O 0.85929 0.34735 0.0952 0.0
O32 O 0.95607 0.37891 0.98851 0.0
O33 O 0.96691 0.38346 0.06078 0.0
C34 C 0.96875 0.39893 0.0217 0.0
C35 C 0.90096 0.27478 0.17842 0.0
C36 C 0.85296 0.3603 0.05632 0.0
C37 C 0.93403 0.25846 0.02586 0.0
O38 O 0.91232 0.26168 0.06007 0.0
O39 O 0.95193 0.28769 1.00983 0.0
O40 O 0.87175 0.27117 0.1516 0.0
O41 O 0.93002 0.29656 0.16614 0.0
O42 O 0.10452 0.86725 0.02771 0.0
Cd43 Cd 0.12113 0.92371 0.03225 0.0
Cd44 Cd 0.15719 0.88875 0.10865 0.0
O45 O 0.1104 0.8505 0.09787 0.0
O46 O 0.08425 0.94602 0.98835 0.0
O47 O 0.08089 0.95842 0.06039 0.0
C48 C 0.06508 0.96042 0.02143 0.0
C49 C 0.18679 0.88938 0.17904 0.0
C50 C 0.09623 0.84452 0.05946 0.0
C51 C 0.20454 0.9167 0.02597 0.0
O52 O 0.20019 0.89606 0.06074 0.0
O53 O 0.17609 0.9359 1.00949 0.0
O54 O 0.18844 0.85918 0.15371 0.0
O55 O 0.16637 0.91905 0.16558 0.0
O56 O 0.59623 0.35966 0.49179 0.0
Cd57 Cd 0.53935 0.3428 0.48817 0.0
Cd58 Cd 0.57388 0.30677 0.41157 0.0
O59 O 0.61331 0.3525 0.42186 0.0
O60 O 0.51749 0.37912 0.53268 0.0
O61 O 0.50371 0.38267 0.46094 0.0
C62 C 0.50238 0.39824 0.49998 0.0
C63 C 0.57173 0.27815 0.34085 0.0
C64 C 0.61939 0.36704 0.46001 0.0
C65 C 0.54677 0.26 0.49482 0.0
O66 O 0.567 0.2641 0.45962 0.0
O67 O 0.52773 0.28833 0.51149 0.0
O68 O 0.60251 0.2758 0.36559 0.0
O69 O 0.54224 0.29851 0.35521 0.0
O70 O 0.10442 0.59361 0.4918 0.0
Cd71 Cd 0.12257 0.53737 0.48916 0.0
Cd72 Cd 0.16031 0.57249 0.4125 0.0
O73 O 0.11395 0.61165 0.42252 0.0
O74 O 0.08604 0.51574 0.53371 0.0
O75 O 0.08332 0.50109 0.46222 0.0
C76 C 0.0674 0.49996 0.50116 0.0
C77 C 0.19086 0.57208 0.34256 0.0
C78 C 0.09801 0.61711 0.46016 0.0
C79 C 0.20617 0.54485 0.49678 0.0
O80 O 0.20248 0.56461 0.46126 0.0
O81 O 0.17738 0.52647 0.51342 0.0
O82 O 0.1925 0.60193 0.36836 0.0
O83 O 0.17007 0.54257 0.35534 0.0
O84 O 0.87498 0.10199 0.49114 0.0
Cd85 Cd 0.93183 0.11905 0.48814 0.0
Cd86 Cd 0.89742 0.15577 0.41135 0.0
O87 O 0.85799 0.10995 0.42126 0.0
O88 O 0.95347 0.0826 0.53275 0.0
O89 O 0.96781 0.07938 0.46116 0.0
C90 C 0.9689 0.06367 0.50016 0.0
C91 C 0.89929 0.18494 0.34083 0.0
C92 C 0.85187 0.09498 0.45921 0.0
C93 C 0.92433 0.20189 0.49516 0.0
O94 O 0.90436 0.19806 0.45973 0.0
O95 O 0.94316 0.17341 0.51187 0.0
O96 O 0.86861 0.1871 0.36576 0.0
O97 O 0.92884 0.1645 0.3549 0.0
O98 O 0.36665 0.868 0.4885 0.0
Cd99 Cd 0.34856 0.92423 0.48492 0.0
Cd100 Cd 0.31116 0.88842 0.40897 0.0
O101 O 0.35743 0.84922 0.41947 0.0
O102 O 0.38485 0.9461 0.52954 0.0
O103 O 0.38809 0.96027 0.45794 0.0
C104 C 0.40375 0.96163 0.497 0.0
C105 C 0.28087 0.8892 0.33891 0.0
C106 C 0.37318 0.84413 0.45729 0.0
C107 C 0.26502 0.91653 0.49261 0.0
O108 O 0.26884 0.89628 0.45751 0.0
O109 O 0.29368 0.93536 0.50885 0.0
O110 O 0.27913 0.85919 0.36454 0.0
O111 O 0.30168 0.9186 0.3519 0.0
O112 O 0.37611 0.85908 0.99294 0.0
Cd113 Cd 0.43364 0.84426 0.98827 0.0
Cd114 Cd 0.39935 0.80675 0.91209 0.0
O115 O 0.35791 0.85076 0.92355 0.0
O116 O 0.45473 0.88123 0.03247 0.0
O117 O 0.4675 0.88518 0.96056 0.0
C118 C 0.46893 0.90069 0.99961 0.0
C119 C 0.40022 0.77781 0.84143 0.0
C120 C 0.35181 0.86509 0.96182 0.0
C121 C 0.42994 0.76123 0.99505 0.0
O122 O 0.40923 0.76457 0.96007 0.0
O123 O 0.44777 0.79028 0.01155 0.0
O124 O 0.37049 0.77453 0.86756 0.0
O125 O 0.42935 0.79918 0.85438 0.0
O126 O 0.60318 0.36774 0.99214 0.0
Cd127 Cd 0.62199 0.42358 0.9884 0.0
Cd128 Cd 0.65532 0.3889 0.91065 0.0
O129 O 0.60745 0.35201 0.92155 0.0
O130 O 0.58642 0.44681 0.03295 0.0
O131 O 0.58293 0.46002 0.96106 0.0
C132 C 0.56748 0.46214 1.0002 0.0
C133 C 0.68372 0.39042 0.83969 0.0
C134 C 0.5936 0.34589 0.96008 0.0
C135 C 0.70519 0.41342 0.99273 0.0
O136 O 0.69945 0.39361 0.95765 0.0
O137 O 0.67776 0.43335 0.01023 0.0
O138 O 0.68471 0.35951 0.86399 0.0
O139 O 0.66453 0.42037 0.85451 0.0
O140 O 0.09319 0.60549 0.99358 0.0
Cd141 Cd 0.03561 0.61966 0.98728 0.0
Cd142 Cd 0.07091 0.65679 0.91193 0.0
O143 O 0.11215 0.61276 0.92431 0.0
O144 O 0.01406 0.58261 0.03115 0.0
O145 O 0.00272 0.57828 0.95897 0.0
C146 C 0.00071 0.56289 0.99808 0.0
C147 C 0.07064 0.68566 0.84118 0.0
C148 C 0.11787 0.59904 0.96297 0.0
C149 C 0.03904 0.70252 0.99395 0.0
O150 O 0.06056 0.69904 0.95962 0.0
O151 O 0.02062 0.67358 1.00993 0.0
O152 O 0.10018 0.68893 0.8676 0.0
O153 O 0.04142 0.66427 0.85388 0.0
O154 O 0.86618 0.09549 0.99157 0.0
Cd155 Cd 0.84711 0.03974 0.98748 0.0
Cd156 Cd 0.81449 0.07446 0.90985 0.0
O157 O 0.86216 0.1115 0.92102 0.0
O158 O 0.88259 0.01593 0.03177 0.0
O159 O 0.8859 0.00333 0.95974 0.0
C160 C 0.9014 0.0008 0.99883 0.0
C161 C 0.78671 0.07236 0.8386 0.0
C162 C 0.87583 0.11751 0.95965 0.0
C163 C 0.76398 0.0503 0.99147 0.0
O164 O 0.76999 0.07014 0.95643 0.0
O165 O 0.79124 0.03017 1.00909 0.0
O166 O 0.78552 0.10346 0.86251 0.0
O167 O 0.80579 0.04253 0.85399 0.0
O168 O 0.37569 0.60472 0.52959 0.0
Cd169 Cd 0.43322 0.61902 0.53395 0.0
Cd170 Cd 0.39892 0.65794 0.60917 0.0
O171 O 0.35803 0.61343 0.59909 0.0
O172 O 0.45367 0.58141 0.48995 0.0
O173 O 0.46697 0.57775 0.56175 0.0
C174 C 0.4679 0.56193 0.52284 0.0
C175 C 0.4001 0.6879 0.67925 0.0
C176 C 0.35182 0.5987 0.56106 0.0
C177 C 0.42921 0.70185 0.52517 0.0
O178 O 0.40831 0.69922 0.56007 0.0
O179 O 0.44741 0.67251 0.50961 0.0
O180 O 0.37016 0.69085 0.6533 0.0
O181 O 0.42928 0.66635 0.66642 0.0
O182 O 0.8621 0.3699 0.52966 0.0
Cd183 Cd 0.8466 0.42678 0.53449 0.0
Cd184 Cd 0.80784 0.39149 0.60949 0.0
O185 O 0.85318 0.35127 0.59879 0.0
O186 O 0.88416 0.44788 0.49071 0.0
O187 O 0.88745 0.46064 0.56261 0.0
C188 C 0.90342 0.4621 0.52372 0.0
C189 C 0.77702 0.39163 0.67928 0.0
C190 C 0.86828 0.34577 0.56073 0.0
C191 C 0.76314 0.4222 0.52588 0.0
O192 O 0.76618 0.40123 0.56058 0.0
O193 O 0.79243 0.44053 0.5103 0.0
O194 O 0.77466 0.36224 0.65287 0.0
O195 O 0.79867 0.42076 0.6672 0.0
O196 O 0.09557 0.85663 0.52773 0.0
Cd197 Cd 0.03803 0.84272 0.53347 0.0
Cd198 Cd 0.07291 0.80484 0.60835 0.0
O199 O 0.11367 0.84929 0.59728 0.0
O200 O 0.0169 0.88031 0.48979 0.0
O201 O 0.00505 0.8842 0.56189 0.0
C202 C 0.00343 0.89994 0.52293 0.0
C203 C 0.07165 0.77554 0.67881 0.0
C204 C 0.11966 0.86327 0.55882 0.0
C205 C 0.04192 0.76 0.52554 0.0
O206 O 0.06343 0.76305 0.55992 0.0
O207 O 0.02322 0.7891 0.51007 0.0
O208 O 0.10167 0.77242 0.65302 0.0
O209 O 0.04249 0.79698 0.66564 0.0
O210 O 0.60872 0.09172 0.52804 0.0
Cd211 Cd 0.62432 0.03482 0.53218 0.0
Cd212 Cd 0.66322 0.06967 0.6079 0.0
O213 O 0.61786 0.1099 0.59727 0.0
O214 O 0.58692 0.01416 0.48795 0.0
O215 O 0.58344 0.00057 0.55967 0.0
C216 C 0.5676 -0.00049 0.52069 0.0
C217 C 0.69416 0.06988 0.67765 0.0
C218 C 0.60265 0.11564 0.5593 0.0
C219 C 0.70789 0.03935 0.52399 0.0
O220 O 0.70485 0.0599 0.55898 0.0
O221 O 0.67856 0.02139 0.508 0.0
O222 O 0.69647 0.09912 0.65098 0.0
O223 O 0.67254 0.04067 0.66582 0.0
C224 C 0.53154 0.27691 0.02617 0.0
C225 C 0.53607 0.24228 1.00205 0.0
H226 H 0.54535 0.33747 0.03073 0.0
C227 C 0.55256 0.24347 0.95935 0.0
H228 H 0.51901 0.27643 0.05923 0.0
C229 C 0.56873 0.27836 0.94324 0.0
C230 C 0.56822 0.31207 0.96984 0.0
H231 H 0.55673 0.21675 0.94057 0.0
H232 H 0.58448 0.27805 0.912 0.0
C233 C 0.54713 0.31163 1.01 0.0
C234 C 0.18766 0.57789 0.94713 0.0
C235 C 0.15416 0.57741 0.97456 0.0
H236 H 0.25009 0.56725 0.94313 0.0
C237 C 0.15651 0.55916 0.01631 0.0
H238 H 0.18659 0.59146 0.91469 0.0
C239 C 0.19245 0.54571 0.03239 0.0
C240 C 0.22653 0.54943 1.00672 0.0
H241 H 0.13104 0.55744 0.03793 0.0
H242 H 0.19408 0.53472 0.06607 0.0
C243 C 0.22381 0.56378 0.96318 0.0
C244 C 0.92165 0.15196 0.01011 0.0
C245 C 0.90099 0.15143 0.96966 0.0
H246 H 0.94929 0.18726 0.05953 0.0
C247 C 0.90071 0.1851 0.94294 0.0
H248 H 0.92326 0.12616 0.03096 0.0
C249 C 0.91669 0.22004 0.9591 0.0
C250 C 0.93276 0.22132 1.00201 0.0
H251 H 0.88529 0.18534 0.91148 0.0
H252 H 0.91273 0.24671 0.94013 0.0
C253 C 0.93705 0.18673 0.02633 0.0
C254 C 0.28189 0.8852 0.94506 0.0
C255 C 0.3154 0.88689 0.97242 0.0
H256 H 0.21931 0.89477 0.94082 0.0
C257 C 0.31287 0.90635 0.01342 0.0
H258 H 0.2831 0.87066 0.91319 0.0
C259 C 0.27676 0.91975 0.02904 0.0
C260 C 0.24269 0.91476 1.00361 0.0
H261 H 0.33834 0.90899 0.03491 0.0
H262 H 0.27499 0.93161 0.06231 0.0
C263 C 0.24557 0.89924 0.96063 0.0
C264 C 0.56638 0.22037 0.56025 0.0
C265 C 0.54948 0.22247 0.5178 0.0
H266 H 0.59719 0.18416 0.60719 0.0
C267 C 0.54414 0.1883 0.49315 0.0
H268 H 0.57113 0.24674 0.57943 0.0
C269 C 0.55864 0.15288 0.50888 0.0
C270 C 0.57958 0.15118 0.54913 0.0
H271 H 0.53122 0.18949 0.4603 0.0
H272 H 0.55575 0.12731 0.48791 0.0
C273 C 0.58153 0.18475 0.5759 0.0
C274 C 0.28198 0.57889 0.57777 0.0
C275 C 0.31588 0.5762 0.55114 0.0
H276 H 0.2194 0.56958 0.58118 0.0
C277 C 0.31416 0.55506 0.51118 0.0
H278 H 0.28261 0.59474 0.60884 0.0
C279 C 0.27839 0.54105 0.49552 0.0
C280 C 0.2439 0.54713 0.51994 0.0
H281 H 0.33999 0.55162 0.49036 0.0
H282 H 0.27722 0.52793 0.46283 0.0
C283 C 0.246 0.56426 0.56218 0.0
C284 C 0.91217 0.30892 0.50991 0.0
C285 C 0.89134 0.31031 0.55024 0.0
H286 H 0.93955 0.27268 0.46102 0.0
C287 C 0.88953 0.27657 0.5768 0.0
H288 H 0.91496 0.33463 0.4891 0.0
C289 C 0.90472 0.24108 0.56088 0.0
C290 C 0.9215 0.23928 0.51836 0.0
H291 H 0.87397 0.27693 0.60815 0.0
H292 H 0.90009 0.21458 0.57992 0.0
C293 C 0.9267 0.27362 0.49392 0.0
C294 C 0.1571 0.90572 0.50735 0.0
C295 C 0.15552 0.88559 0.54802 0.0
H296 H 0.19382 0.93192 0.45811 0.0
C297 C 0.18946 0.88376 0.57469 0.0
H298 H 0.13123 0.9085 0.48645 0.0
C299 C 0.22533 0.89824 0.55859 0.0
C300 C 0.2273 0.91436 0.51581 0.0
H301 H 0.18895 0.8687 0.6063 0.0
H302 H 0.25198 0.8936 0.57776 0.0
C303 C 0.19275 0.91959 0.49121 0.0
C304 C 0.4119 0.72249 0.06153 0.0
C305 C 0.42815 0.72398 0.01872 0.0
H306 H 0.38105 0.68729 0.10919 0.0
C307 C 0.43289 0.68949 0.99441 0.0
H308 H 0.40763 0.74909 0.08048 0.0
C309 C 0.41804 0.65448 0.01067 0.0
C310 C 0.39742 0.65359 0.05114 0.0
H311 H 0.44531 0.69018 0.96131 0.0
H312 H 0.4202 0.6287 0.9899 0.0
C313 C 0.39644 0.6873 0.07773 0.0
C314 C 0.7774 0.41268 0.98722 0.0
C315 C 0.74382 0.4101 0.01392 0.0
H316 H 0.83847 0.39995 0.98035 0.0
C317 C 0.74722 0.39643 0.05768 0.0
H318 H 0.77525 0.42318 0.95338 0.0
C319 C 0.78349 0.38207 0.07312 0.0
C320 C 0.81645 0.3816 0.04484 0.0
H321 H 0.72133 0.39388 0.07854 0.0
H322 H 0.78508 0.36921 0.1059 0.0
C323 C 0.81344 0.39897 1.00266 0.0
C324 C 0.05725 0.74119 0.06025 0.0
C325 C 0.04063 0.73971 0.01762 0.0
H326 H 0.08866 0.77631 0.10746 0.0
C327 C 0.03573 0.77421 0.99329 0.0
H328 H 0.06169 0.71457 0.07919 0.0
C329 C 0.05084 0.80917 1.00929 0.0
C330 C 0.07186 0.81002 0.0495 0.0
H331 H 0.02307 0.77351 0.9603 0.0
H332 H 0.04859 0.83495 0.98846 0.0
C333 C 0.07296 0.77633 0.07618 0.0
C334 C 0.68575 0.0812 0.07216 0.0
C335 C 0.65288 0.08254 0.04377 0.0
H336 H 0.74774 0.06857 0.07761 0.0
C337 C 0.65586 0.06602 1.00119 0.0
H338 H 0.68416 0.09338 0.10524 0.0
C339 C 0.6918 0.05221 0.9856 0.0
C340 C 0.72532 0.05387 0.01251 0.0
H341 H 0.6309 0.06572 0.97874 0.0
H342 H 0.69394 0.04233 0.95154 0.0
C343 C 0.72191 0.06674 0.05656 0.0
C344 C 0.43362 0.77347 0.5238 0.0
C345 C 0.42745 0.73865 0.50062 0.0
H346 H 0.42231 0.83466 0.52716 0.0
C347 C 0.40987 0.73971 0.45846 0.0
H348 H 0.44703 0.77309 0.55643 0.0
C349 C 0.3946 0.77496 0.44193 0.0
C350 C 0.39711 0.80918 0.46752 0.0
H351 H 0.40446 0.71285 0.44042 0.0
H352 H 0.37819 0.77473 0.41112 0.0
C353 C 0.419 0.80854 0.50716 0.0
C354 C 0.72439 0.40341 0.45961 0.0
C355 C 0.72583 0.4207 0.5018 0.0
H356 H 0.68872 0.37216 0.41271 0.0
C357 C 0.69096 0.42677 0.52555 0.0
H358 H 0.7513 0.39807 0.44115 0.0
C359 C 0.65553 0.41228 0.50945 0.0
C360 C 0.65457 0.39072 0.46975 0.0
H361 H 0.69163 0.43995 0.55822 0.0
H362 H 0.62941 0.41547 0.52986 0.0
C363 C 0.68876 0.38834 0.44357 0.0
C364 C 0.05181 0.65318 0.50908 0.0
C365 C 0.07398 0.65214 0.46965 0.0
H366 H 0.02352 0.68915 0.5576 0.0
C367 C 0.07668 0.6861 0.44358 0.0
H368 H 0.04835 0.62726 0.52942 0.0
C369 C 0.06135 0.72153 0.45947 0.0
C370 C 0.04349 0.72301 0.50145 0.0
H371 H 0.09331 0.68602 0.41292 0.0
H372 H 0.06696 0.74821 0.44112 0.0
C373 C 0.0371 0.68843 0.52507 0.0
C374 C 0.78007 0.03472 0.5239 0.0
C375 C 0.74527 0.04102 0.50008 0.0
H376 H 0.84162 0.04593 0.52858 0.0
C377 C 0.74686 0.05866 0.45804 0.0
H378 H 0.77929 0.02126 0.55645 0.0
C379 C 0.78255 0.07385 0.4423 0.0
C380 C 0.81665 0.07122 0.46859 0.0
H381 H 0.72001 0.06417 0.43952 0.0
H382 H 0.78269 0.09029 0.41158 0.0
C383 C 0.81556 0.04932 0.50808 0.0
C384 C 0.4786 0.95885 0.04829 0.0
C385 C 0.48026 0.94191 1.00583 0.0
H386 H 0.48275 0.01116 0.08691 0.0
C387 C 0.4874 0.96594 0.96899 0.0
H388 H 0.4727 0.94115 0.07734 0.0
C389 C 0.49245 0.00615 0.97444 0.0
C390 C 0.49059 0.02312 0.01686 0.0
H391 H 0.48825 0.95388 0.93581 0.0
H392 H 0.49824 0.02384 0.94536 0.0
C393 C 0.48371 -0.00094 0.05375 0.0
C394 C 0.46246 0.49146 0.97519 0.0
C395 C 0.44513 0.4898 0.01752 0.0
H396 H 0.51504 0.4852 0.93664 0.0
C397 C 0.46889 0.48099 0.05431 0.0
H398 H 0.44503 0.49869 0.9462 0.0
C399 C 0.50916 0.47392 0.04887 0.0
C400 C 0.52647 0.47547 1.00652 0.0
H401 H 0.45655 0.48014 0.08741 0.0
H402 H 0.52659 0.46662 0.07784 0.0
C403 C 0.50273 0.48441 0.96976 0.0
C404 C 0.98268 0.49751 0.96748 0.0
C405 C -0.01041 0.52159 1.0043 0.0
H406 H 0.97191 0.43956 0.94401 0.0
C407 C -0.00889 0.5047 0.04681 0.0
H408 H 0.98194 0.50955 0.93426 0.0
C409 C -0.01398 0.46449 0.05237 0.0
C410 C 0.97925 0.44039 0.01555 0.0
H411 H -0.00315 0.52243 0.07584 0.0
H412 H -0.01317 0.45244 0.08559 0.0
C413 C 0.97759 0.4573 0.97305 0.0
C414 C 0.00015 -0.01843 0.05243 0.0
C415 C 0.02378 0.97297 0.0155 0.0
H416 H 0.94254 -0.00419 0.0763 0.0
C417 C 0.00627 0.97144 0.97326 0.0
H418 H 0.01263 -0.01769 0.08548 0.0
C419 C 0.96598 0.97849 0.96804 0.0
C420 C 0.94238 -0.01271 1.00494 0.0
H421 H 0.02359 0.96435 0.94416 0.0
H422 H 0.95353 0.97784 0.93497 0.0
C423 C 0.95985 -0.01137 0.04722 0.0
C424 C 0.47629 0.50324 0.47463 0.0
C425 C 0.47898 0.52054 0.51682 0.0
H426 H 0.48038 0.45073 0.43635 0.0
C427 C 0.48724 0.49682 0.55367 0.0
H428 H 0.46943 0.52066 0.44561 0.0
C429 C 0.49284 0.45662 0.54842 0.0
C430 C 0.49035 0.43935 0.5062 0.0
H431 H 0.48884 0.50917 0.58669 0.0
H432 H 0.4998 0.4392 0.57743 0.0
C433 C 0.48188 0.46304 0.46938 0.0
C434 C 0.00281 0.47803 0.4705 0.0
C435 C 0.02631 0.48715 0.50733 0.0
H436 H 0.94522 0.46423 0.44664 0.0
C437 C 0.00872 0.48936 0.5495 0.0
H438 H 0.01537 0.47671 0.43751 0.0
C439 C 0.96837 0.48283 0.55467 0.0
C440 C 0.94484 0.47394 0.5178 0.0
H441 H 0.02597 0.49678 0.5785 0.0
H442 H 0.95578 0.48425 0.58764 0.0
C443 C 0.96247 0.47155 0.47568 0.0
C444 C -0.0051 0.95871 0.47478 0.0
C445 C -0.00757 0.94137 0.517 0.0
H446 H -0.00937 0.01125 0.43647 0.0
C447 C 0.98441 0.96507 0.55389 0.0
H448 H 0.00158 0.94131 0.44572 0.0
C449 C 0.97877 0.00528 0.54863 0.0
C450 C 0.98102 0.02258 0.50637 0.0
H451 H 0.98298 0.9527 0.58692 0.0
H452 H 0.97196 0.02268 0.57766 0.0
C453 C -0.01069 -0.00109 0.46953 0.0
C454 C 0.50252 0.97864 0.55115 0.0
C455 C 0.52624 -0.01237 0.51444 0.0
H456 H 0.44481 0.96466 0.57459 0.0
C457 C 0.50882 -0.00992 0.4722 0.0
H458 H 0.51494 0.97718 0.5842 0.0
C459 C 0.46851 -0.01643 0.46675 0.0
C460 C 0.44482 0.9744 0.50342 0.0
H461 H 0.52623 -0.00253 0.44329 0.0
H462 H 0.45612 -0.01505 0.43367 0.0
C463 C 0.4622 0.97213 0.54569 0.0
C464 C 0.60563 0.24551 0.27752 0.0
C465 C 0.5703 0.25646 0.29848 0.0
H466 H 0.63283 0.21566 0.2232 0.0
C467 C 0.53424 0.24424 0.28015 0.0
H468 H 0.63387 0.25436 0.29096 0.0
C469 C 0.53369 0.22109 0.24175 0.0
C470 C 0.56914 0.21055 0.22064 0.0
H471 H 0.50658 0.25191 0.29593 0.0
H472 H 0.50557 0.21209 0.22816 0.0
C473 C 0.60504 0.2232 0.23881 0.0
C474 C 0.22537 0.53635 0.28075 0.0
C475 C 0.21377 0.57169 0.30082 0.0
H476 H 0.25779 0.50904 0.22786 0.0
C477 C 0.22639 0.6072 0.28219 0.0
H478 H 0.21642 0.50854 0.2947 0.0
C479 C 0.24966 0.60749 0.24405 0.0
C480 C 0.26155 0.57227 0.22406 0.0
H481 H 0.21807 0.63492 0.29698 0.0
H482 H 0.25841 0.63543 0.23023 0.0
C483 C 0.24941 0.53663 0.24289 0.0
C484 C 0.93678 0.24234 0.24162 0.0
C485 C 0.90121 0.25299 0.22079 0.0
H486 H 0.96419 0.21131 0.29551 0.0
C487 C 0.86541 0.24036 0.23924 0.0
H488 H 0.96483 0.25133 0.22781 0.0
C489 C 0.86503 0.21794 0.27792 0.0
C490 C 0.90049 0.20686 0.29857 0.0
H491 H 0.83753 0.24799 0.22386 0.0
H492 H 0.83686 0.20909 0.29155 0.0
C493 C 0.93644 0.21908 0.27998 0.0
C494 C 0.24524 0.8546 0.27829 0.0
C495 C 0.25788 0.88994 0.29723 0.0
H496 H 0.21291 0.82684 0.22627 0.0
C497 C 0.2461 0.92546 0.27763 0.0
H498 H 0.25369 0.82675 0.29271 0.0
C499 C 0.2218 0.92552 0.23997 0.0
C500 C 0.20958 0.89005 0.22085 0.0
H501 H 0.25505 0.95315 0.29184 0.0
H502 H 0.21325 0.95324 0.22534 0.0
C503 C 0.22171 0.85465 0.24033 0.0
C504 C 0.36526 0.74442 0.77953 0.0
C505 C 0.40093 0.75609 0.79906 0.0
H506 H 0.33718 0.71387 0.72642 0.0
C507 C 0.4367 0.74455 0.77934 0.0
H508 H 0.33723 0.75275 0.79405 0.0
C509 C 0.43667 0.72128 0.74103 0.0
C510 C 0.40087 0.70998 0.72137 0.0
H511 H 0.46463 0.7528 0.79401 0.0
H512 H 0.46458 0.71275 0.72638 0.0
C513 C 0.36523 0.72201 0.74088 0.0
C514 C 0.74016 0.35658 0.73869 0.0
C515 C 0.75398 0.39199 0.72093 0.0
H516 H 0.70715 0.32845 0.78994 0.0
C517 C 0.74348 0.42731 0.74179 0.0
H518 H 0.74761 0.32889 0.72328 0.0
C519 C 0.71938 0.4271 0.77961 0.0
C520 C 0.70605 0.39154 0.79759 0.0
H521 H 0.75336 0.45506 0.72853 0.0
H522 H 0.7119 0.45466 0.79528 0.0
C523 C 0.71682 0.35633 0.77678 0.0
C524 C 0.03477 0.74219 0.74042 0.0
C525 C 0.07068 0.75361 0.72107 0.0
H526 H 0.00653 0.71055 0.79315 0.0
C527 C 0.10621 0.74169 0.74094 0.0
H528 H 0.00694 0.75062 0.72548 0.0
C529 C 0.10597 0.71926 0.77962 0.0
C530 C 0.0702 0.70744 0.79881 0.0
H531 H 0.13434 0.74992 0.72671 0.0
H532 H 0.13392 0.711 0.79441 0.0
C533 C 0.03454 0.7189 0.77875 0.0
C534 C 0.73096 0.10537 0.73671 0.0
C535 C 0.71714 0.06983 0.71935 0.0
H536 H 0.76377 0.1339 0.78779 0.0
C537 C 0.72749 0.03468 0.74075 0.0
H538 H 0.72363 0.13294 0.7209 0.0
C539 C 0.75141 0.03518 0.77871 0.0
C540 C 0.7647 0.07088 0.79631 0.0
H541 H 0.7176 0.00682 0.72781 0.0
H542 H 0.75874 0.00776 0.79482 0.0
C543 C 0.75412 0.10591 0.77494 0.0
loop_
_geom_bond_atom_site_label_1
_geom_bond_atom_site_label_2
_geom_bond_distance
_geom_bond_site_symmetry_2
_ccdc_geom_bond_type
O0 Cd1 2.223 1_556 S
O0 C8 1.315 1_556 S
Cd1 O0 2.223 1_554 S
Cd1 O4 2.297 1_554 S
Cd1 O5 2.439 . S
Cd1 O11 2.240 . S
Cd2 O3 2.240 . S
Cd2 O10 2.223 . S
Cd2 O12 2.297 . S
Cd2 O13 2.439 . S
O3 Cd2 2.240 . S
O3 C8 1.279 . S
O4 Cd1 2.297 1_556 S
O4 C6 1.247 1_556 S
O5 Cd1 2.439 . S
O5 C6 1.208 . S
C6 O4 1.247 1_554 S
C6 O5 1.208 . S
C7 O12 1.247 . S
C7 O13 1.208 . S
C8 O0 1.315 1_554 S
C8 O3 1.279 . S
C9 O10 1.315 . S
C9 O11 1.279 . S
O10 Cd2 2.223 . S
O10 C9 1.315 . S
O11 Cd1 2.240 . S
O11 C9 1.279 . S
O12 Cd2 2.297 . S
O12 C7 1.247 . S
O13 Cd2 2.439 . S
O13 C7 1.208 . S
O14 Cd15 2.223 1_556 S
O14 C22 1.315 1_556 S
Cd15 O14 2.223 1_554 S
Cd15 O18 2.297 1_554 S
Cd15 O19 2.439 . S
Cd15 O25 2.240 . S
Cd16 O17 2.240 . S
Cd16 O24 2.223 . S
Cd16 O26 2.297 . S
Cd16 O27 2.439 . S
O17 Cd16 2.240 . S
O17 C22 1.279 . S
O18 Cd15 2.297 1_556 S
O18 C20 1.247 1_556 S
O19 Cd15 2.439 . S
O19 C20 1.208 . S
C20 O18 1.247 1_554 S
C20 O19 1.208 . S
C21 O26 1.247 . S
C21 O27 1.208 . S
C22 O14 1.315 1_554 S
C22 O17 1.279 . S
C23 O24 1.315 . S
C23 O25 1.279 . S
O24 Cd16 2.223 . S
O24 C23 1.315 . S
O25 Cd15 2.240 . S
O25 C23 1.279 . S
O26 Cd16 2.297 . S
O26 C21 1.247 . S
O27 Cd16 2.439 . S
O27 C21 1.208 . S
O28 Cd29 2.223 1_556 S
O28 C36 1.315 1_556 S
Cd29 O28 2.223 1_554 S
Cd29 O32 2.297 1_554 S
Cd29 O33 2.439 . S
Cd29 O39 2.240 . S
Cd30 O31 2.240 . S
Cd30 O38 2.223 . S
Cd30 O40 2.297 . S
Cd30 O41 2.439 . S
O31 Cd30 2.240 . S
O31 C36 1.279 . S
O32 Cd29 2.297 1_556 S
O32 C34 1.247 1_556 S
O33 Cd29 2.439 . S
O33 C34 1.208 . S
C34 O32 1.247 1_554 S
C34 O33 1.208 . S
C35 O40 1.247 . S
C35 O41 1.208 . S
C36 O28 1.315 1_554 S
C36 O31 1.279 . S
C37 O38 1.315 . S
C37 O39 1.279 . S
O38 Cd30 2.223 . S
O38 C37 1.315 . S
O39 Cd29 2.240 . S
O39 C37 1.279 . S
O40 Cd30 2.297 . S
O40 C35 1.247 . S
O41 Cd30 2.439 . S
O41 C35 1.208 . S
O42 Cd43 2.223 1_556 S
O42 C50 1.315 1_556 S
Cd43 O42 2.223 1_554 S
Cd43 O46 2.297 1_554 S
Cd43 O47 2.439 . S
Cd43 O53 2.240 . S
Cd44 O45 2.240 . S
Cd44 O52 2.223 . S
Cd44 O54 2.297 . S
Cd44 O55 2.439 . S
O45 Cd44 2.240 . S
O45 C50 1.279 . S
O46 Cd43 2.297 1_556 S
O46 C48 1.247 1_556 S
O47 Cd43 2.439 . S
O47 C48 1.208 . S
C48 O46 1.247 1_554 S
C48 O47 1.208 . S
C49 O54 1.247 . S
C49 O55 1.208 . S
C50 O42 1.315 1_554 S
C50 O45 1.279 . S
C51 O52 1.315 . S
C51 O53 1.279 . S
O52 Cd44 2.223 . S
O52 C51 1.315 . S
O53 Cd43 2.240 . S
O53 C51 1.279 . S
O54 Cd44 2.297 . S
O54 C49 1.247 . S
O55 Cd44 2.439 . S
O55 C49 1.208 . S
O56 Cd57 2.223 . S
O56 C64 1.315 . S
Cd57 O56 2.223 . S
Cd57 O60 2.297 . S
Cd57 O61 2.439 . S
Cd57 O67 2.240 . S
Cd58 O59 2.240 . S
Cd58 O66 2.223 . S
Cd58 O68 2.297 . S
Cd58 O69 2.439 . S
O59 Cd58 2.240 . S
O59 C64 1.279 . S
O60 Cd57 2.297 . S
O60 C62 1.247 . S
O61 Cd57 2.439 . S
O61 C62 1.208 . S
C62 O60 1.247 . S
C62 O61 1.208 . S
C63 O68 1.247 . S
C63 O69 1.208 . S
C64 O56 1.315 . S
C64 O59 1.279 . S
C65 O66 1.315 . S
C65 O67 1.279 . S
O66 Cd58 2.223 . S
O66 C65 1.315 . S
O67 Cd57 2.240 . S
O67 C65 1.279 . S
O68 Cd58 2.297 . S
O68 C63 1.247 . S
O69 Cd58 2.439 . S
O69 C63 1.208 . S
O70 Cd71 2.223 . S
O70 C78 1.315 . S
Cd71 O70 2.223 . S
Cd71 O74 2.297 . S
Cd71 O75 2.439 . S
Cd71 O81 2.240 . S
Cd72 O73 2.240 . S
Cd72 O80 2.223 . S
Cd72 O82 2.297 . S
Cd72 O83 2.439 . S
O73 Cd72 2.240 . S
O73 C78 1.279 . S
O74 Cd71 2.297 . S
O74 C76 1.247 . S
O75 Cd71 2.439 . S
O75 C76 1.208 . S
C76 O74 1.247 . S
C76 O75 1.208 . S
C77 O82 1.247 . S
C77 O83 1.208 . S
C78 O70 1.315 . S
C78 O73 1.279 . S
C79 O80 1.315 . S
C79 O81 1.279 . S
O80 Cd72 2.223 . S
O80 C79 1.315 . S
O81 Cd71 2.240 . S
O81 C79 1.279 . S
O82 Cd72 2.297 . S
O82 C77 1.247 . S
O83 Cd72 2.439 . S
O83 C77 1.208 . S
O84 Cd85 2.223 . S
O84 C92 1.315 . S
Cd85 O84 2.223 . S
Cd85 O88 2.297 . S
Cd85 O89 2.439 . S
Cd85 O95 2.240 . S
Cd86 O87 2.240 . S
Cd86 O94 2.223 . S
Cd86 O96 2.297 . S
Cd86 O97 2.439 . S
O87 Cd86 2.240 . S
O87 C92 1.279 . S
O88 Cd85 2.297 . S
O88 C90 1.247 . S
O89 Cd85 2.439 . S
O89 C90 1.208 . S
C90 O88 1.247 . S
C90 O89 1.208 . S
C91 O96 1.247 . S
C91 O97 1.208 . S
C92 O84 1.315 . S
C92 O87 1.279 . S
C93 O94 1.315 . S
C93 O95 1.279 . S
O94 Cd86 2.223 . S
O94 C93 1.315 . S
O95 Cd85 2.240 . S
O95 C93 1.279 . S
O96 Cd86 2.297 . S
O96 C91 1.247 . S
O97 Cd86 2.439 . S
O97 C91 1.208 . S
O98 Cd99 2.223 . S
O98 C106 1.315 . S
Cd99 O98 2.223 . S
Cd99 O102 2.297 . S
Cd99 O103 2.439 . S
Cd99 O109 2.240 . S
Cd100 O101 2.240 . S
Cd100 O108 2.223 . S
Cd100 O110 2.297 . S
Cd100 O111 2.439 . S
O101 Cd100 2.240 . S
O101 C106 1.279 . S
O102 Cd99 2.297 . S
O102 C104 1.247 . S
O103 Cd99 2.439 . S
O103 C104 1.208 . S
C104 O102 1.247 . S
C104 O103 1.208 . S
C105 O110 1.247 . S
C105 O111 1.208 . S
C106 O98 1.315 . S
C106 O101 1.279 . S
C107 O108 1.315 . S
C107 O109 1.279 . S
O108 Cd100 2.223 . S
O108 C107 1.315 . S
O109 Cd99 2.240 . S
O109 C107 1.279 . S
O110 Cd100 2.297 . S
O110 C105 1.247 . S
O111 Cd100 2.439 . S
O111 C105 1.208 . S
O112 Cd113 2.223 1_554 S
O112 C120 1.315 1_554 S
Cd113 O112 2.223 1_556 S
Cd113 O116 2.297 1_556 S
Cd113 O117 2.439 . S
Cd113 O123 2.240 . S
Cd114 O115 2.240 . S
Cd114 O122 2.223 . S
Cd114 O124 2.297 . S
Cd114 O125 2.439 . S
O115 Cd114 2.240 . S
O115 C120 1.279 . S
O116 Cd113 2.297 1_554 S
O116 C118 1.247 1_554 S
O117 Cd113 2.439 . S
O117 C118 1.208 . S
C118 O116 1.247 1_556 S
C118 O117 1.208 . S
C119 O124 1.247 . S
C119 O125 1.208 . S
C120 O112 1.315 1_556 S
C120 O115 1.279 . S
C121 O122 1.315 . S
C121 O123 1.279 . S
O122 Cd114 2.223 . S
O122 C121 1.315 . S
O123 Cd113 2.240 . S
O123 C121 1.279 . S
O124 Cd114 2.297 . S
O124 C119 1.247 . S
O125 Cd114 2.439 . S
O125 C119 1.208 . S
O126 Cd127 2.223 1_554 S
O126 C134 1.315 1_554 S
Cd127 O126 2.223 1_556 S
Cd127 O130 2.297 1_556 S
Cd127 O131 2.439 . S
Cd127 O137 2.240 . S
Cd128 O129 2.240 . S
Cd128 O136 2.223 . S
Cd128 O138 2.297 . S
Cd128 O139 2.439 . S
O129 Cd128 2.240 . S
O129 C134 1.279 . S
O130 Cd127 2.297 1_554 S
O130 C132 1.247 1_554 S
O131 Cd127 2.439 . S
O131 C132 1.208 . S
C132 O130 1.247 1_556 S
C132 O131 1.208 . S
C133 O138 1.247 . S
C133 O139 1.208 . S
C134 O126 1.315 1_556 S
C134 O129 1.279 . S
C135 O136 1.315 . S
C135 O137 1.279 . S
O136 Cd128 2.223 . S
O136 C135 1.315 . S
O137 Cd127 2.240 . S
O137 C135 1.279 . S
O138 Cd128 2.297 . S
O138 C133 1.247 . S
O139 Cd128 2.439 . S
O139 C133 1.208 . S
O140 Cd141 2.223 1_554 S
O140 C148 1.315 1_554 S
Cd141 O140 2.223 1_556 S
Cd141 O144 2.297 1_556 S
Cd141 O145 2.439 . S
Cd141 O151 2.240 . S
Cd142 O143 2.240 . S
Cd142 O150 2.223 . S
Cd142 O152 2.297 . S
Cd142 O153 2.439 . S
O143 Cd142 2.240 . S
O143 C148 1.279 . S
O144 Cd141 2.297 1_554 S
O144 C146 1.247 1_554 S
O145 Cd141 2.439 . S
O145 C146 1.208 . S
C146 O144 1.247 1_556 S
C146 O145 1.208 . S
C147 O152 1.247 . S
C147 O153 1.208 . S
C148 O140 1.315 1_556 S
C148 O143 1.279 . S
C149 O150 1.315 . S
C149 O151 1.279 . S
O150 Cd142 2.223 . S
O150 C149 1.315 . S
O151 Cd141 2.240 . S
O151 C149 1.279 . S
O152 Cd142 2.297 . S
O152 C147 1.247 . S
O153 Cd142 2.439 . S
O153 C147 1.208 . S
O154 Cd155 2.223 1_554 S
O154 C162 1.315 1_554 S
Cd155 O154 2.223 1_556 S
Cd155 O158 2.297 1_556 S
Cd155 O159 2.439 . S
Cd155 O165 2.240 . S
Cd156 O157 2.240 . S
Cd156 O164 2.223 . S
Cd156 O166 2.297 . S
Cd156 O167 2.439 . S
O157 Cd156 2.240 . S
O157 C162 1.279 . S
O158 Cd155 2.297 1_554 S
O158 C160 1.247 1_554 S
O159 Cd155 2.439 . S
O159 C160 1.208 . S
C160 O158 1.247 1_556 S
C160 O159 1.208 . S
C161 O166 1.247 . S
C161 O167 1.208 . S
C162 O154 1.315 1_556 S
C162 O157 1.279 . S
C163 O164 1.315 . S
C163 O165 1.279 . S
O164 Cd156 2.223 . S
O164 C163 1.315 . S
O165 Cd155 2.240 . S
O165 C163 1.279 . S
O166 Cd156 2.297 . S
O166 C161 1.247 . S
O167 Cd156 2.439 . S
O167 C161 1.208 . S
O168 Cd169 2.223 . S
O168 C176 1.315 . S
Cd169 O168 2.223 . S
Cd169 O172 2.297 . S
Cd169 O173 2.439 . S
Cd169 O179 2.240 . S
Cd170 O171 2.240 . S
Cd170 O178 2.223 . S
Cd170 O180 2.297 . S
Cd170 O181 2.439 . S
O171 Cd170 2.240 . S
O171 C176 1.279 . S
O172 Cd169 2.297 . S
O172 C174 1.247 . S
O173 Cd169 2.439 . S
O173 C174 1.208 . S
C174 O172 1.247 . S
C174 O173 1.208 . S
C175 O180 1.247 . S
C175 O181 1.208 . S
C176 O168 1.315 . S
C176 O171 1.279 . S
C177 O178 1.315 . S
C177 O179 1.279 . S
O178 Cd170 2.223 . S
O178 C177 1.315 . S
O179 Cd169 2.240 . S
O179 C177 1.279 . S
O180 Cd170 2.297 . S
O180 C175 1.247 . S
O181 Cd170 2.439 . S
O181 C175 1.208 . S
O182 Cd183 2.223 . S
O182 C190 1.315 . S
Cd183 O182 2.223 . S
Cd183 O186 2.297 . S
Cd183 O187 2.439 . S
Cd183 O193 2.240 . S
Cd184 O185 2.240 . S
Cd184 O192 2.223 . S
Cd184 O194 2.297 . S
Cd184 O195 2.439 . S
O185 Cd184 2.240 . S
O185 C190 1.279 . S
O186 Cd183 2.297 . S
O186 C188 1.247 . S
O187 Cd183 2.439 . S
O187 C188 1.208 . S
C188 O186 1.247 . S
C188 O187 1.208 . S
C189 O194 1.247 . S
C189 O195 1.208 . S
C190 O182 1.315 . S
C190 O185 1.279 . S
C191 O192 1.315 . S
C191 O193 1.279 . S
O192 Cd184 2.223 . S
O192 C191 1.315 . S
O193 Cd183 2.240 . S
O193 C191 1.279 . S
O194 Cd184 2.297 . S
O194 C189 1.247 . S
O195 Cd184 2.439 . S
O195 C189 1.208 . S
O196 Cd197 2.223 . S
O196 C204 1.315 . S
Cd197 O196 2.223 . S
Cd197 O200 2.297 . S
Cd197 O201 2.439 . S
Cd197 O207 2.240 . S
Cd198 O199 2.240 . S
Cd198 O206 2.223 . S
Cd198 O208 2.297 . S
Cd198 O209 2.439 . S
O199 Cd198 2.240 . S
O199 C204 1.279 . S
O200 Cd197 2.297 . S
O200 C202 1.247 . S
O201 Cd197 2.439 . S
O201 C202 1.208 . S
C202 O200 1.247 . S
C202 O201 1.208 . S
C203 O208 1.247 . S
C203 O209 1.208 . S
C204 O196 1.315 . S
C204 O199 1.279 . S
C205 O206 1.315 . S
C205 O207 1.279 . S
O206 Cd198 2.223 . S
O206 C205 1.315 . S
O207 Cd197 2.240 . S
O207 C205 1.279 . S
O208 Cd198 2.297 . S
O208 C203 1.247 . S
O209 Cd198 2.439 . S
O209 C203 1.208 . S
O210 Cd211 2.223 . S
O210 C218 1.315 . S
Cd211 O210 2.223 . S
Cd211 O214 2.297 . S
Cd211 O215 2.439 . S
Cd211 O221 2.240 . S
Cd212 O213 2.240 . S
Cd212 O220 2.223 . S
Cd212 O222 2.297 . S
Cd212 O223 2.439 . S
O213 Cd212 2.240 . S
O213 C218 1.279 . S
O214 Cd211 2.297 . S
O214 C216 1.247 . S
O215 Cd211 2.439 . S
O215 C216 1.208 . S
C216 O214 1.247 . S
C216 O215 1.208 . S
C217 O222 1.247 . S
C217 O223 1.208 . S
C218 O210 1.315 . S
C218 O213 1.279 . S
C219 O220 1.315 . S
C219 O221 1.279 . S
O220 Cd212 2.223 . S
O220 C219 1.315 . S
O221 Cd211 2.240 . S
O221 C219 1.279 . S
O222 Cd212 2.297 . S
O222 C217 1.247 . S
O223 Cd212 2.439 . S
O223 C217 1.208 . S
C224 C225 1.387 . S
C224 H228 0.950 . S
C224 C233 1.390 . S
C225 C224 1.387 . S
C225 C227 1.387 1_554 S
H226 C233 0.950 . S
C227 C225 1.387 1_556 S
C227 C229 1.390 . S
C227 H231 0.950 . S
H228 C224 0.950 . S
C229 C227 1.390 . S
C229 C230 1.387 . S
C229 H232 0.950 . S
C230 C229 1.387 . S
C230 C233 1.387 1_556 S
H231 C227 0.950 . S
H232 C229 0.950 . S
C233 C224 1.390 . S
C233 H226 0.950 . S
C233 C230 1.387 1_554 S
C234 C235 1.387 . S
C234 H238 0.950 . S
C234 C243 1.390 . S
C235 C234 1.387 . S
C235 C237 1.387 1_556 S
H236 C243 0.950 . S
C237 C235 1.387 1_554 S
C237 C239 1.390 . S
C237 H241 0.950 . S
H238 C234 0.950 . S
C239 C237 1.390 . S
C239 C240 1.387 . S
C239 H242 0.950 . S
C240 C239 1.387 . S
C240 C243 1.387 1_554 S
H241 C237 0.950 . S
H242 C239 0.950 . S
C243 C234 1.390 . S
C243 H236 0.950 . S
C243 C240 1.387 1_556 S
C244 C245 1.387 1_554 S
C244 H248 0.950 . S
C244 C253 1.390 . S
C245 C244 1.387 1_556 S
C245 C247 1.387 . S
H246 C253 0.950 . S
C247 C245 1.387 . S
C247 C249 1.390 . S
C247 H251 0.950 . S
H248 C244 0.950 . S
C249 C247 1.390 . S
C249 C250 1.387 1_556 S
C249 H252 0.950 . S
C250 C249 1.387 1_554 S
C250 C253 1.387 . S
H251 C247 0.950 . S
H252 C249 0.950 . S
C253 C244 1.390 . S
C253 H246 0.950 . S
C253 C250 1.387 . S
C254 C255 1.387 . S
C254 H258 0.950 . S
C254 C263 1.390 . S
C255 C254 1.387 . S
C255 C257 1.387 1_556 S
H256 C263 0.950 . S
C257 C255 1.387 1_554 S
C257 C259 1.390 . S
C257 H261 0.950 . S
H258 C254 0.950 . S
C259 C257 1.390 . S
C259 C260 1.387 . S
C259 H262 0.950 . S
C260 C259 1.387 . S
C260 C263 1.387 1_554 S
H261 C257 0.950 . S
H262 C259 0.950 . S
C263 C254 1.390 . S
C263 H256 0.950 . S
C263 C260 1.387 1_556 S
C264 C265 1.387 . S
C264 H268 0.950 . S
C264 C273 1.390 . S
C265 C264 1.387 . S
C265 C267 1.387 . S
H266 C273 0.950 . S
C267 C265 1.387 . S
C267 C269 1.390 . S
C267 H271 0.950 . S
H268 C264 0.950 . S
C269 C267 1.390 . S
C269 C270 1.387 . S
C269 H272 0.950 . S
C270 C269 1.387 . S
C270 C273 1.387 . S
H271 C267 0.950 . S
H272 C269 0.950 . S
C273 C264 1.390 . S
C273 H266 0.950 . S
C273 C270 1.387 . S
C274 C275 1.387 . S
C274 H278 0.950 . S
C274 C283 1.390 . S
C275 C274 1.387 . S
C275 C277 1.387 . S
H276 C283 0.950 . S
C277 C275 1.387 . S
C277 C279 1.390 . S
C277 H281 0.950 . S
H278 C274 0.950 . S
C279 C277 1.390 . S
C279 C280 1.387 . S
C279 H282 0.950 . S
C280 C279 1.387 . S
C280 C283 1.387 . S
H281 C277 0.950 . S
H282 C279 0.950 . S
C283 C274 1.390 . S
C283 H276 0.950 . S
C283 C280 1.387 . S
C284 C285 1.387 . S
C284 H288 0.950 . S
C284 C293 1.390 . S
C285 C284 1.387 . S
C285 C287 1.387 . S
H286 C293 0.950 . S
C287 C285 1.387 . S
C287 C289 1.390 . S
C287 H291 0.950 . S
H288 C284 0.950 . S
C289 C287 1.390 . S
C289 C290 1.387 . S
C289 H292 0.950 . S
C290 C289 1.387 . S
C290 C293 1.387 . S
H291 C287 0.950 . S
H292 C289 0.950 . S
C293 C284 1.390 . S
C293 H286 0.950 . S
C293 C290 1.387 . S
C294 C295 1.387 . S
C294 H298 0.950 . S
C294 C303 1.390 . S
C295 C294 1.387 . S
C295 C297 1.387 . S
H296 C303 0.950 . S
C297 C295 1.387 . S
C297 C299 1.390 . S
C297 H301 0.950 . S
H298 C294 0.950 . S
C299 C297 1.390 . S
C299 C300 1.387 . S
C299 H302 0.950 . S
C300 C299 1.387 . S
C300 C303 1.387 . S
H301 C297 0.950 . S
H302 C299 0.950 . S
C303 C294 1.390 . S
C303 H296 0.950 . S
C303 C300 1.387 . S
C304 C305 1.387 1_554 S
C304 H308 0.950 . S
C304 C313 1.390 . S
C305 C304 1.387 1_556 S
C305 C307 1.387 . S
H306 C313 0.950 . S
C307 C305 1.387 . S
C307 C309 1.390 . S
C307 H311 0.950 . S
H308 C304 0.950 . S
C309 C307 1.390 . S
C309 C310 1.387 1_556 S
C309 H312 0.950 . S
C310 C309 1.387 1_554 S
C310 C313 1.387 . S
H311 C307 0.950 . S
H312 C309 0.950 . S
C313 C304 1.390 . S
C313 H306 0.950 . S
C313 C310 1.387 . S
C314 C315 1.387 . S
C314 H318 0.950 . S
C314 C323 1.390 . S
C315 C314 1.387 . S
C315 C317 1.387 1_556 S
H316 C323 0.950 . S
C317 C315 1.387 1_554 S
C317 C319 1.390 . S
C317 H321 0.950 . S
H318 C314 0.950 . S
C319 C317 1.390 . S
C319 C320 1.387 . S
C319 H322 0.950 . S
C320 C319 1.387 . S
C320 C323 1.387 1_554 S
H321 C317 0.950 . S
H322 C319 0.950 . S
C323 C314 1.390 . S
C323 H316 0.950 . S
C323 C320 1.387 1_556 S
C324 C325 1.387 1_554 S
C324 H328 0.950 . S
C324 C333 1.390 . S
C325 C324 1.387 1_556 S
C325 C327 1.387 . S
H326 C333 0.950 . S
C327 C325 1.387 . S
C327 C329 1.390 . S
C327 H331 0.950 . S
H328 C324 0.950 . S
C329 C327 1.390 . S
C329 C330 1.387 1_556 S
C329 H332 0.950 . S
C330 C329 1.387 1_554 S
C330 C333 1.387 . S
H331 C327 0.950 . S
H332 C329 0.950 . S
C333 C324 1.390 . S
C333 H326 0.950 . S
C333 C330 1.387 . S
C334 C335 1.387 . S
C334 H338 0.950 . S
C334 C343 1.390 . S
C335 C334 1.387 . S
C335 C337 1.387 1_554 S
H336 C343 0.950 . S
C337 C335 1.387 1_556 S
C337 C339 1.390 . S
C337 H341 0.950 . S
H338 C334 0.950 . S
C339 C337 1.390 . S
C339 C340 1.387 . S
C339 H342 0.950 . S
C340 C339 1.387 . S
C340 C343 1.387 1_556 S
H341 C337 0.950 . S
H342 C339 0.950 . S
C343 C334 1.390 . S
C343 H336 0.950 . S
C343 C340 1.387 1_554 S
C344 C345 1.387 . S
C344 H348 0.950 . S
C344 C353 1.390 . S
C345 C344 1.387 . S
C345 C347 1.387 . S
H346 C353 0.950 . S
C347 C345 1.387 . S
C347 C349 1.390 . S
C347 H351 0.950 . S
H348 C344 0.950 . S
C349 C347 1.390 . S
C349 C350 1.387 . S
C349 H352 0.950 . S
C350 C349 1.387 . S
C350 C353 1.387 . S
H351 C347 0.950 . S
H352 C349 0.950 . S
C353 C344 1.390 . S
C353 H346 0.950 . S
C353 C350 1.387 . S
C354 C355 1.387 . S
C354 H358 0.950 . S
C354 C363 1.390 . S
C355 C354 1.387 . S
C355 C357 1.387 . S
H356 C363 0.950 . S
C357 C355 1.387 . S
C357 C359 1.390 . S
C357 H361 0.950 . S
H358 C354 0.950 . S
C359 C357 1.390 . S
C359 C360 1.387 . S
C359 H362 0.950 . S
C360 C359 1.387 . S
C360 C363 1.387 . S
H361 C357 0.950 . S
H362 C359 0.950 . S
C363 C354 1.390 . S
C363 H356 0.950 . S
C363 C360 1.387 . S
C364 C365 1.387 . S
C364 H368 0.950 . S
C364 C373 1.390 . S
C365 C364 1.387 . S
C365 C367 1.387 . S
H366 C373 0.950 . S
C367 C365 1.387 . S
C367 C369 1.390 . S
C367 H371 0.950 . S
H368 C364 0.950 . S
C369 C367 1.390 . S
C369 C370 1.387 . S
C369 H372 0.950 . S
C370 C369 1.387 . S
C370 C373 1.387 . S
H371 C367 0.950 . S
H372 C369 0.950 . S
C373 C364 1.390 . S
C373 H366 0.950 . S
C373 C370 1.387 . S
C374 C375 1.387 . S
C374 H378 0.950 . S
C374 C383 1.390 . S
C375 C374 1.387 . S
C375 C377 1.387 . S
H376 C383 0.950 . S
C377 C375 1.387 . S
C377 C379 1.390 . S
C377 H381 0.950 . S
H378 C374 0.950 . S
C379 C377 1.390 . S
C379 C380 1.387 . S
C379 H382 0.950 . S
C380 C379 1.387 . S
C380 C383 1.387 . S
H381 C377 0.950 . S
H382 C379 0.950 . S
C383 C374 1.390 . S
C383 H376 0.950 . S
C383 C380 1.387 . S
C384 C385 1.387 1_554 S
C384 H388 0.950 . S
C384 C393 1.390 1_565 S
C385 C384 1.387 1_556 S
C385 C387 1.387 . S
H386 C393 0.950 . S
C387 C385 1.387 . S
C387 C389 1.390 1_565 S
C387 H391 0.950 . S
H388 C384 0.950 . S
C389 C387 1.390 1_545 S
C389 C390 1.387 1_556 S
C389 H392 0.950 . S
C390 C389 1.387 1_554 S
C390 C393 1.387 . S
H391 C387 0.950 . S
H392 C389 0.950 . S
C393 C384 1.390 1_545 S
C393 H386 0.950 . S
C393 C390 1.387 . S
C394 C395 1.384 1_556 S
C394 H398 0.950 . S
C394 C403 1.393 . S
C395 C394 1.384 1_554 S
C395 C397 1.387 . S
H396 C403 0.950 . S
C397 C395 1.387 . S
C397 C399 1.393 . S
C397 H401 0.950 . S
H398 C394 0.950 . S
C399 C397 1.393 . S
C399 C400 1.384 1_554 S
C399 H402 0.950 . S
C400 C399 1.384 1_556 S
C400 C403 1.387 . S
H401 C397 0.950 . S
H402 C399 0.950 . S
C403 C394 1.393 . S
C403 H396 0.950 . S
C403 C400 1.387 . S
C404 C405 1.387 . S
C404 H408 0.950 . S
C404 C413 1.387 1_556 S
C405 C404 1.387 . S
C405 C407 1.391 1_655 S
H406 C413 0.950 . S
C407 C405 1.391 1_455 S
C407 C409 1.387 1_556 S
C407 H411 0.950 . S
H408 C404 0.950 . S
C409 C407 1.387 1_554 S
C409 C410 1.387 . S
C409 H412 0.950 . S
C410 C409 1.387 . S
C410 C413 1.391 1_455 S
H411 C407 0.950 . S
H412 C409 0.950 . S
C413 C404 1.387 1_554 S
C413 H406 0.950 . S
C413 C410 1.391 1_655 S
C414 C415 1.387 1_565 S
C414 H418 0.950 . S
C414 C423 1.390 1_454 S
C415 C414 1.387 1_545 S
C415 C417 1.387 . S
H416 C423 0.950 . S
C417 C415 1.387 . S
C417 C419 1.390 1_454 S
C417 H421 0.950 . S
H418 C414 0.950 . S
C419 C417 1.390 1_656 S
C419 C420 1.387 1_545 S
C419 H422 0.950 . S
C420 C419 1.387 1_565 S
C420 C423 1.387 . S
H421 C417 0.950 . S
H422 C419 0.950 . S
C423 C414 1.390 1_656 S
C423 H416 0.950 . S
C423 C420 1.387 . S
C424 C425 1.387 . S
C424 H428 0.950 . S
C424 C433 1.390 . S
C425 C424 1.387 . S
C425 C427 1.387 . S
H426 C433 0.950 . S
C427 C425 1.387 . S
C427 C429 1.390 . S
C427 H431 0.950 . S
H428 C424 0.950 . S
C429 C427 1.390 . S
C429 C430 1.387 . S
C429 H432 0.950 . S
C430 C429 1.387 . S
C430 C433 1.387 . S
H431 C427 0.950 . S
H432 C429 0.950 . S
C433 C424 1.390 . S
C433 H426 0.950 . S
C433 C430 1.387 . S
C434 C435 1.387 . S
C434 H438 0.950 . S
C434 C443 1.390 1_455 S
C435 C434 1.387 . S
C435 C437 1.387 . S
H436 C443 0.950 . S
C437 C435 1.387 . S
C437 C439 1.390 1_455 S
C437 H441 0.950 . S
H438 C434 0.950 . S
C439 C437 1.390 1_655 S
C439 C440 1.387 . S
C439 H442 0.950 . S
C440 C439 1.387 . S
C440 C443 1.387 . S
H441 C437 0.950 . S
H442 C439 0.950 . S
C443 C434 1.390 1_655 S
C443 H436 0.950 . S
C443 C440 1.387 . S
C444 C445 1.387 . S
C444 H448 0.950 . S
C444 C453 1.390 1_565 S
C445 C444 1.387 . S
C445 C447 1.387 1_655 S
H446 C453 0.950 . S
C447 C445 1.387 1_455 S
C447 C449 1.390 1_565 S
C447 H451 0.950 . S
H448 C444 0.950 . S
C449 C447 1.390 1_545 S
C449 C450 1.387 . S
C449 H452 0.950 . S
C450 C449 1.387 . S
C450 C453 1.387 1_455 S
H451 C447 0.950 . S
H452 C449 0.950 . S
C453 C444 1.390 1_545 S
C453 H446 0.950 . S
C453 C450 1.387 1_655 S
C454 C455 1.387 1_545 S
C454 H458 0.950 . S
C454 C463 1.390 . S
C455 C454 1.387 1_565 S
C455 C457 1.387 . S
H456 C463 0.950 . S
C457 C455 1.387 . S
C457 C459 1.390 . S
C457 H461 0.950 . S
H458 C454 0.950 . S
C459 C457 1.390 . S
C459 C460 1.387 1_565 S
C459 H462 0.950 . S
C460 C459 1.387 1_545 S
C460 C463 1.387 . S
H461 C457 0.950 . S
H462 C459 0.950 . S
C463 C454 1.390 . S
C463 H456 0.950 . S
C463 C460 1.387 . S
C464 C465 1.387 . S
C464 H468 0.950 . S
C464 C473 1.390 . S
C465 C464 1.387 . S
C465 C467 1.387 . S
H466 C473 0.950 . S
C467 C465 1.387 . S
C467 C469 1.390 . S
C467 H471 0.950 . S
H468 C464 0.950 . S
C469 C467 1.390 . S
C469 C470 1.387 . S
C469 H472 0.950 . S
C470 C469 1.387 . S
C470 C473 1.387 . S
H471 C467 0.950 . S
H472 C469 0.950 . S
C473 C464 1.390 . S
C473 H466 0.950 . S
C473 C470 1.387 . S
C474 C475 1.387 . S
C474 H478 0.950 . S
C474 C483 1.390 . S
C475 C474 1.387 . S
C475 C477 1.387 . S
H476 C483 0.950 . S
C477 C475 1.387 . S
C477 C479 1.390 . S
C477 H481 0.950 . S
H478 C474 0.950 . S
C479 C477 1.390 . S
C479 C480 1.387 . S
C479 H482 0.950 . S
C480 C479 1.387 . S
C480 C483 1.387 . S
H481 C477 0.950 . S
H482 C479 0.950 . S
C483 C474 1.390 . S
C483 H476 0.950 . S
C483 C480 1.387 . S
C484 C485 1.394 . S
C484 H488 0.944 1_655 S
C484 C493 1.390 . S
C485 C484 1.394 . S
C485 C487 1.387 . S
H486 C493 0.944 1_455 S
C487 C485 1.387 . S
C487 C489 1.390 . S
C487 H491 0.950 . S
H488 C484 0.944 1_455 S
C489 C487 1.390 . S
C489 C490 1.387 . S
C489 H492 0.950 . S
C490 C489 1.387 . S
C490 C493 1.394 . S
H491 C487 0.950 . S
H492 C489 0.950 . S
C493 C484 1.390 . S
C493 H486 0.944 1_655 S
C493 C490 1.394 . S
C494 C495 1.387 . S
C494 H498 0.950 . S
C494 C503 1.390 . S
C495 C494 1.387 . S
C495 C497 1.394 . S
H496 C503 0.950 . S
C497 C495 1.394 . S
C497 C499 1.390 . S
C497 H501 0.944 1_565 S
H498 C494 0.950 . S
C499 C497 1.390 . S
C499 C500 1.394 . S
C499 H502 0.944 1_565 S
C500 C499 1.394 . S
C500 C503 1.387 . S
H501 C497 0.944 1_545 S
H502 C499 0.944 1_545 S
C503 C494 1.390 . S
C503 H496 0.950 . S
C503 C500 1.387 . S
C504 C505 1.387 . S
C504 H508 0.950 . S
C504 C513 1.390 . S
C505 C504 1.387 . S
C505 C507 1.387 . S
H506 C513 0.950 . S
C507 C505 1.387 . S
C507 C509 1.390 . S
C507 H511 0.950 . S
H508 C504 0.950 . S
C509 C507 1.390 . S
C509 C510 1.387 . S
C509 H512 0.950 . S
C510 C509 1.387 . S
C510 C513 1.387 . S
H511 C507 0.950 . S
H512 C509 0.950 . S
C513 C504 1.390 . S
C513 H506 0.950 . S
C513 C510 1.387 . S
C514 C515 1.387 . S
C514 H518 0.950 . S
C514 C523 1.390 . S
C515 C514 1.387 . S
C515 C517 1.387 . S
H516 C523 0.950 . S
C517 C515 1.387 . S
C517 C519 1.390 . S
C517 H521 0.950 . S
H518 C514 0.950 . S
C519 C517 1.390 . S
C519 C520 1.387 . S
C519 H522 0.950 . S
C520 C519 1.387 . S
C520 C523 1.387 . S
H521 C517 0.950 . S
H522 C519 0.950 . S
C523 C514 1.390 . S
C523 H516 0.950 . S
C523 C520 1.387 . S
C524 C525 1.394 . S
C524 H528 0.944 1_455 S
C524 C533 1.390 . S
C525 C524 1.394 . S
C525 C527 1.387 . S
H526 C533 0.944 1_655 S
C527 C525 1.387 . S
C527 C529 1.390 . S
C527 H531 0.950 . S
H528 C524 0.944 1_655 S
C529 C527 1.390 . S
C529 C530 1.387 . S
C529 H532 0.950 . S
C530 C529 1.387 . S
C530 C533 1.394 . S
H531 C527 0.950 . S
H532 C529 0.950 . S
C533 C524 1.390 . S
C533 H526 0.944 1_455 S
C533 C530 1.394 . S
C534 C535 1.387 . S
C534 H538 0.950 . S
C534 C543 1.390 . S
C535 C534 1.387 . S
C535 C537 1.394 . S
H536 C543 0.950 . S
C537 C535 1.394 . S
C537 C539 1.390 . S
C537 H541 0.944 1_545 S
H538 C534 0.950 . S
C539 C537 1.390 . S
C539 C540 1.394 . S
C539 H542 0.944 1_545 S
C540 C539 1.394 . S
C540 C543 1.387 . S
H541 C537 0.944 1_565 S
H542 C539 0.944 1_565 S
C543 C534 1.390 . S
C543 H536 0.950 . S
C543 C540 1.387 . S
C225 C9 1.222 . S
C230 C134 1.279 . S
C235 C148 1.277 . S
C240 C23 1.221 . S
C245 C162 1.279 . S
C250 C37 1.222 . S
C255 C120 1.277 . S
C260 C51 1.220 . S
C265 C65 1.220 . S
C270 C218 1.277 . S
C275 C176 1.277 . S
C280 C79 1.220 . S
C285 C190 1.279 . S
C290 C93 1.223 . S
C295 C204 1.279 . S
C300 C107 1.222 . S
C305 C121 1.221 . S
C310 C22 1.279 . S
C315 C135 1.221 . S
C320 C36 1.277 . S
C325 C149 1.223 . S
C330 C50 1.278 . S
C335 C8 1.279 . S
C340 C163 1.221 . S
C345 C177 1.219 . S
C350 C106 1.277 . S
C355 C191 1.222 . S
C360 C64 1.279 . S
C365 C78 1.277 . S
C370 C205 1.219 . S
C375 C219 1.220 . S
C380 C92 1.277 . S
C385 C118 1.639 . S
C390 C6 1.639 . S
C395 C20 1.642 . S
C400 C132 1.642 . S
C405 C146 1.639 1_655 S
C410 C34 1.639 1_455 S
C415 C48 1.639 1_545 S
C420 C160 1.639 1_565 S
C425 C174 1.641 . S
C430 C62 1.641 . S
C435 C76 1.639 . S
C440 C188 1.639 . S
C445 C202 1.639 1_655 S
C450 C90 1.639 1_455 S
C455 C216 1.642 1_565 S
C460 C104 1.642 1_545 S
C465 C63 1.554 . S
C470 C7 1.554 . S
C475 C77 1.553 . S
C480 C21 1.553 . S
C485 C35 1.553 . S
C490 C91 1.553 . S
C495 C105 1.554 . S
C500 C49 1.554 . S
C505 C119 1.553 . S
C510 C175 1.553 . S
C515 C189 1.553 . S
C520 C133 1.553 . S
C525 C203 1.554 . S
C530 C147 1.554 . S
C535 C217 1.553 . S
C540 C161 1.553 . S
