# Generated by pormake.
# Topology uof, (4)-cn, num edge types: 1
# Building blocks:
#     Node 0, Type 0, BuildingBlock: QUQFOY_clean_sbu_1, # of connection points: 4
#     Node 1, Type 0, BuildingBlock: QUQFOY_clean_sbu_1, # of connection points: 4
#     Node 2, Type 0, BuildingBlock: QUQFOY_clean_sbu_1, # of connection points: 4
#     Node 3, Type 0, BuildingBlock: QUQFOY_clean_sbu_1, # of connection points: 4
#     Node 4, Type 0, BuildingBlock: QUQFOY_clean_sbu_1, # of connection points: 4
#     Node 5, Type 0, BuildingBlock: QUQFOY_clean_sbu_1, # of connection points: 4
#     Node 6, Type 0, BuildingBlock: QUQFOY_clean_sbu_1, # of connection points: 4
#     Node 7, Type 0, BuildingBlock: QUQFOY_clean_sbu_1, # of connection points: 4
#     Node 8, Type 0, BuildingBlock: QUQFOY_clean_sbu_1, # of connection points: 4
#     Node 9, Type 0, BuildingBlock: QUQFOY_clean_sbu_1, # of connection points: 4
#     Node 10, Type 0, BuildingBlock: QUQFOY_clean_sbu_1, # of connection points: 4
#     Node 11, Type 0, BuildingBlock: QUQFOY_clean_sbu_1, # of connection points: 4
#     Edge 12, Type (0, 0), BuildingBlock: KIFKEQ_clean_linker_1, # of connection points: 2
#     Edge 13, Type (0, 0), BuildingBlock: KIFKEQ_clean_linker_1, # of connection points: 2
#     Edge 14, Type (0, 0), BuildingBlock: KIFKEQ_clean_linker_1, # of connection points: 2
#     Edge 15, Type (0, 0), BuildingBlock: KIFKEQ_clean_linker_1, # of connection points: 2
#     Edge 16, Type (0, 0), BuildingBlock: KIFKEQ_clean_linker_1, # of connection points: 2
#     Edge 17, Type (0, 0), BuildingBlock: KIFKEQ_clean_linker_1, # of connection points: 2
#     Edge 18, Type (0, 0), BuildingBlock: KIFKEQ_clean_linker_1, # of connection points: 2
#     Edge 19, Type (0, 0), BuildingBlock: KIFKEQ_clean_linker_1, # of connection points: 2
#     Edge 20, Type (0, 0), BuildingBlock: KIFKEQ_clean_linker_1, # of connection points: 2
#     Edge 21, Type (0, 0), BuildingBlock: KIFKEQ_clean_linker_1, # of connection points: 2
#     Edge 22, Type (0, 0), BuildingBlock: KIFKEQ_clean_linker_1, # of connection points: 2
#     Edge 23, Type (0, 0), BuildingBlock: KIFKEQ_clean_linker_1, # of connection points: 2
#     Edge 24, Type (0, 0), BuildingBlock: KIFKEQ_clean_linker_1, # of connection points: 2
#     Edge 25, Type (0, 0), BuildingBlock: KIFKEQ_clean_linker_1, # of connection points: 2
#     Edge 26, Type (0, 0), BuildingBlock: KIFKEQ_clean_linker_1, # of connection points: 2
#     Edge 27, Type (0, 0), BuildingBlock: KIFKEQ_clean_linker_1, # of connection points: 2
#     Edge 28, Type (0, 0), BuildingBlock: KIFKEQ_clean_linker_1, # of connection points: 2
#     Edge 29, Type (0, 0), BuildingBlock: KIFKEQ_clean_linker_1, # of connection points: 2
#     Edge 30, Type (0, 0), BuildingBlock: KIFKEQ_clean_linker_1, # of connection points: 2
#     Edge 31, Type (0, 0), BuildingBlock: KIFKEQ_clean_linker_1, # of connection points: 2
#     Edge 32, Type (0, 0), BuildingBlock: KIFKEQ_clean_linker_1, # of connection points: 2
#     Edge 33, Type (0, 0), BuildingBlock: KIFKEQ_clean_linker_1, # of connection points: 2
#     Edge 34, Type (0, 0), BuildingBlock: KIFKEQ_clean_linker_1, # of connection points: 2
#     Edge 35, Type (0, 0), BuildingBlock: KIFKEQ_clean_linker_1, # of connection points: 2
# Relax obj value: 0.157
# Max RMSD: 0.159
# Mean RMSD: 0.159
data_MOF--net-uof--node1-QUQFOY_clean_sbu_1--edge1-KIFKEQ_clean_linker_1
_symmetry_space_group_name_H-M    P1
_symmetry_Int_Tables_number       1
_symmetry_cell_setting            triclinic
loop_
_symmetry_equiv_pos_as_xyz
'x, y, z'
_cell_length_a     32.611756
_cell_length_b     32.590963
_cell_length_c     74.195915
_cell_angle_alpha  90.03351
_cell_angle_beta   89.973821
_cell_angle_gamma 119.96325
loop_
_atom_site_label
_atom_site_type_symbol
_atom_site_fract_x
_atom_site_fract_y
_atom_site_fract_z
_atom_type_partial_charge
O0 O 0.31211 0.35434 0.23137 0.0
Cd1 Cd 0.24683 0.29755 0.2381 0.0
Cd2 Cd 0.22979 0.33934 0.20643 0.0
O3 O 0.29656 0.39614 0.21194 0.0
O4 O 0.26764 0.2703 0.25782 0.0
O5 O 0.21766 0.29597 0.26252 0.0
C6 C 0.2419 0.27785 0.26891 0.0
C7 C 0.16181 0.34199 0.19825 0.0
C8 C 0.32591 0.39112 0.22169 0.0
C9 C 0.21764 0.24252 0.20368 0.0
O10 O 0.22858 0.28087 0.19552 0.0
O11 O 0.21646 0.24066 0.22078 0.0
O12 O 0.19779 0.35745 0.18759 0.0
O13 O 0.16625 0.32926 0.21431 0.0
O14 O 0.95274 0.31123 0.56536 0.0
Cd15 Cd 0.95184 0.24932 0.57179 0.0
Cd16 Cd 0.89365 0.22808 0.53766 0.0
O17 O 0.90627 0.29673 0.54163 0.0
O18 O 0.99892 0.27407 0.59186 0.0
O19 O 0.92527 0.21745 0.59594 0.0
C20 C 0.96661 0.24515 0.60265 0.0
C21 C 0.82254 0.16185 0.52858 0.0
C22 C 0.93379 0.32503 0.55366 0.0
C23 C 0.98145 0.21887 0.53784 0.0
O24 O 0.9498 0.22177 0.52892 0.0
O25 O 0.98538 0.22558 0.55477 0.0
O26 O 0.84627 0.19705 0.51784 0.0
O27 O 0.83675 0.16636 0.54512 0.0
O28 O 0.65674 0.96343 0.89974 0.0
Cd29 Cd 0.71367 0.95557 0.90665 0.0
Cd30 Cd 0.67413 0.89795 0.87278 0.0
O31 O 0.62073 0.91438 0.87699 0.0
O32 O 0.74111 1.00248 0.92676 0.0
O33 O 0.71293 0.92612 0.9309 0.0
C34 C 0.73231 0.96829 0.93756 0.0
C35 C 0.6658 0.82565 0.8632 0.0
C36 C 0.6231 0.94484 0.88837 0.0
C37 C 0.77375 0.98096 0.87295 0.0
O38 O 0.73774 0.95202 0.86394 0.0
O39 O 0.77175 0.98425 0.88994 0.0
O40 O 0.65557 0.8508 0.85271 0.0
O41 O 0.67585 0.83905 0.87981 0.0
O42 O 0.69282 0.65944 0.23003 0.0
Cd43 Cd 0.76011 0.71156 0.23746 0.0
Cd44 Cd 0.77546 0.66808 0.20709 0.0
O45 O 0.70775 0.61319 0.21276 0.0
O46 O 0.74524 0.74264 0.25766 0.0
O47 O 0.7856 0.70568 0.26168 0.0
C48 C 0.76677 0.7289 0.26846 0.0
C49 C 0.84266 0.66335 0.19964 0.0
C50 C 0.67841 0.62119 0.2212 0.0
C51 C 0.79415 0.76638 0.20349 0.0
O52 O 0.77919 0.72698 0.19553 0.0
O53 O 0.79649 0.76868 0.22057 0.0
O54 O 0.80696 0.64779 0.18884 0.0
O55 O 0.8381 0.67705 0.21552 0.0
O56 O 0.04608 0.69454 0.56588 0.0
Cd57 Cd 0.05468 0.75962 0.57281 0.0
Cd58 Cd 0.11234 0.77743 0.53936 0.0
O59 O 0.09578 0.7075 0.54339 0.0
O60 O 0.00833 0.74073 0.59308 0.0
O61 O 0.08488 0.78811 0.59698 0.0
C62 C 0.0429 0.76565 0.6038 0.0
C63 C 0.18492 0.84198 0.53057 0.0
C64 C 0.06485 0.6794 0.55461 0.0
C65 C 0.02982 0.79461 0.53911 0.0
O66 O 0.05864 0.78713 0.53019 0.0
O67 O 0.0264 0.78951 0.55611 0.0
O68 O 0.16075 0.80697 0.51979 0.0
O69 O 0.17039 0.83786 0.54705 0.0
O70 O 0.36335 0.05187 0.90054 0.0
Cd71 Cd 0.30186 0.05158 0.90723 0.0
Cd72 Cd 0.33791 0.11084 0.87272 0.0
O73 O 0.39354 0.09751 0.87645 0.0
O74 O 0.27997 0.00436 0.92726 0.0
O75 O 0.29593 0.07773 0.93139 0.0
C76 C 0.28252 0.03636 0.93806 0.0
C77 C 0.34415 0.18212 0.8629 0.0
C78 C 0.39535 0.07067 0.88854 0.0
C79 C 0.24065 0.02279 0.87354 0.0
O80 O 0.27446 0.05512 0.86454 0.0
O81 O 0.24449 0.01788 0.89032 0.0
O82 O 0.35419 0.15684 0.85237 0.0
O83 O 0.33509 0.16931 0.87959 0.0
O84 O 0.66114 0.6902 0.44128 0.0
Cd85 Cd 0.71495 0.75561 0.43317 0.0
Cd86 Cd 0.67431 0.77716 0.46446 0.0
O87 O 0.62004 0.70764 0.46045 0.0
O88 O 0.74298 0.73733 0.4129 0.0
O89 O 0.7105 0.78185 0.40888 0.0
C90 C 0.73142 0.76066 0.4021 0.0
C91 C 0.66661 0.84256 0.47246 0.0
C92 C 0.62531 0.67726 0.45142 0.0
C93 C 0.77351 0.79386 0.46657 0.0
O94 O 0.73628 0.78567 0.47498 0.0
O95 O 0.77317 0.789 0.44958 0.0
O96 O 0.6544 0.80755 0.48338 0.0
O97 O 0.67844 0.83812 0.45624 0.0
O98 O 0.97151 0.65794 0.77671 0.0
Cd99 Cd 0.95961 0.71128 0.76812 0.0
Cd100 Cd 0.89563 0.67027 0.79804 0.0
O101 O 0.90746 0.61399 0.7931 0.0
O102 O 0.00653 0.73984 0.74808 0.0
O103 O 0.92961 0.70637 0.74367 0.0
C104 C 0.97191 0.72786 0.7371 0.0
C105 C 0.82372 0.66567 0.80576 0.0
C106 C 0.94526 0.62031 0.78551 0.0
C107 C 0.97934 0.7678 0.80164 0.0
O108 O 0.9506 0.72966 0.80963 0.0
O109 O 0.98298 0.76912 0.7846 0.0
O110 O 0.84438 0.6506 0.81653 0.0
O111 O 0.8414 0.67884 0.78979 0.0
O112 O 0.3111 0.95062 0.10753 0.0
Cd113 Cd 0.24765 0.94767 0.10174 0.0
Cd114 Cd 0.23095 0.89188 0.13552 0.0
O115 O 0.29791 0.90205 0.13044 0.0
O116 O 0.27045 0.99561 0.08195 0.0
O117 O 0.21603 0.92122 0.07753 0.0
C118 C 0.24234 0.96314 0.07103 0.0
C119 C 0.16339 0.82172 0.14435 0.0
C120 C 0.32559 0.93079 0.11858 0.0
C121 C 0.22105 0.97835 0.13628 0.0
O122 O 0.22903 0.94973 0.1451 0.0
O123 O 0.22189 0.97886 0.11916 0.0
O124 O 0.19922 0.84364 0.155 0.0
O125 O 0.16778 0.83724 0.12801 0.0
O126 O 0.35722 0.31327 0.44045 0.0
Cd127 Cd 0.29936 0.24977 0.4331 0.0
Cd128 Cd 0.33823 0.22716 0.46542 0.0
O129 O 0.39445 0.29565 0.46132 0.0
O130 O 0.2751 0.27297 0.41312 0.0
O131 O 0.2967 0.21967 0.40877 0.0
C132 C 0.28074 0.24562 0.40219 0.0
C133 C 0.34337 0.16058 0.47395 0.0
C134 C 0.39188 0.32586 0.45118 0.0
C135 C 0.24102 0.21702 0.46698 0.0
O136 O 0.27696 0.22172 0.47543 0.0
O137 O 0.24198 0.22241 0.45001 0.0
O138 O 0.35604 0.19596 0.48474 0.0
O139 O 0.33219 0.16501 0.45764 0.0
O140 O 0.04011 0.35277 0.77584 0.0
Cd141 Cd 0.04844 0.29732 0.76714 0.0
Cd142 Cd 0.11393 0.33656 0.79759 0.0
O143 O 0.10219 0.39326 0.79361 0.0
O144 O 1.00128 0.27252 0.7471 0.0
O145 O 0.07714 0.29852 0.74272 0.0
C146 C 0.03505 0.28085 0.73612 0.0
C147 C 0.18597 0.34179 0.80557 0.0
C148 C 0.06593 0.38898 0.78541 0.0
C149 C 0.0282 0.23889 0.80039 0.0
O150 O 0.0592 0.27571 0.8085 0.0
O151 O 0.02229 0.23914 0.7835 0.0
O152 O 0.16415 0.35528 0.81644 0.0
O153 O 0.16936 0.32985 0.78941 0.0
O154 O 0.69561 0.04448 0.1074 0.0
Cd155 Cd 0.76209 0.05498 0.10126 0.0
Cd156 Cd 0.77542 0.11014 0.13409 0.0
O157 O 0.70729 0.09644 0.12884 0.0
O158 O 0.74549 0.00814 0.08127 0.0
O159 O 0.79074 0.08495 0.07709 0.0
C160 C 0.76978 0.04269 0.07046 0.0
C161 C 0.84175 0.18175 0.14245 0.0
C162 C 0.67982 0.06435 0.11786 0.0
C163 C 0.79284 0.02895 0.1356 0.0
O164 O 0.78022 0.05442 0.14423 0.0
O165 O 0.7938 0.02938 0.11849 0.0
O166 O 0.80606 0.15977 0.15317 0.0
O167 O 0.8376 0.16554 0.12623 0.0
H168 H 0.86032 0.22636 0.1752 0.0
H169 H 0.92838 0.22128 0.126 0.0
H170 H 0.93753 0.27595 0.18904 0.0
H171 H 0.00546 0.26941 0.13996 0.0
H172 H 0.14265 0.36942 0.16594 0.0
H173 H 0.06531 0.3418 0.15221 0.0
H174 H 0.99792 0.26328 0.20065 0.0
H175 H 0.07512 0.29221 0.21451 0.0
C176 C 0.89177 0.23649 0.16721 0.0
C177 C 0.88805 0.21956 0.1495 0.0
C178 C 0.93615 0.26459 0.17523 0.0
C179 C 0.97805 0.27627 0.16579 0.0
C180 C 0.97423 0.2617 0.14768 0.0
C181 C 0.92984 0.23387 0.13963 0.0
C182 C 0.11128 0.34715 0.17381 0.0
C183 C 0.11519 0.33285 0.19131 0.0
C184 C 0.06683 0.3309 0.16586 0.0
C185 C 0.02505 0.29962 0.17515 0.0
C186 C 0.02903 0.28764 0.19306 0.0
C187 C 0.0735 0.30417 0.20105 0.0
H188 H 0.78232 0.0751 0.54495 0.0
H189 H 0.7792 0.14358 0.49561 0.0
H190 H 0.73473 0.9981 0.53085 0.0
H191 H 0.72986 0.06645 0.48163 0.0
H192 H 0.7141 0.92922 0.45608 0.0
H193 H 0.74177 0.00621 0.46997 0.0
H194 H 0.66386 0.93783 0.51841 0.0
H195 H 0.63777 0.86071 0.50467 0.0
C196 C 0.77021 0.07373 0.53125 0.0
C197 C 0.78497 0.11561 0.52139 0.0
C198 C 0.74266 0.02936 0.52312 0.0
C199 C 0.72871 0.02565 0.50492 0.0
C200 C 0.74077 0.06768 0.49549 0.0
C201 C 0.76872 0.11203 0.50358 0.0
C202 C 0.70193 0.93057 0.46954 0.0
C203 C 0.67401 0.88869 0.47929 0.0
C204 C 0.71777 0.97494 0.47755 0.0
C205 C 0.70573 0.97865 0.4955 0.0
C206 C 0.67492 0.93661 0.50476 0.0
C207 C 0.65949 0.89225 0.49679 0.0
H208 H 0.70865 0.78124 0.87926 0.0
H209 H 0.64154 0.78525 0.82968 0.0
H210 H 0.7367 0.73303 0.86469 0.0
H211 H 0.66806 0.7354 0.81519 0.0
H212 H 0.78868 0.71764 0.78993 0.0
H213 H 0.74039 0.74635 0.80398 0.0
H214 H 0.72442 0.6623 0.8513 0.0
H215 H 0.77435 0.63506 0.83742 0.0
C216 C 0.69856 0.77057 0.8654 0.0
C217 C 0.67315 0.78752 0.85563 0.0
C218 C 0.71462 0.74268 0.85698 0.0
C219 C 0.70534 0.7306 0.83859 0.0
C220 C 0.67697 0.74481 0.82922 0.0
C221 C 0.66128 0.77306 0.8376 0.0
C222 C 0.77398 0.7044 0.80316 0.0
C223 C 0.78579 0.67433 0.81258 0.0
C224 C 0.74604 0.72083 0.81127 0.0
C225 C 0.72877 0.70729 0.82897 0.0
C226 C 0.73791 0.67451 0.83786 0.0
C227 C 0.76621 0.65844 0.82981 0.0
H228 H 0.92902 0.71327 0.21611 0.0
H229 H 0.86225 0.63466 0.16768 0.0
H230 H 0.00642 0.74192 0.20245 0.0
H231 H 0.93982 0.66206 0.15417 0.0
H232 H 0.07681 0.78219 0.12786 0.0
H233 H 0.9996 0.73441 0.1418 0.0
H234 H 0.06711 0.72918 0.19117 0.0
H235 H 0.14444 0.77839 0.17734 0.0
C236 C 0.93085 0.70091 0.20274 0.0
C237 C 0.88931 0.67194 0.19296 0.0
C238 C 0.97544 0.7173 0.19487 0.0
C239 C 0.97969 0.70491 0.17704 0.0
C240 C 0.93808 0.67328 0.16775 0.0
C241 C 0.8935 0.65715 0.17558 0.0
C242 C 0.07522 0.77 0.14156 0.0
C243 C 0.11693 0.78452 0.1515 0.0
C244 C 0.03076 0.74236 0.14959 0.0
C245 C 0.02679 0.72821 0.16776 0.0
C246 C 0.06861 0.7402 0.1773 0.0
C247 C 0.11306 0.7681 0.1693 0.0
H248 H 0.37149 0.14253 0.50633 0.0
H249 H 0.29498 0.07362 0.45781 0.0
H250 H 0.34496 0.06553 0.52021 0.0
H251 H 0.26684 0.99675 0.47185 0.0
H252 H 0.22617 0.92881 0.54692 0.0
H253 H 0.27418 0.00557 0.53274 0.0
H254 H 0.27838 0.93642 0.48361 0.0
H255 H 0.2286 0.85952 0.49766 0.0
C256 C 0.34959 0.11091 0.4985 0.0
C257 C 0.33519 0.11433 0.48097 0.0
C258 C 0.33391 0.06663 0.50655 0.0
C259 C 0.30298 0.02451 0.49735 0.0
C260 C 0.29095 0.02807 0.47939 0.0
C261 C 0.30704 0.07236 0.47129 0.0
C262 C 0.23826 0.92994 0.53323 0.0
C263 C 0.22313 0.88791 0.52341 0.0
C264 C 0.26603 0.97418 0.52504 0.0
C265 C 0.27987 0.97762 0.50685 0.0
C266 C 0.26755 0.93542 0.49747 0.0
C267 C 0.23936 0.89119 0.50561 0.0
H268 H 0.36848 0.22277 0.82944 0.0
H269 H 0.30036 0.22561 0.87894 0.0
H270 H 0.342 0.27268 0.81503 0.0
H271 H 0.27222 0.27379 0.86443 0.0
H272 H 0.23439 0.3717 0.83743 0.0
H273 H 0.28429 0.34448 0.8513 0.0
H274 H 0.27023 0.26214 0.80362 0.0
H275 H 0.22207 0.29094 0.78957 0.0
C276 C 0.34846 0.23467 0.83735 0.0
C277 C 0.33636 0.21994 0.85534 0.0
C278 C 0.3328 0.26296 0.82902 0.0
C279 C 0.30417 0.27687 0.83839 0.0
C280 C 0.29453 0.2644 0.85673 0.0
C281 C 0.31062 0.23653 0.86511 0.0
C282 C 0.24297 0.34873 0.82974 0.0
C283 C 0.22398 0.33333 0.8124 0.0
C284 C 0.27124 0.33266 0.83778 0.0
C285 C 0.28086 0.30032 0.82879 0.0
C286 C 0.2642 0.28731 0.811 0.0
C287 C 0.23634 0.3038 0.80289 0.0
H288 H 0.60701 0.63802 0.23 0.0
H289 H 0.63262 0.52801 0.21027 0.0
H290 H 0.52204 0.58335 0.22894 0.0
H291 H 0.54703 0.47301 0.20937 0.0
H292 H 0.39786 0.37996 0.23459 0.0
H293 H 0.48247 0.43516 0.23315 0.0
H294 H 0.45632 0.53695 0.20601 0.0
H295 H 0.37082 0.4812 0.20727 0.0
C296 C 0.59455 0.60212 0.22544 0.0
C297 C 0.62674 0.58729 0.22034 0.0
C298 C 0.54577 0.57095 0.22469 0.0
C299 C 0.52787 0.52397 0.21906 0.0
C300 C 0.5599 0.50903 0.21386 0.0
C301 C 0.60885 0.54049 0.21435 0.0
C302 C 0.40988 0.41411 0.22832 0.0
C303 C 0.37736 0.4262 0.22111 0.0
C304 C 0.45852 0.44556 0.22736 0.0
C305 C 0.47605 0.49022 0.21938 0.0
C306 C 0.44373 0.50272 0.21229 0.0
C307 C 0.39484 0.47084 0.213 0.0
H308 H 0.01242 0.61472 0.58025 0.0
H309 H 0.07663 0.62653 0.52812 0.0
H310 H 0.9777 0.5294 0.57927 0.0
H311 H 0.04192 0.54011 0.5273 0.0
H312 H 0.92896 0.3786 0.52583 0.0
H313 H 0.96166 0.46479 0.52548 0.0
H314 H 1.00511 0.47238 0.58093 0.0
H315 H 0.97234 0.38724 0.58137 0.0
C316 C 0.01951 0.59917 0.5686 0.0
C317 C 0.04757 0.62769 0.55428 0.0
C318 C 0.99957 0.55009 0.56807 0.0
C319 C 0.00695 0.52787 0.55321 0.0
C320 C 0.03518 0.55618 0.53886 0.0
C321 C 0.05551 0.60568 0.53943 0.0
C322 C 0.94482 0.39869 0.538 0.0
C323 C 0.94784 0.37596 0.55364 0.0
C324 C 0.96408 0.44807 0.53773 0.0
C325 C 0.98616 0.47547 0.55316 0.0
C326 C 0.98803 0.4524 0.56886 0.0
C327 C 0.96924 0.40345 0.56909 0.0
H328 H 0.42153 0.03407 0.91617 0.0
H329 H 0.45253 0.0753 0.86028 0.0
H330 H 0.4752 1.00282 0.91543 0.0
H331 H 0.50727 0.0441 0.85963 0.0
H332 H 0.55701 0.93123 0.86228 0.0
H333 H 0.50423 0.96471 0.86169 0.0
H334 H 0.55979 0.03171 0.91309 0.0
H335 H 0.61145 0.9982 0.91385 0.0
C336 C 0.44027 0.037 0.90374 0.0
C337 C 0.43277 0.05736 0.88829 0.0
C338 C 0.47118 0.01909 0.90334 0.0
C339 C 0.49546 0.02081 0.88746 0.0
C340 C 0.48868 0.04182 0.87202 0.0
C341 C 0.45784 0.06022 0.87246 0.0
C342 C 0.55754 0.95273 0.87351 0.0
C343 C 0.58833 0.96173 0.88815 0.0
C344 C 0.52774 0.97234 0.87307 0.0
C345 C 0.52786 1.00093 0.88734 0.0
C346 C 0.55841 0.0095 0.90197 0.0
C347 C 0.58816 0.99025 0.90236 0.0
H348 H 0.64 0.60445 0.44284 0.0
H349 H 0.53345 0.63341 0.46388 0.0
H350 H 0.58447 0.51975 0.44466 0.0
H351 H 0.47744 0.54797 0.46551 0.0
H352 H 0.38185 0.39924 0.43931 0.0
H353 H 0.4378 0.4836 0.44138 0.0
H354 H 0.53797 0.45431 0.46806 0.0
H355 H 0.48131 0.36895 0.4662 0.0
C356 C 0.60467 0.59276 0.44787 0.0
C357 C 0.59102 0.6258 0.45306 0.0
C358 C 0.57304 0.54414 0.44907 0.0
C359 C 0.52669 0.52723 0.45524 0.0
C360 C 0.51299 0.5601 0.46063 0.0
C361 C 0.54499 0.60894 0.45972 0.0
C362 C 0.41577 0.41052 0.44564 0.0
C363 C 0.42721 0.37716 0.45247 0.0
C364 C 0.44763 0.45902 0.44697 0.0
C365 C 0.49211 0.47558 0.45496 0.0
C366 C 0.50386 0.44245 0.4618 0.0
C367 C 0.4715 0.39366 0.46074 0.0
H368 H 0.89406 0.52389 0.78164 0.0
H369 H 0.03342 0.63921 0.79404 0.0
H370 H 0.92415 0.46879 0.78232 0.0
H371 H 0.06315 0.58438 0.79637 0.0
H372 H 0.11712 0.48499 0.78042 0.0
H373 H 0.0873 0.54034 0.78106 0.0
H374 H 0.94998 0.42653 0.79784 0.0
H375 H 0.97929 0.37131 0.79556 0.0
C376 C 0.93093 0.53713 0.78492 0.0
C377 C 0.96148 0.58565 0.78768 0.0
C378 C 0.94839 0.50558 0.78546 0.0
C379 C 0.99654 0.52169 0.78934 0.0
C380 C 0.02637 0.57032 0.79279 0.0
C381 C 0.00923 0.60188 0.79168 0.0
C382 C 0.08072 0.47224 0.78433 0.0
C383 C 0.05043 0.42409 0.78788 0.0
C384 C 0.06342 0.50393 0.78483 0.0
C385 C 0.01574 0.48833 0.78942 0.0
C386 C 0.98631 0.44013 0.7937 0.0
C387 C 1.00324 0.4084 0.79264 0.0
H388 H 0.38708 0.97116 0.0907 0.0
H389 H 0.3798 0.92484 0.14575 0.0
H390 H 0.47245 0.00437 0.09082 0.0
H391 H 0.46595 0.95826 0.14581 0.0
H392 H 0.62596 0.07577 0.14383 0.0
H393 H 0.5396 0.04046 0.14425 0.0
H394 H 0.53089 0.97717 0.09223 0.0
H395 H 0.61647 0.01227 0.09173 0.0
C396 C 0.40365 0.96755 0.10279 0.0
C397 C 0.37654 0.94521 0.11821 0.0
C398 C 0.45265 0.9866 0.10283 0.0
C399 C 0.47601 0.98422 0.11835 0.0
C400 C 0.44895 0.96111 0.13371 0.0
C401 C 0.39961 0.94147 0.1336 0.0
C402 C 0.60559 0.05474 0.13242 0.0
C403 C 0.62818 0.04701 0.11773 0.0
C404 C 0.55614 0.03408 0.13275 0.0
C405 C 0.52843 0.00583 0.11831 0.0
C406 C 0.5512 0.99894 0.10352 0.0
C407 C 0.60033 0.01908 0.10326 0.0
H408 H 0.23343 0.99895 0.17215 0.0
H409 H 0.1894 0.0355 0.12264 0.0
H410 H 0.22549 0.05974 0.18801 0.0
H411 H 0.17971 0.09536 0.13871 0.0
H412 H 0.23629 0.23852 0.16809 0.0
H413 H 0.23033 0.17122 0.1517 0.0
H414 H 0.17202 0.08355 0.19904 0.0
H415 H 0.17972 0.1515 0.21567 0.0
C416 C 0.2213 0.01946 0.1647 0.0
C417 C 0.21246 0.01272 0.1461 0.0
C418 C 0.21638 0.05412 0.17384 0.0
C419 C 0.20202 0.0825 0.16463 0.0
C420 C 0.19158 0.07462 0.14614 0.0
C421 C 0.19696 0.04021 0.13695 0.0
C422 C 0.22173 0.20477 0.17496 0.0
C423 C 0.20902 0.20043 0.19324 0.0
C424 C 0.21801 0.16605 0.16551 0.0
C425 C 0.20101 0.12205 0.17409 0.0
C426 C 0.18616 0.11721 0.19215 0.0
C427 C 0.19037 0.15607 0.20165 0.0
H428 H 0.97141 0.18005 0.50446 0.0
H429 H 0.06802 0.23638 0.54947 0.0
H430 H 0.0299 0.17014 0.48756 0.0
H431 H 0.12728 0.22848 0.53234 0.0
H432 H 0.21819 0.18596 0.5017 0.0
H433 H 0.15096 0.17721 0.51916 0.0
H434 H 0.10201 0.22107 0.47281 0.0
H435 H 0.16786 0.22783 0.45524 0.0
C436 C 1.00517 0.19028 0.51074 0.0
C437 C 0.01537 0.20941 0.52821 0.0
C438 C 0.03875 0.18479 0.50104 0.0
C439 C 0.08348 0.19898 0.50851 0.0
C440 C 0.09299 0.21658 0.52624 0.0
C441 C 0.05914 0.22144 0.53604 0.0
C442 C 0.19269 0.19317 0.49522 0.0
C443 C 0.19844 0.20789 0.47715 0.0
C444 C 0.15432 0.18838 0.50524 0.0
C445 C 0.12126 0.19877 0.49744 0.0
C446 C 0.12632 0.21204 0.47919 0.0
C447 C 0.16431 0.21625 0.46913 0.0
H448 H 0.04082 0.21728 0.83478 0.0
H449 H 0.94454 0.16389 0.78957 0.0
H450 H 0.98545 0.14937 0.85275 0.0
H451 H 0.88851 0.0975 0.80765 0.0
H452 H 0.80119 0.96882 0.83964 0.0
H453 H 0.86931 0.02623 0.82235 0.0
H454 H 0.91197 0.12445 0.86704 0.0
H455 H 0.84526 0.06613 0.88456 0.0
C456 C 0.00789 0.19096 0.82868 0.0
C457 C 0.9968 0.19605 0.81083 0.0
C458 C 0.9761 0.15217 0.83899 0.0
C459 C 0.93236 0.11808 0.83171 0.0
C460 C 0.92215 0.12252 0.81364 0.0
C461 C 0.95416 0.16088 0.80328 0.0
C462 C 0.82561 1.00245 0.84583 0.0
C463 C 0.8177 0.01332 0.86334 0.0
C464 C 0.86449 0.03543 0.83591 0.0
C465 C 0.89575 0.08027 0.84318 0.0
C466 C 0.889 0.09012 0.86105 0.0
C467 C 0.85055 0.05681 0.87108 0.0
H468 H 0.82801 0.97449 0.12216 0.0
H469 H 0.78285 0.01021 0.17163 0.0
H470 H 0.83958 0.91598 0.13835 0.0
H471 H 0.79285 0.9509 0.1876 0.0
H472 H 0.83581 0.85789 0.21539 0.0
H473 H 0.84656 0.92686 0.19863 0.0
H474 H 0.78741 0.8398 0.15118 0.0
H475 H 0.77821 0.77142 0.1677 0.0
C476 C 0.82081 0.97006 0.13649 0.0
C477 C 0.80404 0.99662 0.14558 0.0
C478 C 0.82729 0.93644 0.14575 0.0
C479 C 0.81684 0.92855 0.16424 0.0
C480 C 0.80189 0.9565 0.17343 0.0
C481 C 0.79575 0.99028 0.16422 0.0
C482 C 0.82574 0.85367 0.2013 0.0
C483 C 0.8056 0.80911 0.19292 0.0
C484 C 0.83174 0.89313 0.19173 0.0
C485 C 0.81736 0.88872 0.17364 0.0
C486 C 0.79937 0.8446 0.16504 0.0
C487 C 0.79374 0.80526 0.17456 0.0
H488 H 0.7956 0.8284 0.50086 0.0
H489 H 0.84891 0.78628 0.45538 0.0
H490 H 0.86344 0.84054 0.51875 0.0
H491 H 0.91525 0.79608 0.47338 0.0
H492 H 0.04284 0.83439 0.50581 0.0
H493 H 0.98631 0.84629 0.48841 0.0
H494 H 0.88728 0.79117 0.53283 0.0
H495 H 0.94475 0.78167 0.55046 0.0
C496 C 0.82195 0.82193 0.49468 0.0
C497 C 0.8168 0.80598 0.4768 0.0
C498 C 0.86069 0.82866 0.50494 0.0
C499 C 0.89462 0.81883 0.49759 0.0
C500 C 0.89031 0.80473 0.47944 0.0
C501 C 0.85202 0.79874 0.46912 0.0
C502 C 0.00921 0.82552 0.51191 0.0
C503 C 0.99789 0.80662 0.52939 0.0
C504 C 0.97673 0.83211 0.50193 0.0
C505 C 0.93194 0.81909 0.5091 0.0
C506 C 0.92161 0.8022 0.52693 0.0
C507 C 0.95443 0.7964 0.53702 0.0
H508 H 0.20775 0.03648 0.8417 0.0
H509 H 0.17452 0.93388 0.88415 0.0
H510 H 0.13835 0.97926 0.82496 0.0
H511 H 0.10649 0.87583 0.86708 0.0
H512 H 0.05947 0.84588 0.79004 0.0
H513 H 0.11794 0.91054 0.80816 0.0
H514 H 0.03009 0.85079 0.8554 0.0
H515 H 0.97232 0.78464 0.83729 0.0
C516 C 0.18555 1.00164 0.84744 0.0
C517 C 0.19673 0.9894 0.86412 0.0
C518 C 0.14589 0.96879 0.83783 0.0
C519 C 0.11709 0.92273 0.84456 0.0
C520 C 0.12744 0.91114 0.86158 0.0
C521 C 0.16667 0.94428 0.87132 0.0
C522 C 0.0523 0.84681 0.80425 0.0
C523 C 0.01156 0.80993 0.81228 0.0
C524 C 0.08574 0.88415 0.81465 0.0
C525 C 0.07889 0.88582 0.83329 0.0
C526 C 0.03691 0.85009 0.84115 0.0
C527 C 1.0037 0.81235 0.83077 0.0
H528 H 0.25669 0.30411 0.38482 0.0
H529 H 0.28108 0.18716 0.37557 0.0
H530 H 0.2433 0.30767 0.35285 0.0
H531 H 0.2659 0.18952 0.34344 0.0
H532 H 0.29735 0.24922 0.28585 0.0
H533 H 0.30275 0.23768 0.31788 0.0
H534 H 0.19165 0.2703 0.32818 0.0
H535 H 0.18752 0.28362 0.29599 0.0
C536 C 0.25862 0.27869 0.37597 0.0
C537 C 0.27023 0.24549 0.38275 0.0
C538 C 0.25051 0.28049 0.35759 0.0
C539 C 0.25342 0.24889 0.34547 0.0
C540 C 0.26404 0.21492 0.35232 0.0
C541 C 0.27252 0.21336 0.37075 0.0
C542 C 0.2738 0.25367 0.29491 0.0
C543 C 0.24216 0.26764 0.28836 0.0
C544 C 0.27667 0.24666 0.31333 0.0
C545 C 0.24772 0.25308 0.32571 0.0
C546 C 0.21508 0.26579 0.31909 0.0
C547 C 0.21247 0.27317 0.30062 0.0
H548 H 0.90838 0.18631 0.62928 0.0
H549 H 0.04845 0.30515 0.62007 0.0
H550 H 0.9255 0.19012 0.66151 0.0
H551 H 0.06495 0.31001 0.65212 0.0
H552 H 0.95149 0.25212 0.71877 0.0
H553 H 0.93533 0.23968 0.68669 0.0
H554 H 0.07968 0.27358 0.67714 0.0
H555 H 0.09627 0.28762 0.70936 0.0
C556 C 0.94279 0.21316 0.63412 0.0
C557 C 0.97695 0.24547 0.62211 0.0
C558 C 0.95257 0.21556 0.6526 0.0
C559 C 0.99663 0.2505 0.65948 0.0
C560 C 0.03096 0.28216 0.64735 0.0
C561 C 0.02131 0.27959 0.62893 0.0
C562 C 0.97981 0.25675 0.70985 0.0
C563 C 0.0253 0.27116 0.71662 0.0
C564 C 0.97039 0.2492 0.69142 0.0
C565 C 0.00613 0.25558 0.67925 0.0
C566 C 0.05145 0.26901 0.68607 0.0
C567 C 0.06096 0.27687 0.70455 0.0
H568 H 0.75542 0.96105 0.05487 0.0
H569 H 0.78689 0.10308 0.04223 0.0
H570 H 0.75171 0.94292 0.02292 0.0
H571 H 0.78042 0.08442 0.01019 0.0
H572 H 0.79752 0.05099 0.95304 0.0
H573 H 0.81234 0.06932 0.98495 0.0
H574 H 0.70363 0.92623 0.9979 0.0
H575 H 0.69112 0.90746 0.96586 0.0
C576 C 0.7615 0.98842 0.0452 0.0
C577 C 0.77141 0.03348 0.05103 0.0
C578 C 0.75892 0.9779 0.02684 0.0
C579 C 0.76521 0.0119 0.01379 0.0
C580 C 0.7761 0.05739 0.01971 0.0
C581 C 0.77962 0.06818 0.03812 0.0
C582 C 0.77718 0.02335 0.96274 0.0
C583 C 0.7431 0.9778 0.95698 0.0
C584 C 0.78536 0.03395 0.98109 0.0
C585 C 0.75892 0.99954 0.99419 0.0
C586 C 0.72535 0.95361 0.98833 0.0
C587 C 0.71789 0.94276 0.96993 0.0
H588 H 0.78176 0.68248 0.29613 0.0
H589 H 0.75314 0.79573 0.28496 0.0
H590 H 0.77522 0.69277 0.32834 0.0
H591 H 0.7491 0.80797 0.3171 0.0
H592 H 0.68889 0.78039 0.37427 0.0
H593 H 0.70029 0.77481 0.34207 0.0
H594 H 0.80884 0.73931 0.35378 0.0
H595 H 0.79539 0.74243 0.38585 0.0
C596 C 0.775 0.7102 0.30059 0.0
C597 C 0.76775 0.73811 0.28803 0.0
C598 C 0.77143 0.71635 0.31909 0.0
C599 C 0.76134 0.75114 0.32547 0.0
C600 C 0.75576 0.78009 0.3128 0.0
C601 C 0.75851 0.77337 0.29433 0.0
C602 C 0.71535 0.77169 0.3699 0.0
C603 C 0.74101 0.76158 0.38257 0.0
C604 C 0.72216 0.7687 0.35142 0.0
C605 C 0.75543 0.75634 0.34517 0.0
C606 C 0.78212 0.74779 0.35796 0.0
C607 C 0.7747 0.74997 0.3764 0.0
H608 H 0.10467 0.78472 0.63171 0.0
H609 H 0.9607 0.74774 0.61987 0.0
H610 H 0.08696 0.77755 0.66386 0.0
H611 H 0.94342 0.74327 0.65191 0.0
H612 H 0.91143 0.68347 0.70899 0.0
H613 H 0.92939 0.69552 0.67689 0.0
H614 H 0.07091 0.80849 0.68926 0.0
H615 H 0.0535 0.79426 0.72125 0.0
C616 C 0.0695 0.77603 0.63602 0.0
C617 C 0.03404 0.76653 0.6233 0.0
C618 C 0.05926 0.7721 0.65449 0.0
C619 C 0.0135 0.75947 0.66065 0.0
C620 C 0.97866 0.75182 0.6478 0.0
C621 C 0.98868 0.75483 0.62938 0.0
C622 C 0.94623 0.71101 0.70478 0.0
C623 C 0.9811 0.73771 0.71761 0.0
C624 C 0.95659 0.71822 0.68635 0.0
C625 C 1.00182 0.75298 0.68031 0.0
C626 C 0.0361 0.78065 0.69327 0.0
C627 C 0.026 0.77278 0.71166 0.0
H628 H 0.1874 0.90351 0.04393 0.0
H629 H 0.29752 0.04748 0.05423 0.0
H630 H 0.19152 0.92138 0.01176 0.0
H631 H 0.30265 0.06488 0.02224 0.0
H632 H 0.25928 0.9539 0.95534 0.0
H633 H 0.24489 0.93636 0.98726 0.0
H634 H 0.26455 0.07595 0.99671 0.0
H635 H 0.28044 0.09405 0.96463 0.0
C636 C 0.21233 0.93896 0.03934 0.0
C637 C 0.24223 0.97396 0.05163 0.0
C638 C 0.21492 0.94918 0.0209 0.0
C639 C 0.24759 0.99458 0.01435 0.0
C640 C 0.2766 0.02977 0.02676 0.0
C641 C 0.27388 0.01963 0.04514 0.0
C642 C 0.26032 0.98086 0.96418 0.0
C643 C 0.27131 0.02554 0.95743 0.0
C644 C 0.25164 0.9706 0.98252 0.0
C645 C 0.25348 0.00466 0.99463 0.0
C646 C 0.26345 0.04906 0.98781 0.0
C647 C 0.27237 0.05942 0.96942 0.0
loop_
_geom_bond_atom_site_label_1
_geom_bond_atom_site_label_2
_geom_bond_distance
_geom_bond_site_symmetry_2
_ccdc_geom_bond_type
O0 Cd1 2.223 . S
O0 C8 1.315 . S
Cd1 O0 2.223 . S
Cd1 O4 2.297 . S
Cd1 O5 2.439 . S
Cd1 O11 2.240 . S
Cd2 O3 2.240 . S
Cd2 O10 2.223 . S
Cd2 O12 2.297 . S
Cd2 O13 2.439 . S
O3 Cd2 2.240 . S
O3 C8 1.279 . S
O4 Cd1 2.297 . S
O4 C6 1.247 . S
O5 Cd1 2.439 . S
O5 C6 1.208 . S
C6 O4 1.247 . S
C6 O5 1.208 . S
C7 O12 1.247 . S
C7 O13 1.208 . S
C8 O0 1.315 . S
C8 O3 1.279 . S
C9 O10 1.315 . S
C9 O11 1.279 . S
O10 Cd2 2.223 . S
O10 C9 1.315 . S
O11 Cd1 2.240 . S
O11 C9 1.279 . S
O12 Cd2 2.297 . S
O12 C7 1.247 . S
O13 Cd2 2.439 . S
O13 C7 1.208 . S
O14 Cd15 2.223 . S
O14 C22 1.315 1_455 S
Cd15 O14 2.223 . S
Cd15 O18 2.297 . S
Cd15 O19 2.439 1_455 S
Cd15 O25 2.240 . S
Cd16 O17 2.240 . S
Cd16 O24 2.223 . S
Cd16 O26 2.297 . S
Cd16 O27 2.439 . S
O17 Cd16 2.240 . S
O17 C22 1.279 . S
O18 Cd15 2.297 . S
O18 C20 1.247 1_455 S
O19 Cd15 2.439 1_655 S
O19 C20 1.208 . S
C20 O18 1.247 1_655 S
C20 O19 1.208 . S
C21 O26 1.247 . S
C21 O27 1.208 . S
C22 O14 1.315 1_655 S
C22 O17 1.279 . S
C23 O24 1.315 1_455 S
C23 O25 1.279 . S
O24 Cd16 2.223 . S
O24 C23 1.315 1_655 S
O25 Cd15 2.240 . S
O25 C23 1.279 . S
O26 Cd16 2.297 . S
O26 C21 1.247 . S
O27 Cd16 2.439 . S
O27 C21 1.208 . S
O28 Cd29 2.223 . S
O28 C36 1.315 1_545 S
Cd29 O28 2.223 . S
Cd29 O32 2.297 . S
Cd29 O33 2.439 1_545 S
Cd29 O39 2.240 . S
Cd30 O31 2.240 . S
Cd30 O38 2.223 . S
Cd30 O40 2.297 . S
Cd30 O41 2.439 . S
O31 Cd30 2.240 . S
O31 C36 1.279 . S
O32 Cd29 2.297 . S
O32 C34 1.247 1_545 S
O33 Cd29 2.439 1_565 S
O33 C34 1.208 . S
C34 O32 1.247 1_565 S
C34 O33 1.208 . S
C35 O40 1.247 . S
C35 O41 1.208 . S
C36 O28 1.315 1_565 S
C36 O31 1.279 . S
C37 O38 1.315 1_545 S
C37 O39 1.279 . S
O38 Cd30 2.223 . S
O38 C37 1.315 1_565 S
O39 Cd29 2.240 . S
O39 C37 1.279 . S
O40 Cd30 2.297 . S
O40 C35 1.247 . S
O41 Cd30 2.439 . S
O41 C35 1.208 . S
O42 Cd43 2.223 . S
O42 C50 1.315 . S
Cd43 O42 2.223 . S
Cd43 O46 2.297 . S
Cd43 O47 2.439 . S
Cd43 O53 2.240 . S
Cd44 O45 2.240 . S
Cd44 O52 2.223 . S
Cd44 O54 2.297 . S
Cd44 O55 2.439 . S
O45 Cd44 2.240 . S
O45 C50 1.279 . S
O46 Cd43 2.297 . S
O46 C48 1.247 . S
O47 Cd43 2.439 . S
O47 C48 1.208 . S
C48 O46 1.247 . S
C48 O47 1.208 . S
C49 O54 1.247 . S
C49 O55 1.208 . S
C50 O42 1.315 . S
C50 O45 1.279 . S
C51 O52 1.315 . S
C51 O53 1.279 . S
O52 Cd44 2.223 . S
O52 C51 1.315 . S
O53 Cd43 2.240 . S
O53 C51 1.279 . S
O54 Cd44 2.297 . S
O54 C49 1.247 . S
O55 Cd44 2.439 . S
O55 C49 1.208 . S
O56 Cd57 2.223 . S
O56 C64 1.315 1_655 S
Cd57 O56 2.223 . S
Cd57 O60 2.297 . S
Cd57 O61 2.439 1_655 S
Cd57 O67 2.240 . S
Cd58 O59 2.240 . S
Cd58 O66 2.223 . S
Cd58 O68 2.297 . S
Cd58 O69 2.439 . S
O59 Cd58 2.240 . S
O59 C64 1.279 . S
O60 Cd57 2.297 . S
O60 C62 1.247 1_655 S
O61 Cd57 2.439 1_455 S
O61 C62 1.208 . S
C62 O60 1.247 1_455 S
C62 O61 1.208 . S
C63 O68 1.247 . S
C63 O69 1.208 . S
C64 O56 1.315 1_455 S
C64 O59 1.279 . S
C65 O66 1.315 1_655 S
C65 O67 1.279 . S
O66 Cd58 2.223 . S
O66 C65 1.315 1_455 S
O67 Cd57 2.240 . S
O67 C65 1.279 . S
O68 Cd58 2.297 . S
O68 C63 1.247 . S
O69 Cd58 2.439 . S
O69 C63 1.208 . S
O70 Cd71 2.223 . S
O70 C78 1.315 1_565 S
Cd71 O70 2.223 . S
Cd71 O74 2.297 . S
Cd71 O75 2.439 1_565 S
Cd71 O81 2.240 . S
Cd72 O73 2.240 . S
Cd72 O80 2.223 . S
Cd72 O82 2.297 . S
Cd72 O83 2.439 . S
O73 Cd72 2.240 . S
O73 C78 1.279 . S
O74 Cd71 2.297 . S
O74 C76 1.247 1_565 S
O75 Cd71 2.439 1_545 S
O75 C76 1.208 . S
C76 O74 1.247 1_545 S
C76 O75 1.208 . S
C77 O82 1.247 . S
C77 O83 1.208 . S
C78 O70 1.315 1_545 S
C78 O73 1.279 . S
C79 O80 1.315 1_565 S
C79 O81 1.279 . S
O80 Cd72 2.223 . S
O80 C79 1.315 1_545 S
O81 Cd71 2.240 . S
O81 C79 1.279 . S
O82 Cd72 2.297 . S
O82 C77 1.247 . S
O83 Cd72 2.439 . S
O83 C77 1.208 . S
O84 Cd85 2.223 . S
O84 C92 1.315 . S
Cd85 O84 2.223 . S
Cd85 O88 2.297 . S
Cd85 O89 2.439 . S
Cd85 O95 2.240 . S
Cd86 O87 2.240 . S
Cd86 O94 2.223 . S
Cd86 O96 2.297 . S
Cd86 O97 2.439 . S
O87 Cd86 2.240 . S
O87 C92 1.279 . S
O88 Cd85 2.297 . S
O88 C90 1.247 . S
O89 Cd85 2.439 . S
O89 C90 1.208 . S
C90 O88 1.247 . S
C90 O89 1.208 . S
C91 O96 1.247 . S
C91 O97 1.208 . S
C92 O84 1.315 . S
C92 O87 1.279 . S
C93 O94 1.315 . S
C93 O95 1.279 . S
O94 Cd86 2.223 . S
O94 C93 1.315 . S
O95 Cd85 2.240 . S
O95 C93 1.279 . S
O96 Cd86 2.297 . S
O96 C91 1.247 . S
O97 Cd86 2.439 . S
O97 C91 1.208 . S
O98 Cd99 2.223 . S
O98 C106 1.315 1_455 S
Cd99 O98 2.223 . S
Cd99 O102 2.297 . S
Cd99 O103 2.439 1_455 S
Cd99 O109 2.240 . S
Cd100 O101 2.240 . S
Cd100 O108 2.223 . S
Cd100 O110 2.297 . S
Cd100 O111 2.439 . S
O101 Cd100 2.240 . S
O101 C106 1.279 . S
O102 Cd99 2.297 . S
O102 C104 1.247 1_455 S
O103 Cd99 2.439 1_655 S
O103 C104 1.208 . S
C104 O102 1.247 1_655 S
C104 O103 1.208 . S
C105 O110 1.247 . S
C105 O111 1.208 . S
C106 O98 1.315 1_655 S
C106 O101 1.279 . S
C107 O108 1.315 1_455 S
C107 O109 1.279 . S
O108 Cd100 2.223 . S
O108 C107 1.315 1_655 S
O109 Cd99 2.240 . S
O109 C107 1.279 . S
O110 Cd100 2.297 . S
O110 C105 1.247 . S
O111 Cd100 2.439 . S
O111 C105 1.208 . S
O112 Cd113 2.223 . S
O112 C120 1.315 1_545 S
Cd113 O112 2.223 . S
Cd113 O116 2.297 . S
Cd113 O117 2.439 1_545 S
Cd113 O123 2.240 . S
Cd114 O115 2.240 . S
Cd114 O122 2.223 . S
Cd114 O124 2.297 . S
Cd114 O125 2.439 . S
O115 Cd114 2.240 . S
O115 C120 1.279 . S
O116 Cd113 2.297 . S
O116 C118 1.247 1_545 S
O117 Cd113 2.439 1_565 S
O117 C118 1.208 . S
C118 O116 1.247 1_565 S
C118 O117 1.208 . S
C119 O124 1.247 . S
C119 O125 1.208 . S
C120 O112 1.315 1_565 S
C120 O115 1.279 . S
C121 O122 1.315 1_545 S
C121 O123 1.279 . S
O122 Cd114 2.223 . S
O122 C121 1.315 1_565 S
O123 Cd113 2.240 . S
O123 C121 1.279 . S
O124 Cd114 2.297 . S
O124 C119 1.247 . S
O125 Cd114 2.439 . S
O125 C119 1.208 . S
O126 Cd127 2.223 . S
O126 C134 1.315 . S
Cd127 O126 2.223 . S
Cd127 O130 2.297 . S
Cd127 O131 2.439 . S
Cd127 O137 2.240 . S
Cd128 O129 2.240 . S
Cd128 O136 2.223 . S
Cd128 O138 2.297 . S
Cd128 O139 2.439 . S
O129 Cd128 2.240 . S
O129 C134 1.279 . S
O130 Cd127 2.297 . S
O130 C132 1.247 . S
O131 Cd127 2.439 . S
O131 C132 1.208 . S
C132 O130 1.247 . S
C132 O131 1.208 . S
C133 O138 1.247 . S
C133 O139 1.208 . S
C134 O126 1.315 . S
C134 O129 1.279 . S
C135 O136 1.315 . S
C135 O137 1.279 . S
O136 Cd128 2.223 . S
O136 C135 1.315 . S
O137 Cd127 2.240 . S
O137 C135 1.279 . S
O138 Cd128 2.297 . S
O138 C133 1.247 . S
O139 Cd128 2.439 . S
O139 C133 1.208 . S
O140 Cd141 2.223 . S
O140 C148 1.315 1_655 S
Cd141 O140 2.223 . S
Cd141 O144 2.297 . S
Cd141 O145 2.439 1_655 S
Cd141 O151 2.240 . S
Cd142 O143 2.240 . S
Cd142 O150 2.223 . S
Cd142 O152 2.297 . S
Cd142 O153 2.439 . S
O143 Cd142 2.240 . S
O143 C148 1.279 . S
O144 Cd141 2.297 . S
O144 C146 1.247 1_655 S
O145 Cd141 2.439 1_455 S
O145 C146 1.208 . S
C146 O144 1.247 1_455 S
C146 O145 1.208 . S
C147 O152 1.247 . S
C147 O153 1.208 . S
C148 O140 1.315 1_455 S
C148 O143 1.279 . S
C149 O150 1.315 1_655 S
C149 O151 1.279 . S
O150 Cd142 2.223 . S
O150 C149 1.315 1_455 S
O151 Cd141 2.240 . S
O151 C149 1.279 . S
O152 Cd142 2.297 . S
O152 C147 1.247 . S
O153 Cd142 2.439 . S
O153 C147 1.208 . S
O154 Cd155 2.223 . S
O154 C162 1.315 1_565 S
Cd155 O154 2.223 . S
Cd155 O158 2.297 . S
Cd155 O159 2.439 1_565 S
Cd155 O165 2.240 . S
Cd156 O157 2.240 . S
Cd156 O164 2.223 . S
Cd156 O166 2.297 . S
Cd156 O167 2.439 . S
O157 Cd156 2.240 . S
O157 C162 1.279 . S
O158 Cd155 2.297 . S
O158 C160 1.247 1_565 S
O159 Cd155 2.439 1_545 S
O159 C160 1.208 . S
C160 O158 1.247 1_545 S
C160 O159 1.208 . S
C161 O166 1.247 . S
C161 O167 1.208 . S
C162 O154 1.315 1_545 S
C162 O157 1.279 . S
C163 O164 1.315 1_565 S
C163 O165 1.279 . S
O164 Cd156 2.223 . S
O164 C163 1.315 1_545 S
O165 Cd155 2.240 . S
O165 C163 1.279 . S
O166 Cd156 2.297 . S
O166 C161 1.247 . S
O167 Cd156 2.439 . S
O167 C161 1.208 . S
H168 C176 0.950 . S
H169 C181 0.950 . S
H170 C178 0.950 . S
H171 C180 0.950 . S
H172 C182 0.950 . S
H173 C184 0.950 . S
H174 C186 0.950 . S
H175 C187 0.950 . S
C176 H168 0.950 . S
C176 C177 1.386 . S
C176 C178 1.391 . S
C177 C176 1.386 . S
C177 C181 1.393 . S
C178 H170 0.950 . S
C178 C176 1.391 . S
C178 C179 1.400 . S
C179 C178 1.400 . S
C179 C180 1.398 . S
C179 C185 1.491 1_655 S
C180 H171 0.950 . S
C180 C179 1.398 . S
C180 C181 1.391 . S
C181 H169 0.950 . S
C181 C177 1.393 . S
C181 C180 1.391 . S
C182 H172 0.950 . S
C182 C183 1.386 . S
C182 C184 1.391 . S
C183 C182 1.386 . S
C183 C187 1.393 . S
C184 H173 0.950 . S
C184 C182 1.391 . S
C184 C185 1.400 . S
C185 C179 1.491 1_455 S
C185 C184 1.400 . S
C185 C186 1.398 . S
C186 H174 0.950 . S
C186 C185 1.398 . S
C186 C187 1.391 . S
C187 H175 0.950 . S
C187 C183 1.393 . S
C187 C186 1.391 . S
H188 C196 0.950 . S
H189 C201 0.950 . S
H190 C198 0.950 . S
H191 C200 0.950 . S
H192 C202 0.950 . S
H193 C204 0.950 . S
H194 C206 0.950 . S
H195 C207 0.950 . S
C196 H188 0.950 . S
C196 C197 1.386 . S
C196 C198 1.391 . S
C197 C196 1.386 . S
C197 C201 1.393 . S
C198 H190 0.950 . S
C198 C196 1.391 . S
C198 C199 1.400 . S
C199 C198 1.400 . S
C199 C200 1.398 . S
C199 C205 1.491 1_545 S
C200 H191 0.950 . S
C200 C199 1.398 . S
C200 C201 1.391 . S
C201 H189 0.950 . S
C201 C197 1.393 . S
C201 C200 1.391 . S
C202 H192 0.950 . S
C202 C203 1.386 . S
C202 C204 1.391 . S
C203 C202 1.386 . S
C203 C207 1.393 . S
C204 H193 0.950 . S
C204 C202 1.391 . S
C204 C205 1.400 . S
C205 C199 1.491 1_565 S
C205 C204 1.400 . S
C205 C206 1.398 . S
C206 H194 0.950 . S
C206 C205 1.398 . S
C206 C207 1.391 . S
C207 H195 0.950 . S
C207 C203 1.393 . S
C207 C206 1.391 . S
H208 C216 0.950 . S
H209 C221 0.950 . S
H210 C218 0.950 . S
H211 C220 0.950 . S
H212 C222 0.950 . S
H213 C224 0.950 . S
H214 C226 0.950 . S
H215 C227 0.950 . S
C216 H208 0.950 . S
C216 C217 1.386 . S
C216 C218 1.391 . S
C217 C216 1.386 . S
C217 C221 1.393 . S
C218 H210 0.950 . S
C218 C216 1.391 . S
C218 C219 1.400 . S
C219 C218 1.400 . S
C219 C220 1.398 . S
C219 C225 1.491 . S
C220 H211 0.950 . S
C220 C219 1.398 . S
C220 C221 1.391 . S
C221 H209 0.950 . S
C221 C217 1.393 . S
C221 C220 1.391 . S
C222 H212 0.950 . S
C222 C223 1.386 . S
C222 C224 1.391 . S
C223 C222 1.386 . S
C223 C227 1.393 . S
C224 H213 0.950 . S
C224 C222 1.391 . S
C224 C225 1.400 . S
C225 C219 1.491 . S
C225 C224 1.400 . S
C225 C226 1.398 . S
C226 H214 0.950 . S
C226 C225 1.398 . S
C226 C227 1.391 . S
C227 H215 0.950 . S
C227 C223 1.393 . S
C227 C226 1.391 . S
H228 C236 0.950 . S
H229 C241 0.950 . S
H230 C238 0.950 . S
H231 C240 0.950 . S
H232 C242 0.950 . S
H233 C244 0.950 . S
H234 C246 0.950 . S
H235 C247 0.950 . S
C236 H228 0.950 . S
C236 C237 1.386 . S
C236 C238 1.391 . S
C237 C236 1.386 . S
C237 C241 1.393 . S
C238 H230 0.950 . S
C238 C236 1.391 . S
C238 C239 1.400 . S
C239 C238 1.400 . S
C239 C240 1.398 . S
C239 C245 1.491 1_655 S
C240 H231 0.950 . S
C240 C239 1.398 . S
C240 C241 1.391 . S
C241 H229 0.950 . S
C241 C237 1.393 . S
C241 C240 1.391 . S
C242 H232 0.950 . S
C242 C243 1.386 . S
C242 C244 1.391 . S
C243 C242 1.386 . S
C243 C247 1.393 . S
C244 H233 0.950 . S
C244 C242 1.391 . S
C244 C245 1.400 . S
C245 C239 1.491 1_455 S
C245 C244 1.400 . S
C245 C246 1.398 . S
C246 H234 0.950 . S
C246 C245 1.398 . S
C246 C247 1.391 . S
C247 H235 0.950 . S
C247 C243 1.393 . S
C247 C246 1.391 . S
H248 C256 0.950 . S
H249 C261 0.950 . S
H250 C258 0.950 . S
H251 C260 0.950 . S
H252 C262 0.950 . S
H253 C264 0.950 . S
H254 C266 0.950 . S
H255 C267 0.950 . S
C256 H248 0.950 . S
C256 C257 1.386 . S
C256 C258 1.391 . S
C257 C256 1.386 . S
C257 C261 1.393 . S
C258 H250 0.950 . S
C258 C256 1.391 . S
C258 C259 1.400 . S
C259 C258 1.400 . S
C259 C260 1.398 . S
C259 C265 1.491 1_545 S
C260 H251 0.950 . S
C260 C259 1.398 . S
C260 C261 1.391 . S
C261 H249 0.950 . S
C261 C257 1.393 . S
C261 C260 1.391 . S
C262 H252 0.950 . S
C262 C263 1.386 . S
C262 C264 1.391 . S
C263 C262 1.386 . S
C263 C267 1.393 . S
C264 H253 0.950 . S
C264 C262 1.391 . S
C264 C265 1.400 . S
C265 C259 1.491 1_565 S
C265 C264 1.400 . S
C265 C266 1.398 . S
C266 H254 0.950 . S
C266 C265 1.398 . S
C266 C267 1.391 . S
C267 H255 0.950 . S
C267 C263 1.393 . S
C267 C266 1.391 . S
H268 C276 0.950 . S
H269 C281 0.950 . S
H270 C278 0.950 . S
H271 C280 0.950 . S
H272 C282 0.950 . S
H273 C284 0.950 . S
H274 C286 0.950 . S
H275 C287 0.950 . S
C276 H268 0.950 . S
C276 C277 1.386 . S
C276 C278 1.391 . S
C277 C276 1.386 . S
C277 C281 1.393 . S
C278 H270 0.950 . S
C278 C276 1.391 . S
C278 C279 1.400 . S
C279 C278 1.400 . S
C279 C280 1.398 . S
C279 C285 1.491 . S
C280 H271 0.950 . S
C280 C279 1.398 . S
C280 C281 1.391 . S
C281 H269 0.950 . S
C281 C277 1.393 . S
C281 C280 1.391 . S
C282 H272 0.950 . S
C282 C283 1.386 . S
C282 C284 1.391 . S
C283 C282 1.386 . S
C283 C287 1.393 . S
C284 H273 0.950 . S
C284 C282 1.391 . S
C284 C285 1.400 . S
C285 C279 1.491 . S
C285 C284 1.400 . S
C285 C286 1.398 . S
C286 H274 0.950 . S
C286 C285 1.398 . S
C286 C287 1.391 . S
C287 H275 0.950 . S
C287 C283 1.393 . S
C287 C286 1.391 . S
H288 C296 0.950 . S
H289 C301 0.950 . S
H290 C298 0.950 . S
H291 C300 0.950 . S
H292 C302 0.950 . S
H293 C304 0.950 . S
H294 C306 0.950 . S
H295 C307 0.950 . S
C296 H288 0.950 . S
C296 C297 1.386 . S
C296 C298 1.391 . S
C297 C296 1.386 . S
C297 C301 1.393 . S
C298 H290 0.950 . S
C298 C296 1.391 . S
C298 C299 1.400 . S
C299 C298 1.400 . S
C299 C300 1.398 . S
C299 C305 1.491 . S
C300 H291 0.950 . S
C300 C299 1.398 . S
C300 C301 1.391 . S
C301 H289 0.950 . S
C301 C297 1.393 . S
C301 C300 1.391 . S
C302 H292 0.950 . S
C302 C303 1.386 . S
C302 C304 1.391 . S
C303 C302 1.386 . S
C303 C307 1.393 . S
C304 H293 0.950 . S
C304 C302 1.391 . S
C304 C305 1.400 . S
C305 C299 1.491 . S
C305 C304 1.400 . S
C305 C306 1.398 . S
C306 H294 0.950 . S
C306 C305 1.398 . S
C306 C307 1.391 . S
C307 H295 0.950 . S
C307 C303 1.393 . S
C307 C306 1.391 . S
H308 C316 0.950 . S
H309 C321 0.950 . S
H310 C318 0.950 . S
H311 C320 0.950 . S
H312 C322 0.950 . S
H313 C324 0.950 . S
H314 C326 0.950 . S
H315 C327 0.950 . S
C316 H308 0.950 . S
C316 C317 1.386 . S
C316 C318 1.391 . S
C317 C316 1.386 . S
C317 C321 1.393 1_455 S
C318 H310 0.950 . S
C318 C316 1.391 . S
C318 C319 1.400 . S
C319 C318 1.400 . S
C319 C320 1.398 1_455 S
C319 C325 1.491 1_455 S
C320 H311 0.950 . S
C320 C319 1.398 1_655 S
C320 C321 1.391 . S
C321 H309 0.950 . S
C321 C317 1.393 1_655 S
C321 C320 1.391 . S
C322 H312 0.950 . S
C322 C323 1.386 . S
C322 C324 1.391 . S
C323 C322 1.386 . S
C323 C327 1.393 1_655 S
C324 H313 0.950 . S
C324 C322 1.391 . S
C324 C325 1.400 . S
C325 C319 1.491 1_655 S
C325 C324 1.400 . S
C325 C326 1.398 1_655 S
C326 H314 0.950 . S
C326 C325 1.398 1_455 S
C326 C327 1.391 . S
C327 H315 0.950 . S
C327 C323 1.393 1_455 S
C327 C326 1.391 . S
H328 C336 0.950 . S
H329 C341 0.950 . S
H330 C338 0.950 . S
H331 C340 0.950 . S
H332 C342 0.950 . S
H333 C344 0.950 . S
H334 C346 0.950 . S
H335 C347 0.950 . S
C336 H328 0.950 . S
C336 C337 1.386 . S
C336 C338 1.391 . S
C337 C336 1.386 . S
C337 C341 1.393 1_545 S
C338 H330 0.950 . S
C338 C336 1.391 . S
C338 C339 1.400 . S
C339 C338 1.400 . S
C339 C340 1.398 1_545 S
C339 C345 1.491 1_545 S
C340 H331 0.950 . S
C340 C339 1.398 1_565 S
C340 C341 1.391 . S
C341 H329 0.950 . S
C341 C337 1.393 1_565 S
C341 C340 1.391 . S
C342 H332 0.950 . S
C342 C343 1.386 . S
C342 C344 1.391 . S
C343 C342 1.386 . S
C343 C347 1.393 1_565 S
C344 H333 0.950 . S
C344 C342 1.391 . S
C344 C345 1.400 . S
C345 C339 1.491 1_565 S
C345 C344 1.400 . S
C345 C346 1.398 1_565 S
C346 H334 0.950 . S
C346 C345 1.398 1_545 S
C346 C347 1.391 . S
C347 H335 0.950 . S
C347 C343 1.393 1_545 S
C347 C346 1.391 . S
H348 C356 0.950 . S
H349 C361 0.950 . S
H350 C358 0.950 . S
H351 C360 0.950 . S
H352 C362 0.950 . S
H353 C364 0.950 . S
H354 C366 0.950 . S
H355 C367 0.950 . S
C356 H348 0.950 . S
C356 C357 1.386 . S
C356 C358 1.391 . S
C357 C356 1.386 . S
C357 C361 1.393 . S
C358 H350 0.950 . S
C358 C356 1.391 . S
C358 C359 1.400 . S
C359 C358 1.400 . S
C359 C360 1.398 . S
C359 C365 1.491 . S
C360 H351 0.950 . S
C360 C359 1.398 . S
C360 C361 1.391 . S
C361 H349 0.950 . S
C361 C357 1.393 . S
C361 C360 1.391 . S
C362 H352 0.950 . S
C362 C363 1.386 . S
C362 C364 1.391 . S
C363 C362 1.386 . S
C363 C367 1.393 . S
C364 H353 0.950 . S
C364 C362 1.391 . S
C364 C365 1.400 . S
C365 C359 1.491 . S
C365 C364 1.400 . S
C365 C366 1.398 . S
C366 H354 0.950 . S
C366 C365 1.398 . S
C366 C367 1.391 . S
C367 H355 0.950 . S
C367 C363 1.393 . S
C367 C366 1.391 . S
H368 C376 0.950 . S
H369 C381 0.950 . S
H370 C378 0.950 . S
H371 C380 0.950 . S
H372 C382 0.950 . S
H373 C384 0.950 . S
H374 C386 0.950 . S
H375 C387 0.950 . S
C376 H368 0.950 . S
C376 C377 1.386 . S
C376 C378 1.391 . S
C377 C376 1.386 . S
C377 C381 1.393 1_655 S
C378 H370 0.950 . S
C378 C376 1.391 . S
C378 C379 1.400 . S
C379 C378 1.400 . S
C379 C380 1.398 1_655 S
C379 C385 1.491 1_655 S
C380 H371 0.950 . S
C380 C379 1.398 1_455 S
C380 C381 1.391 . S
C381 H369 0.950 . S
C381 C377 1.393 1_455 S
C381 C380 1.391 . S
C382 H372 0.950 . S
C382 C383 1.386 . S
C382 C384 1.391 . S
C383 C382 1.386 . S
C383 C387 1.393 1_455 S
C384 H373 0.950 . S
C384 C382 1.391 . S
C384 C385 1.400 . S
C385 C379 1.491 1_455 S
C385 C384 1.400 . S
C385 C386 1.398 1_455 S
C386 H374 0.950 . S
C386 C385 1.398 1_655 S
C386 C387 1.391 . S
C387 H375 0.950 . S
C387 C383 1.393 1_655 S
C387 C386 1.391 . S
H388 C396 0.950 . S
H389 C401 0.950 . S
H390 C398 0.949 . S
H391 C400 0.950 . S
H392 C402 0.950 . S
H393 C404 0.949 . S
H394 C406 0.950 . S
H395 C407 0.950 . S
C396 H388 0.950 . S
C396 C397 1.386 . S
C396 C398 1.396 1_565 S
C397 C396 1.386 . S
C397 C401 1.393 . S
C398 H390 0.949 . S
C398 C396 1.396 1_545 S
C398 C399 1.396 1_545 S
C399 C398 1.396 1_565 S
C399 C400 1.398 . S
C399 C405 1.491 1_565 S
C400 H391 0.950 . S
C400 C399 1.398 . S
C400 C401 1.391 . S
C401 H389 0.950 . S
C401 C397 1.393 . S
C401 C400 1.391 . S
C402 H392 0.950 . S
C402 C403 1.386 . S
C402 C404 1.396 1_545 S
C403 C402 1.386 . S
C403 C407 1.393 . S
C404 H393 0.949 . S
C404 C402 1.396 1_565 S
C404 C405 1.396 1_565 S
C405 C399 1.491 1_545 S
C405 C404 1.396 1_545 S
C405 C406 1.398 . S
C406 H394 0.950 . S
C406 C405 1.398 . S
C406 C407 1.391 . S
C407 H395 0.950 . S
C407 C403 1.393 . S
C407 C406 1.391 . S
H408 C416 0.950 . S
H409 C421 0.950 . S
H410 C418 0.950 . S
H411 C420 0.950 . S
H412 C422 0.950 . S
H413 C424 0.950 . S
H414 C426 0.950 . S
H415 C427 0.950 . S
C416 H408 0.950 . S
C416 C417 1.386 . S
C416 C418 1.391 . S
C417 C416 1.386 . S
C417 C421 1.393 . S
C418 H410 0.950 . S
C418 C416 1.391 . S
C418 C419 1.400 . S
C419 C418 1.400 . S
C419 C420 1.398 . S
C419 C425 1.491 . S
C420 H411 0.950 . S
C420 C419 1.398 . S
C420 C421 1.391 . S
C421 H409 0.950 . S
C421 C417 1.393 . S
C421 C420 1.391 . S
C422 H412 0.950 . S
C422 C423 1.386 . S
C422 C424 1.391 . S
C423 C422 1.386 . S
C423 C427 1.393 . S
C424 H413 0.950 . S
C424 C422 1.391 . S
C424 C425 1.400 . S
C425 C419 1.491 . S
C425 C424 1.400 . S
C425 C426 1.398 . S
C426 H414 0.950 . S
C426 C425 1.398 . S
C426 C427 1.391 . S
C427 H415 0.950 . S
C427 C423 1.393 . S
C427 C426 1.391 . S
H428 C436 0.950 . S
H429 C441 0.950 . S
H430 C438 0.950 . S
H431 C440 0.950 . S
H432 C442 0.950 . S
H433 C444 0.950 . S
H434 C446 0.950 . S
H435 C447 0.950 . S
C436 H428 0.950 . S
C436 C437 1.386 . S
C436 C438 1.391 . S
C437 C436 1.386 . S
C437 C441 1.393 . S
C438 H430 0.950 . S
C438 C436 1.391 . S
C438 C439 1.400 . S
C439 C438 1.400 . S
C439 C440 1.398 . S
C439 C445 1.491 . S
C440 H431 0.950 . S
C440 C439 1.398 . S
C440 C441 1.391 . S
C441 H429 0.950 . S
C441 C437 1.393 . S
C441 C440 1.391 . S
C442 H432 0.950 . S
C442 C443 1.386 . S
C442 C444 1.391 . S
C443 C442 1.386 . S
C443 C447 1.393 . S
C444 H433 0.950 . S
C444 C442 1.391 . S
C444 C445 1.400 . S
C445 C439 1.491 . S
C445 C444 1.400 . S
C445 C446 1.398 . S
C446 H434 0.950 . S
C446 C445 1.398 . S
C446 C447 1.391 . S
C447 H435 0.950 . S
C447 C443 1.393 . S
C447 C446 1.391 . S
H448 C456 0.950 . S
H449 C461 0.950 . S
H450 C458 0.950 . S
H451 C460 0.950 . S
H452 C462 0.950 . S
H453 C464 0.950 . S
H454 C466 0.950 . S
H455 C467 0.950 . S
C456 H448 0.950 . S
C456 C457 1.386 . S
C456 C458 1.391 . S
C457 C456 1.386 . S
C457 C461 1.393 . S
C458 H450 0.950 . S
C458 C456 1.391 . S
C458 C459 1.400 . S
C459 C458 1.400 . S
C459 C460 1.398 . S
C459 C465 1.491 . S
C460 H451 0.950 . S
C460 C459 1.398 . S
C460 C461 1.391 . S
C461 H449 0.950 . S
C461 C457 1.393 . S
C461 C460 1.391 . S
C462 H452 0.950 . S
C462 C463 1.386 . S
C462 C464 1.391 . S
C463 C462 1.386 . S
C463 C467 1.393 . S
C464 H453 0.950 . S
C464 C462 1.391 . S
C464 C465 1.400 . S
C465 C459 1.491 . S
C465 C464 1.400 . S
C465 C466 1.398 . S
C466 H454 0.950 . S
C466 C465 1.398 . S
C466 C467 1.391 . S
C467 H455 0.950 . S
C467 C463 1.393 . S
C467 C466 1.391 . S
H468 C476 0.950 . S
H469 C481 0.950 . S
H470 C478 0.950 . S
H471 C480 0.950 . S
H472 C482 0.950 . S
H473 C484 0.950 . S
H474 C486 0.950 . S
H475 C487 0.950 . S
C476 H468 0.950 . S
C476 C477 1.386 . S
C476 C478 1.391 . S
C477 C476 1.386 . S
C477 C481 1.393 . S
C478 H470 0.950 . S
C478 C476 1.391 . S
C478 C479 1.400 . S
C479 C478 1.400 . S
C479 C480 1.398 . S
C479 C485 1.491 . S
C480 H471 0.950 . S
C480 C479 1.398 . S
C480 C481 1.391 . S
C481 H469 0.950 . S
C481 C477 1.393 . S
C481 C480 1.391 . S
C482 H472 0.950 . S
C482 C483 1.386 . S
C482 C484 1.391 . S
C483 C482 1.386 . S
C483 C487 1.393 . S
C484 H473 0.950 . S
C484 C482 1.391 . S
C484 C485 1.400 . S
C485 C479 1.491 . S
C485 C484 1.400 . S
C485 C486 1.398 . S
C486 H474 0.950 . S
C486 C485 1.398 . S
C486 C487 1.391 . S
C487 H475 0.950 . S
C487 C483 1.393 . S
C487 C486 1.391 . S
H488 C496 0.950 . S
H489 C501 0.950 . S
H490 C498 0.950 . S
H491 C500 0.950 . S
H492 C502 0.950 . S
H493 C504 0.950 . S
H494 C506 0.950 . S
H495 C507 0.950 . S
C496 H488 0.950 . S
C496 C497 1.386 . S
C496 C498 1.391 . S
C497 C496 1.386 . S
C497 C501 1.393 . S
C498 H490 0.950 . S
C498 C496 1.391 . S
C498 C499 1.400 . S
C499 C498 1.400 . S
C499 C500 1.398 . S
C499 C505 1.491 . S
C500 H491 0.950 . S
C500 C499 1.398 . S
C500 C501 1.391 . S
C501 H489 0.950 . S
C501 C497 1.393 . S
C501 C500 1.391 . S
C502 H492 0.950 . S
C502 C503 1.386 . S
C502 C504 1.391 . S
C503 C502 1.386 . S
C503 C507 1.393 . S
C504 H493 0.950 . S
C504 C502 1.391 . S
C504 C505 1.400 . S
C505 C499 1.491 . S
C505 C504 1.400 . S
C505 C506 1.398 . S
C506 H494 0.950 . S
C506 C505 1.398 . S
C506 C507 1.391 . S
C507 H495 0.950 . S
C507 C503 1.393 . S
C507 C506 1.391 . S
H508 C516 0.950 . S
H509 C521 0.950 . S
H510 C518 0.950 . S
H511 C520 0.950 . S
H512 C522 0.950 . S
H513 C524 0.950 . S
H514 C526 0.950 . S
H515 C527 0.950 . S
C516 H508 0.950 . S
C516 C517 1.386 . S
C516 C518 1.391 . S
C517 C516 1.386 . S
C517 C521 1.393 . S
C518 H510 0.950 . S
C518 C516 1.391 . S
C518 C519 1.400 . S
C519 C518 1.400 . S
C519 C520 1.398 . S
C519 C525 1.491 . S
C520 H511 0.950 . S
C520 C519 1.398 . S
C520 C521 1.391 . S
C521 H509 0.950 . S
C521 C517 1.393 . S
C521 C520 1.391 . S
C522 H512 0.950 . S
C522 C523 1.386 . S
C522 C524 1.391 . S
C523 C522 1.386 . S
C523 C527 1.393 . S
C524 H513 0.950 . S
C524 C522 1.391 . S
C524 C525 1.400 . S
C525 C519 1.491 . S
C525 C524 1.400 . S
C525 C526 1.398 . S
C526 H514 0.950 . S
C526 C525 1.398 . S
C526 C527 1.391 . S
C527 H515 0.950 . S
C527 C523 1.393 . S
C527 C526 1.391 . S
H528 C536 0.950 . S
H529 C541 0.950 . S
H530 C538 0.950 . S
H531 C540 0.950 . S
H532 C542 0.950 . S
H533 C544 0.950 . S
H534 C546 0.950 . S
H535 C547 0.950 . S
C536 H528 0.950 . S
C536 C537 1.386 . S
C536 C538 1.391 . S
C537 C536 1.386 . S
C537 C541 1.393 . S
C538 H530 0.950 . S
C538 C536 1.391 . S
C538 C539 1.400 . S
C539 C538 1.400 . S
C539 C540 1.398 . S
C539 C545 1.491 . S
C540 H531 0.950 . S
C540 C539 1.398 . S
C540 C541 1.391 . S
C541 H529 0.950 . S
C541 C537 1.393 . S
C541 C540 1.391 . S
C542 H532 0.950 . S
C542 C543 1.386 . S
C542 C544 1.391 . S
C543 C542 1.386 . S
C543 C547 1.393 . S
C544 H533 0.950 . S
C544 C542 1.391 . S
C544 C545 1.400 . S
C545 C539 1.491 . S
C545 C544 1.400 . S
C545 C546 1.398 . S
C546 H534 0.950 . S
C546 C545 1.398 . S
C546 C547 1.391 . S
C547 H535 0.950 . S
C547 C543 1.393 . S
C547 C546 1.391 . S
H548 C556 0.950 . S
H549 C561 0.950 . S
H550 C558 0.950 . S
H551 C560 0.950 . S
H552 C562 0.950 . S
H553 C564 0.950 . S
H554 C566 0.950 . S
H555 C567 0.950 . S
C556 H548 0.950 . S
C556 C557 1.386 . S
C556 C558 1.391 1_655 S
C557 C556 1.386 . S
C557 C561 1.393 . S
C558 H550 0.950 . S
C558 C556 1.391 1_455 S
C558 C559 1.400 1_455 S
C559 C558 1.400 1_655 S
C559 C560 1.398 . S
C559 C565 1.491 1_655 S
C560 H551 0.950 . S
C560 C559 1.398 . S
C560 C561 1.391 . S
C561 H549 0.950 . S
C561 C557 1.393 . S
C561 C560 1.391 . S
C562 H552 0.950 . S
C562 C563 1.386 . S
C562 C564 1.391 1_455 S
C563 C562 1.386 . S
C563 C567 1.393 . S
C564 H553 0.950 . S
C564 C562 1.391 1_655 S
C564 C565 1.400 1_655 S
C565 C559 1.491 1_455 S
C565 C564 1.400 1_455 S
C565 C566 1.398 . S
C566 H554 0.950 . S
C566 C565 1.398 . S
C566 C567 1.391 . S
C567 H555 0.950 . S
C567 C563 1.393 . S
C567 C566 1.391 . S
H568 C576 0.950 1_565 S
H569 C581 0.950 . S
H570 C578 0.950 . S
H571 C580 0.950 . S
H572 C582 0.950 1_545 S
H573 C584 0.950 . S
H574 C586 0.950 . S
H575 C587 0.950 . S
C576 H568 0.950 1_545 S
C576 C577 1.386 . S
C576 C578 1.391 1_545 S
C577 C576 1.386 . S
C577 C581 1.393 . S
C578 H570 0.950 . S
C578 C576 1.391 1_565 S
C578 C579 1.400 1_565 S
C579 C578 1.400 1_545 S
C579 C580 1.398 . S
C579 C585 1.491 1_544 S
C580 H571 0.950 . S
C580 C579 1.398 . S
C580 C581 1.391 . S
C581 H569 0.950 . S
C581 C577 1.393 . S
C581 C580 1.391 . S
C582 H572 0.950 1_565 S
C582 C583 1.386 . S
C582 C584 1.391 1_565 S
C583 C582 1.386 . S
C583 C587 1.393 . S
C584 H573 0.950 . S
C584 C582 1.391 1_545 S
C584 C585 1.400 1_545 S
C585 C579 1.491 1_566 S
C585 C584 1.400 1_565 S
C585 C586 1.398 . S
C586 H574 0.950 . S
C586 C585 1.398 . S
C586 C587 1.391 . S
C587 H575 0.950 . S
C587 C583 1.393 . S
C587 C586 1.391 . S
H588 C596 0.950 . S
H589 C601 0.950 . S
H590 C598 0.950 . S
H591 C600 0.950 . S
H592 C602 0.950 . S
H593 C604 0.950 . S
H594 C606 0.950 . S
H595 C607 0.950 . S
C596 H588 0.950 . S
C596 C597 1.386 . S
C596 C598 1.391 . S
C597 C596 1.386 . S
C597 C601 1.393 . S
C598 H590 0.950 . S
C598 C596 1.391 . S
C598 C599 1.400 . S
C599 C598 1.400 . S
C599 C600 1.398 . S
C599 C605 1.491 . S
C600 H591 0.950 . S
C600 C599 1.398 . S
C600 C601 1.391 . S
C601 H589 0.950 . S
C601 C597 1.393 . S
C601 C600 1.391 . S
C602 H592 0.950 . S
C602 C603 1.386 . S
C602 C604 1.391 . S
C603 C602 1.386 . S
C603 C607 1.393 . S
C604 H593 0.950 . S
C604 C602 1.391 . S
C604 C605 1.400 . S
C605 C599 1.491 . S
C605 C604 1.400 . S
C605 C606 1.398 . S
C606 H594 0.950 . S
C606 C605 1.398 . S
C606 C607 1.391 . S
C607 H595 0.950 . S
C607 C603 1.393 . S
C607 C606 1.391 . S
H608 C616 0.950 . S
H609 C621 0.950 . S
H610 C618 0.950 . S
H611 C620 0.950 . S
H612 C622 0.950 . S
H613 C624 0.950 . S
H614 C626 0.950 . S
H615 C627 0.950 . S
C616 H608 0.950 . S
C616 C617 1.386 . S
C616 C618 1.391 . S
C617 C616 1.386 . S
C617 C621 1.393 1_455 S
C618 H610 0.950 . S
C618 C616 1.391 . S
C618 C619 1.400 . S
C619 C618 1.400 . S
C619 C620 1.398 1_455 S
C619 C625 1.491 1_455 S
C620 H611 0.950 . S
C620 C619 1.398 1_655 S
C620 C621 1.391 . S
C621 H609 0.950 . S
C621 C617 1.393 1_655 S
C621 C620 1.391 . S
C622 H612 0.950 . S
C622 C623 1.386 . S
C622 C624 1.391 . S
C623 C622 1.386 . S
C623 C627 1.393 1_655 S
C624 H613 0.950 . S
C624 C622 1.391 . S
C624 C625 1.400 . S
C625 C619 1.491 1_655 S
C625 C624 1.400 . S
C625 C626 1.398 1_655 S
C626 H614 0.950 . S
C626 C625 1.398 1_455 S
C626 C627 1.391 . S
C627 H615 0.950 . S
C627 C623 1.393 1_455 S
C627 C626 1.391 . S
H628 C636 0.950 . S
H629 C641 0.950 . S
H630 C638 0.950 . S
H631 C640 0.950 1_545 S
H632 C642 0.950 . S
H633 C644 0.950 . S
H634 C646 0.950 1_565 S
H635 C647 0.950 . S
C636 H628 0.950 . S
C636 C637 1.386 . S
C636 C638 1.391 . S
C637 C636 1.386 . S
C637 C641 1.393 . S
C638 H630 0.950 . S
C638 C636 1.391 . S
C638 C639 1.400 . S
C639 C638 1.400 . S
C639 C640 1.398 . S
C639 C645 1.491 1_564 S
C640 H631 0.950 1_565 S
C640 C639 1.398 . S
C640 C641 1.391 . S
C641 H629 0.950 . S
C641 C637 1.393 . S
C641 C640 1.391 . S
C642 H632 0.950 . S
C642 C643 1.386 . S
C642 C644 1.391 . S
C643 C642 1.386 . S
C643 C647 1.393 . S
C644 H633 0.950 . S
C644 C642 1.391 . S
C644 C645 1.400 . S
C645 C639 1.491 1_546 S
C645 C644 1.400 . S
C645 C646 1.398 . S
C646 H634 0.950 1_545 S
C646 C645 1.398 . S
C646 C647 1.391 . S
C647 H635 0.950 . S
C647 C643 1.393 . S
C647 C646 1.391 . S
C177 C161 1.540 . S
C183 C7 1.540 . S
C197 C21 1.557 . S
C203 C91 1.557 . S
C217 C35 1.535 . S
C223 C105 1.535 . S
C237 C49 1.535 . S
C243 C119 1.535 . S
C257 C133 1.535 . S
C263 C63 1.535 . S
C277 C77 1.546 . S
C283 C147 1.545 . S
C297 C50 1.152 . S
C303 C8 1.137 . S
C317 C64 1.124 . S
C323 C22 1.144 . S
C337 C78 1.125 . S
C343 C36 1.150 . S
C357 C92 1.153 . S
C363 C134 1.130 . S
C377 C106 1.125 . S
C383 C148 1.149 . S
C397 C120 1.135 . S
C403 C162 1.128 . S
C417 C121 0.960 . S
C423 C9 0.955 . S
C437 C23 0.969 . S
C443 C135 0.945 . S
C457 C149 0.968 . S
C463 C37 0.946 . S
C477 C163 0.950 . S
C483 C51 0.962 . S
C497 C93 0.964 . S
C503 C65 0.951 . S
C517 C79 0.956 . S
C523 C107 0.955 . S
C537 C132 1.639 . S
C543 C6 1.639 . S
C557 C20 1.621 . S
C563 C146 1.621 . S
C577 C160 1.645 . S
C583 C34 1.646 . S
C597 C48 1.640 . S
C603 C90 1.640 . S
C617 C62 1.642 . S
C623 C104 1.641 . S
C637 C118 1.619 . S
C643 C76 1.619 . S
