# Generated by pormake.
# Topology uoe, (4)-cn, num edge types: 1
# Building blocks:
#     Node 0, Type 0, BuildingBlock: NAWXER_clean_sbu_0, # of connection points: 4
#     Node 1, Type 0, BuildingBlock: NAWXER_clean_sbu_0, # of connection points: 4
#     Node 2, Type 0, BuildingBlock: NAWXER_clean_sbu_0, # of connection points: 4
#     Node 3, Type 0, BuildingBlock: NAWXER_clean_sbu_0, # of connection points: 4
#     Node 4, Type 0, BuildingBlock: NAWXER_clean_sbu_0, # of connection points: 4
#     Node 5, Type 0, BuildingBlock: NAWXER_clean_sbu_0, # of connection points: 4
#     Node 6, Type 0, BuildingBlock: NAWXER_clean_sbu_0, # of connection points: 4
#     Node 7, Type 0, BuildingBlock: NAWXER_clean_sbu_0, # of connection points: 4
#     Node 8, Type 0, BuildingBlock: NAWXER_clean_sbu_0, # of connection points: 4
#     Node 9, Type 0, BuildingBlock: NAWXER_clean_sbu_0, # of connection points: 4
#     Node 10, Type 0, BuildingBlock: NAWXER_clean_sbu_0, # of connection points: 4
#     Node 11, Type 0, BuildingBlock: NAWXER_clean_sbu_0, # of connection points: 4
#     Node 12, Type 0, BuildingBlock: NAWXER_clean_sbu_0, # of connection points: 4
#     Node 13, Type 0, BuildingBlock: NAWXER_clean_sbu_0, # of connection points: 4
#     Node 14, Type 0, BuildingBlock: NAWXER_clean_sbu_0, # of connection points: 4
#     Node 15, Type 0, BuildingBlock: NAWXER_clean_sbu_0, # of connection points: 4
#     Node 16, Type 0, BuildingBlock: NAWXER_clean_sbu_0, # of connection points: 4
#     Node 17, Type 0, BuildingBlock: NAWXER_clean_sbu_0, # of connection points: 4
#     Node 18, Type 0, BuildingBlock: NAWXER_clean_sbu_0, # of connection points: 4
#     Node 19, Type 0, BuildingBlock: NAWXER_clean_sbu_0, # of connection points: 4
#     Node 20, Type 0, BuildingBlock: NAWXER_clean_sbu_0, # of connection points: 4
#     Node 21, Type 0, BuildingBlock: NAWXER_clean_sbu_0, # of connection points: 4
#     Node 22, Type 0, BuildingBlock: NAWXER_clean_sbu_0, # of connection points: 4
#     Node 23, Type 0, BuildingBlock: NAWXER_clean_sbu_0, # of connection points: 4
#     Node 24, Type 0, BuildingBlock: NAWXER_clean_sbu_0, # of connection points: 4
#     Node 25, Type 0, BuildingBlock: NAWXER_clean_sbu_0, # of connection points: 4
#     Node 26, Type 0, BuildingBlock: NAWXER_clean_sbu_0, # of connection points: 4
#     Node 27, Type 0, BuildingBlock: NAWXER_clean_sbu_0, # of connection points: 4
#     Node 28, Type 0, BuildingBlock: NAWXER_clean_sbu_0, # of connection points: 4
#     Node 29, Type 0, BuildingBlock: NAWXER_clean_sbu_0, # of connection points: 4
#     Node 30, Type 0, BuildingBlock: NAWXER_clean_sbu_0, # of connection points: 4
#     Node 31, Type 0, BuildingBlock: NAWXER_clean_sbu_0, # of connection points: 4
#     Edge 32, Type (0, 0), BuildingBlock: OJICUG_clean_linker_0, # of connection points: 2
#     Edge 33, Type (0, 0), BuildingBlock: OJICUG_clean_linker_0, # of connection points: 2
#     Edge 34, Type (0, 0), BuildingBlock: OJICUG_clean_linker_0, # of connection points: 2
#     Edge 35, Type (0, 0), BuildingBlock: OJICUG_clean_linker_0, # of connection points: 2
#     Edge 36, Type (0, 0), BuildingBlock: OJICUG_clean_linker_0, # of connection points: 2
#     Edge 37, Type (0, 0), BuildingBlock: OJICUG_clean_linker_0, # of connection points: 2
#     Edge 38, Type (0, 0), BuildingBlock: OJICUG_clean_linker_0, # of connection points: 2
#     Edge 39, Type (0, 0), BuildingBlock: OJICUG_clean_linker_0, # of connection points: 2
#     Edge 40, Type (0, 0), BuildingBlock: OJICUG_clean_linker_0, # of connection points: 2
#     Edge 41, Type (0, 0), BuildingBlock: OJICUG_clean_linker_0, # of connection points: 2
#     Edge 42, Type (0, 0), BuildingBlock: OJICUG_clean_linker_0, # of connection points: 2
#     Edge 43, Type (0, 0), BuildingBlock: OJICUG_clean_linker_0, # of connection points: 2
#     Edge 44, Type (0, 0), BuildingBlock: OJICUG_clean_linker_0, # of connection points: 2
#     Edge 45, Type (0, 0), BuildingBlock: OJICUG_clean_linker_0, # of connection points: 2
#     Edge 46, Type (0, 0), BuildingBlock: OJICUG_clean_linker_0, # of connection points: 2
#     Edge 47, Type (0, 0), BuildingBlock: OJICUG_clean_linker_0, # of connection points: 2
#     Edge 48, Type (0, 0), BuildingBlock: OJICUG_clean_linker_0, # of connection points: 2
#     Edge 49, Type (0, 0), BuildingBlock: OJICUG_clean_linker_0, # of connection points: 2
#     Edge 50, Type (0, 0), BuildingBlock: OJICUG_clean_linker_0, # of connection points: 2
#     Edge 51, Type (0, 0), BuildingBlock: OJICUG_clean_linker_0, # of connection points: 2
#     Edge 52, Type (0, 0), BuildingBlock: OJICUG_clean_linker_0, # of connection points: 2
#     Edge 53, Type (0, 0), BuildingBlock: OJICUG_clean_linker_0, # of connection points: 2
#     Edge 54, Type (0, 0), BuildingBlock: OJICUG_clean_linker_0, # of connection points: 2
#     Edge 55, Type (0, 0), BuildingBlock: OJICUG_clean_linker_0, # of connection points: 2
#     Edge 56, Type (0, 0), BuildingBlock: OJICUG_clean_linker_0, # of connection points: 2
#     Edge 57, Type (0, 0), BuildingBlock: OJICUG_clean_linker_0, # of connection points: 2
#     Edge 58, Type (0, 0), BuildingBlock: OJICUG_clean_linker_0, # of connection points: 2
#     Edge 59, Type (0, 0), BuildingBlock: OJICUG_clean_linker_0, # of connection points: 2
#     Edge 60, Type (0, 0), BuildingBlock: OJICUG_clean_linker_0, # of connection points: 2
#     Edge 61, Type (0, 0), BuildingBlock: OJICUG_clean_linker_0, # of connection points: 2
#     Edge 62, Type (0, 0), BuildingBlock: OJICUG_clean_linker_0, # of connection points: 2
#     Edge 63, Type (0, 0), BuildingBlock: OJICUG_clean_linker_0, # of connection points: 2
#     Edge 64, Type (0, 0), BuildingBlock: OJICUG_clean_linker_0, # of connection points: 2
#     Edge 65, Type (0, 0), BuildingBlock: OJICUG_clean_linker_0, # of connection points: 2
#     Edge 66, Type (0, 0), BuildingBlock: OJICUG_clean_linker_0, # of connection points: 2
#     Edge 67, Type (0, 0), BuildingBlock: OJICUG_clean_linker_0, # of connection points: 2
#     Edge 68, Type (0, 0), BuildingBlock: OJICUG_clean_linker_0, # of connection points: 2
#     Edge 69, Type (0, 0), BuildingBlock: OJICUG_clean_linker_0, # of connection points: 2
#     Edge 70, Type (0, 0), BuildingBlock: OJICUG_clean_linker_0, # of connection points: 2
#     Edge 71, Type (0, 0), BuildingBlock: OJICUG_clean_linker_0, # of connection points: 2
#     Edge 72, Type (0, 0), BuildingBlock: OJICUG_clean_linker_0, # of connection points: 2
#     Edge 73, Type (0, 0), BuildingBlock: OJICUG_clean_linker_0, # of connection points: 2
#     Edge 74, Type (0, 0), BuildingBlock: OJICUG_clean_linker_0, # of connection points: 2
#     Edge 75, Type (0, 0), BuildingBlock: OJICUG_clean_linker_0, # of connection points: 2
#     Edge 76, Type (0, 0), BuildingBlock: OJICUG_clean_linker_0, # of connection points: 2
#     Edge 77, Type (0, 0), BuildingBlock: OJICUG_clean_linker_0, # of connection points: 2
#     Edge 78, Type (0, 0), BuildingBlock: OJICUG_clean_linker_0, # of connection points: 2
#     Edge 79, Type (0, 0), BuildingBlock: OJICUG_clean_linker_0, # of connection points: 2
#     Edge 80, Type (0, 0), BuildingBlock: OJICUG_clean_linker_0, # of connection points: 2
#     Edge 81, Type (0, 0), BuildingBlock: OJICUG_clean_linker_0, # of connection points: 2
#     Edge 82, Type (0, 0), BuildingBlock: OJICUG_clean_linker_0, # of connection points: 2
#     Edge 83, Type (0, 0), BuildingBlock: OJICUG_clean_linker_0, # of connection points: 2
#     Edge 84, Type (0, 0), BuildingBlock: OJICUG_clean_linker_0, # of connection points: 2
#     Edge 85, Type (0, 0), BuildingBlock: OJICUG_clean_linker_0, # of connection points: 2
#     Edge 86, Type (0, 0), BuildingBlock: OJICUG_clean_linker_0, # of connection points: 2
#     Edge 87, Type (0, 0), BuildingBlock: OJICUG_clean_linker_0, # of connection points: 2
#     Edge 88, Type (0, 0), BuildingBlock: OJICUG_clean_linker_0, # of connection points: 2
#     Edge 89, Type (0, 0), BuildingBlock: OJICUG_clean_linker_0, # of connection points: 2
#     Edge 90, Type (0, 0), BuildingBlock: OJICUG_clean_linker_0, # of connection points: 2
#     Edge 91, Type (0, 0), BuildingBlock: OJICUG_clean_linker_0, # of connection points: 2
#     Edge 92, Type (0, 0), BuildingBlock: OJICUG_clean_linker_0, # of connection points: 2
#     Edge 93, Type (0, 0), BuildingBlock: OJICUG_clean_linker_0, # of connection points: 2
#     Edge 94, Type (0, 0), BuildingBlock: OJICUG_clean_linker_0, # of connection points: 2
#     Edge 95, Type (0, 0), BuildingBlock: OJICUG_clean_linker_0, # of connection points: 2
# Relax obj value: 0.105
# Max RMSD: 0.239
# Mean RMSD: 0.239
data_MOF--net-uoe--node1-NAWXER_clean_sbu_0--edge1-OJICUG_clean_linker_0
_symmetry_space_group_name_H-M    P1
_symmetry_Int_Tables_number       1
_symmetry_cell_setting            triclinic
loop_
_symmetry_equiv_pos_as_xyz
'x, y, z'
_cell_length_a     54.094464
_cell_length_b     54.09709
_cell_length_c     20.778114
_cell_angle_alpha  90.00631
_cell_angle_beta   90.001881
_cell_angle_gamma 90.000372
loop_
_atom_site_label
_atom_site_type_symbol
_atom_site_fract_x
_atom_site_fract_y
_atom_site_fract_z
_atom_type_partial_charge
C0 C 0.12197 0.43084 0.10319 0.0
C1 C 0.04839 0.47813 0.05837 0.0
O2 O 0.12717 0.45383 0.09765 0.0
Zn3 Zn 0.10779 0.4865 0.0677 0.0
O4 O 0.10127 0.4231 0.08277 0.0
Zn5 Zn 0.08607 0.45485 0.0654 0.0
O6 O 0.0962 0.46818 0.97088 0.0
O7 O 0.1225 0.49841 0.98908 0.0
O8 O 0.05103 0.45479 0.05948 0.0
O9 O 0.06761 0.49219 0.05948 0.0
O10 O 0.11434 0.50568 0.14274 0.0
O11 O 0.08989 0.47326 0.15833 0.0
C12 C 0.11064 0.48513 0.94963 0.0
C13 C 0.10145 0.49221 0.18006 0.0
C14 C 0.77039 0.79832 0.30818 0.0
C15 C 0.81759 0.87199 0.35272 0.0
O16 O 0.7563 0.81752 0.30933 0.0
Zn17 Zn 0.76192 0.85771 0.31747 0.0
O18 O 0.79373 0.80101 0.30921 0.0
Zn19 Zn 0.79361 0.83604 0.31508 0.0
O20 O 0.77527 0.83988 0.40808 0.0
O21 O 0.74278 0.86425 0.39255 0.0
O22 O 0.82535 0.8513 0.33229 0.0
O23 O 0.79459 0.87715 0.34726 0.0
O24 O 0.74994 0.87238 0.23888 0.0
O25 O 0.78022 0.84614 0.22061 0.0
C26 C 0.7563 0.8514 0.42981 0.0
C27 C 0.76322 0.86054 0.1994 0.0
C28 C 0.39722 0.50639 0.67981 0.0
C29 C 0.38808 0.51357 0.44941 0.0
O30 O 0.4088 0.52534 0.65817 0.0
Zn31 Zn 0.41267 0.54378 0.56532 0.0
O32 O 0.38432 0.49295 0.64245 0.0
Zn33 Zn 0.39092 0.51214 0.56748 0.0
O34 O 0.43109 0.50642 0.55933 0.0
O35 O 0.44771 0.5438 0.55947 0.0
O36 O 0.37621 0.50028 0.48881 0.0
O37 O 0.40252 0.53051 0.47074 0.0
O38 O 0.39748 0.57554 0.58282 0.0
O39 O 0.37155 0.54482 0.59747 0.0
C40 C 0.45033 0.52045 0.5583 0.0
C41 C 0.37676 0.5678 0.60312 0.0
C42 C 0.74218 0.1472 0.92949 0.0
C43 C 0.73504 0.13804 0.69905 0.0
O44 O 0.72323 0.15878 0.90779 0.0
Zn45 Zn 0.7048 0.16263 0.8149 0.0
O46 O 0.75562 0.13431 0.89213 0.0
Zn47 Zn 0.73643 0.14088 0.81713 0.0
O48 O 0.74215 0.18106 0.80896 0.0
O49 O 0.70477 0.19766 0.80902 0.0
O50 O 0.74832 0.12617 0.73847 0.0
O51 O 0.7181 0.15249 0.72034 0.0
O52 O 0.67304 0.14745 0.83233 0.0
O53 O 0.70375 0.12153 0.84712 0.0
C54 C 0.72811 0.20029 0.80789 0.0
C55 C 0.68076 0.12674 0.85271 0.0
C56 C 0.10134 0.50645 0.45214 0.0
C57 C 0.11055 0.51391 0.68244 0.0
O58 O 0.08972 0.5254 0.47364 0.0
Zn59 Zn 0.08583 0.54393 0.56639 0.0
O60 O 0.11427 0.49307 0.48957 0.0
Zn61 Zn 0.10765 0.51234 0.56441 0.0
O62 O 0.0675 0.50653 0.57277 0.0
O63 O 0.0508 0.54387 0.57237 0.0
O64 O 0.12243 0.5006 0.6431 0.0
O65 O 0.09605 0.53079 0.66104 0.0
O66 O 0.10093 0.57571 0.54864 0.0
O67 O 0.12692 0.54503 0.53414 0.0
C68 C 0.04823 0.52053 0.57377 0.0
C69 C 0.12166 0.568 0.52833 0.0
C70 C 0.73447 0.86045 0.93219 0.0
C71 C 0.74208 0.85124 0.70188 0.0
O72 O 0.71761 0.84595 0.91071 0.0
Zn73 Zn 0.70453 0.83573 0.81598 0.0
O74 O 0.7478 0.87234 0.89292 0.0
Zn75 Zn 0.73612 0.85756 0.81418 0.0
O76 O 0.70344 0.87683 0.78385 0.0
O77 O 0.67276 0.85083 0.79808 0.0
O78 O 0.75542 0.86417 0.73939 0.0
O79 O 0.72312 0.83962 0.72337 0.0
O80 O 0.70461 0.80069 0.82189 0.0
O81 O 0.74194 0.81742 0.82259 0.0
C82 C 0.68048 0.87157 0.77793 0.0
C83 C 0.72796 0.79814 0.82347 0.0
C84 C 0.37692 0.43067 0.02823 0.0
C85 C 0.4504 0.47807 0.07361 0.0
O86 O 0.37168 0.45364 0.03396 0.0
Zn87 Zn 0.39099 0.48632 0.06417 0.0
O88 O 0.39764 0.42294 0.04855 0.0
Zn89 Zn 0.41277 0.45471 0.06621 0.0
O90 O 0.40258 0.46791 0.16083 0.0
O91 O 0.37622 0.49811 0.14283 0.0
O92 O 0.4478 0.45472 0.0722 0.0
O93 O 0.43115 0.49209 0.07257 0.0
O94 O 0.3844 0.50557 0.98929 0.0
O95 O 0.40891 0.47321 0.97344 0.0
C96 C 0.3881 0.48481 0.1822 0.0
C97 C 0.39732 0.49217 0.95187 0.0
C98 C 0.77053 0.20037 0.32323 0.0
C99 C 0.81798 0.12693 0.27784 0.0
O100 O 0.75653 0.18111 0.32221 0.0
Zn101 Zn 0.76232 0.14096 0.31383 0.0
O102 O 0.79388 0.1978 0.32182 0.0
Zn103 Zn 0.79392 0.16276 0.31585 0.0
O104 O 0.77541 0.15888 0.22308 0.0
O105 O 0.74307 0.13435 0.23897 0.0
O106 O 0.8257 0.14765 0.29816 0.0
O107 O 0.79501 0.12168 0.2836 0.0
O108 O 0.75056 0.12619 0.39251 0.0
O109 O 0.78074 0.15256 0.41049 0.0
C110 C 0.75645 0.14727 0.20155 0.0
C111 C 0.76385 0.13808 0.43187 0.0
C112 C 0.89731 0.50644 0.9527 0.0
C113 C 0.88814 0.51337 0.18318 0.0
O114 O 0.88442 0.49297 0.98999 0.0
Zn115 Zn 0.891 0.51208 0.06511 0.0
O116 O 0.9089 0.52537 0.97453 0.0
Zn117 Zn 0.91275 0.5437 0.06756 0.0
O118 O 0.94778 0.54372 0.07348 0.0
O119 O 0.93118 0.50633 0.0733 0.0
O120 O 0.90259 0.53032 0.16202 0.0
O121 O 0.87627 0.50013 0.14366 0.0
O122 O 0.87167 0.5448 0.03533 0.0
O123 O 0.8976 0.57549 0.05037 0.0
C124 C 0.95041 0.52038 0.07448 0.0
C125 C 0.87689 0.56779 0.02991 0.0
C126 C 0.23468 0.13803 0.93321 0.0
C127 C 0.24199 0.1472 0.70287 0.0
O128 O 0.248 0.12617 0.89384 0.0
Zn129 Zn 0.23619 0.1409 0.81517 0.0
O130 O 0.21776 0.15249 0.91184 0.0
Zn131 Zn 0.20456 0.16267 0.81724 0.0
O132 O 0.1728 0.14751 0.79962 0.0
O133 O 0.20351 0.12156 0.7851 0.0
O134 O 0.22303 0.15878 0.72444 0.0
O135 O 0.25541 0.13429 0.74024 0.0
O136 O 0.24194 0.18105 0.8234 0.0
O137 O 0.20458 0.19772 0.82315 0.0
C138 C 0.18053 0.12679 0.77936 0.0
C139 C 0.22793 0.2003 0.82441 0.0
C140 C 0.61052 0.48496 0.68367 0.0
C141 C 0.6014 0.49205 0.45329 0.0
O142 O 0.62239 0.49824 0.64424 0.0
Zn143 Zn 0.60767 0.48635 0.56562 0.0
O144 O 0.59607 0.46802 0.6624 0.0
Zn145 Zn 0.58591 0.45473 0.56785 0.0
O146 O 0.60107 0.42295 0.55047 0.0
O147 O 0.62701 0.45365 0.53572 0.0
O148 O 0.58982 0.4731 0.47493 0.0
O149 O 0.61428 0.50552 0.49061 0.0
O150 O 0.5675 0.49211 0.57371 0.0
O151 O 0.55086 0.45474 0.57367 0.0
C152 C 0.62178 0.43067 0.53013 0.0
C153 C 0.54826 0.47808 0.57476 0.0
C154 C 0.25651 0.85131 0.2023 0.0
C155 C 0.26374 0.86052 0.43273 0.0
O156 O 0.24309 0.86422 0.23969 0.0
Zn157 Zn 0.26229 0.85765 0.31467 0.0
O158 O 0.27545 0.83972 0.22399 0.0
Zn159 Zn 0.29391 0.83586 0.31683 0.0
O160 O 0.29389 0.80082 0.32273 0.0
O161 O 0.25653 0.81749 0.32295 0.0
O162 O 0.28066 0.84605 0.41141 0.0
O163 O 0.25046 0.87239 0.39333 0.0
O164 O 0.29498 0.87696 0.28463 0.0
O165 O 0.32568 0.85101 0.29929 0.0
C166 C 0.27054 0.79824 0.32398 0.0
C167 C 0.31796 0.87173 0.27897 0.0
C168 C 0.89726 0.49218 0.68062 0.0
C169 C 0.88806 0.48458 0.45036 0.0
O170 O 0.88435 0.50555 0.64315 0.0
Zn171 Zn 0.89093 0.48622 0.5684 0.0
O172 O 0.90884 0.47319 0.65922 0.0
Zn173 Zn 0.91272 0.4546 0.56656 0.0
O174 O 0.94776 0.45462 0.56061 0.0
O175 O 0.93109 0.49197 0.56003 0.0
O176 O 0.90253 0.4677 0.47185 0.0
O177 O 0.87618 0.49792 0.48964 0.0
O178 O 0.87162 0.45357 0.5988 0.0
O179 O 0.89758 0.42285 0.58443 0.0
C180 C 0.95035 0.47796 0.5591 0.0
C181 C 0.87686 0.4306 0.60469 0.0
C182 C 0.25616 0.14725 0.43079 0.0
C183 C 0.2634 0.138 0.20043 0.0
O184 O 0.24272 0.13436 0.39341 0.0
Zn185 Zn 0.26195 0.1409 0.31846 0.0
O186 O 0.27513 0.15881 0.40913 0.0
Zn187 Zn 0.29359 0.16262 0.3163 0.0
O188 O 0.29365 0.19765 0.31031 0.0
O189 O 0.25625 0.18107 0.31007 0.0
O190 O 0.28033 0.15245 0.22174 0.0
O191 O 0.2501 0.12614 0.23983 0.0
O192 O 0.29461 0.12154 0.34859 0.0
O193 O 0.32534 0.14744 0.33381 0.0
C194 C 0.27031 0.20029 0.30899 0.0
C195 C 0.3176 0.12674 0.35421 0.0
C196 C 0.61065 0.51369 0.95089 0.0
C197 C 0.60137 0.50625 0.18122 0.0
O198 O 0.6225 0.50035 0.99022 0.0
Zn199 Zn 0.60775 0.51213 0.06891 0.0
O200 O 0.59621 0.53061 0.9723 0.0
Zn201 Zn 0.58602 0.54378 0.06694 0.0
O202 O 0.60121 0.57551 0.08472 0.0
O203 O 0.62712 0.54477 0.0992 0.0
O204 O 0.58982 0.52524 0.15963 0.0
O205 O 0.61427 0.49284 0.14378 0.0
O206 O 0.56759 0.50645 0.06042 0.0
O207 O 0.55098 0.54383 0.06089 0.0
C208 C 0.62192 0.56775 0.105 0.0
C209 C 0.54836 0.52049 0.0594 0.0
C210 C 0.2281 0.79827 0.80852 0.0
C211 C 0.18079 0.87179 0.85391 0.0
O212 O 0.20476 0.80089 0.80987 0.0
Zn213 Zn 0.2048 0.83593 0.81585 0.0
O214 O 0.24215 0.8175 0.80958 0.0
Zn215 Zn 0.23644 0.85766 0.81797 0.0
O216 O 0.2557 0.86421 0.89285 0.0
O217 O 0.22328 0.83977 0.90868 0.0
O218 O 0.20377 0.87701 0.84823 0.0
O219 O 0.17305 0.8511 0.83346 0.0
O220 O 0.21803 0.8461 0.72125 0.0
O221 O 0.24825 0.87242 0.73931 0.0
C222 C 0.24227 0.85132 0.93022 0.0
C223 C 0.23495 0.86055 0.69992 0.0
C224 C 0.54819 0.97811 0.55795 0.0
C225 C 0.62167 0.93067 0.60283 0.0
O226 O 0.56744 0.99213 0.55907 0.0
Zn227 Zn 0.6076 0.98637 0.5673 0.0
O228 O 0.5508 0.95476 0.55909 0.0
Zn229 Zn 0.58583 0.95476 0.56502 0.0
O230 O 0.5897 0.97316 0.65795 0.0
O231 O 0.61421 0.00553 0.64231 0.0
O232 O 0.60096 0.92297 0.58241 0.0
O233 O 0.62691 0.95365 0.59727 0.0
O234 O 0.62235 0.99824 0.48869 0.0
O235 O 0.596 0.96805 0.47048 0.0
C236 C 0.6013 0.9921 0.67964 0.0
C237 C 0.61047 0.98498 0.44923 0.0
C238 C 0.27044 0.29818 0.80853 0.0
C239 C 0.31793 0.37167 0.85329 0.0
O240 O 0.25644 0.31744 0.80959 0.0
Zn241 Zn 0.26223 0.3576 0.81776 0.0
O242 O 0.29379 0.30076 0.80969 0.0
Zn243 Zn 0.29384 0.3358 0.81557 0.0
O244 O 0.27543 0.33971 0.90845 0.0
O245 O 0.24307 0.36424 0.89277 0.0
O246 O 0.32563 0.35094 0.83303 0.0
O247 O 0.29495 0.37691 0.84766 0.0
O248 O 0.25038 0.37233 0.73913 0.0
O249 O 0.28058 0.34599 0.72101 0.0
C250 C 0.2565 0.35133 0.93012 0.0
C251 C 0.26366 0.36045 0.69971 0.0
C252 C 0.88811 0.01383 0.94882 0.0
C253 C 0.89725 0.00656 0.17919 0.0
O254 O 0.90259 0.03073 0.97017 0.0
Zn255 Zn 0.91278 0.04395 0.06477 0.0
O256 O 0.87624 0.00053 0.9882 0.0
Zn257 Zn 0.89098 0.01235 0.06687 0.0
O258 O 0.87168 0.04505 0.09689 0.0
O259 O 0.89766 0.07573 0.08234 0.0
O260 O 0.88433 0.99315 0.1418 0.0
O261 O 0.90886 0.0255 0.1576 0.0
O262 O 0.94782 0.04389 0.05892 0.0
O263 O 0.93114 0.00654 0.05872 0.0
C264 C 0.87693 0.06802 0.1026 0.0
C265 C 0.9504 0.02054 0.05772 0.0
C266 C 0.23472 0.63811 0.1991 0.0
C267 C 0.24203 0.64723 0.42948 0.0
O268 O 0.21782 0.65259 0.22047 0.0
Zn269 Zn 0.20461 0.66276 0.31511 0.0
O270 O 0.248 0.62622 0.23846 0.0
Zn271 Zn 0.23621 0.64095 0.31716 0.0
O272 O 0.20351 0.62166 0.34724 0.0
O273 O 0.17283 0.64763 0.3327 0.0
O274 O 0.25543 0.63432 0.39207 0.0
O275 O 0.22309 0.65885 0.40791 0.0
O276 O 0.20465 0.6978 0.30929 0.0
O277 O 0.24201 0.68111 0.30899 0.0
C278 C 0.18054 0.62691 0.35298 0.0
C279 C 0.228 0.70037 0.30803 0.0
C280 C 0.54826 0.02055 0.07339 0.0
C281 C 0.62178 0.06787 0.02792 0.0
O282 O 0.5675 0.00652 0.07239 0.0
Zn283 Zn 0.60767 0.01225 0.064 0.0
O284 O 0.55086 0.04389 0.07196 0.0
Zn285 Zn 0.5859 0.04387 0.06599 0.0
O286 O 0.58973 0.02533 0.97326 0.0
O287 O 0.61423 0.99296 0.98914 0.0
O288 O 0.60108 0.07562 0.04825 0.0
O289 O 0.627 0.04489 0.03371 0.0
O290 O 0.62242 0.00048 0.14271 0.0
O291 O 0.59608 0.0307 0.16065 0.0
C292 C 0.60131 0.00635 0.95171 0.0
C293 C 0.61054 0.01379 0.18205 0.0
C294 C 0.2423 0.35135 0.20218 0.0
C295 C 0.23492 0.36056 0.4325 0.0
O296 O 0.22331 0.33979 0.22372 0.0
Zn297 Zn 0.20478 0.33597 0.31647 0.0
O298 O 0.25572 0.36424 0.23961 0.0
Zn299 Zn 0.23644 0.35769 0.31446 0.0
O300 O 0.24211 0.31751 0.32281 0.0
O301 O 0.20471 0.30094 0.32239 0.0
O302 O 0.24824 0.37242 0.39317 0.0
O303 O 0.21799 0.34612 0.41111 0.0
O304 O 0.17306 0.35117 0.2988 0.0
O305 O 0.20381 0.37707 0.28421 0.0
C306 C 0.22805 0.2983 0.3238 0.0
C307 C 0.18082 0.37187 0.27846 0.0
C308 C 0.88793 0.98509 0.6816 0.0
C309 C 0.89718 0.99236 0.45126 0.0
O310 O 0.90236 0.96815 0.66026 0.0
Zn311 Zn 0.91252 0.95489 0.56568 0.0
O312 O 0.87607 0.9984 0.64223 0.0
Zn313 Zn 0.89081 0.98655 0.56356 0.0
O314 O 0.87142 0.95391 0.53339 0.0
O315 O 0.8973 0.92317 0.54808 0.0
O316 O 0.88429 0.0058 0.48863 0.0
O317 O 0.90873 0.97338 0.47289 0.0
O318 O 0.94756 0.95481 0.5717 0.0
O319 O 0.93098 0.99222 0.572 0.0
C320 C 0.87661 0.93093 0.52772 0.0
C321 C 0.9502 0.97815 0.57309 0.0
C322 C 0.31775 0.62675 0.77813 0.0
C323 C 0.27042 0.70028 0.82325 0.0
O324 O 0.29476 0.62153 0.78376 0.0
Zn325 Zn 0.26209 0.64088 0.81386 0.0
O326 O 0.32548 0.64745 0.7985 0.0
Zn327 Zn 0.29372 0.66263 0.81602 0.0
O328 O 0.28045 0.65248 0.9106 0.0
O329 O 0.25024 0.62615 0.89251 0.0
O330 O 0.29376 0.69766 0.82195 0.0
O331 O 0.25637 0.68106 0.82218 0.0
O332 O 0.24287 0.63431 0.73891 0.0
O333 O 0.27526 0.65879 0.72317 0.0
C334 C 0.26352 0.63804 0.93192 0.0
C335 C 0.2563 0.64721 0.70154 0.0
C336 C 0.37666 0.06779 0.52904 0.0
C337 C 0.45024 0.02046 0.57373 0.0
O338 O 0.39738 0.07553 0.54933 0.0
Zn339 Zn 0.41258 0.04377 0.5667 0.0
O340 O 0.37146 0.04481 0.53461 0.0
Zn341 Zn 0.39084 0.01212 0.56443 0.0
O342 O 0.37614 0.00021 0.64306 0.0
O343 O 0.40243 0.03046 0.66122 0.0
O344 O 0.43101 0.00642 0.57263 0.0
O345 O 0.44762 0.04381 0.57259 0.0
O346 O 0.40872 0.02537 0.47379 0.0
O347 O 0.38427 0.99296 0.48937 0.0
C348 C 0.388 0.0135 0.68249 0.0
C349 C 0.39715 0.00643 0.45204 0.0
C350 C 0.73556 0.63801 0.4329 0.0
C351 C 0.74231 0.64717 0.20242 0.0
O352 O 0.74881 0.62617 0.39335 0.0
Zn353 Zn 0.73677 0.64086 0.31483 0.0
O354 O 0.71855 0.65242 0.41178 0.0
Zn355 Zn 0.7051 0.66255 0.31739 0.0
O356 O 0.67334 0.64731 0.30032 0.0
O357 O 0.70407 0.62145 0.28519 0.0
O358 O 0.72338 0.65872 0.2243 0.0
O359 O 0.75584 0.63431 0.23963 0.0
O360 O 0.74243 0.68105 0.32299 0.0
O361 O 0.705 0.69758 0.32331 0.0
C362 C 0.68107 0.62662 0.27985 0.0
C363 C 0.72834 0.70025 0.32423 0.0
C364 C 0.12179 0.93062 0.0292 0.0
C365 C 0.04827 0.97803 0.07407 0.0
O366 O 0.10107 0.9229 0.04945 0.0
Zn367 Zn 0.0859 0.95467 0.06701 0.0
O368 O 0.12702 0.9536 0.0349 0.0
Zn369 Zn 0.10768 0.98629 0.06489 0.0
O370 O 0.1224 0.99813 0.14357 0.0
O371 O 0.09607 0.96791 0.1616 0.0
O372 O 0.06752 0.99204 0.07307 0.0
O373 O 0.05086 0.95468 0.07287 0.0
O374 O 0.08978 0.97312 0.97419 0.0
O375 O 0.11427 0.00549 0.98991 0.0
C376 C 0.11052 0.98483 0.18295 0.0
C377 C 0.10137 0.99206 0.95252 0.0
C378 C 0.76341 0.3605 0.93315 0.0
C379 C 0.75646 0.35134 0.70266 0.0
O380 O 0.75015 0.37236 0.89366 0.0
Zn381 Zn 0.7621 0.35764 0.81508 0.0
O382 O 0.78036 0.34605 0.91195 0.0
Zn383 Zn 0.79373 0.3359 0.81747 0.0
O384 O 0.82551 0.35107 0.80024 0.0
O385 O 0.79481 0.377 0.7853 0.0
O386 O 0.77539 0.33976 0.72447 0.0
O387 O 0.74298 0.36423 0.73996 0.0
O388 O 0.75637 0.31747 0.8232 0.0
O389 O 0.79375 0.30086 0.82334 0.0
C390 C 0.8178 0.37178 0.77984 0.0
C391 C 0.77041 0.29824 0.82434 0.0
C392 C 0.39721 0.99219 0.17998 0.0
C393 C 0.38805 0.98475 0.94968 0.0
O394 O 0.3843 0.00558 0.14254 0.0
Zn395 Zn 0.39092 0.98631 0.06771 0.0
O396 O 0.40882 0.97323 0.15849 0.0
Zn397 Zn 0.41272 0.95471 0.06575 0.0
O398 O 0.44775 0.95473 0.05984 0.0
O399 O 0.43108 0.99209 0.05942 0.0
O400 O 0.40253 0.96786 0.97109 0.0
O401 O 0.37617 0.99806 0.98901 0.0
O402 O 0.37162 0.95362 0.09795 0.0
O403 O 0.3976 0.92293 0.08343 0.0
C404 C 0.45034 0.97808 0.05845 0.0
C405 C 0.37688 0.93066 0.10373 0.0
C406 C 0.75649 0.64723 0.93035 0.0
C407 C 0.76428 0.63803 0.70012 0.0
O408 O 0.74317 0.63429 0.89279 0.0
Zn409 Zn 0.76254 0.64091 0.81813 0.0
O410 O 0.77547 0.65885 0.90901 0.0
Zn411 Zn 0.79413 0.66275 0.81649 0.0
O412 O 0.79406 0.69779 0.81059 0.0
O413 O 0.75673 0.68106 0.80971 0.0
O414 O 0.78113 0.65253 0.7217 0.0
O415 O 0.75093 0.62614 0.73932 0.0
O416 O 0.79519 0.62164 0.84866 0.0
O417 O 0.82589 0.64764 0.83457 0.0
C418 C 0.77071 0.70033 0.8089 0.0
C419 C 0.81815 0.62691 0.85471 0.0
C420 C 0.1013 0.00632 0.68046 0.0
C421 C 0.1105 0.0136 0.45015 0.0
O422 O 0.11419 0.99289 0.64307 0.0
Zn423 Zn 0.10762 0.01213 0.56819 0.0
O424 O 0.08973 0.02529 0.65891 0.0
Zn425 Zn 0.08586 0.04375 0.56608 0.0
O426 O 0.05083 0.04378 0.56011 0.0
O427 O 0.06744 0.0064 0.55983 0.0
O428 O 0.09604 0.03052 0.47148 0.0
O429 O 0.12237 0.00031 0.48954 0.0
O430 O 0.12695 0.04481 0.59837 0.0
O431 O 0.10101 0.07552 0.58364 0.0
C432 C 0.04821 0.02044 0.55877 0.0
C433 C 0.12171 0.06779 0.60405 0.0
C434 C 0.68062 0.37173 0.3547 0.0
C435 C 0.72799 0.29827 0.30896 0.0
O436 O 0.67288 0.35102 0.3344 0.0
Zn437 Zn 0.70463 0.33589 0.31651 0.0
O438 O 0.70358 0.37698 0.34881 0.0
Zn439 Zn 0.73624 0.35768 0.31837 0.0
O440 O 0.74794 0.37244 0.23963 0.0
O441 O 0.71773 0.34609 0.2218 0.0
O442 O 0.742 0.31752 0.30992 0.0
O443 O 0.70465 0.30085 0.3105 0.0
O444 O 0.72322 0.33975 0.40917 0.0
O445 O 0.75557 0.36426 0.39312 0.0
C446 C 0.73461 0.36056 0.20034 0.0
C447 C 0.74221 0.35134 0.43059 0.0
C448 C 0.99647 0.52485 0.07067 0.0
C449 C 0.97548 0.50951 0.07211 0.0
H450 H 0.03589 0.52704 0.06448 0.0
C451 C 0.97867 0.48379 0.06779 0.0
H452 H 0.99467 0.54476 0.07357 0.0
C453 C 0.00232 0.47364 0.06214 0.0
C454 C 0.02331 0.48898 0.0607 0.0
H455 H 0.9629 0.47146 0.06833 0.0
H456 H 0.00413 0.45373 0.05924 0.0
C457 C 0.02012 0.5147 0.06501 0.0
C458 C 0.77496 0.75226 0.3118 0.0
C459 C 0.75958 0.77322 0.31052 0.0
H460 H 0.77723 0.71285 0.31782 0.0
C461 C 0.73387 0.76998 0.31499 0.0
H462 H 0.79487 0.75411 0.30878 0.0
C463 C 0.72378 0.74631 0.32061 0.0
C464 C 0.73916 0.72535 0.32188 0.0
H465 H 0.72151 0.78572 0.31459 0.0
H466 H 0.70387 0.74446 0.32362 0.0
C467 C 0.76487 0.72859 0.31742 0.0
C468 C 0.4964 0.52488 0.56229 0.0
C469 C 0.4754 0.50956 0.56071 0.0
H470 H 0.53582 0.52701 0.56868 0.0
C471 C 0.47855 0.48384 0.56497 0.0
H472 H 0.49462 0.54479 0.55944 0.0
C473 C 0.50219 0.47366 0.57072 0.0
C474 C 0.52319 0.48898 0.57231 0.0
H475 H 0.46277 0.47153 0.56433 0.0
H476 H 0.50396 0.45375 0.57357 0.0
C477 C 0.52003 0.5147 0.56803 0.0
C478 C 0.72365 0.24635 0.81183 0.0
C479 C 0.73898 0.22536 0.81029 0.0
H480 H 0.72148 0.28577 0.81819 0.0
C481 C 0.7647 0.22854 0.8146 0.0
H482 H 0.70374 0.24456 0.80895 0.0
C483 C 0.77486 0.25218 0.82035 0.0
C484 C 0.75953 0.27317 0.82189 0.0
H485 H 0.77703 0.21276 0.81399 0.0
H486 H 0.79478 0.25397 0.82323 0.0
C487 C 0.73381 0.26999 0.81758 0.0
C488 C 0.02006 0.48385 0.56781 0.0
C489 C 0.02318 0.50958 0.57176 0.0
H490 H 0.99468 0.4537 0.55992 0.0
C491 C 0.00215 0.52486 0.57032 0.0
H492 H 0.03587 0.47156 0.56836 0.0
C493 C 0.97853 0.51463 0.56504 0.0
C494 C 0.9754 0.4889 0.5611 0.0
H495 H 0.0039 0.54478 0.57294 0.0
H496 H 0.96272 0.52692 0.5645 0.0
C497 C 0.99643 0.47362 0.56253 0.0
C498 C 0.77498 0.74641 0.81349 0.0
C499 C 0.75974 0.72537 0.81087 0.0
H500 H 0.77696 0.78583 0.82026 0.0
C501 C 0.73398 0.72846 0.81359 0.0
H502 H 0.79492 0.74469 0.81186 0.0
C503 C 0.72369 0.75206 0.81885 0.0
C504 C 0.73893 0.7731 0.82147 0.0
H505 H 0.72171 0.71265 0.81208 0.0
H506 H 0.70375 0.75379 0.82047 0.0
C507 C 0.7647 0.77001 0.81874 0.0
C508 C 0.50228 0.52491 0.06291 0.0
C509 C 0.52328 0.5096 0.06128 0.0
H510 H 0.46284 0.52702 0.06878 0.0
C511 C 0.52012 0.48386 0.06488 0.0
H512 H 0.50406 0.54483 0.06055 0.0
C513 C 0.49647 0.47366 0.07004 0.0
C514 C 0.47547 0.48897 0.07168 0.0
H515 H 0.5359 0.47155 0.06416 0.0
H516 H 0.49469 0.45374 0.0724 0.0
C517 C 0.47863 0.51471 0.06806 0.0
C518 C 0.76466 0.27008 0.31459 0.0
C519 C 0.73892 0.27321 0.31085 0.0
H520 H 0.79481 0.2447 0.32223 0.0
C521 C 0.72364 0.25219 0.31237 0.0
H522 H 0.77695 0.28588 0.31397 0.0
C523 C 0.73386 0.22856 0.31754 0.0
C524 C 0.7596 0.22543 0.32129 0.0
H525 H 0.70371 0.25394 0.3099 0.0
H526 H 0.72157 0.21275 0.31816 0.0
C527 C 0.77488 0.24645 0.31976 0.0
C528 C 0.2748 0.25211 0.81238 0.0
C529 C 0.25951 0.27313 0.81084 0.0
H530 H 0.27688 0.21269 0.81858 0.0
C531 C 0.23378 0.27001 0.81502 0.0
H532 H 0.29472 0.25386 0.80959 0.0
C533 C 0.22357 0.24638 0.82062 0.0
C534 C 0.23885 0.22536 0.82214 0.0
H535 H 0.22149 0.28581 0.81442 0.0
H536 H 0.20365 0.24463 0.8234 0.0
C537 C 0.26458 0.22849 0.81797 0.0
C538 C 0.2749 0.75217 0.31962 0.0
C539 C 0.25961 0.77318 0.32169 0.0
H540 H 0.27697 0.71275 0.31294 0.0
C541 C 0.23387 0.77005 0.31805 0.0
H542 H 0.29483 0.75392 0.32196 0.0
C543 C 0.22365 0.74644 0.31243 0.0
C544 C 0.23893 0.72542 0.31035 0.0
H545 H 0.22158 0.78585 0.3191 0.0
H546 H 0.20372 0.74469 0.31008 0.0
C547 C 0.26468 0.72855 0.314 0.0
C548 C 0.23372 0.22858 0.31455 0.0
C549 C 0.25945 0.22537 0.31103 0.0
H550 H 0.20364 0.25405 0.32213 0.0
C551 C 0.2748 0.24635 0.31292 0.0
H552 H 0.22138 0.21282 0.31363 0.0
C553 C 0.26464 0.27 0.31823 0.0
C554 C 0.23891 0.27321 0.32175 0.0
H555 H 0.29472 0.24453 0.31065 0.0
H556 H 0.27698 0.28577 0.31915 0.0
C557 C 0.22356 0.25223 0.31986 0.0
C558 C 0.27488 0.74635 0.81948 0.0
C559 C 0.25954 0.72536 0.8212 0.0
H560 H 0.27704 0.78577 0.81342 0.0
C561 C 0.23381 0.72855 0.81752 0.0
H562 H 0.2948 0.74455 0.82188 0.0
C563 C 0.22364 0.7522 0.81224 0.0
C564 C 0.23897 0.77319 0.81053 0.0
H565 H 0.22148 0.71278 0.8183 0.0
H566 H 0.20372 0.754 0.80984 0.0
C567 C 0.26471 0.77 0.8142 0.0
C568 C 0.47849 0.98386 0.56728 0.0
C569 C 0.47532 0.00958 0.57144 0.0
H570 H 0.50391 0.95377 0.55894 0.0
C571 C 0.49632 0.0249 0.56994 0.0
H572 H 0.4627 0.97154 0.56787 0.0
C573 C 0.51996 0.01473 0.56438 0.0
C574 C 0.52312 0.989 0.56022 0.0
H575 H 0.49453 0.04482 0.57271 0.0
H576 H 0.53574 0.02704 0.56379 0.0
C577 C 0.50212 0.97368 0.56172 0.0
C578 C 0.97857 0.98388 0.06424 0.0
C579 C 0.97545 0.00961 0.06012 0.0
H580 H 0.00394 0.95375 0.07268 0.0
C581 C 0.99647 0.0249 0.06185 0.0
H582 H 0.96277 0.97159 0.06348 0.0
C583 C 0.02009 0.01468 0.06757 0.0
C584 C 0.02321 0.98895 0.07169 0.0
H585 H 0.99472 0.04481 0.05912 0.0
H586 H 0.03589 0.02698 0.06833 0.0
C587 C 0.00219 0.97366 0.06996 0.0
C588 C 0.52004 0.9839 0.06764 0.0
C589 C 0.52319 0.00964 0.07134 0.0
H590 H 0.49464 0.95377 0.05986 0.0
C591 C 0.50218 0.02494 0.06961 0.0
H592 H 0.53584 0.9716 0.06842 0.0
C593 C 0.47855 0.01473 0.06426 0.0
C594 C 0.4754 0.989 0.06055 0.0
H595 H 0.50395 0.04486 0.07203 0.0
H596 H 0.46275 0.02704 0.06347 0.0
C597 C 0.49641 0.9737 0.06229 0.0
C598 C 0.01993 0.98384 0.56451 0.0
C599 C 0.02313 0.00956 0.56072 0.0
H600 H 0.99446 0.95376 0.57217 0.0
C601 C 0.00214 0.0249 0.56222 0.0
H602 H 0.03571 0.9715 0.56391 0.0
C603 C 0.97849 0.01474 0.5674 0.0
C604 C 0.97529 0.98901 0.57117 0.0
H605 H 0.00395 0.04482 0.55973 0.0
H606 H 0.96272 0.02708 0.568 0.0
C607 C 0.99627 0.97367 0.56968 0.0
C608 C 0.08859 0.4955 0.84806 0.0
C609 C 0.11098 0.49152 0.88064 0.0
H610 H 0.07107 0.50681 0.76021 0.0
C611 C 0.13338 0.49575 0.84827 0.0
H612 H 0.0711 0.49274 0.87243 0.0
C613 C 0.13336 0.50318 0.78362 0.0
C614 C 0.11094 0.50762 0.7515 0.0
H615 H 0.15084 0.49302 0.87276 0.0
H616 H 0.15081 0.50571 0.75891 0.0
C617 C 0.08858 0.50388 0.78437 0.0
C618 C 0.74476 0.83847 0.03389 0.0
C619 C 0.74073 0.86083 0.00126 0.0
H620 H 0.75613 0.82101 0.12178 0.0
C621 C 0.74486 0.88325 0.0336 0.0
H622 H 0.74207 0.82096 0.00954 0.0
C623 C 0.75229 0.88327 0.09826 0.0
C624 C 0.75682 0.86089 0.13041 0.0
H625 H 0.7421 0.9007 0.00907 0.0
H626 H 0.75478 0.90074 0.12293 0.0
C627 C 0.75313 0.8385 0.0976 0.0
C628 C 0.36532 0.49541 0.28351 0.0
C629 C 0.38773 0.49113 0.25123 0.0
H630 H 0.34785 0.50541 0.37279 0.0
C631 C 0.4101 0.49505 0.28393 0.0
H632 H 0.34786 0.49273 0.25893 0.0
C633 C 0.41009 0.50343 0.34763 0.0
C634 C 0.38772 0.50723 0.38039 0.0
H635 H 0.42761 0.49225 0.25964 0.0
H636 H 0.42759 0.50632 0.37187 0.0
C637 C 0.36531 0.50283 0.34817 0.0
C638 C 0.74582 0.11529 0.59782 0.0
C639 C 0.74141 0.13769 0.63003 0.0
H640 H 0.75594 0.09784 0.50859 0.0
C641 C 0.74522 0.16006 0.59729 0.0
H642 H 0.74323 0.09782 0.62243 0.0
C643 C 0.75361 0.16007 0.53361 0.0
C644 C 0.75754 0.13771 0.50091 0.0
H645 H 0.74231 0.17756 0.62153 0.0
H646 H 0.75641 0.17758 0.50932 0.0
C647 C 0.75326 0.11529 0.53317 0.0
C648 C 0.91012 0.50271 0.28462 0.0
C649 C 0.88777 0.50695 0.25214 0.0
H650 H 0.92758 0.49121 0.3724 0.0
C651 C 0.86534 0.50295 0.28458 0.0
H652 H 0.92763 0.50529 0.26018 0.0
C653 C 0.86532 0.49552 0.34923 0.0
C654 C 0.8877 0.49084 0.38128 0.0
H655 H 0.84789 0.50587 0.26016 0.0
H656 H 0.84785 0.49318 0.374 0.0
C657 C 0.91009 0.49433 0.34831 0.0
C658 C 0.24541 0.11524 0.0344 0.0
C659 C 0.24098 0.13765 0.00225 0.0
H660 H 0.25554 0.09777 0.12359 0.0
C661 C 0.24472 0.16002 0.03509 0.0
H662 H 0.24288 0.09779 0.00971 0.0
C663 C 0.25308 0.16002 0.0988 0.0
C664 C 0.25705 0.13764 0.13142 0.0
H665 H 0.24179 0.17752 0.01091 0.0
H666 H 0.25585 0.17752 0.12315 0.0
C667 C 0.25283 0.11524 0.09907 0.0
C668 C 0.63338 0.50287 0.84965 0.0
C669 C 0.61099 0.50739 0.88183 0.0
H670 H 0.65079 0.49267 0.76044 0.0
C671 C 0.5886 0.50374 0.84902 0.0
H672 H 0.65085 0.50533 0.87432 0.0
C673 C 0.58856 0.49537 0.78532 0.0
C674 C 0.61091 0.49131 0.75267 0.0
H675 H 0.57111 0.50674 0.87323 0.0
H676 H 0.57104 0.49268 0.76098 0.0
C677 C 0.63334 0.49545 0.78499 0.0
C678 C 0.24503 0.83854 0.59809 0.0
C679 C 0.24129 0.86091 0.63089 0.0
H680 H 0.25618 0.82101 0.51007 0.0
C681 C 0.24575 0.88331 0.59871 0.0
H682 H 0.24209 0.82104 0.62229 0.0
C683 C 0.25318 0.8833 0.53406 0.0
C684 C 0.2574 0.86089 0.50175 0.0
H685 H 0.24321 0.90078 0.62337 0.0
H686 H 0.25591 0.90076 0.50952 0.0
C687 C 0.25342 0.83852 0.5344 0.0
C688 C 0.58851 0.00361 0.28377 0.0
C689 C 0.61089 0.00748 0.25109 0.0
H690 H 0.57098 0.99237 0.37168 0.0
C691 C 0.63329 0.00314 0.28338 0.0
H692 H 0.57101 0.00646 0.25947 0.0
C693 C 0.63327 0.9957 0.34803 0.0
C694 C 0.61085 0.99135 0.38022 0.0
H695 H 0.65076 0.00577 0.25882 0.0
H696 H 0.65072 0.99307 0.37266 0.0
C697 C 0.58849 0.99522 0.34746 0.0
C698 C 0.24516 0.33851 0.53414 0.0
C699 C 0.24124 0.36089 0.50153 0.0
H700 H 0.25643 0.32097 0.62202 0.0
C701 C 0.24551 0.38329 0.53389 0.0
H702 H 0.24236 0.32102 0.50978 0.0
C703 C 0.25293 0.38326 0.59855 0.0
C704 C 0.25733 0.36084 0.63069 0.0
H705 H 0.24283 0.40076 0.50938 0.0
H706 H 0.25551 0.40071 0.62324 0.0
C707 C 0.25353 0.33848 0.59784 0.0
C708 C 0.86527 0.00308 0.84771 0.0
C709 C 0.8877 0.00753 0.87977 0.0
H710 H 0.84775 0.99294 0.75859 0.0
C711 C 0.91005 0.0038 0.84684 0.0
H712 H 0.84783 0.00561 0.87246 0.0
C713 C 0.91001 0.99543 0.78314 0.0
C714 C 0.88761 0.99144 0.75061 0.0
H715 H 0.92757 0.00674 0.87096 0.0
H716 H 0.92749 0.99267 0.75872 0.0
C717 C 0.86523 0.99566 0.78304 0.0
C718 C 0.25276 0.6153 0.03317 0.0
C719 C 0.25716 0.63769 0.00093 0.0
H720 H 0.24266 0.59786 0.12242 0.0
C721 C 0.25334 0.66007 0.03365 0.0
H722 H 0.25536 0.59783 0.00858 0.0
C723 C 0.24495 0.6601 0.09734 0.0
C724 C 0.24103 0.63774 0.13006 0.0
H725 H 0.25623 0.67757 0.00939 0.0
H726 H 0.24214 0.67761 0.1216 0.0
C727 C 0.24532 0.61532 0.09782 0.0
C728 C 0.36526 0.99549 0.84849 0.0
C729 C 0.38767 0.99104 0.88062 0.0
H730 H 0.34778 0.00564 0.75933 0.0
C731 C 0.41004 0.99477 0.84777 0.0
H732 H 0.34781 0.99296 0.87318 0.0
C733 C 0.41003 0.00314 0.78408 0.0
C734 C 0.38765 0.00713 0.75148 0.0
H735 H 0.42755 0.99184 0.87195 0.0
H736 H 0.42753 0.0059 0.75972 0.0
C737 C 0.36525 0.00291 0.78383 0.0
C738 C 0.74635 0.61525 0.53409 0.0
C739 C 0.74199 0.63765 0.50186 0.0
H740 H 0.75639 0.59779 0.62336 0.0
C741 C 0.74586 0.66003 0.53458 0.0
H742 H 0.74372 0.59779 0.50949 0.0
C743 C 0.75423 0.66003 0.59828 0.0
C744 C 0.75808 0.63766 0.63102 0.0
H745 H 0.743 0.67753 0.51032 0.0
H746 H 0.75706 0.67754 0.62256 0.0
C747 C 0.75377 0.61525 0.59875 0.0
C748 C 0.13328 0.00297 0.34887 0.0
C749 C 0.11087 0.00727 0.38113 0.0
H750 H 0.15075 0.99294 0.2596 0.0
C751 C 0.0885 0.00336 0.34842 0.0
H752 H 0.15074 0.00563 0.37346 0.0
C753 C 0.08851 0.99498 0.28473 0.0
C754 C 0.11088 0.99116 0.25198 0.0
H755 H 0.07099 0.00618 0.3727 0.0
H756 H 0.07101 0.9921 0.26048 0.0
C757 C 0.13329 0.99554 0.28421 0.0
C758 C 0.74444 0.33854 0.09833 0.0
C759 C 0.74088 0.36092 0.13126 0.0
H760 H 0.75546 0.321 0.01024 0.0
C761 C 0.7455 0.38331 0.09918 0.0
H762 H 0.74137 0.32105 0.12245 0.0
C763 C 0.75294 0.38329 0.03453 0.0
C764 C 0.757 0.36087 0.00212 0.0
H765 H 0.74311 0.40077 0.12392 0.0
H766 H 0.7558 0.40074 0.01008 0.0
C767 C 0.75283 0.33851 0.03464 0.0
C768 C 0.1237 0.50139 0.34931 0.0
C769 C 0.10128 0.5018 0.38308 0.0
H770 H 0.14113 0.49895 0.25687 0.0
C771 C 0.07885 0.49984 0.34976 0.0
H772 H 0.14114 0.50329 0.37449 0.0
C773 C 0.07886 0.49683 0.28311 0.0
C774 C 0.10127 0.49684 0.2492 0.0
H775 H 0.06141 0.50041 0.37538 0.0
H776 H 0.06144 0.49474 0.25795 0.0
C777 C 0.12368 0.49929 0.28244 0.0
C778 C 0.74632 0.82878 0.59852 0.0
C779 C 0.74681 0.85111 0.63278 0.0
H780 H 0.74949 0.81145 0.50598 0.0
C781 C 0.74978 0.87352 0.59986 0.0
H782 H 0.74384 0.81135 0.62341 0.0
C783 C 0.75188 0.87364 0.533 0.0
C784 C 0.75176 0.8513 0.4989 0.0
H785 H 0.74981 0.89093 0.62567 0.0
H786 H 0.75416 0.89109 0.50805 0.0
C787 C 0.74932 0.82884 0.53187 0.0
C788 C 0.37494 0.50027 0.78245 0.0
C789 C 0.39736 0.50176 0.74891 0.0
H790 H 0.3575 0.49701 0.87472 0.0
C791 C 0.41982 0.50085 0.78249 0.0
H792 H 0.35746 0.50134 0.75709 0.0
C793 C 0.41984 0.49784 0.84915 0.0
C794 C 0.39741 0.49682 0.88279 0.0
H795 H 0.43726 0.50223 0.75708 0.0
H796 H 0.4373 0.49657 0.87451 0.0
C797 C 0.37496 0.49818 0.84931 0.0
C798 C 0.75154 0.12493 0.09864 0.0
C799 C 0.75181 0.14733 0.13249 0.0
H800 H 0.74918 0.10752 0.00615 0.0
C801 C 0.74972 0.16977 0.09926 0.0
H802 H 0.75355 0.10749 0.12377 0.0
C803 C 0.74669 0.16977 0.03261 0.0
C804 C 0.74683 0.14738 0.99862 0.0
H805 H 0.75019 0.1872 0.12494 0.0
H806 H 0.7445 0.18719 0.00752 0.0
C807 C 0.74942 0.12497 0.03178 0.0
C808 C 0.91976 0.49953 0.78261 0.0
C809 C 0.89733 0.49687 0.74965 0.0
H810 H 0.93721 0.50517 0.87415 0.0
C811 C 0.87498 0.49657 0.78373 0.0
H812 H 0.93715 0.4995 0.75673 0.0
C813 C 0.87508 0.49869 0.85059 0.0
C814 C 0.89748 0.50185 0.88352 0.0
H815 H 0.85756 0.49411 0.75879 0.0
H816 H 0.85768 0.49848 0.87641 0.0
C817 C 0.9198 0.50255 0.84926 0.0
C818 C 0.24868 0.16974 0.60064 0.0
C819 C 0.24661 0.14729 0.6338 0.0
H820 H 0.25385 0.18721 0.50894 0.0
C821 C 0.24687 0.1249 0.59989 0.0
H822 H 0.24822 0.18716 0.62638 0.0
C823 C 0.24895 0.12497 0.53302 0.0
C824 C 0.25152 0.1474 0.49992 0.0
H825 H 0.24487 0.10745 0.62497 0.0
H826 H 0.24918 0.10754 0.50733 0.0
C827 C 0.25167 0.16977 0.53398 0.0
C828 C 0.62356 0.49813 0.2832 0.0
C829 C 0.60118 0.50154 0.25035 0.0
H830 H 0.64107 0.49341 0.37496 0.0
C831 C 0.57888 0.50247 0.28468 0.0
H832 H 0.64095 0.49775 0.25734 0.0
C833 C 0.57892 0.49948 0.35134 0.0
C834 C 0.60134 0.4966 0.38422 0.0
H835 H 0.56149 0.50528 0.25986 0.0
H836 H 0.56154 0.49965 0.37729 0.0
C837 C 0.62366 0.49603 0.35006 0.0
C838 C 0.24967 0.82884 0.0322 0.0
C839 C 0.24688 0.85127 0.99927 0.0
H840 H 0.25543 0.81142 0.12371 0.0
C841 C 0.24641 0.8736 0.0334 0.0
H842 H 0.24977 0.81146 0.00628 0.0
C843 C 0.24852 0.8735 0.10026 0.0
C844 C 0.25184 0.85112 0.13315 0.0
H845 H 0.24384 0.89101 0.00848 0.0
H846 H 0.24821 0.8909 0.1261 0.0
C847 C 0.25269 0.82882 0.09885 0.0
C848 C 0.57875 0.99815 0.78217 0.0
C849 C 0.6012 0.99669 0.74874 0.0
H850 H 0.5613 0.0029 0.87407 0.0
C851 C 0.62362 0.9976 0.78241 0.0
H852 H 0.5613 0.99722 0.75664 0.0
C853 C 0.6236 -0.00029 0.84927 0.0
C854 C 0.60117 0.00166 0.88262 0.0
H855 H 0.64109 0.99609 0.75714 0.0
H856 H 0.64106 0.00045 0.87477 0.0
C857 C 0.57874 0.00118 0.84883 0.0
C858 C 0.24803 0.32878 0.09954 0.0
C859 C 0.24697 0.35123 0.13311 0.0
H860 H 0.25242 0.31132 0.00752 0.0
C861 C 0.24829 0.37366 0.09957 0.0
H862 H 0.24677 0.31133 0.12496 0.0
C863 C 0.25038 0.37365 0.0327 0.0
C864 C 0.25189 0.35121 0.99923 0.0
H865 H 0.24709 0.39113 0.12493 0.0
H866 H 0.25142 0.39111 0.00729 0.0
C867 C 0.25103 0.32878 0.03288 0.0
C868 C 0.91976 0.99733 0.34834 0.0
C869 C 0.89734 0.99702 0.38215 0.0
H870 H 0.93722 0.00115 0.25613 0.0
C871 C 0.87492 0.99911 0.34883 0.0
H872 H 0.9372 0.9955 0.37357 0.0
C873 C 0.8749 0.0012 0.28196 0.0
C874 C 0.89733 0.00195 0.24827 0.0
H875 H 0.85746 0.99851 0.37434 0.0
H876 H 0.85744 0.00283 0.25671 0.0
C877 C 0.91977 0.00034 0.28168 0.0
C878 C 0.2501 0.6249 0.59896 0.0
C879 C 0.25166 0.64734 0.63244 0.0
H880 H 0.24677 0.60744 0.50673 0.0
C881 C 0.25081 0.66978 0.5988 0.0
H882 H 0.25112 0.60744 0.62436 0.0
C883 C 0.24779 0.66978 0.53215 0.0
C884 C 0.24669 0.64734 0.49857 0.0
H885 H 0.25224 0.68723 0.62417 0.0
H886 H 0.24655 0.68723 0.50674 0.0
C887 C 0.24799 0.6249 0.53209 0.0
C888 C 0.41969 0.99921 0.28215 0.0
C889 C 0.39726 0.99684 0.24902 0.0
H890 H 0.43711 0.00463 0.37382 0.0
C891 C 0.37488 0.99682 0.28295 0.0
H892 H 0.43711 0.99896 0.25639 0.0
C893 C 0.37494 0.99893 0.34982 0.0
C894 C 0.39733 0.0018 0.3829 0.0
H895 H 0.35745 0.99459 0.25789 0.0
H896 H 0.3575 0.99894 0.37552 0.0
C897 C 0.4197 0.00222 0.3488 0.0
C898 C 0.74874 0.62489 0.09987 0.0
C899 C 0.74684 0.64732 0.13326 0.0
H900 H 0.75233 0.60743 0.00771 0.0
C901 C 0.74729 0.66975 0.09951 0.0
H902 H 0.74802 0.60743 0.12535 0.0
C903 C 0.75029 0.66976 0.03285 0.0
C904 C 0.75175 0.64731 0.99938 0.0
H905 H 0.74561 0.68719 0.1248 0.0
H906 H 0.75125 0.68721 0.00736 0.0
C907 C 0.75082 0.62488 0.033 0.0
C908 C 0.07884 0.99594 0.84914 0.0
C909 C 0.10117 0.99674 0.88338 0.0
H910 H 0.06145 0.99889 0.75663 0.0
C911 C 0.12354 2e-05 0.85044 0.0
H912 H 0.06145 0.99323 0.87405 0.0
C913 C 0.12361 0.00214 0.78358 0.0
C914 C 0.10126 0.00172 0.74951 0.0
H915 H 0.14095 0.00031 0.87623 0.0
H916 H 0.14102 0.00468 0.75861 0.0
C917 C 0.07885 0.99896 0.78249 0.0
C918 C 0.75227 0.32882 0.59937 0.0
C919 C 0.75186 0.35117 0.6335 0.0
H920 H 0.74898 0.31142 0.50694 0.0
C921 C 0.74902 0.37358 0.60045 0.0
H922 H 0.75465 0.3114 0.62437 0.0
C923 C 0.74691 0.37365 0.53359 0.0
C924 C 0.74689 0.35127 0.49962 0.0
H925 H 0.74905 0.39101 0.62617 0.0
H926 H 0.74469 0.39108 0.50855 0.0
C927 C 0.74925 0.32883 0.53272 0.0
C928 C 0.12883 0.39217 0.16772 0.0
C929 C 0.13774 0.41491 0.14443 0.0
H930 H 0.13495 0.36116 0.22983 0.0
C931 C 0.16042 0.42382 0.16808 0.0
H932 H 0.11124 0.38492 0.15145 0.0
C933 C 0.17387 0.41034 0.21361 0.0
C934 C 0.16493 0.38765 0.23713 0.0
H935 H 0.16771 0.44141 0.15193 0.0
H936 H 0.19145 0.41761 0.22988 0.0
C937 C 0.14221 0.37876 0.21367 0.0
C938 C 0.8381 0.92393 0.46302 0.0
C939 C 0.86081 0.91502 0.48646 0.0
H940 H 0.80699 0.91772 0.40146 0.0
C941 C 0.86972 0.8923 0.463 0.0
H942 H 0.83082 0.94151 0.47929 0.0
C943 C 0.85629 0.8789 0.41711 0.0
C944 C 0.83353 0.88779 0.39389 0.0
H945 H 0.88733 0.88506 0.47911 0.0
H946 H 0.86354 0.86132 0.40084 0.0
C947 C 0.8246 0.91046 0.41755 0.0
C948 C 0.36985 0.60646 0.66771 0.0
C949 C 0.36096 0.58373 0.64432 0.0
H950 H 0.36367 0.63746 0.72983 0.0
C951 C 0.33826 0.57481 0.66781 0.0
H952 H 0.38746 0.61371 0.65157 0.0
C953 C 0.32477 0.58829 0.71327 0.0
C954 C 0.33368 0.61097 0.73688 0.0
H955 H 0.33099 0.55722 0.65158 0.0
H956 H 0.30717 0.58101 0.72941 0.0
C957 C 0.35643 0.61987 0.71359 0.0
C958 C 0.67372 0.08828 0.91751 0.0
C959 C 0.66482 0.11097 0.89394 0.0
H960 H 0.66751 0.05723 0.97922 0.0
C961 C 0.64209 0.11989 0.9173 0.0
H962 H 0.6913 0.08099 0.90131 0.0
C963 C 0.62868 0.1065 0.96323 0.0
C964 C 0.63756 0.08377 0.9866 0.0
H965 H 0.63486 0.13749 0.90109 0.0
H966 H 0.61109 0.11377 0.97944 0.0
C967 C 0.66024 0.07482 0.96302 0.0
C968 C 0.17353 0.58845 0.41777 0.0
C969 C 0.16461 0.61114 0.39426 0.0
H970 H 0.16736 0.55739 0.47948 0.0
C971 C 0.1419 0.62005 0.4177 0.0
H972 H 0.1911 0.58115 0.40151 0.0
C973 C 0.12851 0.60665 0.46366 0.0
C974 C 0.13741 0.58391 0.48699 0.0
H975 H 0.13465 0.63765 0.40154 0.0
H976 H 0.11092 0.61391 0.47994 0.0
C977 C 0.16008 0.57498 0.46332 0.0
C978 C 0.62856 0.8919 0.66697 0.0
C979 C 0.63742 0.91471 0.64406 0.0
H980 H 0.63471 0.86078 0.72871 0.0
C981 C 0.66004 0.92366 0.66805 0.0
H982 H 0.61102 0.88462 0.65042 0.0
C983 C 0.67347 0.91013 0.71354 0.0
C984 C 0.66458 0.88737 0.73665 0.0
H985 H 0.66729 0.9413 0.65222 0.0
H986 H 0.691 0.91744 0.73009 0.0
C987 C 0.64193 0.87844 0.71286 0.0
C988 C 0.3566 0.37855 0.91785 0.0
C989 C 0.33388 0.38746 0.89444 0.0
H990 H 0.38761 0.38472 0.97998 0.0
C991 C 0.32499 0.41018 0.91787 0.0
H992 H 0.36383 0.36093 0.90175 0.0
C993 C 0.33848 0.42368 0.96332 0.0
C994 C 0.36114 0.41474 0.98696 0.0
H995 H 0.30741 0.41747 0.90162 0.0
H996 H 0.33121 0.44128 0.97942 0.0
C997 C 0.37002 0.39198 0.96372 0.0
C998 C 0.85665 0.12008 0.21321 0.0
C999 C 0.83391 0.11117 0.23652 0.0
H1000 H 0.88766 0.11392 0.15111 0.0
C1001 C 0.82498 0.0885 0.21288 0.0
H1002 H 0.8639 0.13766 0.22947 0.0
C1003 C 0.83845 0.07504 0.16736 0.0
C1004 C 0.86115 0.08395 0.14385 0.0
H1005 H 0.80739 0.08122 0.22904 0.0
H1006 H 0.83117 0.05746 0.15111 0.0
C1007 C 0.87006 0.10668 0.16727 0.0
C1008 C 0.8385 0.57486 0.96486 0.0
C1009 C 0.86114 0.58377 0.98873 0.0
H1010 H 0.80753 0.5811 0.90288 0.0
C1011 C 0.87005 0.60655 0.96572 0.0
H1012 H 0.83122 0.55724 0.98079 0.0
C1013 C 0.85669 0.62001 0.91979 0.0
C1014 C 0.83401 0.61111 0.89608 0.0
H1015 H 0.88761 0.6138 0.98218 0.0
H1016 H 0.86394 0.63764 0.90384 0.0
C1017 C 0.82508 0.58839 0.91934 0.0
C1018 C 0.1601 0.07478 0.66918 0.0
C1019 C 0.13746 0.08372 0.64539 0.0
H1020 H 0.1911 0.08098 0.73109 0.0
C1021 C 0.12856 0.10648 0.66857 0.0
H1022 H 0.16738 0.05717 0.65313 0.0
C1023 C 0.14193 0.1199 0.71453 0.0
C1024 C 0.16463 0.11099 0.7381 0.0
H1025 H 0.11099 0.11374 0.65219 0.0
H1026 H 0.13469 0.13752 0.73059 0.0
C1027 C 0.17355 0.08827 0.71473 0.0
C1028 C 0.67366 0.41018 0.41962 0.0
C1029 C 0.66473 0.38749 0.39611 0.0
H1030 H 0.6675 0.44125 0.48131 0.0
C1031 C 0.64203 0.37858 0.41962 0.0
H1032 H 0.69123 0.41747 0.40331 0.0
C1033 C 0.62865 0.39198 0.4656 0.0
C1034 C 0.63755 0.41473 0.48888 0.0
H1035 H 0.63477 0.36097 0.40347 0.0
H1036 H 0.61107 0.38473 0.48191 0.0
C1037 C 0.66022 0.42366 0.46518 0.0
C1038 C 0.37002 0.89201 0.16839 0.0
C1039 C 0.36111 0.91474 0.14506 0.0
H1040 H 0.36386 0.861 0.2305 0.0
C1041 C 0.33844 0.92367 0.16868 0.0
H1042 H 0.3876 0.88475 0.15214 0.0
C1043 C 0.32497 0.9102 0.21421 0.0
C1044 C 0.33389 0.88751 0.23773 0.0
H1045 H 0.33116 0.94126 0.15252 0.0
H1046 H 0.3074 0.91749 0.23045 0.0
C1047 C 0.35661 0.8786 0.21433 0.0
C1048 C 0.82487 0.41022 0.715 0.0
C1049 C 0.83377 0.38755 0.73868 0.0
H1050 H 0.83111 0.44124 0.6532 0.0
C1051 C 0.85653 0.37863 0.71547 0.0
H1052 H 0.80728 0.41751 0.73109 0.0
C1053 C 0.86996 0.39201 0.66956 0.0
C1054 C 0.86107 0.41472 0.64605 0.0
H1055 H 0.86376 0.36105 0.73177 0.0
H1056 H 0.88757 0.38475 0.65345 0.0
C1057 C 0.83838 0.42367 0.6695 0.0
C1058 C 0.36979 0.1064 0.46427 0.0
C1059 C 0.36085 0.08373 0.48793 0.0
H1060 H 0.36363 0.13735 0.40197 0.0
C1061 C 0.33808 0.07487 0.46476 0.0
H1062 H 0.38745 0.1136 0.48017 0.0
C1063 C 0.32456 0.08835 0.41933 0.0
C1064 C 0.33353 0.11096 0.39545 0.0
H1065 H 0.33076 0.05734 0.48121 0.0
H1066 H 0.30691 0.08112 0.40344 0.0
C1067 C 0.35634 0.11981 0.41843 0.0
C1068 C 0.66048 0.57474 0.16946 0.0
C1069 C 0.63773 0.58364 0.14626 0.0
H1070 H 0.69166 0.58094 0.23078 0.0
C1071 C 0.62882 0.60632 0.16994 0.0
H1072 H 0.66777 0.55719 0.15301 0.0
C1073 C 0.64229 0.6197 0.21579 0.0
C1074 C 0.66509 0.61083 0.23875 0.0
H1075 H 0.61118 0.61354 0.15403 0.0
H1076 H 0.63503 0.63726 0.23223 0.0
C1077 C 0.67402 0.58819 0.21489 0.0
C1078 C 0.17389 0.91011 0.91942 0.0
C1079 C 0.16488 0.88754 0.89529 0.0
H1080 H 0.16773 0.94104 0.98159 0.0
C1081 C 0.14205 0.87871 0.91816 0.0
H1082 H 0.19155 0.91732 0.90364 0.0
C1083 C 0.12861 0.89208 0.96411 0.0
C1084 C 0.13759 0.9147 0.98799 0.0
H1085 H 0.13473 0.8612 0.90151 0.0
H1086 H 0.11093 0.8849 0.9799 0.0
C1087 C 0.16039 0.92355 0.96495 0.0
loop_
_geom_bond_atom_site_label_1
_geom_bond_atom_site_label_2
_geom_bond_distance
_geom_bond_site_symmetry_2
_ccdc_geom_bond_type
C0 O2 1.247 . S
C0 O4 1.258 . S
C1 O8 1.247 . S
C1 O9 1.258 . S
O2 C0 1.247 . S
O2 Zn3 2.028 . S
Zn3 O2 2.028 . S
Zn3 O7 2.035 1_554 S
Zn3 O9 2.035 . S
Zn3 O10 2.028 . S
O4 C0 1.258 . S
O4 Zn5 2.035 . S
Zn5 O4 2.035 . S
Zn5 O6 2.028 1_554 S
Zn5 O8 2.028 . S
Zn5 O11 2.035 . S
O6 Zn5 2.028 1_556 S
O6 C12 1.247 . S
O7 Zn3 2.035 1_556 S
O7 C12 1.258 . S
O8 C1 1.247 . S
O8 Zn5 2.028 . S
O9 C1 1.258 . S
O9 Zn3 2.035 . S
O10 Zn3 2.028 . S
O10 C13 1.247 . S
O11 Zn5 2.035 . S
O11 C13 1.258 . S
C12 O6 1.247 . S
C12 O7 1.258 . S
C13 O10 1.247 . S
C13 O11 1.258 . S
C14 O16 1.247 . S
C14 O18 1.258 . S
C15 O22 1.247 . S
C15 O23 1.258 . S
O16 C14 1.247 . S
O16 Zn17 2.028 . S
Zn17 O16 2.028 . S
Zn17 O21 2.035 . S
Zn17 O23 2.035 . S
Zn17 O24 2.028 . S
O18 C14 1.258 . S
O18 Zn19 2.035 . S
Zn19 O18 2.035 . S
Zn19 O20 2.028 . S
Zn19 O22 2.028 . S
Zn19 O25 2.035 . S
O20 Zn19 2.028 . S
O20 C26 1.247 . S
O21 Zn17 2.035 . S
O21 C26 1.258 . S
O22 C15 1.247 . S
O22 Zn19 2.028 . S
O23 C15 1.258 . S
O23 Zn17 2.035 . S
O24 Zn17 2.028 . S
O24 C27 1.247 . S
O25 Zn19 2.035 . S
O25 C27 1.258 . S
C26 O20 1.247 . S
C26 O21 1.258 . S
C27 O24 1.247 . S
C27 O25 1.258 . S
C28 O30 1.247 . S
C28 O32 1.258 . S
C29 O36 1.247 . S
C29 O37 1.258 . S
O30 C28 1.247 . S
O30 Zn31 2.028 . S
Zn31 O30 2.028 . S
Zn31 O35 2.035 . S
Zn31 O37 2.035 . S
Zn31 O38 2.028 . S
O32 C28 1.258 . S
O32 Zn33 2.035 . S
Zn33 O32 2.035 . S
Zn33 O34 2.028 . S
Zn33 O36 2.028 . S
Zn33 O39 2.035 . S
O34 Zn33 2.028 . S
O34 C40 1.247 . S
O35 Zn31 2.035 . S
O35 C40 1.258 . S
O36 C29 1.247 . S
O36 Zn33 2.028 . S
O37 C29 1.258 . S
O37 Zn31 2.035 . S
O38 Zn31 2.028 . S
O38 C41 1.247 . S
O39 Zn33 2.035 . S
O39 C41 1.258 . S
C40 O34 1.247 . S
C40 O35 1.258 . S
C41 O38 1.247 . S
C41 O39 1.258 . S
C42 O44 1.247 . S
C42 O46 1.258 . S
C43 O50 1.247 . S
C43 O51 1.258 . S
O44 C42 1.247 . S
O44 Zn45 2.028 . S
Zn45 O44 2.028 . S
Zn45 O49 2.035 . S
Zn45 O51 2.035 . S
Zn45 O52 2.028 . S
O46 C42 1.258 . S
O46 Zn47 2.035 . S
Zn47 O46 2.035 . S
Zn47 O48 2.028 . S
Zn47 O50 2.028 . S
Zn47 O53 2.035 . S
O48 Zn47 2.028 . S
O48 C54 1.247 . S
O49 Zn45 2.035 . S
O49 C54 1.258 . S
O50 C43 1.247 . S
O50 Zn47 2.028 . S
O51 C43 1.258 . S
O51 Zn45 2.035 . S
O52 Zn45 2.028 . S
O52 C55 1.247 . S
O53 Zn47 2.035 . S
O53 C55 1.258 . S
C54 O48 1.247 . S
C54 O49 1.258 . S
C55 O52 1.247 . S
C55 O53 1.258 . S
C56 O58 1.247 . S
C56 O60 1.258 . S
C57 O64 1.247 . S
C57 O65 1.258 . S
O58 C56 1.247 . S
O58 Zn59 2.028 . S
Zn59 O58 2.028 . S
Zn59 O63 2.035 . S
Zn59 O65 2.035 . S
Zn59 O66 2.028 . S
O60 C56 1.258 . S
O60 Zn61 2.035 . S
Zn61 O60 2.035 . S
Zn61 O62 2.028 . S
Zn61 O64 2.028 . S
Zn61 O67 2.035 . S
O62 Zn61 2.028 . S
O62 C68 1.247 . S
O63 Zn59 2.035 . S
O63 C68 1.258 . S
O64 C57 1.247 . S
O64 Zn61 2.028 . S
O65 C57 1.258 . S
O65 Zn59 2.035 . S
O66 Zn59 2.028 . S
O66 C69 1.247 . S
O67 Zn61 2.035 . S
O67 C69 1.258 . S
C68 O62 1.247 . S
C68 O63 1.258 . S
C69 O66 1.247 . S
C69 O67 1.258 . S
C70 O72 1.247 . S
C70 O74 1.258 . S
C71 O78 1.247 . S
C71 O79 1.258 . S
O72 C70 1.247 . S
O72 Zn73 2.028 . S
Zn73 O72 2.028 . S
Zn73 O77 2.035 . S
Zn73 O79 2.035 . S
Zn73 O80 2.028 . S
O74 C70 1.258 . S
O74 Zn75 2.035 . S
Zn75 O74 2.035 . S
Zn75 O76 2.028 . S
Zn75 O78 2.028 . S
Zn75 O81 2.035 . S
O76 Zn75 2.028 . S
O76 C82 1.247 . S
O77 Zn73 2.035 . S
O77 C82 1.258 . S
O78 C71 1.247 . S
O78 Zn75 2.028 . S
O79 C71 1.258 . S
O79 Zn73 2.035 . S
O80 Zn73 2.028 . S
O80 C83 1.247 . S
O81 Zn75 2.035 . S
O81 C83 1.258 . S
C82 O76 1.247 . S
C82 O77 1.258 . S
C83 O80 1.247 . S
C83 O81 1.258 . S
C84 O86 1.247 . S
C84 O88 1.258 . S
C85 O92 1.247 . S
C85 O93 1.258 . S
O86 C84 1.247 . S
O86 Zn87 2.028 . S
Zn87 O86 2.028 . S
Zn87 O91 2.035 . S
Zn87 O93 2.035 . S
Zn87 O94 2.028 1_554 S
O88 C84 1.258 . S
O88 Zn89 2.035 . S
Zn89 O88 2.035 . S
Zn89 O90 2.028 . S
Zn89 O92 2.028 . S
Zn89 O95 2.035 1_554 S
O90 Zn89 2.028 . S
O90 C96 1.247 . S
O91 Zn87 2.035 . S
O91 C96 1.258 . S
O92 C85 1.247 . S
O92 Zn89 2.028 . S
O93 C85 1.258 . S
O93 Zn87 2.035 . S
O94 Zn87 2.028 1_556 S
O94 C97 1.247 . S
O95 Zn89 2.035 1_556 S
O95 C97 1.258 . S
C96 O90 1.247 . S
C96 O91 1.258 . S
C97 O94 1.247 . S
C97 O95 1.258 . S
C98 O100 1.247 . S
C98 O102 1.258 . S
C99 O106 1.247 . S
C99 O107 1.258 . S
O100 C98 1.247 . S
O100 Zn101 2.028 . S
Zn101 O100 2.028 . S
Zn101 O105 2.035 . S
Zn101 O107 2.035 . S
Zn101 O108 2.028 . S
O102 C98 1.258 . S
O102 Zn103 2.035 . S
Zn103 O102 2.035 . S
Zn103 O104 2.028 . S
Zn103 O106 2.028 . S
Zn103 O109 2.035 . S
O104 Zn103 2.028 . S
O104 C110 1.247 . S
O105 Zn101 2.035 . S
O105 C110 1.258 . S
O106 C99 1.247 . S
O106 Zn103 2.028 . S
O107 C99 1.258 . S
O107 Zn101 2.035 . S
O108 Zn101 2.028 . S
O108 C111 1.247 . S
O109 Zn103 2.035 . S
O109 C111 1.258 . S
C110 O104 1.247 . S
C110 O105 1.258 . S
C111 O108 1.247 . S
C111 O109 1.258 . S
C112 O114 1.247 . S
C112 O116 1.258 . S
C113 O120 1.247 . S
C113 O121 1.258 . S
O114 C112 1.247 . S
O114 Zn115 2.028 1_556 S
Zn115 O114 2.028 1_554 S
Zn115 O119 2.035 . S
Zn115 O121 2.035 . S
Zn115 O122 2.028 . S
O116 C112 1.258 . S
O116 Zn117 2.035 1_556 S
Zn117 O116 2.035 1_554 S
Zn117 O118 2.028 . S
Zn117 O120 2.028 . S
Zn117 O123 2.035 . S
O118 Zn117 2.028 . S
O118 C124 1.247 . S
O119 Zn115 2.035 . S
O119 C124 1.258 . S
O120 C113 1.247 . S
O120 Zn117 2.028 . S
O121 C113 1.258 . S
O121 Zn115 2.035 . S
O122 Zn115 2.028 . S
O122 C125 1.247 . S
O123 Zn117 2.035 . S
O123 C125 1.258 . S
C124 O118 1.247 . S
C124 O119 1.258 . S
C125 O122 1.247 . S
C125 O123 1.258 . S
C126 O128 1.247 . S
C126 O130 1.258 . S
C127 O134 1.247 . S
C127 O135 1.258 . S
O128 C126 1.247 . S
O128 Zn129 2.028 . S
Zn129 O128 2.028 . S
Zn129 O133 2.035 . S
Zn129 O135 2.035 . S
Zn129 O136 2.028 . S
O130 C126 1.258 . S
O130 Zn131 2.035 . S
Zn131 O130 2.035 . S
Zn131 O132 2.028 . S
Zn131 O134 2.028 . S
Zn131 O137 2.035 . S
O132 Zn131 2.028 . S
O132 C138 1.247 . S
O133 Zn129 2.035 . S
O133 C138 1.258 . S
O134 C127 1.247 . S
O134 Zn131 2.028 . S
O135 C127 1.258 . S
O135 Zn129 2.035 . S
O136 Zn129 2.028 . S
O136 C139 1.247 . S
O137 Zn131 2.035 . S
O137 C139 1.258 . S
C138 O132 1.247 . S
C138 O133 1.258 . S
C139 O136 1.247 . S
C139 O137 1.258 . S
C140 O142 1.247 . S
C140 O144 1.258 . S
C141 O148 1.247 . S
C141 O149 1.258 . S
O142 C140 1.247 . S
O142 Zn143 2.028 . S
Zn143 O142 2.028 . S
Zn143 O147 2.035 . S
Zn143 O149 2.035 . S
Zn143 O150 2.028 . S
O144 C140 1.258 . S
O144 Zn145 2.035 . S
Zn145 O144 2.035 . S
Zn145 O146 2.028 . S
Zn145 O148 2.028 . S
Zn145 O151 2.035 . S
O146 Zn145 2.028 . S
O146 C152 1.247 . S
O147 Zn143 2.035 . S
O147 C152 1.258 . S
O148 C141 1.247 . S
O148 Zn145 2.028 . S
O149 C141 1.258 . S
O149 Zn143 2.035 . S
O150 Zn143 2.028 . S
O150 C153 1.247 . S
O151 Zn145 2.035 . S
O151 C153 1.258 . S
C152 O146 1.247 . S
C152 O147 1.258 . S
C153 O150 1.247 . S
C153 O151 1.258 . S
C154 O156 1.247 . S
C154 O158 1.258 . S
C155 O162 1.247 . S
C155 O163 1.258 . S
O156 C154 1.247 . S
O156 Zn157 2.028 . S
Zn157 O156 2.028 . S
Zn157 O161 2.035 . S
Zn157 O163 2.035 . S
Zn157 O164 2.028 . S
O158 C154 1.258 . S
O158 Zn159 2.035 . S
Zn159 O158 2.035 . S
Zn159 O160 2.028 . S
Zn159 O162 2.028 . S
Zn159 O165 2.035 . S
O160 Zn159 2.028 . S
O160 C166 1.247 . S
O161 Zn157 2.035 . S
O161 C166 1.258 . S
O162 C155 1.247 . S
O162 Zn159 2.028 . S
O163 C155 1.258 . S
O163 Zn157 2.035 . S
O164 Zn157 2.028 . S
O164 C167 1.247 . S
O165 Zn159 2.035 . S
O165 C167 1.258 . S
C166 O160 1.247 . S
C166 O161 1.258 . S
C167 O164 1.247 . S
C167 O165 1.258 . S
C168 O170 1.247 . S
C168 O172 1.258 . S
C169 O176 1.247 . S
C169 O177 1.258 . S
O170 C168 1.247 . S
O170 Zn171 2.028 . S
Zn171 O170 2.028 . S
Zn171 O175 2.035 . S
Zn171 O177 2.035 . S
Zn171 O178 2.028 . S
O172 C168 1.258 . S
O172 Zn173 2.035 . S
Zn173 O172 2.035 . S
Zn173 O174 2.028 . S
Zn173 O176 2.028 . S
Zn173 O179 2.035 . S
O174 Zn173 2.028 . S
O174 C180 1.247 . S
O175 Zn171 2.035 . S
O175 C180 1.258 . S
O176 C169 1.247 . S
O176 Zn173 2.028 . S
O177 C169 1.258 . S
O177 Zn171 2.035 . S
O178 Zn171 2.028 . S
O178 C181 1.247 . S
O179 Zn173 2.035 . S
O179 C181 1.258 . S
C180 O174 1.247 . S
C180 O175 1.258 . S
C181 O178 1.247 . S
C181 O179 1.258 . S
C182 O184 1.247 . S
C182 O186 1.258 . S
C183 O190 1.247 . S
C183 O191 1.258 . S
O184 C182 1.247 . S
O184 Zn185 2.028 . S
Zn185 O184 2.028 . S
Zn185 O189 2.035 . S
Zn185 O191 2.035 . S
Zn185 O192 2.028 . S
O186 C182 1.258 . S
O186 Zn187 2.035 . S
Zn187 O186 2.035 . S
Zn187 O188 2.028 . S
Zn187 O190 2.028 . S
Zn187 O193 2.035 . S
O188 Zn187 2.028 . S
O188 C194 1.247 . S
O189 Zn185 2.035 . S
O189 C194 1.258 . S
O190 C183 1.247 . S
O190 Zn187 2.028 . S
O191 C183 1.258 . S
O191 Zn185 2.035 . S
O192 Zn185 2.028 . S
O192 C195 1.247 . S
O193 Zn187 2.035 . S
O193 C195 1.258 . S
C194 O188 1.247 . S
C194 O189 1.258 . S
C195 O192 1.247 . S
C195 O193 1.258 . S
C196 O198 1.247 . S
C196 O200 1.258 . S
C197 O204 1.247 . S
C197 O205 1.258 . S
O198 C196 1.247 . S
O198 Zn199 2.028 1_556 S
Zn199 O198 2.028 1_554 S
Zn199 O203 2.035 . S
Zn199 O205 2.035 . S
Zn199 O206 2.028 . S
O200 C196 1.258 . S
O200 Zn201 2.035 1_556 S
Zn201 O200 2.035 1_554 S
Zn201 O202 2.028 . S
Zn201 O204 2.028 . S
Zn201 O207 2.035 . S
O202 Zn201 2.028 . S
O202 C208 1.247 . S
O203 Zn199 2.035 . S
O203 C208 1.258 . S
O204 C197 1.247 . S
O204 Zn201 2.028 . S
O205 C197 1.258 . S
O205 Zn199 2.035 . S
O206 Zn199 2.028 . S
O206 C209 1.247 . S
O207 Zn201 2.035 . S
O207 C209 1.258 . S
C208 O202 1.247 . S
C208 O203 1.258 . S
C209 O206 1.247 . S
C209 O207 1.258 . S
C210 O212 1.247 . S
C210 O214 1.258 . S
C211 O218 1.247 . S
C211 O219 1.258 . S
O212 C210 1.247 . S
O212 Zn213 2.028 . S
Zn213 O212 2.028 . S
Zn213 O217 2.035 . S
Zn213 O219 2.035 . S
Zn213 O220 2.028 . S
O214 C210 1.258 . S
O214 Zn215 2.035 . S
Zn215 O214 2.035 . S
Zn215 O216 2.028 . S
Zn215 O218 2.028 . S
Zn215 O221 2.035 . S
O216 Zn215 2.028 . S
O216 C222 1.247 . S
O217 Zn213 2.035 . S
O217 C222 1.258 . S
O218 C211 1.247 . S
O218 Zn215 2.028 . S
O219 C211 1.258 . S
O219 Zn213 2.035 . S
O220 Zn213 2.028 . S
O220 C223 1.247 . S
O221 Zn215 2.035 . S
O221 C223 1.258 . S
C222 O216 1.247 . S
C222 O217 1.258 . S
C223 O220 1.247 . S
C223 O221 1.258 . S
C224 O226 1.247 . S
C224 O228 1.258 1_545 S
C225 O232 1.247 . S
C225 O233 1.258 . S
O226 C224 1.247 . S
O226 Zn227 2.028 . S
Zn227 O226 2.028 . S
Zn227 O231 2.035 . S
Zn227 O233 2.035 1_545 S
Zn227 O234 2.028 . S
O228 C224 1.258 1_565 S
O228 Zn229 2.035 . S
Zn229 O228 2.035 . S
Zn229 O230 2.028 . S
Zn229 O232 2.028 . S
Zn229 O235 2.035 . S
O230 Zn229 2.028 . S
O230 C236 1.247 . S
O231 Zn227 2.035 . S
O231 C236 1.258 1_545 S
O232 C225 1.247 . S
O232 Zn229 2.028 . S
O233 C225 1.258 . S
O233 Zn227 2.035 1_565 S
O234 Zn227 2.028 . S
O234 C237 1.247 1_545 S
O235 Zn229 2.035 . S
O235 C237 1.258 . S
C236 O230 1.247 . S
C236 O231 1.258 1_565 S
C237 O234 1.247 1_565 S
C237 O235 1.258 . S
C238 O240 1.247 . S
C238 O242 1.258 . S
C239 O246 1.247 . S
C239 O247 1.258 . S
O240 C238 1.247 . S
O240 Zn241 2.028 . S
Zn241 O240 2.028 . S
Zn241 O245 2.035 . S
Zn241 O247 2.035 . S
Zn241 O248 2.028 . S
O242 C238 1.258 . S
O242 Zn243 2.035 . S
Zn243 O242 2.035 . S
Zn243 O244 2.028 . S
Zn243 O246 2.028 . S
Zn243 O249 2.035 . S
O244 Zn243 2.028 . S
O244 C250 1.247 . S
O245 Zn241 2.035 . S
O245 C250 1.258 . S
O246 C239 1.247 . S
O246 Zn243 2.028 . S
O247 C239 1.258 . S
O247 Zn241 2.035 . S
O248 Zn241 2.028 . S
O248 C251 1.247 . S
O249 Zn243 2.035 . S
O249 C251 1.258 . S
C250 O244 1.247 . S
C250 O245 1.258 . S
C251 O248 1.247 . S
C251 O249 1.258 . S
C252 O254 1.247 . S
C252 O256 1.258 1_545 S
C253 O260 1.247 1_545 S
C253 O261 1.258 . S
O254 C252 1.247 . S
O254 Zn255 2.028 1_556 S
Zn255 O254 2.028 1_554 S
Zn255 O259 2.035 . S
Zn255 O261 2.035 . S
Zn255 O262 2.028 . S
O256 C252 1.258 1_565 S
O256 Zn257 2.035 1_556 S
Zn257 O256 2.035 1_554 S
Zn257 O258 2.028 1_565 S
Zn257 O260 2.028 . S
Zn257 O263 2.035 . S
O258 Zn257 2.028 1_545 S
O258 C264 1.247 . S
O259 Zn255 2.035 . S
O259 C264 1.258 . S
O260 C253 1.247 1_565 S
O260 Zn257 2.028 . S
O261 C253 1.258 . S
O261 Zn255 2.035 . S
O262 Zn255 2.028 . S
O262 C265 1.247 1_545 S
O263 Zn257 2.035 . S
O263 C265 1.258 . S
C264 O258 1.247 . S
C264 O259 1.258 . S
C265 O262 1.247 1_565 S
C265 O263 1.258 . S
C266 O268 1.247 . S
C266 O270 1.258 . S
C267 O274 1.247 . S
C267 O275 1.258 . S
O268 C266 1.247 . S
O268 Zn269 2.028 . S
Zn269 O268 2.028 . S
Zn269 O273 2.035 . S
Zn269 O275 2.035 . S
Zn269 O276 2.028 . S
O270 C266 1.258 . S
O270 Zn271 2.035 . S
Zn271 O270 2.035 . S
Zn271 O272 2.028 . S
Zn271 O274 2.028 . S
Zn271 O277 2.035 . S
O272 Zn271 2.028 . S
O272 C278 1.247 . S
O273 Zn269 2.035 . S
O273 C278 1.258 . S
O274 C267 1.247 . S
O274 Zn271 2.028 . S
O275 C267 1.258 . S
O275 Zn269 2.035 . S
O276 Zn269 2.028 . S
O276 C279 1.247 . S
O277 Zn271 2.035 . S
O277 C279 1.258 . S
C278 O272 1.247 . S
C278 O273 1.258 . S
C279 O276 1.247 . S
C279 O277 1.258 . S
C280 O282 1.247 . S
C280 O284 1.258 1_565 S
C281 O288 1.247 . S
C281 O289 1.258 . S
O282 C280 1.247 . S
O282 Zn283 2.028 . S
Zn283 O282 2.028 . S
Zn283 O287 2.035 1_554 S
Zn283 O289 2.035 1_565 S
Zn283 O290 2.028 . S
O284 C280 1.258 1_545 S
O284 Zn285 2.035 . S
Zn285 O284 2.035 . S
Zn285 O286 2.028 1_554 S
Zn285 O288 2.028 . S
Zn285 O291 2.035 . S
O286 Zn285 2.028 1_556 S
O286 C292 1.247 . S
O287 Zn283 2.035 1_556 S
O287 C292 1.258 1_565 S
O288 C281 1.247 . S
O288 Zn285 2.028 . S
O289 C281 1.258 . S
O289 Zn283 2.035 1_545 S
O290 Zn283 2.028 . S
O290 C293 1.247 1_565 S
O291 Zn285 2.035 . S
O291 C293 1.258 . S
C292 O286 1.247 . S
C292 O287 1.258 1_545 S
C293 O290 1.247 1_545 S
C293 O291 1.258 . S
C294 O296 1.247 . S
C294 O298 1.258 . S
C295 O302 1.247 . S
C295 O303 1.258 . S
O296 C294 1.247 . S
O296 Zn297 2.028 . S
Zn297 O296 2.028 . S
Zn297 O301 2.035 . S
Zn297 O303 2.035 . S
Zn297 O304 2.028 . S
O298 C294 1.258 . S
O298 Zn299 2.035 . S
Zn299 O298 2.035 . S
Zn299 O300 2.028 . S
Zn299 O302 2.028 . S
Zn299 O305 2.035 . S
O300 Zn299 2.028 . S
O300 C306 1.247 . S
O301 Zn297 2.035 . S
O301 C306 1.258 . S
O302 C295 1.247 . S
O302 Zn299 2.028 . S
O303 C295 1.258 . S
O303 Zn297 2.035 . S
O304 Zn297 2.028 . S
O304 C307 1.247 . S
O305 Zn299 2.035 . S
O305 C307 1.258 . S
C306 O300 1.247 . S
C306 O301 1.258 . S
C307 O304 1.247 . S
C307 O305 1.258 . S
C308 O310 1.247 . S
C308 O312 1.258 1_565 S
C309 O316 1.247 1_565 S
C309 O317 1.258 . S
O310 C308 1.247 . S
O310 Zn311 2.028 . S
Zn311 O310 2.028 . S
Zn311 O315 2.035 . S
Zn311 O317 2.035 . S
Zn311 O318 2.028 . S
O312 C308 1.258 1_545 S
O312 Zn313 2.035 . S
Zn313 O312 2.035 . S
Zn313 O314 2.028 1_545 S
Zn313 O316 2.028 . S
Zn313 O319 2.035 . S
O314 Zn313 2.028 1_565 S
O314 C320 1.247 . S
O315 Zn311 2.035 . S
O315 C320 1.258 . S
O316 C309 1.247 1_545 S
O316 Zn313 2.028 . S
O317 C309 1.258 . S
O317 Zn311 2.035 . S
O318 Zn311 2.028 . S
O318 C321 1.247 1_565 S
O319 Zn313 2.035 . S
O319 C321 1.258 . S
C320 O314 1.247 . S
C320 O315 1.258 . S
C321 O318 1.247 1_545 S
C321 O319 1.258 . S
C322 O324 1.247 . S
C322 O326 1.258 . S
C323 O330 1.247 . S
C323 O331 1.258 . S
O324 C322 1.247 . S
O324 Zn325 2.028 . S
Zn325 O324 2.028 . S
Zn325 O329 2.035 . S
Zn325 O331 2.035 . S
Zn325 O332 2.028 . S
O326 C322 1.258 . S
O326 Zn327 2.035 . S
Zn327 O326 2.035 . S
Zn327 O328 2.028 . S
Zn327 O330 2.028 . S
Zn327 O333 2.035 . S
O328 Zn327 2.028 . S
O328 C334 1.247 . S
O329 Zn325 2.035 . S
O329 C334 1.258 . S
O330 C323 1.247 . S
O330 Zn327 2.028 . S
O331 C323 1.258 . S
O331 Zn325 2.035 . S
O332 Zn325 2.028 . S
O332 C335 1.247 . S
O333 Zn327 2.035 . S
O333 C335 1.258 . S
C334 O328 1.247 . S
C334 O329 1.258 . S
C335 O332 1.247 . S
C335 O333 1.258 . S
C336 O338 1.247 . S
C336 O340 1.258 . S
C337 O344 1.247 . S
C337 O345 1.258 1_565 S
O338 C336 1.247 . S
O338 Zn339 2.028 . S
Zn339 O338 2.028 . S
Zn339 O343 2.035 . S
Zn339 O345 2.035 . S
Zn339 O346 2.028 . S
O340 C336 1.258 . S
O340 Zn341 2.035 1_545 S
Zn341 O340 2.035 1_565 S
Zn341 O342 2.028 . S
Zn341 O344 2.028 . S
Zn341 O347 2.035 . S
O342 Zn341 2.028 . S
O342 C348 1.247 1_565 S
O343 Zn339 2.035 . S
O343 C348 1.258 . S
O344 C337 1.247 . S
O344 Zn341 2.028 . S
O345 C337 1.258 1_545 S
O345 Zn339 2.035 . S
O346 Zn339 2.028 . S
O346 C349 1.247 . S
O347 Zn341 2.035 . S
O347 C349 1.258 1_565 S
C348 O342 1.247 1_545 S
C348 O343 1.258 . S
C349 O346 1.247 . S
C349 O347 1.258 1_545 S
C350 O352 1.247 . S
C350 O354 1.258 . S
C351 O358 1.247 . S
C351 O359 1.258 . S
O352 C350 1.247 . S
O352 Zn353 2.028 . S
Zn353 O352 2.028 . S
Zn353 O357 2.035 . S
Zn353 O359 2.035 . S
Zn353 O360 2.028 . S
O354 C350 1.258 . S
O354 Zn355 2.035 . S
Zn355 O354 2.035 . S
Zn355 O356 2.028 . S
Zn355 O358 2.028 . S
Zn355 O361 2.035 . S
O356 Zn355 2.028 . S
O356 C362 1.247 . S
O357 Zn353 2.035 . S
O357 C362 1.258 . S
O358 C351 1.247 . S
O358 Zn355 2.028 . S
O359 C351 1.258 . S
O359 Zn353 2.035 . S
O360 Zn353 2.028 . S
O360 C363 1.247 . S
O361 Zn355 2.035 . S
O361 C363 1.258 . S
C362 O356 1.247 . S
C362 O357 1.258 . S
C363 O360 1.247 . S
C363 O361 1.258 . S
C364 O366 1.247 . S
C364 O368 1.258 . S
C365 O372 1.247 . S
C365 O373 1.258 1_545 S
O366 C364 1.247 . S
O366 Zn367 2.028 . S
Zn367 O366 2.028 . S
Zn367 O371 2.035 . S
Zn367 O373 2.035 . S
Zn367 O374 2.028 1_554 S
O368 C364 1.258 . S
O368 Zn369 2.035 1_565 S
Zn369 O368 2.035 1_545 S
Zn369 O370 2.028 . S
Zn369 O372 2.028 . S
Zn369 O375 2.035 1_554 S
O370 Zn369 2.028 . S
O370 C376 1.247 1_545 S
O371 Zn367 2.035 . S
O371 C376 1.258 . S
O372 C365 1.247 . S
O372 Zn369 2.028 . S
O373 C365 1.258 1_565 S
O373 Zn367 2.035 . S
O374 Zn367 2.028 1_556 S
O374 C377 1.247 . S
O375 Zn369 2.035 1_556 S
O375 C377 1.258 1_545 S
C376 O370 1.247 1_565 S
C376 O371 1.258 . S
C377 O374 1.247 . S
C377 O375 1.258 1_565 S
C378 O380 1.247 . S
C378 O382 1.258 . S
C379 O386 1.247 . S
C379 O387 1.258 . S
O380 C378 1.247 . S
O380 Zn381 2.028 . S
Zn381 O380 2.028 . S
Zn381 O385 2.035 . S
Zn381 O387 2.035 . S
Zn381 O388 2.028 . S
O382 C378 1.258 . S
O382 Zn383 2.035 . S
Zn383 O382 2.035 . S
Zn383 O384 2.028 . S
Zn383 O386 2.028 . S
Zn383 O389 2.035 . S
O384 Zn383 2.028 . S
O384 C390 1.247 . S
O385 Zn381 2.035 . S
O385 C390 1.258 . S
O386 C379 1.247 . S
O386 Zn383 2.028 . S
O387 C379 1.258 . S
O387 Zn381 2.035 . S
O388 Zn381 2.028 . S
O388 C391 1.247 . S
O389 Zn383 2.035 . S
O389 C391 1.258 . S
C390 O384 1.247 . S
C390 O385 1.258 . S
C391 O388 1.247 . S
C391 O389 1.258 . S
C392 O394 1.247 1_565 S
C392 O396 1.258 . S
C393 O400 1.247 . S
C393 O401 1.258 1_565 S
O394 C392 1.247 1_545 S
O394 Zn395 2.028 . S
Zn395 O394 2.028 . S
Zn395 O399 2.035 . S
Zn395 O401 2.035 1_554 S
Zn395 O402 2.028 1_545 S
O396 C392 1.258 . S
O396 Zn397 2.035 . S
Zn397 O396 2.035 . S
Zn397 O398 2.028 . S
Zn397 O400 2.028 1_554 S
Zn397 O403 2.035 . S
O398 Zn397 2.028 . S
O398 C404 1.247 1_565 S
O399 Zn395 2.035 . S
O399 C404 1.258 . S
O400 C393 1.247 . S
O400 Zn397 2.028 1_556 S
O401 C393 1.258 1_545 S
O401 Zn395 2.035 1_556 S
O402 Zn395 2.028 1_565 S
O402 C405 1.247 . S
O403 Zn397 2.035 . S
O403 C405 1.258 . S
C404 O398 1.247 1_545 S
C404 O399 1.258 . S
C405 O402 1.247 . S
C405 O403 1.258 . S
C406 O408 1.247 . S
C406 O410 1.258 . S
C407 O414 1.247 . S
C407 O415 1.258 . S
O408 C406 1.247 . S
O408 Zn409 2.028 . S
Zn409 O408 2.028 . S
Zn409 O413 2.035 . S
Zn409 O415 2.035 . S
Zn409 O416 2.028 . S
O410 C406 1.258 . S
O410 Zn411 2.035 . S
Zn411 O410 2.035 . S
Zn411 O412 2.028 . S
Zn411 O414 2.028 . S
Zn411 O417 2.035 . S
O412 Zn411 2.028 . S
O412 C418 1.247 . S
O413 Zn409 2.035 . S
O413 C418 1.258 . S
O414 C407 1.247 . S
O414 Zn411 2.028 . S
O415 C407 1.258 . S
O415 Zn409 2.035 . S
O416 Zn409 2.028 . S
O416 C419 1.247 . S
O417 Zn411 2.035 . S
O417 C419 1.258 . S
C418 O412 1.247 . S
C418 O413 1.258 . S
C419 O416 1.247 . S
C419 O417 1.258 . S
C420 O422 1.247 1_545 S
C420 O424 1.258 . S
C421 O428 1.247 . S
C421 O429 1.258 1_545 S
O422 C420 1.247 1_565 S
O422 Zn423 2.028 . S
Zn423 O422 2.028 . S
Zn423 O427 2.035 . S
Zn423 O429 2.035 . S
Zn423 O430 2.028 1_565 S
O424 C420 1.258 . S
O424 Zn425 2.035 . S
Zn425 O424 2.035 . S
Zn425 O426 2.028 . S
Zn425 O428 2.028 . S
Zn425 O431 2.035 . S
O426 Zn425 2.028 . S
O426 C432 1.247 1_545 S
O427 Zn423 2.035 . S
O427 C432 1.258 . S
O428 C421 1.247 . S
O428 Zn425 2.028 . S
O429 C421 1.258 1_565 S
O429 Zn423 2.035 . S
O430 Zn423 2.028 1_545 S
O430 C433 1.247 . S
O431 Zn425 2.035 . S
O431 C433 1.258 . S
C432 O426 1.247 1_565 S
C432 O427 1.258 . S
C433 O430 1.247 . S
C433 O431 1.258 . S
C434 O436 1.247 . S
C434 O438 1.258 . S
C435 O442 1.247 . S
C435 O443 1.258 . S
O436 C434 1.247 . S
O436 Zn437 2.028 . S
Zn437 O436 2.028 . S
Zn437 O441 2.035 . S
Zn437 O443 2.035 . S
Zn437 O444 2.028 . S
O438 C434 1.258 . S
O438 Zn439 2.035 . S
Zn439 O438 2.035 . S
Zn439 O440 2.028 . S
Zn439 O442 2.028 . S
Zn439 O445 2.035 . S
O440 Zn439 2.028 . S
O440 C446 1.247 . S
O441 Zn437 2.035 . S
O441 C446 1.258 . S
O442 C435 1.247 . S
O442 Zn439 2.028 . S
O443 C435 1.258 . S
O443 Zn437 2.035 . S
O444 Zn437 2.028 . S
O444 C447 1.247 . S
O445 Zn439 2.035 . S
O445 C447 1.258 . S
C446 O440 1.247 . S
C446 O441 1.258 . S
C447 O444 1.247 . S
C447 O445 1.258 . S
C448 C449 1.387 . S
C448 H452 0.950 . S
C448 C457 1.390 1_655 S
C449 C448 1.387 . S
C449 C451 1.387 . S
H450 C457 0.950 . S
C451 C449 1.387 . S
C451 C453 1.390 1_655 S
C451 H455 0.950 1_554 S
H452 C448 0.950 . S
C453 C451 1.390 1_455 S
C453 C454 1.387 . S
C453 H456 0.950 1_554 S
C454 C453 1.387 . S
C454 C457 1.387 . S
H455 C451 0.950 1_556 S
H456 C453 0.950 1_556 S
C457 C448 1.390 1_455 S
C457 H450 0.950 . S
C457 C454 1.387 . S
C458 C459 1.387 . S
C458 H462 0.950 . S
C458 C467 1.390 . S
C459 C458 1.387 . S
C459 C461 1.387 . S
H460 C467 0.950 . S
C461 C459 1.387 . S
C461 C463 1.390 . S
C461 H465 0.950 . S
H462 C458 0.950 . S
C463 C461 1.390 . S
C463 C464 1.387 . S
C463 H466 0.950 . S
C464 C463 1.387 . S
C464 C467 1.387 . S
H465 C461 0.950 . S
H466 C463 0.950 . S
C467 C458 1.390 . S
C467 H460 0.950 . S
C467 C464 1.387 . S
C468 C469 1.387 . S
C468 H472 0.950 . S
C468 C477 1.390 . S
C469 C468 1.387 . S
C469 C471 1.387 . S
H470 C477 0.950 . S
C471 C469 1.387 . S
C471 C473 1.390 . S
C471 H475 0.950 . S
H472 C468 0.950 . S
C473 C471 1.390 . S
C473 C474 1.387 . S
C473 H476 0.950 . S
C474 C473 1.387 . S
C474 C477 1.387 . S
H475 C471 0.950 . S
H476 C473 0.950 . S
C477 C468 1.390 . S
C477 H470 0.950 . S
C477 C474 1.387 . S
C478 C479 1.387 . S
C478 H482 0.950 . S
C478 C487 1.390 . S
C479 C478 1.387 . S
C479 C481 1.387 . S
H480 C487 0.950 . S
C481 C479 1.387 . S
C481 C483 1.390 . S
C481 H485 0.950 . S
H482 C478 0.950 . S
C483 C481 1.390 . S
C483 C484 1.387 . S
C483 H486 0.950 . S
C484 C483 1.387 . S
C484 C487 1.387 . S
H485 C481 0.950 . S
H486 C483 0.950 . S
C487 C478 1.390 . S
C487 H480 0.950 . S
C487 C484 1.387 . S
C488 C489 1.387 . S
C488 H492 0.950 . S
C488 C497 1.390 1_455 S
C489 C488 1.387 . S
C489 C491 1.387 . S
H490 C497 0.950 . S
C491 C489 1.387 . S
C491 C493 1.390 1_455 S
C491 H495 0.950 . S
H492 C488 0.950 . S
C493 C491 1.390 1_655 S
C493 C494 1.387 . S
C493 H496 0.950 . S
C494 C493 1.387 . S
C494 C497 1.387 . S
H495 C491 0.950 . S
H496 C493 0.950 . S
C497 C488 1.390 1_655 S
C497 H490 0.950 . S
C497 C494 1.387 . S
C498 C499 1.387 . S
C498 H502 0.950 . S
C498 C507 1.390 . S
C499 C498 1.387 . S
C499 C501 1.387 . S
H500 C507 0.950 . S
C501 C499 1.387 . S
C501 C503 1.390 . S
C501 H505 0.950 . S
H502 C498 0.950 . S
C503 C501 1.390 . S
C503 C504 1.387 . S
C503 H506 0.950 . S
C504 C503 1.387 . S
C504 C507 1.387 . S
H505 C501 0.950 . S
H506 C503 0.950 . S
C507 C498 1.390 . S
C507 H500 0.950 . S
C507 C504 1.387 . S
C508 C509 1.387 . S
C508 H512 0.950 1_554 S
C508 C517 1.390 . S
C509 C508 1.387 . S
C509 C511 1.387 . S
H510 C517 0.950 1_556 S
C511 C509 1.387 . S
C511 C513 1.390 . S
C511 H515 0.950 . S
H512 C508 0.950 1_556 S
C513 C511 1.390 . S
C513 C514 1.387 . S
C513 H516 0.950 . S
C514 C513 1.387 . S
C514 C517 1.387 . S
H515 C511 0.950 . S
H516 C513 0.950 . S
C517 C508 1.390 . S
C517 H510 0.950 1_554 S
C517 C514 1.387 . S
C518 C519 1.387 . S
C518 H522 0.950 . S
C518 C527 1.390 . S
C519 C518 1.387 . S
C519 C521 1.387 . S
H520 C527 0.950 . S
C521 C519 1.387 . S
C521 C523 1.390 . S
C521 H525 0.950 . S
H522 C518 0.950 . S
C523 C521 1.390 . S
C523 C524 1.387 . S
C523 H526 0.950 . S
C524 C523 1.387 . S
C524 C527 1.387 . S
H525 C521 0.950 . S
H526 C523 0.950 . S
C527 C518 1.390 . S
C527 H520 0.950 . S
C527 C524 1.387 . S
C528 C529 1.387 . S
C528 H532 0.950 . S
C528 C537 1.390 . S
C529 C528 1.387 . S
C529 C531 1.387 . S
H530 C537 0.950 . S
C531 C529 1.387 . S
C531 C533 1.390 . S
C531 H535 0.950 . S
H532 C528 0.950 . S
C533 C531 1.390 . S
C533 C534 1.387 . S
C533 H536 0.950 . S
C534 C533 1.387 . S
C534 C537 1.387 . S
H535 C531 0.950 . S
H536 C533 0.950 . S
C537 C528 1.390 . S
C537 H530 0.950 . S
C537 C534 1.387 . S
C538 C539 1.387 . S
C538 H542 0.950 . S
C538 C547 1.390 . S
C539 C538 1.387 . S
C539 C541 1.387 . S
H540 C547 0.950 . S
C541 C539 1.387 . S
C541 C543 1.390 . S
C541 H545 0.950 . S
H542 C538 0.950 . S
C543 C541 1.390 . S
C543 C544 1.387 . S
C543 H546 0.950 . S
C544 C543 1.387 . S
C544 C547 1.387 . S
H545 C541 0.950 . S
H546 C543 0.950 . S
C547 C538 1.390 . S
C547 H540 0.950 . S
C547 C544 1.387 . S
C548 C549 1.387 . S
C548 H552 0.950 . S
C548 C557 1.390 . S
C549 C548 1.387 . S
C549 C551 1.387 . S
H550 C557 0.950 . S
C551 C549 1.387 . S
C551 C553 1.390 . S
C551 H555 0.950 . S
H552 C548 0.950 . S
C553 C551 1.390 . S
C553 C554 1.387 . S
C553 H556 0.950 . S
C554 C553 1.387 . S
C554 C557 1.387 . S
H555 C551 0.950 . S
H556 C553 0.950 . S
C557 C548 1.390 . S
C557 H550 0.950 . S
C557 C554 1.387 . S
C558 C559 1.387 . S
C558 H562 0.950 . S
C558 C567 1.390 . S
C559 C558 1.387 . S
C559 C561 1.387 . S
H560 C567 0.950 . S
C561 C559 1.387 . S
C561 C563 1.390 . S
C561 H565 0.950 . S
H562 C558 0.950 . S
C563 C561 1.390 . S
C563 C564 1.387 . S
C563 H566 0.950 . S
C564 C563 1.387 . S
C564 C567 1.387 . S
H565 C561 0.950 . S
H566 C563 0.950 . S
C567 C558 1.390 . S
C567 H560 0.950 . S
C567 C564 1.387 . S
C568 C569 1.387 . S
C568 H572 0.950 . S
C568 C577 1.390 . S
C569 C568 1.387 . S
C569 C571 1.387 1_565 S
H570 C577 0.950 . S
C571 C569 1.387 1_545 S
C571 C573 1.390 . S
C571 H575 0.950 . S
H572 C568 0.950 . S
C573 C571 1.390 . S
C573 C574 1.387 . S
C573 H576 0.950 . S
C574 C573 1.387 . S
C574 C577 1.387 1_545 S
H575 C571 0.950 . S
H576 C573 0.950 . S
C577 C568 1.390 . S
C577 H570 0.950 . S
C577 C574 1.387 1_565 S
C578 C579 1.387 . S
C578 H582 0.950 . S
C578 C587 1.390 1_655 S
C579 C578 1.387 . S
C579 C581 1.387 1_565 S
H580 C587 0.950 . S
C581 C579 1.387 1_545 S
C581 C583 1.390 1_655 S
C581 H585 0.950 1_554 S
H582 C578 0.950 . S
C583 C581 1.390 1_455 S
C583 C584 1.387 . S
C583 H586 0.950 1_554 S
C584 C583 1.387 . S
C584 C587 1.387 1_545 S
H585 C581 0.950 1_556 S
H586 C583 0.950 1_556 S
C587 C578 1.390 1_455 S
C587 H580 0.950 . S
C587 C584 1.387 1_565 S
C588 C589 1.387 . S
C588 H592 0.950 . S
C588 C597 1.390 . S
C589 C588 1.387 . S
C589 C591 1.387 1_565 S
H590 C597 0.950 . S
C591 C589 1.387 1_545 S
C591 C593 1.390 . S
C591 H595 0.950 . S
H592 C588 0.950 . S
C593 C591 1.390 . S
C593 C594 1.387 . S
C593 H596 0.950 . S
C594 C593 1.387 . S
C594 C597 1.387 1_545 S
H595 C591 0.950 . S
H596 C593 0.950 . S
C597 C588 1.390 . S
C597 H590 0.950 . S
C597 C594 1.387 1_565 S
C598 C599 1.387 . S
C598 H602 0.950 . S
C598 C607 1.390 1_455 S
C599 C598 1.387 . S
C599 C601 1.387 1_565 S
H600 C607 0.950 . S
C601 C599 1.387 1_545 S
C601 C603 1.390 1_455 S
C601 H605 0.950 . S
H602 C598 0.950 . S
C603 C601 1.390 1_655 S
C603 C604 1.387 . S
C603 H606 0.950 . S
C604 C603 1.387 . S
C604 C607 1.387 1_545 S
H605 C601 0.950 . S
H606 C603 0.950 . S
C607 C598 1.390 1_655 S
C607 H600 0.950 . S
C607 C604 1.387 1_565 S
C608 C609 1.387 . S
C608 H612 0.950 . S
C608 C617 1.390 . S
C609 C608 1.387 . S
C609 C611 1.387 . S
H610 C617 0.950 . S
C611 C609 1.387 . S
C611 C613 1.390 . S
C611 H615 0.950 . S
H612 C608 0.950 . S
C613 C611 1.390 . S
C613 C614 1.387 . S
C613 H616 0.950 . S
C614 C613 1.387 . S
C614 C617 1.387 . S
H615 C611 0.950 . S
H616 C613 0.950 . S
C617 C608 1.390 . S
C617 H610 0.950 . S
C617 C614 1.387 . S
C618 C619 1.387 . S
C618 H622 0.950 . S
C618 C627 1.390 . S
C619 C618 1.387 . S
C619 C621 1.387 . S
H620 C627 0.950 . S
C621 C619 1.387 . S
C621 C623 1.390 . S
C621 H625 0.950 . S
H622 C618 0.950 . S
C623 C621 1.390 . S
C623 C624 1.387 . S
C623 H626 0.950 . S
C624 C623 1.387 . S
C624 C627 1.387 . S
H625 C621 0.950 . S
H626 C623 0.950 . S
C627 C618 1.390 . S
C627 H620 0.950 . S
C627 C624 1.387 . S
C628 C629 1.387 . S
C628 H632 0.950 . S
C628 C637 1.390 . S
C629 C628 1.387 . S
C629 C631 1.387 . S
H630 C637 0.950 . S
C631 C629 1.387 . S
C631 C633 1.390 . S
C631 H635 0.950 . S
H632 C628 0.950 . S
C633 C631 1.390 . S
C633 C634 1.387 . S
C633 H636 0.950 . S
C634 C633 1.387 . S
C634 C637 1.387 . S
H635 C631 0.950 . S
H636 C633 0.950 . S
C637 C628 1.390 . S
C637 H630 0.950 . S
C637 C634 1.387 . S
C638 C639 1.387 . S
C638 H642 0.950 . S
C638 C647 1.390 . S
C639 C638 1.387 . S
C639 C641 1.387 . S
H640 C647 0.950 . S
C641 C639 1.387 . S
C641 C643 1.390 . S
C641 H645 0.950 . S
H642 C638 0.950 . S
C643 C641 1.390 . S
C643 C644 1.387 . S
C643 H646 0.950 . S
C644 C643 1.387 . S
C644 C647 1.387 . S
H645 C641 0.950 . S
H646 C643 0.950 . S
C647 C638 1.390 . S
C647 H640 0.950 . S
C647 C644 1.387 . S
C648 C649 1.387 . S
C648 H652 0.950 . S
C648 C657 1.390 . S
C649 C648 1.387 . S
C649 C651 1.387 . S
H650 C657 0.950 . S
C651 C649 1.387 . S
C651 C653 1.390 . S
C651 H655 0.950 . S
H652 C648 0.950 . S
C653 C651 1.390 . S
C653 C654 1.387 . S
C653 H656 0.950 . S
C654 C653 1.387 . S
C654 C657 1.387 . S
H655 C651 0.950 . S
H656 C653 0.950 . S
C657 C648 1.390 . S
C657 H650 0.950 . S
C657 C654 1.387 . S
C658 C659 1.387 . S
C658 H662 0.950 . S
C658 C667 1.390 . S
C659 C658 1.387 . S
C659 C661 1.387 . S
H660 C667 0.950 . S
C661 C659 1.387 . S
C661 C663 1.390 . S
C661 H665 0.950 . S
H662 C658 0.950 . S
C663 C661 1.390 . S
C663 C664 1.387 . S
C663 H666 0.950 . S
C664 C663 1.387 . S
C664 C667 1.387 . S
H665 C661 0.950 . S
H666 C663 0.950 . S
C667 C658 1.390 . S
C667 H660 0.950 . S
C667 C664 1.387 . S
C668 C669 1.387 . S
C668 H672 0.950 . S
C668 C677 1.390 . S
C669 C668 1.387 . S
C669 C671 1.387 . S
H670 C677 0.950 . S
C671 C669 1.387 . S
C671 C673 1.390 . S
C671 H675 0.950 . S
H672 C668 0.950 . S
C673 C671 1.390 . S
C673 C674 1.387 . S
C673 H676 0.950 . S
C674 C673 1.387 . S
C674 C677 1.387 . S
H675 C671 0.950 . S
H676 C673 0.950 . S
C677 C668 1.390 . S
C677 H670 0.950 . S
C677 C674 1.387 . S
C678 C679 1.387 . S
C678 H682 0.950 . S
C678 C687 1.390 . S
C679 C678 1.387 . S
C679 C681 1.387 . S
H680 C687 0.950 . S
C681 C679 1.387 . S
C681 C683 1.390 . S
C681 H685 0.950 . S
H682 C678 0.950 . S
C683 C681 1.390 . S
C683 C684 1.387 . S
C683 H686 0.950 . S
C684 C683 1.387 . S
C684 C687 1.387 . S
H685 C681 0.950 . S
H686 C683 0.950 . S
C687 C678 1.390 . S
C687 H680 0.950 . S
C687 C684 1.387 . S
C688 C689 1.387 . S
C688 H692 0.950 . S
C688 C697 1.390 1_545 S
C689 C688 1.387 . S
C689 C691 1.387 . S
H690 C697 0.950 . S
C691 C689 1.387 . S
C691 C693 1.390 1_545 S
C691 H695 0.950 . S
H692 C688 0.950 . S
C693 C691 1.390 1_565 S
C693 C694 1.387 . S
C693 H696 0.950 . S
C694 C693 1.387 . S
C694 C697 1.387 . S
H695 C691 0.950 . S
H696 C693 0.950 . S
C697 C688 1.390 1_565 S
C697 H690 0.950 . S
C697 C694 1.387 . S
C698 C699 1.387 . S
C698 H702 0.950 . S
C698 C707 1.390 . S
C699 C698 1.387 . S
C699 C701 1.387 . S
H700 C707 0.950 . S
C701 C699 1.387 . S
C701 C703 1.390 . S
C701 H705 0.950 . S
H702 C698 0.950 . S
C703 C701 1.390 . S
C703 C704 1.387 . S
C703 H706 0.950 . S
C704 C703 1.387 . S
C704 C707 1.387 . S
H705 C701 0.950 . S
H706 C703 0.950 . S
C707 C698 1.390 . S
C707 H700 0.950 . S
C707 C704 1.387 . S
C708 C709 1.387 . S
C708 H712 0.950 . S
C708 C717 1.390 1_545 S
C709 C708 1.387 . S
C709 C711 1.387 . S
H710 C717 0.950 . S
C711 C709 1.387 . S
C711 C713 1.390 1_545 S
C711 H715 0.950 . S
H712 C708 0.950 . S
C713 C711 1.390 1_565 S
C713 C714 1.387 . S
C713 H716 0.950 . S
C714 C713 1.387 . S
C714 C717 1.387 . S
H715 C711 0.950 . S
H716 C713 0.950 . S
C717 C708 1.390 1_565 S
C717 H710 0.950 . S
C717 C714 1.387 . S
C718 C719 1.387 . S
C718 H722 0.950 . S
C718 C727 1.390 . S
C719 C718 1.387 . S
C719 C721 1.387 . S
H720 C727 0.950 . S
C721 C719 1.387 . S
C721 C723 1.390 . S
C721 H725 0.950 . S
H722 C718 0.950 . S
C723 C721 1.390 . S
C723 C724 1.387 . S
C723 H726 0.950 . S
C724 C723 1.387 . S
C724 C727 1.387 . S
H725 C721 0.950 . S
H726 C723 0.950 . S
C727 C718 1.390 . S
C727 H720 0.950 . S
C727 C724 1.387 . S
C728 C729 1.387 . S
C728 H732 0.950 . S
C728 C737 1.390 1_565 S
C729 C728 1.387 . S
C729 C731 1.387 . S
H730 C737 0.950 . S
C731 C729 1.387 . S
C731 C733 1.390 1_565 S
C731 H735 0.950 . S
H732 C728 0.950 . S
C733 C731 1.390 1_545 S
C733 C734 1.387 . S
C733 H736 0.950 . S
C734 C733 1.387 . S
C734 C737 1.387 . S
H735 C731 0.950 . S
H736 C733 0.950 . S
C737 C728 1.390 1_545 S
C737 H730 0.950 . S
C737 C734 1.387 . S
C738 C739 1.387 . S
C738 H742 0.950 . S
C738 C747 1.390 . S
C739 C738 1.387 . S
C739 C741 1.387 . S
H740 C747 0.950 . S
C741 C739 1.387 . S
C741 C743 1.390 . S
C741 H745 0.950 . S
H742 C738 0.950 . S
C743 C741 1.390 . S
C743 C744 1.387 . S
C743 H746 0.950 . S
C744 C743 1.387 . S
C744 C747 1.387 . S
H745 C741 0.950 . S
H746 C743 0.950 . S
C747 C738 1.390 . S
C747 H740 0.950 . S
C747 C744 1.387 . S
C748 C749 1.387 . S
C748 H752 0.950 . S
C748 C757 1.390 1_545 S
C749 C748 1.387 . S
C749 C751 1.387 . S
H750 C757 0.950 . S
C751 C749 1.387 . S
C751 C753 1.390 1_545 S
C751 H755 0.950 . S
H752 C748 0.950 . S
C753 C751 1.390 1_565 S
C753 C754 1.387 . S
C753 H756 0.950 . S
C754 C753 1.387 . S
C754 C757 1.387 . S
H755 C751 0.950 . S
H756 C753 0.950 . S
C757 C748 1.390 1_565 S
C757 H750 0.950 . S
C757 C754 1.387 . S
C758 C759 1.387 . S
C758 H762 0.950 . S
C758 C767 1.390 . S
C759 C758 1.387 . S
C759 C761 1.387 . S
H760 C767 0.950 . S
C761 C759 1.387 . S
C761 C763 1.390 . S
C761 H765 0.950 . S
H762 C758 0.950 . S
C763 C761 1.390 . S
C763 C764 1.387 . S
C763 H766 0.950 . S
C764 C763 1.387 . S
C764 C767 1.387 . S
H765 C761 0.950 . S
H766 C763 0.950 . S
C767 C758 1.390 . S
C767 H760 0.950 . S
C767 C764 1.387 . S
C768 C769 1.387 . S
C768 H772 0.950 . S
C768 C777 1.390 . S
C769 C768 1.387 . S
C769 C771 1.387 . S
H770 C777 0.950 . S
C771 C769 1.387 . S
C771 C773 1.390 . S
C771 H775 0.950 . S
H772 C768 0.950 . S
C773 C771 1.390 . S
C773 C774 1.387 . S
C773 H776 0.950 . S
C774 C773 1.387 . S
C774 C777 1.387 . S
H775 C771 0.950 . S
H776 C773 0.950 . S
C777 C768 1.390 . S
C777 H770 0.950 . S
C777 C774 1.387 . S
C778 C779 1.387 . S
C778 H782 0.950 . S
C778 C787 1.390 . S
C779 C778 1.387 . S
C779 C781 1.387 . S
H780 C787 0.950 . S
C781 C779 1.387 . S
C781 C783 1.390 . S
C781 H785 0.950 . S
H782 C778 0.950 . S
C783 C781 1.390 . S
C783 C784 1.387 . S
C783 H786 0.950 . S
C784 C783 1.387 . S
C784 C787 1.387 . S
H785 C781 0.950 . S
H786 C783 0.950 . S
C787 C778 1.390 . S
C787 H780 0.950 . S
C787 C784 1.387 . S
C788 C789 1.387 . S
C788 H792 0.950 . S
C788 C797 1.390 . S
C789 C788 1.387 . S
C789 C791 1.387 . S
H790 C797 0.950 . S
C791 C789 1.387 . S
C791 C793 1.390 . S
C791 H795 0.950 . S
H792 C788 0.950 . S
C793 C791 1.390 . S
C793 C794 1.387 . S
C793 H796 0.950 . S
C794 C793 1.387 . S
C794 C797 1.387 . S
H795 C791 0.950 . S
H796 C793 0.950 . S
C797 C788 1.390 . S
C797 H790 0.950 . S
C797 C794 1.387 . S
C798 C799 1.387 . S
C798 H802 0.950 . S
C798 C807 1.390 . S
C799 C798 1.387 . S
C799 C801 1.387 . S
H800 C807 0.950 . S
C801 C799 1.387 . S
C801 C803 1.390 . S
C801 H805 0.950 . S
H802 C798 0.950 . S
C803 C801 1.390 . S
C803 C804 1.387 . S
C803 H806 0.950 . S
C804 C803 1.387 . S
C804 C807 1.387 . S
H805 C801 0.950 . S
H806 C803 0.950 . S
C807 C798 1.390 . S
C807 H800 0.950 . S
C807 C804 1.387 . S
C808 C809 1.387 . S
C808 H812 0.950 . S
C808 C817 1.390 . S
C809 C808 1.387 . S
C809 C811 1.387 . S
H810 C817 0.950 . S
C811 C809 1.387 . S
C811 C813 1.390 . S
C811 H815 0.950 . S
H812 C808 0.950 . S
C813 C811 1.390 . S
C813 C814 1.387 . S
C813 H816 0.950 . S
C814 C813 1.387 . S
C814 C817 1.387 . S
H815 C811 0.950 . S
H816 C813 0.950 . S
C817 C808 1.390 . S
C817 H810 0.950 . S
C817 C814 1.387 . S
C818 C819 1.387 . S
C818 H822 0.950 . S
C818 C827 1.390 . S
C819 C818 1.387 . S
C819 C821 1.387 . S
H820 C827 0.950 . S
C821 C819 1.387 . S
C821 C823 1.390 . S
C821 H825 0.950 . S
H822 C818 0.950 . S
C823 C821 1.390 . S
C823 C824 1.387 . S
C823 H826 0.950 . S
C824 C823 1.387 . S
C824 C827 1.387 . S
H825 C821 0.950 . S
H826 C823 0.950 . S
C827 C818 1.390 . S
C827 H820 0.950 . S
C827 C824 1.387 . S
C828 C829 1.387 . S
C828 H832 0.950 . S
C828 C837 1.390 . S
C829 C828 1.387 . S
C829 C831 1.387 . S
H830 C837 0.950 . S
C831 C829 1.387 . S
C831 C833 1.390 . S
C831 H835 0.950 . S
H832 C828 0.950 . S
C833 C831 1.390 . S
C833 C834 1.387 . S
C833 H836 0.950 . S
C834 C833 1.387 . S
C834 C837 1.387 . S
H835 C831 0.950 . S
H836 C833 0.950 . S
C837 C828 1.390 . S
C837 H830 0.950 . S
C837 C834 1.387 . S
C838 C839 1.387 . S
C838 H842 0.950 . S
C838 C847 1.390 . S
C839 C838 1.387 . S
C839 C841 1.387 . S
H840 C847 0.950 . S
C841 C839 1.387 . S
C841 C843 1.390 . S
C841 H845 0.950 . S
H842 C838 0.950 . S
C843 C841 1.390 . S
C843 C844 1.387 . S
C843 H846 0.950 . S
C844 C843 1.387 . S
C844 C847 1.387 . S
H845 C841 0.950 . S
H846 C843 0.950 . S
C847 C838 1.390 . S
C847 H840 0.950 . S
C847 C844 1.387 . S
C848 C849 1.387 . S
C848 H852 0.950 . S
C848 C857 1.390 1_565 S
C849 C848 1.387 . S
C849 C851 1.387 . S
H850 C857 0.950 . S
C851 C849 1.387 . S
C851 C853 1.390 1_565 S
C851 H855 0.950 . S
H852 C848 0.950 . S
C853 C851 1.390 1_545 S
C853 C854 1.387 . S
C853 H856 0.950 . S
C854 C853 1.387 . S
C854 C857 1.387 . S
H855 C851 0.950 . S
H856 C853 0.950 . S
C857 C848 1.390 1_545 S
C857 H850 0.950 . S
C857 C854 1.387 . S
C858 C859 1.387 . S
C858 H862 0.950 . S
C858 C867 1.390 . S
C859 C858 1.387 . S
C859 C861 1.387 . S
H860 C867 0.950 . S
C861 C859 1.387 . S
C861 C863 1.390 . S
C861 H865 0.950 . S
H862 C858 0.950 . S
C863 C861 1.390 . S
C863 C864 1.387 . S
C863 H866 0.950 . S
C864 C863 1.387 . S
C864 C867 1.387 . S
H865 C861 0.950 . S
H866 C863 0.950 . S
C867 C858 1.390 . S
C867 H860 0.950 . S
C867 C864 1.387 . S
C868 C869 1.387 . S
C868 H872 0.950 . S
C868 C877 1.390 1_565 S
C869 C868 1.387 . S
C869 C871 1.387 . S
H870 C877 0.950 . S
C871 C869 1.387 . S
C871 C873 1.390 1_565 S
C871 H875 0.950 . S
H872 C868 0.950 . S
C873 C871 1.390 1_545 S
C873 C874 1.387 . S
C873 H876 0.950 . S
C874 C873 1.387 . S
C874 C877 1.387 . S
H875 C871 0.950 . S
H876 C873 0.950 . S
C877 C868 1.390 1_545 S
C877 H870 0.950 . S
C877 C874 1.387 . S
C878 C879 1.387 . S
C878 H882 0.950 . S
C878 C887 1.390 . S
C879 C878 1.387 . S
C879 C881 1.387 . S
H880 C887 0.950 . S
C881 C879 1.387 . S
C881 C883 1.390 . S
C881 H885 0.950 . S
H882 C878 0.950 . S
C883 C881 1.390 . S
C883 C884 1.387 . S
C883 H886 0.950 . S
C884 C883 1.387 . S
C884 C887 1.387 . S
H885 C881 0.950 . S
H886 C883 0.950 . S
C887 C878 1.390 . S
C887 H880 0.950 . S
C887 C884 1.387 . S
C888 C889 1.387 . S
C888 H892 0.950 . S
C888 C897 1.390 1_565 S
C889 C888 1.387 . S
C889 C891 1.387 . S
H890 C897 0.950 . S
C891 C889 1.387 . S
C891 C893 1.390 1_565 S
C891 H895 0.950 . S
H892 C888 0.950 . S
C893 C891 1.390 1_545 S
C893 C894 1.387 . S
C893 H896 0.950 . S
C894 C893 1.387 . S
C894 C897 1.387 . S
H895 C891 0.950 . S
H896 C893 0.950 . S
C897 C888 1.390 1_545 S
C897 H890 0.950 . S
C897 C894 1.387 . S
C898 C899 1.387 . S
C898 H902 0.950 . S
C898 C907 1.390 . S
C899 C898 1.387 . S
C899 C901 1.387 . S
H900 C907 0.950 . S
C901 C899 1.387 . S
C901 C903 1.390 . S
C901 H905 0.950 . S
H902 C898 0.950 . S
C903 C901 1.390 . S
C903 C904 1.387 . S
C903 H906 0.950 . S
C904 C903 1.387 . S
C904 C907 1.387 . S
H905 C901 0.950 . S
H906 C903 0.950 . S
C907 C898 1.390 . S
C907 H900 0.950 . S
C907 C904 1.387 . S
C908 C909 1.387 . S
C908 H912 0.950 . S
C908 C917 1.390 1_565 S
C909 C908 1.387 . S
C909 C911 1.387 . S
H910 C917 0.950 . S
C911 C909 1.387 . S
C911 C913 1.390 1_565 S
C911 H915 0.950 . S
H912 C908 0.950 . S
C913 C911 1.390 1_545 S
C913 C914 1.387 . S
C913 H916 0.950 . S
C914 C913 1.387 . S
C914 C917 1.387 . S
H915 C911 0.950 . S
H916 C913 0.950 . S
C917 C908 1.390 1_545 S
C917 H910 0.950 . S
C917 C914 1.387 . S
C918 C919 1.387 . S
C918 H922 0.950 . S
C918 C927 1.390 . S
C919 C918 1.387 . S
C919 C921 1.387 . S
H920 C927 0.950 . S
C921 C919 1.387 . S
C921 C923 1.390 . S
C921 H925 0.950 . S
H922 C918 0.950 . S
C923 C921 1.390 . S
C923 C924 1.387 . S
C923 H926 0.950 . S
C924 C923 1.387 . S
C924 C927 1.387 . S
H925 C921 0.950 . S
H926 C923 0.950 . S
C927 C918 1.390 . S
C927 H920 0.950 . S
C927 C924 1.387 . S
C928 C929 1.387 . S
C928 H932 0.950 . S
C928 C937 1.390 . S
C929 C928 1.387 . S
C929 C931 1.387 . S
H930 C937 0.950 . S
C931 C929 1.387 . S
C931 C933 1.390 . S
C931 H935 0.950 . S
H932 C928 0.950 . S
C933 C931 1.390 . S
C933 C934 1.387 . S
C933 H936 0.950 . S
C934 C933 1.387 . S
C934 C937 1.387 . S
H935 C931 0.950 . S
H936 C933 0.950 . S
C937 C928 1.390 . S
C937 H930 0.950 . S
C937 C934 1.387 . S
C938 C939 1.387 . S
C938 H942 0.950 . S
C938 C947 1.390 . S
C939 C938 1.387 . S
C939 C941 1.387 . S
H940 C947 0.950 . S
C941 C939 1.387 . S
C941 C943 1.390 . S
C941 H945 0.950 . S
H942 C938 0.950 . S
C943 C941 1.390 . S
C943 C944 1.387 . S
C943 H946 0.950 . S
C944 C943 1.387 . S
C944 C947 1.387 . S
H945 C941 0.950 . S
H946 C943 0.950 . S
C947 C938 1.390 . S
C947 H940 0.950 . S
C947 C944 1.387 . S
C948 C949 1.387 . S
C948 H952 0.950 . S
C948 C957 1.390 . S
C949 C948 1.387 . S
C949 C951 1.387 . S
H950 C957 0.950 . S
C951 C949 1.387 . S
C951 C953 1.390 . S
C951 H955 0.950 . S
H952 C948 0.950 . S
C953 C951 1.390 . S
C953 C954 1.387 . S
C953 H956 0.950 . S
C954 C953 1.387 . S
C954 C957 1.387 . S
H955 C951 0.950 . S
H956 C953 0.950 . S
C957 C948 1.390 . S
C957 H950 0.950 . S
C957 C954 1.387 . S
C958 C959 1.387 . S
C958 H962 0.950 . S
C958 C967 1.390 . S
C959 C958 1.387 . S
C959 C961 1.387 . S
H960 C967 0.950 . S
C961 C959 1.387 . S
C961 C963 1.390 1_556 S
C961 H965 0.950 . S
H962 C958 0.950 . S
C963 C961 1.390 1_554 S
C963 C964 1.387 1_554 S
C963 H966 0.950 . S
C964 C963 1.387 1_556 S
C964 C967 1.387 . S
H965 C961 0.950 . S
H966 C963 0.950 . S
C967 C958 1.390 . S
C967 H960 0.950 . S
C967 C964 1.387 . S
C968 C969 1.387 . S
C968 H972 0.950 . S
C968 C977 1.390 . S
C969 C968 1.387 . S
C969 C971 1.387 . S
H970 C977 0.950 . S
C971 C969 1.387 . S
C971 C973 1.390 . S
C971 H975 0.950 . S
H972 C968 0.950 . S
C973 C971 1.390 . S
C973 C974 1.387 . S
C973 H976 0.950 . S
C974 C973 1.387 . S
C974 C977 1.387 . S
H975 C971 0.950 . S
H976 C973 0.950 . S
C977 C968 1.390 . S
C977 H970 0.950 . S
C977 C974 1.387 . S
C978 C979 1.387 . S
C978 H982 0.950 . S
C978 C987 1.390 . S
C979 C978 1.387 . S
C979 C981 1.387 . S
H980 C987 0.950 . S
C981 C979 1.387 . S
C981 C983 1.390 . S
C981 H985 0.950 . S
H982 C978 0.950 . S
C983 C981 1.390 . S
C983 C984 1.387 . S
C983 H986 0.950 . S
C984 C983 1.387 . S
C984 C987 1.387 . S
H985 C981 0.950 . S
H986 C983 0.950 . S
C987 C978 1.390 . S
C987 H980 0.950 . S
C987 C984 1.387 . S
C988 C989 1.387 . S
C988 H992 0.950 . S
C988 C997 1.390 . S
C989 C988 1.387 . S
C989 C991 1.387 . S
H990 C997 0.950 1_554 S
C991 C989 1.387 . S
C991 C993 1.390 . S
C991 H995 0.950 . S
H992 C988 0.950 . S
C993 C991 1.390 . S
C993 C994 1.387 . S
C993 H996 0.950 . S
C994 C993 1.387 . S
C994 C997 1.387 . S
H995 C991 0.950 . S
H996 C993 0.950 . S
C997 C988 1.390 . S
C997 H990 0.950 1_556 S
C997 C994 1.387 . S
C998 C999 1.387 . S
C998 H1002 0.950 . S
C998 C1007 1.390 . S
C999 C998 1.387 . S
C999 C1001 1.387 . S
H1000 C1007 0.950 . S
C1001 C999 1.387 . S
C1001 C1003 1.390 . S
C1001 H1005 0.950 . S
H1002 C998 0.950 . S
C1003 C1001 1.390 . S
C1003 C1004 1.387 . S
C1003 H1006 0.950 . S
C1004 C1003 1.387 . S
C1004 C1007 1.387 . S
H1005 C1001 0.950 . S
H1006 C1003 0.950 . S
C1007 C998 1.390 . S
C1007 H1000 0.950 . S
C1007 C1004 1.387 . S
C1008 C1009 1.387 . S
C1008 H1012 0.950 . S
C1008 C1017 1.390 . S
C1009 C1008 1.387 . S
C1009 C1011 1.387 1_556 S
H1010 C1017 0.950 . S
C1011 C1009 1.387 1_554 S
C1011 C1013 1.390 1_554 S
C1011 H1015 0.950 . S
H1012 C1008 0.950 . S
C1013 C1011 1.390 1_556 S
C1013 C1014 1.387 . S
C1013 H1016 0.950 . S
C1014 C1013 1.387 . S
C1014 C1017 1.387 . S
H1015 C1011 0.950 . S
H1016 C1013 0.950 . S
C1017 C1008 1.390 . S
C1017 H1010 0.950 . S
C1017 C1014 1.387 . S
C1018 C1019 1.387 . S
C1018 H1022 0.950 . S
C1018 C1027 1.390 . S
C1019 C1018 1.387 . S
C1019 C1021 1.387 . S
H1020 C1027 0.950 . S
C1021 C1019 1.387 . S
C1021 C1023 1.390 . S
C1021 H1025 0.950 . S
H1022 C1018 0.950 . S
C1023 C1021 1.390 . S
C1023 C1024 1.387 . S
C1023 H1026 0.950 . S
C1024 C1023 1.387 . S
C1024 C1027 1.387 . S
H1025 C1021 0.950 . S
H1026 C1023 0.950 . S
C1027 C1018 1.390 . S
C1027 H1020 0.950 . S
C1027 C1024 1.387 . S
C1028 C1029 1.387 . S
C1028 H1032 0.950 . S
C1028 C1037 1.390 . S
C1029 C1028 1.387 . S
C1029 C1031 1.387 . S
H1030 C1037 0.950 . S
C1031 C1029 1.387 . S
C1031 C1033 1.390 . S
C1031 H1035 0.950 . S
H1032 C1028 0.950 . S
C1033 C1031 1.390 . S
C1033 C1034 1.387 . S
C1033 H1036 0.950 . S
C1034 C1033 1.387 . S
C1034 C1037 1.387 . S
H1035 C1031 0.950 . S
H1036 C1033 0.950 . S
C1037 C1028 1.390 . S
C1037 H1030 0.950 . S
C1037 C1034 1.387 . S
C1038 C1039 1.387 . S
C1038 H1042 0.950 . S
C1038 C1047 1.390 . S
C1039 C1038 1.387 . S
C1039 C1041 1.387 . S
H1040 C1047 0.950 . S
C1041 C1039 1.387 . S
C1041 C1043 1.390 . S
C1041 H1045 0.950 . S
H1042 C1038 0.950 . S
C1043 C1041 1.390 . S
C1043 C1044 1.387 . S
C1043 H1046 0.950 . S
C1044 C1043 1.387 . S
C1044 C1047 1.387 . S
H1045 C1041 0.950 . S
H1046 C1043 0.950 . S
C1047 C1038 1.390 . S
C1047 H1040 0.950 . S
C1047 C1044 1.387 . S
C1048 C1049 1.387 . S
C1048 H1052 0.950 . S
C1048 C1057 1.390 . S
C1049 C1048 1.387 . S
C1049 C1051 1.387 . S
H1050 C1057 0.950 . S
C1051 C1049 1.387 . S
C1051 C1053 1.390 . S
C1051 H1055 0.950 . S
H1052 C1048 0.950 . S
C1053 C1051 1.390 . S
C1053 C1054 1.387 . S
C1053 H1056 0.950 . S
C1054 C1053 1.387 . S
C1054 C1057 1.387 . S
H1055 C1051 0.950 . S
H1056 C1053 0.950 . S
C1057 C1048 1.390 . S
C1057 H1050 0.950 . S
C1057 C1054 1.387 . S
C1058 C1059 1.387 . S
C1058 H1062 0.950 . S
C1058 C1067 1.390 . S
C1059 C1058 1.387 . S
C1059 C1061 1.387 . S
H1060 C1067 0.950 . S
C1061 C1059 1.387 . S
C1061 C1063 1.390 . S
C1061 H1065 0.950 . S
H1062 C1058 0.950 . S
C1063 C1061 1.390 . S
C1063 C1064 1.387 . S
C1063 H1066 0.950 . S
C1064 C1063 1.387 . S
C1064 C1067 1.387 . S
H1065 C1061 0.950 . S
H1066 C1063 0.950 . S
C1067 C1058 1.390 . S
C1067 H1060 0.950 . S
C1067 C1064 1.387 . S
C1068 C1069 1.387 . S
C1068 H1072 0.950 . S
C1068 C1077 1.390 . S
C1069 C1068 1.387 . S
C1069 C1071 1.387 . S
H1070 C1077 0.950 . S
C1071 C1069 1.387 . S
C1071 C1073 1.390 . S
C1071 H1075 0.950 . S
H1072 C1068 0.950 . S
C1073 C1071 1.390 . S
C1073 C1074 1.387 . S
C1073 H1076 0.950 . S
C1074 C1073 1.387 . S
C1074 C1077 1.387 . S
H1075 C1071 0.950 . S
H1076 C1073 0.950 . S
C1077 C1068 1.390 . S
C1077 H1070 0.950 . S
C1077 C1074 1.387 . S
C1078 C1079 1.387 . S
C1078 H1082 0.950 . S
C1078 C1087 1.390 1_556 S
C1079 C1078 1.387 . S
C1079 C1081 1.387 . S
H1080 C1087 0.950 . S
C1081 C1079 1.387 . S
C1081 C1083 1.390 . S
C1081 H1085 0.950 . S
H1082 C1078 0.950 . S
C1083 C1081 1.390 . S
C1083 C1084 1.387 . S
C1083 H1086 0.950 . S
C1084 C1083 1.387 . S
C1084 C1087 1.387 1_556 S
H1085 C1081 0.950 . S
H1086 C1083 0.950 . S
C1087 C1078 1.390 1_554 S
C1087 H1080 0.950 . S
C1087 C1084 1.387 1_554 S
C449 C124 1.962 . S
C454 C1 1.962 . S
C459 C14 1.970 . S
C464 C363 1.970 . S
C469 C40 1.970 . S
C474 C153 1.970 . S
C479 C54 1.970 . S
C484 C391 1.970 . S
C489 C68 1.967 . S
C494 C180 1.962 . S
C499 C418 1.966 . S
C504 C83 1.966 . S
C509 C209 1.967 . S
C514 C85 1.962 . S
C519 C435 1.970 . S
C524 C98 1.970 . S
C529 C238 1.970 . S
C534 C139 1.970 . S
C539 C166 1.965 . S
C544 C279 1.965 . S
C549 C194 1.962 . S
C554 C306 1.967 . S
C559 C323 1.963 . S
C564 C210 1.963 . S
C569 C337 1.970 . S
C574 C224 1.970 . S
C579 C265 1.962 . S
C584 C365 1.967 . S
C589 C280 1.968 . S
C594 C404 1.963 . S
C599 C432 1.966 . S
C604 C321 1.965 . S
C609 C12 1.786 . S
C614 C57 1.785 . S
C619 C70 1.786 1_554 S
C624 C27 1.785 . S
C629 C96 1.785 . S
C634 C29 1.783 . S
C639 C43 1.783 . S
C644 C111 1.783 . S
C649 C113 1.785 . S
C654 C169 1.785 . S
C659 C126 1.785 1_554 S
C664 C183 1.786 . S
C669 C196 1.785 . S
C674 C140 1.785 . S
C679 C223 1.785 . S
C684 C155 1.785 . S
C689 C293 1.785 . S
C694 C237 1.785 . S
C699 C295 1.785 . S
C704 C251 1.785 . S
C709 C252 1.785 . S
C714 C308 1.785 . S
C719 C334 1.785 1_554 S
C724 C266 1.785 . S
C729 C393 1.786 . S
C734 C348 1.785 . S
C739 C350 1.785 . S
C744 C407 1.786 . S
C749 C421 1.786 . S
C754 C376 1.785 . S
C759 C446 1.783 . S
C764 C378 1.783 1_554 S
C769 C56 0.830 . S
C774 C13 0.830 . S
C779 C71 0.828 . S
C784 C26 0.828 . S
C789 C28 0.830 . S
C794 C97 0.830 . S
C799 C110 0.830 . S
C804 C42 0.830 1_554 S
C809 C168 0.830 . S
C814 C112 0.830 . S
C819 C127 0.830 . S
C824 C182 0.830 . S
C829 C197 0.828 . S
C834 C141 0.828 . S
C839 C222 0.830 1_554 S
C844 C154 0.830 . S
C849 C236 0.828 . S
C854 C292 0.828 . S
C859 C294 0.828 . S
C864 C250 0.828 1_554 S
C869 C309 0.828 . S
C874 C253 0.828 . S
C879 C335 0.830 . S
C884 C267 0.830 . S
C889 C392 0.830 . S
C894 C349 0.830 . S
C899 C351 0.828 . S
C904 C406 0.827 1_554 S
C909 C377 0.830 . S
C914 C420 0.830 . S
C919 C379 0.830 . S
C924 C447 0.830 . S
C929 C0 1.984 . S
C934 C307 1.983 . S
C939 C320 1.986 . S
C944 C15 1.983 . S
C949 C41 1.982 . S
C954 C322 1.984 . S
C959 C55 1.982 . S
C964 C281 1.984 1_556 S
C969 C278 1.985 . S
C974 C69 1.984 . S
C979 C225 1.982 . S
C984 C82 1.986 . S
C989 C239 1.983 . S
C994 C84 1.984 1_556 S
C999 C99 1.982 . S
C1004 C264 1.985 . S
C1009 C125 1.984 1_556 S
C1014 C419 1.986 . S
C1019 C433 1.984 . S
C1024 C138 1.983 . S
C1029 C434 1.983 . S
C1034 C152 1.982 . S
C1039 C405 1.984 . S
C1044 C167 1.986 . S
C1049 C390 1.982 . S
C1054 C181 1.985 . S
C1059 C336 1.982 . S
C1064 C195 1.986 . S
C1069 C208 1.984 . S
C1074 C362 1.982 . S
C1079 C211 1.984 . S
C1084 C364 1.984 1_556 S
