# Generated by pormake.
# Topology whw, (6)-cn, num edge types: 1
# Building blocks:
#     Node 0, Type 0, BuildingBlock: BETDAH_clean_sbu_0, # of connection points: 6
#     Node 1, Type 0, BuildingBlock: BETDAH_clean_sbu_0, # of connection points: 6
#     Node 2, Type 0, BuildingBlock: BETDAH_clean_sbu_0, # of connection points: 6
#     Node 3, Type 0, BuildingBlock: BETDAH_clean_sbu_0, # of connection points: 6
#     Node 4, Type 0, BuildingBlock: BETDAH_clean_sbu_0, # of connection points: 6
#     Node 5, Type 0, BuildingBlock: BETDAH_clean_sbu_0, # of connection points: 6
#     Node 6, Type 0, BuildingBlock: BETDAH_clean_sbu_0, # of connection points: 6
#     Node 7, Type 0, BuildingBlock: BETDAH_clean_sbu_0, # of connection points: 6
#     Node 8, Type 0, BuildingBlock: BETDAH_clean_sbu_0, # of connection points: 6
#     Node 9, Type 0, BuildingBlock: BETDAH_clean_sbu_0, # of connection points: 6
#     Node 10, Type 0, BuildingBlock: BETDAH_clean_sbu_0, # of connection points: 6
#     Node 11, Type 0, BuildingBlock: BETDAH_clean_sbu_0, # of connection points: 6
#     Node 12, Type 0, BuildingBlock: BETDAH_clean_sbu_0, # of connection points: 6
#     Node 13, Type 0, BuildingBlock: BETDAH_clean_sbu_0, # of connection points: 6
#     Node 14, Type 0, BuildingBlock: BETDAH_clean_sbu_0, # of connection points: 6
#     Node 15, Type 0, BuildingBlock: BETDAH_clean_sbu_0, # of connection points: 6
#     Edge 16, Type (0, 0), BuildingBlock: XUDNAN_clean_linker_2, # of connection points: 2
#     Edge 17, Type (0, 0), BuildingBlock: XUDNAN_clean_linker_2, # of connection points: 2
#     Edge 18, Type (0, 0), BuildingBlock: XUDNAN_clean_linker_2, # of connection points: 2
#     Edge 19, Type (0, 0), BuildingBlock: XUDNAN_clean_linker_2, # of connection points: 2
#     Edge 20, Type (0, 0), BuildingBlock: XUDNAN_clean_linker_2, # of connection points: 2
#     Edge 21, Type (0, 0), BuildingBlock: XUDNAN_clean_linker_2, # of connection points: 2
#     Edge 22, Type (0, 0), BuildingBlock: XUDNAN_clean_linker_2, # of connection points: 2
#     Edge 23, Type (0, 0), BuildingBlock: XUDNAN_clean_linker_2, # of connection points: 2
#     Edge 24, Type (0, 0), BuildingBlock: XUDNAN_clean_linker_2, # of connection points: 2
#     Edge 25, Type (0, 0), BuildingBlock: XUDNAN_clean_linker_2, # of connection points: 2
#     Edge 26, Type (0, 0), BuildingBlock: XUDNAN_clean_linker_2, # of connection points: 2
#     Edge 27, Type (0, 0), BuildingBlock: XUDNAN_clean_linker_2, # of connection points: 2
#     Edge 28, Type (0, 0), BuildingBlock: XUDNAN_clean_linker_2, # of connection points: 2
#     Edge 29, Type (0, 0), BuildingBlock: XUDNAN_clean_linker_2, # of connection points: 2
#     Edge 30, Type (0, 0), BuildingBlock: XUDNAN_clean_linker_2, # of connection points: 2
#     Edge 31, Type (0, 0), BuildingBlock: XUDNAN_clean_linker_2, # of connection points: 2
#     Edge 32, Type (0, 0), BuildingBlock: XUDNAN_clean_linker_2, # of connection points: 2
#     Edge 33, Type (0, 0), BuildingBlock: XUDNAN_clean_linker_2, # of connection points: 2
#     Edge 34, Type (0, 0), BuildingBlock: XUDNAN_clean_linker_2, # of connection points: 2
#     Edge 35, Type (0, 0), BuildingBlock: XUDNAN_clean_linker_2, # of connection points: 2
#     Edge 36, Type (0, 0), BuildingBlock: XUDNAN_clean_linker_2, # of connection points: 2
#     Edge 37, Type (0, 0), BuildingBlock: XUDNAN_clean_linker_2, # of connection points: 2
#     Edge 38, Type (0, 0), BuildingBlock: XUDNAN_clean_linker_2, # of connection points: 2
#     Edge 39, Type (0, 0), BuildingBlock: XUDNAN_clean_linker_2, # of connection points: 2
#     Edge 40, Type (0, 0), BuildingBlock: XUDNAN_clean_linker_2, # of connection points: 2
#     Edge 41, Type (0, 0), BuildingBlock: XUDNAN_clean_linker_2, # of connection points: 2
#     Edge 42, Type (0, 0), BuildingBlock: XUDNAN_clean_linker_2, # of connection points: 2
#     Edge 43, Type (0, 0), BuildingBlock: XUDNAN_clean_linker_2, # of connection points: 2
#     Edge 44, Type (0, 0), BuildingBlock: XUDNAN_clean_linker_2, # of connection points: 2
#     Edge 45, Type (0, 0), BuildingBlock: XUDNAN_clean_linker_2, # of connection points: 2
#     Edge 46, Type (0, 0), BuildingBlock: XUDNAN_clean_linker_2, # of connection points: 2
#     Edge 47, Type (0, 0), BuildingBlock: XUDNAN_clean_linker_2, # of connection points: 2
#     Edge 48, Type (0, 0), BuildingBlock: XUDNAN_clean_linker_2, # of connection points: 2
#     Edge 49, Type (0, 0), BuildingBlock: XUDNAN_clean_linker_2, # of connection points: 2
#     Edge 50, Type (0, 0), BuildingBlock: XUDNAN_clean_linker_2, # of connection points: 2
#     Edge 51, Type (0, 0), BuildingBlock: XUDNAN_clean_linker_2, # of connection points: 2
#     Edge 52, Type (0, 0), BuildingBlock: XUDNAN_clean_linker_2, # of connection points: 2
#     Edge 53, Type (0, 0), BuildingBlock: XUDNAN_clean_linker_2, # of connection points: 2
#     Edge 54, Type (0, 0), BuildingBlock: XUDNAN_clean_linker_2, # of connection points: 2
#     Edge 55, Type (0, 0), BuildingBlock: XUDNAN_clean_linker_2, # of connection points: 2
#     Edge 56, Type (0, 0), BuildingBlock: XUDNAN_clean_linker_2, # of connection points: 2
#     Edge 57, Type (0, 0), BuildingBlock: XUDNAN_clean_linker_2, # of connection points: 2
#     Edge 58, Type (0, 0), BuildingBlock: XUDNAN_clean_linker_2, # of connection points: 2
#     Edge 59, Type (0, 0), BuildingBlock: XUDNAN_clean_linker_2, # of connection points: 2
#     Edge 60, Type (0, 0), BuildingBlock: XUDNAN_clean_linker_2, # of connection points: 2
#     Edge 61, Type (0, 0), BuildingBlock: XUDNAN_clean_linker_2, # of connection points: 2
#     Edge 62, Type (0, 0), BuildingBlock: XUDNAN_clean_linker_2, # of connection points: 2
#     Edge 63, Type (0, 0), BuildingBlock: XUDNAN_clean_linker_2, # of connection points: 2
# Relax obj value: 0.339
# Max RMSD: 0.234
# Mean RMSD: 0.206
data_MOF--net-whw--node1-BETDAH_clean_sbu_0--edge1-XUDNAN_clean_linker_2
_symmetry_space_group_name_H-M    P1
_symmetry_Int_Tables_number       1
_symmetry_cell_setting            triclinic
loop_
_symmetry_equiv_pos_as_xyz
'x, y, z'
_cell_length_a     46.786981
_cell_length_b     46.198196
_cell_length_c     34.179934
_cell_angle_alpha  90.338213
_cell_angle_beta   96.316808
_cell_angle_gamma 94.085745
loop_
_atom_site_label
_atom_site_type_symbol
_atom_site_fract_x
_atom_site_fract_y
_atom_site_fract_z
_atom_type_partial_charge
Ho0 Ho 0.05417 0.14272 0.15218 0.0
Ho1 Ho -0.00766 0.14453 0.17107 0.0
C2 C 0.00475 0.16727 0.08588 0.0
C3 C 0.09977 0.12868 0.12275 0.0
C4 C 0.1037 0.11388 0.08599 0.0
C5 C 0.12912 0.10032 0.08221 0.0
C6 C 0.13224 0.0853 0.04747 0.0
C7 C 0.10978 0.08343 1.01647 0.0
C8 C 0.08426 0.09682 1.0207 0.0
C9 C 0.0813 0.11197 0.0551 0.0
C10 C 0.04608 0.18996 0.19394 0.0
C11 C 0.04404 0.13662 0.24353 0.0
C12 C 0.94247 0.14532 0.19659 0.0
C13 C 0.93035 0.15062 0.23335 0.0
C14 C 0.94736 0.14946 0.26963 0.0
C15 C 0.93473 0.15109 0.30456 0.0
C16 C 0.90495 0.15402 0.30365 0.0
C17 C 0.88828 0.1567 0.26728 0.0
C18 C 0.90093 0.15488 0.23229 0.0
C19 C 0.00252 0.09829 0.12662 0.0
O20 O 0.02958 0.15485 0.09353 0.0
O21 O 0.98725 0.16933 0.11368 0.0
O22 O 0.08987 0.15445 0.11901 0.0
O23 O 0.08685 0.11252 0.14775 0.0
O24 O 0.07095 0.17946 0.19315 0.0
O25 O 0.0279 0.17757 0.16787 0.0
O26 O 0.01728 0.1439 0.23296 0.0
O27 O 0.06095 0.13015 0.21642 0.0
O28 O 0.95704 0.1222 0.19618 0.0
O29 O 0.95481 0.16771 0.18009 0.0
O30 O 0.97933 0.11188 0.12249 0.0
O31 O 0.01915 0.10895 0.15559 0.0
H32 H 0.14648 0.10139 0.10603 0.0
H33 H 0.15217 0.07526 0.04473 0.0
H34 H 0.06682 0.09623 0.99699 0.0
H35 H 0.06139 0.122 0.05766 0.0
H36 H 0.97019 0.1465 0.27095 0.0
H37 H 0.94815 0.14959 0.3323 0.0
H38 H 0.8653 0.15895 0.26586 0.0
H39 H 0.88759 0.15588 0.20441 0.0
Ho40 Ho 0.14848 0.78256 0.4596 0.0
Ho41 Ho 0.15468 0.7272 0.41638 0.0
C42 C 0.16572 0.72568 0.50816 0.0
C43 C 0.14189 0.82566 0.50552 0.0
C44 C 0.13491 0.83273 0.54535 0.0
C45 C 0.10654 0.8382 0.55111 0.0
C46 C 0.10016 0.84793 0.58758 0.0
C47 C 0.12202 0.85252 0.61911 0.0
C48 C 0.15038 0.84681 0.61354 0.0
C49 C 0.15679 0.83705 0.57695 0.0
C50 C 0.19588 0.7815 0.42113 0.0
C51 C 0.12564 0.78144 0.36953 0.0
C52 C 0.16662 0.68963 0.36559 0.0
C53 C 0.15421 0.6835 0.32468 0.0
C54 C 0.17246 0.67992 0.29541 0.0
C55 C 0.16102 0.67645 0.256 0.0
C56 C 0.13111 0.67635 0.24529 0.0
C57 C 0.11284 0.67953 0.27472 0.0
C58 C 0.12429 0.6833 0.31403 0.0
C59 C 0.10439 0.72756 0.44847 0.0
O60 O 0.15135 0.74931 0.50722 0.0
O61 O 0.17529 0.7157 0.47604 0.0
O62 O 0.16679 0.81511 0.50252 0.0
O63 O 0.1211 0.8134 0.48086 0.0
O64 O 0.18041 0.80348 0.42221 0.0
O65 O 0.18591 0.7613 0.44147 0.0
O66 O 0.13833 0.75683 0.36708 0.0
O67 O 0.12368 0.79411 0.40363 0.0
O68 O 0.1497 0.68343 0.39279 0.0
O69 O 0.18106 0.71481 0.37164 0.0
O70 O 0.11861 0.7048 0.44505 0.0
O71 O 0.11659 0.74879 0.43216 0.0
H72 H 0.08932 0.83569 0.52716 0.0
H73 H 0.07818 0.85265 0.59071 0.0
H74 H 0.1676 0.84996 0.63741 0.0
H75 H 0.17896 0.83344 0.57326 0.0
H76 H 0.1956 0.68032 0.30298 0.0
H77 H 0.17556 0.67387 0.23385 0.0
H78 H 0.08976 0.67992 0.26718 0.0
H79 H 0.10975 0.6866 0.33597 0.0
Ho80 Ho 0.48219 0.87713 0.70555 0.0
Ho81 Ho 0.50506 0.85524 0.62211 0.0
C82 C 0.55034 0.86971 0.70104 0.0
C83 C 0.46312 0.87575 0.77528 0.0
C84 C 0.461 0.86339 0.81621 0.0
C85 C 0.48501 0.85688 0.84252 0.0
C86 C 0.48158 0.84638 0.88093 0.0
C87 C 0.45406 0.84221 0.89479 0.0
C88 C 0.43023 0.84914 0.86845 0.0
C89 C 0.43364 0.85932 0.83008 0.0
C90 C 0.48979 0.91769 0.64996 0.0
C91 C 0.43886 0.86655 0.62483 0.0
C92 C 0.52965 0.84579 0.5581 0.0
C93 C 0.53018 0.83423 0.51634 0.0
C94 C 0.51413 0.84588 0.48356 0.0
C95 C 0.51828 0.83805 0.44453 0.0
C96 C 0.53901 0.81852 0.43623 0.0
C97 C 0.55426 0.80606 0.46919 0.0
C98 C 0.54999 0.81383 0.50829 0.0
C99 C 0.47909 0.81737 0.66935 0.0
O100 O 0.52924 0.87394 0.723 0.0
O101 O 0.54646 0.86338 0.66271 0.0
O102 O 0.45107 0.86056 0.74456 0.0
O103 O 0.48582 0.89217 0.76714 0.0
O104 O 0.47249 0.92001 0.67713 0.0
O105 O 0.50407 0.89581 0.65647 0.0
O106 O 0.46062 0.86754 0.60294 0.0
O107 O 0.44177 0.86573 0.66394 0.0
O108 O 0.52989 0.82791 0.58786 0.0
O109 O 0.51602 0.86906 0.56431 0.0
O110 O 0.47618 0.81436 0.63119 0.0
O111 O 0.49623 0.8385 0.67935 0.0
H112 H 0.50647 0.8598 0.83344 0.0
H113 H 0.50067 0.84151 0.8999 0.0
H114 H 0.40867 0.84613 0.87719 0.0
H115 H 0.41457 0.86422 0.81104 0.0
H116 H 0.49876 0.86172 0.48797 0.0
H117 H 0.5053 0.84783 0.42071 0.0
H118 H 0.57052 0.79116 0.46495 0.0
H119 H 0.56316 0.80458 0.53243 0.0
Ho120 Ho 0.35621 0.21142 0.90931 0.0
Ho121 Ho 0.35189 0.26545 0.86021 0.0
C122 C 0.3411 0.27119 0.94882 0.0
C123 C 0.36303 0.17062 0.96019 0.0
C124 C 0.37182 0.16479 1.00189 0.0
C125 C 0.35986 0.17829 1.03261 0.0
C126 C 0.36686 0.16993 0.07162 0.0
C127 C 0.38602 0.14813 0.0804 0.0
C128 C 0.39841 0.13528 0.04959 0.0
C129 C 0.39133 0.1435 1.01077 0.0
C130 C 0.30959 0.21082 0.85483 0.0
C131 C 0.38003 0.20867 0.8266 0.0
C132 C 0.3408 0.30186 0.80422 0.0
C133 C 0.35157 0.30727 0.76591 0.0
C134 C 0.33495 0.32191 0.73689 0.0
C135 C 0.34508 0.32758 0.70053 0.0
C136 C 0.37206 0.31871 0.69259 0.0
C137 C 0.3886 0.30385 0.72174 0.0
C138 C 0.37837 0.29806 0.75806 0.0
C139 C 0.40142 0.26505 0.90902 0.0
O140 O 0.35401 0.24678 0.95371 0.0
O141 O 0.33229 0.28046 0.91322 0.0
O142 O 0.33855 0.18238 0.95125 0.0
O143 O 0.3833 0.1806 0.93934 0.0
O144 O 0.32388 0.18856 0.86446 0.0
O145 O 0.31966 0.23235 0.87637 0.0
O146 O 0.36836 0.23358 0.81861 0.0
O147 O 0.38094 0.19716 0.86185 0.0
O148 O 0.35935 0.30774 0.83511 0.0
O149 O 0.32564 0.27729 0.80728 0.0
O150 O 0.38845 0.28823 0.89923 0.0
O151 O 0.38861 0.24355 0.88998 0.0
H152 H 0.34481 0.19487 1.02648 0.0
H153 H 0.35727 0.18043 0.09487 0.0
H154 H 0.41296 0.11821 0.05533 0.0
H155 H 0.40061 0.13269 0.98747 0.0
H156 H 0.31419 0.32908 0.74242 0.0
H157 H 0.33195 0.33928 0.67879 0.0
H158 H 0.40925 0.2964 0.71627 0.0
H159 H 0.39139 0.28645 0.78005 0.0
Ho160 Ho 0.02482 0.89603 0.93863 0.0
Ho161 Ho 0.96849 0.8937 0.88179 0.0
C162 C 0.96335 0.8718 0.96879 0.0
C163 C 0.06443 0.90572 0.99717 0.0
C164 C 0.06864 0.89428 1.03731 0.0
C165 C 0.04491 0.88762 0.05824 0.0
C166 C 0.04888 0.87622 0.09591 0.0
C167 C 0.07661 0.87127 0.11357 0.0
C168 C 0.10037 0.8775 0.09238 0.0
C169 C 0.09639 0.88899 0.05449 0.0
C170 C 0.01428 0.84652 0.89626 0.0
C171 C 0.03047 0.90618 0.84979 0.0
C172 C 0.92718 0.8864 0.8243 0.0
C173 C 0.91972 0.87569 0.78318 0.0
C174 C 0.93555 0.85535 0.76566 0.0
C175 C 0.92649 0.84467 0.72723 0.0
C176 C 0.90149 0.85419 0.70559 0.0
C177 C 0.88592 0.87458 0.72357 0.0
C178 C 0.89495 0.88516 0.76169 0.0
C179 C 0.98169 0.94281 0.92629 0.0
O180 O -0.00963 0.88235 0.97825 0.0
O181 O 0.95069 0.87138 0.93228 0.0
O182 O 0.06636 0.88708 0.96888 0.0
O183 O 0.04266 0.92183 0.98956 0.0
O184 O 0.03984 0.85754 0.90909 0.0
O185 O -0.00457 0.86068 0.91002 0.0
O186 O 0.00419 0.8933 0.8434 0.0
O187 O 0.0415 0.91571 0.88519 0.0
O188 O 0.94376 0.91039 0.83024 0.0
O189 O 0.93283 0.86712 0.85136 0.0
O190 O 0.95564 0.93128 0.91763 0.0
O191 O -0.00121 0.92854 0.90948 0.0
H192 H 0.02325 0.8912 0.04557 0.0
H193 H 0.0302 0.87111 0.11124 0.0
H194 H 0.12201 0.87402 0.10537 0.0
H195 H 0.11494 0.89378 0.03864 0.0
H196 H 0.95474 0.84763 0.7817 0.0
H197 H 0.9392 0.8292 0.71436 0.0
H198 H 0.8663 0.88207 0.70845 0.0
H199 H 0.88221 0.90057 0.7747 0.0
Ho200 Ho 0.39116 0.78915 0.25253 0.0
Ho201 Ho 0.39775 0.72573 0.23308 0.0
C202 C 0.40687 0.74353 0.32342 0.0
C203 C 0.36805 0.83659 0.26702 0.0
C204 C 0.35467 0.84449 0.30223 0.0
C205 C 0.33928 0.82299 0.3219 0.0
C206 C 0.33089 0.82854 0.3588 0.0
C207 C 0.33905 0.85529 0.37788 0.0
C208 C 0.35279 0.87756 0.35722 0.0
C209 C 0.36045 0.87219 0.31949 0.0
C210 C 0.44601 0.77459 0.2615 0.0
C211 C 0.40364 0.77476 0.16221 0.0
C212 C 0.40054 0.67411 0.20504 0.0
C213 C 0.40624 0.6603 0.16834 0.0
C214 C 0.40946 0.67698 0.13487 0.0
C215 C 0.41039 0.66359 0.09854 0.0
C216 C 0.40649 0.63318 0.09448 0.0
C217 C 0.40394 0.61646 0.12839 0.0
C218 C 0.40401 0.62997 0.1651 0.0
C219 C 0.34647 0.73794 0.2562 0.0
O220 O 0.39143 0.76601 0.31225 0.0
O221 O 0.41644 0.72675 0.29679 0.0
O222 O 0.39582 0.834 0.27278 0.0
O223 O 0.3545 0.81532 0.24549 0.0
O224 O 0.43662 0.795 0.28191 0.0
O225 O 0.42631 0.76532 0.2353 0.0
O226 O 0.40414 0.74722 0.1738 0.0
O227 O 0.39842 0.79551 0.18731 0.0
O228 O 0.37717 0.6882 0.20175 0.0
O229 O 0.42222 0.68815 0.22648 0.0
O230 O 0.36039 0.71605 0.26832 0.0
O231 O 0.36068 0.75252 0.23296 0.0
H232 H 0.33546 0.80122 0.3101 0.0
H233 H 0.32007 0.81109 0.37377 0.0
H234 H 0.35969 0.89832 0.37132 0.0
H235 H 0.37258 0.889 0.30501 0.0
H236 H 0.41031 0.70037 0.13645 0.0
H237 H 0.41331 0.67725 0.07345 0.0
H238 H 0.40058 0.59305 0.12642 0.0
H239 H 0.40084 0.61678 0.19059 0.0
Ho240 Ho 0.4795 0.08949 0.42892 0.0
Ho241 Ho 0.53339 0.08927 0.38657 0.0
C242 C 0.54294 0.10691 0.47731 0.0
C243 C 0.44101 0.07825 0.47641 0.0
C244 C 0.43509 0.09112 0.51365 0.0
C245 C 0.424 0.07323 0.54213 0.0
C246 C 0.42054 0.08464 0.57906 0.0
C247 C 0.42805 0.11414 0.58791 0.0
C248 C 0.43865 0.13215 0.55903 0.0
C249 C 0.44237 0.12066 0.52222 0.0
C250 C 0.49293 0.14111 0.39708 0.0
C251 C 0.47088 0.08519 0.33737 0.0
C252 C 0.57341 0.09387 0.33972 0.0
C253 C 0.58117 0.10899 0.30391 0.0
C254 C 0.58371 0.13944 0.30222 0.0
C255 C 0.59506 0.1533 0.27051 0.0
C256 C 0.60417 0.13707 0.23982 0.0
C257 C 0.60026 0.10663 0.24055 0.0
C258 C 0.58897 0.09275 0.27239 0.0
C259 C 0.51744 0.03882 0.4215 0.0
O260 O 0.51525 0.09908 0.47881 0.0
O261 O 0.55463 0.10742 0.44386 0.0
O262 O 0.43671 0.09421 0.44514 0.0
O263 O 0.46516 0.06555 0.47808 0.0
O264 O 0.4671 0.1318 0.40343 0.0
O265 O 0.51096 0.12416 0.41235 0.0
O266 O 0.49764 0.09676 0.3393 0.0
O267 O 0.46027 0.07434 0.36886 0.0
O268 O 0.55207 0.07382 0.33556 0.0
O269 O 0.57361 0.10961 0.37169 0.0
O270 O 0.54394 0.04874 0.42075 0.0
O271 O 0.50123 0.05549 0.40236 0.0
H272 H 0.41855 0.05033 0.53606 0.0
H273 H 0.41213 0.07038 0.60079 0.0
H274 H 0.44488 0.15488 0.56535 0.0
H275 H 0.45143 0.1347 0.50074 0.0
H276 H 0.57789 0.15263 0.32597 0.0
H277 H 0.59733 0.1768 0.27047 0.0
H278 H 0.60718 0.09352 0.21745 0.0
H279 H 0.58737 0.06925 0.27311 0.0
Ho280 Ho 0.11231 0.19671 0.60887 0.0
Ho281 Ho 0.11887 0.25798 0.58112 0.0
C282 C 0.09624 0.25 0.66667 0.0
C283 C 0.11708 0.14608 0.63954 0.0
C284 C 0.12108 0.13053 0.67651 0.0
C285 C 0.12929 0.14516 0.71241 0.0
C286 C 0.13123 0.1296 0.74741 0.0
C287 C 0.12487 0.09931 0.74678 0.0
C288 C 0.11736 0.08481 0.71053 0.0
C289 C 0.1155 0.10035 0.67565 0.0
C290 C 0.06631 0.21301 0.56163 0.0
C291 C 0.11865 0.20461 0.51718 0.0
C292 C 0.12343 0.30721 0.54571 0.0
C293 C 0.12219 0.31764 0.50511 0.0
C294 C 0.11617 0.2983 0.473 0.0
C295 C 0.11725 0.30827 0.43463 0.0
C296 C 0.12424 0.33778 0.42777 0.0
C297 C 0.12999 0.35712 0.46006 0.0
C298 C 0.12909 0.34707 0.49844 0.0
C299 C 0.16342 0.24106 0.63093 0.0
O300 O 0.1034 0.22249 0.66457 0.0
O301 O 0.09754 0.26715 0.63565 0.0
O302 O 0.09249 0.15777 0.63187 0.0
O303 O 0.13905 0.16265 0.63008 0.0
O304 O 0.07492 0.18698 0.56288 0.0
O305 O 0.0813 0.22839 0.5881 0.0
O306 O 0.11387 0.23213 0.5231 0.0
O307 O 0.12405 0.18735 0.54752 0.0
O308 O 0.14524 0.29184 0.55661 0.0
O309 O 0.09929 0.29629 0.55756 0.0
O310 O 0.15316 0.26622 0.63209 0.0
O311 O 0.15013 0.22619 0.60256 0.0
H312 H 0.13357 0.16853 0.7134 0.0
H313 H 0.13664 0.1414 0.77502 0.0
H314 H 0.11254 0.06151 0.7092 0.0
H315 H 0.10918 0.08883 0.64798 0.0
H316 H 0.11079 0.27551 0.4775 0.0
H317 H 0.11215 0.29297 0.4103 0.0
H318 H 0.13546 0.37996 0.45564 0.0
H319 H 0.13408 0.36224 0.52294 0.0
Ho320 Ho 0.90274 0.28098 0.75064 0.0
Ho321 Ho 0.90415 0.21671 0.7284 0.0
C322 C 0.92597 0.23323 0.818 0.0
C323 C 0.88468 0.3278 0.77792 0.0
C324 C 0.86958 0.3356 0.8118 0.0
C325 C 0.84045 0.3264 0.81388 0.0
C326 C 0.82743 0.33124 0.848 0.0
C327 C 0.84313 0.34622 0.88014 0.0
C328 C 0.87169 0.35702 0.87699 0.0
C329 C 0.88474 0.35176 0.8432 0.0
C330 C 0.95319 0.26818 0.72785 0.0
C331 C 0.90104 0.26553 0.65692 0.0
C332 C 0.90153 0.1652 0.69744 0.0
C333 C 0.89662 0.1551 0.65616 0.0
C334 C 0.91161 0.16916 0.62757 0.0
C335 C 0.90339 0.16363 0.58779 0.0
C336 C 0.87963 0.14429 0.57586 0.0
C337 C 0.86513 0.12915 0.60405 0.0
C338 C 0.87371 0.13446 0.64417 0.0
C339 C 0.85677 0.23211 0.75869 0.0
O340 O 0.91338 0.25825 0.81106 0.0
O341 O 0.9285 0.21495 0.78863 0.0
O342 O 0.91114 0.32025 0.78609 0.0
O343 O 0.86981 0.31132 0.75051 0.0
O344 O 0.94368 0.29397 0.72509 0.0
O345 O 0.93684 0.25201 0.74674 0.0
O346 O 0.90422 0.23836 0.66851 0.0
O347 O 0.89789 0.28629 0.68314 0.0
O348 O 0.8795 0.17679 0.70978 0.0
O349 O 0.92588 0.18015 0.70879 0.0
O350 O 0.86985 0.2092 0.76884 0.0
O351 O 0.86963 0.24605 0.73338 0.0
H352 H 0.82791 0.31494 0.78951 0.0
H353 H 0.80541 0.32273 0.84962 0.0
H354 H 0.8846 0.36819 0.90153 0.0
H355 H 0.90706 0.35952 0.84218 0.0
H356 H 0.92854 0.18573 0.63571 0.0
H357 H 0.91472 0.17554 0.56623 0.0
H358 H 0.8467 0.11414 0.59509 0.0
H359 H 0.86157 0.12362 0.66575 0.0
Ho360 Ho 0.59972 0.70254 0.11018 0.0
Ho361 Ho 0.61696 0.76281 0.08546 0.0
C362 C 0.59477 0.75723 0.1716 0.0
C363 C 0.59983 0.65267 0.14359 0.0
C364 C 0.61152 0.64214 0.18235 0.0
C365 C 0.64055 0.63561 0.18963 0.0
C366 C 0.65231 0.62905 0.22759 0.0
C367 C 0.63498 0.62806 0.25856 0.0
C368 C 0.60558 0.63286 0.25078 0.0
C369 C 0.59396 0.6398 0.21306 0.0
C370 C 0.55533 0.73079 0.07412 0.0
C371 C 0.60234 0.71023 1.01754 0.0
C372 C 0.62816 0.81194 0.05242 0.0
C373 C 0.63358 0.82058 1.01252 0.0
C374 C 0.62507 0.80172 0.98043 0.0
C375 C 0.63185 0.80918 0.94295 0.0
C376 C 0.647 0.83582 0.93678 0.0
C377 C 0.65552 0.85475 0.96895 0.0
C378 C 0.64904 0.84703 1.00668 0.0
C379 C 0.65761 0.73809 0.13339 0.0
O380 O 0.59818 0.72885 0.16798 0.0
O381 O 0.59738 0.77454 0.14092 0.0
O382 O 0.57846 0.66955 0.14343 0.0
O383 O 0.61882 0.66176 0.12013 0.0
O384 O 0.55807 0.70311 0.07051 0.0
O385 O 0.57633 0.74112 0.09734 0.0
O386 O 0.61021 0.73791 1.02645 0.0
O387 O 0.59874 0.69113 0.04554 0.0
O388 O 0.64787 0.79668 0.07049 0.0
O389 O 0.60196 0.80157 0.05703 0.0
O390 O 0.65233 0.7651 0.13489 0.0
O391 O 0.64191 0.72534 0.10479 0.0
H392 H 0.65443 0.63639 0.16627 0.0
H393 H 0.675 0.62529 0.23292 0.0
H394 H 0.5918 0.63261 0.27428 0.0
H395 H 0.57143 0.64429 0.20829 0.0
H396 H 0.61295 0.78134 0.98414 0.0
H397 H 0.6243 0.79452 0.91852 0.0
H398 H 0.66696 0.87553 0.96482 0.0
H399 H 0.65603 0.86173 1.03125 0.0
Ho400 Ho 0.66191 0.29 0.9587 0.0
Ho401 Ho 0.65512 0.23231 0.91228 0.0
C402 C 0.66559 0.22955 1.00482 0.0
C403 C 0.66206 0.33404 1.00562 0.0
C404 C 0.65336 0.34178 0.04427 0.0
C405 C 0.6242 0.34395 0.04939 0.0
C406 C 0.61646 0.35372 0.08514 0.0
C407 C 0.63765 0.36143 0.11664 0.0
C408 C 0.66678 0.35891 0.11165 0.0
C409 C 0.67455 0.3493 0.07574 0.0
C410 C 0.70768 0.27738 0.92209 0.0
C411 C 0.64422 0.29341 0.86673 0.0
C412 C 0.65987 0.19089 0.86266 0.0
C413 C 0.65029 0.18456 0.82072 0.0
C414 C 0.66965 0.17365 0.79685 0.0
C415 C 0.66097 0.16705 0.75717 0.0
C416 C 0.63268 0.17114 0.74061 0.0
C417 C 0.61332 0.1822 0.76457 0.0
C418 C 0.62208 0.18901 0.80423 0.0
C419 C 0.60707 0.24639 0.94313 0.0
O420 O 0.6578 0.25645 1.00514 0.0
O421 O 0.67059 0.2162 0.97217 0.0
O422 O 0.68379 0.31768 1.00557 0.0
O423 O 0.64146 0.32725 0.97727 0.0
O424 O 0.69974 0.30327 0.92676 0.0
O425 O 0.69212 0.25949 0.93976 0.0
O426 O 0.64822 0.26536 0.86388 0.0
O427 O 0.64517 0.30707 0.90088 0.0
O428 O 0.63981 0.19057 0.88643 0.0
O429 O 0.67949 0.21238 0.87024 0.0
O430 O 0.61374 0.22001 0.93771 0.0
O431 O 0.62487 0.26377 0.92849 0.0
H432 H 0.60733 0.33868 1.02559 0.0
H433 H 0.59385 0.3559 0.08772 0.0
H434 H 0.68358 0.36437 0.13547 0.0
H435 H 0.6972 0.34811 0.07241 0.0
H436 H 0.69149 0.1701 0.80897 0.0
H437 H 0.67632 0.15834 0.73956 0.0
H438 H 0.59153 0.18596 0.75252 0.0
H439 H 0.60678 0.19769 0.82194 0.0
Ho440 Ho 0.84345 0.68646 0.41188 0.0
Ho441 Ho 0.84642 0.74055 0.36311 0.0
C442 C 0.84096 0.74904 0.45303 0.0
C443 C 0.84415 0.64673 0.46491 0.0
C444 C 0.85692 0.64386 0.5058 0.0
C445 C 0.8839 0.65777 0.5188 0.0
C446 C 0.89611 0.6545 0.55741 0.0
C447 C 0.88133 0.6378 0.58425 0.0
C448 C 0.85416 0.62401 0.57114 0.0
C449 C 0.8421 0.62699 0.53216 0.0
C450 C 0.7965 0.69219 0.35939 0.0
C451 C 0.8651 0.67936 0.3277 0.0
C452 C 0.83902 0.77851 0.3082 0.0
C453 C 0.85149 0.78532 0.27116 0.0
C454 C 0.83314 0.78573 0.2359 0.0
C455 C 0.84431 0.79176 0.20035 0.0
C456 C 0.8741 0.79777 0.19936 0.0
C457 C 0.8925 0.79767 0.23474 0.0
C458 C 0.88133 0.79135 0.27031 0.0
C459 C 0.89646 0.73244 0.4082 0.0
O460 O 0.85056 0.72291 0.45677 0.0
O461 O 0.83134 0.75863 0.41793 0.0
O462 O 0.82377 0.66471 0.45924 0.0
O463 O 0.86226 0.64898 0.4383 0.0
O464 O 0.80716 0.66795 0.36924 0.0
O465 O 0.81005 0.71265 0.38022 0.0
O466 O 0.85758 0.70616 0.32061 0.0
O467 O 0.86452 0.66771 0.36289 0.0
O468 O 0.85585 0.78348 0.34099 0.0
O469 O 0.82321 0.75404 0.30864 0.0
O470 O 0.88804 0.75763 0.39771 0.0
O471 O 0.87941 0.71295 0.39084 0.0
H472 H 0.89568 0.67102 0.49905 0.0
H473 H 0.91736 0.66492 0.56602 0.0
H474 H 0.84207 0.61125 0.59104 0.0
H475 H 0.82114 0.61621 0.5226 0.0
H476 H 0.81011 0.78134 0.23585 0.0
H477 H 0.82954 0.79204 0.17364 0.0
H478 H 0.91557 0.80198 0.23481 0.0
H479 H 0.89608 0.79108 0.29703 0.0
Ho480 Ho 0.52964 0.66278 0.65107 0.0
Ho481 Ho 0.4745 0.63293 0.67156 0.0
C482 C 0.47214 0.66811 0.58982 0.0
C483 C 0.57787 0.67847 0.62448 0.0
C484 C 0.59206 0.67294 0.58947 0.0
C485 C 0.62223 0.67439 0.59266 0.0
C486 C 0.63634 0.66636 0.56082 0.0
C487 C 0.62041 0.65675 0.52531 0.0
C488 C 0.59007 0.6558 0.52214 0.0
C489 C 0.57599 0.66363 0.55408 0.0
C490 C 0.4983 0.6939 0.69609 0.0
C491 C 0.52956 0.64465 0.74054 0.0
C492 C 0.4306 0.60727 0.69986 0.0
C493 C 0.42042 0.60507 0.73873 0.0
C494 C 0.42827 0.62703 0.76714 0.0
C495 C 0.42058 0.62359 0.80514 0.0
C496 C 0.40537 0.59793 0.81541 0.0
C497 C 0.39728 0.57608 0.78683 0.0
C498 C 0.40465 0.57973 0.74858 0.0
C499 C 0.49833 0.60446 0.61591 0.0
O500 O 0.5006 0.66671 0.59341 0.0
O501 O 0.45706 0.65986 0.61938 0.0
O502 O 0.55534 0.69392 0.62008 0.0
O503 O 0.57407 0.65572 0.64632 0.0
O504 O 0.5262 0.69687 0.69911 0.0
O505 O 0.48952 0.67753 0.66777 0.0
O506 O 0.50102 0.6404 0.73293 0.0
O507 O 0.54545 0.64702 0.71097 0.0
O508 O 0.45453 0.59488 0.69659 0.0
O509 O 0.43005 0.63274 0.68339 0.0
O510 O 0.47127 0.60686 0.61741 0.0
O511 O 0.5129 0.61639 0.64624 0.0
H512 H 0.63486 0.68113 0.6201 0.0
H513 H 0.65967 0.6671 0.56427 0.0
H514 H 0.57715 0.64908 0.49492 0.0
H515 H 0.55263 0.66205 0.55134 0.0
H516 H 0.44101 0.64644 0.7603 0.0
H517 H 0.42751 0.6405 0.82694 0.0
H518 H 0.38561 0.55612 0.79424 0.0
H519 H 0.39871 0.56247 0.72697 0.0
Ho520 Ho 0.96504 0.37026 0.19382 0.0
Ho521 Ho -0.00653 0.35281 0.1131 0.0
C522 C 0.03542 0.38124 0.18536 0.0
C523 C 0.95541 0.36872 0.26865 0.0
C524 C 0.94586 0.35357 0.30526 0.0
C525 C 0.96055 0.33045 0.32278 0.0
C526 C 0.95403 0.31868 0.35922 0.0
C527 C 0.93285 0.32977 0.38069 0.0
C528 C 0.9184 0.35324 0.36349 0.0
C529 C 0.92471 0.36478 0.32658 0.0
C530 C 0.9679 0.41197 0.13799 0.0
C531 C 0.92412 0.34963 0.11879 0.0
C532 C 0.00789 0.33958 0.04338 0.0
C533 C 0.01615 0.33154 1.00277 0.0
C534 C 0.03138 0.35179 0.98068 0.0
C535 C 0.03987 0.34441 0.94358 0.0
C536 C 0.03335 0.31641 0.9261 0.0
C537 C 0.01838 0.29592 0.94853 0.0
C538 C 0.01004 0.30332 0.98601 0.0
C539 C -0.00583 0.31653 0.17466 0.0
O540 O 0.01319 0.38012 0.20674 0.0
O541 O 0.03323 0.37414 0.14731 0.0
O542 O 0.93686 0.3776 0.24037 0.0
O543 O 0.97895 0.3613 0.25505 0.0
O544 O 0.95142 0.41255 0.16644 0.0
O545 O 0.98489 0.39234 0.14537 0.0
O546 O 0.94569 0.35619 0.09731 0.0
O547 O 0.92761 0.34718 0.15755 0.0
O548 O -0.00509 0.32096 0.06564 0.0
O549 O 0.01213 0.36588 0.05896 0.0
O550 O 0.01431 0.319 0.15141 0.0
O551 O 0.97402 0.33152 0.16224 0.0
H552 H 0.97779 0.3218 0.30882 0.0
H553 H 0.96631 0.30111 0.37106 0.0
H554 H 0.90192 0.36259 0.37839 0.0
H555 H 0.91334 0.38305 0.31505 0.0
H556 H 0.03707 0.37356 0.99226 0.0
H557 H 0.05201 0.36098 0.92878 0.0
H558 H 0.0126 0.27418 0.93693 0.0
H559 H -0.00128 0.28678 1.00194 0.0
Ho560 Ho 0.53247 0.40041 0.43292 0.0
Ho561 Ho 0.47875 0.40037 0.37613 0.0
C562 C 0.46978 0.38023 0.46258 0.0
C563 C 0.57193 0.41006 0.49156 0.0
C564 C 0.57883 0.39892 0.53167 0.0
C565 C 0.57032 0.41354 0.56413 0.0
C566 C 0.57807 0.40422 0.60228 0.0
C567 C 0.59478 0.38027 0.6089 0.0
C568 C 0.60286 0.36526 0.57647 0.0
C569 C 0.59506 0.37457 0.5382 0.0
C570 C 0.52146 0.35048 0.39143 0.0
C571 C 0.5404 0.41033 0.34467 0.0
C572 C 0.43693 0.39631 0.31934 0.0
C573 C 0.42828 0.38845 0.27761 0.0
C574 C 0.44056 0.36622 0.25846 0.0
C575 C 0.42972 0.35773 0.21984 0.0
C576 C 0.40643 0.37133 0.19976 0.0
C577 C 0.39474 0.39398 0.219 0.0
C578 C 0.40557 0.40241 0.25741 0.0
C579 C 0.49352 0.45014 0.41877 0.0
O580 O 0.49751 0.38794 0.47245 0.0
O581 O 0.45783 0.38118 0.42594 0.0
O582 O 0.57454 0.39262 0.46211 0.0
O583 O 0.54897 0.42471 0.48567 0.0
O584 O 0.54698 0.36215 0.40301 0.0
O585 O 0.5025 0.36479 0.40496 0.0
O586 O 0.51412 0.39774 0.33761 0.0
O587 O 0.55061 0.41997 0.38029 0.0
O588 O 0.45381 0.41987 0.32714 0.0
O589 O 0.443 0.37532 0.34366 0.0
O590 O 0.46735 0.43891 0.41104 0.0
O591 O 0.51024 0.43493 0.4028 0.0
H592 H 0.55796 0.43247 0.56012 0.0
H593 H 0.57117 0.41597 0.62668 0.0
H594 H 0.61598 0.3469 0.58072 0.0
H595 H 0.60219 0.36298 0.51383 0.0
H596 H 0.45816 0.35515 0.27351 0.0
H597 H 0.43951 0.34048 0.20576 0.0
H598 H 0.37658 0.40468 0.20484 0.0
H599 H 0.39564 0.41945 0.27178 0.0
Ho600 Ho 0.9837 0.58998 0.92706 0.0
Ho601 Ho 0.04279 0.59499 0.89636 0.0
C602 C 0.04009 0.6203 0.98162 0.0
C603 C 0.94126 0.5775 0.96807 0.0
C604 C 0.93583 0.58215 1.0092 0.0
C605 C 0.95725 0.57912 0.04083 0.0
C606 C 0.95213 0.5862 0.07924 0.0
C607 C 0.92566 0.59671 0.08653 0.0
C608 C 0.90423 0.59928 0.0548 0.0
C609 C 0.90926 0.59201 1.01658 0.0
C610 C -0.00678 0.63901 0.88735 0.0
C611 C 0.98485 0.5829 0.83535 0.0
C612 C 0.0883 0.60157 0.85949 0.0
C613 C 0.09715 0.61011 0.8209 0.0
C614 C 0.08033 0.62713 0.79486 0.0
C615 C 0.09013 0.63596 0.75916 0.0
C616 C 0.11683 0.62782 0.74886 0.0
C617 C 0.1333 0.61046 0.77498 0.0
C618 C 0.12354 0.60173 0.81057 0.0
C619 C 0.03157 0.5485 0.94192 0.0
O620 O 0.01391 0.60692 0.98049 0.0
O621 O 0.0545 0.62168 0.95055 0.0
O622 O 0.94382 0.6011 0.94762 0.0
O623 O 0.9602 0.55906 0.96134 0.0
O624 O 0.96815 0.62532 0.88832 0.0
O625 O 0.01214 0.62717 0.91005 0.0
O626 O 0.0122 0.5926 0.84152 0.0
O627 O 0.9702 0.57406 0.8647 0.0
O628 O 0.07293 0.57688 0.86082 0.0
O629 O 0.0793 0.62199 0.88077 0.0
O630 O 0.05642 0.56277 0.94251 0.0
O631 O 0.01441 0.55872 0.91538 0.0
H632 H 0.97807 0.57185 1.03581 0.0
H633 H 0.96911 0.58415 0.10308 0.0
H634 H 0.8835 0.60691 0.05954 0.0
H635 H 0.89253 0.59462 0.99256 0.0
H636 H 0.05981 0.63375 0.80227 0.0
H637 H 0.07673 0.64902 0.73954 0.0
H638 H 0.15411 0.60412 0.76835 0.0
H639 H 0.13687 0.5887 0.83038 0.0
H640 H 0.15518 0.09353 0.97445 0.0
H641 H 0.07174 0.04616 0.97124 0.0
H642 H 0.07294 0.03443 0.90106 0.0
H643 H 0.14103 0.12939 0.89459 0.0
H644 H 0.17542 0.1296 0.87539 0.0
H645 H 0.17356 0.12549 0.92714 0.0
H646 H 0.19863 0.07732 0.92626 0.0
H647 H 0.20113 0.0815 0.87428 0.0
H648 H 0.1841 0.04871 0.89214 0.0
H649 H 0.07686 0.03889 0.83036 0.0
H650 H 0.08297 0.05915 0.76509 0.0
H651 H 0.16364 0.10467 0.81272 0.0
C652 C 0.13802 0.07928 0.95941 0.0
C653 C 0.11362 0.07026 0.97817 0.0
C654 C 0.0908 0.05281 0.95735 0.0
C655 C 0.09139 0.04598 0.91754 0.0
C656 C 0.11501 0.05672 0.8991 0.0
C657 C 0.13815 0.07272 0.9195 0.0
C658 C 0.15812 0.08644 0.89177 0.0
C659 C 0.16222 0.11967 0.89757 0.0
C660 C 0.18722 0.07266 0.89639 0.0
C661 C 0.14119 0.07802 0.85265 0.0
C662 C 0.11701 0.05993 0.85744 0.0
C663 C 0.0962 0.05223 0.82605 0.0
C664 C 0.09984 0.06388 0.78907 0.0
C665 C 0.12387 0.08334 0.78398 0.0
C666 C 0.14519 0.0897 0.8159 0.0
H667 H 0.13777 0.7739 0.2931 0.0
H668 H 0.08531 0.82107 0.36521 0.0
H669 H 0.06678 0.84807 0.30725 0.0
H670 H 0.15783 0.83346 0.23466 0.0
H671 H 0.15615 0.81291 0.18936 0.0
H672 H 0.16408 0.7954 0.23584 0.0
H673 H 0.12125 0.75724 0.21797 0.0
H674 H 0.11335 0.77444 0.17124 0.0
H675 H 0.08577 0.7692 0.20393 0.0
H676 H 0.05567 0.8717 0.24366 0.0
H677 H 0.05125 0.89009 0.17598 0.0
H678 H 0.1106 0.82831 0.14345 0.0
C679 C 0.12203 0.78957 0.29645 0.0
C680 C 0.11299 0.79541 0.33365 0.0
C681 C 0.09267 0.81635 0.33706 0.0
C682 C 0.08194 0.83177 0.30429 0.0
C683 C 0.09171 0.82603 0.26828 0.0
C684 C 0.11114 0.80538 0.26392 0.0
C685 C 0.11872 0.80435 0.22192 0.0
C686 C 0.15112 0.81199 0.22038 0.0
C687 C 0.1092 0.77454 0.20263 0.0
C688 C 0.10076 0.82793 0.20367 0.0
C689 C 0.08528 0.83996 0.23105 0.0
C690 C 0.06742 0.86232 0.22176 0.0
C691 C 0.06501 0.87256 0.18324 0.0
C692 C 0.0804 0.86049 0.15443 0.0
C693 C 0.09868 0.83801 0.16493 0.0
H694 H 0.35555 0.8151 0.43105 0.0
H695 H 0.32515 0.90147 0.42204 0.0
H696 H 0.33625 0.90808 0.49414 0.0
H697 H 0.3369 0.79829 0.53582 0.0
H698 H 0.36992 0.78042 0.54565 0.0
H699 H 0.35069 0.77886 0.49688 0.0
H700 H 0.39691 0.79948 0.46833 0.0
H701 H 0.41601 0.80099 0.51665 0.0
H702 H 0.41459 0.83339 0.48753 0.0
H703 H 0.36075 0.9096 0.56266 0.0
H704 H 0.39954 0.90756 0.6178 0.0
H705 H 0.4157 0.82125 0.58064 0.0
C706 C 0.34966 0.8348 0.44446 0.0
C707 C 0.33899 0.85758 0.42112 0.0
C708 C 0.33304 0.88364 0.43952 0.0
C709 C 0.33906 0.88744 0.48048 0.0
C710 C 0.35094 0.86496 0.50248 0.0
C711 C 0.35603 0.83902 0.48494 0.0
C712 C 0.37432 0.82063 0.51266 0.0
C713 C 0.3569 0.79291 0.5234 0.0
C714 C 0.40208 0.81326 0.49526 0.0
C715 C 0.3807 0.8412 0.54754 0.0
C716 C 0.36607 0.86616 0.54193 0.0
C717 C 0.37165 0.88987 0.5679 0.0
C718 C 0.39369 0.8886 0.5991 0.0
C719 C 0.41008 0.86413 0.60317 0.0
C720 C 0.40267 0.83976 0.57838 0.0
H721 H 0.37565 0.21955 0.74716 0.0
H722 H 0.41289 0.1623 0.83629 0.0
H723 H 0.43131 0.13373 0.78491 0.0
H724 H 0.3519 0.16508 0.6763 0.0
H725 H 0.36018 0.18634 0.63441 0.0
H726 H 0.35181 0.20409 0.67833 0.0
H727 H 0.40024 0.23538 0.68229 0.0
H728 H 0.40875 0.21786 0.6382 0.0
H729 H 0.43348 0.21785 0.68254 0.0
H730 H 0.44254 0.10917 0.72463 0.0
H731 H 0.44735 0.09075 0.6579 0.0
H732 H 0.40338 0.16362 0.60726 0.0
C733 C 0.38806 0.20128 0.75589 0.0
C734 C 0.39278 0.19315 0.79573 0.0
C735 C 0.40887 0.16892 0.80595 0.0
C736 C 0.41954 0.15256 0.77701 0.0
C737 C 0.41406 0.16078 0.738 0.0
C738 C 0.39889 0.18463 0.72731 0.0
C739 C 0.39497 0.18788 0.683 0.0
C740 C 0.36281 0.1857 0.66709 0.0
C741 C 0.41028 0.21644 0.6708 0.0
C742 C 0.40987 0.16179 0.67059 0.0
C743 C 0.42079 0.14657 0.70286 0.0
C744 C 0.43434 0.12099 0.69906 0.0
C745 C 0.43678 0.1106 0.66115 0.0
C746 C 0.42572 0.12579 0.62765 0.0
C747 C 0.41232 0.15183 0.63248 0.0
H748 H 0.91448 0.84107 0.18311 0.0
H749 H 0.85998 0.76819 0.12981 0.0
H750 H 0.87733 0.7793 0.06558 0.0
H751 H 0.90386 0.88853 0.10106 0.0
H752 H 0.94028 0.90478 0.10659 0.0
H753 H 0.92435 0.89089 0.14897 0.0
H754 H 0.96631 0.85707 0.16482 0.0
H755 H 0.98233 0.87274 0.12366 0.0
H756 H 0.97576 0.83387 0.12632 0.0
H757 H 0.89833 0.79939 1.00701 0.0
H758 H 0.9242 0.82561 0.95743 0.0
H759 H 0.96711 0.88456 0.0483 0.0
C760 C 0.90652 0.82725 0.158 0.0
C761 C 0.88577 0.80383 0.16136 0.0
C762 C 0.87555 0.78647 0.12774 0.0
C763 C 0.88538 0.79252 0.09121 0.0
C764 C 0.90547 0.81599 0.08876 0.0
C765 C 0.91609 0.83302 0.1212 0.0
C766 C 0.93713 0.85734 0.11013 0.0
C767 C 0.92571 0.88714 0.1171 0.0
C768 C 0.96718 0.85505 0.13256 0.0
C769 C 0.93701 0.85098 0.06651 0.0
C770 C 0.91825 0.82725 0.05484 0.0
C771 C 0.91325 0.81786 1.01578 0.0
C772 C 0.92792 0.833 0.98782 0.0
C773 C 0.94767 0.85703 0.99907 0.0
C774 C 0.95236 0.86606 0.039 0.0
H775 H 0.90829 0.23332 0.89545 0.0
H776 H 0.97989 0.21645 0.83025 0.0
H777 H 0.00725 0.20044 0.89093 0.0
H778 H 0.95219 0.2577 0.98881 0.0
H779 H 0.92831 0.23966 1.02032 0.0
H780 H 0.91422 0.25215 0.97264 0.0
H781 H 0.89203 0.20059 0.9538 0.0
H782 H 0.9058 0.18779 1.00141 0.0
H783 H 0.91471 0.17054 0.95734 0.0
H784 H 0.02676 0.18384 0.9568 0.0
H785 H 0.03753 0.16743 1.02453 0.0
H786 H 0.95412 0.1925 0.05191 0.0
C787 C 0.92997 0.22685 0.89422 0.0
C788 C 0.94205 0.22671 0.85757 0.0
C789 C 0.97018 0.21717 0.85753 0.0
C790 C 0.98597 0.20795 0.89202 0.0
C791 C 0.97352 0.20783 0.92724 0.0
C792 C 0.94617 0.21697 0.92891 0.0
C793 C 0.9378 0.21297 0.97088 0.0
C794 C 0.93283 0.24237 0.98926 0.0
C795 C 0.91099 0.19171 0.97084 0.0
C796 C 0.96459 0.20005 0.99208 0.0
C797 C 0.98483 0.19752 0.96598 0.0
C798 C 0.01109 0.18585 0.97751 0.0
C799 C 0.017 0.17646 1.01646 0.0
C800 C -0.00307 0.17845 0.0445 0.0
C801 C 0.9702 0.19062 1.03174 0.0
H802 H 0.58208 0.14226 0.70769 0.0
H803 H 0.66279 0.18416 0.67815 0.0
H804 H 0.64872 0.17153 0.60811 0.0
H805 H 0.57868 0.08307 0.63769 0.0
H806 H 0.54014 0.08222 0.62575 0.0
H807 H 0.55632 0.09451 0.67378 0.0
H808 H 0.53186 0.14296 0.66437 0.0
H809 H 0.51552 0.13073 0.61641 0.0
H810 H 0.53737 0.16456 0.62172 0.0
H811 H 0.62655 0.15413 0.5419 0.0
H812 H 0.59691 0.13433 0.48257 0.0
H813 H 0.52978 0.10415 0.55408 0.0
C814 C 0.59665 0.14899 0.6864 0.0
C815 C 0.62362 0.1641 0.69839 0.0
C816 C 0.64224 0.17222 0.66972 0.0
C817 C 0.63438 0.16526 0.62986 0.0
C818 C 0.60783 0.15014 0.6191 0.0
C819 C 0.58917 0.14214 0.64641 0.0
C820 C 0.56197 0.12581 0.62683 0.0
C821 C 0.55912 0.09455 0.64192 0.0
C822 C 0.5351 0.14199 0.63268 0.0
C823 C 0.56816 0.12629 0.5842 0.0
C824 C 0.59484 0.14025 0.58056 0.0
C825 C 0.6056 0.14319 0.54432 0.0
C826 C 0.58858 0.13176 0.51077 0.0
C827 C 0.56096 0.11767 0.51355 0.0
C828 C 0.55074 0.11487 0.5509 0.0
H829 H 0.55807 0.76827 0.40081 0.0
H830 H 0.53641 0.85643 0.374 0.0
H831 H 0.54724 0.84949 0.30616 0.0
H832 H 0.6182 0.76822 0.3417 0.0
H833 H 0.61061 0.73121 0.32456 0.0
H834 H 0.60025 0.7421 0.37142 0.0
H835 H 0.54764 0.7232 0.34921 0.0
H836 H 0.55769 0.71244 0.30209 0.0
H837 H 0.52934 0.73659 0.30454 0.0
H838 H 0.56183 0.8344 0.24061 0.0
H839 H 0.57742 0.81175 0.18213 0.0
H840 H 0.59153 0.73282 0.24759 0.0
C841 C 0.55562 0.78622 0.38083 0.0
C842 C 0.54575 0.81298 0.39387 0.0
C843 C 0.54298 0.83547 0.36572 0.0
C844 C 0.54943 0.83184 0.3267 0.0
C845 C 0.55895 0.8055 0.31506 0.0
C846 C 0.56202 0.78295 0.34117 0.0
C847 C 0.57286 0.75691 0.3204 0.0
C848 C 0.60222 0.74915 0.34074 0.0
C849 C 0.55056 0.73072 0.31898 0.0
C850 C 0.57571 0.76856 0.27892 0.0
C851 C 0.56747 0.79668 0.27679 0.0
C852 C 0.56831 0.81237 0.24212 0.0
C853 C 0.57741 0.79917 0.20876 0.0
C854 C 0.58593 0.77024 0.20931 0.0
C855 C 0.58515 0.75487 0.24549 0.0
H856 H 0.61426 0.59308 0.31397 0.0
H857 H 0.68264 0.65814 0.29573 0.0
H858 H 0.69454 0.66395 0.36754 0.0
H859 H 0.58651 0.6288 0.37996 0.0
H860 H 0.57656 0.59942 0.41139 0.0
H861 H 0.58005 0.59222 0.36066 0.0
H862 H 0.61743 0.55466 0.38023 0.0
H863 H 0.61362 0.56124 0.43139 0.0
H864 H 0.64877 0.56497 0.41428 0.0
H865 H 0.68911 0.67338 0.43738 0.0
H866 H 0.66905 0.68332 0.49937 0.0
H867 H 0.60452 0.61162 0.47374 0.0
C868 C 0.63262 0.60747 0.32531 0.0
C869 C 0.64759 0.62509 0.29968 0.0
C870 C 0.67123 0.64411 0.31505 0.0
C871 C 0.67809 0.64756 0.35582 0.0
C872 C 0.66139 0.63147 0.38055 0.0
C873 C 0.63952 0.61123 0.36585 0.0
C874 C 0.62143 0.60055 0.39761 0.0
C875 C 0.58928 0.60559 0.38674 0.0
C876 C 0.62558 0.56845 0.40641 0.0
C877 C 0.63478 0.61986 0.43154 0.0
C878 C 0.65832 0.63694 0.42156 0.0
C879 C 0.67143 0.65941 0.44612 0.0
C880 C 0.65983 0.66494 0.48128 0.0
C881 C 0.6352 0.64823 0.49133 0.0
C882 C 0.62332 0.62479 0.46675 0.0
H883 H 0.62605 0.27405 0.79081 0.0
H884 H 0.65136 0.35199 0.86166 0.0
H885 H 0.64313 0.3819 0.80294 0.0
H886 H 0.65737 0.29871 0.70286 0.0
H887 H 0.62809 0.28243 0.66938 0.0
H888 H 0.63705 0.26647 0.71673 0.0
H889 H 0.58458 0.26987 0.73268 0.0
H890 H 0.57537 0.28579 0.68541 0.0
H891 H 0.5689 0.30444 0.7297 0.0
H892 H 0.63164 0.40369 0.73828 0.0
H893 H 0.61606 0.41659 0.66988 0.0
H894 H 0.59653 0.3253 0.63979 0.0
C895 C 0.62998 0.29739 0.79382 0.0
C896 C 0.63921 0.31069 0.83083 0.0
C897 C 0.644 0.34131 0.83371 0.0
C898 C 0.63955 0.35853 0.80049 0.0
C899 C 0.63022 0.34486 0.76458 0.0
C900 C 0.62537 0.31506 0.76086 0.0
C901 C 0.61432 0.30623 0.71879 0.0
C902 C 0.63548 0.28735 0.70089 0.0
C903 C 0.58399 0.29067 0.71653 0.0
C904 C 0.61363 0.33579 0.69974 0.0
C905 C 0.62308 0.35766 0.72679 0.0
C906 C 0.6241 0.38681 0.71673 0.0
C907 C 0.615 0.39392 0.6779 0.0
C908 C 0.60483 0.37199 0.64963 0.0
C909 C 0.60438 0.34251 0.66071 0.0
H910 H 0.9002 0.39308 0.08021 0.0
H911 H 0.88471 0.30293 0.10893 0.0
H912 H 0.84362 0.29806 0.05671 0.0
H913 H 0.81922 0.40539 1.03571 0.0
H914 H 0.83365 0.42839 0.9991 0.0
H915 H 0.85162 0.42852 0.0486 0.0
H916 H 0.89912 0.41681 1.02151 0.0
H917 H 0.88152 0.41717 0.97259 0.0
H918 H 0.89929 0.38549 0.98984 0.0
H919 H 0.81913 0.29793 0.99005 0.0
H920 H 0.81706 0.30166 0.91817 0.0
H921 H 0.84613 0.39245 0.92994 0.0
C922 C 0.88684 0.3729 0.07669 0.0
C923 C 0.895 0.34848 0.09822 0.0
C924 C 0.87816 0.32196 0.09292 0.0
C925 C 0.85475 0.31914 0.0634 0.0
C926 C 0.84844 0.34317 0.04009 0.0
C927 C 0.86368 0.3699 0.04717 0.0
C928 C 0.85785 0.39032 1.01325 0.0
C929 C 0.83947 0.41458 1.02487 0.0
C930 C 0.8861 0.4031 0.99841 0.0
C931 C 0.84062 0.36967 0.98361 0.0
C932 C 0.83389 0.34308 1.0003 0.0
C933 C 0.82337 0.31887 0.97701 0.0
C934 C 0.82222 0.32114 0.93601 0.0
C935 C 0.83196 0.34728 0.91893 0.0
C936 C 0.83858 0.37233 0.94274 0.0
H937 H 0.86536 0.69337 0.24958 0.0
H938 H 0.89026 0.62762 0.33448 0.0
H939 H 0.9097 0.60017 0.28255 0.0
H940 H 0.84266 0.64427 0.16876 0.0
H941 H 0.85608 0.66812 0.13232 0.0
H942 H 0.84479 0.68305 0.17642 0.0
H943 H 0.89474 0.71104 0.19177 0.0
H944 H 0.90628 0.69616 0.14778 0.0
H945 H 0.92686 0.69143 0.19477 0.0
H946 H 0.92675 0.57986 0.22151 0.0
H947 H 0.93775 0.56694 0.15473 0.0
H948 H 0.90119 0.64542 0.1095 0.0
C949 C 0.87495 0.67324 0.25732 0.0
C950 C 0.87632 0.66272 0.29621 0.0
C951 C 0.8889 0.63616 0.30495 0.0
C952 C 0.90011 0.62042 0.27567 0.0
C953 C 0.8985 0.63144 0.23771 0.0
C954 C 0.88611 0.65715 0.2284 0.0
C955 C 0.8865 0.66385 0.18511 0.0
C956 C 0.85567 0.66487 0.16444 0.0
C957 C 0.90468 0.6923 0.17955 0.0
C958 C 0.90091 0.63778 0.17153 0.0
C959 C 0.90788 0.61948 0.20239 0.0
C960 C 0.9214 0.59402 0.19709 0.0
C961 C 0.9277 0.58693 0.15914 0.0
C962 C 0.92025 0.60509 0.12694 0.0
C963 C 0.90685 0.63094 0.13347 0.0
H964 H 0.48383 0.37616 0.54331 0.0
H965 H 0.41376 0.35864 0.44979 0.0
H966 H 0.38236 0.33985 0.49811 0.0
H967 H 0.46736 0.31255 0.60123 0.0
H968 H 0.47615 0.33123 0.64791 0.0
H969 H 0.49394 0.34297 0.60598 0.0
H970 H 0.47761 0.39482 0.61429 0.0
H971 H 0.45984 0.38331 0.65629 0.0
H972 H 0.43985 0.39991 0.61534 0.0
H973 H 0.35784 0.32384 0.55556 0.0
H974 H 0.34145 0.31185 0.62005 0.0
H975 H 0.42649 0.33947 0.67759 0.0
C976 C 0.46192 0.36828 0.53302 0.0
C977 C 0.45138 0.36896 0.49261 0.0
C978 C 0.42249 0.3585 0.48046 0.0
C979 C 0.40439 0.34766 0.50771 0.0
C980 C 0.41535 0.34734 0.54715 0.0
C981 C 0.44339 0.35734 0.55996 0.0
C982 C 0.44935 0.35495 0.60436 0.0
C983 C 0.47311 0.33419 0.61551 0.0
C984 C 0.45711 0.38504 0.6237 0.0
C985 C 0.42022 0.34223 0.61428 0.0
C986 C 0.40102 0.33798 0.58072 0.0
C987 C 0.37264 0.32703 0.58212 0.0
C988 C 0.36349 0.32044 0.61888 0.0
C989 C 0.38262 0.32481 0.65383 0.0
C990 C 0.41146 0.33561 0.65134 0.0
H991 H 0.48956 0.6702 0.51449 0.0
H992 H 0.42128 0.69514 0.581 0.0
H993 H 0.39815 0.71836 0.52171 0.0
H994 H 0.49388 0.73381 0.45367 0.0
H995 H 0.49954 0.71398 0.40995 0.0
H996 H 0.51117 0.70014 0.45781 0.0
H997 H 0.48097 0.65172 0.4404 0.0
H998 H 0.46937 0.66537 0.39244 0.0
H999 H 0.44304 0.65226 0.42408 0.0
H1000 H 0.38318 0.74113 0.45411 0.0
H1001 H 0.37544 0.75613 0.38443 0.0
H1002 H 0.45118 0.71322 0.3602 0.0
C1003 C 0.46971 0.68051 0.51663 0.0
C1004 C 0.45739 0.68078 0.5529 0.0
C1005 C 0.4312 0.69437 0.55387 0.0
C1006 C 0.41793 0.70782 0.52022 0.0
C1007 C 0.43067 0.70725 0.48508 0.0
C1008 C 0.4558 0.69353 0.48295 0.0
C1009 C 0.46447 0.69492 0.44122 0.0
C1010 C 0.49402 0.71171 0.44065 0.0
C1011 C 0.46445 0.66425 0.42349 0.0
C1012 C 0.44044 0.71163 0.42019 0.0
C1013 C 0.42135 0.71895 0.44613 0.0
C1014 C 0.39795 0.7352 0.43366 0.0
C1015 C 0.39374 0.7438 0.39388 0.0
C1016 C 0.41249 0.73583 0.36635 0.0
C1017 C 0.4362 0.71953 0.38013 0.0
H1018 H 0.0849 0.64083 0.2128 0.0
H1019 H 0.15024 0.70611 0.18354 0.0
H1020 H 0.13127 0.70123 0.11333 0.0
H1021 H 0.08742 0.59494 0.1303 0.0
H1022 H 0.04923 0.58497 0.12315 0.0
H1023 H 0.06646 0.595 0.17151 0.0
H1024 H 0.03052 0.63469 0.17658 0.0
H1025 H 0.01325 0.62478 0.12813 0.0
H1026 H 0.02694 0.66175 0.13891 0.0
H1027 H 0.10764 0.68753 0.04691 0.0
H1028 H 0.08115 0.66508 0.98692 0.0
H1029 H 0.03035 0.60857 0.05819 0.0
C1030 C 0.0949 0.65435 0.19159 0.0
C1031 C 0.11908 0.6738 0.20343 0.0
C1032 C 0.13193 0.69086 0.17492 0.0
C1033 C 0.12116 0.68841 0.1351 0.0
C1034 C 0.09751 0.66885 0.12433 0.0
C1035 C 0.08447 0.65208 0.15163 0.0
C1036 C 0.06026 0.63166 0.13176 0.0
C1037 C 0.06622 0.59976 0.13965 0.0
C1038 C 0.03101 0.63865 0.14461 0.0
C1039 C 0.06218 0.63919 0.089 0.0
C1040 C 0.08367 0.66088 0.08557 0.0
C1041 C 0.09061 0.6707 0.04918 0.0
C1042 C 0.07552 0.6577 1.01529 0.0
C1043 C 0.05373 0.63509 1.01798 0.0
C1044 C 0.04664 0.62607 0.05533 0.0
H1045 H 0.08486 0.22439 0.7405 0.0
H1046 H 0.08559 0.30645 0.67908 0.0
H1047 H 0.06894 0.33003 0.73579 0.0
H1048 H 0.02085 0.23541 0.79109 0.0
H1049 H 0.03488 0.21919 0.83646 0.0
H1050 H 0.04624 0.20788 0.79045 0.0
H1051 H 0.09936 0.21995 0.81883 0.0
H1052 H 0.08782 0.23159 0.86464 0.0
H1053 H 0.1104 0.2559 0.83815 0.0
H1054 H 0.05146 0.34606 0.79854 0.0
H1055 H 0.03652 0.35386 0.86393 0.0
H1056 H 0.04774 0.26333 0.89128 0.0
C1057 C 0.08156 0.24732 0.73895 0.0
C1058 C 0.08654 0.26313 0.70402 0.0
C1059 C 0.08191 0.29325 0.70435 0.0
C1060 C 0.07235 0.30711 0.73684 0.0
C1061 C 0.06748 0.2911 0.77022 0.0
C1062 C 0.07205 0.2619 0.77188 0.0
C1063 C 0.06536 0.25036 0.8123 0.0
C1064 C 0.04033 0.2268 0.80726 0.0
C1065 C 0.09234 0.23875 0.83481 0.0
C1066 C 0.05656 0.27762 0.83284 0.0
C1067 C 0.05789 0.30072 0.80751 0.0
C1068 C 0.05073 0.32814 0.81873 0.0
C1069 C 0.04244 0.33243 0.85666 0.0
C1070 C 0.04138 0.30969 0.88451 0.0
C1071 C 0.04826 0.28157 0.8716 0.0
H1072 H 0.95746 0.28671 0.21594 0.0
H1073 H 0.04254 0.32924 0.22538 0.0
H1074 H 0.05608 0.3038 0.2856 0.0
H1075 H 0.98068 0.24315 0.33119 0.0
H1076 H 0.95916 0.21224 0.3093 0.0
H1077 H 0.94492 0.24753 0.3079 0.0
H1078 H 0.9334 0.24313 0.23328 0.0
H1079 H 0.94688 0.20797 0.23523 0.0
H1080 H 0.96105 0.23465 0.20293 0.0
H1081 H 0.07338 0.25763 0.29241 0.0
H1082 H 0.08434 0.22088 0.24582 0.0
H1083 H -0.00614 0.19604 0.21931 0.0
C1084 C 0.97852 0.29077 0.23237 0.0
C1085 C -0.00059 0.3084 0.21584 0.0
C1086 C 0.02647 0.31497 0.23715 0.0
C1087 C 0.03408 0.30056 0.2719 0.0
C1088 C 0.01627 0.27647 0.28096 0.0
C1089 C 0.98746 0.27304 0.26399 0.0
C1090 C 0.97645 0.24161 0.26605 0.0
C1091 C 0.96468 0.23582 0.30596 0.0
C1092 C 0.95316 0.23129 0.2322 0.0
C1093 C 0.00496 0.2283 0.26538 0.0
C1094 C 0.02719 0.24763 0.28228 0.0
C1095 C 0.05604 0.24301 0.2786 0.0
C1096 C 0.06212 0.22257 0.25118 0.0
C1097 C 0.03949 0.20706 0.22774 0.0
C1098 C 0.01106 0.20841 0.23676 0.0
H1099 H 0.94291 0.77216 0.41624 0.0
H1100 H 0.91705 0.68187 0.43567 0.0
H1101 H 0.9677 0.67288 0.45807 0.0
H1102 H 0.00417 0.75875 0.3733 0.0
H1103 H 0.02598 0.79009 0.3938 0.0
H1104 H 0.98739 0.79081 0.38654 0.0
H1105 H 0.98688 0.80393 0.46028 0.0
H1106 H 0.02558 0.80326 0.46779 0.0
H1107 H 0.00343 0.781 0.49742 0.0
H1108 H 0.0211 0.67259 0.47193 0.0
H1109 H 0.07376 0.67968 0.47126 0.0
H1110 H 0.06556 0.76962 0.43889 0.0
C1111 C 0.94785 0.75069 0.42625 0.0
C1112 C 0.92613 0.72774 0.42493 0.0
C1113 C 0.93341 0.69976 0.43706 0.0
C1114 C 0.96207 0.69452 0.44989 0.0
C1115 C 0.98314 0.71748 0.45011 0.0
C1116 C 0.97643 0.74501 0.43843 0.0
C1117 C 0.00344 0.76499 0.43688 0.0
C1118 C 0.00535 0.77684 0.39515 0.0
C1119 C 0.00491 0.78976 0.46742 0.0
C1120 C 0.02642 0.74412 0.44804 0.0
C1121 C 0.01421 0.71704 0.45654 0.0
C1122 C 0.03091 0.69375 0.46572 0.0
C1123 C 0.0608 0.69799 0.46519 0.0
C1124 C 0.07364 0.72517 0.45489 0.0
C1125 C 0.05629 0.7487 0.44716 0.0
H1126 H 0.51286 0.72221 0.76641 0.0
H1127 H 0.44054 0.68502 0.68935 0.0
H1128 H 0.40776 0.71095 0.72354 0.0
H1129 H 0.44547 0.7637 0.8333 0.0
H1130 H 0.47331 0.79212 0.84478 0.0
H1131 H 0.48046 0.75504 0.85536 0.0
H1132 H 0.52435 0.76039 0.81686 0.0
H1133 H 0.517 0.79751 0.80755 0.0
H1134 H 0.52086 0.77347 0.76711 0.0
H1135 H 0.40144 0.75847 0.70155 0.0
H1136 H 0.42441 0.7907 0.6557 0.0
H1137 H 0.49378 0.81417 0.74614 0.0
C1138 C 0.4898 0.7192 0.75851 0.0
C1139 C 0.47924 0.70289 0.72459 0.0
C1140 C 0.4493 0.69771 0.71504 0.0
C1141 C 0.43036 0.71249 0.73486 0.0
C1142 C 0.44193 0.73548 0.7596 0.0
C1143 C 0.47075 0.73615 0.77642 0.0
C1144 C 0.47955 0.76623 0.79295 0.0
C1145 C 0.46901 0.76942 0.83391 0.0
C1146 C 0.51238 0.77488 0.79613 0.0
C1147 C 0.46121 0.78276 0.76275 0.0
C1148 C 0.43645 0.76541 0.74863 0.0
C1149 C 0.42092 0.77145 0.71226 0.0
C1150 C 0.43434 0.78921 0.68572 0.0
C1151 C 0.46149 0.80312 0.69745 0.0
C1152 C 0.47317 0.80255 0.73713 0.0
H1153 H 0.55846 0.20975 0.9379 0.0
H1154 H 0.58967 0.2994 0.96167 0.0
H1155 H 0.5397 0.31238 0.96582 0.0
H1156 H 0.50022 0.22504 0.87304 0.0
H1157 H 0.47598 0.19581 0.88709 0.0
H1158 H 0.51424 0.19245 0.89382 0.0
H1159 H 0.51186 0.18236 0.96796 0.0
H1160 H 0.47346 0.18563 0.96142 0.0
H1161 H 0.496 0.20782 0.99777 0.0
H1162 H 0.48649 0.31652 0.95995 0.0
H1163 H 0.43403 0.31247 0.94003 0.0
H1164 H 0.43719 0.22045 0.9165 0.0
C1165 C 0.55483 0.23194 0.94516 0.0
C1166 C 0.57786 0.25359 0.95005 0.0
C1167 C 0.57228 0.28254 0.95827 0.0
C1168 C 0.54401 0.29003 0.96081 0.0
C1169 C 0.52163 0.2683 0.95485 0.0
C1170 C 0.52671 0.23983 0.94707 0.0
C1171 C 0.49875 0.22136 0.93681 0.0
C1172 C 0.49722 0.20789 0.89523 0.0
C1173 C 0.49479 0.19791 0.96785 0.0
C1174 C 0.47717 0.24411 0.93856 0.0
C1175 C 0.49079 0.27088 0.94997 0.0
C1176 C 0.47557 0.29562 0.95145 0.0
C1177 C 0.4458 0.29312 0.94001 0.0
C1178 C 0.43168 0.26617 0.92667 0.0
C1179 C 0.44746 0.24125 0.92692 0.0
H1180 H 0.0504 0.80327 0.90717 0.0
H1181 H 0.96602 0.82263 0.85256 0.0
H1182 H 0.95576 0.77106 0.83251 0.0
H1183 H 0.06339 0.7423 0.83875 0.0
H1184 H 0.07977 0.72195 0.87899 0.0
H1185 H 0.08325 0.76108 0.88071 0.0
H1186 H 0.06197 0.7606 0.94761 0.0
H1187 H 0.0584 0.72163 0.94609 0.0
H1188 H 0.02732 0.74167 0.95124 0.0
H1189 H 0.95204 0.71768 0.82699 0.0
H1190 H 0.95268 0.66566 0.84132 0.0
H1191 H 0.03873 0.68 0.90294 0.0
C1192 C 0.03015 0.79675 0.88985 0.0
C1193 C 0.00902 0.81674 0.88083 0.0
C1194 C 0.98241 0.8075 0.8594 0.0
C1195 C 0.97657 0.77837 0.84767 0.0
C1196 C -0.00242 0.75894 0.85795 0.0
C1197 C 0.02381 0.7677 0.87876 0.0
C1198 C 0.04075 0.74198 0.89166 0.0
C1199 C 0.06843 0.74183 0.8713 0.0
C1200 C 0.04747 0.74145 0.93681 0.0
C1201 C 0.01931 0.7173 0.87663 0.0
C1202 C -0.00502 0.72763 0.85618 0.0
C1203 C 0.97112 0.70931 0.84236 0.0
C1204 C 0.97167 0.67981 0.85081 0.0
C1205 C -0.00423 0.66897 0.87325 0.0
C1206 C 0.02026 0.68776 0.88524 0.0
H1207 H 0.51498 0.69976 0.1087 0.0
H1208 H 0.53588 0.7846 0.06202 0.0
H1209 H 0.51809 0.80755 0.11925 0.0
H1210 H 0.45484 0.71424 0.17118 0.0
H1211 H 0.47227 0.68837 0.2028 0.0
H1212 H 0.47418 0.68629 0.15075 0.0
H1213 H 0.52907 0.68545 0.17965 0.0
H1214 H 0.52512 0.69844 0.22845 0.0
H1215 H 0.54779 0.71885 0.19773 0.0
H1216 H 0.50433 0.82055 0.18547 0.0
H1217 H 0.47888 0.82238 0.24456 0.0
H1218 H 0.47649 0.72889 0.25211 0.0
C1219 C 0.51396 0.72312 0.10902 0.0
C1220 C 0.52758 0.74056 0.08185 0.0
C1221 C 0.52574 0.77098 0.08302 0.0
C1222 C 0.51674 0.78415 0.11615 0.0
C1223 C 0.50937 0.76628 0.14671 0.0
C1224 C 0.50701 0.73639 0.14292 0.0
C1225 C 0.50159 0.72189 0.1811 0.0
C1226 C 0.47404 0.70153 0.176 0.0
C1227 C 0.52743 0.7052 0.19774 0.0
C1228 C 0.49858 0.74835 0.20609 0.0
C1229 C 0.50424 0.77378 0.18614 0.0
C1230 C 0.49986 0.80089 0.20144 0.0
C1231 C 0.48596 0.80178 0.23556 0.0
C1232 C 0.47553 0.77563 0.25195 0.0
C1233 C 0.48484 0.74905 0.24013 0.0
H1234 H 0.46038 0.18702 0.40343 0.0
H1235 H 0.54196 0.16335 0.36856 0.0
H1236 H 0.55431 0.21474 0.35263 0.0
H1237 H 0.4471 0.24645 0.33329 0.0
H1238 H 0.43311 0.26856 0.36936 0.0
H1239 H 0.42872 0.22955 0.37183 0.0
H1240 H 0.45349 0.23161 0.44357 0.0
H1241 H 0.45772 0.27053 0.44139 0.0
H1242 H 0.48878 0.25011 0.45406 0.0
H1243 H 0.55901 0.26855 0.34528 0.0
H1244 H 0.55927 0.32146 0.35516 0.0
H1245 H 0.4757 0.31066 0.39907 0.0
C1246 C 0.48058 0.1926 0.39163 0.0
C1247 C 0.50015 0.17135 0.38647 0.0
C1248 C 0.52671 0.17944 0.3722 0.0
C1249 C 0.53373 0.20846 0.36292 0.0
C1250 C 0.51401 0.229 0.3686 0.0
C1251 C 0.48813 0.22149 0.38312 0.0
C1252 C 0.47238 0.24807 0.39133 0.0
C1253 C 0.44362 0.24815 0.36486 0.0
C1254 C 0.46785 0.2502 0.43518 0.0
C1255 C 0.49378 0.27186 0.38006 0.0
C1256 C 0.51728 0.2603 0.3661 0.0
C1257 C 0.54066 0.27782 0.35591 0.0
C1258 C 0.5406 0.30782 0.36165 0.0
C1259 C 0.51753 0.31998 0.37793 0.0
C1260 C 0.49338 0.3019 0.38602 0.0
H1261 H 0.04339 0.26481 0.55137 0.0
H1262 H 0.02117 0.17243 0.5478 0.0
H1263 H 0.98145 0.17924 0.58697 0.0
H1264 H 0.04288 0.27613 0.63724 0.0
H1265 H 0.02604 0.30971 0.64104 0.0
H1266 H 0.04252 0.3018 0.59762 0.0
H1267 H -0.00439 0.30797 0.55457 0.0
H1268 H 0.97704 0.31555 0.59674 0.0
H1269 H 0.96346 0.2865 0.5628 0.0
H1270 H 0.97869 0.19151 0.65674 0.0
H1271 H 0.96848 0.21314 0.71967 0.0
H1272 H 0.97916 0.2988 0.67127 0.0
C1273 C 0.0283 0.24653 0.55565 0.0
C1274 C 0.03616 0.2181 0.55004 0.0
C1275 C 0.01605 0.19437 0.55406 0.0
C1276 C -0.00642 0.19799 0.57673 0.0
C1277 C -0.00931 0.22575 0.59109 0.0
C1278 C 0.00543 0.25019 0.57776 0.0
C1279 C 0.00116 0.27681 0.60208 0.0
C1280 C 0.02989 0.29202 0.62051 0.0
C1281 C 0.98322 0.29803 0.57762 0.0
C1282 C 0.98482 0.26274 0.63344 0.0
C1283 C 0.98075 0.23306 0.62781 0.0
C1284 C 0.97713 0.21469 0.65935 0.0
C1285 C 0.97184 0.22696 0.69496 0.0
C1286 C 0.96951 0.25703 0.69795 0.0
C1287 C 0.9782 0.2754 0.66809 0.0
H1288 H 0.96028 0.06137 0.08955 0.0
H1289 H 0.05306 0.07658 0.10907 0.0
H1290 H 0.05814 0.03882 0.05901 0.0
H1291 H 0.96208 0.98123 0.07806 0.0
H1292 H 0.93035 0.97894 0.04284 0.0
H1293 H 0.93476 0.00653 0.08095 0.0
H1294 H 0.9281 0.04594 1.02773 0.0
H1295 H 0.92426 0.0186 0.98943 0.0
H1296 H 0.95153 0.04819 0.98917 0.0
H1297 H 0.05185 0.00344 1.00048 0.0
H1298 H 0.03591 0.96819 0.94641 0.0
H1299 H 0.9475 0.97095 0.97233 0.0
C1300 C 0.98171 0.05645 0.08371 0.0
C1301 C 0.00641 0.07246 0.10239 0.0
C1302 C 0.03399 0.06503 0.09455 0.0
C1303 C 0.03699 0.04355 0.06619 0.0
C1304 C 0.01209 0.0289 0.04723 0.0
C1305 C 0.98503 0.03437 0.05671 0.0
C1306 C 0.9617 0.015 1.03315 0.0
C1307 C 0.94632 -0.00581 0.06037 0.0
C1308 C 0.94014 0.03302 1.0084 0.0
C1309 C 0.97967 -0.00126 1.00739 0.0
C1310 C 0.00869 0.00715 1.01582 0.0
C1311 C 0.02926 -0.00359 0.99415 0.0
C1312 C 0.02 0.97628 0.96362 0.0
C1313 C -0.00939 0.96613 0.95603 0.0
C1314 C 0.97019 0.97789 0.97792 0.0
H1315 H 0.23853 0.74351 0.42083 0.0
H1316 H 0.1982 0.81211 0.35396 0.0
H1317 H 0.23073 0.80684 0.30267 0.0
H1318 H 0.31085 0.76391 0.40104 0.0
H1319 H 0.32097 0.72724 0.39688 0.0
H1320 H 0.29363 0.73534 0.42764 0.0
H1321 H 0.2578 0.69701 0.38965 0.0
H1322 H 0.28499 0.68867 0.35871 0.0
H1323 H 0.2505 0.69925 0.33692 0.0
H1324 H 0.26719 0.79376 0.25802 0.0
H1325 H 0.30825 0.77665 0.22637 0.0
H1326 H 0.32641 0.71851 0.3237 0.0
C1327 C 0.23662 0.75734 0.39534 0.0
C1328 C 0.21591 0.77817 0.39124 0.0
C1329 C 0.21405 0.79608 0.35769 0.0
C1330 C 0.23232 0.79316 0.3283 0.0
C1331 C 0.25254 0.77243 0.33309 0.0
C1332 C 0.25503 0.75501 0.36592 0.0
C1333 C 0.27923 0.73508 0.36438 0.0
C1334 C 0.30254 0.74076 0.39954 0.0
C1335 C 0.26742 0.70311 0.36228 0.0
C1336 C 0.29021 0.74442 0.32596 0.0
C1337 C 0.2742 0.76561 0.308 0.0
C1338 C 0.28004 0.77732 0.27192 0.0
C1339 C 0.30338 0.76758 0.25421 0.0
C1340 C 0.32069 0.74675 0.27299 0.0
C1341 C 0.31361 0.73466 0.30886 0.0
H1342 H 0.55077 0.00736 0.47443 0.0
H1343 H 0.46209 0.01897 0.42927 0.0
H1344 H 0.44522 0.9881 0.48215 0.0
H1345 H 0.5359 0.92941 0.50159 0.0
H1346 H 0.56249 0.93272 0.54402 0.0
H1347 H 0.56738 0.95427 0.50114 0.0
H1348 H 0.57239 0.00089 0.5447 0.0
H1349 H 0.567 0.97958 0.58752 0.0
H1350 H 0.54389 0.00833 0.57396 0.0
H1351 H 0.43859 0.96354 0.54639 0.0
H1352 H 0.44204 0.93775 0.60978 0.0
H1353 H 0.53424 0.93531 0.60786 0.0
C1354 C 0.52781 0.00288 0.47522 0.0
C1355 C 0.50767 0.01625 0.44857 0.0
C1356 C 0.47784 0.00948 0.45003 0.0
C1357 C 0.46806 0.99196 0.47991 0.0
C1358 C 0.48844 0.9803 0.50699 0.0
C1359 C 0.51767 0.98457 0.50406 0.0
C1360 C 0.53499 0.96916 0.53674 0.0
C1361 C 0.55114 0.94495 0.51985 0.0
C1362 C 0.55579 0.99079 0.56223 0.0
C1363 C 0.51101 0.95666 0.55944 0.0
C1364 C 0.48434 0.96365 0.54199 0.0
C1365 C 0.45923 0.95713 0.55964 0.0
C1366 C 0.46137 0.94264 0.59567 0.0
C1367 C 0.48824 0.93411 0.61304 0.0
C1368 C 0.51335 0.94111 0.59461 0.0
H1369 H 0.27313 0.25352 0.82896 0.0
H1370 H 0.29829 0.16806 0.79985 0.0
H1371 H 0.2643 0.1666 0.73953 0.0
H1372 H 0.19758 0.2404 0.79388 0.0
H1373 H 0.19402 0.27619 0.77407 0.0
H1374 H 0.22049 0.27075 0.81527 0.0
H1375 H 0.26065 0.29404 0.77653 0.0
H1376 H 0.23433 0.2995 0.73514 0.0
H1377 H 0.26527 0.27956 0.72875 0.0
H1378 H 0.22787 0.17411 0.68175 0.0
H1379 H 0.19062 0.19031 0.6311 0.0
H1380 H 0.18822 0.27041 0.69712 0.0
C1381 C 0.27148 0.23459 0.80978 0.0
C1382 C 0.28847 0.21095 0.81913 0.0
C1383 C 0.28551 0.18645 0.79343 0.0
C1384 C 0.26628 0.18539 0.75895 0.0
C1385 C 0.24995 0.209 0.75037 0.0
C1386 C 0.25225 0.23315 0.77499 0.0
C1387 C 0.23203 0.25549 0.75865 0.0
C1388 C 0.2097 0.26103 0.78717 0.0
C1389 C 0.24908 0.28382 0.7492 0.0
C1390 C 0.21796 0.23999 0.72134 0.0
C1391 C 0.22871 0.21323 0.71706 0.0
C1392 C 0.21914 0.19497 0.68486 0.0
C1393 C 0.19789 0.20423 0.65634 0.0
C1394 C 0.18628 0.23137 0.66038 0.0
C1395 C 0.19664 0.24946 0.69326 0.0
H1396 H 0.74561 0.23471 0.91904 0.0
H1397 H 0.70819 0.3053 0.85312 0.0
H1398 H 0.73894 0.29777 0.80052 0.0
H1399 H 0.81708 0.25219 0.89929 0.0
H1400 H 0.82605 0.21514 0.89548 0.0
H1401 H 0.79838 0.22412 0.92516 0.0
H1402 H 0.76303 0.18604 0.88468 0.0
H1403 H 0.79081 0.17813 0.85442 0.0
H1404 H 0.75674 0.18932 0.83197 0.0
H1405 H 0.77584 0.28555 0.75755 0.0
H1406 H 0.81927 0.2713 0.72907 0.0
H1407 H 0.83455 0.21004 0.82343 0.0
C1408 C 0.74355 0.24802 0.89305 0.0
C1409 C 0.72444 0.27035 0.88979 0.0
C1410 C 0.72268 0.28797 0.85598 0.0
C1411 C 0.73993 0.28379 0.82586 0.0
C1412 C 0.75904 0.26203 0.83013 0.0
C1413 C 0.76111 0.24447 0.86286 0.0
C1414 C 0.78529 0.22446 0.86153 0.0
C1415 C 0.80802 0.22929 0.89751 0.0
C1416 C 0.77324 0.1926 0.85792 0.0
C1417 C 0.79715 0.23451 0.82397 0.0
C1418 C 0.78122 0.25566 0.80581 0.0
C1419 C 0.78846 0.26889 0.77133 0.0
C1420 C 0.81321 0.26087 0.75553 0.0
C1421 C 0.83029 0.23993 0.77437 0.0
C1422 C 0.82183 0.22622 0.80854 0.0
H1423 H 0.76663 0.73971 0.33179 0.0
H1424 H 0.77702 0.64892 0.30776 0.0
H1425 H 0.74242 0.65016 0.24841 0.0
H1426 H 0.6894 0.73623 0.29858 0.0
H1427 H 0.69078 0.77174 0.27702 0.0
H1428 H 0.71626 0.76396 0.31841 0.0
H1429 H 0.75905 0.77933 0.27828 0.0
H1430 H 0.73324 0.78785 0.23766 0.0
H1431 H 0.76007 0.76283 0.23053 0.0
H1432 H 0.70855 0.66157 0.18889 0.0
H1433 H 0.67539 0.68232 0.13633 0.0
H1434 H 0.68532 0.76472 0.19952 0.0
C1435 C 0.76156 0.72016 0.31401 0.0
C1436 C 0.77477 0.69429 0.32446 0.0
C1437 C 0.76732 0.66908 0.3005 0.0
C1438 C 0.74766 0.6695 0.26654 0.0
C1439 C 0.73523 0.69528 0.25672 0.0
C1440 C 0.74165 0.72011 0.27986 0.0
C1441 C 0.72497 0.74486 0.2625 0.0
C1442 C 0.70412 0.75478 0.29082 0.0
C1443 C 0.74558 0.77023 0.25163 0.0
C1444 C 0.70872 0.73014 0.22592 0.0
C1445 C 0.71494 0.70154 0.22305 0.0
C1446 C 0.70319 0.68388 0.19106 0.0
C1447 C 0.68436 0.69575 0.16136 0.0
C1448 C 0.67749 0.72492 0.16398 0.0
C1449 C 0.68998 0.74222 0.19672 0.0
H1450 H 0.46304 0.57761 0.55828 0.0
H1451 H 0.55338 0.5866 0.60469 0.0
H1452 H 0.56369 0.55051 0.55411 0.0
H1453 H 0.45785 0.50318 0.54691 0.0
H1454 H 0.43232 0.50305 0.50336 0.0
H1455 H 0.43383 0.53195 0.5391 0.0
H1456 H 0.44201 0.56982 0.48492 0.0
H1457 H 0.44047 0.541 0.44886 0.0
H1458 H 0.47141 0.56682 0.45557 0.0
H1459 H 0.56198 0.51141 0.49653 0.0
H1460 H 0.54859 0.47197 0.44673 0.0
H1461 H 0.45843 0.48714 0.44783 0.0
C1462 C 0.48523 0.57241 0.55806 0.0
C1463 C 0.50744 0.5849 0.58569 0.0
C1464 C 0.53603 0.57728 0.58383 0.0
C1465 C 0.54197 0.55688 0.55514 0.0
C1466 C 0.51905 0.54446 0.52895 0.0
C1467 C 0.49124 0.55208 0.53069 0.0
C1468 C 0.46956 0.5346 0.50236 0.0
C1469 C 0.44709 0.51717 0.52425 0.0
C1470 C 0.45502 0.55423 0.47108 0.0
C1471 C 0.48917 0.51504 0.4846 0.0
C1472 C 0.51777 0.52137 0.49918 0.0
C1473 C 0.53959 0.50616 0.48567 0.0
C1474 C 0.53177 0.48364 0.45762 0.0
C1475 C 0.50237 0.47579 0.44467 0.0
C1476 C 0.48103 0.49221 0.45781 0.0
H1477 H 0.98887 0.50431 0.94477 0.0
H1478 H 0.05493 0.55695 1.01754 0.0
H1479 H 0.04201 0.53078 0.0764 0.0
H1480 H 0.93693 0.49849 1.01895 0.0
H1481 H 0.92475 0.46154 1.0056 0.0
H1482 H 0.93736 0.48577 0.96908 0.0
H1483 H 0.9749 0.44998 0.9535 0.0
H1484 H 0.9622 0.42538 0.98949 0.0
H1485 H -0.00018 0.43777 0.99294 0.0
H1486 H 0.02465 0.49727 0.12659 0.0
H1487 H 0.00503 0.45668 0.16489 0.0
H1488 H 0.95066 0.42427 0.06085 0.0
C1489 C 0.00037 0.51036 0.9732 0.0
C1490 C 0.02288 0.53262 0.97666 0.0
C1491 C 0.03771 0.53986 1.01421 0.0
C1492 C 0.03039 0.52526 0.04788 0.0
C1493 C 0.00829 0.50327 0.04359 0.0
C1494 C -0.00647 0.49569 1.00727 0.0
C1495 C 0.97163 0.47022 1.01086 0.0
C1496 C 0.94084 0.47955 1.00052 0.0
C1497 C 0.97751 0.44431 0.98518 0.0
C1498 C 0.97744 0.4638 0.05445 0.0
C1499 C -0.00177 0.48364 0.07285 0.0
C1500 C 0.00812 0.4818 0.11268 0.0
C1501 C -0.00313 0.45879 0.1342 0.0
C1502 C 0.97614 0.43786 0.11582 0.0
C1503 C 0.96611 0.44046 0.07557 0.0
H1504 H 0.02527 0.16785 0.30574 0.0
H1505 H 0.09432 0.11605 0.27783 0.0
H1506 H 0.12009 0.127 0.34374 0.0
H1507 H 0.06854 0.22407 0.35833 0.0
H1508 H 0.04574 0.2289 0.39668 0.0
H1509 H 0.03007 0.21513 0.3493 0.0
H1510 H 0.00737 0.16981 0.37932 0.0
H1511 H 0.02172 0.18342 0.42758 0.0
H1512 H 0.02955 0.14783 0.41179 0.0
H1513 H 0.13948 0.14423 0.41385 0.0
H1514 H 0.15066 0.16731 0.48006 0.0
H1515 H 0.07138 0.21082 0.46228 0.0
C1516 C 0.04555 0.15832 0.31368 0.0
C1517 C 0.05741 0.14063 0.28598 0.0
C1518 C 0.0844 0.12934 0.29798 0.0
C1519 C 0.09935 0.13554 0.33561 0.0
C1520 C 0.08742 0.15336 0.36173 0.0
C1521 C 0.06103 0.16455 0.35135 0.0
C1522 C 0.05344 0.18365 0.38494 0.0
C1523 C 0.04924 0.21482 0.37143 0.0
C1524 C 0.02642 0.17038 0.40191 0.0
C1525 C 0.08014 0.1825 0.41481 0.0
C1526 C 0.09917 0.16428 0.40126 0.0
C1527 C 0.12477 0.15875 0.4244 0.0
C1528 C 0.13107 0.17205 0.46206 0.0
C1529 C 0.11242 0.19152 0.47627 0.0
C1530 C 0.08657 0.19671 0.45199 0.0
H1531 H 0.07538 0.83589 0.65682 0.0
H1532 H 0.15253 0.89459 0.6673 0.0
H1533 H 0.13824 0.91535 0.72865 0.0
H1534 H 0.02839 0.88614 0.68625 0.0
H1535 H 0.00769 0.85988 0.71247 0.0
H1536 H 0.02531 0.84843 0.67141 0.0
H1537 H 0.05215 0.81114 0.71555 0.0
H1538 H 0.03435 0.82233 0.75663 0.0
H1539 H 0.07314 0.82335 0.76078 0.0
H1540 H 0.114 0.93022 0.78897 0.0
H1541 H 0.08239 0.93707 0.84174 0.0
H1542 H 0.0209 0.87021 0.78649 0.0
C1543 C 0.08931 0.85313 0.67194 0.0
C1544 C 0.11498 0.8637 0.6573 0.0
C1545 C 0.13287 0.88596 0.67832 0.0
C1546 C 0.12485 0.89799 0.713 0.0
C1547 C 0.09895 0.88747 0.72608 0.0
C1548 C 0.08157 0.86543 0.70614 0.0
C1549 C 0.05449 0.85825 0.7253 0.0
C1550 C 0.02738 0.86351 0.69718 0.0
C1551 C 0.05349 0.82692 0.74047 0.0
C1552 C 0.05902 0.88002 0.75879 0.0
C1553 C 0.08484 0.89653 0.75933 0.0
C1554 C 0.09365 0.91747 0.78869 0.0
C1555 C 0.07561 0.92129 0.8184 0.0
C1556 C 0.04904 0.90453 0.81787 0.0
C1557 C 0.04077 0.88387 0.78744 0.0
H1558 H 0.38918 0.81995 0.10804 0.0
H1559 H 0.44138 0.7462 0.1237 0.0
H1560 H 0.45993 0.75587 0.06036 0.0
H1561 H 0.3703 0.80721 1.00163 0.0
H1562 H 0.37093 0.84514 0.98947 0.0
H1563 H 0.36219 0.83349 1.03725 0.0
H1564 H 0.40312 0.86887 0.07045 0.0
H1565 H 0.41202 0.88058 1.02277 0.0
H1566 H 0.4393 0.86678 0.05768 0.0
H1567 H 0.47514 0.77446 0.99517 0.0
H1568 H 0.48142 0.79709 0.93113 0.0
H1569 H 0.41744 0.85737 0.95141 0.0
C1570 C 0.40459 0.8059 0.09823 0.0
C1571 C 0.41371 0.7821 0.122 0.0
C1572 C 0.43369 0.76435 0.10696 0.0
C1573 C 0.44461 0.76981 0.07064 0.0
C1574 C 0.43531 0.79315 0.04812 0.0
C1575 C 0.41537 0.81071 0.06094 0.0
C1576 C 0.40803 0.83342 1.02944 0.0
C1577 C 0.37595 0.82959 1.01351 0.0
C1578 C 0.4161 0.86425 0.04609 0.0
C1579 C 0.42718 0.8261 0.99749 0.0
C1580 C 0.44296 0.80293 1.00931 0.0
C1581 C 0.46269 0.79251 0.98566 0.0
C1582 C 0.46629 0.80575 0.94912 0.0
C1583 C 0.45014 0.82928 0.93533 0.0
C1584 C 0.43015 0.83938 0.96035 0.0
H1585 H 0.48748 0.09688 0.26501 0.0
H1586 H 0.4116 0.08234 0.32674 0.0
H1587 H 0.38097 0.09614 0.26697 0.0
H1588 H 0.46707 0.15903 0.21591 0.0
H1589 H 0.48177 0.15059 0.17095 0.0
H1590 H 0.49727 0.13676 0.21699 0.0
H1591 H 0.48925 0.08419 0.1891 0.0
H1592 H 0.47416 0.09784 0.14265 0.0
H1593 H 0.45376 0.07073 0.16792 0.0
H1594 H 0.35943 0.11613 0.2019 0.0
H1595 H 0.34831 0.1359 0.1352 0.0
H1596 H 0.43883 0.13735 0.11769 0.0
C1597 C 0.46436 0.09604 0.26582 0.0
C1598 C 0.45188 0.0885 0.30047 0.0
C1599 C 0.42156 0.08777 0.30034 0.0
C1600 C 0.40404 0.09575 0.26663 0.0
C1601 C 0.41722 0.10407 0.23336 0.0
C1602 C 0.44667 0.10379 0.23259 0.0
C1603 C 0.45581 0.1145 0.19383 0.0
C1604 C 0.47671 0.14184 0.1998 0.0
C1605 C 0.46902 0.09037 0.17209 0.0
C1606 C 0.42697 0.12141 0.17304 0.0
C1607 C 0.40493 0.11529 0.1962 0.0
C1608 C 0.3765 0.12074 0.18341 0.0
C1609 C 0.37043 0.13222 0.14568 0.0
C1610 C 0.39269 0.13803 0.12127 0.0
C1611 C 0.4213 0.13274 0.13546 0.0
H1612 H 0.86395 0.73715 0.5285 0.0
H1613 H 0.82882 0.80641 0.45707 0.0
H1614 H 0.84079 0.84048 0.51352 0.0
H1615 H 0.83963 0.75975 0.62094 0.0
H1616 H 0.87176 0.74971 0.65021 0.0
H1617 H 0.85935 0.7306 0.60473 0.0
H1618 H 0.90908 0.74229 0.58004 0.0
H1619 H 0.92165 0.76173 0.6252 0.0
H1620 H 0.92336 0.77952 0.57862 0.0
H1621 H 0.85876 0.86762 0.57686 0.0
H1622 H 0.87854 0.88534 0.64312 0.0
H1623 H 0.90151 0.79837 0.6744 0.0
C1624 C 0.85836 0.75939 0.52474 0.0
C1625 C 0.84522 0.76898 0.4881 0.0
C1626 C 0.83865 0.79838 0.48468 0.0
C1627 C 0.8455 0.81796 0.51662 0.0
C1628 C 0.85893 0.80788 0.55195 0.0
C1629 C 0.86508 0.77922 0.55631 0.0
C1630 C 0.87994 0.77402 0.59727 0.0
C1631 C 0.86156 0.75223 0.61961 0.0
C1632 C 0.91031 0.76379 0.59513 0.0
C1633 C 0.8813 0.80431 0.61532 0.0
C1634 C 0.8691 0.82348 0.58857 0.0
C1635 C 0.86806 0.85271 0.59812 0.0
C1636 C 0.87928 0.86255 0.63606 0.0
C1637 C 0.89138 0.84331 0.66452 0.0
C1638 C 0.89262 0.81378 0.65354 0.0
H1639 H 0.89598 0.10696 0.52294 0.0
H1640 H 0.84357 0.17919 0.53511 0.0
H1641 H 0.83766 0.18494 0.46282 0.0
H1642 H 0.93551 0.137 0.45754 0.0
H1643 H 0.9387 0.10526 0.42783 0.0
H1644 H 0.93232 0.1013 0.47841 0.0
H1645 H 0.88638 0.06751 0.45815 0.0
H1646 H 0.89294 0.07076 0.40729 0.0
H1647 H 0.85875 0.07949 0.42218 0.0
H1648 H 0.84591 0.1891 0.39216 0.0
H1649 H 0.86605 0.18999 0.32811 0.0
H1650 H 0.91336 0.11511 0.3623 0.0
C1651 C 0.88196 0.12283 0.50994 0.0
C1652 C 0.86944 0.14207 0.53384 0.0
C1653 C 0.85245 0.16374 0.51667 0.0
C1654 C 0.8491 0.16718 0.47579 0.0
C1655 C 0.86278 0.14861 0.4528 0.0
C1656 C 0.87848 0.12651 0.46921 0.0
C1657 C 0.89438 0.11221 0.43903 0.0
C1658 C 0.92715 0.11409 0.45146 0.0
C1659 C 0.88239 0.08062 0.43119 0.0
C1660 C 0.88677 0.13095 0.4039 0.0
C1661 C 0.868 0.15139 0.41203 0.0
C1662 C 0.86 0.17271 0.38507 0.0
C1663 C 0.87158 0.17313 0.3489 0.0
C1664 C 0.89124 0.15266 0.34052 0.0
C1665 C 0.89844 0.13108 0.36813 0.0
H1666 H 0.6363 0.17835 1.02076 0.0
H1667 H 0.6948 0.24816 0.07378 0.0
H1668 H 0.68865 0.22902 0.13986 0.0
H1669 H 0.58708 0.18136 0.08835 0.0
H1670 H 0.57754 0.14294 0.09018 0.0
H1671 H 0.59051 0.1583 0.04664 0.0
H1672 H 0.63122 0.12292 0.05082 0.0
H1673 H 0.6181 0.10708 0.09411 0.0
H1674 H 0.65515 0.12117 0.09571 0.0
H1675 H 0.67174 0.20666 0.19955 0.0
H1676 H 0.64632 0.18117 0.25015 0.0
H1677 H 0.59689 0.12637 0.15955 0.0
C1678 C 0.64876 0.18869 0.0463 0.0
C1679 C 0.6667 0.21417 0.04243 0.0
C1680 C 0.68153 0.22821 0.07636 0.0
C1681 C 0.67809 0.21755 0.11393 0.0
C1682 C 0.65948 0.19296 0.11704 0.0
C1683 C 0.64517 0.17852 0.08422 0.0
C1684 C 0.62408 0.1545 0.0961 0.0
C1685 C 0.59297 0.1596 0.07932 0.0
C1686 C 0.63266 0.12464 0.08344 0.0
C1687 C 0.62831 0.15823 0.14055 0.0
C1688 C 0.64903 0.18038 0.15189 0.0
C1689 C 0.65571 0.18904 0.19111 0.0
C1690 C 0.64092 0.17463 0.21959 0.0
C1691 C 0.61953 0.15186 0.20883 0.0
C1692 C 0.61336 0.14346 0.16872 0.0
H1693 H 0.57249 0.90701 0.7589 0.0
H1694 H 0.59212 0.83254 0.69224 0.0
H1695 H 0.63299 0.82438 0.74215 0.0
H1696 H 0.65187 0.92685 0.80864 0.0
H1697 H 0.63724 0.93669 0.8531 0.0
H1698 H 0.61809 0.94362 0.80572 0.0
H1699 H 0.57269 0.91495 0.82641 0.0
H1700 H 0.59154 0.90767 0.87321 0.0
H1701 H 0.57515 0.87793 0.84221 0.0
H1702 H 0.65828 0.81433 0.80692 0.0
H1703 H 0.66677 0.80479 0.87804 0.0
H1704 H 0.63208 0.88624 0.9037 0.0
C1705 C 0.58651 0.88999 0.75395 0.0
C1706 C 0.57946 0.87042 0.72208 0.0
C1707 C 0.5976 0.848 0.71632 0.0
C1708 C 0.62085 0.84327 0.74457 0.0
C1709 C 0.6259 0.86159 0.77768 0.0
C1710 C 0.60965 0.88512 0.78189 0.0
C1711 C 0.61522 0.89808 0.82302 0.0
C1712 C 0.63159 0.92809 0.82258 0.0
C1713 C 0.587 0.89968 0.8423 0.0
C1714 C 0.6343 0.8761 0.84268 0.0
C1715 C 0.64121 0.85588 0.81578 0.0
C1716 C 0.65403 0.83061 0.828 0.0
C1717 C 0.65862 0.82524 0.86844 0.0
C1718 C 0.65028 0.845 0.89609 0.0
C1719 C 0.63948 0.87136 0.88307 0.0
H1720 H 0.51145 0.63764 0.81775 0.0
H1721 H 0.58175 0.67448 0.75631 0.0
H1722 H 0.60641 0.69443 0.81833 0.0
H1723 H 0.51284 0.69584 0.89015 0.0
H1724 H 0.50671 0.67258 0.93101 0.0
H1725 H 0.49324 0.66095 0.88155 0.0
H1726 H 0.52046 0.61431 0.89061 0.0
H1727 H 0.53395 0.62568 0.94016 0.0
H1728 H 0.55873 0.61715 0.90567 0.0
H1729 H 0.62307 0.71418 0.88618 0.0
H1730 H 0.63301 0.72692 0.95695 0.0
H1731 H 0.55644 0.67416 0.97994 0.0
C1732 C 0.53216 0.64962 0.8174 0.0
C1733 C 0.54438 0.654 0.78113 0.0
C1734 C 0.5716 0.67013 0.78285 0.0
C1735 C 0.58595 0.68191 0.81828 0.0
C1736 C 0.57354 0.67731 0.85309 0.0
C1737 C 0.54751 0.66113 0.85334 0.0
C1738 C 0.53988 0.65892 0.89581 0.0
C1739 C 0.51148 0.6729 0.89986 0.0
C1740 C 0.53815 0.62712 0.90883 0.0
C1741 C 0.56555 0.67639 0.91891 0.0
C1742 C 0.58437 0.68719 0.89326 0.0
C1743 C 0.60875 0.70534 0.90661 0.0
C1744 C 0.6143 0.7125 0.94706 0.0
C1745 C 0.59614 0.70108 0.97462 0.0
C1746 C 0.57133 0.68266 0.96002 0.0
H1747 H 0.53369 0.37287 0.28289 0.0
H1748 H 0.5909 0.44351 0.33704 0.0
H1749 H 0.62335 0.43835 0.28489 0.0
H1750 H 0.58934 0.32944 0.25793 0.0
H1751 H 0.56904 0.31591 0.21286 0.0
H1752 H 0.55051 0.32607 0.25376 0.0
H1753 H 0.52149 0.36148 0.2092 0.0
H1754 H 0.53985 0.3514 0.16813 0.0
H1755 H 0.54053 0.389 0.18282 0.0
H1756 H 0.64851 0.42547 0.22498 0.0
H1757 H 0.6645 0.40595 0.16409 0.0
H1758 H 0.59142 0.34192 0.15399 0.0
C1759 C 0.55284 0.3876 0.28366 0.0
C1760 C 0.55963 0.40893 0.31354 0.0
C1761 C 0.58528 0.42718 0.31409 0.0
C1762 C 0.60377 0.42435 0.2847 0.0
C1763 C 0.59637 0.40289 0.25568 0.0
C1764 C 0.57156 0.38475 0.25527 0.0
C1765 C 0.56856 0.36286 0.22188 0.0
C1766 C 0.56942 0.33174 0.23755 0.0
C1767 C 0.54098 0.36642 0.19386 0.0
C1768 C 0.59529 0.37185 0.20277 0.0
C1769 C 0.61116 0.39491 0.22257 0.0
C1770 C 0.63637 0.40726 0.20948 0.0
C1771 C 0.64537 0.39591 0.17503 0.0
C1772 C 0.62918 0.37241 0.15423 0.0
C1773 C 0.60407 0.36012 0.16882 0.0
H1774 H 0.91852 0.35567 0.45151 0.0
H1775 H 0.93052 0.27197 0.39966 0.0
H1776 H 0.92121 0.24826 0.46161 0.0
H1777 H 0.9527 0.34382 0.54506 0.0
H1778 H 0.92839 0.35938 0.57541 0.0
H1779 H 0.93134 0.37245 0.52634 0.0
H1780 H 0.87808 0.3623 0.50389 0.0
H1781 H 0.87271 0.3515 0.55334 0.0
H1782 H 0.86036 0.32735 0.5124 0.0
H1783 H 0.91199 0.23259 0.52944 0.0
H1784 H 0.90602 0.22616 0.59896 0.0
H1785 H 0.90064 0.31893 0.61329 0.0
C1786 C 0.91887 0.33231 0.45295 0.0
C1787 C 0.92565 0.316 0.41968 0.0
C1788 C 0.92603 0.28543 0.42397 0.0
C1789 C 0.92044 0.27156 0.45932 0.0
C1790 C 0.91422 0.28811 0.49125 0.0
C1791 C 0.9134 0.31786 0.48866 0.0
C1792 C 0.90713 0.33025 0.52856 0.0
C1793 C 0.93132 0.35277 0.54489 0.0
C1794 C 0.87783 0.34365 0.52429 0.0
C1795 C 0.90596 0.30301 0.5543 0.0
C1796 C 0.90919 0.27896 0.53131 0.0
C1797 C 0.90914 0.25131 0.54741 0.0
C1798 C 0.90581 0.24788 0.58761 0.0
C1799 C 0.90275 0.27173 0.61298 0.0
C1800 C 0.90272 0.29992 0.59546 0.0
H1801 H 0.93903 0.55688 0.7832 0.0
H1802 H -0.00324 0.63472 0.80435 0.0
H1803 H 0.97133 0.65827 0.74907 0.0
H1804 H 0.94119 0.5605 0.67811 0.0
H1805 H 0.90436 0.5466 0.66514 0.0
H1806 H 0.92372 0.53634 0.71083 0.0
H1807 H 0.88348 0.55483 0.7488 0.0
H1808 H 0.86418 0.56543 0.70315 0.0
H1809 H 0.87373 0.5917 0.74246 0.0
H1810 H 0.94066 0.67482 0.69378 0.0
H1811 H 0.91272 0.68008 0.62964 0.0
H1812 H 0.87943 0.58987 0.63313 0.0
C1813 C 0.94597 0.57891 0.77622 0.0
C1814 C 0.96935 0.59419 0.79915 0.0
C1815 C 0.9785 0.62267 0.78817 0.0
C1816 C 0.96411 0.63647 0.75673 0.0
C1817 C 0.94112 0.62124 0.73504 0.0
C1818 C 0.93257 0.59282 0.7431 0.0
C1819 C 0.90983 0.58065 0.71077 0.0
C1820 C 0.92042 0.55448 0.68998 0.0
C1821 C 0.8811 0.57268 0.7273 0.0
C1822 C 0.90754 0.60666 0.68365 0.0
C1823 C 0.92517 0.62999 0.6993 0.0
C1824 C 0.92706 0.6566 0.68065 0.0
C1825 C 0.91129 0.65927 0.64398 0.0
C1826 C 0.89452 0.63519 0.62559 0.0
C1827 C 0.89204 0.60871 0.64628 0.0
H1828 H 0.39706 0.31542 0.17009 0.0
H1829 H 0.3869 0.40516 0.13786 0.0
H1830 H 0.364 0.38903 0.07209 0.0
H1831 H 0.41588 0.29215 0.07697 0.0
H1832 H 0.3971 0.25682 0.07883 0.0
H1833 H 0.41126 0.2757 0.12378 0.0
H1834 H 0.36034 0.27091 0.14745 0.0
H1835 H 0.34606 0.25243 0.10216 0.0
H1836 H 0.33037 0.28464 0.11725 0.0
H1837 H 0.34378 0.36294 1.00828 0.0
H1838 H 0.33163 0.32942 0.95115 0.0
H1839 H 0.35496 0.25713 1.02572 0.0
C1840 C 0.3902 0.33175 0.14919 0.0
C1841 C 0.3937 0.3616 0.15943 0.0
C1842 C 0.38409 0.38214 0.1311 0.0
C1843 C 0.37107 0.37319 0.09357 0.0
C1844 C 0.36769 0.34359 0.08465 0.0
C1845 C 0.37716 0.3232 0.11161 0.0
C1846 C 0.3721 0.2928 0.09422 0.0
C1847 C 0.40079 0.27854 0.09339 0.0
C1848 C 0.35095 0.2741 0.11661 0.0
C1849 C 0.35874 0.29932 0.0531 0.0
C1850 C 0.35608 0.32868 0.04815 0.0
C1851 C 0.34554 0.33986 1.01194 0.0
C1852 C 0.33848 0.32063 0.97967 0.0
C1853 C 0.34216 0.29059 0.98383 0.0
C1854 C 0.35163 0.27991 1.02144 0.0
H1855 H 0.38141 0.65474 1.02555 0.0
H1856 H 0.42494 0.58047 0.07301 0.0
H1857 H 0.42146 0.55918 1.00613 0.0
H1858 H 0.33511 0.61805 0.94392 0.0
H1859 H 0.34064 0.64787 0.91116 0.0
H1860 H 0.34156 0.6546 0.9633 0.0
H1861 H 0.39254 0.68093 0.96455 0.0
H1862 H 0.39163 0.6745 0.91251 0.0
H1863 H 0.42086 0.66235 0.9457 0.0
H1864 H 0.4179 0.54856 0.93351 0.0
H1865 H 0.4188 0.55177 0.86141 0.0
H1866 H 0.38117 0.63478 0.86228 0.0
C1867 C 0.39028 0.63398 1.02218 0.0
C1868 C 0.40353 0.61937 0.05476 0.0
C1869 C 0.41428 0.59196 0.04872 0.0
C1870 C 0.41241 0.57967 1.0108 0.0
C1871 C 0.39982 0.5951 0.97932 0.0
C1872 C 0.38915 0.62178 0.98467 0.0
C1873 C 0.38001 0.6358 0.94592 0.0
C1874 C 0.34739 0.63927 0.94079 0.0
C1875 C 0.3973 0.66511 0.94195 0.0
C1876 C 0.38803 0.61323 0.91778 0.0
C1877 C 0.39874 0.58955 0.9375 0.0
C1878 C 0.40921 0.56678 0.91772 0.0
C1879 C 0.40955 0.56872 0.87686 0.0
C1880 C 0.39997 0.59348 0.85664 0.0
C1881 C 0.38843 0.61557 0.87722 0.0
H1882 H 0.14545 0.73921 0.57753 0.0
H1883 H 0.18579 0.67134 0.51994 0.0
H1884 H 0.17921 0.63927 0.5765 0.0
H1885 H 0.17366 0.72349 0.67906 0.0
H1886 H 0.14057 0.73153 0.69793 0.0
H1887 H 0.15134 0.74978 0.65489 0.0
H1888 H 0.10233 0.73247 0.61621 0.0
H1889 H 0.09153 0.71375 0.65882 0.0
H1890 H 0.09142 0.69422 0.61298 0.0
H1891 H 0.16434 0.61332 0.63722 0.0
H1892 H 0.14473 0.59649 0.69802 0.0
H1893 H 0.11393 0.68161 0.71499 0.0
C1894 C 0.15352 0.71783 0.577 0.0
C1895 C 0.16631 0.70789 0.54423 0.0
C1896 C 0.17618 0.67959 0.54478 0.0
C1897 C 0.17241 0.66116 0.57673 0.0
C1898 C 0.15882 0.6714 0.6079 0.0
C1899 C 0.14979 0.6992 0.6084 0.0
C1900 C 0.13449 0.70462 0.64429 0.0
C1901 C 0.15101 0.72878 0.6706 0.0
C1902 C 0.10308 0.71167 0.63234 0.0
C1903 C 0.13591 0.67536 0.66379 0.0
C1904 C 0.15013 0.65651 0.64249 0.0
C1905 C 0.15349 0.62803 0.65432 0.0
C1906 C 0.14232 0.61869 0.68899 0.0
C1907 C 0.12786 0.63772 0.71149 0.0
C1908 C 0.12462 0.66641 0.6984 0.0
H1909 H 0.04915 0.41607 0.24907 0.0
H1910 H 0.08437 0.35459 0.17496 0.0
H1911 H 0.12092 0.34426 0.22973 0.0
H1912 H 0.12007 0.43748 0.31826 0.0
H1913 H 0.09899 0.43863 0.35925 0.0
H1914 H 0.08411 0.44963 0.31116 0.0
H1915 H 0.04018 0.41287 0.3154 0.0
H1916 H 0.05511 0.40086 0.36247 0.0
H1917 H 0.04593 0.37498 0.32259 0.0
H1918 H 0.14087 0.32841 0.29606 0.0
H1919 H 0.14747 0.31383 0.36577 0.0
H1920 H 0.0987 0.38502 0.39741 0.0
C1921 C 0.06585 0.40193 0.24372 0.0
C1922 C 0.06402 0.38608 0.20806 0.0
C1923 C 0.08574 0.36733 0.2019 0.0
C1924 C 0.10641 0.36111 0.23312 0.0
C1925 C 0.10545 0.37452 0.26965 0.0
C1926 C 0.08628 0.39538 0.27469 0.0
C1927 C 0.08559 0.40267 0.31781 0.0
C1928 C 0.09794 0.43396 0.32717 0.0
C1929 C 0.05491 0.3975 0.33024 0.0
C1930 C 0.10549 0.38104 0.33644 0.0
C1931 C 0.11724 0.36538 0.30832 0.0
C1932 C 0.13271 0.34127 0.31837 0.0
C1933 C 0.13607 0.33293 0.35795 0.0
C1934 C 0.12387 0.34856 0.38696 0.0
C1935 C 0.10904 0.37328 0.37603 0.0
loop_
_geom_bond_atom_site_label_1
_geom_bond_atom_site_label_2
_geom_bond_distance
_geom_bond_site_symmetry_2
_ccdc_geom_bond_type
Ho0 C3 2.811 . S
Ho0 O20 2.322 1_455 S
Ho0 O22 2.378 . S
Ho0 O23 2.524 . S
Ho0 O24 2.381 . S
Ho0 O25 2.669 1_455 S
Ho0 O27 2.346 . S
Ho0 O31 2.305 . S
Ho1 C12 2.811 . S
Ho1 O21 2.346 . S
Ho1 O25 2.305 . S
Ho1 O26 2.322 1_655 S
Ho1 O28 2.378 . S
Ho1 O29 2.524 . S
Ho1 O30 2.381 . S
Ho1 O31 2.669 1_655 S
C2 O20 1.259 . S
C2 O21 1.268 . S
C3 Ho0 2.811 . S
C3 C4 1.488 1_554 S
C3 O22 1.215 . S
C3 O23 1.289 . S
C4 C3 1.488 1_556 S
C4 C5 1.348 . S
C4 C9 1.413 . S
C5 C4 1.348 . S
C5 C6 1.442 . S
C5 H32 0.930 . S
C6 C5 1.442 . S
C6 C7 1.381 . S
C6 H33 0.931 . S
C7 C6 1.381 . S
C7 C8 1.321 . S
C8 C7 1.321 . S
C8 C9 1.403 . S
C8 H34 0.934 . S
C9 C4 1.413 . S
C9 C8 1.403 . S
C9 H35 0.930 . S
C10 O24 1.275 . S
C10 O25 1.256 1_455 S
C11 O26 1.259 . S
C11 O27 1.268 . S
C12 Ho1 2.811 . S
C12 C13 1.488 . S
C12 O28 1.215 . S
C12 O29 1.289 . S
C13 C12 1.488 . S
C13 C14 1.348 . S
C13 C18 1.413 . S
C14 C13 1.348 . S
C14 C15 1.442 . S
C14 H36 0.930 . S
C15 C14 1.442 . S
C15 C16 1.381 . S
C15 H37 0.931 . S
C16 C15 1.381 . S
C16 C17 1.321 . S
C17 C16 1.321 . S
C17 C18 1.403 . S
C17 H38 0.934 . S
C18 C13 1.413 . S
C18 C17 1.403 . S
C18 H39 0.930 . S
C19 O30 1.275 . S
C19 O31 1.256 1_655 S
O20 Ho0 2.322 1_655 S
O20 C2 1.259 . S
O21 Ho1 2.346 . S
O21 C2 1.268 . S
O22 Ho0 2.378 . S
O22 C3 1.215 . S
O23 Ho0 2.524 . S
O23 C3 1.289 . S
O24 Ho0 2.381 . S
O24 C10 1.275 . S
O25 Ho0 2.669 1_655 S
O25 Ho1 2.305 . S
O25 C10 1.256 1_655 S
O26 Ho1 2.322 1_455 S
O26 C11 1.259 . S
O27 Ho0 2.346 . S
O27 C11 1.268 . S
O28 Ho1 2.378 . S
O28 C12 1.215 . S
O29 Ho1 2.524 . S
O29 C12 1.289 . S
O30 Ho1 2.381 . S
O30 C19 1.275 . S
O31 Ho0 2.305 . S
O31 Ho1 2.669 1_455 S
O31 C19 1.256 1_455 S
H32 C5 0.930 . S
H33 C6 0.931 . S
H34 C8 0.934 . S
H35 C9 0.930 . S
H36 C14 0.930 . S
H37 C15 0.931 . S
H38 C17 0.934 . S
H39 C18 0.930 . S
Ho40 C43 2.811 . S
Ho40 O60 2.322 . S
Ho40 O62 2.378 . S
Ho40 O63 2.524 . S
Ho40 O64 2.381 . S
Ho40 O65 2.669 . S
Ho40 O67 2.346 . S
Ho40 O71 2.305 . S
Ho41 C52 2.811 . S
Ho41 O61 2.346 . S
Ho41 O65 2.305 . S
Ho41 O66 2.322 . S
Ho41 O68 2.378 . S
Ho41 O69 2.524 . S
Ho41 O70 2.381 . S
Ho41 O71 2.669 . S
C42 O60 1.259 . S
C42 O61 1.268 . S
C43 Ho40 2.811 . S
C43 C44 1.488 . S
C43 O62 1.215 . S
C43 O63 1.289 . S
C44 C43 1.488 . S
C44 C45 1.348 . S
C44 C49 1.413 . S
C45 C44 1.348 . S
C45 C46 1.442 . S
C45 H72 0.930 . S
C46 C45 1.442 . S
C46 C47 1.381 . S
C46 H73 0.931 . S
C47 C46 1.381 . S
C47 C48 1.321 . S
C48 C47 1.321 . S
C48 C49 1.403 . S
C48 H74 0.934 . S
C49 C44 1.413 . S
C49 C48 1.403 . S
C49 H75 0.930 . S
C50 O64 1.275 . S
C50 O65 1.256 . S
C51 O66 1.259 . S
C51 O67 1.268 . S
C52 Ho41 2.811 . S
C52 C53 1.488 . S
C52 O68 1.215 . S
C52 O69 1.289 . S
C53 C52 1.488 . S
C53 C54 1.348 . S
C53 C58 1.413 . S
C54 C53 1.348 . S
C54 C55 1.442 . S
C54 H76 0.930 . S
C55 C54 1.442 . S
C55 C56 1.381 . S
C55 H77 0.931 . S
C56 C55 1.381 . S
C56 C57 1.321 . S
C57 C56 1.321 . S
C57 C58 1.403 . S
C57 H78 0.934 . S
C58 C53 1.413 . S
C58 C57 1.403 . S
C58 H79 0.930 . S
C59 O70 1.275 . S
C59 O71 1.256 . S
O60 Ho40 2.322 . S
O60 C42 1.259 . S
O61 Ho41 2.346 . S
O61 C42 1.268 . S
O62 Ho40 2.378 . S
O62 C43 1.215 . S
O63 Ho40 2.524 . S
O63 C43 1.289 . S
O64 Ho40 2.381 . S
O64 C50 1.275 . S
O65 Ho40 2.669 . S
O65 Ho41 2.305 . S
O65 C50 1.256 . S
O66 Ho41 2.322 . S
O66 C51 1.259 . S
O67 Ho40 2.346 . S
O67 C51 1.268 . S
O68 Ho41 2.378 . S
O68 C52 1.215 . S
O69 Ho41 2.524 . S
O69 C52 1.289 . S
O70 Ho41 2.381 . S
O70 C59 1.275 . S
O71 Ho40 2.305 . S
O71 Ho41 2.669 . S
O71 C59 1.256 . S
H72 C45 0.930 . S
H73 C46 0.931 . S
H74 C48 0.934 . S
H75 C49 0.930 . S
H76 C54 0.930 . S
H77 C55 0.931 . S
H78 C57 0.934 . S
H79 C58 0.930 . S
Ho80 C83 2.811 . S
Ho80 O100 2.322 . S
Ho80 O102 2.378 . S
Ho80 O103 2.524 . S
Ho80 O104 2.381 . S
Ho80 O105 2.669 . S
Ho80 O107 2.346 . S
Ho80 O111 2.305 . S
Ho81 C92 2.811 . S
Ho81 O101 2.346 . S
Ho81 O105 2.305 . S
Ho81 O106 2.322 . S
Ho81 O108 2.378 . S
Ho81 O109 2.524 . S
Ho81 O110 2.381 . S
Ho81 O111 2.669 . S
C82 O100 1.259 . S
C82 O101 1.268 . S
C83 Ho80 2.811 . S
C83 C84 1.488 . S
C83 O102 1.215 . S
C83 O103 1.289 . S
C84 C83 1.488 . S
C84 C85 1.348 . S
C84 C89 1.413 . S
C85 C84 1.348 . S
C85 C86 1.442 . S
C85 H112 0.930 . S
C86 C85 1.442 . S
C86 C87 1.381 . S
C86 H113 0.931 . S
C87 C86 1.381 . S
C87 C88 1.321 . S
C88 C87 1.321 . S
C88 C89 1.403 . S
C88 H114 0.934 . S
C89 C84 1.413 . S
C89 C88 1.403 . S
C89 H115 0.930 . S
C90 O104 1.275 . S
C90 O105 1.256 . S
C91 O106 1.259 . S
C91 O107 1.268 . S
C92 Ho81 2.811 . S
C92 C93 1.488 . S
C92 O108 1.215 . S
C92 O109 1.289 . S
C93 C92 1.488 . S
C93 C94 1.348 . S
C93 C98 1.413 . S
C94 C93 1.348 . S
C94 C95 1.442 . S
C94 H116 0.930 . S
C95 C94 1.442 . S
C95 C96 1.381 . S
C95 H117 0.931 . S
C96 C95 1.381 . S
C96 C97 1.321 . S
C97 C96 1.321 . S
C97 C98 1.403 . S
C97 H118 0.934 . S
C98 C93 1.413 . S
C98 C97 1.403 . S
C98 H119 0.930 . S
C99 O110 1.275 . S
C99 O111 1.256 . S
O100 Ho80 2.322 . S
O100 C82 1.259 . S
O101 Ho81 2.346 . S
O101 C82 1.268 . S
O102 Ho80 2.378 . S
O102 C83 1.215 . S
O103 Ho80 2.524 . S
O103 C83 1.289 . S
O104 Ho80 2.381 . S
O104 C90 1.275 . S
O105 Ho80 2.669 . S
O105 Ho81 2.305 . S
O105 C90 1.256 . S
O106 Ho81 2.322 . S
O106 C91 1.259 . S
O107 Ho80 2.346 . S
O107 C91 1.268 . S
O108 Ho81 2.378 . S
O108 C92 1.215 . S
O109 Ho81 2.524 . S
O109 C92 1.289 . S
O110 Ho81 2.381 . S
O110 C99 1.275 . S
O111 Ho80 2.305 . S
O111 Ho81 2.669 . S
O111 C99 1.256 . S
H112 C85 0.930 . S
H113 C86 0.931 . S
H114 C88 0.934 . S
H115 C89 0.930 . S
H116 C94 0.930 . S
H117 C95 0.931 . S
H118 C97 0.934 . S
H119 C98 0.930 . S
Ho120 C123 2.811 . S
Ho120 O140 2.322 . S
Ho120 O142 2.378 . S
Ho120 O143 2.524 . S
Ho120 O144 2.381 . S
Ho120 O145 2.669 . S
Ho120 O147 2.346 . S
Ho120 O151 2.305 . S
Ho121 C132 2.811 . S
Ho121 O141 2.346 . S
Ho121 O145 2.305 . S
Ho121 O146 2.322 . S
Ho121 O148 2.378 . S
Ho121 O149 2.524 . S
Ho121 O150 2.381 . S
Ho121 O151 2.669 . S
C122 O140 1.259 . S
C122 O141 1.268 . S
C123 Ho120 2.811 . S
C123 C124 1.488 . S
C123 O142 1.215 . S
C123 O143 1.289 . S
C124 C123 1.488 . S
C124 C125 1.348 1_556 S
C124 C129 1.413 . S
C125 C124 1.348 1_554 S
C125 C126 1.442 . S
C125 H152 0.930 . S
C126 C125 1.442 . S
C126 C127 1.381 . S
C126 H153 0.931 . S
C127 C126 1.381 . S
C127 C128 1.321 . S
C128 C127 1.321 . S
C128 C129 1.403 1_554 S
C128 H154 0.934 . S
C129 C124 1.413 . S
C129 C128 1.403 1_556 S
C129 H155 0.930 . S
C130 O144 1.275 . S
C130 O145 1.256 . S
C131 O146 1.259 . S
C131 O147 1.268 . S
C132 Ho121 2.811 . S
C132 C133 1.488 . S
C132 O148 1.215 . S
C132 O149 1.289 . S
C133 C132 1.488 . S
C133 C134 1.348 . S
C133 C138 1.413 . S
C134 C133 1.348 . S
C134 C135 1.442 . S
C134 H156 0.930 . S
C135 C134 1.442 . S
C135 C136 1.381 . S
C135 H157 0.931 . S
C136 C135 1.381 . S
C136 C137 1.321 . S
C137 C136 1.321 . S
C137 C138 1.403 . S
C137 H158 0.934 . S
C138 C133 1.413 . S
C138 C137 1.403 . S
C138 H159 0.930 . S
C139 O150 1.275 . S
C139 O151 1.256 . S
O140 Ho120 2.322 . S
O140 C122 1.259 . S
O141 Ho121 2.346 . S
O141 C122 1.268 . S
O142 Ho120 2.378 . S
O142 C123 1.215 . S
O143 Ho120 2.524 . S
O143 C123 1.289 . S
O144 Ho120 2.381 . S
O144 C130 1.275 . S
O145 Ho120 2.669 . S
O145 Ho121 2.305 . S
O145 C130 1.256 . S
O146 Ho121 2.322 . S
O146 C131 1.259 . S
O147 Ho120 2.346 . S
O147 C131 1.268 . S
O148 Ho121 2.378 . S
O148 C132 1.215 . S
O149 Ho121 2.524 . S
O149 C132 1.289 . S
O150 Ho121 2.381 . S
O150 C139 1.275 . S
O151 Ho120 2.305 . S
O151 Ho121 2.669 . S
O151 C139 1.256 . S
H152 C125 0.930 . S
H153 C126 0.931 . S
H154 C128 0.934 . S
H155 C129 0.930 . S
H156 C134 0.930 . S
H157 C135 0.931 . S
H158 C137 0.934 . S
H159 C138 0.930 . S
Ho160 C163 2.811 . S
Ho160 O180 2.322 . S
Ho160 O182 2.378 . S
Ho160 O183 2.524 . S
Ho160 O184 2.381 . S
Ho160 O185 2.669 . S
Ho160 O187 2.346 . S
Ho160 O191 2.305 . S
Ho161 C172 2.811 . S
Ho161 O181 2.346 . S
Ho161 O185 2.305 1_655 S
Ho161 O186 2.322 1_655 S
Ho161 O188 2.378 . S
Ho161 O189 2.524 . S
Ho161 O190 2.381 . S
Ho161 O191 2.669 1_655 S
C162 O180 1.259 1_655 S
C162 O181 1.268 . S
C163 Ho160 2.811 . S
C163 C164 1.488 1_556 S
C163 O182 1.215 . S
C163 O183 1.289 . S
C164 C163 1.488 1_554 S
C164 C165 1.348 . S
C164 C169 1.413 . S
C165 C164 1.348 . S
C165 C166 1.442 . S
C165 H192 0.930 . S
C166 C165 1.442 . S
C166 C167 1.381 . S
C166 H193 0.931 . S
C167 C166 1.381 . S
C167 C168 1.321 . S
C168 C167 1.321 . S
C168 C169 1.403 . S
C168 H194 0.934 . S
C169 C164 1.413 . S
C169 C168 1.403 . S
C169 H195 0.930 . S
C170 O184 1.275 . S
C170 O185 1.256 . S
C171 O186 1.259 . S
C171 O187 1.268 . S
C172 Ho161 2.811 . S
C172 C173 1.488 . S
C172 O188 1.215 . S
C172 O189 1.289 . S
C173 C172 1.488 . S
C173 C174 1.348 . S
C173 C178 1.413 . S
C174 C173 1.348 . S
C174 C175 1.442 . S
C174 H196 0.930 . S
C175 C174 1.442 . S
C175 C176 1.381 . S
C175 H197 0.931 . S
C176 C175 1.381 . S
C176 C177 1.321 . S
C177 C176 1.321 . S
C177 C178 1.403 . S
C177 H198 0.934 . S
C178 C173 1.413 . S
C178 C177 1.403 . S
C178 H199 0.930 . S
C179 O190 1.275 1_455 S
C179 O191 1.256 . S
O180 Ho160 2.322 . S
O180 C162 1.259 1_455 S
O181 Ho161 2.346 . S
O181 C162 1.268 . S
O182 Ho160 2.378 . S
O182 C163 1.215 . S
O183 Ho160 2.524 . S
O183 C163 1.289 . S
O184 Ho160 2.381 . S
O184 C170 1.275 . S
O185 Ho160 2.669 . S
O185 Ho161 2.305 1_455 S
O185 C170 1.256 . S
O186 Ho161 2.322 1_455 S
O186 C171 1.259 . S
O187 Ho160 2.346 . S
O187 C171 1.268 . S
O188 Ho161 2.378 . S
O188 C172 1.215 . S
O189 Ho161 2.524 . S
O189 C172 1.289 . S
O190 Ho161 2.381 . S
O190 C179 1.275 1_655 S
O191 Ho160 2.305 . S
O191 Ho161 2.669 1_455 S
O191 C179 1.256 . S
H192 C165 0.930 . S
H193 C166 0.931 . S
H194 C168 0.934 . S
H195 C169 0.930 . S
H196 C174 0.930 . S
H197 C175 0.931 . S
H198 C177 0.934 . S
H199 C178 0.930 . S
Ho200 C203 2.811 . S
Ho200 O220 2.322 . S
Ho200 O222 2.378 . S
Ho200 O223 2.524 . S
Ho200 O224 2.381 . S
Ho200 O225 2.669 . S
Ho200 O227 2.346 . S
Ho200 O231 2.305 . S
Ho201 C212 2.811 . S
Ho201 O221 2.346 . S
Ho201 O225 2.305 . S
Ho201 O226 2.322 . S
Ho201 O228 2.378 . S
Ho201 O229 2.524 . S
Ho201 O230 2.381 . S
Ho201 O231 2.669 . S
C202 O220 1.259 . S
C202 O221 1.268 . S
C203 Ho200 2.811 . S
C203 C204 1.488 . S
C203 O222 1.215 . S
C203 O223 1.289 . S
C204 C203 1.488 . S
C204 C205 1.348 . S
C204 C209 1.413 . S
C205 C204 1.348 . S
C205 C206 1.442 . S
C205 H232 0.930 . S
C206 C205 1.442 . S
C206 C207 1.381 . S
C206 H233 0.931 . S
C207 C206 1.381 . S
C207 C208 1.321 . S
C208 C207 1.321 . S
C208 C209 1.403 . S
C208 H234 0.934 . S
C209 C204 1.413 . S
C209 C208 1.403 . S
C209 H235 0.930 . S
C210 O224 1.275 . S
C210 O225 1.256 . S
C211 O226 1.259 . S
C211 O227 1.268 . S
C212 Ho201 2.811 . S
C212 C213 1.488 . S
C212 O228 1.215 . S
C212 O229 1.289 . S
C213 C212 1.488 . S
C213 C214 1.348 . S
C213 C218 1.413 . S
C214 C213 1.348 . S
C214 C215 1.442 1_554 S
C214 H236 0.930 . S
C215 C214 1.442 1_556 S
C215 C216 1.381 . S
C215 H237 0.931 . S
C216 C215 1.381 . S
C216 C217 1.321 . S
C217 C216 1.321 . S
C217 C218 1.403 1_556 S
C217 H238 0.934 . S
C218 C213 1.413 . S
C218 C217 1.403 1_554 S
C218 H239 0.930 . S
C219 O230 1.275 . S
C219 O231 1.256 . S
O220 Ho200 2.322 . S
O220 C202 1.259 . S
O221 Ho201 2.346 . S
O221 C202 1.268 . S
O222 Ho200 2.378 . S
O222 C203 1.215 . S
O223 Ho200 2.524 . S
O223 C203 1.289 . S
O224 Ho200 2.381 . S
O224 C210 1.275 . S
O225 Ho200 2.669 . S
O225 Ho201 2.305 . S
O225 C210 1.256 . S
O226 Ho201 2.322 . S
O226 C211 1.259 . S
O227 Ho200 2.346 . S
O227 C211 1.268 . S
O228 Ho201 2.378 . S
O228 C212 1.215 . S
O229 Ho201 2.524 . S
O229 C212 1.289 . S
O230 Ho201 2.381 . S
O230 C219 1.275 . S
O231 Ho200 2.305 . S
O231 Ho201 2.669 . S
O231 C219 1.256 . S
H232 C205 0.930 . S
H233 C206 0.931 . S
H234 C208 0.934 . S
H235 C209 0.930 . S
H236 C214 0.930 . S
H237 C215 0.931 . S
H238 C217 0.934 . S
H239 C218 0.930 . S
Ho240 C243 2.811 . S
Ho240 O260 2.322 . S
Ho240 O262 2.378 . S
Ho240 O263 2.524 . S
Ho240 O264 2.381 . S
Ho240 O265 2.669 . S
Ho240 O267 2.346 . S
Ho240 O271 2.305 . S
Ho241 C252 2.811 . S
Ho241 O261 2.346 . S
Ho241 O265 2.305 . S
Ho241 O266 2.322 . S
Ho241 O268 2.378 . S
Ho241 O269 2.524 . S
Ho241 O270 2.381 . S
Ho241 O271 2.669 . S
C242 O260 1.259 . S
C242 O261 1.268 . S
C243 Ho240 2.811 . S
C243 C244 1.488 . S
C243 O262 1.215 . S
C243 O263 1.289 . S
C244 C243 1.488 . S
C244 C245 1.348 . S
C244 C249 1.413 . S
C245 C244 1.348 . S
C245 C246 1.442 . S
C245 H272 0.930 . S
C246 C245 1.442 . S
C246 C247 1.381 . S
C246 H273 0.931 . S
C247 C246 1.381 . S
C247 C248 1.321 . S
C248 C247 1.321 . S
C248 C249 1.403 . S
C248 H274 0.934 . S
C249 C244 1.413 . S
C249 C248 1.403 . S
C249 H275 0.930 . S
C250 O264 1.275 . S
C250 O265 1.256 . S
C251 O266 1.259 . S
C251 O267 1.268 . S
C252 Ho241 2.811 . S
C252 C253 1.488 . S
C252 O268 1.215 . S
C252 O269 1.289 . S
C253 C252 1.488 . S
C253 C254 1.348 . S
C253 C258 1.413 . S
C254 C253 1.348 . S
C254 C255 1.442 . S
C254 H276 0.930 . S
C255 C254 1.442 . S
C255 C256 1.381 . S
C255 H277 0.931 . S
C256 C255 1.381 . S
C256 C257 1.321 . S
C257 C256 1.321 . S
C257 C258 1.403 . S
C257 H278 0.934 . S
C258 C253 1.413 . S
C258 C257 1.403 . S
C258 H279 0.930 . S
C259 O270 1.275 . S
C259 O271 1.256 . S
O260 Ho240 2.322 . S
O260 C242 1.259 . S
O261 Ho241 2.346 . S
O261 C242 1.268 . S
O262 Ho240 2.378 . S
O262 C243 1.215 . S
O263 Ho240 2.524 . S
O263 C243 1.289 . S
O264 Ho240 2.381 . S
O264 C250 1.275 . S
O265 Ho240 2.669 . S
O265 Ho241 2.305 . S
O265 C250 1.256 . S
O266 Ho241 2.322 . S
O266 C251 1.259 . S
O267 Ho240 2.346 . S
O267 C251 1.268 . S
O268 Ho241 2.378 . S
O268 C252 1.215 . S
O269 Ho241 2.524 . S
O269 C252 1.289 . S
O270 Ho241 2.381 . S
O270 C259 1.275 . S
O271 Ho240 2.305 . S
O271 Ho241 2.669 . S
O271 C259 1.256 . S
H272 C245 0.930 . S
H273 C246 0.931 . S
H274 C248 0.934 . S
H275 C249 0.930 . S
H276 C254 0.930 . S
H277 C255 0.931 . S
H278 C257 0.934 . S
H279 C258 0.930 . S
Ho280 C283 2.811 . S
Ho280 O300 2.322 . S
Ho280 O302 2.378 . S
Ho280 O303 2.524 . S
Ho280 O304 2.381 . S
Ho280 O305 2.669 . S
Ho280 O307 2.346 . S
Ho280 O311 2.305 . S
Ho281 C292 2.811 . S
Ho281 O301 2.346 . S
Ho281 O305 2.305 . S
Ho281 O306 2.322 . S
Ho281 O308 2.378 . S
Ho281 O309 2.524 . S
Ho281 O310 2.381 . S
Ho281 O311 2.669 . S
C282 O300 1.259 . S
C282 O301 1.268 . S
C283 Ho280 2.811 . S
C283 C284 1.488 . S
C283 O302 1.215 . S
C283 O303 1.289 . S
C284 C283 1.488 . S
C284 C285 1.348 . S
C284 C289 1.413 . S
C285 C284 1.348 . S
C285 C286 1.442 . S
C285 H312 0.930 . S
C286 C285 1.442 . S
C286 C287 1.381 . S
C286 H313 0.931 . S
C287 C286 1.381 . S
C287 C288 1.321 . S
C288 C287 1.321 . S
C288 C289 1.403 . S
C288 H314 0.934 . S
C289 C284 1.413 . S
C289 C288 1.403 . S
C289 H315 0.930 . S
C290 O304 1.275 . S
C290 O305 1.256 . S
C291 O306 1.259 . S
C291 O307 1.268 . S
C292 Ho281 2.811 . S
C292 C293 1.488 . S
C292 O308 1.215 . S
C292 O309 1.289 . S
C293 C292 1.488 . S
C293 C294 1.348 . S
C293 C298 1.413 . S
C294 C293 1.348 . S
C294 C295 1.442 . S
C294 H316 0.930 . S
C295 C294 1.442 . S
C295 C296 1.381 . S
C295 H317 0.931 . S
C296 C295 1.381 . S
C296 C297 1.321 . S
C297 C296 1.321 . S
C297 C298 1.403 . S
C297 H318 0.934 . S
C298 C293 1.413 . S
C298 C297 1.403 . S
C298 H319 0.930 . S
C299 O310 1.275 . S
C299 O311 1.256 . S
O300 Ho280 2.322 . S
O300 C282 1.259 . S
O301 Ho281 2.346 . S
O301 C282 1.268 . S
O302 Ho280 2.378 . S
O302 C283 1.215 . S
O303 Ho280 2.524 . S
O303 C283 1.289 . S
O304 Ho280 2.381 . S
O304 C290 1.275 . S
O305 Ho280 2.669 . S
O305 Ho281 2.305 . S
O305 C290 1.256 . S
O306 Ho281 2.322 . S
O306 C291 1.259 . S
O307 Ho280 2.346 . S
O307 C291 1.268 . S
O308 Ho281 2.378 . S
O308 C292 1.215 . S
O309 Ho281 2.524 . S
O309 C292 1.289 . S
O310 Ho281 2.381 . S
O310 C299 1.275 . S
O311 Ho280 2.305 . S
O311 Ho281 2.669 . S
O311 C299 1.256 . S
H312 C285 0.930 . S
H313 C286 0.931 . S
H314 C288 0.934 . S
H315 C289 0.930 . S
H316 C294 0.930 . S
H317 C295 0.931 . S
H318 C297 0.934 . S
H319 C298 0.930 . S
Ho320 C323 2.811 . S
Ho320 O340 2.322 . S
Ho320 O342 2.378 . S
Ho320 O343 2.524 . S
Ho320 O344 2.381 . S
Ho320 O345 2.669 . S
Ho320 O347 2.346 . S
Ho320 O351 2.305 . S
Ho321 C332 2.811 . S
Ho321 O341 2.346 . S
Ho321 O345 2.305 . S
Ho321 O346 2.322 . S
Ho321 O348 2.378 . S
Ho321 O349 2.524 . S
Ho321 O350 2.381 . S
Ho321 O351 2.669 . S
C322 O340 1.259 . S
C322 O341 1.268 . S
C323 Ho320 2.811 . S
C323 C324 1.488 . S
C323 O342 1.215 . S
C323 O343 1.289 . S
C324 C323 1.488 . S
C324 C325 1.348 . S
C324 C329 1.413 . S
C325 C324 1.348 . S
C325 C326 1.442 . S
C325 H352 0.930 . S
C326 C325 1.442 . S
C326 C327 1.381 . S
C326 H353 0.931 . S
C327 C326 1.381 . S
C327 C328 1.321 . S
C328 C327 1.321 . S
C328 C329 1.403 . S
C328 H354 0.934 . S
C329 C324 1.413 . S
C329 C328 1.403 . S
C329 H355 0.930 . S
C330 O344 1.275 . S
C330 O345 1.256 . S
C331 O346 1.259 . S
C331 O347 1.268 . S
C332 Ho321 2.811 . S
C332 C333 1.488 . S
C332 O348 1.215 . S
C332 O349 1.289 . S
C333 C332 1.488 . S
C333 C334 1.348 . S
C333 C338 1.413 . S
C334 C333 1.348 . S
C334 C335 1.442 . S
C334 H356 0.930 . S
C335 C334 1.442 . S
C335 C336 1.381 . S
C335 H357 0.931 . S
C336 C335 1.381 . S
C336 C337 1.321 . S
C337 C336 1.321 . S
C337 C338 1.403 . S
C337 H358 0.934 . S
C338 C333 1.413 . S
C338 C337 1.403 . S
C338 H359 0.930 . S
C339 O350 1.275 . S
C339 O351 1.256 . S
O340 Ho320 2.322 . S
O340 C322 1.259 . S
O341 Ho321 2.346 . S
O341 C322 1.268 . S
O342 Ho320 2.378 . S
O342 C323 1.215 . S
O343 Ho320 2.524 . S
O343 C323 1.289 . S
O344 Ho320 2.381 . S
O344 C330 1.275 . S
O345 Ho320 2.669 . S
O345 Ho321 2.305 . S
O345 C330 1.256 . S
O346 Ho321 2.322 . S
O346 C331 1.259 . S
O347 Ho320 2.346 . S
O347 C331 1.268 . S
O348 Ho321 2.378 . S
O348 C332 1.215 . S
O349 Ho321 2.524 . S
O349 C332 1.289 . S
O350 Ho321 2.381 . S
O350 C339 1.275 . S
O351 Ho320 2.305 . S
O351 Ho321 2.669 . S
O351 C339 1.256 . S
H352 C325 0.930 . S
H353 C326 0.931 . S
H354 C328 0.934 . S
H355 C329 0.930 . S
H356 C334 0.930 . S
H357 C335 0.931 . S
H358 C337 0.934 . S
H359 C338 0.930 . S
Ho360 C363 2.811 . S
Ho360 O380 2.322 . S
Ho360 O382 2.378 . S
Ho360 O383 2.524 . S
Ho360 O384 2.381 . S
Ho360 O385 2.669 . S
Ho360 O387 2.346 . S
Ho360 O391 2.305 . S
Ho361 C372 2.811 1_554 S
Ho361 O381 2.346 . S
Ho361 O385 2.305 . S
Ho361 O386 2.322 . S
Ho361 O388 2.378 . S
Ho361 O389 2.524 . S
Ho361 O390 2.381 . S
Ho361 O391 2.669 . S
C362 O380 1.259 . S
C362 O381 1.268 . S
C363 Ho360 2.811 . S
C363 C364 1.488 . S
C363 O382 1.215 . S
C363 O383 1.289 . S
C364 C363 1.488 . S
C364 C365 1.348 . S
C364 C369 1.413 . S
C365 C364 1.348 . S
C365 C366 1.442 . S
C365 H392 0.930 . S
C366 C365 1.442 . S
C366 C367 1.381 . S
C366 H393 0.931 . S
C367 C366 1.381 . S
C367 C368 1.321 . S
C368 C367 1.321 . S
C368 C369 1.403 . S
C368 H394 0.934 . S
C369 C364 1.413 . S
C369 C368 1.403 . S
C369 H395 0.930 . S
C370 O384 1.275 . S
C370 O385 1.256 . S
C371 O386 1.259 . S
C371 O387 1.268 . S
C372 Ho361 2.811 1_556 S
C372 C373 1.488 . S
C372 O388 1.215 1_556 S
C372 O389 1.289 1_556 S
C373 C372 1.488 . S
C373 C374 1.348 . S
C373 C378 1.413 . S
C374 C373 1.348 . S
C374 C375 1.442 . S
C374 H396 0.930 . S
C375 C374 1.442 . S
C375 C376 1.381 . S
C375 H397 0.931 . S
C376 C375 1.381 . S
C376 C377 1.321 . S
C377 C376 1.321 . S
C377 C378 1.403 . S
C377 H398 0.934 . S
C378 C373 1.413 . S
C378 C377 1.403 . S
C378 H399 0.930 . S
C379 O390 1.275 . S
C379 O391 1.256 . S
O380 Ho360 2.322 . S
O380 C362 1.259 . S
O381 Ho361 2.346 . S
O381 C362 1.268 . S
O382 Ho360 2.378 . S
O382 C363 1.215 . S
O383 Ho360 2.524 . S
O383 C363 1.289 . S
O384 Ho360 2.381 . S
O384 C370 1.275 . S
O385 Ho360 2.669 . S
O385 Ho361 2.305 . S
O385 C370 1.256 . S
O386 Ho361 2.322 . S
O386 C371 1.259 . S
O387 Ho360 2.346 . S
O387 C371 1.268 . S
O388 Ho361 2.378 . S
O388 C372 1.215 1_554 S
O389 Ho361 2.524 . S
O389 C372 1.289 1_554 S
O390 Ho361 2.381 . S
O390 C379 1.275 . S
O391 Ho360 2.305 . S
O391 Ho361 2.669 . S
O391 C379 1.256 . S
H392 C365 0.930 . S
H393 C366 0.931 . S
H394 C368 0.934 . S
H395 C369 0.930 . S
H396 C374 0.930 . S
H397 C375 0.931 . S
H398 C377 0.934 . S
H399 C378 0.930 . S
Ho400 C403 2.811 . S
Ho400 O420 2.322 . S
Ho400 O422 2.378 . S
Ho400 O423 2.524 . S
Ho400 O424 2.381 . S
Ho400 O425 2.669 . S
Ho400 O427 2.346 . S
Ho400 O431 2.305 . S
Ho401 C412 2.811 . S
Ho401 O421 2.346 . S
Ho401 O425 2.305 . S
Ho401 O426 2.322 . S
Ho401 O428 2.378 . S
Ho401 O429 2.524 . S
Ho401 O430 2.381 . S
Ho401 O431 2.669 . S
C402 O420 1.259 . S
C402 O421 1.268 . S
C403 Ho400 2.811 . S
C403 C404 1.488 1_556 S
C403 O422 1.215 . S
C403 O423 1.289 . S
C404 C403 1.488 1_554 S
C404 C405 1.348 . S
C404 C409 1.413 . S
C405 C404 1.348 . S
C405 C406 1.442 . S
C405 H432 0.930 . S
C406 C405 1.442 . S
C406 C407 1.381 . S
C406 H433 0.931 . S
C407 C406 1.381 . S
C407 C408 1.321 . S
C408 C407 1.321 . S
C408 C409 1.403 . S
C408 H434 0.934 . S
C409 C404 1.413 . S
C409 C408 1.403 . S
C409 H435 0.930 . S
C410 O424 1.275 . S
C410 O425 1.256 . S
C411 O426 1.259 . S
C411 O427 1.268 . S
C412 Ho401 2.811 . S
C412 C413 1.488 . S
C412 O428 1.215 . S
C412 O429 1.289 . S
C413 C412 1.488 . S
C413 C414 1.348 . S
C413 C418 1.413 . S
C414 C413 1.348 . S
C414 C415 1.442 . S
C414 H436 0.930 . S
C415 C414 1.442 . S
C415 C416 1.381 . S
C415 H437 0.931 . S
C416 C415 1.381 . S
C416 C417 1.321 . S
C417 C416 1.321 . S
C417 C418 1.403 . S
C417 H438 0.934 . S
C418 C413 1.413 . S
C418 C417 1.403 . S
C418 H439 0.930 . S
C419 O430 1.275 . S
C419 O431 1.256 . S
O420 Ho400 2.322 . S
O420 C402 1.259 . S
O421 Ho401 2.346 . S
O421 C402 1.268 . S
O422 Ho400 2.378 . S
O422 C403 1.215 . S
O423 Ho400 2.524 . S
O423 C403 1.289 . S
O424 Ho400 2.381 . S
O424 C410 1.275 . S
O425 Ho400 2.669 . S
O425 Ho401 2.305 . S
O425 C410 1.256 . S
O426 Ho401 2.322 . S
O426 C411 1.259 . S
O427 Ho400 2.346 . S
O427 C411 1.268 . S
O428 Ho401 2.378 . S
O428 C412 1.215 . S
O429 Ho401 2.524 . S
O429 C412 1.289 . S
O430 Ho401 2.381 . S
O430 C419 1.275 . S
O431 Ho400 2.305 . S
O431 Ho401 2.669 . S
O431 C419 1.256 . S
H432 C405 0.930 . S
H433 C406 0.931 . S
H434 C408 0.934 . S
H435 C409 0.930 . S
H436 C414 0.930 . S
H437 C415 0.931 . S
H438 C417 0.934 . S
H439 C418 0.930 . S
Ho440 C443 2.811 . S
Ho440 O460 2.322 . S
Ho440 O462 2.378 . S
Ho440 O463 2.524 . S
Ho440 O464 2.381 . S
Ho440 O465 2.669 . S
Ho440 O467 2.346 . S
Ho440 O471 2.305 . S
Ho441 C452 2.811 . S
Ho441 O461 2.346 . S
Ho441 O465 2.305 . S
Ho441 O466 2.322 . S
Ho441 O468 2.378 . S
Ho441 O469 2.524 . S
Ho441 O470 2.381 . S
Ho441 O471 2.669 . S
C442 O460 1.259 . S
C442 O461 1.268 . S
C443 Ho440 2.811 . S
C443 C444 1.488 . S
C443 O462 1.215 . S
C443 O463 1.289 . S
C444 C443 1.488 . S
C444 C445 1.348 . S
C444 C449 1.413 . S
C445 C444 1.348 . S
C445 C446 1.442 . S
C445 H472 0.930 . S
C446 C445 1.442 . S
C446 C447 1.381 . S
C446 H473 0.931 . S
C447 C446 1.381 . S
C447 C448 1.321 . S
C448 C447 1.321 . S
C448 C449 1.403 . S
C448 H474 0.934 . S
C449 C444 1.413 . S
C449 C448 1.403 . S
C449 H475 0.930 . S
C450 O464 1.275 . S
C450 O465 1.256 . S
C451 O466 1.259 . S
C451 O467 1.268 . S
C452 Ho441 2.811 . S
C452 C453 1.488 . S
C452 O468 1.215 . S
C452 O469 1.289 . S
C453 C452 1.488 . S
C453 C454 1.348 . S
C453 C458 1.413 . S
C454 C453 1.348 . S
C454 C455 1.442 . S
C454 H476 0.930 . S
C455 C454 1.442 . S
C455 C456 1.381 . S
C455 H477 0.931 . S
C456 C455 1.381 . S
C456 C457 1.321 . S
C457 C456 1.321 . S
C457 C458 1.403 . S
C457 H478 0.934 . S
C458 C453 1.413 . S
C458 C457 1.403 . S
C458 H479 0.930 . S
C459 O470 1.275 . S
C459 O471 1.256 . S
O460 Ho440 2.322 . S
O460 C442 1.259 . S
O461 Ho441 2.346 . S
O461 C442 1.268 . S
O462 Ho440 2.378 . S
O462 C443 1.215 . S
O463 Ho440 2.524 . S
O463 C443 1.289 . S
O464 Ho440 2.381 . S
O464 C450 1.275 . S
O465 Ho440 2.669 . S
O465 Ho441 2.305 . S
O465 C450 1.256 . S
O466 Ho441 2.322 . S
O466 C451 1.259 . S
O467 Ho440 2.346 . S
O467 C451 1.268 . S
O468 Ho441 2.378 . S
O468 C452 1.215 . S
O469 Ho441 2.524 . S
O469 C452 1.289 . S
O470 Ho441 2.381 . S
O470 C459 1.275 . S
O471 Ho440 2.305 . S
O471 Ho441 2.669 . S
O471 C459 1.256 . S
H472 C445 0.930 . S
H473 C446 0.931 . S
H474 C448 0.934 . S
H475 C449 0.930 . S
H476 C454 0.930 . S
H477 C455 0.931 . S
H478 C457 0.934 . S
H479 C458 0.930 . S
Ho480 C483 2.811 . S
Ho480 O500 2.322 . S
Ho480 O502 2.378 . S
Ho480 O503 2.524 . S
Ho480 O504 2.381 . S
Ho480 O505 2.669 . S
Ho480 O507 2.346 . S
Ho480 O511 2.305 . S
Ho481 C492 2.811 . S
Ho481 O501 2.346 . S
Ho481 O505 2.305 . S
Ho481 O506 2.322 . S
Ho481 O508 2.378 . S
Ho481 O509 2.524 . S
Ho481 O510 2.381 . S
Ho481 O511 2.669 . S
C482 O500 1.259 . S
C482 O501 1.268 . S
C483 Ho480 2.811 . S
C483 C484 1.488 . S
C483 O502 1.215 . S
C483 O503 1.289 . S
C484 C483 1.488 . S
C484 C485 1.348 . S
C484 C489 1.413 . S
C485 C484 1.348 . S
C485 C486 1.442 . S
C485 H512 0.930 . S
C486 C485 1.442 . S
C486 C487 1.381 . S
C486 H513 0.931 . S
C487 C486 1.381 . S
C487 C488 1.321 . S
C488 C487 1.321 . S
C488 C489 1.403 . S
C488 H514 0.934 . S
C489 C484 1.413 . S
C489 C488 1.403 . S
C489 H515 0.930 . S
C490 O504 1.275 . S
C490 O505 1.256 . S
C491 O506 1.259 . S
C491 O507 1.268 . S
C492 Ho481 2.811 . S
C492 C493 1.488 . S
C492 O508 1.215 . S
C492 O509 1.289 . S
C493 C492 1.488 . S
C493 C494 1.348 . S
C493 C498 1.413 . S
C494 C493 1.348 . S
C494 C495 1.442 . S
C494 H516 0.930 . S
C495 C494 1.442 . S
C495 C496 1.381 . S
C495 H517 0.931 . S
C496 C495 1.381 . S
C496 C497 1.321 . S
C497 C496 1.321 . S
C497 C498 1.403 . S
C497 H518 0.934 . S
C498 C493 1.413 . S
C498 C497 1.403 . S
C498 H519 0.930 . S
C499 O510 1.275 . S
C499 O511 1.256 . S
O500 Ho480 2.322 . S
O500 C482 1.259 . S
O501 Ho481 2.346 . S
O501 C482 1.268 . S
O502 Ho480 2.378 . S
O502 C483 1.215 . S
O503 Ho480 2.524 . S
O503 C483 1.289 . S
O504 Ho480 2.381 . S
O504 C490 1.275 . S
O505 Ho480 2.669 . S
O505 Ho481 2.305 . S
O505 C490 1.256 . S
O506 Ho481 2.322 . S
O506 C491 1.259 . S
O507 Ho480 2.346 . S
O507 C491 1.268 . S
O508 Ho481 2.378 . S
O508 C492 1.215 . S
O509 Ho481 2.524 . S
O509 C492 1.289 . S
O510 Ho481 2.381 . S
O510 C499 1.275 . S
O511 Ho480 2.305 . S
O511 Ho481 2.669 . S
O511 C499 1.256 . S
H512 C485 0.930 . S
H513 C486 0.931 . S
H514 C488 0.934 . S
H515 C489 0.930 . S
H516 C494 0.930 . S
H517 C495 0.931 . S
H518 C497 0.934 . S
H519 C498 0.930 . S
Ho520 C523 2.811 . S
Ho520 O540 2.322 1_655 S
Ho520 O542 2.378 . S
Ho520 O543 2.524 . S
Ho520 O544 2.381 . S
Ho520 O545 2.669 1_655 S
Ho520 O547 2.346 . S
Ho520 O551 2.305 1_655 S
Ho521 C532 2.811 . S
Ho521 O541 2.346 . S
Ho521 O545 2.305 . S
Ho521 O546 2.322 . S
Ho521 O548 2.378 . S
Ho521 O549 2.524 . S
Ho521 O550 2.381 . S
Ho521 O551 2.669 . S
C522 O540 1.259 . S
C522 O541 1.268 . S
C523 Ho520 2.811 . S
C523 C524 1.488 . S
C523 O542 1.215 . S
C523 O543 1.289 . S
C524 C523 1.488 . S
C524 C525 1.348 . S
C524 C529 1.413 . S
C525 C524 1.348 . S
C525 C526 1.442 . S
C525 H552 0.930 . S
C526 C525 1.442 . S
C526 C527 1.381 . S
C526 H553 0.931 . S
C527 C526 1.381 . S
C527 C528 1.321 . S
C528 C527 1.321 . S
C528 C529 1.403 . S
C528 H554 0.934 . S
C529 C524 1.413 . S
C529 C528 1.403 . S
C529 H555 0.930 . S
C530 O544 1.275 1_455 S
C530 O545 1.256 . S
C531 O546 1.259 1_655 S
C531 O547 1.268 . S
C532 Ho521 2.811 . S
C532 C533 1.488 1_554 S
C532 O548 1.215 . S
C532 O549 1.289 . S
C533 C532 1.488 1_556 S
C533 C534 1.348 . S
C533 C538 1.413 . S
C534 C533 1.348 . S
C534 C535 1.442 . S
C534 H556 0.930 . S
C535 C534 1.442 . S
C535 C536 1.381 . S
C535 H557 0.931 . S
C536 C535 1.381 . S
C536 C537 1.321 . S
C537 C536 1.321 . S
C537 C538 1.403 . S
C537 H558 0.934 . S
C538 C533 1.413 . S
C538 C537 1.403 . S
C538 H559 0.930 . S
C539 O550 1.275 . S
C539 O551 1.256 . S
O540 Ho520 2.322 1_455 S
O540 C522 1.259 . S
O541 Ho521 2.346 . S
O541 C522 1.268 . S
O542 Ho520 2.378 . S
O542 C523 1.215 . S
O543 Ho520 2.524 . S
O543 C523 1.289 . S
O544 Ho520 2.381 . S
O544 C530 1.275 1_655 S
O545 Ho520 2.669 1_455 S
O545 Ho521 2.305 . S
O545 C530 1.256 . S
O546 Ho521 2.322 . S
O546 C531 1.259 1_455 S
O547 Ho520 2.346 . S
O547 C531 1.268 . S
O548 Ho521 2.378 . S
O548 C532 1.215 . S
O549 Ho521 2.524 . S
O549 C532 1.289 . S
O550 Ho521 2.381 . S
O550 C539 1.275 . S
O551 Ho520 2.305 1_455 S
O551 Ho521 2.669 . S
O551 C539 1.256 . S
H552 C525 0.930 . S
H553 C526 0.931 . S
H554 C528 0.934 . S
H555 C529 0.930 . S
H556 C534 0.930 . S
H557 C535 0.931 . S
H558 C537 0.934 . S
H559 C538 0.930 . S
Ho560 C563 2.811 . S
Ho560 O580 2.322 . S
Ho560 O582 2.378 . S
Ho560 O583 2.524 . S
Ho560 O584 2.381 . S
Ho560 O585 2.669 . S
Ho560 O587 2.346 . S
Ho560 O591 2.305 . S
Ho561 C572 2.811 . S
Ho561 O581 2.346 . S
Ho561 O585 2.305 . S
Ho561 O586 2.322 . S
Ho561 O588 2.378 . S
Ho561 O589 2.524 . S
Ho561 O590 2.381 . S
Ho561 O591 2.669 . S
C562 O580 1.259 . S
C562 O581 1.268 . S
C563 Ho560 2.811 . S
C563 C564 1.488 . S
C563 O582 1.215 . S
C563 O583 1.289 . S
C564 C563 1.488 . S
C564 C565 1.348 . S
C564 C569 1.413 . S
C565 C564 1.348 . S
C565 C566 1.442 . S
C565 H592 0.930 . S
C566 C565 1.442 . S
C566 C567 1.381 . S
C566 H593 0.931 . S
C567 C566 1.381 . S
C567 C568 1.321 . S
C568 C567 1.321 . S
C568 C569 1.403 . S
C568 H594 0.934 . S
C569 C564 1.413 . S
C569 C568 1.403 . S
C569 H595 0.930 . S
C570 O584 1.275 . S
C570 O585 1.256 . S
C571 O586 1.259 . S
C571 O587 1.268 . S
C572 Ho561 2.811 . S
C572 C573 1.488 . S
C572 O588 1.215 . S
C572 O589 1.289 . S
C573 C572 1.488 . S
C573 C574 1.348 . S
C573 C578 1.413 . S
C574 C573 1.348 . S
C574 C575 1.442 . S
C574 H596 0.930 . S
C575 C574 1.442 . S
C575 C576 1.381 . S
C575 H597 0.931 . S
C576 C575 1.381 . S
C576 C577 1.321 . S
C577 C576 1.321 . S
C577 C578 1.403 . S
C577 H598 0.934 . S
C578 C573 1.413 . S
C578 C577 1.403 . S
C578 H599 0.930 . S
C579 O590 1.275 . S
C579 O591 1.256 . S
O580 Ho560 2.322 . S
O580 C562 1.259 . S
O581 Ho561 2.346 . S
O581 C562 1.268 . S
O582 Ho560 2.378 . S
O582 C563 1.215 . S
O583 Ho560 2.524 . S
O583 C563 1.289 . S
O584 Ho560 2.381 . S
O584 C570 1.275 . S
O585 Ho560 2.669 . S
O585 Ho561 2.305 . S
O585 C570 1.256 . S
O586 Ho561 2.322 . S
O586 C571 1.259 . S
O587 Ho560 2.346 . S
O587 C571 1.268 . S
O588 Ho561 2.378 . S
O588 C572 1.215 . S
O589 Ho561 2.524 . S
O589 C572 1.289 . S
O590 Ho561 2.381 . S
O590 C579 1.275 . S
O591 Ho560 2.305 . S
O591 Ho561 2.669 . S
O591 C579 1.256 . S
H592 C565 0.930 . S
H593 C566 0.931 . S
H594 C568 0.934 . S
H595 C569 0.930 . S
H596 C574 0.930 . S
H597 C575 0.931 . S
H598 C577 0.934 . S
H599 C578 0.930 . S
Ho600 C603 2.811 . S
Ho600 O620 2.322 1_655 S
Ho600 O622 2.378 . S
Ho600 O623 2.524 . S
Ho600 O624 2.381 . S
Ho600 O625 2.669 1_655 S
Ho600 O627 2.346 . S
Ho600 O631 2.305 1_655 S
Ho601 C612 2.811 . S
Ho601 O621 2.346 . S
Ho601 O625 2.305 . S
Ho601 O626 2.322 . S
Ho601 O628 2.378 . S
Ho601 O629 2.524 . S
Ho601 O630 2.381 . S
Ho601 O631 2.669 . S
C602 O620 1.259 . S
C602 O621 1.268 . S
C603 Ho600 2.811 . S
C603 C604 1.488 1_556 S
C603 O622 1.215 . S
C603 O623 1.289 . S
C604 C603 1.488 1_554 S
C604 C605 1.348 . S
C604 C609 1.413 . S
C605 C604 1.348 . S
C605 C606 1.442 . S
C605 H632 0.930 . S
C606 C605 1.442 . S
C606 C607 1.381 . S
C606 H633 0.931 . S
C607 C606 1.381 . S
C607 C608 1.321 . S
C608 C607 1.321 . S
C608 C609 1.403 . S
C608 H634 0.934 . S
C609 C604 1.413 . S
C609 C608 1.403 . S
C609 H635 0.930 . S
C610 O624 1.275 1_455 S
C610 O625 1.256 . S
C611 O626 1.259 1_655 S
C611 O627 1.268 . S
C612 Ho601 2.811 . S
C612 C613 1.488 . S
C612 O628 1.215 . S
C612 O629 1.289 . S
C613 C612 1.488 . S
C613 C614 1.348 . S
C613 C618 1.413 . S
C614 C613 1.348 . S
C614 C615 1.442 . S
C614 H636 0.930 . S
C615 C614 1.442 . S
C615 C616 1.381 . S
C615 H637 0.931 . S
C616 C615 1.381 . S
C616 C617 1.321 . S
C617 C616 1.321 . S
C617 C618 1.403 . S
C617 H638 0.934 . S
C618 C613 1.413 . S
C618 C617 1.403 . S
C618 H639 0.930 . S
C619 O630 1.275 . S
C619 O631 1.256 . S
O620 Ho600 2.322 1_455 S
O620 C602 1.259 . S
O621 Ho601 2.346 . S
O621 C602 1.268 . S
O622 Ho600 2.378 . S
O622 C603 1.215 . S
O623 Ho600 2.524 . S
O623 C603 1.289 . S
O624 Ho600 2.381 . S
O624 C610 1.275 1_655 S
O625 Ho600 2.669 1_455 S
O625 Ho601 2.305 . S
O625 C610 1.256 . S
O626 Ho601 2.322 . S
O626 C611 1.259 1_455 S
O627 Ho600 2.346 . S
O627 C611 1.268 . S
O628 Ho601 2.378 . S
O628 C612 1.215 . S
O629 Ho601 2.524 . S
O629 C612 1.289 . S
O630 Ho601 2.381 . S
O630 C619 1.275 . S
O631 Ho600 2.305 1_455 S
O631 Ho601 2.669 . S
O631 C619 1.256 . S
H632 C605 0.930 . S
H633 C606 0.931 . S
H634 C608 0.934 . S
H635 C609 0.930 . S
H636 C614 0.930 . S
H637 C615 0.931 . S
H638 C617 0.934 . S
H639 C618 0.930 . S
H640 C652 0.930 . S
H641 C654 0.930 . S
H642 C655 0.930 . S
H643 C659 0.959 . S
H644 C659 0.959 . S
H645 C659 0.961 . S
H646 C660 0.960 . S
H647 C660 0.961 . S
H648 C660 0.959 . S
H649 C663 0.929 . S
H650 C664 0.931 . S
H651 C666 0.930 . S
C652 H640 0.930 . S
C652 C653 1.399 . S
C652 C657 1.399 . S
C653 C652 1.399 . S
C653 C654 1.376 . S
C654 H641 0.930 . S
C654 C653 1.376 . S
C654 C655 1.388 . S
C655 H642 0.930 . S
C655 C654 1.388 . S
C655 C656 1.390 . S
C656 C655 1.390 . S
C656 C657 1.394 . S
C656 C662 1.465 . S
C657 C652 1.399 . S
C657 C656 1.394 . S
C657 C658 1.516 . S
C658 C657 1.516 . S
C658 C659 1.502 . S
C658 C660 1.561 . S
C658 C661 1.526 . S
C659 H643 0.959 . S
C659 H644 0.959 . S
C659 H645 0.961 . S
C659 C658 1.502 . S
C660 H646 0.960 . S
C660 H647 0.961 . S
C660 H648 0.959 . S
C660 C658 1.561 . S
C661 C658 1.526 . S
C661 C662 1.396 . S
C661 C666 1.390 . S
C662 C656 1.465 . S
C662 C661 1.396 . S
C662 C663 1.399 . S
C663 H649 0.929 . S
C663 C662 1.399 . S
C663 C664 1.385 . S
C664 H650 0.931 . S
C664 C663 1.385 . S
C664 C665 1.389 . S
C665 C664 1.389 . S
C665 C666 1.387 . S
C666 H651 0.930 . S
C666 C661 1.390 . S
C666 C665 1.387 . S
H667 C679 0.930 . S
H668 C681 0.930 . S
H669 C682 0.930 . S
H670 C686 0.959 . S
H671 C686 0.959 . S
H672 C686 0.961 . S
H673 C687 0.960 . S
H674 C687 0.961 . S
H675 C687 0.959 . S
H676 C690 0.929 . S
H677 C691 0.931 . S
H678 C693 0.930 . S
C679 H667 0.930 . S
C679 C680 1.399 . S
C679 C684 1.399 . S
C680 C679 1.399 . S
C680 C681 1.376 . S
C681 H668 0.930 . S
C681 C680 1.376 . S
C681 C682 1.388 . S
C682 H669 0.930 . S
C682 C681 1.388 . S
C682 C683 1.390 . S
C683 C682 1.390 . S
C683 C684 1.394 . S
C683 C689 1.465 . S
C684 C679 1.399 . S
C684 C683 1.394 . S
C684 C685 1.516 . S
C685 C684 1.516 . S
C685 C686 1.502 . S
C685 C687 1.561 . S
C685 C688 1.526 . S
C686 H670 0.959 . S
C686 H671 0.959 . S
C686 H672 0.961 . S
C686 C685 1.502 . S
C687 H673 0.960 . S
C687 H674 0.961 . S
C687 H675 0.959 . S
C687 C685 1.561 . S
C688 C685 1.526 . S
C688 C689 1.396 . S
C688 C693 1.390 . S
C689 C683 1.465 . S
C689 C688 1.396 . S
C689 C690 1.399 . S
C690 H676 0.929 . S
C690 C689 1.399 . S
C690 C691 1.385 . S
C691 H677 0.931 . S
C691 C690 1.385 . S
C691 C692 1.389 . S
C692 C691 1.389 . S
C692 C693 1.387 . S
C693 H678 0.930 . S
C693 C688 1.390 . S
C693 C692 1.387 . S
H694 C706 0.930 . S
H695 C708 0.930 . S
H696 C709 0.930 . S
H697 C713 0.959 . S
H698 C713 0.959 . S
H699 C713 0.961 . S
H700 C714 0.960 . S
H701 C714 0.961 . S
H702 C714 0.959 . S
H703 C717 0.929 . S
H704 C718 0.931 . S
H705 C720 0.930 . S
C706 H694 0.930 . S
C706 C707 1.399 . S
C706 C711 1.399 . S
C707 C706 1.399 . S
C707 C708 1.376 . S
C708 H695 0.930 . S
C708 C707 1.376 . S
C708 C709 1.388 . S
C709 H696 0.930 . S
C709 C708 1.388 . S
C709 C710 1.390 . S
C710 C709 1.390 . S
C710 C711 1.394 . S
C710 C716 1.465 . S
C711 C706 1.399 . S
C711 C710 1.394 . S
C711 C712 1.516 . S
C712 C711 1.516 . S
C712 C713 1.502 . S
C712 C714 1.561 . S
C712 C715 1.526 . S
C713 H697 0.959 . S
C713 H698 0.959 . S
C713 H699 0.961 . S
C713 C712 1.502 . S
C714 H700 0.960 . S
C714 H701 0.961 . S
C714 H702 0.959 . S
C714 C712 1.561 . S
C715 C712 1.526 . S
C715 C716 1.396 . S
C715 C720 1.390 . S
C716 C710 1.465 . S
C716 C715 1.396 . S
C716 C717 1.399 . S
C717 H703 0.929 . S
C717 C716 1.399 . S
C717 C718 1.385 . S
C718 H704 0.931 . S
C718 C717 1.385 . S
C718 C719 1.389 . S
C719 C718 1.389 . S
C719 C720 1.387 . S
C720 H705 0.930 . S
C720 C715 1.390 . S
C720 C719 1.387 . S
H721 C733 0.930 . S
H722 C735 0.930 . S
H723 C736 0.930 . S
H724 C740 0.959 . S
H725 C740 0.959 . S
H726 C740 0.961 . S
H727 C741 0.960 . S
H728 C741 0.961 . S
H729 C741 0.959 . S
H730 C744 0.929 . S
H731 C745 0.931 . S
H732 C747 0.930 . S
C733 H721 0.930 . S
C733 C734 1.399 . S
C733 C738 1.399 . S
C734 C733 1.399 . S
C734 C735 1.376 . S
C735 H722 0.930 . S
C735 C734 1.376 . S
C735 C736 1.388 . S
C736 H723 0.930 . S
C736 C735 1.388 . S
C736 C737 1.390 . S
C737 C736 1.390 . S
C737 C738 1.394 . S
C737 C743 1.465 . S
C738 C733 1.399 . S
C738 C737 1.394 . S
C738 C739 1.516 . S
C739 C738 1.516 . S
C739 C740 1.502 . S
C739 C741 1.561 . S
C739 C742 1.526 . S
C740 H724 0.959 . S
C740 H725 0.959 . S
C740 H726 0.961 . S
C740 C739 1.502 . S
C741 H727 0.960 . S
C741 H728 0.961 . S
C741 H729 0.959 . S
C741 C739 1.561 . S
C742 C739 1.526 . S
C742 C743 1.396 . S
C742 C747 1.390 . S
C743 C737 1.465 . S
C743 C742 1.396 . S
C743 C744 1.399 . S
C744 H730 0.929 . S
C744 C743 1.399 . S
C744 C745 1.385 . S
C745 H731 0.931 . S
C745 C744 1.385 . S
C745 C746 1.389 . S
C746 C745 1.389 . S
C746 C747 1.387 . S
C747 H732 0.930 . S
C747 C742 1.390 . S
C747 C746 1.387 . S
H748 C760 0.930 . S
H749 C762 0.930 . S
H750 C763 0.930 . S
H751 C767 0.959 . S
H752 C767 0.959 . S
H753 C767 0.961 . S
H754 C768 0.960 . S
H755 C768 0.961 . S
H756 C768 0.959 . S
H757 C771 0.929 . S
H758 C772 0.933 1_455 S
H759 C774 0.930 . S
C760 H748 0.930 . S
C760 C761 1.399 . S
C760 C765 1.399 . S
C761 C760 1.399 . S
C761 C762 1.376 . S
C762 H749 0.930 . S
C762 C761 1.376 . S
C762 C763 1.388 . S
C763 H750 0.930 . S
C763 C762 1.388 . S
C763 C764 1.390 . S
C764 C763 1.390 . S
C764 C765 1.394 . S
C764 C770 1.465 . S
C765 C760 1.399 . S
C765 C764 1.394 . S
C765 C766 1.516 . S
C766 C765 1.516 . S
C766 C767 1.502 . S
C766 C768 1.561 . S
C766 C769 1.526 . S
C767 H751 0.959 . S
C767 H752 0.959 . S
C767 H753 0.961 . S
C767 C766 1.502 . S
C768 H754 0.960 . S
C768 H755 0.961 . S
C768 H756 0.959 . S
C768 C766 1.561 . S
C769 C766 1.526 . S
C769 C770 1.396 . S
C769 C774 1.390 1_554 S
C770 C764 1.465 . S
C770 C769 1.396 . S
C770 C771 1.399 . S
C771 H757 0.929 . S
C771 C770 1.399 . S
C771 C772 1.385 1_554 S
C772 H758 0.933 1_655 S
C772 C771 1.385 1_556 S
C772 C773 1.389 . S
C773 C772 1.389 . S
C773 C774 1.387 . S
C774 H759 0.930 . S
C774 C769 1.390 1_556 S
C774 C773 1.387 . S
H775 C787 0.930 . S
H776 C789 0.930 . S
H777 C790 0.930 . S
H778 C794 0.959 . S
H779 C794 0.959 . S
H780 C794 0.961 . S
H781 C795 0.960 . S
H782 C795 0.961 . S
H783 C795 0.959 . S
H784 C798 0.929 . S
H785 C799 0.931 . S
H786 C801 0.930 . S
C787 H775 0.930 . S
C787 C788 1.399 . S
C787 C792 1.399 . S
C788 C787 1.399 . S
C788 C789 1.376 . S
C789 H776 0.930 . S
C789 C788 1.376 . S
C789 C790 1.388 . S
C790 H777 0.930 . S
C790 C789 1.388 . S
C790 C791 1.390 . S
C791 C790 1.390 . S
C791 C792 1.394 . S
C791 C797 1.465 . S
C792 C787 1.399 . S
C792 C791 1.394 . S
C792 C793 1.516 . S
C793 C792 1.516 . S
C793 C794 1.502 . S
C793 C795 1.561 . S
C793 C796 1.526 . S
C794 H778 0.959 . S
C794 H779 0.959 . S
C794 H780 0.961 . S
C794 C793 1.502 . S
C795 H781 0.960 . S
C795 H782 0.961 . S
C795 H783 0.959 . S
C795 C793 1.561 . S
C796 C793 1.526 . S
C796 C797 1.396 . S
C796 C801 1.390 . S
C797 C791 1.465 . S
C797 C796 1.396 . S
C797 C798 1.399 . S
C798 H784 0.929 . S
C798 C797 1.399 . S
C798 C799 1.385 . S
C799 H785 0.931 . S
C799 C798 1.385 . S
C799 C800 1.389 . S
C800 C799 1.389 . S
C800 C801 1.387 . S
C801 H786 0.930 . S
C801 C796 1.390 . S
C801 C800 1.387 . S
H802 C814 0.930 . S
H803 C816 0.930 . S
H804 C817 0.930 . S
H805 C821 0.959 . S
H806 C821 0.959 . S
H807 C821 0.961 . S
H808 C822 0.960 . S
H809 C822 0.961 . S
H810 C822 0.959 . S
H811 C825 0.929 . S
H812 C826 0.931 . S
H813 C828 0.930 . S
C814 H802 0.930 . S
C814 C815 1.399 . S
C814 C819 1.399 . S
C815 C814 1.399 . S
C815 C816 1.376 . S
C816 H803 0.930 . S
C816 C815 1.376 . S
C816 C817 1.388 . S
C817 H804 0.930 . S
C817 C816 1.388 . S
C817 C818 1.390 . S
C818 C817 1.390 . S
C818 C819 1.394 . S
C818 C824 1.465 . S
C819 C814 1.399 . S
C819 C818 1.394 . S
C819 C820 1.516 . S
C820 C819 1.516 . S
C820 C821 1.502 . S
C820 C822 1.561 . S
C820 C823 1.526 . S
C821 H805 0.959 . S
C821 H806 0.959 . S
C821 H807 0.961 . S
C821 C820 1.502 . S
C822 H808 0.960 . S
C822 H809 0.961 . S
C822 H810 0.959 . S
C822 C820 1.561 . S
C823 C820 1.526 . S
C823 C824 1.396 . S
C823 C828 1.390 . S
C824 C818 1.465 . S
C824 C823 1.396 . S
C824 C825 1.399 . S
C825 H811 0.929 . S
C825 C824 1.399 . S
C825 C826 1.385 . S
C826 H812 0.931 . S
C826 C825 1.385 . S
C826 C827 1.389 . S
C827 C826 1.389 . S
C827 C828 1.387 . S
C828 H813 0.930 . S
C828 C823 1.390 . S
C828 C827 1.387 . S
H829 C841 0.930 . S
H830 C843 0.930 . S
H831 C844 0.930 . S
H832 C848 0.959 . S
H833 C848 0.959 . S
H834 C848 0.961 . S
H835 C849 0.960 . S
H836 C849 0.961 . S
H837 C849 0.959 . S
H838 C852 0.929 . S
H839 C853 0.931 . S
H840 C855 0.930 . S
C841 H829 0.930 . S
C841 C842 1.399 . S
C841 C846 1.399 . S
C842 C841 1.399 . S
C842 C843 1.376 . S
C843 H830 0.930 . S
C843 C842 1.376 . S
C843 C844 1.388 . S
C844 H831 0.930 . S
C844 C843 1.388 . S
C844 C845 1.390 . S
C845 C844 1.390 . S
C845 C846 1.394 . S
C845 C851 1.465 . S
C846 C841 1.399 . S
C846 C845 1.394 . S
C846 C847 1.516 . S
C847 C846 1.516 . S
C847 C848 1.502 . S
C847 C849 1.561 . S
C847 C850 1.526 . S
C848 H832 0.959 . S
C848 H833 0.959 . S
C848 H834 0.961 . S
C848 C847 1.502 . S
C849 H835 0.960 . S
C849 H836 0.961 . S
C849 H837 0.959 . S
C849 C847 1.561 . S
C850 C847 1.526 . S
C850 C851 1.396 . S
C850 C855 1.390 . S
C851 C845 1.465 . S
C851 C850 1.396 . S
C851 C852 1.399 . S
C852 H838 0.929 . S
C852 C851 1.399 . S
C852 C853 1.385 . S
C853 H839 0.931 . S
C853 C852 1.385 . S
C853 C854 1.389 . S
C854 C853 1.389 . S
C854 C855 1.387 . S
C855 H840 0.930 . S
C855 C850 1.390 . S
C855 C854 1.387 . S
H856 C868 0.930 . S
H857 C870 0.930 . S
H858 C871 0.930 . S
H859 C875 0.959 . S
H860 C875 0.959 . S
H861 C875 0.961 . S
H862 C876 0.960 . S
H863 C876 0.961 . S
H864 C876 0.959 . S
H865 C879 0.929 . S
H866 C880 0.931 . S
H867 C882 0.930 . S
C868 H856 0.930 . S
C868 C869 1.399 . S
C868 C873 1.399 . S
C869 C868 1.399 . S
C869 C870 1.376 . S
C870 H857 0.930 . S
C870 C869 1.376 . S
C870 C871 1.388 . S
C871 H858 0.930 . S
C871 C870 1.388 . S
C871 C872 1.390 . S
C872 C871 1.390 . S
C872 C873 1.394 . S
C872 C878 1.465 . S
C873 C868 1.399 . S
C873 C872 1.394 . S
C873 C874 1.516 . S
C874 C873 1.516 . S
C874 C875 1.502 . S
C874 C876 1.561 . S
C874 C877 1.526 . S
C875 H859 0.959 . S
C875 H860 0.959 . S
C875 H861 0.961 . S
C875 C874 1.502 . S
C876 H862 0.960 . S
C876 H863 0.961 . S
C876 H864 0.959 . S
C876 C874 1.561 . S
C877 C874 1.526 . S
C877 C878 1.396 . S
C877 C882 1.390 . S
C878 C872 1.465 . S
C878 C877 1.396 . S
C878 C879 1.399 . S
C879 H865 0.929 . S
C879 C878 1.399 . S
C879 C880 1.385 . S
C880 H866 0.931 . S
C880 C879 1.385 . S
C880 C881 1.389 . S
C881 C880 1.389 . S
C881 C882 1.387 . S
C882 H867 0.930 . S
C882 C877 1.390 . S
C882 C881 1.387 . S
H883 C895 0.930 . S
H884 C897 0.930 . S
H885 C898 0.930 . S
H886 C902 0.959 . S
H887 C902 0.959 . S
H888 C902 0.961 . S
H889 C903 0.960 . S
H890 C903 0.961 . S
H891 C903 0.959 . S
H892 C906 0.929 . S
H893 C907 0.931 . S
H894 C909 0.930 . S
C895 H883 0.930 . S
C895 C896 1.399 . S
C895 C900 1.399 . S
C896 C895 1.399 . S
C896 C897 1.376 . S
C897 H884 0.930 . S
C897 C896 1.376 . S
C897 C898 1.388 . S
C898 H885 0.930 . S
C898 C897 1.388 . S
C898 C899 1.390 . S
C899 C898 1.390 . S
C899 C900 1.394 . S
C899 C905 1.465 . S
C900 C895 1.399 . S
C900 C899 1.394 . S
C900 C901 1.516 . S
C901 C900 1.516 . S
C901 C902 1.502 . S
C901 C903 1.561 . S
C901 C904 1.526 . S
C902 H886 0.959 . S
C902 H887 0.959 . S
C902 H888 0.961 . S
C902 C901 1.502 . S
C903 H889 0.960 . S
C903 H890 0.961 . S
C903 H891 0.959 . S
C903 C901 1.561 . S
C904 C901 1.526 . S
C904 C905 1.396 . S
C904 C909 1.390 . S
C905 C899 1.465 . S
C905 C904 1.396 . S
C905 C906 1.399 . S
C906 H892 0.929 . S
C906 C905 1.399 . S
C906 C907 1.385 . S
C907 H893 0.931 . S
C907 C906 1.385 . S
C907 C908 1.389 . S
C908 C907 1.389 . S
C908 C909 1.387 . S
C909 H894 0.930 . S
C909 C904 1.390 . S
C909 C908 1.387 . S
H910 C922 0.930 . S
H911 C924 0.930 1_455 S
H912 C925 0.931 1_556 S
H913 C929 0.959 . S
H914 C929 0.959 . S
H915 C929 0.942 1_554 S
H916 C930 0.960 . S
H917 C930 0.961 . S
H918 C930 0.959 . S
H919 C933 0.929 . S
H920 C934 0.931 . S
H921 C936 0.930 . S
C922 H910 0.930 . S
C922 C923 1.399 . S
C922 C927 1.399 1_554 S
C923 C922 1.399 . S
C923 C924 1.376 . S
C924 H911 0.930 1_655 S
C924 C923 1.376 . S
C924 C925 1.388 . S
C925 H912 0.931 1_554 S
C925 C924 1.388 . S
C925 C926 1.390 1_554 S
C926 C925 1.390 1_556 S
C926 C927 1.394 . S
C926 C932 1.465 . S
C927 C922 1.399 1_556 S
C927 C926 1.394 . S
C927 C928 1.516 . S
C928 C927 1.516 . S
C928 C929 1.502 . S
C928 C930 1.561 . S
C928 C931 1.526 . S
C929 H913 0.959 . S
C929 H914 0.959 . S
C929 H915 0.942 1_556 S
C929 C928 1.502 . S
C930 H916 0.960 . S
C930 H917 0.961 . S
C930 H918 0.959 . S
C930 C928 1.561 . S
C931 C928 1.526 . S
C931 C932 1.396 . S
C931 C936 1.390 . S
C932 C926 1.465 . S
C932 C931 1.396 . S
C932 C933 1.399 . S
C933 H919 0.929 . S
C933 C932 1.399 . S
C933 C934 1.385 . S
C934 H920 0.931 . S
C934 C933 1.385 . S
C934 C935 1.389 . S
C935 C934 1.389 . S
C935 C936 1.387 . S
C936 H921 0.930 . S
C936 C931 1.390 . S
C936 C935 1.387 . S
H937 C949 0.930 . S
H938 C951 0.930 . S
H939 C952 0.930 . S
H940 C956 0.959 . S
H941 C956 0.959 . S
H942 C956 0.961 . S
H943 C957 0.960 . S
H944 C957 0.961 . S
H945 C957 0.959 . S
H946 C960 0.929 . S
H947 C961 0.931 . S
H948 C963 0.930 . S
C949 H937 0.930 . S
C949 C950 1.399 . S
C949 C954 1.399 . S
C950 C949 1.399 . S
C950 C951 1.376 . S
C951 H938 0.930 . S
C951 C950 1.376 . S
C951 C952 1.388 . S
C952 H939 0.930 . S
C952 C951 1.388 . S
C952 C953 1.390 . S
C953 C952 1.390 . S
C953 C954 1.394 . S
C953 C959 1.465 . S
C954 C949 1.399 . S
C954 C953 1.394 . S
C954 C955 1.516 . S
C955 C954 1.516 . S
C955 C956 1.502 . S
C955 C957 1.561 . S
C955 C958 1.526 . S
C956 H940 0.959 . S
C956 H941 0.959 . S
C956 H942 0.961 . S
C956 C955 1.502 . S
C957 H943 0.960 . S
C957 H944 0.961 . S
C957 H945 0.959 . S
C957 C955 1.561 . S
C958 C955 1.526 . S
C958 C959 1.396 . S
C958 C963 1.390 . S
C959 C953 1.465 . S
C959 C958 1.396 . S
C959 C960 1.399 . S
C960 H946 0.929 . S
C960 C959 1.399 . S
C960 C961 1.385 . S
C961 H947 0.931 . S
C961 C960 1.385 . S
C961 C962 1.389 . S
C962 C961 1.389 . S
C962 C963 1.387 . S
C963 H948 0.930 . S
C963 C958 1.390 . S
C963 C962 1.387 . S
H964 C976 0.930 . S
H965 C978 0.930 . S
H966 C979 0.930 . S
H967 C983 0.959 . S
H968 C983 0.959 . S
H969 C983 0.961 . S
H970 C984 0.960 . S
H971 C984 0.961 . S
H972 C984 0.959 . S
H973 C987 0.929 . S
H974 C988 0.931 . S
H975 C990 0.930 . S
C976 H964 0.930 . S
C976 C977 1.399 . S
C976 C981 1.399 . S
C977 C976 1.399 . S
C977 C978 1.376 . S
C978 H965 0.930 . S
C978 C977 1.376 . S
C978 C979 1.388 . S
C979 H966 0.930 . S
C979 C978 1.388 . S
C979 C980 1.390 . S
C980 C979 1.390 . S
C980 C981 1.394 . S
C980 C986 1.465 . S
C981 C976 1.399 . S
C981 C980 1.394 . S
C981 C982 1.516 . S
C982 C981 1.516 . S
C982 C983 1.502 . S
C982 C984 1.561 . S
C982 C985 1.526 . S
C983 H967 0.959 . S
C983 H968 0.959 . S
C983 H969 0.961 . S
C983 C982 1.502 . S
C984 H970 0.960 . S
C984 H971 0.961 . S
C984 H972 0.959 . S
C984 C982 1.561 . S
C985 C982 1.526 . S
C985 C986 1.396 . S
C985 C990 1.390 . S
C986 C980 1.465 . S
C986 C985 1.396 . S
C986 C987 1.399 . S
C987 H973 0.929 . S
C987 C986 1.399 . S
C987 C988 1.385 . S
C988 H974 0.931 . S
C988 C987 1.385 . S
C988 C989 1.389 . S
C989 C988 1.389 . S
C989 C990 1.387 . S
C990 H975 0.930 . S
C990 C985 1.390 . S
C990 C989 1.387 . S
H991 C1003 0.930 . S
H992 C1005 0.930 . S
H993 C1006 0.930 . S
H994 C1010 0.959 . S
H995 C1010 0.959 . S
H996 C1010 0.961 . S
H997 C1011 0.960 . S
H998 C1011 0.961 . S
H999 C1011 0.959 . S
H1000 C1014 0.929 . S
H1001 C1015 0.931 . S
H1002 C1017 0.930 . S
C1003 H991 0.930 . S
C1003 C1004 1.399 . S
C1003 C1008 1.399 . S
C1004 C1003 1.399 . S
C1004 C1005 1.376 . S
C1005 H992 0.930 . S
C1005 C1004 1.376 . S
C1005 C1006 1.388 . S
C1006 H993 0.930 . S
C1006 C1005 1.388 . S
C1006 C1007 1.390 . S
C1007 C1006 1.390 . S
C1007 C1008 1.394 . S
C1007 C1013 1.465 . S
C1008 C1003 1.399 . S
C1008 C1007 1.394 . S
C1008 C1009 1.516 . S
C1009 C1008 1.516 . S
C1009 C1010 1.502 . S
C1009 C1011 1.561 . S
C1009 C1012 1.526 . S
C1010 H994 0.959 . S
C1010 H995 0.959 . S
C1010 H996 0.961 . S
C1010 C1009 1.502 . S
C1011 H997 0.960 . S
C1011 H998 0.961 . S
C1011 H999 0.959 . S
C1011 C1009 1.561 . S
C1012 C1009 1.526 . S
C1012 C1013 1.396 . S
C1012 C1017 1.390 . S
C1013 C1007 1.465 . S
C1013 C1012 1.396 . S
C1013 C1014 1.399 . S
C1014 H1000 0.929 . S
C1014 C1013 1.399 . S
C1014 C1015 1.385 . S
C1015 H1001 0.931 . S
C1015 C1014 1.385 . S
C1015 C1016 1.389 . S
C1016 C1015 1.389 . S
C1016 C1017 1.387 . S
C1017 H1002 0.930 . S
C1017 C1012 1.390 . S
C1017 C1016 1.387 . S
H1018 C1030 0.930 . S
H1019 C1032 0.930 . S
H1020 C1033 0.930 . S
H1021 C1037 0.959 . S
H1022 C1037 0.959 . S
H1023 C1037 0.961 . S
H1024 C1038 0.960 . S
H1025 C1038 0.961 . S
H1026 C1038 0.959 . S
H1027 C1041 0.929 . S
H1028 C1042 0.931 . S
H1029 C1044 0.930 . S
C1030 H1018 0.930 . S
C1030 C1031 1.399 . S
C1030 C1035 1.399 . S
C1031 C1030 1.399 . S
C1031 C1032 1.376 . S
C1032 H1019 0.930 . S
C1032 C1031 1.376 . S
C1032 C1033 1.388 . S
C1033 H1020 0.930 . S
C1033 C1032 1.388 . S
C1033 C1034 1.390 . S
C1034 C1033 1.390 . S
C1034 C1035 1.394 . S
C1034 C1040 1.465 . S
C1035 C1030 1.399 . S
C1035 C1034 1.394 . S
C1035 C1036 1.516 . S
C1036 C1035 1.516 . S
C1036 C1037 1.502 . S
C1036 C1038 1.561 . S
C1036 C1039 1.526 . S
C1037 H1021 0.959 . S
C1037 H1022 0.959 . S
C1037 H1023 0.961 . S
C1037 C1036 1.502 . S
C1038 H1024 0.960 . S
C1038 H1025 0.961 . S
C1038 H1026 0.959 . S
C1038 C1036 1.561 . S
C1039 C1036 1.526 . S
C1039 C1040 1.396 . S
C1039 C1044 1.390 . S
C1040 C1034 1.465 . S
C1040 C1039 1.396 . S
C1040 C1041 1.399 . S
C1041 H1027 0.929 . S
C1041 C1040 1.399 . S
C1041 C1042 1.385 1_554 S
C1042 H1028 0.931 . S
C1042 C1041 1.385 1_556 S
C1042 C1043 1.389 . S
C1043 C1042 1.389 . S
C1043 C1044 1.387 1_556 S
C1044 H1029 0.930 . S
C1044 C1039 1.390 . S
C1044 C1043 1.387 1_554 S
H1045 C1057 0.930 . S
H1046 C1059 0.930 . S
H1047 C1060 0.930 . S
H1048 C1064 0.959 . S
H1049 C1064 0.959 . S
H1050 C1064 0.961 . S
H1051 C1065 0.960 . S
H1052 C1065 0.961 . S
H1053 C1065 0.959 . S
H1054 C1068 0.929 . S
H1055 C1069 0.931 . S
H1056 C1071 0.930 . S
C1057 H1045 0.930 . S
C1057 C1058 1.399 . S
C1057 C1062 1.399 . S
C1058 C1057 1.399 . S
C1058 C1059 1.376 . S
C1059 H1046 0.930 . S
C1059 C1058 1.376 . S
C1059 C1060 1.388 . S
C1060 H1047 0.930 . S
C1060 C1059 1.388 . S
C1060 C1061 1.390 . S
C1061 C1060 1.390 . S
C1061 C1062 1.394 . S
C1061 C1067 1.465 . S
C1062 C1057 1.399 . S
C1062 C1061 1.394 . S
C1062 C1063 1.516 . S
C1063 C1062 1.516 . S
C1063 C1064 1.502 . S
C1063 C1065 1.561 . S
C1063 C1066 1.526 . S
C1064 H1048 0.959 . S
C1064 H1049 0.959 . S
C1064 H1050 0.961 . S
C1064 C1063 1.502 . S
C1065 H1051 0.960 . S
C1065 H1052 0.961 . S
C1065 H1053 0.959 . S
C1065 C1063 1.561 . S
C1066 C1063 1.526 . S
C1066 C1067 1.396 . S
C1066 C1071 1.390 . S
C1067 C1061 1.465 . S
C1067 C1066 1.396 . S
C1067 C1068 1.399 . S
C1068 H1054 0.929 . S
C1068 C1067 1.399 . S
C1068 C1069 1.385 . S
C1069 H1055 0.931 . S
C1069 C1068 1.385 . S
C1069 C1070 1.389 . S
C1070 C1069 1.389 . S
C1070 C1071 1.387 . S
C1071 H1056 0.930 . S
C1071 C1066 1.390 . S
C1071 C1070 1.387 . S
H1072 C1084 0.930 . S
H1073 C1086 0.930 . S
H1074 C1087 0.930 . S
H1075 C1091 0.959 . S
H1076 C1091 0.959 . S
H1077 C1091 0.961 . S
H1078 C1092 0.960 . S
H1079 C1092 0.961 . S
H1080 C1092 0.959 . S
H1081 C1095 0.929 . S
H1082 C1096 0.931 . S
H1083 C1098 0.930 . S
C1084 H1072 0.930 . S
C1084 C1085 1.399 1_655 S
C1084 C1089 1.399 1_655 S
C1085 C1084 1.399 1_455 S
C1085 C1086 1.376 . S
C1086 H1073 0.930 . S
C1086 C1085 1.376 . S
C1086 C1087 1.388 . S
C1087 H1074 0.930 . S
C1087 C1086 1.388 . S
C1087 C1088 1.390 . S
C1088 C1087 1.390 . S
C1088 C1089 1.394 . S
C1088 C1094 1.465 . S
C1089 C1084 1.399 1_455 S
C1089 C1088 1.394 . S
C1089 C1090 1.516 1_455 S
C1090 C1089 1.516 1_655 S
C1090 C1091 1.502 . S
C1090 C1092 1.561 1_655 S
C1090 C1093 1.524 1_655 S
C1091 H1075 0.959 . S
C1091 H1076 0.959 . S
C1091 H1077 0.961 . S
C1091 C1090 1.502 . S
C1092 H1078 0.960 . S
C1092 H1079 0.961 . S
C1092 H1080 0.959 . S
C1092 C1090 1.561 1_455 S
C1093 C1090 1.524 1_455 S
C1093 C1094 1.398 . S
C1093 C1098 1.389 1_455 S
C1094 C1088 1.465 . S
C1094 C1093 1.398 . S
C1094 C1095 1.399 . S
C1095 H1081 0.929 . S
C1095 C1094 1.399 . S
C1095 C1096 1.385 . S
C1096 H1082 0.931 . S
C1096 C1095 1.385 . S
C1096 C1097 1.389 . S
C1097 C1096 1.389 . S
C1097 C1098 1.387 1_455 S
C1098 H1083 0.930 . S
C1098 C1093 1.389 1_655 S
C1098 C1097 1.387 1_655 S
H1099 C1111 0.930 . S
H1100 C1113 0.930 . S
H1101 C1114 0.930 . S
H1102 C1118 0.959 . S
H1103 C1118 0.959 . S
H1104 C1118 0.961 1_655 S
H1105 C1119 0.960 . S
H1106 C1119 0.961 . S
H1107 C1119 0.959 . S
H1108 C1122 0.929 . S
H1109 C1123 0.931 . S
H1110 C1125 0.930 . S
C1111 H1099 0.930 . S
C1111 C1112 1.399 . S
C1111 C1116 1.399 . S
C1112 C1111 1.399 . S
C1112 C1113 1.376 . S
C1113 H1100 0.930 . S
C1113 C1112 1.376 . S
C1113 C1114 1.388 . S
C1114 H1101 0.930 . S
C1114 C1113 1.388 . S
C1114 C1115 1.390 1_655 S
C1115 C1114 1.390 1_455 S
C1115 C1116 1.394 1_455 S
C1115 C1121 1.465 . S
C1116 C1111 1.399 . S
C1116 C1115 1.394 1_655 S
C1116 C1117 1.516 1_655 S
C1117 C1116 1.516 1_455 S
C1117 C1118 1.502 . S
C1117 C1119 1.561 . S
C1117 C1120 1.526 . S
C1118 H1102 0.959 . S
C1118 H1103 0.959 . S
C1118 H1104 0.961 1_455 S
C1118 C1117 1.502 . S
C1119 H1105 0.960 . S
C1119 H1106 0.961 . S
C1119 H1107 0.959 . S
C1119 C1117 1.561 . S
C1120 C1117 1.526 . S
C1120 C1121 1.396 . S
C1120 C1125 1.390 . S
C1121 C1115 1.465 . S
C1121 C1120 1.396 . S
C1121 C1122 1.399 . S
C1122 H1108 0.929 . S
C1122 C1121 1.399 . S
C1122 C1123 1.385 . S
C1123 H1109 0.931 . S
C1123 C1122 1.385 . S
C1123 C1124 1.389 . S
C1124 C1123 1.389 . S
C1124 C1125 1.387 . S
C1125 H1110 0.930 . S
C1125 C1120 1.390 . S
C1125 C1124 1.387 . S
H1126 C1138 0.930 . S
H1127 C1140 0.930 . S
H1128 C1141 0.930 . S
H1129 C1145 0.959 . S
H1130 C1145 0.959 . S
H1131 C1145 0.961 . S
H1132 C1146 0.960 . S
H1133 C1146 0.961 . S
H1134 C1146 0.959 . S
H1135 C1149 0.929 . S
H1136 C1150 0.931 . S
H1137 C1152 0.930 . S
C1138 H1126 0.930 . S
C1138 C1139 1.399 . S
C1138 C1143 1.399 . S
C1139 C1138 1.399 . S
C1139 C1140 1.376 . S
C1140 H1127 0.930 . S
C1140 C1139 1.376 . S
C1140 C1141 1.388 . S
C1141 H1128 0.930 . S
C1141 C1140 1.388 . S
C1141 C1142 1.390 . S
C1142 C1141 1.390 . S
C1142 C1143 1.394 . S
C1142 C1148 1.465 . S
C1143 C1138 1.399 . S
C1143 C1142 1.394 . S
C1143 C1144 1.516 . S
C1144 C1143 1.516 . S
C1144 C1145 1.502 . S
C1144 C1146 1.561 . S
C1144 C1147 1.526 . S
C1145 H1129 0.959 . S
C1145 H1130 0.959 . S
C1145 H1131 0.961 . S
C1145 C1144 1.502 . S
C1146 H1132 0.960 . S
C1146 H1133 0.961 . S
C1146 H1134 0.959 . S
C1146 C1144 1.561 . S
C1147 C1144 1.526 . S
C1147 C1148 1.396 . S
C1147 C1152 1.390 . S
C1148 C1142 1.465 . S
C1148 C1147 1.396 . S
C1148 C1149 1.399 . S
C1149 H1135 0.929 . S
C1149 C1148 1.399 . S
C1149 C1150 1.385 . S
C1150 H1136 0.931 . S
C1150 C1149 1.385 . S
C1150 C1151 1.389 . S
C1151 C1150 1.389 . S
C1151 C1152 1.387 . S
C1152 H1137 0.930 . S
C1152 C1147 1.390 . S
C1152 C1151 1.387 . S
H1153 C1165 0.930 . S
H1154 C1167 0.930 . S
H1155 C1168 0.930 . S
H1156 C1172 0.959 . S
H1157 C1172 0.959 . S
H1158 C1172 0.961 . S
H1159 C1173 0.960 . S
H1160 C1173 0.961 . S
H1161 C1173 0.959 . S
H1162 C1176 0.929 . S
H1163 C1177 0.931 . S
H1164 C1179 0.930 . S
C1165 H1153 0.930 . S
C1165 C1166 1.399 . S
C1165 C1170 1.399 . S
C1166 C1165 1.399 . S
C1166 C1167 1.376 . S
C1167 H1154 0.930 . S
C1167 C1166 1.376 . S
C1167 C1168 1.388 . S
C1168 H1155 0.930 . S
C1168 C1167 1.388 . S
C1168 C1169 1.390 . S
C1169 C1168 1.390 . S
C1169 C1170 1.394 . S
C1169 C1175 1.465 . S
C1170 C1165 1.399 . S
C1170 C1169 1.394 . S
C1170 C1171 1.516 . S
C1171 C1170 1.516 . S
C1171 C1172 1.502 . S
C1171 C1173 1.561 . S
C1171 C1174 1.526 . S
C1172 H1156 0.959 . S
C1172 H1157 0.959 . S
C1172 H1158 0.961 . S
C1172 C1171 1.502 . S
C1173 H1159 0.960 . S
C1173 H1160 0.961 . S
C1173 H1161 0.959 . S
C1173 C1171 1.561 . S
C1174 C1171 1.526 . S
C1174 C1175 1.396 . S
C1174 C1179 1.390 . S
C1175 C1169 1.465 . S
C1175 C1174 1.396 . S
C1175 C1176 1.399 . S
C1176 H1162 0.929 . S
C1176 C1175 1.399 . S
C1176 C1177 1.385 . S
C1177 H1163 0.931 . S
C1177 C1176 1.385 . S
C1177 C1178 1.389 . S
C1178 C1177 1.389 . S
C1178 C1179 1.387 . S
C1179 H1164 0.930 . S
C1179 C1174 1.390 . S
C1179 C1178 1.387 . S
H1180 C1192 0.930 . S
H1181 C1194 0.930 . S
H1182 C1195 0.930 . S
H1183 C1199 0.959 . S
H1184 C1199 0.959 . S
H1185 C1199 0.961 . S
H1186 C1200 0.960 . S
H1187 C1200 0.961 . S
H1188 C1200 0.959 1_655 S
H1189 C1203 0.929 . S
H1190 C1204 0.925 1_655 S
H1191 C1206 0.930 . S
C1192 H1180 0.930 . S
C1192 C1193 1.399 . S
C1192 C1197 1.399 . S
C1193 C1192 1.399 . S
C1193 C1194 1.376 1_455 S
C1194 H1181 0.930 . S
C1194 C1193 1.376 1_655 S
C1194 C1195 1.388 . S
C1195 H1182 0.930 . S
C1195 C1194 1.388 . S
C1195 C1196 1.390 1_655 S
C1196 C1195 1.390 1_455 S
C1196 C1197 1.394 . S
C1196 C1202 1.465 . S
C1197 C1192 1.399 . S
C1197 C1196 1.394 . S
C1197 C1198 1.516 . S
C1198 C1197 1.516 . S
C1198 C1199 1.502 . S
C1198 C1200 1.561 . S
C1198 C1201 1.526 . S
C1199 H1183 0.959 . S
C1199 H1184 0.959 . S
C1199 H1185 0.961 . S
C1199 C1198 1.502 . S
C1200 H1186 0.960 . S
C1200 H1187 0.961 . S
C1200 H1188 0.959 1_455 S
C1200 C1198 1.561 . S
C1201 C1198 1.526 . S
C1201 C1202 1.396 . S
C1201 C1206 1.390 . S
C1202 C1196 1.465 . S
C1202 C1201 1.396 . S
C1202 C1203 1.399 1_455 S
C1203 H1189 0.929 . S
C1203 C1202 1.399 1_655 S
C1203 C1204 1.380 1_655 S
C1204 H1190 0.925 1_455 S
C1204 C1203 1.380 1_455 S
C1204 C1205 1.400 . S
C1205 C1204 1.400 . S
C1205 C1206 1.387 . S
C1206 H1191 0.930 . S
C1206 C1201 1.390 . S
C1206 C1205 1.387 . S
H1207 C1219 0.930 . S
H1208 C1221 0.930 . S
H1209 C1222 0.930 . S
H1210 C1226 0.959 . S
H1211 C1226 0.959 . S
H1212 C1226 0.961 . S
H1213 C1227 0.960 . S
H1214 C1227 0.961 . S
H1215 C1227 0.959 . S
H1216 C1230 0.929 . S
H1217 C1231 0.931 . S
H1218 C1233 0.930 . S
C1219 H1207 0.930 . S
C1219 C1220 1.399 . S
C1219 C1224 1.399 . S
C1220 C1219 1.399 . S
C1220 C1221 1.376 . S
C1221 H1208 0.930 . S
C1221 C1220 1.376 . S
C1221 C1222 1.388 . S
C1222 H1209 0.930 . S
C1222 C1221 1.388 . S
C1222 C1223 1.390 . S
C1223 C1222 1.390 . S
C1223 C1224 1.394 . S
C1223 C1229 1.465 . S
C1224 C1219 1.399 . S
C1224 C1223 1.394 . S
C1224 C1225 1.516 . S
C1225 C1224 1.516 . S
C1225 C1226 1.502 . S
C1225 C1227 1.561 . S
C1225 C1228 1.526 . S
C1226 H1210 0.959 . S
C1226 H1211 0.959 . S
C1226 H1212 0.961 . S
C1226 C1225 1.502 . S
C1227 H1213 0.960 . S
C1227 H1214 0.961 . S
C1227 H1215 0.959 . S
C1227 C1225 1.561 . S
C1228 C1225 1.526 . S
C1228 C1229 1.396 . S
C1228 C1233 1.390 . S
C1229 C1223 1.465 . S
C1229 C1228 1.396 . S
C1229 C1230 1.399 . S
C1230 H1216 0.929 . S
C1230 C1229 1.399 . S
C1230 C1231 1.385 . S
C1231 H1217 0.931 . S
C1231 C1230 1.385 . S
C1231 C1232 1.389 . S
C1232 C1231 1.389 . S
C1232 C1233 1.387 . S
C1233 H1218 0.930 . S
C1233 C1228 1.390 . S
C1233 C1232 1.387 . S
H1234 C1246 0.930 . S
H1235 C1248 0.930 . S
H1236 C1249 0.930 . S
H1237 C1253 0.959 . S
H1238 C1253 0.959 . S
H1239 C1253 0.961 . S
H1240 C1254 0.960 . S
H1241 C1254 0.961 . S
H1242 C1254 0.959 . S
H1243 C1257 0.929 . S
H1244 C1258 0.931 . S
H1245 C1260 0.930 . S
C1246 H1234 0.930 . S
C1246 C1247 1.399 . S
C1246 C1251 1.399 . S
C1247 C1246 1.399 . S
C1247 C1248 1.376 . S
C1248 H1235 0.930 . S
C1248 C1247 1.376 . S
C1248 C1249 1.388 . S
C1249 H1236 0.930 . S
C1249 C1248 1.388 . S
C1249 C1250 1.390 . S
C1250 C1249 1.390 . S
C1250 C1251 1.394 . S
C1250 C1256 1.465 . S
C1251 C1246 1.399 . S
C1251 C1250 1.394 . S
C1251 C1252 1.516 . S
C1252 C1251 1.516 . S
C1252 C1253 1.502 . S
C1252 C1254 1.561 . S
C1252 C1255 1.526 . S
C1253 H1237 0.959 . S
C1253 H1238 0.959 . S
C1253 H1239 0.961 . S
C1253 C1252 1.502 . S
C1254 H1240 0.960 . S
C1254 H1241 0.961 . S
C1254 H1242 0.959 . S
C1254 C1252 1.561 . S
C1255 C1252 1.526 . S
C1255 C1256 1.396 . S
C1255 C1260 1.390 . S
C1256 C1250 1.465 . S
C1256 C1255 1.396 . S
C1256 C1257 1.399 . S
C1257 H1243 0.929 . S
C1257 C1256 1.399 . S
C1257 C1258 1.385 . S
C1258 H1244 0.931 . S
C1258 C1257 1.385 . S
C1258 C1259 1.389 . S
C1259 C1258 1.389 . S
C1259 C1260 1.387 . S
C1260 H1245 0.930 . S
C1260 C1255 1.390 . S
C1260 C1259 1.387 . S
H1261 C1273 0.930 . S
H1262 C1275 0.930 . S
H1263 C1276 0.930 . S
H1264 C1280 0.959 . S
H1265 C1280 0.959 . S
H1266 C1280 0.961 . S
H1267 C1281 0.960 . S
H1268 C1281 0.961 1_655 S
H1269 C1281 0.959 1_655 S
H1270 C1284 0.929 . S
H1271 C1285 0.931 . S
H1272 C1287 0.930 . S
C1273 H1261 0.930 . S
C1273 C1274 1.399 . S
C1273 C1278 1.399 . S
C1274 C1273 1.399 . S
C1274 C1275 1.376 . S
C1275 H1262 0.930 . S
C1275 C1274 1.376 . S
C1275 C1276 1.388 . S
C1276 H1263 0.930 . S
C1276 C1275 1.388 . S
C1276 C1277 1.390 . S
C1277 C1276 1.390 . S
C1277 C1278 1.394 . S
C1277 C1283 1.465 1_455 S
C1278 C1273 1.399 . S
C1278 C1277 1.394 . S
C1278 C1279 1.516 . S
C1279 C1278 1.516 . S
C1279 C1280 1.502 . S
C1279 C1281 1.561 . S
C1279 C1282 1.526 1_455 S
C1280 H1264 0.959 . S
C1280 H1265 0.959 . S
C1280 H1266 0.961 . S
C1280 C1279 1.502 . S
C1281 H1267 0.960 . S
C1281 H1268 0.961 1_455 S
C1281 H1269 0.959 1_455 S
C1281 C1279 1.561 . S
C1282 C1279 1.526 1_655 S
C1282 C1283 1.396 . S
C1282 C1287 1.390 . S
C1283 C1277 1.465 1_655 S
C1283 C1282 1.396 . S
C1283 C1284 1.399 . S
C1284 H1270 0.929 . S
C1284 C1283 1.399 . S
C1284 C1285 1.385 . S
C1285 H1271 0.931 . S
C1285 C1284 1.385 . S
C1285 C1286 1.389 . S
C1286 C1285 1.389 . S
C1286 C1287 1.387 . S
C1287 H1272 0.930 . S
C1287 C1282 1.390 . S
C1287 C1286 1.387 . S
H1288 C1300 0.930 1_565 S
H1289 C1302 0.930 . S
H1290 C1303 0.930 1_556 S
H1291 C1307 0.959 . S
H1292 C1307 0.959 . S
H1293 C1307 0.961 . S
H1294 C1308 0.960 . S
H1295 C1308 0.961 1_455 S
H1296 C1308 0.959 . S
H1297 C1311 0.929 . S
H1298 C1312 0.931 . S
H1299 C1314 0.930 . S
C1300 H1288 0.930 1_545 S
C1300 C1301 1.399 . S
C1300 C1305 1.399 1_545 S
C1301 C1300 1.399 . S
C1301 C1302 1.376 1_455 S
C1302 H1289 0.930 . S
C1302 C1301 1.376 1_655 S
C1302 C1303 1.388 . S
C1303 H1290 0.930 1_554 S
C1303 C1302 1.388 . S
C1303 C1304 1.390 . S
C1304 C1303 1.390 . S
C1304 C1305 1.394 1_645 S
C1304 C1310 1.465 1_544 S
C1305 C1300 1.399 1_565 S
C1305 C1304 1.394 1_465 S
C1305 C1306 1.516 . S
C1306 C1305 1.516 . S
C1306 C1307 1.502 . S
C1306 C1308 1.561 1_455 S
C1306 C1309 1.526 1_554 S
C1307 H1291 0.959 . S
C1307 H1292 0.959 . S
C1307 H1293 0.961 . S
C1307 C1306 1.502 . S
C1308 H1294 0.960 . S
C1308 H1295 0.961 1_655 S
C1308 H1296 0.959 . S
C1308 C1306 1.561 1_655 S
C1309 C1306 1.526 1_556 S
C1309 C1310 1.396 1_455 S
C1309 C1314 1.390 . S
C1310 C1304 1.465 1_566 S
C1310 C1309 1.396 1_655 S
C1310 C1311 1.399 1_565 S
C1311 H1297 0.929 . S
C1311 C1310 1.399 1_545 S
C1311 C1312 1.385 1_545 S
C1312 H1298 0.931 . S
C1312 C1311 1.385 1_565 S
C1312 C1313 1.389 1_655 S
C1313 C1312 1.389 1_455 S
C1313 C1314 1.387 . S
C1314 H1299 0.930 . S
C1314 C1309 1.390 . S
C1314 C1313 1.387 . S
H1315 C1327 0.930 . S
H1316 C1329 0.930 . S
H1317 C1330 0.930 . S
H1318 C1334 0.959 . S
H1319 C1334 0.959 . S
H1320 C1334 0.961 . S
H1321 C1335 0.960 . S
H1322 C1335 0.961 . S
H1323 C1335 0.959 . S
H1324 C1338 0.929 . S
H1325 C1339 0.931 . S
H1326 C1341 0.930 . S
C1327 H1315 0.930 . S
C1327 C1328 1.399 . S
C1327 C1332 1.399 . S
C1328 C1327 1.399 . S
C1328 C1329 1.376 . S
C1329 H1316 0.930 . S
C1329 C1328 1.376 . S
C1329 C1330 1.388 . S
C1330 H1317 0.930 . S
C1330 C1329 1.388 . S
C1330 C1331 1.390 . S
C1331 C1330 1.390 . S
C1331 C1332 1.394 . S
C1331 C1337 1.465 . S
C1332 C1327 1.399 . S
C1332 C1331 1.394 . S
C1332 C1333 1.516 . S
C1333 C1332 1.516 . S
C1333 C1334 1.502 . S
C1333 C1335 1.561 . S
C1333 C1336 1.526 . S
C1334 H1318 0.959 . S
C1334 H1319 0.959 . S
C1334 H1320 0.961 . S
C1334 C1333 1.502 . S
C1335 H1321 0.960 . S
C1335 H1322 0.961 . S
C1335 H1323 0.959 . S
C1335 C1333 1.561 . S
C1336 C1333 1.526 . S
C1336 C1337 1.396 . S
C1336 C1341 1.390 . S
C1337 C1331 1.465 . S
C1337 C1336 1.396 . S
C1337 C1338 1.399 . S
C1338 H1324 0.929 . S
C1338 C1337 1.399 . S
C1338 C1339 1.385 . S
C1339 H1325 0.931 . S
C1339 C1338 1.385 . S
C1339 C1340 1.389 . S
C1340 C1339 1.389 . S
C1340 C1341 1.387 . S
C1341 H1326 0.930 . S
C1341 C1336 1.390 . S
C1341 C1340 1.387 . S
H1342 C1354 0.930 . S
H1343 C1356 0.930 . S
H1344 C1357 0.930 . S
H1345 C1361 0.959 . S
H1346 C1361 0.959 . S
H1347 C1361 0.961 . S
H1348 C1362 0.960 . S
H1349 C1362 0.961 . S
H1350 C1362 0.959 . S
H1351 C1365 0.929 . S
H1352 C1366 0.931 . S
H1353 C1368 0.930 . S
C1354 H1342 0.930 . S
C1354 C1355 1.399 . S
C1354 C1359 1.399 . S
C1355 C1354 1.399 . S
C1355 C1356 1.376 . S
C1356 H1343 0.930 . S
C1356 C1355 1.376 . S
C1356 C1357 1.388 1_545 S
C1357 H1344 0.930 . S
C1357 C1356 1.388 1_565 S
C1357 C1358 1.393 . S
C1358 C1357 1.393 . S
C1358 C1359 1.378 1_565 S
C1358 C1364 1.476 . S
C1359 C1354 1.399 . S
C1359 C1358 1.378 1_545 S
C1359 C1360 1.516 . S
C1360 C1359 1.516 . S
C1360 C1361 1.502 . S
C1360 C1362 1.561 . S
C1360 C1363 1.526 1_545 S
C1361 H1345 0.959 . S
C1361 H1346 0.959 . S
C1361 H1347 0.961 . S
C1361 C1360 1.502 . S
C1362 H1348 0.960 . S
C1362 H1349 0.961 . S
C1362 H1350 0.959 . S
C1362 C1360 1.561 . S
C1363 C1360 1.526 1_565 S
C1363 C1364 1.396 . S
C1363 C1368 1.390 . S
C1364 C1358 1.476 . S
C1364 C1363 1.396 . S
C1364 C1365 1.399 . S
C1365 H1351 0.929 . S
C1365 C1364 1.399 . S
C1365 C1366 1.385 . S
C1366 H1352 0.931 . S
C1366 C1365 1.385 . S
C1366 C1367 1.389 . S
C1367 C1366 1.389 . S
C1367 C1368 1.387 . S
C1368 H1353 0.930 . S
C1368 C1363 1.390 . S
C1368 C1367 1.387 . S
H1369 C1381 0.930 . S
H1370 C1383 0.930 . S
H1371 C1384 0.930 . S
H1372 C1388 0.959 . S
H1373 C1388 0.959 . S
H1374 C1388 0.961 . S
H1375 C1389 0.960 . S
H1376 C1389 0.961 . S
H1377 C1389 0.959 . S
H1378 C1392 0.929 . S
H1379 C1393 0.931 . S
H1380 C1395 0.930 . S
C1381 H1369 0.930 . S
C1381 C1382 1.399 . S
C1381 C1386 1.399 . S
C1382 C1381 1.399 . S
C1382 C1383 1.376 . S
C1383 H1370 0.930 . S
C1383 C1382 1.376 . S
C1383 C1384 1.388 . S
C1384 H1371 0.930 . S
C1384 C1383 1.388 . S
C1384 C1385 1.390 . S
C1385 C1384 1.390 . S
C1385 C1386 1.394 . S
C1385 C1391 1.465 . S
C1386 C1381 1.399 . S
C1386 C1385 1.394 . S
C1386 C1387 1.516 . S
C1387 C1386 1.516 . S
C1387 C1388 1.502 . S
C1387 C1389 1.561 . S
C1387 C1390 1.526 . S
C1388 H1372 0.959 . S
C1388 H1373 0.959 . S
C1388 H1374 0.961 . S
C1388 C1387 1.502 . S
C1389 H1375 0.960 . S
C1389 H1376 0.961 . S
C1389 H1377 0.959 . S
C1389 C1387 1.561 . S
C1390 C1387 1.526 . S
C1390 C1391 1.396 . S
C1390 C1395 1.390 . S
C1391 C1385 1.465 . S
C1391 C1390 1.396 . S
C1391 C1392 1.399 . S
C1392 H1378 0.929 . S
C1392 C1391 1.399 . S
C1392 C1393 1.385 . S
C1393 H1379 0.931 . S
C1393 C1392 1.385 . S
C1393 C1394 1.389 . S
C1394 C1393 1.389 . S
C1394 C1395 1.387 . S
C1395 H1380 0.930 . S
C1395 C1390 1.390 . S
C1395 C1394 1.387 . S
H1396 C1408 0.930 . S
H1397 C1410 0.930 . S
H1398 C1411 0.930 . S
H1399 C1415 0.959 . S
H1400 C1415 0.959 . S
H1401 C1415 0.961 . S
H1402 C1416 0.960 . S
H1403 C1416 0.961 . S
H1404 C1416 0.959 . S
H1405 C1419 0.929 . S
H1406 C1420 0.931 . S
H1407 C1422 0.930 . S
C1408 H1396 0.930 . S
C1408 C1409 1.399 . S
C1408 C1413 1.399 . S
C1409 C1408 1.399 . S
C1409 C1410 1.376 . S
C1410 H1397 0.930 . S
C1410 C1409 1.376 . S
C1410 C1411 1.388 . S
C1411 H1398 0.930 . S
C1411 C1410 1.388 . S
C1411 C1412 1.390 . S
C1412 C1411 1.390 . S
C1412 C1413 1.394 . S
C1412 C1418 1.465 . S
C1413 C1408 1.399 . S
C1413 C1412 1.394 . S
C1413 C1414 1.516 . S
C1414 C1413 1.516 . S
C1414 C1415 1.502 . S
C1414 C1416 1.561 . S
C1414 C1417 1.526 . S
C1415 H1399 0.959 . S
C1415 H1400 0.959 . S
C1415 H1401 0.961 . S
C1415 C1414 1.502 . S
C1416 H1402 0.960 . S
C1416 H1403 0.961 . S
C1416 H1404 0.959 . S
C1416 C1414 1.561 . S
C1417 C1414 1.526 . S
C1417 C1418 1.396 . S
C1417 C1422 1.390 . S
C1418 C1412 1.465 . S
C1418 C1417 1.396 . S
C1418 C1419 1.399 . S
C1419 H1405 0.929 . S
C1419 C1418 1.399 . S
C1419 C1420 1.385 . S
C1420 H1406 0.931 . S
C1420 C1419 1.385 . S
C1420 C1421 1.389 . S
C1421 C1420 1.389 . S
C1421 C1422 1.387 . S
C1422 H1407 0.930 . S
C1422 C1417 1.390 . S
C1422 C1421 1.387 . S
H1423 C1435 0.930 . S
H1424 C1437 0.930 . S
H1425 C1438 0.930 . S
H1426 C1442 0.959 . S
H1427 C1442 0.959 . S
H1428 C1442 0.961 . S
H1429 C1443 0.960 . S
H1430 C1443 0.961 . S
H1431 C1443 0.959 . S
H1432 C1446 0.929 . S
H1433 C1447 0.931 . S
H1434 C1449 0.930 . S
C1435 H1423 0.930 . S
C1435 C1436 1.399 . S
C1435 C1440 1.399 . S
C1436 C1435 1.399 . S
C1436 C1437 1.376 . S
C1437 H1424 0.930 . S
C1437 C1436 1.376 . S
C1437 C1438 1.388 . S
C1438 H1425 0.930 . S
C1438 C1437 1.388 . S
C1438 C1439 1.390 . S
C1439 C1438 1.390 . S
C1439 C1440 1.394 . S
C1439 C1445 1.465 . S
C1440 C1435 1.399 . S
C1440 C1439 1.394 . S
C1440 C1441 1.516 . S
C1441 C1440 1.516 . S
C1441 C1442 1.502 . S
C1441 C1443 1.561 . S
C1441 C1444 1.526 . S
C1442 H1426 0.959 . S
C1442 H1427 0.959 . S
C1442 H1428 0.961 . S
C1442 C1441 1.502 . S
C1443 H1429 0.960 . S
C1443 H1430 0.961 . S
C1443 H1431 0.959 . S
C1443 C1441 1.561 . S
C1444 C1441 1.526 . S
C1444 C1445 1.396 . S
C1444 C1449 1.390 . S
C1445 C1439 1.465 . S
C1445 C1444 1.396 . S
C1445 C1446 1.399 . S
C1446 H1432 0.929 . S
C1446 C1445 1.399 . S
C1446 C1447 1.385 . S
C1447 H1433 0.931 . S
C1447 C1446 1.385 . S
C1447 C1448 1.389 . S
C1448 C1447 1.389 . S
C1448 C1449 1.387 . S
C1449 H1434 0.930 . S
C1449 C1444 1.390 . S
C1449 C1448 1.387 . S
H1450 C1462 0.930 . S
H1451 C1464 0.930 . S
H1452 C1465 0.930 . S
H1453 C1469 0.959 . S
H1454 C1469 0.959 . S
H1455 C1469 0.961 . S
H1456 C1470 0.960 . S
H1457 C1470 0.961 . S
H1458 C1470 0.959 . S
H1459 C1473 0.929 . S
H1460 C1474 0.931 . S
H1461 C1476 0.930 . S
C1462 H1450 0.930 . S
C1462 C1463 1.399 . S
C1462 C1467 1.399 . S
C1463 C1462 1.399 . S
C1463 C1464 1.376 . S
C1464 H1451 0.930 . S
C1464 C1463 1.376 . S
C1464 C1465 1.388 . S
C1465 H1452 0.930 . S
C1465 C1464 1.388 . S
C1465 C1466 1.390 . S
C1466 C1465 1.390 . S
C1466 C1467 1.394 . S
C1466 C1472 1.465 . S
C1467 C1462 1.399 . S
C1467 C1466 1.394 . S
C1467 C1468 1.516 . S
C1468 C1467 1.516 . S
C1468 C1469 1.502 . S
C1468 C1470 1.561 . S
C1468 C1471 1.526 . S
C1469 H1453 0.959 . S
C1469 H1454 0.959 . S
C1469 H1455 0.961 . S
C1469 C1468 1.502 . S
C1470 H1456 0.960 . S
C1470 H1457 0.961 . S
C1470 H1458 0.959 . S
C1470 C1468 1.561 . S
C1471 C1468 1.526 . S
C1471 C1472 1.396 . S
C1471 C1476 1.390 . S
C1472 C1466 1.465 . S
C1472 C1471 1.396 . S
C1472 C1473 1.399 . S
C1473 H1459 0.929 . S
C1473 C1472 1.399 . S
C1473 C1474 1.385 . S
C1474 H1460 0.931 . S
C1474 C1473 1.385 . S
C1474 C1475 1.389 . S
C1475 C1474 1.389 . S
C1475 C1476 1.387 . S
C1476 H1461 0.930 . S
C1476 C1471 1.390 . S
C1476 C1475 1.387 . S
H1477 C1489 0.944 . S
H1478 C1491 0.930 . S
H1479 C1492 0.930 . S
H1480 C1496 0.959 1_554 S
H1481 C1496 0.950 1_554 S
H1482 C1496 0.961 . S
H1483 C1497 0.960 . S
H1484 C1497 0.961 . S
H1485 C1497 0.959 . S
H1486 C1500 0.929 . S
H1487 C1501 0.931 . S
H1488 C1503 0.930 . S
C1489 H1477 0.944 . S
C1489 C1490 1.387 1_655 S
C1489 C1494 1.397 1_655 S
C1490 C1489 1.387 1_455 S
C1490 C1491 1.376 . S
C1491 H1478 0.930 . S
C1491 C1490 1.376 . S
C1491 C1492 1.388 . S
C1492 H1479 0.930 . S
C1492 C1491 1.388 . S
C1492 C1493 1.390 . S
C1493 C1492 1.390 . S
C1493 C1494 1.394 . S
C1493 C1499 1.465 1_556 S
C1494 C1489 1.397 1_455 S
C1494 C1493 1.394 . S
C1494 C1495 1.516 1_455 S
C1495 C1494 1.516 1_655 S
C1495 C1496 1.502 . S
C1495 C1497 1.561 . S
C1495 C1498 1.526 1_656 S
C1496 H1480 0.959 1_556 S
C1496 H1481 0.950 1_556 S
C1496 H1482 0.961 . S
C1496 C1495 1.502 . S
C1497 H1483 0.960 . S
C1497 H1484 0.961 . S
C1497 H1485 0.959 . S
C1497 C1495 1.561 . S
C1498 C1495 1.526 1_454 S
C1498 C1499 1.396 . S
C1498 C1503 1.390 1_455 S
C1499 C1493 1.465 1_554 S
C1499 C1498 1.396 . S
C1499 C1500 1.399 . S
C1500 H1486 0.929 . S
C1500 C1499 1.399 . S
C1500 C1501 1.385 . S
C1501 H1487 0.931 . S
C1501 C1500 1.385 . S
C1501 C1502 1.389 . S
C1502 C1501 1.389 . S
C1502 C1503 1.387 1_455 S
C1503 H1488 0.930 . S
C1503 C1498 1.390 1_655 S
C1503 C1502 1.387 1_655 S
H1504 C1516 0.930 . S
H1505 C1518 0.930 . S
H1506 C1519 0.930 . S
H1507 C1523 0.959 . S
H1508 C1523 0.959 . S
H1509 C1523 0.961 . S
H1510 C1524 0.960 . S
H1511 C1524 0.961 . S
H1512 C1524 0.959 . S
H1513 C1527 0.929 . S
H1514 C1528 0.931 . S
H1515 C1530 0.930 . S
C1516 H1504 0.930 . S
C1516 C1517 1.399 . S
C1516 C1521 1.399 . S
C1517 C1516 1.399 . S
C1517 C1518 1.376 . S
C1518 H1505 0.930 . S
C1518 C1517 1.376 . S
C1518 C1519 1.388 . S
C1519 H1506 0.930 . S
C1519 C1518 1.388 . S
C1519 C1520 1.390 . S
C1520 C1519 1.390 . S
C1520 C1521 1.394 . S
C1520 C1526 1.465 . S
C1521 C1516 1.399 . S
C1521 C1520 1.394 . S
C1521 C1522 1.516 . S
C1522 C1521 1.516 . S
C1522 C1523 1.502 . S
C1522 C1524 1.561 . S
C1522 C1525 1.526 . S
C1523 H1507 0.959 . S
C1523 H1508 0.959 . S
C1523 H1509 0.961 . S
C1523 C1522 1.502 . S
C1524 H1510 0.960 . S
C1524 H1511 0.961 . S
C1524 H1512 0.959 . S
C1524 C1522 1.561 . S
C1525 C1522 1.526 . S
C1525 C1526 1.396 . S
C1525 C1530 1.390 . S
C1526 C1520 1.465 . S
C1526 C1525 1.396 . S
C1526 C1527 1.399 . S
C1527 H1513 0.929 . S
C1527 C1526 1.399 . S
C1527 C1528 1.385 . S
C1528 H1514 0.931 . S
C1528 C1527 1.385 . S
C1528 C1529 1.389 . S
C1529 C1528 1.389 . S
C1529 C1530 1.387 . S
C1530 H1515 0.930 . S
C1530 C1525 1.390 . S
C1530 C1529 1.387 . S
H1531 C1543 0.930 . S
H1532 C1545 0.930 . S
H1533 C1546 0.930 . S
H1534 C1550 0.959 . S
H1535 C1550 0.959 . S
H1536 C1550 0.961 . S
H1537 C1551 0.960 . S
H1538 C1551 0.961 . S
H1539 C1551 0.959 . S
H1540 C1554 0.929 . S
H1541 C1555 0.931 . S
H1542 C1557 0.930 . S
C1543 H1531 0.930 . S
C1543 C1544 1.399 . S
C1543 C1548 1.399 . S
C1544 C1543 1.399 . S
C1544 C1545 1.376 . S
C1545 H1532 0.930 . S
C1545 C1544 1.376 . S
C1545 C1546 1.388 . S
C1546 H1533 0.930 . S
C1546 C1545 1.388 . S
C1546 C1547 1.390 . S
C1547 C1546 1.390 . S
C1547 C1548 1.394 . S
C1547 C1553 1.465 . S
C1548 C1543 1.399 . S
C1548 C1547 1.394 . S
C1548 C1549 1.516 . S
C1549 C1548 1.516 . S
C1549 C1550 1.502 . S
C1549 C1551 1.561 . S
C1549 C1552 1.526 . S
C1550 H1534 0.959 . S
C1550 H1535 0.959 . S
C1550 H1536 0.961 . S
C1550 C1549 1.502 . S
C1551 H1537 0.960 . S
C1551 H1538 0.961 . S
C1551 H1539 0.959 . S
C1551 C1549 1.561 . S
C1552 C1549 1.526 . S
C1552 C1553 1.396 . S
C1552 C1557 1.390 . S
C1553 C1547 1.465 . S
C1553 C1552 1.396 . S
C1553 C1554 1.399 . S
C1554 H1540 0.929 . S
C1554 C1553 1.399 . S
C1554 C1555 1.385 . S
C1555 H1541 0.931 . S
C1555 C1554 1.385 . S
C1555 C1556 1.389 . S
C1556 C1555 1.389 . S
C1556 C1557 1.387 . S
C1557 H1542 0.930 . S
C1557 C1552 1.390 . S
C1557 C1556 1.387 . S
H1558 C1570 0.930 . S
H1559 C1572 0.930 . S
H1560 C1573 0.930 . S
H1561 C1577 0.959 . S
H1562 C1577 0.959 . S
H1563 C1577 0.961 . S
H1564 C1578 0.960 . S
H1565 C1578 0.961 . S
H1566 C1578 0.959 . S
H1567 C1581 0.929 . S
H1568 C1582 0.931 . S
H1569 C1584 0.930 . S
C1570 H1558 0.930 . S
C1570 C1571 1.399 . S
C1570 C1575 1.399 1_554 S
C1571 C1570 1.399 . S
C1571 C1572 1.376 . S
C1572 H1559 0.930 . S
C1572 C1571 1.376 . S
C1572 C1573 1.388 . S
C1573 H1560 0.930 . S
C1573 C1572 1.388 . S
C1573 C1574 1.390 1_554 S
C1574 C1573 1.390 1_556 S
C1574 C1575 1.394 . S
C1574 C1580 1.465 . S
C1575 C1570 1.399 1_556 S
C1575 C1574 1.394 . S
C1575 C1576 1.516 . S
C1576 C1575 1.516 . S
C1576 C1577 1.502 . S
C1576 C1578 1.561 . S
C1576 C1579 1.526 . S
C1577 H1561 0.959 . S
C1577 H1562 0.959 . S
C1577 H1563 0.961 . S
C1577 C1576 1.502 . S
C1578 H1564 0.960 . S
C1578 H1565 0.961 . S
C1578 H1566 0.959 . S
C1578 C1576 1.561 . S
C1579 C1576 1.526 . S
C1579 C1580 1.396 . S
C1579 C1584 1.390 . S
C1580 C1574 1.465 . S
C1580 C1579 1.396 . S
C1580 C1581 1.399 . S
C1581 H1567 0.929 . S
C1581 C1580 1.399 . S
C1581 C1582 1.385 . S
C1582 H1568 0.931 . S
C1582 C1581 1.385 . S
C1582 C1583 1.389 . S
C1583 C1582 1.389 . S
C1583 C1584 1.387 . S
C1584 H1569 0.930 . S
C1584 C1579 1.390 . S
C1584 C1583 1.387 . S
H1585 C1597 0.930 . S
H1586 C1599 0.930 . S
H1587 C1600 0.930 . S
H1588 C1604 0.959 . S
H1589 C1604 0.959 . S
H1590 C1604 0.961 . S
H1591 C1605 0.960 . S
H1592 C1605 0.961 . S
H1593 C1605 0.959 . S
H1594 C1608 0.929 . S
H1595 C1609 0.931 . S
H1596 C1611 0.930 . S
C1597 H1585 0.930 . S
C1597 C1598 1.399 . S
C1597 C1602 1.399 . S
C1598 C1597 1.399 . S
C1598 C1599 1.376 . S
C1599 H1586 0.930 . S
C1599 C1598 1.376 . S
C1599 C1600 1.388 . S
C1600 H1587 0.930 . S
C1600 C1599 1.388 . S
C1600 C1601 1.390 . S
C1601 C1600 1.390 . S
C1601 C1602 1.394 . S
C1601 C1607 1.465 . S
C1602 C1597 1.399 . S
C1602 C1601 1.394 . S
C1602 C1603 1.516 . S
C1603 C1602 1.516 . S
C1603 C1604 1.502 . S
C1603 C1605 1.561 . S
C1603 C1606 1.526 . S
C1604 H1588 0.959 . S
C1604 H1589 0.959 . S
C1604 H1590 0.961 . S
C1604 C1603 1.502 . S
C1605 H1591 0.960 . S
C1605 H1592 0.961 . S
C1605 H1593 0.959 . S
C1605 C1603 1.561 . S
C1606 C1603 1.526 . S
C1606 C1607 1.396 . S
C1606 C1611 1.390 . S
C1607 C1601 1.465 . S
C1607 C1606 1.396 . S
C1607 C1608 1.399 . S
C1608 H1594 0.929 . S
C1608 C1607 1.399 . S
C1608 C1609 1.385 . S
C1609 H1595 0.931 . S
C1609 C1608 1.385 . S
C1609 C1610 1.389 . S
C1610 C1609 1.389 . S
C1610 C1611 1.387 . S
C1611 H1596 0.930 . S
C1611 C1606 1.390 . S
C1611 C1610 1.387 . S
H1612 C1624 0.930 . S
H1613 C1626 0.930 . S
H1614 C1627 0.930 . S
H1615 C1631 0.959 . S
H1616 C1631 0.959 . S
H1617 C1631 0.961 . S
H1618 C1632 0.960 . S
H1619 C1632 0.961 . S
H1620 C1632 0.959 . S
H1621 C1635 0.929 . S
H1622 C1636 0.931 . S
H1623 C1638 0.930 . S
C1624 H1612 0.930 . S
C1624 C1625 1.399 . S
C1624 C1629 1.399 . S
C1625 C1624 1.399 . S
C1625 C1626 1.376 . S
C1626 H1613 0.930 . S
C1626 C1625 1.376 . S
C1626 C1627 1.388 . S
C1627 H1614 0.930 . S
C1627 C1626 1.388 . S
C1627 C1628 1.390 . S
C1628 C1627 1.390 . S
C1628 C1629 1.394 . S
C1628 C1634 1.465 . S
C1629 C1624 1.399 . S
C1629 C1628 1.394 . S
C1629 C1630 1.516 . S
C1630 C1629 1.516 . S
C1630 C1631 1.502 . S
C1630 C1632 1.561 . S
C1630 C1633 1.526 . S
C1631 H1615 0.959 . S
C1631 H1616 0.959 . S
C1631 H1617 0.961 . S
C1631 C1630 1.502 . S
C1632 H1618 0.960 . S
C1632 H1619 0.961 . S
C1632 H1620 0.959 . S
C1632 C1630 1.561 . S
C1633 C1630 1.526 . S
C1633 C1634 1.396 . S
C1633 C1638 1.390 . S
C1634 C1628 1.465 . S
C1634 C1633 1.396 . S
C1634 C1635 1.399 . S
C1635 H1621 0.929 . S
C1635 C1634 1.399 . S
C1635 C1636 1.385 . S
C1636 H1622 0.931 . S
C1636 C1635 1.385 . S
C1636 C1637 1.389 . S
C1637 C1636 1.389 . S
C1637 C1638 1.387 . S
C1638 H1623 0.930 . S
C1638 C1633 1.390 . S
C1638 C1637 1.387 . S
H1639 C1651 0.930 . S
H1640 C1653 0.930 . S
H1641 C1654 0.930 . S
H1642 C1658 0.959 . S
H1643 C1658 0.959 . S
H1644 C1658 0.961 . S
H1645 C1659 0.960 . S
H1646 C1659 0.961 . S
H1647 C1659 0.959 . S
H1648 C1662 0.929 . S
H1649 C1663 0.931 . S
H1650 C1665 0.930 . S
C1651 H1639 0.930 . S
C1651 C1652 1.399 . S
C1651 C1656 1.399 . S
C1652 C1651 1.399 . S
C1652 C1653 1.376 . S
C1653 H1640 0.930 . S
C1653 C1652 1.376 . S
C1653 C1654 1.388 . S
C1654 H1641 0.930 . S
C1654 C1653 1.388 . S
C1654 C1655 1.390 . S
C1655 C1654 1.390 . S
C1655 C1656 1.394 . S
C1655 C1661 1.465 . S
C1656 C1651 1.399 . S
C1656 C1655 1.394 . S
C1656 C1657 1.516 . S
C1657 C1656 1.516 . S
C1657 C1658 1.502 . S
C1657 C1659 1.561 . S
C1657 C1660 1.526 . S
C1658 H1642 0.959 . S
C1658 H1643 0.959 . S
C1658 H1644 0.961 . S
C1658 C1657 1.502 . S
C1659 H1645 0.960 . S
C1659 H1646 0.961 . S
C1659 H1647 0.959 . S
C1659 C1657 1.561 . S
C1660 C1657 1.526 . S
C1660 C1661 1.396 . S
C1660 C1665 1.390 . S
C1661 C1655 1.465 . S
C1661 C1660 1.396 . S
C1661 C1662 1.399 . S
C1662 H1648 0.929 . S
C1662 C1661 1.399 . S
C1662 C1663 1.385 . S
C1663 H1649 0.931 . S
C1663 C1662 1.385 . S
C1663 C1664 1.389 . S
C1664 C1663 1.389 . S
C1664 C1665 1.387 . S
C1665 H1650 0.930 . S
C1665 C1660 1.390 . S
C1665 C1664 1.387 . S
H1666 C1678 0.930 . S
H1667 C1680 0.930 . S
H1668 C1681 0.930 . S
H1669 C1685 0.959 . S
H1670 C1685 0.959 . S
H1671 C1685 0.961 1_556 S
H1672 C1686 0.960 . S
H1673 C1686 0.961 . S
H1674 C1686 0.959 . S
H1675 C1689 0.929 . S
H1676 C1690 0.931 . S
H1677 C1692 0.930 . S
C1678 H1666 0.930 . S
C1678 C1679 1.399 . S
C1678 C1683 1.399 1_556 S
C1679 C1678 1.399 . S
C1679 C1680 1.376 1_556 S
C1680 H1667 0.930 . S
C1680 C1679 1.376 1_554 S
C1680 C1681 1.388 . S
C1681 H1668 0.930 . S
C1681 C1680 1.388 . S
C1681 C1682 1.390 . S
C1682 C1681 1.390 . S
C1682 C1683 1.394 . S
C1682 C1688 1.465 . S
C1683 C1678 1.399 1_554 S
C1683 C1682 1.394 . S
C1683 C1684 1.516 . S
C1684 C1683 1.516 . S
C1684 C1685 1.502 . S
C1684 C1686 1.561 . S
C1684 C1687 1.526 . S
C1685 H1669 0.959 . S
C1685 H1670 0.959 . S
C1685 H1671 0.961 1_554 S
C1685 C1684 1.502 . S
C1686 H1672 0.960 . S
C1686 H1673 0.961 . S
C1686 H1674 0.959 . S
C1686 C1684 1.561 . S
C1687 C1684 1.526 . S
C1687 C1688 1.396 . S
C1687 C1692 1.390 . S
C1688 C1682 1.465 . S
C1688 C1687 1.396 . S
C1688 C1689 1.399 . S
C1689 H1675 0.929 . S
C1689 C1688 1.399 . S
C1689 C1690 1.385 . S
C1690 H1676 0.931 . S
C1690 C1689 1.385 . S
C1690 C1691 1.389 . S
C1691 C1690 1.389 . S
C1691 C1692 1.387 . S
C1692 H1677 0.930 . S
C1692 C1687 1.390 . S
C1692 C1691 1.387 . S
H1693 C1705 0.930 . S
H1694 C1707 0.930 . S
H1695 C1708 0.930 . S
H1696 C1712 0.959 . S
H1697 C1712 0.959 . S
H1698 C1712 0.961 . S
H1699 C1713 0.960 . S
H1700 C1713 0.961 . S
H1701 C1713 0.959 . S
H1702 C1716 0.929 . S
H1703 C1717 0.931 . S
H1704 C1719 0.930 . S
C1705 H1693 0.930 . S
C1705 C1706 1.399 . S
C1705 C1710 1.399 . S
C1706 C1705 1.399 . S
C1706 C1707 1.376 . S
C1707 H1694 0.930 . S
C1707 C1706 1.376 . S
C1707 C1708 1.388 . S
C1708 H1695 0.930 . S
C1708 C1707 1.388 . S
C1708 C1709 1.390 . S
C1709 C1708 1.390 . S
C1709 C1710 1.394 . S
C1709 C1715 1.465 . S
C1710 C1705 1.399 . S
C1710 C1709 1.394 . S
C1710 C1711 1.516 . S
C1711 C1710 1.516 . S
C1711 C1712 1.502 . S
C1711 C1713 1.561 . S
C1711 C1714 1.526 . S
C1712 H1696 0.959 . S
C1712 H1697 0.959 . S
C1712 H1698 0.961 . S
C1712 C1711 1.502 . S
C1713 H1699 0.960 . S
C1713 H1700 0.961 . S
C1713 H1701 0.959 . S
C1713 C1711 1.561 . S
C1714 C1711 1.526 . S
C1714 C1715 1.396 . S
C1714 C1719 1.390 . S
C1715 C1709 1.465 . S
C1715 C1714 1.396 . S
C1715 C1716 1.399 . S
C1716 H1702 0.929 . S
C1716 C1715 1.399 . S
C1716 C1717 1.385 . S
C1717 H1703 0.931 . S
C1717 C1716 1.385 . S
C1717 C1718 1.389 . S
C1718 C1717 1.389 . S
C1718 C1719 1.387 . S
C1719 H1704 0.930 . S
C1719 C1714 1.390 . S
C1719 C1718 1.387 . S
H1720 C1732 0.930 . S
H1721 C1734 0.930 . S
H1722 C1735 0.930 . S
H1723 C1739 0.959 . S
H1724 C1739 0.959 . S
H1725 C1739 0.961 . S
H1726 C1740 0.960 . S
H1727 C1740 0.961 . S
H1728 C1740 0.959 . S
H1729 C1743 0.929 . S
H1730 C1744 0.931 . S
H1731 C1746 0.930 . S
C1732 H1720 0.930 . S
C1732 C1733 1.399 . S
C1732 C1737 1.399 . S
C1733 C1732 1.399 . S
C1733 C1734 1.376 . S
C1734 H1721 0.930 . S
C1734 C1733 1.376 . S
C1734 C1735 1.388 . S
C1735 H1722 0.930 . S
C1735 C1734 1.388 . S
C1735 C1736 1.390 . S
C1736 C1735 1.390 . S
C1736 C1737 1.394 . S
C1736 C1742 1.465 . S
C1737 C1732 1.399 . S
C1737 C1736 1.394 . S
C1737 C1738 1.516 . S
C1738 C1737 1.516 . S
C1738 C1739 1.502 . S
C1738 C1740 1.561 . S
C1738 C1741 1.526 . S
C1739 H1723 0.959 . S
C1739 H1724 0.959 . S
C1739 H1725 0.961 . S
C1739 C1738 1.502 . S
C1740 H1726 0.960 . S
C1740 H1727 0.961 . S
C1740 H1728 0.959 . S
C1740 C1738 1.561 . S
C1741 C1738 1.526 . S
C1741 C1742 1.396 . S
C1741 C1746 1.390 . S
C1742 C1736 1.465 . S
C1742 C1741 1.396 . S
C1742 C1743 1.399 . S
C1743 H1729 0.929 . S
C1743 C1742 1.399 . S
C1743 C1744 1.385 . S
C1744 H1730 0.931 . S
C1744 C1743 1.385 . S
C1744 C1745 1.389 . S
C1745 C1744 1.389 . S
C1745 C1746 1.387 . S
C1746 H1731 0.930 . S
C1746 C1741 1.390 . S
C1746 C1745 1.387 . S
H1747 C1759 0.930 . S
H1748 C1761 0.930 . S
H1749 C1762 0.930 . S
H1750 C1766 0.959 . S
H1751 C1766 0.959 . S
H1752 C1766 0.961 . S
H1753 C1767 0.960 . S
H1754 C1767 0.961 . S
H1755 C1767 0.959 . S
H1756 C1770 0.929 . S
H1757 C1771 0.931 . S
H1758 C1773 0.930 . S
C1759 H1747 0.930 . S
C1759 C1760 1.399 . S
C1759 C1764 1.399 . S
C1760 C1759 1.399 . S
C1760 C1761 1.376 . S
C1761 H1748 0.930 . S
C1761 C1760 1.376 . S
C1761 C1762 1.388 . S
C1762 H1749 0.930 . S
C1762 C1761 1.388 . S
C1762 C1763 1.390 . S
C1763 C1762 1.390 . S
C1763 C1764 1.394 . S
C1763 C1769 1.465 . S
C1764 C1759 1.399 . S
C1764 C1763 1.394 . S
C1764 C1765 1.516 . S
C1765 C1764 1.516 . S
C1765 C1766 1.502 . S
C1765 C1767 1.561 . S
C1765 C1768 1.526 . S
C1766 H1750 0.959 . S
C1766 H1751 0.959 . S
C1766 H1752 0.961 . S
C1766 C1765 1.502 . S
C1767 H1753 0.960 . S
C1767 H1754 0.961 . S
C1767 H1755 0.959 . S
C1767 C1765 1.561 . S
C1768 C1765 1.526 . S
C1768 C1769 1.396 . S
C1768 C1773 1.390 . S
C1769 C1763 1.465 . S
C1769 C1768 1.396 . S
C1769 C1770 1.399 . S
C1770 H1756 0.929 . S
C1770 C1769 1.399 . S
C1770 C1771 1.385 . S
C1771 H1757 0.931 . S
C1771 C1770 1.385 . S
C1771 C1772 1.389 . S
C1772 C1771 1.389 . S
C1772 C1773 1.387 . S
C1773 H1758 0.930 . S
C1773 C1768 1.390 . S
C1773 C1772 1.387 . S
H1774 C1786 0.930 . S
H1775 C1788 0.930 . S
H1776 C1789 0.930 . S
H1777 C1793 0.959 . S
H1778 C1793 0.959 . S
H1779 C1793 0.961 . S
H1780 C1794 0.960 . S
H1781 C1794 0.961 . S
H1782 C1794 0.959 . S
H1783 C1797 0.929 . S
H1784 C1798 0.931 . S
H1785 C1800 0.930 . S
C1786 H1774 0.930 . S
C1786 C1787 1.399 . S
C1786 C1791 1.399 . S
C1787 C1786 1.399 . S
C1787 C1788 1.376 . S
C1788 H1775 0.930 . S
C1788 C1787 1.376 . S
C1788 C1789 1.388 . S
C1789 H1776 0.930 . S
C1789 C1788 1.388 . S
C1789 C1790 1.390 . S
C1790 C1789 1.390 . S
C1790 C1791 1.394 . S
C1790 C1796 1.465 . S
C1791 C1786 1.399 . S
C1791 C1790 1.394 . S
C1791 C1792 1.516 . S
C1792 C1791 1.516 . S
C1792 C1793 1.502 . S
C1792 C1794 1.561 . S
C1792 C1795 1.526 . S
C1793 H1777 0.959 . S
C1793 H1778 0.959 . S
C1793 H1779 0.961 . S
C1793 C1792 1.502 . S
C1794 H1780 0.960 . S
C1794 H1781 0.961 . S
C1794 H1782 0.959 . S
C1794 C1792 1.561 . S
C1795 C1792 1.526 . S
C1795 C1796 1.396 . S
C1795 C1800 1.390 . S
C1796 C1790 1.465 . S
C1796 C1795 1.396 . S
C1796 C1797 1.399 . S
C1797 H1783 0.929 . S
C1797 C1796 1.399 . S
C1797 C1798 1.385 . S
C1798 H1784 0.931 . S
C1798 C1797 1.385 . S
C1798 C1799 1.389 . S
C1799 C1798 1.389 . S
C1799 C1800 1.387 . S
C1800 H1785 0.930 . S
C1800 C1795 1.390 . S
C1800 C1799 1.387 . S
H1801 C1813 0.930 . S
H1802 C1815 0.930 . S
H1803 C1816 0.930 . S
H1804 C1820 0.959 . S
H1805 C1820 0.959 . S
H1806 C1820 0.961 . S
H1807 C1821 0.960 . S
H1808 C1821 0.961 . S
H1809 C1821 0.959 . S
H1810 C1824 0.929 . S
H1811 C1825 0.931 . S
H1812 C1827 0.930 . S
C1813 H1801 0.930 . S
C1813 C1814 1.399 . S
C1813 C1818 1.399 . S
C1814 C1813 1.399 . S
C1814 C1815 1.376 . S
C1815 H1802 0.930 . S
C1815 C1814 1.376 . S
C1815 C1816 1.388 . S
C1816 H1803 0.930 . S
C1816 C1815 1.388 . S
C1816 C1817 1.390 . S
C1817 C1816 1.390 . S
C1817 C1818 1.394 . S
C1817 C1823 1.465 . S
C1818 C1813 1.399 . S
C1818 C1817 1.394 . S
C1818 C1819 1.516 . S
C1819 C1818 1.516 . S
C1819 C1820 1.502 . S
C1819 C1821 1.561 . S
C1819 C1822 1.526 . S
C1820 H1804 0.959 . S
C1820 H1805 0.959 . S
C1820 H1806 0.961 . S
C1820 C1819 1.502 . S
C1821 H1807 0.960 . S
C1821 H1808 0.961 . S
C1821 H1809 0.959 . S
C1821 C1819 1.561 . S
C1822 C1819 1.526 . S
C1822 C1823 1.396 . S
C1822 C1827 1.390 . S
C1823 C1817 1.465 . S
C1823 C1822 1.396 . S
C1823 C1824 1.399 . S
C1824 H1810 0.929 . S
C1824 C1823 1.399 . S
C1824 C1825 1.385 . S
C1825 H1811 0.931 . S
C1825 C1824 1.385 . S
C1825 C1826 1.389 . S
C1826 C1825 1.389 . S
C1826 C1827 1.387 . S
C1827 H1812 0.930 . S
C1827 C1822 1.390 . S
C1827 C1826 1.387 . S
H1828 C1840 0.930 . S
H1829 C1842 0.930 . S
H1830 C1843 0.930 . S
H1831 C1847 0.959 . S
H1832 C1847 0.959 . S
H1833 C1847 0.961 . S
H1834 C1848 0.960 . S
H1835 C1848 0.961 . S
H1836 C1848 0.959 . S
H1837 C1851 0.929 . S
H1838 C1852 0.931 . S
H1839 C1854 0.930 . S
C1840 H1828 0.930 . S
C1840 C1841 1.399 . S
C1840 C1845 1.399 . S
C1841 C1840 1.399 . S
C1841 C1842 1.376 . S
C1842 H1829 0.930 . S
C1842 C1841 1.376 . S
C1842 C1843 1.388 . S
C1843 H1830 0.930 . S
C1843 C1842 1.388 . S
C1843 C1844 1.390 . S
C1844 C1843 1.390 . S
C1844 C1845 1.394 . S
C1844 C1850 1.465 . S
C1845 C1840 1.399 . S
C1845 C1844 1.394 . S
C1845 C1846 1.516 . S
C1846 C1845 1.516 . S
C1846 C1847 1.502 . S
C1846 C1848 1.561 . S
C1846 C1849 1.526 . S
C1847 H1831 0.959 . S
C1847 H1832 0.959 . S
C1847 H1833 0.961 . S
C1847 C1846 1.502 . S
C1848 H1834 0.960 . S
C1848 H1835 0.961 . S
C1848 H1836 0.959 . S
C1848 C1846 1.561 . S
C1849 C1846 1.526 . S
C1849 C1850 1.396 . S
C1849 C1854 1.390 1_554 S
C1850 C1844 1.465 . S
C1850 C1849 1.396 . S
C1850 C1851 1.399 1_554 S
C1851 H1837 0.929 . S
C1851 C1850 1.399 1_556 S
C1851 C1852 1.385 . S
C1852 H1838 0.931 . S
C1852 C1851 1.385 . S
C1852 C1853 1.389 . S
C1853 C1852 1.389 . S
C1853 C1854 1.387 . S
C1854 H1839 0.930 . S
C1854 C1849 1.390 1_556 S
C1854 C1853 1.387 . S
H1855 C1867 0.930 . S
H1856 C1869 0.930 . S
H1857 C1870 0.930 . S
H1858 C1874 0.959 . S
H1859 C1874 0.959 . S
H1860 C1874 0.961 . S
H1861 C1875 0.960 . S
H1862 C1875 0.961 . S
H1863 C1875 0.959 . S
H1864 C1878 0.929 . S
H1865 C1879 0.931 . S
H1866 C1881 0.930 . S
C1867 H1855 0.930 . S
C1867 C1868 1.399 . S
C1867 C1872 1.399 . S
C1868 C1867 1.399 . S
C1868 C1869 1.376 . S
C1869 H1856 0.930 . S
C1869 C1868 1.376 . S
C1869 C1870 1.388 . S
C1870 H1857 0.930 . S
C1870 C1869 1.388 . S
C1870 C1871 1.390 . S
C1871 C1870 1.390 . S
C1871 C1872 1.394 . S
C1871 C1877 1.465 . S
C1872 C1867 1.399 . S
C1872 C1871 1.394 . S
C1872 C1873 1.516 . S
C1873 C1872 1.516 . S
C1873 C1874 1.502 . S
C1873 C1875 1.561 . S
C1873 C1876 1.526 . S
C1874 H1858 0.959 . S
C1874 H1859 0.959 . S
C1874 H1860 0.961 . S
C1874 C1873 1.502 . S
C1875 H1861 0.960 . S
C1875 H1862 0.961 . S
C1875 H1863 0.959 . S
C1875 C1873 1.561 . S
C1876 C1873 1.526 . S
C1876 C1877 1.396 . S
C1876 C1881 1.390 . S
C1877 C1871 1.465 . S
C1877 C1876 1.396 . S
C1877 C1878 1.399 . S
C1878 H1864 0.929 . S
C1878 C1877 1.399 . S
C1878 C1879 1.385 . S
C1879 H1865 0.931 . S
C1879 C1878 1.385 . S
C1879 C1880 1.389 . S
C1880 C1879 1.389 . S
C1880 C1881 1.387 . S
C1881 H1866 0.930 . S
C1881 C1876 1.390 . S
C1881 C1880 1.387 . S
H1882 C1894 0.930 . S
H1883 C1896 0.930 . S
H1884 C1897 0.930 . S
H1885 C1901 0.959 . S
H1886 C1901 0.959 . S
H1887 C1901 0.961 . S
H1888 C1902 0.960 . S
H1889 C1902 0.961 . S
H1890 C1902 0.959 . S
H1891 C1905 0.929 . S
H1892 C1906 0.931 . S
H1893 C1908 0.930 . S
C1894 H1882 0.930 . S
C1894 C1895 1.399 . S
C1894 C1899 1.399 . S
C1895 C1894 1.399 . S
C1895 C1896 1.376 . S
C1896 H1883 0.930 . S
C1896 C1895 1.376 . S
C1896 C1897 1.388 . S
C1897 H1884 0.930 . S
C1897 C1896 1.388 . S
C1897 C1898 1.390 . S
C1898 C1897 1.390 . S
C1898 C1899 1.394 . S
C1898 C1904 1.465 . S
C1899 C1894 1.399 . S
C1899 C1898 1.394 . S
C1899 C1900 1.516 . S
C1900 C1899 1.516 . S
C1900 C1901 1.502 . S
C1900 C1902 1.561 . S
C1900 C1903 1.526 . S
C1901 H1885 0.959 . S
C1901 H1886 0.959 . S
C1901 H1887 0.961 . S
C1901 C1900 1.502 . S
C1902 H1888 0.960 . S
C1902 H1889 0.961 . S
C1902 H1890 0.959 . S
C1902 C1900 1.561 . S
C1903 C1900 1.526 . S
C1903 C1904 1.396 . S
C1903 C1908 1.390 . S
C1904 C1898 1.465 . S
C1904 C1903 1.396 . S
C1904 C1905 1.399 . S
C1905 H1891 0.929 . S
C1905 C1904 1.399 . S
C1905 C1906 1.385 . S
C1906 H1892 0.931 . S
C1906 C1905 1.385 . S
C1906 C1907 1.389 . S
C1907 C1906 1.389 . S
C1907 C1908 1.387 . S
C1908 H1893 0.930 . S
C1908 C1903 1.390 . S
C1908 C1907 1.387 . S
H1909 C1921 0.930 . S
H1910 C1923 0.930 . S
H1911 C1924 0.930 . S
H1912 C1928 0.959 . S
H1913 C1928 0.959 . S
H1914 C1928 0.961 . S
H1915 C1929 0.960 . S
H1916 C1929 0.961 . S
H1917 C1929 0.959 . S
H1918 C1932 0.929 . S
H1919 C1933 0.931 . S
H1920 C1935 0.930 . S
C1921 H1909 0.930 . S
C1921 C1922 1.399 . S
C1921 C1926 1.399 . S
C1922 C1921 1.399 . S
C1922 C1923 1.376 . S
C1923 H1910 0.930 . S
C1923 C1922 1.376 . S
C1923 C1924 1.388 . S
C1924 H1911 0.930 . S
C1924 C1923 1.388 . S
C1924 C1925 1.390 . S
C1925 C1924 1.390 . S
C1925 C1926 1.394 . S
C1925 C1931 1.465 . S
C1926 C1921 1.399 . S
C1926 C1925 1.394 . S
C1926 C1927 1.516 . S
C1927 C1926 1.516 . S
C1927 C1928 1.502 . S
C1927 C1929 1.561 . S
C1927 C1930 1.526 . S
C1928 H1912 0.959 . S
C1928 H1913 0.959 . S
C1928 H1914 0.961 . S
C1928 C1927 1.502 . S
C1929 H1915 0.960 . S
C1929 H1916 0.961 . S
C1929 H1917 0.959 . S
C1929 C1927 1.561 . S
C1930 C1927 1.526 . S
C1930 C1931 1.396 . S
C1930 C1935 1.390 . S
C1931 C1925 1.465 . S
C1931 C1930 1.396 . S
C1931 C1932 1.399 . S
C1932 H1918 0.929 . S
C1932 C1931 1.399 . S
C1932 C1933 1.385 . S
C1933 H1919 0.931 . S
C1933 C1932 1.385 . S
C1933 C1934 1.389 . S
C1934 C1933 1.389 . S
C1934 C1935 1.387 . S
C1935 H1920 0.930 . S
C1935 C1930 1.390 . S
C1935 C1934 1.387 . S
C653 C7 0.859 . S
C665 C287 0.864 . S
C680 C51 0.982 . S
C692 C167 1.046 . S
C707 C207 0.475 . S
C719 C91 0.536 . S
C734 C131 0.910 . S
C746 C247 0.960 . S
C761 C456 0.897 . S
C773 C162 0.935 . S
C788 C322 2.757 . S
C800 C2 2.728 1_556 S
C815 C416 0.936 . S
C827 C242 0.971 . S
C842 C96 1.997 . S
C854 C362 1.959 . S
C869 C367 0.975 . S
C881 C487 0.775 . S
C896 C411 1.003 . S
C908 C567 1.053 . S
C923 C531 0.430 . S
C935 C327 0.417 . S
C950 C451 0.931 . S
C962 C607 0.995 . S
C977 C562 0.927 . S
C989 C136 0.969 . S
C1004 C482 2.710 . S
C1016 C202 2.773 . S
C1031 C56 0.974 . S
C1043 C602 0.959 . S
C1058 C282 1.969 . S
C1070 C536 2.003 . S
C1085 C539 0.444 . S
C1097 C10 0.481 . S
C1112 C459 0.480 . S
C1124 C59 0.396 . S
C1139 C490 0.274 . S
C1151 C99 0.294 . S
C1166 C419 0.485 . S
C1178 C139 0.394 . S
C1193 C170 0.566 . S
C1205 C610 0.457 . S
C1220 C370 0.751 . S
C1232 C210 0.622 . S
C1247 C250 0.579 . S
C1259 C570 0.505 . S
C1274 C290 0.759 . S
C1286 C330 0.733 . S
C1301 C19 1.455 1_455 S
C1313 C179 1.505 . S
C1328 C50 1.349 . S
C1340 C219 1.446 . S
C1355 C259 1.598 . S
C1367 C90 1.517 . S
C1382 C130 1.717 . S
C1394 C299 1.767 . S
C1409 C410 1.346 . S
C1421 C339 1.444 . S
C1436 C450 1.719 . S
C1448 C379 1.761 . S
C1463 C499 1.539 . S
C1475 C579 1.479 . S
C1490 C619 1.539 . S
C1502 C530 1.592 . S
C1517 C11 3.607 . S
C1529 C291 3.629 . S
C1544 C47 1.996 . S
C1556 C171 2.048 . S
C1571 C211 2.877 . S
C1583 C87 2.819 . S
C1598 C251 2.003 . S
C1610 C127 1.930 . S
C1625 C442 2.004 . S
C1637 C176 1.960 . S
C1652 C336 0.644 . S
C1664 C16 0.461 . S
C1679 C402 2.028 . S
C1691 C256 1.920 . S
C1706 C82 1.013 . S
C1718 C376 0.886 . S
C1733 C491 3.601 . S
C1745 C371 3.627 1_556 S
C1760 C571 2.058 . S
C1772 C407 1.969 . S
C1787 C527 2.816 . S
C1799 C331 2.886 . S
C1814 C611 2.009 . S
C1826 C447 1.909 . S
C1841 C576 1.969 . S
C1853 C122 2.005 . S
C1868 C216 0.497 . S
C1880 C496 0.668 . S
C1895 C42 2.006 . S
C1907 C616 1.970 . S
C1922 C522 1.001 . S
C1934 C296 0.900 . S
