# Generated by pormake.
# Topology uki, (4)-cn, num edge types: 1
# Building blocks:
#     Node 0, Type 0, BuildingBlock: ICAMEG_clean_sbu_1, # of connection points: 4
#     Node 1, Type 0, BuildingBlock: ICAMEG_clean_sbu_1, # of connection points: 4
#     Node 2, Type 0, BuildingBlock: ICAMEG_clean_sbu_1, # of connection points: 4
#     Node 3, Type 0, BuildingBlock: ICAMEG_clean_sbu_1, # of connection points: 4
#     Node 4, Type 0, BuildingBlock: ICAMEG_clean_sbu_1, # of connection points: 4
#     Node 5, Type 0, BuildingBlock: ICAMEG_clean_sbu_1, # of connection points: 4
#     Node 6, Type 0, BuildingBlock: ICAMEG_clean_sbu_1, # of connection points: 4
#     Node 7, Type 0, BuildingBlock: ICAMEG_clean_sbu_1, # of connection points: 4
#     Node 8, Type 0, BuildingBlock: ICAMEG_clean_sbu_1, # of connection points: 4
#     Node 9, Type 0, BuildingBlock: ICAMEG_clean_sbu_1, # of connection points: 4
#     Node 10, Type 0, BuildingBlock: ICAMEG_clean_sbu_1, # of connection points: 4
#     Node 11, Type 0, BuildingBlock: ICAMEG_clean_sbu_1, # of connection points: 4
#     Node 12, Type 0, BuildingBlock: ICAMEG_clean_sbu_1, # of connection points: 4
#     Node 13, Type 0, BuildingBlock: ICAMEG_clean_sbu_1, # of connection points: 4
#     Node 14, Type 0, BuildingBlock: ICAMEG_clean_sbu_1, # of connection points: 4
#     Node 15, Type 0, BuildingBlock: ICAMEG_clean_sbu_1, # of connection points: 4
#     Edge 16, Type (0, 0), None
#     Edge 17, Type (0, 0), None
#     Edge 18, Type (0, 0), None
#     Edge 19, Type (0, 0), None
#     Edge 20, Type (0, 0), None
#     Edge 21, Type (0, 0), None
#     Edge 22, Type (0, 0), None
#     Edge 23, Type (0, 0), None
#     Edge 24, Type (0, 0), None
#     Edge 25, Type (0, 0), None
#     Edge 26, Type (0, 0), None
#     Edge 27, Type (0, 0), None
#     Edge 28, Type (0, 0), None
#     Edge 29, Type (0, 0), None
#     Edge 30, Type (0, 0), None
#     Edge 31, Type (0, 0), None
#     Edge 32, Type (0, 0), None
#     Edge 33, Type (0, 0), None
#     Edge 34, Type (0, 0), None
#     Edge 35, Type (0, 0), None
#     Edge 36, Type (0, 0), None
#     Edge 37, Type (0, 0), None
#     Edge 38, Type (0, 0), None
#     Edge 39, Type (0, 0), None
#     Edge 40, Type (0, 0), None
#     Edge 41, Type (0, 0), None
#     Edge 42, Type (0, 0), None
#     Edge 43, Type (0, 0), None
#     Edge 44, Type (0, 0), None
#     Edge 45, Type (0, 0), None
#     Edge 46, Type (0, 0), None
#     Edge 47, Type (0, 0), None
# Relax obj value: 0.012
# Max RMSD: 0.100
# Mean RMSD: 0.100
data_MOF--net-uki--node1-ICAMEG_clean_sbu_1--edge1-none
_symmetry_space_group_name_H-M    P1
_symmetry_Int_Tables_number       1
_symmetry_cell_setting            triclinic
loop_
_symmetry_equiv_pos_as_xyz
'x, y, z'
_cell_length_a     15.793176
_cell_length_b     15.793347
_cell_length_c     41.79363
_cell_angle_alpha  90.000225
_cell_angle_beta   90.015011
_cell_angle_gamma 90.006943
loop_
_atom_site_label
_atom_site_type_symbol
_atom_site_fract_x
_atom_site_fract_y
_atom_site_fract_z
_atom_type_partial_charge
Co0 Co 0.11963 0.19278 0.20951 0.0
Co1 Co 0.09215 0.30927 0.27639 0.0
O2 O 0.11342 0.2095 0.2542 0.0
C3 C 0.03082 0.043 0.24004 0.0
O4 O 0.04939 0.07433 0.26811 0.0
C5 C 0.22848 0.21886 0.31882 0.0
O6 O 0.20896 0.14553 0.30603 0.0
O7 O 0.17306 0.37761 0.24831 0.0
O8 O 0.1612 0.31548 0.2009 0.0
H9 H 0.10364 0.6196 0.29381 0.0
H10 H 0.19734 0.05062 0.24813 0.0
O11 O 0.06439 0.07491 0.21477 0.0
H12 H 0.4364 0.2202 0.20899 0.0
H13 H 0.29569 0.05224 0.13703 0.0
H14 H 0.09339 0.28468 0.15012 0.0
H15 H 0.29317 0.25 0.19023 0.0
H16 H 0.18 0.0424 0.17487 0.0
O17 O 0.19173 0.28626 0.30838 0.0
H18 H 0.08517 0.49277 0.26141 0.0
H19 H 0.07576 0.3454 0.34644 0.0
H20 H 0.20674 0.29807 0.1091 0.0
H21 H 0.34105 0.01549 0.26574 0.0
H22 H 0.31518 0.18665 0.10554 0.0
H23 H 0.46272 0.1006 0.24621 0.0
O24 O 1.00277 0.23956 0.20234 0.0
H25 H 0.01942 0.08344 0.35841 0.0
H26 H 0.90564 0.25164 0.27013 0.0
H27 H 0.83201 0.12641 0.28656 0.0
H28 H 0.88955 0.03695 0.33007 0.0
H29 H 0.08973 0.21173 0.34291 0.0
H30 H 0.10304 0.47016 0.37881 0.0
H31 H 0.11339 0.60928 0.35171 0.0
O32 O 0.99369 0.33656 0.24278 0.0
C33 C 0.17772 0.38129 0.21772 0.0
C34 C 0.1039 0.55861 0.30518 0.0
C35 C 0.10025 0.47508 0.35299 0.0
N36 N 0.07768 0.41012 0.30157 0.0
C37 C 0.09087 0.48626 0.28705 0.0
C38 C 0.08311 0.40433 0.33428 0.0
C39 C 0.10947 0.55268 0.33806 0.0
C40 C 0.24901 0.08737 0.2389 0.0
N41 N 0.23501 0.15338 0.21837 0.0
C42 C 0.33086 0.0673 0.24921 0.0
C43 C 0.39905 0.1149 0.23826 0.0
C44 C 0.38463 0.18134 0.21711 0.0
C45 C 0.30231 0.19895 0.20701 0.0
C46 C 0.24986 0.10257 0.13786 0.0
C47 C 0.13541 0.23329 0.14519 0.0
C48 C 0.18246 0.09659 0.15909 0.0
N49 N 0.13486 0.16674 0.16538 0.0
C50 C 0.20065 0.24145 0.12308 0.0
C51 C 0.26081 0.17737 0.12061 0.0
C52 C 0.96373 0.3005 0.21657 0.0
C53 C 0.99572 0.11932 0.33825 0.0
C54 C 0.93478 0.21633 0.28882 0.0
C55 C 0.89059 0.14379 0.29832 0.0
C56 C 0.92282 0.09349 0.32259 0.0
N57 N 0.01112 0.239 0.30227 0.0
C58 C 0.03715 0.19328 0.32851 0.0
Co59 Co 0.19259 0.8884 0.70885 0.0
Co60 Co 0.30914 0.91586 0.64198 0.0
O61 O 0.20931 0.89462 0.66415 0.0
C62 C 0.04287 0.97738 0.67834 0.0
O63 O 0.07422 0.95894 0.65027 0.0
C64 C 0.21879 0.77949 0.59953 0.0
O65 O 0.14543 0.79897 0.6123 0.0
O66 O 0.37745 0.83498 0.67009 0.0
O67 O 0.31526 0.84678 0.71748 0.0
H68 H 0.61949 0.90437 0.62461 0.0
H69 H 0.0504 0.81084 0.6702 0.0
O70 O 0.07474 0.94367 0.7036 0.0
H71 H 0.21973 0.57162 0.70936 0.0
H72 H 0.05204 0.71241 0.78141 0.0
H73 H 0.28443 0.91477 0.76822 0.0
H74 H 0.24965 0.71482 0.72814 0.0
H75 H 0.04225 0.82785 0.74346 0.0
O76 O 0.28617 0.81627 0.61 0.0
H77 H 0.49265 0.92286 0.657 0.0
H78 H 0.34533 0.93221 0.57194 0.0
H79 H 0.29776 0.8017 0.80939 0.0
H80 H 0.01512 0.66716 0.65258 0.0
H81 H 0.18634 0.69325 0.81301 0.0
H82 H 0.10012 0.54542 0.67212 0.0
O83 O 0.23944 0.00524 0.71601 0.0
H84 H 0.08339 0.98855 0.55989 0.0
H85 H 0.25155 0.10237 0.64819 0.0
H86 H 0.12639 0.17603 0.6317 0.0
H87 H 0.03695 0.11847 0.58818 0.0
H88 H 0.21165 0.91823 0.57544 0.0
H89 H 0.4701 0.90488 0.53959 0.0
H90 H 0.6092 0.89454 0.56672 0.0
O91 O 0.33642 0.01434 0.67558 0.0
C92 C 0.3811 0.8303 0.70068 0.0
C93 C 0.5585 0.9041 0.61324 0.0
C94 C 0.475 0.9077 0.56541 0.0
N95 N 0.41001 0.93032 0.61681 0.0
C96 C 0.48615 0.91714 0.63135 0.0
C97 C 0.40425 0.92486 0.58411 0.0
C98 C 0.5526 0.89849 0.58036 0.0
C99 C 0.08709 0.75912 0.67944 0.0
N100 N 0.1531 0.77305 0.69998 0.0
C101 C 0.06693 0.6773 0.66912 0.0
C102 C 0.11447 0.60906 0.68007 0.0
C103 C 0.18092 0.62342 0.70124 0.0
C104 C 0.1986 0.70572 0.71135 0.0
C105 C 0.10235 0.75828 0.78057 0.0
C106 C 0.23305 0.87275 0.77319 0.0
C107 C 0.0964 0.82552 0.75927 0.0
N108 N 0.16654 0.87315 0.75297 0.0
C109 C 0.24116 0.80768 0.79538 0.0
C110 C 0.17709 0.74751 0.79788 0.0
C111 C 0.30037 0.0443 0.70178 0.0
C112 C 0.11927 0.01227 0.58006 0.0
C113 C 0.21626 0.07323 0.62949 0.0
C114 C 0.14376 0.11743 0.61996 0.0
C115 C 0.09347 0.08519 0.59569 0.0
N116 N 0.23891 0.99688 0.61607 0.0
C117 C 0.19321 0.97083 0.58983 0.0
Co118 Co 0.88853 0.81596 0.20958 0.0
Co119 Co 0.91604 0.69933 0.27645 0.0
O120 O 0.89481 0.79917 0.25428 0.0
C121 C 0.97761 0.96563 0.24006 0.0
O122 O 0.95931 0.93422 0.26814 0.0
C123 C 0.77964 0.78958 0.31889 0.0
O124 O 0.79909 0.86296 0.30613 0.0
O125 O 0.83519 0.63102 0.24832 0.0
O126 O 0.84691 0.69329 0.20093 0.0
H127 H 0.90446 0.38895 0.29395 0.0
H128 H 0.81107 0.95807 0.24825 0.0
O129 O 0.9438 0.9338 0.21482 0.0
H130 H 0.57173 0.78882 0.2091 0.0
H131 H 0.71233 0.95635 0.13702 0.0
H132 H 0.91506 0.72433 0.1502 0.0
H133 H 0.7149 0.75889 0.19032 0.0
H134 H 0.82775 0.96627 0.17499 0.0
O135 O 0.81645 0.72223 0.30843 0.0
H136 H 0.92272 0.51572 0.2615 0.0
H137 H 0.93266 0.66323 0.34649 0.0
H138 H 0.80202 0.71085 0.10901 0.0
H139 H 0.66743 0.99337 0.26588 0.0
H140 H 0.69341 0.82211 0.10538 0.0
H141 H 0.54562 0.90841 0.24634 0.0
O142 O 0.00538 0.76912 0.20242 0.0
H143 H 0.9888 0.92506 0.35855 0.0
H144 H 0.10257 0.75693 0.27027 0.0
H145 H 0.17632 0.88202 0.28679 0.0
H146 H 0.1188 0.97145 0.3303 0.0
H147 H 0.91838 0.79689 0.34297 0.0
H148 H 0.9055 0.53854 0.37891 0.0
H149 H 0.895 0.39939 0.35185 0.0
O150 O 0.01452 0.67212 0.24286 0.0
C151 C 0.83047 0.62741 0.21773 0.0
C152 C 0.90421 0.44997 0.3053 0.0
C153 C 0.90815 0.53358 0.35309 0.0
N154 N 0.93048 0.59846 0.30164 0.0
C155 C 0.91714 0.52229 0.28714 0.0
C156 C 0.92521 0.60429 0.33435 0.0
C157 C 0.89884 0.45595 0.33818 0.0
C158 C 0.75932 0.92141 0.23901 0.0
N159 N 0.7732 0.85542 0.21847 0.0
C160 C 0.67752 0.94157 0.24933 0.0
C161 C 0.60925 0.89404 0.23839 0.0
C162 C 0.62356 0.82761 0.21722 0.0
C163 C 0.70584 0.80992 0.20711 0.0
C164 C 0.75828 0.90613 0.13786 0.0
C165 C 0.87295 0.77562 0.14524 0.0
C166 C 0.8255 0.91215 0.15918 0.0
N167 N 0.87323 0.84208 0.16546 0.0
C168 C 0.80792 0.76745 0.12302 0.0
C169 C 0.74765 0.83141 0.12052 0.0
C170 C 0.04446 0.7082 0.21665 0.0
C171 C 0.01251 0.8892 0.33839 0.0
C172 C 0.07345 0.7922 0.28897 0.0
C173 C 0.1177 0.86467 0.29851 0.0
C174 C 0.08548 0.91496 0.32278 0.0
N175 N 0.99706 0.76958 0.30237 0.0
C176 C 0.97101 0.8153 0.3286 0.0
Co177 Co 0.8158 0.11954 0.70885 0.0
Co178 Co 0.69921 0.09201 0.64197 0.0
O179 O 0.79903 0.11329 0.66415 0.0
C180 C 0.96551 0.03061 0.67834 0.0
O181 O 0.93414 0.04904 0.65027 0.0
C182 C 0.78953 0.2284 0.59953 0.0
O183 O 0.86289 0.20896 0.61232 0.0
O184 O 0.63089 0.17287 0.67007 0.0
O185 O 0.69313 0.16113 0.71747 0.0
H186 H 0.38885 0.10356 0.6244 0.0
H187 H 0.95792 0.19713 0.6702 0.0
O188 O 0.93366 0.06429 0.7036 0.0
H189 H 0.78862 0.43634 0.70937 0.0
H190 H 0.95625 0.29579 0.78133 0.0
H191 H 0.72408 0.09313 0.76822 0.0
H192 H 0.75869 0.29312 0.72812 0.0
H193 H 0.96618 0.18013 0.74348 0.0
O194 O 0.72216 0.19159 0.60998 0.0
H195 H 0.5156 0.08531 0.65688 0.0
H196 H 0.66316 0.07532 0.57192 0.0
H197 H 0.71057 0.20645 0.80928 0.0
H198 H 0.99317 0.34082 0.65259 0.0
H199 H 0.82188 0.31504 0.81285 0.0
H200 H 0.9082 0.46255 0.67214 0.0
O201 O 0.76899 1.00268 0.71601 0.0
H202 H 0.92504 0.01928 0.55994 0.0
H203 H 0.75679 0.90549 0.64819 0.0
H204 H 0.88193 0.83179 0.63173 0.0
H205 H 0.97142 0.88933 0.58825 0.0
H206 H 0.79683 0.08965 0.57547 0.0
H207 H 0.5385 0.10243 0.53948 0.0
H208 H 0.39933 0.11295 0.5665 0.0
O209 O 0.67197 0.99355 0.67557 0.0
C210 C 0.62726 0.17758 0.70066 0.0
C211 C 0.44988 0.10379 0.61307 0.0
C212 C 0.53352 0.09981 0.5653 0.0
N213 N 0.59836 0.07753 0.61676 0.0
C214 C 0.52219 0.09087 0.63124 0.0
C215 C 0.60421 0.08278 0.58405 0.0
C216 C 0.45588 0.10913 0.58019 0.0
C217 C 0.92123 0.24884 0.67944 0.0
N218 N 0.85524 0.2349 0.69997 0.0
C219 C 0.94137 0.33067 0.66913 0.0
C220 C 0.89385 0.3989 0.68008 0.0
C221 C 0.82742 0.38453 0.70124 0.0
C222 C 0.80974 0.30222 0.71134 0.0
C223 C 0.90598 0.24988 0.7805 0.0
C224 C 0.7754 0.13523 0.77317 0.0
C225 C 0.91202 0.1825 0.75926 0.0
N226 N 0.84191 0.13481 0.75297 0.0
C227 C 0.76719 0.20044 0.7953 0.0
C228 C 0.8312 0.26069 0.79777 0.0
C229 C 0.70805 0.96361 0.70178 0.0
C230 C 0.88915 0.99557 0.5801 0.0
C231 C 0.7921 0.93462 0.6295 0.0
C232 C 0.86459 0.8904 0.61999 0.0
C233 C 0.91492 0.92263 0.59574 0.0
N234 N 0.76948 0.01099 0.61608 0.0
C235 C 0.81524 0.03705 0.58986 0.0
Co236 Co 0.11979 0.31594 0.95881 0.0
Co237 Co 0.09228 0.1993 0.89194 0.0
O238 O 0.11352 0.29916 0.91411 0.0
C239 C 0.03069 0.4656 0.92833 0.0
O240 O 0.04899 0.4342 0.90025 0.0
C241 C 0.2287 0.28955 0.8495 0.0
O242 O 0.20926 0.36294 0.86226 0.0
O243 O 0.17314 0.131 0.92007 0.0
O244 O 0.16143 0.19329 -0.03255 0.0
H245 H 0.10384 0.88892 0.87446 0.0
H246 H 0.19723 0.45808 0.92014 0.0
O247 O 0.06451 0.43378 0.95358 0.0
H248 H 0.43661 0.28893 -0.04071 0.0
H249 H 0.29597 0.45639 0.03137 0.0
H250 H 0.09329 0.2243 0.01818 0.0
H251 H 0.29344 0.25894 -0.02193 0.0
H252 H 0.18056 0.46627 -0.0066 0.0
O253 O 0.19188 0.22221 0.85997 0.0
H254 H 0.08555 0.0157 0.9069 0.0
H255 H 0.0757 0.16317 0.8219 0.0
H256 H 0.20631 0.21086 0.05938 0.0
H257 H 0.34088 0.49344 0.90251 0.0
H258 H 0.3149 0.32216 0.06302 0.0
H259 H 0.46269 0.40853 0.92205 0.0
O260 O 1.00295 0.26908 -0.03403 0.0
H261 H 0.01957 0.42502 0.80984 0.0
H262 H 0.90576 0.25687 0.89813 0.0
H263 H 0.83203 0.38195 0.8816 0.0
H264 H 0.88957 0.47139 0.8381 0.0
H265 H 0.08996 0.29684 0.82542 0.0
H266 H 0.1029 0.03847 0.7895 0.0
H267 H 0.11338 0.89933 0.81656 0.0
O268 O 0.99381 0.17208 0.92554 0.0
C269 C 0.17786 0.12741 0.95066 0.0
C270 C 0.1041 0.94993 0.86311 0.0
C271 C 0.10022 0.03352 0.81532 0.0
N272 N 0.07783 0.09842 0.86676 0.0
C273 C 0.09115 0.02226 0.88126 0.0
C274 C 0.08314 0.10423 0.83405 0.0
C275 C 0.10951 0.9559 0.83023 0.0
C276 C 0.24899 0.42144 0.92938 0.0
N277 N 0.23512 0.35544 0.94992 0.0
C278 C 0.33079 0.44164 0.91906 0.0
C279 C 0.39906 0.39414 0.93 0.0
C280 C 0.38476 0.3277 0.95117 0.0
C281 C 0.30249 0.30998 -0.03872 0.0
C282 C 0.25003 0.40615 0.03053 0.0
C283 C 0.13538 0.2756 0.02315 0.0
C284 C 0.18282 0.41215 0.00921 0.0
N285 N 0.1351 0.34206 0.00293 0.0
C286 C 0.20041 0.26746 0.04537 0.0
C287 C 0.26067 0.33145 0.04787 0.0
C288 C 0.96387 0.20815 0.95174 0.0
C289 C 0.99585 0.38915 0.83001 0.0
C290 C 0.93489 0.29215 0.87942 0.0
C291 C 0.89065 0.36461 0.86988 0.0
C292 C 0.92288 0.4149 0.84562 0.0
N293 N 0.01128 0.26953 0.86602 0.0
C294 C 0.03734 0.31525 0.83979 0.0
Co295 Co 0.31578 0.88876 -0.04041 0.0
Co296 Co 0.19924 0.91636 0.02646 0.0
O297 O 0.29905 0.89507 0.00428 0.0
C298 C 0.46549 0.97783 -0.00994 0.0
O299 O 0.43411 0.95951 0.01814 0.0
C300 C 0.28952 0.77998 0.06892 0.0
O301 O 0.36289 0.79939 0.05614 0.0
O302 O 0.13089 0.83547 -0.00164 0.0
O303 O 0.19312 0.84712 0.95097 0.0
H304 H 0.88887 0.90472 0.04405 0.0
H305 H 0.4579 0.8113 -0.00172 0.0
O306 O 0.43364 0.94403 -0.03518 0.0
H307 H 0.28873 0.57193 0.9591 0.0
H308 H 0.4563 0.71259 0.88708 0.0
H309 H 0.22397 0.91499 0.9002 0.0
H310 H 0.25871 0.71513 0.94034 0.0
H311 H 0.46613 0.82815 0.92499 0.0
O312 O 0.22217 0.8168 0.05846 0.0
H313 H 0.01555 0.92288 0.01155 0.0
H314 H 0.16328 0.9332 0.0965 0.0
H315 H 0.21059 0.80178 0.8591 0.0
H316 H 0.49325 0.66764 0.0159 0.0
H317 H 0.32197 0.69331 0.85552 0.0
H318 H 0.40835 0.54583 -0.00366 0.0
O319 O 0.26896 0.00559 0.9524 0.0
H320 H 0.42512 0.98922 0.10851 0.0
H321 H 0.25679 0.1029 0.02023 0.0
H322 H 0.3819 0.17668 0.03671 0.0
H323 H 0.47143 0.1192 0.08021 0.0
H324 H 0.29695 0.91875 0.09296 0.0
H325 H 0.03868 0.90619 0.12896 0.0
H326 H 0.89946 0.89557 0.10196 0.0
O327 O 0.172 0.01479 -0.00716 0.0
C328 C 0.12726 0.83071 -0.03223 0.0
C329 C 0.94992 0.90453 0.05538 0.0
C330 C 0.03365 0.90871 0.10314 0.0
N331 N 0.0984 0.93083 0.05166 0.0
C332 C 0.0222 0.9174 0.0372 0.0
C333 C 0.10431 0.92569 0.08437 0.0
C334 C 0.95598 0.89933 0.08826 0.0
C335 C 0.42125 0.75955 -0.01096 0.0
N336 N 0.35525 0.77343 -0.03151 0.0
C337 C 0.44144 0.67774 -0.00064 0.0
C338 C 0.39395 0.60947 -0.0116 0.0
C339 C 0.3275 0.62378 -0.03277 0.0
C340 C 0.30977 0.70606 0.95712 0.0
C341 C 0.406 0.75844 0.88792 0.0
C342 C 0.27533 0.87295 0.89525 0.0
C343 C 0.41197 0.82576 0.90919 0.0
N344 N 0.34184 0.87341 0.91547 0.0
C345 C 0.26719 0.8078 0.8731 0.0
C346 C 0.33124 0.74762 0.87062 0.0
C347 C 0.20806 0.0447 -0.03338 0.0
C348 C 0.38922 0.01291 0.08834 0.0
C349 C 0.29211 0.07379 0.03893 0.0
C350 C 0.36459 0.11806 0.04845 0.0
C351 C 0.41494 0.08587 0.07271 0.0
N352 N 0.26954 0.9974 0.05235 0.0
C353 C 0.31532 0.97137 0.07857 0.0
Co354 Co 0.88865 0.69273 0.95888 0.0
Co355 Co 0.91613 0.80923 0.89201 0.0
O356 O 0.89485 0.70944 0.91419 0.0
C357 C 0.97746 0.54296 0.92836 0.0
O358 O 0.9589 0.57428 0.90028 0.0
C359 C 0.77978 0.71882 0.84957 0.0
O360 O 0.79927 0.64548 0.86236 0.0
O361 O 0.83524 0.87756 0.92008 0.0
O362 O 0.84708 0.81542 -0.03251 0.0
H363 H 0.90466 0.11955 0.87456 0.0
H364 H 0.81094 0.55057 0.92026 0.0
O365 O 0.94389 0.57486 0.95363 0.0
H366 H 0.57187 0.72003 -0.04056 0.0
H367 H 0.7126 0.55218 0.03137 0.0
H368 H 0.91491 0.78464 0.01826 0.0
H369 H 0.71512 0.74988 -0.02182 0.0
H370 H 0.82829 0.54234 -0.00646 0.0
O371 O 0.81656 0.78622 0.86001 0.0
H372 H 0.92309 0.99275 0.90697 0.0
H373 H 0.93258 0.84533 0.82196 0.0
H374 H 0.80155 0.79804 0.05929 0.0
H375 H 0.66722 0.51538 0.90266 0.0
H376 H 0.69311 0.68661 0.06285 0.0
H377 H 0.54555 0.60043 0.92221 0.0
O378 O 0.00551 0.73953 -0.03395 0.0
H379 H 0.98884 0.58338 0.80999 0.0
H380 H 0.10265 0.75164 0.89826 0.0
H381 H 0.17627 0.62641 0.88183 0.0
H382 H 0.11872 0.53692 0.83833 0.0
H383 H 0.91854 0.71166 0.82549 0.0
H384 H 0.90534 0.97007 0.78957 0.0
H385 H 0.89497 0.1092 0.81666 0.0
O386 O 0.01459 0.83653 0.92561 0.0
C387 C 0.83057 0.88124 0.95068 0.0
C388 C 0.9044 0.05855 0.8632 0.0
C389 C 0.90811 0.975 0.81539 0.0
N390 N 0.93062 0.91007 0.86682 0.0
C391 C 0.91741 0.98621 0.88133 0.0
C392 C 0.92522 0.90427 0.83411 0.0
C393 C 0.89888 0.05261 0.83032 0.0
C394 C 0.75927 0.58729 0.9295 0.0
N395 N 0.77327 0.65329 0.95003 0.0
C396 C 0.67741 0.56719 0.91919 0.0
C397 C 0.60922 0.61476 0.93015 0.0
C398 C 0.62365 0.68119 0.95131 0.0
C399 C 0.70597 0.69884 -0.0386 0.0
C400 C 0.75843 0.60252 0.03054 0.0
C401 C 0.87289 0.73325 0.02321 0.0
C402 C 0.82584 0.59653 0.00931 0.0
N403 N 0.87344 0.66669 0.00302 0.0
C404 C 0.80764 0.74141 0.04531 0.0
C405 C 0.74748 0.67733 0.04778 0.0
C406 C 0.04455 0.80048 0.95182 0.0
C407 C 0.01255 0.61927 0.83015 0.0
C408 C 0.0735 0.71631 0.87957 0.0
C409 C 0.11768 0.64378 0.87008 0.0
C410 C 0.08545 0.59346 0.84581 0.0
N411 N 0.99716 0.73896 0.86613 0.0
C412 C 0.97112 0.69322 0.83989 0.0
Co413 Co 0.69261 0.11985 -0.0405 0.0
Co414 Co 0.80919 0.09246 0.02638 0.0
O415 O 0.70937 0.11368 0.0042 0.0
C416 C 0.54286 0.03104 -0.00996 0.0
O417 O 0.57421 0.0496 0.01812 0.0
C418 C 0.7188 0.22881 0.0688 0.0
O419 O 0.64546 0.20926 0.05602 0.0
O420 O 0.87748 0.17333 -0.00173 0.0
O421 O 0.81531 0.16141 0.95087 0.0
H422 H 0.11953 0.10391 0.04372 0.0
H423 H 0.55045 0.19756 -0.0019 0.0
O424 O 0.57475 0.06462 -0.03523 0.0
H425 H 0.72012 0.4366 0.95899 0.0
H426 H 0.5522 0.29595 0.88697 0.0
H427 H 0.78431 0.09332 0.90013 0.0
H428 H 0.74982 0.29339 0.94021 0.0
H429 H 0.54226 0.1804 0.92487 0.0
O430 O 0.78621 0.19208 0.05835 0.0
H431 H 0.99261 0.08532 0.01136 0.0
H432 H 0.84546 0.0763 0.09643 0.0
H433 H 0.79781 0.20649 0.85901 0.0
H434 H 0.51536 0.34126 0.01572 0.0
H435 H 0.68652 0.31506 0.8554 0.0
H436 H 0.60053 0.46292 -0.00379 0.0
O437 O 0.73939 1.00299 0.95237 0.0
H438 H 0.5835 0.01986 0.10846 0.0
H439 H 0.75149 0.90597 0.02017 0.0
H440 H 0.62628 0.83238 0.03664 0.0
H441 H 0.53693 0.88997 0.08016 0.0
H442 H 0.7118 0.0901 0.09293 0.0
H443 H 0.97031 0.10373 0.12875 0.0
H444 H 0.10936 0.11396 0.1016 0.0
O445 O 0.83644 0.99396 -0.0072 0.0
C446 C 0.88114 0.17795 -0.03232 0.0
C447 C 0.05857 0.10422 0.0551 0.0
C448 C 0.97516 0.10081 0.10293 0.0
N449 N 0.91007 0.07802 0.05155 0.0
C450 C 0.98617 0.09112 0.037 0.0
C451 C 0.90437 0.08359 0.08425 0.0
C452 C 0.05273 0.10996 0.08797 0.0
C453 C 0.58721 0.24923 -0.01113 0.0
N454 N 0.65321 0.23523 -0.03165 0.0
C455 C 0.56717 0.33107 -0.00081 0.0
C456 C 0.6148 0.39926 -0.01174 0.0
C457 C 0.68123 0.38483 -0.0329 0.0
C458 C 0.69879 0.30252 0.95699 0.0
C459 C 0.60244 0.25003 0.8878 0.0
C460 C 0.733 0.13541 0.89517 0.0
C461 C 0.59641 0.18272 0.90908 0.0
N462 N 0.6665 0.13504 0.91537 0.0
C463 C 0.7412 0.20053 0.87301 0.0
C464 C 0.6772 0.26077 0.87051 0.0
C465 C 0.80035 0.96396 -0.0334 0.0
C466 C 0.61934 0.99613 0.0883 0.0
C467 C 0.71623 0.93513 0.03887 0.0
C468 C 0.64371 0.89097 0.04839 0.0
C469 C 0.59346 0.92322 0.07266 0.0
N470 N 0.73896 0.01146 0.05229 0.0
C471 C 0.69331 0.03752 0.07854 0.0
Co472 Co 0.61975 0.69237 0.70958 0.0
Co473 Co 0.59225 0.80902 0.77643 0.0
O474 O 0.61349 0.70916 0.75427 0.0
C475 C 0.53068 0.54271 0.74006 0.0
O476 O 0.54901 0.57413 0.76814 0.0
C477 C 0.72863 0.71876 0.81889 0.0
O478 O 0.70916 0.64537 0.80614 0.0
O479 O 0.67312 0.87731 0.74832 0.0
O480 O 0.66139 0.81503 0.70094 0.0
H481 H 0.60375 0.1194 0.7938 0.0
H482 H 0.69722 0.55026 0.74827 0.0
O483 O 0.56448 0.57452 0.71482 0.0
H484 H 0.93658 0.71942 0.70911 0.0
H485 H 0.79591 0.55191 0.63706 0.0
H486 H 0.59329 0.78404 0.65019 0.0
H487 H 0.79338 0.74941 0.69033 0.0
H488 H 0.68041 0.54202 0.67498 0.0
O489 O 0.69185 0.78612 0.80842 0.0
H490 H 0.58533 0.99252 0.76142 0.0
H491 H 0.57585 0.84526 0.84647 0.0
H492 H 0.70643 0.79751 0.60907 0.0
H493 H 0.84088 0.51493 0.76589 0.0
H494 H 0.81499 0.68621 0.60547 0.0
H495 H 0.96269 0.59984 0.74635 0.0
O496 O 0.5029 0.73919 0.70239 0.0
H497 H 0.51952 0.58338 0.85855 0.0
H498 H 0.40571 0.75144 0.77023 0.0
H499 H 0.33199 0.62633 0.78674 0.0
H500 H 0.38954 0.53694 0.83027 0.0
H501 H 0.5899 0.71157 0.84298 0.0
H502 H 0.60309 0.97006 0.87882 0.0
H503 H 0.61344 0.10915 0.8517 0.0
O504 O 0.49378 0.83621 0.74283 0.0
C505 C 0.67784 0.8809 0.71773 0.0
C506 C 0.60402 0.05841 0.80518 0.0
C507 C 0.60032 0.97495 0.853 0.0
N508 N 0.57779 0.90992 0.80159 0.0
C509 C 0.59101 0.98604 0.78706 0.0
C510 C 0.58321 0.90418 0.8343 0.0
C511 C 0.60955 0.05254 0.83806 0.0
C512 C 0.74897 0.58691 0.73903 0.0
N513 N 0.73508 0.6529 0.71848 0.0
C514 C 0.83078 0.56673 0.74935 0.0
C515 C 0.89905 0.61422 0.7384 0.0
C516 C 0.88473 0.68065 0.71723 0.0
C517 C 0.80245 0.69837 0.70712 0.0
C518 C 0.75 0.60217 0.6379 0.0
C519 C 0.63538 0.73273 0.64524 0.0
C520 C 0.68273 0.59616 0.65918 0.0
N521 N 0.63503 0.66625 0.66546 0.0
C522 C 0.70048 0.7409 0.62307 0.0
C523 C 0.76072 0.67691 0.62059 0.0
C524 C 0.46382 0.80011 0.71662 0.0
C525 C 0.4958 0.61923 0.83838 0.0
C526 C 0.43485 0.71616 0.78894 0.0
C527 C 0.39061 0.6437 0.79848 0.0
C528 C 0.42285 0.59343 0.82275 0.0
N529 N 0.51123 0.73881 0.80235 0.0
C530 C 0.53728 0.69313 0.8286 0.0
Co531 Co 0.6925 0.38877 0.20881 0.0
Co532 Co 0.80904 0.41635 0.14193 0.0
O533 O 0.70923 0.39506 0.16411 0.0
C534 C 0.5428 0.47785 0.17834 0.0
O535 O 0.57418 0.45952 0.15026 0.0
C536 C 0.71876 0.27994 0.09947 0.0
O537 O 0.64538 0.29931 0.11225 0.0
O538 O 0.87739 0.33548 0.17003 0.0
O539 O 0.81516 0.34713 0.21742 0.0
H540 H 0.11941 0.40472 0.12431 0.0
H541 H 0.55036 0.31131 0.17012 0.0
O542 O 0.57465 0.44406 0.20358 0.0
H543 H 0.71943 0.07194 0.20932 0.0
H544 H 0.55192 0.21266 0.28132 0.0
H545 H 0.78436 0.41499 0.26819 0.0
H546 H 0.74951 0.21515 0.22807 0.0
H547 H 0.54213 0.32823 0.24342 0.0
O548 O 0.7861 0.31679 0.10993 0.0
H549 H 0.99275 0.42286 0.15682 0.0
H550 H 0.84497 0.43323 0.07189 0.0
H551 H 0.79771 0.30176 0.30929 0.0
H552 H 0.51496 0.16765 0.15251 0.0
H553 H 0.68628 0.19332 0.31287 0.0
H554 H 0.59982 0.04584 0.17208 0.0
O555 O 0.73936 0.5056 0.21599 0.0
H556 H 0.58314 0.48919 0.0599 0.0
H557 H 0.75152 0.60289 0.14816 0.0
H558 H 0.62643 0.67667 0.13168 0.0
H559 H 0.53687 0.61918 0.08819 0.0
H560 H 0.7113 0.41871 0.07544 0.0
H561 H 0.96954 0.40622 0.03942 0.0
H562 H 0.10878 0.39558 0.0664 0.0
O563 O 0.83631 0.51479 0.17555 0.0
C564 C 0.88102 0.33072 0.20062 0.0
C565 C 0.05835 0.40453 0.11299 0.0
C566 C 0.97458 0.40873 0.06523 0.0
N567 N 0.90988 0.43083 0.11672 0.0
C568 C 0.98608 0.41739 0.13118 0.0
C569 C 0.90394 0.42571 0.08401 0.0
C570 C 0.05226 0.39934 0.0801 0.0
C571 C 0.58699 0.25956 0.17937 0.0
N572 N 0.65299 0.27345 0.19992 0.0
C573 C 0.56677 0.17775 0.16906 0.0
C574 C 0.61424 0.10948 0.18002 0.0
C575 C 0.68068 0.12379 0.20119 0.0
C576 C 0.69845 0.20608 0.21129 0.0
C577 C 0.60225 0.2585 0.28048 0.0
C578 C 0.73298 0.37297 0.27314 0.0
C579 C 0.5963 0.32583 0.25921 0.0
N580 N 0.66645 0.37345 0.25293 0.0
C581 C 0.7411 0.30781 0.29529 0.0
C582 C 0.67702 0.24764 0.29777 0.0
C583 C 0.80026 0.54471 0.20177 0.0
C584 C 0.61905 0.51288 0.08006 0.0
C585 C 0.71619 0.57378 0.12946 0.0
C586 C 0.64372 0.61804 0.11994 0.0
C587 C 0.59335 0.58584 0.09569 0.0
N588 N 0.73875 0.49739 0.11605 0.0
C589 C 0.69294 0.47134 0.08982 0.0
Co590 Co 0.38866 0.31554 0.70952 0.0
Co591 Co 0.41614 0.19907 0.7764 0.0
O592 O 0.39488 0.29884 0.75421 0.0
C593 C 0.47747 0.46534 0.74005 0.0
O594 O 0.45893 0.43403 0.76812 0.0
C595 C 0.27981 0.28949 0.81882 0.0
O596 O 0.29928 0.36283 0.80603 0.0
O597 O 0.33525 0.13071 0.74831 0.0
O598 O 0.34709 0.19284 0.7009 0.0
H599 H 0.40457 0.88874 0.79396 0.0
H600 H 0.31096 0.45772 0.74812 0.0
O601 O 0.44389 0.43341 0.71477 0.0
H602 H 0.0719 0.28804 0.70898 0.0
H603 H 0.21255 0.45601 0.63699 0.0
H604 H 0.41496 0.22369 0.65014 0.0
H605 H 0.21511 0.25831 0.69022 0.0
H606 H 0.32817 0.46588 0.67488 0.0
O607 O 0.31657 0.22209 0.80838 0.0
H608 H 0.42288 0.01547 0.76149 0.0
H609 H 0.43273 0.16307 0.84646 0.0
H610 H 0.30171 0.21029 0.60904 0.0
H611 H 0.16726 0.49282 0.76572 0.0
H612 H 0.19323 0.32166 0.60545 0.0
H613 H 0.04559 0.40766 0.7462 0.0
O614 O 0.50551 0.26876 0.70237 0.0
H615 H 0.48889 0.425 0.85842 0.0
H616 H 0.60264 0.25673 0.77017 0.0
H617 H 0.6763 0.38194 0.78661 0.0
H618 H 0.61878 0.47144 0.8301 0.0
H619 H 0.41856 0.29671 0.84291 0.0
H620 H 0.40554 0.03842 0.87889 0.0
H621 H 0.39506 0.89924 0.85185 0.0
O622 O 0.5146 0.17176 0.74281 0.0
C623 C 0.33059 0.12702 0.71772 0.0
C624 C 0.40433 0.94977 0.8053 0.0
C625 C 0.40822 0.03343 0.85307 0.0
N626 N 0.43059 0.09825 0.80162 0.0
C627 C 0.41728 0.02207 0.78713 0.0
C628 C 0.42529 0.10412 0.83433 0.0
C629 C 0.39892 0.95579 0.83818 0.0
C630 C 0.25928 0.42095 0.73889 0.0
N631 N 0.27328 0.35494 0.71836 0.0
C632 C 0.17744 0.44101 0.74919 0.0
C633 C 0.10925 0.39337 0.73825 0.0
C634 C 0.12367 0.32693 0.7171 0.0
C635 C 0.20598 0.30935 0.707 0.0
C636 C 0.25841 0.40572 0.63783 0.0
C637 C 0.37292 0.27506 0.64518 0.0
C638 C 0.32577 0.41172 0.65909 0.0
N639 N 0.3734 0.34159 0.66538 0.0
C640 C 0.30774 0.2669 0.62304 0.0
C641 C 0.24756 0.33095 0.62055 0.0
C642 C 0.54456 0.20781 0.7166 0.0
C643 C 0.51259 0.3891 0.83826 0.0
C644 C 0.57351 0.29204 0.78886 0.0
C645 C 0.61772 0.36457 0.79836 0.0
C646 C 0.5855 0.4149 0.82262 0.0
N647 N 0.49717 0.26938 0.80229 0.0
C648 C 0.47114 0.31514 0.82852 0.0
Co649 Co 0.31571 0.61991 0.20888 0.0
Co650 Co 0.19912 0.5925 0.14202 0.0
O651 O 0.29895 0.61373 0.16419 0.0
C652 C 0.46545 0.53108 0.17835 0.0
O653 O 0.43409 0.54962 0.15028 0.0
C654 C 0.2895 0.72885 0.09959 0.0
O655 O 0.36286 0.70933 0.11236 0.0
O656 O 0.13083 0.67337 0.17012 0.0
O657 O 0.19303 0.66148 0.21752 0.0
H658 H 0.88878 0.60391 0.1247 0.0
H659 H 0.45787 0.6976 0.17027 0.0
O660 O 0.43357 0.56468 0.20363 0.0
H661 H 0.28833 0.93667 0.20941 0.0
H662 H 0.45614 0.79602 0.28143 0.0
H663 H 0.22401 0.59336 0.26826 0.0
H664 H 0.25856 0.79346 0.22818 0.0
H665 H 0.46607 0.6805 0.24352 0.0
O666 O 0.2221 0.69211 0.11005 0.0
H667 H 0.0157 0.58531 0.15705 0.0
H668 H 0.16282 0.57633 0.07196 0.0
H669 H 0.21053 0.70651 0.30938 0.0
H670 H 0.49301 0.84131 0.15266 0.0
H671 H 0.32183 0.8151 0.313 0.0
H672 H 0.40791 0.96297 0.17218 0.0
O673 O 0.26891 0.50305 0.21603 0.0
H674 H 0.4248 0.51991 0.05994 0.0
H675 H 0.25676 0.406 0.14823 0.0
H676 H 0.38197 0.33243 0.13176 0.0
H677 H 0.47134 0.39002 0.08824 0.0
H678 H 0.29649 0.59013 0.07547 0.0
H679 H 0.03796 0.60377 0.03965 0.0
H680 H 0.89893 0.61399 0.06681 0.0
O681 O 0.17186 0.49401 0.1756 0.0
C682 C 0.12719 0.67801 0.20072 0.0
C683 C 0.94973 0.60422 0.11331 0.0
C684 C 0.03312 0.60084 0.06547 0.0
N685 N 0.09823 0.57803 0.11685 0.0
C686 C 0.02213 0.59112 0.13141 0.0
C687 C 0.10392 0.58361 0.08415 0.0
C688 C 0.95556 0.60998 0.08044 0.0
C689 C 0.42114 0.74928 0.17951 0.0
N690 N 0.35514 0.73529 0.20004 0.0
C691 C 0.44121 0.83112 0.16919 0.0
C692 C 0.39361 0.89932 0.18013 0.0
C693 C 0.32719 0.8849 0.20129 0.0
C694 C 0.30959 0.80259 0.2114 0.0
C695 C 0.40589 0.75009 0.28059 0.0
C696 C 0.27533 0.63546 0.27322 0.0
C697 C 0.41192 0.68281 0.25931 0.0
N698 N 0.34182 0.63511 0.25301 0.0
C699 C 0.26714 0.70057 0.29539 0.0
C700 C 0.33114 0.76082 0.29789 0.0
C701 C 0.20794 0.46402 0.2018 0.0
C702 C 0.38895 0.49617 0.0801 0.0
C703 C 0.29204 0.43517 0.12953 0.0
C704 C 0.36456 0.39101 0.12001 0.0
C705 C 0.41481 0.42327 0.09574 0.0
N706 N 0.26932 0.5115 0.1161 0.0
C707 C 0.31498 0.53755 0.08986 0.0
Co708 Co 0.61968 0.81559 0.45888 0.0
Co709 Co 0.5922 0.69911 0.392 0.0
O710 O 0.61346 0.79889 0.41419 0.0
C711 C 0.53085 0.96538 0.42836 0.0
O712 O 0.54941 0.93407 0.40028 0.0
C713 C 0.72854 0.78952 0.34957 0.0
O714 O 0.7091 0.86287 0.36236 0.0
O715 O 0.67308 0.63076 0.42009 0.0
O716 O 0.66125 0.6929 0.4675 0.0
H717 H 0.60372 0.38879 0.37447 0.0
H718 H 0.69737 0.95778 0.42028 0.0
O719 O 0.56444 0.93346 0.45363 0.0
H720 H 0.93644 0.78819 0.45943 0.0
H721 H 0.7958 0.95606 0.53141 0.0
H722 H 0.59334 0.72374 0.51826 0.0
H723 H 0.79322 0.75841 0.47819 0.0
H724 H 0.68017 0.96594 0.49353 0.0
O725 O 0.69177 0.72213 0.36002 0.0
H726 H 0.58537 0.51553 0.40692 0.0
H727 H 0.57564 0.66309 0.32194 0.0
H728 H 0.70661 0.71031 0.55934 0.0
H729 H 0.84108 0.99293 0.40268 0.0
H730 H 0.81511 0.82169 0.56294 0.0
H731 H 0.96275 0.9078 0.42221 0.0
O732 O 0.50283 0.76879 0.46603 0.0
H733 H 0.51948 0.92503 0.30999 0.0
H734 H 0.4057 0.75674 0.39823 0.0
H735 H 0.33206 0.88195 0.38179 0.0
H736 H 0.3896 0.97145 0.3383 0.0
H737 H 0.58978 0.79674 0.32549 0.0
H738 H 0.60288 0.53843 0.28952 0.0
H739 H 0.61334 0.39926 0.31657 0.0
O740 O 0.49374 0.67179 0.42559 0.0
C741 C 0.67775 0.62708 0.45069 0.0
C742 C 0.60398 0.44981 0.36312 0.0
C743 C 0.60016 0.53345 0.31534 0.0
N744 N 0.57772 0.59829 0.36679 0.0
C745 C 0.591 0.52212 0.38128 0.0
C746 C 0.58306 0.60414 0.33408 0.0
C747 C 0.60944 0.45582 0.33024 0.0
C748 C 0.74905 0.92103 0.42951 0.0
N749 N 0.73506 0.85502 0.45004 0.0
C750 C 0.8309 0.94111 0.41921 0.0
C751 C 0.89909 0.8935 0.43016 0.0
C752 C 0.88467 0.82706 0.45131 0.0
C753 C 0.80236 0.80946 0.46141 0.0
C754 C 0.74992 0.90577 0.53057 0.0
C755 C 0.63539 0.7751 0.52321 0.0
C756 C 0.68256 0.91177 0.50932 0.0
N757 N 0.63492 0.84164 0.50302 0.0
C758 C 0.70058 0.76693 0.54536 0.0
C759 C 0.76078 0.83098 0.54784 0.0
C760 C 0.46378 0.70784 0.4518 0.0
C761 C 0.49577 0.88913 0.33014 0.0
C762 C 0.43484 0.79205 0.37954 0.0
C763 C 0.39064 0.86458 0.37004 0.0
C764 C 0.42287 0.91492 0.34579 0.0
N765 N 0.51117 0.7694 0.36611 0.0
C766 C 0.53721 0.81517 0.33988 0.0
Co767 Co 0.81571 0.38845 0.45955 0.0
Co768 Co 0.69917 0.4159 0.52642 0.0
O769 O 0.79898 0.39467 0.50424 0.0
C770 C 0.96545 0.4774 0.49006 0.0
O771 O 0.93409 0.45897 0.51813 0.0
C772 C 0.78952 0.27953 0.56886 0.0
O773 O 0.86288 0.29902 0.55609 0.0
O774 O 0.63085 0.33502 0.49831 0.0
O775 O 0.69303 0.34684 0.45091 0.0
H776 H 0.38882 0.40438 0.5438 0.0
H777 H 0.95789 0.31087 0.49819 0.0
O778 O 0.93356 0.44371 0.4648 0.0
H779 H 0.78843 0.07167 0.45905 0.0
H780 H 0.95619 0.21244 0.38698 0.0
H781 H 0.72391 0.41485 0.40017 0.0
H782 H 0.75858 0.21487 0.44026 0.0
H783 H 0.96602 0.32787 0.42494 0.0
O784 O 0.72214 0.3163 0.55839 0.0
H785 H 0.51565 0.42285 0.51141 0.0
H786 H 0.66301 0.43224 0.59646 0.0
H787 H 0.71054 0.30181 0.359 0.0
H788 H 0.99311 0.1672 0.51581 0.0
H789 H 0.82191 0.19334 0.35537 0.0
H790 H 0.90805 0.04546 0.49628 0.0
O791 O 0.76889 0.5053 0.45239 0.0
H792 H 0.92493 0.48859 0.60851 0.0
H793 H 0.75681 0.60241 0.52021 0.0
H794 H 0.88198 0.67607 0.5367 0.0
H795 H 0.9714 0.61852 0.58023 0.0
H796 H 0.79667 0.41826 0.59296 0.0
H797 H 0.53824 0.40492 0.62881 0.0
H798 H 0.39913 0.39457 0.60169 0.0
O799 O 0.6719 0.51438 0.49282 0.0
C800 C 0.62719 0.33035 0.46772 0.0
C801 C 0.44981 0.4041 0.55517 0.0
C802 C 0.53333 0.40773 0.603 0.0
N803 N 0.5983 0.43034 0.55159 0.0
C804 C 0.52217 0.41714 0.53706 0.0
C805 C 0.60408 0.42488 0.5843 0.0
C806 C 0.45573 0.39851 0.58805 0.0
C807 C 0.92118 0.25916 0.48895 0.0
N808 N 0.85516 0.2731 0.46842 0.0
C809 C 0.9413 0.17734 0.49927 0.0
C810 C 0.89372 0.10911 0.48833 0.0
C811 C 0.82728 0.12348 0.46717 0.0
C812 C 0.80963 0.20577 0.45705 0.0
C813 C 0.90591 0.25831 0.38783 0.0
C814 C 0.77526 0.37282 0.39521 0.0
C815 C 0.91188 0.32555 0.40913 0.0
N816 N 0.84176 0.3732 0.41542 0.0
C817 C 0.76714 0.30777 0.37301 0.0
C818 C 0.83117 0.24758 0.37051 0.0
C819 C 0.70796 0.54435 0.46662 0.0
C820 C 0.88906 0.51231 0.58835 0.0
C821 C 0.79209 0.57327 0.53891 0.0
C822 C 0.86459 0.61747 0.54844 0.0
C823 C 0.91488 0.58524 0.57272 0.0
N824 N 0.76942 0.49691 0.55233 0.0
C825 C 0.81512 0.47086 0.57858 0.0
Co826 Co 0.38854 0.19238 0.45881 0.0
Co827 Co 0.41605 0.30904 0.39196 0.0
O828 O 0.3948 0.20917 0.41412 0.0
C829 C 0.47763 0.04273 0.42834 0.0
O830 O 0.45932 0.07416 0.40026 0.0
C831 C 0.27964 0.21878 0.3495 0.0
O832 O 0.29908 0.14539 0.36225 0.0
O833 O 0.33519 0.37732 0.42006 0.0
O834 O 0.3469 0.31503 0.46745 0.0
H835 H 0.40454 0.61942 0.37455 0.0
H836 H 0.31108 0.05027 0.42011 0.0
O837 O 0.44382 0.07454 0.45358 0.0
H838 H 0.0717 0.21931 0.4593 0.0
H839 H 0.21241 0.05187 0.53134 0.0
H840 H 0.41498 0.28408 0.5182 0.0
H841 H 0.21491 0.24936 0.47807 0.0
H842 H 0.32788 0.04202 0.49341 0.0
O843 O 0.31645 0.28613 0.35997 0.0
H844 H 0.42292 0.49258 0.40696 0.0
H845 H 0.43254 0.34524 0.32192 0.0
H846 H 0.30186 0.2975 0.55933 0.0
H847 H 0.16742 0.01488 0.40249 0.0
H848 H 0.19332 0.18616 0.56293 0.0
H849 H 0.04561 0.09973 0.42205 0.0
O850 O 0.50538 0.23923 0.466 0.0
H851 H 0.48877 0.08337 0.30985 0.0
H852 H 0.60259 0.25151 0.39816 0.0
H853 H 0.67631 0.12641 0.38165 0.0
H854 H 0.61876 0.03698 0.33813 0.0
H855 H 0.41837 0.21155 0.32542 0.0
H856 H 0.40533 0.47001 0.28955 0.0
H857 H 0.39493 0.60911 0.31665 0.0
O858 O 0.51452 0.33625 0.42556 0.0
C859 C 0.33046 0.38091 0.45066 0.0
C860 C 0.40428 0.55842 0.36318 0.0
C861 C 0.40806 0.47491 0.31537 0.0
N862 N 0.43052 0.40993 0.36679 0.0
C863 C 0.41727 0.48606 0.38131 0.0
C864 C 0.42515 0.40417 0.33408 0.0
C865 C 0.3988 0.55251 0.3303 0.0
C866 C 0.25933 0.08689 0.42936 0.0
N867 N 0.27321 0.15288 0.44991 0.0
C868 C 0.17752 0.06668 0.41904 0.0
C869 C 0.10924 0.11414 0.43 0.0
C870 C 0.12355 0.18057 0.45117 0.0
C871 C 0.20584 0.19832 0.46128 0.0
C872 C 0.25831 0.10214 0.5305 0.0
C873 C 0.3729 0.23275 0.52315 0.0
C874 C 0.32557 0.09616 0.50921 0.0
N875 N 0.37326 0.16627 0.50293 0.0
C876 C 0.30781 0.2409 0.54532 0.0
C877 C 0.24759 0.17688 0.54781 0.0
C878 C 0.54447 0.30016 0.45177 0.0
C879 C 0.51249 0.11924 0.33002 0.0
C880 C 0.57345 0.21622 0.37946 0.0
C881 C 0.61768 0.14376 0.36992 0.0
C882 C 0.58545 0.09346 0.34565 0.0
N883 N 0.49706 0.23883 0.36604 0.0
C884 C 0.471 0.19312 0.3398 0.0
Co885 Co 0.19253 0.61954 0.45955 0.0
Co886 Co 0.30912 0.59201 0.52642 0.0
O887 O 0.20931 0.61328 0.50424 0.0
C888 C 0.04281 0.53062 0.49005 0.0
O889 O 0.0742 0.54906 0.51813 0.0
C890 C 0.21879 0.72836 0.56886 0.0
O891 O 0.14543 0.7089 0.55608 0.0
O892 O 0.37744 0.67289 0.49833 0.0
O893 O 0.31522 0.66113 0.45092 0.0
H894 H 0.61948 0.60356 0.54396 0.0
H895 H 0.05043 0.69714 0.4982 0.0
O896 O 0.07467 0.5643 0.46479 0.0
H897 H 0.2198 0.93634 0.45903 0.0
H898 H 0.05207 0.79577 0.38707 0.0
H899 H 0.28426 0.59319 0.40016 0.0
H900 H 0.24968 0.79313 0.44028 0.0
H901 H 0.04215 0.6801 0.42492 0.0
O902 O 0.28617 0.69158 0.55841 0.0
H903 H 0.49271 0.58529 0.5115 0.0
H904 H 0.34519 0.57536 0.59647 0.0
H905 H 0.29775 0.70652 0.35911 0.0
H906 H 0.01523 0.84082 0.51581 0.0
H907 H 0.18644 0.81508 0.35555 0.0
H908 H 0.10023 0.96255 0.49626 0.0
O909 O 0.23932 0.50269 0.45238 0.0
H910 H 0.08331 0.51922 0.60846 0.0
H911 H 0.25151 0.40548 0.52019 0.0
H912 H 0.12636 0.33177 0.53665 0.0
H913 H 0.03689 0.38929 0.58015 0.0
H914 H 0.21153 0.58961 0.59293 0.0
H915 H 0.46989 0.60247 0.6289 0.0
H916 H 0.60905 0.61295 0.60186 0.0
O917 O 0.33635 0.49356 0.49281 0.0
C918 C 0.38107 0.6776 0.46773 0.0
C919 C 0.55846 0.60379 0.5553 0.0
C920 C 0.47485 0.59983 0.60308 0.0
N921 N 0.40997 0.57753 0.55162 0.0
C922 C 0.48614 0.59086 0.53714 0.0
C923 C 0.40414 0.5828 0.58433 0.0
C924 C 0.55248 0.60914 0.58818 0.0
C925 C 0.08713 0.74885 0.48896 0.0
N926 N 0.15312 0.7349 0.46842 0.0
C927 C 0.06702 0.83067 0.49927 0.0
C928 C 0.11457 0.8989 0.48832 0.0
C929 C 0.18099 0.88453 0.46716 0.0
C930 C 0.19865 0.80223 0.45706 0.0
C931 C 0.10234 0.74988 0.3879 0.0
C932 C 0.23293 0.63528 0.39522 0.0
C933 C 0.09631 0.6825 0.40914 0.0
N934 N 0.16642 0.63482 0.41542 0.0
C935 C 0.24113 0.7005 0.3731 0.0
C936 C 0.17712 0.76073 0.37063 0.0
C937 C 0.30026 0.46361 0.46661 0.0
C938 C 0.11919 0.49552 0.5883 0.0
C939 C 0.21621 0.43461 0.53889 0.0
C940 C 0.14371 0.39038 0.54839 0.0
C941 C 0.0934 0.42259 0.57266 0.0
N942 N 0.23884 0.51097 0.55231 0.0
C943 C 0.19311 0.53701 0.57854 0.0
loop_
_geom_bond_atom_site_label_1
_geom_bond_atom_site_label_2
_geom_bond_distance
_geom_bond_site_symmetry_2
_ccdc_geom_bond_type
Co0 O2 2.143 . S
Co0 O8 2.074 . S
Co0 O11 2.093 . S
Co0 O24 2.097 1_455 S
Co0 N41 2.151 . S
Co0 N49 2.214 . S
Co1 O2 2.160 . S
Co1 O7 2.058 . S
Co1 O17 2.057 . S
Co1 O32 2.037 1_455 S
Co1 N36 2.145 . S
Co1 N57 2.257 1_455 S
O2 Co0 2.143 . S
O2 Co1 2.160 . S
C3 O4 1.278 . S
C3 O11 1.224 . S
O4 C3 1.278 . S
C5 O6 1.245 . S
C5 O17 1.232 . S
O6 C5 1.245 . S
O7 Co1 2.058 . S
O7 C33 1.269 . S
O8 Co0 2.074 . S
O8 C33 1.257 . S
H9 C34 0.930 . S
H10 C40 0.930 . S
O11 Co0 2.093 . S
O11 C3 1.224 . S
H12 C44 0.929 . S
H13 C46 0.930 . S
H14 C47 0.930 . S
H15 C45 0.929 . S
H16 C48 0.928 . S
O17 Co1 2.057 . S
O17 C5 1.232 . S
H18 C37 0.929 1_655 S
H19 C38 0.929 . S
H20 C50 0.931 1_655 S
H21 C42 0.929 1_565 S
H22 C51 0.930 . S
H23 C43 0.931 . S
O24 Co0 2.097 1_655 S
O24 C52 1.214 . S
H25 C53 0.929 . S
H26 C54 0.929 . S
H27 C55 0.930 . S
H28 C56 0.929 . S
H29 C58 0.930 1_455 S
H30 C35 0.930 . S
H31 C39 0.930 1_655 S
O32 Co1 2.037 1_655 S
O32 C52 1.234 . S
C33 O7 1.269 . S
C33 O8 1.257 . S
C34 H9 0.930 . S
C34 C37 1.388 1_655 S
C34 C39 1.418 1_655 S
C35 H30 0.930 . S
C35 C38 1.404 . S
C35 C39 1.353 . S
N36 Co1 2.145 . S
N36 C37 1.397 . S
N36 C38 1.334 . S
C37 H18 0.929 1_455 S
C37 C34 1.388 1_455 S
C37 N36 1.397 . S
C38 H19 0.929 . S
C38 C35 1.404 . S
C38 N36 1.334 . S
C39 H31 0.930 1_455 S
C39 C34 1.418 1_455 S
C39 C35 1.353 . S
C40 H10 0.930 . S
C40 N41 1.330 . S
C40 C42 1.446 . S
N41 Co0 2.151 . S
N41 C40 1.330 . S
N41 C45 1.418 . S
C42 H21 0.929 1_545 S
C42 C40 1.446 . S
C42 C43 1.332 . S
C43 H23 0.931 . S
C43 C42 1.332 . S
C43 C44 1.267 . S
C44 H12 0.929 . S
C44 C43 1.267 . S
C44 C45 1.251 . S
C45 H15 0.929 . S
C45 N41 1.418 . S
C45 C44 1.251 . S
C46 H13 0.930 . S
C46 C48 1.406 . S
C46 C51 1.261 . S
C47 H14 0.930 . S
C47 N49 1.325 . S
C47 C50 1.357 . S
C48 H16 0.928 . S
C48 C46 1.406 . S
C48 N49 1.261 . S
N49 Co0 2.214 . S
N49 C47 1.325 . S
N49 C48 1.261 . S
C50 H20 0.931 1_455 S
C50 C47 1.357 . S
C50 C51 1.312 . S
C51 H22 0.930 . S
C51 C46 1.261 . S
C51 C50 1.312 . S
C52 O24 1.214 . S
C52 O32 1.234 . S
C53 H25 0.929 . S
C53 C56 1.391 . S
C53 C58 1.391 . S
C54 H26 0.929 . S
C54 C55 1.390 . S
C54 N57 1.391 . S
C55 H27 0.930 . S
C55 C54 1.390 . S
C55 C56 1.392 . S
C56 H28 0.929 . S
C56 C53 1.391 . S
C56 C55 1.392 . S
N57 Co1 2.257 1_655 S
N57 C54 1.391 . S
N57 C58 1.388 . S
C58 H29 0.930 1_655 S
C58 C53 1.391 . S
C58 N57 1.388 . S
Co59 O61 2.143 . S
Co59 O67 2.074 . S
Co59 O70 2.093 . S
Co59 O83 2.097 1_565 S
Co59 N100 2.151 . S
Co59 N108 2.214 . S
Co60 O61 2.160 . S
Co60 O66 2.058 . S
Co60 O76 2.057 . S
Co60 O91 2.037 1_565 S
Co60 N95 2.145 . S
Co60 N116 2.257 1_565 S
O61 Co59 2.143 . S
O61 Co60 2.160 . S
C62 O63 1.278 . S
C62 O70 1.224 . S
O63 C62 1.278 . S
C64 O65 1.245 . S
C64 O76 1.232 . S
O65 C64 1.245 . S
O66 Co60 2.058 . S
O66 C92 1.269 . S
O67 Co59 2.074 . S
O67 C92 1.257 . S
H68 C93 0.930 . S
H69 C99 0.930 . S
O70 Co59 2.093 . S
O70 C62 1.224 . S
H71 C103 0.929 . S
H72 C105 0.930 . S
H73 C106 0.930 . S
H74 C104 0.929 . S
H75 C107 0.928 . S
O76 Co60 2.057 . S
O76 C64 1.232 . S
H77 C96 0.929 1_545 S
H78 C97 0.929 . S
H79 C109 0.931 1_545 S
H80 C101 0.929 1_655 S
H81 C110 0.930 . S
H82 C102 0.931 . S
O83 Co59 2.097 1_545 S
O83 C111 1.214 . S
H84 C112 0.929 . S
H85 C113 0.929 . S
H86 C114 0.930 . S
H87 C115 0.929 . S
H88 C117 0.930 1_565 S
H89 C94 0.930 . S
H90 C98 0.930 1_545 S
O91 Co60 2.037 1_545 S
O91 C111 1.234 . S
C92 O66 1.269 . S
C92 O67 1.257 . S
C93 H68 0.930 . S
C93 C96 1.388 1_545 S
C93 C98 1.418 1_545 S
C94 H89 0.930 . S
C94 C97 1.404 . S
C94 C98 1.353 . S
N95 Co60 2.145 . S
N95 C96 1.397 . S
N95 C97 1.334 . S
C96 H77 0.929 1_565 S
C96 C93 1.388 1_565 S
C96 N95 1.397 . S
C97 H78 0.929 . S
C97 C94 1.404 . S
C97 N95 1.334 . S
C98 H90 0.930 1_565 S
C98 C93 1.418 1_565 S
C98 C94 1.353 . S
C99 H69 0.930 . S
C99 N100 1.330 . S
C99 C101 1.446 . S
N100 Co59 2.151 . S
N100 C99 1.330 . S
N100 C104 1.418 . S
C101 H80 0.929 1_455 S
C101 C99 1.446 . S
C101 C102 1.332 . S
C102 H82 0.931 . S
C102 C101 1.332 . S
C102 C103 1.267 . S
C103 H71 0.929 . S
C103 C102 1.267 . S
C103 C104 1.251 . S
C104 H74 0.929 . S
C104 N100 1.418 . S
C104 C103 1.251 . S
C105 H72 0.930 . S
C105 C107 1.406 . S
C105 C110 1.261 . S
C106 H73 0.930 . S
C106 N108 1.325 . S
C106 C109 1.357 . S
C107 H75 0.928 . S
C107 C105 1.406 . S
C107 N108 1.261 . S
N108 Co59 2.214 . S
N108 C106 1.325 . S
N108 C107 1.261 . S
C109 H79 0.931 1_565 S
C109 C106 1.357 . S
C109 C110 1.312 . S
C110 H81 0.930 . S
C110 C105 1.261 . S
C110 C109 1.312 . S
C111 O83 1.214 . S
C111 O91 1.234 . S
C112 H84 0.929 . S
C112 C115 1.391 . S
C112 C117 1.391 . S
C113 H85 0.929 . S
C113 C114 1.390 . S
C113 N116 1.391 . S
C114 H86 0.930 . S
C114 C113 1.390 . S
C114 C115 1.392 . S
C115 H87 0.929 . S
C115 C112 1.391 . S
C115 C114 1.392 . S
N116 Co60 2.257 1_545 S
N116 C113 1.391 . S
N116 C117 1.388 . S
C117 H88 0.930 1_545 S
C117 C112 1.391 . S
C117 N116 1.388 . S
Co118 O120 2.143 . S
Co118 O126 2.074 . S
Co118 O129 2.093 . S
Co118 O142 2.097 1_655 S
Co118 N159 2.151 . S
Co118 N167 2.214 . S
Co119 O120 2.160 . S
Co119 O125 2.058 . S
Co119 O135 2.057 . S
Co119 O150 2.037 1_655 S
Co119 N154 2.145 . S
Co119 N175 2.257 1_655 S
O120 Co118 2.143 . S
O120 Co119 2.160 . S
C121 O122 1.278 . S
C121 O129 1.224 . S
O122 C121 1.278 . S
C123 O124 1.245 . S
C123 O135 1.232 . S
O124 C123 1.245 . S
O125 Co119 2.058 . S
O125 C151 1.269 . S
O126 Co118 2.074 . S
O126 C151 1.257 . S
H127 C152 0.930 . S
H128 C158 0.930 . S
O129 Co118 2.093 . S
O129 C121 1.224 . S
H130 C162 0.929 . S
H131 C164 0.930 . S
H132 C165 0.930 . S
H133 C163 0.929 . S
H134 C166 0.928 . S
O135 Co119 2.057 . S
O135 C123 1.232 . S
H136 C155 0.929 1_455 S
H137 C156 0.929 . S
H138 C168 0.931 1_455 S
H139 C160 0.929 1_545 S
H140 C169 0.930 . S
H141 C161 0.931 . S
O142 Co118 2.097 1_455 S
O142 C170 1.214 . S
H143 C171 0.929 . S
H144 C172 0.929 . S
H145 C173 0.930 . S
H146 C174 0.929 . S
H147 C176 0.930 1_655 S
H148 C153 0.930 . S
H149 C157 0.930 1_455 S
O150 Co119 2.037 1_455 S
O150 C170 1.234 . S
C151 O125 1.269 . S
C151 O126 1.257 . S
C152 H127 0.930 . S
C152 C155 1.388 1_455 S
C152 C157 1.418 1_455 S
C153 H148 0.930 . S
C153 C156 1.404 . S
C153 C157 1.353 . S
N154 Co119 2.145 . S
N154 C155 1.397 . S
N154 C156 1.334 . S
C155 H136 0.929 1_655 S
C155 C152 1.388 1_655 S
C155 N154 1.397 . S
C156 H137 0.929 . S
C156 C153 1.404 . S
C156 N154 1.334 . S
C157 H149 0.930 1_655 S
C157 C152 1.418 1_655 S
C157 C153 1.353 . S
C158 H128 0.930 . S
C158 N159 1.330 . S
C158 C160 1.446 . S
N159 Co118 2.151 . S
N159 C158 1.330 . S
N159 C163 1.418 . S
C160 H139 0.929 1_565 S
C160 C158 1.446 . S
C160 C161 1.332 . S
C161 H141 0.931 . S
C161 C160 1.332 . S
C161 C162 1.267 . S
C162 H130 0.929 . S
C162 C161 1.267 . S
C162 C163 1.251 . S
C163 H133 0.929 . S
C163 N159 1.418 . S
C163 C162 1.251 . S
C164 H131 0.930 . S
C164 C166 1.406 . S
C164 C169 1.261 . S
C165 H132 0.930 . S
C165 N167 1.325 . S
C165 C168 1.357 . S
C166 H134 0.928 . S
C166 C164 1.406 . S
C166 N167 1.261 . S
N167 Co118 2.214 . S
N167 C165 1.325 . S
N167 C166 1.261 . S
C168 H138 0.931 1_655 S
C168 C165 1.357 . S
C168 C169 1.312 . S
C169 H140 0.930 . S
C169 C164 1.261 . S
C169 C168 1.312 . S
C170 O142 1.214 . S
C170 O150 1.234 . S
C171 H143 0.929 . S
C171 C174 1.391 . S
C171 C176 1.391 . S
C172 H144 0.929 . S
C172 C173 1.390 . S
C172 N175 1.391 . S
C173 H145 0.930 . S
C173 C172 1.390 . S
C173 C174 1.392 . S
C174 H146 0.929 . S
C174 C171 1.391 . S
C174 C173 1.392 . S
N175 Co119 2.257 1_455 S
N175 C172 1.391 . S
N175 C176 1.388 . S
C176 H147 0.930 1_455 S
C176 C171 1.391 . S
C176 N175 1.388 . S
Co177 O179 2.143 . S
Co177 O185 2.074 . S
Co177 O188 2.093 . S
Co177 O201 2.097 1_545 S
Co177 N218 2.151 . S
Co177 N226 2.214 . S
Co178 O179 2.160 . S
Co178 O184 2.058 . S
Co178 O194 2.057 . S
Co178 O209 2.037 1_545 S
Co178 N213 2.145 . S
Co178 N234 2.257 1_545 S
O179 Co177 2.143 . S
O179 Co178 2.160 . S
C180 O181 1.278 . S
C180 O188 1.224 . S
O181 C180 1.278 . S
C182 O183 1.245 . S
C182 O194 1.232 . S
O183 C182 1.245 . S
O184 Co178 2.058 . S
O184 C210 1.269 . S
O185 Co177 2.074 . S
O185 C210 1.257 . S
H186 C211 0.930 . S
H187 C217 0.930 . S
O188 Co177 2.093 . S
O188 C180 1.224 . S
H189 C221 0.929 . S
H190 C223 0.930 . S
H191 C224 0.930 . S
H192 C222 0.929 . S
H193 C225 0.928 . S
O194 Co178 2.057 . S
O194 C182 1.232 . S
H195 C214 0.929 1_565 S
H196 C215 0.929 . S
H197 C227 0.931 1_565 S
H198 C219 0.929 1_455 S
H199 C228 0.930 . S
H200 C220 0.931 . S
O201 Co177 2.097 1_565 S
O201 C229 1.214 . S
H202 C230 0.929 . S
H203 C231 0.929 . S
H204 C232 0.930 . S
H205 C233 0.929 . S
H206 C235 0.930 1_545 S
H207 C212 0.930 . S
H208 C216 0.930 1_565 S
O209 Co178 2.037 1_565 S
O209 C229 1.234 . S
C210 O184 1.269 . S
C210 O185 1.257 . S
C211 H186 0.930 . S
C211 C214 1.388 1_565 S
C211 C216 1.418 1_565 S
C212 H207 0.930 . S
C212 C215 1.404 . S
C212 C216 1.353 . S
N213 Co178 2.145 . S
N213 C214 1.397 . S
N213 C215 1.334 . S
C214 H195 0.929 1_545 S
C214 C211 1.388 1_545 S
C214 N213 1.397 . S
C215 H196 0.929 . S
C215 C212 1.404 . S
C215 N213 1.334 . S
C216 H208 0.930 1_545 S
C216 C211 1.418 1_545 S
C216 C212 1.353 . S
C217 H187 0.930 . S
C217 N218 1.330 . S
C217 C219 1.446 . S
N218 Co177 2.151 . S
N218 C217 1.330 . S
N218 C222 1.418 . S
C219 H198 0.929 1_655 S
C219 C217 1.446 . S
C219 C220 1.332 . S
C220 H200 0.931 . S
C220 C219 1.332 . S
C220 C221 1.267 . S
C221 H189 0.929 . S
C221 C220 1.267 . S
C221 C222 1.251 . S
C222 H192 0.929 . S
C222 N218 1.418 . S
C222 C221 1.251 . S
C223 H190 0.930 . S
C223 C225 1.406 . S
C223 C228 1.261 . S
C224 H191 0.930 . S
C224 N226 1.325 . S
C224 C227 1.357 . S
C225 H193 0.928 . S
C225 C223 1.406 . S
C225 N226 1.261 . S
N226 Co177 2.214 . S
N226 C224 1.325 . S
N226 C225 1.261 . S
C227 H197 0.931 1_545 S
C227 C224 1.357 . S
C227 C228 1.312 . S
C228 H199 0.930 . S
C228 C223 1.261 . S
C228 C227 1.312 . S
C229 O201 1.214 . S
C229 O209 1.234 . S
C230 H202 0.929 . S
C230 C233 1.391 . S
C230 C235 1.391 . S
C231 H203 0.929 . S
C231 C232 1.390 . S
C231 N234 1.391 . S
C232 H204 0.930 . S
C232 C231 1.390 . S
C232 C233 1.392 . S
C233 H205 0.929 . S
C233 C230 1.391 . S
C233 C232 1.392 . S
N234 Co178 2.257 1_565 S
N234 C231 1.391 . S
N234 C235 1.388 . S
C235 H206 0.930 1_565 S
C235 C230 1.391 . S
C235 N234 1.388 . S
Co236 O238 2.143 1_554 S
Co236 O244 2.074 . S
Co236 O247 2.093 1_554 S
Co236 O260 2.097 1_455 S
Co236 N277 2.151 . S
Co236 N285 2.214 . S
Co237 O238 2.160 . S
Co237 O243 2.058 . S
Co237 O253 2.057 . S
Co237 O268 2.037 1_455 S
Co237 N272 2.145 . S
Co237 N293 2.257 1_455 S
O238 Co236 2.143 1_556 S
O238 Co237 2.160 . S
C239 O240 1.278 . S
C239 O247 1.224 . S
O240 C239 1.278 . S
C241 O242 1.245 . S
C241 O253 1.232 . S
O242 C241 1.245 . S
O243 Co237 2.058 . S
O243 C269 1.269 . S
O244 Co236 2.074 . S
O244 C269 1.257 1_554 S
H245 C270 0.930 . S
H246 C276 0.923 1_556 S
O247 Co236 2.093 1_556 S
O247 C239 1.224 . S
H248 C280 0.929 . S
H249 C282 0.930 . S
H250 C283 0.930 . S
H251 C281 0.929 . S
H252 C284 0.928 . S
O253 Co237 2.057 . S
O253 C241 1.232 . S
H254 C273 0.929 1_645 S
H255 C274 0.929 . S
H256 C286 0.931 1_655 S
H257 C278 0.929 1_556 S
H258 C287 0.930 . S
H259 C279 0.931 . S
O260 Co236 2.097 1_655 S
O260 C288 1.215 1_554 S
H261 C289 0.929 . S
H262 C290 0.929 . S
H263 C291 0.930 . S
H264 C292 0.929 . S
H265 C294 0.930 1_455 S
H266 C271 0.930 . S
H267 C275 0.930 1_655 S
O268 Co237 2.037 1_655 S
O268 C288 1.234 . S
C269 O243 1.269 . S
C269 O244 1.257 1_556 S
C270 H245 0.930 . S
C270 C273 1.388 1_655 S
C270 C275 1.418 1_655 S
C271 H266 0.930 . S
C271 C274 1.404 1_565 S
C271 C275 1.353 . S
N272 Co237 2.145 . S
N272 C273 1.397 1_545 S
N272 C274 1.334 . S
C273 H254 0.929 1_465 S
C273 C270 1.388 1_455 S
C273 N272 1.397 1_565 S
C274 H255 0.929 . S
C274 C271 1.404 1_545 S
C274 N272 1.334 . S
C275 H267 0.930 1_455 S
C275 C270 1.418 1_455 S
C275 C271 1.353 . S
C276 H246 0.923 1_554 S
C276 N277 1.334 . S
C276 C278 1.448 . S
N277 Co236 2.151 . S
N277 C276 1.334 . S
N277 C281 1.418 . S
C278 H257 0.929 1_554 S
C278 C276 1.448 . S
C278 C279 1.332 . S
C279 H259 0.931 . S
C279 C278 1.332 . S
C279 C280 1.267 . S
C280 H248 0.929 . S
C280 C279 1.267 . S
C280 C281 1.251 . S
C281 H251 0.929 . S
C281 N277 1.418 . S
C281 C280 1.251 . S
C282 H249 0.930 . S
C282 C284 1.406 . S
C282 C287 1.261 . S
C283 H250 0.930 . S
C283 N285 1.325 . S
C283 C286 1.357 . S
C284 H252 0.928 . S
C284 C282 1.406 . S
C284 N285 1.261 . S
N285 Co236 2.214 . S
N285 C283 1.325 . S
N285 C284 1.261 . S
C286 H256 0.931 1_455 S
C286 C283 1.357 . S
C286 C287 1.312 . S
C287 H258 0.930 . S
C287 C282 1.261 . S
C287 C286 1.312 . S
C288 O260 1.215 1_556 S
C288 O268 1.234 . S
C289 H261 0.929 . S
C289 C292 1.391 . S
C289 C294 1.391 . S
C290 H262 0.929 . S
C290 C291 1.390 . S
C290 N293 1.391 . S
C291 H263 0.930 . S
C291 C290 1.390 . S
C291 C292 1.392 . S
C292 H264 0.929 . S
C292 C289 1.391 . S
C292 C291 1.392 . S
N293 Co237 2.257 1_655 S
N293 C290 1.391 . S
N293 C294 1.388 . S
C294 H265 0.930 1_655 S
C294 C289 1.391 . S
C294 N293 1.388 . S
Co295 O297 2.143 1_556 S
Co295 O303 2.074 . S
Co295 O306 2.093 1_556 S
Co295 O319 2.097 1_565 S
Co295 N336 2.151 . S
Co295 N344 2.214 . S
Co296 O297 2.160 . S
Co296 O302 2.058 . S
Co296 O312 2.057 . S
Co296 O327 2.037 1_565 S
Co296 N331 2.145 . S
Co296 N352 2.257 1_565 S
O297 Co295 2.143 1_554 S
O297 Co296 2.160 . S
C298 O299 1.278 . S
C298 O306 1.224 . S
O299 C298 1.278 . S
C300 O301 1.245 . S
C300 O312 1.232 . S
O301 C300 1.245 . S
O302 Co296 2.058 . S
O302 C328 1.269 . S
O303 Co295 2.074 . S
O303 C328 1.257 1_556 S
H304 C329 0.930 . S
H305 C335 0.923 1_554 S
O306 Co295 2.093 1_554 S
O306 C298 1.224 . S
H307 C339 0.929 . S
H308 C341 0.930 . S
H309 C342 0.930 . S
H310 C340 0.929 . S
H311 C343 0.928 . S
O312 Co296 2.057 . S
O312 C300 1.232 . S
H313 C332 0.929 1_445 S
H314 C333 0.929 . S
H315 C345 0.931 1_545 S
H316 C337 0.929 1_554 S
H317 C346 0.930 . S
H318 C338 0.931 . S
O319 Co295 2.097 1_545 S
O319 C347 1.215 1_556 S
H320 C348 0.929 . S
H321 C349 0.929 . S
H322 C350 0.930 . S
H323 C351 0.929 . S
H324 C353 0.930 1_565 S
H325 C330 0.930 . S
H326 C334 0.930 1_545 S
O327 Co296 2.037 1_545 S
O327 C347 1.234 . S
C328 O302 1.269 . S
C328 O303 1.257 1_554 S
C329 H304 0.930 . S
C329 C332 1.388 1_545 S
C329 C334 1.418 1_545 S
C330 H325 0.930 . S
C330 C333 1.404 1_655 S
C330 C334 1.353 . S
N331 Co296 2.145 . S
N331 C332 1.397 1_455 S
N331 C333 1.334 . S
C332 H313 0.929 1_665 S
C332 C329 1.388 1_565 S
C332 N331 1.397 1_655 S
C333 H314 0.929 . S
C333 C330 1.404 1_455 S
C333 N331 1.334 . S
C334 H326 0.930 1_565 S
C334 C329 1.418 1_565 S
C334 C330 1.353 . S
C335 H305 0.923 1_556 S
C335 N336 1.334 . S
C335 C337 1.448 . S
N336 Co295 2.151 . S
N336 C335 1.334 . S
N336 C340 1.418 . S
C337 H316 0.929 1_556 S
C337 C335 1.448 . S
C337 C338 1.332 . S
C338 H318 0.931 . S
C338 C337 1.332 . S
C338 C339 1.267 . S
C339 H307 0.929 . S
C339 C338 1.267 . S
C339 C340 1.251 . S
C340 H310 0.929 . S
C340 N336 1.418 . S
C340 C339 1.251 . S
C341 H308 0.930 . S
C341 C343 1.406 . S
C341 C346 1.261 . S
C342 H309 0.930 . S
C342 N344 1.325 . S
C342 C345 1.357 . S
C343 H311 0.928 . S
C343 C341 1.406 . S
C343 N344 1.261 . S
N344 Co295 2.214 . S
N344 C342 1.325 . S
N344 C343 1.261 . S
C345 H315 0.931 1_565 S
C345 C342 1.357 . S
C345 C346 1.312 . S
C346 H317 0.930 . S
C346 C341 1.261 . S
C346 C345 1.312 . S
C347 O319 1.215 1_554 S
C347 O327 1.234 . S
C348 H320 0.929 . S
C348 C351 1.391 . S
C348 C353 1.391 . S
C349 H321 0.929 . S
C349 C350 1.390 . S
C349 N352 1.391 . S
C350 H322 0.930 . S
C350 C349 1.390 . S
C350 C351 1.392 . S
C351 H323 0.929 . S
C351 C348 1.391 . S
C351 C350 1.392 . S
N352 Co296 2.257 1_545 S
N352 C349 1.391 . S
N352 C353 1.388 . S
C353 H324 0.930 1_545 S
C353 C348 1.391 . S
C353 N352 1.388 . S
Co354 O356 2.143 1_554 S
Co354 O362 2.074 . S
Co354 O365 2.093 1_554 S
Co354 O378 2.097 1_655 S
Co354 N395 2.151 . S
Co354 N403 2.214 . S
Co355 O356 2.160 . S
Co355 O361 2.058 . S
Co355 O371 2.057 . S
Co355 O386 2.037 1_655 S
Co355 N390 2.145 . S
Co355 N411 2.257 1_655 S
O356 Co354 2.143 1_556 S
O356 Co355 2.160 . S
C357 O358 1.278 . S
C357 O365 1.224 . S
O358 C357 1.278 . S
C359 O360 1.245 . S
C359 O371 1.232 . S
O360 C359 1.245 . S
O361 Co355 2.058 . S
O361 C387 1.269 . S
O362 Co354 2.074 . S
O362 C387 1.257 1_554 S
H363 C388 0.930 . S
H364 C394 0.923 1_556 S
O365 Co354 2.093 1_556 S
O365 C357 1.224 . S
H366 C398 0.929 . S
H367 C400 0.930 . S
H368 C401 0.930 . S
H369 C399 0.929 . S
H370 C402 0.928 . S
O371 Co355 2.057 . S
O371 C359 1.232 . S
H372 C391 0.929 1_465 S
H373 C392 0.929 . S
H374 C404 0.931 1_455 S
H375 C396 0.929 1_556 S
H376 C405 0.930 . S
H377 C397 0.931 . S
O378 Co354 2.097 1_455 S
O378 C406 1.215 1_554 S
H379 C407 0.929 . S
H380 C408 0.929 . S
H381 C409 0.930 . S
H382 C410 0.929 . S
H383 C412 0.930 1_655 S
H384 C389 0.930 . S
H385 C393 0.930 1_455 S
O386 Co355 2.037 1_455 S
O386 C406 1.234 . S
C387 O361 1.269 . S
C387 O362 1.257 1_556 S
C388 H363 0.930 . S
C388 C391 1.388 1_455 S
C388 C393 1.418 1_455 S
C389 H384 0.930 . S
C389 C392 1.404 1_545 S
C389 C393 1.353 . S
N390 Co355 2.145 . S
N390 C391 1.397 1_565 S
N390 C392 1.334 . S
C391 H372 0.929 1_645 S
C391 C388 1.388 1_655 S
C391 N390 1.397 1_545 S
C392 H373 0.929 . S
C392 C389 1.404 1_565 S
C392 N390 1.334 . S
C393 H385 0.930 1_655 S
C393 C388 1.418 1_655 S
C393 C389 1.353 . S
C394 H364 0.923 1_554 S
C394 N395 1.334 . S
C394 C396 1.448 . S
N395 Co354 2.151 . S
N395 C394 1.334 . S
N395 C399 1.418 . S
C396 H375 0.929 1_554 S
C396 C394 1.448 . S
C396 C397 1.332 . S
C397 H377 0.931 . S
C397 C396 1.332 . S
C397 C398 1.267 . S
C398 H366 0.929 . S
C398 C397 1.267 . S
C398 C399 1.251 . S
C399 H369 0.929 . S
C399 N395 1.418 . S
C399 C398 1.251 . S
C400 H367 0.930 . S
C400 C402 1.406 . S
C400 C405 1.261 . S
C401 H368 0.930 . S
C401 N403 1.325 . S
C401 C404 1.357 . S
C402 H370 0.928 . S
C402 C400 1.406 . S
C402 N403 1.261 . S
N403 Co354 2.214 . S
N403 C401 1.325 . S
N403 C402 1.261 . S
C404 H374 0.931 1_655 S
C404 C401 1.357 . S
C404 C405 1.312 . S
C405 H376 0.930 . S
C405 C400 1.261 . S
C405 C404 1.312 . S
C406 O378 1.215 1_556 S
C406 O386 1.234 . S
C407 H379 0.929 . S
C407 C410 1.391 . S
C407 C412 1.391 . S
C408 H380 0.929 . S
C408 C409 1.390 . S
C408 N411 1.391 . S
C409 H381 0.930 . S
C409 C408 1.390 . S
C409 C410 1.392 . S
C410 H382 0.929 . S
C410 C407 1.391 . S
C410 C409 1.392 . S
N411 Co355 2.257 1_455 S
N411 C408 1.391 . S
N411 C412 1.388 . S
C412 H383 0.930 1_455 S
C412 C407 1.391 . S
C412 N411 1.388 . S
Co413 O415 2.143 1_556 S
Co413 O421 2.074 . S
Co413 O424 2.093 1_556 S
Co413 O437 2.097 1_545 S
Co413 N454 2.151 . S
Co413 N462 2.214 . S
Co414 O415 2.160 . S
Co414 O420 2.058 . S
Co414 O430 2.057 . S
Co414 O445 2.037 1_545 S
Co414 N449 2.145 . S
Co414 N470 2.257 1_545 S
O415 Co413 2.143 1_554 S
O415 Co414 2.160 . S
C416 O417 1.278 . S
C416 O424 1.224 . S
O417 C416 1.278 . S
C418 O419 1.245 . S
C418 O430 1.232 . S
O419 C418 1.245 . S
O420 Co414 2.058 . S
O420 C446 1.269 . S
O421 Co413 2.074 . S
O421 C446 1.257 1_556 S
H422 C447 0.930 . S
H423 C453 0.923 1_554 S
O424 Co413 2.093 1_554 S
O424 C416 1.224 . S
H425 C457 0.929 . S
H426 C459 0.930 . S
H427 C460 0.930 . S
H428 C458 0.929 . S
H429 C461 0.928 . S
O430 Co414 2.057 . S
O430 C418 1.232 . S
H431 C450 0.929 1_665 S
H432 C451 0.929 . S
H433 C463 0.931 1_565 S
H434 C455 0.929 1_554 S
H435 C464 0.930 . S
H436 C456 0.931 . S
O437 Co413 2.097 1_565 S
O437 C465 1.215 1_556 S
H438 C466 0.929 . S
H439 C467 0.929 . S
H440 C468 0.930 . S
H441 C469 0.929 . S
H442 C471 0.930 1_545 S
H443 C448 0.930 . S
H444 C452 0.930 1_565 S
O445 Co414 2.037 1_565 S
O445 C465 1.234 . S
C446 O420 1.269 . S
C446 O421 1.257 1_554 S
C447 H422 0.930 . S
C447 C450 1.388 1_565 S
C447 C452 1.418 1_565 S
C448 H443 0.930 . S
C448 C451 1.404 1_455 S
C448 C452 1.353 . S
N449 Co414 2.145 . S
N449 C450 1.397 1_655 S
N449 C451 1.334 . S
C450 H431 0.929 1_445 S
C450 C447 1.388 1_545 S
C450 N449 1.397 1_455 S
C451 H432 0.929 . S
C451 C448 1.404 1_655 S
C451 N449 1.334 . S
C452 H444 0.930 1_545 S
C452 C447 1.418 1_545 S
C452 C448 1.353 . S
C453 H423 0.923 1_556 S
C453 N454 1.334 . S
C453 C455 1.448 . S
N454 Co413 2.151 . S
N454 C453 1.334 . S
N454 C458 1.418 . S
C455 H434 0.929 1_556 S
C455 C453 1.448 . S
C455 C456 1.332 . S
C456 H436 0.931 . S
C456 C455 1.332 . S
C456 C457 1.267 . S
C457 H425 0.929 . S
C457 C456 1.267 . S
C457 C458 1.251 . S
C458 H428 0.929 . S
C458 N454 1.418 . S
C458 C457 1.251 . S
C459 H426 0.930 . S
C459 C461 1.406 . S
C459 C464 1.261 . S
C460 H427 0.930 . S
C460 N462 1.325 . S
C460 C463 1.357 . S
C461 H429 0.928 . S
C461 C459 1.406 . S
C461 N462 1.261 . S
N462 Co413 2.214 . S
N462 C460 1.325 . S
N462 C461 1.261 . S
C463 H433 0.931 1_545 S
C463 C460 1.357 . S
C463 C464 1.312 . S
C464 H435 0.930 . S
C464 C459 1.261 . S
C464 C463 1.312 . S
C465 O437 1.215 1_554 S
C465 O445 1.234 . S
C466 H438 0.929 . S
C466 C469 1.391 . S
C466 C471 1.391 . S
C467 H439 0.929 . S
C467 C468 1.390 . S
C467 N470 1.391 . S
C468 H440 0.930 . S
C468 C467 1.390 . S
C468 C469 1.392 . S
C469 H441 0.929 . S
C469 C466 1.391 . S
C469 C468 1.392 . S
N470 Co414 2.257 1_565 S
N470 C467 1.391 . S
N470 C471 1.388 . S
C471 H442 0.930 1_565 S
C471 C466 1.391 . S
C471 N470 1.388 . S
Co472 O474 2.143 . S
Co472 O480 2.074 . S
Co472 O483 2.093 . S
Co472 O496 2.097 . S
Co472 N513 2.151 . S
Co472 N521 2.214 . S
Co473 O474 2.160 . S
Co473 O479 2.058 . S
Co473 O489 2.057 . S
Co473 O504 2.037 . S
Co473 N508 2.145 . S
Co473 N529 2.257 . S
O474 Co472 2.143 . S
O474 Co473 2.160 . S
C475 O476 1.278 . S
C475 O483 1.224 . S
O476 C475 1.278 . S
C477 O478 1.245 . S
C477 O489 1.232 . S
O478 C477 1.245 . S
O479 Co473 2.058 . S
O479 C505 1.269 . S
O480 Co472 2.074 . S
O480 C505 1.257 . S
H481 C506 0.930 . S
H482 C512 0.930 . S
O483 Co472 2.093 . S
O483 C475 1.224 . S
H484 C516 0.929 . S
H485 C518 0.930 . S
H486 C519 0.930 . S
H487 C517 0.929 . S
H488 C520 0.928 . S
O489 Co473 2.057 . S
O489 C477 1.232 . S
H490 C509 0.929 1_565 S
H491 C510 0.929 . S
H492 C522 0.931 . S
H493 C514 0.929 . S
H494 C523 0.930 . S
H495 C515 0.931 . S
O496 Co472 2.097 . S
O496 C524 1.214 . S
H497 C525 0.929 . S
H498 C526 0.929 . S
H499 C527 0.930 . S
H500 C528 0.929 . S
H501 C530 0.930 . S
H502 C507 0.930 . S
H503 C511 0.930 . S
O504 Co473 2.037 . S
O504 C524 1.234 . S
C505 O479 1.269 . S
C505 O480 1.257 . S
C506 H481 0.930 . S
C506 C509 1.388 . S
C506 C511 1.418 . S
C507 H502 0.930 . S
C507 C510 1.404 1_545 S
C507 C511 1.353 . S
N508 Co473 2.145 . S
N508 C509 1.397 1_565 S
N508 C510 1.334 . S
C509 H490 0.929 1_545 S
C509 C506 1.388 . S
C509 N508 1.397 1_545 S
C510 H491 0.929 . S
C510 C507 1.404 1_565 S
C510 N508 1.334 . S
C511 H503 0.930 . S
C511 C506 1.418 . S
C511 C507 1.353 . S
C512 H482 0.930 . S
C512 N513 1.330 . S
C512 C514 1.446 . S
N513 Co472 2.151 . S
N513 C512 1.330 . S
N513 C517 1.418 . S
C514 H493 0.929 . S
C514 C512 1.446 . S
C514 C515 1.332 . S
C515 H495 0.931 . S
C515 C514 1.332 . S
C515 C516 1.267 . S
C516 H484 0.929 . S
C516 C515 1.267 . S
C516 C517 1.251 . S
C517 H487 0.929 . S
C517 N513 1.418 . S
C517 C516 1.251 . S
C518 H485 0.930 . S
C518 C520 1.406 . S
C518 C523 1.261 . S
C519 H486 0.930 . S
C519 N521 1.325 . S
C519 C522 1.357 . S
C520 H488 0.928 . S
C520 C518 1.406 . S
C520 N521 1.261 . S
N521 Co472 2.214 . S
N521 C519 1.325 . S
N521 C520 1.261 . S
C522 H492 0.931 . S
C522 C519 1.357 . S
C522 C523 1.312 . S
C523 H494 0.930 . S
C523 C518 1.261 . S
C523 C522 1.312 . S
C524 O496 1.214 . S
C524 O504 1.234 . S
C525 H497 0.929 . S
C525 C528 1.391 . S
C525 C530 1.391 . S
C526 H498 0.929 . S
C526 C527 1.390 . S
C526 N529 1.391 . S
C527 H499 0.930 . S
C527 C526 1.390 . S
C527 C528 1.392 . S
C528 H500 0.929 . S
C528 C525 1.391 . S
C528 C527 1.392 . S
N529 Co473 2.257 . S
N529 C526 1.391 . S
N529 C530 1.388 . S
C530 H501 0.930 . S
C530 C525 1.391 . S
C530 N529 1.388 . S
Co531 O533 2.143 . S
Co531 O539 2.074 . S
Co531 O542 2.093 . S
Co531 O555 2.097 . S
Co531 N572 2.151 . S
Co531 N580 2.214 . S
Co532 O533 2.160 . S
Co532 O538 2.058 . S
Co532 O548 2.057 . S
Co532 O563 2.037 . S
Co532 N567 2.145 . S
Co532 N588 2.257 . S
O533 Co531 2.143 . S
O533 Co532 2.160 . S
C534 O535 1.278 . S
C534 O542 1.224 . S
O535 C534 1.278 . S
C536 O537 1.245 . S
C536 O548 1.232 . S
O537 C536 1.245 . S
O538 Co532 2.058 . S
O538 C564 1.269 . S
O539 Co531 2.074 . S
O539 C564 1.257 . S
H540 C565 0.930 . S
H541 C571 0.930 . S
O542 Co531 2.093 . S
O542 C534 1.224 . S
H543 C575 0.929 . S
H544 C577 0.930 . S
H545 C578 0.930 . S
H546 C576 0.929 . S
H547 C579 0.928 . S
O548 Co532 2.057 . S
O548 C536 1.232 . S
H549 C568 0.929 1_655 S
H550 C569 0.929 . S
H551 C581 0.931 . S
H552 C573 0.929 . S
H553 C582 0.930 . S
H554 C574 0.931 . S
O555 Co531 2.097 . S
O555 C583 1.214 . S
H556 C584 0.929 . S
H557 C585 0.929 . S
H558 C586 0.930 . S
H559 C587 0.929 . S
H560 C589 0.930 . S
H561 C566 0.930 . S
H562 C570 0.930 . S
O563 Co532 2.037 . S
O563 C583 1.234 . S
C564 O538 1.269 . S
C564 O539 1.257 . S
C565 H540 0.930 . S
C565 C568 1.388 . S
C565 C570 1.418 . S
C566 H561 0.930 . S
C566 C569 1.404 1_455 S
C566 C570 1.353 . S
N567 Co532 2.145 . S
N567 C568 1.397 1_655 S
N567 C569 1.334 . S
C568 H549 0.929 1_455 S
C568 C565 1.388 . S
C568 N567 1.397 1_455 S
C569 H550 0.929 . S
C569 C566 1.404 1_655 S
C569 N567 1.334 . S
C570 H562 0.930 . S
C570 C565 1.418 . S
C570 C566 1.353 . S
C571 H541 0.930 . S
C571 N572 1.330 . S
C571 C573 1.446 . S
N572 Co531 2.151 . S
N572 C571 1.330 . S
N572 C576 1.418 . S
C573 H552 0.929 . S
C573 C571 1.446 . S
C573 C574 1.332 . S
C574 H554 0.931 . S
C574 C573 1.332 . S
C574 C575 1.267 . S
C575 H543 0.929 . S
C575 C574 1.267 . S
C575 C576 1.251 . S
C576 H546 0.929 . S
C576 N572 1.418 . S
C576 C575 1.251 . S
C577 H544 0.930 . S
C577 C579 1.406 . S
C577 C582 1.261 . S
C578 H545 0.930 . S
C578 N580 1.325 . S
C578 C581 1.357 . S
C579 H547 0.928 . S
C579 C577 1.406 . S
C579 N580 1.261 . S
N580 Co531 2.214 . S
N580 C578 1.325 . S
N580 C579 1.261 . S
C581 H551 0.931 . S
C581 C578 1.357 . S
C581 C582 1.312 . S
C582 H553 0.930 . S
C582 C577 1.261 . S
C582 C581 1.312 . S
C583 O555 1.214 . S
C583 O563 1.234 . S
C584 H556 0.929 . S
C584 C587 1.391 . S
C584 C589 1.391 . S
C585 H557 0.929 . S
C585 C586 1.390 . S
C585 N588 1.391 . S
C586 H558 0.930 . S
C586 C585 1.390 . S
C586 C587 1.392 . S
C587 H559 0.929 . S
C587 C584 1.391 . S
C587 C586 1.392 . S
N588 Co532 2.257 . S
N588 C585 1.391 . S
N588 C589 1.388 . S
C589 H560 0.930 . S
C589 C584 1.391 . S
C589 N588 1.388 . S
Co590 O592 2.143 . S
Co590 O598 2.074 . S
Co590 O601 2.093 . S
Co590 O614 2.097 . S
Co590 N631 2.151 . S
Co590 N639 2.214 . S
Co591 O592 2.160 . S
Co591 O597 2.058 . S
Co591 O607 2.057 . S
Co591 O622 2.037 . S
Co591 N626 2.145 . S
Co591 N647 2.257 . S
O592 Co590 2.143 . S
O592 Co591 2.160 . S
C593 O594 1.278 . S
C593 O601 1.224 . S
O594 C593 1.278 . S
C595 O596 1.245 . S
C595 O607 1.232 . S
O596 C595 1.245 . S
O597 Co591 2.058 . S
O597 C623 1.269 . S
O598 Co590 2.074 . S
O598 C623 1.257 . S
H599 C624 0.930 . S
H600 C630 0.930 . S
O601 Co590 2.093 . S
O601 C593 1.224 . S
H602 C634 0.929 . S
H603 C636 0.930 . S
H604 C637 0.930 . S
H605 C635 0.929 . S
H606 C638 0.928 . S
O607 Co591 2.057 . S
O607 C595 1.232 . S
H608 C627 0.929 1_545 S
H609 C628 0.929 . S
H610 C640 0.931 . S
H611 C632 0.929 . S
H612 C641 0.930 . S
H613 C633 0.931 . S
O614 Co590 2.097 . S
O614 C642 1.214 . S
H615 C643 0.929 . S
H616 C644 0.929 . S
H617 C645 0.930 . S
H618 C646 0.929 . S
H619 C648 0.930 . S
H620 C625 0.930 . S
H621 C629 0.930 . S
O622 Co591 2.037 . S
O622 C642 1.234 . S
C623 O597 1.269 . S
C623 O598 1.257 . S
C624 H599 0.930 . S
C624 C627 1.388 . S
C624 C629 1.418 . S
C625 H620 0.930 . S
C625 C628 1.404 1_565 S
C625 C629 1.353 . S
N626 Co591 2.145 . S
N626 C627 1.397 1_545 S
N626 C628 1.334 . S
C627 H608 0.929 1_565 S
C627 C624 1.388 . S
C627 N626 1.397 1_565 S
C628 H609 0.929 . S
C628 C625 1.404 1_545 S
C628 N626 1.334 . S
C629 H621 0.930 . S
C629 C624 1.418 . S
C629 C625 1.353 . S
C630 H600 0.930 . S
C630 N631 1.330 . S
C630 C632 1.446 . S
N631 Co590 2.151 . S
N631 C630 1.330 . S
N631 C635 1.418 . S
C632 H611 0.929 . S
C632 C630 1.446 . S
C632 C633 1.332 . S
C633 H613 0.931 . S
C633 C632 1.332 . S
C633 C634 1.267 . S
C634 H602 0.929 . S
C634 C633 1.267 . S
C634 C635 1.251 . S
C635 H605 0.929 . S
C635 N631 1.418 . S
C635 C634 1.251 . S
C636 H603 0.930 . S
C636 C638 1.406 . S
C636 C641 1.261 . S
C637 H604 0.930 . S
C637 N639 1.325 . S
C637 C640 1.357 . S
C638 H606 0.928 . S
C638 C636 1.406 . S
C638 N639 1.261 . S
N639 Co590 2.214 . S
N639 C637 1.325 . S
N639 C638 1.261 . S
C640 H610 0.931 . S
C640 C637 1.357 . S
C640 C641 1.312 . S
C641 H612 0.930 . S
C641 C636 1.261 . S
C641 C640 1.312 . S
C642 O614 1.214 . S
C642 O622 1.234 . S
C643 H615 0.929 . S
C643 C646 1.391 . S
C643 C648 1.391 . S
C644 H616 0.929 . S
C644 C645 1.390 . S
C644 N647 1.391 . S
C645 H617 0.930 . S
C645 C644 1.390 . S
C645 C646 1.392 . S
C646 H618 0.929 . S
C646 C643 1.391 . S
C646 C645 1.392 . S
N647 Co591 2.257 . S
N647 C644 1.391 . S
N647 C648 1.388 . S
C648 H619 0.930 . S
C648 C643 1.391 . S
C648 N647 1.388 . S
Co649 O651 2.143 . S
Co649 O657 2.074 . S
Co649 O660 2.093 . S
Co649 O673 2.097 . S
Co649 N690 2.151 . S
Co649 N698 2.214 . S
Co650 O651 2.160 . S
Co650 O656 2.058 . S
Co650 O666 2.057 . S
Co650 O681 2.037 . S
Co650 N685 2.145 . S
Co650 N706 2.257 . S
O651 Co649 2.143 . S
O651 Co650 2.160 . S
C652 O653 1.278 . S
C652 O660 1.224 . S
O653 C652 1.278 . S
C654 O655 1.245 . S
C654 O666 1.232 . S
O655 C654 1.245 . S
O656 Co650 2.058 . S
O656 C682 1.269 . S
O657 Co649 2.074 . S
O657 C682 1.257 . S
H658 C683 0.930 . S
H659 C689 0.930 . S
O660 Co649 2.093 . S
O660 C652 1.224 . S
H661 C693 0.929 . S
H662 C695 0.930 . S
H663 C696 0.930 . S
H664 C694 0.929 . S
H665 C697 0.928 . S
O666 Co650 2.057 . S
O666 C654 1.232 . S
H667 C686 0.929 1_455 S
H668 C687 0.929 . S
H669 C699 0.931 . S
H670 C691 0.929 . S
H671 C700 0.930 . S
H672 C692 0.931 . S
O673 Co649 2.097 . S
O673 C701 1.214 . S
H674 C702 0.929 . S
H675 C703 0.929 . S
H676 C704 0.930 . S
H677 C705 0.929 . S
H678 C707 0.930 . S
H679 C684 0.930 . S
H680 C688 0.930 . S
O681 Co650 2.037 . S
O681 C701 1.234 . S
C682 O656 1.269 . S
C682 O657 1.257 . S
C683 H658 0.930 . S
C683 C686 1.388 . S
C683 C688 1.418 . S
C684 H679 0.930 . S
C684 C687 1.404 1_655 S
C684 C688 1.353 . S
N685 Co650 2.145 . S
N685 C686 1.397 1_455 S
N685 C687 1.334 . S
C686 H667 0.929 1_655 S
C686 C683 1.388 . S
C686 N685 1.397 1_655 S
C687 H668 0.929 . S
C687 C684 1.404 1_455 S
C687 N685 1.334 . S
C688 H680 0.930 . S
C688 C683 1.418 . S
C688 C684 1.353 . S
C689 H659 0.930 . S
C689 N690 1.330 . S
C689 C691 1.446 . S
N690 Co649 2.151 . S
N690 C689 1.330 . S
N690 C694 1.418 . S
C691 H670 0.929 . S
C691 C689 1.446 . S
C691 C692 1.332 . S
C692 H672 0.931 . S
C692 C691 1.332 . S
C692 C693 1.267 . S
C693 H661 0.929 . S
C693 C692 1.267 . S
C693 C694 1.251 . S
C694 H664 0.929 . S
C694 N690 1.418 . S
C694 C693 1.251 . S
C695 H662 0.930 . S
C695 C697 1.406 . S
C695 C700 1.261 . S
C696 H663 0.930 . S
C696 N698 1.325 . S
C696 C699 1.357 . S
C697 H665 0.928 . S
C697 C695 1.406 . S
C697 N698 1.261 . S
N698 Co649 2.214 . S
N698 C696 1.325 . S
N698 C697 1.261 . S
C699 H669 0.931 . S
C699 C696 1.357 . S
C699 C700 1.312 . S
C700 H671 0.930 . S
C700 C695 1.261 . S
C700 C699 1.312 . S
C701 O673 1.214 . S
C701 O681 1.234 . S
C702 H674 0.929 . S
C702 C705 1.391 . S
C702 C707 1.391 . S
C703 H675 0.929 . S
C703 C704 1.390 . S
C703 N706 1.391 . S
C704 H676 0.930 . S
C704 C703 1.390 . S
C704 C705 1.392 . S
C705 H677 0.929 . S
C705 C702 1.391 . S
C705 C704 1.392 . S
N706 Co650 2.257 . S
N706 C703 1.391 . S
N706 C707 1.388 . S
C707 H678 0.930 . S
C707 C702 1.391 . S
C707 N706 1.388 . S
Co708 O710 2.143 . S
Co708 O716 2.074 . S
Co708 O719 2.093 . S
Co708 O732 2.097 . S
Co708 N749 2.151 . S
Co708 N757 2.214 . S
Co709 O710 2.160 . S
Co709 O715 2.058 . S
Co709 O725 2.057 . S
Co709 O740 2.037 . S
Co709 N744 2.145 . S
Co709 N765 2.257 . S
O710 Co708 2.143 . S
O710 Co709 2.160 . S
C711 O712 1.278 . S
C711 O719 1.224 . S
O712 C711 1.278 . S
C713 O714 1.245 . S
C713 O725 1.232 . S
O714 C713 1.245 . S
O715 Co709 2.058 . S
O715 C741 1.269 . S
O716 Co708 2.074 . S
O716 C741 1.257 . S
H717 C742 0.930 . S
H718 C748 0.930 . S
O719 Co708 2.093 . S
O719 C711 1.224 . S
H720 C752 0.929 . S
H721 C754 0.930 . S
H722 C755 0.930 . S
H723 C753 0.929 . S
H724 C756 0.928 . S
O725 Co709 2.057 . S
O725 C713 1.232 . S
H726 C745 0.929 . S
H727 C746 0.929 . S
H728 C758 0.931 . S
H729 C750 0.929 1_545 S
H730 C759 0.930 . S
H731 C751 0.931 . S
O732 Co708 2.097 . S
O732 C760 1.214 . S
H733 C761 0.929 . S
H734 C762 0.929 . S
H735 C763 0.930 . S
H736 C764 0.929 . S
H737 C766 0.930 . S
H738 C743 0.930 . S
H739 C747 0.930 . S
O740 Co709 2.037 . S
O740 C760 1.234 . S
C741 O715 1.269 . S
C741 O716 1.257 . S
C742 H717 0.930 . S
C742 C745 1.388 . S
C742 C747 1.418 . S
C743 H738 0.930 . S
C743 C746 1.404 . S
C743 C747 1.353 . S
N744 Co709 2.145 . S
N744 C745 1.397 . S
N744 C746 1.334 . S
C745 H726 0.929 . S
C745 C742 1.388 . S
C745 N744 1.397 . S
C746 H727 0.929 . S
C746 C743 1.404 . S
C746 N744 1.334 . S
C747 H739 0.930 . S
C747 C742 1.418 . S
C747 C743 1.353 . S
C748 H718 0.930 . S
C748 N749 1.330 . S
C748 C750 1.446 . S
N749 Co708 2.151 . S
N749 C748 1.330 . S
N749 C753 1.418 . S
C750 H729 0.929 1_565 S
C750 C748 1.446 . S
C750 C751 1.332 . S
C751 H731 0.931 . S
C751 C750 1.332 . S
C751 C752 1.267 . S
C752 H720 0.929 . S
C752 C751 1.267 . S
C752 C753 1.251 . S
C753 H723 0.929 . S
C753 N749 1.418 . S
C753 C752 1.251 . S
C754 H721 0.930 . S
C754 C756 1.406 . S
C754 C759 1.261 . S
C755 H722 0.930 . S
C755 N757 1.325 . S
C755 C758 1.357 . S
C756 H724 0.928 . S
C756 C754 1.406 . S
C756 N757 1.261 . S
N757 Co708 2.214 . S
N757 C755 1.325 . S
N757 C756 1.261 . S
C758 H728 0.931 . S
C758 C755 1.357 . S
C758 C759 1.312 . S
C759 H730 0.930 . S
C759 C754 1.261 . S
C759 C758 1.312 . S
C760 O732 1.214 . S
C760 O740 1.234 . S
C761 H733 0.929 . S
C761 C764 1.391 . S
C761 C766 1.391 . S
C762 H734 0.929 . S
C762 C763 1.390 . S
C762 N765 1.391 . S
C763 H735 0.930 . S
C763 C762 1.390 . S
C763 C764 1.392 . S
C764 H736 0.929 . S
C764 C761 1.391 . S
C764 C763 1.392 . S
N765 Co709 2.257 . S
N765 C762 1.391 . S
N765 C766 1.388 . S
C766 H737 0.930 . S
C766 C761 1.391 . S
C766 N765 1.388 . S
Co767 O769 2.143 . S
Co767 O775 2.074 . S
Co767 O778 2.093 . S
Co767 O791 2.097 . S
Co767 N808 2.151 . S
Co767 N816 2.214 . S
Co768 O769 2.160 . S
Co768 O774 2.058 . S
Co768 O784 2.057 . S
Co768 O799 2.037 . S
Co768 N803 2.145 . S
Co768 N824 2.257 . S
O769 Co767 2.143 . S
O769 Co768 2.160 . S
C770 O771 1.278 . S
C770 O778 1.224 . S
O771 C770 1.278 . S
C772 O773 1.245 . S
C772 O784 1.232 . S
O773 C772 1.245 . S
O774 Co768 2.058 . S
O774 C800 1.269 . S
O775 Co767 2.074 . S
O775 C800 1.257 . S
H776 C801 0.930 . S
H777 C807 0.930 . S
O778 Co767 2.093 . S
O778 C770 1.224 . S
H779 C811 0.929 . S
H780 C813 0.930 . S
H781 C814 0.930 . S
H782 C812 0.929 . S
H783 C815 0.928 . S
O784 Co768 2.057 . S
O784 C772 1.232 . S
H785 C804 0.929 . S
H786 C805 0.929 . S
H787 C817 0.931 . S
H788 C809 0.929 1_455 S
H789 C818 0.930 . S
H790 C810 0.931 . S
O791 Co767 2.097 . S
O791 C819 1.214 . S
H792 C820 0.929 . S
H793 C821 0.929 . S
H794 C822 0.930 . S
H795 C823 0.929 . S
H796 C825 0.930 . S
H797 C802 0.930 . S
H798 C806 0.930 . S
O799 Co768 2.037 . S
O799 C819 1.234 . S
C800 O774 1.269 . S
C800 O775 1.257 . S
C801 H776 0.930 . S
C801 C804 1.388 . S
C801 C806 1.418 . S
C802 H797 0.930 . S
C802 C805 1.404 . S
C802 C806 1.353 . S
N803 Co768 2.145 . S
N803 C804 1.397 . S
N803 C805 1.334 . S
C804 H785 0.929 . S
C804 C801 1.388 . S
C804 N803 1.397 . S
C805 H786 0.929 . S
C805 C802 1.404 . S
C805 N803 1.334 . S
C806 H798 0.930 . S
C806 C801 1.418 . S
C806 C802 1.353 . S
C807 H777 0.930 . S
C807 N808 1.330 . S
C807 C809 1.446 . S
N808 Co767 2.151 . S
N808 C807 1.330 . S
N808 C812 1.418 . S
C809 H788 0.929 1_655 S
C809 C807 1.446 . S
C809 C810 1.332 . S
C810 H790 0.931 . S
C810 C809 1.332 . S
C810 C811 1.267 . S
C811 H779 0.929 . S
C811 C810 1.267 . S
C811 C812 1.251 . S
C812 H782 0.929 . S
C812 N808 1.418 . S
C812 C811 1.251 . S
C813 H780 0.930 . S
C813 C815 1.406 . S
C813 C818 1.261 . S
C814 H781 0.930 . S
C814 N816 1.325 . S
C814 C817 1.357 . S
C815 H783 0.928 . S
C815 C813 1.406 . S
C815 N816 1.261 . S
N816 Co767 2.214 . S
N816 C814 1.325 . S
N816 C815 1.261 . S
C817 H787 0.931 . S
C817 C814 1.357 . S
C817 C818 1.312 . S
C818 H789 0.930 . S
C818 C813 1.261 . S
C818 C817 1.312 . S
C819 O791 1.214 . S
C819 O799 1.234 . S
C820 H792 0.929 . S
C820 C823 1.391 . S
C820 C825 1.391 . S
C821 H793 0.929 . S
C821 C822 1.390 . S
C821 N824 1.391 . S
C822 H794 0.930 . S
C822 C821 1.390 . S
C822 C823 1.392 . S
C823 H795 0.929 . S
C823 C820 1.391 . S
C823 C822 1.392 . S
N824 Co768 2.257 . S
N824 C821 1.391 . S
N824 C825 1.388 . S
C825 H796 0.930 . S
C825 C820 1.391 . S
C825 N824 1.388 . S
Co826 O828 2.143 . S
Co826 O834 2.074 . S
Co826 O837 2.093 . S
Co826 O850 2.097 . S
Co826 N867 2.151 . S
Co826 N875 2.214 . S
Co827 O828 2.160 . S
Co827 O833 2.058 . S
Co827 O843 2.057 . S
Co827 O858 2.037 . S
Co827 N862 2.145 . S
Co827 N883 2.257 . S
O828 Co826 2.143 . S
O828 Co827 2.160 . S
C829 O830 1.278 . S
C829 O837 1.224 . S
O830 C829 1.278 . S
C831 O832 1.245 . S
C831 O843 1.232 . S
O832 C831 1.245 . S
O833 Co827 2.058 . S
O833 C859 1.269 . S
O834 Co826 2.074 . S
O834 C859 1.257 . S
H835 C860 0.930 . S
H836 C866 0.930 . S
O837 Co826 2.093 . S
O837 C829 1.224 . S
H838 C870 0.929 . S
H839 C872 0.930 . S
H840 C873 0.930 . S
H841 C871 0.929 . S
H842 C874 0.928 . S
O843 Co827 2.057 . S
O843 C831 1.232 . S
H844 C863 0.929 . S
H845 C864 0.929 . S
H846 C876 0.931 . S
H847 C868 0.929 1_565 S
H848 C877 0.930 . S
H849 C869 0.931 . S
O850 Co826 2.097 . S
O850 C878 1.214 . S
H851 C879 0.929 . S
H852 C880 0.929 . S
H853 C881 0.930 . S
H854 C882 0.929 . S
H855 C884 0.930 . S
H856 C861 0.930 . S
H857 C865 0.930 . S
O858 Co827 2.037 . S
O858 C878 1.234 . S
C859 O833 1.269 . S
C859 O834 1.257 . S
C860 H835 0.930 . S
C860 C863 1.388 . S
C860 C865 1.418 . S
C861 H856 0.930 . S
C861 C864 1.404 . S
C861 C865 1.353 . S
N862 Co827 2.145 . S
N862 C863 1.397 . S
N862 C864 1.334 . S
C863 H844 0.929 . S
C863 C860 1.388 . S
C863 N862 1.397 . S
C864 H845 0.929 . S
C864 C861 1.404 . S
C864 N862 1.334 . S
C865 H857 0.930 . S
C865 C860 1.418 . S
C865 C861 1.353 . S
C866 H836 0.930 . S
C866 N867 1.330 . S
C866 C868 1.446 . S
N867 Co826 2.151 . S
N867 C866 1.330 . S
N867 C871 1.418 . S
C868 H847 0.929 1_545 S
C868 C866 1.446 . S
C868 C869 1.332 . S
C869 H849 0.931 . S
C869 C868 1.332 . S
C869 C870 1.267 . S
C870 H838 0.929 . S
C870 C869 1.267 . S
C870 C871 1.251 . S
C871 H841 0.929 . S
C871 N867 1.418 . S
C871 C870 1.251 . S
C872 H839 0.930 . S
C872 C874 1.406 . S
C872 C877 1.261 . S
C873 H840 0.930 . S
C873 N875 1.325 . S
C873 C876 1.357 . S
C874 H842 0.928 . S
C874 C872 1.406 . S
C874 N875 1.261 . S
N875 Co826 2.214 . S
N875 C873 1.325 . S
N875 C874 1.261 . S
C876 H846 0.931 . S
C876 C873 1.357 . S
C876 C877 1.312 . S
C877 H848 0.930 . S
C877 C872 1.261 . S
C877 C876 1.312 . S
C878 O850 1.214 . S
C878 O858 1.234 . S
C879 H851 0.929 . S
C879 C882 1.391 . S
C879 C884 1.391 . S
C880 H852 0.929 . S
C880 C881 1.390 . S
C880 N883 1.391 . S
C881 H853 0.930 . S
C881 C880 1.390 . S
C881 C882 1.392 . S
C882 H854 0.929 . S
C882 C879 1.391 . S
C882 C881 1.392 . S
N883 Co827 2.257 . S
N883 C880 1.391 . S
N883 C884 1.388 . S
C884 H855 0.930 . S
C884 C879 1.391 . S
C884 N883 1.388 . S
Co885 O887 2.143 . S
Co885 O893 2.074 . S
Co885 O896 2.093 . S
Co885 O909 2.097 . S
Co885 N926 2.151 . S
Co885 N934 2.214 . S
Co886 O887 2.160 . S
Co886 O892 2.058 . S
Co886 O902 2.057 . S
Co886 O917 2.037 . S
Co886 N921 2.145 . S
Co886 N942 2.257 . S
O887 Co885 2.143 . S
O887 Co886 2.160 . S
C888 O889 1.278 . S
C888 O896 1.224 . S
O889 C888 1.278 . S
C890 O891 1.245 . S
C890 O902 1.232 . S
O891 C890 1.245 . S
O892 Co886 2.058 . S
O892 C918 1.269 . S
O893 Co885 2.074 . S
O893 C918 1.257 . S
H894 C919 0.930 . S
H895 C925 0.930 . S
O896 Co885 2.093 . S
O896 C888 1.224 . S
H897 C929 0.929 . S
H898 C931 0.930 . S
H899 C932 0.930 . S
H900 C930 0.929 . S
H901 C933 0.928 . S
O902 Co886 2.057 . S
O902 C890 1.232 . S
H903 C922 0.929 . S
H904 C923 0.929 . S
H905 C935 0.931 . S
H906 C927 0.929 1_655 S
H907 C936 0.930 . S
H908 C928 0.931 . S
O909 Co885 2.097 . S
O909 C937 1.214 . S
H910 C938 0.929 . S
H911 C939 0.929 . S
H912 C940 0.930 . S
H913 C941 0.929 . S
H914 C943 0.930 . S
H915 C920 0.930 . S
H916 C924 0.930 . S
O917 Co886 2.037 . S
O917 C937 1.234 . S
C918 O892 1.269 . S
C918 O893 1.257 . S
C919 H894 0.930 . S
C919 C922 1.388 . S
C919 C924 1.418 . S
C920 H915 0.930 . S
C920 C923 1.404 . S
C920 C924 1.353 . S
N921 Co886 2.145 . S
N921 C922 1.397 . S
N921 C923 1.334 . S
C922 H903 0.929 . S
C922 C919 1.388 . S
C922 N921 1.397 . S
C923 H904 0.929 . S
C923 C920 1.404 . S
C923 N921 1.334 . S
C924 H916 0.930 . S
C924 C919 1.418 . S
C924 C920 1.353 . S
C925 H895 0.930 . S
C925 N926 1.330 . S
C925 C927 1.446 . S
N926 Co885 2.151 . S
N926 C925 1.330 . S
N926 C930 1.418 . S
C927 H906 0.929 1_455 S
C927 C925 1.446 . S
C927 C928 1.332 . S
C928 H908 0.931 . S
C928 C927 1.332 . S
C928 C929 1.267 . S
C929 H897 0.929 . S
C929 C928 1.267 . S
C929 C930 1.251 . S
C930 H900 0.929 . S
C930 N926 1.418 . S
C930 C929 1.251 . S
C931 H898 0.930 . S
C931 C933 1.406 . S
C931 C936 1.261 . S
C932 H899 0.930 . S
C932 N934 1.325 . S
C932 C935 1.357 . S
C933 H901 0.928 . S
C933 C931 1.406 . S
C933 N934 1.261 . S
N934 Co885 2.214 . S
N934 C932 1.325 . S
N934 C933 1.261 . S
C935 H905 0.931 . S
C935 C932 1.357 . S
C935 C936 1.312 . S
C936 H907 0.930 . S
C936 C931 1.261 . S
C936 C935 1.312 . S
C937 O909 1.214 . S
C937 O917 1.234 . S
C938 H910 0.929 . S
C938 C941 1.391 . S
C938 C943 1.391 . S
C939 H911 0.929 . S
C939 C940 1.390 . S
C939 N942 1.391 . S
C940 H912 0.930 . S
C940 C939 1.390 . S
C940 C941 1.392 . S
C941 H913 0.929 . S
C941 C938 1.391 . S
C941 C940 1.392 . S
N942 Co886 2.257 . S
N942 C939 1.391 . S
N942 C943 1.388 . S
C943 H914 0.930 . S
C943 C938 1.391 . S
C943 N942 1.388 . S
C33 C701 1.346 . S
C524 C92 1.346 . S
C583 C151 1.346 . S
C642 C210 1.346 . S
C347 C269 1.346 1_554 S
C328 C406 1.346 1_554 S
C387 C465 1.346 1_556 S
C446 C288 1.346 1_554 S
C505 C229 1.346 . S
C52 C564 1.346 . S
C111 C623 1.346 . S
C170 C682 1.346 . S
C819 C741 1.346 . S
C800 C878 1.346 . S
C937 C859 1.346 . S
C760 C918 1.346 . S
C831 C5 1.525 . S
C890 C64 1.525 . S
C713 C123 1.525 . S
C182 C772 1.525 . S
C241 C595 1.525 . S
C654 C300 1.525 . S
C359 C477 1.525 . S
C418 C536 1.525 . S
C121 C3 1.388 1_665 S
C180 C62 1.388 1_645 S
C239 C357 1.389 1_455 S
C298 C416 1.389 1_565 S
C593 C475 1.388 . S
C534 C652 1.388 . S
C829 C711 1.389 1_545 S
C770 C888 1.389 1_655 S
