# Generated by pormake.
# Topology snk, (6)-cn, num edge types: 1
# Building blocks:
#     Node 0, Type 0, BuildingBlock: BETFEN_clean_sbu_0, # of connection points: 6
#     Node 1, Type 0, BuildingBlock: BETFEN_clean_sbu_0, # of connection points: 6
#     Node 2, Type 0, BuildingBlock: BETFEN_clean_sbu_0, # of connection points: 6
#     Node 3, Type 0, BuildingBlock: BETFEN_clean_sbu_0, # of connection points: 6
#     Node 4, Type 0, BuildingBlock: BETFEN_clean_sbu_0, # of connection points: 6
#     Node 5, Type 0, BuildingBlock: BETFEN_clean_sbu_0, # of connection points: 6
#     Node 6, Type 0, BuildingBlock: BETFEN_clean_sbu_0, # of connection points: 6
#     Node 7, Type 0, BuildingBlock: BETFEN_clean_sbu_0, # of connection points: 6
#     Edge 8, Type (0, 0), BuildingBlock: XUDNAN_clean_linker_2, # of connection points: 2
#     Edge 9, Type (0, 0), BuildingBlock: XUDNAN_clean_linker_2, # of connection points: 2
#     Edge 10, Type (0, 0), BuildingBlock: XUDNAN_clean_linker_2, # of connection points: 2
#     Edge 11, Type (0, 0), BuildingBlock: XUDNAN_clean_linker_2, # of connection points: 2
#     Edge 12, Type (0, 0), BuildingBlock: XUDNAN_clean_linker_2, # of connection points: 2
#     Edge 13, Type (0, 0), BuildingBlock: XUDNAN_clean_linker_2, # of connection points: 2
#     Edge 14, Type (0, 0), BuildingBlock: XUDNAN_clean_linker_2, # of connection points: 2
#     Edge 15, Type (0, 0), BuildingBlock: XUDNAN_clean_linker_2, # of connection points: 2
#     Edge 16, Type (0, 0), BuildingBlock: XUDNAN_clean_linker_2, # of connection points: 2
#     Edge 17, Type (0, 0), BuildingBlock: XUDNAN_clean_linker_2, # of connection points: 2
#     Edge 18, Type (0, 0), BuildingBlock: XUDNAN_clean_linker_2, # of connection points: 2
#     Edge 19, Type (0, 0), BuildingBlock: XUDNAN_clean_linker_2, # of connection points: 2
#     Edge 20, Type (0, 0), BuildingBlock: XUDNAN_clean_linker_2, # of connection points: 2
#     Edge 21, Type (0, 0), BuildingBlock: XUDNAN_clean_linker_2, # of connection points: 2
#     Edge 22, Type (0, 0), BuildingBlock: XUDNAN_clean_linker_2, # of connection points: 2
#     Edge 23, Type (0, 0), BuildingBlock: XUDNAN_clean_linker_2, # of connection points: 2
#     Edge 24, Type (0, 0), BuildingBlock: XUDNAN_clean_linker_2, # of connection points: 2
#     Edge 25, Type (0, 0), BuildingBlock: XUDNAN_clean_linker_2, # of connection points: 2
#     Edge 26, Type (0, 0), BuildingBlock: XUDNAN_clean_linker_2, # of connection points: 2
#     Edge 27, Type (0, 0), BuildingBlock: XUDNAN_clean_linker_2, # of connection points: 2
#     Edge 28, Type (0, 0), BuildingBlock: XUDNAN_clean_linker_2, # of connection points: 2
#     Edge 29, Type (0, 0), BuildingBlock: XUDNAN_clean_linker_2, # of connection points: 2
#     Edge 30, Type (0, 0), BuildingBlock: XUDNAN_clean_linker_2, # of connection points: 2
#     Edge 31, Type (0, 0), BuildingBlock: XUDNAN_clean_linker_2, # of connection points: 2
# Relax obj value: 0.093
# Max RMSD: 0.156
# Mean RMSD: 0.126
data_MOF--net-snk--node1-BETFEN_clean_sbu_0--edge1-XUDNAN_clean_linker_2
_symmetry_space_group_name_H-M    P1
_symmetry_Int_Tables_number       1
_symmetry_cell_setting            triclinic
loop_
_symmetry_equiv_pos_as_xyz
'x, y, z'
_cell_length_a     37.792749
_cell_length_b     38.027359
_cell_length_c     25.585129
_cell_angle_alpha  96.803867
_cell_angle_beta   96.755129
_cell_angle_gamma 91.010721
loop_
_atom_site_label
_atom_site_type_symbol
_atom_site_fract_x
_atom_site_fract_y
_atom_site_fract_z
_atom_type_partial_charge
Pr0 Pr 1.00107 0.98461 0.46609 0.0
Pr1 Pr 0.01539 0.02749 0.57615 0.0
C2 C 0.98935 0.96083 0.36154 0.0
C3 C 0.99047 0.97429 0.30993 0.0
C4 C 1.00171 0.95207 0.26772 0.0
C5 C 1.0044 0.96453 0.21897 0.0
C6 C 0.99582 0.99958 0.21129 0.0
C7 C 0.98417 0.0217 0.25374 0.0
C8 C 0.98166 0.00924 0.30262 0.0
C9 C 0.05409 0.95768 0.53425 0.0
C10 C 0.04961 0.0597 0.48035 0.0
C11 C 0.03208 0.05154 0.68015 0.0
C12 C 0.02441 0.04746 0.73471 0.0
C13 C 0.01068 0.0761 0.76497 0.0
C14 C 1.0065 0.07456 0.81823 0.0
C15 C 0.01619 0.04437 0.84285 0.0
C16 C 0.02886 0.01517 0.81206 0.0
C17 C 0.03302 0.01671 0.75858 0.0
C18 C 0.96267 0.05502 0.50831 0.0
C19 C 0.9601 0.95484 0.55778 0.0
O20 O 0.964 0.9719 0.38956 0.0
O21 O 0.02003 0.95885 0.3903 0.0
O22 O 0.05069 0.99024 0.52953 0.0
O23 O 0.03059 0.93804 0.50207 0.0
O24 O 0.05598 0.05774 0.53192 0.0
O25 O 0.02587 0.03822 0.45001 0.0
O26 O 0.04935 0.02665 0.65505 0.0
O27 O 1.00771 0.06549 0.64905 0.0
O28 O 0.9661 0.0224 0.51257 0.0
O29 O 0.98544 0.07458 0.54196 0.0
O30 O 0.96013 0.95428 0.50611 0.0
O31 O 0.98018 0.97807 0.59203 0.0
H32 H 1.0089 0.9251 0.2727 0.0
H33 H 0.01405 0.94687 0.18774 0.0
H34 H 0.97687 0.04868 0.24924 0.0
H35 H 0.97307 0.02696 0.33474 0.0
H36 H 1.00392 0.10016 0.74771 0.0
H37 H 0.99604 0.0973 0.84035 0.0
H38 H 0.03681 0.99159 0.82975 0.0
H39 H 0.0438 0.99418 0.73642 0.0
Pr40 Pr 0.27678 0.74465 0.71146 0.0
Pr41 Pr 0.24318 0.75461 0.81472 0.0
C42 C 0.29845 0.72436 0.6161 0.0
C43 C 0.28692 0.72962 0.56069 0.0
C44 C 0.31163 0.72712 0.52377 0.0
C45 C 0.3016 0.73422 0.47175 0.0
C46 C 0.26661 0.74401 0.45573 0.0
C47 C 0.24175 0.74587 0.49284 0.0
C48 C 0.25184 0.73887 0.54487 0.0
C49 C 0.31509 0.78976 0.79306 0.0
C50 C 0.22247 0.80905 0.72331 0.0
C51 C 0.21834 0.77688 0.90723 0.0
C52 C 0.22201 0.7741 0.9645 0.0
C53 C 0.19176 0.77851 0.99108 0.0
C54 C 0.19432 0.77791 0.04582 0.0
C55 C 0.2273 0.77293 0.07528 0.0
C56 C 0.25753 0.76754 0.04829 0.0
C57 C 0.25493 0.76819 0.99326 0.0
C58 C 0.20509 0.70921 0.73324 0.0
C59 C 0.29807 0.69001 0.80339 0.0
O60 O 0.27736 0.7047 0.63865 0.0
O61 O 0.31139 0.75259 0.64715 0.0
O62 O 0.30063 0.76057 0.79778 0.0
O63 O 0.31092 0.79673 0.74427 0.0
O64 O 0.22797 0.80651 0.77474 0.0
O65 O 0.2335 0.7846 0.68857 0.0
O66 O 0.24387 0.79361 0.88879 0.0
O67 O 0.20483 0.74929 0.87531 0.0
O68 O 0.21915 0.73859 0.7283 0.0
O69 O 0.20975 0.70229 0.78203 0.0
O70 O 0.29432 0.69372 0.75217 0.0
O71 O 0.28486 0.71312 0.83806 0.0
H72 H 0.3389 0.72029 0.53545 0.0
H73 H 0.32157 0.733 0.44455 0.0
H74 H 0.21446 0.75283 0.48175 0.0
H75 H 0.23238 0.74109 0.57291 0.0
H76 H 0.1661 0.78289 0.96949 0.0
H77 H 0.1704 0.78145 0.06514 0.0
H78 H 0.28334 0.76378 0.06986 0.0
H79 H 0.27861 0.7646 0.97336 0.0
Pr80 Pr 0.52774 0.0086 0.07087 0.0
Pr81 Pr 0.49085 0.01467 0.95768 0.0
C82 C 0.55953 0.02032 0.17169 0.0
C83 C 0.55059 0.026 0.22662 0.0
C84 C 0.52161 0.00792 0.2423 0.0
C85 C 0.51441 0.01299 0.29513 0.0
C86 C 0.53589 0.03641 0.33313 0.0
C87 C 0.56465 0.05467 0.31697 0.0
C88 C 0.5719 0.04948 0.2643 0.0
C89 C 0.47715 0.95508 0.03229 0.0
C90 C 0.45309 0.05355 0.05491 0.0
C91 C 0.46142 1.00694 0.85537 0.0
C92 C 0.4719 0.01216 0.8031 0.0
C93 C 0.50066 0.03505 0.79883 0.0
C94 C 0.50911 0.04146 0.74895 0.0
C95 C 0.48905 0.02499 0.70233 0.0
C96 C 0.4609 1.00124 0.70689 0.0
C97 C 0.45237 0.99496 0.75687 0.0
C98 C 0.54415 0.06595 0.99686 0.0
C99 C 0.56279 0.96585 0.97366 0.0
O100 O 0.55244 0.04585 0.14228 0.0
O101 O 0.55294 0.98864 0.14579 0.0
O102 O 0.47393 0.98717 0.02579 0.0
O103 O 0.50563 0.95002 0.06376 0.0
O104 O 0.44597 0.03544 1.00741 0.0
O105 O 0.48445 0.05181 0.08332 0.0
O106 O 0.47617 0.981 0.87839 0.0
O107 O 0.45908 0.03564 0.88826 0.0
O108 O 0.54547 0.03357 1.00095 0.0
O109 O 0.51485 0.07349 0.96938 0.0
O110 O 0.57099 0.98423 0.0208 0.0
O111 O 0.53143 0.96866 0.94569 0.0
H112 H 0.50461 0.98981 0.21381 0.0
H113 H 0.49182 0.99885 0.3061 0.0
H114 H 0.582 0.07257 0.34526 0.0
H115 H 0.59442 0.06362 0.25306 0.0
H116 H 0.51629 0.04834 0.8341 0.0
H117 H 0.53132 0.05943 0.74687 0.0
H118 H 0.44478 0.98831 0.67185 0.0
H119 H 0.43012 0.97714 0.75944 0.0
Pr120 Pr 0.27782 0.2666 0.32595 0.0
Pr121 Pr 0.23613 0.24719 0.21384 0.0
C122 C 0.29748 0.28698 0.43041 0.0
C123 C 0.29377 0.27599 0.48337 0.0
C124 C 0.32436 0.2679 0.51591 0.0
C125 C 0.32189 0.2585 0.56664 0.0
C126 C 0.28873 0.25717 0.58637 0.0
C127 C 0.25804 0.26536 0.55383 0.0
C128 C 0.2605 0.27458 0.50284 0.0
C129 C 0.30589 0.211 0.26481 0.0
C130 C 0.20575 0.21009 0.30913 0.0
C131 C 0.21326 0.23132 0.10938 0.0
C132 C 0.22569 0.23104 0.05672 0.0
C133 C 0.20104 0.23612 1.01305 0.0
C134 C 0.2119 0.23606 0.96259 0.0
C135 C 0.24775 0.23087 0.95465 0.0
C136 C 0.2725 0.22601 0.99875 0.0
C137 C 0.2616 0.22619 0.04934 0.0
C138 C 0.2077 0.30132 0.27769 0.0
C139 C 0.31145 0.29625 0.22778 0.0
O140 O 0.26931 0.29859 0.40369 0.0
O141 O 0.31727 0.26771 0.40031 0.0
O142 O 0.27298 0.21544 0.26685 0.0
O143 O 0.32542 0.23409 0.29796 0.0
O144 O 0.20499 0.20863 0.25713 0.0
O145 O 0.22911 0.2307 0.34237 0.0
O146 O 0.22614 0.20786 0.13946 0.0
O147 O 0.20983 0.26241 0.13581 0.0
O148 O 0.24053 0.29819 0.27353 0.0
O149 O 0.18843 0.27708 0.24644 0.0
O150 O 0.30818 0.30505 0.27864 0.0
O151 O 0.29065 0.27135 0.19864 0.0
H152 H 0.35036 0.26912 0.50221 0.0
H153 H 0.34613 0.25286 0.59081 0.0
H154 H 0.23206 0.26426 0.56757 0.0
H155 H 0.23636 0.28069 0.47884 0.0
H156 H 0.17323 0.23998 0.01793 0.0
H157 H 0.19203 0.23942 0.92961 0.0
H158 H 0.30039 0.2224 0.99428 0.0
H159 H 0.28116 0.22255 0.08262 0.0
Pr160 Pr 0.79519 0.24253 0.18083 0.0
Pr161 Pr 0.76431 0.27264 0.28582 0.0
C162 C 0.80537 0.21765 0.08073 0.0
C163 C 0.80756 0.22994 0.02824 0.0
C164 C 0.84055 0.24042 1.01371 0.0
C165 C 0.84285 0.25067 0.96346 0.0
C166 C 0.81226 0.25048 0.92633 0.0
C167 C 0.77927 0.23999 0.94088 0.0
C168 C 0.77696 0.22974 0.99115 0.0
C169 C 0.8419 0.28536 0.25387 0.0
C170 C 0.74444 0.31545 0.18357 0.0
C171 C 0.75344 0.29656 0.38585 0.0
C172 C 0.76622 0.29259 0.44152 0.0
C173 C 0.74113 0.28697 0.47614 0.0
C174 C 0.75207 0.2841 0.52947 0.0
C175 C 0.78841 0.28704 0.54946 0.0
C176 C 0.81364 0.29245 0.51464 0.0
C177 C 0.80267 0.29498 0.461 0.0
C178 C 0.71969 0.22627 0.21384 0.0
C179 C 0.81395 0.20067 0.28294 0.0
O180 O 0.77409 0.21766 0.09805 0.0
O181 O 0.83158 0.22703 0.11833 0.0
O182 O 0.80931 0.2911 0.2422 0.0
O183 O 0.85208 0.2583 0.22396 0.0
O184 O 0.74398 0.31684 0.23528 0.0
O185 O 0.76038 0.29007 0.15581 0.0
O186 O 0.77471 0.31279 0.35888 0.0
O187 O 0.73545 0.26958 0.35792 0.0
O188 O 0.75243 0.22297 0.22668 0.0
O189 O 0.70773 0.25377 0.2408 0.0
O190 O 0.80587 0.19556 0.23087 0.0
O191 O 0.80604 0.2303 0.31133 0.0
H192 H 0.86475 0.24036 0.04097 0.0
H193 H 0.86877 0.25805 0.95333 0.0
H194 H 0.75511 0.23988 0.91351 0.0
H195 H 0.75118 0.22147 1.00078 0.0
H196 H 0.7129 0.28514 0.46197 0.0
H197 H 0.73195 0.28039 0.55536 0.0
H198 H 0.84185 0.29452 0.5288 0.0
H199 H 0.82263 0.29902 0.43498 0.0
Pr200 Pr 0.77269 0.76474 0.81719 0.0
Pr201 Pr 0.73167 0.74407 0.70521 0.0
C202 C 0.79185 0.78754 0.92096 0.0
C203 C 0.79002 0.77881 0.97566 0.0
C204 C 0.82157 0.77227 1.00731 0.0
C205 C 0.82119 0.76761 0.06066 0.0
C206 C 0.78923 0.76967 0.08398 0.0
C207 C 0.75742 0.77511 0.05181 0.0
C208 C 0.7578 0.7797 0.99829 0.0
C209 C 0.80012 0.70747 0.75862 0.0
C210 C 0.70069 0.70804 0.80091 0.0
C211 C 0.71092 0.72614 0.60055 0.0
C212 C 0.72401 0.73031 0.54936 0.0
C213 C 0.69969 0.73669 0.50599 0.0
C214 C 0.71153 0.74199 0.45759 0.0
C215 C 0.74805 0.74101 0.45147 0.0
C216 C 0.77234 0.73425 0.49508 0.0
C217 C 0.76046 0.72906 0.54353 0.0
C218 C 0.70418 0.80029 0.76605 0.0
C219 C 0.80539 0.79576 0.71904 0.0
O220 O 0.76252 0.79662 0.89403 0.0
O221 O 0.81252 0.76881 0.89158 0.0
O222 O 0.76734 0.71265 0.7603 0.0
O223 O 0.81999 0.73095 0.79061 0.0
O224 O 0.70028 0.70611 0.74894 0.0
O225 O 0.72375 0.7291 0.8341 0.0
O226 O 0.72819 0.70496 0.63062 0.0
O227 O 0.70117 0.75502 0.62736 0.0
O228 O 0.73689 0.79597 0.76238 0.0
O229 O 0.6843 0.77589 0.73597 0.0
O230 O 0.80228 0.8038 0.77004 0.0
O231 O 0.78529 0.77032 0.68983 0.0
H232 H 0.84681 0.77156 0.99108 0.0
H233 H 0.84611 0.76281 0.08385 0.0
H234 H 0.73236 0.77716 0.06842 0.0
H235 H 0.73298 0.78485 0.97512 0.0
H236 H 0.67146 0.738 0.50975 0.0
H237 H 0.69207 0.74767 0.42536 0.0
H238 H 0.8006 0.73282 0.4918 0.0
H239 H 0.77979 0.72425 0.57647 0.0
Pr240 Pr 0.50088 0.47205 0.94625 0.0
Pr241 Pr 0.51893 0.51711 0.06562 0.0
C242 C 0.47723 0.44852 0.84375 0.0
C243 C 0.47248 0.46188 0.7915 0.0
C244 C 0.46342 0.43798 0.74553 0.0
C245 C 0.46324 0.44912 0.69518 0.0
C246 C 0.47207 0.48451 0.68972 0.0
C247 C 0.48044 0.50858 0.73609 0.0
C248 C 0.48084 0.49734 0.78642 0.0
C249 C 0.56499 0.45084 0.99948 0.0
C250 C 0.5496 0.54779 0.96426 0.0
C251 C 0.5396 0.53674 0.16995 0.0
C252 C 0.52994 0.53248 0.22337 0.0
C253 C 0.53526 0.56145 0.26306 0.0
C254 C 0.5258 0.55894 0.31374 0.0
C255 C 0.51075 0.5273 0.32618 0.0
C256 C 0.50588 0.49798 0.28652 0.0
C257 C 0.51524 0.50059 0.23546 0.0
C258 C 0.46486 0.54329 0.99884 0.0
C259 C 0.46671 0.44201 0.04778 0.0
O260 O 0.45573 0.45925 0.87858 0.0
O261 O 0.51025 0.44709 0.86485 0.0
O262 O 0.54446 0.47401 0.01615 0.0
O263 O 0.55198 0.4369 0.95236 0.0
O264 O 0.55769 0.54507 1.01565 0.0
O265 O 0.52499 0.52699 0.93376 0.0
O266 O 0.55246 0.5095 0.1428 0.0
O267 O 0.51823 0.55522 0.14062 0.0
O268 O 0.47098 0.51074 1.00053 0.0
O269 O 0.48434 0.56319 0.03676 0.0
O270 O 0.47049 0.43657 0.99647 0.0
O271 O 0.48098 0.46997 0.07988 0.0
H272 H 0.45731 0.4104 0.74854 0.0
H273 H 0.45626 0.42996 0.66049 0.0
H274 H 0.48783 0.53592 0.73354 0.0
H275 H 0.48868 0.51608 0.82131 0.0
H276 H 0.54666 0.58624 0.25475 0.0
H277 H 0.53048 0.58187 0.34339 0.0
H278 H 0.49413 0.47332 0.2946 0.0
H279 H 0.51069 0.47787 0.2054 0.0
Pr280 Pr 0.01906 0.4882 0.5933 0.0
Pr281 Pr 0.98094 0.49055 0.47843 0.0
C282 C 0.05003 0.50116 0.69458 0.0
C283 C 0.04144 0.50508 0.74964 0.0
C284 C 0.01087 0.48873 0.76358 0.0
C285 C 1.00371 0.49254 0.81648 0.0
C286 C 0.02686 0.51301 0.8562 0.0
C287 C 0.05737 0.52935 0.84176 0.0
C288 C 0.06455 0.5254 0.78908 0.0
C289 C 0.97145 0.43165 0.55444 0.0
C290 C 0.94271 0.53036 0.57471 0.0
C291 C 0.95115 0.47812 0.3765 0.0
C292 C 0.9618 0.4827 0.32413 0.0
C293 C 0.99261 0.5028 0.32005 0.0
C294 C 1.00125 0.50938 0.27036 0.0
C295 C 0.9793 0.49589 0.2237 0.0
C296 C 0.94906 0.47475 0.22796 0.0
C297 C 0.94034 0.46832 0.27781 0.0
C298 C 0.02984 0.54628 0.51537 0.0
C299 C 0.05748 0.44881 0.4967 0.0
O300 O 0.03987 0.52628 0.66588 0.0
O301 O 0.04613 0.46943 0.66814 0.0
O302 O 0.96651 0.46359 0.54852 0.0
O303 O 1.00094 0.42814 0.58465 0.0
O304 O 0.93583 0.51132 0.52784 0.0
O305 O 0.97405 0.52964 0.60357 0.0
O306 O 0.96736 0.45382 0.4017 0.0
O307 O 0.94717 0.50736 0.40741 0.0
O308 O 0.03379 0.51451 0.52276 0.0
O309 O 1.00118 0.55 0.48356 0.0
O310 O 0.06431 0.46793 0.54357 0.0
O311 O 0.02573 0.44865 0.46862 0.0
H312 H 0.99258 0.47304 0.73361 0.0
H313 H 0.97982 0.47991 0.82617 0.0
H314 H 0.07603 0.54486 0.87137 0.0
H315 H 0.08835 0.53809 0.77918 0.0
H316 H 1.00963 0.51396 0.35542 0.0
H317 H 0.02503 0.52527 0.26847 0.0
H318 H 0.93148 0.46417 0.19289 0.0
H319 H 0.91643 0.45275 0.28023 0.0
H320 H 0.11562 0.09631 0.50969 0.0
H321 H 0.02351 0.08417 0.38931 0.0
H322 H 0.05294 0.12235 0.33605 0.0
H323 H 0.13655 0.19082 0.49364 0.0
H324 H 0.18408 0.18549 0.50315 0.0
H325 H 0.15516 0.159 0.53523 0.0
H326 H 0.18192 0.10201 0.49234 0.0
H327 H 0.21068 0.1283 0.45983 0.0
H328 H 0.18119 0.09459 0.42129 0.0
H329 H 0.09282 0.15603 0.29072 0.0
H330 H 0.14043 0.1893 0.2585 0.0
H331 H 0.20778 0.18438 0.40706 0.0
C332 C 0.10148 0.10237 0.47269 0.0
C333 C 0.06725 0.08684 0.45373 0.0
C334 C 0.04983 0.09521 0.40471 0.0
C335 C 0.06628 0.11706 0.37398 0.0
C336 C 0.10023 0.13098 0.39265 0.0
C337 C 0.11764 0.12461 0.44108 0.0
C338 C 0.15462 0.14261 0.45015 0.0
C339 C 0.15778 0.17118 0.49841 0.0
C340 C 0.18383 0.11524 0.45626 0.0
C341 C 0.15523 0.15915 0.39877 0.0
C342 C 0.12344 0.15187 0.36642 0.0
C343 C 0.11772 0.16237 0.31589 0.0
C344 C 0.14509 0.18107 0.29778 0.0
C345 C 0.17788 0.18953 0.33011 0.0
C346 C 0.1829 0.17857 0.38157 0.0
H347 H 0.07388 0.88902 0.52857 0.0
H348 H 0.10038 0.99275 0.61566 0.0
H349 H 0.1458 0.9662 0.6759 0.0
H350 H 0.08515 0.83761 0.63619 0.0
H351 H 0.10556 0.80147 0.59989 0.0
H352 H 0.07457 0.82865 0.56522 0.0
H353 H 0.12205 0.84253 0.50457 0.0
H354 H 0.15312 0.81525 0.5389 0.0
H355 H 0.16516 0.86072 0.53408 0.0
H356 H 0.18573 0.92636 0.73038 0.0
H357 H 0.22193 0.87873 0.76623 0.0
H358 H 0.17334 0.8033 0.63623 0.0
C359 C 0.08922 0.9062 0.56032 0.0
C360 C 0.083 0.94283 0.56841 0.0
C361 C 0.10414 0.96451 0.60965 0.0
C362 C 0.13006 0.94965 0.64387 0.0
C363 C 0.13513 0.91323 0.63529 0.0
C364 C 0.11577 0.89199 0.59371 0.0
C365 C 0.12728 0.85398 0.59117 0.0
C366 C 0.09629 0.82896 0.59858 0.0
C367 C 0.14283 0.84246 0.5391 0.0
C368 C 0.15584 0.85693 0.63826 0.0
C369 C 0.15971 0.89114 0.66382 0.0
C370 C 0.18327 0.89962 0.71014 0.0
C371 C 0.20358 0.87248 0.73035 0.0
C372 C 0.20068 0.83762 0.70352 0.0
C373 C 0.17652 0.82992 0.65697 0.0
H374 H 0.3386 0.85877 0.79918 0.0
H375 H 0.34309 0.76682 0.88508 0.0
H376 H 0.38361 0.79995 0.95755 0.0
H377 H 0.42895 0.88883 0.83417 0.0
H378 H 0.41861 0.93511 0.8413 0.0
H379 H 0.38984 0.90388 0.7968 0.0
H380 H 0.3363 0.92518 0.84606 0.0
H381 H 0.36544 0.95599 0.89105 0.0
H382 H 0.33865 0.92382 0.91658 0.0
H383 H 0.4274 0.84097 0.01656 0.0
H384 H 0.46792 0.88967 0.06267 0.0
H385 H 0.43086 0.95661 0.94279 0.0
C386 C 0.3481 0.84578 0.83338 0.0
C387 C 0.33813 0.8103 0.83658 0.0
C388 C 0.35059 0.79406 0.882 0.0
C389 C 0.37359 0.81261 0.9233 0.0
C390 C 0.38324 0.8475 0.91886 0.0
C391 C 0.37053 0.86415 0.87551 0.0
C392 C 0.38484 0.90198 0.88096 0.0
C393 C 0.40688 0.90775 0.83563 0.0
C394 C 0.35449 0.92829 0.88385 0.0
C395 C 0.40815 0.90366 0.93355 0.0
C396 C 0.40703 0.87187 0.95455 0.0
C397 C 0.4281 0.86622 1.00108 0.0
C398 C 0.45102 0.89388 0.02686 0.0
C399 C 0.45209 0.92674 1.00635 0.0
C400 C 0.43012 0.93179 0.95952 0.0
H401 H 0.46176 0.10605 0.13861 0.0
H402 H 0.38107 0.04861 0.02377 0.0
H403 H 0.33412 0.08237 0.06515 0.0
H404 H 0.41318 0.11075 0.25002 0.0
H405 H 0.42909 0.15503 0.27624 0.0
H406 H 0.45619 0.12657 0.23721 0.0
H407 H 0.45972 0.17393 0.17275 0.0
H408 H 0.43278 0.20262 0.21178 0.0
H409 H 0.41912 0.19068 0.14194 0.0
H410 H 0.29577 0.12085 0.1222 0.0
H411 H 0.26973 0.16378 0.18646 0.0
H412 H 0.37599 0.1975 0.26035 0.0
C413 C 0.43422 0.10056 0.1221 0.0
C414 C 0.42503 0.07459 0.07815 0.0
C415 C 0.38871 0.06846 0.05739 0.0
C416 C 0.36186 0.08741 0.08071 0.0
C417 C 0.37184 0.11265 0.12432 0.0
C418 C 0.40719 0.11951 0.1444 0.0
C419 C 0.41098 0.14833 0.191 0.0
C420 C 0.42838 0.13432 0.2416 0.0
C421 C 0.43188 0.18081 0.1786 0.0
C422 C 0.37221 0.15632 0.19452 0.0
C423 C 0.34997 0.13541 0.15591 0.0
C424 C 0.31297 0.13759 0.15227 0.0
C425 C 0.2984 0.16202 0.18882 0.0
C426 C 0.32085 0.18411 0.22789 0.0
C427 C 0.35817 0.18104 0.23071 0.0
H428 H 0.93504 0.95383 0.65633 0.0
H429 H 0.93565 0.89241 0.50197 0.0
H430 H 0.89966 0.8453 0.52968 0.0
H431 H 0.93848 0.87849 0.73392 0.0
H432 H 0.9081 0.89673 0.7785 0.0
H433 H 0.93568 0.92585 0.74851 0.0
H434 H 0.87956 0.95687 0.71089 0.0
H435 H 0.85183 0.92794 0.74086 0.0
H436 H 0.84386 0.93075 0.67064 0.0
H437 H 0.8638 0.80513 0.571 0.0
H438 H 0.82576 0.77423 0.62271 0.0
H439 H 0.84408 0.86007 0.75212 0.0
C440 C 0.92772 0.93035 0.6286 0.0
C441 C 0.93829 0.92699 0.57678 0.0
C442 C 0.92784 0.89593 0.54161 0.0
C443 C 0.90749 0.86879 0.55708 0.0
C444 C 0.89739 0.87289 0.60793 0.0
C445 C 0.90677 0.90283 0.64328 0.0
C446 C 0.8906 0.90052 0.69477 0.0
C447 C 0.91997 0.90039 0.74171 0.0
C448 C 0.86494 0.93082 0.70487 0.0
C449 C 0.87057 0.86475 0.68231 0.0
C450 C 0.87542 0.84942 0.63204 0.0
C451 C 0.85973 0.81684 0.61041 0.0
C452 C 0.83796 0.79949 0.64037 0.0
C453 C 0.83148 0.81461 0.69169 0.0
C454 C 0.84853 0.84764 0.71324 0.0
H455 H 0.94694 0.1245 0.50514 0.0
H456 H 0.91936 0.01905 0.42469 0.0
H457 H 0.87844 0.04474 0.35738 0.0
H458 H 0.85805 0.15842 0.48558 0.0
H459 H 0.87363 0.20215 0.47669 0.0
H460 H 0.90104 0.17533 0.51763 0.0
H461 H 0.95274 0.18215 0.46101 0.0
H462 H 0.92542 0.20886 0.4198 0.0
H463 H 0.94514 0.16969 0.3903 0.0
H464 H 0.84272 0.08276 0.29654 0.0
H465 H 0.81135 0.12933 0.25112 0.0
H466 H 0.85922 0.20934 0.37551 0.0
C467 C 0.93217 0.10678 0.47347 0.0
C468 C 0.93654 0.06977 0.46969 0.0
C469 C 0.91661 0.04746 0.42795 0.0
C470 C 0.89331 0.06184 0.38964 0.0
C471 C 0.88984 0.09853 0.39428 0.0
C472 C 0.9084 0.12065 0.43557 0.0
C473 C 0.89943 0.15908 0.43227 0.0
C474 C 0.882 0.17465 0.48093 0.0
C475 C 0.93266 0.18124 0.42543 0.0
C476 C 0.87301 0.1552 0.38251 0.0
C477 C 0.86812 0.12013 0.36081 0.0
C478 C 0.84607 0.11024 0.31351 0.0
C479 C 0.82846 0.13685 0.28792 0.0
C480 C 0.83258 0.17282 0.31011 0.0
C481 C 0.8551 0.18198 0.35809 0.0
H482 H 0.6478 0.22716 0.17999 0.0
H483 H 0.74393 0.16956 0.15606 0.0
H484 H 0.70966 0.12696 0.08847 0.0
H485 H 0.59148 0.15172 0.1722 0.0
H486 H 0.55312 0.17021 0.13793 0.0
H487 H 0.58573 0.19895 0.18007 0.0
H488 H 0.59392 0.23451 0.10166 0.0
H489 H 0.56141 0.20564 0.05917 0.0
H490 H 0.60542 0.21166 0.04041 0.0
H491 H 0.66568 0.08727 0.03245 0.0
H492 H 0.61285 0.05124 0.99052 0.0
H493 H 0.54393 0.13371 0.04689 0.0
C494 C 0.66158 0.20585 0.15982 0.0
C495 C 0.69852 0.20179 0.17271 0.0
C496 C 0.71569 0.17333 0.14634 0.0
C497 C 0.6965 0.14906 0.10774 0.0
C498 C 0.66014 0.15359 0.09599 0.0
C499 C 0.64268 0.18113 0.12112 0.0
C500 C 0.60284 0.17793 0.10379 0.0
C501 C 0.58209 0.17449 0.15132 0.0
C502 C 0.59016 0.20931 0.07451 0.0
C503 C 0.60072 0.14373 0.06631 0.0
C504 C 0.63425 0.13047 0.06219 0.0
C505 C 0.63932 0.09766 0.03425 0.0
C506 C 0.60925 0.07741 1.01071 0.0
C507 C 0.57471 0.09023 1.01485 0.0
C508 C 0.57027 0.12406 0.04192 0.0
H509 H 0.63431 0.81413 0.77359 0.0
H510 H 0.74179 0.85065 0.83776 0.0
H511 H 0.71735 0.8961 0.90007 0.0
H512 H 0.59689 0.9009 0.77806 0.0
H513 H 0.55463 0.88599 0.795 0.0
H514 H 0.58081 0.85598 0.75673 0.0
H515 H 0.57954 0.81163 0.82608 0.0
H516 H 0.55353 0.8416 0.86472 0.0
H517 H 0.59502 0.82617 0.89474 0.0
H518 H 0.68076 0.93621 0.95728 0.0
H519 H 0.63514 0.97137 0.99968 0.0
H520 H 0.55178 0.91057 0.89402 0.0
C521 C 0.65272 0.83174 0.8007 0.0
C522 C 0.68994 0.82865 0.80148 0.0
C523 C 0.71318 0.85235 0.83708 0.0
C524 C 0.69953 0.87822 0.87252 0.0
C525 C 0.66263 0.88029 0.87118 0.0
C526 C 0.63956 0.85797 0.83569 0.0
C527 C 0.60104 0.86628 0.84115 0.0
C528 C 0.58225 0.87799 0.78968 0.0
C529 C 0.58112 0.83453 0.85766 0.0
C530 C 0.60597 0.89674 0.88537 0.0
C531 C 0.64167 0.90419 0.90257 0.0
C532 C 0.65274 0.93075 0.94392 0.0
C533 C 0.62664 0.95045 0.9679 0.0
C534 C 0.58996 0.94376 0.94999 0.0
C535 C 0.57963 0.91647 0.90827 0.0
H536 H 0.6149 0.58543 0.99437 0.0
H537 H 0.5228 0.57316 0.87393 0.0
H538 H 0.55075 0.61412 0.82322 0.0
H539 H 0.63251 0.68106 0.98457 0.0
H540 H 0.68026 0.67738 0.99343 0.0
H541 H 0.65253 0.64848 0.02354 0.0
H542 H 0.68105 0.59388 0.97676 0.0
H543 H 0.70873 0.6226 0.94636 0.0
H544 H 0.68029 0.58894 0.90567 0.0
H545 H 0.58894 0.65156 0.78079 0.0
H546 H 0.6353 0.68766 0.75068 0.0
H547 H 0.70378 0.68015 0.89739 0.0
C548 C 0.60047 0.5919 0.9578 0.0
C549 C 0.56665 0.57562 0.93817 0.0
C550 C 0.54884 0.58466 0.88981 0.0
C551 C 0.56443 0.60815 0.86057 0.0
C552 C 0.59792 0.62298 0.88003 0.0
C553 C 0.61578 0.61571 0.92768 0.0
C554 C 0.65213 0.63499 0.93786 0.0
C555 C 0.65449 0.66209 0.98782 0.0
C556 C 0.68234 0.60852 0.94189 0.0
C557 C 0.65188 0.6534 0.88799 0.0
C558 C 0.62018 0.64591 0.85547 0.0
C559 C 0.61376 0.65801 0.8061 0.0
C560 C 0.64041 0.67837 0.78921 0.0
C561 C 0.67318 0.68685 0.82157 0.0
C562 C 0.67884 0.67444 0.87201 0.0
H563 H 0.68688 0.35432 0.21034 0.0
H564 H 0.75877 0.33658 0.09013 0.0
H565 H 0.72461 0.37701 0.03656 0.0
H566 H 0.60933 0.35202 0.12206 0.0
H567 H 0.58677 0.38581 0.15982 0.0
H568 H 0.61982 0.36006 0.19313 0.0
H569 H 0.65475 0.41766 0.23527 0.0
H570 H 0.62174 0.44365 0.20194 0.0
H571 H 0.66807 0.44907 0.19318 0.0
H572 H 0.67959 0.41224 0.99095 0.0
H573 H 0.62495 0.43962 0.95448 0.0
H574 H 0.58092 0.43642 0.10282 0.0
C575 C 0.69596 0.35981 0.17345 0.0
C576 C 0.72574 0.34258 0.15463 0.0
C577 C 0.73617 0.34954 0.10541 0.0
C578 C 0.71703 0.37264 0.07482 0.0
C579 C 0.68744 0.38865 0.09386 0.0
C580 C 0.67683 0.38265 0.142 0.0
C581 C 0.64183 0.40041 0.15034 0.0
C582 C 0.61273 0.37293 0.15669 0.0
C583 C 0.64691 0.42943 0.19802 0.0
C584 C 0.63395 0.41634 0.09863 0.0
C585 C 0.66099 0.40952 0.06711 0.0
C586 C 0.65863 0.41844 1.01564 0.0
C587 C 0.62753 0.43396 0.99526 0.0
C588 C 0.59927 0.44074 0.02629 0.0
C589 C 0.60276 0.43258 0.07908 0.0
H590 H 0.90975 0.4349 0.48882 0.0
H591 H 0.99008 0.36249 0.54142 0.0
H592 H 0.96209 0.31505 0.47413 0.0
H593 H 0.83505 0.3677 0.45728 0.0
H594 H 0.81625 0.38727 0.39987 0.0
H595 H 0.83966 0.4148 0.45596 0.0
H596 H 0.88241 0.43923 0.39597 0.0
H597 H 0.85883 0.41261 0.33939 0.0
H598 H 0.90623 0.40859 0.35462 0.0
H599 H 0.93123 0.27887 0.39356 0.0
H600 H 0.89619 0.2544 0.30909 0.0
H601 H 0.83422 0.34937 0.31103 0.0
C602 C 0.92084 0.40877 0.48703 0.0
C603 C 0.95192 0.40215 0.52019 0.0
C604 C 0.96607 0.36789 0.51651 0.0
C605 C 0.9504 0.34085 0.47845 0.0
C606 C 0.92035 0.34851 0.44519 0.0
C607 C 0.90534 0.38146 0.44965 0.0
C608 C 0.87432 0.38343 0.40702 0.0
C609 C 0.83923 0.38859 0.43148 0.0
C610 C 0.88087 0.4127 0.37223 0.0
C611 C 0.87528 0.347 0.37646 0.0
C612 C 0.90189 0.3272 0.39932 0.0
C613 C 0.9099 0.29384 0.37581 0.0
C614 C 0.89016 0.28036 0.32764 0.0
C615 C 0.8627 0.30018 0.30389 0.0
C616 C 0.85492 0.33368 0.32886 0.0
H617 H 0.86971 0.68997 0.75842 0.0
H618 H 0.76279 0.65742 0.68608 0.0
H619 H 0.78744 0.60859 0.62979 0.0
H620 H 0.91397 0.6714 0.64252 0.0
H621 H 0.95327 0.65513 0.67769 0.0
H622 H 0.92708 0.68769 0.71128 0.0
H623 H 0.92007 0.6464 0.78336 0.0
H624 H 0.94627 0.61372 0.75003 0.0
H625 H 0.90222 0.60188 0.76384 0.0
H626 H 0.82456 0.56421 0.57966 0.0
H627 H 0.87055 0.52597 0.54368 0.0
H628 H 0.95239 0.58627 0.65296 0.0
C629 C 0.85147 0.67255 0.73076 0.0
C630 C 0.81439 0.67761 0.72608 0.0
C631 C 0.79134 0.65416 0.68977 0.0
C632 C 0.80509 0.62635 0.65777 0.0
C633 C 0.84188 0.62219 0.66316 0.0
C634 C 0.86469 0.64448 0.69913 0.0
C635 C 0.90306 0.634 0.69816 0.0
C636 C 0.92567 0.66383 0.6814 0.0
C637 C 0.91882 0.62336 0.75204 0.0
C638 C 0.89836 0.60236 0.65592 0.0
C639 C 0.86295 0.59607 0.63583 0.0
C640 C 0.85233 0.56875 0.59537 0.0
C641 C 0.87862 0.54723 0.57511 0.0
C642 C 0.91497 0.55298 0.59581 0.0
C643 C 0.92477 0.58091 0.63675 0.0
H644 H 0.34569 0.36346 0.25008 0.0
H645 H 0.34054 0.26525 0.14327 0.0
H646 H 0.38085 0.29133 0.08916 0.0
H647 H 0.34569 0.42123 0.15132 0.0
H648 H 0.37731 0.45363 0.18838 0.0
H649 H 0.35016 0.42695 0.22279 0.0
H650 H 0.40684 0.40555 0.27534 0.0
H651 H 0.43415 0.4324 0.24131 0.0
H652 H 0.44136 0.38559 0.23989 0.0
H653 H 0.41653 0.32827 0.04112 0.0
H654 H 0.45032 0.37372 1.00503 0.0
H655 H 0.43603 0.44901 0.14192 0.0
C656 C 0.35372 0.34732 0.21598 0.0
C657 C 0.33961 0.31228 0.20096 0.0
C658 C 0.3505 0.29222 0.15554 0.0
C659 C 0.37358 0.30675 0.12441 0.0
C660 C 0.3861 0.34149 0.13905 0.0
C661 C 0.37712 0.36155 0.18402 0.0
C662 C 0.39385 0.39876 0.18897 0.0
C663 C 0.36503 0.42679 0.18778 0.0
C664 C 0.42064 0.40599 0.23938 0.0
C665 C 0.41274 0.39639 0.13925 0.0
C666 C 0.4078 0.36301 0.11127 0.0
C667 C 0.42101 0.35444 0.06293 0.0
C668 C 0.44004 0.38058 0.04256 0.0
C669 C 0.44601 0.41502 0.07046 0.0
C670 C 0.43223 0.42288 0.11974 0.0
H671 H 0.42225 0.5989 0.01971 0.0
H672 H 0.449 0.52245 0.8928 0.0
H673 H 0.40636 0.54893 0.82879 0.0
H674 H 0.32743 0.60362 0.97217 0.0
H675 H 0.32647 0.65059 0.99256 0.0
H676 H 0.35734 0.62377 0.02825 0.0
H677 H 0.40984 0.66458 1.01287 0.0
H678 H 0.37917 0.69142 0.97706 0.0
H679 H 0.41594 0.67214 0.94621 0.0
H680 H 0.36329 0.58698 0.77812 0.0
H681 H 0.32311 0.6323 0.74514 0.0
H682 H 0.32433 0.68366 0.90622 0.0
C683 C 0.41863 0.58743 0.97854 0.0
C684 C 0.43792 0.55772 0.96115 0.0
C685 C 0.43313 0.5439 0.90702 0.0
C686 C 0.40933 0.55921 0.87042 0.0
C687 C 0.39043 0.58838 0.88887 0.0
C688 C 0.39473 0.60225 0.94177 0.0
C689 C 0.37221 0.63442 0.95127 0.0
C690 C 0.3442 0.62768 0.98825 0.0
C691 C 0.3957 0.66759 0.97313 0.0
C692 C 0.35495 0.63683 0.89538 0.0
C693 C 0.36574 0.61007 0.85989 0.0
C694 C 0.35439 0.60783 0.80566 0.0
C695 C 0.3316 0.63372 0.78728 0.0
C696 C 0.3203 0.66142 0.82304 0.0
C697 C 0.33201 0.66261 0.87782 0.0
H698 H 0.18351 0.63996 0.72655 0.0
H699 H 0.17096 0.73384 0.64579 0.0
H700 H 0.12579 0.70171 0.57852 0.0
H701 H 0.1745 0.57701 0.60466 0.0
H702 H 0.15127 0.54406 0.63413 0.0
H703 H 0.18339 0.57427 0.67484 0.0
H704 H 0.13544 0.59424 0.7362 0.0
H705 H 0.10382 0.56364 0.69574 0.0
H706 H 0.09363 0.60982 0.7074 0.0
H707 H 0.07767 0.66115 0.52588 0.0
H708 H 0.03456 0.6128 0.48585 0.0
H709 H 0.08287 0.54415 0.59613 0.0
C710 C 0.17139 0.65356 0.69442 0.0
C711 C 0.18026 0.68929 0.69135 0.0
C712 C 0.16433 0.70636 0.64866 0.0
C713 C 0.13867 0.68839 0.61038 0.0
C714 C 0.13 0.65323 0.61492 0.0
C715 C 0.14637 0.63578 0.65524 0.0
C716 C 0.13249 0.59791 0.65089 0.0
C717 C 0.16218 0.57177 0.64049 0.0
C718 C 0.11531 0.59105 0.70051 0.0
C719 C 0.10494 0.59714 0.60286 0.0
C720 C 0.10375 0.62933 0.58279 0.0
C721 C 0.07874 0.63562 0.5406 0.0
C722 C 0.05435 0.60815 0.51829 0.0
C723 C 0.05565 0.57492 0.53792 0.0
C724 C 0.08148 0.56931 0.58026 0.0
H725 H 0.13761 0.30946 0.28856 0.0
H726 H 0.24315 0.35228 0.35175 0.0
H727 H 0.21656 0.39342 0.41796 0.0
H728 H 0.09359 0.39242 0.29995 0.0
H729 H 0.05311 0.37326 0.31685 0.0
H730 H 0.0809 0.3469 0.27612 0.0
H731 H 0.08471 0.30006 0.34228 0.0
H732 H 0.05713 0.32641 0.38341 0.0
H733 H 0.10033 0.31351 0.41119 0.0
H734 H 0.17755 0.42897 0.47866 0.0
H735 H 0.12975 0.45924 0.52316 0.0
H736 H 0.05022 0.39431 0.41611 0.0
C737 C 0.15519 0.32752 0.31626 0.0
C738 C 0.19248 0.32743 0.31561 0.0
C739 C 0.21454 0.35166 0.35213 0.0
C740 C 0.19965 0.37508 0.38978 0.0
C741 C 0.1627 0.37413 0.38975 0.0
C742 C 0.14079 0.35121 0.35345 0.0
C743 C 0.10189 0.35598 0.36036 0.0
C744 C 0.08116 0.36786 0.31035 0.0
C745 C 0.08504 0.32197 0.3752 0.0
C746 C 0.10518 0.38525 0.40625 0.0
C747 C 0.14043 0.39517 0.42314 0.0
C748 C 0.14988 0.42149 0.46556 0.0
C749 C 0.12257 0.43841 0.49074 0.0
C750 C 0.08629 0.42921 0.47295 0.0
C751 C 0.07769 0.4021 0.43041 0.0
H752 H 0.99465 0.98971 0.89565 0.0
H753 H 0.03503 0.09876 0.92193 0.0
H754 H 0.03297 0.09945 0.01792 0.0
H755 H 0.93464 0.99788 0.99592 0.0
H756 H 0.94334 0.95466 0.0159 0.0
H757 H 0.94747 0.96272 0.94887 0.0
H758 H 0.01236 0.94137 0.95863 0.0
H759 H 1.00844 0.93324 0.02569 0.0
H760 H 0.04392 0.96193 1.01236 0.0
H761 H 0.02783 0.08821 0.11139 0.0
H762 H 0.01986 0.06576 0.19587 0.0
H763 H 0.98191 0.9642 0.10969 0.0
C764 C 1.0032 0.01368 0.92159 0.0
C765 C 0.01472 0.0443 0.90091 0.0
C766 C 0.02544 0.07518 0.93643 0.0
C767 C 0.02459 0.07578 0.99118 0.0
C768 C 0.013 0.04528 1.01014 0.0
C769 C 1.00247 0.01479 0.97652 0.0
C770 C 0.9913 0.9856 1.0074 0.0
C771 C 0.95184 0.97458 0.99104 0.0
C772 C 0.01545 0.95365 1.00061 0.0
C773 C 0.99731 1.00446 0.06356 0.0
C774 C 1.00984 0.03886 0.06419 0.0
C775 C 0.01778 0.06138 0.11137 0.0
C776 C 0.01288 0.04842 0.15923 0.0
C777 C 1.00001 0.01322 0.15982 0.0
C778 C 0.99209 0.99112 0.11099 0.0
H779 H 0.28645 0.71208 0.36134 0.0
H780 H 0.22407 0.79777 0.42655 0.0
H781 H 0.20755 0.81419 0.33677 0.0
H782 H 0.32089 0.75966 0.26321 0.0
H783 H 0.31877 0.72151 0.21376 0.0
H784 H 0.3253 0.71588 0.28313 0.0
H785 H 0.27 0.6731 0.26997 0.0
H786 H 0.26335 0.67854 0.20055 0.0
H787 H 0.22779 0.68759 0.24091 0.0
H788 H 0.19818 0.82187 0.24051 0.0
H789 H 0.19589 0.81988 0.14353 0.0
H790 H 0.26477 0.72966 0.14003 0.0
C791 C 0.2695 0.73445 0.35685 0.0
C792 C 0.25642 0.75349 0.40121 0.0
C793 C 0.23394 0.78233 0.39329 0.0
C794 C 0.22462 0.79207 0.34243 0.0
C795 C 0.23803 0.77281 0.29975 0.0
C796 C 0.25997 0.74461 0.30632 0.0
C797 C 0.27073 0.72837 0.25365 0.0
C798 C 0.31133 0.73156 0.25345 0.0
C799 C 0.25714 0.6896 0.24051 0.0
C800 C 0.25136 0.75187 0.21649 0.0
C801 C 0.23269 0.77732 0.24401 0.0
C802 C 0.21258 0.80199 0.2185 0.0
C803 C 0.2113 0.8005 0.16333 0.0
C804 C 0.22994 0.77448 0.13402 0.0
C805 C 0.25045 0.75003 0.16127 0.0
H806 H 0.49073 0.9793 0.61041 0.0
H807 H 0.50439 0.09029 0.67429 0.0
H808 H 0.51698 0.1052 0.58692 0.0
H809 H 0.56037 0.97859 0.52596 0.0
H810 H 0.5364 0.94875 0.4731 0.0
H811 H 0.52818 0.94674 0.54063 0.0
H812 H 0.4609 0.9554 0.51405 0.0
H813 H 0.46893 0.95751 0.44644 0.0
H814 H 0.44706 0.99322 0.48133 0.0
H815 H 0.52805 0.10826 0.49281 0.0
H816 H 0.53792 0.09908 0.39858 0.0
H817 H 0.51736 0.98611 0.39527 0.0
C818 C 0.49612 1.00677 0.60591 0.0
C819 C 0.4967 0.03362 0.64939 0.0
C820 C 0.50431 0.06919 0.6419 0.0
C821 C 0.51125 0.07797 0.5923 0.0
C822 C 0.51053 0.05091 0.55039 0.0
C823 C 0.50324 0.01602 0.55662 0.0
C824 C 0.50466 0.99197 0.50522 0.0
C825 C 0.53416 0.96492 0.51163 0.0
C826 C 0.46821 0.97344 0.48561 0.0
C827 C 0.51379 0.01883 0.46913 0.0
C828 C 0.51703 0.05266 0.49603 0.0
C829 C 0.52567 0.08187 0.47136 0.0
C830 C 0.53141 0.07636 0.41787 0.0
C831 C 0.52855 0.04188 0.38944 0.0
C832 C 0.51937 0.01284 0.41562 0.0
H833 H 0.22629 0.27338 0.87714 0.0
H834 H 0.29438 0.18572 0.90888 0.0
H835 H 0.31198 0.18284 0.81857 0.0
H836 H 0.19486 0.2408 0.74161 0.0
H837 H 0.19487 0.28395 0.71907 0.0
H838 H 0.1881 0.27964 0.78658 0.0
H839 H 0.24111 0.32379 0.82048 0.0
H840 H 0.24797 0.32832 0.75308 0.0
H841 H 0.28408 0.31523 0.79849 0.0
H842 H 0.32161 0.18892 0.72415 0.0
H843 H 0.32349 0.20426 0.63339 0.0
H844 H 0.2489 0.28777 0.6625 0.0
C845 C 0.24476 0.25342 0.86507 0.0
C846 C 0.25897 0.2298 0.9004 0.0
C847 C 0.28347 0.20445 0.88302 0.0
C848 C 0.29345 0.20244 0.8316 0.0
C849 C 0.27879 0.22598 0.79781 0.0
C850 C 0.25505 0.25108 0.81387 0.0
C851 C 0.24334 0.27337 0.76987 0.0
C852 C 0.20289 0.26917 0.75331 0.0
C853 C 0.25482 0.31249 0.78648 0.0
C854 C 0.26397 0.25671 0.72639 0.0
C855 C 0.28432 0.22947 0.74341 0.0
C856 C 0.30587 0.21028 0.7105 0.0
C857 C 0.30689 0.21931 0.65903 0.0
C858 C 0.28644 0.24729 0.64068 0.0
C859 C 0.26455 0.26601 0.675 0.0
H860 H 0.7776 0.21945 0.831 0.0
H861 H 0.85263 0.30494 0.89967 0.0
H862 H 0.85708 0.32183 0.81031 0.0
H863 H 0.81831 0.19596 0.7113 0.0
H864 H 0.77629 0.18689 0.67019 0.0
H865 H 0.7801 0.18069 0.73933 0.0
H866 H 0.72793 0.22286 0.75285 0.0
H867 H 0.72388 0.22907 0.68376 0.0
H868 H 0.73043 0.26692 0.73383 0.0
H869 H 0.85238 0.33008 0.71312 0.0
H870 H 0.83703 0.33041 0.61647 0.0
H871 H 0.76441 0.24016 0.61209 0.0
C872 C 0.79482 0.24187 0.8274 0.0
C873 C 0.81484 0.26079 0.8725 0.0
C874 C 0.83742 0.28968 0.86573 0.0
C875 C 0.84002 0.29957 0.81513 0.0
C876 C 0.81993 0.28031 0.7716 0.0
C877 C 0.7977 0.25212 0.77727 0.0
C878 C 0.77836 0.23622 0.7243 0.0
C879 C 0.78891 0.19766 0.71048 0.0
C880 C 0.73774 0.23895 0.72367 0.0
C881 C 0.79272 0.26024 0.68803 0.0
C882 C 0.81694 0.28528 0.71593 0.0
C883 C 0.83355 0.3105 0.69085 0.0
C884 C 0.82483 0.31036 0.63592 0.0
C885 C 0.79953 0.28534 0.60677 0.0
C886 C 0.78362 0.25981 0.63335 0.0
H887 H 0.7163 0.71991 0.34918 0.0
H888 H 0.80849 0.7783 0.43763 0.0
H889 H 0.82944 0.79047 0.35371 0.0
H890 H 0.76034 0.68099 0.23973 0.0
H891 H 0.72297 0.6855 0.19055 0.0
H892 H 0.7156 0.68036 0.25756 0.0
H893 H 0.68055 0.73836 0.263 0.0
H894 H 0.68782 0.74367 0.19601 0.0
H895 H 0.70133 0.77865 0.2489 0.0
H896 H 0.83987 0.79759 0.26044 0.0
H897 H 0.83902 0.79938 0.16438 0.0
H898 H 0.73988 0.73681 0.13566 0.0
C899 C 0.74081 0.73543 0.35105 0.0
C900 C 0.76081 0.74791 0.40038 0.0
C901 C 0.79296 0.76779 0.40062 0.0
C902 C 0.80499 0.77509 0.35307 0.0
C903 C 0.78461 0.76245 0.30536 0.0
C904 C 0.75318 0.74307 0.30391 0.0
C905 C 0.73608 0.73304 0.24724 0.0
C906 C 0.73362 0.69257 0.23294 0.0
C907 C 0.69927 0.74941 0.23827 0.0
C908 C 0.76278 0.74991 0.21708 0.0
C909 C 0.79058 0.76666 0.25143 0.0
C910 C 0.81835 0.78436 0.23314 0.0
C911 C 0.81774 0.78499 0.17834 0.0
C912 C 0.78956 0.76799 0.14209 0.0
C913 C 0.76172 0.75025 0.1621 0.0
H914 H 0.49858 0.44917 0.60246 0.0
H915 H 0.44798 0.54645 0.6553 0.0
H916 H 0.45082 0.56677 0.56772 0.0
H917 H 0.5588 0.48818 0.52637 0.0
H918 H 0.55567 0.45154 0.47426 0.0
H919 H 0.54873 0.44402 0.54054 0.0
H920 H 0.4869 0.41454 0.50507 0.0
H921 H 0.49364 0.422 0.43864 0.0
H922 H 0.45468 0.43851 0.46662 0.0
H923 H 0.46003 0.57718 0.47509 0.0
H924 H 0.47578 0.57751 0.38434 0.0
H925 H 0.52055 0.47353 0.39035 0.0
C926 C 0.48766 0.47455 0.59543 0.0
C927 C 0.47302 0.4962 0.63606 0.0
C928 C 0.45967 0.52953 0.62526 0.0
C929 C 0.46096 0.54121 0.57544 0.0
C930 C 0.47569 0.51934 0.53652 0.0
C931 C 0.48883 0.48671 0.54585 0.0
C932 C 0.50416 0.46881 0.4975 0.0
C933 C 0.54422 0.46279 0.51046 0.0
C934 C 0.48361 0.4339 0.47567 0.0
C935 C 0.49767 0.49653 0.45959 0.0
C936 C 0.48114 0.52541 0.48298 0.0
C937 C 0.47298 0.55471 0.45643 0.0
C938 C 0.48224 0.55471 0.4049 0.0
C939 C 0.49961 0.52566 0.38007 0.0
C940 C 0.50701 0.49601 0.40787 0.0
H941 H 1.00301 0.46254 0.91421 0.0
H942 H 0.03397 0.57393 0.92573 0.0
H943 H 0.0246 0.5815 0.02013 0.0
H944 H 0.93351 0.47371 1.00174 0.0
H945 H 0.94357 0.43361 0.03088 0.0
H946 H 0.95191 0.437 0.96372 0.0
H947 H 0.01784 0.42147 0.98774 0.0
H948 H 1.00974 0.41817 0.05498 0.0
H949 H 0.04459 0.44772 0.04197 0.0
H950 H 0.01354 0.57691 0.11361 0.0
H951 H 1.00021 0.56072 0.19992 0.0
H952 H 0.97592 0.45235 0.12861 0.0
C953 C 1.00736 0.48862 0.93641 0.0
C954 C 0.01941 0.51762 0.91249 0.0
C955 C 0.02526 0.5512 0.94325 0.0
C956 C 0.01981 0.55583 0.99687 0.0
C957 C 1.0084 0.52665 0.01934 0.0
C958 C 1.00208 0.49372 0.99014 0.0
C959 C 0.9905 0.46665 0.02434 0.0
C960 C 0.95262 0.45188 1.00395 0.0
C961 C 0.01727 0.43674 0.02743 0.0
C962 C 0.99143 0.48951 0.07731 0.0
C963 C 1.00185 0.52402 0.07344 0.0
C964 C 1.00532 0.54997 0.11713 0.0
C965 C 0.99793 0.54044 0.1661 0.0
C966 C 0.98717 0.50524 0.17123 0.0
C967 C 0.98378 0.47954 0.12596 0.0
loop_
_geom_bond_atom_site_label_1
_geom_bond_atom_site_label_2
_geom_bond_distance
_geom_bond_site_symmetry_2
_ccdc_geom_bond_type
Pr0 C2 2.880 1_655 S
Pr0 O20 2.562 . S
Pr0 O21 2.490 1_655 S
Pr0 O22 2.695 1_655 S
Pr0 O23 2.512 1_655 S
Pr0 O25 2.437 1_665 S
Pr0 O28 2.436 1_565 S
Pr0 O30 2.438 . S
Pr1 C11 2.880 1_455 S
Pr1 O22 2.436 1_545 S
Pr1 O24 2.438 . S
Pr1 O26 2.562 . S
Pr1 O27 2.490 1_455 S
Pr1 O28 2.695 1_455 S
Pr1 O29 2.512 1_455 S
Pr1 O31 2.437 1_445 S
C2 Pr0 2.880 1_455 S
C2 C3 1.491 . S
C2 O20 1.254 1_455 S
C2 O21 1.225 . S
C3 C2 1.491 . S
C3 C4 1.392 . S
C3 C8 1.354 . S
C4 C3 1.392 . S
C4 C5 1.368 . S
C4 H32 0.929 . S
C5 C4 1.368 . S
C5 C6 1.386 . S
C5 H33 0.929 . S
C6 C5 1.386 . S
C6 C7 1.369 1_565 S
C7 C6 1.369 1_545 S
C7 C8 1.408 1_545 S
C7 H34 0.936 . S
C8 C3 1.354 . S
C8 C7 1.408 1_565 S
C8 H35 0.931 1_465 S
C9 O22 1.270 . S
C9 O23 1.248 . S
C10 O24 1.267 . S
C10 O25 1.278 . S
C11 Pr1 2.880 1_655 S
C11 C12 1.491 . S
C11 O26 1.254 1_655 S
C11 O27 1.225 . S
C12 C11 1.491 . S
C12 C13 1.392 . S
C12 C17 1.360 . S
C13 C12 1.392 . S
C13 C14 1.368 . S
C13 H36 0.929 . S
C14 C13 1.368 . S
C14 C15 1.386 . S
C14 H37 0.929 . S
C15 C14 1.386 . S
C15 C16 1.374 1_545 S
C16 C15 1.374 1_565 S
C16 C17 1.408 1_565 S
C16 H38 0.929 . S
C17 C12 1.360 . S
C17 C16 1.408 1_545 S
C17 H39 0.926 1_645 S
C18 O28 1.270 . S
C18 O29 1.248 . S
C19 O30 1.267 . S
C19 O31 1.278 . S
O20 Pr0 2.562 . S
O20 C2 1.254 1_655 S
O21 Pr0 2.490 1_455 S
O21 C2 1.225 . S
O22 Pr0 2.695 1_455 S
O22 Pr1 2.436 1_565 S
O22 C9 1.270 . S
O23 Pr0 2.512 1_455 S
O23 C9 1.248 . S
O24 Pr1 2.438 . S
O24 C10 1.267 . S
O25 Pr0 2.437 1_445 S
O25 C10 1.278 . S
O26 Pr1 2.562 . S
O26 C11 1.254 1_455 S
O27 Pr1 2.490 1_655 S
O27 C11 1.225 . S
O28 Pr0 2.436 1_545 S
O28 Pr1 2.695 1_655 S
O28 C18 1.270 . S
O29 Pr1 2.512 1_655 S
O29 C18 1.248 . S
O30 Pr0 2.438 . S
O30 C19 1.267 . S
O31 Pr1 2.437 1_665 S
O31 C19 1.278 . S
H32 C4 0.929 . S
H33 C5 0.929 . S
H34 C7 0.936 . S
H35 C8 0.931 1_645 S
H36 C13 0.929 . S
H37 C14 0.929 . S
H38 C16 0.929 . S
H39 C17 0.926 1_465 S
Pr40 C42 2.880 . S
Pr40 O60 2.562 . S
Pr40 O61 2.490 . S
Pr40 O62 2.695 . S
Pr40 O63 2.512 . S
Pr40 O65 2.437 . S
Pr40 O68 2.436 . S
Pr40 O70 2.438 . S
Pr41 C51 2.880 . S
Pr41 O62 2.436 . S
Pr41 O64 2.438 . S
Pr41 O66 2.562 . S
Pr41 O67 2.490 . S
Pr41 O68 2.695 . S
Pr41 O69 2.512 . S
Pr41 O71 2.437 . S
C42 Pr40 2.880 . S
C42 C43 1.491 . S
C42 O60 1.254 . S
C42 O61 1.225 . S
C43 C42 1.491 . S
C43 C44 1.392 . S
C43 C48 1.356 . S
C44 C43 1.392 . S
C44 C45 1.368 . S
C44 H72 0.929 . S
C45 C44 1.368 . S
C45 C46 1.386 . S
C45 H73 0.929 . S
C46 C45 1.386 . S
C46 C47 1.373 . S
C47 C46 1.373 . S
C47 C48 1.409 . S
C47 H74 0.931 . S
C48 C43 1.356 . S
C48 C47 1.409 . S
C48 H75 0.930 . S
C49 O62 1.270 . S
C49 O63 1.248 . S
C50 O64 1.267 . S
C50 O65 1.278 . S
C51 Pr41 2.880 . S
C51 C52 1.491 . S
C51 O66 1.254 . S
C51 O67 1.225 . S
C52 C51 1.491 . S
C52 C53 1.392 . S
C52 C57 1.352 1_556 S
C53 C52 1.392 . S
C53 C54 1.368 1_556 S
C53 H76 0.929 . S
C54 C53 1.368 1_554 S
C54 C55 1.386 . S
C54 H77 0.929 . S
C55 C54 1.386 . S
C55 C56 1.373 . S
C56 C55 1.373 . S
C56 C57 1.417 . S
C56 H78 0.931 . S
C57 C52 1.352 1_554 S
C57 C56 1.417 . S
C57 H79 0.926 1_554 S
C58 O68 1.270 . S
C58 O69 1.248 . S
C59 O70 1.267 . S
C59 O71 1.278 . S
O60 Pr40 2.562 . S
O60 C42 1.254 . S
O61 Pr40 2.490 . S
O61 C42 1.225 . S
O62 Pr40 2.695 . S
O62 Pr41 2.436 . S
O62 C49 1.270 . S
O63 Pr40 2.512 . S
O63 C49 1.248 . S
O64 Pr41 2.438 . S
O64 C50 1.267 . S
O65 Pr40 2.437 . S
O65 C50 1.278 . S
O66 Pr41 2.562 . S
O66 C51 1.254 . S
O67 Pr41 2.490 . S
O67 C51 1.225 . S
O68 Pr40 2.436 . S
O68 Pr41 2.695 . S
O68 C58 1.270 . S
O69 Pr41 2.512 . S
O69 C58 1.248 . S
O70 Pr40 2.438 . S
O70 C59 1.267 . S
O71 Pr41 2.437 . S
O71 C59 1.278 . S
H72 C44 0.929 . S
H73 C45 0.929 . S
H74 C47 0.931 . S
H75 C48 0.930 . S
H76 C53 0.929 . S
H77 C54 0.929 . S
H78 C56 0.931 . S
H79 C57 0.926 1_556 S
Pr80 C82 2.880 . S
Pr80 O100 2.562 1_565 S
Pr80 O101 2.490 . S
Pr80 O102 2.695 1_554 S
Pr80 O103 2.512 . S
Pr80 O105 2.437 1_565 S
Pr80 O108 2.436 1_565 S
Pr80 O110 2.438 1_554 S
Pr81 C91 2.880 . S
Pr81 O102 2.436 1_545 S
Pr81 O104 2.438 1_556 S
Pr81 O106 2.562 1_545 S
Pr81 O107 2.490 . S
Pr81 O108 2.695 1_556 S
Pr81 O109 2.512 . S
Pr81 O111 2.437 1_545 S
C82 Pr80 2.880 . S
C82 C83 1.491 . S
C82 O100 1.254 1_565 S
C82 O101 1.225 . S
C83 C82 1.491 . S
C83 C84 1.392 . S
C83 C88 1.356 1_565 S
C84 C83 1.392 . S
C84 C85 1.368 . S
C84 H112 0.929 . S
C85 C84 1.368 . S
C85 C86 1.389 . S
C85 H113 0.929 . S
C86 C85 1.389 . S
C86 C87 1.370 1_565 S
C87 C86 1.370 1_545 S
C87 C88 1.409 . S
C87 H114 0.931 . S
C88 C83 1.356 1_545 S
C88 C87 1.409 . S
C88 H115 0.930 . S
C89 O102 1.270 . S
C89 O103 1.248 1_556 S
C90 O104 1.267 . S
C90 O105 1.278 . S
C91 Pr81 2.880 . S
C91 C92 1.491 . S
C91 O106 1.254 1_545 S
C91 O107 1.225 . S
C92 C91 1.491 . S
C92 C93 1.392 . S
C92 C97 1.356 1_545 S
C93 C92 1.392 . S
C93 C94 1.368 . S
C93 H116 0.929 . S
C94 C93 1.368 . S
C94 C95 1.395 . S
C94 H117 0.929 . S
C95 C94 1.395 . S
C95 C96 1.364 1_545 S
C96 C95 1.364 1_565 S
C96 C97 1.409 . S
C96 H118 0.931 . S
C97 C92 1.356 1_565 S
C97 C96 1.409 . S
C97 H119 0.930 . S
C98 O108 1.270 . S
C98 O109 1.248 1_554 S
C99 O110 1.267 . S
C99 O111 1.278 . S
O100 Pr80 2.562 1_545 S
O100 C82 1.254 1_545 S
O101 Pr80 2.490 . S
O101 C82 1.225 . S
O102 Pr80 2.695 1_556 S
O102 Pr81 2.436 1_565 S
O102 C89 1.270 . S
O103 Pr80 2.512 . S
O103 C89 1.248 1_554 S
O104 Pr81 2.438 1_554 S
O104 C90 1.267 . S
O105 Pr80 2.437 1_545 S
O105 C90 1.278 . S
O106 Pr81 2.562 1_565 S
O106 C91 1.254 1_565 S
O107 Pr81 2.490 . S
O107 C91 1.225 . S
O108 Pr80 2.436 1_545 S
O108 Pr81 2.695 1_554 S
O108 C98 1.270 . S
O109 Pr81 2.512 . S
O109 C98 1.248 1_556 S
O110 Pr80 2.438 1_556 S
O110 C99 1.267 . S
O111 Pr81 2.437 1_565 S
O111 C99 1.278 . S
H112 C84 0.929 . S
H113 C85 0.929 . S
H114 C87 0.931 . S
H115 C88 0.930 . S
H116 C93 0.929 . S
H117 C94 0.929 . S
H118 C96 0.931 . S
H119 C97 0.930 . S
Pr120 C122 2.880 . S
Pr120 O140 2.562 . S
Pr120 O141 2.490 . S
Pr120 O142 2.695 . S
Pr120 O143 2.512 . S
Pr120 O145 2.437 . S
Pr120 O148 2.436 . S
Pr120 O150 2.438 . S
Pr121 C131 2.880 . S
Pr121 O142 2.436 . S
Pr121 O144 2.438 . S
Pr121 O146 2.562 . S
Pr121 O147 2.490 . S
Pr121 O148 2.695 . S
Pr121 O149 2.512 . S
Pr121 O151 2.437 . S
C122 Pr120 2.880 . S
C122 C123 1.491 . S
C122 O140 1.254 . S
C122 O141 1.225 . S
C123 C122 1.491 . S
C123 C124 1.392 . S
C123 C128 1.356 . S
C124 C123 1.392 . S
C124 C125 1.368 . S
C124 H152 0.929 . S
C125 C124 1.368 . S
C125 C126 1.386 . S
C125 H153 0.929 . S
C126 C125 1.386 . S
C126 C127 1.373 . S
C127 C126 1.373 . S
C127 C128 1.409 . S
C127 H154 0.931 . S
C128 C123 1.356 . S
C128 C127 1.409 . S
C128 H155 0.930 . S
C129 O142 1.270 . S
C129 O143 1.248 . S
C130 O144 1.267 . S
C130 O145 1.278 . S
C131 Pr121 2.880 . S
C131 C132 1.491 . S
C131 O146 1.254 . S
C131 O147 1.225 . S
C132 C131 1.491 . S
C132 C133 1.392 . S
C132 C137 1.356 . S
C133 C132 1.392 . S
C133 C134 1.368 1_554 S
C133 H156 0.929 . S
C134 C133 1.368 1_556 S
C134 C135 1.386 . S
C134 H157 0.929 . S
C135 C134 1.386 . S
C135 C136 1.373 . S
C136 C135 1.373 . S
C136 C137 1.409 1_556 S
C136 H158 0.931 . S
C137 C132 1.356 . S
C137 C136 1.409 1_554 S
C137 H159 0.930 . S
C138 O148 1.270 . S
C138 O149 1.248 . S
C139 O150 1.267 . S
C139 O151 1.278 . S
O140 Pr120 2.562 . S
O140 C122 1.254 . S
O141 Pr120 2.490 . S
O141 C122 1.225 . S
O142 Pr120 2.695 . S
O142 Pr121 2.436 . S
O142 C129 1.270 . S
O143 Pr120 2.512 . S
O143 C129 1.248 . S
O144 Pr121 2.438 . S
O144 C130 1.267 . S
O145 Pr120 2.437 . S
O145 C130 1.278 . S
O146 Pr121 2.562 . S
O146 C131 1.254 . S
O147 Pr121 2.490 . S
O147 C131 1.225 . S
O148 Pr120 2.436 . S
O148 Pr121 2.695 . S
O148 C138 1.270 . S
O149 Pr121 2.512 . S
O149 C138 1.248 . S
O150 Pr120 2.438 . S
O150 C139 1.267 . S
O151 Pr121 2.437 . S
O151 C139 1.278 . S
H152 C124 0.929 . S
H153 C125 0.929 . S
H154 C127 0.931 . S
H155 C128 0.930 . S
H156 C133 0.929 . S
H157 C134 0.929 . S
H158 C136 0.931 . S
H159 C137 0.930 . S
Pr160 C162 2.880 . S
Pr160 O180 2.562 . S
Pr160 O181 2.490 . S
Pr160 O182 2.695 . S
Pr160 O183 2.512 . S
Pr160 O185 2.437 . S
Pr160 O188 2.436 . S
Pr160 O190 2.438 . S
Pr161 C171 2.880 . S
Pr161 O182 2.436 . S
Pr161 O184 2.438 . S
Pr161 O186 2.562 . S
Pr161 O187 2.490 . S
Pr161 O188 2.695 . S
Pr161 O189 2.512 . S
Pr161 O191 2.437 . S
C162 Pr160 2.880 . S
C162 C163 1.491 . S
C162 O180 1.254 . S
C162 O181 1.225 . S
C163 C162 1.491 . S
C163 C164 1.392 . S
C163 C168 1.353 1_554 S
C164 C163 1.392 . S
C164 C165 1.368 1_554 S
C164 H192 0.929 . S
C165 C164 1.368 1_556 S
C165 C166 1.386 . S
C165 H193 0.929 . S
C166 C165 1.386 . S
C166 C167 1.373 . S
C167 C166 1.373 . S
C167 C168 1.415 . S
C167 H194 0.931 . S
C168 C163 1.353 1_556 S
C168 C167 1.415 . S
C168 H195 0.927 1_556 S
C169 O182 1.270 . S
C169 O183 1.248 . S
C170 O184 1.267 . S
C170 O185 1.278 . S
C171 Pr161 2.880 . S
C171 C172 1.491 . S
C171 O186 1.254 . S
C171 O187 1.225 . S
C172 C171 1.491 . S
C172 C173 1.392 . S
C172 C177 1.356 . S
C173 C172 1.392 . S
C173 C174 1.368 . S
C173 H196 0.929 . S
C174 C173 1.368 . S
C174 C175 1.386 . S
C174 H197 0.929 . S
C175 C174 1.386 . S
C175 C176 1.373 . S
C176 C175 1.373 . S
C176 C177 1.409 . S
C176 H198 0.931 . S
C177 C172 1.356 . S
C177 C176 1.409 . S
C177 H199 0.930 . S
C178 O188 1.270 . S
C178 O189 1.248 . S
C179 O190 1.267 . S
C179 O191 1.278 . S
O180 Pr160 2.562 . S
O180 C162 1.254 . S
O181 Pr160 2.490 . S
O181 C162 1.225 . S
O182 Pr160 2.695 . S
O182 Pr161 2.436 . S
O182 C169 1.270 . S
O183 Pr160 2.512 . S
O183 C169 1.248 . S
O184 Pr161 2.438 . S
O184 C170 1.267 . S
O185 Pr160 2.437 . S
O185 C170 1.278 . S
O186 Pr161 2.562 . S
O186 C171 1.254 . S
O187 Pr161 2.490 . S
O187 C171 1.225 . S
O188 Pr160 2.436 . S
O188 Pr161 2.695 . S
O188 C178 1.270 . S
O189 Pr161 2.512 . S
O189 C178 1.248 . S
O190 Pr160 2.438 . S
O190 C179 1.267 . S
O191 Pr161 2.437 . S
O191 C179 1.278 . S
H192 C164 0.929 . S
H193 C165 0.929 . S
H194 C167 0.931 . S
H195 C168 0.927 1_554 S
H196 C173 0.929 . S
H197 C174 0.929 . S
H198 C176 0.931 . S
H199 C177 0.930 . S
Pr200 C202 2.880 . S
Pr200 O220 2.562 . S
Pr200 O221 2.490 . S
Pr200 O222 2.695 . S
Pr200 O223 2.512 . S
Pr200 O225 2.437 . S
Pr200 O228 2.436 . S
Pr200 O230 2.438 . S
Pr201 C211 2.880 . S
Pr201 O222 2.436 . S
Pr201 O224 2.438 . S
Pr201 O226 2.562 . S
Pr201 O227 2.490 . S
Pr201 O228 2.695 . S
Pr201 O229 2.512 . S
Pr201 O231 2.437 . S
C202 Pr200 2.880 . S
C202 C203 1.491 . S
C202 O220 1.254 . S
C202 O221 1.225 . S
C203 C202 1.491 . S
C203 C204 1.392 . S
C203 C208 1.356 . S
C204 C203 1.392 . S
C204 C205 1.368 1_556 S
C204 H232 0.929 . S
C205 C204 1.368 1_554 S
C205 C206 1.386 . S
C205 H233 0.929 . S
C206 C205 1.386 . S
C206 C207 1.373 . S
C207 C206 1.373 . S
C207 C208 1.409 1_554 S
C207 H234 0.931 . S
C208 C203 1.356 . S
C208 C207 1.409 1_556 S
C208 H235 0.930 . S
C209 O222 1.270 . S
C209 O223 1.248 . S
C210 O224 1.267 . S
C210 O225 1.278 . S
C211 Pr201 2.880 . S
C211 C212 1.491 . S
C211 O226 1.254 . S
C211 O227 1.225 . S
C212 C211 1.491 . S
C212 C213 1.392 . S
C212 C217 1.356 . S
C213 C212 1.392 . S
C213 C214 1.368 . S
C213 H236 0.929 . S
C214 C213 1.368 . S
C214 C215 1.386 . S
C214 H237 0.929 . S
C215 C214 1.386 . S
C215 C216 1.373 . S
C216 C215 1.373 . S
C216 C217 1.409 . S
C216 H238 0.931 . S
C217 C212 1.356 . S
C217 C216 1.409 . S
C217 H239 0.930 . S
C218 O228 1.270 . S
C218 O229 1.248 . S
C219 O230 1.267 . S
C219 O231 1.278 . S
O220 Pr200 2.562 . S
O220 C202 1.254 . S
O221 Pr200 2.490 . S
O221 C202 1.225 . S
O222 Pr200 2.695 . S
O222 Pr201 2.436 . S
O222 C209 1.270 . S
O223 Pr200 2.512 . S
O223 C209 1.248 . S
O224 Pr201 2.438 . S
O224 C210 1.267 . S
O225 Pr200 2.437 . S
O225 C210 1.278 . S
O226 Pr201 2.562 . S
O226 C211 1.254 . S
O227 Pr201 2.490 . S
O227 C211 1.225 . S
O228 Pr200 2.436 . S
O228 Pr201 2.695 . S
O228 C218 1.270 . S
O229 Pr201 2.512 . S
O229 C218 1.248 . S
O230 Pr200 2.438 . S
O230 C219 1.267 . S
O231 Pr201 2.437 . S
O231 C219 1.278 . S
H232 C204 0.929 . S
H233 C205 0.929 . S
H234 C207 0.931 . S
H235 C208 0.930 . S
H236 C213 0.929 . S
H237 C214 0.929 . S
H238 C216 0.931 . S
H239 C217 0.930 . S
Pr240 C242 2.880 . S
Pr240 O260 2.562 . S
Pr240 O261 2.490 . S
Pr240 O262 2.695 1_556 S
Pr240 O263 2.512 . S
Pr240 O265 2.437 . S
Pr240 O268 2.436 . S
Pr240 O270 2.438 . S
Pr241 C251 2.880 . S
Pr241 O262 2.436 . S
Pr241 O264 2.438 . S
Pr241 O266 2.562 . S
Pr241 O267 2.490 . S
Pr241 O268 2.695 1_554 S
Pr241 O269 2.512 . S
Pr241 O271 2.437 . S
C242 Pr240 2.880 . S
C242 C243 1.491 . S
C242 O260 1.254 . S
C242 O261 1.225 . S
C243 C242 1.491 . S
C243 C244 1.392 . S
C243 C248 1.356 . S
C244 C243 1.392 . S
C244 C245 1.368 . S
C244 H272 0.929 . S
C245 C244 1.368 . S
C245 C246 1.386 . S
C245 H273 0.929 . S
C246 C245 1.386 . S
C246 C247 1.373 . S
C247 C246 1.373 . S
C247 C248 1.409 . S
C247 H274 0.931 . S
C248 C243 1.356 . S
C248 C247 1.409 . S
C248 H275 0.930 . S
C249 O262 1.270 . S
C249 O263 1.248 1_554 S
C250 O264 1.267 1_556 S
C250 O265 1.278 . S
C251 Pr241 2.880 . S
C251 C252 1.491 . S
C251 O266 1.254 . S
C251 O267 1.225 . S
C252 C251 1.491 . S
C252 C253 1.392 . S
C252 C257 1.356 . S
C253 C252 1.392 . S
C253 C254 1.368 . S
C253 H276 0.929 . S
C254 C253 1.368 . S
C254 C255 1.386 . S
C254 H277 0.929 . S
C255 C254 1.386 . S
C255 C256 1.373 . S
C256 C255 1.373 . S
C256 C257 1.409 . S
C256 H278 0.931 . S
C257 C252 1.356 . S
C257 C256 1.409 . S
C257 H279 0.930 . S
C258 O268 1.270 . S
C258 O269 1.248 1_556 S
C259 O270 1.267 1_554 S
C259 O271 1.278 . S
O260 Pr240 2.562 . S
O260 C242 1.254 . S
O261 Pr240 2.490 . S
O261 C242 1.225 . S
O262 Pr240 2.695 1_554 S
O262 Pr241 2.436 . S
O262 C249 1.270 . S
O263 Pr240 2.512 . S
O263 C249 1.248 1_556 S
O264 Pr241 2.438 . S
O264 C250 1.267 1_554 S
O265 Pr240 2.437 . S
O265 C250 1.278 . S
O266 Pr241 2.562 . S
O266 C251 1.254 . S
O267 Pr241 2.490 . S
O267 C251 1.225 . S
O268 Pr240 2.436 . S
O268 Pr241 2.695 1_556 S
O268 C258 1.270 . S
O269 Pr241 2.512 . S
O269 C258 1.248 1_554 S
O270 Pr240 2.438 . S
O270 C259 1.267 1_556 S
O271 Pr241 2.437 . S
O271 C259 1.278 . S
H272 C244 0.929 . S
H273 C245 0.929 . S
H274 C247 0.931 . S
H275 C248 0.930 . S
H276 C253 0.929 . S
H277 C254 0.929 . S
H278 C256 0.931 . S
H279 C257 0.930 . S
Pr280 C282 2.880 1_455 S
Pr280 O300 2.562 . S
Pr280 O301 2.490 1_455 S
Pr280 O302 2.695 1_455 S
Pr280 O303 2.512 1_455 S
Pr280 O305 2.437 1_455 S
Pr280 O308 2.436 . S
Pr280 O310 2.438 . S
Pr281 C291 2.880 1_655 S
Pr281 O302 2.436 . S
Pr281 O304 2.438 . S
Pr281 O306 2.562 . S
Pr281 O307 2.490 1_655 S
Pr281 O308 2.695 1_655 S
Pr281 O309 2.512 1_655 S
Pr281 O311 2.437 1_655 S
C282 Pr280 2.880 1_655 S
C282 C283 1.491 . S
C282 O300 1.254 1_655 S
C282 O301 1.225 . S
C283 C282 1.491 . S
C283 C284 1.392 . S
C283 C288 1.356 . S
C284 C283 1.392 . S
C284 C285 1.368 . S
C284 H312 0.929 . S
C285 C284 1.368 . S
C285 C286 1.386 . S
C285 H313 0.929 . S
C286 C285 1.386 . S
C286 C287 1.373 . S
C287 C286 1.373 . S
C287 C288 1.409 . S
C287 H314 0.931 . S
C288 C283 1.356 . S
C288 C287 1.409 . S
C288 H315 0.930 1_655 S
C289 O302 1.270 . S
C289 O303 1.248 . S
C290 O304 1.267 . S
C290 O305 1.278 . S
C291 Pr281 2.880 1_455 S
C291 C292 1.491 . S
C291 O306 1.254 1_455 S
C291 O307 1.225 . S
C292 C291 1.491 . S
C292 C293 1.392 . S
C292 C297 1.356 . S
C293 C292 1.392 . S
C293 C294 1.368 . S
C293 H316 0.929 . S
C294 C293 1.368 . S
C294 C295 1.386 . S
C294 H317 0.929 . S
C295 C294 1.386 . S
C295 C296 1.373 . S
C296 C295 1.373 . S
C296 C297 1.409 . S
C296 H318 0.931 . S
C297 C292 1.356 . S
C297 C296 1.409 . S
C297 H319 0.930 1_455 S
C298 O308 1.270 . S
C298 O309 1.248 . S
C299 O310 1.267 . S
C299 O311 1.278 . S
O300 Pr280 2.562 . S
O300 C282 1.254 1_455 S
O301 Pr280 2.490 1_655 S
O301 C282 1.225 . S
O302 Pr280 2.695 1_655 S
O302 Pr281 2.436 . S
O302 C289 1.270 . S
O303 Pr280 2.512 1_655 S
O303 C289 1.248 . S
O304 Pr281 2.438 . S
O304 C290 1.267 . S
O305 Pr280 2.437 1_655 S
O305 C290 1.278 . S
O306 Pr281 2.562 . S
O306 C291 1.254 1_655 S
O307 Pr281 2.490 1_455 S
O307 C291 1.225 . S
O308 Pr280 2.436 . S
O308 Pr281 2.695 1_455 S
O308 C298 1.270 . S
O309 Pr281 2.512 1_455 S
O309 C298 1.248 . S
O310 Pr280 2.438 . S
O310 C299 1.267 . S
O311 Pr281 2.437 1_455 S
O311 C299 1.278 . S
H312 C284 0.929 . S
H313 C285 0.929 . S
H314 C287 0.931 . S
H315 C288 0.930 1_455 S
H316 C293 0.929 . S
H317 C294 0.929 . S
H318 C296 0.931 . S
H319 C297 0.930 1_655 S
H320 C332 0.930 . S
H321 C334 0.930 . S
H322 C335 0.930 . S
H323 C339 0.959 . S
H324 C339 0.959 . S
H325 C339 0.961 . S
H326 C340 0.960 . S
H327 C340 0.961 . S
H328 C340 0.959 . S
H329 C343 0.929 . S
H330 C344 0.931 . S
H331 C346 0.930 . S
C332 H320 0.930 . S
C332 C333 1.399 . S
C332 C337 1.399 . S
C333 C332 1.399 . S
C333 C334 1.376 . S
C334 H321 0.930 . S
C334 C333 1.376 . S
C334 C335 1.388 . S
C335 H322 0.930 . S
C335 C334 1.388 . S
C335 C336 1.390 . S
C336 C335 1.390 . S
C336 C337 1.394 . S
C336 C342 1.465 . S
C337 C332 1.399 . S
C337 C336 1.394 . S
C337 C338 1.516 . S
C338 C337 1.516 . S
C338 C339 1.502 . S
C338 C340 1.561 . S
C338 C341 1.526 . S
C339 H323 0.959 . S
C339 H324 0.959 . S
C339 H325 0.961 . S
C339 C338 1.502 . S
C340 H326 0.960 . S
C340 H327 0.961 . S
C340 H328 0.959 . S
C340 C338 1.561 . S
C341 C338 1.526 . S
C341 C342 1.396 . S
C341 C346 1.390 . S
C342 C336 1.465 . S
C342 C341 1.396 . S
C342 C343 1.399 . S
C343 H329 0.929 . S
C343 C342 1.399 . S
C343 C344 1.385 . S
C344 H330 0.931 . S
C344 C343 1.385 . S
C344 C345 1.389 . S
C345 C344 1.389 . S
C345 C346 1.387 . S
C346 H331 0.930 . S
C346 C341 1.390 . S
C346 C345 1.387 . S
H347 C359 0.930 . S
H348 C361 0.930 . S
H349 C362 0.930 . S
H350 C366 0.959 . S
H351 C366 0.959 . S
H352 C366 0.961 . S
H353 C367 0.960 . S
H354 C367 0.961 . S
H355 C367 0.959 . S
H356 C370 0.929 . S
H357 C371 0.931 . S
H358 C373 0.930 . S
C359 H347 0.930 . S
C359 C360 1.399 . S
C359 C364 1.399 . S
C360 C359 1.399 . S
C360 C361 1.376 . S
C361 H348 0.930 . S
C361 C360 1.376 . S
C361 C362 1.388 . S
C362 H349 0.930 . S
C362 C361 1.388 . S
C362 C363 1.390 . S
C363 C362 1.390 . S
C363 C364 1.394 . S
C363 C369 1.465 . S
C364 C359 1.399 . S
C364 C363 1.394 . S
C364 C365 1.516 . S
C365 C364 1.516 . S
C365 C366 1.502 . S
C365 C367 1.561 . S
C365 C368 1.526 . S
C366 H350 0.959 . S
C366 H351 0.959 . S
C366 H352 0.961 . S
C366 C365 1.502 . S
C367 H353 0.960 . S
C367 H354 0.961 . S
C367 H355 0.959 . S
C367 C365 1.561 . S
C368 C365 1.526 . S
C368 C369 1.396 . S
C368 C373 1.390 . S
C369 C363 1.465 . S
C369 C368 1.396 . S
C369 C370 1.399 . S
C370 H356 0.929 . S
C370 C369 1.399 . S
C370 C371 1.385 . S
C371 H357 0.931 . S
C371 C370 1.385 . S
C371 C372 1.389 . S
C372 C371 1.389 . S
C372 C373 1.387 . S
C373 H358 0.930 . S
C373 C368 1.390 . S
C373 C372 1.387 . S
H374 C386 0.930 . S
H375 C388 0.930 . S
H376 C389 0.930 . S
H377 C393 0.959 . S
H378 C393 0.959 . S
H379 C393 0.961 . S
H380 C394 0.960 . S
H381 C394 0.961 . S
H382 C394 0.959 . S
H383 C397 0.929 . S
H384 C398 0.931 1_554 S
H385 C400 0.930 . S
C386 H374 0.930 . S
C386 C387 1.399 . S
C386 C391 1.399 . S
C387 C386 1.399 . S
C387 C388 1.376 . S
C388 H375 0.930 . S
C388 C387 1.376 . S
C388 C389 1.388 . S
C389 H376 0.930 . S
C389 C388 1.388 . S
C389 C390 1.390 . S
C390 C389 1.390 . S
C390 C391 1.394 . S
C390 C396 1.465 . S
C391 C386 1.399 . S
C391 C390 1.394 . S
C391 C392 1.516 . S
C392 C391 1.516 . S
C392 C393 1.502 . S
C392 C394 1.561 . S
C392 C395 1.526 . S
C393 H377 0.959 . S
C393 H378 0.959 . S
C393 H379 0.961 . S
C393 C392 1.502 . S
C394 H380 0.960 . S
C394 H381 0.961 . S
C394 H382 0.959 . S
C394 C392 1.561 . S
C395 C392 1.526 . S
C395 C396 1.396 . S
C395 C400 1.390 . S
C396 C390 1.465 . S
C396 C395 1.396 . S
C396 C397 1.399 . S
C397 H383 0.929 . S
C397 C396 1.399 . S
C397 C398 1.385 . S
C398 H384 0.931 1_556 S
C398 C397 1.385 . S
C398 C399 1.389 . S
C399 C398 1.389 . S
C399 C400 1.387 . S
C400 H385 0.930 . S
C400 C395 1.390 . S
C400 C399 1.387 . S
H401 C413 0.930 . S
H402 C415 0.930 . S
H403 C416 0.930 . S
H404 C420 0.959 . S
H405 C420 0.959 . S
H406 C420 0.961 . S
H407 C421 0.960 . S
H408 C421 0.961 . S
H409 C421 0.959 . S
H410 C424 0.929 . S
H411 C425 0.931 . S
H412 C427 0.930 . S
C413 H401 0.930 . S
C413 C414 1.399 . S
C413 C418 1.399 . S
C414 C413 1.399 . S
C414 C415 1.376 . S
C415 H402 0.930 . S
C415 C414 1.376 . S
C415 C416 1.388 . S
C416 H403 0.930 . S
C416 C415 1.388 . S
C416 C417 1.390 . S
C417 C416 1.390 . S
C417 C418 1.394 . S
C417 C423 1.465 . S
C418 C413 1.399 . S
C418 C417 1.394 . S
C418 C419 1.516 . S
C419 C418 1.516 . S
C419 C420 1.502 . S
C419 C421 1.561 . S
C419 C422 1.526 . S
C420 H404 0.959 . S
C420 H405 0.959 . S
C420 H406 0.961 . S
C420 C419 1.502 . S
C421 H407 0.960 . S
C421 H408 0.961 . S
C421 H409 0.959 . S
C421 C419 1.561 . S
C422 C419 1.526 . S
C422 C423 1.396 . S
C422 C427 1.390 . S
C423 C417 1.465 . S
C423 C422 1.396 . S
C423 C424 1.399 . S
C424 H410 0.929 . S
C424 C423 1.399 . S
C424 C425 1.385 . S
C425 H411 0.931 . S
C425 C424 1.385 . S
C425 C426 1.389 . S
C426 C425 1.389 . S
C426 C427 1.387 . S
C427 H412 0.930 . S
C427 C422 1.390 . S
C427 C426 1.387 . S
H428 C440 0.930 . S
H429 C442 0.930 . S
H430 C443 0.930 . S
H431 C447 0.959 . S
H432 C447 0.959 . S
H433 C447 0.961 . S
H434 C448 0.960 . S
H435 C448 0.961 . S
H436 C448 0.959 . S
H437 C451 0.929 . S
H438 C452 0.931 . S
H439 C454 0.930 . S
C440 H428 0.930 . S
C440 C441 1.399 . S
C440 C445 1.399 . S
C441 C440 1.399 . S
C441 C442 1.376 . S
C442 H429 0.930 . S
C442 C441 1.376 . S
C442 C443 1.388 . S
C443 H430 0.930 . S
C443 C442 1.388 . S
C443 C444 1.390 . S
C444 C443 1.390 . S
C444 C445 1.394 . S
C444 C450 1.465 . S
C445 C440 1.399 . S
C445 C444 1.394 . S
C445 C446 1.516 . S
C446 C445 1.516 . S
C446 C447 1.502 . S
C446 C448 1.561 . S
C446 C449 1.526 . S
C447 H431 0.959 . S
C447 H432 0.959 . S
C447 H433 0.961 . S
C447 C446 1.502 . S
C448 H434 0.960 . S
C448 H435 0.961 . S
C448 H436 0.959 . S
C448 C446 1.561 . S
C449 C446 1.526 . S
C449 C450 1.396 . S
C449 C454 1.390 . S
C450 C444 1.465 . S
C450 C449 1.396 . S
C450 C451 1.399 . S
C451 H437 0.929 . S
C451 C450 1.399 . S
C451 C452 1.385 . S
C452 H438 0.931 . S
C452 C451 1.385 . S
C452 C453 1.389 . S
C453 C452 1.389 . S
C453 C454 1.387 . S
C454 H439 0.930 . S
C454 C449 1.390 . S
C454 C453 1.387 . S
H455 C467 0.930 . S
H456 C469 0.930 . S
H457 C470 0.930 . S
H458 C474 0.959 . S
H459 C474 0.959 . S
H460 C474 0.961 . S
H461 C475 0.960 . S
H462 C475 0.961 . S
H463 C475 0.959 . S
H464 C478 0.929 . S
H465 C479 0.931 . S
H466 C481 0.930 . S
C467 H455 0.930 . S
C467 C468 1.399 . S
C467 C472 1.399 . S
C468 C467 1.399 . S
C468 C469 1.376 . S
C469 H456 0.930 . S
C469 C468 1.376 . S
C469 C470 1.388 . S
C470 H457 0.930 . S
C470 C469 1.388 . S
C470 C471 1.390 . S
C471 C470 1.390 . S
C471 C472 1.394 . S
C471 C477 1.465 . S
C472 C467 1.399 . S
C472 C471 1.394 . S
C472 C473 1.516 . S
C473 C472 1.516 . S
C473 C474 1.502 . S
C473 C475 1.561 . S
C473 C476 1.526 . S
C474 H458 0.959 . S
C474 H459 0.959 . S
C474 H460 0.961 . S
C474 C473 1.502 . S
C475 H461 0.960 . S
C475 H462 0.961 . S
C475 H463 0.959 . S
C475 C473 1.561 . S
C476 C473 1.526 . S
C476 C477 1.396 . S
C476 C481 1.390 . S
C477 C471 1.465 . S
C477 C476 1.396 . S
C477 C478 1.399 . S
C478 H464 0.929 . S
C478 C477 1.399 . S
C478 C479 1.385 . S
C479 H465 0.931 . S
C479 C478 1.385 . S
C479 C480 1.389 . S
C480 C479 1.389 . S
C480 C481 1.387 . S
C481 H466 0.930 . S
C481 C476 1.390 . S
C481 C480 1.387 . S
H482 C494 0.930 . S
H483 C496 0.930 . S
H484 C497 0.930 . S
H485 C501 0.959 . S
H486 C501 0.959 . S
H487 C501 0.961 . S
H488 C502 0.960 . S
H489 C502 0.961 . S
H490 C502 0.959 . S
H491 C505 0.929 . S
H492 C506 0.931 . S
H493 C508 0.930 . S
C494 H482 0.930 . S
C494 C495 1.399 . S
C494 C499 1.399 . S
C495 C494 1.399 . S
C495 C496 1.376 . S
C496 H483 0.930 . S
C496 C495 1.376 . S
C496 C497 1.388 . S
C497 H484 0.930 . S
C497 C496 1.388 . S
C497 C498 1.390 . S
C498 C497 1.390 . S
C498 C499 1.394 . S
C498 C504 1.465 . S
C499 C494 1.399 . S
C499 C498 1.394 . S
C499 C500 1.516 . S
C500 C499 1.516 . S
C500 C501 1.502 . S
C500 C502 1.561 . S
C500 C503 1.526 . S
C501 H485 0.959 . S
C501 H486 0.959 . S
C501 H487 0.961 . S
C501 C500 1.502 . S
C502 H488 0.960 . S
C502 H489 0.961 . S
C502 H490 0.959 . S
C502 C500 1.561 . S
C503 C500 1.526 . S
C503 C504 1.396 . S
C503 C508 1.390 . S
C504 C498 1.465 . S
C504 C503 1.396 . S
C504 C505 1.399 . S
C505 H491 0.929 . S
C505 C504 1.399 . S
C505 C506 1.385 . S
C506 H492 0.931 . S
C506 C505 1.385 . S
C506 C507 1.389 . S
C507 C506 1.389 . S
C507 C508 1.387 . S
C508 H493 0.930 . S
C508 C503 1.390 . S
C508 C507 1.387 . S
H509 C521 0.930 . S
H510 C523 0.930 . S
H511 C524 0.930 . S
H512 C528 0.959 . S
H513 C528 0.959 . S
H514 C528 0.961 . S
H515 C529 0.960 . S
H516 C529 0.961 . S
H517 C529 0.959 . S
H518 C532 0.929 . S
H519 C533 0.931 . S
H520 C535 0.930 . S
C521 H509 0.930 . S
C521 C522 1.399 . S
C521 C526 1.399 . S
C522 C521 1.399 . S
C522 C523 1.376 . S
C523 H510 0.930 . S
C523 C522 1.376 . S
C523 C524 1.388 . S
C524 H511 0.930 . S
C524 C523 1.388 . S
C524 C525 1.390 . S
C525 C524 1.390 . S
C525 C526 1.394 . S
C525 C531 1.465 . S
C526 C521 1.399 . S
C526 C525 1.394 . S
C526 C527 1.516 . S
C527 C526 1.516 . S
C527 C528 1.502 . S
C527 C529 1.561 . S
C527 C530 1.526 . S
C528 H512 0.959 . S
C528 H513 0.959 . S
C528 H514 0.961 . S
C528 C527 1.502 . S
C529 H515 0.960 . S
C529 H516 0.961 . S
C529 H517 0.959 . S
C529 C527 1.561 . S
C530 C527 1.526 . S
C530 C531 1.396 . S
C530 C535 1.390 . S
C531 C525 1.465 . S
C531 C530 1.396 . S
C531 C532 1.399 . S
C532 H518 0.929 . S
C532 C531 1.399 . S
C532 C533 1.385 . S
C533 H519 0.931 . S
C533 C532 1.385 . S
C533 C534 1.389 . S
C534 C533 1.389 . S
C534 C535 1.387 . S
C535 H520 0.930 . S
C535 C530 1.390 . S
C535 C534 1.387 . S
H536 C548 0.930 . S
H537 C550 0.930 . S
H538 C551 0.930 . S
H539 C555 0.959 . S
H540 C555 0.959 . S
H541 C555 0.961 . S
H542 C556 0.960 . S
H543 C556 0.961 . S
H544 C556 0.959 . S
H545 C559 0.929 . S
H546 C560 0.931 . S
H547 C562 0.930 . S
C548 H536 0.930 . S
C548 C549 1.399 . S
C548 C553 1.399 . S
C549 C548 1.399 . S
C549 C550 1.376 . S
C550 H537 0.930 . S
C550 C549 1.376 . S
C550 C551 1.388 . S
C551 H538 0.930 . S
C551 C550 1.388 . S
C551 C552 1.390 . S
C552 C551 1.390 . S
C552 C553 1.394 . S
C552 C558 1.465 . S
C553 C548 1.399 . S
C553 C552 1.394 . S
C553 C554 1.516 . S
C554 C553 1.516 . S
C554 C555 1.502 . S
C554 C556 1.561 . S
C554 C557 1.526 . S
C555 H539 0.959 . S
C555 H540 0.959 . S
C555 H541 0.961 . S
C555 C554 1.502 . S
C556 H542 0.960 . S
C556 H543 0.961 . S
C556 H544 0.959 . S
C556 C554 1.561 . S
C557 C554 1.526 . S
C557 C558 1.396 . S
C557 C562 1.390 . S
C558 C552 1.465 . S
C558 C557 1.396 . S
C558 C559 1.399 . S
C559 H545 0.929 . S
C559 C558 1.399 . S
C559 C560 1.385 . S
C560 H546 0.931 . S
C560 C559 1.385 . S
C560 C561 1.389 . S
C561 C560 1.389 . S
C561 C562 1.387 . S
C562 H547 0.930 . S
C562 C557 1.390 . S
C562 C561 1.387 . S
H563 C575 0.930 . S
H564 C577 0.930 . S
H565 C578 0.930 . S
H566 C582 0.959 . S
H567 C582 0.959 . S
H568 C582 0.961 . S
H569 C583 0.960 . S
H570 C583 0.961 . S
H571 C583 0.959 . S
H572 C586 0.929 1_556 S
H573 C587 0.931 1_556 S
H574 C589 0.930 . S
C575 H563 0.930 . S
C575 C576 1.399 . S
C575 C580 1.399 . S
C576 C575 1.399 . S
C576 C577 1.376 . S
C577 H564 0.930 . S
C577 C576 1.376 . S
C577 C578 1.388 . S
C578 H565 0.930 . S
C578 C577 1.388 . S
C578 C579 1.390 . S
C579 C578 1.390 . S
C579 C580 1.394 . S
C579 C585 1.465 . S
C580 C575 1.399 . S
C580 C579 1.394 . S
C580 C581 1.516 . S
C581 C580 1.516 . S
C581 C582 1.502 . S
C581 C583 1.561 . S
C581 C584 1.526 . S
C582 H566 0.959 . S
C582 H567 0.959 . S
C582 H568 0.961 . S
C582 C581 1.502 . S
C583 H569 0.960 . S
C583 H570 0.961 . S
C583 H571 0.959 . S
C583 C581 1.561 . S
C584 C581 1.526 . S
C584 C585 1.396 . S
C584 C589 1.390 . S
C585 C579 1.465 . S
C585 C584 1.396 . S
C585 C586 1.399 . S
C586 H572 0.929 1_554 S
C586 C585 1.399 . S
C586 C587 1.385 . S
C587 H573 0.931 1_554 S
C587 C586 1.385 . S
C587 C588 1.389 . S
C588 C587 1.389 . S
C588 C589 1.387 . S
C589 H574 0.930 . S
C589 C584 1.390 . S
C589 C588 1.387 . S
H590 C602 0.930 . S
H591 C604 0.930 . S
H592 C605 0.930 . S
H593 C609 0.959 . S
H594 C609 0.959 . S
H595 C609 0.961 . S
H596 C610 0.960 . S
H597 C610 0.961 . S
H598 C610 0.959 . S
H599 C613 0.929 . S
H600 C614 0.931 . S
H601 C616 0.930 . S
C602 H590 0.930 . S
C602 C603 1.399 . S
C602 C607 1.399 . S
C603 C602 1.399 . S
C603 C604 1.376 . S
C604 H591 0.930 . S
C604 C603 1.376 . S
C604 C605 1.388 . S
C605 H592 0.930 . S
C605 C604 1.388 . S
C605 C606 1.390 . S
C606 C605 1.390 . S
C606 C607 1.394 . S
C606 C612 1.465 . S
C607 C602 1.399 . S
C607 C606 1.394 . S
C607 C608 1.516 . S
C608 C607 1.516 . S
C608 C609 1.502 . S
C608 C610 1.561 . S
C608 C611 1.526 . S
C609 H593 0.959 . S
C609 H594 0.959 . S
C609 H595 0.961 . S
C609 C608 1.502 . S
C610 H596 0.960 . S
C610 H597 0.961 . S
C610 H598 0.959 . S
C610 C608 1.561 . S
C611 C608 1.526 . S
C611 C612 1.396 . S
C611 C616 1.390 . S
C612 C606 1.465 . S
C612 C611 1.396 . S
C612 C613 1.399 . S
C613 H599 0.929 . S
C613 C612 1.399 . S
C613 C614 1.385 . S
C614 H600 0.931 . S
C614 C613 1.385 . S
C614 C615 1.389 . S
C615 C614 1.389 . S
C615 C616 1.387 . S
C616 H601 0.930 . S
C616 C611 1.390 . S
C616 C615 1.387 . S
H617 C629 0.930 . S
H618 C631 0.930 . S
H619 C632 0.930 . S
H620 C636 0.959 . S
H621 C636 0.959 . S
H622 C636 0.961 . S
H623 C637 0.960 . S
H624 C637 0.961 . S
H625 C637 0.959 . S
H626 C640 0.929 . S
H627 C641 0.931 . S
H628 C643 0.930 . S
C629 H617 0.930 . S
C629 C630 1.399 . S
C629 C634 1.399 . S
C630 C629 1.399 . S
C630 C631 1.376 . S
C631 H618 0.930 . S
C631 C630 1.376 . S
C631 C632 1.388 . S
C632 H619 0.930 . S
C632 C631 1.388 . S
C632 C633 1.390 . S
C633 C632 1.390 . S
C633 C634 1.394 . S
C633 C639 1.465 . S
C634 C629 1.399 . S
C634 C633 1.394 . S
C634 C635 1.516 . S
C635 C634 1.516 . S
C635 C636 1.502 . S
C635 C637 1.561 . S
C635 C638 1.526 . S
C636 H620 0.959 . S
C636 H621 0.959 . S
C636 H622 0.961 . S
C636 C635 1.502 . S
C637 H623 0.960 . S
C637 H624 0.961 . S
C637 H625 0.959 . S
C637 C635 1.561 . S
C638 C635 1.526 . S
C638 C639 1.396 . S
C638 C643 1.390 . S
C639 C633 1.465 . S
C639 C638 1.396 . S
C639 C640 1.399 . S
C640 H626 0.929 . S
C640 C639 1.399 . S
C640 C641 1.385 . S
C641 H627 0.931 . S
C641 C640 1.385 . S
C641 C642 1.389 . S
C642 C641 1.389 . S
C642 C643 1.387 . S
C643 H628 0.930 . S
C643 C638 1.390 . S
C643 C642 1.387 . S
H644 C656 0.930 . S
H645 C658 0.930 . S
H646 C659 0.930 . S
H647 C663 0.959 . S
H648 C663 0.959 . S
H649 C663 0.961 . S
H650 C664 0.960 . S
H651 C664 0.961 . S
H652 C664 0.959 . S
H653 C667 0.929 . S
H654 C668 0.931 . S
H655 C670 0.930 . S
C656 H644 0.930 . S
C656 C657 1.399 . S
C656 C661 1.399 . S
C657 C656 1.399 . S
C657 C658 1.376 . S
C658 H645 0.930 . S
C658 C657 1.376 . S
C658 C659 1.388 . S
C659 H646 0.930 . S
C659 C658 1.388 . S
C659 C660 1.390 . S
C660 C659 1.390 . S
C660 C661 1.394 . S
C660 C666 1.465 . S
C661 C656 1.399 . S
C661 C660 1.394 . S
C661 C662 1.516 . S
C662 C661 1.516 . S
C662 C663 1.502 . S
C662 C664 1.561 . S
C662 C665 1.526 . S
C663 H647 0.959 . S
C663 H648 0.959 . S
C663 H649 0.961 . S
C663 C662 1.502 . S
C664 H650 0.960 . S
C664 H651 0.961 . S
C664 H652 0.959 . S
C664 C662 1.561 . S
C665 C662 1.526 . S
C665 C666 1.396 . S
C665 C670 1.390 . S
C666 C660 1.465 . S
C666 C665 1.396 . S
C666 C667 1.399 . S
C667 H653 0.929 . S
C667 C666 1.399 . S
C667 C668 1.385 . S
C668 H654 0.931 . S
C668 C667 1.385 . S
C668 C669 1.389 . S
C669 C668 1.389 . S
C669 C670 1.387 . S
C670 H655 0.930 . S
C670 C665 1.390 . S
C670 C669 1.387 . S
H671 C683 0.930 . S
H672 C685 0.930 . S
H673 C686 0.930 . S
H674 C690 0.959 . S
H675 C690 0.959 . S
H676 C690 0.961 . S
H677 C691 0.960 . S
H678 C691 0.961 . S
H679 C691 0.959 . S
H680 C694 0.929 . S
H681 C695 0.931 . S
H682 C697 0.930 . S
C683 H671 0.930 . S
C683 C684 1.399 . S
C683 C688 1.399 . S
C684 C683 1.399 . S
C684 C685 1.376 . S
C685 H672 0.930 . S
C685 C684 1.376 . S
C685 C686 1.388 . S
C686 H673 0.930 . S
C686 C685 1.388 . S
C686 C687 1.390 . S
C687 C686 1.390 . S
C687 C688 1.394 . S
C687 C693 1.465 . S
C688 C683 1.399 . S
C688 C687 1.394 . S
C688 C689 1.516 . S
C689 C688 1.516 . S
C689 C690 1.502 . S
C689 C691 1.561 . S
C689 C692 1.526 . S
C690 H674 0.959 . S
C690 H675 0.959 . S
C690 H676 0.961 . S
C690 C689 1.502 . S
C691 H677 0.960 . S
C691 H678 0.961 . S
C691 H679 0.959 . S
C691 C689 1.561 . S
C692 C689 1.526 . S
C692 C693 1.396 . S
C692 C697 1.390 . S
C693 C687 1.465 . S
C693 C692 1.396 . S
C693 C694 1.399 . S
C694 H680 0.929 . S
C694 C693 1.399 . S
C694 C695 1.385 . S
C695 H681 0.931 . S
C695 C694 1.385 . S
C695 C696 1.389 . S
C696 C695 1.389 . S
C696 C697 1.387 . S
C697 H682 0.930 . S
C697 C692 1.390 . S
C697 C696 1.387 . S
H698 C710 0.930 . S
H699 C712 0.930 . S
H700 C713 0.930 . S
H701 C717 0.959 . S
H702 C717 0.959 . S
H703 C717 0.961 . S
H704 C718 0.960 . S
H705 C718 0.961 . S
H706 C718 0.959 . S
H707 C721 0.929 . S
H708 C722 0.931 . S
H709 C724 0.930 . S
C710 H698 0.930 . S
C710 C711 1.399 . S
C710 C715 1.399 . S
C711 C710 1.399 . S
C711 C712 1.376 . S
C712 H699 0.930 . S
C712 C711 1.376 . S
C712 C713 1.388 . S
C713 H700 0.930 . S
C713 C712 1.388 . S
C713 C714 1.390 . S
C714 C713 1.390 . S
C714 C715 1.394 . S
C714 C720 1.465 . S
C715 C710 1.399 . S
C715 C714 1.394 . S
C715 C716 1.516 . S
C716 C715 1.516 . S
C716 C717 1.502 . S
C716 C718 1.561 . S
C716 C719 1.526 . S
C717 H701 0.959 . S
C717 H702 0.959 . S
C717 H703 0.961 . S
C717 C716 1.502 . S
C718 H704 0.960 . S
C718 H705 0.961 . S
C718 H706 0.959 . S
C718 C716 1.561 . S
C719 C716 1.526 . S
C719 C720 1.396 . S
C719 C724 1.390 . S
C720 C714 1.465 . S
C720 C719 1.396 . S
C720 C721 1.399 . S
C721 H707 0.929 . S
C721 C720 1.399 . S
C721 C722 1.385 . S
C722 H708 0.931 . S
C722 C721 1.385 . S
C722 C723 1.389 . S
C723 C722 1.389 . S
C723 C724 1.387 . S
C724 H709 0.930 . S
C724 C719 1.390 . S
C724 C723 1.387 . S
H725 C737 0.930 . S
H726 C739 0.930 . S
H727 C740 0.930 . S
H728 C744 0.959 . S
H729 C744 0.959 . S
H730 C744 0.961 . S
H731 C745 0.960 . S
H732 C745 0.961 . S
H733 C745 0.959 . S
H734 C748 0.929 . S
H735 C749 0.931 . S
H736 C751 0.930 . S
C737 H725 0.930 . S
C737 C738 1.399 . S
C737 C742 1.399 . S
C738 C737 1.399 . S
C738 C739 1.376 . S
C739 H726 0.930 . S
C739 C738 1.376 . S
C739 C740 1.388 . S
C740 H727 0.930 . S
C740 C739 1.388 . S
C740 C741 1.390 . S
C741 C740 1.390 . S
C741 C742 1.394 . S
C741 C747 1.465 . S
C742 C737 1.399 . S
C742 C741 1.394 . S
C742 C743 1.516 . S
C743 C742 1.516 . S
C743 C744 1.502 . S
C743 C745 1.561 . S
C743 C746 1.526 . S
C744 H728 0.959 . S
C744 H729 0.959 . S
C744 H730 0.961 . S
C744 C743 1.502 . S
C745 H731 0.960 . S
C745 H732 0.961 . S
C745 H733 0.959 . S
C745 C743 1.561 . S
C746 C743 1.526 . S
C746 C747 1.396 . S
C746 C751 1.390 . S
C747 C741 1.465 . S
C747 C746 1.396 . S
C747 C748 1.399 . S
C748 H734 0.929 . S
C748 C747 1.399 . S
C748 C749 1.385 . S
C749 H735 0.931 . S
C749 C748 1.385 . S
C749 C750 1.389 . S
C750 C749 1.389 . S
C750 C751 1.387 . S
C751 H736 0.930 . S
C751 C746 1.390 . S
C751 C750 1.387 . S
H752 C764 0.930 . S
H753 C766 0.926 1_455 S
H754 C767 0.930 . S
H755 C771 0.959 . S
H756 C771 0.959 . S
H757 C771 0.961 . S
H758 C772 0.960 . S
H759 C772 0.961 . S
H760 C772 0.959 . S
H761 C775 0.929 . S
H762 C776 0.931 . S
H763 C778 0.930 . S
C764 H752 0.930 . S
C764 C765 1.399 1_565 S
C764 C769 1.399 . S
C765 C764 1.399 1_545 S
C765 C766 1.376 . S
C766 H753 0.926 1_655 S
C766 C765 1.376 . S
C766 C767 1.388 1_655 S
C767 H754 0.930 . S
C767 C766 1.388 1_455 S
C767 C768 1.390 . S
C768 C767 1.390 . S
C768 C769 1.394 1_445 S
C768 C774 1.465 1_556 S
C769 C764 1.399 . S
C769 C768 1.394 1_665 S
C769 C770 1.516 . S
C770 C769 1.516 . S
C770 C771 1.502 . S
C770 C772 1.561 1_655 S
C770 C773 1.526 1_656 S
C771 H755 0.959 . S
C771 H756 0.959 . S
C771 H757 0.961 . S
C771 C770 1.502 . S
C772 H758 0.960 . S
C772 H759 0.961 . S
C772 H760 0.959 . S
C772 C770 1.561 1_455 S
C773 C770 1.526 1_454 S
C773 C774 1.396 1_565 S
C773 C778 1.390 . S
C774 C768 1.465 1_554 S
C774 C773 1.396 1_545 S
C774 C775 1.399 . S
C775 H761 0.929 . S
C775 C774 1.399 . S
C775 C776 1.385 . S
C776 H762 0.931 . S
C776 C775 1.385 . S
C776 C777 1.389 1_545 S
C777 C776 1.389 1_565 S
C777 C778 1.387 . S
C778 H763 0.930 . S
C778 C773 1.390 . S
C778 C777 1.387 . S
H779 C791 0.930 . S
H780 C793 0.930 . S
H781 C794 0.930 . S
H782 C798 0.959 . S
H783 C798 0.959 . S
H784 C798 0.961 . S
H785 C799 0.960 . S
H786 C799 0.961 . S
H787 C799 0.959 . S
H788 C802 0.929 . S
H789 C803 0.931 . S
H790 C805 0.930 . S
C791 H779 0.930 . S
C791 C792 1.399 . S
C791 C796 1.399 . S
C792 C791 1.399 . S
C792 C793 1.376 . S
C793 H780 0.930 . S
C793 C792 1.376 . S
C793 C794 1.388 . S
C794 H781 0.930 . S
C794 C793 1.388 . S
C794 C795 1.390 . S
C795 C794 1.390 . S
C795 C796 1.394 . S
C795 C801 1.465 . S
C796 C791 1.399 . S
C796 C795 1.394 . S
C796 C797 1.516 . S
C797 C796 1.516 . S
C797 C798 1.502 . S
C797 C799 1.561 . S
C797 C800 1.526 . S
C798 H782 0.959 . S
C798 H783 0.959 . S
C798 H784 0.961 . S
C798 C797 1.502 . S
C799 H785 0.960 . S
C799 H786 0.961 . S
C799 H787 0.959 . S
C799 C797 1.561 . S
C800 C797 1.526 . S
C800 C801 1.396 . S
C800 C805 1.390 . S
C801 C795 1.465 . S
C801 C800 1.396 . S
C801 C802 1.399 . S
C802 H788 0.929 . S
C802 C801 1.399 . S
C802 C803 1.385 . S
C803 H789 0.931 . S
C803 C802 1.385 . S
C803 C804 1.389 . S
C804 C803 1.389 . S
C804 C805 1.387 . S
C805 H790 0.930 . S
C805 C800 1.390 . S
C805 C804 1.387 . S
H806 C818 0.930 . S
H807 C820 0.930 . S
H808 C821 0.930 . S
H809 C825 0.959 . S
H810 C825 0.959 . S
H811 C825 0.961 . S
H812 C826 0.960 . S
H813 C826 0.961 . S
H814 C826 0.959 . S
H815 C829 0.929 . S
H816 C830 0.931 . S
H817 C832 0.930 . S
C818 H806 0.930 . S
C818 C819 1.399 1_565 S
C818 C823 1.399 . S
C819 C818 1.399 1_545 S
C819 C820 1.376 . S
C820 H807 0.930 . S
C820 C819 1.376 . S
C820 C821 1.388 . S
C821 H808 0.930 . S
C821 C820 1.388 . S
C821 C822 1.390 . S
C822 C821 1.390 . S
C822 C823 1.394 1_545 S
C822 C828 1.465 . S
C823 C818 1.399 . S
C823 C822 1.394 1_565 S
C823 C824 1.516 . S
C824 C823 1.516 . S
C824 C825 1.502 . S
C824 C826 1.561 . S
C824 C827 1.526 . S
C825 H809 0.959 . S
C825 H810 0.959 . S
C825 H811 0.961 . S
C825 C824 1.502 . S
C826 H812 0.960 . S
C826 H813 0.961 . S
C826 H814 0.959 . S
C826 C824 1.561 . S
C827 C824 1.526 . S
C827 C828 1.396 1_565 S
C827 C832 1.390 . S
C828 C822 1.465 . S
C828 C827 1.396 1_545 S
C828 C829 1.399 . S
C829 H815 0.929 . S
C829 C828 1.399 . S
C829 C830 1.385 . S
C830 H816 0.931 . S
C830 C829 1.385 . S
C830 C831 1.389 . S
C831 C830 1.389 . S
C831 C832 1.387 1_545 S
C832 H817 0.930 . S
C832 C827 1.390 . S
C832 C831 1.387 1_565 S
H833 C845 0.930 . S
H834 C847 0.930 . S
H835 C848 0.930 . S
H836 C852 0.959 . S
H837 C852 0.959 . S
H838 C852 0.961 . S
H839 C853 0.960 . S
H840 C853 0.961 . S
H841 C853 0.959 . S
H842 C856 0.929 . S
H843 C857 0.931 . S
H844 C859 0.930 . S
C845 H833 0.930 . S
C845 C846 1.399 . S
C845 C850 1.399 . S
C846 C845 1.399 . S
C846 C847 1.376 . S
C847 H834 0.930 . S
C847 C846 1.376 . S
C847 C848 1.388 . S
C848 H835 0.930 . S
C848 C847 1.388 . S
C848 C849 1.390 . S
C849 C848 1.390 . S
C849 C850 1.394 . S
C849 C855 1.465 . S
C850 C845 1.399 . S
C850 C849 1.394 . S
C850 C851 1.516 . S
C851 C850 1.516 . S
C851 C852 1.502 . S
C851 C853 1.561 . S
C851 C854 1.526 . S
C852 H836 0.959 . S
C852 H837 0.959 . S
C852 H838 0.961 . S
C852 C851 1.502 . S
C853 H839 0.960 . S
C853 H840 0.961 . S
C853 H841 0.959 . S
C853 C851 1.561 . S
C854 C851 1.526 . S
C854 C855 1.396 . S
C854 C859 1.390 . S
C855 C849 1.465 . S
C855 C854 1.396 . S
C855 C856 1.399 . S
C856 H842 0.929 . S
C856 C855 1.399 . S
C856 C857 1.385 . S
C857 H843 0.931 . S
C857 C856 1.385 . S
C857 C858 1.389 . S
C858 C857 1.389 . S
C858 C859 1.387 . S
C859 H844 0.930 . S
C859 C854 1.390 . S
C859 C858 1.387 . S
H860 C872 0.930 . S
H861 C874 0.930 . S
H862 C875 0.930 . S
H863 C879 0.959 . S
H864 C879 0.959 . S
H865 C879 0.961 . S
H866 C880 0.960 . S
H867 C880 0.961 . S
H868 C880 0.959 . S
H869 C883 0.929 . S
H870 C884 0.931 . S
H871 C886 0.930 . S
C872 H860 0.930 . S
C872 C873 1.399 . S
C872 C877 1.399 . S
C873 C872 1.399 . S
C873 C874 1.376 . S
C874 H861 0.930 . S
C874 C873 1.376 . S
C874 C875 1.388 . S
C875 H862 0.930 . S
C875 C874 1.388 . S
C875 C876 1.390 . S
C876 C875 1.390 . S
C876 C877 1.394 . S
C876 C882 1.465 . S
C877 C872 1.399 . S
C877 C876 1.394 . S
C877 C878 1.516 . S
C878 C877 1.516 . S
C878 C879 1.502 . S
C878 C880 1.561 . S
C878 C881 1.526 . S
C879 H863 0.959 . S
C879 H864 0.959 . S
C879 H865 0.961 . S
C879 C878 1.502 . S
C880 H866 0.960 . S
C880 H867 0.961 . S
C880 H868 0.959 . S
C880 C878 1.561 . S
C881 C878 1.526 . S
C881 C882 1.396 . S
C881 C886 1.390 . S
C882 C876 1.465 . S
C882 C881 1.396 . S
C882 C883 1.399 . S
C883 H869 0.929 . S
C883 C882 1.399 . S
C883 C884 1.385 . S
C884 H870 0.931 . S
C884 C883 1.385 . S
C884 C885 1.389 . S
C885 C884 1.389 . S
C885 C886 1.387 . S
C886 H871 0.930 . S
C886 C881 1.390 . S
C886 C885 1.387 . S
H887 C899 0.930 . S
H888 C901 0.930 . S
H889 C902 0.930 . S
H890 C906 0.959 . S
H891 C906 0.959 . S
H892 C906 0.961 . S
H893 C907 0.960 . S
H894 C907 0.961 . S
H895 C907 0.959 . S
H896 C910 0.929 . S
H897 C911 0.931 . S
H898 C913 0.930 . S
C899 H887 0.930 . S
C899 C900 1.399 . S
C899 C904 1.399 . S
C900 C899 1.399 . S
C900 C901 1.376 . S
C901 H888 0.930 . S
C901 C900 1.376 . S
C901 C902 1.388 . S
C902 H889 0.930 . S
C902 C901 1.388 . S
C902 C903 1.390 . S
C903 C902 1.390 . S
C903 C904 1.394 . S
C903 C909 1.465 . S
C904 C899 1.399 . S
C904 C903 1.394 . S
C904 C905 1.516 . S
C905 C904 1.516 . S
C905 C906 1.502 . S
C905 C907 1.561 . S
C905 C908 1.526 . S
C906 H890 0.959 . S
C906 H891 0.959 . S
C906 H892 0.961 . S
C906 C905 1.502 . S
C907 H893 0.960 . S
C907 H894 0.961 . S
C907 H895 0.959 . S
C907 C905 1.561 . S
C908 C905 1.526 . S
C908 C909 1.396 . S
C908 C913 1.390 . S
C909 C903 1.465 . S
C909 C908 1.396 . S
C909 C910 1.399 . S
C910 H896 0.929 . S
C910 C909 1.399 . S
C910 C911 1.385 . S
C911 H897 0.931 . S
C911 C910 1.385 . S
C911 C912 1.389 . S
C912 C911 1.389 . S
C912 C913 1.387 . S
C913 H898 0.930 . S
C913 C908 1.390 . S
C913 C912 1.387 . S
H914 C926 0.930 . S
H915 C928 0.930 . S
H916 C929 0.930 . S
H917 C933 0.959 . S
H918 C933 0.959 . S
H919 C933 0.961 . S
H920 C934 0.960 . S
H921 C934 0.961 . S
H922 C934 0.959 . S
H923 C937 0.929 . S
H924 C938 0.931 . S
H925 C940 0.930 . S
C926 H914 0.930 . S
C926 C927 1.399 . S
C926 C931 1.399 . S
C927 C926 1.399 . S
C927 C928 1.376 . S
C928 H915 0.930 . S
C928 C927 1.376 . S
C928 C929 1.388 . S
C929 H916 0.930 . S
C929 C928 1.388 . S
C929 C930 1.390 . S
C930 C929 1.390 . S
C930 C931 1.394 . S
C930 C936 1.465 . S
C931 C926 1.399 . S
C931 C930 1.394 . S
C931 C932 1.516 . S
C932 C931 1.516 . S
C932 C933 1.502 . S
C932 C934 1.561 . S
C932 C935 1.526 . S
C933 H917 0.959 . S
C933 H918 0.959 . S
C933 H919 0.961 . S
C933 C932 1.502 . S
C934 H920 0.960 . S
C934 H921 0.961 . S
C934 H922 0.959 . S
C934 C932 1.561 . S
C935 C932 1.526 . S
C935 C936 1.396 . S
C935 C940 1.390 . S
C936 C930 1.465 . S
C936 C935 1.396 . S
C936 C937 1.399 . S
C937 H923 0.929 . S
C937 C936 1.399 . S
C937 C938 1.385 . S
C938 H924 0.931 . S
C938 C937 1.385 . S
C938 C939 1.389 . S
C939 C938 1.389 . S
C939 C940 1.387 . S
C940 H925 0.930 . S
C940 C935 1.390 . S
C940 C939 1.387 . S
H941 C953 0.930 . S
H942 C955 0.930 . S
H943 C956 0.930 . S
H944 C960 0.959 1_554 S
H945 C960 0.959 1_554 S
H946 C960 0.961 . S
H947 C961 0.960 . S
H948 C961 0.961 1_554 S
H949 C961 0.959 . S
H950 C964 0.929 . S
H951 C965 0.931 . S
H952 C967 0.930 . S
C953 H941 0.930 . S
C953 C954 1.399 . S
C953 C958 1.399 . S
C954 C953 1.399 . S
C954 C955 1.376 . S
C955 H942 0.930 . S
C955 C954 1.376 . S
C955 C956 1.388 1_655 S
C956 H943 0.930 . S
C956 C955 1.388 1_455 S
C956 C957 1.390 . S
C957 C956 1.390 . S
C957 C958 1.394 1_455 S
C957 C963 1.465 1_556 S
C958 C953 1.399 . S
C958 C957 1.394 1_655 S
C958 C959 1.516 . S
C959 C958 1.516 . S
C959 C960 1.502 . S
C959 C961 1.561 1_655 S
C959 C962 1.526 1_656 S
C960 H944 0.959 1_556 S
C960 H945 0.959 1_556 S
C960 H946 0.961 . S
C960 C959 1.502 . S
C961 H947 0.960 . S
C961 H948 0.961 1_556 S
C961 H949 0.959 . S
C961 C959 1.561 1_455 S
C962 C959 1.526 1_454 S
C962 C963 1.396 . S
C962 C967 1.390 . S
C963 C957 1.465 1_554 S
C963 C962 1.396 . S
C963 C964 1.399 . S
C964 H950 0.929 . S
C964 C963 1.399 . S
C964 C965 1.385 . S
C965 H951 0.931 . S
C965 C964 1.385 . S
C965 C966 1.389 . S
C966 C965 1.389 . S
C966 C967 1.387 . S
C967 H952 0.930 . S
C967 C962 1.390 . S
C967 C966 1.387 . S
C333 C10 2.045 . S
C345 C130 2.032 . S
C360 C9 1.529 . S
C372 C50 1.512 . S
C387 C49 0.940 . S
C399 C89 0.868 . S
C414 C90 1.529 . S
C426 C129 1.501 . S
C441 C19 2.031 . S
C453 C219 2.048 . S
C468 C18 1.519 . S
C480 C179 1.511 . S
C495 C178 0.901 . S
C507 C98 0.940 . S
C522 C218 1.534 . S
C534 C99 1.511 . S
C549 C250 2.048 . S
C561 C210 2.043 . S
C576 C170 1.532 . S
C588 C249 1.495 . S
C603 C289 0.875 . S
C615 C169 0.870 . S
C630 C209 1.531 . S
C642 C290 1.514 . S
C657 C139 2.047 . S
C669 C259 2.042 . S
C684 C258 1.481 . S
C696 C59 1.538 . S
C711 C58 0.851 . S
C723 C298 0.893 . S
C738 C138 1.528 . S
C750 C299 1.506 . S
C765 C15 1.599 . S
C777 C6 1.597 . S
C792 C46 1.438 . S
C804 C55 1.387 . S
C819 C95 1.391 . S
C831 C86 1.435 1_545 S
C846 C135 1.571 . S
C858 C126 1.636 . S
C873 C166 1.443 . S
C885 C175 1.385 . S
C900 C215 1.614 . S
C912 C206 1.602 . S
C927 C246 1.572 . S
C939 C255 1.636 . S
C954 C286 1.397 . S
C966 C295 1.425 . S
