# Generated by pormake.
# Topology tfs, (6)-cn, num edge types: 1
# Building blocks:
#     Node 0, Type 0, BuildingBlock: PAMTUU_clean_sbu_0, # of connection points: 6
#     Node 1, Type 0, BuildingBlock: PAMTUU_clean_sbu_0, # of connection points: 6
#     Node 2, Type 0, BuildingBlock: PAMTUU_clean_sbu_0, # of connection points: 6
#     Node 3, Type 0, BuildingBlock: PAMTUU_clean_sbu_0, # of connection points: 6
#     Node 4, Type 0, BuildingBlock: PAMTUU_clean_sbu_0, # of connection points: 6
#     Node 5, Type 0, BuildingBlock: PAMTUU_clean_sbu_0, # of connection points: 6
#     Edge 6, Type (0, 0), BuildingBlock: UVAHIK_clean_linker_0, # of connection points: 2
#     Edge 7, Type (0, 0), BuildingBlock: UVAHIK_clean_linker_0, # of connection points: 2
#     Edge 8, Type (0, 0), BuildingBlock: UVAHIK_clean_linker_0, # of connection points: 2
#     Edge 9, Type (0, 0), BuildingBlock: UVAHIK_clean_linker_0, # of connection points: 2
#     Edge 10, Type (0, 0), BuildingBlock: UVAHIK_clean_linker_0, # of connection points: 2
#     Edge 11, Type (0, 0), BuildingBlock: UVAHIK_clean_linker_0, # of connection points: 2
#     Edge 12, Type (0, 0), BuildingBlock: UVAHIK_clean_linker_0, # of connection points: 2
#     Edge 13, Type (0, 0), BuildingBlock: UVAHIK_clean_linker_0, # of connection points: 2
#     Edge 14, Type (0, 0), BuildingBlock: UVAHIK_clean_linker_0, # of connection points: 2
#     Edge 15, Type (0, 0), BuildingBlock: UVAHIK_clean_linker_0, # of connection points: 2
#     Edge 16, Type (0, 0), BuildingBlock: UVAHIK_clean_linker_0, # of connection points: 2
#     Edge 17, Type (0, 0), BuildingBlock: UVAHIK_clean_linker_0, # of connection points: 2
#     Edge 18, Type (0, 0), BuildingBlock: UVAHIK_clean_linker_0, # of connection points: 2
#     Edge 19, Type (0, 0), BuildingBlock: UVAHIK_clean_linker_0, # of connection points: 2
#     Edge 20, Type (0, 0), BuildingBlock: UVAHIK_clean_linker_0, # of connection points: 2
#     Edge 21, Type (0, 0), BuildingBlock: UVAHIK_clean_linker_0, # of connection points: 2
#     Edge 22, Type (0, 0), BuildingBlock: UVAHIK_clean_linker_0, # of connection points: 2
#     Edge 23, Type (0, 0), BuildingBlock: UVAHIK_clean_linker_0, # of connection points: 2
# Relax obj value: 0.382
# Max RMSD: 0.352
# Mean RMSD: 0.286
data_MOF--net-tfs--node1-PAMTUU_clean_sbu_0--edge1-UVAHIK_clean_linker_0
_symmetry_space_group_name_H-M    P1
_symmetry_Int_Tables_number       1
_symmetry_cell_setting            triclinic
loop_
_symmetry_equiv_pos_as_xyz
'x, y, z'
_cell_length_a     71.605985
_cell_length_b     64.029138
_cell_length_c     18.659178
_cell_angle_alpha  82.58127
_cell_angle_beta   98.363617
_cell_angle_gamma 131.10861
loop_
_atom_site_label
_atom_site_type_symbol
_atom_site_fract_x
_atom_site_fract_y
_atom_site_fract_z
_atom_type_partial_charge
Tb0 Tb 0.22957 0.51324 0.06077 0.0
Tb1 Tb 0.25538 0.48483 0.11237 0.0
C2 C 0.25257 0.51534 0.21741 0.0
C3 C 0.2129 0.55906 0.03597 0.0
C4 C 0.21371 0.60242 0.05855 0.0
C5 C 0.21473 0.58712 0.11787 0.0
C6 C 0.21441 0.56567 0.10672 0.0
C7 C 0.21235 0.57463 0.97693 0.0
C8 C 0.21281 0.59612 0.98801 0.0
C9 C 0.21026 0.53509 0.02158 0.0
O10 O 0.26955 0.54736 0.0711 0.0
O11 O 0.28134 0.52312 0.04967 0.0
O12 O 0.23311 0.46493 0.01345 0.0
O13 O 0.23104 0.4985 0.96523 0.0
O14 O 0.26467 0.46755 0.19812 0.0
O15 O 0.27715 0.47555 0.09135 0.0
O16 O 0.21803 0.45617 0.14965 0.0
O17 O 0.19926 0.46874 0.06784 0.0
O18 O 0.23378 0.51124 0.1781 0.0
O19 O 0.26812 0.51539 0.18822 0.0
C20 C 0.28606 0.54665 0.05184 0.0
O21 O 0.22797 0.54035 -0.01088 0.0
O22 O 0.2025 0.51581 0.07296 0.0
C23 C 0.22879 0.4767 0.9588 0.0
C24 C 0.27174 0.43887 0.16466 0.0
C25 C 0.26967 0.39294 0.17946 0.0
C26 C 0.26155 0.39908 0.11332 0.0
C27 C 0.26254 0.42184 0.10597 0.0
C28 C 0.27894 0.43214 0.23128 0.0
C29 C 0.27789 0.40943 0.23871 0.0
C30 C 0.27626 0.46506 0.15681 0.0
C31 C 0.19797 0.45139 0.11756 0.0
H32 H 0.2157 0.59169 0.17286 0.0
H33 H 0.21494 0.55402 0.1533 0.0
H34 H 0.21101 0.56976 0.92192 0.0
H35 H 0.21168 0.60725 0.94114 0.0
H36 H 0.25486 0.38661 0.0669 0.0
H37 H 0.25678 0.42653 0.05394 0.0
H38 H 0.28625 0.4451 0.27708 0.0
H39 H 0.28465 0.40561 0.29008 0.0
Tb40 Tb 0.83423 0.17514 0.3952 0.0
Tb41 Tb 0.7743 0.12616 0.42409 0.0
C42 C 0.81672 0.14743 0.54576 0.0
C43 C 0.90303 0.22004 0.36326 0.0
C44 C 0.95265 0.24425 0.35019 0.0
C45 C 0.94454 0.24078 0.41843 0.0
C46 C 0.92002 0.22889 0.42489 0.0
C47 C 0.91076 0.22202 0.29583 0.0
C48 C 0.93524 0.23389 0.28938 0.0
C49 C 0.87896 0.21315 0.36621 0.0
O50 O 0.82314 0.13645 0.36356 0.0
O51 O 0.7878 0.10405 0.42535 0.0
O52 O 0.77877 0.12667 0.31178 0.0
O53 O 0.81053 0.17306 0.30463 0.0
O54 O 0.74656 0.09613 0.4939 0.0
O55 O 0.73705 0.10401 0.38469 0.0
O56 O 0.78136 0.16489 0.40925 0.0
O57 O 0.82362 0.19582 0.43825 0.0
O58 O 0.83271 0.15531 0.49984 0.0
O59 O 0.79626 0.14336 0.52552 0.0
C60 C 0.80544 0.11084 0.38772 0.0
O61 O 0.86086 0.19634 0.31875 0.0
O62 O 0.87106 0.20897 0.42959 0.0
C63 C 0.79333 0.14963 0.27267 0.0
C64 C 0.71293 0.09548 0.47416 0.0
C65 C 0.68211 0.10518 0.50745 0.0
C66 C 0.67172 0.07942 0.48204 0.0
C67 C 0.68704 0.07466 0.46535 0.0
C68 C 0.72341 0.12085 0.50178 0.0
C69 C 0.70814 0.12566 0.51836 0.0
C70 C 0.72891 0.09183 0.44773 0.0
C71 C 0.80188 0.18953 0.42856 0.0
H72 H 0.95741 0.24823 0.46648 0.0
H73 H 0.91474 0.22787 0.4776 0.0
H74 H 0.89824 0.21579 0.24714 0.0
H75 H 0.94087 0.23654 0.23584 0.0
H76 H 0.65177 0.06334 0.47215 0.0
H77 H 0.67867 0.05507 0.44335 0.0
H78 H 0.74341 0.13723 0.5086 0.0
H79 H 0.71672 0.14558 0.53862 0.0
Tb80 Tb 0.58432 0.85412 -0.00589 0.0
Tb81 Tb 0.59515 0.81036 0.0016 0.0
C82 C 0.59935 0.84458 0.86448 0.0
C83 C 0.55371 0.88408 -0.00374 0.0
C84 C 0.51395 0.88201 0.01152 0.0
C85 C 0.53686 0.907 -0.00956 0.0
C86 C 0.55653 0.908 0.98298 0.0
C87 C 0.53093 0.85899 0.017 0.0
C88 C 0.51115 0.85795 0.02453 0.0
C89 C 0.57465 0.88582 0.98671 0.0
O90 O 0.54944 0.81472 0.95781 0.0
O91 O 0.55576 0.78533 0.01279 0.0
O92 O 0.60445 0.82559 0.10823 0.0
O93 O 0.57687 0.83283 0.09986 0.0
O94 O 0.61066 0.79722 0.95492 0.0
O95 O 0.58796 0.77403 0.04572 0.0
O96 O 0.63231 0.85079 0.01659 0.0
O97 O 0.62387 0.8798 0.02546 0.0
O98 O 0.60442 0.86357 0.90313 0.0
O99 O 0.58743 0.81914 0.89086 0.0
C100 C 0.54097 0.7899 0.98198 0.0
O101 O 0.58454 0.88167 0.04499 0.0
O102 O 0.57188 0.87313 0.9316 0.0
C103 C 0.59271 0.83106 0.13805 0.0
C104 C 0.62017 0.77312 0.03772 0.0
C105 C 0.6519 0.76235 0.09668 0.0
C106 C 0.6274 0.74533 0.11663 0.0
C107 C 0.6117 0.7506 0.08724 0.0
C108 C 0.64485 0.79055 0.01879 0.0
C109 C 0.66054 0.78518 0.04794 0.0
C110 C 0.6025 0.7768 0.00322 0.0
C111 C 0.63932 0.87509 0.02802 0.0
H112 H 0.53951 0.92577 0.97869 0.0
H113 H 0.57397 0.92747 0.96638 0.0
H114 H 0.52849 0.84031 0.0273 0.0
H115 H 0.49381 0.83844 0.0413 0.0
H116 H 0.62004 0.72733 0.15312 0.0
H117 H 0.59269 0.73665 0.10209 0.0
H118 H 0.65196 0.80807 0.9806 0.0
H119 H 0.67939 0.79878 0.03197 0.0
Tb120 Tb 0.74708 0.52158 0.41712 0.0
Tb121 Tb 0.77355 0.4934 0.46219 0.0
C122 C 0.7773 0.53189 0.56484 0.0
C123 C 0.7297 0.56672 0.37262 0.0
C124 C 0.73401 0.61403 0.34347 0.0
C125 C 0.71401 0.59029 0.37994 0.0
C126 C 0.7119 0.56692 0.39426 0.0
C127 C 0.75023 0.59067 0.33848 0.0
C128 C 0.75234 0.61414 0.32391 0.0
C129 C 0.72515 0.54056 0.38135 0.0
O130 O 0.78322 0.55003 0.37214 0.0
O131 O 0.80366 0.53769 0.44627 0.0
O132 O 0.76683 0.4937 0.3454 0.0
O133 O 0.7332 0.49091 0.34001 0.0
O134 O 0.77665 0.46748 0.53362 0.0
O135 O 0.79989 0.49025 0.44423 0.0
O136 O 0.73357 0.45927 0.45706 0.0
O137 O 0.72265 0.48383 0.48357 0.0
O138 O 0.77204 0.54304 0.51112 0.0
O139 O 0.77462 0.50981 0.55874 0.0
C140 C 0.80369 0.55447 0.39731 0.0
O141 O 0.73455 0.53653 0.33565 0.0
O142 O 0.72706 0.53212 0.44722 0.0
C143 C 0.74786 0.48999 0.30893 0.0
C144 C 0.79047 0.44766 0.48325 0.0
C145 C 0.78952 0.40354 0.46927 0.0
C146 C 0.80798 0.43012 0.43887 0.0
C147 C 0.8085 0.45193 0.44609 0.0
C148 C 0.77152 0.4209 0.51183 0.0
C149 C 0.77103 0.39905 0.50475 0.0
C150 C 0.79328 0.47183 0.49736 0.0
C151 C 0.71761 0.46019 0.47989 0.0
H152 H 0.69935 0.58929 0.39478 0.0
H153 H 0.69586 0.54859 0.42028 0.0
H154 H 0.76428 0.59103 0.32151 0.0
H155 H 0.7681 0.6322 0.29642 0.0
H156 H 0.82226 0.43419 0.41016 0.0
H157 H 0.82342 0.47237 0.42399 0.0
H158 H 0.75745 0.41696 0.54135 0.0
H159 H 0.75668 0.37888 0.52934 0.0
Tb160 Tb 0.22679 0.87597 0.0936 0.0
Tb161 Tb 0.16624 0.83101 0.12109 0.0
C162 C 0.20847 0.84891 0.24791 0.0
C163 C 0.28968 0.9049 0.06042 0.0
C164 C 0.32471 0.89848 0.05391 0.0
C165 C 0.30085 0.87596 0.07594 0.0
C166 C 0.28347 0.87916 0.07922 0.0
C167 C 0.3134 0.92739 0.03858 0.0
C168 C 0.3308 0.92425 0.03539 0.0
C169 C 0.27125 0.90812 0.06085 0.0
O170 O 0.21208 0.83521 0.06863 0.0
O171 O 0.17905 0.80771 0.13963 0.0
O172 O 0.17074 0.83282 0.00748 0.0
O173 O 0.2049 0.87811 0.00523 0.0
O174 O 0.13691 0.81752 0.18012 0.0
O175 O 0.13034 0.79404 0.09202 0.0
O176 O 0.17683 0.87202 0.10899 0.0
O177 O 0.21938 0.89939 0.13648 0.0
O178 O 0.22569 0.85925 0.20347 0.0
O179 O 0.18651 0.84126 0.22649 0.0
C180 C 0.1955 0.81149 0.10288 0.0
O181 O 0.25198 0.89353 0.01428 0.0
O182 O 0.26486 0.90676 0.12438 0.0
C183 C 0.18709 0.85568 0.97061 0.0
C184 C 0.09501 0.78597 0.12681 0.0
C185 C 0.04356 0.75638 0.12749 0.0
C186 C 0.05224 0.74915 0.08139 0.0
C187 C 0.07766 0.76373 0.08121 0.0
C188 C 0.08647 0.79458 0.16865 0.0
C189 C 0.061 0.78001 0.1687 0.0
C190 C 0.12045 0.79567 0.14205 0.0
C191 C 0.19882 0.89563 0.12863 0.0
H192 H 0.29567 0.85595 0.09127 0.0
H193 H 0.26515 0.86154 0.09605 0.0
H194 H 0.31837 0.94732 0.02334 0.0
H195 H 0.34889 0.94188 0.01723 0.0
H196 H 0.03925 0.73126 0.04826 0.0
H197 H 0.08357 0.75637 0.04889 0.0
H198 H 0.09929 0.81141 0.2051 0.0
H199 H 0.05491 0.78601 0.20512 0.0
Tb200 Tb 0.40894 0.19466 0.50584 0.0
Tb201 Tb 0.42242 0.15319 0.51475 0.0
C202 C 0.4213 0.18264 0.37334 0.0
C203 C 0.38524 0.23381 0.47049 0.0
C204 C 0.35915 0.25064 0.40043 0.0
C205 C 0.3577 0.23051 0.37029 0.0
C206 C 0.37077 0.2222 0.40504 0.0
C207 C 0.386 0.25311 0.50168 0.0
C208 C 0.37309 0.26145 0.4671 0.0
C209 C 0.40078 0.22748 0.50613 0.0
O210 O 0.37291 0.15408 0.481 0.0
O211 O 0.38434 0.12829 0.4672 0.0
O212 O 0.39877 0.1397 0.59955 0.0
O213 O 0.4124 0.18252 0.61723 0.0
O214 O 0.42593 0.1292 0.4606 0.0
O215 O 0.43336 0.13268 0.57708 0.0
O216 O 0.45499 0.1911 0.56515 0.0
O217 O 0.44922 0.22126 0.5129 0.0
O218 O 0.40629 0.18485 0.39663 0.0
O219 O 0.43573 0.18035 0.41858 0.0
C220 C 0.36766 0.13126 0.46382 0.0
O221 O 0.38986 0.20463 0.54647 0.0
O222 O 0.41686 0.23178 0.46732 0.0
C223 C 0.40134 0.15681 0.63963 0.0
C224 C 0.45652 0.12715 0.51637 0.0
C225 C 0.49842 0.13179 0.51419 0.0
C226 C 0.50072 0.15245 0.54455 0.0
C227 C 0.47995 0.15019 0.54545 0.0
C228 C 0.45425 0.10675 0.48513 0.0
C229 C 0.47499 0.10904 0.48393 0.0
C230 C 0.43411 0.12343 0.52013 0.0
C231 C 0.46352 0.21636 0.54668 0.0
H232 H 0.34715 0.22189 0.31889 0.0
H233 H 0.37001 0.20723 0.38028 0.0
H234 H 0.397 0.26217 0.55235 0.0
H235 H 0.37421 0.2766 0.49231 0.0
H236 H 0.51857 0.17037 0.56754 0.0
H237 H 0.48211 0.16623 0.56963 0.0
H238 H 0.43631 0.08879 0.4626 0.0
H239 H 0.47254 0.09261 0.46093 0.0
C240 C 0.36021 0.29002 0.35775 0.0
C241 C 0.34708 0.26136 0.36199 0.0
C242 C 0.34884 0.30043 0.32512 0.0
C243 C 0.28787 0.28129 0.28272 0.0
H244 H 0.32591 0.3512 0.17066 0.0
C245 C 0.26612 0.35436 0.24982 0.0
C246 C 0.27158 0.37099 0.1857 0.0
C247 C 0.27141 0.33665 0.2599 0.0
C248 C 0.31479 0.33143 0.20073 0.0
H249 H 0.31182 0.22112 0.334 0.0
H250 H 0.29179 0.23942 0.27639 0.0
H251 H 0.34323 0.32875 0.20698 0.0
H252 H 0.28569 0.38087 0.08027 0.0
H253 H 0.29438 0.34952 0.09719 0.0
H254 H 0.25954 0.28421 0.27714 0.0
C255 C 0.31091 0.25377 0.29889 0.0
C256 C 0.32488 0.31872 0.2223 0.0
C257 C 0.32241 0.24332 0.3313 0.0
C258 C 0.28112 0.36827 0.13019 0.0
C259 C 0.28638 0.35053 0.14023 0.0
C260 C 0.27776 0.29404 0.26116 0.0
C261 C 0.324 0.28245 0.29582 0.0
C262 C 0.31181 0.29387 0.26505 0.0
C263 C 0.28226 0.33511 0.20602 0.0
C264 C 0.29135 0.31959 0.22124 0.0
H265 H 0.37935 0.30448 0.38008 0.0
H266 H 0.35937 0.32259 0.32453 0.0
H267 H 0.27738 0.26221 0.31588 0.0
H268 H 0.25844 0.35566 0.29325 0.0
H269 H 0.26813 0.32523 0.31143 0.0
C270 C 0.17064 0.40779 0.19556 0.0
C271 C 0.17317 0.42659 0.14063 0.0
C272 C 0.14738 0.38589 0.22154 0.0
C273 C 0.08796 0.36787 0.23965 0.0
H274 H 0.06202 0.29227 0.27641 0.0
C275 C 0.99726 0.28649 0.3762 0.0
C276 C 0.97955 0.26145 0.34057 0.0
C277 C 0.02199 0.30494 0.35917 0.0
C278 C 0.06907 0.31331 0.26642 0.0
H279 H 0.15297 0.43636 0.06808 0.0
H280 H 0.11267 0.39836 0.1133 0.0
H281 H 0.10283 0.32767 0.22806 0.0
H282 H 0.97438 0.23535 0.26261 0.0
H283 H 0.01763 0.26781 0.2322 0.0
H284 H 0.05428 0.35372 0.2766 0.0
C285 C 0.12869 0.40072 0.13687 0.0
C286 C 0.09245 0.33357 0.23922 0.0
C287 C 0.15181 0.42244 0.11069 0.0
C288 C 0.9875 0.25462 0.29041 0.0
C289 C 0.01232 0.2731 0.27345 0.0
C290 C 0.06479 0.34777 0.26726 0.0
C291 C 0.12628 0.38252 0.19344 0.0
C292 C 0.10197 0.36099 0.22475 0.0
C293 C 0.02965 0.29883 0.30609 0.0
C294 C 0.05497 0.32022 0.28055 0.0
H295 H 0.1867 0.41035 0.21979 0.0
H296 H 0.14608 0.37222 0.26533 0.0
H297 H 0.09493 0.3889 0.22994 0.0
H298 H 0.9918 0.29259 0.41459 0.0
H299 H 0.035 0.32443 0.38602 0.0
C300 C 0.79151 0.06323 0.39975 0.0
C301 C 0.80157 0.08789 0.35817 0.0
C302 C 0.78198 0.03919 0.36673 0.0
C303 C 0.77082 0.0112 0.18401 0.0
H304 H 0.70959 0.94672 0.26445 0.0
C305 C 0.67662 0.92531 0.03244 0.0
C306 C 0.6654 0.89768 0.05327 0.0
C307 C 0.69928 0.94711 0.06712 0.0
C308 C 0.72689 0.96439 0.24204 0.0
H309 H 0.81084 0.10734 0.25047 0.0
H310 H 0.79293 0.06546 0.19205 0.0
H311 H 0.73867 0.98789 0.33427 0.0
H312 H 0.66941 0.87104 0.12416 0.0
H313 H 0.70863 0.90939 0.18761 0.0
H314 H 0.75714 0.98795 0.08834 0.0
C315 C 0.79315 0.06442 0.25045 0.0
C316 C 0.74379 0.98812 0.28225 0.0
C317 C 0.80344 0.08863 0.28396 0.0
C318 C 0.67783 0.89219 0.10675 0.0
C319 C 0.70016 0.91403 0.14304 0.0
C320 C 0.7535 0.98765 0.14298 0.0
C321 C 0.78133 0.03901 0.29086 0.0
C322 C 0.76573 0.01225 0.25314 0.0
C323 C 0.71073 0.94161 0.12445 0.0
C324 C 0.73119 0.96433 0.17124 0.0
H325 H 0.79 0.06223 0.45726 0.0
H326 H 0.774 0.02045 0.40048 0.0
H327 H 0.78773 0.0289 0.16016 0.0
H328 H 0.66732 0.93001 -0.00852 0.0
H329 H 0.70697 0.96823 0.05257 0.0
C330 C 0.74042 0.65018 0.25166 0.0
C331 C 0.73452 0.63757 0.32168 0.0
C332 C 0.73755 0.6696 0.22761 0.0
C333 C 0.72645 0.71365 0.2885 0.0
H334 H 0.69192 0.70086 0.09735 0.0
C335 C 0.66794 0.74615 0.19644 0.0
C336 C 0.66778 0.75526 0.12384 0.0
C337 C 0.6809 0.73684 0.22023 0.0
C338 C 0.70197 0.70511 0.15029 0.0
H339 H 0.72259 0.6369 0.42294 0.0
H340 H 0.717 0.67019 0.38056 0.0
H341 H 0.70646 0.67583 0.13976 0.0
H342 H 0.68177 0.76256 0.01983 0.0
H343 H 0.70461 0.74656 0.06159 0.0
H344 H 0.7211 0.74226 0.29968 0.0
C345 C 0.72402 0.66528 0.34424 0.0
C346 C 0.71036 0.69077 0.17465 0.0
C347 C 0.72695 0.64593 0.36832 0.0
C348 C 0.68165 0.75584 0.07622 0.0
C349 C 0.69453 0.74642 0.09995 0.0
C350 C 0.71797 0.72795 0.26417 0.0
C351 C 0.72868 0.67683 0.27297 0.0
C352 C 0.72233 0.69448 0.24454 0.0
C353 C 0.69393 0.73634 0.17189 0.0
C354 C 0.70526 0.72348 0.19525 0.0
H355 H 0.74616 0.64412 0.21416 0.0
H356 H 0.74168 0.67842 0.17276 0.0
H357 H 0.73594 0.71733 0.34218 0.0
H358 H 0.65765 0.74574 0.23461 0.0
H359 H 0.67988 0.72901 0.27584 0.0
C360 C 0.00457 0.74736 0.14695 0.0
C361 C 0.0167 0.7373 0.13993 0.0
C362 C 0.97984 0.72915 0.16502 0.0
C363 C 0.92406 0.65342 0.18019 0.0
H364 H 0.90604 0.67641 0.31949 0.0
C365 C 0.84684 0.57744 0.37114 0.0
C366 C 0.82747 0.57813 0.3665 0.0
C367 C 0.8686 0.59835 0.33723 0.0
C368 C 0.91077 0.66989 0.27989 0.0
H369 H 0.01246 0.70031 0.14735 0.0
H370 H 0.96995 0.66892 0.18001 0.0
H371 H 0.94654 0.7102 0.26912 0.0
H372 H 0.81607 0.60176 0.32427 0.0
H373 H 0.85485 0.63908 0.26678 0.0
H374 H 0.88886 0.61275 0.19465 0.0
C375 C 0.97899 0.69061 0.16925 0.0
C376 C 0.9339 0.68922 0.25068 0.0
C377 C 0.0035 0.70868 0.15055 0.0
C378 C 0.83068 0.60068 0.32881 0.0
C379 C 0.85279 0.62199 0.29605 0.0
C380 C 0.90122 0.6341 0.21032 0.0
C381 C 0.9668 0.70053 0.17724 0.0
C382 C 0.94109 0.68107 0.20166 0.0
C383 C 0.87171 0.62069 0.29904 0.0
C384 C 0.89459 0.64203 0.2614 0.0
H385 H 0.01426 0.76931 0.13888 0.0
H386 H 0.971 0.73754 0.16978 0.0
H387 H 0.92855 0.64648 0.14112 0.0
H388 H 0.84494 0.5603 0.39922 0.0
H389 H 0.88304 0.59703 0.34059 0.0
C390 C 0.18916 0.91708 0.20155 0.0
C391 C 0.20151 0.91937 0.14523 0.0
C392 C 0.19805 0.94098 0.23434 0.0
C393 C 0.24634 0.01884 0.22494 0.0
H394 H 0.26012 0.00879 0.42921 0.0
C395 C 0.32555 0.11149 0.4027 0.0
C396 C 0.3419 0.10759 0.43768 0.0
C397 C 0.30207 0.08905 0.37223 0.0
C398 C 0.25622 0.01196 0.37246 0.0
H399 H 0.23097 0.94798 0.07404 0.0
H400 H 0.2462 0.98943 0.12969 0.0
H401 H 0.22818 0.96839 0.35801 0.0
H402 H 0.34599 0.07699 0.47136 0.0
H403 H 0.30535 0.03818 0.41915 0.0
H404 H 0.27586 0.06243 0.23865 0.0
C405 C 0.22974 0.96956 0.14912 0.0
C406 C 0.23766 0.98878 0.33168 0.0
C407 C 0.22107 0.94578 0.11715 0.0
C408 C 0.33392 0.08074 0.44435 0.0
C409 C 0.31047 0.05839 0.41503 0.0
C410 C 0.26492 0.04207 0.26585 0.0
C411 C 0.21926 0.96742 0.2107 0.0
C412 C 0.23336 0.99186 0.25663 0.0
C413 C 0.2944 0.0623 0.37757 0.0
C414 C 0.27088 0.03875 0.33921 0.0
H415 H 0.17422 0.89686 0.2246 0.0
H416 H 0.18941 0.93866 0.28121 0.0
H417 H 0.24325 0.02194 0.16744 0.0
H418 H 0.33123 0.13198 0.39657 0.0
H419 H 0.29007 0.09267 0.34363 0.0
C420 C 0.18076 0.76394 0.1421 0.0
C421 C 0.19588 0.78875 0.09995 0.0
C422 C 0.18181 0.74295 0.13974 0.0
C423 C 0.20059 0.71756 0.02505 0.0
H424 H 0.20383 0.68093 0.20277 0.0
C425 C 0.22626 0.64927 0.02767 0.0
C426 C 0.21266 0.6242 0.06946 0.0
C427 C 0.22394 0.66895 0.03403 0.0
C428 C 0.20265 0.69073 0.1526 0.0
H429 H 0.22389 0.81084 0.022 0.0
H430 H 0.22568 0.77446 0.01829 0.0
H431 H 0.19927 0.71531 0.20793 0.0
H432 H 0.1862 0.60034 0.1515 0.0
H433 H 0.18207 0.63471 0.16249 0.0
H434 H 0.20394 0.69309 0.96955 0.0
C435 C 0.21286 0.77105 0.05263 0.0
C436 C 0.20001 0.7104 0.15556 0.0
C437 C 0.21191 0.79201 0.0552 0.0
C438 C 0.19715 0.61959 0.11914 0.0
C439 C 0.19477 0.63928 0.12538 0.0
C440 C 0.20316 0.69789 0.02206 0.0
C441 C 0.19785 0.74628 0.09483 0.0
C442 C 0.19923 0.72425 0.09185 0.0
C443 C 0.20789 0.66404 0.08217 0.0
C444 C 0.2045 0.68444 0.08581 0.0
H445 H 0.16824 0.76079 0.17719 0.0
H446 H 0.16988 0.72399 0.1725 0.0
H447 H 0.19958 0.72748 0.97486 0.0
H448 H 0.23869 0.65365 -0.01021 0.0
H449 H 0.23475 0.68807 0.0011 0.0
C450 C 0.5242 0.12628 0.45509 0.0
C451 C 0.52014 0.1334 0.51569 0.0
C452 C 0.54379 0.12627 0.45778 0.0
C453 C 0.58394 0.11984 0.58658 0.0
H454 H 0.62211 0.14545 0.42038 0.0
C455 C 0.64313 0.0909 0.54918 0.0
C456 C 0.6659 0.11119 0.51817 0.0
C457 C 0.62713 0.09595 0.55426 0.0
C458 C 0.61183 0.13849 0.46761 0.0
H459 H 0.53365 0.14641 0.62645 0.0
H460 H 0.56807 0.14668 0.63086 0.0
H461 H 0.59142 0.15096 0.41789 0.0
H462 H 0.68986 0.15289 0.46922 0.0
H463 H 0.66213 0.16184 0.47924 0.0
H464 H 0.60436 0.10735 0.63625 0.0
C465 C 0.55596 0.1409 0.58144 0.0
C466 C 0.59405 0.14138 0.46584 0.0
C467 C 0.53641 0.14103 0.57864 0.0
C468 C 0.67257 0.1369 0.49405 0.0
C469 C 0.65655 0.14192 0.499 0.0
C470 C 0.60168 0.11687 0.58827 0.0
C471 C 0.55974 0.1333 0.52122 0.0
C472 C 0.57971 0.13182 0.52497 0.0
C473 C 0.6335 0.12137 0.52825 0.0
C474 C 0.61566 0.12592 0.52851 0.0
H475 H 0.51214 0.12057 0.40556 0.0
H476 H 0.54604 0.12006 0.41066 0.0
H477 H 0.57305 0.11206 0.6328 0.0
H478 H 0.63757 0.07099 0.56893 0.0
H479 H 0.60941 0.07959 0.57657 0.0
C480 C 0.50468 0.73892 0.98467 0.0
C481 C 0.51382 0.76629 0.97671 0.0
C482 C 0.47914 0.71651 0.98301 0.0
C483 C 0.42071 0.69682 0.02047 0.0
H484 H 0.39103 0.63176 0.91461 0.0
C485 C 0.31645 0.5985 0.02942 0.0
C486 C 0.31101 0.5729 0.03459 0.0
C487 C 0.34026 0.62319 0.01456 0.0
C488 C 0.39904 0.64965 0.94503 0.0
H489 H 0.50327 0.79161 0.96031 0.0
H490 H 0.45848 0.75227 0.95852 0.0
H491 H 0.43445 0.67293 0.90263 0.0
H492 H 0.32642 0.55327 0.02824 0.0
H493 H 0.36777 0.59604 0.00422 0.0
H494 H 0.38562 0.67326 0.06511 0.0
C495 C 0.4712 0.74828 0.96571 0.0
C496 C 0.4239 0.67327 0.93787 0.0
C497 C 0.49681 0.77076 0.96634 0.0
C498 C 0.32985 0.57256 0.0242 0.0
C499 C 0.3536 0.59716 0.00983 0.0
C500 C 0.39586 0.67307 0.02821 0.0
C501 C 0.46213 0.72093 0.97421 0.0
C502 C 0.43512 0.69693 0.97644 0.0
C503 C 0.35918 0.62282 0.00483 0.0
C504 C 0.38485 0.64899 -0.00838 0.0
H505 H 0.51727 0.73474 -0.00742 0.0
H506 H 0.47271 0.69568 -0.00953 0.0
H507 H 0.42894 0.71471 0.0513 0.0
H508 H 0.30233 0.5995 0.03682 0.0
H509 H 0.3438 0.64253 0.01033 0.0
C510 C 0.8131 0.38678 0.47773 0.0
C511 C 0.79028 0.381 0.46652 0.0
C512 C 0.81404 0.36578 0.47537 0.0
C513 C 0.7758 0.28977 0.49097 0.0
H514 H 0.82824 0.30562 0.39224 0.0
C515 C 0.77729 0.2046 0.43003 0.0
C516 C 0.80043 0.21107 0.43762 0.0
C517 C 0.77589 0.22505 0.43609 0.0
C518 C 0.81367 0.30095 0.42085 0.0
H519 H 0.7505 0.34852 0.44404 0.0
H520 H 0.75214 0.31176 0.43995 0.0
H521 H 0.82587 0.34165 0.39692 0.0
H522 H 0.84019 0.24408 0.45916 0.0
H523 H 0.8377 0.27968 0.47031 0.0
H524 H 0.7636 0.24902 0.5148 0.0
C525 C 0.76929 0.33255 0.45127 0.0
C526 C 0.81229 0.3216 0.42344 0.0
C527 C 0.76835 0.35361 0.45355 0.0
C528 C 0.82208 0.23838 0.45262 0.0
C529 C 0.82067 0.25885 0.45858 0.0
C530 C 0.77719 0.2691 0.48842 0.0
C531 C 0.79217 0.33844 0.46189 0.0
C532 C 0.79337 0.31628 0.45861 0.0
C533 C 0.79758 0.25247 0.44981 0.0
C534 C 0.79617 0.27446 0.45339 0.0
H535 H 0.83029 0.40751 0.48946 0.0
H536 H 0.83191 0.37092 0.48514 0.0
H537 H 0.7612 0.28513 0.51932 0.0
H538 H 0.7602 0.18377 0.41864 0.0
H539 H 0.75783 0.21948 0.42836 0.0
C540 C 0.33611 0.87136 0.02163 0.0
C541 C 0.34323 0.8952 0.05004 0.0
C542 C 0.35373 0.86863 0.01676 0.0
C543 C 0.42137 0.91046 0.01207 0.0
H544 H 0.40663 0.84052 0.06283 0.0
C545 C 0.49798 0.90338 0.05069 0.0
C546 C 0.49319 0.88132 0.01932 0.0
C547 C 0.47891 0.90382 0.05414 0.0
C548 C 0.41091 0.86009 0.04774 0.0
H549 H 0.37428 0.93447 0.09753 0.0
H550 H 0.40493 0.92972 0.08923 0.0
H551 H 0.3747 0.84372 0.06882 0.0
H552 H 0.46444 0.84206 0.96834 0.0
H553 H 0.43098 0.84274 0.97488 0.0
H554 H 0.45757 0.92691 -0.00852 0.0
C555 C 0.38585 0.91336 0.06934 0.0
C556 C 0.39263 0.86193 0.05111 0.0
C557 C 0.36827 0.91609 0.07416 0.0
C558 C 0.46869 0.85924 -0.00661 0.0
C559 C 0.44955 0.85965 -0.00298 0.0
C560 C 0.4396 0.90864 0.00886 0.0
C561 C 0.37883 0.88969 0.0402 0.0
C562 C 0.39777 0.88724 0.03403 0.0
C563 C 0.45455 0.88216 0.0265 0.0
C564 C 0.43468 0.88354 0.02741 0.0
H565 H 0.31701 0.85504 0.00178 0.0
H566 H 0.34777 0.85029 -0.00669 0.0
H567 H 0.42576 0.93009 -0.003 0.0
H568 H 0.51653 0.92041 0.07261 0.0
H569 H 0.48325 0.92116 0.07863 0.0
C570 C 0.6743 0.43451 0.51208 0.0
C571 C 0.69292 0.43406 0.49956 0.0
C572 C 0.65068 0.40998 0.52797 0.0
C573 C 0.6083 0.33395 0.51004 0.0
H574 H 0.56998 0.33412 0.63672 0.0
C575 C 0.50775 0.23594 0.5699 0.0
C576 C 0.49053 0.2401 0.55851 0.0
C577 C 0.53334 0.2586 0.57287 0.0
C578 C 0.58047 0.33377 0.60122 0.0
H579 H 0.70139 0.40737 0.49562 0.0
H580 H 0.66023 0.36449 0.52495 0.0
H581 H 0.61333 0.37538 0.62367 0.0
H582 H 0.48673 0.27135 0.5446 0.0
H583 H 0.53127 0.31077 0.55086 0.0
H584 H 0.57526 0.29225 0.48771 0.0
C585 C 0.66378 0.38384 0.52102 0.0
C586 C 0.60529 0.35745 0.59341 0.0
C587 C 0.68744 0.40845 0.50454 0.0
C588 C 0.49947 0.2674 0.55321 0.0
C589 C 0.52501 0.29 0.55717 0.0
C590 C 0.58352 0.31016 0.51846 0.0
C591 C 0.64502 0.38427 0.53247 0.0
C592 C 0.61939 0.3581 0.54643 0.0
C593 C 0.54222 0.28587 0.56568 0.0
C594 C 0.5692 0.31002 0.56298 0.0
H595 H 0.67777 0.45382 0.50826 0.0
H596 H 0.63665 0.41117 0.53491 0.0
H597 H 0.61841 0.33372 0.47273 0.0
H598 H 0.50151 0.21521 0.57401 0.0
H599 H 0.54619 0.2548 0.58 0.0
C600 C 0.23449 0.45711 0.86582 0.0
C601 C 0.22344 0.467 0.8858 0.0
C602 C 0.23419 0.45418 0.79275 0.0
C603 C 0.20821 0.45535 0.60786 0.0
H604 H 0.27701 0.50656 0.56095 0.0
C605 C 0.23519 0.51114 0.32983 0.0
C606 C 0.25258 0.51283 0.29685 0.0
C607 C 0.23125 0.50251 0.40257 0.0
C608 C 0.25769 0.49182 0.57293 0.0
H609 H 0.20108 0.47848 0.84748 0.0
H610 H 0.20027 0.47303 0.7202 0.0
H611 H 0.26732 0.49045 0.68626 0.0
H612 H 0.28069 0.50865 0.31528 0.0
H613 H 0.2736 0.49337 0.44186 0.0
H614 H 0.19858 0.45723 0.49475 0.0
C615 C 0.20931 0.46777 0.76035 0.0
C616 C 0.25213 0.48245 0.64457 0.0
C617 C 0.20996 0.47114 0.83302 0.0
C618 C 0.26715 0.50759 0.33913 0.0
C619 C 0.26306 0.49875 0.4117 0.0
C620 C 0.21374 0.46454 0.5361 0.0
C621 C 0.22245 0.4606 0.73941 0.0
C622 C 0.22742 0.46484 0.66283 0.0
C623 C 0.24452 0.49529 0.44343 0.0
C624 C 0.23859 0.48358 0.51835 0.0
H625 H 0.24496 0.45376 0.90584 0.0
H626 H 0.24434 0.4485 0.77759 0.0
H627 H 0.18901 0.44167 0.62083 0.0
H628 H 0.22384 0.51528 0.29874 0.0
H629 H 0.21737 0.50086 0.42633 0.0
C630 C 0.81389 0.1716 0.15705 0.0
C631 C 0.79494 0.14792 0.19627 0.0
C632 C 0.81806 0.16917 0.08912 0.0
C633 C 0.78822 0.12401 0.93621 0.0
H634 H 0.85594 0.16461 0.89016 0.0
C635 C 0.80445 0.11762 0.65692 0.0
C636 C 0.8216 0.14364 0.62264 0.0
C637 C 0.80465 0.115 0.73212 0.0
C638 C 0.83696 0.15313 0.90241 0.0
H639 H 0.76492 0.10326 0.19408 0.0
H640 H 0.77216 0.09914 0.07534 0.0
H641 H 0.8481 0.16705 0.01087 0.0
H642 H 0.85343 0.18697 0.63778 0.0
H643 H 0.85335 0.18279 0.76988 0.0
H644 H 0.77696 0.11086 0.82776 0.0
C645 C 0.78376 0.11954 0.09715 0.0
C646 C 0.83249 0.15462 0.97117 0.0
C647 C 0.77958 0.12194 0.16502 0.0
C648 C 0.84024 0.16668 0.66394 0.0
C649 C 0.84017 0.16421 0.73936 0.0
C650 C 0.79266 0.1226 0.86765 0.0
C651 C 0.8033 0.14306 0.0592 0.0
C652 C 0.80809 0.14039 0.98815 0.0
C653 C 0.82153 0.13859 0.77374 0.0
C654 C 0.81709 0.13742 0.84964 0.0
H655 H 0.82605 0.19191 0.17971 0.0
H656 H 0.83294 0.1877 0.06019 0.0
H657 H 0.76927 0.1131 0.94763 0.0
H658 H 0.78996 0.09965 0.62531 0.0
H659 H 0.79047 0.09488 0.75731 0.0
C660 C 0.62144 0.87973 0.76352 0.0
C661 C 0.60822 0.85232 0.79189 0.0
C662 C 0.62983 0.88702 0.69447 0.0
C663 C 0.62337 0.88616 0.53019 0.0
H664 H 0.64179 0.84914 0.45223 0.0
C665 C 0.58691 0.84232 0.25121 0.0
C666 C 0.60108 0.84052 0.21227 0.0
C667 C 0.59585 0.85296 0.32007 0.0
C668 C 0.63731 0.86033 0.47284 0.0
H669 H 0.59412 0.81132 0.77174 0.0
H670 H 0.60817 0.82385 0.65084 0.0
H671 H 0.64535 0.85223 0.58243 0.0
H672 H 0.63614 0.84953 0.21283 0.0
H673 H 0.65187 0.86855 0.33226 0.0
H674 H 0.6146 0.89351 0.42059 0.0
C675 C 0.6125 0.83984 0.68227 0.0
C676 C 0.63915 0.86185 0.54746 0.0
C677 C 0.60411 0.83255 0.75108 0.0
C678 C 0.62455 0.85011 0.24235 0.0
C679 C 0.63366 0.86117 0.31054 0.0
C680 C 0.62176 0.88488 0.45542 0.0
C681 C 0.6252 0.86705 0.65309 0.0
C682 C 0.63071 0.8732 0.57665 0.0
C683 C 0.61927 0.86237 0.35046 0.0
C684 C 0.62727 0.87045 0.42646 0.0
H685 H 0.6251 0.89548 0.79419 0.0
H686 H 0.63958 0.90812 0.673 0.0
H687 H 0.61684 0.89515 0.55139 0.0
H688 H 0.56884 0.83524 0.22886 0.0
H689 H 0.58407 0.85304 0.35025 0.0
C690 C 0.74888 0.47882 0.18766 0.0
C691 C 0.74866 0.49497 0.23063 0.0
C692 C 0.75377 0.48681 0.11493 0.0
C693 C 0.76191 0.53763 0.96855 0.0
H694 H 0.79442 0.51762 0.88514 0.0
C695 C 0.80113 0.54463 0.68481 0.0
C696 C 0.7824 0.54139 0.63756 0.0
C697 C 0.80209 0.54698 0.75871 0.0
C698 C 0.78602 0.5242 0.90775 0.0
H699 H 0.75389 0.53221 0.23375 0.0
H700 H 0.76393 0.54716 0.10931 0.0
H701 H 0.78503 0.50454 0.00993 0.0
H702 H 0.75099 0.53973 0.62771 0.0
H703 H 0.75128 0.54167 0.75653 0.0
H704 H 0.76458 0.55907 0.86795 0.0
C705 C 0.75897 0.52754 0.12899 0.0
C706 C 0.77991 0.51589 0.97927 0.0
C707 C 0.75321 0.51901 0.20059 0.0
C708 C 0.76572 0.54246 0.66367 0.0
C709 C 0.76605 0.54373 0.73778 0.0
C710 C 0.76883 0.54682 0.89781 0.0
C711 C 0.7596 0.51175 0.08524 0.0
C712 C 0.76713 0.52179 0.01003 0.0
C713 C 0.78356 0.54474 0.78667 0.0
C714 C 0.78027 0.53948 0.86561 0.0
H715 H 0.74568 0.46036 0.21058 0.0
H716 H 0.75339 0.47365 0.08259 0.0
H717 H 0.75192 0.54249 -0.01025 0.0
H718 H 0.81429 0.54407 0.66502 0.0
H719 H 0.81649 0.54891 0.79416 0.0
C720 C 0.19288 0.82489 0.36641 0.0
C721 C 0.21321 0.84554 0.32606 0.0
C722 C 0.19562 0.82426 0.44158 0.0
C723 C 0.2044 0.82224 0.60163 0.0
H724 H 0.24076 0.89449 0.67803 0.0
C725 C 0.19037 0.83132 0.88734 0.0
C726 C 0.19163 0.85344 0.89899 0.0
C727 C 0.19791 0.83066 0.82358 0.0
C728 C 0.23026 0.87411 0.65746 0.0
H729 H 0.25284 0.88038 0.33206 0.0
H730 H 0.25786 0.87913 0.4652 0.0
H731 H 0.24596 0.89133 0.55524 0.0
H732 H 0.20157 0.89214 0.85397 0.0
H733 H 0.21252 0.88984 0.739 0.0
H734 H 0.18665 0.80482 0.6999 0.0
C735 C 0.23966 0.8637 0.43821 0.0
C736 C 0.23372 0.87231 0.58743 0.0
C737 C 0.23687 0.8643 0.36222 0.0
C738 C 0.20017 0.87472 0.84545 0.0
C739 C 0.2069 0.87358 0.78028 0.0
C740 C 0.20041 0.824 0.67061 0.0
C741 C 0.21884 0.8442 0.4786 0.0
C742 C 0.22006 0.84631 0.55771 0.0
C743 C 0.20608 0.85164 0.76869 0.0
C744 C 0.21268 0.84996 0.69872 0.0
H745 H 0.17445 0.80992 0.33983 0.0
H746 H 0.17904 0.80916 0.47028 0.0
H747 H 0.19405 0.80186 0.58112 0.0
H748 H 0.18455 0.81505 0.92888 0.0
H749 H 0.19764 0.81384 0.81819 0.0
C750 C 0.42332 0.16047 0.27873 0.0
C751 C 0.41772 0.17625 0.29753 0.0
C752 C 0.41589 0.15001 0.20995 0.0
C753 C 0.37327 0.13679 0.04777 0.0
H754 H 0.41941 0.14019 0.94964 0.0
C755 C 0.39124 0.12558 0.74925 0.0
C756 C 0.39325 0.14756 0.71312 0.0
C757 C 0.38662 0.11915 0.8222 0.0
C758 C 0.40602 0.13837 0.97703 0.0
H759 H 0.40108 0.19462 0.25895 0.0
H760 H 0.38946 0.17784 0.13709 0.0
H761 H 0.42876 0.15089 0.07655 0.0
H762 H 0.38972 0.17826 0.72172 0.0
H763 H 0.38152 0.1669 0.8493 0.0
H764 H 0.35173 0.12668 0.94547 0.0
C765 C 0.39855 0.17243 0.17638 0.0
C766 C 0.41138 0.14457 0.04969 0.0
C767 C 0.40557 0.18246 0.24563 0.0
C768 C 0.38863 0.16152 0.74895 0.0
C769 C 0.38359 0.15476 0.82143 0.0
C770 C 0.36813 0.13105 0.97464 0.0
C771 C 0.40317 0.15561 0.15835 0.0
C772 C 0.39553 0.14486 0.08501 0.0
C773 C 0.38349 0.13426 0.85909 0.0
C774 C 0.38494 0.13276 0.93842 0.0
H775 H 0.43238 0.15504 0.31808 0.0
H776 H 0.41958 0.13697 0.19793 0.0
H777 H 0.36034 0.13605 0.07426 0.0
H778 H 0.39459 0.1144 0.72243 0.0
H779 H 0.38672 0.10336 0.85073 0.0
loop_
_geom_bond_atom_site_label_1
_geom_bond_atom_site_label_2
_geom_bond_distance
_geom_bond_site_symmetry_2
_ccdc_geom_bond_type
Tb0 C9 2.764 . S
Tb0 O10 2.325 . S
Tb0 O13 2.303 1_554 S
Tb0 O17 2.322 . S
Tb0 O18 2.349 . S
Tb0 O21 2.415 1_554 S
Tb0 O22 2.399 . S
Tb1 O11 2.322 . S
Tb1 O12 2.349 1_554 S
Tb1 O14 2.415 . S
Tb1 O15 2.399 . S
Tb1 O16 2.325 . S
Tb1 O19 2.303 . S
Tb1 C30 2.764 . S
C2 O18 1.261 . S
C2 O19 1.257 . S
C3 C6 1.358 1_556 S
C3 C7 1.332 . S
C3 C9 1.504 1_556 S
C4 C5 1.373 1_556 S
C4 C8 1.308 . S
C5 C4 1.373 1_554 S
C5 C6 1.429 . S
C5 H32 0.932 . S
C6 C3 1.358 1_554 S
C6 C5 1.429 . S
C6 H33 0.930 . S
C7 C3 1.332 . S
C7 C8 1.394 . S
C7 H34 0.932 . S
C8 C4 1.308 . S
C8 C7 1.394 . S
C8 H35 0.929 . S
C9 Tb0 2.764 . S
C9 C3 1.504 1_554 S
C9 O21 1.239 1_554 S
C9 O22 1.263 . S
O10 Tb0 2.325 . S
O10 C20 1.236 . S
O11 Tb1 2.322 . S
O11 C20 1.257 . S
O12 Tb1 2.349 1_556 S
O12 C23 1.261 . S
O13 Tb0 2.303 1_556 S
O13 C23 1.257 . S
O14 Tb1 2.415 . S
O14 C30 1.239 . S
O15 Tb1 2.399 . S
O15 C30 1.263 . S
O16 Tb1 2.325 . S
O16 C31 1.236 . S
O17 Tb0 2.322 . S
O17 C31 1.257 . S
O18 Tb0 2.349 . S
O18 C2 1.261 . S
O19 Tb1 2.303 . S
O19 C2 1.257 . S
C20 O10 1.236 . S
C20 O11 1.257 . S
O21 Tb0 2.415 1_556 S
O21 C9 1.239 1_556 S
O22 Tb0 2.399 . S
O22 C9 1.263 . S
C23 O12 1.261 . S
C23 O13 1.257 . S
C24 C27 1.358 . S
C24 C28 1.332 . S
C24 C30 1.504 . S
C25 C26 1.373 . S
C25 C29 1.308 . S
C26 C25 1.373 . S
C26 C27 1.429 . S
C26 H36 0.932 . S
C27 C24 1.358 . S
C27 C26 1.429 . S
C27 H37 0.930 . S
C28 C24 1.332 . S
C28 C29 1.394 . S
C28 H38 0.932 . S
C29 C25 1.308 . S
C29 C28 1.394 . S
C29 H39 0.929 . S
C30 Tb1 2.764 . S
C30 O14 1.239 . S
C30 O15 1.263 . S
C30 C24 1.504 . S
C31 O16 1.236 . S
C31 O17 1.257 . S
H32 C5 0.932 . S
H33 C6 0.930 . S
H34 C7 0.932 . S
H35 C8 0.929 . S
H36 C26 0.932 . S
H37 C27 0.930 . S
H38 C28 0.932 . S
H39 C29 0.929 . S
Tb40 C49 2.764 . S
Tb40 O50 2.325 . S
Tb40 O53 2.303 . S
Tb40 O57 2.322 . S
Tb40 O58 2.349 . S
Tb40 O61 2.415 . S
Tb40 O62 2.399 . S
Tb41 O51 2.322 . S
Tb41 O52 2.349 . S
Tb41 O54 2.415 . S
Tb41 O55 2.399 . S
Tb41 O56 2.325 . S
Tb41 O59 2.303 . S
Tb41 C70 2.764 . S
C42 O58 1.261 . S
C42 O59 1.257 . S
C43 C46 1.358 . S
C43 C47 1.332 . S
C43 C49 1.504 . S
C44 C45 1.373 . S
C44 C48 1.308 . S
C45 C44 1.373 . S
C45 C46 1.429 . S
C45 H72 0.932 . S
C46 C43 1.358 . S
C46 C45 1.429 . S
C46 H73 0.930 . S
C47 C43 1.332 . S
C47 C48 1.394 . S
C47 H74 0.932 . S
C48 C44 1.308 . S
C48 C47 1.394 . S
C48 H75 0.929 . S
C49 Tb40 2.764 . S
C49 C43 1.504 . S
C49 O61 1.239 . S
C49 O62 1.263 . S
O50 Tb40 2.325 . S
O50 C60 1.236 . S
O51 Tb41 2.322 . S
O51 C60 1.257 . S
O52 Tb41 2.349 . S
O52 C63 1.261 . S
O53 Tb40 2.303 . S
O53 C63 1.257 . S
O54 Tb41 2.415 . S
O54 C70 1.239 . S
O55 Tb41 2.399 . S
O55 C70 1.263 . S
O56 Tb41 2.325 . S
O56 C71 1.236 . S
O57 Tb40 2.322 . S
O57 C71 1.257 . S
O58 Tb40 2.349 . S
O58 C42 1.261 . S
O59 Tb41 2.303 . S
O59 C42 1.257 . S
C60 O50 1.236 . S
C60 O51 1.257 . S
O61 Tb40 2.415 . S
O61 C49 1.239 . S
O62 Tb40 2.399 . S
O62 C49 1.263 . S
C63 O52 1.261 . S
C63 O53 1.257 . S
C64 C67 1.358 . S
C64 C68 1.332 . S
C64 C70 1.504 . S
C65 C66 1.373 . S
C65 C69 1.308 . S
C66 C65 1.373 . S
C66 C67 1.429 . S
C66 H76 0.932 . S
C67 C64 1.358 . S
C67 C66 1.429 . S
C67 H77 0.930 . S
C68 C64 1.332 . S
C68 C69 1.394 . S
C68 H78 0.932 . S
C69 C65 1.308 . S
C69 C68 1.394 . S
C69 H79 0.929 . S
C70 Tb41 2.764 . S
C70 O54 1.239 . S
C70 O55 1.263 . S
C70 C64 1.504 . S
C71 O56 1.236 . S
C71 O57 1.257 . S
H72 C45 0.932 . S
H73 C46 0.930 . S
H74 C47 0.932 . S
H75 C48 0.929 . S
H76 C66 0.932 . S
H77 C67 0.930 . S
H78 C68 0.932 . S
H79 C69 0.929 . S
Tb80 C89 2.764 . S
Tb80 O90 2.325 . S
Tb80 O93 2.303 1_556 S
Tb80 O97 2.322 . S
Tb80 O98 2.349 . S
Tb80 O101 2.415 1_556 S
Tb80 O102 2.399 . S
Tb81 O91 2.322 . S
Tb81 O92 2.349 . S
Tb81 O94 2.415 1_554 S
Tb81 O95 2.399 . S
Tb81 O96 2.325 . S
Tb81 O99 2.303 1_554 S
Tb81 C110 2.764 . S
C82 O98 1.261 . S
C82 O99 1.257 . S
C83 C86 1.358 . S
C83 C87 1.332 1_556 S
C83 C89 1.504 . S
C84 C85 1.373 . S
C84 C88 1.308 1_556 S
C85 C84 1.373 . S
C85 C86 1.429 . S
C85 H112 0.932 . S
C86 C83 1.358 . S
C86 C85 1.429 . S
C86 H113 0.930 . S
C87 C83 1.332 1_554 S
C87 C88 1.394 . S
C87 H114 0.932 . S
C88 C84 1.308 1_554 S
C88 C87 1.394 . S
C88 H115 0.929 . S
C89 Tb80 2.764 . S
C89 C83 1.504 . S
C89 O101 1.239 1_556 S
C89 O102 1.263 . S
O90 Tb80 2.325 . S
O90 C100 1.236 . S
O91 Tb81 2.322 . S
O91 C100 1.257 1_554 S
O92 Tb81 2.349 . S
O92 C103 1.261 . S
O93 Tb80 2.303 1_554 S
O93 C103 1.257 . S
O94 Tb81 2.415 1_556 S
O94 C110 1.239 1_556 S
O95 Tb81 2.399 . S
O95 C110 1.263 . S
O96 Tb81 2.325 . S
O96 C111 1.236 . S
O97 Tb80 2.322 . S
O97 C111 1.257 1_556 S
O98 Tb80 2.349 . S
O98 C82 1.261 . S
O99 Tb81 2.303 1_556 S
O99 C82 1.257 . S
C100 O90 1.236 . S
C100 O91 1.257 1_556 S
O101 Tb80 2.415 1_554 S
O101 C89 1.239 1_554 S
O102 Tb80 2.399 . S
O102 C89 1.263 . S
C103 O92 1.261 . S
C103 O93 1.257 . S
C104 C107 1.358 . S
C104 C108 1.332 1_554 S
C104 C110 1.504 . S
C105 C106 1.373 . S
C105 C109 1.308 1_554 S
C106 C105 1.373 . S
C106 C107 1.429 . S
C106 H116 0.932 . S
C107 C104 1.358 . S
C107 C106 1.429 . S
C107 H117 0.930 . S
C108 C104 1.332 1_556 S
C108 C109 1.394 . S
C108 H118 0.932 . S
C109 C105 1.308 1_556 S
C109 C108 1.394 . S
C109 H119 0.929 . S
C110 Tb81 2.764 . S
C110 O94 1.239 1_554 S
C110 O95 1.263 . S
C110 C104 1.504 . S
C111 O96 1.236 . S
C111 O97 1.257 1_554 S
H112 C85 0.932 . S
H113 C86 0.930 . S
H114 C87 0.932 . S
H115 C88 0.929 . S
H116 C106 0.932 . S
H117 C107 0.930 . S
H118 C108 0.932 . S
H119 C109 0.929 . S
Tb120 C129 2.764 . S
Tb120 O130 2.325 . S
Tb120 O133 2.303 . S
Tb120 O137 2.322 . S
Tb120 O138 2.349 . S
Tb120 O141 2.415 . S
Tb120 O142 2.399 . S
Tb121 O131 2.322 . S
Tb121 O132 2.349 . S
Tb121 O134 2.415 . S
Tb121 O135 2.399 . S
Tb121 O136 2.325 . S
Tb121 O139 2.303 . S
Tb121 C150 2.764 . S
C122 O138 1.261 . S
C122 O139 1.257 . S
C123 C126 1.358 . S
C123 C127 1.332 . S
C123 C129 1.504 . S
C124 C125 1.373 . S
C124 C128 1.308 . S
C125 C124 1.373 . S
C125 C126 1.429 . S
C125 H152 0.932 . S
C126 C123 1.358 . S
C126 C125 1.429 . S
C126 H153 0.930 . S
C127 C123 1.332 . S
C127 C128 1.394 . S
C127 H154 0.932 . S
C128 C124 1.308 . S
C128 C127 1.394 . S
C128 H155 0.929 . S
C129 Tb120 2.764 . S
C129 C123 1.504 . S
C129 O141 1.239 . S
C129 O142 1.263 . S
O130 Tb120 2.325 . S
O130 C140 1.236 . S
O131 Tb121 2.322 . S
O131 C140 1.257 . S
O132 Tb121 2.349 . S
O132 C143 1.261 . S
O133 Tb120 2.303 . S
O133 C143 1.257 . S
O134 Tb121 2.415 . S
O134 C150 1.239 . S
O135 Tb121 2.399 . S
O135 C150 1.263 . S
O136 Tb121 2.325 . S
O136 C151 1.236 . S
O137 Tb120 2.322 . S
O137 C151 1.257 . S
O138 Tb120 2.349 . S
O138 C122 1.261 . S
O139 Tb121 2.303 . S
O139 C122 1.257 . S
C140 O130 1.236 . S
C140 O131 1.257 . S
O141 Tb120 2.415 . S
O141 C129 1.239 . S
O142 Tb120 2.399 . S
O142 C129 1.263 . S
C143 O132 1.261 . S
C143 O133 1.257 . S
C144 C147 1.358 . S
C144 C148 1.332 . S
C144 C150 1.504 . S
C145 C146 1.373 . S
C145 C149 1.308 . S
C146 C145 1.373 . S
C146 C147 1.429 . S
C146 H156 0.932 . S
C147 C144 1.358 . S
C147 C146 1.429 . S
C147 H157 0.930 . S
C148 C144 1.332 . S
C148 C149 1.394 . S
C148 H158 0.932 . S
C149 C145 1.308 . S
C149 C148 1.394 . S
C149 H159 0.929 . S
C150 Tb121 2.764 . S
C150 O134 1.239 . S
C150 O135 1.263 . S
C150 C144 1.504 . S
C151 O136 1.236 . S
C151 O137 1.257 . S
H152 C125 0.932 . S
H153 C126 0.930 . S
H154 C127 0.932 . S
H155 C128 0.929 . S
H156 C146 0.932 . S
H157 C147 0.930 . S
H158 C148 0.932 . S
H159 C149 0.929 . S
Tb160 C169 2.764 . S
Tb160 O170 2.325 . S
Tb160 O173 2.303 1_554 S
Tb160 O177 2.322 . S
Tb160 O178 2.349 . S
Tb160 O181 2.415 1_554 S
Tb160 O182 2.399 . S
Tb161 O171 2.322 . S
Tb161 O172 2.349 1_554 S
Tb161 O174 2.415 . S
Tb161 O175 2.399 1_554 S
Tb161 O176 2.325 . S
Tb161 O179 2.303 . S
Tb161 C190 2.764 . S
C162 O178 1.261 . S
C162 O179 1.257 . S
C163 C166 1.358 . S
C163 C167 1.332 1_554 S
C163 C169 1.504 . S
C164 C165 1.373 1_556 S
C164 C168 1.308 . S
C165 C164 1.373 1_554 S
C165 C166 1.429 . S
C165 H192 0.932 . S
C166 C163 1.358 . S
C166 C165 1.429 . S
C166 H193 0.930 . S
C167 C163 1.332 1_556 S
C167 C168 1.394 . S
C167 H194 0.932 . S
C168 C164 1.308 . S
C168 C167 1.394 . S
C168 H195 0.929 . S
C169 Tb160 2.764 . S
C169 C163 1.504 . S
C169 O181 1.239 1_554 S
C169 O182 1.263 . S
O170 Tb160 2.325 . S
O170 C180 1.236 . S
O171 Tb161 2.322 . S
O171 C180 1.257 . S
O172 Tb161 2.349 1_556 S
O172 C183 1.261 . S
O173 Tb160 2.303 1_556 S
O173 C183 1.257 . S
O174 Tb161 2.415 . S
O174 C190 1.239 . S
O175 Tb161 2.399 1_556 S
O175 C190 1.263 1_556 S
O176 Tb161 2.325 . S
O176 C191 1.236 . S
O177 Tb160 2.322 . S
O177 C191 1.257 . S
O178 Tb160 2.349 . S
O178 C162 1.261 . S
O179 Tb161 2.303 . S
O179 C162 1.257 . S
C180 O170 1.236 . S
C180 O171 1.257 . S
O181 Tb160 2.415 1_556 S
O181 C169 1.239 1_556 S
O182 Tb160 2.399 . S
O182 C169 1.263 . S
C183 O172 1.261 . S
C183 O173 1.257 . S
C184 C187 1.358 . S
C184 C188 1.332 . S
C184 C190 1.504 . S
C185 C186 1.373 . S
C185 C189 1.308 . S
C186 C185 1.373 . S
C186 C187 1.429 . S
C186 H196 0.932 1_554 S
C187 C184 1.358 . S
C187 C186 1.429 . S
C187 H197 0.930 1_554 S
C188 C184 1.332 . S
C188 C189 1.394 . S
C188 H198 0.932 . S
C189 C185 1.308 . S
C189 C188 1.394 . S
C189 H199 0.929 . S
C190 Tb161 2.764 . S
C190 O174 1.239 . S
C190 O175 1.263 1_554 S
C190 C184 1.504 . S
C191 O176 1.236 . S
C191 O177 1.257 . S
H192 C165 0.932 . S
H193 C166 0.930 . S
H194 C167 0.932 . S
H195 C168 0.929 . S
H196 C186 0.932 1_556 S
H197 C187 0.930 1_556 S
H198 C188 0.932 . S
H199 C189 0.929 . S
Tb200 C209 2.764 . S
Tb200 O210 2.325 . S
Tb200 O213 2.303 . S
Tb200 O217 2.322 . S
Tb200 O218 2.349 . S
Tb200 O221 2.415 . S
Tb200 O222 2.399 . S
Tb201 O211 2.322 . S
Tb201 O212 2.349 . S
Tb201 O214 2.415 . S
Tb201 O215 2.399 . S
Tb201 O216 2.325 . S
Tb201 O219 2.303 . S
Tb201 C230 2.764 . S
C202 O218 1.261 . S
C202 O219 1.257 . S
C203 C206 1.358 . S
C203 C207 1.332 . S
C203 C209 1.504 . S
C204 C205 1.373 . S
C204 C208 1.308 . S
C205 C204 1.373 . S
C205 C206 1.429 . S
C205 H232 0.932 . S
C206 C203 1.358 . S
C206 C205 1.429 . S
C206 H233 0.930 . S
C207 C203 1.332 . S
C207 C208 1.394 . S
C207 H234 0.932 . S
C208 C204 1.308 . S
C208 C207 1.394 . S
C208 H235 0.929 . S
C209 Tb200 2.764 . S
C209 C203 1.504 . S
C209 O221 1.239 . S
C209 O222 1.263 . S
O210 Tb200 2.325 . S
O210 C220 1.236 . S
O211 Tb201 2.322 . S
O211 C220 1.257 . S
O212 Tb201 2.349 . S
O212 C223 1.261 . S
O213 Tb200 2.303 . S
O213 C223 1.257 . S
O214 Tb201 2.415 . S
O214 C230 1.239 . S
O215 Tb201 2.399 . S
O215 C230 1.263 . S
O216 Tb201 2.325 . S
O216 C231 1.236 . S
O217 Tb200 2.322 . S
O217 C231 1.257 . S
O218 Tb200 2.349 . S
O218 C202 1.261 . S
O219 Tb201 2.303 . S
O219 C202 1.257 . S
C220 O210 1.236 . S
C220 O211 1.257 . S
O221 Tb200 2.415 . S
O221 C209 1.239 . S
O222 Tb200 2.399 . S
O222 C209 1.263 . S
C223 O212 1.261 . S
C223 O213 1.257 . S
C224 C227 1.358 . S
C224 C228 1.332 . S
C224 C230 1.504 . S
C225 C226 1.373 . S
C225 C229 1.308 . S
C226 C225 1.373 . S
C226 C227 1.429 . S
C226 H236 0.932 . S
C227 C224 1.358 . S
C227 C226 1.429 . S
C227 H237 0.930 . S
C228 C224 1.332 . S
C228 C229 1.394 . S
C228 H238 0.932 . S
C229 C225 1.308 . S
C229 C228 1.394 . S
C229 H239 0.929 . S
C230 Tb201 2.764 . S
C230 O214 1.239 . S
C230 O215 1.263 . S
C230 C224 1.504 . S
C231 O216 1.236 . S
C231 O217 1.257 . S
H232 C205 0.932 . S
H233 C206 0.930 . S
H234 C207 0.932 . S
H235 C208 0.929 . S
H236 C226 0.932 . S
H237 C227 0.930 . S
H238 C228 0.932 . S
H239 C229 0.929 . S
C240 C241 1.349 . S
C240 C242 1.327 . S
C240 H265 0.950 . S
C241 C240 1.349 . S
C241 C257 1.349 . S
C242 C240 1.327 . S
C242 C261 1.429 . S
C242 H266 0.950 . S
C243 C260 1.574 . S
C243 C262 1.368 . S
C243 H267 0.949 . S
H244 C248 0.949 . S
C245 C246 1.349 . S
C245 C247 1.327 . S
C245 H268 0.950 . S
C246 C245 1.349 . S
C246 C258 1.349 . S
C247 C245 1.327 . S
C247 C263 1.429 . S
C247 H269 0.950 . S
C248 H244 0.949 . S
C248 C256 1.574 . S
C248 C264 1.368 . S
H249 C257 0.950 . S
H250 C255 0.950 . S
H251 C256 0.949 . S
H252 C258 0.950 . S
H253 C259 0.950 . S
H254 C260 0.949 . S
C255 H250 0.950 . S
C255 C257 1.327 . S
C255 C261 1.429 . S
C256 C248 1.574 . S
C256 H251 0.949 . S
C256 C262 1.368 . S
C257 C241 1.349 . S
C257 H249 0.950 . S
C257 C255 1.327 . S
C258 C246 1.349 . S
C258 H252 0.950 . S
C258 C259 1.327 . S
C259 H253 0.950 . S
C259 C258 1.327 . S
C259 C263 1.429 . S
C260 C243 1.574 . S
C260 H254 0.949 . S
C260 C264 1.368 . S
C261 C242 1.429 . S
C261 C255 1.429 . S
C261 C262 1.523 . S
C262 C243 1.368 . S
C262 C256 1.368 . S
C262 C261 1.523 . S
C263 C247 1.429 . S
C263 C259 1.429 . S
C263 C264 1.523 . S
C264 C248 1.368 . S
C264 C260 1.368 . S
C264 C263 1.523 . S
H265 C240 0.950 . S
H266 C242 0.950 . S
H267 C243 0.949 . S
H268 C245 0.950 . S
H269 C247 0.950 . S
C270 C271 1.349 . S
C270 C272 1.327 . S
C270 H295 0.950 . S
C271 C270 1.349 . S
C271 C287 1.349 . S
C272 C270 1.327 . S
C272 C291 1.429 . S
C272 H296 0.950 . S
C273 C290 1.574 . S
C273 C292 1.368 . S
C273 H297 0.949 . S
H274 C278 0.949 . S
C275 C276 1.349 . S
C275 C277 1.327 1_655 S
C275 H298 0.950 . S
C276 C275 1.349 . S
C276 C288 1.349 . S
C277 C275 1.327 1_455 S
C277 C293 1.429 . S
C277 H299 0.950 . S
C278 H274 0.949 . S
C278 C286 1.574 . S
C278 C294 1.368 . S
H279 C287 0.950 . S
H280 C285 0.950 . S
H281 C286 0.949 . S
H282 C288 0.950 . S
H283 C289 0.950 . S
H284 C290 0.949 . S
C285 H280 0.950 . S
C285 C287 1.327 . S
C285 C291 1.429 . S
C286 C278 1.574 . S
C286 H281 0.949 . S
C286 C292 1.368 . S
C287 C271 1.349 . S
C287 H279 0.950 . S
C287 C285 1.327 . S
C288 C276 1.349 . S
C288 H282 0.950 . S
C288 C289 1.327 1_655 S
C289 H283 0.950 . S
C289 C288 1.327 1_455 S
C289 C293 1.429 . S
C290 C273 1.574 . S
C290 H284 0.949 . S
C290 C294 1.368 . S
C291 C272 1.429 . S
C291 C285 1.429 . S
C291 C292 1.523 . S
C292 C273 1.368 . S
C292 C286 1.368 . S
C292 C291 1.523 . S
C293 C277 1.429 . S
C293 C289 1.429 . S
C293 C294 1.523 . S
C294 C278 1.368 . S
C294 C290 1.368 . S
C294 C293 1.523 . S
H295 C270 0.950 . S
H296 C272 0.950 . S
H297 C273 0.949 . S
H298 C275 0.950 . S
H299 C277 0.950 . S
C300 C301 1.349 . S
C300 C302 1.327 . S
C300 H325 0.950 . S
C301 C300 1.349 . S
C301 C317 1.349 . S
C302 C300 1.327 . S
C302 C321 1.429 . S
C302 H326 0.950 . S
C303 C320 1.574 . S
C303 C322 1.368 . S
C303 H327 0.949 . S
H304 C308 0.949 . S
C305 C306 1.349 1_556 S
C305 C307 1.327 1_556 S
C305 H328 0.950 . S
C306 C305 1.349 1_554 S
C306 C318 1.349 . S
C307 C305 1.327 1_554 S
C307 C323 1.429 . S
C307 H329 0.950 . S
C308 H304 0.949 . S
C308 C316 1.574 . S
C308 C324 1.368 . S
H309 C317 0.950 . S
H310 C315 0.950 . S
H311 C316 0.949 . S
H312 C318 0.950 . S
H313 C319 0.950 . S
H314 C320 0.949 . S
C315 H310 0.950 . S
C315 C317 1.327 . S
C315 C321 1.429 . S
C316 C308 1.574 . S
C316 H311 0.949 . S
C316 C322 1.368 1_565 S
C317 C301 1.349 . S
C317 H309 0.950 . S
C317 C315 1.327 . S
C318 C306 1.349 . S
C318 H312 0.950 . S
C318 C319 1.327 . S
C319 H313 0.950 . S
C319 C318 1.327 . S
C319 C323 1.429 . S
C320 C303 1.574 . S
C320 H314 0.949 . S
C320 C324 1.368 1_545 S
C321 C302 1.429 . S
C321 C315 1.429 . S
C321 C322 1.523 . S
C322 C303 1.368 . S
C322 C316 1.368 1_545 S
C322 C321 1.523 . S
C323 C307 1.429 . S
C323 C319 1.429 . S
C323 C324 1.523 . S
C324 C308 1.368 . S
C324 C320 1.368 1_565 S
C324 C323 1.523 . S
H325 C300 0.950 . S
H326 C302 0.950 . S
H327 C303 0.949 . S
H328 C305 0.950 . S
H329 C307 0.950 . S
C330 C331 1.349 . S
C330 C332 1.327 . S
C330 H355 0.950 . S
C331 C330 1.349 . S
C331 C347 1.349 . S
C332 C330 1.327 . S
C332 C351 1.429 . S
C332 H356 0.950 . S
C333 C350 1.574 . S
C333 C352 1.368 . S
C333 H357 0.949 . S
H334 C338 0.949 . S
C335 C336 1.349 . S
C335 C337 1.327 . S
C335 H358 0.950 . S
C336 C335 1.349 . S
C336 C348 1.349 . S
C337 C335 1.327 . S
C337 C353 1.429 . S
C337 H359 0.950 . S
C338 H334 0.949 . S
C338 C346 1.574 . S
C338 C354 1.368 . S
H339 C347 0.950 . S
H340 C345 0.950 . S
H341 C346 0.949 . S
H342 C348 0.950 . S
H343 C349 0.950 . S
H344 C350 0.949 . S
C345 H340 0.950 . S
C345 C347 1.327 . S
C345 C351 1.429 . S
C346 C338 1.574 . S
C346 H341 0.949 . S
C346 C352 1.368 . S
C347 C331 1.349 . S
C347 H339 0.950 . S
C347 C345 1.327 . S
C348 C336 1.349 . S
C348 H342 0.950 . S
C348 C349 1.327 . S
C349 H343 0.950 . S
C349 C348 1.327 . S
C349 C353 1.429 . S
C350 C333 1.574 . S
C350 H344 0.949 . S
C350 C354 1.368 . S
C351 C332 1.429 . S
C351 C345 1.429 . S
C351 C352 1.523 . S
C352 C333 1.368 . S
C352 C346 1.368 . S
C352 C351 1.523 . S
C353 C337 1.429 . S
C353 C349 1.429 . S
C353 C354 1.523 . S
C354 C338 1.368 . S
C354 C350 1.368 . S
C354 C353 1.523 . S
H355 C330 0.950 . S
H356 C332 0.950 . S
H357 C333 0.949 . S
H358 C335 0.950 . S
H359 C337 0.950 . S
C360 C361 1.349 . S
C360 C362 1.327 1_455 S
C360 H385 0.950 . S
C361 C360 1.349 . S
C361 C377 1.349 1_455 S
C362 C360 1.327 1_655 S
C362 C381 1.429 . S
C362 H386 0.950 . S
C363 C380 1.574 . S
C363 C382 1.368 . S
C363 H387 0.949 . S
H364 C368 0.949 . S
C365 C366 1.349 . S
C365 C367 1.327 . S
C365 H388 0.950 . S
C366 C365 1.349 . S
C366 C378 1.349 . S
C367 C365 1.327 . S
C367 C383 1.429 . S
C367 H389 0.950 . S
C368 H364 0.949 . S
C368 C376 1.574 . S
C368 C384 1.368 . S
H369 C377 0.950 . S
H370 C375 0.950 . S
H371 C376 0.949 . S
H372 C378 0.950 . S
H373 C379 0.950 . S
H374 C380 0.949 . S
C375 H370 0.950 . S
C375 C377 1.327 . S
C375 C381 1.429 . S
C376 C368 1.574 . S
C376 H371 0.949 . S
C376 C382 1.368 . S
C377 C361 1.349 1_655 S
C377 H369 0.950 . S
C377 C375 1.327 . S
C378 C366 1.349 . S
C378 H372 0.950 . S
C378 C379 1.327 . S
C379 H373 0.950 . S
C379 C378 1.327 . S
C379 C383 1.429 . S
C380 C363 1.574 . S
C380 H374 0.949 . S
C380 C384 1.368 . S
C381 C362 1.429 . S
C381 C375 1.429 . S
C381 C382 1.523 . S
C382 C363 1.368 . S
C382 C376 1.368 . S
C382 C381 1.523 . S
C383 C367 1.429 . S
C383 C379 1.429 . S
C383 C384 1.523 . S
C384 C368 1.368 . S
C384 C380 1.368 . S
C384 C383 1.523 . S
H385 C360 0.950 . S
H386 C362 0.950 . S
H387 C363 0.949 . S
H388 C365 0.950 . S
H389 C367 0.950 . S
C390 C391 1.349 . S
C390 C392 1.327 . S
C390 H415 0.950 . S
C391 C390 1.349 . S
C391 C407 1.349 . S
C392 C390 1.327 . S
C392 C411 1.429 . S
C392 H416 0.950 . S
C393 C410 1.574 . S
C393 C412 1.368 1_545 S
C393 H417 0.949 . S
H394 C398 0.949 . S
C395 C396 1.349 . S
C395 C397 1.327 . S
C395 H418 0.950 . S
C396 C395 1.349 . S
C396 C408 1.349 . S
C397 C395 1.327 . S
C397 C413 1.429 . S
C397 H419 0.950 . S
C398 H394 0.949 . S
C398 C406 1.574 . S
C398 C414 1.368 1_565 S
H399 C407 0.950 . S
H400 C405 0.950 . S
H401 C406 0.949 . S
H402 C408 0.950 . S
H403 C409 0.950 . S
H404 C410 0.949 . S
C405 H400 0.950 . S
C405 C407 1.327 . S
C405 C411 1.429 . S
C406 C398 1.574 . S
C406 H401 0.949 . S
C406 C412 1.368 . S
C407 C391 1.349 . S
C407 H399 0.950 . S
C407 C405 1.327 . S
C408 C396 1.349 . S
C408 H402 0.950 . S
C408 C409 1.327 . S
C409 H403 0.950 . S
C409 C408 1.327 . S
C409 C413 1.429 . S
C410 C393 1.574 . S
C410 H404 0.949 . S
C410 C414 1.368 . S
C411 C392 1.429 . S
C411 C405 1.429 . S
C411 C412 1.523 . S
C412 C393 1.368 1_565 S
C412 C406 1.368 . S
C412 C411 1.523 . S
C413 C397 1.429 . S
C413 C409 1.429 . S
C413 C414 1.523 . S
C414 C398 1.368 1_545 S
C414 C410 1.368 . S
C414 C413 1.523 . S
H415 C390 0.950 . S
H416 C392 0.950 . S
H417 C393 0.949 . S
H418 C395 0.950 . S
H419 C397 0.950 . S
C420 C421 1.349 . S
C420 C422 1.327 . S
C420 H445 0.950 . S
C421 C420 1.349 . S
C421 C437 1.349 1_554 S
C422 C420 1.327 . S
C422 C441 1.429 1_554 S
C422 H446 0.950 . S
C423 C440 1.574 . S
C423 C442 1.368 . S
C423 H447 0.949 . S
H424 C428 0.949 . S
C425 C426 1.349 . S
C425 C427 1.327 . S
C425 H448 0.950 . S
C426 C425 1.349 . S
C426 C438 1.349 . S
C427 C425 1.327 . S
C427 C443 1.429 . S
C427 H449 0.950 . S
C428 H424 0.949 . S
C428 C436 1.574 . S
C428 C444 1.368 1_554 S
H429 C437 0.950 . S
H430 C435 0.950 . S
H431 C436 0.949 . S
H432 C438 0.950 1_554 S
H433 C439 0.950 1_554 S
H434 C440 0.949 . S
C435 H430 0.950 . S
C435 C437 1.327 . S
C435 C441 1.429 . S
C436 C428 1.574 . S
C436 H431 0.949 . S
C436 C442 1.368 1_554 S
C437 C421 1.349 1_556 S
C437 H429 0.950 . S
C437 C435 1.327 . S
C438 C426 1.349 . S
C438 H432 0.950 1_556 S
C438 C439 1.327 . S
C439 H433 0.950 1_556 S
C439 C438 1.327 . S
C439 C443 1.429 . S
C440 C423 1.574 . S
C440 H434 0.949 . S
C440 C444 1.368 . S
C441 C422 1.429 1_556 S
C441 C435 1.429 . S
C441 C442 1.523 . S
C442 C423 1.368 . S
C442 C436 1.368 1_556 S
C442 C441 1.523 . S
C443 C427 1.429 . S
C443 C439 1.429 . S
C443 C444 1.523 . S
C444 C428 1.368 1_556 S
C444 C440 1.368 . S
C444 C443 1.523 . S
H445 C420 0.950 . S
H446 C422 0.950 . S
H447 C423 0.949 . S
H448 C425 0.950 . S
H449 C427 0.950 . S
C450 C451 1.349 . S
C450 C452 1.327 . S
C450 H475 0.950 . S
C451 C450 1.349 . S
C451 C467 1.349 . S
C452 C450 1.327 . S
C452 C471 1.429 . S
C452 H476 0.950 . S
C453 C470 1.574 . S
C453 C472 1.368 . S
C453 H477 0.949 . S
H454 C458 0.949 . S
C455 C456 1.349 . S
C455 C457 1.327 . S
C455 H478 0.950 . S
C456 C455 1.349 . S
C456 C468 1.349 . S
C457 C455 1.327 . S
C457 C473 1.429 . S
C457 H479 0.950 . S
C458 H454 0.949 . S
C458 C466 1.574 . S
C458 C474 1.368 . S
H459 C467 0.950 . S
H460 C465 0.950 . S
H461 C466 0.949 . S
H462 C468 0.950 . S
H463 C469 0.950 . S
H464 C470 0.949 . S
C465 H460 0.950 . S
C465 C467 1.327 . S
C465 C471 1.429 . S
C466 C458 1.574 . S
C466 H461 0.949 . S
C466 C472 1.368 . S
C467 C451 1.349 . S
C467 H459 0.950 . S
C467 C465 1.327 . S
C468 C456 1.349 . S
C468 H462 0.950 . S
C468 C469 1.327 . S
C469 H463 0.950 . S
C469 C468 1.327 . S
C469 C473 1.429 . S
C470 C453 1.574 . S
C470 H464 0.949 . S
C470 C474 1.368 . S
C471 C452 1.429 . S
C471 C465 1.429 . S
C471 C472 1.523 . S
C472 C453 1.368 . S
C472 C466 1.368 . S
C472 C471 1.523 . S
C473 C457 1.429 . S
C473 C469 1.429 . S
C473 C474 1.523 . S
C474 C458 1.368 . S
C474 C470 1.368 . S
C474 C473 1.523 . S
H475 C450 0.950 . S
H476 C452 0.950 . S
H477 C453 0.949 . S
H478 C455 0.950 . S
H479 C457 0.950 . S
C480 C481 1.349 . S
C480 C482 1.327 . S
C480 H505 0.950 . S
C481 C480 1.349 . S
C481 C497 1.349 1_556 S
C482 C480 1.327 . S
C482 C501 1.429 . S
C482 H506 0.950 . S
C483 C500 1.574 . S
C483 C502 1.368 . S
C483 H507 0.949 . S
H484 C488 0.949 . S
C485 C486 1.349 . S
C485 C487 1.327 . S
C485 H508 0.950 . S
C486 C485 1.349 . S
C486 C498 1.349 1_554 S
C487 C485 1.327 . S
C487 C503 1.429 . S
C487 H509 0.950 . S
C488 H484 0.949 . S
C488 C496 1.574 . S
C488 C504 1.368 1_556 S
H489 C497 0.950 . S
H490 C495 0.950 . S
H491 C496 0.949 . S
H492 C498 0.950 . S
H493 C499 0.950 . S
H494 C500 0.949 . S
C495 H490 0.950 . S
C495 C497 1.327 . S
C495 C501 1.429 1_554 S
C496 C488 1.574 . S
C496 H491 0.949 . S
C496 C502 1.368 1_556 S
C497 C481 1.349 1_554 S
C497 H489 0.950 . S
C497 C495 1.327 . S
C498 C486 1.349 1_556 S
C498 H492 0.950 . S
C498 C499 1.327 . S
C499 H493 0.950 . S
C499 C498 1.327 . S
C499 C503 1.429 1_556 S
C500 C483 1.574 . S
C500 H494 0.949 . S
C500 C504 1.368 . S
C501 C482 1.429 . S
C501 C495 1.429 1_556 S
C501 C502 1.523 1_556 S
C502 C483 1.368 . S
C502 C496 1.368 1_554 S
C502 C501 1.523 1_554 S
C503 C487 1.429 . S
C503 C499 1.429 1_554 S
C503 C504 1.523 . S
C504 C488 1.368 1_554 S
C504 C500 1.368 . S
C504 C503 1.523 . S
H505 C480 0.950 . S
H506 C482 0.950 . S
H507 C483 0.949 . S
H508 C485 0.950 . S
H509 C487 0.950 . S
C510 C511 1.349 . S
C510 C512 1.327 . S
C510 H535 0.950 . S
C511 C510 1.349 . S
C511 C527 1.349 . S
C512 C510 1.327 . S
C512 C531 1.429 . S
C512 H536 0.950 . S
C513 C530 1.574 . S
C513 C532 1.368 . S
C513 H537 0.949 . S
H514 C518 0.949 . S
C515 C516 1.349 . S
C515 C517 1.327 . S
C515 H538 0.950 . S
C516 C515 1.349 . S
C516 C528 1.349 . S
C517 C515 1.327 . S
C517 C533 1.429 . S
C517 H539 0.950 . S
C518 H514 0.949 . S
C518 C526 1.574 . S
C518 C534 1.368 . S
H519 C527 0.950 . S
H520 C525 0.950 . S
H521 C526 0.949 . S
H522 C528 0.950 . S
H523 C529 0.950 . S
H524 C530 0.949 . S
C525 H520 0.950 . S
C525 C527 1.327 . S
C525 C531 1.429 . S
C526 C518 1.574 . S
C526 H521 0.949 . S
C526 C532 1.368 . S
C527 C511 1.349 . S
C527 H519 0.950 . S
C527 C525 1.327 . S
C528 C516 1.349 . S
C528 H522 0.950 . S
C528 C529 1.327 . S
C529 H523 0.950 . S
C529 C528 1.327 . S
C529 C533 1.429 . S
C530 C513 1.574 . S
C530 H524 0.949 . S
C530 C534 1.368 . S
C531 C512 1.429 . S
C531 C525 1.429 . S
C531 C532 1.523 . S
C532 C513 1.368 . S
C532 C526 1.368 . S
C532 C531 1.523 . S
C533 C517 1.429 . S
C533 C529 1.429 . S
C533 C534 1.523 . S
C534 C518 1.368 . S
C534 C530 1.368 . S
C534 C533 1.523 . S
H535 C510 0.950 . S
H536 C512 0.950 . S
H537 C513 0.949 . S
H538 C515 0.950 . S
H539 C517 0.950 . S
C540 C541 1.349 1_554 S
C540 C542 1.327 . S
C540 H565 0.950 . S
C541 C540 1.349 1_556 S
C541 C557 1.349 . S
C542 C540 1.327 . S
C542 C561 1.429 1_554 S
C542 H566 0.950 . S
C543 C560 1.574 . S
C543 C562 1.368 . S
C543 H567 0.949 . S
H544 C548 0.949 . S
C545 C546 1.349 . S
C545 C547 1.327 . S
C545 H568 0.950 . S
C546 C545 1.349 . S
C546 C558 1.349 1_556 S
C547 C545 1.327 . S
C547 C563 1.429 . S
C547 H569 0.950 . S
C548 H544 0.949 . S
C548 C556 1.574 . S
C548 C564 1.368 1_554 S
H549 C557 0.950 . S
H550 C555 0.950 . S
H551 C556 0.949 . S
H552 C558 0.950 . S
H553 C559 0.950 . S
H554 C560 0.949 . S
C555 H550 0.950 . S
C555 C557 1.327 . S
C555 C561 1.429 . S
C556 C548 1.574 . S
C556 H551 0.949 . S
C556 C562 1.368 1_554 S
C557 C541 1.349 . S
C557 H549 0.950 . S
C557 C555 1.327 . S
C558 C546 1.349 1_554 S
C558 H552 0.950 . S
C558 C559 1.327 . S
C559 H553 0.950 . S
C559 C558 1.327 . S
C559 C563 1.429 1_554 S
C560 C543 1.574 . S
C560 H554 0.949 . S
C560 C564 1.368 . S
C561 C542 1.429 1_556 S
C561 C555 1.429 . S
C561 C562 1.523 . S
C562 C543 1.368 . S
C562 C556 1.368 1_556 S
C562 C561 1.523 . S
C563 C547 1.429 . S
C563 C559 1.429 1_556 S
C563 C564 1.523 . S
C564 C548 1.368 1_556 S
C564 C560 1.368 . S
C564 C563 1.523 . S
H565 C540 0.950 . S
H566 C542 0.950 . S
H567 C543 0.949 . S
H568 C545 0.950 . S
H569 C547 0.950 . S
C570 C571 1.349 . S
C570 C572 1.327 . S
C570 H595 0.950 . S
C571 C570 1.349 . S
C571 C587 1.349 . S
C572 C570 1.327 . S
C572 C591 1.429 . S
C572 H596 0.950 . S
C573 C590 1.574 . S
C573 C592 1.368 . S
C573 H597 0.949 . S
H574 C578 0.949 . S
C575 C576 1.349 . S
C575 C577 1.327 . S
C575 H598 0.950 . S
C576 C575 1.349 . S
C576 C588 1.349 . S
C577 C575 1.327 . S
C577 C593 1.429 . S
C577 H599 0.950 . S
C578 H574 0.949 . S
C578 C586 1.574 . S
C578 C594 1.368 . S
H579 C587 0.950 . S
H580 C585 0.950 . S
H581 C586 0.949 . S
H582 C588 0.950 . S
H583 C589 0.950 . S
H584 C590 0.949 . S
C585 H580 0.950 . S
C585 C587 1.327 . S
C585 C591 1.429 . S
C586 C578 1.574 . S
C586 H581 0.949 . S
C586 C592 1.368 . S
C587 C571 1.349 . S
C587 H579 0.950 . S
C587 C585 1.327 . S
C588 C576 1.349 . S
C588 H582 0.950 . S
C588 C589 1.327 . S
C589 H583 0.950 . S
C589 C588 1.327 . S
C589 C593 1.429 . S
C590 C573 1.574 . S
C590 H584 0.949 . S
C590 C594 1.368 . S
C591 C572 1.429 . S
C591 C585 1.429 . S
C591 C592 1.523 . S
C592 C573 1.368 . S
C592 C586 1.368 . S
C592 C591 1.523 . S
C593 C577 1.429 . S
C593 C589 1.429 . S
C593 C594 1.523 . S
C594 C578 1.368 . S
C594 C590 1.368 . S
C594 C593 1.523 . S
H595 C570 0.950 . S
H596 C572 0.950 . S
H597 C573 0.949 . S
H598 C575 0.950 . S
H599 C577 0.950 . S
C600 C601 1.349 . S
C600 C602 1.327 . S
C600 H625 0.950 . S
C601 C600 1.349 . S
C601 C617 1.349 . S
C602 C600 1.327 . S
C602 C621 1.429 . S
C602 H626 0.950 . S
C603 C620 1.574 . S
C603 C622 1.368 . S
C603 H627 0.949 . S
H604 C608 0.949 . S
C605 C606 1.349 . S
C605 C607 1.327 . S
C605 H628 0.950 . S
C606 C605 1.349 . S
C606 C618 1.349 . S
C607 C605 1.327 . S
C607 C623 1.429 . S
C607 H629 0.950 . S
C608 H604 0.949 . S
C608 C616 1.574 . S
C608 C624 1.368 . S
H609 C617 0.950 . S
H610 C615 0.950 . S
H611 C616 0.949 . S
H612 C618 0.950 . S
H613 C619 0.950 . S
H614 C620 0.949 . S
C615 H610 0.950 . S
C615 C617 1.327 . S
C615 C621 1.429 . S
C616 C608 1.574 . S
C616 H611 0.949 . S
C616 C622 1.368 . S
C617 C601 1.349 . S
C617 H609 0.950 . S
C617 C615 1.327 . S
C618 C606 1.349 . S
C618 H612 0.950 . S
C618 C619 1.327 . S
C619 H613 0.950 . S
C619 C618 1.327 . S
C619 C623 1.429 . S
C620 C603 1.574 . S
C620 H614 0.949 . S
C620 C624 1.368 . S
C621 C602 1.429 . S
C621 C615 1.429 . S
C621 C622 1.523 . S
C622 C603 1.368 . S
C622 C616 1.368 . S
C622 C621 1.523 . S
C623 C607 1.429 . S
C623 C619 1.429 . S
C623 C624 1.523 . S
C624 C608 1.368 . S
C624 C620 1.368 . S
C624 C623 1.523 . S
H625 C600 0.950 . S
H626 C602 0.950 . S
H627 C603 0.949 . S
H628 C605 0.950 . S
H629 C607 0.950 . S
C630 C631 1.349 . S
C630 C632 1.327 . S
C630 H655 0.950 . S
C631 C630 1.349 . S
C631 C647 1.349 . S
C632 C630 1.327 . S
C632 C651 1.429 . S
C632 H656 0.950 . S
C633 C650 1.574 1_554 S
C633 C652 1.368 . S
C633 H657 0.949 . S
H634 C638 0.949 . S
C635 C636 1.349 . S
C635 C637 1.327 . S
C635 H658 0.950 . S
C636 C635 1.349 . S
C636 C648 1.349 . S
C637 C635 1.327 . S
C637 C653 1.429 . S
C637 H659 0.950 . S
C638 H634 0.949 . S
C638 C646 1.574 1_556 S
C638 C654 1.368 . S
H639 C647 0.950 . S
H640 C645 0.950 . S
H641 C646 0.949 . S
H642 C648 0.950 . S
H643 C649 0.950 . S
H644 C650 0.949 . S
C645 H640 0.950 . S
C645 C647 1.327 . S
C645 C651 1.429 . S
C646 C638 1.574 1_554 S
C646 H641 0.949 . S
C646 C652 1.368 . S
C647 C631 1.349 . S
C647 H639 0.950 . S
C647 C645 1.327 . S
C648 C636 1.349 . S
C648 H642 0.950 . S
C648 C649 1.327 . S
C649 H643 0.950 . S
C649 C648 1.327 . S
C649 C653 1.429 . S
C650 C633 1.574 1_556 S
C650 H644 0.949 . S
C650 C654 1.368 . S
C651 C632 1.429 . S
C651 C645 1.429 . S
C651 C652 1.523 . S
C652 C633 1.368 . S
C652 C646 1.368 . S
C652 C651 1.523 . S
C653 C637 1.429 . S
C653 C649 1.429 . S
C653 C654 1.523 . S
C654 C638 1.368 . S
C654 C650 1.368 . S
C654 C653 1.523 . S
H655 C630 0.950 . S
H656 C632 0.950 . S
H657 C633 0.949 . S
H658 C635 0.950 . S
H659 C637 0.950 . S
C660 C661 1.349 . S
C660 C662 1.327 . S
C660 H685 0.950 . S
C661 C660 1.349 . S
C661 C677 1.349 . S
C662 C660 1.327 . S
C662 C681 1.429 . S
C662 H686 0.950 . S
C663 C680 1.574 . S
C663 C682 1.368 . S
C663 H687 0.949 . S
H664 C668 0.949 . S
C665 C666 1.349 . S
C665 C667 1.327 . S
C665 H688 0.950 . S
C666 C665 1.349 . S
C666 C678 1.349 . S
C667 C665 1.327 . S
C667 C683 1.429 . S
C667 H689 0.950 . S
C668 H664 0.949 . S
C668 C676 1.574 . S
C668 C684 1.368 . S
H669 C677 0.950 . S
H670 C675 0.950 . S
H671 C676 0.949 . S
H672 C678 0.950 . S
H673 C679 0.950 . S
H674 C680 0.949 . S
C675 H670 0.950 . S
C675 C677 1.327 . S
C675 C681 1.429 . S
C676 C668 1.574 . S
C676 H671 0.949 . S
C676 C682 1.368 . S
C677 C661 1.349 . S
C677 H669 0.950 . S
C677 C675 1.327 . S
C678 C666 1.349 . S
C678 H672 0.950 . S
C678 C679 1.327 . S
C679 H673 0.950 . S
C679 C678 1.327 . S
C679 C683 1.429 . S
C680 C663 1.574 . S
C680 H674 0.949 . S
C680 C684 1.368 . S
C681 C662 1.429 . S
C681 C675 1.429 . S
C681 C682 1.523 . S
C682 C663 1.368 . S
C682 C676 1.368 . S
C682 C681 1.523 . S
C683 C667 1.429 . S
C683 C679 1.429 . S
C683 C684 1.523 . S
C684 C668 1.368 . S
C684 C680 1.368 . S
C684 C683 1.523 . S
H685 C660 0.950 . S
H686 C662 0.950 . S
H687 C663 0.949 . S
H688 C665 0.950 . S
H689 C667 0.950 . S
C690 C691 1.349 . S
C690 C692 1.327 . S
C690 H715 0.950 . S
C691 C690 1.349 . S
C691 C707 1.349 . S
C692 C690 1.327 . S
C692 C711 1.429 . S
C692 H716 0.950 . S
C693 C710 1.574 1_554 S
C693 C712 1.368 . S
C693 H717 0.949 . S
H694 C698 0.949 . S
C695 C696 1.349 . S
C695 C697 1.327 . S
C695 H718 0.950 . S
C696 C695 1.349 . S
C696 C708 1.349 . S
C697 C695 1.327 . S
C697 C713 1.429 . S
C697 H719 0.950 . S
C698 H694 0.949 . S
C698 C706 1.574 1_556 S
C698 C714 1.368 . S
H699 C707 0.950 . S
H700 C705 0.950 . S
H701 C706 0.949 . S
H702 C708 0.950 . S
H703 C709 0.950 . S
H704 C710 0.949 . S
C705 H700 0.950 . S
C705 C707 1.327 . S
C705 C711 1.429 . S
C706 C698 1.574 1_554 S
C706 H701 0.949 . S
C706 C712 1.368 . S
C707 C691 1.349 . S
C707 H699 0.950 . S
C707 C705 1.327 . S
C708 C696 1.349 . S
C708 H702 0.950 . S
C708 C709 1.327 . S
C709 H703 0.950 . S
C709 C708 1.327 . S
C709 C713 1.429 . S
C710 C693 1.574 1_556 S
C710 H704 0.949 . S
C710 C714 1.368 . S
C711 C692 1.429 . S
C711 C705 1.429 . S
C711 C712 1.523 . S
C712 C693 1.368 . S
C712 C706 1.368 . S
C712 C711 1.523 . S
C713 C697 1.429 . S
C713 C709 1.429 . S
C713 C714 1.523 . S
C714 C698 1.368 . S
C714 C710 1.368 . S
C714 C713 1.523 . S
H715 C690 0.950 . S
H716 C692 0.950 . S
H717 C693 0.949 . S
H718 C695 0.950 . S
H719 C697 0.950 . S
C720 C721 1.349 . S
C720 C722 1.327 . S
C720 H745 0.950 . S
C721 C720 1.349 . S
C721 C737 1.349 . S
C722 C720 1.327 . S
C722 C741 1.429 . S
C722 H746 0.950 . S
C723 C740 1.574 . S
C723 C742 1.368 . S
C723 H747 0.949 . S
H724 C728 0.949 . S
C725 C726 1.349 . S
C725 C727 1.327 . S
C725 H748 0.950 . S
C726 C725 1.349 . S
C726 C738 1.349 . S
C727 C725 1.327 . S
C727 C743 1.429 . S
C727 H749 0.950 . S
C728 H724 0.949 . S
C728 C736 1.574 . S
C728 C744 1.368 . S
H729 C737 0.950 . S
H730 C735 0.950 . S
H731 C736 0.949 . S
H732 C738 0.950 . S
H733 C739 0.950 . S
H734 C740 0.949 . S
C735 H730 0.950 . S
C735 C737 1.327 . S
C735 C741 1.429 . S
C736 C728 1.574 . S
C736 H731 0.949 . S
C736 C742 1.368 . S
C737 C721 1.349 . S
C737 H729 0.950 . S
C737 C735 1.327 . S
C738 C726 1.349 . S
C738 H732 0.950 . S
C738 C739 1.327 . S
C739 H733 0.950 . S
C739 C738 1.327 . S
C739 C743 1.429 . S
C740 C723 1.574 . S
C740 H734 0.949 . S
C740 C744 1.368 . S
C741 C722 1.429 . S
C741 C735 1.429 . S
C741 C742 1.523 . S
C742 C723 1.368 . S
C742 C736 1.368 . S
C742 C741 1.523 . S
C743 C727 1.429 . S
C743 C739 1.429 . S
C743 C744 1.523 . S
C744 C728 1.368 . S
C744 C740 1.368 . S
C744 C743 1.523 . S
H745 C720 0.950 . S
H746 C722 0.950 . S
H747 C723 0.949 . S
H748 C725 0.950 . S
H749 C727 0.950 . S
C750 C751 1.349 . S
C750 C752 1.327 . S
C750 H775 0.950 . S
C751 C750 1.349 . S
C751 C767 1.349 . S
C752 C750 1.327 . S
C752 C771 1.429 . S
C752 H776 0.950 . S
C753 C770 1.574 . S
C753 C772 1.368 . S
C753 H777 0.949 . S
H754 C758 0.949 . S
C755 C756 1.349 . S
C755 C757 1.327 . S
C755 H778 0.950 . S
C756 C755 1.349 . S
C756 C768 1.349 . S
C757 C755 1.327 . S
C757 C773 1.429 . S
C757 H779 0.950 . S
C758 H754 0.949 . S
C758 C766 1.574 1_556 S
C758 C774 1.368 . S
H759 C767 0.950 . S
H760 C765 0.950 . S
H761 C766 0.949 . S
H762 C768 0.950 . S
H763 C769 0.950 . S
H764 C770 0.949 1_556 S
C765 H760 0.950 . S
C765 C767 1.327 . S
C765 C771 1.429 . S
C766 C758 1.574 1_554 S
C766 H761 0.949 . S
C766 C772 1.368 . S
C767 C751 1.349 . S
C767 H759 0.950 . S
C767 C765 1.327 . S
C768 C756 1.349 . S
C768 H762 0.950 . S
C768 C769 1.327 . S
C769 H763 0.950 . S
C769 C768 1.327 . S
C769 C773 1.429 . S
C770 C753 1.574 . S
C770 H764 0.949 1_554 S
C770 C774 1.368 1_554 S
C771 C752 1.429 . S
C771 C765 1.429 . S
C771 C772 1.523 . S
C772 C753 1.368 . S
C772 C766 1.368 . S
C772 C771 1.523 . S
C773 C757 1.429 . S
C773 C769 1.429 . S
C773 C774 1.523 . S
C774 C758 1.368 . S
C774 C770 1.368 1_556 S
C774 C773 1.523 . S
H775 C750 0.950 . S
H776 C752 0.950 . S
H777 C753 0.949 . S
H778 C755 0.950 . S
H779 C757 0.950 . S
C241 C204 2.516 . S
C246 C25 2.600 . S
C271 C31 3.092 . S
C276 C44 2.821 . S
C301 C60 0.688 . S
C306 C111 0.688 . S
C331 C124 2.599 . S
C336 C105 2.514 . S
C361 C185 2.821 . S
C366 C140 3.092 . S
C391 C191 0.688 . S
C396 C220 0.688 . S
C421 C180 2.051 . S
C426 C4 2.027 . S
C451 C225 1.471 . S
C456 C65 1.463 . S
C481 C100 2.668 . S
C486 C20 2.642 . S
C511 C145 2.027 . S
C516 C71 2.051 . S
C541 C164 1.463 . S
C546 C84 1.470 . S
C571 C151 2.642 . S
C576 C231 2.668 . S
C601 C23 0.990 . S
C606 C2 0.990 . S
C631 C63 1.036 . S
C636 C42 1.036 . S
C661 C82 1.024 . S
C666 C103 1.024 . S
C691 C143 0.990 . S
C696 C122 0.990 . S
C721 C162 1.036 . S
C726 C183 1.036 . S
C751 C202 1.024 . S
C756 C223 1.024 . S
