# Generated by pormake.
# Topology uol, (4)-cn, num edge types: 1
# Building blocks:
#     Node 0, Type 0, BuildingBlock: GALJAG_clean_sbu_0, # of connection points: 4
#     Node 1, Type 0, BuildingBlock: GALJAG_clean_sbu_0, # of connection points: 4
#     Node 2, Type 0, BuildingBlock: GALJAG_clean_sbu_0, # of connection points: 4
#     Node 3, Type 0, BuildingBlock: GALJAG_clean_sbu_0, # of connection points: 4
#     Node 4, Type 0, BuildingBlock: GALJAG_clean_sbu_0, # of connection points: 4
#     Node 5, Type 0, BuildingBlock: GALJAG_clean_sbu_0, # of connection points: 4
#     Node 6, Type 0, BuildingBlock: GALJAG_clean_sbu_0, # of connection points: 4
#     Node 7, Type 0, BuildingBlock: GALJAG_clean_sbu_0, # of connection points: 4
#     Node 8, Type 0, BuildingBlock: GALJAG_clean_sbu_0, # of connection points: 4
#     Node 9, Type 0, BuildingBlock: GALJAG_clean_sbu_0, # of connection points: 4
#     Node 10, Type 0, BuildingBlock: GALJAG_clean_sbu_0, # of connection points: 4
#     Node 11, Type 0, BuildingBlock: GALJAG_clean_sbu_0, # of connection points: 4
#     Edge 12, Type (0, 0), BuildingBlock: KIFKEQ_clean_linker_1, # of connection points: 2
#     Edge 13, Type (0, 0), BuildingBlock: KIFKEQ_clean_linker_1, # of connection points: 2
#     Edge 14, Type (0, 0), BuildingBlock: KIFKEQ_clean_linker_1, # of connection points: 2
#     Edge 15, Type (0, 0), BuildingBlock: KIFKEQ_clean_linker_1, # of connection points: 2
#     Edge 16, Type (0, 0), BuildingBlock: KIFKEQ_clean_linker_1, # of connection points: 2
#     Edge 17, Type (0, 0), BuildingBlock: KIFKEQ_clean_linker_1, # of connection points: 2
#     Edge 18, Type (0, 0), BuildingBlock: KIFKEQ_clean_linker_1, # of connection points: 2
#     Edge 19, Type (0, 0), BuildingBlock: KIFKEQ_clean_linker_1, # of connection points: 2
#     Edge 20, Type (0, 0), BuildingBlock: KIFKEQ_clean_linker_1, # of connection points: 2
#     Edge 21, Type (0, 0), BuildingBlock: KIFKEQ_clean_linker_1, # of connection points: 2
#     Edge 22, Type (0, 0), BuildingBlock: KIFKEQ_clean_linker_1, # of connection points: 2
#     Edge 23, Type (0, 0), BuildingBlock: KIFKEQ_clean_linker_1, # of connection points: 2
#     Edge 24, Type (0, 0), BuildingBlock: KIFKEQ_clean_linker_1, # of connection points: 2
#     Edge 25, Type (0, 0), BuildingBlock: KIFKEQ_clean_linker_1, # of connection points: 2
#     Edge 26, Type (0, 0), BuildingBlock: KIFKEQ_clean_linker_1, # of connection points: 2
#     Edge 27, Type (0, 0), BuildingBlock: KIFKEQ_clean_linker_1, # of connection points: 2
#     Edge 28, Type (0, 0), BuildingBlock: KIFKEQ_clean_linker_1, # of connection points: 2
#     Edge 29, Type (0, 0), BuildingBlock: KIFKEQ_clean_linker_1, # of connection points: 2
#     Edge 30, Type (0, 0), BuildingBlock: KIFKEQ_clean_linker_1, # of connection points: 2
#     Edge 31, Type (0, 0), BuildingBlock: KIFKEQ_clean_linker_1, # of connection points: 2
#     Edge 32, Type (0, 0), BuildingBlock: KIFKEQ_clean_linker_1, # of connection points: 2
#     Edge 33, Type (0, 0), BuildingBlock: KIFKEQ_clean_linker_1, # of connection points: 2
#     Edge 34, Type (0, 0), BuildingBlock: KIFKEQ_clean_linker_1, # of connection points: 2
#     Edge 35, Type (0, 0), BuildingBlock: KIFKEQ_clean_linker_1, # of connection points: 2
# Relax obj value: 0.121
# Max RMSD: 0.117
# Mean RMSD: 0.117
data_MOF--net-uol--node1-GALJAG_clean_sbu_0--edge1-KIFKEQ_clean_linker_1
_symmetry_space_group_name_H-M    P1
_symmetry_Int_Tables_number       1
_symmetry_cell_setting            triclinic
loop_
_symmetry_equiv_pos_as_xyz
'x, y, z'
_cell_length_a     35.120574
_cell_length_b     35.12846
_cell_length_c     60.814661
_cell_angle_alpha  89.950441
_cell_angle_beta   90.020566
_cell_angle_gamma 119.9722
loop_
_atom_site_label
_atom_site_type_symbol
_atom_site_fract_x
_atom_site_fract_y
_atom_site_fract_z
_atom_type_partial_charge
In0 In 0.16956 0.36458 0.08717 0.0
O1 O 0.09425 0.32259 0.08913 0.0
O2 O 0.13066 0.34243 0.11894 0.0
C3 C 0.18621 0.34267 0.04708 0.0
C4 C 0.17858 0.44558 0.08428 0.0
C5 C 0.21852 0.34181 0.11214 0.0
O6 O 0.15002 0.32011 0.05687 0.0
O7 O 0.21333 0.37701 0.05716 0.0
O8 O 0.22623 0.38101 0.11114 0.0
O9 O 0.18696 0.31491 0.10032 0.0
C10 C 0.09351 0.32149 0.10989 0.0
O11 O 0.20723 0.43899 0.09322 0.0
O12 O 0.14615 0.41162 0.07647 0.0
In13 In 0.80388 0.16945 0.25524 0.0
O14 O 0.76498 0.09363 0.25617 0.0
O15 O 0.7928 0.12807 0.28581 0.0
C16 C 0.84349 0.18558 0.2156 0.0
C17 C 0.73309 0.18045 0.25293 0.0
C18 C 0.87723 0.22488 0.27764 0.0
O19 O 0.83274 0.15089 0.22636 0.0
O20 O 0.83275 0.21133 0.22447 0.0
O21 O 0.8447 0.23095 0.27639 0.0
O22 O 0.87252 0.19145 0.26755 0.0
C23 C 0.77103 0.09143 0.27647 0.0
O24 O 0.76043 0.19566 0.26851 0.0
O25 O 0.74166 0.16008 0.23849 0.0
In26 In 0.63233 0.80201 0.42077 0.0
O27 O 0.6768 0.7716 0.42451 0.0
O28 O 0.65016 0.78365 0.4533 0.0
C29 C 0.6546 0.83896 0.38037 0.0
C30 C 0.55144 0.73078 0.41768 0.0
C31 C 0.65388 0.87426 0.44486 0.0
O32 O 0.67846 0.82815 0.39114 0.0
O33 O 0.61875 0.82941 0.38957 0.0
O34 O 0.61494 0.84238 0.44403 0.0
O35 O 0.68112 0.86982 0.43323 0.0
C36 C 0.67432 0.77013 0.44527 0.0
O37 O 0.55796 0.7669 0.42539 0.0
O38 O 0.5856 0.7309 0.41113 0.0
In39 In 0.83343 0.63387 0.59046 0.0
O40 O 0.79662 0.56112 0.5992 0.0
O41 O 0.84074 0.58157 0.572 0.0
C42 C 0.78463 0.64541 0.62148 0.0
C43 C 0.91764 0.67186 0.60464 0.0
C44 C 0.81947 0.66752 0.55331 0.0
O45 O 0.76859 0.62702 0.60335 0.0
O46 O 0.82445 0.65684 0.62402 0.0
O47 O 0.84211 0.69125 0.56914 0.0
O48 O 0.80516 0.62699 0.5559 0.0
C49 C 0.81433 0.55036 0.5842 0.0
O50 O 0.9054 0.69055 0.59089 0.0
O51 O 0.888 0.63417 0.61043 0.0
In52 In 0.1958 0.83028 0.75392 0.0
O53 O 0.21701 0.9037 0.75571 0.0
O54 O 0.23592 0.87586 0.78157 0.0
C55 C 0.15897 0.80891 0.71356 0.0
C56 C 0.26538 0.81803 0.7509 0.0
C57 C 0.12416 0.78536 0.77973 0.0
O58 O 0.1726 0.8465 0.72183 0.0
O59 O 0.16469 0.78276 0.72544 0.0
O60 O 0.15013 0.77126 0.77563 0.0
O61 O 0.13419 0.82144 0.7707 0.0
C62 C 0.23656 0.9095 0.7739 0.0
O63 O 0.23558 0.79892 0.76516 0.0
O64 O 0.25973 0.84287 0.73789 0.0
In65 In 0.36279 0.19404 0.92228 0.0
O66 O 0.30115 0.18229 0.94095 0.0
O67 O 0.33968 0.24427 0.9258 0.0
C68 C 0.34224 0.15389 0.88255 0.0
C69 C 0.44372 0.26611 0.91992 0.0
C70 C 0.35831 0.13451 0.95191 0.0
O71 O 0.31512 0.15968 0.8936 0.0
O72 O 0.3796 0.16931 0.89129 0.0
O73 O 0.35112 0.12629 0.93166 0.0
O74 O 0.36934 0.17345 0.95722 0.0
C75 C 0.30686 0.22019 0.93762 0.0
O76 O 0.43567 0.2338 0.9321 0.0
O77 O 0.41132 0.26164 0.90893 0.0
In78 In 0.63318 0.83032 0.74511 0.0
O79 O 0.56165 0.79827 0.73446 0.0
O80 O 0.58142 0.84111 0.7621 0.0
C81 C 0.65867 0.78364 0.71992 0.0
C82 C 0.669 0.90878 0.72441 0.0
C83 C 0.65575 0.81312 0.78481 0.0
O84 O 0.61898 0.76905 0.72513 0.0
O85 O 0.68487 0.82131 0.72734 0.0
O86 O 0.67832 0.84942 0.77506 0.0
O87 O 0.62111 0.78614 0.77487 0.0
C88 C 0.55086 0.81657 0.7491 0.0
O89 O 0.68082 0.9049 0.74351 0.0
O90 O 0.63931 0.8735 0.7161 0.0
In91 In 0.80209 0.63372 0.91274 0.0
O92 O 0.7709 0.67785 0.91181 0.0
O93 O 0.78507 0.65714 0.88155 0.0
C94 C 0.84278 0.65121 0.9522 0.0
C95 C 0.72958 0.55356 0.9164 0.0
C96 C 0.87315 0.65708 0.88732 0.0
O97 O 0.82986 0.67571 0.94381 0.0
O98 O 0.83338 0.61728 0.94115 0.0
O99 O 0.83999 0.61878 0.88665 0.0
O100 O 0.87028 0.68271 0.90087 0.0
C101 C 0.7704 0.67905 0.89104 0.0
O102 O 0.76423 0.55923 0.90715 0.0
O103 O 0.73181 0.58808 0.92389 0.0
In104 In 0.17319 0.80586 0.07941 0.0
O105 O 0.09989 0.78337 0.07576 0.0
O106 O 0.13296 0.77503 0.04855 0.0
C107 C 0.18844 0.84199 0.11994 0.0
C108 C 0.18129 0.73395 0.08489 0.0
C109 C 0.22442 0.87851 0.05516 0.0
O110 O 0.15313 0.83027 0.10959 0.0
O111 O 0.21541 0.83408 0.11015 0.0
O112 O 0.23042 0.84595 0.05561 0.0
O113 O 0.19285 0.8742 0.0668 0.0
C114 C 0.09743 0.77012 0.05623 0.0
O115 O 0.21019 0.76815 0.07528 0.0
O116 O 0.14898 0.73653 0.09215 0.0
In117 In 0.36431 0.16851 0.24638 0.0
O118 O 0.43529 0.19837 0.23434 0.0
O119 O 0.41561 0.15508 0.26174 0.0
C120 C 0.34158 0.21852 0.22228 0.0
C121 C 0.3202 0.09023 0.22555 0.0
C122 C 0.34485 0.18869 0.28608 0.0
O123 O 0.38108 0.22727 0.22377 0.0
O124 O 0.31444 0.18552 0.23324 0.0
O125 O 0.31981 0.15287 0.27645 0.0
O126 O 0.38004 0.21359 0.27595 0.0
C127 C 0.44595 0.17924 0.2486 0.0
O128 O 0.32513 0.09265 0.24616 0.0
O129 O 0.33792 0.12669 0.21579 0.0
In130 In 0.19364 0.36803 0.40947 0.0
O131 O 0.22904 0.44286 0.40648 0.0
O132 O 0.25844 0.4143 0.4261 0.0
C133 C 0.1344 0.3634 0.37923 0.0
C134 C 0.23376 0.32615 0.39224 0.0
C135 C 0.14895 0.33246 0.44712 0.0
O136 O 0.131 0.36921 0.39939 0.0
O137 O 0.16798 0.36115 0.37433 0.0
O138 O 0.14751 0.30947 0.43084 0.0
O139 O 0.17404 0.37327 0.44465 0.0
C140 C 0.26131 0.44888 0.41819 0.0
O141 O 0.20208 0.30735 0.40556 0.0
O142 O 0.24515 0.36554 0.38811 0.0
In143 In 0.82534 0.19411 0.57727 0.0
O144 O 0.79504 0.23485 0.56579 0.0
O145 O 0.84187 0.26053 0.59171 0.0
C146 C 0.77533 0.12032 0.55421 0.0
C147 C 0.90118 0.22508 0.55446 0.0
C148 C 0.80298 0.15646 0.61739 0.0
O149 O 0.76643 0.15098 0.55527 0.0
O150 O 0.80866 0.12679 0.56507 0.0
O151 O 0.8405 0.16925 0.60912 0.0
O152 O 0.77781 0.16408 0.60574 0.0
C153 C 0.81619 0.26578 0.57919 0.0
O154 O 0.90056 0.22301 0.57524 0.0
O155 O 0.86435 0.21274 0.54572 0.0
H156 H 0.24911 0.7213 0.07258 0.0
H157 H 0.11829 0.65418 0.10018 0.0
H158 H 0.25023 0.65218 0.07256 0.0
H159 H 0.11949 0.58535 0.10019 0.0
H160 H 0.11623 0.46434 0.0702 0.0
H161 H 0.11879 0.53494 0.07112 0.0
H162 H 0.24953 0.59572 0.09863 0.0
H163 H 0.24703 0.52478 0.09769 0.0
C164 C 0.22078 0.69189 0.07881 0.0
C165 C 0.18356 0.69311 0.08632 0.0
C166 C 0.22149 0.65239 0.07886 0.0
C167 C 0.18481 0.61331 0.08621 0.0
C168 C 0.148 0.61482 0.09413 0.0
C169 C 0.14744 0.65429 0.09426 0.0
C170 C 0.14562 0.49277 0.07636 0.0
C171 C 0.18141 0.48901 0.08391 0.0
C172 C 0.14695 0.53314 0.07702 0.0
C173 C 0.18422 0.57079 0.0851 0.0
C174 C 0.22045 0.56729 0.09223 0.0
C175 C 0.21896 0.52671 0.09175 0.0
H176 H 0.67618 0.16035 0.21863 0.0
H177 H 0.70021 0.21004 0.28514 0.0
H178 H 0.60847 0.16389 0.21766 0.0
H179 H 0.6323 0.21339 0.28418 0.0
H180 H 0.47979 0.15207 0.28135 0.0
H181 H 0.5513 0.15626 0.28232 0.0
H182 H 0.58301 0.22003 0.21887 0.0
H183 H 0.51143 0.21607 0.21793 0.0
C184 C 0.66712 0.17228 0.23299 0.0
C185 C 0.69338 0.18479 0.25199 0.0
C186 C 0.6285 0.17452 0.23239 0.0
C187 C 0.61511 0.18883 0.25086 0.0
C188 C 0.64168 0.20189 0.26977 0.0
C189 C 0.6806 0.20015 0.27028 0.0
C190 C 0.50214 0.16724 0.26767 0.0
C191 C 0.49003 0.18366 0.24954 0.0
C192 C 0.54314 0.16984 0.26829 0.0
C193 C 0.57268 0.18845 0.25067 0.0
C194 C 0.56074 0.20525 0.23261 0.0
C195 C 0.5199 0.20316 0.23212 0.0
H196 H 0.4723 0.7237 0.42778 0.0
H197 H 0.53181 0.64763 0.40718 0.0
H198 H 0.40041 0.65656 0.4292 0.0
H199 H 0.46017 0.58079 0.4086 0.0
H200 H 0.33769 0.46685 0.4383 0.0
H201 H 0.40695 0.53631 0.43847 0.0
H202 H 0.34554 0.59818 0.4032 0.0
H203 H 0.27592 0.52844 0.40301 0.0
C204 C 0.46996 0.6927 0.42345 0.0
C205 C 0.50763 0.69084 0.41741 0.0
C206 C 0.42886 0.65437 0.42422 0.0
C207 C 0.42483 0.61348 0.4192 0.0
C208 C 0.46244 0.61179 0.41288 0.0
C209 C 0.50338 0.65008 0.41191 0.0
C210 C 0.33877 0.49537 0.43081 0.0
C211 C 0.30145 0.49219 0.42055 0.0
C212 C 0.37851 0.53504 0.43078 0.0
C213 C 0.38172 0.57246 0.42062 0.0
C214 C 0.34394 0.56984 0.41119 0.0
C215 C 0.30417 0.52996 0.41106 0.0
H216 H 0.77834 0.48466 0.6146 0.0
H217 H 0.83673 0.51563 0.54985 0.0
H218 H 0.77524 0.41356 0.61326 0.0
H219 H 0.83298 0.44422 0.54843 0.0
H220 H 0.77913 0.2935 0.54829 0.0
H221 H 0.77411 0.36056 0.54892 0.0
H222 H 0.83779 0.39399 0.61234 0.0
H223 H 0.84346 0.32738 0.61161 0.0
C224 C 0.78985 0.47597 0.59996 0.0
C225 C 0.8079 0.50565 0.58235 0.0
C226 C 0.7883 0.43547 0.59926 0.0
C227 C 0.80404 0.42363 0.58079 0.0
C228 C 0.82042 0.45253 0.56281 0.0
C229 C 0.82267 0.49337 0.56365 0.0
C230 C 0.79188 0.31511 0.5624 0.0
C231 C 0.81177 0.30537 0.57989 0.0
C232 C 0.78912 0.35345 0.5627 0.0
C233 C 0.80546 0.38224 0.5807 0.0
C234 C 0.82458 0.37206 0.59837 0.0
C235 C 0.82804 0.33415 0.59789 0.0
H236 H 0.4871 0.78234 0.71768 0.0
H237 H 0.51528 0.84075 0.7824 0.0
H238 H 0.41608 0.77944 0.71796 0.0
H239 H 0.44396 0.83733 0.78274 0.0
H240 H 0.29368 0.78236 0.78224 0.0
H241 H 0.36135 0.77857 0.7821 0.0
H242 H 0.39382 0.83934 0.71795 0.0
H243 H 0.32641 0.84365 0.71815 0.0
C244 C 0.4779 0.7941 0.73205 0.0
C245 C 0.5067 0.81184 0.75001 0.0
C246 C 0.43741 0.79265 0.73215 0.0
C247 C 0.42467 0.80824 0.75034 0.0
C248 C 0.45291 0.82482 0.76857 0.0
C249 C 0.49372 0.82692 0.76834 0.0
C250 C 0.31513 0.79464 0.76805 0.0
C251 C 0.30487 0.81337 0.75021 0.0
C252 C 0.35389 0.79265 0.76804 0.0
C253 C 0.38273 0.80869 0.75003 0.0
C254 C 0.37194 0.82644 0.73196 0.0
C255 C 0.33352 0.82906 0.73212 0.0
H256 H 0.46307 0.34322 0.90034 0.0
H257 H 0.52183 0.28108 0.93766 0.0
H258 H 0.53322 0.41174 0.89995 0.0
H259 H 0.59253 0.35003 0.93707 0.0
H260 H 0.71902 0.47252 0.90714 0.0
H261 H 0.65056 0.40148 0.90826 0.0
H262 H 0.58027 0.46649 0.9296 0.0
H263 H 0.64834 0.53712 0.92868 0.0
C264 C 0.49106 0.34414 0.90837 0.0
C265 C 0.48695 0.30684 0.91909 0.0
C266 C 0.53115 0.38344 0.90823 0.0
C267 C 0.56819 0.38621 0.91858 0.0
C268 C 0.56447 0.34867 0.9289 0.0
C269 C 0.52406 0.30936 0.9293 0.0
C270 C 0.68894 0.47151 0.91217 0.0
C271 C 0.68895 0.51033 0.91776 0.0
C272 C 0.6499 0.43091 0.9129 0.0
C273 C 0.61016 0.42861 0.9189 0.0
C274 C 0.61037 0.4674 0.9247 0.0
C275 C 0.64937 0.50778 0.92426 0.0
H276 H 0.25792 0.20039 0.21526 0.0
H277 H 0.39206 0.28972 0.19577 0.0
H278 H 0.23195 0.23351 0.18839 0.0
H279 H 0.36568 0.32321 0.1687 0.0
H280 H 0.28879 0.39238 0.13909 0.0
H281 H 0.3221 0.36622 0.16637 0.0
H282 H 0.23327 0.23244 0.14652 0.0
H283 H 0.20034 0.2582 0.11943 0.0
C284 C 0.28194 0.22742 0.20537 0.0
C285 C 0.32703 0.24222 0.2075 0.0
C286 C 0.267 0.24623 0.18991 0.0
C287 C 0.29678 0.2805 0.17629 0.0
C288 C 0.34207 0.2968 0.17902 0.0
C289 C 0.3571 0.27761 0.19445 0.0
C290 C 0.27679 0.35745 0.14044 0.0
C291 C 0.24178 0.32731 0.12723 0.0
C292 C 0.29589 0.34255 0.15598 0.0
C293 C 0.27984 0.29731 0.1587 0.0
C294 C 0.24582 0.26745 0.145 0.0
C295 C 0.22712 0.28227 0.1294 0.0
H296 H 0.89326 0.29372 0.30485 0.0
H297 H 0.95131 0.21922 0.27985 0.0
H298 H 0.95813 0.33634 0.32805 0.0
H299 H 0.01513 0.2608 0.30305 0.0
H300 H 0.13883 0.35752 0.33482 0.0
H301 H 0.07871 0.33231 0.30851 0.0
H302 H 0.99102 0.32295 0.36073 0.0
H303 H 0.05167 0.34941 0.38698 0.0
C304 C 0.91998 0.28673 0.30418 0.0
C305 C 0.91719 0.25309 0.29059 0.0
C306 C 0.95698 0.31094 0.31752 0.0
C307 C 0.99189 0.30209 0.31736 0.0
C308 C 0.98929 0.2691 0.30332 0.0
C309 C 0.95246 0.24495 0.29013 0.0
C310 C 0.10691 0.35086 0.34061 0.0
C311 C 0.09978 0.35491 0.36298 0.0
C312 C 0.0724 0.33619 0.32556 0.0
C313 C 0.02988 0.32488 0.33258 0.0
C314 C 0.02339 0.33157 0.35475 0.0
C315 C 0.05808 0.34655 0.36981 0.0
H316 H 0.79302 0.05425 0.54808 0.0
H317 H 0.7041 0.09919 0.52783 0.0
H318 H 0.75991 0.99481 0.52143 0.0
H319 H 0.67071 0.03906 0.501 0.0
H320 H 0.60246 0.89311 0.47156 0.0
H321 H 0.62785 0.95217 0.49897 0.0
H322 H 0.76209 0.99858 0.4793 0.0
H323 H 0.73709 0.94033 0.45206 0.0
C324 C 0.76605 0.05115 0.5381 0.0
C325 C 0.75141 0.0816 0.53988 0.0
C326 C 0.74726 0.01723 0.52278 0.0
C327 C 0.71324 0.01283 0.509 0.0
C328 C 0.69695 0.04186 0.51147 0.0
C329 C 0.71607 0.0762 0.52675 0.0
C330 C 0.63731 0.91632 0.47296 0.0
C331 C 0.66784 0.912 0.45979 0.0
C332 C 0.65176 0.95002 0.48858 0.0
C333 C 0.6969 0.9794 0.49138 0.0
C334 C 0.72714 0.97588 0.47769 0.0
C335 C 0.71277 0.94267 0.46201 0.0
H336 H 0.7043 0.6396 0.61673 0.0
H337 H 0.81101 0.67725 0.66271 0.0
H338 H 0.6705 0.66889 0.64169 0.0
H339 H 0.77696 0.7055 0.68773 0.0
H340 H 0.74263 0.80938 0.70828 0.0
H341 H 0.76893 0.77028 0.68574 0.0
H342 H 0.63589 0.66281 0.67824 0.0
H343 H 0.60925 0.70263 0.70076 0.0
C344 C 0.72002 0.6533 0.63235 0.0
C345 C 0.76053 0.65668 0.63767 0.0
C346 C 0.70063 0.66994 0.64666 0.0
C347 C 0.72145 0.69013 0.66652 0.0
C348 C 0.76062 0.69104 0.67233 0.0
C349 C 0.78001 0.67463 0.65805 0.0
C350 C 0.71891 0.77737 0.7019 0.0
C351 C 0.67388 0.75903 0.70631 0.0
C352 C 0.73404 0.75478 0.6891 0.0
C353 C 0.70455 0.71322 0.68039 0.0
C354 C 0.65937 0.69485 0.68468 0.0
C355 C 0.64417 0.71753 0.69761 0.0
H356 H 0.94468 0.73873 0.8854 0.0
H357 H 0.88768 0.61016 0.85559 0.0
H358 H 0.00495 0.76672 0.85919 0.0
H359 H 0.94853 0.63855 0.8291 0.0
H360 H 0.0935 0.7061 0.80069 0.0
H361 H 0.03263 0.6719 0.8271 0.0
H362 H 0.00845 0.78007 0.81861 0.0
H363 H 0.06881 0.81407 0.79248 0.0
C364 C 0.94517 0.71633 0.87332 0.0
C365 C 0.91128 0.67231 0.87244 0.0
C366 C 0.97961 0.73246 0.85824 0.0
C367 C 0.98111 0.70494 0.84195 0.0
C368 C 0.94816 0.66043 0.84153 0.0
C369 C 0.91336 0.64426 0.85662 0.0
C370 C 0.07493 0.72233 0.80441 0.0
C371 C 0.08606 0.76288 0.79465 0.0
C372 C 0.04008 0.70271 0.81943 0.0
C373 C 0.01619 0.7236 0.82505 0.0
C374 C 0.02677 0.76359 0.81486 0.0
C375 C 0.06122 0.78294 0.79981 0.0
H376 H 0.28857 0.89288 0.02522 0.0
H377 H 0.22041 0.95381 0.0547 0.0
H378 H 0.32933 0.95735 0.00159 0.0
H379 H 0.26056 0.01768 0.03108 0.0
H380 H 0.3591 0.14064 0.99674 0.0
H381 H 0.33368 0.0805 0.02326 0.0
H382 H 0.31048 0.98956 0.9703 0.0
H383 H 0.33635 0.04964 0.94388 0.0
C384 C 0.28255 0.92014 0.02675 0.0
C385 C 0.25115 0.91822 0.04171 0.0
C386 C 0.30575 0.95696 0.01319 0.0
C387 C 0.29822 0.99266 0.01447 0.0
C388 C 0.26765 0.99107 0.02989 0.0
C389 C 0.24435 0.95427 0.0433 0.0
C390 C 0.34936 0.10795 0.99083 0.0
C391 C 0.34939 0.09978 0.96822 0.0
C392 C 0.33454 0.07346 0.00599 0.0
C393 C 0.31965 0.03018 0.99886 0.0
C394 C 0.32202 0.02253 0.97636 0.0
C395 C 0.33664 0.05695 0.9612 0.0
H396 H 0.13507 0.26756 0.02371 0.0
H397 H 0.26404 0.38328 0.02492 0.0
H398 H 0.15794 0.23808 0.99332 0.0
H399 H 0.28723 0.35354 0.995 0.0
H400 H 0.31531 0.30158 0.93407 0.0
H401 H 0.28025 0.3325 0.95688 0.0
H402 H 0.20611 0.20781 0.99025 0.0
H403 H 0.24034 0.17677 0.96711 0.0
C404 C 0.16811 0.28696 0.01729 0.0
C405 C 0.19786 0.3276 0.02679 0.0
C406 C 0.1813 0.26995 0.99997 0.0
C407 C 0.22454 0.29323 0.99181 0.0
C408 C 0.25354 0.33489 0.00066 0.0
C409 C 0.24033 0.35188 0.01793 0.0
C410 C 0.29086 0.28058 0.94599 0.0
C411 C 0.28081 0.23685 0.94892 0.0
C412 C 0.27099 0.29837 0.95916 0.0
C413 C 0.24071 0.27283 0.97558 0.0
C414 C 0.22893 0.22837 0.97765 0.0
C415 C 0.24873 0.21057 0.96444 0.0
H416 H 0.86227 0.25237 0.18675 0.0
H417 H 0.88953 0.14759 0.20037 0.0
H418 H 0.91885 0.28046 0.15809 0.0
H419 H 0.94649 0.17622 0.17203 0.0
H420 H 0.08664 0.29253 0.15175 0.0
H421 H 0.02038 0.25345 0.17405 0.0
H422 H 0.94224 0.25681 0.1201 0.0
H423 H 0.00891 0.29527 0.09737 0.0
C424 C 0.8797 0.23486 0.18331 0.0
C425 C 0.87174 0.19799 0.19588 0.0
C426 C 0.9119 0.25084 0.16689 0.0
C427 C 0.93708 0.23061 0.16303 0.0
C428 C 0.92757 0.19245 0.17481 0.0
C429 C 0.8949 0.17604 0.19095 0.0
C430 C 0.05532 0.2847 0.14457 0.0
C431 C 0.05284 0.29696 0.12287 0.0
C432 C 0.01742 0.2621 0.15728 0.0
C433 C 0.97631 0.25197 0.1487 0.0
C434 C 0.97364 0.26422 0.127 0.0
C435 C 0.01163 0.28608 0.11406 0.0
H436 H 0.79936 0.08004 0.31601 0.0
H437 H 0.70585 0.00899 0.26448 0.0
H438 H 0.77127 0.01263 0.33736 0.0
H439 H 0.67703 0.94107 0.28622 0.0
H440 H 0.60722 0.86092 0.35277 0.0
H441 H 0.63614 0.91752 0.32418 0.0
H442 H 0.76623 0.93707 0.33481 0.0
H443 H 0.7374 0.8803 0.36324 0.0
C444 C 0.7729 0.04989 0.3092 0.0
C445 C 0.75466 0.04973 0.28863 0.0
C446 C 0.75706 0.01124 0.32136 0.0
C447 C 0.72217 0.97162 0.31337 0.0
C448 C 0.70401 0.97123 0.29271 0.0
C449 C 0.7205 0.00995 0.2803 0.0
C450 C 0.64179 0.87654 0.34861 0.0
C451 C 0.67014 0.8665 0.36036 0.0
C452 C 0.65827 0.90879 0.3322 0.0
C453 C 0.70345 0.9319 0.32748 0.0
C454 C 0.73131 0.91996 0.3383 0.0
C455 C 0.71476 0.88735 0.35448 0.0
H456 H 0.83555 0.75122 0.54758 0.0
H457 H 0.77299 0.62333 0.5168 0.0
H458 H 0.80451 0.77754 0.51953 0.0
H459 H 0.74194 0.64982 0.48869 0.0
H460 H 0.71982 0.72866 0.43308 0.0
H461 H 0.76083 0.7057 0.45723 0.0
H462 H 0.72532 0.75668 0.51332 0.0
H463 H 0.68449 0.77917 0.48947 0.0
C464 C 0.81582 0.72896 0.5346 0.0
C465 C 0.80637 0.68511 0.53449 0.0
C466 C 0.79788 0.74397 0.51862 0.0
C467 C 0.77043 0.71556 0.50208 0.0
C468 C 0.76311 0.67245 0.50119 0.0
C469 C 0.78075 0.65729 0.51732 0.0
C470 C 0.72088 0.73489 0.45057 0.0
C471 C 0.69891 0.75561 0.4594 0.0
C472 C 0.74424 0.72174 0.46435 0.0
C473 C 0.74658 0.72981 0.4871 0.0
C474 C 0.7247 0.75067 0.49582 0.0
C475 C 0.701 0.76322 0.48216 0.0
H476 H 0.14227 0.73781 0.6888 0.0
H477 H 0.11965 0.84773 0.69136 0.0
H478 H 0.09243 0.70781 0.65761 0.0
H479 H 0.06816 0.81683 0.66074 0.0
H480 H 0.9495 0.63512 0.63302 0.0
H481 H 0.01511 0.67193 0.65538 0.0
H482 H 0.05104 0.79491 0.62291 0.0
H483 H 0.98386 0.75773 0.60078 0.0
C484 C 0.12693 0.75578 0.68252 0.0
C485 C 0.13434 0.79477 0.69266 0.0
C486 C 0.09816 0.73849 0.66472 0.0
C487 C 0.07552 0.75938 0.65689 0.0
C488 C 0.08517 0.79993 0.66619 0.0
C489 C 0.11451 0.81758 0.68384 0.0
C490 C 0.9717 0.66988 0.63036 0.0
C491 C 0.96133 0.69359 0.61527 0.0
C492 C 0.00967 0.69104 0.6431 0.0
C493 C 0.03851 0.73654 0.64104 0.0
C494 C 0.02927 0.75995 0.62512 0.0
C495 C 0.99102 0.73864 0.61232 0.0
H496 H 0.39469 0.13391 0.85807 0.0
H497 H 0.26241 0.11212 0.86171 0.0
H498 H 0.37255 0.0804 0.82839 0.0
H499 H 0.24022 0.05828 0.83194 0.0
H500 H 0.22318 0.97947 0.76836 0.0
H501 H 0.25168 0.04534 0.79156 0.0
H502 H 0.32324 0.99876 0.83033 0.0
H503 H 0.29482 0.93343 0.80743 0.0
C504 C 0.36104 0.11824 0.85228 0.0
C505 C 0.33015 0.12684 0.86238 0.0
C506 C 0.34837 0.0875 0.83533 0.0
C507 C 0.30458 0.06484 0.82802 0.0
C508 C 0.27426 0.07542 0.83716 0.0
C509 C 0.28691 0.10609 0.85426 0.0
C510 C 0.24549 0.98377 0.78166 0.0
C511 C 0.25676 0.95137 0.78615 0.0
C512 C 0.26157 0.02125 0.79498 0.0
C513 C 0.28975 0.0272 0.8127 0.0
C514 C 0.30205 0.9954 0.81663 0.0
C515 C 0.28556 0.95784 0.80359 0.0
H516 H 0.60838 0.74368 0.81231 0.0
H517 H 0.73851 0.85444 0.80188 0.0
H518 H 0.63709 0.71683 0.84149 0.0
H519 H 0.76718 0.827 0.83071 0.0
H520 H 0.79531 0.71194 0.85005 0.0
H521 H 0.76786 0.75099 0.82786 0.0
H522 H 0.68167 0.74142 0.88079 0.0
H523 H 0.71028 0.70313 0.90346 0.0
C524 C 0.64289 0.76271 0.81656 0.0
C525 C 0.67129 0.80097 0.80475 0.0
C526 C 0.65922 0.74745 0.83329 0.0
C527 C 0.7043 0.76981 0.8382 0.0
C528 C 0.73229 0.8092 0.82716 0.0
C529 C 0.71585 0.8249 0.81072 0.0
C530 C 0.77082 0.71854 0.85706 0.0
C531 C 0.75479 0.70448 0.87842 0.0
C532 C 0.75536 0.74111 0.84442 0.0
C533 C 0.72287 0.74931 0.8527 0.0
C534 C 0.70686 0.73552 0.87412 0.0
C535 C 0.72321 0.71378 0.88704 0.0
H536 H 0.87903 0.6061 0.9706 0.0
H537 H 0.87345 0.72565 0.97727 0.0
H538 H 0.93702 0.63243 0.9982 0.0
H539 H 0.93174 0.75202 0.00501 0.0
H540 H 0.02041 0.76885 0.06558 0.0
H541 H 0.95329 0.73684 0.04318 0.0
H542 H 0.01531 0.69463 0.99535 0.0
H543 H 0.08199 0.72659 0.01747 0.0
C544 C 0.88961 0.63766 0.97825 0.0
C545 C 0.87199 0.66401 0.97161 0.0
C546 C 0.92298 0.65281 0.99398 0.0
C547 C 0.93927 0.6945 0.00351 0.0
C548 C 0.91971 0.7197 0.99795 0.0
C549 C 0.88643 0.70464 0.98206 0.0
C550 C 0.01951 0.75255 0.05031 0.0
C551 C 0.0564 0.75021 0.04324 0.0
C552 C 0.98122 0.7344 0.0375 0.0
C553 C 0.97902 0.713 0.01762 0.0
C554 C 0.01581 0.71035 0.01075 0.0
C555 C 0.05411 0.72893 0.02335 0.0
H556 H 0.14481 0.87987 0.13838 0.0
H557 H 0.25859 0.86467 0.14708 0.0
H558 H 0.17135 0.935 0.16756 0.0
H559 H 0.28475 0.9195 0.17651 0.0
H560 H 0.30234 0.00761 0.23776 0.0
H561 H 0.26419 0.93993 0.21571 0.0
H562 H 0.24292 0.01213 0.16433 0.0
H563 H 0.28153 0.07927 0.18588 0.0
C564 C 0.17486 0.88743 0.14691 0.0
C565 C 0.19991 0.86837 0.14029 0.0
C566 C 0.19005 0.91902 0.16356 0.0
C567 C 0.23019 0.93161 0.17412 0.0
C568 C 0.25358 0.91015 0.16868 0.0
C569 C 0.2387 0.87897 0.15179 0.0
C570 C 0.28913 0.00871 0.22183 0.0
C571 C 0.29502 0.04858 0.21343 0.0
C572 C 0.26745 0.97017 0.20926 0.0
C573 C 0.25041 0.9709 0.18844 0.0
C574 C 0.25524 0.01056 0.18044 0.0
C575 C 0.27763 0.04902 0.19271 0.0
H576 H 0.39674 0.25883 0.3121 0.0
H577 H 0.26389 0.15081 0.30545 0.0
H578 H 0.37345 0.2888 0.34195 0.0
H579 H 0.24012 0.18156 0.33478 0.0
H580 H 0.21095 0.23917 0.39465 0.0
H581 H 0.24136 0.20188 0.3729 0.0
H582 H 0.33203 0.32553 0.34208 0.0
H583 H 0.30269 0.36245 0.36403 0.0
C584 C 0.36263 0.24123 0.3172 0.0
C585 C 0.33202 0.20279 0.30629 0.0
C586 C 0.3492 0.25852 0.33422 0.0
C587 C 0.30474 0.23805 0.34053 0.0
C588 C 0.27465 0.19807 0.33048 0.0
C589 C 0.28821 0.18053 0.31358 0.0
C590 C 0.23786 0.25832 0.38346 0.0
C591 C 0.25431 0.30366 0.38097 0.0
C592 C 0.2551 0.23698 0.37092 0.0
C593 C 0.28916 0.26065 0.35571 0.0
C594 C 0.30641 0.30627 0.35386 0.0
C595 C 0.28928 0.32746 0.36635 0.0
H596 H 0.0851 0.24725 0.45347 0.0
H597 H 0.1457 0.37537 0.48394 0.0
H598 H 0.02858 0.21872 0.48194 0.0
H599 H 0.08893 0.34672 0.51243 0.0
H600 H 0.98783 0.26758 0.56761 0.0
H601 H 0.05282 0.29104 0.54409 0.0
H602 H 0.96826 0.23658 0.48751 0.0
H603 H 0.90412 0.21369 0.51067 0.0
C604 C 0.08685 0.26911 0.46648 0.0
C605 C 0.11952 0.31366 0.46633 0.0
C606 C 0.0544 0.25281 0.48273 0.0
C607 C 0.05409 0.28065 0.49924 0.0
C608 C 0.08846 0.32449 0.49996 0.0
C609 C 0.12081 0.3409 0.48359 0.0
C610 C 0.98334 0.26059 0.55016 0.0
C611 C 0.94098 0.239 0.54095 0.0
C612 C 0.02042 0.27401 0.53673 0.0
C613 C 0.01553 0.26525 0.51401 0.0
C614 C 0.97308 0.24316 0.505 0.0
C615 C 0.93633 0.2304 0.51826 0.0
H616 H 0.63717 0.92673 0.68769 0.0
H617 H 0.74615 0.98489 0.73313 0.0
H618 H 0.67175 0.99304 0.66539 0.0
H619 H 0.78118 0.05185 0.71056 0.0
H620 H 0.84613 0.12532 0.64271 0.0
H621 H 0.81448 0.07035 0.67202 0.0
H622 H 0.6927 0.07201 0.66687 0.0
H623 H 0.72401 0.12646 0.63759 0.0
C624 C 0.66838 0.95393 0.69302 0.0
C625 C 0.68901 0.95064 0.71211 0.0
C626 C 0.68807 0.99207 0.68032 0.0
C627 C 0.7291 0.02773 0.68628 0.0
C628 C 0.74958 0.0248 0.70557 0.0
C629 C 0.72949 0.98665 0.71851 0.0
C630 C 0.81294 0.11462 0.64819 0.0
C631 C 0.78734 0.12973 0.63766 0.0
C632 C 0.79488 0.08328 0.66501 0.0
C633 C 0.75092 0.06647 0.6715 0.0
C634 C 0.72643 0.08385 0.66195 0.0
C635 C 0.74445 0.11515 0.64523 0.0
loop_
_geom_bond_atom_site_label_1
_geom_bond_atom_site_label_2
_geom_bond_distance
_geom_bond_site_symmetry_2
_ccdc_geom_bond_type
In0 O1 2.294 . S
In0 O2 2.326 . S
In0 O6 2.266 . S
In0 O7 2.326 . S
In0 O8 2.266 . S
In0 O9 2.326 . S
In0 O11 2.294 . S
In0 O12 2.326 . S
O1 In0 2.294 . S
O1 C10 1.240 . S
O2 In0 2.326 . S
O2 C10 1.252 . S
C3 O6 1.252 . S
C3 O7 1.260 . S
C4 O11 1.240 . S
C4 O12 1.252 . S
C5 O8 1.252 . S
C5 O9 1.260 . S
O6 In0 2.266 . S
O6 C3 1.252 . S
O7 In0 2.326 . S
O7 C3 1.260 . S
O8 In0 2.266 . S
O8 C5 1.252 . S
O9 In0 2.326 . S
O9 C5 1.260 . S
C10 O1 1.240 . S
C10 O2 1.252 . S
O11 In0 2.294 . S
O11 C4 1.240 . S
O12 In0 2.326 . S
O12 C4 1.252 . S
In13 O14 2.294 . S
In13 O15 2.326 . S
In13 O19 2.266 . S
In13 O20 2.326 . S
In13 O21 2.266 . S
In13 O22 2.326 . S
In13 O24 2.294 . S
In13 O25 2.326 . S
O14 In13 2.294 . S
O14 C23 1.240 . S
O15 In13 2.326 . S
O15 C23 1.252 . S
C16 O19 1.252 . S
C16 O20 1.260 . S
C17 O24 1.240 . S
C17 O25 1.252 . S
C18 O21 1.252 . S
C18 O22 1.260 . S
O19 In13 2.266 . S
O19 C16 1.252 . S
O20 In13 2.326 . S
O20 C16 1.260 . S
O21 In13 2.266 . S
O21 C18 1.252 . S
O22 In13 2.326 . S
O22 C18 1.260 . S
C23 O14 1.240 . S
C23 O15 1.252 . S
O24 In13 2.294 . S
O24 C17 1.240 . S
O25 In13 2.326 . S
O25 C17 1.252 . S
In26 O27 2.294 . S
In26 O28 2.326 . S
In26 O32 2.266 . S
In26 O33 2.326 . S
In26 O34 2.266 . S
In26 O35 2.326 . S
In26 O37 2.294 . S
In26 O38 2.326 . S
O27 In26 2.294 . S
O27 C36 1.240 . S
O28 In26 2.326 . S
O28 C36 1.252 . S
C29 O32 1.252 . S
C29 O33 1.260 . S
C30 O37 1.240 . S
C30 O38 1.252 . S
C31 O34 1.252 . S
C31 O35 1.260 . S
O32 In26 2.266 . S
O32 C29 1.252 . S
O33 In26 2.326 . S
O33 C29 1.260 . S
O34 In26 2.266 . S
O34 C31 1.252 . S
O35 In26 2.326 . S
O35 C31 1.260 . S
C36 O27 1.240 . S
C36 O28 1.252 . S
O37 In26 2.294 . S
O37 C30 1.240 . S
O38 In26 2.326 . S
O38 C30 1.252 . S
In39 O40 2.294 . S
In39 O41 2.326 . S
In39 O45 2.266 . S
In39 O46 2.326 . S
In39 O47 2.266 . S
In39 O48 2.326 . S
In39 O50 2.294 . S
In39 O51 2.326 . S
O40 In39 2.294 . S
O40 C49 1.240 . S
O41 In39 2.326 . S
O41 C49 1.252 . S
C42 O45 1.252 . S
C42 O46 1.260 . S
C43 O50 1.240 . S
C43 O51 1.252 . S
C44 O47 1.252 . S
C44 O48 1.260 . S
O45 In39 2.266 . S
O45 C42 1.252 . S
O46 In39 2.326 . S
O46 C42 1.260 . S
O47 In39 2.266 . S
O47 C44 1.252 . S
O48 In39 2.326 . S
O48 C44 1.260 . S
C49 O40 1.240 . S
C49 O41 1.252 . S
O50 In39 2.294 . S
O50 C43 1.240 . S
O51 In39 2.326 . S
O51 C43 1.252 . S
In52 O53 2.294 . S
In52 O54 2.326 . S
In52 O58 2.266 . S
In52 O59 2.326 . S
In52 O60 2.266 . S
In52 O61 2.326 . S
In52 O63 2.294 . S
In52 O64 2.326 . S
O53 In52 2.294 . S
O53 C62 1.240 . S
O54 In52 2.326 . S
O54 C62 1.252 . S
C55 O58 1.252 . S
C55 O59 1.260 . S
C56 O63 1.240 . S
C56 O64 1.252 . S
C57 O60 1.252 . S
C57 O61 1.260 . S
O58 In52 2.266 . S
O58 C55 1.252 . S
O59 In52 2.326 . S
O59 C55 1.260 . S
O60 In52 2.266 . S
O60 C57 1.252 . S
O61 In52 2.326 . S
O61 C57 1.260 . S
C62 O53 1.240 . S
C62 O54 1.252 . S
O63 In52 2.294 . S
O63 C56 1.240 . S
O64 In52 2.326 . S
O64 C56 1.252 . S
In65 O66 2.294 . S
In65 O67 2.326 . S
In65 O71 2.266 . S
In65 O72 2.326 . S
In65 O73 2.266 . S
In65 O74 2.326 . S
In65 O76 2.294 . S
In65 O77 2.326 . S
O66 In65 2.294 . S
O66 C75 1.240 . S
O67 In65 2.326 . S
O67 C75 1.252 . S
C68 O71 1.252 . S
C68 O72 1.260 . S
C69 O76 1.240 . S
C69 O77 1.252 . S
C70 O73 1.252 . S
C70 O74 1.260 . S
O71 In65 2.266 . S
O71 C68 1.252 . S
O72 In65 2.326 . S
O72 C68 1.260 . S
O73 In65 2.266 . S
O73 C70 1.252 . S
O74 In65 2.326 . S
O74 C70 1.260 . S
C75 O66 1.240 . S
C75 O67 1.252 . S
O76 In65 2.294 . S
O76 C69 1.240 . S
O77 In65 2.326 . S
O77 C69 1.252 . S
In78 O79 2.294 . S
In78 O80 2.326 . S
In78 O84 2.266 . S
In78 O85 2.326 . S
In78 O86 2.266 . S
In78 O87 2.326 . S
In78 O89 2.294 . S
In78 O90 2.326 . S
O79 In78 2.294 . S
O79 C88 1.240 . S
O80 In78 2.326 . S
O80 C88 1.252 . S
C81 O84 1.252 . S
C81 O85 1.260 . S
C82 O89 1.240 . S
C82 O90 1.252 . S
C83 O86 1.252 . S
C83 O87 1.260 . S
O84 In78 2.266 . S
O84 C81 1.252 . S
O85 In78 2.326 . S
O85 C81 1.260 . S
O86 In78 2.266 . S
O86 C83 1.252 . S
O87 In78 2.326 . S
O87 C83 1.260 . S
C88 O79 1.240 . S
C88 O80 1.252 . S
O89 In78 2.294 . S
O89 C82 1.240 . S
O90 In78 2.326 . S
O90 C82 1.252 . S
In91 O92 2.294 . S
In91 O93 2.326 . S
In91 O97 2.266 . S
In91 O98 2.326 . S
In91 O99 2.266 . S
In91 O100 2.326 . S
In91 O102 2.294 . S
In91 O103 2.326 . S
O92 In91 2.294 . S
O92 C101 1.240 . S
O93 In91 2.326 . S
O93 C101 1.252 . S
C94 O97 1.252 . S
C94 O98 1.260 . S
C95 O102 1.240 . S
C95 O103 1.252 . S
C96 O99 1.252 . S
C96 O100 1.260 . S
O97 In91 2.266 . S
O97 C94 1.252 . S
O98 In91 2.326 . S
O98 C94 1.260 . S
O99 In91 2.266 . S
O99 C96 1.252 . S
O100 In91 2.326 . S
O100 C96 1.260 . S
C101 O92 1.240 . S
C101 O93 1.252 . S
O102 In91 2.294 . S
O102 C95 1.240 . S
O103 In91 2.326 . S
O103 C95 1.252 . S
In104 O105 2.294 . S
In104 O106 2.326 . S
In104 O110 2.266 . S
In104 O111 2.326 . S
In104 O112 2.266 . S
In104 O113 2.326 . S
In104 O115 2.294 . S
In104 O116 2.326 . S
O105 In104 2.294 . S
O105 C114 1.240 . S
O106 In104 2.326 . S
O106 C114 1.252 . S
C107 O110 1.252 . S
C107 O111 1.260 . S
C108 O115 1.240 . S
C108 O116 1.252 . S
C109 O112 1.252 . S
C109 O113 1.260 . S
O110 In104 2.266 . S
O110 C107 1.252 . S
O111 In104 2.326 . S
O111 C107 1.260 . S
O112 In104 2.266 . S
O112 C109 1.252 . S
O113 In104 2.326 . S
O113 C109 1.260 . S
C114 O105 1.240 . S
C114 O106 1.252 . S
O115 In104 2.294 . S
O115 C108 1.240 . S
O116 In104 2.326 . S
O116 C108 1.252 . S
In117 O118 2.294 . S
In117 O119 2.326 . S
In117 O123 2.266 . S
In117 O124 2.326 . S
In117 O125 2.266 . S
In117 O126 2.326 . S
In117 O128 2.294 . S
In117 O129 2.326 . S
O118 In117 2.294 . S
O118 C127 1.240 . S
O119 In117 2.326 . S
O119 C127 1.252 . S
C120 O123 1.252 . S
C120 O124 1.260 . S
C121 O128 1.240 . S
C121 O129 1.252 . S
C122 O125 1.252 . S
C122 O126 1.260 . S
O123 In117 2.266 . S
O123 C120 1.252 . S
O124 In117 2.326 . S
O124 C120 1.260 . S
O125 In117 2.266 . S
O125 C122 1.252 . S
O126 In117 2.326 . S
O126 C122 1.260 . S
C127 O118 1.240 . S
C127 O119 1.252 . S
O128 In117 2.294 . S
O128 C121 1.240 . S
O129 In117 2.326 . S
O129 C121 1.252 . S
In130 O131 2.294 . S
In130 O132 2.326 . S
In130 O136 2.266 . S
In130 O137 2.326 . S
In130 O138 2.266 . S
In130 O139 2.326 . S
In130 O141 2.294 . S
In130 O142 2.326 . S
O131 In130 2.294 . S
O131 C140 1.240 . S
O132 In130 2.326 . S
O132 C140 1.252 . S
C133 O136 1.252 . S
C133 O137 1.260 . S
C134 O141 1.240 . S
C134 O142 1.252 . S
C135 O138 1.252 . S
C135 O139 1.260 . S
O136 In130 2.266 . S
O136 C133 1.252 . S
O137 In130 2.326 . S
O137 C133 1.260 . S
O138 In130 2.266 . S
O138 C135 1.252 . S
O139 In130 2.326 . S
O139 C135 1.260 . S
C140 O131 1.240 . S
C140 O132 1.252 . S
O141 In130 2.294 . S
O141 C134 1.240 . S
O142 In130 2.326 . S
O142 C134 1.252 . S
In143 O144 2.294 . S
In143 O145 2.326 . S
In143 O149 2.266 . S
In143 O150 2.326 . S
In143 O151 2.266 . S
In143 O152 2.326 . S
In143 O154 2.294 . S
In143 O155 2.326 . S
O144 In143 2.294 . S
O144 C153 1.240 . S
O145 In143 2.326 . S
O145 C153 1.252 . S
C146 O149 1.252 . S
C146 O150 1.260 . S
C147 O154 1.240 . S
C147 O155 1.252 . S
C148 O151 1.252 . S
C148 O152 1.260 . S
O149 In143 2.266 . S
O149 C146 1.252 . S
O150 In143 2.326 . S
O150 C146 1.260 . S
O151 In143 2.266 . S
O151 C148 1.252 . S
O152 In143 2.326 . S
O152 C148 1.260 . S
C153 O144 1.240 . S
C153 O145 1.252 . S
O154 In143 2.294 . S
O154 C147 1.240 . S
O155 In143 2.326 . S
O155 C147 1.252 . S
H156 C164 0.950 . S
H157 C169 0.950 . S
H158 C166 0.950 . S
H159 C168 0.950 . S
H160 C170 0.950 . S
H161 C172 0.950 . S
H162 C174 0.950 . S
H163 C175 0.950 . S
C164 H156 0.950 . S
C164 C165 1.386 . S
C164 C166 1.391 . S
C165 C164 1.386 . S
C165 C169 1.393 . S
C166 H158 0.950 . S
C166 C164 1.391 . S
C166 C167 1.400 . S
C167 C166 1.400 . S
C167 C168 1.398 . S
C167 C173 1.491 . S
C168 H159 0.950 . S
C168 C167 1.398 . S
C168 C169 1.391 . S
C169 H157 0.950 . S
C169 C165 1.393 . S
C169 C168 1.391 . S
C170 H160 0.950 . S
C170 C171 1.386 . S
C170 C172 1.391 . S
C171 C170 1.386 . S
C171 C175 1.393 . S
C172 H161 0.950 . S
C172 C170 1.391 . S
C172 C173 1.400 . S
C173 C167 1.491 . S
C173 C172 1.400 . S
C173 C174 1.398 . S
C174 H162 0.950 . S
C174 C173 1.398 . S
C174 C175 1.391 . S
C175 H163 0.950 . S
C175 C171 1.393 . S
C175 C174 1.391 . S
H176 C184 0.950 . S
H177 C189 0.950 . S
H178 C186 0.950 . S
H179 C188 0.950 . S
H180 C190 0.950 . S
H181 C192 0.950 . S
H182 C194 0.950 . S
H183 C195 0.950 . S
C184 H176 0.950 . S
C184 C185 1.386 . S
C184 C186 1.391 . S
C185 C184 1.386 . S
C185 C189 1.393 . S
C186 H178 0.950 . S
C186 C184 1.391 . S
C186 C187 1.400 . S
C187 C186 1.400 . S
C187 C188 1.398 . S
C187 C193 1.491 . S
C188 H179 0.950 . S
C188 C187 1.398 . S
C188 C189 1.391 . S
C189 H177 0.950 . S
C189 C185 1.393 . S
C189 C188 1.391 . S
C190 H180 0.950 . S
C190 C191 1.386 . S
C190 C192 1.391 . S
C191 C190 1.386 . S
C191 C195 1.393 . S
C192 H181 0.950 . S
C192 C190 1.391 . S
C192 C193 1.400 . S
C193 C187 1.491 . S
C193 C192 1.400 . S
C193 C194 1.398 . S
C194 H182 0.950 . S
C194 C193 1.398 . S
C194 C195 1.391 . S
C195 H183 0.950 . S
C195 C191 1.393 . S
C195 C194 1.391 . S
H196 C204 0.950 . S
H197 C209 0.950 . S
H198 C206 0.950 . S
H199 C208 0.950 . S
H200 C210 0.950 . S
H201 C212 0.950 . S
H202 C214 0.950 . S
H203 C215 0.950 . S
C204 H196 0.950 . S
C204 C205 1.386 . S
C204 C206 1.391 . S
C205 C204 1.386 . S
C205 C209 1.393 . S
C206 H198 0.950 . S
C206 C204 1.391 . S
C206 C207 1.400 . S
C207 C206 1.400 . S
C207 C208 1.398 . S
C207 C213 1.491 . S
C208 H199 0.950 . S
C208 C207 1.398 . S
C208 C209 1.391 . S
C209 H197 0.950 . S
C209 C205 1.393 . S
C209 C208 1.391 . S
C210 H200 0.950 . S
C210 C211 1.386 . S
C210 C212 1.391 . S
C211 C210 1.386 . S
C211 C215 1.393 . S
C212 H201 0.950 . S
C212 C210 1.391 . S
C212 C213 1.400 . S
C213 C207 1.491 . S
C213 C212 1.400 . S
C213 C214 1.398 . S
C214 H202 0.950 . S
C214 C213 1.398 . S
C214 C215 1.391 . S
C215 H203 0.950 . S
C215 C211 1.393 . S
C215 C214 1.391 . S
H216 C224 0.950 . S
H217 C229 0.950 . S
H218 C226 0.950 . S
H219 C228 0.950 . S
H220 C230 0.950 . S
H221 C232 0.950 . S
H222 C234 0.950 . S
H223 C235 0.950 . S
C224 H216 0.950 . S
C224 C225 1.386 . S
C224 C226 1.391 . S
C225 C224 1.386 . S
C225 C229 1.393 . S
C226 H218 0.950 . S
C226 C224 1.391 . S
C226 C227 1.400 . S
C227 C226 1.400 . S
C227 C228 1.398 . S
C227 C233 1.491 . S
C228 H219 0.950 . S
C228 C227 1.398 . S
C228 C229 1.391 . S
C229 H217 0.950 . S
C229 C225 1.393 . S
C229 C228 1.391 . S
C230 H220 0.950 . S
C230 C231 1.386 . S
C230 C232 1.391 . S
C231 C230 1.386 . S
C231 C235 1.393 . S
C232 H221 0.950 . S
C232 C230 1.391 . S
C232 C233 1.400 . S
C233 C227 1.491 . S
C233 C232 1.400 . S
C233 C234 1.398 . S
C234 H222 0.950 . S
C234 C233 1.398 . S
C234 C235 1.391 . S
C235 H223 0.950 . S
C235 C231 1.393 . S
C235 C234 1.391 . S
H236 C244 0.950 . S
H237 C249 0.950 . S
H238 C246 0.950 . S
H239 C248 0.950 . S
H240 C250 0.950 . S
H241 C252 0.950 . S
H242 C254 0.950 . S
H243 C255 0.950 . S
C244 H236 0.950 . S
C244 C245 1.386 . S
C244 C246 1.391 . S
C245 C244 1.386 . S
C245 C249 1.393 . S
C246 H238 0.950 . S
C246 C244 1.391 . S
C246 C247 1.400 . S
C247 C246 1.400 . S
C247 C248 1.398 . S
C247 C253 1.491 . S
C248 H239 0.950 . S
C248 C247 1.398 . S
C248 C249 1.391 . S
C249 H237 0.950 . S
C249 C245 1.393 . S
C249 C248 1.391 . S
C250 H240 0.950 . S
C250 C251 1.386 . S
C250 C252 1.391 . S
C251 C250 1.386 . S
C251 C255 1.393 . S
C252 H241 0.950 . S
C252 C250 1.391 . S
C252 C253 1.400 . S
C253 C247 1.491 . S
C253 C252 1.400 . S
C253 C254 1.398 . S
C254 H242 0.950 . S
C254 C253 1.398 . S
C254 C255 1.391 . S
C255 H243 0.950 . S
C255 C251 1.393 . S
C255 C254 1.391 . S
H256 C264 0.950 . S
H257 C269 0.950 . S
H258 C266 0.950 . S
H259 C268 0.950 . S
H260 C270 0.950 . S
H261 C272 0.950 . S
H262 C274 0.950 . S
H263 C275 0.950 . S
C264 H256 0.950 . S
C264 C265 1.386 . S
C264 C266 1.391 . S
C265 C264 1.386 . S
C265 C269 1.393 . S
C266 H258 0.950 . S
C266 C264 1.391 . S
C266 C267 1.400 . S
C267 C266 1.400 . S
C267 C268 1.398 . S
C267 C273 1.491 . S
C268 H259 0.950 . S
C268 C267 1.398 . S
C268 C269 1.391 . S
C269 H257 0.950 . S
C269 C265 1.393 . S
C269 C268 1.391 . S
C270 H260 0.950 . S
C270 C271 1.386 . S
C270 C272 1.391 . S
C271 C270 1.386 . S
C271 C275 1.393 . S
C272 H261 0.950 . S
C272 C270 1.391 . S
C272 C273 1.400 . S
C273 C267 1.491 . S
C273 C272 1.400 . S
C273 C274 1.398 . S
C274 H262 0.950 . S
C274 C273 1.398 . S
C274 C275 1.391 . S
C275 H263 0.950 . S
C275 C271 1.393 . S
C275 C274 1.391 . S
H276 C284 0.950 . S
H277 C289 0.950 . S
H278 C286 0.950 . S
H279 C288 0.950 . S
H280 C290 0.950 . S
H281 C292 0.950 . S
H282 C294 0.950 . S
H283 C295 0.950 . S
C284 H276 0.950 . S
C284 C285 1.386 . S
C284 C286 1.391 . S
C285 C284 1.386 . S
C285 C289 1.393 . S
C286 H278 0.950 . S
C286 C284 1.391 . S
C286 C287 1.400 . S
C287 C286 1.400 . S
C287 C288 1.398 . S
C287 C293 1.491 . S
C288 H279 0.950 . S
C288 C287 1.398 . S
C288 C289 1.391 . S
C289 H277 0.950 . S
C289 C285 1.393 . S
C289 C288 1.391 . S
C290 H280 0.950 . S
C290 C291 1.386 . S
C290 C292 1.391 . S
C291 C290 1.386 . S
C291 C295 1.393 . S
C292 H281 0.950 . S
C292 C290 1.391 . S
C292 C293 1.400 . S
C293 C287 1.491 . S
C293 C292 1.400 . S
C293 C294 1.398 . S
C294 H282 0.950 . S
C294 C293 1.398 . S
C294 C295 1.391 . S
C295 H283 0.950 . S
C295 C291 1.393 . S
C295 C294 1.391 . S
H296 C304 0.950 . S
H297 C309 0.950 . S
H298 C306 0.950 . S
H299 C308 0.950 . S
H300 C310 0.950 . S
H301 C312 0.950 . S
H302 C314 0.950 . S
H303 C315 0.950 . S
C304 H296 0.950 . S
C304 C305 1.386 . S
C304 C306 1.391 . S
C305 C304 1.386 . S
C305 C309 1.393 . S
C306 H298 0.950 . S
C306 C304 1.391 . S
C306 C307 1.400 . S
C307 C306 1.400 . S
C307 C308 1.398 . S
C307 C313 1.491 1_655 S
C308 H299 0.950 . S
C308 C307 1.398 . S
C308 C309 1.391 . S
C309 H297 0.950 . S
C309 C305 1.393 . S
C309 C308 1.391 . S
C310 H300 0.950 . S
C310 C311 1.386 . S
C310 C312 1.391 . S
C311 C310 1.386 . S
C311 C315 1.393 . S
C312 H301 0.950 . S
C312 C310 1.391 . S
C312 C313 1.400 . S
C313 C307 1.491 1_455 S
C313 C312 1.400 . S
C313 C314 1.398 . S
C314 H302 0.950 . S
C314 C313 1.398 . S
C314 C315 1.391 . S
C315 H303 0.950 . S
C315 C311 1.393 . S
C315 C314 1.391 . S
H316 C324 0.950 . S
H317 C329 0.950 . S
H318 C326 0.951 . S
H319 C328 0.950 . S
H320 C330 0.950 . S
H321 C332 0.952 . S
H322 C334 0.950 . S
H323 C335 0.950 . S
C324 H316 0.950 . S
C324 C325 1.386 . S
C324 C326 1.391 . S
C325 C324 1.386 . S
C325 C329 1.393 . S
C326 H318 0.951 . S
C326 C324 1.391 . S
C326 C327 1.400 . S
C327 C326 1.400 . S
C327 C328 1.398 . S
C327 C333 1.491 1_545 S
C328 H319 0.950 . S
C328 C327 1.398 . S
C328 C329 1.391 . S
C329 H317 0.950 . S
C329 C325 1.393 . S
C329 C328 1.391 . S
C330 H320 0.950 . S
C330 C331 1.386 . S
C330 C332 1.391 . S
C331 C330 1.386 . S
C331 C335 1.393 . S
C332 H321 0.952 . S
C332 C330 1.391 . S
C332 C333 1.400 . S
C333 C327 1.491 1_565 S
C333 C332 1.400 . S
C333 C334 1.398 . S
C334 H322 0.950 . S
C334 C333 1.398 . S
C334 C335 1.391 . S
C335 H323 0.950 . S
C335 C331 1.393 . S
C335 C334 1.391 . S
H336 C344 0.950 . S
H337 C349 0.950 . S
H338 C346 0.950 . S
H339 C348 0.950 . S
H340 C350 0.950 . S
H341 C352 0.950 . S
H342 C354 0.950 . S
H343 C355 0.950 . S
C344 H336 0.950 . S
C344 C345 1.386 . S
C344 C346 1.391 . S
C345 C344 1.386 . S
C345 C349 1.393 . S
C346 H338 0.950 . S
C346 C344 1.391 . S
C346 C347 1.400 . S
C347 C346 1.400 . S
C347 C348 1.398 . S
C347 C353 1.491 . S
C348 H339 0.950 . S
C348 C347 1.398 . S
C348 C349 1.391 . S
C349 H337 0.950 . S
C349 C345 1.393 . S
C349 C348 1.391 . S
C350 H340 0.950 . S
C350 C351 1.386 . S
C350 C352 1.391 . S
C351 C350 1.386 . S
C351 C355 1.393 . S
C352 H341 0.950 . S
C352 C350 1.391 . S
C352 C353 1.400 . S
C353 C347 1.491 . S
C353 C352 1.400 . S
C353 C354 1.398 . S
C354 H342 0.950 . S
C354 C353 1.398 . S
C354 C355 1.391 . S
C355 H343 0.950 . S
C355 C351 1.393 . S
C355 C354 1.391 . S
H356 C364 0.950 . S
H357 C369 0.950 . S
H358 C366 0.950 . S
H359 C368 0.950 . S
H360 C370 0.950 . S
H361 C372 0.950 . S
H362 C374 0.950 . S
H363 C375 0.950 . S
C364 H356 0.950 . S
C364 C365 1.386 . S
C364 C366 1.391 . S
C365 C364 1.386 . S
C365 C369 1.393 . S
C366 H358 0.950 . S
C366 C364 1.391 . S
C366 C367 1.400 . S
C367 C366 1.400 . S
C367 C368 1.398 . S
C367 C373 1.491 1_655 S
C368 H359 0.950 . S
C368 C367 1.398 . S
C368 C369 1.391 . S
C369 H357 0.950 . S
C369 C365 1.393 . S
C369 C368 1.391 . S
C370 H360 0.950 . S
C370 C371 1.386 . S
C370 C372 1.391 . S
C371 C370 1.386 . S
C371 C375 1.393 . S
C372 H361 0.950 . S
C372 C370 1.391 . S
C372 C373 1.400 . S
C373 C367 1.491 1_455 S
C373 C372 1.400 . S
C373 C374 1.398 . S
C374 H362 0.950 . S
C374 C373 1.398 . S
C374 C375 1.391 . S
C375 H363 0.950 . S
C375 C371 1.393 . S
C375 C374 1.391 . S
H376 C384 0.950 . S
H377 C389 0.950 . S
H378 C386 0.950 1_556 S
H379 C388 0.950 . S
H380 C390 0.950 . S
H381 C392 0.950 1_554 S
H382 C394 0.950 . S
H383 C395 0.950 . S
C384 H376 0.950 . S
C384 C385 1.386 . S
C384 C386 1.391 . S
C385 C384 1.386 . S
C385 C389 1.393 . S
C386 H378 0.950 1_554 S
C386 C384 1.391 . S
C386 C387 1.400 . S
C387 C386 1.400 . S
C387 C388 1.398 . S
C387 C393 1.491 1_564 S
C388 H379 0.950 . S
C388 C387 1.398 . S
C388 C389 1.391 . S
C389 H377 0.950 . S
C389 C385 1.393 . S
C389 C388 1.391 . S
C390 H380 0.950 . S
C390 C391 1.386 . S
C390 C392 1.391 . S
C391 C390 1.386 . S
C391 C395 1.393 . S
C392 H381 0.950 1_556 S
C392 C390 1.391 . S
C392 C393 1.400 . S
C393 C387 1.491 1_546 S
C393 C392 1.400 . S
C393 C394 1.398 . S
C394 H382 0.950 . S
C394 C393 1.398 . S
C394 C395 1.391 . S
C395 H383 0.950 . S
C395 C391 1.393 . S
C395 C394 1.391 . S
H396 C404 0.950 . S
H397 C409 0.950 . S
H398 C406 0.950 . S
H399 C408 0.950 . S
H400 C410 0.950 . S
H401 C412 0.950 . S
H402 C414 0.950 . S
H403 C415 0.950 . S
C404 H396 0.950 . S
C404 C405 1.386 . S
C404 C406 1.391 . S
C405 C404 1.386 . S
C405 C409 1.393 . S
C406 H398 0.950 . S
C406 C404 1.391 . S
C406 C407 1.400 . S
C407 C406 1.400 . S
C407 C408 1.398 . S
C407 C413 1.491 . S
C408 H399 0.950 . S
C408 C407 1.398 . S
C408 C409 1.391 . S
C409 H397 0.950 . S
C409 C405 1.393 . S
C409 C408 1.391 . S
C410 H400 0.950 . S
C410 C411 1.386 . S
C410 C412 1.391 . S
C411 C410 1.386 . S
C411 C415 1.393 . S
C412 H401 0.950 . S
C412 C410 1.391 . S
C412 C413 1.400 1_556 S
C413 C407 1.491 . S
C413 C412 1.400 1_554 S
C413 C414 1.398 . S
C414 H402 0.950 . S
C414 C413 1.398 . S
C414 C415 1.391 1_554 S
C415 H403 0.950 . S
C415 C411 1.393 . S
C415 C414 1.391 1_556 S
H416 C424 0.950 . S
H417 C429 0.950 . S
H418 C426 0.950 . S
H419 C428 0.950 . S
H420 C430 0.950 . S
H421 C432 0.950 . S
H422 C434 0.950 . S
H423 C435 0.950 . S
C424 H416 0.950 . S
C424 C425 1.386 . S
C424 C426 1.391 . S
C425 C424 1.386 . S
C425 C429 1.393 . S
C426 H418 0.950 . S
C426 C424 1.391 . S
C426 C427 1.400 . S
C427 C426 1.400 . S
C427 C428 1.398 . S
C427 C433 1.491 . S
C428 H419 0.950 . S
C428 C427 1.398 . S
C428 C429 1.391 . S
C429 H417 0.950 . S
C429 C425 1.393 . S
C429 C428 1.391 . S
C430 H420 0.950 . S
C430 C431 1.386 . S
C430 C432 1.391 . S
C431 C430 1.386 . S
C431 C435 1.393 . S
C432 H421 0.950 . S
C432 C430 1.391 . S
C432 C433 1.400 1_455 S
C433 C427 1.491 . S
C433 C432 1.400 1_655 S
C433 C434 1.398 . S
C434 H422 0.950 . S
C434 C433 1.398 . S
C434 C435 1.391 1_655 S
C435 H423 0.950 . S
C435 C431 1.393 . S
C435 C434 1.391 1_455 S
H436 C444 0.950 . S
H437 C449 0.950 . S
H438 C446 0.950 . S
H439 C448 0.950 . S
H440 C450 0.950 . S
H441 C452 0.950 . S
H442 C454 0.950 . S
H443 C455 0.950 . S
C444 H436 0.950 . S
C444 C445 1.386 . S
C444 C446 1.391 . S
C445 C444 1.386 . S
C445 C449 1.393 . S
C446 H438 0.950 . S
C446 C444 1.391 . S
C446 C447 1.400 1_545 S
C447 C446 1.400 1_565 S
C447 C448 1.398 . S
C447 C453 1.491 . S
C448 H439 0.950 . S
C448 C447 1.398 . S
C448 C449 1.391 1_565 S
C449 H437 0.950 . S
C449 C445 1.393 . S
C449 C448 1.391 1_545 S
C450 H440 0.950 . S
C450 C451 1.386 . S
C450 C452 1.391 . S
C451 C450 1.386 . S
C451 C455 1.393 . S
C452 H441 0.950 . S
C452 C450 1.391 . S
C452 C453 1.400 . S
C453 C447 1.491 . S
C453 C452 1.400 . S
C453 C454 1.398 . S
C454 H442 0.950 . S
C454 C453 1.398 . S
C454 C455 1.391 . S
C455 H443 0.950 . S
C455 C451 1.393 . S
C455 C454 1.391 . S
H456 C464 0.950 . S
H457 C469 0.950 . S
H458 C466 0.950 . S
H459 C468 0.950 . S
H460 C470 0.950 . S
H461 C472 0.950 . S
H462 C474 0.950 . S
H463 C475 0.950 . S
C464 H456 0.950 . S
C464 C465 1.386 . S
C464 C466 1.391 . S
C465 C464 1.386 . S
C465 C469 1.393 . S
C466 H458 0.950 . S
C466 C464 1.391 . S
C466 C467 1.400 . S
C467 C466 1.400 . S
C467 C468 1.398 . S
C467 C473 1.491 . S
C468 H459 0.950 . S
C468 C467 1.398 . S
C468 C469 1.391 . S
C469 H457 0.950 . S
C469 C465 1.393 . S
C469 C468 1.391 . S
C470 H460 0.950 . S
C470 C471 1.386 . S
C470 C472 1.391 . S
C471 C470 1.386 . S
C471 C475 1.393 . S
C472 H461 0.950 . S
C472 C470 1.391 . S
C472 C473 1.400 . S
C473 C467 1.491 . S
C473 C472 1.400 . S
C473 C474 1.398 . S
C474 H462 0.950 . S
C474 C473 1.398 . S
C474 C475 1.391 . S
C475 H463 0.950 . S
C475 C471 1.393 . S
C475 C474 1.391 . S
H476 C484 0.950 . S
H477 C489 0.950 . S
H478 C486 0.950 . S
H479 C488 0.950 . S
H480 C490 0.950 . S
H481 C492 0.950 . S
H482 C494 0.950 . S
H483 C495 0.950 . S
C484 H476 0.950 . S
C484 C485 1.386 . S
C484 C486 1.391 . S
C485 C484 1.386 . S
C485 C489 1.393 . S
C486 H478 0.950 . S
C486 C484 1.391 . S
C486 C487 1.400 . S
C487 C486 1.400 . S
C487 C488 1.398 . S
C487 C493 1.491 . S
C488 H479 0.950 . S
C488 C487 1.398 . S
C488 C489 1.391 . S
C489 H477 0.950 . S
C489 C485 1.393 . S
C489 C488 1.391 . S
C490 H480 0.950 . S
C490 C491 1.386 . S
C490 C492 1.391 . S
C491 C490 1.386 . S
C491 C495 1.393 . S
C492 H481 0.950 . S
C492 C490 1.391 . S
C492 C493 1.400 1_655 S
C493 C487 1.491 . S
C493 C492 1.400 1_455 S
C493 C494 1.398 . S
C494 H482 0.950 . S
C494 C493 1.398 . S
C494 C495 1.391 1_455 S
C495 H483 0.950 . S
C495 C491 1.393 . S
C495 C494 1.391 1_655 S
H496 C504 0.950 . S
H497 C509 0.950 . S
H498 C506 0.950 . S
H499 C508 0.950 . S
H500 C510 0.950 . S
H501 C512 0.950 . S
H502 C514 0.950 . S
H503 C515 0.950 . S
C504 H496 0.950 . S
C504 C505 1.386 . S
C504 C506 1.391 . S
C505 C504 1.386 . S
C505 C509 1.393 . S
C506 H498 0.950 . S
C506 C504 1.391 . S
C506 C507 1.400 . S
C507 C506 1.400 . S
C507 C508 1.398 . S
C507 C513 1.491 . S
C508 H499 0.950 . S
C508 C507 1.398 . S
C508 C509 1.391 . S
C509 H497 0.950 . S
C509 C505 1.393 . S
C509 C508 1.391 . S
C510 H500 0.950 . S
C510 C511 1.386 . S
C510 C512 1.391 1_565 S
C511 C510 1.386 . S
C511 C515 1.393 . S
C512 H501 0.950 . S
C512 C510 1.391 1_545 S
C512 C513 1.400 . S
C513 C507 1.491 . S
C513 C512 1.400 . S
C513 C514 1.398 1_545 S
C514 H502 0.950 . S
C514 C513 1.398 1_565 S
C514 C515 1.391 . S
C515 H503 0.950 . S
C515 C511 1.393 . S
C515 C514 1.391 . S
H516 C524 0.950 . S
H517 C529 0.950 . S
H518 C526 0.950 . S
H519 C528 0.950 . S
H520 C530 0.950 . S
H521 C532 0.950 . S
H522 C534 0.950 . S
H523 C535 0.950 . S
C524 H516 0.950 . S
C524 C525 1.386 . S
C524 C526 1.391 . S
C525 C524 1.386 . S
C525 C529 1.393 . S
C526 H518 0.950 . S
C526 C524 1.391 . S
C526 C527 1.400 . S
C527 C526 1.400 . S
C527 C528 1.398 . S
C527 C533 1.491 . S
C528 H519 0.950 . S
C528 C527 1.398 . S
C528 C529 1.391 . S
C529 H517 0.950 . S
C529 C525 1.393 . S
C529 C528 1.391 . S
C530 H520 0.950 . S
C530 C531 1.386 . S
C530 C532 1.391 . S
C531 C530 1.386 . S
C531 C535 1.393 . S
C532 H521 0.950 . S
C532 C530 1.391 . S
C532 C533 1.400 . S
C533 C527 1.491 . S
C533 C532 1.400 . S
C533 C534 1.398 . S
C534 H522 0.950 . S
C534 C533 1.398 . S
C534 C535 1.391 . S
C535 H523 0.950 . S
C535 C531 1.393 . S
C535 C534 1.391 . S
H536 C544 0.950 . S
H537 C549 0.950 . S
H538 C546 0.950 . S
H539 C548 0.950 . S
H540 C550 0.950 . S
H541 C552 0.949 . S
H542 C554 0.950 1_656 S
H543 C555 0.950 . S
C544 H536 0.950 . S
C544 C545 1.386 . S
C544 C546 1.391 . S
C545 C544 1.386 . S
C545 C549 1.393 . S
C546 H538 0.950 . S
C546 C544 1.391 . S
C546 C547 1.400 . S
C547 C546 1.400 . S
C547 C548 1.398 . S
C547 C553 1.491 . S
C548 H539 0.950 . S
C548 C547 1.398 . S
C548 C549 1.391 . S
C549 H537 0.950 . S
C549 C545 1.393 . S
C549 C548 1.391 . S
C550 H540 0.950 . S
C550 C551 1.386 . S
C550 C552 1.391 . S
C551 C550 1.386 . S
C551 C555 1.393 . S
C552 H541 0.949 . S
C552 C550 1.391 . S
C552 C553 1.400 1_454 S
C553 C547 1.491 . S
C553 C552 1.400 1_656 S
C553 C554 1.398 1_656 S
C554 H542 0.950 1_454 S
C554 C553 1.398 1_454 S
C554 C555 1.391 . S
C555 H543 0.950 . S
C555 C551 1.393 . S
C555 C554 1.391 . S
H556 C564 0.950 . S
H557 C569 0.950 . S
H558 C566 0.950 . S
H559 C568 0.950 . S
H560 C570 0.950 . S
H561 C572 0.950 . S
H562 C574 0.950 . S
H563 C575 0.950 . S
C564 H556 0.950 . S
C564 C565 1.386 . S
C564 C566 1.391 . S
C565 C564 1.386 . S
C565 C569 1.393 . S
C566 H558 0.950 . S
C566 C564 1.391 . S
C566 C567 1.400 . S
C567 C566 1.400 . S
C567 C568 1.398 . S
C567 C573 1.491 . S
C568 H559 0.950 . S
C568 C567 1.398 . S
C568 C569 1.391 . S
C569 H557 0.950 . S
C569 C565 1.393 . S
C569 C568 1.391 . S
C570 H560 0.950 . S
C570 C571 1.386 . S
C570 C572 1.391 1_545 S
C571 C570 1.386 . S
C571 C575 1.393 . S
C572 H561 0.950 . S
C572 C570 1.391 1_565 S
C572 C573 1.400 . S
C573 C567 1.491 . S
C573 C572 1.400 . S
C573 C574 1.398 1_565 S
C574 H562 0.950 . S
C574 C573 1.398 1_545 S
C574 C575 1.391 . S
C575 H563 0.950 . S
C575 C571 1.393 . S
C575 C574 1.391 . S
H576 C584 0.950 . S
H577 C589 0.950 . S
H578 C586 0.950 . S
H579 C588 0.950 . S
H580 C590 0.950 . S
H581 C592 0.950 . S
H582 C594 0.950 . S
H583 C595 0.950 . S
C584 H576 0.950 . S
C584 C585 1.386 . S
C584 C586 1.391 . S
C585 C584 1.386 . S
C585 C589 1.393 . S
C586 H578 0.950 . S
C586 C584 1.391 . S
C586 C587 1.400 . S
C587 C586 1.400 . S
C587 C588 1.398 . S
C587 C593 1.491 . S
C588 H579 0.950 . S
C588 C587 1.398 . S
C588 C589 1.391 . S
C589 H577 0.950 . S
C589 C585 1.393 . S
C589 C588 1.391 . S
C590 H580 0.950 . S
C590 C591 1.386 . S
C590 C592 1.391 . S
C591 C590 1.386 . S
C591 C595 1.393 . S
C592 H581 0.950 . S
C592 C590 1.391 . S
C592 C593 1.400 . S
C593 C587 1.491 . S
C593 C592 1.400 . S
C593 C594 1.398 . S
C594 H582 0.950 . S
C594 C593 1.398 . S
C594 C595 1.391 . S
C595 H583 0.950 . S
C595 C591 1.393 . S
C595 C594 1.391 . S
H596 C604 0.950 . S
H597 C609 0.950 . S
H598 C606 0.950 . S
H599 C608 0.950 . S
H600 C610 0.950 . S
H601 C612 0.950 . S
H602 C614 0.950 . S
H603 C615 0.950 . S
C604 H596 0.950 . S
C604 C605 1.386 . S
C604 C606 1.391 . S
C605 C604 1.386 . S
C605 C609 1.393 . S
C606 H598 0.950 . S
C606 C604 1.391 . S
C606 C607 1.400 . S
C607 C606 1.400 . S
C607 C608 1.398 . S
C607 C613 1.491 . S
C608 H599 0.950 . S
C608 C607 1.398 . S
C608 C609 1.391 . S
C609 H597 0.950 . S
C609 C605 1.393 . S
C609 C608 1.391 . S
C610 H600 0.950 . S
C610 C611 1.386 . S
C610 C612 1.391 1_655 S
C611 C610 1.386 . S
C611 C615 1.393 . S
C612 H601 0.950 . S
C612 C610 1.391 1_455 S
C612 C613 1.400 . S
C613 C607 1.491 . S
C613 C612 1.400 . S
C613 C614 1.398 1_455 S
C614 H602 0.950 . S
C614 C613 1.398 1_655 S
C614 C615 1.391 . S
C615 H603 0.950 . S
C615 C611 1.393 . S
C615 C614 1.391 . S
H616 C624 0.950 . S
H617 C629 0.950 . S
H618 C626 0.950 1_545 S
H619 C628 0.950 . S
H620 C630 0.950 . S
H621 C632 0.950 . S
H622 C634 0.950 . S
H623 C635 0.950 . S
C624 H616 0.950 . S
C624 C625 1.386 . S
C624 C626 1.391 . S
C625 C624 1.386 . S
C625 C629 1.393 . S
C626 H618 0.950 1_565 S
C626 C624 1.391 . S
C626 C627 1.400 1_565 S
C627 C626 1.400 1_545 S
C627 C628 1.398 1_545 S
C627 C633 1.491 . S
C628 H619 0.950 . S
C628 C627 1.398 1_565 S
C628 C629 1.391 . S
C629 H617 0.950 . S
C629 C625 1.393 . S
C629 C628 1.391 . S
C630 H620 0.950 . S
C630 C631 1.386 . S
C630 C632 1.391 . S
C631 C630 1.386 . S
C631 C635 1.393 . S
C632 H621 0.950 . S
C632 C630 1.391 . S
C632 C633 1.400 . S
C633 C627 1.491 . S
C633 C632 1.400 . S
C633 C634 1.398 . S
C634 H622 0.950 . S
C634 C633 1.398 . S
C634 C635 1.391 . S
C635 H623 0.950 . S
C635 C631 1.393 . S
C635 C634 1.391 . S
C165 C108 1.237 . S
C171 C4 1.239 . S
C185 C17 1.233 . S
C191 C127 1.237 . S
C205 C30 1.238 . S
C211 C140 1.240 . S
C225 C49 1.236 . S
C231 C153 1.233 . S
C245 C88 1.239 . S
C251 C56 1.235 . S
C265 C69 1.233 . S
C271 C95 1.233 . S
C285 C120 1.002 . S
C291 C5 0.990 . S
C305 C18 0.993 . S
C311 C133 1.003 . S
C325 C146 1.002 . S
C331 C31 0.990 . S
C345 C42 1.000 . S
C351 C81 0.996 . S
C365 C96 0.995 . S
C371 C57 0.995 . S
C385 C109 0.993 . S
C391 C70 1.002 . S
C405 C3 1.591 . S
C411 C75 1.587 . S
C425 C16 1.577 . S
C431 C10 1.590 . S
C445 C23 1.593 . S
C451 C29 1.588 . S
C465 C44 1.588 . S
C471 C36 1.593 . S
C485 C55 1.579 . S
C491 C43 1.588 . S
C505 C68 1.582 . S
C511 C62 1.596 . S
C525 C83 1.577 . S
C531 C101 1.593 . S
C545 C94 1.578 . S
C551 C114 1.595 . S
C565 C107 1.588 . S
C571 C121 1.593 . S
C585 C122 1.586 . S
C591 C134 1.595 . S
C605 C135 1.590 . S
C611 C147 1.591 . S
C625 C82 1.593 . S
C631 C148 1.577 . S
