# Generated by pormake.
# Topology hbo, (4)-cn, num edge types: 1
# Building blocks:
#     Node 0, Type 0, BuildingBlock: CEKHIL_clean_sbu_0, # of connection points: 4
#     Node 1, Type 0, BuildingBlock: CEKHIL_clean_sbu_0, # of connection points: 4
#     Node 2, Type 0, BuildingBlock: CEKHIL_clean_sbu_0, # of connection points: 4
#     Node 3, Type 0, BuildingBlock: CEKHIL_clean_sbu_0, # of connection points: 4
#     Node 4, Type 0, BuildingBlock: CEKHIL_clean_sbu_0, # of connection points: 4
#     Node 5, Type 0, BuildingBlock: CEKHIL_clean_sbu_0, # of connection points: 4
#     Node 6, Type 0, BuildingBlock: CEKHIL_clean_sbu_0, # of connection points: 4
#     Node 7, Type 0, BuildingBlock: CEKHIL_clean_sbu_0, # of connection points: 4
#     Node 8, Type 0, BuildingBlock: CEKHIL_clean_sbu_0, # of connection points: 4
#     Node 9, Type 0, BuildingBlock: CEKHIL_clean_sbu_0, # of connection points: 4
#     Node 10, Type 0, BuildingBlock: CEKHIL_clean_sbu_0, # of connection points: 4
#     Node 11, Type 0, BuildingBlock: CEKHIL_clean_sbu_0, # of connection points: 4
#     Node 12, Type 0, BuildingBlock: CEKHIL_clean_sbu_0, # of connection points: 4
#     Node 13, Type 0, BuildingBlock: CEKHIL_clean_sbu_0, # of connection points: 4
#     Node 14, Type 0, BuildingBlock: CEKHIL_clean_sbu_0, # of connection points: 4
#     Node 15, Type 0, BuildingBlock: CEKHIL_clean_sbu_0, # of connection points: 4
#     Node 16, Type 0, BuildingBlock: CEKHIL_clean_sbu_0, # of connection points: 4
#     Node 17, Type 0, BuildingBlock: CEKHIL_clean_sbu_0, # of connection points: 4
#     Node 18, Type 0, BuildingBlock: CEKHIL_clean_sbu_0, # of connection points: 4
#     Node 19, Type 0, BuildingBlock: CEKHIL_clean_sbu_0, # of connection points: 4
#     Node 20, Type 0, BuildingBlock: CEKHIL_clean_sbu_0, # of connection points: 4
#     Node 21, Type 0, BuildingBlock: CEKHIL_clean_sbu_0, # of connection points: 4
#     Node 22, Type 0, BuildingBlock: CEKHIL_clean_sbu_0, # of connection points: 4
#     Node 23, Type 0, BuildingBlock: CEKHIL_clean_sbu_0, # of connection points: 4
#     Edge 24, Type (0, 0), BuildingBlock: CIFDUS_clean_linker_0, # of connection points: 2
#     Edge 25, Type (0, 0), BuildingBlock: CIFDUS_clean_linker_0, # of connection points: 2
#     Edge 26, Type (0, 0), BuildingBlock: CIFDUS_clean_linker_0, # of connection points: 2
#     Edge 27, Type (0, 0), BuildingBlock: CIFDUS_clean_linker_0, # of connection points: 2
#     Edge 28, Type (0, 0), BuildingBlock: CIFDUS_clean_linker_0, # of connection points: 2
#     Edge 29, Type (0, 0), BuildingBlock: CIFDUS_clean_linker_0, # of connection points: 2
#     Edge 30, Type (0, 0), BuildingBlock: CIFDUS_clean_linker_0, # of connection points: 2
#     Edge 31, Type (0, 0), BuildingBlock: CIFDUS_clean_linker_0, # of connection points: 2
#     Edge 32, Type (0, 0), BuildingBlock: CIFDUS_clean_linker_0, # of connection points: 2
#     Edge 33, Type (0, 0), BuildingBlock: CIFDUS_clean_linker_0, # of connection points: 2
#     Edge 34, Type (0, 0), BuildingBlock: CIFDUS_clean_linker_0, # of connection points: 2
#     Edge 35, Type (0, 0), BuildingBlock: CIFDUS_clean_linker_0, # of connection points: 2
#     Edge 36, Type (0, 0), BuildingBlock: CIFDUS_clean_linker_0, # of connection points: 2
#     Edge 37, Type (0, 0), BuildingBlock: CIFDUS_clean_linker_0, # of connection points: 2
#     Edge 38, Type (0, 0), BuildingBlock: CIFDUS_clean_linker_0, # of connection points: 2
#     Edge 39, Type (0, 0), BuildingBlock: CIFDUS_clean_linker_0, # of connection points: 2
#     Edge 40, Type (0, 0), BuildingBlock: CIFDUS_clean_linker_0, # of connection points: 2
#     Edge 41, Type (0, 0), BuildingBlock: CIFDUS_clean_linker_0, # of connection points: 2
#     Edge 42, Type (0, 0), BuildingBlock: CIFDUS_clean_linker_0, # of connection points: 2
#     Edge 43, Type (0, 0), BuildingBlock: CIFDUS_clean_linker_0, # of connection points: 2
#     Edge 44, Type (0, 0), BuildingBlock: CIFDUS_clean_linker_0, # of connection points: 2
#     Edge 45, Type (0, 0), BuildingBlock: CIFDUS_clean_linker_0, # of connection points: 2
#     Edge 46, Type (0, 0), BuildingBlock: CIFDUS_clean_linker_0, # of connection points: 2
#     Edge 47, Type (0, 0), BuildingBlock: CIFDUS_clean_linker_0, # of connection points: 2
#     Edge 48, Type (0, 0), BuildingBlock: CIFDUS_clean_linker_0, # of connection points: 2
#     Edge 49, Type (0, 0), BuildingBlock: CIFDUS_clean_linker_0, # of connection points: 2
#     Edge 50, Type (0, 0), BuildingBlock: CIFDUS_clean_linker_0, # of connection points: 2
#     Edge 51, Type (0, 0), BuildingBlock: CIFDUS_clean_linker_0, # of connection points: 2
#     Edge 52, Type (0, 0), BuildingBlock: CIFDUS_clean_linker_0, # of connection points: 2
#     Edge 53, Type (0, 0), BuildingBlock: CIFDUS_clean_linker_0, # of connection points: 2
#     Edge 54, Type (0, 0), BuildingBlock: CIFDUS_clean_linker_0, # of connection points: 2
#     Edge 55, Type (0, 0), BuildingBlock: CIFDUS_clean_linker_0, # of connection points: 2
#     Edge 56, Type (0, 0), BuildingBlock: CIFDUS_clean_linker_0, # of connection points: 2
#     Edge 57, Type (0, 0), BuildingBlock: CIFDUS_clean_linker_0, # of connection points: 2
#     Edge 58, Type (0, 0), BuildingBlock: CIFDUS_clean_linker_0, # of connection points: 2
#     Edge 59, Type (0, 0), BuildingBlock: CIFDUS_clean_linker_0, # of connection points: 2
#     Edge 60, Type (0, 0), BuildingBlock: CIFDUS_clean_linker_0, # of connection points: 2
#     Edge 61, Type (0, 0), BuildingBlock: CIFDUS_clean_linker_0, # of connection points: 2
#     Edge 62, Type (0, 0), BuildingBlock: CIFDUS_clean_linker_0, # of connection points: 2
#     Edge 63, Type (0, 0), BuildingBlock: CIFDUS_clean_linker_0, # of connection points: 2
#     Edge 64, Type (0, 0), BuildingBlock: CIFDUS_clean_linker_0, # of connection points: 2
#     Edge 65, Type (0, 0), BuildingBlock: CIFDUS_clean_linker_0, # of connection points: 2
#     Edge 66, Type (0, 0), BuildingBlock: CIFDUS_clean_linker_0, # of connection points: 2
#     Edge 67, Type (0, 0), BuildingBlock: CIFDUS_clean_linker_0, # of connection points: 2
#     Edge 68, Type (0, 0), BuildingBlock: CIFDUS_clean_linker_0, # of connection points: 2
#     Edge 69, Type (0, 0), BuildingBlock: CIFDUS_clean_linker_0, # of connection points: 2
#     Edge 70, Type (0, 0), BuildingBlock: CIFDUS_clean_linker_0, # of connection points: 2
#     Edge 71, Type (0, 0), BuildingBlock: CIFDUS_clean_linker_0, # of connection points: 2
# Relax obj value: 0.228
# Max RMSD: 0.245
# Mean RMSD: 0.240
data_MOF--net-hbo--node1-CEKHIL_clean_sbu_0--edge1-CIFDUS_clean_linker_0
_symmetry_space_group_name_H-M    P1
_symmetry_Int_Tables_number       1
_symmetry_cell_setting            triclinic
loop_
_symmetry_equiv_pos_as_xyz
'x, y, z'
_cell_length_a     45.998807
_cell_length_b     45.230493
_cell_length_c     45.129776
_cell_angle_alpha  89.957511
_cell_angle_beta   89.847319
_cell_angle_gamma 89.123458
loop_
_atom_site_label
_atom_site_type_symbol
_atom_site_fract_x
_atom_site_fract_y
_atom_site_fract_z
_atom_type_partial_charge
Co0 Co 0.1346 0.3464 0.24816 0.0
O1 O 0.09587 0.3574 0.2592 0.0
O2 O 0.1117 0.35459 0.21281 0.0
C3 C 0.13852 0.30642 0.27716 0.0
O4 O 0.17343 0.33435 0.22935 0.0
Co5 Co 0.18212 0.35027 0.29677 0.0
O6 O 0.20688 0.33158 0.26584 0.0
C7 C 0.15841 0.40472 0.27104 0.0
C8 C 0.09031 0.35973 0.23117 0.0
C9 C 0.19922 0.32818 0.23894 0.0
O10 O 0.14622 0.38899 0.25101 0.0
O11 O 0.17174 0.39343 0.29328 0.0
O12 O 0.12545 0.30494 0.25178 0.0
O13 O 0.14543 0.3327 0.28578 0.0
Co14 Co 0.11862 0.659 0.69903 0.0
O15 O 0.07927 0.65296 0.68556 0.0
O16 O 0.0933 0.65447 0.73249 0.0
C17 C 0.13136 0.69701 0.67011 0.0
O18 O 0.15558 0.66615 0.72218 0.0
Co19 Co 0.17242 0.64846 0.6587 0.0
O20 O 0.19476 0.66518 0.6923 0.0
C21 C 0.14077 0.59756 0.68101 0.0
C22 C 0.07243 0.65121 0.71353 0.0
C23 C 0.18287 0.66964 0.71748 0.0
O24 O 0.12623 0.61508 0.69815 0.0
O25 O 0.15862 0.60675 0.66141 0.0
O26 O 0.11495 0.70154 0.69325 0.0
O27 O 0.13542 0.66959 0.66283 0.0
Co28 Co 0.86811 0.64446 0.24337 0.0
O29 O 0.90574 0.62765 0.25247 0.0
O30 O 0.89052 0.64027 0.20757 0.0
C31 C 0.86706 0.67832 0.27966 0.0
O32 O 0.83238 0.66401 0.22503 0.0
Co33 Co 0.81569 0.64328 0.28733 0.0
O34 O 0.79695 0.6708 0.25893 0.0
C35 C 0.83272 0.58955 0.25392 0.0
C36 C 0.9114 0.63036 0.22436 0.0
C37 C 0.80752 0.67462 0.23313 0.0
O38 O 0.85157 0.60381 0.23865 0.0
O39 O 0.81794 0.60092 0.27521 0.0
O40 O 0.88131 0.68335 0.25531 0.0
O41 O 0.85648 0.65219 0.28234 0.0
Co42 Co 0.87969 0.33118 0.71311 0.0
O43 O 0.92007 0.3335 0.7018 0.0
O44 O 0.90315 0.32906 0.74779 0.0
C45 C 0.86369 0.29775 0.68077 0.0
O46 O 0.84133 0.32684 0.7341 0.0
Co47 Co 0.8295 0.35286 0.67298 0.0
O48 O 0.80397 0.33383 0.70294 0.0
C49 C 0.866 0.39659 0.7018 0.0
C50 C 0.92523 0.33152 0.73013 0.0
C51 C 0.81416 0.32596 0.72801 0.0
O52 O 0.87768 0.37536 0.71669 0.0
O53 O 0.84753 0.39229 0.68114 0.0
O54 O 0.87885 0.28953 0.70369 0.0
O55 O 0.86311 0.32599 0.67548 0.0
Co56 Co 0.22575 0.12594 0.37714 0.0
O57 O 0.20801 0.1225 0.41523 0.0
O58 O 0.25472 0.11339 0.4057 0.0
C59 C 0.20649 0.17027 0.36559 0.0
O60 O 0.25161 0.12845 0.34058 0.0
Co61 Co 0.18632 0.12724 0.32138 0.0
O62 O 0.2233 0.13502 0.30032 0.0
C63 C 0.19477 0.07167 0.35377 0.0
C64 C 0.23356 0.11481 0.42487 0.0
C65 C 0.24815 0.13312 0.31266 0.0
O66 O 0.21538 0.08372 0.36849 0.0
O67 O 0.17867 0.086 0.33549 0.0
O68 O 0.22945 0.16844 0.3822 0.0
O69 O 0.19431 0.14546 0.35935 0.0
Co70 Co 0.36357 0.7435 0.84916 0.0
O71 O 0.40258 0.75185 0.86089 0.0
O72 O 0.38474 0.70687 0.85567 0.0
C73 C 0.36172 0.77515 0.81099 0.0
O74 O 0.32519 0.72624 0.83533 0.0
Co75 Co 0.31496 0.79198 0.85188 0.0
O76 O 0.29265 0.7633 0.82835 0.0
C77 C 0.34003 0.76749 0.90674 0.0
C78 C 0.40691 0.72341 0.86142 0.0
C79 C 0.30065 0.73634 0.82562 0.0
O80 O 0.35099 0.74561 0.89201 0.0
O81 O 0.32713 0.78948 0.89433 0.0
O82 O 0.37401 0.74929 0.80779 0.0
O83 O 0.35365 0.78196 0.83759 0.0
Co84 Co 0.78161 0.86261 0.37373 0.0
O85 O 0.79705 0.86221 0.41296 0.0
O86 O 0.75011 0.86531 0.40239 0.0
C87 C 0.8088 0.82486 0.3566 0.0
O88 O 0.75796 0.86231 0.33557 0.0
Co89 Co 0.82248 0.87706 0.3207 0.0
O90 O 0.78823 0.86649 0.2965 0.0
C91 C 0.80306 0.92438 0.36086 0.0
C92 C 0.77042 0.86381 0.4224 0.0
C93 C 0.76296 0.86272 0.30745 0.0
O94 O 0.78455 0.90675 0.37245 0.0
O95 O 0.82223 0.91606 0.34189 0.0
O96 O 0.78529 0.81984 0.3717 0.0
O97 O 0.81651 0.85213 0.35498 0.0
Co98 Co 0.63187 0.24275 0.85319 0.0
O99 O 0.59379 0.23589 0.86868 0.0
O100 O 0.6104 0.27948 0.85427 0.0
C101 C 0.6331 0.20456 0.82163 0.0
O102 O 0.6686 0.25848 0.83438 0.0
Co103 Co 0.68281 0.19711 0.86039 0.0
O104 O 0.70353 0.22312 0.83251 0.0
C105 C 0.65908 0.22996 0.91176 0.0
C106 C 0.58901 0.26398 0.86442 0.0
C107 C 0.69363 0.24873 0.82591 0.0
O108 O 0.64661 0.24887 0.89453 0.0
O109 O 0.67216 0.20663 0.90229 0.0
O110 O 0.61974 0.22904 0.81436 0.0
O111 O 0.64273 0.20315 0.84841 0.0
Co112 Co 0.26898 0.88723 0.64395 0.0
O113 O 0.28454 0.92577 0.63703 0.0
O114 O 0.23783 0.91449 0.63414 0.0
C115 C 0.29315 0.87764 0.68616 0.0
O116 O 0.24467 0.85067 0.65058 0.0
Co117 Co 0.30953 0.83129 0.64455 0.0
O118 O 0.27341 0.81008 0.65465 0.0
C119 C 0.29465 0.86009 0.58804 0.0
C120 C 0.25784 0.93444 0.63274 0.0
C121 C 0.24848 0.82277 0.65479 0.0
O122 O 0.2752 0.87634 0.60101 0.0
O123 O 0.31259 0.84332 0.60202 0.0
O124 O 0.26962 0.89388 0.6867 0.0
O125 O 0.30269 0.87055 0.66018 0.0
Co126 Co 0.63599 0.80686 0.13734 0.0
O127 O 0.5997 0.82758 0.13263 0.0
O128 O 0.60464 0.77888 0.13677 0.0
C129 C 0.6554 0.83553 0.17257 0.0
O130 O 0.66959 0.77814 0.14422 0.0
Co131 Co 0.6934 0.83762 0.11977 0.0
O132 O 0.71137 0.8032 0.14051 0.0
C133 C 0.65562 0.81561 0.07302 0.0
C134 C 0.58755 0.80185 0.13372 0.0
C135 C 0.69731 0.78002 0.14718 0.0
O136 O 0.64013 0.8031 0.09305 0.0
O137 O 0.67661 0.83281 0.07907 0.0
O138 O 0.63629 0.8158 0.17951 0.0
O139 O 0.65876 0.8401 0.14444 0.0
Co140 Co 0.72331 0.1125 0.64275 0.0
O141 O 0.70988 0.0734 0.63416 0.0
O142 O 0.75611 0.08569 0.63948 0.0
C143 C 0.69136 0.12215 0.6793 0.0
O144 O 0.74575 0.14969 0.6524 0.0
Co145 Co 0.6834 0.16864 0.63634 0.0
O146 O 0.71727 0.19059 0.65125 0.0
C147 C 0.7086 0.1392 0.58338 0.0
C148 C 0.73706 0.06524 0.63499 0.0
C149 C 0.7418 0.17778 0.65523 0.0
O150 O 0.72475 0.1221 0.59935 0.0
O151 O 0.68917 0.15674 0.59411 0.0
O152 O 0.71487 0.1068 0.68469 0.0
O153 O 0.68693 0.129 0.65196 0.0
Co154 Co 0.36516 0.20058 0.14344 0.0
O155 O 0.40462 0.18854 0.13643 0.0
O156 O 0.38932 0.23521 0.13955 0.0
C157 C 0.35446 0.16935 0.18046 0.0
O158 O 0.32597 0.22088 0.15097 0.0
Co159 Co 0.3165 0.15562 0.12984 0.0
O160 O 0.29082 0.18695 0.14693 0.0
C161 C 0.34703 0.18335 0.08077 0.0
C162 C 0.41052 0.21646 0.13458 0.0
C163 C 0.29918 0.21307 0.15276 0.0
O164 O 0.35845 0.20102 0.09955 0.0
O165 O 0.33143 0.16145 0.08846 0.0
O166 O 0.36869 0.19338 0.18595 0.0
O167 O 0.35129 0.16318 0.15271 0.0
Co168 Co 0.85892 0.6062 0.77604 0.0
O169 O 0.86744 0.56467 0.77804 0.0
O170 O 0.8616 0.5902 0.73639 0.0
C171 C 0.82269 0.60794 0.80952 0.0
O172 O 0.84916 0.64897 0.7659 0.0
Co173 Co 0.87055 0.64527 0.8312 0.0
O174 O 0.85126 0.67667 0.8073 0.0
C175 C 0.91965 0.62688 0.79345 0.0
C176 C 0.86654 0.56489 0.74929 0.0
C177 C 0.84584 0.67369 0.77979 0.0
O178 O 0.9016 0.61518 0.77542 0.0
O179 O 0.91198 0.63799 0.81842 0.0
O180 O 0.81799 0.59908 0.78266 0.0
O181 O 0.8498 0.61129 0.81641 0.0
Co182 Co 0.87432 0.35511 0.25456 0.0
O183 O 0.91074 0.36613 0.27101 0.0
O184 O 0.90376 0.35616 0.22349 0.0
C185 C 0.86204 0.32171 0.28916 0.0
O186 O 0.8389 0.34236 0.23067 0.0
Co187 Co 0.81843 0.36893 0.29229 0.0
O188 O 0.79926 0.34711 0.2601 0.0
C189 C 0.84727 0.41669 0.25988 0.0
C190 C 0.92132 0.36445 0.24442 0.0
C191 C 0.81143 0.33955 0.23579 0.0
O192 O 0.86466 0.39805 0.24733 0.0
O193 O 0.82904 0.40972 0.28006 0.0
O194 O 0.87964 0.31415 0.26778 0.0
O195 O 0.85605 0.34957 0.29093 0.0
Co196 Co 0.14607 0.39266 0.77061 0.0
O197 O 0.13637 0.43314 0.77806 0.0
O198 O 0.14404 0.4139 0.7334 0.0
C199 C 0.18055 0.38739 0.80522 0.0
O200 O 0.15662 0.35138 0.75541 0.0
Co201 Co 0.13246 0.34758 0.82085 0.0
O202 O 0.15169 0.31931 0.79336 0.0
C203 C 0.08529 0.36893 0.78238 0.0
C204 C 0.13727 0.43684 0.7496 0.0
C205 C 0.15825 0.32511 0.76652 0.0
O206 O 0.10391 0.38331 0.76718 0.0
O207 O 0.09179 0.35481 0.80612 0.0
O208 O 0.1866 0.39939 0.77983 0.0
O209 O 0.15327 0.38291 0.81021 0.0
Co210 Co 0.14552 0.62261 0.21233 0.0
O211 O 0.14364 0.58366 0.19613 0.0
O212 O 0.14687 0.59381 0.24409 0.0
C213 C 0.17922 0.64022 0.18118 0.0
O214 O 0.1488 0.6607 0.23635 0.0
Co215 Co 0.12446 0.67479 0.17272 0.0
O216 O 0.13896 0.69914 0.20594 0.0
C217 C 0.08159 0.63549 0.19898 0.0
C218 C 0.14497 0.57409 0.22319 0.0
C219 C 0.14679 0.6887 0.231 0.0
O220 O 0.10189 0.62419 0.21507 0.0
O221 O 0.08642 0.65419 0.17832 0.0
O222 O 0.1869 0.62424 0.20384 0.0
O223 O 0.15156 0.64168 0.17608 0.0
Co224 Co 0.76841 0.83781 0.64757 0.0
O225 O 0.79355 0.84162 0.61429 0.0
O226 O 0.7455 0.84373 0.61172 0.0
C227 C 0.79036 0.79815 0.66761 0.0
O228 O 0.73651 0.833 0.67877 0.0
Co229 Co 0.79693 0.84968 0.70867 0.0
O230 O 0.75888 0.83567 0.72325 0.0
C231 C 0.78419 0.89946 0.66971 0.0
C232 C 0.77052 0.84469 0.5981 0.0
C233 C 0.73649 0.8312 0.70733 0.0
O234 O 0.76934 0.88182 0.65365 0.0
O235 O 0.79964 0.89057 0.69159 0.0
O236 O 0.77215 0.7951 0.64595 0.0
O237 O 0.79766 0.82507 0.67344 0.0
Co238 Co 0.61913 0.24295 0.14108 0.0
O239 O 0.58187 0.22829 0.13114 0.0
O240 O 0.59327 0.2757 0.12985 0.0
C241 C 0.62367 0.21717 0.18329 0.0
O242 O 0.65639 0.26498 0.1511 0.0
Co243 Co 0.67037 0.19646 0.14432 0.0
O244 O 0.69214 0.23093 0.15857 0.0
C245 C 0.64652 0.21515 0.08677 0.0
C246 C 0.57375 0.25539 0.12651 0.0
C247 C 0.68274 0.2576 0.15816 0.0
O248 O 0.63239 0.23671 0.09897 0.0
O249 O 0.66008 0.19506 0.10145 0.0
O250 O 0.60921 0.24204 0.18317 0.0
O251 O 0.63202 0.20761 0.15774 0.0
Co252 Co 0.23787 0.16195 0.63933 0.0
O253 O 0.22349 0.15643 0.60024 0.0
O254 O 0.27007 0.15279 0.61293 0.0
C255 C 0.2131 0.20339 0.65091 0.0
O256 O 0.25976 0.16725 0.67807 0.0
Co257 Co 0.19327 0.15437 0.69034 0.0
O258 O 0.22656 0.1668 0.71502 0.0
C259 C 0.21294 0.10244 0.65778 0.0
C260 C 0.25016 0.15057 0.59262 0.0
C261 C 0.2525 0.16991 0.70556 0.0
O262 O 0.23305 0.1185 0.6468 0.0
O263 O 0.19243 0.1131 0.67393 0.0
O264 O 0.23658 0.20475 0.6349 0.0
O265 O 0.20323 0.17705 0.6552 0.0
Co266 Co 0.36979 0.77119 0.13702 0.0
O267 O 0.40468 0.79295 0.13506 0.0
O268 O 0.40221 0.74506 0.12575 0.0
C269 C 0.35525 0.78923 0.1811 0.0
O270 O 0.33593 0.74258 0.13829 0.0
Co271 Co 0.31282 0.80977 0.13605 0.0
O272 O 0.29511 0.77075 0.14295 0.0
C273 C 0.34427 0.79838 0.08053 0.0
C274 C 0.41811 0.76858 0.1283 0.0
C275 C 0.30813 0.74567 0.14141 0.0
O276 O 0.3614 0.78027 0.09416 0.0
O277 O 0.32526 0.81461 0.09377 0.0
O278 O 0.37374 0.76733 0.17984 0.0
O279 O 0.34907 0.80148 0.15599 0.0
Co280 Co 0.73435 0.13385 0.3553 0.0
O281 O 0.72046 0.09612 0.36794 0.0
O282 O 0.76685 0.10907 0.36612 0.0
C283 C 0.70696 0.13773 0.31463 0.0
O284 O 0.75712 0.1698 0.34256 0.0
Co285 Co 0.69282 0.1888 0.3515 0.0
O286 O 0.72717 0.20894 0.33508 0.0
C287 C 0.71121 0.16539 0.40942 0.0
C288 C 0.74767 0.08899 0.37172 0.0
C289 C 0.75231 0.19673 0.33472 0.0
O290 O 0.73059 0.14893 0.39683 0.0
O291 O 0.69241 0.18086 0.39511 0.0
O292 O 0.73096 0.12218 0.31398 0.0
O293 O 0.69916 0.14787 0.3402 0.0
Co294 Co 0.35711 0.27621 0.87672 0.0
O295 O 0.36279 0.28479 0.91775 0.0
O296 O 0.35799 0.23976 0.89891 0.0
C297 C 0.32265 0.31042 0.86812 0.0
O298 O 0.35004 0.25928 0.83567 0.0
Co299 Co 0.3732 0.32317 0.82965 0.0
O300 O 0.35618 0.29475 0.80131 0.0
C301 C 0.41918 0.29204 0.8623 0.0
C302 C 0.36198 0.25643 0.92198 0.0
C303 C 0.3492 0.26859 0.80871 0.0
O304 O 0.40015 0.27364 0.87126 0.0
O305 O 0.41261 0.31533 0.84748 0.0
O306 O 0.31599 0.28529 0.88013 0.0
O307 O 0.35013 0.31529 0.86487 0.0
Co308 Co 0.23712 0.85685 0.35822 0.0
O309 O 0.24655 0.89674 0.36725 0.0
O310 O 0.20179 0.87895 0.36766 0.0
C311 C 0.26392 0.85297 0.31698 0.0
O312 O 0.22032 0.81634 0.3487 0.0
Co313 Co 0.28754 0.81053 0.3616 0.0
O314 O 0.25784 0.78367 0.34559 0.0
C315 C 0.26558 0.83881 0.41555 0.0
C316 C 0.219 0.90124 0.37144 0.0
C317 C 0.23091 0.79032 0.34308 0.0
O318 O 0.24272 0.84658 0.40111 0.0
O319 O 0.28769 0.82653 0.40311 0.0
O320 O 0.23823 0.86523 0.31609 0.0
O321 O 0.27379 0.84687 0.34314 0.0
Co322 Co 0.63978 0.71579 0.87255 0.0
O323 O 0.63541 0.70837 0.91417 0.0
O324 O 0.63789 0.75289 0.89371 0.0
C325 C 0.67573 0.68277 0.86425 0.0
O326 O 0.64523 0.73186 0.8307 0.0
Co327 Co 0.62484 0.66713 0.82738 0.0
O328 O 0.64155 0.69476 0.79787 0.0
C329 C 0.5777 0.69779 0.85906 0.0
C330 C 0.63529 0.73687 0.9175 0.0
C331 C 0.64689 0.72162 0.8041 0.0
O332 O 0.59644 0.71637 0.86826 0.0
O333 O 0.58478 0.67464 0.84424 0.0
O334 O 0.68133 0.70865 0.87509 0.0
O335 O 0.64844 0.67651 0.86178 0.0
H336 H 0.16333 0.54462 0.27276 0.0
H337 H 0.12451 0.53191 0.18681 0.0
H338 H 0.12454 0.47868 0.19452 0.0
H339 H 0.13681 0.4358 0.22454 0.0
H340 H 0.17732 0.44707 0.30994 0.0
H341 H 0.17548 0.50076 0.30349 0.0
C342 C 0.15473 0.53013 0.25589 0.0
C343 C 0.14402 0.54212 0.22925 0.0
C344 C 0.15528 0.49932 0.26022 0.0
C345 C 0.13308 0.52318 0.20743 0.0
C346 C 0.13306 0.49273 0.2118 0.0
C347 C 0.14522 0.44988 0.24187 0.0
C348 C 0.15723 0.43731 0.26766 0.0
C349 C 0.14435 0.48057 0.23794 0.0
C350 C 0.16803 0.45609 0.28978 0.0
C351 C 0.16695 0.48682 0.28615 0.0
H352 H 0.94065 0.62241 0.73728 0.0
H353 H 0.96733 0.63868 0.82742 0.0
H354 H 0.017 0.6472 0.81049 0.0
H355 H 0.05239 0.65152 0.77005 0.0
H356 H 0.02536 0.6371 0.67976 0.0
H357 H 0.97611 0.62647 0.69687 0.0
C358 C 0.95736 0.6275 0.75333 0.0
C359 C 0.95025 0.62978 0.78364 0.0
C360 C 0.98572 0.63296 0.74338 0.0
C361 C 0.97217 0.63678 0.80399 0.0
C362 C 0.00057 0.64171 0.79431 0.0
C363 C 0.03574 0.64602 0.75408 0.0
C364 C 0.04251 0.64515 0.72365 0.0
C365 C 0.00749 0.64016 0.76405 0.0
C366 C 0.02068 0.63805 0.70327 0.0
C367 C 0.99255 0.63189 0.71306 0.0
H368 H 0.80323 0.45616 0.26314 0.0
H369 H 0.89288 0.44689 0.23589 0.0
H370 H 0.89507 0.50028 0.22697 0.0
H371 H 0.87305 0.55002 0.23342 0.0
H372 H 0.78387 0.55815 0.26276 0.0
H373 H 0.77979 0.50457 0.26394 0.0
C374 C 0.82322 0.46578 0.25506 0.0
C375 C 0.84804 0.44789 0.25082 0.0
C376 C 0.82438 0.49623 0.2504 0.0
C377 C 0.87356 0.46041 0.23958 0.0
C378 C 0.87484 0.49088 0.23457 0.0
C379 C 0.85257 0.53999 0.23935 0.0
C380 C 0.82893 0.55785 0.24842 0.0
C381 C 0.8506 0.5091 0.24079 0.0
C382 C 0.80247 0.54473 0.25612 0.0
C383 C 0.80013 0.51415 0.25686 0.0
H384 H 0.04011 0.33741 0.80442 0.0
H385 H 0.06419 0.39448 0.7318 0.0
H386 H 0.01762 0.38615 0.70813 0.0
H387 H 0.97007 0.36226 0.70759 0.0
H388 H 0.94512 0.30712 0.78107 0.0
H389 H 0.9922 0.31469 0.80457 0.0
C390 C 0.03512 0.34825 0.78356 0.0
C391 C 0.05573 0.36644 0.76997 0.0
C392 C 0.00829 0.34336 0.76993 0.0
C393 C 0.0488 0.38031 0.74287 0.0
C394 C 0.0222 0.37547 0.72915 0.0
C395 C 0.9752 0.35163 0.72853 0.0
C396 C 0.95453 0.33394 0.74249 0.0
C397 C 0.00191 0.3568 0.74232 0.0
C398 C 0.96095 0.32075 0.76993 0.0
C399 C 0.98774 0.32517 0.78342 0.0
H400 H 0.15719 0.45989 0.6977 0.0
H401 H 0.10298 0.47937 0.77359 0.0
H402 H 0.09637 0.53021 0.75684 0.0
H403 H 0.10996 0.5701 0.72389 0.0
H404 H 0.16682 0.55241 0.64946 0.0
H405 H 0.1681 0.49989 0.66215 0.0
C406 C 0.1436 0.47523 0.71021 0.0
C407 C 0.13082 0.46613 0.73692 0.0
C408 C 0.14056 0.50477 0.7009 0.0
C409 C 0.11332 0.48608 0.75312 0.0
C410 C 0.10951 0.51512 0.74357 0.0
C411 C 0.12241 0.55481 0.71016 0.0
C412 C 0.13859 0.56533 0.68603 0.0
C413 C 0.12368 0.5249 0.71799 0.0
C414 C 0.15437 0.54501 0.6684 0.0
C415 C 0.15517 0.51495 0.67565 0.0
H416 H 0.95878 0.6098 0.25405 0.0
H417 H 0.93104 0.64259 0.16869 0.0
H418 H 0.98156 0.64516 0.15239 0.0
H419 H 0.03364 0.64331 0.16435 0.0
H420 H 0.0612 0.61038 0.24979 0.0
H421 H 0.01076 0.60258 0.26396 0.0
C422 C 0.96376 0.61704 0.23171 0.0
C423 C 0.94124 0.62639 0.21278 0.0
C424 C 0.99286 0.61883 0.2226 0.0
C425 C 0.94801 0.63543 0.18379 0.0
C426 C 0.97691 0.63708 0.17449 0.0
C427 C 0.02863 0.63422 0.18598 0.0
C428 C 0.05117 0.62793 0.20611 0.0
C429 C -0.00047 0.62974 0.19405 0.0
C430 C 0.04431 0.61563 0.23387 0.0
C431 C 0.01543 0.61119 0.24206 0.0
H432 H 0.89519 0.51551 0.76606 0.0
H433 H 0.84269 0.55183 0.69553 0.0
H434 H 0.83953 0.50274 0.67281 0.0
H435 H 0.84744 0.44867 0.67638 0.0
H436 H 0.90092 0.41352 0.74718 0.0
H437 H 0.90812 0.46302 0.76615 0.0
C438 C 0.8834 0.51272 0.74548 0.0
C439 C 0.86887 0.53698 0.73265 0.0
C440 C 0.88161 0.48461 0.73275 0.0
C441 C 0.85404 0.53333 0.70577 0.0
C442 C 0.85207 0.50527 0.69293 0.0
C443 C 0.8609 0.45185 0.69578 0.0
C444 C 0.87302 0.42721 0.71064 0.0
C445 C 0.86507 0.48058 0.70673 0.0
C446 C 0.89086 0.43189 0.73546 0.0
C447 C 0.89506 0.46026 0.74642 0.0
H448 H 0.95895 0.34436 0.2011 0.0
H449 H 0.95208 0.40298 0.27633 0.0
H450 H 0.0041 0.4112 0.27486 0.0
H451 H 0.05202 0.39568 0.25779 0.0
H452 H 0.06106 0.33552 0.18436 0.0
H453 H 0.00791 0.33448 0.17889 0.0
C454 C 0.96887 0.35936 0.21669 0.0
C455 C 0.95186 0.37253 0.2392 0.0
C456 C -0.00079 0.36357 0.21615 0.0
C457 C 0.96485 0.39207 0.25921 0.0
C458 C 0.9946 0.39688 0.25837 0.0
C459 C 0.04233 0.38296 0.24008 0.0
C460 C 0.06015 0.36548 0.22173 0.0
C461 C 0.01207 0.38182 0.23778 0.0
C462 C 0.0476 0.34926 0.19868 0.0
C463 C 0.01724 0.3484 0.19582 0.0
H464 H 0.2163 0.11565 0.56087 0.0
H465 H 0.29792 0.16101 0.55755 0.0
H466 H 0.30285 0.1489 0.5046 0.0
H467 H 0.27958 0.13195 0.45806 0.0
H468 H 0.19661 0.08902 0.46277 0.0
H469 H 0.19681 0.09289 0.51663 0.0
C470 C 0.23535 0.12259 0.54859 0.0
C471 C 0.25638 0.13975 0.56257 0.0
C472 C 0.23772 0.11589 0.5185 0.0
C473 C 0.28135 0.14799 0.54692 0.0
C474 C 0.28408 0.14116 0.51672 0.0
C475 C 0.26208 0.12268 0.47107 0.0
C476 C 0.23798 0.11046 0.45674 0.0
C477 C 0.26184 0.12602 0.50206 0.0
C478 C 0.21522 0.0987 0.47354 0.0
C479 C 0.21525 0.10105 0.50424 0.0
H480 H 0.3241 0.81214 0.94365 0.0
H481 H 0.36402 0.72505 0.94331 0.0
H482 H 0.37082 0.72794 0.99696 0.0
H483 H 0.36439 0.75486 0.04397 0.0
H484 H 0.32366 0.84154 0.04363 0.0
H485 H 0.3187 0.83924 0.9899 0.0
C486 C 0.33422 0.79365 0.95518 0.0
C487 C 0.34335 0.76831 0.93938 0.0
C488 C 0.33819 0.79551 0.98585 0.0
C489 C 0.35662 0.74476 0.95487 0.0
C490 C 0.36063 0.74644 0.98554 0.0
C491 C 0.35481 0.77343 0.0321 0.0
C492 C 0.34443 0.79837 0.04779 0.0
C493 C 0.35147 0.77172 0.00124 0.0
C494 C 0.33175 0.82208 0.0321 0.0
C495 C 0.32882 0.82074 0.0014 0.0
H496 H 0.80972 0.85795 0.46576 0.0
H497 H 0.71735 0.86652 0.45119 0.0
H498 H 0.70864 0.86181 0.50475 0.0
H499 H 0.72794 0.85387 0.55589 0.0
H500 H 0.82093 0.84479 0.5676 0.0
H501 H 0.82855 0.85092 0.51499 0.0
C502 C 0.7876 0.85894 0.47416 0.0
C503 C 0.76423 0.86254 0.45453 0.0
C504 C 0.78285 0.85594 0.50456 0.0
C505 C 0.73575 0.86374 0.4659 0.0
C506 C 0.73078 0.86098 0.49649 0.0
C507 C 0.7498 0.8533 0.54683 0.0
C508 C 0.77377 0.84885 0.56578 0.0
C509 C 0.75423 0.85683 0.51608 0.0
C510 C 0.802 0.84819 0.55371 0.0
C511 C 0.80649 0.85171 0.52352 0.0
H512 H 0.63593 0.25935 0.04667 0.0
H513 H 0.66191 0.16734 0.05388 0.0
H514 H 0.66916 0.16471 0.00071 0.0
H515 H 0.66878 0.18798 0.95274 0.0
H516 H 0.64198 0.27941 0.94334 0.0
H517 H 0.63468 0.28287 0.9971 0.0
C518 C 0.64294 0.2387 0.03653 0.0
C519 C 0.64853 0.21364 0.05424 0.0
C520 C 0.64724 0.23728 0.00574 0.0
C521 C 0.65771 0.18705 0.04082 0.0
C522 C 0.66189 0.18548 0.01041 0.0
C523 C 0.6616 0.20885 0.96232 0.0
C524 C 0.65619 0.23347 0.94411 0.0
C525 C 0.657 0.21048 0.99279 0.0
C526 C 0.64642 0.26014 0.95696 0.0
C527 C 0.64215 0.26209 0.98763 0.0
H528 H 0.31115 0.83032 0.45302 0.0
H529 H 0.22222 0.86234 0.45032 0.0
H530 H 0.22419 0.87415 0.50295 0.0
H531 H 0.2506 0.87389 0.55017 0.0
H532 H 0.33925 0.8412 0.5527 0.0
H533 H 0.33799 0.83163 0.49961 0.0
C534 C 0.29213 0.83978 0.4639 0.0
C535 C 0.26653 0.84512 0.44771 0.0
C536 C 0.2934 0.84667 0.49413 0.0
C537 C 0.2422 0.85772 0.46222 0.0
C538 C 0.24331 0.86463 0.49233 0.0
C539 C 0.26978 0.86511 0.53901 0.0
C540 C 0.29493 0.85822 0.55538 0.0
C541 C 0.26876 0.8591 0.50853 0.0
C542 C 0.31954 0.84658 0.54064 0.0
C543 C 0.31883 0.841 0.51029 0.0
H544 H 0.62635 0.76836 0.05258 0.0
H545 H 0.67363 0.8447 0.02302 0.0
H546 H 0.66897 0.82847 0.97158 0.0
H547 H 0.65481 0.79038 0.93544 0.0
H548 H 0.61093 0.71249 0.96622 0.0
H549 H 0.61069 0.73166 0.01673 0.0
C550 C 0.63534 0.78172 0.03491 0.0
C551 C 0.65042 0.80765 0.04168 0.0
C552 C 0.63333 0.77185 0.00558 0.0
C553 C 0.66208 0.82453 0.01845 0.0
C554 C 0.65944 0.81526 0.98903 0.0
C555 C 0.64489 0.77786 0.9532 0.0
C556 C 0.63301 0.75006 0.94725 0.0
C557 C 0.64562 0.78863 0.98239 0.0
C558 C 0.62042 0.73386 0.97038 0.0
C559 C 0.62026 0.7448 -0.00076 0.0
H560 H 0.68556 0.17878 0.54505 0.0
H561 H 0.74214 0.10173 0.54914 0.0
H562 H 0.74916 0.10403 0.49542 0.0
H563 H 0.73797 0.12723 0.44747 0.0
H564 H 0.68093 0.20405 0.44445 0.0
H565 H 0.67552 0.20249 0.49805 0.0
C566 C 0.69937 0.16232 0.53433 0.0
C567 C 0.71309 0.13994 0.55106 0.0
C568 C 0.70331 0.1638 0.50374 0.0
C569 C 0.73122 0.11912 0.53673 0.0
C570 C 0.73526 0.12044 0.50606 0.0
C571 C 0.72457 0.1438 0.45855 0.0
C572 C 0.70978 0.16564 0.44199 0.0
C573 C 0.72129 0.14263 0.48937 0.0
C574 C 0.6924 0.18687 0.45665 0.0
C575 C 0.68927 0.18601 0.48729 0.0
H576 H 0.37561 0.22958 0.05716 0.0
H577 H 0.32701 0.15237 0.03271 0.0
H578 H 0.32982 0.16678 0.98055 0.0
H579 H 0.34265 0.20369 0.94247 0.0
H580 H 0.38845 0.28204 0.96852 0.0
H581 H 0.39028 0.26463 0.01959 0.0
C582 C 0.36572 0.21568 0.04052 0.0
C583 C 0.3508 0.19011 0.04894 0.0
C584 C 0.36681 0.2244 0.01084 0.0
C585 C 0.33843 0.17233 0.0269 0.0
C586 C 0.33999 0.18056 0.99706 0.0
C587 C 0.3533 0.21669 0.95933 0.0
C588 C 0.36518 0.24416 0.95194 0.0
C589 C 0.3536 0.2069 0.98886 0.0
C590 C 0.37886 0.26096 0.97386 0.0
C591 C 0.37995 0.25102 0.00302 0.0
H592 H 0.53927 0.22382 0.09212 0.0
H593 H 0.53881 0.29914 0.15033 0.0
H594 H 0.48568 0.29626 0.15526 0.0
H595 H 0.441 0.26589 0.15026 0.0
H596 H 0.44465 0.18766 0.0956 0.0
H597 H 0.49466 0.19796 0.08198 0.0
C598 C 0.52736 0.2402 0.1051 0.0
C599 C 0.54272 0.26148 0.12098 0.0
C600 C 0.49741 0.23728 0.10909 0.0
C601 C 0.52728 0.2827 0.13769 0.0
C602 C 0.49699 0.28069 0.1409 0.0
C603 C 0.45274 0.25147 0.13505 0.0
C604 C 0.4395 0.22568 0.12447 0.0
C605 C 0.48204 0.25707 0.12794 0.0
C606 C 0.4547 0.20721 0.1046 0.0
C607 C 0.48322 0.21316 0.09665 0.0
H608 H 0.53033 0.66372 0.84691 0.0
H609 H 0.55506 0.74702 0.88568 0.0
H610 H 0.50431 0.76051 0.8929 0.0
H611 H 0.45308 0.75102 0.88435 0.0
H612 H 0.42718 0.6684 0.84564 0.0
H613 H 0.47815 0.65208 0.84288 0.0
C614 C 0.52463 0.68474 0.85708 0.0
C615 C 0.54662 0.70448 0.8652 0.0
C616 C 0.49518 0.69253 0.86127 0.0
C617 C 0.53874 0.73145 0.87881 0.0
C618 C 0.50965 0.73926 0.88304 0.0
C619 C 0.45855 0.72926 0.87568 0.0
C620 C 0.43654 0.71109 0.8649 0.0
C621 C 0.48774 0.72029 0.87378 0.0
C622 C 0.44383 0.6828 0.85409 0.0
C623 C 0.47297 0.67357 0.85228 0.0
H624 H 0.75778 0.95227 0.38799 0.0
H625 H 0.84183 0.96806 0.34861 0.0
H626 H 0.8336 0.02132 0.35297 0.0
H627 H 0.79999 0.06294 0.36183 0.0
H628 H 0.71445 0.0467 0.39716 0.0
H629 H 0.72601 0.99395 0.40099 0.0
C630 C 0.77455 0.9673 0.3808 0.0
C631 C 0.80019 0.95622 0.36759 0.0
C632 C 0.76932 0.99779 0.38249 0.0
C633 C 0.82171 0.97604 0.35849 0.0
C634 C 0.81704 0.00648 0.36097 0.0
C635 C 0.78413 0.04791 0.37095 0.0
C636 C 0.75636 0.05848 0.37896 0.0
C637 C 0.79053 0.01757 0.37201 0.0
C638 C 0.7359 0.03889 0.39061 0.0
C639 C 0.74247 0.00878 0.39274 0.0
H640 H 0.46679 0.32466 0.84839 0.0
H641 H 0.44081 0.24381 0.89152 0.0
H642 H 0.49139 0.22994 0.89923 0.0
H643 H 0.54272 0.23822 0.88967 0.0
H644 H 0.56946 0.31825 0.84595 0.0
H645 H 0.51883 0.33525 0.84318 0.0
C646 C 0.47217 0.3041 0.85962 0.0
C647 C 0.44998 0.28509 0.86878 0.0
C648 C 0.50142 0.29609 0.86397 0.0
C649 C 0.45738 0.25874 0.88377 0.0
C650 C 0.48635 0.25074 0.8883 0.0
C651 C 0.53751 0.25957 0.8799 0.0
C652 C 0.55962 0.27675 0.86765 0.0
C653 C 0.50848 0.26889 0.87787 0.0
C654 C 0.55269 0.30455 0.85542 0.0
C655 C 0.52377 0.31419 0.85365 0.0
H656 H 0.1798 0.93414 0.34094 0.0
H657 H 0.23717 0.9354 0.41618 0.0
H658 H 0.23184 0.98914 0.41958 0.0
H659 H 0.21715 0.03575 0.39641 0.0
H660 H 0.16251 0.03515 0.31876 0.0
H661 H 0.16034 0.9813 0.32104 0.0
C662 C 0.19017 0.94622 0.35868 0.0
C663 C 0.20861 0.93116 0.37846 0.0
C664 C 0.18812 0.97724 0.35955 0.0
C665 C 0.22267 0.9468 0.40094 0.0
C666 C 0.21987 0.97747 0.40267 0.0
C667 C 0.20453 0.02391 0.38011 0.0
C668 C 0.19052 0.03945 0.35711 0.0
C669 C 0.20372 0.99298 0.38128 0.0
C670 C 0.17379 0.02374 0.33655 0.0
C671 C 0.17252 0.99291 0.33781 0.0
H672 H 0.55524 0.75233 0.1235 0.0
H673 H 0.54829 0.84608 0.14113 0.0
H674 H 0.49566 0.8436 0.13976 0.0
H675 H 0.45205 0.8156 0.13432 0.0
H676 H 0.45627 0.72179 0.11715 0.0
H677 H 0.50976 0.72359 0.11698 0.0
C678 C 0.54211 0.77214 0.12698 0.0
C679 C 0.55565 0.79939 0.13235 0.0
C680 C 0.51154 0.77063 0.12601 0.0
C681 C 0.53846 0.82492 0.13673 0.0
C682 C 0.50833 0.82354 0.13599 0.0
C683 C 0.46448 0.7954 0.13036 0.0
C684 C 0.45018 0.76856 0.12579 0.0
C685 C 0.49474 0.79661 0.13067 0.0
C686 C 0.4668 0.74274 0.12071 0.0
C687 C 0.49732 0.74378 0.12073 0.0
H688 H 0.74556 0.92692 0.63326 0.0
H689 H 0.81754 0.94419 0.69169 0.0
H690 H 0.81141 0.99729 0.68303 0.0
H691 H 0.78314 0.03888 0.66186 0.0
H692 H 0.70892 0.02114 0.60683 0.0
H693 H 0.71871 0.968 0.61075 0.0
C694 C 0.76013 0.9422 0.64397 0.0
C695 C 0.78187 0.93153 0.66328 0.0
C696 C 0.75608 0.97262 0.63943 0.0
C697 C 0.80047 0.95178 0.67693 0.0
C698 C 0.79701 0.98214 0.67194 0.0
C699 C 0.76948 0.02333 0.65031 0.0
C700 C 0.74541 0.03374 0.63402 0.0
C701 C 0.77457 0.99283 0.65363 0.0
C702 C 0.72754 0.01351 0.61952 0.0
C703 C 0.73307 0.98319 0.62184 0.0
H704 H 0.25505 0.0726 0.62754 0.0
H705 H 0.17463 0.05957 0.67513 0.0
H706 H 0.17964 0.00613 0.66802 0.0
H707 H 0.2091 0.96295 0.65188 0.0
H708 H 0.29112 0.9767 0.60787 0.0
H709 H 0.28299 0.03018 0.60954 0.0
C710 C 0.23845 0.0582 0.63631 0.0
C711 C 0.21467 0.07016 0.6522 0.0
C712 C 0.24175 0.0276 0.63266 0.0
C713 C 0.19333 0.05101 0.66308 0.0
C714 C 0.19615 0.02043 0.65898 0.0
C715 C 0.22485 0.97772 0.64215 0.0
C716 C 0.25063 0.96608 0.6297 0.0
C717 C 0.22055 0.00846 0.64428 0.0
C718 C 0.27115 0.98529 0.61758 0.0
C719 C 0.26656 0.01581 0.61864 0.0
H720 H 0.17857 0.29981 0.32112 0.0
H721 H 0.11613 0.25217 0.26913 0.0
H722 H 0.13093 0.20596 0.29278 0.0
H723 H 0.16284 0.17874 0.32649 0.0
H724 H 0.22674 0.22539 0.37746 0.0
H725 H 0.21015 0.27233 0.35599 0.0
C726 C 0.16806 0.27934 0.31526 0.0
C727 C 0.14637 0.27932 0.29346 0.0
C728 C 0.17705 0.25267 0.32857 0.0
C729 C 0.13301 0.25267 0.28581 0.0
C730 C 0.14145 0.22623 0.29928 0.0
C731 C 0.17306 0.19918 0.333 0.0
C732 C 0.19597 0.19865 0.35341 0.0
C733 C 0.16366 0.22592 0.32039 0.0
C734 C 0.20906 0.22528 0.36165 0.0
C735 C 0.19959 0.25211 0.34942 0.0
H736 H 0.2421 0.73942 0.82086 0.0
H737 H 0.31735 0.69014 0.79029 0.0
H738 H 0.28732 0.66413 0.75431 0.0
H739 H 0.24027 0.65875 0.72863 0.0
H740 H 0.16498 0.7069 0.761 0.0
H741 H 0.1944 0.73003 0.79914 0.0
C742 C 0.25182 0.72265 0.80662 0.0
C743 C 0.28187 0.71684 0.80805 0.0
C744 C 0.23448 0.70784 0.78608 0.0
C745 C 0.2942 0.69487 0.78971 0.0
C746 C 0.27709 0.68019 0.76896 0.0
C747 C 0.23035 0.67413 0.74422 0.0
C748 C 0.2006 0.68132 0.74189 0.0
C749 C 0.24734 0.68705 0.76645 0.0
C750 C 0.18784 0.70097 0.76241 0.0
C751 C 0.20465 0.71428 0.78417 0.0
H752 H 0.87885 0.73676 0.27458 0.0
H753 H 0.83424 0.67362 0.32948 0.0
H754 H 0.81305 0.71366 0.35885 0.0
H755 H 0.80437 0.76647 0.36665 0.0
H756 H 0.84917 0.83 0.31254 0.0
H757 H 0.87322 0.78988 0.28512 0.0
C758 C 0.86479 0.73179 0.2932 0.0
C759 C 0.8578 0.70236 0.29962 0.0
C760 C 0.85251 0.75493 0.30992 0.0
C761 C 0.83972 0.69616 0.32392 0.0
C762 C 0.82753 0.71901 0.34069 0.0
C763 C 0.81948 0.77151 0.34892 0.0
C764 C 0.82475 0.801 0.34129 0.0
C765 C 0.83326 0.74846 0.33346 0.0
C766 C 0.84469 0.80736 0.31864 0.0
C767 C 0.85841 0.78447 0.30297 0.0
H768 H 0.7547 0.32646 0.72907 0.0
H769 H 0.83035 0.29623 0.77773 0.0
H770 H 0.79958 0.27066 0.81277 0.0
H771 H 0.75162 0.25417 0.8281 0.0
H772 H 0.67539 0.28543 0.78165 0.0
H773 H 0.70591 0.31336 0.74729 0.0
C774 C 0.76439 0.31448 0.74748 0.0
C775 C 0.79478 0.31311 0.75055 0.0
C776 C 0.74653 0.29986 0.76787 0.0
C777 C 0.80702 0.29769 0.77471 0.0
C778 C 0.78947 0.28292 0.79479 0.0
C779 C 0.74175 0.26729 0.81055 0.0
C780 C 0.71153 0.26769 0.8071 0.0
C781 C 0.75929 0.28345 0.7913 0.0
C782 C 0.69876 0.28499 0.78465 0.0
C783 C 0.71616 0.30081 0.76498 0.0
H784 H 0.23882 0.77029 0.62905 0.0
H785 H 0.20053 0.83429 0.68873 0.0
H786 H 0.15892 0.80193 0.69691 0.0
H787 H 0.1354 0.75388 0.68942 0.0
H788 H 0.17293 0.69139 0.62738 0.0
H789 H 0.21259 0.72503 0.61724 0.0
C790 C 0.22128 0.7771 0.64379 0.0
C791 C 0.22277 0.80423 0.6587 0.0
C792 C 0.19729 0.75878 0.64777 0.0
C793 C 0.19976 0.81331 0.6772 0.0
C794 C 0.17605 0.79486 0.68184 0.0
C795 C 0.15196 0.74786 0.67328 0.0
C796 C 0.15148 0.71994 0.65958 0.0
C797 C 0.17478 0.76736 0.66751 0.0
C798 C 0.17296 0.71258 0.63852 0.0
C799 C 0.19575 0.73175 0.63279 0.0
H800 H 0.75534 0.76842 0.14458 0.0
H801 H 0.6752 0.73616 0.18165 0.0
H802 H 0.70232 0.69953 0.21062 0.0
H803 H 0.74901 0.67956 0.22856 0.0
H804 H 0.82902 0.71075 0.19049 0.0
H805 H 0.8017 0.74497 0.15872 0.0
C806 C 0.74379 0.75317 0.15876 0.0
C807 C 0.71335 0.75523 0.16121 0.0
C808 C 0.75948 0.73218 0.17536 0.0
C809 C 0.69864 0.73505 0.17935 0.0
C810 C 0.71413 0.71421 0.19608 0.0
C811 C 0.76039 0.69372 0.21312 0.0
C812 C 0.7909 0.69295 0.212 0.0
C813 C 0.74457 0.71306 0.19476 0.0
C814 C 0.80549 0.71099 0.19165 0.0
C815 C 0.78991 0.73061 0.17359 0.0
H816 H 0.75121 0.23387 0.63678 0.0
H817 H 0.78972 0.16249 0.6874 0.0
H818 H 0.83223 0.19265 0.6975 0.0
H819 H 0.85741 0.23974 0.69349 0.0
H820 H 0.81981 0.3108 0.64166 0.0
H821 H 0.77821 0.27998 0.62983 0.0
C822 C 0.76887 0.22501 0.65015 0.0
C823 C 0.76722 0.19618 0.66172 0.0
C824 C 0.79348 0.24223 0.65531 0.0
C825 C 0.79048 0.18468 0.67842 0.0
C826 C 0.81479 0.20187 0.68412 0.0
C827 C 0.84033 0.24841 0.67925 0.0
C828 C 0.84154 0.27768 0.66878 0.0
C829 C 0.81644 0.23069 0.67278 0.0
C830 C 0.81935 0.28841 0.65014 0.0
C831 C 0.79545 0.27087 0.64355 0.0
H832 H 0.18972 0.28559 0.1982 0.0
H833 H 0.25709 0.33853 0.23643 0.0
H834 H 0.29428 0.30912 0.21059 0.0
H835 H 0.30777 0.26511 0.18159 0.0
H836 H 0.24033 0.20988 0.14651 0.0
H837 H 0.20318 0.24328 0.16659 0.0
C838 C 0.21251 0.29109 0.20018 0.0
C839 C 0.22074 0.3142 0.21896 0.0
C840 C 0.23382 0.27333 0.18625 0.0
C841 C 0.25034 0.3208 0.22197 0.0
C842 C 0.27159 0.30392 0.20735 0.0
C843 C 0.28496 0.2606 0.17798 0.0
C844 C 0.27692 0.2349 0.16275 0.0
C845 C 0.26363 0.27958 0.19014 0.0
C846 C 0.2472 0.22934 0.15841 0.0
C847 C 0.22588 0.24847 0.16983 0.0
H848 H 0.35429 0.18022 0.23984 0.0
H849 H 0.31549 0.12535 0.17292 0.0
H850 H 0.28029 0.10753 0.20888 0.0
H851 H 0.2571 0.11181 0.25768 0.0
H852 H 0.29637 0.16492 0.32548 0.0
H853 H 0.33505 0.17898 0.29096 0.0
C854 C 0.33844 0.16399 0.23328 0.0
C855 C 0.3371 0.15463 0.20359 0.0
C856 C 0.31823 0.15372 0.25415 0.0
C857 C 0.31672 0.13328 0.19551 0.0
C858 C 0.29652 0.12309 0.21604 0.0
C859 C 0.27441 0.12611 0.26495 0.0
C860 C 0.27386 0.13764 0.29381 0.0
C861 C 0.29651 0.13387 0.24513 0.0
C862 C 0.2965 0.15579 0.30329 0.0
C863 C 0.31846 0.16394 0.28353 0.0
H864 H 0.32519 0.82271 0.81008 0.0
H865 H 0.38169 0.76939 0.75455 0.0
H866 H 0.36712 0.7984 0.71127 0.0
H867 H 0.33638 0.83672 0.68898 0.0
H868 H 0.27734 0.88803 0.74366 0.0
H869 H 0.29512 0.86208 0.78779 0.0
C870 C 0.33444 0.81757 0.78855 0.0
C871 C 0.35434 0.7939 0.7854 0.0
C872 C 0.32548 0.83388 0.76371 0.0
C873 C 0.36619 0.78744 0.75742 0.0
C874 C 0.35789 0.80399 0.7327 0.0
C875 C 0.32747 0.84237 0.71055 0.0
C876 C 0.30544 0.86407 0.71309 0.0
C877 C 0.33723 0.82692 0.73555 0.0
C878 C 0.29425 0.87127 0.74119 0.0
C879 C 0.30436 0.85643 0.76637 0.0
H880 H 0.7605 0.87859 0.24948 0.0
H881 H 0.71056 0.83705 0.31865 0.0
H882 H 0.67188 0.82672 0.28324 0.0
H883 H 0.6537 0.82685 0.23206 0.0
H884 H 0.70348 0.86899 0.16316 0.0
H885 H 0.7407 0.88195 0.19918 0.0
C886 C 0.74112 0.86734 0.25687 0.0
C887 C 0.73858 0.85832 0.28662 0.0
C888 C 0.71896 0.86159 0.23645 0.0
C889 C 0.7131 0.84421 0.29589 0.0
C890 C 0.69101 0.83823 0.27563 0.0
C891 C 0.67254 0.83917 0.22497 0.0
C892 C 0.67595 0.84671 0.19491 0.0
C893 C 0.6939 0.84646 0.24579 0.0
C894 C 0.70038 0.86281 0.18613 0.0
C895 C 0.72173 0.87014 0.2067 0.0
H896 H 0.69729 0.114 0.73848 0.0
H897 H 0.64547 0.16021 0.67308 0.0
H898 H 0.62055 0.18802 0.712 0.0
H899 H 0.61732 0.20298 0.764 0.0
H900 H 0.66882 0.15663 0.82954 0.0
H901 H 0.68973 0.12485 0.7912 0.0
C902 C 0.68031 0.1299 0.73282 0.0
C903 C 0.67368 0.13555 0.70303 0.0
C904 C 0.66613 0.14592 0.75527 0.0
C905 C 0.65131 0.15583 0.69591 0.0
C906 C 0.63703 0.17176 0.71812 0.0
C907 C 0.63284 0.18567 0.76991 0.0
C908 C 0.64201 0.18256 0.79934 0.0
C909 C 0.64489 0.1676 0.74778 0.0
C910 C 0.66175 0.15976 0.80688 0.0
C911 C 0.67376 0.14158 0.78499 0.0
H912 H 0.81484 0.79764 0.72249 0.0
H913 H 0.78742 0.74076 0.65144 0.0
H914 H 0.80187 0.69725 0.67994 0.0
H915 H 0.8221 0.67526 0.72488 0.0
H916 H 0.84818 0.7316 0.79698 0.0
H917 H 0.8342 0.77532 0.76836 0.0
C918 C 0.81225 0.77571 0.71326 0.0
C919 C 0.80032 0.77237 0.6849 0.0
C920 C 0.82017 0.75068 0.72998 0.0
C921 C 0.79664 0.74387 0.67326 0.0
C922 C 0.80486 0.71896 0.68952 0.0
C923 C 0.82477 0.69709 0.73436 0.0
C924 C 0.83629 0.70011 0.76294 0.0
C925 C 0.81659 0.7221 0.7179 0.0
C926 C 0.83929 0.72859 0.77501 0.0
C927 C 0.83142 0.75365 0.75863 0.0
H928 H 0.74133 0.25517 0.15369 0.0
H929 H 0.6705 0.31093 0.1844 0.0
H930 H 0.7052 0.34364 0.20842 0.0
H931 H 0.75484 0.35233 0.22594 0.0
H932 H 0.82557 0.29614 0.19592 0.0
H933 H 0.79164 0.26764 0.16593 0.0
C934 C 0.73349 0.27472 0.16531 0.0
C935 C 0.70337 0.28039 0.16775 0.0
C936 C 0.75349 0.29311 0.17929 0.0
C937 C 0.69354 0.30607 0.18231 0.0
C938 C 0.71336 0.32463 0.19619 0.0
C939 C 0.76288 0.3341 0.21245 0.0
C940 C 0.79255 0.326 0.21339 0.0
C941 C 0.74325 0.31775 0.19564 0.0
C942 C 0.80284 0.30274 0.1955 0.0
C943 C 0.78342 0.28636 0.17856 0.0
H944 H 0.18713 0.32567 0.71341 0.0
H945 H 0.14609 0.26735 0.77618 0.0
H946 H 0.15707 0.2251 0.74469 0.0
H947 H 0.1792 0.20422 0.70005 0.0
H948 H 0.22345 0.2612 0.63862 0.0
H949 H 0.20986 0.3044 0.66846 0.0
C950 C 0.1806 0.30372 0.72014 0.0
C951 C 0.16596 0.29976 0.74719 0.0
C952 C 0.18733 0.27924 0.70205 0.0
C953 C 0.15771 0.2711 0.75565 0.0
C954 C 0.1638 0.24685 0.73757 0.0
C955 C 0.18565 0.2261 0.69304 0.0
C956 C 0.20221 0.22955 0.6672 0.0
C957 C 0.17867 0.25062 0.7108 0.0
C958 C 0.21061 0.25803 0.6585 0.0
C959 C 0.20297 0.28271 0.67559 0.0
H960 H 0.2379 0.63586 0.18408 0.0
H961 H 0.16814 0.68634 0.14368 0.0
H962 H 0.20308 0.72175 0.12454 0.0
H963 H 0.25235 0.74122 0.12444 0.0
H964 H 0.32234 0.69161 0.16533 0.0
H965 H 0.28841 0.65242 0.17861 0.0
C966 C 0.23041 0.65441 0.17075 0.0
C967 C 0.20047 0.65883 0.16571 0.0
C968 C 0.2506 0.67476 0.16003 0.0
C969 C 0.19105 0.68262 0.14804 0.0
C970 C 0.211 0.7029 0.13717 0.0
C971 C 0.26027 0.72164 0.13595 0.0
C972 C 0.28965 0.71947 0.14442 0.0
C973 C 0.24066 0.69964 0.14383 0.0
C974 C 0.29979 0.69377 0.1587 0.0
C975 C 0.28036 0.67152 0.16647 0.0
H976 H 0.85939 0.26226 0.27962 0.0
H977 H 0.82378 0.33286 0.33362 0.0
H978 H 0.78695 0.29993 0.353 0.0
H979 H 0.76209 0.25261 0.35119 0.0
H980 H 0.79807 0.18095 0.29928 0.0
H981 H 0.83759 0.21274 0.28235 0.0
C982 C 0.84391 0.27024 0.29605 0.0
C983 C 0.84398 0.30005 0.3048 0.0
C984 C 0.82262 0.25116 0.30707 0.0
C985 C 0.82392 0.31008 0.32623 0.0
C986 C 0.80277 0.29132 0.33726 0.0
C987 C 0.77869 0.244 0.33625 0.0
C988 C 0.77711 0.21485 0.326 0.0
C989 C 0.80141 0.26213 0.32717 0.0
C990 C 0.79895 0.20351 0.30723 0.0
C991 C 0.82145 0.22165 0.29759 0.0
H992 H 0.23817 0.39643 0.79981 0.0
H993 H 0.17496 0.34993 0.8523 0.0
H994 H 0.21401 0.32321 0.87792 0.0
H995 H 0.26567 0.30993 0.88195 0.0
H996 H 0.32893 0.35631 0.82945 0.0
H997 H 0.29015 0.38648 0.80724 0.0
C998 C 0.23295 0.38071 0.81711 0.0
C999 C 0.20378 0.37479 0.82389 0.0
C1000 C 0.25544 0.36531 0.83149 0.0
C1001 C 0.19727 0.35469 0.84658 0.0
C1002 C 0.21957 0.33934 0.86113 0.0
C1003 C 0.27097 0.32681 0.86581 0.0
C1004 C 0.29996 0.33071 0.85699 0.0
C1005 C 0.24865 0.34394 0.85319 0.0
C1006 C 0.30669 0.35288 0.83644 0.0
C1007 C 0.28456 0.37005 0.82372 0.0
H1008 H 0.18431 0.79831 0.30696 0.0
H1009 H 0.23631 0.73079 0.34987 0.0
H1010 H 0.21225 0.69257 0.32117 0.0
H1011 H 0.18096 0.67897 0.27947 0.0
H1012 H 0.13128 0.74701 0.23439 0.0
H1013 H 0.14966 0.78415 0.26833 0.0
C1014 C 0.18977 0.77517 0.31057 0.0
C1015 C 0.21206 0.76739 0.33042 0.0
C1016 C 0.17658 0.75336 0.29321 0.0
C1017 C 0.21927 0.73733 0.33459 0.0
C1018 C 0.20561 0.71546 0.3181 0.0
C1019 C 0.17376 0.70182 0.27741 0.0
C1020 C 0.15504 0.71017 0.2542 0.0
C1021 C 0.18495 0.72329 0.29662 0.0
C1022 C 0.146 0.73996 0.25181 0.0
C1023 C 0.15646 0.76128 0.27125 0.0
H1024 H 0.76566 0.59747 0.80158 0.0
H1025 H 0.8249 0.64469 0.85768 0.0
H1026 H 0.78392 0.67096 0.88087 0.0
H1027 H 0.73185 0.684 0.8814 0.0
H1028 H 0.67259 0.63645 0.82566 0.0
H1029 H 0.71311 0.60661 0.80604 0.0
C1030 C 0.76959 0.61321 0.81919 0.0
C1031 C 0.79828 0.61953 0.82759 0.0
C1032 C 0.74599 0.62834 0.83217 0.0
C1033 C 0.80305 0.63959 0.85071 0.0
C1034 C 0.77963 0.65473 0.86383 0.0
C1035 C 0.7278 0.66694 0.86512 0.0
C1036 C 0.69941 0.66265 0.85461 0.0
C1037 C 0.75112 0.64989 0.8541 0.0
C1038 C 0.6943 0.64019 0.83394 0.0
C1039 C 0.71745 0.62321 0.8227 0.0
H1040 H 0.70573 0.78253 0.69418 0.0
H1041 H 0.71212 0.85354 0.75727 0.0
H1042 H 0.68139 0.82687 0.79214 0.0
H1043 H 0.65988 0.78016 0.80766 0.0
H1044 H 0.65609 0.70759 0.74571 0.0
H1045 H 0.67839 0.73799 0.70755 0.0
C1046 C 0.69936 0.79257 0.71509 0.0
C1047 C 0.71094 0.81994 0.72318 0.0
C1048 C 0.68283 0.77645 0.7356 0.0
C1049 C 0.70321 0.83254 0.75059 0.0
C1050 C 0.68594 0.81714 0.77064 0.0
C1051 C 0.66355 0.77105 0.78572 0.0
C1052 C 0.65681 0.74138 0.77989 0.0
C1053 C 0.67681 0.78851 0.76393 0.0
C1054 C 0.6614 0.7302 0.7511 0.0
C1055 C 0.67416 0.74759 0.72916 0.0
H1056 H 0.66285 0.17746 0.31026 0.0
H1057 H 0.71669 0.11787 0.25843 0.0
H1058 H 0.69342 0.13568 0.21303 0.0
H1059 H 0.66032 0.17034 0.18824 0.0
H1060 H 0.60894 0.23228 0.23987 0.0
H1061 H 0.62868 0.21111 0.28556 0.0
C1062 C 0.66941 0.16824 0.28906 0.0
C1063 C 0.69159 0.14662 0.28755 0.0
C1064 C 0.6565 0.17904 0.26317 0.0
C1065 C 0.69977 0.13472 0.26001 0.0
C1066 C 0.68651 0.14488 0.23411 0.0
C1067 C 0.65332 0.17913 0.20948 0.0
C1068 C 0.63347 0.20297 0.21079 0.0
C1069 C 0.66525 0.16739 0.23545 0.0
C1070 C 0.62438 0.21401 0.2384 0.0
C1071 C 0.63566 0.20197 0.26447 0.0
H1072 H 0.297 0.20733 0.69601 0.0
H1073 H 0.25554 0.15557 0.7639 0.0
H1074 H 0.28475 0.17937 0.80187 0.0
H1075 H 0.31731 0.2191 0.81624 0.0
H1076 H 0.3561 0.2736 0.74874 0.0
H1077 H 0.33292 0.24442 0.71021 0.0
C1078 C 0.29498 0.20075 0.71904 0.0
C1079 C 0.2742 0.17981 0.72721 0.0
C1080 C 0.31102 0.21536 0.74088 0.0
C1081 C 0.27138 0.17175 0.75715 0.0
C1082 C 0.28797 0.18542 0.77887 0.0
C1083 C 0.3211 0.22432 0.7931 0.0
C1084 C 0.33814 0.2487 0.78543 0.0
C1085 C 0.30711 0.20796 0.77109 0.0
C1086 C 0.34275 0.25518 0.75529 0.0
C1087 C 0.32954 0.23848 0.73322 0.0
H1088 H 0.30798 0.81298 0.31015 0.0
H1089 H 0.25482 0.87632 0.26251 0.0
H1090 H 0.27899 0.86277 0.21618 0.0
H1091 H 0.31413 0.83193 0.18901 0.0
H1092 H 0.36611 0.76718 0.23615 0.0
H1093 H 0.3434 0.78213 0.28286 0.0
C1094 C 0.30189 0.82391 0.28964 0.0
C1095 C 0.27974 0.84555 0.28962 0.0
C1096 C 0.31549 0.81563 0.263 0.0
C1097 C 0.27178 0.85945 0.26294 0.0
C1098 C 0.28556 0.85173 0.23647 0.0
C1099 C 0.32052 0.82117 0.20952 0.0
C1100 C 0.34172 0.79857 0.2092 0.0
C1101 C 0.30724 0.82967 0.2362 0.0
C1102 C 0.3498 0.78471 0.23588 0.0
C1103 C 0.33686 0.79323 0.2626 0.0
loop_
_geom_bond_atom_site_label_1
_geom_bond_atom_site_label_2
_geom_bond_distance
_geom_bond_site_symmetry_2
_ccdc_geom_bond_type
Co0 O1 2.216 . S
Co0 O2 2.091 . S
Co0 O4 2.004 . S
Co0 O10 2.021 . S
Co0 O12 2.137 . S
Co0 O13 2.244 . S
O1 Co0 2.216 . S
O1 C8 1.247 . S
O2 Co0 2.091 . S
O2 C8 1.261 . S
C3 O12 1.247 . S
C3 O13 1.272 . S
O4 Co0 2.004 . S
O4 C9 1.259 . S
Co5 O6 2.061 . S
Co5 O11 2.052 . S
Co5 O13 2.135 . S
O6 Co5 2.061 . S
O6 C9 1.235 . S
C7 O10 1.238 . S
C7 O11 1.241 . S
C8 O1 1.247 . S
C8 O2 1.261 . S
C9 O4 1.259 . S
C9 O6 1.235 . S
O10 Co0 2.021 . S
O10 C7 1.238 . S
O11 Co5 2.052 . S
O11 C7 1.241 . S
O12 Co0 2.137 . S
O12 C3 1.247 . S
O13 Co0 2.244 . S
O13 C3 1.272 . S
O13 Co5 2.135 . S
Co14 O15 2.216 . S
Co14 O16 2.091 . S
Co14 O18 2.004 . S
Co14 O24 2.021 . S
Co14 O26 2.137 . S
Co14 O27 2.244 . S
O15 Co14 2.216 . S
O15 C22 1.247 . S
O16 Co14 2.091 . S
O16 C22 1.261 . S
C17 O26 1.247 . S
C17 O27 1.272 . S
O18 Co14 2.004 . S
O18 C23 1.259 . S
Co19 O20 2.061 . S
Co19 O25 2.052 . S
Co19 O27 2.135 . S
O20 Co19 2.061 . S
O20 C23 1.235 . S
C21 O24 1.238 . S
C21 O25 1.241 . S
C22 O15 1.247 . S
C22 O16 1.261 . S
C23 O18 1.259 . S
C23 O20 1.235 . S
O24 Co14 2.021 . S
O24 C21 1.238 . S
O25 Co19 2.052 . S
O25 C21 1.241 . S
O26 Co14 2.137 . S
O26 C17 1.247 . S
O27 Co14 2.244 . S
O27 C17 1.272 . S
O27 Co19 2.135 . S
Co28 O29 2.216 . S
Co28 O30 2.091 . S
Co28 O32 2.004 . S
Co28 O38 2.021 . S
Co28 O40 2.137 . S
Co28 O41 2.244 . S
O29 Co28 2.216 . S
O29 C36 1.247 . S
O30 Co28 2.091 . S
O30 C36 1.261 . S
C31 O40 1.247 . S
C31 O41 1.272 . S
O32 Co28 2.004 . S
O32 C37 1.259 . S
Co33 O34 2.061 . S
Co33 O39 2.052 . S
Co33 O41 2.135 . S
O34 Co33 2.061 . S
O34 C37 1.235 . S
C35 O38 1.238 . S
C35 O39 1.241 . S
C36 O29 1.247 . S
C36 O30 1.261 . S
C37 O32 1.259 . S
C37 O34 1.235 . S
O38 Co28 2.021 . S
O38 C35 1.238 . S
O39 Co33 2.052 . S
O39 C35 1.241 . S
O40 Co28 2.137 . S
O40 C31 1.247 . S
O41 Co28 2.244 . S
O41 C31 1.272 . S
O41 Co33 2.135 . S
Co42 O43 2.216 . S
Co42 O44 2.091 . S
Co42 O46 2.004 . S
Co42 O52 2.021 . S
Co42 O54 2.137 . S
Co42 O55 2.244 . S
O43 Co42 2.216 . S
O43 C50 1.247 . S
O44 Co42 2.091 . S
O44 C50 1.261 . S
C45 O54 1.247 . S
C45 O55 1.272 . S
O46 Co42 2.004 . S
O46 C51 1.259 . S
Co47 O48 2.061 . S
Co47 O53 2.052 . S
Co47 O55 2.135 . S
O48 Co47 2.061 . S
O48 C51 1.235 . S
C49 O52 1.238 . S
C49 O53 1.241 . S
C50 O43 1.247 . S
C50 O44 1.261 . S
C51 O46 1.259 . S
C51 O48 1.235 . S
O52 Co42 2.021 . S
O52 C49 1.238 . S
O53 Co47 2.052 . S
O53 C49 1.241 . S
O54 Co42 2.137 . S
O54 C45 1.247 . S
O55 Co42 2.244 . S
O55 C45 1.272 . S
O55 Co47 2.135 . S
Co56 O57 2.216 . S
Co56 O58 2.091 . S
Co56 O60 2.004 . S
Co56 O66 2.021 . S
Co56 O68 2.137 . S
Co56 O69 2.244 . S
O57 Co56 2.216 . S
O57 C64 1.247 . S
O58 Co56 2.091 . S
O58 C64 1.261 . S
C59 O68 1.247 . S
C59 O69 1.272 . S
O60 Co56 2.004 . S
O60 C65 1.259 . S
Co61 O62 2.061 . S
Co61 O67 2.052 . S
Co61 O69 2.135 . S
O62 Co61 2.061 . S
O62 C65 1.235 . S
C63 O66 1.238 . S
C63 O67 1.241 . S
C64 O57 1.247 . S
C64 O58 1.261 . S
C65 O60 1.259 . S
C65 O62 1.235 . S
O66 Co56 2.021 . S
O66 C63 1.238 . S
O67 Co61 2.052 . S
O67 C63 1.241 . S
O68 Co56 2.137 . S
O68 C59 1.247 . S
O69 Co56 2.244 . S
O69 C59 1.272 . S
O69 Co61 2.135 . S
Co70 O71 2.216 . S
Co70 O72 2.091 . S
Co70 O74 2.004 . S
Co70 O80 2.021 . S
Co70 O82 2.137 . S
Co70 O83 2.244 . S
O71 Co70 2.216 . S
O71 C78 1.247 . S
O72 Co70 2.091 . S
O72 C78 1.261 . S
C73 O82 1.247 . S
C73 O83 1.272 . S
O74 Co70 2.004 . S
O74 C79 1.259 . S
Co75 O76 2.061 . S
Co75 O81 2.052 . S
Co75 O83 2.135 . S
O76 Co75 2.061 . S
O76 C79 1.235 . S
C77 O80 1.238 . S
C77 O81 1.241 . S
C78 O71 1.247 . S
C78 O72 1.261 . S
C79 O74 1.259 . S
C79 O76 1.235 . S
O80 Co70 2.021 . S
O80 C77 1.238 . S
O81 Co75 2.052 . S
O81 C77 1.241 . S
O82 Co70 2.137 . S
O82 C73 1.247 . S
O83 Co70 2.244 . S
O83 C73 1.272 . S
O83 Co75 2.135 . S
Co84 O85 2.216 . S
Co84 O86 2.091 . S
Co84 O88 2.004 . S
Co84 O94 2.021 . S
Co84 O96 2.137 . S
Co84 O97 2.244 . S
O85 Co84 2.216 . S
O85 C92 1.247 . S
O86 Co84 2.091 . S
O86 C92 1.261 . S
C87 O96 1.247 . S
C87 O97 1.272 . S
O88 Co84 2.004 . S
O88 C93 1.259 . S
Co89 O90 2.061 . S
Co89 O95 2.052 . S
Co89 O97 2.135 . S
O90 Co89 2.061 . S
O90 C93 1.235 . S
C91 O94 1.238 . S
C91 O95 1.241 . S
C92 O85 1.247 . S
C92 O86 1.261 . S
C93 O88 1.259 . S
C93 O90 1.235 . S
O94 Co84 2.021 . S
O94 C91 1.238 . S
O95 Co89 2.052 . S
O95 C91 1.241 . S
O96 Co84 2.137 . S
O96 C87 1.247 . S
O97 Co84 2.244 . S
O97 C87 1.272 . S
O97 Co89 2.135 . S
Co98 O99 2.216 . S
Co98 O100 2.091 . S
Co98 O102 2.004 . S
Co98 O108 2.021 . S
Co98 O110 2.137 . S
Co98 O111 2.244 . S
O99 Co98 2.216 . S
O99 C106 1.247 . S
O100 Co98 2.091 . S
O100 C106 1.261 . S
C101 O110 1.247 . S
C101 O111 1.272 . S
O102 Co98 2.004 . S
O102 C107 1.259 . S
Co103 O104 2.061 . S
Co103 O109 2.052 . S
Co103 O111 2.135 . S
O104 Co103 2.061 . S
O104 C107 1.235 . S
C105 O108 1.238 . S
C105 O109 1.241 . S
C106 O99 1.247 . S
C106 O100 1.261 . S
C107 O102 1.259 . S
C107 O104 1.235 . S
O108 Co98 2.021 . S
O108 C105 1.238 . S
O109 Co103 2.052 . S
O109 C105 1.241 . S
O110 Co98 2.137 . S
O110 C101 1.247 . S
O111 Co98 2.244 . S
O111 C101 1.272 . S
O111 Co103 2.135 . S
Co112 O113 2.216 . S
Co112 O114 2.091 . S
Co112 O116 2.004 . S
Co112 O122 2.021 . S
Co112 O124 2.137 . S
Co112 O125 2.244 . S
O113 Co112 2.216 . S
O113 C120 1.247 . S
O114 Co112 2.091 . S
O114 C120 1.261 . S
C115 O124 1.247 . S
C115 O125 1.272 . S
O116 Co112 2.004 . S
O116 C121 1.259 . S
Co117 O118 2.061 . S
Co117 O123 2.052 . S
Co117 O125 2.135 . S
O118 Co117 2.061 . S
O118 C121 1.235 . S
C119 O122 1.238 . S
C119 O123 1.241 . S
C120 O113 1.247 . S
C120 O114 1.261 . S
C121 O116 1.259 . S
C121 O118 1.235 . S
O122 Co112 2.021 . S
O122 C119 1.238 . S
O123 Co117 2.052 . S
O123 C119 1.241 . S
O124 Co112 2.137 . S
O124 C115 1.247 . S
O125 Co112 2.244 . S
O125 C115 1.272 . S
O125 Co117 2.135 . S
Co126 O127 2.216 . S
Co126 O128 2.091 . S
Co126 O130 2.004 . S
Co126 O136 2.021 . S
Co126 O138 2.137 . S
Co126 O139 2.244 . S
O127 Co126 2.216 . S
O127 C134 1.247 . S
O128 Co126 2.091 . S
O128 C134 1.261 . S
C129 O138 1.247 . S
C129 O139 1.272 . S
O130 Co126 2.004 . S
O130 C135 1.259 . S
Co131 O132 2.061 . S
Co131 O137 2.052 . S
Co131 O139 2.135 . S
O132 Co131 2.061 . S
O132 C135 1.235 . S
C133 O136 1.238 . S
C133 O137 1.241 . S
C134 O127 1.247 . S
C134 O128 1.261 . S
C135 O130 1.259 . S
C135 O132 1.235 . S
O136 Co126 2.021 . S
O136 C133 1.238 . S
O137 Co131 2.052 . S
O137 C133 1.241 . S
O138 Co126 2.137 . S
O138 C129 1.247 . S
O139 Co126 2.244 . S
O139 C129 1.272 . S
O139 Co131 2.135 . S
Co140 O141 2.216 . S
Co140 O142 2.091 . S
Co140 O144 2.004 . S
Co140 O150 2.021 . S
Co140 O152 2.137 . S
Co140 O153 2.244 . S
O141 Co140 2.216 . S
O141 C148 1.247 . S
O142 Co140 2.091 . S
O142 C148 1.261 . S
C143 O152 1.247 . S
C143 O153 1.272 . S
O144 Co140 2.004 . S
O144 C149 1.259 . S
Co145 O146 2.061 . S
Co145 O151 2.052 . S
Co145 O153 2.135 . S
O146 Co145 2.061 . S
O146 C149 1.235 . S
C147 O150 1.238 . S
C147 O151 1.241 . S
C148 O141 1.247 . S
C148 O142 1.261 . S
C149 O144 1.259 . S
C149 O146 1.235 . S
O150 Co140 2.021 . S
O150 C147 1.238 . S
O151 Co145 2.052 . S
O151 C147 1.241 . S
O152 Co140 2.137 . S
O152 C143 1.247 . S
O153 Co140 2.244 . S
O153 C143 1.272 . S
O153 Co145 2.135 . S
Co154 O155 2.216 . S
Co154 O156 2.091 . S
Co154 O158 2.004 . S
Co154 O164 2.021 . S
Co154 O166 2.137 . S
Co154 O167 2.244 . S
O155 Co154 2.216 . S
O155 C162 1.247 . S
O156 Co154 2.091 . S
O156 C162 1.261 . S
C157 O166 1.247 . S
C157 O167 1.272 . S
O158 Co154 2.004 . S
O158 C163 1.259 . S
Co159 O160 2.061 . S
Co159 O165 2.052 . S
Co159 O167 2.135 . S
O160 Co159 2.061 . S
O160 C163 1.235 . S
C161 O164 1.238 . S
C161 O165 1.241 . S
C162 O155 1.247 . S
C162 O156 1.261 . S
C163 O158 1.259 . S
C163 O160 1.235 . S
O164 Co154 2.021 . S
O164 C161 1.238 . S
O165 Co159 2.052 . S
O165 C161 1.241 . S
O166 Co154 2.137 . S
O166 C157 1.247 . S
O167 Co154 2.244 . S
O167 C157 1.272 . S
O167 Co159 2.135 . S
Co168 O169 2.216 . S
Co168 O170 2.091 . S
Co168 O172 2.004 . S
Co168 O178 2.021 . S
Co168 O180 2.137 . S
Co168 O181 2.244 . S
O169 Co168 2.216 . S
O169 C176 1.247 . S
O170 Co168 2.091 . S
O170 C176 1.261 . S
C171 O180 1.247 . S
C171 O181 1.272 . S
O172 Co168 2.004 . S
O172 C177 1.259 . S
Co173 O174 2.061 . S
Co173 O179 2.052 . S
Co173 O181 2.135 . S
O174 Co173 2.061 . S
O174 C177 1.235 . S
C175 O178 1.238 . S
C175 O179 1.241 . S
C176 O169 1.247 . S
C176 O170 1.261 . S
C177 O172 1.259 . S
C177 O174 1.235 . S
O178 Co168 2.021 . S
O178 C175 1.238 . S
O179 Co173 2.052 . S
O179 C175 1.241 . S
O180 Co168 2.137 . S
O180 C171 1.247 . S
O181 Co168 2.244 . S
O181 C171 1.272 . S
O181 Co173 2.135 . S
Co182 O183 2.216 . S
Co182 O184 2.091 . S
Co182 O186 2.004 . S
Co182 O192 2.021 . S
Co182 O194 2.137 . S
Co182 O195 2.244 . S
O183 Co182 2.216 . S
O183 C190 1.247 . S
O184 Co182 2.091 . S
O184 C190 1.261 . S
C185 O194 1.247 . S
C185 O195 1.272 . S
O186 Co182 2.004 . S
O186 C191 1.259 . S
Co187 O188 2.061 . S
Co187 O193 2.052 . S
Co187 O195 2.135 . S
O188 Co187 2.061 . S
O188 C191 1.235 . S
C189 O192 1.238 . S
C189 O193 1.241 . S
C190 O183 1.247 . S
C190 O184 1.261 . S
C191 O186 1.259 . S
C191 O188 1.235 . S
O192 Co182 2.021 . S
O192 C189 1.238 . S
O193 Co187 2.052 . S
O193 C189 1.241 . S
O194 Co182 2.137 . S
O194 C185 1.247 . S
O195 Co182 2.244 . S
O195 C185 1.272 . S
O195 Co187 2.135 . S
Co196 O197 2.216 . S
Co196 O198 2.091 . S
Co196 O200 2.004 . S
Co196 O206 2.021 . S
Co196 O208 2.137 . S
Co196 O209 2.244 . S
O197 Co196 2.216 . S
O197 C204 1.247 . S
O198 Co196 2.091 . S
O198 C204 1.261 . S
C199 O208 1.247 . S
C199 O209 1.272 . S
O200 Co196 2.004 . S
O200 C205 1.259 . S
Co201 O202 2.061 . S
Co201 O207 2.052 . S
Co201 O209 2.135 . S
O202 Co201 2.061 . S
O202 C205 1.235 . S
C203 O206 1.238 . S
C203 O207 1.241 . S
C204 O197 1.247 . S
C204 O198 1.261 . S
C205 O200 1.259 . S
C205 O202 1.235 . S
O206 Co196 2.021 . S
O206 C203 1.238 . S
O207 Co201 2.052 . S
O207 C203 1.241 . S
O208 Co196 2.137 . S
O208 C199 1.247 . S
O209 Co196 2.244 . S
O209 C199 1.272 . S
O209 Co201 2.135 . S
Co210 O211 2.216 . S
Co210 O212 2.091 . S
Co210 O214 2.004 . S
Co210 O220 2.021 . S
Co210 O222 2.137 . S
Co210 O223 2.244 . S
O211 Co210 2.216 . S
O211 C218 1.247 . S
O212 Co210 2.091 . S
O212 C218 1.261 . S
C213 O222 1.247 . S
C213 O223 1.272 . S
O214 Co210 2.004 . S
O214 C219 1.259 . S
Co215 O216 2.061 . S
Co215 O221 2.052 . S
Co215 O223 2.135 . S
O216 Co215 2.061 . S
O216 C219 1.235 . S
C217 O220 1.238 . S
C217 O221 1.241 . S
C218 O211 1.247 . S
C218 O212 1.261 . S
C219 O214 1.259 . S
C219 O216 1.235 . S
O220 Co210 2.021 . S
O220 C217 1.238 . S
O221 Co215 2.052 . S
O221 C217 1.241 . S
O222 Co210 2.137 . S
O222 C213 1.247 . S
O223 Co210 2.244 . S
O223 C213 1.272 . S
O223 Co215 2.135 . S
Co224 O225 2.216 . S
Co224 O226 2.091 . S
Co224 O228 2.004 . S
Co224 O234 2.021 . S
Co224 O236 2.137 . S
Co224 O237 2.244 . S
O225 Co224 2.216 . S
O225 C232 1.247 . S
O226 Co224 2.091 . S
O226 C232 1.261 . S
C227 O236 1.247 . S
C227 O237 1.272 . S
O228 Co224 2.004 . S
O228 C233 1.259 . S
Co229 O230 2.061 . S
Co229 O235 2.052 . S
Co229 O237 2.135 . S
O230 Co229 2.061 . S
O230 C233 1.235 . S
C231 O234 1.238 . S
C231 O235 1.241 . S
C232 O225 1.247 . S
C232 O226 1.261 . S
C233 O228 1.259 . S
C233 O230 1.235 . S
O234 Co224 2.021 . S
O234 C231 1.238 . S
O235 Co229 2.052 . S
O235 C231 1.241 . S
O236 Co224 2.137 . S
O236 C227 1.247 . S
O237 Co224 2.244 . S
O237 C227 1.272 . S
O237 Co229 2.135 . S
Co238 O239 2.216 . S
Co238 O240 2.091 . S
Co238 O242 2.004 . S
Co238 O248 2.021 . S
Co238 O250 2.137 . S
Co238 O251 2.244 . S
O239 Co238 2.216 . S
O239 C246 1.247 . S
O240 Co238 2.091 . S
O240 C246 1.261 . S
C241 O250 1.247 . S
C241 O251 1.272 . S
O242 Co238 2.004 . S
O242 C247 1.259 . S
Co243 O244 2.061 . S
Co243 O249 2.052 . S
Co243 O251 2.135 . S
O244 Co243 2.061 . S
O244 C247 1.235 . S
C245 O248 1.238 . S
C245 O249 1.241 . S
C246 O239 1.247 . S
C246 O240 1.261 . S
C247 O242 1.259 . S
C247 O244 1.235 . S
O248 Co238 2.021 . S
O248 C245 1.238 . S
O249 Co243 2.052 . S
O249 C245 1.241 . S
O250 Co238 2.137 . S
O250 C241 1.247 . S
O251 Co238 2.244 . S
O251 C241 1.272 . S
O251 Co243 2.135 . S
Co252 O253 2.216 . S
Co252 O254 2.091 . S
Co252 O256 2.004 . S
Co252 O262 2.021 . S
Co252 O264 2.137 . S
Co252 O265 2.244 . S
O253 Co252 2.216 . S
O253 C260 1.247 . S
O254 Co252 2.091 . S
O254 C260 1.261 . S
C255 O264 1.247 . S
C255 O265 1.272 . S
O256 Co252 2.004 . S
O256 C261 1.259 . S
Co257 O258 2.061 . S
Co257 O263 2.052 . S
Co257 O265 2.135 . S
O258 Co257 2.061 . S
O258 C261 1.235 . S
C259 O262 1.238 . S
C259 O263 1.241 . S
C260 O253 1.247 . S
C260 O254 1.261 . S
C261 O256 1.259 . S
C261 O258 1.235 . S
O262 Co252 2.021 . S
O262 C259 1.238 . S
O263 Co257 2.052 . S
O263 C259 1.241 . S
O264 Co252 2.137 . S
O264 C255 1.247 . S
O265 Co252 2.244 . S
O265 C255 1.272 . S
O265 Co257 2.135 . S
Co266 O267 2.216 . S
Co266 O268 2.091 . S
Co266 O270 2.004 . S
Co266 O276 2.021 . S
Co266 O278 2.137 . S
Co266 O279 2.244 . S
O267 Co266 2.216 . S
O267 C274 1.247 . S
O268 Co266 2.091 . S
O268 C274 1.261 . S
C269 O278 1.247 . S
C269 O279 1.272 . S
O270 Co266 2.004 . S
O270 C275 1.259 . S
Co271 O272 2.061 . S
Co271 O277 2.052 . S
Co271 O279 2.135 . S
O272 Co271 2.061 . S
O272 C275 1.235 . S
C273 O276 1.238 . S
C273 O277 1.241 . S
C274 O267 1.247 . S
C274 O268 1.261 . S
C275 O270 1.259 . S
C275 O272 1.235 . S
O276 Co266 2.021 . S
O276 C273 1.238 . S
O277 Co271 2.052 . S
O277 C273 1.241 . S
O278 Co266 2.137 . S
O278 C269 1.247 . S
O279 Co266 2.244 . S
O279 C269 1.272 . S
O279 Co271 2.135 . S
Co280 O281 2.216 . S
Co280 O282 2.091 . S
Co280 O284 2.004 . S
Co280 O290 2.021 . S
Co280 O292 2.137 . S
Co280 O293 2.244 . S
O281 Co280 2.216 . S
O281 C288 1.247 . S
O282 Co280 2.091 . S
O282 C288 1.261 . S
C283 O292 1.247 . S
C283 O293 1.272 . S
O284 Co280 2.004 . S
O284 C289 1.259 . S
Co285 O286 2.061 . S
Co285 O291 2.052 . S
Co285 O293 2.135 . S
O286 Co285 2.061 . S
O286 C289 1.235 . S
C287 O290 1.238 . S
C287 O291 1.241 . S
C288 O281 1.247 . S
C288 O282 1.261 . S
C289 O284 1.259 . S
C289 O286 1.235 . S
O290 Co280 2.021 . S
O290 C287 1.238 . S
O291 Co285 2.052 . S
O291 C287 1.241 . S
O292 Co280 2.137 . S
O292 C283 1.247 . S
O293 Co280 2.244 . S
O293 C283 1.272 . S
O293 Co285 2.135 . S
Co294 O295 2.216 . S
Co294 O296 2.091 . S
Co294 O298 2.004 . S
Co294 O304 2.021 . S
Co294 O306 2.137 . S
Co294 O307 2.244 . S
O295 Co294 2.216 . S
O295 C302 1.247 . S
O296 Co294 2.091 . S
O296 C302 1.261 . S
C297 O306 1.247 . S
C297 O307 1.272 . S
O298 Co294 2.004 . S
O298 C303 1.259 . S
Co299 O300 2.061 . S
Co299 O305 2.052 . S
Co299 O307 2.135 . S
O300 Co299 2.061 . S
O300 C303 1.235 . S
C301 O304 1.238 . S
C301 O305 1.241 . S
C302 O295 1.247 . S
C302 O296 1.261 . S
C303 O298 1.259 . S
C303 O300 1.235 . S
O304 Co294 2.021 . S
O304 C301 1.238 . S
O305 Co299 2.052 . S
O305 C301 1.241 . S
O306 Co294 2.137 . S
O306 C297 1.247 . S
O307 Co294 2.244 . S
O307 C297 1.272 . S
O307 Co299 2.135 . S
Co308 O309 2.216 . S
Co308 O310 2.091 . S
Co308 O312 2.004 . S
Co308 O318 2.021 . S
Co308 O320 2.137 . S
Co308 O321 2.244 . S
O309 Co308 2.216 . S
O309 C316 1.247 . S
O310 Co308 2.091 . S
O310 C316 1.261 . S
C311 O320 1.247 . S
C311 O321 1.272 . S
O312 Co308 2.004 . S
O312 C317 1.259 . S
Co313 O314 2.061 . S
Co313 O319 2.052 . S
Co313 O321 2.135 . S
O314 Co313 2.061 . S
O314 C317 1.235 . S
C315 O318 1.238 . S
C315 O319 1.241 . S
C316 O309 1.247 . S
C316 O310 1.261 . S
C317 O312 1.259 . S
C317 O314 1.235 . S
O318 Co308 2.021 . S
O318 C315 1.238 . S
O319 Co313 2.052 . S
O319 C315 1.241 . S
O320 Co308 2.137 . S
O320 C311 1.247 . S
O321 Co308 2.244 . S
O321 C311 1.272 . S
O321 Co313 2.135 . S
Co322 O323 2.216 . S
Co322 O324 2.091 . S
Co322 O326 2.004 . S
Co322 O332 2.021 . S
Co322 O334 2.137 . S
Co322 O335 2.244 . S
O323 Co322 2.216 . S
O323 C330 1.247 . S
O324 Co322 2.091 . S
O324 C330 1.261 . S
C325 O334 1.247 . S
C325 O335 1.272 . S
O326 Co322 2.004 . S
O326 C331 1.259 . S
Co327 O328 2.061 . S
Co327 O333 2.052 . S
Co327 O335 2.135 . S
O328 Co327 2.061 . S
O328 C331 1.235 . S
C329 O332 1.238 . S
C329 O333 1.241 . S
C330 O323 1.247 . S
C330 O324 1.261 . S
C331 O326 1.259 . S
C331 O328 1.235 . S
O332 Co322 2.021 . S
O332 C329 1.238 . S
O333 Co327 2.052 . S
O333 C329 1.241 . S
O334 Co322 2.137 . S
O334 C325 1.247 . S
O335 Co322 2.244 . S
O335 C325 1.272 . S
O335 Co327 2.135 . S
H336 C342 0.930 . S
H337 C345 0.930 . S
H338 C346 0.930 . S
H339 C347 0.930 . S
H340 C350 0.930 . S
H341 C351 0.930 . S
C342 H336 0.930 . S
C342 C343 1.355 . S
C342 C344 1.415 . S
C343 C342 1.355 . S
C343 C345 1.419 . S
C344 C342 1.415 . S
C344 C349 1.425 . S
C344 C351 1.409 . S
C345 H337 0.930 . S
C345 C343 1.419 . S
C345 C346 1.362 . S
C346 H338 0.930 . S
C346 C345 1.362 . S
C346 C349 1.409 . S
C347 H339 0.930 . S
C347 C348 1.355 . S
C347 C349 1.415 . S
C348 C347 1.355 . S
C348 C350 1.419 . S
C349 C344 1.425 . S
C349 C346 1.409 . S
C349 C347 1.415 . S
C350 H340 0.930 . S
C350 C348 1.419 . S
C350 C351 1.362 . S
C351 H341 0.930 . S
C351 C344 1.409 . S
C351 C350 1.362 . S
H352 C358 0.930 . S
H353 C361 0.930 . S
H354 C362 0.930 . S
H355 C363 0.930 . S
H356 C366 0.930 . S
H357 C367 0.930 . S
C358 H352 0.930 . S
C358 C359 1.355 . S
C358 C360 1.415 . S
C359 C358 1.355 . S
C359 C361 1.419 . S
C360 C358 1.415 . S
C360 C365 1.425 . S
C360 C367 1.409 1_655 S
C361 H353 0.930 . S
C361 C359 1.419 . S
C361 C362 1.362 . S
C362 H354 0.930 . S
C362 C361 1.362 . S
C362 C365 1.409 . S
C363 H355 0.930 . S
C363 C364 1.355 . S
C363 C365 1.415 1_455 S
C364 C363 1.355 . S
C364 C366 1.419 . S
C365 C360 1.425 . S
C365 C362 1.409 . S
C365 C363 1.415 1_655 S
C366 H356 0.930 . S
C366 C364 1.419 . S
C366 C367 1.362 . S
C367 H357 0.930 . S
C367 C360 1.409 1_455 S
C367 C366 1.362 . S
H368 C374 0.930 . S
H369 C377 0.930 . S
H370 C378 0.930 . S
H371 C379 0.930 . S
H372 C382 0.930 . S
H373 C383 0.930 . S
C374 H368 0.930 . S
C374 C375 1.355 . S
C374 C376 1.415 . S
C375 C374 1.355 . S
C375 C377 1.419 . S
C376 C374 1.415 . S
C376 C381 1.425 . S
C376 C383 1.409 . S
C377 H369 0.930 . S
C377 C375 1.419 . S
C377 C378 1.362 . S
C378 H370 0.930 . S
C378 C377 1.362 . S
C378 C381 1.409 . S
C379 H371 0.930 . S
C379 C380 1.355 . S
C379 C381 1.415 . S
C380 C379 1.355 . S
C380 C382 1.419 . S
C381 C376 1.425 . S
C381 C378 1.409 . S
C381 C379 1.415 . S
C382 H372 0.930 . S
C382 C380 1.419 . S
C382 C383 1.362 . S
C383 H373 0.930 . S
C383 C376 1.409 . S
C383 C382 1.362 . S
H384 C390 0.930 . S
H385 C393 0.930 . S
H386 C394 0.930 . S
H387 C395 0.930 . S
H388 C398 0.930 . S
H389 C399 0.930 1_455 S
C390 H384 0.930 . S
C390 C391 1.355 . S
C390 C392 1.415 . S
C391 C390 1.355 . S
C391 C393 1.419 . S
C392 C390 1.415 . S
C392 C397 1.425 . S
C392 C399 1.409 1_455 S
C393 H385 0.930 . S
C393 C391 1.419 . S
C393 C394 1.362 . S
C394 H386 0.930 . S
C394 C393 1.362 . S
C394 C397 1.409 . S
C395 H387 0.930 . S
C395 C396 1.355 . S
C395 C397 1.415 1_655 S
C396 C395 1.355 . S
C396 C398 1.419 . S
C397 C392 1.425 . S
C397 C394 1.409 . S
C397 C395 1.415 1_455 S
C398 H388 0.930 . S
C398 C396 1.419 . S
C398 C399 1.362 . S
C399 H389 0.930 1_655 S
C399 C392 1.409 1_655 S
C399 C398 1.362 . S
H400 C406 0.930 . S
H401 C409 0.930 . S
H402 C410 0.930 . S
H403 C411 0.930 . S
H404 C414 0.930 . S
H405 C415 0.930 . S
C406 H400 0.930 . S
C406 C407 1.355 . S
C406 C408 1.415 . S
C407 C406 1.355 . S
C407 C409 1.419 . S
C408 C406 1.415 . S
C408 C413 1.425 . S
C408 C415 1.409 . S
C409 H401 0.930 . S
C409 C407 1.419 . S
C409 C410 1.362 . S
C410 H402 0.930 . S
C410 C409 1.362 . S
C410 C413 1.409 . S
C411 H403 0.930 . S
C411 C412 1.355 . S
C411 C413 1.415 . S
C412 C411 1.355 . S
C412 C414 1.419 . S
C413 C408 1.425 . S
C413 C410 1.409 . S
C413 C411 1.415 . S
C414 H404 0.930 . S
C414 C412 1.419 . S
C414 C415 1.362 . S
C415 H405 0.930 . S
C415 C408 1.409 . S
C415 C414 1.362 . S
H416 C422 0.930 . S
H417 C425 0.930 . S
H418 C426 0.930 . S
H419 C427 0.930 . S
H420 C430 0.930 . S
H421 C431 0.930 . S
C422 H416 0.930 . S
C422 C423 1.355 . S
C422 C424 1.409 1_655 S
C423 C422 1.355 . S
C423 C425 1.419 . S
C424 C422 1.409 1_455 S
C424 C429 1.427 . S
C424 C431 1.413 . S
C425 H417 0.930 . S
C425 C423 1.419 . S
C425 C426 1.362 . S
C426 H418 0.930 . S
C426 C425 1.362 . S
C426 C429 1.409 1_655 S
C427 H419 0.930 . S
C427 C428 1.355 . S
C427 C429 1.415 . S
C428 C427 1.355 . S
C428 C430 1.419 . S
C429 C424 1.427 . S
C429 C426 1.409 1_455 S
C429 C427 1.415 . S
C430 H420 0.930 . S
C430 C428 1.419 . S
C430 C431 1.362 . S
C431 H421 0.930 . S
C431 C424 1.413 . S
C431 C430 1.362 . S
H432 C438 0.930 . S
H433 C441 0.930 . S
H434 C442 0.930 . S
H435 C443 0.930 . S
H436 C446 0.930 . S
H437 C447 0.930 . S
C438 H432 0.930 . S
C438 C439 1.355 . S
C438 C440 1.415 . S
C439 C438 1.355 . S
C439 C441 1.419 . S
C440 C438 1.415 . S
C440 C445 1.425 . S
C440 C447 1.409 . S
C441 H433 0.930 . S
C441 C439 1.419 . S
C441 C442 1.362 . S
C442 H434 0.930 . S
C442 C441 1.362 . S
C442 C445 1.409 . S
C443 H435 0.930 . S
C443 C444 1.355 . S
C443 C445 1.415 . S
C444 C443 1.355 . S
C444 C446 1.419 . S
C445 C440 1.425 . S
C445 C442 1.409 . S
C445 C443 1.415 . S
C446 H436 0.930 . S
C446 C444 1.419 . S
C446 C447 1.362 . S
C447 H437 0.930 . S
C447 C440 1.409 . S
C447 C446 1.362 . S
H448 C454 0.930 . S
H449 C457 0.930 . S
H450 C458 0.930 . S
H451 C459 0.930 . S
H452 C462 0.930 . S
H453 C463 0.930 . S
C454 H448 0.930 . S
C454 C455 1.355 . S
C454 C456 1.415 . S
C455 C454 1.355 . S
C455 C457 1.419 . S
C456 C454 1.415 . S
C456 C461 1.425 1_655 S
C456 C463 1.409 1_655 S
C457 H449 0.930 . S
C457 C455 1.419 . S
C457 C458 1.362 . S
C458 H450 0.930 . S
C458 C457 1.362 . S
C458 C461 1.409 1_655 S
C459 H451 0.930 . S
C459 C460 1.355 . S
C459 C461 1.415 . S
C460 C459 1.355 . S
C460 C462 1.419 . S
C461 C456 1.425 1_455 S
C461 C458 1.409 1_455 S
C461 C459 1.415 . S
C462 H452 0.930 . S
C462 C460 1.419 . S
C462 C463 1.362 . S
C463 H453 0.930 . S
C463 C456 1.409 1_455 S
C463 C462 1.362 . S
H464 C470 0.930 . S
H465 C473 0.930 . S
H466 C474 0.930 . S
H467 C475 0.930 . S
H468 C478 0.930 . S
H469 C479 0.930 . S
C470 H464 0.930 . S
C470 C471 1.355 . S
C470 C472 1.415 . S
C471 C470 1.355 . S
C471 C473 1.419 . S
C472 C470 1.415 . S
C472 C477 1.425 . S
C472 C479 1.409 . S
C473 H465 0.930 . S
C473 C471 1.419 . S
C473 C474 1.362 . S
C474 H466 0.930 . S
C474 C473 1.362 . S
C474 C477 1.409 . S
C475 H467 0.930 . S
C475 C476 1.355 . S
C475 C477 1.415 . S
C476 C475 1.355 . S
C476 C478 1.419 . S
C477 C472 1.425 . S
C477 C474 1.409 . S
C477 C475 1.415 . S
C478 H468 0.930 . S
C478 C476 1.419 . S
C478 C479 1.362 . S
C479 H469 0.930 . S
C479 C472 1.409 . S
C479 C478 1.362 . S
H480 C486 0.930 . S
H481 C489 0.930 . S
H482 C490 0.930 . S
H483 C491 0.930 . S
H484 C494 0.930 . S
H485 C495 0.930 . S
C486 H480 0.930 . S
C486 C487 1.355 . S
C486 C488 1.415 . S
C487 C486 1.355 . S
C487 C489 1.419 . S
C488 C486 1.415 . S
C488 C493 1.425 1_556 S
C488 C495 1.409 1_556 S
C489 H481 0.930 . S
C489 C487 1.419 . S
C489 C490 1.362 . S
C490 H482 0.930 . S
C490 C489 1.362 . S
C490 C493 1.409 1_556 S
C491 H483 0.930 . S
C491 C492 1.355 . S
C491 C493 1.415 . S
C492 C491 1.355 . S
C492 C494 1.419 . S
C493 C488 1.425 1_554 S
C493 C490 1.409 1_554 S
C493 C491 1.415 . S
C494 H484 0.930 . S
C494 C492 1.419 . S
C494 C495 1.362 . S
C495 H485 0.930 . S
C495 C488 1.409 1_554 S
C495 C494 1.362 . S
H496 C502 0.930 . S
H497 C505 0.930 . S
H498 C506 0.930 . S
H499 C507 0.930 . S
H500 C510 0.930 . S
H501 C511 0.930 . S
C502 H496 0.930 . S
C502 C503 1.355 . S
C502 C504 1.415 . S
C503 C502 1.355 . S
C503 C505 1.419 . S
C504 C502 1.415 . S
C504 C509 1.425 . S
C504 C511 1.409 . S
C505 H497 0.930 . S
C505 C503 1.419 . S
C505 C506 1.362 . S
C506 H498 0.930 . S
C506 C505 1.362 . S
C506 C509 1.409 . S
C507 H499 0.930 . S
C507 C508 1.355 . S
C507 C509 1.415 . S
C508 C507 1.355 . S
C508 C510 1.419 . S
C509 C504 1.425 . S
C509 C506 1.409 . S
C509 C507 1.415 . S
C510 H500 0.930 . S
C510 C508 1.419 . S
C510 C511 1.362 . S
C511 H501 0.930 . S
C511 C504 1.409 . S
C511 C510 1.362 . S
H512 C518 0.930 . S
H513 C521 0.930 . S
H514 C522 0.930 . S
H515 C523 0.930 . S
H516 C526 0.930 . S
H517 C527 0.930 . S
C518 H512 0.930 . S
C518 C519 1.355 . S
C518 C520 1.415 . S
C519 C518 1.355 . S
C519 C521 1.419 . S
C520 C518 1.415 . S
C520 C525 1.425 1_554 S
C520 C527 1.409 1_554 S
C521 H513 0.930 . S
C521 C519 1.419 . S
C521 C522 1.362 . S
C522 H514 0.930 . S
C522 C521 1.362 . S
C522 C525 1.409 1_554 S
C523 H515 0.930 . S
C523 C524 1.355 . S
C523 C525 1.415 . S
C524 C523 1.355 . S
C524 C526 1.419 . S
C525 C520 1.425 1_556 S
C525 C522 1.409 1_556 S
C525 C523 1.415 . S
C526 H516 0.930 . S
C526 C524 1.419 . S
C526 C527 1.362 . S
C527 H517 0.930 . S
C527 C520 1.409 1_556 S
C527 C526 1.362 . S
H528 C534 0.930 . S
H529 C537 0.930 . S
H530 C538 0.930 . S
H531 C539 0.930 . S
H532 C542 0.930 . S
H533 C543 0.930 . S
C534 H528 0.930 . S
C534 C535 1.355 . S
C534 C536 1.415 . S
C535 C534 1.355 . S
C535 C537 1.419 . S
C536 C534 1.415 . S
C536 C541 1.425 . S
C536 C543 1.409 . S
C537 H529 0.930 . S
C537 C535 1.419 . S
C537 C538 1.362 . S
C538 H530 0.930 . S
C538 C537 1.362 . S
C538 C541 1.409 . S
C539 H531 0.930 . S
C539 C540 1.355 . S
C539 C541 1.415 . S
C540 C539 1.355 . S
C540 C542 1.419 . S
C541 C536 1.425 . S
C541 C538 1.409 . S
C541 C539 1.415 . S
C542 H532 0.930 . S
C542 C540 1.419 . S
C542 C543 1.362 . S
C543 H533 0.930 . S
C543 C536 1.409 . S
C543 C542 1.362 . S
H544 C550 0.930 . S
H545 C553 0.930 . S
H546 C554 0.930 . S
H547 C555 0.930 . S
H548 C558 0.930 . S
H549 C559 0.930 . S
C550 H544 0.930 . S
C550 C551 1.355 . S
C550 C552 1.415 . S
C551 C550 1.355 . S
C551 C553 1.419 . S
C552 C550 1.415 . S
C552 C557 1.437 . S
C552 C559 1.409 1_554 S
C553 H545 0.930 . S
C553 C551 1.419 . S
C553 C554 1.362 . S
C554 H546 0.930 . S
C554 C553 1.362 . S
C554 C557 1.431 . S
C555 H547 0.930 . S
C555 C556 1.355 . S
C555 C557 1.383 1_556 S
C556 C555 1.355 . S
C556 C558 1.419 . S
C557 C552 1.437 . S
C557 C554 1.431 . S
C557 C555 1.383 1_554 S
C558 H548 0.930 . S
C558 C556 1.419 . S
C558 C559 1.362 . S
C559 H549 0.930 . S
C559 C552 1.409 1_556 S
C559 C558 1.362 . S
H560 C566 0.930 . S
H561 C569 0.930 . S
H562 C570 0.930 . S
H563 C571 0.930 . S
H564 C574 0.930 . S
H565 C575 0.930 . S
C566 H560 0.930 . S
C566 C567 1.355 . S
C566 C568 1.415 . S
C567 C566 1.355 . S
C567 C569 1.419 . S
C568 C566 1.415 . S
C568 C573 1.425 . S
C568 C575 1.409 . S
C569 H561 0.930 . S
C569 C567 1.419 . S
C569 C570 1.362 . S
C570 H562 0.930 . S
C570 C569 1.362 . S
C570 C573 1.409 . S
C571 H563 0.930 . S
C571 C572 1.355 . S
C571 C573 1.415 . S
C572 C571 1.355 . S
C572 C574 1.419 . S
C573 C568 1.425 . S
C573 C570 1.409 . S
C573 C571 1.415 . S
C574 H564 0.930 . S
C574 C572 1.419 . S
C574 C575 1.362 . S
C575 H565 0.930 . S
C575 C568 1.409 . S
C575 C574 1.362 . S
H576 C582 0.930 . S
H577 C585 0.930 . S
H578 C586 0.930 . S
H579 C587 0.930 . S
H580 C590 0.930 . S
H581 C591 0.930 . S
C582 H576 0.930 . S
C582 C583 1.355 . S
C582 C584 1.415 . S
C583 C582 1.355 . S
C583 C585 1.419 . S
C584 C582 1.415 . S
C584 C589 1.418 1_554 S
C584 C591 1.409 1_554 S
C585 H577 0.930 . S
C585 C583 1.419 . S
C585 C586 1.362 . S
C586 H578 0.930 . S
C586 C585 1.362 . S
C586 C589 1.397 1_554 S
C587 H579 0.930 . S
C587 C588 1.355 . S
C587 C589 1.434 . S
C588 C587 1.355 . S
C588 C590 1.419 . S
C589 C584 1.418 1_556 S
C589 C586 1.397 1_556 S
C589 C587 1.434 . S
C590 H580 0.930 . S
C590 C588 1.419 . S
C590 C591 1.362 . S
C591 H581 0.930 . S
C591 C584 1.409 1_556 S
C591 C590 1.362 . S
H592 C598 0.930 . S
H593 C601 0.930 . S
H594 C602 0.930 . S
H595 C603 0.930 . S
H596 C606 0.930 . S
H597 C607 0.930 . S
C598 H592 0.930 . S
C598 C599 1.355 . S
C598 C600 1.415 . S
C599 C598 1.355 . S
C599 C601 1.419 . S
C600 C598 1.415 . S
C600 C605 1.425 . S
C600 C607 1.409 . S
C601 H593 0.930 . S
C601 C599 1.419 . S
C601 C602 1.362 . S
C602 H594 0.930 . S
C602 C601 1.362 . S
C602 C605 1.409 . S
C603 H595 0.930 . S
C603 C604 1.355 . S
C603 C605 1.415 . S
C604 C603 1.355 . S
C604 C606 1.419 . S
C605 C600 1.425 . S
C605 C602 1.409 . S
C605 C603 1.415 . S
C606 H596 0.930 . S
C606 C604 1.419 . S
C606 C607 1.362 . S
C607 H597 0.930 . S
C607 C600 1.409 . S
C607 C606 1.362 . S
H608 C614 0.930 . S
H609 C617 0.930 . S
H610 C618 0.930 . S
H611 C619 0.930 . S
H612 C622 0.930 . S
H613 C623 0.930 . S
C614 H608 0.930 . S
C614 C615 1.355 . S
C614 C616 1.415 . S
C615 C614 1.355 . S
C615 C617 1.419 . S
C616 C614 1.415 . S
C616 C621 1.425 . S
C616 C623 1.409 . S
C617 H609 0.930 . S
C617 C615 1.419 . S
C617 C618 1.362 . S
C618 H610 0.930 . S
C618 C617 1.362 . S
C618 C621 1.409 . S
C619 H611 0.930 . S
C619 C620 1.355 . S
C619 C621 1.415 . S
C620 C619 1.355 . S
C620 C622 1.419 . S
C621 C616 1.425 . S
C621 C618 1.409 . S
C621 C619 1.415 . S
C622 H612 0.930 . S
C622 C620 1.419 . S
C622 C623 1.362 . S
C623 H613 0.930 . S
C623 C616 1.409 . S
C623 C622 1.362 . S
H624 C630 0.930 . S
H625 C633 0.930 . S
H626 C634 0.930 . S
H627 C635 0.930 . S
H628 C638 0.930 . S
H629 C639 0.930 . S
C630 H624 0.930 . S
C630 C631 1.355 . S
C630 C632 1.415 . S
C631 C630 1.355 . S
C631 C633 1.419 . S
C632 C630 1.415 . S
C632 C637 1.414 1_565 S
C632 C639 1.409 1_565 S
C633 H625 0.930 . S
C633 C631 1.419 . S
C633 C634 1.362 . S
C634 H626 0.930 . S
C634 C633 1.362 . S
C634 C637 1.384 1_565 S
C635 H627 0.930 . S
C635 C636 1.355 . S
C635 C637 1.451 . S
C636 C635 1.355 . S
C636 C638 1.419 . S
C637 C632 1.414 1_545 S
C637 C634 1.384 1_545 S
C637 C635 1.451 . S
C638 H628 0.930 . S
C638 C636 1.419 . S
C638 C639 1.362 . S
C639 H629 0.930 . S
C639 C632 1.409 1_545 S
C639 C638 1.362 . S
H640 C646 0.930 . S
H641 C649 0.930 . S
H642 C650 0.930 . S
H643 C651 0.930 . S
H644 C654 0.930 . S
H645 C655 0.930 . S
C646 H640 0.930 . S
C646 C647 1.355 . S
C646 C648 1.415 . S
C647 C646 1.355 . S
C647 C649 1.419 . S
C648 C646 1.415 . S
C648 C653 1.425 . S
C648 C655 1.409 . S
C649 H641 0.930 . S
C649 C647 1.419 . S
C649 C650 1.362 . S
C650 H642 0.930 . S
C650 C649 1.362 . S
C650 C653 1.409 . S
C651 H643 0.930 . S
C651 C652 1.355 . S
C651 C653 1.415 . S
C652 C651 1.355 . S
C652 C654 1.419 . S
C653 C648 1.425 . S
C653 C650 1.409 . S
C653 C651 1.415 . S
C654 H644 0.930 . S
C654 C652 1.419 . S
C654 C655 1.362 . S
C655 H645 0.930 . S
C655 C648 1.409 . S
C655 C654 1.362 . S
H656 C662 0.930 . S
H657 C665 0.930 . S
H658 C666 0.930 . S
H659 C667 0.930 . S
H660 C670 0.930 . S
H661 C671 0.930 . S
C662 H656 0.930 . S
C662 C663 1.355 . S
C662 C664 1.451 . S
C663 C662 1.355 . S
C663 C665 1.419 . S
C664 C662 1.451 . S
C664 C669 1.412 1_565 S
C664 C671 1.386 1_565 S
C665 H657 0.930 . S
C665 C663 1.419 . S
C665 C666 1.362 . S
C666 H658 0.930 . S
C666 C665 1.362 . S
C666 C669 1.409 1_565 S
C667 H659 0.930 . S
C667 C668 1.355 . S
C667 C669 1.415 . S
C668 C667 1.355 . S
C668 C670 1.419 . S
C669 C664 1.412 1_545 S
C669 C666 1.409 1_545 S
C669 C667 1.415 . S
C670 H660 0.930 . S
C670 C668 1.419 . S
C670 C671 1.362 . S
C671 H661 0.930 . S
C671 C664 1.386 1_545 S
C671 C670 1.362 . S
H672 C678 0.930 . S
H673 C681 0.930 . S
H674 C682 0.930 . S
H675 C683 0.930 . S
H676 C686 0.930 . S
H677 C687 0.930 . S
C678 H672 0.930 . S
C678 C679 1.355 . S
C678 C680 1.415 . S
C679 C678 1.355 . S
C679 C681 1.419 . S
C680 C678 1.415 . S
C680 C685 1.425 . S
C680 C687 1.409 . S
C681 H673 0.930 . S
C681 C679 1.419 . S
C681 C682 1.362 . S
C682 H674 0.930 . S
C682 C681 1.362 . S
C682 C685 1.409 . S
C683 H675 0.930 . S
C683 C684 1.355 . S
C683 C685 1.415 . S
C684 C683 1.355 . S
C684 C686 1.419 . S
C685 C680 1.425 . S
C685 C682 1.409 . S
C685 C683 1.415 . S
C686 H676 0.930 . S
C686 C684 1.419 . S
C686 C687 1.362 . S
C687 H677 0.930 . S
C687 C680 1.409 . S
C687 C686 1.362 . S
H688 C694 0.930 . S
H689 C697 0.930 . S
H690 C698 0.930 . S
H691 C699 0.930 . S
H692 C702 0.930 . S
H693 C703 0.930 . S
C694 H688 0.930 . S
C694 C695 1.355 . S
C694 C696 1.415 . S
C695 C694 1.355 . S
C695 C697 1.419 . S
C696 C694 1.415 . S
C696 C701 1.425 1_565 S
C696 C703 1.409 1_565 S
C697 H689 0.930 . S
C697 C695 1.419 . S
C697 C698 1.362 . S
C698 H690 0.930 . S
C698 C697 1.362 . S
C698 C701 1.409 1_565 S
C699 H691 0.930 . S
C699 C700 1.355 . S
C699 C701 1.415 . S
C700 C699 1.355 . S
C700 C702 1.419 . S
C701 C696 1.425 1_545 S
C701 C698 1.409 1_545 S
C701 C699 1.415 . S
C702 H692 0.930 . S
C702 C700 1.419 . S
C702 C703 1.362 . S
C703 H693 0.930 . S
C703 C696 1.409 1_545 S
C703 C702 1.362 . S
H704 C710 0.930 . S
H705 C713 0.930 . S
H706 C714 0.930 . S
H707 C715 0.930 . S
H708 C718 0.930 . S
H709 C719 0.930 . S
C710 H704 0.930 . S
C710 C711 1.355 . S
C710 C712 1.415 . S
C711 C710 1.355 . S
C711 C713 1.419 . S
C712 C710 1.415 . S
C712 C717 1.418 1_545 S
C712 C719 1.409 1_545 S
C713 H705 0.930 . S
C713 C711 1.419 . S
C713 C714 1.362 . S
C714 H706 0.930 . S
C714 C713 1.362 . S
C714 C717 1.392 1_545 S
C715 H707 0.930 . S
C715 C716 1.355 . S
C715 C717 1.439 . S
C716 C715 1.355 . S
C716 C718 1.419 . S
C717 C712 1.418 1_565 S
C717 C714 1.392 1_565 S
C717 C715 1.439 . S
C718 H708 0.930 . S
C718 C716 1.419 . S
C718 C719 1.362 . S
C719 H709 0.930 . S
C719 C712 1.409 1_565 S
C719 C718 1.362 . S
H720 C726 0.930 . S
H721 C729 0.930 . S
H722 C730 0.930 . S
H723 C731 0.930 . S
H724 C734 0.930 . S
H725 C735 0.930 . S
C726 H720 0.930 . S
C726 C727 1.355 . S
C726 C728 1.415 . S
C727 C726 1.355 . S
C727 C729 1.419 . S
C728 C726 1.415 . S
C728 C733 1.425 . S
C728 C735 1.409 . S
C729 H721 0.930 . S
C729 C727 1.419 . S
C729 C730 1.362 . S
C730 H722 0.930 . S
C730 C729 1.362 . S
C730 C733 1.409 . S
C731 H723 0.930 . S
C731 C732 1.355 . S
C731 C733 1.415 . S
C732 C731 1.355 . S
C732 C734 1.419 . S
C733 C728 1.425 . S
C733 C730 1.409 . S
C733 C731 1.415 . S
C734 H724 0.930 . S
C734 C732 1.419 . S
C734 C735 1.362 . S
C735 H725 0.930 . S
C735 C728 1.409 . S
C735 C734 1.362 . S
H736 C742 0.930 . S
H737 C745 0.930 . S
H738 C746 0.930 . S
H739 C747 0.930 . S
H740 C750 0.930 . S
H741 C751 0.930 . S
C742 H736 0.930 . S
C742 C743 1.355 . S
C742 C744 1.415 . S
C743 C742 1.355 . S
C743 C745 1.419 . S
C744 C742 1.415 . S
C744 C749 1.425 . S
C744 C751 1.409 . S
C745 H737 0.930 . S
C745 C743 1.419 . S
C745 C746 1.362 . S
C746 H738 0.930 . S
C746 C745 1.362 . S
C746 C749 1.409 . S
C747 H739 0.930 . S
C747 C748 1.355 . S
C747 C749 1.415 . S
C748 C747 1.355 . S
C748 C750 1.419 . S
C749 C744 1.425 . S
C749 C746 1.409 . S
C749 C747 1.415 . S
C750 H740 0.930 . S
C750 C748 1.419 . S
C750 C751 1.362 . S
C751 H741 0.930 . S
C751 C744 1.409 . S
C751 C750 1.362 . S
H752 C758 0.930 . S
H753 C761 0.930 . S
H754 C762 0.930 . S
H755 C763 0.930 . S
H756 C766 0.930 . S
H757 C767 0.930 . S
C758 H752 0.930 . S
C758 C759 1.355 . S
C758 C760 1.415 . S
C759 C758 1.355 . S
C759 C761 1.419 . S
C760 C758 1.415 . S
C760 C765 1.425 . S
C760 C767 1.409 . S
C761 H753 0.930 . S
C761 C759 1.419 . S
C761 C762 1.362 . S
C762 H754 0.930 . S
C762 C761 1.362 . S
C762 C765 1.409 . S
C763 H755 0.930 . S
C763 C764 1.355 . S
C763 C765 1.415 . S
C764 C763 1.355 . S
C764 C766 1.419 . S
C765 C760 1.425 . S
C765 C762 1.409 . S
C765 C763 1.415 . S
C766 H756 0.930 . S
C766 C764 1.419 . S
C766 C767 1.362 . S
C767 H757 0.930 . S
C767 C760 1.409 . S
C767 C766 1.362 . S
H768 C774 0.930 . S
H769 C777 0.930 . S
H770 C778 0.930 . S
H771 C779 0.930 . S
H772 C782 0.930 . S
H773 C783 0.930 . S
C774 H768 0.930 . S
C774 C775 1.355 . S
C774 C776 1.415 . S
C775 C774 1.355 . S
C775 C777 1.419 . S
C776 C774 1.415 . S
C776 C781 1.425 . S
C776 C783 1.409 . S
C777 H769 0.930 . S
C777 C775 1.419 . S
C777 C778 1.362 . S
C778 H770 0.930 . S
C778 C777 1.362 . S
C778 C781 1.409 . S
C779 H771 0.930 . S
C779 C780 1.355 . S
C779 C781 1.415 . S
C780 C779 1.355 . S
C780 C782 1.419 . S
C781 C776 1.425 . S
C781 C778 1.409 . S
C781 C779 1.415 . S
C782 H772 0.930 . S
C782 C780 1.419 . S
C782 C783 1.362 . S
C783 H773 0.930 . S
C783 C776 1.409 . S
C783 C782 1.362 . S
H784 C790 0.930 . S
H785 C793 0.930 . S
H786 C794 0.930 . S
H787 C795 0.930 . S
H788 C798 0.930 . S
H789 C799 0.930 . S
C790 H784 0.930 . S
C790 C791 1.355 . S
C790 C792 1.415 . S
C791 C790 1.355 . S
C791 C793 1.419 . S
C792 C790 1.415 . S
C792 C797 1.425 . S
C792 C799 1.409 . S
C793 H785 0.930 . S
C793 C791 1.419 . S
C793 C794 1.362 . S
C794 H786 0.930 . S
C794 C793 1.362 . S
C794 C797 1.409 . S
C795 H787 0.930 . S
C795 C796 1.355 . S
C795 C797 1.415 . S
C796 C795 1.355 . S
C796 C798 1.419 . S
C797 C792 1.425 . S
C797 C794 1.409 . S
C797 C795 1.415 . S
C798 H788 0.930 . S
C798 C796 1.419 . S
C798 C799 1.362 . S
C799 H789 0.930 . S
C799 C792 1.409 . S
C799 C798 1.362 . S
H800 C806 0.930 . S
H801 C809 0.930 . S
H802 C810 0.930 . S
H803 C811 0.930 . S
H804 C814 0.930 . S
H805 C815 0.930 . S
C806 H800 0.930 . S
C806 C807 1.355 . S
C806 C808 1.415 . S
C807 C806 1.355 . S
C807 C809 1.419 . S
C808 C806 1.415 . S
C808 C813 1.425 . S
C808 C815 1.409 . S
C809 H801 0.930 . S
C809 C807 1.419 . S
C809 C810 1.362 . S
C810 H802 0.930 . S
C810 C809 1.362 . S
C810 C813 1.409 . S
C811 H803 0.930 . S
C811 C812 1.355 . S
C811 C813 1.415 . S
C812 C811 1.355 . S
C812 C814 1.419 . S
C813 C808 1.425 . S
C813 C810 1.409 . S
C813 C811 1.415 . S
C814 H804 0.930 . S
C814 C812 1.419 . S
C814 C815 1.362 . S
C815 H805 0.930 . S
C815 C808 1.409 . S
C815 C814 1.362 . S
H816 C822 0.930 . S
H817 C825 0.930 . S
H818 C826 0.930 . S
H819 C827 0.930 . S
H820 C830 0.930 . S
H821 C831 0.930 . S
C822 H816 0.930 . S
C822 C823 1.355 . S
C822 C824 1.415 . S
C823 C822 1.355 . S
C823 C825 1.419 . S
C824 C822 1.415 . S
C824 C829 1.425 . S
C824 C831 1.409 . S
C825 H817 0.930 . S
C825 C823 1.419 . S
C825 C826 1.362 . S
C826 H818 0.930 . S
C826 C825 1.362 . S
C826 C829 1.409 . S
C827 H819 0.930 . S
C827 C828 1.355 . S
C827 C829 1.415 . S
C828 C827 1.355 . S
C828 C830 1.419 . S
C829 C824 1.425 . S
C829 C826 1.409 . S
C829 C827 1.415 . S
C830 H820 0.930 . S
C830 C828 1.419 . S
C830 C831 1.362 . S
C831 H821 0.930 . S
C831 C824 1.409 . S
C831 C830 1.362 . S
H832 C838 0.930 . S
H833 C841 0.930 . S
H834 C842 0.930 . S
H835 C843 0.930 . S
H836 C846 0.930 . S
H837 C847 0.930 . S
C838 H832 0.930 . S
C838 C839 1.355 . S
C838 C840 1.415 . S
C839 C838 1.355 . S
C839 C841 1.419 . S
C840 C838 1.415 . S
C840 C845 1.425 . S
C840 C847 1.409 . S
C841 H833 0.930 . S
C841 C839 1.419 . S
C841 C842 1.362 . S
C842 H834 0.930 . S
C842 C841 1.362 . S
C842 C845 1.409 . S
C843 H835 0.930 . S
C843 C844 1.355 . S
C843 C845 1.415 . S
C844 C843 1.355 . S
C844 C846 1.419 . S
C845 C840 1.425 . S
C845 C842 1.409 . S
C845 C843 1.415 . S
C846 H836 0.930 . S
C846 C844 1.419 . S
C846 C847 1.362 . S
C847 H837 0.930 . S
C847 C840 1.409 . S
C847 C846 1.362 . S
H848 C854 0.930 . S
H849 C857 0.930 . S
H850 C858 0.930 . S
H851 C859 0.930 . S
H852 C862 0.930 . S
H853 C863 0.930 . S
C854 H848 0.930 . S
C854 C855 1.355 . S
C854 C856 1.415 . S
C855 C854 1.355 . S
C855 C857 1.419 . S
C856 C854 1.415 . S
C856 C861 1.425 . S
C856 C863 1.409 . S
C857 H849 0.930 . S
C857 C855 1.419 . S
C857 C858 1.362 . S
C858 H850 0.930 . S
C858 C857 1.362 . S
C858 C861 1.409 . S
C859 H851 0.930 . S
C859 C860 1.355 . S
C859 C861 1.415 . S
C860 C859 1.355 . S
C860 C862 1.419 . S
C861 C856 1.425 . S
C861 C858 1.409 . S
C861 C859 1.415 . S
C862 H852 0.930 . S
C862 C860 1.419 . S
C862 C863 1.362 . S
C863 H853 0.930 . S
C863 C856 1.409 . S
C863 C862 1.362 . S
H864 C870 0.930 . S
H865 C873 0.930 . S
H866 C874 0.930 . S
H867 C875 0.930 . S
H868 C878 0.930 . S
H869 C879 0.930 . S
C870 H864 0.930 . S
C870 C871 1.355 . S
C870 C872 1.415 . S
C871 C870 1.355 . S
C871 C873 1.419 . S
C872 C870 1.415 . S
C872 C877 1.425 . S
C872 C879 1.409 . S
C873 H865 0.930 . S
C873 C871 1.419 . S
C873 C874 1.362 . S
C874 H866 0.930 . S
C874 C873 1.362 . S
C874 C877 1.409 . S
C875 H867 0.930 . S
C875 C876 1.355 . S
C875 C877 1.415 . S
C876 C875 1.355 . S
C876 C878 1.419 . S
C877 C872 1.425 . S
C877 C874 1.409 . S
C877 C875 1.415 . S
C878 H868 0.930 . S
C878 C876 1.419 . S
C878 C879 1.362 . S
C879 H869 0.930 . S
C879 C872 1.409 . S
C879 C878 1.362 . S
H880 C886 0.930 . S
H881 C889 0.930 . S
H882 C890 0.930 . S
H883 C891 0.930 . S
H884 C894 0.930 . S
H885 C895 0.930 . S
C886 H880 0.930 . S
C886 C887 1.355 . S
C886 C888 1.415 . S
C887 C886 1.355 . S
C887 C889 1.419 . S
C888 C886 1.415 . S
C888 C893 1.425 . S
C888 C895 1.409 . S
C889 H881 0.930 . S
C889 C887 1.419 . S
C889 C890 1.362 . S
C890 H882 0.930 . S
C890 C889 1.362 . S
C890 C893 1.409 . S
C891 H883 0.930 . S
C891 C892 1.355 . S
C891 C893 1.415 . S
C892 C891 1.355 . S
C892 C894 1.419 . S
C893 C888 1.425 . S
C893 C890 1.409 . S
C893 C891 1.415 . S
C894 H884 0.930 . S
C894 C892 1.419 . S
C894 C895 1.362 . S
C895 H885 0.930 . S
C895 C888 1.409 . S
C895 C894 1.362 . S
H896 C902 0.930 . S
H897 C905 0.930 . S
H898 C906 0.930 . S
H899 C907 0.930 . S
H900 C910 0.930 . S
H901 C911 0.930 . S
C902 H896 0.930 . S
C902 C903 1.355 . S
C902 C904 1.415 . S
C903 C902 1.355 . S
C903 C905 1.419 . S
C904 C902 1.415 . S
C904 C909 1.425 . S
C904 C911 1.409 . S
C905 H897 0.930 . S
C905 C903 1.419 . S
C905 C906 1.362 . S
C906 H898 0.930 . S
C906 C905 1.362 . S
C906 C909 1.409 . S
C907 H899 0.930 . S
C907 C908 1.355 . S
C907 C909 1.415 . S
C908 C907 1.355 . S
C908 C910 1.419 . S
C909 C904 1.425 . S
C909 C906 1.409 . S
C909 C907 1.415 . S
C910 H900 0.930 . S
C910 C908 1.419 . S
C910 C911 1.362 . S
C911 H901 0.930 . S
C911 C904 1.409 . S
C911 C910 1.362 . S
H912 C918 0.930 . S
H913 C921 0.930 . S
H914 C922 0.930 . S
H915 C923 0.930 . S
H916 C926 0.930 . S
H917 C927 0.930 . S
C918 H912 0.930 . S
C918 C919 1.355 . S
C918 C920 1.415 . S
C919 C918 1.355 . S
C919 C921 1.419 . S
C920 C918 1.415 . S
C920 C925 1.425 . S
C920 C927 1.409 . S
C921 H913 0.930 . S
C921 C919 1.419 . S
C921 C922 1.362 . S
C922 H914 0.930 . S
C922 C921 1.362 . S
C922 C925 1.409 . S
C923 H915 0.930 . S
C923 C924 1.355 . S
C923 C925 1.415 . S
C924 C923 1.355 . S
C924 C926 1.419 . S
C925 C920 1.425 . S
C925 C922 1.409 . S
C925 C923 1.415 . S
C926 H916 0.930 . S
C926 C924 1.419 . S
C926 C927 1.362 . S
C927 H917 0.930 . S
C927 C920 1.409 . S
C927 C926 1.362 . S
H928 C934 0.930 . S
H929 C937 0.930 . S
H930 C938 0.930 . S
H931 C939 0.930 . S
H932 C942 0.930 . S
H933 C943 0.930 . S
C934 H928 0.930 . S
C934 C935 1.355 . S
C934 C936 1.415 . S
C935 C934 1.355 . S
C935 C937 1.419 . S
C936 C934 1.415 . S
C936 C941 1.425 . S
C936 C943 1.409 . S
C937 H929 0.930 . S
C937 C935 1.419 . S
C937 C938 1.362 . S
C938 H930 0.930 . S
C938 C937 1.362 . S
C938 C941 1.409 . S
C939 H931 0.930 . S
C939 C940 1.355 . S
C939 C941 1.415 . S
C940 C939 1.355 . S
C940 C942 1.419 . S
C941 C936 1.425 . S
C941 C938 1.409 . S
C941 C939 1.415 . S
C942 H932 0.930 . S
C942 C940 1.419 . S
C942 C943 1.362 . S
C943 H933 0.930 . S
C943 C936 1.409 . S
C943 C942 1.362 . S
H944 C950 0.930 . S
H945 C953 0.930 . S
H946 C954 0.930 . S
H947 C955 0.930 . S
H948 C958 0.930 . S
H949 C959 0.930 . S
C950 H944 0.930 . S
C950 C951 1.355 . S
C950 C952 1.415 . S
C951 C950 1.355 . S
C951 C953 1.419 . S
C952 C950 1.415 . S
C952 C957 1.425 . S
C952 C959 1.409 . S
C953 H945 0.930 . S
C953 C951 1.419 . S
C953 C954 1.362 . S
C954 H946 0.930 . S
C954 C953 1.362 . S
C954 C957 1.409 . S
C955 H947 0.930 . S
C955 C956 1.355 . S
C955 C957 1.415 . S
C956 C955 1.355 . S
C956 C958 1.419 . S
C957 C952 1.425 . S
C957 C954 1.409 . S
C957 C955 1.415 . S
C958 H948 0.930 . S
C958 C956 1.419 . S
C958 C959 1.362 . S
C959 H949 0.930 . S
C959 C952 1.409 . S
C959 C958 1.362 . S
H960 C966 0.930 . S
H961 C969 0.930 . S
H962 C970 0.930 . S
H963 C971 0.930 . S
H964 C974 0.930 . S
H965 C975 0.930 . S
C966 H960 0.930 . S
C966 C967 1.355 . S
C966 C968 1.415 . S
C967 C966 1.355 . S
C967 C969 1.419 . S
C968 C966 1.415 . S
C968 C973 1.425 . S
C968 C975 1.409 . S
C969 H961 0.930 . S
C969 C967 1.419 . S
C969 C970 1.362 . S
C970 H962 0.930 . S
C970 C969 1.362 . S
C970 C973 1.409 . S
C971 H963 0.930 . S
C971 C972 1.355 . S
C971 C973 1.415 . S
C972 C971 1.355 . S
C972 C974 1.419 . S
C973 C968 1.425 . S
C973 C970 1.409 . S
C973 C971 1.415 . S
C974 H964 0.930 . S
C974 C972 1.419 . S
C974 C975 1.362 . S
C975 H965 0.930 . S
C975 C968 1.409 . S
C975 C974 1.362 . S
H976 C982 0.930 . S
H977 C985 0.930 . S
H978 C986 0.930 . S
H979 C987 0.930 . S
H980 C990 0.930 . S
H981 C991 0.930 . S
C982 H976 0.930 . S
C982 C983 1.355 . S
C982 C984 1.415 . S
C983 C982 1.355 . S
C983 C985 1.419 . S
C984 C982 1.415 . S
C984 C989 1.425 . S
C984 C991 1.409 . S
C985 H977 0.930 . S
C985 C983 1.419 . S
C985 C986 1.362 . S
C986 H978 0.930 . S
C986 C985 1.362 . S
C986 C989 1.409 . S
C987 H979 0.930 . S
C987 C988 1.355 . S
C987 C989 1.415 . S
C988 C987 1.355 . S
C988 C990 1.419 . S
C989 C984 1.425 . S
C989 C986 1.409 . S
C989 C987 1.415 . S
C990 H980 0.930 . S
C990 C988 1.419 . S
C990 C991 1.362 . S
C991 H981 0.930 . S
C991 C984 1.409 . S
C991 C990 1.362 . S
H992 C998 0.930 . S
H993 C1001 0.930 . S
H994 C1002 0.930 . S
H995 C1003 0.930 . S
H996 C1006 0.930 . S
H997 C1007 0.930 . S
C998 H992 0.930 . S
C998 C999 1.355 . S
C998 C1000 1.415 . S
C999 C998 1.355 . S
C999 C1001 1.419 . S
C1000 C998 1.415 . S
C1000 C1005 1.425 . S
C1000 C1007 1.409 . S
C1001 H993 0.930 . S
C1001 C999 1.419 . S
C1001 C1002 1.362 . S
C1002 H994 0.930 . S
C1002 C1001 1.362 . S
C1002 C1005 1.409 . S
C1003 H995 0.930 . S
C1003 C1004 1.355 . S
C1003 C1005 1.415 . S
C1004 C1003 1.355 . S
C1004 C1006 1.419 . S
C1005 C1000 1.425 . S
C1005 C1002 1.409 . S
C1005 C1003 1.415 . S
C1006 H996 0.930 . S
C1006 C1004 1.419 . S
C1006 C1007 1.362 . S
C1007 H997 0.930 . S
C1007 C1000 1.409 . S
C1007 C1006 1.362 . S
H1008 C1014 0.930 . S
H1009 C1017 0.930 . S
H1010 C1018 0.930 . S
H1011 C1019 0.930 . S
H1012 C1022 0.930 . S
H1013 C1023 0.930 . S
C1014 H1008 0.930 . S
C1014 C1015 1.355 . S
C1014 C1016 1.415 . S
C1015 C1014 1.355 . S
C1015 C1017 1.419 . S
C1016 C1014 1.415 . S
C1016 C1021 1.425 . S
C1016 C1023 1.409 . S
C1017 H1009 0.930 . S
C1017 C1015 1.419 . S
C1017 C1018 1.362 . S
C1018 H1010 0.930 . S
C1018 C1017 1.362 . S
C1018 C1021 1.409 . S
C1019 H1011 0.930 . S
C1019 C1020 1.355 . S
C1019 C1021 1.415 . S
C1020 C1019 1.355 . S
C1020 C1022 1.419 . S
C1021 C1016 1.425 . S
C1021 C1018 1.409 . S
C1021 C1019 1.415 . S
C1022 H1012 0.930 . S
C1022 C1020 1.419 . S
C1022 C1023 1.362 . S
C1023 H1013 0.930 . S
C1023 C1016 1.409 . S
C1023 C1022 1.362 . S
H1024 C1030 0.930 . S
H1025 C1033 0.930 . S
H1026 C1034 0.930 . S
H1027 C1035 0.930 . S
H1028 C1038 0.930 . S
H1029 C1039 0.930 . S
C1030 H1024 0.930 . S
C1030 C1031 1.355 . S
C1030 C1032 1.415 . S
C1031 C1030 1.355 . S
C1031 C1033 1.419 . S
C1032 C1030 1.415 . S
C1032 C1037 1.425 . S
C1032 C1039 1.409 . S
C1033 H1025 0.930 . S
C1033 C1031 1.419 . S
C1033 C1034 1.362 . S
C1034 H1026 0.930 . S
C1034 C1033 1.362 . S
C1034 C1037 1.409 . S
C1035 H1027 0.930 . S
C1035 C1036 1.355 . S
C1035 C1037 1.415 . S
C1036 C1035 1.355 . S
C1036 C1038 1.419 . S
C1037 C1032 1.425 . S
C1037 C1034 1.409 . S
C1037 C1035 1.415 . S
C1038 H1028 0.930 . S
C1038 C1036 1.419 . S
C1038 C1039 1.362 . S
C1039 H1029 0.930 . S
C1039 C1032 1.409 . S
C1039 C1038 1.362 . S
H1040 C1046 0.930 . S
H1041 C1049 0.930 . S
H1042 C1050 0.930 . S
H1043 C1051 0.930 . S
H1044 C1054 0.930 . S
H1045 C1055 0.930 . S
C1046 H1040 0.930 . S
C1046 C1047 1.355 . S
C1046 C1048 1.415 . S
C1047 C1046 1.355 . S
C1047 C1049 1.419 . S
C1048 C1046 1.415 . S
C1048 C1053 1.425 . S
C1048 C1055 1.409 . S
C1049 H1041 0.930 . S
C1049 C1047 1.419 . S
C1049 C1050 1.362 . S
C1050 H1042 0.930 . S
C1050 C1049 1.362 . S
C1050 C1053 1.409 . S
C1051 H1043 0.930 . S
C1051 C1052 1.355 . S
C1051 C1053 1.415 . S
C1052 C1051 1.355 . S
C1052 C1054 1.419 . S
C1053 C1048 1.425 . S
C1053 C1050 1.409 . S
C1053 C1051 1.415 . S
C1054 H1044 0.930 . S
C1054 C1052 1.419 . S
C1054 C1055 1.362 . S
C1055 H1045 0.930 . S
C1055 C1048 1.409 . S
C1055 C1054 1.362 . S
H1056 C1062 0.930 . S
H1057 C1065 0.930 . S
H1058 C1066 0.930 . S
H1059 C1067 0.930 . S
H1060 C1070 0.930 . S
H1061 C1071 0.930 . S
C1062 H1056 0.930 . S
C1062 C1063 1.355 . S
C1062 C1064 1.415 . S
C1063 C1062 1.355 . S
C1063 C1065 1.419 . S
C1064 C1062 1.415 . S
C1064 C1069 1.425 . S
C1064 C1071 1.409 . S
C1065 H1057 0.930 . S
C1065 C1063 1.419 . S
C1065 C1066 1.362 . S
C1066 H1058 0.930 . S
C1066 C1065 1.362 . S
C1066 C1069 1.409 . S
C1067 H1059 0.930 . S
C1067 C1068 1.355 . S
C1067 C1069 1.415 . S
C1068 C1067 1.355 . S
C1068 C1070 1.419 . S
C1069 C1064 1.425 . S
C1069 C1066 1.409 . S
C1069 C1067 1.415 . S
C1070 H1060 0.930 . S
C1070 C1068 1.419 . S
C1070 C1071 1.362 . S
C1071 H1061 0.930 . S
C1071 C1064 1.409 . S
C1071 C1070 1.362 . S
H1072 C1078 0.930 . S
H1073 C1081 0.930 . S
H1074 C1082 0.930 . S
H1075 C1083 0.930 . S
H1076 C1086 0.930 . S
H1077 C1087 0.930 . S
C1078 H1072 0.930 . S
C1078 C1079 1.355 . S
C1078 C1080 1.415 . S
C1079 C1078 1.355 . S
C1079 C1081 1.419 . S
C1080 C1078 1.415 . S
C1080 C1085 1.425 . S
C1080 C1087 1.409 . S
C1081 H1073 0.930 . S
C1081 C1079 1.419 . S
C1081 C1082 1.362 . S
C1082 H1074 0.930 . S
C1082 C1081 1.362 . S
C1082 C1085 1.409 . S
C1083 H1075 0.930 . S
C1083 C1084 1.355 . S
C1083 C1085 1.415 . S
C1084 C1083 1.355 . S
C1084 C1086 1.419 . S
C1085 C1080 1.425 . S
C1085 C1082 1.409 . S
C1085 C1083 1.415 . S
C1086 H1076 0.930 . S
C1086 C1084 1.419 . S
C1086 C1087 1.362 . S
C1087 H1077 0.930 . S
C1087 C1080 1.409 . S
C1087 C1086 1.362 . S
H1088 C1094 0.930 . S
H1089 C1097 0.930 . S
H1090 C1098 0.930 . S
H1091 C1099 0.930 . S
H1092 C1102 0.930 . S
H1093 C1103 0.930 . S
C1094 H1088 0.930 . S
C1094 C1095 1.355 . S
C1094 C1096 1.415 . S
C1095 C1094 1.355 . S
C1095 C1097 1.419 . S
C1096 C1094 1.415 . S
C1096 C1101 1.425 . S
C1096 C1103 1.409 . S
C1097 H1089 0.930 . S
C1097 C1095 1.419 . S
C1097 C1098 1.362 . S
C1098 H1090 0.930 . S
C1098 C1097 1.362 . S
C1098 C1101 1.409 . S
C1099 H1091 0.930 . S
C1099 C1100 1.355 . S
C1099 C1101 1.415 . S
C1100 C1099 1.355 . S
C1100 C1102 1.419 . S
C1101 C1096 1.425 . S
C1101 C1098 1.409 . S
C1101 C1099 1.415 . S
C1102 H1092 0.930 . S
C1102 C1100 1.419 . S
C1102 C1103 1.362 . S
C1103 H1093 0.930 . S
C1103 C1096 1.409 . S
C1103 C1102 1.362 . S
C343 C218 1.265 . S
C348 C7 1.265 . S
C359 C175 1.337 . S
C364 C22 1.366 . S
C375 C189 1.379 . S
C380 C35 1.336 . S
C391 C203 1.359 . S
C396 C50 1.374 . S
C407 C204 1.358 . S
C412 C21 1.353 . S
C423 C36 1.362 . S
C428 C217 1.368 . S
C439 C176 1.357 . S
C444 C49 1.357 . S
C455 C190 1.259 . S
C460 C8 1.263 . S
C471 C260 1.203 . S
C476 C64 1.205 . S
C487 C77 1.425 . S
C492 C273 1.438 . S
C503 C92 1.225 . S
C508 C232 1.222 . S
C519 C245 1.422 . S
C524 C105 1.417 . S
C535 C315 1.483 . S
C540 C119 1.448 . S
C551 C133 1.228 . S
C556 C330 1.237 . S
C567 C147 1.496 . S
C572 C287 1.457 . S
C583 C161 1.216 . S
C588 C302 1.218 . S
C599 C246 1.256 . S
C604 C162 1.258 . S
C615 C329 1.411 . S
C620 C78 1.416 . S
C631 C91 1.378 . S
C636 C288 1.373 . S
C647 C301 1.410 . S
C652 C106 1.406 . S
C663 C316 1.322 . S
C668 C63 1.293 . S
C679 C134 1.314 . S
C684 C274 1.317 . S
C695 C231 1.333 . S
C700 C148 1.340 . S
C711 C259 1.332 . S
C716 C120 1.333 . S
C727 C3 0.931 . S
C732 C59 0.998 . S
C743 C79 1.030 . S
C748 C23 0.940 . S
C759 C31 1.068 . S
C764 C87 1.009 . S
C775 C51 1.039 . S
C780 C107 1.020 . S
C791 C121 1.057 . S
C796 C17 1.000 . S
C807 C135 1.020 . S
C812 C37 0.943 . S
C823 C149 0.994 . S
C828 C45 1.068 . S
C839 C9 0.876 . S
C844 C163 0.842 . S
C855 C157 0.971 . S
C860 C65 0.887 . S
C871 C73 1.060 . S
C876 C115 1.119 . S
C887 C93 0.947 . S
C892 C129 0.970 . S
C903 C143 1.121 . S
C908 C101 1.115 . S
C919 C227 0.926 . S
C924 C177 0.949 . S
C935 C247 0.988 . S
C940 C191 0.986 . S
C951 C205 0.977 . S
C956 C255 0.932 . S
C967 C213 0.974 . S
C972 C275 1.036 . S
C983 C185 1.048 . S
C988 C289 1.055 . S
C999 C199 1.077 . S
C1004 C297 1.086 . S
C1015 C317 0.916 . S
C1020 C219 0.930 . S
C1031 C171 1.083 . S
C1036 C325 1.077 . S
C1047 C233 0.941 . S
C1052 C331 0.859 . S
C1063 C283 1.086 . S
C1068 C241 1.027 . S
C1079 C261 0.930 . S
C1084 C303 0.842 . S
C1095 C311 1.106 . S
C1100 C269 1.052 . S
